# Generated by pormake.
# Topology uop, (4)-cn, num edge types: 1
# Building blocks:
#     Node 0, Type 0, BuildingBlock: KOZSID_clean_sbu_0, # of connection points: 4
#     Node 1, Type 0, BuildingBlock: KOZSID_clean_sbu_0, # of connection points: 4
#     Node 2, Type 0, BuildingBlock: KOZSID_clean_sbu_0, # of connection points: 4
#     Node 3, Type 0, BuildingBlock: KOZSID_clean_sbu_0, # of connection points: 4
#     Node 4, Type 0, BuildingBlock: KOZSID_clean_sbu_0, # of connection points: 4
#     Node 5, Type 0, BuildingBlock: KOZSID_clean_sbu_0, # of connection points: 4
#     Node 6, Type 0, BuildingBlock: KOZSID_clean_sbu_0, # of connection points: 4
#     Node 7, Type 0, BuildingBlock: KOZSID_clean_sbu_0, # of connection points: 4
#     Node 8, Type 0, BuildingBlock: KOZSID_clean_sbu_0, # of connection points: 4
#     Node 9, Type 0, BuildingBlock: KOZSID_clean_sbu_0, # of connection points: 4
#     Node 10, Type 0, BuildingBlock: KOZSID_clean_sbu_0, # of connection points: 4
#     Node 11, Type 0, BuildingBlock: KOZSID_clean_sbu_0, # of connection points: 4
#     Edge 12, Type (0, 0), BuildingBlock: MIFKUJ_clean_linker_0, # of connection points: 2
#     Edge 13, Type (0, 0), BuildingBlock: MIFKUJ_clean_linker_0, # of connection points: 2
#     Edge 14, Type (0, 0), BuildingBlock: MIFKUJ_clean_linker_0, # of connection points: 2
#     Edge 15, Type (0, 0), BuildingBlock: MIFKUJ_clean_linker_0, # of connection points: 2
#     Edge 16, Type (0, 0), BuildingBlock: MIFKUJ_clean_linker_0, # of connection points: 2
#     Edge 17, Type (0, 0), BuildingBlock: MIFKUJ_clean_linker_0, # of connection points: 2
#     Edge 18, Type (0, 0), BuildingBlock: MIFKUJ_clean_linker_0, # of connection points: 2
#     Edge 19, Type (0, 0), BuildingBlock: MIFKUJ_clean_linker_0, # of connection points: 2
#     Edge 20, Type (0, 0), BuildingBlock: MIFKUJ_clean_linker_0, # of connection points: 2
#     Edge 21, Type (0, 0), BuildingBlock: MIFKUJ_clean_linker_0, # of connection points: 2
#     Edge 22, Type (0, 0), BuildingBlock: MIFKUJ_clean_linker_0, # of connection points: 2
#     Edge 23, Type (0, 0), BuildingBlock: MIFKUJ_clean_linker_0, # of connection points: 2
#     Edge 24, Type (0, 0), BuildingBlock: MIFKUJ_clean_linker_0, # of connection points: 2
#     Edge 25, Type (0, 0), BuildingBlock: MIFKUJ_clean_linker_0, # of connection points: 2
#     Edge 26, Type (0, 0), BuildingBlock: MIFKUJ_clean_linker_0, # of connection points: 2
#     Edge 27, Type (0, 0), BuildingBlock: MIFKUJ_clean_linker_0, # of connection points: 2
#     Edge 28, Type (0, 0), BuildingBlock: MIFKUJ_clean_linker_0, # of connection points: 2
#     Edge 29, Type (0, 0), BuildingBlock: MIFKUJ_clean_linker_0, # of connection points: 2
#     Edge 30, Type (0, 0), BuildingBlock: MIFKUJ_clean_linker_0, # of connection points: 2
#     Edge 31, Type (0, 0), BuildingBlock: MIFKUJ_clean_linker_0, # of connection points: 2
#     Edge 32, Type (0, 0), BuildingBlock: MIFKUJ_clean_linker_0, # of connection points: 2
#     Edge 33, Type (0, 0), BuildingBlock: MIFKUJ_clean_linker_0, # of connection points: 2
#     Edge 34, Type (0, 0), BuildingBlock: MIFKUJ_clean_linker_0, # of connection points: 2
#     Edge 35, Type (0, 0), BuildingBlock: MIFKUJ_clean_linker_0, # of connection points: 2
# Relax obj value: 0.066
# Max RMSD: 0.262
# Mean RMSD: 0.244
data_MOF--net-uop--node1-KOZSID_clean_sbu_0--edge1-MIFKUJ_clean_linker_0
_symmetry_space_group_name_H-M    P1
_symmetry_Int_Tables_number       1
_symmetry_cell_setting            triclinic
loop_
_symmetry_equiv_pos_as_xyz
'x, y, z'
_cell_length_a     49.926977
_cell_length_b     48.375637
_cell_length_c     81.722312
_cell_angle_alpha  90.102024
_cell_angle_beta   89.938646
_cell_angle_gamma 121.13404
loop_
_atom_site_label
_atom_site_type_symbol
_atom_site_fract_x
_atom_site_fract_y
_atom_site_fract_z
_atom_type_partial_charge
C0 C 0.33975 0.44491 0.21268 0.0
C1 C 0.35972 0.44194 0.20194 0.0
C2 C 0.34196 0.42433 0.18889 0.0
C3 C 0.31237 0.41784 0.1923 0.0
N4 N 0.31025 0.43035 0.20662 0.0
Co5 Co 0.27183 0.42779 0.21551 0.0
N6 N 0.24388 0.39149 0.20038 0.0
C7 C 0.25371 0.38153 0.18752 0.0
C8 C 0.22994 0.35713 0.17869 0.0
C9 C 0.20316 0.3516 0.18613 0.0
C10 C 0.21206 0.37312 0.19917 0.0
N11 N 0.23317 0.42594 0.22383 0.0
C12 C 0.20227 0.40562 0.22011 0.0
C13 C 0.18378 0.41536 0.22787 0.0
C14 C 0.20362 0.44317 0.23622 0.0
C15 C 0.2331 0.44888 0.23322 0.0
N16 N 0.30005 0.46341 0.23073 0.0
C17 C 0.29212 0.48156 0.23956 0.0
C18 C 0.31576 0.50297 0.24971 0.0
C19 C 0.34014 0.49799 0.24709 0.0
C20 C 0.3301 0.47389 0.23536 0.0
N21 N 0.27599 0.4601 0.19918 0.0
C22 C 0.27807 0.51266 0.1828 0.0
C23 C 0.30508 0.51557 0.18984 0.0
C24 C 0.3036 0.48908 0.19783 0.0
C25 C 0.2508 0.48196 0.18292 0.0
C26 C 0.25033 0.45616 0.19098 0.0
N27 N 0.26841 0.39695 0.23262 0.0
C28 C 0.26498 0.38596 0.26169 0.0
C29 C 0.27869 0.36716 0.25985 0.0
C30 C 0.28476 0.36143 0.24373 0.0
C31 C 0.27931 0.37637 0.23032 0.0
C32 C 0.26012 0.40043 0.24814 0.0
H33 H 0.28541 0.37253 0.2182 0.0
H34 H 0.25135 0.4161 0.25058 0.0
H35 H 0.32452 0.49269 0.20369 0.0
H36 H 0.22858 0.43353 0.19117 0.0
C37 C 0.28542 0.39551 0.18404 0.0
C38 C 0.3499 0.46243 0.22826 0.0
C39 C 0.1897 0.37904 0.20799 0.0
C40 C 0.26103 0.47414 0.23985 0.0
H41 H 0.3845 0.45126 0.20341 0.0
H42 H 0.34945 0.416 0.17854 0.0
H43 H 0.23184 0.34534 0.16786 0.0
H44 H 0.17981 0.33485 0.18174 0.0
H45 H 0.15861 0.40409 0.22714 0.0
H46 H 0.19728 0.45756 0.24357 0.0
H47 H 0.31495 0.51927 0.25851 0.0
H48 H 0.36257 0.51053 0.2532 0.0
H49 H 0.32691 0.53858 0.18996 0.0
H50 H 0.22954 0.47796 0.17717 0.0
H51 H 0.25876 0.39039 0.2737 0.0
H52 H 0.29502 0.34677 0.24152 0.0
C53 C 0.91126 0.32319 0.55154 0.0
C54 C 0.93789 0.34235 0.54223 0.0
C55 C 0.93901 0.32282 0.53055 0.0
C56 C 0.91328 0.2929 0.53339 0.0
N57 N 0.89577 0.29204 0.54617 0.0
Co58 Co 0.85733 0.25253 0.5547 0.0
N59 N 0.86425 0.2227 0.54056 0.0
C60 C 0.88714 0.232 0.52934 0.0
C61 C 0.88759 0.20689 0.52185 0.0
C62 C 0.86296 0.1797 0.52841 0.0
C63 C 0.84845 0.18979 0.53937 0.0
N64 N 0.81824 0.21262 0.5627 0.0
C65 C 0.80512 0.18057 0.55871 0.0
C66 C 0.77569 0.16216 0.56569 0.0
C67 C 0.76978 0.18302 0.574 0.0
C68 C 0.79572 0.21305 0.57163 0.0
N69 N 0.85101 0.28242 0.56897 0.0
C70 C 0.82472 0.27425 0.57733 0.0
C71 C 0.82664 0.29948 0.58608 0.0
C72 C 0.85598 0.32536 0.58298 0.0
C73 C 0.87041 0.31445 0.57249 0.0
N74 N 0.83173 0.25671 0.53745 0.0
C75 C 0.78183 0.25877 0.52266 0.0
C76 C 0.80838 0.28708 0.52829 0.0
C77 C 0.8331 0.28556 0.5355 0.0
C78 C 0.78268 0.23027 0.52275 0.0
C79 C 0.80807 0.22995 0.52984 0.0
N80 N 0.88233 0.24938 0.57277 0.0
C81 C 0.88814 0.2473 0.60213 0.0
C82 C 0.92045 0.2602 0.6007 0.0
C83 C 0.93286 0.2656 0.58475 0.0
C84 C 0.91343 0.25966 0.57102 0.0
C85 C 0.86975 0.24213 0.5882 0.0
H86 H 0.92403 0.26473 0.55908 0.0
H87 H 0.84557 0.23401 0.59021 0.0
H88 H 0.85216 0.30746 0.5406 0.0
H89 H 0.80725 0.2074 0.53004 0.0
C90 C 0.90811 0.26448 0.52626 0.0
C91 C 0.90134 0.33597 0.56503 0.0
C92 C 0.8176 0.16721 0.54659 0.0
C93 C 0.79997 0.24214 0.57773 0.0
H94 H 0.95508 0.36772 0.54384 0.0
H95 H 0.95729 0.32931 0.52158 0.0
H96 H 0.90371 0.20819 0.51258 0.0
H97 H 0.85574 0.15518 0.52501 0.0
H98 H 0.75947 0.1365 0.56432 0.0
H99 H 0.74868 0.17707 0.58063 0.0
H100 H 0.80897 0.29905 0.59395 0.0
H101 H 0.86551 0.34961 0.58766 0.0
H102 H 0.80918 0.30988 0.52817 0.0
H103 H 0.76329 0.20801 0.51793 0.0
H104 H 0.87714 0.24276 0.61404 0.0
H105 H 0.95754 0.27483 0.58286 0.0
C106 C 0.64284 0.85979 0.9465 0.0
C107 C 0.64557 0.85211 0.96251 0.0
C108 C 0.62563 0.81938 0.96402 0.0
C109 C 0.61196 0.809 0.9489 0.0
N110 N 0.62237 0.83311 0.93796 0.0
Co111 Co 0.60791 0.82961 0.91505 0.0
N112 N 0.5683 0.78849 0.91965 0.0
C113 C 0.56246 0.76997 0.93305 0.0
C114 C 0.53249 0.74396 0.93353 0.0
C115 C 0.51876 0.74577 0.91942 0.0
C116 C 0.54144 0.77256 0.91085 0.0
N117 N 0.59366 0.82609 0.89204 0.0
C118 C 0.56534 0.80568 0.88506 0.0
C119 C 0.5669 0.81006 0.86822 0.0
C120 C 0.59716 0.83363 0.86461 0.0
C121 C 0.61256 0.84235 0.87935 0.0
N122 N 0.64748 0.87101 0.91102 0.0
C123 C 0.66066 0.8826 0.89636 0.0
C124 C 0.68677 0.91312 0.89752 0.0
C125 C 0.68989 0.92105 0.91391 0.0
C126 C 0.66545 0.8949 0.92186 0.0
N127 N 0.62843 0.80513 0.90866 0.0
C128 C 0.66021 0.77694 0.89374 0.0
C129 C 0.67531 0.80231 0.90516 0.0
C130 C 0.65912 0.81612 0.9124 0.0
C131 C 0.62837 0.76491 0.89086 0.0
C132 C 0.61299 0.77887 0.89851 0.0
N133 N 0.58796 0.85459 0.92066 0.0
C134 C 0.58239 0.90017 0.9145 0.0
C135 C 0.56538 0.89562 0.92887 0.0
C136 C 0.55896 0.86924 0.93887 0.0
C137 C 0.57069 0.84915 0.93462 0.0
C138 C 0.59307 0.87943 0.91058 0.0
H139 H 0.5663 0.82964 0.94272 0.0
H140 H 0.60622 0.88415 0.89945 0.0
H141 H 0.67177 0.8365 0.92053 0.0
H142 H 0.58874 0.76903 0.89556 0.0
C143 C 0.58413 0.77991 0.94586 0.0
C144 C 0.65994 0.89245 0.93968 0.0
C145 C 0.5379 0.7793 0.89363 0.0
C146 C 0.64363 0.86767 0.88203 0.0
H147 H 0.6598 0.86854 0.97214 0.0
H148 H 0.61999 0.80537 0.97516 0.0
H149 H 0.52163 0.72621 0.94317 0.0
H150 H 0.49495 0.72874 0.91572 0.0
H151 H 0.54837 0.79694 0.8594 0.0
H152 H 0.6067 0.84333 0.85265 0.0
H153 H 0.70068 0.92866 0.88755 0.0
H154 H 0.70768 0.94356 0.91934 0.0
H155 H 0.69984 0.81238 0.90795 0.0
H156 H 0.61533 0.74491 0.8825 0.0
H157 H 0.58747 0.91979 0.90624 0.0
H158 H 0.54578 0.86474 0.95009 0.0
C159 C 0.68422 0.57263 0.21402 0.0
C160 C 0.66451 0.57672 0.20362 0.0
C161 C 0.68247 0.59511 0.19082 0.0
C162 C 0.7119 0.60094 0.19401 0.0
N163 N 0.71377 0.58731 0.20796 0.0
Co164 Co 0.75192 0.58871 0.21641 0.0
N165 N 0.7802 0.62565 0.20172 0.0
C166 C 0.77064 0.63658 0.1892 0.0
C167 C 0.79461 0.66134 0.18066 0.0
C168 C 0.82124 0.66611 0.18794 0.0
C169 C 0.81204 0.64379 0.20058 0.0
N170 N 0.7903 0.58964 0.22441 0.0
C171 C 0.82125 0.60986 0.22077 0.0
C172 C 0.83948 0.59934 0.22808 0.0
C173 C 0.81939 0.57118 0.23607 0.0
C174 C 0.79005 0.56604 0.2333 0.0
N175 N 0.72335 0.55225 0.23111 0.0
C176 C 0.73091 0.53314 0.23929 0.0
C177 C 0.70701 0.51093 0.24903 0.0
C178 C 0.68282 0.51634 0.24681 0.0
C179 C 0.69324 0.5415 0.23571 0.0
N180 N 0.74739 0.55712 0.19948 0.0
C181 C 0.74524 0.50469 0.18287 0.0
C182 C 0.71815 0.50185 0.1898 0.0
C183 C 0.71967 0.52832 0.19788 0.0
C184 C 0.77254 0.53536 0.18305 0.0
C185 C 0.77304 0.56111 0.19123 0.0
N186 N 0.75584 0.61884 0.23404 0.0
C187 C 0.75861 0.62854 0.26323 0.0
C188 C 0.74968 0.65153 0.26146 0.0
C189 C 0.74518 0.65866 0.24529 0.0
C190 C 0.74836 0.64212 0.23182 0.0
C191 C 0.76191 0.61308 0.24958 0.0
H192 H 0.74377 0.64743 0.21968 0.0
H193 H 0.76778 0.59501 0.25189 0.0
H194 H 0.69873 0.52477 0.2037 0.0
H195 H 0.79485 0.58367 0.19155 0.0
C196 C 0.73897 0.62336 0.18586 0.0
C197 C 0.67364 0.5536 0.22913 0.0
C198 C 0.8341 0.63705 0.20905 0.0
C199 C 0.76193 0.54032 0.23948 0.0
H200 H 0.63976 0.56749 0.20512 0.0
H201 H 0.67519 0.60424 0.18076 0.0
H202 H 0.79295 0.67395 0.17015 0.0
H203 H 0.8447 0.68296 0.18372 0.0
H204 H 0.8646 0.61031 0.22724 0.0
H205 H 0.82547 0.5561 0.24295 0.0
H206 H 0.70751 0.49376 0.25731 0.0
H207 H 0.66023 0.50332 0.25274 0.0
H208 H 0.69627 0.47889 0.18981 0.0
H209 H 0.79382 0.53934 0.17733 0.0
H210 H 0.76183 0.6211 0.27517 0.0
H211 H 0.73888 0.67659 0.24297 0.0
C212 C 0.11168 0.69434 0.55226 0.0
C213 C 0.08582 0.67417 0.54267 0.0
C214 C 0.08512 0.69267 0.53028 0.0
C215 C 0.11048 0.72296 0.53296 0.0
N216 N 0.12729 0.725 0.54627 0.0
Co217 Co 0.16571 0.76505 0.5543 0.0
N218 N 0.15885 0.79382 0.53933 0.0
C219 C 0.13707 0.78347 0.52742 0.0
C220 C 0.1377 0.80784 0.5186 0.0
C221 C 0.16182 0.83563 0.52503 0.0
C222 C 0.17471 0.82665 0.53748 0.0
N223 N 0.20486 0.80535 0.56175 0.0
C224 C 0.21767 0.83711 0.55738 0.0
C225 C 0.24691 0.85621 0.56444 0.0
C226 C 0.25318 0.83595 0.57305 0.0
C227 C 0.22749 0.80562 0.57087 0.0
N228 N 0.172 0.73626 0.56937 0.0
C229 C 0.19836 0.74493 0.57776 0.0
C230 C 0.19629 0.72034 0.58713 0.0
C231 C 0.16677 0.6944 0.58443 0.0
C232 C 0.15242 0.7046 0.57351 0.0
N233 N 0.19119 0.7595 0.53748 0.0
C234 C 0.24079 0.75622 0.52274 0.0
C235 C 0.215 0.7288 0.52971 0.0
C236 C 0.19031 0.73077 0.53659 0.0
C237 C 0.23892 0.78421 0.5216 0.0
C238 C 0.2141 0.78532 0.52899 0.0
N239 N 0.1408 0.7695 0.572 0.0
C240 C 0.13491 0.77148 0.60133 0.0
C241 C 0.10243 0.7572 0.59995 0.0
C242 C 0.08998 0.75209 0.58402 0.0
C243 C 0.10954 0.75854 0.57024 0.0
C244 C 0.15346 0.77752 0.58738 0.0
H245 H 0.09894 0.75289 0.55827 0.0
H246 H 0.17786 0.78669 0.58936 0.0
H247 H 0.17167 0.70942 0.54231 0.0
H248 H 0.21467 0.80778 0.52857 0.0
C249 C 0.11628 0.75071 0.52483 0.0
C250 C 0.12116 0.68285 0.56643 0.0
C251 C 0.20459 0.8499 0.54539 0.0
C252 C 0.22326 0.77702 0.57763 0.0
H253 H 0.06909 0.64872 0.54445 0.0
H254 H 0.06753 0.68519 0.52082 0.0
H255 H 0.12281 0.80564 0.50844 0.0
H256 H 0.16986 0.85967 0.5205 0.0
H257 H 0.26253 0.882 0.56304 0.0
H258 H 0.27418 0.84253 0.57993 0.0
H259 H 0.21394 0.72129 0.59519 0.0
H260 H 0.15704 0.67057 0.58968 0.0
H261 H 0.2144 0.70622 0.53083 0.0
H262 H 0.25704 0.80569 0.51556 0.0
H263 H 0.14603 0.77703 0.61323 0.0
H264 H 0.06508 0.74157 0.58219 0.0
C265 C 0.38184 0.15831 0.94687 0.0
C266 C 0.37915 0.16629 0.96284 0.0
C267 C 0.39903 0.19907 0.96423 0.0
C268 C 0.41259 0.20918 0.94906 0.0
N269 N 0.40218 0.18485 0.93823 0.0
Co270 Co 0.4166 0.18788 0.91534 0.0
N271 N 0.45622 0.22908 0.91982 0.0
C272 C 0.46194 0.24802 0.93307 0.0
C273 C 0.49179 0.27429 0.93339 0.0
C274 C 0.50555 0.27216 0.91934 0.0
C275 C 0.48305 0.24489 0.91099 0.0
N276 N 0.43085 0.19087 0.89237 0.0
C277 C 0.45924 0.21096 0.88538 0.0
C278 C 0.45776 0.20614 0.86857 0.0
C279 C 0.42746 0.18264 0.86498 0.0
C280 C 0.41198 0.17437 0.87971 0.0
N281 N 0.37694 0.14645 0.91143 0.0
C282 C 0.36379 0.1346 0.89679 0.0
C283 C 0.33778 0.10404 0.898 0.0
C284 C 0.33469 0.09636 0.91441 0.0
C285 C 0.35902 0.12272 0.92234 0.0
N286 N 0.39619 0.21236 0.90879 0.0
C287 C 0.36481 0.24109 0.89406 0.0
C288 C 0.34965 0.2159 0.90553 0.0
C289 C 0.36564 0.2018 0.91267 0.0
C290 C 0.39647 0.25256 0.89095 0.0
C291 C 0.41166 0.23835 0.89851 0.0
N292 N 0.43649 0.16298 0.92114 0.0
C293 C 0.44213 0.11728 0.9153 0.0
C294 C 0.45966 0.12262 0.92953 0.0
C295 C 0.46618 0.14933 0.93933 0.0
C296 C 0.45413 0.16906 0.93499 0.0
C297 C 0.43118 0.13774 0.91126 0.0
H298 H 0.45866 0.18888 0.94293 0.0
H299 H 0.41778 0.13255 0.9002 0.0
H300 H 0.35295 0.1816 0.92088 0.0
H301 H 0.43581 0.24784 0.89542 0.0
C302 C 0.4403 0.2383 0.94589 0.0
C303 C 0.36468 0.12548 0.94017 0.0
C304 C 0.48671 0.23745 0.8939 0.0
C305 C 0.38087 0.14919 0.88243 0.0
H306 H 0.36497 0.15003 0.97252 0.0
H307 H 0.40468 0.21331 0.97531 0.0
H308 H 0.50253 0.29244 0.94288 0.0
H309 H 0.52925 0.2893 0.91553 0.0
H310 H 0.47638 0.21894 0.85977 0.0
H311 H 0.41796 0.17264 0.85305 0.0
H312 H 0.32399 0.08826 0.88807 0.0
H313 H 0.31705 0.0738 0.91983 0.0
H314 H 0.32524 0.20623 0.90848 0.0
H315 H 0.40955 0.27237 0.88252 0.0
H316 H 0.43697 0.09736 0.9072 0.0
H317 H 0.47977 0.15444 0.95043 0.0
C318 C 0.59376 0.69318 0.45917 0.0
C319 C 0.59797 0.67308 0.46962 0.0
C320 C 0.6172 0.6921 0.48191 0.0
C321 C 0.62334 0.72253 0.47845 0.0
N322 N 0.60915 0.72415 0.46479 0.0
Co323 Co 0.61077 0.76386 0.45639 0.0
N324 N 0.64625 0.79308 0.47137 0.0
C325 C 0.65833 0.78323 0.48314 0.0
C326 C 0.68317 0.80798 0.49127 0.0
C327 C 0.68678 0.8355 0.48456 0.0
C328 C 0.66343 0.82595 0.47286 0.0
N329 N 0.61192 0.80393 0.4486 0.0
C330 C 0.63057 0.8358 0.45296 0.0
C331 C 0.61993 0.85442 0.44589 0.0
C332 C 0.59365 0.83383 0.43713 0.0
C333 C 0.58948 0.80374 0.43933 0.0
N334 N 0.57591 0.73453 0.44126 0.0
C335 C 0.55841 0.74293 0.43253 0.0
C336 C 0.53686 0.71845 0.42271 0.0
C337 C 0.54084 0.69283 0.42549 0.0
C338 C 0.5645 0.70299 0.43701 0.0
N339 N 0.57947 0.75852 0.473 0.0
C340 C 0.52663 0.75547 0.4876 0.0
C341 C 0.52486 0.72796 0.48067 0.0
C342 C 0.55151 0.72984 0.47382 0.0
C343 C 0.55651 0.78345 0.48874 0.0
C344 C 0.58245 0.78443 0.48145 0.0
N345 N 0.64045 0.7682 0.43894 0.0
C346 C 0.64973 0.77079 0.40973 0.0
C347 C 0.66961 0.7585 0.41141 0.0
C348 C 0.67606 0.75316 0.42753 0.0
C349 C 0.66142 0.75826 0.44105 0.0
C350 C 0.63589 0.77571 0.42345 0.0
H351 H 0.66612 0.75282 0.45312 0.0
H352 H 0.6198 0.78367 0.42119 0.0
H353 H 0.5487 0.70844 0.4681 0.0
H354 H 0.60441 0.80684 0.48193 0.0
C355 C 0.64588 0.75056 0.48622 0.0
C356 C 0.57404 0.68147 0.44444 0.0
C357 C 0.65594 0.84883 0.46533 0.0
C358 C 0.56537 0.77492 0.43254 0.0
H359 H 0.58825 0.64733 0.46854 0.0
H360 H 0.62647 0.68478 0.49185 0.0
H361 H 0.69674 0.80624 0.5011 0.0
H362 H 0.7038 0.85985 0.48838 0.0
H363 H 0.62937 0.88004 0.44742 0.0
H364 H 0.57898 0.84 0.43023 0.0
H365 H 0.52073 0.71934 0.41419 0.0
H366 H 0.52767 0.66935 0.41974 0.0
H367 H 0.50277 0.70542 0.47957 0.0
H368 H 0.55988 0.805 0.49472 0.0
H369 H 0.64328 0.77512 0.3978 0.0
H370 H 0.69184 0.7445 0.42974 0.0
C371 C 0.90446 0.57456 0.80015 0.0
C372 C 0.92751 0.57852 0.81108 0.0
C373 C 0.92816 0.59806 0.82334 0.0
C374 C 0.90529 0.60453 0.81937 0.0
N375 N 0.88996 0.59013 0.80545 0.0
Co376 Co 0.8536 0.59148 0.79626 0.0
N377 N 0.86179 0.62862 0.81068 0.0
C378 C 0.88353 0.64162 0.8226 0.0
C379 C 0.88549 0.66806 0.82997 0.0
C380 C 0.86301 0.67169 0.82259 0.0
C381 C 0.84807 0.64671 0.81132 0.0
N382 N 0.81614 0.59215 0.7878 0.0
C383 C 0.80443 0.61146 0.79169 0.0
C384 C 0.77547 0.60012 0.7844 0.0
C385 C 0.76848 0.5727 0.77597 0.0
C386 C 0.79332 0.56858 0.77859 0.0
N387 N 0.8465 0.55518 0.78161 0.0
C388 C 0.82065 0.53676 0.77265 0.0
C389 C 0.82306 0.51504 0.76287 0.0
C390 C 0.8523 0.52003 0.76587 0.0
C391 C 0.86608 0.5444 0.77749 0.0
N392 N 0.82595 0.5598 0.81301 0.0
C393 C 0.77566 0.50684 0.82955 0.0
C394 C 0.80072 0.50485 0.82304 0.0
C395 C 0.82544 0.53139 0.8149 0.0
C396 C 0.77825 0.53717 0.82887 0.0
C397 C 0.80364 0.56321 0.82091 0.0
N398 N 0.88061 0.62161 0.7787 0.0
C399 C 0.88714 0.63354 0.74963 0.0
C400 C 0.91971 0.65241 0.75118 0.0
C401 C 0.9322 0.65686 0.76706 0.0
C402 C 0.91229 0.64181 0.78064 0.0
C403 C 0.86829 0.61835 0.76333 0.0
H404 H 0.92281 0.64562 0.79257 0.0
H405 H 0.84378 0.60255 0.76108 0.0
H406 H 0.84332 0.52823 0.80942 0.0
H407 H 0.804 0.58552 0.82045 0.0
C408 C 0.90167 0.62842 0.82659 0.0
C409 C 0.897 0.55569 0.785 0.0
C410 C 0.81784 0.63794 0.80388 0.0
C411 C 0.79667 0.54365 0.77216 0.0
H412 H 0.94264 0.56872 0.81022 0.0
H413 H 0.94438 0.60764 0.8335 0.0
H414 H 0.90098 0.68257 0.83978 0.0
H415 H 0.85704 0.68957 0.82581 0.0
H416 H 0.76032 0.60982 0.78558 0.0
H417 H 0.74748 0.55727 0.769 0.0
H418 H 0.80609 0.49839 0.75412 0.0
H419 H 0.86225 0.50724 0.7601 0.0
H420 H 0.80107 0.48271 0.82379 0.0
H421 H 0.76009 0.54075 0.83371 0.0
H422 H 0.8762 0.62908 0.73771 0.0
H423 H 0.95722 0.67164 0.76898 0.0
C424 C 0.23146 0.85959 0.06693 0.0
C425 C 0.22013 0.85097 0.05108 0.0
C426 C 0.20618 0.81801 0.05012 0.0
C427 C 0.20983 0.80837 0.06535 0.0
N428 N 0.225 0.83323 0.07581 0.0
Co429 Co 0.23683 0.8306 0.09863 0.0
N430 N 0.23373 0.78862 0.09443 0.0
C431 C 0.21845 0.7687 0.08179 0.0
C432 C 0.21946 0.7409 0.08213 0.0
C433 C 0.23604 0.74326 0.09595 0.0
C434 C 0.24428 0.77253 0.10334 0.0
N435 N 0.24808 0.82775 0.12157 0.0
C436 C 0.25643 0.80776 0.12849 0.0
C437 C 0.26073 0.8132 0.14522 0.0
C438 C 0.25431 0.83697 0.14884 0.0
C439 C 0.2465 0.84483 0.13418 0.0
N440 N 0.24052 0.87292 0.10228 0.0
C441 C 0.24012 0.88556 0.11686 0.0
C442 C 0.24547 0.91638 0.11541 0.0
C443 C 0.24962 0.92337 0.09891 0.0
C444 C 0.24664 0.89641 0.09119 0.0
N445 N 0.19205 0.8076 0.10551 0.0
C446 C 0.13153 0.77931 0.11993 0.0
C447 C 0.14336 0.8066 0.1097 0.0
C448 C 0.17332 0.82003 0.10247 0.0
C449 C 0.15048 0.76606 0.1222 0.0
C450 C 0.18034 0.78048 0.11507 0.0
N451 N 0.2815 0.854 0.09248 0.0
C452 C 0.33416 0.89718 0.09846 0.0
C453 C 0.34505 0.89201 0.08373 0.0
C454 C 0.32361 0.86701 0.07347 0.0
C455 C 0.29188 0.84813 0.07812 0.0
C456 C 0.30255 0.87812 0.10257 0.0
H457 H 0.27569 0.82912 0.07004 0.0
H458 H 0.29514 0.88347 0.11388 0.0
H459 H 0.18168 0.84108 0.09479 0.0
H460 H 0.19434 0.77011 0.1179 0.0
C461 C 0.20677 0.77859 0.06894 0.0
C462 C 0.24807 0.89275 0.07333 0.0
C463 C 0.25815 0.78192 0.11979 0.0
C464 C 0.24193 0.87087 0.13134 0.0
H465 H 0.22231 0.86678 0.04116 0.0
H466 H 0.19662 0.80322 0.03926 0.0
H467 H 0.20971 0.72142 0.07328 0.0
H468 H 0.24065 0.72502 0.10034 0.0
H469 H 0.26742 0.80101 0.15392 0.0
H470 H 0.25592 0.84775 0.16069 0.0
H471 H 0.24799 0.93263 0.12521 0.0
H472 H 0.25458 0.94572 0.09323 0.0
H473 H 0.1296 0.8176 0.1073 0.0
H474 H 0.14284 0.74526 0.13004 0.0
H475 H 0.35 0.91619 0.10673 0.0
H476 H 0.33126 0.86218 0.06199 0.0
C477 C 0.43067 0.32367 0.45878 0.0
C478 C 0.42715 0.34391 0.46952 0.0
C479 C 0.40844 0.325 0.48196 0.0
C480 C 0.40188 0.29448 0.47829 0.0
N481 N 0.4153 0.29271 0.46434 0.0
Co482 Co 0.41266 0.25275 0.45544 0.0
N483 N 0.37758 0.22378 0.47067 0.0
C484 C 0.36653 0.23385 0.48291 0.0
C485 C 0.34228 0.20926 0.49142 0.0
C486 C 0.33795 0.18162 0.48445 0.0
C487 C 0.3602 0.19093 0.47216 0.0
N488 N 0.41047 0.21237 0.44717 0.0
C489 C 0.39122 0.18047 0.45125 0.0
C490 C 0.40083 0.1614 0.44364 0.0
C491 C 0.42714 0.18178 0.43484 0.0
C492 C 0.43231 0.21217 0.43754 0.0
N493 N 0.44719 0.28185 0.44016 0.0
C494 C 0.464 0.2731 0.43101 0.0
C495 C 0.48554 0.29759 0.4212 0.0
C496 C 0.48224 0.32353 0.42442 0.0
C497 C 0.45895 0.31355 0.43615 0.0
N498 N 0.44433 0.25736 0.47161 0.0
C499 C 0.49778 0.2608 0.48555 0.0
C500 C 0.49865 0.28859 0.47979 0.0
C501 C 0.47183 0.28639 0.473 0.0
C502 C 0.46847 0.232 0.48585 0.0
C503 C 0.44211 0.23096 0.4791 0.0
N504 N 0.38267 0.24925 0.43833 0.0
C505 C 0.37166 0.24506 0.40923 0.0
C506 C 0.35476 0.26068 0.41088 0.0
C507 C 0.35035 0.26848 0.42689 0.0
C508 C 0.364 0.26209 0.44041 0.0
C509 C 0.38527 0.23971 0.42289 0.0
H510 H 0.36059 0.26903 0.45242 0.0
H511 H 0.39966 0.2297 0.42053 0.0
H512 H 0.47412 0.30801 0.4679 0.0
H513 H 0.42053 0.20814 0.47907 0.0
C514 C 0.37952 0.26654 0.48616 0.0
C515 C 0.44986 0.33524 0.44388 0.0
C516 C 0.36636 0.16771 0.46388 0.0
C517 C 0.45645 0.24089 0.43069 0.0
H518 H 0.43701 0.36969 0.46853 0.0
H519 H 0.39975 0.33244 0.49215 0.0
H520 H 0.32964 0.21121 0.5017 0.0
H521 H 0.32119 0.15732 0.48845 0.0
H522 H 0.39058 0.13558 0.44485 0.0
H523 H 0.4411 0.17522 0.42751 0.0
H524 H 0.50121 0.2965 0.41242 0.0
H525 H 0.49555 0.3471 0.4188 0.0
H526 H 0.52019 0.31185 0.47995 0.0
H527 H 0.46602 0.20979 0.49037 0.0
H528 H 0.37608 0.23861 0.39726 0.0
H529 H 0.3369 0.27995 0.42896 0.0
C530 C 0.1191 0.44143 0.79966 0.0
C531 C 0.09472 0.43633 0.80989 0.0
C532 C 0.0936 0.41686 0.82228 0.0
C533 C 0.11744 0.41143 0.81904 0.0
N534 N 0.13378 0.4264 0.80545 0.0
Co535 Co 0.1708 0.42549 0.79687 0.0
N536 N 0.16205 0.38815 0.8112 0.0
C537 C 0.13994 0.3751 0.82295 0.0
C538 C 0.13807 0.34893 0.83053 0.0
C539 C 0.16097 0.34551 0.82347 0.0
C540 C 0.17599 0.3703 0.81214 0.0
N541 N 0.20869 0.42512 0.78887 0.0
C542 C 0.22013 0.40562 0.79277 0.0
C543 C 0.24939 0.41708 0.78582 0.0
C544 C 0.25688 0.44482 0.77761 0.0
C545 C 0.23199 0.44897 0.78002 0.0
N546 N 0.17867 0.46218 0.78237 0.0
C547 C 0.20518 0.48121 0.77401 0.0
C548 C 0.20353 0.50366 0.76449 0.0
C549 C 0.17409 0.49847 0.76702 0.0
C550 C 0.15941 0.47318 0.77805 0.0
N551 N 0.19748 0.45679 0.814 0.0
C552 C 0.24692 0.50953 0.83105 0.0
C553 C 0.22204 0.51151 0.82431 0.0
C554 C 0.19768 0.48503 0.81595 0.0
C555 C 0.24455 0.47931 0.83035 0.0
C556 C 0.21958 0.45337 0.82209 0.0
N557 N 0.14476 0.39573 0.779 0.0
C558 C 0.13887 0.38598 0.74977 0.0
C559 C 0.10624 0.36635 0.7511 0.0
C560 C 0.09366 0.35977 0.76705 0.0
C561 C 0.11326 0.37439 0.78078 0.0
C562 C 0.1574 0.40035 0.76365 0.0
H563 H 0.10259 0.36953 0.79272 0.0
H564 H 0.18193 0.41666 0.76163 0.0
H565 H 0.17989 0.48812 0.81032 0.0
H566 H 0.21943 0.43118 0.82156 0.0
C567 C 0.12118 0.38784 0.82649 0.0
C568 C 0.12785 0.4612 0.78481 0.0
C569 C 0.2063 0.37899 0.80482 0.0
C570 C 0.22916 0.47431 0.77377 0.0
H571 H 0.07909 0.44536 0.80843 0.0
H572 H 0.07643 0.40659 0.832 0.0
H573 H 0.12231 0.33441 0.84024 0.0
H574 H 0.16708 0.32786 0.82691 0.0
H575 H 0.26442 0.40725 0.78711 0.0
H576 H 0.27825 0.46046 0.77096 0.0
H577 H 0.22119 0.52097 0.75623 0.0
H578 H 0.16455 0.51173 0.76136 0.0
H579 H 0.22165 0.53363 0.82505 0.0
H580 H 0.26265 0.47584 0.83537 0.0
H581 H 0.15028 0.39106 0.73796 0.0
H582 H 0.06869 0.34456 0.76896 0.0
C583 C 0.79041 0.15598 0.06704 0.0
C584 C 0.80081 0.16387 0.05103 0.0
C585 C 0.8143 0.19673 0.04972 0.0
C586 C 0.81137 0.207 0.06495 0.0
N587 N 0.79708 0.18265 0.07573 0.0
Co588 Co 0.78639 0.1861 0.09869 0.0
N589 N 0.78863 0.22756 0.09428 0.0
C590 C 0.80305 0.24698 0.08137 0.0
C591 C 0.80172 0.2746 0.08164 0.0
C592 C 0.78585 0.27266 0.09568 0.0
C593 C 0.77831 0.24382 0.10328 0.0
N594 N 0.77628 0.18982 0.12176 0.0
C595 C 0.76791 0.20983 0.1287 0.0
C596 C 0.76456 0.20512 0.1455 0.0
C597 C 0.77163 0.18184 0.14913 0.0
C598 C 0.77884 0.17351 0.1344 0.0
N599 N 0.78365 0.14429 0.10255 0.0
C600 C 0.78508 0.13247 0.11716 0.0
C601 C 0.78024 0.10181 0.11589 0.0
C602 C 0.77536 0.09407 0.09947 0.0
C603 C 0.77744 0.12046 0.09162 0.0
N604 N 0.83151 0.20992 0.10491 0.0
C605 C 0.8923 0.23856 0.11904 0.0
C606 C 0.88049 0.21137 0.10869 0.0
C607 C 0.85038 0.19773 0.10164 0.0
C608 C 0.87322 0.25165 0.12148 0.0
C609 C 0.84329 0.23713 0.11444 0.0
N610 N 0.74138 0.16179 0.09323 0.0
C611 C 0.68976 0.11759 0.10002 0.0
C612 C 0.67752 0.12077 0.08522 0.0
C613 C 0.69793 0.1461 0.07473 0.0
C614 C 0.72979 0.16634 0.07897 0.0
C615 C 0.72133 0.13802 0.10373 0.0
H616 H 0.74517 0.18514 0.07057 0.0
H617 H 0.72959 0.13382 0.11505 0.0
H618 H 0.84198 0.17664 0.09395 0.0
H619 H 0.82923 0.2474 0.11738 0.0
C620 C 0.81425 0.23677 0.06839 0.0
C621 C 0.77472 0.12322 0.07379 0.0
C622 C 0.76539 0.23509 0.11995 0.0
C623 C 0.78376 0.14766 0.1316 0.0
H624 H 0.7983 0.14754 0.04127 0.0
H625 H 0.82312 0.21101 0.03868 0.0
H626 H 0.81082 0.29367 0.0726 0.0
H627 H 0.78125 0.29094 0.10006 0.0
H628 H 0.7581 0.2175 0.15425 0.0
H629 H 0.77082 0.17169 0.16104 0.0
H630 H 0.77853 0.08614 0.12578 0.0
H631 H 0.77045 0.07158 0.09395 0.0
H632 H 0.89432 0.20051 0.10611 0.0
H633 H 0.88077 0.27236 0.1294 0.0
H634 H 0.67503 0.09917 0.1088 0.0
H635 H 0.68963 0.1497 0.06316 0.0
H636 H 0.30857 0.77439 0.11681 0.0
H637 H 0.31503 0.73135 0.12838 0.0
H638 H 0.22671 0.69269 0.15349 0.0
H639 H 0.22081 0.73627 0.14222 0.0
H640 H 0.26549 0.68674 0.17259 0.0
H641 H 0.23525 0.66123 0.11646 0.0
H642 H 0.23928 0.67104 0.08671 0.0
H643 H 0.32945 0.67998 0.0862 0.0
H644 H 0.32617 0.67073 0.11601 0.0
H645 H 0.23157 0.52675 0.1857 0.0
H646 H 0.23093 0.5739 0.17567 0.0
H647 H 0.32315 0.61206 0.15534 0.0
H648 H 0.32373 0.56441 0.16508 0.0
H649 H 0.28474 0.61945 0.13408 0.0
H650 H 0.31273 0.64246 0.1908 0.0
H651 H 0.30658 0.63133 0.22043 0.0
H652 H 0.21759 0.62503 0.21953 0.0
H653 H 0.22301 0.63566 0.18983 0.0
C654 C 0.29096 0.7571 0.12511 0.0
C655 C 0.26445 0.75893 0.12883 0.0
C656 C 0.29443 0.73223 0.13158 0.0
C657 C 0.27111 0.70818 0.14165 0.0
C658 C 0.2451 0.71076 0.1458 0.0
C659 C 0.24177 0.73576 0.13942 0.0
C660 C 0.27315 0.67978 0.14737 0.0
C661 C 0.26938 0.6719 0.1641 0.0
C662 C 0.27872 0.66041 0.13645 0.0
C663 C 0.2806 0.66561 0.1185 0.0
C664 C 0.25603 0.66549 0.11002 0.0
C665 C 0.25817 0.67094 0.09315 0.0
C666 C 0.28464 0.67621 0.08458 0.0
C667 C 0.30898 0.67595 0.09286 0.0
C668 C 0.30699 0.67059 0.10975 0.0
C669 C 0.25165 0.5449 0.17892 0.0
C670 C 0.27769 0.54149 0.17621 0.0
C671 C 0.25136 0.57215 0.17332 0.0
C672 C 0.27713 0.59695 0.16487 0.0
C673 C 0.30299 0.59343 0.16187 0.0
C674 C 0.30337 0.56619 0.16756 0.0
C675 C 0.27701 0.62644 0.15927 0.0
C676 C 0.28104 0.63445 0.14256 0.0
C677 C 0.27135 0.64572 0.17018 0.0
C678 C 0.26816 0.63959 0.18806 0.0
C679 C 0.29175 0.63848 0.19689 0.0
C680 C 0.28841 0.63229 0.21371 0.0
C681 C 0.26168 0.62741 0.22185 0.0
C682 C 0.23827 0.62879 0.2132 0.0
C683 C 0.24148 0.63492 0.19638 0.0
H684 H 0.25914 0.62261 0.23487 0.0
H685 H 0.28626 0.68043 0.07152 0.0
H686 H 0.72194 0.21577 0.53226 0.0
H687 H 0.67435 0.2163 0.52621 0.0
H688 H 0.72763 0.30118 0.49634 0.0
H689 H 0.77567 0.30146 0.50302 0.0
H690 H 0.68875 0.30907 0.5127 0.0
H691 H 0.6758 0.21996 0.48065 0.0
H692 H 0.67359 0.16856 0.47547 0.0
H693 H 0.59716 0.12008 0.50925 0.0
H694 H 0.5992 0.17127 0.51483 0.0
H695 H 0.5567 0.29782 0.47225 0.0
H696 H 0.60423 0.2977 0.47885 0.0
H697 H 0.55405 0.22421 0.51522 0.0
H698 H 0.50638 0.22481 0.5091 0.0
H699 H 0.59071 0.21029 0.49538 0.0
H700 H 0.60441 0.30071 0.5269 0.0
H701 H 0.6069 0.35244 0.53125 0.0
H702 H 0.68241 0.39869 0.49677 0.0
H703 H 0.68009 0.3471 0.49204 0.0
C704 C 0.72349 0.23434 0.52423 0.0
C705 C 0.75265 0.25837 0.51797 0.0
C706 C 0.69613 0.23459 0.52072 0.0
C707 C 0.69692 0.25837 0.51048 0.0
C708 C 0.7261 0.28245 0.50423 0.0
C709 C 0.75363 0.28257 0.50801 0.0
C710 C 0.66756 0.25861 0.50668 0.0
C711 C 0.66754 0.2875 0.50866 0.0
C712 C 0.63934 0.23043 0.50173 0.0
C713 C 0.63785 0.19953 0.49826 0.0
C714 C 0.65865 0.19838 0.48705 0.0
C715 C 0.65741 0.16928 0.48404 0.0
C716 C 0.63529 0.14109 0.49205 0.0
C717 C 0.6143 0.14193 0.50307 0.0
C718 C 0.61547 0.17098 0.50615 0.0
C719 C 0.55568 0.28205 0.48193 0.0
C720 C 0.52734 0.26151 0.49019 0.0
C721 C 0.58303 0.28187 0.4856 0.0
C722 C 0.58294 0.26108 0.49761 0.0
C723 C 0.55479 0.24043 0.50586 0.0
C724 C 0.52742 0.24076 0.50229 0.0
C725 C 0.61212 0.26068 0.50136 0.0
C726 C 0.61205 0.23179 0.49938 0.0
C727 C 0.64033 0.28889 0.50611 0.0
C728 C 0.64187 0.31997 0.509 0.0
C729 C 0.62139 0.32185 0.52015 0.0
C730 C 0.6228 0.35116 0.5227 0.0
C731 C 0.64475 0.37882 0.51426 0.0
C732 C 0.6654 0.37724 0.50328 0.0
C733 C 0.66406 0.34798 0.50067 0.0
H734 H 0.64581 0.40149 0.51626 0.0
H735 H 0.63436 0.11858 0.4897 0.0
H736 H 0.4933 0.78514 0.87676 0.0
H737 H 0.44509 0.7419 0.86408 0.0
H738 H 0.47094 0.67257 0.87776 0.0
H739 H 0.52019 0.71616 0.88881 0.0
H740 H 0.44242 0.65124 0.85262 0.0
H741 H 0.41464 0.68938 0.89988 0.0
H742 H 0.41234 0.72904 0.91791 0.0
H743 H 0.36519 0.74967 0.8803 0.0
H744 H 0.36757 0.71041 0.86196 0.0
H745 H 0.28681 0.51282 0.85567 0.0
H746 H 0.33602 0.55972 0.86466 0.0
H747 H 0.32187 0.62046 0.83178 0.0
H748 H 0.27347 0.57358 0.82197 0.0
H749 H 0.34286 0.64603 0.86562 0.0
H750 H 0.37017 0.60075 0.81965 0.0
H751 H 0.36914 0.55509 0.80554 0.0
H752 H 0.41446 0.54133 0.84666 0.0
H753 H 0.41546 0.58673 0.86108 0.0
C754 C 0.48882 0.76072 0.87674 0.0
C755 C 0.51018 0.75395 0.88413 0.0
C756 C 0.46095 0.73578 0.86972 0.0
C757 C 0.45326 0.70329 0.87045 0.0
C758 C 0.47564 0.69704 0.87706 0.0
C759 C 0.50385 0.72204 0.88352 0.0
C760 C 0.42196 0.67572 0.86473 0.0
C761 C 0.42081 0.65024 0.8557 0.0
C762 C 0.39316 0.6737 0.86849 0.0
C763 C 0.39159 0.69724 0.87949 0.0
C764 C 0.40395 0.70253 0.89542 0.0
C765 C 0.40262 0.72492 0.9057 0.0
C766 C 0.38871 0.74194 0.90024 0.0
C767 C 0.37601 0.73652 0.8845 0.0
C768 C 0.37733 0.71419 0.87416 0.0
C769 C 0.29406 0.53596 0.85015 0.0
C770 C 0.27572 0.53885 0.83789 0.0
C771 C 0.32226 0.56293 0.85546 0.0
C772 C 0.33281 0.59369 0.84887 0.0
C773 C 0.3142 0.59703 0.83712 0.0
C774 C 0.28624 0.57001 0.83159 0.0
C775 C 0.36378 0.62207 0.8538 0.0
C776 C 0.36472 0.64747 0.86261 0.0
C777 C 0.39225 0.62345 0.85041 0.0
C778 C 0.39272 0.597 0.84147 0.0
C779 C 0.37984 0.58793 0.82569 0.0
C780 C 0.37926 0.5621 0.81764 0.0
C781 C 0.39168 0.54529 0.82521 0.0
C782 C 0.40486 0.55439 0.84081 0.0
C783 C 0.4055 0.5802 0.84892 0.0
H784 H 0.39112 0.52522 0.81898 0.0
H785 H 0.3877 0.75926 0.90821 0.0
H786 H 0.79163 0.49066 0.18615 0.0
H787 H 0.79279 0.44383 0.1761 0.0
H788 H 0.70112 0.40557 0.15502 0.0
H789 H 0.69971 0.45256 0.1652 0.0
H790 H 0.70438 0.35806 0.16895 0.0
H791 H 0.76945 0.44152 0.13121 0.0
H792 H 0.81227 0.49523 0.12256 0.0
H793 H 0.87945 0.47721 0.14507 0.0
H794 H 0.83697 0.42354 0.15406 0.0
H795 H 0.71496 0.24273 0.11746 0.0
H796 H 0.70931 0.28652 0.12887 0.0
H797 H 0.79834 0.32542 0.15319 0.0
H798 H 0.80391 0.28167 0.14172 0.0
H799 H 0.79515 0.37209 0.13703 0.0
H800 H 0.72912 0.28805 0.17468 0.0
H801 H 0.68584 0.2342 0.18279 0.0
H802 H 0.61984 0.25309 0.15953 0.0
H803 H 0.66281 0.30692 0.15108 0.0
C804 C 0.77181 0.47259 0.17918 0.0
C805 C 0.74573 0.47585 0.17635 0.0
C806 C 0.77249 0.44563 0.17344 0.0
C807 C 0.74728 0.42115 0.16449 0.0
C808 C 0.72096 0.42402 0.16184 0.0
C809 C 0.72018 0.45099 0.16768 0.0
C810 C 0.74851 0.39268 0.15804 0.0
C811 C 0.72404 0.36121 0.16176 0.0
C812 C 0.77436 0.39642 0.14889 0.0
C813 C 0.79999 0.42863 0.14344 0.0
C814 C 0.79333 0.4491 0.13442 0.0
C815 C 0.81755 0.47952 0.12944 0.0
C816 C 0.84856 0.48966 0.1333 0.0
C817 C 0.85542 0.46935 0.14211 0.0
C818 C 0.83128 0.43891 0.14714 0.0
C819 C 0.73288 0.2602 0.12559 0.0
C820 C 0.75952 0.25842 0.12902 0.0
C821 C 0.72973 0.28532 0.13208 0.0
C822 C 0.7533 0.30937 0.14204 0.0
C823 C 0.77976 0.30725 0.14561 0.0
C824 C 0.7828 0.28205 0.13921 0.0
C825 C 0.75118 0.33753 0.14806 0.0
C826 C 0.77548 0.36897 0.14422 0.0
C827 C 0.72511 0.33371 0.15699 0.0
C828 C 0.69923 0.30139 0.1621 0.0
C829 C 0.70541 0.28062 0.17117 0.0
C830 C 0.68092 0.25012 0.17585 0.0
C831 C 0.65011 0.24019 0.17164 0.0
C832 C 0.64372 0.26079 0.16277 0.0
C833 C 0.66813 0.29131 0.15804 0.0
H834 H 0.63119 0.21657 0.17528 0.0
H835 H 0.86727 0.51322 0.12943 0.0
H836 H 0.51634 0.80644 0.48733 0.0
H837 H 0.46851 0.80603 0.49387 0.0
H838 H 0.42163 0.70434 0.50445 0.0
H839 H 0.46987 0.70463 0.49895 0.0
H840 H 0.38881 0.7252 0.4818 0.0
H841 H 0.43799 0.74933 0.53507 0.0
H842 H 0.48151 0.78026 0.55436 0.0
H843 H 0.48095 0.86662 0.54308 0.0
H844 H 0.4377 0.83628 0.52354 0.0
H845 H 0.24674 0.70481 0.51233 0.0
H846 H 0.29435 0.70426 0.50723 0.0
H847 H 0.34924 0.80718 0.51514 0.0
H848 H 0.30209 0.80748 0.52202 0.0
H849 H 0.37884 0.78523 0.52832 0.0
H850 H 0.33319 0.76598 0.47511 0.0
H851 H 0.29237 0.73933 0.45396 0.0
H852 H 0.28917 0.65003 0.46223 0.0
H853 H 0.32971 0.67606 0.48358 0.0
C854 C 0.49629 0.78401 0.49145 0.0
C855 C 0.49754 0.75556 0.49258 0.0
C856 C 0.4687 0.78382 0.49502 0.0
C857 C 0.44137 0.75514 0.49959 0.0
C858 C 0.44235 0.72674 0.50083 0.0
C859 C 0.4701 0.72699 0.49756 0.0
C860 C 0.41173 0.75479 0.50285 0.0
C861 C 0.38639 0.73794 0.49209 0.0
C862 C 0.40896 0.77238 0.51591 0.0
C863 C 0.43482 0.79059 0.52772 0.0
C864 C 0.44733 0.77497 0.5366 0.0
C865 C 0.47191 0.79239 0.5476 0.0
C866 C 0.48404 0.8254 0.54991 0.0
C867 C 0.47156 0.84105 0.54126 0.0
C868 C 0.44699 0.82375 0.53023 0.0
C869 C 0.26881 0.72742 0.51323 0.0
C870 C 0.26992 0.7562 0.51769 0.0
C871 C 0.29629 0.72713 0.50996 0.0
C872 C 0.32581 0.75578 0.51045 0.0
C873 C 0.32699 0.78462 0.5146 0.0
C874 C 0.29962 0.78481 0.51828 0.0
C875 C 0.35544 0.75563 0.50721 0.0
C876 C 0.38095 0.77243 0.51797 0.0
C877 C 0.35863 0.73863 0.49387 0.0
C878 C 0.33425 0.72289 0.48105 0.0
C879 C 0.32362 0.7406 0.4725 0.0
C880 C 0.30056 0.72562 0.46046 0.0
C881 C 0.28813 0.69299 0.45679 0.0
C882 C 0.29879 0.67529 0.46511 0.0
C883 C 0.32182 0.69015 0.47717 0.0
H884 H 0.27028 0.68143 0.44747 0.0
H885 H 0.50307 0.83884 0.55844 0.0
H886 H 0.50322 0.29977 0.88788 0.0
H887 H 0.55172 0.34308 0.87611 0.0
H888 H 0.58066 0.27495 0.86528 0.0
H889 H 0.53285 0.23194 0.87848 0.0
H890 H 0.62844 0.32431 0.87522 0.0
H891 H 0.55535 0.31366 0.83492 0.0
H892 H 0.50755 0.30939 0.82365 0.0
H893 H 0.5364 0.40411 0.84185 0.0
H894 H 0.58419 0.40878 0.85343 0.0
H895 H 0.75 0.44241 0.82105 0.0
H896 H 0.70186 0.39542 0.83097 0.0
H897 H 0.68505 0.45663 0.86218 0.0
H898 H 0.73416 0.50365 0.8533 0.0
H899 H 0.63203 0.40939 0.83987 0.0
H900 H 0.70594 0.416 0.88069 0.0
H901 H 0.75423 0.41808 0.8894 0.0
H902 H 0.72338 0.32694 0.86594 0.0
H903 H 0.67509 0.32456 0.85688 0.0
C904 C 0.51989 0.29402 0.88291 0.0
C905 C 0.51439 0.26251 0.88429 0.0
C906 C 0.54763 0.31883 0.87596 0.0
C907 C 0.57016 0.31266 0.86943 0.0
C908 C 0.564 0.28073 0.87022 0.0
C909 C 0.5365 0.25599 0.87762 0.0
C910 C 0.60052 0.33977 0.86255 0.0
C911 C 0.62893 0.34246 0.86725 0.0
C912 C 0.60188 0.36406 0.85218 0.0
C913 C 0.57325 0.36146 0.84515 0.0
C914 C 0.55142 0.3335 0.8366 0.0
C915 C 0.52433 0.33102 0.83015 0.0
C916 C 0.51891 0.35643 0.83206 0.0
C917 C 0.54062 0.38443 0.84039 0.0
C918 C 0.56773 0.38703 0.84688 0.0
C919 C 0.73672 0.44614 0.83033 0.0
C920 C 0.7466 0.47747 0.83624 0.0
C921 C 0.70882 0.41903 0.83586 0.0
C922 C 0.68965 0.42242 0.84726 0.0
C923 C 0.69928 0.45339 0.85327 0.0
C924 C 0.72748 0.48043 0.84802 0.0
C925 C 0.65937 0.39378 0.85276 0.0
C926 C 0.63116 0.39092 0.84775 0.0
C927 C 0.65816 0.36892 0.86243 0.0
C928 C 0.68708 0.37029 0.86795 0.0
C929 C 0.70959 0.39656 0.87725 0.0
C930 C 0.73693 0.39776 0.88228 0.0
C931 C 0.74191 0.37271 0.87818 0.0
C932 C 0.71952 0.34636 0.86908 0.0
C933 C 0.69215 0.34506 0.86401 0.0
H934 H 0.76309 0.37368 0.88209 0.0
H935 H 0.49792 0.35446 0.82707 0.0
H936 H 0.62237 0.49162 0.22932 0.0
H937 H 0.56746 0.47507 0.23359 0.0
H938 H 0.59537 0.57385 0.24406 0.0
H939 H 0.65039 0.58996 0.24072 0.0
H940 H 0.54682 0.53836 0.26156 0.0
H941 H 0.56907 0.53659 0.20504 0.0
H942 H 0.58777 0.52165 0.18058 0.0
H943 H 0.51822 0.42175 0.18807 0.0
H944 H 0.49945 0.43604 0.21277 0.0
H945 H 0.40201 0.52384 0.23084 0.0
H946 H 0.45651 0.53841 0.23535 0.0
H947 H 0.42586 0.43792 0.2417 0.0
H948 H 0.37132 0.42346 0.2379 0.0
H949 H 0.47483 0.47369 0.21655 0.0
H950 H 0.45126 0.48024 0.27313 0.0
H951 H 0.43338 0.49993 0.29605 0.0
H952 H 0.50662 0.59732 0.28603 0.0
H953 H 0.52456 0.57831 0.26282 0.0
C954 C 0.61687 0.50956 0.23318 0.0
C955 C 0.64087 0.54204 0.23497 0.0
C956 C 0.5853 0.50021 0.23531 0.0
C957 C 0.57675 0.52323 0.23876 0.0
C958 C 0.60092 0.55543 0.24137 0.0
C959 C 0.63249 0.56467 0.2395 0.0
C960 C 0.54291 0.51425 0.23869 0.0
C961 C 0.53128 0.52444 0.25161 0.0
C962 C 0.52209 0.49603 0.22579 0.0
C963 C 0.53307 0.48735 0.21086 0.0
C964 C 0.55789 0.51141 0.20153 0.0
C965 C 0.5685 0.50306 0.18763 0.0
C966 C 0.55423 0.47076 0.1828 0.0
C967 C 0.52928 0.44675 0.19185 0.0
C968 C 0.51864 0.45496 0.2058 0.0
C969 C 0.40675 0.50501 0.23391 0.0
C970 C 0.38216 0.47252 0.2344 0.0
C971 C 0.438 0.51331 0.23627 0.0
C972 C 0.44547 0.48928 0.23882 0.0
C973 C 0.42085 0.45694 0.23976 0.0
C974 C 0.38963 0.44872 0.23774 0.0
C975 C 0.47889 0.49754 0.23944 0.0
C976 C 0.49043 0.48739 0.22653 0.0
C977 C 0.49972 0.51645 0.25211 0.0
C978 C 0.48905 0.52787 0.26612 0.0
C979 C 0.46336 0.50589 0.2757 0.0
C980 C 0.45326 0.51692 0.28877 0.0
C981 C 0.46882 0.54985 0.29248 0.0
C982 C 0.49456 0.57182 0.28313 0.0
C983 C 0.50471 0.56093 0.27002 0.0
H984 H 0.46098 0.55833 0.3026 0.0
H985 H 0.56247 0.46434 0.17202 0.0
H986 H 0.12761 0.63361 0.55454 0.0
H987 H 0.09019 0.57524 0.5566 0.0
H988 H 0.03301 0.59356 0.58916 0.0
H989 H 0.07004 0.65193 0.58659 0.0
H990 H 0.06642 0.52891 0.57771 0.0
H991 H 0.95592 0.53881 0.58369 0.0
H992 H 0.93867 0.57658 0.57617 0.0
H993 H 1.0052 0.61355 0.5368 0.0
H994 H 0.02249 0.57568 0.54392 0.0
H995 H 0.93943 0.36846 0.59127 0.0
H996 H 0.97572 0.42699 0.59428 0.0
H997 H 0.94299 0.44291 0.54846 0.0
H998 H 0.90604 0.38466 0.54588 0.0
H999 H 0.95488 0.49049 0.56658 0.0
H1000 H 0.01372 0.44101 0.55325 0.0
H1001 H 0.03206 0.40283 0.55668 0.0
H1002 H 0.0712 0.44459 0.60349 0.0
H1003 H 0.05266 0.48273 0.60045 0.0
C1004 C 0.10742 0.62506 0.56245 0.0
C1005 C 0.10204 0.6474 0.57059 0.0
C1006 C 0.08585 0.59158 0.56358 0.0
C1007 C 0.05813 0.57944 0.57282 0.0
C1008 C 0.05366 0.60186 0.58165 0.0
C1009 C 0.0751 0.63535 0.58039 0.0
C1010 C 0.03341 0.54375 0.57254 0.0
C1011 C 0.04203 0.52066 0.57539 0.0
C1012 C 1.00143 0.53227 0.56907 0.0
C1013 C 0.9907 0.55464 0.56446 0.0
C1014 C 0.96675 0.55489 0.57338 0.0
C1015 C 0.95698 0.57633 0.56919 0.0
C1016 C 0.9709 0.59752 0.55605 0.0
C1017 C 0.9945 0.5972 0.547 0.0
C1018 C 1.00429 0.57575 0.55111 0.0
C1019 C 0.93954 0.38459 0.58206 0.0
C1020 C 0.91979 0.37189 0.56836 0.0
C1021 C 0.96065 0.41815 0.58365 0.0
C1022 C 0.963 0.43992 0.57141 0.0
C1023 C 0.94208 0.42713 0.55811 0.0
C1024 C 0.9208 0.3937 0.55663 0.0
C1025 C 0.98776 0.4756 0.57206 0.0
C1026 C 0.97919 0.49871 0.56915 0.0
C1027 C 0.01994 0.48705 0.57494 0.0
C1028 C 0.03154 0.46451 0.5767 0.0
C1029 C 0.02611 0.44194 0.56432 0.0
C1030 C 0.03653 0.42031 0.56619 0.0
C1031 C 0.05272 0.42123 0.58031 0.0
C1032 C 0.05861 0.44387 0.59257 0.0
C1033 C 0.04816 0.46551 0.59078 0.0
H1034 H 0.06076 0.40445 0.58175 0.0
H1035 H 0.96335 0.61415 0.55285 0.0
H1036 H 0.51943 0.13728 0.93676 0.0
H1037 H 0.53808 0.0994 0.93992 0.0
H1038 H 0.44358 0.01912 0.9347 0.0
H1039 H 0.42499 0.0568 0.93134 0.0
H1040 H 0.47844 0.00915 0.95938 0.0
H1041 H 0.48823 0.04147 0.90266 0.0
H1042 H 0.50631 0.08113 0.88021 0.0
H1043 H 0.60182 0.1178 0.89415 0.0
H1044 H 0.58425 0.07865 0.91686 0.0
H1045 H 0.50645 0.88257 0.9372 0.0
H1046 H 0.48899 0.92131 0.94042 0.0
H1047 H 0.58385 1.00007 0.93333 0.0
H1048 H 0.60094 0.9614 0.92954 0.0
H1049 H 0.54949 0.01217 0.91603 0.0
H1050 H 0.54225 0.98096 0.97207 0.0
H1051 H 0.5262 0.9433 0.99536 0.0
H1052 H 0.42956 0.907 0.98422 0.0
H1053 H 0.44504 0.94434 0.9608 0.0
C1054 C 0.50261 0.11156 0.93659 0.0
C1055 C 0.47075 0.10007 0.93373 0.0
C1056 C 0.51328 0.0899 0.93831 0.0
C1057 C 0.49228 0.05629 0.93744 0.0
C1058 C 0.46028 0.04484 0.93543 0.0
C1059 C 0.44969 0.06643 0.93344 0.0
C1060 C 0.50374 0.03311 0.93749 0.0
C1061 C 0.4938 0.00962 0.94984 0.0
C1062 C 0.52434 0.03403 0.92528 0.0
C1063 C 0.53492 0.05739 0.91156 0.0
C1064 C 0.51307 0.05818 0.90102 0.0
C1065 C 0.52323 0.08053 0.88823 0.0
C1066 C 0.55519 0.10204 0.88578 0.0
C1067 C 0.57707 0.10117 0.89608 0.0
C1068 C 0.56703 0.07889 0.90891 0.0
C1069 C 0.5236 0.90817 0.93661 0.0
C1070 C 0.55506 0.91886 0.93307 0.0
C1071 C 0.51364 0.93043 0.93849 0.0
C1072 C 0.53503 0.96397 0.93723 0.0
C1073 C 0.56666 0.97452 0.93426 0.0
C1074 C 0.57649 0.95233 0.93214 0.0
C1075 C 0.52448 0.98804 0.93804 0.0
C1076 C 0.53441 0.01169 0.92573 0.0
C1077 C 0.50425 0.9875 0.95044 0.0
C1078 C 0.49481 0.96519 0.96458 0.0
C1079 C 0.51758 0.9648 0.97453 0.0
C1080 C 0.50858 0.94355 0.98777 0.0
C1081 C 0.47688 0.92264 0.99121 0.0
C1082 C 0.45411 0.9231 0.98149 0.0
C1083 C 0.46298 0.94438 0.96826 0.0
H1084 H 0.46997 0.90618 1.00145 0.0
H1085 H 0.56301 0.11932 0.87587 0.0
H1086 H 0.51188 0.63227 0.44459 0.0
H1087 H 0.49042 0.57426 0.44095 0.0
H1088 H 0.58337 0.59246 0.432 0.0
H1089 H 0.60435 0.65064 0.43442 0.0
H1090 H 0.54842 0.54411 0.41503 0.0
H1091 H 0.54068 0.566 0.47112 0.0
H1092 H 0.52574 0.58682 0.49478 0.0
H1093 H 0.42859 0.52394 0.48306 0.0
H1094 H 0.44297 0.50307 0.45916 0.0
H1095 H 0.51191 0.38494 0.44371 0.0
H1096 H 0.53259 0.44315 0.44048 0.0
H1097 H 0.43924 0.42358 0.43191 0.0
H1098 H 0.41873 0.36539 0.43445 0.0
H1099 H 0.47405 0.47155 0.45731 0.0
H1100 H 0.48617 0.44835 0.40122 0.0
H1101 H 0.5052 0.42755 0.37938 0.0
H1102 H 0.60011 0.49331 0.39415 0.0
H1103 H 0.5816 0.51418 0.41624 0.0
C1104 C 0.52759 0.624 0.44129 0.0
C1105 C 0.55986 0.64634 0.4396 0.0
C1106 C 0.51538 0.59054 0.43955 0.0
C1107 C 0.53516 0.57818 0.43667 0.0
C1108 C 0.56727 0.60073 0.43429 0.0
C1109 C 0.57936 0.63419 0.43565 0.0
C1110 C 0.52277 0.5421 0.4367 0.0
C1111 C 0.53243 0.52851 0.42444 0.0
C1112 C 0.50168 0.52091 0.44883 0.0
C1113 C 0.49291 0.53322 0.46325 0.0
C1114 C 0.51613 0.55675 0.47353 0.0
C1115 C 0.50777 0.56856 0.48699 0.0
C1116 C 0.47624 0.55677 0.4904 0.0
C1117 C 0.453 0.53308 0.48038 0.0
C1118 C 0.46124 0.52125 0.46688 0.0
C1119 C 0.49594 0.39294 0.44053 0.0
C1120 C 0.46366 0.37027 0.43902 0.0
C1121 C 0.50776 0.42636 0.43887 0.0
C1122 C 0.48757 0.43811 0.436 0.0
C1123 C 0.45543 0.41542 0.43415 0.0
C1124 C 0.44373 0.38205 0.43546 0.0
C1125 C 0.49961 0.47389 0.43566 0.0
C1126 C 0.48996 0.48732 0.44791 0.0
C1127 C 0.52133 0.49499 0.42382 0.0
C1128 C 0.53247 0.4826 0.41049 0.0
C1129 C 0.51108 0.45818 0.39991 0.0
C1130 C 0.52178 0.44642 0.38746 0.0
C1131 C 0.55384 0.45904 0.3854 0.0
C1132 C 0.57527 0.48353 0.39577 0.0
C1133 C 0.56469 0.49535 0.40824 0.0
H1134 H 0.56207 0.44991 0.37576 0.0
H1135 H 0.46981 0.56594 0.50083 0.0
H1136 H 0.95844 0.59368 0.77682 0.0
H1137 H 0.99764 0.57825 0.77419 0.0
H1138 H 0.92513 0.47779 0.77809 0.0
H1139 H 0.88639 0.49373 0.78249 0.0
H1140 H 0.96864 0.48331 0.79465 0.0
H1141 H 0.97114 0.52183 0.74053 0.0
H1142 H 0.9745 0.56099 0.72025 0.0
H1143 H 0.06748 0.6301 0.73649 0.0
H1144 H 0.06432 0.59159 0.75727 0.0
H1145 H 0.06874 0.42522 0.77259 0.0
H1146 H 0.0297 0.4412 0.76927 0.0
H1147 H 0.09919 0.53913 0.78207 0.0
H1148 H 0.1381 0.52294 0.78579 0.0
H1149 H 0.05755 0.53381 0.75567 0.0
H1150 H 0.05167 0.49551 0.81107 0.0
H1151 H 0.04669 0.45618 0.83185 0.0
H1152 H 0.95873 0.3844 0.81112 0.0
H1153 H 0.96323 0.42334 0.7902 0.0
C1154 C 0.95078 0.56824 0.77675 0.0
C1155 C 0.91906 0.54495 0.77948 0.0
C1156 C 0.97331 0.5593 0.77515 0.0
C1157 C 0.96476 0.52659 0.77552 0.0
C1158 C 0.93277 0.5032 0.77766 0.0
C1159 C 0.91033 0.51226 0.77983 0.0
C1160 C 0.9892 0.51698 0.77464 0.0
C1161 C 0.98759 0.49403 0.78583 0.0
C1162 C 0.01483 0.53119 0.76349 0.0
C1163 C 0.01737 0.55389 0.75055 0.0
C1164 C 0.99228 0.54541 0.73981 0.0
C1165 C 0.99415 0.56754 0.72823 0.0
C1166 C 0.0212 0.59807 0.72705 0.0
C1167 C 0.04652 0.60646 0.73742 0.0
C1168 C 0.0447 0.58449 0.74912 0.0
C1169 C 0.07589 0.45035 0.77424 0.0
C1170 C 0.1067 0.47291 0.77916 0.0
C1171 C 0.05348 0.45943 0.77249 0.0
C1172 C 0.0613 0.49139 0.77552 0.0
C1173 C 0.0925 0.51438 0.77958 0.0
C1174 C 0.11487 0.50518 0.78156 0.0
C1175 C 0.03649 0.5002 0.77552 0.0
C1176 C 0.03821 0.52299 0.76427 0.0
C1177 C 1.01072 0.48559 0.78642 0.0
C1178 C 1.00792 0.46222 0.799 0.0
C1179 C 0.03135 0.47128 0.8109 0.0
C1180 C 0.02856 0.44911 0.82274 0.0
C1181 C 1.00247 0.41778 0.82277 0.0
C1182 C 0.97897 0.40865 0.81105 0.0
C1183 C 0.98157 0.43079 0.79924 0.0
H1184 H 1.00043 0.40061 0.8319 0.0
H1185 H 0.02256 0.61525 0.71813 0.0
H1186 H 0.37305 0.94774 0.06589 0.0
H1187 H 0.42942 0.9868 0.06303 0.0
H1188 H 0.44939 0.92311 0.0902 0.0
H1189 H 0.3931 0.88456 0.09329 0.0
H1190 H 0.48237 0.981 0.10212 0.0
H1191 H 0.4625 0.93792 0.0476 0.0
H1192 H 0.43666 0.92326 0.02064 0.0
H1193 H 0.46831 0.02281 0.01116 0.0
H1194 H 0.49368 0.03801 0.03825 0.0
H1195 H 0.64422 0.05549 0.09046 0.0
H1196 H 0.58821 0.01788 0.08727 0.0
H1197 H 0.5776 0.09393 0.06711 0.0
H1198 H 0.63408 0.13225 0.07058 0.0
H1199 H 0.53996 0.03289 0.05095 0.0
H1200 H 0.55907 0.07562 0.10536 0.0
H1201 H 0.58533 0.09056 0.13221 0.0
H1202 H 0.55518 0.99129 0.1415 0.0
H1203 H 0.52914 0.97582 0.11457 0.0
C1204 C 0.3896 0.94186 0.07088 0.0
C1205 C 0.3788 0.91293 0.07957 0.0
C1206 C 0.42185 0.9642 0.06927 0.0
C1207 C 0.44402 0.95803 0.07628 0.0
C1208 C 0.43301 0.92863 0.08464 0.0
C1209 C 0.40083 0.90642 0.0863 0.0
C1210 C 0.47844 0.98284 0.07595 0.0
C1211 C 0.49489 0.9919 0.09085 0.0
C1212 C 0.49498 0.99818 0.06136 0.0
C1213 C 0.47968 0.98906 0.04507 0.0
C1214 C 0.46368 0.95666 0.03985 0.0
C1215 C 0.44915 0.94826 0.02453 0.0
C1216 C 0.4508 0.97209 0.01421 0.0
C1217 C 0.46701 1.00438 0.01918 0.0
C1218 C 0.48143 0.01289 0.03453 0.0
C1219 C 0.63011 0.06442 0.08536 0.0
C1220 C 0.6438 0.09725 0.08111 0.0
C1221 C 0.59797 0.04273 0.08346 0.0
C1222 C 0.57841 0.05305 0.07719 0.0
C1223 C 0.59212 0.08533 0.07203 0.0
C1224 C 0.62448 0.10724 0.074 0.0
C1225 C 0.54364 0.03036 0.07705 0.0
C1226 C 0.52723 0.02187 0.06215 0.0
C1227 C 0.52698 0.01545 0.09161 0.0
C1228 C 0.54239 0.02461 0.10788 0.0
C1229 C 0.55824 0.05701 0.11307 0.0
C1230 C 0.57306 0.06557 0.12832 0.0
C1231 C 0.57199 0.0419 0.13854 0.0
C1232 C 0.55603 0.0096 0.13355 0.0
C1233 C 0.54121 1.00092 0.11831 0.0
H1234 H 0.58347 0.04857 0.15034 0.0
H1235 H 0.43955 0.96555 1.00235 0.0
H1236 H 0.3032 0.39918 0.28884 0.0
H1237 H 0.31509 0.37993 0.31369 0.0
H1238 H 0.28754 0.28934 0.29004 0.0
H1239 H 0.27458 0.30828 0.26505 0.0
H1240 H 0.26467 0.27826 0.3205 0.0
H1241 H 0.36553 0.34724 0.29754 0.0
H1242 H 0.40924 0.39696 0.28557 0.0
H1243 H 0.41647 0.44925 0.32948 0.0
H1244 H 0.37245 0.39994 0.34163 0.0
H1245 H 0.32951 0.22565 0.38253 0.0
H1246 H 0.31667 0.24274 0.35711 0.0
H1247 H 0.34169 0.3339 0.37928 0.0
H1248 H 0.35535 0.31717 0.40473 0.0
H1249 H 0.36625 0.34368 0.34909 0.0
H1250 H 0.26401 0.27369 0.37165 0.0
H1251 H 0.22098 0.22313 0.38334 0.0
H1252 H 0.21738 0.17185 0.33966 0.0
H1253 H 0.2607 0.22204 0.32779 0.0
C1254 C 0.29937 0.37501 0.28885 0.0
C1255 C 0.28754 0.35527 0.2748 0.0
C1256 C 0.30659 0.36411 0.30313 0.0
C1257 C 0.3026 0.33316 0.30391 0.0
C1258 C 0.29094 0.31334 0.28989 0.0
C1259 C 0.28374 0.32431 0.2755 0.0
C1260 C 0.31011 0.3216 0.31943 0.0
C1261 C 0.2871 0.29239 0.32658 0.0
C1262 C 0.33911 0.34012 0.32774 0.0
C1263 C 0.36548 0.36992 0.32045 0.0
C1264 C 0.37624 0.3694 0.30459 0.0
C1265 C 0.40111 0.3975 0.29779 0.0
C1266 C 0.4156 0.42623 0.30676 0.0
C1267 C 0.40521 0.42696 0.32255 0.0
C1268 C 0.38031 0.39893 0.32941 0.0
C1269 C 0.33225 0.24934 0.38209 0.0
C1270 C 0.34355 0.26993 0.39586 0.0
C1271 C 0.32463 0.25905 0.36748 0.0
C1272 C 0.32791 0.28966 0.36611 0.0
C1273 C 0.33884 0.31016 0.37988 0.0
C1274 C 0.34635 0.30039 0.39456 0.0
C1275 C 0.32073 0.30048 0.35023 0.0
C1276 C 0.34383 0.32956 0.34301 0.0
C1277 C 0.2919 0.28174 0.3418 0.0
C1278 C 0.2658 0.25156 0.3489 0.0
C1279 C 0.2542 0.25158 0.36459 0.0
C1280 C 0.22973 0.223 0.37124 0.0
C1281 C 0.21651 0.19428 0.36227 0.0
C1282 C 0.22767 0.1941 0.34661 0.0
C1283 C 0.25217 0.22262 0.3399 0.0
H1284 H 0.19756 0.17218 0.36744 0.0
H1285 H 0.43496 0.44789 0.30151 0.0
H1286 H 0.97942 0.31342 0.60589 0.0
H1287 H 1.01033 0.32991 0.6311 0.0
H1288 H 0.93847 0.24427 0.65527 0.0
H1289 H 0.90742 0.22776 0.63015 0.0
H1290 H 0.95694 0.29288 0.67528 0.0
H1291 H 1.01157 0.25491 0.64291 0.0
H1292 H 0.03907 0.25163 0.61858 0.0
H1293 H 0.109 0.35214 0.62357 0.0
H1294 H 0.08168 0.35612 0.64782 0.0
H1295 H 0.04989 0.30858 0.7461 0.0
H1296 H 0.0183 0.28951 0.72108 0.0
H1297 H 0.08503 0.37708 0.69634 0.0
H1298 H 0.11615 0.39665 0.72122 0.0
H1299 H 0.06894 0.32606 0.67686 0.0
H1300 H 0.01397 0.36402 0.70902 0.0
H1301 H 0.98662 0.36731 0.73341 0.0
H1302 H 0.91738 0.26648 0.72886 0.0
H1303 H 0.9446 0.26248 0.70456 0.0
C1304 C 0.97035 0.29775 0.61646 0.0
C1305 C 0.94074 0.26912 0.6158 0.0
C1306 C 0.98812 0.3073 0.63098 0.0
C1307 C 0.9771 0.28833 0.64528 0.0
C1308 C 0.94769 0.25959 0.64458 0.0
C1309 C 0.92986 0.25012 0.63011 0.0
C1310 C 0.99578 0.29861 0.66099 0.0
C1311 C 0.9813 0.29962 0.6756 0.0
C1312 C 0.02787 0.30821 0.66162 0.0
C1313 C 0.04441 0.30588 0.64709 0.0
C1314 C 0.03269 0.27637 0.63875 0.0
C1315 C 0.04826 0.27437 0.62499 0.0
C1316 C 0.07572 0.30168 0.61951 0.0
C1317 C 0.08771 0.33102 0.62782 0.0
C1318 C 0.07221 0.33315 0.64158 0.0
C1319 C 0.05778 0.32402 0.73542 0.0
C1320 C 0.08605 0.35418 0.73588 0.0
C1321 C 0.03963 0.31297 0.72102 0.0
C1322 C 0.0491 0.33175 0.70664 0.0
C1323 C 0.07716 0.36183 0.7071 0.0
C1324 C 0.09516 0.37295 0.72145 0.0
C1325 C 0.03009 0.32031 0.6911 0.0
C1326 C 0.04452 0.31915 0.67652 0.0
C1327 C 0.99797 0.31053 0.69051 0.0
C1328 C 0.98152 0.31287 0.70508 0.0
C1329 C 0.99306 0.34248 0.7133 0.0
C1330 C 0.97755 0.34449 0.72709 0.0
C1331 C 0.95033 0.3171 0.73271 0.0
C1332 C 0.93851 0.28766 0.72451 0.0
C1333 C 0.95395 0.28551 0.71073 0.0
H1334 H 0.93835 0.3187 0.74338 0.0
H1335 H 0.08774 0.30008 0.60885 0.0
H1336 H 0.72011 0.92674 0.95146 0.0
H1337 H 0.74001 0.96604 0.97408 0.0
H1338 H 0.65069 0.95947 0.97731 0.0
H1339 H 0.6309 0.92016 0.95473 0.0
H1340 H 0.69882 0.02209 0.98181 0.0
H1341 H 0.66929 0.91781 1.00339 0.0
H1342 H 0.66993 0.86727 1.00499 0.0
H1343 H 0.76853 0.92134 0.01507 0.0
H1344 H 0.76856 0.97228 0.0133 0.0
H1345 H 0.71669 0.09259 0.06005 0.0
H1346 H 0.69712 0.05317 0.03758 0.0
H1347 H 0.78352 0.05316 0.03785 0.0
H1348 H 0.80257 0.09191 0.0607 0.0
H1349 H 0.73754 0.99422 0.03126 0.0
H1350 H 0.76761 0.09843 0.01005 0.0
H1351 H 0.76756 0.1493 0.00857 0.0
H1352 H 0.66941 0.09634 0.99733 0.0
H1353 H 0.66873 0.04506 0.99906 0.0
C1354 C 0.70507 0.93439 0.95673 0.0
C1355 C 0.67415 0.92084 0.95112 0.0
C1356 C 0.7163 0.95659 0.96981 0.0
C1357 C 0.69684 0.96569 0.97766 0.0
C1358 C 0.66631 0.95307 0.97156 0.0
C1359 C 0.65502 0.93069 0.95858 0.0
C1360 C 0.7077 0.98708 0.99262 0.0
C1361 C 0.70695 0.01575 0.99267 0.0
C1362 C 0.719 0.97947 0.00681 0.0
C1363 C 0.71898 0.94887 0.00806 0.0
C1364 C 0.69115 0.91894 1.00584 0.0
C1365 C 0.69139 0.89022 0.00679 0.0
C1366 C 0.71927 0.8911 0.01009 0.0
C1367 C 0.74696 0.92071 0.01249 0.0
C1368 C 0.74686 0.94951 0.01153 0.0
C1369 C 0.73112 0.08348 0.05556 0.0
C1370 C 0.76095 0.09494 0.06229 0.0
C1371 C 0.72011 0.06123 0.04254 0.0
C1372 C 0.73898 0.05041 0.0356 0.0
C1373 C 0.76836 0.06094 0.04282 0.0
C1374 C 0.77925 0.08301 0.05596 0.0
C1375 C 0.72866 0.02931 0.02049 0.0
C1376 C 0.7295 1.00066 0.0204 0.0
C1377 C 0.7176 0.03705 0.00621 0.0
C1378 C 0.71807 0.06788 1.00482 0.0
C1379 C 0.74597 0.09761 0.00735 0.0
C1380 C 0.74608 0.12652 0.00647 0.0
C1381 C 0.71849 0.12605 1.00289 0.0
C1382 C 0.69075 0.09666 1.00013 0.0
C1383 C 0.6905 0.06766 1.00105 0.0
H1384 H 0.71861 0.14845 1.00222 0.0
H1385 H 0.71941 0.86884 0.01081 0.0
H1386 H 0.68348 0.78726 0.38073 0.0
H1387 H 0.69742 0.76988 0.35578 0.0
H1388 H 0.69996 0.69472 0.3825 0.0
H1389 H 0.68393 0.71043 0.40748 0.0
H1390 H 0.75671 0.74815 0.35594 0.0
H1391 H 0.64756 0.65982 0.3649 0.0
H1392 H 0.59203 0.64062 0.37035 0.0
H1393 H 0.58899 0.69145 0.32804 0.0
H1394 H 0.64471 0.71141 0.32252 0.0
H1395 H 0.77733 0.66261 0.29213 0.0
H1396 H 0.76447 0.6805 0.31694 0.0
H1397 H 0.69924 0.69646 0.29022 0.0
H1398 H 0.70947 0.67497 0.26548 0.0
H1399 H 0.67391 0.67482 0.31703 0.0
H1400 H 0.77776 0.76009 0.30564 0.0
H1401 H 0.83396 0.78595 0.29923 0.0
H1402 H 0.84913 0.75024 0.34419 0.0
H1403 H 0.79294 0.72382 0.35078 0.0
C1404 C 0.68646 0.76669 0.38144 0.0
C1405 C 0.6819 0.75011 0.3964 0.0
C1406 C 0.6948 0.75697 0.36706 0.0
C1407 C 0.69951 0.73079 0.36714 0.0
C1408 C 0.69636 0.71495 0.38207 0.0
C1409 C 0.68742 0.72425 0.39645 0.0
C1410 C 0.70722 0.71987 0.35158 0.0
C1411 C 0.73864 0.7317 0.34753 0.0
C1412 C 0.68384 0.69966 0.34019 0.0
C1413 C 0.65036 0.68743 0.34343 0.0
C1414 C 0.63514 0.6672 0.35688 0.0
C1415 C 0.60362 0.65611 0.35995 0.0
C1416 C 0.58702 0.6649 0.34959 0.0
C1417 C 0.60189 0.68472 0.33609 0.0
C1418 C 0.63343 0.69591 0.33298 0.0
C1419 C 0.75978 0.66929 0.29137 0.0
C1420 C 0.74427 0.66662 0.27646 0.0
C1421 C 0.7529 0.6804 0.30572 0.0
C1422 C 0.73123 0.69073 0.30572 0.0
C1423 C 0.71613 0.68882 0.29081 0.0
C1424 C 0.72241 0.67686 0.27646 0.0
C1425 C 0.72376 0.70247 0.3213 0.0
C1426 C 0.69227 0.69111 0.32535 0.0
C1427 C 0.74726 0.72382 0.33252 0.0
C1428 C 0.78108 0.73974 0.32863 0.0
C1429 C 0.79305 0.75759 0.31411 0.0
C1430 C 0.82491 0.77236 0.31045 0.0
C1431 C 0.84509 0.76967 0.32128 0.0
C1432 C 0.83346 0.75227 0.33581 0.0
C1433 C 0.80162 0.73742 0.33952 0.0
H1434 H 0.86974 0.78112 0.31842 0.0
H1435 H 0.56261 0.65628 0.35198 0.0
H1436 H 0.05027 0.76148 0.60718 0.0
H1437 H 0.01881 0.74469 0.63239 0.0
H1438 H 0.07718 0.7115 0.65228 0.0
H1439 H 0.10825 0.72774 0.62722 0.0
H1440 H 0.01662 0.66822 0.65832 0.0
H1441 H 0.08413 0.78353 0.66459 0.0
H1442 H 0.1069 0.84046 0.6565 0.0
H1443 H 0.01553 0.82863 0.65686 0.0
H1444 H 0.99216 0.77148 0.66475 0.0
H1445 H 0.9728 0.6514 0.74287 0.0
H1446 H 1.00262 0.66909 0.71717 0.0
H1447 H 0.94194 0.70126 0.69951 0.0
H1448 H 0.91204 0.68346 0.72507 0.0
H1449 H 1.00192 0.74497 0.69178 0.0
H1450 H 0.93394 0.63212 0.68647 0.0
H1451 H 0.90825 0.57392 0.69229 0.0
H1452 H 0.9964 0.57903 0.68791 0.0
H1453 H 0.02287 0.63753 0.68261 0.0
C1454 C 0.05633 0.75048 0.61689 0.0
C1455 C 0.08219 0.74642 0.6151 0.0
C1456 C 0.03842 0.74107 0.63141 0.0
C1457 C 0.04568 0.72707 0.6445 0.0
C1458 C 0.07099 0.72233 0.64253 0.0
C1459 C 0.08899 0.73194 0.62815 0.0
C1460 C 0.0271 0.71717 0.66021 0.0
C1461 C 0.01385 0.68519 0.66575 0.0
C1462 C 0.02235 0.7388 0.66977 0.0
C1463 C 0.03638 0.77315 0.66509 0.0
C1464 C 0.06887 0.793 0.66282 0.0
C1465 C 0.08189 0.82532 0.6583 0.0
C1466 C 0.06266 0.83813 0.65613 0.0
C1467 C 0.03039 0.81867 0.65852 0.0
C1468 C 0.01725 0.78632 0.66303 0.0
C1469 C 0.96605 0.66262 0.7336 0.0
C1470 C 0.93993 0.66596 0.73614 0.0
C1471 C 0.98299 0.67251 0.7188 0.0
C1472 C 0.97454 0.68638 0.70617 0.0
C1473 C 0.94908 0.69065 0.70892 0.0
C1474 C 0.93188 0.68034 0.72359 0.0
C1475 C 0.99188 0.69609 0.69007 0.0
C1476 C 1.0048 0.728 0.68443 0.0
C1477 C 0.99604 0.67426 0.68031 0.0
C1478 C 0.9805 0.6394 0.68437 0.0
C1479 C 0.94799 0.62101 0.68705 0.0
C1480 C 0.93325 0.58791 0.6902 0.0
C1481 C 0.95068 0.5728 0.69047 0.0
C1482 C 0.98292 0.59078 0.68769 0.0
C1483 C 0.99783 0.62394 0.68469 0.0
H1484 H 0.9392 0.54714 0.69283 0.0
H1485 H 0.07278 0.86316 0.65262 0.0
H1486 H 0.21659 0.91603 0.05631 0.0
H1487 H 0.23642 0.95545 0.03385 0.0
H1488 H 0.32879 0.97097 0.04094 0.0
H1489 H 0.30876 0.9313 0.06338 0.0
H1490 H 0.33123 0.02838 0.03405 0.0
H1491 H 0.28295 0.9222 0.01102 0.0
H1492 H 0.24026 0.86583 0.00696 0.0
H1493 H 0.18126 0.89867 0.98808 0.0
H1494 H 0.22345 0.95529 0.99231 0.0
H1495 H 0.39677 0.10537 0.95851 0.0
H1496 H 0.37721 0.06582 0.98082 0.0
H1497 H 0.28337 0.04439 0.97144 0.0
H1498 H 0.30305 0.08375 0.94889 0.0
H1499 H 0.28158 0.98987 0.97961 0.0
H1500 H 0.32952 0.096 1.00262 0.0
H1501 H 0.37194 0.15245 0.00682 0.0
H1502 H 0.43111 0.12004 0.02594 0.0
H1503 H 0.38921 0.06335 0.02158 0.0
C1504 C 0.24125 0.92838 0.05327 0.0
C1505 C 0.26116 0.92074 0.06167 0.0
C1506 C 0.25257 0.95074 0.04032 0.0
C1507 C 0.28414 0.9661 0.03542 0.0
C1508 C 0.30438 0.95958 0.04437 0.0
C1509 C 0.29296 0.93699 0.05725 0.0
C1510 C 0.29561 0.9877 0.02057 0.0
C1511 C 0.32058 0.01978 0.02212 0.0
C1512 C 0.28151 0.97699 1.00494 0.0
C1513 C 0.25627 0.94299 1.00213 0.0
C1514 C 0.2608 0.91741 0.00611 0.0
C1515 C 0.23671 0.88541 1.00377 0.0
C1516 C 0.20804 0.87867 0.9973 0.0
C1517 C 0.20347 0.90393 0.99311 0.0
C1518 C 0.22747 0.93599 0.99547 0.0
C1519 C 0.37186 0.09165 0.96098 0.0
C1520 C 0.35141 0.0973 0.95174 0.0
C1521 C 0.36067 0.06924 0.97389 0.0
C1522 C 0.32873 0.05224 0.97817 0.0
C1523 C 0.30807 0.057 0.9685 0.0
C1524 C 0.31929 0.07939 0.95551 0.0
C1525 C 0.31723 0.03065 0.99306 0.0
C1526 C 0.29223 0.99854 0.99153 0.0
C1527 C 0.33126 0.04138 0.00873 0.0
C1528 C 0.35631 0.07542 0.01164 0.0
C1529 C 0.35164 0.1009 0.00764 0.0
C1530 C 0.37559 0.13295 0.01005 0.0
C1531 C 0.40422 0.13982 0.01661 0.0
C1532 C 0.40893 0.11467 0.02083 0.0
C1533 C 0.38508 0.08257 0.0184 0.0
H1534 H 0.42274 0.16465 0.01846 0.0
H1535 H 0.1894 0.85388 0.99551 0.0
H1536 H 0.93648 0.30276 0.1248 0.0
H1537 H 0.98542 0.3257 0.14019 0.0
H1538 H 0.96875 0.23014 0.14854 0.0
H1539 H 0.91939 0.20693 0.13328 0.0
H1540 H 0.98877 0.26601 0.17663 0.0
H1541 H 0.02417 0.28194 0.12087 0.0
H1542 H 0.02876 0.30079 0.09241 0.0
H1543 H 0.06925 0.39849 0.10934 0.0
H1544 H 0.0645 0.38016 0.13792 0.0
H1545 H 0.14127 0.31556 0.2079 0.0
H1546 H 0.09127 0.29158 0.19328 0.0
H1547 H 0.11389 0.38644 0.17771 0.0
H1548 H 0.1646 0.41007 0.19164 0.0
H1549 H 0.09017 0.3502 0.1532 0.0
H1550 H 0.05453 0.33606 0.2086 0.0
H1551 H 0.0491 0.31865 0.23737 0.0
H1552 H 1.00814 0.22002 0.22192 0.0
H1553 H 0.01369 0.23689 0.19303 0.0
C1554 C 0.94307 0.28647 0.12989 0.0
C1555 C 0.92359 0.25279 0.12766 0.0
C1556 C 0.97139 0.29974 0.13866 0.0
C1557 C 0.98131 0.27987 0.14558 0.0
C1558 C 0.96194 0.24623 0.14339 0.0
C1559 C 0.93371 0.23293 0.13448 0.0
C1560 C 1.01156 0.29415 0.15518 0.0
C1561 C 1.01099 0.2841 0.1714 0.0
C1562 C 0.04073 0.31855 0.14872 0.0
C1563 C 0.0437 0.32963 0.13154 0.0
C1564 C 0.03383 0.30741 0.11853 0.0
C1565 C 0.0365 0.31801 0.10238 0.0
C1566 C 0.04922 0.3508 0.09907 0.0
C1567 C 0.05937 0.37308 0.11192 0.0
C1568 C 0.05672 0.36261 0.12809 0.0
C1569 C 0.13531 0.33132 0.20157 0.0
C1570 C 0.15692 0.36481 0.20112 0.0
C1571 C 0.10652 0.31758 0.19319 0.0
C1572 C 0.09798 0.33696 0.18438 0.0
C1573 C 0.11941 0.3706 0.18429 0.0
C1574 C 0.1484 0.38426 0.19246 0.0
C1575 C 0.06754 0.32227 0.1748 0.0
C1576 C 0.06802 0.33218 0.15853 0.0
C1577 C 0.03822 0.29801 0.1813 0.0
C1578 C 0.03482 0.28778 0.19865 0.0
C1579 C 0.04457 0.31068 0.21133 0.0
C1580 C 0.04144 0.30091 0.22766 0.0
C1581 C 0.02836 0.26826 0.23147 0.0
C1582 C 0.01831 0.24531 0.21895 0.0
C1583 C 0.02142 0.25496 0.2026 0.0
H1584 H 0.02596 0.26074 0.24412 0.0
H1585 H 0.05127 0.35896 0.08656 0.0
H1586 H 0.80042 0.15286 0.51425 0.0
H1587 H 0.77253 0.10043 0.50064 0.0
H1588 H 0.75854 0.05298 0.54719 0.0
H1589 H 0.78883 0.10596 0.56066 0.0
H1590 H 0.76818 0.01953 0.52777 0.0
H1591 H 0.69766 0.05752 0.52197 0.0
H1592 H 0.68064 0.0956 0.51475 0.0
H1593 H 0.70422 0.09321 0.46444 0.0
H1594 H 0.72176 0.05543 0.47139 0.0
H1595 H 0.65067 0.86391 0.49723 0.0
H1596 H 0.67562 0.91693 0.51064 0.0
H1597 H 0.71526 0.96306 0.46454 0.0
H1598 H 0.69098 0.9097 0.45114 0.0
H1599 H 0.69103 0.99601 0.48369 0.0
H1600 H 0.76028 0.95533 0.49114 0.0
H1601 H 0.7728 0.91439 0.4996 0.0
H1602 H 0.74579 0.91909 0.54895 0.0
H1603 H 0.73253 0.95964 0.54072 0.0
C1604 C 0.79136 0.13128 0.52165 0.0
C1605 C 0.79702 0.13403 0.53867 0.0
C1606 C 0.77489 0.10093 0.51381 0.0
C1607 C 0.7623 0.07178 0.52269 0.0
C1608 C 0.76762 0.07454 0.53979 0.0
C1609 C 0.78475 0.10505 0.54761 0.0
C1610 C 0.74459 0.03886 0.51414 0.0
C1611 C 0.75099 0.01454 0.51833 0.0
C1612 C 0.72213 0.03142 0.50149 0.0
C1613 C 0.71131 0.05388 0.49723 0.0
C1614 C 0.69938 0.06526 0.50938 0.0
C1615 C 0.68962 0.08677 0.50534 0.0
C1616 C 0.69144 0.09689 0.48916 0.0
C1617 C 0.70288 0.08539 0.47698 0.0
C1618 C 0.7127 0.0639 0.48095 0.0
C1619 C 0.66464 0.88532 0.48989 0.0
C1620 C 0.66885 0.8822 0.47304 0.0
C1621 C 0.67899 0.91581 0.49762 0.0
C1622 C 0.6978 0.94452 0.48877 0.0
C1623 C 0.70101 0.9416 0.47179 0.0
C1624 C 0.687 0.91095 0.46407 0.0
C1625 C 0.71479 0.97716 0.49738 0.0
C1626 C 0.70821 1.00127 0.49317 0.0
C1627 C 0.73653 0.98416 0.51024 0.0
C1628 C 0.74514 0.96032 0.51528 0.0
C1629 C 0.75681 0.94748 0.50378 0.0
C1630 C 0.76405 0.92435 0.50853 0.0
C1631 C 0.76003 0.91409 0.5248 0.0
C1632 C 0.74886 0.92703 0.53635 0.0
C1633 C 0.74148 0.9501 0.53165 0.0
H1634 H 0.76564 0.89617 0.52845 0.0
H1635 H 0.68396 0.11361 0.48606 0.0
H1636 H 0.79108 0.67098 0.79066 0.0
H1637 H 0.76269 0.69283 0.80495 0.0
H1638 H 0.77413 0.65533 0.85058 0.0
H1639 H 0.79986 0.63126 0.83606 0.0
H1640 H 0.72344 0.65056 0.85341 0.0
H1641 H 0.82046 0.74174 0.83585 0.0
H1642 H 0.86174 0.7773 0.81634 0.0
H1643 H 0.79607 0.793 0.79033 0.0
H1644 H 0.75429 0.75719 0.80957 0.0
H1645 H 0.70092 0.7586 0.90536 0.0
H1646 H 0.72636 0.73458 0.88996 0.0
H1647 H 0.68404 0.74145 0.84545 0.0
H1648 H 0.65813 0.76475 0.86079 0.0
H1649 H 0.74973 0.76252 0.84215 0.0
H1650 H 0.65358 0.67105 0.86241 0.0
H1651 H 0.61596 0.6381 0.88397 0.0
H1652 H 0.68647 0.62689 0.9077 0.0
H1653 H 0.72465 0.6602 0.88639 0.0
C1654 C 0.78698 0.66691 0.80369 0.0
C1655 C 0.79801 0.64943 0.81215 0.0
C1656 C 0.77116 0.67998 0.812 0.0
C1657 C 0.76675 0.67693 0.82916 0.0
C1658 C 0.77701 0.65853 0.83746 0.0
C1659 C 0.79202 0.64481 0.82911 0.0
C1660 C 0.75176 0.69273 0.83855 0.0
C1661 C 0.72976 0.67523 0.85098 0.0
C1662 C 0.75914 0.72494 0.8356 0.0
C1663 C 0.78419 0.74652 0.82404 0.0
C1664 C 0.81479 0.75262 0.8259 0.0
C1665 C 0.83827 0.77284 0.81491 0.0
C1666 C 0.83151 0.78733 0.80208 0.0
C1667 C 0.80126 0.78171 0.80025 0.0
C1668 C 0.77767 0.76147 0.81121 0.0
C1669 C 0.69713 0.75514 0.89229 0.0
C1670 C 0.67723 0.76356 0.88441 0.0
C1671 C 0.71164 0.74125 0.88346 0.0
C1672 C 0.70718 0.73594 0.86644 0.0
C1673 C 0.68799 0.74514 0.85851 0.0
C1674 C 0.673 0.75837 0.86736 0.0
C1675 C 0.72195 0.72038 0.85692 0.0
C1676 C 0.74374 0.73791 0.8445 0.0
C1677 C 0.71505 0.68857 0.86016 0.0
C1678 C 0.69205 0.66839 0.8729 0.0
C1679 C 0.66113 0.66179 0.8723 0.0
C1680 C 0.63969 0.643 0.88446 0.0
C1681 C 0.64884 0.63048 0.89722 0.0
C1682 C 0.67943 0.63665 0.89782 0.0
C1683 C 0.70097 0.65545 0.8857 0.0
H1684 H 0.63221 0.61594 0.90663 0.0
H1685 H 0.84972 0.80298 0.79358 0.0
H1686 H 0.85785 0.6065 0.19103 0.0
H1687 H 0.90828 0.63051 0.1767 0.0
H1688 H 0.93411 0.72407 0.196 0.0
H1689 H 0.88366 0.69989 0.21043 0.0
H1690 H 0.94702 0.72813 0.16343 0.0
H1691 H 0.9681 0.6818 0.21004 0.0
H1692 H 0.95811 0.63802 0.22911 0.0
H1693 H 0.965 0.58359 0.18949 0.0
H1694 H 0.97459 0.62687 0.17013 0.0
H1695 H 0.10593 0.81092 0.13572 0.0
H1696 H 0.05717 0.78768 0.15136 0.0
H1697 H 0.03695 0.6919 0.13938 0.0
H1698 H 0.08623 0.71513 0.12426 0.0
H1699 H 0.02097 0.68918 0.16871 0.0
H1700 H 0.99762 0.73205 0.12183 0.0
H1701 H 1.00507 0.77331 0.10165 0.0
H1702 H 0.99964 0.83108 0.13997 0.0
H1703 H 0.99254 0.79033 0.16041 0.0
C1704 C 0.87458 0.63207 0.19251 0.0
C1705 C 0.86678 0.65117 0.20207 0.0
C1706 C 0.90348 0.64589 0.18423 0.0
C1707 C 0.9255 0.67931 0.1852 0.0
C1708 C 0.91782 0.69831 0.19494 0.0
C1709 C 0.88902 0.68443 0.20333 0.0
C1710 C 0.95599 0.69449 0.17576 0.0
C1711 C 0.96338 0.71988 0.16479 0.0
C1712 C 0.97723 0.68335 0.17698 0.0
C1713 C 0.97179 0.65746 0.18862 0.0
C1714 C 0.96727 0.6604 0.20538 0.0
C1715 C 0.96171 0.63569 0.21624 0.0
C1716 C 0.96085 0.60801 0.21051 0.0
C1717 C 0.96564 0.60503 0.19391 0.0
C1718 C 0.97117 0.62966 0.18299 0.0
C1719 C 0.09095 0.78489 0.13623 0.0
C1720 C 0.10029 0.76506 0.12858 0.0
C1721 C 0.06279 0.77147 0.14522 0.0
C1722 C 0.0425 0.7377 0.14655 0.0
C1723 C 0.05178 0.71793 0.13877 0.0
C1724 C 0.08014 0.73133 0.13001 0.0
C1725 C 0.01215 0.72292 0.15624 0.0
C1726 C 1.00473 0.69756 0.16729 0.0
C1727 C 0.99062 0.73377 0.15491 0.0
C1728 C 0.99488 0.7583 0.14266 0.0
C1729 C 0.99824 0.75366 0.12596 0.0
C1730 C 1.00236 0.77694 0.11448 0.0
C1731 C 1.00292 0.80484 0.11953 0.0
C1732 C 0.99926 0.80948 0.13607 0.0
C1733 C 0.99516 0.7863 0.14761 0.0
H1734 H 1.00611 0.82283 0.11062 0.0
H1735 H 0.95654 0.5889 0.21893 0.0
H1736 H 0.25687 0.8746 0.52565 0.0
H1737 H 0.28524 0.92721 0.51185 0.0
H1738 H 0.22452 0.95461 0.53475 0.0
H1739 H 0.19581 0.90162 0.54825 0.0
H1740 H 0.23237 0.97516 0.50524 0.0
H1741 H 0.30557 0.98601 0.54605 0.0
H1742 H 0.33869 0.97109 0.56145 0.0
H1743 H 0.38923 0.97813 0.51758 0.0
H1744 H 0.3561 0.99265 0.50186 0.0
H1745 H 0.37852 0.1514 0.49402 0.0
H1746 H 0.35293 0.09855 0.50754 0.0
H1747 H 0.29794 0.0546 0.46416 0.0
H1748 H 0.32322 0.10784 0.45079 0.0
H1749 H 0.34814 0.04318 0.50465 0.0
H1750 H 0.22676 0.98829 0.47384 0.0
H1751 H 0.19345 1.00645 0.46138 0.0
H1752 H 0.23909 0.09309 0.49029 0.0
H1753 H 0.27232 0.07524 0.50308 0.0
C1754 C 0.24989 0.89205 0.52795 0.0
C1755 C 0.22423 0.88384 0.53831 0.0
C1756 C 0.2662 0.92237 0.52001 0.0
C1757 C 0.25765 0.94581 0.5222 0.0
C1758 C 0.232 0.93751 0.53265 0.0
C1759 C 0.21565 0.90714 0.54055 0.0
C1760 C 0.27488 0.97848 0.5135 0.0
C1761 C 0.25771 0.9898 0.50512 0.0
C1762 C 0.30809 0.99864 0.51333 0.0
C1763 C 0.32815 0.9901 0.52275 0.0
C1764 C 0.32361 0.98416 0.53967 0.0
C1765 C 0.3424 0.9758 0.54846 0.0
C1766 C 0.366 0.97358 0.54049 0.0
C1767 C 0.37091 0.97981 0.52372 0.0
C1768 C 0.35215 0.98812 0.51487 0.0
C1769 C 0.36117 0.13041 0.48729 0.0
C1770 C 0.35304 0.13412 0.47125 0.0
C1771 C 0.34643 0.09996 0.49507 0.0
C1772 C 0.32279 0.07193 0.48717 0.0
C1773 C 0.31546 0.07548 0.47088 0.0
C1774 C 0.33022 0.10604 0.46309 0.0
C1775 C 0.30563 0.03953 0.49613 0.0
C1776 C 0.32281 0.02835 0.50462 0.0
C1777 C 0.27242 0.01982 0.4967 0.0
C1778 C 0.25224 0.03056 0.48927 0.0
C1779 C 0.22959 0.01115 0.47757 0.0
C1780 C 0.21073 0.0214 0.47045 0.0
C1781 C 0.21422 0.05095 0.475 0.0
C1782 C 0.23648 0.07026 0.48673 0.0
C1783 C 0.25534 0.06009 0.49391 0.0
H1784 H 0.19963 0.05886 0.46945 0.0
H1785 H 0.38052 0.96711 0.54732 0.0
H1786 H 0.22491 0.38697 0.8369 0.0
H1787 H 0.2516 0.36415 0.8515 0.0
H1788 H 0.26034 0.32292 0.80642 0.0
H1789 H 0.23153 0.34418 0.79197 0.0
H1790 H 0.24802 0.28109 0.82794 0.0
H1791 H 0.32466 0.39292 0.82795 0.0
H1792 H 0.34654 0.4513 0.83196 0.0
H1793 H 0.32756 0.43614 0.88346 0.0
H1794 H 0.30518 0.37759 0.87974 0.0
H1795 H 0.36608 0.25278 0.8611 0.0
H1796 H 0.34025 0.27639 0.84603 0.0
H1797 H 0.30023 0.28542 0.89095 0.0
H1798 H 0.32553 0.261 0.90611 0.0
H1799 H 0.33019 0.34398 0.8693 0.0
H1800 H 0.25356 0.22951 0.8672 0.0
H1801 H 0.23592 0.17257 0.86133 0.0
H1802 H 0.26157 0.19597 0.81087 0.0
H1803 H 0.2798 0.25318 0.81649 0.0
C1804 C 0.23264 0.37316 0.83005 0.0
C1805 C 0.22603 0.36756 0.81319 0.0
C1806 C 0.2483 0.36026 0.83843 0.0
C1807 C 0.2589 0.34203 0.83021 0.0
C1808 C 0.25268 0.3368 0.81326 0.0
C1809 C 0.23642 0.34927 0.80489 0.0
C1810 C 0.27545 0.32778 0.83939 0.0
C1811 C 0.2663 0.29522 0.83677 0.0
C1812 C 0.29932 0.34556 0.8512 0.0
C1813 C 0.31297 0.3808 0.85353 0.0
C1814 C 0.32497 0.402 0.84012 0.0
C1815 C 0.33748 0.43513 0.84234 0.0
C1816 C 0.33836 0.44741 0.85794 0.0
C1817 C 0.32683 0.42659 0.87137 0.0
C1818 C 0.31426 0.39343 0.86922 0.0
C1819 C 0.35177 0.25974 0.86783 0.0
C1820 C 0.34802 0.25489 0.88491 0.0
C1821 C 0.33691 0.27324 0.85914 0.0
C1822 C 0.3182 0.28291 0.86726 0.0
C1823 C 0.31453 0.27832 0.88433 0.0
C1824 C 0.32888 0.26413 0.893 0.0
C1825 C 0.30246 0.29753 0.85786 0.0
C1826 C 0.31189 0.33009 0.86043 0.0
C1827 C 0.27948 0.28007 0.84572 0.0
C1828 C 0.26833 0.24567 0.84231 0.0
C1829 C 0.25569 0.22256 0.85488 0.0
C1830 C 0.24553 0.19023 0.8516 0.0
C1831 C 0.2477 0.18067 0.83575 0.0
C1832 C 0.25995 0.20342 0.82314 0.0
C1833 C 0.27017 0.23579 0.82637 0.0
H1834 H 0.23982 0.15563 0.83322 0.0
H1835 H 0.34805 0.47306 0.85963 0.0
loop_
_geom_bond_atom_site_label_1
_geom_bond_atom_site_label_2
_geom_bond_distance
_geom_bond_site_symmetry_2
_ccdc_geom_bond_type
C0 C1 1.443 . S
C0 N4 1.376 . S
C0 C38 1.389 . S
C1 C0 1.443 . S
C1 C2 1.340 . S
C1 H41 0.951 . S
C2 C1 1.340 . S
C2 C3 1.439 . S
C2 H42 0.950 . S
C3 C2 1.439 . S
C3 N4 1.374 . S
C3 C37 1.395 . S
N4 C0 1.376 . S
N4 C3 1.374 . S
N4 Co5 2.008 . S
Co5 N4 2.008 . S
Co5 N6 1.995 . S
Co5 N11 2.008 . S
Co5 N16 1.995 . S
Co5 N21 2.282 . S
Co5 N27 2.282 . S
N6 Co5 1.995 . S
N6 C7 1.376 . S
N6 C10 1.383 . S
C7 N6 1.376 . S
C7 C8 1.446 . S
C7 C37 1.391 . S
C8 C7 1.446 . S
C8 C9 1.339 . S
C8 H43 0.949 . S
C9 C8 1.339 . S
C9 C10 1.439 . S
C9 H44 0.950 . S
C10 N6 1.383 . S
C10 C9 1.439 . S
C10 C39 1.392 . S
N11 Co5 2.008 . S
N11 C12 1.376 . S
N11 C15 1.374 . S
C12 N11 1.376 . S
C12 C13 1.443 . S
C12 C39 1.389 . S
C13 C12 1.443 . S
C13 C14 1.340 . S
C13 H45 0.951 . S
C14 C13 1.340 . S
C14 C15 1.439 . S
C14 H46 0.950 . S
C15 N11 1.374 . S
C15 C14 1.439 . S
C15 C40 1.395 . S
N16 Co5 1.995 . S
N16 C17 1.376 . S
N16 C20 1.383 . S
C17 N16 1.376 . S
C17 C18 1.446 . S
C17 C40 1.391 . S
C18 C17 1.446 . S
C18 C19 1.339 . S
C18 H47 0.949 . S
C19 C18 1.339 . S
C19 C20 1.439 . S
C19 H48 0.950 . S
C20 N16 1.383 . S
C20 C19 1.439 . S
C20 C38 1.392 . S
N21 Co5 2.282 . S
N21 C24 1.332 . S
N21 C26 1.332 . S
C22 C23 1.386 . S
C22 C25 1.388 . S
C23 C22 1.386 . S
C23 C24 1.382 . S
C23 H49 0.950 . S
C24 N21 1.332 . S
C24 C23 1.382 . S
C24 H35 0.952 . S
C25 C22 1.388 . S
C25 C26 1.382 . S
C25 H50 0.950 . S
C26 N21 1.332 . S
C26 C25 1.382 . S
C26 H36 0.948 . S
N27 Co5 2.282 . S
N27 C31 1.332 . S
N27 C32 1.332 . S
C28 C29 1.388 . S
C28 C32 1.382 . S
C28 H51 0.950 . S
C29 C28 1.388 . S
C29 C30 1.386 . S
C30 C29 1.386 . S
C30 C31 1.382 . S
C30 H52 0.950 . S
C31 N27 1.332 . S
C31 C30 1.382 . S
C31 H33 0.952 . S
C32 N27 1.332 . S
C32 C28 1.382 . S
C32 H34 0.948 . S
H33 C31 0.952 . S
H34 C32 0.948 . S
H35 C24 0.952 . S
H36 C26 0.948 . S
C37 C3 1.395 . S
C37 C7 1.391 . S
C38 C0 1.389 . S
C38 C20 1.392 . S
C39 C10 1.392 . S
C39 C12 1.389 . S
C40 C15 1.395 . S
C40 C17 1.391 . S
H41 C1 0.951 . S
H42 C2 0.950 . S
H43 C8 0.949 . S
H44 C9 0.950 . S
H45 C13 0.951 . S
H46 C14 0.950 . S
H47 C18 0.949 . S
H48 C19 0.950 . S
H49 C23 0.950 . S
H50 C25 0.950 . S
H51 C28 0.950 . S
H52 C30 0.950 . S
C53 C54 1.443 . S
C53 N57 1.376 . S
C53 C91 1.389 . S
C54 C53 1.443 . S
C54 C55 1.340 . S
C54 H94 0.951 . S
C55 C54 1.340 . S
C55 C56 1.439 . S
C55 H95 0.950 . S
C56 C55 1.439 . S
C56 N57 1.374 . S
C56 C90 1.395 . S
N57 C53 1.376 . S
N57 C56 1.374 . S
N57 Co58 2.008 . S
Co58 N57 2.008 . S
Co58 N59 1.995 . S
Co58 N64 2.008 . S
Co58 N69 1.995 . S
Co58 N74 2.282 . S
Co58 N80 2.282 . S
N59 Co58 1.995 . S
N59 C60 1.376 . S
N59 C63 1.383 . S
C60 N59 1.376 . S
C60 C61 1.446 . S
C60 C90 1.391 . S
C61 C60 1.446 . S
C61 C62 1.339 . S
C61 H96 0.949 . S
C62 C61 1.339 . S
C62 C63 1.439 . S
C62 H97 0.950 . S
C63 N59 1.383 . S
C63 C62 1.439 . S
C63 C92 1.392 . S
N64 Co58 2.008 . S
N64 C65 1.376 . S
N64 C68 1.374 . S
C65 N64 1.376 . S
C65 C66 1.443 . S
C65 C92 1.389 . S
C66 C65 1.443 . S
C66 C67 1.340 . S
C66 H98 0.951 . S
C67 C66 1.340 . S
C67 C68 1.439 . S
C67 H99 0.950 . S
C68 N64 1.374 . S
C68 C67 1.439 . S
C68 C93 1.395 . S
N69 Co58 1.995 . S
N69 C70 1.376 . S
N69 C73 1.383 . S
C70 N69 1.376 . S
C70 C71 1.446 . S
C70 C93 1.391 . S
C71 C70 1.446 . S
C71 C72 1.339 . S
C71 H100 0.949 . S
C72 C71 1.339 . S
C72 C73 1.439 . S
C72 H101 0.950 . S
C73 N69 1.383 . S
C73 C72 1.439 . S
C73 C91 1.392 . S
N74 Co58 2.282 . S
N74 C77 1.332 . S
N74 C79 1.332 . S
C75 C76 1.386 . S
C75 C78 1.388 . S
C76 C75 1.386 . S
C76 C77 1.382 . S
C76 H102 0.950 . S
C77 N74 1.332 . S
C77 C76 1.382 . S
C77 H88 0.952 . S
C78 C75 1.388 . S
C78 C79 1.382 . S
C78 H103 0.950 . S
C79 N74 1.332 . S
C79 C78 1.382 . S
C79 H89 0.948 . S
N80 Co58 2.282 . S
N80 C84 1.332 . S
N80 C85 1.332 . S
C81 C82 1.388 . S
C81 C85 1.382 . S
C81 H104 0.950 . S
C82 C81 1.388 . S
C82 C83 1.386 . S
C83 C82 1.386 . S
C83 C84 1.382 . S
C83 H105 0.950 . S
C84 N80 1.332 . S
C84 C83 1.382 . S
C84 H86 0.952 . S
C85 N80 1.332 . S
C85 C81 1.382 . S
C85 H87 0.948 . S
H86 C84 0.952 . S
H87 C85 0.948 . S
H88 C77 0.952 . S
H89 C79 0.948 . S
C90 C56 1.395 . S
C90 C60 1.391 . S
C91 C53 1.389 . S
C91 C73 1.392 . S
C92 C63 1.392 . S
C92 C65 1.389 . S
C93 C68 1.395 . S
C93 C70 1.391 . S
H94 C54 0.951 . S
H95 C55 0.950 . S
H96 C61 0.949 . S
H97 C62 0.950 . S
H98 C66 0.951 . S
H99 C67 0.950 . S
H100 C71 0.949 . S
H101 C72 0.950 . S
H102 C76 0.950 . S
H103 C78 0.950 . S
H104 C81 0.950 . S
H105 C83 0.950 . S
C106 C107 1.443 . S
C106 N110 1.376 . S
C106 C144 1.389 . S
C107 C106 1.443 . S
C107 C108 1.340 . S
C107 H147 0.951 . S
C108 C107 1.340 . S
C108 C109 1.439 . S
C108 H148 0.950 . S
C109 C108 1.439 . S
C109 N110 1.374 . S
C109 C143 1.395 . S
N110 C106 1.376 . S
N110 C109 1.374 . S
N110 Co111 2.008 . S
Co111 N110 2.008 . S
Co111 N112 1.995 . S
Co111 N117 2.008 . S
Co111 N122 1.995 . S
Co111 N127 2.282 . S
Co111 N133 2.282 . S
N112 Co111 1.995 . S
N112 C113 1.376 . S
N112 C116 1.383 . S
C113 N112 1.376 . S
C113 C114 1.446 . S
C113 C143 1.391 . S
C114 C113 1.446 . S
C114 C115 1.339 . S
C114 H149 0.949 . S
C115 C114 1.339 . S
C115 C116 1.439 . S
C115 H150 0.950 . S
C116 N112 1.383 . S
C116 C115 1.439 . S
C116 C145 1.392 . S
N117 Co111 2.008 . S
N117 C118 1.376 . S
N117 C121 1.374 . S
C118 N117 1.376 . S
C118 C119 1.443 . S
C118 C145 1.389 . S
C119 C118 1.443 . S
C119 C120 1.340 . S
C119 H151 0.951 . S
C120 C119 1.340 . S
C120 C121 1.439 . S
C120 H152 0.950 . S
C121 N117 1.374 . S
C121 C120 1.439 . S
C121 C146 1.395 . S
N122 Co111 1.995 . S
N122 C123 1.376 . S
N122 C126 1.383 . S
C123 N122 1.376 . S
C123 C124 1.446 . S
C123 C146 1.391 . S
C124 C123 1.446 . S
C124 C125 1.339 . S
C124 H153 0.949 . S
C125 C124 1.339 . S
C125 C126 1.439 . S
C125 H154 0.950 . S
C126 N122 1.383 . S
C126 C125 1.439 . S
C126 C144 1.392 . S
N127 Co111 2.282 . S
N127 C130 1.332 . S
N127 C132 1.332 . S
C128 C129 1.386 . S
C128 C131 1.388 . S
C129 C128 1.386 . S
C129 C130 1.382 . S
C129 H155 0.950 . S
C130 N127 1.332 . S
C130 C129 1.382 . S
C130 H141 0.952 . S
C131 C128 1.388 . S
C131 C132 1.382 . S
C131 H156 0.950 . S
C132 N127 1.332 . S
C132 C131 1.382 . S
C132 H142 0.948 . S
N133 Co111 2.282 . S
N133 C137 1.332 . S
N133 C138 1.332 . S
C134 C135 1.388 . S
C134 C138 1.382 . S
C134 H157 0.950 . S
C135 C134 1.388 . S
C135 C136 1.386 . S
C136 C135 1.386 . S
C136 C137 1.382 . S
C136 H158 0.950 . S
C137 N133 1.332 . S
C137 C136 1.382 . S
C137 H139 0.952 . S
C138 N133 1.332 . S
C138 C134 1.382 . S
C138 H140 0.948 . S
H139 C137 0.952 . S
H140 C138 0.948 . S
H141 C130 0.952 . S
H142 C132 0.948 . S
C143 C109 1.395 . S
C143 C113 1.391 . S
C144 C106 1.389 . S
C144 C126 1.392 . S
C145 C116 1.392 . S
C145 C118 1.389 . S
C146 C121 1.395 . S
C146 C123 1.391 . S
H147 C107 0.951 . S
H148 C108 0.950 . S
H149 C114 0.949 . S
H150 C115 0.950 . S
H151 C119 0.951 . S
H152 C120 0.950 . S
H153 C124 0.949 . S
H154 C125 0.950 . S
H155 C129 0.950 . S
H156 C131 0.950 . S
H157 C134 0.950 . S
H158 C136 0.950 . S
C159 C160 1.443 . S
C159 N163 1.376 . S
C159 C197 1.389 . S
C160 C159 1.443 . S
C160 C161 1.340 . S
C160 H200 0.951 . S
C161 C160 1.340 . S
C161 C162 1.439 . S
C161 H201 0.950 . S
C162 C161 1.439 . S
C162 N163 1.374 . S
C162 C196 1.395 . S
N163 C159 1.376 . S
N163 C162 1.374 . S
N163 Co164 2.008 . S
Co164 N163 2.008 . S
Co164 N165 1.995 . S
Co164 N170 2.008 . S
Co164 N175 1.995 . S
Co164 N180 2.282 . S
Co164 N186 2.282 . S
N165 Co164 1.995 . S
N165 C166 1.376 . S
N165 C169 1.383 . S
C166 N165 1.376 . S
C166 C167 1.446 . S
C166 C196 1.391 . S
C167 C166 1.446 . S
C167 C168 1.339 . S
C167 H202 0.949 . S
C168 C167 1.339 . S
C168 C169 1.439 . S
C168 H203 0.950 . S
C169 N165 1.383 . S
C169 C168 1.439 . S
C169 C198 1.392 . S
N170 Co164 2.008 . S
N170 C171 1.376 . S
N170 C174 1.374 . S
C171 N170 1.376 . S
C171 C172 1.443 . S
C171 C198 1.389 . S
C172 C171 1.443 . S
C172 C173 1.340 . S
C172 H204 0.951 . S
C173 C172 1.340 . S
C173 C174 1.439 . S
C173 H205 0.950 . S
C174 N170 1.374 . S
C174 C173 1.439 . S
C174 C199 1.395 . S
N175 Co164 1.995 . S
N175 C176 1.376 . S
N175 C179 1.383 . S
C176 N175 1.376 . S
C176 C177 1.446 . S
C176 C199 1.391 . S
C177 C176 1.446 . S
C177 C178 1.339 . S
C177 H206 0.949 . S
C178 C177 1.339 . S
C178 C179 1.439 . S
C178 H207 0.950 . S
C179 N175 1.383 . S
C179 C178 1.439 . S
C179 C197 1.392 . S
N180 Co164 2.282 . S
N180 C183 1.332 . S
N180 C185 1.332 . S
C181 C182 1.386 . S
C181 C184 1.388 . S
C182 C181 1.386 . S
C182 C183 1.382 . S
C182 H208 0.950 . S
C183 N180 1.332 . S
C183 C182 1.382 . S
C183 H194 0.952 . S
C184 C181 1.388 . S
C184 C185 1.382 . S
C184 H209 0.950 . S
C185 N180 1.332 . S
C185 C184 1.382 . S
C185 H195 0.948 . S
N186 Co164 2.282 . S
N186 C190 1.332 . S
N186 C191 1.332 . S
C187 C188 1.388 . S
C187 C191 1.382 . S
C187 H210 0.950 . S
C188 C187 1.388 . S
C188 C189 1.386 . S
C189 C188 1.386 . S
C189 C190 1.382 . S
C189 H211 0.950 . S
C190 N186 1.332 . S
C190 C189 1.382 . S
C190 H192 0.952 . S
C191 N186 1.332 . S
C191 C187 1.382 . S
C191 H193 0.948 . S
H192 C190 0.952 . S
H193 C191 0.948 . S
H194 C183 0.952 . S
H195 C185 0.948 . S
C196 C162 1.395 . S
C196 C166 1.391 . S
C197 C159 1.389 . S
C197 C179 1.392 . S
C198 C169 1.392 . S
C198 C171 1.389 . S
C199 C174 1.395 . S
C199 C176 1.391 . S
H200 C160 0.951 . S
H201 C161 0.950 . S
H202 C167 0.949 . S
H203 C168 0.950 . S
H204 C172 0.951 . S
H205 C173 0.950 . S
H206 C177 0.949 . S
H207 C178 0.950 . S
H208 C182 0.950 . S
H209 C184 0.950 . S
H210 C187 0.950 . S
H211 C189 0.950 . S
C212 C213 1.443 . S
C212 N216 1.376 . S
C212 C250 1.389 . S
C213 C212 1.443 . S
C213 C214 1.340 . S
C213 H253 0.951 . S
C214 C213 1.340 . S
C214 C215 1.439 . S
C214 H254 0.950 . S
C215 C214 1.439 . S
C215 N216 1.374 . S
C215 C249 1.395 . S
N216 C212 1.376 . S
N216 C215 1.374 . S
N216 Co217 2.008 . S
Co217 N216 2.008 . S
Co217 N218 1.995 . S
Co217 N223 2.008 . S
Co217 N228 1.995 . S
Co217 N233 2.282 . S
Co217 N239 2.282 . S
N218 Co217 1.995 . S
N218 C219 1.376 . S
N218 C222 1.383 . S
C219 N218 1.376 . S
C219 C220 1.446 . S
C219 C249 1.391 . S
C220 C219 1.446 . S
C220 C221 1.339 . S
C220 H255 0.949 . S
C221 C220 1.339 . S
C221 C222 1.439 . S
C221 H256 0.950 . S
C222 N218 1.383 . S
C222 C221 1.439 . S
C222 C251 1.392 . S
N223 Co217 2.008 . S
N223 C224 1.376 . S
N223 C227 1.374 . S
C224 N223 1.376 . S
C224 C225 1.443 . S
C224 C251 1.389 . S
C225 C224 1.443 . S
C225 C226 1.340 . S
C225 H257 0.951 . S
C226 C225 1.340 . S
C226 C227 1.439 . S
C226 H258 0.950 . S
C227 N223 1.374 . S
C227 C226 1.439 . S
C227 C252 1.395 . S
N228 Co217 1.995 . S
N228 C229 1.376 . S
N228 C232 1.383 . S
C229 N228 1.376 . S
C229 C230 1.446 . S
C229 C252 1.391 . S
C230 C229 1.446 . S
C230 C231 1.339 . S
C230 H259 0.949 . S
C231 C230 1.339 . S
C231 C232 1.439 . S
C231 H260 0.950 . S
C232 N228 1.383 . S
C232 C231 1.439 . S
C232 C250 1.392 . S
N233 Co217 2.282 . S
N233 C236 1.332 . S
N233 C238 1.332 . S
C234 C235 1.386 . S
C234 C237 1.388 . S
C235 C234 1.386 . S
C235 C236 1.382 . S
C235 H261 0.950 . S
C236 N233 1.332 . S
C236 C235 1.382 . S
C236 H247 0.952 . S
C237 C234 1.388 . S
C237 C238 1.382 . S
C237 H262 0.950 . S
C238 N233 1.332 . S
C238 C237 1.382 . S
C238 H248 0.948 . S
N239 Co217 2.282 . S
N239 C243 1.332 . S
N239 C244 1.332 . S
C240 C241 1.388 . S
C240 C244 1.382 . S
C240 H263 0.950 . S
C241 C240 1.388 . S
C241 C242 1.386 . S
C242 C241 1.386 . S
C242 C243 1.382 . S
C242 H264 0.950 . S
C243 N239 1.332 . S
C243 C242 1.382 . S
C243 H245 0.952 . S
C244 N239 1.332 . S
C244 C240 1.382 . S
C244 H246 0.948 . S
H245 C243 0.952 . S
H246 C244 0.948 . S
H247 C236 0.952 . S
H248 C238 0.948 . S
C249 C215 1.395 . S
C249 C219 1.391 . S
C250 C212 1.389 . S
C250 C232 1.392 . S
C251 C222 1.392 . S
C251 C224 1.389 . S
C252 C227 1.395 . S
C252 C229 1.391 . S
H253 C213 0.951 . S
H254 C214 0.950 . S
H255 C220 0.949 . S
H256 C221 0.950 . S
H257 C225 0.951 . S
H258 C226 0.950 . S
H259 C230 0.949 . S
H260 C231 0.950 . S
H261 C235 0.950 . S
H262 C237 0.950 . S
H263 C240 0.950 . S
H264 C242 0.950 . S
C265 C266 1.443 . S
C265 N269 1.376 . S
C265 C303 1.389 . S
C266 C265 1.443 . S
C266 C267 1.340 . S
C266 H306 0.951 . S
C267 C266 1.340 . S
C267 C268 1.439 . S
C267 H307 0.950 . S
C268 C267 1.439 . S
C268 N269 1.374 . S
C268 C302 1.395 . S
N269 C265 1.376 . S
N269 C268 1.374 . S
N269 Co270 2.008 . S
Co270 N269 2.008 . S
Co270 N271 1.995 . S
Co270 N276 2.008 . S
Co270 N281 1.995 . S
Co270 N286 2.282 . S
Co270 N292 2.282 . S
N271 Co270 1.995 . S
N271 C272 1.376 . S
N271 C275 1.383 . S
C272 N271 1.376 . S
C272 C273 1.446 . S
C272 C302 1.391 . S
C273 C272 1.446 . S
C273 C274 1.339 . S
C273 H308 0.949 . S
C274 C273 1.339 . S
C274 C275 1.439 . S
C274 H309 0.950 . S
C275 N271 1.383 . S
C275 C274 1.439 . S
C275 C304 1.392 . S
N276 Co270 2.008 . S
N276 C277 1.376 . S
N276 C280 1.374 . S
C277 N276 1.376 . S
C277 C278 1.443 . S
C277 C304 1.389 . S
C278 C277 1.443 . S
C278 C279 1.340 . S
C278 H310 0.951 . S
C279 C278 1.340 . S
C279 C280 1.439 . S
C279 H311 0.950 . S
C280 N276 1.374 . S
C280 C279 1.439 . S
C280 C305 1.395 . S
N281 Co270 1.995 . S
N281 C282 1.376 . S
N281 C285 1.383 . S
C282 N281 1.376 . S
C282 C283 1.446 . S
C282 C305 1.391 . S
C283 C282 1.446 . S
C283 C284 1.339 . S
C283 H312 0.949 . S
C284 C283 1.339 . S
C284 C285 1.439 . S
C284 H313 0.950 . S
C285 N281 1.383 . S
C285 C284 1.439 . S
C285 C303 1.392 . S
N286 Co270 2.282 . S
N286 C289 1.332 . S
N286 C291 1.332 . S
C287 C288 1.386 . S
C287 C290 1.388 . S
C288 C287 1.386 . S
C288 C289 1.382 . S
C288 H314 0.950 . S
C289 N286 1.332 . S
C289 C288 1.382 . S
C289 H300 0.952 . S
C290 C287 1.388 . S
C290 C291 1.382 . S
C290 H315 0.950 . S
C291 N286 1.332 . S
C291 C290 1.382 . S
C291 H301 0.948 . S
N292 Co270 2.282 . S
N292 C296 1.332 . S
N292 C297 1.332 . S
C293 C294 1.388 . S
C293 C297 1.382 . S
C293 H316 0.950 . S
C294 C293 1.388 . S
C294 C295 1.386 . S
C295 C294 1.386 . S
C295 C296 1.382 . S
C295 H317 0.950 . S
C296 N292 1.332 . S
C296 C295 1.382 . S
C296 H298 0.952 . S
C297 N292 1.332 . S
C297 C293 1.382 . S
C297 H299 0.948 . S
H298 C296 0.952 . S
H299 C297 0.948 . S
H300 C289 0.952 . S
H301 C291 0.948 . S
C302 C268 1.395 . S
C302 C272 1.391 . S
C303 C265 1.389 . S
C303 C285 1.392 . S
C304 C275 1.392 . S
C304 C277 1.389 . S
C305 C280 1.395 . S
C305 C282 1.391 . S
H306 C266 0.951 . S
H307 C267 0.950 . S
H308 C273 0.949 . S
H309 C274 0.950 . S
H310 C278 0.951 . S
H311 C279 0.950 . S
H312 C283 0.949 . S
H313 C284 0.950 . S
H314 C288 0.950 . S
H315 C290 0.950 . S
H316 C293 0.950 . S
H317 C295 0.950 . S
C318 C319 1.443 . S
C318 N322 1.376 . S
C318 C356 1.389 . S
C319 C318 1.443 . S
C319 C320 1.340 . S
C319 H359 0.951 . S
C320 C319 1.340 . S
C320 C321 1.439 . S
C320 H360 0.950 . S
C321 C320 1.439 . S
C321 N322 1.374 . S
C321 C355 1.395 . S
N322 C318 1.376 . S
N322 C321 1.374 . S
N322 Co323 2.008 . S
Co323 N322 2.008 . S
Co323 N324 1.995 . S
Co323 N329 2.008 . S
Co323 N334 1.995 . S
Co323 N339 2.282 . S
Co323 N345 2.282 . S
N324 Co323 1.995 . S
N324 C325 1.376 . S
N324 C328 1.383 . S
C325 N324 1.376 . S
C325 C326 1.446 . S
C325 C355 1.391 . S
C326 C325 1.446 . S
C326 C327 1.339 . S
C326 H361 0.949 . S
C327 C326 1.339 . S
C327 C328 1.439 . S
C327 H362 0.950 . S
C328 N324 1.383 . S
C328 C327 1.439 . S
C328 C357 1.392 . S
N329 Co323 2.008 . S
N329 C330 1.376 . S
N329 C333 1.374 . S
C330 N329 1.376 . S
C330 C331 1.443 . S
C330 C357 1.389 . S
C331 C330 1.443 . S
C331 C332 1.340 . S
C331 H363 0.951 . S
C332 C331 1.340 . S
C332 C333 1.439 . S
C332 H364 0.950 . S
C333 N329 1.374 . S
C333 C332 1.439 . S
C333 C358 1.395 . S
N334 Co323 1.995 . S
N334 C335 1.376 . S
N334 C338 1.383 . S
C335 N334 1.376 . S
C335 C336 1.446 . S
C335 C358 1.391 . S
C336 C335 1.446 . S
C336 C337 1.339 . S
C336 H365 0.949 . S
C337 C336 1.339 . S
C337 C338 1.439 . S
C337 H366 0.950 . S
C338 N334 1.383 . S
C338 C337 1.439 . S
C338 C356 1.392 . S
N339 Co323 2.282 . S
N339 C342 1.332 . S
N339 C344 1.332 . S
C340 C341 1.386 . S
C340 C343 1.388 . S
C341 C340 1.386 . S
C341 C342 1.382 . S
C341 H367 0.950 . S
C342 N339 1.332 . S
C342 C341 1.382 . S
C342 H353 0.952 . S
C343 C340 1.388 . S
C343 C344 1.382 . S
C343 H368 0.950 . S
C344 N339 1.332 . S
C344 C343 1.382 . S
C344 H354 0.948 . S
N345 Co323 2.282 . S
N345 C349 1.332 . S
N345 C350 1.332 . S
C346 C347 1.388 . S
C346 C350 1.382 . S
C346 H369 0.950 . S
C347 C346 1.388 . S
C347 C348 1.386 . S
C348 C347 1.386 . S
C348 C349 1.382 . S
C348 H370 0.950 . S
C349 N345 1.332 . S
C349 C348 1.382 . S
C349 H351 0.952 . S
C350 N345 1.332 . S
C350 C346 1.382 . S
C350 H352 0.948 . S
H351 C349 0.952 . S
H352 C350 0.948 . S
H353 C342 0.952 . S
H354 C344 0.948 . S
C355 C321 1.395 . S
C355 C325 1.391 . S
C356 C318 1.389 . S
C356 C338 1.392 . S
C357 C328 1.392 . S
C357 C330 1.389 . S
C358 C333 1.395 . S
C358 C335 1.391 . S
H359 C319 0.951 . S
H360 C320 0.950 . S
H361 C326 0.949 . S
H362 C327 0.950 . S
H363 C331 0.951 . S
H364 C332 0.950 . S
H365 C336 0.949 . S
H366 C337 0.950 . S
H367 C341 0.950 . S
H368 C343 0.950 . S
H369 C346 0.950 . S
H370 C348 0.950 . S
C371 C372 1.443 . S
C371 N375 1.376 . S
C371 C409 1.389 . S
C372 C371 1.443 . S
C372 C373 1.340 . S
C372 H412 0.951 . S
C373 C372 1.340 . S
C373 C374 1.439 . S
C373 H413 0.950 . S
C374 C373 1.439 . S
C374 N375 1.374 . S
C374 C408 1.395 . S
N375 C371 1.376 . S
N375 C374 1.374 . S
N375 Co376 2.008 . S
Co376 N375 2.008 . S
Co376 N377 1.995 . S
Co376 N382 2.008 . S
Co376 N387 1.995 . S
Co376 N392 2.282 . S
Co376 N398 2.282 . S
N377 Co376 1.995 . S
N377 C378 1.376 . S
N377 C381 1.383 . S
C378 N377 1.376 . S
C378 C379 1.446 . S
C378 C408 1.391 . S
C379 C378 1.446 . S
C379 C380 1.339 . S
C379 H414 0.949 . S
C380 C379 1.339 . S
C380 C381 1.439 . S
C380 H415 0.950 . S
C381 N377 1.383 . S
C381 C380 1.439 . S
C381 C410 1.392 . S
N382 Co376 2.008 . S
N382 C383 1.376 . S
N382 C386 1.374 . S
C383 N382 1.376 . S
C383 C384 1.443 . S
C383 C410 1.389 . S
C384 C383 1.443 . S
C384 C385 1.340 . S
C384 H416 0.951 . S
C385 C384 1.340 . S
C385 C386 1.439 . S
C385 H417 0.950 . S
C386 N382 1.374 . S
C386 C385 1.439 . S
C386 C411 1.395 . S
N387 Co376 1.995 . S
N387 C388 1.376 . S
N387 C391 1.383 . S
C388 N387 1.376 . S
C388 C389 1.446 . S
C388 C411 1.391 . S
C389 C388 1.446 . S
C389 C390 1.339 . S
C389 H418 0.949 . S
C390 C389 1.339 . S
C390 C391 1.439 . S
C390 H419 0.950 . S
C391 N387 1.383 . S
C391 C390 1.439 . S
C391 C409 1.392 . S
N392 Co376 2.282 . S
N392 C395 1.332 . S
N392 C397 1.332 . S
C393 C394 1.386 . S
C393 C396 1.388 . S
C394 C393 1.386 . S
C394 C395 1.382 . S
C394 H420 0.950 . S
C395 N392 1.332 . S
C395 C394 1.382 . S
C395 H406 0.952 . S
C396 C393 1.388 . S
C396 C397 1.382 . S
C396 H421 0.950 . S
C397 N392 1.332 . S
C397 C396 1.382 . S
C397 H407 0.948 . S
N398 Co376 2.282 . S
N398 C402 1.332 . S
N398 C403 1.332 . S
C399 C400 1.388 . S
C399 C403 1.382 . S
C399 H422 0.950 . S
C400 C399 1.388 . S
C400 C401 1.386 . S
C401 C400 1.386 . S
C401 C402 1.382 . S
C401 H423 0.950 . S
C402 N398 1.332 . S
C402 C401 1.382 . S
C402 H404 0.952 . S
C403 N398 1.332 . S
C403 C399 1.382 . S
C403 H405 0.948 . S
H404 C402 0.952 . S
H405 C403 0.948 . S
H406 C395 0.952 . S
H407 C397 0.948 . S
C408 C374 1.395 . S
C408 C378 1.391 . S
C409 C371 1.389 . S
C409 C391 1.392 . S
C410 C381 1.392 . S
C410 C383 1.389 . S
C411 C386 1.395 . S
C411 C388 1.391 . S
H412 C372 0.951 . S
H413 C373 0.950 . S
H414 C379 0.949 . S
H415 C380 0.950 . S
H416 C384 0.951 . S
H417 C385 0.950 . S
H418 C389 0.949 . S
H419 C390 0.950 . S
H420 C394 0.950 . S
H421 C396 0.950 . S
H422 C399 0.950 . S
H423 C401 0.950 . S
C424 C425 1.443 . S
C424 N428 1.376 . S
C424 C462 1.389 . S
C425 C424 1.443 . S
C425 C426 1.340 . S
C425 H465 0.951 . S
C426 C425 1.340 . S
C426 C427 1.439 . S
C426 H466 0.950 . S
C427 C426 1.439 . S
C427 N428 1.374 . S
C427 C461 1.395 . S
N428 C424 1.376 . S
N428 C427 1.374 . S
N428 Co429 2.008 . S
Co429 N428 2.008 . S
Co429 N430 1.995 . S
Co429 N435 2.008 . S
Co429 N440 1.995 . S
Co429 N445 2.282 . S
Co429 N451 2.282 . S
N430 Co429 1.995 . S
N430 C431 1.376 . S
N430 C434 1.383 . S
C431 N430 1.376 . S
C431 C432 1.446 . S
C431 C461 1.391 . S
C432 C431 1.446 . S
C432 C433 1.339 . S
C432 H467 0.949 . S
C433 C432 1.339 . S
C433 C434 1.439 . S
C433 H468 0.950 . S
C434 N430 1.383 . S
C434 C433 1.439 . S
C434 C463 1.392 . S
N435 Co429 2.008 . S
N435 C436 1.376 . S
N435 C439 1.374 . S
C436 N435 1.376 . S
C436 C437 1.443 . S
C436 C463 1.389 . S
C437 C436 1.443 . S
C437 C438 1.340 . S
C437 H469 0.951 . S
C438 C437 1.340 . S
C438 C439 1.439 . S
C438 H470 0.950 . S
C439 N435 1.374 . S
C439 C438 1.439 . S
C439 C464 1.395 . S
N440 Co429 1.995 . S
N440 C441 1.376 . S
N440 C444 1.383 . S
C441 N440 1.376 . S
C441 C442 1.446 . S
C441 C464 1.391 . S
C442 C441 1.446 . S
C442 C443 1.339 . S
C442 H471 0.949 . S
C443 C442 1.339 . S
C443 C444 1.439 . S
C443 H472 0.950 . S
C444 N440 1.383 . S
C444 C443 1.439 . S
C444 C462 1.392 . S
N445 Co429 2.282 . S
N445 C448 1.332 . S
N445 C450 1.332 . S
C446 C447 1.386 . S
C446 C449 1.388 . S
C447 C446 1.386 . S
C447 C448 1.382 . S
C447 H473 0.950 . S
C448 N445 1.332 . S
C448 C447 1.382 . S
C448 H459 0.952 . S
C449 C446 1.388 . S
C449 C450 1.382 . S
C449 H474 0.950 . S
C450 N445 1.332 . S
C450 C449 1.382 . S
C450 H460 0.948 . S
N451 Co429 2.282 . S
N451 C455 1.332 . S
N451 C456 1.332 . S
C452 C453 1.388 . S
C452 C456 1.382 . S
C452 H475 0.950 . S
C453 C452 1.388 . S
C453 C454 1.386 . S
C454 C453 1.386 . S
C454 C455 1.382 . S
C454 H476 0.950 . S
C455 N451 1.332 . S
C455 C454 1.382 . S
C455 H457 0.952 . S
C456 N451 1.332 . S
C456 C452 1.382 . S
C456 H458 0.948 . S
H457 C455 0.952 . S
H458 C456 0.948 . S
H459 C448 0.952 . S
H460 C450 0.948 . S
C461 C427 1.395 . S
C461 C431 1.391 . S
C462 C424 1.389 . S
C462 C444 1.392 . S
C463 C434 1.392 . S
C463 C436 1.389 . S
C464 C439 1.395 . S
C464 C441 1.391 . S
H465 C425 0.951 . S
H466 C426 0.950 . S
H467 C432 0.949 . S
H468 C433 0.950 . S
H469 C437 0.951 . S
H470 C438 0.950 . S
H471 C442 0.949 . S
H472 C443 0.950 . S
H473 C447 0.950 . S
H474 C449 0.950 . S
H475 C452 0.950 . S
H476 C454 0.950 . S
C477 C478 1.443 . S
C477 N481 1.376 . S
C477 C515 1.389 . S
C478 C477 1.443 . S
C478 C479 1.340 . S
C478 H518 0.951 . S
C479 C478 1.340 . S
C479 C480 1.439 . S
C479 H519 0.950 . S
C480 C479 1.439 . S
C480 N481 1.374 . S
C480 C514 1.395 . S
N481 C477 1.376 . S
N481 C480 1.374 . S
N481 Co482 2.008 . S
Co482 N481 2.008 . S
Co482 N483 1.995 . S
Co482 N488 2.008 . S
Co482 N493 1.995 . S
Co482 N498 2.282 . S
Co482 N504 2.282 . S
N483 Co482 1.995 . S
N483 C484 1.376 . S
N483 C487 1.383 . S
C484 N483 1.376 . S
C484 C485 1.446 . S
C484 C514 1.391 . S
C485 C484 1.446 . S
C485 C486 1.339 . S
C485 H520 0.949 . S
C486 C485 1.339 . S
C486 C487 1.439 . S
C486 H521 0.950 . S
C487 N483 1.383 . S
C487 C486 1.439 . S
C487 C516 1.392 . S
N488 Co482 2.008 . S
N488 C489 1.376 . S
N488 C492 1.374 . S
C489 N488 1.376 . S
C489 C490 1.443 . S
C489 C516 1.389 . S
C490 C489 1.443 . S
C490 C491 1.340 . S
C490 H522 0.951 . S
C491 C490 1.340 . S
C491 C492 1.439 . S
C491 H523 0.950 . S
C492 N488 1.374 . S
C492 C491 1.439 . S
C492 C517 1.395 . S
N493 Co482 1.995 . S
N493 C494 1.376 . S
N493 C497 1.383 . S
C494 N493 1.376 . S
C494 C495 1.446 . S
C494 C517 1.391 . S
C495 C494 1.446 . S
C495 C496 1.339 . S
C495 H524 0.949 . S
C496 C495 1.339 . S
C496 C497 1.439 . S
C496 H525 0.950 . S
C497 N493 1.383 . S
C497 C496 1.439 . S
C497 C515 1.392 . S
N498 Co482 2.282 . S
N498 C501 1.332 . S
N498 C503 1.332 . S
C499 C500 1.386 . S
C499 C502 1.388 . S
C500 C499 1.386 . S
C500 C501 1.382 . S
C500 H526 0.950 . S
C501 N498 1.332 . S
C501 C500 1.382 . S
C501 H512 0.952 . S
C502 C499 1.388 . S
C502 C503 1.382 . S
C502 H527 0.950 . S
C503 N498 1.332 . S
C503 C502 1.382 . S
C503 H513 0.948 . S
N504 Co482 2.282 . S
N504 C508 1.332 . S
N504 C509 1.332 . S
C505 C506 1.388 . S
C505 C509 1.382 . S
C505 H528 0.950 . S
C506 C505 1.388 . S
C506 C507 1.386 . S
C507 C506 1.386 . S
C507 C508 1.382 . S
C507 H529 0.950 . S
C508 N504 1.332 . S
C508 C507 1.382 . S
C508 H510 0.952 . S
C509 N504 1.332 . S
C509 C505 1.382 . S
C509 H511 0.948 . S
H510 C508 0.952 . S
H511 C509 0.948 . S
H512 C501 0.952 . S
H513 C503 0.948 . S
C514 C480 1.395 . S
C514 C484 1.391 . S
C515 C477 1.389 . S
C515 C497 1.392 . S
C516 C487 1.392 . S
C516 C489 1.389 . S
C517 C492 1.395 . S
C517 C494 1.391 . S
H518 C478 0.951 . S
H519 C479 0.950 . S
H520 C485 0.949 . S
H521 C486 0.950 . S
H522 C490 0.951 . S
H523 C491 0.950 . S
H524 C495 0.949 . S
H525 C496 0.950 . S
H526 C500 0.950 . S
H527 C502 0.950 . S
H528 C505 0.950 . S
H529 C507 0.950 . S
C530 C531 1.443 . S
C530 N534 1.376 . S
C530 C568 1.389 . S
C531 C530 1.443 . S
C531 C532 1.340 . S
C531 H571 0.951 . S
C532 C531 1.340 . S
C532 C533 1.439 . S
C532 H572 0.950 . S
C533 C532 1.439 . S
C533 N534 1.374 . S
C533 C567 1.395 . S
N534 C530 1.376 . S
N534 C533 1.374 . S
N534 Co535 2.008 . S
Co535 N534 2.008 . S
Co535 N536 1.995 . S
Co535 N541 2.008 . S
Co535 N546 1.995 . S
Co535 N551 2.282 . S
Co535 N557 2.282 . S
N536 Co535 1.995 . S
N536 C537 1.376 . S
N536 C540 1.383 . S
C537 N536 1.376 . S
C537 C538 1.446 . S
C537 C567 1.391 . S
C538 C537 1.446 . S
C538 C539 1.339 . S
C538 H573 0.949 . S
C539 C538 1.339 . S
C539 C540 1.439 . S
C539 H574 0.950 . S
C540 N536 1.383 . S
C540 C539 1.439 . S
C540 C569 1.392 . S
N541 Co535 2.008 . S
N541 C542 1.376 . S
N541 C545 1.374 . S
C542 N541 1.376 . S
C542 C543 1.443 . S
C542 C569 1.389 . S
C543 C542 1.443 . S
C543 C544 1.340 . S
C543 H575 0.951 . S
C544 C543 1.340 . S
C544 C545 1.439 . S
C544 H576 0.950 . S
C545 N541 1.374 . S
C545 C544 1.439 . S
C545 C570 1.395 . S
N546 Co535 1.995 . S
N546 C547 1.376 . S
N546 C550 1.383 . S
C547 N546 1.376 . S
C547 C548 1.446 . S
C547 C570 1.391 . S
C548 C547 1.446 . S
C548 C549 1.339 . S
C548 H577 0.949 . S
C549 C548 1.339 . S
C549 C550 1.439 . S
C549 H578 0.950 . S
C550 N546 1.383 . S
C550 C549 1.439 . S
C550 C568 1.392 . S
N551 Co535 2.282 . S
N551 C554 1.332 . S
N551 C556 1.332 . S
C552 C553 1.386 . S
C552 C555 1.388 . S
C553 C552 1.386 . S
C553 C554 1.382 . S
C553 H579 0.950 . S
C554 N551 1.332 . S
C554 C553 1.382 . S
C554 H565 0.952 . S
C555 C552 1.388 . S
C555 C556 1.382 . S
C555 H580 0.950 . S
C556 N551 1.332 . S
C556 C555 1.382 . S
C556 H566 0.948 . S
N557 Co535 2.282 . S
N557 C561 1.332 . S
N557 C562 1.332 . S
C558 C559 1.388 . S
C558 C562 1.382 . S
C558 H581 0.950 . S
C559 C558 1.388 . S
C559 C560 1.386 . S
C560 C559 1.386 . S
C560 C561 1.382 . S
C560 H582 0.950 . S
C561 N557 1.332 . S
C561 C560 1.382 . S
C561 H563 0.952 . S
C562 N557 1.332 . S
C562 C558 1.382 . S
C562 H564 0.948 . S
H563 C561 0.952 . S
H564 C562 0.948 . S
H565 C554 0.952 . S
H566 C556 0.948 . S
C567 C533 1.395 . S
C567 C537 1.391 . S
C568 C530 1.389 . S
C568 C550 1.392 . S
C569 C540 1.392 . S
C569 C542 1.389 . S
C570 C545 1.395 . S
C570 C547 1.391 . S
H571 C531 0.951 . S
H572 C532 0.950 . S
H573 C538 0.949 . S
H574 C539 0.950 . S
H575 C543 0.951 . S
H576 C544 0.950 . S
H577 C548 0.949 . S
H578 C549 0.950 . S
H579 C553 0.950 . S
H580 C555 0.950 . S
H581 C558 0.950 . S
H582 C560 0.950 . S
C583 C584 1.443 . S
C583 N587 1.376 . S
C583 C621 1.389 . S
C584 C583 1.443 . S
C584 C585 1.340 . S
C584 H624 0.951 . S
C585 C584 1.340 . S
C585 C586 1.439 . S
C585 H625 0.950 . S
C586 C585 1.439 . S
C586 N587 1.374 . S
C586 C620 1.395 . S
N587 C583 1.376 . S
N587 C586 1.374 . S
N587 Co588 2.008 . S
Co588 N587 2.008 . S
Co588 N589 1.995 . S
Co588 N594 2.008 . S
Co588 N599 1.995 . S
Co588 N604 2.282 . S
Co588 N610 2.282 . S
N589 Co588 1.995 . S
N589 C590 1.376 . S
N589 C593 1.383 . S
C590 N589 1.376 . S
C590 C591 1.446 . S
C590 C620 1.391 . S
C591 C590 1.446 . S
C591 C592 1.339 . S
C591 H626 0.949 . S
C592 C591 1.339 . S
C592 C593 1.439 . S
C592 H627 0.950 . S
C593 N589 1.383 . S
C593 C592 1.439 . S
C593 C622 1.392 . S
N594 Co588 2.008 . S
N594 C595 1.376 . S
N594 C598 1.374 . S
C595 N594 1.376 . S
C595 C596 1.443 . S
C595 C622 1.389 . S
C596 C595 1.443 . S
C596 C597 1.340 . S
C596 H628 0.951 . S
C597 C596 1.340 . S
C597 C598 1.439 . S
C597 H629 0.950 . S
C598 N594 1.374 . S
C598 C597 1.439 . S
C598 C623 1.395 . S
N599 Co588 1.995 . S
N599 C600 1.376 . S
N599 C603 1.383 . S
C600 N599 1.376 . S
C600 C601 1.446 . S
C600 C623 1.391 . S
C601 C600 1.446 . S
C601 C602 1.339 . S
C601 H630 0.949 . S
C602 C601 1.339 . S
C602 C603 1.439 . S
C602 H631 0.950 . S
C603 N599 1.383 . S
C603 C602 1.439 . S
C603 C621 1.392 . S
N604 Co588 2.282 . S
N604 C607 1.332 . S
N604 C609 1.332 . S
C605 C606 1.386 . S
C605 C608 1.388 . S
C606 C605 1.386 . S
C606 C607 1.382 . S
C606 H632 0.950 . S
C607 N604 1.332 . S
C607 C606 1.382 . S
C607 H618 0.952 . S
C608 C605 1.388 . S
C608 C609 1.382 . S
C608 H633 0.950 . S
C609 N604 1.332 . S
C609 C608 1.382 . S
C609 H619 0.948 . S
N610 Co588 2.282 . S
N610 C614 1.332 . S
N610 C615 1.332 . S
C611 C612 1.388 . S
C611 C615 1.382 . S
C611 H634 0.950 . S
C612 C611 1.388 . S
C612 C613 1.386 . S
C613 C612 1.386 . S
C613 C614 1.382 . S
C613 H635 0.950 . S
C614 N610 1.332 . S
C614 C613 1.382 . S
C614 H616 0.952 . S
C615 N610 1.332 . S
C615 C611 1.382 . S
C615 H617 0.948 . S
H616 C614 0.952 . S
H617 C615 0.948 . S
H618 C607 0.952 . S
H619 C609 0.948 . S
C620 C586 1.395 . S
C620 C590 1.391 . S
C621 C583 1.389 . S
C621 C603 1.392 . S
C622 C593 1.392 . S
C622 C595 1.389 . S
C623 C598 1.395 . S
C623 C600 1.391 . S
H624 C584 0.951 . S
H625 C585 0.950 . S
H626 C591 0.949 . S
H627 C592 0.950 . S
H628 C596 0.951 . S
H629 C597 0.950 . S
H630 C601 0.949 . S
H631 C602 0.950 . S
H632 C606 0.950 . S
H633 C608 0.950 . S
H634 C611 0.950 . S
H635 C613 0.950 . S
H636 C654 0.951 . S
H637 C656 0.951 . S
H638 C658 0.950 . S
H639 C659 0.950 . S
H640 C661 0.950 . S
H641 C664 0.950 . S
H642 C665 0.950 . S
H643 C667 0.950 . S
H644 C668 0.950 . S
H645 C669 0.951 . S
H646 C671 0.951 . S
H647 C673 0.950 . S
H648 C674 0.950 . S
H649 C676 0.950 . S
H650 C679 0.950 . S
H651 C680 0.950 . S
H652 C682 0.950 . S
H653 C683 0.950 . S
C654 H636 0.951 . S
C654 C655 1.366 . S
C654 C656 1.388 . S
C655 C654 1.366 . S
C655 C659 1.385 . S
C656 H637 0.951 . S
C656 C654 1.388 . S
C656 C657 1.366 . S
C657 C656 1.366 . S
C657 C658 1.414 . S
C657 C660 1.499 . S
C658 H638 0.950 . S
C658 C657 1.414 . S
C658 C659 1.374 . S
C659 H639 0.950 . S
C659 C655 1.385 . S
C659 C658 1.374 . S
C660 C657 1.499 . S
C660 C661 1.373 . S
C660 C662 1.389 . S
C661 H640 0.950 . S
C661 C660 1.373 . S
C661 C677 1.377 . S
C662 C660 1.389 . S
C662 C663 1.524 . S
C662 C676 1.377 . S
C663 C662 1.524 . S
C663 C664 1.397 . S
C663 C668 1.363 . S
C664 H641 0.950 . S
C664 C663 1.397 . S
C664 C665 1.334 . S
C665 H642 0.950 . S
C665 C664 1.334 . S
C665 C666 1.287 . S
C666 C665 1.287 . S
C666 C667 1.524 . S
C666 H685 0.913 . S
C667 H643 0.950 . S
C667 C666 1.524 . S
C667 C668 1.415 . S
C668 H644 0.950 . S
C668 C663 1.363 . S
C668 C667 1.415 . S
C669 H645 0.951 . S
C669 C670 1.366 . S
C669 C671 1.388 . S
C670 C669 1.366 . S
C670 C674 1.385 . S
C671 H646 0.951 . S
C671 C669 1.388 . S
C671 C672 1.366 . S
C672 C671 1.366 . S
C672 C673 1.414 . S
C672 C675 1.499 . S
C673 H647 0.950 . S
C673 C672 1.414 . S
C673 C674 1.374 . S
C674 H648 0.950 . S
C674 C670 1.385 . S
C674 C673 1.374 . S
C675 C672 1.499 . S
C675 C676 1.373 . S
C675 C677 1.389 . S
C676 H649 0.950 . S
C676 C662 1.377 . S
C676 C675 1.373 . S
C677 C661 1.377 . S
C677 C675 1.389 . S
C677 C678 1.524 . S
C678 C677 1.524 . S
C678 C679 1.397 . S
C678 C683 1.363 . S
C679 H650 0.950 . S
C679 C678 1.397 . S
C679 C680 1.334 . S
C680 H651 0.950 . S
C680 C679 1.334 . S
C680 C681 1.287 . S
C681 C680 1.287 . S
C681 C682 1.524 . S
C681 H684 0.999 . S
C682 H652 0.950 . S
C682 C681 1.524 . S
C682 C683 1.415 . S
C683 H653 0.950 . S
C683 C678 1.363 . S
C683 C682 1.415 . S
H684 C681 0.999 . S
H685 C666 0.913 . S
H686 C704 0.951 . S
H687 C706 0.951 . S
H688 C708 0.950 . S
H689 C709 0.950 . S
H690 C711 0.950 . S
H691 C714 0.950 . S
H692 C715 0.950 . S
H693 C717 0.950 . S
H694 C718 0.950 . S
H695 C719 0.951 . S
H696 C721 0.951 . S
H697 C723 0.950 . S
H698 C724 0.950 . S
H699 C726 0.950 . S
H700 C729 0.950 . S
H701 C730 0.950 . S
H702 C732 0.950 . S
H703 C733 0.950 . S
C704 H686 0.951 . S
C704 C705 1.366 . S
C704 C706 1.388 . S
C705 C704 1.366 . S
C705 C709 1.385 . S
C706 H687 0.951 . S
C706 C704 1.388 . S
C706 C707 1.366 . S
C707 C706 1.366 . S
C707 C708 1.414 . S
C707 C710 1.499 . S
C708 H688 0.950 . S
C708 C707 1.414 . S
C708 C709 1.374 . S
C709 H689 0.950 . S
C709 C705 1.385 . S
C709 C708 1.374 . S
C710 C707 1.499 . S
C710 C711 1.373 . S
C710 C712 1.389 . S
C711 H690 0.950 . S
C711 C710 1.373 . S
C711 C727 1.377 . S
C712 C710 1.389 . S
C712 C713 1.524 . S
C712 C726 1.377 . S
C713 C712 1.524 . S
C713 C714 1.397 . S
C713 C718 1.363 . S
C714 H691 0.950 . S
C714 C713 1.397 . S
C714 C715 1.334 . S
C715 H692 0.950 . S
C715 C714 1.334 . S
C715 C716 1.287 . S
C716 C715 1.287 . S
C716 C717 1.524 . S
C716 H735 0.913 . S
C717 H693 0.950 . S
C717 C716 1.524 . S
C717 C718 1.415 . S
C718 H694 0.950 . S
C718 C713 1.363 . S
C718 C717 1.415 . S
C719 H695 0.951 . S
C719 C720 1.366 . S
C719 C721 1.388 . S
C720 C719 1.366 . S
C720 C724 1.385 . S
C721 H696 0.951 . S
C721 C719 1.388 . S
C721 C722 1.366 . S
C722 C721 1.366 . S
C722 C723 1.414 . S
C722 C725 1.499 . S
C723 H697 0.950 . S
C723 C722 1.414 . S
C723 C724 1.374 . S
C724 H698 0.950 . S
C724 C720 1.385 . S
C724 C723 1.374 . S
C725 C722 1.499 . S
C725 C726 1.373 . S
C725 C727 1.389 . S
C726 H699 0.950 . S
C726 C712 1.377 . S
C726 C725 1.373 . S
C727 C711 1.377 . S
C727 C725 1.389 . S
C727 C728 1.524 . S
C728 C727 1.524 . S
C728 C729 1.397 . S
C728 C733 1.363 . S
C729 H700 0.950 . S
C729 C728 1.397 . S
C729 C730 1.334 . S
C730 H701 0.950 . S
C730 C729 1.334 . S
C730 C731 1.287 . S
C731 C730 1.287 . S
C731 C732 1.524 . S
C731 H734 0.999 . S
C732 H702 0.950 . S
C732 C731 1.524 . S
C732 C733 1.415 . S
C733 H703 0.950 . S
C733 C728 1.363 . S
C733 C732 1.415 . S
H734 C731 0.999 . S
H735 C716 0.913 . S
H736 C754 0.951 . S
H737 C756 0.951 . S
H738 C758 0.950 . S
H739 C759 0.950 . S
H740 C761 0.950 . S
H741 C764 0.950 . S
H742 C765 0.950 . S
H743 C767 0.950 . S
H744 C768 0.950 . S
H745 C769 0.951 . S
H746 C771 0.951 . S
H747 C773 0.950 . S
H748 C774 0.950 . S
H749 C776 0.950 . S
H750 C779 0.950 . S
H751 C780 0.950 . S
H752 C782 0.950 . S
H753 C783 0.950 . S
C754 H736 0.951 . S
C754 C755 1.366 . S
C754 C756 1.388 . S
C755 C754 1.366 . S
C755 C759 1.385 . S
C756 H737 0.951 . S
C756 C754 1.388 . S
C756 C757 1.366 . S
C757 C756 1.366 . S
C757 C758 1.414 . S
C757 C760 1.499 . S
C758 H738 0.950 . S
C758 C757 1.414 . S
C758 C759 1.374 . S
C759 H739 0.950 . S
C759 C755 1.385 . S
C759 C758 1.374 . S
C760 C757 1.499 . S
C760 C761 1.373 . S
C760 C762 1.389 . S
C761 H740 0.950 . S
C761 C760 1.373 . S
C761 C777 1.377 . S
C762 C760 1.389 . S
C762 C763 1.524 . S
C762 C776 1.377 . S
C763 C762 1.524 . S
C763 C764 1.397 . S
C763 C768 1.363 . S
C764 H741 0.950 . S
C764 C763 1.397 . S
C764 C765 1.334 . S
C765 H742 0.950 . S
C765 C764 1.334 . S
C765 C766 1.287 . S
C766 C765 1.287 . S
C766 C767 1.524 . S
C766 H785 0.913 . S
C767 H743 0.950 . S
C767 C766 1.524 . S
C767 C768 1.415 . S
C768 H744 0.950 . S
C768 C763 1.363 . S
C768 C767 1.415 . S
C769 H745 0.951 . S
C769 C770 1.366 . S
C769 C771 1.388 . S
C770 C769 1.366 . S
C770 C774 1.385 . S
C771 H746 0.951 . S
C771 C769 1.388 . S
C771 C772 1.366 . S
C772 C771 1.366 . S
C772 C773 1.414 . S
C772 C775 1.499 . S
C773 H747 0.950 . S
C773 C772 1.414 . S
C773 C774 1.374 . S
C774 H748 0.950 . S
C774 C770 1.385 . S
C774 C773 1.374 . S
C775 C772 1.499 . S
C775 C776 1.373 . S
C775 C777 1.389 . S
C776 H749 0.950 . S
C776 C762 1.377 . S
C776 C775 1.373 . S
C777 C761 1.377 . S
C777 C775 1.389 . S
C777 C778 1.524 . S
C778 C777 1.524 . S
C778 C779 1.397 . S
C778 C783 1.363 . S
C779 H750 0.950 . S
C779 C778 1.397 . S
C779 C780 1.334 . S
C780 H751 0.950 . S
C780 C779 1.334 . S
C780 C781 1.287 . S
C781 C780 1.287 . S
C781 C782 1.524 . S
C781 H784 0.999 . S
C782 H752 0.950 . S
C782 C781 1.524 . S
C782 C783 1.415 . S
C783 H753 0.950 . S
C783 C778 1.363 . S
C783 C782 1.415 . S
H784 C781 0.999 . S
H785 C766 0.913 . S
H786 C804 0.951 . S
H787 C806 0.951 . S
H788 C808 0.950 . S
H789 C809 0.950 . S
H790 C811 0.950 . S
H791 C814 0.950 . S
H792 C815 0.950 . S
H793 C817 0.950 . S
H794 C818 0.950 . S
H795 C819 0.951 . S
H796 C821 0.951 . S
H797 C823 0.950 . S
H798 C824 0.950 . S
H799 C826 0.950 . S
H800 C829 0.950 . S
H801 C830 0.950 . S
H802 C832 0.950 . S
H803 C833 0.950 . S
C804 H786 0.951 . S
C804 C805 1.366 . S
C804 C806 1.388 . S
C805 C804 1.366 . S
C805 C809 1.385 . S
C806 H787 0.951 . S
C806 C804 1.388 . S
C806 C807 1.366 . S
C807 C806 1.366 . S
C807 C808 1.414 . S
C807 C810 1.499 . S
C808 H788 0.950 . S
C808 C807 1.414 . S
C808 C809 1.374 . S
C809 H789 0.950 . S
C809 C805 1.385 . S
C809 C808 1.374 . S
C810 C807 1.499 . S
C810 C811 1.373 . S
C810 C812 1.389 . S
C811 H790 0.950 . S
C811 C810 1.373 . S
C811 C827 1.377 . S
C812 C810 1.389 . S
C812 C813 1.524 . S
C812 C826 1.377 . S
C813 C812 1.524 . S
C813 C814 1.397 . S
C813 C818 1.363 . S
C814 H791 0.950 . S
C814 C813 1.397 . S
C814 C815 1.334 . S
C815 H792 0.950 . S
C815 C814 1.334 . S
C815 C816 1.287 . S
C816 C815 1.287 . S
C816 C817 1.524 . S
C816 H835 0.913 . S
C817 H793 0.950 . S
C817 C816 1.524 . S
C817 C818 1.415 . S
C818 H794 0.950 . S
C818 C813 1.363 . S
C818 C817 1.415 . S
C819 H795 0.951 . S
C819 C820 1.366 . S
C819 C821 1.388 . S
C820 C819 1.366 . S
C820 C824 1.385 . S
C821 H796 0.951 . S
C821 C819 1.388 . S
C821 C822 1.366 . S
C822 C821 1.366 . S
C822 C823 1.414 . S
C822 C825 1.499 . S
C823 H797 0.950 . S
C823 C822 1.414 . S
C823 C824 1.374 . S
C824 H798 0.950 . S
C824 C820 1.385 . S
C824 C823 1.374 . S
C825 C822 1.499 . S
C825 C826 1.373 . S
C825 C827 1.389 . S
C826 H799 0.950 . S
C826 C812 1.377 . S
C826 C825 1.373 . S
C827 C811 1.377 . S
C827 C825 1.389 . S
C827 C828 1.524 . S
C828 C827 1.524 . S
C828 C829 1.397 . S
C828 C833 1.363 . S
C829 H800 0.950 . S
C829 C828 1.397 . S
C829 C830 1.334 . S
C830 H801 0.950 . S
C830 C829 1.334 . S
C830 C831 1.287 . S
C831 C830 1.287 . S
C831 C832 1.524 . S
C831 H834 0.999 . S
C832 H802 0.950 . S
C832 C831 1.524 . S
C832 C833 1.415 . S
C833 H803 0.950 . S
C833 C828 1.363 . S
C833 C832 1.415 . S
H834 C831 0.999 . S
H835 C816 0.913 . S
H836 C854 0.951 . S
H837 C856 0.951 . S
H838 C858 0.950 . S
H839 C859 0.950 . S
H840 C861 0.950 . S
H841 C864 0.950 . S
H842 C865 0.950 . S
H843 C867 0.950 . S
H844 C868 0.950 . S
H845 C869 0.951 . S
H846 C871 0.951 . S
H847 C873 0.950 . S
H848 C874 0.950 . S
H849 C876 0.950 . S
H850 C879 0.950 . S
H851 C880 0.950 . S
H852 C882 0.950 . S
H853 C883 0.950 . S
C854 H836 0.951 . S
C854 C855 1.366 . S
C854 C856 1.388 . S
C855 C854 1.366 . S
C855 C859 1.385 . S
C856 H837 0.951 . S
C856 C854 1.388 . S
C856 C857 1.366 . S
C857 C856 1.366 . S
C857 C858 1.414 . S
C857 C860 1.499 . S
C858 H838 0.950 . S
C858 C857 1.414 . S
C858 C859 1.374 . S
C859 H839 0.950 . S
C859 C855 1.385 . S
C859 C858 1.374 . S
C860 C857 1.499 . S
C860 C861 1.373 . S
C860 C862 1.389 . S
C861 H840 0.950 . S
C861 C860 1.373 . S
C861 C877 1.377 . S
C862 C860 1.389 . S
C862 C863 1.524 . S
C862 C876 1.377 . S
C863 C862 1.524 . S
C863 C864 1.397 . S
C863 C868 1.363 . S
C864 H841 0.950 . S
C864 C863 1.397 . S
C864 C865 1.334 . S
C865 H842 0.950 . S
C865 C864 1.334 . S
C865 C866 1.287 . S
C866 C865 1.287 . S
C866 C867 1.524 . S
C866 H885 0.913 . S
C867 H843 0.950 . S
C867 C866 1.524 . S
C867 C868 1.415 . S
C868 H844 0.950 . S
C868 C863 1.363 . S
C868 C867 1.415 . S
C869 H845 0.951 . S
C869 C870 1.366 . S
C869 C871 1.388 . S
C870 C869 1.366 . S
C870 C874 1.385 . S
C871 H846 0.951 . S
C871 C869 1.388 . S
C871 C872 1.366 . S
C872 C871 1.366 . S
C872 C873 1.414 . S
C872 C875 1.499 . S
C873 H847 0.950 . S
C873 C872 1.414 . S
C873 C874 1.374 . S
C874 H848 0.950 . S
C874 C870 1.385 . S
C874 C873 1.374 . S
C875 C872 1.499 . S
C875 C876 1.373 . S
C875 C877 1.389 . S
C876 H849 0.950 . S
C876 C862 1.377 . S
C876 C875 1.373 . S
C877 C861 1.377 . S
C877 C875 1.389 . S
C877 C878 1.524 . S
C878 C877 1.524 . S
C878 C879 1.397 . S
C878 C883 1.363 . S
C879 H850 0.950 . S
C879 C878 1.397 . S
C879 C880 1.334 . S
C880 H851 0.950 . S
C880 C879 1.334 . S
C880 C881 1.287 . S
C881 C880 1.287 . S
C881 C882 1.524 . S
C881 H884 0.999 . S
C882 H852 0.950 . S
C882 C881 1.524 . S
C882 C883 1.415 . S
C883 H853 0.950 . S
C883 C878 1.363 . S
C883 C882 1.415 . S
H884 C881 0.999 . S
H885 C866 0.913 . S
H886 C904 0.951 . S
H887 C906 0.951 . S
H888 C908 0.950 . S
H889 C909 0.950 . S
H890 C911 0.950 . S
H891 C914 0.950 . S
H892 C915 0.950 . S
H893 C917 0.950 . S
H894 C918 0.950 . S
H895 C919 0.951 . S
H896 C921 0.951 . S
H897 C923 0.950 . S
H898 C924 0.950 . S
H899 C926 0.950 . S
H900 C929 0.950 . S
H901 C930 0.950 . S
H902 C932 0.950 . S
H903 C933 0.950 . S
C904 H886 0.951 . S
C904 C905 1.366 . S
C904 C906 1.388 . S
C905 C904 1.366 . S
C905 C909 1.385 . S
C906 H887 0.951 . S
C906 C904 1.388 . S
C906 C907 1.366 . S
C907 C906 1.366 . S
C907 C908 1.414 . S
C907 C910 1.499 . S
C908 H888 0.950 . S
C908 C907 1.414 . S
C908 C909 1.374 . S
C909 H889 0.950 . S
C909 C905 1.385 . S
C909 C908 1.374 . S
C910 C907 1.499 . S
C910 C911 1.373 . S
C910 C912 1.389 . S
C911 H890 0.950 . S
C911 C910 1.373 . S
C911 C927 1.377 . S
C912 C910 1.389 . S
C912 C913 1.524 . S
C912 C926 1.377 . S
C913 C912 1.524 . S
C913 C914 1.397 . S
C913 C918 1.363 . S
C914 H891 0.950 . S
C914 C913 1.397 . S
C914 C915 1.334 . S
C915 H892 0.950 . S
C915 C914 1.334 . S
C915 C916 1.287 . S
C916 C915 1.287 . S
C916 C917 1.524 . S
C916 H935 0.913 . S
C917 H893 0.950 . S
C917 C916 1.524 . S
C917 C918 1.415 . S
C918 H894 0.950 . S
C918 C913 1.363 . S
C918 C917 1.415 . S
C919 H895 0.951 . S
C919 C920 1.366 . S
C919 C921 1.388 . S
C920 C919 1.366 . S
C920 C924 1.385 . S
C921 H896 0.951 . S
C921 C919 1.388 . S
C921 C922 1.366 . S
C922 C921 1.366 . S
C922 C923 1.414 . S
C922 C925 1.499 . S
C923 H897 0.950 . S
C923 C922 1.414 . S
C923 C924 1.374 . S
C924 H898 0.950 . S
C924 C920 1.385 . S
C924 C923 1.374 . S
C925 C922 1.499 . S
C925 C926 1.373 . S
C925 C927 1.389 . S
C926 H899 0.950 . S
C926 C912 1.377 . S
C926 C925 1.373 . S
C927 C911 1.377 . S
C927 C925 1.389 . S
C927 C928 1.524 . S
C928 C927 1.524 . S
C928 C929 1.397 . S
C928 C933 1.363 . S
C929 H900 0.950 . S
C929 C928 1.397 . S
C929 C930 1.334 . S
C930 H901 0.950 . S
C930 C929 1.334 . S
C930 C931 1.287 . S
C931 C930 1.287 . S
C931 C932 1.524 . S
C931 H934 0.999 . S
C932 H902 0.950 . S
C932 C931 1.524 . S
C932 C933 1.415 . S
C933 H903 0.950 . S
C933 C928 1.363 . S
C933 C932 1.415 . S
H934 C931 0.999 . S
H935 C916 0.913 . S
H936 C954 0.951 . S
H937 C956 0.951 . S
H938 C958 0.950 . S
H939 C959 0.950 . S
H940 C961 0.950 . S
H941 C964 0.950 . S
H942 C965 0.950 . S
H943 C967 0.950 . S
H944 C968 0.950 . S
H945 C969 0.951 . S
H946 C971 0.951 . S
H947 C973 0.950 . S
H948 C974 0.950 . S
H949 C976 0.950 . S
H950 C979 0.950 . S
H951 C980 0.950 . S
H952 C982 0.950 . S
H953 C983 0.950 . S
C954 H936 0.951 . S
C954 C955 1.366 . S
C954 C956 1.388 . S
C955 C954 1.366 . S
C955 C959 1.385 . S
C956 H937 0.951 . S
C956 C954 1.388 . S
C956 C957 1.366 . S
C957 C956 1.366 . S
C957 C958 1.414 . S
C957 C960 1.499 . S
C958 H938 0.950 . S
C958 C957 1.414 . S
C958 C959 1.374 . S
C959 H939 0.950 . S
C959 C955 1.385 . S
C959 C958 1.374 . S
C960 C957 1.499 . S
C960 C961 1.373 . S
C960 C962 1.389 . S
C961 H940 0.950 . S
C961 C960 1.373 . S
C961 C977 1.377 . S
C962 C960 1.389 . S
C962 C963 1.524 . S
C962 C976 1.377 . S
C963 C962 1.524 . S
C963 C964 1.397 . S
C963 C968 1.363 . S
C964 H941 0.950 . S
C964 C963 1.397 . S
C964 C965 1.334 . S
C965 H942 0.950 . S
C965 C964 1.334 . S
C965 C966 1.287 . S
C966 C965 1.287 . S
C966 C967 1.524 . S
C966 H985 0.913 . S
C967 H943 0.950 . S
C967 C966 1.524 . S
C967 C968 1.415 . S
C968 H944 0.950 . S
C968 C963 1.363 . S
C968 C967 1.415 . S
C969 H945 0.951 . S
C969 C970 1.366 . S
C969 C971 1.388 . S
C970 C969 1.366 . S
C970 C974 1.385 . S
C971 H946 0.951 . S
C971 C969 1.388 . S
C971 C972 1.366 . S
C972 C971 1.366 . S
C972 C973 1.414 . S
C972 C975 1.499 . S
C973 H947 0.950 . S
C973 C972 1.414 . S
C973 C974 1.374 . S
C974 H948 0.950 . S
C974 C970 1.385 . S
C974 C973 1.374 . S
C975 C972 1.499 . S
C975 C976 1.373 . S
C975 C977 1.389 . S
C976 H949 0.950 . S
C976 C962 1.377 . S
C976 C975 1.373 . S
C977 C961 1.377 . S
C977 C975 1.389 . S
C977 C978 1.524 . S
C978 C977 1.524 . S
C978 C979 1.397 . S
C978 C983 1.363 . S
C979 H950 0.950 . S
C979 C978 1.397 . S
C979 C980 1.334 . S
C980 H951 0.950 . S
C980 C979 1.334 . S
C980 C981 1.287 . S
C981 C980 1.287 . S
C981 C982 1.524 . S
C981 H984 0.999 . S
C982 H952 0.950 . S
C982 C981 1.524 . S
C982 C983 1.415 . S
C983 H953 0.950 . S
C983 C978 1.363 . S
C983 C982 1.415 . S
H984 C981 0.999 . S
H985 C966 0.913 . S
H986 C1004 0.951 . S
H987 C1006 0.951 . S
H988 C1008 0.950 . S
H989 C1009 0.950 . S
H990 C1011 0.950 . S
H991 C1014 0.950 . S
H992 C1015 0.950 . S
H993 C1017 0.950 . S
H994 C1018 0.950 . S
H995 C1019 0.951 . S
H996 C1021 0.951 . S
H997 C1023 0.950 . S
H998 C1024 0.950 . S
H999 C1026 0.950 . S
H1000 C1029 0.950 . S
H1001 C1030 0.950 . S
H1002 C1032 0.950 . S
H1003 C1033 0.950 . S
C1004 H986 0.951 . S
C1004 C1005 1.366 . S
C1004 C1006 1.388 . S
C1005 C1004 1.366 . S
C1005 C1009 1.385 . S
C1006 H987 0.951 . S
C1006 C1004 1.388 . S
C1006 C1007 1.366 . S
C1007 C1006 1.366 . S
C1007 C1008 1.414 . S
C1007 C1010 1.499 . S
C1008 H988 0.950 . S
C1008 C1007 1.414 . S
C1008 C1009 1.374 . S
C1009 H989 0.950 . S
C1009 C1005 1.385 . S
C1009 C1008 1.374 . S
C1010 C1007 1.499 . S
C1010 C1011 1.373 . S
C1010 C1012 1.389 1_455 S
C1011 H990 0.950 . S
C1011 C1010 1.373 . S
C1011 C1027 1.377 . S
C1012 C1010 1.389 1_655 S
C1012 C1013 1.524 . S
C1012 C1026 1.377 . S
C1013 C1012 1.524 . S
C1013 C1014 1.397 . S
C1013 C1018 1.363 . S
C1014 H991 0.950 . S
C1014 C1013 1.397 . S
C1014 C1015 1.334 . S
C1015 H992 0.950 . S
C1015 C1014 1.334 . S
C1015 C1016 1.287 . S
C1016 C1015 1.287 . S
C1016 C1017 1.524 . S
C1016 H1035 0.913 . S
C1017 H993 0.950 . S
C1017 C1016 1.524 . S
C1017 C1018 1.415 . S
C1018 H994 0.950 . S
C1018 C1013 1.363 . S
C1018 C1017 1.415 . S
C1019 H995 0.951 . S
C1019 C1020 1.366 . S
C1019 C1021 1.388 . S
C1020 C1019 1.366 . S
C1020 C1024 1.385 . S
C1021 H996 0.951 . S
C1021 C1019 1.388 . S
C1021 C1022 1.366 . S
C1022 C1021 1.366 . S
C1022 C1023 1.414 . S
C1022 C1025 1.499 . S
C1023 H997 0.950 . S
C1023 C1022 1.414 . S
C1023 C1024 1.374 . S
C1024 H998 0.950 . S
C1024 C1020 1.385 . S
C1024 C1023 1.374 . S
C1025 C1022 1.499 . S
C1025 C1026 1.373 . S
C1025 C1027 1.389 1_655 S
C1026 H999 0.950 . S
C1026 C1012 1.377 . S
C1026 C1025 1.373 . S
C1027 C1011 1.377 . S
C1027 C1025 1.389 1_455 S
C1027 C1028 1.524 . S
C1028 C1027 1.524 . S
C1028 C1029 1.397 . S
C1028 C1033 1.363 . S
C1029 H1000 0.950 . S
C1029 C1028 1.397 . S
C1029 C1030 1.334 . S
C1030 H1001 0.950 . S
C1030 C1029 1.334 . S
C1030 C1031 1.287 . S
C1031 C1030 1.287 . S
C1031 C1032 1.524 . S
C1031 H1034 0.999 . S
C1032 H1002 0.950 . S
C1032 C1031 1.524 . S
C1032 C1033 1.415 . S
C1033 H1003 0.950 . S
C1033 C1028 1.363 . S
C1033 C1032 1.415 . S
H1034 C1031 0.999 . S
H1035 C1016 0.913 . S
H1036 C1054 0.951 . S
H1037 C1056 0.951 . S
H1038 C1058 0.950 . S
H1039 C1059 0.950 . S
H1040 C1061 0.950 . S
H1041 C1064 0.950 . S
H1042 C1065 0.950 . S
H1043 C1067 0.950 . S
H1044 C1068 0.950 . S
H1045 C1069 0.951 . S
H1046 C1071 0.951 . S
H1047 C1073 0.950 . S
H1048 C1074 0.950 . S
H1049 C1076 0.950 . S
H1050 C1079 0.950 . S
H1051 C1080 0.950 . S
H1052 C1082 0.950 . S
H1053 C1083 0.950 . S
C1054 H1036 0.951 . S
C1054 C1055 1.366 . S
C1054 C1056 1.388 . S
C1055 C1054 1.366 . S
C1055 C1059 1.385 . S
C1056 H1037 0.951 . S
C1056 C1054 1.388 . S
C1056 C1057 1.366 . S
C1057 C1056 1.366 . S
C1057 C1058 1.414 . S
C1057 C1060 1.499 . S
C1058 H1038 0.950 . S
C1058 C1057 1.414 . S
C1058 C1059 1.374 . S
C1059 H1039 0.950 . S
C1059 C1055 1.385 . S
C1059 C1058 1.374 . S
C1060 C1057 1.499 . S
C1060 C1061 1.373 . S
C1060 C1062 1.389 . S
C1061 H1040 0.950 . S
C1061 C1060 1.373 . S
C1061 C1077 1.377 1_545 S
C1062 C1060 1.389 . S
C1062 C1063 1.524 . S
C1062 C1076 1.377 1_545 S
C1063 C1062 1.524 . S
C1063 C1064 1.397 . S
C1063 C1068 1.363 . S
C1064 H1041 0.950 . S
C1064 C1063 1.397 . S
C1064 C1065 1.334 . S
C1065 H1042 0.950 . S
C1065 C1064 1.334 . S
C1065 C1066 1.287 . S
C1066 C1065 1.287 . S
C1066 C1067 1.524 . S
C1066 H1085 0.913 . S
C1067 H1043 0.950 . S
C1067 C1066 1.524 . S
C1067 C1068 1.415 . S
C1068 H1044 0.950 . S
C1068 C1063 1.363 . S
C1068 C1067 1.415 . S
C1069 H1045 0.951 . S
C1069 C1070 1.366 . S
C1069 C1071 1.388 . S
C1070 C1069 1.366 . S
C1070 C1074 1.385 . S
C1071 H1046 0.951 . S
C1071 C1069 1.388 . S
C1071 C1072 1.366 . S
C1072 C1071 1.366 . S
C1072 C1073 1.414 . S
C1072 C1075 1.499 . S
C1073 H1047 0.950 . S
C1073 C1072 1.414 . S
C1073 C1074 1.374 . S
C1074 H1048 0.950 . S
C1074 C1070 1.385 . S
C1074 C1073 1.374 . S
C1075 C1072 1.499 . S
C1075 C1076 1.373 . S
C1075 C1077 1.389 . S
C1076 H1049 0.950 . S
C1076 C1062 1.377 1_565 S
C1076 C1075 1.373 . S
C1077 C1061 1.377 1_565 S
C1077 C1075 1.389 . S
C1077 C1078 1.524 . S
C1078 C1077 1.524 . S
C1078 C1079 1.397 . S
C1078 C1083 1.363 . S
C1079 H1050 0.950 . S
C1079 C1078 1.397 . S
C1079 C1080 1.334 . S
C1080 H1051 0.950 . S
C1080 C1079 1.334 . S
C1080 C1081 1.287 . S
C1081 C1080 1.287 . S
C1081 C1082 1.524 . S
C1081 H1084 0.999 . S
C1082 H1052 0.950 . S
C1082 C1081 1.524 . S
C1082 C1083 1.415 . S
C1083 H1053 0.950 . S
C1083 C1078 1.363 . S
C1083 C1082 1.415 . S
H1084 C1081 0.999 . S
H1085 C1066 0.913 . S
H1086 C1104 0.951 . S
H1087 C1106 0.951 . S
H1088 C1108 0.950 . S
H1089 C1109 0.950 . S
H1090 C1111 0.950 . S
H1091 C1114 0.950 . S
H1092 C1115 0.950 . S
H1093 C1117 0.950 . S
H1094 C1118 0.950 . S
H1095 C1119 0.951 . S
H1096 C1121 0.951 . S
H1097 C1123 0.950 . S
H1098 C1124 0.950 . S
H1099 C1126 0.950 . S
H1100 C1129 0.950 . S
H1101 C1130 0.950 . S
H1102 C1132 0.950 . S
H1103 C1133 0.950 . S
C1104 H1086 0.951 . S
C1104 C1105 1.366 . S
C1104 C1106 1.388 . S
C1105 C1104 1.366 . S
C1105 C1109 1.385 . S
C1106 H1087 0.951 . S
C1106 C1104 1.388 . S
C1106 C1107 1.366 . S
C1107 C1106 1.366 . S
C1107 C1108 1.414 . S
C1107 C1110 1.499 . S
C1108 H1088 0.950 . S
C1108 C1107 1.414 . S
C1108 C1109 1.374 . S
C1109 H1089 0.950 . S
C1109 C1105 1.385 . S
C1109 C1108 1.374 . S
C1110 C1107 1.499 . S
C1110 C1111 1.373 . S
C1110 C1112 1.389 . S
C1111 H1090 0.950 . S
C1111 C1110 1.373 . S
C1111 C1127 1.377 . S
C1112 C1110 1.389 . S
C1112 C1113 1.524 . S
C1112 C1126 1.377 . S
C1113 C1112 1.524 . S
C1113 C1114 1.397 . S
C1113 C1118 1.363 . S
C1114 H1091 0.950 . S
C1114 C1113 1.397 . S
C1114 C1115 1.334 . S
C1115 H1092 0.950 . S
C1115 C1114 1.334 . S
C1115 C1116 1.287 . S
C1116 C1115 1.287 . S
C1116 C1117 1.524 . S
C1116 H1135 0.913 . S
C1117 H1093 0.950 . S
C1117 C1116 1.524 . S
C1117 C1118 1.415 . S
C1118 H1094 0.950 . S
C1118 C1113 1.363 . S
C1118 C1117 1.415 . S
C1119 H1095 0.951 . S
C1119 C1120 1.366 . S
C1119 C1121 1.388 . S
C1120 C1119 1.366 . S
C1120 C1124 1.385 . S
C1121 H1096 0.951 . S
C1121 C1119 1.388 . S
C1121 C1122 1.366 . S
C1122 C1121 1.366 . S
C1122 C1123 1.414 . S
C1122 C1125 1.499 . S
C1123 H1097 0.950 . S
C1123 C1122 1.414 . S
C1123 C1124 1.374 . S
C1124 H1098 0.950 . S
C1124 C1120 1.385 . S
C1124 C1123 1.374 . S
C1125 C1122 1.499 . S
C1125 C1126 1.373 . S
C1125 C1127 1.389 . S
C1126 H1099 0.950 . S
C1126 C1112 1.377 . S
C1126 C1125 1.373 . S
C1127 C1111 1.377 . S
C1127 C1125 1.389 . S
C1127 C1128 1.524 . S
C1128 C1127 1.524 . S
C1128 C1129 1.397 . S
C1128 C1133 1.363 . S
C1129 H1100 0.950 . S
C1129 C1128 1.397 . S
C1129 C1130 1.334 . S
C1130 H1101 0.950 . S
C1130 C1129 1.334 . S
C1130 C1131 1.287 . S
C1131 C1130 1.287 . S
C1131 C1132 1.524 . S
C1131 H1134 0.999 . S
C1132 H1102 0.950 . S
C1132 C1131 1.524 . S
C1132 C1133 1.415 . S
C1133 H1103 0.950 . S
C1133 C1128 1.363 . S
C1133 C1132 1.415 . S
H1134 C1131 0.999 . S
H1135 C1116 0.913 . S
H1136 C1154 0.951 . S
H1137 C1156 0.951 . S
H1138 C1158 0.950 . S
H1139 C1159 0.950 . S
H1140 C1161 0.950 . S
H1141 C1164 0.950 . S
H1142 C1165 0.950 . S
H1143 C1167 0.950 . S
H1144 C1168 0.950 . S
H1145 C1169 0.951 . S
H1146 C1171 0.951 . S
H1147 C1173 0.950 . S
H1148 C1174 0.950 . S
H1149 C1176 0.950 . S
H1150 C1179 0.950 . S
H1151 C1180 0.950 . S
H1152 C1182 0.950 . S
H1153 C1183 0.950 . S
C1154 H1136 0.951 . S
C1154 C1155 1.366 . S
C1154 C1156 1.388 . S
C1155 C1154 1.366 . S
C1155 C1159 1.385 . S
C1156 H1137 0.951 . S
C1156 C1154 1.388 . S
C1156 C1157 1.366 . S
C1157 C1156 1.366 . S
C1157 C1158 1.414 . S
C1157 C1160 1.499 . S
C1158 H1138 0.950 . S
C1158 C1157 1.414 . S
C1158 C1159 1.374 . S
C1159 H1139 0.950 . S
C1159 C1155 1.385 . S
C1159 C1158 1.374 . S
C1160 C1157 1.499 . S
C1160 C1161 1.373 . S
C1160 C1162 1.389 1_655 S
C1161 H1140 0.950 . S
C1161 C1160 1.373 . S
C1161 C1177 1.377 . S
C1162 C1160 1.389 1_455 S
C1162 C1163 1.524 . S
C1162 C1176 1.377 . S
C1163 C1162 1.524 . S
C1163 C1164 1.397 1_455 S
C1163 C1168 1.363 . S
C1164 H1141 0.950 . S
C1164 C1163 1.397 1_655 S
C1164 C1165 1.334 . S
C1165 H1142 0.950 . S
C1165 C1164 1.334 . S
C1165 C1166 1.287 1_655 S
C1166 C1165 1.287 1_455 S
C1166 C1167 1.524 . S
C1166 H1185 0.913 . S
C1167 H1143 0.950 . S
C1167 C1166 1.524 . S
C1167 C1168 1.415 . S
C1168 H1144 0.950 . S
C1168 C1163 1.363 . S
C1168 C1167 1.415 . S
C1169 H1145 0.951 . S
C1169 C1170 1.366 . S
C1169 C1171 1.388 . S
C1170 C1169 1.366 . S
C1170 C1174 1.385 . S
C1171 H1146 0.951 . S
C1171 C1169 1.388 . S
C1171 C1172 1.366 . S
C1172 C1171 1.366 . S
C1172 C1173 1.414 . S
C1172 C1175 1.499 . S
C1173 H1147 0.950 . S
C1173 C1172 1.414 . S
C1173 C1174 1.374 . S
C1174 H1148 0.950 . S
C1174 C1170 1.385 . S
C1174 C1173 1.374 . S
C1175 C1172 1.499 . S
C1175 C1176 1.373 . S
C1175 C1177 1.389 1_455 S
C1176 H1149 0.950 . S
C1176 C1162 1.377 . S
C1176 C1175 1.373 . S
C1177 C1161 1.377 . S
C1177 C1175 1.389 1_655 S
C1177 C1178 1.524 . S
C1178 C1177 1.524 . S
C1178 C1179 1.397 1_655 S
C1178 C1183 1.363 . S
C1179 H1150 0.950 . S
C1179 C1178 1.397 1_455 S
C1179 C1180 1.334 . S
C1180 H1151 0.950 . S
C1180 C1179 1.334 . S
C1180 C1181 1.287 1_455 S
C1181 C1180 1.287 1_655 S
C1181 C1182 1.524 . S
C1181 H1184 0.999 . S
C1182 H1152 0.950 . S
C1182 C1181 1.524 . S
C1182 C1183 1.415 . S
C1183 H1153 0.950 . S
C1183 C1178 1.363 . S
C1183 C1182 1.415 . S
H1184 C1181 0.999 . S
H1185 C1166 0.913 . S
H1186 C1204 0.951 . S
H1187 C1206 0.951 . S
H1188 C1208 0.950 . S
H1189 C1209 0.950 . S
H1190 C1211 0.950 . S
H1191 C1214 0.950 . S
H1192 C1215 0.950 . S
H1193 C1217 0.950 . S
H1194 C1218 0.950 1_545 S
H1195 C1219 0.951 . S
H1196 C1221 0.951 . S
H1197 C1223 0.950 . S
H1198 C1224 0.950 . S
H1199 C1226 0.950 . S
H1200 C1229 0.950 . S
H1201 C1230 0.950 . S
H1202 C1232 0.950 . S
H1203 C1233 0.950 1_565 S
C1204 H1186 0.951 . S
C1204 C1205 1.366 . S
C1204 C1206 1.388 . S
C1205 C1204 1.366 . S
C1205 C1209 1.385 . S
C1206 H1187 0.951 . S
C1206 C1204 1.388 . S
C1206 C1207 1.366 . S
C1207 C1206 1.366 . S
C1207 C1208 1.414 . S
C1207 C1210 1.499 . S
C1208 H1188 0.950 . S
C1208 C1207 1.414 . S
C1208 C1209 1.374 . S
C1209 H1189 0.950 . S
C1209 C1205 1.385 . S
C1209 C1208 1.374 . S
C1210 C1207 1.499 . S
C1210 C1211 1.373 . S
C1210 C1212 1.389 . S
C1211 H1190 0.950 . S
C1211 C1210 1.373 . S
C1211 C1227 1.377 1_565 S
C1212 C1210 1.389 . S
C1212 C1213 1.524 . S
C1212 C1226 1.377 1_565 S
C1213 C1212 1.524 . S
C1213 C1214 1.397 . S
C1213 C1218 1.363 . S
C1214 H1191 0.950 . S
C1214 C1213 1.397 . S
C1214 C1215 1.334 . S
C1215 H1192 0.950 . S
C1215 C1214 1.334 . S
C1215 C1216 1.287 . S
C1216 C1215 1.287 . S
C1216 C1217 1.524 . S
C1216 H1235 0.913 . S
C1217 H1193 0.950 . S
C1217 C1216 1.524 . S
C1217 C1218 1.415 . S
C1218 H1194 0.950 1_565 S
C1218 C1213 1.363 . S
C1218 C1217 1.415 . S
C1219 H1195 0.951 . S
C1219 C1220 1.366 . S
C1219 C1221 1.388 . S
C1220 C1219 1.366 . S
C1220 C1224 1.385 . S
C1221 H1196 0.951 . S
C1221 C1219 1.388 . S
C1221 C1222 1.366 . S
C1222 C1221 1.366 . S
C1222 C1223 1.414 . S
C1222 C1225 1.499 . S
C1223 H1197 0.950 . S
C1223 C1222 1.414 . S
C1223 C1224 1.374 . S
C1224 H1198 0.950 . S
C1224 C1220 1.385 . S
C1224 C1223 1.374 . S
C1225 C1222 1.499 . S
C1225 C1226 1.373 . S
C1225 C1227 1.389 . S
C1226 H1199 0.950 . S
C1226 C1212 1.377 1_545 S
C1226 C1225 1.373 . S
C1227 C1211 1.377 1_545 S
C1227 C1225 1.389 . S
C1227 C1228 1.524 . S
C1228 C1227 1.524 . S
C1228 C1229 1.397 . S
C1228 C1233 1.363 . S
C1229 H1200 0.950 . S
C1229 C1228 1.397 . S
C1229 C1230 1.334 . S
C1230 H1201 0.950 . S
C1230 C1229 1.334 . S
C1230 C1231 1.287 . S
C1231 C1230 1.287 . S
C1231 C1232 1.524 . S
C1231 H1234 0.999 . S
C1232 H1202 0.950 . S
C1232 C1231 1.524 . S
C1232 C1233 1.415 . S
C1233 H1203 0.950 1_545 S
C1233 C1228 1.363 . S
C1233 C1232 1.415 . S
H1234 C1231 0.999 . S
H1235 C1216 0.913 . S
H1236 C1254 0.951 . S
H1237 C1256 0.951 . S
H1238 C1258 0.950 . S
H1239 C1259 0.950 . S
H1240 C1261 0.950 . S
H1241 C1264 0.950 . S
H1242 C1265 0.950 . S
H1243 C1267 0.950 . S
H1244 C1268 0.950 . S
H1245 C1269 0.951 . S
H1246 C1271 0.951 . S
H1247 C1273 0.950 . S
H1248 C1274 0.950 . S
H1249 C1276 0.950 . S
H1250 C1279 0.950 . S
H1251 C1280 0.950 . S
H1252 C1282 0.950 . S
H1253 C1283 0.950 . S
C1254 H1236 0.951 . S
C1254 C1255 1.366 . S
C1254 C1256 1.388 . S
C1255 C1254 1.366 . S
C1255 C1259 1.385 . S
C1256 H1237 0.951 . S
C1256 C1254 1.388 . S
C1256 C1257 1.366 . S
C1257 C1256 1.366 . S
C1257 C1258 1.414 . S
C1257 C1260 1.499 . S
C1258 H1238 0.950 . S
C1258 C1257 1.414 . S
C1258 C1259 1.374 . S
C1259 H1239 0.950 . S
C1259 C1255 1.385 . S
C1259 C1258 1.374 . S
C1260 C1257 1.499 . S
C1260 C1261 1.373 . S
C1260 C1262 1.389 . S
C1261 H1240 0.950 . S
C1261 C1260 1.373 . S
C1261 C1277 1.377 . S
C1262 C1260 1.389 . S
C1262 C1263 1.524 . S
C1262 C1276 1.377 . S
C1263 C1262 1.524 . S
C1263 C1264 1.397 . S
C1263 C1268 1.363 . S
C1264 H1241 0.950 . S
C1264 C1263 1.397 . S
C1264 C1265 1.334 . S
C1265 H1242 0.950 . S
C1265 C1264 1.334 . S
C1265 C1266 1.287 . S
C1266 C1265 1.287 . S
C1266 C1267 1.524 . S
C1266 H1285 0.913 . S
C1267 H1243 0.950 . S
C1267 C1266 1.524 . S
C1267 C1268 1.415 . S
C1268 H1244 0.950 . S
C1268 C1263 1.363 . S
C1268 C1267 1.415 . S
C1269 H1245 0.951 . S
C1269 C1270 1.366 . S
C1269 C1271 1.388 . S
C1270 C1269 1.366 . S
C1270 C1274 1.385 . S
C1271 H1246 0.951 . S
C1271 C1269 1.388 . S
C1271 C1272 1.366 . S
C1272 C1271 1.366 . S
C1272 C1273 1.414 . S
C1272 C1275 1.499 . S
C1273 H1247 0.950 . S
C1273 C1272 1.414 . S
C1273 C1274 1.374 . S
C1274 H1248 0.950 . S
C1274 C1270 1.385 . S
C1274 C1273 1.374 . S
C1275 C1272 1.499 . S
C1275 C1276 1.373 . S
C1275 C1277 1.389 . S
C1276 H1249 0.950 . S
C1276 C1262 1.377 . S
C1276 C1275 1.373 . S
C1277 C1261 1.377 . S
C1277 C1275 1.389 . S
C1277 C1278 1.524 . S
C1278 C1277 1.524 . S
C1278 C1279 1.397 . S
C1278 C1283 1.363 . S
C1279 H1250 0.950 . S
C1279 C1278 1.397 . S
C1279 C1280 1.334 . S
C1280 H1251 0.950 . S
C1280 C1279 1.334 . S
C1280 C1281 1.287 . S
C1281 C1280 1.287 . S
C1281 C1282 1.524 . S
C1281 H1284 0.999 . S
C1282 H1252 0.950 . S
C1282 C1281 1.524 . S
C1282 C1283 1.415 . S
C1283 H1253 0.950 . S
C1283 C1278 1.363 . S
C1283 C1282 1.415 . S
H1284 C1281 0.999 . S
H1285 C1266 0.913 . S
H1286 C1304 0.951 . S
H1287 C1306 0.951 1_455 S
H1288 C1308 0.950 . S
H1289 C1309 0.950 . S
H1290 C1311 0.950 . S
H1291 C1314 0.950 1_655 S
H1292 C1315 0.950 . S
H1293 C1317 0.950 . S
H1294 C1318 0.950 . S
H1295 C1319 0.951 . S
H1296 C1321 0.951 1_655 S
H1297 C1323 0.950 . S
H1298 C1324 0.950 . S
H1299 C1326 0.950 . S
H1300 C1329 0.950 1_455 S
H1301 C1330 0.950 . S
H1302 C1332 0.950 . S
H1303 C1333 0.950 . S
C1304 H1286 0.951 . S
C1304 C1305 1.366 . S
C1304 C1306 1.388 . S
C1305 C1304 1.366 . S
C1305 C1309 1.385 . S
C1306 H1287 0.951 1_655 S
C1306 C1304 1.388 . S
C1306 C1307 1.366 . S
C1307 C1306 1.366 . S
C1307 C1308 1.414 . S
C1307 C1310 1.499 . S
C1308 H1288 0.950 . S
C1308 C1307 1.414 . S
C1308 C1309 1.374 . S
C1309 H1289 0.950 . S
C1309 C1305 1.385 . S
C1309 C1308 1.374 . S
C1310 C1307 1.499 . S
C1310 C1311 1.373 . S
C1310 C1312 1.389 1_655 S
C1311 H1290 0.950 . S
C1311 C1310 1.373 . S
C1311 C1327 1.377 . S
C1312 C1310 1.389 1_455 S
C1312 C1313 1.524 . S
C1312 C1326 1.377 . S
C1313 C1312 1.524 . S
C1313 C1314 1.397 . S
C1313 C1318 1.363 . S
C1314 H1291 0.950 1_455 S
C1314 C1313 1.397 . S
C1314 C1315 1.334 . S
C1315 H1292 0.950 . S
C1315 C1314 1.334 . S
C1315 C1316 1.287 . S
C1316 C1315 1.287 . S
C1316 C1317 1.524 . S
C1316 H1335 0.913 . S
C1317 H1293 0.950 . S
C1317 C1316 1.524 . S
C1317 C1318 1.415 . S
C1318 H1294 0.950 . S
C1318 C1313 1.363 . S
C1318 C1317 1.415 . S
C1319 H1295 0.951 . S
C1319 C1320 1.366 . S
C1319 C1321 1.388 . S
C1320 C1319 1.366 . S
C1320 C1324 1.385 . S
C1321 H1296 0.951 1_455 S
C1321 C1319 1.388 . S
C1321 C1322 1.366 . S
C1322 C1321 1.366 . S
C1322 C1323 1.414 . S
C1322 C1325 1.499 . S
C1323 H1297 0.950 . S
C1323 C1322 1.414 . S
C1323 C1324 1.374 . S
C1324 H1298 0.950 . S
C1324 C1320 1.385 . S
C1324 C1323 1.374 . S
C1325 C1322 1.499 . S
C1325 C1326 1.373 . S
C1325 C1327 1.389 1_455 S
C1326 H1299 0.950 . S
C1326 C1312 1.377 . S
C1326 C1325 1.373 . S
C1327 C1311 1.377 . S
C1327 C1325 1.389 1_655 S
C1327 C1328 1.524 . S
C1328 C1327 1.524 . S
C1328 C1329 1.397 . S
C1328 C1333 1.363 . S
C1329 H1300 0.950 1_655 S
C1329 C1328 1.397 . S
C1329 C1330 1.334 . S
C1330 H1301 0.950 . S
C1330 C1329 1.334 . S
C1330 C1331 1.287 . S
C1331 C1330 1.287 . S
C1331 C1332 1.524 . S
C1331 H1334 0.999 . S
C1332 H1302 0.950 . S
C1332 C1331 1.524 . S
C1332 C1333 1.415 . S
C1333 H1303 0.950 . S
C1333 C1328 1.363 . S
C1333 C1332 1.415 . S
H1334 C1331 0.999 . S
H1335 C1316 0.913 . S
H1336 C1354 0.951 . S
H1337 C1356 0.951 . S
H1338 C1358 0.950 . S
H1339 C1359 0.950 . S
H1340 C1361 0.950 . S
H1341 C1364 0.950 . S
H1342 C1365 0.950 . S
H1343 C1367 0.950 . S
H1344 C1368 0.950 . S
H1345 C1369 0.951 . S
H1346 C1371 0.951 . S
H1347 C1373 0.950 . S
H1348 C1374 0.950 . S
H1349 C1376 0.950 . S
H1350 C1379 0.950 . S
H1351 C1380 0.950 . S
H1352 C1382 0.950 . S
H1353 C1383 0.950 . S
C1354 H1336 0.951 . S
C1354 C1355 1.366 . S
C1354 C1356 1.388 . S
C1355 C1354 1.366 . S
C1355 C1359 1.385 . S
C1356 H1337 0.951 . S
C1356 C1354 1.388 . S
C1356 C1357 1.366 . S
C1357 C1356 1.366 . S
C1357 C1358 1.414 . S
C1357 C1360 1.499 . S
C1358 H1338 0.950 . S
C1358 C1357 1.414 . S
C1358 C1359 1.374 . S
C1359 H1339 0.950 . S
C1359 C1355 1.385 . S
C1359 C1358 1.374 . S
C1360 C1357 1.499 . S
C1360 C1361 1.373 1_565 S
C1360 C1362 1.360 1_556 S
C1361 H1340 0.950 . S
C1361 C1360 1.373 1_545 S
C1361 C1377 1.405 . S
C1362 C1360 1.360 1_554 S
C1362 C1363 1.530 . S
C1362 C1376 1.405 . S
C1363 C1362 1.530 . S
C1363 C1364 1.397 . S
C1363 C1368 1.363 . S
C1364 H1341 0.950 . S
C1364 C1363 1.397 . S
C1364 C1365 1.334 . S
C1365 H1342 0.950 . S
C1365 C1364 1.334 . S
C1365 C1366 1.287 . S
C1366 C1365 1.287 . S
C1366 C1367 1.524 . S
C1366 H1385 0.913 . S
C1367 H1343 0.950 . S
C1367 C1366 1.524 . S
C1367 C1368 1.415 . S
C1368 H1344 0.950 . S
C1368 C1363 1.363 . S
C1368 C1367 1.415 . S
C1369 H1345 0.951 . S
C1369 C1370 1.366 . S
C1369 C1371 1.388 . S
C1370 C1369 1.366 . S
C1370 C1374 1.385 . S
C1371 H1346 0.951 . S
C1371 C1369 1.388 . S
C1371 C1372 1.366 . S
C1372 C1371 1.366 . S
C1372 C1373 1.414 . S
C1372 C1375 1.499 . S
C1373 H1347 0.950 . S
C1373 C1372 1.414 . S
C1373 C1374 1.374 . S
C1374 H1348 0.950 . S
C1374 C1370 1.385 . S
C1374 C1373 1.374 . S
C1375 C1372 1.499 . S
C1375 C1376 1.373 1_545 S
C1375 C1377 1.360 1_554 S
C1376 H1349 0.950 . S
C1376 C1362 1.405 . S
C1376 C1375 1.373 1_565 S
C1377 C1361 1.405 . S
C1377 C1375 1.360 1_556 S
C1377 C1378 1.530 . S
C1378 C1377 1.530 . S
C1378 C1379 1.397 . S
C1378 C1383 1.363 . S
C1379 H1350 0.950 . S
C1379 C1378 1.397 . S
C1379 C1380 1.334 . S
C1380 H1351 0.950 . S
C1380 C1379 1.334 . S
C1380 C1381 1.287 . S
C1381 C1380 1.287 . S
C1381 C1382 1.524 . S
C1381 H1384 0.999 . S
C1382 H1352 0.950 . S
C1382 C1381 1.524 . S
C1382 C1383 1.415 . S
C1383 H1353 0.950 . S
C1383 C1378 1.363 . S
C1383 C1382 1.415 . S
H1384 C1381 0.999 . S
H1385 C1366 0.913 . S
H1386 C1404 0.951 . S
H1387 C1406 0.951 . S
H1388 C1408 0.950 . S
H1389 C1409 0.950 . S
H1390 C1411 0.950 . S
H1391 C1414 0.950 . S
H1392 C1415 0.950 . S
H1393 C1417 0.950 . S
H1394 C1418 0.950 . S
H1395 C1419 0.951 . S
H1396 C1421 0.951 . S
H1397 C1423 0.950 . S
H1398 C1424 0.950 . S
H1399 C1426 0.950 . S
H1400 C1429 0.950 . S
H1401 C1430 0.950 . S
H1402 C1432 0.950 . S
H1403 C1433 0.950 . S
C1404 H1386 0.951 . S
C1404 C1405 1.366 . S
C1404 C1406 1.388 . S
C1405 C1404 1.366 . S
C1405 C1409 1.385 . S
C1406 H1387 0.951 . S
C1406 C1404 1.388 . S
C1406 C1407 1.366 . S
C1407 C1406 1.366 . S
C1407 C1408 1.414 . S
C1407 C1410 1.499 . S
C1408 H1388 0.950 . S
C1408 C1407 1.414 . S
C1408 C1409 1.374 . S
C1409 H1389 0.950 . S
C1409 C1405 1.385 . S
C1409 C1408 1.374 . S
C1410 C1407 1.499 . S
C1410 C1411 1.373 . S
C1410 C1412 1.389 . S
C1411 H1390 0.950 . S
C1411 C1410 1.373 . S
C1411 C1427 1.377 . S
C1412 C1410 1.389 . S
C1412 C1413 1.524 . S
C1412 C1426 1.377 . S
C1413 C1412 1.524 . S
C1413 C1414 1.397 . S
C1413 C1418 1.363 . S
C1414 H1391 0.950 . S
C1414 C1413 1.397 . S
C1414 C1415 1.334 . S
C1415 H1392 0.950 . S
C1415 C1414 1.334 . S
C1415 C1416 1.287 . S
C1416 C1415 1.287 . S
C1416 C1417 1.524 . S
C1416 H1435 0.913 . S
C1417 H1393 0.950 . S
C1417 C1416 1.524 . S
C1417 C1418 1.415 . S
C1418 H1394 0.950 . S
C1418 C1413 1.363 . S
C1418 C1417 1.415 . S
C1419 H1395 0.951 . S
C1419 C1420 1.366 . S
C1419 C1421 1.388 . S
C1420 C1419 1.366 . S
C1420 C1424 1.385 . S
C1421 H1396 0.951 . S
C1421 C1419 1.388 . S
C1421 C1422 1.366 . S
C1422 C1421 1.366 . S
C1422 C1423 1.414 . S
C1422 C1425 1.499 . S
C1423 H1397 0.950 . S
C1423 C1422 1.414 . S
C1423 C1424 1.374 . S
C1424 H1398 0.950 . S
C1424 C1420 1.385 . S
C1424 C1423 1.374 . S
C1425 C1422 1.499 . S
C1425 C1426 1.373 . S
C1425 C1427 1.389 . S
C1426 H1399 0.950 . S
C1426 C1412 1.377 . S
C1426 C1425 1.373 . S
C1427 C1411 1.377 . S
C1427 C1425 1.389 . S
C1427 C1428 1.524 . S
C1428 C1427 1.524 . S
C1428 C1429 1.397 . S
C1428 C1433 1.363 . S
C1429 H1400 0.950 . S
C1429 C1428 1.397 . S
C1429 C1430 1.334 . S
C1430 H1401 0.950 . S
C1430 C1429 1.334 . S
C1430 C1431 1.287 . S
C1431 C1430 1.287 . S
C1431 C1432 1.524 . S
C1431 H1434 0.999 . S
C1432 H1402 0.950 . S
C1432 C1431 1.524 . S
C1432 C1433 1.415 . S
C1433 H1403 0.950 . S
C1433 C1428 1.363 . S
C1433 C1432 1.415 . S
H1434 C1431 0.999 . S
H1435 C1416 0.913 . S
H1436 C1454 0.951 . S
H1437 C1456 0.951 1_655 S
H1438 C1458 0.950 . S
H1439 C1459 0.950 . S
H1440 C1461 0.950 . S
H1441 C1464 0.950 . S
H1442 C1465 0.950 . S
H1443 C1467 0.950 . S
H1444 C1468 0.950 . S
H1445 C1469 0.951 . S
H1446 C1471 0.951 1_455 S
H1447 C1473 0.950 . S
H1448 C1474 0.950 . S
H1449 C1476 0.950 . S
H1450 C1479 0.950 . S
H1451 C1480 0.950 . S
H1452 C1482 0.950 . S
H1453 C1483 0.950 . S
C1454 H1436 0.951 . S
C1454 C1455 1.366 . S
C1454 C1456 1.388 . S
C1455 C1454 1.366 . S
C1455 C1459 1.385 . S
C1456 H1437 0.951 1_455 S
C1456 C1454 1.388 . S
C1456 C1457 1.366 . S
C1457 C1456 1.366 . S
C1457 C1458 1.414 . S
C1457 C1460 1.499 . S
C1458 H1438 0.950 . S
C1458 C1457 1.414 . S
C1458 C1459 1.374 . S
C1459 H1439 0.950 . S
C1459 C1455 1.385 . S
C1459 C1458 1.374 . S
C1460 C1457 1.499 . S
C1460 C1461 1.373 . S
C1460 C1462 1.420 . S
C1461 H1440 0.950 . S
C1461 C1460 1.373 . S
C1461 C1477 1.377 1_455 S
C1462 C1460 1.420 . S
C1462 C1463 1.510 . S
C1462 C1476 1.361 1_455 S
C1463 C1462 1.510 . S
C1463 C1464 1.397 . S
C1463 C1468 1.363 1_455 S
C1464 H1441 0.950 . S
C1464 C1463 1.397 . S
C1464 C1465 1.334 . S
C1465 H1442 0.950 . S
C1465 C1464 1.334 . S
C1465 C1466 1.287 . S
C1466 C1465 1.287 . S
C1466 C1467 1.524 1_455 S
C1466 H1485 0.913 . S
C1467 H1443 0.950 . S
C1467 C1466 1.524 1_655 S
C1467 C1468 1.415 . S
C1468 H1444 0.950 . S
C1468 C1463 1.363 1_655 S
C1468 C1467 1.415 . S
C1469 H1445 0.951 . S
C1469 C1470 1.366 . S
C1469 C1471 1.388 . S
C1470 C1469 1.366 . S
C1470 C1474 1.385 . S
C1471 H1446 0.951 1_655 S
C1471 C1469 1.388 . S
C1471 C1472 1.366 . S
C1472 C1471 1.366 . S
C1472 C1473 1.414 . S
C1472 C1475 1.499 . S
C1473 H1447 0.950 . S
C1473 C1472 1.414 . S
C1473 C1474 1.374 . S
C1474 H1448 0.950 . S
C1474 C1470 1.385 . S
C1474 C1473 1.374 . S
C1475 C1472 1.499 . S
C1475 C1476 1.373 . S
C1475 C1477 1.389 . S
C1476 H1449 0.950 . S
C1476 C1462 1.361 1_655 S
C1476 C1475 1.373 . S
C1477 C1461 1.377 1_655 S
C1477 C1475 1.389 . S
C1477 C1478 1.524 . S
C1478 C1477 1.524 . S
C1478 C1479 1.397 . S
C1478 C1483 1.363 1_655 S
C1479 H1450 0.950 . S
C1479 C1478 1.397 . S
C1479 C1480 1.334 . S
C1480 H1451 0.950 . S
C1480 C1479 1.334 . S
C1480 C1481 1.287 . S
C1481 C1480 1.287 . S
C1481 C1482 1.524 1_655 S
C1481 H1484 0.999 . S
C1482 H1452 0.950 . S
C1482 C1481 1.524 1_455 S
C1482 C1483 1.415 . S
C1483 H1453 0.950 . S
C1483 C1478 1.363 1_455 S
C1483 C1482 1.415 . S
H1484 C1481 0.999 . S
H1485 C1466 0.913 . S
H1486 C1504 0.951 . S
H1487 C1506 0.951 . S
H1488 C1508 0.950 . S
H1489 C1509 0.950 . S
H1490 C1511 0.950 . S
H1491 C1514 0.950 . S
H1492 C1515 0.950 1_554 S
H1493 C1517 0.950 . S
H1494 C1518 0.950 . S
H1495 C1519 0.951 . S
H1496 C1521 0.951 . S
H1497 C1523 0.950 . S
H1498 C1524 0.950 . S
H1499 C1526 0.950 . S
H1500 C1529 0.950 . S
H1501 C1530 0.950 1_556 S
H1502 C1532 0.950 . S
H1503 C1533 0.950 . S
C1504 H1486 0.951 . S
C1504 C1505 1.366 . S
C1504 C1506 1.388 . S
C1505 C1504 1.366 . S
C1505 C1509 1.385 . S
C1506 H1487 0.951 . S
C1506 C1504 1.388 . S
C1506 C1507 1.366 . S
C1507 C1506 1.366 . S
C1507 C1508 1.414 . S
C1507 C1510 1.499 . S
C1508 H1488 0.950 . S
C1508 C1507 1.414 . S
C1508 C1509 1.374 . S
C1509 H1489 0.950 . S
C1509 C1505 1.385 . S
C1509 C1508 1.374 . S
C1510 C1507 1.499 . S
C1510 C1511 1.373 1_565 S
C1510 C1512 1.389 1_554 S
C1511 H1490 0.950 . S
C1511 C1510 1.373 1_545 S
C1511 C1527 1.377 . S
C1512 C1510 1.389 1_556 S
C1512 C1513 1.524 . S
C1512 C1526 1.377 . S
C1513 C1512 1.524 . S
C1513 C1514 1.397 1_556 S
C1513 C1518 1.363 . S
C1514 H1491 0.950 . S
C1514 C1513 1.397 1_554 S
C1514 C1515 1.334 1_554 S
C1515 H1492 0.950 1_556 S
C1515 C1514 1.334 1_556 S
C1515 C1516 1.287 . S
C1516 C1515 1.287 . S
C1516 C1517 1.524 . S
C1516 H1535 0.913 . S
C1517 H1493 0.950 . S
C1517 C1516 1.524 . S
C1517 C1518 1.415 . S
C1518 H1494 0.950 . S
C1518 C1513 1.363 . S
C1518 C1517 1.415 . S
C1519 H1495 0.951 . S
C1519 C1520 1.366 . S
C1519 C1521 1.388 . S
C1520 C1519 1.366 . S
C1520 C1524 1.385 . S
C1521 H1496 0.951 . S
C1521 C1519 1.388 . S
C1521 C1522 1.366 . S
C1522 C1521 1.366 . S
C1522 C1523 1.414 . S
C1522 C1525 1.499 . S
C1523 H1497 0.950 . S
C1523 C1522 1.414 . S
C1523 C1524 1.374 . S
C1524 H1498 0.950 . S
C1524 C1520 1.385 . S
C1524 C1523 1.374 . S
C1525 C1522 1.499 . S
C1525 C1526 1.373 1_545 S
C1525 C1527 1.389 1_556 S
C1526 H1499 0.950 . S
C1526 C1512 1.377 . S
C1526 C1525 1.373 1_565 S
C1527 C1511 1.377 . S
C1527 C1525 1.389 1_554 S
C1527 C1528 1.524 . S
C1528 C1527 1.524 . S
C1528 C1529 1.397 1_554 S
C1528 C1533 1.363 . S
C1529 H1500 0.950 . S
C1529 C1528 1.397 1_556 S
C1529 C1530 1.334 1_556 S
C1530 H1501 0.950 1_554 S
C1530 C1529 1.334 1_554 S
C1530 C1531 1.287 . S
C1531 C1530 1.287 . S
C1531 C1532 1.524 . S
C1531 H1534 0.999 . S
C1532 H1502 0.950 . S
C1532 C1531 1.524 . S
C1532 C1533 1.415 . S
C1533 H1503 0.950 . S
C1533 C1528 1.363 . S
C1533 C1532 1.415 . S
H1534 C1531 0.999 . S
H1535 C1516 0.913 . S
H1536 C1554 0.951 . S
H1537 C1556 0.951 . S
H1538 C1558 0.950 . S
H1539 C1559 0.950 . S
H1540 C1561 0.950 1_655 S
H1541 C1564 0.950 . S
H1542 C1565 0.950 . S
H1543 C1567 0.950 . S
H1544 C1568 0.950 . S
H1545 C1569 0.951 . S
H1546 C1571 0.951 . S
H1547 C1573 0.950 . S
H1548 C1574 0.950 . S
H1549 C1576 0.950 . S
H1550 C1579 0.950 . S
H1551 C1580 0.950 . S
H1552 C1582 0.950 . S
H1553 C1583 0.950 . S
C1554 H1536 0.951 . S
C1554 C1555 1.366 . S
C1554 C1556 1.388 . S
C1555 C1554 1.366 . S
C1555 C1559 1.385 . S
C1556 H1537 0.951 . S
C1556 C1554 1.388 . S
C1556 C1557 1.366 . S
C1557 C1556 1.366 . S
C1557 C1558 1.414 . S
C1557 C1560 1.499 1_655 S
C1558 H1538 0.950 . S
C1558 C1557 1.414 . S
C1558 C1559 1.374 . S
C1559 H1539 0.950 . S
C1559 C1555 1.385 . S
C1559 C1558 1.374 . S
C1560 C1557 1.499 1_455 S
C1560 C1561 1.373 . S
C1560 C1562 1.389 . S
C1561 H1540 0.950 1_455 S
C1561 C1560 1.373 . S
C1561 C1577 1.377 . S
C1562 C1560 1.389 . S
C1562 C1563 1.524 . S
C1562 C1576 1.377 . S
C1563 C1562 1.524 . S
C1563 C1564 1.397 . S
C1563 C1568 1.363 . S
C1564 H1541 0.950 . S
C1564 C1563 1.397 . S
C1564 C1565 1.334 . S
C1565 H1542 0.950 . S
C1565 C1564 1.334 . S
C1565 C1566 1.287 . S
C1566 C1565 1.287 . S
C1566 C1567 1.524 . S
C1566 H1585 0.913 . S
C1567 H1543 0.950 . S
C1567 C1566 1.524 . S
C1567 C1568 1.415 . S
C1568 H1544 0.950 . S
C1568 C1563 1.363 . S
C1568 C1567 1.415 . S
C1569 H1545 0.951 . S
C1569 C1570 1.366 . S
C1569 C1571 1.388 . S
C1570 C1569 1.366 . S
C1570 C1574 1.385 . S
C1571 H1546 0.951 . S
C1571 C1569 1.388 . S
C1571 C1572 1.366 . S
C1572 C1571 1.366 . S
C1572 C1573 1.414 . S
C1572 C1575 1.499 . S
C1573 H1547 0.950 . S
C1573 C1572 1.414 . S
C1573 C1574 1.374 . S
C1574 H1548 0.950 . S
C1574 C1570 1.385 . S
C1574 C1573 1.374 . S
C1575 C1572 1.499 . S
C1575 C1576 1.373 . S
C1575 C1577 1.389 . S
C1576 H1549 0.950 . S
C1576 C1562 1.377 . S
C1576 C1575 1.373 . S
C1577 C1561 1.377 . S
C1577 C1575 1.389 . S
C1577 C1578 1.524 . S
C1578 C1577 1.524 . S
C1578 C1579 1.397 . S
C1578 C1583 1.363 . S
C1579 H1550 0.950 . S
C1579 C1578 1.397 . S
C1579 C1580 1.334 . S
C1580 H1551 0.950 . S
C1580 C1579 1.334 . S
C1580 C1581 1.287 . S
C1581 C1580 1.287 . S
C1581 C1582 1.524 . S
C1581 H1584 0.999 . S
C1582 H1552 0.950 . S
C1582 C1581 1.524 . S
C1582 C1583 1.415 . S
C1583 H1553 0.950 . S
C1583 C1578 1.363 . S
C1583 C1582 1.415 . S
H1584 C1581 0.999 . S
H1585 C1566 0.913 . S
H1586 C1604 0.951 . S
H1587 C1606 0.951 . S
H1588 C1608 0.950 . S
H1589 C1609 0.950 . S
H1590 C1611 0.950 . S
H1591 C1614 0.950 . S
H1592 C1615 0.950 . S
H1593 C1617 0.950 . S
H1594 C1618 0.950 . S
H1595 C1619 0.951 . S
H1596 C1621 0.951 . S
H1597 C1623 0.950 . S
H1598 C1624 0.950 . S
H1599 C1626 0.950 . S
H1600 C1629 0.950 . S
H1601 C1630 0.950 . S
H1602 C1632 0.950 . S
H1603 C1633 0.950 . S
C1604 H1586 0.951 . S
C1604 C1605 1.366 . S
C1604 C1606 1.388 . S
C1605 C1604 1.366 . S
C1605 C1609 1.385 . S
C1606 H1587 0.951 . S
C1606 C1604 1.388 . S
C1606 C1607 1.366 . S
C1607 C1606 1.366 . S
C1607 C1608 1.414 . S
C1607 C1610 1.499 . S
C1608 H1588 0.950 . S
C1608 C1607 1.414 . S
C1608 C1609 1.374 . S
C1609 H1589 0.950 . S
C1609 C1605 1.385 . S
C1609 C1608 1.374 . S
C1610 C1607 1.499 . S
C1610 C1611 1.373 . S
C1610 C1612 1.389 . S
C1611 H1590 0.950 . S
C1611 C1610 1.373 . S
C1611 C1627 1.377 1_545 S
C1612 C1610 1.389 . S
C1612 C1613 1.524 . S
C1612 C1626 1.377 1_545 S
C1613 C1612 1.524 . S
C1613 C1614 1.397 . S
C1613 C1618 1.363 . S
C1614 H1591 0.950 . S
C1614 C1613 1.397 . S
C1614 C1615 1.334 . S
C1615 H1592 0.950 . S
C1615 C1614 1.334 . S
C1615 C1616 1.287 . S
C1616 C1615 1.287 . S
C1616 C1617 1.524 . S
C1616 H1635 0.913 . S
C1617 H1593 0.950 . S
C1617 C1616 1.524 . S
C1617 C1618 1.415 . S
C1618 H1594 0.950 . S
C1618 C1613 1.363 . S
C1618 C1617 1.415 . S
C1619 H1595 0.951 . S
C1619 C1620 1.366 . S
C1619 C1621 1.388 . S
C1620 C1619 1.366 . S
C1620 C1624 1.385 . S
C1621 H1596 0.951 . S
C1621 C1619 1.388 . S
C1621 C1622 1.366 . S
C1622 C1621 1.366 . S
C1622 C1623 1.414 . S
C1622 C1625 1.499 . S
C1623 H1597 0.950 . S
C1623 C1622 1.414 . S
C1623 C1624 1.374 . S
C1624 H1598 0.950 . S
C1624 C1620 1.385 . S
C1624 C1623 1.374 . S
C1625 C1622 1.499 . S
C1625 C1626 1.373 . S
C1625 C1627 1.389 . S
C1626 H1599 0.950 . S
C1626 C1612 1.377 1_565 S
C1626 C1625 1.373 . S
C1627 C1611 1.377 1_565 S
C1627 C1625 1.389 . S
C1627 C1628 1.524 . S
C1628 C1627 1.524 . S
C1628 C1629 1.397 . S
C1628 C1633 1.363 . S
C1629 H1600 0.950 . S
C1629 C1628 1.397 . S
C1629 C1630 1.334 . S
C1630 H1601 0.950 . S
C1630 C1629 1.334 . S
C1630 C1631 1.287 . S
C1631 C1630 1.287 . S
C1631 C1632 1.524 . S
C1631 H1634 0.999 . S
C1632 H1602 0.950 . S
C1632 C1631 1.524 . S
C1632 C1633 1.415 . S
C1633 H1603 0.950 . S
C1633 C1628 1.363 . S
C1633 C1632 1.415 . S
H1634 C1631 0.999 . S
H1635 C1616 0.913 . S
H1636 C1654 0.951 . S
H1637 C1656 0.951 . S
H1638 C1658 0.950 . S
H1639 C1659 0.950 . S
H1640 C1661 0.950 . S
H1641 C1664 0.950 . S
H1642 C1665 0.950 . S
H1643 C1667 0.950 . S
H1644 C1668 0.950 . S
H1645 C1669 0.951 . S
H1646 C1671 0.951 . S
H1647 C1673 0.950 . S
H1648 C1674 0.950 . S
H1649 C1676 0.950 . S
H1650 C1679 0.950 . S
H1651 C1680 0.950 . S
H1652 C1682 0.950 . S
H1653 C1683 0.950 . S
C1654 H1636 0.951 . S
C1654 C1655 1.366 . S
C1654 C1656 1.388 . S
C1655 C1654 1.366 . S
C1655 C1659 1.385 . S
C1656 H1637 0.951 . S
C1656 C1654 1.388 . S
C1656 C1657 1.366 . S
C1657 C1656 1.366 . S
C1657 C1658 1.414 . S
C1657 C1660 1.499 . S
C1658 H1638 0.950 . S
C1658 C1657 1.414 . S
C1658 C1659 1.374 . S
C1659 H1639 0.950 . S
C1659 C1655 1.385 . S
C1659 C1658 1.374 . S
C1660 C1657 1.499 . S
C1660 C1661 1.373 . S
C1660 C1662 1.389 . S
C1661 H1640 0.950 . S
C1661 C1660 1.373 . S
C1661 C1677 1.377 . S
C1662 C1660 1.389 . S
C1662 C1663 1.524 . S
C1662 C1676 1.377 . S
C1663 C1662 1.524 . S
C1663 C1664 1.397 . S
C1663 C1668 1.363 . S
C1664 H1641 0.950 . S
C1664 C1663 1.397 . S
C1664 C1665 1.334 . S
C1665 H1642 0.950 . S
C1665 C1664 1.334 . S
C1665 C1666 1.287 . S
C1666 C1665 1.287 . S
C1666 C1667 1.524 . S
C1666 H1685 0.913 . S
C1667 H1643 0.950 . S
C1667 C1666 1.524 . S
C1667 C1668 1.415 . S
C1668 H1644 0.950 . S
C1668 C1663 1.363 . S
C1668 C1667 1.415 . S
C1669 H1645 0.951 . S
C1669 C1670 1.366 . S
C1669 C1671 1.388 . S
C1670 C1669 1.366 . S
C1670 C1674 1.385 . S
C1671 H1646 0.951 . S
C1671 C1669 1.388 . S
C1671 C1672 1.366 . S
C1672 C1671 1.366 . S
C1672 C1673 1.414 . S
C1672 C1675 1.499 . S
C1673 H1647 0.950 . S
C1673 C1672 1.414 . S
C1673 C1674 1.374 . S
C1674 H1648 0.950 . S
C1674 C1670 1.385 . S
C1674 C1673 1.374 . S
C1675 C1672 1.499 . S
C1675 C1676 1.373 . S
C1675 C1677 1.389 . S
C1676 H1649 0.950 . S
C1676 C1662 1.377 . S
C1676 C1675 1.373 . S
C1677 C1661 1.377 . S
C1677 C1675 1.389 . S
C1677 C1678 1.524 . S
C1678 C1677 1.524 . S
C1678 C1679 1.397 . S
C1678 C1683 1.363 . S
C1679 H1650 0.950 . S
C1679 C1678 1.397 . S
C1679 C1680 1.334 . S
C1680 H1651 0.950 . S
C1680 C1679 1.334 . S
C1680 C1681 1.287 . S
C1681 C1680 1.287 . S
C1681 C1682 1.524 . S
C1681 H1684 0.999 . S
C1682 H1652 0.950 . S
C1682 C1681 1.524 . S
C1682 C1683 1.415 . S
C1683 H1653 0.950 . S
C1683 C1678 1.363 . S
C1683 C1682 1.415 . S
H1684 C1681 0.999 . S
H1685 C1666 0.913 . S
H1686 C1704 0.951 . S
H1687 C1706 0.951 . S
H1688 C1708 0.950 . S
H1689 C1709 0.950 . S
H1690 C1711 0.950 . S
H1691 C1714 0.950 . S
H1692 C1715 0.950 . S
H1693 C1717 0.950 . S
H1694 C1718 0.950 . S
H1695 C1719 0.951 . S
H1696 C1721 0.951 . S
H1697 C1723 0.950 . S
H1698 C1724 0.950 . S
H1699 C1726 0.950 . S
H1700 C1729 0.950 . S
H1701 C1730 0.950 . S
H1702 C1732 0.950 . S
H1703 C1733 0.950 . S
C1704 H1686 0.951 . S
C1704 C1705 1.366 . S
C1704 C1706 1.388 . S
C1705 C1704 1.366 . S
C1705 C1709 1.385 . S
C1706 H1687 0.951 . S
C1706 C1704 1.388 . S
C1706 C1707 1.366 . S
C1707 C1706 1.366 . S
C1707 C1708 1.414 . S
C1707 C1710 1.499 . S
C1708 H1688 0.950 . S
C1708 C1707 1.414 . S
C1708 C1709 1.374 . S
C1709 H1689 0.950 . S
C1709 C1705 1.385 . S
C1709 C1708 1.374 . S
C1710 C1707 1.499 . S
C1710 C1711 1.373 . S
C1710 C1712 1.389 . S
C1711 H1690 0.950 . S
C1711 C1710 1.373 . S
C1711 C1727 1.377 . S
C1712 C1710 1.389 . S
C1712 C1713 1.524 . S
C1712 C1726 1.377 . S
C1713 C1712 1.524 . S
C1713 C1714 1.397 . S
C1713 C1718 1.363 . S
C1714 H1691 0.950 . S
C1714 C1713 1.397 . S
C1714 C1715 1.334 . S
C1715 H1692 0.950 . S
C1715 C1714 1.334 . S
C1715 C1716 1.287 . S
C1716 C1715 1.287 . S
C1716 C1717 1.524 . S
C1716 H1735 0.913 . S
C1717 H1693 0.950 . S
C1717 C1716 1.524 . S
C1717 C1718 1.415 . S
C1718 H1694 0.950 . S
C1718 C1713 1.363 . S
C1718 C1717 1.415 . S
C1719 H1695 0.951 . S
C1719 C1720 1.366 . S
C1719 C1721 1.388 . S
C1720 C1719 1.366 . S
C1720 C1724 1.385 . S
C1721 H1696 0.951 . S
C1721 C1719 1.388 . S
C1721 C1722 1.366 . S
C1722 C1721 1.366 . S
C1722 C1723 1.414 . S
C1722 C1725 1.499 1_455 S
C1723 H1697 0.950 . S
C1723 C1722 1.414 . S
C1723 C1724 1.374 . S
C1724 H1698 0.950 . S
C1724 C1720 1.385 . S
C1724 C1723 1.374 . S
C1725 C1722 1.499 1_655 S
C1725 C1726 1.373 . S
C1725 C1727 1.389 . S
C1726 H1699 0.950 . S
C1726 C1712 1.377 . S
C1726 C1725 1.373 . S
C1727 C1711 1.377 . S
C1727 C1725 1.389 . S
C1727 C1728 1.524 . S
C1728 C1727 1.524 . S
C1728 C1729 1.397 . S
C1728 C1733 1.363 . S
C1729 H1700 0.950 . S
C1729 C1728 1.397 . S
C1729 C1730 1.334 . S
C1730 H1701 0.950 . S
C1730 C1729 1.334 . S
C1730 C1731 1.287 . S
C1731 C1730 1.287 . S
C1731 C1732 1.524 . S
C1731 H1734 0.999 . S
C1732 H1702 0.950 . S
C1732 C1731 1.524 . S
C1732 C1733 1.415 . S
C1733 H1703 0.950 . S
C1733 C1728 1.363 . S
C1733 C1732 1.415 . S
H1734 C1731 0.999 . S
H1735 C1716 0.913 . S
H1736 C1754 0.951 . S
H1737 C1756 0.951 . S
H1738 C1758 0.950 . S
H1739 C1759 0.950 . S
H1740 C1761 0.950 . S
H1741 C1764 0.950 . S
H1742 C1765 0.950 . S
H1743 C1767 0.950 . S
H1744 C1768 0.950 . S
H1745 C1769 0.951 . S
H1746 C1771 0.951 . S
H1747 C1773 0.950 . S
H1748 C1774 0.950 . S
H1749 C1776 0.950 . S
H1750 C1779 0.950 . S
H1751 C1780 0.950 . S
H1752 C1782 0.950 . S
H1753 C1783 0.950 . S
C1754 H1736 0.951 . S
C1754 C1755 1.366 . S
C1754 C1756 1.388 . S
C1755 C1754 1.366 . S
C1755 C1759 1.385 . S
C1756 H1737 0.951 . S
C1756 C1754 1.388 . S
C1756 C1757 1.366 . S
C1757 C1756 1.366 . S
C1757 C1758 1.414 . S
C1757 C1760 1.499 . S
C1758 H1738 0.950 . S
C1758 C1757 1.414 . S
C1758 C1759 1.374 . S
C1759 H1739 0.950 . S
C1759 C1755 1.385 . S
C1759 C1758 1.374 . S
C1760 C1757 1.499 . S
C1760 C1761 1.373 . S
C1760 C1762 1.389 . S
C1761 H1740 0.950 . S
C1761 C1760 1.373 . S
C1761 C1777 1.377 1_565 S
C1762 C1760 1.389 . S
C1762 C1763 1.524 . S
C1762 C1776 1.377 1_565 S
C1763 C1762 1.524 . S
C1763 C1764 1.397 . S
C1763 C1768 1.363 . S
C1764 H1741 0.950 . S
C1764 C1763 1.397 . S
C1764 C1765 1.334 . S
C1765 H1742 0.950 . S
C1765 C1764 1.334 . S
C1765 C1766 1.287 . S
C1766 C1765 1.287 . S
C1766 C1767 1.524 . S
C1766 H1785 0.913 . S
C1767 H1743 0.950 . S
C1767 C1766 1.524 . S
C1767 C1768 1.415 . S
C1768 H1744 0.950 . S
C1768 C1763 1.363 . S
C1768 C1767 1.415 . S
C1769 H1745 0.951 . S
C1769 C1770 1.366 . S
C1769 C1771 1.388 . S
C1770 C1769 1.366 . S
C1770 C1774 1.385 . S
C1771 H1746 0.951 . S
C1771 C1769 1.388 . S
C1771 C1772 1.366 . S
C1772 C1771 1.366 . S
C1772 C1773 1.414 . S
C1772 C1775 1.499 . S
C1773 H1747 0.950 . S
C1773 C1772 1.414 . S
C1773 C1774 1.374 . S
C1774 H1748 0.950 . S
C1774 C1770 1.385 . S
C1774 C1773 1.374 . S
C1775 C1772 1.499 . S
C1775 C1776 1.373 . S
C1775 C1777 1.389 . S
C1776 H1749 0.950 . S
C1776 C1762 1.377 1_545 S
C1776 C1775 1.373 . S
C1777 C1761 1.377 1_545 S
C1777 C1775 1.389 . S
C1777 C1778 1.524 . S
C1778 C1777 1.524 . S
C1778 C1779 1.397 . S
C1778 C1783 1.363 . S
C1779 H1750 0.950 . S
C1779 C1778 1.397 . S
C1779 C1780 1.334 . S
C1780 H1751 0.950 . S
C1780 C1779 1.334 . S
C1780 C1781 1.287 . S
C1781 C1780 1.287 . S
C1781 C1782 1.524 . S
C1781 H1784 0.999 . S
C1782 H1752 0.950 . S
C1782 C1781 1.524 . S
C1782 C1783 1.415 . S
C1783 H1753 0.950 . S
C1783 C1778 1.363 . S
C1783 C1782 1.415 . S
H1784 C1781 0.999 . S
H1785 C1766 0.913 . S
H1786 C1804 0.951 . S
H1787 C1806 0.951 . S
H1788 C1808 0.950 . S
H1789 C1809 0.950 . S
H1790 C1811 0.950 . S
H1791 C1814 0.950 . S
H1792 C1815 0.950 . S
H1793 C1817 0.950 . S
H1794 C1818 0.950 . S
H1795 C1819 0.951 . S
H1796 C1821 0.951 . S
H1797 C1823 0.950 . S
H1798 C1824 0.950 . S
H1799 C1826 0.950 . S
H1800 C1829 0.950 . S
H1801 C1830 0.950 . S
H1802 C1832 0.950 . S
H1803 C1833 0.950 . S
C1804 H1786 0.951 . S
C1804 C1805 1.366 . S
C1804 C1806 1.388 . S
C1805 C1804 1.366 . S
C1805 C1809 1.385 . S
C1806 H1787 0.951 . S
C1806 C1804 1.388 . S
C1806 C1807 1.366 . S
C1807 C1806 1.366 . S
C1807 C1808 1.414 . S
C1807 C1810 1.499 . S
C1808 H1788 0.950 . S
C1808 C1807 1.414 . S
C1808 C1809 1.374 . S
C1809 H1789 0.950 . S
C1809 C1805 1.385 . S
C1809 C1808 1.374 . S
C1810 C1807 1.499 . S
C1810 C1811 1.373 . S
C1810 C1812 1.389 . S
C1811 H1790 0.950 . S
C1811 C1810 1.373 . S
C1811 C1827 1.377 . S
C1812 C1810 1.389 . S
C1812 C1813 1.524 . S
C1812 C1826 1.377 . S
C1813 C1812 1.524 . S
C1813 C1814 1.397 . S
C1813 C1818 1.363 . S
C1814 H1791 0.950 . S
C1814 C1813 1.397 . S
C1814 C1815 1.334 . S
C1815 H1792 0.950 . S
C1815 C1814 1.334 . S
C1815 C1816 1.287 . S
C1816 C1815 1.287 . S
C1816 C1817 1.524 . S
C1816 H1835 0.913 . S
C1817 H1793 0.950 . S
C1817 C1816 1.524 . S
C1817 C1818 1.415 . S
C1818 H1794 0.950 . S
C1818 C1813 1.363 . S
C1818 C1817 1.415 . S
C1819 H1795 0.951 . S
C1819 C1820 1.366 . S
C1819 C1821 1.388 . S
C1820 C1819 1.366 . S
C1820 C1824 1.385 . S
C1821 H1796 0.951 . S
C1821 C1819 1.388 . S
C1821 C1822 1.366 . S
C1822 C1821 1.366 . S
C1822 C1823 1.414 . S
C1822 C1825 1.499 . S
C1823 H1797 0.950 . S
C1823 C1822 1.414 . S
C1823 C1824 1.374 . S
C1824 H1798 0.950 . S
C1824 C1820 1.385 . S
C1824 C1823 1.374 . S
C1825 C1822 1.499 . S
C1825 C1826 1.373 . S
C1825 C1827 1.389 . S
C1826 H1799 0.950 . S
C1826 C1812 1.377 . S
C1826 C1825 1.373 . S
C1827 C1811 1.377 . S
C1827 C1825 1.389 . S
C1827 C1828 1.524 . S
C1828 C1827 1.524 . S
C1828 C1829 1.397 . S
C1828 C1833 1.363 . S
C1829 H1800 0.950 . S
C1829 C1828 1.397 . S
C1829 C1830 1.334 . S
C1830 H1801 0.950 . S
C1830 C1829 1.334 . S
C1830 C1831 1.287 . S
C1831 C1830 1.287 . S
C1831 C1832 1.524 . S
C1831 H1834 0.999 . S
C1832 H1802 0.950 . S
C1832 C1831 1.524 . S
C1832 C1833 1.415 . S
C1833 H1803 0.950 . S
C1833 C1828 1.363 . S
C1833 C1832 1.415 . S
H1834 C1831 0.999 . S
H1835 C1816 0.913 . S
C655 C463 1.907 . S
C670 C22 1.906 . S
C705 C75 1.973 . S
C720 C499 1.973 . S
C755 C145 1.907 . S
C770 C552 1.906 . S
C805 C181 1.905 . S
C820 C622 1.906 . S
C855 C340 1.972 . S
C870 C234 1.972 . S
C905 C304 1.906 . S
C920 C393 1.906 . S
C955 C197 2.211 . S
C970 C38 2.210 . S
C1005 C250 2.157 . S
C1020 C91 2.157 . S
C1055 C294 1.334 . S
C1070 C135 1.333 . S
C1105 C356 2.157 . S
C1120 C515 2.156 . S
C1155 C409 2.210 . S
C1170 C568 2.211 . S
C1205 C453 1.333 . S
C1220 C612 1.334 . S
C1255 C29 1.831 . S
C1270 C506 1.821 . S
C1305 C82 1.821 . S
C1320 C559 1.831 . S
C1355 C144 1.490 . S
C1370 C621 1.490 . S
C1405 C347 1.822 . S
C1420 C188 1.831 . S
C1455 C241 1.821 . S
C1470 C400 1.831 . S
C1505 C462 1.490 . S
C1520 C303 1.490 . S
C1555 C605 1.687 . S
C1570 C39 1.689 . S
C1605 C92 2.094 . S
C1620 C357 2.095 . S
C1655 C410 1.689 . S
C1670 C128 1.687 . S
C1705 C198 1.689 . S
C1720 C446 1.687 . S
C1755 C251 2.094 . S
C1770 C516 2.094 . S
C1805 C569 1.689 . S
C1820 C287 1.687 . S
