# Generated by pormake.
# Topology mon, (4)-cn, num edge types: 1
# Building blocks:
#     Node 0, Type 0, BuildingBlock: KUFVIS_clean_sbu_0, # of connection points: 4
#     Node 1, Type 0, BuildingBlock: KUFVIS_clean_sbu_0, # of connection points: 4
#     Node 2, Type 0, BuildingBlock: KUFVIS_clean_sbu_0, # of connection points: 4
#     Node 3, Type 0, BuildingBlock: KUFVIS_clean_sbu_0, # of connection points: 4
#     Node 4, Type 0, BuildingBlock: KUFVIS_clean_sbu_0, # of connection points: 4
#     Node 5, Type 0, BuildingBlock: KUFVIS_clean_sbu_0, # of connection points: 4
#     Node 6, Type 0, BuildingBlock: KUFVIS_clean_sbu_0, # of connection points: 4
#     Node 7, Type 0, BuildingBlock: KUFVIS_clean_sbu_0, # of connection points: 4
#     Node 8, Type 0, BuildingBlock: KUFVIS_clean_sbu_0, # of connection points: 4
#     Node 9, Type 0, BuildingBlock: KUFVIS_clean_sbu_0, # of connection points: 4
#     Node 10, Type 0, BuildingBlock: KUFVIS_clean_sbu_0, # of connection points: 4
#     Node 11, Type 0, BuildingBlock: KUFVIS_clean_sbu_0, # of connection points: 4
#     Node 12, Type 0, BuildingBlock: KUFVIS_clean_sbu_0, # of connection points: 4
#     Node 13, Type 0, BuildingBlock: KUFVIS_clean_sbu_0, # of connection points: 4
#     Node 14, Type 0, BuildingBlock: KUFVIS_clean_sbu_0, # of connection points: 4
#     Node 15, Type 0, BuildingBlock: KUFVIS_clean_sbu_0, # of connection points: 4
#     Edge 16, Type (0, 0), BuildingBlock: OJICUG_clean_linker_0, # of connection points: 2
#     Edge 17, Type (0, 0), BuildingBlock: OJICUG_clean_linker_0, # of connection points: 2
#     Edge 18, Type (0, 0), BuildingBlock: OJICUG_clean_linker_0, # of connection points: 2
#     Edge 19, Type (0, 0), BuildingBlock: OJICUG_clean_linker_0, # of connection points: 2
#     Edge 20, Type (0, 0), BuildingBlock: OJICUG_clean_linker_0, # of connection points: 2
#     Edge 21, Type (0, 0), BuildingBlock: OJICUG_clean_linker_0, # of connection points: 2
#     Edge 22, Type (0, 0), BuildingBlock: OJICUG_clean_linker_0, # of connection points: 2
#     Edge 23, Type (0, 0), BuildingBlock: OJICUG_clean_linker_0, # of connection points: 2
#     Edge 24, Type (0, 0), BuildingBlock: OJICUG_clean_linker_0, # of connection points: 2
#     Edge 25, Type (0, 0), BuildingBlock: OJICUG_clean_linker_0, # of connection points: 2
#     Edge 26, Type (0, 0), BuildingBlock: OJICUG_clean_linker_0, # of connection points: 2
#     Edge 27, Type (0, 0), BuildingBlock: OJICUG_clean_linker_0, # of connection points: 2
#     Edge 28, Type (0, 0), BuildingBlock: OJICUG_clean_linker_0, # of connection points: 2
#     Edge 29, Type (0, 0), BuildingBlock: OJICUG_clean_linker_0, # of connection points: 2
#     Edge 30, Type (0, 0), BuildingBlock: OJICUG_clean_linker_0, # of connection points: 2
#     Edge 31, Type (0, 0), BuildingBlock: OJICUG_clean_linker_0, # of connection points: 2
#     Edge 32, Type (0, 0), BuildingBlock: OJICUG_clean_linker_0, # of connection points: 2
#     Edge 33, Type (0, 0), BuildingBlock: OJICUG_clean_linker_0, # of connection points: 2
#     Edge 34, Type (0, 0), BuildingBlock: OJICUG_clean_linker_0, # of connection points: 2
#     Edge 35, Type (0, 0), BuildingBlock: OJICUG_clean_linker_0, # of connection points: 2
#     Edge 36, Type (0, 0), BuildingBlock: OJICUG_clean_linker_0, # of connection points: 2
#     Edge 37, Type (0, 0), BuildingBlock: OJICUG_clean_linker_0, # of connection points: 2
#     Edge 38, Type (0, 0), BuildingBlock: OJICUG_clean_linker_0, # of connection points: 2
#     Edge 39, Type (0, 0), BuildingBlock: OJICUG_clean_linker_0, # of connection points: 2
#     Edge 40, Type (0, 0), BuildingBlock: OJICUG_clean_linker_0, # of connection points: 2
#     Edge 41, Type (0, 0), BuildingBlock: OJICUG_clean_linker_0, # of connection points: 2
#     Edge 42, Type (0, 0), BuildingBlock: OJICUG_clean_linker_0, # of connection points: 2
#     Edge 43, Type (0, 0), BuildingBlock: OJICUG_clean_linker_0, # of connection points: 2
#     Edge 44, Type (0, 0), BuildingBlock: OJICUG_clean_linker_0, # of connection points: 2
#     Edge 45, Type (0, 0), BuildingBlock: OJICUG_clean_linker_0, # of connection points: 2
#     Edge 46, Type (0, 0), BuildingBlock: OJICUG_clean_linker_0, # of connection points: 2
#     Edge 47, Type (0, 0), BuildingBlock: OJICUG_clean_linker_0, # of connection points: 2
# Relax obj value: 0.171
# Max RMSD: 0.161
# Mean RMSD: 0.161
data_MOF--net-mon--node1-KUFVIS_clean_sbu_0--edge1-OJICUG_clean_linker_0
_symmetry_space_group_name_H-M    P1
_symmetry_Int_Tables_number       1
_symmetry_cell_setting            triclinic
loop_
_symmetry_equiv_pos_as_xyz
'x, y, z'
_cell_length_a     24.280893
_cell_length_b     24.235093
_cell_length_c     60.950031
_cell_angle_alpha  90.083001
_cell_angle_beta   89.90211
_cell_angle_gamma 89.945961
loop_
_atom_site_label
_atom_site_type_symbol
_atom_site_fract_x
_atom_site_fract_y
_atom_site_fract_z
_atom_type_partial_charge
Mn0 Mn 0.04085 0.02503 0.59719 0.0
Mn1 Mn 0.93312 0.07328 0.56804 0.0
C2 C 0.95248 0.02218 0.61185 0.0
C3 C 0.10101 0.95782 0.61118 0.0
C4 C 0.0159 0.14829 0.58914 0.0
O5 O 0.06974 0.0182 0.56597 0.0
O6 O 0.99797 0.05893 0.5487 0.0
C7 C 0.90957 0.97638 0.53982 0.0
N8 N 0.89255 0.01416 0.55496 0.0
C9 C 0.79957 0.97999 0.55344 0.0
C10 C 0.81618 0.94068 0.53787 0.0
C11 C 0.87143 0.9389 0.53104 0.0
C12 C 0.83929 0.01672 0.56142 0.0
H13 H 0.95181 0.97497 0.53437 0.0
C14 C 0.04595 0.03659 0.54878 0.0
O15 O 0.11416 1.00956 0.61024 0.0
O16 O 0.05351 0.94427 0.603 0.0
N17 N 0.86783 0.08721 0.58474 0.0
C18 C 0.85934 0.12517 0.6009 0.0
C19 C 0.80643 0.13133 0.60992 0.0
C20 C 0.76291 0.0985 0.60218 0.0
C21 C 0.7729 0.05903 0.58584 0.0
C22 C 0.82632 0.05512 0.57733 0.0
H23 H 0.89267 0.1507 0.60677 0.0
O24 O 0.99537 0.02845 0.62435 0.0
O25 O 0.96214 0.0231 0.59082 0.0
O26 O 0.04748 0.10964 0.59554 0.0
O27 O 0.96965 0.13923 0.5801 0.0
C28 C 0.73201 0.02314 0.57778 0.0
C29 C 0.74536 0.9836 0.56161 0.0
H30 H 0.78696 0.91148 0.53115 0.0
H31 H 0.88457 0.90876 0.51899 0.0
H32 H 0.7991 0.16152 0.6227 0.0
H33 H 0.72196 0.10383 0.6089 0.0
H34 H 0.69032 0.02521 0.58408 0.0
H35 H 0.71373 0.95581 0.55572 0.0
Mn36 Mn 0.28686 0.74027 0.84532 0.0
Mn37 Mn 0.23198 0.62031 0.82737 0.0
C38 C 0.29238 0.65968 0.86689 0.0
C39 C 0.35622 0.80535 0.85209 0.0
C40 C 0.16321 0.71932 0.84052 0.0
O41 O 0.28692 0.75117 0.81156 0.0
O42 O 0.25538 0.66637 0.80237 0.0
C43 C 0.32931 0.56647 0.80686 0.0
N44 N 0.28585 0.56491 0.821 0.0
C45 C 0.30465 0.47009 0.83007 0.0
C46 C 0.34842 0.47017 0.81503 0.0
C47 C 0.36125 0.51881 0.8036 0.0
C48 C 0.27451 0.51892 0.83271 0.0
H49 H 0.34103 0.60443 0.79902 0.0
C50 C 0.27487 0.71394 0.79729 0.0
O51 O 0.30469 0.81853 0.85128 0.0
O52 O 0.36852 0.75435 0.84748 0.0
N53 N 0.20894 0.5727 0.85056 0.0
C54 C 0.16911 0.58133 0.86595 0.0
C55 C 0.15258 0.53752 0.87945 0.0
C56 C 0.17696 0.48537 0.87689 0.0
C57 C 0.21909 0.47792 0.86138 0.0
C58 C 0.2337 0.52309 0.84836 0.0
H59 H 0.14949 0.62108 0.86766 0.0
O60 O 0.2908 0.70821 0.876 0.0
O61 O 0.28528 0.65992 0.84585 0.0
O62 O 0.20312 0.74934 0.84656 0.0
O63 O 0.16995 0.67094 0.83296 0.0
C64 C 0.24689 0.42747 0.85818 0.0
C65 C 0.2902 0.42377 0.84278 0.0
H66 H 0.37319 0.43351 0.81249 0.0
H67 H 0.39599 0.5197 0.79245 0.0
H68 H 0.12045 0.54367 0.89154 0.0
H69 H 0.16273 0.45143 0.88689 0.0
H70 H 0.23568 0.39139 0.86762 0.0
H71 H 0.31223 0.38516 0.84089 0.0
Mn72 Mn 0.5643 1.00657 0.0933 0.0
Mn73 Mn 0.67279 0.95256 0.06635 0.0
C74 C 0.65168 1.0111 0.1086 0.0
C75 C 0.50259 0.07455 0.10504 0.0
C76 C 0.58995 0.88234 0.08969 0.0
O77 O 0.53665 1.00726 0.06179 0.0
O78 O 0.60806 0.96139 0.04648 0.0
C79 C 0.69438 0.04471 0.03554 0.0
N80 N 0.71229 1.00969 0.05149 0.0
C81 C 0.80448 0.04559 0.04894 0.0
C82 C 0.787 0.08191 0.03247 0.0
C83 C 0.73169 0.0815 0.02577 0.0
C84 C 0.76553 1.00951 0.05795 0.0
H85 H 0.65203 0.04453 0.03023 0.0
C86 C 0.56036 0.98415 0.04546 0.0
O87 O 0.49025 0.02262 0.10516 0.0
O88 O 0.55044 0.0879 0.09703 0.0
N89 N 0.73832 0.94306 0.08329 0.0
C90 C 0.74763 0.90819 0.1004 0.0
C91 C 0.80075 0.90453 0.10937 0.0
C92 C 0.84362 0.93658 0.10058 0.0
C93 C 0.8328 0.97287 0.08326 0.0
C94 C 0.77926 0.97431 0.07484 0.0
H95 H 0.71482 0.88317 0.10705 0.0
O96 O 0.60792 1.00799 0.12085 0.0
O97 O 0.64338 1.00722 0.08751 0.0
O98 O 0.55819 0.92244 0.09417 0.0
O99 O 0.63682 0.88894 0.0807 0.0
C100 C 0.87298 1.00797 0.07414 0.0
C101 C 0.85879 0.04442 0.05703 0.0
H102 H 0.81559 0.11056 0.02498 0.0
H103 H 0.71785 0.10943 0.01308 0.0
H104 H 0.80876 0.87676 0.12288 0.0
H105 H 0.88478 0.93305 0.10718 0.0
H106 H 0.91475 1.00776 0.08036 0.0
H107 H 0.88984 0.07175 0.05036 0.0
Mn108 Mn 0.31582 0.28198 0.34661 0.0
Mn109 Mn 0.36833 0.38844 0.31792 0.0
C110 C 0.31265 0.37045 0.3611 0.0
C111 C 0.24808 0.22166 0.35935 0.0
C112 C 0.43952 0.30453 0.34038 0.0
O113 O 0.3117 0.25287 0.31545 0.0
O114 O 0.35468 0.32362 0.29835 0.0
C115 C 0.27566 0.41406 0.28799 0.0
N116 N 0.31146 0.43021 0.30395 0.0
C117 C 0.27873 0.52388 0.3021 0.0
C118 C 0.24144 0.50816 0.2857 0.0
C119 C 0.23999 0.45303 0.2786 0.0
C120 C 0.31395 0.48343 0.31058 0.0
H121 H 0.27452 0.37191 0.28231 0.0
C122 C 0.33142 0.276 0.29836 0.0
O123 O 0.2998 0.20872 0.35918 0.0
O124 O 0.23482 0.26955 0.35132 0.0
N125 N 0.38152 0.45354 0.33488 0.0
C126 C 0.41723 0.46108 0.35184 0.0
C127 C 0.42221 0.51361 0.36139 0.0
C128 C 0.39059 0.55773 0.35335 0.0
C129 C 0.35359 0.54876 0.33609 0.0
C130 C 0.35061 0.49563 0.32715 0.0
H131 H 0.44164 0.42723 0.35801 0.0
O132 O 0.31705 0.32749 0.37375 0.0
O133 O 0.31537 0.36067 0.34007 0.0
O134 O 0.39969 0.27422 0.34636 0.0
O135 O 0.43247 0.35066 0.33089 0.0
C136 C 0.31905 0.5903 0.32762 0.0
C137 C 0.28171 0.57789 0.3106 0.0
H138 H 0.21354 0.538 0.27854 0.0
H139 H 0.2115 0.4406 0.26588 0.0
H140 H 0.45046 0.52014 0.37486 0.0
H141 H 0.39484 0.59832 0.36059 0.0
H142 H 0.32047 0.63179 0.33422 0.0
H143 H 0.25499 0.61004 0.30437 0.0
Mn144 Mn 0.03511 1.00194 0.41259 0.0
Mn145 Mn 0.92838 0.9496 0.44106 0.0
C146 C 0.94698 1.00562 0.39809 0.0
C147 C 0.0959 0.06962 0.40017 0.0
C148 C 1.01062 0.87806 0.41776 0.0
O149 O 0.06439 1.00473 0.44372 0.0
O150 O 0.99379 0.96084 0.46042 0.0
C151 C 0.90621 0.04286 0.47139 0.0
N152 N 0.88851 1.00717 0.45561 0.0
C153 C 0.79581 0.04182 0.45839 0.0
C154 C 0.81311 0.07893 0.47464 0.0
C155 C 0.86855 0.07942 0.48116 0.0
C156 C 0.83508 1.00589 0.44942 0.0
H157 H 0.94863 0.0433 0.4766 0.0
C158 C 0.04152 0.98365 0.46059 0.0
O159 O 0.10842 0.01769 0.40005 0.0
O160 O 0.04821 0.08307 0.40833 0.0
N161 N 0.86249 0.93823 0.42453 0.0
C162 C 0.85329 0.90251 0.40765 0.0
C163 C 0.8001 0.89803 0.39881 0.0
C164 C 0.75703 0.93015 0.40749 0.0
C165 C 0.76772 0.96726 0.42459 0.0
C166 C 0.82139 0.96961 0.43286 0.0
H167 H 0.88629 0.87753 0.40106 0.0
O168 O 0.99004 1.00166 0.38547 0.0
O169 O 0.95644 1.00286 0.41913 0.0
O170 O 0.04174 0.91781 0.41234 0.0
O171 O 0.9645 0.88528 0.42727 0.0
C172 C 0.7273 1.00237 0.43362 0.0
C173 C 0.74135 0.03966 0.45049 0.0
H174 H 0.78425 0.10743 0.48213 0.0
H175 H 0.88222 0.10786 0.49373 0.0
H176 H 0.79222 0.86966 0.38546 0.0
H177 H 0.71586 0.92607 0.40094 0.0
H178 H 0.68541 1.00145 0.42753 0.0
H179 H 0.71006 0.06689 0.45713 0.0
Mn180 Mn 0.32363 0.73932 0.65761 0.0
Mn181 Mn 0.38185 0.62046 0.67511 0.0
C182 C 0.31802 0.65819 0.63635 0.0
C183 C 0.25241 0.80278 0.65124 0.0
C184 C 0.44809 0.71999 0.66107 0.0
O185 O 0.32513 0.75083 0.69132 0.0
O186 O 0.36026 0.66726 0.70018 0.0
C187 C 0.28827 0.566 0.69781 0.0
N188 N 0.32925 0.56482 0.68253 0.0
C189 C 0.30939 0.47009 0.67361 0.0
C190 C 0.26776 0.47 0.68958 0.0
C191 C 0.25681 0.51834 0.70158 0.0
C192 C 0.33918 0.51889 0.67051 0.0
H193 H 0.27842 0.60352 0.70646 0.0
C194 C 0.3397 0.71431 0.70547 0.0
O195 O 0.30368 0.81705 0.6516 0.0
O196 O 0.24152 0.75168 0.65611 0.0
N197 N 0.40303 0.57246 0.65171 0.0
C198 C 0.44123 0.58101 0.63568 0.0
C199 C 0.45591 0.53733 0.62172 0.0
C200 C 0.43139 0.48537 0.62447 0.0
C201 C 0.39109 0.47797 0.64072 0.0
C202 C 0.37824 0.52301 0.65416 0.0
H203 H 0.4609 0.62065 0.63377 0.0
O204 O 0.31848 0.70644 0.62705 0.0
O205 O 0.32664 0.6591 0.65729 0.0
O206 O 0.40733 0.74981 0.6557 0.0
O207 O 0.44253 0.6714 0.66845 0.0
C208 C 0.36344 0.42766 0.64423 0.0
C209 C 0.32209 0.42391 0.66046 0.0
H210 H 0.24337 0.43334 0.69252 0.0
H211 H 0.224 0.51894 0.71362 0.0
H212 H 0.48668 0.54344 0.60909 0.0
H213 H 0.44411 0.45152 0.61405 0.0
H214 H 0.37339 0.3917 0.63445 0.0
H215 H 0.30024 0.38536 0.66265 0.0
Mn216 Mn 0.56295 0.02944 0.9078 0.0
Mn217 Mn 0.6716 0.06918 0.93849 0.0
C218 C 0.65243 0.0269 0.89303 0.0
C219 C 0.50281 0.96306 0.89323 0.0
C220 C 0.58843 0.14995 0.92007 0.0
O221 O 0.53281 0.02111 0.93901 0.0
O222 O 0.60902 0.04736 0.95755 0.0
C223 C 0.69709 0.96079 0.95848 0.0
N224 N 0.71335 1.00548 0.9466 0.0
C225 C 0.80536 0.96952 0.94312 0.0
C226 C 0.78965 0.9232 0.95538 0.0
C227 C 0.73523 0.91877 0.96304 0.0
C228 C 0.76546 1.00991 0.93899 0.0
H229 H 0.65535 0.95723 0.96441 0.0
C230 C 0.55909 0.03048 0.95679 0.0
O231 O 0.48959 0.01486 0.89433 0.0
O232 O 0.54994 0.9493 0.90157 0.0
N233 N 0.73558 0.09086 0.92232 0.0
C234 C 0.74371 0.13742 0.91023 0.0
C235 C 0.79631 0.14865 0.9017 0.0
C236 C 0.84003 0.11207 0.90578 0.0
C237 C 0.83071 0.06444 0.91827 0.0
C238 C 0.77758 0.0558 0.92659 0.0
H239 H 0.71038 0.16585 0.90717 0.0
O240 O 0.60953 0.03346 0.8806 0.0
O241 O 0.64138 0.02655 0.91387 0.0
O242 O 0.55888 0.1138 0.9105 0.0
O243 O 0.63207 0.13801 0.93071 0.0
C244 C 0.87172 0.02466 0.92244 0.0
C245 C 0.85897 0.97707 0.93474 0.0
H246 H 0.81897 0.89074 0.95896 0.0
H247 H 0.72274 0.8831 0.97248 0.0
H248 H 0.80315 0.18541 0.89201 0.0
H249 H 0.88047 0.12079 0.89913 0.0
H250 H 0.91302 0.02994 0.91602 0.0
H251 H 0.89069 0.9465 0.93765 0.0
Mn252 Mn 0.28474 0.28357 0.16279 0.0
Mn253 Mn 0.23229 0.38837 0.19263 0.0
C254 C 0.28731 0.37289 0.14918 0.0
C255 C 0.35208 0.22406 0.14879 0.0
C256 C 0.16097 0.30566 0.16959 0.0
O257 O 0.29025 0.25295 0.19367 0.0
O258 O 0.24627 0.32232 0.2114 0.0
C259 C 0.32515 0.41203 0.22276 0.0
N260 N 0.28912 0.42923 0.20706 0.0
C261 C 0.32088 0.52296 0.2103 0.0
C262 C 0.35839 0.50615 0.22644 0.0
C263 C 0.36046 0.45045 0.23271 0.0
C264 C 0.2861 0.48296 0.20121 0.0
H265 H 0.32671 0.36947 0.22782 0.0
C266 C 0.27026 0.27504 0.21098 0.0
O267 O 0.30044 0.21106 0.14933 0.0
O268 O 0.36563 0.27138 0.1573 0.0
N269 N 0.21878 0.45464 0.1765 0.0
C270 C 0.18286 0.46338 0.15972 0.0
C271 C 0.17714 0.51671 0.15102 0.0
C272 C 0.20823 0.56038 0.15975 0.0
C273 C 0.24554 0.55018 0.17678 0.0
C274 C 0.24927 0.49629 0.18485 0.0
H275 H 0.15874 0.42989 0.15306 0.0
O276 O 0.2823 0.33062 0.13616 0.0
O277 O 0.2852 0.36202 0.17012 0.0
O278 O 0.20083 0.27546 0.16347 0.0
O279 O 0.16806 0.35157 0.17927 0.0
C280 C 0.27959 0.59127 0.18589 0.0
C281 C 0.3172 0.57768 0.20266 0.0
H282 H 0.38596 0.53559 0.23405 0.0
H283 H 0.38911 0.43717 0.24522 0.0
H284 H 0.14865 0.52422 0.13772 0.0
H285 H 0.20326 0.60162 0.15325 0.0
H286 H 0.27758 0.63334 0.17996 0.0
H287 H 0.34353 0.60951 0.20939 0.0
Mn288 Mn 0.81391 0.24729 0.16159 0.0
Mn289 Mn 0.86437 0.13766 0.18896 0.0
C290 C 0.8102 0.16008 0.14581 0.0
C291 C 0.74639 0.30938 0.15008 0.0
C292 C 0.93729 0.22298 0.16802 0.0
O293 O 0.80981 0.27383 0.19314 0.0
O294 O 0.84999 0.20037 0.20943 0.0
C295 C 0.76844 0.11043 0.21708 0.0
N296 N 0.80615 0.09515 0.20164 0.0
C297 C 0.7727 1.00168 0.20173 0.0
C298 C 0.73352 0.01647 0.21762 0.0
C299 C 0.73137 0.0711 0.22531 0.0
C300 C 0.80887 0.04257 0.19427 0.0
H301 H 0.76673 0.15221 0.22316 0.0
C302 C 0.82806 0.24857 0.20997 0.0
O303 O 0.79821 0.32189 0.15016 0.0
O304 O 0.73305 0.26072 0.1573 0.0
N305 N 0.87852 0.0741 0.1712 0.0
C306 C 0.91656 0.0674 0.15496 0.0
C307 C 0.92347 0.01519 0.14531 0.0
C308 C 0.89128 0.97057 0.1525 0.0
C309 C 0.85158 0.97877 0.16888 0.0
C310 C 0.847 0.03152 0.17806 0.0
H311 H 0.94173 0.10153 0.14957 0.0
O312 O 0.81489 0.20417 0.1338 0.0
O313 O 0.81278 0.16807 0.16695 0.0
O314 O 0.89793 0.25386 0.16195 0.0
O315 O 0.92949 0.17646 0.17715 0.0
C316 C 0.81631 0.93671 0.17641 0.0
C317 C 0.77677 0.9482 0.19278 0.0
H318 H 0.70468 0.98632 0.22393 0.0
H319 H 0.70129 0.08284 0.23758 0.0
H320 H 0.95384 1.00923 0.1325 0.0
H321 H 0.89737 0.93009 0.14537 0.0
H322 H 0.81888 0.89551 0.16956 0.0
H323 H 0.74943 0.9157 0.19825 0.0
Mn324 Mn 0.79434 0.77861 0.66363 0.0
Mn325 Mn 0.7413 0.88791 0.69059 0.0
C326 C 0.79958 0.866 0.64831 0.0
C327 C 0.86169 0.71622 0.65175 0.0
C328 C 0.67041 0.80484 0.66758 0.0
O329 O 0.79535 0.75134 0.6952 0.0
O330 O 0.75094 0.82361 0.7107 0.0
C331 C 0.83374 0.91086 0.721 0.0
N332 N 0.7985 0.92815 0.70505 0.0
C333 C 0.83435 0.02061 0.70687 0.0
C334 C 0.87091 1.00377 0.72334 0.0
C335 C 0.87062 0.94864 0.73042 0.0
C336 C 0.79809 0.98125 0.69827 0.0
H337 H 0.83369 0.86865 0.72658 0.0
C338 C 0.77344 0.77569 0.71166 0.0
O339 O 0.80979 0.70418 0.6518 0.0
O340 O 0.87541 0.76409 0.65971 0.0
N341 N 0.73138 0.95293 0.67329 0.0
C342 C 0.69661 0.96141 0.6561 0.0
C343 C 0.69316 0.01411 0.64665 0.0
C344 C 0.72534 0.05742 0.65502 0.0
C345 C 0.76148 0.04745 0.67245 0.0
C346 C 0.76275 0.99428 0.68136 0.0
H347 H 0.67161 0.92823 0.64973 0.0
O348 O 0.79583 0.82219 0.63607 0.0
O349 O 0.79553 0.8578 0.66939 0.0
O350 O 0.71034 0.77312 0.66285 0.0
O351 O 0.67728 0.8515 0.67675 0.0
C352 C 0.79676 0.08804 0.68117 0.0
C353 C 0.83323 0.0746 0.69834 0.0
H354 H 0.8997 0.0327 0.73054 0.0
H355 H 0.89875 0.9353 0.74311 0.0
H356 H 0.66555 0.02142 0.63304 0.0
H357 H 0.72213 0.09822 0.64794 0.0
H358 H 0.79668 0.12953 0.67458 0.0
H359 H 0.86073 0.10595 0.70469 0.0
Mn360 Mn 0.78626 0.2447 0.34645 0.0
Mn361 Mn 0.73475 0.13581 0.31887 0.0
C362 C 0.78993 0.15732 0.36187 0.0
C363 C 0.85395 0.30637 0.35804 0.0
C364 C 0.66275 0.22089 0.34054 0.0
O365 O 0.78971 0.27175 0.31502 0.0
O366 O 0.74843 0.199 0.29861 0.0
C367 C 0.82955 0.10896 0.29003 0.0
N368 N 0.79246 0.09344 0.30565 0.0
C369 C 0.82606 0.99997 0.30501 0.0
C370 C 0.86459 0.015 0.28894 0.0
C371 C 0.86633 0.06974 0.28143 0.0
C372 C 0.79003 0.04071 0.3128 0.0
H373 H 0.83099 0.15084 0.2841 0.0
C374 C 0.77069 0.24704 0.29816 0.0
O375 O 0.80214 0.31901 0.35811 0.0
O376 O 0.86722 0.25783 0.35058 0.0
N377 N 0.72129 0.07191 0.33644 0.0
C378 C 0.68432 0.06512 0.35305 0.0
C379 C 0.67836 0.01294 0.36275 0.0
C380 C 0.71037 0.96842 0.35523 0.0
C381 C 0.74888 0.97669 0.33842 0.0
C382 C 0.75259 0.02942 0.32923 0.0
H383 H 0.6594 0.09922 0.35875 0.0
O384 O 0.78572 0.20121 0.37407 0.0
O385 O 0.78705 0.16561 0.34077 0.0
O386 O 0.70235 0.25161 0.34643 0.0
O387 O 0.67011 0.17444 0.33125 0.0
C388 C 0.78401 0.93477 0.33056 0.0
C389 C 0.82265 0.94643 0.31389 0.0
H390 H 0.89328 0.98496 0.28236 0.0
H391 H 0.89593 0.08166 0.26902 0.0
H392 H 0.64892 1.00693 0.37589 0.0
H393 H 0.70513 0.928 0.36246 0.0
H394 H 0.78208 0.89358 0.33739 0.0
H395 H 0.84992 0.91405 0.30817 0.0
Mn396 Mn 0.81794 0.77782 0.8493 0.0
Mn397 Mn 0.86131 0.88708 0.81971 0.0
C398 C 0.81398 0.86687 0.86437 0.0
C399 C 0.75179 0.71602 0.86244 0.0
C400 C 0.93932 0.80297 0.83918 0.0
O401 O 0.81248 0.7487 0.81786 0.0
O402 O 0.84085 0.82522 0.79995 0.0
C403 C 0.75549 0.91425 0.79811 0.0
N404 N 0.7989 0.92971 0.81084 0.0
C405 C 0.76313 0.02191 0.81443 0.0
C406 C 0.71813 1.00702 0.80131 0.0
C407 C 0.71425 0.95291 0.79316 0.0
C408 C 0.80279 0.98152 0.8189 0.0
H409 H 0.75234 0.87275 0.7918 0.0
C410 C 0.82344 0.77534 0.80031 0.0
O411 O 0.80372 0.70374 0.86191 0.0
O412 O 0.73767 0.76358 0.85445 0.0
N413 N 0.88172 0.95038 0.83662 0.0
C414 C 0.92697 0.95769 0.8495 0.0
C415 C 0.93751 1.00991 0.85861 0.0
C416 C 0.90163 0.05408 0.85429 0.0
C417 C 0.85536 0.0456 0.84097 0.0
C418 C 0.84735 0.99282 0.83212 0.0
H419 H 0.95494 0.92403 0.85272 0.0
O420 O 0.8193 0.82356 0.87673 0.0
O421 O 0.81567 0.85646 0.84348 0.0
O422 O 0.90182 0.77397 0.84804 0.0
O423 O 0.92916 0.84676 0.8283 0.0
C424 C 0.81629 0.08708 0.8365 0.0
C425 C 0.77003 0.07516 0.82334 0.0
H426 H 0.68627 0.03675 0.79743 0.0
H427 H 0.67961 0.94106 0.78305 0.0
H428 H 0.97322 0.01611 0.86892 0.0
H429 H 0.90982 0.09422 0.86139 0.0
H430 H 0.82108 0.12811 0.84331 0.0
H431 H 0.74 0.10724 0.82018 0.0
Mn432 Mn 0.53194 0.53504 0.1016 0.0
Mn433 Mn 0.42552 0.58606 0.07246 0.0
C434 C 0.44318 0.53041 0.11566 0.0
C435 C 0.5925 0.46683 0.11378 0.0
C436 C 0.50845 0.65865 0.09499 0.0
O437 O 0.56212 0.53236 0.07061 0.0
O438 O 0.49025 0.57194 0.05301 0.0
C439 C 0.40039 0.49163 0.04321 0.0
N440 N 0.38404 0.52842 0.05885 0.0
C441 C 0.29081 0.49492 0.05743 0.0
C442 C 0.30671 0.45662 0.04135 0.0
C443 C 0.36172 0.45503 0.0342 0.0
C444 C 0.33097 0.53094 0.06556 0.0
H445 H 0.44251 0.49034 0.03756 0.0
C446 C 0.53871 0.55061 0.05336 0.0
O447 O 0.60498 0.51876 0.11433 0.0
O448 O 0.54484 0.45387 0.10557 0.0
N449 N 0.36062 0.59979 0.08943 0.0
C450 C 0.353 0.63641 0.10614 0.0
C451 C 0.30055 0.64184 0.11566 0.0
C452 C 0.25662 0.60968 0.10785 0.0
C453 C 0.26571 0.57164 0.0909 0.0
C454 C 0.31871 0.56835 0.08193 0.0
H455 H 0.3867 0.66128 0.11212 0.0
O456 O 0.48563 0.53479 0.12854 0.0
O457 O 0.45366 0.53384 0.09472 0.0
O458 O 0.5385 0.6193 0.10175 0.0
O459 O 0.46318 0.65078 0.08502 0.0
C460 C 0.22441 0.53641 0.08272 0.0
C461 C 0.23695 0.49808 0.06599 0.0
H462 H 0.27712 0.428 0.03449 0.0
H463 H 0.37429 0.42567 0.02176 0.0
H464 H 0.29392 0.67091 0.12891 0.0
H465 H 0.21606 0.61441 0.11499 0.0
H466 H 0.18303 0.53802 0.08936 0.0
H467 H 0.20502 0.47076 0.06002 0.0
Mn468 Mn 0.06677 0.49875 0.5912 0.0
Mn469 Mn 0.1678 0.44891 0.55869 0.0
C470 C 0.15812 0.5037 0.60247 0.0
C471 C 1.00819 0.56551 0.6064 0.0
C472 C 0.08936 0.37527 0.58345 0.0
O473 O 0.03104 0.50283 0.56112 0.0
O474 O 0.10051 0.46522 0.54127 0.0
C475 C 0.19009 0.54425 0.52958 0.0
N476 N 0.20801 0.50674 0.54459 0.0
C477 C 0.30184 0.53697 0.54032 0.0
C478 C 0.28429 0.57615 0.52493 0.0
C479 C 0.22817 0.57979 0.51954 0.0
C480 C 0.26201 0.5026 0.54974 0.0
H481 H 0.1472 0.5467 0.52511 0.0
C482 C 0.05216 0.48625 0.54307 0.0
O483 O 0.99633 0.51348 0.60648 0.0
O484 O 0.05364 0.57972 0.59661 0.0
N485 N 0.23493 0.43292 0.57364 0.0
C486 C 0.2449 0.39309 0.58886 0.0
C487 C 0.29914 0.38311 0.59563 0.0
C488 C 0.34242 0.41442 0.58679 0.0
C489 C 0.331 0.4562 0.57158 0.0
C490 C 0.2762 0.46363 0.56519 0.0
H491 H 0.21184 0.36842 0.59549 0.0
O492 O 0.11805 0.49813 0.6165 0.0
O493 O 0.14398 0.50094 0.58191 0.0
O494 O 0.0607 0.41439 0.59132 0.0
O495 O 0.13166 0.38366 0.57164 0.0
C496 C 0.37187 0.49012 0.56225 0.0
C497 C 0.35727 0.53063 0.54668 0.0
H498 H 0.31354 0.60355 0.51711 0.0
H499 H 0.21435 0.60961 0.50755 0.0
H500 H 0.30762 0.35076 0.60737 0.0
H501 H 0.3843 0.40542 0.59158 0.0
H502 H 0.41464 0.48543 0.56694 0.0
H503 H 0.38902 0.55658 0.53966 0.0
Mn504 Mn 0.53787 0.50021 0.91806 0.0
Mn505 Mn 0.4314 0.45179 0.94796 0.0
C506 C 0.4485 0.50605 0.90441 0.0
C507 C 0.59947 0.56649 0.90485 0.0
C508 C 0.51414 0.37717 0.92571 0.0
O509 O 0.56861 0.5037 0.94902 0.0
O510 O 0.49497 0.4693 0.96727 0.0
C511 C 0.40316 0.54922 0.9752 0.0
N512 N 0.38825 0.51021 0.96024 0.0
C513 C 0.29391 0.54083 0.96102 0.0
C514 C 0.30834 0.58154 0.97633 0.0
C515 C 0.36321 0.58576 0.98344 0.0
C516 C 0.3355 0.50562 0.95339 0.0
H517 H 0.4451 0.55225 0.98091 0.0
C518 C 0.54402 0.48893 0.96659 0.0
O519 O 0.61091 0.51435 0.90481 0.0
O520 O 0.55243 0.581 0.91333 0.0
N521 N 0.36757 0.43461 0.93105 0.0
C522 C 0.36088 0.39384 0.9159 0.0
C523 C 0.30818 0.38303 0.90759 0.0
C524 C 0.2631 0.4145 0.91484 0.0
C525 C 0.27129 0.45747 0.9299 0.0
C526 C 0.3246 0.46559 0.93792 0.0
H527 H 0.39529 0.36906 0.91049 0.0
O528 O 0.49071 0.50045 0.89141 0.0
O529 O 0.45942 0.50294 0.92527 0.0
O530 O 0.54333 0.4159 0.91797 0.0
O531 O 0.47048 0.38601 0.93669 0.0
C532 C 0.22859 0.49198 0.93751 0.0
C533 C 0.23997 0.53387 0.95296 0.0
H534 H 0.27765 0.60977 0.98275 0.0
H535 H 0.37461 0.6169 0.99533 0.0
H536 H 0.30219 0.34996 0.89589 0.0
H537 H 0.22234 0.40475 0.90894 0.0
H538 H 0.18692 0.48679 0.93154 0.0
H539 H 0.2069 0.56042 0.95858 0.0
Mn540 Mn 0.06661 0.52997 0.409 0.0
Mn541 Mn 0.17108 0.58127 0.43898 0.0
C542 C 0.15585 0.52581 0.39557 0.0
C543 C 1.00672 0.46228 0.39596 0.0
C544 C 0.09079 0.6536 0.41526 0.0
O545 O 0.0347 0.5268 0.43964 0.0
O546 O 0.10397 0.56987 0.45749 0.0
C547 C 0.19106 0.48896 0.46984 0.0
N548 N 0.20975 0.52372 0.45393 0.0
C549 C 0.3023 0.48947 0.45787 0.0
C550 C 0.28396 0.45325 0.47424 0.0
C551 C 0.22811 0.45307 0.48027 0.0
C552 C 0.26365 0.52497 0.44832 0.0
H553 H 0.14836 0.4889 0.47474 0.0
C554 C 0.05611 0.54731 0.4569 0.0
O555 O 0.9943 0.51425 0.39559 0.0
O556 O 0.0539 0.44894 0.40451 0.0
N557 N 0.23821 0.59247 0.42315 0.0
C558 C 0.24852 0.62753 0.40619 0.0
C559 C 0.30213 0.63112 0.39762 0.0
C560 C 0.34449 0.59888 0.40667 0.0
C561 C 0.33272 0.56266 0.42395 0.0
C562 C 0.27859 0.56094 0.43184 0.0
H563 H 0.21602 0.65247 0.39926 0.0
O564 O 0.11389 0.5305 0.38246 0.0
O565 O 0.14469 0.52843 0.41651 0.0
O566 O 0.06004 0.61419 0.40913 0.0
O567 O 0.1363 0.64584 0.42506 0.0
C568 C 0.37243 0.52771 0.43346 0.0
C569 C 0.35726 0.49125 0.45045 0.0
H570 H 0.31234 0.42526 0.48223 0.0
H571 H 0.21367 0.42548 0.49298 0.0
H572 H 0.31084 0.6588 0.38414 0.0
H573 H 0.38591 0.60207 0.4002 0.0
H574 H 0.41466 0.52819 0.4277 0.0
H575 H 0.38807 0.46428 0.45752 0.0
C576 C 0.99743 0.25016 0.59174 0.0
C577 C 0.03535 0.20634 0.59046 0.0
H578 H 0.98485 0.33774 0.59103 0.0
C579 C 0.09168 0.21877 0.58834 0.0
H580 H 0.95376 0.24196 0.59336 0.0
C581 C 0.10939 0.27363 0.58647 0.0
C582 C 0.07132 0.31741 0.58724 0.0
H583 H 0.12189 0.18599 0.58711 0.0
H584 H 0.15285 0.28172 0.5841 0.0
C585 C 0.01528 0.30504 0.59044 0.0
C586 C 1.00738 0.72612 0.84359 0.0
C587 C 0.997 0.78278 0.8407 0.0
H588 H 0.06763 0.66178 0.84553 0.0
C589 C 0.04203 0.81888 0.83865 0.0
H590 H 0.97371 0.69707 0.84509 0.0
C591 C 0.09618 0.79863 0.8394 0.0
C592 C 0.10633 0.74172 0.84162 0.0
H593 H 0.03544 0.86273 0.83645 0.0
H594 H 0.13005 0.82732 0.83754 0.0
C595 C 0.06128 0.7058 0.84378 0.0
C596 C 0.58636 0.72654 0.09678 0.0
C597 C 0.52935 0.71601 0.09676 0.0
H598 H 0.65036 0.78725 0.0943 0.0
C599 C 0.49278 0.76092 0.09613 0.0
H600 H 0.61566 0.69281 0.09708 0.0
C601 C 0.51267 0.81499 0.09487 0.0
C602 C 0.56963 0.82543 0.09371 0.0
H603 H 0.44867 0.75421 0.09611 0.0
H604 H 0.48322 0.84849 0.09384 0.0
C605 C 0.60628 0.78062 0.09503 0.0
C606 C 0.56059 0.20572 0.34333 0.0
C607 C 0.60567 0.24202 0.34305 0.0
H608 H 0.4728 0.19702 0.34321 0.0
C609 C 0.59553 0.29921 0.34358 0.0
H610 H 0.567 0.16148 0.343 0.0
C611 C 0.54158 0.31962 0.34331 0.0
C612 C 0.4965 0.28332 0.343 0.0
H613 H 0.62933 0.32835 0.34327 0.0
H614 H 0.53518 0.36386 0.34296 0.0
C615 C 0.50661 0.22614 0.34355 0.0
C616 C 0.9939 0.77627 0.41358 0.0
C617 C 0.03081 0.82087 0.41436 0.0
H618 H 0.98397 0.68848 0.41268 0.0
C619 C 0.08771 0.80998 0.41343 0.0
H620 H 0.94985 0.78329 0.41417 0.0
C621 C 0.10731 0.75566 0.41294 0.0
C622 C 0.07043 0.71101 0.41286 0.0
H623 H 0.11729 0.84338 0.41408 0.0
H624 H 0.15137 0.74859 0.41311 0.0
C625 C 0.0135 0.72196 0.41259 0.0
C626 C 0.51408 0.80012 0.66227 0.0
C627 C 0.50466 0.74311 0.66 0.0
H628 H 0.57379 0.86451 0.66667 0.0
C629 C 0.55026 0.70751 0.65862 0.0
H630 H 0.47982 0.82862 0.66349 0.0
C631 C 0.60388 0.72802 0.66017 0.0
C632 C 0.61345 0.78465 0.66354 0.0
H633 H 0.54451 0.66341 0.65678 0.0
H634 H 0.6378 0.69899 0.65955 0.0
C635 C 0.56791 0.82063 0.66422 0.0
C636 C 0.5896 0.30682 0.92204 0.0
C637 C 0.53302 0.3193 0.92272 0.0
H638 H 0.65151 0.24362 0.92112 0.0
C639 C 0.49494 0.27573 0.92155 0.0
H640 H 0.61997 0.33943 0.92308 0.0
C641 C 0.51303 0.22094 0.91982 0.0
C642 C 0.56961 0.20833 0.91989 0.0
H643 H 0.45111 0.28397 0.92205 0.0
H644 H 0.48264 0.18828 0.91918 0.0
C645 C 0.60768 0.25193 0.92098 0.0
C646 C 0.05892 0.32124 0.16645 0.0
C647 C 0.10392 0.28474 0.16677 0.0
H648 H 0.97117 0.33037 0.16608 0.0
C649 C 0.09364 0.22762 0.16589 0.0
H650 H 0.06543 0.36543 0.16704 0.0
C651 C 0.03958 0.20744 0.16574 0.0
C652 C 0.99455 0.24394 0.16595 0.0
H653 H 0.12736 0.19834 0.16623 0.0
H654 H 0.03304 0.16323 0.16581 0.0
C655 C 1.00489 0.30109 0.16579 0.0
C656 C 0.0657 0.9533 0.49833 0.0
C657 C 0.06501 0.99495 0.48236 0.0
H658 H 0.06371 0.9346 0.53266 0.0
C659 C 0.07248 0.05008 0.48882 0.0
H660 H 0.05926 0.91061 0.4937 0.0
C661 C 0.07309 0.06394 0.5111 0.0
C662 C 0.06843 0.02263 0.52709 0.0
H663 H 0.07106 0.08294 0.4768 0.0
H664 H 0.07205 0.10708 0.51578 0.0
C665 C 0.0685 0.96704 0.52059 0.0
C666 C 0.2974 0.77015 0.76248 0.0
C667 C 0.29131 0.71973 0.77383 0.0
H668 H 0.31552 0.80895 0.73122 0.0
C669 C 0.3024 0.67069 0.76245 0.0
H670 H 0.28895 0.80886 0.77071 0.0
C671 C 0.32149 0.67102 0.74124 0.0
C672 C 0.3254 0.72009 0.72919 0.0
H673 H 0.29672 0.63065 0.7698 0.0
H674 H 0.33175 0.63129 0.73427 0.0
C675 C 0.31286 0.77022 0.73998 0.0
C676 C 0.52425 0.04495 0.01598 0.0
C677 C 0.5376 0.99159 0.02322 0.0
H678 H 0.52035 0.09953 0.98832 0.0
C679 C 0.54314 0.94902 0.00769 0.0
H680 H 0.52074 0.07865 0.0276 0.0
C681 C 0.5412 0.96074 0.98525 0.0
C682 C 0.535 0.01534 0.97806 0.0
H683 H 0.55395 0.90767 0.01289 0.0
H684 H 0.55111 0.92827 0.97365 0.0
C685 C 0.52387 0.05692 0.9935 0.0
C686 C 0.34129 0.24963 0.23805 0.0
C687 C 0.28525 0.25216 0.23247 0.0
H688 H 0.40049 0.25603 0.26403 0.0
C689 C 0.24543 0.24883 0.24911 0.0
H690 H 0.37269 0.25329 0.22548 0.0
C691 C 0.26143 0.24829 0.27113 0.0
C692 C 0.3173 0.25334 0.27671 0.0
H693 H 0.20203 0.25164 0.24516 0.0
H694 H 0.22989 0.25074 0.2837 0.0
C695 C 0.35725 0.25139 0.26007 0.0
C696 C 0.8547 0.27248 0.24813 0.0
C697 C 0.81405 0.26974 0.23185 0.0
H698 H 0.87182 0.2705 0.28258 0.0
C699 C 0.7583 0.27231 0.23791 0.0
H700 H 0.89789 0.26956 0.24376 0.0
C701 C 0.74338 0.27069 0.26006 0.0
C702 C 0.7841 0.26871 0.27633 0.0
H703 H 0.72633 0.26905 0.22559 0.0
H704 H 0.70029 0.26646 0.2644 0.0
C705 C 0.83975 0.2731 0.27028 0.0
C706 C 0.74061 0.758 0.74971 0.0
C707 C 0.78253 0.75358 0.73389 0.0
H708 H 0.72115 0.7653 0.7839 0.0
C709 C 0.83657 0.74226 0.74077 0.0
H710 H 0.69878 0.76742 0.74479 0.0
C711 C 0.84957 0.74256 0.76314 0.0
C712 C 0.80836 0.75215 0.77887 0.0
H713 H 0.86977 0.73977 0.7289 0.0
H714 H 0.89239 0.74039 0.76804 0.0
C715 C 0.75337 0.75655 0.77207 0.0
C716 C 0.56669 0.56125 0.99334 0.0
C717 C 0.56715 0.50502 0.98781 0.0
H718 H 0.55657 0.62041 0.01923 0.0
C719 C 0.57215 0.46545 0.00445 0.0
H720 H 0.56159 0.59231 0.98072 0.0
C721 C 0.57114 0.48167 0.02645 0.0
C722 C 0.56297 0.53737 0.03193 0.0
H723 H 0.57141 0.42185 1.00048 0.0
H724 H 0.56982 0.45011 0.03902 0.0
C725 C 0.56355 0.57733 0.01532 0.0
C726 C 0.02734 0.55882 0.51684 0.0
C727 C 0.02655 0.50258 0.52232 0.0
H728 H 0.03834 0.61775 0.491 0.0
C729 C 0.02033 0.46315 0.50565 0.0
H730 H 0.03326 0.58981 0.52946 0.0
C731 C 0.02135 0.47933 0.48366 0.0
C732 C 0.03078 0.53481 0.47822 0.0
H733 H 0.02066 0.41954 0.50955 0.0
H734 H 0.02211 0.44768 0.47108 0.0
C735 C 0.0306 0.57482 0.49486 0.0
C736 C 0.15863 0.82451 0.63543 0.0
C737 C 0.21034 0.84224 0.64308 0.0
H738 H 0.08346 0.84692 0.61902 0.0
C739 C 0.22464 0.89807 0.64059 0.0
H740 H 0.14662 0.78164 0.63691 0.0
C741 C 0.18903 0.93502 0.63028 0.0
C742 C 0.13798 0.91733 0.62206 0.0
H743 H 0.26412 0.91323 0.64624 0.0
H744 H 0.20199 0.97755 0.62855 0.0
C745 C 0.12277 0.86174 0.62498 0.0
C746 C 0.44882 0.82925 0.86829 0.0
C747 C 0.39691 0.84585 0.86051 0.0
H748 H 0.52293 0.8531 0.88503 0.0
C749 C 0.38113 0.90135 0.8631 0.0
H750 H 0.46198 0.7867 0.86674 0.0
C751 C 0.41558 0.93906 0.87366 0.0
C752 C 0.46678 0.92235 0.88202 0.0
H753 H 0.34141 0.91562 0.85735 0.0
H754 H 0.40164 0.98129 0.87549 0.0
C755 C 0.48342 0.86715 0.87898 0.0
C756 C 0.41069 0.09857 0.12034 0.0
C757 C 0.46456 0.11511 0.11517 0.0
H758 H 0.3338 0.11948 0.13507 0.0
C759 C 0.48193 0.16833 0.12129 0.0
H760 H 0.39594 0.05787 0.11593 0.0
C761 C 0.44601 0.20394 0.13264 0.0
C762 C 0.39215 0.18691 0.13784 0.0
H763 H 0.52343 0.182 0.1177 0.0
H764 H 0.46021 0.24473 0.13718 0.0
C765 C 0.37502 0.13395 0.13144 0.0
C766 C 0.18776 0.09361 0.38493 0.0
C767 C 0.13404 0.11029 0.39034 0.0
H768 H 0.2651 0.11529 0.37082 0.0
C769 C 0.11721 0.16428 0.38515 0.0
H770 H 0.20208 0.05232 0.38864 0.0
C771 C 0.15362 0.20068 0.37459 0.0
C772 C 0.20744 0.18365 0.36928 0.0
H773 H 0.07585 0.17811 0.38898 0.0
H774 H 0.13992 0.24214 0.37083 0.0
C775 C 0.22395 0.12978 0.37462 0.0
C776 C 0.89029 0.03781 0.36641 0.0
C777 C 0.8975 0.03406 0.38921 0.0
H778 H 0.85695 0.08482 0.34023 0.0
C779 C 0.86488 0.06796 0.40273 0.0
H780 H 0.91658 0.01466 0.35534 0.0
C781 C 0.82476 0.10287 0.39386 0.0
C782 C 0.81986 0.10896 0.37103 0.0
H783 H 0.87351 0.07144 0.41999 0.0
H784 H 0.80138 0.12907 0.40488 0.0
C785 C 0.85408 0.07666 0.35753 0.0
C786 C 0.73448 0.07256 0.10444 0.0
C787 C 0.70115 0.03902 0.11776 0.0
H788 H 0.79888 0.13268 0.10266 0.0
C789 C 0.70802 0.04235 0.14059 0.0
H790 H 0.7263 0.0762 0.08714 0.0
C791 C 0.74484 0.08031 0.14971 0.0
C792 C 0.77969 0.11231 0.13641 0.0
H793 H 0.68121 0.01945 0.1515 0.0
H794 H 0.74201 0.08806 0.16705 0.0
C795 C 0.77496 0.10671 0.11354 0.0
C796 C 0.71946 0.89453 0.87474 0.0
C797 C 0.77489 0.90944 0.87219 0.0
H798 H 0.63832 0.91979 0.88354 0.0
C799 C 0.79021 0.96411 0.87644 0.0
H800 H 0.70615 0.85261 0.87184 0.0
C801 C 0.75001 1.00408 0.88129 0.0
C802 C 0.69518 0.98849 0.88482 0.0
H803 H 0.8329 0.97593 0.876 0.0
H804 H 0.76184 0.04676 0.8824 0.0
C805 C 0.68036 0.93327 0.8813 0.0
C806 C 0.86224 0.94786 0.65272 0.0
C807 C 0.82888 0.91481 0.63923 0.0
H808 H 0.92288 1.01171 0.65483 0.0
C809 C 0.83375 0.92098 0.61641 0.0
H810 H 0.86506 0.93979 0.67003 0.0
C811 C 0.87287 0.95691 0.60753 0.0
C812 C 0.90426 0.99194 0.62098 0.0
H813 H 0.81118 0.89418 0.60539 0.0
H814 H 0.88186 0.95326 0.59032 0.0
C815 C 0.89731 0.98782 0.6438 0.0
C816 C 0.65145 0.33268 0.13613 0.0
C817 C 0.70548 0.3489 0.14135 0.0
H818 H 0.5731 0.35719 0.12291 0.0
C819 C 0.72162 0.40354 0.13725 0.0
H820 H 0.63799 0.2907 0.13898 0.0
C821 C 0.68484 0.44124 0.12818 0.0
C822 C 0.63097 0.42527 0.12277 0.0
H823 H 0.76292 0.41742 0.14105 0.0
H824 H 0.69888 0.48304 0.12534 0.0
C825 C 0.61451 0.37056 0.12679 0.0
C826 C 0.87879 0.40029 0.37106 0.0
C827 C 0.89483 0.34556 0.36698 0.0
H828 H 0.90126 0.47946 0.3834 0.0
C829 C 0.94849 0.32888 0.37258 0.0
H830 H 0.83778 0.41452 0.36695 0.0
C831 C 0.98511 0.36637 0.38235 0.0
C832 C 0.96868 0.42114 0.38641 0.0
H833 H 0.96183 0.2868 0.36975 0.0
H834 H 0.02622 0.35266 0.38656 0.0
C835 C 0.91525 0.43759 0.38056 0.0
C836 C 0.92007 0.5878 0.6254 0.0
C837 C 0.9719 0.60542 0.61794 0.0
H838 H 0.84551 0.60852 0.64206 0.0
C839 C 0.98872 0.65978 0.62254 0.0
H840 H 0.90582 0.54618 0.62227 0.0
C841 C 0.95397 0.69575 0.63429 0.0
C842 C 0.90174 0.67798 0.6414 0.0
H843 H 0.02867 0.67439 0.61718 0.0
H844 H 0.9674 0.73766 0.63735 0.0
C845 C 0.88546 0.62357 0.63687 0.0
C846 C 0.65805 0.69595 0.87836 0.0
C847 C 0.71157 0.6783 0.87286 0.0
H848 H 0.58052 0.67469 0.89322 0.0
C849 C 0.72778 0.62449 0.8784 0.0
H850 H 0.64456 0.7374 0.87447 0.0
C851 C 0.69143 0.58892 0.88904 0.0
C852 C 0.63798 0.6063 0.89463 0.0
H853 H 0.76873 0.60963 0.87448 0.0
H854 H 0.70538 0.54759 0.89288 0.0
C855 C 0.6216 0.66029 0.88927 0.0
C856 C 0.39195 0.53998 0.87326 0.0
C857 C 0.39979 0.53701 0.89598 0.0
H858 H 0.36047 0.58688 0.84697 0.0
C859 C 0.36942 0.57369 0.90936 0.0
H860 H 0.41667 0.51509 0.86221 0.0
C861 C 0.33053 0.6103 0.90029 0.0
C862 C 0.32419 0.61405 0.87743 0.0
H863 H 0.37869 0.57751 0.92656 0.0
H864 H 0.30855 0.63838 0.91103 0.0
C865 C 0.35731 0.57983 0.86428 0.0
C866 C 0.23695 0.57042 0.59565 0.0
C867 C 0.20793 0.53457 0.60978 0.0
H868 H 0.29757 0.63493 0.59259 0.0
C869 C 0.21823 0.53848 0.63232 0.0
H870 H 0.22599 0.57332 0.57859 0.0
C871 C 0.25357 0.57874 0.64047 0.0
C872 C 0.28526 0.61226 0.62656 0.0
H873 H 0.1948 0.51413 0.64394 0.0
H874 H 0.2522 0.58652 0.65778 0.0
C875 C 0.27669 0.60742 0.60385 0.0
C876 C 0.21353 0.49139 0.36443 0.0
C877 C 0.20542 0.49632 0.38717 0.0
H878 H 0.24711 0.44259 0.33872 0.0
C879 C 0.23703 0.46261 0.40105 0.0
H880 H 0.18805 0.51437 0.35308 0.0
C881 C 0.27705 0.42676 0.3926 0.0
C882 C 0.28275 0.41949 0.36983 0.0
H883 H 0.22766 0.46002 0.41827 0.0
H884 H 0.29966 0.40082 0.40391 0.0
C885 C 0.24946 0.45155 0.35598 0.0
C886 C 0.3857 0.49464 0.14665 0.0
C887 C 0.39422 0.4999 0.12396 0.0
H888 H 0.35189 0.44529 0.17209 0.0
C889 C 0.36366 0.46565 0.1099 0.0
H890 H 0.41066 0.51781 0.15814 0.0
C891 C 0.32367 0.42956 0.11807 0.0
C892 C 0.31726 0.42217 0.14078 0.0
H893 H 0.37389 0.4628 0.09277 0.0
H894 H 0.30176 0.40348 0.10658 0.0
C895 C 0.34992 0.45439 0.15486 0.0
loop_
_geom_bond_atom_site_label_1
_geom_bond_atom_site_label_2
_geom_bond_distance
_geom_bond_site_symmetry_2
_ccdc_geom_bond_type
Mn0 O5 2.095 . S
Mn0 O15 2.162 . S
Mn0 O16 2.297 1_545 S
Mn0 O24 2.385 1_455 S
Mn0 O25 2.209 1_455 S
Mn0 O26 2.094 . S
Mn1 O6 2.121 . S
Mn1 N8 2.257 . S
Mn1 N17 2.282 . S
Mn1 O25 2.215 . S
Mn1 O27 2.117 . S
C2 O24 1.234 1_565 S
C2 O25 1.283 1_565 S
C3 O15 1.281 1_565 S
C3 O16 1.236 . S
C4 O26 1.240 . S
C4 O27 1.264 1_455 S
O5 Mn0 2.095 . S
O5 C14 1.250 . S
O6 Mn1 2.121 . S
O6 C14 1.258 1_655 S
C7 N8 1.326 1_565 S
C7 C11 1.460 . S
C7 H13 0.929 . S
N8 Mn1 2.257 . S
N8 C7 1.326 1_545 S
N8 C12 1.362 . S
C9 C10 1.258 . S
C9 C12 1.431 1_565 S
C9 C29 1.449 . S
C10 C9 1.258 . S
C10 C11 1.477 . S
C10 H30 0.931 . S
C11 C7 1.460 . S
C11 C10 1.477 . S
C11 H31 0.930 . S
C12 N8 1.362 . S
C12 C9 1.431 1_545 S
C12 C22 1.476 . S
H13 C7 0.929 . S
C14 O5 1.250 . S
C14 O6 1.258 1_455 S
O15 Mn0 2.162 . S
O15 C3 1.281 1_545 S
O16 Mn0 2.297 1_565 S
O16 C3 1.236 . S
N17 Mn1 2.282 . S
N17 C18 1.328 . S
N17 C22 1.318 . S
C18 N17 1.328 . S
C18 C19 1.457 . S
C18 H23 0.929 . S
C19 C18 1.457 . S
C19 C20 1.291 . S
C19 H32 0.931 . S
C20 C19 1.291 . S
C20 C21 1.373 . S
C20 H33 0.929 . S
C21 C20 1.373 . S
C21 C22 1.396 . S
C21 C28 1.403 . S
C22 C12 1.476 . S
C22 N17 1.318 . S
C22 C21 1.396 . S
H23 C18 0.929 . S
O24 Mn0 2.385 1_655 S
O24 C2 1.234 1_545 S
O25 Mn0 2.209 1_655 S
O25 Mn1 2.215 . S
O25 C2 1.283 1_545 S
O26 Mn0 2.094 . S
O26 C4 1.240 . S
O27 Mn1 2.117 . S
O27 C4 1.264 1_655 S
C28 C21 1.403 . S
C28 C29 1.399 1_545 S
C28 H34 0.929 . S
C29 C9 1.449 . S
C29 C28 1.399 1_565 S
C29 H35 0.930 . S
H30 C10 0.931 . S
H31 C11 0.930 . S
H32 C19 0.931 . S
H33 C20 0.929 . S
H34 C28 0.929 . S
H35 C29 0.930 . S
Mn36 O41 2.095 . S
Mn36 O51 2.162 . S
Mn36 O52 2.297 . S
Mn36 O60 2.385 . S
Mn36 O61 2.209 . S
Mn36 O62 2.094 . S
Mn37 O42 2.121 . S
Mn37 N44 2.257 . S
Mn37 N53 2.282 . S
Mn37 O61 2.215 . S
Mn37 O63 2.117 . S
C38 O60 1.234 . S
C38 O61 1.283 . S
C39 O51 1.281 . S
C39 O52 1.236 . S
C40 O62 1.240 . S
C40 O63 1.264 . S
O41 Mn36 2.095 . S
O41 C50 1.250 . S
O42 Mn37 2.121 . S
O42 C50 1.258 . S
C43 N44 1.326 . S
C43 C47 1.460 . S
C43 H49 0.929 . S
N44 Mn37 2.257 . S
N44 C43 1.326 . S
N44 C48 1.362 . S
C45 C46 1.258 . S
C45 C48 1.431 . S
C45 C65 1.449 . S
C46 C45 1.258 . S
C46 C47 1.477 . S
C46 H66 0.931 . S
C47 C43 1.460 . S
C47 C46 1.477 . S
C47 H67 0.930 . S
C48 N44 1.362 . S
C48 C45 1.431 . S
C48 C58 1.476 . S
H49 C43 0.929 . S
C50 O41 1.250 . S
C50 O42 1.258 . S
O51 Mn36 2.162 . S
O51 C39 1.281 . S
O52 Mn36 2.297 . S
O52 C39 1.236 . S
N53 Mn37 2.282 . S
N53 C54 1.328 . S
N53 C58 1.318 . S
C54 N53 1.328 . S
C54 C55 1.457 . S
C54 H59 0.929 . S
C55 C54 1.457 . S
C55 C56 1.291 . S
C55 H68 0.931 . S
C56 C55 1.291 . S
C56 C57 1.373 . S
C56 H69 0.929 . S
C57 C56 1.373 . S
C57 C58 1.396 . S
C57 C64 1.403 . S
C58 C48 1.476 . S
C58 N53 1.318 . S
C58 C57 1.396 . S
H59 C54 0.929 . S
O60 Mn36 2.385 . S
O60 C38 1.234 . S
O61 Mn36 2.209 . S
O61 Mn37 2.215 . S
O61 C38 1.283 . S
O62 Mn36 2.094 . S
O62 C40 1.240 . S
O63 Mn37 2.117 . S
O63 C40 1.264 . S
C64 C57 1.403 . S
C64 C65 1.399 . S
C64 H70 0.929 . S
C65 C45 1.449 . S
C65 C64 1.399 . S
C65 H71 0.930 . S
H66 C46 0.931 . S
H67 C47 0.930 . S
H68 C55 0.931 . S
H69 C56 0.929 . S
H70 C64 0.929 . S
H71 C65 0.930 . S
Mn72 O77 2.095 . S
Mn72 O87 2.162 . S
Mn72 O88 2.297 1_565 S
Mn72 O96 2.385 . S
Mn72 O97 2.209 . S
Mn72 O98 2.094 . S
Mn73 O78 2.121 . S
Mn73 N80 2.257 . S
Mn73 N89 2.282 . S
Mn73 O97 2.215 . S
Mn73 O99 2.117 . S
C74 O96 1.234 1_545 S
C74 O97 1.283 1_545 S
C75 O87 1.281 1_545 S
C75 O88 1.236 . S
C76 O98 1.240 . S
C76 O99 1.264 . S
O77 Mn72 2.095 . S
O77 C86 1.250 . S
O78 Mn73 2.121 . S
O78 C86 1.258 . S
C79 N80 1.326 1_545 S
C79 C83 1.460 . S
C79 H85 0.929 . S
N80 Mn73 2.257 . S
N80 C79 1.326 1_565 S
N80 C84 1.362 . S
C81 C82 1.258 . S
C81 C84 1.431 1_545 S
C81 C101 1.449 . S
C82 C81 1.258 . S
C82 C83 1.477 . S
C82 H102 0.931 . S
C83 C79 1.460 . S
C83 C82 1.477 . S
C83 H103 0.930 . S
C84 N80 1.362 . S
C84 C81 1.431 1_565 S
C84 C94 1.476 . S
H85 C79 0.929 . S
C86 O77 1.250 . S
C86 O78 1.258 . S
O87 Mn72 2.162 . S
O87 C75 1.281 1_565 S
O88 Mn72 2.297 1_545 S
O88 C75 1.236 . S
N89 Mn73 2.282 . S
N89 C90 1.328 . S
N89 C94 1.318 . S
C90 N89 1.328 . S
C90 C91 1.457 . S
C90 H95 0.929 . S
C91 C90 1.457 . S
C91 C92 1.291 . S
C91 H104 0.931 . S
C92 C91 1.291 . S
C92 C93 1.373 . S
C92 H105 0.929 . S
C93 C92 1.373 . S
C93 C94 1.396 . S
C93 C100 1.403 . S
C94 C84 1.476 . S
C94 N89 1.318 . S
C94 C93 1.396 . S
H95 C90 0.929 . S
O96 Mn72 2.385 . S
O96 C74 1.234 1_565 S
O97 Mn72 2.209 . S
O97 Mn73 2.215 . S
O97 C74 1.283 1_565 S
O98 Mn72 2.094 . S
O98 C76 1.240 . S
O99 Mn73 2.117 . S
O99 C76 1.264 . S
C100 C93 1.403 . S
C100 C101 1.399 1_565 S
C100 H106 0.929 . S
C101 C81 1.449 . S
C101 C100 1.399 1_545 S
C101 H107 0.930 . S
H102 C82 0.931 . S
H103 C83 0.930 . S
H104 C91 0.931 . S
H105 C92 0.929 . S
H106 C100 0.929 . S
H107 C101 0.930 . S
Mn108 O113 2.095 . S
Mn108 O123 2.162 . S
Mn108 O124 2.297 . S
Mn108 O132 2.385 . S
Mn108 O133 2.209 . S
Mn108 O134 2.094 . S
Mn109 O114 2.121 . S
Mn109 N116 2.257 . S
Mn109 N125 2.282 . S
Mn109 O133 2.215 . S
Mn109 O135 2.117 . S
C110 O132 1.234 . S
C110 O133 1.283 . S
C111 O123 1.281 . S
C111 O124 1.236 . S
C112 O134 1.240 . S
C112 O135 1.264 . S
O113 Mn108 2.095 . S
O113 C122 1.250 . S
O114 Mn109 2.121 . S
O114 C122 1.258 . S
C115 N116 1.326 . S
C115 C119 1.460 . S
C115 H121 0.929 . S
N116 Mn109 2.257 . S
N116 C115 1.326 . S
N116 C120 1.362 . S
C117 C118 1.258 . S
C117 C120 1.431 . S
C117 C137 1.449 . S
C118 C117 1.258 . S
C118 C119 1.477 . S
C118 H138 0.931 . S
C119 C115 1.460 . S
C119 C118 1.477 . S
C119 H139 0.930 . S
C120 N116 1.362 . S
C120 C117 1.431 . S
C120 C130 1.476 . S
H121 C115 0.929 . S
C122 O113 1.250 . S
C122 O114 1.258 . S
O123 Mn108 2.162 . S
O123 C111 1.281 . S
O124 Mn108 2.297 . S
O124 C111 1.236 . S
N125 Mn109 2.282 . S
N125 C126 1.328 . S
N125 C130 1.318 . S
C126 N125 1.328 . S
C126 C127 1.457 . S
C126 H131 0.929 . S
C127 C126 1.457 . S
C127 C128 1.291 . S
C127 H140 0.931 . S
C128 C127 1.291 . S
C128 C129 1.373 . S
C128 H141 0.929 . S
C129 C128 1.373 . S
C129 C130 1.396 . S
C129 C136 1.403 . S
C130 C120 1.476 . S
C130 N125 1.318 . S
C130 C129 1.396 . S
H131 C126 0.929 . S
O132 Mn108 2.385 . S
O132 C110 1.234 . S
O133 Mn108 2.209 . S
O133 Mn109 2.215 . S
O133 C110 1.283 . S
O134 Mn108 2.094 . S
O134 C112 1.240 . S
O135 Mn109 2.117 . S
O135 C112 1.264 . S
C136 C129 1.403 . S
C136 C137 1.399 . S
C136 H142 0.929 . S
C137 C117 1.449 . S
C137 C136 1.399 . S
C137 H143 0.930 . S
H138 C118 0.931 . S
H139 C119 0.930 . S
H140 C127 0.931 . S
H141 C128 0.929 . S
H142 C136 0.929 . S
H143 C137 0.930 . S
Mn144 O149 2.095 . S
Mn144 O159 2.162 . S
Mn144 O160 2.297 1_565 S
Mn144 O168 2.385 1_455 S
Mn144 O169 2.209 1_455 S
Mn144 O170 2.094 . S
Mn145 O150 2.121 . S
Mn145 N152 2.257 . S
Mn145 N161 2.282 . S
Mn145 O169 2.215 . S
Mn145 O171 2.117 . S
C146 O168 1.234 1_545 S
C146 O169 1.283 1_545 S
C147 O159 1.281 1_545 S
C147 O160 1.236 . S
C148 O170 1.240 . S
C148 O171 1.264 1_455 S
O149 Mn144 2.095 . S
O149 C158 1.250 . S
O150 Mn145 2.121 . S
O150 C158 1.258 1_655 S
C151 N152 1.326 1_545 S
C151 C155 1.460 . S
C151 H157 0.929 . S
N152 Mn145 2.257 . S
N152 C151 1.326 1_565 S
N152 C156 1.362 . S
C153 C154 1.258 . S
C153 C156 1.431 1_545 S
C153 C173 1.449 . S
C154 C153 1.258 . S
C154 C155 1.477 . S
C154 H174 0.931 . S
C155 C151 1.460 . S
C155 C154 1.477 . S
C155 H175 0.930 . S
C156 N152 1.362 . S
C156 C153 1.431 1_565 S
C156 C166 1.476 . S
H157 C151 0.929 . S
C158 O149 1.250 . S
C158 O150 1.258 1_455 S
O159 Mn144 2.162 . S
O159 C147 1.281 1_565 S
O160 Mn144 2.297 1_545 S
O160 C147 1.236 . S
N161 Mn145 2.282 . S
N161 C162 1.328 . S
N161 C166 1.318 . S
C162 N161 1.328 . S
C162 C163 1.457 . S
C162 H167 0.929 . S
C163 C162 1.457 . S
C163 C164 1.291 . S
C163 H176 0.931 . S
C164 C163 1.291 . S
C164 C165 1.373 . S
C164 H177 0.929 . S
C165 C164 1.373 . S
C165 C166 1.396 . S
C165 C172 1.403 . S
C166 C156 1.476 . S
C166 N161 1.318 . S
C166 C165 1.396 . S
H167 C162 0.929 . S
O168 Mn144 2.385 1_655 S
O168 C146 1.234 1_565 S
O169 Mn144 2.209 1_655 S
O169 Mn145 2.215 . S
O169 C146 1.283 1_565 S
O170 Mn144 2.094 . S
O170 C148 1.240 . S
O171 Mn145 2.117 . S
O171 C148 1.264 1_655 S
C172 C165 1.403 . S
C172 C173 1.399 1_565 S
C172 H178 0.929 . S
C173 C153 1.449 . S
C173 C172 1.399 1_545 S
C173 H179 0.930 . S
H174 C154 0.931 . S
H175 C155 0.930 . S
H176 C163 0.931 . S
H177 C164 0.929 . S
H178 C172 0.929 . S
H179 C173 0.930 . S
Mn180 O185 2.095 . S
Mn180 O195 2.162 . S
Mn180 O196 2.297 . S
Mn180 O204 2.385 . S
Mn180 O205 2.209 . S
Mn180 O206 2.094 . S
Mn181 O186 2.121 . S
Mn181 N188 2.257 . S
Mn181 N197 2.282 . S
Mn181 O205 2.215 . S
Mn181 O207 2.117 . S
C182 O204 1.234 . S
C182 O205 1.283 . S
C183 O195 1.281 . S
C183 O196 1.236 . S
C184 O206 1.240 . S
C184 O207 1.264 . S
O185 Mn180 2.095 . S
O185 C194 1.250 . S
O186 Mn181 2.121 . S
O186 C194 1.258 . S
C187 N188 1.326 . S
C187 C191 1.460 . S
C187 H193 0.929 . S
N188 Mn181 2.257 . S
N188 C187 1.326 . S
N188 C192 1.362 . S
C189 C190 1.258 . S
C189 C192 1.431 . S
C189 C209 1.449 . S
C190 C189 1.258 . S
C190 C191 1.477 . S
C190 H210 0.931 . S
C191 C187 1.460 . S
C191 C190 1.477 . S
C191 H211 0.930 . S
C192 N188 1.362 . S
C192 C189 1.431 . S
C192 C202 1.476 . S
H193 C187 0.929 . S
C194 O185 1.250 . S
C194 O186 1.258 . S
O195 Mn180 2.162 . S
O195 C183 1.281 . S
O196 Mn180 2.297 . S
O196 C183 1.236 . S
N197 Mn181 2.282 . S
N197 C198 1.328 . S
N197 C202 1.318 . S
C198 N197 1.328 . S
C198 C199 1.457 . S
C198 H203 0.929 . S
C199 C198 1.457 . S
C199 C200 1.291 . S
C199 H212 0.931 . S
C200 C199 1.291 . S
C200 C201 1.373 . S
C200 H213 0.929 . S
C201 C200 1.373 . S
C201 C202 1.396 . S
C201 C208 1.403 . S
C202 C192 1.476 . S
C202 N197 1.318 . S
C202 C201 1.396 . S
H203 C198 0.929 . S
O204 Mn180 2.385 . S
O204 C182 1.234 . S
O205 Mn180 2.209 . S
O205 Mn181 2.215 . S
O205 C182 1.283 . S
O206 Mn180 2.094 . S
O206 C184 1.240 . S
O207 Mn181 2.117 . S
O207 C184 1.264 . S
C208 C201 1.403 . S
C208 C209 1.399 . S
C208 H214 0.929 . S
C209 C189 1.449 . S
C209 C208 1.399 . S
C209 H215 0.930 . S
H210 C190 0.931 . S
H211 C191 0.930 . S
H212 C199 0.931 . S
H213 C200 0.929 . S
H214 C208 0.929 . S
H215 C209 0.930 . S
Mn216 O221 2.095 . S
Mn216 O231 2.162 . S
Mn216 O232 2.297 1_545 S
Mn216 O240 2.385 . S
Mn216 O241 2.209 . S
Mn216 O242 2.094 . S
Mn217 O222 2.121 . S
Mn217 N224 2.257 . S
Mn217 N233 2.282 . S
Mn217 O241 2.215 . S
Mn217 O243 2.117 . S
C218 O240 1.234 1_565 S
C218 O241 1.283 1_565 S
C219 O231 1.281 1_565 S
C219 O232 1.236 . S
C220 O242 1.240 . S
C220 O243 1.264 . S
O221 Mn216 2.095 . S
O221 C230 1.250 . S
O222 Mn217 2.121 . S
O222 C230 1.258 . S
C223 N224 1.326 1_565 S
C223 C227 1.460 . S
C223 H229 0.929 . S
N224 Mn217 2.257 . S
N224 C223 1.326 1_545 S
N224 C228 1.362 . S
C225 C226 1.258 . S
C225 C228 1.431 1_565 S
C225 C245 1.449 . S
C226 C225 1.258 . S
C226 C227 1.477 . S
C226 H246 0.931 . S
C227 C223 1.460 . S
C227 C226 1.477 . S
C227 H247 0.930 . S
C228 N224 1.362 . S
C228 C225 1.431 1_545 S
C228 C238 1.476 . S
H229 C223 0.929 . S
C230 O221 1.250 . S
C230 O222 1.258 . S
O231 Mn216 2.162 . S
O231 C219 1.281 1_545 S
O232 Mn216 2.297 1_565 S
O232 C219 1.236 . S
N233 Mn217 2.282 . S
N233 C234 1.328 . S
N233 C238 1.318 . S
C234 N233 1.328 . S
C234 C235 1.457 . S
C234 H239 0.929 . S
C235 C234 1.457 . S
C235 C236 1.291 . S
C235 H248 0.931 . S
C236 C235 1.291 . S
C236 C237 1.373 . S
C236 H249 0.929 . S
C237 C236 1.373 . S
C237 C238 1.396 . S
C237 C244 1.403 . S
C238 C228 1.476 . S
C238 N233 1.318 . S
C238 C237 1.396 . S
H239 C234 0.929 . S
O240 Mn216 2.385 . S
O240 C218 1.234 1_545 S
O241 Mn216 2.209 . S
O241 Mn217 2.215 . S
O241 C218 1.283 1_545 S
O242 Mn216 2.094 . S
O242 C220 1.240 . S
O243 Mn217 2.117 . S
O243 C220 1.264 . S
C244 C237 1.403 . S
C244 C245 1.399 1_545 S
C244 H250 0.929 . S
C245 C225 1.449 . S
C245 C244 1.399 1_565 S
C245 H251 0.930 . S
H246 C226 0.931 . S
H247 C227 0.930 . S
H248 C235 0.931 . S
H249 C236 0.929 . S
H250 C244 0.929 . S
H251 C245 0.930 . S
Mn252 O257 2.095 . S
Mn252 O267 2.162 . S
Mn252 O268 2.297 . S
Mn252 O276 2.385 . S
Mn252 O277 2.209 . S
Mn252 O278 2.094 . S
Mn253 O258 2.121 . S
Mn253 N260 2.257 . S
Mn253 N269 2.282 . S
Mn253 O277 2.215 . S
Mn253 O279 2.117 . S
C254 O276 1.234 . S
C254 O277 1.283 . S
C255 O267 1.281 . S
C255 O268 1.236 . S
C256 O278 1.240 . S
C256 O279 1.264 . S
O257 Mn252 2.095 . S
O257 C266 1.250 . S
O258 Mn253 2.121 . S
O258 C266 1.258 . S
C259 N260 1.326 . S
C259 C263 1.460 . S
C259 H265 0.929 . S
N260 Mn253 2.257 . S
N260 C259 1.326 . S
N260 C264 1.362 . S
C261 C262 1.258 . S
C261 C264 1.431 . S
C261 C281 1.449 . S
C262 C261 1.258 . S
C262 C263 1.477 . S
C262 H282 0.931 . S
C263 C259 1.460 . S
C263 C262 1.477 . S
C263 H283 0.930 . S
C264 N260 1.362 . S
C264 C261 1.431 . S
C264 C274 1.476 . S
H265 C259 0.929 . S
C266 O257 1.250 . S
C266 O258 1.258 . S
O267 Mn252 2.162 . S
O267 C255 1.281 . S
O268 Mn252 2.297 . S
O268 C255 1.236 . S
N269 Mn253 2.282 . S
N269 C270 1.328 . S
N269 C274 1.318 . S
C270 N269 1.328 . S
C270 C271 1.457 . S
C270 H275 0.929 . S
C271 C270 1.457 . S
C271 C272 1.291 . S
C271 H284 0.931 . S
C272 C271 1.291 . S
C272 C273 1.373 . S
C272 H285 0.929 . S
C273 C272 1.373 . S
C273 C274 1.396 . S
C273 C280 1.403 . S
C274 C264 1.476 . S
C274 N269 1.318 . S
C274 C273 1.396 . S
H275 C270 0.929 . S
O276 Mn252 2.385 . S
O276 C254 1.234 . S
O277 Mn252 2.209 . S
O277 Mn253 2.215 . S
O277 C254 1.283 . S
O278 Mn252 2.094 . S
O278 C256 1.240 . S
O279 Mn253 2.117 . S
O279 C256 1.264 . S
C280 C273 1.403 . S
C280 C281 1.399 . S
C280 H286 0.929 . S
C281 C261 1.449 . S
C281 C280 1.399 . S
C281 H287 0.930 . S
H282 C262 0.931 . S
H283 C263 0.930 . S
H284 C271 0.931 . S
H285 C272 0.929 . S
H286 C280 0.929 . S
H287 C281 0.930 . S
Mn288 O293 2.095 . S
Mn288 O303 2.162 . S
Mn288 O304 2.297 . S
Mn288 O312 2.385 . S
Mn288 O313 2.209 . S
Mn288 O314 2.094 . S
Mn289 O294 2.121 . S
Mn289 N296 2.257 . S
Mn289 N305 2.282 . S
Mn289 O313 2.215 . S
Mn289 O315 2.117 . S
C290 O312 1.234 . S
C290 O313 1.283 . S
C291 O303 1.281 . S
C291 O304 1.236 . S
C292 O314 1.240 . S
C292 O315 1.264 . S
O293 Mn288 2.095 . S
O293 C302 1.250 . S
O294 Mn289 2.121 . S
O294 C302 1.258 . S
C295 N296 1.326 . S
C295 C299 1.460 . S
C295 H301 0.929 . S
N296 Mn289 2.257 . S
N296 C295 1.326 . S
N296 C300 1.362 . S
C297 C298 1.258 . S
C297 C300 1.431 1_565 S
C297 C317 1.449 . S
C298 C297 1.258 . S
C298 C299 1.477 1_565 S
C298 H318 0.931 . S
C299 C295 1.460 . S
C299 C298 1.477 1_545 S
C299 H319 0.930 . S
C300 N296 1.362 . S
C300 C297 1.431 1_545 S
C300 C310 1.476 . S
H301 C295 0.929 . S
C302 O293 1.250 . S
C302 O294 1.258 . S
O303 Mn288 2.162 . S
O303 C291 1.281 . S
O304 Mn288 2.297 . S
O304 C291 1.236 . S
N305 Mn289 2.282 . S
N305 C306 1.328 . S
N305 C310 1.318 . S
C306 N305 1.328 . S
C306 C307 1.457 . S
C306 H311 0.929 . S
C307 C306 1.457 . S
C307 C308 1.291 1_545 S
C307 H320 0.931 . S
C308 C307 1.291 1_565 S
C308 C309 1.373 . S
C308 H321 0.929 . S
C309 C308 1.373 . S
C309 C310 1.396 1_565 S
C309 C316 1.403 . S
C310 C300 1.476 . S
C310 N305 1.318 . S
C310 C309 1.396 1_545 S
H311 C306 0.929 . S
O312 Mn288 2.385 . S
O312 C290 1.234 . S
O313 Mn288 2.209 . S
O313 Mn289 2.215 . S
O313 C290 1.283 . S
O314 Mn288 2.094 . S
O314 C292 1.240 . S
O315 Mn289 2.117 . S
O315 C292 1.264 . S
C316 C309 1.403 . S
C316 C317 1.399 . S
C316 H322 0.929 . S
C317 C297 1.449 . S
C317 C316 1.399 . S
C317 H323 0.930 . S
H318 C298 0.931 . S
H319 C299 0.930 . S
H320 C307 0.931 . S
H321 C308 0.929 . S
H322 C316 0.929 . S
H323 C317 0.930 . S
Mn324 O329 2.095 . S
Mn324 O339 2.162 . S
Mn324 O340 2.297 . S
Mn324 O348 2.385 . S
Mn324 O349 2.209 . S
Mn324 O350 2.094 . S
Mn325 O330 2.121 . S
Mn325 N332 2.257 . S
Mn325 N341 2.282 . S
Mn325 O349 2.215 . S
Mn325 O351 2.117 . S
C326 O348 1.234 . S
C326 O349 1.283 . S
C327 O339 1.281 . S
C327 O340 1.236 . S
C328 O350 1.240 . S
C328 O351 1.264 . S
O329 Mn324 2.095 . S
O329 C338 1.250 . S
O330 Mn325 2.121 . S
O330 C338 1.258 . S
C331 N332 1.326 . S
C331 C335 1.460 . S
C331 H337 0.929 . S
N332 Mn325 2.257 . S
N332 C331 1.326 . S
N332 C336 1.362 . S
C333 C334 1.258 . S
C333 C336 1.431 1_545 S
C333 C353 1.449 . S
C334 C333 1.258 . S
C334 C335 1.477 1_545 S
C334 H354 0.931 . S
C335 C331 1.460 . S
C335 C334 1.477 1_565 S
C335 H355 0.930 . S
C336 N332 1.362 . S
C336 C333 1.431 1_565 S
C336 C346 1.476 . S
H337 C331 0.929 . S
C338 O329 1.250 . S
C338 O330 1.258 . S
O339 Mn324 2.162 . S
O339 C327 1.281 . S
O340 Mn324 2.297 . S
O340 C327 1.236 . S
N341 Mn325 2.282 . S
N341 C342 1.328 . S
N341 C346 1.318 . S
C342 N341 1.328 . S
C342 C343 1.457 . S
C342 H347 0.929 . S
C343 C342 1.457 . S
C343 C344 1.291 1_565 S
C343 H356 0.931 . S
C344 C343 1.291 1_545 S
C344 C345 1.373 . S
C344 H357 0.929 . S
C345 C344 1.373 . S
C345 C346 1.396 1_545 S
C345 C352 1.403 . S
C346 C336 1.476 . S
C346 N341 1.318 . S
C346 C345 1.396 1_565 S
H347 C342 0.929 . S
O348 Mn324 2.385 . S
O348 C326 1.234 . S
O349 Mn324 2.209 . S
O349 Mn325 2.215 . S
O349 C326 1.283 . S
O350 Mn324 2.094 . S
O350 C328 1.240 . S
O351 Mn325 2.117 . S
O351 C328 1.264 . S
C352 C345 1.403 . S
C352 C353 1.399 . S
C352 H358 0.929 . S
C353 C333 1.449 . S
C353 C352 1.399 . S
C353 H359 0.930 . S
H354 C334 0.931 . S
H355 C335 0.930 . S
H356 C343 0.931 . S
H357 C344 0.929 . S
H358 C352 0.929 . S
H359 C353 0.930 . S
Mn360 O365 2.095 . S
Mn360 O375 2.162 . S
Mn360 O376 2.297 . S
Mn360 O384 2.385 . S
Mn360 O385 2.209 . S
Mn360 O386 2.094 . S
Mn361 O366 2.121 . S
Mn361 N368 2.257 . S
Mn361 N377 2.282 . S
Mn361 O385 2.215 . S
Mn361 O387 2.117 . S
C362 O384 1.234 . S
C362 O385 1.283 . S
C363 O375 1.281 . S
C363 O376 1.236 . S
C364 O386 1.240 . S
C364 O387 1.264 . S
O365 Mn360 2.095 . S
O365 C374 1.250 . S
O366 Mn361 2.121 . S
O366 C374 1.258 . S
C367 N368 1.326 . S
C367 C371 1.460 . S
C367 H373 0.929 . S
N368 Mn361 2.257 . S
N368 C367 1.326 . S
N368 C372 1.362 . S
C369 C370 1.258 . S
C369 C372 1.431 1_565 S
C369 C389 1.449 . S
C370 C369 1.258 . S
C370 C371 1.477 1_565 S
C370 H390 0.931 . S
C371 C367 1.460 . S
C371 C370 1.477 1_545 S
C371 H391 0.930 . S
C372 N368 1.362 . S
C372 C369 1.431 1_545 S
C372 C382 1.476 . S
H373 C367 0.929 . S
C374 O365 1.250 . S
C374 O366 1.258 . S
O375 Mn360 2.162 . S
O375 C363 1.281 . S
O376 Mn360 2.297 . S
O376 C363 1.236 . S
N377 Mn361 2.282 . S
N377 C378 1.328 . S
N377 C382 1.318 . S
C378 N377 1.328 . S
C378 C379 1.457 . S
C378 H383 0.929 . S
C379 C378 1.457 . S
C379 C380 1.291 1_545 S
C379 H392 0.931 . S
C380 C379 1.291 1_565 S
C380 C381 1.373 . S
C380 H393 0.929 . S
C381 C380 1.373 . S
C381 C382 1.396 1_565 S
C381 C388 1.403 . S
C382 C372 1.476 . S
C382 N377 1.318 . S
C382 C381 1.396 1_545 S
H383 C378 0.929 . S
O384 Mn360 2.385 . S
O384 C362 1.234 . S
O385 Mn360 2.209 . S
O385 Mn361 2.215 . S
O385 C362 1.283 . S
O386 Mn360 2.094 . S
O386 C364 1.240 . S
O387 Mn361 2.117 . S
O387 C364 1.264 . S
C388 C381 1.403 . S
C388 C389 1.399 . S
C388 H394 0.929 . S
C389 C369 1.449 . S
C389 C388 1.399 . S
C389 H395 0.930 . S
H390 C370 0.931 . S
H391 C371 0.930 . S
H392 C379 0.931 . S
H393 C380 0.929 . S
H394 C388 0.929 . S
H395 C389 0.930 . S
Mn396 O401 2.095 . S
Mn396 O411 2.162 . S
Mn396 O412 2.297 . S
Mn396 O420 2.385 . S
Mn396 O421 2.209 . S
Mn396 O422 2.094 . S
Mn397 O402 2.121 . S
Mn397 N404 2.257 . S
Mn397 N413 2.282 . S
Mn397 O421 2.215 . S
Mn397 O423 2.117 . S
C398 O420 1.234 . S
C398 O421 1.283 . S
C399 O411 1.281 . S
C399 O412 1.236 . S
C400 O422 1.240 . S
C400 O423 1.264 . S
O401 Mn396 2.095 . S
O401 C410 1.250 . S
O402 Mn397 2.121 . S
O402 C410 1.258 . S
C403 N404 1.326 . S
C403 C407 1.460 . S
C403 H409 0.929 . S
N404 Mn397 2.257 . S
N404 C403 1.326 . S
N404 C408 1.362 . S
C405 C406 1.258 . S
C405 C408 1.431 1_545 S
C405 C425 1.449 . S
C406 C405 1.258 . S
C406 C407 1.477 1_545 S
C406 H426 0.931 . S
C407 C403 1.460 . S
C407 C406 1.477 1_565 S
C407 H427 0.930 . S
C408 N404 1.362 . S
C408 C405 1.431 1_565 S
C408 C418 1.476 . S
H409 C403 0.929 . S
C410 O401 1.250 . S
C410 O402 1.258 . S
O411 Mn396 2.162 . S
O411 C399 1.281 . S
O412 Mn396 2.297 . S
O412 C399 1.236 . S
N413 Mn397 2.282 . S
N413 C414 1.328 . S
N413 C418 1.318 . S
C414 N413 1.328 . S
C414 C415 1.457 . S
C414 H419 0.929 . S
C415 C414 1.457 . S
C415 C416 1.291 1_565 S
C415 H428 0.931 . S
C416 C415 1.291 1_545 S
C416 C417 1.373 . S
C416 H429 0.929 . S
C417 C416 1.373 . S
C417 C418 1.396 1_545 S
C417 C424 1.403 . S
C418 C408 1.476 . S
C418 N413 1.318 . S
C418 C417 1.396 1_565 S
H419 C414 0.929 . S
O420 Mn396 2.385 . S
O420 C398 1.234 . S
O421 Mn396 2.209 . S
O421 Mn397 2.215 . S
O421 C398 1.283 . S
O422 Mn396 2.094 . S
O422 C400 1.240 . S
O423 Mn397 2.117 . S
O423 C400 1.264 . S
C424 C417 1.403 . S
C424 C425 1.399 . S
C424 H430 0.929 . S
C425 C405 1.449 . S
C425 C424 1.399 . S
C425 H431 0.930 . S
H426 C406 0.931 . S
H427 C407 0.930 . S
H428 C415 0.931 . S
H429 C416 0.929 . S
H430 C424 0.929 . S
H431 C425 0.930 . S
Mn432 O437 2.095 . S
Mn432 O447 2.162 . S
Mn432 O448 2.297 . S
Mn432 O456 2.385 . S
Mn432 O457 2.209 . S
Mn432 O458 2.094 . S
Mn433 O438 2.121 . S
Mn433 N440 2.257 . S
Mn433 N449 2.282 . S
Mn433 O457 2.215 . S
Mn433 O459 2.117 . S
C434 O456 1.234 . S
C434 O457 1.283 . S
C435 O447 1.281 . S
C435 O448 1.236 . S
C436 O458 1.240 . S
C436 O459 1.264 . S
O437 Mn432 2.095 . S
O437 C446 1.250 . S
O438 Mn433 2.121 . S
O438 C446 1.258 . S
C439 N440 1.326 . S
C439 C443 1.460 . S
C439 H445 0.929 . S
N440 Mn433 2.257 . S
N440 C439 1.326 . S
N440 C444 1.362 . S
C441 C442 1.258 . S
C441 C444 1.431 . S
C441 C461 1.449 . S
C442 C441 1.258 . S
C442 C443 1.477 . S
C442 H462 0.931 . S
C443 C439 1.460 . S
C443 C442 1.477 . S
C443 H463 0.930 . S
C444 N440 1.362 . S
C444 C441 1.431 . S
C444 C454 1.476 . S
H445 C439 0.929 . S
C446 O437 1.250 . S
C446 O438 1.258 . S
O447 Mn432 2.162 . S
O447 C435 1.281 . S
O448 Mn432 2.297 . S
O448 C435 1.236 . S
N449 Mn433 2.282 . S
N449 C450 1.328 . S
N449 C454 1.318 . S
C450 N449 1.328 . S
C450 C451 1.457 . S
C450 H455 0.929 . S
C451 C450 1.457 . S
C451 C452 1.291 . S
C451 H464 0.931 . S
C452 C451 1.291 . S
C452 C453 1.373 . S
C452 H465 0.929 . S
C453 C452 1.373 . S
C453 C454 1.396 . S
C453 C460 1.403 . S
C454 C444 1.476 . S
C454 N449 1.318 . S
C454 C453 1.396 . S
H455 C450 0.929 . S
O456 Mn432 2.385 . S
O456 C434 1.234 . S
O457 Mn432 2.209 . S
O457 Mn433 2.215 . S
O457 C434 1.283 . S
O458 Mn432 2.094 . S
O458 C436 1.240 . S
O459 Mn433 2.117 . S
O459 C436 1.264 . S
C460 C453 1.403 . S
C460 C461 1.399 . S
C460 H466 0.929 . S
C461 C441 1.449 . S
C461 C460 1.399 . S
C461 H467 0.930 . S
H462 C442 0.931 . S
H463 C443 0.930 . S
H464 C451 0.931 . S
H465 C452 0.929 . S
H466 C460 0.929 . S
H467 C461 0.930 . S
Mn468 O473 2.095 . S
Mn468 O483 2.162 1_455 S
Mn468 O484 2.297 . S
Mn468 O492 2.385 . S
Mn468 O493 2.209 . S
Mn468 O494 2.094 . S
Mn469 O474 2.121 . S
Mn469 N476 2.257 . S
Mn469 N485 2.282 . S
Mn469 O493 2.215 . S
Mn469 O495 2.117 . S
C470 O492 1.234 . S
C470 O493 1.283 . S
C471 O483 1.281 . S
C471 O484 1.236 1_655 S
C472 O494 1.240 . S
C472 O495 1.264 . S
O473 Mn468 2.095 . S
O473 C482 1.250 . S
O474 Mn469 2.121 . S
O474 C482 1.258 . S
C475 N476 1.326 . S
C475 C479 1.460 . S
C475 H481 0.929 . S
N476 Mn469 2.257 . S
N476 C475 1.326 . S
N476 C480 1.362 . S
C477 C478 1.258 . S
C477 C480 1.431 . S
C477 C497 1.449 . S
C478 C477 1.258 . S
C478 C479 1.477 . S
C478 H498 0.931 . S
C479 C475 1.460 . S
C479 C478 1.477 . S
C479 H499 0.930 . S
C480 N476 1.362 . S
C480 C477 1.431 . S
C480 C490 1.476 . S
H481 C475 0.929 . S
C482 O473 1.250 . S
C482 O474 1.258 . S
O483 Mn468 2.162 1_655 S
O483 C471 1.281 . S
O484 Mn468 2.297 . S
O484 C471 1.236 1_455 S
N485 Mn469 2.282 . S
N485 C486 1.328 . S
N485 C490 1.318 . S
C486 N485 1.328 . S
C486 C487 1.457 . S
C486 H491 0.929 . S
C487 C486 1.457 . S
C487 C488 1.291 . S
C487 H500 0.931 . S
C488 C487 1.291 . S
C488 C489 1.373 . S
C488 H501 0.929 . S
C489 C488 1.373 . S
C489 C490 1.396 . S
C489 C496 1.403 . S
C490 C480 1.476 . S
C490 N485 1.318 . S
C490 C489 1.396 . S
H491 C486 0.929 . S
O492 Mn468 2.385 . S
O492 C470 1.234 . S
O493 Mn468 2.209 . S
O493 Mn469 2.215 . S
O493 C470 1.283 . S
O494 Mn468 2.094 . S
O494 C472 1.240 . S
O495 Mn469 2.117 . S
O495 C472 1.264 . S
C496 C489 1.403 . S
C496 C497 1.399 . S
C496 H502 0.929 . S
C497 C477 1.449 . S
C497 C496 1.399 . S
C497 H503 0.930 . S
H498 C478 0.931 . S
H499 C479 0.930 . S
H500 C487 0.931 . S
H501 C488 0.929 . S
H502 C496 0.929 . S
H503 C497 0.930 . S
Mn504 O509 2.095 . S
Mn504 O519 2.162 . S
Mn504 O520 2.297 . S
Mn504 O528 2.385 . S
Mn504 O529 2.209 . S
Mn504 O530 2.094 . S
Mn505 O510 2.121 . S
Mn505 N512 2.257 . S
Mn505 N521 2.282 . S
Mn505 O529 2.215 . S
Mn505 O531 2.117 . S
C506 O528 1.234 . S
C506 O529 1.283 . S
C507 O519 1.281 . S
C507 O520 1.236 . S
C508 O530 1.240 . S
C508 O531 1.264 . S
O509 Mn504 2.095 . S
O509 C518 1.250 . S
O510 Mn505 2.121 . S
O510 C518 1.258 . S
C511 N512 1.326 . S
C511 C515 1.460 . S
C511 H517 0.929 . S
N512 Mn505 2.257 . S
N512 C511 1.326 . S
N512 C516 1.362 . S
C513 C514 1.258 . S
C513 C516 1.431 . S
C513 C533 1.449 . S
C514 C513 1.258 . S
C514 C515 1.477 . S
C514 H534 0.931 . S
C515 C511 1.460 . S
C515 C514 1.477 . S
C515 H535 0.930 . S
C516 N512 1.362 . S
C516 C513 1.431 . S
C516 C526 1.476 . S
H517 C511 0.929 . S
C518 O509 1.250 . S
C518 O510 1.258 . S
O519 Mn504 2.162 . S
O519 C507 1.281 . S
O520 Mn504 2.297 . S
O520 C507 1.236 . S
N521 Mn505 2.282 . S
N521 C522 1.328 . S
N521 C526 1.318 . S
C522 N521 1.328 . S
C522 C523 1.457 . S
C522 H527 0.929 . S
C523 C522 1.457 . S
C523 C524 1.291 . S
C523 H536 0.931 . S
C524 C523 1.291 . S
C524 C525 1.373 . S
C524 H537 0.929 . S
C525 C524 1.373 . S
C525 C526 1.396 . S
C525 C532 1.403 . S
C526 C516 1.476 . S
C526 N521 1.318 . S
C526 C525 1.396 . S
H527 C522 0.929 . S
O528 Mn504 2.385 . S
O528 C506 1.234 . S
O529 Mn504 2.209 . S
O529 Mn505 2.215 . S
O529 C506 1.283 . S
O530 Mn504 2.094 . S
O530 C508 1.240 . S
O531 Mn505 2.117 . S
O531 C508 1.264 . S
C532 C525 1.403 . S
C532 C533 1.399 . S
C532 H538 0.929 . S
C533 C513 1.449 . S
C533 C532 1.399 . S
C533 H539 0.930 . S
H534 C514 0.931 . S
H535 C515 0.930 . S
H536 C523 0.931 . S
H537 C524 0.929 . S
H538 C532 0.929 . S
H539 C533 0.930 . S
Mn540 O545 2.095 . S
Mn540 O555 2.162 1_455 S
Mn540 O556 2.297 . S
Mn540 O564 2.385 . S
Mn540 O565 2.209 . S
Mn540 O566 2.094 . S
Mn541 O546 2.121 . S
Mn541 N548 2.257 . S
Mn541 N557 2.282 . S
Mn541 O565 2.215 . S
Mn541 O567 2.117 . S
C542 O564 1.234 . S
C542 O565 1.283 . S
C543 O555 1.281 . S
C543 O556 1.236 1_655 S
C544 O566 1.240 . S
C544 O567 1.264 . S
O545 Mn540 2.095 . S
O545 C554 1.250 . S
O546 Mn541 2.121 . S
O546 C554 1.258 . S
C547 N548 1.326 . S
C547 C551 1.460 . S
C547 H553 0.929 . S
N548 Mn541 2.257 . S
N548 C547 1.326 . S
N548 C552 1.362 . S
C549 C550 1.258 . S
C549 C552 1.431 . S
C549 C569 1.449 . S
C550 C549 1.258 . S
C550 C551 1.477 . S
C550 H570 0.931 . S
C551 C547 1.460 . S
C551 C550 1.477 . S
C551 H571 0.930 . S
C552 N548 1.362 . S
C552 C549 1.431 . S
C552 C562 1.476 . S
H553 C547 0.929 . S
C554 O545 1.250 . S
C554 O546 1.258 . S
O555 Mn540 2.162 1_655 S
O555 C543 1.281 . S
O556 Mn540 2.297 . S
O556 C543 1.236 1_455 S
N557 Mn541 2.282 . S
N557 C558 1.328 . S
N557 C562 1.318 . S
C558 N557 1.328 . S
C558 C559 1.457 . S
C558 H563 0.929 . S
C559 C558 1.457 . S
C559 C560 1.291 . S
C559 H572 0.931 . S
C560 C559 1.291 . S
C560 C561 1.373 . S
C560 H573 0.929 . S
C561 C560 1.373 . S
C561 C562 1.396 . S
C561 C568 1.403 . S
C562 C552 1.476 . S
C562 N557 1.318 . S
C562 C561 1.396 . S
H563 C558 0.929 . S
O564 Mn540 2.385 . S
O564 C542 1.234 . S
O565 Mn540 2.209 . S
O565 Mn541 2.215 . S
O565 C542 1.283 . S
O566 Mn540 2.094 . S
O566 C544 1.240 . S
O567 Mn541 2.117 . S
O567 C544 1.264 . S
C568 C561 1.403 . S
C568 C569 1.399 . S
C568 H574 0.929 . S
C569 C549 1.449 . S
C569 C568 1.399 . S
C569 H575 0.930 . S
H570 C550 0.931 . S
H571 C551 0.930 . S
H572 C559 0.931 . S
H573 C560 0.929 . S
H574 C568 0.929 . S
H575 C569 0.930 . S
C576 C577 1.387 . S
C576 H580 0.950 . S
C576 C585 1.390 . S
C577 C576 1.387 . S
C577 C579 1.387 . S
H578 C585 0.950 . S
C579 C577 1.387 . S
C579 C581 1.390 . S
C579 H583 0.950 . S
H580 C576 0.950 . S
C581 C579 1.390 . S
C581 C582 1.387 . S
C581 H584 0.950 . S
C582 C581 1.387 . S
C582 C585 1.387 . S
H583 C579 0.950 . S
H584 C581 0.950 . S
C585 C576 1.390 . S
C585 H578 0.950 . S
C585 C582 1.387 . S
C586 C587 1.387 1_455 S
C586 H590 0.950 1_455 S
C586 C595 1.390 . S
C587 C586 1.387 1_655 S
C587 C589 1.387 1_655 S
H588 C595 0.950 . S
C589 C587 1.387 1_455 S
C589 C591 1.390 . S
C589 H593 0.950 1_455 S
H590 C586 0.950 1_655 S
C591 C589 1.390 . S
C591 C592 1.387 . S
C591 H594 0.950 . S
C592 C591 1.387 . S
C592 C595 1.387 . S
H593 C589 0.950 1_655 S
H594 C591 0.950 . S
C595 C586 1.390 . S
C595 H588 0.950 . S
C595 C592 1.387 . S
C596 C597 1.387 . S
C596 H600 0.950 . S
C596 C605 1.390 . S
C597 C596 1.387 . S
C597 C599 1.387 . S
H598 C605 0.950 . S
C599 C597 1.387 . S
C599 C601 1.390 . S
C599 H603 0.950 . S
H600 C596 0.950 . S
C601 C599 1.390 . S
C601 C602 1.387 . S
C601 H604 0.950 . S
C602 C601 1.387 . S
C602 C605 1.387 . S
H603 C599 0.950 . S
H604 C601 0.950 . S
C605 C596 1.390 . S
C605 H598 0.950 . S
C605 C602 1.387 . S
C606 C607 1.387 . S
C606 H610 0.950 . S
C606 C615 1.390 . S
C607 C606 1.387 . S
C607 C609 1.387 . S
H608 C615 0.950 . S
C609 C607 1.387 . S
C609 C611 1.390 . S
C609 H613 0.950 . S
H610 C606 0.950 . S
C611 C609 1.390 . S
C611 C612 1.387 . S
C611 H614 0.950 . S
C612 C611 1.387 . S
C612 C615 1.387 . S
H613 C609 0.950 . S
H614 C611 0.950 . S
C615 C606 1.390 . S
C615 H608 0.950 . S
C615 C612 1.387 . S
C616 C617 1.387 . S
C616 H620 0.950 . S
C616 C625 1.390 . S
C617 C616 1.387 . S
C617 C619 1.387 . S
H618 C625 0.950 . S
C619 C617 1.387 . S
C619 C621 1.390 . S
C619 H623 0.950 . S
H620 C616 0.950 . S
C621 C619 1.390 . S
C621 C622 1.387 . S
C621 H624 0.950 . S
C622 C621 1.387 . S
C622 C625 1.387 . S
H623 C619 0.950 . S
H624 C621 0.950 . S
C625 C616 1.390 . S
C625 H618 0.950 . S
C625 C622 1.387 . S
C626 C627 1.387 . S
C626 H630 0.950 . S
C626 C635 1.390 . S
C627 C626 1.387 . S
C627 C629 1.387 . S
H628 C635 0.950 . S
C629 C627 1.387 . S
C629 C631 1.390 . S
C629 H633 0.950 . S
H630 C626 0.950 . S
C631 C629 1.390 . S
C631 C632 1.387 . S
C631 H634 0.950 . S
C632 C631 1.387 . S
C632 C635 1.387 . S
H633 C629 0.950 . S
H634 C631 0.950 . S
C635 C626 1.390 . S
C635 H628 0.950 . S
C635 C632 1.387 . S
C636 C637 1.387 . S
C636 H640 0.950 . S
C636 C645 1.390 . S
C637 C636 1.387 . S
C637 C639 1.387 . S
H638 C645 0.950 . S
C639 C637 1.387 . S
C639 C641 1.390 . S
C639 H643 0.950 . S
H640 C636 0.950 . S
C641 C639 1.390 . S
C641 C642 1.387 . S
C641 H644 0.950 . S
C642 C641 1.387 . S
C642 C645 1.387 . S
H643 C639 0.950 . S
H644 C641 0.950 . S
C645 C636 1.390 . S
C645 H638 0.950 . S
C645 C642 1.387 . S
C646 C647 1.387 . S
C646 H650 0.950 . S
C646 C655 1.390 . S
C647 C646 1.387 . S
C647 C649 1.387 . S
H648 C655 0.950 1_655 S
C649 C647 1.387 . S
C649 C651 1.390 . S
C649 H653 0.950 . S
H650 C646 0.950 . S
C651 C649 1.390 . S
C651 C652 1.387 1_455 S
C651 H654 0.950 1_455 S
C652 C651 1.387 1_655 S
C652 C655 1.387 1_655 S
H653 C649 0.950 . S
H654 C651 0.950 1_655 S
C655 C646 1.390 . S
C655 H648 0.950 1_455 S
C655 C652 1.387 1_455 S
C656 C657 1.387 1_655 S
C656 H660 0.950 . S
C656 C665 1.390 1_565 S
C657 C656 1.387 1_455 S
C657 C659 1.387 . S
H658 C665 0.950 . S
C659 C657 1.387 . S
C659 C661 1.390 1_565 S
C659 H663 0.950 . S
H660 C656 0.950 . S
C661 C659 1.390 1_545 S
C661 C662 1.387 . S
C661 H664 0.950 . S
C662 C661 1.387 . S
C662 C665 1.387 1_455 S
H663 C659 0.950 . S
H664 C661 0.950 . S
C665 C656 1.390 1_545 S
C665 H658 0.950 . S
C665 C662 1.387 1_655 S
C666 C667 1.387 . S
C666 H670 0.950 . S
C666 C675 1.390 . S
C667 C666 1.387 . S
C667 C669 1.387 . S
H668 C675 0.950 . S
C669 C667 1.387 . S
C669 C671 1.390 . S
C669 H673 0.950 . S
H670 C666 0.950 . S
C671 C669 1.390 . S
C671 C672 1.387 . S
C671 H674 0.950 . S
C672 C671 1.387 . S
C672 C675 1.387 . S
H673 C669 0.950 . S
H674 C671 0.950 . S
C675 C666 1.390 . S
C675 H668 0.950 . S
C675 C672 1.387 . S
C676 C677 1.387 . S
C676 H680 0.950 . S
C676 C685 1.390 1_564 S
C677 C676 1.387 . S
C677 C679 1.387 . S
H678 C685 0.950 . S
C679 C677 1.387 . S
C679 C681 1.390 1_564 S
C679 H683 0.950 . S
H680 C676 0.950 . S
C681 C679 1.390 1_546 S
C681 C682 1.387 . S
C681 H684 0.950 . S
C682 C681 1.387 . S
C682 C685 1.387 . S
H683 C679 0.950 . S
H684 C681 0.950 . S
C685 C676 1.390 1_546 S
C685 H678 0.950 . S
C685 C682 1.387 . S
C686 C687 1.387 . S
C686 H690 0.950 . S
C686 C695 1.390 . S
C687 C686 1.387 . S
C687 C689 1.387 . S
H688 C695 0.950 . S
C689 C687 1.387 . S
C689 C691 1.390 . S
C689 H693 0.950 . S
H690 C686 0.950 . S
C691 C689 1.390 . S
C691 C692 1.387 . S
C691 H694 0.950 . S
C692 C691 1.387 . S
C692 C695 1.387 . S
H693 C689 0.950 . S
H694 C691 0.950 . S
C695 C686 1.390 . S
C695 H688 0.950 . S
C695 C692 1.387 . S
C696 C697 1.387 . S
C696 H700 0.950 . S
C696 C705 1.390 . S
C697 C696 1.387 . S
C697 C699 1.387 . S
H698 C705 0.950 . S
C699 C697 1.387 . S
C699 C701 1.390 . S
C699 H703 0.950 . S
H700 C696 0.950 . S
C701 C699 1.390 . S
C701 C702 1.387 . S
C701 H704 0.950 . S
C702 C701 1.387 . S
C702 C705 1.387 . S
H703 C699 0.950 . S
H704 C701 0.950 . S
C705 C696 1.390 . S
C705 H698 0.950 . S
C705 C702 1.387 . S
C706 C707 1.387 . S
C706 H710 0.950 . S
C706 C715 1.390 . S
C707 C706 1.387 . S
C707 C709 1.387 . S
H708 C715 0.950 . S
C709 C707 1.387 . S
C709 C711 1.390 . S
C709 H713 0.950 . S
H710 C706 0.950 . S
C711 C709 1.390 . S
C711 C712 1.387 . S
C711 H714 0.950 . S
C712 C711 1.387 . S
C712 C715 1.387 . S
H713 C709 0.950 . S
H714 C711 0.950 . S
C715 C706 1.390 . S
C715 H708 0.950 . S
C715 C712 1.387 . S
C716 C717 1.387 . S
C716 H720 0.950 . S
C716 C725 1.390 1_556 S
C717 C716 1.387 . S
C717 C719 1.387 . S
H718 C725 0.950 . S
C719 C717 1.387 . S
C719 C721 1.390 1_556 S
C719 H723 0.950 . S
H720 C716 0.950 . S
C721 C719 1.390 1_554 S
C721 C722 1.387 . S
C721 H724 0.950 . S
C722 C721 1.387 . S
C722 C725 1.387 . S
H723 C719 0.950 . S
H724 C721 0.950 . S
C725 C716 1.390 1_554 S
C725 H718 0.950 . S
C725 C722 1.387 . S
C726 C727 1.387 . S
C726 H730 0.950 . S
C726 C735 1.390 . S
C727 C726 1.387 . S
C727 C729 1.387 1_455 S
H728 C735 0.950 . S
C729 C727 1.387 1_655 S
C729 C731 1.390 . S
C729 H733 0.950 . S
H730 C726 0.950 . S
C731 C729 1.390 . S
C731 C732 1.387 1_655 S
C731 H734 0.950 . S
C732 C731 1.387 1_455 S
C732 C735 1.387 . S
H733 C729 0.950 . S
H734 C731 0.950 . S
C735 C726 1.390 . S
C735 H728 0.950 . S
C735 C732 1.387 . S
C736 C737 1.387 . S
C736 H740 0.950 . S
C736 C745 1.390 . S
C737 C736 1.387 . S
C737 C739 1.387 . S
H738 C745 0.950 . S
C739 C737 1.387 . S
C739 C741 1.390 . S
C739 H743 0.950 . S
H740 C736 0.950 . S
C741 C739 1.390 . S
C741 C742 1.387 . S
C741 H744 0.950 . S
C742 C741 1.387 . S
C742 C745 1.387 . S
H743 C739 0.950 . S
H744 C741 0.950 . S
C745 C736 1.390 . S
C745 H738 0.950 . S
C745 C742 1.387 . S
C746 C747 1.387 . S
C746 H750 0.950 . S
C746 C755 1.390 . S
C747 C746 1.387 . S
C747 C749 1.387 . S
H748 C755 0.950 . S
C749 C747 1.387 . S
C749 C751 1.390 . S
C749 H753 0.950 . S
H750 C746 0.950 . S
C751 C749 1.390 . S
C751 C752 1.387 . S
C751 H754 0.950 . S
C752 C751 1.387 . S
C752 C755 1.387 . S
H753 C749 0.950 . S
H754 C751 0.950 . S
C755 C746 1.390 . S
C755 H748 0.950 . S
C755 C752 1.387 . S
C756 C757 1.387 . S
C756 H760 0.950 . S
C756 C765 1.390 . S
C757 C756 1.387 . S
C757 C759 1.387 . S
H758 C765 0.950 . S
C759 C757 1.387 . S
C759 C761 1.390 . S
C759 H763 0.950 . S
H760 C756 0.950 . S
C761 C759 1.390 . S
C761 C762 1.387 . S
C761 H764 0.950 . S
C762 C761 1.387 . S
C762 C765 1.387 . S
H763 C759 0.950 . S
H764 C761 0.950 . S
C765 C756 1.390 . S
C765 H758 0.950 . S
C765 C762 1.387 . S
C766 C767 1.387 . S
C766 H770 0.950 . S
C766 C775 1.390 . S
C767 C766 1.387 . S
C767 C769 1.387 . S
H768 C775 0.950 . S
C769 C767 1.387 . S
C769 C771 1.390 . S
C769 H773 0.950 . S
H770 C766 0.950 . S
C771 C769 1.390 . S
C771 C772 1.387 . S
C771 H774 0.950 . S
C772 C771 1.387 . S
C772 C775 1.387 . S
H773 C769 0.950 . S
H774 C771 0.950 . S
C775 C766 1.390 . S
C775 H768 0.950 . S
C775 C772 1.387 . S
C776 C777 1.387 . S
C776 H780 0.950 . S
C776 C785 1.390 . S
C777 C776 1.387 . S
C777 C779 1.387 . S
H778 C785 0.950 . S
C779 C777 1.387 . S
C779 C781 1.390 . S
C779 H783 0.950 . S
H780 C776 0.950 . S
C781 C779 1.390 . S
C781 C782 1.387 . S
C781 H784 0.950 . S
C782 C781 1.387 . S
C782 C785 1.387 . S
H783 C779 0.950 . S
H784 C781 0.950 . S
C785 C776 1.390 . S
C785 H778 0.950 . S
C785 C782 1.387 . S
C786 C787 1.387 . S
C786 H790 0.950 . S
C786 C795 1.390 . S
C787 C786 1.387 . S
C787 C789 1.387 . S
H788 C795 0.950 . S
C789 C787 1.387 . S
C789 C791 1.390 . S
C789 H793 0.950 1_545 S
H790 C786 0.950 . S
C791 C789 1.390 . S
C791 C792 1.387 . S
C791 H794 0.950 . S
C792 C791 1.387 . S
C792 C795 1.387 . S
H793 C789 0.950 1_565 S
H794 C791 0.950 . S
C795 C786 1.390 . S
C795 H788 0.950 . S
C795 C792 1.387 . S
C796 C797 1.387 . S
C796 H800 0.950 . S
C796 C805 1.390 . S
C797 C796 1.387 . S
C797 C799 1.387 . S
H798 C805 0.950 . S
C799 C797 1.387 . S
C799 C801 1.390 . S
C799 H803 0.950 . S
H800 C796 0.950 . S
C801 C799 1.390 . S
C801 C802 1.387 . S
C801 H804 0.950 1_565 S
C802 C801 1.387 . S
C802 C805 1.387 . S
H803 C799 0.950 . S
H804 C801 0.950 1_545 S
C805 C796 1.390 . S
C805 H798 0.950 . S
C805 C802 1.387 . S
C806 C807 1.387 . S
C806 H810 0.950 . S
C806 C815 1.390 . S
C807 C806 1.387 . S
C807 C809 1.387 . S
H808 C815 0.950 . S
C809 C807 1.387 . S
C809 C811 1.390 . S
C809 H813 0.950 . S
H810 C806 0.950 . S
C811 C809 1.390 . S
C811 C812 1.387 . S
C811 H814 0.950 . S
C812 C811 1.387 . S
C812 C815 1.387 . S
H813 C809 0.950 . S
H814 C811 0.950 . S
C815 C806 1.390 . S
C815 H808 0.950 . S
C815 C812 1.387 . S
C816 C817 1.387 . S
C816 H820 0.950 . S
C816 C825 1.390 . S
C817 C816 1.387 . S
C817 C819 1.387 . S
H818 C825 0.950 . S
C819 C817 1.387 . S
C819 C821 1.390 . S
C819 H823 0.950 . S
H820 C816 0.950 . S
C821 C819 1.390 . S
C821 C822 1.387 . S
C821 H824 0.950 . S
C822 C821 1.387 . S
C822 C825 1.387 . S
H823 C819 0.950 . S
H824 C821 0.950 . S
C825 C816 1.390 . S
C825 H818 0.950 . S
C825 C822 1.387 . S
C826 C827 1.387 . S
C826 H830 0.950 . S
C826 C835 1.390 . S
C827 C826 1.387 . S
C827 C829 1.387 . S
H828 C835 0.950 . S
C829 C827 1.387 . S
C829 C831 1.390 . S
C829 H833 0.950 . S
H830 C826 0.950 . S
C831 C829 1.390 . S
C831 C832 1.387 . S
C831 H834 0.950 . S
C832 C831 1.387 . S
C832 C835 1.387 . S
H833 C829 0.950 . S
H834 C831 0.950 . S
C835 C826 1.390 . S
C835 H828 0.950 . S
C835 C832 1.387 . S
C836 C837 1.387 . S
C836 H840 0.950 . S
C836 C845 1.390 . S
C837 C836 1.387 . S
C837 C839 1.387 . S
H838 C845 0.950 . S
C839 C837 1.387 . S
C839 C841 1.390 . S
C839 H843 0.950 . S
H840 C836 0.950 . S
C841 C839 1.390 . S
C841 C842 1.387 . S
C841 H844 0.950 . S
C842 C841 1.387 . S
C842 C845 1.387 . S
H843 C839 0.950 . S
H844 C841 0.950 . S
C845 C836 1.390 . S
C845 H838 0.950 . S
C845 C842 1.387 . S
C846 C847 1.387 . S
C846 H850 0.950 . S
C846 C855 1.390 . S
C847 C846 1.387 . S
C847 C849 1.387 . S
H848 C855 0.950 . S
C849 C847 1.387 . S
C849 C851 1.390 . S
C849 H853 0.950 . S
H850 C846 0.950 . S
C851 C849 1.390 . S
C851 C852 1.387 . S
C851 H854 0.950 . S
C852 C851 1.387 . S
C852 C855 1.387 . S
H853 C849 0.950 . S
H854 C851 0.950 . S
C855 C846 1.390 . S
C855 H848 0.950 . S
C855 C852 1.387 . S
C856 C857 1.387 . S
C856 H860 0.950 . S
C856 C865 1.390 . S
C857 C856 1.387 . S
C857 C859 1.387 . S
H858 C865 0.950 . S
C859 C857 1.387 . S
C859 C861 1.390 . S
C859 H863 0.950 . S
H860 C856 0.950 . S
C861 C859 1.390 . S
C861 C862 1.387 . S
C861 H864 0.950 . S
C862 C861 1.387 . S
C862 C865 1.387 . S
H863 C859 0.950 . S
H864 C861 0.950 . S
C865 C856 1.390 . S
C865 H858 0.950 . S
C865 C862 1.387 . S
C866 C867 1.387 . S
C866 H870 0.950 . S
C866 C875 1.390 . S
C867 C866 1.387 . S
C867 C869 1.387 . S
H868 C875 0.950 . S
C869 C867 1.387 . S
C869 C871 1.390 . S
C869 H873 0.950 . S
H870 C866 0.950 . S
C871 C869 1.390 . S
C871 C872 1.387 . S
C871 H874 0.950 . S
C872 C871 1.387 . S
C872 C875 1.387 . S
H873 C869 0.950 . S
H874 C871 0.950 . S
C875 C866 1.390 . S
C875 H868 0.950 . S
C875 C872 1.387 . S
C876 C877 1.387 . S
C876 H880 0.950 . S
C876 C885 1.390 . S
C877 C876 1.387 . S
C877 C879 1.387 . S
H878 C885 0.950 . S
C879 C877 1.387 . S
C879 C881 1.390 . S
C879 H883 0.950 . S
H880 C876 0.950 . S
C881 C879 1.390 . S
C881 C882 1.387 . S
C881 H884 0.950 . S
C882 C881 1.387 . S
C882 C885 1.387 . S
H883 C879 0.950 . S
H884 C881 0.950 . S
C885 C876 1.390 . S
C885 H878 0.950 . S
C885 C882 1.387 . S
C886 C887 1.387 . S
C886 H890 0.950 . S
C886 C895 1.390 . S
C887 C886 1.387 . S
C887 C889 1.387 . S
H888 C895 0.950 . S
C889 C887 1.387 . S
C889 C891 1.390 . S
C889 H893 0.950 . S
H890 C886 0.950 . S
C891 C889 1.390 . S
C891 C892 1.387 . S
C891 H894 0.950 . S
C892 C891 1.387 . S
C892 C895 1.387 . S
H893 C889 0.950 . S
H894 C891 0.950 . S
C895 C886 1.390 . S
C895 H888 0.950 . S
C895 C892 1.387 . S
C577 C4 1.422 . S
C582 C472 1.422 . S
C587 C400 1.424 . S
C592 C40 1.424 . S
C597 C436 1.422 . S
C602 C76 1.422 . S
C607 C364 1.424 . S
C612 C112 1.424 . S
C617 C148 1.422 . S
C622 C544 1.422 . S
C627 C184 1.422 . S
C632 C328 1.422 . S
C637 C508 1.422 . S
C642 C220 1.422 . S
C647 C256 1.424 . S
C652 C292 1.424 . S
C657 C158 1.538 . S
C662 C14 1.538 . S
C667 C50 1.538 . S
C672 C194 1.538 . S
C677 C86 1.538 . S
C682 C230 1.538 . S
C687 C266 1.538 . S
C692 C122 1.538 . S
C697 C302 1.538 . S
C702 C374 1.538 . S
C707 C338 1.539 . S
C712 C410 1.539 . S
C717 C518 1.537 . S
C722 C446 1.537 . S
C727 C482 1.539 . S
C732 C554 1.539 . S
C737 C183 1.323 . S
C742 C3 1.323 . S
C747 C39 1.323 . S
C752 C219 1.323 . S
C757 C75 1.323 . S
C762 C255 1.323 . S
C767 C147 1.323 . S
C772 C111 1.323 . S
C777 C146 1.470 . S
C782 C362 1.472 . S
C787 C74 1.471 . S
C792 C290 1.470 . S
C797 C398 1.471 . S
C802 C218 1.470 . S
C807 C326 1.471 . S
C812 C2 1.470 . S
C817 C291 1.323 . S
C822 C435 1.323 . S
C827 C363 1.323 . S
C832 C543 1.323 . S
C837 C471 1.323 . S
C842 C327 1.323 . S
C847 C399 1.323 . S
C852 C507 1.323 . S
C857 C506 1.470 . S
C862 C38 1.472 . S
C867 C470 1.472 . S
C872 C182 1.470 . S
C877 C542 1.470 . S
C882 C110 1.472 . S
C887 C434 1.470 . S
C892 C254 1.472 . S
