# Generated by pormake.
# Topology lcs, (4)-cn, num edge types: 1
# Building blocks:
#     Node 0, Type 0, BuildingBlock: NAHDIM_clean_sbu_0, # of connection points: 4
#     Node 1, Type 0, BuildingBlock: NAHDIM_clean_sbu_0, # of connection points: 4
#     Node 2, Type 0, BuildingBlock: NAHDIM_clean_sbu_0, # of connection points: 4
#     Node 3, Type 0, BuildingBlock: NAHDIM_clean_sbu_0, # of connection points: 4
#     Node 4, Type 0, BuildingBlock: NAHDIM_clean_sbu_0, # of connection points: 4
#     Node 5, Type 0, BuildingBlock: NAHDIM_clean_sbu_0, # of connection points: 4
#     Node 6, Type 0, BuildingBlock: NAHDIM_clean_sbu_0, # of connection points: 4
#     Node 7, Type 0, BuildingBlock: NAHDIM_clean_sbu_0, # of connection points: 4
#     Node 8, Type 0, BuildingBlock: NAHDIM_clean_sbu_0, # of connection points: 4
#     Node 9, Type 0, BuildingBlock: NAHDIM_clean_sbu_0, # of connection points: 4
#     Node 10, Type 0, BuildingBlock: NAHDIM_clean_sbu_0, # of connection points: 4
#     Node 11, Type 0, BuildingBlock: NAHDIM_clean_sbu_0, # of connection points: 4
#     Node 12, Type 0, BuildingBlock: NAHDIM_clean_sbu_0, # of connection points: 4
#     Node 13, Type 0, BuildingBlock: NAHDIM_clean_sbu_0, # of connection points: 4
#     Node 14, Type 0, BuildingBlock: NAHDIM_clean_sbu_0, # of connection points: 4
#     Node 15, Type 0, BuildingBlock: NAHDIM_clean_sbu_0, # of connection points: 4
#     Node 16, Type 0, BuildingBlock: NAHDIM_clean_sbu_0, # of connection points: 4
#     Node 17, Type 0, BuildingBlock: NAHDIM_clean_sbu_0, # of connection points: 4
#     Node 18, Type 0, BuildingBlock: NAHDIM_clean_sbu_0, # of connection points: 4
#     Node 19, Type 0, BuildingBlock: NAHDIM_clean_sbu_0, # of connection points: 4
#     Node 20, Type 0, BuildingBlock: NAHDIM_clean_sbu_0, # of connection points: 4
#     Node 21, Type 0, BuildingBlock: NAHDIM_clean_sbu_0, # of connection points: 4
#     Node 22, Type 0, BuildingBlock: NAHDIM_clean_sbu_0, # of connection points: 4
#     Node 23, Type 0, BuildingBlock: NAHDIM_clean_sbu_0, # of connection points: 4
#     Edge 24, Type (0, 0), BuildingBlock: KIFKEQ_clean_linker_1, # of connection points: 2
#     Edge 25, Type (0, 0), BuildingBlock: KIFKEQ_clean_linker_1, # of connection points: 2
#     Edge 26, Type (0, 0), BuildingBlock: KIFKEQ_clean_linker_1, # of connection points: 2
#     Edge 27, Type (0, 0), BuildingBlock: KIFKEQ_clean_linker_1, # of connection points: 2
#     Edge 28, Type (0, 0), BuildingBlock: KIFKEQ_clean_linker_1, # of connection points: 2
#     Edge 29, Type (0, 0), BuildingBlock: KIFKEQ_clean_linker_1, # of connection points: 2
#     Edge 30, Type (0, 0), BuildingBlock: KIFKEQ_clean_linker_1, # of connection points: 2
#     Edge 31, Type (0, 0), BuildingBlock: KIFKEQ_clean_linker_1, # of connection points: 2
#     Edge 32, Type (0, 0), BuildingBlock: KIFKEQ_clean_linker_1, # of connection points: 2
#     Edge 33, Type (0, 0), BuildingBlock: KIFKEQ_clean_linker_1, # of connection points: 2
#     Edge 34, Type (0, 0), BuildingBlock: KIFKEQ_clean_linker_1, # of connection points: 2
#     Edge 35, Type (0, 0), BuildingBlock: KIFKEQ_clean_linker_1, # of connection points: 2
#     Edge 36, Type (0, 0), BuildingBlock: KIFKEQ_clean_linker_1, # of connection points: 2
#     Edge 37, Type (0, 0), BuildingBlock: KIFKEQ_clean_linker_1, # of connection points: 2
#     Edge 38, Type (0, 0), BuildingBlock: KIFKEQ_clean_linker_1, # of connection points: 2
#     Edge 39, Type (0, 0), BuildingBlock: KIFKEQ_clean_linker_1, # of connection points: 2
#     Edge 40, Type (0, 0), BuildingBlock: KIFKEQ_clean_linker_1, # of connection points: 2
#     Edge 41, Type (0, 0), BuildingBlock: KIFKEQ_clean_linker_1, # of connection points: 2
#     Edge 42, Type (0, 0), BuildingBlock: KIFKEQ_clean_linker_1, # of connection points: 2
#     Edge 43, Type (0, 0), BuildingBlock: KIFKEQ_clean_linker_1, # of connection points: 2
#     Edge 44, Type (0, 0), BuildingBlock: KIFKEQ_clean_linker_1, # of connection points: 2
#     Edge 45, Type (0, 0), BuildingBlock: KIFKEQ_clean_linker_1, # of connection points: 2
#     Edge 46, Type (0, 0), BuildingBlock: KIFKEQ_clean_linker_1, # of connection points: 2
#     Edge 47, Type (0, 0), BuildingBlock: KIFKEQ_clean_linker_1, # of connection points: 2
#     Edge 48, Type (0, 0), BuildingBlock: KIFKEQ_clean_linker_1, # of connection points: 2
#     Edge 49, Type (0, 0), BuildingBlock: KIFKEQ_clean_linker_1, # of connection points: 2
#     Edge 50, Type (0, 0), BuildingBlock: KIFKEQ_clean_linker_1, # of connection points: 2
#     Edge 51, Type (0, 0), BuildingBlock: KIFKEQ_clean_linker_1, # of connection points: 2
#     Edge 52, Type (0, 0), BuildingBlock: KIFKEQ_clean_linker_1, # of connection points: 2
#     Edge 53, Type (0, 0), BuildingBlock: KIFKEQ_clean_linker_1, # of connection points: 2
#     Edge 54, Type (0, 0), BuildingBlock: KIFKEQ_clean_linker_1, # of connection points: 2
#     Edge 55, Type (0, 0), BuildingBlock: KIFKEQ_clean_linker_1, # of connection points: 2
#     Edge 56, Type (0, 0), BuildingBlock: KIFKEQ_clean_linker_1, # of connection points: 2
#     Edge 57, Type (0, 0), BuildingBlock: KIFKEQ_clean_linker_1, # of connection points: 2
#     Edge 58, Type (0, 0), BuildingBlock: KIFKEQ_clean_linker_1, # of connection points: 2
#     Edge 59, Type (0, 0), BuildingBlock: KIFKEQ_clean_linker_1, # of connection points: 2
#     Edge 60, Type (0, 0), BuildingBlock: KIFKEQ_clean_linker_1, # of connection points: 2
#     Edge 61, Type (0, 0), BuildingBlock: KIFKEQ_clean_linker_1, # of connection points: 2
#     Edge 62, Type (0, 0), BuildingBlock: KIFKEQ_clean_linker_1, # of connection points: 2
#     Edge 63, Type (0, 0), BuildingBlock: KIFKEQ_clean_linker_1, # of connection points: 2
#     Edge 64, Type (0, 0), BuildingBlock: KIFKEQ_clean_linker_1, # of connection points: 2
#     Edge 65, Type (0, 0), BuildingBlock: KIFKEQ_clean_linker_1, # of connection points: 2
#     Edge 66, Type (0, 0), BuildingBlock: KIFKEQ_clean_linker_1, # of connection points: 2
#     Edge 67, Type (0, 0), BuildingBlock: KIFKEQ_clean_linker_1, # of connection points: 2
#     Edge 68, Type (0, 0), BuildingBlock: KIFKEQ_clean_linker_1, # of connection points: 2
#     Edge 69, Type (0, 0), BuildingBlock: KIFKEQ_clean_linker_1, # of connection points: 2
#     Edge 70, Type (0, 0), BuildingBlock: KIFKEQ_clean_linker_1, # of connection points: 2
#     Edge 71, Type (0, 0), BuildingBlock: KIFKEQ_clean_linker_1, # of connection points: 2
# Relax obj value: 0.090
# Max RMSD: 0.162
# Mean RMSD: 0.151
data_MOF--net-lcs--node1-NAHDIM_clean_sbu_0--edge1-KIFKEQ_clean_linker_1
_symmetry_space_group_name_H-M    P1
_symmetry_Int_Tables_number       1
_symmetry_cell_setting            triclinic
loop_
_symmetry_equiv_pos_as_xyz
'x, y, z'
_cell_length_a     51.00974
_cell_length_b     49.33905
_cell_length_c     49.251177
_cell_angle_alpha  91.598367
_cell_angle_beta   90.696788
_cell_angle_gamma 91.299668
loop_
_atom_site_label
_atom_site_type_symbol
_atom_site_fract_x
_atom_site_fract_y
_atom_site_fract_z
_atom_type_partial_charge
C0 C 0.94504 0.26843 0.39489 0.0
O1 O 0.94058 0.25967 0.36978 0.0
O2 O 0.98166 0.21606 0.36393 0.0
Zn3 Zn 0.99576 0.25086 0.38141 0.0
O4 O 0.00548 0.27916 0.35446 0.0
C5 C 0.04256 0.22414 0.39636 0.0
O6 O 0.03679 0.21029 0.37382 0.0
O7 O 0.9679 0.26645 0.40505 0.0
C8 C 0.02341 0.27675 0.33693 0.0
O9 O 0.0361 0.25393 0.33486 0.0
C10 C 0.97641 0.21198 0.33885 0.0
O11 O 0.9801 0.23172 0.32185 0.0
O12 O 0.0275 0.2429 0.40417 0.0
C13 C 0.02626 0.73132 0.60277 0.0
O14 O 0.0027 0.72006 0.60057 0.0
O15 O 0.99239 0.73499 0.67023 0.0
Zn16 Zn 0.00184 0.76431 0.64424 0.0
O17 O 0.01545 0.79798 0.66416 0.0
C18 C 0.94978 0.78117 0.63618 0.0
O19 O 0.95188 0.7842 0.66272 0.0
O20 O 0.03018 0.75102 0.61957 0.0
C21 C 0.02395 0.79799 0.68852 0.0
O22 O 0.0232 0.77534 0.70189 0.0
C23 C 0.00852 0.71694 0.67673 0.0
O24 O 0.03238 0.71787 0.667 0.0
O25 O 0.96939 0.77287 0.62292 0.0
C26 C 0.4532 0.75873 0.89074 0.0
O27 O 0.4487 0.75103 0.86533 0.0
O28 O 0.49092 0.70741 0.85801 0.0
Zn29 Zn 0.50435 0.74209 0.87656 0.0
O30 O 0.51376 0.77139 0.85045 0.0
C31 C 0.55244 0.71688 0.89048 0.0
O32 O 0.54782 0.70447 0.86691 0.0
O33 O 0.47613 0.75651 0.90068 0.0
C34 C 0.52958 0.76883 0.83087 0.0
O35 O 0.54023 0.74523 0.82595 0.0
C36 C 0.48289 0.70482 0.83352 0.0
O37 O 0.48319 0.72602 0.81798 0.0
O38 O 0.53623 0.73412 0.89927 0.0
C39 C 0.54844 0.22781 0.12321 0.0
O40 O 0.54729 0.22536 0.14967 0.0
O41 O 0.4866 0.22734 0.15558 0.0
Zn42 Zn 0.50417 0.25768 0.13589 0.0
O43 O 0.52255 0.28389 0.16181 0.0
C44 C 0.45618 0.26407 0.10637 0.0
O45 O 0.45402 0.23795 0.1106 0.0
O46 O 0.5312 0.24162 0.11137 0.0
C47 C 0.51042 0.30078 0.17665 0.0
O48 O 0.48467 0.30081 0.17568 0.0
C49 C 0.49045 0.22093 0.18008 0.0
O50 O 0.50731 0.23517 0.19535 0.0
O51 O 0.47668 0.27703 0.11469 0.0
C52 C 0.0642 0.76642 0.11167 0.0
O53 O 0.06513 0.75989 0.13733 0.0
O54 O 0.01854 0.73005 0.14861 0.0
Zn55 Zn 0.00968 0.75742 0.12063 0.0
O56 O 0.99575 0.79098 0.13848 0.0
C57 C 0.98022 0.71767 0.08736 0.0
O58 O -0.00016 0.70188 0.09299 0.0
O59 O 0.04207 0.76672 0.09952 0.0
C60 C 0.00638 0.80409 0.15843 0.0
O61 O 0.02846 0.79568 0.1689 0.0
C62 C 0.00154 0.7149 0.15971 0.0
O63 O 0.97662 0.71744 0.15349 0.0
O64 O 0.98094 0.74212 0.09616 0.0
C65 C 0.44034 0.72374 0.39614 0.0
O66 O 0.44214 0.71865 0.3699 0.0
O67 O 0.49991 0.70911 0.36391 0.0
Zn68 Zn 0.49207 0.74219 0.38682 0.0
O69 O 0.48453 0.77346 0.36272 0.0
C70 C 0.54545 0.75493 0.3988 0.0
O71 O 0.54596 0.75361 0.37213 0.0
O72 O 0.46001 0.73433 0.40888 0.0
C73 C 0.49336 0.79739 0.36774 0.0
O74 O 0.50781 0.80233 0.38965 0.0
C75 C 0.50627 0.71029 0.3391 0.0
O76 O 0.50732 0.73393 0.32749 0.0
O77 O 0.52378 0.75074 0.41065 0.0
C78 C 0.56529 0.27038 0.61607 0.0
O79 O 0.56469 0.26912 0.64266 0.0
O80 O 0.52139 0.22214 0.64669 0.0
Zn81 Zn 0.51275 0.25367 0.62347 0.0
O82 O 0.50144 0.28629 0.64524 0.0
C83 C 0.46469 0.25535 0.59077 0.0
O84 O 0.46488 0.28126 0.59769 0.0
O85 O 0.54462 0.26427 0.60238 0.0
C86 C 0.48258 0.28568 0.66181 0.0
O87 O 0.47041 0.26247 0.66615 0.0
C88 C 0.52744 0.22249 0.67179 0.0
O89 O 0.52857 0.24568 0.68557 0.0
O90 O 0.48336 0.24073 0.59859 0.0
C91 C 0.9476 0.22456 0.90295 0.0
O92 O 0.95045 0.21962 0.87681 0.0
O93 O 0.00937 0.21562 0.87307 0.0
Zn94 Zn -0.00237 0.24806 0.89495 0.0
O95 O 0.98728 0.27717 0.86947 0.0
C96 C 0.04747 0.24871 0.92397 0.0
O97 O 0.04943 0.22449 0.91253 0.0
O98 O 0.96593 0.23709 0.91614 0.0
C99 C 0.00284 0.29647 0.86334 0.0
O100 O 0.02657 0.29771 0.87405 0.0
C101 C 0.02349 0.21815 0.85218 0.0
O102 O 0.03059 0.24253 0.84464 0.0
O103 O 0.02684 0.2621 0.91994 0.0
C104 C 0.42186 0.95045 0.26204 0.0
O105 O 0.41346 0.9474 0.23679 0.0
O106 O 0.36943 0.98654 0.23122 0.0
Zn107 Zn 0.39032 -0.00062 0.26413 0.0
O108 O 0.36724 0.00736 0.2959 0.0
C109 C 0.39834 0.05117 0.24187 0.0
O110 O 0.37392 0.04619 0.23419 0.0
O111 O 0.41497 0.97094 0.27617 0.0
C112 C 0.34541 0.01921 0.29506 0.0
O113 O 0.33585 0.02663 0.27161 0.0
C114 C 0.35078 0.96909 0.23182 0.0
O115 O 0.34446 0.95843 0.25507 0.0
O116 O 0.41031 0.03348 0.25523 0.0
C117 C 0.20316 0.16967 0.49978 0.0
O118 O 0.20162 0.16301 0.52537 0.0
O119 O 0.23994 0.12052 0.53322 0.0
Zn120 Zn 0.25221 0.14066 0.50066 0.0
O121 O 0.26161 0.11452 0.47053 0.0
C122 C 0.29863 0.157 0.53015 0.0
O123 O 0.29263 0.13477 0.543 0.0
O124 O 0.22314 0.16301 0.4862 0.0
C125 C 0.28296 0.10179 0.47004 0.0
O126 O 0.29967 0.10502 0.49042 0.0
C127 C 0.22734 0.09803 0.53143 0.0
O128 O 0.22179 0.0872 0.50731 0.0
O129 O 0.28377 0.16426 0.5109 0.0
C130 C 0.15424 0.02383 0.70365 0.0
O131 O 0.12885 0.01882 0.70447 0.0
O132 O 0.12709 0.05011 0.76877 0.0
Zn133 Zn 0.14718 0.01667 0.75944 0.0
O134 O 0.12253 0.98483 0.75223 0.0
C135 C 0.1592 0.00766 0.81412 0.0
O136 O 0.13396 0.01226 0.81522 0.0
O137 O 0.16755 0.02369 0.72563 0.0
C138 C 0.12996 0.96082 0.75603 0.0
O139 O 0.15391 0.95701 0.76503 0.0
C140 C 0.10223 0.05062 0.76978 0.0
O141 O 0.08838 0.02835 0.76417 0.0
O142 O 0.17051 0.00869 0.7913 0.0
C143 C 0.31282 0.86093 0.98895 0.0
O144 O 0.31867 0.88546 -0.00143 0.0
O145 O 0.27642 0.89767 0.03678 0.0
Zn146 Zn 0.26195 0.87799 0.00327 0.0
O147 O 0.25329 0.90362 0.97372 0.0
C148 C 0.23019 0.8362 0.02701 0.0
O149 O 0.25316 0.82737 0.03468 0.0
O150 O 0.28907 0.85259 0.98903 0.0
C151 C 0.24131 0.92564 0.97768 0.0
O152 O 0.23476 0.93292 0.00251 0.0
C153 C 0.2623 0.90333 0.05717 0.0
O154 O 0.23708 0.89733 0.05608 0.0
O155 O 0.22921 0.85726 0.01283 0.0
C156 C 0.30072 0.36564 0.03697 0.0
O157 O 0.29909 0.39174 0.04253 0.0
O158 O 0.24135 0.40113 0.03934 0.0
Zn159 Zn 0.25293 0.37593 0.00932 0.0
O160 O 0.26643 0.39722 0.97807 0.0
C161 C 0.20333 0.34618 0.01167 0.0
O162 O 0.20296 0.35642 0.03657 0.0
O163 O 0.28258 0.35374 0.02295 0.0
C164 C 0.25286 0.40149 0.95688 0.0
O165 O 0.22845 0.39247 0.95531 0.0
C166 C 0.22372 0.41846 0.03562 0.0
O167 O 0.21307 0.42035 0.01134 0.0
O168 O 0.22281 0.35143 -0.00332 0.0
C169 C 0.69119 0.1309 0.02298 0.0
O170 O 0.69238 0.10439 0.02433 0.0
O171 O 0.75145 0.09858 0.02685 0.0
Zn172 Zn 0.7377 0.12029 0.99609 0.0
O173 O 0.72166 0.09547 0.96719 0.0
C174 C 0.78695 0.14998 0.99479 0.0
O175 O 0.78795 0.14353 0.02047 0.0
O176 O 0.70933 0.14368 0.01094 0.0
C177 C 0.73436 0.08624 0.94706 0.0
O178 O 0.75935 0.09275 0.94486 0.0
C179 C 0.76777 0.07972 0.02379 0.0
O180 O 0.77611 0.07348 -0.00068 0.0
O181 O 0.76695 0.14278 0.98047 0.0
C182 C 0.07879 0.55471 0.24801 0.0
O183 O 0.09783 0.55787 0.26608 0.0
O184 O 0.11916 0.49387 0.2066 0.0
Zn185 Zn 0.10017 0.5011 0.24144 0.0
O186 O 0.12593 0.51069 0.27184 0.0
C187 C 0.09445 0.44587 0.25276 0.0
O188 O 0.11985 0.44805 0.24886 0.0
O189 O 0.07556 0.53192 0.23558 0.0
C190 C 0.12067 0.50489 0.29619 0.0
O191 O 0.09841 0.49222 0.30128 0.0
C192 C 0.14315 0.49999 0.20288 0.0
O193 O 0.15688 0.51215 0.2226 0.0
O194 O 0.08059 0.46679 0.25045 0.0
C195 C 0.78176 0.83239 0.54257 0.0
O196 O 0.75956 0.83258 0.55582 0.0
O197 O 0.73597 0.88559 0.53092 0.0
Zn198 Zn 0.75236 0.86166 0.50262 0.0
O199 O 0.76642 0.88414 0.47253 0.0
C200 C 0.70406 0.83034 0.50072 0.0
O201 O 0.70137 0.84172 0.52492 0.0
O202 O 0.78282 0.84287 0.51934 0.0
C203 C 0.75291 0.8904 0.45189 0.0
O204 O 0.72815 0.88256 0.45007 0.0
C205 C 0.74629 0.90732 0.54103 0.0
O206 O 0.76929 0.91571 0.53248 0.0
O207 O 0.72492 0.83501 0.48758 0.0
C208 C 0.85366 0.00873 0.19149 0.0
O209 O 0.87941 0.00857 0.19244 0.0
O210 O 0.88719 0.96498 0.23463 0.0
Zn211 Zn 0.86283 0.99484 0.24553 0.0
O212 O 0.88247 0.02906 0.25722 0.0
C213 C 0.84962 0.96512 0.29235 0.0
O214 O 0.87341 0.95636 0.28825 0.0
O215 O 0.84099 0.00317 0.21277 0.0
C216 C 0.89807 0.03062 0.27753 0.0
O217 O 0.90224 0.00886 0.29159 0.0
C218 C 0.91178 0.96727 0.23119 0.0
O219 O 0.92356 0.99107 0.23475 0.0
O220 O 0.84018 0.98217 0.27622 0.0
C221 C 0.18094 0.6385 0.51898 0.0
O222 O 0.17991 0.61194 0.51607 0.0
O223 O 0.24761 0.60805 0.52648 0.0
Zn224 Zn 0.23055 0.62861 0.49661 0.0
O225 O 0.21442 0.60306 0.46837 0.0
C226 C 0.27853 0.65976 0.4931 0.0
O227 O 0.28002 0.65399 0.51894 0.0
O228 O 0.20165 0.65123 0.51207 0.0
C229 C 0.22723 0.59172 0.44942 0.0
O230 O 0.25269 0.59605 0.4482 0.0
C231 C 0.24145 0.58431 0.5339 0.0
O232 O 0.22199 0.57089 0.52159 0.0
O233 O 0.2584 0.65186 0.47931 0.0
C234 C 0.34536 0.51029 0.68948 0.0
O235 O 0.3711 0.51062 0.6886 0.0
O236 O 0.37887 0.46131 0.73032 0.0
Zn237 Zn 0.35785 0.49359 0.7422 0.0
O238 O 0.38052 0.5265 0.75217 0.0
C239 C 0.34603 0.46664 0.79109 0.0
O240 O 0.36915 0.45655 0.78614 0.0
O241 O 0.33422 0.50324 0.7112 0.0
C242 C 0.39824 0.52689 0.77056 0.0
O243 O 0.40301 0.50461 0.78355 0.0
C244 C 0.40321 0.4613 0.72515 0.0
O245 O 0.41694 0.48414 0.72689 0.0
O246 O 0.33648 0.48335 0.77467 0.0
C247 C 0.60046 0.04899 0.7377 0.0
O248 O 0.62534 0.04996 0.74498 0.0
O249 O 0.63107 0.98596 0.70432 0.0
Zn250 Zn 0.61134 0.99318 0.73876 0.0
O251 O 0.63656 0.00109 0.76985 0.0
C252 C 0.60293 0.93802 0.74848 0.0
O253 O 0.62829 0.93917 0.74412 0.0
O254 O 0.58911 0.02596 0.7338 0.0
C255 C 0.63074 -0.00438 0.79412 0.0
O256 O 0.60806 0.98368 0.79896 0.0
C257 C 0.65557 0.99045 0.70206 0.0
O258 O 0.66905 0.00076 0.72292 0.0
O259 O 0.58996 0.95965 0.74693 0.0
C260 C 0.70995 0.65769 0.99608 0.0
O261 O 0.70697 0.6489 0.02081 0.0
O262 O 0.74379 0.6062 0.02855 0.0
Zn263 Zn 0.7579 0.62673 -0.003 0.0
O264 O 0.76665 0.60169 0.96571 0.0
C265 C 0.80506 0.6378 0.02753 0.0
O266 O 0.79685 0.61589 0.03972 0.0
O267 O 0.73048 0.6517 0.98305 0.0
C268 C 0.78624 0.58627 0.96609 0.0
O269 O 0.80055 0.58515 0.98835 0.0
C270 C 0.73016 0.58437 0.02645 0.0
O271 O 0.72465 0.57377 0.00222 0.0
O272 O 0.79105 0.64723 0.00862 0.0
C273 C 0.92763 0.44626 0.75559 0.0
O274 O 0.91198 0.44149 0.73454 0.0
O275 O 0.88213 0.49052 0.72473 0.0
Zn276 Zn 0.90497 0.5002 0.75723 0.0
O277 O 0.88251 0.5082 0.78949 0.0
C278 C 0.93125 0.55315 0.76426 0.0
O279 O 0.92091 0.5533 0.78855 0.0
O280 O 0.92807 0.46955 0.76727 0.0
C281 C 0.86436 0.52539 0.78941 0.0
O282 O 0.85979 0.5389 0.76729 0.0
C283 C 0.86085 0.47683 0.72646 0.0
O284 O 0.85359 0.46805 0.75023 0.0
O285 O 0.92726 0.53277 0.74827 0.0
C286 C 0.80577 0.37605 0.48866 0.0
O287 O 0.81178 0.40087 0.49734 0.0
O288 O 0.77117 0.41395 0.53615 0.0
Zn289 Zn 0.75525 0.39314 0.50412 0.0
O290 O 0.745 0.41742 0.47402 0.0
C291 C 0.72635 0.35244 0.53201 0.0
O292 O 0.75002 0.34631 0.54028 0.0
O293 O 0.78208 0.36766 0.48963 0.0
C294 C 0.73091 0.43814 0.47712 0.0
O295 O 0.72296 0.44511 0.50156 0.0
C296 C 0.75841 0.42055 0.55722 0.0
O297 O 0.7331 0.41507 0.55793 0.0
O298 O 0.72365 0.3719 0.51595 0.0
C299 C 0.64614 0.51818 0.19675 0.0
O300 O 0.62074 0.5131 0.1963 0.0
O301 O 0.61424 0.54575 0.25865 0.0
Zn302 Zn 0.63645 0.51308 0.25252 0.0
O303 O 0.61331 0.48002 0.24585 0.0
C304 C 0.64683 0.50758 0.30845 0.0
O305 O 0.62131 0.51062 0.3086 0.0
O306 O 0.65827 0.51901 0.21947 0.0
C307 C 0.61948 0.45656 0.25334 0.0
O308 O 0.64196 0.45337 0.266 0.0
C309 C 0.5896 0.54397 0.26201 0.0
O310 O 0.57788 0.51998 0.26113 0.0
O311 O 0.6587 0.50811 0.28592 0.0
H312 H 0.04241 0.43317 0.25925 0.0
H313 H 0.11979 0.39984 0.2657 0.0
H314 H 0.02336 0.39099 0.27569 0.0
H315 H 0.10091 0.35817 0.28292 0.0
H316 H 0.05945 0.27855 0.29625 0.0
H317 H 0.07482 0.31832 0.27221 0.0
H318 H 0.02116 0.36805 0.31773 0.0
H319 H 0.00526 0.32829 0.34102 0.0
C320 C 0.05534 0.41683 0.26414 0.0
C321 C 0.08262 0.4199 0.26132 0.0
C322 C 0.04444 0.39271 0.27367 0.0
C323 C 0.06059 0.3712 0.28075 0.0
C324 C 0.08782 0.37411 0.27729 0.0
C325 C 0.09869 0.39813 0.2676 0.0
C326 C 0.05074 0.29793 0.30088 0.0
C327 C 0.03127 0.30028 0.32068 0.0
C328 C 0.05965 0.32076 0.28722 0.0
C329 C 0.04939 0.34645 0.29317 0.0
C330 C 0.0293 0.34857 0.31235 0.0
C331 C 0.02029 0.32575 0.32587 0.0
H332 H 0.93722 0.77265 0.58238 0.0
H333 H 0.90592 0.80308 0.65816 0.0
H334 H 0.89607 0.78245 0.55937 0.0
H335 H 0.86512 0.81358 0.63505 0.0
H336 H 0.78659 0.80746 0.59128 0.0
H337 H 0.8268 0.79309 0.61339 0.0
H338 H 0.87171 0.82073 0.54523 0.0
H339 H 0.83155 0.83433 0.52284 0.0
C340 C 0.92161 0.78154 0.59411 0.0
C341 C 0.92487 0.78714 0.62209 0.0
C342 C 0.89804 0.78726 0.58089 0.0
C343 C 0.87726 0.79882 0.59534 0.0
C344 C 0.88053 0.80428 0.62337 0.0
C345 C 0.90403 0.79845 0.63659 0.0
C346 C 0.80503 0.81025 0.58093 0.0
C347 C 0.80586 0.82211 0.55534 0.0
C348 C 0.8281 0.80218 0.59368 0.0
C349 C 0.85253 0.80589 0.58117 0.0
C350 C 0.85324 0.81724 0.55532 0.0
C351 C 0.83019 0.82519 0.54253 0.0
H352 H 0.38837 0.57775 0.75298 0.0
H353 H 0.44047 0.534 0.80493 0.0
H354 H 0.41013 0.62026 0.76727 0.0
H355 H 0.46286 0.57646 0.81856 0.0
H356 H 0.47385 0.65907 0.86219 0.0
H357 H 0.45478 0.61602 0.84578 0.0
H358 H 0.44965 0.64701 0.7647 0.0
H359 H 0.46801 0.69051 0.78137 0.0
C360 C 0.40469 0.57717 0.7672 0.0
C361 C 0.41257 0.5525 0.77796 0.0
C362 C 0.4173 0.60156 0.77528 0.0
C363 C 0.43822 0.60185 0.79416 0.0
C364 C 0.44651 0.57706 0.80437 0.0
C365 C 0.43378 0.55268 0.79643 0.0
C366 C 0.46875 0.6567 0.84083 0.0
C367 C 0.47235 0.67828 0.82311 0.0
C368 C 0.45796 0.6319 0.83136 0.0
C369 C 0.45067 0.62797 0.80389 0.0
C370 C 0.45468 0.64944 0.78606 0.0
C371 C 0.46533 0.67435 0.79559 0.0
H372 H 0.5607 0.23351 0.06959 0.0
H373 H 0.58329 0.19153 0.14181 0.0
H374 H 0.59502 0.21038 0.04421 0.0
H375 H 0.61741 0.16862 0.11651 0.0
H376 H 0.65346 0.1098 0.05538 0.0
H377 H 0.61863 0.13372 0.07859 0.0
H378 H 0.64498 0.20883 0.04388 0.0
H379 H 0.67999 0.18486 0.02045 0.0
C380 C 0.57297 0.21939 0.08003 0.0
C381 C 0.56925 0.21428 0.10768 0.0
C382 C 0.59267 0.20629 0.06555 0.0
C383 C 0.60875 0.18764 0.07839 0.0
C384 C 0.60507 0.18265 0.10603 0.0
C385 C 0.58561 0.19589 0.12054 0.0
C386 C 0.65182 0.13139 0.05257 0.0
C387 C 0.66956 0.14547 0.03618 0.0
C388 C 0.63194 0.14509 0.06598 0.0
C389 C 0.62923 0.17313 0.06314 0.0
C390 C 0.64657 0.18717 0.04628 0.0
C391 C 0.66666 0.17348 0.03301 0.0
H392 H 0.08393 0.60706 0.26722 0.0
H393 H 0.0389 0.5558 0.2104 0.0
H394 H 0.0624 0.64682 0.25001 0.0
H395 H 0.0176 0.59566 0.19304 0.0
H396 H 0.97231 0.67216 0.17825 0.0
H397 H 0.98796 0.63382 0.20385 0.0
H398 H 0.06598 0.66978 0.20623 0.0
H399 H 0.05043 0.70803 0.18096 0.0
C400 C 0.06922 0.60421 0.25129 0.0
C401 C 0.06336 0.57828 0.23995 0.0
C402 C 0.05697 0.62702 0.24138 0.0
C403 C 0.0385 0.62438 0.22002 0.0
C404 C 0.03162 0.59832 0.20965 0.0
C405 C 0.04395 0.5755 0.21949 0.0
C406 C 0.99272 0.67203 0.18458 0.0
C407 C 0.01018 0.69303 0.17744 0.0
C408 C 0.00168 0.65003 0.1991 0.0
C409 C 0.02819 0.64877 0.20699 0.0
C410 C 0.04538 0.6703 0.20073 0.0
C411 C 0.03649 0.69214 0.18606 0.0
H412 H 0.55378 0.75223 0.45368 0.0
H413 H 0.59142 0.77518 0.37939 0.0
H414 H 0.59314 0.76634 0.47945 0.0
H415 H 0.63021 0.79031 0.40507 0.0
H416 H 0.70438 0.79893 0.45406 0.0
H417 H 0.66689 0.77705 0.4306 0.0
H418 H 0.61588 0.80648 0.49386 0.0
H419 H 0.65346 0.82723 0.51779 0.0
C420 C 0.57044 0.76035 0.44287 0.0
C421 C 0.56946 0.76267 0.41452 0.0
C422 C 0.59297 0.76856 0.45764 0.0
C423 C 0.61492 0.77955 0.44441 0.0
C424 C 0.61395 0.7815 0.41597 0.0
C425 C 0.59157 0.77301 0.40121 0.0
C426 C 0.68519 0.8004 0.4631 0.0
C427 C 0.68187 0.81494 0.48769 0.0
C428 C 0.66364 0.78803 0.44956 0.0
C429 C 0.63823 0.79021 0.46014 0.0
C430 C 0.63513 0.80403 0.48522 0.0
C431 C 0.65671 0.8161 0.4989 0.0
H432 H 0.44454 0.29202 0.70004 0.0
H433 H 0.4987 0.33731 0.65085 0.0
H434 H 0.42671 0.3344 0.71754 0.0
H435 H 0.48035 0.37952 0.6676 0.0
H436 H 0.45555 0.45227 0.71855 0.0
H437 H 0.47613 0.40962 0.70609 0.0
H438 H 0.39984 0.3697 0.70129 0.0
H439 H 0.37942 0.41199 0.71455 0.0
C440 C 0.45269 0.31101 0.69301 0.0
C441 C 0.47295 0.31128 0.67397 0.0
C442 C 0.44235 0.3353 0.7029 0.0
C443 C 0.45194 0.3604 0.69383 0.0
C444 C 0.47269 0.36062 0.67531 0.0
C445 C 0.48313 0.33636 0.66557 0.0
C446 C 0.4432 0.43436 0.71489 0.0
C447 C 0.41585 0.43555 0.71748 0.0
C448 C 0.45499 0.40992 0.70765 0.0
C449 C 0.43966 0.38618 0.7027 0.0
C450 C 0.41231 0.38743 0.70542 0.0
C451 C 0.40056 0.41178 0.71281 0.0
H452 H 0.93282 0.23597 0.95523 0.0
H453 H 0.90791 0.1923 0.88177 0.0
H454 H 0.89312 0.22044 0.97775 0.0
H455 H 0.86876 0.1761 0.90445 0.0
H456 H 0.78971 0.17026 0.94381 0.0
H457 H 0.82781 0.19044 0.92212 0.0
H458 H 0.87382 0.17988 0.9952 0.0
H459 H 0.83549 0.16054 0.01716 0.0
C460 C 0.91892 0.22298 0.94392 0.0
C461 C 0.92352 0.21536 0.91672 0.0
C462 C 0.89622 0.21397 0.95686 0.0
C463 C 0.87771 0.19702 0.94292 0.0
C464 C 0.88234 0.18952 0.91568 0.0
C465 C 0.90491 0.19865 0.90271 0.0
C466 C 0.80791 0.17245 0.95531 0.0
C467 C 0.80961 0.1637 0.98217 0.0
C468 C 0.82981 0.18386 0.94282 0.0
C469 C 0.85397 0.18659 0.95682 0.0
C470 C 0.85547 0.17839 0.9839 0.0
C471 C 0.83351 0.16715 -0.00354 0.0
H472 H 0.25133 0.08735 0.42658 0.0
H473 H 0.33006 0.07939 0.45828 0.0
H474 H 0.2636 0.06349 0.38481 0.0
H475 H 0.34256 0.05636 0.41629 0.0
H476 H 0.35523 9e-05 0.34548 0.0
H477 H 0.33755 0.01619 0.38852 0.0
H478 H 0.28959 0.0727 0.34583 0.0
H479 H 0.30664 0.0559 0.30271 0.0
C480 C 0.27123 0.08042 0.42467 0.0
C481 C 0.28978 0.0854 0.44567 0.0
C482 C 0.2783 0.06687 0.40067 0.0
C483 C 0.3041 0.05814 0.39708 0.0
C484 C 0.32241 0.06244 0.41846 0.0
C485 C 0.3153 0.07582 0.44252 0.0
C486 C 0.34067 0.01572 0.34527 0.0
C487 C 0.3325 0.02692 0.32073 0.0
C488 C 0.33064 0.02506 0.36996 0.0
C489 C 0.3124 0.04598 0.3707 0.0
C490 C 0.30342 0.05637 0.34603 0.0
C491 C 0.31328 0.04684 0.32128 0.0
H492 H 0.20541 0.03907 0.69525 0.0
H493 H 0.13098 0.02558 0.6536 0.0
H494 H 0.22477 0.05436 0.6531 0.0
H495 H 0.15021 0.04128 0.61172 0.0
H496 H 0.19794 0.0512 0.53528 0.0
H497 H 0.18209 0.03035 0.57656 0.0
H498 H 0.22054 0.09422 0.62505 0.0
H499 H 0.23672 0.11477 0.58399 0.0
C500 C 0.19322 0.03922 0.6771 0.0
C501 C 0.16661 0.03128 0.67782 0.0
C502 C 0.20428 0.0481 0.65299 0.0
C503 C 0.18898 0.04916 0.62911 0.0
C504 C 0.16259 0.04044 0.62968 0.0
C505 C 0.15153 0.03161 0.65376 0.0
C506 C 0.20314 0.06069 0.55476 0.0
C507 C 0.21848 0.08471 0.55634 0.0
C508 C 0.19398 0.0488 0.57839 0.0
C509 C 0.20004 0.06066 0.60406 0.0
C510 C 0.21581 0.08438 0.60562 0.0
C511 C 0.22491 0.09628 0.58204 0.0
H512 H 0.21099 0.99474 0.8189 0.0
H513 H 0.13997 0.00258 0.86516 0.0
H514 H 0.2337 0.97873 0.85911 0.0
H515 H 0.16242 0.98605 0.90501 0.0
H516 H 0.21334 0.97238 0.97818 0.0
H517 H 0.19613 -0.00401 0.93912 0.0
H518 H 0.23235 0.93778 0.8851 0.0
H519 H 0.25001 0.91465 0.92396 0.0
C520 C 0.20027 0.99319 0.83766 0.0
C521 C 0.17363 -0.00025 0.83878 0.0
C522 C 0.21325 0.98391 0.86066 0.0
C523 C 0.19985 0.98101 0.88525 0.0
C524 C 0.17343 0.98838 0.88652 0.0
C525 C 0.16049 -0.00234 0.86357 0.0
C526 C 0.21788 0.96484 0.95796 0.0
C527 C 0.23285 0.9415 0.9542 0.0
C528 C 0.20792 0.97828 0.93559 0.0
C529 C 0.21271 0.96866 0.90899 0.0
C530 C 0.22852 0.94593 0.90527 0.0
C531 C 0.23849 0.93253 0.92761 0.0
H532 H 0.31388 0.91711 0.06635 0.0
H533 H 0.23838 0.91548 0.10527 0.0
H534 H 0.33442 0.9337 0.10867 0.0
H535 H 0.25895 0.93256 0.14754 0.0
H536 H 0.3109 0.9313 0.22508 0.0
H537 H 0.28888 0.91663 0.18272 0.0
H538 H 0.33666 0.9736 0.13884 0.0
H539 H 0.35895 0.9879 0.18096 0.0
C540 C 0.30162 0.92053 0.08386 0.0
C541 C 0.27449 0.91492 0.08244 0.0
C542 C 0.31339 0.93016 0.1081 0.0
C543 C 0.29832 0.93442 0.13148 0.0
C544 C 0.27114 0.92916 0.12997 0.0
C545 C 0.25934 0.91955 0.1057 0.0
C546 C 0.31665 0.94073 0.2064 0.0
C547 C 0.33677 0.96066 0.20638 0.0
C548 C 0.30393 0.93244 0.18215 0.0
C549 C 0.31108 0.9439 0.15741 0.0
C550 C 0.33095 0.96409 0.15749 0.0
C551 C 0.34365 0.97237 0.18168 0.0
H552 H 0.33937 0.38332 0.07239 0.0
H553 H 0.31402 0.31384 0.02268 0.0
H554 H 0.37718 0.35856 0.08794 0.0
H555 H 0.35233 0.28935 0.03751 0.0
H556 H 0.40714 0.2439 0.09381 0.0
H557 H 0.36986 0.26835 0.07659 0.0
H558 H 0.41815 0.34128 0.07313 0.0
H559 H 0.45527 0.31698 0.09126 0.0
C560 C 0.34196 0.36281 0.06464 0.0
C561 C 0.32366 0.35052 0.04637 0.0
C562 C 0.36377 0.34867 0.0734 0.0
C563 C 0.36789 0.32197 0.06391 0.0
C564 C 0.34959 0.30973 0.04553 0.0
C565 C 0.32767 0.32382 0.03693 0.0
C566 C 0.40986 0.26511 0.08923 0.0
C567 C 0.43414 0.27853 0.09401 0.0
C568 C 0.38849 0.27912 0.07921 0.0
C569 C 0.39094 0.30683 0.07355 0.0
C570 C 0.41543 0.32007 0.07774 0.0
C571 C 0.43677 0.3061 0.08794 0.0
H572 H 0.0237 0.83825 0.20013 0.0
H573 H 0.95998 0.82501 0.14223 0.0
H574 H 0.00156 0.87791 0.21903 0.0
H575 H 0.93823 0.86453 0.16085 0.0
H576 H 0.89251 0.91619 0.2199 0.0
H577 H 0.91629 0.87699 0.20353 0.0
H578 H 0.98844 0.92457 0.20565 0.0
H579 H 0.96463 0.96401 0.2224 0.0
C580 C 0.00506 0.84381 0.1914 0.0
C581 C 0.99355 0.82841 0.16977 0.0
C582 C 0.99247 0.86657 0.20213 0.0
C583 C 0.9681 0.87418 0.19152 0.0
C584 C 0.95679 0.85891 0.16974 0.0
C585 C 0.96936 0.83632 0.15898 0.0
C586 C 0.91346 0.91836 0.21699 0.0
C587 C 0.92665 0.9433 0.22227 0.0
C588 C 0.92705 0.8959 0.20749 0.0
C589 C 0.95417 0.89779 0.20309 0.0
C590 C 0.96755 0.92251 0.209 0.0
C591 C 0.95389 0.9451 0.21844 0.0
H592 H 0.13541 0.61656 0.53788 0.0
H593 H 0.17489 0.69343 0.52472 0.0
H594 H 0.09797 0.64016 0.55625 0.0
H595 H 0.137 0.71714 0.54255 0.0
H596 H 0.078 0.74668 0.60676 0.0
H597 H 0.11511 0.72506 0.58522 0.0
H598 H 0.06213 0.6682 0.5431 0.0
H599 H 0.025 0.6894 0.5652 0.0
C600 C 0.13604 0.63853 0.53874 0.0
C601 C 0.15817 0.65311 0.52989 0.0
C602 C 0.11445 0.65208 0.54908 0.0
C603 C 0.1144 0.68056 0.55076 0.0
C604 C 0.13651 0.69518 0.5418 0.0
C605 C 0.15818 0.6816 0.53149 0.0
C606 C 0.07423 0.72969 0.59274 0.0
C607 C 0.04854 0.71965 0.58783 0.0
C608 C 0.09552 0.71739 0.58027 0.0
C609 C 0.09163 0.6948 0.56254 0.0
C610 C 0.06585 0.68527 0.55701 0.0
C611 C 0.04455 0.69754 0.56955 0.0
H612 H 0.96278 0.71177 0.70457 0.0
H613 H 0.03466 0.67045 0.68672 0.0
H614 H 0.94682 0.6724 0.72884 0.0
H615 H 0.01863 0.63111 0.71111 0.0
H616 H 0.96113 0.55665 0.7189 0.0
H617 H 0.98229 0.59702 0.70102 0.0
H618 H 0.95564 0.64446 0.76989 0.0
H619 H 0.93432 0.60399 0.78789 0.0
C620 C 0.97529 0.69441 0.70608 0.0
C621 C -0.00011 0.69413 0.69354 0.0
C622 C 0.96622 0.67195 0.72014 0.0
C623 C 0.98146 0.64868 0.72176 0.0
C624 C 0.00639 0.6487 0.70995 0.0
C625 C 0.01558 0.67127 0.69609 0.0
C626 C 0.95997 0.57562 0.73039 0.0
C627 C 0.94591 0.57717 0.75472 0.0
C628 C 0.97226 0.5987 0.72023 0.0
C629 C 0.97056 0.62386 0.73405 0.0
C630 C 0.95707 0.62533 0.75874 0.0
C631 C 0.94499 0.60215 0.76907 0.0
H632 H 0.19999 0.18458 0.44695 0.0
H633 H 0.15539 0.18229 0.52098 0.0
H634 H 0.16162 0.20007 0.42258 0.0
H635 H 0.11683 0.19754 0.49636 0.0
H636 H 0.05885 0.24643 0.44547 0.0
H637 H 0.09853 0.23623 0.47122 0.0
H638 H 0.11962 0.17784 0.40871 0.0
H639 H 0.0803 0.18814 0.38292 0.0
C640 C 0.18207 0.18758 0.4581 0.0
C641 C 0.18068 0.18194 0.48587 0.0
C642 C 0.16005 0.19632 0.44407 0.0
C643 C 0.13615 0.19967 0.45748 0.0
C644 C 0.13503 0.19523 0.48552 0.0
C645 C 0.15709 0.18641 0.49958 0.0
C646 C 0.072 0.23146 0.43723 0.0
C647 C 0.06644 0.2181 0.41215 0.0
C648 C 0.09464 0.22557 0.45202 0.0
C649 C 0.11223 0.20636 0.4419 0.0
C650 C 0.10665 0.19306 0.41683 0.0
C651 C 0.084 0.19883 0.40214 0.0
H652 H 0.62754 0.40319 0.26383 0.0
H653 H 0.57177 0.45661 0.22768 0.0
H654 H 0.59984 0.36413 0.24994 0.0
H655 H 0.54443 0.41763 0.21343 0.0
H656 H 0.49132 0.34369 0.20616 0.0
H657 H 0.51656 0.38037 0.22919 0.0
H658 H 0.58854 0.34181 0.20634 0.0
H659 H 0.56346 0.30503 0.18382 0.0
C660 C 0.60932 0.40662 0.25307 0.0
C661 C 0.60197 0.43297 0.24663 0.0
C662 C 0.59351 0.38424 0.24504 0.0
C663 C 0.57 0.38779 0.2305 0.0
C664 C 0.56225 0.41422 0.22489 0.0
C665 C 0.57806 0.43656 0.23287 0.0
C666 C 0.51252 0.34288 0.20637 0.0
C667 C 0.52539 0.3216 0.19293 0.0
C668 C 0.52697 0.36395 0.21945 0.0
C669 C 0.55454 0.36407 0.21942 0.0
C670 C 0.56734 0.34219 0.20697 0.0
C671 C 0.55293 0.32119 0.19387 0.0
H672 H 0.36533 0.87241 0.9869 0.0
H673 H 0.3069 0.81096 0.96378 0.0
H674 H 0.39895 0.84572 0.96478 0.0
H675 H 0.3407 0.78409 0.94194 0.0
H676 H 0.40207 0.76519 0.87579 0.0
H677 H 0.36811 0.78813 0.90138 0.0
H678 H 0.42268 0.80305 0.96818 0.0
H679 H 0.45684 0.78041 0.94244 0.0
C680 C 0.35969 0.8531 0.97731 0.0
C681 C 0.33341 0.84389 0.97696 0.0
C682 C 0.379 0.83772 0.96478 0.0
C683 C 0.37246 0.81283 0.95157 0.0
C684 C 0.34627 0.80335 0.95169 0.0
C685 C 0.32695 0.81868 0.96431 0.0
C686 C 0.40681 0.77321 0.896 0.0
C687 C 0.4322 0.77112 0.90701 0.0
C688 C 0.38728 0.7862 0.91073 0.0
C689 C 0.39274 0.79745 0.93677 0.0
C690 C 0.41798 0.79486 0.94802 0.0
C691 C 0.4375 0.78178 0.93333 0.0
H692 H 0.92644 0.39247 0.74028 0.0
H693 H 0.96218 0.4498 0.79834 0.0
H694 H 0.94725 0.35535 0.76346 0.0
H695 H 0.98254 0.41275 0.82166 0.0
H696 H 0.03022 0.34154 0.84754 0.0
H697 H 0.015 0.37702 0.81802 0.0
H698 H 0.9405 0.33437 0.80754 0.0
H699 H 0.95577 0.29875 0.83661 0.0
C700 C 0.93894 0.39719 0.75778 0.0
C701 C 0.94246 0.42406 0.76761 0.0
C702 C 0.95073 0.37592 0.77114 0.0
C703 C 0.96636 0.38111 0.7945 0.0
C704 C 0.9708 0.40809 0.80358 0.0
C705 C 0.95898 0.42932 0.7903 0.0
C706 C 0.01066 0.33964 0.83878 0.0
C707 C 0.99414 0.31743 0.84457 0.0
C708 C 0.00194 0.36 0.82194 0.0
C709 C 0.97655 0.3585 0.81049 0.0
C710 C 0.96029 0.33594 0.81575 0.0
C711 C 0.96898 0.31564 0.83262 0.0
H712 H 0.33605 0.14403 0.56712 0.0
H713 H 0.31639 0.20497 0.50934 0.0
H714 H 0.3766 0.16872 0.57863 0.0
H715 H 0.35737 0.22967 0.52081 0.0
H716 H 0.4182 0.27864 0.57721 0.0
H717 H 0.37809 0.25549 0.5604 0.0
H718 H 0.41865 0.17961 0.55677 0.0
H719 H 0.45851 0.2025 0.57379 0.0
C720 C 0.34038 0.16269 0.55683 0.0
C721 C 0.323 0.17251 0.53729 0.0
C722 C 0.36375 0.17674 0.56329 0.0
C723 C 0.37027 0.20099 0.55043 0.0
C724 C 0.35279 0.21106 0.53109 0.0
C725 C 0.32939 0.19688 0.5245 0.0
C726 C 0.41864 0.25709 0.57246 0.0
C727 C 0.44145 0.24236 0.57715 0.0
C728 C 0.39569 0.24386 0.56277 0.0
C729 C 0.39517 0.21569 0.55766 0.0
C730 C 0.41834 0.20126 0.56106 0.0
C731 C 0.44122 0.21443 0.57068 0.0
H732 H 0.52907 0.70666 0.28921 0.0
H733 H 0.5025 0.65806 0.35564 0.0
H734 H 0.54653 0.66623 0.26687 0.0
H735 H 0.52012 0.61784 0.33341 0.0
H736 H 0.53846 0.54675 0.27759 0.0
H737 H 0.51517 0.587 0.2928 0.0
H738 H 0.58396 0.63672 0.27769 0.0
H739 H 0.60717 0.59665 0.26228 0.0
C740 C 0.5267 0.68734 0.2989 0.0
C741 C 0.51461 0.68558 0.3243 0.0
C742 C 0.5368 0.66424 0.28616 0.0
C743 C 0.53478 0.63894 0.29846 0.0
C744 C 0.52174 0.63702 0.32332 0.0
C745 C 0.51182 0.6601 0.33613 0.0
C746 C 0.54851 0.56631 0.27722 0.0
C747 C 0.57473 0.5685 0.26896 0.0
C748 C 0.5352 0.58931 0.28602 0.0
C749 C 0.54779 0.61495 0.28653 0.0
C750 C 0.57366 0.61726 0.27727 0.0
C751 C 0.58702 0.59427 0.26863 0.0
H752 H 0.06972 0.78019 0.05849 0.0
H753 H 0.1138 0.77014 0.1329 0.0
H754 H 0.10987 0.79435 0.03587 0.0
H755 H 0.15367 0.78485 0.11053 0.0
H756 H 0.22505 0.79113 0.05778 0.0
H757 H 0.18485 0.77178 0.07623 0.0
H758 H 0.1399 0.83315 0.0371 0.0
H759 H 0.17992 0.85209 0.01816 0.0
C760 C 0.08796 0.78098 0.07001 0.0
C761 C 0.08855 0.77413 0.09752 0.0
C762 C 0.11094 0.7892 0.05708 0.0
C763 C 0.13498 0.79076 0.0714 0.0
C764 C 0.13558 0.78349 0.09878 0.0
C765 C 0.11265 0.77524 0.11167 0.0
C766 C 0.20656 0.80033 0.05291 0.0
C767 C 0.20571 0.82323 0.03662 0.0
C768 C 0.18354 0.78933 0.0636 0.0
C769 C 0.15918 0.80102 0.05829 0.0
C770 C 0.15828 0.82346 0.04135 0.0
C771 C 0.18128 0.83441 0.03062 0.0
H772 H 0.70002 0.89334 0.56446 0.0
H773 H 0.76186 0.95477 0.56752 0.0
H774 H 0.67839 0.91616 0.60191 0.0
H775 H 0.73969 0.97814 0.60484 0.0
H776 H 0.70835 0.98916 0.69291 0.0
H777 H 0.73015 0.97149 0.65255 0.0
H778 H 0.65475 0.95631 0.61342 0.0
H779 H 0.63298 0.97322 0.65395 0.0
C780 C 0.70889 0.91191 0.57294 0.0
C781 C 0.73272 0.92219 0.56303 0.0
C782 C 0.69635 0.92513 0.59433 0.0
C783 C 0.70723 0.94906 0.60631 0.0
C784 C 0.73093 0.95959 0.59621 0.0
C785 C 0.74356 0.94628 0.57476 0.0
C786 C 0.69644 0.98227 0.67559 0.0
C787 C 0.66893 0.98228 0.67675 0.0
C788 C 0.70895 0.97228 0.6524 0.0
C789 C 0.69419 0.96223 0.62986 0.0
C790 C 0.66669 0.96337 0.63065 0.0
C791 C 0.65421 0.97319 0.65384 0.0
H792 H 0.79997 0.97903 0.30752 0.0
H793 H 0.86498 0.92928 0.33008 0.0
H794 H 0.77562 0.96322 0.34677 0.0
H795 H 0.84061 0.9133 0.36876 0.0
H796 H 0.80295 0.91088 0.45052 0.0
H797 H 0.82531 0.9308 0.41232 0.0
H798 H 0.7545 0.92139 0.36363 0.0
H799 H 0.73185 0.90183 0.40214 0.0
C800 C 0.80903 0.9647 0.32078 0.0
C801 C 0.83444 0.95547 0.31573 0.0
C802 C 0.79505 0.95558 0.34317 0.0
C803 C 0.80627 0.93717 0.36097 0.0
C804 C 0.8316 0.92787 0.35574 0.0
C805 C 0.84551 0.93691 0.33342 0.0
C806 C 0.79204 0.91322 0.43176 0.0
C807 C 0.76568 0.90452 0.4293 0.0
C808 C 0.80492 0.92452 0.40981 0.0
C809 C 0.79177 0.92735 0.38485 0.0
C810 C 0.76512 0.9196 0.38265 0.0
C811 C 0.75219 0.90829 0.40468 0.0
H812 H 0.80466 0.04034 0.02516 0.0
H813 H 0.75502 0.08871 0.07689 0.0
H814 H 0.824 0.02023 0.06521 0.0
H815 H 0.77469 0.06903 0.1168 0.0
H816 H 0.80077 0.013 0.18286 0.0
H817 H 0.77852 0.02713 0.1416 0.0
H818 H 0.85332 0.03587 0.10217 0.0
H819 H 0.87548 0.02131 0.14307 0.0
C820 C 0.79779 0.04659 0.04504 0.0
C821 C 0.77842 0.06623 0.04784 0.0
C822 C 0.80896 0.03517 0.06798 0.0
C823 C 0.80096 0.04313 0.09418 0.0
C824 C 0.78108 0.06223 0.09691 0.0
C825 C 0.76993 0.07365 0.07401 0.0
C826 C 0.81243 0.01776 0.16531 0.0
C827 C 0.8399 0.01616 0.16628 0.0
C828 C 0.7997 0.02596 0.14173 0.0
C829 C 0.81416 0.03267 0.11864 0.0
C830 C 0.84157 0.03051 0.11947 0.0
C831 C 0.85429 0.02235 0.14302 0.0
H832 H 0.62561 0.98527 0.84803 0.0
H833 H 0.67545 0.02689 0.79152 0.0
H834 H 0.65247 0.00364 0.88577 0.0
H835 H 0.70181 0.04584 0.82923 0.0
H836 H 0.7554 0.06214 0.90183 0.0
H837 H 0.73218 0.03646 0.86554 0.0
H838 H 0.6591 0.04755 0.9075 0.0
H839 H 0.6823 0.07247 0.94397 0.0
C840 C 0.64236 -0.00177 0.84365 0.0
C841 C 0.64827 0.0048 0.81681 0.0
C842 C 0.65768 0.00887 0.86529 0.0
C843 C 0.67916 0.02641 0.86055 0.0
C844 C 0.6856 0.03217 0.83361 0.0
C845 C 0.67037 0.02143 0.81198 0.0
C846 C 0.73441 0.05888 0.90339 0.0
C847 C 0.72068 0.06946 0.92571 0.0
C848 C 0.72109 0.04427 0.88254 0.0
C849 C 0.69377 0.04 0.88357 0.0
C850 C 0.68019 0.05009 0.90622 0.0
C851 C 0.69349 0.06458 0.92707 0.0
H852 H 0.59204 0.68356 0.87575 0.0
H853 H 0.56667 0.73634 0.94137 0.0
H854 H 0.63083 0.67265 0.9021 0.0
H855 H 0.60584 0.7256 0.96767 0.0
H856 H 0.66139 0.66919 0.01587 0.0
H857 H 0.6239 0.68603 0.99072 0.0
H858 H 0.67186 0.69376 0.91955 0.0
H859 H 0.70921 0.67659 0.94447 0.0
C860 C 0.59479 0.69296 0.89575 0.0
C861 C 0.57622 0.71077 0.90648 0.0
C862 C 0.61716 0.68686 0.91078 0.0
C863 C 0.62147 0.69837 0.93692 0.0
C864 C 0.60296 0.71628 0.94766 0.0
C865 C 0.58059 0.72249 0.93255 0.0
C866 C 0.66404 0.67481 0.99497 0.0
C867 C 0.68822 0.67126 0.9821 0.0
C868 C 0.64257 0.68457 0.98059 0.0
C869 C 0.64486 0.69091 0.95306 0.0
C870 C 0.66936 0.68855 0.9406 0.0
C871 C 0.69081 0.67886 0.95495 0.0
H872 H 0.12515 0.10026 0.7808 0.0
H873 H 0.05002 0.05784 0.77907 0.0
H874 H 0.10444 0.14095 0.79836 0.0
H875 H 0.02923 0.09884 0.79635 0.0
H876 H 0.01208 0.16505 0.8623 0.0
H877 H 0.02974 0.12498 0.83977 0.0
H878 H 0.07354 0.17612 0.78588 0.0
H879 H 0.05619 0.21629 0.80866 0.0
C880 C 0.10417 0.09968 0.78392 0.0
C881 C 0.08925 0.07576 0.7787 0.0
C882 C 0.09227 0.12308 0.79381 0.0
C883 C 0.06522 0.12308 0.79877 0.0
C884 C 0.05018 0.09934 0.793 0.0
C885 C 0.06207 0.07592 0.78299 0.0
C886 C 0.02535 0.16777 0.84554 0.0
C887 C 0.03289 0.19386 0.8374 0.0
C888 C 0.03532 0.14479 0.83251 0.0
C889 C 0.05308 0.14742 0.81111 0.0
C890 C 0.06013 0.17349 0.80254 0.0
C891 C 0.05011 0.19648 0.81552 0.0
H892 H 0.94883 0.29248 0.44553 0.0
H893 H 0.89401 0.27466 0.37945 0.0
H894 H 0.91488 0.31671 0.47006 0.0
H895 H 0.86025 0.29917 0.40384 0.0
H896 H 0.79941 0.32519 0.46564 0.0
H897 H 0.83291 0.29718 0.4448 0.0
H898 H 0.89157 0.35947 0.46424 0.0
H899 H 0.85823 0.38733 0.48535 0.0
C900 C 0.92952 0.29361 0.43629 0.0
C901 C 0.92414 0.28176 0.41048 0.0
C902 C 0.91013 0.3076 0.45029 0.0
C903 C 0.88495 0.30992 0.43882 0.0
C904 C 0.8794 0.29749 0.41332 0.0
C905 C 0.8988 0.28359 0.39928 0.0
C906 C 0.81948 0.33284 0.46561 0.0
C907 C 0.82615 0.35853 0.47704 0.0
C908 C 0.83863 0.31685 0.45357 0.0
C909 C 0.86484 0.32616 0.45284 0.0
C910 C 0.87158 0.35161 0.46476 0.0
C911 C 0.85244 0.36765 0.4767 0.0
H912 H 0.62632 0.88982 0.75694 0.0
H913 H 0.55098 0.92812 0.75905 0.0
H914 H 0.60654 0.84849 0.77391 0.0
H915 H 0.53095 0.88631 0.77538 0.0
H916 H 0.51507 0.82129 0.83944 0.0
H917 H 0.53109 0.86134 0.81661 0.0
H918 H 0.5773 0.81078 0.76348 0.0
H919 H 0.56182 0.77068 0.7869 0.0
C920 C 0.60544 0.88932 0.76068 0.0
C921 C 0.59026 0.91235 0.75682 0.0
C922 C 0.59404 0.86549 0.77023 0.0
C923 C 0.56714 0.86404 0.77605 0.0
C924 C 0.55179 0.88686 0.77146 0.0
C925 C 0.56324 0.91077 0.76197 0.0
C926 C 0.52847 0.81866 0.82273 0.0
C927 C 0.53738 0.79279 0.81518 0.0
C928 C 0.53753 0.84165 0.8095 0.0
C929 C 0.55561 0.83933 0.78829 0.0
C930 C 0.56373 0.81334 0.78005 0.0
C931 C 0.55476 0.79033 0.79338 0.0
H932 H 0.9617 0.16918 0.3695 0.0
H933 H 0.96748 0.19415 0.28633 0.0
H934 H 0.94375 0.12535 0.35395 0.0
H935 H 0.95017 0.14985 0.27067 0.0
H936 H 0.89007 0.08009 0.2557 0.0
H937 H 0.90982 0.12361 0.26998 0.0
H938 H 0.95554 0.08395 0.33106 0.0
H939 H 0.93519 0.04049 0.31729 0.0
C940 C 0.95934 0.16524 0.34786 0.0
C941 C 0.96596 0.18519 0.32915 0.0
C942 C 0.9492 0.14 0.33892 0.0
C943 C 0.94558 0.13402 0.31105 0.0
C944 C 0.95239 0.15392 0.2923 0.0
C945 C 0.96242 0.17926 0.30126 0.0
C946 C 0.9044 0.08063 0.27213 0.0
C947 C 0.91095 0.05684 0.28547 0.0
C948 C 0.91586 0.10558 0.2802 0.0
C949 C 0.93423 0.10731 0.30171 0.0
C950 C 0.94114 0.08341 0.31471 0.0
C951 C 0.92957 0.05847 0.30673 0.0
H952 H 0.61901 0.10082 0.74611 0.0
H953 H 0.55077 0.05465 0.71712 0.0
H954 H 0.59832 0.14259 0.73331 0.0
H955 H 0.52985 0.09667 0.70468 0.0
H956 H 0.52318 0.17127 0.64978 0.0
H957 H 0.53796 0.12945 0.66914 0.0
H958 H 0.56221 0.17352 0.74256 0.0
H959 H 0.5477 0.21572 0.72295 0.0
C960 C 0.59944 0.0996 0.73732 0.0
C961 C 0.58666 0.07438 0.73235 0.0
C962 C 0.58749 0.1236 0.73019 0.0
C963 C 0.5625 0.12294 0.71787 0.0
C964 C 0.54928 0.09779 0.71384 0.0
C965 C 0.56121 0.07374 0.72105 0.0
C966 C 0.53147 0.17209 0.67014 0.0
C967 C 0.53449 0.1969 0.68473 0.0
C968 C 0.53973 0.14803 0.68134 0.0
C969 C 0.55129 0.14816 0.70737 0.0
C970 C 0.55361 0.17283 0.72233 0.0
C971 C 0.54521 0.19697 0.71114 0.0
H972 H 0.15548 0.33809 0.03492 0.0
H973 H 0.20006 0.31746 0.96348 0.0
H974 H 0.11756 0.31285 0.01571 0.0
H975 H 0.16215 0.29235 0.94435 0.0
H976 H 0.09676 0.22895 0.92975 0.0
H977 H 0.13451 0.2509 0.95278 0.0
H978 H 0.08671 0.31856 0.97624 0.0
H979 H 0.04887 0.29664 0.9533 0.0
C980 C 0.15725 0.32804 0.01522 0.0
C981 C 0.18076 0.32982 0.0007 0.0
C982 C 0.1355 0.31371 0.00418 0.0
C983 C 0.13691 0.30066 0.97854 0.0
C984 C 0.16057 0.30197 0.96428 0.0
C985 C 0.18223 0.31649 0.97519 0.0
C986 C 0.09421 0.2484 0.94001 0.0
C987 C 0.06983 0.26111 0.9396 0.0
C988 C 0.11588 0.26101 0.95307 0.0
C989 C 0.11357 0.28648 0.96619 0.0
C990 C 0.08902 0.29883 0.96648 0.0
C991 C 0.06739 0.28632 0.95322 0.0
H992 H 0.39833 0.69392 0.37642 0.0
H993 H 0.4271 0.73775 0.44831 0.0
H994 H 0.35873 0.68097 0.40021 0.0
H995 H 0.38693 0.72562 0.47192 0.0
H996 H 0.32753 0.67003 0.5143 0.0
H997 H 0.36591 0.68731 0.49102 0.0
H998 H 0.31896 0.69708 0.41842 0.0
H999 H 0.28073 0.67877 0.44148 0.0
C1000 C 0.39607 0.70105 0.39725 0.0
C1001 C 0.41592 0.71676 0.41052 0.0
C1002 C 0.37322 0.6938 0.41085 0.0
C1003 C 0.36953 0.70228 0.43801 0.0
C1004 C 0.38925 0.71838 0.45115 0.0
C1005 C 0.41224 0.72545 0.43759 0.0
C1006 C 0.32532 0.67608 0.49344 0.0
C1007 C 0.30111 0.67284 0.47968 0.0
C1008 C 0.34735 0.68615 0.48011 0.0
C1009 C 0.34564 0.69347 0.45276 0.0
C1010 C 0.32114 0.69114 0.43932 0.0
C1011 C 0.29916 0.68082 0.45259 0.0
H1012 H 0.83062 0.56664 0.79954 0.0
H1013 H 0.86521 0.49715 0.83624 0.0
H1014 H 0.80951 0.57812 0.84232 0.0
H1015 H 0.84351 0.50815 0.87875 0.0
H1016 H 0.83166 0.55931 0.95736 0.0
H1017 H 0.84821 0.54216 0.91425 0.0
H1018 H 0.77648 0.5649 0.87413 0.0
H1019 H 0.76021 0.58279 0.91721 0.0
C1020 C 0.83341 0.5536 0.81662 0.0
C1021 C 0.84978 0.53115 0.81458 0.0
C1022 C 0.82117 0.56007 0.84112 0.0
C1023 C 0.82491 0.54412 0.86404 0.0
C1024 C 0.84058 0.52113 0.86165 0.0
C1025 C 0.85293 0.51477 0.83723 0.0
C1026 C 0.81927 0.56035 0.93943 0.0
C1027 C 0.79474 0.57264 0.94068 0.0
C1028 C 0.82871 0.55039 0.91468 0.0
C1029 C 0.81375 0.55234 0.89066 0.0
C1030 C 0.7887 0.56355 0.89216 0.0
C1031 C 0.77931 0.57363 0.91689 0.0
H1032 H 0.62531 0.51947 0.14552 0.0
H1033 H 0.6982 0.53095 0.19049 0.0
H1034 H 0.64713 0.53296 0.1042 0.0
H1035 H 0.72017 0.54392 0.14893 0.0
H1036 H 0.73838 0.60147 0.07906 0.0
H1037 H 0.71943 0.58276 0.1197 0.0
H1038 H 0.67979 0.51996 0.0708 0.0
H1039 H 0.69841 0.53906 0.02986 0.0
C1040 C 0.64607 0.52457 0.14654 0.0
C1041 C 0.65996 0.52436 0.17135 0.0
C1042 C 0.65862 0.53212 0.12278 0.0
C1043 C 0.68537 0.53962 0.12329 0.0
C1044 C 0.69945 0.53863 0.14795 0.0
C1045 C 0.68689 0.53108 0.17174 0.0
C1046 C 0.72574 0.58358 0.07692 0.0
C1047 C 0.71977 0.57185 0.05118 0.0
C1048 C 0.71503 0.57272 0.10029 0.0
C1049 C 0.69809 0.54987 0.0985 0.0
C1050 C 0.69253 0.53778 0.07281 0.0
C1051 C 0.70329 0.54865 0.04938 0.0
H1052 H 0.74231 0.42712 0.42404 0.0
H1053 H 0.69859 0.48171 0.47553 0.0
H1054 H 0.72378 0.44751 0.38404 0.0
H1055 H 0.68049 0.50265 0.43529 0.0
H1056 H 0.62639 0.5022 0.35897 0.0
H1057 H 0.64895 0.48907 0.40016 0.0
H1058 H 0.72223 0.4875 0.35707 0.0
H1059 H 0.69947 0.49999 0.31555 0.0
C1060 C 0.72903 0.44377 0.42684 0.0
C1061 C 0.72172 0.4526 0.453 0.0
C1062 C 0.71855 0.45561 0.40385 0.0
C1063 C 0.70055 0.47664 0.40643 0.0
C1064 C 0.69401 0.48621 0.43261 0.0
C1065 C 0.70448 0.4743 0.45566 0.0
C1066 C 0.64735 0.49927 0.35829 0.0
C1067 C 0.66109 0.50188 0.33391 0.0
C1068 C 0.66034 0.49195 0.382 0.0
C1069 C 0.68739 0.48714 0.38191 0.0
C1070 C 0.7013 0.49067 0.35773 0.0
C1071 C 0.68829 0.49794 0.33397 0.0
H1072 H 0.81678 0.44429 0.72182 0.0
H1073 H 0.86842 0.49533 0.67537 0.0
H1074 H 0.79124 0.43281 0.68075 0.0
H1075 H 0.84253 0.48442 0.63453 0.0
H1076 H 0.81095 0.43097 0.56323 0.0
H1077 H 0.83471 0.44595 0.6042 0.0
H1078 H 0.76163 0.45115 0.64732 0.0
H1079 H 0.73781 0.43545 0.60636 0.0
C1080 C 0.82255 0.45324 0.7029 0.0
C1081 C 0.84473 0.47057 0.70182 0.0
C1082 C 0.8078 0.44681 0.6794 0.0
C1083 C 0.81488 0.45765 0.65434 0.0
C1084 C 0.83678 0.47538 0.65341 0.0
C1085 C 0.85157 0.48172 0.67686 0.0
C1086 C 0.79988 0.4355 0.58137 0.0
C1087 C 0.77248 0.43191 0.58154 0.0
C1088 C 0.81352 0.44424 0.60485 0.0
C1089 C 0.80008 0.4497 0.62908 0.0
C1090 C 0.7726 0.44673 0.6291 0.0
C1091 C 0.75893 0.43793 0.60557 0.0
H1092 H 0.37728 0.09336 0.21531 0.0
H1093 H 0.44932 0.06725 0.25244 0.0
H1094 H 0.39909 0.13529 0.20235 0.0
H1095 H 0.47132 0.10916 0.23893 0.0
H1096 H 0.49518 0.19916 0.23054 0.0
H1097 H 0.47251 0.1588 0.24718 0.0
H1098 H 0.43225 0.1479 0.16982 0.0
H1099 H 0.45434 0.18821 0.15344 0.0
C1100 C 0.39779 0.09654 0.22069 0.0
C1101 C 0.41161 0.07688 0.23474 0.0
C1102 C 0.41031 0.12055 0.21317 0.0
C1103 C 0.43697 0.12545 0.21945 0.0
C1104 C 0.4507 0.10606 0.23401 0.0
C1105 C 0.43814 0.08199 0.24158 0.0
C1106 C 0.48139 0.1882 0.21718 0.0
C1107 C 0.47654 0.19692 0.1907 0.0
C1108 C 0.46853 0.16502 0.22665 0.0
C1109 C 0.45054 0.15023 0.20984 0.0
C1110 C 0.44568 0.15907 0.18343 0.0
C1111 C 0.45849 0.18213 0.17399 0.0
H1112 H 0.02938 0.84775 0.66602 0.0
H1113 H 0.0469 0.80435 0.73886 0.0
H1114 H 0.05315 0.88747 0.68467 0.0
H1115 H 0.07035 0.84436 0.7577 0.0
H1116 H 0.13955 0.90708 0.76209 0.0
H1117 H 0.11164 0.86841 0.74791 0.0
H1118 H 0.05236 0.92287 0.72044 0.0
H1119 H 0.08044 0.96162 0.73422 0.0
C1120 C 0.03803 0.84678 0.68615 0.0
C1121 C 0.03641 0.82281 0.70087 0.0
C1122 C 0.05153 0.86962 0.69691 0.0
C1123 C 0.06372 0.86902 0.72262 0.0
C1124 C 0.06145 0.84531 0.73768 0.0
C1125 C 0.0479 0.82245 0.72693 0.0
C1126 C 0.1205 0.91082 0.75319 0.0
C1127 C 0.1123 0.93741 0.74909 0.0
C1128 C 0.10442 0.88865 0.74524 0.0
C1129 C 0.07982 0.89259 0.73298 0.0
C1130 C 0.07135 0.91919 0.72951 0.0
C1131 C 0.08741 0.94137 0.73752 0.0
H1132 H 0.51237 0.84961 0.36984 0.0
H1133 H 0.45916 0.79541 0.32456 0.0
H1134 H 0.49934 0.8869 0.34162 0.0
H1135 H 0.44557 0.83284 0.2969 0.0
H1136 H 0.43708 0.90185 0.23967 0.0
H1137 H 0.45822 0.86493 0.26291 0.0
H1138 H 0.46084 0.91349 0.33735 0.0
H1139 H 0.44052 0.95042 0.31411 0.0
C1140 C 0.49792 0.84564 0.35385 0.0
C1141 C 0.4866 0.81963 0.34962 0.0
C1142 C 0.4904 0.86703 0.33772 0.0
C1143 C 0.47127 0.86292 0.31712 0.0
C1144 C 0.46058 0.83667 0.31235 0.0
C1145 C 0.46822 0.81525 0.32838 0.0
C1146 C 0.44252 0.90474 0.26089 0.0
C1147 C 0.43694 0.929 0.27507 0.0
C1148 C 0.45448 0.88353 0.27425 0.0
C1149 C 0.46108 0.88619 0.30203 0.0
C1150 C 0.45635 0.91084 0.31587 0.0
C1151 C 0.44449 0.93199 0.30255 0.0
H1152 H 0.82857 0.68297 0.00644 0.0
H1153 H 0.84045 0.62025 0.06461 0.0
H1154 H 0.87208 0.70217 0.01763 0.0
H1155 H 0.8836 0.6396 0.07594 0.0
H1156 H 0.96893 0.6648 0.07258 0.0
H1157 H 0.9271 0.64566 0.05576 0.0
H1158 H 0.89462 0.72577 0.05636 0.0
H1159 H 0.93647 0.74498 0.07276 0.0
C1160 C 0.8404 0.67334 0.02165 0.0
C1161 C 0.83103 0.65011 0.03466 0.0
C1162 C 0.86529 0.68436 0.02808 0.0
C1163 C 0.88133 0.67229 0.04753 0.0
C1164 C 0.87191 0.64909 0.06052 0.0
C1165 C 0.84705 0.63815 0.05419 0.0
C1166 C 0.95299 0.67838 0.06877 0.0
C1167 C 0.95597 0.70638 0.07421 0.0
C1168 C 0.92897 0.66739 0.05932 0.0
C1169 C 0.90749 0.68419 0.05501 0.0
C1170 C 0.91083 0.71232 0.05932 0.0
C1171 C 0.9348 0.7233 0.06885 0.0
H1172 H 0.57262 0.27812 0.56181 0.0
H1173 H 0.61252 0.28405 0.63976 0.0
H1174 H 0.61204 0.29555 0.54 0.0
H1175 H 0.65163 0.30185 0.61804 0.0
H1176 H 0.72506 0.31128 0.56803 0.0
H1177 H 0.68649 0.28899 0.5869 0.0
H1178 H 0.63639 0.3389 0.53882 0.0
H1179 H 0.67488 0.36086 0.51961 0.0
C1180 C 0.5898 0.28306 0.57427 0.0
C1181 C 0.58941 0.27981 0.60253 0.0
C1182 C 0.61232 0.29316 0.5618 0.0
C1183 C 0.63492 0.30012 0.57731 0.0
C1184 C 0.63466 0.29635 0.60548 0.0
C1185 C 0.61216 0.28632 0.61794 0.0
C1186 C 0.70582 0.31736 0.56134 0.0
C1187 C 0.70304 0.33793 0.54242 0.0
C1188 C 0.68373 0.30468 0.57225 0.0
C1189 C 0.65839 0.31226 0.56443 0.0
C1190 C 0.65563 0.33239 0.54503 0.0
C1191 C 0.67771 0.34509 0.53415 0.0
H1192 H 0.24255 0.42029 0.08778 0.0
H1193 H 0.18246 0.45292 0.03627 0.0
H1194 H 0.22391 0.44346 0.12708 0.0
H1195 H 0.16402 0.47642 0.07565 0.0
H1196 H 0.11952 0.47751 0.15737 0.0
H1197 H 0.14032 0.46134 0.11599 0.0
H1198 H 0.21589 0.48842 0.14817 0.0
H1199 H 0.1951 0.50439 0.18989 0.0
C1200 C 0.22555 0.43267 0.08478 0.0
C1201 C 0.21384 0.43457 0.05894 0.0
C1202 C 0.21498 0.44611 0.10729 0.0
C1203 C 0.19244 0.46167 0.10447 0.0
C1204 C 0.18123 0.4643 0.07849 0.0
C1205 C 0.19186 0.45094 0.05593 0.0
C1206 C 0.14055 0.48023 0.15559 0.0
C1207 C 0.15569 0.49206 0.17702 0.0
C1208 C 0.15244 0.47113 0.13176 0.0
C1209 C 0.17975 0.47358 0.12883 0.0
C1210 C 0.19483 0.48603 0.14997 0.0
C1211 C 0.18291 0.49526 0.1738 0.0
H1212 H 0.36247 0.43335 0.83072 0.0
H1213 H 0.29704 0.48199 0.80697 0.0
H1214 H 0.3391 0.41993 0.87106 0.0
H1215 H 0.27372 0.46874 0.84779 0.0
H1216 H 0.2311 0.4101 0.90683 0.0
H1217 H 0.25307 0.42762 0.86697 0.0
H1218 H 0.32451 0.43996 0.91413 0.0
H1219 H 0.30279 0.42211 0.95377 0.0
C1220 C 0.34312 0.44128 0.83414 0.0
C1221 C 0.33162 0.45875 0.81562 0.0
C1222 C 0.3298 0.43373 0.8574 0.0
C1223 C 0.30464 0.44342 0.8627 0.0
C1224 C 0.29303 0.46082 0.84415 0.0
C1225 C 0.30643 0.46848 0.82085 0.0
C1226 C 0.25142 0.41678 0.90874 0.0
C1227 C 0.26527 0.41445 0.9334 0.0
C1228 C 0.26397 0.42693 0.88594 0.0
C1229 C 0.29059 0.43491 0.88735 0.0
C1230 C 0.30411 0.4335 0.91228 0.0
C1231 C 0.29161 0.4234 0.93503 0.0
H1232 H 0.28561 0.60479 0.55934 0.0
H1233 H 0.2311 0.53639 0.55906 0.0
H1234 H 0.31023 0.58536 0.59631 0.0
H1235 H 0.25607 0.51679 0.59615 0.0
H1236 H 0.29185 0.5105 0.68366 0.0
H1237 H 0.26645 0.52704 0.64537 0.0
H1238 H 0.33827 0.54598 0.60366 0.0
H1239 H 0.36365 0.52975 0.64186 0.0
C1240 C 0.2789 0.58555 0.56711 0.0
C1241 C 0.25637 0.57212 0.55624 0.0
C1242 C 0.29313 0.57434 0.5882 0.0
C1243 C 0.28515 0.5495 0.59903 0.0
C1244 C 0.26257 0.53606 0.58829 0.0
C1245 C 0.24837 0.54722 0.56699 0.0
C1246 C 0.3022 0.51809 0.66626 0.0
C1247 C 0.32977 0.51899 0.66588 0.0
C1248 C 0.28765 0.5274 0.64429 0.0
C1249 C 0.30039 0.53794 0.62161 0.0
C1250 C 0.32792 0.53832 0.62103 0.0
C1251 C 0.34245 0.5289 0.64289 0.0
H1252 H 0.11612 0.4941 0.35001 0.0
H1253 H 0.16545 0.53622 0.29341 0.0
H1254 H 0.14359 0.51165 0.3876 0.0
H1255 H 0.19257 0.55428 0.33109 0.0
H1256 H 0.2475 0.56746 0.40378 0.0
H1257 H 0.22341 0.54314 0.36711 0.0
H1258 H 0.15092 0.55555 0.40972 0.0
H1259 H 0.1749 0.57922 0.44646 0.0
C1260 C 0.13288 0.50702 0.34557 0.0
C1261 C 0.13847 0.51395 0.31874 0.0
C1262 C 0.14856 0.51718 0.36713 0.0
C1263 C 0.17015 0.53454 0.36237 0.0
C1264 C 0.17625 0.54074 0.33545 0.0
C1265 C 0.16059 0.53052 0.31386 0.0
C1266 C 0.22645 0.56475 0.40542 0.0
C1267 C 0.21311 0.57539 0.42798 0.0
C1268 C 0.21264 0.55095 0.38434 0.0
C1269 C 0.18524 0.54746 0.38545 0.0
C1270 C 0.17205 0.55754 0.40836 0.0
C1271 C 0.18581 0.5713 0.42937 0.0
loop_
_geom_bond_atom_site_label_1
_geom_bond_atom_site_label_2
_geom_bond_distance
_geom_bond_site_symmetry_2
_ccdc_geom_bond_type
C0 O1 1.160 . S
C0 O7 1.185 . S
O1 C0 1.160 . S
O2 Zn3 1.899 1_655 S
O2 C10 1.284 . S
Zn3 O2 1.899 1_455 S
Zn3 O4 2.032 . S
Zn3 O7 2.086 1_455 S
Zn3 O12 1.978 . S
O4 Zn3 2.032 . S
O4 C8 1.278 . S
C5 O6 1.203 . S
C5 O12 1.267 . S
O6 C5 1.203 . S
O7 C0 1.185 . S
O7 Zn3 2.086 1_655 S
C8 O4 1.278 . S
C8 O9 1.211 . S
O9 C8 1.211 . S
C10 O2 1.284 . S
C10 O11 1.273 1_655 S
O11 C10 1.273 1_455 S
O12 Zn3 1.978 . S
O12 C5 1.267 . S
C13 O14 1.160 . S
C13 O20 1.185 . S
O14 C13 1.160 . S
O15 Zn16 1.899 1_655 S
O15 C23 1.284 . S
Zn16 O15 1.899 1_455 S
Zn16 O17 2.032 . S
Zn16 O20 2.086 . S
Zn16 O25 1.977 1_455 S
O17 Zn16 2.032 . S
O17 C21 1.278 . S
C18 O19 1.203 . S
C18 O25 1.267 . S
O19 C18 1.203 . S
O20 C13 1.185 . S
O20 Zn16 2.086 . S
C21 O17 1.278 . S
C21 O22 1.209 . S
O22 C21 1.209 . S
C23 O15 1.284 . S
C23 O24 1.273 . S
O24 C23 1.273 . S
O25 Zn16 1.977 1_655 S
O25 C18 1.267 . S
C26 O27 1.160 . S
C26 O33 1.185 . S
O27 C26 1.160 . S
O28 Zn29 1.899 . S
O28 C36 1.284 . S
Zn29 O28 1.899 . S
Zn29 O30 2.032 . S
Zn29 O33 2.086 . S
Zn29 O38 1.977 . S
O30 Zn29 2.032 . S
O30 C34 1.278 . S
C31 O32 1.203 . S
C31 O38 1.267 . S
O32 C31 1.203 . S
O33 C26 1.185 . S
O33 Zn29 2.086 . S
C34 O30 1.278 . S
C34 O35 1.211 . S
O35 C34 1.211 . S
C36 O28 1.284 . S
C36 O37 1.273 . S
O37 C36 1.273 . S
O38 Zn29 1.977 . S
O38 C31 1.267 . S
C39 O40 1.160 . S
C39 O46 1.185 . S
O40 C39 1.160 . S
O41 Zn42 1.899 . S
O41 C49 1.284 . S
Zn42 O41 1.899 . S
Zn42 O43 2.032 . S
Zn42 O46 2.086 . S
Zn42 O51 1.977 . S
O43 Zn42 2.032 . S
O43 C47 1.278 . S
C44 O45 1.203 . S
C44 O51 1.267 . S
O45 C44 1.203 . S
O46 C39 1.185 . S
O46 Zn42 2.086 . S
C47 O43 1.278 . S
C47 O48 1.211 . S
O48 C47 1.211 . S
C49 O41 1.284 . S
C49 O50 1.273 . S
O50 C49 1.273 . S
O51 Zn42 1.977 . S
O51 C44 1.267 . S
C52 O53 1.160 . S
C52 O59 1.185 . S
O53 C52 1.160 . S
O54 Zn55 1.899 . S
O54 C62 1.284 . S
Zn55 O54 1.899 . S
Zn55 O56 2.032 . S
Zn55 O59 2.086 . S
Zn55 O64 1.977 1_455 S
O56 Zn55 2.032 . S
O56 C60 1.278 1_455 S
C57 O58 1.203 . S
C57 O64 1.267 . S
O58 C57 1.203 . S
O59 C52 1.185 . S
O59 Zn55 2.086 . S
C60 O56 1.278 1_655 S
C60 O61 1.211 . S
O61 C60 1.211 . S
C62 O54 1.284 . S
C62 O63 1.273 . S
O63 C62 1.273 . S
O64 Zn55 1.977 1_655 S
O64 C57 1.267 . S
C65 O66 1.160 . S
C65 O72 1.185 . S
O66 C65 1.160 . S
O67 Zn68 1.899 . S
O67 C75 1.284 . S
Zn68 O67 1.899 . S
Zn68 O69 2.032 . S
Zn68 O72 2.086 . S
Zn68 O77 1.977 . S
O69 Zn68 2.032 . S
O69 C73 1.278 . S
C70 O71 1.203 . S
C70 O77 1.267 . S
O71 C70 1.203 . S
O72 C65 1.185 . S
O72 Zn68 2.086 . S
C73 O69 1.278 . S
C73 O74 1.211 . S
O74 C73 1.211 . S
C75 O67 1.284 . S
C75 O76 1.273 . S
O76 C75 1.273 . S
O77 Zn68 1.977 . S
O77 C70 1.267 . S
C78 O79 1.160 . S
C78 O85 1.185 . S
O79 C78 1.160 . S
O80 Zn81 1.899 . S
O80 C88 1.284 . S
Zn81 O80 1.899 . S
Zn81 O82 2.032 . S
Zn81 O85 2.086 . S
Zn81 O90 1.977 . S
O82 Zn81 2.032 . S
O82 C86 1.278 . S
C83 O84 1.203 . S
C83 O90 1.267 . S
O84 C83 1.203 . S
O85 C78 1.185 . S
O85 Zn81 2.086 . S
C86 O82 1.278 . S
C86 O87 1.211 . S
O87 C86 1.211 . S
C88 O80 1.284 . S
C88 O89 1.273 . S
O89 C88 1.273 . S
O90 Zn81 1.977 . S
O90 C83 1.267 . S
C91 O92 1.160 . S
C91 O98 1.185 . S
O92 C91 1.160 . S
O93 Zn94 1.899 . S
O93 C101 1.284 . S
Zn94 O93 1.899 . S
Zn94 O95 2.032 1_455 S
Zn94 O98 2.086 1_455 S
Zn94 O103 1.977 . S
O95 Zn94 2.032 1_655 S
O95 C99 1.278 . S
C96 O97 1.203 . S
C96 O103 1.267 . S
O97 C96 1.203 . S
O98 C91 1.185 . S
O98 Zn94 2.086 1_655 S
C99 O95 1.278 . S
C99 O100 1.211 1_655 S
O100 C99 1.211 1_455 S
C101 O93 1.284 . S
C101 O102 1.273 . S
O102 C101 1.273 . S
O103 Zn94 1.977 . S
O103 C96 1.267 . S
C104 O105 1.160 . S
C104 O111 1.185 . S
O105 C104 1.160 . S
O106 Zn107 1.899 1_565 S
O106 C114 1.284 . S
Zn107 O106 1.899 1_545 S
Zn107 O108 2.032 . S
Zn107 O111 2.086 1_545 S
Zn107 O116 1.977 . S
O108 Zn107 2.032 . S
O108 C112 1.278 . S
C109 O110 1.203 . S
C109 O116 1.267 . S
O110 C109 1.203 . S
O111 C104 1.185 . S
O111 Zn107 2.086 1_565 S
C112 O108 1.278 . S
C112 O113 1.211 . S
O113 C112 1.211 . S
C114 O106 1.284 . S
C114 O115 1.273 1_565 S
O115 C114 1.273 1_545 S
O116 Zn107 1.977 . S
O116 C109 1.267 . S
C117 O118 1.160 . S
C117 O124 1.185 . S
O118 C117 1.160 . S
O119 Zn120 1.899 . S
O119 C127 1.284 . S
Zn120 O119 1.899 . S
Zn120 O121 2.032 . S
Zn120 O124 2.086 . S
Zn120 O129 1.977 . S
O121 Zn120 2.032 . S
O121 C125 1.278 . S
C122 O123 1.203 . S
C122 O129 1.267 . S
O123 C122 1.203 . S
O124 C117 1.185 . S
O124 Zn120 2.086 . S
C125 O121 1.278 . S
C125 O126 1.211 . S
O126 C125 1.211 . S
C127 O119 1.284 . S
C127 O128 1.273 . S
O128 C127 1.273 . S
O129 Zn120 1.977 . S
O129 C122 1.267 . S
C130 O131 1.160 . S
C130 O137 1.185 . S
O131 C130 1.160 . S
O132 Zn133 1.899 . S
O132 C140 1.284 . S
Zn133 O132 1.899 . S
Zn133 O134 2.032 1_545 S
Zn133 O137 2.086 . S
Zn133 O142 1.977 1_545 S
O134 Zn133 2.032 1_565 S
O134 C138 1.278 . S
C135 O136 1.203 . S
C135 O142 1.267 . S
O136 C135 1.203 . S
O137 C130 1.185 . S
O137 Zn133 2.086 . S
C138 O134 1.278 . S
C138 O139 1.211 . S
O139 C138 1.211 . S
C140 O132 1.284 . S
C140 O141 1.273 . S
O141 C140 1.273 . S
O142 Zn133 1.977 1_565 S
O142 C135 1.267 . S
C143 O144 1.160 . S
C143 O150 1.185 . S
O144 C143 1.160 . S
O145 Zn146 1.899 . S
O145 C153 1.284 . S
Zn146 O145 1.899 . S
Zn146 O147 2.032 1_554 S
Zn146 O150 2.086 1_554 S
Zn146 O155 1.977 . S
O147 Zn146 2.032 1_556 S
O147 C151 1.278 . S
C148 O149 1.203 . S
C148 O155 1.267 . S
O149 C148 1.203 . S
O150 C143 1.185 . S
O150 Zn146 2.086 1_556 S
C151 O147 1.278 . S
C151 O152 1.211 . S
O152 C151 1.211 . S
C153 O145 1.284 . S
C153 O154 1.273 . S
O154 C153 1.273 . S
O155 Zn146 1.977 . S
O155 C148 1.267 . S
C156 O157 1.160 . S
C156 O163 1.185 . S
O157 C156 1.160 . S
O158 Zn159 1.899 . S
O158 C166 1.284 . S
Zn159 O158 1.899 . S
Zn159 O160 2.032 1_554 S
Zn159 O163 2.086 . S
Zn159 O168 1.977 1_554 S
O160 Zn159 2.032 1_556 S
O160 C164 1.278 . S
C161 O162 1.202 . S
C161 O168 1.267 . S
O162 C161 1.202 . S
O163 C156 1.185 . S
O163 Zn159 2.086 . S
C164 O160 1.278 . S
C164 O165 1.211 . S
O165 C164 1.211 . S
C166 O158 1.284 . S
C166 O167 1.273 . S
O167 C166 1.273 . S
O168 Zn159 1.977 1_556 S
O168 C161 1.267 . S
C169 O170 1.160 . S
C169 O176 1.185 . S
O170 C169 1.160 . S
O171 Zn172 1.899 . S
O171 C179 1.284 . S
Zn172 O171 1.899 . S
Zn172 O173 2.032 1_554 S
Zn172 O176 2.086 . S
Zn172 O181 1.977 1_554 S
O173 Zn172 2.032 1_556 S
O173 C177 1.278 . S
C174 O175 1.203 . S
C174 O181 1.267 . S
O175 C174 1.203 . S
O176 C169 1.185 . S
O176 Zn172 2.086 . S
C177 O173 1.278 . S
C177 O178 1.211 . S
O178 C177 1.211 . S
C179 O171 1.284 . S
C179 O180 1.273 . S
O180 C179 1.273 . S
O181 Zn172 1.977 1_556 S
O181 C174 1.267 . S
C182 O183 1.160 . S
C182 O189 1.185 . S
O183 C182 1.160 . S
O184 Zn185 1.899 . S
O184 C192 1.284 . S
Zn185 O184 1.899 . S
Zn185 O186 2.032 . S
Zn185 O189 2.086 . S
Zn185 O194 1.977 . S
O186 Zn185 2.032 . S
O186 C190 1.278 . S
C187 O188 1.203 . S
C187 O194 1.267 . S
O188 C187 1.203 . S
O189 C182 1.185 . S
O189 Zn185 2.086 . S
C190 O186 1.278 . S
C190 O191 1.211 . S
O191 C190 1.211 . S
C192 O184 1.284 . S
C192 O193 1.273 . S
O193 C192 1.273 . S
O194 Zn185 1.977 . S
O194 C187 1.267 . S
C195 O196 1.160 . S
C195 O202 1.185 . S
O196 C195 1.160 . S
O197 Zn198 1.899 . S
O197 C205 1.284 . S
Zn198 O197 1.899 . S
Zn198 O199 2.032 . S
Zn198 O202 2.086 . S
Zn198 O207 1.977 . S
O199 Zn198 2.032 . S
O199 C203 1.278 . S
C200 O201 1.203 . S
C200 O207 1.267 . S
O201 C200 1.203 . S
O202 C195 1.185 . S
O202 Zn198 2.086 . S
C203 O199 1.278 . S
C203 O204 1.211 . S
O204 C203 1.211 . S
C205 O197 1.284 . S
C205 O206 1.273 . S
O206 C205 1.273 . S
O207 Zn198 1.977 . S
O207 C200 1.267 . S
C208 O209 1.160 . S
C208 O215 1.185 . S
O209 C208 1.160 . S
O210 Zn211 1.899 . S
O210 C218 1.284 . S
Zn211 O210 1.899 . S
Zn211 O212 2.032 1_565 S
Zn211 O215 2.086 1_565 S
Zn211 O220 1.977 . S
O212 Zn211 2.032 1_545 S
O212 C216 1.278 . S
C213 O214 1.203 . S
C213 O220 1.267 . S
O214 C213 1.203 . S
O215 C208 1.185 . S
O215 Zn211 2.086 1_545 S
C216 O212 1.278 . S
C216 O217 1.211 . S
O217 C216 1.211 . S
C218 O210 1.284 . S
C218 O219 1.273 . S
O219 C218 1.273 . S
O220 Zn211 1.977 . S
O220 C213 1.267 . S
C221 O222 1.160 . S
C221 O228 1.185 . S
O222 C221 1.160 . S
O223 Zn224 1.899 . S
O223 C231 1.284 . S
Zn224 O223 1.899 . S
Zn224 O225 2.032 . S
Zn224 O228 2.086 . S
Zn224 O233 1.977 . S
O225 Zn224 2.032 . S
O225 C229 1.278 . S
C226 O227 1.203 . S
C226 O233 1.267 . S
O227 C226 1.203 . S
O228 C221 1.185 . S
O228 Zn224 2.086 . S
C229 O225 1.278 . S
C229 O230 1.211 . S
O230 C229 1.211 . S
C231 O223 1.284 . S
C231 O232 1.273 . S
O232 C231 1.273 . S
O233 Zn224 1.977 . S
O233 C226 1.267 . S
C234 O235 1.160 . S
C234 O241 1.185 . S
O235 C234 1.160 . S
O236 Zn237 1.899 . S
O236 C244 1.284 . S
Zn237 O236 1.899 . S
Zn237 O238 2.032 . S
Zn237 O241 2.086 . S
Zn237 O246 1.977 . S
O238 Zn237 2.032 . S
O238 C242 1.278 . S
C239 O240 1.203 . S
C239 O246 1.267 . S
O240 C239 1.203 . S
O241 C234 1.185 . S
O241 Zn237 2.086 . S
C242 O238 1.278 . S
C242 O243 1.211 . S
O243 C242 1.211 . S
C244 O236 1.284 . S
C244 O245 1.273 . S
O245 C244 1.273 . S
O246 Zn237 1.977 . S
O246 C239 1.267 . S
C247 O248 1.160 . S
C247 O254 1.185 . S
O248 C247 1.160 . S
O249 Zn250 1.899 1_565 S
O249 C257 1.284 . S
Zn250 O249 1.899 1_545 S
Zn250 O251 2.032 . S
Zn250 O254 2.086 . S
Zn250 O259 1.977 1_545 S
O251 Zn250 2.032 . S
O251 C255 1.278 . S
C252 O253 1.203 . S
C252 O259 1.267 . S
O253 C252 1.203 . S
O254 C247 1.185 . S
O254 Zn250 2.086 . S
C255 O251 1.278 . S
C255 O256 1.211 1_545 S
O256 C255 1.211 1_565 S
C257 O249 1.284 . S
C257 O258 1.273 . S
O258 C257 1.273 . S
O259 Zn250 1.977 1_565 S
O259 C252 1.267 . S
C260 O261 1.160 . S
C260 O267 1.185 . S
O261 C260 1.160 . S
O262 Zn263 1.899 . S
O262 C270 1.284 . S
Zn263 O262 1.899 . S
Zn263 O264 2.032 1_554 S
Zn263 O267 2.086 1_554 S
Zn263 O272 1.977 . S
O264 Zn263 2.032 1_556 S
O264 C268 1.278 . S
C265 O266 1.203 . S
C265 O272 1.267 . S
O266 C265 1.203 . S
O267 C260 1.185 . S
O267 Zn263 2.086 1_556 S
C268 O264 1.278 . S
C268 O269 1.211 . S
O269 C268 1.211 . S
C270 O262 1.284 . S
C270 O271 1.273 . S
O271 C270 1.273 . S
O272 Zn263 1.977 . S
O272 C265 1.267 . S
C273 O274 1.160 . S
C273 O280 1.185 . S
O274 C273 1.160 . S
O275 Zn276 1.899 . S
O275 C283 1.284 . S
Zn276 O275 1.899 . S
Zn276 O277 2.032 . S
Zn276 O280 2.086 . S
Zn276 O285 1.977 . S
O277 Zn276 2.032 . S
O277 C281 1.278 . S
C278 O279 1.203 . S
C278 O285 1.267 . S
O279 C278 1.203 . S
O280 C273 1.185 . S
O280 Zn276 2.086 . S
C281 O277 1.278 . S
C281 O282 1.211 . S
O282 C281 1.211 . S
C283 O275 1.284 . S
C283 O284 1.273 . S
O284 C283 1.273 . S
O285 Zn276 1.977 . S
O285 C278 1.267 . S
C286 O287 1.160 . S
C286 O293 1.185 . S
O287 C286 1.160 . S
O288 Zn289 1.899 . S
O288 C296 1.284 . S
Zn289 O288 1.899 . S
Zn289 O290 2.032 . S
Zn289 O293 2.086 . S
Zn289 O298 1.977 . S
O290 Zn289 2.032 . S
O290 C294 1.278 . S
C291 O292 1.203 . S
C291 O298 1.267 . S
O292 C291 1.203 . S
O293 C286 1.185 . S
O293 Zn289 2.086 . S
C294 O290 1.278 . S
C294 O295 1.211 . S
O295 C294 1.211 . S
C296 O288 1.284 . S
C296 O297 1.273 . S
O297 C296 1.273 . S
O298 Zn289 1.977 . S
O298 C291 1.267 . S
C299 O300 1.160 . S
C299 O306 1.185 . S
O300 C299 1.160 . S
O301 Zn302 1.899 . S
O301 C309 1.284 . S
Zn302 O301 1.899 . S
Zn302 O303 2.032 . S
Zn302 O306 2.086 . S
Zn302 O311 1.977 . S
O303 Zn302 2.032 . S
O303 C307 1.278 . S
C304 O305 1.203 . S
C304 O311 1.267 . S
O305 C304 1.203 . S
O306 C299 1.185 . S
O306 Zn302 2.086 . S
C307 O303 1.278 . S
C307 O308 1.211 . S
O308 C307 1.211 . S
C309 O301 1.284 . S
C309 O310 1.273 . S
O310 C309 1.273 . S
O311 Zn302 1.977 . S
O311 C304 1.267 . S
H312 C320 0.950 . S
H313 C325 0.950 . S
H314 C322 0.950 . S
H315 C324 0.950 . S
H316 C326 0.950 . S
H317 C328 0.950 . S
H318 C330 0.950 . S
H319 C331 0.950 1_655 S
C320 H312 0.950 . S
C320 C321 1.386 . S
C320 C322 1.391 . S
C321 C320 1.386 . S
C321 C325 1.393 . S
C322 H314 0.950 . S
C322 C320 1.391 . S
C322 C323 1.400 . S
C323 C322 1.400 . S
C323 C324 1.398 . S
C323 C329 1.491 . S
C324 H315 0.950 . S
C324 C323 1.398 . S
C324 C325 1.391 . S
C325 H313 0.950 . S
C325 C321 1.393 . S
C325 C324 1.391 . S
C326 H316 0.950 . S
C326 C327 1.386 . S
C326 C328 1.391 . S
C327 C326 1.386 . S
C327 C331 1.393 . S
C328 H317 0.950 . S
C328 C326 1.391 . S
C328 C329 1.400 . S
C329 C323 1.491 . S
C329 C328 1.400 . S
C329 C330 1.398 . S
C330 H318 0.950 . S
C330 C329 1.398 . S
C330 C331 1.391 . S
C331 H319 0.950 1_455 S
C331 C327 1.393 . S
C331 C330 1.391 . S
H332 C340 0.950 . S
H333 C345 0.950 . S
H334 C342 0.950 . S
H335 C344 0.950 . S
H336 C346 0.950 . S
H337 C348 0.950 . S
H338 C350 0.950 . S
H339 C351 0.950 . S
C340 H332 0.950 . S
C340 C341 1.386 . S
C340 C342 1.391 . S
C341 C340 1.386 . S
C341 C345 1.393 . S
C342 H334 0.950 . S
C342 C340 1.391 . S
C342 C343 1.400 . S
C343 C342 1.400 . S
C343 C344 1.398 . S
C343 C349 1.491 . S
C344 H335 0.950 . S
C344 C343 1.398 . S
C344 C345 1.391 . S
C345 H333 0.950 . S
C345 C341 1.393 . S
C345 C344 1.391 . S
C346 H336 0.950 . S
C346 C347 1.386 . S
C346 C348 1.391 . S
C347 C346 1.386 . S
C347 C351 1.393 . S
C348 H337 0.950 . S
C348 C346 1.391 . S
C348 C349 1.400 . S
C349 C343 1.491 . S
C349 C348 1.400 . S
C349 C350 1.398 . S
C350 H338 0.950 . S
C350 C349 1.398 . S
C350 C351 1.391 . S
C351 H339 0.950 . S
C351 C347 1.393 . S
C351 C350 1.391 . S
H352 C360 0.950 . S
H353 C365 0.950 . S
H354 C362 0.950 . S
H355 C364 0.950 . S
H356 C366 0.950 . S
H357 C368 0.950 . S
H358 C370 0.950 . S
H359 C371 0.950 . S
C360 H352 0.950 . S
C360 C361 1.386 . S
C360 C362 1.391 . S
C361 C360 1.386 . S
C361 C365 1.393 . S
C362 H354 0.950 . S
C362 C360 1.391 . S
C362 C363 1.400 . S
C363 C362 1.400 . S
C363 C364 1.398 . S
C363 C369 1.491 . S
C364 H355 0.950 . S
C364 C363 1.398 . S
C364 C365 1.391 . S
C365 H353 0.950 . S
C365 C361 1.393 . S
C365 C364 1.391 . S
C366 H356 0.950 . S
C366 C367 1.386 . S
C366 C368 1.391 . S
C367 C366 1.386 . S
C367 C371 1.393 . S
C368 H357 0.950 . S
C368 C366 1.391 . S
C368 C369 1.400 . S
C369 C363 1.491 . S
C369 C368 1.400 . S
C369 C370 1.398 . S
C370 H358 0.950 . S
C370 C369 1.398 . S
C370 C371 1.391 . S
C371 H359 0.950 . S
C371 C367 1.393 . S
C371 C370 1.391 . S
H372 C380 0.950 . S
H373 C385 0.950 . S
H374 C382 0.950 . S
H375 C384 0.950 . S
H376 C386 0.950 . S
H377 C388 0.950 . S
H378 C390 0.950 . S
H379 C391 0.950 . S
C380 H372 0.950 . S
C380 C381 1.386 . S
C380 C382 1.391 . S
C381 C380 1.386 . S
C381 C385 1.393 . S
C382 H374 0.950 . S
C382 C380 1.391 . S
C382 C383 1.400 . S
C383 C382 1.400 . S
C383 C384 1.398 . S
C383 C389 1.491 . S
C384 H375 0.950 . S
C384 C383 1.398 . S
C384 C385 1.391 . S
C385 H373 0.950 . S
C385 C381 1.393 . S
C385 C384 1.391 . S
C386 H376 0.950 . S
C386 C387 1.386 . S
C386 C388 1.391 . S
C387 C386 1.386 . S
C387 C391 1.393 . S
C388 H377 0.950 . S
C388 C386 1.391 . S
C388 C389 1.400 . S
C389 C383 1.491 . S
C389 C388 1.400 . S
C389 C390 1.398 . S
C390 H378 0.950 . S
C390 C389 1.398 . S
C390 C391 1.391 . S
C391 H379 0.950 . S
C391 C387 1.393 . S
C391 C390 1.391 . S
H392 C400 0.950 . S
H393 C405 0.950 . S
H394 C402 0.950 . S
H395 C404 0.950 . S
H396 C406 0.950 1_655 S
H397 C408 0.950 . S
H398 C410 0.950 . S
H399 C411 0.950 . S
C400 H392 0.950 . S
C400 C401 1.386 . S
C400 C402 1.391 . S
C401 C400 1.386 . S
C401 C405 1.393 . S
C402 H394 0.950 . S
C402 C400 1.391 . S
C402 C403 1.400 . S
C403 C402 1.400 . S
C403 C404 1.398 . S
C403 C409 1.491 . S
C404 H395 0.950 . S
C404 C403 1.398 . S
C404 C405 1.391 . S
C405 H393 0.950 . S
C405 C401 1.393 . S
C405 C404 1.391 . S
C406 H396 0.950 1_455 S
C406 C407 1.386 . S
C406 C408 1.391 . S
C407 C406 1.386 . S
C407 C411 1.393 . S
C408 H397 0.950 . S
C408 C406 1.391 . S
C408 C409 1.400 . S
C409 C403 1.491 . S
C409 C408 1.400 . S
C409 C410 1.398 . S
C410 H398 0.950 . S
C410 C409 1.398 . S
C410 C411 1.391 . S
C411 H399 0.950 . S
C411 C407 1.393 . S
C411 C410 1.391 . S
H412 C420 0.950 . S
H413 C425 0.950 . S
H414 C422 0.950 . S
H415 C424 0.950 . S
H416 C426 0.950 . S
H417 C428 0.950 . S
H418 C430 0.950 . S
H419 C431 0.950 . S
C420 H412 0.950 . S
C420 C421 1.386 . S
C420 C422 1.391 . S
C421 C420 1.386 . S
C421 C425 1.393 . S
C422 H414 0.950 . S
C422 C420 1.391 . S
C422 C423 1.400 . S
C423 C422 1.400 . S
C423 C424 1.398 . S
C423 C429 1.491 . S
C424 H415 0.950 . S
C424 C423 1.398 . S
C424 C425 1.391 . S
C425 H413 0.950 . S
C425 C421 1.393 . S
C425 C424 1.391 . S
C426 H416 0.950 . S
C426 C427 1.386 . S
C426 C428 1.391 . S
C427 C426 1.386 . S
C427 C431 1.393 . S
C428 H417 0.950 . S
C428 C426 1.391 . S
C428 C429 1.400 . S
C429 C423 1.491 . S
C429 C428 1.400 . S
C429 C430 1.398 . S
C430 H418 0.950 . S
C430 C429 1.398 . S
C430 C431 1.391 . S
C431 H419 0.950 . S
C431 C427 1.393 . S
C431 C430 1.391 . S
H432 C440 0.950 . S
H433 C445 0.950 . S
H434 C442 0.950 . S
H435 C444 0.950 . S
H436 C446 0.950 . S
H437 C448 0.950 . S
H438 C450 0.950 . S
H439 C451 0.950 . S
C440 H432 0.950 . S
C440 C441 1.386 . S
C440 C442 1.391 . S
C441 C440 1.386 . S
C441 C445 1.393 . S
C442 H434 0.950 . S
C442 C440 1.391 . S
C442 C443 1.400 . S
C443 C442 1.400 . S
C443 C444 1.398 . S
C443 C449 1.491 . S
C444 H435 0.950 . S
C444 C443 1.398 . S
C444 C445 1.391 . S
C445 H433 0.950 . S
C445 C441 1.393 . S
C445 C444 1.391 . S
C446 H436 0.950 . S
C446 C447 1.386 . S
C446 C448 1.391 . S
C447 C446 1.386 . S
C447 C451 1.393 . S
C448 H437 0.950 . S
C448 C446 1.391 . S
C448 C449 1.400 . S
C449 C443 1.491 . S
C449 C448 1.400 . S
C449 C450 1.398 . S
C450 H438 0.950 . S
C450 C449 1.398 . S
C450 C451 1.391 . S
C451 H439 0.950 . S
C451 C447 1.393 . S
C451 C450 1.391 . S
H452 C460 0.950 . S
H453 C465 0.950 . S
H454 C462 0.950 . S
H455 C464 0.950 . S
H456 C466 0.950 . S
H457 C468 0.950 . S
H458 C470 0.950 . S
H459 C471 0.950 1_554 S
C460 H452 0.950 . S
C460 C461 1.386 . S
C460 C462 1.391 . S
C461 C460 1.386 . S
C461 C465 1.393 . S
C462 H454 0.950 . S
C462 C460 1.391 . S
C462 C463 1.400 . S
C463 C462 1.400 . S
C463 C464 1.398 . S
C463 C469 1.491 . S
C464 H455 0.950 . S
C464 C463 1.398 . S
C464 C465 1.391 . S
C465 H453 0.950 . S
C465 C461 1.393 . S
C465 C464 1.391 . S
C466 H456 0.950 . S
C466 C467 1.386 . S
C466 C468 1.391 . S
C467 C466 1.386 . S
C467 C471 1.393 . S
C468 H457 0.950 . S
C468 C466 1.391 . S
C468 C469 1.400 . S
C469 C463 1.491 . S
C469 C468 1.400 . S
C469 C470 1.398 . S
C470 H458 0.950 . S
C470 C469 1.398 . S
C470 C471 1.391 . S
C471 H459 0.950 1_556 S
C471 C467 1.393 . S
C471 C470 1.391 . S
H472 C480 0.950 . S
H473 C485 0.950 . S
H474 C482 0.950 . S
H475 C484 0.950 . S
H476 C486 0.950 . S
H477 C488 0.950 . S
H478 C490 0.950 . S
H479 C491 0.950 . S
C480 H472 0.950 . S
C480 C481 1.386 . S
C480 C482 1.391 . S
C481 C480 1.386 . S
C481 C485 1.393 . S
C482 H474 0.950 . S
C482 C480 1.391 . S
C482 C483 1.400 . S
C483 C482 1.400 . S
C483 C484 1.398 . S
C483 C489 1.491 . S
C484 H475 0.950 . S
C484 C483 1.398 . S
C484 C485 1.391 . S
C485 H473 0.950 . S
C485 C481 1.393 . S
C485 C484 1.391 . S
C486 H476 0.950 . S
C486 C487 1.386 . S
C486 C488 1.391 . S
C487 C486 1.386 . S
C487 C491 1.393 . S
C488 H477 0.950 . S
C488 C486 1.391 . S
C488 C489 1.400 . S
C489 C483 1.491 . S
C489 C488 1.400 . S
C489 C490 1.398 . S
C490 H478 0.950 . S
C490 C489 1.398 . S
C490 C491 1.391 . S
C491 H479 0.950 . S
C491 C487 1.393 . S
C491 C490 1.391 . S
H492 C500 0.950 . S
H493 C505 0.973 . S
H494 C502 0.950 . S
H495 C504 0.950 . S
H496 C506 0.950 . S
H497 C508 0.950 . S
H498 C510 0.950 . S
H499 C511 0.950 . S
C500 H492 0.950 . S
C500 C501 1.386 . S
C500 C502 1.391 . S
C501 C500 1.386 . S
C501 C505 1.393 . S
C502 H494 0.950 . S
C502 C500 1.391 . S
C502 C503 1.400 . S
C503 C502 1.400 . S
C503 C504 1.398 . S
C503 C509 1.491 . S
C504 H495 0.950 . S
C504 C503 1.398 . S
C504 C505 1.391 . S
C505 H493 0.973 . S
C505 C501 1.393 . S
C505 C504 1.391 . S
C506 H496 0.950 . S
C506 C507 1.386 . S
C506 C508 1.391 . S
C507 C506 1.386 . S
C507 C511 1.393 . S
C508 H497 0.950 . S
C508 C506 1.391 . S
C508 C509 1.400 . S
C509 C503 1.491 . S
C509 C508 1.400 . S
C509 C510 1.398 . S
C510 H498 0.950 . S
C510 C509 1.398 . S
C510 C511 1.391 . S
C511 H499 0.950 . S
C511 C507 1.393 . S
C511 C510 1.391 . S
H512 C520 0.950 . S
H513 C525 0.950 . S
H514 C522 0.950 . S
H515 C524 0.950 . S
H516 C526 0.950 . S
H517 C528 0.950 . S
H518 C530 0.950 . S
H519 C531 0.950 . S
C520 H512 0.950 . S
C520 C521 1.386 . S
C520 C522 1.391 . S
C521 C520 1.386 . S
C521 C525 1.393 . S
C522 H514 0.950 . S
C522 C520 1.391 . S
C522 C523 1.400 . S
C523 C522 1.400 . S
C523 C524 1.398 . S
C523 C529 1.491 . S
C524 H515 0.950 . S
C524 C523 1.398 . S
C524 C525 1.391 . S
C525 H513 0.950 . S
C525 C521 1.393 . S
C525 C524 1.391 . S
C526 H516 0.950 . S
C526 C527 1.386 . S
C526 C528 1.391 . S
C527 C526 1.386 . S
C527 C531 1.393 . S
C528 H517 0.950 . S
C528 C526 1.391 . S
C528 C529 1.400 . S
C529 C523 1.491 . S
C529 C528 1.400 . S
C529 C530 1.398 . S
C530 H518 0.950 . S
C530 C529 1.398 . S
C530 C531 1.391 . S
C531 H519 0.950 . S
C531 C527 1.393 . S
C531 C530 1.391 . S
H532 C540 0.950 . S
H533 C545 0.950 . S
H534 C542 0.950 . S
H535 C544 0.950 . S
H536 C546 0.950 . S
H537 C548 0.950 . S
H538 C550 0.950 . S
H539 C551 0.950 . S
C540 H532 0.950 . S
C540 C541 1.386 . S
C540 C542 1.391 . S
C541 C540 1.386 . S
C541 C545 1.393 . S
C542 H534 0.950 . S
C542 C540 1.391 . S
C542 C543 1.400 . S
C543 C542 1.400 . S
C543 C544 1.398 . S
C543 C549 1.491 . S
C544 H535 0.950 . S
C544 C543 1.398 . S
C544 C545 1.391 . S
C545 H533 0.950 . S
C545 C541 1.393 . S
C545 C544 1.391 . S
C546 H536 0.950 . S
C546 C547 1.386 . S
C546 C548 1.391 . S
C547 C546 1.386 . S
C547 C551 1.393 . S
C548 H537 0.950 . S
C548 C546 1.391 . S
C548 C549 1.400 . S
C549 C543 1.491 . S
C549 C548 1.400 . S
C549 C550 1.398 . S
C550 H538 0.950 . S
C550 C549 1.398 . S
C550 C551 1.391 . S
C551 H539 0.950 . S
C551 C547 1.393 . S
C551 C550 1.391 . S
H552 C560 0.950 . S
H553 C565 0.950 . S
H554 C562 0.950 . S
H555 C564 0.950 . S
H556 C566 0.950 . S
H557 C568 0.950 . S
H558 C570 0.950 . S
H559 C571 0.950 . S
C560 H552 0.950 . S
C560 C561 1.386 . S
C560 C562 1.391 . S
C561 C560 1.386 . S
C561 C565 1.393 . S
C562 H554 0.950 . S
C562 C560 1.391 . S
C562 C563 1.400 . S
C563 C562 1.400 . S
C563 C564 1.398 . S
C563 C569 1.491 . S
C564 H555 0.950 . S
C564 C563 1.398 . S
C564 C565 1.391 . S
C565 H553 0.950 . S
C565 C561 1.393 . S
C565 C564 1.391 . S
C566 H556 0.950 . S
C566 C567 1.386 . S
C566 C568 1.391 . S
C567 C566 1.386 . S
C567 C571 1.393 . S
C568 H557 0.950 . S
C568 C566 1.391 . S
C568 C569 1.400 . S
C569 C563 1.491 . S
C569 C568 1.400 . S
C569 C570 1.398 . S
C570 H558 0.950 . S
C570 C569 1.398 . S
C570 C571 1.391 . S
C571 H559 0.950 . S
C571 C567 1.393 . S
C571 C570 1.391 . S
H572 C580 0.950 . S
H573 C585 0.950 . S
H574 C582 0.950 . S
H575 C584 0.950 . S
H576 C586 0.950 . S
H577 C588 0.950 . S
H578 C590 0.950 . S
H579 C591 0.950 . S
C580 H572 0.950 . S
C580 C581 1.386 . S
C580 C582 1.391 . S
C581 C580 1.386 . S
C581 C585 1.393 . S
C582 H574 0.950 . S
C582 C580 1.391 . S
C582 C583 1.400 . S
C583 C582 1.400 . S
C583 C584 1.398 . S
C583 C589 1.491 . S
C584 H575 0.950 . S
C584 C583 1.398 . S
C584 C585 1.391 . S
C585 H573 0.950 . S
C585 C581 1.393 . S
C585 C584 1.391 . S
C586 H576 0.950 . S
C586 C587 1.386 . S
C586 C588 1.391 . S
C587 C586 1.386 . S
C587 C591 1.393 . S
C588 H577 0.950 . S
C588 C586 1.391 . S
C588 C589 1.400 . S
C589 C583 1.491 . S
C589 C588 1.400 . S
C589 C590 1.398 . S
C590 H578 0.950 . S
C590 C589 1.398 . S
C590 C591 1.391 . S
C591 H579 0.950 . S
C591 C587 1.393 . S
C591 C590 1.391 . S
H592 C600 0.950 . S
H593 C605 0.950 . S
H594 C602 0.950 . S
H595 C604 0.950 . S
H596 C606 0.950 . S
H597 C608 0.950 . S
H598 C610 0.950 . S
H599 C611 0.950 . S
C600 H592 0.950 . S
C600 C601 1.386 . S
C600 C602 1.391 . S
C601 C600 1.386 . S
C601 C605 1.393 . S
C602 H594 0.950 . S
C602 C600 1.391 . S
C602 C603 1.400 . S
C603 C602 1.400 . S
C603 C604 1.398 . S
C603 C609 1.491 . S
C604 H595 0.950 . S
C604 C603 1.398 . S
C604 C605 1.391 . S
C605 H593 0.950 . S
C605 C601 1.393 . S
C605 C604 1.391 . S
C606 H596 0.950 . S
C606 C607 1.386 . S
C606 C608 1.391 . S
C607 C606 1.386 . S
C607 C611 1.393 . S
C608 H597 0.950 . S
C608 C606 1.391 . S
C608 C609 1.400 . S
C609 C603 1.491 . S
C609 C608 1.400 . S
C609 C610 1.398 . S
C610 H598 0.950 . S
C610 C609 1.398 . S
C610 C611 1.391 . S
C611 H599 0.950 . S
C611 C607 1.393 . S
C611 C610 1.391 . S
H612 C620 0.950 . S
H613 C625 0.950 1_455 S
H614 C622 0.950 . S
H615 C624 0.950 . S
H616 C626 0.950 . S
H617 C628 0.950 . S
H618 C630 0.950 . S
H619 C631 0.950 . S
C620 H612 0.950 . S
C620 C621 1.386 . S
C620 C622 1.391 . S
C621 C620 1.386 . S
C621 C625 1.393 . S
C622 H614 0.950 . S
C622 C620 1.391 . S
C622 C623 1.400 . S
C623 C622 1.400 . S
C623 C624 1.398 . S
C623 C629 1.491 . S
C624 H615 0.950 . S
C624 C623 1.398 . S
C624 C625 1.391 . S
C625 H613 0.950 1_655 S
C625 C621 1.393 . S
C625 C624 1.391 . S
C626 H616 0.950 . S
C626 C627 1.386 . S
C626 C628 1.391 . S
C627 C626 1.386 . S
C627 C631 1.393 . S
C628 H617 0.950 . S
C628 C626 1.391 . S
C628 C629 1.400 . S
C629 C623 1.491 . S
C629 C628 1.400 . S
C629 C630 1.398 . S
C630 H618 0.950 . S
C630 C629 1.398 . S
C630 C631 1.391 . S
C631 H619 0.950 . S
C631 C627 1.393 . S
C631 C630 1.391 . S
H632 C640 0.950 . S
H633 C645 0.950 . S
H634 C642 0.950 . S
H635 C644 0.950 . S
H636 C646 0.950 . S
H637 C648 0.950 . S
H638 C650 0.950 . S
H639 C651 0.950 . S
C640 H632 0.950 . S
C640 C641 1.386 . S
C640 C642 1.391 . S
C641 C640 1.386 . S
C641 C645 1.393 . S
C642 H634 0.950 . S
C642 C640 1.391 . S
C642 C643 1.400 . S
C643 C642 1.400 . S
C643 C644 1.398 . S
C643 C649 1.491 . S
C644 H635 0.950 . S
C644 C643 1.398 . S
C644 C645 1.391 . S
C645 H633 0.950 . S
C645 C641 1.393 . S
C645 C644 1.391 . S
C646 H636 0.950 . S
C646 C647 1.386 . S
C646 C648 1.391 . S
C647 C646 1.386 . S
C647 C651 1.393 . S
C648 H637 0.950 . S
C648 C646 1.391 . S
C648 C649 1.400 . S
C649 C643 1.491 . S
C649 C648 1.400 . S
C649 C650 1.398 . S
C650 H638 0.950 . S
C650 C649 1.398 . S
C650 C651 1.391 . S
C651 H639 0.950 . S
C651 C647 1.393 . S
C651 C650 1.391 . S
H652 C660 0.950 . S
H653 C665 0.950 . S
H654 C662 0.950 . S
H655 C664 0.950 . S
H656 C666 0.950 . S
H657 C668 0.950 . S
H658 C670 0.950 . S
H659 C671 0.950 . S
C660 H652 0.950 . S
C660 C661 1.386 . S
C660 C662 1.391 . S
C661 C660 1.386 . S
C661 C665 1.393 . S
C662 H654 0.950 . S
C662 C660 1.391 . S
C662 C663 1.400 . S
C663 C662 1.400 . S
C663 C664 1.398 . S
C663 C669 1.491 . S
C664 H655 0.950 . S
C664 C663 1.398 . S
C664 C665 1.391 . S
C665 H653 0.950 . S
C665 C661 1.393 . S
C665 C664 1.391 . S
C666 H656 0.950 . S
C666 C667 1.386 . S
C666 C668 1.391 . S
C667 C666 1.386 . S
C667 C671 1.393 . S
C668 H657 0.950 . S
C668 C666 1.391 . S
C668 C669 1.400 . S
C669 C663 1.491 . S
C669 C668 1.400 . S
C669 C670 1.398 . S
C670 H658 0.950 . S
C670 C669 1.398 . S
C670 C671 1.391 . S
C671 H659 0.950 . S
C671 C667 1.393 . S
C671 C670 1.391 . S
H672 C680 0.950 1_554 S
H673 C685 0.950 . S
H674 C682 0.950 . S
H675 C684 0.950 . S
H676 C686 0.950 . S
H677 C688 0.950 . S
H678 C690 0.950 . S
H679 C691 0.950 . S
C680 H672 0.950 1_556 S
C680 C681 1.386 . S
C680 C682 1.391 . S
C681 C680 1.386 . S
C681 C685 1.393 . S
C682 H674 0.950 . S
C682 C680 1.391 . S
C682 C683 1.400 . S
C683 C682 1.400 . S
C683 C684 1.398 . S
C683 C689 1.491 . S
C684 H675 0.950 . S
C684 C683 1.398 . S
C684 C685 1.391 . S
C685 H673 0.950 . S
C685 C681 1.393 . S
C685 C684 1.391 . S
C686 H676 0.950 . S
C686 C687 1.386 . S
C686 C688 1.391 . S
C687 C686 1.386 . S
C687 C691 1.393 . S
C688 H677 0.950 . S
C688 C686 1.391 . S
C688 C689 1.400 . S
C689 C683 1.491 . S
C689 C688 1.400 . S
C689 C690 1.398 . S
C690 H678 0.950 . S
C690 C689 1.398 . S
C690 C691 1.391 . S
C691 H679 0.950 . S
C691 C687 1.393 . S
C691 C690 1.391 . S
H692 C700 0.950 . S
H693 C705 0.950 . S
H694 C702 0.950 . S
H695 C704 0.950 . S
H696 C706 0.950 1_455 S
H697 C708 0.950 . S
H698 C710 0.950 . S
H699 C711 0.950 . S
C700 H692 0.950 . S
C700 C701 1.386 . S
C700 C702 1.391 . S
C701 C700 1.386 . S
C701 C705 1.393 . S
C702 H694 0.950 . S
C702 C700 1.391 . S
C702 C703 1.400 . S
C703 C702 1.400 . S
C703 C704 1.398 . S
C703 C709 1.491 . S
C704 H695 0.950 . S
C704 C703 1.398 . S
C704 C705 1.391 . S
C705 H693 0.950 . S
C705 C701 1.393 . S
C705 C704 1.391 . S
C706 H696 0.950 1_655 S
C706 C707 1.386 . S
C706 C708 1.391 . S
C707 C706 1.386 . S
C707 C711 1.393 . S
C708 H697 0.950 . S
C708 C706 1.391 . S
C708 C709 1.400 . S
C709 C703 1.491 . S
C709 C708 1.400 . S
C709 C710 1.398 . S
C710 H698 0.950 . S
C710 C709 1.398 . S
C710 C711 1.391 . S
C711 H699 0.950 . S
C711 C707 1.393 . S
C711 C710 1.391 . S
H712 C720 0.950 . S
H713 C725 0.950 . S
H714 C722 0.950 . S
H715 C724 0.950 . S
H716 C726 0.950 . S
H717 C728 0.950 . S
H718 C730 0.950 . S
H719 C731 0.950 . S
C720 H712 0.950 . S
C720 C721 1.386 . S
C720 C722 1.391 . S
C721 C720 1.386 . S
C721 C725 1.393 . S
C722 H714 0.950 . S
C722 C720 1.391 . S
C722 C723 1.400 . S
C723 C722 1.400 . S
C723 C724 1.398 . S
C723 C729 1.491 . S
C724 H715 0.950 . S
C724 C723 1.398 . S
C724 C725 1.391 . S
C725 H713 0.950 . S
C725 C721 1.393 . S
C725 C724 1.391 . S
C726 H716 0.950 . S
C726 C727 1.386 . S
C726 C728 1.391 . S
C727 C726 1.386 . S
C727 C731 1.393 . S
C728 H717 0.950 . S
C728 C726 1.391 . S
C728 C729 1.400 . S
C729 C723 1.491 . S
C729 C728 1.400 . S
C729 C730 1.398 . S
C730 H718 0.950 . S
C730 C729 1.398 . S
C730 C731 1.391 . S
C731 H719 0.950 . S
C731 C727 1.393 . S
C731 C730 1.391 . S
H732 C740 0.950 . S
H733 C745 0.950 . S
H734 C742 0.950 . S
H735 C744 0.950 . S
H736 C746 0.950 . S
H737 C748 0.950 . S
H738 C750 0.950 . S
H739 C751 0.950 . S
C740 H732 0.950 . S
C740 C741 1.386 . S
C740 C742 1.391 . S
C741 C740 1.386 . S
C741 C745 1.393 . S
C742 H734 0.950 . S
C742 C740 1.391 . S
C742 C743 1.400 . S
C743 C742 1.400 . S
C743 C744 1.398 . S
C743 C749 1.491 . S
C744 H735 0.950 . S
C744 C743 1.398 . S
C744 C745 1.391 . S
C745 H733 0.950 . S
C745 C741 1.393 . S
C745 C744 1.391 . S
C746 H736 0.950 . S
C746 C747 1.386 . S
C746 C748 1.391 . S
C747 C746 1.386 . S
C747 C751 1.393 . S
C748 H737 0.950 . S
C748 C746 1.391 . S
C748 C749 1.400 . S
C749 C743 1.491 . S
C749 C748 1.400 . S
C749 C750 1.398 . S
C750 H738 0.950 . S
C750 C749 1.398 . S
C750 C751 1.391 . S
C751 H739 0.950 . S
C751 C747 1.393 . S
C751 C750 1.391 . S
H752 C760 0.950 . S
H753 C765 0.950 . S
H754 C762 0.950 . S
H755 C764 0.950 . S
H756 C766 0.950 . S
H757 C768 0.950 . S
H758 C770 0.950 . S
H759 C771 0.950 . S
C760 H752 0.950 . S
C760 C761 1.386 . S
C760 C762 1.391 . S
C761 C760 1.386 . S
C761 C765 1.393 . S
C762 H754 0.950 . S
C762 C760 1.391 . S
C762 C763 1.400 . S
C763 C762 1.400 . S
C763 C764 1.398 . S
C763 C769 1.491 . S
C764 H755 0.950 . S
C764 C763 1.398 . S
C764 C765 1.391 . S
C765 H753 0.950 . S
C765 C761 1.393 . S
C765 C764 1.391 . S
C766 H756 0.950 . S
C766 C767 1.386 . S
C766 C768 1.391 . S
C767 C766 1.386 . S
C767 C771 1.393 . S
C768 H757 0.950 . S
C768 C766 1.391 . S
C768 C769 1.400 . S
C769 C763 1.491 . S
C769 C768 1.400 . S
C769 C770 1.398 . S
C770 H758 0.950 . S
C770 C769 1.398 . S
C770 C771 1.391 . S
C771 H759 0.950 . S
C771 C767 1.393 . S
C771 C770 1.391 . S
H772 C780 0.950 . S
H773 C785 0.950 . S
H774 C782 0.950 . S
H775 C784 0.950 . S
H776 C786 0.950 . S
H777 C788 0.950 . S
H778 C790 0.950 . S
H779 C791 0.950 . S
C780 H772 0.950 . S
C780 C781 1.386 . S
C780 C782 1.391 . S
C781 C780 1.386 . S
C781 C785 1.393 . S
C782 H774 0.950 . S
C782 C780 1.391 . S
C782 C783 1.400 . S
C783 C782 1.400 . S
C783 C784 1.398 . S
C783 C789 1.491 . S
C784 H775 0.950 . S
C784 C783 1.398 . S
C784 C785 1.391 . S
C785 H773 0.950 . S
C785 C781 1.393 . S
C785 C784 1.391 . S
C786 H776 0.950 . S
C786 C787 1.386 . S
C786 C788 1.391 . S
C787 C786 1.386 . S
C787 C791 1.393 . S
C788 H777 0.950 . S
C788 C786 1.391 . S
C788 C789 1.400 . S
C789 C783 1.491 . S
C789 C788 1.400 . S
C789 C790 1.398 . S
C790 H778 0.950 . S
C790 C789 1.398 . S
C790 C791 1.391 . S
C791 H779 0.950 . S
C791 C787 1.393 . S
C791 C790 1.391 . S
H792 C800 0.950 . S
H793 C805 0.950 . S
H794 C802 0.950 . S
H795 C804 0.950 . S
H796 C806 0.950 . S
H797 C808 0.950 . S
H798 C810 0.950 . S
H799 C811 0.950 . S
C800 H792 0.950 . S
C800 C801 1.386 . S
C800 C802 1.391 . S
C801 C800 1.386 . S
C801 C805 1.393 . S
C802 H794 0.950 . S
C802 C800 1.391 . S
C802 C803 1.400 . S
C803 C802 1.400 . S
C803 C804 1.398 . S
C803 C809 1.491 . S
C804 H795 0.950 . S
C804 C803 1.398 . S
C804 C805 1.391 . S
C805 H793 0.950 . S
C805 C801 1.393 . S
C805 C804 1.391 . S
C806 H796 0.950 . S
C806 C807 1.386 . S
C806 C808 1.391 . S
C807 C806 1.386 . S
C807 C811 1.393 . S
C808 H797 0.950 . S
C808 C806 1.391 . S
C808 C809 1.400 . S
C809 C803 1.491 . S
C809 C808 1.400 . S
C809 C810 1.398 . S
C810 H798 0.950 . S
C810 C809 1.398 . S
C810 C811 1.391 . S
C811 H799 0.950 . S
C811 C807 1.393 . S
C811 C810 1.391 . S
H812 C820 0.950 . S
H813 C825 0.950 . S
H814 C822 0.950 . S
H815 C824 0.950 . S
H816 C826 0.950 . S
H817 C828 0.950 . S
H818 C830 0.950 . S
H819 C831 0.950 . S
C820 H812 0.950 . S
C820 C821 1.386 . S
C820 C822 1.391 . S
C821 C820 1.386 . S
C821 C825 1.393 . S
C822 H814 0.950 . S
C822 C820 1.391 . S
C822 C823 1.400 . S
C823 C822 1.400 . S
C823 C824 1.398 . S
C823 C829 1.491 . S
C824 H815 0.950 . S
C824 C823 1.398 . S
C824 C825 1.391 . S
C825 H813 0.950 . S
C825 C821 1.393 . S
C825 C824 1.391 . S
C826 H816 0.950 . S
C826 C827 1.386 . S
C826 C828 1.391 . S
C827 C826 1.386 . S
C827 C831 1.393 . S
C828 H817 0.950 . S
C828 C826 1.391 . S
C828 C829 1.400 . S
C829 C823 1.491 . S
C829 C828 1.400 . S
C829 C830 1.398 . S
C830 H818 0.950 . S
C830 C829 1.398 . S
C830 C831 1.391 . S
C831 H819 0.950 . S
C831 C827 1.393 . S
C831 C830 1.391 . S
H832 C840 0.950 . S
H833 C845 0.950 . S
H834 C842 0.950 . S
H835 C844 0.950 . S
H836 C846 0.950 . S
H837 C848 0.950 . S
H838 C850 0.950 . S
H839 C851 0.950 . S
C840 H832 0.950 . S
C840 C841 1.386 . S
C840 C842 1.391 . S
C841 C840 1.386 . S
C841 C845 1.393 . S
C842 H834 0.950 . S
C842 C840 1.391 . S
C842 C843 1.400 . S
C843 C842 1.400 . S
C843 C844 1.398 . S
C843 C849 1.491 . S
C844 H835 0.950 . S
C844 C843 1.398 . S
C844 C845 1.391 . S
C845 H833 0.950 . S
C845 C841 1.393 . S
C845 C844 1.391 . S
C846 H836 0.950 . S
C846 C847 1.386 . S
C846 C848 1.391 . S
C847 C846 1.386 . S
C847 C851 1.393 . S
C848 H837 0.950 . S
C848 C846 1.391 . S
C848 C849 1.400 . S
C849 C843 1.491 . S
C849 C848 1.400 . S
C849 C850 1.398 . S
C850 H838 0.950 . S
C850 C849 1.398 . S
C850 C851 1.391 . S
C851 H839 0.950 . S
C851 C847 1.393 . S
C851 C850 1.391 . S
H852 C860 0.950 . S
H853 C865 0.950 . S
H854 C862 0.950 . S
H855 C864 0.950 . S
H856 C866 0.950 . S
H857 C868 0.950 . S
H858 C870 0.950 . S
H859 C871 0.950 . S
C860 H852 0.950 . S
C860 C861 1.386 . S
C860 C862 1.391 . S
C861 C860 1.386 . S
C861 C865 1.393 . S
C862 H854 0.950 . S
C862 C860 1.391 . S
C862 C863 1.400 . S
C863 C862 1.400 . S
C863 C864 1.398 . S
C863 C869 1.491 . S
C864 H855 0.950 . S
C864 C863 1.398 . S
C864 C865 1.391 . S
C865 H853 0.950 . S
C865 C861 1.393 . S
C865 C864 1.391 . S
C866 H856 0.950 . S
C866 C867 1.386 . S
C866 C868 1.391 . S
C867 C866 1.386 . S
C867 C871 1.393 . S
C868 H857 0.950 . S
C868 C866 1.391 . S
C868 C869 1.400 . S
C869 C863 1.491 . S
C869 C868 1.400 . S
C869 C870 1.398 . S
C870 H858 0.950 . S
C870 C869 1.398 . S
C870 C871 1.391 . S
C871 H859 0.950 . S
C871 C867 1.393 . S
C871 C870 1.391 . S
H872 C880 0.950 . S
H873 C885 0.950 . S
H874 C882 0.950 . S
H875 C884 0.950 . S
H876 C886 0.950 . S
H877 C888 0.950 . S
H878 C890 0.950 . S
H879 C891 0.950 . S
C880 H872 0.950 . S
C880 C881 1.386 . S
C880 C882 1.391 . S
C881 C880 1.386 . S
C881 C885 1.393 . S
C882 H874 0.950 . S
C882 C880 1.391 . S
C882 C883 1.400 . S
C883 C882 1.400 . S
C883 C884 1.398 . S
C883 C889 1.491 . S
C884 H875 0.950 . S
C884 C883 1.398 . S
C884 C885 1.391 . S
C885 H873 0.950 . S
C885 C881 1.393 . S
C885 C884 1.391 . S
C886 H876 0.950 . S
C886 C887 1.386 . S
C886 C888 1.391 . S
C887 C886 1.386 . S
C887 C891 1.393 . S
C888 H877 0.950 . S
C888 C886 1.391 . S
C888 C889 1.400 . S
C889 C883 1.491 . S
C889 C888 1.400 . S
C889 C890 1.398 . S
C890 H878 0.950 . S
C890 C889 1.398 . S
C890 C891 1.391 . S
C891 H879 0.950 . S
C891 C887 1.393 . S
C891 C890 1.391 . S
H892 C900 0.950 . S
H893 C905 0.950 . S
H894 C902 0.950 . S
H895 C904 0.950 . S
H896 C906 0.950 . S
H897 C908 0.950 . S
H898 C910 0.950 . S
H899 C911 0.950 . S
C900 H892 0.950 . S
C900 C901 1.386 . S
C900 C902 1.391 . S
C901 C900 1.386 . S
C901 C905 1.393 . S
C902 H894 0.950 . S
C902 C900 1.391 . S
C902 C903 1.400 . S
C903 C902 1.400 . S
C903 C904 1.398 . S
C903 C909 1.491 . S
C904 H895 0.950 . S
C904 C903 1.398 . S
C904 C905 1.391 . S
C905 H893 0.950 . S
C905 C901 1.393 . S
C905 C904 1.391 . S
C906 H896 0.950 . S
C906 C907 1.386 . S
C906 C908 1.391 . S
C907 C906 1.386 . S
C907 C911 1.393 . S
C908 H897 0.950 . S
C908 C906 1.391 . S
C908 C909 1.400 . S
C909 C903 1.491 . S
C909 C908 1.400 . S
C909 C910 1.398 . S
C910 H898 0.950 . S
C910 C909 1.398 . S
C910 C911 1.391 . S
C911 H899 0.950 . S
C911 C907 1.393 . S
C911 C910 1.391 . S
H912 C920 0.950 . S
H913 C925 0.950 . S
H914 C922 0.950 . S
H915 C924 0.950 . S
H916 C926 0.950 . S
H917 C928 0.950 . S
H918 C930 0.950 . S
H919 C931 0.950 . S
C920 H912 0.950 . S
C920 C921 1.386 . S
C920 C922 1.391 . S
C921 C920 1.386 . S
C921 C925 1.393 . S
C922 H914 0.950 . S
C922 C920 1.391 . S
C922 C923 1.400 . S
C923 C922 1.400 . S
C923 C924 1.398 . S
C923 C929 1.491 . S
C924 H915 0.950 . S
C924 C923 1.398 . S
C924 C925 1.391 . S
C925 H913 0.950 . S
C925 C921 1.393 . S
C925 C924 1.391 . S
C926 H916 0.950 . S
C926 C927 1.386 . S
C926 C928 1.391 . S
C927 C926 1.386 . S
C927 C931 1.393 . S
C928 H917 0.950 . S
C928 C926 1.391 . S
C928 C929 1.400 . S
C929 C923 1.491 . S
C929 C928 1.400 . S
C929 C930 1.398 . S
C930 H918 0.950 . S
C930 C929 1.398 . S
C930 C931 1.391 . S
C931 H919 0.950 . S
C931 C927 1.393 . S
C931 C930 1.391 . S
H932 C940 0.950 . S
H933 C945 0.950 . S
H934 C942 0.950 . S
H935 C944 0.950 . S
H936 C946 0.950 . S
H937 C948 0.950 . S
H938 C950 0.950 . S
H939 C951 0.950 . S
C940 H932 0.950 . S
C940 C941 1.386 . S
C940 C942 1.391 . S
C941 C940 1.386 . S
C941 C945 1.393 . S
C942 H934 0.950 . S
C942 C940 1.391 . S
C942 C943 1.400 . S
C943 C942 1.400 . S
C943 C944 1.398 . S
C943 C949 1.491 . S
C944 H935 0.950 . S
C944 C943 1.398 . S
C944 C945 1.391 . S
C945 H933 0.950 . S
C945 C941 1.393 . S
C945 C944 1.391 . S
C946 H936 0.950 . S
C946 C947 1.386 . S
C946 C948 1.391 . S
C947 C946 1.386 . S
C947 C951 1.393 . S
C948 H937 0.950 . S
C948 C946 1.391 . S
C948 C949 1.400 . S
C949 C943 1.491 . S
C949 C948 1.400 . S
C949 C950 1.398 . S
C950 H938 0.950 . S
C950 C949 1.398 . S
C950 C951 1.391 . S
C951 H939 0.950 . S
C951 C947 1.393 . S
C951 C950 1.391 . S
H952 C960 0.950 . S
H953 C965 0.950 . S
H954 C962 0.950 . S
H955 C964 0.950 . S
H956 C966 0.950 . S
H957 C968 0.950 . S
H958 C970 0.950 . S
H959 C971 0.950 . S
C960 H952 0.950 . S
C960 C961 1.386 . S
C960 C962 1.391 . S
C961 C960 1.386 . S
C961 C965 1.393 . S
C962 H954 0.950 . S
C962 C960 1.391 . S
C962 C963 1.400 . S
C963 C962 1.400 . S
C963 C964 1.398 . S
C963 C969 1.491 . S
C964 H955 0.950 . S
C964 C963 1.398 . S
C964 C965 1.391 . S
C965 H953 0.950 . S
C965 C961 1.393 . S
C965 C964 1.391 . S
C966 H956 0.950 . S
C966 C967 1.386 . S
C966 C968 1.391 . S
C967 C966 1.386 . S
C967 C971 1.393 . S
C968 H957 0.950 . S
C968 C966 1.391 . S
C968 C969 1.400 . S
C969 C963 1.491 . S
C969 C968 1.400 . S
C969 C970 1.398 . S
C970 H958 0.950 . S
C970 C969 1.398 . S
C970 C971 1.391 . S
C971 H959 0.950 . S
C971 C967 1.393 . S
C971 C970 1.391 . S
H972 C980 0.950 1_554 S
H973 C985 0.950 . S
H974 C982 0.950 . S
H975 C984 0.950 . S
H976 C986 0.950 . S
H977 C988 0.950 . S
H978 C990 0.950 . S
H979 C991 0.950 . S
C980 H972 0.950 1_556 S
C980 C981 1.386 . S
C980 C982 1.391 . S
C981 C980 1.386 . S
C981 C985 1.393 . S
C982 H974 0.950 . S
C982 C980 1.391 . S
C982 C983 1.400 . S
C983 C982 1.400 . S
C983 C984 1.398 . S
C983 C989 1.491 . S
C984 H975 0.950 . S
C984 C983 1.398 . S
C984 C985 1.391 . S
C985 H973 0.950 . S
C985 C981 1.393 . S
C985 C984 1.391 . S
C986 H976 0.950 . S
C986 C987 1.386 . S
C986 C988 1.391 . S
C987 C986 1.386 . S
C987 C991 1.393 . S
C988 H977 0.950 . S
C988 C986 1.391 . S
C988 C989 1.400 . S
C989 C983 1.491 . S
C989 C988 1.400 . S
C989 C990 1.398 . S
C990 H978 0.950 . S
C990 C989 1.398 . S
C990 C991 1.391 . S
C991 H979 0.950 . S
C991 C987 1.393 . S
C991 C990 1.391 . S
H992 C1000 0.950 . S
H993 C1005 0.950 . S
H994 C1002 0.950 . S
H995 C1004 0.950 . S
H996 C1006 0.950 . S
H997 C1008 0.950 . S
H998 C1010 0.950 . S
H999 C1011 0.950 . S
C1000 H992 0.950 . S
C1000 C1001 1.386 . S
C1000 C1002 1.391 . S
C1001 C1000 1.386 . S
C1001 C1005 1.393 . S
C1002 H994 0.950 . S
C1002 C1000 1.391 . S
C1002 C1003 1.400 . S
C1003 C1002 1.400 . S
C1003 C1004 1.398 . S
C1003 C1009 1.491 . S
C1004 H995 0.950 . S
C1004 C1003 1.398 . S
C1004 C1005 1.391 . S
C1005 H993 0.950 . S
C1005 C1001 1.393 . S
C1005 C1004 1.391 . S
C1006 H996 0.950 . S
C1006 C1007 1.386 . S
C1006 C1008 1.391 . S
C1007 C1006 1.386 . S
C1007 C1011 1.393 . S
C1008 H997 0.950 . S
C1008 C1006 1.391 . S
C1008 C1009 1.400 . S
C1009 C1003 1.491 . S
C1009 C1008 1.400 . S
C1009 C1010 1.398 . S
C1010 H998 0.950 . S
C1010 C1009 1.398 . S
C1010 C1011 1.391 . S
C1011 H999 0.950 . S
C1011 C1007 1.393 . S
C1011 C1010 1.391 . S
H1012 C1020 0.950 . S
H1013 C1025 0.950 . S
H1014 C1022 0.950 . S
H1015 C1024 0.950 . S
H1016 C1026 0.950 . S
H1017 C1028 0.950 . S
H1018 C1030 0.950 . S
H1019 C1031 0.950 . S
C1020 H1012 0.950 . S
C1020 C1021 1.386 . S
C1020 C1022 1.391 . S
C1021 C1020 1.386 . S
C1021 C1025 1.393 . S
C1022 H1014 0.950 . S
C1022 C1020 1.391 . S
C1022 C1023 1.400 . S
C1023 C1022 1.400 . S
C1023 C1024 1.398 . S
C1023 C1029 1.491 . S
C1024 H1015 0.950 . S
C1024 C1023 1.398 . S
C1024 C1025 1.391 . S
C1025 H1013 0.950 . S
C1025 C1021 1.393 . S
C1025 C1024 1.391 . S
C1026 H1016 0.950 . S
C1026 C1027 1.386 . S
C1026 C1028 1.391 . S
C1027 C1026 1.386 . S
C1027 C1031 1.393 . S
C1028 H1017 0.950 . S
C1028 C1026 1.391 . S
C1028 C1029 1.400 . S
C1029 C1023 1.491 . S
C1029 C1028 1.400 . S
C1029 C1030 1.398 . S
C1030 H1018 0.950 . S
C1030 C1029 1.398 . S
C1030 C1031 1.391 . S
C1031 H1019 0.950 . S
C1031 C1027 1.393 . S
C1031 C1030 1.391 . S
H1032 C1040 0.950 . S
H1033 C1045 0.950 . S
H1034 C1042 0.950 . S
H1035 C1044 0.950 . S
H1036 C1046 0.950 . S
H1037 C1048 0.950 . S
H1038 C1050 0.950 . S
H1039 C1051 0.950 . S
C1040 H1032 0.950 . S
C1040 C1041 1.386 . S
C1040 C1042 1.391 . S
C1041 C1040 1.386 . S
C1041 C1045 1.393 . S
C1042 H1034 0.950 . S
C1042 C1040 1.391 . S
C1042 C1043 1.400 . S
C1043 C1042 1.400 . S
C1043 C1044 1.398 . S
C1043 C1049 1.491 . S
C1044 H1035 0.950 . S
C1044 C1043 1.398 . S
C1044 C1045 1.391 . S
C1045 H1033 0.950 . S
C1045 C1041 1.393 . S
C1045 C1044 1.391 . S
C1046 H1036 0.950 . S
C1046 C1047 1.386 . S
C1046 C1048 1.391 . S
C1047 C1046 1.386 . S
C1047 C1051 1.393 . S
C1048 H1037 0.950 . S
C1048 C1046 1.391 . S
C1048 C1049 1.400 . S
C1049 C1043 1.491 . S
C1049 C1048 1.400 . S
C1049 C1050 1.398 . S
C1050 H1038 0.950 . S
C1050 C1049 1.398 . S
C1050 C1051 1.391 . S
C1051 H1039 0.950 . S
C1051 C1047 1.393 . S
C1051 C1050 1.391 . S
H1052 C1060 0.950 . S
H1053 C1065 0.950 . S
H1054 C1062 0.950 . S
H1055 C1064 0.950 . S
H1056 C1066 0.950 . S
H1057 C1068 0.950 . S
H1058 C1070 0.950 . S
H1059 C1071 0.950 . S
C1060 H1052 0.950 . S
C1060 C1061 1.386 . S
C1060 C1062 1.391 . S
C1061 C1060 1.386 . S
C1061 C1065 1.393 . S
C1062 H1054 0.950 . S
C1062 C1060 1.391 . S
C1062 C1063 1.400 . S
C1063 C1062 1.400 . S
C1063 C1064 1.398 . S
C1063 C1069 1.491 . S
C1064 H1055 0.950 . S
C1064 C1063 1.398 . S
C1064 C1065 1.391 . S
C1065 H1053 0.950 . S
C1065 C1061 1.393 . S
C1065 C1064 1.391 . S
C1066 H1056 0.950 . S
C1066 C1067 1.386 . S
C1066 C1068 1.391 . S
C1067 C1066 1.386 . S
C1067 C1071 1.393 . S
C1068 H1057 0.950 . S
C1068 C1066 1.391 . S
C1068 C1069 1.400 . S
C1069 C1063 1.491 . S
C1069 C1068 1.400 . S
C1069 C1070 1.398 . S
C1070 H1058 0.950 . S
C1070 C1069 1.398 . S
C1070 C1071 1.391 . S
C1071 H1059 0.950 . S
C1071 C1067 1.393 . S
C1071 C1070 1.391 . S
H1072 C1080 0.950 . S
H1073 C1085 0.950 . S
H1074 C1082 0.950 . S
H1075 C1084 0.950 . S
H1076 C1086 0.950 . S
H1077 C1088 0.950 . S
H1078 C1090 0.950 . S
H1079 C1091 0.950 . S
C1080 H1072 0.950 . S
C1080 C1081 1.386 . S
C1080 C1082 1.391 . S
C1081 C1080 1.386 . S
C1081 C1085 1.393 . S
C1082 H1074 0.950 . S
C1082 C1080 1.391 . S
C1082 C1083 1.400 . S
C1083 C1082 1.400 . S
C1083 C1084 1.398 . S
C1083 C1089 1.491 . S
C1084 H1075 0.950 . S
C1084 C1083 1.398 . S
C1084 C1085 1.391 . S
C1085 H1073 0.950 . S
C1085 C1081 1.393 . S
C1085 C1084 1.391 . S
C1086 H1076 0.950 . S
C1086 C1087 1.386 . S
C1086 C1088 1.391 . S
C1087 C1086 1.386 . S
C1087 C1091 1.393 . S
C1088 H1077 0.950 . S
C1088 C1086 1.391 . S
C1088 C1089 1.400 . S
C1089 C1083 1.491 . S
C1089 C1088 1.400 . S
C1089 C1090 1.398 . S
C1090 H1078 0.950 . S
C1090 C1089 1.398 . S
C1090 C1091 1.391 . S
C1091 H1079 0.950 . S
C1091 C1087 1.393 . S
C1091 C1090 1.391 . S
H1092 C1100 0.950 . S
H1093 C1105 0.950 . S
H1094 C1102 0.950 . S
H1095 C1104 0.950 . S
H1096 C1106 0.950 . S
H1097 C1108 0.950 . S
H1098 C1110 0.950 . S
H1099 C1111 0.950 . S
C1100 H1092 0.950 . S
C1100 C1101 1.386 . S
C1100 C1102 1.391 . S
C1101 C1100 1.386 . S
C1101 C1105 1.393 . S
C1102 H1094 0.950 . S
C1102 C1100 1.391 . S
C1102 C1103 1.400 . S
C1103 C1102 1.400 . S
C1103 C1104 1.398 . S
C1103 C1109 1.491 . S
C1104 H1095 0.950 . S
C1104 C1103 1.398 . S
C1104 C1105 1.391 . S
C1105 H1093 0.950 . S
C1105 C1101 1.393 . S
C1105 C1104 1.391 . S
C1106 H1096 0.950 . S
C1106 C1107 1.386 . S
C1106 C1108 1.391 . S
C1107 C1106 1.386 . S
C1107 C1111 1.393 . S
C1108 H1097 0.950 . S
C1108 C1106 1.391 . S
C1108 C1109 1.400 . S
C1109 C1103 1.491 . S
C1109 C1108 1.400 . S
C1109 C1110 1.398 . S
C1110 H1098 0.950 . S
C1110 C1109 1.398 . S
C1110 C1111 1.391 . S
C1111 H1099 0.950 . S
C1111 C1107 1.393 . S
C1111 C1110 1.391 . S
H1112 C1120 0.950 . S
H1113 C1125 0.950 . S
H1114 C1122 0.950 . S
H1115 C1124 0.950 . S
H1116 C1126 0.950 . S
H1117 C1128 0.950 . S
H1118 C1130 0.950 . S
H1119 C1131 0.950 . S
C1120 H1112 0.950 . S
C1120 C1121 1.386 . S
C1120 C1122 1.391 . S
C1121 C1120 1.386 . S
C1121 C1125 1.393 . S
C1122 H1114 0.950 . S
C1122 C1120 1.391 . S
C1122 C1123 1.400 . S
C1123 C1122 1.400 . S
C1123 C1124 1.398 . S
C1123 C1129 1.491 . S
C1124 H1115 0.950 . S
C1124 C1123 1.398 . S
C1124 C1125 1.391 . S
C1125 H1113 0.950 . S
C1125 C1121 1.393 . S
C1125 C1124 1.391 . S
C1126 H1116 0.950 . S
C1126 C1127 1.386 . S
C1126 C1128 1.391 . S
C1127 C1126 1.386 . S
C1127 C1131 1.393 . S
C1128 H1117 0.950 . S
C1128 C1126 1.391 . S
C1128 C1129 1.400 . S
C1129 C1123 1.491 . S
C1129 C1128 1.400 . S
C1129 C1130 1.398 . S
C1130 H1118 0.950 . S
C1130 C1129 1.398 . S
C1130 C1131 1.391 . S
C1131 H1119 0.950 . S
C1131 C1127 1.393 . S
C1131 C1130 1.391 . S
H1132 C1140 0.950 . S
H1133 C1145 0.950 . S
H1134 C1142 0.950 . S
H1135 C1144 0.950 . S
H1136 C1146 0.950 . S
H1137 C1148 0.950 . S
H1138 C1150 0.950 . S
H1139 C1151 0.950 . S
C1140 H1132 0.950 . S
C1140 C1141 1.386 . S
C1140 C1142 1.391 . S
C1141 C1140 1.386 . S
C1141 C1145 1.393 . S
C1142 H1134 0.950 . S
C1142 C1140 1.391 . S
C1142 C1143 1.400 . S
C1143 C1142 1.400 . S
C1143 C1144 1.398 . S
C1143 C1149 1.491 . S
C1144 H1135 0.950 . S
C1144 C1143 1.398 . S
C1144 C1145 1.391 . S
C1145 H1133 0.950 . S
C1145 C1141 1.393 . S
C1145 C1144 1.391 . S
C1146 H1136 0.950 . S
C1146 C1147 1.386 . S
C1146 C1148 1.391 . S
C1147 C1146 1.386 . S
C1147 C1151 1.393 . S
C1148 H1137 0.950 . S
C1148 C1146 1.391 . S
C1148 C1149 1.400 . S
C1149 C1143 1.491 . S
C1149 C1148 1.400 . S
C1149 C1150 1.398 . S
C1150 H1138 0.950 . S
C1150 C1149 1.398 . S
C1150 C1151 1.391 . S
C1151 H1139 0.950 . S
C1151 C1147 1.393 . S
C1151 C1150 1.391 . S
H1152 C1160 0.950 . S
H1153 C1165 0.950 . S
H1154 C1162 0.950 . S
H1155 C1164 0.950 . S
H1156 C1166 0.950 . S
H1157 C1168 0.950 . S
H1158 C1170 0.950 . S
H1159 C1171 0.950 . S
C1160 H1152 0.950 . S
C1160 C1161 1.386 . S
C1160 C1162 1.391 . S
C1161 C1160 1.386 . S
C1161 C1165 1.393 . S
C1162 H1154 0.950 . S
C1162 C1160 1.391 . S
C1162 C1163 1.400 . S
C1163 C1162 1.400 . S
C1163 C1164 1.398 . S
C1163 C1169 1.491 . S
C1164 H1155 0.950 . S
C1164 C1163 1.398 . S
C1164 C1165 1.391 . S
C1165 H1153 0.950 . S
C1165 C1161 1.393 . S
C1165 C1164 1.391 . S
C1166 H1156 0.950 . S
C1166 C1167 1.386 . S
C1166 C1168 1.391 . S
C1167 C1166 1.386 . S
C1167 C1171 1.393 . S
C1168 H1157 0.950 . S
C1168 C1166 1.391 . S
C1168 C1169 1.400 . S
C1169 C1163 1.491 . S
C1169 C1168 1.400 . S
C1169 C1170 1.398 . S
C1170 H1158 0.950 . S
C1170 C1169 1.398 . S
C1170 C1171 1.391 . S
C1171 H1159 0.950 . S
C1171 C1167 1.393 . S
C1171 C1170 1.391 . S
H1172 C1180 0.950 . S
H1173 C1185 0.950 . S
H1174 C1182 0.950 . S
H1175 C1184 0.950 . S
H1176 C1186 0.950 . S
H1177 C1188 0.950 . S
H1178 C1190 0.950 . S
H1179 C1191 0.950 . S
C1180 H1172 0.950 . S
C1180 C1181 1.386 . S
C1180 C1182 1.391 . S
C1181 C1180 1.386 . S
C1181 C1185 1.393 . S
C1182 H1174 0.950 . S
C1182 C1180 1.391 . S
C1182 C1183 1.400 . S
C1183 C1182 1.400 . S
C1183 C1184 1.398 . S
C1183 C1189 1.491 . S
C1184 H1175 0.950 . S
C1184 C1183 1.398 . S
C1184 C1185 1.391 . S
C1185 H1173 0.950 . S
C1185 C1181 1.393 . S
C1185 C1184 1.391 . S
C1186 H1176 0.950 . S
C1186 C1187 1.386 . S
C1186 C1188 1.391 . S
C1187 C1186 1.386 . S
C1187 C1191 1.393 . S
C1188 H1177 0.950 . S
C1188 C1186 1.391 . S
C1188 C1189 1.400 . S
C1189 C1183 1.491 . S
C1189 C1188 1.400 . S
C1189 C1190 1.398 . S
C1190 H1178 0.950 . S
C1190 C1189 1.398 . S
C1190 C1191 1.391 . S
C1191 H1179 0.950 . S
C1191 C1187 1.393 . S
C1191 C1190 1.391 . S
H1192 C1200 0.950 . S
H1193 C1205 0.950 . S
H1194 C1202 0.950 . S
H1195 C1204 0.950 . S
H1196 C1206 0.950 . S
H1197 C1208 0.950 . S
H1198 C1210 0.950 . S
H1199 C1211 0.950 . S
C1200 H1192 0.950 . S
C1200 C1201 1.386 . S
C1200 C1202 1.391 . S
C1201 C1200 1.386 . S
C1201 C1205 1.393 . S
C1202 H1194 0.950 . S
C1202 C1200 1.391 . S
C1202 C1203 1.400 . S
C1203 C1202 1.400 . S
C1203 C1204 1.398 . S
C1203 C1209 1.491 . S
C1204 H1195 0.950 . S
C1204 C1203 1.398 . S
C1204 C1205 1.391 . S
C1205 H1193 0.950 . S
C1205 C1201 1.393 . S
C1205 C1204 1.391 . S
C1206 H1196 0.950 . S
C1206 C1207 1.386 . S
C1206 C1208 1.391 . S
C1207 C1206 1.386 . S
C1207 C1211 1.393 . S
C1208 H1197 0.950 . S
C1208 C1206 1.391 . S
C1208 C1209 1.400 . S
C1209 C1203 1.491 . S
C1209 C1208 1.400 . S
C1209 C1210 1.398 . S
C1210 H1198 0.950 . S
C1210 C1209 1.398 . S
C1210 C1211 1.391 . S
C1211 H1199 0.950 . S
C1211 C1207 1.393 . S
C1211 C1210 1.391 . S
H1212 C1220 0.950 . S
H1213 C1225 0.950 . S
H1214 C1222 0.950 . S
H1215 C1224 0.950 . S
H1216 C1226 0.950 . S
H1217 C1228 0.950 . S
H1218 C1230 0.950 . S
H1219 C1231 0.950 . S
C1220 H1212 0.950 . S
C1220 C1221 1.386 . S
C1220 C1222 1.391 . S
C1221 C1220 1.386 . S
C1221 C1225 1.393 . S
C1222 H1214 0.950 . S
C1222 C1220 1.391 . S
C1222 C1223 1.400 . S
C1223 C1222 1.400 . S
C1223 C1224 1.398 . S
C1223 C1229 1.491 . S
C1224 H1215 0.950 . S
C1224 C1223 1.398 . S
C1224 C1225 1.391 . S
C1225 H1213 0.950 . S
C1225 C1221 1.393 . S
C1225 C1224 1.391 . S
C1226 H1216 0.950 . S
C1226 C1227 1.386 . S
C1226 C1228 1.391 . S
C1227 C1226 1.386 . S
C1227 C1231 1.393 . S
C1228 H1217 0.950 . S
C1228 C1226 1.391 . S
C1228 C1229 1.400 . S
C1229 C1223 1.491 . S
C1229 C1228 1.400 . S
C1229 C1230 1.398 . S
C1230 H1218 0.950 . S
C1230 C1229 1.398 . S
C1230 C1231 1.391 . S
C1231 H1219 0.950 . S
C1231 C1227 1.393 . S
C1231 C1230 1.391 . S
H1232 C1240 0.950 . S
H1233 C1245 0.950 . S
H1234 C1242 0.950 . S
H1235 C1244 0.950 . S
H1236 C1246 0.950 . S
H1237 C1248 0.950 . S
H1238 C1250 0.950 . S
H1239 C1251 0.950 . S
C1240 H1232 0.950 . S
C1240 C1241 1.386 . S
C1240 C1242 1.391 . S
C1241 C1240 1.386 . S
C1241 C1245 1.393 . S
C1242 H1234 0.950 . S
C1242 C1240 1.391 . S
C1242 C1243 1.400 . S
C1243 C1242 1.400 . S
C1243 C1244 1.398 . S
C1243 C1249 1.491 . S
C1244 H1235 0.950 . S
C1244 C1243 1.398 . S
C1244 C1245 1.391 . S
C1245 H1233 0.950 . S
C1245 C1241 1.393 . S
C1245 C1244 1.391 . S
C1246 H1236 0.950 . S
C1246 C1247 1.386 . S
C1246 C1248 1.391 . S
C1247 C1246 1.386 . S
C1247 C1251 1.393 . S
C1248 H1237 0.950 . S
C1248 C1246 1.391 . S
C1248 C1249 1.400 . S
C1249 C1243 1.491 . S
C1249 C1248 1.400 . S
C1249 C1250 1.398 . S
C1250 H1238 0.950 . S
C1250 C1249 1.398 . S
C1250 C1251 1.391 . S
C1251 H1239 0.950 . S
C1251 C1247 1.393 . S
C1251 C1250 1.391 . S
H1252 C1260 0.950 . S
H1253 C1265 0.950 . S
H1254 C1262 0.950 . S
H1255 C1264 0.950 . S
H1256 C1266 0.950 . S
H1257 C1268 0.950 . S
H1258 C1270 0.950 . S
H1259 C1271 0.950 . S
C1260 H1252 0.950 . S
C1260 C1261 1.386 . S
C1260 C1262 1.391 . S
C1261 C1260 1.386 . S
C1261 C1265 1.393 . S
C1262 H1254 0.950 . S
C1262 C1260 1.391 . S
C1262 C1263 1.400 . S
C1263 C1262 1.400 . S
C1263 C1264 1.398 . S
C1263 C1269 1.491 . S
C1264 H1255 0.950 . S
C1264 C1263 1.398 . S
C1264 C1265 1.391 . S
C1265 H1253 0.950 . S
C1265 C1261 1.393 . S
C1265 C1264 1.391 . S
C1266 H1256 0.950 . S
C1266 C1267 1.386 . S
C1266 C1268 1.391 . S
C1267 C1266 1.386 . S
C1267 C1271 1.393 . S
C1268 H1257 0.950 . S
C1268 C1266 1.391 . S
C1268 C1269 1.400 . S
C1269 C1263 1.491 . S
C1269 C1268 1.400 . S
C1269 C1270 1.398 . S
C1270 H1258 0.950 . S
C1270 C1269 1.398 . S
C1270 C1271 1.391 . S
C1271 H1259 0.950 . S
C1271 C1267 1.393 . S
C1271 C1270 1.391 . S
C321 C187 1.251 . S
C327 C8 1.261 . S
C341 C18 1.190 . S
C347 C195 1.199 . S
C361 C242 1.273 . S
C367 C36 1.302 . S
C381 C39 1.166 . S
C387 C169 1.192 . S
C401 C182 1.281 . S
C407 C62 1.319 . S
C421 C70 1.201 . S
C427 C200 1.196 . S
C441 C86 1.234 . S
C447 C244 1.259 . S
C461 C91 1.189 . S
C467 C174 1.168 . S
C481 C125 1.220 . S
C487 C112 1.257 . S
C501 C130 1.300 . S
C507 C127 1.322 . S
C521 C135 1.250 . S
C527 C151 1.259 . S
C541 C153 1.288 . S
C547 C114 1.288 . S
C561 C156 1.200 . S
C567 C44 1.214 . S
C581 C60 1.225 . S
C587 C218 1.262 . S
C601 C221 1.176 . S
C607 C13 1.180 . S
C621 C23 1.440 . S
C627 C278 1.395 . S
C641 C117 1.351 . S
C647 C5 1.377 . S
C661 C307 1.405 . S
C667 C47 1.405 . S
C681 C143 1.364 . S
C687 C26 1.365 . S
C701 C273 1.454 . S
C707 C99 1.456 . S
C721 C122 1.378 . S
C727 C83 1.359 . S
C741 C75 1.439 . S
C747 C309 1.434 . S
C761 C52 1.354 . S
C767 C148 1.373 . S
C781 C205 1.441 . S
C787 C257 1.437 . S
C801 C213 1.498 . S
C807 C203 1.495 . S
C821 C179 1.411 . S
C827 C208 1.356 . S
C841 C255 1.398 . S
C847 C177 1.399 . S
C861 C31 1.375 . S
C867 C260 1.348 . S
C881 C140 1.434 . S
C887 C101 1.440 . S
C901 C0 1.358 . S
C907 C286 1.357 . S
C921 C252 1.267 . S
C927 C34 1.273 . S
C941 C10 1.303 . S
C947 C216 1.282 . S
C961 C247 1.276 . S
C967 C88 1.318 . S
C981 C161 1.208 . S
C987 C96 1.222 . S
C1001 C65 1.190 . S
C1007 C226 1.197 . S
C1021 C281 1.257 . S
C1027 C268 1.220 . S
C1041 C299 1.278 . S
C1047 C270 1.321 . S
C1061 C294 1.253 . S
C1067 C304 1.261 . S
C1081 C283 1.284 . S
C1087 C296 1.286 . S
C1101 C109 1.387 . S
C1107 C49 1.440 . S
C1121 C21 1.395 . S
C1127 C138 1.397 . S
C1141 C73 1.463 . S
C1147 C104 1.462 . S
C1161 C265 1.364 . S
C1167 C57 1.381 . S
C1181 C78 1.361 . S
C1187 C291 1.372 . S
C1201 C166 1.441 . S
C1207 C192 1.440 . S
C1221 C239 1.514 . S
C1227 C164 1.486 . S
C1241 C231 1.409 . S
C1247 C234 1.346 . S
C1261 C190 1.405 . S
C1267 C229 1.406 . S
