# Generated by pormake.
# Topology smc, (6)-cn, num edge types: 1
# Building blocks:
#     Node 0, Type 0, BuildingBlock: KUMBUR_clean_sbu_1, # of connection points: 6
#     Node 1, Type 0, BuildingBlock: KUMBUR_clean_sbu_1, # of connection points: 6
#     Node 2, Type 0, BuildingBlock: KUMBUR_clean_sbu_1, # of connection points: 6
#     Node 3, Type 0, BuildingBlock: KUMBUR_clean_sbu_1, # of connection points: 6
#     Node 4, Type 0, BuildingBlock: KUMBUR_clean_sbu_1, # of connection points: 6
#     Node 5, Type 0, BuildingBlock: KUMBUR_clean_sbu_1, # of connection points: 6
#     Node 6, Type 0, BuildingBlock: KUMBUR_clean_sbu_1, # of connection points: 6
#     Node 7, Type 0, BuildingBlock: KUMBUR_clean_sbu_1, # of connection points: 6
#     Node 8, Type 0, BuildingBlock: KUMBUR_clean_sbu_1, # of connection points: 6
#     Edge 9, Type (0, 0), BuildingBlock: ZUJKAS_clean_linker_0, # of connection points: 2
#     Edge 10, Type (0, 0), BuildingBlock: ZUJKAS_clean_linker_0, # of connection points: 2
#     Edge 11, Type (0, 0), BuildingBlock: ZUJKAS_clean_linker_0, # of connection points: 2
#     Edge 12, Type (0, 0), BuildingBlock: ZUJKAS_clean_linker_0, # of connection points: 2
#     Edge 13, Type (0, 0), BuildingBlock: ZUJKAS_clean_linker_0, # of connection points: 2
#     Edge 14, Type (0, 0), BuildingBlock: ZUJKAS_clean_linker_0, # of connection points: 2
#     Edge 15, Type (0, 0), BuildingBlock: ZUJKAS_clean_linker_0, # of connection points: 2
#     Edge 16, Type (0, 0), BuildingBlock: ZUJKAS_clean_linker_0, # of connection points: 2
#     Edge 17, Type (0, 0), BuildingBlock: ZUJKAS_clean_linker_0, # of connection points: 2
#     Edge 18, Type (0, 0), BuildingBlock: ZUJKAS_clean_linker_0, # of connection points: 2
#     Edge 19, Type (0, 0), BuildingBlock: ZUJKAS_clean_linker_0, # of connection points: 2
#     Edge 20, Type (0, 0), BuildingBlock: ZUJKAS_clean_linker_0, # of connection points: 2
#     Edge 21, Type (0, 0), BuildingBlock: ZUJKAS_clean_linker_0, # of connection points: 2
#     Edge 22, Type (0, 0), BuildingBlock: ZUJKAS_clean_linker_0, # of connection points: 2
#     Edge 23, Type (0, 0), BuildingBlock: ZUJKAS_clean_linker_0, # of connection points: 2
#     Edge 24, Type (0, 0), BuildingBlock: ZUJKAS_clean_linker_0, # of connection points: 2
#     Edge 25, Type (0, 0), BuildingBlock: ZUJKAS_clean_linker_0, # of connection points: 2
#     Edge 26, Type (0, 0), BuildingBlock: ZUJKAS_clean_linker_0, # of connection points: 2
#     Edge 27, Type (0, 0), BuildingBlock: ZUJKAS_clean_linker_0, # of connection points: 2
#     Edge 28, Type (0, 0), BuildingBlock: ZUJKAS_clean_linker_0, # of connection points: 2
#     Edge 29, Type (0, 0), BuildingBlock: ZUJKAS_clean_linker_0, # of connection points: 2
#     Edge 30, Type (0, 0), BuildingBlock: ZUJKAS_clean_linker_0, # of connection points: 2
#     Edge 31, Type (0, 0), BuildingBlock: ZUJKAS_clean_linker_0, # of connection points: 2
#     Edge 32, Type (0, 0), BuildingBlock: ZUJKAS_clean_linker_0, # of connection points: 2
#     Edge 33, Type (0, 0), BuildingBlock: ZUJKAS_clean_linker_0, # of connection points: 2
#     Edge 34, Type (0, 0), BuildingBlock: ZUJKAS_clean_linker_0, # of connection points: 2
#     Edge 35, Type (0, 0), BuildingBlock: ZUJKAS_clean_linker_0, # of connection points: 2
# Relax obj value: 0.161
# Max RMSD: 0.301
# Mean RMSD: 0.301
data_MOF--net-smc--node1-KUMBUR_clean_sbu_1--edge1-ZUJKAS_clean_linker_0
_symmetry_space_group_name_H-M    P1
_symmetry_Int_Tables_number       1
_symmetry_cell_setting            triclinic
loop_
_symmetry_equiv_pos_as_xyz
'x, y, z'
_cell_length_a     46.636896
_cell_length_b     46.678412
_cell_length_c     52.271398
_cell_angle_alpha  90.100521
_cell_angle_beta   89.903869
_cell_angle_gamma 119.97668
loop_
_atom_site_label
_atom_site_type_symbol
_atom_site_fract_x
_atom_site_fract_y
_atom_site_fract_z
_atom_type_partial_charge
Tb0 Tb 0.04591 0.42932 1.00616 0.0
C1 C 0.03626 0.5486 0.03325 0.0
N2 N 0.02494 0.52245 0.04941 0.0
C3 C 0.05182 0.55889 0.08476 0.0
C4 C 0.05651 0.58116 0.04223 0.0
C5 C 0.03197 0.52703 0.07494 0.0
C6 C 0.06423 0.58609 0.06833 0.0
C7 C 0.03946 0.56918 0.99025 0.0
C8 C 0.02797 0.54248 1.00755 0.0
C9 C 0.06012 0.60164 0.999 0.0
C10 C 0.06857 0.60762 0.02493 0.0
Tb11 Tb 0.99163 0.47182 0.03192 0.0
N12 N 1.00774 0.51066 0.99975 0.0
C13 C 0.02901 0.56261 0.96481 0.0
C14 C 0.99477 0.50487 0.97555 0.0
C15 C 1.00604 0.5304 0.95758 0.0
H16 H 0.02232 0.50602 0.08768 0.0
H17 H 0.99623 0.52533 0.93831 0.0
H18 H 0.06434 0.45314 0.94627 0.0
H19 H 1.00947 0.31197 0.05109 0.0
H20 H 0.97473 0.48109 0.96987 0.0
H21 H 0.0373 0.5824 0.95092 0.0
H22 H 0.03171 0.37247 0.04975 0.0
H23 H 0.05754 0.56246 0.10497 0.0
H24 H 0.06927 0.62237 0.98592 0.0
H25 H 0.08435 0.63281 0.03142 0.0
H26 H 0.0573 0.42691 0.9037 0.0
H27 H 0.07977 0.61073 0.07595 0.0
H28 H 0.99321 0.2795 1.01088 0.0
N29 N 0.04055 0.40741 0.9662 0.0
C30 C 0.02668 0.37414 0.96467 0.0
C31 C 0.04839 0.41174 0.9207 0.0
C32 C 0.02193 0.35803 0.94094 0.0
C33 C 0.05223 0.42649 0.94476 0.0
C34 C 0.03257 0.37729 0.91873 0.0
N35 N 0.02665 0.37376 1.0094 0.0
C36 C 0.02453 0.3584 0.03218 0.0
C37 C 1.00707 0.32223 0.98687 0.0
C38 C 0.0195 0.35661 0.98716 0.0
C39 C 1.00273 0.30594 1.01024 0.0
C40 C 1.01194 0.3242 0.03297 0.0
H41 H 0.02945 0.36592 0.90009 0.0
H42 H 1.00374 0.31053 0.92228 0.0
H43 H 0.99062 0.27908 0.96261 0.0
O44 O 0.0882 0.44511 0.02966 0.0
O45 O 0.99483 0.39216 0.01779 0.0
O46 O 0.96555 0.41796 0.03282 0.0
O47 O 0.0906 0.43906 0.98922 0.0
O48 O 0.04164 0.43225 0.04787 0.0
O49 O 1.00655 0.45115 0.06385 0.0
O50 O 0.95294 0.48238 0.02628 0.0
O51 O 0.04533 0.49369 0.03702 0.0
O52 O 0.05887 0.4805 0.99906 0.0
O53 O 0.96031 0.46677 0.06277 0.0
O54 O 0.97414 0.4408 0.99711 0.0
O55 O 0.02505 0.45339 0.98347 0.0
C56 C 0.96848 0.39171 0.02792 0.0
C57 C 0.1274 0.43066 1.01397 0.0
C58 C 0.18301 0.43706 1.01517 0.0
C59 C 0.16816 0.40247 1.01204 0.0
C60 C 0.11355 0.3964 1.01134 0.0
C61 C 0.13383 0.38243 1.01058 0.0
C62 C 0.16196 0.45079 1.0164 0.0
C63 C 0.02677 0.43893 0.06672 0.0
C64 C 0.10672 0.44606 1.01062 0.0
C65 C 1.00796 0.32348 0.94033 0.0
C66 C 1.00051 0.30558 0.96329 0.0
C67 C 0.06657 0.50089 0.01837 0.0
C68 C 0.9396 0.50432 0.06244 0.0
C69 C 0.91307 0.5385 0.06358 0.0
C70 C 0.9309 0.55368 0.08601 0.0
C71 C 0.95624 0.51943 0.08527 0.0
C72 C 0.91764 0.51373 0.05182 0.0
C73 C 0.95218 0.54414 0.09672 0.0
C74 C 0.99311 0.43831 0.97967 0.0
C75 C 0.94415 0.4781 0.05013 0.0
H76 H 0.18283 0.39057 1.00996 0.0
H77 H 0.0872 0.38054 1.00892 0.0
H78 H 0.12295 0.35599 1.00804 0.0
H79 H 0.17218 0.47717 0.01872 0.0
H80 H 0.92767 0.57235 0.09578 0.0
H81 H 0.97212 0.51195 0.09456 0.0
H82 H 0.9042 0.50184 0.03448 0.0
H83 H 0.96525 0.55563 0.11424 0.0
Tb84 Tb 0.60623 0.63744 1.00003 0.0
C85 C 0.48613 0.51198 0.02565 0.0
N86 N 0.5118 0.52643 0.04233 0.0
C87 C 0.47448 0.51838 0.07671 0.0
C88 C 0.45344 0.501 0.03382 0.0
C89 C 0.50648 0.52882 0.06774 0.0
C90 C 0.44786 0.50463 0.05965 0.0
C91 C 0.4666 0.49365 0.98249 0.0
C92 C 0.49286 0.50879 1.00021 0.0
C93 C 0.43401 0.48307 0.99047 0.0
C94 C 0.42746 0.48679 1.01605 0.0
Tb95 Tb 0.56259 0.54179 0.02598 0.0
N96 N 0.52484 0.51961 0.99305 0.0
C97 C 0.47373 0.48899 0.95737 0.0
C98 C 0.53113 0.51188 0.96916 0.0
C99 C 0.50603 0.49759 0.95083 0.0
H100 H 0.52699 0.53913 0.081 0.0
H101 H 0.51147 0.49235 0.93183 0.0
H102 H 0.57977 0.63096 0.94081 0.0
H103 H 0.72521 0.72099 0.04173 0.0
H104 H 0.55494 0.51517 0.96407 0.0
H105 H 0.45429 0.47756 0.94318 0.0
H106 H 0.66447 0.68335 0.04197 0.0
H107 H 0.47033 0.52082 0.09678 0.0
H108 H 0.41365 0.47172 0.97703 0.0
H109 H 0.4022 0.47841 0.02191 0.0
H110 H 0.60434 0.64823 0.8976 0.0
H111 H 0.42311 0.49657 0.06666 0.0
H112 H 0.75625 0.73402 1.0009 0.0
N113 N 0.62631 0.65232 0.95956 0.0
C114 C 0.65961 0.67106 0.95723 0.0
C115 C 0.6202 0.65469 0.91422 0.0
C116 C 0.6748 0.68141 0.9331 0.0
C117 C 0.60635 0.64494 0.93866 0.0
C118 C 0.65462 0.67242 0.91136 0.0
N119 N 0.66178 0.67398 1.00196 0.0
C120 C 0.67796 0.68884 0.02413 0.0
C121 C 0.71252 0.704 0.9781 0.0
C122 C 0.67809 0.6823 0.9793 0.0
C123 C 0.72974 0.71729 1.00096 0.0
C124 C 0.71228 0.71008 0.02405 0.0
H125 H 0.66529 0.67985 0.89243 0.0
H126 H 0.72163 0.70961 0.91325 0.0
H127 H 0.75476 0.72918 0.95273 0.0
O128 O 0.57993 0.65575 0.02092 0.0
O129 O 0.64217 0.62381 1.01529 0.0
O130 O 0.61669 0.56734 0.0268 0.0
O131 O 0.6072 0.68066 0.98725 0.0
O132 O 0.60514 0.63154 0.04172 0.0
O133 O 0.58188 0.57721 0.05816 0.0
O134 O 0.54488 0.49082 0.02178 0.0
O135 O 0.54205 0.57491 0.02943 0.0
O136 O 0.55602 0.59906 0.9907 0.0
O137 O 0.56686 0.51514 0.05698 0.0
O138 O 0.59504 0.55421 0.99202 0.0
O139 O 0.58417 0.59305 0.97657 0.0
C140 C 0.64275 0.59733 0.02389 0.0
C141 C 0.55653 0.67917 0.9939 0.0
C142 C 0.51994 0.70273 0.99232 0.0
C143 C 0.4998 0.67807 0.97465 0.0
C144 C 0.53655 0.65567 0.97555 0.0
C145 C 0.50817 0.65486 0.96629 0.0
C146 C 0.54837 0.70304 1.00205 0.0
C147 C 0.59623 0.60991 0.06074 0.0
C148 C 0.58582 0.67868 1.00417 0.0
C149 C 0.70939 0.70161 0.93163 0.0
C150 C 0.72825 0.71278 0.95411 0.0
C151 C 0.53491 0.58712 1.00957 0.0
C152 C 0.56912 0.46648 0.04636 0.0
C153 C 0.56293 0.41103 0.04529 0.0
C154 C 0.59721 0.42566 0.04978 0.0
C155 C 0.60319 0.48031 0.05043 0.0
C156 C 0.54914 0.43189 0.0437 0.0
C157 C 0.61708 0.45995 0.05221 0.0
C158 C 0.59906 0.57576 0.97417 0.0
C159 C 0.55366 0.48733 0.0445 0.0
H160 H 0.47802 0.67734 0.96665 0.0
H161 H 0.54282 0.63786 0.96828 0.0
H162 H 0.49279 0.63635 0.95235 0.0
H163 H 0.56398 0.72165 1.01588 0.0
H164 H 0.60876 0.41061 0.05172 0.0
H165 H 0.61901 0.50677 0.05227 0.0
H166 H 0.52292 0.4214 0.04 0.0
H167 H 0.64338 0.47079 0.05557 0.0
Tb168 Tb 0.39296 0.98724 1.00614 0.0
C169 C 0.52284 0.99519 0.02011 0.0
N170 N 0.51146 1.00809 0.03804 0.0
C171 C 0.52924 0.98568 0.07157 0.0
C172 C 0.53714 0.97603 0.02728 0.0
C173 C 0.51507 1.00436 0.0635 0.0
C174 C 0.54033 0.97146 0.05339 0.0
C175 C 0.53339 0.98974 0.9755 0.0
C176 C 0.52097 1.00214 0.99455 0.0
C177 C 0.54624 0.96931 0.98243 0.0
C178 C 0.54843 0.96276 1.00826 0.0
Tb179 Tb 0.49168 0.04051 0.02345 0.0
N180 N 0.50923 0.02287 0.9886 0.0
C181 C 0.53415 0.99962 0.95018 0.0
C182 C 0.51425 0.0358 0.96442 0.0
C183 C 0.52533 0.0234 0.94475 0.0
H184 H 0.50726 0.01608 0.07754 0.0
H185 H 0.52818 0.03309 0.92553 0.0
H186 H 0.39559 0.95914 0.94898 0.0
H187 H 0.31137 0.02702 0.04514 0.0
H188 H 0.51127 0.05666 0.96004 0.0
H189 H 0.54343 0.99061 0.93499 0.0
H190 H 0.35017 1.00544 0.04678 0.0
H191 H 0.53199 0.98262 0.09177 0.0
H192 H 0.55568 0.95944 0.96801 0.0
H193 H 0.55947 0.9479 1.01333 0.0
H194 H 0.37378 0.95843 0.90569 0.0
H195 H 0.55183 0.95749 0.05974 0.0
H196 H 0.29317 0.0369 1.00321 0.0
N197 N 0.37378 0.98526 0.96569 0.0
C198 C 0.35363 0.99803 0.96224 0.0
C199 C 0.36816 0.96994 0.92141 0.0
C200 C 0.34066 0.99832 0.93802 0.0
C201 C 0.38057 0.97049 0.94587 0.0
C202 C 0.34835 0.98421 0.91741 0.0
N203 N 0.35526 1.00498 1.00651 0.0
C204 C 0.34263 0.01005 0.02853 0.0
C205 C 0.32167 0.02023 0.98144 0.0
C206 C 0.3442 1.00857 0.98351 0.0
C207 C 0.31047 0.02782 1.00391 0.0
C208 C 0.32062 0.0222 0.02761 0.0
H209 H 0.3385 0.98352 0.89852 0.0
H210 H 0.30966 0.01245 0.91691 0.0
H211 H 0.29306 0.03181 0.95507 0.0
O212 O 0.38011 0.94723 0.03108 0.0
O213 O 0.40845 0.03839 0.01894 0.0
O214 O 0.46626 0.06899 0.02599 0.0
O215 O 0.34936 0.94215 0.99881 0.0
O216 O 0.4038 1.00038 0.04673 0.0
O217 O 0.46022 0.0234 0.05816 0.0
O218 O 0.54242 0.07286 1.0168 0.0
O219 O 0.45968 0.98753 0.03102 0.0
O220 O 0.42924 0.97291 0.99486 0.0
O221 O 0.52041 0.07497 0.05208 0.0
O222 O 0.47489 0.05766 0.99018 0.0
O223 O 0.43417 1.00667 0.97962 0.0
C224 C 0.43635 0.0657 0.02528 0.0
C225 C 0.32351 0.90611 0.03364 0.0
C226 C 0.27782 0.8504 0.0429 0.0
C227 C 0.26725 0.86388 0.06241 0.0
C228 C 0.31262 0.91897 0.05318 0.0
C229 C 0.28456 0.89787 0.06745 0.0
C230 C 0.3061 0.87195 0.02855 0.0
C231 C 0.4282 0.01061 0.06363 0.0
C232 C 0.35327 0.92751 0.01852 0.0
C233 C 0.31956 0.01155 0.93544 0.0
C234 C 0.31013 0.02259 0.95715 0.0
C235 C 0.44452 0.96607 1.01273 0.0
C236 C 0.56852 0.1241 0.03798 0.0
C237 C 0.62426 0.17276 0.03548 0.0
C238 C 0.60984 0.19301 0.03707 0.0
C239 C 0.55487 0.14485 0.03894 0.0
C240 C 0.60312 0.13811 0.03605 0.0
C241 C 0.57549 0.17912 0.03863 0.0
C242 C 0.45055 0.03827 0.97479 0.0
C243 C 0.54742 0.08778 0.03859 0.0
H244 H 0.24538 0.84821 0.07362 0.0
H245 H 0.32586 0.94518 0.05744 0.0
H246 H 0.27616 0.90789 0.08251 0.0
H247 H 0.31503 0.86212 1.0137 0.0
H248 H 0.62505 0.21969 0.03737 0.0
H249 H 0.52838 0.13459 0.03993 0.0
H250 H 0.61339 0.12186 0.0346 0.0
H251 H 0.56481 0.19503 0.03966 0.0
Tb252 Tb 0.7158 0.7659 0.33708 0.0
C253 C 0.70585 0.88569 0.35746 0.0
N254 N 0.6945 0.86043 0.37449 0.0
C255 C 0.71846 0.89878 0.40917 0.0
C256 C 0.72473 0.91878 0.36568 0.0
C257 C 0.69968 0.86637 0.40012 0.0
C258 C 0.73109 0.9251 0.39188 0.0
C259 C 0.70845 0.90415 0.31378 0.0
C260 C 0.69768 0.87827 0.33181 0.0
C261 C 0.72827 0.9371 0.32173 0.0
C262 C 0.736 0.94441 0.34763 0.0
Tb263 Tb 0.66175 0.80904 0.35835 0.0
N264 N 0.67736 0.84608 0.3249 0.0
C265 C 0.6975 0.89634 0.28853 0.0
C266 C 0.66337 0.83927 0.30102 0.0
C267 C 0.67424 0.86386 0.28229 0.0
H268 H 0.68926 0.84606 0.41354 0.0
H269 H 0.66372 0.85791 0.26326 0.0
H270 H 0.74403 0.79869 0.28073 0.0
H271 H 0.67493 0.6431 0.37331 0.0
H272 H 0.64275 0.81541 0.29622 0.0
H273 H 0.70526 0.91547 0.27411 0.0
H274 H 0.69539 0.70311 0.37659 0.0
H275 H 0.72285 0.90347 0.42947 0.0
H276 H 0.73673 0.9572 0.30811 0.0
H277 H 0.7502 0.97004 0.35354 0.0
H278 H 0.74646 0.77943 0.23708 0.0
H279 H 0.74525 0.9502 0.39901 0.0
H280 H 0.66726 0.61692 0.33072 0.0
N281 N 0.71837 0.7502 0.2963 0.0
C282 C 0.70628 0.71753 0.29216 0.0
C283 C 0.73463 0.76167 0.25233 0.0
C284 C 0.70666 0.70525 0.26762 0.0
C285 C 0.73315 0.7725 0.27699 0.0
C286 C 0.72082 0.72781 0.2475 0.0
N287 N 0.69811 0.71049 0.33634 0.0
C288 C 0.69216 0.69189 0.35796 0.0
C289 C 0.68426 0.66282 0.31009 0.0
C290 C 0.6955 0.69681 0.31299 0.0
C291 C 0.67606 0.64318 0.33208 0.0
C292 C 0.68046 0.6579 0.35616 0.0
H293 H 0.72193 0.71946 0.22837 0.0
H294 H 0.69365 0.66108 0.24549 0.0
H295 H 0.67386 0.62378 0.28278 0.0
O296 O 0.75579 0.79114 0.36254 0.0
O297 O 0.66439 0.72901 0.34823 0.0
O298 O 0.63347 0.75507 0.35824 0.0
O299 O 0.76126 0.76915 0.32801 0.0
O300 O 0.70416 0.76274 0.37795 0.0
O301 O 0.6775 0.79168 0.39198 0.0
O302 O 0.62915 0.8275 0.35401 0.0
O303 O 0.7152 0.83048 0.36484 0.0
O304 O 0.72917 0.81659 0.32746 0.0
O305 O 0.6271 0.80075 0.38765 0.0
O306 O 0.6453 0.77762 0.32351 0.0
O307 O 0.69653 0.78915 0.31193 0.0
C308 C 0.63694 0.72873 0.35555 0.0
C309 C 0.79722 0.7759 0.36192 0.0
C310 C 0.85311 0.7858 0.37003 0.0
C311 C 0.83951 0.75811 0.38633 0.0
C312 C 0.78416 0.74825 0.37801 0.0
C313 C 0.8053 0.73953 0.39025 0.0
C314 C 0.83158 0.79454 0.35796 0.0
C315 C 0.69227 0.77396 0.396 0.0
C316 C 0.77574 0.78567 0.34859 0.0
C317 C 0.694 0.67114 0.26426 0.0
C318 C 0.68273 0.64991 0.28549 0.0
C319 C 0.7362 0.83798 0.34596 0.0
C320 C 0.57759 0.79933 0.37419 0.0
C321 C 0.52799 0.80465 0.37193 0.0
C322 C 0.50871 0.77007 0.36924 0.0
C323 C 0.55794 0.76506 0.37095 0.0
C324 C 0.56254 0.81901 0.3747 0.0
C325 C 0.52364 0.7505 0.36877 0.0
C326 C 0.66494 0.77444 0.30708 0.0
C327 C 0.61395 0.81553 0.37541 0.0
H328 H 0.85524 0.75041 0.3957 0.0
H329 H 0.75775 0.73342 0.381 0.0
H330 H 0.79511 0.71813 0.40267 0.0
H331 H 0.84152 0.81602 0.34558 0.0
H332 H 0.48205 0.75809 0.36747 0.0
H333 H 0.56914 0.74969 0.36976 0.0
H334 H 0.57792 0.84563 0.37639 0.0
H335 H 0.50857 0.72397 0.36641 0.0
Tb336 Tb 0.2738 0.97243 0.33771 0.0
C337 C 0.15046 0.8448 0.35692 0.0
N338 N 0.1758 0.85663 0.37387 0.0
C339 C 0.13797 0.84384 0.40877 0.0
C340 C 0.11765 0.83277 0.36527 0.0
C341 C 0.17009 0.8555 0.39956 0.0
C342 C 0.11164 0.83264 0.39154 0.0
C343 C 0.13163 0.83207 0.31308 0.0
C344 C 0.15756 0.84467 0.33117 0.0
C345 C 0.099 0.82098 0.32118 0.0
C346 C 0.09201 0.82123 0.34723 0.0
Tb347 Tb 0.22699 0.8743 0.35748 0.0
N348 N 0.18946 0.85513 0.3241 0.0
C349 C 0.13902 0.82971 0.28754 0.0
C350 C 0.19574 0.84907 0.29965 0.0
C351 C 0.17108 0.83757 0.28091 0.0
H352 H 0.1904 0.86383 0.41289 0.0
H353 H 0.17662 0.83381 0.26149 0.0
H354 H 0.24135 0.97039 0.2815 0.0
H355 H 0.39793 0.05149 0.3727 0.0
H356 H 0.2192 0.85169 0.29423 0.0
H357 H 0.11985 0.82024 0.27305 0.0
H358 H 0.3373 0.01494 0.37643 0.0
H359 H 0.13353 0.84343 0.42913 0.0
H360 H 0.07887 0.81142 0.30751 0.0
H361 H 0.06666 0.8121 0.35324 0.0
H362 H 0.26108 0.98832 0.23717 0.0
H363 H 0.08678 0.82369 0.39871 0.0
H364 H 0.42425 0.06594 0.3299 0.0
N365 N 0.28975 0.98915 0.29659 0.0
C366 C 0.32268 1.00707 0.29206 0.0
C367 C 0.2787 0.99361 0.25242 0.0
C368 C 0.33518 0.01814 0.26729 0.0
C369 C 0.26761 0.98338 0.27746 0.0
C370 C 0.31267 0.01053 0.24721 0.0
N371 N 0.32975 1.00781 0.33632 0.0
C372 C 0.34863 0.02117 0.35773 0.0
C373 C 0.37788 0.03782 0.30961 0.0
C374 C 0.34356 0.01678 0.31279 0.0
C375 C 0.39773 0.04972 0.33148 0.0
C376 C 0.38295 0.04174 0.35566 0.0
H377 H 0.32122 0.01848 0.22784 0.0
H378 H 0.37975 0.04633 0.24476 0.0
H379 H 0.41727 0.06337 0.28189 0.0
O380 O 0.24831 0.98792 0.36226 0.0
O381 O 0.30836 0.95595 0.35143 0.0
O382 O 0.28058 0.89771 0.35426 0.0
O383 O 0.27503 0.01722 0.32969 0.0
O384 O 0.27608 0.96306 0.37848 0.0
O385 O 0.24534 0.90712 0.39143 0.0
O386 O 0.20813 0.82313 0.35282 0.0
O387 O 0.20847 0.90839 0.36503 0.0
O388 O 0.22236 0.93718 0.3281 0.0
O389 O 0.23455 0.84775 0.38675 0.0
O390 O 0.25838 0.88883 0.32274 0.0
O391 O 0.24921 0.93032 0.31211 0.0
C392 C 0.30751 0.92729 0.35458 0.0
C393 C 0.26599 0.04497 0.36383 0.0
C394 C 0.25517 0.08982 0.37429 0.0
C395 C 0.28186 0.10245 0.39159 0.0
C396 C 0.29255 0.05801 0.38101 0.0
C397 C 0.30036 0.08661 0.39487 0.0
C398 C 0.24743 0.06088 0.36052 0.0
C399 C 0.26374 0.93944 0.39607 0.0
C400 C 0.25664 0.01466 0.34923 0.0
C401 C 0.36956 0.03768 0.26367 0.0
C402 C 0.39092 0.04743 0.28481 0.0
C403 C 0.20111 0.92256 0.34665 0.0
C404 C 0.23792 0.80099 0.37271 0.0
C405 C 0.23533 0.74738 0.36804 0.0
C406 C 0.27011 0.76386 0.37005 0.0
C407 C 0.27253 0.81673 0.37437 0.0
C408 C 0.21948 0.76641 0.36942 0.0
C409 C 0.28845 0.79819 0.37305 0.0
C410 C 0.26289 0.91254 0.30685 0.0
C411 C 0.22049 0.82006 0.37411 0.0
H412 H 0.28881 0.12488 0.40228 0.0
H413 H 0.30715 0.04611 0.38369 0.0
H414 H 0.32091 0.09664 0.40814 0.0
H415 H 0.22665 0.05038 0.34741 0.0
H416 H 0.28327 0.75024 0.36969 0.0
H417 H 0.28724 0.84328 0.37678 0.0
H418 H 0.19281 0.7545 0.36763 0.0
H419 H 0.31515 0.81047 0.37452 0.0
Tb420 Tb 0.05624 0.31744 0.34666 0.0
C421 C 0.18296 0.32867 0.3861 0.0
N422 N 0.16508 0.3423 0.39517 0.0
C423 C 0.16654 0.3224 0.43733 0.0
C424 C 0.19256 0.31066 0.40217 0.0
C425 C 0.15882 0.34116 0.42087 0.0
C426 C 0.18305 0.30664 0.42787 0.0
C427 C 0.2148 0.32389 0.35131 0.0
C428 C 0.19398 0.3351 0.36108 0.0
C429 C 0.2241 0.30565 0.36717 0.0
C430 C 0.21263 0.29865 0.39243 0.0
Tb431 Tb 0.15476 0.37322 0.36615 0.0
N432 N 0.18477 0.35313 0.34645 0.0
C433 C 0.22616 0.33199 0.32609 0.0
C434 C 0.19669 0.36212 0.32213 0.0
C435 C 0.21712 0.35125 0.31146 0.0
H436 H 0.14895 0.35554 0.42925 0.0
H437 H 0.22618 0.35803 0.29208 0.0
H438 H 0.04716 0.35274 0.29527 0.0
H439 H 0.97891 0.27263 0.43109 0.0
H440 H 0.19018 0.37754 0.311 0.0
H441 H 0.24225 0.32386 0.31786 0.0
H442 H 0.01598 0.27204 0.39756 0.0
H443 H 0.16072 0.32104 0.4575 0.0
H444 H 0.24046 0.29715 0.36019 0.0
H445 H 0.22026 0.28481 0.4045 0.0
H446 H 0.01979 0.3846 0.28338 0.0
H447 H 0.18976 0.29284 0.4408 0.0
H448 H 0.95657 0.31068 0.42734 0.0
N449 N 0.03045 0.34566 0.33374 0.0
C450 C 1.01014 0.34838 0.3509 0.0
C451 C 0.01714 0.37485 0.30255 0.0
C452 C 0.99376 0.36601 0.34511 0.0
C453 C 0.03278 0.35702 0.30932 0.0
C454 C 0.99801 0.37991 0.32069 0.0
N455 N 0.01838 0.31247 0.37701 0.0
C456 C 1.00786 0.28999 0.39649 0.0
C457 C 0.98178 0.3317 0.39155 0.0
C458 C 1.00432 0.33154 0.37364 0.0
C459 C 0.9737 0.31125 0.41304 0.0
C460 C 0.98626 0.28975 0.41523 0.0
H461 H 0.98581 0.39361 0.31541 0.0
H462 H 0.96027 0.38181 0.35959 0.0
H463 H 0.94978 0.35172 0.40038 0.0
O464 O 1.01285 0.27064 0.34272 0.0
O465 O 0.07773 0.3722 0.34748 0.0
O466 O 0.11847 0.38738 0.37739 0.0
O467 O 0.04425 0.29452 0.31065 0.0
O468 O 0.07307 0.30911 0.38385 0.0
O469 O 0.11669 0.35957 0.39679 0.0
O470 O 0.19539 0.41818 0.35246 0.0
O471 O 0.13519 0.32706 0.34401 0.0
O472 O 0.08344 0.29324 0.36055 0.0
O473 O 0.18955 0.40692 0.39219 0.0
O474 O 0.14107 0.38696 0.32927 0.0
O475 O 0.09628 0.33652 0.31817 0.0
C476 C 0.10111 0.39495 0.36208 0.0
C477 C 0.02173 0.23659 0.31369 0.0
C478 C 0.99796 0.17633 0.31576 0.0
C479 C 0.02646 0.17992 0.3035 0.0
C480 C 0.04986 0.23913 0.30151 0.0
C481 C 0.0521 0.21102 0.29649 0.0
C482 C 0.99568 0.20496 0.32067 0.0
C483 C 0.08975 0.33085 0.40187 0.0
C484 C 0.02007 0.26694 0.3194 0.0
C485 C 0.97282 0.36804 0.36349 0.0
C486 C 0.96689 0.35095 0.38673 0.0
C487 C 0.11168 0.2978 0.35135 0.0
C488 C 0.24415 0.43138 0.37637 0.0
C489 C 0.3037 0.46293 0.36702 0.0
C490 C 0.30761 0.43833 0.37924 0.0
C491 C 0.24959 0.40828 0.38961 0.0
C492 C 0.27172 0.45935 0.36544 0.0
C493 C 0.28079 0.41137 0.39058 0.0
C494 C 0.11774 0.36757 0.31276 0.0
C495 C 0.20981 0.42588 0.37467 0.0
H496 H 0.02879 0.15854 0.29891 0.0
H497 H 0.07036 0.26291 0.29587 0.0
H498 H 0.07384 0.21335 0.28705 0.0
H499 H 0.97403 0.20276 0.33023 0.0
H500 H 0.33183 0.4406 0.38084 0.0
H501 H 0.22984 0.38785 0.39969 0.0
H502 H 0.26838 0.47808 0.35591 0.0
H503 H 0.28428 0.39306 0.40059 0.0
Tb504 Tb 0.38087 0.09565 0.68444 0.0
C505 C 0.36899 0.21755 0.69505 0.0
N506 N 0.35885 0.19021 0.71 0.0
C507 C 0.38354 0.22509 0.74669 0.0
C508 C 0.38747 0.24969 0.70534 0.0
C509 C 0.36478 0.19371 0.73577 0.0
C510 C 0.39506 0.25317 0.73142 0.0
C511 C 0.36998 0.241 0.65329 0.0
C512 C 0.36019 0.21338 0.66931 0.0
C513 C 0.38866 0.27298 0.66348 0.0
C514 C 0.39728 0.2773 0.68942 0.0
Tb515 Tb 0.32562 0.14114 0.6893 0.0
N516 N 0.34281 0.18211 0.65984 0.0
C517 C 0.36085 0.23561 0.62747 0.0
C518 C 0.33275 0.17663 0.63491 0.0
C519 C 0.34204 0.20328 0.61827 0.0
H520 H 0.35408 0.17284 0.74848 0.0
H521 H 0.33442 0.1989 0.59844 0.0
H522 H 0.34343 0.04014 0.63905 0.0
H523 H 0.42822 0.08397 0.77575 0.0
H524 H 0.31743 0.15175 0.62786 0.0
H525 H 0.36798 0.2562 0.61452 0.0
H526 H 0.42639 0.11348 0.73707 0.0
H527 H 0.38834 0.2276 0.76706 0.0
H528 H 0.39651 0.29453 0.65147 0.0
H529 H 0.41144 0.30216 0.69703 0.0
H530 H 0.31135 0.97908 0.63526 0.0
H531 H 0.40912 0.27743 0.74008 0.0
H532 H 0.39148 0.02336 0.77917 0.0
N533 N 0.35258 0.03957 0.67876 0.0
C534 C 0.35075 0.02093 0.6992 0.0
C535 C 0.32205 0.99053 0.65344 0.0
C536 C 0.33311 0.98615 0.69803 0.0
C537 C 0.34013 0.02503 0.65559 0.0
C538 C 0.31804 0.97098 0.67489 0.0
N539 N 0.38701 0.07049 0.71991 0.0
C540 C 0.40953 0.08719 0.73877 0.0
C541 C 0.36912 0.01899 0.74203 0.0
C542 C 0.36836 0.03708 0.72075 0.0
C543 C 0.39012 0.03629 0.76243 0.0
C544 C 0.41093 0.07049 0.76055 0.0
H545 H 0.3042 0.94428 0.67316 0.0
H546 H 0.31835 0.94106 0.71934 0.0
H547 H 0.34998 0.96989 0.75797 0.0
O548 O 0.42772 0.09858 0.68429 0.0
O549 O 0.32608 0.063 0.68568 0.0
O550 O 0.30637 0.09285 0.70747 0.0
O551 O 0.40507 0.10077 0.64942 0.0
O552 O 0.38613 0.12747 0.71722 0.0
O553 O 0.33571 0.12321 0.72585 0.0
O554 O 0.27762 0.12785 0.67625 0.0
O555 O 0.37245 0.16188 0.66789 0.0
O556 O 0.40454 0.14885 0.6925 0.0
O557 O 0.29971 0.16136 0.70757 0.0
O558 O 0.31289 0.10669 0.65645 0.0
O559 O 0.36276 0.10819 0.64983 0.0
C560 C 0.30198 0.0653 0.69705 0.0
C561 C 0.46274 0.13696 0.65305 0.0
C562 C 0.5231 0.17235 0.65316 0.0
C563 C 0.51962 0.1979 0.64217 0.0
C564 C 0.4602 0.16282 0.64146 0.0
C565 C 0.48841 0.19303 0.63624 0.0
C566 C 0.49446 0.14175 0.65854 0.0
C567 C 0.36266 0.12285 0.73342 0.0
C568 C 0.43232 0.10575 0.6601 0.0
C569 C 0.33209 0.96785 0.71969 0.0
C570 C 0.35006 0.98427 0.7417 0.0
C571 C 0.40122 0.16996 0.678 0.0
C572 C 0.24195 0.13162 0.70709 0.0
C573 C 0.19495 0.13742 0.72106 0.0
C574 C 0.18521 0.11017 0.73743 0.0
C575 C 0.23203 0.10481 0.72375 0.0
C576 C 0.22331 0.14773 0.7057 0.0
C577 C 0.20365 0.09407 0.73872 0.0
C578 C 0.33222 0.09907 0.64283 0.0
C579 C 0.27366 0.14585 0.69335 0.0
H580 H 0.54119 0.22152 0.63771 0.0
H581 H 0.43633 0.15989 0.63658 0.0
H582 H 0.48606 0.21279 0.62753 0.0
H583 H 0.49683 0.12201 0.66732 0.0
H584 H 0.16336 0.10135 0.74931 0.0
H585 H 0.24665 0.09279 0.72566 0.0
H586 H 0.23176 0.1692 0.69346 0.0
H587 H 0.19625 0.07357 0.75176 0.0
Tb588 Tb 0.93455 0.30012 0.68614 0.0
C589 C 0.81589 0.16477 0.70503 0.0
N590 N 0.84312 0.18342 0.71958 0.0
C591 C 0.80932 0.17081 0.7571 0.0
C592 C 0.78404 0.14868 0.71603 0.0
C593 C 0.84047 0.18578 0.74542 0.0
C594 C 0.78095 0.15226 0.74233 0.0
C595 C 0.79237 0.14222 0.66348 0.0
C596 C 0.82015 0.16166 0.67905 0.0
C597 C 0.7606 0.126 0.67438 0.0
C598 C 0.75647 0.12911 0.7006 0.0
Tb599 Tb 0.89246 0.20281 0.69935 0.0
N600 N 0.85149 0.17638 0.66935 0.0
C601 C 0.79739 0.13864 0.63758 0.0
C602 C 0.85642 0.17086 0.64441 0.0
C603 C 0.82956 0.15282 0.62807 0.0
H604 H 0.86235 0.19903 0.75707 0.0
H605 H 0.83373 0.149 0.60829 0.0
H606 H 0.94043 0.31425 0.62335 0.0
H607 H 0.02551 0.3601 0.76064 0.0
H608 H 0.88075 0.1789 0.63688 0.0
H609 H 0.77667 0.12404 0.62498 0.0
H610 H 0.96898 0.32889 0.74274 0.0
H611 H 0.80723 0.17313 0.77752 0.0
H612 H 0.73903 0.11072 0.66274 0.0
H613 H 0.73181 0.1162 0.70876 0.0
H614 H 0.98515 0.34028 0.59128 0.0
H615 H 0.75687 0.14037 0.75147 0.0
H616 H 0.07407 0.38119 0.73182 0.0
N617 N 0.9734 0.32382 0.65451 0.0
C618 C 1.00543 0.33996 0.66237 0.0
C619 C 0.99114 0.33971 0.61114 0.0
C620 C 0.03171 0.35515 0.64473 0.0
C621 C 0.9659 0.32481 0.62938 0.0
C622 C 0.02417 0.3542 0.61874 0.0
N623 N 0.98552 0.33025 0.7046 0.0
C624 C 0.99002 0.33732 0.73018 0.0
C625 C 0.04439 0.36198 0.69755 0.0
C626 C 1.01173 0.34358 0.68834 0.0
C627 C 0.04934 0.36715 0.72396 0.0
C628 C 0.02199 0.35526 0.7403 0.0
H629 H 0.04362 0.36575 0.60455 0.0
H630 H 0.08506 0.38362 0.64041 0.0
H631 H 0.09618 0.38944 0.68674 0.0
O632 O 0.91081 0.32235 0.70523 0.0
O633 O 0.96532 0.28062 0.70315 0.0
O634 O 0.94366 0.22789 0.68695 0.0
O635 O 0.93985 0.34452 0.67159 0.0
O636 O 0.91307 0.28238 0.72412 0.0
O637 O 0.91576 0.23494 0.73323 0.0
O638 O 0.87795 0.15268 0.69434 0.0
O639 O 0.86599 0.23025 0.70393 0.0
O640 O 0.88528 0.26596 0.67056 0.0
O641 O 0.90562 0.17919 0.72753 0.0
O642 O 0.91976 0.22099 0.6625 0.0
O643 O 0.91486 0.26665 0.65301 0.0
C644 C 0.96847 0.25517 0.69613 0.0
C645 C 0.93434 0.38009 0.70072 0.0
C646 C 0.92495 0.426 0.71027 0.0
C647 C 0.95676 0.4433 0.72117 0.0
C648 C 0.96613 0.39791 0.71129 0.0
C649 C 0.97714 0.42929 0.72164 0.0
C650 C 0.91388 0.39418 0.70024 0.0
C651 C 0.9161 0.26241 0.74027 0.0
C652 C 0.92202 0.34715 0.68948 0.0
C653 C 0.0645 0.3721 0.65369 0.0
C654 C 0.07084 0.37548 0.68007 0.0
C655 C 0.86064 0.24554 0.68522 0.0
C656 C 0.90992 0.13266 0.71374 0.0
C657 C 0.90666 0.07866 0.71053 0.0
C658 C 0.94138 0.09481 0.71321 0.0
C659 C 0.94443 0.14819 0.71603 0.0
C660 C 0.89135 0.09817 0.71059 0.0
C661 C 0.96001 0.12925 0.71567 0.0
C662 C 0.92242 0.24406 0.64633 0.0
C663 C 0.89204 0.15119 0.71523 0.0
H664 H 0.96625 0.46802 0.72876 0.0
H665 H 0.98252 0.38783 0.71128 0.0
H666 H 1.00172 0.44298 0.72976 0.0
H667 H 0.88932 0.3803 0.692 0.0
H668 H 0.95427 0.08095 0.71384 0.0
H669 H 0.95925 0.17477 0.71827 0.0
H670 H 0.86481 0.08669 0.70812 0.0
H671 H 0.98662 0.14123 0.71761 0.0
Tb672 Tb 0.72644 0.65165 0.68982 0.0
C673 C 0.87111 0.68266 0.69709 0.0
N674 N 0.85166 0.68982 0.71223 0.0
C675 C 0.87289 0.67671 0.74958 0.0
C676 C 0.89258 0.67281 0.70776 0.0
C677 C 0.85307 0.68784 0.73829 0.0
C678 C 0.89279 0.66925 0.73428 0.0
C679 C 0.89121 0.68054 0.65456 0.0
C680 C 0.87069 0.68672 0.67076 0.0
C681 C 0.91278 0.67104 0.6652 0.0
C682 C 0.91381 0.6677 0.69174 0.0
Tb683 Tb 0.82559 0.71311 0.6907 0.0
N684 N 0.85024 0.69687 0.66106 0.0
C685 C 0.88997 0.68485 0.62817 0.0
C686 C 0.85016 0.70274 0.63545 0.0
C687 C 0.86939 0.69606 0.61859 0.0
H688 H 0.84041 0.69613 0.75085 0.0
H689 H 0.8689 0.70027 0.59829 0.0
H690 H 0.70317 0.67822 0.64014 0.0
H691 H 0.67483 0.62127 0.78539 0.0
H692 H 0.83565 0.71296 0.62798 0.0
H693 H 0.90527 0.68023 0.6151 0.0
H694 H 0.70438 0.61707 0.7477 0.0
H695 H 0.87367 0.67502 0.77019 0.0
H696 H 0.92905 0.66659 0.65311 0.0
H697 H 0.9311 0.66101 0.6997 0.0
H698 H 0.67175 0.70709 0.63192 0.0
H699 H 0.90876 0.66147 0.74317 0.0
H700 H 0.6482 0.65563 0.78357 0.0
N701 N 0.69597 0.6762 0.68028 0.0
C702 C 0.6797 0.68076 0.69996 0.0
C703 C 0.67411 0.70017 0.65122 0.0
C704 C 0.6611 0.69664 0.69632 0.0
C705 C 0.69218 0.68416 0.65589 0.0
C706 C 0.65893 0.70694 0.6716 0.0
N707 N 0.69746 0.65133 0.72546 0.0
C708 C 0.69409 0.63327 0.74697 0.0
C709 C 0.66286 0.6706 0.74431 0.0
C710 C 0.68083 0.66818 0.72352 0.0
C711 C 0.66177 0.65447 0.76713 0.0
C712 C 0.67683 0.6351 0.76825 0.0
H713 H 0.64484 0.71921 0.66794 0.0
H714 H 0.63035 0.71318 0.71496 0.0
H715 H 0.63176 0.6902 0.75705 0.0
O716 O 0.6837 0.60559 0.69564 0.0
O717 O 0.74557 0.70582 0.68871 0.0
O718 O 0.79429 0.72767 0.71142 0.0
O719 O 0.70659 0.61863 0.65859 0.0
O720 O 0.75482 0.64988 0.72284 0.0
O721 O 0.80042 0.70198 0.7288 0.0
O722 O 0.852 0.76023 0.67353 0.0
O723 O 0.80279 0.66401 0.67241 0.0
O724 O 0.75944 0.63236 0.69864 0.0
O725 O 0.87305 0.747 0.70463 0.0
O726 O 0.79876 0.72018 0.65884 0.0
O727 O 0.75344 0.66778 0.65324 0.0
C728 C 0.7695 0.73001 0.70196 0.0
C729 C 0.64994 0.57604 0.66081 0.0
C730 C 0.60276 0.52082 0.65267 0.0
C731 C 0.58551 0.53573 0.64232 0.0
C732 C 0.63238 0.5904 0.65055 0.0
C733 C 0.60033 0.57022 0.64119 0.0
C734 C 0.63525 0.54146 0.6616 0.0
C735 C 0.77542 0.67405 0.73789 0.0
C736 C 0.68284 0.59587 0.6723 0.0
C737 C 0.64459 0.70079 0.71726 0.0
C738 C 0.64545 0.68776 0.74124 0.0
C739 C 0.78442 0.63617 0.68459 0.0
C740 C 0.8965 0.80411 0.69661 0.0
C741 C 0.95049 0.85346 0.70432 0.0
C742 C 0.93394 0.87033 0.71213 0.0
C743 C 0.88063 0.82147 0.70418 0.0
C744 C 0.93132 0.82015 0.6967 0.0
C745 C 0.89932 0.85441 0.71201 0.0
C746 C 0.77337 0.69822 0.64516 0.0
C747 C 0.87786 0.76951 0.68799 0.0
H748 H 0.56032 0.52084 0.6356 0.0
H749 H 0.64321 0.61698 0.65002 0.0
H750 H 0.58671 0.58134 0.63337 0.0
H751 H 0.64929 0.53071 0.66935 0.0
H752 H 0.9477 0.89577 0.71852 0.0
H753 H 0.85396 0.80961 0.70387 0.0
H754 H 0.94342 0.80673 0.69027 0.0
H755 H 0.88693 0.8677 0.71795 0.0
H756 H 0.49294 0.56766 0.96878 0.0
H757 H 0.43418 0.55054 0.96983 0.0
H758 H 0.44473 0.58525 0.04783 0.0
H759 H 0.50256 0.59895 0.04742 0.0
H760 H 0.39659 0.53115 0.04814 0.0
H761 H 0.37718 0.58788 0.96279 0.0
H762 H 0.3952 0.56367 0.95289 0.0
H763 H 0.41814 0.59904 0.97354 0.0
C764 C 0.48272 0.57224 0.9859 0.0
C765 C 0.502 0.58428 1.00809 0.0
C766 C 0.4491 0.56279 0.98646 0.0
C767 C 0.43456 0.56675 1.00885 0.0
C768 C 0.45489 0.58144 0.03035 0.0
H769 H 0.22245 0.503 1.00102 0.0
H770 H 0.28238 0.53674 1.00244 0.0
C771 C 0.48805 0.58955 0.0301 0.0
C772 C 0.39783 0.55206 1.01106 0.0
H773 H 0.32861 0.53846 0.97856 0.0
C774 C 0.38197 0.53349 0.03305 0.0
C775 C 0.37819 0.55525 0.99183 0.0
C776 C 0.3932 0.5779 0.96914 0.0
C777 C 0.34748 0.51755 0.03608 0.0
C778 C 0.3276 0.51788 1.01571 0.0
C779 C 0.34344 0.53734 0.99405 0.0
C780 C 0.29057 0.49768 1.01623 0.0
C781 C 0.33316 0.50133 0.06151 0.0
C782 C 0.27459 0.46428 0.02357 0.0
C783 C 0.24007 0.44531 0.02424 0.0
C784 C 0.22014 0.45843 1.01611 0.0
C785 C 0.2363 0.49177 1.0081 0.0
C786 C 0.27094 0.51116 1.00845 0.0
H787 H 0.3508 0.5146 0.07733 0.0
H788 H 0.30957 0.50077 0.06581 0.0
H789 H 0.32875 0.47567 0.06131 0.0
H790 H 0.28877 0.45257 0.0287 0.0
H791 H 0.22927 0.4202 0.03116 0.0
H792 H 0.44202 0.9276 0.05253 0.0
H793 H 0.4507 0.88009 0.05157 0.0
H794 H 0.46537 0.89118 0.9698 0.0
H795 H 0.45358 0.9368 0.9706 0.0
H796 H 0.43488 0.83032 0.97902 0.0
H797 H 0.53582 0.88422 0.05026 0.0
H798 H 0.49716 0.87487 0.06461 0.0
H799 H 0.51486 0.90557 0.03983 0.0
C800 C 0.4466 0.91947 0.03433 0.0
C801 C 0.44714 0.93578 1.01163 0.0
C802 C 0.45208 0.8926 0.03381 0.0
C803 C 0.45993 0.88248 1.01074 0.0
C804 C 0.45957 0.89838 0.98793 0.0
H805 H 0.56135 0.76982 0.99405 0.0
H806 H 0.54584 0.81253 0.99937 0.0
C807 C 0.45277 0.92444 0.98834 0.0
C808 C 0.46841 0.85544 1.0102 0.0
H809 H 0.51724 0.82848 0.03786 0.0
C810 C 0.45305 0.83016 0.99185 0.0
C811 C 0.49218 0.85483 0.02685 0.0
C812 C 0.51116 0.8815 0.04634 0.0
C813 C 0.46086 0.80478 0.98955 0.0
C814 C 0.48407 0.80397 1.00654 0.0
C815 C 0.49931 0.82899 0.02494 0.0
C816 C 0.49366 0.77797 1.00505 0.0
C817 C 0.4448 0.7796 0.96844 0.0
C818 C 0.46978 0.74438 1.00748 0.0
C819 C 0.4786 0.71999 1.00444 0.0
C820 C 0.51159 0.72867 0.99923 0.0
C821 C 0.53579 0.76235 0.99821 0.0
C822 C 0.5269 0.78676 1.00107 0.0
H823 H 0.43495 0.78872 0.95308 0.0
H824 H 0.46259 0.77313 0.9598 0.0
H825 H 0.42376 0.75674 0.97647 0.0
H826 H 0.44418 0.73696 1.01136 0.0
H827 H 0.45946 0.69425 1.00573 0.0
H828 H 0.26357 0.81864 0.99634 0.0
H829 H 0.23334 0.75904 0.98805 0.0
H830 H 0.21968 0.74013 0.06911 0.0
H831 H 0.25077 0.79958 0.07763 0.0
H832 H 0.23926 0.69993 0.04357 0.0
H833 H 0.13316 0.69854 0.99411 0.0
H834 H 0.17315 0.72632 0.98076 0.0
H835 H 0.16301 0.73368 1.01237 0.0
C836 C 0.2544 0.80183 1.01244 0.0
C837 C 0.2595 0.81404 0.03768 0.0
C838 C 0.23678 0.76772 1.00764 0.0
C839 C 0.22376 0.74506 0.02793 0.0
C840 C 0.22929 0.75712 0.05312 0.0
H841 H 0.10124 0.53892 0.05864 0.0
H842 H 0.14272 0.59759 0.05846 0.0
C843 C 0.24686 0.79118 0.05796 0.0
C844 C 0.20441 0.70877 0.02309 0.0
H845 H 0.13277 0.64801 0.99651 0.0
C846 C 0.21596 0.68857 0.03327 0.0
C847 C 0.17419 0.69393 1.00939 0.0
C848 C 0.1599 0.71412 0.99867 0.0
C849 C 0.1979 0.65397 0.03049 0.0
C850 C 0.16708 0.63902 0.0176 0.0
C851 C 0.15619 0.65934 1.00657 0.0
C852 C 0.14446 0.60249 1.01721 0.0
C853 C 0.21219 0.63383 0.0413 0.0
C854 C 0.13124 0.58546 0.9941 0.0
C855 C 0.10722 0.55174 0.9942 0.0
C856 C 0.09566 0.53468 1.01746 0.0
C857 C 0.10975 0.55146 0.04044 0.0
C858 C 0.1337 0.58499 0.04033 0.0
H859 H 0.23966 0.64848 0.04202 0.0
H860 H 0.20311 0.62641 0.06117 0.0
H861 H 0.20475 0.61114 0.02983 0.0
H862 H 0.13889 0.59847 0.97603 0.0
H863 H 0.0965 0.53951 0.97623 0.0
H864 H 0.39582 0.08793 1.00536 0.0
H865 H 0.40468 0.1444 1.00918 0.0
H866 H 0.48479 0.16926 0.062 0.0
H867 H 0.4752 0.11318 0.05901 0.0
H868 H 0.45067 0.19831 0.07598 0.0
H869 H 0.48092 0.2207 0.97233 0.0
H870 H 0.43993 0.18797 0.97989 0.0
H871 H 0.47512 0.18394 0.98824 0.0
C872 C 0.41492 0.10535 0.01806 0.0
C873 C 0.43569 0.09652 0.03113 0.0
C874 C 0.4202 0.13773 0.02007 0.0
C875 C 0.4462 0.16157 0.03523 0.0
C876 C 0.4649 0.15167 0.04988 0.0
H877 H 0.57918 0.36823 0.02194 0.0
H878 H 0.54666 0.30812 0.01959 0.0
C879 C 0.45959 0.11959 0.04797 0.0
C880 C 0.45584 0.19728 0.03513 0.0
H881 H 0.48949 0.26614 0.99715 0.0
C882 C 0.45872 0.2131 0.05868 0.0
C883 C 0.46681 0.21673 1.01261 0.0
C884 C 0.46586 0.20166 0.98683 0.0
C885 C 0.47346 0.24771 0.06053 0.0
C886 C 0.48485 0.2672 0.03806 0.0
C887 C 0.48071 0.25127 1.01437 0.0
C888 C 0.50374 0.30417 0.03889 0.0
C889 C 0.47844 0.26309 0.08675 0.0
C890 C 0.49044 0.32236 0.05017 0.0
C891 C 0.50936 0.35695 0.05205 0.0
C892 C 0.54193 0.37425 0.04237 0.0
C893 C 0.55461 0.35593 0.03023 0.0
C894 C 0.53583 0.32143 0.02859 0.0
H895 H 0.47578 0.24555 0.10215 0.0
H896 H 0.5033 0.28548 0.08841 0.0
H897 H 0.45953 0.2705 0.09003 0.0
H898 H 0.46549 0.30982 0.05774 0.0
H899 H 0.49866 0.37 0.06161 0.0
H900 H 0.66842 0.22965 1.01018 0.0
H901 H 0.72843 0.25618 1.00892 0.0
H902 H 0.72442 0.17615 0.05284 0.0
H903 H 0.66428 0.15053 0.05587 0.0
H904 H 0.77066 0.23087 0.07107 0.0
H905 H 0.7889 0.23938 0.96675 0.0
H906 H 0.7656 0.25883 0.97563 0.0
H907 H 0.74847 0.21508 0.98096 0.0
C908 C 0.68013 0.21766 0.0198 0.0
C909 C 0.66111 0.18785 0.03326 0.0
C910 C 0.71464 0.23263 0.01858 0.0
C911 C 0.73121 0.2179 0.03022 0.0
C912 C 0.71235 0.18795 0.04344 0.0
H913 H 0.94792 0.33136 1.00418 0.0
H914 H 0.89216 0.2824 1.00601 0.0
C915 C 0.67778 0.17313 0.04497 0.0
C916 C 0.76822 0.2351 0.03017 0.0
H917 H 0.8359 0.27931 0.99195 0.0
C918 C 0.78487 0.24087 0.05365 0.0
C919 C 0.78722 0.2475 1.00748 0.0
C920 C 0.77156 0.2395 0.9813 0.0
C921 C 0.81951 0.26055 0.05527 0.0
C922 C 0.83811 0.2759 0.03293 0.0
C923 C 0.82178 0.26814 1.00921 0.0
C924 C 0.87336 0.30305 0.03413 0.0
C925 C 0.83568 0.26506 0.08107 0.0
C926 C 0.88168 0.33071 0.04957 0.0
C927 C 0.91332 0.35835 0.0487 0.0
C928 C 0.93761 0.35951 0.03201 0.0
C929 C 0.92994 0.33125 1.01737 0.0
C930 C 0.89797 0.30334 0.01826 0.0
H931 H 0.8217 0.24257 0.09303 0.0
H932 H 0.86165 0.27049 0.07929 0.0
H933 H 0.83554 0.28585 0.09128 0.0
H934 H 0.86318 0.3317 0.0615 0.0
H935 H 0.91828 0.37951 0.06041 0.0
H936 H 0.92174 0.60072 0.05848 0.0
H937 H 0.87977 0.61593 0.0489 0.0
H938 H 0.80749 0.51328 0.03688 0.0
H939 H 0.84947 0.49779 0.04656 0.0
H940 H 0.80344 0.55798 1.00101 0.0
H941 H 0.80672 0.59743 0.10183 0.0
H942 H 0.84604 0.61683 0.08575 0.0
H943 H 0.82506 0.57312 0.09186 0.0
C944 C 0.89697 0.58135 0.05362 0.0
C945 C 0.88889 0.54795 0.05365 0.0
C946 C 0.87298 0.59011 0.04817 0.0
C947 C 0.84028 0.56572 0.0427 0.0
C948 C 0.83253 0.53253 0.04118 0.0
H949 H 0.65655 0.56362 0.05935 0.0
H950 H 0.70636 0.55915 0.06284 0.0
C951 C 0.8566 0.52371 0.04661 0.0
C952 C 0.81387 0.57468 0.04005 0.0
H953 H 0.77239 0.60588 0.07345 0.0
C954 C 0.79675 0.56863 1.01677 0.0
C955 C 0.80492 0.5883 0.06073 0.0
C956 C 0.82138 0.59409 0.08654 0.0
C957 C 0.77095 0.57578 1.01366 0.0
C958 C 0.76218 0.5896 0.03431 0.0
C959 C 0.7794 0.59573 0.05752 0.0
C960 C 0.73317 0.59482 0.03307 0.0
C961 C 0.75247 0.56743 0.98861 0.0
C962 C 0.73198 0.61732 1.01581 0.0
C963 C 0.7033 0.61993 1.01379 0.0
C964 C 0.67528 0.5998 0.02882 0.0
C965 C 0.67738 0.57879 0.04704 0.0
C966 C 0.70594 0.57635 0.04915 0.0
H967 H 0.75829 0.55157 0.9763 0.0
H968 H 0.72533 0.55451 0.99199 0.0
H969 H 0.75941 0.59061 0.97806 0.0
H970 H 0.75294 0.63235 1.00355 0.0
H971 H 0.7025 0.63639 0.99961 0.0
H972 H 0.88552 0.81164 0.32466 0.0
H973 H 0.94528 0.84265 0.31702 0.0
H974 H 0.96296 0.83427 0.39684 0.0
H975 H 0.90327 0.8041 0.40484 0.0
H976 H 1.00366 0.89845 0.3762 0.0
H977 H 1.00494 0.8012 0.31541 0.0
H978 H 0.97717 0.81516 0.30526 0.0
H979 H 0.96984 0.79333 0.335 0.0
C980 C 0.90209 0.81668 0.34067 0.0
C981 C 0.88952 0.8052 0.36537 0.0
C982 C 0.93626 0.83413 0.3362 0.0
C983 C 0.95858 0.84037 0.35628 0.0
C984 C 0.94618 0.82956 0.38103 0.0
H985 H 0.16291 0.91693 0.38757 0.0
H986 H 0.10487 0.9021 0.38754 0.0
C987 C 0.91203 0.81208 0.38552 0.0
C988 C 0.99487 0.85782 0.3516 0.0
H989 H 0.05562 0.85029 0.32124 0.0
C990 C 0.01506 0.88794 0.36418 0.0
C991 C 1.00969 0.84434 0.33562 0.0
C992 C 0.98941 0.81161 0.32217 0.0
C993 C 0.0497 0.9046 0.36163 0.0
C994 C 0.06464 0.8904 0.34652 0.0
C995 C 0.04431 0.86104 0.33305 0.0
C996 C 0.10106 0.90362 0.34632 0.0
C997 C 0.06985 0.93734 0.37507 0.0
C998 C 0.11852 0.90929 0.32317 0.0
C999 C 0.15183 0.91747 0.32317 0.0
C1000 C 0.16802 0.91958 0.34632 0.0
C1001 C 0.151 0.91539 0.36944 0.0
C1002 C 0.11784 0.90724 0.36944 0.0
H1003 H 0.05555 0.9504 0.37718 0.0
H1004 H 0.07618 0.93293 0.39458 0.0
H1005 H 0.09316 0.9537 0.36463 0.0
H1006 H 0.10608 0.90639 0.30507 0.0
H1007 H 0.16434 0.92035 0.30507 0.0
H1008 H 0.112 0.26148 0.39168 0.0
H1009 H 0.13251 0.22239 0.39218 0.0
H1010 H 0.14368 0.23047 0.30999 0.0
H1011 H 0.12767 0.27306 0.31023 0.0
H1012 H 0.11607 0.16652 0.37645 0.0
H1013 H 0.23147 0.2474 0.32305 0.0
H1014 H 0.20137 0.25988 0.32865 0.0
H1015 H 0.196 0.23242 0.30268 0.0
C1016 C 0.11885 0.25475 0.37378 0.0
C1017 C 0.11854 0.27026 0.35096 0.0
C1018 C 0.13056 0.23237 0.374 0.0
C1019 C 0.14089 0.22401 0.3512 0.0
C1020 C 0.13766 0.23754 0.32806 0.0
H1021 H 0.23175 0.10023 0.3292 0.0
H1022 H 0.20068 0.1291 0.32276 0.0
C1023 C 0.12787 0.26141 0.32809 0.0
C1024 C 0.15527 0.20159 0.35205 0.0
H1025 H 0.22147 0.19374 0.33344 0.0
C1026 C 0.13925 0.17276 0.36711 0.0
C1027 C 0.18523 0.20889 0.33941 0.0
C1028 C 0.20457 0.23895 0.32275 0.0
C1029 C 0.15255 0.15182 0.37043 0.0
C1030 C 0.18293 0.15989 0.35857 0.0
C1031 C 0.19833 0.18779 0.34274 0.0
C1032 C 0.19981 0.14039 0.36281 0.0
C1033 C 0.13379 0.12106 0.38647 0.0
C1034 C 0.20985 0.13725 0.38746 0.0
C1035 C 0.22751 0.12061 0.39124 0.0
C1036 C 0.23569 0.1069 0.3704 0.0
C1037 C 0.22548 0.11003 0.34574 0.0
C1038 C 0.20785 0.12668 0.34199 0.0
H1039 H 0.10709 0.11327 0.3878 0.0
H1040 H 0.13615 0.10025 0.37853 0.0
H1041 H 0.14407 0.12619 0.40615 0.0
H1042 H 0.20458 0.14822 0.40377 0.0
H1043 H 0.23471 0.11846 0.41051 0.0
H1044 H 1.00388 0.12551 0.33613 0.0
H1045 H 0.96031 0.06827 0.34289 0.0
H1046 H 0.88696 0.0929 0.31874 0.0
H1047 H 0.93061 0.15033 0.31131 0.0
H1048 H 0.87189 0.05124 0.36549 0.0
H1049 H 0.90932 1.00381 0.2818 0.0
H1050 H 0.94165 0.02948 0.30388 0.0
H1051 H 0.92171 0.04696 0.28546 0.0
C1052 C 0.97851 0.11882 0.33214 0.0
C1053 C 0.97085 0.14252 0.32278 0.0
C1054 C 0.95363 0.08606 0.33607 0.0
C1055 C 0.9205 0.07621 0.33088 0.0
C1056 C 0.91245 0.09999 0.3227 0.0
H1057 H 0.76143 0.876 0.30328 0.0
H1058 H 0.80562 0.93384 0.30107 0.0
C1059 C 0.93741 0.13285 0.31862 0.0
C1060 C 0.89439 0.04095 0.33358 0.0
H1061 H 0.86711 0.9642 0.30815 0.0
C1062 C 0.87062 0.03213 0.35291 0.0
C1063 C 0.89297 0.01615 0.3172 0.0
C1064 C 0.91758 0.02442 0.29576 0.0
C1065 C 0.84532 0.99915 0.35634 0.0
C1066 C 0.84374 0.97403 0.33994 0.0
C1067 C 0.86786 0.98312 0.32066 0.0
C1068 C 0.81692 0.9385 0.34162 0.0
C1069 C 0.82062 0.99219 0.37742 0.0
C1070 C 0.80856 0.92124 0.36499 0.0
C1071 C 0.78244 0.8885 0.36635 0.0
C1072 C 0.76515 0.87177 0.3442 0.0
C1073 C 0.77456 0.88827 0.32062 0.0
C1074 C 0.79982 0.92139 0.3194 0.0
H1075 H 0.81724 0.0138 0.38096 0.0
H1076 H 0.79628 0.97061 0.37298 0.0
H1077 H 0.82992 0.9871 0.39538 0.0
H1078 H 0.82198 0.93312 0.38229 0.0
H1079 H 0.7758 0.87619 0.38475 0.0
H1080 H 0.17389 0.7032 0.38785 0.0
H1081 H 0.14372 0.64298 0.38411 0.0
H1082 H 0.22296 0.64727 0.33862 0.0
H1083 H 0.25227 0.70749 0.34078 0.0
H1084 H 0.16456 0.60118 0.32023 0.0
H1085 H 0.1659 0.58445 0.42522 0.0
H1086 H 0.14532 0.60652 0.41581 0.0
H1087 H 0.18906 0.62438 0.41021 0.0
C1088 C 0.18474 0.69149 0.37665 0.0
C1089 C 0.2159 0.71052 0.36491 0.0
C1090 C 0.16758 0.65688 0.37484 0.0
C1091 C 0.18137 0.64036 0.36164 0.0
C1092 C 0.21185 0.65929 0.34915 0.0
H1093 H 0.15334 0.44756 0.38476 0.0
H1094 H 0.16887 0.50546 0.38314 0.0
C1095 C 0.22884 0.69386 0.35068 0.0
C1096 C 0.1648 0.60347 0.36138 0.0
H1097 H 0.13785 0.5361 0.40036 0.0
C1098 C 0.15857 0.58691 0.33775 0.0
C1099 C 0.15721 0.58477 0.38424 0.0
C1100 C 0.16497 0.6009 0.4103 0.0
C1101 C 0.14569 0.55246 0.33636 0.0
C1102 C 0.13802 0.53381 0.35924 0.0
C1103 C 0.14346 0.55028 0.38281 0.0
C1104 C 0.12763 0.49792 0.35949 0.0
C1105 C 0.14186 0.53663 0.31045 0.0
C1106 C 0.09905 0.47394 0.34674 0.0
C1107 C 0.09013 0.44037 0.34742 0.0
C1108 C 0.10933 0.43013 0.3612 0.0
C1109 C 0.13768 0.45426 0.37408 0.0
C1110 C 0.14669 0.48759 0.37319 0.0
H1111 H 0.15584 0.55525 0.29539 0.0
H1112 H 0.15052 0.51838 0.31086 0.0
H1113 H 0.11532 0.52342 0.30501 0.0
H1114 H 0.08351 0.48109 0.33642 0.0
H1115 H 0.06821 0.42253 0.33732 0.0
H1116 H 0.32902 0.52672 0.38299 0.0
H1117 H 0.38626 0.5717 0.37755 0.0
H1118 H 0.40526 0.51048 0.32634 0.0
H1119 H 0.34832 0.46534 0.3323 0.0
H1120 H 0.44995 0.53429 0.36388 0.0
H1121 H 0.43929 0.63785 0.32305 0.0
H1122 H 0.41503 0.62157 0.35154 0.0
H1123 H 0.405 0.59594 0.32345 0.0
C1124 C 0.34506 0.52343 0.36978 0.0
C1125 C 0.33415 0.49271 0.35785 0.0
C1126 C 0.37788 0.5491 0.36672 0.0
C1127 C 0.40023 0.54466 0.35141 0.0
C1128 C 0.38863 0.51461 0.33825 0.0
H1129 H 0.61666 0.669 0.33086 0.0
H1130 H 0.5597 0.62213 0.32917 0.0
C1131 C 0.35599 0.48893 0.34146 0.0
C1132 C 0.4363 0.56977 0.3512 0.0
H1133 H 0.4915 0.65179 0.34179 0.0
C1134 C 0.45906 0.55991 0.35873 0.0
C1135 C 0.44833 0.60324 0.34452 0.0
C1136 C 0.42567 0.61524 0.33494 0.0
C1137 C 0.49319 0.58271 0.36058 0.0
C1138 C 0.50504 0.61629 0.35453 0.0
C1139 C 0.48241 0.62605 0.34653 0.0
C1140 C 0.54049 0.64218 0.35746 0.0
C1141 C 0.51616 0.57095 0.36987 0.0
C1142 C 0.54895 0.66846 0.37446 0.0
C1143 C 0.58124 0.69514 0.37532 0.0
C1144 C 0.60583 0.69662 0.35885 0.0
C1145 C 0.59814 0.66905 0.34332 0.0
C1146 C 0.56558 0.64216 0.34243 0.0
H1147 H 0.50244 0.546 0.37869 0.0
H1148 H 0.53055 0.56964 0.35344 0.0
H1149 H 0.53398 0.5885 0.38408 0.0
H1150 H 0.53025 0.66882 0.38657 0.0
H1151 H 0.58671 0.71539 0.38825 0.0
H1152 H 0.31849 0.88029 0.3347 0.0
H1153 H 0.36667 0.87383 0.33961 0.0
H1154 H 0.41628 0.96515 0.38211 0.0
H1155 H 0.36725 0.97193 0.37724 0.0
H1156 H 0.4388 0.92363 0.32623 0.0
H1157 H 0.41122 0.88534 0.42844 0.0
H1158 H 0.37894 0.88133 0.40716 0.0
H1159 H 0.41061 0.92156 0.41717 0.0
C1160 C 0.33963 0.89924 0.34503 0.0
C1161 C 0.33891 0.92655 0.35579 0.0
C1162 C 0.36725 0.89553 0.34768 0.0
C1163 C 0.39492 0.91884 0.36132 0.0
C1164 C 0.39501 0.94681 0.37155 0.0
H1165 H 0.54153 0.85892 0.40146 0.0
H1166 H 0.51501 0.89295 0.39949 0.0
C1167 C 0.36716 0.95078 0.36864 0.0
C1168 C 0.42254 0.91216 0.36532 0.0
H1169 H 0.44859 0.87365 0.40706 0.0
C1170 C 0.44161 0.91348 0.34409 0.0
C1171 C 0.42604 0.89881 0.38858 0.0
C1172 C 0.4057 0.8965 0.41176 0.0
C1173 C 0.4629 0.90033 0.34515 0.0
C1174 C 0.4646 0.88477 0.36787 0.0
C1175 C 0.44715 0.88538 0.38961 0.0
C1176 C 0.48173 0.86509 0.36868 0.0
C1177 C 0.48271 0.90244 0.32167 0.0
C1178 C 0.47158 0.83786 0.35227 0.0
C1179 C 0.48666 0.81846 0.35331 0.0
C1180 C 0.51216 0.82564 0.37094 0.0
C1181 C 0.52224 0.8529 0.38746 0.0
C1182 C 0.50702 0.8723 0.38644 0.0
H1183 H 0.48734 0.92385 0.3095 0.0
H1184 H 0.50684 0.90473 0.32687 0.0
H1185 H 0.46853 0.87966 0.31008 0.0
H1186 H 0.45165 0.83134 0.33877 0.0
H1187 H 0.47846 0.79793 0.34012 0.0
H1188 H 0.81258 0.22853 0.72115 0.0
H1189 H 0.75574 0.21643 0.71501 0.0
H1190 H 0.77475 0.23767 0.6345 0.0
H1191 H 0.83223 0.25052 0.64074 0.0
H1192 H 0.73869 0.26372 0.65395 0.0
H1193 H 0.68152 0.13297 0.6847 0.0
H1194 H 0.7116 0.16157 0.7069 0.0
H1195 H 0.72418 0.15758 0.6751 0.0
C1196 C 0.80466 0.23053 0.7021 0.0
C1197 C 0.82677 0.24011 0.68136 0.0
C1198 C 0.77203 0.22341 0.69858 0.0
C1199 C 0.76055 0.22526 0.67416 0.0
C1200 C 0.78289 0.23579 0.6535 0.0
H1201 H 0.54974 0.13438 0.63834 0.0
H1202 H 0.60756 0.1478 0.64237 0.0
C1203 C 0.81574 0.24321 0.65707 0.0
C1204 C 0.72533 0.21642 0.6704 0.0
H1205 H 0.64569 0.1548 0.6809 0.0
C1206 C 0.71835 0.23984 0.65972 0.0
C1207 C 0.69862 0.18504 0.67739 0.0
C1208 C 0.70417 0.15763 0.68648 0.0
C1209 C 0.68555 0.23301 0.65642 0.0
C1210 C 0.65893 0.20222 0.66476 0.0
C1211 C 0.66595 0.17859 0.67489 0.0
C1212 C 0.62362 0.19372 0.66289 0.0
C1213 C 0.67988 0.25863 0.6435 0.0
C1214 C 0.61302 0.2144 0.67376 0.0
C1215 C 0.58012 0.20688 0.67125 0.0
C1216 C 0.5569 0.17812 0.65833 0.0
C1217 C 0.56707 0.15658 0.64853 0.0
C1218 C 0.60014 0.16437 0.65071 0.0
H1219 H 0.70119 0.27531 0.63119 0.0
H1220 H 0.65717 0.24692 0.63155 0.0
H1221 H 0.67703 0.2741 0.6583 0.0
H1222 H 0.63021 0.2365 0.68409 0.0
H1223 H 0.57284 0.22373 0.67925 0.0
H1224 H 0.91552 0.46271 0.74673 0.0
H1225 H 0.8851 0.49256 0.74241 0.0
H1226 H 0.85663 0.45484 0.66572 0.0
H1227 H 0.88719 0.42509 0.66979 0.0
H1228 H 0.9009 0.54103 0.70592 0.0
H1229 H 0.76953 0.44225 0.69624 0.0
H1230 H 0.80106 0.43464 0.70908 0.0
H1231 H 0.79789 0.43836 0.67515 0.0
C1232 C 0.90261 0.46058 0.729 0.0
C1233 C 0.90395 0.44165 0.70856 0.0
C1234 C 0.88503 0.47744 0.72663 0.0
C1235 C 0.86827 0.47561 0.70386 0.0
C1236 C 0.86873 0.45599 0.68368 0.0
H1237 H 0.82167 0.62434 0.65003 0.0
H1238 H 0.8411 0.58443 0.65395 0.0
C1239 C 0.88631 0.43907 0.68603 0.0
C1240 C 0.85363 0.49717 0.70032 0.0
H1241 H 0.78179 0.4974 0.68773 0.0
C1242 C 0.87482 0.53143 0.70204 0.0
C1243 C 0.81959 0.48461 0.69527 0.0
C1244 C 0.79555 0.44794 0.69402 0.0
C1245 C 0.86304 0.5535 0.69871 0.0
C1246 C 0.82924 0.54118 0.69315 0.0
C1247 C 0.80781 0.50684 0.69169 0.0
C1248 C 0.81583 0.56385 0.68976 0.0
C1249 C 0.88686 0.58992 0.70137 0.0
C1250 C 0.7949 0.56524 0.70839 0.0
C1251 C 0.78436 0.58843 0.70644 0.0
C1252 C 0.79445 0.61063 0.68574 0.0
C1253 C 0.81436 0.60831 0.66658 0.0
C1254 C 0.82518 0.5853 0.66867 0.0
H1255 H 0.91041 0.59515 0.71063 0.0
H1256 H 0.89266 0.60109 0.682 0.0
H1257 H 0.87554 0.6018 0.71278 0.0
H1258 H 0.78746 0.54896 0.72484 0.0
H1259 H 0.7689 0.58944 0.7215 0.0
H1260 H 0.60947 0.48462 0.69127 0.0
H1261 H 0.58372 0.42474 0.69478 0.0
H1262 H 0.53183 0.41321 0.62389 0.0
H1263 H 0.55926 0.47317 0.61928 0.0
H1264 H 0.52192 0.38048 0.70037 0.0
H1265 H 0.56503 0.35062 0.61117 0.0
H1266 H 0.58225 0.39246 0.62272 0.0
H1267 H 0.54429 0.37338 0.60463 0.0
C1268 C 0.59328 0.46949 0.67601 0.0
C1269 C 0.58682 0.48403 0.65482 0.0
C1270 C 0.57829 0.43511 0.6782 0.0
C1271 C 0.55627 0.41428 0.65937 0.0
C1272 C 0.54943 0.42863 0.63834 0.0
H1273 H 0.41212 0.21125 0.63794 0.0
H1274 H 0.45322 0.26989 0.63487 0.0
C1275 C 0.56473 0.46305 0.63596 0.0
C1276 C 0.53886 0.37766 0.66261 0.0
H1277 H 0.51823 0.30531 0.6317 0.0
C1278 C 0.52143 0.36406 0.68545 0.0
C1279 C 0.53857 0.35613 0.64336 0.0
C1280 C 0.55886 0.36892 0.61923 0.0
C1281 C 0.50236 0.3297 0.68906 0.0
C1282 C 0.50063 0.3081 0.66924 0.0
C1283 C 0.51912 0.32173 0.64678 0.0
C1284 C 0.47779 0.27162 0.67044 0.0
C1285 C 0.48365 0.31723 0.71388 0.0
C1286 C 0.47849 0.25248 0.69095 0.0
C1287 C 0.45425 0.21901 0.69309 0.0
C1288 C 0.42925 0.20404 0.67454 0.0
C1289 C 0.43033 0.22248 0.65301 0.0
C1290 C 0.4541 0.25595 0.6511 0.0
H1291 H 0.49869 0.31179 0.72735 0.0
H1292 H 0.47883 0.33592 0.72303 0.0
H1293 H 0.45972 0.29427 0.71106 0.0
H1294 H 0.49716 0.26366 0.70571 0.0
H1295 H 0.4544 0.20521 0.70968 0.0
H1296 H 0.80268 0.77644 0.73819 0.0
H1297 H 0.81563 0.83361 0.73835 0.0
H1298 H 0.75309 0.81486 0.67241 0.0
H1299 H 0.74145 0.75737 0.67131 0.0
H1300 H 0.80932 0.86813 0.66464 0.0
H1301 H 0.76985 0.88062 0.76109 0.0
H1302 H 0.79724 0.86435 0.76386 0.0
H1303 H 0.75817 0.84073 0.7475 0.0
C1304 C 0.79113 0.78422 0.72394 0.0
C1305 C 0.77123 0.76241 0.70461 0.0
C1306 C 0.7983 0.81699 0.72425 0.0
C1307 C 0.78497 0.82868 0.70568 0.0
C1308 C 0.76361 0.80646 0.68704 0.0
H1309 H 0.84297 0.03687 0.72762 0.0
H1310 H 0.80993 0.97721 0.72301 0.0
C1311 C 0.7567 0.77353 0.68654 0.0
C1312 C 0.79624 0.8647 0.70454 0.0
H1313 H 0.81478 0.93117 0.74268 0.0
C1314 C 0.80988 0.88183 0.68159 0.0
C1315 C 0.79646 0.88279 0.7264 0.0
C1316 C 0.77926 0.86601 0.75096 0.0
C1317 C 0.82527 0.91651 0.68031 0.0
C1318 C 0.82846 0.9348 0.70287 0.0
C1319 C 0.81316 0.91749 0.72543 0.0
C1320 C 0.84807 0.97172 0.7038 0.0
C1321 C 0.83768 0.93294 0.65467 0.0
C1322 C 0.88075 0.98899 0.69458 0.0
C1323 C 0.89946 0.02351 0.6963 0.0
C1324 C 0.88642 0.04173 0.70808 0.0
C1325 C 0.85386 0.0242 0.71777 0.0
C1326 C 0.8349 0.98978 0.71545 0.0
H1327 H 0.82267 0.9163 0.63883 0.0
H1328 H 0.83699 0.95631 0.65321 0.0
H1329 H 0.86355 0.93849 0.65189 0.0
H1330 H 0.8921 0.97578 0.6863 0.0
H1331 H 0.92417 0.03579 0.6883 0.0
H1332 H 0.99395 0.91741 0.69002 0.0
H1333 H 0.05436 0.94603 0.68995 0.0
H1334 H 0.05188 0.85757 0.71679 0.0
H1335 H 0.99125 0.82874 0.71735 0.0
H1336 H 0.09556 0.95555 0.73276 0.0
H1337 H 0.11626 0.88633 0.65491 0.0
H1338 H 0.0773 0.88532 0.65903 0.0
H1339 H 0.08842 0.86224 0.6802 0.0
C1340 C 1.00612 0.90398 0.69609 0.0
C1341 C 0.98752 0.8707 0.70378 0.0
C1342 C 0.04075 0.92036 0.69585 0.0
C1343 C 0.05772 0.90388 0.70307 0.0
C1344 C 0.03937 0.87064 0.71064 0.0
H1345 H 0.27783 0.99959 0.70979 0.0
H1346 H 0.2189 0.95602 0.71252 0.0
C1347 C 1.00464 0.85419 0.71096 0.0
C1348 C 0.0946 0.92231 0.70376 0.0
H1349 H 0.16372 0.92983 0.67438 0.0
C1350 C 0.11042 0.94966 0.72018 0.0
C1351 C 0.11407 0.91449 0.68752 0.0
C1352 C 0.09831 0.88564 0.66925 0.0
C1353 C 0.14498 0.96997 0.72024 0.0
C1354 C 0.16443 0.9632 0.70313 0.0
C1355 C 0.14882 0.93497 0.6875 0.0
C1356 C 0.20018 0.98751 0.69927 0.0
C1357 C 0.16029 0.99925 0.73813 0.0
C1358 C 0.20917 0.01904 0.69001 0.0
C1359 C 0.24234 0.04351 0.68852 0.0
C1360 C 0.26753 0.03725 0.69609 0.0
C1361 C 0.25887 1.00511 0.70392 0.0
C1362 C 0.22529 0.98033 0.70554 0.0
H1363 H 0.14441 0.99511 0.75517 0.0
H1364 H 0.18519 1.00477 0.74464 0.0
H1365 H 0.16288 0.0212 0.72786 0.0
H1366 H 0.19037 0.025 0.68448 0.0
H1367 H 0.2482 0.06761 0.68169 0.0
H1368 H 0.17005 0.15507 0.76184 0.0
H1369 H 0.13817 0.18369 0.7612 0.0
H1370 H 0.1457 0.19 0.67896 0.0
H1371 H 0.17784 0.16154 0.67945 0.0
H1372 H 0.15538 0.24832 0.70112 0.0
H1373 H 0.04178 0.14021 0.73971 0.0
H1374 H 0.07769 0.15411 0.75958 0.0
H1375 H 0.07674 0.13717 0.72847 0.0
C1376 C 0.16473 0.16232 0.74358 0.0
C1377 C 0.17619 0.15561 0.72066 0.0
C1378 C 0.14654 0.17876 0.74326 0.0
C1379 C 0.13903 0.18856 0.72001 0.0
C1380 C 0.15113 0.18266 0.69714 0.0
H1381 H 0.98973 0.22197 0.66672 0.0
H1382 H 0.03547 0.21228 0.67482 0.0
C1383 C 0.16952 0.16638 0.69745 0.0
C1384 C 0.11774 0.204 0.71938 0.0
H1385 H 0.03962 0.18891 0.73274 0.0
C1386 C 0.13017 0.23544 0.70825 0.0
C1387 C 0.08473 0.18715 0.72857 0.0
C1388 C 0.06925 0.15269 0.73955 0.0
C1389 C 0.11024 0.25009 0.70566 0.0
C1390 C 0.07725 0.23299 0.71451 0.0
C1391 C 0.06513 0.20208 0.72628 0.0
C1392 C 0.05321 0.24387 0.70812 0.0
C1393 C 0.12391 0.2831 0.69256 0.0
C1394 C 0.04856 0.26573 0.72383 0.0
C1395 C 0.02222 0.27161 0.71913 0.0
C1396 C 1.00015 0.2553 0.69887 0.0
C1397 C 1.00617 0.23486 0.68255 0.0
C1398 C 0.03233 0.22924 0.68712 0.0
H1399 H 0.1507 0.29432 0.68814 0.0
H1400 H 0.11023 0.27998 0.67446 0.0
H1401 H 0.12016 0.30037 0.70488 0.0
H1402 H 0.0644 0.2771 0.74025 0.0
H1403 H 0.01799 0.2872 0.73213 0.0
H1404 H 0.09427 0.33231 0.26879 0.0
H1405 H 0.08033 0.34959 0.22888 0.0
H1406 H 0.11836 0.44794 0.25924 0.0
H1407 H 0.1326 0.43066 0.29949 0.0
H1408 H 0.03611 0.37309 0.22353 0.0
H1409 H 0.16116 0.465 0.1877 0.0
H1410 H 0.15503 0.43553 0.21246 0.0
H1411 H 0.15148 0.47121 0.21983 0.0
C1412 C 0.10028 0.35783 0.26686 0.0
C1413 C 0.11478 0.38017 0.28731 0.0
C1414 C 0.09208 0.36763 0.24403 0.0
C1415 C 0.09827 0.4001 0.24087 0.0
C1416 C 0.11372 0.42287 0.26098 0.0
H1417 H 1.00399 0.44859 0.1132 0.0
H1418 H 0.02038 0.44155 0.15633 0.0
C1419 C 0.12204 0.41303 0.28395 0.0
C1420 C 0.08724 0.40919 0.21685 0.0
H1421 H 0.11551 0.45671 0.16283 0.0
C1422 C 0.05346 0.39158 0.21035 0.0
C1423 C 0.10981 0.43317 0.19952 0.0
C1424 C 0.14645 0.45223 0.205 0.0
C1425 C 0.04177 0.39679 0.18694 0.0
C1426 C 0.06437 0.42058 0.1695 0.0
C1427 C 0.09809 0.43861 0.1762 0.0
C1428 C 0.05405 0.42526 0.14342 0.0
C1429 C 1.00549 0.37579 0.18063 0.0
C1430 C 0.06769 0.41893 0.12168 0.0
C1431 C 0.05843 0.42294 0.09707 0.0
C1432 C 0.03528 0.43363 0.09331 0.0
C1433 C 0.02166 0.44011 0.11517 0.0
C1434 C 0.03096 0.436 0.13992 0.0
H1435 H 0.99269 0.35419 0.19362 0.0
H1436 H 0.99337 0.39096 0.18257 0.0
H1437 H 1.00212 0.36669 0.1606 0.0
H1438 H 0.08551 0.41064 0.12374 0.0
H1439 H 0.06982 0.41783 0.08097 0.0
H1440 H 0.63626 0.70832 0.29883 0.0
H1441 H 0.62368 0.6792 0.25779 0.0
H1442 H 0.65169 0.77091 0.21873 0.0
H1443 H 0.66724 0.80019 0.25969 0.0
H1444 H 0.58353 0.66557 0.22127 0.0
H1445 H 0.70673 0.7468 0.17923 0.0
H1446 H 0.6966 0.75469 0.21059 0.0
H1447 H 0.68507 0.76922 0.18285 0.0
C1448 C 0.63934 0.72207 0.28148 0.0
C1449 C 0.65235 0.75638 0.28254 0.0
C1450 C 0.63225 0.70547 0.2579 0.0
C1451 C 0.63747 0.72277 0.23473 0.0
C1452 C 0.64856 0.75691 0.23601 0.0
H1453 H 0.61211 0.67282 0.07398 0.0
H1454 H 0.62004 0.69704 0.11624 0.0
C1455 C 0.65681 0.77364 0.25956 0.0
C1456 C 0.63139 0.70505 0.20949 0.0
H1457 H 0.66514 0.70868 0.1505 0.0
C1458 C 0.60159 0.67497 0.20592 0.0
C1459 C 0.65464 0.71707 0.18904 0.0
C1460 C 0.68762 0.74855 0.19075 0.0
C1461 C 0.59414 0.65725 0.18265 0.0
C1462 C 0.61741 0.6694 0.16236 0.0
C1463 C 0.64725 0.69919 0.16598 0.0
C1464 C 0.61096 0.65301 0.13667 0.0
C1465 C 0.56089 0.62632 0.17976 0.0
C1466 C 0.60321 0.61988 0.13367 0.0
C1467 C 0.5983 0.60558 0.10915 0.0
C1468 C 0.6016 0.62429 0.08708 0.0
C1469 C 0.60958 0.65747 0.0903 0.0
C1470 C 0.6141 0.6715 0.11464 0.0
H1471 H 0.54277 0.62525 0.19411 0.0
H1472 H 0.55057 0.62471 0.16034 0.0
H1473 H 0.5638 0.60437 0.18267 0.0
H1474 H 0.60142 0.60518 0.15022 0.0
H1475 H 0.59229 0.58005 0.1075 0.0
H1476 H 0.37474 0.01083 0.08469 0.0
H1477 H 0.3515 0.99311 0.12735 0.0
H1478 H 0.43388 0.98051 0.14806 0.0
H1479 H 0.45705 0.99755 0.10475 0.0
H1480 H 0.33838 0.92564 0.14931 0.0
H1481 H 0.4189 0.03721 0.20791 0.0
H1482 H 0.41165 0.04048 0.17437 0.0
H1483 H 0.43727 0.02378 0.18371 0.0
C1484 C 0.38806 1.00436 0.09819 0.0
C1485 C 0.41761 1.00527 0.09101 0.0
C1486 C 0.37476 0.99437 0.12271 0.0
C1487 C 0.39082 0.98535 0.14091 0.0
C1488 C 0.42112 0.98753 0.13434 0.0
H1489 H 0.32693 0.92712 0.30032 0.0
H1490 H 0.35891 0.94185 0.2604 0.0
C1491 C 0.43445 0.99747 0.10961 0.0
C1492 C 0.3745 0.97186 0.16606 0.0
H1493 H 0.37473 0.9923 0.2289 0.0
C1494 C 0.34642 0.94013 0.16677 0.0
C1495 C 0.38511 0.99065 0.18884 0.0
C1496 C 0.41483 0.025 0.18894 0.0
C1497 C 0.32842 0.92687 0.18954 0.0
C1498 C 0.33816 0.94619 0.21219 0.0
C1499 C 0.36693 0.97756 0.2116 0.0
C1500 C 0.31819 0.93496 0.23633 0.0
C1501 C 0.29938 0.89206 0.18906 0.0
C1502 C 0.28455 0.926 0.23634 0.0
C1503 C 0.26628 0.91741 0.25915 0.0
C1504 C 0.28125 0.9178 0.28252 0.0
C1505 C 0.31463 0.92608 0.28256 0.0
C1506 C 0.33299 0.93481 0.25973 0.0
H1507 H 0.30213 0.87716 0.17367 0.0
H1508 H 0.29646 0.87935 0.20762 0.0
H1509 H 0.27641 0.89287 0.18516 0.0
H1510 H 0.27262 0.92676 0.21881 0.0
H1511 H 0.24064 0.91138 0.25865 0.0
H1512 H 0.41579 0.07048 0.96952 0.0
H1513 H 0.39861 0.08539 0.92985 0.0
H1514 H 0.45492 0.05162 0.8864 0.0
H1515 H 0.46874 0.0334 0.92595 0.0
H1516 H 0.42506 0.12576 0.89464 0.0
H1517 H 0.41911 0.02341 0.84981 0.0
H1518 H 0.37514 1.00468 0.84675 0.0
H1519 H 0.39349 0.01139 0.87791 0.0
C1520 C 0.4245 0.06637 0.95147 0.0
C1521 C 0.44384 0.05108 0.95089 0.0
C1522 C 0.41467 0.07487 0.92867 0.0
C1523 C 0.42463 0.06902 0.90464 0.0
C1524 C 0.44556 0.05531 0.90431 0.0
H1525 H 0.41839 0.1609 0.76113 0.0
H1526 H 0.43172 0.14945 0.80386 0.0
C1527 C 0.45418 0.04554 0.92707 0.0
C1528 C 0.41351 0.07781 0.88028 0.0
H1529 H 0.38173 0.04969 0.82042 0.0
C1530 C 0.41529 0.10881 0.8786 0.0
C1531 C 0.40067 0.05607 0.85889 0.0
C1532 C 0.39673 0.02197 0.85857 0.0
C1533 C 0.40504 0.11863 0.85653 0.0
C1534 C 0.39302 0.09718 0.83515 0.0
C1535 C 0.39089 0.06617 0.83678 0.0
C1536 C 0.3835 0.10659 0.81055 0.0
C1537 C 0.40684 0.1518 0.85647 0.0
C1538 C 0.35185 0.08655 0.79991 0.0
C1539 C 0.34416 0.09321 0.77545 0.0
C1540 C 0.36817 0.11968 0.76098 0.0
C1541 C 0.39935 0.14047 0.77198 0.0
C1542 C 0.40695 0.13398 0.79647 0.0
H1543 H 0.40702 0.16072 0.87623 0.0
H1544 H 0.43008 0.17019 0.84691 0.0
H1545 H 0.38568 0.15068 0.8459 0.0
H1546 H 0.33337 0.06516 0.81027 0.0
H1547 H 0.32011 0.07656 0.76728 0.0
H1548 H 1.01141 0.45984 0.93084 0.0
H1549 H 0.99412 0.42689 0.89155 0.0
H1550 H 0.92502 0.34134 0.93493 0.0
H1551 H 0.94294 0.37443 0.9743 0.0
H1552 H 0.95734 0.3239 0.90411 0.0
H1553 H 0.91676 0.39592 0.84631 0.0
H1554 H 0.95868 0.4215 0.8566 0.0
H1555 H 0.92579 0.40374 0.87994 0.0
C1556 C 0.9921 0.43413 0.93186 0.0
C1557 C 0.97882 0.41955 0.95564 0.0
C1558 C 0.98197 0.41528 0.90932 0.0
C1559 C 0.95793 0.38145 0.90996 0.0
C1560 C 0.94368 0.36726 0.93373 0.0
H1561 H 0.87474 0.27651 0.76664 0.0
H1562 H 0.88311 0.30145 0.80911 0.0
C1563 C 0.95379 0.3862 0.95627 0.0
C1564 C 0.94908 0.36065 0.88617 0.0
H1565 H 0.92769 0.35803 0.8233 0.0
C1566 C 0.95058 0.33127 0.8865 0.0
C1567 C 0.9397 0.36969 0.86311 0.0
C1568 C 0.93478 0.39924 0.86153 0.0
C1569 C 0.94367 0.31121 0.86455 0.0
C1570 C 0.93586 0.32112 0.84116 0.0
C1571 C 0.9339 0.35027 0.84098 0.0
C1572 C 0.92889 0.30169 0.81671 0.0
C1573 C 0.94412 0.27924 0.86697 0.0
C1574 C 0.95115 0.29231 0.80674 0.0
C1575 C 0.94568 0.27692 0.78264 0.0
C1576 C 0.91835 0.27143 0.76773 0.0
C1577 C 0.89582 0.28013 0.77786 0.0
C1578 C 0.90081 0.29469 0.80209 0.0
H1579 H 0.93954 0.27012 0.88702 0.0
H1580 H 0.92525 0.25968 0.85447 0.0
H1581 H 0.96891 0.28352 0.86135 0.0
H1582 H 0.97356 0.29819 0.81701 0.0
H1583 H 0.96393 0.27134 0.77495 0.0
H1584 H 0.76614 0.71233 0.77271 0.0
H1585 H 0.74145 0.69503 0.8154 0.0
H1586 H 0.74568 0.60512 0.80806 0.0
H1587 H 0.76898 0.62187 0.76509 0.0
H1588 H 0.68657 0.59014 0.82094 0.0
H1589 H 0.77092 0.69061 0.88593 0.0
H1590 H 0.75741 0.70591 0.85993 0.0
H1591 H 0.78249 0.6873 0.85356 0.0
C1592 C 0.763 0.68954 0.78072 0.0
C1593 C 0.76981 0.6686 0.76579 0.0
C1594 C 0.74879 0.67956 0.80515 0.0
C1595 C 0.7418 0.64876 0.81529 0.0
C1596 C 0.75067 0.62892 0.80084 0.0
H1597 H 0.66213 0.5864 0.971 0.0
H1598 H 0.69737 0.6015 0.93272 0.0
C1599 C 0.76432 0.63863 0.77636 0.0
C1600 C 0.7221 0.63544 0.83944 0.0
H1601 H 0.71686 0.65323 0.90222 0.0
C1602 C 0.69344 0.604 0.83871 0.0
C1603 C 0.73097 0.65301 0.86292 0.0
C1604 C 0.76232 0.68591 0.86575 0.0
C1605 C 0.67319 0.59009 0.86037 0.0
C1606 C 0.68114 0.60836 0.88348 0.0
C1607 C 0.7103 0.63936 0.88448 0.0
C1608 C 0.65911 0.59633 0.90653 0.0
C1609 C 0.64375 0.55563 0.85824 0.0
C1610 C 0.62566 0.58775 0.90473 0.0
C1611 C 0.60566 0.57921 0.92661 0.0
C1612 C 0.61869 0.57942 0.95083 0.0
C1613 C 0.6516 0.58638 0.95259 0.0
C1614 C 0.67175 0.59514 0.93071 0.0
H1615 H 0.64764 0.5411 0.84317 0.0
H1616 H 0.63861 0.54203 0.87662 0.0
H1617 H 0.6216 0.55724 0.85282 0.0
H1618 H 0.6153 0.58909 0.88656 0.0
H1619 H 0.58029 0.57377 0.92474 0.0
H1620 H 0.72355 0.74071 0.41191 0.0
H1621 H 0.73574 0.73112 0.455 0.0
H1622 H 0.6875 0.78207 0.48543 0.0
H1623 H 0.67464 0.79166 0.44174 0.0
H1624 H 0.77363 0.77731 0.49147 0.0
H1625 H 0.64558 0.69575 0.52713 0.0
H1626 H 0.65491 0.70456 0.49356 0.0
H1627 H 0.65404 0.73489 0.5142 0.0
C1628 C 0.71504 0.74971 0.42755 0.0
C1629 C 0.69781 0.76689 0.42297 0.0
C1630 C 0.72227 0.74426 0.45238 0.0
C1631 C 0.71243 0.7556 0.47364 0.0
C1632 C 0.69498 0.77259 0.4694 0.0
H1633 H 0.79494 0.7609 0.62691 0.0
H1634 H 0.7806 0.77678 0.5863 0.0
C1635 C 0.68772 0.77816 0.44434 0.0
C1636 C 0.7215 0.75008 0.49991 0.0
H1637 H 0.68914 0.70872 0.5561 0.0
C1638 C 0.75513 0.76253 0.50567 0.0
C1639 C 0.69744 0.73045 0.51841 0.0
C1640 C 0.66093 0.71535 0.51309 0.0
C1641 C 0.76531 0.75561 0.5291 0.0
C1642 C 0.74127 0.73602 0.54764 0.0
C1643 C 0.70763 0.72386 0.54201 0.0
C1644 C 0.7504 0.72666 0.57245 0.0
C1645 C 0.80171 0.76836 0.53339 0.0
C1646 C 0.73801 0.69318 0.57852 0.0
C1647 C 0.7462 0.68403 0.60174 0.0
C1648 C 0.76681 0.70813 0.61964 0.0
C1649 C 0.77939 0.74168 0.61348 0.0
C1650 C 0.77116 0.75081 0.59022 0.0
H1651 H 0.81593 0.77591 0.51519 0.0
H1652 H 0.81182 0.79033 0.5461 0.0
H1653 H 0.80575 0.74933 0.54275 0.0
H1654 H 0.72199 0.67403 0.56522 0.0
H1655 H 0.73598 0.65797 0.6058 0.0
H1656 H 0.23815 0.90358 0.44094 0.0
H1657 H 0.24344 0.92557 0.48456 0.0
H1658 H 0.30698 0.02432 0.45638 0.0
H1659 H 0.30197 1.00302 0.41333 0.0
H1660 H 0.30042 0.96503 0.51592 0.0
H1661 H 0.23372 0.03232 0.49394 0.0
H1662 H 0.2319 1.00028 0.4734 0.0
H1663 H 0.26687 0.04154 0.47198 0.0
C1664 C 0.25345 0.92993 0.44402 0.0
C1665 C 0.26934 0.95137 0.42326 0.0
C1666 C 0.25637 0.94251 0.46902 0.0
C1667 C 0.27498 0.97676 0.47373 0.0
C1668 C 0.2918 0.99792 0.45325 0.0
H1669 H 0.37043 0.09754 0.60385 0.0
H1670 H 0.35273 0.06514 0.5646 0.0
C1671 C 0.28903 0.98549 0.42848 0.0
C1672 C 0.27733 0.99091 0.49986 0.0
H1673 H 0.26634 0.04858 0.53227 0.0
C1674 C 0.29254 0.98293 0.51959 0.0
C1675 C 0.26669 0.01401 0.5049 0.0
C1676 C 0.24858 0.02234 0.48502 0.0
C1677 C 0.29892 0.99867 0.54364 0.0
C1678 C 0.2902 0.02333 0.5481 0.0
C1679 C 0.27339 0.03 0.52886 0.0
C1680 C 0.30035 0.04389 0.57191 0.0
C1681 C 0.31536 0.98903 0.56404 0.0
C1682 C 0.27685 0.04396 0.58883 0.0
C1683 C 0.28697 0.06273 0.61154 0.0
C1684 C 0.3208 0.08196 0.61764 0.0
C1685 C 0.34415 0.08277 0.60007 0.0
C1686 C 0.33407 0.06403 0.57758 0.0
H1687 H 0.31161 0.96389 0.56061 0.0
H1688 H 0.34238 1.00677 0.56385 0.0
H1689 H 0.3057 0.98969 0.58334 0.0
H1690 H 0.25067 0.02889 0.58476 0.0
H1691 H 0.26833 0.06141 0.62464 0.0
H1692 H 0.98677 0.26349 0.63748 0.0
H1693 H 0.01593 0.27785 0.5965 0.0
H1694 H 0.92323 0.24554 0.55735 0.0
H1695 H 0.89466 0.23384 0.59877 0.0
H1696 H 0.01866 0.25006 0.55717 0.0
H1697 H 0.97085 0.33069 0.52405 0.0
H1698 H 0.95953 0.31092 0.55478 0.0
H1699 H 0.938 0.2887 0.52643 0.0
C1700 C 0.97263 0.25906 0.62005 0.0
C1701 C 0.93852 0.2475 0.62121 0.0
C1702 C 0.98933 0.26744 0.59653 0.0
C1703 C 0.97219 0.26382 0.57348 0.0
C1704 C 0.93755 0.25012 0.57467 0.0
H1705 H 0.05992 0.26998 0.42412 0.0
H1706 H 0.03277 0.25422 0.46587 0.0
C1707 C 0.92103 0.24284 0.59833 0.0
C1708 C 0.99081 0.27436 0.54854 0.0
H1709 H 1.0009 0.31806 0.49336 0.0
C1710 C 1.01483 0.26519 0.54342 0.0
C1711 C 0.98635 0.29436 0.53027 0.0
C1712 C 0.96253 0.30698 0.5343 0.0
C1713 C 0.03417 0.27522 0.52098 0.0
C1714 C 0.02885 0.29419 0.50245 0.0
C1715 C 1.00504 0.3035 0.50748 0.0
C1716 C 0.04716 0.30415 0.47754 0.0
C1717 C 0.06065 0.26593 0.51767 0.0
C1718 C 0.06418 0.3375 0.46979 0.0
C1719 C 0.0794 0.34653 0.44564 0.0
C1720 C 0.07755 0.32232 0.42863 0.0
C1721 C 0.06152 0.28917 0.43674 0.0
C1722 C 0.04621 0.28015 0.46075 0.0
H1723 H 0.06883 0.26133 0.53641 0.0
H1724 H 0.05053 0.2428 0.50631 0.0
H1725 H 0.08259 0.28559 0.50751 0.0
H1726 H 0.06528 0.35654 0.48231 0.0
H1727 H 0.09151 0.37225 0.43991 0.0
loop_
_geom_bond_atom_site_label_1
_geom_bond_atom_site_label_2
_geom_bond_distance
_geom_bond_site_symmetry_2
_ccdc_geom_bond_type
Tb0 N29 2.617 . S
Tb0 N35 2.572 1_556 S
Tb0 O44 2.465 1_556 S
Tb0 O45 2.387 1_455 S
Tb0 O47 2.428 . S
Tb0 O48 2.308 1_556 S
Tb0 O52 2.349 . S
Tb0 O55 2.393 . S
Tb0 C64 2.802 . S
C1 N2 1.385 1_455 S
C1 C4 1.416 . S
C1 C8 1.424 . S
N2 C1 1.385 1_655 S
N2 C5 1.331 1_655 S
N2 Tb11 2.614 . S
C3 C5 1.390 . S
C3 C6 1.339 . S
C3 H23 0.930 . S
C4 C1 1.416 . S
C4 C6 1.416 . S
C4 C10 1.448 . S
C5 N2 1.331 1_455 S
C5 C3 1.390 . S
C5 H16 0.930 1_455 S
C6 C3 1.339 . S
C6 C4 1.416 . S
C6 H27 0.930 . S
C7 C8 1.429 . S
C7 C9 1.454 . S
C7 C13 1.373 1_554 S
C8 C1 1.424 . S
C8 C7 1.429 . S
C8 N12 1.361 1_454 S
C9 C7 1.454 . S
C9 C10 1.328 . S
C9 H24 0.929 . S
C10 C4 1.448 . S
C10 C9 1.328 . S
C10 H25 0.930 . S
Tb11 N2 2.614 . S
Tb11 N12 2.572 1_554 S
Tb11 O46 2.349 . S
Tb11 O49 2.393 . S
Tb11 O50 2.465 1_554 S
Tb11 O51 2.387 1_655 S
Tb11 O53 2.428 . S
Tb11 O54 2.308 1_554 S
Tb11 C75 2.802 . S
N12 C8 1.361 1_656 S
N12 Tb11 2.572 1_556 S
N12 C14 1.340 . S
C13 C7 1.373 1_556 S
C13 C15 1.332 . S
C13 H21 0.931 . S
C14 N12 1.340 . S
C14 C15 1.407 1_655 S
C14 H20 0.930 . S
C15 C13 1.332 . S
C15 C14 1.407 1_455 S
C15 H17 0.929 . S
H16 C5 0.930 1_655 S
H17 C15 0.929 . S
H18 C33 0.930 . S
H19 C40 0.929 . S
H20 C14 0.930 . S
H21 C13 0.931 . S
H22 C36 0.930 . S
H23 C3 0.930 . S
H24 C9 0.929 . S
H25 C10 0.930 . S
H26 C31 0.930 . S
H27 C6 0.930 . S
H28 C39 0.931 . S
N29 Tb0 2.617 . S
N29 C30 1.379 . S
N29 C33 1.334 . S
C30 N29 1.379 . S
C30 C32 1.416 1_455 S
C30 C38 1.424 . S
C31 H26 0.930 . S
C31 C33 1.390 1_655 S
C31 C34 1.339 . S
C32 C30 1.416 1_655 S
C32 C34 1.416 . S
C32 C65 1.448 . S
C33 H18 0.930 . S
C33 N29 1.334 . S
C33 C31 1.390 1_455 S
C34 C31 1.339 . S
C34 C32 1.416 . S
C34 H41 0.930 . S
N35 Tb0 2.572 1_554 S
N35 C36 1.340 . S
N35 C38 1.361 1_554 S
C36 H22 0.930 . S
C36 N35 1.340 . S
C36 C40 1.407 . S
C37 C38 1.413 1_654 S
C37 C39 1.416 . S
C37 C66 1.427 1_554 S
C38 C30 1.424 . S
C38 N35 1.361 1_556 S
C38 C37 1.413 1_456 S
C39 H28 0.931 . S
C39 C37 1.416 . S
C39 C40 1.332 1_655 S
C40 H19 0.929 . S
C40 C36 1.407 . S
C40 C39 1.332 1_455 S
H41 C34 0.930 . S
H42 C65 0.930 . S
H43 C66 0.929 . S
O44 Tb0 2.465 1_554 S
O44 C64 1.264 1_554 S
O45 Tb0 2.387 1_655 S
O45 C56 1.264 1_556 S
O46 Tb11 2.349 . S
O46 C56 1.243 . S
O47 Tb0 2.428 . S
O47 C64 1.256 . S
O48 Tb0 2.308 1_554 S
O48 C63 1.266 . S
O49 Tb11 2.393 . S
O49 C63 1.248 1_655 S
O50 Tb11 2.465 1_556 S
O50 C75 1.264 1_556 S
O51 Tb11 2.387 1_455 S
O51 C67 1.264 1_554 S
O52 Tb0 2.349 . S
O52 C67 1.243 . S
O53 Tb11 2.428 . S
O53 C75 1.256 . S
O54 Tb11 2.308 1_556 S
O54 C74 1.266 . S
O55 Tb0 2.393 . S
O55 C74 1.248 1_455 S
C56 O45 1.264 1_554 S
C56 O46 1.243 . S
C57 C60 1.399 . S
C57 C62 1.383 1_556 S
C57 C64 1.496 . S
C58 C59 1.399 1_554 S
C58 C62 1.389 . S
C59 C58 1.399 1_556 S
C59 C61 1.380 . S
C59 H76 0.929 . S
C60 C57 1.399 . S
C60 C61 1.392 . S
C60 H77 0.929 . S
C61 C59 1.380 . S
C61 C60 1.392 . S
C61 H78 0.929 . S
C62 C57 1.383 1_554 S
C62 C58 1.389 . S
C62 H79 0.931 . S
C63 O48 1.266 . S
C63 O49 1.248 1_455 S
C64 Tb0 2.802 . S
C64 O44 1.264 1_556 S
C64 O47 1.256 . S
C64 C57 1.496 . S
C65 C32 1.448 . S
C65 H42 0.930 . S
C65 C66 1.328 . S
C66 C37 1.427 1_556 S
C66 H43 0.929 . S
C66 C65 1.328 . S
C67 O51 1.264 1_556 S
C67 O52 1.243 . S
C68 C71 1.399 . S
C68 C72 1.383 1_554 S
C68 C75 1.496 . S
C69 C70 1.399 1_556 S
C69 C72 1.389 . S
C70 C69 1.399 1_554 S
C70 C73 1.380 . S
C70 H80 0.929 . S
C71 C68 1.399 . S
C71 C73 1.392 . S
C71 H81 0.929 . S
C72 C68 1.383 1_556 S
C72 C69 1.389 . S
C72 H82 0.931 . S
C73 C70 1.380 . S
C73 C71 1.392 . S
C73 H83 0.929 . S
C74 O54 1.266 . S
C74 O55 1.248 1_655 S
C75 Tb11 2.802 . S
C75 O50 1.264 1_554 S
C75 O53 1.256 . S
C75 C68 1.496 . S
H76 C59 0.929 . S
H77 C60 0.929 . S
H78 C61 0.929 . S
H79 C62 0.931 . S
H80 C70 0.929 . S
H81 C71 0.929 . S
H82 C72 0.931 . S
H83 C73 0.929 . S
Tb84 N113 2.617 . S
Tb84 N119 2.572 1_556 S
Tb84 O128 2.465 1_556 S
Tb84 O129 2.387 . S
Tb84 O131 2.428 . S
Tb84 O132 2.308 1_556 S
Tb84 O136 2.349 . S
Tb84 O139 2.393 . S
Tb84 C148 2.802 . S
C85 N86 1.379 . S
C85 C88 1.416 . S
C85 C92 1.424 . S
N86 C85 1.379 . S
N86 C89 1.334 . S
N86 Tb95 2.617 . S
C87 C89 1.390 . S
C87 C90 1.339 . S
C87 H107 0.930 . S
C88 C85 1.416 . S
C88 C90 1.416 . S
C88 C94 1.448 . S
C89 N86 1.334 . S
C89 C87 1.390 . S
C89 H100 0.930 . S
C90 C87 1.339 . S
C90 C88 1.416 . S
C90 H111 0.930 . S
C91 C92 1.429 . S
C91 C93 1.454 . S
C91 C97 1.373 1_554 S
C92 C85 1.424 . S
C92 C91 1.429 . S
C92 N96 1.361 1_554 S
C93 C91 1.454 . S
C93 C94 1.328 . S
C93 H108 0.929 . S
C94 C88 1.448 . S
C94 C93 1.328 . S
C94 H109 0.930 . S
Tb95 N86 2.617 . S
Tb95 N96 2.572 1_554 S
Tb95 O130 2.349 . S
Tb95 O133 2.393 . S
Tb95 O134 2.465 1_554 S
Tb95 O135 2.387 . S
Tb95 O137 2.428 . S
Tb95 O138 2.308 1_554 S
Tb95 C159 2.802 . S
N96 C92 1.361 1_556 S
N96 Tb95 2.572 1_556 S
N96 C98 1.340 . S
C97 C91 1.373 1_556 S
C97 C99 1.332 . S
C97 H105 0.931 . S
C98 N96 1.340 . S
C98 C99 1.407 . S
C98 H104 0.930 . S
C99 C97 1.332 . S
C99 C98 1.407 . S
C99 H101 0.929 . S
H100 C89 0.930 . S
H101 C99 0.929 . S
H102 C117 0.930 . S
H103 C124 0.929 . S
H104 C98 0.930 . S
H105 C97 0.931 . S
H106 C120 0.930 . S
H107 C87 0.930 . S
H108 C93 0.929 . S
H109 C94 0.930 . S
H110 C115 0.930 . S
H111 C90 0.930 . S
H112 C123 0.931 . S
N113 Tb84 2.617 . S
N113 C114 1.379 . S
N113 C117 1.334 . S
C114 N113 1.379 . S
C114 C116 1.416 . S
C114 C122 1.424 . S
C115 H110 0.930 . S
C115 C117 1.390 . S
C115 C118 1.339 . S
C116 C114 1.416 . S
C116 C118 1.416 . S
C116 C149 1.448 . S
C117 H102 0.930 . S
C117 N113 1.334 . S
C117 C115 1.390 . S
C118 C115 1.339 . S
C118 C116 1.416 . S
C118 H125 0.930 . S
N119 Tb84 2.572 1_554 S
N119 C120 1.340 . S
N119 C122 1.361 1_554 S
C120 H106 0.930 . S
C120 N119 1.340 . S
C120 C124 1.407 . S
C121 C122 1.413 1_554 S
C121 C123 1.416 . S
C121 C150 1.427 1_554 S
C122 C114 1.424 . S
C122 N119 1.361 1_556 S
C122 C121 1.413 1_556 S
C123 H112 0.931 . S
C123 C121 1.416 . S
C123 C124 1.332 . S
C124 H103 0.929 . S
C124 C120 1.407 . S
C124 C123 1.332 . S
H125 C118 0.930 . S
H126 C149 0.930 . S
H127 C150 0.929 . S
O128 Tb84 2.465 1_554 S
O128 C148 1.264 1_554 S
O129 Tb84 2.387 . S
O129 C140 1.264 1_556 S
O130 Tb95 2.349 . S
O130 C140 1.243 . S
O131 Tb84 2.428 . S
O131 C148 1.256 . S
O132 Tb84 2.308 1_554 S
O132 C147 1.266 . S
O133 Tb95 2.393 . S
O133 C147 1.248 . S
O134 Tb95 2.465 1_556 S
O134 C159 1.264 1_556 S
O135 Tb95 2.387 . S
O135 C151 1.264 1_554 S
O136 Tb84 2.349 . S
O136 C151 1.243 . S
O137 Tb95 2.428 . S
O137 C159 1.256 . S
O138 Tb95 2.308 1_556 S
O138 C158 1.266 . S
O139 Tb84 2.393 . S
O139 C158 1.248 . S
C140 O129 1.264 1_554 S
C140 O130 1.243 . S
C141 C144 1.399 . S
C141 C146 1.383 1_556 S
C141 C148 1.496 . S
C142 C143 1.399 1_554 S
C142 C146 1.389 . S
C143 C142 1.399 1_556 S
C143 C145 1.380 . S
C143 H160 0.929 . S
C144 C141 1.399 . S
C144 C145 1.392 . S
C144 H161 0.929 . S
C145 C143 1.380 . S
C145 C144 1.392 . S
C145 H162 0.929 . S
C146 C141 1.383 1_554 S
C146 C142 1.389 . S
C146 H163 0.931 . S
C147 O132 1.266 . S
C147 O133 1.248 . S
C148 Tb84 2.802 . S
C148 O128 1.264 1_556 S
C148 O131 1.256 . S
C148 C141 1.496 . S
C149 C116 1.448 . S
C149 H126 0.930 . S
C149 C150 1.328 . S
C150 C121 1.427 1_556 S
C150 H127 0.929 . S
C150 C149 1.328 . S
C151 O135 1.264 1_556 S
C151 O136 1.243 . S
C152 C155 1.399 . S
C152 C156 1.383 1_554 S
C152 C159 1.496 . S
C153 C154 1.399 1_556 S
C153 C156 1.389 . S
C154 C153 1.399 1_554 S
C154 C157 1.380 . S
C154 H164 0.929 . S
C155 C152 1.399 . S
C155 C157 1.392 . S
C155 H165 0.929 . S
C156 C152 1.383 1_556 S
C156 C153 1.389 . S
C156 H166 0.931 . S
C157 C154 1.380 . S
C157 C155 1.392 . S
C157 H167 0.929 . S
C158 O138 1.266 . S
C158 O139 1.248 . S
C159 Tb95 2.802 . S
C159 O134 1.264 1_554 S
C159 O137 1.256 . S
C159 C152 1.496 . S
H160 C143 0.929 . S
H161 C144 0.929 . S
H162 C145 0.929 . S
H163 C146 0.931 . S
H164 C154 0.929 . S
H165 C155 0.929 . S
H166 C156 0.931 . S
H167 C157 0.929 . S
Tb168 N197 2.617 . S
Tb168 N203 2.572 1_556 S
Tb168 O212 2.465 1_556 S
Tb168 O213 2.387 1_565 S
Tb168 O215 2.428 . S
Tb168 O216 2.308 1_556 S
Tb168 O220 2.349 . S
Tb168 O223 2.393 . S
Tb168 C232 2.802 . S
C169 N170 1.389 . S
C169 C172 1.407 1_545 S
C169 C176 1.423 . S
N170 C169 1.389 . S
N170 C173 1.334 . S
N170 Tb179 2.617 . S
C171 C173 1.390 1_565 S
C171 C174 1.339 . S
C171 H191 0.930 . S
C172 C169 1.407 1_565 S
C172 C174 1.416 . S
C172 C178 1.448 . S
C173 N170 1.334 . S
C173 C171 1.390 1_545 S
C173 H184 0.930 . S
C174 C171 1.339 . S
C174 C172 1.416 . S
C174 H195 0.930 . S
C175 C176 1.429 1_565 S
C175 C177 1.454 . S
C175 C181 1.373 1_554 S
C176 C169 1.423 . S
C176 C175 1.429 1_545 S
C176 N180 1.361 1_554 S
C177 C175 1.454 . S
C177 C178 1.328 . S
C177 H192 0.929 . S
C178 C172 1.448 . S
C178 C177 1.328 . S
C178 H193 0.930 . S
Tb179 N170 2.617 . S
Tb179 N180 2.572 1_554 S
Tb179 O214 2.349 . S
Tb179 O217 2.393 . S
Tb179 O218 2.465 1_554 S
Tb179 O219 2.387 1_545 S
Tb179 O221 2.428 . S
Tb179 O222 2.308 1_554 S
Tb179 C243 2.802 . S
N180 C176 1.361 1_556 S
N180 Tb179 2.572 1_556 S
N180 C182 1.340 . S
C181 C175 1.373 1_556 S
C181 C183 1.332 1_565 S
C181 H189 0.931 . S
C182 N180 1.340 . S
C182 C183 1.407 . S
C182 H188 0.930 . S
C183 C181 1.332 1_545 S
C183 C182 1.407 . S
C183 H185 0.929 . S
H184 C173 0.930 . S
H185 C183 0.929 . S
H186 C201 0.958 . S
H187 C208 0.929 . S
H188 C182 0.930 . S
H189 C181 0.931 . S
H190 C204 0.930 . S
H191 C171 0.930 . S
H192 C177 0.929 . S
H193 C178 0.930 . S
H194 C199 0.930 . S
H195 C174 0.930 . S
H196 C207 0.931 . S
N197 Tb168 2.617 . S
N197 C198 1.379 1_565 S
N197 C201 1.334 . S
C198 N197 1.379 1_545 S
C198 C200 1.416 . S
C198 C206 1.424 . S
C199 H194 0.930 . S
C199 C201 1.365 1_545 S
C199 C202 1.339 . S
C200 C198 1.416 . S
C200 C202 1.416 . S
C200 C233 1.448 . S
C201 H186 0.958 . S
C201 N197 1.334 . S
C201 C199 1.365 1_565 S
C202 C199 1.339 . S
C202 C200 1.416 . S
C202 H209 0.930 . S
N203 Tb168 2.572 1_554 S
N203 C204 1.340 . S
N203 C206 1.361 1_564 S
C204 H190 0.930 . S
C204 N203 1.340 . S
C204 C208 1.407 1_565 S
C205 C206 1.413 1_554 S
C205 C207 1.416 . S
C205 C234 1.427 1_554 S
C206 C198 1.424 . S
C206 N203 1.361 1_546 S
C206 C205 1.413 1_556 S
C207 H196 0.931 . S
C207 C205 1.416 . S
C207 C208 1.332 . S
C208 H187 0.929 . S
C208 C204 1.407 1_545 S
C208 C207 1.332 . S
H209 C202 0.930 . S
H210 C233 0.930 . S
H211 C234 0.929 . S
O212 Tb168 2.465 1_554 S
O212 C232 1.264 1_554 S
O213 Tb168 2.387 1_545 S
O213 C224 1.264 1_556 S
O214 Tb179 2.349 . S
O214 C224 1.243 . S
O215 Tb168 2.428 . S
O215 C232 1.256 . S
O216 Tb168 2.308 1_554 S
O216 C231 1.266 . S
O217 Tb179 2.393 . S
O217 C231 1.248 1_545 S
O218 Tb179 2.465 1_556 S
O218 C243 1.264 1_556 S
O219 Tb179 2.387 1_565 S
O219 C235 1.264 1_554 S
O220 Tb168 2.349 . S
O220 C235 1.243 . S
O221 Tb179 2.428 . S
O221 C243 1.256 . S
O222 Tb179 2.308 1_556 S
O222 C242 1.266 . S
O223 Tb168 2.393 . S
O223 C242 1.248 1_565 S
C224 O213 1.264 1_554 S
C224 O214 1.243 . S
C225 C228 1.399 . S
C225 C230 1.383 1_556 S
C225 C232 1.496 . S
C226 C227 1.399 1_554 S
C226 C230 1.389 . S
C227 C226 1.399 1_556 S
C227 C229 1.380 . S
C227 H244 0.929 . S
C228 C225 1.399 . S
C228 C229 1.392 . S
C228 H245 0.929 . S
C229 C227 1.380 . S
C229 C228 1.392 . S
C229 H246 0.929 . S
C230 C225 1.383 1_554 S
C230 C226 1.389 . S
C230 H247 0.931 . S
C231 O216 1.266 . S
C231 O217 1.248 1_565 S
C232 Tb168 2.802 . S
C232 O212 1.264 1_556 S
C232 O215 1.256 . S
C232 C225 1.496 . S
C233 C200 1.448 . S
C233 H210 0.930 . S
C233 C234 1.328 . S
C234 C205 1.427 1_556 S
C234 H211 0.929 . S
C234 C233 1.328 . S
C235 O219 1.264 1_556 S
C235 O220 1.243 . S
C236 C239 1.399 . S
C236 C240 1.383 1_554 S
C236 C243 1.496 . S
C237 C238 1.399 1_556 S
C237 C240 1.389 . S
C238 C237 1.399 1_554 S
C238 C241 1.380 . S
C238 H248 0.929 . S
C239 C236 1.399 . S
C239 C241 1.392 . S
C239 H249 0.929 . S
C240 C236 1.383 1_556 S
C240 C237 1.389 . S
C240 H250 0.931 . S
C241 C238 1.380 . S
C241 C239 1.392 . S
C241 H251 0.929 . S
C242 O222 1.266 . S
C242 O223 1.248 1_545 S
C243 Tb179 2.802 . S
C243 O218 1.264 1_554 S
C243 O221 1.256 . S
C243 C236 1.496 . S
H244 C227 0.929 . S
H245 C228 0.929 . S
H246 C229 0.929 . S
H247 C230 0.931 . S
H248 C238 0.929 . S
H249 C239 0.929 . S
H250 C240 0.931 . S
H251 C241 0.929 . S
Tb252 N281 2.617 . S
Tb252 N287 2.572 . S
Tb252 O296 2.465 . S
Tb252 O297 2.387 . S
Tb252 O299 2.428 . S
Tb252 O300 2.308 . S
Tb252 O304 2.349 . S
Tb252 O307 2.393 . S
Tb252 C316 2.802 . S
C253 N254 1.379 . S
C253 C256 1.416 . S
C253 C260 1.424 . S
N254 C253 1.379 . S
N254 C257 1.334 . S
N254 Tb263 2.617 . S
C255 C257 1.390 . S
C255 C258 1.339 . S
C255 H275 0.930 . S
C256 C253 1.416 . S
C256 C258 1.416 . S
C256 C262 1.448 . S
C257 N254 1.334 . S
C257 C255 1.390 . S
C257 H268 0.930 . S
C258 C255 1.339 . S
C258 C256 1.416 . S
C258 H279 0.930 . S
C259 C260 1.413 . S
C259 C261 1.427 . S
C259 C265 1.416 . S
C260 C253 1.424 . S
C260 C259 1.413 . S
C260 N264 1.361 . S
C261 C259 1.427 . S
C261 C262 1.328 . S
C261 H276 0.929 . S
C262 C256 1.448 . S
C262 C261 1.328 . S
C262 H277 0.930 . S
Tb263 N254 2.617 . S
Tb263 N264 2.572 . S
Tb263 O298 2.349 . S
Tb263 O301 2.393 . S
Tb263 O302 2.465 . S
Tb263 O303 2.387 . S
Tb263 O305 2.428 . S
Tb263 O306 2.308 . S
Tb263 C327 2.802 . S
N264 C260 1.361 . S
N264 Tb263 2.572 . S
N264 C266 1.340 . S
C265 C259 1.416 . S
C265 C267 1.332 . S
C265 H273 0.931 . S
C266 N264 1.340 . S
C266 C267 1.407 . S
C266 H272 0.930 . S
C267 C265 1.332 . S
C267 C266 1.407 . S
C267 H269 0.929 . S
H268 C257 0.930 . S
H269 C267 0.929 . S
H270 C285 0.930 . S
H271 C292 0.929 . S
H272 C266 0.930 . S
H273 C265 0.931 . S
H274 C288 0.930 . S
H275 C255 0.930 . S
H276 C261 0.929 . S
H277 C262 0.930 . S
H278 C283 0.930 . S
H279 C258 0.930 . S
H280 C291 0.931 . S
N281 Tb252 2.617 . S
N281 C282 1.379 . S
N281 C285 1.334 . S
C282 N281 1.379 . S
C282 C284 1.416 . S
C282 C290 1.424 . S
C283 H278 0.930 . S
C283 C285 1.390 . S
C283 C286 1.339 . S
C284 C282 1.416 . S
C284 C286 1.416 . S
C284 C317 1.448 . S
C285 H270 0.930 . S
C285 N281 1.334 . S
C285 C283 1.390 . S
C286 C283 1.339 . S
C286 C284 1.416 . S
C286 H293 0.930 . S
N287 Tb252 2.572 . S
N287 C288 1.340 . S
N287 C290 1.361 . S
C288 H274 0.930 . S
C288 N287 1.340 . S
C288 C292 1.407 . S
C289 C290 1.413 . S
C289 C291 1.416 . S
C289 C318 1.427 . S
C290 C282 1.424 . S
C290 N287 1.361 . S
C290 C289 1.413 . S
C291 H280 0.931 . S
C291 C289 1.416 . S
C291 C292 1.332 . S
C292 H271 0.929 . S
C292 C288 1.407 . S
C292 C291 1.332 . S
H293 C286 0.930 . S
H294 C317 0.930 . S
H295 C318 0.929 . S
O296 Tb252 2.465 . S
O296 C316 1.264 . S
O297 Tb252 2.387 . S
O297 C308 1.264 . S
O298 Tb263 2.349 . S
O298 C308 1.243 . S
O299 Tb252 2.428 . S
O299 C316 1.256 . S
O300 Tb252 2.308 . S
O300 C315 1.266 . S
O301 Tb263 2.393 . S
O301 C315 1.248 . S
O302 Tb263 2.465 . S
O302 C327 1.264 . S
O303 Tb263 2.387 . S
O303 C319 1.264 . S
O304 Tb252 2.349 . S
O304 C319 1.243 . S
O305 Tb263 2.428 . S
O305 C327 1.256 . S
O306 Tb263 2.308 . S
O306 C326 1.266 . S
O307 Tb252 2.393 . S
O307 C326 1.248 . S
C308 O297 1.264 . S
C308 O298 1.243 . S
C309 C312 1.399 . S
C309 C314 1.383 . S
C309 C316 1.496 . S
C310 C311 1.399 . S
C310 C314 1.389 . S
C311 C310 1.399 . S
C311 C313 1.380 . S
C311 H328 0.929 . S
C312 C309 1.399 . S
C312 C313 1.392 . S
C312 H329 0.929 . S
C313 C311 1.380 . S
C313 C312 1.392 . S
C313 H330 0.929 . S
C314 C309 1.383 . S
C314 C310 1.389 . S
C314 H331 0.931 . S
C315 O300 1.266 . S
C315 O301 1.248 . S
C316 Tb252 2.802 . S
C316 O296 1.264 . S
C316 O299 1.256 . S
C316 C309 1.496 . S
C317 C284 1.448 . S
C317 H294 0.930 . S
C317 C318 1.328 . S
C318 C289 1.427 . S
C318 H295 0.929 . S
C318 C317 1.328 . S
C319 O303 1.264 . S
C319 O304 1.243 . S
C320 C323 1.399 . S
C320 C324 1.383 . S
C320 C327 1.496 . S
C321 C322 1.399 . S
C321 C324 1.389 . S
C322 C321 1.399 . S
C322 C325 1.380 . S
C322 H332 0.929 . S
C323 C320 1.399 . S
C323 C325 1.392 . S
C323 H333 0.929 . S
C324 C320 1.383 . S
C324 C321 1.389 . S
C324 H334 0.931 . S
C325 C322 1.380 . S
C325 C323 1.392 . S
C325 H335 0.929 . S
C326 O306 1.266 . S
C326 O307 1.248 . S
C327 Tb263 2.802 . S
C327 O302 1.264 . S
C327 O305 1.256 . S
C327 C320 1.496 . S
H328 C311 0.929 . S
H329 C312 0.929 . S
H330 C313 0.929 . S
H331 C314 0.931 . S
H332 C322 0.929 . S
H333 C323 0.929 . S
H334 C324 0.931 . S
H335 C325 0.929 . S
Tb336 N365 2.617 . S
Tb336 N371 2.572 . S
Tb336 O380 2.465 . S
Tb336 O381 2.387 . S
Tb336 O383 2.428 . S
Tb336 O384 2.308 . S
Tb336 O388 2.349 . S
Tb336 O391 2.393 . S
Tb336 C400 2.802 . S
C337 N338 1.379 . S
C337 C340 1.416 . S
C337 C344 1.424 . S
N338 C337 1.379 . S
N338 C341 1.334 . S
N338 Tb347 2.617 . S
C339 C341 1.390 . S
C339 C342 1.339 . S
C339 H359 0.930 . S
C340 C337 1.416 . S
C340 C342 1.416 . S
C340 C346 1.448 . S
C341 N338 1.334 . S
C341 C339 1.390 . S
C341 H352 0.930 . S
C342 C339 1.339 . S
C342 C340 1.416 . S
C342 H363 0.930 . S
C343 C344 1.413 . S
C343 C345 1.427 . S
C343 C349 1.416 . S
C344 C337 1.424 . S
C344 C343 1.413 . S
C344 N348 1.361 . S
C345 C343 1.427 . S
C345 C346 1.328 . S
C345 H360 0.929 . S
C346 C340 1.448 . S
C346 C345 1.328 . S
C346 H361 0.930 . S
Tb347 N338 2.617 . S
Tb347 N348 2.572 . S
Tb347 O382 2.349 . S
Tb347 O385 2.393 . S
Tb347 O386 2.465 . S
Tb347 O387 2.387 . S
Tb347 O389 2.428 . S
Tb347 O390 2.308 . S
Tb347 C411 2.802 . S
N348 C344 1.361 . S
N348 Tb347 2.572 . S
N348 C350 1.340 . S
C349 C343 1.416 . S
C349 C351 1.332 . S
C349 H357 0.931 . S
C350 N348 1.340 . S
C350 C351 1.407 . S
C350 H356 0.930 . S
C351 C349 1.332 . S
C351 C350 1.407 . S
C351 H353 0.929 . S
H352 C341 0.930 . S
H353 C351 0.929 . S
H354 C369 0.930 . S
H355 C376 0.929 . S
H356 C350 0.930 . S
H357 C349 0.931 . S
H358 C372 0.930 . S
H359 C339 0.930 . S
H360 C345 0.929 . S
H361 C346 0.930 . S
H362 C367 0.930 . S
H363 C342 0.930 . S
H364 C375 0.931 . S
N365 Tb336 2.617 . S
N365 C366 1.379 . S
N365 C369 1.334 . S
C366 N365 1.379 . S
C366 C368 1.416 . S
C366 C374 1.424 . S
C367 H362 0.930 . S
C367 C369 1.390 . S
C367 C370 1.339 . S
C368 C366 1.416 . S
C368 C370 1.416 . S
C368 C401 1.448 1_565 S
C369 H354 0.930 . S
C369 N365 1.334 . S
C369 C367 1.390 . S
C370 C367 1.339 . S
C370 C368 1.416 . S
C370 H377 0.930 . S
N371 Tb336 2.572 . S
N371 C372 1.340 . S
N371 C374 1.361 . S
C372 H358 0.930 . S
C372 N371 1.340 . S
C372 C376 1.407 1_565 S
C373 C374 1.413 1_545 S
C373 C375 1.416 . S
C373 C402 1.427 . S
C374 C366 1.424 . S
C374 N371 1.361 . S
C374 C373 1.413 1_565 S
C375 H364 0.931 . S
C375 C373 1.416 . S
C375 C376 1.332 . S
C376 H355 0.929 . S
C376 C372 1.407 1_545 S
C376 C375 1.332 . S
H377 C370 0.930 . S
H378 C401 0.930 . S
H379 C402 0.929 . S
O380 Tb336 2.465 . S
O380 C400 1.264 . S
O381 Tb336 2.387 . S
O381 C392 1.264 . S
O382 Tb347 2.349 . S
O382 C392 1.243 . S
O383 Tb336 2.428 . S
O383 C400 1.256 . S
O384 Tb336 2.308 . S
O384 C399 1.266 . S
O385 Tb347 2.393 . S
O385 C399 1.248 . S
O386 Tb347 2.465 . S
O386 C411 1.264 . S
O387 Tb347 2.387 . S
O387 C403 1.264 . S
O388 Tb336 2.349 . S
O388 C403 1.243 . S
O389 Tb347 2.428 . S
O389 C411 1.256 . S
O390 Tb347 2.308 . S
O390 C410 1.266 . S
O391 Tb336 2.393 . S
O391 C410 1.248 . S
C392 O381 1.264 . S
C392 O382 1.243 . S
C393 C396 1.399 . S
C393 C398 1.383 . S
C393 C400 1.496 1_545 S
C394 C395 1.399 . S
C394 C398 1.389 . S
C395 C394 1.399 . S
C395 C397 1.380 . S
C395 H412 0.929 . S
C396 C393 1.399 . S
C396 C397 1.392 . S
C396 H413 0.929 . S
C397 C395 1.380 . S
C397 C396 1.392 . S
C397 H414 0.929 . S
C398 C393 1.383 . S
C398 C394 1.389 . S
C398 H415 0.931 . S
C399 O384 1.266 . S
C399 O385 1.248 . S
C400 Tb336 2.802 . S
C400 O380 1.264 . S
C400 O383 1.256 . S
C400 C393 1.496 1_565 S
C401 C368 1.448 1_545 S
C401 H378 0.930 . S
C401 C402 1.328 . S
C402 C373 1.427 . S
C402 H379 0.929 . S
C402 C401 1.328 . S
C403 O387 1.264 . S
C403 O388 1.243 . S
C404 C407 1.399 . S
C404 C408 1.383 . S
C404 C411 1.496 . S
C405 C406 1.399 . S
C405 C408 1.389 . S
C406 C405 1.399 . S
C406 C409 1.380 . S
C406 H416 0.929 . S
C407 C404 1.399 . S
C407 C409 1.392 . S
C407 H417 0.929 . S
C408 C404 1.383 . S
C408 C405 1.389 . S
C408 H418 0.931 . S
C409 C406 1.380 . S
C409 C407 1.392 . S
C409 H419 0.929 . S
C410 O390 1.266 . S
C410 O391 1.248 . S
C411 Tb347 2.802 . S
C411 O386 1.264 . S
C411 O389 1.256 . S
C411 C404 1.496 . S
H412 C395 0.929 . S
H413 C396 0.929 . S
H414 C397 0.929 . S
H415 C398 0.931 . S
H416 C406 0.929 . S
H417 C407 0.929 . S
H418 C408 0.931 . S
H419 C409 0.929 . S
Tb420 N449 2.617 . S
Tb420 N455 2.572 . S
Tb420 O464 2.465 . S
Tb420 O465 2.387 . S
Tb420 O467 2.428 . S
Tb420 O468 2.308 . S
Tb420 O472 2.349 . S
Tb420 O475 2.393 . S
Tb420 C484 2.802 . S
C421 N422 1.379 . S
C421 C424 1.416 . S
C421 C428 1.424 . S
N422 C421 1.379 . S
N422 C425 1.334 . S
N422 Tb431 2.617 . S
C423 C425 1.390 . S
C423 C426 1.339 . S
C423 H443 0.930 . S
C424 C421 1.416 . S
C424 C426 1.416 . S
C424 C430 1.448 . S
C425 N422 1.334 . S
C425 C423 1.390 . S
C425 H436 0.930 . S
C426 C423 1.339 . S
C426 C424 1.416 . S
C426 H447 0.930 . S
C427 C428 1.413 . S
C427 C429 1.427 . S
C427 C433 1.416 . S
C428 C421 1.424 . S
C428 C427 1.413 . S
C428 N432 1.361 . S
C429 C427 1.427 . S
C429 C430 1.328 . S
C429 H444 0.929 . S
C430 C424 1.448 . S
C430 C429 1.328 . S
C430 H445 0.930 . S
Tb431 N422 2.617 . S
Tb431 N432 2.572 . S
Tb431 O466 2.349 . S
Tb431 O469 2.393 . S
Tb431 O470 2.465 . S
Tb431 O471 2.387 . S
Tb431 O473 2.428 . S
Tb431 O474 2.308 . S
Tb431 C495 2.802 . S
N432 C428 1.361 . S
N432 Tb431 2.572 . S
N432 C434 1.340 . S
C433 C427 1.416 . S
C433 C435 1.332 . S
C433 H441 0.931 . S
C434 N432 1.340 . S
C434 C435 1.407 . S
C434 H440 0.930 . S
C435 C433 1.332 . S
C435 C434 1.407 . S
C435 H437 0.929 . S
H436 C425 0.930 . S
H437 C435 0.929 . S
H438 C453 0.930 . S
H439 C460 0.929 . S
H440 C434 0.930 . S
H441 C433 0.931 . S
H442 C456 0.930 . S
H443 C423 0.930 . S
H444 C429 0.929 . S
H445 C430 0.930 . S
H446 C451 0.930 . S
H447 C426 0.930 . S
H448 C459 0.931 . S
N449 Tb420 2.617 . S
N449 C450 1.379 . S
N449 C453 1.334 . S
C450 N449 1.379 . S
C450 C452 1.416 . S
C450 C458 1.424 . S
C451 H446 0.930 . S
C451 C453 1.390 . S
C451 C454 1.339 . S
C452 C450 1.416 . S
C452 C454 1.416 . S
C452 C485 1.448 1_455 S
C453 H438 0.930 . S
C453 N449 1.334 . S
C453 C451 1.390 . S
C454 C451 1.339 . S
C454 C452 1.416 . S
C454 H461 0.930 . S
N455 Tb420 2.572 . S
N455 C456 1.340 . S
N455 C458 1.361 . S
C456 H442 0.930 . S
C456 N455 1.340 . S
C456 C460 1.407 . S
C457 C458 1.426 . S
C457 C459 1.414 1_455 S
C457 C486 1.416 1_455 S
C458 C450 1.424 . S
C458 N455 1.361 . S
C458 C457 1.426 . S
C459 H448 0.931 . S
C459 C457 1.414 1_655 S
C459 C460 1.332 1_655 S
C460 H439 0.929 . S
C460 C456 1.407 . S
C460 C459 1.332 1_455 S
H461 C454 0.930 . S
H462 C485 0.930 . S
H463 C486 0.929 . S
O464 Tb420 2.465 . S
O464 C484 1.264 . S
O465 Tb420 2.387 . S
O465 C476 1.264 . S
O466 Tb431 2.349 . S
O466 C476 1.243 . S
O467 Tb420 2.428 . S
O467 C484 1.256 . S
O468 Tb420 2.308 . S
O468 C483 1.266 . S
O469 Tb431 2.393 . S
O469 C483 1.248 . S
O470 Tb431 2.465 . S
O470 C495 1.264 . S
O471 Tb431 2.387 . S
O471 C487 1.264 . S
O472 Tb420 2.349 . S
O472 C487 1.243 . S
O473 Tb431 2.428 . S
O473 C495 1.256 . S
O474 Tb431 2.308 . S
O474 C494 1.266 . S
O475 Tb420 2.393 . S
O475 C494 1.248 . S
C476 O465 1.264 . S
C476 O466 1.243 . S
C477 C480 1.399 . S
C477 C482 1.383 . S
C477 C484 1.496 1_655 S
C478 C479 1.399 . S
C478 C482 1.389 . S
C479 C478 1.399 . S
C479 C481 1.380 . S
C479 H496 0.929 . S
C480 C477 1.399 . S
C480 C481 1.392 . S
C480 H497 0.929 . S
C481 C479 1.380 . S
C481 C480 1.392 . S
C481 H498 0.929 . S
C482 C477 1.383 . S
C482 C478 1.389 . S
C482 H499 0.931 . S
C483 O468 1.266 . S
C483 O469 1.248 . S
C484 Tb420 2.802 . S
C484 O464 1.264 . S
C484 O467 1.256 . S
C484 C477 1.496 1_455 S
C485 C452 1.448 1_655 S
C485 H462 0.930 . S
C485 C486 1.328 . S
C486 C457 1.416 1_655 S
C486 H463 0.929 . S
C486 C485 1.328 . S
C487 O471 1.264 . S
C487 O472 1.243 . S
C488 C491 1.399 . S
C488 C492 1.383 . S
C488 C495 1.496 . S
C489 C490 1.399 . S
C489 C492 1.389 . S
C490 C489 1.399 . S
C490 C493 1.380 . S
C490 H500 0.929 . S
C491 C488 1.399 . S
C491 C493 1.392 . S
C491 H501 0.929 . S
C492 C488 1.383 . S
C492 C489 1.389 . S
C492 H502 0.931 . S
C493 C490 1.380 . S
C493 C491 1.392 . S
C493 H503 0.929 . S
C494 O474 1.266 . S
C494 O475 1.248 . S
C495 Tb431 2.802 . S
C495 O470 1.264 . S
C495 O473 1.256 . S
C495 C488 1.496 . S
H496 C479 0.929 . S
H497 C480 0.929 . S
H498 C481 0.929 . S
H499 C482 0.931 . S
H500 C490 0.929 . S
H501 C491 0.929 . S
H502 C492 0.931 . S
H503 C493 0.929 . S
Tb504 N533 2.617 . S
Tb504 N539 2.572 . S
Tb504 O548 2.465 . S
Tb504 O549 2.387 . S
Tb504 O551 2.428 . S
Tb504 O552 2.308 . S
Tb504 O556 2.349 . S
Tb504 O559 2.393 . S
Tb504 C568 2.802 . S
C505 N506 1.379 . S
C505 C508 1.416 . S
C505 C512 1.424 . S
N506 C505 1.379 . S
N506 C509 1.334 . S
N506 Tb515 2.617 . S
C507 C509 1.390 . S
C507 C510 1.339 . S
C507 H527 0.930 . S
C508 C505 1.416 . S
C508 C510 1.416 . S
C508 C514 1.448 . S
C509 N506 1.334 . S
C509 C507 1.390 . S
C509 H520 0.930 . S
C510 C507 1.339 . S
C510 C508 1.416 . S
C510 H531 0.930 . S
C511 C512 1.413 . S
C511 C513 1.427 . S
C511 C517 1.416 . S
C512 C505 1.424 . S
C512 C511 1.413 . S
C512 N516 1.361 . S
C513 C511 1.427 . S
C513 C514 1.328 . S
C513 H528 0.929 . S
C514 C508 1.448 . S
C514 C513 1.328 . S
C514 H529 0.930 . S
Tb515 N506 2.617 . S
Tb515 N516 2.572 . S
Tb515 O550 2.349 . S
Tb515 O553 2.393 . S
Tb515 O554 2.465 . S
Tb515 O555 2.387 . S
Tb515 O557 2.428 . S
Tb515 O558 2.308 . S
Tb515 C579 2.802 . S
N516 C512 1.361 . S
N516 Tb515 2.572 . S
N516 C518 1.340 . S
C517 C511 1.416 . S
C517 C519 1.332 . S
C517 H525 0.931 . S
C518 N516 1.340 . S
C518 C519 1.407 . S
C518 H524 0.930 . S
C519 C517 1.332 . S
C519 C518 1.407 . S
C519 H521 0.929 . S
H520 C509 0.930 . S
H521 C519 0.929 . S
H522 C537 0.930 . S
H523 C544 0.929 . S
H524 C518 0.930 . S
H525 C517 0.931 . S
H526 C540 0.930 . S
H527 C507 0.930 . S
H528 C513 0.929 . S
H529 C514 0.930 . S
H530 C535 0.930 . S
H531 C510 0.930 . S
H532 C543 0.931 . S
N533 Tb504 2.617 . S
N533 C534 1.379 . S
N533 C537 1.334 . S
C534 N533 1.379 . S
C534 C536 1.416 . S
C534 C542 1.424 . S
C535 H530 0.930 . S
C535 C537 1.390 . S
C535 C538 1.339 . S
C536 C534 1.416 . S
C536 C538 1.416 . S
C536 C569 1.448 1_545 S
C537 H522 0.930 . S
C537 N533 1.334 . S
C537 C535 1.390 . S
C538 C535 1.339 . S
C538 C536 1.416 . S
C538 H545 0.930 1_545 S
N539 Tb504 2.572 . S
N539 C540 1.340 . S
N539 C542 1.361 . S
C540 H526 0.930 . S
C540 N539 1.340 . S
C540 C544 1.407 . S
C541 C542 1.379 1_565 S
C541 C543 1.422 . S
C541 C570 1.454 . S
C542 C534 1.424 . S
C542 N539 1.361 . S
C542 C541 1.379 1_545 S
C543 H532 0.931 . S
C543 C541 1.422 . S
C543 C544 1.332 1_565 S
C544 H523 0.929 . S
C544 C540 1.407 . S
C544 C543 1.332 1_545 S
H545 C538 0.930 1_565 S
H546 C569 0.930 . S
H547 C570 0.929 . S
O548 Tb504 2.465 . S
O548 C568 1.264 . S
O549 Tb504 2.387 . S
O549 C560 1.264 . S
O550 Tb515 2.349 . S
O550 C560 1.243 . S
O551 Tb504 2.428 . S
O551 C568 1.256 . S
O552 Tb504 2.308 . S
O552 C567 1.266 . S
O553 Tb515 2.393 . S
O553 C567 1.248 . S
O554 Tb515 2.465 . S
O554 C579 1.264 . S
O555 Tb515 2.387 . S
O555 C571 1.264 . S
O556 Tb504 2.349 . S
O556 C571 1.243 . S
O557 Tb515 2.428 . S
O557 C579 1.256 . S
O558 Tb515 2.308 . S
O558 C578 1.266 . S
O559 Tb504 2.393 . S
O559 C578 1.248 . S
C560 O549 1.264 . S
C560 O550 1.243 . S
C561 C564 1.399 . S
C561 C566 1.383 . S
C561 C568 1.496 . S
C562 C563 1.399 . S
C562 C566 1.389 . S
C563 C562 1.399 . S
C563 C565 1.380 . S
C563 H580 0.929 . S
C564 C561 1.399 . S
C564 C565 1.392 . S
C564 H581 0.929 . S
C565 C563 1.380 . S
C565 C564 1.392 . S
C565 H582 0.929 . S
C566 C561 1.383 . S
C566 C562 1.389 . S
C566 H583 0.931 . S
C567 O552 1.266 . S
C567 O553 1.248 . S
C568 Tb504 2.802 . S
C568 O548 1.264 . S
C568 O551 1.256 . S
C568 C561 1.496 . S
C569 C536 1.448 1_565 S
C569 H546 0.930 . S
C569 C570 1.328 . S
C570 C541 1.454 . S
C570 H547 0.929 . S
C570 C569 1.328 . S
C571 O555 1.264 . S
C571 O556 1.243 . S
C572 C575 1.399 . S
C572 C576 1.383 . S
C572 C579 1.496 . S
C573 C574 1.399 . S
C573 C576 1.389 . S
C574 C573 1.399 . S
C574 C577 1.380 . S
C574 H584 0.929 . S
C575 C572 1.399 . S
C575 C577 1.392 . S
C575 H585 0.929 . S
C576 C572 1.383 . S
C576 C573 1.389 . S
C576 H586 0.931 . S
C577 C574 1.380 . S
C577 C575 1.392 . S
C577 H587 0.929 . S
C578 O558 1.266 . S
C578 O559 1.248 . S
C579 Tb515 2.802 . S
C579 O554 1.264 . S
C579 O557 1.256 . S
C579 C572 1.496 . S
H580 C563 0.929 . S
H581 C564 0.929 . S
H582 C565 0.929 . S
H583 C566 0.931 . S
H584 C574 0.929 . S
H585 C575 0.929 . S
H586 C576 0.931 . S
H587 C577 0.929 . S
Tb588 N617 2.617 . S
Tb588 N623 2.572 . S
Tb588 O632 2.465 . S
Tb588 O633 2.387 . S
Tb588 O635 2.428 . S
Tb588 O636 2.308 . S
Tb588 O640 2.349 . S
Tb588 O643 2.393 . S
Tb588 C652 2.802 . S
C589 N590 1.379 . S
C589 C592 1.416 . S
C589 C596 1.424 . S
N590 C589 1.379 . S
N590 C593 1.334 . S
N590 Tb599 2.617 . S
C591 C593 1.390 . S
C591 C594 1.339 . S
C591 H611 0.930 . S
C592 C589 1.416 . S
C592 C594 1.416 . S
C592 C598 1.448 . S
C593 N590 1.334 . S
C593 C591 1.390 . S
C593 H604 0.930 . S
C594 C591 1.339 . S
C594 C592 1.416 . S
C594 H615 0.930 . S
C595 C596 1.413 . S
C595 C597 1.427 . S
C595 C601 1.416 . S
C596 C589 1.424 . S
C596 C595 1.413 . S
C596 N600 1.361 . S
C597 C595 1.427 . S
C597 C598 1.328 . S
C597 H612 0.929 . S
C598 C592 1.448 . S
C598 C597 1.328 . S
C598 H613 0.930 . S
Tb599 N590 2.617 . S
Tb599 N600 2.572 . S
Tb599 O634 2.349 . S
Tb599 O637 2.393 . S
Tb599 O638 2.465 . S
Tb599 O639 2.387 . S
Tb599 O641 2.428 . S
Tb599 O642 2.308 . S
Tb599 C663 2.802 . S
N600 C596 1.361 . S
N600 Tb599 2.572 . S
N600 C602 1.340 . S
C601 C595 1.416 . S
C601 C603 1.332 . S
C601 H609 0.931 . S
C602 N600 1.340 . S
C602 C603 1.407 . S
C602 H608 0.930 . S
C603 C601 1.332 . S
C603 C602 1.407 . S
C603 H605 0.929 . S
H604 C593 0.930 . S
H605 C603 0.929 . S
H606 C621 0.930 . S
H607 C628 0.929 . S
H608 C602 0.930 . S
H609 C601 0.931 . S
H610 C624 0.930 . S
H611 C591 0.930 . S
H612 C597 0.929 . S
H613 C598 0.930 . S
H614 C619 0.930 . S
H615 C594 0.930 . S
H616 C627 0.931 . S
N617 Tb588 2.617 . S
N617 C618 1.379 . S
N617 C621 1.334 . S
C618 N617 1.379 . S
C618 C620 1.416 1_655 S
C618 C626 1.424 . S
C619 H614 0.930 . S
C619 C621 1.390 . S
C619 C622 1.339 . S
C620 C618 1.416 1_455 S
C620 C622 1.416 1_455 S
C620 C653 1.448 . S
C621 H606 0.930 . S
C621 N617 1.334 . S
C621 C619 1.390 . S
C622 C619 1.339 . S
C622 C620 1.416 1_655 S
C622 H629 0.930 1_655 S
N623 Tb588 2.572 . S
N623 C624 1.340 . S
N623 C626 1.361 . S
C624 H610 0.930 . S
C624 N623 1.340 . S
C624 C628 1.407 . S
C625 C626 1.413 1_455 S
C625 C627 1.416 . S
C625 C654 1.427 . S
C626 C618 1.424 . S
C626 N623 1.361 . S
C626 C625 1.413 1_655 S
C627 H616 0.931 . S
C627 C625 1.416 . S
C627 C628 1.332 1_455 S
C628 H607 0.929 . S
C628 C624 1.407 . S
C628 C627 1.332 1_655 S
H629 C622 0.930 1_455 S
H630 C653 0.930 . S
H631 C654 0.929 . S
O632 Tb588 2.465 . S
O632 C652 1.264 . S
O633 Tb588 2.387 . S
O633 C644 1.264 . S
O634 Tb599 2.349 . S
O634 C644 1.243 . S
O635 Tb588 2.428 . S
O635 C652 1.256 . S
O636 Tb588 2.308 . S
O636 C651 1.266 . S
O637 Tb599 2.393 . S
O637 C651 1.248 . S
O638 Tb599 2.465 . S
O638 C663 1.264 . S
O639 Tb599 2.387 . S
O639 C655 1.264 . S
O640 Tb588 2.349 . S
O640 C655 1.243 . S
O641 Tb599 2.428 . S
O641 C663 1.256 . S
O642 Tb599 2.308 . S
O642 C662 1.266 . S
O643 Tb588 2.393 . S
O643 C662 1.248 . S
C644 O633 1.264 . S
C644 O634 1.243 . S
C645 C648 1.399 . S
C645 C650 1.383 . S
C645 C652 1.496 . S
C646 C647 1.399 . S
C646 C650 1.389 . S
C647 C646 1.399 . S
C647 C649 1.380 . S
C647 H664 0.929 . S
C648 C645 1.399 . S
C648 C649 1.392 . S
C648 H665 0.929 . S
C649 C647 1.380 . S
C649 C648 1.392 . S
C649 H666 0.929 . S
C650 C645 1.383 . S
C650 C646 1.389 . S
C650 H667 0.931 . S
C651 O636 1.266 . S
C651 O637 1.248 . S
C652 Tb588 2.802 . S
C652 O632 1.264 . S
C652 O635 1.256 . S
C652 C645 1.496 . S
C653 C620 1.448 . S
C653 H630 0.930 . S
C653 C654 1.328 . S
C654 C625 1.427 . S
C654 H631 0.929 . S
C654 C653 1.328 . S
C655 O639 1.264 . S
C655 O640 1.243 . S
C656 C659 1.399 . S
C656 C660 1.383 . S
C656 C663 1.496 . S
C657 C658 1.399 . S
C657 C660 1.389 . S
C658 C657 1.399 . S
C658 C661 1.380 . S
C658 H668 0.929 . S
C659 C656 1.399 . S
C659 C661 1.392 . S
C659 H669 0.929 . S
C660 C656 1.383 . S
C660 C657 1.389 . S
C660 H670 0.931 . S
C661 C658 1.380 . S
C661 C659 1.392 . S
C661 H671 0.929 . S
C662 O642 1.266 . S
C662 O643 1.248 . S
C663 Tb599 2.802 . S
C663 O638 1.264 . S
C663 O641 1.256 . S
C663 C656 1.496 . S
H664 C647 0.929 . S
H665 C648 0.929 . S
H666 C649 0.929 . S
H667 C650 0.931 . S
H668 C658 0.929 . S
H669 C659 0.929 . S
H670 C660 0.931 . S
H671 C661 0.929 . S
Tb672 N701 2.617 . S
Tb672 N707 2.572 . S
Tb672 O716 2.465 . S
Tb672 O717 2.387 . S
Tb672 O719 2.428 . S
Tb672 O720 2.308 . S
Tb672 O724 2.349 . S
Tb672 O727 2.393 . S
Tb672 C736 2.802 . S
C673 N674 1.379 . S
C673 C676 1.416 . S
C673 C680 1.424 . S
N674 C673 1.379 . S
N674 C677 1.334 . S
N674 Tb683 2.617 . S
C675 C677 1.390 . S
C675 C678 1.339 . S
C675 H695 0.930 . S
C676 C673 1.416 . S
C676 C678 1.416 . S
C676 C682 1.448 . S
C677 N674 1.334 . S
C677 C675 1.390 . S
C677 H688 0.930 . S
C678 C675 1.339 . S
C678 C676 1.416 . S
C678 H699 0.930 . S
C679 C680 1.413 . S
C679 C681 1.427 . S
C679 C685 1.416 . S
C680 C673 1.424 . S
C680 C679 1.413 . S
C680 N684 1.361 . S
C681 C679 1.427 . S
C681 C682 1.328 . S
C681 H696 0.929 . S
C682 C676 1.448 . S
C682 C681 1.328 . S
C682 H697 0.930 . S
Tb683 N674 2.617 . S
Tb683 N684 2.572 . S
Tb683 O718 2.349 . S
Tb683 O721 2.393 . S
Tb683 O722 2.465 . S
Tb683 O723 2.387 . S
Tb683 O725 2.428 . S
Tb683 O726 2.308 . S
Tb683 C747 2.802 . S
N684 C680 1.361 . S
N684 Tb683 2.572 . S
N684 C686 1.340 . S
C685 C679 1.416 . S
C685 C687 1.332 . S
C685 H693 0.931 . S
C686 N684 1.340 . S
C686 C687 1.407 . S
C686 H692 0.930 . S
C687 C685 1.332 . S
C687 C686 1.407 . S
C687 H689 0.929 . S
H688 C677 0.930 . S
H689 C687 0.929 . S
H690 C705 0.930 . S
H691 C712 0.929 . S
H692 C686 0.930 . S
H693 C685 0.931 . S
H694 C708 0.930 . S
H695 C675 0.930 . S
H696 C681 0.929 . S
H697 C682 0.930 . S
H698 C703 0.930 . S
H699 C678 0.930 . S
H700 C711 0.931 . S
N701 Tb672 2.617 . S
N701 C702 1.379 . S
N701 C705 1.334 . S
C702 N701 1.379 . S
C702 C704 1.416 . S
C702 C710 1.424 . S
C703 H698 0.930 . S
C703 C705 1.390 . S
C703 C706 1.339 . S
C704 C702 1.416 . S
C704 C706 1.416 . S
C704 C737 1.448 . S
C705 H690 0.930 . S
C705 N701 1.334 . S
C705 C703 1.390 . S
C706 C703 1.339 . S
C706 C704 1.416 . S
C706 H713 0.930 . S
N707 Tb672 2.572 . S
N707 C708 1.340 . S
N707 C710 1.361 . S
C708 H694 0.930 . S
C708 N707 1.340 . S
C708 C712 1.407 . S
C709 C710 1.413 . S
C709 C711 1.416 . S
C709 C738 1.427 . S
C710 C702 1.424 . S
C710 N707 1.361 . S
C710 C709 1.413 . S
C711 H700 0.931 . S
C711 C709 1.416 . S
C711 C712 1.332 . S
C712 H691 0.929 . S
C712 C708 1.407 . S
C712 C711 1.332 . S
H713 C706 0.930 . S
H714 C737 0.930 . S
H715 C738 0.929 . S
O716 Tb672 2.465 . S
O716 C736 1.264 . S
O717 Tb672 2.387 . S
O717 C728 1.264 . S
O718 Tb683 2.349 . S
O718 C728 1.243 . S
O719 Tb672 2.428 . S
O719 C736 1.256 . S
O720 Tb672 2.308 . S
O720 C735 1.266 . S
O721 Tb683 2.393 . S
O721 C735 1.248 . S
O722 Tb683 2.465 . S
O722 C747 1.264 . S
O723 Tb683 2.387 . S
O723 C739 1.264 . S
O724 Tb672 2.349 . S
O724 C739 1.243 . S
O725 Tb683 2.428 . S
O725 C747 1.256 . S
O726 Tb683 2.308 . S
O726 C746 1.266 . S
O727 Tb672 2.393 . S
O727 C746 1.248 . S
C728 O717 1.264 . S
C728 O718 1.243 . S
C729 C732 1.399 . S
C729 C734 1.383 . S
C729 C736 1.496 . S
C730 C731 1.399 . S
C730 C734 1.389 . S
C731 C730 1.399 . S
C731 C733 1.380 . S
C731 H748 0.929 . S
C732 C729 1.399 . S
C732 C733 1.392 . S
C732 H749 0.929 . S
C733 C731 1.380 . S
C733 C732 1.392 . S
C733 H750 0.929 . S
C734 C729 1.383 . S
C734 C730 1.389 . S
C734 H751 0.931 . S
C735 O720 1.266 . S
C735 O721 1.248 . S
C736 Tb672 2.802 . S
C736 O716 1.264 . S
C736 O719 1.256 . S
C736 C729 1.496 . S
C737 C704 1.448 . S
C737 H714 0.930 . S
C737 C738 1.328 . S
C738 C709 1.427 . S
C738 H715 0.929 . S
C738 C737 1.328 . S
C739 O723 1.264 . S
C739 O724 1.243 . S
C740 C743 1.399 . S
C740 C744 1.383 . S
C740 C747 1.496 . S
C741 C742 1.399 . S
C741 C744 1.389 . S
C742 C741 1.399 . S
C742 C745 1.380 . S
C742 H752 0.929 . S
C743 C740 1.399 . S
C743 C745 1.392 . S
C743 H753 0.929 . S
C744 C740 1.383 . S
C744 C741 1.389 . S
C744 H754 0.931 . S
C745 C742 1.380 . S
C745 C743 1.392 . S
C745 H755 0.929 . S
C746 O726 1.266 . S
C746 O727 1.248 . S
C747 Tb683 2.802 . S
C747 O722 1.264 . S
C747 O725 1.256 . S
C747 C740 1.496 . S
H748 C731 0.929 . S
H749 C732 0.929 . S
H750 C733 0.929 . S
H751 C734 0.931 . S
H752 C742 0.929 . S
H753 C743 0.929 . S
H754 C744 0.931 . S
H755 C745 0.929 . S
H756 C764 0.929 . S
H757 C766 0.930 . S
H758 C768 0.930 . S
H759 C771 0.931 . S
H760 C774 0.930 . S
H761 C776 0.960 . S
H762 C776 0.960 . S
H763 C776 0.960 . S
C764 H756 0.929 . S
C764 C765 1.377 . S
C764 C766 1.384 . S
C765 C764 1.377 . S
C765 C771 1.390 . S
C766 H757 0.930 . S
C766 C764 1.384 . S
C766 C767 1.365 1_556 S
C767 C766 1.365 1_554 S
C767 C768 1.402 . S
C767 C772 1.498 . S
C768 H758 0.930 . S
C768 C767 1.402 . S
C768 C771 1.386 1_554 S
H769 C785 0.930 . S
H770 C786 0.931 . S
C771 H759 0.931 . S
C771 C765 1.390 . S
C771 C768 1.386 1_556 S
C772 C767 1.498 . S
C772 C774 1.395 . S
C772 C775 1.403 1_554 S
H773 C779 0.930 . S
C774 H760 0.930 . S
C774 C772 1.395 . S
C774 C777 1.403 . S
C775 C772 1.403 1_556 S
C775 C776 1.524 . S
C775 C779 1.400 . S
C776 H761 0.960 . S
C776 H762 0.960 . S
C776 H763 0.960 . S
C776 C775 1.524 . S
C777 C774 1.403 . S
C777 C778 1.392 . S
C777 C781 1.495 . S
C778 C777 1.392 . S
C778 C779 1.385 1_554 S
C778 C780 1.478 . S
C779 H773 0.930 . S
C779 C775 1.400 . S
C779 C778 1.385 1_556 S
C780 C778 1.478 . S
C780 C782 1.381 . S
C780 C786 1.383 . S
C781 C777 1.495 . S
C781 H787 0.959 . S
C781 H788 0.961 . S
C781 H789 0.960 . S
C782 C780 1.381 . S
C782 C783 1.394 . S
C782 H790 0.930 . S
C783 C782 1.394 . S
C783 C784 1.383 . S
C783 H791 0.929 . S
C784 C783 1.383 . S
C784 C785 1.377 . S
C785 H769 0.930 . S
C785 C784 1.377 . S
C785 C786 1.379 . S
C786 H770 0.931 . S
C786 C780 1.383 . S
C786 C785 1.379 . S
H787 C781 0.959 . S
H788 C781 0.961 . S
H789 C781 0.960 . S
H790 C782 0.930 . S
H791 C783 0.929 . S
H792 C800 0.929 . S
H793 C802 0.930 . S
H794 C804 0.930 . S
H795 C807 0.929 . S
H796 C810 0.930 . S
H797 C812 0.960 . S
H798 C812 0.960 . S
H799 C812 0.960 1_556 S
C800 H792 0.929 . S
C800 C801 1.377 1_554 S
C800 C802 1.384 . S
C801 C800 1.377 1_556 S
C801 C807 1.390 . S
C802 H793 0.930 . S
C802 C800 1.384 . S
C802 C803 1.372 . S
C803 C802 1.372 . S
C803 C804 1.400 1_554 S
C803 C808 1.490 . S
C804 H794 0.930 . S
C804 C803 1.400 1_556 S
C804 C807 1.386 . S
H805 C821 0.954 . S
H806 C822 0.931 . S
C807 H795 0.929 . S
C807 C801 1.390 . S
C807 C804 1.386 . S
C808 C803 1.490 . S
C808 C810 1.395 . S
C808 C811 1.403 . S
H809 C815 0.930 . S
C810 H796 0.930 . S
C810 C808 1.395 . S
C810 C813 1.403 . S
C811 C808 1.403 . S
C811 C812 1.524 . S
C811 C815 1.400 . S
C812 H797 0.960 . S
C812 H798 0.960 . S
C812 H799 0.960 1_554 S
C812 C811 1.524 . S
C813 C810 1.403 . S
C813 C814 1.392 . S
C813 C817 1.495 . S
C814 C813 1.392 . S
C814 C815 1.385 . S
C814 C816 1.478 . S
C815 H809 0.930 . S
C815 C811 1.400 . S
C815 C814 1.385 . S
C816 C814 1.478 . S
C816 C818 1.381 . S
C816 C822 1.383 1_554 S
C817 C813 1.495 . S
C817 H823 0.959 . S
C817 H824 0.961 1_554 S
C817 H825 0.960 . S
C818 C816 1.381 . S
C818 C819 1.394 . S
C818 H826 0.930 . S
C819 C818 1.394 . S
C819 C820 1.383 . S
C819 H827 0.929 . S
C820 C819 1.383 . S
C820 C821 1.349 1_554 S
C821 H805 0.954 . S
C821 C820 1.349 1_556 S
C821 C822 1.384 . S
C822 H806 0.931 . S
C822 C816 1.383 1_556 S
C822 C821 1.384 . S
H823 C817 0.959 . S
H824 C817 0.961 1_556 S
H825 C817 0.960 . S
H826 C818 0.930 . S
H827 C819 0.929 . S
H828 C836 0.929 . S
H829 C838 0.930 . S
H830 C840 0.930 . S
H831 C843 0.929 . S
H832 C846 0.930 . S
H833 C848 0.960 . S
H834 C848 0.960 . S
H835 C848 0.960 . S
C836 H828 0.929 . S
C836 C837 1.377 . S
C836 C838 1.384 . S
C837 C836 1.377 . S
C837 C843 1.390 . S
C838 H829 0.930 . S
C838 C836 1.384 . S
C838 C839 1.372 . S
C839 C838 1.372 . S
C839 C840 1.400 . S
C839 C844 1.490 . S
C840 H830 0.930 . S
C840 C839 1.400 . S
C840 C843 1.386 . S
H841 C857 0.930 . S
H842 C858 0.931 . S
C843 H831 0.929 . S
C843 C837 1.390 . S
C843 C840 1.386 . S
C844 C839 1.490 . S
C844 C846 1.395 . S
C844 C847 1.403 1_554 S
H845 C851 0.930 . S
C846 H832 0.930 . S
C846 C844 1.395 . S
C846 C849 1.403 . S
C847 C844 1.403 1_556 S
C847 C848 1.524 . S
C847 C851 1.400 . S
C848 H833 0.960 . S
C848 H834 0.960 . S
C848 H835 0.960 . S
C848 C847 1.524 . S
C849 C846 1.403 . S
C849 C850 1.392 . S
C849 C853 1.495 . S
C850 C849 1.392 . S
C850 C851 1.385 1_554 S
C850 C852 1.478 . S
C851 H845 0.930 . S
C851 C847 1.400 . S
C851 C850 1.385 1_556 S
C852 C850 1.478 . S
C852 C854 1.381 1_554 S
C852 C858 1.383 . S
C853 C849 1.495 . S
C853 H859 0.959 . S
C853 H860 0.961 . S
C853 H861 0.960 . S
C854 C852 1.381 1_556 S
C854 C855 1.394 . S
C854 H862 0.930 . S
C855 C854 1.394 . S
C855 C856 1.383 . S
C855 H863 0.929 . S
C856 C855 1.383 . S
C856 C857 1.377 1_556 S
C857 H841 0.930 . S
C857 C856 1.377 1_554 S
C857 C858 1.379 . S
C858 H842 0.931 . S
C858 C852 1.383 . S
C858 C857 1.379 . S
H859 C853 0.959 . S
H860 C853 0.961 . S
H861 C853 0.960 . S
H862 C854 0.930 . S
H863 C855 0.929 . S
H864 C872 0.929 . S
H865 C874 0.930 . S
H866 C876 0.930 . S
H867 C879 0.929 . S
H868 C882 0.930 . S
H869 C884 0.960 . S
H870 C884 0.960 . S
H871 C884 0.960 . S
C872 H864 0.929 . S
C872 C873 1.377 . S
C872 C874 1.384 . S
C873 C872 1.377 . S
C873 C879 1.390 . S
C874 H865 0.930 . S
C874 C872 1.384 . S
C874 C875 1.372 . S
C875 C874 1.372 . S
C875 C876 1.400 . S
C875 C880 1.491 . S
C876 H866 0.930 . S
C876 C875 1.400 . S
C876 C879 1.386 . S
H877 C893 0.930 . S
H878 C894 0.926 1_554 S
C879 H867 0.929 . S
C879 C873 1.390 . S
C879 C876 1.386 . S
C880 C875 1.491 . S
C880 C882 1.400 . S
C880 C883 1.397 1_554 S
H881 C887 0.930 . S
C882 H868 0.930 . S
C882 C880 1.400 . S
C882 C885 1.403 . S
C883 C880 1.397 1_556 S
C883 C884 1.524 . S
C883 C887 1.400 . S
C884 H869 0.960 . S
C884 H870 0.960 . S
C884 H871 0.960 . S
C884 C883 1.524 . S
C885 C882 1.403 . S
C885 C886 1.392 1_554 S
C885 C889 1.495 . S
C886 C885 1.392 1_556 S
C886 C887 1.385 . S
C886 C888 1.478 . S
C887 H881 0.930 . S
C887 C883 1.400 . S
C887 C886 1.385 . S
C888 C886 1.478 . S
C888 C890 1.381 . S
C888 C894 1.383 . S
C889 C885 1.495 . S
C889 H895 0.959 . S
C889 H896 0.961 . S
C889 H897 0.960 . S
C890 C888 1.381 . S
C890 C891 1.394 . S
C890 H898 0.930 . S
C891 C890 1.394 . S
C891 C892 1.383 . S
C891 H899 0.929 . S
C892 C891 1.383 . S
C892 C893 1.377 . S
C893 H877 0.930 . S
C893 C892 1.377 . S
C893 C894 1.379 . S
C894 H878 0.926 1_556 S
C894 C888 1.383 . S
C894 C893 1.379 . S
H895 C889 0.959 . S
H896 C889 0.961 . S
H897 C889 0.960 . S
H898 C890 0.930 . S
H899 C891 0.929 . S
H900 C908 0.929 . S
H901 C910 0.930 . S
H902 C912 0.930 . S
H903 C915 0.929 . S
H904 C918 0.930 . S
H905 C920 0.960 . S
H906 C920 0.960 . S
H907 C920 0.960 . S
C908 H900 0.929 . S
C908 C909 1.377 . S
C908 C910 1.384 . S
C909 C908 1.377 . S
C909 C915 1.390 . S
C910 H901 0.930 . S
C910 C908 1.384 . S
C910 C911 1.372 . S
C911 C910 1.372 . S
C911 C912 1.400 . S
C911 C916 1.490 . S
C912 H902 0.930 . S
C912 C911 1.400 . S
C912 C915 1.386 . S
H913 C929 0.930 . S
H914 C930 0.931 . S
C915 H903 0.929 . S
C915 C909 1.390 . S
C915 C912 1.386 . S
C916 C911 1.490 . S
C916 C918 1.395 1_556 S
C916 C919 1.403 . S
H917 C923 0.930 . S
C918 H904 0.930 . S
C918 C916 1.395 1_554 S
C918 C921 1.403 . S
C919 C916 1.403 . S
C919 C920 1.524 . S
C919 C923 1.400 . S
C920 H905 0.960 . S
C920 H906 0.960 . S
C920 H907 0.960 . S
C920 C919 1.524 . S
C921 C918 1.403 . S
C921 C922 1.392 . S
C921 C925 1.495 . S
C922 C921 1.392 . S
C922 C923 1.385 1_554 S
C922 C924 1.478 . S
C923 H917 0.930 . S
C923 C919 1.400 . S
C923 C922 1.385 1_556 S
C924 C922 1.478 . S
C924 C926 1.381 . S
C924 C930 1.383 . S
C925 C921 1.495 . S
C925 H931 0.959 . S
C925 H932 0.961 . S
C925 H933 0.960 . S
C926 C924 1.381 . S
C926 C927 1.394 . S
C926 H934 0.930 . S
C927 C926 1.394 . S
C927 C928 1.383 . S
C927 H935 0.929 . S
C928 C927 1.383 . S
C928 C929 1.377 . S
C929 H913 0.930 . S
C929 C928 1.377 . S
C929 C930 1.379 . S
C930 H914 0.931 . S
C930 C924 1.383 . S
C930 C929 1.379 . S
H931 C925 0.959 . S
H932 C925 0.961 . S
H933 C925 0.960 . S
H934 C926 0.930 . S
H935 C927 0.929 . S
H936 C944 0.929 . S
H937 C946 0.930 . S
H938 C948 0.930 . S
H939 C951 0.929 1_554 S
H940 C954 0.930 . S
H941 C956 0.960 . S
H942 C956 0.960 . S
H943 C956 0.960 . S
C944 H936 0.929 . S
C944 C945 1.377 . S
C944 C946 1.384 . S
C945 C944 1.377 . S
C945 C951 1.390 . S
C946 H937 0.930 . S
C946 C944 1.384 . S
C946 C947 1.372 . S
C947 C946 1.372 . S
C947 C948 1.400 1_556 S
C947 C952 1.490 . S
C948 H938 0.930 . S
C948 C947 1.400 1_554 S
C948 C951 1.386 1_554 S
H949 C965 0.930 . S
H950 C966 0.931 . S
C951 H939 0.929 1_556 S
C951 C945 1.390 . S
C951 C948 1.386 1_556 S
C952 C947 1.490 . S
C952 C954 1.395 . S
C952 C955 1.403 1_556 S
H953 C959 0.930 . S
C954 H940 0.930 . S
C954 C952 1.395 . S
C954 C957 1.403 . S
C955 C952 1.403 1_554 S
C955 C956 1.524 . S
C955 C959 1.400 . S
C956 H941 0.960 . S
C956 H942 0.960 . S
C956 H943 0.960 . S
C956 C955 1.524 . S
C957 C954 1.403 . S
C957 C958 1.392 . S
C957 C961 1.495 . S
C958 C957 1.392 . S
C958 C959 1.385 1_556 S
C958 C960 1.478 . S
C959 H953 0.930 . S
C959 C955 1.400 . S
C959 C958 1.385 1_554 S
C960 C958 1.478 . S
C960 C962 1.381 . S
C960 C966 1.383 1_556 S
C961 C957 1.495 . S
C961 H967 0.959 . S
C961 H968 0.961 . S
C961 H969 0.960 . S
C962 C960 1.381 . S
C962 C963 1.394 . S
C962 H970 0.930 . S
C963 C962 1.394 . S
C963 C964 1.383 1_556 S
C963 H971 0.929 . S
C964 C963 1.383 1_554 S
C964 C965 1.377 . S
C965 H949 0.930 . S
C965 C964 1.377 . S
C965 C966 1.379 . S
C966 H950 0.931 . S
C966 C960 1.383 1_554 S
C966 C965 1.379 . S
H967 C961 0.959 . S
H968 C961 0.961 . S
H969 C961 0.960 . S
H970 C962 0.930 . S
H971 C963 0.929 . S
H972 C980 0.929 . S
H973 C982 0.930 . S
H974 C984 0.930 . S
H975 C987 0.929 . S
H976 C990 0.930 . S
H977 C992 0.960 . S
H978 C992 0.960 . S
H979 C992 0.960 . S
C980 H972 0.929 . S
C980 C981 1.377 . S
C980 C982 1.384 . S
C981 C980 1.377 . S
C981 C987 1.390 . S
C982 H973 0.930 . S
C982 C980 1.384 . S
C982 C983 1.372 . S
C983 C982 1.372 . S
C983 C984 1.400 . S
C983 C988 1.490 . S
C984 H974 0.930 . S
C984 C983 1.400 . S
C984 C987 1.386 . S
H985 C1001 0.930 . S
H986 C1002 0.931 . S
C987 H975 0.929 . S
C987 C981 1.390 . S
C987 C984 1.386 . S
C988 C983 1.490 . S
C988 C990 1.395 . S
C988 C991 1.403 . S
H989 C995 0.930 . S
C990 H976 0.930 . S
C990 C988 1.395 . S
C990 C993 1.403 1_655 S
C991 C988 1.403 . S
C991 C992 1.524 . S
C991 C995 1.400 1_655 S
C992 H977 0.960 . S
C992 H978 0.960 . S
C992 H979 0.960 . S
C992 C991 1.524 . S
C993 C990 1.403 1_455 S
C993 C994 1.392 . S
C993 C997 1.495 . S
C994 C993 1.392 . S
C994 C995 1.385 . S
C994 C996 1.478 . S
C995 H989 0.930 . S
C995 C991 1.400 1_455 S
C995 C994 1.385 . S
C996 C994 1.478 . S
C996 C998 1.381 . S
C996 C1002 1.383 . S
C997 C993 1.495 . S
C997 H1003 0.959 . S
C997 H1004 0.961 . S
C997 H1005 0.960 . S
C998 C996 1.381 . S
C998 C999 1.394 . S
C998 H1006 0.930 . S
C999 C998 1.394 . S
C999 C1000 1.383 . S
C999 H1007 0.929 . S
C1000 C999 1.383 . S
C1000 C1001 1.377 . S
C1001 H985 0.930 . S
C1001 C1000 1.377 . S
C1001 C1002 1.379 . S
C1002 H986 0.931 . S
C1002 C996 1.383 . S
C1002 C1001 1.379 . S
H1003 C997 0.959 . S
H1004 C997 0.961 . S
H1005 C997 0.960 . S
H1006 C998 0.930 . S
H1007 C999 0.929 . S
H1008 C1016 0.929 . S
H1009 C1018 0.930 . S
H1010 C1020 0.930 . S
H1011 C1023 0.929 . S
H1012 C1026 0.930 . S
H1013 C1028 0.960 . S
H1014 C1028 0.960 . S
H1015 C1028 0.960 . S
C1016 H1008 0.929 . S
C1016 C1017 1.377 . S
C1016 C1018 1.384 . S
C1017 C1016 1.377 . S
C1017 C1023 1.390 . S
C1018 H1009 0.930 . S
C1018 C1016 1.384 . S
C1018 C1019 1.372 . S
C1019 C1018 1.372 . S
C1019 C1020 1.400 . S
C1019 C1024 1.490 . S
C1020 H1010 0.930 . S
C1020 C1019 1.400 . S
C1020 C1023 1.386 . S
H1021 C1037 0.930 . S
H1022 C1038 0.931 . S
C1023 H1011 0.929 . S
C1023 C1017 1.390 . S
C1023 C1020 1.386 . S
C1024 C1019 1.490 . S
C1024 C1026 1.395 . S
C1024 C1027 1.403 . S
H1025 C1031 0.930 . S
C1026 H1012 0.930 . S
C1026 C1024 1.395 . S
C1026 C1029 1.403 . S
C1027 C1024 1.403 . S
C1027 C1028 1.524 . S
C1027 C1031 1.400 . S
C1028 H1013 0.960 . S
C1028 H1014 0.960 . S
C1028 H1015 0.960 . S
C1028 C1027 1.524 . S
C1029 C1026 1.403 . S
C1029 C1030 1.392 . S
C1029 C1033 1.495 . S
C1030 C1029 1.392 . S
C1030 C1031 1.385 . S
C1030 C1032 1.478 . S
C1031 H1025 0.930 . S
C1031 C1027 1.400 . S
C1031 C1030 1.385 . S
C1032 C1030 1.478 . S
C1032 C1034 1.381 . S
C1032 C1038 1.383 . S
C1033 C1029 1.495 . S
C1033 H1039 0.959 . S
C1033 H1040 0.961 . S
C1033 H1041 0.960 . S
C1034 C1032 1.381 . S
C1034 C1035 1.394 . S
C1034 H1042 0.930 . S
C1035 C1034 1.394 . S
C1035 C1036 1.383 . S
C1035 H1043 0.929 . S
C1036 C1035 1.383 . S
C1036 C1037 1.377 . S
C1037 H1021 0.930 . S
C1037 C1036 1.377 . S
C1037 C1038 1.379 . S
C1038 H1022 0.931 . S
C1038 C1032 1.383 . S
C1038 C1037 1.379 . S
H1039 C1033 0.959 . S
H1040 C1033 0.961 . S
H1041 C1033 0.960 . S
H1042 C1034 0.930 . S
H1043 C1035 0.929 . S
H1044 C1052 0.929 . S
H1045 C1054 0.930 . S
H1046 C1056 0.930 . S
H1047 C1059 0.929 . S
H1048 C1062 0.930 . S
H1049 C1064 0.960 . S
H1050 C1064 0.960 . S
H1051 C1064 0.960 . S
C1052 H1044 0.929 . S
C1052 C1053 1.377 . S
C1052 C1054 1.384 . S
C1053 C1052 1.377 . S
C1053 C1059 1.390 . S
C1054 H1045 0.930 . S
C1054 C1052 1.384 . S
C1054 C1055 1.372 . S
C1055 C1054 1.372 . S
C1055 C1056 1.400 . S
C1055 C1060 1.490 . S
C1056 H1046 0.930 . S
C1056 C1055 1.400 . S
C1056 C1059 1.386 . S
H1057 C1073 0.930 . S
H1058 C1074 0.931 . S
C1059 H1047 0.929 . S
C1059 C1053 1.390 . S
C1059 C1056 1.386 . S
C1060 C1055 1.490 . S
C1060 C1062 1.395 . S
C1060 C1063 1.403 . S
H1061 C1067 0.930 1_565 S
C1062 H1048 0.930 . S
C1062 C1060 1.395 . S
C1062 C1065 1.403 1_545 S
C1063 C1060 1.403 . S
C1063 C1064 1.524 . S
C1063 C1067 1.400 . S
C1064 H1049 0.960 . S
C1064 H1050 0.960 . S
C1064 H1051 0.960 . S
C1064 C1063 1.524 . S
C1065 C1062 1.403 1_565 S
C1065 C1066 1.392 . S
C1065 C1069 1.495 . S
C1066 C1065 1.392 . S
C1066 C1067 1.385 1_565 S
C1066 C1068 1.478 . S
C1067 H1061 0.930 1_545 S
C1067 C1063 1.400 . S
C1067 C1066 1.385 1_545 S
C1068 C1066 1.478 . S
C1068 C1070 1.381 . S
C1068 C1074 1.383 . S
C1069 C1065 1.495 . S
C1069 H1075 0.959 . S
C1069 H1076 0.961 . S
C1069 H1077 0.960 . S
C1070 C1068 1.381 . S
C1070 C1071 1.394 . S
C1070 H1078 0.930 . S
C1071 C1070 1.394 . S
C1071 C1072 1.383 . S
C1071 H1079 0.929 . S
C1072 C1071 1.383 . S
C1072 C1073 1.377 . S
C1073 H1057 0.930 . S
C1073 C1072 1.377 . S
C1073 C1074 1.379 . S
C1074 H1058 0.931 . S
C1074 C1068 1.383 . S
C1074 C1073 1.379 . S
H1075 C1069 0.959 . S
H1076 C1069 0.961 . S
H1077 C1069 0.960 . S
H1078 C1070 0.930 . S
H1079 C1071 0.929 . S
H1080 C1088 0.929 . S
H1081 C1090 0.930 . S
H1082 C1092 0.930 . S
H1083 C1095 0.929 . S
H1084 C1098 0.930 . S
H1085 C1100 0.960 . S
H1086 C1100 0.960 . S
H1087 C1100 0.960 . S
C1088 H1080 0.929 . S
C1088 C1089 1.377 . S
C1088 C1090 1.384 . S
C1089 C1088 1.377 . S
C1089 C1095 1.390 . S
C1090 H1081 0.930 . S
C1090 C1088 1.384 . S
C1090 C1091 1.372 . S
C1091 C1090 1.372 . S
C1091 C1092 1.400 . S
C1091 C1096 1.490 . S
C1092 H1082 0.930 . S
C1092 C1091 1.400 . S
C1092 C1095 1.386 . S
H1093 C1109 0.930 . S
H1094 C1110 0.931 . S
C1095 H1083 0.929 . S
C1095 C1089 1.390 . S
C1095 C1092 1.386 . S
C1096 C1091 1.490 . S
C1096 C1098 1.395 . S
C1096 C1099 1.403 . S
H1097 C1103 0.930 . S
C1098 H1084 0.930 . S
C1098 C1096 1.395 . S
C1098 C1101 1.403 . S
C1099 C1096 1.403 . S
C1099 C1100 1.524 . S
C1099 C1103 1.400 . S
C1100 H1085 0.960 . S
C1100 H1086 0.960 . S
C1100 H1087 0.960 . S
C1100 C1099 1.524 . S
C1101 C1098 1.403 . S
C1101 C1102 1.392 . S
C1101 C1105 1.495 . S
C1102 C1101 1.392 . S
C1102 C1103 1.385 . S
C1102 C1104 1.478 . S
C1103 H1097 0.930 . S
C1103 C1099 1.400 . S
C1103 C1102 1.385 . S
C1104 C1102 1.478 . S
C1104 C1106 1.381 . S
C1104 C1110 1.383 . S
C1105 C1101 1.495 . S
C1105 H1111 0.959 . S
C1105 H1112 0.961 . S
C1105 H1113 0.960 . S
C1106 C1104 1.381 . S
C1106 C1107 1.394 . S
C1106 H1114 0.930 . S
C1107 C1106 1.394 . S
C1107 C1108 1.383 . S
C1107 H1115 0.929 . S
C1108 C1107 1.383 . S
C1108 C1109 1.377 . S
C1109 H1093 0.930 . S
C1109 C1108 1.377 . S
C1109 C1110 1.379 . S
C1110 H1094 0.931 . S
C1110 C1104 1.383 . S
C1110 C1109 1.379 . S
H1111 C1105 0.959 . S
H1112 C1105 0.961 . S
H1113 C1105 0.960 . S
H1114 C1106 0.930 . S
H1115 C1107 0.929 . S
H1116 C1124 0.929 . S
H1117 C1126 0.930 . S
H1118 C1128 0.930 . S
H1119 C1131 0.929 . S
H1120 C1134 0.930 . S
H1121 C1136 0.960 . S
H1122 C1136 0.960 . S
H1123 C1136 0.960 . S
C1124 H1116 0.929 . S
C1124 C1125 1.377 . S
C1124 C1126 1.384 . S
C1125 C1124 1.377 . S
C1125 C1131 1.390 . S
C1126 H1117 0.930 . S
C1126 C1124 1.384 . S
C1126 C1127 1.372 . S
C1127 C1126 1.372 . S
C1127 C1128 1.400 . S
C1127 C1132 1.490 . S
C1128 H1118 0.930 . S
C1128 C1127 1.400 . S
C1128 C1131 1.386 . S
H1129 C1145 0.930 . S
H1130 C1146 0.931 . S
C1131 H1119 0.929 . S
C1131 C1125 1.390 . S
C1131 C1128 1.386 . S
C1132 C1127 1.490 . S
C1132 C1134 1.395 . S
C1132 C1135 1.403 . S
H1133 C1139 0.930 . S
C1134 H1120 0.930 . S
C1134 C1132 1.395 . S
C1134 C1137 1.403 . S
C1135 C1132 1.403 . S
C1135 C1136 1.524 . S
C1135 C1139 1.400 . S
C1136 H1121 0.960 . S
C1136 H1122 0.960 . S
C1136 H1123 0.960 . S
C1136 C1135 1.524 . S
C1137 C1134 1.403 . S
C1137 C1138 1.392 . S
C1137 C1141 1.495 . S
C1138 C1137 1.392 . S
C1138 C1139 1.385 . S
C1138 C1140 1.478 . S
C1139 H1133 0.930 . S
C1139 C1135 1.400 . S
C1139 C1138 1.385 . S
C1140 C1138 1.478 . S
C1140 C1142 1.381 . S
C1140 C1146 1.383 . S
C1141 C1137 1.495 . S
C1141 H1147 0.959 . S
C1141 H1148 0.961 . S
C1141 H1149 0.960 . S
C1142 C1140 1.381 . S
C1142 C1143 1.394 . S
C1142 H1150 0.930 . S
C1143 C1142 1.394 . S
C1143 C1144 1.383 . S
C1143 H1151 0.929 . S
C1144 C1143 1.383 . S
C1144 C1145 1.377 . S
C1145 H1129 0.930 . S
C1145 C1144 1.377 . S
C1145 C1146 1.379 . S
C1146 H1130 0.931 . S
C1146 C1140 1.383 . S
C1146 C1145 1.379 . S
H1147 C1141 0.959 . S
H1148 C1141 0.961 . S
H1149 C1141 0.960 . S
H1150 C1142 0.930 . S
H1151 C1143 0.929 . S
H1152 C1160 0.929 . S
H1153 C1162 0.930 . S
H1154 C1164 0.930 . S
H1155 C1167 0.929 . S
H1156 C1170 0.930 . S
H1157 C1172 0.960 . S
H1158 C1172 0.960 . S
H1159 C1172 0.960 . S
C1160 H1152 0.929 . S
C1160 C1161 1.377 . S
C1160 C1162 1.384 . S
C1161 C1160 1.377 . S
C1161 C1167 1.390 . S
C1162 H1153 0.930 . S
C1162 C1160 1.384 . S
C1162 C1163 1.372 . S
C1163 C1162 1.372 . S
C1163 C1164 1.400 . S
C1163 C1168 1.490 . S
C1164 H1154 0.930 . S
C1164 C1163 1.400 . S
C1164 C1167 1.386 . S
H1165 C1181 0.930 . S
H1166 C1182 0.931 . S
C1167 H1155 0.929 . S
C1167 C1161 1.390 . S
C1167 C1164 1.386 . S
C1168 C1163 1.490 . S
C1168 C1170 1.395 . S
C1168 C1171 1.403 . S
H1169 C1175 0.930 . S
C1170 H1156 0.930 . S
C1170 C1168 1.395 . S
C1170 C1173 1.403 . S
C1171 C1168 1.403 . S
C1171 C1172 1.524 . S
C1171 C1175 1.400 . S
C1172 H1157 0.960 . S
C1172 H1158 0.960 . S
C1172 H1159 0.960 . S
C1172 C1171 1.524 . S
C1173 C1170 1.403 . S
C1173 C1174 1.392 . S
C1173 C1177 1.495 . S
C1174 C1173 1.392 . S
C1174 C1175 1.385 . S
C1174 C1176 1.478 . S
C1175 H1169 0.930 . S
C1175 C1171 1.400 . S
C1175 C1174 1.385 . S
C1176 C1174 1.478 . S
C1176 C1178 1.381 . S
C1176 C1182 1.383 . S
C1177 C1173 1.495 . S
C1177 H1183 0.959 . S
C1177 H1184 0.961 . S
C1177 H1185 0.960 . S
C1178 C1176 1.381 . S
C1178 C1179 1.394 . S
C1178 H1186 0.930 . S
C1179 C1178 1.394 . S
C1179 C1180 1.383 . S
C1179 H1187 0.929 . S
C1180 C1179 1.383 . S
C1180 C1181 1.377 . S
C1181 H1165 0.930 . S
C1181 C1180 1.377 . S
C1181 C1182 1.379 . S
C1182 H1166 0.931 . S
C1182 C1176 1.383 . S
C1182 C1181 1.379 . S
H1183 C1177 0.959 . S
H1184 C1177 0.961 . S
H1185 C1177 0.960 . S
H1186 C1178 0.930 . S
H1187 C1179 0.929 . S
H1188 C1196 0.929 . S
H1189 C1198 0.930 . S
H1190 C1200 0.930 . S
H1191 C1203 0.929 . S
H1192 C1206 0.930 . S
H1193 C1208 0.960 . S
H1194 C1208 0.960 . S
H1195 C1208 0.960 . S
C1196 H1188 0.929 . S
C1196 C1197 1.377 . S
C1196 C1198 1.384 . S
C1197 C1196 1.377 . S
C1197 C1203 1.390 . S
C1198 H1189 0.930 . S
C1198 C1196 1.384 . S
C1198 C1199 1.372 . S
C1199 C1198 1.372 . S
C1199 C1200 1.400 . S
C1199 C1204 1.490 . S
C1200 H1190 0.930 . S
C1200 C1199 1.400 . S
C1200 C1203 1.386 . S
H1201 C1217 0.930 . S
H1202 C1218 0.931 . S
C1203 H1191 0.929 . S
C1203 C1197 1.390 . S
C1203 C1200 1.386 . S
C1204 C1199 1.490 . S
C1204 C1206 1.395 . S
C1204 C1207 1.403 . S
H1205 C1211 0.930 . S
C1206 H1192 0.930 . S
C1206 C1204 1.395 . S
C1206 C1209 1.403 . S
C1207 C1204 1.403 . S
C1207 C1208 1.524 . S
C1207 C1211 1.400 . S
C1208 H1193 0.960 . S
C1208 H1194 0.960 . S
C1208 H1195 0.960 . S
C1208 C1207 1.524 . S
C1209 C1206 1.403 . S
C1209 C1210 1.392 . S
C1209 C1213 1.495 . S
C1210 C1209 1.392 . S
C1210 C1211 1.385 . S
C1210 C1212 1.478 . S
C1211 H1205 0.930 . S
C1211 C1207 1.400 . S
C1211 C1210 1.385 . S
C1212 C1210 1.478 . S
C1212 C1214 1.381 . S
C1212 C1218 1.383 . S
C1213 C1209 1.495 . S
C1213 H1219 0.959 . S
C1213 H1220 0.961 . S
C1213 H1221 0.960 . S
C1214 C1212 1.381 . S
C1214 C1215 1.394 . S
C1214 H1222 0.930 . S
C1215 C1214 1.394 . S
C1215 C1216 1.383 . S
C1215 H1223 0.929 . S
C1216 C1215 1.383 . S
C1216 C1217 1.377 . S
C1217 H1201 0.930 . S
C1217 C1216 1.377 . S
C1217 C1218 1.379 . S
C1218 H1202 0.931 . S
C1218 C1212 1.383 . S
C1218 C1217 1.379 . S
H1219 C1213 0.959 . S
H1220 C1213 0.961 . S
H1221 C1213 0.960 . S
H1222 C1214 0.930 . S
H1223 C1215 0.929 . S
H1224 C1232 0.929 . S
H1225 C1234 0.930 . S
H1226 C1236 0.930 . S
H1227 C1239 0.929 . S
H1228 C1242 0.930 . S
H1229 C1244 0.960 . S
H1230 C1244 0.960 . S
H1231 C1244 0.960 . S
C1232 H1224 0.929 . S
C1232 C1233 1.377 . S
C1232 C1234 1.384 . S
C1233 C1232 1.377 . S
C1233 C1239 1.390 . S
C1234 H1225 0.930 . S
C1234 C1232 1.384 . S
C1234 C1235 1.372 . S
C1235 C1234 1.372 . S
C1235 C1236 1.400 . S
C1235 C1240 1.490 . S
C1236 H1226 0.930 . S
C1236 C1235 1.400 . S
C1236 C1239 1.386 . S
H1237 C1253 0.930 . S
H1238 C1254 0.931 . S
C1239 H1227 0.929 . S
C1239 C1233 1.390 . S
C1239 C1236 1.386 . S
C1240 C1235 1.490 . S
C1240 C1242 1.395 . S
C1240 C1243 1.403 . S
H1241 C1247 0.930 . S
C1242 H1228 0.930 . S
C1242 C1240 1.395 . S
C1242 C1245 1.403 . S
C1243 C1240 1.403 . S
C1243 C1244 1.524 . S
C1243 C1247 1.400 . S
C1244 H1229 0.960 . S
C1244 H1230 0.960 . S
C1244 H1231 0.960 . S
C1244 C1243 1.524 . S
C1245 C1242 1.403 . S
C1245 C1246 1.392 . S
C1245 C1249 1.495 . S
C1246 C1245 1.392 . S
C1246 C1247 1.385 . S
C1246 C1248 1.478 . S
C1247 H1241 0.930 . S
C1247 C1243 1.400 . S
C1247 C1246 1.385 . S
C1248 C1246 1.478 . S
C1248 C1250 1.381 . S
C1248 C1254 1.383 . S
C1249 C1245 1.495 . S
C1249 H1255 0.959 . S
C1249 H1256 0.961 . S
C1249 H1257 0.960 . S
C1250 C1248 1.381 . S
C1250 C1251 1.394 . S
C1250 H1258 0.930 . S
C1251 C1250 1.394 . S
C1251 C1252 1.383 . S
C1251 H1259 0.929 . S
C1252 C1251 1.383 . S
C1252 C1253 1.377 . S
C1253 H1237 0.930 . S
C1253 C1252 1.377 . S
C1253 C1254 1.379 . S
C1254 H1238 0.931 . S
C1254 C1248 1.383 . S
C1254 C1253 1.379 . S
H1255 C1249 0.959 . S
H1256 C1249 0.961 . S
H1257 C1249 0.960 . S
H1258 C1250 0.930 . S
H1259 C1251 0.929 . S
H1260 C1268 0.929 . S
H1261 C1270 0.930 . S
H1262 C1272 0.930 . S
H1263 C1275 0.929 . S
H1264 C1278 0.930 . S
H1265 C1280 0.960 . S
H1266 C1280 0.960 . S
H1267 C1280 0.960 . S
C1268 H1260 0.929 . S
C1268 C1269 1.377 . S
C1268 C1270 1.384 . S
C1269 C1268 1.377 . S
C1269 C1275 1.390 . S
C1270 H1261 0.930 . S
C1270 C1268 1.384 . S
C1270 C1271 1.372 . S
C1271 C1270 1.372 . S
C1271 C1272 1.400 . S
C1271 C1276 1.490 . S
C1272 H1262 0.930 . S
C1272 C1271 1.400 . S
C1272 C1275 1.386 . S
H1273 C1289 0.930 . S
H1274 C1290 0.931 . S
C1275 H1263 0.929 . S
C1275 C1269 1.390 . S
C1275 C1272 1.386 . S
C1276 C1271 1.490 . S
C1276 C1278 1.395 . S
C1276 C1279 1.403 . S
H1277 C1283 0.930 . S
C1278 H1264 0.930 . S
C1278 C1276 1.395 . S
C1278 C1281 1.403 . S
C1279 C1276 1.403 . S
C1279 C1280 1.524 . S
C1279 C1283 1.400 . S
C1280 H1265 0.960 . S
C1280 H1266 0.960 . S
C1280 H1267 0.960 . S
C1280 C1279 1.524 . S
C1281 C1278 1.403 . S
C1281 C1282 1.392 . S
C1281 C1285 1.495 . S
C1282 C1281 1.392 . S
C1282 C1283 1.385 . S
C1282 C1284 1.478 . S
C1283 H1277 0.930 . S
C1283 C1279 1.400 . S
C1283 C1282 1.385 . S
C1284 C1282 1.478 . S
C1284 C1286 1.381 . S
C1284 C1290 1.383 . S
C1285 C1281 1.495 . S
C1285 H1291 0.959 . S
C1285 H1292 0.961 . S
C1285 H1293 0.960 . S
C1286 C1284 1.381 . S
C1286 C1287 1.394 . S
C1286 H1294 0.930 . S
C1287 C1286 1.394 . S
C1287 C1288 1.383 . S
C1287 H1295 0.929 . S
C1288 C1287 1.383 . S
C1288 C1289 1.377 . S
C1289 H1273 0.930 . S
C1289 C1288 1.377 . S
C1289 C1290 1.379 . S
C1290 H1274 0.931 . S
C1290 C1284 1.383 . S
C1290 C1289 1.379 . S
H1291 C1285 0.959 . S
H1292 C1285 0.961 . S
H1293 C1285 0.960 . S
H1294 C1286 0.930 . S
H1295 C1287 0.929 . S
H1296 C1304 0.929 . S
H1297 C1306 0.930 . S
H1298 C1308 0.930 . S
H1299 C1311 0.929 . S
H1300 C1314 0.930 . S
H1301 C1316 0.960 . S
H1302 C1316 0.960 . S
H1303 C1316 0.960 . S
C1304 H1296 0.929 . S
C1304 C1305 1.377 . S
C1304 C1306 1.384 . S
C1305 C1304 1.377 . S
C1305 C1311 1.390 . S
C1306 H1297 0.930 . S
C1306 C1304 1.384 . S
C1306 C1307 1.372 . S
C1307 C1306 1.372 . S
C1307 C1308 1.400 . S
C1307 C1312 1.490 . S
C1308 H1298 0.930 . S
C1308 C1307 1.400 . S
C1308 C1311 1.386 . S
H1309 C1325 0.930 1_545 S
H1310 C1326 0.931 . S
C1311 H1299 0.929 . S
C1311 C1305 1.390 . S
C1311 C1308 1.386 . S
C1312 C1307 1.490 . S
C1312 C1314 1.395 . S
C1312 C1315 1.403 . S
H1313 C1319 0.930 . S
C1314 H1300 0.930 . S
C1314 C1312 1.395 . S
C1314 C1317 1.403 . S
C1315 C1312 1.403 . S
C1315 C1316 1.524 . S
C1315 C1319 1.400 . S
C1316 H1301 0.960 . S
C1316 H1302 0.960 . S
C1316 H1303 0.960 . S
C1316 C1315 1.524 . S
C1317 C1314 1.403 . S
C1317 C1318 1.392 . S
C1317 C1321 1.495 . S
C1318 C1317 1.392 . S
C1318 C1319 1.385 . S
C1318 C1320 1.478 . S
C1319 H1313 0.930 . S
C1319 C1315 1.400 . S
C1319 C1318 1.385 . S
C1320 C1318 1.478 . S
C1320 C1322 1.381 . S
C1320 C1326 1.383 . S
C1321 C1317 1.495 . S
C1321 H1327 0.959 . S
C1321 H1328 0.961 . S
C1321 H1329 0.960 . S
C1322 C1320 1.381 . S
C1322 C1323 1.394 1_565 S
C1322 H1330 0.930 . S
C1323 C1322 1.394 1_545 S
C1323 C1324 1.383 . S
C1323 H1331 0.929 . S
C1324 C1323 1.383 . S
C1324 C1325 1.377 1_545 S
C1325 H1309 0.930 1_565 S
C1325 C1324 1.377 1_565 S
C1325 C1326 1.379 . S
C1326 H1310 0.931 . S
C1326 C1320 1.383 . S
C1326 C1325 1.379 . S
H1327 C1321 0.959 . S
H1328 C1321 0.961 . S
H1329 C1321 0.960 . S
H1330 C1322 0.930 . S
H1331 C1323 0.929 . S
H1332 C1340 0.929 1_655 S
H1333 C1342 0.930 . S
H1334 C1344 0.930 . S
H1335 C1347 0.929 1_655 S
H1336 C1350 0.930 . S
H1337 C1352 0.960 . S
H1338 C1352 0.960 . S
H1339 C1352 0.960 . S
C1340 H1332 0.929 1_455 S
C1340 C1341 1.377 1_455 S
C1340 C1342 1.384 . S
C1341 C1340 1.377 1_655 S
C1341 C1347 1.390 1_655 S
C1342 H1333 0.930 . S
C1342 C1340 1.384 . S
C1342 C1343 1.372 . S
C1343 C1342 1.372 . S
C1343 C1344 1.400 . S
C1343 C1348 1.490 . S
C1344 H1334 0.930 . S
C1344 C1343 1.400 . S
C1344 C1347 1.386 . S
H1345 C1361 0.930 . S
H1346 C1362 0.931 1_565 S
C1347 H1335 0.929 1_455 S
C1347 C1341 1.390 1_455 S
C1347 C1344 1.386 . S
C1348 C1343 1.490 . S
C1348 C1350 1.395 . S
C1348 C1351 1.403 . S
H1349 C1355 0.930 . S
C1350 H1336 0.930 . S
C1350 C1348 1.395 . S
C1350 C1353 1.403 . S
C1351 C1348 1.403 . S
C1351 C1352 1.524 . S
C1351 C1355 1.400 . S
C1352 H1337 0.960 . S
C1352 H1338 0.960 . S
C1352 H1339 0.960 . S
C1352 C1351 1.524 . S
C1353 C1350 1.403 . S
C1353 C1354 1.392 . S
C1353 C1357 1.495 1_565 S
C1354 C1353 1.392 . S
C1354 C1355 1.385 . S
C1354 C1356 1.478 1_565 S
C1355 H1349 0.930 . S
C1355 C1351 1.400 . S
C1355 C1354 1.385 . S
C1356 C1354 1.478 1_545 S
C1356 C1358 1.381 . S
C1356 C1362 1.383 . S
C1357 C1353 1.495 1_545 S
C1357 H1363 0.959 . S
C1357 H1364 0.961 . S
C1357 H1365 0.960 . S
C1358 C1356 1.381 . S
C1358 C1359 1.394 . S
C1358 H1366 0.930 . S
C1359 C1358 1.394 . S
C1359 C1360 1.383 . S
C1359 H1367 0.929 . S
C1360 C1359 1.383 . S
C1360 C1361 1.377 . S
C1361 H1345 0.930 . S
C1361 C1360 1.377 . S
C1361 C1362 1.379 . S
C1362 H1346 0.931 1_545 S
C1362 C1356 1.383 . S
C1362 C1361 1.379 . S
H1363 C1357 0.959 . S
H1364 C1357 0.961 . S
H1365 C1357 0.960 . S
H1366 C1358 0.930 . S
H1367 C1359 0.929 . S
H1368 C1376 0.929 . S
H1369 C1378 0.930 . S
H1370 C1380 0.930 . S
H1371 C1383 0.929 . S
H1372 C1386 0.930 . S
H1373 C1388 0.960 . S
H1374 C1388 0.960 . S
H1375 C1388 0.960 . S
C1376 H1368 0.929 . S
C1376 C1377 1.377 . S
C1376 C1378 1.384 . S
C1377 C1376 1.377 . S
C1377 C1383 1.390 . S
C1378 H1369 0.930 . S
C1378 C1376 1.384 . S
C1378 C1379 1.372 . S
C1379 C1378 1.372 . S
C1379 C1380 1.400 . S
C1379 C1384 1.490 . S
C1380 H1370 0.930 . S
C1380 C1379 1.400 . S
C1380 C1383 1.386 . S
H1381 C1397 0.930 . S
H1382 C1398 0.931 . S
C1383 H1371 0.929 . S
C1383 C1377 1.390 . S
C1383 C1380 1.386 . S
C1384 C1379 1.490 . S
C1384 C1386 1.395 . S
C1384 C1387 1.403 . S
H1385 C1391 0.955 . S
C1386 H1372 0.930 . S
C1386 C1384 1.395 . S
C1386 C1389 1.403 . S
C1387 C1384 1.403 . S
C1387 C1388 1.524 . S
C1387 C1391 1.400 . S
C1388 H1373 0.960 . S
C1388 H1374 0.960 . S
C1388 H1375 0.960 . S
C1388 C1387 1.524 . S
C1389 C1386 1.403 . S
C1389 C1390 1.392 . S
C1389 C1393 1.495 . S
C1390 C1389 1.392 . S
C1390 C1391 1.385 . S
C1390 C1392 1.478 . S
C1391 H1385 0.955 . S
C1391 C1387 1.400 . S
C1391 C1390 1.385 . S
C1392 C1390 1.478 . S
C1392 C1394 1.393 . S
C1392 C1398 1.383 1_455 S
C1393 C1389 1.495 . S
C1393 H1399 0.959 . S
C1393 H1400 0.961 . S
C1393 H1401 0.960 . S
C1394 C1392 1.393 . S
C1394 C1395 1.366 1_455 S
C1394 H1402 0.948 . S
C1395 C1394 1.366 1_655 S
C1395 C1396 1.383 . S
C1395 H1403 0.929 . S
C1396 C1395 1.383 . S
C1396 C1397 1.377 . S
C1397 H1381 0.930 . S
C1397 C1396 1.377 . S
C1397 C1398 1.379 . S
C1398 H1382 0.931 . S
C1398 C1392 1.383 1_655 S
C1398 C1397 1.379 . S
H1399 C1393 0.959 . S
H1400 C1393 0.961 . S
H1401 C1393 0.960 . S
H1402 C1394 0.948 . S
H1403 C1395 0.929 . S
H1404 C1412 0.929 . S
H1405 C1414 0.930 . S
H1406 C1416 0.930 . S
H1407 C1419 0.929 . S
H1408 C1422 0.930 . S
H1409 C1424 0.960 . S
H1410 C1424 0.960 . S
H1411 C1424 0.960 . S
C1412 H1404 0.929 . S
C1412 C1413 1.377 . S
C1412 C1414 1.384 . S
C1413 C1412 1.377 . S
C1413 C1419 1.390 . S
C1414 H1405 0.930 . S
C1414 C1412 1.384 . S
C1414 C1415 1.372 . S
C1415 C1414 1.372 . S
C1415 C1416 1.400 . S
C1415 C1420 1.490 . S
C1416 H1406 0.930 . S
C1416 C1415 1.400 . S
C1416 C1419 1.386 . S
H1417 C1433 0.930 . S
H1418 C1434 0.931 . S
C1419 H1407 0.929 . S
C1419 C1413 1.390 . S
C1419 C1416 1.386 . S
C1420 C1415 1.490 . S
C1420 C1422 1.395 . S
C1420 C1423 1.403 . S
H1421 C1427 0.930 . S
C1422 H1408 0.930 . S
C1422 C1420 1.395 . S
C1422 C1425 1.403 . S
C1423 C1420 1.403 . S
C1423 C1424 1.524 . S
C1423 C1427 1.400 . S
C1424 H1409 0.960 . S
C1424 H1410 0.960 . S
C1424 H1411 0.960 . S
C1424 C1423 1.524 . S
C1425 C1422 1.403 . S
C1425 C1426 1.392 . S
C1425 C1429 1.495 . S
C1426 C1425 1.392 . S
C1426 C1427 1.385 . S
C1426 C1428 1.478 . S
C1427 H1421 0.930 . S
C1427 C1423 1.400 . S
C1427 C1426 1.385 . S
C1428 C1426 1.478 . S
C1428 C1430 1.381 . S
C1428 C1434 1.383 . S
C1429 C1425 1.495 . S
C1429 H1435 0.959 . S
C1429 H1436 0.961 . S
C1429 H1437 0.960 . S
C1430 C1428 1.381 . S
C1430 C1431 1.394 . S
C1430 H1438 0.930 . S
C1431 C1430 1.394 . S
C1431 C1432 1.383 . S
C1431 H1439 0.929 . S
C1432 C1431 1.383 . S
C1432 C1433 1.377 . S
C1433 H1417 0.930 . S
C1433 C1432 1.377 . S
C1433 C1434 1.379 . S
C1434 H1418 0.931 . S
C1434 C1428 1.383 . S
C1434 C1433 1.379 . S
H1435 C1429 0.959 . S
H1436 C1429 0.961 . S
H1437 C1429 0.960 . S
H1438 C1430 0.930 . S
H1439 C1431 0.929 . S
H1440 C1448 0.929 . S
H1441 C1450 0.930 . S
H1442 C1452 0.930 . S
H1443 C1455 0.929 . S
H1444 C1458 0.930 . S
H1445 C1460 0.960 . S
H1446 C1460 0.960 . S
H1447 C1460 0.960 . S
C1448 H1440 0.929 . S
C1448 C1449 1.377 . S
C1448 C1450 1.384 . S
C1449 C1448 1.377 . S
C1449 C1455 1.390 . S
C1450 H1441 0.930 . S
C1450 C1448 1.384 . S
C1450 C1451 1.372 . S
C1451 C1450 1.372 . S
C1451 C1452 1.400 . S
C1451 C1456 1.490 . S
C1452 H1442 0.930 . S
C1452 C1451 1.400 . S
C1452 C1455 1.386 . S
H1453 C1469 0.930 . S
H1454 C1470 0.931 . S
C1455 H1443 0.929 . S
C1455 C1449 1.390 . S
C1455 C1452 1.386 . S
C1456 C1451 1.490 . S
C1456 C1458 1.395 . S
C1456 C1459 1.403 . S
H1457 C1463 0.930 . S
C1458 H1444 0.930 . S
C1458 C1456 1.395 . S
C1458 C1461 1.403 . S
C1459 C1456 1.403 . S
C1459 C1460 1.524 . S
C1459 C1463 1.400 . S
C1460 H1445 0.960 . S
C1460 H1446 0.960 . S
C1460 H1447 0.960 . S
C1460 C1459 1.524 . S
C1461 C1458 1.403 . S
C1461 C1462 1.392 . S
C1461 C1465 1.495 . S
C1462 C1461 1.392 . S
C1462 C1463 1.385 . S
C1462 C1464 1.478 . S
C1463 H1457 0.930 . S
C1463 C1459 1.400 . S
C1463 C1462 1.385 . S
C1464 C1462 1.478 . S
C1464 C1466 1.381 . S
C1464 C1470 1.383 . S
C1465 C1461 1.495 . S
C1465 H1471 0.959 . S
C1465 H1472 0.961 . S
C1465 H1473 0.960 . S
C1466 C1464 1.381 . S
C1466 C1467 1.394 . S
C1466 H1474 0.930 . S
C1467 C1466 1.394 . S
C1467 C1468 1.383 . S
C1467 H1475 0.929 . S
C1468 C1467 1.383 . S
C1468 C1469 1.377 . S
C1469 H1453 0.930 . S
C1469 C1468 1.377 . S
C1469 C1470 1.379 . S
C1470 H1454 0.931 . S
C1470 C1464 1.383 . S
C1470 C1469 1.379 . S
H1471 C1465 0.959 . S
H1472 C1465 0.961 . S
H1473 C1465 0.960 . S
H1474 C1466 0.930 . S
H1475 C1467 0.929 . S
H1476 C1484 0.929 1_545 S
H1477 C1486 0.930 . S
H1478 C1488 0.930 . S
H1479 C1491 0.929 . S
H1480 C1494 0.930 . S
H1481 C1496 0.960 . S
H1482 C1496 0.960 . S
H1483 C1496 0.960 . S
C1484 H1476 0.929 1_565 S
C1484 C1485 1.377 . S
C1484 C1486 1.384 . S
C1485 C1484 1.377 . S
C1485 C1491 1.390 . S
C1486 H1477 0.930 . S
C1486 C1484 1.384 . S
C1486 C1487 1.372 . S
C1487 C1486 1.372 . S
C1487 C1488 1.400 . S
C1487 C1492 1.490 . S
C1488 H1478 0.930 . S
C1488 C1487 1.400 . S
C1488 C1491 1.386 . S
H1489 C1505 0.930 . S
H1490 C1506 0.931 . S
C1491 H1479 0.929 . S
C1491 C1485 1.390 . S
C1491 C1488 1.386 . S
C1492 C1487 1.490 . S
C1492 C1494 1.395 . S
C1492 C1495 1.403 . S
H1493 C1499 0.930 . S
C1494 H1480 0.930 . S
C1494 C1492 1.395 . S
C1494 C1497 1.403 . S
C1495 C1492 1.403 . S
C1495 C1496 1.524 . S
C1495 C1499 1.400 . S
C1496 H1481 0.960 . S
C1496 H1482 0.960 . S
C1496 H1483 0.960 . S
C1496 C1495 1.524 . S
C1497 C1494 1.403 . S
C1497 C1498 1.392 . S
C1497 C1501 1.495 . S
C1498 C1497 1.392 . S
C1498 C1499 1.385 . S
C1498 C1500 1.478 . S
C1499 H1493 0.930 . S
C1499 C1495 1.400 . S
C1499 C1498 1.385 . S
C1500 C1498 1.478 . S
C1500 C1502 1.381 . S
C1500 C1506 1.383 . S
C1501 C1497 1.495 . S
C1501 H1507 0.959 . S
C1501 H1508 0.961 . S
C1501 H1509 0.960 . S
C1502 C1500 1.381 . S
C1502 C1503 1.394 . S
C1502 H1510 0.930 . S
C1503 C1502 1.394 . S
C1503 C1504 1.383 . S
C1503 H1511 0.929 . S
C1504 C1503 1.383 . S
C1504 C1505 1.377 . S
C1505 H1489 0.930 . S
C1505 C1504 1.377 . S
C1505 C1506 1.379 . S
C1506 H1490 0.931 . S
C1506 C1500 1.383 . S
C1506 C1505 1.379 . S
H1507 C1501 0.959 . S
H1508 C1501 0.961 . S
H1509 C1501 0.960 . S
H1510 C1502 0.930 . S
H1511 C1503 0.929 . S
H1512 C1520 0.929 . S
H1513 C1522 0.930 . S
H1514 C1524 0.930 . S
H1515 C1527 0.929 . S
H1516 C1530 0.930 . S
H1517 C1532 0.960 . S
H1518 C1532 0.960 . S
H1519 C1532 0.960 . S
C1520 H1512 0.929 . S
C1520 C1521 1.377 . S
C1520 C1522 1.384 . S
C1521 C1520 1.377 . S
C1521 C1527 1.390 . S
C1522 H1513 0.930 . S
C1522 C1520 1.384 . S
C1522 C1523 1.372 . S
C1523 C1522 1.372 . S
C1523 C1524 1.400 . S
C1523 C1528 1.490 . S
C1524 H1514 0.930 . S
C1524 C1523 1.400 . S
C1524 C1527 1.386 . S
H1525 C1541 0.930 . S
H1526 C1542 0.931 . S
C1527 H1515 0.929 . S
C1527 C1521 1.390 . S
C1527 C1524 1.386 . S
C1528 C1523 1.490 . S
C1528 C1530 1.395 . S
C1528 C1531 1.403 . S
H1529 C1535 0.930 . S
C1530 H1516 0.930 . S
C1530 C1528 1.395 . S
C1530 C1533 1.403 . S
C1531 C1528 1.403 . S
C1531 C1532 1.524 . S
C1531 C1535 1.400 . S
C1532 H1517 0.960 . S
C1532 H1518 0.960 . S
C1532 H1519 0.960 . S
C1532 C1531 1.524 . S
C1533 C1530 1.403 . S
C1533 C1534 1.392 . S
C1533 C1537 1.495 . S
C1534 C1533 1.392 . S
C1534 C1535 1.385 . S
C1534 C1536 1.478 . S
C1535 H1529 0.930 . S
C1535 C1531 1.400 . S
C1535 C1534 1.385 . S
C1536 C1534 1.478 . S
C1536 C1538 1.381 . S
C1536 C1542 1.383 . S
C1537 C1533 1.495 . S
C1537 H1543 0.959 . S
C1537 H1544 0.961 . S
C1537 H1545 0.960 . S
C1538 C1536 1.381 . S
C1538 C1539 1.394 . S
C1538 H1546 0.930 . S
C1539 C1538 1.394 . S
C1539 C1540 1.383 . S
C1539 H1547 0.929 . S
C1540 C1539 1.383 . S
C1540 C1541 1.377 . S
C1541 H1525 0.930 . S
C1541 C1540 1.377 . S
C1541 C1542 1.379 . S
C1542 H1526 0.931 . S
C1542 C1536 1.383 . S
C1542 C1541 1.379 . S
H1543 C1537 0.959 . S
H1544 C1537 0.961 . S
H1545 C1537 0.960 . S
H1546 C1538 0.930 . S
H1547 C1539 0.929 . S
H1548 C1556 0.929 1_455 S
H1549 C1558 0.930 . S
H1550 C1560 0.930 . S
H1551 C1563 0.929 . S
H1552 C1566 0.930 . S
H1553 C1568 0.960 . S
H1554 C1568 0.960 . S
H1555 C1568 0.960 . S
C1556 H1548 0.929 1_655 S
C1556 C1557 1.377 . S
C1556 C1558 1.384 . S
C1557 C1556 1.377 . S
C1557 C1563 1.390 . S
C1558 H1549 0.930 . S
C1558 C1556 1.384 . S
C1558 C1559 1.372 . S
C1559 C1558 1.372 . S
C1559 C1560 1.400 . S
C1559 C1564 1.490 . S
C1560 H1550 0.930 . S
C1560 C1559 1.400 . S
C1560 C1563 1.386 . S
H1561 C1577 0.930 . S
H1562 C1578 0.931 . S
C1563 H1551 0.929 . S
C1563 C1557 1.390 . S
C1563 C1560 1.386 . S
C1564 C1559 1.490 . S
C1564 C1566 1.395 . S
C1564 C1567 1.403 . S
H1565 C1571 0.930 . S
C1566 H1552 0.930 . S
C1566 C1564 1.395 . S
C1566 C1569 1.403 . S
C1567 C1564 1.403 . S
C1567 C1568 1.524 . S
C1567 C1571 1.400 . S
C1568 H1553 0.960 . S
C1568 H1554 0.960 . S
C1568 H1555 0.960 . S
C1568 C1567 1.524 . S
C1569 C1566 1.403 . S
C1569 C1570 1.392 . S
C1569 C1573 1.495 . S
C1570 C1569 1.392 . S
C1570 C1571 1.385 . S
C1570 C1572 1.478 . S
C1571 H1565 0.930 . S
C1571 C1567 1.400 . S
C1571 C1570 1.385 . S
C1572 C1570 1.478 . S
C1572 C1574 1.381 . S
C1572 C1578 1.383 . S
C1573 C1569 1.495 . S
C1573 H1579 0.959 . S
C1573 H1580 0.961 . S
C1573 H1581 0.960 . S
C1574 C1572 1.381 . S
C1574 C1575 1.394 . S
C1574 H1582 0.930 . S
C1575 C1574 1.394 . S
C1575 C1576 1.383 . S
C1575 H1583 0.929 . S
C1576 C1575 1.383 . S
C1576 C1577 1.377 . S
C1577 H1561 0.930 . S
C1577 C1576 1.377 . S
C1577 C1578 1.379 . S
C1578 H1562 0.931 . S
C1578 C1572 1.383 . S
C1578 C1577 1.379 . S
H1579 C1573 0.959 . S
H1580 C1573 0.961 . S
H1581 C1573 0.960 . S
H1582 C1574 0.930 . S
H1583 C1575 0.929 . S
H1584 C1592 0.929 . S
H1585 C1594 0.930 . S
H1586 C1596 0.930 . S
H1587 C1599 0.929 . S
H1588 C1602 0.930 . S
H1589 C1604 0.960 . S
H1590 C1604 0.960 . S
H1591 C1604 0.960 . S
C1592 H1584 0.929 . S
C1592 C1593 1.377 . S
C1592 C1594 1.384 . S
C1593 C1592 1.377 . S
C1593 C1599 1.390 . S
C1594 H1585 0.930 . S
C1594 C1592 1.384 . S
C1594 C1595 1.372 . S
C1595 C1594 1.372 . S
C1595 C1596 1.400 . S
C1595 C1600 1.490 . S
C1596 H1586 0.930 . S
C1596 C1595 1.400 . S
C1596 C1599 1.386 . S
H1597 C1613 0.930 . S
H1598 C1614 0.931 . S
C1599 H1587 0.929 . S
C1599 C1593 1.390 . S
C1599 C1596 1.386 . S
C1600 C1595 1.490 . S
C1600 C1602 1.395 . S
C1600 C1603 1.403 . S
H1601 C1607 0.930 . S
C1602 H1588 0.930 . S
C1602 C1600 1.395 . S
C1602 C1605 1.403 . S
C1603 C1600 1.403 . S
C1603 C1604 1.524 . S
C1603 C1607 1.400 . S
C1604 H1589 0.960 . S
C1604 H1590 0.960 . S
C1604 H1591 0.960 . S
C1604 C1603 1.524 . S
C1605 C1602 1.403 . S
C1605 C1606 1.392 . S
C1605 C1609 1.495 . S
C1606 C1605 1.392 . S
C1606 C1607 1.385 . S
C1606 C1608 1.478 . S
C1607 H1601 0.930 . S
C1607 C1603 1.400 . S
C1607 C1606 1.385 . S
C1608 C1606 1.478 . S
C1608 C1610 1.381 . S
C1608 C1614 1.383 . S
C1609 C1605 1.495 . S
C1609 H1615 0.959 . S
C1609 H1616 0.961 . S
C1609 H1617 0.960 . S
C1610 C1608 1.381 . S
C1610 C1611 1.394 . S
C1610 H1618 0.930 . S
C1611 C1610 1.394 . S
C1611 C1612 1.383 . S
C1611 H1619 0.929 . S
C1612 C1611 1.383 . S
C1612 C1613 1.377 . S
C1613 H1597 0.930 . S
C1613 C1612 1.377 . S
C1613 C1614 1.379 . S
C1614 H1598 0.931 . S
C1614 C1608 1.383 . S
C1614 C1613 1.379 . S
H1615 C1609 0.959 . S
H1616 C1609 0.961 . S
H1617 C1609 0.960 . S
H1618 C1610 0.930 . S
H1619 C1611 0.929 . S
H1620 C1628 0.929 . S
H1621 C1630 0.930 . S
H1622 C1632 0.930 . S
H1623 C1635 0.929 . S
H1624 C1638 0.930 . S
H1625 C1640 0.960 . S
H1626 C1640 0.960 . S
H1627 C1640 0.960 . S
C1628 H1620 0.929 . S
C1628 C1629 1.377 . S
C1628 C1630 1.384 . S
C1629 C1628 1.377 . S
C1629 C1635 1.390 . S
C1630 H1621 0.930 . S
C1630 C1628 1.384 . S
C1630 C1631 1.372 . S
C1631 C1630 1.372 . S
C1631 C1632 1.400 . S
C1631 C1636 1.490 . S
C1632 H1622 0.930 . S
C1632 C1631 1.400 . S
C1632 C1635 1.386 . S
H1633 C1649 0.930 . S
H1634 C1650 0.931 . S
C1635 H1623 0.929 . S
C1635 C1629 1.390 . S
C1635 C1632 1.386 . S
C1636 C1631 1.490 . S
C1636 C1638 1.395 . S
C1636 C1639 1.403 . S
H1637 C1643 0.930 . S
C1638 H1624 0.930 . S
C1638 C1636 1.395 . S
C1638 C1641 1.403 . S
C1639 C1636 1.403 . S
C1639 C1640 1.524 . S
C1639 C1643 1.400 . S
C1640 H1625 0.960 . S
C1640 H1626 0.960 . S
C1640 H1627 0.960 . S
C1640 C1639 1.524 . S
C1641 C1638 1.403 . S
C1641 C1642 1.392 . S
C1641 C1645 1.495 . S
C1642 C1641 1.392 . S
C1642 C1643 1.385 . S
C1642 C1644 1.478 . S
C1643 H1637 0.930 . S
C1643 C1639 1.400 . S
C1643 C1642 1.385 . S
C1644 C1642 1.478 . S
C1644 C1646 1.381 . S
C1644 C1650 1.383 . S
C1645 C1641 1.495 . S
C1645 H1651 0.959 . S
C1645 H1652 0.961 . S
C1645 H1653 0.960 . S
C1646 C1644 1.381 . S
C1646 C1647 1.394 . S
C1646 H1654 0.930 . S
C1647 C1646 1.394 . S
C1647 C1648 1.383 . S
C1647 H1655 0.929 . S
C1648 C1647 1.383 . S
C1648 C1649 1.377 . S
C1649 H1633 0.930 . S
C1649 C1648 1.377 . S
C1649 C1650 1.379 . S
C1650 H1634 0.931 . S
C1650 C1644 1.383 . S
C1650 C1649 1.379 . S
H1651 C1645 0.959 . S
H1652 C1645 0.961 . S
H1653 C1645 0.960 . S
H1654 C1646 0.930 . S
H1655 C1647 0.929 . S
H1656 C1664 0.929 . S
H1657 C1666 0.930 . S
H1658 C1668 0.930 1_545 S
H1659 C1671 0.929 . S
H1660 C1674 0.930 . S
H1661 C1676 0.960 . S
H1662 C1676 0.960 . S
H1663 C1676 0.960 . S
C1664 H1656 0.929 . S
C1664 C1665 1.377 . S
C1664 C1666 1.384 . S
C1665 C1664 1.377 . S
C1665 C1671 1.390 . S
C1666 H1657 0.930 . S
C1666 C1664 1.384 . S
C1666 C1667 1.372 . S
C1667 C1666 1.372 . S
C1667 C1668 1.400 . S
C1667 C1672 1.490 . S
C1668 H1658 0.930 1_565 S
C1668 C1667 1.400 . S
C1668 C1671 1.386 . S
H1669 C1685 0.930 . S
H1670 C1686 0.931 . S
C1671 H1659 0.929 . S
C1671 C1665 1.390 . S
C1671 C1668 1.386 . S
C1672 C1667 1.490 . S
C1672 C1674 1.395 . S
C1672 C1675 1.403 1_565 S
H1673 C1679 0.930 . S
C1674 H1660 0.930 . S
C1674 C1672 1.395 . S
C1674 C1677 1.403 1_565 S
C1675 C1672 1.403 1_545 S
C1675 C1676 1.524 . S
C1675 C1679 1.400 . S
C1676 H1661 0.960 . S
C1676 H1662 0.960 . S
C1676 H1663 0.960 . S
C1676 C1675 1.524 . S
C1677 C1674 1.403 1_545 S
C1677 C1678 1.392 . S
C1677 C1681 1.495 . S
C1678 C1677 1.392 . S
C1678 C1679 1.385 . S
C1678 C1680 1.478 . S
C1679 H1673 0.930 . S
C1679 C1675 1.400 . S
C1679 C1678 1.385 . S
C1680 C1678 1.478 . S
C1680 C1682 1.381 . S
C1680 C1686 1.383 . S
C1681 C1677 1.495 . S
C1681 H1687 0.959 1_545 S
C1681 H1688 0.961 . S
C1681 H1689 0.960 . S
C1682 C1680 1.381 . S
C1682 C1683 1.394 . S
C1682 H1690 0.930 . S
C1683 C1682 1.394 . S
C1683 C1684 1.383 . S
C1683 H1691 0.929 . S
C1684 C1683 1.383 . S
C1684 C1685 1.377 . S
C1685 H1669 0.930 . S
C1685 C1684 1.377 . S
C1685 C1686 1.379 . S
C1686 H1670 0.931 . S
C1686 C1680 1.383 . S
C1686 C1685 1.379 . S
H1687 C1681 0.959 1_565 S
H1688 C1681 0.961 . S
H1689 C1681 0.960 . S
H1690 C1682 0.930 . S
H1691 C1683 0.929 . S
H1692 C1700 0.929 . S
H1693 C1702 0.930 . S
H1694 C1704 0.930 . S
H1695 C1707 0.929 . S
H1696 C1710 0.930 . S
H1697 C1712 0.960 . S
H1698 C1712 0.960 . S
H1699 C1712 0.960 . S
C1700 H1692 0.929 . S
C1700 C1701 1.377 . S
C1700 C1702 1.384 . S
C1701 C1700 1.377 . S
C1701 C1707 1.390 . S
C1702 H1693 0.930 . S
C1702 C1700 1.384 . S
C1702 C1703 1.372 . S
C1703 C1702 1.372 . S
C1703 C1704 1.400 . S
C1703 C1708 1.490 . S
C1704 H1694 0.930 . S
C1704 C1703 1.400 . S
C1704 C1707 1.386 . S
H1705 C1721 0.930 . S
H1706 C1722 0.931 . S
C1707 H1695 0.929 . S
C1707 C1701 1.390 . S
C1707 C1704 1.386 . S
C1708 C1703 1.490 . S
C1708 C1710 1.395 . S
C1708 C1711 1.403 . S
H1709 C1715 0.930 . S
C1710 H1696 0.930 . S
C1710 C1708 1.395 . S
C1710 C1713 1.403 1_655 S
C1711 C1708 1.403 . S
C1711 C1712 1.524 . S
C1711 C1715 1.400 . S
C1712 H1697 0.960 . S
C1712 H1698 0.960 . S
C1712 H1699 0.960 . S
C1712 C1711 1.524 . S
C1713 C1710 1.403 1_455 S
C1713 C1714 1.392 . S
C1713 C1717 1.495 . S
C1714 C1713 1.392 . S
C1714 C1715 1.385 1_455 S
C1714 C1716 1.478 . S
C1715 H1709 0.930 . S
C1715 C1711 1.400 . S
C1715 C1714 1.385 1_655 S
C1716 C1714 1.478 . S
C1716 C1718 1.381 . S
C1716 C1722 1.383 . S
C1717 C1713 1.495 . S
C1717 H1723 0.959 . S
C1717 H1724 0.961 . S
C1717 H1725 0.960 . S
C1718 C1716 1.381 . S
C1718 C1719 1.394 . S
C1718 H1726 0.930 . S
C1719 C1718 1.394 . S
C1719 C1720 1.383 . S
C1719 H1727 0.929 . S
C1720 C1719 1.383 . S
C1720 C1721 1.377 . S
C1721 H1705 0.930 . S
C1721 C1720 1.377 . S
C1721 C1722 1.379 . S
C1722 H1706 0.931 . S
C1722 C1716 1.383 . S
C1722 C1721 1.379 . S
H1723 C1717 0.959 . S
H1724 C1717 0.961 . S
H1725 C1717 0.960 . S
H1726 C1718 0.930 . S
H1727 C1719 0.929 . S
C765 C151 1.091 . S
C784 C58 1.027 . S
C801 C235 1.081 . S
C820 C142 0.959 . S
C837 C226 0.954 . S
C856 C67 1.070 . S
C873 C224 1.417 . S
C892 C153 1.166 . S
C909 C237 1.236 . S
C928 C56 1.427 . S
C945 C69 1.217 . S
C964 C140 1.392 . S
C981 C310 0.954 . S
C1000 C403 1.097 . S
C1017 C487 1.085 . S
C1036 C394 1.029 . S
C1053 C478 0.961 . S
C1072 C319 1.056 . S
C1089 C405 1.216 . S
C1108 C476 1.396 . S
C1125 C489 1.223 . S
C1144 C308 1.442 . S
C1161 C392 1.414 . S
C1180 C321 1.258 . S
C1197 C655 1.082 . S
C1216 C562 0.921 . S
C1233 C646 0.982 . S
C1252 C739 1.085 . S
C1269 C730 0.978 . S
C1288 C571 1.068 . S
C1305 C728 1.419 . S
C1324 C657 1.279 . S
C1341 C741 1.233 . S
C1360 C560 1.399 . S
C1377 C573 1.218 . S
C1396 C644 1.437 . S
C1413 C494 2.456 . S
C1432 C63 2.571 . S
C1449 C326 2.447 . S
C1468 C147 2.591 . S
C1485 C231 2.585 . S
C1504 C410 2.458 . S
C1521 C242 2.447 . S
C1540 C567 2.592 . S
C1557 C74 2.452 . S
C1576 C651 2.579 . S
C1593 C735 2.584 . S
C1612 C158 2.466 . S
C1629 C315 2.585 . S
C1648 C746 2.451 . S
C1665 C399 2.588 . S
C1684 C578 2.424 . S
C1701 C662 2.447 . S
C1720 C483 2.593 . S
