# Generated by pormake.
# Topology sod, (4)-cn, num edge types: 1
# Building blocks:
#     Node 0, Type 0, BuildingBlock: AZAVOO_clean_sbu_0, # of connection points: 4
#     Node 1, Type 0, BuildingBlock: AZAVOO_clean_sbu_0, # of connection points: 4
#     Node 2, Type 0, BuildingBlock: AZAVOO_clean_sbu_0, # of connection points: 4
#     Node 3, Type 0, BuildingBlock: AZAVOO_clean_sbu_0, # of connection points: 4
#     Node 4, Type 0, BuildingBlock: AZAVOO_clean_sbu_0, # of connection points: 4
#     Node 5, Type 0, BuildingBlock: AZAVOO_clean_sbu_0, # of connection points: 4
#     Node 6, Type 0, BuildingBlock: AZAVOO_clean_sbu_0, # of connection points: 4
#     Node 7, Type 0, BuildingBlock: AZAVOO_clean_sbu_0, # of connection points: 4
#     Node 8, Type 0, BuildingBlock: AZAVOO_clean_sbu_0, # of connection points: 4
#     Node 9, Type 0, BuildingBlock: AZAVOO_clean_sbu_0, # of connection points: 4
#     Node 10, Type 0, BuildingBlock: AZAVOO_clean_sbu_0, # of connection points: 4
#     Node 11, Type 0, BuildingBlock: AZAVOO_clean_sbu_0, # of connection points: 4
#     Edge 12, Type (0, 0), BuildingBlock: XIVTED_clean_linker_0, # of connection points: 2
#     Edge 13, Type (0, 0), BuildingBlock: XIVTED_clean_linker_0, # of connection points: 2
#     Edge 14, Type (0, 0), BuildingBlock: XIVTED_clean_linker_0, # of connection points: 2
#     Edge 15, Type (0, 0), BuildingBlock: XIVTED_clean_linker_0, # of connection points: 2
#     Edge 16, Type (0, 0), BuildingBlock: XIVTED_clean_linker_0, # of connection points: 2
#     Edge 17, Type (0, 0), BuildingBlock: XIVTED_clean_linker_0, # of connection points: 2
#     Edge 18, Type (0, 0), BuildingBlock: XIVTED_clean_linker_0, # of connection points: 2
#     Edge 19, Type (0, 0), BuildingBlock: XIVTED_clean_linker_0, # of connection points: 2
#     Edge 20, Type (0, 0), BuildingBlock: XIVTED_clean_linker_0, # of connection points: 2
#     Edge 21, Type (0, 0), BuildingBlock: XIVTED_clean_linker_0, # of connection points: 2
#     Edge 22, Type (0, 0), BuildingBlock: XIVTED_clean_linker_0, # of connection points: 2
#     Edge 23, Type (0, 0), BuildingBlock: XIVTED_clean_linker_0, # of connection points: 2
#     Edge 24, Type (0, 0), BuildingBlock: XIVTED_clean_linker_0, # of connection points: 2
#     Edge 25, Type (0, 0), BuildingBlock: XIVTED_clean_linker_0, # of connection points: 2
#     Edge 26, Type (0, 0), BuildingBlock: XIVTED_clean_linker_0, # of connection points: 2
#     Edge 27, Type (0, 0), BuildingBlock: XIVTED_clean_linker_0, # of connection points: 2
#     Edge 28, Type (0, 0), BuildingBlock: XIVTED_clean_linker_0, # of connection points: 2
#     Edge 29, Type (0, 0), BuildingBlock: XIVTED_clean_linker_0, # of connection points: 2
#     Edge 30, Type (0, 0), BuildingBlock: XIVTED_clean_linker_0, # of connection points: 2
#     Edge 31, Type (0, 0), BuildingBlock: XIVTED_clean_linker_0, # of connection points: 2
#     Edge 32, Type (0, 0), BuildingBlock: XIVTED_clean_linker_0, # of connection points: 2
#     Edge 33, Type (0, 0), BuildingBlock: XIVTED_clean_linker_0, # of connection points: 2
#     Edge 34, Type (0, 0), BuildingBlock: XIVTED_clean_linker_0, # of connection points: 2
#     Edge 35, Type (0, 0), BuildingBlock: XIVTED_clean_linker_0, # of connection points: 2
# Relax obj value: 0.127
# Max RMSD: 0.160
# Mean RMSD: 0.155
data_MOF--net-sod--node1-AZAVOO_clean_sbu_0--edge1-XIVTED_clean_linker_0
_symmetry_space_group_name_H-M    P1
_symmetry_Int_Tables_number       1
_symmetry_cell_setting            triclinic
loop_
_symmetry_equiv_pos_as_xyz
'x, y, z'
_cell_length_a     41.270333
_cell_length_b     42.185211
_cell_length_c     42.95231
_cell_angle_alpha  89.864978
_cell_angle_beta   93.355113
_cell_angle_gamma 96.03895
loop_
_atom_site_label
_atom_site_type_symbol
_atom_site_fract_x
_atom_site_fract_y
_atom_site_fract_z
_atom_type_partial_charge
Mg0 Mg 0.03218 0.25932 0.50608 0.0
O1 O 0.98387 0.22675 0.49588 0.0
O2 O 0.94598 0.26023 0.48587 0.0
Mg3 Mg 0.96737 0.31177 0.49102 0.0
C4 C 0.95444 0.23206 0.48836 0.0
C5 C 0.06884 0.20092 0.52649 0.0
O6 O 0.05074 0.20253 0.55047 0.0
O7 O 0.03553 0.27161 0.45413 0.0
O8 O 0.99703 0.30519 0.44892 0.0
O9 O 0.0234 0.26342 0.55728 0.0
O10 O 0.00691 0.29563 0.5207 0.0
C11 C 0.01952 0.29077 0.43782 0.0
C12 C 0.00862 0.28811 0.54964 0.0
O13 O 0.06422 0.2188 0.5031 0.0
Mg14 Mg 0.73967 0.98961 0.50049 0.0
O15 O 0.76976 0.03505 0.48581 0.0
O16 O 0.73688 0.07253 0.47392 0.0
Mg17 Mg 0.68465 0.05063 0.48081 0.0
C18 C 0.76532 0.06322 0.47704 0.0
C19 C 0.80728 0.96704 0.49555 0.0
O20 O 0.79905 0.97494 0.46679 0.0
O21 O 0.733 0.01259 0.54773 0.0
O22 O 0.69771 0.04749 0.53326 0.0
O23 O 0.7306 0.97312 0.45079 0.0
O24 O 0.69843 0.0022 0.47502 0.0
C25 C 0.71476 0.03411 0.55426 0.0
C26 C 0.70487 0.98826 0.44991 0.0
O27 O 0.78754 0.97032 0.51672 0.0
Mg28 Mg 0.03958 0.79352 0.54507 0.0
O29 O 0.08872 0.82552 0.54882 0.0
O30 O 0.12705 0.79277 0.5601 0.0
Mg31 Mg 0.10411 0.74186 0.56527 0.0
C32 C 0.1186 0.82051 0.55414 0.0
C33 C 0.00672 0.85566 0.54181 0.0
O34 O 0.02013 0.8565 0.57033 0.0
O35 O 0.05226 0.77444 0.49764 0.0
O36 O 0.08994 0.74222 0.51305 0.0
O37 O 0.03217 0.79705 0.59658 0.0
O38 O 0.05876 0.76097 0.57502 0.0
C39 C 0.07233 0.75441 0.49171 0.0
C40 C 0.04893 0.77292 0.59979 0.0
O41 O 0.0123 0.83338 0.52359 0.0
Mg42 Mg 0.33071 0.06975 0.53854 0.0
O43 O 0.2975 0.02273 0.53393 0.0
O44 O 0.32702 0.98532 0.51735 0.0
Mg45 Mg 0.37835 0.00856 0.50907 0.0
C46 C 0.30029 0.99397 0.52625 0.0
C47 C 0.28744 0.11916 0.55264 0.0
O48 O 0.31012 0.13293 0.53539 0.0
O49 O 0.35604 0.05115 0.58303 0.0
O50 O 0.38669 0.01729 0.56156 0.0
O51 O 0.31839 0.08213 0.48886 0.0
O52 O 0.35917 0.0547 0.5043 0.0
C53 C 0.37785 0.03165 0.5853 0.0
C54 C 0.34186 0.06594 0.48189 0.0
O55 O 0.29077 0.09136 0.56294 0.0
Mg56 Mg 0.4719 -0.00207 0.2341 0.0
O57 O 0.5175 0.99284 0.26656 0.0
O58 O 0.55604 0.97696 0.23732 0.0
Mg59 Mg 0.53562 0.97259 0.18691 0.0
C60 C 0.54625 0.98486 0.2636 0.0
C61 C 0.41964 0.01204 0.2769 0.0
O62 O 0.40598 0.98775 0.26005 0.0
O63 O 0.49693 0.04424 0.21619 0.0
O64 O 0.53447 0.02717 0.1867 0.0
O65 O 0.45364 0.94714 0.24149 0.0
O66 O 0.48676 0.96407 0.2048 0.0
C67 C 0.52031 0.04967 0.19811 0.0
C68 C 0.47186 0.94062 0.21939 0.0
O69 O 0.44841 0.02371 0.27157 0.0
Mg70 Mg 0.10638 0.52866 0.30549 0.0
O71 O 0.05569 0.52624 0.27959 0.0
O72 O 0.0176 0.5086 0.31243 0.0
Mg73 Mg 0.04362 0.50294 0.35999 0.0
C74 C 0.02594 0.51821 0.28557 0.0
C75 C 0.15712 0.54335 0.25837 0.0
O76 O 0.17052 0.52476 0.27887 0.0
O77 O 0.09583 0.57537 0.32764 0.0
O78 O 0.05746 0.5573 0.35995 0.0
O79 O 0.11055 0.47743 0.29525 0.0
O80 O 0.08769 0.49455 0.3365 0.0
C81 C 0.07545 0.58013 0.34798 0.0
C82 C 0.09442 0.47104 0.31978 0.0
O83 O 0.12973 0.55279 0.26379 0.0
Mg84 Mg 0.58865 0.01641 0.81713 0.0
O85 O 0.54341 0.01123 0.78276 0.0
O86 O 0.49882 0.0076 0.81034 0.0
Mg87 Mg 0.51525 0.00932 0.86186 0.0
C88 C 0.51239 0.00872 0.78436 0.0
C89 C 0.61893 0.0519 0.75802 0.0
O90 O 0.59546 0.07037 0.76039 0.0
O91 O 0.57974 0.06812 0.82605 0.0
O92 O 0.53551 0.06129 0.85403 0.0
O93 O 0.58923 0.96377 0.82003 0.0
O94 O 0.56157 0.99179 0.85056 0.0
C95 C 0.55756 0.07931 0.84096 0.0
C96 C 0.56907 0.96435 0.84193 0.0
O97 O 0.62183 0.02961 0.77758 0.0
Mg98 Mg 0.9817 0.51408 0.72721 0.0
O99 O 0.02906 0.50237 0.7534 0.0
O100 O 0.0674 0.49994 0.71895 0.0
Mg101 Mg 0.04364 0.50808 0.67067 0.0
C102 C 0.05814 0.49846 0.74678 0.0
C103 C 0.96135 0.50661 0.79516 0.0
O104 O 0.97588 0.48059 0.79238 0.0
O105 O 0.00372 0.56545 0.72148 0.0
O106 O 0.04036 0.55967 0.68609 0.0
O107 O 0.96625 0.46234 0.72022 0.0
O108 O 0.99512 0.49274 0.68751 0.0
C109 C 0.02608 0.57705 0.70414 0.0
C110 C 0.98203 0.46491 0.695 0.0
O111 O 0.96036 0.52586 0.77246 0.0
Mg112 Mg 0.24017 0.47595 0.98447 0.0
O113 O 0.27207 0.52182 0.97365 0.0
O114 O 0.23979 0.56009 0.9624 0.0
Mg115 Mg 0.18678 0.53813 0.9638 0.0
C116 C 0.26811 0.55061 0.96663 0.0
C117 C 0.30962 0.4548 0.98694 0.0
O118 O 0.3076 0.46807 0.95929 0.0
O119 O 0.23083 0.49801 0.03122 0.0
O120 O 0.19581 0.53322 0.01693 0.0
O121 O 0.23512 0.46037 0.93445 0.0
O122 O 0.20222 0.49078 0.95626 0.0
C123 C 0.21218 0.51908 0.03793 0.0
C124 C 0.21061 0.47714 0.93171 0.0
O125 O 0.28548 0.45436 0.00412 0.0
Mg126 Mg 0.54696 0.2803 0.03637 0.0
O127 O 0.59554 0.31285 0.04307 0.0
O128 O 0.63467 0.27993 0.04726 0.0
Mg129 Mg 0.61297 0.22827 0.04461 0.0
C130 C 0.62563 0.30796 0.04636 0.0
C131 C 0.49253 0.32216 0.0384 0.0
O132 O 0.48674 0.29982 0.0593 0.0
O133 O 0.55793 0.27019 0.98576 0.0
O134 O 0.59627 0.23682 -0.00605 0.0
O135 O 0.54181 0.27488 0.08812 0.0
O136 O 0.56738 0.24331 0.0596 0.0
C137 C 0.5778 0.25186 0.97563 0.0
C138 C 0.55808 0.25043 0.08648 0.0
O139 O 0.51791 0.32203 0.02297 0.0
Mg140 Mg 0.83375 0.56149 0.04401 0.0
O141 O 0.80376 0.51246 0.04142 0.0
O142 O 0.83763 0.47535 0.03526 0.0
Mg143 Mg 0.88929 0.5001 0.03458 0.0
C144 C 0.80903 0.48341 0.0382 0.0
C145 C 0.77973 0.60508 0.04036 0.0
O146 O 0.79905 0.61565 0.01851 0.0
O147 O 0.85191 0.55175 0.09419 0.0
O148 O 0.88565 0.51481 0.08531 0.0
O149 O 0.83038 0.56515 -0.00787 0.0
O150 O 0.87026 0.54454 0.01905 0.0
C151 C 0.87218 0.53241 0.10376 0.0
C152 C 0.85682 0.55115 -0.00761 0.0
O153 O 0.78821 0.58277 0.05799 0.0
Mg154 Mg 0.52323 0.74797 0.0462 0.0
O155 O 0.47588 0.71597 0.03143 0.0
O156 O 0.43578 0.74761 0.03416 0.0
Mg157 Mg 0.45515 0.79664 0.05315 0.0
C158 C 0.44581 0.7209 0.02768 0.0
C159 C 0.56222 0.68931 0.04549 0.0
O160 O 0.54531 0.6833 0.07019 0.0
O161 O 0.52011 0.77411 -0.00058 0.0
O162 O 0.4806 0.80513 0.00763 0.0
O163 O 0.51993 0.73633 0.09734 0.0
O164 O 0.49708 0.77512 0.07309 0.0
C165 C 0.50221 0.79585 0.99064 0.0
C166 C 0.50205 0.75965 0.09833 0.0
O167 O 0.55647 0.71304 0.0285 0.0
H168 H 0.08197 0.29902 0.41846 0.0
H169 H 0.03291 0.44888 0.33368 0.0
H170 H 0.98217 0.30983 0.3886 0.0
H171 H 0.12801 0.41865 0.32208 0.0
H172 H 0.01387 0.39532 0.35069 0.0
H173 H 0.10028 0.33755 0.37871 0.0
C174 C 0.06394 0.30838 0.40262 0.0
C175 C 0.03052 0.30195 0.40727 0.0
C176 C 0.0388 0.40013 0.344 0.0
C177 C 0.05116 0.34644 0.36266 0.0
C178 C 0.04972 0.43082 0.33467 0.0
C179 C 0.08213 0.43812 0.32713 0.0
C180 C 0.06075 0.37681 0.34669 0.0
C181 C 0.10284 0.41377 0.32802 0.0
C182 C 0.07439 0.33059 0.38011 0.0
C183 C 0.00819 0.31478 0.3862 0.0
N184 N 0.09203 0.38424 0.33841 0.0
N185 N 0.01888 0.3371 0.36537 0.0
H186 H 0.71355 0.96558 0.39144 0.0
H187 H 0.53774 0.00547 0.32287 0.0
H188 H 0.64641 0.01301 0.44371 0.0
H189 H 0.60787 0.96591 0.26746 0.0
H190 H 0.57711 0.00749 0.36769 0.0
H191 H 0.67518 0.96507 0.34567 0.0
C192 C 0.69088 0.97609 0.39323 0.0
C193 C 0.68324 0.98946 0.42139 0.0
C194 C 0.58388 -0.00162 0.34571 0.0
C195 C 0.63915 0.98869 0.36934 0.0
C196 C 0.56135 -0.00287 0.32011 0.0
C197 C 0.56944 0.9855 0.29129 0.0
C198 C 0.61472 0.98784 0.34256 0.0
C199 C 0.60051 0.9751 0.28917 0.0
C200 C 0.66897 0.97575 0.36713 0.0
C201 C 0.65347 0.00266 0.42243 0.0
N202 N 0.62197 0.97649 0.31445 0.0
N203 N 0.63249 0.00182 0.39685 0.0
H204 H 0.02234 0.60352 0.37041 0.0
H205 H 0.12548 0.74056 0.46213 0.0
H206 H 0.12288 0.63096 0.35135 0.0
H207 H 0.02072 0.73678 0.45045 0.0
H208 H 0.12526 0.70472 0.4175 0.0
H209 H 0.02046 0.65487 0.39591 0.0
C210 C 0.04393 0.62056 0.37128 0.0
C211 C 0.07299 0.61281 0.35922 0.0
C212 C 0.10237 0.71239 0.42407 0.0
C213 C 0.0711 0.67153 0.38869 0.0
C214 C 0.10251 0.73289 0.44949 0.0
C215 C 0.07305 0.74135 0.46002 0.0
C216 C 0.07246 0.69952 0.40973 0.0
C217 C 0.04394 0.7308 0.44298 0.0
C218 C 0.04277 0.64998 0.38565 0.0
C219 C 0.10007 0.63593 0.36056 0.0
N220 N 0.04427 0.7097 0.41911 0.0
N221 N 0.0987 0.66403 0.37569 0.0
H222 H 0.34526 0.00771 0.45664 0.0
H223 H 0.43198 0.06892 0.30826 0.0
H224 H 0.35125 0.10768 0.43411 0.0
H225 H 0.37038 0.97958 0.30707 0.0
H226 H 0.40764 0.08379 0.35626 0.0
H227 H 0.35959 0.99613 0.40362 0.0
C228 C 0.34951 0.02715 0.44039 0.0
C229 C 0.34736 0.05863 0.44947 0.0
C230 C 0.39923 0.06116 0.34513 0.0
C231 C 0.36411 0.04577 0.3894 0.0
C232 C 0.41316 0.05261 0.31794 0.0
C233 C 0.40328 0.02292 0.30387 0.0
C234 C 0.37598 0.03949 0.35858 0.0
C235 C 0.37871 0.00269 0.3172 0.0
C236 C 0.35743 0.02056 0.4102 0.0
C237 C 0.35267 0.08309 0.42766 0.0
N238 N 0.36628 0.01111 0.34416 0.0
N239 N 0.36143 0.07622 0.39861 0.0
H240 H 0.98852 0.62462 0.71805 0.0
H241 H 0.10259 0.74648 0.62302 0.0
H242 H 0.08336 0.60873 0.68773 0.0
H243 H 0.0044 0.7612 0.64384 0.0
H244 H 0.10244 0.70452 0.66216 0.0
H245 H 0.99995 0.68136 0.70578 0.0
C246 C 0.01201 0.63319 0.7095 0.0
C247 C 0.0347 0.61188 0.70307 0.0
C248 C 0.08112 0.71735 0.65876 0.0
C249 C 0.04791 0.67647 0.6891 0.0
C250 C 0.08127 0.74133 0.63644 0.0
C251 C 0.05316 0.75656 0.62974 0.0
C252 C 0.05233 0.70803 0.67381 0.0
C253 C 0.02645 0.74966 0.64822 0.0
C254 C 0.01851 0.66555 0.70248 0.0
C255 C 0.06484 0.62423 0.69225 0.0
N256 N 0.02629 0.72517 0.66888 0.0
N257 N 0.07037 0.65559 0.6852 0.0
H258 H 0.52902 -0.00073 0.72451 0.0
H259 H 0.36401 0.05133 0.64396 0.0
H260 H 0.44813 0.01977 0.77784 0.0
H261 H 0.43145 -0.00026 0.59611 0.0
H262 H 0.39559 0.04371 0.6932 0.0
H263 H 0.49472 0.0032 0.67663 0.0
C264 C 0.50402 0.00444 0.72617 0.0
C265 C 0.49144 0.00913 0.75524 0.0
C266 C 0.40322 0.03394 0.67186 0.0
C267 C 0.45216 0.01405 0.70052 0.0
C268 C 0.38527 0.03833 0.64378 0.0
C269 C 0.39507 0.02626 0.6158 0.0
C270 C 0.43133 0.01778 0.67177 0.0
C271 C 0.42285 0.00952 0.61701 0.0
C272 C 0.48442 0.00663 0.69884 0.0
C273 C 0.45881 0.01579 0.75595 0.0
N274 N 0.44007 0.00602 0.64442 0.0
N275 N 0.44035 0.01831 0.72897 0.0
H276 H 0.01095 0.28213 0.61372 0.0
H277 H 0.99838 0.4654 0.63482 0.0
H278 H 0.98212 0.34361 0.5388 0.0
H279 H 0.97175 0.40132 0.70982 0.0
H280 H 1.00046 0.41972 0.6008 0.0
H281 H 0.00196 0.32394 0.65128 0.0
C282 C 0.0021 0.30402 0.6052 0.0
C283 C 0.99748 0.30945 0.57304 0.0
C284 C 0.99409 0.41562 0.62469 0.0
C285 C 0.98804 0.35711 0.61547 0.0
C286 C 0.99317 0.44167 0.64419 0.0
C287 C 0.98482 0.43708 0.67512 0.0
C288 C 0.98712 0.38469 0.63627 0.0
C289 C 0.97815 0.40577 0.686 0.0
C290 C 0.99709 0.32779 0.62658 0.0
C291 C 0.9861 0.33825 0.56325 0.0
N292 N 0.97964 0.38057 0.66658 0.0
N293 N 0.98228 0.36113 0.58433 0.0
H294 H 0.61961 0.09604 0.71105 0.0
H295 H 0.73182 0.00136 0.60724 0.0
H296 H 0.66598 0.01405 0.74364 0.0
H297 H 0.68682 0.08474 0.57636 0.0
H298 H 0.7148 0.01011 0.65993 0.0
H299 H 0.65033 0.09656 0.66412 0.0
C300 C 0.63646 0.07833 0.70849 0.0
C301 C 0.63986 0.05472 0.73113 0.0
C302 C 0.70906 0.02672 0.64168 0.0
C303 C 0.67501 0.05501 0.67734 0.0
C304 C 0.71891 0.02181 0.61162 0.0
C305 C 0.71024 0.042 0.5872 0.0
C306 C 0.69041 0.05196 0.64728 0.0
C307 C 0.69356 0.06819 0.59431 0.0
C308 C 0.65404 0.07863 0.68168 0.0
C309 C 0.66231 0.03252 0.72666 0.0
N310 N 0.68386 0.07217 0.62355 0.0
N311 N 0.67874 0.03299 0.70013 0.0
H312 H 0.49021 0.36621 0.99104 0.0
H313 H 0.32076 0.42204 0.04105 0.0
H314 H 0.44037 0.33149 0.07196 0.0
H315 H 0.36499 0.45127 0.95552 0.0
H316 H 0.36759 0.39305 0.05528 0.0
H317 H 0.44767 0.40184 0.9801 0.0
C318 C 0.47051 0.36625 0.00662 0.0
C319 C 0.46871 0.34565 0.0323 0.0
C320 C 0.36715 0.40592 0.03346 0.0
C321 C 0.42005 0.38623 0.01996 0.0
C322 C 0.3404 0.42252 0.02533 0.0
C323 C 0.33879 0.4389 -0.00308 0.0
C324 C 0.39253 0.40564 0.01303 0.0
C325 C 0.36507 0.43879 0.97755 0.0
C326 C 0.4462 0.38653 0.00033 0.0
C327 C 0.44264 0.34673 0.05173 0.0
N328 N 0.39077 0.42227 0.98589 0.0
N329 N 0.41933 0.36654 0.04509 0.0
H330 H 0.33231 0.54137 0.98063 0.0
H331 H 0.38398 0.72721 0.00453 0.0
H332 H 0.27008 0.61474 0.95561 0.0
H333 H 0.45202 0.65687 0.02005 0.0
H334 H 0.34327 0.68586 0.98374 0.0
H335 H 0.37779 0.58262 0.99124 0.0
C336 C 0.32827 0.56608 0.97686 0.0
C337 C 0.29709 0.57458 0.96762 0.0
C338 C 0.36711 0.67936 0.99152 0.0
C339 C 0.34904 0.62186 0.98008 0.0
C340 C 0.39041 0.703 0.00363 0.0
C341 C 0.42145 0.69549 0.01443 0.0
C342 C 0.37456 0.64771 0.99038 0.0
C343 C 0.42836 0.66371 0.01215 0.0
C344 C 0.35428 0.58962 0.98303 0.0
C345 C 0.29349 0.60699 0.96301 0.0
N346 N 0.40496 0.64088 0.00062 0.0
N347 N 0.31902 0.6294 0.96964 0.0
H348 H 0.61892 0.3723 0.04133 0.0
H349 H 0.81154 0.41898 0.03736 0.0
H350 H 0.69144 0.30584 0.05356 0.0
H351 H 0.74351 0.48983 0.04121 0.0
H352 H 0.76654 0.37735 0.04055 0.0
H353 H 0.66306 0.41599 0.03954 0.0
C354 C 0.64401 0.36688 0.04385 0.0
C355 C 0.6514 0.33526 0.04746 0.0
C356 C 0.76136 0.40198 0.04073 0.0
C357 C 0.70182 0.38497 0.04514 0.0
C358 C 0.78711 0.42585 0.03878 0.0
C359 C 0.7814 0.45805 0.03905 0.0
C360 C 0.72945 0.41018 0.04285 0.0
C361 C 0.74909 0.46533 0.04098 0.0
C362 C 0.66916 0.39181 0.04276 0.0
C363 C 0.6844 0.32971 0.05058 0.0
N364 N 0.72428 0.44155 0.04278 0.0
N365 N 0.70825 0.35423 0.04919 0.0
H366 H 0.73135 0.58615 0.07991 0.0
H367 H 0.60656 0.69989 0.00055 0.0
H368 H 0.7538 0.65001 0.00362 0.0
H369 H 0.58533 0.64173 0.08119 0.0
H370 H 0.65891 0.67814 -0.00124 0.0
H371 H 0.67661 0.60374 0.07922 0.0
C372 C 0.72486 0.60398 0.06315 0.0
C373 C 0.74725 0.61668 0.04185 0.0
C374 C 0.64272 0.66996 0.01673 0.0
C375 C 0.6846 0.63661 0.04068 0.0
C376 C 0.6127 0.68224 0.01765 0.0
C377 C 0.59159 0.67282 0.04121 0.0
C378 C 0.65178 0.64811 0.03955 0.0
C379 C 0.60089 0.64981 0.0627 0.0
C380 C 0.69356 0.6139 0.06267 0.0
C381 C 0.73743 0.63959 0.02054 0.0
N382 N 0.6304 0.63842 0.0615 0.0
N383 N 0.70687 0.64876 0.02048 0.0
H384 H 0.4612 0.83261 0.95887 0.0
H385 H 0.59464 0.90712 0.84463 0.0
H386 H 0.55613 0.79882 0.95532 0.0
H387 H 0.51325 0.95393 0.87344 0.0
H388 H 0.5753 0.86003 0.87473 0.0
H389 H 0.47426 0.86898 0.91633 0.0
C390 C 0.4847 0.83254 0.94888 0.0
C391 C 0.5079 0.81311 0.96114 0.0
C392 C 0.56156 0.88055 0.8741 0.0
C393 C 0.52305 0.855 0.91244 0.0
C394 C 0.57246 0.90735 0.8569 0.0
C395 C 0.55574 0.93468 0.85691 0.0
C396 C 0.53349 0.88104 0.89094 0.0
C397 C 0.52722 0.93372 0.87317 0.0
C398 C 0.49213 0.85338 0.92459 0.0
C399 C 0.53766 0.81362 0.94678 0.0
N400 N 0.51708 0.90741 0.8896 0.0
N401 N 0.54462 0.83468 0.92341 0.0
H402 H 0.19618 0.53182 0.90278 0.0
H403 H 0.04988 0.46017 0.79755 0.0
H404 H 0.18291 0.42949 0.89353 0.0
H405 H 0.1208 0.52581 0.75422 0.0
H406 H 0.09038 0.45358 0.84089 0.0
H407 H 0.16077 0.53601 0.85505 0.0
C408 C 0.18597 0.51033 0.8905 0.0
C409 C 0.19241 0.48029 0.9017 0.0
C410 C 0.09695 0.46924 0.82172 0.0
C411 C 0.15149 0.48487 0.84843 0.0
C412 C 0.07398 0.4731 0.79721 0.0
C413 C 0.08226 0.4934 0.77239 0.0
C414 C 0.12779 0.4867 0.82177 0.0
C415 C 0.11372 0.50973 0.7729 0.0
C416 C 0.16597 0.51273 0.86344 0.0
C417 C 0.17864 0.45304 0.88524 0.0
N418 N 0.13529 0.50645 0.79755 0.0
N419 N 0.15821 0.45591 0.85963 0.0
H420 H 0.50689 0.11269 0.85373 0.0
H421 H 0.52568 0.2512 0.9327 0.0
H422 H 0.61002 0.12499 0.83942 0.0
H423 H 0.62622 0.23158 0.94281 0.0
H424 H 0.51874 0.21899 0.88505 0.0
H425 H 0.51047 0.16677 0.87347 0.0
C426 C 0.53021 0.12715 0.85403 0.0
C427 C 0.55837 0.11407 0.84569 0.0
C428 C 0.54242 0.22193 0.8975 0.0
C429 C 0.56279 0.17659 0.86814 0.0
C430 C 0.54653 0.24084 0.92443 0.0
C431 C 0.57623 0.24301 0.9423 0.0
C432 C 0.56811 0.2049 0.88889 0.0
C433 C 0.60258 0.22958 0.93023 0.0
C434 C 0.53222 0.15838 0.86501 0.0
C435 C 0.58779 0.13401 0.84604 0.0
N436 N 0.5977 0.21047 0.90468 0.0
N437 N 0.58942 0.16403 0.85795 0.0
H438 H 0.9178 0.54984 0.80386 0.0
H439 H 0.91074 0.51975 0.98585 0.0
H440 H 0.9681 0.47754 0.85175 0.0
H441 H 0.83587 0.56394 0.93243 0.0
H442 H 0.93512 0.50768 0.93764 0.0
H443 H 0.89084 0.55941 0.85163 0.0
C444 C 0.92323 0.53604 0.82445 0.0
C445 C 0.94526 0.51289 0.82391 0.0
C446 C 0.91319 0.51976 0.93645 0.0
C447 C 0.9146 0.52378 0.87847 0.0
C448 C 0.89913 0.52658 0.964 0.0
C449 C 0.87096 0.54258 0.9632 0.0
C450 C 0.89935 0.52949 0.9079 0.0
C451 C 0.85749 0.55142 0.93411 0.0
C452 C 0.9077 0.54139 0.8516 0.0
C453 C 0.95125 0.49557 0.85116 0.0
N454 N 0.87196 0.54494 0.90757 0.0
N455 N 0.93613 0.50151 0.87744 0.0
H456 H 0.49191 0.10395 0.21089 0.0
H457 H 0.60391 0.20872 0.09662 0.0
H458 H 0.57327 0.07146 0.16572 0.0
H459 H 0.51936 0.24118 0.13586 0.0
H460 H 0.59996 0.16299 0.1313 0.0
H461 H 0.50759 0.15789 0.19219 0.0
C462 C 0.51324 0.10816 0.1973 0.0
C463 C 0.53095 0.08296 0.1894 0.0
C464 C 0.58253 0.18033 0.13275 0.0
C465 C 0.54908 0.14466 0.16811 0.0
C466 C 0.58484 0.20654 0.11294 0.0
C467 C 0.5615 0.22839 0.11287 0.0
C468 C 0.55639 0.17567 0.15233 0.0
C469 C 0.53773 0.22472 0.13503 0.0
C470 C 0.5222 0.139 0.1867 0.0
C471 C 0.55853 0.08997 0.17198 0.0
N472 N 0.53533 0.19841 0.15346 0.0
N473 N 0.56653 0.12005 0.16171 0.0
H474 H 0.02665 0.56093 0.23776 0.0
H475 H 0.87439 0.48144 0.14205 0.0
H476 H 0.96605 0.48383 0.27822 0.0
H477 H 0.8997 0.58305 0.13834 0.0
H478 H 0.90843 0.47962 0.19064 0.0
H479 H 0.9826 0.56729 0.19818 0.0
C480 C 0.00413 0.54526 0.2382 0.0
C481 C 1.0 0.52167 0.26109 0.0
C482 C 0.90583 0.50241 0.17964 0.0
C483 C 0.94977 0.52882 0.21608 0.0
C484 C 0.88633 0.50348 0.15212 0.0
C485 C 0.88414 0.53248 0.13658 0.0
C486 C 0.92413 0.53037 0.19087 0.0
C487 C 0.9005 0.56034 0.15002 0.0
C488 C 0.97893 0.54916 0.2159 0.0
C489 C 0.97018 0.50227 0.2609 0.0
N490 N 0.92053 0.55853 0.1761 0.0
N491 N 0.9463 0.50596 0.23842 0.0
H492 H 0.4429 0.77836 0.11006 0.0
H493 H 0.52772 0.916 0.2054 0.0
H494 H 0.53923 0.77097 0.15197 0.0
H495 H 0.42517 0.89008 0.21632 0.0
H496 H 0.53249 0.86193 0.187 0.0
H497 H 0.43368 0.81638 0.15075 0.0
C498 C 0.46161 0.7839 0.12856 0.0
C499 C 0.49193 0.77193 0.1277 0.0
C500 C 0.50907 0.86789 0.19401 0.0
C501 C 0.48217 0.81607 0.17322 0.0
C502 C 0.50628 0.89881 0.20405 0.0
C503 C 0.4759 0.90746 0.21168 0.0
C504 C 0.48107 0.84591 0.19071 0.0
C505 C 0.44895 0.8842 0.21033 0.0
C506 C 0.45639 0.80558 0.15171 0.0
C507 C 0.51551 0.77977 0.15201 0.0
N508 N 0.45195 0.85458 0.19919 0.0
N509 N 0.51057 0.80227 0.1733 0.0
H510 H 0.24425 0.49693 0.09019 0.0
H511 H 0.13257 0.57513 0.20787 0.0
H512 H 0.17194 0.55969 0.06135 0.0
H513 H 0.21149 0.52041 0.23752 0.0
H514 H 0.14981 0.57371 0.15446 0.0
H515 H 0.23534 0.50841 0.14459 0.0
C516 C 0.22662 0.51323 0.09524 0.0
C517 C 0.2086 0.52708 0.07107 0.0
C518 C 0.1636 0.56234 0.17272 0.0
C519 C 0.19825 0.54032 0.13336 0.0
C520 C 0.15382 0.56325 0.20326 0.0
C521 C 0.17036 0.54754 0.22717 0.0
C522 C 0.18995 0.54541 0.16601 0.0
C523 C 0.1978 0.5326 0.2198 0.0
C524 C 0.22161 0.51985 0.12633 0.0
C525 C 0.18627 0.54823 0.07912 0.0
N526 N 0.20648 0.53157 0.18983 0.0
N527 N 0.18155 0.55397 0.10954 0.0
H528 H 0.83711 0.95626 0.55288 0.0
H529 H 0.97508 0.8625 0.48451 0.0
H530 H 0.84887 0.9474 0.45417 0.0
H531 H 0.97968 0.89643 0.57959 0.0
H532 H 0.92821 0.8925 0.4728 0.0
H533 H 0.88841 0.93275 0.56342 0.0
C534 C 0.85049 0.94943 0.53344 0.0
C535 C 0.83862 0.95369 0.50261 0.0
C536 C 0.93972 0.89362 0.49613 0.0
C537 C 0.89718 0.92668 0.51447 0.0
C538 C 0.96649 0.87653 0.50282 0.0
C539 C 0.98123 0.8768 0.53311 0.0
C540 C 0.92734 0.91073 0.52001 0.0
C541 C 0.96907 0.89545 0.55592 0.0
C542 C 0.87983 0.93615 0.53946 0.0
C543 C 0.85707 0.94455 0.47832 0.0
N544 N 0.94262 0.91135 0.54899 0.0
N545 N 0.88528 0.93126 0.48476 0.0
H546 H 0.95762 0.16778 0.49893 0.0
H547 H 0.76668 0.12468 0.45598 0.0
H548 H 0.89224 0.23506 0.46437 0.0
H549 H 0.83 0.05494 0.48904 0.0
H550 H 0.814 0.16425 0.45476 0.0
H551 H 0.9127 0.12493 0.49175 0.0
C552 C 0.93398 0.17353 0.48967 0.0
C553 C 0.92867 0.20516 0.48259 0.0
C554 C 0.81764 0.14024 0.46209 0.0
C555 C 0.87733 0.15639 0.4743 0.0
C556 C 0.79056 0.11758 0.46274 0.0
C557 C 0.79424 0.08647 0.47291 0.0
C558 C 0.84872 0.1319 0.47186 0.0
C559 C 0.82592 0.07869 0.48119 0.0
C560 C 0.90836 0.14909 0.48558 0.0
C561 C 0.89752 0.21117 0.47055 0.0
N562 N 0.8519 0.10133 0.48077 0.0
N563 N 0.87311 0.18712 0.46696 0.0
H564 H 0.18426 0.81675 0.55663 0.0
H565 H 0.23685 0.00275 0.53755 0.0
H566 H 0.11309 0.88469 0.54535 0.0
H567 H 0.29958 0.92928 0.52189 0.0
H568 H 0.19168 0.96127 0.54482 0.0
H569 H 0.2274 0.85933 0.54939 0.0
C570 C 0.17761 0.84068 0.55279 0.0
C571 C 0.14484 0.84704 0.55153 0.0
C572 C 0.21533 0.95435 0.53965 0.0
C573 C 0.19457 0.89617 0.54306 0.0
C574 C 0.24114 0.97796 0.53552 0.0
C575 C 0.27214 0.96951 0.52915 0.0
C576 C 0.22071 0.92213 0.53775 0.0
C577 C 0.27619 0.93701 0.52673 0.0
C578 C 0.20237 0.865 0.54848 0.0
C579 C 0.13798 0.87865 0.54644 0.0
N580 N 0.25086 0.91458 0.53122 0.0
N581 N 0.16268 0.9021 0.54241 0.0
H582 H 0.08613 0.15858 0.57169 0.0
H583 H 0.2707 0.17394 0.52547 0.0
H584 H 0.12025 0.2063 0.48887 0.0
H585 H 0.2316 0.09459 0.58043 0.0
H586 H 0.21646 0.19155 0.51896 0.0
H587 H 0.13957 0.13833 0.58049 0.0
C588 C 0.10465 0.16446 0.55515 0.0
C589 C 0.09872 0.1843 0.52956 0.0
C590 C 0.21975 0.17035 0.53256 0.0
C591 C 0.15988 0.16194 0.53998 0.0
C592 C 0.2508 0.16039 0.53655 0.0
C593 C 0.25573 0.13255 0.55333 0.0
C594 C 0.19331 0.15261 0.54568 0.0
C595 C 0.22889 0.11613 0.56723 0.0
C596 C 0.13511 0.15299 0.56027 0.0
C597 C 0.12363 0.19114 0.50891 0.0
N598 N 0.19871 0.12637 0.56303 0.0
N599 N 0.15319 0.18032 0.5148 0.0
loop_
_geom_bond_atom_site_label_1
_geom_bond_atom_site_label_2
_geom_bond_distance
_geom_bond_site_symmetry_2
_ccdc_geom_bond_type
Mg0 O1 2.028 . S
Mg0 O7 1.986 . S
Mg0 O9 2.114 . S
Mg0 O10 2.251 . S
Mg0 O13 2.010 . S
O1 Mg0 2.028 . S
O1 C4 1.250 1_455 S
O2 Mg3 2.028 . S
O2 C4 1.248 . S
Mg3 O2 2.028 . S
Mg3 O8 2.048 . S
Mg3 O10 2.079 1_655 S
C4 O1 1.250 1_655 S
C4 O2 1.248 . S
C5 O6 1.264 . S
C5 O13 1.249 . S
O6 C5 1.264 . S
O7 Mg0 1.986 . S
O7 C11 1.246 . S
O8 Mg3 2.048 . S
O8 C11 1.234 1_655 S
O9 Mg0 2.114 . S
O9 C12 1.252 . S
O10 Mg0 2.251 . S
O10 Mg3 2.079 1_455 S
O10 C12 1.273 . S
C11 O7 1.246 . S
C11 O8 1.234 1_455 S
C12 O9 1.252 . S
C12 O10 1.273 . S
O13 Mg0 2.010 . S
O13 C5 1.249 . S
Mg14 O15 2.028 . S
Mg14 O21 1.986 . S
Mg14 O23 2.114 . S
Mg14 O24 2.251 . S
Mg14 O27 2.010 1_545 S
O15 Mg14 2.028 . S
O15 C18 1.250 . S
O16 Mg17 2.028 . S
O16 C18 1.248 . S
Mg17 O16 2.028 . S
Mg17 O22 2.032 . S
Mg17 O24 2.079 . S
C18 O15 1.250 . S
C18 O16 1.248 . S
C19 O20 1.264 . S
C19 O27 1.249 . S
O20 C19 1.264 . S
O21 Mg14 1.986 . S
O21 C25 1.246 . S
O22 Mg17 2.032 . S
O22 C25 1.259 . S
O23 Mg14 2.114 . S
O23 C26 1.252 . S
O24 Mg14 2.251 . S
O24 Mg17 2.079 . S
O24 C26 1.273 . S
C25 O21 1.246 . S
C25 O22 1.259 . S
C26 O23 1.252 . S
C26 O24 1.273 . S
O27 Mg14 2.010 1_565 S
O27 C19 1.249 . S
Mg28 O29 2.028 . S
Mg28 O35 1.986 . S
Mg28 O37 2.114 . S
Mg28 O38 2.251 . S
Mg28 O41 2.010 1_455 S
O29 Mg28 2.028 . S
O29 C32 1.250 . S
O30 Mg31 2.028 . S
O30 C32 1.248 . S
Mg31 O30 2.028 . S
Mg31 O36 2.032 . S
Mg31 O38 2.079 . S
C32 O29 1.250 . S
C32 O30 1.248 . S
C33 O34 1.264 . S
C33 O41 1.249 . S
O34 C33 1.264 . S
O35 Mg28 1.986 . S
O35 C39 1.246 . S
O36 Mg31 2.032 . S
O36 C39 1.259 . S
O37 Mg28 2.114 . S
O37 C40 1.252 . S
O38 Mg28 2.251 . S
O38 Mg31 2.079 . S
O38 C40 1.273 . S
C39 O35 1.246 . S
C39 O36 1.259 . S
C40 O37 1.252 . S
C40 O38 1.273 . S
O41 Mg28 2.010 1_655 S
O41 C33 1.249 . S
Mg42 O43 2.027 . S
Mg42 O49 1.986 . S
Mg42 O51 2.114 . S
Mg42 O52 2.251 . S
Mg42 O55 2.010 . S
O43 Mg42 2.027 . S
O43 C46 1.253 1_545 S
O44 Mg45 2.028 . S
O44 C46 1.248 . S
Mg45 O44 2.028 . S
Mg45 O50 2.032 . S
Mg45 O52 2.079 1_565 S
C46 O43 1.253 1_565 S
C46 O44 1.248 . S
C47 O48 1.264 . S
C47 O55 1.249 . S
O48 C47 1.264 . S
O49 Mg42 1.986 . S
O49 C53 1.246 . S
O50 Mg45 2.032 . S
O50 C53 1.259 1_565 S
O51 Mg42 2.114 . S
O51 C54 1.252 . S
O52 Mg42 2.251 . S
O52 Mg45 2.079 1_545 S
O52 C54 1.273 . S
C53 O49 1.246 . S
C53 O50 1.259 1_545 S
C54 O51 1.252 . S
C54 O52 1.273 . S
O55 Mg42 2.010 . S
O55 C47 1.249 . S
Mg56 O57 2.028 . S
Mg56 O63 1.986 . S
Mg56 O65 2.114 1_545 S
Mg56 O66 2.251 1_545 S
Mg56 O69 2.010 . S
O57 Mg56 2.028 . S
O57 C60 1.250 . S
O58 Mg59 2.028 . S
O58 C60 1.248 . S
Mg59 O58 2.028 . S
Mg59 O64 2.032 . S
Mg59 O66 2.079 1_545 S
C60 O57 1.250 . S
C60 O58 1.248 . S
C61 O62 1.264 . S
C61 O69 1.249 . S
O62 C61 1.264 . S
O63 Mg56 1.986 . S
O63 C67 1.246 . S
O64 Mg59 2.032 . S
O64 C67 1.259 . S
O65 Mg56 2.114 1_565 S
O65 C68 1.252 . S
O66 Mg56 2.251 1_565 S
O66 Mg59 2.079 1_565 S
O66 C68 1.273 . S
C67 O63 1.246 . S
C67 O64 1.259 . S
C68 O65 1.252 . S
C68 O66 1.273 . S
O69 Mg56 2.010 . S
O69 C61 1.249 . S
Mg70 O71 2.028 . S
Mg70 O77 1.986 . S
Mg70 O79 2.114 . S
Mg70 O80 2.251 . S
Mg70 O83 2.010 . S
O71 Mg70 2.028 . S
O71 C74 1.250 1_455 S
O72 Mg73 2.028 . S
O72 C74 1.248 . S
Mg73 O72 2.028 . S
Mg73 O78 2.032 1_655 S
Mg73 O80 2.079 1_655 S
C74 O71 1.250 1_655 S
C74 O72 1.248 . S
C75 O76 1.264 . S
C75 O83 1.249 . S
O76 C75 1.264 . S
O77 Mg70 1.986 . S
O77 C81 1.246 . S
O78 Mg73 2.032 1_455 S
O78 C81 1.259 . S
O79 Mg70 2.114 . S
O79 C82 1.252 . S
O80 Mg70 2.251 . S
O80 Mg73 2.079 1_455 S
O80 C82 1.273 . S
C81 O77 1.246 . S
C81 O78 1.259 . S
C82 O79 1.252 . S
C82 O80 1.273 . S
O83 Mg70 2.010 . S
O83 C75 1.249 . S
Mg84 O85 2.028 . S
Mg84 O91 1.986 . S
Mg84 O93 2.114 1_545 S
Mg84 O94 2.238 1_545 S
Mg84 O97 2.010 . S
O85 Mg84 2.028 . S
O85 C88 1.250 . S
O86 Mg87 2.028 . S
O86 C88 1.248 . S
Mg87 O86 2.028 . S
Mg87 O92 2.032 . S
Mg87 O94 2.060 1_545 S
C88 O85 1.250 . S
C88 O86 1.248 . S
C89 O90 1.264 . S
C89 O97 1.249 . S
O90 C89 1.264 . S
O91 Mg84 1.986 . S
O91 C95 1.246 . S
O92 Mg87 2.032 . S
O92 C95 1.259 . S
O93 Mg84 2.114 1_565 S
O93 C96 1.252 . S
O94 Mg84 2.238 1_565 S
O94 Mg87 2.060 1_565 S
O94 C96 1.302 . S
C95 O91 1.246 . S
C95 O92 1.259 . S
C96 O93 1.252 . S
C96 O94 1.302 . S
O97 Mg84 2.010 . S
O97 C89 1.249 . S
Mg98 O99 2.028 . S
Mg98 O105 1.986 . S
Mg98 O107 2.114 . S
Mg98 O108 2.251 . S
Mg98 O111 2.010 1_455 S
O99 Mg98 2.028 . S
O99 C102 1.250 . S
O100 Mg101 2.028 . S
O100 C102 1.248 . S
Mg101 O100 2.028 . S
Mg101 O106 2.032 . S
Mg101 O108 2.079 . S
C102 O99 1.250 . S
C102 O100 1.248 . S
C103 O104 1.264 . S
C103 O111 1.249 . S
O104 C103 1.264 . S
O105 Mg98 1.986 . S
O105 C109 1.246 . S
O106 Mg101 2.032 . S
O106 C109 1.259 . S
O107 Mg98 2.114 . S
O107 C110 1.252 . S
O108 Mg98 2.251 . S
O108 Mg101 2.079 . S
O108 C110 1.273 . S
C109 O105 1.246 . S
C109 O106 1.259 . S
C110 O107 1.252 . S
C110 O108 1.273 . S
O111 Mg98 2.010 1_655 S
O111 C103 1.249 . S
Mg112 O113 2.028 . S
Mg112 O119 1.986 . S
Mg112 O121 2.114 1_554 S
Mg112 O122 2.251 1_554 S
Mg112 O125 2.010 . S
O113 Mg112 2.028 . S
O113 C116 1.250 . S
O114 Mg115 2.028 . S
O114 C116 1.248 . S
Mg115 O114 2.028 . S
Mg115 O120 2.032 . S
Mg115 O122 2.079 1_554 S
C116 O113 1.250 . S
C116 O114 1.248 . S
C117 O118 1.264 . S
C117 O125 1.249 . S
O118 C117 1.264 . S
O119 Mg112 1.986 . S
O119 C123 1.246 . S
O120 Mg115 2.032 . S
O120 C123 1.259 . S
O121 Mg112 2.114 1_556 S
O121 C124 1.252 . S
O122 Mg112 2.251 1_556 S
O122 Mg115 2.079 1_556 S
O122 C124 1.273 . S
C123 O119 1.246 . S
C123 O120 1.259 . S
C124 O121 1.252 . S
C124 O122 1.273 . S
O125 Mg112 2.010 . S
O125 C117 1.249 . S
Mg126 O127 2.028 . S
Mg126 O133 1.986 1_554 S
Mg126 O135 2.114 . S
Mg126 O136 2.251 . S
Mg126 O139 2.010 . S
O127 Mg126 2.028 . S
O127 C130 1.250 . S
O128 Mg129 2.028 . S
O128 C130 1.248 . S
Mg129 O128 2.028 . S
Mg129 O134 2.032 1_554 S
Mg129 O136 2.079 . S
C130 O127 1.250 . S
C130 O128 1.248 . S
C131 O132 1.264 . S
C131 O139 1.249 . S
O132 C131 1.264 . S
O133 Mg126 1.986 1_556 S
O133 C137 1.246 . S
O134 Mg129 2.032 1_556 S
O134 C137 1.259 . S
O135 Mg126 2.114 . S
O135 C138 1.252 . S
O136 Mg126 2.251 . S
O136 Mg129 2.079 . S
O136 C138 1.273 . S
C137 O133 1.246 . S
C137 O134 1.259 . S
C138 O135 1.252 . S
C138 O136 1.273 . S
O139 Mg126 2.010 . S
O139 C131 1.249 . S
Mg140 O141 2.028 . S
Mg140 O147 1.986 . S
Mg140 O149 2.114 1_554 S
Mg140 O150 2.251 . S
Mg140 O153 2.010 . S
O141 Mg140 2.028 . S
O141 C144 1.250 . S
O142 Mg143 2.028 . S
O142 C144 1.248 . S
Mg143 O142 2.028 . S
Mg143 O148 2.032 . S
Mg143 O150 2.079 . S
C144 O141 1.250 . S
C144 O142 1.248 . S
C145 O146 1.264 . S
C145 O153 1.249 . S
O146 C145 1.264 . S
O147 Mg140 1.986 . S
O147 C151 1.246 . S
O148 Mg143 2.032 . S
O148 C151 1.259 . S
O149 Mg140 2.114 1_556 S
O149 C152 1.252 . S
O150 Mg140 2.251 . S
O150 Mg143 2.079 . S
O150 C152 1.273 1_554 S
C151 O147 1.246 . S
C151 O148 1.259 . S
C152 O149 1.252 . S
C152 O150 1.273 1_556 S
O153 Mg140 2.010 . S
O153 C145 1.249 . S
Mg154 O155 2.028 . S
Mg154 O161 1.986 1_554 S
Mg154 O163 2.114 . S
Mg154 O164 2.251 . S
Mg154 O167 2.010 . S
O155 Mg154 2.028 . S
O155 C158 1.250 . S
O156 Mg157 2.028 . S
O156 C158 1.248 . S
Mg157 O156 2.028 . S
Mg157 O162 2.032 1_554 S
Mg157 O164 2.079 . S
C158 O155 1.250 . S
C158 O156 1.248 . S
C159 O160 1.264 . S
C159 O167 1.249 . S
O160 C159 1.264 . S
O161 Mg154 1.986 1_556 S
O161 C165 1.246 . S
O162 Mg157 2.032 1_556 S
O162 C165 1.259 . S
O163 Mg154 2.114 . S
O163 C166 1.252 . S
O164 Mg154 2.251 . S
O164 Mg157 2.079 . S
O164 C166 1.273 . S
C165 O161 1.246 . S
C165 O162 1.259 . S
C166 O163 1.252 . S
C166 O164 1.273 . S
O167 Mg154 2.010 . S
O167 C159 1.249 . S
H168 C174 0.930 . S
H169 C178 0.930 1_655 S
H170 C183 0.929 1_655 S
H171 C181 0.929 . S
H172 C176 0.929 1_655 S
H173 C182 0.929 . S
C174 H168 0.930 . S
C174 C175 1.367 . S
C174 C182 1.378 . S
C175 C174 1.367 . S
C175 C183 1.433 . S
C176 H172 0.929 1_455 S
C176 C178 1.378 . S
C176 C180 1.350 . S
C177 C180 1.463 . S
C177 C182 1.350 . S
C177 N185 1.427 . S
C178 H169 0.930 1_455 S
C178 C176 1.378 . S
C178 C179 1.367 . S
C179 C178 1.367 . S
C179 C181 1.433 . S
C180 C176 1.350 . S
C180 C177 1.463 . S
C180 N184 1.427 . S
C181 H171 0.929 . S
C181 C179 1.433 . S
C181 N184 1.384 . S
C182 H173 0.929 . S
C182 C174 1.378 . S
C182 C177 1.350 . S
C183 H170 0.929 1_455 S
C183 C175 1.433 . S
C183 N185 1.384 . S
N184 C180 1.427 . S
N184 C181 1.384 . S
N185 C177 1.427 . S
N185 C183 1.384 . S
H186 C192 0.930 . S
H187 C196 0.930 . S
H188 C201 0.929 . S
H189 C199 0.929 . S
H190 C194 0.929 . S
H191 C200 0.929 . S
C192 H186 0.930 . S
C192 C193 1.367 . S
C192 C200 1.378 . S
C193 C192 1.367 . S
C193 C201 1.433 . S
C194 H190 0.929 . S
C194 C196 1.378 . S
C194 C198 1.350 . S
C195 C198 1.463 . S
C195 C200 1.350 . S
C195 N203 1.427 . S
C196 H187 0.930 . S
C196 C194 1.378 . S
C196 C197 1.367 . S
C197 C196 1.367 . S
C197 C199 1.433 . S
C198 C194 1.350 . S
C198 C195 1.463 . S
C198 N202 1.427 . S
C199 H189 0.929 . S
C199 C197 1.433 . S
C199 N202 1.384 . S
C200 H191 0.929 . S
C200 C192 1.378 . S
C200 C195 1.350 . S
C201 H188 0.929 . S
C201 C193 1.433 . S
C201 N203 1.384 . S
N202 C198 1.427 . S
N202 C199 1.384 . S
N203 C195 1.427 . S
N203 C201 1.384 . S
H204 C210 0.917 1_655 S
H205 C214 0.930 . S
H206 C219 0.929 . S
H207 C217 0.929 1_655 S
H208 C212 0.929 . S
H209 C218 0.929 1_655 S
C210 H204 0.917 1_455 S
C210 C211 1.367 . S
C210 C218 1.378 . S
C211 C210 1.367 . S
C211 C219 1.433 . S
C212 H208 0.929 . S
C212 C214 1.378 . S
C212 C216 1.350 . S
C213 C216 1.463 . S
C213 C218 1.350 . S
C213 N221 1.427 . S
C214 H205 0.930 . S
C214 C212 1.378 . S
C214 C215 1.367 . S
C215 C214 1.367 . S
C215 C217 1.433 . S
C216 C212 1.350 . S
C216 C213 1.463 . S
C216 N220 1.427 . S
C217 H207 0.929 1_455 S
C217 C215 1.433 . S
C217 N220 1.384 . S
C218 H209 0.929 1_455 S
C218 C210 1.378 . S
C218 C213 1.350 . S
C219 H206 0.929 . S
C219 C211 1.433 . S
C219 N221 1.384 . S
N220 C216 1.427 . S
N220 C217 1.384 . S
N221 C213 1.427 . S
N221 C219 1.384 . S
H222 C228 0.930 . S
H223 C232 0.930 . S
H224 C237 0.929 . S
H225 C235 0.929 . S
H226 C230 0.929 . S
H227 C236 0.929 . S
C228 H222 0.930 . S
C228 C229 1.367 1_565 S
C228 C236 1.378 . S
C229 C228 1.367 1_545 S
C229 C237 1.433 . S
C230 H226 0.929 . S
C230 C232 1.378 . S
C230 C234 1.350 . S
C231 C234 1.463 . S
C231 C236 1.350 1_545 S
C231 N239 1.427 . S
C232 H223 0.930 . S
C232 C230 1.378 . S
C232 C233 1.367 . S
C233 C232 1.367 . S
C233 C235 1.433 1_545 S
C234 C230 1.350 . S
C234 C231 1.463 . S
C234 N238 1.427 1_545 S
C235 H225 0.929 . S
C235 C233 1.433 1_565 S
C235 N238 1.384 . S
C236 H227 0.929 . S
C236 C228 1.378 . S
C236 C231 1.350 1_565 S
C237 H224 0.929 . S
C237 C229 1.433 . S
C237 N239 1.384 . S
N238 C234 1.427 1_565 S
N238 C235 1.384 . S
N239 C231 1.427 . S
N239 C237 1.384 . S
H240 C246 0.930 1_655 S
H241 C250 0.930 . S
H242 C255 0.929 . S
H243 C253 0.929 . S
H244 C248 0.929 . S
H245 C254 0.932 . S
C246 H240 0.930 1_455 S
C246 C247 1.367 . S
C246 C254 1.378 . S
C247 C246 1.367 . S
C247 C255 1.433 . S
C248 H244 0.929 . S
C248 C250 1.378 . S
C248 C252 1.350 . S
C249 C252 1.463 . S
C249 C254 1.350 . S
C249 N257 1.427 . S
C250 H241 0.930 . S
C250 C248 1.378 . S
C250 C251 1.367 . S
C251 C250 1.367 . S
C251 C253 1.433 . S
C252 C248 1.350 . S
C252 C249 1.463 . S
C252 N256 1.427 . S
C253 H243 0.929 . S
C253 C251 1.433 . S
C253 N256 1.384 . S
C254 H245 0.932 . S
C254 C246 1.378 . S
C254 C249 1.350 . S
C255 H242 0.929 . S
C255 C247 1.433 . S
C255 N257 1.384 . S
N256 C252 1.427 . S
N256 C253 1.384 . S
N257 C249 1.427 . S
N257 C255 1.384 . S
H258 C264 0.930 . S
H259 C268 0.930 . S
H260 C273 0.929 . S
H261 C271 0.929 . S
H262 C266 0.929 . S
H263 C272 0.929 . S
C264 H258 0.930 . S
C264 C265 1.367 1_565 S
C264 C272 1.378 . S
C265 C264 1.367 1_545 S
C265 C273 1.433 . S
C266 H262 0.929 . S
C266 C268 1.378 . S
C266 C270 1.350 . S
C267 C270 1.463 . S
C267 C272 1.350 1_545 S
C267 N275 1.427 . S
C268 H259 0.930 . S
C268 C266 1.378 . S
C268 C269 1.367 . S
C269 C268 1.367 . S
C269 C271 1.433 1_545 S
C270 C266 1.350 . S
C270 C267 1.463 . S
C270 N274 1.427 1_545 S
C271 H261 0.929 . S
C271 C269 1.433 1_565 S
C271 N274 1.384 . S
C272 H263 0.929 . S
C272 C264 1.378 . S
C272 C267 1.350 1_565 S
C273 H260 0.929 . S
C273 C265 1.433 . S
C273 N275 1.384 . S
N274 C270 1.427 1_565 S
N274 C271 1.384 . S
N275 C267 1.427 . S
N275 C273 1.384 . S
H276 C282 0.930 . S
H277 C286 0.930 . S
H278 C291 0.929 . S
H279 C289 0.929 . S
H280 C284 0.929 . S
H281 C290 0.929 . S
C282 H276 0.930 . S
C282 C283 1.367 . S
C282 C290 1.378 . S
C283 C282 1.367 . S
C283 C291 1.433 . S
C284 H280 0.929 . S
C284 C286 1.378 . S
C284 C288 1.350 . S
C285 C288 1.463 . S
C285 C290 1.350 . S
C285 N293 1.427 . S
C286 H277 0.930 . S
C286 C284 1.378 . S
C286 C287 1.367 . S
C287 C286 1.367 . S
C287 C289 1.433 . S
C288 C284 1.350 . S
C288 C285 1.463 . S
C288 N292 1.427 . S
C289 H279 0.929 . S
C289 C287 1.433 . S
C289 N292 1.384 . S
C290 H281 0.929 . S
C290 C282 1.378 . S
C290 C285 1.350 . S
C291 H278 0.929 . S
C291 C283 1.433 . S
C291 N293 1.384 . S
N292 C288 1.427 . S
N292 C289 1.384 . S
N293 C285 1.427 . S
N293 C291 1.384 . S
H294 C300 0.930 . S
H295 C304 0.930 1_565 S
H296 C309 0.929 1_565 S
H297 C307 0.929 . S
H298 C302 0.929 1_565 S
H299 C308 0.929 . S
C300 H294 0.930 . S
C300 C301 1.367 . S
C300 C308 1.378 . S
C301 C300 1.367 . S
C301 C309 1.433 . S
C302 H298 0.929 1_545 S
C302 C304 1.378 . S
C302 C306 1.350 . S
C303 C306 1.463 . S
C303 C308 1.350 . S
C303 N311 1.427 . S
C304 H295 0.930 1_545 S
C304 C302 1.378 . S
C304 C305 1.367 . S
C305 C304 1.367 . S
C305 C307 1.433 . S
C306 C302 1.350 . S
C306 C303 1.463 . S
C306 N310 1.427 . S
C307 H297 0.929 . S
C307 C305 1.433 . S
C307 N310 1.384 . S
C308 H299 0.929 . S
C308 C300 1.378 . S
C308 C303 1.350 . S
C309 H296 0.929 1_545 S
C309 C301 1.433 . S
C309 N311 1.384 . S
N310 C306 1.427 . S
N310 C307 1.384 . S
N311 C303 1.427 . S
N311 C309 1.384 . S
H312 C318 0.930 . S
H313 C322 0.930 . S
H314 C327 0.929 . S
H315 C325 0.929 . S
H316 C320 0.929 . S
H317 C326 0.929 . S
C318 H312 0.930 . S
C318 C319 1.367 1_556 S
C318 C326 1.378 . S
C319 C318 1.367 1_554 S
C319 C327 1.433 . S
C320 H316 0.929 . S
C320 C322 1.378 . S
C320 C324 1.350 . S
C321 C324 1.463 . S
C321 C326 1.350 1_554 S
C321 N329 1.427 . S
C322 H313 0.930 . S
C322 C320 1.378 . S
C322 C323 1.367 . S
C323 C322 1.367 . S
C323 C325 1.433 1_554 S
C324 C320 1.350 . S
C324 C321 1.463 . S
C324 N328 1.427 1_554 S
C325 H315 0.929 . S
C325 C323 1.433 1_556 S
C325 N328 1.384 . S
C326 H317 0.929 . S
C326 C318 1.378 . S
C326 C321 1.350 1_556 S
C327 H314 0.929 . S
C327 C319 1.433 . S
C327 N329 1.384 . S
N328 C324 1.427 1_556 S
N328 C325 1.384 . S
N329 C321 1.427 . S
N329 C327 1.384 . S
H330 C336 0.930 1_556 S
H331 C340 0.930 . S
H332 C345 0.929 . S
H333 C343 0.929 . S
H334 C338 0.929 . S
H335 C344 0.929 1_556 S
C336 H330 0.930 1_554 S
C336 C337 1.367 . S
C336 C344 1.378 . S
C337 C336 1.367 . S
C337 C345 1.433 . S
C338 H334 0.929 . S
C338 C340 1.378 . S
C338 C342 1.350 . S
C339 C342 1.463 . S
C339 C344 1.350 . S
C339 N347 1.427 . S
C340 H331 0.930 . S
C340 C338 1.378 . S
C340 C341 1.367 . S
C341 C340 1.367 . S
C341 C343 1.433 . S
C342 C338 1.350 . S
C342 C339 1.463 . S
C342 N346 1.427 . S
C343 H333 0.929 . S
C343 C341 1.433 . S
C343 N346 1.384 . S
C344 H335 0.929 1_554 S
C344 C336 1.378 . S
C344 C339 1.350 . S
C345 H332 0.929 . S
C345 C337 1.433 . S
C345 N347 1.384 . S
N346 C342 1.427 . S
N346 C343 1.384 . S
N347 C339 1.427 . S
N347 C345 1.384 . S
H348 C354 0.930 1_556 S
H349 C358 0.930 . S
H350 C363 0.929 . S
H351 C361 0.929 . S
H352 C356 0.929 . S
H353 C362 0.929 . S
C354 H348 0.930 1_554 S
C354 C355 1.367 . S
C354 C362 1.378 . S
C355 C354 1.367 . S
C355 C363 1.433 . S
C356 H352 0.929 . S
C356 C358 1.378 . S
C356 C360 1.350 . S
C357 C360 1.463 . S
C357 C362 1.350 . S
C357 N365 1.427 . S
C358 H349 0.930 . S
C358 C356 1.378 . S
C358 C359 1.367 . S
C359 C358 1.367 . S
C359 C361 1.433 . S
C360 C356 1.350 . S
C360 C357 1.463 . S
C360 N364 1.427 . S
C361 H351 0.929 . S
C361 C359 1.433 . S
C361 N364 1.384 . S
C362 H353 0.929 . S
C362 C354 1.378 . S
C362 C357 1.350 . S
C363 H350 0.929 . S
C363 C355 1.433 . S
C363 N365 1.384 . S
N364 C360 1.427 . S
N364 C361 1.384 . S
N365 C357 1.427 . S
N365 C363 1.384 . S
H366 C372 0.930 . S
H367 C376 0.930 1_556 S
H368 C381 0.929 1_556 S
H369 C379 0.929 . S
H370 C374 0.929 1_556 S
H371 C380 0.929 . S
C372 H366 0.930 . S
C372 C373 1.367 . S
C372 C380 1.378 . S
C373 C372 1.367 . S
C373 C381 1.433 . S
C374 H370 0.929 1_554 S
C374 C376 1.378 . S
C374 C378 1.350 . S
C375 C378 1.463 . S
C375 C380 1.350 . S
C375 N383 1.427 . S
C376 H367 0.930 1_554 S
C376 C374 1.378 . S
C376 C377 1.367 . S
C377 C376 1.367 . S
C377 C379 1.433 . S
C378 C374 1.350 . S
C378 C375 1.463 . S
C378 N382 1.427 . S
C379 H369 0.929 . S
C379 C377 1.433 . S
C379 N382 1.384 . S
C380 H371 0.929 . S
C380 C372 1.378 . S
C380 C375 1.350 . S
C381 H368 0.929 1_554 S
C381 C373 1.433 . S
C381 N383 1.384 . S
N382 C378 1.427 . S
N382 C379 1.384 . S
N383 C375 1.427 . S
N383 C381 1.384 . S
H384 C390 0.930 . S
H385 C394 0.930 . S
H386 C399 0.929 . S
H387 C397 0.929 . S
H388 C392 0.929 . S
H389 C398 0.929 . S
C390 H384 0.930 . S
C390 C391 1.367 . S
C390 C398 1.378 . S
C391 C390 1.367 . S
C391 C399 1.433 . S
C392 H388 0.929 . S
C392 C394 1.378 . S
C392 C396 1.350 . S
C393 C396 1.463 . S
C393 C398 1.350 . S
C393 N401 1.427 . S
C394 H385 0.930 . S
C394 C392 1.378 . S
C394 C395 1.367 . S
C395 C394 1.367 . S
C395 C397 1.433 . S
C396 C392 1.350 . S
C396 C393 1.463 . S
C396 N400 1.427 . S
C397 H387 0.929 . S
C397 C395 1.433 . S
C397 N400 1.384 . S
C398 H389 0.929 . S
C398 C390 1.378 . S
C398 C393 1.350 . S
C399 H386 0.929 . S
C399 C391 1.433 . S
C399 N401 1.384 . S
N400 C396 1.427 . S
N400 C397 1.384 . S
N401 C393 1.427 . S
N401 C399 1.384 . S
H402 C408 0.930 . S
H403 C412 0.930 . S
H404 C417 0.929 . S
H405 C415 0.929 . S
H406 C410 0.929 . S
H407 C416 0.929 . S
C408 H402 0.930 . S
C408 C409 1.367 . S
C408 C416 1.378 . S
C409 C408 1.367 . S
C409 C417 1.433 . S
C410 H406 0.929 . S
C410 C412 1.378 . S
C410 C414 1.350 . S
C411 C414 1.463 . S
C411 C416 1.350 . S
C411 N419 1.427 . S
C412 H403 0.930 . S
C412 C410 1.378 . S
C412 C413 1.367 . S
C413 C412 1.367 . S
C413 C415 1.433 . S
C414 C410 1.350 . S
C414 C411 1.463 . S
C414 N418 1.427 . S
C415 H405 0.929 . S
C415 C413 1.433 . S
C415 N418 1.384 . S
C416 H407 0.929 . S
C416 C408 1.378 . S
C416 C411 1.350 . S
C417 H404 0.929 . S
C417 C409 1.433 . S
C417 N419 1.384 . S
N418 C414 1.427 . S
N418 C415 1.384 . S
N419 C411 1.427 . S
N419 C417 1.384 . S
H420 C426 0.930 . S
H421 C430 0.930 . S
H422 C435 0.929 . S
H423 C433 0.929 . S
H424 C428 0.929 . S
H425 C434 0.929 . S
C426 H420 0.930 . S
C426 C427 1.367 . S
C426 C434 1.378 . S
C427 C426 1.367 . S
C427 C435 1.433 . S
C428 H424 0.929 . S
C428 C430 1.378 . S
C428 C432 1.350 . S
C429 C432 1.463 . S
C429 C434 1.350 . S
C429 N437 1.427 . S
C430 H421 0.930 . S
C430 C428 1.378 . S
C430 C431 1.367 . S
C431 C430 1.367 . S
C431 C433 1.433 . S
C432 C428 1.350 . S
C432 C429 1.463 . S
C432 N436 1.427 . S
C433 H423 0.929 . S
C433 C431 1.433 . S
C433 N436 1.384 . S
C434 H425 0.929 . S
C434 C426 1.378 . S
C434 C429 1.350 . S
C435 H422 0.929 . S
C435 C427 1.433 . S
C435 N437 1.384 . S
N436 C432 1.427 . S
N436 C433 1.384 . S
N437 C429 1.427 . S
N437 C435 1.384 . S
H438 C444 0.930 . S
H439 C448 0.930 . S
H440 C453 0.929 . S
H441 C451 0.929 . S
H442 C446 0.929 . S
H443 C452 0.929 . S
C444 H438 0.930 . S
C444 C445 1.367 . S
C444 C452 1.378 . S
C445 C444 1.367 . S
C445 C453 1.433 . S
C446 H442 0.929 . S
C446 C448 1.378 . S
C446 C450 1.350 . S
C447 C450 1.463 . S
C447 C452 1.350 . S
C447 N455 1.427 . S
C448 H439 0.930 . S
C448 C446 1.378 . S
C448 C449 1.367 . S
C449 C448 1.367 . S
C449 C451 1.433 . S
C450 C446 1.350 . S
C450 C447 1.463 . S
C450 N454 1.427 . S
C451 H441 0.929 . S
C451 C449 1.433 . S
C451 N454 1.384 . S
C452 H443 0.929 . S
C452 C444 1.378 . S
C452 C447 1.350 . S
C453 H440 0.929 . S
C453 C445 1.433 . S
C453 N455 1.384 . S
N454 C450 1.427 . S
N454 C451 1.384 . S
N455 C447 1.427 . S
N455 C453 1.384 . S
H456 C462 0.930 . S
H457 C466 0.930 . S
H458 C471 0.929 . S
H459 C469 0.929 . S
H460 C464 0.929 . S
H461 C470 0.929 . S
C462 H456 0.930 . S
C462 C463 1.367 . S
C462 C470 1.378 . S
C463 C462 1.367 . S
C463 C471 1.433 . S
C464 H460 0.929 . S
C464 C466 1.378 . S
C464 C468 1.350 . S
C465 C468 1.463 . S
C465 C470 1.350 . S
C465 N473 1.427 . S
C466 H457 0.930 . S
C466 C464 1.378 . S
C466 C467 1.367 . S
C467 C466 1.367 . S
C467 C469 1.433 . S
C468 C464 1.350 . S
C468 C465 1.463 . S
C468 N472 1.427 . S
C469 H459 0.929 . S
C469 C467 1.433 . S
C469 N472 1.384 . S
C470 H461 0.929 . S
C470 C462 1.378 . S
C470 C465 1.350 . S
C471 H458 0.929 . S
C471 C463 1.433 . S
C471 N473 1.384 . S
N472 C468 1.427 . S
N472 C469 1.384 . S
N473 C465 1.427 . S
N473 C471 1.384 . S
H474 C480 0.930 . S
H475 C484 0.930 . S
H476 C489 0.929 . S
H477 C487 0.929 . S
H478 C482 0.929 . S
H479 C488 0.929 . S
C480 H474 0.930 . S
C480 C481 1.367 . S
C480 C488 1.378 . S
C481 C480 1.367 . S
C481 C489 1.433 . S
C482 H478 0.929 . S
C482 C484 1.378 . S
C482 C486 1.350 . S
C483 C486 1.463 . S
C483 C488 1.350 . S
C483 N491 1.427 . S
C484 H475 0.930 . S
C484 C482 1.378 . S
C484 C485 1.367 . S
C485 C484 1.367 . S
C485 C487 1.433 . S
C486 C482 1.350 . S
C486 C483 1.463 . S
C486 N490 1.427 . S
C487 H477 0.929 . S
C487 C485 1.433 . S
C487 N490 1.384 . S
C488 H479 0.929 . S
C488 C480 1.378 . S
C488 C483 1.350 . S
C489 H476 0.929 . S
C489 C481 1.433 . S
C489 N491 1.384 . S
N490 C486 1.427 . S
N490 C487 1.384 . S
N491 C483 1.427 . S
N491 C489 1.384 . S
H492 C498 0.930 . S
H493 C502 0.930 . S
H494 C507 0.929 . S
H495 C505 0.929 . S
H496 C500 0.929 . S
H497 C506 0.929 . S
C498 H492 0.930 . S
C498 C499 1.367 . S
C498 C506 1.378 . S
C499 C498 1.367 . S
C499 C507 1.433 . S
C500 H496 0.929 . S
C500 C502 1.378 . S
C500 C504 1.350 . S
C501 C504 1.463 . S
C501 C506 1.350 . S
C501 N509 1.427 . S
C502 H493 0.930 . S
C502 C500 1.378 . S
C502 C503 1.367 . S
C503 C502 1.367 . S
C503 C505 1.433 . S
C504 C500 1.350 . S
C504 C501 1.463 . S
C504 N508 1.427 . S
C505 H495 0.929 . S
C505 C503 1.433 . S
C505 N508 1.384 . S
C506 H497 0.929 . S
C506 C498 1.378 . S
C506 C501 1.350 . S
C507 H494 0.929 . S
C507 C499 1.433 . S
C507 N509 1.384 . S
N508 C504 1.427 . S
N508 C505 1.384 . S
N509 C501 1.427 . S
N509 C507 1.384 . S
H510 C516 0.930 . S
H511 C520 0.930 . S
H512 C525 0.929 . S
H513 C523 0.929 . S
H514 C518 0.929 . S
H515 C524 0.929 . S
C516 H510 0.930 . S
C516 C517 1.367 . S
C516 C524 1.378 . S
C517 C516 1.367 . S
C517 C525 1.433 . S
C518 H514 0.929 . S
C518 C520 1.378 . S
C518 C522 1.350 . S
C519 C522 1.463 . S
C519 C524 1.350 . S
C519 N527 1.427 . S
C520 H511 0.930 . S
C520 C518 1.378 . S
C520 C521 1.367 . S
C521 C520 1.367 . S
C521 C523 1.433 . S
C522 C518 1.350 . S
C522 C519 1.463 . S
C522 N526 1.427 . S
C523 H513 0.929 . S
C523 C521 1.433 . S
C523 N526 1.384 . S
C524 H515 0.929 . S
C524 C516 1.378 . S
C524 C519 1.350 . S
C525 H512 0.929 . S
C525 C517 1.433 . S
C525 N527 1.384 . S
N526 C522 1.427 . S
N526 C523 1.384 . S
N527 C519 1.427 . S
N527 C525 1.384 . S
H528 C534 0.930 . S
H529 C538 0.930 . S
H530 C543 0.929 . S
H531 C541 0.929 . S
H532 C536 0.929 . S
H533 C542 0.929 . S
C534 H528 0.930 . S
C534 C535 1.367 . S
C534 C542 1.378 . S
C535 C534 1.367 . S
C535 C543 1.433 . S
C536 H532 0.929 . S
C536 C538 1.378 . S
C536 C540 1.350 . S
C537 C540 1.463 . S
C537 C542 1.350 . S
C537 N545 1.427 . S
C538 H529 0.930 . S
C538 C536 1.378 . S
C538 C539 1.367 . S
C539 C538 1.367 . S
C539 C541 1.433 . S
C540 C536 1.350 . S
C540 C537 1.463 . S
C540 N544 1.427 . S
C541 H531 0.929 . S
C541 C539 1.433 . S
C541 N544 1.384 . S
C542 H533 0.929 . S
C542 C534 1.378 . S
C542 C537 1.350 . S
C543 H530 0.929 . S
C543 C535 1.433 . S
C543 N545 1.384 . S
N544 C540 1.427 . S
N544 C541 1.384 . S
N545 C537 1.427 . S
N545 C543 1.384 . S
H546 C552 0.930 . S
H547 C556 0.930 . S
H548 C561 0.929 . S
H549 C559 0.929 . S
H550 C554 0.929 . S
H551 C560 0.929 . S
C552 H546 0.930 . S
C552 C553 1.367 . S
C552 C560 1.378 . S
C553 C552 1.367 . S
C553 C561 1.433 . S
C554 H550 0.929 . S
C554 C556 1.378 . S
C554 C558 1.350 . S
C555 C558 1.463 . S
C555 C560 1.350 . S
C555 N563 1.427 . S
C556 H547 0.930 . S
C556 C554 1.378 . S
C556 C557 1.367 . S
C557 C556 1.367 . S
C557 C559 1.433 . S
C558 C554 1.350 . S
C558 C555 1.463 . S
C558 N562 1.427 . S
C559 H549 0.929 . S
C559 C557 1.433 . S
C559 N562 1.384 . S
C560 H551 0.929 . S
C560 C552 1.378 . S
C560 C555 1.350 . S
C561 H548 0.929 . S
C561 C553 1.433 . S
C561 N563 1.384 . S
N562 C558 1.427 . S
N562 C559 1.384 . S
N563 C555 1.427 . S
N563 C561 1.384 . S
H564 C570 0.930 . S
H565 C574 0.930 . S
H566 C579 0.929 . S
H567 C577 0.929 . S
H568 C572 0.929 . S
H569 C578 0.929 . S
C570 H564 0.930 . S
C570 C571 1.367 . S
C570 C578 1.378 . S
C571 C570 1.367 . S
C571 C579 1.433 . S
C572 H568 0.929 . S
C572 C574 1.378 . S
C572 C576 1.350 . S
C573 C576 1.463 . S
C573 C578 1.350 . S
C573 N581 1.427 . S
C574 H565 0.930 . S
C574 C572 1.378 . S
C574 C575 1.367 . S
C575 C574 1.367 . S
C575 C577 1.433 . S
C576 C572 1.350 . S
C576 C573 1.463 . S
C576 N580 1.427 . S
C577 H567 0.929 . S
C577 C575 1.433 . S
C577 N580 1.384 . S
C578 H569 0.929 . S
C578 C570 1.378 . S
C578 C573 1.350 . S
C579 H566 0.929 . S
C579 C571 1.433 . S
C579 N581 1.384 . S
N580 C576 1.427 . S
N580 C577 1.384 . S
N581 C573 1.427 . S
N581 C579 1.384 . S
H582 C588 0.930 . S
H583 C592 0.930 . S
H584 C597 0.929 . S
H585 C595 0.929 . S
H586 C590 0.929 . S
H587 C596 0.929 . S
C588 H582 0.930 . S
C588 C589 1.367 . S
C588 C596 1.378 . S
C589 C588 1.367 . S
C589 C597 1.433 . S
C590 H586 0.929 . S
C590 C592 1.378 . S
C590 C594 1.350 . S
C591 C594 1.463 . S
C591 C596 1.350 . S
C591 N599 1.427 . S
C592 H583 0.930 . S
C592 C590 1.378 . S
C592 C593 1.367 . S
C593 C592 1.367 . S
C593 C595 1.433 . S
C594 C590 1.350 . S
C594 C591 1.463 . S
C594 N598 1.427 . S
C595 H585 0.929 . S
C595 C593 1.433 . S
C595 N598 1.384 . S
C596 H587 0.929 . S
C596 C588 1.378 . S
C596 C591 1.350 . S
C597 H584 0.929 . S
C597 C589 1.433 . S
C597 N599 1.384 . S
N598 C594 1.427 . S
N598 C595 1.384 . S
N599 C591 1.427 . S
N599 C597 1.384 . S
C175 C11 1.293 . S
C179 C82 1.313 . S
C193 C26 1.314 . S
C197 C60 1.308 . S
C211 C81 1.197 . S
C215 C39 1.200 . S
C229 C54 1.403 . S
C233 C61 1.241 . S
C247 C109 1.320 . S
C251 C40 1.351 . S
C265 C88 1.217 . S
C269 C53 1.205 . S
C283 C12 1.387 . S
C287 C110 1.383 . S
C301 C89 1.140 . S
C305 C25 1.278 . S
C319 C131 1.178 . S
C323 C117 1.195 . S
C337 C116 1.217 . S
C341 C158 1.208 . S
C355 C130 1.175 . S
C359 C144 1.170 . S
C373 C145 1.214 . S
C377 C159 1.225 . S
C391 C165 1.287 . S
C395 C96 1.310 . S
C409 C124 1.314 . S
C413 C102 1.304 . S
C427 C95 1.208 . S
C431 C137 1.199 . S
C445 C103 1.227 . S
C449 C152 1.401 . S
C463 C67 1.322 . S
C467 C138 1.350 . S
C481 C74 1.217 . S
C485 C151 1.199 . S
C499 C166 1.386 . S
C503 C68 1.386 . S
C517 C123 1.284 . S
C521 C75 1.155 . S
C535 C19 1.201 . S
C539 C33 1.172 . S
C553 C4 1.218 . S
C557 C18 1.207 . S
C571 C32 1.167 . S
C575 C46 1.177 . S
C589 C5 1.219 . S
C593 C47 1.215 . S
