# Generated by pormake.
# Topology snk, (6)-cn, num edge types: 1
# Building blocks:
#     Node 0, Type 0, BuildingBlock: VOLQOD_clean_sbu_1, # of connection points: 6
#     Node 1, Type 0, BuildingBlock: VOLQOD_clean_sbu_1, # of connection points: 6
#     Node 2, Type 0, BuildingBlock: VOLQOD_clean_sbu_1, # of connection points: 6
#     Node 3, Type 0, BuildingBlock: VOLQOD_clean_sbu_1, # of connection points: 6
#     Node 4, Type 0, BuildingBlock: VOLQOD_clean_sbu_1, # of connection points: 6
#     Node 5, Type 0, BuildingBlock: VOLQOD_clean_sbu_1, # of connection points: 6
#     Node 6, Type 0, BuildingBlock: VOLQOD_clean_sbu_1, # of connection points: 6
#     Node 7, Type 0, BuildingBlock: VOLQOD_clean_sbu_1, # of connection points: 6
#     Edge 8, Type (0, 0), BuildingBlock: UVAHIK_clean_linker_0, # of connection points: 2
#     Edge 9, Type (0, 0), BuildingBlock: UVAHIK_clean_linker_0, # of connection points: 2
#     Edge 10, Type (0, 0), BuildingBlock: UVAHIK_clean_linker_0, # of connection points: 2
#     Edge 11, Type (0, 0), BuildingBlock: UVAHIK_clean_linker_0, # of connection points: 2
#     Edge 12, Type (0, 0), BuildingBlock: UVAHIK_clean_linker_0, # of connection points: 2
#     Edge 13, Type (0, 0), BuildingBlock: UVAHIK_clean_linker_0, # of connection points: 2
#     Edge 14, Type (0, 0), BuildingBlock: UVAHIK_clean_linker_0, # of connection points: 2
#     Edge 15, Type (0, 0), BuildingBlock: UVAHIK_clean_linker_0, # of connection points: 2
#     Edge 16, Type (0, 0), BuildingBlock: UVAHIK_clean_linker_0, # of connection points: 2
#     Edge 17, Type (0, 0), BuildingBlock: UVAHIK_clean_linker_0, # of connection points: 2
#     Edge 18, Type (0, 0), BuildingBlock: UVAHIK_clean_linker_0, # of connection points: 2
#     Edge 19, Type (0, 0), BuildingBlock: UVAHIK_clean_linker_0, # of connection points: 2
#     Edge 20, Type (0, 0), BuildingBlock: UVAHIK_clean_linker_0, # of connection points: 2
#     Edge 21, Type (0, 0), BuildingBlock: UVAHIK_clean_linker_0, # of connection points: 2
#     Edge 22, Type (0, 0), BuildingBlock: UVAHIK_clean_linker_0, # of connection points: 2
#     Edge 23, Type (0, 0), BuildingBlock: UVAHIK_clean_linker_0, # of connection points: 2
#     Edge 24, Type (0, 0), BuildingBlock: UVAHIK_clean_linker_0, # of connection points: 2
#     Edge 25, Type (0, 0), BuildingBlock: UVAHIK_clean_linker_0, # of connection points: 2
#     Edge 26, Type (0, 0), BuildingBlock: UVAHIK_clean_linker_0, # of connection points: 2
#     Edge 27, Type (0, 0), BuildingBlock: UVAHIK_clean_linker_0, # of connection points: 2
#     Edge 28, Type (0, 0), BuildingBlock: UVAHIK_clean_linker_0, # of connection points: 2
#     Edge 29, Type (0, 0), BuildingBlock: UVAHIK_clean_linker_0, # of connection points: 2
#     Edge 30, Type (0, 0), BuildingBlock: UVAHIK_clean_linker_0, # of connection points: 2
#     Edge 31, Type (0, 0), BuildingBlock: UVAHIK_clean_linker_0, # of connection points: 2
# Relax obj value: 0.177
# Max RMSD: 0.167
# Mean RMSD: 0.167
data_MOF--net-snk--node1-VOLQOD_clean_sbu_1--edge1-UVAHIK_clean_linker_0
_symmetry_space_group_name_H-M    P1
_symmetry_Int_Tables_number       1
_symmetry_cell_setting            triclinic
loop_
_symmetry_equiv_pos_as_xyz
'x, y, z'
_cell_length_a     58.734587
_cell_length_b     58.837383
_cell_length_c     20.061262
_cell_angle_alpha  89.892758
_cell_angle_beta   89.992791
_cell_angle_gamma 89.859333
loop_
_atom_site_label
_atom_site_type_symbol
_atom_site_fract_x
_atom_site_fract_y
_atom_site_fract_z
_atom_type_partial_charge
O0 O 0.02398 0.99153 0.47813 0.0
Zn1 Zn -0.00431 0.00988 0.45642 0.0
O2 O -0.00047 0.0416 0.4805 0.0
Zn3 Zn 0.98098 0.04998 0.55564 0.0
Zn4 Zn 0.03118 0.0457 0.50083 0.0
Zn5 Zn 0.99109 0.06131 0.40853 0.0
O6 O 0.96191 0.07799 0.53775 0.0
O7 O 0.96228 0.07803 0.42713 0.0
O8 O 0.96807 -0.00288 0.50301 0.0
O9 O 0.9592 0.02464 0.57462 0.0
O10 O 0.00039 0.05416 0.63623 0.0
O11 O 0.0355 0.04736 0.59959 0.0
O12 O 0.04331 0.07407 0.45944 0.0
O13 O 0.9923 0.00725 0.35675 0.0
O14 O 0.01499 0.08525 0.39384 0.0
O15 O 0.98808 0.04334 0.32577 0.0
C16 C 0.04454 -0.00184 0.47253 0.0
C17 C 0.95435 0.08528 0.48215 0.0
C18 C 0.02162 0.05161 0.64661 0.0
C19 C 0.95569 0.00504 0.54983 0.0
C20 C 0.03485 0.08806 0.41776 0.0
C21 C 0.98927 0.02228 0.31187 0.0
O22 O 0.04952 0.01918 0.47064 0.0
O23 O 0.32671 0.85395 0.74135 0.0
Zn24 Zn 0.31217 0.82451 0.71298 0.0
O25 O 0.27927 0.82481 0.73057 0.0
Zn26 Zn 0.27092 0.80123 0.7939 0.0
Zn27 Zn 0.27032 0.85439 0.76488 0.0
Zn28 Zn 0.26283 0.81903 0.64955 0.0
O29 O 0.24562 0.7809 0.76148 0.0
O30 O 0.24285 0.79199 0.6563 0.0
O31 O 0.32699 0.79812 0.76072 0.0
O32 O 0.29802 0.78182 0.81372 0.0
O33 O 0.26164 0.81513 0.88 0.0
O34 O 0.26148 0.8523 0.86086 0.0
O35 O 0.24473 0.86825 0.71224 0.0
O36 O 0.31879 0.82136 0.61472 0.0
O37 O 0.24192 0.84472 0.62643 0.0
O38 O 0.28417 0.8144 0.57489 0.0
C39 C 0.31808 0.87306 0.75734 0.0
C40 C 0.23687 0.779 0.70375 0.0
C41 C 0.25885 0.83546 0.89987 0.0
C42 C 0.31903 0.78259 0.79844 0.0
C43 C 0.23578 0.86265 0.65687 0.0
C44 C 0.30553 0.8163 0.56696 0.0
O45 O 0.29669 0.87565 0.76406 0.0
O46 O 0.46723 0.15891 -0.00763 0.0
Zn47 Zn 0.49626 0.1429 0.96541 0.0
O48 O 0.49464 0.11024 0.98177 0.0
Zn49 Zn 0.51766 0.10086 0.04505 0.0
Zn50 Zn 0.46485 0.10357 0.0167 0.0
Zn51 Zn 0.499 0.09317 0.90134 0.0
O52 O 0.53547 0.07342 0.01486 0.0
O53 O 0.52563 0.07239 0.90819 0.0
O54 O 0.52354 0.15639 0.01149 0.0
O55 O 0.53959 0.12627 0.05961 0.0
O56 O 0.50343 0.09552 0.13363 0.0
O57 O 0.46641 0.10025 0.1158 0.0
O58 O 0.45127 0.07601 0.97448 0.0
O59 O 0.49966 0.1489 0.86747 0.0
O60 O 0.47271 0.07225 0.88399 0.0
O61 O 0.50341 0.11416 0.8248 0.0
C62 C 0.44722 0.1508 -0.00238 0.0
C63 C 0.5375 0.06506 0.95667 0.0
C64 C 0.48309 0.09694 0.1551 0.0
C65 C 0.53951 0.14737 0.04558 0.0
C66 C 0.45575 0.06628 0.91939 0.0
C67 C 0.50292 0.13568 0.81833 0.0
O68 O 0.44377 0.12949 0.0005 0.0
O69 O 0.16723 0.30192 0.27185 0.0
Zn70 Zn 0.18353 0.33069 0.24553 0.0
O71 O 0.21635 0.32836 0.26242 0.0
Zn72 Zn 0.22643 0.35114 0.32574 0.0
Zn73 Zn 0.22336 0.29826 0.29672 0.0
Zn74 Zn 0.23293 0.33329 0.18108 0.0
O75 O 0.25327 0.36944 0.29335 0.0
O76 O 0.25451 0.35918 0.18726 0.0
O77 O 0.17056 0.35728 0.2959 0.0
O78 O 0.20071 0.37232 0.34632 0.0
O79 O 0.23455 0.33653 0.4119 0.0
O80 O 0.23148 0.29949 0.39346 0.0
O81 O 0.2485 0.28335 0.24513 0.0
O82 O 0.17683 0.3352 0.14766 0.0
O83 O 0.25213 0.30632 0.15793 0.0
O84 O 0.21178 0.33935 0.10682 0.0
C85 C 0.17475 0.28219 0.28615 0.0
C86 C 0.26171 0.37127 0.23518 0.0
C87 C 0.23542 0.31607 0.43228 0.0
C88 C 0.17952 0.37243 0.33286 0.0
C89 C 0.25749 0.28825 0.1892 0.0
C90 C 0.1903 0.33924 0.09951 0.0
O91 O 0.19595 0.2784 0.29298 0.0
O92 O 0.82869 0.34867 0.2796 0.0
Zn93 Zn 0.81245 0.31985 0.25282 0.0
O94 O 0.77937 0.32256 0.26668 0.0
Zn95 Zn 0.76845 0.29832 0.324 0.0
Zn96 Zn 0.77237 0.35178 0.30651 0.0
Zn97 Zn 0.76324 0.32038 0.18353 0.0
O98 O 0.7422 0.28077 0.28531 0.0
O99 O 0.74084 0.29509 0.18325 0.0
O100 O 0.82504 0.29294 0.30404 0.0
O101 O 0.79369 0.27662 0.34333 0.0
O102 O 0.75952 0.31078 0.41229 0.0
O103 O 0.76374 0.34808 0.40225 0.0
O104 O 0.74773 0.36845 0.25709 0.0
O105 O 0.81974 0.31512 0.15548 0.0
O106 O 0.74457 0.34811 0.16458 0.0
O107 O 0.78507 0.31518 0.11035 0.0
C108 C 0.82107 0.36799 0.29765 0.0
C109 C 0.73363 0.28128 0.2271 0.0
C110 C 0.75907 0.33064 0.43713 0.0
C111 C 0.81518 0.27688 0.33548 0.0
C112 C 0.73911 0.36525 0.19967 0.0
C113 C 0.80657 0.3134 0.10547 0.0
O114 O 0.79991 0.37136 0.30686 0.0
O115 O 0.66835 0.80034 0.74892 0.0
Zn116 Zn 0.68326 0.82958 0.7197 0.0
O117 O 0.71608 0.82937 0.73825 0.0
Zn118 Zn 0.72427 0.85264 0.80261 0.0
Zn119 Zn 0.72466 0.7996 0.77171 0.0
Zn120 Zn 0.73289 0.8356 0.65803 0.0
O121 O 0.74949 0.87339 0.77094 0.0
O122 O 0.75164 0.86347 0.66476 0.0
O123 O 0.66849 0.85621 0.76572 0.0
O124 O 0.69704 0.87193 0.82204 0.0
O125 O 0.73353 0.83828 0.88835 0.0
O126 O 0.73362 0.80124 0.86747 0.0
O127 O 0.75016 0.78589 0.71921 0.0
O128 O 0.67709 0.83227 0.62114 0.0
O129 O 0.75507 0.81072 0.63715 0.0
O130 O 0.71186 0.83914 0.58211 0.0
C131 C 0.67691 0.78115 0.76463 0.0
C132 C 0.7577 0.87611 0.71276 0.0
C133 C 0.73632 0.81781 0.90721 0.0
C134 C 0.6762 0.87146 0.80469 0.0
C135 C 0.76032 0.79225 0.66639 0.0
C136 C 0.69054 0.83702 0.57352 0.0
O137 O 0.69829 0.77844 0.77078 0.0
O138 O 0.52931 0.4977 0.01418 0.0
Zn139 Zn 0.4997 0.51241 -0.01403 0.0
O140 O 0.50007 0.54528 0.00075 0.0
Zn141 Zn 0.47537 0.55402 0.05912 0.0
Zn142 Zn 0.52881 0.55368 0.04059 0.0
Zn143 Zn 0.49632 0.56179 0.91867 0.0
O144 O 0.45795 0.58135 0.02669 0.0
O145 O 0.47027 0.58353 0.92249 0.0
O146 O 0.47294 0.49802 0.03339 0.0
O147 O 0.45377 0.52819 0.06962 0.0
O148 O 0.48741 0.55964 0.15015 0.0
O149 O 0.52496 0.55953 0.13794 0.0
O150 O 0.54314 0.58015 -0.00607 0.0
O151 O 0.4962 0.50574 0.88835 0.0
O152 O 0.5232 0.58177 0.89996 0.0
O153 O 0.49147 0.5402 0.84413 0.0
C154 C 0.54838 0.50646 0.02993 0.0
C155 C 0.45737 0.59044 0.96912 0.0
C156 C 0.50734 0.56094 0.17457 0.0
C157 C 0.45548 0.50683 0.06108 0.0
C158 C 0.53962 0.58851 0.93625 0.0
C159 C 0.49229 0.51867 0.83879 0.0
O160 O 0.55062 0.5278 0.03724 0.0
O161 O 0.97036 0.65816 0.48902 0.0
Zn162 Zn -0.0012 0.64051 0.46538 0.0
O163 O -0.00407 0.6083 0.48835 0.0
Zn164 Zn 0.01695 0.60005 0.559 0.0
Zn165 Zn 0.9649 0.60265 0.51605 0.0
Zn166 Zn 0.00271 0.58948 0.41241 0.0
O167 O 0.03631 0.57284 0.53622 0.0
O168 O 0.029 0.56893 0.42847 0.0
O169 O 0.02612 0.654 0.51135 0.0
O170 O 0.03802 0.62592 0.57721 0.0
O171 O -0.00012 0.59356 0.64257 0.0
O172 O 0.96347 0.59614 0.61339 0.0
O173 O 0.95084 0.57672 0.46707 0.0
O174 O 0.00266 0.6443 0.36647 0.0
O175 O 0.97693 0.56835 0.39109 0.0
O176 O 0.00866 0.60871 0.3334 0.0
C177 C 0.95012 0.65117 0.49885 0.0
C178 C 0.03979 0.56306 0.48064 0.0
C179 C 0.9788 0.59284 0.657 0.0
C180 C 0.03986 0.64609 0.55482 0.0
C181 C 0.95763 0.56489 0.41791 0.0
C182 C 0.00737 0.6299 0.32131 0.0
O183 O 0.94569 0.63011 0.50437 0.0
C184 C 0.03789 0.12638 0.36362 0.0
C185 C 0.04811 0.10837 0.3989 0.0
C186 C 0.05017 0.14614 0.34971 0.0
C187 C 0.10032 0.1779 0.40853 0.0
H188 H 0.0967 0.2085 0.23739 0.0
C189 C 0.16655 0.24274 0.32463 0.0
C190 C 0.15869 0.26326 0.2969 0.0
C191 C 0.15156 0.22491 0.33655 0.0
C192 C 0.09762 0.20025 0.28564 0.0
H193 H 0.07946 0.09662 0.44495 0.0
H194 H 0.10091 0.13078 0.41954 0.0
H195 H 0.07338 0.1748 0.25812 0.0
H196 H 0.12896 0.28102 0.25886 0.0
H197 H 0.10267 0.24951 0.27937 0.0
H198 H 0.12491 0.20296 0.43551 0.0
C199 C 0.08326 0.12992 0.40413 0.0
C200 C 0.0843 0.181 0.29754 0.0
C201 C 0.071 0.11027 0.41832 0.0
C202 C 0.13551 0.26544 0.28048 0.0
C203 C 0.1205 0.24743 0.29189 0.0
C204 C 0.11368 0.19698 0.3965 0.0
C205 C 0.0729 0.14821 0.37062 0.0
C206 C 0.08583 0.16942 0.35876 0.0
C207 C 0.1284 0.22711 0.32063 0.0
C208 C 0.11274 0.2081 0.33463 0.0
H209 H 0.02026 0.12545 0.34809 0.0
H210 H 0.04169 0.16 0.32413 0.0
H211 H 0.10145 0.1697 0.45681 0.0
H212 H 0.18429 0.24046 0.33786 0.0
H213 H 0.15814 0.2093 0.35792 0.0
C214 C 0.08494 0.9881 0.44963 0.0
C215 C 0.06339 0.98158 0.47307 0.0
C216 C 0.10371 0.97392 0.45841 0.0
C217 C 0.12209 0.91588 0.50615 0.0
H218 H 0.17492 0.94788 0.57392 0.0
C219 C 0.20672 0.87036 0.56834 0.0
C220 C 0.21718 0.87662 0.62864 0.0
C221 C 0.18838 0.88286 0.54334 0.0
C222 C 0.16029 0.93869 0.5553 0.0
H223 H 0.04426 0.95455 0.52048 0.0
H224 H 0.07728 0.92985 0.53727 0.0
H225 H 0.14158 0.96931 0.53893 0.0
H226 H 0.21673 0.90108 0.70951 0.0
H227 H 0.18465 0.92274 0.66609 0.0
H228 H 0.14065 0.88518 0.52504 0.0
C229 C 0.07959 0.94584 0.51137 0.0
C230 C 0.14128 0.95097 0.53437 0.0
C231 C 0.0607 0.96 0.50197 0.0
C232 C 0.20913 0.89584 0.66283 0.0
C233 C 0.1908 0.90832 0.63781 0.0
C234 C 0.14115 0.90356 0.52719 0.0
C235 C 0.1014 0.953 0.49147 0.0
C236 C 0.12192 0.93972 0.50994 0.0
C237 C 0.18015 0.90188 0.57802 0.0
C238 C 0.16035 0.91486 0.55259 0.0
H239 H 0.08746 0.00449 0.4261 0.0
H240 H 0.12019 0.97965 0.44101 0.0
H241 H 0.10747 0.90676 0.48719 0.0
H242 H 0.21254 0.85567 0.54061 0.0
H243 H 0.1807 0.87768 0.49671 0.0
C244 C 0.35588 0.89264 0.74928 0.0
C245 C 0.33307 0.89263 0.77053 0.0
C246 C 0.3699 0.91123 0.76279 0.0
C247 C 0.37693 0.95766 0.88034 0.0
H248 H 0.41091 0.98788 0.74028 0.0
C249 C 0.42009 0.04338 0.92624 0.0
C250 C 0.44158 0.04702 0.8976 0.0
C251 C 0.40719 0.0245 0.90827 0.0
C252 C 0.4018 0.97944 0.78015 0.0
H253 H 0.30711 0.91202 0.82273 0.0
H254 H 0.33168 0.9442 0.84694 0.0
H255 H 0.38842 0.95416 0.71407 0.0
H256 H 0.46636 0.03387 0.82719 0.0
H257 H 0.44412 0.00056 0.79719 0.0
H258 H 0.39046 0.98245 0.94685 0.0
C259 C 0.33865 0.92989 0.81974 0.0
C260 C 0.38892 0.9602 0.76503 0.0
C261 C 0.32458 0.91152 0.8055 0.0
C262 C 0.44978 0.03159 0.84983 0.0
C263 C 0.43698 0.01254 0.83245 0.0
C264 C 0.38998 0.97669 0.89564 0.0
C265 C 0.36142 0.92989 0.79866 0.0
C266 C 0.37617 0.94936 0.8149 0.0
C267 C 0.41563 0.00866 0.86193 0.0
C268 C 0.40234 0.988 0.84559 0.0
H269 H 0.36286 0.87834 0.72207 0.0
H270 H 0.38746 0.91088 0.74628 0.0
H271 H 0.36745 0.94937 0.9198 0.0
H272 H 0.41323 0.0551 0.96271 0.0
H273 H 0.39058 0.02233 0.93079 0.0
C274 C 0.43007 0.18875 0.02384 0.0
C275 C 0.42744 0.16613 0.00308 0.0
C276 C 0.41095 0.20237 0.03539 0.0
C277 C 0.35023 0.19658 0.07702 0.0
H278 H 0.34865 0.26146 0.04351 0.0
C279 C 0.28411 0.2552 0.19914 0.0
C280 C 0.27527 0.27327 0.16125 0.0
C281 C 0.30189 0.24193 0.17435 0.0
C282 C 0.34871 0.2433 0.05243 0.0
H283 H 0.40293 0.14049 0.97374 0.0
H284 H 0.36973 0.16436 -0.00792 0.0
H285 H 0.38129 0.23917 0.00612 0.0
H286 H 0.27769 0.29118 0.06674 0.0
H287 H 0.30844 0.2677 0.02306 0.0
H288 H 0.31755 0.20057 0.12231 0.0
C289 C 0.38644 0.1714 0.00161 0.0
C290 C 0.36753 0.2306 0.03174 0.0
C291 C 0.40547 0.15775 -0.00918 0.0
C292 C 0.28422 0.27746 0.0974 0.0
C293 C 0.30193 0.26411 0.07248 0.0
C294 C 0.3314 0.20923 0.09735 0.0
C295 C 0.38892 0.19365 0.02568 0.0
C296 C 0.36856 0.20712 0.04432 0.0
C297 C 0.3111 0.24635 0.11097 0.0
C298 C 0.33054 0.23276 0.08596 0.0
H299 H 0.44682 0.19564 0.03372 0.0
H300 H 0.41343 0.21939 0.05443 0.0
H301 H 0.3506 0.17858 0.08837 0.0
H302 H 0.27768 0.25159 0.24862 0.0
H303 H 0.30879 0.22857 0.20562 0.0
C304 C 0.92573 -0.00283 0.63525 0.0
C305 C 0.93593 0.99192 0.57371 0.0
C306 C 0.90589 0.98609 0.65546 0.0
C307 C 0.85582 0.95921 0.58699 0.0
H308 H 0.84943 0.92912 0.75814 0.0
C309 C 0.78523 0.89508 0.63651 0.0
C310 C 0.77566 0.89318 0.70047 0.0
C311 C 0.80344 0.90961 0.62486 0.0
C312 C 0.85075 0.93786 0.71075 0.0
H313 H 0.93367 0.97062 0.48581 0.0
H314 H 0.89875 0.95153 0.52081 0.0
H315 H 0.88479 0.949 0.73126 0.0
H316 H 0.77725 0.9057 0.80201 0.0
H317 H 0.80901 0.9316 0.78117 0.0
H318 H 0.82188 0.94844 0.56624 0.0
C319 C 0.9062 0.9642 0.55326 0.0
C320 C 0.87104 0.94907 0.69529 0.0
C321 C 0.92623 0.975 0.53351 0.0
C322 C 0.7843 0.90674 0.75221 0.0
C323 C 0.80256 0.92145 0.74037 0.0
C324 C 0.83548 0.94831 0.60271 0.0
C325 C 0.89575 0.96987 0.61397 0.0
C326 C 0.87388 0.95934 0.63265 0.0
C327 C 0.81249 0.92283 0.67665 0.0
C328 C 0.83291 0.93699 0.66404 0.0
H329 H 0.9329 0.01006 0.66744 0.0
H330 H 0.89809 0.99072 0.70247 0.0
H331 H 0.85749 0.96744 0.53888 0.0
H332 H 0.77908 0.88489 0.5954 0.0
H333 H 0.8109 0.90988 0.57549 0.0
C334 C 0.93356 0.11781 0.5352 0.0
C335 C 0.9369 0.10332 0.48041 0.0
C336 C 0.91865 0.13631 0.53026 0.0
C337 C 0.87057 0.15888 0.43311 0.0
H338 H 0.89482 0.21829 0.4769 0.0
C339 C 0.81777 0.24012 0.39758 0.0
C340 C 0.82872 0.25789 0.36333 0.0
C341 C 0.83017 0.22165 0.42171 0.0
C342 C 0.88784 0.20179 0.46463 0.0
H343 H 0.92652 0.09616 0.37879 0.0
H344 H 0.90041 0.12816 0.37059 0.0
H345 H 0.91711 0.18415 0.50229 0.0
H346 H 0.86145 0.27047 0.32944 0.0
H347 H 0.88313 0.23797 0.37129 0.0
H348 H 0.84167 0.1764 0.39352 0.0
C349 C 0.90933 0.12533 0.41716 0.0
C350 C 0.90045 0.18229 0.47978 0.0
C351 C 0.92439 0.10709 0.42175 0.0
C352 C 0.85249 0.25704 0.35538 0.0
C353 C 0.86492 0.23853 0.37977 0.0
C354 C 0.85791 0.17831 0.41842 0.0
C355 C 0.90659 0.14032 0.4709 0.0
C356 C 0.8921 0.1607 0.4629 0.0
C357 C 0.85382 0.22051 0.41232 0.0
C358 C 0.86659 0.19998 0.43296 0.0
H359 H 0.94303 0.11533 0.58097 0.0
H360 H 0.91671 0.1476 0.57248 0.0
H361 H 0.86371 0.14241 0.41993 0.0
H362 H 0.79951 0.24028 0.40516 0.0
H363 H 0.82122 0.20814 0.44736 0.0
C364 C 0.70147 0.27072 0.15246 0.0
C365 C 0.71431 0.26637 0.2102 0.0
C366 C 0.68277 0.25729 0.13671 0.0
C367 C 0.64158 0.2171 0.21047 0.0
H368 H 0.62895 0.20385 0.02474 0.0
C369 C 0.57301 0.15368 0.11989 0.0
C370 C 0.55867 0.16149 0.06854 0.0
C371 C 0.59175 0.16648 0.13984 0.0
C372 C 0.63221 0.20759 0.07674 0.0
H373 H 0.71776 0.24432 0.29637 0.0
H374 H 0.68533 0.22032 0.26774 0.0
H375 H 0.66307 0.22503 0.05402 0.0
H376 H 0.55253 0.18896 -0.00153 0.0
H377 H 0.5856 0.21119 0.0328 0.0
H378 H 0.61082 0.19907 0.23279 0.0
C379 C 0.68949 0.23448 0.23544 0.0
C380 C 0.65171 0.21974 0.09359 0.0
C381 C 0.70814 0.24813 0.25165 0.0
C382 C 0.56326 0.18251 0.03818 0.0
C383 C 0.58221 0.19516 0.05752 0.0
C384 C 0.6222 0.20467 0.19358 0.0
C385 C 0.67657 0.23896 0.17782 0.0
C386 C 0.65649 0.22489 0.16058 0.0
C387 C 0.59667 0.18717 0.10818 0.0
C388 C 0.61726 0.20004 0.12652 0.0
H389 H 0.7056 0.2848 0.1198 0.0
H390 H 0.67293 0.26156 0.09278 0.0
H391 H 0.64458 0.22103 0.26244 0.0
H392 H 0.56982 0.13759 0.1445 0.0
H393 H 0.60274 0.15994 0.17881 0.0
C394 C 0.64082 0.8948 0.79333 0.0
C395 C 0.66099 0.88976 0.82797 0.0
C396 C 0.62762 0.91352 0.8115 0.0
C397 C 0.61405 0.95272 0.94606 0.0
H398 H 0.60053 -0.00487 0.80316 0.0
C399 C 0.56927 0.03912 -0.00751 0.0
C400 C 0.55298 0.04568 0.94488 0.0
C401 C 0.58342 0.02038 0.98075 0.0
C402 C 0.60389 0.98334 0.84354 0.0
H403 H 0.68256 0.89963 0.91086 0.0
H404 H 0.65916 0.93218 0.94319 0.0
H405 H 0.62203 0.96069 0.77925 0.0
H406 H 0.53849 0.03755 0.84823 0.0
H407 H 0.56252 0.0048 0.82882 0.0
H408 H 0.59536 0.97504 0.01014 0.0
C409 C 0.65377 0.92173 0.90171 0.0
C410 C 0.61623 0.96367 0.82977 0.0
C411 C 0.66717 0.9032 0.88294 0.0
C412 C 0.55105 0.03315 0.88564 0.0
C413 C 0.56495 0.01439 0.87429 0.0
C414 C 0.60139 0.9723 0.95977 0.0
C415 C 0.63417 0.9273 0.86522 0.0
C416 C 0.62124 0.94812 0.88074 0.0
C417 C 0.58138 0.00781 0.92146 0.0
C418 C 0.59598 0.98772 0.90844 0.0
H419 H 0.63563 0.88475 0.75077 0.0
H420 H 0.61242 0.91744 0.78305 0.0
H421 H 0.61775 0.9409 -0.01389 0.0
H422 H 0.57117 0.04848 0.03858 0.0
H423 H 0.59607 0.01588 0.0178 0.0
C424 C 0.54631 0.62192 0.86179 0.0
C425 C 0.55405 0.60734 0.91253 0.0
C426 C 0.55911 0.64084 0.84306 0.0
C427 C 0.60482 0.67815 0.90672 0.0
H428 H 0.60779 0.69893 0.72328 0.0
C429 C 0.67031 0.74299 0.81485 0.0
C430 C 0.66189 0.76164 0.77847 0.0
C431 C 0.65627 0.72464 0.82965 0.0
C432 C 0.60688 0.69338 0.77473 0.0
H433 H 0.58169 0.6005 0.98137 0.0
H434 H 0.60444 0.63298 0.94707 0.0
H435 H 0.58567 0.66505 0.75082 0.0
H436 H 0.63227 0.77553 0.72807 0.0
H437 H 0.60771 0.74295 0.75317 0.0
H438 H 0.62663 0.7061 0.93004 0.0
C439 C 0.58812 0.63031 0.92324 0.0
C440 C 0.59422 0.67404 0.79062 0.0
C441 C 0.57518 0.61158 0.9426 0.0
C442 C 0.63918 0.76142 0.75639 0.0
C443 C 0.62519 0.74281 0.7704 0.0
C444 C 0.61768 0.69726 0.89067 0.0
C445 C 0.58005 0.6454 0.87412 0.0
C446 C 0.59319 0.66611 0.85679 0.0
C447 C 0.63362 0.7244 0.80768 0.0
C448 C 0.61894 0.70493 0.82456 0.0
H449 H 0.52999 0.61917 0.83798 0.0
H450 H 0.55224 0.65223 0.80562 0.0
H451 H 0.60393 0.67291 0.95842 0.0
H452 H 0.68771 0.74267 0.83278 0.0
H453 H 0.66318 0.71052 0.85798 0.0
C454 C 0.70636 0.37388 0.12433 0.0
C455 C 0.7213 0.38085 0.175 0.0
C456 C 0.68823 0.38774 0.10492 0.0
C457 C 0.65315 0.4354 0.1675 0.0
H458 H 0.6314 0.43772 0.98499 0.0
C459 C 0.58713 0.50044 0.0773 0.0
C460 C 0.56832 0.49175 0.04242 0.0
C461 C 0.60587 0.48668 0.09104 0.0
C462 C 0.63725 0.43704 0.03618 0.0
H463 H 0.72966 0.40824 0.24279 0.0
H464 H 0.69853 0.43283 0.20724 0.0
H465 H 0.66508 0.41504 0.0121 0.0
H466 H 0.55457 0.46195 -0.00656 0.0
H467 H 0.58777 0.43786 0.01682 0.0
H468 H 0.62562 0.45787 0.19103 0.0
C469 C 0.70033 0.41633 0.18402 0.0
C470 C 0.65648 0.42406 0.05182 0.0
C471 C 0.71827 0.40232 0.2041 0.0
C472 C 0.56879 0.46907 0.02062 0.0
C473 C 0.58777 0.45535 0.03363 0.0
C474 C 0.63416 0.44858 0.15167 0.0
C475 C 0.68481 0.40901 0.13515 0.0
C476 C 0.66467 0.42311 0.11773 0.0
C477 C 0.60633 0.46403 0.06953 0.0
C478 C 0.62608 0.44953 0.08594 0.0
H479 H 0.70817 0.35735 0.10121 0.0
H480 H 0.67648 0.38142 0.06778 0.0
H481 H 0.65859 0.43463 0.21902 0.0
H482 H 0.5873 0.51783 0.09494 0.0
H483 H 0.62009 0.49378 0.11833 0.0
C484 C 0.95294 0.52868 0.35401 0.0
C485 C 0.94362 0.54557 0.39542 0.0
C486 C 0.94059 0.50903 0.33964 0.0
C487 C 0.89415 0.47468 0.40974 0.0
H488 H 0.89344 0.44549 0.23655 0.0
C489 C 0.82909 0.40675 0.34125 0.0
C490 C 0.83685 0.38712 0.30846 0.0
C491 C 0.84356 0.42513 0.35096 0.0
C492 C 0.89377 0.45334 0.28534 0.0
H493 H 0.91354 0.55577 0.45076 0.0
H494 H 0.89187 0.52179 0.42448 0.0
H495 H 0.91536 0.48041 0.25224 0.0
H496 H 0.86589 0.3714 0.25989 0.0
H497 H 0.89129 0.40389 0.2767 0.0
H498 H 0.87228 0.44793 0.44255 0.0
C499 C 0.90896 0.52341 0.40471 0.0
C500 C 0.90625 0.4733 0.29431 0.0
C501 C 0.92132 0.54295 0.41938 0.0
C502 C 0.85946 0.38627 0.28553 0.0
C503 C 0.87394 0.40486 0.29476 0.0
C504 C 0.88164 0.45487 0.40068 0.0
C505 C 0.91867 0.50598 0.36616 0.0
C506 C 0.90625 0.48436 0.35639 0.0
C507 C 0.86608 0.42439 0.32781 0.0
C508 C 0.88105 0.4442 0.33822 0.0
H509 H 0.97011 0.53019 0.33482 0.0
H510 H 0.94856 0.49586 0.30998 0.0
H511 H 0.89432 0.48244 0.45865 0.0
H512 H 0.81179 0.40797 0.35961 0.0
H513 H 0.837 0.4401 0.37587 0.0
C514 C 0.78263 0.75616 0.66306 0.0
C515 C 0.77946 0.77856 0.64082 0.0
C516 C 0.80169 0.74377 0.64316 0.0
C517 C 0.84857 0.74178 0.51999 0.0
H518 H 0.87617 0.70335 0.65509 0.0
C519 C 0.93398 0.69075 0.49301 0.0
C520 C 0.93136 0.66756 0.50832 0.0
C521 C 0.91623 0.70609 0.50547 0.0
C522 C 0.86864 0.71407 0.61701 0.0
H523 H 0.79345 0.80542 0.57895 0.0
H524 H 0.82708 0.78393 0.54544 0.0
H525 H 0.84338 0.72671 0.68378 0.0
H526 H 0.90798 0.64227 0.54768 0.0
H527 H 0.87745 0.66902 0.57009 0.0
H528 H 0.87426 0.72903 0.45356 0.0
C529 C 0.81464 0.77581 0.57739 0.0
C530 C 0.84977 0.72729 0.63316 0.0
C531 C 0.79541 0.78814 0.59675 0.0
C532 C 0.91062 0.66 0.53526 0.0
C533 C 0.89314 0.67529 0.54844 0.0
C534 C 0.86769 0.72868 0.50402 0.0
C535 C 0.81816 0.75362 0.60131 0.0
C536 C 0.83917 0.74087 0.58449 0.0
C537 C 0.89587 0.69845 0.53436 0.0
C538 C 0.8775 0.71437 0.55214 0.0
H539 H 0.77049 0.74823 0.6964 0.0
H540 H 0.80358 0.72649 0.66105 0.0
H541 H 0.84073 0.75201 0.48134 0.0
H542 H 0.94974 0.69704 0.47197 0.0
H543 H 0.91861 0.72395 0.49428 0.0
C544 C 0.29408 0.39525 0.27593 0.0
C545 C 0.28111 0.38662 0.22291 0.0
C546 C 0.31371 0.40795 0.26324 0.0
C547 C 0.34792 0.44408 0.22067 0.0
H548 H 0.38549 0.42541 0.07131 0.0
C549 C 0.4164 0.50197 0.10789 0.0
C550 C 0.43671 0.49214 0.08445 0.0
C551 C 0.39852 0.48835 0.12982 0.0
C552 C 0.3754 0.43068 0.11376 0.0
H553 H 0.27789 0.38543 0.11515 0.0
H554 H 0.31163 0.40796 0.09323 0.0
H555 H 0.35216 0.40317 0.10098 0.0
H556 H 0.45431 0.46026 0.0667 0.0
H557 H 0.42311 0.43641 0.106 0.0
H558 H 0.37143 0.47139 0.23409 0.0
C559 C 0.30712 0.40438 0.14453 0.0
C560 C 0.35608 0.41813 0.13017 0.0
C561 C 0.28766 0.39161 0.15715 0.0
C562 C 0.43883 0.46835 0.08404 0.0
C563 C 0.42093 0.4547 0.10638 0.0
C564 C 0.36732 0.45659 0.20445 0.0
C565 C 0.32062 0.41233 0.19732 0.0
C566 C 0.3419 0.42492 0.18302 0.0
C567 C 0.40055 0.46457 0.12926 0.0
C568 C 0.38106 0.45024 0.15011 0.0
H569 H 0.2895 0.39161 0.32714 0.0
H570 H 0.32382 0.41376 0.30498 0.0
H571 H 0.33731 0.4498 0.26153 0.0
H572 H 0.41413 0.52024 0.10867 0.0
H573 H 0.38291 0.4965 0.14589 0.0
C574 C 0.44606 0.62382 0.89983 0.0
C575 C 0.44249 0.61025 0.95662 0.0
C576 C 0.43293 0.64321 0.88898 0.0
C577 C 0.37819 0.66894 0.92433 0.0
H578 H 0.40841 0.72528 0.87702 0.0
C579 C 0.32742 0.75108 0.87827 0.0
C580 C 0.33427 0.76464 0.82419 0.0
C581 C 0.34115 0.73329 0.90066 0.0
C582 C 0.39969 0.70964 0.8895 0.0
H583 H 0.42208 0.60616 0.04598 0.0
H584 H 0.39873 0.64004 0.02605 0.0
H585 H 0.43107 0.6917 0.90385 0.0
H586 H 0.36105 0.77045 0.75177 0.0
H587 H 0.38476 0.73893 0.78945 0.0
H588 H 0.34682 0.68647 0.90766 0.0
C589 C 0.41186 0.63561 -0.00958 0.0
C590 C 0.41267 0.69048 0.90512 0.0
C591 C 0.42523 0.61629 0.00182 0.0
C592 C 0.35537 0.76035 0.79376 0.0
C593 C 0.369 0.74235 0.81565 0.0
C594 C 0.36518 0.68803 0.90796 0.0
C595 C 0.41579 0.64932 0.93424 0.0
C596 C 0.40202 0.66993 0.92203 0.0
C597 C 0.36194 0.72847 0.86895 0.0
C598 C 0.37579 0.70856 0.88976 0.0
H599 H 0.45926 0.6197 0.86409 0.0
H600 H 0.43607 0.65337 0.84484 0.0
H601 H 0.36961 0.6532 0.93658 0.0
H602 H 0.31136 0.75415 0.90329 0.0
H603 H 0.33542 0.72325 0.94271 0.0
C604 C 0.20722 0.7624 0.62978 0.0
C605 C 0.21847 0.76244 0.69158 0.0
C606 C 0.18885 0.74803 0.61865 0.0
C607 C 0.14453 0.71579 0.70696 0.0
H608 H 0.13459 0.69065 0.53072 0.0
C609 C 0.07124 0.65414 0.63546 0.0
C610 C 0.05923 0.66002 0.57724 0.0
C611 C 0.09077 0.66609 0.6537 0.0
C612 C 0.13714 0.69766 0.58005 0.0
H613 H 0.21961 0.74692 0.78972 0.0
H614 H 0.18763 0.72129 0.76961 0.0
H615 H 0.16991 0.71064 0.55458 0.0
H616 H 0.0579 0.68335 0.49344 0.0
H617 H 0.09226 0.704 0.52495 0.0
H618 H 0.11171 0.70237 0.73221 0.0
C619 C 0.19286 0.73277 0.73025 0.0
C620 C 0.15732 0.70912 0.59377 0.0
C621 C 0.21125 0.74733 0.74162 0.0
C622 C 0.06677 0.67845 0.53859 0.0
C623 C 0.08648 0.69016 0.55631 0.0
C624 C 0.12443 0.70402 0.6934 0.0
C625 C 0.18135 0.73313 0.66875 0.0
C626 C 0.16104 0.71877 0.65691 0.0
C627 C 0.09878 0.68387 0.61348 0.0
C628 C 0.12041 0.6953 0.62942 0.0
H629 H 0.21221 0.77388 0.59015 0.0
H630 H 0.18013 0.74912 0.57119 0.0
H631 H 0.14676 0.72321 0.75587 0.0
H632 H 0.06576 0.64008 0.66644 0.0
H633 H 0.10002 0.66095 0.69795 0.0
C634 C 0.1733 0.40452 0.41239 0.0
C635 C 0.16509 0.39062 0.36082 0.0
C636 C 0.15985 0.42205 0.43792 0.0
C637 C 0.1004 0.44363 0.44133 0.0
H638 H 0.12921 0.50201 0.47139 0.0
C639 C 0.05315 0.52803 0.42358 0.0
C640 C 0.05528 0.54336 0.47681 0.0
C641 C 0.06674 0.50868 0.42068 0.0
C642 C 0.12105 0.4857 0.46427 0.0
H643 H 0.13634 0.38409 0.29584 0.0
H644 H 0.11318 0.41504 0.33881 0.0
H645 H 0.15266 0.46889 0.44484 0.0
H646 H 0.0736 0.5507 0.56814 0.0
H647 H 0.09807 0.51683 0.56169 0.0
H648 H 0.06871 0.46086 0.45705 0.0
C649 C 0.12975 0.41208 0.36085 0.0
C650 C 0.13441 0.46672 0.4492 0.0
C651 C 0.1431 0.39443 0.33579 0.0
C652 C 0.0716 0.53913 0.52662 0.0
C653 C 0.08555 0.51986 0.523 0.0
C654 C 0.08707 0.46263 0.45554 0.0
C655 C 0.138 0.42615 0.41203 0.0
C656 C 0.12417 0.44561 0.4359 0.0
C657 C 0.08296 0.50439 0.47037 0.0
C658 C 0.09727 0.48388 0.46553 0.0
H659 H 0.19011 0.40186 0.43321 0.0
H660 H 0.16658 0.43237 0.47794 0.0
H661 H 0.09202 0.42751 0.43302 0.0
H662 H 0.04066 0.53072 0.3846 0.0
H663 H 0.06469 0.4971 0.37917 0.0
C664 C 0.01846 0.06354 0.76442 0.0
C665 C 0.0295 0.05052 0.71579 0.0
C666 C 0.02198 0.05893 0.83162 0.0
C667 C 0.02913 0.01031 0.93439 0.0
H668 H 0.02777 0.05558 0.07446 0.0
C669 C 0.00762 -0.0001 0.22141 0.0
C670 C 0.99148 0.01625 0.24128 0.0
C671 C 0.0159 -4e-05 0.15603 0.0
C672 C 0.02838 0.04273 0.03587 0.0
H673 H 0.05399 0.02354 0.69826 0.0
H674 H 0.05969 0.01501 0.81678 0.0
H675 H 0.04084 0.06625 0.9633 0.0
H676 H 0.96907 0.0432 0.20742 0.0
H677 H 0.98326 0.04303 0.09338 0.0
H678 H 0.01539 0.98714 0.00681 0.0
C679 C 0.04857 0.02893 0.80265 0.0
C680 C 0.03596 0.04878 0.97268 0.0
C681 C 0.0454 0.03389 0.73517 0.0
C682 C 0.98169 0.03062 0.19335 0.0
C683 C 0.9899 0.03064 0.12844 0.0
C684 C 0.02158 0.00421 -0.00198 0.0
C685 C 0.03629 0.04095 0.85116 0.0
C686 C 0.0353 0.03294 0.92067 0.0
C687 C 0.00798 0.01628 0.11059 0.0
C688 C 0.02011 0.02074 0.04796 0.0
H689 H 0.00615 0.07645 0.75045 0.0
H690 H 0.01211 0.0683 0.86806 0.0
H691 H 0.02833 -0.00216 0.8948 0.0
H692 H 0.01547 0.98869 0.25767 0.0
H693 H 0.02974 0.98863 0.1427 0.0
C694 C 0.30656 0.79808 0.45739 0.0
C695 C 0.31375 0.8159 0.49842 0.0
C696 C 0.30398 0.80168 0.38931 0.0
C697 C 0.30998 0.84066 0.24801 0.0
H698 H 0.24634 0.82535 0.22085 0.0
C699 C 0.26605 0.85937 -0.00016 0.0
C700 C 0.25704 0.83942 0.97196 0.0
C701 C 0.27104 0.86027 0.06777 0.0
C702 C 0.26408 0.82976 0.22774 0.0
H703 H 0.32688 0.85022 0.50097 0.0
H704 H 0.32224 0.85663 0.38117 0.0
H705 H 0.2645 0.8166 0.32686 0.0
H706 H 0.24354 0.80597 -0.00613 0.0
H707 H 0.25201 0.80758 0.11212 0.0
H708 H 0.30964 0.85328 0.14788 0.0
C709 C 0.3187 0.83993 0.40142 0.0
C710 C 0.27454 0.82458 0.28802 0.0
C711 C 0.32151 0.83622 0.46974 0.0
C712 C 0.25067 0.82147 0.01406 0.0
C713 C 0.25547 0.82244 0.08186 0.0
C714 C 0.29952 0.84573 0.18721 0.0
C715 C 0.30828 0.82323 0.36201 0.0
C716 C 0.2977 0.82943 0.298 0.0
C717 C 0.26678 0.84136 0.10862 0.0
C718 C 0.2766 0.83982 0.17614 0.0
H719 H 0.30047 0.78232 0.4789 0.0
H720 H 0.29638 0.78841 0.35931 0.0
H721 H 0.32777 0.84481 0.25517 0.0
H722 H 0.27108 0.87351 0.9685 0.0
H723 H 0.2794 0.87519 0.08759 0.0
C724 C 0.48724 0.16006 0.72835 0.0
C725 C 0.5041 0.14496 0.75091 0.0
C726 C 0.48435 0.16368 0.66003 0.0
C727 C 0.50893 0.15161 0.49411 0.0
H728 H 0.44982 0.12549 0.45444 0.0
C729 C 0.49777 0.09498 0.27089 0.0
C730 C 0.47983 0.10015 0.22717 0.0
C731 C 0.49833 0.10452 0.3342 0.0
C732 C 0.4662 0.13318 0.46448 0.0
H733 H 0.53269 0.12387 0.72238 0.0
H734 H 0.52816 0.13062 0.60355 0.0
H735 H 0.45724 0.14096 0.5652 0.0
H736 H 0.44712 0.1172 0.21803 0.0
H737 H 0.44807 0.13367 0.32961 0.0
H738 H 0.51832 0.14267 0.39469 0.0
C739 C 0.51703 0.13954 0.63777 0.0
C740 C 0.47039 0.14224 0.52752 0.0
C741 C 0.51957 0.13555 0.70563 0.0
C742 C 0.46121 0.11294 0.25061 0.0
C743 C 0.46181 0.12254 0.3142 0.0
C744 C 0.50474 0.14258 0.43128 0.0
C745 C 0.49865 0.15261 0.61426 0.0
C746 C 0.49216 0.15047 0.5437 0.0
C747 C 0.48096 0.11934 0.3549 0.0
C748 C 0.48374 0.13226 0.41718 0.0
H749 H 0.47507 0.16737 0.76285 0.0
H750 H 0.47009 0.17381 0.64282 0.0
H751 H 0.52576 0.15804 0.50542 0.0
H752 H 0.51218 0.0849 0.25453 0.0
H753 H 0.51292 0.10118 0.36583 0.0
C754 C 0.17241 0.32102 0.0025 0.0
C755 C 0.18191 0.34054 0.03121 0.0
C756 C 0.17469 0.31728 0.93405 0.0
C757 C 0.21976 0.32912 0.82011 0.0
H758 H 0.18224 0.3036 0.68038 0.0
C759 C 0.24442 0.32949 0.54635 0.0
C760 C 0.23651 0.31213 0.50456 0.0
C761 C 0.23926 0.32919 0.61399 0.0
C762 C 0.19299 0.31024 0.71957 0.0
H763 H 0.19786 0.37296 0.01167 0.0
H764 H 0.20108 0.36688 0.8919 0.0
H765 H 0.16496 0.31356 0.7877 0.0
H766 H 0.21915 0.27962 0.50158 0.0
H767 H 0.21024 0.27906 0.62047 0.0
H768 H 0.24777 0.32588 0.75292 0.0
C769 C 0.19248 0.35421 0.92196 0.0
C770 C 0.18304 0.31617 0.7804 0.0
C771 C 0.19042 0.35781 -0.00985 0.0
C772 C 0.22543 0.29326 0.53269 0.0
C773 C 0.22009 0.29305 0.60049 0.0
C774 C 0.2297 0.32306 0.75984 0.0
C775 C 0.18634 0.33317 0.89453 0.0
C776 C 0.19627 0.32626 0.83029 0.0
C777 C 0.22606 0.31154 0.64095 0.0
C778 C 0.21634 0.31411 0.70838 0.0
H779 H 0.166 0.30741 0.03372 0.0
H780 H 0.16972 0.30099 0.91372 0.0
H781 H 0.23047 0.33617 0.85885 0.0
H782 H 0.25314 0.34415 0.52596 0.0
H783 H 0.24407 0.34371 0.6439 0.0
C784 C 0.80953 0.29183 0.00177 0.0
C785 C 0.81572 0.31107 0.03844 0.0
C786 C 0.8077 0.29321 0.93274 0.0
C787 C 0.81325 0.32999 0.78437 0.0
H788 H 0.75064 0.31134 0.75538 0.0
C789 C 0.76727 0.35189 0.54166 0.0
C790 C 0.75801 0.3327 0.51017 0.0
C791 C 0.77314 0.35098 0.60898 0.0
C792 C 0.76815 0.31653 0.76257 0.0
H793 H 0.82759 0.34578 0.03312 0.0
H794 H 0.82426 0.34834 0.91198 0.0
H795 H 0.769 0.30309 0.86126 0.0
H796 H 0.7449 0.29867 0.526 0.0
H797 H 0.75506 0.2971 0.64306 0.0
H798 H 0.81235 0.34333 0.68513 0.0
C799 C 0.82104 0.33216 0.93604 0.0
C800 C 0.77876 0.31162 0.82285 0.0
C801 C 0.82309 0.33068 0.00523 0.0
C802 C 0.75226 0.31363 0.54877 0.0
C803 C 0.75806 0.31275 0.61596 0.0
C804 C 0.80265 0.3348 0.72365 0.0
C805 C 0.81165 0.31398 0.90017 0.0
C806 C 0.80146 0.31809 0.83408 0.0
C807 C 0.76962 0.33097 0.64572 0.0
C808 C 0.78003 0.32797 0.71213 0.0
H809 H 0.80362 0.27663 0.02691 0.0
H810 H 0.80088 0.27882 0.90575 0.0
H811 H 0.83068 0.33533 0.79222 0.0
H812 H 0.77176 0.36692 0.51331 0.0
H813 H 0.78154 0.36546 0.63132 0.0
C814 C 0.69007 0.85429 0.46242 0.0
C815 C 0.68261 0.83688 0.5047 0.0
C816 C 0.69275 0.85013 0.39472 0.0
C817 C 0.68629 0.81086 0.25555 0.0
H818 H 0.75025 0.82487 0.22853 0.0
C819 C 0.72939 0.79314 0.00597 0.0
C820 C 0.73834 0.81331 0.979 0.0
C821 C 0.72472 0.79168 0.07402 0.0
C822 C 0.73243 0.82078 0.23546 0.0
H823 H 0.66914 0.80271 0.50975 0.0
H824 H 0.67393 0.79533 0.39048 0.0
H825 H 0.73228 0.83366 0.33476 0.0
H826 H 0.75207 0.8465 0.00238 0.0
H827 H 0.74419 0.84389 0.12088 0.0
H828 H 0.68632 0.79865 0.15514 0.0
C829 C 0.67762 0.81213 0.40955 0.0
C830 C 0.7221 0.82598 0.29583 0.0
C831 C 0.67472 0.8164 0.47752 0.0
C832 C 0.74498 0.83086 0.0219 0.0
C833 C 0.74052 0.82931 0.08982 0.0
C834 C 0.69663 0.80577 0.19465 0.0
C835 C 0.68826 0.82843 0.36906 0.0
C836 C 0.69881 0.82171 0.3056 0.0
C837 C 0.72927 0.8102 0.11583 0.0
C838 C 0.71965 0.81127 0.18362 0.0
H839 H 0.69626 0.87017 0.48279 0.0
H840 H 0.70055 0.86308 0.3638 0.0
H841 H 0.66839 0.80717 0.26261 0.0
H842 H 0.72416 0.77929 0.97397 0.0
H843 H 0.71635 0.77664 0.09324 0.0
C844 C 0.50835 0.49555 0.74703 0.0
C845 C 0.49063 0.50912 0.77194 0.0
C846 C 0.51067 0.4926 0.6783 0.0
C847 C 0.48395 0.50451 0.5149 0.0
H848 H 0.54053 0.53576 0.4755 0.0
C849 C 0.49068 0.56129 0.28828 0.0
C850 C 0.50979 0.55837 0.24716 0.0
C851 C 0.49036 0.55189 0.35197 0.0
C852 C 0.52486 0.52668 0.48534 0.0
H853 H 0.46003 0.52787 0.74745 0.0
H854 H 0.46361 0.52222 0.62789 0.0
H855 H 0.53484 0.51879 0.58515 0.0
H856 H 0.54447 0.54553 0.24295 0.0
H857 H 0.54387 0.52919 0.35457 0.0
H858 H 0.47356 0.51325 0.41609 0.0
C859 C 0.47583 0.514 0.66052 0.0
C860 C 0.52168 0.51676 0.54781 0.0
C861 C 0.47381 0.51736 0.7288 0.0
C862 C 0.52947 0.54805 0.27349 0.0
C863 C 0.52909 0.53852 0.33722 0.0
C864 C 0.48715 0.51434 0.45244 0.0
C865 C 0.49502 0.50281 0.63454 0.0
C866 C 0.5008 0.50649 0.56397 0.0
C867 C 0.50912 0.53939 0.37552 0.0
C868 C 0.50721 0.52641 0.43825 0.0
H869 H 0.52155 0.48918 0.77988 0.0
H870 H 0.52556 0.48388 0.65917 0.0
H871 H 0.46778 0.49656 0.52623 0.0
H872 H 0.47538 0.56942 0.26961 0.0
H873 H 0.47503 0.55352 0.38162 0.0
C874 C 0.95389 0.60472 0.75072 0.0
C875 C 0.97239 0.5918 0.72746 0.0
C876 C 0.95158 0.6091 0.81871 0.0
C877 C 0.97347 0.59379 0.98495 0.0
H878 H 0.979 0.65891 0.01242 0.0
C879 C 0.02066 0.62464 0.20618 0.0
C880 C 0.00696 0.63665 0.25121 0.0
C881 C 0.01425 0.6231 0.13973 0.0
C882 C 0.97718 0.64076 0.00539 0.0
H883 H 0.00138 0.57119 0.75626 0.0
H884 H -0.00288 0.57836 0.87486 0.0
H885 H 0.96669 0.64439 0.90373 0.0
H886 H 0.97788 0.65912 0.26155 0.0
H887 H 0.9666 0.65635 0.1443 0.0
H888 H 0.98502 0.59006 0.08521 0.0
C889 C 0.98454 0.58534 0.84101 0.0
C890 C 0.96993 0.63244 0.94379 0.0
C891 C 0.98706 0.5813 0.77319 0.0
C892 C 0.9887 0.64981 0.22736 0.0
C893 C 0.98215 0.64811 0.1606 0.0
C894 C 0.98077 0.60206 0.04607 0.0
C895 C 0.96748 0.60017 0.86392 0.0
C896 C 0.96893 0.60886 0.93248 0.0
C897 C 0.99403 0.63343 0.11792 0.0
C898 C 0.9836 0.62552 0.0557 0.0
H899 H 0.94238 0.61305 0.71617 0.0
H900 H 0.93824 0.62047 0.83552 0.0
H901 H 0.97257 0.57558 0.9775 0.0
H902 H 0.03491 0.61453 0.22368 0.0
H903 H 0.0239 0.61209 0.10685 0.0
loop_
_geom_bond_atom_site_label_1
_geom_bond_atom_site_label_2
_geom_bond_distance
_geom_bond_site_symmetry_2
_ccdc_geom_bond_type
O0 Zn1 1.953 1_455 S
O0 C16 1.225 . S
Zn1 O0 1.953 1_655 S
Zn1 O2 1.949 1_655 S
Zn1 O8 1.919 . S
Zn1 O13 1.924 1_655 S
O2 Zn1 1.949 1_455 S
O2 Zn3 1.923 1_455 S
O2 Zn4 1.950 . S
O2 Zn5 1.945 1_455 S
Zn3 O2 1.923 1_655 S
Zn3 O6 1.933 . S
Zn3 O9 1.941 . S
Zn3 O10 1.965 . S
Zn4 O2 1.950 . S
Zn4 O11 1.938 . S
Zn4 O12 1.906 . S
Zn4 O22 1.953 . S
Zn5 O2 1.945 1_655 S
Zn5 O7 1.932 . S
Zn5 O14 1.977 1_655 S
Zn5 O15 1.910 1_655 S
O6 Zn3 1.933 . S
O6 C17 1.226 . S
O7 Zn5 1.932 . S
O7 C17 1.307 . S
O8 Zn1 1.919 . S
O8 C19 1.253 . S
O9 Zn3 1.941 . S
O9 C19 1.283 . S
O10 Zn3 1.965 . S
O10 C18 1.303 1_655 S
O11 Zn4 1.938 . S
O11 C18 1.247 . S
O12 Zn4 1.906 . S
O12 C20 1.304 . S
O13 Zn1 1.924 1_455 S
O13 C21 1.311 . S
O14 Zn5 1.977 1_455 S
O14 C20 1.272 . S
O15 Zn5 1.910 1_455 S
O15 C21 1.231 . S
C16 O0 1.225 . S
C16 O22 1.298 . S
C17 O6 1.226 . S
C17 O7 1.307 . S
C18 O10 1.303 1_455 S
C18 O11 1.247 . S
C19 O8 1.253 . S
C19 O9 1.283 . S
C20 O12 1.304 . S
C20 O14 1.272 . S
C21 O13 1.311 . S
C21 O15 1.231 . S
O22 Zn4 1.953 . S
O22 C16 1.298 . S
O23 Zn24 1.953 . S
O23 C39 1.225 . S
Zn24 O23 1.953 . S
Zn24 O25 1.949 . S
Zn24 O31 1.919 . S
Zn24 O36 1.924 . S
O25 Zn24 1.949 . S
O25 Zn26 1.923 . S
O25 Zn27 1.950 . S
O25 Zn28 1.945 . S
Zn26 O25 1.923 . S
Zn26 O29 1.933 . S
Zn26 O32 1.941 . S
Zn26 O33 1.965 . S
Zn27 O25 1.950 . S
Zn27 O34 1.938 . S
Zn27 O35 1.906 . S
Zn27 O45 1.953 . S
Zn28 O25 1.945 . S
Zn28 O30 1.932 . S
Zn28 O37 1.977 . S
Zn28 O38 1.910 . S
O29 Zn26 1.933 . S
O29 C40 1.226 . S
O30 Zn28 1.932 . S
O30 C40 1.307 . S
O31 Zn24 1.919 . S
O31 C42 1.253 . S
O32 Zn26 1.941 . S
O32 C42 1.283 . S
O33 Zn26 1.965 . S
O33 C41 1.303 . S
O34 Zn27 1.938 . S
O34 C41 1.247 . S
O35 Zn27 1.906 . S
O35 C43 1.304 . S
O36 Zn24 1.924 . S
O36 C44 1.311 . S
O37 Zn28 1.977 . S
O37 C43 1.272 . S
O38 Zn28 1.910 . S
O38 C44 1.231 . S
C39 O23 1.225 . S
C39 O45 1.298 . S
C40 O29 1.226 . S
C40 O30 1.307 . S
C41 O33 1.303 . S
C41 O34 1.247 . S
C42 O31 1.253 . S
C42 O32 1.283 . S
C43 O35 1.304 . S
C43 O37 1.272 . S
C44 O36 1.311 . S
C44 O38 1.231 . S
O45 Zn27 1.953 . S
O45 C39 1.298 . S
O46 Zn47 1.953 1_554 S
O46 C62 1.225 . S
Zn47 O46 1.953 1_556 S
Zn47 O48 1.949 1_556 S
Zn47 O54 1.919 1_556 S
Zn47 O59 1.924 . S
O48 Zn47 1.949 1_554 S
O48 Zn49 1.923 . S
O48 Zn50 1.950 . S
O48 Zn51 1.945 1_554 S
Zn49 O48 1.923 . S
Zn49 O52 1.933 . S
Zn49 O55 1.941 . S
Zn49 O56 1.965 . S
Zn50 O48 1.950 . S
Zn50 O57 1.938 . S
Zn50 O58 1.906 . S
Zn50 O68 1.953 . S
Zn51 O48 1.945 1_556 S
Zn51 O53 1.932 . S
Zn51 O60 1.977 . S
Zn51 O61 1.910 . S
O52 Zn49 1.933 . S
O52 C63 1.226 1_554 S
O53 Zn51 1.932 . S
O53 C63 1.307 . S
O54 Zn47 1.919 1_554 S
O54 C65 1.253 . S
O55 Zn49 1.941 . S
O55 C65 1.283 . S
O56 Zn49 1.965 . S
O56 C64 1.303 . S
O57 Zn50 1.938 . S
O57 C64 1.247 . S
O58 Zn50 1.906 . S
O58 C66 1.304 1_554 S
O59 Zn47 1.924 . S
O59 C67 1.311 . S
O60 Zn51 1.977 . S
O60 C66 1.272 . S
O61 Zn51 1.910 . S
O61 C67 1.231 . S
C62 O46 1.225 . S
C62 O68 1.298 . S
C63 O52 1.226 1_556 S
C63 O53 1.307 . S
C64 O56 1.303 . S
C64 O57 1.247 . S
C65 O54 1.253 . S
C65 O55 1.283 . S
C66 O58 1.304 1_556 S
C66 O60 1.272 . S
C67 O59 1.311 . S
C67 O61 1.231 . S
O68 Zn50 1.953 . S
O68 C62 1.298 . S
O69 Zn70 1.953 . S
O69 C85 1.225 . S
Zn70 O69 1.953 . S
Zn70 O71 1.949 . S
Zn70 O77 1.919 . S
Zn70 O82 1.924 . S
O71 Zn70 1.949 . S
O71 Zn72 1.923 . S
O71 Zn73 1.950 . S
O71 Zn74 1.945 . S
Zn72 O71 1.923 . S
Zn72 O75 1.933 . S
Zn72 O78 1.941 . S
Zn72 O79 1.965 . S
Zn73 O71 1.950 . S
Zn73 O80 1.938 . S
Zn73 O81 1.906 . S
Zn73 O91 1.953 . S
Zn74 O71 1.945 . S
Zn74 O76 1.932 . S
Zn74 O83 1.977 . S
Zn74 O84 1.910 . S
O75 Zn72 1.933 . S
O75 C86 1.226 . S
O76 Zn74 1.932 . S
O76 C86 1.307 . S
O77 Zn70 1.919 . S
O77 C88 1.253 . S
O78 Zn72 1.941 . S
O78 C88 1.283 . S
O79 Zn72 1.965 . S
O79 C87 1.303 . S
O80 Zn73 1.938 . S
O80 C87 1.247 . S
O81 Zn73 1.906 . S
O81 C89 1.304 . S
O82 Zn70 1.924 . S
O82 C90 1.311 . S
O83 Zn74 1.977 . S
O83 C89 1.272 . S
O84 Zn74 1.910 . S
O84 C90 1.231 . S
C85 O69 1.225 . S
C85 O91 1.298 . S
C86 O75 1.226 . S
C86 O76 1.307 . S
C87 O79 1.303 . S
C87 O80 1.247 . S
C88 O77 1.253 . S
C88 O78 1.283 . S
C89 O81 1.304 . S
C89 O83 1.272 . S
C90 O82 1.311 . S
C90 O84 1.231 . S
O91 Zn73 1.953 . S
O91 C85 1.298 . S
O92 Zn93 1.953 . S
O92 C108 1.225 . S
Zn93 O92 1.953 . S
Zn93 O94 1.949 . S
Zn93 O100 1.919 . S
Zn93 O105 1.924 . S
O94 Zn93 1.949 . S
O94 Zn95 1.923 . S
O94 Zn96 1.950 . S
O94 Zn97 1.945 . S
Zn95 O94 1.923 . S
Zn95 O98 1.933 . S
Zn95 O101 1.941 . S
Zn95 O102 1.965 . S
Zn96 O94 1.950 . S
Zn96 O103 1.938 . S
Zn96 O104 1.906 . S
Zn96 O114 1.953 . S
Zn97 O94 1.945 . S
Zn97 O99 1.932 . S
Zn97 O106 1.977 . S
Zn97 O107 1.910 . S
O98 Zn95 1.933 . S
O98 C109 1.226 . S
O99 Zn97 1.932 . S
O99 C109 1.307 . S
O100 Zn93 1.919 . S
O100 C111 1.253 . S
O101 Zn95 1.941 . S
O101 C111 1.283 . S
O102 Zn95 1.965 . S
O102 C110 1.303 . S
O103 Zn96 1.938 . S
O103 C110 1.247 . S
O104 Zn96 1.906 . S
O104 C112 1.304 . S
O105 Zn93 1.924 . S
O105 C113 1.311 . S
O106 Zn97 1.977 . S
O106 C112 1.272 . S
O107 Zn97 1.910 . S
O107 C113 1.231 . S
C108 O92 1.225 . S
C108 O114 1.298 . S
C109 O98 1.226 . S
C109 O99 1.307 . S
C110 O102 1.303 . S
C110 O103 1.247 . S
C111 O100 1.253 . S
C111 O101 1.283 . S
C112 O104 1.304 . S
C112 O106 1.272 . S
C113 O105 1.311 . S
C113 O107 1.231 . S
O114 Zn96 1.953 . S
O114 C108 1.298 . S
O115 Zn116 1.953 . S
O115 C131 1.225 . S
Zn116 O115 1.953 . S
Zn116 O117 1.949 . S
Zn116 O123 1.919 . S
Zn116 O128 1.924 . S
O117 Zn116 1.949 . S
O117 Zn118 1.923 . S
O117 Zn119 1.950 . S
O117 Zn120 1.945 . S
Zn118 O117 1.923 . S
Zn118 O121 1.933 . S
Zn118 O124 1.941 . S
Zn118 O125 1.965 . S
Zn119 O117 1.950 . S
Zn119 O126 1.938 . S
Zn119 O127 1.906 . S
Zn119 O137 1.953 . S
Zn120 O117 1.945 . S
Zn120 O122 1.932 . S
Zn120 O129 1.977 . S
Zn120 O130 1.910 . S
O121 Zn118 1.933 . S
O121 C132 1.226 . S
O122 Zn120 1.932 . S
O122 C132 1.307 . S
O123 Zn116 1.919 . S
O123 C134 1.253 . S
O124 Zn118 1.941 . S
O124 C134 1.283 . S
O125 Zn118 1.965 . S
O125 C133 1.303 . S
O126 Zn119 1.938 . S
O126 C133 1.247 . S
O127 Zn119 1.906 . S
O127 C135 1.304 . S
O128 Zn116 1.924 . S
O128 C136 1.311 . S
O129 Zn120 1.977 . S
O129 C135 1.272 . S
O130 Zn120 1.910 . S
O130 C136 1.231 . S
C131 O115 1.225 . S
C131 O137 1.298 . S
C132 O121 1.226 . S
C132 O122 1.307 . S
C133 O125 1.303 . S
C133 O126 1.247 . S
C134 O123 1.253 . S
C134 O124 1.283 . S
C135 O127 1.304 . S
C135 O129 1.272 . S
C136 O128 1.311 . S
C136 O130 1.231 . S
O137 Zn119 1.953 . S
O137 C131 1.298 . S
O138 Zn139 1.953 1_554 S
O138 C154 1.225 . S
Zn139 O138 1.953 1_556 S
Zn139 O140 1.949 1_556 S
Zn139 O146 1.919 1_556 S
Zn139 O151 1.924 . S
O140 Zn139 1.949 1_554 S
O140 Zn141 1.923 . S
O140 Zn142 1.950 . S
O140 Zn143 1.945 1_554 S
Zn141 O140 1.923 . S
Zn141 O144 1.933 . S
Zn141 O147 1.941 . S
Zn141 O148 1.965 . S
Zn142 O140 1.950 . S
Zn142 O149 1.938 . S
Zn142 O150 1.906 . S
Zn142 O160 1.953 . S
Zn143 O140 1.945 1_556 S
Zn143 O145 1.932 . S
Zn143 O152 1.977 . S
Zn143 O153 1.910 . S
O144 Zn141 1.933 . S
O144 C155 1.226 1_554 S
O145 Zn143 1.932 . S
O145 C155 1.307 . S
O146 Zn139 1.919 1_554 S
O146 C157 1.253 . S
O147 Zn141 1.941 . S
O147 C157 1.283 . S
O148 Zn141 1.965 . S
O148 C156 1.303 . S
O149 Zn142 1.938 . S
O149 C156 1.247 . S
O150 Zn142 1.906 . S
O150 C158 1.304 1_554 S
O151 Zn139 1.924 . S
O151 C159 1.311 . S
O152 Zn143 1.977 . S
O152 C158 1.272 . S
O153 Zn143 1.910 . S
O153 C159 1.231 . S
C154 O138 1.225 . S
C154 O160 1.298 . S
C155 O144 1.226 1_556 S
C155 O145 1.307 . S
C156 O148 1.303 . S
C156 O149 1.247 . S
C157 O146 1.253 . S
C157 O147 1.283 . S
C158 O150 1.304 1_556 S
C158 O152 1.272 . S
C159 O151 1.311 . S
C159 O153 1.231 . S
O160 Zn142 1.953 . S
O160 C154 1.298 . S
O161 Zn162 1.953 1_655 S
O161 C177 1.225 . S
Zn162 O161 1.953 1_455 S
Zn162 O163 1.949 . S
Zn162 O169 1.919 . S
Zn162 O174 1.924 . S
O163 Zn162 1.949 . S
O163 Zn164 1.923 . S
O163 Zn165 1.950 1_455 S
O163 Zn166 1.945 . S
Zn164 O163 1.923 . S
Zn164 O167 1.933 . S
Zn164 O170 1.941 . S
Zn164 O171 1.965 . S
Zn165 O163 1.950 1_655 S
Zn165 O172 1.938 . S
Zn165 O173 1.906 . S
Zn165 O183 1.953 . S
Zn166 O163 1.945 . S
Zn166 O168 1.932 . S
Zn166 O175 1.977 1_455 S
Zn166 O176 1.910 . S
O167 Zn164 1.933 . S
O167 C178 1.226 . S
O168 Zn166 1.932 . S
O168 C178 1.307 . S
O169 Zn162 1.919 . S
O169 C180 1.253 . S
O170 Zn164 1.941 . S
O170 C180 1.283 . S
O171 Zn164 1.965 . S
O171 C179 1.303 1_455 S
O172 Zn165 1.938 . S
O172 C179 1.247 . S
O173 Zn165 1.906 . S
O173 C181 1.304 . S
O174 Zn162 1.924 . S
O174 C182 1.311 1_455 S
O175 Zn166 1.977 1_655 S
O175 C181 1.272 . S
O176 Zn166 1.910 . S
O176 C182 1.231 1_455 S
C177 O161 1.225 . S
C177 O183 1.298 . S
C178 O167 1.226 . S
C178 O168 1.307 . S
C179 O171 1.303 1_655 S
C179 O172 1.247 . S
C180 O169 1.253 . S
C180 O170 1.283 . S
C181 O173 1.304 . S
C181 O175 1.272 . S
C182 O174 1.311 1_655 S
C182 O176 1.231 1_655 S
O183 Zn165 1.953 . S
O183 C177 1.298 . S
C184 C185 1.349 . S
C184 C186 1.327 . S
C184 H209 0.950 . S
C185 C184 1.349 . S
C185 C201 1.349 . S
C186 C184 1.327 . S
C186 C205 1.429 . S
C186 H210 0.950 . S
C187 C204 1.574 . S
C187 C206 1.368 . S
C187 H211 0.949 . S
H188 C192 0.949 . S
C189 C190 1.349 . S
C189 C191 1.327 . S
C189 H212 0.950 . S
C190 C189 1.349 . S
C190 C202 1.349 . S
C191 C189 1.327 . S
C191 C207 1.429 . S
C191 H213 0.950 . S
C192 H188 0.949 . S
C192 C200 1.574 . S
C192 C208 1.368 . S
H193 C201 0.950 . S
H194 C199 0.950 . S
H195 C200 0.949 . S
H196 C202 0.950 . S
H197 C203 0.950 . S
H198 C204 0.949 . S
C199 H194 0.950 . S
C199 C201 1.327 . S
C199 C205 1.429 . S
C200 C192 1.574 . S
C200 H195 0.949 . S
C200 C206 1.368 . S
C201 C185 1.349 . S
C201 H193 0.950 . S
C201 C199 1.327 . S
C202 C190 1.349 . S
C202 H196 0.950 . S
C202 C203 1.327 . S
C203 H197 0.950 . S
C203 C202 1.327 . S
C203 C207 1.429 . S
C204 C187 1.574 . S
C204 H198 0.949 . S
C204 C208 1.368 . S
C205 C186 1.429 . S
C205 C199 1.429 . S
C205 C206 1.523 . S
C206 C187 1.368 . S
C206 C200 1.368 . S
C206 C205 1.523 . S
C207 C191 1.429 . S
C207 C203 1.429 . S
C207 C208 1.523 . S
C208 C192 1.368 . S
C208 C204 1.368 . S
C208 C207 1.523 . S
H209 C184 0.950 . S
H210 C186 0.950 . S
H211 C187 0.949 . S
H212 C189 0.950 . S
H213 C191 0.950 . S
C214 C215 1.337 1_545 S
C214 C216 1.327 1_545 S
C214 H239 0.950 . S
C215 C214 1.337 1_565 S
C215 C231 1.381 . S
C216 C214 1.327 1_565 S
C216 C235 1.429 . S
C216 H240 0.950 1_565 S
C217 C234 1.574 . S
C217 C236 1.368 . S
C217 H241 0.949 . S
H218 C222 0.949 . S
C219 C220 1.349 . S
C219 C221 1.327 . S
C219 H242 0.950 . S
C220 C219 1.349 . S
C220 C232 1.349 . S
C221 C219 1.327 . S
C221 C237 1.429 . S
C221 H243 0.950 . S
C222 H218 0.949 . S
C222 C230 1.574 . S
C222 C238 1.368 . S
H223 C231 0.950 . S
H224 C229 0.950 . S
H225 C230 0.949 . S
H226 C232 0.950 . S
H227 C233 0.950 . S
H228 C234 0.949 . S
C229 H224 0.950 . S
C229 C231 1.327 . S
C229 C235 1.429 . S
C230 C222 1.574 . S
C230 H225 0.949 . S
C230 C236 1.368 . S
C231 C215 1.381 . S
C231 H223 0.950 . S
C231 C229 1.327 . S
C232 C220 1.349 . S
C232 H226 0.950 . S
C232 C233 1.327 . S
C233 H227 0.950 . S
C233 C232 1.327 . S
C233 C237 1.429 . S
C234 C217 1.574 . S
C234 H228 0.949 . S
C234 C238 1.368 . S
C235 C216 1.429 . S
C235 C229 1.429 . S
C235 C236 1.523 . S
C236 C217 1.368 . S
C236 C230 1.368 . S
C236 C235 1.523 . S
C237 C221 1.429 . S
C237 C233 1.429 . S
C237 C238 1.523 . S
C238 C222 1.368 . S
C238 C234 1.368 . S
C238 C237 1.523 . S
H239 C214 0.950 . S
H240 C216 0.950 1_545 S
H241 C217 0.949 . S
H242 C219 0.950 . S
H243 C221 0.950 . S
C244 C245 1.349 . S
C244 C246 1.327 . S
C244 H269 0.950 . S
C245 C244 1.349 . S
C245 C261 1.349 . S
C246 C244 1.327 . S
C246 C265 1.429 . S
C246 H270 0.950 . S
C247 C264 1.574 . S
C247 C266 1.368 . S
C247 H271 0.949 . S
H248 C252 0.949 . S
C249 C250 1.349 . S
C249 C251 1.327 . S
C249 H272 0.950 1_556 S
C250 C249 1.349 . S
C250 C262 1.349 . S
C251 C249 1.327 . S
C251 C267 1.429 1_545 S
C251 H273 0.950 . S
C252 H248 0.949 . S
C252 C260 1.574 . S
C252 C268 1.368 . S
H253 C261 0.950 . S
H254 C259 0.950 . S
H255 C260 0.949 . S
H256 C262 0.950 . S
H257 C263 0.970 . S
H258 C264 0.949 . S
C259 H254 0.950 . S
C259 C261 1.327 . S
C259 C265 1.429 . S
C260 C252 1.574 . S
C260 H255 0.949 . S
C260 C266 1.368 . S
C261 C245 1.349 . S
C261 H253 0.950 . S
C261 C259 1.327 . S
C262 C250 1.349 . S
C262 H256 0.950 . S
C262 C263 1.307 1_545 S
C263 H257 0.970 . S
C263 C262 1.307 1_565 S
C263 C267 1.429 . S
C264 C247 1.574 . S
C264 H258 0.949 . S
C264 C268 1.368 . S
C265 C246 1.429 . S
C265 C259 1.429 . S
C265 C266 1.523 . S
C266 C247 1.368 . S
C266 C260 1.368 . S
C266 C265 1.523 . S
C267 C251 1.429 1_565 S
C267 C263 1.429 . S
C267 C268 1.523 . S
C268 C252 1.368 . S
C268 C264 1.368 . S
C268 C267 1.523 . S
H269 C244 0.950 . S
H270 C246 0.950 . S
H271 C247 0.949 . S
H272 C249 0.950 1_554 S
H273 C251 0.950 . S
C274 C275 1.349 . S
C274 C276 1.327 . S
C274 H299 0.950 . S
C275 C274 1.349 . S
C275 C291 1.349 . S
C276 C274 1.327 . S
C276 C295 1.429 . S
C276 H300 0.950 . S
C277 C294 1.574 . S
C277 C296 1.368 . S
C277 H301 0.949 . S
H278 C282 0.949 . S
C279 C280 1.349 . S
C279 C281 1.327 . S
C279 H302 0.950 . S
C280 C279 1.349 . S
C280 C292 1.349 . S
C281 C279 1.327 . S
C281 C297 1.429 . S
C281 H303 0.950 . S
C282 H278 0.949 . S
C282 C290 1.574 . S
C282 C298 1.368 . S
H283 C291 0.950 . S
H284 C289 0.950 . S
H285 C290 0.949 . S
H286 C292 0.950 . S
H287 C293 0.950 . S
H288 C294 0.949 . S
C289 H284 0.950 . S
C289 C291 1.327 . S
C289 C295 1.429 . S
C290 C282 1.574 . S
C290 H285 0.949 . S
C290 C296 1.368 . S
C291 C275 1.349 . S
C291 H283 0.950 . S
C291 C289 1.327 . S
C292 C280 1.349 . S
C292 H286 0.950 . S
C292 C293 1.327 . S
C293 H287 0.950 . S
C293 C292 1.327 . S
C293 C297 1.429 . S
C294 C277 1.574 . S
C294 H288 0.949 . S
C294 C298 1.368 . S
C295 C276 1.429 . S
C295 C289 1.429 . S
C295 C296 1.523 . S
C296 C277 1.368 . S
C296 C290 1.368 . S
C296 C295 1.523 . S
C297 C281 1.429 . S
C297 C293 1.429 . S
C297 C298 1.523 . S
C298 C282 1.368 . S
C298 C294 1.368 . S
C298 C297 1.523 . S
H299 C274 0.950 . S
H300 C276 0.950 . S
H301 C277 0.949 . S
H302 C279 0.950 . S
H303 C281 0.950 . S
C304 C305 1.349 1_565 S
C304 C306 1.327 . S
C304 H329 0.950 . S
C305 C304 1.349 1_545 S
C305 C321 1.349 . S
C306 C304 1.327 . S
C306 C325 1.429 . S
C306 H330 0.950 . S
C307 C324 1.574 . S
C307 C326 1.368 . S
C307 H331 0.949 . S
H308 C312 0.949 . S
C309 C310 1.349 . S
C309 C311 1.327 . S
C309 H332 0.950 . S
C310 C309 1.349 . S
C310 C322 1.349 . S
C311 C309 1.327 . S
C311 C327 1.429 . S
C311 H333 0.950 . S
C312 H308 0.949 . S
C312 C320 1.574 . S
C312 C328 1.368 . S
H313 C321 0.950 . S
H314 C319 0.950 . S
H315 C320 0.949 . S
H316 C322 0.950 . S
H317 C323 0.950 . S
H318 C324 0.949 . S
C319 H314 0.950 . S
C319 C321 1.327 1_565 S
C319 C325 1.429 . S
C320 C312 1.574 . S
C320 H315 0.949 . S
C320 C326 1.368 . S
C321 C305 1.349 . S
C321 H313 0.950 . S
C321 C319 1.327 1_545 S
C322 C310 1.349 . S
C322 H316 0.950 . S
C322 C323 1.327 . S
C323 H317 0.950 . S
C323 C322 1.327 . S
C323 C327 1.429 . S
C324 C307 1.574 . S
C324 H318 0.949 . S
C324 C328 1.368 . S
C325 C306 1.429 . S
C325 C319 1.429 . S
C325 C326 1.523 . S
C326 C307 1.368 . S
C326 C320 1.368 . S
C326 C325 1.523 . S
C327 C311 1.429 . S
C327 C323 1.429 . S
C327 C328 1.523 . S
C328 C312 1.368 . S
C328 C324 1.368 . S
C328 C327 1.523 . S
H329 C304 0.950 . S
H330 C306 0.950 . S
H331 C307 0.949 . S
H332 C309 0.950 . S
H333 C311 0.950 . S
C334 C335 1.349 . S
C334 C336 1.327 . S
C334 H359 0.950 . S
C335 C334 1.349 . S
C335 C351 1.349 . S
C336 C334 1.327 . S
C336 C355 1.429 . S
C336 H360 0.950 . S
C337 C354 1.574 . S
C337 C356 1.368 . S
C337 H361 0.949 . S
H338 C342 0.949 . S
C339 C340 1.349 . S
C339 C341 1.327 . S
C339 H362 0.950 . S
C340 C339 1.349 . S
C340 C352 1.349 . S
C341 C339 1.327 . S
C341 C357 1.429 . S
C341 H363 0.950 . S
C342 H338 0.949 . S
C342 C350 1.574 . S
C342 C358 1.368 . S
H343 C351 0.950 . S
H344 C349 0.950 . S
H345 C350 0.949 . S
H346 C352 0.950 . S
H347 C353 0.950 . S
H348 C354 0.949 . S
C349 H344 0.950 . S
C349 C351 1.327 . S
C349 C355 1.429 . S
C350 C342 1.574 . S
C350 H345 0.949 . S
C350 C356 1.368 . S
C351 C335 1.349 . S
C351 H343 0.950 . S
C351 C349 1.327 . S
C352 C340 1.349 . S
C352 H346 0.950 . S
C352 C353 1.327 . S
C353 H347 0.950 . S
C353 C352 1.327 . S
C353 C357 1.429 . S
C354 C337 1.574 . S
C354 H348 0.949 . S
C354 C358 1.368 . S
C355 C336 1.429 . S
C355 C349 1.429 . S
C355 C356 1.523 . S
C356 C337 1.368 . S
C356 C350 1.368 . S
C356 C355 1.523 . S
C357 C341 1.429 . S
C357 C353 1.429 . S
C357 C358 1.523 . S
C358 C342 1.368 . S
C358 C354 1.368 . S
C358 C357 1.523 . S
H359 C334 0.950 . S
H360 C336 0.950 . S
H361 C337 0.949 . S
H362 C339 0.950 . S
H363 C341 0.950 . S
C364 C365 1.349 . S
C364 C366 1.327 . S
C364 H389 0.950 . S
C365 C364 1.349 . S
C365 C381 1.349 . S
C366 C364 1.327 . S
C366 C385 1.429 . S
C366 H390 0.950 . S
C367 C384 1.574 . S
C367 C386 1.368 . S
C367 H391 0.949 . S
H368 C372 0.949 . S
C369 C370 1.349 . S
C369 C371 1.327 . S
C369 H392 0.950 . S
C370 C369 1.349 . S
C370 C382 1.349 . S
C371 C369 1.327 . S
C371 C387 1.429 . S
C371 H393 0.950 . S
C372 H368 0.949 . S
C372 C380 1.574 . S
C372 C388 1.368 . S
H373 C381 0.950 . S
H374 C379 0.950 . S
H375 C380 0.949 . S
H376 C382 0.950 1_556 S
H377 C383 0.950 1_556 S
H378 C384 0.949 . S
C379 H374 0.950 . S
C379 C381 1.327 . S
C379 C385 1.429 . S
C380 C372 1.574 . S
C380 H375 0.949 . S
C380 C386 1.368 . S
C381 C365 1.349 . S
C381 H373 0.950 . S
C381 C379 1.327 . S
C382 C370 1.349 . S
C382 H376 0.950 1_554 S
C382 C383 1.327 . S
C383 H377 0.950 1_554 S
C383 C382 1.327 . S
C383 C387 1.429 . S
C384 C367 1.574 . S
C384 H378 0.949 . S
C384 C388 1.368 . S
C385 C366 1.429 . S
C385 C379 1.429 . S
C385 C386 1.523 . S
C386 C367 1.368 . S
C386 C380 1.368 . S
C386 C385 1.523 . S
C387 C371 1.429 . S
C387 C383 1.429 . S
C387 C388 1.523 . S
C388 C372 1.368 . S
C388 C384 1.368 . S
C388 C387 1.523 . S
H389 C364 0.950 . S
H390 C366 0.950 . S
H391 C367 0.949 . S
H392 C369 0.950 . S
H393 C371 0.950 . S
C394 C395 1.349 . S
C394 C396 1.327 . S
C394 H419 0.950 . S
C395 C394 1.349 . S
C395 C411 1.349 . S
C396 C394 1.327 . S
C396 C415 1.429 . S
C396 H420 0.950 . S
C397 C414 1.574 . S
C397 C416 1.368 . S
C397 H421 0.949 . S
H398 C402 0.949 1_545 S
C399 C400 1.349 1_554 S
C399 C401 1.327 1_554 S
C399 H422 0.950 . S
C400 C399 1.349 1_556 S
C400 C412 1.349 . S
C401 C399 1.327 1_556 S
C401 C417 1.429 . S
C401 H423 0.950 1_546 S
C402 H398 0.949 1_565 S
C402 C410 1.574 . S
C402 C418 1.368 . S
H403 C411 0.950 . S
H404 C409 0.950 . S
H405 C410 0.949 . S
H406 C412 0.950 . S
H407 C413 0.950 . S
H408 C414 0.949 . S
C409 H404 0.950 . S
C409 C411 1.327 . S
C409 C415 1.429 . S
C410 C402 1.574 . S
C410 H405 0.949 . S
C410 C416 1.368 . S
C411 C395 1.349 . S
C411 H403 0.950 . S
C411 C409 1.327 . S
C412 C400 1.349 . S
C412 H406 0.950 . S
C412 C413 1.327 . S
C413 H407 0.950 . S
C413 C412 1.327 . S
C413 C417 1.429 . S
C414 C397 1.574 . S
C414 H408 0.949 . S
C414 C418 1.368 . S
C415 C396 1.429 . S
C415 C409 1.429 . S
C415 C416 1.523 . S
C416 C397 1.368 . S
C416 C410 1.368 . S
C416 C415 1.523 . S
C417 C401 1.429 . S
C417 C413 1.429 . S
C417 C418 1.523 1_545 S
C418 C402 1.368 . S
C418 C414 1.368 . S
C418 C417 1.523 1_565 S
H419 C394 0.950 . S
H420 C396 0.950 . S
H421 C397 0.949 . S
H422 C399 0.950 . S
H423 C401 0.950 1_564 S
C424 C425 1.349 . S
C424 C426 1.327 . S
C424 H449 0.950 . S
C425 C424 1.349 . S
C425 C441 1.349 1_556 S
C426 C424 1.327 . S
C426 C445 1.429 . S
C426 H450 0.950 . S
C427 C444 1.574 . S
C427 C446 1.368 . S
C427 H451 0.949 . S
H428 C432 0.949 . S
C429 C430 1.349 . S
C429 C431 1.327 . S
C429 H452 0.950 . S
C430 C429 1.349 . S
C430 C442 1.349 . S
C431 C429 1.327 . S
C431 C447 1.429 . S
C431 H453 0.950 . S
C432 H428 0.949 . S
C432 C440 1.574 . S
C432 C448 1.368 . S
H433 C441 0.950 . S
H434 C439 0.950 1_554 S
H435 C440 0.949 . S
H436 C442 0.950 . S
H437 C443 0.950 . S
H438 C444 0.949 . S
C439 H434 0.950 1_556 S
C439 C441 1.327 1_556 S
C439 C445 1.429 . S
C440 C432 1.574 . S
C440 H435 0.949 . S
C440 C446 1.368 . S
C441 C425 1.349 1_554 S
C441 H433 0.950 . S
C441 C439 1.327 1_554 S
C442 C430 1.349 . S
C442 H436 0.950 . S
C442 C443 1.327 . S
C443 H437 0.950 . S
C443 C442 1.327 . S
C443 C447 1.429 . S
C444 C427 1.574 . S
C444 H438 0.949 . S
C444 C448 1.368 . S
C445 C426 1.429 . S
C445 C439 1.429 . S
C445 C446 1.523 . S
C446 C427 1.368 . S
C446 C440 1.368 . S
C446 C445 1.523 . S
C447 C431 1.429 . S
C447 C443 1.429 . S
C447 C448 1.523 . S
C448 C432 1.368 . S
C448 C444 1.368 . S
C448 C447 1.523 . S
H449 C424 0.950 . S
H450 C426 0.950 . S
H451 C427 0.949 . S
H452 C429 0.950 . S
H453 C431 0.950 . S
C454 C455 1.349 . S
C454 C456 1.327 . S
C454 H479 0.950 . S
C455 C454 1.349 . S
C455 C471 1.349 . S
C456 C454 1.327 . S
C456 C475 1.429 . S
C456 H480 0.950 . S
C457 C474 1.574 . S
C457 C476 1.368 . S
C457 H481 0.949 . S
H458 C462 0.949 . S
C459 C460 1.349 . S
C459 C461 1.327 . S
C459 H482 0.950 . S
C460 C459 1.349 . S
C460 C472 1.350 . S
C461 C459 1.327 . S
C461 C477 1.429 . S
C461 H483 0.950 . S
C462 H458 0.949 . S
C462 C470 1.574 . S
C462 C478 1.368 . S
H463 C471 0.950 . S
H464 C469 0.950 . S
H465 C470 0.949 . S
H466 C472 0.948 1_556 S
H467 C473 0.950 1_556 S
H468 C474 0.949 . S
C469 H464 0.950 . S
C469 C471 1.327 . S
C469 C475 1.429 . S
C470 C462 1.574 . S
C470 H465 0.949 . S
C470 C476 1.368 . S
C471 C455 1.349 . S
C471 H463 0.950 . S
C471 C469 1.327 . S
C472 C460 1.350 . S
C472 H466 0.948 1_554 S
C472 C473 1.327 . S
C473 H467 0.950 1_554 S
C473 C472 1.327 . S
C473 C477 1.429 . S
C474 C457 1.574 . S
C474 H468 0.949 . S
C474 C478 1.368 . S
C475 C456 1.429 . S
C475 C469 1.429 . S
C475 C476 1.523 . S
C476 C457 1.368 . S
C476 C470 1.368 . S
C476 C475 1.523 . S
C477 C461 1.429 . S
C477 C473 1.429 . S
C477 C478 1.523 . S
C478 C462 1.368 . S
C478 C474 1.368 . S
C478 C477 1.523 . S
H479 C454 0.950 . S
H480 C456 0.950 . S
H481 C457 0.949 . S
H482 C459 0.950 . S
H483 C461 0.950 . S
C484 C485 1.349 . S
C484 C486 1.327 . S
C484 H509 0.950 . S
C485 C484 1.349 . S
C485 C501 1.349 . S
C486 C484 1.327 . S
C486 C505 1.429 . S
C486 H510 0.950 . S
C487 C504 1.574 . S
C487 C506 1.368 . S
C487 H511 0.949 . S
H488 C492 0.949 . S
C489 C490 1.349 . S
C489 C491 1.327 . S
C489 H512 0.950 . S
C490 C489 1.349 . S
C490 C502 1.349 . S
C491 C489 1.327 . S
C491 C507 1.429 . S
C491 H513 0.950 . S
C492 H488 0.949 . S
C492 C500 1.574 . S
C492 C508 1.368 . S
H493 C501 0.950 . S
H494 C499 0.950 . S
H495 C500 0.949 . S
H496 C502 0.950 . S
H497 C503 0.950 . S
H498 C504 0.949 . S
C499 H494 0.950 . S
C499 C501 1.327 . S
C499 C505 1.429 . S
C500 C492 1.574 . S
C500 H495 0.949 . S
C500 C506 1.368 . S
C501 C485 1.349 . S
C501 H493 0.950 . S
C501 C499 1.327 . S
C502 C490 1.349 . S
C502 H496 0.950 . S
C502 C503 1.327 . S
C503 H497 0.950 . S
C503 C502 1.327 . S
C503 C507 1.429 . S
C504 C487 1.574 . S
C504 H498 0.949 . S
C504 C508 1.368 . S
C505 C486 1.429 . S
C505 C499 1.429 . S
C505 C506 1.523 . S
C506 C487 1.368 . S
C506 C500 1.368 . S
C506 C505 1.523 . S
C507 C491 1.429 . S
C507 C503 1.429 . S
C507 C508 1.523 . S
C508 C492 1.368 . S
C508 C504 1.368 . S
C508 C507 1.523 . S
H509 C484 0.950 . S
H510 C486 0.950 . S
H511 C487 0.949 . S
H512 C489 0.950 . S
H513 C491 0.950 . S
C514 C515 1.349 . S
C514 C516 1.327 . S
C514 H539 0.950 . S
C515 C514 1.349 . S
C515 C531 1.349 . S
C516 C514 1.327 . S
C516 C535 1.429 . S
C516 H540 0.950 . S
C517 C534 1.574 . S
C517 C536 1.368 . S
C517 H541 0.949 . S
H518 C522 0.949 . S
C519 C520 1.349 . S
C519 C521 1.327 . S
C519 H542 0.950 . S
C520 C519 1.349 . S
C520 C532 1.349 . S
C521 C519 1.327 . S
C521 C537 1.429 . S
C521 H543 0.950 . S
C522 H518 0.949 . S
C522 C530 1.574 . S
C522 C538 1.368 . S
H523 C531 0.950 . S
H524 C529 0.950 . S
H525 C530 0.949 . S
H526 C532 0.950 . S
H527 C533 0.950 . S
H528 C534 0.949 . S
C529 H524 0.950 . S
C529 C531 1.327 . S
C529 C535 1.429 . S
C530 C522 1.574 . S
C530 H525 0.949 . S
C530 C536 1.368 . S
C531 C515 1.349 . S
C531 H523 0.950 . S
C531 C529 1.327 . S
C532 C520 1.349 . S
C532 H526 0.950 . S
C532 C533 1.327 . S
C533 H527 0.950 . S
C533 C532 1.327 . S
C533 C537 1.429 . S
C534 C517 1.574 . S
C534 H528 0.949 . S
C534 C538 1.368 . S
C535 C516 1.429 . S
C535 C529 1.429 . S
C535 C536 1.523 . S
C536 C517 1.368 . S
C536 C530 1.368 . S
C536 C535 1.523 . S
C537 C521 1.429 . S
C537 C533 1.429 . S
C537 C538 1.523 . S
C538 C522 1.368 . S
C538 C534 1.368 . S
C538 C537 1.523 . S
H539 C514 0.950 . S
H540 C516 0.950 . S
H541 C517 0.949 . S
H542 C519 0.950 . S
H543 C521 0.950 . S
C544 C545 1.349 . S
C544 C546 1.327 . S
C544 H569 0.950 . S
C545 C544 1.349 . S
C545 C561 1.349 . S
C546 C544 1.327 . S
C546 C565 1.429 . S
C546 H570 0.950 . S
C547 C564 1.574 . S
C547 C566 1.368 . S
C547 H571 0.949 . S
H548 C552 0.949 . S
C549 C550 1.349 . S
C549 C551 1.327 . S
C549 H572 0.950 1_554 S
C550 C549 1.349 . S
C550 C562 1.349 . S
C551 C549 1.327 . S
C551 C567 1.429 . S
C551 H573 0.950 . S
C552 H548 0.949 . S
C552 C560 1.574 . S
C552 C568 1.368 . S
H553 C561 0.950 . S
H554 C559 0.950 . S
H555 C560 0.949 . S
H556 C562 0.950 . S
H557 C563 0.950 . S
H558 C564 0.949 . S
C559 H554 0.950 . S
C559 C561 1.327 . S
C559 C565 1.429 . S
C560 C552 1.574 . S
C560 H555 0.949 . S
C560 C566 1.368 . S
C561 C545 1.349 . S
C561 H553 0.950 . S
C561 C559 1.327 . S
C562 C550 1.349 . S
C562 H556 0.950 . S
C562 C563 1.327 . S
C563 H557 0.950 . S
C563 C562 1.327 . S
C563 C567 1.429 . S
C564 C547 1.574 . S
C564 H558 0.949 . S
C564 C568 1.368 . S
C565 C546 1.429 . S
C565 C559 1.429 . S
C565 C566 1.523 . S
C566 C547 1.368 . S
C566 C560 1.368 . S
C566 C565 1.523 . S
C567 C551 1.429 . S
C567 C563 1.429 . S
C567 C568 1.523 . S
C568 C552 1.368 . S
C568 C564 1.368 . S
C568 C567 1.523 . S
H569 C544 0.950 . S
H570 C546 0.950 . S
H571 C547 0.949 . S
H572 C549 0.950 1_556 S
H573 C551 0.950 . S
C574 C575 1.349 . S
C574 C576 1.327 . S
C574 H599 0.950 . S
C575 C574 1.349 . S
C575 C591 1.349 . S
C576 C574 1.327 . S
C576 C595 1.429 . S
C576 H600 0.950 . S
C577 C594 1.574 . S
C577 C596 1.368 . S
C577 H601 0.949 . S
H578 C582 0.949 . S
C579 C580 1.349 . S
C579 C581 1.327 . S
C579 H602 0.950 . S
C580 C579 1.349 . S
C580 C592 1.349 . S
C581 C579 1.327 . S
C581 C597 1.429 . S
C581 H603 0.950 . S
C582 H578 0.949 . S
C582 C590 1.574 . S
C582 C598 1.368 . S
H583 C591 0.950 . S
H584 C589 0.950 . S
H585 C590 0.949 . S
H586 C592 0.950 . S
H587 C593 0.950 . S
H588 C594 0.949 . S
C589 H584 0.950 . S
C589 C591 1.327 . S
C589 C595 1.429 . S
C590 C582 1.574 . S
C590 H585 0.949 . S
C590 C596 1.368 . S
C591 C575 1.349 . S
C591 H583 0.950 . S
C591 C589 1.327 . S
C592 C580 1.349 . S
C592 H586 0.950 . S
C592 C593 1.327 . S
C593 H587 0.950 . S
C593 C592 1.327 . S
C593 C597 1.429 . S
C594 C577 1.574 . S
C594 H588 0.949 . S
C594 C598 1.368 . S
C595 C576 1.429 . S
C595 C589 1.429 . S
C595 C596 1.523 . S
C596 C577 1.368 . S
C596 C590 1.368 . S
C596 C595 1.523 . S
C597 C581 1.429 . S
C597 C593 1.429 . S
C597 C598 1.523 . S
C598 C582 1.368 . S
C598 C594 1.368 . S
C598 C597 1.523 . S
H599 C574 0.950 . S
H600 C576 0.950 . S
H601 C577 0.949 . S
H602 C579 0.950 . S
H603 C581 0.950 . S
C604 C605 1.349 . S
C604 C606 1.327 . S
C604 H629 0.950 . S
C605 C604 1.349 . S
C605 C621 1.349 . S
C606 C604 1.327 . S
C606 C625 1.429 . S
C606 H630 0.950 . S
C607 C624 1.574 . S
C607 C626 1.368 . S
C607 H631 0.949 . S
H608 C612 0.949 . S
C609 C610 1.349 . S
C609 C611 1.327 . S
C609 H632 0.950 . S
C610 C609 1.349 . S
C610 C622 1.349 . S
C611 C609 1.327 . S
C611 C627 1.429 . S
C611 H633 0.950 . S
C612 H608 0.949 . S
C612 C620 1.574 . S
C612 C628 1.368 . S
H613 C621 0.950 . S
H614 C619 0.950 . S
H615 C620 0.949 . S
H616 C622 0.950 . S
H617 C623 0.950 . S
H618 C624 0.949 . S
C619 H614 0.950 . S
C619 C621 1.327 . S
C619 C625 1.429 . S
C620 C612 1.574 . S
C620 H615 0.949 . S
C620 C626 1.368 . S
C621 C605 1.349 . S
C621 H613 0.950 . S
C621 C619 1.327 . S
C622 C610 1.349 . S
C622 H616 0.950 . S
C622 C623 1.327 . S
C623 H617 0.950 . S
C623 C622 1.327 . S
C623 C627 1.429 . S
C624 C607 1.574 . S
C624 H618 0.949 . S
C624 C628 1.368 . S
C625 C606 1.429 . S
C625 C619 1.429 . S
C625 C626 1.523 . S
C626 C607 1.368 . S
C626 C620 1.368 . S
C626 C625 1.523 . S
C627 C611 1.429 . S
C627 C623 1.429 . S
C627 C628 1.523 . S
C628 C612 1.368 . S
C628 C624 1.368 . S
C628 C627 1.523 . S
H629 C604 0.950 . S
H630 C606 0.950 . S
H631 C607 0.949 . S
H632 C609 0.950 . S
H633 C611 0.950 . S
C634 C635 1.349 . S
C634 C636 1.327 . S
C634 H659 0.950 . S
C635 C634 1.349 . S
C635 C651 1.349 . S
C636 C634 1.327 . S
C636 C655 1.429 . S
C636 H660 0.950 . S
C637 C654 1.574 . S
C637 C656 1.368 . S
C637 H661 0.949 . S
H638 C642 0.949 . S
C639 C640 1.349 . S
C639 C641 1.327 . S
C639 H662 0.950 . S
C640 C639 1.349 . S
C640 C652 1.349 . S
C641 C639 1.327 . S
C641 C657 1.429 . S
C641 H663 0.950 . S
C642 H638 0.949 . S
C642 C650 1.574 . S
C642 C658 1.368 . S
H643 C651 0.950 . S
H644 C649 0.950 . S
H645 C650 0.949 . S
H646 C652 0.950 . S
H647 C653 0.950 . S
H648 C654 0.949 . S
C649 H644 0.950 . S
C649 C651 1.327 . S
C649 C655 1.429 . S
C650 C642 1.574 . S
C650 H645 0.949 . S
C650 C656 1.368 . S
C651 C635 1.349 . S
C651 H643 0.950 . S
C651 C649 1.327 . S
C652 C640 1.349 . S
C652 H646 0.950 . S
C652 C653 1.327 . S
C653 H647 0.950 . S
C653 C652 1.327 . S
C653 C657 1.429 . S
C654 C637 1.574 . S
C654 H648 0.949 . S
C654 C658 1.368 . S
C655 C636 1.429 . S
C655 C649 1.429 . S
C655 C656 1.523 . S
C656 C637 1.368 . S
C656 C650 1.368 . S
C656 C655 1.523 . S
C657 C641 1.429 . S
C657 C653 1.429 . S
C657 C658 1.523 . S
C658 C642 1.368 . S
C658 C654 1.368 . S
C658 C657 1.523 . S
H659 C634 0.950 . S
H660 C636 0.950 . S
H661 C637 0.949 . S
H662 C639 0.950 . S
H663 C641 0.950 . S
C664 C665 1.349 1_655 S
C664 C666 1.327 . S
C664 H689 0.950 . S
C665 C664 1.349 1_455 S
C665 C681 1.349 . S
C666 C664 1.327 . S
C666 C685 1.429 1_655 S
C666 H690 0.950 . S
C667 C684 1.574 1_556 S
C667 C686 1.368 . S
C667 H691 0.949 . S
H668 C672 0.949 . S
C669 C670 1.349 . S
C669 C671 1.327 . S
C669 H692 0.950 . S
C670 C669 1.349 . S
C670 C682 1.325 1_455 S
C671 C669 1.327 . S
C671 C687 1.429 . S
C671 H693 0.950 . S
C672 H668 0.949 . S
C672 C680 1.574 1_554 S
C672 C688 1.368 1_655 S
H673 C681 0.950 . S
H674 C679 0.950 . S
H675 C680 0.949 . S
H676 C682 0.974 . S
H677 C683 0.950 . S
H678 C684 0.949 . S
C679 H674 0.950 . S
C679 C681 1.327 . S
C679 C685 1.429 . S
C680 C672 1.574 1_556 S
C680 H675 0.949 . S
C680 C686 1.368 1_655 S
C681 C665 1.349 . S
C681 H673 0.950 . S
C681 C679 1.327 . S
C682 C670 1.325 1_655 S
C682 H676 0.974 . S
C682 C683 1.329 . S
C683 H677 0.950 . S
C683 C682 1.329 . S
C683 C687 1.429 1_655 S
C684 C667 1.574 1_554 S
C684 H678 0.949 . S
C684 C688 1.368 . S
C685 C666 1.429 1_455 S
C685 C679 1.429 . S
C685 C686 1.523 . S
C686 C667 1.368 . S
C686 C680 1.368 1_455 S
C686 C685 1.523 . S
C687 C671 1.429 . S
C687 C683 1.429 1_455 S
C687 C688 1.523 . S
C688 C672 1.368 1_455 S
C688 C684 1.368 . S
C688 C687 1.523 . S
H689 C664 0.950 . S
H690 C666 0.950 . S
H691 C667 0.949 . S
H692 C669 0.950 . S
H693 C671 0.950 . S
C694 C695 1.349 . S
C694 C696 1.327 . S
C694 H719 0.950 . S
C695 C694 1.349 . S
C695 C711 1.349 . S
C696 C694 1.327 . S
C696 C715 1.429 . S
C696 H720 0.950 . S
C697 C714 1.574 . S
C697 C716 1.368 . S
C697 H721 0.949 . S
H698 C702 0.949 . S
C699 C700 1.349 1_554 S
C699 C701 1.327 . S
C699 H722 0.950 1_554 S
C700 C699 1.349 1_556 S
C700 C712 1.349 1_556 S
C701 C699 1.327 . S
C701 C717 1.429 . S
C701 H723 0.950 . S
C702 H698 0.949 . S
C702 C710 1.574 . S
C702 C718 1.368 . S
H703 C711 0.950 . S
H704 C709 0.950 . S
H705 C710 0.949 . S
H706 C712 0.950 1_556 S
H707 C713 0.950 . S
H708 C714 0.949 . S
C709 H704 0.950 . S
C709 C711 1.327 . S
C709 C715 1.429 . S
C710 C702 1.574 . S
C710 H705 0.949 . S
C710 C716 1.368 . S
C711 C695 1.349 . S
C711 H703 0.950 . S
C711 C709 1.327 . S
C712 C700 1.349 1_554 S
C712 H706 0.950 1_554 S
C712 C713 1.327 . S
C713 H707 0.950 . S
C713 C712 1.327 . S
C713 C717 1.429 . S
C714 C697 1.574 . S
C714 H708 0.949 . S
C714 C718 1.368 . S
C715 C696 1.429 . S
C715 C709 1.429 . S
C715 C716 1.523 . S
C716 C697 1.368 . S
C716 C710 1.368 . S
C716 C715 1.523 . S
C717 C701 1.429 . S
C717 C713 1.429 . S
C717 C718 1.523 . S
C718 C702 1.368 . S
C718 C714 1.368 . S
C718 C717 1.523 . S
H719 C694 0.950 . S
H720 C696 0.950 . S
H721 C697 0.949 . S
H722 C699 0.950 1_556 S
H723 C701 0.950 . S
C724 C725 1.349 . S
C724 C726 1.327 . S
C724 H749 0.950 . S
C725 C724 1.349 . S
C725 C741 1.349 . S
C726 C724 1.327 . S
C726 C745 1.429 . S
C726 H750 0.950 . S
C727 C744 1.574 . S
C727 C746 1.368 . S
C727 H751 0.949 . S
H728 C732 0.949 . S
C729 C730 1.349 . S
C729 C731 1.327 . S
C729 H752 0.950 . S
C730 C729 1.349 . S
C730 C742 1.349 . S
C731 C729 1.327 . S
C731 C747 1.429 . S
C731 H753 0.950 . S
C732 H728 0.949 . S
C732 C740 1.574 . S
C732 C748 1.368 . S
H733 C741 0.950 . S
H734 C739 0.950 . S
H735 C740 0.949 . S
H736 C742 0.950 . S
H737 C743 0.950 . S
H738 C744 0.949 . S
C739 H734 0.950 . S
C739 C741 1.327 . S
C739 C745 1.429 . S
C740 C732 1.574 . S
C740 H735 0.949 . S
C740 C746 1.368 . S
C741 C725 1.349 . S
C741 H733 0.950 . S
C741 C739 1.327 . S
C742 C730 1.349 . S
C742 H736 0.950 . S
C742 C743 1.327 . S
C743 H737 0.950 . S
C743 C742 1.327 . S
C743 C747 1.429 . S
C744 C727 1.574 . S
C744 H738 0.949 . S
C744 C748 1.368 . S
C745 C726 1.429 . S
C745 C739 1.429 . S
C745 C746 1.523 . S
C746 C727 1.368 . S
C746 C740 1.368 . S
C746 C745 1.523 . S
C747 C731 1.429 . S
C747 C743 1.429 . S
C747 C748 1.523 . S
C748 C732 1.368 . S
C748 C744 1.368 . S
C748 C747 1.523 . S
H749 C724 0.950 . S
H750 C726 0.950 . S
H751 C727 0.949 . S
H752 C729 0.950 . S
H753 C731 0.950 . S
C754 C755 1.349 . S
C754 C756 1.327 1_554 S
C754 H779 0.950 . S
C755 C754 1.349 . S
C755 C771 1.349 . S
C756 C754 1.327 1_556 S
C756 C775 1.429 . S
C756 H780 0.950 . S
C757 C774 1.574 . S
C757 C776 1.368 . S
C757 H781 0.949 . S
H758 C762 0.949 . S
C759 C760 1.349 . S
C759 C761 1.327 . S
C759 H782 0.950 . S
C760 C759 1.349 . S
C760 C772 1.349 . S
C761 C759 1.327 . S
C761 C777 1.429 . S
C761 H783 0.950 . S
C762 H758 0.949 . S
C762 C770 1.574 . S
C762 C778 1.368 . S
H763 C771 0.950 . S
H764 C769 0.950 . S
H765 C770 0.949 . S
H766 C772 0.950 . S
H767 C773 0.950 . S
H768 C774 0.949 . S
C769 H764 0.950 . S
C769 C771 1.327 1_556 S
C769 C775 1.429 . S
C770 C762 1.574 . S
C770 H765 0.949 . S
C770 C776 1.368 . S
C771 C755 1.349 . S
C771 H763 0.950 . S
C771 C769 1.327 1_554 S
C772 C760 1.349 . S
C772 H766 0.950 . S
C772 C773 1.327 . S
C773 H767 0.950 . S
C773 C772 1.327 . S
C773 C777 1.429 . S
C774 C757 1.574 . S
C774 H768 0.949 . S
C774 C778 1.368 . S
C775 C756 1.429 . S
C775 C769 1.429 . S
C775 C776 1.523 . S
C776 C757 1.368 . S
C776 C770 1.368 . S
C776 C775 1.523 . S
C777 C761 1.429 . S
C777 C773 1.429 . S
C777 C778 1.523 . S
C778 C762 1.368 . S
C778 C774 1.368 . S
C778 C777 1.523 . S
H779 C754 0.950 . S
H780 C756 0.950 . S
H781 C757 0.949 . S
H782 C759 0.950 . S
H783 C761 0.950 . S
C784 C785 1.349 . S
C784 C786 1.327 1_554 S
C784 H809 0.950 . S
C785 C784 1.349 . S
C785 C801 1.349 . S
C786 C784 1.327 1_556 S
C786 C805 1.429 . S
C786 H810 0.950 . S
C787 C804 1.574 . S
C787 C806 1.368 . S
C787 H811 0.949 . S
H788 C792 0.949 . S
C789 C790 1.349 . S
C789 C791 1.327 . S
C789 H812 0.950 . S
C790 C789 1.349 . S
C790 C802 1.349 . S
C791 C789 1.327 . S
C791 C807 1.429 . S
C791 H813 0.950 . S
C792 H788 0.949 . S
C792 C800 1.574 . S
C792 C808 1.368 . S
H793 C801 0.950 . S
H794 C799 0.950 . S
H795 C800 0.949 . S
H796 C802 0.950 . S
H797 C803 0.950 . S
H798 C804 0.949 . S
C799 H794 0.950 . S
C799 C801 1.327 1_556 S
C799 C805 1.429 . S
C800 C792 1.574 . S
C800 H795 0.949 . S
C800 C806 1.368 . S
C801 C785 1.349 . S
C801 H793 0.950 . S
C801 C799 1.327 1_554 S
C802 C790 1.349 . S
C802 H796 0.950 . S
C802 C803 1.327 . S
C803 H797 0.950 . S
C803 C802 1.327 . S
C803 C807 1.429 . S
C804 C787 1.574 . S
C804 H798 0.949 . S
C804 C808 1.368 . S
C805 C786 1.429 . S
C805 C799 1.429 . S
C805 C806 1.523 . S
C806 C787 1.368 . S
C806 C800 1.368 . S
C806 C805 1.523 . S
C807 C791 1.429 . S
C807 C803 1.429 . S
C807 C808 1.523 . S
C808 C792 1.368 . S
C808 C804 1.368 . S
C808 C807 1.523 . S
H809 C784 0.950 . S
H810 C786 0.950 . S
H811 C787 0.949 . S
H812 C789 0.950 . S
H813 C791 0.950 . S
C814 C815 1.349 . S
C814 C816 1.327 . S
C814 H839 0.950 . S
C815 C814 1.349 . S
C815 C831 1.349 . S
C816 C814 1.327 . S
C816 C835 1.429 . S
C816 H840 0.950 . S
C817 C834 1.574 . S
C817 C836 1.368 . S
C817 H841 0.949 . S
H818 C822 0.949 . S
C819 C820 1.349 1_554 S
C819 C821 1.327 . S
C819 H842 0.950 1_554 S
C820 C819 1.349 1_556 S
C820 C832 1.349 1_556 S
C821 C819 1.327 . S
C821 C837 1.429 . S
C821 H843 0.950 . S
C822 H818 0.949 . S
C822 C830 1.574 . S
C822 C838 1.368 . S
H823 C831 0.950 . S
H824 C829 0.950 . S
H825 C830 0.949 . S
H826 C832 0.950 1_556 S
H827 C833 0.950 . S
H828 C834 0.949 . S
C829 H824 0.950 . S
C829 C831 1.327 . S
C829 C835 1.429 . S
C830 C822 1.574 . S
C830 H825 0.949 . S
C830 C836 1.368 . S
C831 C815 1.349 . S
C831 H823 0.950 . S
C831 C829 1.327 . S
C832 C820 1.349 1_554 S
C832 H826 0.950 1_554 S
C832 C833 1.327 . S
C833 H827 0.950 . S
C833 C832 1.327 . S
C833 C837 1.429 . S
C834 C817 1.574 . S
C834 H828 0.949 . S
C834 C838 1.368 . S
C835 C816 1.429 . S
C835 C829 1.429 . S
C835 C836 1.523 . S
C836 C817 1.368 . S
C836 C830 1.368 . S
C836 C835 1.523 . S
C837 C821 1.429 . S
C837 C833 1.429 . S
C837 C838 1.523 . S
C838 C822 1.368 . S
C838 C834 1.368 . S
C838 C837 1.523 . S
H839 C814 0.950 . S
H840 C816 0.950 . S
H841 C817 0.949 . S
H842 C819 0.950 1_556 S
H843 C821 0.950 . S
C844 C845 1.349 . S
C844 C846 1.327 . S
C844 H869 0.950 . S
C845 C844 1.349 . S
C845 C861 1.349 . S
C846 C844 1.327 . S
C846 C865 1.429 . S
C846 H870 0.950 . S
C847 C864 1.574 . S
C847 C866 1.368 . S
C847 H871 0.949 . S
H848 C852 0.949 . S
C849 C850 1.349 . S
C849 C851 1.327 . S
C849 H872 0.950 . S
C850 C849 1.349 . S
C850 C862 1.349 . S
C851 C849 1.327 . S
C851 C867 1.429 . S
C851 H873 0.950 . S
C852 H848 0.949 . S
C852 C860 1.574 . S
C852 C868 1.368 . S
H853 C861 0.950 . S
H854 C859 0.950 . S
H855 C860 0.949 . S
H856 C862 0.950 . S
H857 C863 0.950 . S
H858 C864 0.949 . S
C859 H854 0.950 . S
C859 C861 1.327 . S
C859 C865 1.429 . S
C860 C852 1.574 . S
C860 H855 0.949 . S
C860 C866 1.368 . S
C861 C845 1.349 . S
C861 H853 0.950 . S
C861 C859 1.327 . S
C862 C850 1.349 . S
C862 H856 0.950 . S
C862 C863 1.327 . S
C863 H857 0.950 . S
C863 C862 1.327 . S
C863 C867 1.429 . S
C864 C847 1.574 . S
C864 H858 0.949 . S
C864 C868 1.368 . S
C865 C846 1.429 . S
C865 C859 1.429 . S
C865 C866 1.523 . S
C866 C847 1.368 . S
C866 C860 1.368 . S
C866 C865 1.523 . S
C867 C851 1.429 . S
C867 C863 1.429 . S
C867 C868 1.523 . S
C868 C852 1.368 . S
C868 C864 1.368 . S
C868 C867 1.523 . S
H869 C844 0.950 . S
H870 C846 0.950 . S
H871 C847 0.949 . S
H872 C849 0.950 . S
H873 C851 0.950 . S
C874 C875 1.349 . S
C874 C876 1.327 . S
C874 H899 0.950 . S
C875 C874 1.349 . S
C875 C891 1.349 1_655 S
C876 C874 1.327 . S
C876 C895 1.429 . S
C876 H900 0.950 . S
C877 C894 1.574 1_556 S
C877 C896 1.368 1_455 S
C877 H901 0.949 . S
H878 C882 0.949 . S
C879 C880 1.349 1_455 S
C879 C881 1.327 . S
C879 H902 0.950 . S
C880 C879 1.349 1_655 S
C880 C892 1.349 . S
C881 C879 1.327 . S
C881 C897 1.429 1_455 S
C881 H903 0.950 . S
C882 H878 0.949 . S
C882 C890 1.574 1_554 S
C882 C898 1.368 . S
H883 C891 0.950 . S
H884 C889 0.950 . S
H885 C890 0.949 . S
H886 C892 0.950 . S
H887 C893 0.950 . S
H888 C894 0.949 . S
C889 H884 0.950 . S
C889 C891 1.327 . S
C889 C895 1.429 1_455 S
C890 C882 1.574 1_556 S
C890 H885 0.949 . S
C890 C896 1.368 . S
C891 C875 1.349 1_455 S
C891 H883 0.950 . S
C891 C889 1.327 . S
C892 C880 1.349 . S
C892 H886 0.950 . S
C892 C893 1.327 . S
C893 H887 0.950 . S
C893 C892 1.327 . S
C893 C897 1.429 . S
C894 C877 1.574 1_554 S
C894 H888 0.949 . S
C894 C898 1.368 1_455 S
C895 C876 1.429 . S
C895 C889 1.429 1_655 S
C895 C896 1.523 . S
C896 C877 1.368 1_655 S
C896 C890 1.368 . S
C896 C895 1.523 . S
C897 C881 1.429 1_655 S
C897 C893 1.429 . S
C897 C898 1.523 . S
C898 C882 1.368 . S
C898 C894 1.368 1_655 S
C898 C897 1.523 . S
H899 C874 0.950 . S
H900 C876 0.950 . S
H901 C877 0.949 . S
H902 C879 0.950 . S
H903 C881 0.950 . S
C185 C20 1.493 . S
C190 C85 1.523 . S
C215 C16 1.502 1_565 S
C220 C43 1.493 . S
C245 C39 1.523 . S
C250 C66 1.493 . S
C275 C62 1.523 . S
C280 C89 1.493 . S
C305 C19 1.481 . S
C310 C132 1.525 . S
C335 C17 1.524 . S
C340 C111 1.480 . S
C365 C109 1.525 . S
C370 C65 1.481 . S
C395 C134 1.480 . S
C400 C63 1.524 . S
C425 C158 1.493 . S
C430 C131 1.523 . S
C455 C112 1.492 . S
C460 C154 1.523 . S
C485 C181 1.493 . S
C490 C108 1.523 . S
C515 C135 1.493 . S
C520 C177 1.523 . S
C545 C86 1.525 . S
C550 C157 1.481 . S
C575 C155 1.524 . S
C580 C42 1.480 . S
C605 C40 1.525 . S
C610 C180 1.481 . S
C635 C88 1.480 . S
C640 C178 1.524 . S
C665 C18 0.809 . S
C670 C21 0.800 . S
C695 C44 0.800 . S
C700 C41 0.809 . S
C725 C67 0.800 . S
C730 C64 0.809 . S
C755 C90 0.800 . S
C760 C87 0.809 . S
C785 C113 0.800 . S
C790 C110 0.809 . S
C815 C136 0.800 . S
C820 C133 0.809 . S
C845 C159 0.800 . S
C850 C156 0.809 . S
C875 C179 0.809 . S
C880 C182 0.800 . S
