# Generated by pormake.
# Topology uoa, (4)-cn, num edge types: 1
# Building blocks:
#     Node 0, Type 0, BuildingBlock: GALJAG_clean_sbu_0, # of connection points: 4
#     Node 1, Type 0, BuildingBlock: GALJAG_clean_sbu_0, # of connection points: 4
#     Node 2, Type 0, BuildingBlock: GALJAG_clean_sbu_0, # of connection points: 4
#     Node 3, Type 0, BuildingBlock: GALJAG_clean_sbu_0, # of connection points: 4
#     Node 4, Type 0, BuildingBlock: GALJAG_clean_sbu_0, # of connection points: 4
#     Node 5, Type 0, BuildingBlock: GALJAG_clean_sbu_0, # of connection points: 4
#     Node 6, Type 0, BuildingBlock: GALJAG_clean_sbu_0, # of connection points: 4
#     Node 7, Type 0, BuildingBlock: GALJAG_clean_sbu_0, # of connection points: 4
#     Node 8, Type 0, BuildingBlock: GALJAG_clean_sbu_0, # of connection points: 4
#     Node 9, Type 0, BuildingBlock: GALJAG_clean_sbu_0, # of connection points: 4
#     Node 10, Type 0, BuildingBlock: GALJAG_clean_sbu_0, # of connection points: 4
#     Node 11, Type 0, BuildingBlock: GALJAG_clean_sbu_0, # of connection points: 4
#     Node 12, Type 0, BuildingBlock: GALJAG_clean_sbu_0, # of connection points: 4
#     Node 13, Type 0, BuildingBlock: GALJAG_clean_sbu_0, # of connection points: 4
#     Node 14, Type 0, BuildingBlock: GALJAG_clean_sbu_0, # of connection points: 4
#     Node 15, Type 0, BuildingBlock: GALJAG_clean_sbu_0, # of connection points: 4
#     Node 16, Type 0, BuildingBlock: GALJAG_clean_sbu_0, # of connection points: 4
#     Node 17, Type 0, BuildingBlock: GALJAG_clean_sbu_0, # of connection points: 4
#     Node 18, Type 0, BuildingBlock: GALJAG_clean_sbu_0, # of connection points: 4
#     Node 19, Type 0, BuildingBlock: GALJAG_clean_sbu_0, # of connection points: 4
#     Node 20, Type 0, BuildingBlock: GALJAG_clean_sbu_0, # of connection points: 4
#     Node 21, Type 0, BuildingBlock: GALJAG_clean_sbu_0, # of connection points: 4
#     Node 22, Type 0, BuildingBlock: GALJAG_clean_sbu_0, # of connection points: 4
#     Node 23, Type 0, BuildingBlock: GALJAG_clean_sbu_0, # of connection points: 4
#     Node 24, Type 0, BuildingBlock: GALJAG_clean_sbu_0, # of connection points: 4
#     Node 25, Type 0, BuildingBlock: GALJAG_clean_sbu_0, # of connection points: 4
#     Node 26, Type 0, BuildingBlock: GALJAG_clean_sbu_0, # of connection points: 4
#     Node 27, Type 0, BuildingBlock: GALJAG_clean_sbu_0, # of connection points: 4
#     Node 28, Type 0, BuildingBlock: GALJAG_clean_sbu_0, # of connection points: 4
#     Node 29, Type 0, BuildingBlock: GALJAG_clean_sbu_0, # of connection points: 4
#     Node 30, Type 0, BuildingBlock: GALJAG_clean_sbu_0, # of connection points: 4
#     Node 31, Type 0, BuildingBlock: GALJAG_clean_sbu_0, # of connection points: 4
#     Edge 32, Type (0, 0), BuildingBlock: EZIPEK_clean_linker_0, # of connection points: 2
#     Edge 33, Type (0, 0), BuildingBlock: EZIPEK_clean_linker_0, # of connection points: 2
#     Edge 34, Type (0, 0), BuildingBlock: EZIPEK_clean_linker_0, # of connection points: 2
#     Edge 35, Type (0, 0), BuildingBlock: EZIPEK_clean_linker_0, # of connection points: 2
#     Edge 36, Type (0, 0), BuildingBlock: EZIPEK_clean_linker_0, # of connection points: 2
#     Edge 37, Type (0, 0), BuildingBlock: EZIPEK_clean_linker_0, # of connection points: 2
#     Edge 38, Type (0, 0), BuildingBlock: EZIPEK_clean_linker_0, # of connection points: 2
#     Edge 39, Type (0, 0), BuildingBlock: EZIPEK_clean_linker_0, # of connection points: 2
#     Edge 40, Type (0, 0), BuildingBlock: EZIPEK_clean_linker_0, # of connection points: 2
#     Edge 41, Type (0, 0), BuildingBlock: EZIPEK_clean_linker_0, # of connection points: 2
#     Edge 42, Type (0, 0), BuildingBlock: EZIPEK_clean_linker_0, # of connection points: 2
#     Edge 43, Type (0, 0), BuildingBlock: EZIPEK_clean_linker_0, # of connection points: 2
#     Edge 44, Type (0, 0), BuildingBlock: EZIPEK_clean_linker_0, # of connection points: 2
#     Edge 45, Type (0, 0), BuildingBlock: EZIPEK_clean_linker_0, # of connection points: 2
#     Edge 46, Type (0, 0), BuildingBlock: EZIPEK_clean_linker_0, # of connection points: 2
#     Edge 47, Type (0, 0), BuildingBlock: EZIPEK_clean_linker_0, # of connection points: 2
#     Edge 48, Type (0, 0), BuildingBlock: EZIPEK_clean_linker_0, # of connection points: 2
#     Edge 49, Type (0, 0), BuildingBlock: EZIPEK_clean_linker_0, # of connection points: 2
#     Edge 50, Type (0, 0), BuildingBlock: EZIPEK_clean_linker_0, # of connection points: 2
#     Edge 51, Type (0, 0), BuildingBlock: EZIPEK_clean_linker_0, # of connection points: 2
#     Edge 52, Type (0, 0), BuildingBlock: EZIPEK_clean_linker_0, # of connection points: 2
#     Edge 53, Type (0, 0), BuildingBlock: EZIPEK_clean_linker_0, # of connection points: 2
#     Edge 54, Type (0, 0), BuildingBlock: EZIPEK_clean_linker_0, # of connection points: 2
#     Edge 55, Type (0, 0), BuildingBlock: EZIPEK_clean_linker_0, # of connection points: 2
#     Edge 56, Type (0, 0), BuildingBlock: EZIPEK_clean_linker_0, # of connection points: 2
#     Edge 57, Type (0, 0), BuildingBlock: EZIPEK_clean_linker_0, # of connection points: 2
#     Edge 58, Type (0, 0), BuildingBlock: EZIPEK_clean_linker_0, # of connection points: 2
#     Edge 59, Type (0, 0), BuildingBlock: EZIPEK_clean_linker_0, # of connection points: 2
#     Edge 60, Type (0, 0), BuildingBlock: EZIPEK_clean_linker_0, # of connection points: 2
#     Edge 61, Type (0, 0), BuildingBlock: EZIPEK_clean_linker_0, # of connection points: 2
#     Edge 62, Type (0, 0), BuildingBlock: EZIPEK_clean_linker_0, # of connection points: 2
#     Edge 63, Type (0, 0), BuildingBlock: EZIPEK_clean_linker_0, # of connection points: 2
#     Edge 64, Type (0, 0), BuildingBlock: EZIPEK_clean_linker_0, # of connection points: 2
#     Edge 65, Type (0, 0), BuildingBlock: EZIPEK_clean_linker_0, # of connection points: 2
#     Edge 66, Type (0, 0), BuildingBlock: EZIPEK_clean_linker_0, # of connection points: 2
#     Edge 67, Type (0, 0), BuildingBlock: EZIPEK_clean_linker_0, # of connection points: 2
#     Edge 68, Type (0, 0), BuildingBlock: EZIPEK_clean_linker_0, # of connection points: 2
#     Edge 69, Type (0, 0), BuildingBlock: EZIPEK_clean_linker_0, # of connection points: 2
#     Edge 70, Type (0, 0), BuildingBlock: EZIPEK_clean_linker_0, # of connection points: 2
#     Edge 71, Type (0, 0), BuildingBlock: EZIPEK_clean_linker_0, # of connection points: 2
#     Edge 72, Type (0, 0), BuildingBlock: EZIPEK_clean_linker_0, # of connection points: 2
#     Edge 73, Type (0, 0), BuildingBlock: EZIPEK_clean_linker_0, # of connection points: 2
#     Edge 74, Type (0, 0), BuildingBlock: EZIPEK_clean_linker_0, # of connection points: 2
#     Edge 75, Type (0, 0), BuildingBlock: EZIPEK_clean_linker_0, # of connection points: 2
#     Edge 76, Type (0, 0), BuildingBlock: EZIPEK_clean_linker_0, # of connection points: 2
#     Edge 77, Type (0, 0), BuildingBlock: EZIPEK_clean_linker_0, # of connection points: 2
#     Edge 78, Type (0, 0), BuildingBlock: EZIPEK_clean_linker_0, # of connection points: 2
#     Edge 79, Type (0, 0), BuildingBlock: EZIPEK_clean_linker_0, # of connection points: 2
#     Edge 80, Type (0, 0), BuildingBlock: EZIPEK_clean_linker_0, # of connection points: 2
#     Edge 81, Type (0, 0), BuildingBlock: EZIPEK_clean_linker_0, # of connection points: 2
#     Edge 82, Type (0, 0), BuildingBlock: EZIPEK_clean_linker_0, # of connection points: 2
#     Edge 83, Type (0, 0), BuildingBlock: EZIPEK_clean_linker_0, # of connection points: 2
#     Edge 84, Type (0, 0), BuildingBlock: EZIPEK_clean_linker_0, # of connection points: 2
#     Edge 85, Type (0, 0), BuildingBlock: EZIPEK_clean_linker_0, # of connection points: 2
#     Edge 86, Type (0, 0), BuildingBlock: EZIPEK_clean_linker_0, # of connection points: 2
#     Edge 87, Type (0, 0), BuildingBlock: EZIPEK_clean_linker_0, # of connection points: 2
#     Edge 88, Type (0, 0), BuildingBlock: EZIPEK_clean_linker_0, # of connection points: 2
#     Edge 89, Type (0, 0), BuildingBlock: EZIPEK_clean_linker_0, # of connection points: 2
#     Edge 90, Type (0, 0), BuildingBlock: EZIPEK_clean_linker_0, # of connection points: 2
#     Edge 91, Type (0, 0), BuildingBlock: EZIPEK_clean_linker_0, # of connection points: 2
#     Edge 92, Type (0, 0), BuildingBlock: EZIPEK_clean_linker_0, # of connection points: 2
#     Edge 93, Type (0, 0), BuildingBlock: EZIPEK_clean_linker_0, # of connection points: 2
#     Edge 94, Type (0, 0), BuildingBlock: EZIPEK_clean_linker_0, # of connection points: 2
#     Edge 95, Type (0, 0), BuildingBlock: EZIPEK_clean_linker_0, # of connection points: 2
# Relax obj value: 0.050
# Max RMSD: 0.160
# Mean RMSD: 0.160
data_MOF--net-uoa--node1-GALJAG_clean_sbu_0--edge1-EZIPEK_clean_linker_0
_symmetry_space_group_name_H-M    P1
_symmetry_Int_Tables_number       1
_symmetry_cell_setting            triclinic
loop_
_symmetry_equiv_pos_as_xyz
'x, y, z'
_cell_length_a     54.986469
_cell_length_b     54.956625
_cell_length_c     20.8537
_cell_angle_alpha  89.971208
_cell_angle_beta   89.999794
_cell_angle_gamma 90.017183
loop_
_atom_site_label
_atom_site_type_symbol
_atom_site_fract_x
_atom_site_fract_y
_atom_site_fract_z
_atom_type_partial_charge
In0 In 0.02977 0.06994 0.06969 0.0
O1 O 0.07041 0.07654 0.07931 0.0
O2 O 0.0466 0.10722 0.08282 0.0
C3 C 0.02831 0.0216 0.05629 0.0
C4 C 0.01096 0.07418 0.18849 0.0
C5 C 0.01296 0.0797 0.95064 0.0
O6 O 0.04818 0.03314 0.05506 0.0
O7 O 0.00954 0.03423 0.06596 0.0
O8 O -5e-05 0.08291 0.99994 0.0
O9 O 0.03432 0.07263 0.96174 0.0
C10 C 0.06808 0.09924 0.08637 0.0
O11 O 0.00146 0.08486 0.14084 0.0
O12 O 0.02951 0.06156 0.17586 0.0
In13 In 0.16741 0.79478 0.33575 0.0
O14 O 0.13874 0.77394 0.39542 0.0
O15 O 0.16991 0.7885 0.44235 0.0
C16 C 0.15315 0.78581 0.21388 0.0
C17 C 0.15452 0.84042 0.36221 0.0
C18 C 0.21309 0.77904 0.3203 0.0
O19 O 0.15558 0.76912 0.25512 0.0
O20 O 0.15605 0.80696 0.23566 0.0
O21 O 0.20748 0.80113 0.31207 0.0
O22 O 0.19603 0.76531 0.33805 0.0
C23 C 0.15004 0.77724 0.44761 0.0
O24 O 0.17654 0.8338 0.36582 0.0
O25 O 0.13974 0.82433 0.34346 0.0
In26 In 0.46101 0.92053 0.60021 0.0
O27 O 0.48982 0.90641 0.6697 0.0
O28 O 0.46037 0.92771 0.70652 0.0
C29 C 0.47797 0.91073 0.4826 0.0
C30 C 0.42491 0.8886 0.61621 0.0
C31 C 0.46341 0.9689 0.58777 0.0
O32 O 0.49076 0.9073 0.53219 0.0
O33 O 0.45664 0.91816 0.49262 0.0
O34 O 0.44332 0.95773 0.58409 0.0
O35 O 0.48176 0.95586 0.59915 0.0
C36 C 0.47957 0.91589 0.71796 0.0
O37 O 0.42069 0.91113 0.61039 0.0
O38 O 0.44695 0.88248 0.61172 0.0
In39 In 0.34227 0.2109 0.76187 0.0
O40 O 0.36899 0.2339 0.82166 0.0
O41 O 0.33498 0.22327 0.86259 0.0
C42 C 0.35813 0.21204 0.63957 0.0
C43 C 0.35609 0.16882 0.81279 0.0
C44 C 0.29805 0.22879 0.73723 0.0
O45 O 0.35948 0.23023 0.6766 0.0
O46 O 0.35061 0.19285 0.6661 0.0
O47 O 0.30163 0.20613 0.74326 0.0
O48 O 0.31655 0.24211 0.74401 0.0
C49 C 0.35523 0.23358 0.87045 0.0
O50 O 0.33374 0.17365 0.80483 0.0
O51 O 0.37092 0.18426 0.79087 0.0
In52 In 0.03256 0.88448 0.49446 0.0
O53 O 0.06747 0.9054 0.4721 0.0
O54 O 0.06891 0.86665 0.47581 0.0
C55 C 0.00289 0.92196 0.51741 0.0
C56 C 0.01669 0.87021 0.37813 0.0
C57 C 0.02931 0.86431 0.61198 0.0
O58 O 0.0257 0.92428 0.51505 0.0
O59 O 0.99482 0.90076 0.50798 0.0
O60 O 0.02114 0.8537 0.56265 0.0
O61 O 0.04006 0.88414 0.60125 0.0
C62 C 0.07998 0.88635 0.46541 0.0
O63 O 0.01721 0.8556 0.42503 0.0
O64 O 0.02357 0.89155 0.39059 0.0
In65 In 0.34444 0.76485 0.71661 0.0
O66 O 0.36987 0.74198 0.65331 0.0
O67 O 0.33649 0.75467 0.61364 0.0
C68 C 0.35603 0.75556 0.83955 0.0
C69 C 0.36573 0.80699 0.68619 0.0
C70 C 0.29702 0.75731 0.73683 0.0
O71 O 0.35619 0.73896 0.7974 0.0
O72 O 0.35186 0.77664 0.81846 0.0
O73 O 0.30603 0.77849 0.73518 0.0
O74 O 0.31171 0.74016 0.72585 0.0
C75 C 0.35634 0.74379 0.60438 0.0
O76 O 0.34308 0.80378 0.67919 0.0
O77 O 0.37724 0.78935 0.7103 0.0
In78 In 0.46614 0.11455 0.01657 0.0
O79 O 0.48652 0.14257 0.95314 0.0
O80 O 0.47992 0.10685 0.91734 0.0
C81 C 0.46732 0.13168 0.13839 0.0
C82 C 0.42199 0.12096 0.96711 0.0
C83 C 0.48395 0.07042 0.04312 0.0
O84 O 0.48623 0.12997 0.10424 0.0
O85 O 0.44785 0.12739 0.10877 0.0
O86 O 0.46133 0.0744 0.03958 0.0
O87 O 0.49747 0.08861 0.03357 0.0
C88 C 0.48809 0.12783 0.90656 0.0
O89 O 0.42989 0.09993 0.98052 0.0
O90 O 0.43575 0.13851 0.98186 0.0
In91 In 0.16217 0.21217 0.18499 0.0
O92 O 0.16041 0.17165 0.16315 0.0
O93 O 0.12747 0.19267 0.16141 0.0
C94 C 0.20912 0.22289 0.20306 0.0
C95 C 0.15418 0.23386 0.07227 0.0
C96 C 0.14917 0.21915 0.30767 0.0
O97 O 0.20223 0.20132 0.19159 0.0
O98 O 0.19252 0.23869 0.20456 0.0
O99 O 0.14837 0.236 0.26629 0.0
O100 O 0.15472 0.19851 0.28575 0.0
C101 C 0.13762 0.17225 0.15387 0.0
O102 O 0.14219 0.23984 0.12175 0.0
O103 O 0.1702 0.21775 0.08066 0.0
In104 In 0.98886 0.87668 0.98642 0.0
O105 O 0.00999 0.84841 0.92612 0.0
O106 O -0.00049 0.88209 0.88337 0.0
C107 C 0.99392 0.86254 0.1098 0.0
C108 C 0.94417 0.86628 0.9449 0.0
C109 C 0.00448 0.9222 0.00484 0.0
O110 O 0.01168 0.86315 0.07141 0.0
O111 O 0.97355 0.86651 0.08424 0.0
O112 O 0.98211 0.91698 0.00338 0.0
O113 O 0.0189 0.9047 0.99596 0.0
C114 C 0.0094 0.86163 0.87635 0.0
O115 O 0.95091 0.88799 0.95447 0.0
O116 O 0.95932 0.85001 0.9604 0.0
In117 In 0.83863 0.21108 0.68856 0.0
O118 O 0.83576 0.17052 0.66757 0.0
O119 O 0.8708 0.18752 0.66515 0.0
C120 C 0.79293 0.22483 0.71338 0.0
C121 C 0.84428 0.23002 0.57134 0.0
C122 C 0.85796 0.21967 0.80509 0.0
O123 O 0.79907 0.20267 0.71112 0.0
O124 O 0.80975 0.23995 0.70302 0.0
O125 O 0.8617 0.23346 0.75752 0.0
O126 O 0.8445 0.20166 0.79295 0.0
C127 C 0.85837 0.16842 0.65799 0.0
O128 O 0.85702 0.23738 0.61811 0.0
O129 O 0.82873 0.21392 0.58453 0.0
In130 In 0.50881 0.11211 0.51487 0.0
O131 O 0.4893 0.14158 0.45439 0.0
O132 O 0.49384 0.10599 0.4158 0.0
C133 C 0.50788 0.12817 0.6377 0.0
C134 C 0.55296 0.11939 0.46552 0.0
C135 C 0.49099 0.06767 0.53875 0.0
O136 O 0.48916 0.12811 0.60251 0.0
O137 O 0.52718 0.12233 0.60912 0.0
O138 O 0.51354 0.07152 0.53275 0.0
O139 O 0.47748 0.08607 0.5328 0.0
C140 C 0.48675 0.12747 0.40684 0.0
O141 O 0.54471 0.09816 0.47441 0.0
O142 O 0.53954 0.13661 0.48432 0.0
In143 In 0.65617 0.7787 0.18757 0.0
O144 O 0.63556 0.75002 0.12783 0.0
O145 O 0.66289 0.7716 0.08266 0.0
C146 C 0.64753 0.76822 0.31205 0.0
C147 C 0.6316 0.8196 0.16306 0.0
C148 C 0.70435 0.7728 0.19438 0.0
O149 O 0.64155 0.75379 0.26754 0.0
O150 O 0.65675 0.78801 0.29354 0.0
O151 O 0.69484 0.79357 0.18762 0.0
O152 O 0.68967 0.75516 0.19628 0.0
C153 C 0.64706 0.75519 0.07705 0.0
O154 O 0.65452 0.81905 0.1641 0.0
O155 O 0.62107 0.79972 0.17523 0.0
In156 In 0.96084 0.06342 0.57085 0.0
O157 O 0.9203 0.06906 0.58632 0.0
O158 O 0.9429 0.10036 0.57389 0.0
C159 C 0.96344 0.01487 0.56298 0.0
C160 C 0.97986 0.07134 0.68838 0.0
C161 C 0.97641 0.07279 0.45057 0.0
O162 O 0.94333 0.02591 0.5604 0.0
O163 O 0.98189 0.02815 0.57121 0.0
O164 O 0.98869 0.07897 0.49922 0.0
O165 O 0.95639 0.06263 0.46275 0.0
C166 C 0.92196 0.09197 0.58508 0.0
O167 O 0.9904 0.0788 0.63809 0.0
O168 O 0.96039 0.05979 0.67882 0.0
In169 In 0.64516 0.20725 0.27654 0.0
O170 O 0.62272 0.23369 0.33835 0.0
O171 O 0.6548 0.2175 0.37762 0.0
C172 C 0.6313 0.21262 0.15318 0.0
C173 C 0.62416 0.1673 0.32204 0.0
C174 C 0.69141 0.21876 0.2527 0.0
O175 O 0.63239 0.2302 0.19226 0.0
O176 O 0.63494 0.1921 0.1784 0.0
O177 O 0.68492 0.19677 0.25988 0.0
O178 O 0.67481 0.2344 0.25873 0.0
C179 C 0.63663 0.23105 0.38635 0.0
O180 O 0.64704 0.16841 0.31479 0.0
O181 O 0.61222 0.1855 0.3026 0.0
In182 In 0.52636 0.92515 0.10046 0.0
O183 O 0.49792 0.91163 0.17244 0.0
O184 O 0.53123 0.92665 0.20724 0.0
C185 C 0.51332 0.91607 0.97958 0.0
C186 C 0.56498 0.89634 0.10737 0.0
C187 C 0.51683 0.97277 0.09388 0.0
O188 O 0.50096 0.90805 0.02645 0.0
O189 O 0.53242 0.92757 0.99412 0.0
O190 O 0.53836 0.96495 0.10068 0.0
O191 O 0.50049 0.95668 0.0923 0.0
C192 C 0.51082 0.91749 0.22046 0.0
O193 O 0.56717 0.9193 0.10637 0.0
O194 O 0.54357 0.88816 0.10246 0.0
In195 In 0.85292 0.7748 0.76077 0.0
O196 O 0.87741 0.74855 0.81807 0.0
O197 O 0.84575 0.76355 0.86255 0.0
C198 C 0.86491 0.77389 0.63544 0.0
C199 C 0.8732 0.815 0.80757 0.0
C200 C 0.80655 0.76132 0.74381 0.0
O201 O 0.86779 0.75555 0.6715 0.0
O202 O 0.85783 0.79288 0.66383 0.0
O203 O 0.81232 0.78317 0.75588 0.0
O204 O 0.82404 0.74648 0.74087 0.0
C205 C 0.86454 0.75065 0.86826 0.0
O206 O 0.85034 0.81332 0.80101 0.0
O207 O 0.88549 0.7973 0.78664 0.0
In208 In 0.51639 0.60777 0.50265 0.0
O209 O 0.55563 0.60049 0.53248 0.0
O210 O 0.54199 0.63699 0.53703 0.0
C211 C 0.50326 0.56157 0.47875 0.0
C212 C 0.49243 0.6184 0.61188 0.0
C213 C 0.51361 0.62359 0.3798 0.0
O214 O 0.52463 0.56708 0.49597 0.0
O215 O 0.48876 0.57923 0.47356 0.0
O216 O 0.49519 0.62245 0.41597 0.0
O217 O 0.53346 0.61906 0.40752 0.0
C218 C 0.55949 0.62255 0.54669 0.0
O219 O 0.49206 0.63287 0.56458 0.0
O220 O 0.50356 0.59873 0.60229 0.0
In221 In 0.64657 0.26434 0.77668 0.0
O222 O 0.64482 0.3032 0.81355 0.0
O223 O 0.61188 0.28605 0.78267 0.0
C224 C 0.6936 0.25376 0.76028 0.0
C225 C 0.63688 0.24247 0.88908 0.0
C226 C 0.63605 0.25849 0.65171 0.0
O227 O 0.6864 0.27552 0.76696 0.0
O228 O 0.67725 0.23768 0.76305 0.0
O229 O 0.63307 0.24147 0.69214 0.0
O230 O 0.64265 0.27856 0.67541 0.0
C231 C 0.62192 0.30449 0.80728 0.0
O232 O 0.625 0.23721 0.83876 0.0
O233 O 0.65358 0.25792 0.88179 0.0
In234 In 0.96195 0.4058 0.03258 0.0
O235 O 0.99181 0.38562 0.08787 0.0
O236 O 0.96835 0.41015 0.13832 0.0
C237 C 0.96731 0.39648 0.90707 0.0
C238 C 0.92265 0.37956 0.06134 0.0
C239 C 0.97215 0.45327 0.02598 0.0
O240 O 0.98307 0.38989 0.9478 0.0
O241 O 0.94875 0.40677 0.93002 0.0
O242 O 0.95098 0.44572 0.03933 0.0
O243 O 0.98797 0.43696 0.01744 0.0
C244 C 0.98573 0.39521 0.14072 0.0
O245 O 0.92138 0.40244 0.0551 0.0
O246 O 0.94329 0.37034 0.05084 0.0
In247 In 0.84945 0.73066 0.25811 0.0
O248 O 0.87625 0.75358 0.31892 0.0
O249 O 0.84108 0.74552 0.35599 0.0
C250 C 0.86574 0.73044 0.13558 0.0
C251 C 0.86028 0.68775 0.30932 0.0
C252 C 0.80415 0.74552 0.23286 0.0
O253 O 0.86505 0.74961 0.16903 0.0
O254 O 0.86054 0.71131 0.16592 0.0
O255 O 0.80885 0.72378 0.24831 0.0
O256 O 0.82224 0.7596 0.22959 0.0
C257 C 0.86164 0.75482 0.36581 0.0
O258 O 0.83861 0.69322 0.29489 0.0
O259 O 0.8763 0.70339 0.29558 0.0
In260 In 0.52961 0.41529 0.93577 0.0
O261 O 0.56898 0.40626 0.91126 0.0
O262 O 0.54219 0.37782 0.91349 0.0
C263 C 0.5212 0.46272 0.9484 0.0
C264 C 0.50761 0.40953 0.82335 0.0
C265 C 0.5247 0.40545 0.06073 0.0
O266 O 0.54266 0.45467 0.94093 0.0
O267 O 0.5045 0.44696 0.94842 0.0
O268 O 0.50726 0.40272 0.02155 0.0
O269 O 0.54475 0.41143 0.03586 0.0
C270 C 0.56401 0.3839 0.90294 0.0
O271 O 0.49933 0.39942 0.87365 0.0
O272 O 0.52624 0.42272 0.83077 0.0
In273 In 0.83488 0.26422 0.17985 0.0
O274 O 0.83496 0.30374 0.14564 0.0
O275 O 0.8684 0.28778 0.17651 0.0
C276 C 0.78809 0.25253 0.19361 0.0
C277 C 0.8466 0.24351 0.06728 0.0
C278 C 0.84482 0.25599 0.3037 0.0
O279 O 0.7947 0.27416 0.18137 0.0
O280 O 0.80501 0.23702 0.1971 0.0
O281 O 0.85099 0.24101 0.26043 0.0
O282 O 0.83467 0.27521 0.28399 0.0
C283 C 0.85773 0.30592 0.15247 0.0
O284 O 0.86023 0.24162 0.11598 0.0
O285 O 0.82664 0.25404 0.07718 0.0
In286 In 0.95592 0.5963 0.47409 0.0
O287 O 0.9159 0.59496 0.44562 0.0
O288 O 0.93301 0.62958 0.45734 0.0
C289 C 0.96787 0.54931 0.48446 0.0
C290 C 0.978 0.60647 0.36308 0.0
C291 C 0.96523 0.60859 0.59609 0.0
O292 O 0.94592 0.55617 0.48443 0.0
O293 O 0.98351 0.56593 0.47852 0.0
O294 O 0.97882 0.61532 0.55053 0.0
O295 O 0.94679 0.59645 0.57983 0.0
C296 C 0.91433 0.61782 0.44095 0.0
O297 O 0.98338 0.61792 0.4138 0.0
O298 O 0.9622 0.59001 0.36924 0.0
In299 In 0.66033 0.71754 0.69141 0.0
O300 O 0.65778 0.67762 0.66226 0.0
O301 O 0.62496 0.69826 0.67433 0.0
C302 C 0.70713 0.72978 0.70674 0.0
C303 C 0.65268 0.73814 0.57696 0.0
C304 C 0.6487 0.72386 0.81533 0.0
O305 O 0.70048 0.70771 0.70344 0.0
O306 O 0.69035 0.7453 0.70132 0.0
O307 O 0.64462 0.74017 0.77362 0.0
O308 O 0.65696 0.7041 0.79352 0.0
C309 C 0.63476 0.67836 0.65847 0.0
O310 O 0.64124 0.74536 0.62634 0.0
O311 O 0.66792 0.72134 0.58633 0.0
In312 In 0.472 0.41311 0.43321 0.0
O313 O 0.50451 0.39874 0.37658 0.0
O314 O 0.47625 0.41803 0.32697 0.0
C315 C 0.47938 0.4051 0.55845 0.0
C316 C 0.43832 0.38019 0.40203 0.0
C317 C 0.4764 0.46146 0.43814 0.0
O318 O 0.49519 0.3996 0.5168 0.0
O319 O 0.45973 0.41364 0.5367 0.0
O320 O 0.45591 0.45145 0.42889 0.0
O321 O 0.49424 0.44716 0.44324 0.0
C322 C 0.49614 0.40664 0.32387 0.0
O323 O 0.43268 0.40231 0.41066 0.0
O324 O 0.46028 0.37497 0.41301 0.0
In325 In 0.34653 0.71302 0.22559 0.0
O326 O 0.33782 0.67377 0.19723 0.0
O327 O 0.37496 0.68527 0.2026 0.0
C328 C 0.30407 0.7336 0.25509 0.0
C329 C 0.35441 0.73156 0.10856 0.0
C330 C 0.36681 0.71882 0.34229 0.0
O331 O 0.30632 0.71073 0.25074 0.0
O332 O 0.32299 0.74591 0.24403 0.0
O333 O 0.37202 0.73227 0.29498 0.0
O334 O 0.35169 0.7022 0.32958 0.0
C335 C 0.36003 0.66869 0.18857 0.0
O336 O 0.36961 0.73464 0.15351 0.0
O337 O 0.3353 0.72027 0.1236 0.0
In338 In 0.01439 0.59985 0.97718 0.0
O339 O 0.05484 0.60562 0.96143 0.0
O340 O 0.03062 0.63631 0.95718 0.0
C341 C 0.00275 0.55289 0.99033 0.0
C342 C 0.99484 0.60533 0.86102 0.0
C343 C 0.00816 0.61084 0.10041 0.0
O344 O 0.02387 0.55939 0.97275 0.0
O345 O 0.98805 0.57 1.00112 0.0
O346 O 0.99265 0.61703 0.05831 0.0
O347 O 0.02724 0.60081 0.0793 0.0
C348 C 0.05205 0.62821 0.95098 0.0
O349 O 0.98396 0.61319 0.91061 0.0
O350 O 0.01501 0.5951 0.87122 0.0
In351 In 0.15392 0.27254 0.68339 0.0
O352 O 0.13742 0.24236 0.62097 0.0
O353 O 0.15939 0.26984 0.57693 0.0
C354 C 0.14757 0.26365 0.80816 0.0
C355 C 0.12272 0.30888 0.66178 0.0
C356 C 0.20178 0.26512 0.69035 0.0
O357 O 0.14043 0.24876 0.76561 0.0
O358 O 0.15683 0.28321 0.78741 0.0
O359 O 0.19313 0.28635 0.68302 0.0
O360 O 0.18634 0.24814 0.69305 0.0
C361 C 0.14675 0.25091 0.57005 0.0
O362 O 0.14535 0.31129 0.65224 0.0
O363 O 0.11633 0.28888 0.68637 0.0
In364 In 0.46937 0.60523 0.00414 0.0
O365 O 0.43267 0.59245 0.04193 0.0
O366 O 0.43923 0.63072 0.03243 0.0
C367 C 0.48804 0.56102 0.98394 0.0
C368 C 0.49141 0.62023 0.11244 0.0
C369 C 0.47051 0.61946 0.88014 0.0
O370 O 0.46573 0.56423 0.99594 0.0
O371 O 0.50092 0.58001 0.98233 0.0
O372 O 0.4884 0.62256 0.91741 0.0
O373 O 0.45166 0.61126 0.9069 0.0
C374 C 0.42508 0.61393 0.05034 0.0
O375 O 0.489 0.63448 0.06508 0.0
O376 O 0.48406 0.59885 0.1033 0.0
In377 In 0.14918 0.73712 0.83003 0.0
O378 O 0.13532 0.76593 0.90123 0.0
O379 O 0.16024 0.73889 0.93414 0.0
C380 C 0.13716 0.75042 0.71035 0.0
C381 C 0.11993 0.69949 0.85632 0.0
C382 C 0.19645 0.74186 0.80463 0.0
O383 O 0.13049 0.76266 0.75885 0.0
O384 O 0.14839 0.73096 0.72313 0.0
O385 O 0.18655 0.72114 0.81008 0.0
O386 O 0.1827 0.75996 0.8135 0.0
C387 C 0.1472 0.75699 0.94773 0.0
O388 O 0.1428 0.69788 0.86096 0.0
O389 O 0.11212 0.71938 0.83432 0.0
In390 In 0.01507 0.40479 0.52876 0.0
O391 O 0.98598 0.38638 0.5908 0.0
O392 O 0.00979 0.41302 0.6325 0.0
C393 C 0.01252 0.39315 0.4041 0.0
C394 C 0.05269 0.37808 0.56598 0.0
C395 C 0.00263 0.45126 0.51339 0.0
O396 O 0.99463 0.39016 0.44173 0.0
O397 O 0.03191 0.40007 0.43075 0.0
O398 O 0.02437 0.44527 0.52637 0.0
O399 O 0.98764 0.434 0.50823 0.0
C400 C 0.99264 0.39802 0.64045 0.0
O401 O 0.05515 0.40062 0.55403 0.0
O402 O 0.03163 0.36941 0.5571 0.0
In403 In 0.35586 0.26185 0.2637 0.0
O404 O 0.37526 0.233 0.32532 0.0
O405 O 0.34834 0.25597 0.36835 0.0
C406 C 0.36475 0.257 0.13779 0.0
C407 C 0.38218 0.30088 0.29624 0.0
C408 C 0.30882 0.25134 0.24727 0.0
O409 O 0.3686 0.23972 0.17695 0.0
O410 O 0.35852 0.27687 0.16327 0.0
O411 O 0.3161 0.27316 0.25265 0.0
O412 O 0.32507 0.23524 0.25167 0.0
C413 C 0.36349 0.23897 0.37533 0.0
O414 O 0.35923 0.30038 0.30218 0.0
O415 O 0.39148 0.28213 0.27113 0.0
C416 C 0.99568 0.09757 0.77944 0.0
C417 C 0.98985 0.07425 0.75417 0.0
C418 C 0.99451 0.05634 0.86088 0.0
C419 C 0.00291 0.07894 0.88479 0.0
N420 N 0.0147 0.1205 0.86568 0.0
N421 N 0.99051 0.03066 0.76764 0.0
C422 C 0.00452 0.09942 0.84365 0.0
C423 C 0.99115 0.0534 0.79406 0.0
N424 N 0.99175 0.11798 0.74348 0.0
N425 N 0.98934 0.0377 0.90204 0.0
H426 H 0.98994 0.02784 0.71822 0.0
H427 H 0.9936 0.01483 0.79393 0.0
H428 H 0.99124 0.03925 0.95156 0.0
H429 H 0.98096 0.02161 0.88751 0.0
H430 H 0.9933 0.13555 0.76171 0.0
H431 H 0.985 0.11742 0.6968 0.0
H432 H 0.01882 0.13521 0.83609 0.0
H433 H 0.02045 0.12264 0.91304 0.0
C434 C 0.13511 0.75188 0.06307 0.0
C435 C 0.14588 0.76633 0.01427 0.0
C436 C 0.16193 0.79391 0.09606 0.0
C437 C 0.14909 0.78072 0.14446 0.0
N438 N 0.11747 0.75169 0.16919 0.0
N439 N 0.16535 0.80382 0.98311 0.0
C440 C 0.13381 0.7611 0.12648 0.0
C441 C 0.15759 0.78843 0.03036 0.0
N442 N 0.1268 0.72902 0.04974 0.0
N443 N 0.17979 0.81015 0.11198 0.0
H444 H 0.16356 0.79991 0.93442 0.0
H445 H 0.17165 0.82136 0.99237 0.0
H446 H 0.18526 0.81376 0.15872 0.0
H447 H 0.19129 0.81808 0.07821 0.0
H448 H 0.12096 0.71696 0.08514 0.0
H449 H 0.12795 0.72123 0.00437 0.0
H450 H 0.10449 0.73873 0.15647 0.0
H451 H 0.11492 0.75891 0.21495 0.0
C452 C 0.50553 0.93513 0.33033 0.0
C453 C 0.50255 0.91509 0.28786 0.0
C454 C 0.48341 0.89158 0.37436 0.0
C455 C 0.48832 0.91089 0.41743 0.0
N456 N 0.50829 0.94905 0.43998 0.0
N457 N 0.49335 0.87246 0.273 0.0
C458 C 0.50082 0.93197 0.39655 0.0
C459 C 0.49269 0.89279 0.3107 0.0
N460 N 0.51152 0.95765 0.3072 0.0
N461 N 0.46977 0.8722 0.39417 0.0
H462 H 0.50084 0.87231 0.2271 0.0
H463 H 0.48863 0.8552 0.28943 0.0
H464 H 0.46378 0.87021 0.44138 0.0
H465 H 0.46317 0.85893 0.36306 0.0
H466 H 0.51087 0.97341 0.33488 0.0
H467 H 0.51478 0.96124 0.25901 0.0
H468 H 0.51987 0.96339 0.42831 0.0
H469 H 0.50476 0.94779 0.48892 0.0
C470 C 0.35263 0.2074 0.45624 0.0
C471 C 0.367 0.22768 0.43905 0.0
C472 C 0.38176 0.23039 0.54938 0.0
C473 C 0.36339 0.21397 0.56951 0.0
N474 N 0.32875 0.18866 0.53958 0.0
N475 N 0.39255 0.26106 0.47175 0.0
C476 C 0.34838 0.20248 0.52234 0.0
C477 C 0.38103 0.23978 0.48618 0.0
N478 N 0.34239 0.19334 0.40945 0.0
N479 N 0.40002 0.23689 0.59036 0.0
H480 H 0.39139 0.26894 0.42653 0.0
H481 H 0.40107 0.27189 0.5061 0.0
H482 H 0.40184 0.22927 0.63595 0.0
H483 H 0.4148 0.24748 0.57617 0.0
H484 H 0.33362 0.17692 0.41896 0.0
H485 H 0.34483 0.19693 0.36071 0.0
H486 H 0.31585 0.18258 0.50671 0.0
H487 H 0.32367 0.185 0.58652 0.0
C488 C 0.99715 0.84822 0.76801 0.0
C489 C 0.01622 0.8532 0.81152 0.0
C490 C 0.04493 0.85529 0.72207 0.0
C491 C 0.02503 0.85579 0.67861 0.0
N492 N 0.98143 0.85446 0.66124 0.0
N493 N 0.05855 0.86062 0.8321 0.0
C494 C 0.00093 0.85211 0.70147 0.0
C495 C 0.04034 0.85603 0.78925 0.0
N496 N 0.97528 0.84022 0.7908 0.0
N497 N 0.06813 0.85406 0.69882 0.0
H498 H 0.05569 0.86025 0.88158 0.0
H499 H 0.07606 0.86574 0.81872 0.0
H500 H 0.07188 0.85302 0.64981 0.0
H501 H 0.08338 0.85175 0.7278 0.0
H502 H 0.96118 0.8343 0.7613 0.0
H503 H 0.9723 0.83711 0.83953 0.0
H504 H 0.96351 0.85502 0.67737 0.0
H505 H 0.98294 0.85786 0.61232 0.0
C506 C 0.3391 0.76051 0.95065 0.0
C507 C 0.35725 0.75058 0.90953 0.0
C508 C 0.3751 0.72896 1.00121 0.0
C509 C 0.35805 0.74043 0.04238 0.0
N510 N 0.32795 0.77152 0.05913 0.0
N511 N 0.39543 0.72937 0.898 0.0
C512 C 0.34144 0.75768 0.01789 0.0
C513 C 0.37614 0.73596 0.93547 0.0
N514 N 0.31869 0.77118 0.92577 0.0
N515 N 0.38951 0.71066 0.0241 0.0
H516 H 0.39708 0.7346 0.85011 0.0
H517 H 0.41084 0.72071 0.91594 0.0
H518 H 0.38957 0.70534 0.07212 0.0
H519 H 0.40011 0.69962 0.99466 0.0
H520 H 0.30382 0.77621 0.95374 0.0
H521 H 0.31518 0.77258 0.87686 0.0
H522 H 0.31719 0.78607 0.04418 0.0
H523 H 0.32953 0.77008 0.10887 0.0
C524 C 0.48477 0.15202 0.23641 0.0
C525 C 0.46836 0.13486 0.20946 0.0
C526 C 0.45743 0.1216 0.31824 0.0
C527 C 0.47725 0.13486 0.34324 0.0
N528 N 0.51115 0.16194 0.32581 0.0
N529 N 0.44138 0.10031 0.2268 0.0
C530 C 0.4911 0.15023 0.30251 0.0
C531 C 0.45488 0.11912 0.25084 0.0
N532 N 0.49405 0.17023 0.19907 0.0
N533 N 0.44129 0.11089 0.35934 0.0
H534 H 0.43981 0.09622 0.17836 0.0
H535 H 0.43371 0.08687 0.25568 0.0
H536 H 0.4429 0.11246 0.40908 0.0
H537 H 0.42513 0.10284 0.34418 0.0
H538 H 0.50446 0.18446 0.21735 0.0
H539 H 0.48916 0.17249 0.15109 0.0
H540 H 0.5237 0.1708 0.29654 0.0
H541 H 0.51609 0.16152 0.37405 0.0
C542 C 0.12986 0.25162 0.45851 0.0
C543 C 0.1439 0.23972 0.50613 0.0
C544 C 0.1615 0.21332 0.42409 0.0
C545 C 0.14572 0.22387 0.37729 0.0
N546 N 0.10955 0.24749 0.35641 0.0
N547 N 0.16917 0.20585 0.5369 0.0
C548 C 0.12814 0.24121 0.39661 0.0
C549 C 0.15811 0.21918 0.48989 0.0
N550 N 0.1191 0.27348 0.4711 0.0
N551 N 0.18108 0.19956 0.40618 0.0
H552 H 0.16789 0.21021 0.58545 0.0
H553 H 0.17777 0.18929 0.52804 0.0
H554 H 0.18581 0.19597 0.35888 0.0
H555 H 0.19444 0.19391 0.43833 0.0
H556 H 0.11051 0.2839 0.436 0.0
H557 H 0.12104 0.28234 0.51486 0.0
H558 H 0.09521 0.25867 0.37056 0.0
H559 H 0.10696 0.23924 0.31188 0.0
C560 C 0.98875 0.87831 0.28736 0.0
C561 C 0.0076 0.86389 0.31337 0.0
C562 C 0.01286 0.8441 0.20881 0.0
C563 C 0.99718 0.86165 0.18063 0.0
N564 N 0.97402 0.89903 0.19348 0.0
N565 N 0.0393 0.83412 0.29821 0.0
C566 C 0.98586 0.87957 0.21998 0.0
C567 C 0.01998 0.84681 0.27419 0.0
N568 N 0.97359 0.8909 0.32729 0.0
N569 N 0.02057 0.82463 0.17355 0.0
H570 H 0.04488 0.83543 0.34587 0.0
H571 H 0.0508 0.8236 0.26983 0.0
H572 H 0.01522 0.82183 0.12612 0.0
H573 H 0.03021 0.81011 0.19314 0.0
H574 H 0.95813 0.90001 0.31117 0.0
H575 H 0.97499 0.88993 0.37715 0.0
H576 H 0.96789 0.91374 0.22051 0.0
H577 H 0.97278 0.9022 0.14441 0.0
C578 C 0.856 0.25606 0.95428 0.0
C579 C 0.85464 0.23731 1.00141 0.0
C580 C 0.86541 0.20709 0.91948 0.0
C581 C 0.86479 0.2258 0.87246 0.0
N582 N 0.87329 0.26814 0.85272 0.0
N583 N 0.86225 0.19564 0.03206 0.0
C584 C 0.86448 0.25035 0.89209 0.0
C585 C 0.86106 0.21302 0.98519 0.0
N586 N 0.84874 0.27929 0.96779 0.0
N587 N 0.87003 0.18375 0.90052 0.0
H588 H 0.85772 0.19904 0.07974 0.0
H589 H 0.86848 0.17801 0.02479 0.0
H590 H 0.87599 0.17969 0.8542 0.0
H591 H 0.8683 0.16854 0.92983 0.0
H592 H 0.84656 0.29254 0.93247 0.0
H593 H 0.84353 0.28521 0.01314 0.0
H594 H 0.87508 0.28623 0.867 0.0
H595 H 0.88241 0.26423 0.81017 0.0
C596 C 0.51652 0.11855 0.81806 0.0
C597 C 0.49805 0.13381 0.8424 0.0
C598 C 0.4919 0.15057 0.73452 0.0
C599 C 0.50668 0.13177 0.70859 0.0
N600 N 0.53027 0.09501 0.72782 0.0
N601 N 0.46666 0.16362 0.82343 0.0
C602 C 0.51866 0.11522 0.75084 0.0
C603 C 0.48555 0.14995 0.80077 0.0
N604 N 0.53173 0.10681 0.85965 0.0
N605 N 0.48428 0.16922 0.69614 0.0
H606 H 0.46178 0.16406 0.8717 0.0
H607 H 0.45492 0.17331 0.79367 0.0
H608 H 0.48929 0.17064 0.64803 0.0
H609 H 0.47523 0.18449 0.71361 0.0
H610 H 0.54702 0.09714 0.84478 0.0
H611 H 0.53046 0.10902 0.90928 0.0
H612 H 0.53676 0.08119 0.75744 0.0
H613 H 0.53118 0.09035 0.67959 0.0
C614 C 0.62737 0.74711 0.47861 0.0
C615 C 0.64978 0.74886 0.51225 0.0
C616 C 0.67051 0.76058 0.41333 0.0
C617 C 0.64788 0.76107 0.38066 0.0
N618 N 0.60416 0.7584 0.38399 0.0
N619 N 0.69132 0.76287 0.51525 0.0
C620 C 0.62607 0.7554 0.41383 0.0
C621 C 0.6709 0.75742 0.48067 0.0
N622 N 0.60772 0.73644 0.50724 0.0
N623 N 0.6918 0.76154 0.3796 0.0
H624 H 0.69211 0.76129 0.56508 0.0
H625 H 0.7065 0.77136 0.49535 0.0
H626 H 0.69235 0.76216 0.32971 0.0
H627 H 0.7088 0.75884 0.40046 0.0
H628 H 0.59178 0.73214 0.48275 0.0
H629 H 0.60794 0.73023 0.55448 0.0
H630 H 0.58755 0.75697 0.40768 0.0
H631 H 0.60265 0.76422 0.33653 0.0
C632 C 0.98914 0.09658 0.35249 0.0
C633 C 0.98597 0.07394 0.38417 0.0
C634 C 0.99486 0.05231 0.28433 0.0
C635 C 0.00057 0.07472 0.25415 0.0
N636 N 0.00653 0.11813 0.2617 0.0
N637 N 0.99134 0.03039 0.38434 0.0
C638 C -0.00146 0.09692 0.28869 0.0
C639 C 0.99039 0.05183 0.35121 0.0
N640 N 0.98258 0.11764 0.38268 0.0
N641 N 0.99279 0.03157 0.24859 0.0
H642 H 0.98912 0.02941 0.43394 0.0
H643 H 0.99689 0.01402 0.36381 0.0
H644 H 0.99483 0.0314 0.19887 0.0
H645 H 0.98642 0.01515 0.26716 0.0
H646 H 0.98195 0.13446 0.35974 0.0
H647 H 0.97603 0.118 0.42963 0.0
H648 H 0.00797 0.13441 0.28693 0.0
H649 H 0.01352 0.11909 0.21529 0.0
C650 C 0.64083 0.20213 0.03576 0.0
C651 C 0.62834 0.21657 0.08257 0.0
C652 C 0.62083 0.24752 1.00087 0.0
C653 C 0.63137 0.23242 0.95337 0.0
N654 N 0.64605 0.19283 0.92277 0.0
N655 N 0.59861 0.24821 0.10054 0.0
C656 C 0.63922 0.20872 0.96977 0.0
C657 C 0.61571 0.23767 0.06206 0.0
N658 N 0.65595 0.18354 0.05332 0.0
N659 N 0.61677 0.27161 0.98914 0.0
H660 H 0.59315 0.24048 0.14395 0.0
H661 H 0.5878 0.26271 0.0854 0.0
H662 H 0.62169 0.27997 0.94626 0.0
H663 H 0.61099 0.28369 0.02455 0.0
H664 H 0.66742 0.17478 0.02094 0.0
H665 H 0.65929 0.17817 0.10016 0.0
H666 H 0.6496 0.1745 0.93169 0.0
H667 H 0.64598 0.19742 0.87423 0.0
C668 C 0.49647 0.93726 0.81283 0.0
C669 C 0.49002 0.91505 0.78306 0.0
C670 C 0.50088 0.89277 0.8809 0.0
C671 C 0.50458 0.9153 0.9126 0.0
N672 N 0.50073 0.95913 0.91244 0.0
N673 N 0.48308 0.87178 0.78986 0.0
C674 C 0.501 0.93761 0.87957 0.0
C675 C 0.49149 0.89275 0.81724 0.0
N676 N 0.49896 0.95794 0.77693 0.0
N677 N 0.50706 0.87151 0.91075 0.0
H678 H 0.47628 0.87107 0.7432 0.0
H679 H 0.48118 0.85549 0.81489 0.0
H680 H 0.51397 0.8709 0.95731 0.0
H681 H 0.50719 0.85471 0.88769 0.0
H682 H 0.50597 0.97414 0.7951 0.0
H683 H 0.49648 0.95821 0.72735 0.0
H684 H 0.49579 0.97566 0.89171 0.0
H685 H 0.50283 0.96017 0.96198 0.0
C686 C 0.88685 0.76021 0.5354 0.0
C687 C 0.86695 0.77254 0.56424 0.0
C688 C 0.85075 0.78134 0.45714 0.0
C689 C 0.86758 0.76492 0.42991 0.0
N690 N 0.90099 0.73688 0.44424 0.0
N691 N 0.8272 0.79121 0.55086 0.0
C692 C 0.88575 0.75408 0.46906 0.0
C693 C 0.84829 0.78251 0.52474 0.0
N694 N 0.90699 0.75476 0.57096 0.0
N695 N 0.83677 0.79555 0.41801 0.0
H696 H 0.82329 0.79084 0.59966 0.0
H697 H 0.81223 0.79623 0.52324 0.0
H698 H 0.83854 0.79519 0.36816 0.0
H699 H 0.82557 0.8094 0.43514 0.0
H700 H 0.92289 0.74774 0.55106 0.0
H701 H 0.90873 0.75967 0.61906 0.0
H702 H 0.91237 0.72618 0.47255 0.0
H703 H 0.90114 0.73209 0.39593 0.0
C704 C 0.48815 0.64261 0.21754 0.0
C705 C 0.50147 0.62725 0.17568 0.0
C706 C 0.52447 0.61098 0.26632 0.0
C707 C 0.51163 0.62678 0.30883 0.0
N708 N 0.48645 0.66241 0.32136 0.0
N709 N 0.537 0.60293 0.15691 0.0
C710 C 0.49513 0.64417 0.28324 0.0
C711 C 0.52136 0.61369 0.19917 0.0
N712 N 0.46802 0.65458 0.19569 0.0
N713 N 0.53791 0.59192 0.28916 0.0
H714 H 0.535 0.60468 0.10731 0.0
H715 H 0.5532 0.59465 0.17096 0.0
H716 H 0.53986 0.58774 0.33743 0.0
H717 H 0.54511 0.57844 0.25961 0.0
H718 H 0.45584 0.66349 0.22588 0.0
H719 H 0.46264 0.65429 0.14776 0.0
H720 H 0.476 0.67678 0.30394 0.0
H721 H 0.49187 0.66457 0.36897 0.0
C722 C 0.64998 0.25928 0.47196 0.0
C723 C 0.63251 0.24249 0.44952 0.0
C724 C 0.61375 0.24148 0.55612 0.0
C725 C 0.63382 0.25473 0.58117 0.0
N726 N 0.67315 0.27373 0.56229 0.0
N727 N 0.59857 0.21587 0.47033 0.0
C728 C 0.65236 0.26333 0.53889 0.0
C729 C 0.6144 0.23329 0.4914 0.0
N730 N 0.66444 0.27127 0.42896 0.0
N731 N 0.59376 0.23736 0.59351 0.0
H732 H 0.59806 0.20991 0.42288 0.0
H733 H 0.58705 0.20622 0.50081 0.0
H734 H 0.59223 0.24394 0.64024 0.0
H735 H 0.57775 0.22971 0.57604 0.0
H736 H 0.67592 0.28556 0.44164 0.0
H737 H 0.66302 0.2686 0.37953 0.0
H738 H 0.68827 0.27746 0.53384 0.0
H739 H 0.67667 0.27648 0.61071 0.0
C740 C 0.98335 0.37352 0.73973 0.0
C741 C 0.98123 0.39547 0.7042 0.0
C742 C 0.97105 0.41775 0.80165 0.0
C743 C 0.97169 0.39569 0.83706 0.0
N744 N 0.97356 0.35186 0.83797 0.0
N745 N 0.96633 0.43656 0.69755 0.0
C746 C 0.97632 0.37329 0.80552 0.0
C747 C 0.97273 0.41692 0.73406 0.0
N748 N 0.99323 0.35333 0.71183 0.0
N749 N 0.97068 0.43965 0.83265 0.0
H750 H 0.96693 0.43625 0.64751 0.0
H751 H 0.95804 0.45203 0.71645 0.0
H752 H 0.97149 0.44118 0.88237 0.0
H753 H 0.97252 0.45627 0.80909 0.0
H754 H -0.0021 0.33774 0.73743 0.0
H755 H -0.00178 0.35269 0.66364 0.0
H756 H 0.97436 0.33489 0.81588 0.0
H757 H 0.96836 0.35112 0.88606 0.0
C758 C 0.88809 0.74597 0.03856 0.0
C759 C 0.86954 0.73092 0.06469 0.0
C760 C 0.85584 0.72133 0.9553 0.0
C761 C 0.87084 0.74002 0.93125 0.0
N762 N 0.90129 0.7708 0.9488 0.0
N763 N 0.83377 0.70574 0.04617 0.0
C764 C 0.8873 0.75229 0.97235 0.0
C765 C 0.85317 0.71851 0.02265 0.0
N766 N 0.90666 0.75384 0.07683 0.0
N767 N 0.84377 0.70654 0.91332 0.0
H768 H 0.83011 0.70334 0.09458 0.0
H769 H 0.81977 0.69919 0.01729 0.0
H770 H 0.84542 0.70849 0.86369 0.0
H771 H 0.83434 0.69098 0.92741 0.0
H772 H 0.92177 0.76318 0.05947 0.0
H773 H 0.90817 0.74881 0.12492 0.0
H774 H 0.91123 0.78259 0.9778 0.0
H775 H 0.9019 0.77515 0.90014 0.0
C776 C 0.52953 0.42234 0.17279 0.0
C777 C 0.52142 0.40337 0.13119 0.0
C778 C 0.50005 0.38396 0.22072 0.0
C779 C 0.50821 0.40282 0.26169 0.0
N780 N 0.53557 0.43597 0.28238 0.0
N781 N 0.50528 0.3628 0.11971 0.0
C782 C 0.52474 0.42058 0.23954 0.0
C783 C 0.5086 0.38311 0.15649 0.0
N784 N 0.54014 0.44291 0.14862 0.0
N785 N 0.48357 0.3673 0.2427 0.0
H786 H 0.51217 0.36124 0.07327 0.0
H787 H 0.49797 0.34664 0.13732 0.0
H788 H 0.47791 0.36666 0.29042 0.0
H789 H 0.47459 0.35499 0.21303 0.0
H790 H 0.54342 0.45841 0.17597 0.0
H791 H 0.54379 0.44572 0.10027 0.0
H792 H 0.54968 0.44776 0.27024 0.0
H793 H 0.53204 0.43527 0.33152 0.0
C794 C 0.82371 0.25027 0.40851 0.0
C795 C 0.84571 0.25007 0.37295 0.0
C796 C 0.86792 0.23746 0.46942 0.0
C797 C 0.84614 0.23986 0.50558 0.0
N798 N 0.80493 0.25461 0.5126 0.0
N799 N 0.88946 0.24749 0.37123 0.0
C800 C 0.82458 0.24827 0.47601 0.0
C801 C 0.86809 0.24485 0.40388 0.0
N802 N 0.80181 0.25073 0.37759 0.0
N803 N 0.888 0.22701 0.49646 0.0
H804 H 0.89018 0.25282 0.32324 0.0
H805 H 0.90646 0.24636 0.39308 0.0
H806 H 0.88863 0.22141 0.54419 0.0
H807 H 0.90341 0.22223 0.4703 0.0
H808 H 0.78522 0.24852 0.40104 0.0
H809 H 0.80033 0.25032 0.32785 0.0
H810 H 0.78951 0.26298 0.49371 0.0
H811 H 0.80512 0.25392 0.56262 0.0
C812 C 0.9881 0.58597 0.75479 0.0
C813 C 0.98491 0.60657 0.79499 0.0
C814 C 0.96691 0.62875 0.70436 0.0
C815 C 0.97324 0.6092 0.66345 0.0
N816 N 0.99558 0.57193 0.64727 0.0
N817 N 0.97507 0.64937 0.80475 0.0
C818 C 0.98559 0.58866 0.68791 0.0
C819 C 0.97516 0.6285 0.76918 0.0
N820 N 0.99264 0.56353 0.78045 0.0
N821 N 0.95304 0.64744 0.68143 0.0
H822 H 0.98171 0.65031 0.85144 0.0
H823 H 0.97045 0.6663 0.78588 0.0
H824 H 0.94752 0.64848 0.63361 0.0
H825 H 0.94569 0.66091 0.71072 0.0
H826 H 0.99272 0.54764 0.75314 0.0
H827 H 0.9935 0.5603 0.82961 0.0
H828 H 0.0069 0.55792 0.6629 0.0
H829 H 0.99462 0.57349 0.59758 0.0
C830 C 0.66385 0.72801 0.99355 0.0
C831 C 0.6441 0.74211 0.01565 0.0
C832 C 0.62454 0.73853 0.91042 0.0
C833 C 0.64632 0.72835 0.88536 0.0
N834 N 0.68819 0.71591 0.90293 0.0
N835 N 0.60542 0.76125 0.99668 0.0
C836 C 0.66628 0.72336 0.92698 0.0
C837 C 0.62419 0.74726 0.97476 0.0
N838 N 0.68031 0.71902 0.0366 0.0
N839 N 0.60407 0.7392 0.87332 0.0
H840 H 0.60411 0.76686 0.04435 0.0
H841 H 0.59186 0.76827 0.96713 0.0
H842 H 0.60356 0.73234 0.8267 0.0
H843 H 0.58707 0.74436 0.89061 0.0
H844 H 0.69387 0.70662 0.02439 0.0
H845 H 0.67877 0.72202 0.08587 0.0
H846 H 0.70398 0.715 0.93045 0.0
H847 H 0.69153 0.71286 0.85451 0.0
C848 C 0.48887 0.42847 0.72761 0.0
C849 C 0.49639 0.40702 0.75941 0.0
C850 C 0.48904 0.38338 0.66151 0.0
C851 C 0.48479 0.4054 0.62787 0.0
N852 N 0.48503 0.44936 0.6263 0.0
N853 N 0.50601 0.36419 0.75629 0.0
C854 C 0.48567 0.42809 0.66027 0.0
C855 C 0.49689 0.38439 0.72656 0.0
N856 N 0.4846 0.44921 0.76207 0.0
N857 N 0.48518 0.36159 0.63165 0.0
H858 H 0.51162 0.36413 0.80404 0.0
H859 H 0.50952 0.34791 0.73252 0.0
H860 H 0.47962 0.36031 0.58392 0.0
H861 H 0.48557 0.34493 0.65545 0.0
H862 H 0.47682 0.46479 0.74235 0.0
H863 H 0.4865 0.44999 0.81184 0.0
H864 H 0.48814 0.46636 0.64678 0.0
H865 H 0.48393 0.44992 0.57647 0.0
C866 C 0.37264 0.70578 0.45724 0.0
C867 C 0.37379 0.7244 0.41002 0.0
C868 C 0.36716 0.75537 0.49159 0.0
C869 C 0.36429 0.7369 0.53885 0.0
N870 N 0.36902 0.69491 0.57015 0.0
N871 N 0.38571 0.76597 0.39044 0.0
C872 C 0.36888 0.71217 0.52294 0.0
C873 C 0.37541 0.74894 0.42962 0.0
N874 N 0.375 0.68207 0.43861 0.0
N875 N 0.36147 0.77906 0.50476 0.0
H876 H 0.39471 0.76133 0.34824 0.0
H877 H 0.38878 0.78389 0.40468 0.0
H878 H 0.35604 0.7852 0.54973 0.0
H879 H 0.36056 0.79245 0.46941 0.0
H880 H 0.37164 0.66719 0.46812 0.0
H881 H 0.38057 0.67736 0.39238 0.0
H882 H 0.37406 0.67687 0.56304 0.0
H883 H 0.36511 0.69884 0.61795 0.0
C884 C 0.00503 0.58933 0.20578 0.0
C885 C 0.00271 0.61123 0.16993 0.0
C886 C 0.98634 0.63181 0.26489 0.0
C887 C 0.99017 0.61024 0.30089 0.0
N888 N 0.0098 0.57129 0.31072 0.0
N889 N 0.99601 0.65459 0.16838 0.0
C890 C 0.00184 0.58999 0.27292 0.0
C891 C 0.99486 0.63293 0.20043 0.0
N892 N 0.00832 0.5675 0.17557 0.0
N893 N 0.9736 0.65069 0.29105 0.0
H894 H 0.00247 0.65602 0.12149 0.0
H895 H 0.99266 0.67132 0.19012 0.0
H896 H 0.96748 0.65062 0.3384 0.0
H897 H 0.96778 0.6657 0.26467 0.0
H898 H 0.00769 0.55085 0.19945 0.0
H899 H 0.0087 0.56562 0.12595 0.0
H900 H 0.02034 0.55698 0.29334 0.0
H901 H 0.0081 0.57153 0.36057 0.0
C902 C 0.12669 0.25094 0.91048 0.0
C903 C 0.14826 0.25741 0.87725 0.0
C904 C 0.17137 0.25475 0.97725 0.0
C905 C 0.15071 0.24498 0.00841 0.0
N906 N 0.10919 0.23078 0.0031 0.0
N907 N 0.19215 0.26007 0.8765 0.0
C908 C 0.12837 0.24243 0.97489 0.0
C909 C 0.17089 0.25804 0.91 0.0
N910 N 0.10461 0.25343 0.88113 0.0
N911 N 0.19146 0.26108 0.01213 0.0
H912 H 0.19278 0.26077 0.82665 0.0
H913 H 0.20924 0.25817 0.89751 0.0
H914 H 0.19226 0.25933 0.06194 0.0
H915 H 0.20622 0.27039 0.99257 0.0
H916 H 0.08812 0.25132 0.90509 0.0
H917 H 0.10275 0.2597 0.83416 0.0
H918 H 0.0935 0.22585 0.97833 0.0
H919 H 0.10963 0.22436 0.05013 0.0
C920 C 0.49094 0.64203 0.7157 0.0
C921 C 0.48152 0.62343 0.67554 0.0
C922 C 0.46403 0.60287 0.76858 0.0
C923 C 0.47253 0.62191 0.80916 0.0
N924 N 0.48839 0.6627 0.81829 0.0
N925 N 0.45259 0.59119 0.66077 0.0
C926 C 0.48418 0.64253 0.78172 0.0
C927 C 0.46573 0.60566 0.70119 0.0
N928 N 0.50736 0.65838 0.69202 0.0
N929 N 0.45632 0.58118 0.79359 0.0
H930 H 0.45322 0.59334 0.61104 0.0
H931 H 0.43922 0.57917 0.67671 0.0
H932 H 0.4566 0.57704 0.84227 0.0
H933 H 0.45237 0.56608 0.76523 0.0
H934 H 0.51713 0.67033 0.72098 0.0
H935 H 0.51241 0.65894 0.64388 0.0
H936 H 0.49485 0.67903 0.79944 0.0
H937 H 0.48306 0.6639 0.8662 0.0
C938 C 0.14023 0.78953 0.55921 0.0
C939 C 0.14022 0.77107 0.51193 0.0
C940 C 0.1287 0.74153 0.59445 0.0
C941 C 0.13449 0.75884 0.64284 0.0
N942 N 0.14951 0.79924 0.66896 0.0
N943 N 0.13512 0.72875 0.48446 0.0
C944 C 0.14086 0.78299 0.6249 0.0
C945 C 0.13424 0.74686 0.52919 0.0
N946 N 0.13955 0.8134 0.54119 0.0
N947 N 0.11762 0.72016 0.61084 0.0
H948 H 0.13896 0.73195 0.43625 0.0
H949 H 0.13369 0.71036 0.49609 0.0
H950 H 0.1125 0.71617 0.65788 0.0
H951 H 0.11117 0.70774 0.57718 0.0
H952 H 0.13737 0.82757 0.57387 0.0
H953 H 0.13819 0.81866 0.49323 0.0
H954 H 0.15678 0.81607 0.65605 0.0
H955 H 0.15195 0.79529 0.71729 0.0
C956 C 0.98872 0.37174 0.24311 0.0
C957 C -0.00205 0.39006 0.20208 0.0
C958 C 0.01962 0.40889 0.29125 0.0
C959 C 0.01027 0.39059 0.33329 0.0
N960 N 0.99258 0.35064 0.34469 0.0
N961 N 0.02772 0.42098 0.18131 0.0
C962 C 0.99689 0.37071 0.30772 0.0
C963 C 0.01543 0.4068 0.22434 0.0
N964 N 0.9715 0.35591 0.22094 0.0
N965 N 0.03074 0.4293 0.31472 0.0
H966 H 0.02478 0.41976 0.13195 0.0
H967 H 0.04241 0.43196 0.19382 0.0
H968 H 0.03386 0.43265 0.36302 0.0
H969 H 0.03492 0.44434 0.28634 0.0
H970 H 0.96186 0.34408 0.25057 0.0
H971 H 0.96598 0.35554 0.17305 0.0
H972 H 0.98469 0.33477 0.32703 0.0
H973 H -0.00071 0.34888 0.39127 0.0
C974 C 0.38342 0.24011 0.03643 0.0
C975 C 0.36465 0.25362 0.06687 0.0
C976 C 0.34575 0.26065 0.96187 0.0
C977 C 0.36181 0.24365 0.93391 0.0
N978 N 0.39462 0.21482 0.94598 0.0
N979 N 0.3249 0.27277 0.05809 0.0
C980 C 0.3805 0.23288 0.97129 0.0
C981 C 0.34511 0.26313 0.02948 0.0
N982 N 0.40428 0.23471 0.06903 0.0
N983 N 0.33086 0.27427 0.92357 0.0
H984 H 0.32227 0.27353 0.10742 0.0
H985 H 0.30926 0.27743 0.03266 0.0
H986 H 0.33112 0.27291 0.87363 0.0
H987 H 0.32032 0.2886 0.94081 0.0
H988 H 0.41941 0.2268 0.04735 0.0
H989 H 0.40745 0.24048 0.11594 0.0
H990 H 0.40637 0.20423 0.97352 0.0
H991 H 0.39332 0.2092 0.89838 0.0
C992 C 0.02487 0.98737 0.97888 0.0
C993 C 0.02654 0.99535 0.04334 0.0
C994 C 0.01829 0.95408 0.08169 0.0
C995 C 0.01325 0.94701 0.01766 0.0
N996 N 0.01029 0.95653 0.90508 0.0
N997 N 0.02481 0.98723 0.15669 0.0
C998 C 0.0163 0.96349 0.96603 0.0
C999 C 0.02339 0.97892 0.09502 0.0
N1000 N 0.03174 0.00256 0.93019 0.0
N1001 N 0.01859 0.93697 0.12933 0.0
H1002 H 0.03018 0.00494 0.16789 0.0
H1003 H 0.01973 0.97702 0.19656 0.0
H1004 H 0.01493 0.91862 0.12102 0.0
H1005 H 0.02425 0.94046 0.17604 0.0
H1006 H 0.03307 0.99716 0.88249 0.0
H1007 H 0.03803 0.02021 0.93814 0.0
H1008 H 0.00934 0.96851 0.86648 0.0
H1009 H 0.00469 0.93891 0.89367 0.0
C1010 C 0.24382 0.76658 0.23854 0.0
C1011 C 0.2372 0.76908 0.30399 0.0
C1012 C 0.27367 0.74675 0.33708 0.0
C1013 C 0.2809 0.74543 0.27187 0.0
N1014 N 0.27513 0.75661 0.16106 0.0
N1015 N 0.2467 0.76483 0.41613 0.0
C1016 C 0.26669 0.75621 0.22276 0.0
C1017 C 0.25237 0.76004 0.35352 0.0
N1018 N 0.22768 0.77289 0.19145 0.0
N1019 N 0.28708 0.73509 0.38304 0.0
H1020 H 0.23122 0.77458 0.42955 0.0
H1021 H 0.25809 0.76089 0.45459 0.0
H1022 H 0.3033 0.72599 0.373 0.0
H1023 H 0.28154 0.7331 0.43045 0.0
H1024 H 0.23021 0.76894 0.1431 0.0
H1025 H 0.2107 0.78049 0.20099 0.0
H1026 H 0.26716 0.76679 0.12457 0.0
H1027 H 0.29111 0.74791 0.1469 0.0
C1028 C 0.47297 0.02862 0.50022 0.0
C1029 C 0.48105 0.04326 0.55195 0.0
C1030 C 0.47119 0.01079 0.62819 0.0
C1031 C 0.46605 0.99519 0.57585 0.0
N1032 N 0.46311 0.98811 0.462 0.0
N1033 N 0.48823 0.04911 0.66487 0.0
C1034 C 0.46691 0.00386 0.51179 0.0
C1035 C 0.48013 0.03463 0.61602 0.0
N1036 N 0.47096 0.03846 0.44019 0.0
N1037 N 0.467 0.00282 0.68935 0.0
H1038 H 0.49354 0.06714 0.65791 0.0
H1039 H 0.49075 0.04311 0.71172 0.0
H1040 H 0.46004 0.98555 0.69927 0.0
H1041 H 0.46847 0.01374 0.72989 0.0
H1042 H 0.46281 0.02957 0.40173 0.0
H1043 H 0.47585 0.05637 0.42971 0.0
H1044 H 0.46657 0.9924 0.41425 0.0
H1045 H 0.4578 0.97007 0.46863 0.0
C1046 C 0.26332 0.25598 0.7665 0.0
C1047 C 0.27398 0.23935 0.72269 0.0
C1048 C 0.23853 0.24275 0.65216 0.0
C1049 C 0.22804 0.25967 0.69559 0.0
N1050 N 0.23288 0.28698 0.78543 0.0
N1051 N 0.27466 0.22109 0.61762 0.0
C1052 C 0.2413 0.2679 0.74974 0.0
C1053 C 0.26241 0.23388 0.66367 0.0
N1054 N 0.27349 0.2593 0.82574 0.0
N1055 N 0.22553 0.23508 0.60001 0.0
H1056 H 0.2923 0.21459 0.62413 0.0
H1057 H 0.26827 0.21863 0.57109 0.0
H1058 H 0.20902 0.24291 0.58648 0.0
H1059 H 0.23061 0.2204 0.57145 0.0
H1060 H 0.26511 0.26899 0.86249 0.0
H1061 H 0.28932 0.25048 0.84052 0.0
H1062 H 0.24305 0.29539 0.82123 0.0
H1063 H 0.21655 0.29585 0.77598 0.0
C1064 C 0.98263 0.95011 0.59406 0.0
C1065 C 0.98692 0.94288 0.52985 0.0
C1066 C 0.96599 0.97913 0.49021 0.0
C1067 C 0.96595 0.98842 0.55349 0.0
N1068 N 0.97073 0.98256 0.66688 0.0
N1069 N 0.98257 0.94942 0.41615 0.0
C1070 C 0.97296 0.97366 0.606 0.0
C1071 C 0.97813 0.95685 0.47763 0.0
N1072 N 0.98786 0.93441 0.64306 0.0
N1073 N 0.95455 0.99172 0.44242 0.0
H1074 H 0.99083 0.93284 0.40538 0.0
H1075 H 0.97929 0.96013 0.3759 0.0
H1076 H 0.94563 0.00818 0.45046 0.0
H1077 H 0.95212 0.98503 0.39618 0.0
H1078 H 0.98377 0.93773 0.69095 0.0
H1079 H 0.99492 0.91703 0.63521 0.0
H1080 H 0.97791 0.97419 0.70743 0.0
H1081 H 0.96169 -0.00115 0.67652 0.0
C1082 C 0.22795 0.75608 0.72681 0.0
C1083 C 0.22219 0.74495 0.78636 0.0
C1084 C 0.26548 0.73978 0.8103 0.0
C1085 C 0.27127 0.75275 0.75323 0.0
N1086 N 0.25851 0.77484 0.659 0.0
N1087 N 0.23474 0.72932 0.8891 0.0
C1088 C 0.25263 0.76147 0.71216 0.0
C1089 C 0.24075 0.73746 0.82912 0.0
N1090 N 0.2099 0.76048 0.68312 0.0
N1091 N 0.28357 0.7297 0.84667 0.0
H1092 H 0.21681 0.72735 0.90465 0.0
H1093 H 0.24738 0.72636 0.92543 0.0
H1094 H 0.30202 0.73219 0.83745 0.0
H1095 H 0.28038 0.71754 0.88404 0.0
H1096 H 0.21305 0.76613 0.63622 0.0
H1097 H 0.19165 0.75658 0.69186 0.0
H1098 H 0.24583 0.78433 0.63166 0.0
H1099 H 0.27636 0.77756 0.64368 0.0
C1100 C 0.51924 0.01116 0.029 0.0
C1101 C 0.51075 -0.00125 0.08451 0.0
C1102 C 0.48797 0.03501 0.11719 0.0
C1103 C 0.49398 0.04619 0.05814 0.0
N1104 N 0.51274 0.04417 0.95371 0.0
N1105 N 0.48454 -0.0023 0.17769 0.0
C1106 C 0.50916 0.03421 0.01314 0.0
C1107 C 0.49438 0.01033 0.12752 0.0
N1108 N 0.53654 0.00079 0.9906 0.0
N1109 N 0.47701 0.0483 0.16449 0.0
H1110 H 0.48932 0.97987 0.18879 0.0
H1111 H 0.47031 0.00429 0.20567 0.0
H1112 H 0.47268 0.06666 0.15915 0.0
H1113 H 0.47448 0.04192 0.21105 0.0
H1114 H 0.54552 0.01019 0.95427 0.0
H1115 H 0.54317 0.98323 0.99717 0.0
H1116 H 0.52118 0.03503 0.91608 0.0
H1117 H 0.50545 0.06087 0.93984 0.0
C1118 C 0.25209 0.22692 0.1649 0.0
C1119 C 0.23476 0.22957 0.21467 0.0
C1120 C 0.26537 0.24911 0.28315 0.0
C1121 C 0.28316 0.24471 0.23524 0.0
N1122 N 0.29448 0.22667 0.13374 0.0
N1123 N 0.22511 0.23988 0.32416 0.0
C1124 C 0.27684 0.2327 0.17716 0.0
C1125 C 0.24141 0.2399 0.27456 0.0
N1126 N 0.24468 0.2201 0.10489 0.0
N1127 N 0.2714 0.26193 0.33707 0.0
H1128 H 0.20743 0.23322 0.31983 0.0
H1129 H 0.22955 0.24457 0.37107 0.0
H1130 H 0.28908 0.26755 0.34739 0.0
H1131 H 0.25868 0.26831 0.36998 0.0
H1132 H 0.25588 0.22067 0.06467 0.0
H1133 H 0.22667 0.21584 0.09382 0.0
H1134 H 0.29145 0.21529 0.09463 0.0
H1135 H 0.31265 0.2317 0.13864 0.0
C1136 C 0.74937 0.22675 0.67962 0.0
C1137 C 0.76763 0.23263 0.72514 0.0
C1138 C 0.73729 0.25216 0.79442 0.0
C1139 C 0.71923 0.24725 0.7476 0.0
N1140 N 0.70798 0.23261 0.64258 0.0
N1141 N 0.78012 0.25287 0.82244 0.0
C1142 C 0.72522 0.23517 0.68947 0.0
C1143 C 0.76194 0.24607 0.78135 0.0
N1144 N 0.75515 0.21311 0.62686 0.0
N1145 N 0.73062 0.26134 0.85284 0.0
H1146 H 0.79811 0.24718 0.81747 0.0
H1147 H 0.77774 0.26522 0.85974 0.0
H1148 H 0.71273 0.26585 0.86441 0.0
H1149 H 0.74236 0.2628 0.89179 0.0
H1150 H 0.74231 0.2054 0.59635 0.0
H1151 H 0.77292 0.20841 0.61469 0.0
H1152 H 0.7117 0.22679 0.59615 0.0
H1153 H 0.68993 0.23788 0.64838 0.0
C1154 C 0.74235 0.75361 0.15434 0.0
C1155 C 0.73082 0.76896 0.19961 0.0
C1156 C 0.76858 0.77175 0.26167 0.0
C1157 C 0.77915 0.75409 0.22046 0.0
N1158 N 0.77634 0.72732 0.12902 0.0
N1159 N 0.73206 0.79245 0.29735 0.0
C1160 C 0.76609 0.74475 0.16717 0.0
C1161 C 0.74379 0.77834 0.25302 0.0
N1162 N 0.73086 0.74842 0.09776 0.0
N1163 N 0.78216 0.78198 0.30962 0.0
H1164 H 0.7142 0.79841 0.2919 0.0
H1165 H 0.73938 0.79719 0.3416 0.0
H1166 H 0.79959 0.77611 0.32155 0.0
H1167 H 0.77672 0.79712 0.33588 0.0
H1168 H 0.73901 0.7392 0.05983 0.0
H1169 H 0.7138 0.75544 0.08605 0.0
H1170 H 0.76678 0.71759 0.09441 0.0
H1171 H 0.79427 0.72155 0.13416 0.0
C1172 C 0.7281 0.24331 0.27922 0.0
C1173 C 0.71657 0.22632 0.2381 0.0
C1174 C 0.75173 0.22718 0.16595 0.0
C1175 C 0.76251 0.24544 0.20498 0.0
N1176 N 0.75874 0.2745 0.29156 0.0
N1177 N 0.71504 0.20537 0.13653 0.0
C1178 C 0.74995 0.25474 0.25916 0.0
C1179 C 0.72777 0.219 0.17996 0.0
N1180 N 0.71874 0.24765 0.33893 0.0
N1181 N 0.76431 0.2178 0.11509 0.0
H1182 H 0.69741 0.19916 0.14476 0.0
H1183 H 0.72112 0.20182 0.0902 0.0
H1184 H 0.78085 0.2249 0.09926 0.0
H1185 H 0.75888 0.20231 0.0902 0.0
H1186 H 0.72772 0.25782 0.3738 0.0
H1187 H 0.70315 0.23904 0.35619 0.0
H1188 H 0.74884 0.28367 0.32662 0.0
H1189 H 0.7751 0.28303 0.28045 0.0
C1190 C 0.73919 0.75018 0.77339 0.0
C1191 C 0.73272 0.7373 0.71677 0.0
C1192 C 0.77422 0.74227 0.67542 0.0
C1193 C 0.78109 0.75337 0.73421 0.0
N1194 N 0.77156 0.76371 0.84372 0.0
N1195 N 0.74421 0.71908 0.61594 0.0
C1196 C 0.76395 0.75629 0.7844 0.0
C1197 C 0.75034 0.73259 0.66858 0.0
N1198 N 0.72168 0.75679 0.81659 0.0
N1199 N 0.79015 0.7421 0.625 0.0
H1200 H 0.72654 0.71319 0.6066 0.0
H1201 H 0.75686 0.71246 0.58318 0.0
H1202 H 0.80773 0.74913 0.62788 0.0
H1203 H 0.78544 0.73685 0.5787 0.0
H1204 H 0.72484 0.7687 0.85451 0.0
H1205 H 0.70348 0.75182 0.81235 0.0
H1206 H 0.76051 0.76345 0.88426 0.0
H1207 H 0.7896 0.76804 0.85412 0.0
C1208 C 0.50572 0.52289 0.41513 0.0
C1209 C 0.49538 0.53619 0.46673 0.0
C1210 C 0.46982 0.50112 0.49535 0.0
C1211 C 0.47995 0.48805 0.4431 0.0
N1212 N 0.503 0.48772 0.34506 0.0
N1213 N 0.46598 0.53939 0.55235 0.0
C1214 C 0.49662 0.49933 0.40062 0.0
C1215 C 0.47676 0.52579 0.50534 0.0
N1216 N 0.52439 0.53268 0.38031 0.0
N1217 N 0.45468 0.48954 0.53757 0.0
H1218 H 0.47225 0.5565 0.56603 0.0
H1219 H 0.45019 0.53424 0.57629 0.0
H1220 H 0.44848 0.47181 0.53095 0.0
H1221 H 0.44924 0.49686 0.58127 0.0
H1222 H 0.53466 0.52287 0.34731 0.0
H1223 H 0.53077 0.55032 0.38712 0.0
H1224 H 0.51325 0.49571 0.30876 0.0
H1225 H 0.49605 0.47073 0.33227 0.0
C1226 C -0.00234 0.48876 0.05777 0.0
C1227 C 0.97841 0.47932 0.02003 0.0
C1228 C 0.97435 0.51849 0.96492 0.0
C1229 C 0.99524 0.52717 0.99822 0.0
N1230 N 0.02833 0.51986 0.07229 0.0
N1231 N 0.94982 0.48394 0.93304 0.0
C1232 C 0.00747 0.51203 0.04312 0.0
C1233 C 0.96695 0.49389 0.97275 0.0
N1234 N 0.00567 0.47594 0.10993 0.0
N1235 N 0.96145 0.53374 0.92573 0.0
H1236 H 0.94313 0.46633 0.93828 0.0
H1237 H 0.94336 0.49248 0.89186 0.0
H1238 H 0.96713 0.5512 0.91356 0.0
H1239 H 0.94428 0.5296 0.90774 0.0
H1240 H 0.01788 0.48279 0.14353 0.0
H1241 H -0.00183 0.45927 0.12354 0.0
H1242 H 0.03961 0.50852 0.09903 0.0
H1243 H 0.03539 0.53731 0.06681 0.0
C1244 C 0.5047 0.49558 0.01865 0.0
C1245 C 0.51551 0.48862 0.95952 0.0
C1246 C 0.50862 0.52952 0.91612 0.0
C1247 C 0.49861 0.53657 0.97601 0.0
N1248 N 0.49223 0.52853 0.08839 0.0
N1249 N 0.53084 0.49926 0.85477 0.0
C1250 C 0.49812 0.52023 0.02851 0.0
C1251 C 0.51865 0.50578 0.90929 0.0
N1252 N 0.50022 0.47854 0.06503 0.0
N1253 N 0.50736 0.54506 0.86495 0.0
H1254 H 0.53718 0.48168 0.84639 0.0
H1255 H 0.53607 0.51158 0.81944 0.0
H1256 H 0.50033 0.56264 0.86826 0.0
H1257 H 0.51168 0.54012 0.81815 0.0
H1258 H 0.48964 0.48189 0.10548 0.0
H1259 H 0.50574 0.46047 0.06145 0.0
H1260 H 0.49418 0.51819 0.12992 0.0
H1261 H 0.48752 0.54658 0.09765 0.0
C1262 C 0.98955 0.48572 0.44321 0.0
C1263 C 0.99466 0.47667 0.50553 0.0
C1264 C 0.97761 0.51356 0.55338 0.0
C1265 C 0.97514 0.52367 0.49122 0.0
N1266 N 0.98054 0.52081 0.37677 0.0
N1267 N 0.99631 0.48262 0.62003 0.0
C1268 C 0.98167 0.51017 0.43599 0.0
C1269 C 0.98957 0.49083 0.56073 0.0
N1270 N 0.99158 0.47074 0.39116 0.0
N1271 N 0.9679 0.52537 0.60505 0.0
H1272 H 0.0047 0.46583 0.62733 0.0
H1273 H 0.99534 0.49318 0.66139 0.0
H1274 H 0.9587 0.5419 0.60103 0.0
H1275 H 0.96705 0.5179 0.65088 0.0
H1276 H 0.98569 0.47544 0.34535 0.0
H1277 H -0.00251 0.45278 0.39459 0.0
H1278 H 0.98787 0.51302 0.33557 0.0
H1279 H 0.97343 0.53818 0.3693 0.0
C1280 C 0.09483 0.13399 0.05492 0.0
C1281 C 0.08885 0.11548 0.09969 0.0
C1282 C 0.11785 0.13227 0.17736 0.0
C1283 C 0.12349 0.15093 0.1329 0.0
N1284 N 0.12186 0.16718 0.02579 0.0
N1285 N 0.09703 0.09421 0.19884 0.0
C1286 C 0.11333 0.15104 0.07045 0.0
C1287 C 0.10132 0.11359 0.1592 0.0
N1288 N 0.08253 0.13541 0.998 0.0
N1289 N 0.12714 0.1333 0.23817 0.0
H1290 H 0.08386 0.08103 0.18974 0.0
H1291 H 0.10748 0.09026 0.23911 0.0
H1292 H 0.13973 0.14639 0.25263 0.0
H1293 H 0.12149 0.12211 0.27559 0.0
H1294 H 0.08372 0.15011 0.96668 0.0
H1295 H 0.07017 0.12219 0.98288 0.0
H1296 H 0.11686 0.16704 0.97769 0.0
H1297 H 0.13566 0.17968 0.03569 0.0
C1298 C 0.14553 0.86908 0.45058 0.0
C1299 C 0.1452 0.86418 0.3841 0.0
C1300 C 0.1079 0.8878 0.37203 0.0
C1301 C 0.10486 0.88635 0.43939 0.0
N1302 N 0.1217 0.88029 0.5444 0.0
N1303 N 0.13085 0.8739 0.27896 0.0
C1304 C 0.1243 0.87898 0.47935 0.0
C1305 C 0.12818 0.87591 0.34386 0.0
N1306 N 0.16566 0.86333 0.48569 0.0
N1307 N 0.09077 0.89935 0.33559 0.0
H1308 H 0.14621 0.86572 0.25885 0.0
H1309 H 0.11831 0.88012 0.24543 0.0
H1310 H 0.07579 0.9081 0.35575 0.0
H1311 H 0.09198 0.90165 0.28621 0.0
H1312 H 0.16759 0.86717 0.53427 0.0
H1313 H 0.18141 0.85658 0.46428 0.0
H1314 H 0.13417 0.87328 0.57703 0.0
H1315 H 0.10649 0.88832 0.56568 0.0
C1316 C 0.39533 0.82733 0.61265 0.0
C1317 C 0.37839 0.82909 0.66383 0.0
C1318 C 0.38993 0.87168 0.68077 0.0
C1319 C 0.40589 0.87009 0.62732 0.0
N1320 N 0.41776 0.84907 0.53098 0.0
N1321 N 0.3561 0.85396 0.739 0.0
C1322 C 0.40662 0.84873 0.58959 0.0
C1323 C 0.37433 0.85171 0.69486 0.0
N1324 N 0.40135 0.80522 0.58717 0.0
N1325 N 0.3909 0.89132 0.7209 0.0
H1326 H 0.34525 0.83941 0.75358 0.0
H1327 H 0.35059 0.87064 0.75775 0.0
H1328 H 0.40227 0.9062 0.71333 0.0
H1329 H 0.38183 0.89205 0.76468 0.0
H1330 H 0.41553 0.80286 0.55464 0.0
H1331 H 0.39364 0.78887 0.60213 0.0
H1332 H 0.41691 0.83462 0.49872 0.0
H1333 H 0.42545 0.86483 0.51172 0.0
C1334 C 0.39925 0.12081 0.86343 0.0
C1335 C 0.39949 0.12521 0.9305 0.0
C1336 C 0.36398 0.15165 0.92135 0.0
C1337 C 0.36505 0.1489 0.85372 0.0
N1338 N 0.37793 0.12598 0.76213 0.0
N1339 N 0.37866 0.13831 0.02554 0.0
C1340 C 0.38068 0.13156 0.82554 0.0
C1341 C 0.3805 0.13836 0.96019 0.0
N1342 N 0.41774 0.10801 0.83551 0.0
N1343 N 0.34855 0.16834 0.94789 0.0
H1344 H 0.39071 0.12857 0.05453 0.0
H1345 H 0.36414 0.14593 0.05049 0.0
H1346 H 0.33541 0.17755 0.92133 0.0
H1347 H 0.34932 0.17376 0.99567 0.0
H1348 H 0.4203 0.10682 0.78616 0.0
H1349 H 0.43134 0.09938 0.86185 0.0
H1350 H 0.38747 0.11216 0.73909 0.0
H1351 H 0.3643 0.13389 0.73413 0.0
C1352 C 0.88489 0.8339 0.91145 0.0
C1353 C 0.88525 0.83473 0.84347 0.0
C1354 C 0.91866 0.86418 0.84591 0.0
C1355 C 0.92112 0.85985 0.91276 0.0
N1356 N 0.90628 0.84236 0.01099 0.0
N1357 N 0.90078 0.85117 0.74492 0.0
C1358 C 0.90384 0.84554 0.94626 0.0
C1359 C 0.90135 0.85045 0.81046 0.0
N1360 N 0.86679 0.82149 0.94232 0.0
N1361 N 0.93327 0.88089 0.81622 0.0
H1362 H 0.88733 0.84236 0.71827 0.0
H1363 H 0.91388 0.85968 0.71675 0.0
H1364 H 0.94672 0.89067 0.84008 0.0
H1365 H 0.93111 0.88639 0.76883 0.0
H1366 H 0.86434 0.82153 0.99177 0.0
H1367 H 0.85289 0.81247 0.91806 0.0
H1368 H 0.89636 0.82983 0.03771 0.0
H1369 H 0.91905 0.85194 0.03812 0.0
C1370 C 0.89378 0.12511 0.55285 0.0
C1371 C 0.90139 0.10815 0.59983 0.0
C1372 C 0.87412 0.12668 0.67884 0.0
C1373 C 0.86972 0.14583 0.63503 0.0
N1374 N 0.87425 0.16371 0.5301 0.0
N1375 N 0.90014 0.09296 0.70859 0.0
C1376 C 0.87903 0.14504 0.57163 0.0
C1377 C 0.89155 0.1086 0.66283 0.0
N1378 N 0.90041 0.12182 0.49023 0.0
N1379 N 0.86201 0.12607 0.73606 0.0
H1380 H 0.91285 0.07939 0.69912 0.0
H1381 H 0.89595 0.09439 0.75711 0.0
H1382 H 0.8497 0.13951 0.74996 0.0
H1383 H 0.86255 0.11133 0.76741 0.0
H1384 H 0.8938 0.13227 0.45244 0.0
H1385 H 0.91101 0.10713 0.47518 0.0
H1386 H 0.88295 0.16594 0.48616 0.0
H1387 H 0.8621 0.17771 0.54078 0.0
C1388 C 0.61304 0.14793 0.42625 0.0
C1389 C 0.6118 0.14788 0.35824 0.0
C1390 C 0.57491 0.1231 0.3612 0.0
C1391 C 0.57538 0.12436 0.42916 0.0
N1392 N 0.59746 0.13169 0.5266 0.0
N1393 N 0.59633 0.1304 0.26105 0.0
C1394 C 0.59546 0.1346 0.46173 0.0
C1395 C 0.59434 0.13358 0.32581 0.0
N1396 N 0.62986 0.1621 0.45683 0.0
N1397 N 0.55516 0.11343 0.33056 0.0
H1398 H 0.61058 0.13799 0.23463 0.0
H1399 H 0.58538 0.11861 0.23471 0.0
H1400 H 0.54088 0.105 0.35485 0.0
H1401 H 0.55226 0.11481 0.28137 0.0
H1402 H 0.62961 0.16557 0.5059 0.0
H1403 H 0.64356 0.17145 0.43262 0.0
H1404 H 0.61267 0.13692 0.55292 0.0
H1405 H 0.58466 0.12196 0.55329 0.0
C1406 C 0.59777 0.8792 0.17728 0.0
C1407 C 0.58568 0.87974 0.11711 0.0
C1408 C 0.60613 0.84224 0.08422 0.0
C1409 C 0.61789 0.84151 0.14473 0.0
N1410 N 0.62947 0.86133 0.24316 0.0
N1411 N 0.58187 0.86548 0.0085 0.0
C1412 C 0.61532 0.86079 0.18924 0.0
C1413 C 0.59098 0.86235 0.069 0.0
N1414 N 0.5913 0.89522 0.22449 0.0
N1415 N 0.60922 0.82349 0.04187 0.0
H1416 H 0.57099 0.8803 0.99593 0.0
H1417 H 0.5866 0.8547 0.96945 0.0
H1418 H 0.62164 0.80944 0.04944 0.0
H1419 H 0.59892 0.82126 1.00043 0.0
H1420 H 0.59713 0.8938 0.27183 0.0
H1421 H 0.57875 0.90918 0.2177 0.0
H1422 H 0.63038 0.87619 0.27399 0.0
H1423 H 0.64182 0.84762 0.25469 0.0
C1424 C 0.60232 0.63731 0.54004 0.0
C1425 C 0.58199 0.63095 0.57808 0.0
C1426 C 0.60167 0.64812 0.67315 0.0
C1427 C 0.61982 0.65824 0.63305 0.0
N1428 N 0.6377 0.66323 0.52808 0.0
N1429 N 0.56195 0.62906 0.68073 0.0
C1430 C 0.6206 0.65259 0.56659 0.0
C1431 C 0.58172 0.63569 0.64491 0.0
N1432 N 0.60387 0.62902 0.4784 0.0
N1433 N 0.60375 0.65038 0.73821 0.0
H1434 H 0.54767 0.61872 0.6622 0.0
H1435 H 0.55914 0.63459 0.72788 0.0
H1436 H 0.61844 0.65921 0.75977 0.0
H1437 H 0.59228 0.6418 0.77084 0.0
H1438 H 0.61926 0.63108 0.44982 0.0
H1439 H 0.59045 0.61816 0.4576 0.0
H1440 H 0.63733 0.66239 0.47823 0.0
H1441 H 0.65167 0.67416 0.54567 0.0
C1442 C 0.59701 0.36878 0.82807 0.0
C1443 C 0.58192 0.36535 0.8827 0.0
C1444 C 0.59039 0.32182 0.88093 0.0
C1445 C 0.60768 0.32543 0.83124 0.0
N1446 N 0.62976 0.35303 0.76223 0.0
N1447 N 0.57083 0.34002 0.97257 0.0
C1448 C 0.61198 0.3492 0.80691 0.0
C1449 C 0.5807 0.3423 0.91268 0.0
N1450 N 0.59584 0.38988 0.79352 0.0
N1451 N 0.58253 0.29906 0.89729 0.0
H1452 H 0.56467 0.35494 0.99895 0.0
H1453 H 0.57151 0.32387 0.99878 0.0
H1454 H 0.58883 0.28313 0.87614 0.0
H1455 H 0.56806 0.29614 0.92867 0.0
H1456 H 0.60438 0.39217 0.74934 0.0
H1457 H 0.58466 0.40444 0.80568 0.0
H1458 H 0.63557 0.37033 0.74869 0.0
H1459 H 0.63967 0.33896 0.74125 0.0
C1460 C 0.88674 0.32224 0.07103 0.0
C1461 C 0.87165 0.32642 0.12517 0.0
C1462 C 0.88776 0.36783 0.13439 0.0
C1463 C 0.9018 0.36382 0.07809 0.0
N1464 N 0.90789 0.3405 0.98165 0.0
N1465 N 0.85401 0.35449 0.20083 0.0
C1466 C 0.89901 0.34208 0.04275 0.0
C1467 C 0.87069 0.34977 0.15391 0.0
N1468 N 0.89028 0.29927 0.04777 0.0
N1469 N 0.89188 0.38783 0.17175 0.0
H1470 H 0.84202 0.34134 0.21823 0.0
H1471 H 0.85085 0.37187 0.21891 0.0
H1472 H 0.90437 0.40136 0.16003 0.0
H1473 H 0.88422 0.39012 0.21701 0.0
H1474 H 0.90322 0.2952 0.01285 0.0
H1475 H 0.88184 0.28391 0.06659 0.0
H1476 H 0.90441 0.32574 0.95162 0.0
H1477 H 0.91628 0.35515 0.95865 0.0
C1478 C 0.88891 0.62756 0.3447 0.0
C1479 C 0.8935 0.63041 0.4114 0.0
C1480 C 0.86978 0.66795 0.41349 0.0
C1481 C 0.86663 0.66591 0.34628 0.0
N1482 N 0.86639 0.64134 0.25117 0.0
N1483 N 0.88311 0.6487 0.51233 0.0
C1484 C 0.87376 0.64471 0.31311 0.0
C1485 C 0.88203 0.6491 0.44686 0.0
N1486 N 0.90054 0.6098 0.31057 0.0
N1487 N 0.8621 0.68846 0.44457 0.0
H1488 H 0.89187 0.63478 0.53742 0.0
H1489 H 0.87367 0.66074 0.5417 0.0
H1490 H 0.85195 0.70199 0.42187 0.0
H1491 H 0.86651 0.69258 0.49187 0.0
H1492 H 0.90046 0.60889 0.26072 0.0
H1493 H 0.91144 0.59654 0.33163 0.0
H1494 H 0.86914 0.62527 0.22578 0.0
H1495 H 0.85548 0.65394 0.22716 0.0
C1496 C 0.41512 0.31753 0.36748 0.0
C1497 C 0.39706 0.32156 0.31995 0.0
C1498 C 0.40624 0.3653 0.32369 0.0
C1499 C 0.42136 0.36127 0.37807 0.0
N1500 N 0.43384 0.33396 0.46253 0.0
N1501 N 0.37395 0.34996 0.25572 0.0
C1502 C 0.42377 0.33751 0.40333 0.0
C1503 C 0.3919 0.34572 0.29963 0.0
N1504 N 0.42482 0.295 0.37765 0.0
N1505 N 0.40684 0.38704 0.29184 0.0
H1506 H 0.3648 0.33609 0.23163 0.0
H1507 H 0.36742 0.36734 0.24546 0.0
H1508 H 0.41778 0.4016 0.30537 0.0
H1509 H 0.39821 0.38987 0.24799 0.0
H1510 H 0.43958 0.29211 0.40813 0.0
H1511 H 0.42013 0.27963 0.35141 0.0
H1512 H 0.43406 0.31702 0.48508 0.0
H1513 H 0.43918 0.34833 0.49205 0.0
C1514 C 0.38459 0.63118 0.18853 0.0
C1515 C 0.36858 0.64675 0.1551 0.0
C1516 C 0.38334 0.6309 0.05266 0.0
C1517 C 0.40269 0.61964 0.08589 0.0
N1518 N 0.42169 0.6074 0.18509 0.0
N1519 N 0.35088 0.66071 0.05589 0.0
C1520 C 0.40294 0.61866 0.15389 0.0
C1521 C 0.36687 0.64585 0.08724 0.0
N1522 N 0.38243 0.62906 0.25354 0.0
N1523 N 0.38115 0.62753 0.98801 0.0
H1524 H 0.33786 0.67107 0.0798 0.0
H1525 H 0.351 0.66347 0.00651 0.0
H1526 H 0.3932 0.61658 0.96224 0.0
H1527 H 0.36644 0.63368 0.96113 0.0
H1528 H 0.39232 0.61672 0.28101 0.0
H1529 H 0.36896 0.6383 0.27909 0.0
H1530 H 0.42463 0.60868 0.23427 0.0
H1531 H 0.43508 0.59748 0.16123 0.0
C1532 C 0.08609 0.63946 0.87551 0.0
C1533 C 0.07201 0.64454 0.93109 0.0
C1534 C 0.08767 0.68609 0.93347 0.0
C1535 C 0.10337 0.68053 0.88129 0.0
N1536 N 0.12015 0.65091 0.8081 0.0
N1537 N 0.06459 0.67013 0.02274 0.0
C1538 C 0.10363 0.65678 0.85456 0.0
C1539 C 0.0744 0.66709 0.963 0.0
N1540 N 0.08158 0.61904 0.83999 0.0
N1541 N 0.0849 0.70949 0.95446 0.0
H1542 H 0.05545 0.65623 0.04692 0.0
H1543 H 0.06788 0.68539 0.05109 0.0
H1544 H 0.09459 0.72423 0.93633 0.0
H1545 H 0.0715 0.71463 0.98708 0.0
H1546 H 0.08929 0.6159 0.79514 0.0
H1547 H 0.06856 0.6061 0.85232 0.0
H1548 H 0.12309 0.63314 0.79255 0.0
H1549 H 0.13199 0.66354 0.7877 0.0
C1550 C 0.07453 0.33878 0.55933 0.0
C1551 C 0.07276 0.36212 0.58743 0.0
C1552 C 0.10564 0.3514 0.66184 0.0
C1553 C 0.10478 0.32704 0.63919 0.0
N1554 N 0.08321 0.29651 0.5768 0.0
N1555 N 0.08381 0.38943 0.67357 0.0
C1556 C 0.08761 0.32034 0.59139 0.0
C1557 C 0.08771 0.36831 0.6406 0.0
N1558 N 0.06445 0.33439 0.50049 0.0
N1559 N 0.12309 0.35827 0.70482 0.0
H1560 H 0.07042 0.40198 0.66122 0.0
H1561 H 0.09239 0.39353 0.71676 0.0
H1562 H 0.13521 0.34603 0.72576 0.0
H1563 H 0.12636 0.37637 0.717 0.0
H1564 H 0.06726 0.31825 0.47531 0.0
H1565 H 0.05586 0.34789 0.47353 0.0
H1566 H 0.06886 0.29112 0.54734 0.0
H1567 H 0.09232 0.2819 0.59738 0.0
loop_
_geom_bond_atom_site_label_1
_geom_bond_atom_site_label_2
_geom_bond_distance
_geom_bond_site_symmetry_2
_ccdc_geom_bond_type
In0 O1 2.294 . S
In0 O2 2.326 . S
In0 O6 2.266 . S
In0 O7 2.326 1_455 S
In0 O8 2.266 1_454 S
In0 O9 2.326 1_554 S
In0 O11 2.294 1_455 S
In0 O12 2.326 . S
O1 In0 2.294 . S
O1 C10 1.240 . S
O2 In0 2.326 . S
O2 C10 1.252 . S
C3 O6 1.252 . S
C3 O7 1.260 1_455 S
C4 O11 1.239 1_455 S
C4 O12 1.253 . S
C5 O8 1.240 1_455 S
C5 O9 1.280 . S
O6 In0 2.266 . S
O6 C3 1.252 . S
O7 In0 2.326 1_655 S
O7 C3 1.260 1_655 S
O8 In0 2.266 1_656 S
O8 C5 1.240 1_655 S
O9 In0 2.326 1_556 S
O9 C5 1.280 . S
C10 O1 1.240 . S
C10 O2 1.252 . S
O11 In0 2.294 1_655 S
O11 C4 1.239 1_655 S
O12 In0 2.326 . S
O12 C4 1.253 . S
In13 O14 2.294 . S
In13 O15 2.326 . S
In13 O19 2.266 . S
In13 O20 2.326 . S
In13 O21 2.266 . S
In13 O22 2.326 . S
In13 O24 2.294 . S
In13 O25 2.326 . S
O14 In13 2.294 . S
O14 C23 1.240 . S
O15 In13 2.326 . S
O15 C23 1.252 . S
C16 O19 1.252 . S
C16 O20 1.260 . S
C17 O24 1.240 . S
C17 O25 1.252 . S
C18 O21 1.252 . S
C18 O22 1.260 . S
O19 In13 2.266 . S
O19 C16 1.252 . S
O20 In13 2.326 . S
O20 C16 1.260 . S
O21 In13 2.266 . S
O21 C18 1.252 . S
O22 In13 2.326 . S
O22 C18 1.260 . S
C23 O14 1.240 . S
C23 O15 1.252 . S
O24 In13 2.294 . S
O24 C17 1.240 . S
O25 In13 2.326 . S
O25 C17 1.252 . S
In26 O27 2.294 . S
In26 O28 2.326 . S
In26 O32 2.266 . S
In26 O33 2.326 . S
In26 O34 2.266 . S
In26 O35 2.326 . S
In26 O37 2.294 . S
In26 O38 2.326 . S
O27 In26 2.294 . S
O27 C36 1.240 . S
O28 In26 2.326 . S
O28 C36 1.252 . S
C29 O32 1.252 . S
C29 O33 1.260 . S
C30 O37 1.240 . S
C30 O38 1.252 . S
C31 O34 1.252 . S
C31 O35 1.260 . S
O32 In26 2.266 . S
O32 C29 1.252 . S
O33 In26 2.326 . S
O33 C29 1.260 . S
O34 In26 2.266 . S
O34 C31 1.252 . S
O35 In26 2.326 . S
O35 C31 1.260 . S
C36 O27 1.240 . S
C36 O28 1.252 . S
O37 In26 2.294 . S
O37 C30 1.240 . S
O38 In26 2.326 . S
O38 C30 1.252 . S
In39 O40 2.294 . S
In39 O41 2.326 . S
In39 O45 2.266 . S
In39 O46 2.326 . S
In39 O47 2.266 . S
In39 O48 2.326 . S
In39 O50 2.294 . S
In39 O51 2.326 . S
O40 In39 2.294 . S
O40 C49 1.240 . S
O41 In39 2.326 . S
O41 C49 1.252 . S
C42 O45 1.252 . S
C42 O46 1.260 . S
C43 O50 1.240 . S
C43 O51 1.252 . S
C44 O47 1.252 . S
C44 O48 1.260 . S
O45 In39 2.266 . S
O45 C42 1.252 . S
O46 In39 2.326 . S
O46 C42 1.260 . S
O47 In39 2.266 . S
O47 C44 1.252 . S
O48 In39 2.326 . S
O48 C44 1.260 . S
C49 O40 1.240 . S
C49 O41 1.252 . S
O50 In39 2.294 . S
O50 C43 1.240 . S
O51 In39 2.326 . S
O51 C43 1.252 . S
In52 O53 2.294 . S
In52 O54 2.326 . S
In52 O58 2.266 . S
In52 O59 2.326 1_455 S
In52 O60 2.266 1_455 S
In52 O61 2.326 . S
In52 O63 2.294 1_455 S
In52 O64 2.326 . S
O53 In52 2.294 . S
O53 C62 1.240 . S
O54 In52 2.326 . S
O54 C62 1.252 . S
C55 O58 1.252 . S
C55 O59 1.260 1_455 S
C56 O63 1.240 1_455 S
C56 O64 1.252 . S
C57 O60 1.240 1_455 S
C57 O61 1.279 . S
O58 In52 2.266 . S
O58 C55 1.252 . S
O59 In52 2.326 1_655 S
O59 C55 1.260 1_655 S
O60 In52 2.266 1_655 S
O60 C57 1.240 1_655 S
O61 In52 2.326 . S
O61 C57 1.279 . S
C62 O53 1.240 . S
C62 O54 1.252 . S
O63 In52 2.294 1_655 S
O63 C56 1.240 1_655 S
O64 In52 2.326 . S
O64 C56 1.252 . S
In65 O66 2.294 . S
In65 O67 2.326 . S
In65 O71 2.266 . S
In65 O72 2.326 . S
In65 O73 2.266 . S
In65 O74 2.326 . S
In65 O76 2.294 . S
In65 O77 2.326 . S
O66 In65 2.294 . S
O66 C75 1.240 . S
O67 In65 2.326 . S
O67 C75 1.252 . S
C68 O71 1.252 . S
C68 O72 1.260 . S
C69 O76 1.240 . S
C69 O77 1.252 . S
C70 O73 1.252 . S
C70 O74 1.260 . S
O71 In65 2.266 . S
O71 C68 1.252 . S
O72 In65 2.326 . S
O72 C68 1.260 . S
O73 In65 2.266 . S
O73 C70 1.252 . S
O74 In65 2.326 . S
O74 C70 1.260 . S
C75 O66 1.240 . S
C75 O67 1.252 . S
O76 In65 2.294 . S
O76 C69 1.240 . S
O77 In65 2.326 . S
O77 C69 1.252 . S
In78 O79 2.294 . S
In78 O80 2.326 . S
In78 O84 2.266 1_556 S
In78 O85 2.326 1_556 S
In78 O86 2.266 . S
In78 O87 2.326 . S
In78 O89 2.294 . S
In78 O90 2.326 . S
O79 In78 2.294 . S
O79 C88 1.240 . S
O80 In78 2.326 . S
O80 C88 1.252 . S
C81 O84 1.252 . S
C81 O85 1.260 . S
C82 O89 1.240 . S
C82 O90 1.252 . S
C83 O86 1.252 . S
C83 O87 1.260 . S
O84 In78 2.266 1_554 S
O84 C81 1.252 . S
O85 In78 2.326 1_554 S
O85 C81 1.260 . S
O86 In78 2.266 . S
O86 C83 1.252 . S
O87 In78 2.326 . S
O87 C83 1.260 . S
C88 O79 1.240 . S
C88 O80 1.252 . S
O89 In78 2.294 . S
O89 C82 1.240 . S
O90 In78 2.326 . S
O90 C82 1.252 . S
In91 O92 2.294 . S
In91 O93 2.326 . S
In91 O97 2.266 . S
In91 O98 2.326 . S
In91 O99 2.266 . S
In91 O100 2.326 . S
In91 O102 2.294 . S
In91 O103 2.326 . S
O92 In91 2.294 . S
O92 C101 1.240 . S
O93 In91 2.326 . S
O93 C101 1.252 . S
C94 O97 1.252 . S
C94 O98 1.260 . S
C95 O102 1.240 . S
C95 O103 1.252 . S
C96 O99 1.252 . S
C96 O100 1.260 . S
O97 In91 2.266 . S
O97 C94 1.252 . S
O98 In91 2.326 . S
O98 C94 1.260 . S
O99 In91 2.266 . S
O99 C96 1.252 . S
O100 In91 2.326 . S
O100 C96 1.260 . S
C101 O92 1.240 . S
C101 O93 1.252 . S
O102 In91 2.294 . S
O102 C95 1.240 . S
O103 In91 2.326 . S
O103 C95 1.252 . S
In104 O105 2.294 1_655 S
In104 O106 2.326 . S
In104 O110 2.266 1_656 S
In104 O111 2.326 1_556 S
In104 O112 2.266 . S
In104 O113 2.326 1_655 S
In104 O115 2.294 . S
In104 O116 2.326 . S
O105 In104 2.294 1_455 S
O105 C114 1.239 1_455 S
O106 In104 2.326 . S
O106 C114 1.253 . S
C107 O110 1.240 1_655 S
C107 O111 1.280 . S
C108 O115 1.240 . S
C108 O116 1.252 . S
C109 O112 1.252 . S
C109 O113 1.260 1_655 S
O110 In104 2.266 1_454 S
O110 C107 1.240 1_455 S
O111 In104 2.326 1_554 S
O111 C107 1.280 . S
O112 In104 2.266 . S
O112 C109 1.252 . S
O113 In104 2.326 1_455 S
O113 C109 1.260 1_455 S
C114 O105 1.239 1_655 S
C114 O106 1.253 . S
O115 In104 2.294 . S
O115 C108 1.240 . S
O116 In104 2.326 . S
O116 C108 1.252 . S
In117 O118 2.294 . S
In117 O119 2.326 . S
In117 O123 2.266 . S
In117 O124 2.326 . S
In117 O125 2.266 . S
In117 O126 2.326 . S
In117 O128 2.294 . S
In117 O129 2.326 . S
O118 In117 2.294 . S
O118 C127 1.240 . S
O119 In117 2.326 . S
O119 C127 1.252 . S
C120 O123 1.252 . S
C120 O124 1.260 . S
C121 O128 1.240 . S
C121 O129 1.252 . S
C122 O125 1.252 . S
C122 O126 1.260 . S
O123 In117 2.266 . S
O123 C120 1.252 . S
O124 In117 2.326 . S
O124 C120 1.260 . S
O125 In117 2.266 . S
O125 C122 1.252 . S
O126 In117 2.326 . S
O126 C122 1.260 . S
C127 O118 1.240 . S
C127 O119 1.252 . S
O128 In117 2.294 . S
O128 C121 1.240 . S
O129 In117 2.326 . S
O129 C121 1.252 . S
In130 O131 2.294 . S
In130 O132 2.326 . S
In130 O136 2.266 . S
In130 O137 2.326 . S
In130 O138 2.266 . S
In130 O139 2.326 . S
In130 O141 2.294 . S
In130 O142 2.326 . S
O131 In130 2.294 . S
O131 C140 1.240 . S
O132 In130 2.326 . S
O132 C140 1.252 . S
C133 O136 1.252 . S
C133 O137 1.260 . S
C134 O141 1.240 . S
C134 O142 1.252 . S
C135 O138 1.252 . S
C135 O139 1.260 . S
O136 In130 2.266 . S
O136 C133 1.252 . S
O137 In130 2.326 . S
O137 C133 1.260 . S
O138 In130 2.266 . S
O138 C135 1.252 . S
O139 In130 2.326 . S
O139 C135 1.260 . S
C140 O131 1.240 . S
C140 O132 1.252 . S
O141 In130 2.294 . S
O141 C134 1.240 . S
O142 In130 2.326 . S
O142 C134 1.252 . S
In143 O144 2.294 . S
In143 O145 2.326 . S
In143 O149 2.266 . S
In143 O150 2.326 . S
In143 O151 2.266 . S
In143 O152 2.326 . S
In143 O154 2.294 . S
In143 O155 2.326 . S
O144 In143 2.294 . S
O144 C153 1.240 . S
O145 In143 2.326 . S
O145 C153 1.252 . S
C146 O149 1.252 . S
C146 O150 1.260 . S
C147 O154 1.240 . S
C147 O155 1.252 . S
C148 O151 1.252 . S
C148 O152 1.260 . S
O149 In143 2.266 . S
O149 C146 1.252 . S
O150 In143 2.326 . S
O150 C146 1.260 . S
O151 In143 2.266 . S
O151 C148 1.252 . S
O152 In143 2.326 . S
O152 C148 1.260 . S
C153 O144 1.240 . S
C153 O145 1.252 . S
O154 In143 2.294 . S
O154 C147 1.240 . S
O155 In143 2.326 . S
O155 C147 1.252 . S
In156 O157 2.294 . S
In156 O158 2.326 . S
In156 O162 2.266 . S
In156 O163 2.326 1_655 S
In156 O164 2.266 1_655 S
In156 O165 2.326 . S
In156 O167 2.294 1_655 S
In156 O168 2.326 . S
O157 In156 2.294 . S
O157 C166 1.240 . S
O158 In156 2.326 . S
O158 C166 1.252 . S
C159 O162 1.252 . S
C159 O163 1.260 1_655 S
C160 O167 1.240 1_655 S
C160 O168 1.252 . S
C161 O164 1.240 1_655 S
C161 O165 1.279 . S
O162 In156 2.266 . S
O162 C159 1.252 . S
O163 In156 2.326 1_455 S
O163 C159 1.260 1_455 S
O164 In156 2.266 1_455 S
O164 C161 1.240 1_455 S
O165 In156 2.326 . S
O165 C161 1.279 . S
C166 O157 1.240 . S
C166 O158 1.252 . S
O167 In156 2.294 1_455 S
O167 C160 1.240 1_455 S
O168 In156 2.326 . S
O168 C160 1.252 . S
In169 O170 2.294 . S
In169 O171 2.326 . S
In169 O175 2.266 . S
In169 O176 2.326 . S
In169 O177 2.266 . S
In169 O178 2.326 . S
In169 O180 2.294 . S
In169 O181 2.326 . S
O170 In169 2.294 . S
O170 C179 1.240 . S
O171 In169 2.326 . S
O171 C179 1.252 . S
C172 O175 1.252 . S
C172 O176 1.260 . S
C173 O180 1.240 . S
C173 O181 1.252 . S
C174 O177 1.252 . S
C174 O178 1.260 . S
O175 In169 2.266 . S
O175 C172 1.252 . S
O176 In169 2.326 . S
O176 C172 1.260 . S
O177 In169 2.266 . S
O177 C174 1.252 . S
O178 In169 2.326 . S
O178 C174 1.260 . S
C179 O170 1.240 . S
C179 O171 1.252 . S
O180 In169 2.294 . S
O180 C173 1.240 . S
O181 In169 2.326 . S
O181 C173 1.252 . S
In182 O183 2.294 . S
In182 O184 2.326 . S
In182 O188 2.266 1_554 S
In182 O189 2.326 1_554 S
In182 O190 2.266 . S
In182 O191 2.326 . S
In182 O193 2.294 . S
In182 O194 2.326 . S
O183 In182 2.294 . S
O183 C192 1.240 . S
O184 In182 2.326 . S
O184 C192 1.252 . S
C185 O188 1.252 . S
C185 O189 1.260 . S
C186 O193 1.240 . S
C186 O194 1.252 . S
C187 O190 1.252 . S
C187 O191 1.260 . S
O188 In182 2.266 1_556 S
O188 C185 1.252 . S
O189 In182 2.326 1_556 S
O189 C185 1.260 . S
O190 In182 2.266 . S
O190 C187 1.252 . S
O191 In182 2.326 . S
O191 C187 1.260 . S
C192 O183 1.240 . S
C192 O184 1.252 . S
O193 In182 2.294 . S
O193 C186 1.240 . S
O194 In182 2.326 . S
O194 C186 1.252 . S
In195 O196 2.294 . S
In195 O197 2.326 . S
In195 O201 2.266 . S
In195 O202 2.326 . S
In195 O203 2.266 . S
In195 O204 2.326 . S
In195 O206 2.294 . S
In195 O207 2.326 . S
O196 In195 2.294 . S
O196 C205 1.240 . S
O197 In195 2.326 . S
O197 C205 1.252 . S
C198 O201 1.252 . S
C198 O202 1.260 . S
C199 O206 1.240 . S
C199 O207 1.252 . S
C200 O203 1.252 . S
C200 O204 1.260 . S
O201 In195 2.266 . S
O201 C198 1.252 . S
O202 In195 2.326 . S
O202 C198 1.260 . S
O203 In195 2.266 . S
O203 C200 1.252 . S
O204 In195 2.326 . S
O204 C200 1.260 . S
C205 O196 1.240 . S
C205 O197 1.252 . S
O206 In195 2.294 . S
O206 C199 1.240 . S
O207 In195 2.326 . S
O207 C199 1.252 . S
In208 O209 2.294 . S
In208 O210 2.326 . S
In208 O214 2.266 . S
In208 O215 2.326 . S
In208 O216 2.266 . S
In208 O217 2.326 . S
In208 O219 2.294 . S
In208 O220 2.326 . S
O209 In208 2.294 . S
O209 C218 1.240 . S
O210 In208 2.326 . S
O210 C218 1.252 . S
C211 O214 1.252 . S
C211 O215 1.260 . S
C212 O219 1.240 . S
C212 O220 1.252 . S
C213 O216 1.252 . S
C213 O217 1.260 . S
O214 In208 2.266 . S
O214 C211 1.252 . S
O215 In208 2.326 . S
O215 C211 1.260 . S
O216 In208 2.266 . S
O216 C213 1.252 . S
O217 In208 2.326 . S
O217 C213 1.260 . S
C218 O209 1.240 . S
C218 O210 1.252 . S
O219 In208 2.294 . S
O219 C212 1.240 . S
O220 In208 2.326 . S
O220 C212 1.252 . S
In221 O222 2.294 . S
In221 O223 2.326 . S
In221 O227 2.266 . S
In221 O228 2.326 . S
In221 O229 2.266 . S
In221 O230 2.326 . S
In221 O232 2.294 . S
In221 O233 2.326 . S
O222 In221 2.294 . S
O222 C231 1.240 . S
O223 In221 2.326 . S
O223 C231 1.252 . S
C224 O227 1.252 . S
C224 O228 1.260 . S
C225 O232 1.240 . S
C225 O233 1.252 . S
C226 O229 1.252 . S
C226 O230 1.260 . S
O227 In221 2.266 . S
O227 C224 1.252 . S
O228 In221 2.326 . S
O228 C224 1.260 . S
O229 In221 2.266 . S
O229 C226 1.252 . S
O230 In221 2.326 . S
O230 C226 1.260 . S
C231 O222 1.240 . S
C231 O223 1.252 . S
O232 In221 2.294 . S
O232 C225 1.240 . S
O233 In221 2.326 . S
O233 C225 1.252 . S
In234 O235 2.294 1_655 S
In234 O236 2.326 . S
In234 O240 2.266 1_654 S
In234 O241 2.326 1_554 S
In234 O242 2.266 . S
In234 O243 2.326 1_655 S
In234 O245 2.294 . S
In234 O246 2.326 . S
O235 In234 2.294 1_455 S
O235 C244 1.239 1_455 S
O236 In234 2.326 . S
O236 C244 1.253 . S
C237 O240 1.240 1_655 S
C237 O241 1.280 . S
C238 O245 1.240 . S
C238 O246 1.252 . S
C239 O242 1.252 . S
C239 O243 1.260 1_655 S
O240 In234 2.266 1_456 S
O240 C237 1.240 1_455 S
O241 In234 2.326 1_556 S
O241 C237 1.280 . S
O242 In234 2.266 . S
O242 C239 1.252 . S
O243 In234 2.326 1_455 S
O243 C239 1.260 1_455 S
C244 O235 1.239 1_655 S
C244 O236 1.253 . S
O245 In234 2.294 . S
O245 C238 1.240 . S
O246 In234 2.326 . S
O246 C238 1.252 . S
In247 O248 2.294 . S
In247 O249 2.326 . S
In247 O253 2.266 . S
In247 O254 2.326 . S
In247 O255 2.266 . S
In247 O256 2.326 . S
In247 O258 2.294 . S
In247 O259 2.326 . S
O248 In247 2.294 . S
O248 C257 1.240 . S
O249 In247 2.326 . S
O249 C257 1.252 . S
C250 O253 1.252 . S
C250 O254 1.260 . S
C251 O258 1.240 . S
C251 O259 1.252 . S
C252 O255 1.252 . S
C252 O256 1.260 . S
O253 In247 2.266 . S
O253 C250 1.252 . S
O254 In247 2.326 . S
O254 C250 1.260 . S
O255 In247 2.266 . S
O255 C252 1.252 . S
O256 In247 2.326 . S
O256 C252 1.260 . S
C257 O248 1.240 . S
C257 O249 1.252 . S
O258 In247 2.294 . S
O258 C251 1.240 . S
O259 In247 2.326 . S
O259 C251 1.252 . S
In260 O261 2.294 . S
In260 O262 2.326 . S
In260 O266 2.266 . S
In260 O267 2.326 . S
In260 O268 2.266 1_556 S
In260 O269 2.326 1_556 S
In260 O271 2.294 . S
In260 O272 2.326 . S
O261 In260 2.294 . S
O261 C270 1.240 . S
O262 In260 2.326 . S
O262 C270 1.252 . S
C263 O266 1.252 . S
C263 O267 1.260 . S
C264 O271 1.240 . S
C264 O272 1.252 . S
C265 O268 1.252 . S
C265 O269 1.260 . S
O266 In260 2.266 . S
O266 C263 1.252 . S
O267 In260 2.326 . S
O267 C263 1.260 . S
O268 In260 2.266 1_554 S
O268 C265 1.252 . S
O269 In260 2.326 1_554 S
O269 C265 1.260 . S
C270 O261 1.240 . S
C270 O262 1.252 . S
O271 In260 2.294 . S
O271 C264 1.240 . S
O272 In260 2.326 . S
O272 C264 1.252 . S
In273 O274 2.294 . S
In273 O275 2.326 . S
In273 O279 2.266 . S
In273 O280 2.326 . S
In273 O281 2.266 . S
In273 O282 2.326 . S
In273 O284 2.294 . S
In273 O285 2.326 . S
O274 In273 2.294 . S
O274 C283 1.240 . S
O275 In273 2.326 . S
O275 C283 1.252 . S
C276 O279 1.252 . S
C276 O280 1.260 . S
C277 O284 1.240 . S
C277 O285 1.252 . S
C278 O281 1.252 . S
C278 O282 1.260 . S
O279 In273 2.266 . S
O279 C276 1.252 . S
O280 In273 2.326 . S
O280 C276 1.260 . S
O281 In273 2.266 . S
O281 C278 1.252 . S
O282 In273 2.326 . S
O282 C278 1.260 . S
C283 O274 1.240 . S
C283 O275 1.252 . S
O284 In273 2.294 . S
O284 C277 1.240 . S
O285 In273 2.326 . S
O285 C277 1.252 . S
In286 O287 2.294 . S
In286 O288 2.326 . S
In286 O292 2.266 . S
In286 O293 2.326 1_655 S
In286 O294 2.266 1_655 S
In286 O295 2.326 . S
In286 O297 2.294 1_655 S
In286 O298 2.326 . S
O287 In286 2.294 . S
O287 C296 1.240 . S
O288 In286 2.326 . S
O288 C296 1.252 . S
C289 O292 1.252 . S
C289 O293 1.260 1_655 S
C290 O297 1.240 1_655 S
C290 O298 1.252 . S
C291 O294 1.240 1_655 S
C291 O295 1.279 . S
O292 In286 2.266 . S
O292 C289 1.252 . S
O293 In286 2.326 1_455 S
O293 C289 1.260 1_455 S
O294 In286 2.266 1_455 S
O294 C291 1.240 1_455 S
O295 In286 2.326 . S
O295 C291 1.279 . S
C296 O287 1.240 . S
C296 O288 1.252 . S
O297 In286 2.294 1_455 S
O297 C290 1.240 1_455 S
O298 In286 2.326 . S
O298 C290 1.252 . S
In299 O300 2.294 . S
In299 O301 2.326 . S
In299 O305 2.266 . S
In299 O306 2.326 . S
In299 O307 2.266 . S
In299 O308 2.326 . S
In299 O310 2.294 . S
In299 O311 2.326 . S
O300 In299 2.294 . S
O300 C309 1.240 . S
O301 In299 2.326 . S
O301 C309 1.252 . S
C302 O305 1.252 . S
C302 O306 1.260 . S
C303 O310 1.240 . S
C303 O311 1.252 . S
C304 O307 1.252 . S
C304 O308 1.260 . S
O305 In299 2.266 . S
O305 C302 1.252 . S
O306 In299 2.326 . S
O306 C302 1.260 . S
O307 In299 2.266 . S
O307 C304 1.252 . S
O308 In299 2.326 . S
O308 C304 1.260 . S
C309 O300 1.240 . S
C309 O301 1.252 . S
O310 In299 2.294 . S
O310 C303 1.240 . S
O311 In299 2.326 . S
O311 C303 1.252 . S
In312 O313 2.294 . S
In312 O314 2.326 . S
In312 O318 2.266 . S
In312 O319 2.326 . S
In312 O320 2.266 . S
In312 O321 2.326 . S
In312 O323 2.294 . S
In312 O324 2.326 . S
O313 In312 2.294 . S
O313 C322 1.240 . S
O314 In312 2.326 . S
O314 C322 1.252 . S
C315 O318 1.252 . S
C315 O319 1.260 . S
C316 O323 1.240 . S
C316 O324 1.252 . S
C317 O320 1.252 . S
C317 O321 1.260 . S
O318 In312 2.266 . S
O318 C315 1.252 . S
O319 In312 2.326 . S
O319 C315 1.260 . S
O320 In312 2.266 . S
O320 C317 1.252 . S
O321 In312 2.326 . S
O321 C317 1.260 . S
C322 O313 1.240 . S
C322 O314 1.252 . S
O323 In312 2.294 . S
O323 C316 1.240 . S
O324 In312 2.326 . S
O324 C316 1.252 . S
In325 O326 2.294 . S
In325 O327 2.326 . S
In325 O331 2.266 . S
In325 O332 2.326 . S
In325 O333 2.266 . S
In325 O334 2.326 . S
In325 O336 2.294 . S
In325 O337 2.326 . S
O326 In325 2.294 . S
O326 C335 1.240 . S
O327 In325 2.326 . S
O327 C335 1.252 . S
C328 O331 1.252 . S
C328 O332 1.260 . S
C329 O336 1.240 . S
C329 O337 1.252 . S
C330 O333 1.252 . S
C330 O334 1.260 . S
O331 In325 2.266 . S
O331 C328 1.252 . S
O332 In325 2.326 . S
O332 C328 1.260 . S
O333 In325 2.266 . S
O333 C330 1.252 . S
O334 In325 2.326 . S
O334 C330 1.260 . S
C335 O326 1.240 . S
C335 O327 1.252 . S
O336 In325 2.294 . S
O336 C329 1.240 . S
O337 In325 2.326 . S
O337 C329 1.252 . S
In338 O339 2.294 . S
In338 O340 2.326 . S
In338 O344 2.266 . S
In338 O345 2.326 1_455 S
In338 O346 2.266 1_456 S
In338 O347 2.326 1_556 S
In338 O349 2.294 1_455 S
In338 O350 2.326 . S
O339 In338 2.294 . S
O339 C348 1.240 . S
O340 In338 2.326 . S
O340 C348 1.252 . S
C341 O344 1.252 . S
C341 O345 1.260 1_455 S
C342 O349 1.239 1_455 S
C342 O350 1.253 . S
C343 O346 1.240 1_455 S
C343 O347 1.280 . S
O344 In338 2.266 . S
O344 C341 1.252 . S
O345 In338 2.326 1_655 S
O345 C341 1.260 1_655 S
O346 In338 2.266 1_654 S
O346 C343 1.240 1_655 S
O347 In338 2.326 1_554 S
O347 C343 1.280 . S
C348 O339 1.240 . S
C348 O340 1.252 . S
O349 In338 2.294 1_655 S
O349 C342 1.239 1_655 S
O350 In338 2.326 . S
O350 C342 1.253 . S
In351 O352 2.294 . S
In351 O353 2.326 . S
In351 O357 2.266 . S
In351 O358 2.326 . S
In351 O359 2.266 . S
In351 O360 2.326 . S
In351 O362 2.294 . S
In351 O363 2.326 . S
O352 In351 2.294 . S
O352 C361 1.240 . S
O353 In351 2.326 . S
O353 C361 1.252 . S
C354 O357 1.252 . S
C354 O358 1.260 . S
C355 O362 1.240 . S
C355 O363 1.252 . S
C356 O359 1.252 . S
C356 O360 1.260 . S
O357 In351 2.266 . S
O357 C354 1.252 . S
O358 In351 2.326 . S
O358 C354 1.260 . S
O359 In351 2.266 . S
O359 C356 1.252 . S
O360 In351 2.326 . S
O360 C356 1.260 . S
C361 O352 1.240 . S
C361 O353 1.252 . S
O362 In351 2.294 . S
O362 C355 1.240 . S
O363 In351 2.326 . S
O363 C355 1.252 . S
In364 O365 2.294 . S
In364 O366 2.326 . S
In364 O370 2.266 . S
In364 O371 2.326 . S
In364 O372 2.266 1_554 S
In364 O373 2.326 1_554 S
In364 O375 2.294 . S
In364 O376 2.326 . S
O365 In364 2.294 . S
O365 C374 1.240 . S
O366 In364 2.326 . S
O366 C374 1.252 . S
C367 O370 1.252 . S
C367 O371 1.260 . S
C368 O375 1.240 . S
C368 O376 1.252 . S
C369 O372 1.252 . S
C369 O373 1.260 . S
O370 In364 2.266 . S
O370 C367 1.252 . S
O371 In364 2.326 . S
O371 C367 1.260 . S
O372 In364 2.266 1_556 S
O372 C369 1.252 . S
O373 In364 2.326 1_556 S
O373 C369 1.260 . S
C374 O365 1.240 . S
C374 O366 1.252 . S
O375 In364 2.294 . S
O375 C368 1.240 . S
O376 In364 2.326 . S
O376 C368 1.252 . S
In377 O378 2.294 . S
In377 O379 2.326 . S
In377 O383 2.266 . S
In377 O384 2.326 . S
In377 O385 2.266 . S
In377 O386 2.326 . S
In377 O388 2.294 . S
In377 O389 2.326 . S
O378 In377 2.294 . S
O378 C387 1.240 . S
O379 In377 2.326 . S
O379 C387 1.252 . S
C380 O383 1.252 . S
C380 O384 1.260 . S
C381 O388 1.240 . S
C381 O389 1.252 . S
C382 O385 1.252 . S
C382 O386 1.260 . S
O383 In377 2.266 . S
O383 C380 1.252 . S
O384 In377 2.326 . S
O384 C380 1.260 . S
O385 In377 2.266 . S
O385 C382 1.252 . S
O386 In377 2.326 . S
O386 C382 1.260 . S
C387 O378 1.240 . S
C387 O379 1.252 . S
O388 In377 2.294 . S
O388 C381 1.240 . S
O389 In377 2.326 . S
O389 C381 1.252 . S
In390 O391 2.294 1_455 S
In390 O392 2.326 . S
In390 O396 2.266 1_455 S
In390 O397 2.326 . S
In390 O398 2.266 . S
In390 O399 2.326 1_455 S
In390 O401 2.294 . S
In390 O402 2.326 . S
O391 In390 2.294 1_655 S
O391 C400 1.240 1_655 S
O392 In390 2.326 . S
O392 C400 1.252 . S
C393 O396 1.240 1_455 S
C393 O397 1.279 . S
C394 O401 1.240 . S
C394 O402 1.252 . S
C395 O398 1.252 . S
C395 O399 1.260 1_455 S
O396 In390 2.266 1_655 S
O396 C393 1.240 1_655 S
O397 In390 2.326 . S
O397 C393 1.279 . S
O398 In390 2.266 . S
O398 C395 1.252 . S
O399 In390 2.326 1_655 S
O399 C395 1.260 1_655 S
C400 O391 1.240 1_455 S
C400 O392 1.252 . S
O401 In390 2.294 . S
O401 C394 1.240 . S
O402 In390 2.326 . S
O402 C394 1.252 . S
In403 O404 2.294 . S
In403 O405 2.326 . S
In403 O409 2.266 . S
In403 O410 2.326 . S
In403 O411 2.266 . S
In403 O412 2.326 . S
In403 O414 2.294 . S
In403 O415 2.326 . S
O404 In403 2.294 . S
O404 C413 1.240 . S
O405 In403 2.326 . S
O405 C413 1.252 . S
C406 O409 1.252 . S
C406 O410 1.260 . S
C407 O414 1.240 . S
C407 O415 1.252 . S
C408 O411 1.252 . S
C408 O412 1.260 . S
O409 In403 2.266 . S
O409 C406 1.252 . S
O410 In403 2.326 . S
O410 C406 1.260 . S
O411 In403 2.266 . S
O411 C408 1.252 . S
O412 In403 2.326 . S
O412 C408 1.260 . S
C413 O404 1.240 . S
C413 O405 1.252 . S
O414 In403 2.294 . S
O414 C407 1.240 . S
O415 In403 2.326 . S
O415 C407 1.252 . S
C416 C417 1.363 . S
C416 C422 1.379 . S
C416 N424 1.356 . S
C417 C416 1.363 . S
C417 C423 1.363 1_455 S
C418 C419 1.363 . S
C418 C423 1.379 . S
C418 N425 1.356 . S
C419 C418 1.363 . S
C419 C422 1.363 1_655 S
N420 C422 1.356 . S
N420 H432 0.984 . S
N420 H433 0.985 . S
N421 C423 1.356 . S
N421 H426 0.984 . S
N421 H427 0.985 . S
C422 C416 1.379 . S
C422 C419 1.363 1_455 S
C422 N420 1.356 . S
C423 C417 1.363 1_655 S
C423 C418 1.379 . S
C423 N421 1.356 . S
N424 C416 1.356 . S
N424 H430 0.984 . S
N424 H431 0.984 . S
N425 C418 1.356 . S
N425 H428 0.984 . S
N425 H429 0.985 . S
H426 N421 0.984 . S
H427 N421 0.985 . S
H428 N425 0.984 . S
H429 N425 0.985 . S
H430 N424 0.984 . S
H431 N424 0.984 . S
H432 N420 0.984 . S
H433 N420 0.985 . S
C434 C435 1.363 1_554 S
C434 C440 1.379 . S
C434 N442 1.356 1_554 S
C435 C434 1.363 1_556 S
C435 C441 1.363 1_556 S
C436 C437 1.363 . S
C436 C441 1.379 . S
C436 N443 1.356 . S
C437 C436 1.363 . S
C437 C440 1.363 . S
N438 C440 1.356 . S
N438 H450 0.984 . S
N438 H451 0.985 . S
N439 C441 1.356 1_556 S
N439 H444 0.984 . S
N439 H445 0.985 1_556 S
C440 C434 1.379 . S
C440 C437 1.363 . S
C440 N438 1.356 . S
C441 C435 1.363 1_554 S
C441 C436 1.379 . S
C441 N439 1.356 1_554 S
N442 C434 1.356 1_556 S
N442 H448 0.984 . S
N442 H449 0.984 . S
N443 C436 1.356 . S
N443 H446 0.984 . S
N443 H447 0.985 . S
H444 N439 0.984 . S
H445 N439 0.985 1_554 S
H446 N443 0.984 . S
H447 N443 0.985 . S
H448 N442 0.984 . S
H449 N442 0.984 . S
H450 N438 0.984 . S
H451 N438 0.985 . S
C452 C453 1.363 . S
C452 C458 1.379 . S
C452 N460 1.356 . S
C453 C452 1.363 . S
C453 C459 1.363 . S
C454 C455 1.363 . S
C454 C459 1.379 . S
C454 N461 1.356 . S
C455 C454 1.363 . S
C455 C458 1.363 . S
N456 C458 1.356 . S
N456 H468 0.984 . S
N456 H469 0.985 . S
N457 C459 1.356 . S
N457 H462 0.984 . S
N457 H463 0.985 . S
C458 C452 1.379 . S
C458 C455 1.363 . S
C458 N456 1.356 . S
C459 C453 1.363 . S
C459 C454 1.379 . S
C459 N457 1.356 . S
N460 C452 1.356 . S
N460 H466 0.984 . S
N460 H467 0.984 . S
N461 C454 1.356 . S
N461 H464 0.984 . S
N461 H465 0.985 . S
H462 N457 0.984 . S
H463 N457 0.985 . S
H464 N461 0.984 . S
H465 N461 0.985 . S
H466 N460 0.984 . S
H467 N460 0.984 . S
H468 N456 0.984 . S
H469 N456 0.985 . S
C470 C471 1.363 . S
C470 C476 1.379 . S
C470 N478 1.356 . S
C471 C470 1.363 . S
C471 C477 1.363 . S
C472 C473 1.363 . S
C472 C477 1.379 . S
C472 N479 1.356 . S
C473 C472 1.363 . S
C473 C476 1.363 . S
N474 C476 1.356 . S
N474 H486 0.984 . S
N474 H487 0.985 . S
N475 C477 1.356 . S
N475 H480 0.984 . S
N475 H481 0.985 . S
C476 C470 1.379 . S
C476 C473 1.363 . S
C476 N474 1.356 . S
C477 C471 1.363 . S
C477 C472 1.379 . S
C477 N475 1.356 . S
N478 C470 1.356 . S
N478 H484 0.984 . S
N478 H485 0.984 . S
N479 C472 1.356 . S
N479 H482 0.984 . S
N479 H483 0.985 . S
H480 N475 0.984 . S
H481 N475 0.985 . S
H482 N479 0.984 . S
H483 N479 0.985 . S
H484 N478 0.984 . S
H485 N478 0.984 . S
H486 N474 0.984 . S
H487 N474 0.985 . S
C488 C489 1.363 1_655 S
C488 C494 1.379 . S
C488 N496 1.356 . S
C489 C488 1.363 1_455 S
C489 C495 1.363 . S
C490 C491 1.363 1_455 S
C490 C495 1.379 . S
C490 N497 1.356 . S
C491 C490 1.363 1_655 S
C491 C494 1.363 . S
N492 C494 1.356 . S
N492 H504 0.984 . S
N492 H505 0.985 . S
N493 C495 1.356 . S
N493 H498 0.984 . S
N493 H499 0.985 . S
C494 C488 1.379 . S
C494 C491 1.363 . S
C494 N492 1.356 . S
C495 C489 1.363 . S
C495 C490 1.379 . S
C495 N493 1.356 . S
N496 C488 1.356 . S
N496 H502 0.984 . S
N496 H503 0.984 . S
N497 C490 1.356 . S
N497 H500 0.984 . S
N497 H501 0.985 . S
H498 N493 0.984 . S
H499 N493 0.985 . S
H500 N497 0.984 . S
H501 N497 0.985 . S
H502 N496 0.984 . S
H503 N496 0.984 . S
H504 N492 0.984 . S
H505 N492 0.985 . S
C506 C507 1.363 . S
C506 C512 1.379 . S
C506 N514 1.356 . S
C507 C506 1.363 . S
C507 C513 1.363 . S
C508 C509 1.363 1_556 S
C508 C513 1.379 . S
C508 N515 1.356 1_556 S
C509 C508 1.363 1_554 S
C509 C512 1.363 1_554 S
N510 C512 1.356 1_554 S
N510 H522 0.984 . S
N510 H523 0.985 . S
N511 C513 1.356 . S
N511 H516 0.984 . S
N511 H517 0.985 . S
C512 C506 1.379 . S
C512 C509 1.363 1_556 S
C512 N510 1.356 1_556 S
C513 C507 1.363 . S
C513 C508 1.379 . S
C513 N511 1.356 . S
N514 C506 1.356 . S
N514 H520 0.984 . S
N514 H521 0.984 . S
N515 C508 1.356 1_554 S
N515 H518 0.984 . S
N515 H519 0.985 . S
H516 N511 0.984 . S
H517 N511 0.985 . S
H518 N515 0.984 . S
H519 N515 0.985 . S
H520 N514 0.984 . S
H521 N514 0.984 . S
H522 N510 0.984 . S
H523 N510 0.985 . S
C524 C525 1.363 . S
C524 C530 1.379 . S
C524 N532 1.356 . S
C525 C524 1.363 . S
C525 C531 1.363 . S
C526 C527 1.363 . S
C526 C531 1.379 . S
C526 N533 1.356 . S
C527 C526 1.363 . S
C527 C530 1.363 . S
N528 C530 1.356 . S
N528 H540 0.984 . S
N528 H541 0.985 . S
N529 C531 1.356 . S
N529 H534 0.984 . S
N529 H535 0.985 . S
C530 C524 1.379 . S
C530 C527 1.363 . S
C530 N528 1.356 . S
C531 C525 1.363 . S
C531 C526 1.379 . S
C531 N529 1.356 . S
N532 C524 1.356 . S
N532 H538 0.984 . S
N532 H539 0.984 . S
N533 C526 1.356 . S
N533 H536 0.984 . S
N533 H537 0.985 . S
H534 N529 0.984 . S
H535 N529 0.985 . S
H536 N533 0.984 . S
H537 N533 0.985 . S
H538 N532 0.984 . S
H539 N532 0.984 . S
H540 N528 0.984 . S
H541 N528 0.985 . S
C542 C543 1.363 . S
C542 C548 1.379 . S
C542 N550 1.356 . S
C543 C542 1.363 . S
C543 C549 1.363 . S
C544 C545 1.363 . S
C544 C549 1.379 . S
C544 N551 1.356 . S
C545 C544 1.363 . S
C545 C548 1.363 . S
N546 C548 1.356 . S
N546 H558 0.984 . S
N546 H559 0.985 . S
N547 C549 1.356 . S
N547 H552 0.984 . S
N547 H553 0.985 . S
C548 C542 1.379 . S
C548 C545 1.363 . S
C548 N546 1.356 . S
C549 C543 1.363 . S
C549 C544 1.379 . S
C549 N547 1.356 . S
N550 C542 1.356 . S
N550 H556 0.984 . S
N550 H557 0.984 . S
N551 C544 1.356 . S
N551 H554 0.984 . S
N551 H555 0.985 . S
H552 N547 0.984 . S
H553 N547 0.985 . S
H554 N551 0.984 . S
H555 N551 0.985 . S
H556 N550 0.984 . S
H557 N550 0.984 . S
H558 N546 0.984 . S
H559 N546 0.985 . S
C560 C561 1.363 . S
C560 C566 1.379 . S
C560 N568 1.356 . S
C561 C560 1.363 . S
C561 C567 1.363 1_655 S
C562 C563 1.363 . S
C562 C567 1.379 . S
C562 N569 1.356 . S
C563 C562 1.363 . S
C563 C566 1.363 1_455 S
N564 C566 1.356 . S
N564 H576 0.984 . S
N564 H577 0.985 . S
N565 C567 1.356 . S
N565 H570 0.984 . S
N565 H571 0.985 . S
C566 C560 1.379 . S
C566 C563 1.363 1_655 S
C566 N564 1.356 . S
C567 C561 1.363 1_455 S
C567 C562 1.379 . S
C567 N565 1.356 . S
N568 C560 1.356 . S
N568 H574 0.984 . S
N568 H575 0.984 . S
N569 C562 1.356 . S
N569 H572 0.984 . S
N569 H573 0.985 . S
H570 N565 0.984 . S
H571 N565 0.985 . S
H572 N569 0.984 . S
H573 N569 0.985 . S
H574 N568 0.984 . S
H575 N568 0.984 . S
H576 N564 0.984 . S
H577 N564 0.985 . S
C578 C579 1.363 1_556 S
C578 C584 1.379 . S
C578 N586 1.356 1_556 S
C579 C578 1.363 1_554 S
C579 C585 1.363 1_554 S
C580 C581 1.363 . S
C580 C585 1.379 . S
C580 N587 1.356 . S
C581 C580 1.363 . S
C581 C584 1.363 . S
N582 C584 1.356 . S
N582 H594 0.984 . S
N582 H595 0.985 . S
N583 C585 1.356 1_554 S
N583 H588 0.984 . S
N583 H589 0.985 1_554 S
C584 C578 1.379 . S
C584 C581 1.363 . S
C584 N582 1.356 . S
C585 C579 1.363 1_556 S
C585 C580 1.379 . S
C585 N583 1.356 1_556 S
N586 C578 1.356 1_554 S
N586 H592 0.984 . S
N586 H593 0.984 . S
N587 C580 1.356 . S
N587 H590 0.984 . S
N587 H591 0.985 . S
H588 N583 0.984 . S
H589 N583 0.985 1_556 S
H590 N587 0.984 . S
H591 N587 0.985 . S
H592 N586 0.984 . S
H593 N586 0.984 . S
H594 N582 0.984 . S
H595 N582 0.985 . S
C596 C597 1.363 . S
C596 C602 1.379 . S
C596 N604 1.356 . S
C597 C596 1.363 . S
C597 C603 1.363 . S
C598 C599 1.363 . S
C598 C603 1.379 . S
C598 N605 1.356 . S
C599 C598 1.363 . S
C599 C602 1.363 . S
N600 C602 1.356 . S
N600 H612 0.984 . S
N600 H613 0.985 . S
N601 C603 1.356 . S
N601 H606 0.984 . S
N601 H607 0.985 . S
C602 C596 1.379 . S
C602 C599 1.363 . S
C602 N600 1.356 . S
C603 C597 1.363 . S
C603 C598 1.379 . S
C603 N601 1.356 . S
N604 C596 1.356 . S
N604 H610 0.984 . S
N604 H611 0.984 . S
N605 C598 1.356 . S
N605 H608 0.984 . S
N605 H609 0.985 . S
H606 N601 0.984 . S
H607 N601 0.985 . S
H608 N605 0.984 . S
H609 N605 0.985 . S
H610 N604 0.984 . S
H611 N604 0.984 . S
H612 N600 0.984 . S
H613 N600 0.985 . S
C614 C615 1.363 . S
C614 C620 1.379 . S
C614 N622 1.356 . S
C615 C614 1.363 . S
C615 C621 1.363 . S
C616 C617 1.363 . S
C616 C621 1.379 . S
C616 N623 1.356 . S
C617 C616 1.363 . S
C617 C620 1.363 . S
N618 C620 1.356 . S
N618 H630 0.984 . S
N618 H631 0.985 . S
N619 C621 1.356 . S
N619 H624 0.984 . S
N619 H625 0.985 . S
C620 C614 1.379 . S
C620 C617 1.363 . S
C620 N618 1.356 . S
C621 C615 1.363 . S
C621 C616 1.379 . S
C621 N619 1.356 . S
N622 C614 1.356 . S
N622 H628 0.984 . S
N622 H629 0.984 . S
N623 C616 1.356 . S
N623 H626 0.984 . S
N623 H627 0.985 . S
H624 N619 0.984 . S
H625 N619 0.985 . S
H626 N623 0.984 . S
H627 N623 0.985 . S
H628 N622 0.984 . S
H629 N622 0.984 . S
H630 N618 0.984 . S
H631 N618 0.985 . S
C632 C633 1.363 1_655 S
C632 C638 1.379 . S
C632 N640 1.356 . S
C633 C632 1.363 1_455 S
C633 C639 1.363 . S
C634 C635 1.363 1_455 S
C634 C639 1.379 . S
C634 N641 1.356 . S
C635 C634 1.363 1_655 S
C635 C638 1.363 . S
N636 C638 1.356 . S
N636 H648 0.984 . S
N636 H649 0.985 . S
N637 C639 1.356 . S
N637 H642 0.984 . S
N637 H643 0.985 . S
C638 C632 1.379 . S
C638 C635 1.363 . S
C638 N636 1.356 . S
C639 C633 1.363 . S
C639 C634 1.379 . S
C639 N637 1.356 . S
N640 C632 1.356 . S
N640 H646 0.984 . S
N640 H647 0.984 . S
N641 C634 1.356 . S
N641 H644 0.984 . S
N641 H645 0.985 . S
H642 N637 0.984 . S
H643 N637 0.985 . S
H644 N641 0.984 . S
H645 N641 0.985 . S
H646 N640 0.984 . S
H647 N640 0.984 . S
H648 N636 0.984 . S
H649 N636 0.985 . S
C650 C651 1.363 . S
C650 C656 1.379 . S
C650 N658 1.356 . S
C651 C650 1.363 . S
C651 C657 1.363 . S
C652 C653 1.363 1_554 S
C652 C657 1.379 . S
C652 N659 1.356 1_554 S
C653 C652 1.363 1_556 S
C653 C656 1.363 1_556 S
N654 C656 1.356 1_556 S
N654 H666 0.984 1_556 S
N654 H667 0.985 . S
N655 C657 1.356 . S
N655 H660 0.984 . S
N655 H661 0.985 . S
C656 C650 1.379 . S
C656 C653 1.363 1_554 S
C656 N654 1.356 1_554 S
C657 C651 1.363 . S
C657 C652 1.379 . S
C657 N655 1.356 . S
N658 C650 1.356 . S
N658 H664 0.984 . S
N658 H665 0.984 . S
N659 C652 1.356 1_556 S
N659 H662 0.984 . S
N659 H663 0.985 . S
H660 N655 0.984 . S
H661 N655 0.985 . S
H662 N659 0.984 . S
H663 N659 0.985 . S
H664 N658 0.984 . S
H665 N658 0.984 . S
H666 N654 0.984 1_554 S
H667 N654 0.985 . S
C668 C669 1.363 . S
C668 C674 1.379 . S
C668 N676 1.356 . S
C669 C668 1.363 . S
C669 C675 1.363 . S
C670 C671 1.363 . S
C670 C675 1.379 . S
C670 N677 1.356 . S
C671 C670 1.363 . S
C671 C674 1.363 . S
N672 C674 1.356 . S
N672 H684 0.984 . S
N672 H685 0.985 . S
N673 C675 1.356 . S
N673 H678 0.984 . S
N673 H679 0.985 . S
C674 C668 1.379 . S
C674 C671 1.363 . S
C674 N672 1.356 . S
C675 C669 1.363 . S
C675 C670 1.379 . S
C675 N673 1.356 . S
N676 C668 1.356 . S
N676 H682 0.984 . S
N676 H683 0.984 . S
N677 C670 1.356 . S
N677 H680 0.984 . S
N677 H681 0.985 . S
H678 N673 0.984 . S
H679 N673 0.985 . S
H680 N677 0.984 . S
H681 N677 0.985 . S
H682 N676 0.984 . S
H683 N676 0.984 . S
H684 N672 0.984 . S
H685 N672 0.985 . S
C686 C687 1.363 . S
C686 C692 1.379 . S
C686 N694 1.356 . S
C687 C686 1.363 . S
C687 C693 1.363 . S
C688 C689 1.363 . S
C688 C693 1.379 . S
C688 N695 1.356 . S
C689 C688 1.363 . S
C689 C692 1.363 . S
N690 C692 1.356 . S
N690 H702 0.984 . S
N690 H703 0.985 . S
N691 C693 1.356 . S
N691 H696 0.984 . S
N691 H697 0.985 . S
C692 C686 1.379 . S
C692 C689 1.363 . S
C692 N690 1.356 . S
C693 C687 1.363 . S
C693 C688 1.379 . S
C693 N691 1.356 . S
N694 C686 1.356 . S
N694 H700 0.984 . S
N694 H701 0.984 . S
N695 C688 1.356 . S
N695 H698 0.984 . S
N695 H699 0.985 . S
H696 N691 0.984 . S
H697 N691 0.985 . S
H698 N695 0.984 . S
H699 N695 0.985 . S
H700 N694 0.984 . S
H701 N694 0.984 . S
H702 N690 0.984 . S
H703 N690 0.985 . S
C704 C705 1.363 . S
C704 C710 1.379 . S
C704 N712 1.356 . S
C705 C704 1.363 . S
C705 C711 1.363 . S
C706 C707 1.363 . S
C706 C711 1.379 . S
C706 N713 1.356 . S
C707 C706 1.363 . S
C707 C710 1.363 . S
N708 C710 1.356 . S
N708 H720 0.984 . S
N708 H721 0.985 . S
N709 C711 1.356 . S
N709 H714 0.984 . S
N709 H715 0.985 . S
C710 C704 1.379 . S
C710 C707 1.363 . S
C710 N708 1.356 . S
C711 C705 1.363 . S
C711 C706 1.379 . S
C711 N709 1.356 . S
N712 C704 1.356 . S
N712 H718 0.984 . S
N712 H719 0.984 . S
N713 C706 1.356 . S
N713 H716 0.984 . S
N713 H717 0.985 . S
H714 N709 0.984 . S
H715 N709 0.985 . S
H716 N713 0.984 . S
H717 N713 0.985 . S
H718 N712 0.984 . S
H719 N712 0.984 . S
H720 N708 0.984 . S
H721 N708 0.985 . S
C722 C723 1.363 . S
C722 C728 1.379 . S
C722 N730 1.356 . S
C723 C722 1.363 . S
C723 C729 1.363 . S
C724 C725 1.363 . S
C724 C729 1.379 . S
C724 N731 1.356 . S
C725 C724 1.363 . S
C725 C728 1.363 . S
N726 C728 1.356 . S
N726 H738 0.984 . S
N726 H739 0.985 . S
N727 C729 1.356 . S
N727 H732 0.984 . S
N727 H733 0.985 . S
C728 C722 1.379 . S
C728 C725 1.363 . S
C728 N726 1.356 . S
C729 C723 1.363 . S
C729 C724 1.379 . S
C729 N727 1.356 . S
N730 C722 1.356 . S
N730 H736 0.984 . S
N730 H737 0.984 . S
N731 C724 1.356 . S
N731 H734 0.984 . S
N731 H735 0.985 . S
H732 N727 0.984 . S
H733 N727 0.985 . S
H734 N731 0.984 . S
H735 N731 0.985 . S
H736 N730 0.984 . S
H737 N730 0.984 . S
H738 N726 0.984 . S
H739 N726 0.985 . S
C740 C741 1.363 . S
C740 C746 1.379 . S
C740 N748 1.356 . S
C741 C740 1.363 . S
C741 C747 1.363 1_655 S
C742 C743 1.363 . S
C742 C747 1.379 . S
C742 N749 1.356 . S
C743 C742 1.363 . S
C743 C746 1.363 1_455 S
N744 C746 1.356 . S
N744 H756 0.984 . S
N744 H757 0.985 . S
N745 C747 1.356 . S
N745 H750 0.984 . S
N745 H751 0.985 . S
C746 C740 1.379 . S
C746 C743 1.363 1_655 S
C746 N744 1.356 . S
C747 C741 1.363 1_455 S
C747 C742 1.379 . S
C747 N745 1.356 . S
N748 C740 1.356 . S
N748 H754 0.984 . S
N748 H755 0.984 . S
N749 C742 1.356 . S
N749 H752 0.984 . S
N749 H753 0.985 . S
H750 N745 0.984 . S
H751 N745 0.985 . S
H752 N749 0.984 . S
H753 N749 0.985 . S
H754 N748 0.984 . S
H755 N748 0.984 . S
H756 N744 0.984 . S
H757 N744 0.985 . S
C758 C759 1.363 . S
C758 C764 1.379 . S
C758 N766 1.356 . S
C759 C758 1.363 . S
C759 C765 1.363 . S
C760 C761 1.363 1_554 S
C760 C765 1.379 . S
C760 N767 1.356 1_554 S
C761 C760 1.363 1_556 S
C761 C764 1.363 1_556 S
N762 C764 1.356 1_556 S
N762 H774 0.984 1_556 S
N762 H775 0.985 . S
N763 C765 1.356 . S
N763 H768 0.984 . S
N763 H769 0.985 . S
C764 C758 1.379 . S
C764 C761 1.363 1_554 S
C764 N762 1.356 1_554 S
C765 C759 1.363 . S
C765 C760 1.379 . S
C765 N763 1.356 . S
N766 C758 1.356 . S
N766 H772 0.984 . S
N766 H773 0.984 . S
N767 C760 1.356 1_556 S
N767 H770 0.984 . S
N767 H771 0.985 . S
H768 N763 0.984 . S
H769 N763 0.985 . S
H770 N767 0.984 . S
H771 N767 0.985 . S
H772 N766 0.984 . S
H773 N766 0.984 . S
H774 N762 0.984 1_554 S
H775 N762 0.985 . S
C776 C777 1.363 . S
C776 C782 1.379 . S
C776 N784 1.356 . S
C777 C776 1.363 . S
C777 C783 1.363 . S
C778 C779 1.363 . S
C778 C783 1.379 . S
C778 N785 1.356 . S
C779 C778 1.363 . S
C779 C782 1.363 . S
N780 C782 1.356 . S
N780 H792 0.984 . S
N780 H793 0.985 . S
N781 C783 1.356 . S
N781 H786 0.984 . S
N781 H787 0.985 . S
C782 C776 1.379 . S
C782 C779 1.363 . S
C782 N780 1.356 . S
C783 C777 1.363 . S
C783 C778 1.379 . S
C783 N781 1.356 . S
N784 C776 1.356 . S
N784 H790 0.984 . S
N784 H791 0.984 . S
N785 C778 1.356 . S
N785 H788 0.984 . S
N785 H789 0.985 . S
H786 N781 0.984 . S
H787 N781 0.985 . S
H788 N785 0.984 . S
H789 N785 0.985 . S
H790 N784 0.984 . S
H791 N784 0.984 . S
H792 N780 0.984 . S
H793 N780 0.985 . S
C794 C795 1.363 . S
C794 C800 1.379 . S
C794 N802 1.356 . S
C795 C794 1.363 . S
C795 C801 1.363 . S
C796 C797 1.363 . S
C796 C801 1.379 . S
C796 N803 1.356 . S
C797 C796 1.363 . S
C797 C800 1.363 . S
N798 C800 1.356 . S
N798 H810 0.984 . S
N798 H811 0.985 . S
N799 C801 1.356 . S
N799 H804 0.984 . S
N799 H805 0.985 . S
C800 C794 1.379 . S
C800 C797 1.363 . S
C800 N798 1.356 . S
C801 C795 1.363 . S
C801 C796 1.379 . S
C801 N799 1.356 . S
N802 C794 1.356 . S
N802 H808 0.984 . S
N802 H809 0.984 . S
N803 C796 1.356 . S
N803 H806 0.984 . S
N803 H807 0.985 . S
H804 N799 0.984 . S
H805 N799 0.985 . S
H806 N803 0.984 . S
H807 N803 0.985 . S
H808 N802 0.984 . S
H809 N802 0.984 . S
H810 N798 0.984 . S
H811 N798 0.985 . S
C812 C813 1.363 1_455 S
C812 C818 1.379 . S
C812 N820 1.356 . S
C813 C812 1.363 1_655 S
C813 C819 1.363 . S
C814 C815 1.363 1_655 S
C814 C819 1.379 . S
C814 N821 1.356 . S
C815 C814 1.363 1_455 S
C815 C818 1.363 . S
N816 C818 1.356 . S
N816 H828 0.984 . S
N816 H829 0.985 . S
N817 C819 1.356 . S
N817 H822 0.984 . S
N817 H823 0.985 . S
C818 C812 1.379 . S
C818 C815 1.363 . S
C818 N816 1.356 . S
C819 C813 1.363 . S
C819 C814 1.379 . S
C819 N817 1.356 . S
N820 C812 1.356 . S
N820 H826 0.984 . S
N820 H827 0.984 . S
N821 C814 1.356 . S
N821 H824 0.984 . S
N821 H825 0.985 . S
H822 N817 0.984 . S
H823 N817 0.985 . S
H824 N821 0.984 . S
H825 N821 0.985 . S
H826 N820 0.984 . S
H827 N820 0.984 . S
H828 N816 0.984 . S
H829 N816 0.985 . S
C830 C831 1.363 1_556 S
C830 C836 1.379 . S
C830 N838 1.356 1_556 S
C831 C830 1.363 1_554 S
C831 C837 1.363 1_554 S
C832 C833 1.363 . S
C832 C837 1.379 . S
C832 N839 1.356 . S
C833 C832 1.363 . S
C833 C836 1.363 . S
N834 C836 1.356 . S
N834 H846 0.984 . S
N834 H847 0.985 . S
N835 C837 1.356 1_554 S
N835 H840 0.984 . S
N835 H841 0.985 . S
C836 C830 1.379 . S
C836 C833 1.363 . S
C836 N834 1.356 . S
C837 C831 1.363 1_556 S
C837 C832 1.379 . S
C837 N835 1.356 1_556 S
N838 C830 1.356 1_554 S
N838 H844 0.984 1_554 S
N838 H845 0.984 . S
N839 C832 1.356 . S
N839 H842 0.984 . S
N839 H843 0.985 . S
H840 N835 0.984 . S
H841 N835 0.985 . S
H842 N839 0.984 . S
H843 N839 0.985 . S
H844 N838 0.984 1_556 S
H845 N838 0.984 . S
H846 N834 0.984 . S
H847 N834 0.985 . S
C848 C849 1.363 . S
C848 C854 1.379 . S
C848 N856 1.356 . S
C849 C848 1.363 . S
C849 C855 1.363 . S
C850 C851 1.363 . S
C850 C855 1.379 . S
C850 N857 1.356 . S
C851 C850 1.363 . S
C851 C854 1.363 . S
N852 C854 1.356 . S
N852 H864 0.984 . S
N852 H865 0.985 . S
N853 C855 1.356 . S
N853 H858 0.984 . S
N853 H859 0.985 . S
C854 C848 1.379 . S
C854 C851 1.363 . S
C854 N852 1.356 . S
C855 C849 1.363 . S
C855 C850 1.379 . S
C855 N853 1.356 . S
N856 C848 1.356 . S
N856 H862 0.984 . S
N856 H863 0.984 . S
N857 C850 1.356 . S
N857 H860 0.984 . S
N857 H861 0.985 . S
H858 N853 0.984 . S
H859 N853 0.985 . S
H860 N857 0.984 . S
H861 N857 0.985 . S
H862 N856 0.984 . S
H863 N856 0.984 . S
H864 N852 0.984 . S
H865 N852 0.985 . S
C866 C867 1.363 . S
C866 C872 1.379 . S
C866 N874 1.356 . S
C867 C866 1.363 . S
C867 C873 1.363 . S
C868 C869 1.363 . S
C868 C873 1.379 . S
C868 N875 1.356 . S
C869 C868 1.363 . S
C869 C872 1.363 . S
N870 C872 1.356 . S
N870 H882 0.984 . S
N870 H883 0.985 . S
N871 C873 1.356 . S
N871 H876 0.984 . S
N871 H877 0.985 . S
C872 C866 1.379 . S
C872 C869 1.363 . S
C872 N870 1.356 . S
C873 C867 1.363 . S
C873 C868 1.379 . S
C873 N871 1.356 . S
N874 C866 1.356 . S
N874 H880 0.984 . S
N874 H881 0.984 . S
N875 C868 1.356 . S
N875 H878 0.984 . S
N875 H879 0.985 . S
H876 N871 0.984 . S
H877 N871 0.985 . S
H878 N875 0.984 . S
H879 N875 0.985 . S
H880 N874 0.984 . S
H881 N874 0.984 . S
H882 N870 0.984 . S
H883 N870 0.985 . S
C884 C885 1.363 . S
C884 C890 1.379 . S
C884 N892 1.356 . S
C885 C884 1.363 . S
C885 C891 1.363 1_655 S
C886 C887 1.363 . S
C886 C891 1.379 . S
C886 N893 1.356 . S
C887 C886 1.363 . S
C887 C890 1.363 1_455 S
N888 C890 1.356 . S
N888 H900 0.984 . S
N888 H901 0.985 . S
N889 C891 1.356 . S
N889 H894 0.984 . S
N889 H895 0.985 . S
C890 C884 1.379 . S
C890 C887 1.363 1_655 S
C890 N888 1.356 . S
C891 C885 1.363 1_455 S
C891 C886 1.379 . S
C891 N889 1.356 . S
N892 C884 1.356 . S
N892 H898 0.984 . S
N892 H899 0.984 . S
N893 C886 1.356 . S
N893 H896 0.984 . S
N893 H897 0.985 . S
H894 N889 0.984 . S
H895 N889 0.985 . S
H896 N893 0.984 . S
H897 N893 0.985 . S
H898 N892 0.984 . S
H899 N892 0.984 . S
H900 N888 0.984 . S
H901 N888 0.985 . S
C902 C903 1.363 . S
C902 C908 1.379 . S
C902 N910 1.356 . S
C903 C902 1.363 . S
C903 C909 1.363 . S
C904 C905 1.363 1_556 S
C904 C909 1.379 . S
C904 N911 1.356 1_556 S
C905 C904 1.363 1_554 S
C905 C908 1.363 1_554 S
N906 C908 1.356 1_554 S
N906 H918 0.984 . S
N906 H919 0.985 . S
N907 C909 1.356 . S
N907 H912 0.984 . S
N907 H913 0.985 . S
C908 C902 1.379 . S
C908 C905 1.363 1_556 S
C908 N906 1.356 1_556 S
C909 C903 1.363 . S
C909 C904 1.379 . S
C909 N907 1.356 . S
N910 C902 1.356 . S
N910 H916 0.984 . S
N910 H917 0.984 . S
N911 C904 1.356 1_554 S
N911 H914 0.984 . S
N911 H915 0.985 1_554 S
H912 N907 0.984 . S
H913 N907 0.985 . S
H914 N911 0.984 . S
H915 N911 0.985 1_556 S
H916 N910 0.984 . S
H917 N910 0.984 . S
H918 N906 0.984 . S
H919 N906 0.985 . S
C920 C921 1.363 . S
C920 C926 1.379 . S
C920 N928 1.356 . S
C921 C920 1.363 . S
C921 C927 1.363 . S
C922 C923 1.363 . S
C922 C927 1.379 . S
C922 N929 1.356 . S
C923 C922 1.363 . S
C923 C926 1.363 . S
N924 C926 1.356 . S
N924 H936 0.984 . S
N924 H937 0.985 . S
N925 C927 1.356 . S
N925 H930 0.984 . S
N925 H931 0.985 . S
C926 C920 1.379 . S
C926 C923 1.363 . S
C926 N924 1.356 . S
C927 C921 1.363 . S
C927 C922 1.379 . S
C927 N925 1.356 . S
N928 C920 1.356 . S
N928 H934 0.984 . S
N928 H935 0.984 . S
N929 C922 1.356 . S
N929 H932 0.984 . S
N929 H933 0.985 . S
H930 N925 0.984 . S
H931 N925 0.985 . S
H932 N929 0.984 . S
H933 N929 0.985 . S
H934 N928 0.984 . S
H935 N928 0.984 . S
H936 N924 0.984 . S
H937 N924 0.985 . S
C938 C939 1.363 . S
C938 C944 1.379 . S
C938 N946 1.356 . S
C939 C938 1.363 . S
C939 C945 1.363 . S
C940 C941 1.363 . S
C940 C945 1.379 . S
C940 N947 1.356 . S
C941 C940 1.363 . S
C941 C944 1.363 . S
N942 C944 1.356 . S
N942 H954 0.984 . S
N942 H955 0.985 . S
N943 C945 1.356 . S
N943 H948 0.984 . S
N943 H949 0.985 . S
C944 C938 1.379 . S
C944 C941 1.363 . S
C944 N942 1.356 . S
C945 C939 1.363 . S
C945 C940 1.379 . S
C945 N943 1.356 . S
N946 C938 1.356 . S
N946 H952 0.984 . S
N946 H953 0.984 . S
N947 C940 1.356 . S
N947 H950 0.984 . S
N947 H951 0.985 . S
H948 N943 0.984 . S
H949 N943 0.985 . S
H950 N947 0.984 . S
H951 N947 0.985 . S
H952 N946 0.984 . S
H953 N946 0.984 . S
H954 N942 0.984 . S
H955 N942 0.985 . S
C956 C957 1.363 1_655 S
C956 C962 1.379 . S
C956 N964 1.356 . S
C957 C956 1.363 1_455 S
C957 C963 1.363 . S
C958 C959 1.363 1_455 S
C958 C963 1.379 . S
C958 N965 1.356 . S
C959 C958 1.363 1_655 S
C959 C962 1.363 . S
N960 C962 1.356 . S
N960 H972 0.984 . S
N960 H973 0.985 . S
N961 C963 1.356 . S
N961 H966 0.984 . S
N961 H967 0.985 . S
C962 C956 1.379 . S
C962 C959 1.363 . S
C962 N960 1.356 . S
C963 C957 1.363 . S
C963 C958 1.379 . S
C963 N961 1.356 . S
N964 C956 1.356 . S
N964 H970 0.984 . S
N964 H971 0.984 . S
N965 C958 1.356 . S
N965 H968 0.984 . S
N965 H969 0.985 . S
H966 N961 0.984 . S
H967 N961 0.985 . S
H968 N965 0.984 . S
H969 N965 0.985 . S
H970 N964 0.984 . S
H971 N964 0.984 . S
H972 N960 0.984 . S
H973 N960 0.985 . S
C974 C975 1.363 . S
C974 C980 1.379 . S
C974 N982 1.356 . S
C975 C974 1.363 . S
C975 C981 1.363 . S
C976 C977 1.363 1_554 S
C976 C981 1.379 . S
C976 N983 1.356 1_554 S
C977 C976 1.363 1_556 S
C977 C980 1.363 1_556 S
N978 C980 1.356 1_556 S
N978 H990 0.984 . S
N978 H991 0.985 . S
N979 C981 1.356 . S
N979 H984 0.984 . S
N979 H985 0.985 . S
C980 C974 1.379 . S
C980 C977 1.363 1_554 S
C980 N978 1.356 1_554 S
C981 C975 1.363 . S
C981 C976 1.379 . S
C981 N979 1.356 . S
N982 C974 1.356 . S
N982 H988 0.984 . S
N982 H989 0.984 . S
N983 C976 1.356 1_556 S
N983 H986 0.984 . S
N983 H987 0.985 1_556 S
H984 N979 0.984 . S
H985 N979 0.985 . S
H986 N983 0.984 . S
H987 N983 0.985 1_554 S
H988 N982 0.984 . S
H989 N982 0.984 . S
H990 N978 0.984 . S
H991 N978 0.985 . S
C992 C993 1.363 1_656 S
C992 C998 1.379 1_545 S
C992 N1000 1.356 . S
C993 C992 1.363 1_454 S
C993 C999 1.363 . S
C994 C995 1.363 1_454 S
C994 C999 1.379 1_565 S
C994 N1001 1.356 . S
C995 C994 1.363 1_656 S
C995 C998 1.363 . S
N996 C998 1.356 . S
N996 H1008 0.984 . S
N996 H1009 0.985 . S
N997 C999 1.356 . S
N997 H1002 0.984 . S
N997 H1003 0.985 . S
C998 C992 1.379 1_565 S
C998 C995 1.363 . S
C998 N996 1.356 . S
C999 C993 1.363 . S
C999 C994 1.379 1_545 S
C999 N997 1.356 . S
N1000 C992 1.356 . S
N1000 H1006 0.984 . S
N1000 H1007 0.984 . S
N1001 C994 1.356 . S
N1001 H1004 0.984 . S
N1001 H1005 0.985 . S
H1002 N997 0.984 . S
H1003 N997 0.985 . S
H1004 N1001 0.984 . S
H1005 N1001 0.985 . S
H1006 N1000 0.984 . S
H1007 N1000 0.984 . S
H1008 N996 0.984 . S
H1009 N996 0.985 . S
C1010 C1011 1.363 . S
C1010 C1016 1.379 . S
C1010 N1018 1.356 . S
C1011 C1010 1.363 . S
C1011 C1017 1.363 . S
C1012 C1013 1.363 . S
C1012 C1017 1.379 . S
C1012 N1019 1.356 . S
C1013 C1012 1.363 . S
C1013 C1016 1.363 . S
N1014 C1016 1.356 . S
N1014 H1026 0.984 . S
N1014 H1027 0.985 . S
N1015 C1017 1.356 . S
N1015 H1020 0.984 . S
N1015 H1021 0.985 . S
C1016 C1010 1.379 . S
C1016 C1013 1.363 . S
C1016 N1014 1.356 . S
C1017 C1011 1.363 . S
C1017 C1012 1.379 . S
C1017 N1015 1.356 . S
N1018 C1010 1.356 . S
N1018 H1024 0.984 . S
N1018 H1025 0.984 . S
N1019 C1012 1.356 . S
N1019 H1022 0.984 . S
N1019 H1023 0.985 . S
H1020 N1015 0.984 . S
H1021 N1015 0.985 . S
H1022 N1019 0.984 . S
H1023 N1019 0.985 . S
H1024 N1018 0.984 . S
H1025 N1018 0.984 . S
H1026 N1014 0.984 . S
H1027 N1014 0.985 . S
C1028 C1029 1.363 . S
C1028 C1034 1.379 1_545 S
C1028 N1036 1.356 . S
C1029 C1028 1.363 . S
C1029 C1035 1.363 . S
C1030 C1031 1.363 . S
C1030 C1035 1.379 1_565 S
C1030 N1037 1.356 . S
C1031 C1030 1.363 . S
C1031 C1034 1.363 . S
N1032 C1034 1.356 . S
N1032 H1044 0.984 . S
N1032 H1045 0.985 . S
N1033 C1035 1.356 . S
N1033 H1038 0.984 . S
N1033 H1039 0.985 . S
C1034 C1028 1.379 1_565 S
C1034 C1031 1.363 . S
C1034 N1032 1.356 . S
C1035 C1029 1.363 . S
C1035 C1030 1.379 1_545 S
C1035 N1033 1.356 . S
N1036 C1028 1.356 . S
N1036 H1042 0.984 . S
N1036 H1043 0.984 . S
N1037 C1030 1.356 . S
N1037 H1040 0.984 . S
N1037 H1041 0.985 . S
H1038 N1033 0.984 . S
H1039 N1033 0.985 . S
H1040 N1037 0.984 . S
H1041 N1037 0.985 . S
H1042 N1036 0.984 . S
H1043 N1036 0.984 . S
H1044 N1032 0.984 . S
H1045 N1032 0.985 . S
C1046 C1047 1.363 . S
C1046 C1052 1.379 . S
C1046 N1054 1.356 . S
C1047 C1046 1.363 . S
C1047 C1053 1.363 . S
C1048 C1049 1.363 . S
C1048 C1053 1.379 . S
C1048 N1055 1.356 . S
C1049 C1048 1.363 . S
C1049 C1052 1.363 . S
N1050 C1052 1.356 . S
N1050 H1062 0.984 . S
N1050 H1063 0.985 . S
N1051 C1053 1.356 . S
N1051 H1056 0.984 . S
N1051 H1057 0.985 . S
C1052 C1046 1.379 . S
C1052 C1049 1.363 . S
C1052 N1050 1.356 . S
C1053 C1047 1.363 . S
C1053 C1048 1.379 . S
C1053 N1051 1.356 . S
N1054 C1046 1.356 . S
N1054 H1060 0.984 . S
N1054 H1061 0.984 . S
N1055 C1048 1.356 . S
N1055 H1058 0.984 . S
N1055 H1059 0.985 . S
H1056 N1051 0.984 . S
H1057 N1051 0.985 . S
H1058 N1055 0.984 . S
H1059 N1055 0.985 . S
H1060 N1054 0.984 . S
H1061 N1054 0.984 . S
H1062 N1050 0.984 . S
H1063 N1050 0.985 . S
C1064 C1065 1.363 1_655 S
C1064 C1070 1.379 1_565 S
C1064 N1072 1.356 . S
C1065 C1064 1.363 1_455 S
C1065 C1071 1.363 . S
C1066 C1067 1.363 1_455 S
C1066 C1071 1.379 1_545 S
C1066 N1073 1.356 . S
C1067 C1066 1.363 1_655 S
C1067 C1070 1.363 . S
N1068 C1070 1.356 . S
N1068 H1080 0.984 . S
N1068 H1081 0.985 . S
N1069 C1071 1.356 . S
N1069 H1074 0.984 . S
N1069 H1075 0.985 . S
C1070 C1064 1.379 1_545 S
C1070 C1067 1.363 . S
C1070 N1068 1.356 . S
C1071 C1065 1.363 . S
C1071 C1066 1.379 1_565 S
C1071 N1069 1.356 . S
N1072 C1064 1.356 . S
N1072 H1078 0.984 . S
N1072 H1079 0.984 . S
N1073 C1066 1.356 . S
N1073 H1076 0.984 . S
N1073 H1077 0.985 . S
H1074 N1069 0.984 . S
H1075 N1069 0.985 . S
H1076 N1073 0.984 . S
H1077 N1073 0.985 . S
H1078 N1072 0.984 . S
H1079 N1072 0.984 . S
H1080 N1068 0.984 . S
H1081 N1068 0.985 . S
C1082 C1083 1.363 . S
C1082 C1088 1.379 . S
C1082 N1090 1.356 . S
C1083 C1082 1.363 . S
C1083 C1089 1.363 . S
C1084 C1085 1.363 . S
C1084 C1089 1.379 . S
C1084 N1091 1.356 . S
C1085 C1084 1.363 . S
C1085 C1088 1.363 . S
N1086 C1088 1.356 . S
N1086 H1098 0.984 . S
N1086 H1099 0.985 . S
N1087 C1089 1.356 . S
N1087 H1092 0.984 . S
N1087 H1093 0.985 . S
C1088 C1082 1.379 . S
C1088 C1085 1.363 . S
C1088 N1086 1.356 . S
C1089 C1083 1.363 . S
C1089 C1084 1.379 . S
C1089 N1087 1.356 . S
N1090 C1082 1.356 . S
N1090 H1096 0.984 . S
N1090 H1097 0.984 . S
N1091 C1084 1.356 . S
N1091 H1094 0.984 . S
N1091 H1095 0.985 . S
H1092 N1087 0.984 . S
H1093 N1087 0.985 . S
H1094 N1091 0.984 . S
H1095 N1091 0.985 . S
H1096 N1090 0.984 . S
H1097 N1090 0.984 . S
H1098 N1086 0.984 . S
H1099 N1086 0.985 . S
C1100 C1101 1.363 1_556 S
C1100 C1106 1.379 1_565 S
C1100 N1108 1.356 . S
C1101 C1100 1.363 1_554 S
C1101 C1107 1.363 . S
C1102 C1103 1.363 1_554 S
C1102 C1107 1.379 1_545 S
C1102 N1109 1.356 . S
C1103 C1102 1.363 1_556 S
C1103 C1106 1.363 . S
N1104 C1106 1.356 . S
N1104 H1116 0.984 . S
N1104 H1117 0.985 . S
N1105 C1107 1.356 . S
N1105 H1110 0.984 . S
N1105 H1111 0.985 . S
C1106 C1100 1.379 1_545 S
C1106 C1103 1.363 . S
C1106 N1104 1.356 . S
C1107 C1101 1.363 . S
C1107 C1102 1.379 1_565 S
C1107 N1105 1.356 . S
N1108 C1100 1.356 . S
N1108 H1114 0.984 . S
N1108 H1115 0.984 . S
N1109 C1102 1.356 . S
N1109 H1112 0.984 . S
N1109 H1113 0.985 . S
H1110 N1105 0.984 . S
H1111 N1105 0.985 . S
H1112 N1109 0.984 . S
H1113 N1109 0.985 . S
H1114 N1108 0.984 . S
H1115 N1108 0.984 . S
H1116 N1104 0.984 . S
H1117 N1104 0.985 . S
C1118 C1119 1.363 . S
C1118 C1124 1.379 . S
C1118 N1126 1.356 . S
C1119 C1118 1.363 . S
C1119 C1125 1.363 . S
C1120 C1121 1.363 . S
C1120 C1125 1.379 . S
C1120 N1127 1.356 . S
C1121 C1120 1.363 . S
C1121 C1124 1.363 . S
N1122 C1124 1.356 . S
N1122 H1134 0.984 . S
N1122 H1135 0.985 . S
N1123 C1125 1.356 . S
N1123 H1128 0.984 . S
N1123 H1129 0.985 . S
C1124 C1118 1.379 . S
C1124 C1121 1.363 . S
C1124 N1122 1.356 . S
C1125 C1119 1.363 . S
C1125 C1120 1.379 . S
C1125 N1123 1.356 . S
N1126 C1118 1.356 . S
N1126 H1132 0.984 . S
N1126 H1133 0.984 . S
N1127 C1120 1.356 . S
N1127 H1130 0.984 . S
N1127 H1131 0.985 . S
H1128 N1123 0.984 . S
H1129 N1123 0.985 . S
H1130 N1127 0.984 . S
H1131 N1127 0.985 . S
H1132 N1126 0.984 . S
H1133 N1126 0.984 . S
H1134 N1122 0.984 . S
H1135 N1122 0.985 . S
C1136 C1137 1.363 . S
C1136 C1142 1.379 . S
C1136 N1144 1.356 . S
C1137 C1136 1.363 . S
C1137 C1143 1.363 . S
C1138 C1139 1.363 . S
C1138 C1143 1.379 . S
C1138 N1145 1.356 . S
C1139 C1138 1.363 . S
C1139 C1142 1.363 . S
N1140 C1142 1.356 . S
N1140 H1152 0.984 . S
N1140 H1153 0.985 . S
N1141 C1143 1.356 . S
N1141 H1146 0.984 . S
N1141 H1147 0.985 . S
C1142 C1136 1.379 . S
C1142 C1139 1.363 . S
C1142 N1140 1.356 . S
C1143 C1137 1.363 . S
C1143 C1138 1.379 . S
C1143 N1141 1.356 . S
N1144 C1136 1.356 . S
N1144 H1150 0.984 . S
N1144 H1151 0.984 . S
N1145 C1138 1.356 . S
N1145 H1148 0.984 . S
N1145 H1149 0.985 . S
H1146 N1141 0.984 . S
H1147 N1141 0.985 . S
H1148 N1145 0.984 . S
H1149 N1145 0.985 . S
H1150 N1144 0.984 . S
H1151 N1144 0.984 . S
H1152 N1140 0.984 . S
H1153 N1140 0.985 . S
C1154 C1155 1.363 . S
C1154 C1160 1.379 . S
C1154 N1162 1.356 . S
C1155 C1154 1.363 . S
C1155 C1161 1.363 . S
C1156 C1157 1.363 . S
C1156 C1161 1.379 . S
C1156 N1163 1.356 . S
C1157 C1156 1.363 . S
C1157 C1160 1.363 . S
N1158 C1160 1.356 . S
N1158 H1170 0.984 . S
N1158 H1171 0.985 . S
N1159 C1161 1.356 . S
N1159 H1164 0.984 . S
N1159 H1165 0.985 . S
C1160 C1154 1.379 . S
C1160 C1157 1.363 . S
C1160 N1158 1.356 . S
C1161 C1155 1.363 . S
C1161 C1156 1.379 . S
C1161 N1159 1.356 . S
N1162 C1154 1.356 . S
N1162 H1168 0.984 . S
N1162 H1169 0.984 . S
N1163 C1156 1.356 . S
N1163 H1166 0.984 . S
N1163 H1167 0.985 . S
H1164 N1159 0.984 . S
H1165 N1159 0.985 . S
H1166 N1163 0.984 . S
H1167 N1163 0.985 . S
H1168 N1162 0.984 . S
H1169 N1162 0.984 . S
H1170 N1158 0.984 . S
H1171 N1158 0.985 . S
C1172 C1173 1.363 . S
C1172 C1178 1.379 . S
C1172 N1180 1.356 . S
C1173 C1172 1.363 . S
C1173 C1179 1.363 . S
C1174 C1175 1.363 . S
C1174 C1179 1.379 . S
C1174 N1181 1.356 . S
C1175 C1174 1.363 . S
C1175 C1178 1.363 . S
N1176 C1178 1.356 . S
N1176 H1188 0.984 . S
N1176 H1189 0.985 . S
N1177 C1179 1.356 . S
N1177 H1182 0.984 . S
N1177 H1183 0.985 . S
C1178 C1172 1.379 . S
C1178 C1175 1.363 . S
C1178 N1176 1.356 . S
C1179 C1173 1.363 . S
C1179 C1174 1.379 . S
C1179 N1177 1.356 . S
N1180 C1172 1.356 . S
N1180 H1186 0.984 . S
N1180 H1187 0.984 . S
N1181 C1174 1.356 . S
N1181 H1184 0.984 . S
N1181 H1185 0.985 . S
H1182 N1177 0.984 . S
H1183 N1177 0.985 . S
H1184 N1181 0.984 . S
H1185 N1181 0.985 . S
H1186 N1180 0.984 . S
H1187 N1180 0.984 . S
H1188 N1176 0.984 . S
H1189 N1176 0.985 . S
C1190 C1191 1.363 . S
C1190 C1196 1.379 . S
C1190 N1198 1.356 . S
C1191 C1190 1.363 . S
C1191 C1197 1.363 . S
C1192 C1193 1.363 . S
C1192 C1197 1.379 . S
C1192 N1199 1.356 . S
C1193 C1192 1.363 . S
C1193 C1196 1.363 . S
N1194 C1196 1.356 . S
N1194 H1206 0.984 . S
N1194 H1207 0.985 . S
N1195 C1197 1.356 . S
N1195 H1200 0.984 . S
N1195 H1201 0.985 . S
C1196 C1190 1.379 . S
C1196 C1193 1.363 . S
C1196 N1194 1.356 . S
C1197 C1191 1.363 . S
C1197 C1192 1.379 . S
C1197 N1195 1.356 . S
N1198 C1190 1.356 . S
N1198 H1204 0.984 . S
N1198 H1205 0.984 . S
N1199 C1192 1.356 . S
N1199 H1202 0.984 . S
N1199 H1203 0.985 . S
H1200 N1195 0.984 . S
H1201 N1195 0.985 . S
H1202 N1199 0.984 . S
H1203 N1199 0.985 . S
H1204 N1198 0.984 . S
H1205 N1198 0.984 . S
H1206 N1194 0.984 . S
H1207 N1194 0.985 . S
C1208 C1209 1.363 . S
C1208 C1214 1.379 . S
C1208 N1216 1.356 . S
C1209 C1208 1.363 . S
C1209 C1215 1.363 . S
C1210 C1211 1.363 . S
C1210 C1215 1.379 . S
C1210 N1217 1.356 . S
C1211 C1210 1.363 . S
C1211 C1214 1.363 . S
N1212 C1214 1.356 . S
N1212 H1224 0.984 . S
N1212 H1225 0.985 . S
N1213 C1215 1.356 . S
N1213 H1218 0.984 . S
N1213 H1219 0.985 . S
C1214 C1208 1.379 . S
C1214 C1211 1.363 . S
C1214 N1212 1.356 . S
C1215 C1209 1.363 . S
C1215 C1210 1.379 . S
C1215 N1213 1.356 . S
N1216 C1208 1.356 . S
N1216 H1222 0.984 . S
N1216 H1223 0.984 . S
N1217 C1210 1.356 . S
N1217 H1220 0.984 . S
N1217 H1221 0.985 . S
H1218 N1213 0.984 . S
H1219 N1213 0.985 . S
H1220 N1217 0.984 . S
H1221 N1217 0.985 . S
H1222 N1216 0.984 . S
H1223 N1216 0.984 . S
H1224 N1212 0.984 . S
H1225 N1212 0.985 . S
C1226 C1227 1.363 . S
C1226 C1232 1.379 . S
C1226 N1234 1.356 . S
C1227 C1226 1.363 . S
C1227 C1233 1.363 1_654 S
C1228 C1229 1.363 . S
C1228 C1233 1.379 . S
C1228 N1235 1.356 . S
C1229 C1228 1.363 . S
C1229 C1232 1.363 1_456 S
N1230 C1232 1.356 . S
N1230 H1242 0.984 . S
N1230 H1243 0.985 . S
N1231 C1233 1.356 . S
N1231 H1236 0.984 . S
N1231 H1237 0.985 . S
C1232 C1226 1.379 . S
C1232 C1229 1.363 1_654 S
C1232 N1230 1.356 . S
C1233 C1227 1.363 1_456 S
C1233 C1228 1.379 . S
C1233 N1231 1.356 . S
N1234 C1226 1.356 . S
N1234 H1240 0.984 . S
N1234 H1241 0.984 . S
N1235 C1228 1.356 . S
N1235 H1238 0.984 . S
N1235 H1239 0.985 . S
H1236 N1231 0.984 . S
H1237 N1231 0.985 . S
H1238 N1235 0.984 . S
H1239 N1235 0.985 . S
H1240 N1234 0.984 . S
H1241 N1234 0.984 . S
H1242 N1230 0.984 . S
H1243 N1230 0.985 . S
C1244 C1245 1.363 1_554 S
C1244 C1250 1.379 . S
C1244 N1252 1.356 . S
C1245 C1244 1.363 1_556 S
C1245 C1251 1.363 . S
C1246 C1247 1.363 1_556 S
C1246 C1251 1.379 . S
C1246 N1253 1.356 . S
C1247 C1246 1.363 1_554 S
C1247 C1250 1.363 . S
N1248 C1250 1.356 . S
N1248 H1260 0.984 . S
N1248 H1261 0.985 . S
N1249 C1251 1.356 . S
N1249 H1254 0.984 . S
N1249 H1255 0.985 . S
C1250 C1244 1.379 . S
C1250 C1247 1.363 . S
C1250 N1248 1.356 . S
C1251 C1245 1.363 . S
C1251 C1246 1.379 . S
C1251 N1249 1.356 . S
N1252 C1244 1.356 . S
N1252 H1258 0.984 . S
N1252 H1259 0.984 . S
N1253 C1246 1.356 . S
N1253 H1256 0.984 . S
N1253 H1257 0.985 . S
H1254 N1249 0.984 . S
H1255 N1249 0.985 . S
H1256 N1253 0.984 . S
H1257 N1253 0.985 . S
H1258 N1252 0.984 . S
H1259 N1252 0.984 . S
H1260 N1248 0.984 . S
H1261 N1248 0.985 . S
C1262 C1263 1.363 1_655 S
C1262 C1268 1.379 . S
C1262 N1270 1.356 . S
C1263 C1262 1.363 1_455 S
C1263 C1269 1.363 . S
C1264 C1265 1.363 1_455 S
C1264 C1269 1.379 . S
C1264 N1271 1.356 . S
C1265 C1264 1.363 1_655 S
C1265 C1268 1.363 . S
N1266 C1268 1.356 . S
N1266 H1278 0.984 . S
N1266 H1279 0.985 . S
N1267 C1269 1.356 . S
N1267 H1272 0.984 . S
N1267 H1273 0.985 . S
C1268 C1262 1.379 . S
C1268 C1265 1.363 . S
C1268 N1266 1.356 . S
C1269 C1263 1.363 . S
C1269 C1264 1.379 . S
C1269 N1267 1.356 . S
N1270 C1262 1.356 . S
N1270 H1276 0.984 . S
N1270 H1277 0.984 . S
N1271 C1264 1.356 . S
N1271 H1274 0.984 . S
N1271 H1275 0.985 . S
H1272 N1267 0.984 . S
H1273 N1267 0.985 . S
H1274 N1271 0.984 . S
H1275 N1271 0.985 . S
H1276 N1270 0.984 . S
H1277 N1270 0.984 . S
H1278 N1266 0.984 . S
H1279 N1266 0.985 . S
C1280 C1281 1.363 . S
C1280 C1286 1.379 . S
C1280 N1288 1.356 . S
C1281 C1280 1.363 . S
C1281 C1287 1.363 . S
C1282 C1283 1.363 . S
C1282 C1287 1.379 . S
C1282 N1289 1.356 . S
C1283 C1282 1.363 . S
C1283 C1286 1.363 . S
N1284 C1286 1.356 . S
N1284 H1296 0.984 . S
N1284 H1297 0.985 . S
N1285 C1287 1.356 . S
N1285 H1290 0.984 . S
N1285 H1291 0.985 . S
C1286 C1280 1.379 . S
C1286 C1283 1.363 . S
C1286 N1284 1.356 . S
C1287 C1281 1.363 . S
C1287 C1282 1.379 . S
C1287 N1285 1.356 . S
N1288 C1280 1.356 . S
N1288 H1294 0.984 1_554 S
N1288 H1295 0.984 . S
N1289 C1282 1.356 . S
N1289 H1292 0.984 . S
N1289 H1293 0.985 . S
H1290 N1285 0.984 . S
H1291 N1285 0.985 . S
H1292 N1289 0.984 . S
H1293 N1289 0.985 . S
H1294 N1288 0.984 1_556 S
H1295 N1288 0.984 . S
H1296 N1284 0.984 . S
H1297 N1284 0.985 . S
C1298 C1299 1.363 . S
C1298 C1304 1.379 . S
C1298 N1306 1.356 . S
C1299 C1298 1.363 . S
C1299 C1305 1.363 . S
C1300 C1301 1.363 . S
C1300 C1305 1.379 . S
C1300 N1307 1.356 . S
C1301 C1300 1.363 . S
C1301 C1304 1.363 . S
N1302 C1304 1.356 . S
N1302 H1314 0.984 . S
N1302 H1315 0.985 . S
N1303 C1305 1.356 . S
N1303 H1308 0.984 . S
N1303 H1309 0.985 . S
C1304 C1298 1.379 . S
C1304 C1301 1.363 . S
C1304 N1302 1.356 . S
C1305 C1299 1.363 . S
C1305 C1300 1.379 . S
C1305 N1303 1.356 . S
N1306 C1298 1.356 . S
N1306 H1312 0.984 . S
N1306 H1313 0.984 . S
N1307 C1300 1.356 . S
N1307 H1310 0.984 . S
N1307 H1311 0.985 . S
H1308 N1303 0.984 . S
H1309 N1303 0.985 . S
H1310 N1307 0.984 . S
H1311 N1307 0.985 . S
H1312 N1306 0.984 . S
H1313 N1306 0.984 . S
H1314 N1302 0.984 . S
H1315 N1302 0.985 . S
C1316 C1317 1.363 . S
C1316 C1322 1.379 . S
C1316 N1324 1.356 . S
C1317 C1316 1.363 . S
C1317 C1323 1.363 . S
C1318 C1319 1.363 . S
C1318 C1323 1.379 . S
C1318 N1325 1.356 . S
C1319 C1318 1.363 . S
C1319 C1322 1.363 . S
N1320 C1322 1.356 . S
N1320 H1332 0.984 . S
N1320 H1333 0.985 . S
N1321 C1323 1.356 . S
N1321 H1326 0.984 . S
N1321 H1327 0.985 . S
C1322 C1316 1.379 . S
C1322 C1319 1.363 . S
C1322 N1320 1.356 . S
C1323 C1317 1.363 . S
C1323 C1318 1.379 . S
C1323 N1321 1.356 . S
N1324 C1316 1.356 . S
N1324 H1330 0.984 . S
N1324 H1331 0.984 . S
N1325 C1318 1.356 . S
N1325 H1328 0.984 . S
N1325 H1329 0.985 . S
H1326 N1321 0.984 . S
H1327 N1321 0.985 . S
H1328 N1325 0.984 . S
H1329 N1325 0.985 . S
H1330 N1324 0.984 . S
H1331 N1324 0.984 . S
H1332 N1320 0.984 . S
H1333 N1320 0.985 . S
C1334 C1335 1.363 . S
C1334 C1340 1.379 . S
C1334 N1342 1.356 . S
C1335 C1334 1.363 . S
C1335 C1341 1.363 . S
C1336 C1337 1.363 . S
C1336 C1341 1.379 . S
C1336 N1343 1.356 . S
C1337 C1336 1.363 . S
C1337 C1340 1.363 . S
N1338 C1340 1.356 . S
N1338 H1350 0.984 . S
N1338 H1351 0.985 . S
N1339 C1341 1.356 . S
N1339 H1344 0.984 . S
N1339 H1345 0.985 1_556 S
C1340 C1334 1.379 . S
C1340 C1337 1.363 . S
C1340 N1338 1.356 . S
C1341 C1335 1.363 . S
C1341 C1336 1.379 . S
C1341 N1339 1.356 . S
N1342 C1334 1.356 . S
N1342 H1348 0.984 . S
N1342 H1349 0.984 . S
N1343 C1336 1.356 . S
N1343 H1346 0.984 . S
N1343 H1347 0.985 . S
H1344 N1339 0.984 . S
H1345 N1339 0.985 1_554 S
H1346 N1343 0.984 . S
H1347 N1343 0.985 . S
H1348 N1342 0.984 . S
H1349 N1342 0.984 . S
H1350 N1338 0.984 . S
H1351 N1338 0.985 . S
C1352 C1353 1.363 . S
C1352 C1358 1.379 . S
C1352 N1360 1.356 . S
C1353 C1352 1.363 . S
C1353 C1359 1.363 . S
C1354 C1355 1.363 . S
C1354 C1359 1.379 . S
C1354 N1361 1.356 . S
C1355 C1354 1.363 . S
C1355 C1358 1.363 . S
N1356 C1358 1.356 . S
N1356 H1368 0.984 1_556 S
N1356 H1369 0.985 . S
N1357 C1359 1.356 . S
N1357 H1362 0.984 . S
N1357 H1363 0.985 . S
C1358 C1352 1.379 . S
C1358 C1355 1.363 . S
C1358 N1356 1.356 . S
C1359 C1353 1.363 . S
C1359 C1354 1.379 . S
C1359 N1357 1.356 . S
N1360 C1352 1.356 . S
N1360 H1366 0.984 . S
N1360 H1367 0.984 . S
N1361 C1354 1.356 . S
N1361 H1364 0.984 . S
N1361 H1365 0.985 . S
H1362 N1357 0.984 . S
H1363 N1357 0.985 . S
H1364 N1361 0.984 . S
H1365 N1361 0.985 . S
H1366 N1360 0.984 . S
H1367 N1360 0.984 . S
H1368 N1356 0.984 1_554 S
H1369 N1356 0.985 . S
C1370 C1371 1.363 . S
C1370 C1376 1.379 . S
C1370 N1378 1.356 . S
C1371 C1370 1.363 . S
C1371 C1377 1.363 . S
C1372 C1373 1.363 . S
C1372 C1377 1.379 . S
C1372 N1379 1.356 . S
C1373 C1372 1.363 . S
C1373 C1376 1.363 . S
N1374 C1376 1.356 . S
N1374 H1386 0.984 . S
N1374 H1387 0.985 . S
N1375 C1377 1.356 . S
N1375 H1380 0.984 . S
N1375 H1381 0.985 . S
C1376 C1370 1.379 . S
C1376 C1373 1.363 . S
C1376 N1374 1.356 . S
C1377 C1371 1.363 . S
C1377 C1372 1.379 . S
C1377 N1375 1.356 . S
N1378 C1370 1.356 . S
N1378 H1384 0.984 . S
N1378 H1385 0.984 . S
N1379 C1372 1.356 . S
N1379 H1382 0.984 . S
N1379 H1383 0.985 . S
H1380 N1375 0.984 . S
H1381 N1375 0.985 . S
H1382 N1379 0.984 . S
H1383 N1379 0.985 . S
H1384 N1378 0.984 . S
H1385 N1378 0.984 . S
H1386 N1374 0.984 . S
H1387 N1374 0.985 . S
C1388 C1389 1.363 . S
C1388 C1394 1.379 . S
C1388 N1396 1.356 . S
C1389 C1388 1.363 . S
C1389 C1395 1.363 . S
C1390 C1391 1.363 . S
C1390 C1395 1.379 . S
C1390 N1397 1.356 . S
C1391 C1390 1.363 . S
C1391 C1394 1.363 . S
N1392 C1394 1.356 . S
N1392 H1404 0.984 . S
N1392 H1405 0.985 . S
N1393 C1395 1.356 . S
N1393 H1398 0.984 . S
N1393 H1399 0.985 . S
C1394 C1388 1.379 . S
C1394 C1391 1.363 . S
C1394 N1392 1.356 . S
C1395 C1389 1.363 . S
C1395 C1390 1.379 . S
C1395 N1393 1.356 . S
N1396 C1388 1.356 . S
N1396 H1402 0.984 . S
N1396 H1403 0.984 . S
N1397 C1390 1.356 . S
N1397 H1400 0.984 . S
N1397 H1401 0.985 . S
H1398 N1393 0.984 . S
H1399 N1393 0.985 . S
H1400 N1397 0.984 . S
H1401 N1397 0.985 . S
H1402 N1396 0.984 . S
H1403 N1396 0.984 . S
H1404 N1392 0.984 . S
H1405 N1392 0.985 . S
C1406 C1407 1.363 . S
C1406 C1412 1.379 . S
C1406 N1414 1.356 . S
C1407 C1406 1.363 . S
C1407 C1413 1.363 . S
C1408 C1409 1.363 . S
C1408 C1413 1.379 . S
C1408 N1415 1.356 . S
C1409 C1408 1.363 . S
C1409 C1412 1.363 . S
N1410 C1412 1.356 . S
N1410 H1422 0.984 . S
N1410 H1423 0.985 . S
N1411 C1413 1.356 . S
N1411 H1416 0.984 . S
N1411 H1417 0.985 . S
C1412 C1406 1.379 . S
C1412 C1409 1.363 . S
C1412 N1410 1.356 . S
C1413 C1407 1.363 . S
C1413 C1408 1.379 . S
C1413 N1411 1.356 . S
N1414 C1406 1.356 . S
N1414 H1420 0.984 . S
N1414 H1421 0.984 . S
N1415 C1408 1.356 . S
N1415 H1418 0.984 . S
N1415 H1419 0.985 . S
H1416 N1411 0.984 . S
H1417 N1411 0.985 . S
H1418 N1415 0.984 . S
H1419 N1415 0.985 . S
H1420 N1414 0.984 . S
H1421 N1414 0.984 . S
H1422 N1410 0.984 . S
H1423 N1410 0.985 . S
C1424 C1425 1.363 . S
C1424 C1430 1.379 . S
C1424 N1432 1.356 . S
C1425 C1424 1.363 . S
C1425 C1431 1.363 . S
C1426 C1427 1.363 . S
C1426 C1431 1.379 . S
C1426 N1433 1.356 . S
C1427 C1426 1.363 . S
C1427 C1430 1.363 . S
N1428 C1430 1.356 . S
N1428 H1440 0.984 . S
N1428 H1441 0.985 . S
N1429 C1431 1.356 . S
N1429 H1434 0.984 . S
N1429 H1435 0.985 . S
C1430 C1424 1.379 . S
C1430 C1427 1.363 . S
C1430 N1428 1.356 . S
C1431 C1425 1.363 . S
C1431 C1426 1.379 . S
C1431 N1429 1.356 . S
N1432 C1424 1.356 . S
N1432 H1438 0.984 . S
N1432 H1439 0.984 . S
N1433 C1426 1.356 . S
N1433 H1436 0.984 . S
N1433 H1437 0.985 . S
H1434 N1429 0.984 . S
H1435 N1429 0.985 . S
H1436 N1433 0.984 . S
H1437 N1433 0.985 . S
H1438 N1432 0.984 . S
H1439 N1432 0.984 . S
H1440 N1428 0.984 . S
H1441 N1428 0.985 . S
C1442 C1443 1.363 . S
C1442 C1448 1.379 . S
C1442 N1450 1.356 . S
C1443 C1442 1.363 . S
C1443 C1449 1.363 . S
C1444 C1445 1.363 . S
C1444 C1449 1.379 . S
C1444 N1451 1.356 . S
C1445 C1444 1.363 . S
C1445 C1448 1.363 . S
N1446 C1448 1.356 . S
N1446 H1458 0.984 . S
N1446 H1459 0.985 . S
N1447 C1449 1.356 . S
N1447 H1452 0.984 . S
N1447 H1453 0.985 1_556 S
C1448 C1442 1.379 . S
C1448 C1445 1.363 . S
C1448 N1446 1.356 . S
C1449 C1443 1.363 . S
C1449 C1444 1.379 . S
C1449 N1447 1.356 . S
N1450 C1442 1.356 . S
N1450 H1456 0.984 . S
N1450 H1457 0.984 . S
N1451 C1444 1.356 . S
N1451 H1454 0.984 . S
N1451 H1455 0.985 . S
H1452 N1447 0.984 . S
H1453 N1447 0.985 1_554 S
H1454 N1451 0.984 . S
H1455 N1451 0.985 . S
H1456 N1450 0.984 . S
H1457 N1450 0.984 . S
H1458 N1446 0.984 . S
H1459 N1446 0.985 . S
C1460 C1461 1.363 . S
C1460 C1466 1.379 . S
C1460 N1468 1.356 . S
C1461 C1460 1.363 . S
C1461 C1467 1.363 . S
C1462 C1463 1.363 . S
C1462 C1467 1.379 . S
C1462 N1469 1.356 . S
C1463 C1462 1.363 . S
C1463 C1466 1.363 . S
N1464 C1466 1.356 . S
N1464 H1476 0.984 . S
N1464 H1477 0.985 . S
N1465 C1467 1.356 . S
N1465 H1470 0.984 . S
N1465 H1471 0.985 . S
C1466 C1460 1.379 . S
C1466 C1463 1.363 . S
C1466 N1464 1.356 . S
C1467 C1461 1.363 . S
C1467 C1462 1.379 . S
C1467 N1465 1.356 . S
N1468 C1460 1.356 . S
N1468 H1474 0.984 . S
N1468 H1475 0.984 . S
N1469 C1462 1.356 . S
N1469 H1472 0.984 . S
N1469 H1473 0.985 . S
H1470 N1465 0.984 . S
H1471 N1465 0.985 . S
H1472 N1469 0.984 . S
H1473 N1469 0.985 . S
H1474 N1468 0.984 . S
H1475 N1468 0.984 . S
H1476 N1464 0.984 . S
H1477 N1464 0.985 . S
C1478 C1479 1.363 . S
C1478 C1484 1.379 . S
C1478 N1486 1.356 . S
C1479 C1478 1.363 . S
C1479 C1485 1.363 . S
C1480 C1481 1.363 . S
C1480 C1485 1.379 . S
C1480 N1487 1.356 . S
C1481 C1480 1.363 . S
C1481 C1484 1.363 . S
N1482 C1484 1.356 . S
N1482 H1494 0.984 . S
N1482 H1495 0.985 . S
N1483 C1485 1.356 . S
N1483 H1488 0.984 . S
N1483 H1489 0.985 . S
C1484 C1478 1.379 . S
C1484 C1481 1.363 . S
C1484 N1482 1.356 . S
C1485 C1479 1.363 . S
C1485 C1480 1.379 . S
C1485 N1483 1.356 . S
N1486 C1478 1.356 . S
N1486 H1492 0.984 . S
N1486 H1493 0.984 . S
N1487 C1480 1.356 . S
N1487 H1490 0.984 . S
N1487 H1491 0.985 . S
H1488 N1483 0.984 . S
H1489 N1483 0.985 . S
H1490 N1487 0.984 . S
H1491 N1487 0.985 . S
H1492 N1486 0.984 . S
H1493 N1486 0.984 . S
H1494 N1482 0.984 . S
H1495 N1482 0.985 . S
C1496 C1497 1.363 . S
C1496 C1502 1.379 . S
C1496 N1504 1.356 . S
C1497 C1496 1.363 . S
C1497 C1503 1.363 . S
C1498 C1499 1.363 . S
C1498 C1503 1.379 . S
C1498 N1505 1.356 . S
C1499 C1498 1.363 . S
C1499 C1502 1.363 . S
N1500 C1502 1.356 . S
N1500 H1512 0.984 . S
N1500 H1513 0.985 . S
N1501 C1503 1.356 . S
N1501 H1506 0.984 . S
N1501 H1507 0.985 . S
C1502 C1496 1.379 . S
C1502 C1499 1.363 . S
C1502 N1500 1.356 . S
C1503 C1497 1.363 . S
C1503 C1498 1.379 . S
C1503 N1501 1.356 . S
N1504 C1496 1.356 . S
N1504 H1510 0.984 . S
N1504 H1511 0.984 . S
N1505 C1498 1.356 . S
N1505 H1508 0.984 . S
N1505 H1509 0.985 . S
H1506 N1501 0.984 . S
H1507 N1501 0.985 . S
H1508 N1505 0.984 . S
H1509 N1505 0.985 . S
H1510 N1504 0.984 . S
H1511 N1504 0.984 . S
H1512 N1500 0.984 . S
H1513 N1500 0.985 . S
C1514 C1515 1.363 . S
C1514 C1520 1.379 . S
C1514 N1522 1.356 . S
C1515 C1514 1.363 . S
C1515 C1521 1.363 . S
C1516 C1517 1.363 . S
C1516 C1521 1.379 . S
C1516 N1523 1.356 . S
C1517 C1516 1.363 . S
C1517 C1520 1.363 . S
N1518 C1520 1.356 . S
N1518 H1530 0.984 . S
N1518 H1531 0.985 . S
N1519 C1521 1.356 . S
N1519 H1524 0.984 . S
N1519 H1525 0.985 . S
C1520 C1514 1.379 . S
C1520 C1517 1.363 . S
C1520 N1518 1.356 . S
C1521 C1515 1.363 . S
C1521 C1516 1.379 . S
C1521 N1519 1.356 . S
N1522 C1514 1.356 . S
N1522 H1528 0.984 . S
N1522 H1529 0.984 . S
N1523 C1516 1.356 . S
N1523 H1526 0.984 . S
N1523 H1527 0.985 1_554 S
H1524 N1519 0.984 . S
H1525 N1519 0.985 . S
H1526 N1523 0.984 . S
H1527 N1523 0.985 1_556 S
H1528 N1522 0.984 . S
H1529 N1522 0.984 . S
H1530 N1518 0.984 . S
H1531 N1518 0.985 . S
C1532 C1533 1.363 . S
C1532 C1538 1.379 . S
C1532 N1540 1.356 . S
C1533 C1532 1.363 . S
C1533 C1539 1.363 . S
C1534 C1535 1.363 . S
C1534 C1539 1.379 . S
C1534 N1541 1.356 . S
C1535 C1534 1.363 . S
C1535 C1538 1.363 . S
N1536 C1538 1.356 . S
N1536 H1548 0.984 . S
N1536 H1549 0.985 . S
N1537 C1539 1.356 . S
N1537 H1542 0.984 . S
N1537 H1543 0.985 . S
C1538 C1532 1.379 . S
C1538 C1535 1.363 . S
C1538 N1536 1.356 . S
C1539 C1533 1.363 . S
C1539 C1534 1.379 . S
C1539 N1537 1.356 . S
N1540 C1532 1.356 . S
N1540 H1546 0.984 . S
N1540 H1547 0.984 . S
N1541 C1534 1.356 . S
N1541 H1544 0.984 . S
N1541 H1545 0.985 . S
H1542 N1537 0.984 . S
H1543 N1537 0.985 . S
H1544 N1541 0.984 . S
H1545 N1541 0.985 . S
H1546 N1540 0.984 . S
H1547 N1540 0.984 . S
H1548 N1536 0.984 . S
H1549 N1536 0.985 . S
C1550 C1551 1.363 . S
C1550 C1556 1.379 . S
C1550 N1558 1.356 . S
C1551 C1550 1.363 . S
C1551 C1557 1.363 . S
C1552 C1553 1.363 . S
C1552 C1557 1.379 . S
C1552 N1559 1.356 . S
C1553 C1552 1.363 . S
C1553 C1556 1.363 . S
N1554 C1556 1.356 . S
N1554 H1566 0.984 . S
N1554 H1567 0.985 . S
N1555 C1557 1.356 . S
N1555 H1560 0.984 . S
N1555 H1561 0.985 . S
C1556 C1550 1.379 . S
C1556 C1553 1.363 . S
C1556 N1554 1.356 . S
C1557 C1551 1.363 . S
C1557 C1552 1.379 . S
C1557 N1555 1.356 . S
N1558 C1550 1.356 . S
N1558 H1564 0.984 . S
N1558 H1565 0.984 . S
N1559 C1552 1.356 . S
N1559 H1562 0.984 . S
N1559 H1563 0.985 . S
H1560 N1555 0.984 . S
H1561 N1555 0.985 . S
H1562 N1559 0.984 . S
H1563 N1559 0.985 . S
H1564 N1558 0.984 . S
H1565 N1558 0.984 . S
H1566 N1554 0.984 . S
H1567 N1554 0.985 . S
C417 C160 1.382 1_455 S
C419 C5 1.372 1_655 S
C435 C387 1.382 . S
C437 C16 1.375 . S
C453 C192 1.382 . S
C455 C29 1.375 . S
C471 C413 1.382 . S
C473 C42 1.375 . S
C489 C114 1.381 1_455 S
C491 C57 1.372 1_655 S
C507 C68 1.375 . S
C509 C329 1.382 . S
C525 C81 1.375 . S
C527 C140 1.382 . S
C543 C361 1.382 . S
C545 C96 1.375 . S
C561 C56 1.382 1_655 S
C563 C107 1.372 1_455 S
C579 C277 1.382 . S
C581 C122 1.375 . S
C597 C88 1.382 . S
C599 C133 1.375 . S
C615 C303 1.382 . S
C617 C146 1.375 . S
C633 C161 1.372 1_455 S
C635 C4 1.381 1_655 S
C651 C172 1.375 . S
C653 C225 1.382 . S
C669 C36 1.382 . S
C671 C185 1.375 . S
C687 C198 1.375 . S
C689 C257 1.382 . S
C705 C368 1.382 . S
C707 C213 1.375 . S
C723 C179 1.382 . S
C725 C226 1.375 . S
C741 C400 1.382 1_655 S
C743 C237 1.372 1_455 S
C759 C250 1.375 . S
C761 C205 1.382 . S
C777 C265 1.375 . S
C779 C322 1.382 . S
C795 C278 1.375 . S
C797 C121 1.382 . S
C813 C342 1.381 1_655 S
C815 C291 1.372 1_455 S
C831 C153 1.382 . S
C833 C304 1.375 . S
C849 C264 1.382 . S
C851 C315 1.375 . S
C867 C330 1.375 . S
C869 C75 1.382 . S
C885 C343 1.372 1_655 S
C887 C290 1.382 1_455 S
C903 C354 1.375 . S
C905 C95 1.382 . S
C921 C212 1.382 . S
C923 C369 1.375 . S
C939 C23 1.382 . S
C941 C380 1.375 . S
C957 C244 1.381 1_455 S
C959 C393 1.372 1_655 S
C975 C406 1.375 . S
C977 C49 1.382 . S
C993 C3 1.449 . S
C995 C109 1.449 . S
C1011 C18 1.449 . S
C1013 C328 1.449 . S
C1029 C135 1.449 . S
C1031 C31 1.449 . S
C1047 C44 1.449 . S
C1049 C356 1.449 . S
C1065 C55 1.449 . S
C1067 C159 1.449 . S
C1083 C382 1.449 . S
C1085 C70 1.449 . S
C1101 C187 1.449 . S
C1103 C83 1.449 . S
C1119 C94 1.449 . S
C1121 C408 1.449 . S
C1137 C120 1.449 . S
C1139 C224 1.449 . S
C1155 C148 1.449 . S
C1157 C252 1.449 . S
C1173 C174 1.449 . S
C1175 C276 1.449 . S
C1191 C302 1.449 . S
C1193 C200 1.449 . S
C1209 C211 1.449 . S
C1211 C317 1.449 . S
C1227 C239 1.449 . S
C1229 C341 1.449 . S
C1245 C263 1.449 . S
C1247 C367 1.449 . S
C1263 C395 1.449 . S
C1265 C289 1.449 . S
C1281 C10 1.425 . S
C1283 C101 1.425 . S
C1299 C17 1.425 . S
C1301 C62 1.425 . S
C1317 C69 1.425 . S
C1319 C30 1.425 . S
C1335 C82 1.425 . S
C1337 C43 1.425 . S
C1353 C199 1.425 . S
C1355 C108 1.425 . S
C1371 C166 1.425 . S
C1373 C127 1.425 . S
C1389 C173 1.425 . S
C1391 C134 1.425 . S
C1407 C186 1.425 . S
C1409 C147 1.425 . S
C1425 C218 1.425 . S
C1427 C309 1.425 . S
C1443 C270 1.425 . S
C1445 C231 1.425 . S
C1461 C283 1.425 . S
C1463 C238 1.425 . S
C1479 C296 1.425 . S
C1481 C251 1.425 . S
C1497 C407 1.425 . S
C1499 C316 1.425 . S
C1515 C335 1.425 . S
C1517 C374 1.425 . S
C1533 C348 1.425 . S
C1535 C381 1.425 . S
C1551 C394 1.425 . S
C1553 C355 1.425 . S
