# Generated by pormake.
# Topology mok, (4)-cn, num edge types: 1
# Building blocks:
#     Node 0, Type 0, BuildingBlock: ICAMEG_clean_sbu_1, # of connection points: 4
#     Node 1, Type 0, BuildingBlock: ICAMEG_clean_sbu_1, # of connection points: 4
#     Node 2, Type 0, BuildingBlock: ICAMEG_clean_sbu_1, # of connection points: 4
#     Node 3, Type 0, BuildingBlock: ICAMEG_clean_sbu_1, # of connection points: 4
#     Node 4, Type 0, BuildingBlock: ICAMEG_clean_sbu_1, # of connection points: 4
#     Node 5, Type 0, BuildingBlock: ICAMEG_clean_sbu_1, # of connection points: 4
#     Node 6, Type 0, BuildingBlock: ICAMEG_clean_sbu_1, # of connection points: 4
#     Node 7, Type 0, BuildingBlock: ICAMEG_clean_sbu_1, # of connection points: 4
#     Edge 8, Type (0, 0), BuildingBlock: UVAHIK_clean_linker_0, # of connection points: 2
#     Edge 9, Type (0, 0), BuildingBlock: UVAHIK_clean_linker_0, # of connection points: 2
#     Edge 10, Type (0, 0), BuildingBlock: UVAHIK_clean_linker_0, # of connection points: 2
#     Edge 11, Type (0, 0), BuildingBlock: UVAHIK_clean_linker_0, # of connection points: 2
#     Edge 12, Type (0, 0), BuildingBlock: UVAHIK_clean_linker_0, # of connection points: 2
#     Edge 13, Type (0, 0), BuildingBlock: UVAHIK_clean_linker_0, # of connection points: 2
#     Edge 14, Type (0, 0), BuildingBlock: UVAHIK_clean_linker_0, # of connection points: 2
#     Edge 15, Type (0, 0), BuildingBlock: UVAHIK_clean_linker_0, # of connection points: 2
#     Edge 16, Type (0, 0), BuildingBlock: UVAHIK_clean_linker_0, # of connection points: 2
#     Edge 17, Type (0, 0), BuildingBlock: UVAHIK_clean_linker_0, # of connection points: 2
#     Edge 18, Type (0, 0), BuildingBlock: UVAHIK_clean_linker_0, # of connection points: 2
#     Edge 19, Type (0, 0), BuildingBlock: UVAHIK_clean_linker_0, # of connection points: 2
#     Edge 20, Type (0, 0), BuildingBlock: UVAHIK_clean_linker_0, # of connection points: 2
#     Edge 21, Type (0, 0), BuildingBlock: UVAHIK_clean_linker_0, # of connection points: 2
#     Edge 22, Type (0, 0), BuildingBlock: UVAHIK_clean_linker_0, # of connection points: 2
#     Edge 23, Type (0, 0), BuildingBlock: UVAHIK_clean_linker_0, # of connection points: 2
# Relax obj value: 0.014
# Max RMSD: 0.055
# Mean RMSD: 0.055
data_MOF--net-mok--node1-ICAMEG_clean_sbu_1--edge1-UVAHIK_clean_linker_0
_symmetry_space_group_name_H-M    P1
_symmetry_Int_Tables_number       1
_symmetry_cell_setting            triclinic
loop_
_symmetry_equiv_pos_as_xyz
'x, y, z'
_cell_length_a     74.53369
_cell_length_b     18.502654
_cell_length_c     38.405281
_cell_angle_alpha  90.003225
_cell_angle_beta   90.00243
_cell_angle_gamma 90.003404
loop_
_atom_site_label
_atom_site_type_symbol
_atom_site_fract_x
_atom_site_fract_y
_atom_site_fract_z
_atom_type_partial_charge
Co0 Co 0.62397 0.39897 0.04218 0.0
Co1 Co 0.62121 0.22347 0.01327 0.0
O2 O 0.61425 0.30081 0.04551 0.0
C3 C 0.63005 0.36413 0.11687 0.0
O4 O 0.63587 0.29978 0.1079 0.0
C5 C 0.58134 0.21706 0.01052 0.0
O6 O 0.58102 0.28737 0.00589 0.0
O7 O 0.61507 0.28488 0.97224 0.0
O8 O 0.62376 0.39463 0.99032 0.0
H9 H 0.65179 0.11963 0.90795 0.0
H10 H 0.59149 0.3707 0.08428 0.0
O11 O 0.62437 0.40805 0.09393 0.0
H12 H 0.57281 0.54964 0.99631 0.0
H13 H 0.62916 0.66135 0.07577 0.0
H14 H 0.65218 0.46835 -0.0007 0.0
H15 H 0.60403 0.50592 0.99838 0.0
H16 H 0.61668 0.53808 0.07903 0.0
O17 O 0.59622 0.18425 0.01416 0.0
H18 H 0.64323 0.21604 0.94907 0.0
H19 H 0.61317 0.06568 0.00891 0.0
H20 H 0.66492 0.59106 0.99494 0.0
H21 H 0.56014 0.41352 0.08343 0.0
H22 H 0.6534 0.68856 0.03337 0.0
H23 H 0.55062 0.50345 0.03911 0.0
O24 O 0.64897 0.36066 0.04322 0.0
H25 H 0.61027 0.11316 0.1309 0.0
H26 H 0.65281 0.13299 0.03304 0.0
H27 H 0.6609 0.05963 0.08427 0.0
H28 H 0.63953 0.04921 0.13365 0.0
H29 H 0.60279 0.18661 0.0793 0.0
H30 H 0.62129 0.96776 0.96829 0.0
H31 H 0.6408 0.99443 0.91744 0.0
O32 O 0.64647 0.25902 0.01175 0.0
C33 C 0.61866 0.35126 0.96653 0.0
C34 C 0.64332 0.10729 0.93005 0.0
C35 C 0.62618 0.02208 0.96389 0.0
N36 N 0.62781 0.14643 0.98148 0.0
C37 C 0.63846 0.16162 0.95347 0.0
C38 C 0.62159 0.07779 0.98676 0.0
C39 C 0.63714 0.03707 0.93538 0.0
C40 C 0.58747 0.41023 0.06508 0.0
N41 N 0.59958 0.4357 0.04137 0.0
C42 C 0.56969 0.43411 0.06466 0.0
C43 C 0.56435 0.48449 0.03976 0.0
C44 C 0.57679 0.51036 0.01571 0.0
C45 C 0.59444 0.48517 0.0169 0.0
C46 C 0.63427 0.61935 0.05885 0.0
C47 C 0.64703 0.51059 0.01599 0.0
C48 C 0.6273 0.54939 0.06065 0.0
N49 N 0.63363 0.49616 0.03924 0.0
C50 C 0.65433 0.57992 0.01346 0.0
C51 C 0.64787 0.63459 0.03505 0.0
C52 C 0.65583 0.30715 0.02704 0.0
C53 C 0.61967 0.11712 0.10951 0.0
C54 C 0.64347 0.12902 0.05447 0.0
C55 C 0.64811 0.08721 0.08338 0.0
C56 C 0.6361 0.08135 0.11106 0.0
N57 N 0.62731 0.16389 0.05313 0.0
C58 C 0.61548 0.1584 0.08017 0.0
Co59 Co 0.37826 0.60118 0.04048 0.0
Co60 Co 0.3804 0.77625 0.01095 0.0
O61 O 0.38772 0.69979 0.04335 0.0
C62 C 0.37223 0.63557 0.11529 0.0
O63 O 0.36567 0.69879 0.10637 0.0
C64 C 0.42021 0.78425 0.00796 0.0
O65 O 0.42067 0.71378 0.00398 0.0
O66 O 0.38657 0.71452 0.97007 0.0
O67 O 0.37807 0.60488 0.9886 0.0
H68 H 0.34907 0.87672 0.9057 0.0
H69 H 0.41096 0.63113 0.08169 0.0
O70 O 0.37829 0.59268 0.09225 0.0
H71 H 0.4295 0.45246 0.99348 0.0
H72 H 0.37412 0.33887 0.07471 0.0
H73 H 0.34987 0.53016 0.9987 0.0
H74 H 0.39819 0.49481 0.99631 0.0
H75 H 0.3863 0.46269 0.07726 0.0
O76 O 0.40527 0.81672 0.01132 0.0
H77 H 0.35808 0.78148 0.94708 0.0
H78 H 0.38794 0.93434 0.00584 0.0
H79 H 0.3374 0.40688 0.99505 0.0
H80 H 0.44241 0.58968 0.08008 0.0
H81 H 0.34954 0.31024 0.03326 0.0
H82 H 0.45187 0.4999 0.03564 0.0
O83 O 0.35317 0.63846 0.04208 0.0
H84 H 0.39138 0.8886 0.12812 0.0
H85 H 0.34861 0.86566 0.03077 0.0
H86 H 0.34048 0.93939 0.08186 0.0
H87 H 0.36196 0.95137 0.13097 0.0
H88 H 0.39891 0.81478 0.07665 0.0
H89 H 0.37936 0.03113 0.96494 0.0
H90 H 0.35973 0.00261 0.91451 0.0
O91 O 0.35523 0.73938 0.00995 0.0
C92 C 0.38304 0.64801 0.9646 0.0
C93 C 0.35759 0.88987 0.92762 0.0
C94 C 0.37461 0.97651 0.96085 0.0
N95 N 0.37343 0.85241 0.97897 0.0
C96 C 0.36271 0.8362 0.95119 0.0
C97 C 0.37946 0.92144 0.98387 0.0
C98 C 0.36359 0.96047 0.93257 0.0
C99 C 0.41495 0.59164 0.06245 0.0
N100 N 0.40275 0.56551 0.03908 0.0
C101 C 0.43279 0.56855 0.06159 0.0
C102 C 0.43809 0.51825 0.03662 0.0
C103 C 0.42556 0.49168 0.01294 0.0
C104 C 0.40785 0.51611 0.01455 0.0
C105 C 0.36873 0.38049 0.0579 0.0
C106 C 0.35527 0.48831 0.01529 0.0
C107 C 0.37553 0.45076 0.05931 0.0
N108 N 0.36885 0.50353 0.03804 0.0
C109 C 0.34814 0.41864 0.01316 0.0
C110 C 0.35494 0.36446 0.03463 0.0
C111 C 0.34608 0.6913 0.02576 0.0
C112 C 0.38193 0.88395 0.10684 0.0
C113 C 0.35801 0.87033 0.05209 0.0
C114 C 0.35335 0.91233 0.08092 0.0
C115 C 0.36541 0.91907 0.10845 0.0
N116 N 0.37425 0.83613 0.05068 0.0
C117 C 0.38614 0.84245 0.07758 0.0
Co118 Co 0.621 0.59801 0.54429 0.0
Co119 Co 0.61998 0.77487 0.57199 0.0
O120 O 0.61217 0.69744 0.54058 0.0
C121 C 0.62744 0.6299 0.46941 0.0
O122 O 0.63424 0.69282 0.47812 0.0
C123 C 0.58025 0.78466 0.57591 0.0
O124 O 0.57967 0.71431 0.58028 0.0
O125 O 0.61397 0.71541 0.61372 0.0
O126 O 0.62104 0.60343 0.59612 0.0
H127 H 0.65259 0.87829 0.6751 0.0
H128 H 0.58866 0.63 0.50238 0.0
O129 O 0.62111 0.58793 0.49256 0.0
H130 H 0.56863 0.4564 0.5917 0.0
H131 H 0.62356 0.33435 0.51195 0.0
H132 H 0.64875 0.52533 0.58703 0.0
H133 H 0.60024 0.49526 0.58897 0.0
H134 H 0.61223 0.45934 0.50832 0.0
O135 O 0.59524 0.81654 0.57203 0.0
H136 H 0.64291 0.78176 0.63499 0.0
H137 H 0.61295 0.93351 0.57579 0.0
H138 H 0.66037 0.40087 0.59176 0.0
H139 H 0.55694 0.59203 0.50389 0.0
H140 H 0.64776 0.30439 0.55403 0.0
H141 H 0.54673 0.50483 0.54889 0.0
O142 O 0.64635 0.63252 0.54272 0.0
H143 H 0.60834 0.88269 0.45407 0.0
H144 H 0.65187 0.86174 0.55025 0.0
H145 H 0.65979 0.93279 0.49818 0.0
H146 H 0.63793 0.94376 0.44964 0.0
H147 H 0.60103 0.81153 0.50651 0.0
H148 H 0.62219 0.0316 0.61541 0.0
H149 H 0.64222 0.00428 0.66542 0.0
O150 O 0.645 0.73673 0.5725 0.0
C151 C 0.61677 0.64855 0.61977 0.0
C152 C 0.64391 0.89092 0.65335 0.0
C153 C 0.62682 0.97694 0.61988 0.0
N154 N 0.62747 0.85204 0.60296 0.0
C155 C 0.63841 0.83651 0.63051 0.0
C156 C 0.6216 0.92114 0.59758 0.0
C157 C 0.63807 0.96158 0.64792 0.0
C158 C 0.58434 0.59161 0.52187 0.0
N159 N 0.59629 0.56497 0.5456 0.0
C160 C 0.56636 0.57049 0.52266 0.0
C161 C 0.56063 0.52164 0.54795 0.0
C162 C 0.57291 0.49452 0.572 0.0
C163 C 0.59078 0.51696 0.57044 0.0
C164 C 0.62916 0.3759 0.52856 0.0
C165 C 0.64314 0.48355 0.57064 0.0
C166 C 0.62283 0.44682 0.52654 0.0
N167 N 0.62977 0.49951 0.54756 0.0
C168 C 0.6498 0.41322 0.57339 0.0
C169 C 0.64273 0.35912 0.55218 0.0
C170 C 0.6538 0.68626 0.55772 0.0
C171 C 0.61796 0.87846 0.47509 0.0
C172 C 0.6423 0.86597 0.52919 0.0
C173 C 0.64685 0.90646 0.4998 0.0
C174 C 0.63457 0.91263 0.4726 0.0
N175 N 0.62597 0.8327 0.53147 0.0
C176 C 0.61387 0.83847 0.50489 0.0
Co177 Co 0.37748 0.40413 0.54268 0.0
Co178 Co 0.37975 0.22669 0.56939 0.0
O179 O 0.38677 0.3055 0.53808 0.0
C180 C 0.37046 0.37175 0.46812 0.0
O181 O 0.36458 0.30747 0.47704 0.0
C182 C 0.41958 0.21978 0.57211 0.0
O183 O 0.41991 0.28992 0.57731 0.0
O184 O 0.38593 0.28572 0.61118 0.0
O185 O 0.37832 0.39775 0.59447 0.0
H186 H 0.34902 0.11792 0.6734 0.0
H187 H 0.40933 0.37518 0.49886 0.0
O188 O 0.37649 0.41499 0.49104 0.0
H189 H 0.42982 0.54967 0.58739 0.0
H190 H 0.37297 0.66792 0.51143 0.0
H191 H 0.35018 0.4739 0.58755 0.0
H192 H 0.3984 0.50814 0.5864 0.0
H193 H 0.38486 0.54393 0.50654 0.0
O194 O 0.40469 0.18717 0.5681 0.0
H195 H 0.3577 0.2163 0.63346 0.0
H196 H 0.3876 0.06859 0.57183 0.0
H197 H 0.33804 0.59732 0.59355 0.0
H198 H 0.44085 0.41582 0.49862 0.0
H199 H 0.34945 0.69533 0.5553 0.0
H200 H 0.45129 0.50351 0.54321 0.0
O201 O 0.35229 0.36769 0.54245 0.0
H202 H 0.39062 0.12221 0.4505 0.0
H203 H 0.34802 0.13805 0.54845 0.0
H204 H 0.33986 0.06755 0.49632 0.0
H205 H 0.36126 0.05916 0.4469 0.0
H206 H 0.39817 0.19277 0.503 0.0
H207 H 0.37937 0.96872 0.61124 0.0
H208 H 0.35988 0.99306 0.66238 0.0
O209 O 0.35456 0.26265 0.57131 0.0
C210 C 0.38301 0.35232 0.61767 0.0
C211 C 0.35748 0.10659 0.65115 0.0
C212 C 0.37453 0.02287 0.61629 0.0
N213 N 0.37305 0.14813 0.60022 0.0
C214 C 0.36241 0.16204 0.6284 0.0
C215 C 0.37919 0.07968 0.59411 0.0
C216 C 0.36359 0.03656 0.64497 0.0
C217 C 0.41374 0.41373 0.51819 0.0
N218 N 0.40203 0.43917 0.54266 0.0
C219 C 0.43162 0.43638 0.51799 0.0
C220 C 0.43748 0.4855 0.54304 0.0
C221 C 0.42544 0.51136 0.56786 0.0
C222 C 0.40767 0.48741 0.56728 0.0
C223 C 0.36791 0.6257 0.52828 0.0
C224 C 0.35527 0.51637 0.57094 0.0
C225 C 0.37455 0.55534 0.52557 0.0
N226 N 0.36828 0.50183 0.54688 0.0
C227 C 0.34832 0.58609 0.5744 0.0
C228 C 0.35472 0.64105 0.55291 0.0
C229 C 0.34532 0.31301 0.55751 0.0
C230 C 0.38121 0.1253 0.47191 0.0
C231 C 0.35738 0.13494 0.527 0.0
C232 C 0.3527 0.09475 0.49759 0.0
C233 C 0.36472 0.09002 0.46988 0.0
N234 N 0.37359 0.16931 0.52882 0.0
C235 C 0.38544 0.16493 0.50175 0.0
Co236 Co 0.12301 0.90524 0.04076 0.0
Co237 Co 0.12082 0.72854 0.01346 0.0
O238 O 0.11357 0.80677 0.04492 0.0
C239 C 0.12917 0.87412 0.11583 0.0
O240 O 0.13557 0.81034 0.10745 0.0
C241 C 0.08101 0.72046 0.01041 0.0
O242 O 0.08057 0.79066 0.00547 0.0
O243 O 0.11461 0.78806 0.97188 0.0
O244 O 0.123 0.8989 0.98891 0.0
H245 H 0.15196 0.62234 0.9093 0.0
H246 H 0.09046 0.87728 0.08273 0.0
O247 O 0.12317 0.91631 0.09243 0.0
H248 H 0.07157 0.05131 0.99267 0.0
H249 H 0.12725 0.16914 0.07197 0.0
H250 H 0.1512 0.97428 0.99771 0.0
H251 H 0.10291 0.00924 0.9956 0.0
H252 H 0.11511 0.04544 0.07612 0.0
O253 O 0.09595 0.68822 0.01442 0.0
H254 H 0.14303 0.7198 0.94955 0.0
H255 H 0.11326 0.57023 0.01038 0.0
H256 H 0.16362 0.09739 0.99247 0.0
H257 H 0.05899 0.9185 0.08102 0.0
H258 H 0.15163 0.19582 0.0298 0.0
H259 H 0.04936 0.00595 0.03565 0.0
O260 O 0.14813 0.86818 0.04245 0.0
H261 H 0.10992 0.62231 0.13197 0.0
H262 H 0.15263 0.6402 0.03427 0.0
H263 H 0.16079 0.5691 0.0862 0.0
H264 H 0.13934 0.55967 0.13549 0.0
H265 H 0.10237 0.69347 0.07966 0.0
H266 H 0.12175 0.47125 0.97064 0.0
H267 H 0.14129 0.497 0.91974 0.0
O268 O 0.14598 0.76522 0.01188 0.0
C269 C 0.11803 0.85432 0.96554 0.0
C270 C 0.14347 0.6104 0.93144 0.0
C271 C 0.1265 0.52562 0.96584 0.0
N272 N 0.12773 0.65065 0.9824 0.0
C273 C 0.13841 0.66533 0.95436 0.0
C274 C 0.1217 0.58193 0.9882 0.0
C275 C 0.13747 0.5401 0.9373 0.0
C276 C 0.08639 0.91576 0.06308 0.0
N277 N 0.09852 0.94075 0.03927 0.0
C278 C 0.06855 0.93873 0.06217 0.0
C279 C 0.06315 0.98771 0.03668 0.0
C280 C 0.0756 0.01312 0.01253 0.0
C281 C 0.09332 0.98886 0.01422 0.0
C282 C 0.13258 0.12672 0.05554 0.0
C283 C 0.14586 0.01691 0.01392 0.0
C284 C 0.12579 0.05652 0.05785 0.0
N285 N 0.13239 0.00276 0.03706 0.0
C286 C 0.15297 0.08647 0.01089 0.0
C287 C 0.14625 0.14167 0.03186 0.0
C288 C 0.15517 0.81436 0.02682 0.0
C289 C 0.11936 0.62586 0.11062 0.0
C290 C 0.14324 0.63664 0.05566 0.0
C291 C 0.14793 0.59612 0.08497 0.0
C292 C 0.13588 0.59081 0.1126 0.0
N293 N 0.127 0.67077 0.05389 0.0
C294 C 0.11513 0.66584 0.08089 0.0
Co295 Co 0.87941 0.0986 0.0414 0.0
Co296 Co 0.88076 0.27443 0.01207 0.0
O297 O 0.88819 0.19819 0.04451 0.0
C298 C 0.87205 0.13442 0.1155 0.0
O299 O 0.86576 0.19757 0.1058 0.0
C300 C 0.92054 0.28373 0.00939 0.0
O301 O 0.92112 0.21329 0.00537 0.0
O302 O 0.8871 0.21328 0.97104 0.0
O303 O 0.88016 0.10179 0.98958 0.0
H304 H 0.84928 0.3745 0.90689 0.0
H305 H 0.91109 0.13295 0.08473 0.0
O306 O 0.87848 0.09082 0.09317 0.0
H307 H 0.93249 0.95484 0.99874 0.0
H308 H 0.87634 0.83646 0.07635 0.0
H309 H 0.85241 0.02381 0.9977 0.0
H310 H 0.90086 0.99365 -0.00081 0.0
H311 H 0.88756 0.96168 0.07944 0.0
O312 O 0.90553 0.31578 0.01262 0.0
H313 H 0.85849 0.27927 0.94812 0.0
H314 H 0.88794 0.4328 0.00724 0.0
H315 H 0.84093 0.89906 0.99348 0.0
H316 H 0.94282 0.0951 0.08551 0.0
H317 H 0.85291 0.8044 0.03301 0.0
H318 H 0.95373 0.00561 0.04219 0.0
O319 O 0.85403 0.13295 0.04117 0.0
H320 H 0.89135 0.38687 0.12937 0.0
H321 H 0.84869 0.36205 0.03195 0.0
H322 H 0.84029 0.43509 0.08311 0.0
H323 H 0.86172 0.44801 0.13226 0.0
H324 H 0.89913 0.31371 0.07784 0.0
H325 H 0.87916 0.52958 0.9665 0.0
H326 H 0.85963 0.50072 0.91597 0.0
O327 O 0.85573 0.2365 0.01091 0.0
C328 C 0.88449 0.14606 0.9656 0.0
C329 C 0.85775 0.3878 0.92886 0.0
C330 C 0.87455 0.47481 0.96229 0.0
N331 N 0.87365 0.35053 0.98017 0.0
C332 C 0.86298 0.33413 0.95234 0.0
C333 C 0.87951 0.41974 0.98522 0.0
C334 C 0.86358 0.45859 0.93395 0.0
C335 C 0.91571 0.0936 0.06596 0.0
N336 N 0.90413 0.06566 0.04188 0.0
C337 C 0.9337 0.07254 0.06646 0.0
C338 C 0.93982 0.0224 0.04212 0.0
C339 C 0.92792 0.99397 0.01771 0.0
C340 C 0.91003 0.0164 0.01797 0.0
C341 C 0.87103 0.8772 0.05895 0.0
C342 C 0.85775 0.98282 0.01487 0.0
C343 C 0.87729 0.94826 0.06065 0.0
N344 N 0.87071 0.99992 0.03864 0.0
C345 C 0.85117 0.91232 0.01242 0.0
C346 C 0.85789 0.85925 0.03462 0.0
C347 C 0.84677 0.18621 0.02545 0.0
C348 C 0.88192 0.38182 0.10807 0.0
C349 C 0.85806 0.36715 0.05328 0.0
C350 C 0.85325 0.40875 0.08214 0.0
C351 C 0.86528 0.41602 0.1097 0.0
N352 N 0.87442 0.33385 0.05185 0.0
C353 C 0.88628 0.3407 0.07877 0.0
Co354 Co 0.12196 0.10376 0.54281 0.0
Co355 Co 0.12016 0.27937 0.57225 0.0
O356 O 0.11287 0.20294 0.53978 0.0
C357 C 0.12884 0.13948 0.46847 0.0
O358 O 0.13499 0.20304 0.47791 0.0
C359 C 0.08037 0.28739 0.575 0.0
O360 O 0.07993 0.21689 0.57885 0.0
O361 O 0.11393 0.2179 0.61321 0.0
O362 O 0.12142 0.10703 0.59466 0.0
H363 H 0.15144 0.38006 0.67753 0.0
H364 H 0.08998 0.1363 0.49998 0.0
O365 O 0.12267 0.09578 0.49103 0.0
H366 H 0.06951 0.95759 0.58653 0.0
H367 H 0.12567 0.84166 0.50802 0.0
H368 H 0.1494 0.03053 0.58605 0.0
H369 H 0.10102 0.99798 0.5855 0.0
H370 H 0.11403 0.96628 0.50506 0.0
O371 O 0.09531 0.31995 0.57177 0.0
H372 H 0.14241 0.2847 0.63622 0.0
H373 H 0.11269 0.43751 0.5772 0.0
H374 H 0.16131 0.90641 0.59013 0.0
H375 H 0.05836 0.09686 0.49978 0.0
H376 H 0.14942 0.81098 0.55091 0.0
H377 H 0.04793 0.00707 0.54338 0.0
O378 O 0.14722 0.13944 0.5426 0.0
H379 H 0.10932 0.39192 0.45507 0.0
H380 H 0.15206 0.36811 0.55243 0.0
H381 H 0.16029 0.44167 0.50134 0.0
H382 H 0.13882 0.45408 0.45222 0.0
H383 H 0.1017 0.31826 0.50653 0.0
H384 H 0.12127 0.53442 0.61803 0.0
H385 H 0.14085 0.50599 0.66855 0.0
O386 O 0.14527 0.24225 0.57338 0.0
C387 C 0.11686 0.1509 0.61865 0.0
C388 C 0.14294 0.39317 0.65557 0.0
C389 C 0.12599 0.47978 0.6222 0.0
N390 N 0.12713 0.35559 0.60421 0.0
C391 C 0.13782 0.33943 0.63204 0.0
C392 C 0.12114 0.42464 0.59921 0.0
C393 C 0.13698 0.4638 0.65053 0.0
C394 C 0.08557 0.09681 0.51886 0.0
N395 N 0.09734 0.06958 0.54278 0.0
C396 C 0.06764 0.07485 0.51869 0.0
C397 C 0.06179 0.02455 0.54319 0.0
C398 C 0.07388 0.99684 0.56744 0.0
C399 C 0.0917 0.02015 0.56685 0.0
C400 C 0.13094 0.88274 0.52528 0.0
C401 C 0.14411 0.9892 0.56902 0.0
C402 C 0.12444 0.95346 0.52366 0.0
N403 N 0.13097 0.00554 0.54549 0.0
C404 C 0.15092 0.91906 0.57139 0.0
C405 C 0.14426 0.86556 0.54936 0.0
C406 C 0.15436 0.19272 0.55851 0.0
C407 C 0.11877 0.38708 0.47635 0.0
C408 C 0.14267 0.37298 0.53111 0.0
C409 C 0.14739 0.41488 0.50229 0.0
C410 C 0.13533 0.42186 0.47475 0.0
N411 N 0.12638 0.33912 0.53252 0.0
C412 C 0.1145 0.34568 0.50561 0.0
Co413 Co 0.87681 0.90192 0.54345 0.0
Co414 Co 0.87912 0.72487 0.57026 0.0
O415 O 0.88644 0.80378 0.53926 0.0
C416 C 0.87105 0.87098 0.46831 0.0
O417 O 0.86476 0.80695 0.47659 0.0
C418 C 0.91894 0.71832 0.57429 0.0
O419 O 0.9192 0.78846 0.5795 0.0
O420 O 0.88488 0.78409 0.61219 0.0
O421 O 0.87657 0.8951 0.59525 0.0
H422 H 0.84738 0.6161 0.67309 0.0
H423 H 0.90962 0.87543 0.50201 0.0
O424 O 0.87687 0.91337 0.4918 0.0
H425 H 0.92772 0.04908 0.59286 0.0
H426 H 0.87221 0.16591 0.51263 0.0
H427 H 0.84828 0.96973 0.58611 0.0
H428 H 0.89648 0.00599 0.58926 0.0
H429 H 0.88461 0.04263 0.50848 0.0
O430 O 0.9041 0.68557 0.56989 0.0
H431 H 0.85639 0.71441 0.6334 0.0
H432 H 0.88709 0.56686 0.57316 0.0
H433 H 0.8356 0.09241 0.59134 0.0
H434 H 0.94099 0.91768 0.50439 0.0
H435 H 0.84758 0.1915 0.55441 0.0
H436 H 0.95023 0.00495 0.55016 0.0
O437 O 0.85179 0.86417 0.54118 0.0
H438 H 0.89121 0.62089 0.45171 0.0
H439 H 0.84775 0.6352 0.54827 0.0
H440 H 0.84017 0.56454 0.49588 0.0
H441 H 0.86201 0.55691 0.44715 0.0
H442 H 0.89817 0.6916 0.50447 0.0
H443 H 0.87853 0.46706 0.61236 0.0
H444 H 0.85848 0.49136 0.66267 0.0
O445 O 0.85384 0.76044 0.57114 0.0
C446 C 0.88143 0.8503 0.61862 0.0
C447 C 0.85609 0.60479 0.65121 0.0
C448 C 0.87359 0.52116 0.61715 0.0
N449 N 0.87216 0.64632 0.60087 0.0
C450 C 0.8612 0.6602 0.6286 0.0
C451 C 0.87843 0.57793 0.59509 0.0
C452 C 0.86233 0.53483 0.64536 0.0
C453 C 0.91351 0.91383 0.52183 0.0
N454 N 0.90123 0.93817 0.54548 0.0
C455 C 0.9313 0.93738 0.52312 0.0
C456 C 0.93648 0.98627 0.54883 0.0
C457 C 0.92387 0.01099 0.57282 0.0
C458 C 0.9062 0.98616 0.57075 0.0
C459 C 0.8669 0.12321 0.52889 0.0
C460 C 0.85362 0.01267 0.57008 0.0
C461 C 0.87383 0.05324 0.52659 0.0
N462 N 0.86723 0.99912 0.54717 0.0
C463 C 0.84636 0.08198 0.5731 0.0
C464 C 0.85308 0.13754 0.55235 0.0
C465 C 0.8447 0.80966 0.55616 0.0
C466 C 0.8816 0.62366 0.47281 0.0
C467 C 0.85729 0.63245 0.52713 0.0
C468 C 0.85295 0.59216 0.49756 0.0
C469 C 0.86521 0.58786 0.47024 0.0
N470 N 0.87342 0.66735 0.52947 0.0
C471 C 0.8855 0.66339 0.50279 0.0
C472 C 0.81883 0.24325 0.00227 0.0
C473 C 0.82695 0.19277 0.02469 0.0
C474 C 0.80032 0.25378 0.00269 0.0
C475 C 0.76053 0.23585 0.05794 0.0
H476 H 0.73493 0.25566 0.97052 0.0
C477 C 0.68687 0.33806 0.04847 0.0
C478 C 0.67559 0.29801 0.02632 0.0
C479 C 0.70541 0.32534 0.0488 0.0
C480 C 0.74187 0.25004 0.99516 0.0
H481 H 0.82184 0.11324 0.06499 0.0
H482 H 0.78928 0.13186 0.06567 0.0
H483 H 0.76691 0.22842 0.97007 0.0
H484 H 0.6751 0.21391 0.98679 0.0
H485 H 0.70718 0.19243 0.98736 0.0
H486 H 0.73535 0.25723 0.08297 0.0
C487 C 0.79741 0.16338 0.0479 0.0
C488 C 0.76021 0.23487 0.9949 0.0
C489 C 0.81601 0.15231 0.04729 0.0
C490 C 0.68331 0.24594 0.0042 0.0
C491 C 0.70176 0.23371 0.00438 0.0
C492 C 0.74215 0.25157 0.0582 0.0
C493 C 0.7894 0.21444 0.02564 0.0
C494 C 0.76976 0.22769 0.02625 0.0
C495 C 0.71302 0.27294 0.02674 0.0
C496 C 0.73263 0.25866 0.02679 0.0
H497 H 0.82679 0.27546 0.9845 0.0
H498 H 0.79459 0.29404 0.98549 0.0
H499 H 0.76758 0.2313 0.0825 0.0
H500 H 0.68136 0.37835 0.06591 0.0
H501 H 0.7138 0.35682 0.06612 0.0
C502 C 0.18608 0.84672 0.0485 0.0
C503 C 0.17496 0.80604 0.02633 0.0
C504 C 0.20465 0.83466 0.04908 0.0
C505 C 0.24139 0.76006 0.99594 0.0
H506 H 0.26691 0.74161 0.08352 0.0
C507 C 0.31832 0.75071 0.00313 0.0
C508 C 0.3263 0.69976 0.0255 0.0
C509 C 0.29986 0.76249 0.00374 0.0
C510 C 0.25992 0.74614 0.0589 0.0
H511 H 0.17477 0.72151 0.98701 0.0
H512 H 0.20689 0.7012 0.98797 0.0
H513 H 0.23466 0.76751 0.08369 0.0
H514 H 0.32098 0.62096 0.06603 0.0
H515 H 0.2885 0.64168 0.06701 0.0
H516 H 0.26649 0.73828 0.97108 0.0
C517 C 0.20133 0.74246 0.00483 0.0
C518 C 0.24153 0.76183 0.05899 0.0
C519 C 0.18286 0.75402 0.00443 0.0
C520 C 0.31527 0.66035 0.04836 0.0
C521 C 0.29671 0.67263 0.04914 0.0
C522 C 0.25973 0.74492 0.99585 0.0
C523 C 0.21244 0.78232 0.02722 0.0
C524 C 0.23208 0.76866 0.02748 0.0
C525 C 0.28884 0.72392 0.02682 0.0
C526 C 0.26921 0.73777 0.02729 0.0
H527 H 0.18043 0.88696 0.0658 0.0
H528 H 0.21293 0.86659 0.06642 0.0
H529 H 0.23451 0.76549 0.97124 0.0
H530 H 0.32634 0.78223 0.98518 0.0
H531 H 0.29424 0.80294 0.98651 0.0
C532 C 0.81691 0.74397 0.57442 0.0
C533 C 0.82493 0.8003 0.55535 0.0
C534 C 0.7985 0.73136 0.57231 0.0
C535 C 0.76146 0.68855 0.54799 0.0
H536 H 0.72795 0.84858 0.54942 0.0
C537 C 0.6843 0.64977 0.5354 0.0
C538 C 0.67362 0.69355 0.557 0.0
C539 C 0.70284 0.66157 0.53303 0.0
C540 C 0.73713 0.80322 0.54916 0.0
H541 H 0.81971 0.8882 0.51937 0.0
H542 H 0.78744 0.86585 0.51557 0.0
H543 H 0.76007 0.87277 0.54973 0.0
H544 H 0.67426 0.78245 0.59399 0.0
H545 H 0.70634 0.8018 0.5903 0.0
H546 H 0.7385 0.61899 0.54864 0.0
C547 C 0.79548 0.83178 0.53237 0.0
C548 C 0.75556 0.81716 0.54889 0.0
C549 C 0.81397 0.84457 0.53452 0.0
C550 C 0.68198 0.74799 0.5768 0.0
C551 C 0.70041 0.7596 0.57448 0.0
C552 C 0.74303 0.67461 0.5483 0.0
C553 C 0.78756 0.77455 0.55102 0.0
C554 C 0.76796 0.75999 0.54884 0.0
C555 C 0.71105 0.71732 0.55224 0.0
C556 C 0.73064 0.73177 0.54944 0.0
H557 H 0.82485 0.70899 0.59097 0.0
H558 H 0.79281 0.68791 0.58765 0.0
H559 H 0.77065 0.64322 0.54736 0.0
H560 H 0.6783 0.60756 0.5197 0.0
H561 H 0.71065 0.62818 0.51554 0.0
C562 C 0.18518 0.1606 0.5364 0.0
C563 C 0.17416 0.2001 0.55924 0.0
C564 C 0.20376 0.17229 0.53587 0.0
C565 C 0.24081 0.24287 0.58946 0.0
H566 H 0.26575 0.26818 0.50166 0.0
C567 C 0.31772 0.25226 0.58008 0.0
C568 C 0.32553 0.30499 0.55845 0.0
C569 C 0.29924 0.24082 0.57994 0.0
C570 C 0.25892 0.26172 0.52635 0.0
H571 H 0.17415 0.2818 0.59992 0.0
H572 H 0.20632 0.3014 0.59908 0.0
H573 H 0.23351 0.24219 0.50181 0.0
H574 H 0.3199 0.38741 0.5198 0.0
H575 H 0.28739 0.36717 0.5196 0.0
H576 H 0.26608 0.26271 0.61407 0.0
C577 C 0.20066 0.26144 0.58162 0.0
C578 C 0.24054 0.24597 0.52643 0.0
C579 C 0.18217 0.25031 0.58195 0.0
C580 C 0.31431 0.34659 0.53687 0.0
C581 C 0.29574 0.33462 0.53653 0.0
C582 C 0.25915 0.25802 0.58938 0.0
C583 C 0.21167 0.223 0.55846 0.0
C584 C 0.23129 0.23666 0.55802 0.0
C585 C 0.28804 0.28147 0.55805 0.0
C586 C 0.26842 0.26765 0.55785 0.0
H587 H 0.17943 0.12177 0.51848 0.0
H588 H 0.21195 0.14146 0.51793 0.0
H589 H 0.23408 0.23553 0.61421 0.0
H590 H 0.3259 0.21908 0.59705 0.0
H591 H 0.29375 0.19897 0.59654 0.0
C592 C 0.6303 0.46317 0.16085 0.0
C593 C 0.63074 0.38871 0.15348 0.0
C594 C 0.63079 0.48791 0.19511 0.0
C595 C 0.61926 0.43755 0.28358 0.0
H596 H 0.65135 0.59318 0.31017 0.0
C597 C 0.6253 0.53033 0.42585 0.0
C598 C 0.62799 0.60409 0.43294 0.0
C599 C 0.62606 0.50422 0.39186 0.0
C600 C 0.64211 0.5505 0.3031 0.0
H601 H 0.63208 0.28176 0.17631 0.0
H602 H 0.63255 0.32535 0.23673 0.0
H603 H 0.65228 0.54546 0.25095 0.0
H604 H 0.63347 0.7085 0.40975 0.0
H605 H 0.63423 0.66328 0.3499 0.0
H606 H 0.60861 0.44375 0.3351 0.0
C607 C 0.63194 0.36428 0.2157 0.0
C608 C 0.64275 0.52283 0.26924 0.0
C609 C 0.63173 0.33939 0.18122 0.0
C610 C 0.6314 0.65136 0.40512 0.0
C611 C 0.63194 0.62525 0.37086 0.0
C612 C 0.61844 0.4658 0.31728 0.0
C613 C 0.6315 0.43884 0.22289 0.0
C614 C 0.63135 0.46603 0.25919 0.0
C615 C 0.62928 0.55122 0.36382 0.0
C616 C 0.6299 0.52251 0.32757 0.0
H617 H 0.62966 0.50269 0.14009 0.0
H618 H 0.63027 0.54559 0.1999 0.0
H619 H 0.61012 0.39459 0.27632 0.0
H620 H 0.62288 0.4921 0.44667 0.0
H621 H 0.62437 0.44674 0.3877 0.0
C622 C 0.36868 0.65844 0.17958 0.0
C623 C 0.37172 0.61048 0.15187 0.0
C624 C 0.36821 0.63293 0.21395 0.0
C625 C 0.38138 0.47336 0.26772 0.0
H626 H 0.34822 0.55562 0.33459 0.0
C627 C 0.36825 0.34771 0.40381 0.0
C628 C 0.36958 0.39676 0.4316 0.0
C629 C 0.36795 0.37284 0.36939 0.0
C630 C 0.35756 0.53229 0.31615 0.0
H631 H 0.37621 0.49787 0.13847 0.0
H632 H 0.37484 0.45361 0.19761 0.0
H633 H 0.34904 0.60296 0.27528 0.0
H634 H 0.37114 0.51055 0.44519 0.0
H635 H 0.37035 0.55393 0.38544 0.0
H636 H 0.38961 0.40182 0.30859 0.0
C637 C 0.3734 0.51114 0.19328 0.0
C638 C 0.35814 0.55972 0.28224 0.0
C639 C 0.37408 0.53663 0.15918 0.0
C640 C 0.37023 0.47124 0.42436 0.0
C641 C 0.36965 0.49626 0.39015 0.0
C642 C 0.38062 0.44537 0.30146 0.0
C643 C 0.37059 0.55883 0.22121 0.0
C644 C 0.37009 0.5307 0.25756 0.0
C645 C 0.36863 0.44742 0.36231 0.0
C646 C 0.36876 0.47473 0.32604 0.0
H647 H 0.36685 0.71565 0.17476 0.0
H648 H 0.36622 0.67144 0.23482 0.0
H649 H 0.39102 0.45053 0.24973 0.0
H650 H 0.36773 0.29006 0.40862 0.0
H651 H 0.36708 0.33409 0.34832 0.0
C652 C 0.38272 0.543 0.92361 0.0
C653 C 0.38454 0.61792 0.92889 0.0
C654 C 0.38386 0.51337 0.89035 0.0
C655 C 0.39865 0.55281 0.79991 0.0
H656 H 0.36754 0.39083 0.77809 0.0
C657 C 0.38427 0.45446 0.66031 0.0
C658 C 0.38493 0.37959 0.65382 0.0
C659 C 0.38565 0.48131 0.6941 0.0
C660 C 0.37647 0.4354 0.78397 0.0
H661 H 0.38883 0.72051 0.90291 0.0
H662 H 0.3902 0.6689 0.84439 0.0
H663 H 0.36655 0.44459 0.83591 0.0
H664 H 0.38743 0.27425 0.67816 0.0
H665 H 0.38944 0.32162 0.73767 0.0
H666 H 0.408 0.54484 0.74726 0.0
C667 C 0.38838 0.63283 0.8663 0.0
C668 C 0.37595 0.46631 0.81713 0.0
C669 C 0.38749 0.66257 0.89984 0.0
C670 C 0.38697 0.33216 0.68217 0.0
C671 C 0.38806 0.35919 0.7162 0.0
C672 C 0.39899 0.52242 0.76658 0.0
C673 C 0.38651 0.55777 0.86115 0.0
C674 C 0.38704 0.52543 0.82561 0.0
C675 C 0.38743 0.43408 0.72241 0.0
C676 C 0.38788 0.46349 0.75829 0.0
H677 H 0.38037 0.50662 0.9452 0.0
H678 H 0.38273 0.4553 0.88765 0.0
H679 H 0.40761 0.59736 0.80559 0.0
H680 H 0.3825 0.49282 0.63933 0.0
H681 H 0.38485 0.53917 0.69816 0.0
C682 C 0.61889 0.4558 0.92529 0.0
C683 C 0.61705 0.38096 0.93076 0.0
C684 C 0.61769 0.4851 0.89198 0.0
C685 C 0.60264 0.44522 0.80178 0.0
H686 H 0.6337 0.60713 0.77955 0.0
C687 C 0.61591 0.54558 0.66199 0.0
C688 C 0.61524 0.62059 0.65586 0.0
C689 C 0.61484 0.51809 0.6957 0.0
C690 C 0.62479 0.56255 0.78554 0.0
H691 H 0.61265 0.27813 0.90505 0.0
H692 H 0.61116 0.32919 0.84641 0.0
H693 H 0.63496 0.55309 0.83728 0.0
H694 H 0.61307 0.72548 0.68077 0.0
H695 H 0.6116 0.67698 0.74011 0.0
H696 H 0.59301 0.45355 0.74932 0.0
C697 C 0.61305 0.36545 0.86823 0.0
C698 C 0.62547 0.53149 0.81865 0.0
C699 C 0.61401 0.33604 0.90183 0.0
C700 C 0.61353 0.66748 0.6845 0.0
C701 C 0.61275 0.63981 0.71844 0.0
C702 C 0.60214 0.47577 0.76848 0.0
C703 C 0.61496 0.44044 0.86289 0.0
C704 C 0.61436 0.47251 0.8273 0.0
C705 C 0.61338 0.56479 0.72429 0.0
C706 C 0.61321 0.53475 0.76006 0.0
H707 H 0.62131 0.4924 0.94676 0.0
H708 H 0.61884 0.54314 0.88914 0.0
H709 H 0.59369 0.40074 0.80759 0.0
H710 H 0.61743 0.5076 0.64077 0.0
H711 H 0.61564 0.46014 0.69947 0.0
C712 C 0.12754 0.97451 0.15903 0.0
C713 C 0.12966 0.90033 0.15223 0.0
C714 C 0.12811 1.00087 0.193 0.0
C715 C 0.14249 0.95321 0.2827 0.0
H716 H 0.11129 0.11297 0.30759 0.0
C717 C 0.12894 0.04096 0.42421 0.0
C718 C 0.12983 0.11526 0.43182 0.0
C719 C 0.12981 0.01652 0.38993 0.0
C720 C 0.12022 0.06893 0.30087 0.0
H721 H 0.13398 0.79549 0.17588 0.0
H722 H 0.13441 0.84123 0.23565 0.0
H723 H 0.11037 0.06408 0.2487 0.0
H724 H 0.13234 0.22222 0.40938 0.0
H725 H 0.13347 0.17919 0.34889 0.0
H726 H 0.15183 0.95691 0.33546 0.0
C727 C 0.13271 0.87933 0.21451 0.0
C728 C 0.11974 0.04083 0.26711 0.0
C729 C 0.13236 0.85294 0.1803 0.0
C730 C 0.13163 0.16471 0.40428 0.0
C731 C 0.13221 0.14015 0.36976 0.0
C732 C 0.14278 0.98075 0.3166 0.0
C733 C 0.13057 0.95375 0.22128 0.0
C734 C 0.1309 0.98266 0.25751 0.0
C735 C 0.13136 0.06574 0.36234 0.0
C736 C 0.13165 0.03887 0.32599 0.0
H737 H 0.12568 0.0128 0.13802 0.0
H738 H 0.12686 0.05859 0.19696 0.0
H739 H 0.15151 0.90937 0.27618 0.0
H740 H 0.12768 0.0013 0.4448 0.0
H741 H 0.12895 0.95898 0.38496 0.0
C742 C 0.87245 0.9715 0.42517 0.0
C743 C 0.87059 0.89719 0.43193 0.0
C744 C 0.87188 0.99783 0.3912 0.0
C745 C 0.85797 0.94919 0.30133 0.0
H746 H 0.88876 0.11047 0.27673 0.0
C747 C 0.87202 0.03635 0.15997 0.0
C748 C 0.87092 0.11051 0.15217 0.0
C749 C 0.87102 0.01222 0.19428 0.0
C750 C 0.87994 0.066 0.28337 0.0
H751 H 0.86671 0.79211 0.40823 0.0
H752 H 0.8663 0.83782 0.34847 0.0
H753 H 0.88958 0.06199 0.3357 0.0
H754 H 0.86791 0.21756 0.17429 0.0
H755 H 0.86655 0.17509 0.23485 0.0
H756 H 0.84886 0.95205 0.24842 0.0
C757 C 0.86779 0.87602 0.36962 0.0
C758 C 0.88037 0.03814 0.31718 0.0
C759 C 0.86814 0.84966 0.40384 0.0
C760 C 0.86878 0.16015 0.17954 0.0
C761 C 0.86807 0.13592 0.2141 0.0
C762 C 0.85774 0.97651 0.2674 0.0
C763 C 0.86967 0.95055 0.36289 0.0
C764 C 0.86936 0.9794 0.32666 0.0
C765 C 0.86913 0.06164 0.22171 0.0
C766 C 0.86873 0.03513 0.25811 0.0
H767 H 0.87411 0.00987 0.44621 0.0
H768 H 0.87294 0.05561 0.38725 0.0
H769 H 0.84908 0.9049 0.30776 0.0
H770 H 0.87354 0.99656 0.1395 0.0
H771 H 0.87205 0.95479 0.19942 0.0
C772 C 0.88654 0.83165 0.68293 0.0
C773 C 0.8831 0.8781 0.65472 0.0
C774 C 0.88788 0.85925 0.71682 0.0
C775 C 0.89719 0.02617 0.76571 0.0
H776 H 0.86903 0.93799 0.83908 0.0
C777 C 0.88731 0.16209 0.90059 0.0
C778 C 0.88616 0.11658 0.92981 0.0
C779 C 0.88788 0.13277 0.86693 0.0
C780 C 0.87725 0.96272 0.81912 0.0
H781 H 0.87823 0.99019 0.64039 0.0
H782 H 0.88092 0.03758 0.69896 0.0
H783 H 0.86901 0.88465 0.78114 0.0
H784 H 0.88507 0.00427 0.9463 0.0
H785 H 0.8869 0.95393 0.88848 0.0
H786 H 0.90563 0.1038 0.80364 0.0
C787 C 0.88269 0.98008 0.69488 0.0
C788 C 0.87718 0.93205 0.78589 0.0
C789 C 0.88111 0.9526 0.66124 0.0
C790 C 0.88598 0.04131 0.92458 0.0
C791 C 0.88681 0.01218 0.89119 0.0
C792 C 0.89744 0.05642 0.79908 0.0
C793 C 0.88604 0.93382 0.72304 0.0
C794 C 0.88704 0.96374 0.7588 0.0
C795 C 0.88749 0.05732 0.86183 0.0
C796 C 0.8874 0.02527 0.82622 0.0
H797 H 0.88807 0.77404 0.6789 0.0
H798 H 0.89049 0.82241 0.73815 0.0
H799 H 0.90502 0.05142 0.74529 0.0
H800 H 0.88735 0.22029 0.90363 0.0
H801 H 0.88819 0.16932 0.84493 0.0
C802 C 0.118 0.95692 0.92307 0.0
C803 C 0.11632 0.88225 0.92946 0.0
C804 C 0.11659 0.9844 0.8894 0.0
C805 C 0.12349 0.93719 0.79875 0.0
H806 H 0.09433 0.1063 0.77956 0.0
C807 C 0.11593 0.04597 0.65964 0.0
C808 C 0.11522 0.1212 0.65441 0.0
C809 C 0.11493 0.01671 0.69299 0.0
C810 C 0.10273 0.0597 0.78453 0.0
H811 H 0.11205 0.77792 0.90504 0.0
H812 H 0.10996 0.82631 0.84575 0.0
H813 H 0.09443 0.05384 0.8379 0.0
H814 H 0.11297 0.22467 0.68055 0.0
H815 H 0.11185 0.17355 0.73919 0.0
H816 H 0.13237 0.94407 0.74603 0.0
C817 C 0.11217 0.86327 0.8672 0.0
C818 C 0.10268 0.02938 0.8179 0.0
C819 C 0.11332 0.83567 0.90111 0.0
C820 C 0.11343 0.1665 0.68359 0.0
C821 C 0.11269 0.13707 0.71721 0.0
C822 C 0.12373 0.96797 0.76554 0.0
C823 C 0.11375 0.93797 0.8611 0.0
C824 C 0.11307 0.96786 0.82531 0.0
C825 C 0.11355 0.0617 0.72232 0.0
C826 C 0.11333 0.02959 0.75792 0.0
H827 H 0.12054 0.99461 0.94405 0.0
H828 H 0.11814 0.04203 0.88541 0.0
H829 H 0.13186 0.89054 0.80391 0.0
H830 H 0.11735 0.00908 0.63796 0.0
H831 H 0.11522 0.95846 0.69568 0.0
C832 C 0.43601 0.90349 0.00853 0.0
C833 C 0.43695 0.82753 0.00822 0.0
C834 C 0.4516 0.94524 0.00867 0.0
C835 C 0.49952 0.9396 0.03094 0.0
H836 H 0.50242 0.10915 0.97178 0.0
C837 C 0.56536 0.09836 0.01321 0.0
C838 C 0.56453 0.17418 0.01092 0.0
C839 C 0.54973 0.05687 0.01317 0.0
C840 C 0.50175 0.06261 0.98883 0.0
H841 H 0.4551 0.73595 0.00798 0.0
H842 H 0.48245 0.80925 0.00829 0.0
H843 H 0.47554 0.03403 0.97059 0.0
H844 H 0.54652 0.26583 0.0071 0.0
H845 H 0.5191 0.19321 0.00754 0.0
H846 H 0.52563 0.96837 0.04946 0.0
C847 C 0.46956 0.83626 0.00855 0.0
C848 C 0.48636 0.01939 0.98805 0.0
C849 C 0.45391 0.79429 0.00818 0.0
C850 C 0.54763 0.20757 0.00876 0.0
C851 C 0.53193 0.16588 0.00883 0.0
C852 C 0.51488 0.98299 0.03184 0.0
C853 C 0.46856 0.91224 0.00868 0.0
C854 C 0.48508 0.95734 0.00907 0.0
C855 C 0.5328 0.08994 0.01101 0.0
C856 C 0.51622 0.04496 0.01072 0.0
H857 H 0.4232 0.93107 0.00861 0.0
H858 H 0.45036 0.00356 0.00925 0.0
H859 H 0.49883 0.89284 0.04785 0.0
H860 H 0.57812 0.07061 0.01475 0.0
H861 H 0.55096 0.99859 0.01426 0.0
C862 C 0.56466 0.90433 0.57532 0.0
C863 C 0.56359 0.8284 0.57565 0.0
C864 C 0.54913 0.94648 0.57503 0.0
C865 C 0.50132 0.94191 0.55207 0.0
H866 H 0.49833 0.11127 0.61134 0.0
C867 C 0.43553 0.10106 0.56911 0.0
C868 C 0.43637 0.17685 0.57164 0.0
C869 C 0.45114 0.0595 0.56924 0.0
C870 C 0.49903 0.0648 0.59425 0.0
H871 H 0.5453 0.73728 0.5758 0.0
H872 H 0.51807 0.81126 0.5752 0.0
H873 H 0.52514 0.03578 0.61286 0.0
H874 H 0.4544 0.26837 0.57593 0.0
H875 H 0.4818 0.19564 0.57559 0.0
H876 H 0.47532 0.9711 0.53316 0.0
C877 C 0.531 0.83794 0.57505 0.0
C878 C 0.51438 0.02136 0.59522 0.0
C879 C 0.54659 0.79559 0.57559 0.0
C880 C 0.45327 0.21013 0.57408 0.0
C881 C 0.46896 0.16838 0.57407 0.0
C882 C 0.48601 0.98552 0.55096 0.0
C883 C 0.53213 0.91389 0.57485 0.0
C884 C 0.51568 0.95935 0.57419 0.0
C885 C 0.46807 0.09248 0.57169 0.0
C886 C 0.48463 0.0474 0.57213 0.0
H887 H 0.57752 0.93156 0.57533 0.0
H888 H 0.55047 0.00477 0.57442 0.0
H889 H 0.50203 0.89518 0.53513 0.0
H890 H 0.42275 0.0734 0.56737 0.0
H891 H 0.44989 0.00125 0.56799 0.0
C892 C 0.06526 0.60117 0.01215 0.0
C893 C 0.06429 0.67707 0.01065 0.0
C894 C 0.0497 0.55927 0.01193 0.0
C895 C 0.00139 0.56534 0.03076 0.0
H896 H 0.99976 0.39274 0.97347 0.0
C897 C 0.93616 0.40332 0.01103 0.0
C898 C 0.93721 0.32743 0.00985 0.0
C899 C 0.95169 0.44546 0.01128 0.0
C900 C 1.00007 0.44016 0.98999 0.0
H901 H 0.04611 0.76838 0.00803 0.0
H902 H 0.0188 0.6948 0.00772 0.0
H903 H 0.02656 0.46836 0.97322 0.0
H904 H 0.9555 0.23638 0.00825 0.0
H905 H 0.98271 0.31015 0.00921 0.0
H906 H 0.975 0.53693 0.04782 0.0
C907 C 0.03169 0.66798 0.00917 0.0
C908 C 0.01541 0.48366 0.98975 0.0
C909 C 0.04732 0.7101 0.00918 0.0
C910 C 0.95422 0.29467 0.00902 0.0
C911 C 0.96981 0.33701 0.0094 0.0
C912 C 0.98608 0.52167 0.03113 0.0
C913 C 0.03273 0.59205 0.01037 0.0
C914 C 0.01625 0.54675 0.01013 0.0
C915 C 0.96872 0.41299 0.01053 0.0
C916 C 0.9852 0.45857 0.01069 0.0
H917 H 0.07808 0.57375 0.01338 0.0
H918 H 0.05096 0.50102 0.01338 0.0
H919 H 0.00172 0.61296 0.04714 0.0
H920 H 0.9233 0.43056 0.01152 0.0
H921 H 0.9503 0.50372 0.01154 0.0
C922 C 0.04667 0.29719 0.57502 0.0
C923 C 0.06361 0.33056 0.57482 0.0
C924 C 0.031 0.33903 0.57485 0.0
C925 C 0.01418 0.52189 0.59571 0.0
H926 H 0.97468 0.47053 0.53491 0.0
C927 C 0.95265 0.70923 0.57607 0.0
C928 C 0.93577 0.67562 0.57396 0.0
C929 C 0.96838 0.66775 0.57584 0.0
C930 C 0.9855 0.48524 0.55236 0.0
H931 H 0.07732 0.43421 0.57425 0.0
H932 H 0.05012 0.50649 0.57392 0.0
H933 H 0.00155 0.3954 0.53599 0.0
H934 H 0.92225 0.5719 0.5702 0.0
H935 H 0.94947 0.50023 0.57046 0.0
H936 H 0.9981 0.61133 0.61235 0.0
C937 C 0.0489 0.44816 0.57452 0.0
C938 C 0.00089 0.44209 0.55296 0.0
C939 C 0.06451 0.40654 0.57447 0.0
C940 C 0.935 0.5998 0.57167 0.0
C941 C 0.95066 0.55852 0.57158 0.0
C942 C 0.99874 0.56488 0.59524 0.0
C943 C 0.03196 0.41502 0.57472 0.0
C944 C 0.01542 0.45995 0.57461 0.0
C945 C 0.96757 0.59182 0.57359 0.0
C946 C 0.98419 0.54708 0.57358 0.0
H947 H 0.04551 0.23884 0.57526 0.0
H948 H 0.01812 0.31191 0.57527 0.0
H949 H 0.02506 0.53663 0.613 0.0
H950 H 0.95371 0.76751 0.57773 0.0
H951 H 0.98119 0.69527 0.57703 0.0
loop_
_geom_bond_atom_site_label_1
_geom_bond_atom_site_label_2
_geom_bond_distance
_geom_bond_site_symmetry_2
_ccdc_geom_bond_type
Co0 O2 2.143 . S
Co0 O8 2.074 1_554 S
Co0 O11 2.093 . S
Co0 O24 2.097 . S
Co0 N41 2.151 . S
Co0 N49 2.214 . S
Co1 O2 2.160 . S
Co1 O7 2.058 1_554 S
Co1 O17 2.057 . S
Co1 O32 2.037 . S
Co1 N36 2.145 1_554 S
Co1 N57 2.257 . S
O2 Co0 2.143 . S
O2 Co1 2.160 . S
C3 O4 1.278 . S
C3 O11 1.224 . S
O4 C3 1.278 . S
C5 O6 1.245 . S
C5 O17 1.232 . S
O6 C5 1.245 . S
O7 Co1 2.058 1_556 S
O7 C33 1.269 . S
O8 Co0 2.074 1_556 S
O8 C33 1.257 . S
H9 C34 0.930 . S
H10 C40 0.930 . S
O11 Co0 2.093 . S
O11 C3 1.224 . S
H12 C44 0.929 1_556 S
H13 C46 0.930 . S
H14 C47 0.930 . S
H15 C45 0.916 1_556 S
H16 C48 0.928 . S
O17 Co1 2.057 . S
O17 C5 1.232 . S
H18 C37 0.929 . S
H19 C38 0.929 . S
H20 C50 0.931 1_556 S
H21 C42 0.929 . S
H22 C51 0.930 . S
H23 C43 0.931 . S
O24 Co0 2.097 . S
O24 C52 1.214 . S
H25 C53 0.929 . S
H26 C54 0.929 . S
H27 C55 0.930 . S
H28 C56 0.929 . S
H29 C58 0.930 . S
H30 C35 0.930 1_565 S
H31 C39 0.930 1_565 S
O32 Co1 2.037 . S
O32 C52 1.234 . S
C33 O7 1.269 . S
C33 O8 1.257 . S
C34 H9 0.930 . S
C34 C37 1.388 . S
C34 C39 1.418 . S
C35 H30 0.930 1_545 S
C35 C38 1.404 . S
C35 C39 1.353 . S
N36 Co1 2.145 1_556 S
N36 C37 1.397 . S
N36 C38 1.334 . S
C37 H18 0.929 . S
C37 C34 1.388 . S
C37 N36 1.397 . S
C38 H19 0.929 . S
C38 C35 1.404 . S
C38 N36 1.334 . S
C39 H31 0.930 1_545 S
C39 C34 1.418 . S
C39 C35 1.353 . S
C40 H10 0.930 . S
C40 N41 1.330 . S
C40 C42 1.446 . S
N41 Co0 2.151 . S
N41 C40 1.330 . S
N41 C45 1.418 . S
C42 H21 0.929 . S
C42 C40 1.446 . S
C42 C43 1.332 . S
C43 H23 0.931 . S
C43 C42 1.332 . S
C43 C44 1.267 . S
C44 H12 0.929 1_554 S
C44 C43 1.267 . S
C44 C45 1.251 . S
C45 H15 0.916 1_554 S
C45 N41 1.418 . S
C45 C44 1.251 . S
C46 H13 0.930 . S
C46 C48 1.406 . S
C46 C51 1.261 . S
C47 H14 0.930 . S
C47 N49 1.325 . S
C47 C50 1.357 . S
C48 H16 0.928 . S
C48 C46 1.406 . S
C48 N49 1.261 . S
N49 Co0 2.214 . S
N49 C47 1.325 . S
N49 C48 1.261 . S
C50 H20 0.931 1_554 S
C50 C47 1.357 . S
C50 C51 1.312 . S
C51 H22 0.930 . S
C51 C46 1.261 . S
C51 C50 1.312 . S
C52 O24 1.214 . S
C52 O32 1.234 . S
C53 H25 0.929 . S
C53 C56 1.391 . S
C53 C58 1.391 . S
C54 H26 0.929 . S
C54 C55 1.390 . S
C54 N57 1.391 . S
C55 H27 0.930 . S
C55 C54 1.390 . S
C55 C56 1.392 . S
C56 H28 0.929 . S
C56 C53 1.391 . S
C56 C55 1.392 . S
N57 Co1 2.257 . S
N57 C54 1.391 . S
N57 C58 1.388 . S
C58 H29 0.930 . S
C58 C53 1.391 . S
C58 N57 1.388 . S
Co59 O61 2.143 . S
Co59 O67 2.074 1_554 S
Co59 O70 2.093 . S
Co59 O83 2.097 . S
Co59 N100 2.151 . S
Co59 N108 2.214 . S
Co60 O61 2.160 . S
Co60 O66 2.058 1_554 S
Co60 O76 2.057 . S
Co60 O91 2.037 . S
Co60 N95 2.145 1_554 S
Co60 N116 2.257 . S
O61 Co59 2.143 . S
O61 Co60 2.160 . S
C62 O63 1.278 . S
C62 O70 1.224 . S
O63 C62 1.278 . S
C64 O65 1.245 . S
C64 O76 1.232 . S
O65 C64 1.245 . S
O66 Co60 2.058 1_556 S
O66 C92 1.269 . S
O67 Co59 2.074 1_556 S
O67 C92 1.257 . S
H68 C93 0.930 . S
H69 C99 0.930 . S
O70 Co59 2.093 . S
O70 C62 1.224 . S
H71 C103 0.929 1_556 S
H72 C105 0.930 . S
H73 C106 0.930 . S
H74 C104 0.916 1_556 S
H75 C107 0.928 . S
O76 Co60 2.057 . S
O76 C64 1.232 . S
H77 C96 0.929 . S
H78 C97 0.929 . S
H79 C109 0.931 1_556 S
H80 C101 0.929 . S
H81 C110 0.930 . S
H82 C102 0.931 . S
O83 Co59 2.097 . S
O83 C111 1.214 . S
H84 C112 0.929 . S
H85 C113 0.929 . S
H86 C114 0.930 . S
H87 C115 0.929 . S
H88 C117 0.930 . S
H89 C94 0.930 1_545 S
H90 C98 0.930 1_545 S
O91 Co60 2.037 . S
O91 C111 1.234 . S
C92 O66 1.269 . S
C92 O67 1.257 . S
C93 H68 0.930 . S
C93 C96 1.388 . S
C93 C98 1.418 . S
C94 H89 0.930 1_565 S
C94 C97 1.404 . S
C94 C98 1.353 . S
N95 Co60 2.145 1_556 S
N95 C96 1.397 . S
N95 C97 1.334 . S
C96 H77 0.929 . S
C96 C93 1.388 . S
C96 N95 1.397 . S
C97 H78 0.929 . S
C97 C94 1.404 . S
C97 N95 1.334 . S
C98 H90 0.930 1_565 S
C98 C93 1.418 . S
C98 C94 1.353 . S
C99 H69 0.930 . S
C99 N100 1.330 . S
C99 C101 1.446 . S
N100 Co59 2.151 . S
N100 C99 1.330 . S
N100 C104 1.418 . S
C101 H80 0.929 . S
C101 C99 1.446 . S
C101 C102 1.332 . S
C102 H82 0.931 . S
C102 C101 1.332 . S
C102 C103 1.267 . S
C103 H71 0.929 1_554 S
C103 C102 1.267 . S
C103 C104 1.251 . S
C104 H74 0.916 1_554 S
C104 N100 1.418 . S
C104 C103 1.251 . S
C105 H72 0.930 . S
C105 C107 1.406 . S
C105 C110 1.261 . S
C106 H73 0.930 . S
C106 N108 1.325 . S
C106 C109 1.357 . S
C107 H75 0.928 . S
C107 C105 1.406 . S
C107 N108 1.261 . S
N108 Co59 2.214 . S
N108 C106 1.325 . S
N108 C107 1.261 . S
C109 H79 0.931 1_554 S
C109 C106 1.357 . S
C109 C110 1.312 . S
C110 H81 0.930 . S
C110 C105 1.261 . S
C110 C109 1.312 . S
C111 O83 1.214 . S
C111 O91 1.234 . S
C112 H84 0.929 . S
C112 C115 1.391 . S
C112 C117 1.391 . S
C113 H85 0.929 . S
C113 C114 1.390 . S
C113 N116 1.391 . S
C114 H86 0.930 . S
C114 C113 1.390 . S
C114 C115 1.392 . S
C115 H87 0.929 . S
C115 C112 1.391 . S
C115 C114 1.392 . S
N116 Co60 2.257 . S
N116 C113 1.391 . S
N116 C117 1.388 . S
C117 H88 0.930 . S
C117 C112 1.391 . S
C117 N116 1.388 . S
Co118 O120 2.143 . S
Co118 O126 2.074 . S
Co118 O129 2.093 . S
Co118 O142 2.097 . S
Co118 N159 2.151 . S
Co118 N167 2.214 . S
Co119 O120 2.160 . S
Co119 O125 2.058 . S
Co119 O135 2.057 . S
Co119 O150 2.037 . S
Co119 N154 2.145 . S
Co119 N175 2.257 . S
O120 Co118 2.143 . S
O120 Co119 2.160 . S
C121 O122 1.278 . S
C121 O129 1.224 . S
O122 C121 1.278 . S
C123 O124 1.245 . S
C123 O135 1.232 . S
O124 C123 1.245 . S
O125 Co119 2.058 . S
O125 C151 1.269 . S
O126 Co118 2.074 . S
O126 C151 1.257 . S
H127 C152 0.930 . S
H128 C158 0.930 . S
O129 Co118 2.093 . S
O129 C121 1.224 . S
H130 C162 0.929 . S
H131 C164 0.930 . S
H132 C165 0.930 . S
H133 C163 0.929 . S
H134 C166 0.928 . S
O135 Co119 2.057 . S
O135 C123 1.232 . S
H136 C155 0.929 . S
H137 C156 0.929 . S
H138 C168 0.931 . S
H139 C160 0.929 . S
H140 C169 0.930 . S
H141 C161 0.931 . S
O142 Co118 2.097 . S
O142 C170 1.214 . S
H143 C171 0.929 . S
H144 C172 0.929 . S
H145 C173 0.930 . S
H146 C174 0.929 . S
H147 C176 0.930 . S
H148 C153 0.930 1_545 S
H149 C157 0.930 1_545 S
O150 Co119 2.037 . S
O150 C170 1.234 . S
C151 O125 1.269 . S
C151 O126 1.257 . S
C152 H127 0.930 . S
C152 C155 1.388 . S
C152 C157 1.418 . S
C153 H148 0.930 1_565 S
C153 C156 1.404 . S
C153 C157 1.353 . S
N154 Co119 2.145 . S
N154 C155 1.397 . S
N154 C156 1.334 . S
C155 H136 0.929 . S
C155 C152 1.388 . S
C155 N154 1.397 . S
C156 H137 0.929 . S
C156 C153 1.404 . S
C156 N154 1.334 . S
C157 H149 0.930 1_565 S
C157 C152 1.418 . S
C157 C153 1.353 . S
C158 H128 0.930 . S
C158 N159 1.330 . S
C158 C160 1.446 . S
N159 Co118 2.151 . S
N159 C158 1.330 . S
N159 C163 1.418 . S
C160 H139 0.929 . S
C160 C158 1.446 . S
C160 C161 1.332 . S
C161 H141 0.931 . S
C161 C160 1.332 . S
C161 C162 1.267 . S
C162 H130 0.929 . S
C162 C161 1.267 . S
C162 C163 1.251 . S
C163 H133 0.929 . S
C163 N159 1.418 . S
C163 C162 1.251 . S
C164 H131 0.930 . S
C164 C166 1.406 . S
C164 C169 1.261 . S
C165 H132 0.930 . S
C165 N167 1.325 . S
C165 C168 1.357 . S
C166 H134 0.928 . S
C166 C164 1.406 . S
C166 N167 1.261 . S
N167 Co118 2.214 . S
N167 C165 1.325 . S
N167 C166 1.261 . S
C168 H138 0.931 . S
C168 C165 1.357 . S
C168 C169 1.312 . S
C169 H140 0.930 . S
C169 C164 1.261 . S
C169 C168 1.312 . S
C170 O142 1.214 . S
C170 O150 1.234 . S
C171 H143 0.929 . S
C171 C174 1.391 . S
C171 C176 1.391 . S
C172 H144 0.929 . S
C172 C173 1.390 . S
C172 N175 1.391 . S
C173 H145 0.930 . S
C173 C172 1.390 . S
C173 C174 1.392 . S
C174 H146 0.929 . S
C174 C171 1.391 . S
C174 C173 1.392 . S
N175 Co119 2.257 . S
N175 C172 1.391 . S
N175 C176 1.388 . S
C176 H147 0.930 . S
C176 C171 1.391 . S
C176 N175 1.388 . S
Co177 O179 2.143 . S
Co177 O185 2.074 . S
Co177 O188 2.093 . S
Co177 O201 2.097 . S
Co177 N218 2.151 . S
Co177 N226 2.214 . S
Co178 O179 2.160 . S
Co178 O184 2.058 . S
Co178 O194 2.057 . S
Co178 O209 2.037 . S
Co178 N213 2.145 . S
Co178 N234 2.257 . S
O179 Co177 2.143 . S
O179 Co178 2.160 . S
C180 O181 1.278 . S
C180 O188 1.224 . S
O181 C180 1.278 . S
C182 O183 1.245 . S
C182 O194 1.232 . S
O183 C182 1.245 . S
O184 Co178 2.058 . S
O184 C210 1.269 . S
O185 Co177 2.074 . S
O185 C210 1.257 . S
H186 C211 0.930 . S
H187 C217 0.930 . S
O188 Co177 2.093 . S
O188 C180 1.224 . S
H189 C221 0.929 . S
H190 C223 0.930 . S
H191 C224 0.930 . S
H192 C222 0.929 . S
H193 C225 0.928 . S
O194 Co178 2.057 . S
O194 C182 1.232 . S
H195 C214 0.929 . S
H196 C215 0.929 . S
H197 C227 0.931 . S
H198 C219 0.929 . S
H199 C228 0.930 . S
H200 C220 0.931 . S
O201 Co177 2.097 . S
O201 C229 1.214 . S
H202 C230 0.929 . S
H203 C231 0.929 . S
H204 C232 0.930 . S
H205 C233 0.929 . S
H206 C235 0.930 . S
H207 C212 0.930 1_565 S
H208 C216 0.930 1_565 S
O209 Co178 2.037 . S
O209 C229 1.234 . S
C210 O184 1.269 . S
C210 O185 1.257 . S
C211 H186 0.930 . S
C211 C214 1.388 . S
C211 C216 1.418 . S
C212 H207 0.930 1_545 S
C212 C215 1.404 . S
C212 C216 1.353 . S
N213 Co178 2.145 . S
N213 C214 1.397 . S
N213 C215 1.334 . S
C214 H195 0.929 . S
C214 C211 1.388 . S
C214 N213 1.397 . S
C215 H196 0.929 . S
C215 C212 1.404 . S
C215 N213 1.334 . S
C216 H208 0.930 1_545 S
C216 C211 1.418 . S
C216 C212 1.353 . S
C217 H187 0.930 . S
C217 N218 1.330 . S
C217 C219 1.446 . S
N218 Co177 2.151 . S
N218 C217 1.330 . S
N218 C222 1.418 . S
C219 H198 0.929 . S
C219 C217 1.446 . S
C219 C220 1.332 . S
C220 H200 0.931 . S
C220 C219 1.332 . S
C220 C221 1.267 . S
C221 H189 0.929 . S
C221 C220 1.267 . S
C221 C222 1.251 . S
C222 H192 0.929 . S
C222 N218 1.418 . S
C222 C221 1.251 . S
C223 H190 0.930 . S
C223 C225 1.406 . S
C223 C228 1.261 . S
C224 H191 0.930 . S
C224 N226 1.325 . S
C224 C227 1.357 . S
C225 H193 0.928 . S
C225 C223 1.406 . S
C225 N226 1.261 . S
N226 Co177 2.214 . S
N226 C224 1.325 . S
N226 C225 1.261 . S
C227 H197 0.931 . S
C227 C224 1.357 . S
C227 C228 1.312 . S
C228 H199 0.930 . S
C228 C223 1.261 . S
C228 C227 1.312 . S
C229 O201 1.214 . S
C229 O209 1.234 . S
C230 H202 0.929 . S
C230 C233 1.391 . S
C230 C235 1.391 . S
C231 H203 0.929 . S
C231 C232 1.390 . S
C231 N234 1.391 . S
C232 H204 0.930 . S
C232 C231 1.390 . S
C232 C233 1.392 . S
C233 H205 0.929 . S
C233 C230 1.391 . S
C233 C232 1.392 . S
N234 Co178 2.257 . S
N234 C231 1.391 . S
N234 C235 1.388 . S
C235 H206 0.930 . S
C235 C230 1.391 . S
C235 N234 1.388 . S
Co236 O238 2.143 . S
Co236 O244 2.074 1_554 S
Co236 O247 2.093 . S
Co236 O260 2.097 . S
Co236 N277 2.151 . S
Co236 N285 2.214 1_565 S
Co237 O238 2.160 . S
Co237 O243 2.058 1_554 S
Co237 O253 2.057 . S
Co237 O268 2.037 . S
Co237 N272 2.145 1_554 S
Co237 N293 2.257 . S
O238 Co236 2.143 . S
O238 Co237 2.160 . S
C239 O240 1.278 . S
C239 O247 1.224 . S
O240 C239 1.278 . S
C241 O242 1.245 . S
C241 O253 1.232 . S
O242 C241 1.245 . S
O243 Co237 2.058 1_556 S
O243 C269 1.269 . S
O244 Co236 2.074 1_556 S
O244 C269 1.257 . S
H245 C270 0.930 . S
H246 C276 0.930 . S
O247 Co236 2.093 . S
O247 C239 1.224 . S
H248 C280 0.929 1_556 S
H249 C282 0.930 . S
H250 C283 0.930 1_565 S
H251 C281 0.916 1_556 S
H252 C284 0.928 . S
O253 Co237 2.057 . S
O253 C241 1.232 . S
H254 C273 0.929 . S
H255 C274 0.929 . S
H256 C286 0.931 1_556 S
H257 C278 0.929 . S
H258 C287 0.930 . S
H259 C279 0.931 . S
O260 Co236 2.097 . S
O260 C288 1.214 . S
H261 C289 0.929 . S
H262 C290 0.929 . S
H263 C291 0.930 . S
H264 C292 0.929 . S
H265 C294 0.930 . S
H266 C271 0.930 . S
H267 C275 0.930 . S
O268 Co237 2.037 . S
O268 C288 1.234 . S
C269 O243 1.269 . S
C269 O244 1.257 . S
C270 H245 0.930 . S
C270 C273 1.388 . S
C270 C275 1.418 . S
C271 H266 0.930 . S
C271 C274 1.404 . S
C271 C275 1.353 . S
N272 Co237 2.145 1_556 S
N272 C273 1.397 . S
N272 C274 1.334 . S
C273 H254 0.929 . S
C273 C270 1.388 . S
C273 N272 1.397 . S
C274 H255 0.929 . S
C274 C271 1.404 . S
C274 N272 1.334 . S
C275 H267 0.930 . S
C275 C270 1.418 . S
C275 C271 1.353 . S
C276 H246 0.930 . S
C276 N277 1.330 . S
C276 C278 1.446 1_565 S
N277 Co236 2.151 . S
N277 C276 1.330 . S
N277 C281 1.418 1_565 S
C278 H257 0.929 . S
C278 C276 1.446 1_545 S
C278 C279 1.332 . S
C279 H259 0.931 . S
C279 C278 1.332 . S
C279 C280 1.267 . S
C280 H248 0.929 1_554 S
C280 C279 1.267 . S
C280 C281 1.251 . S
C281 H251 0.916 1_554 S
C281 N277 1.418 1_545 S
C281 C280 1.251 . S
C282 H249 0.930 . S
C282 C284 1.406 . S
C282 C287 1.261 . S
C283 H250 0.930 1_545 S
C283 N285 1.325 . S
C283 C286 1.357 . S
C284 H252 0.928 . S
C284 C282 1.406 . S
C284 N285 1.261 . S
N285 Co236 2.214 1_545 S
N285 C283 1.325 . S
N285 C284 1.261 . S
C286 H256 0.931 1_554 S
C286 C283 1.357 . S
C286 C287 1.312 . S
C287 H258 0.930 . S
C287 C282 1.261 . S
C287 C286 1.312 . S
C288 O260 1.214 . S
C288 O268 1.234 . S
C289 H261 0.929 . S
C289 C292 1.391 . S
C289 C294 1.391 . S
C290 H262 0.929 . S
C290 C291 1.390 . S
C290 N293 1.391 . S
C291 H263 0.930 . S
C291 C290 1.390 . S
C291 C292 1.392 . S
C292 H264 0.929 . S
C292 C289 1.391 . S
C292 C291 1.392 . S
N293 Co237 2.257 . S
N293 C290 1.391 . S
N293 C294 1.388 . S
C294 H265 0.930 . S
C294 C289 1.391 . S
C294 N293 1.388 . S
Co295 O297 2.143 . S
Co295 O303 2.074 1_554 S
Co295 O306 2.093 . S
Co295 O319 2.097 . S
Co295 N336 2.151 . S
Co295 N344 2.214 1_545 S
Co296 O297 2.160 . S
Co296 O302 2.058 1_554 S
Co296 O312 2.057 . S
Co296 O327 2.037 . S
Co296 N331 2.145 1_554 S
Co296 N352 2.257 . S
O297 Co295 2.143 . S
O297 Co296 2.160 . S
C298 O299 1.278 . S
C298 O306 1.224 . S
O299 C298 1.278 . S
C300 O301 1.245 . S
C300 O312 1.232 . S
O301 C300 1.245 . S
O302 Co296 2.058 1_556 S
O302 C328 1.269 . S
O303 Co295 2.074 1_556 S
O303 C328 1.257 . S
H304 C329 0.930 . S
H305 C335 0.930 . S
O306 Co295 2.093 . S
O306 C298 1.224 . S
H307 C339 0.929 1_556 S
H308 C341 0.930 . S
H309 C342 0.930 1_545 S
H310 C340 0.916 1_556 S
H311 C343 0.928 . S
O312 Co296 2.057 . S
O312 C300 1.232 . S
H313 C332 0.929 . S
H314 C333 0.929 . S
H315 C345 0.931 1_556 S
H316 C337 0.929 . S
H317 C346 0.930 . S
H318 C338 0.931 . S
O319 Co295 2.097 . S
O319 C347 1.214 . S
H320 C348 0.929 . S
H321 C349 0.929 . S
H322 C350 0.930 . S
H323 C351 0.929 . S
H324 C353 0.930 . S
H325 C330 0.930 . S
H326 C334 0.930 . S
O327 Co296 2.037 . S
O327 C347 1.234 . S
C328 O302 1.269 . S
C328 O303 1.257 . S
C329 H304 0.930 . S
C329 C332 1.388 . S
C329 C334 1.418 . S
C330 H325 0.930 . S
C330 C333 1.404 . S
C330 C334 1.353 . S
N331 Co296 2.145 1_556 S
N331 C332 1.397 . S
N331 C333 1.334 . S
C332 H313 0.929 . S
C332 C329 1.388 . S
C332 N331 1.397 . S
C333 H314 0.929 . S
C333 C330 1.404 . S
C333 N331 1.334 . S
C334 H326 0.930 . S
C334 C329 1.418 . S
C334 C330 1.353 . S
C335 H305 0.930 . S
C335 N336 1.330 . S
C335 C337 1.446 1_545 S
N336 Co295 2.151 . S
N336 C335 1.330 . S
N336 C340 1.418 1_545 S
C337 H316 0.929 . S
C337 C335 1.446 1_565 S
C337 C338 1.332 . S
C338 H318 0.931 . S
C338 C337 1.332 . S
C338 C339 1.267 . S
C339 H307 0.929 1_554 S
C339 C338 1.267 . S
C339 C340 1.251 . S
C340 H310 0.916 1_554 S
C340 N336 1.418 1_565 S
C340 C339 1.251 . S
C341 H308 0.930 . S
C341 C343 1.406 . S
C341 C346 1.261 . S
C342 H309 0.930 1_565 S
C342 N344 1.325 . S
C342 C345 1.357 . S
C343 H311 0.928 . S
C343 C341 1.406 . S
C343 N344 1.261 . S
N344 Co295 2.214 1_565 S
N344 C342 1.325 . S
N344 C343 1.261 . S
C345 H315 0.931 1_554 S
C345 C342 1.357 . S
C345 C346 1.312 . S
C346 H317 0.930 . S
C346 C341 1.261 . S
C346 C345 1.312 . S
C347 O319 1.214 . S
C347 O327 1.234 . S
C348 H320 0.929 . S
C348 C351 1.391 . S
C348 C353 1.391 . S
C349 H321 0.929 . S
C349 C350 1.390 . S
C349 N352 1.391 . S
C350 H322 0.930 . S
C350 C349 1.390 . S
C350 C351 1.392 . S
C351 H323 0.929 . S
C351 C348 1.391 . S
C351 C350 1.392 . S
N352 Co296 2.257 . S
N352 C349 1.391 . S
N352 C353 1.388 . S
C353 H324 0.930 . S
C353 C348 1.391 . S
C353 N352 1.388 . S
Co354 O356 2.143 . S
Co354 O362 2.074 . S
Co354 O365 2.093 . S
Co354 O378 2.097 . S
Co354 N395 2.151 . S
Co354 N403 2.214 1_545 S
Co355 O356 2.160 . S
Co355 O361 2.058 . S
Co355 O371 2.057 . S
Co355 O386 2.037 . S
Co355 N390 2.145 . S
Co355 N411 2.257 . S
O356 Co354 2.143 . S
O356 Co355 2.160 . S
C357 O358 1.278 . S
C357 O365 1.224 . S
O358 C357 1.278 . S
C359 O360 1.245 . S
C359 O371 1.232 . S
O360 C359 1.245 . S
O361 Co355 2.058 . S
O361 C387 1.269 . S
O362 Co354 2.074 . S
O362 C387 1.257 . S
H363 C388 0.930 . S
H364 C394 0.930 . S
O365 Co354 2.093 . S
O365 C357 1.224 . S
H366 C398 0.929 . S
H367 C400 0.930 . S
H368 C401 0.930 1_545 S
H369 C399 0.929 . S
H370 C402 0.928 . S
O371 Co355 2.057 . S
O371 C359 1.232 . S
H372 C391 0.929 . S
H373 C392 0.929 . S
H374 C404 0.931 . S
H375 C396 0.929 . S
H376 C405 0.930 . S
H377 C397 0.931 . S
O378 Co354 2.097 . S
O378 C406 1.214 . S
H379 C407 0.929 . S
H380 C408 0.929 . S
H381 C409 0.930 . S
H382 C410 0.929 . S
H383 C412 0.930 . S
H384 C389 0.930 . S
H385 C393 0.930 . S
O386 Co355 2.037 . S
O386 C406 1.234 . S
C387 O361 1.269 . S
C387 O362 1.257 . S
C388 H363 0.930 . S
C388 C391 1.388 . S
C388 C393 1.418 . S
C389 H384 0.930 . S
C389 C392 1.404 . S
C389 C393 1.353 . S
N390 Co355 2.145 . S
N390 C391 1.397 . S
N390 C392 1.334 . S
C391 H372 0.929 . S
C391 C388 1.388 . S
C391 N390 1.397 . S
C392 H373 0.929 . S
C392 C389 1.404 . S
C392 N390 1.334 . S
C393 H385 0.930 . S
C393 C388 1.418 . S
C393 C389 1.353 . S
C394 H364 0.930 . S
C394 N395 1.330 . S
C394 C396 1.446 1_545 S
N395 Co354 2.151 . S
N395 C394 1.330 . S
N395 C399 1.418 1_545 S
C396 H375 0.929 . S
C396 C394 1.446 1_565 S
C396 C397 1.332 . S
C397 H377 0.931 . S
C397 C396 1.332 . S
C397 C398 1.267 . S
C398 H366 0.929 . S
C398 C397 1.267 . S
C398 C399 1.251 . S
C399 H369 0.929 . S
C399 N395 1.418 1_565 S
C399 C398 1.251 . S
C400 H367 0.930 . S
C400 C402 1.406 . S
C400 C405 1.261 . S
C401 H368 0.930 1_565 S
C401 N403 1.325 . S
C401 C404 1.357 . S
C402 H370 0.928 . S
C402 C400 1.406 . S
C402 N403 1.261 . S
N403 Co354 2.214 1_565 S
N403 C401 1.325 . S
N403 C402 1.261 . S
C404 H374 0.931 . S
C404 C401 1.357 . S
C404 C405 1.312 . S
C405 H376 0.930 . S
C405 C400 1.261 . S
C405 C404 1.312 . S
C406 O378 1.214 . S
C406 O386 1.234 . S
C407 H379 0.929 . S
C407 C410 1.391 . S
C407 C412 1.391 . S
C408 H380 0.929 . S
C408 C409 1.390 . S
C408 N411 1.391 . S
C409 H381 0.930 . S
C409 C408 1.390 . S
C409 C410 1.392 . S
C410 H382 0.929 . S
C410 C407 1.391 . S
C410 C409 1.392 . S
N411 Co355 2.257 . S
N411 C408 1.391 . S
N411 C412 1.388 . S
C412 H383 0.930 . S
C412 C407 1.391 . S
C412 N411 1.388 . S
Co413 O415 2.143 . S
Co413 O421 2.074 . S
Co413 O424 2.093 . S
Co413 O437 2.097 . S
Co413 N454 2.151 . S
Co413 N462 2.214 1_565 S
Co414 O415 2.160 . S
Co414 O420 2.058 . S
Co414 O430 2.057 . S
Co414 O445 2.037 . S
Co414 N449 2.145 . S
Co414 N470 2.257 . S
O415 Co413 2.143 . S
O415 Co414 2.160 . S
C416 O417 1.278 . S
C416 O424 1.224 . S
O417 C416 1.278 . S
C418 O419 1.245 . S
C418 O430 1.232 . S
O419 C418 1.245 . S
O420 Co414 2.058 . S
O420 C446 1.269 . S
O421 Co413 2.074 . S
O421 C446 1.257 . S
H422 C447 0.930 . S
H423 C453 0.930 . S
O424 Co413 2.093 . S
O424 C416 1.224 . S
H425 C457 0.929 . S
H426 C459 0.930 . S
H427 C460 0.930 1_565 S
H428 C458 0.929 . S
H429 C461 0.928 . S
O430 Co414 2.057 . S
O430 C418 1.232 . S
H431 C450 0.929 . S
H432 C451 0.929 . S
H433 C463 0.931 . S
H434 C455 0.929 . S
H435 C464 0.930 . S
H436 C456 0.931 . S
O437 Co413 2.097 . S
O437 C465 1.214 . S
H438 C466 0.929 . S
H439 C467 0.929 . S
H440 C468 0.930 . S
H441 C469 0.929 . S
H442 C471 0.930 . S
H443 C448 0.930 . S
H444 C452 0.930 . S
O445 Co414 2.037 . S
O445 C465 1.234 . S
C446 O420 1.269 . S
C446 O421 1.257 . S
C447 H422 0.930 . S
C447 C450 1.388 . S
C447 C452 1.418 . S
C448 H443 0.930 . S
C448 C451 1.404 . S
C448 C452 1.353 . S
N449 Co414 2.145 . S
N449 C450 1.397 . S
N449 C451 1.334 . S
C450 H431 0.929 . S
C450 C447 1.388 . S
C450 N449 1.397 . S
C451 H432 0.929 . S
C451 C448 1.404 . S
C451 N449 1.334 . S
C452 H444 0.930 . S
C452 C447 1.418 . S
C452 C448 1.353 . S
C453 H423 0.930 . S
C453 N454 1.330 . S
C453 C455 1.446 1_565 S
N454 Co413 2.151 . S
N454 C453 1.330 . S
N454 C458 1.418 1_565 S
C455 H434 0.929 . S
C455 C453 1.446 1_545 S
C455 C456 1.332 . S
C456 H436 0.931 . S
C456 C455 1.332 . S
C456 C457 1.267 . S
C457 H425 0.929 . S
C457 C456 1.267 . S
C457 C458 1.251 . S
C458 H428 0.929 . S
C458 N454 1.418 1_545 S
C458 C457 1.251 . S
C459 H426 0.930 . S
C459 C461 1.406 . S
C459 C464 1.261 . S
C460 H427 0.930 1_545 S
C460 N462 1.325 . S
C460 C463 1.357 . S
C461 H429 0.928 . S
C461 C459 1.406 . S
C461 N462 1.261 . S
N462 Co413 2.214 1_545 S
N462 C460 1.325 . S
N462 C461 1.261 . S
C463 H433 0.931 . S
C463 C460 1.357 . S
C463 C464 1.312 . S
C464 H435 0.930 . S
C464 C459 1.261 . S
C464 C463 1.312 . S
C465 O437 1.214 . S
C465 O445 1.234 . S
C466 H438 0.929 . S
C466 C469 1.391 . S
C466 C471 1.391 . S
C467 H439 0.929 . S
C467 C468 1.390 . S
C467 N470 1.391 . S
C468 H440 0.930 . S
C468 C467 1.390 . S
C468 C469 1.392 . S
C469 H441 0.929 . S
C469 C466 1.391 . S
C469 C468 1.392 . S
N470 Co414 2.257 . S
N470 C467 1.391 . S
N470 C471 1.388 . S
C471 H442 0.930 . S
C471 C466 1.391 . S
C471 N470 1.388 . S
C472 C473 1.342 1_556 S
C472 C474 1.327 . S
C472 H497 0.956 . S
C473 C472 1.342 1_554 S
C473 C489 1.349 . S
C474 C472 1.327 . S
C474 C493 1.405 1_556 S
C474 H498 0.974 . S
C475 C492 1.574 . S
C475 C494 1.368 . S
C475 H499 0.949 . S
H476 C480 0.949 . S
C477 C478 1.349 . S
C477 C479 1.327 . S
C477 H500 0.950 . S
C478 C477 1.349 . S
C478 C490 1.342 1_554 S
C479 C477 1.327 . S
C479 C495 1.429 . S
C479 H501 0.950 . S
C480 H476 0.949 . S
C480 C488 1.574 . S
C480 C496 1.368 1_556 S
H481 C489 0.950 . S
H482 C487 0.950 . S
H483 C488 0.949 . S
H484 C490 0.956 . S
H485 C491 0.974 . S
H486 C492 0.949 . S
C487 H482 0.950 . S
C487 C489 1.327 . S
C487 C493 1.429 . S
C488 C480 1.574 . S
C488 H483 0.949 . S
C488 C494 1.368 1_556 S
C489 C473 1.349 . S
C489 H481 0.950 . S
C489 C487 1.327 . S
C490 C478 1.342 1_556 S
C490 H484 0.956 . S
C490 C491 1.327 . S
C491 H485 0.974 . S
C491 C490 1.327 . S
C491 C495 1.405 1_556 S
C492 C475 1.574 . S
C492 H486 0.949 . S
C492 C496 1.368 . S
C493 C474 1.405 1_554 S
C493 C487 1.429 . S
C493 C494 1.523 . S
C494 C475 1.368 . S
C494 C488 1.368 1_554 S
C494 C493 1.523 . S
C495 C479 1.429 . S
C495 C491 1.405 1_554 S
C495 C496 1.523 . S
C496 C480 1.368 1_554 S
C496 C492 1.368 . S
C496 C495 1.523 . S
H497 C472 0.956 . S
H498 C474 0.974 . S
H499 C475 0.949 . S
H500 C477 0.950 . S
H501 C479 0.950 . S
C502 C503 1.349 . S
C502 C504 1.327 . S
C502 H527 0.950 . S
C503 C502 1.349 . S
C503 C519 1.342 1_554 S
C504 C502 1.327 . S
C504 C523 1.429 . S
C504 H528 0.950 . S
C505 C522 1.574 . S
C505 C524 1.368 1_556 S
C505 H529 0.949 . S
H506 C510 0.949 . S
C507 C508 1.342 1_556 S
C507 C509 1.327 . S
C507 H530 0.956 . S
C508 C507 1.342 1_554 S
C508 C520 1.349 . S
C509 C507 1.327 . S
C509 C525 1.405 1_556 S
C509 H531 0.974 . S
C510 H506 0.949 . S
C510 C518 1.574 . S
C510 C526 1.368 . S
H511 C519 0.956 . S
H512 C517 0.974 . S
H513 C518 0.949 . S
H514 C520 0.950 . S
H515 C521 0.950 . S
H516 C522 0.949 . S
C517 H512 0.974 . S
C517 C519 1.327 . S
C517 C523 1.405 1_556 S
C518 C510 1.574 . S
C518 H513 0.949 . S
C518 C524 1.368 . S
C519 C503 1.342 1_556 S
C519 H511 0.956 . S
C519 C517 1.327 . S
C520 C508 1.349 . S
C520 H514 0.950 . S
C520 C521 1.327 . S
C521 H515 0.950 . S
C521 C520 1.327 . S
C521 C525 1.429 . S
C522 C505 1.574 . S
C522 H516 0.949 . S
C522 C526 1.368 1_556 S
C523 C504 1.429 . S
C523 C517 1.405 1_554 S
C523 C524 1.523 . S
C524 C505 1.368 1_554 S
C524 C518 1.368 . S
C524 C523 1.523 . S
C525 C509 1.405 1_554 S
C525 C521 1.429 . S
C525 C526 1.523 . S
C526 C510 1.368 . S
C526 C522 1.368 1_554 S
C526 C525 1.523 . S
H527 C502 0.950 . S
H528 C504 0.950 . S
H529 C505 0.949 . S
H530 C507 0.956 . S
H531 C509 0.974 . S
C532 C533 1.349 . S
C532 C534 1.327 . S
C532 H557 0.950 . S
C533 C532 1.349 . S
C533 C549 1.349 . S
C534 C532 1.327 . S
C534 C553 1.429 . S
C534 H558 0.950 . S
C535 C552 1.574 . S
C535 C554 1.368 . S
C535 H559 0.949 . S
H536 C540 0.949 . S
C537 C538 1.349 . S
C537 C539 1.327 . S
C537 H560 0.950 . S
C538 C537 1.349 . S
C538 C550 1.349 . S
C539 C537 1.327 . S
C539 C555 1.429 . S
C539 H561 0.950 . S
C540 H536 0.949 . S
C540 C548 1.574 . S
C540 C556 1.368 . S
H541 C549 0.950 . S
H542 C547 0.950 . S
H543 C548 0.949 . S
H544 C550 0.950 . S
H545 C551 0.950 . S
H546 C552 0.949 . S
C547 H542 0.950 . S
C547 C549 1.327 . S
C547 C553 1.429 . S
C548 C540 1.574 . S
C548 H543 0.949 . S
C548 C554 1.368 . S
C549 C533 1.349 . S
C549 H541 0.950 . S
C549 C547 1.327 . S
C550 C538 1.349 . S
C550 H544 0.950 . S
C550 C551 1.327 . S
C551 H545 0.950 . S
C551 C550 1.327 . S
C551 C555 1.429 . S
C552 C535 1.574 . S
C552 H546 0.949 . S
C552 C556 1.368 . S
C553 C534 1.429 . S
C553 C547 1.429 . S
C553 C554 1.523 . S
C554 C535 1.368 . S
C554 C548 1.368 . S
C554 C553 1.523 . S
C555 C539 1.429 . S
C555 C551 1.429 . S
C555 C556 1.523 . S
C556 C540 1.368 . S
C556 C552 1.368 . S
C556 C555 1.523 . S
H557 C532 0.950 . S
H558 C534 0.950 . S
H559 C535 0.949 . S
H560 C537 0.950 . S
H561 C539 0.950 . S
C562 C563 1.349 . S
C562 C564 1.327 . S
C562 H587 0.950 . S
C563 C562 1.349 . S
C563 C579 1.349 . S
C564 C562 1.327 . S
C564 C583 1.429 . S
C564 H588 0.950 . S
C565 C582 1.574 . S
C565 C584 1.368 . S
C565 H589 0.949 . S
H566 C570 0.949 . S
C567 C568 1.349 . S
C567 C569 1.327 . S
C567 H590 0.950 . S
C568 C567 1.349 . S
C568 C580 1.349 . S
C569 C567 1.327 . S
C569 C585 1.429 . S
C569 H591 0.950 . S
C570 H566 0.949 . S
C570 C578 1.574 . S
C570 C586 1.368 . S
H571 C579 0.950 . S
H572 C577 0.950 . S
H573 C578 0.949 . S
H574 C580 0.950 . S
H575 C581 0.950 . S
H576 C582 0.949 . S
C577 H572 0.950 . S
C577 C579 1.327 . S
C577 C583 1.429 . S
C578 C570 1.574 . S
C578 H573 0.949 . S
C578 C584 1.368 . S
C579 C563 1.349 . S
C579 H571 0.950 . S
C579 C577 1.327 . S
C580 C568 1.349 . S
C580 H574 0.950 . S
C580 C581 1.327 . S
C581 H575 0.950 . S
C581 C580 1.327 . S
C581 C585 1.429 . S
C582 C565 1.574 . S
C582 H576 0.949 . S
C582 C586 1.368 . S
C583 C564 1.429 . S
C583 C577 1.429 . S
C583 C584 1.523 . S
C584 C565 1.368 . S
C584 C578 1.368 . S
C584 C583 1.523 . S
C585 C569 1.429 . S
C585 C581 1.429 . S
C585 C586 1.523 . S
C586 C570 1.368 . S
C586 C582 1.368 . S
C586 C585 1.523 . S
H587 C562 0.950 . S
H588 C564 0.950 . S
H589 C565 0.949 . S
H590 C567 0.950 . S
H591 C569 0.950 . S
C592 C593 1.349 . S
C592 C594 1.327 . S
C592 H617 0.950 . S
C593 C592 1.349 . S
C593 C609 1.349 . S
C594 C592 1.327 . S
C594 C613 1.429 . S
C594 H618 0.950 . S
C595 C612 1.574 . S
C595 C614 1.368 . S
C595 H619 0.949 . S
H596 C600 0.949 . S
C597 C598 1.349 . S
C597 C599 1.327 . S
C597 H620 0.950 . S
C598 C597 1.349 . S
C598 C610 1.349 . S
C599 C597 1.327 . S
C599 C615 1.429 . S
C599 H621 0.950 . S
C600 H596 0.949 . S
C600 C608 1.574 . S
C600 C616 1.368 . S
H601 C609 0.950 . S
H602 C607 0.950 . S
H603 C608 0.949 . S
H604 C610 0.950 . S
H605 C611 0.950 . S
H606 C612 0.949 . S
C607 H602 0.950 . S
C607 C609 1.327 . S
C607 C613 1.429 . S
C608 C600 1.574 . S
C608 H603 0.949 . S
C608 C614 1.368 . S
C609 C593 1.349 . S
C609 H601 0.950 . S
C609 C607 1.327 . S
C610 C598 1.349 . S
C610 H604 0.950 . S
C610 C611 1.327 . S
C611 H605 0.950 . S
C611 C610 1.327 . S
C611 C615 1.429 . S
C612 C595 1.574 . S
C612 H606 0.949 . S
C612 C616 1.368 . S
C613 C594 1.429 . S
C613 C607 1.429 . S
C613 C614 1.523 . S
C614 C595 1.368 . S
C614 C608 1.368 . S
C614 C613 1.523 . S
C615 C599 1.429 . S
C615 C611 1.429 . S
C615 C616 1.523 . S
C616 C600 1.368 . S
C616 C612 1.368 . S
C616 C615 1.523 . S
H617 C592 0.950 . S
H618 C594 0.950 . S
H619 C595 0.949 . S
H620 C597 0.950 . S
H621 C599 0.950 . S
C622 C623 1.349 . S
C622 C624 1.327 . S
C622 H647 0.950 . S
C623 C622 1.349 . S
C623 C639 1.349 . S
C624 C622 1.327 . S
C624 C643 1.429 . S
C624 H648 0.950 . S
C625 C642 1.574 . S
C625 C644 1.368 . S
C625 H649 0.949 . S
H626 C630 0.949 . S
C627 C628 1.349 . S
C627 C629 1.327 . S
C627 H650 0.950 . S
C628 C627 1.349 . S
C628 C640 1.349 . S
C629 C627 1.327 . S
C629 C645 1.429 . S
C629 H651 0.950 . S
C630 H626 0.949 . S
C630 C638 1.574 . S
C630 C646 1.368 . S
H631 C639 0.950 . S
H632 C637 0.950 . S
H633 C638 0.949 . S
H634 C640 0.950 . S
H635 C641 0.950 . S
H636 C642 0.949 . S
C637 H632 0.950 . S
C637 C639 1.327 . S
C637 C643 1.429 . S
C638 C630 1.574 . S
C638 H633 0.949 . S
C638 C644 1.368 . S
C639 C623 1.349 . S
C639 H631 0.950 . S
C639 C637 1.327 . S
C640 C628 1.349 . S
C640 H634 0.950 . S
C640 C641 1.327 . S
C641 H635 0.950 . S
C641 C640 1.327 . S
C641 C645 1.429 . S
C642 C625 1.574 . S
C642 H636 0.949 . S
C642 C646 1.368 . S
C643 C624 1.429 . S
C643 C637 1.429 . S
C643 C644 1.523 . S
C644 C625 1.368 . S
C644 C638 1.368 . S
C644 C643 1.523 . S
C645 C629 1.429 . S
C645 C641 1.429 . S
C645 C646 1.523 . S
C646 C630 1.368 . S
C646 C642 1.368 . S
C646 C645 1.523 . S
H647 C622 0.950 . S
H648 C624 0.950 . S
H649 C625 0.949 . S
H650 C627 0.950 . S
H651 C629 0.950 . S
C652 C653 1.349 . S
C652 C654 1.327 . S
C652 H677 0.950 . S
C653 C652 1.349 . S
C653 C669 1.349 . S
C654 C652 1.327 . S
C654 C673 1.429 . S
C654 H678 0.950 . S
C655 C672 1.574 . S
C655 C674 1.368 . S
C655 H679 0.949 . S
H656 C660 0.949 . S
C657 C658 1.349 . S
C657 C659 1.327 . S
C657 H680 0.950 . S
C658 C657 1.349 . S
C658 C670 1.349 . S
C659 C657 1.327 . S
C659 C675 1.429 . S
C659 H681 0.950 . S
C660 H656 0.949 . S
C660 C668 1.574 . S
C660 C676 1.368 . S
H661 C669 0.950 . S
H662 C667 0.950 . S
H663 C668 0.949 . S
H664 C670 0.950 . S
H665 C671 0.950 . S
H666 C672 0.949 . S
C667 H662 0.950 . S
C667 C669 1.327 . S
C667 C673 1.429 . S
C668 C660 1.574 . S
C668 H663 0.949 . S
C668 C674 1.368 . S
C669 C653 1.349 . S
C669 H661 0.950 . S
C669 C667 1.327 . S
C670 C658 1.349 . S
C670 H664 0.950 . S
C670 C671 1.327 . S
C671 H665 0.950 . S
C671 C670 1.327 . S
C671 C675 1.429 . S
C672 C655 1.574 . S
C672 H666 0.949 . S
C672 C676 1.368 . S
C673 C654 1.429 . S
C673 C667 1.429 . S
C673 C674 1.523 . S
C674 C655 1.368 . S
C674 C668 1.368 . S
C674 C673 1.523 . S
C675 C659 1.429 . S
C675 C671 1.429 . S
C675 C676 1.523 . S
C676 C660 1.368 . S
C676 C672 1.368 . S
C676 C675 1.523 . S
H677 C652 0.950 . S
H678 C654 0.950 . S
H679 C655 0.949 . S
H680 C657 0.950 . S
H681 C659 0.950 . S
C682 C683 1.349 . S
C682 C684 1.327 . S
C682 H707 0.950 . S
C683 C682 1.349 . S
C683 C699 1.349 . S
C684 C682 1.327 . S
C684 C703 1.429 . S
C684 H708 0.950 . S
C685 C702 1.574 . S
C685 C704 1.368 . S
C685 H709 0.949 . S
H686 C690 0.949 . S
C687 C688 1.349 . S
C687 C689 1.327 . S
C687 H710 0.950 . S
C688 C687 1.349 . S
C688 C700 1.349 . S
C689 C687 1.327 . S
C689 C705 1.429 . S
C689 H711 0.950 . S
C690 H686 0.949 . S
C690 C698 1.574 . S
C690 C706 1.368 . S
H691 C699 0.950 . S
H692 C697 0.950 . S
H693 C698 0.949 . S
H694 C700 0.950 . S
H695 C701 0.950 . S
H696 C702 0.949 . S
C697 H692 0.950 . S
C697 C699 1.327 . S
C697 C703 1.429 . S
C698 C690 1.574 . S
C698 H693 0.949 . S
C698 C704 1.368 . S
C699 C683 1.349 . S
C699 H691 0.950 . S
C699 C697 1.327 . S
C700 C688 1.349 . S
C700 H694 0.950 . S
C700 C701 1.327 . S
C701 H695 0.950 . S
C701 C700 1.327 . S
C701 C705 1.429 . S
C702 C685 1.574 . S
C702 H696 0.949 . S
C702 C706 1.368 . S
C703 C684 1.429 . S
C703 C697 1.429 . S
C703 C704 1.523 . S
C704 C685 1.368 . S
C704 C698 1.368 . S
C704 C703 1.523 . S
C705 C689 1.429 . S
C705 C701 1.429 . S
C705 C706 1.523 . S
C706 C690 1.368 . S
C706 C702 1.368 . S
C706 C705 1.523 . S
H707 C682 0.950 . S
H708 C684 0.950 . S
H709 C685 0.949 . S
H710 C687 0.950 . S
H711 C689 0.950 . S
C712 C713 1.349 . S
C712 C714 1.327 . S
C712 H737 0.950 . S
C713 C712 1.349 . S
C713 C729 1.349 . S
C714 C712 1.327 . S
C714 C733 1.429 . S
C714 H738 0.950 1_565 S
C715 C732 1.574 . S
C715 C734 1.368 . S
C715 H739 0.949 . S
H716 C720 0.949 . S
C717 C718 1.349 . S
C717 C719 1.327 . S
C717 H740 0.950 . S
C718 C717 1.349 . S
C718 C730 1.349 . S
C719 C717 1.327 . S
C719 C735 1.429 . S
C719 H741 0.950 1_545 S
C720 H716 0.949 . S
C720 C728 1.574 . S
C720 C736 1.368 . S
H721 C729 0.950 . S
H722 C727 0.950 . S
H723 C728 0.949 . S
H724 C730 0.950 . S
H725 C731 0.950 . S
H726 C732 0.949 . S
C727 H722 0.950 . S
C727 C729 1.327 . S
C727 C733 1.429 . S
C728 C720 1.574 . S
C728 H723 0.949 . S
C728 C734 1.368 1_545 S
C729 C713 1.349 . S
C729 H721 0.950 . S
C729 C727 1.327 . S
C730 C718 1.349 . S
C730 H724 0.950 . S
C730 C731 1.327 . S
C731 H725 0.950 . S
C731 C730 1.327 . S
C731 C735 1.429 . S
C732 C715 1.574 . S
C732 H726 0.949 . S
C732 C736 1.368 1_565 S
C733 C714 1.429 . S
C733 C727 1.429 . S
C733 C734 1.523 . S
C734 C715 1.368 . S
C734 C728 1.368 1_565 S
C734 C733 1.523 . S
C735 C719 1.429 . S
C735 C731 1.429 . S
C735 C736 1.523 . S
C736 C720 1.368 . S
C736 C732 1.368 1_545 S
C736 C735 1.523 . S
H737 C712 0.950 . S
H738 C714 0.950 1_545 S
H739 C715 0.949 . S
H740 C717 0.950 . S
H741 C719 0.950 1_565 S
C742 C743 1.349 . S
C742 C744 1.327 . S
C742 H767 0.950 . S
C743 C742 1.349 . S
C743 C759 1.349 . S
C744 C742 1.327 . S
C744 C763 1.429 . S
C744 H768 0.950 1_565 S
C745 C762 1.574 . S
C745 C764 1.368 . S
C745 H769 0.949 . S
H746 C750 0.949 . S
C747 C748 1.349 . S
C747 C749 1.327 . S
C747 H770 0.950 . S
C748 C747 1.349 . S
C748 C760 1.349 . S
C749 C747 1.327 . S
C749 C765 1.429 . S
C749 H771 0.950 1_545 S
C750 H746 0.949 . S
C750 C758 1.574 . S
C750 C766 1.368 . S
H751 C759 0.950 . S
H752 C757 0.950 . S
H753 C758 0.949 . S
H754 C760 0.950 . S
H755 C761 0.950 . S
H756 C762 0.949 . S
C757 H752 0.950 . S
C757 C759 1.327 . S
C757 C763 1.429 . S
C758 C750 1.574 . S
C758 H753 0.949 . S
C758 C764 1.368 1_545 S
C759 C743 1.349 . S
C759 H751 0.950 . S
C759 C757 1.327 . S
C760 C748 1.349 . S
C760 H754 0.950 . S
C760 C761 1.327 . S
C761 H755 0.950 . S
C761 C760 1.327 . S
C761 C765 1.429 . S
C762 C745 1.574 . S
C762 H756 0.949 . S
C762 C766 1.368 1_565 S
C763 C744 1.429 . S
C763 C757 1.429 . S
C763 C764 1.523 . S
C764 C745 1.368 . S
C764 C758 1.368 1_565 S
C764 C763 1.523 . S
C765 C749 1.429 . S
C765 C761 1.429 . S
C765 C766 1.523 . S
C766 C750 1.368 . S
C766 C762 1.368 1_545 S
C766 C765 1.523 . S
H767 C742 0.950 . S
H768 C744 0.950 1_545 S
H769 C745 0.949 . S
H770 C747 0.950 . S
H771 C749 0.950 1_565 S
C772 C773 1.349 . S
C772 C774 1.327 . S
C772 H797 0.950 . S
C773 C772 1.349 . S
C773 C789 1.349 . S
C774 C772 1.327 . S
C774 C793 1.429 . S
C774 H798 0.950 . S
C775 C792 1.574 . S
C775 C794 1.368 1_545 S
C775 H799 0.949 . S
H776 C780 0.949 . S
C777 C778 1.349 . S
C777 C779 1.327 . S
C777 H800 0.950 . S
C778 C777 1.349 . S
C778 C790 1.349 . S
C779 C777 1.327 . S
C779 C795 1.429 . S
C779 H801 0.950 . S
C780 H776 0.949 . S
C780 C788 1.574 . S
C780 C796 1.368 1_565 S
H781 C789 0.950 . S
H782 C787 0.950 1_545 S
H783 C788 0.949 . S
H784 C790 0.950 . S
H785 C791 0.950 1_565 S
H786 C792 0.949 . S
C787 H782 0.950 1_565 S
C787 C789 1.327 . S
C787 C793 1.429 . S
C788 C780 1.574 . S
C788 H783 0.949 . S
C788 C794 1.368 . S
C789 C773 1.349 . S
C789 H781 0.950 . S
C789 C787 1.327 . S
C790 C778 1.349 . S
C790 H784 0.950 . S
C790 C791 1.327 . S
C791 H785 0.950 1_545 S
C791 C790 1.327 . S
C791 C795 1.429 . S
C792 C775 1.574 . S
C792 H786 0.949 . S
C792 C796 1.368 . S
C793 C774 1.429 . S
C793 C787 1.429 . S
C793 C794 1.523 . S
C794 C775 1.368 1_565 S
C794 C788 1.368 . S
C794 C793 1.523 . S
C795 C779 1.429 . S
C795 C791 1.429 . S
C795 C796 1.523 . S
C796 C780 1.368 1_545 S
C796 C792 1.368 . S
C796 C795 1.523 . S
H797 C772 0.950 . S
H798 C774 0.950 . S
H799 C775 0.949 . S
H800 C777 0.950 . S
H801 C779 0.950 . S
C802 C803 1.349 . S
C802 C804 1.327 . S
C802 H827 0.950 . S
C803 C802 1.349 . S
C803 C819 1.349 . S
C804 C802 1.327 . S
C804 C823 1.429 . S
C804 H828 0.950 1_565 S
C805 C822 1.574 . S
C805 C824 1.368 . S
C805 H829 0.949 . S
H806 C810 0.949 . S
C807 C808 1.349 . S
C807 C809 1.327 . S
C807 H830 0.950 . S
C808 C807 1.349 . S
C808 C820 1.349 . S
C809 C807 1.327 . S
C809 C825 1.429 . S
C809 H831 0.950 1_545 S
C810 H806 0.949 . S
C810 C818 1.574 . S
C810 C826 1.368 . S
H811 C819 0.950 . S
H812 C817 0.950 . S
H813 C818 0.949 . S
H814 C820 0.950 . S
H815 C821 0.950 . S
H816 C822 0.949 . S
C817 H812 0.950 . S
C817 C819 1.327 . S
C817 C823 1.429 . S
C818 C810 1.574 . S
C818 H813 0.949 . S
C818 C824 1.368 1_545 S
C819 C803 1.349 . S
C819 H811 0.950 . S
C819 C817 1.327 . S
C820 C808 1.349 . S
C820 H814 0.950 . S
C820 C821 1.327 . S
C821 H815 0.950 . S
C821 C820 1.327 . S
C821 C825 1.429 . S
C822 C805 1.574 . S
C822 H816 0.949 . S
C822 C826 1.368 1_565 S
C823 C804 1.429 . S
C823 C817 1.429 . S
C823 C824 1.523 . S
C824 C805 1.368 . S
C824 C818 1.368 1_565 S
C824 C823 1.523 . S
C825 C809 1.429 . S
C825 C821 1.429 . S
C825 C826 1.523 . S
C826 C810 1.368 . S
C826 C822 1.368 1_545 S
C826 C825 1.523 . S
H827 C802 0.950 . S
H828 C804 0.950 1_545 S
H829 C805 0.949 . S
H830 C807 0.950 . S
H831 C809 0.950 1_565 S
C832 C833 1.349 . S
C832 C834 1.327 . S
C832 H857 0.950 1_554 S
C833 C832 1.349 . S
C833 C849 1.349 . S
C834 C832 1.327 . S
C834 C853 1.429 . S
C834 H858 0.950 1_554 S
C835 C852 1.574 . S
C835 C854 1.368 . S
C835 H859 0.949 . S
H836 C840 0.947 . S
C837 C838 1.349 . S
C837 C839 1.327 . S
C837 H860 0.950 . S
C838 C837 1.349 . S
C838 C850 1.349 . S
C839 C837 1.327 . S
C839 C855 1.429 . S
C839 H861 0.950 . S
C840 H836 0.947 . S
C840 C848 1.574 . S
C840 C856 1.370 1_556 S
H841 C849 0.950 . S
H842 C847 0.950 . S
H843 C848 0.947 . S
H844 C850 0.950 1_556 S
H845 C851 0.950 1_556 S
H846 C852 0.949 . S
C847 H842 0.950 . S
C847 C849 1.327 . S
C847 C853 1.429 . S
C848 C840 1.574 . S
C848 H843 0.947 . S
C848 C854 1.370 1_546 S
C849 C833 1.349 . S
C849 H841 0.950 . S
C849 C847 1.327 . S
C850 C838 1.349 . S
C850 H844 0.950 1_554 S
C850 C851 1.327 . S
C851 H845 0.950 1_554 S
C851 C850 1.327 . S
C851 C855 1.429 . S
C852 C835 1.574 . S
C852 H846 0.949 . S
C852 C856 1.368 1_565 S
C853 C834 1.429 . S
C853 C847 1.429 . S
C853 C854 1.523 . S
C854 C835 1.368 . S
C854 C848 1.370 1_564 S
C854 C853 1.523 . S
C855 C839 1.429 . S
C855 C851 1.429 . S
C855 C856 1.523 . S
C856 C840 1.370 1_554 S
C856 C852 1.368 1_545 S
C856 C855 1.523 . S
H857 C832 0.950 1_556 S
H858 C834 0.950 1_556 S
H859 C835 0.949 . S
H860 C837 0.950 . S
H861 C839 0.950 . S
C862 C863 1.349 . S
C862 C864 1.327 . S
C862 H887 0.950 . S
C863 C862 1.349 . S
C863 C879 1.349 . S
C864 C862 1.327 . S
C864 C883 1.429 . S
C864 H888 0.950 . S
C865 C882 1.574 . S
C865 C884 1.368 . S
C865 H889 0.949 . S
H866 C870 0.949 . S
C867 C868 1.349 . S
C867 C869 1.327 . S
C867 H890 0.950 . S
C868 C867 1.349 . S
C868 C880 1.349 . S
C869 C867 1.327 . S
C869 C885 1.429 . S
C869 H891 0.950 . S
C870 H866 0.949 . S
C870 C878 1.574 . S
C870 C886 1.368 . S
H871 C879 0.950 . S
H872 C877 0.950 . S
H873 C878 0.949 . S
H874 C880 0.950 . S
H875 C881 0.950 . S
H876 C882 0.949 . S
C877 H872 0.950 . S
C877 C879 1.327 . S
C877 C883 1.429 . S
C878 C870 1.574 . S
C878 H873 0.949 . S
C878 C884 1.368 1_545 S
C879 C863 1.349 . S
C879 H871 0.950 . S
C879 C877 1.327 . S
C880 C868 1.349 . S
C880 H874 0.950 . S
C880 C881 1.327 . S
C881 H875 0.950 . S
C881 C880 1.327 . S
C881 C885 1.429 . S
C882 C865 1.574 . S
C882 H876 0.949 . S
C882 C886 1.368 1_565 S
C883 C864 1.429 . S
C883 C877 1.429 . S
C883 C884 1.523 . S
C884 C865 1.368 . S
C884 C878 1.368 1_565 S
C884 C883 1.523 . S
C885 C869 1.429 . S
C885 C881 1.429 . S
C885 C886 1.523 . S
C886 C870 1.368 . S
C886 C882 1.368 1_545 S
C886 C885 1.523 . S
H887 C862 0.950 . S
H888 C864 0.950 . S
H889 C865 0.949 . S
H890 C867 0.950 . S
H891 C869 0.950 . S
C892 C893 1.349 . S
C892 C894 1.327 . S
C892 H917 0.950 1_554 S
C893 C892 1.349 . S
C893 C909 1.349 . S
C894 C892 1.327 . S
C894 C913 1.429 . S
C894 H918 0.950 1_554 S
C895 C912 1.574 1_455 S
C895 C914 1.368 . S
C895 H919 0.949 . S
H896 C900 0.947 . S
C897 C898 1.349 . S
C897 C899 1.327 . S
C897 H920 0.950 . S
C898 C897 1.349 . S
C898 C910 1.349 . S
C899 C897 1.327 . S
C899 C915 1.429 . S
C899 H921 0.950 . S
C900 H896 0.947 . S
C900 C908 1.574 1_655 S
C900 C916 1.370 1_556 S
H901 C909 0.950 . S
H902 C907 0.950 . S
H903 C908 0.947 . S
H904 C910 0.950 1_556 S
H905 C911 0.950 1_556 S
H906 C912 0.949 . S
C907 H902 0.950 . S
C907 C909 1.327 . S
C907 C913 1.429 . S
C908 C900 1.574 1_455 S
C908 H903 0.947 . S
C908 C914 1.370 1_556 S
C909 C893 1.349 . S
C909 H901 0.950 . S
C909 C907 1.327 . S
C910 C898 1.349 . S
C910 H904 0.950 1_554 S
C910 C911 1.327 . S
C911 H905 0.950 1_554 S
C911 C910 1.327 . S
C911 C915 1.429 . S
C912 C895 1.574 1_655 S
C912 H906 0.949 . S
C912 C916 1.368 . S
C913 C894 1.429 . S
C913 C907 1.429 . S
C913 C914 1.523 . S
C914 C895 1.368 . S
C914 C908 1.370 1_554 S
C914 C913 1.523 . S
C915 C899 1.429 . S
C915 C911 1.429 . S
C915 C916 1.523 . S
C916 C900 1.370 1_554 S
C916 C912 1.368 . S
C916 C915 1.523 . S
H917 C892 0.950 1_556 S
H918 C894 0.950 1_556 S
H919 C895 0.949 . S
H920 C897 0.950 . S
H921 C899 0.950 . S
C922 C923 1.349 . S
C922 C924 1.327 . S
C922 H947 0.950 . S
C923 C922 1.349 . S
C923 C939 1.349 . S
C924 C922 1.327 . S
C924 C943 1.429 . S
C924 H948 0.950 . S
C925 C942 1.574 1_455 S
C925 C944 1.368 . S
C925 H949 0.949 . S
H926 C930 0.949 . S
C927 C928 1.349 . S
C927 C929 1.327 . S
C927 H950 0.950 . S
C928 C927 1.349 . S
C928 C940 1.349 . S
C929 C927 1.327 . S
C929 C945 1.429 . S
C929 H951 0.950 . S
C930 H926 0.949 . S
C930 C938 1.574 1_655 S
C930 C946 1.368 . S
H931 C939 0.950 . S
H932 C937 0.950 . S
H933 C938 0.949 . S
H934 C940 0.950 . S
H935 C941 0.950 . S
H936 C942 0.949 . S
C937 H932 0.950 . S
C937 C939 1.327 . S
C937 C943 1.429 . S
C938 C930 1.574 1_455 S
C938 H933 0.949 . S
C938 C944 1.368 . S
C939 C923 1.349 . S
C939 H931 0.950 . S
C939 C937 1.327 . S
C940 C928 1.349 . S
C940 H934 0.950 . S
C940 C941 1.327 . S
C941 H935 0.950 . S
C941 C940 1.327 . S
C941 C945 1.429 . S
C942 C925 1.574 1_655 S
C942 H936 0.949 . S
C942 C946 1.368 . S
C943 C924 1.429 . S
C943 C937 1.429 . S
C943 C944 1.523 . S
C944 C925 1.368 . S
C944 C938 1.368 . S
C944 C943 1.523 . S
C945 C929 1.429 . S
C945 C941 1.429 . S
C945 C946 1.523 . S
C946 C930 1.368 . S
C946 C942 1.368 . S
C946 C945 1.523 . S
H947 C922 0.950 . S
H948 C924 0.950 . S
H949 C925 0.949 . S
H950 C927 0.950 . S
H951 C929 0.950 . S
C473 C347 1.512 . S
C478 C52 1.512 . S
C503 C288 1.512 . S
C508 C111 1.512 . S
C533 C465 1.512 . S
C538 C170 1.512 . S
C563 C406 1.512 . S
C568 C229 1.512 . S
C593 C3 1.498 . S
C598 C121 1.498 . S
C623 C62 1.498 . S
C628 C180 1.498 . S
C653 C92 1.514 . S
C658 C210 1.514 . S
C683 C33 1.514 . S
C688 C151 1.514 . S
C713 C239 1.498 . S
C718 C357 1.498 . S
C743 C416 1.498 . S
C748 C298 1.498 . S
C773 C446 1.514 . S
C778 C328 1.514 . S
C803 C269 1.514 . S
C808 C387 1.514 . S
C833 C64 1.507 . S
C838 C5 1.507 . S
C863 C123 1.507 . S
C868 C182 1.507 . S
C893 C241 1.507 . S
C898 C300 1.507 . S
C923 C359 1.507 . S
C928 C418 1.507 . S
