# Generated by pormake.
# Topology uoj, (4)-cn, num edge types: 1
# Building blocks:
#     Node 0, Type 0, BuildingBlock: ICAMEG_clean_sbu_1, # of connection points: 4
#     Node 1, Type 0, BuildingBlock: ICAMEG_clean_sbu_1, # of connection points: 4
#     Node 2, Type 0, BuildingBlock: ICAMEG_clean_sbu_1, # of connection points: 4
#     Node 3, Type 0, BuildingBlock: ICAMEG_clean_sbu_1, # of connection points: 4
#     Node 4, Type 0, BuildingBlock: ICAMEG_clean_sbu_1, # of connection points: 4
#     Node 5, Type 0, BuildingBlock: ICAMEG_clean_sbu_1, # of connection points: 4
#     Node 6, Type 0, BuildingBlock: ICAMEG_clean_sbu_1, # of connection points: 4
#     Node 7, Type 0, BuildingBlock: ICAMEG_clean_sbu_1, # of connection points: 4
#     Edge 8, Type (0, 0), BuildingBlock: XIVTED_clean_linker_0, # of connection points: 2
#     Edge 9, Type (0, 0), BuildingBlock: XIVTED_clean_linker_0, # of connection points: 2
#     Edge 10, Type (0, 0), BuildingBlock: XIVTED_clean_linker_0, # of connection points: 2
#     Edge 11, Type (0, 0), BuildingBlock: XIVTED_clean_linker_0, # of connection points: 2
#     Edge 12, Type (0, 0), BuildingBlock: XIVTED_clean_linker_0, # of connection points: 2
#     Edge 13, Type (0, 0), BuildingBlock: XIVTED_clean_linker_0, # of connection points: 2
#     Edge 14, Type (0, 0), BuildingBlock: XIVTED_clean_linker_0, # of connection points: 2
#     Edge 15, Type (0, 0), BuildingBlock: XIVTED_clean_linker_0, # of connection points: 2
#     Edge 16, Type (0, 0), BuildingBlock: XIVTED_clean_linker_0, # of connection points: 2
#     Edge 17, Type (0, 0), BuildingBlock: XIVTED_clean_linker_0, # of connection points: 2
#     Edge 18, Type (0, 0), BuildingBlock: XIVTED_clean_linker_0, # of connection points: 2
#     Edge 19, Type (0, 0), BuildingBlock: XIVTED_clean_linker_0, # of connection points: 2
#     Edge 20, Type (0, 0), BuildingBlock: XIVTED_clean_linker_0, # of connection points: 2
#     Edge 21, Type (0, 0), BuildingBlock: XIVTED_clean_linker_0, # of connection points: 2
#     Edge 22, Type (0, 0), BuildingBlock: XIVTED_clean_linker_0, # of connection points: 2
#     Edge 23, Type (0, 0), BuildingBlock: XIVTED_clean_linker_0, # of connection points: 2
# Relax obj value: 0.081
# Max RMSD: 0.092
# Mean RMSD: 0.091
data_MOF--net-uoj--node1-ICAMEG_clean_sbu_1--edge1-XIVTED_clean_linker_0
_symmetry_space_group_name_H-M    P1
_symmetry_Int_Tables_number       1
_symmetry_cell_setting            triclinic
loop_
_symmetry_equiv_pos_as_xyz
'x, y, z'
_cell_length_a     36.853706
_cell_length_b     36.871474
_cell_length_c     33.643629
_cell_angle_alpha  89.986039
_cell_angle_beta   89.99408
_cell_angle_gamma 89.938369
loop_
_atom_site_label
_atom_site_type_symbol
_atom_site_fract_x
_atom_site_fract_y
_atom_site_fract_z
_atom_type_partial_charge
Co0 Co 0.01315 0.30189 0.41992 0.0
Co1 Co 0.09447 0.31265 0.46745 0.0
O2 O 0.05103 0.28406 0.45567 0.0
C3 C 0.97145 0.27408 0.48973 0.0
O4 O 0.99617 0.28646 0.51429 0.0
C5 C 0.12531 0.24192 0.44327 0.0
O6 O 0.10447 0.24301 0.41165 0.0
O7 O 0.10539 0.31762 0.40985 0.0
O8 O 0.04949 0.32668 0.38561 0.0
H9 H 0.18087 0.41689 0.45066 0.0
H10 H 0.01687 0.22351 0.43874 0.0
O11 O 0.97505 0.27771 0.45236 0.0
H12 H 0.03057 0.23124 0.29318 0.0
H13 H 0.89772 0.29194 0.34051 0.0
H14 H 0.99779 0.3725 0.38109 0.0
H15 H 0.02186 0.28657 0.33322 0.0
H16 H 0.94651 0.26942 0.38423 0.0
O17 O 0.12399 0.26724 0.46898 0.0
H18 H 0.12575 0.38122 0.43665 0.0
H19 H 0.15693 0.30296 0.5228 0.0
H20 H 0.94972 0.39604 0.3371 0.0
H21 H 0.02517 0.16743 0.39978 0.0
H22 H 0.89921 0.35564 0.31651 0.0
H23 H 0.03219 0.17112 0.32646 0.0
O24 O 0.00793 0.34657 0.45231 0.0
H25 H 0.06213 0.24349 0.59114 0.0
H26 H 0.08986 0.36417 0.53575 0.0
H27 H 0.07559 0.35822 0.60707 0.0
H28 H 0.06171 0.29752 0.63523 0.0
H29 H 0.07609 0.25074 0.51986 0.0
H30 H 0.21256 0.3376 0.53749 0.0
H31 H 0.22473 0.3951 0.50141 0.0
O32 O 0.06614 0.35915 0.46598 0.0
C33 C 0.08388 0.3272 0.38219 0.0
C34 C 0.17581 0.39194 0.46668 0.0
C35 C 0.19362 0.34742 0.51538 0.0
N36 N 0.13797 0.34023 0.47914 0.0
C37 C 0.14459 0.37169 0.45896 0.0
C38 C 0.16211 0.32789 0.50687 0.0
C39 C 0.20042 0.37968 0.49513 0.0
C40 C 0.01955 0.22528 0.40681 0.0
N41 N 0.01869 0.25825 0.38828 0.0
C42 C 0.02439 0.19346 0.38492 0.0
C43 C 0.02839 0.19555 0.34379 0.0
C44 C 0.0275 0.22928 0.3251 0.0
C45 C 0.02265 0.26053 0.34795 0.0
C46 C 0.91963 0.30978 0.34919 0.0
C47 C 0.97604 0.35467 0.37207 0.0
C48 C 0.94731 0.2972 0.37399 0.0
N49 N 0.97516 0.31954 0.38494 0.0
C50 C 0.94883 0.36819 0.34724 0.0
C51 C 0.92048 0.34552 0.33573 0.0
C52 C 0.03279 0.36833 0.46346 0.0
C53 C 0.06822 0.27007 0.57924 0.0
C54 C 0.08359 0.3377 0.54771 0.0
C55 C 0.07567 0.33448 0.58815 0.0
C56 C 0.06793 0.3004 0.60394 0.0
N57 N 0.08385 0.30781 0.52368 0.0
C58 C 0.07629 0.27432 0.53894 0.0
Co59 Co 0.29428 0.98395 0.58506 0.0
Co60 Co 0.31172 0.90632 0.53035 0.0
O61 O 0.28139 0.94798 0.5447 0.0
C62 C 0.27748 0.02782 0.5126 0.0
O63 O 0.29034 0.00215 0.48955 0.0
C64 C 0.24313 0.87247 0.55651 0.0
O65 O 0.24326 0.89449 0.58716 0.0
O66 O 0.32027 0.89369 0.58711 0.0
O67 O 0.31123 0.94507 0.62156 0.0
H68 H 0.42161 0.82583 0.53825 0.0
H69 H 0.22052 0.98252 0.55004 0.0
O70 O 0.27725 0.02419 0.5502 0.0
H71 H 0.20222 0.96675 0.69419 0.0
H72 H 0.27519 0.09712 0.66633 0.0
H73 H 0.35691 0.99407 0.63911 0.0
H74 H 0.2637 0.97494 0.66671 0.0
H75 H 0.2589 0.0511 0.61626 0.0
O76 O 0.2681 0.87426 0.5304 0.0
H77 H 0.3835 0.87842 0.55604 0.0
H78 H 0.30303 0.84487 0.47356 0.0
H79 H 0.37411 0.03932 0.68971 0.0
H80 H 0.15851 0.97482 0.57624 0.0
H81 H 0.3331 0.09131 0.70358 0.0
H82 H 0.14906 0.96671 0.64879 0.0
O83 O 0.34413 0.98925 0.56262 0.0
H84 H 0.23507 0.93829 0.4119 0.0
H85 H 0.35963 0.91586 0.45958 0.0
H86 H 0.34955 0.93193 0.38927 0.0
H87 H 0.28689 0.94319 0.365 0.0
H88 H 0.24641 0.92253 0.48208 0.0
H89 H 0.34012 0.79175 0.45509 0.0
H90 H 0.39995 0.78205 0.48743 0.0
O91 O 0.35595 0.93718 0.53039 0.0
C92 C 0.31971 0.91165 0.61946 0.0
C93 C 0.39565 0.82983 0.52385 0.0
C94 C 0.34989 0.81067 0.47722 0.0
N95 N 0.34123 0.86487 0.51561 0.0
C96 C 0.374 0.85961 0.53372 0.0
C97 C 0.32898 0.84076 0.48784 0.0
C98 C 0.38346 0.80525 0.49536 0.0
C99 C 0.21662 0.97926 0.58168 0.0
N100 N 0.24574 0.97909 0.60682 0.0
C101 C 0.18144 0.9748 0.59632 0.0
C102 C 0.17617 0.97021 0.63703 0.0
C103 C 0.20598 0.97018 0.66251 0.0
C104 C 0.24076 0.97466 0.64678 0.0
C105 C 0.29326 0.07456 0.66061 0.0
C106 C 0.33882 0.01649 0.64518 0.0
C107 C 0.28422 0.04845 0.63222 0.0
N108 N 0.30682 0.01978 0.62498 0.0
C109 C 0.34875 0.04208 0.67377 0.0
C110 C 0.32575 0.07127 0.68151 0.0
C111 C 0.36522 0.96842 0.54295 0.0
C112 C 0.26248 0.93335 0.42209 0.0
C113 C 0.3323 0.92091 0.4493 0.0
C114 C 0.32675 0.92988 0.40942 0.0
C115 C 0.29158 0.93616 0.39582 0.0
N116 N 0.30361 0.91817 0.47488 0.0
C117 C 0.26905 0.92426 0.46175 0.0
Co118 Co 0.99038 0.7034 0.41403 0.0
Co119 Co 0.91134 0.68789 0.46697 0.0
O120 O 0.9542 0.7169 0.45396 0.0
C121 C 0.03332 0.71703 0.48771 0.0
O122 O 0.00684 0.7043 0.5097 0.0
C123 C 0.88034 0.75826 0.44196 0.0
O124 O 0.90262 0.75783 0.41151 0.0
O125 O 0.8993 0.68088 0.40982 0.0
O126 O 0.95156 0.68839 0.37649 0.0
H127 H 0.82712 0.58134 0.45526 0.0
H128 H 0.99102 0.77657 0.45042 0.0
O129 O 0.03051 0.71841 0.45006 0.0
H130 H 0.97782 0.79766 0.30642 0.0
H131 H 0.10555 0.71982 0.33543 0.0
H132 H -0.00065 0.64141 0.35888 0.0
H133 H 0.98344 0.73552 0.33285 0.0
H134 H 0.05923 0.73685 0.38496 0.0
O135 O 0.88088 0.73269 0.46742 0.0
H136 H 0.88128 0.61776 0.43916 0.0
H137 H 0.84942 0.69781 0.52296 0.0
H138 H 0.04487 0.62351 0.30879 0.0
H139 H 0.98589 0.8392 0.42528 0.0
H140 H 0.09844 0.66285 0.29682 0.0
H141 H 0.97909 0.85005 0.3528 0.0
O142 O 0.99369 0.65312 0.43562 0.0
H143 H 0.94435 0.76098 0.58767 0.0
H144 H 0.91816 0.63835 0.53676 0.0
H145 H 0.9336 0.64647 0.60752 0.0
H146 H 0.94675 0.70815 0.63342 0.0
H147 H 0.92917 0.75159 0.51701 0.0
H148 H 0.79475 0.66242 0.53973 0.0
H149 H 0.7834 0.60365 0.50588 0.0
O150 O 0.94064 0.6425 0.46644 0.0
C151 C 0.91781 0.6812 0.37782 0.0
C152 C 0.83182 0.60684 0.47031 0.0
C153 C 0.81363 0.65237 0.51769 0.0
N154 N 0.86865 0.6597 0.48034 0.0
C155 C 0.86249 0.62752 0.46141 0.0
C156 C 0.84459 0.67233 0.50801 0.0
C157 C 0.80729 0.6194 0.49869 0.0
C158 C 0.98833 0.78108 0.41882 0.0
N159 N 0.98747 0.75239 0.39313 0.0
C160 C 0.98532 0.8166 0.40477 0.0
C161 C 0.98146 0.82267 0.3641 0.0
C162 C 0.98071 0.79328 0.33807 0.0
C163 C 0.98374 0.75814 0.35321 0.0
C164 C 0.08229 0.70249 0.34032 0.0
C165 C 0.02247 0.65878 0.35364 0.0
C166 C 0.05601 0.71194 0.36839 0.0
N167 N 0.02647 0.69027 0.37458 0.0
C168 C 0.04821 0.64846 0.32533 0.0
C169 C 0.07828 0.67053 0.31866 0.0
C170 C 0.97184 0.63243 0.45438 0.0
C171 C 0.93858 0.73398 0.57676 0.0
C172 C 0.92403 0.66526 0.54775 0.0
C173 C 0.93264 0.6697 0.58788 0.0
C174 C 0.93998 0.70432 0.6024 0.0
N175 N 0.92267 0.69449 0.5228 0.0
C176 C 0.9298 0.72852 0.53682 0.0
Co177 Co 0.69556 0.0091 0.57748 0.0
Co178 Co 0.68562 0.09163 0.53216 0.0
O179 O 0.71347 0.04737 0.54243 0.0
C180 C 0.72144 0.96901 0.50578 0.0
O181 O 0.70923 0.99479 0.48244 0.0
C182 C 0.75729 0.11978 0.55658 0.0
O183 O 0.75558 0.09838 0.58772 0.0
O184 O 0.68129 0.10131 0.59005 0.0
O185 O 0.67228 0.04515 0.61345 0.0
H186 H 0.5832 0.17985 0.55216 0.0
H187 H 0.77366 0.01155 0.5569 0.0
O188 O 0.7183 0.97135 0.54332 0.0
H189 H 0.76907 0.02172 0.70295 0.0
H190 H 0.70458 0.89155 0.65318 0.0
H191 H 0.62543 0.99446 0.6176 0.0
H192 H 0.71277 0.01523 0.66402 0.0
H193 H 0.72727 0.94083 0.61032 0.0
O194 O 0.73174 0.12 0.53107 0.0
H195 H 0.61786 0.12366 0.56437 0.0
H196 H 0.69631 0.15515 0.4786 0.0
H197 H 0.60172 0.94591 0.66077 0.0
H198 H 0.83067 0.01765 0.59472 0.0
H199 H 0.64142 0.89397 0.67885 0.0
H200 H 0.82857 0.02289 0.66829 0.0
O201 O 0.6502 0.00568 0.546 0.0
H202 H 0.75321 0.06094 0.40687 0.0
H203 H 0.63345 0.08967 0.4643 0.0
H204 H 0.63855 0.07702 0.39254 0.0
H205 H 0.69878 0.06264 0.36335 0.0
H206 H 0.74681 0.07329 0.47858 0.0
H207 H 0.66268 0.21183 0.4657 0.0
H208 H 0.6056 0.22439 0.5025 0.0
O209 O 0.63852 0.0643 0.53331 0.0
C210 C 0.6722 0.07946 0.61757 0.0
C211 C 0.60797 0.17462 0.53583 0.0
C212 C 0.6526 0.19259 0.48734 0.0
N213 N 0.65886 0.13598 0.52193 0.0
C214 C 0.62764 0.1428 0.54252 0.0
C215 C 0.67155 0.16049 0.49482 0.0
C216 C 0.62057 0.19962 0.50799 0.0
C217 C 0.77257 0.01345 0.58893 0.0
N218 N 0.73995 0.01284 0.60821 0.0
C219 C 0.80492 0.01705 0.61018 0.0
C220 C 0.80372 0.02005 0.65145 0.0
C221 C 0.77034 0.01942 0.67091 0.0
C222 C 0.73854 0.01582 0.64869 0.0
C223 C 0.68705 0.91408 0.6456 0.0
C224 C 0.64295 0.97208 0.62553 0.0
C225 C 0.69973 0.94204 0.62129 0.0
N226 N 0.6778 0.97068 0.61175 0.0
C227 C 0.62934 0.94461 0.6499 0.0
C228 C 0.65161 0.91546 0.65999 0.0
C229 C 0.62881 0.0311 0.53539 0.0
C230 C 0.72683 0.06726 0.41921 0.0
C231 C 0.65972 0.08316 0.45189 0.0
C232 C 0.66246 0.07617 0.4112 0.0
C233 C 0.69627 0.06815 0.39483 0.0
N234 N 0.68982 0.08225 0.4756 0.0
C235 C 0.72306 0.07443 0.45977 0.0
Co236 Co 0.48711 0.79575 0.91166 0.0
Co237 Co 0.40856 0.81086 0.9656 0.0
O238 O 0.45156 0.78212 0.95219 0.0
C239 C 0.53126 0.78184 0.98447 0.0
O240 O 0.50513 0.79455 0.00701 0.0
C241 C 0.37775 0.73982 0.94256 0.0
O242 O 0.39869 0.74043 0.91099 0.0
O243 O 0.39545 0.81692 0.9086 0.0
O244 O 0.4477 0.81088 0.87484 0.0
H245 H 0.3227 0.91628 0.9538 0.0
H246 H 0.48827 0.72248 0.94782 0.0
O247 O 0.52785 0.78061 0.94689 0.0
H248 H 0.47338 0.7018 0.80396 0.0
H249 H 0.60108 0.77962 0.83085 0.0
H250 H 0.49507 0.85792 0.85654 0.0
H251 H 0.4793 0.76385 0.83049 0.0
H252 H 0.55561 0.76244 0.88122 0.0
O253 O 0.37879 0.76566 0.96766 0.0
H254 H 0.37706 0.88024 0.93721 0.0
H255 H 0.34776 0.80105 0.02306 0.0
H256 H 0.53972 0.87596 0.80561 0.0
H257 H 0.48287 0.65993 0.92259 0.0
H258 H 0.59319 0.83667 0.79251 0.0
H259 H 0.4752 0.64928 0.85018 0.0
O260 O 0.49055 0.84598 0.93337 0.0
H261 H 0.44459 0.74002 0.08698 0.0
H262 H 0.41597 0.86155 0.03427 0.0
H263 H 0.43275 0.85472 0.10484 0.0
H264 H 0.44712 0.7936 0.13164 0.0
H265 H 0.42809 0.74813 0.01648 0.0
H266 H 0.29292 0.83607 0.04037 0.0
H267 H 0.28018 0.89421 0.00573 0.0
O268 O 0.4372 0.8566 0.9636 0.0
C269 C 0.41377 0.81727 0.87647 0.0
C270 C 0.32801 0.89105 0.9692 0.0
C271 C 0.31127 0.84601 0.01775 0.0
N272 N 0.36572 0.83875 0.97937 0.0
C273 C 0.3588 0.87058 0.96001 0.0
C274 C 0.34232 0.82626 0.00777 0.0
C275 C 0.30415 0.87863 0.99831 0.0
C276 C 0.48519 0.71806 0.91625 0.0
N277 N 0.48401 0.74682 0.89065 0.0
C278 C 0.48204 0.68258 0.90215 0.0
C279 C 0.4777 0.67663 0.86153 0.0
C280 C 0.47663 0.70608 0.83559 0.0
C281 C 0.47981 0.74118 0.85078 0.0
C282 C 0.57786 0.79693 0.83623 0.0
C283 C 0.51815 0.84057 0.85081 0.0
C284 C 0.55206 0.78739 0.86479 0.0
N285 N 0.52256 0.80903 0.8716 0.0
C286 C 0.54339 0.85097 0.82203 0.0
C287 C 0.57341 0.82894 0.81472 0.0
C288 C 0.4684 0.86676 0.95163 0.0
C289 C 0.43829 0.76678 0.07568 0.0
C290 C 0.42238 0.83489 0.04565 0.0
C291 C 0.43174 0.83117 0.08567 0.0
C292 C 0.43977 0.79686 0.1007 0.0
N293 N 0.42097 0.80525 0.0213 0.0
C294 C 0.42877 0.77152 0.03583 0.0
Co295 Co 0.81039 0.59376 0.03387 0.0
Co296 Co 0.7938 0.51533 0.08745 0.0
O297 O 0.78055 0.5516 0.0475 0.0
C298 C 0.74098 0.62675 0.05915 0.0
O299 O 0.74149 0.60524 0.09025 0.0
C300 C 0.77648 0.47172 0.01485 0.0
O301 O 0.78913 0.49741 0.9917 0.0
O302 O 0.84356 0.51036 0.06455 0.0
O303 O 0.85514 0.56354 0.03446 0.0
H304 H 0.87455 0.45932 0.191 0.0
H305 H 0.74601 0.57689 0.9844 0.0
O306 O 0.76619 0.62513 0.0333 0.0
H307 H 0.85059 0.56948 0.8933 0.0
H308 H 0.83791 0.70911 0.9597 0.0
H309 H 0.8814 0.62249 0.06079 0.0
H310 H 0.85942 0.58526 0.96387 0.0
H311 H 0.80143 0.65541 0.97732 0.0
O312 O 0.77662 0.47529 0.05245 0.0
H313 H 0.85686 0.50487 0.14086 0.0
H314 H 0.75885 0.44792 0.11845 0.0
H315 H 0.9189 0.67567 0.04385 0.0
H316 H 0.73592 0.56142 0.91393 0.0
H317 H 0.89719 0.71943 0.99296 0.0
H318 H 0.78847 0.55752 0.8679 0.0
O319 O 0.81805 0.60616 0.09084 0.0
H320 H 0.65798 0.52483 0.07969 0.0
H321 H 0.76366 0.52331 0.16944 0.0
H322 H 0.70236 0.53143 0.19744 0.0
H323 H 0.64896 0.53218 0.15241 0.0
H324 H 0.71984 0.51721 0.05299 0.0
H325 H 0.77563 0.4016 0.16806 0.0
H326 H 0.83378 0.40723 0.20486 0.0
O327 O 0.81086 0.55391 0.12419 0.0
C328 C 0.86464 0.532 0.04597 0.0
C329 C 0.84908 0.45664 0.17525 0.0
C330 C 0.79359 0.42421 0.16233 0.0
N331 N 0.80675 0.47921 0.12696 0.0
C332 C 0.83888 0.48239 0.14692 0.0
C333 C 0.78428 0.45048 0.1342 0.0
C334 C 0.82622 0.42739 0.18298 0.0
C335 C 0.76897 0.5756 0.96445 0.0
N336 N 0.80324 0.58208 0.9782 0.0
C337 C 0.7631 0.56667 0.92463 0.0
C338 C 0.79261 0.56442 0.89883 0.0
C339 C 0.82748 0.57109 0.91308 0.0
C340 C 0.83232 0.57989 0.9531 0.0
C341 C 0.8477 0.69021 0.98187 0.0
C342 C 0.87187 0.6413 0.03845 0.0
C343 C 0.82713 0.65979 0.99202 0.0
N344 N 0.83941 0.6357 0.01984 0.0
C345 C 0.89318 0.67141 0.02906 0.0
C346 C 0.88096 0.69597 0.00053 0.0
C347 C 0.81836 0.58757 0.12277 0.0
C348 C 0.68103 0.52455 0.09963 0.0
C349 C 0.74063 0.52393 0.14967 0.0
C350 C 0.70594 0.52835 0.16569 0.0
C351 C 0.67599 0.52872 0.14042 0.0
N352 N 0.74538 0.51996 0.10963 0.0
C353 C 0.71612 0.52014 0.08468 0.0
Co354 Co 0.51534 0.1963 0.91628 0.0
Co355 Co 0.59552 0.18562 0.96604 0.0
O356 O 0.5523 0.2141 0.95305 0.0
C357 C 0.47204 0.22303 0.98518 0.0
O358 O 0.4955 0.20857 0.00991 0.0
C359 C 0.62648 0.25656 0.94289 0.0
O360 O 0.60657 0.25528 0.91056 0.0
O361 O 0.6078 0.18075 0.90876 0.0
O362 O 0.55251 0.17146 0.88298 0.0
H363 H 0.68279 0.08164 0.95159 0.0
H364 H 0.51849 0.2747 0.93518 0.0
O365 O 0.47663 0.22064 0.94782 0.0
H366 H 0.53558 0.26698 0.79005 0.0
H367 H 0.40178 0.20656 0.83371 0.0
H368 H 0.5009 0.12576 0.87697 0.0
H369 H 0.52605 0.21164 0.82986 0.0
H370 H 0.44953 0.22892 0.8788 0.0
O371 O 0.62472 0.23118 0.96852 0.0
H372 H 0.62783 0.11716 0.93609 0.0
H373 H 0.65661 0.19543 0.02311 0.0
H374 H 0.45388 0.10237 0.83162 0.0
H375 H 0.52758 0.33077 0.89644 0.0
H376 H 0.40385 0.14289 0.80969 0.0
H377 H 0.53632 0.3271 0.82334 0.0
O378 O 0.50949 0.15153 0.94846 0.0
H379 H 0.55924 0.25435 0.08871 0.0
H380 H 0.5897 0.13399 0.03411 0.0
H381 H 0.57344 0.1397 0.10494 0.0
H382 H 0.55816 0.20024 0.1327 0.0
H383 H 0.57525 0.24733 0.01793 0.0
H384 H 0.71206 0.16094 0.03932 0.0
H385 H 0.72536 0.10351 0.00355 0.0
O386 O 0.56744 0.13904 0.96367 0.0
C387 C 0.58697 0.171 0.88057 0.0
C388 C 0.67723 0.10655 0.96748 0.0
C389 C 0.69368 0.15108 0.01668 0.0
N390 N 0.63885 0.15814 0.97893 0.0
C391 C 0.6461 0.12672 0.95891 0.0
C392 C 0.66228 0.17053 0.00733 0.0
C393 C 0.70112 0.11886 0.99661 0.0
C394 C 0.52191 0.27293 0.90333 0.0
N395 N 0.52155 0.23996 0.8848 0.0
C396 C 0.5272 0.30475 0.88157 0.0
C397 C 0.53216 0.30266 0.84057 0.0
C398 C 0.53177 0.26894 0.82188 0.0
C399 C 0.52645 0.23769 0.8446 0.0
C400 C 0.42348 0.18866 0.843 0.0
C401 C 0.47935 0.14363 0.86738 0.0
C402 C 0.45056 0.20114 0.86859 0.0
N403 N 0.47815 0.17874 0.88029 0.0
C404 C 0.45274 0.1302 0.84178 0.0
C405 C 0.42466 0.15294 0.82952 0.0
C406 C 0.5342 0.12978 0.96019 0.0
C407 C 0.56594 0.22784 0.07699 0.0
C408 C 0.58287 0.16039 0.0459 0.0
C409 C 0.57381 0.16348 0.08607 0.0
C410 C 0.56528 0.19746 0.10164 0.0
N411 N 0.58349 0.19032 0.02193 0.0
C412 C 0.57517 0.22373 0.03698 0.0
Co413 Co 0.18413 0.40442 0.03239 0.0
Co414 Co 0.19434 0.48557 0.08013 0.0
O415 O 0.21219 0.4482 0.04387 0.0
C416 C 0.25593 0.37483 0.05479 0.0
O417 O 0.25456 0.39474 0.08711 0.0
C418 C 0.22072 0.52768 0.01005 0.0
O419 O 0.20746 0.5032 0.98578 0.0
O420 O 0.14915 0.4903 0.04843 0.0
O421 O 0.13712 0.43192 0.03505 0.0
H422 H 0.10047 0.54729 0.16486 0.0
H423 H 0.24473 0.42429 0.97873 0.0
O424 O 0.23015 0.3759 0.02959 0.0
H425 H 0.13559 0.42316 0.89394 0.0
H426 H 0.16012 0.28627 0.96221 0.0
H427 H 0.11659 0.37182 0.06432 0.0
H428 H 0.13126 0.40839 0.96528 0.0
H429 H 0.19406 0.34239 0.97657 0.0
O430 O 0.21777 0.52404 0.04749 0.0
H431 H 0.12403 0.4998 0.12015 0.0
H432 H 0.22643 0.55241 0.11571 0.0
H433 H 0.08163 0.31619 0.05067 0.0
H434 H 0.25036 0.43879 0.90742 0.0
H435 H 0.10338 0.27296 -0.00072 0.0
H436 H 0.1955 0.4384 0.86454 0.0
O437 O 0.18038 0.39314 0.09001 0.0
H438 H 0.32924 0.47491 0.09821 0.0
H439 H 0.21087 0.47675 0.16656 0.0
H440 H 0.26681 0.46845 0.20572 0.0
H441 H 0.32655 0.46756 0.17154 0.0
H442 H 0.27258 0.48279 0.06013 0.0
H443 H 0.20389 0.60062 0.16014 0.0
H444 H 0.14052 0.59817 0.18516 0.0
O445 O 0.17048 0.44872 0.11463 0.0
C446 C 0.12754 0.46514 0.0377 0.0
C447 C 0.12817 0.5486 0.15427 0.0
C448 C 0.1862 0.57855 0.15158 0.0
N449 N 0.17666 0.52315 0.11558 0.0
C450 C 0.1417 0.52173 0.12902 0.0
C451 C 0.19879 0.55121 0.12637 0.0
C452 C 0.15064 0.57715 0.16561 0.0
C453 C 0.22079 0.42373 0.96018 0.0
N454 N 0.18773 0.41544 0.97614 0.0
C455 C 0.22412 0.43211 0.91986 0.0
C456 C 0.19332 0.43194 0.89584 0.0
C457 C 0.15969 0.42344 0.91232 0.0
C458 C 0.15739 0.41524 0.95278 0.0
C459 C 0.15032 0.30494 0.98461 0.0
C460 C 0.12609 0.35326 0.04174 0.0
C461 C 0.16946 0.33672 0.99292 0.0
N462 N 0.15712 0.36051 0.021 0.0
C463 C 0.10625 0.32175 0.03422 0.0
C464 C 0.11848 0.29749 0.00541 0.0
C465 C 0.17079 0.41433 0.11796 0.0
C466 C 0.30338 0.47537 0.11346 0.0
C467 C 0.23674 0.47629 0.15143 0.0
C468 C 0.26834 0.47167 0.17379 0.0
C469 C 0.30185 0.47119 0.15459 0.0
N470 N 0.23847 0.48043 0.11109 0.0
C471 C 0.27122 0.47998 0.09207 0.0
H472 H 0.18879 0.34882 0.15207 0.0
H473 H 0.05252 0.37534 0.3322 0.0
H474 H 0.12535 0.44583 0.17094 0.0
H475 H 0.148 0.30849 0.34552 0.0
H476 H 0.07421 0.39482 0.26746 0.0
H477 H 0.16943 0.32676 0.21794 0.0
C478 C 0.17067 0.36528 0.1699 0.0
C479 C 0.15862 0.39916 0.15616 0.0
C480 C 0.09056 0.37601 0.28455 0.0
C481 C 0.13656 0.37427 0.23059 0.0
C482 C 0.07817 0.3648 0.32147 0.0
C483 C 0.09859 0.34034 0.34421 0.0
C484 C 0.12341 0.36233 0.26983 0.0
C485 C 0.13169 0.32766 0.32891 0.0
C486 C 0.15995 0.35287 0.20743 0.0
C487 C 0.13544 0.41964 0.18043 0.0
N488 N 0.14305 0.33861 0.29231 0.0
N489 N 0.12505 0.40679 0.21631 0.0
H490 H 0.35793 0.8483 0.62892 0.0
H491 H 0.34889 0.85262 0.86626 0.0
H492 H 0.30362 0.93264 0.69531 0.0
H493 H 0.43639 0.80245 0.80085 0.0
H494 H 0.32161 0.87143 0.80307 0.0
H495 H 0.37675 0.8205 0.69185 0.0
C496 C 0.34964 0.86076 0.65663 0.0
C497 C 0.32941 0.89302 0.65684 0.0
C498 C 0.34662 0.85599 0.80274 0.0
C499 C 0.35043 0.86123 0.72854 0.0
C500 C 0.36213 0.84516 0.83869 0.0
C501 C 0.39515 0.82619 0.83886 0.0
C502 C 0.364 0.84727 0.76684 0.0
C503 C 0.41112 0.81727 0.80222 0.0
C504 C 0.36044 0.84495 0.69243 0.0
C505 C 0.31943 0.90799 0.69365 0.0
N506 N 0.39542 0.82793 0.76768 0.0
N507 N 0.33005 0.89198 0.72803 0.0
H508 H 0.94087 0.69645 0.3024 0.0
H509 H 0.8029 0.56514 0.19822 0.0
H510 H 0.85325 0.64565 0.36689 0.0
H511 H 0.85673 0.65063 0.13335 0.0
H512 H 0.82287 0.59236 0.26029 0.0
H513 H 0.91251 0.67832 0.24011 0.0
C514 C 0.91554 0.68171 0.30353 0.0
C515 C 0.89951 0.6724 0.34001 0.0
C516 C 0.82995 0.60541 0.2325 0.0
C517 C 0.86718 0.65125 0.26868 0.0
C518 C 0.81869 0.5898 0.19696 0.0
C519 C 0.82826 0.60553 0.16044 0.0
C520 C 0.85162 0.63658 0.2316 0.0
C521 C 0.84873 0.6376 0.16082 0.0
C522 C 0.89929 0.67153 0.26789 0.0
C523 C 0.86657 0.65337 0.33949 0.0
N524 N 0.8602 0.65183 0.19592 0.0
N525 N 0.85171 0.64297 0.30434 0.0
H526 H 0.65125 0.19039 0.84486 0.0
H527 H 0.62945 0.04578 0.67175 0.0
H528 H 0.55784 0.12093 0.8314 0.0
H529 H 0.68857 0.14523 0.65188 0.0
H530 H 0.61133 0.06792 0.73678 0.0
H531 H 0.67373 0.169 0.77986 0.0
C532 C 0.63574 0.17047 0.82841 0.0
C533 C 0.60267 0.1574 0.84328 0.0
C534 C 0.62821 0.08496 0.71819 0.0
C535 C 0.62804 0.13299 0.76998 0.0
C536 C 0.63865 0.07234 0.68108 0.0
C537 C 0.66042 0.09381 0.65632 0.0
C538 C 0.63994 0.11914 0.73104 0.0
C539 C 0.67146 0.12804 0.67001 0.0
C540 C 0.64836 0.15858 0.7914 0.0
C541 C 0.58334 0.13188 0.82087 0.0
N542 N 0.66123 0.13968 0.70675 0.0
N543 N 0.5964 0.1204 0.78546 0.0
H544 H 0.24385 0.03721 0.44009 0.0
H545 H 0.17704 0.23636 0.50061 0.0
H546 H 0.27304 0.09348 0.54788 0.0
H547 H 0.13279 0.17888 0.39984 0.0
H548 H 0.21849 0.18645 0.51233 0.0
H549 H 0.20942 0.09114 0.41872 0.0
C550 C 0.24351 0.06108 0.45886 0.0
C551 C 0.26096 0.06089 0.49593 0.0
C552 C 0.19981 0.18461 0.48756 0.0
C553 C 0.22188 0.12209 0.47197 0.0
C554 C 0.17599 0.21318 0.48087 0.0
C555 C 0.15108 0.21169 0.44941 0.0
C556 C 0.1988 0.15397 0.46282 0.0
C557 C 0.15143 0.18103 0.4246 0.0
C558 C 0.22372 0.09167 0.44682 0.0
C559 C 0.25959 0.09232 0.51928 0.0
N560 N 0.1748 0.15317 0.43199 0.0
N561 N 0.24028 0.12148 0.507 0.0
H562 H 0.2414 0.81646 0.50397 0.0
H563 H 0.04051 0.75193 0.5596 0.0
H564 H 0.17928 0.86577 0.5985 0.0
H565 H 0.10054 0.71816 0.45591 0.0
H566 H 0.09404 0.78624 0.58211 0.0
H567 H 0.19294 0.77301 0.49372 0.0
C568 C 0.21751 0.81817 0.52265 0.0
C569 C 0.21419 0.84514 0.55179 0.0
C570 C 0.09552 0.77088 0.55474 0.0
C571 C 0.15822 0.79522 0.54007 0.0
C572 C 0.06517 0.75115 0.54209 0.0
C573 C 0.06617 0.73259 0.50572 0.0
C574 C 0.12688 0.77153 0.53091 0.0
C575 C 0.09855 0.73252 0.48391 0.0
C576 C 0.1898 0.79321 0.51683 0.0
C577 C 0.1828 0.84555 0.57549 0.0
N578 N 0.12746 0.75185 0.49672 0.0
N579 N 0.15577 0.82112 0.56886 0.0
H580 H 0.76029 0.96211 0.43602 0.0
H581 H 0.82541 0.76214 0.49573 0.0
H582 H 0.725 0.90268 0.53953 0.0
H583 H 0.87485 0.82215 0.39972 0.0
H584 H 0.783 0.81151 0.5059 0.0
H585 H 0.79684 0.90916 0.41583 0.0
C586 C 0.75983 0.93779 0.45409 0.0
C587 C 0.73999 0.9368 0.48967 0.0
C588 C 0.80303 0.81403 0.48251 0.0
C589 C 0.78136 0.87671 0.46704 0.0
C590 C 0.82739 0.78577 0.47673 0.0
C591 C 0.85401 0.78813 0.44707 0.0
C592 C 0.80522 0.84523 0.4587 0.0
C593 C 0.85485 0.81933 0.42308 0.0
C594 C 0.78078 0.90776 0.44274 0.0
C595 C 0.74032 0.9048 0.51216 0.0
N596 N 0.8309 0.84688 0.42958 0.0
N597 N 0.76075 0.87621 0.50056 0.0
H598 H 0.81935 0.12591 0.60193 0.0
H599 H 0.90682 0.26955 0.45228 0.0
H600 H 0.76645 0.16965 0.49784 0.0
H601 H 0.96141 0.23613 0.55972 0.0
H602 H 0.85427 0.23436 0.47155 0.0
H603 H 0.87095 0.16662 0.58973 0.0
C604 C 0.81851 0.14409 0.57665 0.0
C605 C 0.78861 0.14421 0.55073 0.0
C606 C 0.87754 0.23469 0.4912 0.0
C607 C 0.84723 0.19069 0.5368 0.0
C608 C 0.90767 0.25481 0.48014 0.0
C609 C 0.93866 0.25545 0.50427 0.0
C610 C 0.87826 0.21454 0.52658 0.0
C611 C 0.93798 0.23627 0.5403 0.0
C612 C 0.8479 0.16732 0.56979 0.0
C613 C 0.78892 0.16835 0.51853 0.0
N614 N 0.90829 0.21616 0.55025 0.0
N615 N 0.81773 0.19043 0.51249 0.0
H616 H 0.25488 0.53752 0.93774 0.0
H617 H 0.32881 0.73296 0.00262 0.0
H618 H 0.23091 0.59118 0.04871 0.0
H619 H 0.3687 0.67748 0.8983 0.0
H620 H 0.2878 0.68294 0.01513 0.0
H621 H 0.29161 0.59034 0.91786 0.0
C622 C 0.25702 0.5605 0.95765 0.0
C623 C 0.24014 0.55988 0.99505 0.0
C624 C 0.30544 0.68154 0.98943 0.0
C625 C 0.28177 0.6199 0.97271 0.0
C626 C 0.32898 0.7102 0.98226 0.0
C627 C 0.35246 0.70937 0.94947 0.0
C628 C 0.30523 0.65151 0.96378 0.0
C629 C 0.35113 0.67916 0.92403 0.0
C630 C 0.27807 0.59046 0.94642 0.0
C631 C 0.24381 0.59024 0.01981 0.0
N632 N 0.32796 0.65127 0.9318 0.0
N633 N 0.26422 0.61883 0.00824 0.0
H634 H 0.67821 0.63473 0.10287 0.0
H635 H 0.59798 0.78057 0.95137 0.0
H636 H 0.73624 0.67936 0.00265 0.0
H637 H 0.53964 0.74681 0.05617 0.0
H638 H 0.65072 0.74692 0.97403 0.0
H639 H 0.62864 0.6778 0.09017 0.0
C640 C 0.68063 0.65366 0.0784 0.0
C641 C 0.71126 0.65318 0.05353 0.0
C642 C 0.62662 0.74701 0.99246 0.0
C643 C 0.65495 0.7024 0.03904 0.0
C644 C 0.59649 0.76631 0.9795 0.0
C645 C 0.56441 0.76618 0.00183 0.0
C646 C 0.62463 0.7268 0.02776 0.0
C647 C 0.56399 0.74755 0.03819 0.0
C648 C 0.6524 0.67826 0.07124 0.0
C649 C 0.71305 0.67839 0.02237 0.0
N650 N 0.59358 0.72805 0.04983 0.0
N651 N 0.68527 0.70175 0.01596 0.0
H652 H 0.74388 0.46184 0.9418 0.0
H653 H 0.67538 0.26345 0.00299 0.0
H654 H 0.77079 0.40646 0.05092 0.0
H655 H 0.63523 0.31911 0.8989 0.0
H656 H 0.71589 0.31381 0.01592 0.0
H657 H 0.70968 0.40788 0.92031 0.0
C658 C 0.74306 0.43818 0.96088 0.0
C659 C 0.75984 0.43865 0.99832 0.0
C660 C 0.69832 0.31515 0.99016 0.0
C661 C 0.72099 0.37738 0.97422 0.0
C662 C 0.67504 0.28632 0.98277 0.0
C663 C 0.65159 0.28714 0.94997 0.0
C664 C 0.69824 0.34537 0.96476 0.0
C665 C 0.65275 0.31745 0.92466 0.0
C666 C 0.7234 0.40757 0.94876 0.0
C667 C 0.75786 0.40745 0.02204 0.0
N668 N 0.67559 0.34555 0.93271 0.0
N669 N 0.7387 0.37827 0.00967 0.0
H670 H 0.45941 0.25314 0.05915 0.0
H671 H 0.2656 0.32985 0.99157 0.0
H672 H 0.41072 0.23736 0.94374 0.0
H673 H 0.31736 0.36445 0.10032 0.0
H674 H 0.31687 0.29064 0.97791 0.0
H675 H 0.40585 0.28891 0.07909 0.0
C676 C 0.43742 0.25694 0.0382 0.0
C677 C 0.43962 0.24254 -0.00035 0.0
C678 C 0.31718 0.30675 0.00481 0.0
C679 C 0.37875 0.28303 0.02208 0.0
C680 C 0.28779 0.32924 0.01267 0.0
C681 C 0.28721 0.3507 0.04707 0.0
C682 C 0.3465 0.30553 0.03143 0.0
C683 C 0.31678 0.34846 0.07335 0.0
C684 C 0.40703 0.27743 0.04949 0.0
C685 C 0.41047 0.24829 0.9736 0.0
N686 N 0.34538 0.3263 0.06493 0.0
N687 N 0.38141 0.26804 0.98528 0.0
H688 H 0.03863 0.60056 0.4437 0.0
H689 H 0.96506 0.39938 0.46727 0.0
H690 H 0.92887 0.57669 0.4804 0.0
H691 H 0.07914 0.42574 0.47293 0.0
H692 H 0.95081 0.46413 0.46981 0.0
H693 H 0.05388 0.53634 0.45149 0.0
C694 C 0.01779 0.58193 0.45357 0.0
C695 C 0.98236 0.59412 0.4612 0.0
C696 C 0.97894 0.45565 0.47092 0.0
C697 C -0.00041 0.52057 0.46982 0.0
C698 C 0.9871 0.41869 0.46947 0.0
C699 C 0.02337 0.40699 0.46967 0.0
C700 C 0.00722 0.48115 0.47197 0.0
C701 C 0.05078 0.43337 0.47258 0.0
C702 C 0.02655 0.5453 0.45813 0.0
C703 C 0.95652 0.56864 0.47406 0.0
N704 N 0.04215 0.46919 0.47313 0.0
N705 N 0.96556 0.53307 0.47757 0.0
H706 H 0.59776 0.96399 0.52653 0.0
H707 H 0.39632 0.03496 0.55766 0.0
H708 H 0.57128 0.07809 0.53045 0.0
H709 H 0.42105 0.92809 0.51238 0.0
H710 H 0.46034 0.05131 0.55012 0.0
H711 H 0.53305 0.94998 0.5233 0.0
C712 C 0.57841 0.98612 0.52633 0.0
C713 C 0.59006 0.02227 0.52895 0.0
C714 C 0.45159 0.02441 0.54153 0.0
C715 C 0.51588 0.00635 0.52585 0.0
C716 C 0.41507 0.01501 0.5459 0.0
C717 C 0.40319 0.98001 0.53589 0.0
C718 C 0.47649 0.99847 0.52759 0.0
C719 C 0.42882 0.95535 0.52068 0.0
C720 C 0.54145 0.9781 0.52445 0.0
C721 C 0.56363 0.04981 0.5285 0.0
N722 N 0.46425 0.96494 0.5174 0.0
N723 N 0.52778 0.04126 0.5275 0.0
H724 H 0.5806 0.07248 0.97099 0.0
H725 H 0.42473 0.92249 0.9765 0.0
H726 H 0.46654 0.09844 0.96207 0.0
H727 H 0.5351 0.89896 0.94158 0.0
H728 H 0.44085 0.9863 0.98359 0.0
H729 H 0.56518 0.00815 0.97298 0.0
C730 C 0.55227 0.06478 0.96991 0.0
C731 C 0.52482 0.09106 0.96608 0.0
C732 C 0.46153 0.96712 0.97452 0.0
C733 C 0.50713 0.01727 0.96842 0.0
C734 C 0.45244 0.93061 0.97055 0.0
C735 C 0.47856 0.9052 0.95814 0.0
C736 C 0.49712 0.9784 0.96655 0.0
C737 C 0.51401 0.91754 0.95097 0.0
C738 C 0.54356 0.02798 0.97084 0.0
C739 C 0.48862 0.07922 0.96484 0.0
N740 N 0.52225 0.95328 0.95529 0.0
N741 N 0.48084 0.04319 0.96594 0.0
H742 H 0.07033 0.41817 0.03012 0.0
H743 H 0.92021 0.57387 0.01756 0.0
H744 H 0.09587 0.53248 0.0326 0.0
H745 H 0.89652 0.46529 0.05831 0.0
H746 H 0.98381 0.55706 0.01043 0.0
H747 H 0.00585 0.43338 0.02772 0.0
C748 C 0.06249 0.44648 0.02971 0.0
C749 C 0.08869 0.47411 0.03183 0.0
C750 C 0.96465 0.53689 0.02076 0.0
C751 C 0.01479 0.49154 0.02898 0.0
C752 C 0.92823 0.54638 0.02477 0.0
C753 C 0.90283 0.52102 0.03889 0.0
C754 C 0.9759 0.50166 0.03048 0.0
C755 C 0.91508 0.48581 0.04756 0.0
C756 C 0.02562 0.45508 0.02853 0.0
C757 C 0.07671 0.51027 0.0312 0.0
N758 N 0.95078 0.47718 0.04325 0.0
N759 N 0.04064 0.51793 0.02988 0.0
loop_
_geom_bond_atom_site_label_1
_geom_bond_atom_site_label_2
_geom_bond_distance
_geom_bond_site_symmetry_2
_ccdc_geom_bond_type
Co0 O2 2.143 . S
Co0 O8 2.074 . S
Co0 O11 2.093 1_455 S
Co0 O24 2.097 . S
Co0 N41 2.151 . S
Co0 N49 2.214 1_455 S
Co1 O2 2.160 . S
Co1 O7 2.058 . S
Co1 O17 2.057 . S
Co1 O32 2.037 . S
Co1 N36 2.145 . S
Co1 N57 2.257 . S
O2 Co0 2.143 . S
O2 Co1 2.160 . S
C3 O4 1.278 1_655 S
C3 O11 1.224 . S
O4 C3 1.278 1_455 S
C5 O6 1.245 . S
C5 O17 1.232 . S
O6 C5 1.245 . S
O7 Co1 2.058 . S
O7 C33 1.269 . S
O8 Co0 2.074 . S
O8 C33 1.257 . S
H9 C34 0.930 . S
H10 C40 0.930 . S
O11 Co0 2.093 1_655 S
O11 C3 1.224 . S
H12 C44 0.929 . S
H13 C46 0.930 . S
H14 C47 0.930 1_455 S
H15 C45 0.929 . S
H16 C48 0.928 . S
O17 Co1 2.057 . S
O17 C5 1.232 . S
H18 C37 0.929 . S
H19 C38 0.929 . S
H20 C50 0.931 . S
H21 C42 0.929 . S
H22 C51 0.930 . S
H23 C43 0.931 . S
O24 Co0 2.097 . S
O24 C52 1.214 . S
H25 C53 0.929 . S
H26 C54 0.929 . S
H27 C55 0.930 . S
H28 C56 0.929 . S
H29 C58 0.930 . S
H30 C35 0.930 . S
H31 C39 0.930 . S
O32 Co1 2.037 . S
O32 C52 1.234 . S
C33 O7 1.269 . S
C33 O8 1.257 . S
C34 H9 0.930 . S
C34 C37 1.388 . S
C34 C39 1.418 . S
C35 H30 0.930 . S
C35 C38 1.404 . S
C35 C39 1.353 . S
N36 Co1 2.145 . S
N36 C37 1.397 . S
N36 C38 1.334 . S
C37 H18 0.929 . S
C37 C34 1.388 . S
C37 N36 1.397 . S
C38 H19 0.929 . S
C38 C35 1.404 . S
C38 N36 1.334 . S
C39 H31 0.930 . S
C39 C34 1.418 . S
C39 C35 1.353 . S
C40 H10 0.930 . S
C40 N41 1.330 . S
C40 C42 1.446 . S
N41 Co0 2.151 . S
N41 C40 1.330 . S
N41 C45 1.418 . S
C42 H21 0.929 . S
C42 C40 1.446 . S
C42 C43 1.332 . S
C43 H23 0.931 . S
C43 C42 1.332 . S
C43 C44 1.267 . S
C44 H12 0.929 . S
C44 C43 1.267 . S
C44 C45 1.251 . S
C45 H15 0.929 . S
C45 N41 1.418 . S
C45 C44 1.251 . S
C46 H13 0.930 . S
C46 C48 1.406 . S
C46 C51 1.261 . S
C47 H14 0.930 1_655 S
C47 N49 1.325 . S
C47 C50 1.357 . S
C48 H16 0.928 . S
C48 C46 1.406 . S
C48 N49 1.261 . S
N49 Co0 2.214 1_655 S
N49 C47 1.325 . S
N49 C48 1.261 . S
C50 H20 0.931 . S
C50 C47 1.357 . S
C50 C51 1.312 . S
C51 H22 0.930 . S
C51 C46 1.261 . S
C51 C50 1.312 . S
C52 O24 1.214 . S
C52 O32 1.234 . S
C53 H25 0.929 . S
C53 C56 1.391 . S
C53 C58 1.391 . S
C54 H26 0.929 . S
C54 C55 1.390 . S
C54 N57 1.391 . S
C55 H27 0.930 . S
C55 C54 1.390 . S
C55 C56 1.392 . S
C56 H28 0.929 . S
C56 C53 1.391 . S
C56 C55 1.392 . S
N57 Co1 2.257 . S
N57 C54 1.391 . S
N57 C58 1.388 . S
C58 H29 0.930 . S
C58 C53 1.391 . S
C58 N57 1.388 . S
Co59 O61 2.143 . S
Co59 O67 2.074 . S
Co59 O70 2.093 1_565 S
Co59 O83 2.097 . S
Co59 N100 2.151 . S
Co59 N108 2.214 1_565 S
Co60 O61 2.160 . S
Co60 O66 2.058 . S
Co60 O76 2.057 . S
Co60 O91 2.037 . S
Co60 N95 2.145 . S
Co60 N116 2.257 . S
O61 Co59 2.143 . S
O61 Co60 2.160 . S
C62 O63 1.278 1_545 S
C62 O70 1.224 . S
O63 C62 1.278 1_565 S
C64 O65 1.245 . S
C64 O76 1.232 . S
O65 C64 1.245 . S
O66 Co60 2.058 . S
O66 C92 1.269 . S
O67 Co59 2.074 . S
O67 C92 1.257 . S
H68 C93 0.930 . S
H69 C99 0.930 . S
O70 Co59 2.093 1_545 S
O70 C62 1.224 . S
H71 C103 0.929 . S
H72 C105 0.930 . S
H73 C106 0.930 1_565 S
H74 C104 0.929 . S
H75 C107 0.928 . S
O76 Co60 2.057 . S
O76 C64 1.232 . S
H77 C96 0.929 . S
H78 C97 0.929 . S
H79 C109 0.931 . S
H80 C101 0.929 . S
H81 C110 0.930 . S
H82 C102 0.931 . S
O83 Co59 2.097 . S
O83 C111 1.214 . S
H84 C112 0.929 . S
H85 C113 0.929 . S
H86 C114 0.930 . S
H87 C115 0.929 . S
H88 C117 0.930 . S
H89 C94 0.930 . S
H90 C98 0.930 . S
O91 Co60 2.037 . S
O91 C111 1.234 . S
C92 O66 1.269 . S
C92 O67 1.257 . S
C93 H68 0.930 . S
C93 C96 1.388 . S
C93 C98 1.418 . S
C94 H89 0.930 . S
C94 C97 1.404 . S
C94 C98 1.353 . S
N95 Co60 2.145 . S
N95 C96 1.397 . S
N95 C97 1.334 . S
C96 H77 0.929 . S
C96 C93 1.388 . S
C96 N95 1.397 . S
C97 H78 0.929 . S
C97 C94 1.404 . S
C97 N95 1.334 . S
C98 H90 0.930 . S
C98 C93 1.418 . S
C98 C94 1.353 . S
C99 H69 0.930 . S
C99 N100 1.330 . S
C99 C101 1.446 . S
N100 Co59 2.151 . S
N100 C99 1.330 . S
N100 C104 1.418 . S
C101 H80 0.929 . S
C101 C99 1.446 . S
C101 C102 1.332 . S
C102 H82 0.931 . S
C102 C101 1.332 . S
C102 C103 1.267 . S
C103 H71 0.929 . S
C103 C102 1.267 . S
C103 C104 1.251 . S
C104 H74 0.929 . S
C104 N100 1.418 . S
C104 C103 1.251 . S
C105 H72 0.930 . S
C105 C107 1.406 . S
C105 C110 1.261 . S
C106 H73 0.930 1_545 S
C106 N108 1.325 . S
C106 C109 1.357 . S
C107 H75 0.928 . S
C107 C105 1.406 . S
C107 N108 1.261 . S
N108 Co59 2.214 1_545 S
N108 C106 1.325 . S
N108 C107 1.261 . S
C109 H79 0.931 . S
C109 C106 1.357 . S
C109 C110 1.312 . S
C110 H81 0.930 . S
C110 C105 1.261 . S
C110 C109 1.312 . S
C111 O83 1.214 . S
C111 O91 1.234 . S
C112 H84 0.929 . S
C112 C115 1.391 . S
C112 C117 1.391 . S
C113 H85 0.929 . S
C113 C114 1.390 . S
C113 N116 1.391 . S
C114 H86 0.930 . S
C114 C113 1.390 . S
C114 C115 1.392 . S
C115 H87 0.929 . S
C115 C112 1.391 . S
C115 C114 1.392 . S
N116 Co60 2.257 . S
N116 C113 1.391 . S
N116 C117 1.388 . S
C117 H88 0.930 . S
C117 C112 1.391 . S
C117 N116 1.388 . S
Co118 O120 2.143 . S
Co118 O126 2.074 . S
Co118 O129 2.093 1_655 S
Co118 O142 2.097 . S
Co118 N159 2.151 . S
Co118 N167 2.214 1_655 S
Co119 O120 2.160 . S
Co119 O125 2.058 . S
Co119 O135 2.057 . S
Co119 O150 2.037 . S
Co119 N154 2.145 . S
Co119 N175 2.257 . S
O120 Co118 2.143 . S
O120 Co119 2.160 . S
C121 O122 1.278 1_455 S
C121 O129 1.224 . S
O122 C121 1.278 1_655 S
C123 O124 1.245 . S
C123 O135 1.232 . S
O124 C123 1.245 . S
O125 Co119 2.058 . S
O125 C151 1.269 . S
O126 Co118 2.074 . S
O126 C151 1.257 . S
H127 C152 0.930 . S
H128 C158 0.930 . S
O129 Co118 2.093 1_455 S
O129 C121 1.224 . S
H130 C162 0.929 . S
H131 C164 0.930 . S
H132 C165 0.930 1_655 S
H133 C163 0.929 . S
H134 C166 0.928 . S
O135 Co119 2.057 . S
O135 C123 1.232 . S
H136 C155 0.929 . S
H137 C156 0.929 . S
H138 C168 0.931 . S
H139 C160 0.929 . S
H140 C169 0.930 . S
H141 C161 0.931 . S
O142 Co118 2.097 . S
O142 C170 1.214 . S
H143 C171 0.929 . S
H144 C172 0.929 . S
H145 C173 0.930 . S
H146 C174 0.929 . S
H147 C176 0.930 . S
H148 C153 0.930 . S
H149 C157 0.930 . S
O150 Co119 2.037 . S
O150 C170 1.234 . S
C151 O125 1.269 . S
C151 O126 1.257 . S
C152 H127 0.930 . S
C152 C155 1.388 . S
C152 C157 1.418 . S
C153 H148 0.930 . S
C153 C156 1.404 . S
C153 C157 1.353 . S
N154 Co119 2.145 . S
N154 C155 1.397 . S
N154 C156 1.334 . S
C155 H136 0.929 . S
C155 C152 1.388 . S
C155 N154 1.397 . S
C156 H137 0.929 . S
C156 C153 1.404 . S
C156 N154 1.334 . S
C157 H149 0.930 . S
C157 C152 1.418 . S
C157 C153 1.353 . S
C158 H128 0.930 . S
C158 N159 1.330 . S
C158 C160 1.446 . S
N159 Co118 2.151 . S
N159 C158 1.330 . S
N159 C163 1.418 . S
C160 H139 0.929 . S
C160 C158 1.446 . S
C160 C161 1.332 . S
C161 H141 0.931 . S
C161 C160 1.332 . S
C161 C162 1.267 . S
C162 H130 0.929 . S
C162 C161 1.267 . S
C162 C163 1.251 . S
C163 H133 0.929 . S
C163 N159 1.418 . S
C163 C162 1.251 . S
C164 H131 0.930 . S
C164 C166 1.406 . S
C164 C169 1.261 . S
C165 H132 0.930 1_455 S
C165 N167 1.325 . S
C165 C168 1.357 . S
C166 H134 0.928 . S
C166 C164 1.406 . S
C166 N167 1.261 . S
N167 Co118 2.214 1_455 S
N167 C165 1.325 . S
N167 C166 1.261 . S
C168 H138 0.931 . S
C168 C165 1.357 . S
C168 C169 1.312 . S
C169 H140 0.930 . S
C169 C164 1.261 . S
C169 C168 1.312 . S
C170 O142 1.214 . S
C170 O150 1.234 . S
C171 H143 0.929 . S
C171 C174 1.391 . S
C171 C176 1.391 . S
C172 H144 0.929 . S
C172 C173 1.390 . S
C172 N175 1.391 . S
C173 H145 0.930 . S
C173 C172 1.390 . S
C173 C174 1.392 . S
C174 H146 0.929 . S
C174 C171 1.391 . S
C174 C173 1.392 . S
N175 Co119 2.257 . S
N175 C172 1.391 . S
N175 C176 1.388 . S
C176 H147 0.930 . S
C176 C171 1.391 . S
C176 N175 1.388 . S
Co177 O179 2.143 . S
Co177 O185 2.074 . S
Co177 O188 2.093 1_545 S
Co177 O201 2.097 . S
Co177 N218 2.151 . S
Co177 N226 2.214 1_545 S
Co178 O179 2.160 . S
Co178 O184 2.058 . S
Co178 O194 2.057 . S
Co178 O209 2.037 . S
Co178 N213 2.145 . S
Co178 N234 2.257 . S
O179 Co177 2.143 . S
O179 Co178 2.160 . S
C180 O181 1.278 1_565 S
C180 O188 1.224 . S
O181 C180 1.278 1_545 S
C182 O183 1.245 . S
C182 O194 1.232 . S
O183 C182 1.245 . S
O184 Co178 2.058 . S
O184 C210 1.269 . S
O185 Co177 2.074 . S
O185 C210 1.257 . S
H186 C211 0.930 . S
H187 C217 0.930 . S
O188 Co177 2.093 1_565 S
O188 C180 1.224 . S
H189 C221 0.929 . S
H190 C223 0.930 . S
H191 C224 0.930 1_545 S
H192 C222 0.929 . S
H193 C225 0.928 . S
O194 Co178 2.057 . S
O194 C182 1.232 . S
H195 C214 0.929 . S
H196 C215 0.929 . S
H197 C227 0.931 . S
H198 C219 0.929 . S
H199 C228 0.930 . S
H200 C220 0.931 . S
O201 Co177 2.097 . S
O201 C229 1.214 . S
H202 C230 0.929 . S
H203 C231 0.929 . S
H204 C232 0.930 . S
H205 C233 0.929 . S
H206 C235 0.930 . S
H207 C212 0.930 . S
H208 C216 0.930 . S
O209 Co178 2.037 . S
O209 C229 1.234 . S
C210 O184 1.269 . S
C210 O185 1.257 . S
C211 H186 0.930 . S
C211 C214 1.388 . S
C211 C216 1.418 . S
C212 H207 0.930 . S
C212 C215 1.404 . S
C212 C216 1.353 . S
N213 Co178 2.145 . S
N213 C214 1.397 . S
N213 C215 1.334 . S
C214 H195 0.929 . S
C214 C211 1.388 . S
C214 N213 1.397 . S
C215 H196 0.929 . S
C215 C212 1.404 . S
C215 N213 1.334 . S
C216 H208 0.930 . S
C216 C211 1.418 . S
C216 C212 1.353 . S
C217 H187 0.930 . S
C217 N218 1.330 . S
C217 C219 1.446 . S
N218 Co177 2.151 . S
N218 C217 1.330 . S
N218 C222 1.418 . S
C219 H198 0.929 . S
C219 C217 1.446 . S
C219 C220 1.332 . S
C220 H200 0.931 . S
C220 C219 1.332 . S
C220 C221 1.267 . S
C221 H189 0.929 . S
C221 C220 1.267 . S
C221 C222 1.251 . S
C222 H192 0.929 . S
C222 N218 1.418 . S
C222 C221 1.251 . S
C223 H190 0.930 . S
C223 C225 1.406 . S
C223 C228 1.261 . S
C224 H191 0.930 1_565 S
C224 N226 1.325 . S
C224 C227 1.357 . S
C225 H193 0.928 . S
C225 C223 1.406 . S
C225 N226 1.261 . S
N226 Co177 2.214 1_565 S
N226 C224 1.325 . S
N226 C225 1.261 . S
C227 H197 0.931 . S
C227 C224 1.357 . S
C227 C228 1.312 . S
C228 H199 0.930 . S
C228 C223 1.261 . S
C228 C227 1.312 . S
C229 O201 1.214 . S
C229 O209 1.234 . S
C230 H202 0.929 . S
C230 C233 1.391 . S
C230 C235 1.391 . S
C231 H203 0.929 . S
C231 C232 1.390 . S
C231 N234 1.391 . S
C232 H204 0.930 . S
C232 C231 1.390 . S
C232 C233 1.392 . S
C233 H205 0.929 . S
C233 C230 1.391 . S
C233 C232 1.392 . S
N234 Co178 2.257 . S
N234 C231 1.391 . S
N234 C235 1.388 . S
C235 H206 0.930 . S
C235 C230 1.391 . S
C235 N234 1.388 . S
Co236 O238 2.143 . S
Co236 O244 2.074 . S
Co236 O247 2.093 . S
Co236 O260 2.097 . S
Co236 N277 2.151 . S
Co236 N285 2.214 . S
Co237 O238 2.160 . S
Co237 O243 2.058 . S
Co237 O253 2.057 . S
Co237 O268 2.037 . S
Co237 N272 2.145 . S
Co237 N293 2.257 1_556 S
O238 Co236 2.143 . S
O238 Co237 2.160 . S
C239 O240 1.278 1_556 S
C239 O247 1.224 . S
O240 C239 1.278 1_554 S
C241 O242 1.245 . S
C241 O253 1.232 . S
O242 C241 1.245 . S
O243 Co237 2.058 . S
O243 C269 1.269 . S
O244 Co236 2.074 . S
O244 C269 1.257 . S
H245 C270 0.930 . S
H246 C276 0.930 . S
O247 Co236 2.093 . S
O247 C239 1.224 . S
H248 C280 0.929 . S
H249 C282 0.930 . S
H250 C283 0.930 . S
H251 C281 0.929 . S
H252 C284 0.928 . S
O253 Co237 2.057 . S
O253 C241 1.232 . S
H254 C273 0.929 . S
H255 C274 0.929 . S
H256 C286 0.931 . S
H257 C278 0.929 . S
H258 C287 0.930 . S
H259 C279 0.931 . S
O260 Co236 2.097 . S
O260 C288 1.214 . S
H261 C289 0.929 . S
H262 C290 0.929 . S
H263 C291 0.930 . S
H264 C292 0.929 . S
H265 C294 0.930 . S
H266 C271 0.930 . S
H267 C275 0.930 . S
O268 Co237 2.037 . S
O268 C288 1.234 . S
C269 O243 1.269 . S
C269 O244 1.257 . S
C270 H245 0.930 . S
C270 C273 1.388 . S
C270 C275 1.418 1_556 S
C271 H266 0.930 . S
C271 C274 1.404 . S
C271 C275 1.353 . S
N272 Co237 2.145 . S
N272 C273 1.397 . S
N272 C274 1.334 1_556 S
C273 H254 0.929 . S
C273 C270 1.388 . S
C273 N272 1.397 . S
C274 H255 0.929 . S
C274 C271 1.404 . S
C274 N272 1.334 1_554 S
C275 H267 0.930 . S
C275 C270 1.418 1_554 S
C275 C271 1.353 . S
C276 H246 0.930 . S
C276 N277 1.330 . S
C276 C278 1.446 . S
N277 Co236 2.151 . S
N277 C276 1.330 . S
N277 C281 1.418 . S
C278 H257 0.929 . S
C278 C276 1.446 . S
C278 C279 1.332 . S
C279 H259 0.931 . S
C279 C278 1.332 . S
C279 C280 1.267 . S
C280 H248 0.929 . S
C280 C279 1.267 . S
C280 C281 1.251 . S
C281 H251 0.929 . S
C281 N277 1.418 . S
C281 C280 1.251 . S
C282 H249 0.930 . S
C282 C284 1.406 . S
C282 C287 1.261 . S
C283 H250 0.930 . S
C283 N285 1.325 . S
C283 C286 1.357 . S
C284 H252 0.928 . S
C284 C282 1.406 . S
C284 N285 1.261 . S
N285 Co236 2.214 . S
N285 C283 1.325 . S
N285 C284 1.261 . S
C286 H256 0.931 . S
C286 C283 1.357 . S
C286 C287 1.312 . S
C287 H258 0.930 . S
C287 C282 1.261 . S
C287 C286 1.312 . S
C288 O260 1.214 . S
C288 O268 1.234 . S
C289 H261 0.929 . S
C289 C292 1.391 . S
C289 C294 1.391 . S
C290 H262 0.929 . S
C290 C291 1.390 . S
C290 N293 1.391 . S
C291 H263 0.930 . S
C291 C290 1.390 . S
C291 C292 1.392 . S
C292 H264 0.929 . S
C292 C289 1.391 . S
C292 C291 1.392 . S
N293 Co237 2.257 1_554 S
N293 C290 1.391 . S
N293 C294 1.388 . S
C294 H265 0.930 . S
C294 C289 1.391 . S
C294 N293 1.388 . S
Co295 O297 2.143 . S
Co295 O303 2.074 . S
Co295 O306 2.093 . S
Co295 O319 2.097 . S
Co295 N336 2.151 1_554 S
Co295 N344 2.214 . S
Co296 O297 2.160 . S
Co296 O302 2.058 . S
Co296 O312 2.057 . S
Co296 O327 2.037 . S
Co296 N331 2.145 . S
Co296 N352 2.257 . S
O297 Co295 2.143 . S
O297 Co296 2.160 . S
C298 O299 1.278 . S
C298 O306 1.224 . S
O299 C298 1.278 . S
C300 O301 1.245 1_554 S
C300 O312 1.232 . S
O301 C300 1.245 1_556 S
O302 Co296 2.058 . S
O302 C328 1.269 . S
O303 Co295 2.074 . S
O303 C328 1.257 . S
H304 C329 0.930 . S
H305 C335 0.930 . S
O306 Co295 2.093 . S
O306 C298 1.224 . S
H307 C339 0.929 . S
H308 C341 0.930 . S
H309 C342 0.930 . S
H310 C340 0.929 . S
H311 C343 0.928 . S
O312 Co296 2.057 . S
O312 C300 1.232 . S
H313 C332 0.929 . S
H314 C333 0.929 . S
H315 C345 0.931 . S
H316 C337 0.929 . S
H317 C346 0.930 . S
H318 C338 0.931 . S
O319 Co295 2.097 . S
O319 C347 1.214 . S
H320 C348 0.929 . S
H321 C349 0.929 . S
H322 C350 0.930 . S
H323 C351 0.929 . S
H324 C353 0.930 . S
H325 C330 0.930 . S
H326 C334 0.930 . S
O327 Co296 2.037 . S
O327 C347 1.234 . S
C328 O302 1.269 . S
C328 O303 1.257 . S
C329 H304 0.930 . S
C329 C332 1.388 . S
C329 C334 1.418 . S
C330 H325 0.930 . S
C330 C333 1.404 . S
C330 C334 1.353 . S
N331 Co296 2.145 . S
N331 C332 1.397 . S
N331 C333 1.334 . S
C332 H313 0.929 . S
C332 C329 1.388 . S
C332 N331 1.397 . S
C333 H314 0.929 . S
C333 C330 1.404 . S
C333 N331 1.334 . S
C334 H326 0.930 . S
C334 C329 1.418 . S
C334 C330 1.353 . S
C335 H305 0.930 . S
C335 N336 1.330 . S
C335 C337 1.446 . S
N336 Co295 2.151 1_556 S
N336 C335 1.330 . S
N336 C340 1.418 . S
C337 H316 0.929 . S
C337 C335 1.446 . S
C337 C338 1.332 . S
C338 H318 0.931 . S
C338 C337 1.332 . S
C338 C339 1.267 . S
C339 H307 0.929 . S
C339 C338 1.267 . S
C339 C340 1.251 . S
C340 H310 0.929 . S
C340 N336 1.418 . S
C340 C339 1.251 . S
C341 H308 0.930 . S
C341 C343 1.406 . S
C341 C346 1.261 1_556 S
C342 H309 0.930 . S
C342 N344 1.325 . S
C342 C345 1.357 . S
C343 H311 0.928 . S
C343 C341 1.406 . S
C343 N344 1.261 1_556 S
N344 Co295 2.214 . S
N344 C342 1.325 . S
N344 C343 1.261 1_554 S
C345 H315 0.931 . S
C345 C342 1.357 . S
C345 C346 1.312 . S
C346 H317 0.930 . S
C346 C341 1.261 1_554 S
C346 C345 1.312 . S
C347 O319 1.214 . S
C347 O327 1.234 . S
C348 H320 0.929 . S
C348 C351 1.391 . S
C348 C353 1.391 . S
C349 H321 0.929 . S
C349 C350 1.390 . S
C349 N352 1.391 . S
C350 H322 0.930 . S
C350 C349 1.390 . S
C350 C351 1.392 . S
C351 H323 0.929 . S
C351 C348 1.391 . S
C351 C350 1.392 . S
N352 Co296 2.257 . S
N352 C349 1.391 . S
N352 C353 1.388 . S
C353 H324 0.930 . S
C353 C348 1.391 . S
C353 N352 1.388 . S
Co354 O356 2.143 . S
Co354 O362 2.074 . S
Co354 O365 2.093 . S
Co354 O378 2.097 . S
Co354 N395 2.151 . S
Co354 N403 2.214 . S
Co355 O356 2.160 . S
Co355 O361 2.058 . S
Co355 O371 2.057 . S
Co355 O386 2.037 . S
Co355 N390 2.145 . S
Co355 N411 2.257 1_556 S
O356 Co354 2.143 . S
O356 Co355 2.160 . S
C357 O358 1.278 1_556 S
C357 O365 1.224 . S
O358 C357 1.278 1_554 S
C359 O360 1.245 . S
C359 O371 1.232 . S
O360 C359 1.245 . S
O361 Co355 2.058 . S
O361 C387 1.269 . S
O362 Co354 2.074 . S
O362 C387 1.257 . S
H363 C388 0.930 . S
H364 C394 0.930 . S
O365 Co354 2.093 . S
O365 C357 1.224 . S
H366 C398 0.929 . S
H367 C400 0.930 . S
H368 C401 0.930 . S
H369 C399 0.929 . S
H370 C402 0.928 . S
O371 Co355 2.057 . S
O371 C359 1.232 . S
H372 C391 0.929 . S
H373 C392 0.929 . S
H374 C404 0.931 . S
H375 C396 0.929 . S
H376 C405 0.930 . S
H377 C397 0.931 . S
O378 Co354 2.097 . S
O378 C406 1.214 . S
H379 C407 0.929 . S
H380 C408 0.929 . S
H381 C409 0.930 . S
H382 C410 0.929 . S
H383 C412 0.930 . S
H384 C389 0.930 . S
H385 C393 0.930 . S
O386 Co355 2.037 . S
O386 C406 1.234 . S
C387 O361 1.269 . S
C387 O362 1.257 . S
C388 H363 0.930 . S
C388 C391 1.388 . S
C388 C393 1.418 1_556 S
C389 H384 0.930 . S
C389 C392 1.404 . S
C389 C393 1.353 . S
N390 Co355 2.145 . S
N390 C391 1.397 . S
N390 C392 1.334 1_556 S
C391 H372 0.929 . S
C391 C388 1.388 . S
C391 N390 1.397 . S
C392 H373 0.929 . S
C392 C389 1.404 . S
C392 N390 1.334 1_554 S
C393 H385 0.930 . S
C393 C388 1.418 1_554 S
C393 C389 1.353 . S
C394 H364 0.930 . S
C394 N395 1.330 . S
C394 C396 1.446 . S
N395 Co354 2.151 . S
N395 C394 1.330 . S
N395 C399 1.418 . S
C396 H375 0.929 . S
C396 C394 1.446 . S
C396 C397 1.332 . S
C397 H377 0.931 . S
C397 C396 1.332 . S
C397 C398 1.267 . S
C398 H366 0.929 . S
C398 C397 1.267 . S
C398 C399 1.251 . S
C399 H369 0.929 . S
C399 N395 1.418 . S
C399 C398 1.251 . S
C400 H367 0.930 . S
C400 C402 1.406 . S
C400 C405 1.261 . S
C401 H368 0.930 . S
C401 N403 1.325 . S
C401 C404 1.357 . S
C402 H370 0.928 . S
C402 C400 1.406 . S
C402 N403 1.261 . S
N403 Co354 2.214 . S
N403 C401 1.325 . S
N403 C402 1.261 . S
C404 H374 0.931 . S
C404 C401 1.357 . S
C404 C405 1.312 . S
C405 H376 0.930 . S
C405 C400 1.261 . S
C405 C404 1.312 . S
C406 O378 1.214 . S
C406 O386 1.234 . S
C407 H379 0.929 . S
C407 C410 1.391 . S
C407 C412 1.391 . S
C408 H380 0.929 . S
C408 C409 1.390 . S
C408 N411 1.391 . S
C409 H381 0.930 . S
C409 C408 1.390 . S
C409 C410 1.392 . S
C410 H382 0.929 . S
C410 C407 1.391 . S
C410 C409 1.392 . S
N411 Co355 2.257 1_554 S
N411 C408 1.391 . S
N411 C412 1.388 . S
C412 H383 0.930 . S
C412 C407 1.391 . S
C412 N411 1.388 . S
Co413 O415 2.143 . S
Co413 O421 2.074 . S
Co413 O424 2.093 . S
Co413 O437 2.097 . S
Co413 N454 2.151 1_554 S
Co413 N462 2.214 . S
Co414 O415 2.160 . S
Co414 O420 2.058 . S
Co414 O430 2.057 . S
Co414 O445 2.037 . S
Co414 N449 2.145 . S
Co414 N470 2.257 . S
O415 Co413 2.143 . S
O415 Co414 2.160 . S
C416 O417 1.278 . S
C416 O424 1.224 . S
O417 C416 1.278 . S
C418 O419 1.245 1_554 S
C418 O430 1.232 . S
O419 C418 1.245 1_556 S
O420 Co414 2.058 . S
O420 C446 1.269 . S
O421 Co413 2.074 . S
O421 C446 1.257 . S
H422 C447 0.930 . S
H423 C453 0.930 . S
O424 Co413 2.093 . S
O424 C416 1.224 . S
H425 C457 0.929 . S
H426 C459 0.930 . S
H427 C460 0.930 . S
H428 C458 0.929 . S
H429 C461 0.928 . S
O430 Co414 2.057 . S
O430 C418 1.232 . S
H431 C450 0.929 . S
H432 C451 0.929 . S
H433 C463 0.931 . S
H434 C455 0.929 . S
H435 C464 0.930 . S
H436 C456 0.931 . S
O437 Co413 2.097 . S
O437 C465 1.214 . S
H438 C466 0.929 . S
H439 C467 0.929 . S
H440 C468 0.930 . S
H441 C469 0.929 . S
H442 C471 0.930 . S
H443 C448 0.930 . S
H444 C452 0.930 . S
O445 Co414 2.037 . S
O445 C465 1.234 . S
C446 O420 1.269 . S
C446 O421 1.257 . S
C447 H422 0.930 . S
C447 C450 1.388 . S
C447 C452 1.418 . S
C448 H443 0.930 . S
C448 C451 1.404 . S
C448 C452 1.353 . S
N449 Co414 2.145 . S
N449 C450 1.397 . S
N449 C451 1.334 . S
C450 H431 0.929 . S
C450 C447 1.388 . S
C450 N449 1.397 . S
C451 H432 0.929 . S
C451 C448 1.404 . S
C451 N449 1.334 . S
C452 H444 0.930 . S
C452 C447 1.418 . S
C452 C448 1.353 . S
C453 H423 0.930 . S
C453 N454 1.330 . S
C453 C455 1.446 . S
N454 Co413 2.151 1_556 S
N454 C453 1.330 . S
N454 C458 1.418 . S
C455 H434 0.929 . S
C455 C453 1.446 . S
C455 C456 1.332 . S
C456 H436 0.931 . S
C456 C455 1.332 . S
C456 C457 1.267 . S
C457 H425 0.929 . S
C457 C456 1.267 . S
C457 C458 1.251 . S
C458 H428 0.929 . S
C458 N454 1.418 . S
C458 C457 1.251 . S
C459 H426 0.930 . S
C459 C461 1.406 . S
C459 C464 1.261 1_556 S
C460 H427 0.930 . S
C460 N462 1.325 . S
C460 C463 1.357 . S
C461 H429 0.928 . S
C461 C459 1.406 . S
C461 N462 1.261 1_556 S
N462 Co413 2.214 . S
N462 C460 1.325 . S
N462 C461 1.261 1_554 S
C463 H433 0.931 . S
C463 C460 1.357 . S
C463 C464 1.312 . S
C464 H435 0.930 . S
C464 C459 1.261 1_554 S
C464 C463 1.312 . S
C465 O437 1.214 . S
C465 O445 1.234 . S
C466 H438 0.929 . S
C466 C469 1.391 . S
C466 C471 1.391 . S
C467 H439 0.929 . S
C467 C468 1.390 . S
C467 N470 1.391 . S
C468 H440 0.930 . S
C468 C467 1.390 . S
C468 C469 1.392 . S
C469 H441 0.929 . S
C469 C466 1.391 . S
C469 C468 1.392 . S
N470 Co414 2.257 . S
N470 C467 1.391 . S
N470 C471 1.388 . S
C471 H442 0.930 . S
C471 C466 1.391 . S
C471 N470 1.388 . S
H472 C478 0.930 . S
H473 C482 0.930 . S
H474 C487 0.929 . S
H475 C485 0.929 . S
H476 C480 0.929 . S
H477 C486 0.929 . S
C478 H472 0.930 . S
C478 C479 1.367 . S
C478 C486 1.378 . S
C479 C478 1.367 . S
C479 C487 1.433 . S
C480 H476 0.929 . S
C480 C482 1.378 . S
C480 C484 1.350 . S
C481 C484 1.463 . S
C481 C486 1.350 . S
C481 N489 1.427 . S
C482 H473 0.930 . S
C482 C480 1.378 . S
C482 C483 1.367 . S
C483 C482 1.367 . S
C483 C485 1.433 . S
C484 C480 1.350 . S
C484 C481 1.463 . S
C484 N488 1.427 . S
C485 H475 0.929 . S
C485 C483 1.433 . S
C485 N488 1.384 . S
C486 H477 0.929 . S
C486 C478 1.378 . S
C486 C481 1.350 . S
C487 H474 0.929 . S
C487 C479 1.433 . S
C487 N489 1.384 . S
N488 C484 1.427 . S
N488 C485 1.384 . S
N489 C481 1.427 . S
N489 C487 1.384 . S
H490 C496 0.930 . S
H491 C500 0.930 . S
H492 C505 0.929 . S
H493 C503 0.929 . S
H494 C498 0.929 . S
H495 C504 0.929 . S
C496 H490 0.930 . S
C496 C497 1.367 . S
C496 C504 1.378 . S
C497 C496 1.367 . S
C497 C505 1.433 . S
C498 H494 0.929 . S
C498 C500 1.378 . S
C498 C502 1.350 . S
C499 C502 1.463 . S
C499 C504 1.350 . S
C499 N507 1.427 . S
C500 H491 0.930 . S
C500 C498 1.378 . S
C500 C501 1.367 . S
C501 C500 1.367 . S
C501 C503 1.433 . S
C502 C498 1.350 . S
C502 C499 1.463 . S
C502 N506 1.427 . S
C503 H493 0.929 . S
C503 C501 1.433 . S
C503 N506 1.384 . S
C504 H495 0.929 . S
C504 C496 1.378 . S
C504 C499 1.350 . S
C505 H492 0.929 . S
C505 C497 1.433 . S
C505 N507 1.384 . S
N506 C502 1.427 . S
N506 C503 1.384 . S
N507 C499 1.427 . S
N507 C505 1.384 . S
H508 C514 0.930 . S
H509 C518 0.930 . S
H510 C523 0.929 . S
H511 C521 0.929 . S
H512 C516 0.929 . S
H513 C522 0.929 . S
C514 H508 0.930 . S
C514 C515 1.367 . S
C514 C522 1.378 . S
C515 C514 1.367 . S
C515 C523 1.433 . S
C516 H512 0.929 . S
C516 C518 1.378 . S
C516 C520 1.350 . S
C517 C520 1.463 . S
C517 C522 1.350 . S
C517 N525 1.427 . S
C518 H509 0.930 . S
C518 C516 1.378 . S
C518 C519 1.367 . S
C519 C518 1.367 . S
C519 C521 1.433 . S
C520 C516 1.350 . S
C520 C517 1.463 . S
C520 N524 1.427 . S
C521 H511 0.929 . S
C521 C519 1.433 . S
C521 N524 1.384 . S
C522 H513 0.929 . S
C522 C514 1.378 . S
C522 C517 1.350 . S
C523 H510 0.929 . S
C523 C515 1.433 . S
C523 N525 1.384 . S
N524 C520 1.427 . S
N524 C521 1.384 . S
N525 C517 1.427 . S
N525 C523 1.384 . S
H526 C532 0.930 . S
H527 C536 0.930 . S
H528 C541 0.929 . S
H529 C539 0.929 . S
H530 C534 0.929 . S
H531 C540 0.929 . S
C532 H526 0.930 . S
C532 C533 1.367 . S
C532 C540 1.378 . S
C533 C532 1.367 . S
C533 C541 1.433 . S
C534 H530 0.929 . S
C534 C536 1.378 . S
C534 C538 1.350 . S
C535 C538 1.463 . S
C535 C540 1.350 . S
C535 N543 1.427 . S
C536 H527 0.930 . S
C536 C534 1.378 . S
C536 C537 1.367 . S
C537 C536 1.367 . S
C537 C539 1.433 . S
C538 C534 1.350 . S
C538 C535 1.463 . S
C538 N542 1.427 . S
C539 H529 0.929 . S
C539 C537 1.433 . S
C539 N542 1.384 . S
C540 H531 0.929 . S
C540 C532 1.378 . S
C540 C535 1.350 . S
C541 H528 0.929 . S
C541 C533 1.433 . S
C541 N543 1.384 . S
N542 C538 1.427 . S
N542 C539 1.384 . S
N543 C535 1.427 . S
N543 C541 1.384 . S
H544 C550 0.930 . S
H545 C554 0.930 . S
H546 C559 0.929 . S
H547 C557 0.929 . S
H548 C552 0.929 . S
H549 C558 0.929 . S
C550 H544 0.930 . S
C550 C551 1.367 . S
C550 C558 1.378 . S
C551 C550 1.367 . S
C551 C559 1.433 . S
C552 H548 0.929 . S
C552 C554 1.378 . S
C552 C556 1.350 . S
C553 C556 1.463 . S
C553 C558 1.350 . S
C553 N561 1.427 . S
C554 H545 0.930 . S
C554 C552 1.378 . S
C554 C555 1.367 . S
C555 C554 1.367 . S
C555 C557 1.433 . S
C556 C552 1.350 . S
C556 C553 1.463 . S
C556 N560 1.427 . S
C557 H547 0.929 . S
C557 C555 1.433 . S
C557 N560 1.384 . S
C558 H549 0.929 . S
C558 C550 1.378 . S
C558 C553 1.350 . S
C559 H546 0.929 . S
C559 C551 1.433 . S
C559 N561 1.384 . S
N560 C556 1.427 . S
N560 C557 1.384 . S
N561 C553 1.427 . S
N561 C559 1.384 . S
H562 C568 0.930 . S
H563 C572 0.930 . S
H564 C577 0.929 . S
H565 C575 0.929 . S
H566 C570 0.929 . S
H567 C576 0.929 . S
C568 H562 0.930 . S
C568 C569 1.367 . S
C568 C576 1.378 . S
C569 C568 1.367 . S
C569 C577 1.433 . S
C570 H566 0.929 . S
C570 C572 1.378 . S
C570 C574 1.350 . S
C571 C574 1.463 . S
C571 C576 1.350 . S
C571 N579 1.427 . S
C572 H563 0.930 . S
C572 C570 1.378 . S
C572 C573 1.367 . S
C573 C572 1.367 . S
C573 C575 1.433 . S
C574 C570 1.350 . S
C574 C571 1.463 . S
C574 N578 1.427 . S
C575 H565 0.929 . S
C575 C573 1.433 . S
C575 N578 1.384 . S
C576 H567 0.929 . S
C576 C568 1.378 . S
C576 C571 1.350 . S
C577 H564 0.929 . S
C577 C569 1.433 . S
C577 N579 1.384 . S
N578 C574 1.427 . S
N578 C575 1.384 . S
N579 C571 1.427 . S
N579 C577 1.384 . S
H580 C586 0.930 . S
H581 C590 0.930 . S
H582 C595 0.929 . S
H583 C593 0.929 . S
H584 C588 0.929 . S
H585 C594 0.929 . S
C586 H580 0.930 . S
C586 C587 1.367 . S
C586 C594 1.378 . S
C587 C586 1.367 . S
C587 C595 1.433 . S
C588 H584 0.929 . S
C588 C590 1.378 . S
C588 C592 1.350 . S
C589 C592 1.463 . S
C589 C594 1.350 . S
C589 N597 1.427 . S
C590 H581 0.930 . S
C590 C588 1.378 . S
C590 C591 1.367 . S
C591 C590 1.367 . S
C591 C593 1.433 . S
C592 C588 1.350 . S
C592 C589 1.463 . S
C592 N596 1.427 . S
C593 H583 0.929 . S
C593 C591 1.433 . S
C593 N596 1.384 . S
C594 H585 0.929 . S
C594 C586 1.378 . S
C594 C589 1.350 . S
C595 H582 0.929 . S
C595 C587 1.433 . S
C595 N597 1.384 . S
N596 C592 1.427 . S
N596 C593 1.384 . S
N597 C589 1.427 . S
N597 C595 1.384 . S
H598 C604 0.930 . S
H599 C608 0.930 . S
H600 C613 0.929 . S
H601 C611 0.929 . S
H602 C606 0.929 . S
H603 C612 0.929 . S
C604 H598 0.930 . S
C604 C605 1.367 . S
C604 C612 1.378 . S
C605 C604 1.367 . S
C605 C613 1.433 . S
C606 H602 0.929 . S
C606 C608 1.378 . S
C606 C610 1.350 . S
C607 C610 1.463 . S
C607 C612 1.350 . S
C607 N615 1.427 . S
C608 H599 0.930 . S
C608 C606 1.378 . S
C608 C609 1.367 . S
C609 C608 1.367 . S
C609 C611 1.433 . S
C610 C606 1.350 . S
C610 C607 1.463 . S
C610 N614 1.427 . S
C611 H601 0.929 . S
C611 C609 1.433 . S
C611 N614 1.384 . S
C612 H603 0.929 . S
C612 C604 1.378 . S
C612 C607 1.350 . S
C613 H600 0.929 . S
C613 C605 1.433 . S
C613 N615 1.384 . S
N614 C610 1.427 . S
N614 C611 1.384 . S
N615 C607 1.427 . S
N615 C613 1.384 . S
H616 C622 0.930 . S
H617 C626 0.930 . S
H618 C631 0.929 . S
H619 C629 0.929 . S
H620 C624 0.929 . S
H621 C630 0.929 . S
C622 H616 0.930 . S
C622 C623 1.367 1_556 S
C622 C630 1.378 . S
C623 C622 1.367 1_554 S
C623 C631 1.433 . S
C624 H620 0.929 . S
C624 C626 1.378 . S
C624 C628 1.350 1_554 S
C625 C628 1.463 . S
C625 C630 1.350 . S
C625 N633 1.427 1_556 S
C626 H617 0.930 . S
C626 C624 1.378 . S
C626 C627 1.367 1_554 S
C627 C626 1.367 1_556 S
C627 C629 1.433 . S
C628 C624 1.350 1_556 S
C628 C625 1.463 . S
C628 N632 1.427 . S
C629 H619 0.929 . S
C629 C627 1.433 . S
C629 N632 1.384 . S
C630 H621 0.929 . S
C630 C622 1.378 . S
C630 C625 1.350 . S
C631 H618 0.929 . S
C631 C623 1.433 . S
C631 N633 1.384 . S
N632 C628 1.427 . S
N632 C629 1.384 . S
N633 C625 1.427 1_554 S
N633 C631 1.384 . S
H634 C640 0.930 . S
H635 C644 0.930 . S
H636 C649 0.929 . S
H637 C647 0.929 . S
H638 C642 0.929 . S
H639 C648 0.929 . S
C640 H634 0.930 . S
C640 C641 1.367 1_556 S
C640 C648 1.378 . S
C641 C640 1.367 1_554 S
C641 C649 1.433 . S
C642 H638 0.929 . S
C642 C644 1.378 . S
C642 C646 1.350 . S
C643 C646 1.463 . S
C643 C648 1.350 1_554 S
C643 N651 1.427 . S
C644 H635 0.930 . S
C644 C642 1.378 . S
C644 C645 1.367 1_554 S
C645 C644 1.367 1_556 S
C645 C647 1.433 . S
C646 C642 1.350 . S
C646 C643 1.463 . S
C646 N650 1.427 1_554 S
C647 H637 0.929 . S
C647 C645 1.433 . S
C647 N650 1.384 . S
C648 H639 0.929 . S
C648 C640 1.378 . S
C648 C643 1.350 1_556 S
C649 H636 0.929 . S
C649 C641 1.433 . S
C649 N651 1.384 . S
N650 C646 1.427 1_556 S
N650 C647 1.384 . S
N651 C643 1.427 . S
N651 C649 1.384 . S
H652 C658 0.930 . S
H653 C662 0.930 . S
H654 C667 0.929 . S
H655 C665 0.929 . S
H656 C660 0.929 . S
H657 C666 0.929 . S
C658 H652 0.930 . S
C658 C659 1.367 1_556 S
C658 C666 1.378 . S
C659 C658 1.367 1_554 S
C659 C667 1.433 . S
C660 H656 0.929 . S
C660 C662 1.378 . S
C660 C664 1.350 1_554 S
C661 C664 1.463 . S
C661 C666 1.350 . S
C661 N669 1.427 1_556 S
C662 H653 0.930 . S
C662 C660 1.378 . S
C662 C663 1.367 1_554 S
C663 C662 1.367 1_556 S
C663 C665 1.433 . S
C664 C660 1.350 1_556 S
C664 C661 1.463 . S
C664 N668 1.427 . S
C665 H655 0.929 . S
C665 C663 1.433 . S
C665 N668 1.384 . S
C666 H657 0.929 . S
C666 C658 1.378 . S
C666 C661 1.350 . S
C667 H654 0.929 . S
C667 C659 1.433 . S
C667 N669 1.384 . S
N668 C664 1.427 . S
N668 C665 1.384 . S
N669 C661 1.427 1_554 S
N669 C667 1.384 . S
H670 C676 0.930 . S
H671 C680 0.930 . S
H672 C685 0.929 . S
H673 C683 0.929 . S
H674 C678 0.929 . S
H675 C684 0.929 . S
C676 H670 0.930 . S
C676 C677 1.367 1_554 S
C676 C684 1.378 . S
C677 C676 1.367 1_556 S
C677 C685 1.433 . S
C678 H674 0.929 . S
C678 C680 1.378 . S
C678 C682 1.350 1_556 S
C679 C682 1.463 . S
C679 C684 1.350 . S
C679 N687 1.427 1_554 S
C680 H671 0.930 . S
C680 C678 1.378 . S
C680 C681 1.367 1_556 S
C681 C680 1.367 1_554 S
C681 C683 1.433 . S
C682 C678 1.350 1_554 S
C682 C679 1.463 . S
C682 N686 1.427 . S
C683 H673 0.929 . S
C683 C681 1.433 . S
C683 N686 1.384 . S
C684 H675 0.929 . S
C684 C676 1.378 . S
C684 C679 1.350 . S
C685 H672 0.929 . S
C685 C677 1.433 . S
C685 N687 1.384 . S
N686 C682 1.427 . S
N686 C683 1.384 . S
N687 C679 1.427 1_556 S
N687 C685 1.384 . S
H688 C694 0.930 . S
H689 C698 0.930 . S
H690 C703 0.929 . S
H691 C701 0.929 . S
H692 C696 0.929 1_655 S
H693 C702 0.929 1_455 S
C694 H688 0.930 . S
C694 C695 1.367 . S
C694 C702 1.378 . S
C695 C694 1.367 . S
C695 C703 1.433 . S
C696 H692 0.929 1_455 S
C696 C698 1.378 . S
C696 C700 1.350 . S
C697 C700 1.463 1_655 S
C697 C702 1.350 . S
C697 N705 1.427 . S
C698 H689 0.930 . S
C698 C696 1.378 . S
C698 C699 1.367 . S
C699 C698 1.367 . S
C699 C701 1.433 . S
C700 C696 1.350 . S
C700 C697 1.463 1_455 S
C700 N704 1.427 . S
C701 H691 0.929 . S
C701 C699 1.433 . S
C701 N704 1.384 . S
C702 H693 0.929 1_655 S
C702 C694 1.378 . S
C702 C697 1.350 . S
C703 H690 0.929 . S
C703 C695 1.433 . S
C703 N705 1.384 . S
N704 C700 1.427 . S
N704 C701 1.384 . S
N705 C697 1.427 . S
N705 C703 1.384 . S
H706 C712 0.930 . S
H707 C716 0.930 . S
H708 C721 0.929 . S
H709 C719 0.929 . S
H710 C714 0.929 . S
H711 C720 0.929 . S
C712 H706 0.930 . S
C712 C713 1.368 1_565 S
C712 C720 1.377 . S
C713 C712 1.368 1_545 S
C713 C721 1.433 . S
C714 H710 0.929 . S
C714 C716 1.377 . S
C714 C718 1.350 1_545 S
C715 C718 1.463 1_545 S
C715 C720 1.350 1_545 S
C715 N723 1.427 . S
C716 H707 0.930 . S
C716 C714 1.377 . S
C716 C717 1.368 1_545 S
C717 C716 1.368 1_565 S
C717 C719 1.433 . S
C718 C714 1.350 1_565 S
C718 C715 1.463 1_565 S
C718 N722 1.427 . S
C719 H709 0.929 . S
C719 C717 1.433 . S
C719 N722 1.384 . S
C720 H711 0.929 . S
C720 C712 1.377 . S
C720 C715 1.350 1_565 S
C721 H708 0.929 . S
C721 C713 1.433 . S
C721 N723 1.384 . S
N722 C718 1.427 . S
N722 C719 1.384 . S
N723 C715 1.427 . S
N723 C721 1.384 . S
H724 C730 0.930 . S
H725 C734 0.930 . S
H726 C739 0.929 . S
H727 C737 0.929 . S
H728 C732 0.929 . S
H729 C738 0.929 . S
C730 H724 0.930 . S
C730 C731 1.367 . S
C730 C738 1.378 . S
C731 C730 1.367 . S
C731 C739 1.433 1_556 S
C732 H728 0.929 . S
C732 C734 1.378 . S
C732 C736 1.350 1_554 S
C733 C736 1.463 1_545 S
C733 C738 1.350 . S
C733 N741 1.427 1_556 S
C734 H725 0.930 . S
C734 C732 1.378 . S
C734 C735 1.367 1_554 S
C735 C734 1.367 1_556 S
C735 C737 1.433 . S
C736 C732 1.350 1_556 S
C736 C733 1.463 1_565 S
C736 N740 1.427 . S
C737 H727 0.929 . S
C737 C735 1.433 . S
C737 N740 1.384 . S
C738 H729 0.929 . S
C738 C730 1.378 . S
C738 C733 1.350 . S
C739 H726 0.929 . S
C739 C731 1.433 1_554 S
C739 N741 1.384 . S
N740 C736 1.427 . S
N740 C737 1.384 . S
N741 C733 1.427 1_554 S
N741 C739 1.384 . S
H742 C748 0.930 . S
H743 C752 0.930 . S
H744 C757 0.929 . S
H745 C755 0.929 . S
H746 C750 0.929 . S
H747 C756 0.929 . S
C748 H742 0.930 . S
C748 C749 1.367 . S
C748 C756 1.378 . S
C749 C748 1.367 . S
C749 C757 1.433 1_554 S
C750 H746 0.929 . S
C750 C752 1.378 . S
C750 C754 1.350 1_556 S
C751 C754 1.463 1_455 S
C751 C756 1.350 . S
C751 N759 1.427 1_554 S
C752 H743 0.930 . S
C752 C750 1.378 . S
C752 C753 1.367 1_556 S
C753 C752 1.367 1_554 S
C753 C755 1.433 . S
C754 C750 1.350 1_554 S
C754 C751 1.463 1_655 S
C754 N758 1.427 . S
C755 H745 0.929 . S
C755 C753 1.433 . S
C755 N758 1.384 . S
C756 H747 0.929 . S
C756 C748 1.378 . S
C756 C751 1.350 . S
C757 H744 0.929 . S
C757 C749 1.433 1_556 S
C757 N759 1.384 . S
N758 C754 1.427 . S
N758 C755 1.384 . S
N759 C751 1.427 1_556 S
N759 C757 1.384 . S
C479 C465 1.601 . S
C483 C33 1.605 . S
C497 C92 1.610 . S
C501 C269 1.610 . S
C515 C151 1.605 . S
C519 C347 1.599 . S
C533 C387 1.608 . S
C537 C210 1.606 . S
C551 C62 1.524 . S
C555 C5 1.516 . S
C569 C64 1.519 . S
C573 C121 1.528 . S
C587 C180 1.525 . S
C591 C123 1.517 . S
C605 C182 1.511 . S
C609 C3 1.522 . S
C623 C418 1.529 . S
C627 C241 1.513 . S
C641 C298 1.512 . S
C645 C239 1.523 . S
C659 C300 1.529 . S
C663 C359 1.514 . S
C677 C357 1.527 . S
C681 C416 1.517 . S
C695 C170 1.276 . S
C699 C52 1.281 . S
C713 C229 1.276 . S
C717 C111 1.274 . S
C731 C406 1.275 . S
C735 C288 1.280 . S
C749 C446 1.269 . S
C753 C328 1.277 . S
