# Generated by pormake.
# Topology wgo, (5)-cn, num edge types: 1
# Building blocks:
#     Node 0, Type 0, BuildingBlock: BEQFEK_clean_sbu_0, # of connection points: 5
#     Node 1, Type 0, BuildingBlock: BEQFEK_clean_sbu_0, # of connection points: 5
#     Node 2, Type 0, BuildingBlock: BEQFEK_clean_sbu_0, # of connection points: 5
#     Node 3, Type 0, BuildingBlock: BEQFEK_clean_sbu_0, # of connection points: 5
#     Node 4, Type 0, BuildingBlock: BEQFEK_clean_sbu_0, # of connection points: 5
#     Node 5, Type 0, BuildingBlock: BEQFEK_clean_sbu_0, # of connection points: 5
#     Node 6, Type 0, BuildingBlock: BEQFEK_clean_sbu_0, # of connection points: 5
#     Node 7, Type 0, BuildingBlock: BEQFEK_clean_sbu_0, # of connection points: 5
#     Node 8, Type 0, BuildingBlock: BEQFEK_clean_sbu_0, # of connection points: 5
#     Node 9, Type 0, BuildingBlock: BEQFEK_clean_sbu_0, # of connection points: 5
#     Node 10, Type 0, BuildingBlock: BEQFEK_clean_sbu_0, # of connection points: 5
#     Node 11, Type 0, BuildingBlock: BEQFEK_clean_sbu_0, # of connection points: 5
#     Node 12, Type 0, BuildingBlock: BEQFEK_clean_sbu_0, # of connection points: 5
#     Node 13, Type 0, BuildingBlock: BEQFEK_clean_sbu_0, # of connection points: 5
#     Node 14, Type 0, BuildingBlock: BEQFEK_clean_sbu_0, # of connection points: 5
#     Node 15, Type 0, BuildingBlock: BEQFEK_clean_sbu_0, # of connection points: 5
#     Node 16, Type 0, BuildingBlock: BEQFEK_clean_sbu_0, # of connection points: 5
#     Node 17, Type 0, BuildingBlock: BEQFEK_clean_sbu_0, # of connection points: 5
#     Node 18, Type 0, BuildingBlock: BEQFEK_clean_sbu_0, # of connection points: 5
#     Node 19, Type 0, BuildingBlock: BEQFEK_clean_sbu_0, # of connection points: 5
#     Node 20, Type 0, BuildingBlock: BEQFEK_clean_sbu_0, # of connection points: 5
#     Node 21, Type 0, BuildingBlock: BEQFEK_clean_sbu_0, # of connection points: 5
#     Node 22, Type 0, BuildingBlock: BEQFEK_clean_sbu_0, # of connection points: 5
#     Node 23, Type 0, BuildingBlock: BEQFEK_clean_sbu_0, # of connection points: 5
#     Node 24, Type 0, BuildingBlock: BEQFEK_clean_sbu_0, # of connection points: 5
#     Node 25, Type 0, BuildingBlock: BEQFEK_clean_sbu_0, # of connection points: 5
#     Node 26, Type 0, BuildingBlock: BEQFEK_clean_sbu_0, # of connection points: 5
#     Node 27, Type 0, BuildingBlock: BEQFEK_clean_sbu_0, # of connection points: 5
#     Node 28, Type 0, BuildingBlock: BEQFEK_clean_sbu_0, # of connection points: 5
#     Node 29, Type 0, BuildingBlock: BEQFEK_clean_sbu_0, # of connection points: 5
#     Node 30, Type 0, BuildingBlock: BEQFEK_clean_sbu_0, # of connection points: 5
#     Node 31, Type 0, BuildingBlock: BEQFEK_clean_sbu_0, # of connection points: 5
#     Edge 32, Type (0, 0), BuildingBlock: XIVTED_clean_linker_0, # of connection points: 2
#     Edge 33, Type (0, 0), BuildingBlock: XIVTED_clean_linker_0, # of connection points: 2
#     Edge 34, Type (0, 0), BuildingBlock: XIVTED_clean_linker_0, # of connection points: 2
#     Edge 35, Type (0, 0), BuildingBlock: XIVTED_clean_linker_0, # of connection points: 2
#     Edge 36, Type (0, 0), BuildingBlock: XIVTED_clean_linker_0, # of connection points: 2
#     Edge 37, Type (0, 0), BuildingBlock: XIVTED_clean_linker_0, # of connection points: 2
#     Edge 38, Type (0, 0), BuildingBlock: XIVTED_clean_linker_0, # of connection points: 2
#     Edge 39, Type (0, 0), BuildingBlock: XIVTED_clean_linker_0, # of connection points: 2
#     Edge 40, Type (0, 0), BuildingBlock: XIVTED_clean_linker_0, # of connection points: 2
#     Edge 41, Type (0, 0), BuildingBlock: XIVTED_clean_linker_0, # of connection points: 2
#     Edge 42, Type (0, 0), BuildingBlock: XIVTED_clean_linker_0, # of connection points: 2
#     Edge 43, Type (0, 0), BuildingBlock: XIVTED_clean_linker_0, # of connection points: 2
#     Edge 44, Type (0, 0), BuildingBlock: XIVTED_clean_linker_0, # of connection points: 2
#     Edge 45, Type (0, 0), BuildingBlock: XIVTED_clean_linker_0, # of connection points: 2
#     Edge 46, Type (0, 0), BuildingBlock: XIVTED_clean_linker_0, # of connection points: 2
#     Edge 47, Type (0, 0), BuildingBlock: XIVTED_clean_linker_0, # of connection points: 2
#     Edge 48, Type (0, 0), BuildingBlock: XIVTED_clean_linker_0, # of connection points: 2
#     Edge 49, Type (0, 0), BuildingBlock: XIVTED_clean_linker_0, # of connection points: 2
#     Edge 50, Type (0, 0), BuildingBlock: XIVTED_clean_linker_0, # of connection points: 2
#     Edge 51, Type (0, 0), BuildingBlock: XIVTED_clean_linker_0, # of connection points: 2
#     Edge 52, Type (0, 0), BuildingBlock: XIVTED_clean_linker_0, # of connection points: 2
#     Edge 53, Type (0, 0), BuildingBlock: XIVTED_clean_linker_0, # of connection points: 2
#     Edge 54, Type (0, 0), BuildingBlock: XIVTED_clean_linker_0, # of connection points: 2
#     Edge 55, Type (0, 0), BuildingBlock: XIVTED_clean_linker_0, # of connection points: 2
#     Edge 56, Type (0, 0), BuildingBlock: XIVTED_clean_linker_0, # of connection points: 2
#     Edge 57, Type (0, 0), BuildingBlock: XIVTED_clean_linker_0, # of connection points: 2
#     Edge 58, Type (0, 0), BuildingBlock: XIVTED_clean_linker_0, # of connection points: 2
#     Edge 59, Type (0, 0), BuildingBlock: XIVTED_clean_linker_0, # of connection points: 2
#     Edge 60, Type (0, 0), BuildingBlock: XIVTED_clean_linker_0, # of connection points: 2
#     Edge 61, Type (0, 0), BuildingBlock: XIVTED_clean_linker_0, # of connection points: 2
#     Edge 62, Type (0, 0), BuildingBlock: XIVTED_clean_linker_0, # of connection points: 2
#     Edge 63, Type (0, 0), BuildingBlock: XIVTED_clean_linker_0, # of connection points: 2
#     Edge 64, Type (0, 0), BuildingBlock: XIVTED_clean_linker_0, # of connection points: 2
#     Edge 65, Type (0, 0), BuildingBlock: XIVTED_clean_linker_0, # of connection points: 2
#     Edge 66, Type (0, 0), BuildingBlock: XIVTED_clean_linker_0, # of connection points: 2
#     Edge 67, Type (0, 0), BuildingBlock: XIVTED_clean_linker_0, # of connection points: 2
#     Edge 68, Type (0, 0), BuildingBlock: XIVTED_clean_linker_0, # of connection points: 2
#     Edge 69, Type (0, 0), BuildingBlock: XIVTED_clean_linker_0, # of connection points: 2
#     Edge 70, Type (0, 0), BuildingBlock: XIVTED_clean_linker_0, # of connection points: 2
#     Edge 71, Type (0, 0), BuildingBlock: XIVTED_clean_linker_0, # of connection points: 2
#     Edge 72, Type (0, 0), BuildingBlock: XIVTED_clean_linker_0, # of connection points: 2
#     Edge 73, Type (0, 0), BuildingBlock: XIVTED_clean_linker_0, # of connection points: 2
#     Edge 74, Type (0, 0), BuildingBlock: XIVTED_clean_linker_0, # of connection points: 2
#     Edge 75, Type (0, 0), BuildingBlock: XIVTED_clean_linker_0, # of connection points: 2
#     Edge 76, Type (0, 0), BuildingBlock: XIVTED_clean_linker_0, # of connection points: 2
#     Edge 77, Type (0, 0), BuildingBlock: XIVTED_clean_linker_0, # of connection points: 2
#     Edge 78, Type (0, 0), BuildingBlock: XIVTED_clean_linker_0, # of connection points: 2
#     Edge 79, Type (0, 0), BuildingBlock: XIVTED_clean_linker_0, # of connection points: 2
#     Edge 80, Type (0, 0), BuildingBlock: XIVTED_clean_linker_0, # of connection points: 2
#     Edge 81, Type (0, 0), BuildingBlock: XIVTED_clean_linker_0, # of connection points: 2
#     Edge 82, Type (0, 0), BuildingBlock: XIVTED_clean_linker_0, # of connection points: 2
#     Edge 83, Type (0, 0), BuildingBlock: XIVTED_clean_linker_0, # of connection points: 2
#     Edge 84, Type (0, 0), BuildingBlock: XIVTED_clean_linker_0, # of connection points: 2
#     Edge 85, Type (0, 0), BuildingBlock: XIVTED_clean_linker_0, # of connection points: 2
#     Edge 86, Type (0, 0), BuildingBlock: XIVTED_clean_linker_0, # of connection points: 2
#     Edge 87, Type (0, 0), BuildingBlock: XIVTED_clean_linker_0, # of connection points: 2
#     Edge 88, Type (0, 0), BuildingBlock: XIVTED_clean_linker_0, # of connection points: 2
#     Edge 89, Type (0, 0), BuildingBlock: XIVTED_clean_linker_0, # of connection points: 2
#     Edge 90, Type (0, 0), BuildingBlock: XIVTED_clean_linker_0, # of connection points: 2
#     Edge 91, Type (0, 0), BuildingBlock: XIVTED_clean_linker_0, # of connection points: 2
#     Edge 92, Type (0, 0), BuildingBlock: XIVTED_clean_linker_0, # of connection points: 2
#     Edge 93, Type (0, 0), BuildingBlock: XIVTED_clean_linker_0, # of connection points: 2
#     Edge 94, Type (0, 0), BuildingBlock: XIVTED_clean_linker_0, # of connection points: 2
#     Edge 95, Type (0, 0), BuildingBlock: XIVTED_clean_linker_0, # of connection points: 2
#     Edge 96, Type (0, 0), BuildingBlock: XIVTED_clean_linker_0, # of connection points: 2
#     Edge 97, Type (0, 0), BuildingBlock: XIVTED_clean_linker_0, # of connection points: 2
#     Edge 98, Type (0, 0), BuildingBlock: XIVTED_clean_linker_0, # of connection points: 2
#     Edge 99, Type (0, 0), BuildingBlock: XIVTED_clean_linker_0, # of connection points: 2
#     Edge 100, Type (0, 0), BuildingBlock: XIVTED_clean_linker_0, # of connection points: 2
#     Edge 101, Type (0, 0), BuildingBlock: XIVTED_clean_linker_0, # of connection points: 2
#     Edge 102, Type (0, 0), BuildingBlock: XIVTED_clean_linker_0, # of connection points: 2
#     Edge 103, Type (0, 0), BuildingBlock: XIVTED_clean_linker_0, # of connection points: 2
#     Edge 104, Type (0, 0), BuildingBlock: XIVTED_clean_linker_0, # of connection points: 2
#     Edge 105, Type (0, 0), BuildingBlock: XIVTED_clean_linker_0, # of connection points: 2
#     Edge 106, Type (0, 0), BuildingBlock: XIVTED_clean_linker_0, # of connection points: 2
#     Edge 107, Type (0, 0), BuildingBlock: XIVTED_clean_linker_0, # of connection points: 2
#     Edge 108, Type (0, 0), BuildingBlock: XIVTED_clean_linker_0, # of connection points: 2
#     Edge 109, Type (0, 0), BuildingBlock: XIVTED_clean_linker_0, # of connection points: 2
#     Edge 110, Type (0, 0), BuildingBlock: XIVTED_clean_linker_0, # of connection points: 2
#     Edge 111, Type (0, 0), BuildingBlock: XIVTED_clean_linker_0, # of connection points: 2
# Relax obj value: 0.282
# Max RMSD: 0.175
# Mean RMSD: 0.175
data_MOF--net-wgo--node1-BEQFEK_clean_sbu_0--edge1-XIVTED_clean_linker_0
_symmetry_space_group_name_H-M    P1
_symmetry_Int_Tables_number       1
_symmetry_cell_setting            triclinic
loop_
_symmetry_equiv_pos_as_xyz
'x, y, z'
_cell_length_a     35.851437
_cell_length_b     35.852682
_cell_length_c     107.58481
_cell_angle_alpha  90.003012
_cell_angle_beta   89.993515
_cell_angle_gamma 90.013819
loop_
_atom_site_label
_atom_site_type_symbol
_atom_site_fract_x
_atom_site_fract_y
_atom_site_fract_z
_atom_type_partial_charge
Co0 Co 0.46955 0.03254 0.08428 0.0
Co1 Co 0.39386 0.06454 0.07529 0.0
C2 C 0.44601 0.02999 0.05726 0.0
O3 O 0.46859 0.02498 0.06618 0.0
O4 O 0.41405 0.04442 0.05918 0.0
C5 C 0.52078 0.97443 0.08418 0.0
O6 O 0.49425 0.95898 0.07751 0.0
C7 C 0.31503 0.0651 0.06841 0.0
C8 C 0.29757 0.12034 0.07542 0.0
C9 C 0.28394 0.08748 0.07039 0.0
N10 N 0.34522 0.08345 0.07252 0.0
N11 N 0.33477 0.11685 0.07636 0.0
C12 C 0.31658 0.02715 0.06261 0.0
H13 H 0.32195 0.00579 0.06983 0.0
H14 H 0.29025 0.02049 0.05766 0.0
H15 H 0.3402 0.02595 0.05596 0.0
C16 C 0.4208 0.99186 0.10193 0.0
N17 N 0.42578 0.01459 0.09209 0.0
N18 N 0.39343 0.02859 0.08865 0.0
C19 C 0.36685 0.01567 0.09649 0.0
C20 C 0.38319 0.99153 0.105 0.0
C21 C 0.45179 0.97143 0.1083 0.0
H22 H 0.47352 0.99162 0.11125 0.0
H23 H 0.46479 0.95181 0.10162 0.0
H24 H 0.44185 0.95534 0.11644 0.0
O25 O 0.47704 0.08626 0.08773 0.0
O26 O 0.42357 0.10832 0.08043 0.0
H27 H 0.32678 0.05993 0.09459 0.0
H28 H 0.31625 0.02705 0.10672 0.0
C29 C 0.32772 0.03011 0.09719 0.0
H30 H 0.30977 0.01382 0.09083 0.0
H31 H 0.35272 0.13646 0.08031 0.0
O32 O 0.51452 0.00554 0.08944 0.0
C33 C 0.45542 0.1135 0.08535 0.0
Co34 Co 0.20986 0.22119 0.33452 0.0
Co35 Co 0.18058 0.14491 0.32513 0.0
C36 C 0.21501 0.19693 0.30737 0.0
O37 O 0.21872 0.21963 0.31636 0.0
O38 O 0.20117 0.16459 0.30912 0.0
C39 C 0.26841 0.27209 0.33518 0.0
O40 O 0.28487 0.24518 0.32896 0.0
C41 C 0.1752 0.06651 0.31719 0.0
C42 C 0.1255 0.04876 0.3278 0.0
C43 C 0.15374 0.03551 0.32022 0.0
N44 N 0.16082 0.09628 0.32303 0.0
N45 N 0.13053 0.08566 0.32907 0.0
C46 C 0.20822 0.06838 0.30867 0.0
H47 H 0.23106 0.08463 0.31302 0.0
H48 H 0.21813 0.04028 0.30591 0.0
H49 H 0.19996 0.08372 0.30014 0.0
C50 C 0.24979 0.1729 0.35259 0.0
N51 N 0.22779 0.17783 0.34257 0.0
N52 N 0.21642 0.14519 0.33846 0.0
C53 C 0.23123 0.11828 0.34575 0.0
C54 C 0.25286 0.1349 0.35499 0.0
C55 C 0.26485 0.20424 0.36029 0.0
H56 H 0.24504 0.228 0.36025 0.0
H57 H 0.2916 0.21385 0.3562 0.0
H58 H 0.2699 0.19527 0.37001 0.0
O59 O 0.15612 0.22845 0.33761 0.0
O60 O 0.1363 0.17466 0.32994 0.0
H61 H 0.19585 0.0702 0.34529 0.0
H62 H 0.2435 0.06006 0.34975 0.0
C63 C 0.22555 0.07739 0.34368 0.0
H64 H 0.23265 0.07055 0.33397 0.0
H65 H 0.11446 0.10323 0.33464 0.0
O66 O 0.23629 0.26629 0.33977 0.0
C67 C 0.12973 0.20623 0.33487 0.0
Co68 Co 0.02168 0.96106 0.58489 0.0
Co69 Co 0.09684 0.92857 0.57565 0.0
C70 C 0.04429 0.96329 0.55779 0.0
O71 O 0.02193 0.96859 0.56676 0.0
O72 O 0.07619 0.94865 0.55965 0.0
C73 C 0.97095 0.01959 0.58516 0.0
O74 O -0.00295 0.03471 0.57822 0.0
C75 C 0.17523 0.92755 0.56833 0.0
C76 C 0.19286 0.87238 0.57535 0.0
C77 C 0.20633 0.9051 0.57018 0.0
N78 N 0.1452 0.90938 0.57266 0.0
N79 N 0.15572 0.87602 0.57651 0.0
C80 C 0.17351 0.9654 0.56247 0.0
H81 H 0.16819 0.98686 0.56966 0.0
H82 H 0.19973 0.97205 0.55745 0.0
H83 H 0.14978 0.96644 0.55586 0.0
C84 C 0.07134 0.00176 0.60227 0.0
N85 N 0.06585 0.97881 0.59251 0.0
N86 N 0.09801 0.96463 0.58895 0.0
C87 C 0.12497 0.97767 0.59662 0.0
C88 C 0.10907 0.00205 0.60515 0.0
C89 C 0.04074 0.02257 0.6087 0.0
H90 H 0.01872 0.0027 0.61165 0.0
H91 H 0.028 0.04251 0.60207 0.0
H92 H 0.051 0.0384 0.61686 0.0
O93 O 0.01392 0.90737 0.58838 0.0
O94 O 0.06712 0.88504 0.58096 0.0
H95 H 0.17608 0.96648 0.60657 0.0
H96 H 0.18173 0.97955 0.59063 0.0
C97 C 0.16414 0.96329 0.59711 0.0
H98 H 0.16501 0.93344 0.59454 0.0
H99 H 0.13791 0.85655 0.5806 0.0
O100 O 0.97727 0.98838 0.59034 0.0
C101 C 0.03538 0.88003 0.58596 0.0
Co102 Co 0.28152 0.77257 0.83431 0.0
Co103 Co 0.31325 0.84772 0.82482 0.0
C104 C 0.27761 0.79493 0.80721 0.0
O105 O 0.27294 0.7726 0.81623 0.0
O106 O 0.29228 0.82688 0.80896 0.0
C107 C 0.22268 0.72236 0.83499 0.0
O108 O 0.2072 0.74886 0.82832 0.0
C109 C 0.3145 0.92622 0.81747 0.0
C110 C 0.37055 0.94308 0.82391 0.0
C111 C 0.33761 0.95698 0.81904 0.0
N112 N 0.33257 0.89596 0.82165 0.0
N113 N 0.36642 0.90603 0.82515 0.0
C114 C 0.27614 0.92504 0.81197 0.0
H115 H 0.27452 0.90185 0.80516 0.0
H116 H 0.25531 0.91908 0.8193 0.0
H117 H 0.2691 0.95166 0.80725 0.0
C118 C 0.24156 0.82229 0.85189 0.0
N119 N 0.26405 0.81679 0.84201 0.0
N120 N 0.27791 0.84898 0.83833 0.0
C121 C 0.26512 0.87597 0.84603 0.0
C122 C 0.24122 0.86006 0.85471 0.0
C123 C 0.22113 0.79168 0.85846 0.0
H124 H 0.24106 0.76937 0.86109 0.0
H125 H 0.20033 0.77939 0.85203 0.0
H126 H 0.2063 0.80182 0.86684 0.0
O127 O 0.33542 0.76486 0.83755 0.0
O128 O 0.35701 0.81814 0.82995 0.0
H129 H 0.30884 0.91637 0.84347 0.0
H130 H 0.27711 0.92694 0.85594 0.0
C131 C 0.27931 0.91522 0.84642 0.0
H132 H 0.26216 0.93282 0.8402 0.0
H133 H 0.386 0.88797 0.82905 0.0
O134 O 0.25437 0.72824 0.8399 0.0
C135 C 0.36249 0.78651 0.83497 0.0
Co136 Co 0.47151 0.95977 0.44505 0.0
Co137 Co 0.39545 0.93067 0.45475 0.0
C138 C 0.448 0.96564 0.47225 0.0
O139 O 0.47041 0.9692 0.46317 0.0
O140 O 0.41566 0.95164 0.47064 0.0
C141 C 0.5222 0.01841 0.44403 0.0
O142 O 0.49521 0.03509 0.45014 0.0
C143 C 0.31732 0.92535 0.4631 0.0
C144 C 0.29868 0.87683 0.45206 0.0
C145 C 0.28596 0.90458 0.45994 0.0
N146 N 0.34675 0.91118 0.457 0.0
N147 N 0.33561 0.88153 0.45072 0.0
C148 C 0.31969 0.95772 0.47188 0.0
H149 H 0.3288 0.98314 0.46687 0.0
H150 H 0.29266 0.9629 0.4766 0.0
H151 H 0.34128 0.95176 0.479 0.0
C152 C 0.42279 -0.00099 0.42695 0.0
N153 N 0.42797 0.97746 0.43707 0.0
N154 N 0.39544 0.96614 0.44129 0.0
C155 C 0.36835 0.98053 0.43398 0.0
C156 C 0.38475 0.00182 0.4246 0.0
C157 C 0.45395 0.01371 0.4191 0.0
H158 H 0.47775 0.99397 0.4192 0.0
H159 H 0.46357 0.0407 0.42299 0.0
H160 H 0.44477 0.0182 0.40936 0.0
O161 O 0.47864 0.90593 0.44213 0.0
O162 O 0.42502 0.88619 0.44997 0.0
H163 H 0.32046 0.9449 0.43414 0.0
H164 H 0.31009 0.99287 0.43016 0.0
C165 C 0.32751 0.97448 0.43605 0.0
H166 H 0.32068 0.98063 0.44582 0.0
H167 H 0.35282 0.86578 0.44493 0.0
O168 O 0.51651 0.98605 0.43961 0.0
C169 C 0.45651 0.87956 0.445 0.0
Co170 Co 0.28217 0.22022 0.69547 0.0
Co171 Co 0.31334 0.14478 0.70489 0.0
C172 C 0.27795 0.19764 0.72254 0.0
O173 O 0.27341 0.2201 0.71355 0.0
O174 O 0.29248 0.16566 0.72076 0.0
C175 C 0.22376 0.27088 0.69472 0.0
O176 O 0.20817 0.24467 0.70149 0.0
C177 C 0.31359 0.06636 0.71225 0.0
C178 C 0.36892 0.04846 0.70544 0.0
C179 C 0.33597 0.03515 0.7105 0.0
N180 N 0.33205 0.09629 0.70799 0.0
N181 N 0.36549 0.0856 0.70427 0.0
C182 C 0.27556 0.06827 0.71798 0.0
H183 H 0.25438 0.07393 0.71073 0.0
H184 H 0.26853 0.04201 0.72292 0.0
H185 H 0.27452 0.09188 0.72464 0.0
C186 C 0.24189 0.17092 0.67784 0.0
N187 N 0.26443 0.17621 0.68771 0.0
N188 N 0.27799 0.1439 0.69139 0.0
C189 C 0.26491 0.11702 0.68369 0.0
C190 C 0.24118 0.13315 0.67502 0.0
C191 C 0.22173 0.2017 0.67127 0.0
H192 H 0.24183 0.22391 0.66868 0.0
H193 H 0.20094 0.21407 0.67769 0.0
H194 H 0.20691 0.1917 0.66287 0.0
O195 O 0.33616 0.22754 0.6923 0.0
O196 O 0.35741 0.17404 0.69982 0.0
H197 H 0.30833 0.07626 0.68607 0.0
H198 H 0.27559 0.06551 0.67391 0.0
C199 C 0.27861 0.07759 0.68335 0.0
H200 H 0.26177 0.06043 0.6898 0.0
H201 H 0.38519 0.10331 0.70025 0.0
O202 O 0.25543 0.26474 0.68983 0.0
C203 C 0.36309 0.20572 0.69485 0.0
Co204 Co 0.0219 0.03187 0.94486 0.0
Co205 Co 0.09698 0.06334 0.95455 0.0
C206 C 0.04376 0.0276 0.972 0.0
O207 O 0.02169 0.02306 0.96291 0.0
O208 O 0.07576 0.04229 0.97038 0.0
C209 C 0.97135 0.97344 0.9441 0.0
O210 O -0.00235 0.95789 0.95084 0.0
C211 C 0.17538 0.0633 0.96194 0.0
C212 C 0.19345 0.11872 0.95527 0.0
C213 C 0.20669 0.08559 0.9602 0.0
N214 N 0.14548 0.08199 0.95777 0.0
N215 N 0.15628 0.11548 0.95413 0.0
C216 C 0.17334 0.02514 0.96756 0.0
H217 H 0.1681 0.0041 0.96023 0.0
H218 H 0.19942 0.01811 0.9726 0.0
H219 H 0.14945 0.02384 0.9741 0.0
C220 C 0.07169 0.99194 0.92734 0.0
N221 N 0.06611 0.01437 0.93723 0.0
N222 N 0.09826 0.02814 0.94097 0.0
C223 C 0.12533 0.01536 0.9333 0.0
C224 C 0.10949 0.99155 0.92458 0.0
C225 C 0.04113 0.97162 0.92071 0.0
H226 H 0.01902 0.99167 0.91798 0.0
H227 H 0.02851 0.951 0.92713 0.0
H228 H 0.0514 0.95659 0.91239 0.0
O229 O 0.01453 0.08581 0.94174 0.0
O230 O 0.06763 0.10745 0.94948 0.0
H231 H 0.16561 0.0592 0.93574 0.0
H232 H 0.1767 0.0268 0.92352 0.0
C233 C 0.1646 0.02951 0.93298 0.0
H234 H 0.18196 0.01276 0.93938 0.0
H235 H 0.13862 0.13533 0.95017 0.0
O236 O 0.97752 0.00502 0.93915 0.0
C237 C 0.03604 0.11291 0.94442 0.0
Co238 Co 0.20979 0.77239 0.19501 0.0
Co239 Co 0.17871 0.84774 0.20457 0.0
C240 C 0.21344 0.79448 0.22217 0.0
O241 O 0.21794 0.77228 0.21311 0.0
O242 O 0.19925 0.82666 0.22047 0.0
C243 C 0.26812 0.72158 0.19445 0.0
O244 O 0.28357 0.74777 0.20127 0.0
C245 C 0.17784 0.92621 0.21196 0.0
C246 C 0.12178 0.94328 0.20559 0.0
C247 C 0.15478 0.95703 0.21046 0.0
N248 N 0.15965 0.89605 0.20775 0.0
N249 N 0.1258 0.90623 0.20428 0.0
C250 C 0.21622 0.92489 0.21744 0.0
H251 H 0.23699 0.91898 0.21008 0.0
H252 H 0.22336 0.95144 0.22218 0.0
H253 H 0.21783 0.90161 0.22421 0.0
C254 C 0.25016 0.82178 0.17749 0.0
N255 N 0.22775 0.81651 0.18739 0.0
N256 N 0.21422 0.84882 0.19109 0.0
C257 C 0.22719 0.87568 0.18336 0.0
C258 C 0.25082 0.85953 0.17465 0.0
C259 C 0.27004 0.79093 0.17085 0.0
H260 H 0.24965 0.76917 0.16809 0.0
H261 H 0.29039 0.77795 0.17728 0.0
H262 H 0.28529 0.80101 0.16255 0.0
O263 O 0.15594 0.76517 0.19168 0.0
O264 O 0.13476 0.81848 0.19938 0.0
H265 H 0.21545 0.92669 0.17344 0.0
H266 H 0.23064 0.93256 0.18915 0.0
C267 C 0.21328 0.91503 0.18297 0.0
H268 H 0.18381 0.91642 0.18596 0.0
H269 H 0.10614 0.88827 0.20038 0.0
O270 O 0.23666 0.72784 0.18943 0.0
C271 C 0.12904 0.78698 0.19429 0.0
Co272 Co 0.52235 0.96037 0.94486 0.0
Co273 Co 0.59765 0.93159 0.9551 0.0
C274 C 0.54484 0.96806 0.97207 0.0
O275 O 0.5222 0.97012 0.96302 0.0
O276 O 0.57759 0.9551 0.97052 0.0
C277 C 0.47174 0.01863 0.94385 0.0
O278 O 0.49849 0.03474 0.95025 0.0
C279 C 0.67616 0.93018 0.96245 0.0
C280 C 0.69268 0.87395 0.95609 0.0
C281 C 0.70678 0.90687 0.96091 0.0
N282 N 0.6458 0.91221 0.95831 0.0
N283 N 0.65565 0.87825 0.95486 0.0
C284 C 0.6752 0.9686 0.96791 0.0
H285 H 0.66766 0.9892 0.96066 0.0
H286 H 0.70233 0.97621 0.97218 0.0
H287 H 0.65306 0.96987 0.97511 0.0
C288 C 0.57171 -0.00038 0.92701 0.0
N289 N 0.56631 0.9778 0.93706 0.0
N290 N 0.59861 0.96492 0.94099 0.0
C291 C 0.62565 0.97782 0.93333 0.0
C292 C 0.6096 0.00064 0.92436 0.0
C293 C 0.54095 0.01909 0.92021 0.0
H294 H 0.51876 -0.00127 0.91783 0.0
H295 H 0.52853 0.04049 0.92639 0.0
H296 H 0.55097 0.03308 0.91165 0.0
O297 O 0.51556 0.9062 0.94191 0.0
O298 O 0.56713 0.88718 0.95137 0.0
H299 H 0.67801 0.96748 0.92403 0.0
H300 H 0.6817 0.98324 0.93977 0.0
C301 C 0.66543 0.96519 0.93343 0.0
H302 H 0.66741 0.93584 0.93653 0.0
H303 H 0.63745 0.85872 0.95099 0.0
O304 O 0.47762 0.98667 0.93914 0.0
C305 C 0.53652 0.88018 0.94589 0.0
Co306 Co 0.78218 0.77199 0.6956 0.0
Co307 Co 0.81385 0.84772 0.70471 0.0
C308 C 0.77869 0.79564 0.72261 0.0
O309 O 0.77412 0.77302 0.71368 0.0
O310 O 0.79313 0.82763 0.72075 0.0
C311 C 0.72384 0.7211 0.69562 0.0
O312 O 0.70813 0.74815 0.70199 0.0
C313 C 0.8148 0.92673 0.71153 0.0
C314 C 0.8707 0.94344 0.7049 0.0
C315 C 0.83776 0.9575 0.70972 0.0
N316 N 0.83297 0.89628 0.70754 0.0
N317 N 0.86674 0.9063 0.70392 0.0
C318 C 0.77652 0.92572 0.7171 0.0
H319 H 0.75556 0.91974 0.7098 0.0
H320 H 0.76962 0.95243 0.72177 0.0
H321 H 0.77492 0.90263 0.72395 0.0
C322 C 0.74182 0.82074 0.67786 0.0
N323 N 0.76438 0.81576 0.68774 0.0
N324 N 0.77829 0.84813 0.69123 0.0
C325 C 0.76548 0.87471 0.68337 0.0
C326 C 0.7415 0.85836 0.67481 0.0
C327 C 0.72148 0.78975 0.67146 0.0
H328 H 0.70134 0.77713 0.67804 0.0
H329 H 0.70597 0.79959 0.66318 0.0
H330 H 0.74163 0.76775 0.66871 0.0
O331 O 0.83599 0.76454 0.69225 0.0
O332 O 0.85773 0.81797 0.69969 0.0
H333 H 0.77753 0.92505 0.6731 0.0
H334 H 0.76304 0.93192 0.68885 0.0
C335 C 0.7799 0.91385 0.68269 0.0
H336 H 0.80951 0.91498 0.68554 0.0
H337 H 0.88635 0.8881 0.70012 0.0
O338 O 0.75522 0.72693 0.69049 0.0
C339 C 0.86312 0.78621 0.69474 0.0
Co340 Co 0.97116 0.03363 0.44533 0.0
Co341 Co 0.89505 0.06113 0.45531 0.0
C342 C 0.94632 0.02505 0.47251 0.0
O343 O 0.96935 0.0235 0.46353 0.0
O344 O 0.91347 0.03772 0.47089 0.0
C345 C 0.02188 0.97507 0.44437 0.0
O346 O 0.99434 0.95801 0.45008 0.0
C347 C 0.8166 0.06721 0.46311 0.0
C348 C 0.79979 0.11761 0.4527 0.0
C349 C 0.78598 0.08919 0.46009 0.0
N350 N 0.84671 0.08147 0.45742 0.0
N351 N 0.83667 0.11217 0.45151 0.0
C352 C 0.8178 0.0338 0.47147 0.0
H353 H 0.83416 0.04105 0.47989 0.0
H354 H 0.83272 0.0105 0.46687 0.0
H355 H 0.78952 0.02491 0.47442 0.0
C356 C 0.92288 0.99514 0.4269 0.0
N357 N 0.92794 0.01632 0.43711 0.0
N358 N 0.89538 0.02741 0.44136 0.0
C359 C 0.86836 0.01323 0.43397 0.0
C360 C 0.88485 0.99233 0.42452 0.0
C361 C 0.95411 0.98043 0.41909 0.0
H362 H 0.97813 -9e-05 0.41936 0.0
H363 H 0.96331 0.95319 0.4229 0.0
H364 H 0.94513 0.97638 0.40931 0.0
O365 O 0.97817 0.0876 0.44255 0.0
O366 O 0.92623 0.10561 0.45199 0.0
H367 H 0.82016 0.04835 0.43481 0.0
H368 H 0.8101 0.00097 0.43003 0.0
C369 C 0.82749 0.01858 0.43618 0.0
H370 H 0.8209 0.01085 0.44586 0.0
H371 H 0.85464 0.12827 0.44608 0.0
O372 O 0.01651 0.0076 0.44005 0.0
C373 C 0.95697 0.11318 0.44667 0.0
Co374 Co 0.70913 0.22159 0.19492 0.0
Co375 Co 0.67931 0.14574 0.20457 0.0
C376 C 0.71394 0.19828 0.22214 0.0
O377 O 0.71785 0.22058 0.21306 0.0
O378 O 0.69986 0.16598 0.22053 0.0
C379 C 0.7679 0.2722 0.19416 0.0
O380 O 0.78425 0.24526 0.2004 0.0
C381 C 0.67378 0.06774 0.21299 0.0
C382 C 0.62543 0.04895 0.2019 0.0
C383 C 0.65308 0.03634 0.20984 0.0
N384 N 0.65969 0.09709 0.20683 0.0
N385 N 0.63013 0.08586 0.20052 0.0
C386 C 0.70605 0.07024 0.2218 0.0
H387 H 0.73148 0.0795 0.21682 0.0
H388 H 0.71132 0.04323 0.22652 0.0
H389 H 0.69991 0.09178 0.22892 0.0
C390 C 0.7487 0.1727 0.17702 0.0
N391 N 0.72689 0.17796 0.18706 0.0
N392 N 0.71525 0.14549 0.19124 0.0
C393 C 0.72971 0.11834 0.18396 0.0
C394 C 0.75139 0.13465 0.17467 0.0
C395 C 0.76374 0.20381 0.16921 0.0
H396 H 0.74404 0.22765 0.16924 0.0
H397 H 0.79062 0.21338 0.17321 0.0
H398 H 0.76855 0.19462 0.15949 0.0
O399 O 0.65551 0.22878 0.19175 0.0
O400 O 0.63507 0.17542 0.19959 0.0
H401 H 0.69376 0.07069 0.18404 0.0
H402 H 0.74172 0.06001 0.18012 0.0
C403 C 0.72336 0.07753 0.18599 0.0
H404 H 0.72932 0.07061 0.19578 0.0
H405 H 0.61445 0.10301 0.19468 0.0
O406 O 0.73576 0.26649 0.18957 0.0
C407 C 0.62888 0.20687 0.19452 0.0
Co408 Co 0.52159 0.03141 0.58501 0.0
Co409 Co 0.59666 0.06308 0.57542 0.0
C410 C 0.54368 0.02753 0.55787 0.0
O411 O 0.52153 0.02293 0.56694 0.0
O412 O 0.5757 0.04213 0.55954 0.0
C413 C 0.47157 0.97247 0.58566 0.0
O414 O 0.49823 0.95708 0.57903 0.0
C415 C 0.67518 0.06426 0.56807 0.0
C416 C 0.69205 0.12037 0.57444 0.0
C417 C 0.70594 0.0874 0.56959 0.0
N418 N 0.64492 0.08236 0.57224 0.0
N419 N 0.655 0.11625 0.57571 0.0
C420 C 0.674 0.02585 0.5626 0.0
H421 H 0.66819 0.00508 0.56997 0.0
H422 H 0.70057 0.01882 0.55786 0.0
H423 H 0.65072 0.02411 0.55583 0.0
C424 C 0.57125 0.99159 0.60257 0.0
N425 N 0.56581 0.01393 0.59266 0.0
N426 N 0.598 0.02771 0.58896 0.0
C427 C 0.62498 0.01499 0.59668 0.0
C428 C 0.60901 0.99124 0.6054 0.0
C429 C 0.54058 0.97146 0.60921 0.0
H430 H 0.51838 0.99156 0.61181 0.0
H431 H 0.52815 0.95058 0.60284 0.0
H432 H 0.55069 0.95675 0.61762 0.0
O433 O 0.51397 0.08526 0.58828 0.0
O434 O 0.56704 0.10693 0.58055 0.0
H435 H 0.66541 0.05865 0.59408 0.0
H436 H 0.67593 0.02706 0.60659 0.0
C437 C 0.66423 0.02917 0.59706 0.0
H438 H 0.68185 0.01194 0.59087 0.0
H439 H 0.63695 0.13585 0.5796 0.0
O440 O 0.47728 0.00418 0.59058 0.0
C441 C 0.53549 0.11238 0.58564 0.0
Co442 Co 0.70932 0.77059 0.3352 0.0
Co443 Co 0.68236 0.84657 0.32495 0.0
C444 C 0.71746 0.79422 0.30788 0.0
O445 O 0.719 0.77162 0.31699 0.0
O446 O 0.7051 0.82724 0.30936 0.0
C447 C 0.7677 0.71992 0.33616 0.0
O448 O 0.78468 0.74754 0.33045 0.0
C449 C 0.67636 0.92471 0.31668 0.0
C450 C 0.62776 0.94277 0.32779 0.0
C451 C 0.65531 0.95582 0.31989 0.0
N452 N 0.66253 0.8951 0.32277 0.0
N453 N 0.63284 0.90588 0.32909 0.0
C454 C 0.70859 0.92273 0.30783 0.0
H455 H 0.70247 0.90147 0.30062 0.0
H456 H 0.73409 0.91337 0.31275 0.0
H457 H 0.71372 0.94996 0.30324 0.0
C458 C 0.74882 0.81913 0.35328 0.0
N459 N 0.72731 0.81391 0.34316 0.0
N460 N 0.71654 0.84643 0.33879 0.0
C461 C 0.73129 0.87357 0.346 0.0
C462 C 0.75223 0.85722 0.35547 0.0
C463 C 0.76324 0.78803 0.36121 0.0
H464 H 0.74353 0.7642 0.36104 0.0
H465 H 0.79039 0.77844 0.35744 0.0
H466 H 0.76739 0.79733 0.37096 0.0
O467 O 0.6554 0.76424 0.33818 0.0
O468 O 0.63759 0.81601 0.32861 0.0
H469 H 0.69697 0.92236 0.34553 0.0
H470 H 0.74524 0.93172 0.34939 0.0
C471 C 0.72633 0.91441 0.34364 0.0
H472 H 0.73252 0.92041 0.33381 0.0
H473 H 0.6173 0.88843 0.33487 0.0
O474 O 0.73522 0.72524 0.34052 0.0
C475 C 0.62989 0.78556 0.33409 0.0
Co476 Co 0.96932 0.95955 0.08472 0.0
Co477 Co 0.89381 0.93011 0.07474 0.0
C478 C 0.94686 0.96515 0.05743 0.0
O479 O 0.96896 0.96884 0.06658 0.0
O480 O 0.91452 0.95106 0.05893 0.0
C481 C 0.01897 0.01891 0.08608 0.0
O482 O 0.99185 0.03527 0.07994 0.0
C483 C 0.81603 0.9251 0.06621 0.0
C484 C 0.79758 0.87479 0.07635 0.0
C485 C 0.78484 0.90349 0.06887 0.0
N486 N 0.8454 0.91035 0.07217 0.0
N487 N 0.8344 0.87971 0.07793 0.0
C488 C 0.81847 0.95864 0.05794 0.0
H489 H 0.83411 0.98133 0.06262 0.0
H490 H 0.79057 0.96852 0.05496 0.0
H491 H 0.83471 0.95102 0.04953 0.0
C492 C 0.91985 -0.00141 0.1026 0.0
N493 N 0.92541 0.97706 0.0925 0.0
N494 N 0.89306 0.96564 0.08816 0.0
C495 C 0.86569 0.97997 0.09537 0.0
C496 C 0.88173 0.00134 0.1048 0.0
C497 C 0.9507 0.01325 0.11059 0.0
H498 H 0.9745 0.99351 0.11058 0.0
H499 H 0.96046 0.04027 0.10676 0.0
H500 H 0.94115 0.01769 0.12029 0.0
O501 O 0.97658 0.9058 0.08776 0.0
O502 O 0.92334 0.88583 0.07971 0.0
H503 H 0.8181 0.944 0.09447 0.0
H504 H 0.8072 0.99119 0.09926 0.0
C505 C 0.82494 0.9739 0.09312 0.0
H506 H 0.81833 0.98157 0.08344 0.0
H507 H 0.8516 0.8633 0.08352 0.0
O508 O 0.01379 0.98629 0.09034 0.0
C509 C 0.95462 0.87935 0.08485 0.0
Co510 Co 0.78319 0.2206 0.83454 0.0
Co511 Co 0.81471 0.14522 0.82507 0.0
C512 C 0.77946 0.19801 0.80743 0.0
O513 O 0.77497 0.22024 0.81647 0.0
O514 O 0.79395 0.16596 0.80912 0.0
C515 C 0.72472 0.27119 0.83477 0.0
O516 O 0.70906 0.24416 0.82838 0.0
C517 C 0.81535 0.06652 0.81788 0.0
C518 C 0.87104 0.04923 0.82452 0.0
C519 C 0.83807 0.03553 0.8196 0.0
N520 N 0.83366 0.0967 0.82202 0.0
N521 N 0.86731 0.08636 0.82564 0.0
C522 C 0.77715 0.06797 0.81226 0.0
H523 H 0.77581 0.09129 0.80549 0.0
H524 H 0.75615 0.07388 0.81955 0.0
H525 H 0.77011 0.04146 0.80748 0.0
C526 C 0.7426 0.17115 0.85203 0.0
N527 N 0.76533 0.17654 0.84221 0.0
N528 N 0.77916 0.14431 0.83857 0.0
C529 C 0.76614 0.11739 0.84626 0.0
C530 C 0.74209 0.13339 0.85487 0.0
C531 C 0.72212 0.20186 0.85852 0.0
H532 H 0.7421 0.22405 0.86124 0.0
H533 H 0.70167 0.21432 0.85201 0.0
H534 H 0.70688 0.19179 0.86683 0.0
O535 O 0.83705 0.22788 0.83787 0.0
O536 O 0.8587 0.17472 0.83019 0.0
H537 H 0.80994 0.07699 0.8439 0.0
H538 H 0.77776 0.06645 0.85624 0.0
C539 C 0.7803 0.07814 0.84672 0.0
H540 H 0.76338 0.0605 0.84044 0.0
H541 H 0.88698 0.1043 0.82956 0.0
O542 O 0.75622 0.26545 0.83984 0.0
C543 C 0.86415 0.20629 0.83528 0.0
Co544 Co 0.97023 0.53397 0.58476 0.0
Co545 Co 0.89437 0.56429 0.57535 0.0
C546 C 0.94673 0.5305 0.55754 0.0
O547 O 0.96917 0.52611 0.56656 0.0
O548 O 0.91445 0.54445 0.55929 0.0
C549 C 0.02074 0.47502 0.58542 0.0
O550 O 0.99407 0.45903 0.57896 0.0
C551 C 0.81649 0.56998 0.56697 0.0
C552 C 0.79759 0.61804 0.57817 0.0
C553 C 0.78506 0.59055 0.57016 0.0
N554 N 0.84579 0.58399 0.57317 0.0
N555 N 0.83452 0.61338 0.57955 0.0
C556 C 0.81908 0.53789 0.55808 0.0
H557 H 0.84004 0.5446 0.55083 0.0
H558 H 0.8292 0.51261 0.56295 0.0
H559 H 0.79191 0.53213 0.55353 0.0
C560 C 0.92139 0.49375 0.60253 0.0
N561 N 0.9266 0.51593 0.59257 0.0
N562 N 0.89412 0.52779 0.58849 0.0
C563 C 0.86701 0.51309 0.59573 0.0
C564 C 0.88336 0.49104 0.60491 0.0
C565 C 0.95254 0.47844 0.61026 0.0
H566 H 0.97631 0.49823 0.61035 0.0
H567 H 0.96221 0.45181 0.60611 0.0
H568 H 0.94336 0.47313 0.61995 0.0
O569 O 0.9775 0.58742 0.58822 0.0
O570 O 0.92411 0.60827 0.58054 0.0
H571 H 0.81948 0.5492 0.5958 0.0
H572 H 0.80868 0.50119 0.59962 0.0
C573 C 0.8262 0.51962 0.59377 0.0
H574 H 0.81914 0.51386 0.58398 0.0
H575 H 0.85163 0.62896 0.58544 0.0
O576 O 0.01501 0.50708 0.59006 0.0
C577 C 0.9556 0.61419 0.58561 0.0
Co578 Co 0.70833 0.72102 0.8349 0.0
Co579 Co 0.67951 0.64487 0.82524 0.0
C580 C 0.71382 0.69772 0.8077 0.0
O581 O 0.71738 0.72022 0.81675 0.0
O582 O 0.70009 0.6653 0.80935 0.0
C583 C 0.76696 0.77162 0.83597 0.0
O584 O 0.78344 0.74472 0.82975 0.0
C585 C 0.67473 0.56693 0.81676 0.0
C586 C 0.62621 0.54776 0.8277 0.0
C587 C 0.65409 0.5354 0.81981 0.0
N588 N 0.66034 0.59612 0.82293 0.0
N589 N 0.63071 0.58467 0.82916 0.0
C590 C 0.70713 0.56973 0.80801 0.0
H591 H 0.73203 0.58054 0.81294 0.0
H592 H 0.71355 0.5425 0.8036 0.0
H593 H 0.70033 0.59027 0.80064 0.0
C594 C 0.74833 0.67243 0.85283 0.0
N595 N 0.72647 0.67752 0.84279 0.0
N596 N 0.71526 0.64494 0.83858 0.0
C597 C 0.73005 0.6179 0.84582 0.0
C598 C 0.7515 0.6344 0.85513 0.0
C599 C 0.763 0.70363 0.86067 0.0
H600 H 0.74302 0.72723 0.86069 0.0
H601 H 0.78977 0.71357 0.85669 0.0
H602 H 0.76793 0.69437 0.87038 0.0
O603 O 0.65454 0.72768 0.83802 0.0
O604 O 0.63496 0.67403 0.83017 0.0
H605 H 0.69475 0.56977 0.8456 0.0
H606 H 0.74277 0.55968 0.84959 0.0
C607 C 0.72428 0.57704 0.84372 0.0
H608 H 0.73053 0.57033 0.83393 0.0
H609 H 0.61481 0.60167 0.83497 0.0
O610 O 0.73457 0.76601 0.84037 0.0
C611 C 0.62826 0.70538 0.83522 0.0
Co612 Co 0.52215 0.4596 0.08487 0.0
Co613 Co 0.59776 0.42867 0.07549 0.0
C614 C 0.5459 0.46298 0.05766 0.0
O615 O 0.52342 0.46752 0.06667 0.0
O616 O 0.57806 0.44878 0.05943 0.0
C617 C 0.47226 0.51906 0.08549 0.0
O618 O 0.49932 0.53497 0.07918 0.0
C619 C 0.67567 0.42234 0.06724 0.0
C620 C 0.69364 0.37314 0.07806 0.0
C621 C 0.7067 0.40097 0.07027 0.0
N622 N 0.64608 0.40837 0.07331 0.0
N623 N 0.65679 0.37835 0.07946 0.0
C624 C 0.67363 0.45505 0.0586 0.0
H625 H 0.66017 0.47908 0.06328 0.0
H626 H 0.70152 0.46303 0.05501 0.0
H627 H 0.65554 0.44755 0.05061 0.0
C628 C 0.57125 0.49927 0.10272 0.0
N629 N 0.56589 0.4772 0.09274 0.0
N630 N 0.59828 0.46508 0.08866 0.0
C631 C 0.62549 0.47948 0.09592 0.0
C632 C 0.6093 0.50163 0.10511 0.0
C633 C 0.54021 0.51482 0.11044 0.0
H634 H 0.51619 0.49532 0.11046 0.0
H635 H 0.53092 0.54165 0.10634 0.0
H636 H 0.54936 0.51984 0.12015 0.0
O637 O 0.51424 0.40617 0.08827 0.0
O638 O 0.56751 0.385 0.0806 0.0
H639 H 0.67263 0.44287 0.09574 0.0
H640 H 0.68393 0.49047 0.09995 0.0
C641 C 0.66625 0.47265 0.09395 0.0
H642 H 0.67341 0.47906 0.08422 0.0
H643 H 0.63937 0.36262 0.08519 0.0
O644 O 0.47759 0.4869 0.09011 0.0
C645 C 0.53593 0.37926 0.08563 0.0
Co646 Co 0.78296 0.27058 0.33482 0.0
Co647 Co 0.81186 0.34672 0.32512 0.0
C648 C 0.77709 0.29417 0.30762 0.0
O649 O 0.77365 0.27177 0.3167 0.0
O650 O 0.79096 0.32657 0.30922 0.0
C651 C 0.72426 0.22006 0.33573 0.0
O652 O 0.70741 0.24754 0.32992 0.0
C653 C 0.81715 0.42486 0.31679 0.0
C654 C 0.86567 0.44349 0.32782 0.0
C655 C 0.83792 0.45621 0.31995 0.0
N656 N 0.83132 0.39542 0.32289 0.0
N657 N 0.86096 0.40656 0.32916 0.0
C658 C 0.78478 0.42249 0.30801 0.0
H659 H 0.75941 0.41315 0.313 0.0
H660 H 0.77947 0.44957 0.30334 0.0
H661 H 0.79086 0.40105 0.30085 0.0
C662 C 0.74357 0.31922 0.35292 0.0
N663 N 0.76511 0.31407 0.34279 0.0
N664 N 0.77637 0.34662 0.33857 0.0
C665 C 0.76196 0.37369 0.34588 0.0
C666 C 0.74071 0.35727 0.35526 0.0
C667 C 0.72891 0.28806 0.36077 0.0
H668 H 0.74852 0.26416 0.36059 0.0
H669 H 0.70177 0.27862 0.35694 0.0
H670 H 0.72467 0.29718 0.37053 0.0
O671 O 0.83679 0.2636 0.33778 0.0
O672 O 0.85636 0.31722 0.3299 0.0
H673 H 0.79753 0.42162 0.34572 0.0
H674 H 0.74955 0.43194 0.34971 0.0
C675 C 0.76796 0.41453 0.34382 0.0
H676 H 0.76179 0.42136 0.33404 0.0
H677 H 0.87672 0.38934 0.33495 0.0
O678 O 0.75671 0.22542 0.34011 0.0
C679 C 0.86309 0.2858 0.33491 0.0
Co680 Co 0.97126 0.45974 0.94469 0.0
Co681 Co 0.89584 0.42968 0.95457 0.0
C682 C 0.94863 0.46496 0.97195 0.0
O683 O 0.97076 0.46894 0.96282 0.0
O684 O 0.91642 0.45059 0.97041 0.0
C685 C 0.02086 0.51914 0.94344 0.0
O686 O 0.9937 0.5354 0.9496 0.0
C687 C 0.8181 0.42455 0.96318 0.0
C688 C 0.79896 0.37586 0.95233 0.0
C689 C 0.78655 0.40391 0.96014 0.0
N690 N 0.84732 0.41005 0.95705 0.0
N691 N 0.83589 0.38029 0.95089 0.0
C692 C 0.82088 0.45716 0.97184 0.0
H693 H 0.83064 0.48222 0.96677 0.0
H694 H 0.79387 0.46301 0.97648 0.0
H695 H 0.84219 0.451 0.97904 0.0
C696 C 0.92177 0.49873 0.92683 0.0
N697 N 0.92736 0.4771 0.9369 0.0
N698 N 0.89505 0.46536 0.94118 0.0
C699 C 0.86767 0.47957 0.93395 0.0
C700 C 0.88367 0.50119 0.92458 0.0
C701 C 0.9526 0.51375 0.9189 0.0
H702 H 0.97649 0.49411 0.91887 0.0
H703 H 0.96223 0.5407 0.92283 0.0
H704 H 0.9431 0.51842 0.90921 0.0
O705 O 0.97872 0.40606 0.94163 0.0
O706 O 0.92555 0.38547 0.94958 0.0
H707 H 0.82031 0.44324 0.93436 0.0
H708 H 0.80918 0.49081 0.93009 0.0
C709 C 0.82694 0.47302 0.93607 0.0
H710 H 0.82009 0.47965 0.94581 0.0
H711 H 0.8529 0.36431 0.9451 0.0
O712 O 0.01569 0.4866 0.9391 0.0
C713 C 0.95697 0.37936 0.94447 0.0
Co714 Co 0.78326 0.72173 0.19515 0.0
Co715 Co 0.81246 0.64544 0.20461 0.0
C716 C 0.77896 0.69776 0.22237 0.0
O717 O 0.77518 0.72023 0.21332 0.0
O718 O 0.7925 0.66528 0.22068 0.0
C719 C 0.72442 0.77227 0.1947 0.0
O720 O 0.70792 0.74473 0.2006 0.0
C721 C 0.81784 0.56706 0.21257 0.0
C722 C 0.86763 0.5493 0.20201 0.0
C723 C 0.8394 0.53609 0.20959 0.0
N724 N 0.83221 0.59681 0.2067 0.0
N725 N 0.86254 0.58618 0.20068 0.0
C726 C 0.78478 0.56896 0.22106 0.0
H727 H 0.76272 0.58684 0.21698 0.0
H728 H 0.77365 0.54091 0.22331 0.0
H729 H 0.79357 0.58249 0.22987 0.0
C730 C 0.74297 0.67336 0.17721 0.0
N731 N 0.76494 0.67834 0.18724 0.0
N732 N 0.77619 0.64572 0.19139 0.0
C733 C 0.76126 0.61876 0.18415 0.0
C734 C 0.73977 0.63534 0.17487 0.0
C735 C 0.72821 0.70465 0.16944 0.0
H736 H 0.74786 0.72853 0.16961 0.0
H737 H 0.70115 0.71406 0.17334 0.0
H738 H 0.72378 0.69566 0.15968 0.0
O739 O 0.83683 0.72868 0.19179 0.0
O740 O 0.85665 0.67504 0.19957 0.0
H741 H 0.79638 0.57051 0.18465 0.0
H742 H 0.74861 0.56056 0.18028 0.0
C743 C 0.76674 0.57788 0.18629 0.0
H744 H 0.75972 0.57127 0.19602 0.0
H745 H 0.87862 0.60373 0.1951 0.0
O746 O 0.75666 0.767 0.19013 0.0
C747 C 0.8632 0.70641 0.19451 0.0
Co748 Co 0.52184 0.53297 0.44531 0.0
Co749 Co 0.59823 0.56202 0.45469 0.0
C750 C 0.54617 0.52756 0.47243 0.0
O751 O 0.5235 0.52399 0.46343 0.0
O752 O 0.57853 0.54138 0.47071 0.0
C753 C 0.47147 0.47414 0.44462 0.0
O754 O 0.4991 0.45747 0.45041 0.0
C755 C 0.67655 0.56761 0.46283 0.0
C756 C 0.695 0.61562 0.45151 0.0
C757 C 0.70784 0.58824 0.4595 0.0
N758 N 0.64701 0.5815 0.45671 0.0
N759 N 0.65805 0.61084 0.45026 0.0
C760 C 0.67434 0.53567 0.47178 0.0
H761 H 0.65308 0.54211 0.47896 0.0
H762 H 0.66484 0.51008 0.46694 0.0
H763 H 0.70152 0.53052 0.4764 0.0
C764 C 0.56997 0.49294 0.42721 0.0
N765 N 0.5651 0.51494 0.43724 0.0
N766 N 0.59777 0.52623 0.44134 0.0
C767 C 0.62464 0.51134 0.43405 0.0
C768 C 0.60795 0.48976 0.42481 0.0
C769 C 0.53859 0.47799 0.41951 0.0
H770 H 0.51474 0.49768 0.41965 0.0
H771 H 0.52917 0.45106 0.42351 0.0
H772 H 0.54749 0.47327 0.40976 0.0
O773 O 0.51473 0.58674 0.44226 0.0
O774 O 0.56856 0.60647 0.44993 0.0
H775 H 0.6729 0.54647 0.43397 0.0
H776 H 0.68275 0.4982 0.43026 0.0
C777 C 0.66556 0.51708 0.43606 0.0
H778 H 0.67239 0.51139 0.44586 0.0
H779 H 0.64073 0.62634 0.44443 0.0
O780 O 0.47663 0.50656 0.44018 0.0
C781 C 0.53697 0.61309 0.44502 0.0
Co782 Co 0.70909 0.27182 0.69477 0.0
Co783 Co 0.68018 0.34744 0.70485 0.0
C784 C 0.71525 0.29408 0.72205 0.0
O785 O 0.7187 0.27198 0.71289 0.0
O786 O 0.70127 0.32648 0.72059 0.0
C787 C 0.7679 0.2216 0.6933 0.0
O788 O 0.78444 0.24839 0.69956 0.0
C789 C 0.67542 0.42509 0.71362 0.0
C790 C 0.62636 0.44437 0.70299 0.0
C791 C 0.65455 0.45662 0.71077 0.0
N792 N 0.66087 0.39601 0.70744 0.0
N793 N 0.63092 0.40751 0.7014 0.0
C794 C 0.70823 0.42218 0.7222 0.0
H795 H 0.73309 0.41218 0.71706 0.0
H796 H 0.7144 0.44919 0.7268 0.0
H797 H 0.70208 0.40099 0.72943 0.0
C798 C 0.74814 0.32123 0.67687 0.0
N799 N 0.72676 0.3157 0.687 0.0
N800 N 0.71552 0.34807 0.69137 0.0
C801 C 0.72979 0.37542 0.68414 0.0
C802 C 0.75094 0.35935 0.67467 0.0
C803 C 0.76254 0.29037 0.66882 0.0
H804 H 0.74265 0.26669 0.66883 0.0
H805 H 0.78953 0.28041 0.67263 0.0
H806 H 0.76696 0.29996 0.65913 0.0
O807 O 0.65525 0.26497 0.69181 0.0
O808 O 0.63562 0.31826 0.69992 0.0
H809 H 0.69398 0.42314 0.68465 0.0
H810 H 0.74169 0.43385 0.68042 0.0
C811 C 0.72368 0.41618 0.68636 0.0
H812 H 0.73031 0.42278 0.69612 0.0
H813 H 0.61483 0.39062 0.6956 0.0
O814 O 0.73537 0.2272 0.68902 0.0
C815 C 0.62893 0.28704 0.69477 0.0
Co816 Co 0.02259 0.45897 0.44528 0.0
Co817 Co 0.09845 0.43159 0.45548 0.0
C818 C 0.04632 0.46718 0.47256 0.0
O819 O 0.02359 0.46886 0.46349 0.0
O820 O 0.07922 0.45457 0.47103 0.0
C821 C 0.97195 0.51748 0.44414 0.0
O822 O -0.00057 0.53455 0.44988 0.0
C823 C 0.17646 0.42567 0.46381 0.0
C824 C 0.19457 0.37671 0.45289 0.0
C825 C 0.20758 0.40451 0.46069 0.0
N826 N 0.14689 0.41167 0.45775 0.0
N827 N 0.15769 0.38176 0.45154 0.0
C828 C 0.17446 0.45826 0.4725 0.0
H829 H 0.1657 0.48367 0.46742 0.0
H830 H 0.20153 0.46323 0.47722 0.0
H831 H 0.15277 0.45273 0.47963 0.0
C832 C 0.0713 0.49771 0.42704 0.0
N833 N 0.06601 0.4766 0.43725 0.0
N834 N 0.09848 0.46558 0.44159 0.0
C835 C 0.12566 0.47977 0.43427 0.0
C836 C 0.10939 0.50058 0.42476 0.0
C837 C 0.04023 0.51209 0.41909 0.0
H838 H 0.01628 0.49253 0.41934 0.0
H839 H 0.03082 0.5394 0.42278 0.0
H840 H 0.04947 0.51589 0.40932 0.0
O841 O 0.016 0.40503 0.44235 0.0
O842 O 0.06779 0.38692 0.45185 0.0
H843 H 0.17393 0.44472 0.43474 0.0
H844 H 0.18392 0.49269 0.43066 0.0
C845 C 0.16648 0.47426 0.43653 0.0
H846 H 0.17284 0.48072 0.44633 0.0
H847 H 0.14027 0.36604 0.4458 0.0
O848 O 0.97734 0.4849 0.43987 0.0
C849 C 0.03724 0.3794 0.4464 0.0
Co850 Co 0.28146 0.27225 0.19505 0.0
Co851 Co 0.31348 0.34746 0.20439 0.0
C852 C 0.27788 0.29496 0.22212 0.0
O853 O 0.27307 0.27255 0.21314 0.0
O854 O 0.29259 0.32686 0.22032 0.0
C855 C 0.2229 0.22169 0.19454 0.0
O856 O 0.20755 0.24795 0.20136 0.0
C857 C 0.31453 0.42607 0.21157 0.0
C858 C 0.37051 0.44303 0.20509 0.0
C859 C 0.33753 0.45689 0.20994 0.0
N860 N 0.33272 0.39581 0.20746 0.0
N861 N 0.36653 0.40594 0.20392 0.0
C862 C 0.27617 0.42486 0.21707 0.0
H863 H 0.27446 0.40151 0.22382 0.0
H864 H 0.25533 0.41916 0.20971 0.0
H865 H 0.2692 0.45139 0.22185 0.0
C866 C 0.24152 0.32167 0.17743 0.0
N867 N 0.26404 0.31635 0.18731 0.0
N868 N 0.27804 0.34856 0.19089 0.0
C869 C 0.26533 0.37541 0.18312 0.0
C870 C 0.24133 0.35936 0.1745 0.0
C871 C 0.221 0.29096 0.17095 0.0
H872 H 0.24101 0.26889 0.16815 0.0
H873 H 0.20072 0.27835 0.17749 0.0
H874 H 0.20558 0.30107 0.16269 0.0
O875 O 0.33529 0.26444 0.19182 0.0
O876 O 0.35726 0.31768 0.19932 0.0
H877 H 0.3093 0.41563 0.18552 0.0
H878 H 0.27752 0.42605 0.17305 0.0
C879 C 0.27974 0.41457 0.1826 0.0
H880 H 0.26275 0.43243 0.18879 0.0
H881 H 0.38617 0.38788 0.20005 0.0
O882 O 0.25435 0.22786 0.18951 0.0
C883 C 0.36252 0.28592 0.19436 0.0
Co884 Co 0.47167 0.53392 0.94538 0.0
Co885 Co 0.3955 0.56179 0.95527 0.0
C886 C 0.44773 0.5258 0.97248 0.0
O887 O 0.47076 0.5241 0.96352 0.0
O888 O 0.41491 0.5384 0.9708 0.0
C889 C 0.52279 0.47603 0.94475 0.0
O890 O 0.49551 0.45953 0.95078 0.0
C891 C 0.31662 0.56251 0.96222 0.0
C892 C 0.29955 0.61797 0.95529 0.0
C893 C 0.2857 0.58518 0.96029 0.0
N894 N 0.34693 0.58067 0.95811 0.0
N895 N 0.33672 0.6142 0.95432 0.0
C896 C 0.3179 0.52454 0.96801 0.0
H897 H 0.3402 0.52391 0.97516 0.0
H898 H 0.32531 0.50341 0.96092 0.0
H899 H 0.29089 0.51717 0.97241 0.0
C900 C 0.42349 0.49416 0.92726 0.0
N901 N 0.42828 0.51607 0.93732 0.0
N902 N 0.39568 0.52851 0.94114 0.0
C903 C 0.36906 0.51522 0.93339 0.0
C904 C 0.38569 0.4926 0.92449 0.0
C905 C 0.45471 0.47504 0.92058 0.0
H906 H 0.47703 0.49552 0.91846 0.0
H907 H 0.46676 0.45339 0.92674 0.0
H908 H 0.44525 0.46142 0.91189 0.0
O909 O 0.47803 0.58819 0.94252 0.0
O910 O 0.42583 0.60651 0.95177 0.0
H911 H 0.32671 0.5568 0.9362 0.0
H912 H 0.31646 0.52393 0.92404 0.0
C913 C 0.32908 0.52722 0.9334 0.0
H914 H 0.31311 0.50956 0.93994 0.0
H915 H 0.35482 0.63371 0.95039 0.0
O916 O 0.51713 0.50805 0.94004 0.0
C917 C 0.45662 0.61391 0.94646 0.0
Co918 Co 0.21007 0.72004 0.69492 0.0
Co919 Co 0.17818 0.64484 0.70429 0.0
C920 C 0.21379 0.69728 0.722 0.0
O921 O 0.21849 0.7197 0.71301 0.0
O922 O 0.19911 0.66536 0.72021 0.0
C923 C 0.26897 0.77013 0.69443 0.0
O924 O 0.28435 0.74339 0.70102 0.0
C925 C 0.17691 0.5663 0.71153 0.0
C926 C 0.12102 0.54936 0.70496 0.0
C927 C 0.15388 0.53551 0.7099 0.0
N928 N 0.15885 0.59655 0.70735 0.0
N929 N 0.12509 0.58643 0.70375 0.0
C930 C 0.21516 0.56752 0.71712 0.0
H931 H 0.21667 0.59074 0.72391 0.0
H932 H 0.23612 0.57342 0.70981 0.0
H933 H 0.22212 0.54093 0.72186 0.0
C934 C 0.25 0.67062 0.67728 0.0
N935 N 0.22753 0.67595 0.68717 0.0
N936 N 0.21363 0.64372 0.69079 0.0
C937 C 0.22643 0.61685 0.68304 0.0
C938 C 0.25032 0.6329 0.67439 0.0
C939 C 0.27034 0.70136 0.67075 0.0
H940 H 0.25035 0.72364 0.66814 0.0
H941 H 0.29111 0.71364 0.67719 0.0
H942 H 0.28521 0.69135 0.66236 0.0
O943 O 0.15624 0.72782 0.69165 0.0
O944 O 0.13442 0.6746 0.69922 0.0
H945 H 0.18267 0.57643 0.68547 0.0
H946 H 0.2147 0.56588 0.67308 0.0
C947 C 0.21227 0.57759 0.6826 0.0
H948 H 0.22926 0.55999 0.68887 0.0
H949 H 0.10556 0.60448 0.69982 0.0
O950 O 0.23733 0.76445 0.68946 0.0
C951 C 0.12907 0.70629 0.69422 0.0
Co952 Co 0.02132 0.53273 0.08456 0.0
Co953 Co 0.09705 0.56339 0.07508 0.0
C954 C 0.04412 0.528 0.05749 0.0
O955 O 0.02174 0.52382 0.06651 0.0
O956 O 0.07622 0.54238 0.05919 0.0
C957 C 0.97028 0.47459 0.0851 0.0
O958 O -0.00309 0.45864 0.0786 0.0
C959 C 0.17573 0.56335 0.06789 0.0
C960 C 0.19354 0.61887 0.07456 0.0
C961 C 0.20692 0.58579 0.06963 0.0
N962 N 0.14572 0.58192 0.07203 0.0
N963 N 0.15637 0.61546 0.07568 0.0
C964 C 0.17392 0.52519 0.06226 0.0
H965 H 0.16838 0.50415 0.06957 0.0
H966 H 0.20019 0.51815 0.05733 0.0
H967 H 0.15028 0.52389 0.05562 0.0
C968 C 0.07027 0.49265 0.10231 0.0
N969 N 0.06518 0.51492 0.09236 0.0
N970 N 0.09759 0.52828 0.08868 0.0
C971 C 0.12432 0.51537 0.09646 0.0
C972 C 0.10801 0.49193 0.10519 0.0
C973 C 0.0393 0.47288 0.10892 0.0
H974 H 0.01737 0.49327 0.11152 0.0
H975 H 0.02659 0.45225 0.10252 0.0
H976 H 0.04919 0.45796 0.11731 0.0
O977 O 0.0143 0.58676 0.08763 0.0
O978 O 0.06786 0.60768 0.08003 0.0
H979 H 0.17564 0.52635 0.10633 0.0
H980 H 0.18106 0.51219 0.09048 0.0
C981 C 0.16374 0.52913 0.09685 0.0
H982 H 0.16509 0.55879 0.09407 0.0
H983 H 0.1386 0.63528 0.07959 0.0
O984 O 0.97638 0.50623 0.09002 0.0
C985 C 0.03621 0.61357 0.085 0.0
Co986 Co 0.21122 0.27208 0.83499 0.0
Co987 Co 0.17934 0.34726 0.82562 0.0
C988 C 0.21448 0.29454 0.80789 0.0
O989 O 0.21935 0.27217 0.81688 0.0
O990 O 0.19987 0.32648 0.80969 0.0
C991 C 0.2697 0.22146 0.83543 0.0
O992 O 0.28499 0.24775 0.82861 0.0
C993 C 0.17844 0.42561 0.8182 0.0
C994 C 0.12325 0.44331 0.82519 0.0
C995 C 0.15596 0.45672 0.81999 0.0
N996 N 0.16028 0.39564 0.82257 0.0
N997 N 0.12691 0.4062 0.8264 0.0
C998 C 0.21629 0.42383 0.81233 0.0
H999 H 0.23772 0.4183 0.81952 0.0
H1000 H 0.22305 0.45009 0.80736 0.0
H1001 H 0.21722 0.4002 0.80568 0.0
C1002 C 0.25205 0.3217 0.85239 0.0
N1003 N 0.22905 0.31621 0.84264 0.0
N1004 N 0.21513 0.34842 0.83901 0.0
C1005 C 0.22842 0.37542 0.84661 0.0
C1006 C 0.25268 0.3595 0.85518 0.0
C1007 C 0.27279 0.29108 0.85883 0.0
H1008 H 0.25293 0.26892 0.86167 0.0
H1009 H 0.29301 0.27857 0.85225 0.0
H1010 H 0.28833 0.30125 0.86706 0.0
O1011 O 0.15737 0.26452 0.83836 0.0
O1012 O 0.13552 0.31774 0.83082 0.0
H1013 H 0.18472 0.41595 0.84437 0.0
H1014 H 0.21776 0.42691 0.85641 0.0
C1015 C 0.21452 0.41478 0.84698 0.0
H1016 H 0.23107 0.432 0.84047 0.0
H1017 H 0.10744 0.38844 0.83052 0.0
O1018 O 0.2383 0.22762 0.84051 0.0
C1019 C 0.13019 0.28608 0.83584 0.0
Co1020 Co 0.47062 0.45948 0.58453 0.0
Co1021 Co 0.39501 0.42799 0.57524 0.0
C1022 C 0.44757 0.46314 0.55747 0.0
O1023 O 0.47003 0.46769 0.56645 0.0
O1024 O 0.41554 0.44871 0.55927 0.0
C1025 C 0.52108 0.51813 0.58478 0.0
O1026 O 0.49397 0.53379 0.57843 0.0
C1027 C 0.31619 0.42736 0.56818 0.0
C1028 C 0.29903 0.37151 0.57472 0.0
C1029 C 0.28527 0.40452 0.56987 0.0
N1030 N 0.34643 0.40906 0.57227 0.0
N1031 N 0.33616 0.37533 0.57585 0.0
C1032 C 0.31753 0.46565 0.56263 0.0
H1033 H 0.32344 0.48655 0.56995 0.0
H1034 H 0.29096 0.4727 0.55789 0.0
H1035 H 0.34079 0.46715 0.55584 0.0
C1036 C 0.42157 0.49976 0.60221 0.0
N1037 N 0.4267 0.47728 0.59231 0.0
N1038 N 0.39437 0.4635 0.58874 0.0
C1039 C 0.36765 0.47633 0.59654 0.0
C1040 C 0.38388 0.50018 0.60516 0.0
C1041 C 0.45247 0.51993 0.60871 0.0
H1042 H 0.47468 0.49982 0.61129 0.0
H1043 H 0.46481 0.54063 0.60226 0.0
H1044 H 0.4426 0.53484 0.61712 0.0
O1045 O 0.47794 0.40562 0.58784 0.0
O1046 O 0.42456 0.38402 0.58032 0.0
H1047 H 0.32726 0.43248 0.59424 0.0
H1048 H 0.31693 0.46454 0.60663 0.0
C1049 C 0.32842 0.4621 0.59709 0.0
H1050 H 0.31061 0.479 0.59086 0.0
H1051 H 0.35417 0.35563 0.5797 0.0
O1052 O 0.5155 0.48649 0.58977 0.0
C1053 C 0.45624 0.37855 0.58531 0.0
Co1054 Co 0.28389 0.72117 0.33497 0.0
Co1055 Co 0.31061 0.64534 0.32455 0.0
C1056 C 0.27485 0.69777 0.30766 0.0
O1057 O 0.27358 0.72035 0.31677 0.0
O1058 O 0.28727 0.66475 0.30908 0.0
C1059 C 0.22568 0.77206 0.33624 0.0
O1060 O 0.20868 0.74499 0.33026 0.0
C1061 C 0.31576 0.56708 0.3165 0.0
C1062 C 0.36685 0.54977 0.32643 0.0
C1063 C 0.33785 0.53629 0.31923 0.0
N1064 N 0.33057 0.59696 0.32216 0.0
N1065 N 0.36165 0.58663 0.32778 0.0
C1066 C 0.28183 0.5687 0.30839 0.0
H1067 H 0.25999 0.58627 0.31274 0.0
H1068 H 0.27081 0.54055 0.30621 0.0
H1069 H 0.28956 0.58246 0.29951 0.0
C1070 C 0.24505 0.67247 0.35315 0.0
N1071 N 0.26629 0.67774 0.34296 0.0
N1072 N 0.27696 0.64525 0.33854 0.0
C1073 C 0.2624 0.61807 0.34579 0.0
C1074 C 0.24169 0.63438 0.35532 0.0
C1075 C 0.23075 0.70353 0.36112 0.0
H1076 H 0.25063 0.72723 0.36101 0.0
H1077 H 0.20371 0.71338 0.35733 0.0
H1078 H 0.22643 0.69412 0.37084 0.0
O1079 O 0.33791 0.72765 0.33775 0.0
O1080 O 0.3554 0.67601 0.32803 0.0
H1081 H 0.29685 0.5695 0.34439 0.0
H1082 H 0.24973 0.55977 0.34953 0.0
C1083 C 0.26708 0.57726 0.34332 0.0
H1084 H 0.25851 0.57126 0.33367 0.0
H1085 H 0.37823 0.60436 0.33313 0.0
O1086 O 0.25816 0.76632 0.34055 0.0
C1087 C 0.36328 0.70643 0.3335 0.0
H1088 H 0.40993 0.0409 0.03482 0.0
H1089 H 0.58113 0.96124 0.99451 0.0
H1090 H 0.51154 -0.00326 0.05058 0.0
H1091 H 0.47795 -5e-05 0.97832 0.0
H1092 H 0.55651 0.97609 0.01514 0.0
H1093 H 0.43426 0.02703 1.01399 0.0
C1094 C 0.43719 0.02816 0.03393 0.0
C1095 C 0.45866 0.02011 0.04451 0.0
C1096 C 0.53927 0.98141 1.00706 0.0
C1097 C 0.48682 0.00442 0.02071 0.0
C1098 C 0.55343 0.97306 0.99527 0.0
C1099 C 0.53163 0.9792 0.98463 0.0
C1100 C 0.50304 0.9961 1.00827 0.0
C1101 C 0.4958 0.99456 0.98624 0.0
C1102 C 0.45114 0.02035 0.02204 0.0
C1103 C 0.4939 0.00363 0.04274 0.0
N1104 N 0.48265 0.00238 0.9978 0.0
N1105 N 0.50682 -0.00354 0.03112 0.0
H1106 H 0.20544 0.161 0.28491 0.0
H1107 H 0.28872 0.33061 0.2446 0.0
H1108 H 0.24863 0.26266 0.30093 0.0
H1109 H 0.24362 0.22968 0.22864 0.0
H1110 H 0.2742 0.30632 0.26536 0.0
H1111 H 0.2202 0.18532 0.26419 0.0
C1112 C 0.21818 0.18829 0.28409 0.0
C1113 C 0.22565 0.20977 0.29471 0.0
C1114 C 0.26744 0.28956 0.25729 0.0
C1115 C 0.24244 0.23796 0.271 0.0
C1116 C 0.27562 0.3035 0.24544 0.0
C1117 C 0.26752 0.28222 0.23482 0.0
C1118 C 0.25103 0.25407 0.25856 0.0
C1119 C 0.25056 0.24716 0.23652 0.0
C1120 C 0.2265 0.20226 0.27225 0.0
C1121 C 0.24217 0.24505 0.29304 0.0
N1122 N 0.243 0.23423 0.24812 0.0
N1123 N 0.2499 0.258 0.28145 0.0
H1124 H 0.9094 0.03126 0.49486 0.0
H1125 H 0.08047 0.95251 0.53539 0.0
H1126 H 0.01317 0.99333 0.47887 0.0
H1127 H 0.97846 0.99597 0.55108 0.0
H1128 H 0.05622 0.96616 0.51455 0.0
H1129 H 0.93366 0.01631 0.51553 0.0
C1130 C 0.93715 0.01958 0.49567 0.0
C1131 C 0.95924 0.01371 0.48508 0.0
C1132 C 0.03922 0.97274 0.52258 0.0
C1133 C 0.98739 -0.00328 0.50876 0.0
C1134 C 0.05312 0.96505 0.53448 0.0
C1135 C 0.03153 0.97299 0.54504 0.0
C1136 C 0.00346 0.98844 0.52122 0.0
C1137 C 0.99619 0.98921 0.54325 0.0
C1138 C 0.95109 0.01117 0.50749 0.0
C1139 C 0.9951 -0.00148 0.48675 0.0
N1140 N 0.98331 -0.00373 0.53162 0.0
N1141 N 0.00804 0.99066 0.49834 0.0
H1142 H 0.20287 0.66175 0.74448 0.0
H1143 H 0.28836 0.8304 0.78472 0.0
H1144 H 0.2486 0.76231 0.72847 0.0
H1145 H 0.24295 0.72975 0.80077 0.0
H1146 H 0.27346 0.80615 0.764 0.0
H1147 H 0.21777 0.68592 0.76522 0.0
C1148 C 0.21618 0.68876 0.7453 0.0
C1149 C 0.22435 0.70997 0.73468 0.0
C1150 C 0.26672 0.78943 0.77207 0.0
C1151 C 0.24129 0.73799 0.7584 0.0
C1152 C 0.27512 0.80335 0.78391 0.0
C1153 C 0.26704 0.78214 0.79454 0.0
C1154 C 0.25009 0.75404 0.77083 0.0
C1155 C 0.24988 0.74716 0.79288 0.0
C1156 C 0.22458 0.70263 0.75715 0.0
C1157 C 0.24159 0.7449 0.73636 0.0
N1158 N 0.24209 0.73424 0.78129 0.0
N1159 N 0.24938 0.75777 0.74795 0.0
H1160 H 0.47882 0.99193 0.55172 0.0
H1161 H 0.51323 0.00083 0.4783 0.0
H1162 H 0.57789 0.03915 0.53517 0.0
H1163 H 0.41352 0.95528 0.49494 0.0
H1164 H 0.53705 0.01528 0.49895 0.0
H1165 H 0.45504 0.97783 0.53107 0.0
C1166 C 0.49574 -0.00072 0.54375 0.0
C1167 C 0.53051 0.01694 0.54524 0.0
C1168 C 0.50993 0.0022 0.49811 0.0
C1169 C 0.50302 0.00081 0.5214 0.0
C1170 C 0.49618 0.99394 0.48629 0.0
C1171 C 0.46122 0.97662 0.48483 0.0
C1172 C 0.48874 0.9931 0.50864 0.0
C1173 C 0.44054 0.96861 0.49558 0.0
C1174 C 0.482 0.99121 0.53192 0.0
C1175 C 0.55102 0.02553 0.5345 0.0
N1176 N 0.45467 0.9768 0.50702 0.0
N1177 N 0.53691 0.01747 0.52304 0.0
H1178 H 0.28827 0.16175 0.74498 0.0
H1179 H 0.20374 0.33034 0.78544 0.0
H1180 H 0.2437 0.26295 0.72907 0.0
H1181 H 0.24865 0.22925 0.80132 0.0
H1182 H 0.21849 0.30632 0.76468 0.0
H1183 H 0.27335 0.18573 0.76573 0.0
C1184 C 0.27521 0.18887 0.74582 0.0
C1185 C 0.26738 0.21031 0.73523 0.0
C1186 C 0.22515 0.28945 0.77272 0.0
C1187 C 0.25039 0.2381 0.75897 0.0
C1188 C 0.21683 0.30323 0.78459 0.0
C1189 C 0.22483 0.28184 0.79518 0.0
C1190 C 0.24161 0.25401 0.77143 0.0
C1191 C 0.24179 0.2468 0.79346 0.0
C1192 C 0.26679 0.20263 0.75768 0.0
C1193 C 0.25044 0.24537 0.73694 0.0
N1194 N 0.24951 0.23403 0.78185 0.0
N1195 N 0.24263 0.25813 0.74854 0.0
H1196 H 0.0123 0.00022 0.05152 0.0
H1197 H 0.97891 0.99183 0.97804 0.0
H1198 H 0.91283 0.95486 0.03466 0.0
H1199 H 0.07773 0.03906 0.99476 0.0
H1200 H 0.95493 0.97752 0.99865 0.0
H1201 H 0.03649 0.01476 0.03092 0.0
C1202 C 0.99539 0.99338 0.04349 0.0
C1203 C 0.96039 0.9761 0.04488 0.0
C1204 C 0.98187 0.99095 0.99785 0.0
C1205 C 0.98832 0.99269 0.02113 0.0
C1206 C 0.99574 -0.00087 0.98605 0.0
C1207 C 0.03049 0.01687 0.98461 0.0
C1208 C 0.00276 0.0005 1.0084 0.0
C1209 C 0.05087 0.0254 0.99538 0.0
C1210 C 0.00936 0.0017 0.0317 0.0
C1211 C 0.93989 0.96816 0.03408 0.0
N1212 N 0.03665 0.01722 1.00682 0.0
N1213 N 0.95421 0.97641 0.02268 0.0
H1214 H 0.24252 0.76473 0.30178 0.0
H1215 H 0.24707 0.72872 0.2284 0.0
H1216 H 0.28142 0.66245 0.28501 0.0
H1217 H 0.20289 0.82935 0.24483 0.0
H1218 H 0.26064 0.70487 0.24906 0.0
H1219 H 0.22785 0.78891 0.28116 0.0
C1220 C 0.24785 0.7472 0.29377 0.0
C1221 C 0.2634 0.71142 0.29518 0.0
C1222 C 0.24801 0.73218 0.24819 0.0
C1223 C 0.24674 0.73929 0.27143 0.0
C1224 C 0.24027 0.74597 0.23635 0.0
C1225 C 0.22364 0.78121 0.23481 0.0
C1226 C 0.23917 0.75363 0.25868 0.0
C1227 C 0.21571 0.8021 0.24554 0.0
C1228 C 0.23948 0.76114 0.28198 0.0
C1229 C 0.26949 0.69012 0.28442 0.0
N1230 N 0.22348 0.78796 0.25701 0.0
N1231 N 0.26129 0.70444 0.27302 0.0
H1232 H 0.78899 0.83159 0.74509 0.0
H1233 H 0.70515 0.66185 0.7852 0.0
H1234 H 0.74447 0.73041 0.72912 0.0
H1235 H 0.74696 0.76386 0.80139 0.0
H1236 H 0.72044 0.68625 0.76455 0.0
H1237 H 0.77392 0.80747 0.76584 0.0
C1238 C 0.77592 0.80446 0.74592 0.0
C1239 C 0.76814 0.78305 0.73531 0.0
C1240 C 0.72631 0.70326 0.77263 0.0
C1241 C 0.75101 0.75513 0.75903 0.0
C1242 C 0.71769 0.68925 0.78444 0.0
C1243 C 0.72463 0.71078 0.79508 0.0
C1244 C 0.74206 0.73906 0.77144 0.0
C1245 C 0.74092 0.7462 0.79347 0.0
C1246 C 0.76741 0.79063 0.75777 0.0
C1247 C 0.75119 0.74798 0.73699 0.0
N1248 N 0.74898 0.7592 0.78191 0.0
N1249 N 0.74332 0.73517 0.74858 0.0
H1250 H 0.74867 0.2637 0.2282 0.0
H1251 H 0.74239 0.22867 0.30161 0.0
H1252 H 0.7037 0.16374 0.24485 0.0
H1253 H 0.7868 0.32882 0.28492 0.0
H1254 H 0.7277 0.20483 0.28099 0.0
H1255 H 0.76317 0.28753 0.24883 0.0
C1256 C 0.7419 0.2466 0.23619 0.0
C1257 C 0.72475 0.21156 0.23473 0.0
C1258 C 0.74058 0.23204 0.28181 0.0
C1259 C 0.74133 0.2391 0.25853 0.0
C1260 C 0.74899 0.24581 0.29361 0.0
C1261 C 0.76605 0.2809 0.29506 0.0
C1262 C 0.74926 0.25336 0.27127 0.0
C1263 C 0.77368 0.30169 0.28429 0.0
C1264 C 0.75019 0.26037 0.248 0.0
C1265 C 0.71689 0.19083 0.24549 0.0
N1266 N 0.76534 0.28756 0.27287 0.0
N1267 N 0.72515 0.20496 0.25693 0.0
H1268 H 0.746 0.76389 0.22859 0.0
H1269 H 0.74946 0.72719 0.30194 0.0
H1270 H 0.78851 0.66253 0.24501 0.0
H1271 H 0.71073 0.82966 0.28526 0.0
H1272 H 0.76401 0.7031 0.2813 0.0
H1273 H 0.73222 0.78768 0.24925 0.0
C1274 C 0.75239 0.74647 0.23654 0.0
C1275 C 0.76863 0.71105 0.235 0.0
C1276 C 0.75243 0.73088 0.28214 0.0
C1277 C 0.75285 0.73854 0.25886 0.0
C1278 C 0.74412 0.74477 0.29395 0.0
C1279 C 0.72868 0.78059 0.29538 0.0
C1280 C 0.74522 0.75282 0.27161 0.0
C1281 C 0.72258 0.80195 0.28464 0.0
C1282 C 0.74452 0.76022 0.24837 0.0
C1283 C 0.77602 0.68993 0.24571 0.0
N1284 N 0.73073 0.78769 0.27322 0.0
N1285 N 0.76815 0.70404 0.25719 0.0
H1286 H 0.74386 0.26285 0.80135 0.0
H1287 H 0.74999 0.22841 0.72791 0.0
H1288 H 0.79054 0.16369 0.78469 0.0
H1289 H 0.70585 0.32834 0.74481 0.0
H1290 H 0.76507 0.20437 0.74849 0.0
H1291 H 0.72915 0.28653 0.78075 0.0
C1292 C 0.75098 0.24588 0.79336 0.0
C1293 C 0.76866 0.21112 0.79481 0.0
C1294 C 0.75216 0.23158 0.74772 0.0
C1295 C 0.7518 0.23851 0.77102 0.0
C1296 C 0.74353 0.24545 0.73594 0.0
C1297 C 0.72644 0.28055 0.73457 0.0
C1298 C 0.74365 0.2528 0.7583 0.0
C1299 C 0.71898 0.30121 0.74538 0.0
C1300 C 0.74256 0.25958 0.78156 0.0
C1301 C 0.77693 0.19057 0.78405 0.0
N1302 N 0.72752 0.28698 0.75677 0.0
N1303 N 0.76851 0.20463 0.77261 0.0
H1304 H 0.91049 0.53954 0.53507 0.0
H1305 H 0.08288 0.46151 0.49499 0.0
H1306 H 0.01321 0.49872 0.55103 0.0
H1307 H 0.979 0.49818 0.47877 0.0
H1308 H 0.05822 0.47669 0.51559 0.0
H1309 H 0.93504 0.52528 0.51432 0.0
C1310 C 0.93807 0.52746 0.53424 0.0
C1311 C 0.95976 0.52045 0.54485 0.0
C1312 C 0.04085 0.48149 0.50752 0.0
C1313 C 0.98816 0.50427 0.52112 0.0
C1314 C 0.05501 0.47294 0.49574 0.0
C1315 C 0.03303 0.47842 0.4851 0.0
C1316 C 0.00443 0.4957 0.50871 0.0
C1317 C -0.003 0.4933 0.48669 0.0
C1318 C 0.95214 0.51941 0.52239 0.0
C1319 C 0.9954 0.50478 0.54316 0.0
N1320 N 0.98385 0.50132 0.49824 0.0
N1321 N 0.00843 0.49734 0.53156 0.0
H1322 H 0.41079 0.53213 0.99485 0.0
H1323 H 0.5822 0.45344 0.03524 0.0
H1324 H 0.51455 0.49418 0.97886 0.0
H1325 H 0.4797 0.49525 0.05107 0.0
H1326 H 0.55788 0.46754 1.01446 0.0
H1327 H 0.43506 0.5171 0.01552 0.0
C1328 C 0.43854 0.52044 0.99566 0.0
C1329 C 0.46063 0.51457 0.98506 0.0
C1330 C 0.54078 0.47366 0.0225 0.0
C1331 C 0.48876 0.49749 1.00874 0.0
C1332 C 0.55472 0.46571 0.03437 0.0
C1333 C 0.53302 0.47304 0.04496 0.0
C1334 C 0.50486 0.48903 0.02119 0.0
C1335 C 0.49751 0.48895 0.04322 0.0
C1336 C 0.45248 0.51198 1.00748 0.0
C1337 C 0.49648 0.49937 0.98673 0.0
N1338 N 0.48458 0.49629 0.03161 0.0
N1339 N 0.50941 0.49147 0.99832 0.0
H1340 H 0.97934 0.49227 0.05136 0.0
H1341 H 0.01387 0.50026 0.97794 0.0
H1342 H 0.07857 0.53913 0.03479 0.0
H1343 H 0.91439 0.45449 0.99467 0.0
H1344 H 0.03775 0.5149 0.99857 0.0
H1345 H 0.95573 0.47777 0.03072 0.0
C1346 C -0.00366 0.49945 0.04338 0.0
C1347 C 0.0311 0.51714 0.04487 0.0
C1348 C 0.01068 0.50173 0.99775 0.0
C1349 C 0.00379 0.50055 0.02104 0.0
C1350 C -0.00311 0.49335 0.98595 0.0
C1351 C 0.96197 0.47593 0.98451 0.0
C1352 C 0.98955 0.49264 1.0083 0.0
C1353 C 0.94138 0.46789 0.99529 0.0
C1354 C 0.98269 0.49116 0.03156 0.0
C1355 C 0.0517 0.5255 0.03413 0.0
N1356 N 0.95553 0.47621 1.00671 0.0
N1357 N 0.03768 0.51723 0.02267 0.0
H1358 H 0.58192 0.53681 0.49495 0.0
H1359 H 0.41202 0.45271 0.53495 0.0
H1360 H 0.48044 0.49376 0.47875 0.0
H1361 H 0.51293 0.49736 0.55106 0.0
H1362 H 0.43646 0.46762 0.51424 0.0
H1363 H 0.55746 0.52164 0.51561 0.0
C1364 C 0.55465 0.52402 0.49571 0.0
C1365 C 0.53326 0.51671 0.48506 0.0
C1366 C 0.45319 0.47419 0.52232 0.0
C1367 C 0.50491 0.49944 0.50871 0.0
C1368 C 0.43916 0.46578 0.53416 0.0
C1369 C 0.46039 0.47365 0.5448 0.0
C1370 C 0.4887 0.49058 0.52111 0.0
C1371 C 0.4955 0.49058 0.54316 0.0
C1372 C 0.5406 0.51546 0.50752 0.0
C1373 C 0.49798 0.50011 0.48667 0.0
N1374 N 0.5085 0.49837 0.53159 0.0
N1375 N 0.48495 0.49214 0.49823 0.0
H1376 H 0.58413 0.0071 0.09312 0.0
H1377 H 0.72485 0.85936 0.06395 0.0
H1378 H 0.54551 0.91125 0.07247 0.0
H1379 H 0.7554 0.97158 0.07419 0.0
H1380 H 0.65924 0.87476 0.06802 0.0
H1381 H 0.64817 0.98997 0.08821 0.0
C1382 C 0.58911 0.98214 0.0877 0.0
C1383 C 0.5594 0.96071 0.08312 0.0
C1384 C 0.6803 0.89616 0.06912 0.0
C1385 C 0.63268 0.94127 0.07732 0.0
C1386 C 0.71756 0.8875 0.06671 0.0
C1387 C 0.74536 0.9145 0.06845 0.0
C1388 C 0.67115 0.93178 0.0736 0.0
C1389 C 0.73479 0.95027 0.07235 0.0
C1390 C 0.62569 0.97261 0.08479 0.0
C1391 C 0.5676 0.92864 0.07614 0.0
N1392 N 0.69854 0.95776 0.0749 0.0
N1393 N 0.60355 0.91992 0.07341 0.0
H1394 H 0.38199 0.47642 0.31413 0.0
H1395 H 0.23636 0.33529 0.34444 0.0
H1396 H 0.27069 0.50658 0.32553 0.0
H1397 H 0.33153 0.2969 0.32339 0.0
H1398 H 0.25339 0.39935 0.33958 0.0
H1399 H 0.36735 0.4108 0.31853 0.0
C1400 C 0.35419 0.46903 0.31722 0.0
C1401 C 0.32718 0.4967 0.31914 0.0
C1402 C 0.27065 0.37692 0.33606 0.0
C1403 C 0.31082 0.42251 0.32467 0.0
C1404 C 0.26116 0.34032 0.33893 0.0
C1405 C 0.28236 0.31067 0.33421 0.0
C1406 C 0.3017 0.38401 0.32847 0.0
C1407 C 0.3143 0.31895 0.32717 0.0
C1408 C 0.34597 0.43178 0.31982 0.0
C1409 C 0.29191 0.48603 0.32349 0.0
N1410 N 0.32293 0.35494 0.32444 0.0
N1411 N 0.28486 0.44981 0.3262 0.0
H1412 H 0.76593 0.13058 0.56374 0.0
H1413 H 0.90863 0.98958 0.59579 0.0
H1414 H 0.73604 0.02192 0.5778 0.0
H1415 H 0.94542 0.08136 0.57284 0.0
H1416 H 0.84418 0.00661 0.59148 0.0
H1417 H 0.83157 0.11692 0.56836 0.0
C1418 C 0.7733 0.10358 0.56754 0.0
C1419 C 0.74564 0.07703 0.57014 0.0
C1420 C 0.86636 0.02315 0.58744 0.0
C1421 C 0.81998 0.06182 0.57583 0.0
C1422 C 0.90318 0.01366 0.58999 0.0
C1423 C 0.93245 0.03384 0.58455 0.0
C1424 C 0.85872 0.05314 0.57945 0.0
C1425 C 0.92368 0.06489 0.57715 0.0
C1426 C 0.8106 0.09593 0.57024 0.0
C1427 C 0.75642 0.04278 0.57529 0.0
N1428 N 0.8875 0.07349 0.57474 0.0
N1429 N 0.79271 0.03628 0.57804 0.0
H1430 H 0.22316 0.48582 0.82709 0.0
H1431 H 0.15895 0.698 0.82352 0.0
H1432 H 0.11285 0.51746 0.815 0.0
H1433 H 0.25418 0.65911 0.84442 0.0
H1434 H 0.14217 0.63317 0.81913 0.0
H1435 H 0.23722 0.55078 0.83127 0.0
C1436 C 0.20221 0.5065 0.82494 0.0
C1437 C 0.167 0.49627 0.82042 0.0
C1438 C 0.1665 0.63893 0.82478 0.0
C1439 C 0.18245 0.5708 0.82572 0.0
C1440 C 0.17599 0.67586 0.82735 0.0
C1441 C 0.20821 0.68396 0.83426 0.0
C1442 C 0.18962 0.61008 0.82905 0.0
C1443 C 0.22923 0.65421 0.839 0.0
C1444 C 0.21004 0.54363 0.82758 0.0
C1445 C 0.14048 0.52435 0.81835 0.0
N1446 N 0.21979 0.6186 0.83618 0.0
N1447 N 0.14872 0.56047 0.82103 0.0
H1448 H 0.72608 0.13415 0.46428 0.0
H1449 H 0.58567 0.98563 0.43526 0.0
H1450 H 0.75623 0.02133 0.45468 0.0
H1451 H 0.54666 0.08256 0.45526 0.0
H1452 H 0.64959 0.00313 0.44015 0.0
H1453 H 0.66057 0.11915 0.45982 0.0
C1454 C 0.7187 0.10599 0.46157 0.0
C1455 C 0.74634 0.07866 0.46015 0.0
C1456 C 0.62705 0.02067 0.44343 0.0
C1457 C 0.6723 0.06184 0.45456 0.0
C1458 C 0.59053 0.01091 0.44054 0.0
C1459 C 0.56074 0.03249 0.44496 0.0
C1460 C 0.63392 0.05237 0.45073 0.0
C1461 C 0.56881 0.06503 0.45172 0.0
C1462 C 0.68151 0.09756 0.45893 0.0
C1463 C 0.7357 0.04288 0.45629 0.0
N1464 N 0.60473 0.07392 0.45446 0.0
N1465 N 0.69955 0.0356 0.45353 0.0
H1466 H 0.25404 0.33328 0.68423 0.0
H1467 H 0.11072 0.4753 0.71551 0.0
H1468 H 0.1611 0.29611 0.7066 0.0
H1469 H 0.21974 0.50574 0.70188 0.0
H1470 H 0.12484 0.40975 0.71092 0.0
H1471 H 0.23637 0.39765 0.68838 0.0
C1472 C 0.22958 0.33863 0.68987 0.0
C1473 C 0.20925 0.30929 0.6952 0.0
C1474 C 0.1458 0.43082 0.70912 0.0
C1475 C 0.18922 0.38293 0.70012 0.0
C1476 C 0.13788 0.46807 0.71182 0.0
C1477 C 0.1644 0.49585 0.70934 0.0
C1478 C 0.18017 0.42162 0.70368 0.0
C1479 C 0.19887 0.48526 0.70431 0.0
C1480 C 0.21971 0.37541 0.69233 0.0
C1481 C 0.1777 0.31792 0.70238 0.0
N1482 N 0.20565 0.44901 0.70157 0.0
N1483 N 0.16876 0.35406 0.70471 0.0
H1484 H 0.76685 0.8638 0.96673 0.0
H1485 H 0.90882 0.00376 0.93372 0.0
H1486 H 0.73671 0.97195 0.95231 0.0
H1487 H 0.94602 0.91158 0.95641 0.0
H1488 H 0.84446 0.98704 0.93832 0.0
H1489 H 0.83233 0.87708 0.96175 0.0
C1490 C 0.77416 0.89063 0.96278 0.0
C1491 C 0.74648 0.91714 0.96019 0.0
C1492 C 0.8667 0.97033 0.94224 0.0
C1493 C 0.82061 0.93192 0.95408 0.0
C1494 C 0.90347 0.97965 0.93952 0.0
C1495 C 0.93284 0.95928 0.94481 0.0
C1496 C 0.85922 0.94035 0.95025 0.0
C1497 C 0.92419 0.92819 0.95221 0.0
C1498 C 0.81135 0.89806 0.95986 0.0
C1499 C 0.75714 0.95115 0.95483 0.0
N1500 N 0.88808 0.9198 0.95479 0.0
N1501 N 0.79333 0.95744 0.95188 0.0
H1502 H 0.23767 0.6591 0.18406 0.0
H1503 H 0.38062 0.51715 0.21556 0.0
H1504 H 0.33056 0.69629 0.20644 0.0
H1505 H 0.27171 0.48664 0.20186 0.0
H1506 H 0.36652 0.58268 0.21093 0.0
H1507 H 0.25512 0.59473 0.18831 0.0
C1508 C 0.26208 0.65376 0.18972 0.0
C1509 C 0.28246 0.68312 0.19502 0.0
C1510 C 0.34558 0.56159 0.20912 0.0
C1511 C 0.30225 0.60947 0.20005 0.0
C1512 C 0.35348 0.52436 0.21184 0.0
C1513 C 0.32699 0.49656 0.20935 0.0
C1514 C 0.31125 0.57078 0.20365 0.0
C1515 C 0.29255 0.50713 0.20429 0.0
C1516 C 0.27181 0.61698 0.19224 0.0
C1517 C 0.31392 0.67448 0.20224 0.0
N1518 N 0.28579 0.54337 0.20154 0.0
N1519 N 0.32275 0.63834 0.20463 0.0
H1520 H 0.44764 0.08293 0.95501 0.0
H1521 H 0.23523 0.01815 0.95295 0.0
H1522 H 0.40805 0.98588 0.9352 0.0
H1523 H 0.26791 0.12827 0.96496 0.0
H1524 H 0.29991 0.00383 0.94847 0.0
H1525 H 0.38303 0.09954 0.95977 0.0
C1526 C 0.42538 0.06544 0.95149 0.0
C1527 C 0.43326 0.0328 0.94478 0.0
C1528 C 0.29306 0.03102 0.95221 0.0
C1529 C 0.35958 0.05122 0.95041 0.0
C1530 C 0.25607 0.03901 0.95502 0.0
C1531 C 0.24618 0.07426 0.9596 0.0
C1532 C 0.32044 0.05849 0.95394 0.0
C1533 C 0.2745 0.10063 0.96155 0.0
C1534 C 0.38856 0.07483 0.95428 0.0
C1535 C 0.40333 0.01119 0.94045 0.0
N1536 N 0.31045 0.09224 0.9587 0.0
N1537 N 0.36784 0.02059 0.94346 0.0
H1538 H 0.6586 0.69764 0.70633 0.0
H1539 H 0.72427 0.48531 0.70744 0.0
H1540 H 0.75859 0.65677 0.68855 0.0
H1541 H 0.61012 0.51721 0.71438 0.0
H1542 H 0.74 0.55044 0.70388 0.0
H1543 H 0.64175 0.63335 0.7116 0.0
C1544 C 0.67673 0.67515 0.70338 0.0
C1545 C 0.7101 0.68258 0.69701 0.0
C1546 C 0.71161 0.5433 0.70637 0.0
C1547 C 0.69148 0.6094 0.70328 0.0
C1548 C 0.70276 0.50616 0.70866 0.0
C1549 C 0.66596 0.49599 0.71146 0.0
C1550 C 0.68345 0.57044 0.70683 0.0
C1551 C 0.63891 0.52411 0.71237 0.0
C1552 C 0.66721 0.63856 0.70646 0.0
C1553 C 0.7326 0.6524 0.69346 0.0
N1554 N 0.64815 0.56018 0.71002 0.0
N1555 N 0.72304 0.61717 0.69675 0.0
H1556 H 0.04502 0.9086 0.45433 0.0
H1557 H 0.25725 0.97448 0.45706 0.0
H1558 H 0.08647 0.01051 0.43796 0.0
H1559 H 0.22526 0.85975 0.46279 0.0
H1560 H 0.19226 0.99039 0.45335 0.0
H1561 H 0.10915 0.89124 0.45965 0.0
C1562 C 0.06759 0.92706 0.4517 0.0
C1563 C 0.06036 0.96113 0.44573 0.0
C1564 C 0.19933 0.96181 0.4556 0.0
C1565 C 0.13336 0.94188 0.45205 0.0
C1566 C 0.2364 0.95284 0.45798 0.0
C1567 C 0.24651 0.91584 0.46049 0.0
C1568 C 0.17221 0.93358 0.45567 0.0
C1569 C 0.21839 0.88867 0.46101 0.0
C1570 C 0.1041 0.91723 0.45481 0.0
C1571 C 0.09067 0.98401 0.44257 0.0
N1572 N 0.1824 0.89804 0.45857 0.0
N1573 N 0.12578 0.97412 0.44588 0.0
H1574 H 0.88366 0.4761 0.21437 0.0
H1575 H 0.73568 0.3356 0.18513 0.0
H1576 H 0.77155 0.50664 0.20404 0.0
H1577 H 0.83155 0.29669 0.2057 0.0
H1578 H 0.75317 0.39957 0.18995 0.0
H1579 H 0.86839 0.4105 0.21016 0.0
C1580 C 0.85557 0.4688 0.21156 0.0
C1581 C 0.82853 0.49657 0.20987 0.0
C1582 C 0.77047 0.37704 0.19338 0.0
C1583 C 0.81141 0.42242 0.20455 0.0
C1584 C 0.76072 0.3405 0.19052 0.0
C1585 C 0.78201 0.31072 0.19511 0.0
C1586 C 0.80188 0.38396 0.20081 0.0
C1587 C 0.81425 0.31883 0.20202 0.0
C1588 C 0.84699 0.43156 0.20907 0.0
C1589 C 0.79285 0.48601 0.20588 0.0
N1590 N 0.82316 0.35478 0.20472 0.0
N1591 N 0.78543 0.4498 0.20326 0.0
H1592 H 0.23527 0.97246 0.57722 0.0
H1593 H 0.4476 0.90868 0.57413 0.0
H1594 H 0.26723 0.86197 0.56539 0.0
H1595 H 0.40806 0.00378 0.59497 0.0
H1596 H 0.38289 0.89171 0.56962 0.0
H1597 H 0.30011 0.98665 0.5815 0.0
C1598 C 0.25599 0.95148 0.57515 0.0
C1599 C 0.24587 0.91619 0.57068 0.0
C1600 C 0.38848 0.91604 0.57528 0.0
C1601 C 0.32029 0.9318 0.5761 0.0
C1602 C 0.42535 0.92564 0.57793 0.0
C1603 C 0.43323 0.95789 0.58485 0.0
C1604 C 0.3595 0.93908 0.5795 0.0
C1605 C 0.40333 0.97882 0.58954 0.0
C1606 C 0.29306 0.95939 0.57785 0.0
C1607 C 0.27403 0.88966 0.56871 0.0
N1608 N 0.3678 0.96927 0.58665 0.0
N1609 N 0.31009 0.89799 0.57144 0.0
H1610 H 0.76801 0.48484 0.32289 0.0
H1611 H 0.83404 0.69697 0.32606 0.0
H1612 H 0.8827 0.51694 0.31712 0.0
H1613 H 0.73225 0.65522 0.34244 0.0
H1614 H 0.85127 0.63296 0.32053 0.0
H1615 H 0.75213 0.54978 0.32673 0.0
C1616 C 0.78965 0.50572 0.32198 0.0
C1617 C 0.82663 0.49564 0.31943 0.0
C1618 C 0.82533 0.63792 0.32542 0.0
C1619 C 0.80893 0.56986 0.32439 0.0
C1620 C 0.81558 0.67435 0.32865 0.0
C1621 C 0.78159 0.68147 0.33468 0.0
C1622 C 0.80068 0.60862 0.32813 0.0
C1623 C 0.7587 0.65111 0.33778 0.0
C1624 C 0.78069 0.54274 0.32444 0.0
C1625 C 0.85379 0.52377 0.31893 0.0
N1626 N 0.76851 0.61608 0.33436 0.0
N1627 N 0.84444 0.55972 0.32144 0.0
H1628 H 0.04266 0.0834 0.07488 0.0
H1629 H 0.25532 0.02016 0.07762 0.0
H1630 H 0.08264 0.98753 0.09522 0.0
H1631 H 0.2228 0.13048 0.06579 0.0
H1632 H 0.19058 0.00578 0.08203 0.0
H1633 H 0.10732 0.10079 0.07041 0.0
C1634 C 0.06499 0.06635 0.07858 0.0
C1635 C 0.05725 0.03376 0.08534 0.0
C1636 C 0.19748 0.03305 0.07835 0.0
C1637 C 0.13092 0.05306 0.08004 0.0
C1638 C 0.23449 0.04106 0.07558 0.0
C1639 C 0.24442 0.07635 0.07106 0.0
C1640 C 0.17011 0.06052 0.07663 0.0
C1641 C 0.21615 0.10279 0.06915 0.0
C1642 C 0.10183 0.07619 0.07596 0.0
C1643 C 0.08725 0.01274 0.0899 0.0
N1644 N 0.18015 0.09436 0.07194 0.0
N1645 N 0.12274 0.02253 0.08705 0.0
H1646 H 0.72393 0.507 0.82303 0.0
H1647 H 0.65911 0.29441 0.82428 0.0
H1648 H 0.60973 0.47464 0.81643 0.0
H1649 H 0.75931 0.33563 0.84185 0.0
H1650 H 0.64185 0.35865 0.81912 0.0
H1651 H 0.73995 0.44193 0.8266 0.0
C1652 C 0.70246 0.48605 0.82189 0.0
C1653 C 0.66557 0.49606 0.81917 0.0
C1654 C 0.66744 0.35353 0.82419 0.0
C1655 C 0.68339 0.42171 0.82382 0.0
C1656 C 0.67721 0.31696 0.8272 0.0
C1657 C 0.71076 0.30965 0.83348 0.0
C1658 C 0.69165 0.38279 0.82734 0.0
C1659 C 0.73319 0.33991 0.83701 0.0
C1660 C 0.71148 0.44896 0.82419 0.0
C1661 C 0.63857 0.46785 0.81837 0.0
N1662 N 0.72339 0.37512 0.83378 0.0
N1663 N 0.64798 0.43183 0.82072 0.0
H1664 H 0.08344 0.50526 0.59569 0.0
H1665 H 0.22484 0.36159 0.56428 0.0
H1666 H 0.04573 0.41239 0.57341 0.0
H1667 H 0.25572 0.47048 0.5779 0.0
H1668 H 0.15934 0.37597 0.56887 0.0
H1669 H 0.14771 0.48757 0.5914 0.0
C1670 C 0.08865 0.48082 0.59003 0.0
C1671 C 0.05916 0.46051 0.58479 0.0
C1672 C 0.1805 0.39685 0.57067 0.0
C1673 C 0.13274 0.44042 0.5797 0.0
C1674 C 0.21772 0.38878 0.56798 0.0
C1675 C 0.24563 0.41519 0.57045 0.0
C1676 C 0.17141 0.43125 0.57611 0.0
C1677 C 0.23515 0.4497 0.57548 0.0
C1678 C 0.12538 0.47094 0.5875 0.0
C1679 C 0.06764 0.42897 0.57758 0.0
N1680 N 0.19892 0.45662 0.57821 0.0
N1681 N 0.10375 0.41999 0.57517 0.0
H1682 H 0.88104 0.97488 0.81436 0.0
H1683 H 0.73594 0.83471 0.84571 0.0
H1684 H 0.77166 0.00628 0.8274 0.0
H1685 H 0.83026 0.79621 0.82427 0.0
H1686 H 0.75371 0.89881 0.84117 0.0
H1687 H 0.86644 0.90957 0.81916 0.0
C1688 C 0.8537 0.96791 0.81797 0.0
C1689 C 0.82725 0.99593 0.82023 0.0
C1690 C 0.77064 0.87635 0.83751 0.0
C1691 C 0.8109 0.92193 0.82612 0.0
C1692 C 0.76071 0.83972 0.84019 0.0
C1693 C 0.78142 0.81004 0.83524 0.0
C1694 C 0.8016 0.88341 0.82987 0.0
C1695 C 0.81337 0.81827 0.8282 0.0
C1696 C 0.8455 0.93079 0.82078 0.0
C1697 C 0.79252 0.98564 0.82514 0.0
N1698 N 0.82238 0.85427 0.82565 0.0
N1699 N 0.78547 0.94951 0.828 0.0
H1700 H 0.23571 0.51889 0.07717 0.0
H1701 H 0.44828 0.58249 0.0737 0.0
H1702 H 0.26792 0.62847 0.06451 0.0
H1703 H 0.40868 0.48799 0.09483 0.0
H1704 H 0.38354 0.59923 0.06909 0.0
H1705 H 0.30058 0.50483 0.08151 0.0
C1706 C 0.2565 0.53966 0.07494 0.0
C1707 C 0.24645 0.57466 0.0702 0.0
C1708 C 0.38913 0.57507 0.07483 0.0
C1709 C 0.32089 0.55926 0.07569 0.0
C1710 C 0.42601 0.56562 0.07754 0.0
C1711 C 0.4339 0.5336 0.08457 0.0
C1712 C 0.36013 0.55213 0.07912 0.0
C1713 C 0.40397 0.51277 0.0893 0.0
C1714 C 0.29359 0.53185 0.07766 0.0
C1715 C 0.27466 0.601 0.06803 0.0
N1716 N 0.36844 0.52218 0.08637 0.0
N1717 N 0.31073 0.59278 0.0708 0.0
H1718 H 0.65815 0.19682 0.32551 0.0
H1719 H 0.72492 0.98499 0.32289 0.0
H1720 H 0.75937 0.15558 0.3424 0.0
H1721 H 0.61003 0.01618 0.31706 0.0
H1722 H 0.74033 0.05006 0.32669 0.0
H1723 H 0.64107 0.13262 0.32015 0.0
C1724 C 0.6765 0.17428 0.32825 0.0
C1725 C 0.71032 0.18158 0.33436 0.0
C1726 C 0.71182 0.0428 0.32439 0.0
C1727 C 0.69141 0.10855 0.328 0.0
C1728 C 0.70315 0.0057 0.32196 0.0
C1729 C 0.66625 0.99534 0.31939 0.0
C1730 C 0.6834 0.0697 0.32432 0.0
C1731 C 0.63888 0.02325 0.31887 0.0
C1732 C 0.66684 0.13774 0.32511 0.0
C1733 C 0.73307 0.15133 0.33766 0.0
N1734 N 0.64797 0.05929 0.32136 0.0
N1735 N 0.72337 0.1162 0.33432 0.0
H1736 H 0.25704 0.5186 0.95245 0.0
H1737 H 0.04464 0.58291 0.95507 0.0
H1738 H 0.2247 0.62808 0.96515 0.0
H1739 H 0.08454 0.48798 0.93422 0.0
H1740 H 0.10927 0.59963 0.95982 0.0
H1741 H 0.19232 0.50487 0.94773 0.0
C1742 C 0.23621 0.5394 0.95461 0.0
C1743 C 0.24617 0.57426 0.95948 0.0
C1744 C 0.10379 0.57539 0.9541 0.0
C1745 C 0.17196 0.55927 0.95355 0.0
C1746 C 0.06696 0.56595 0.95131 0.0
C1747 C 0.05918 0.53379 0.94433 0.0
C1748 C 0.13283 0.55229 0.94996 0.0
C1749 C 0.08918 0.51285 0.93971 0.0
C1750 C 0.19924 0.53179 0.95167 0.0
C1751 C 0.21799 0.60069 0.96154 0.0
N1752 N 0.12465 0.52225 0.94273 0.0
N1753 N 0.18204 0.59267 0.95856 0.0
H1754 H 0.72303 0.00771 0.20705 0.0
H1755 H 0.6582 0.79517 0.20493 0.0
H1756 H 0.60831 0.97559 0.21275 0.0
H1757 H 0.75921 0.83695 0.18803 0.0
H1758 H 0.64056 0.85932 0.21014 0.0
H1759 H 0.7391 0.94268 0.20349 0.0
C1760 C 0.70142 0.98683 0.208 0.0
C1761 C 0.66438 -0.00309 0.21046 0.0
C1762 C 0.66642 0.85432 0.20521 0.0
C1763 C 0.68232 0.92256 0.20581 0.0
C1764 C 0.67641 0.81781 0.20216 0.0
C1765 C 0.7103 0.81068 0.19607 0.0
C1766 C 0.69075 0.88369 0.20227 0.0
C1767 C 0.73285 0.84106 0.19274 0.0
C1768 C 0.71049 0.94974 0.2057 0.0
C1769 C 0.63726 0.96875 0.21101 0.0
N1770 N 0.72283 0.87618 0.19599 0.0
N1771 N 0.64673 0.93273 0.20866 0.0
H1772 H 0.44861 0.40816 0.45503 0.0
H1773 H 0.23659 0.47414 0.45754 0.0
H1774 H 0.40681 0.5087 0.43784 0.0
H1775 H 0.26808 0.35943 0.4636 0.0
H1776 H 0.30158 0.48964 0.4537 0.0
H1777 H 0.3845 0.39088 0.46045 0.0
C1778 C 0.42597 0.42632 0.45224 0.0
C1779 C 0.43308 0.46002 0.44603 0.0
C1780 C 0.2944 0.46116 0.45605 0.0
C1781 C 0.36017 0.44089 0.45246 0.0
C1782 C 0.25734 0.45242 0.45851 0.0
C1783 C 0.24709 0.41555 0.46116 0.0
C1784 C 0.32138 0.43281 0.45617 0.0
C1785 C 0.27507 0.38826 0.46172 0.0
C1786 C 0.38949 0.41654 0.45541 0.0
C1787 C 0.40271 0.48251 0.44266 0.0
N1788 N 0.31108 0.3974 0.4592 0.0
N1789 N 0.36764 0.47271 0.44604 0.0
H1790 H 0.73706 0.15874 0.68333 0.0
H1791 H 0.88101 0.01797 0.71495 0.0
H1792 H 0.83112 0.19679 0.70499 0.0
H1793 H 0.77179 0.98698 0.70165 0.0
H1794 H 0.86689 0.0833 0.71003 0.0
H1795 H 0.75466 0.09455 0.68778 0.0
C1796 C 0.76175 0.15361 0.68888 0.0
C1797 C 0.78241 0.18319 0.69392 0.0
C1798 C 0.84589 0.06217 0.70838 0.0
C1799 C 0.80239 0.10972 0.69919 0.0
C1800 C 0.85381 0.02504 0.71125 0.0
C1801 C 0.82724 -0.00285 0.70896 0.0
C1802 C 0.81145 0.07116 0.70294 0.0
C1803 C 0.79271 0.00755 0.70393 0.0
C1804 C 0.77158 0.11693 0.69151 0.0
C1805 C 0.81427 0.17482 0.70098 0.0
N1806 N 0.78592 0.04368 0.70102 0.0
N1807 N 0.82317 0.13876 0.70349 0.0
H1808 H 0.94879 0.58419 0.45392 0.0
H1809 H 0.7366 0.51831 0.45684 0.0
H1810 H 0.90739 0.48193 0.43778 0.0
H1811 H 0.76849 0.63325 0.46215 0.0
H1812 H 0.80161 0.50235 0.45316 0.0
H1813 H 0.88464 0.60168 0.45917 0.0
C1814 C 0.92623 0.56567 0.45133 0.0
C1815 C 0.93347 0.53148 0.44544 0.0
C1816 C 0.79451 0.53099 0.45531 0.0
C1817 C 0.86045 0.55088 0.45168 0.0
C1818 C 0.75744 0.54 0.45767 0.0
C1819 C 0.7473 0.57706 0.46006 0.0
C1820 C 0.8216 0.55925 0.45528 0.0
C1821 C 0.77539 0.60428 0.46047 0.0
C1822 C 0.88971 0.57558 0.45439 0.0
C1823 C 0.90318 0.50853 0.44232 0.0
N1824 N 0.81138 0.59487 0.45805 0.0
N1825 N 0.86805 0.5185 0.44559 0.0
H1826 H 0.253 0.15923 0.18406 0.0
H1827 H 0.11184 0.01712 0.21635 0.0
H1828 H 0.16098 0.19638 0.20684 0.0
H1829 H 0.22033 0.9869 0.20223 0.0
H1830 H 0.1256 0.08268 0.21165 0.0
H1831 H 0.23596 0.09486 0.18849 0.0
C1832 C 0.22887 0.15387 0.18985 0.0
C1833 C 0.20862 0.18322 0.1952 0.0
C1834 C 0.14654 0.06166 0.20977 0.0
C1835 C 0.18932 0.10958 0.20045 0.0
C1836 C 0.13883 0.02441 0.21253 0.0
C1837 C 0.16529 -0.00331 0.20992 0.0
C1838 C 0.18063 0.07092 0.20415 0.0
C1839 C 0.19954 0.00735 0.20474 0.0
C1840 C 0.21937 0.1171 0.19247 0.0
C1841 C 0.17749 0.17457 0.20258 0.0
N1842 N 0.2061 0.0436 0.20194 0.0
N1843 N 0.16891 0.13843 0.20507 0.0
H1844 H 0.54577 0.40952 0.95464 0.0
H1845 H 0.75843 0.47404 0.9571 0.0
H1846 H 0.58745 0.51142 0.93832 0.0
H1847 H 0.72546 0.35971 0.96313 0.0
H1848 H 0.69358 0.49045 0.9534 0.0
H1849 H 0.60984 0.39187 0.95989 0.0
C1850 C 0.5684 0.42793 0.95201 0.0
C1851 C 0.56125 0.46205 0.94607 0.0
C1852 C 0.70041 0.46185 0.95571 0.0
C1853 C 0.63421 0.44244 0.95229 0.0
C1854 C 0.7374 0.45259 0.95809 0.0
C1855 C 0.74721 0.41556 0.96068 0.0
C1856 C 0.67304 0.43388 0.95587 0.0
C1857 C 0.71885 0.38866 0.96128 0.0
C1858 C 0.60487 0.41792 0.95507 0.0
C1859 C 0.5916 0.48485 0.9429 0.0
N1860 N 0.68294 0.39831 0.95885 0.0
N1861 N 0.62671 0.47479 0.94616 0.0
H1862 H 0.33254 0.79403 0.7061 0.0
H1863 H 0.26879 0.00648 0.70316 0.0
H1864 H 0.2376 0.83376 0.68523 0.0
H1865 H 0.37867 0.97412 0.71547 0.0
H1866 H 0.2546 0.94169 0.69875 0.0
H1867 H 0.34929 0.85868 0.71079 0.0
C1868 C 0.31556 0.81632 0.70233 0.0
C1869 C 0.28344 0.8085 0.69534 0.0
C1870 C 0.28171 0.94864 0.70255 0.0
C1871 C 0.30198 0.88217 0.7009 0.0
C1872 C 0.28961 0.98567 0.70531 0.0
C1873 C 0.32474 0.99566 0.70995 0.0
C1874 C 0.30917 0.92133 0.70439 0.0
C1875 C 0.35111 0.96742 0.71202 0.0
C1876 C 0.32503 0.85315 0.70508 0.0
C1877 C 0.26248 0.83844 0.69071 0.0
N1878 N 0.34281 0.93141 0.70921 0.0
N1879 N 0.2719 0.87394 0.69369 0.0
H1880 H 0.76681 0.35612 0.06634 0.0
H1881 H 0.90668 0.50795 0.09354 0.0
H1882 H 0.73606 0.46979 0.07453 0.0
H1883 H 0.94601 0.40991 0.07422 0.0
H1884 H 0.84278 0.4899 0.08878 0.0
H1885 H 0.83233 0.37215 0.07035 0.0
C1886 C 0.77404 0.38464 0.06864 0.0
C1887 C 0.74622 0.41188 0.06983 0.0
C1888 C 0.8654 0.47226 0.08561 0.0
C1889 C 0.82028 0.42995 0.0749 0.0
C1890 C 0.90189 0.48232 0.08845 0.0
C1891 C 0.93175 0.46054 0.08419 0.0
C1892 C 0.85865 0.44003 0.07856 0.0
C1893 C 0.92379 0.42761 0.07763 0.0
C1894 C 0.81124 0.39368 0.07102 0.0
C1895 C 0.75671 0.44821 0.07313 0.0
N1896 N 0.88791 0.41838 0.07497 0.0
N1897 N 0.79288 0.45609 0.07567 0.0
H1898 H 0.2394 0.15882 0.84575 0.0
H1899 H 0.38084 0.01713 0.81342 0.0
H1900 H 0.33174 0.19631 0.82318 0.0
H1901 H 0.27194 0.98686 0.82719 0.0
H1902 H 0.36714 0.08262 0.81825 0.0
H1903 H 0.25643 0.09451 0.84122 0.0
C1904 C 0.26361 0.15355 0.83999 0.0
C1905 C 0.28394 0.18298 0.83472 0.0
C1906 C 0.34611 0.0616 0.82002 0.0
C1907 C 0.30323 0.10942 0.82936 0.0
C1908 C 0.35378 0.0244 0.81719 0.0
C1909 C 0.32719 -0.00334 0.81965 0.0
C1910 C 0.31192 0.07082 0.82559 0.0
C1911 C 0.29285 0.0073 0.82478 0.0
C1912 C 0.2731 0.11681 0.83731 0.0
C1913 C 0.31515 0.17443 0.82736 0.0
N1914 N 0.28633 0.0435 0.82765 0.0
N1915 N 0.32373 0.13834 0.82482 0.0
H1916 H 0.75668 0.52051 0.57297 0.0
H1917 H 0.54393 0.5843 0.57458 0.0
H1918 H 0.7242 0.63508 0.5672 0.0
H1919 H 0.58568 0.48377 0.59179 0.0
H1920 H 0.60813 0.60222 0.56956 0.0
H1921 H 0.69169 0.5042 0.57649 0.0
C1922 C 0.73573 0.54204 0.57201 0.0
C1923 C 0.74569 0.5791 0.56953 0.0
C1924 C 0.60312 0.57642 0.57452 0.0
C1925 C 0.67139 0.56088 0.57412 0.0
C1926 C 0.56658 0.56627 0.57745 0.0
C1927 C 0.55945 0.53243 0.58358 0.0
C1928 C 0.63251 0.5523 0.57759 0.0
C1929 C 0.58982 0.5101 0.58706 0.0
C1930 C 0.69867 0.53283 0.57428 0.0
C1931 C 0.71745 0.60611 0.56895 0.0
N1932 N 0.62499 0.52027 0.5839 0.0
N1933 N 0.68145 0.5965 0.57127 0.0
H1934 H 0.10926 0.97533 0.31595 0.0
H1935 H 0.25923 0.83572 0.34454 0.0
H1936 H 0.22204 0.00627 0.32534 0.0
H1937 H 0.16114 0.79639 0.32525 0.0
H1938 H 0.24171 0.89954 0.33953 0.0
H1939 H 0.12481 0.90992 0.3203 0.0
C1940 C 0.13754 0.96815 0.31858 0.0
C1941 C 0.16467 0.99599 0.31999 0.0
C1942 C 0.22394 0.87696 0.33642 0.0
C1943 C 0.18214 0.92202 0.32546 0.0
C1944 C 0.23371 0.8405 0.3394 0.0
C1945 C 0.21177 0.81063 0.33522 0.0
C1946 C 0.19186 0.8837 0.3293 0.0
C1947 C 0.17894 0.8186 0.32861 0.0
C1948 C 0.14628 0.931 0.32116 0.0
C1949 C 0.20062 0.98558 0.32374 0.0
N1950 N 0.17003 0.85445 0.32579 0.0
N1951 N 0.20821 0.94946 0.32645 0.0
H1952 H 0.24521 0.8449 0.14976 0.0
H1953 H 0.39938 0.99541 0.12984 0.0
H1954 H 0.29964 0.91761 0.17597 0.0
H1955 H 0.32403 0.94407 0.10377 0.0
H1956 H 0.36716 0.96321 0.14689 0.0
H1957 H 0.27765 0.87693 0.13273 0.0
C1958 C 0.26426 0.86747 0.1519 0.0
C1959 C 0.27023 0.87843 0.16425 0.0
C1960 C 0.3577 0.95891 0.13744 0.0
C1961 C 0.30719 0.91532 0.14489 0.0
C1962 C 0.37622 0.97706 0.12773 0.0
C1963 C 0.36453 0.97193 0.11542 0.0
C1964 C 0.3274 0.93529 0.1348 0.0
C1965 C 0.33393 0.94853 0.11316 0.0
C1966 C 0.28256 0.88588 0.1422 0.0
C1967 C 0.29453 0.90828 0.16655 0.0
N1968 N 0.31654 0.93089 0.12274 0.0
N1969 N 0.31232 0.92557 0.15697 0.0
H1970 H 0.32985 0.97499 0.40932 0.0
H1971 H 0.32387 0.1484 0.36332 0.0
H1972 H 0.39783 0.07234 0.41571 0.0
H1973 H 0.22731 0.08008 0.37056 0.0
H1974 H 0.35679 0.1167 0.38035 0.0
H1975 H 0.29744 0.00827 0.39264 0.0
C1976 C 0.33776 0.00349 0.40728 0.0
C1977 C 0.36606 0.0212 0.41408 0.0
C1978 C 0.32841 0.10869 0.37818 0.0
C1979 C 0.32999 0.05896 0.39471 0.0
C1980 C 0.3096 0.12679 0.36851 0.0
C1981 C 0.27298 0.11649 0.36541 0.0
C1982 C 0.31064 0.07971 0.38466 0.0
C1983 C 0.25585 0.0882 0.3724 0.0
C1984 C 0.31938 0.02237 0.39772 0.0
C1985 C 0.37613 0.05768 0.4107 0.0
N1986 N 0.27492 0.07055 0.3816 0.0
N1987 N 0.35817 0.07537 0.40123 0.0
H1988 H 0.16817 0.04937 0.60334 0.0
H1989 H 0.19243 0.07525 0.67685 0.0
H1990 H 0.09429 -0.00092 0.6301 0.0
H1991 H 0.24542 0.147 0.65002 0.0
H1992 H 0.15987 0.04311 0.65987 0.0
H1993 H 0.20061 0.08165 0.62031 0.0
C1994 C 0.15877 0.0453 0.61281 0.0
C1995 C 0.1283 0.02204 0.61536 0.0
C1996 C 0.17846 0.06601 0.65768 0.0
C1997 C 0.16536 0.05836 0.63481 0.0
C1998 C 0.19704 0.08424 0.66735 0.0
C1999 C 0.22113 0.11405 0.66479 0.0
C2000 C 0.1845 0.07731 0.64534 0.0
C2001 C 0.22652 0.12452 0.65236 0.0
C2002 C 0.17718 0.06373 0.62248 0.0
C2003 C 0.1173 0.01734 0.62777 0.0
N2004 N 0.20841 0.10612 0.64309 0.0
N2005 N 0.13588 0.03527 0.63705 0.0
H2006 H 0.19332 0.91863 0.85289 0.0
H2007 H 0.16799 0.94355 0.92641 0.0
H2008 H 0.2451 0.846 0.8797 0.0
H2009 H 0.09565 0.99563 0.89958 0.0
H2010 H 0.20047 0.91129 0.90944 0.0
H2011 H 0.16104 0.95105 0.86986 0.0
C2012 C 0.19773 0.90951 0.86238 0.0
C2013 C 0.22138 0.87937 0.86494 0.0
C2014 C 0.17738 0.92962 0.90725 0.0
C2015 C 0.18504 0.91641 0.88439 0.0
C2016 C 0.15895 0.94803 0.91692 0.0
C2017 C 0.12887 0.97176 0.91435 0.0
C2018 C 0.16598 0.93546 0.89491 0.0
C2019 C 0.11834 0.97699 0.90192 0.0
C2020 C 0.1793 0.92791 0.87204 0.0
C2021 C 0.22651 0.86873 0.87736 0.0
N2022 N 0.13691 0.95904 0.89265 0.0
N2023 N 0.20855 0.88728 0.88663 0.0
H2024 H 0.69458 0.0745 0.85292 0.0
H2025 H 0.6667 0.05029 0.92639 0.0
H2026 H 0.74485 0.14776 0.87988 0.0
H2027 H 0.59714 0.99563 0.8993 0.0
H2028 H 0.6992 0.08297 0.90952 0.0
H2029 H 0.66204 0.04188 0.8698 0.0
C2030 C 0.69859 0.08373 0.86242 0.0
C2031 C 0.72192 0.1141 0.86504 0.0
C2032 C 0.67671 0.06399 0.90725 0.0
C2033 C 0.68525 0.07682 0.88439 0.0
C2034 C 0.65827 0.04532 0.91686 0.0
C2035 C 0.62897 0.02071 0.91419 0.0
C2036 C 0.6661 0.05757 0.89486 0.0
C2037 C 0.6192 0.01493 0.90172 0.0
C2038 C 0.68001 0.06521 0.87203 0.0
C2039 C 0.72652 0.12487 0.87748 0.0
N2040 N 0.63777 0.03316 0.89251 0.0
N2041 N 0.70841 0.1062 0.8867 0.0
H2042 H 0.74547 0.84257 0.64994 0.0
H2043 H 0.59467 -0.00327 0.63031 0.0
H2044 H 0.6939 0.91735 0.67614 0.0
H2045 H 0.66719 0.9426 0.60398 0.0
H2046 H 0.62685 0.96419 0.64728 0.0
H2047 H 0.71321 0.87497 0.63294 0.0
C2048 C 0.72705 0.86564 0.65209 0.0
C2049 C 0.72186 0.87711 0.66442 0.0
C2050 C 0.63573 0.95936 0.63779 0.0
C2051 C 0.68518 0.91446 0.6451 0.0
C2052 C 0.61724 0.97773 0.62813 0.0
C2053 C 0.62809 0.97186 0.61577 0.0
C2054 C 0.66516 0.93477 0.63506 0.0
C2055 C 0.65795 0.94763 0.61341 0.0
C2056 C 0.70887 0.88427 0.64241 0.0
C2057 C 0.6984 0.90761 0.66674 0.0
N2058 N 0.67531 0.92976 0.62295 0.0
N2059 N 0.68074 0.92511 0.65718 0.0
H2060 H 0.8227 0.84291 0.36415 0.0
H2061 H 0.82991 0.01886 0.40922 0.0
H2062 H 0.72748 0.91387 0.37045 0.0
H2063 H 0.898 0.92171 0.41573 0.0
H2064 H 0.79734 0.98523 0.39264 0.0
H2065 H 0.85583 0.87523 0.38099 0.0
C2066 C 0.80874 0.8652 0.3691 0.0
C2067 C 0.77243 0.87601 0.3658 0.0
C2068 C 0.81936 0.97125 0.39772 0.0
C2069 C 0.81038 0.91352 0.38484 0.0
C2070 C 0.83783 0.99034 0.40721 0.0
C2071 C 0.8662 0.97279 0.41403 0.0
C2072 C 0.82989 0.93457 0.3948 0.0
C2073 C 0.87625 0.93626 0.41072 0.0
C2074 C 0.82769 0.88368 0.37866 0.0
C2075 C 0.75577 0.90525 0.37247 0.0
N2076 N 0.85816 0.91833 0.40132 0.0
N2077 N 0.77496 0.9232 0.38158 0.0
H2078 H 0.8267 0.97453 0.12005 0.0
H2079 H 0.82224 0.14766 0.16615 0.0
H2080 H 0.89448 0.07196 0.11357 0.0
H2081 H 0.72518 0.07973 0.15924 0.0
H2082 H 0.85449 0.11591 0.149 0.0
H2083 H 0.79447 0.00778 0.13679 0.0
C2084 C 0.83456 0.00305 0.12208 0.0
C2085 C 0.86279 0.02079 0.11525 0.0
C2086 C 0.82614 0.10798 0.15128 0.0
C2087 C 0.82701 0.05847 0.13469 0.0
C2088 C 0.80771 0.12611 0.16102 0.0
C2089 C 0.77114 0.11598 0.16422 0.0
C2090 C 0.80804 0.07913 0.14483 0.0
C2091 C 0.7537 0.08773 0.1573 0.0
C2092 C 0.81631 0.02191 0.13167 0.0
C2093 C 0.87283 0.05729 0.1186 0.0
N2094 N 0.7724 0.07005 0.14802 0.0
N2095 N 0.85504 0.07493 0.12812 0.0
H2096 H 0.89621 0.41986 0.61312 0.0
H2097 H 0.72395 0.41464 0.65958 0.0
H2098 H 0.82879 0.51692 0.62053 0.0
H2099 H 0.8213 0.34646 0.66567 0.0
H2100 H 0.75695 0.4471 0.64283 0.0
H2101 H 0.86462 0.38716 0.63021 0.0
C2102 C 0.87481 0.43428 0.61835 0.0
C2103 C 0.86477 0.47099 0.6153 0.0
C2104 C 0.7711 0.42511 0.64787 0.0
C2105 C 0.82811 0.43359 0.63462 0.0
C2106 C 0.7524 0.40672 0.65746 0.0
C2107 C 0.77019 0.37832 0.66419 0.0
C2108 C 0.80758 0.4144 0.64475 0.0
C2109 C 0.80658 0.36823 0.66072 0.0
C2110 C 0.85677 0.4156 0.62805 0.0
C2111 C 0.83671 0.48831 0.62234 0.0
N2112 N 0.82408 0.38618 0.65121 0.0
N2113 N 0.81912 0.46936 0.63159 0.0
H2114 H 0.82227 0.64813 0.86359 0.0
H2115 H 0.82905 0.47407 0.90925 0.0
H2116 H 0.72604 0.57902 0.8705 0.0
H2117 H 0.89584 0.57206 0.91593 0.0
H2118 H 0.79644 0.50733 0.8926 0.0
H2119 H 0.8551 0.61638 0.88061 0.0
C2120 C 0.80805 0.62634 0.8687 0.0
C2121 C 0.77155 0.61585 0.86553 0.0
C2122 C 0.81816 0.52157 0.89774 0.0
C2123 C 0.80911 0.57902 0.88477 0.0
C2124 C 0.83663 0.50271 0.90728 0.0
C2125 C 0.86467 0.5206 0.91414 0.0
C2126 C 0.82842 0.55832 0.89482 0.0
C2127 C 0.87435 0.55726 0.91087 0.0
C2128 C 0.82681 0.60821 0.87837 0.0
C2129 C 0.7545 0.58731 0.87241 0.0
N2130 N 0.85632 0.57493 0.90141 0.0
N2131 N 0.77352 0.56964 0.88162 0.0
H2132 H 0.66322 0.47466 0.12074 0.0
H2133 H 0.66915 0.64909 0.16621 0.0
H2134 H 0.59721 0.57281 0.11353 0.0
H2135 H 0.76562 0.58018 0.15949 0.0
H2136 H 0.63675 0.61734 0.14908 0.0
H2137 H 0.69542 0.50817 0.13743 0.0
C2138 C 0.65573 0.50339 0.1226 0.0
C2139 C 0.62804 0.52125 0.11557 0.0
C2140 C 0.665 0.60922 0.1514 0.0
C2141 C 0.66379 0.55925 0.13495 0.0
C2142 C 0.68352 0.62734 0.16112 0.0
C2143 C 0.71994 0.61688 0.1644 0.0
C2144 C 0.68286 0.58006 0.14503 0.0
C2145 C 0.73719 0.58842 0.15752 0.0
C2146 C 0.67396 0.52239 0.13216 0.0
C2147 C 0.61845 0.55804 0.11871 0.0
N2148 N 0.7184 0.57074 0.14826 0.0
N2149 N 0.63621 0.57584 0.1282 0.0
H2150 H 0.59401 0.41887 0.41644 0.0
H2151 H 0.76771 0.41207 0.37054 0.0
H2152 H 0.66317 0.51492 0.40933 0.0
H2153 H 0.67022 0.34424 0.3642 0.0
H2154 H 0.73453 0.4446 0.38721 0.0
H2155 H 0.62566 0.38575 0.39945 0.0
C2156 C 0.61578 0.433 0.41129 0.0
C2157 C 0.62632 0.46954 0.4144 0.0
C2158 C 0.72038 0.42266 0.38215 0.0
C2159 C 0.66305 0.43163 0.3952 0.0
C2160 C 0.7392 0.40422 0.3726 0.0
C2161 C 0.72142 0.37594 0.3658 0.0
C2162 C 0.68376 0.41216 0.38516 0.0
C2163 C 0.68493 0.36593 0.3692 0.0
C2164 C 0.63386 0.41406 0.40164 0.0
C2165 C 0.65484 0.48645 0.40746 0.0
N2166 N 0.66729 0.38397 0.37867 0.0
N2167 N 0.67245 0.46727 0.39828 0.0
H2168 H 0.17115 0.64841 0.36395 0.0
H2169 H 0.16505 0.47401 0.40973 0.0
H2170 H 0.26676 0.57815 0.37042 0.0
H2171 H 0.096 0.57082 0.41568 0.0
H2172 H 0.19761 0.50725 0.39306 0.0
H2173 H 0.13824 0.6164 0.3809 0.0
C2174 C 0.18523 0.62631 0.36895 0.0
C2175 C 0.22158 0.61561 0.36568 0.0
C2176 C 0.17539 0.52125 0.39804 0.0
C2177 C 0.18391 0.57847 0.38487 0.0
C2178 C 0.15693 0.50238 0.40759 0.0
C2179 C 0.12824 0.51993 0.41426 0.0
C2180 C 0.16455 0.55769 0.39492 0.0
C2181 C 0.11797 0.55625 0.41077 0.0
C2182 C 0.16641 0.60801 0.37858 0.0
C2183 C 0.23843 0.58665 0.37242 0.0
N2184 N 0.13605 0.57394 0.40133 0.0
N2185 N 0.21937 0.56887 0.38162 0.0
H2186 H 0.09348 0.49716 0.13011 0.0
H2187 H 0.24556 0.34408 0.14962 0.0
H2188 H 0.16602 0.44315 0.10376 0.0
H2189 H 0.19357 0.41827 0.17591 0.0
H2190 H 0.21293 0.37628 0.13267 0.0
H2191 H 0.12594 0.46482 0.14708 0.0
C2192 C 0.11607 0.4782 0.12793 0.0
C2193 C 0.12689 0.47234 0.11556 0.0
C2194 C 0.20859 0.38551 0.14214 0.0
C2195 C 0.1643 0.43554 0.13484 0.0
C2196 C 0.22701 0.36701 0.15179 0.0
C2197 C 0.22178 0.37834 0.16414 0.0
C2198 C 0.18461 0.41545 0.14487 0.0
C2199 C 0.19811 0.40865 0.16649 0.0
C2200 C 0.13474 0.45996 0.13759 0.0
C2201 C 0.15679 0.44817 0.11319 0.0
N2202 N 0.1802 0.42603 0.15696 0.0
N2203 N 0.17434 0.43048 0.12273 0.0
H2204 H 0.32936 0.44217 0.92655 0.0
H2205 H 0.30034 0.41831 0.85313 0.0
H2206 H 0.39831 0.49737 0.89941 0.0
H2207 H 0.25034 0.34518 0.88017 0.0
H2208 H 0.33338 0.45075 0.86994 0.0
H2209 H 0.29694 0.40932 0.90972 0.0
C2210 C 0.33771 0.44718 0.91702 0.0
C2211 C 0.36677 0.47205 0.91433 0.0
C2212 C 0.31536 0.42748 0.87221 0.0
C2213 C 0.32969 0.43502 0.89502 0.0
C2214 C 0.29649 0.40907 0.86263 0.0
C2215 C 0.27308 0.3788 0.8653 0.0
C2216 C 0.31034 0.41584 0.88457 0.0
C2217 C 0.2687 0.36801 0.87774 0.0
C2218 C 0.3193 0.42843 0.90742 0.0
C2219 C 0.37643 0.47788 0.90185 0.0
N2220 N 0.28709 0.38656 0.88692 0.0
N2221 N 0.35787 0.45958 0.89264 0.0
H2222 H 0.24558 0.64763 0.64948 0.0
H2223 H 0.39885 0.49563 0.63007 0.0
H2224 H 0.29866 0.57449 0.67586 0.0
H2225 H 0.32537 0.54834 0.60372 0.0
H2226 H 0.36634 0.52801 0.64702 0.0
H2227 H 0.27827 0.61539 0.63255 0.0
C2228 C 0.26439 0.62492 0.65168 0.0
C2229 C 0.26991 0.6139 0.66404 0.0
C2230 C 0.35734 0.53257 0.63753 0.0
C2231 C 0.30714 0.57675 0.6448 0.0
C2232 C 0.37604 0.51432 0.62788 0.0
C2233 C 0.36498 0.51981 0.61552 0.0
C2234 C 0.3275 0.55664 0.63478 0.0
C2235 C 0.33479 0.54361 0.61315 0.0
C2236 C 0.28284 0.60639 0.64204 0.0
C2237 C 0.2939 0.58387 0.66642 0.0
N2238 N 0.31722 0.56134 0.62268 0.0
N2239 N 0.31183 0.56645 0.6569 0.0
H2240 H 0.52622 0.13864 0.09026 0.0
H2241 H 0.46588 0.35362 0.09134 0.0
H2242 H 0.41258 0.17646 0.08601 0.0
H2243 H 0.57893 0.31631 0.0852 0.0
H2244 H 0.44629 0.28853 0.09339 0.0
H2245 H 0.54622 0.20363 0.09241 0.0
C2246 C 0.50544 0.16054 0.08991 0.0
C2247 C 0.46773 0.15214 0.08782 0.0
C2248 C 0.47541 0.29468 0.09168 0.0
C2249 C 0.49038 0.22636 0.0903 0.0
C2250 C 0.48664 0.3318 0.09054 0.0
C2251 C 0.52402 0.34041 0.08796 0.0
C2252 C 0.50182 0.26602 0.09033 0.0
C2253 C 0.54973 0.31096 0.08705 0.0
C2254 C 0.51688 0.1976 0.0911 0.0
C2255 C 0.442 0.18166 0.08746 0.0
N2256 N 0.53812 0.27508 0.08819 0.0
N2257 N 0.45382 0.21745 0.08864 0.0
H2258 H 0.92485 0.33047 0.33448 0.0
H2259 H 0.06794 0.1616 0.33479 0.0
H2260 H 0.89083 0.21609 0.33995 0.0
H2261 H 0.10212 0.27618 0.33962 0.0
H2262 H 0.00295 0.18093 0.33663 0.0
H2263 H 0.9899 0.31126 0.3363 0.0
C2264 C 0.93104 0.30132 0.33613 0.0
C2265 C 0.90233 0.27478 0.33697 0.0
C2266 C 0.02466 0.2018 0.3374 0.0
C2267 C 0.97684 0.25261 0.33898 0.0
C2268 C 0.0618 0.19083 0.33631 0.0
C2269 C 0.09054 0.21738 0.33696 0.0
C2270 C 0.01608 0.23968 0.33898 0.0
C2271 C 0.08088 0.25479 0.33904 0.0
C2272 C 0.96821 0.29041 0.33721 0.0
C2273 C 0.91205 0.23747 0.33922 0.0
N2274 N 0.04441 0.2649 0.33984 0.0
N2275 N 0.94853 0.22743 0.34001 0.0
H2276 H 0.0252 0.64006 0.59175 0.0
H2277 H 0.96437 0.85488 0.59057 0.0
H2278 H 0.91234 0.677 0.585 0.0
H2279 H 0.07824 0.81719 0.58694 0.0
H2280 H 0.94434 0.78984 0.5926 0.0
H2281 H 0.04439 0.70516 0.59405 0.0
C2282 C 0.00439 0.6618 0.59087 0.0
C2283 C 0.96719 0.65308 0.58805 0.0
C2284 C 0.97373 0.79592 0.59145 0.0
C2285 C 0.98896 0.72751 0.59069 0.0
C2286 C 0.98519 0.833 0.59035 0.0
C2287 C 0.02298 0.84144 0.58845 0.0
C2288 C 0.0003 0.76719 0.59078 0.0
C2289 C 0.04876 0.81196 0.58823 0.0
C2290 C 0.01539 0.69893 0.59215 0.0
C2291 C 0.94141 0.68244 0.58704 0.0
N2292 N 0.03693 0.77616 0.58933 0.0
N2293 N 0.95281 0.71835 0.58831 0.0
H2294 H 0.56637 0.66084 0.8344 0.0
H2295 H 0.42445 0.83051 0.83622 0.0
H2296 H 0.60066 0.77461 0.841 0.0
H2297 H 0.38904 0.71574 0.83912 0.0
H2298 H 0.48908 0.81048 0.83828 0.0
H2299 H 0.50136 0.68005 0.8364 0.0
C2300 C 0.56026 0.68985 0.83634 0.0
C2301 C 0.58903 0.71625 0.83742 0.0
C2302 C 0.4672 0.78967 0.83859 0.0
C2303 C 0.51457 0.7384 0.83965 0.0
C2304 C 0.43025 0.80107 0.83737 0.0
C2305 C 0.4013 0.7747 0.83738 0.0
C2306 C 0.47541 0.75156 0.83966 0.0
C2307 C 0.4105 0.73698 0.83903 0.0
C2308 C 0.5231 0.70075 0.83753 0.0
C2309 C 0.57941 0.75335 0.84005 0.0
N2310 N 0.44684 0.72647 0.83995 0.0
N2311 N 0.54296 0.7634 0.84094 0.0
H2312 H 0.58146 0.67501 0.44527 0.0
H2313 H 0.41209 0.81762 0.44538 0.0
H2314 H 0.46703 0.64059 0.44021 0.0
H2315 H 0.52641 0.85207 0.44009 0.0
H2316 H 0.43158 0.75265 0.4436 0.0
H2317 H 0.56197 0.73999 0.44348 0.0
C2318 C 0.55224 0.6811 0.44371 0.0
C2319 C 0.52577 0.6523 0.44298 0.0
C2320 C 0.45236 0.77442 0.44272 0.0
C2321 C 0.50328 0.72672 0.44101 0.0
C2322 C 0.44129 0.81155 0.44377 0.0
C2323 C 0.46772 0.84035 0.44297 0.0
C2324 C 0.49022 0.76592 0.44101 0.0
C2325 C 0.50511 0.83077 0.44079 0.0
C2326 C 0.54117 0.71823 0.44265 0.0
C2327 C 0.48836 0.66188 0.44085 0.0
N2328 N 0.51531 0.79433 0.44002 0.0
N2329 N 0.47816 0.69832 0.44008 0.0
H2330 H 0.56697 0.3314 0.69571 0.0
H2331 H 0.42507 0.16167 0.69379 0.0
H2332 H 0.60142 0.21778 0.68896 0.0
H2333 H 0.38978 0.27641 0.69068 0.0
H2334 H 0.48977 0.1817 0.69182 0.0
H2335 H 0.50199 0.31207 0.69372 0.0
C2336 C 0.5609 0.3024 0.69374 0.0
C2337 C 0.58971 0.27608 0.69261 0.0
C2338 C 0.46789 0.20249 0.69145 0.0
C2339 C 0.51529 0.25379 0.69039 0.0
C2340 C 0.43091 0.1911 0.69262 0.0
C2341 C 0.40197 0.21747 0.69251 0.0
C2342 C 0.47613 0.2406 0.69034 0.0
C2343 C 0.41122 0.25516 0.69084 0.0
C2344 C 0.52376 0.29143 0.69256 0.0
C2345 C 0.58014 0.23898 0.68995 0.0
N2346 N 0.44757 0.26567 0.68997 0.0
N2347 N 0.5437 0.22886 0.68906 0.0
H2348 H 0.96535 0.13852 0.93959 0.0
H2349 H 0.02676 0.35323 0.93871 0.0
H2350 H 0.07912 0.17574 0.94407 0.0
H2351 H 0.91367 0.31658 0.94521 0.0
H2352 H 0.04594 0.28802 0.93669 0.0
H2353 H 0.94566 0.20368 0.93766 0.0
C2354 C 0.98623 0.16033 0.94004 0.0
C2355 C 0.02388 0.1517 0.94212 0.0
C2356 C 0.0169 0.29433 0.93848 0.0
C2357 C 0.00158 0.2261 0.93989 0.0
C2358 C 0.00591 0.33153 0.9396 0.0
C2359 C 0.96863 0.34037 0.94226 0.0
C2360 C 0.99037 0.26582 0.93993 0.0
C2361 C 0.94279 0.31106 0.9433 0.0
C2362 C 0.97495 0.19748 0.93898 0.0
C2363 C 0.04974 0.18111 0.94261 0.0
N2364 N 0.95417 0.2751 0.94217 0.0
N2365 N 0.03809 0.21698 0.94155 0.0
H2366 H 0.92503 0.66183 0.19501 0.0
H2367 H 0.06722 0.83125 0.1933 0.0
H2368 H 0.89068 0.77577 0.18881 0.0
H2369 H 0.10218 0.71648 0.1899 0.0
H2370 H 0.00247 0.81145 0.19132 0.0
H2371 H 0.98998 0.68102 0.19284 0.0
C2372 C 0.93111 0.69088 0.19311 0.0
C2373 C 0.90235 0.71732 0.1922 0.0
C2374 C 0.02428 0.79061 0.19088 0.0
C2375 C 0.97675 0.73946 0.18978 0.0
C2376 C 0.0613 0.80186 0.19205 0.0
C2377 C 0.09016 0.77541 0.19189 0.0
C2378 C 0.01594 0.75255 0.18969 0.0
C2379 C 0.08081 0.73778 0.19012 0.0
C2380 C 0.96824 0.70176 0.19183 0.0
C2381 C 0.91194 0.75447 0.18963 0.0
N2382 N 0.04442 0.7274 0.18924 0.0
N2383 N 0.94838 0.76451 0.18865 0.0
H2384 H 0.44484 0.66767 0.96362 0.0
H2385 H 0.49826 0.8459 0.9269 0.0
H2386 H 0.49433 0.6493 0.92757 0.0
H2387 H 0.5478 0.82567 0.96283 0.0
H2388 H 0.47933 0.77963 0.92604 0.0
H2389 H 0.46454 0.73301 0.96268 0.0
C2390 C 0.45961 0.67752 0.95546 0.0
C2391 C 0.46821 0.65321 0.94567 0.0
C2392 C 0.4945 0.78999 0.93404 0.0
C2393 C 0.48974 0.7277 0.94446 0.0
C2394 C 0.50501 0.82756 0.93458 0.0
C2395 C 0.52458 0.84101 0.94495 0.0
C2396 C 0.50262 0.76654 0.94411 0.0
C2397 C 0.53291 0.81626 0.95465 0.0
C2398 C 0.47083 0.71461 0.95497 0.0
C2399 C 0.48753 0.66726 0.93533 0.0
N2400 N 0.52138 0.7803 0.95408 0.0
N2401 N 0.49745 0.70393 0.93492 0.0
H2402 H 0.88861 0.71582 0.68937 0.0
H2403 H 0.10355 0.77686 0.68913 0.0
H2404 H 0.92601 0.82929 0.69452 0.0
H2405 H 0.0662 0.66326 0.69395 0.0
H2406 H 0.03841 0.79656 0.68715 0.0
H2407 H 0.95367 0.69626 0.6871 0.0
C2408 C 0.91043 0.73667 0.68991 0.0
C2409 C 0.90187 0.77418 0.69228 0.0
C2410 C 0.04458 0.76729 0.68855 0.0
C2411 C 0.97621 0.75202 0.68967 0.0
C2412 C 0.08172 0.75602 0.68964 0.0
C2413 C 0.09031 0.71843 0.69185 0.0
C2414 C 0.01591 0.74072 0.68957 0.0
C2415 C 0.06087 0.69261 0.69241 0.0
C2416 C 0.94754 0.72547 0.68865 0.0
C2417 C 0.93131 0.79999 0.69286 0.0
N2418 N 0.025 0.70426 0.69133 0.0
N2419 N 0.96716 0.78841 0.69161 0.0
H2420 H 0.94681 0.16613 0.46424 0.0
H2421 H -0.00062 0.34479 0.42744 0.0
H2422 H 0.9936 0.14918 0.42772 0.0
H2423 H 0.04894 0.32498 0.46339 0.0
H2424 H 0.98055 0.27854 0.42664 0.0
H2425 H 0.96707 0.23138 0.46351 0.0
C2426 C 0.96112 0.17629 0.45603 0.0
C2427 C 0.96877 0.15242 0.44604 0.0
C2428 C 0.9957 0.28896 0.43463 0.0
C2429 C 0.99094 0.22675 0.44507 0.0
C2430 C 0.00618 0.32653 0.43514 0.0
C2431 C 0.02571 0.3401 0.44549 0.0
C2432 C 0.00379 0.26562 0.44473 0.0
C2433 C 0.03408 0.31546 0.45522 0.0
C2434 C 0.97268 0.2133 0.45566 0.0
C2435 C 0.98752 0.16681 0.43563 0.0
N2436 N 0.02256 0.27947 0.45469 0.0
N2437 N -0.00228 0.20339 0.43534 0.0
H2438 H 0.60265 0.27642 0.1885 0.0
H2439 H 0.38796 0.21497 0.18985 0.0
H2440 H 0.56615 0.16349 0.19539 0.0
H2441 H 0.42533 0.32892 0.1936 0.0
H2442 H 0.45309 0.19513 0.18791 0.0
H2443 H 0.53744 0.29544 0.1864 0.0
C2444 C 0.58098 0.25556 0.18946 0.0
C2445 C 0.58987 0.21838 0.19226 0.0
C2446 C 0.44692 0.22449 0.18907 0.0
C2447 C 0.5153 0.23994 0.18984 0.0
C2448 C 0.40979 0.23584 0.19013 0.0
C2449 C 0.40122 0.2736 0.19202 0.0
C2450 C 0.47557 0.25115 0.18979 0.0
C2451 C 0.43065 0.29946 0.19231 0.0
C2452 C 0.54378 0.26646 0.1883 0.0
C2453 C 0.56059 0.19254 0.19337 0.0
N2454 N 0.4665 0.28773 0.19125 0.0
N2455 N 0.52461 0.20383 0.1922 0.0
H2456 H 0.46505 0.13807 0.59085 0.0
H2457 H 0.52658 0.35286 0.59065 0.0
H2458 H 0.57866 0.17516 0.58582 0.0
H2459 H 0.41301 0.31577 0.58552 0.0
H2460 H 0.546 0.28774 0.59286 0.0
H2461 H 0.44554 0.20324 0.59289 0.0
C2462 C 0.48594 0.15985 0.5903 0.0
C2463 C 0.52347 0.15117 0.58802 0.0
C2464 C 0.5168 0.29395 0.59133 0.0
C2465 C 0.50139 0.22561 0.59036 0.0
C2466 C 0.50569 0.3311 0.59011 0.0
C2467 C 0.46819 0.33976 0.58775 0.0
C2468 C 0.49018 0.26535 0.5903 0.0
C2469 C 0.4423 0.31038 0.58717 0.0
C2470 C 0.47477 0.19701 0.59142 0.0
C2471 C 0.54935 0.18055 0.58741 0.0
N2472 N 0.4538 0.2745 0.58839 0.0
N2473 N 0.5378 0.21644 0.58853 0.0
H2474 H 0.41637 0.69601 0.31598 0.0
H2475 H 0.59493 0.74792 0.35303 0.0
H2476 H 0.39941 0.74251 0.35253 0.0
H2477 H 0.57571 0.79728 0.31702 0.0
H2478 H 0.52864 0.72921 0.35374 0.0
H2479 H 0.48172 0.71589 0.31678 0.0
C2480 C 0.42654 0.71015 0.32421 0.0
C2481 C 0.40263 0.71785 0.33419 0.0
C2482 C 0.5392 0.74428 0.34576 0.0
C2483 C 0.47709 0.73961 0.33524 0.0
C2484 C 0.57679 0.7547 0.3453 0.0
C2485 C 0.59054 0.77415 0.33496 0.0
C2486 C 0.516 0.75233 0.33562 0.0
C2487 C 0.56604 0.78249 0.32519 0.0
C2488 C 0.46362 0.72151 0.32462 0.0
C2489 C 0.41706 0.7364 0.34463 0.0
N2490 N 0.53003 0.77103 0.32566 0.0
N2491 N 0.4537 0.74641 0.34496 0.0
H2492 H 0.91039 0.81728 0.08415 0.0
H2493 H 0.0803 0.67563 0.08568 0.0
H2494 H 0.02414 0.8521 0.09045 0.0
H2495 H 0.96568 0.64035 0.08936 0.0
H2496 H 0.06032 0.74038 0.08757 0.0
H2497 H 0.9299 0.75238 0.08617 0.0
C2498 C 0.93946 0.8113 0.08603 0.0
C2499 C 0.96575 0.84019 0.08703 0.0
C2500 C 0.03956 0.71849 0.08809 0.0
C2501 C 0.98826 0.76585 0.08928 0.0
C2502 C 0.05092 0.68148 0.08696 0.0
C2503 C 0.02456 0.65252 0.08725 0.0
C2504 C 0.00149 0.72672 0.08934 0.0
C2505 C 0.98692 0.66179 0.08906 0.0
C2506 C 0.95053 0.77422 0.08723 0.0
C2507 C 0.00295 0.83074 0.08958 0.0
N2508 N 0.97645 0.69815 0.08989 0.0
N2509 N 0.01318 0.79434 0.09048 0.0
H2510 H 0.10463 0.21546 0.84086 0.0
H2511 H 0.88972 0.27651 0.84087 0.0
H2512 H 0.06736 0.32914 0.83625 0.0
H2513 H 0.92702 0.16321 0.8353 0.0
H2514 H 0.95481 0.296 0.84317 0.0
H2515 H 0.03949 0.19575 0.84284 0.0
C2516 C 0.08282 0.23631 0.8404 0.0
C2517 C 0.09144 0.27394 0.83825 0.0
C2518 C 0.94865 0.26684 0.84152 0.0
C2519 C 0.01702 0.25162 0.84052 0.0
C2520 C 0.91152 0.25568 0.84025 0.0
C2521 C 0.90293 0.21824 0.83775 0.0
C2522 C 0.9773 0.24032 0.8404 0.0
C2523 C 0.93235 0.19245 0.83707 0.0
C2524 C 0.04567 0.22503 0.84148 0.0
C2525 C 0.06201 0.29977 0.83774 0.0
N2526 N 0.96822 0.20399 0.83834 0.0
N2527 N 0.02613 0.28811 0.83882 0.0
loop_
_geom_bond_atom_site_label_1
_geom_bond_atom_site_label_2
_geom_bond_distance
_geom_bond_site_symmetry_2
_ccdc_geom_bond_type
Co0 O3 1.970 . S
Co0 N17 1.989 1_545 S
Co0 O25 1.967 . S
Co0 O32 1.920 . S
Co1 O4 1.966 . S
Co1 N10 2.022 . S
Co1 N18 1.993 1_545 S
Co1 O26 1.941 . S
C2 O3 1.258 . S
C2 O4 1.263 . S
O3 Co0 1.970 . S
O3 C2 1.258 . S
O4 Co1 1.966 . S
O4 C2 1.263 . S
C5 O6 1.235 . S
C5 O32 1.289 1_565 S
O6 C5 1.235 . S
C7 C9 1.400 . S
C7 N10 1.351 . S
C7 C12 1.501 1_545 S
C8 C9 1.387 . S
C8 N11 1.341 . S
C9 C7 1.400 . S
C9 C8 1.387 . S
N10 Co1 2.022 . S
N10 C7 1.351 . S
N10 N11 1.365 . S
N11 C8 1.341 . S
N11 N10 1.365 . S
N11 H31 0.862 . S
C12 C7 1.501 1_565 S
C12 H13 0.961 . S
C12 H14 0.961 . S
C12 H15 0.960 1_565 S
H13 C12 0.961 . S
H14 C12 0.961 . S
H15 C12 0.960 1_545 S
C16 N17 1.342 . S
C16 C20 1.401 . S
C16 C21 1.499 . S
N17 Co0 1.989 1_565 S
N17 C16 1.342 . S
N17 N18 1.388 . S
N18 Co1 1.993 1_565 S
N18 N17 1.388 . S
N18 C19 1.346 . S
C19 N18 1.346 . S
C19 C20 1.396 . S
C19 C29 1.510 . S
C20 C16 1.401 . S
C20 C19 1.396 . S
C21 C16 1.499 . S
C21 H22 0.959 . S
C21 H23 0.960 . S
C21 H24 0.961 . S
H22 C21 0.959 . S
H23 C21 0.960 . S
H24 C21 0.961 . S
O25 Co0 1.967 . S
O25 C33 1.258 . S
O26 Co1 1.941 . S
O26 C33 1.266 . S
H27 C29 0.959 . S
H28 C29 0.961 . S
C29 C19 1.510 . S
C29 H27 0.959 . S
C29 H28 0.961 . S
C29 H30 0.960 . S
H30 C29 0.960 . S
H31 N11 0.862 . S
O32 Co0 1.920 . S
O32 C5 1.289 1_545 S
C33 O25 1.258 . S
C33 O26 1.266 . S
Co34 O37 1.970 . S
Co34 N51 1.989 . S
Co34 O59 1.967 . S
Co34 O66 1.920 . S
Co35 O38 1.966 . S
Co35 N44 2.022 . S
Co35 N52 1.993 . S
Co35 O60 1.941 . S
C36 O37 1.258 . S
C36 O38 1.263 . S
O37 Co34 1.970 . S
O37 C36 1.258 . S
O38 Co35 1.966 . S
O38 C36 1.263 . S
C39 O40 1.235 . S
C39 O66 1.289 . S
O40 C39 1.235 . S
C41 C43 1.400 . S
C41 N44 1.351 . S
C41 C46 1.501 . S
C42 C43 1.387 . S
C42 N45 1.341 . S
C43 C41 1.400 . S
C43 C42 1.387 . S
N44 Co35 2.022 . S
N44 C41 1.351 . S
N44 N45 1.365 . S
N45 C42 1.341 . S
N45 N44 1.365 . S
N45 H65 0.862 . S
C46 C41 1.501 . S
C46 H47 0.961 . S
C46 H48 0.961 . S
C46 H49 0.960 . S
H47 C46 0.961 . S
H48 C46 0.961 . S
H49 C46 0.960 . S
C50 N51 1.342 . S
C50 C54 1.401 . S
C50 C55 1.499 . S
N51 Co34 1.989 . S
N51 C50 1.342 . S
N51 N52 1.388 . S
N52 Co35 1.993 . S
N52 N51 1.388 . S
N52 C53 1.346 . S
C53 N52 1.346 . S
C53 C54 1.396 . S
C53 C63 1.510 . S
C54 C50 1.401 . S
C54 C53 1.396 . S
C55 C50 1.499 . S
C55 H56 0.959 . S
C55 H57 0.960 . S
C55 H58 0.961 . S
H56 C55 0.959 . S
H57 C55 0.960 . S
H58 C55 0.961 . S
O59 Co34 1.967 . S
O59 C67 1.258 . S
O60 Co35 1.941 . S
O60 C67 1.266 . S
H61 C63 0.959 . S
H62 C63 0.961 . S
C63 C53 1.510 . S
C63 H61 0.959 . S
C63 H62 0.961 . S
C63 H64 0.960 . S
H64 C63 0.960 . S
H65 N45 0.862 . S
O66 Co34 1.920 . S
O66 C39 1.289 . S
C67 O59 1.258 . S
C67 O60 1.266 . S
Co68 O71 1.970 1_655 S
Co68 N85 1.989 1_665 S
Co68 O93 1.967 1_655 S
Co68 O100 1.920 . S
Co69 O72 1.966 . S
Co69 N78 2.022 . S
Co69 N86 1.993 1_565 S
Co69 O94 1.941 . S
C70 O71 1.258 . S
C70 O72 1.263 . S
O71 Co68 1.970 1_455 S
O71 C70 1.258 . S
O72 Co69 1.966 . S
O72 C70 1.263 . S
C73 O74 1.235 . S
C73 O100 1.289 1_545 S
O74 C73 1.235 . S
C75 C77 1.400 . S
C75 N78 1.351 . S
C75 C80 1.501 1_565 S
C76 C77 1.387 . S
C76 N79 1.341 . S
C77 C75 1.400 . S
C77 C76 1.387 . S
N78 Co69 2.022 . S
N78 C75 1.351 . S
N78 N79 1.365 . S
N79 C76 1.341 . S
N79 N78 1.365 . S
N79 H99 0.862 . S
C80 C75 1.501 1_545 S
C80 H81 0.961 . S
C80 H82 0.961 . S
C80 H83 0.960 1_545 S
H81 C80 0.961 . S
H82 C80 0.961 . S
H83 C80 0.960 1_565 S
C84 N85 1.342 . S
C84 C88 1.401 . S
C84 C89 1.499 1_455 S
N85 Co68 1.989 1_445 S
N85 C84 1.342 . S
N85 N86 1.388 . S
N86 Co69 1.993 1_545 S
N86 N85 1.388 . S
N86 C87 1.346 . S
C87 N86 1.346 . S
C87 C88 1.396 . S
C87 C97 1.510 . S
C88 C84 1.401 . S
C88 C87 1.396 . S
C89 C84 1.499 1_655 S
C89 H90 0.959 . S
C89 H91 0.960 . S
C89 H92 0.961 . S
H90 C89 0.959 . S
H91 C89 0.960 . S
H92 C89 0.961 . S
O93 Co68 1.967 1_455 S
O93 C101 1.258 . S
O94 Co69 1.941 . S
O94 C101 1.266 . S
H95 C97 0.959 . S
H96 C97 0.961 . S
C97 C87 1.510 . S
C97 H95 0.959 . S
C97 H96 0.961 . S
C97 H98 0.960 . S
H98 C97 0.960 . S
H99 N79 0.862 . S
O100 Co68 1.920 . S
O100 C73 1.289 1_565 S
C101 O93 1.258 . S
C101 O94 1.266 . S
Co102 O105 1.970 . S
Co102 N119 1.989 . S
Co102 O127 1.967 . S
Co102 O134 1.920 . S
Co103 O106 1.966 . S
Co103 N112 2.022 . S
Co103 N120 1.993 . S
Co103 O128 1.941 . S
C104 O105 1.258 . S
C104 O106 1.263 . S
O105 Co102 1.970 . S
O105 C104 1.258 . S
O106 Co103 1.966 . S
O106 C104 1.263 . S
C107 O108 1.235 . S
C107 O134 1.289 . S
O108 C107 1.235 . S
C109 C111 1.400 . S
C109 N112 1.351 . S
C109 C114 1.501 . S
C110 C111 1.387 . S
C110 N113 1.341 . S
C111 C109 1.400 . S
C111 C110 1.387 . S
N112 Co103 2.022 . S
N112 C109 1.351 . S
N112 N113 1.365 . S
N113 C110 1.341 . S
N113 N112 1.365 . S
N113 H133 0.862 . S
C114 C109 1.501 . S
C114 H115 0.961 . S
C114 H116 0.961 . S
C114 H117 0.960 . S
H115 C114 0.961 . S
H116 C114 0.961 . S
H117 C114 0.960 . S
C118 N119 1.342 . S
C118 C122 1.401 . S
C118 C123 1.499 . S
N119 Co102 1.989 . S
N119 C118 1.342 . S
N119 N120 1.388 . S
N120 Co103 1.993 . S
N120 N119 1.388 . S
N120 C121 1.346 . S
C121 N120 1.346 . S
C121 C122 1.396 . S
C121 C131 1.510 . S
C122 C118 1.401 . S
C122 C121 1.396 . S
C123 C118 1.499 . S
C123 H124 0.959 . S
C123 H125 0.960 . S
C123 H126 0.961 . S
H124 C123 0.959 . S
H125 C123 0.960 . S
H126 C123 0.961 . S
O127 Co102 1.967 . S
O127 C135 1.258 . S
O128 Co103 1.941 . S
O128 C135 1.266 . S
H129 C131 0.959 . S
H130 C131 0.961 . S
C131 C121 1.510 . S
C131 H129 0.959 . S
C131 H130 0.961 . S
C131 H132 0.960 . S
H132 C131 0.960 . S
H133 N113 0.862 . S
O134 Co102 1.920 . S
O134 C107 1.289 . S
C135 O127 1.258 . S
C135 O128 1.266 . S
Co136 O139 1.970 . S
Co136 N153 1.989 1_565 S
Co136 O161 1.967 . S
Co136 O168 1.920 . S
Co137 O140 1.966 . S
Co137 N146 2.022 . S
Co137 N154 1.993 1_565 S
Co137 O162 1.941 . S
C138 O139 1.258 . S
C138 O140 1.263 . S
O139 Co136 1.970 . S
O139 C138 1.258 . S
O140 Co137 1.966 . S
O140 C138 1.263 . S
C141 O142 1.235 . S
C141 O168 1.289 1_545 S
O142 C141 1.235 . S
C143 C145 1.400 . S
C143 N146 1.351 . S
C143 C148 1.501 1_565 S
C144 C145 1.387 . S
C144 N147 1.341 . S
C145 C143 1.400 . S
C145 C144 1.387 . S
N146 Co137 2.022 . S
N146 C143 1.351 . S
N146 N147 1.365 . S
N147 C144 1.341 . S
N147 N146 1.365 . S
N147 H167 0.862 . S
C148 C143 1.501 1_545 S
C148 H149 0.961 . S
C148 H150 0.961 . S
C148 H151 0.960 1_545 S
H149 C148 0.961 . S
H150 C148 0.961 . S
H151 C148 0.960 1_565 S
C152 N153 1.342 . S
C152 C156 1.401 . S
C152 C157 1.499 . S
N153 Co136 1.989 1_545 S
N153 C152 1.342 . S
N153 N154 1.388 . S
N154 Co137 1.993 1_545 S
N154 N153 1.388 . S
N154 C155 1.346 . S
C155 N154 1.346 . S
C155 C156 1.396 . S
C155 C165 1.510 . S
C156 C152 1.401 . S
C156 C155 1.396 . S
C157 C152 1.499 . S
C157 H158 0.959 . S
C157 H159 0.960 . S
C157 H160 0.961 . S
H158 C157 0.959 . S
H159 C157 0.960 . S
H160 C157 0.961 . S
O161 Co136 1.967 . S
O161 C169 1.258 . S
O162 Co137 1.941 . S
O162 C169 1.266 . S
H163 C165 0.959 . S
H164 C165 0.961 . S
C165 C155 1.510 . S
C165 H163 0.959 . S
C165 H164 0.961 . S
C165 H166 0.960 . S
H166 C165 0.960 . S
H167 N147 0.862 . S
O168 Co136 1.920 . S
O168 C141 1.289 1_565 S
C169 O161 1.258 . S
C169 O162 1.266 . S
Co170 O173 1.970 . S
Co170 N187 1.989 . S
Co170 O195 1.967 . S
Co170 O202 1.920 . S
Co171 O174 1.966 . S
Co171 N180 2.022 . S
Co171 N188 1.993 . S
Co171 O196 1.941 . S
C172 O173 1.258 . S
C172 O174 1.263 . S
O173 Co170 1.970 . S
O173 C172 1.258 . S
O174 Co171 1.966 . S
O174 C172 1.263 . S
C175 O176 1.235 . S
C175 O202 1.289 . S
O176 C175 1.235 . S
C177 C179 1.400 . S
C177 N180 1.351 . S
C177 C182 1.501 . S
C178 C179 1.387 . S
C178 N181 1.341 . S
C179 C177 1.400 . S
C179 C178 1.387 . S
N180 Co171 2.022 . S
N180 C177 1.351 . S
N180 N181 1.365 . S
N181 C178 1.341 . S
N181 N180 1.365 . S
N181 H201 0.862 . S
C182 C177 1.501 . S
C182 H183 0.961 . S
C182 H184 0.961 . S
C182 H185 0.960 . S
H183 C182 0.961 . S
H184 C182 0.961 . S
H185 C182 0.960 . S
C186 N187 1.342 . S
C186 C190 1.401 . S
C186 C191 1.499 . S
N187 Co170 1.989 . S
N187 C186 1.342 . S
N187 N188 1.388 . S
N188 Co171 1.993 . S
N188 N187 1.388 . S
N188 C189 1.346 . S
C189 N188 1.346 . S
C189 C190 1.396 . S
C189 C199 1.510 . S
C190 C186 1.401 . S
C190 C189 1.396 . S
C191 C186 1.499 . S
C191 H192 0.959 . S
C191 H193 0.960 . S
C191 H194 0.961 . S
H192 C191 0.959 . S
H193 C191 0.960 . S
H194 C191 0.961 . S
O195 Co170 1.967 . S
O195 C203 1.258 . S
O196 Co171 1.941 . S
O196 C203 1.266 . S
H197 C199 0.959 . S
H198 C199 0.961 . S
C199 C189 1.510 . S
C199 H197 0.959 . S
C199 H198 0.961 . S
C199 H200 0.960 . S
H200 C199 0.960 . S
H201 N181 0.862 . S
O202 Co170 1.920 . S
O202 C175 1.289 . S
C203 O195 1.258 . S
C203 O196 1.266 . S
Co204 O207 1.970 1_655 S
Co204 N221 1.989 1_645 S
Co204 O229 1.967 1_655 S
Co204 O236 1.920 . S
Co205 O208 1.966 . S
Co205 N214 2.022 . S
Co205 N222 1.993 1_545 S
Co205 O230 1.941 . S
C206 O207 1.258 . S
C206 O208 1.263 . S
O207 Co204 1.970 1_455 S
O207 C206 1.258 . S
O208 Co205 1.966 . S
O208 C206 1.263 . S
C209 O210 1.235 . S
C209 O236 1.289 1_565 S
O210 C209 1.235 . S
C211 C213 1.400 . S
C211 N214 1.351 . S
C211 C216 1.501 1_545 S
C212 C213 1.387 . S
C212 N215 1.341 . S
C213 C211 1.400 . S
C213 C212 1.387 . S
N214 Co205 2.022 . S
N214 C211 1.351 . S
N214 N215 1.365 . S
N215 C212 1.341 . S
N215 N214 1.365 . S
N215 H235 0.862 . S
C216 C211 1.501 1_565 S
C216 H217 0.961 . S
C216 H218 0.961 . S
C216 H219 0.960 1_565 S
H217 C216 0.961 . S
H218 C216 0.961 . S
H219 C216 0.960 1_545 S
C220 N221 1.342 . S
C220 C224 1.401 . S
C220 C225 1.499 1_455 S
N221 Co204 1.989 1_465 S
N221 C220 1.342 . S
N221 N222 1.388 . S
N222 Co205 1.993 1_565 S
N222 N221 1.388 . S
N222 C223 1.346 . S
C223 N222 1.346 . S
C223 C224 1.396 . S
C223 C233 1.510 . S
C224 C220 1.401 . S
C224 C223 1.396 . S
C225 C220 1.499 1_655 S
C225 H226 0.959 . S
C225 H227 0.960 . S
C225 H228 0.961 . S
H226 C225 0.959 . S
H227 C225 0.960 . S
H228 C225 0.961 . S
O229 Co204 1.967 1_455 S
O229 C237 1.258 . S
O230 Co205 1.941 . S
O230 C237 1.266 . S
H231 C233 0.959 . S
H232 C233 0.961 . S
C233 C223 1.510 . S
C233 H231 0.959 . S
C233 H232 0.961 . S
C233 H234 0.960 . S
H234 C233 0.960 . S
H235 N215 0.862 . S
O236 Co204 1.920 . S
O236 C209 1.289 1_545 S
C237 O229 1.258 . S
C237 O230 1.266 . S
Co238 O241 1.970 . S
Co238 N255 1.989 . S
Co238 O263 1.967 . S
Co238 O270 1.920 . S
Co239 O242 1.966 . S
Co239 N248 2.022 . S
Co239 N256 1.993 . S
Co239 O264 1.941 . S
C240 O241 1.258 . S
C240 O242 1.263 . S
O241 Co238 1.970 . S
O241 C240 1.258 . S
O242 Co239 1.966 . S
O242 C240 1.263 . S
C243 O244 1.235 . S
C243 O270 1.289 . S
O244 C243 1.235 . S
C245 C247 1.400 . S
C245 N248 1.351 . S
C245 C250 1.501 . S
C246 C247 1.387 . S
C246 N249 1.341 . S
C247 C245 1.400 . S
C247 C246 1.387 . S
N248 Co239 2.022 . S
N248 C245 1.351 . S
N248 N249 1.365 . S
N249 C246 1.341 . S
N249 N248 1.365 . S
N249 H269 0.862 . S
C250 C245 1.501 . S
C250 H251 0.961 . S
C250 H252 0.961 . S
C250 H253 0.960 . S
H251 C250 0.961 . S
H252 C250 0.961 . S
H253 C250 0.960 . S
C254 N255 1.342 . S
C254 C258 1.401 . S
C254 C259 1.499 . S
N255 Co238 1.989 . S
N255 C254 1.342 . S
N255 N256 1.388 . S
N256 Co239 1.993 . S
N256 N255 1.388 . S
N256 C257 1.346 . S
C257 N256 1.346 . S
C257 C258 1.396 . S
C257 C267 1.510 . S
C258 C254 1.401 . S
C258 C257 1.396 . S
C259 C254 1.499 . S
C259 H260 0.959 . S
C259 H261 0.960 . S
C259 H262 0.961 . S
H260 C259 0.959 . S
H261 C259 0.960 . S
H262 C259 0.961 . S
O263 Co238 1.967 . S
O263 C271 1.258 . S
O264 Co239 1.941 . S
O264 C271 1.266 . S
H265 C267 0.959 . S
H266 C267 0.961 . S
C267 C257 1.510 . S
C267 H265 0.959 . S
C267 H266 0.961 . S
C267 H268 0.960 . S
H268 C267 0.960 . S
H269 N249 0.862 . S
O270 Co238 1.920 . S
O270 C243 1.289 . S
C271 O263 1.258 . S
C271 O264 1.266 . S
Co272 O275 1.970 . S
Co272 N289 1.989 1_565 S
Co272 O297 1.967 . S
Co272 O304 1.920 . S
Co273 O276 1.966 . S
Co273 N282 2.022 . S
Co273 N290 1.993 1_565 S
Co273 O298 1.941 . S
C274 O275 1.258 . S
C274 O276 1.263 . S
O275 Co272 1.970 . S
O275 C274 1.258 . S
O276 Co273 1.966 . S
O276 C274 1.263 . S
C277 O278 1.235 . S
C277 O304 1.289 1_545 S
O278 C277 1.235 . S
C279 C281 1.400 . S
C279 N282 1.351 . S
C279 C284 1.501 1_565 S
C280 C281 1.387 . S
C280 N283 1.341 . S
C281 C279 1.400 . S
C281 C280 1.387 . S
N282 Co273 2.022 . S
N282 C279 1.351 . S
N282 N283 1.365 . S
N283 C280 1.341 . S
N283 N282 1.365 . S
N283 H303 0.862 . S
C284 C279 1.501 1_545 S
C284 H285 0.961 . S
C284 H286 0.961 . S
C284 H287 0.960 1_545 S
H285 C284 0.961 . S
H286 C284 0.961 . S
H287 C284 0.960 1_565 S
C288 N289 1.342 . S
C288 C292 1.401 . S
C288 C293 1.499 . S
N289 Co272 1.989 1_545 S
N289 C288 1.342 . S
N289 N290 1.388 . S
N290 Co273 1.993 1_545 S
N290 N289 1.388 . S
N290 C291 1.346 . S
C291 N290 1.346 . S
C291 C292 1.396 . S
C291 C301 1.510 . S
C292 C288 1.401 . S
C292 C291 1.396 . S
C293 C288 1.499 . S
C293 H294 0.959 . S
C293 H295 0.960 . S
C293 H296 0.961 . S
H294 C293 0.959 . S
H295 C293 0.960 . S
H296 C293 0.961 . S
O297 Co272 1.967 . S
O297 C305 1.258 . S
O298 Co273 1.941 . S
O298 C305 1.266 . S
H299 C301 0.959 . S
H300 C301 0.961 . S
C301 C291 1.510 . S
C301 H299 0.959 . S
C301 H300 0.961 . S
C301 H302 0.960 . S
H302 C301 0.960 . S
H303 N283 0.862 . S
O304 Co272 1.920 . S
O304 C277 1.289 1_565 S
C305 O297 1.258 . S
C305 O298 1.266 . S
Co306 O309 1.970 . S
Co306 N323 1.989 . S
Co306 O331 1.967 . S
Co306 O338 1.920 . S
Co307 O310 1.966 . S
Co307 N316 2.022 . S
Co307 N324 1.993 . S
Co307 O332 1.941 . S
C308 O309 1.258 . S
C308 O310 1.263 . S
O309 Co306 1.970 . S
O309 C308 1.258 . S
O310 Co307 1.966 . S
O310 C308 1.263 . S
C311 O312 1.235 . S
C311 O338 1.289 . S
O312 C311 1.235 . S
C313 C315 1.400 . S
C313 N316 1.351 . S
C313 C318 1.501 . S
C314 C315 1.387 . S
C314 N317 1.341 . S
C315 C313 1.400 . S
C315 C314 1.387 . S
N316 Co307 2.022 . S
N316 C313 1.351 . S
N316 N317 1.365 . S
N317 C314 1.341 . S
N317 N316 1.365 . S
N317 H337 0.862 . S
C318 C313 1.501 . S
C318 H319 0.961 . S
C318 H320 0.961 . S
C318 H321 0.960 . S
H319 C318 0.961 . S
H320 C318 0.961 . S
H321 C318 0.960 . S
C322 N323 1.342 . S
C322 C326 1.401 . S
C322 C327 1.499 . S
N323 Co306 1.989 . S
N323 C322 1.342 . S
N323 N324 1.388 . S
N324 Co307 1.993 . S
N324 N323 1.388 . S
N324 C325 1.346 . S
C325 N324 1.346 . S
C325 C326 1.396 . S
C325 C335 1.510 . S
C326 C322 1.401 . S
C326 C325 1.396 . S
C327 C322 1.499 . S
C327 H328 0.959 . S
C327 H329 0.960 . S
C327 H330 0.961 . S
H328 C327 0.959 . S
H329 C327 0.960 . S
H330 C327 0.961 . S
O331 Co306 1.967 . S
O331 C339 1.258 . S
O332 Co307 1.941 . S
O332 C339 1.266 . S
H333 C335 0.959 . S
H334 C335 0.961 . S
C335 C325 1.510 . S
C335 H333 0.959 . S
C335 H334 0.961 . S
C335 H336 0.960 . S
H336 C335 0.960 . S
H337 N317 0.862 . S
O338 Co306 1.920 . S
O338 C311 1.289 . S
C339 O331 1.258 . S
C339 O332 1.266 . S
Co340 O343 1.970 1_455 S
Co340 N357 1.989 1_445 S
Co340 O365 1.967 1_455 S
Co340 O372 1.920 . S
Co341 O344 1.966 . S
Co341 N350 2.022 . S
Co341 N358 1.993 1_545 S
Co341 O366 1.941 . S
C342 O343 1.258 . S
C342 O344 1.263 . S
O343 Co340 1.970 1_655 S
O343 C342 1.258 . S
O344 Co341 1.966 . S
O344 C342 1.263 . S
C345 O346 1.235 . S
C345 O372 1.289 1_565 S
O346 C345 1.235 . S
C347 C349 1.400 . S
C347 N350 1.351 . S
C347 C352 1.501 1_545 S
C348 C349 1.387 . S
C348 N351 1.341 . S
C349 C347 1.400 . S
C349 C348 1.387 . S
N350 Co341 2.022 . S
N350 C347 1.351 . S
N350 N351 1.365 . S
N351 C348 1.341 . S
N351 N350 1.365 . S
N351 H371 0.862 . S
C352 C347 1.501 1_565 S
C352 H353 0.961 . S
C352 H354 0.961 . S
C352 H355 0.960 1_565 S
H353 C352 0.961 . S
H354 C352 0.961 . S
H355 C352 0.960 1_545 S
C356 N357 1.342 . S
C356 C360 1.401 . S
C356 C361 1.499 1_655 S
N357 Co340 1.989 1_665 S
N357 C356 1.342 . S
N357 N358 1.388 . S
N358 Co341 1.993 1_565 S
N358 N357 1.388 . S
N358 C359 1.346 . S
C359 N358 1.346 . S
C359 C360 1.396 . S
C359 C369 1.510 . S
C360 C356 1.401 . S
C360 C359 1.396 . S
C361 C356 1.499 1_455 S
C361 H362 0.959 . S
C361 H363 0.960 . S
C361 H364 0.961 . S
H362 C361 0.959 . S
H363 C361 0.960 . S
H364 C361 0.961 . S
O365 Co340 1.967 1_655 S
O365 C373 1.258 . S
O366 Co341 1.941 . S
O366 C373 1.266 . S
H367 C369 0.959 . S
H368 C369 0.961 . S
C369 C359 1.510 . S
C369 H367 0.959 . S
C369 H368 0.961 . S
C369 H370 0.960 . S
H370 C369 0.960 . S
H371 N351 0.862 . S
O372 Co340 1.920 . S
O372 C345 1.289 1_545 S
C373 O365 1.258 . S
C373 O366 1.266 . S
Co374 O377 1.970 . S
Co374 N391 1.989 . S
Co374 O399 1.967 . S
Co374 O406 1.920 . S
Co375 O378 1.966 . S
Co375 N384 2.022 . S
Co375 N392 1.993 . S
Co375 O400 1.941 . S
C376 O377 1.258 . S
C376 O378 1.263 . S
O377 Co374 1.970 . S
O377 C376 1.258 . S
O378 Co375 1.966 . S
O378 C376 1.263 . S
C379 O380 1.235 . S
C379 O406 1.289 . S
O380 C379 1.235 . S
C381 C383 1.400 . S
C381 N384 1.351 . S
C381 C386 1.501 . S
C382 C383 1.387 . S
C382 N385 1.341 . S
C383 C381 1.400 . S
C383 C382 1.387 . S
N384 Co375 2.022 . S
N384 C381 1.351 . S
N384 N385 1.365 . S
N385 C382 1.341 . S
N385 N384 1.365 . S
N385 H405 0.862 . S
C386 C381 1.501 . S
C386 H387 0.961 . S
C386 H388 0.961 . S
C386 H389 0.960 . S
H387 C386 0.961 . S
H388 C386 0.961 . S
H389 C386 0.960 . S
C390 N391 1.342 . S
C390 C394 1.401 . S
C390 C395 1.499 . S
N391 Co374 1.989 . S
N391 C390 1.342 . S
N391 N392 1.388 . S
N392 Co375 1.993 . S
N392 N391 1.388 . S
N392 C393 1.346 . S
C393 N392 1.346 . S
C393 C394 1.396 . S
C393 C403 1.510 . S
C394 C390 1.401 . S
C394 C393 1.396 . S
C395 C390 1.499 . S
C395 H396 0.959 . S
C395 H397 0.960 . S
C395 H398 0.961 . S
H396 C395 0.959 . S
H397 C395 0.960 . S
H398 C395 0.961 . S
O399 Co374 1.967 . S
O399 C407 1.258 . S
O400 Co375 1.941 . S
O400 C407 1.266 . S
H401 C403 0.959 . S
H402 C403 0.961 . S
C403 C393 1.510 . S
C403 H401 0.959 . S
C403 H402 0.961 . S
C403 H404 0.960 . S
H404 C403 0.960 . S
H405 N385 0.862 . S
O406 Co374 1.920 . S
O406 C379 1.289 . S
C407 O399 1.258 . S
C407 O400 1.266 . S
Co408 O411 1.970 . S
Co408 N425 1.989 1_545 S
Co408 O433 1.967 . S
Co408 O440 1.920 . S
Co409 O412 1.966 . S
Co409 N418 2.022 . S
Co409 N426 1.993 1_545 S
Co409 O434 1.941 . S
C410 O411 1.258 . S
C410 O412 1.263 . S
O411 Co408 1.970 . S
O411 C410 1.258 . S
O412 Co409 1.966 . S
O412 C410 1.263 . S
C413 O414 1.235 . S
C413 O440 1.289 1_565 S
O414 C413 1.235 . S
C415 C417 1.400 . S
C415 N418 1.351 . S
C415 C420 1.501 1_545 S
C416 C417 1.387 . S
C416 N419 1.341 . S
C417 C415 1.400 . S
C417 C416 1.387 . S
N418 Co409 2.022 . S
N418 C415 1.351 . S
N418 N419 1.365 . S
N419 C416 1.341 . S
N419 N418 1.365 . S
N419 H439 0.862 . S
C420 C415 1.501 1_565 S
C420 H421 0.961 . S
C420 H422 0.961 . S
C420 H423 0.960 1_565 S
H421 C420 0.961 . S
H422 C420 0.961 . S
H423 C420 0.960 1_545 S
C424 N425 1.342 . S
C424 C428 1.401 . S
C424 C429 1.499 . S
N425 Co408 1.989 1_565 S
N425 C424 1.342 . S
N425 N426 1.388 . S
N426 Co409 1.993 1_565 S
N426 N425 1.388 . S
N426 C427 1.346 . S
C427 N426 1.346 . S
C427 C428 1.396 . S
C427 C437 1.510 . S
C428 C424 1.401 . S
C428 C427 1.396 . S
C429 C424 1.499 . S
C429 H430 0.959 . S
C429 H431 0.960 . S
C429 H432 0.961 . S
H430 C429 0.959 . S
H431 C429 0.960 . S
H432 C429 0.961 . S
O433 Co408 1.967 . S
O433 C441 1.258 . S
O434 Co409 1.941 . S
O434 C441 1.266 . S
H435 C437 0.959 . S
H436 C437 0.961 . S
C437 C427 1.510 . S
C437 H435 0.959 . S
C437 H436 0.961 . S
C437 H438 0.960 . S
H438 C437 0.960 . S
H439 N419 0.862 . S
O440 Co408 1.920 . S
O440 C413 1.289 1_545 S
C441 O433 1.258 . S
C441 O434 1.266 . S
Co442 O445 1.970 . S
Co442 N459 1.989 . S
Co442 O467 1.967 . S
Co442 O474 1.920 . S
Co443 O446 1.966 . S
Co443 N452 2.022 . S
Co443 N460 1.993 . S
Co443 O468 1.941 . S
C444 O445 1.258 . S
C444 O446 1.263 . S
O445 Co442 1.970 . S
O445 C444 1.258 . S
O446 Co443 1.966 . S
O446 C444 1.263 . S
C447 O448 1.235 . S
C447 O474 1.289 . S
O448 C447 1.235 . S
C449 C451 1.400 . S
C449 N452 1.351 . S
C449 C454 1.501 . S
C450 C451 1.387 . S
C450 N453 1.341 . S
C451 C449 1.400 . S
C451 C450 1.387 . S
N452 Co443 2.022 . S
N452 C449 1.351 . S
N452 N453 1.365 . S
N453 C450 1.341 . S
N453 N452 1.365 . S
N453 H473 0.862 . S
C454 C449 1.501 . S
C454 H455 0.961 . S
C454 H456 0.961 . S
C454 H457 0.960 . S
H455 C454 0.961 . S
H456 C454 0.961 . S
H457 C454 0.960 . S
C458 N459 1.342 . S
C458 C462 1.401 . S
C458 C463 1.499 . S
N459 Co442 1.989 . S
N459 C458 1.342 . S
N459 N460 1.388 . S
N460 Co443 1.993 . S
N460 N459 1.388 . S
N460 C461 1.346 . S
C461 N460 1.346 . S
C461 C462 1.396 . S
C461 C471 1.510 . S
C462 C458 1.401 . S
C462 C461 1.396 . S
C463 C458 1.499 . S
C463 H464 0.959 . S
C463 H465 0.960 . S
C463 H466 0.961 . S
H464 C463 0.959 . S
H465 C463 0.960 . S
H466 C463 0.961 . S
O467 Co442 1.967 . S
O467 C475 1.258 . S
O468 Co443 1.941 . S
O468 C475 1.266 . S
H469 C471 0.959 . S
H470 C471 0.961 . S
C471 C461 1.510 . S
C471 H469 0.959 . S
C471 H470 0.961 . S
C471 H472 0.960 . S
H472 C471 0.960 . S
H473 N453 0.862 . S
O474 Co442 1.920 . S
O474 C447 1.289 . S
C475 O467 1.258 . S
C475 O468 1.266 . S
Co476 O479 1.970 1_455 S
Co476 N493 1.989 1_465 S
Co476 O501 1.967 1_455 S
Co476 O508 1.920 . S
Co477 O480 1.966 . S
Co477 N486 2.022 . S
Co477 N494 1.993 1_565 S
Co477 O502 1.941 . S
C478 O479 1.258 . S
C478 O480 1.263 . S
O479 Co476 1.970 1_655 S
O479 C478 1.258 . S
O480 Co477 1.966 . S
O480 C478 1.263 . S
C481 O482 1.235 . S
C481 O508 1.289 1_545 S
O482 C481 1.235 . S
C483 C485 1.400 . S
C483 N486 1.351 . S
C483 C488 1.501 1_565 S
C484 C485 1.387 . S
C484 N487 1.341 . S
C485 C483 1.400 . S
C485 C484 1.387 . S
N486 Co477 2.022 . S
N486 C483 1.351 . S
N486 N487 1.365 . S
N487 C484 1.341 . S
N487 N486 1.365 . S
N487 H507 0.862 . S
C488 C483 1.501 1_545 S
C488 H489 0.961 . S
C488 H490 0.961 . S
C488 H491 0.960 1_545 S
H489 C488 0.961 . S
H490 C488 0.961 . S
H491 C488 0.960 1_565 S
C492 N493 1.342 . S
C492 C496 1.401 . S
C492 C497 1.499 1_655 S
N493 Co476 1.989 1_645 S
N493 C492 1.342 . S
N493 N494 1.388 . S
N494 Co477 1.993 1_545 S
N494 N493 1.388 . S
N494 C495 1.346 . S
C495 N494 1.346 . S
C495 C496 1.396 . S
C495 C505 1.510 . S
C496 C492 1.401 . S
C496 C495 1.396 . S
C497 C492 1.499 1_455 S
C497 H498 0.959 . S
C497 H499 0.960 . S
C497 H500 0.961 . S
H498 C497 0.959 . S
H499 C497 0.960 . S
H500 C497 0.961 . S
O501 Co476 1.967 1_655 S
O501 C509 1.258 . S
O502 Co477 1.941 . S
O502 C509 1.266 . S
H503 C505 0.959 . S
H504 C505 0.961 . S
C505 C495 1.510 . S
C505 H503 0.959 . S
C505 H504 0.961 . S
C505 H506 0.960 . S
H506 C505 0.960 . S
H507 N487 0.862 . S
O508 Co476 1.920 . S
O508 C481 1.289 1_565 S
C509 O501 1.258 . S
C509 O502 1.266 . S
Co510 O513 1.970 . S
Co510 N527 1.989 . S
Co510 O535 1.967 . S
Co510 O542 1.920 . S
Co511 O514 1.966 . S
Co511 N520 2.022 . S
Co511 N528 1.993 . S
Co511 O536 1.941 . S
C512 O513 1.258 . S
C512 O514 1.263 . S
O513 Co510 1.970 . S
O513 C512 1.258 . S
O514 Co511 1.966 . S
O514 C512 1.263 . S
C515 O516 1.235 . S
C515 O542 1.289 . S
O516 C515 1.235 . S
C517 C519 1.400 . S
C517 N520 1.351 . S
C517 C522 1.501 . S
C518 C519 1.387 . S
C518 N521 1.341 . S
C519 C517 1.400 . S
C519 C518 1.387 . S
N520 Co511 2.022 . S
N520 C517 1.351 . S
N520 N521 1.365 . S
N521 C518 1.341 . S
N521 N520 1.365 . S
N521 H541 0.862 . S
C522 C517 1.501 . S
C522 H523 0.961 . S
C522 H524 0.961 . S
C522 H525 0.960 . S
H523 C522 0.961 . S
H524 C522 0.961 . S
H525 C522 0.960 . S
C526 N527 1.342 . S
C526 C530 1.401 . S
C526 C531 1.499 . S
N527 Co510 1.989 . S
N527 C526 1.342 . S
N527 N528 1.388 . S
N528 Co511 1.993 . S
N528 N527 1.388 . S
N528 C529 1.346 . S
C529 N528 1.346 . S
C529 C530 1.396 . S
C529 C539 1.510 . S
C530 C526 1.401 . S
C530 C529 1.396 . S
C531 C526 1.499 . S
C531 H532 0.959 . S
C531 H533 0.960 . S
C531 H534 0.961 . S
H532 C531 0.959 . S
H533 C531 0.960 . S
H534 C531 0.961 . S
O535 Co510 1.967 . S
O535 C543 1.258 . S
O536 Co511 1.941 . S
O536 C543 1.266 . S
H537 C539 0.959 . S
H538 C539 0.961 . S
C539 C529 1.510 . S
C539 H537 0.959 . S
C539 H538 0.961 . S
C539 H540 0.960 . S
H540 C539 0.960 . S
H541 N521 0.862 . S
O542 Co510 1.920 . S
O542 C515 1.289 . S
C543 O535 1.258 . S
C543 O536 1.266 . S
Co544 O547 1.970 1_455 S
Co544 N561 1.989 1_455 S
Co544 O569 1.967 1_455 S
Co544 O576 1.920 . S
Co545 O548 1.966 . S
Co545 N554 2.022 . S
Co545 N562 1.993 . S
Co545 O570 1.941 . S
C546 O547 1.258 . S
C546 O548 1.263 . S
O547 Co544 1.970 1_655 S
O547 C546 1.258 . S
O548 Co545 1.966 . S
O548 C546 1.263 . S
C549 O550 1.235 . S
C549 O576 1.289 . S
O550 C549 1.235 . S
C551 C553 1.400 . S
C551 N554 1.351 . S
C551 C556 1.501 . S
C552 C553 1.387 . S
C552 N555 1.341 . S
C553 C551 1.400 . S
C553 C552 1.387 . S
N554 Co545 2.022 . S
N554 C551 1.351 . S
N554 N555 1.365 . S
N555 C552 1.341 . S
N555 N554 1.365 . S
N555 H575 0.862 . S
C556 C551 1.501 . S
C556 H557 0.961 . S
C556 H558 0.961 . S
C556 H559 0.960 . S
H557 C556 0.961 . S
H558 C556 0.961 . S
H559 C556 0.960 . S
C560 N561 1.342 . S
C560 C564 1.401 . S
C560 C565 1.499 1_655 S
N561 Co544 1.989 1_655 S
N561 C560 1.342 . S
N561 N562 1.388 . S
N562 Co545 1.993 . S
N562 N561 1.388 . S
N562 C563 1.346 . S
C563 N562 1.346 . S
C563 C564 1.396 . S
C563 C573 1.510 . S
C564 C560 1.401 . S
C564 C563 1.396 . S
C565 C560 1.499 1_455 S
C565 H566 0.959 . S
C565 H567 0.960 . S
C565 H568 0.961 . S
H566 C565 0.959 . S
H567 C565 0.960 . S
H568 C565 0.961 . S
O569 Co544 1.967 1_655 S
O569 C577 1.258 . S
O570 Co545 1.941 . S
O570 C577 1.266 . S
H571 C573 0.959 . S
H572 C573 0.961 . S
C573 C563 1.510 . S
C573 H571 0.959 . S
C573 H572 0.961 . S
C573 H574 0.960 . S
H574 C573 0.960 . S
H575 N555 0.862 . S
O576 Co544 1.920 . S
O576 C549 1.289 . S
C577 O569 1.258 . S
C577 O570 1.266 . S
Co578 O581 1.970 . S
Co578 N595 1.989 . S
Co578 O603 1.967 . S
Co578 O610 1.920 . S
Co579 O582 1.966 . S
Co579 N588 2.022 . S
Co579 N596 1.993 . S
Co579 O604 1.941 . S
C580 O581 1.258 . S
C580 O582 1.263 . S
O581 Co578 1.970 . S
O581 C580 1.258 . S
O582 Co579 1.966 . S
O582 C580 1.263 . S
C583 O584 1.235 . S
C583 O610 1.289 . S
O584 C583 1.235 . S
C585 C587 1.400 . S
C585 N588 1.351 . S
C585 C590 1.501 . S
C586 C587 1.387 . S
C586 N589 1.341 . S
C587 C585 1.400 . S
C587 C586 1.387 . S
N588 Co579 2.022 . S
N588 C585 1.351 . S
N588 N589 1.365 . S
N589 C586 1.341 . S
N589 N588 1.365 . S
N589 H609 0.862 . S
C590 C585 1.501 . S
C590 H591 0.961 . S
C590 H592 0.961 . S
C590 H593 0.960 . S
H591 C590 0.961 . S
H592 C590 0.961 . S
H593 C590 0.960 . S
C594 N595 1.342 . S
C594 C598 1.401 . S
C594 C599 1.499 . S
N595 Co578 1.989 . S
N595 C594 1.342 . S
N595 N596 1.388 . S
N596 Co579 1.993 . S
N596 N595 1.388 . S
N596 C597 1.346 . S
C597 N596 1.346 . S
C597 C598 1.396 . S
C597 C607 1.510 . S
C598 C594 1.401 . S
C598 C597 1.396 . S
C599 C594 1.499 . S
C599 H600 0.959 . S
C599 H601 0.960 . S
C599 H602 0.961 . S
H600 C599 0.959 . S
H601 C599 0.960 . S
H602 C599 0.961 . S
O603 Co578 1.967 . S
O603 C611 1.258 . S
O604 Co579 1.941 . S
O604 C611 1.266 . S
H605 C607 0.959 . S
H606 C607 0.961 . S
C607 C597 1.510 . S
C607 H605 0.959 . S
C607 H606 0.961 . S
C607 H608 0.960 . S
H608 C607 0.960 . S
H609 N589 0.862 . S
O610 Co578 1.920 . S
O610 C583 1.289 . S
C611 O603 1.258 . S
C611 O604 1.266 . S
Co612 O615 1.970 . S
Co612 N629 1.989 . S
Co612 O637 1.967 . S
Co612 O644 1.920 . S
Co613 O616 1.966 . S
Co613 N622 2.022 . S
Co613 N630 1.993 . S
Co613 O638 1.941 . S
C614 O615 1.258 . S
C614 O616 1.263 . S
O615 Co612 1.970 . S
O615 C614 1.258 . S
O616 Co613 1.966 . S
O616 C614 1.263 . S
C617 O618 1.235 . S
C617 O644 1.289 . S
O618 C617 1.235 . S
C619 C621 1.400 . S
C619 N622 1.351 . S
C619 C624 1.501 . S
C620 C621 1.387 . S
C620 N623 1.341 . S
C621 C619 1.400 . S
C621 C620 1.387 . S
N622 Co613 2.022 . S
N622 C619 1.351 . S
N622 N623 1.365 . S
N623 C620 1.341 . S
N623 N622 1.365 . S
N623 H643 0.862 . S
C624 C619 1.501 . S
C624 H625 0.961 . S
C624 H626 0.961 . S
C624 H627 0.960 . S
H625 C624 0.961 . S
H626 C624 0.961 . S
H627 C624 0.960 . S
C628 N629 1.342 . S
C628 C632 1.401 . S
C628 C633 1.499 . S
N629 Co612 1.989 . S
N629 C628 1.342 . S
N629 N630 1.388 . S
N630 Co613 1.993 . S
N630 N629 1.388 . S
N630 C631 1.346 . S
C631 N630 1.346 . S
C631 C632 1.396 . S
C631 C641 1.510 . S
C632 C628 1.401 . S
C632 C631 1.396 . S
C633 C628 1.499 . S
C633 H634 0.959 . S
C633 H635 0.960 . S
C633 H636 0.961 . S
H634 C633 0.959 . S
H635 C633 0.960 . S
H636 C633 0.961 . S
O637 Co612 1.967 . S
O637 C645 1.258 . S
O638 Co613 1.941 . S
O638 C645 1.266 . S
H639 C641 0.959 . S
H640 C641 0.961 . S
C641 C631 1.510 . S
C641 H639 0.959 . S
C641 H640 0.961 . S
C641 H642 0.960 . S
H642 C641 0.960 . S
H643 N623 0.862 . S
O644 Co612 1.920 . S
O644 C617 1.289 . S
C645 O637 1.258 . S
C645 O638 1.266 . S
Co646 O649 1.970 . S
Co646 N663 1.989 . S
Co646 O671 1.967 . S
Co646 O678 1.920 . S
Co647 O650 1.966 . S
Co647 N656 2.022 . S
Co647 N664 1.993 . S
Co647 O672 1.941 . S
C648 O649 1.258 . S
C648 O650 1.263 . S
O649 Co646 1.970 . S
O649 C648 1.258 . S
O650 Co647 1.966 . S
O650 C648 1.263 . S
C651 O652 1.235 . S
C651 O678 1.289 . S
O652 C651 1.235 . S
C653 C655 1.400 . S
C653 N656 1.351 . S
C653 C658 1.501 . S
C654 C655 1.387 . S
C654 N657 1.341 . S
C655 C653 1.400 . S
C655 C654 1.387 . S
N656 Co647 2.022 . S
N656 C653 1.351 . S
N656 N657 1.365 . S
N657 C654 1.341 . S
N657 N656 1.365 . S
N657 H677 0.862 . S
C658 C653 1.501 . S
C658 H659 0.961 . S
C658 H660 0.961 . S
C658 H661 0.960 . S
H659 C658 0.961 . S
H660 C658 0.961 . S
H661 C658 0.960 . S
C662 N663 1.342 . S
C662 C666 1.401 . S
C662 C667 1.499 . S
N663 Co646 1.989 . S
N663 C662 1.342 . S
N663 N664 1.388 . S
N664 Co647 1.993 . S
N664 N663 1.388 . S
N664 C665 1.346 . S
C665 N664 1.346 . S
C665 C666 1.396 . S
C665 C675 1.510 . S
C666 C662 1.401 . S
C666 C665 1.396 . S
C667 C662 1.499 . S
C667 H668 0.959 . S
C667 H669 0.960 . S
C667 H670 0.961 . S
H668 C667 0.959 . S
H669 C667 0.960 . S
H670 C667 0.961 . S
O671 Co646 1.967 . S
O671 C679 1.258 . S
O672 Co647 1.941 . S
O672 C679 1.266 . S
H673 C675 0.959 . S
H674 C675 0.961 . S
C675 C665 1.510 . S
C675 H673 0.959 . S
C675 H674 0.961 . S
C675 H676 0.960 . S
H676 C675 0.960 . S
H677 N657 0.862 . S
O678 Co646 1.920 . S
O678 C651 1.289 . S
C679 O671 1.258 . S
C679 O672 1.266 . S
Co680 O683 1.970 1_455 S
Co680 N697 1.989 1_455 S
Co680 O705 1.967 1_455 S
Co680 O712 1.920 . S
Co681 O684 1.966 . S
Co681 N690 2.022 . S
Co681 N698 1.993 . S
Co681 O706 1.941 . S
C682 O683 1.258 . S
C682 O684 1.263 . S
O683 Co680 1.970 1_655 S
O683 C682 1.258 . S
O684 Co681 1.966 . S
O684 C682 1.263 . S
C685 O686 1.235 . S
C685 O712 1.289 . S
O686 C685 1.235 . S
C687 C689 1.400 . S
C687 N690 1.351 . S
C687 C692 1.501 . S
C688 C689 1.387 . S
C688 N691 1.341 . S
C689 C687 1.400 . S
C689 C688 1.387 . S
N690 Co681 2.022 . S
N690 C687 1.351 . S
N690 N691 1.365 . S
N691 C688 1.341 . S
N691 N690 1.365 . S
N691 H711 0.862 . S
C692 C687 1.501 . S
C692 H693 0.961 . S
C692 H694 0.961 . S
C692 H695 0.960 . S
H693 C692 0.961 . S
H694 C692 0.961 . S
H695 C692 0.960 . S
C696 N697 1.342 . S
C696 C700 1.401 . S
C696 C701 1.499 1_655 S
N697 Co680 1.989 1_655 S
N697 C696 1.342 . S
N697 N698 1.388 . S
N698 Co681 1.993 . S
N698 N697 1.388 . S
N698 C699 1.346 . S
C699 N698 1.346 . S
C699 C700 1.396 . S
C699 C709 1.510 . S
C700 C696 1.401 . S
C700 C699 1.396 . S
C701 C696 1.499 1_455 S
C701 H702 0.959 . S
C701 H703 0.960 . S
C701 H704 0.961 . S
H702 C701 0.959 . S
H703 C701 0.960 . S
H704 C701 0.961 . S
O705 Co680 1.967 1_655 S
O705 C713 1.258 . S
O706 Co681 1.941 . S
O706 C713 1.266 . S
H707 C709 0.959 . S
H708 C709 0.961 . S
C709 C699 1.510 . S
C709 H707 0.959 . S
C709 H708 0.961 . S
C709 H710 0.960 . S
H710 C709 0.960 . S
H711 N691 0.862 . S
O712 Co680 1.920 . S
O712 C685 1.289 . S
C713 O705 1.258 . S
C713 O706 1.266 . S
Co714 O717 1.970 . S
Co714 N731 1.989 . S
Co714 O739 1.967 . S
Co714 O746 1.920 . S
Co715 O718 1.966 . S
Co715 N724 2.022 . S
Co715 N732 1.993 . S
Co715 O740 1.941 . S
C716 O717 1.258 . S
C716 O718 1.263 . S
O717 Co714 1.970 . S
O717 C716 1.258 . S
O718 Co715 1.966 . S
O718 C716 1.263 . S
C719 O720 1.235 . S
C719 O746 1.289 . S
O720 C719 1.235 . S
C721 C723 1.400 . S
C721 N724 1.351 . S
C721 C726 1.501 . S
C722 C723 1.387 . S
C722 N725 1.341 . S
C723 C721 1.400 . S
C723 C722 1.387 . S
N724 Co715 2.022 . S
N724 C721 1.351 . S
N724 N725 1.365 . S
N725 C722 1.341 . S
N725 N724 1.365 . S
N725 H745 0.862 . S
C726 C721 1.501 . S
C726 H727 0.961 . S
C726 H728 0.961 . S
C726 H729 0.960 . S
H727 C726 0.961 . S
H728 C726 0.961 . S
H729 C726 0.960 . S
C730 N731 1.342 . S
C730 C734 1.401 . S
C730 C735 1.499 . S
N731 Co714 1.989 . S
N731 C730 1.342 . S
N731 N732 1.388 . S
N732 Co715 1.993 . S
N732 N731 1.388 . S
N732 C733 1.346 . S
C733 N732 1.346 . S
C733 C734 1.396 . S
C733 C743 1.510 . S
C734 C730 1.401 . S
C734 C733 1.396 . S
C735 C730 1.499 . S
C735 H736 0.959 . S
C735 H737 0.960 . S
C735 H738 0.961 . S
H736 C735 0.959 . S
H737 C735 0.960 . S
H738 C735 0.961 . S
O739 Co714 1.967 . S
O739 C747 1.258 . S
O740 Co715 1.941 . S
O740 C747 1.266 . S
H741 C743 0.959 . S
H742 C743 0.961 . S
C743 C733 1.510 . S
C743 H741 0.959 . S
C743 H742 0.961 . S
C743 H744 0.960 . S
H744 C743 0.960 . S
H745 N725 0.862 . S
O746 Co714 1.920 . S
O746 C719 1.289 . S
C747 O739 1.258 . S
C747 O740 1.266 . S
Co748 O751 1.970 . S
Co748 N765 1.989 . S
Co748 O773 1.967 . S
Co748 O780 1.920 . S
Co749 O752 1.966 . S
Co749 N758 2.022 . S
Co749 N766 1.993 . S
Co749 O774 1.941 . S
C750 O751 1.258 . S
C750 O752 1.263 . S
O751 Co748 1.970 . S
O751 C750 1.258 . S
O752 Co749 1.966 . S
O752 C750 1.263 . S
C753 O754 1.235 . S
C753 O780 1.289 . S
O754 C753 1.235 . S
C755 C757 1.400 . S
C755 N758 1.351 . S
C755 C760 1.501 . S
C756 C757 1.387 . S
C756 N759 1.341 . S
C757 C755 1.400 . S
C757 C756 1.387 . S
N758 Co749 2.022 . S
N758 C755 1.351 . S
N758 N759 1.365 . S
N759 C756 1.341 . S
N759 N758 1.365 . S
N759 H779 0.862 . S
C760 C755 1.501 . S
C760 H761 0.961 . S
C760 H762 0.961 . S
C760 H763 0.960 . S
H761 C760 0.961 . S
H762 C760 0.961 . S
H763 C760 0.960 . S
C764 N765 1.342 . S
C764 C768 1.401 . S
C764 C769 1.499 . S
N765 Co748 1.989 . S
N765 C764 1.342 . S
N765 N766 1.388 . S
N766 Co749 1.993 . S
N766 N765 1.388 . S
N766 C767 1.346 . S
C767 N766 1.346 . S
C767 C768 1.396 . S
C767 C777 1.510 . S
C768 C764 1.401 . S
C768 C767 1.396 . S
C769 C764 1.499 . S
C769 H770 0.959 . S
C769 H771 0.960 . S
C769 H772 0.961 . S
H770 C769 0.959 . S
H771 C769 0.960 . S
H772 C769 0.961 . S
O773 Co748 1.967 . S
O773 C781 1.258 . S
O774 Co749 1.941 . S
O774 C781 1.266 . S
H775 C777 0.959 . S
H776 C777 0.961 . S
C777 C767 1.510 . S
C777 H775 0.959 . S
C777 H776 0.961 . S
C777 H778 0.960 . S
H778 C777 0.960 . S
H779 N759 0.862 . S
O780 Co748 1.920 . S
O780 C753 1.289 . S
C781 O773 1.258 . S
C781 O774 1.266 . S
Co782 O785 1.970 . S
Co782 N799 1.989 . S
Co782 O807 1.967 . S
Co782 O814 1.920 . S
Co783 O786 1.966 . S
Co783 N792 2.022 . S
Co783 N800 1.993 . S
Co783 O808 1.941 . S
C784 O785 1.258 . S
C784 O786 1.263 . S
O785 Co782 1.970 . S
O785 C784 1.258 . S
O786 Co783 1.966 . S
O786 C784 1.263 . S
C787 O788 1.235 . S
C787 O814 1.289 . S
O788 C787 1.235 . S
C789 C791 1.400 . S
C789 N792 1.351 . S
C789 C794 1.501 . S
C790 C791 1.387 . S
C790 N793 1.341 . S
C791 C789 1.400 . S
C791 C790 1.387 . S
N792 Co783 2.022 . S
N792 C789 1.351 . S
N792 N793 1.365 . S
N793 C790 1.341 . S
N793 N792 1.365 . S
N793 H813 0.862 . S
C794 C789 1.501 . S
C794 H795 0.961 . S
C794 H796 0.961 . S
C794 H797 0.960 . S
H795 C794 0.961 . S
H796 C794 0.961 . S
H797 C794 0.960 . S
C798 N799 1.342 . S
C798 C802 1.401 . S
C798 C803 1.499 . S
N799 Co782 1.989 . S
N799 C798 1.342 . S
N799 N800 1.388 . S
N800 Co783 1.993 . S
N800 N799 1.388 . S
N800 C801 1.346 . S
C801 N800 1.346 . S
C801 C802 1.396 . S
C801 C811 1.510 . S
C802 C798 1.401 . S
C802 C801 1.396 . S
C803 C798 1.499 . S
C803 H804 0.959 . S
C803 H805 0.960 . S
C803 H806 0.961 . S
H804 C803 0.959 . S
H805 C803 0.960 . S
H806 C803 0.961 . S
O807 Co782 1.967 . S
O807 C815 1.258 . S
O808 Co783 1.941 . S
O808 C815 1.266 . S
H809 C811 0.959 . S
H810 C811 0.961 . S
C811 C801 1.510 . S
C811 H809 0.959 . S
C811 H810 0.961 . S
C811 H812 0.960 . S
H812 C811 0.960 . S
H813 N793 0.862 . S
O814 Co782 1.920 . S
O814 C787 1.289 . S
C815 O807 1.258 . S
C815 O808 1.266 . S
Co816 O819 1.970 1_655 S
Co816 N833 1.989 1_655 S
Co816 O841 1.967 1_655 S
Co816 O848 1.920 . S
Co817 O820 1.966 . S
Co817 N826 2.022 . S
Co817 N834 1.993 . S
Co817 O842 1.941 . S
C818 O819 1.258 . S
C818 O820 1.263 . S
O819 Co816 1.970 1_455 S
O819 C818 1.258 . S
O820 Co817 1.966 . S
O820 C818 1.263 . S
C821 O822 1.235 . S
C821 O848 1.289 . S
O822 C821 1.235 . S
C823 C825 1.400 . S
C823 N826 1.351 . S
C823 C828 1.501 . S
C824 C825 1.387 . S
C824 N827 1.341 . S
C825 C823 1.400 . S
C825 C824 1.387 . S
N826 Co817 2.022 . S
N826 C823 1.351 . S
N826 N827 1.365 . S
N827 C824 1.341 . S
N827 N826 1.365 . S
N827 H847 0.862 . S
C828 C823 1.501 . S
C828 H829 0.961 . S
C828 H830 0.961 . S
C828 H831 0.960 . S
H829 C828 0.961 . S
H830 C828 0.961 . S
H831 C828 0.960 . S
C832 N833 1.342 . S
C832 C836 1.401 . S
C832 C837 1.499 1_455 S
N833 Co816 1.989 1_455 S
N833 C832 1.342 . S
N833 N834 1.388 . S
N834 Co817 1.993 . S
N834 N833 1.388 . S
N834 C835 1.346 . S
C835 N834 1.346 . S
C835 C836 1.396 . S
C835 C845 1.510 . S
C836 C832 1.401 . S
C836 C835 1.396 . S
C837 C832 1.499 1_655 S
C837 H838 0.959 . S
C837 H839 0.960 . S
C837 H840 0.961 . S
H838 C837 0.959 . S
H839 C837 0.960 . S
H840 C837 0.961 . S
O841 Co816 1.967 1_455 S
O841 C849 1.258 . S
O842 Co817 1.941 . S
O842 C849 1.266 . S
H843 C845 0.959 . S
H844 C845 0.961 . S
C845 C835 1.510 . S
C845 H843 0.959 . S
C845 H844 0.961 . S
C845 H846 0.960 . S
H846 C845 0.960 . S
H847 N827 0.862 . S
O848 Co816 1.920 . S
O848 C821 1.289 . S
C849 O841 1.258 . S
C849 O842 1.266 . S
Co850 O853 1.970 . S
Co850 N867 1.989 . S
Co850 O875 1.967 . S
Co850 O882 1.920 . S
Co851 O854 1.966 . S
Co851 N860 2.022 . S
Co851 N868 1.993 . S
Co851 O876 1.941 . S
C852 O853 1.258 . S
C852 O854 1.263 . S
O853 Co850 1.970 . S
O853 C852 1.258 . S
O854 Co851 1.966 . S
O854 C852 1.263 . S
C855 O856 1.235 . S
C855 O882 1.289 . S
O856 C855 1.235 . S
C857 C859 1.400 . S
C857 N860 1.351 . S
C857 C862 1.501 . S
C858 C859 1.387 . S
C858 N861 1.341 . S
C859 C857 1.400 . S
C859 C858 1.387 . S
N860 Co851 2.022 . S
N860 C857 1.351 . S
N860 N861 1.365 . S
N861 C858 1.341 . S
N861 N860 1.365 . S
N861 H881 0.862 . S
C862 C857 1.501 . S
C862 H863 0.961 . S
C862 H864 0.961 . S
C862 H865 0.960 . S
H863 C862 0.961 . S
H864 C862 0.961 . S
H865 C862 0.960 . S
C866 N867 1.342 . S
C866 C870 1.401 . S
C866 C871 1.499 . S
N867 Co850 1.989 . S
N867 C866 1.342 . S
N867 N868 1.388 . S
N868 Co851 1.993 . S
N868 N867 1.388 . S
N868 C869 1.346 . S
C869 N868 1.346 . S
C869 C870 1.396 . S
C869 C879 1.510 . S
C870 C866 1.401 . S
C870 C869 1.396 . S
C871 C866 1.499 . S
C871 H872 0.959 . S
C871 H873 0.960 . S
C871 H874 0.961 . S
H872 C871 0.959 . S
H873 C871 0.960 . S
H874 C871 0.961 . S
O875 Co850 1.967 . S
O875 C883 1.258 . S
O876 Co851 1.941 . S
O876 C883 1.266 . S
H877 C879 0.959 . S
H878 C879 0.961 . S
C879 C869 1.510 . S
C879 H877 0.959 . S
C879 H878 0.961 . S
C879 H880 0.960 . S
H880 C879 0.960 . S
H881 N861 0.862 . S
O882 Co850 1.920 . S
O882 C855 1.289 . S
C883 O875 1.258 . S
C883 O876 1.266 . S
Co884 O887 1.970 . S
Co884 N901 1.989 . S
Co884 O909 1.967 . S
Co884 O916 1.920 . S
Co885 O888 1.966 . S
Co885 N894 2.022 . S
Co885 N902 1.993 . S
Co885 O910 1.941 . S
C886 O887 1.258 . S
C886 O888 1.263 . S
O887 Co884 1.970 . S
O887 C886 1.258 . S
O888 Co885 1.966 . S
O888 C886 1.263 . S
C889 O890 1.235 . S
C889 O916 1.289 . S
O890 C889 1.235 . S
C891 C893 1.400 . S
C891 N894 1.351 . S
C891 C896 1.501 . S
C892 C893 1.387 . S
C892 N895 1.341 . S
C893 C891 1.400 . S
C893 C892 1.387 . S
N894 Co885 2.022 . S
N894 C891 1.351 . S
N894 N895 1.365 . S
N895 C892 1.341 . S
N895 N894 1.365 . S
N895 H915 0.862 . S
C896 C891 1.501 . S
C896 H897 0.961 . S
C896 H898 0.961 . S
C896 H899 0.960 . S
H897 C896 0.961 . S
H898 C896 0.961 . S
H899 C896 0.960 . S
C900 N901 1.342 . S
C900 C904 1.401 . S
C900 C905 1.499 . S
N901 Co884 1.989 . S
N901 C900 1.342 . S
N901 N902 1.388 . S
N902 Co885 1.993 . S
N902 N901 1.388 . S
N902 C903 1.346 . S
C903 N902 1.346 . S
C903 C904 1.396 . S
C903 C913 1.510 . S
C904 C900 1.401 . S
C904 C903 1.396 . S
C905 C900 1.499 . S
C905 H906 0.959 . S
C905 H907 0.960 . S
C905 H908 0.961 . S
H906 C905 0.959 . S
H907 C905 0.960 . S
H908 C905 0.961 . S
O909 Co884 1.967 . S
O909 C917 1.258 . S
O910 Co885 1.941 . S
O910 C917 1.266 . S
H911 C913 0.959 . S
H912 C913 0.961 . S
C913 C903 1.510 . S
C913 H911 0.959 . S
C913 H912 0.961 . S
C913 H914 0.960 . S
H914 C913 0.960 . S
H915 N895 0.862 . S
O916 Co884 1.920 . S
O916 C889 1.289 . S
C917 O909 1.258 . S
C917 O910 1.266 . S
Co918 O921 1.970 . S
Co918 N935 1.989 . S
Co918 O943 1.967 . S
Co918 O950 1.920 . S
Co919 O922 1.966 . S
Co919 N928 2.022 . S
Co919 N936 1.993 . S
Co919 O944 1.941 . S
C920 O921 1.258 . S
C920 O922 1.263 . S
O921 Co918 1.970 . S
O921 C920 1.258 . S
O922 Co919 1.966 . S
O922 C920 1.263 . S
C923 O924 1.235 . S
C923 O950 1.289 . S
O924 C923 1.235 . S
C925 C927 1.400 . S
C925 N928 1.351 . S
C925 C930 1.501 . S
C926 C927 1.387 . S
C926 N929 1.341 . S
C927 C925 1.400 . S
C927 C926 1.387 . S
N928 Co919 2.022 . S
N928 C925 1.351 . S
N928 N929 1.365 . S
N929 C926 1.341 . S
N929 N928 1.365 . S
N929 H949 0.862 . S
C930 C925 1.501 . S
C930 H931 0.961 . S
C930 H932 0.961 . S
C930 H933 0.960 . S
H931 C930 0.961 . S
H932 C930 0.961 . S
H933 C930 0.960 . S
C934 N935 1.342 . S
C934 C938 1.401 . S
C934 C939 1.499 . S
N935 Co918 1.989 . S
N935 C934 1.342 . S
N935 N936 1.388 . S
N936 Co919 1.993 . S
N936 N935 1.388 . S
N936 C937 1.346 . S
C937 N936 1.346 . S
C937 C938 1.396 . S
C937 C947 1.510 . S
C938 C934 1.401 . S
C938 C937 1.396 . S
C939 C934 1.499 . S
C939 H940 0.959 . S
C939 H941 0.960 . S
C939 H942 0.961 . S
H940 C939 0.959 . S
H941 C939 0.960 . S
H942 C939 0.961 . S
O943 Co918 1.967 . S
O943 C951 1.258 . S
O944 Co919 1.941 . S
O944 C951 1.266 . S
H945 C947 0.959 . S
H946 C947 0.961 . S
C947 C937 1.510 . S
C947 H945 0.959 . S
C947 H946 0.961 . S
C947 H948 0.960 . S
H948 C947 0.960 . S
H949 N929 0.862 . S
O950 Co918 1.920 . S
O950 C923 1.289 . S
C951 O943 1.258 . S
C951 O944 1.266 . S
Co952 O955 1.970 1_655 S
Co952 N969 1.989 1_655 S
Co952 O977 1.967 1_655 S
Co952 O984 1.920 . S
Co953 O956 1.966 . S
Co953 N962 2.022 . S
Co953 N970 1.993 . S
Co953 O978 1.941 . S
C954 O955 1.258 . S
C954 O956 1.263 . S
O955 Co952 1.970 1_455 S
O955 C954 1.258 . S
O956 Co953 1.966 . S
O956 C954 1.263 . S
C957 O958 1.235 . S
C957 O984 1.289 . S
O958 C957 1.235 . S
C959 C961 1.400 . S
C959 N962 1.351 . S
C959 C964 1.501 . S
C960 C961 1.387 . S
C960 N963 1.341 . S
C961 C959 1.400 . S
C961 C960 1.387 . S
N962 Co953 2.022 . S
N962 C959 1.351 . S
N962 N963 1.365 . S
N963 C960 1.341 . S
N963 N962 1.365 . S
N963 H983 0.862 . S
C964 C959 1.501 . S
C964 H965 0.961 . S
C964 H966 0.961 . S
C964 H967 0.960 . S
H965 C964 0.961 . S
H966 C964 0.961 . S
H967 C964 0.960 . S
C968 N969 1.342 . S
C968 C972 1.401 . S
C968 C973 1.499 1_455 S
N969 Co952 1.989 1_455 S
N969 C968 1.342 . S
N969 N970 1.388 . S
N970 Co953 1.993 . S
N970 N969 1.388 . S
N970 C971 1.346 . S
C971 N970 1.346 . S
C971 C972 1.396 . S
C971 C981 1.510 . S
C972 C968 1.401 . S
C972 C971 1.396 . S
C973 C968 1.499 1_655 S
C973 H974 0.959 . S
C973 H975 0.960 . S
C973 H976 0.961 . S
H974 C973 0.959 . S
H975 C973 0.960 . S
H976 C973 0.961 . S
O977 Co952 1.967 1_455 S
O977 C985 1.258 . S
O978 Co953 1.941 . S
O978 C985 1.266 . S
H979 C981 0.959 . S
H980 C981 0.961 . S
C981 C971 1.510 . S
C981 H979 0.959 . S
C981 H980 0.961 . S
C981 H982 0.960 . S
H982 C981 0.960 . S
H983 N963 0.862 . S
O984 Co952 1.920 . S
O984 C957 1.289 . S
C985 O977 1.258 . S
C985 O978 1.266 . S
Co986 O989 1.970 . S
Co986 N1003 1.989 . S
Co986 O1011 1.967 . S
Co986 O1018 1.920 . S
Co987 O990 1.966 . S
Co987 N996 2.022 . S
Co987 N1004 1.993 . S
Co987 O1012 1.941 . S
C988 O989 1.258 . S
C988 O990 1.263 . S
O989 Co986 1.970 . S
O989 C988 1.258 . S
O990 Co987 1.966 . S
O990 C988 1.263 . S
C991 O992 1.235 . S
C991 O1018 1.289 . S
O992 C991 1.235 . S
C993 C995 1.400 . S
C993 N996 1.351 . S
C993 C998 1.501 . S
C994 C995 1.387 . S
C994 N997 1.341 . S
C995 C993 1.400 . S
C995 C994 1.387 . S
N996 Co987 2.022 . S
N996 C993 1.351 . S
N996 N997 1.365 . S
N997 C994 1.341 . S
N997 N996 1.365 . S
N997 H1017 0.862 . S
C998 C993 1.501 . S
C998 H999 0.961 . S
C998 H1000 0.961 . S
C998 H1001 0.960 . S
H999 C998 0.961 . S
H1000 C998 0.961 . S
H1001 C998 0.960 . S
C1002 N1003 1.342 . S
C1002 C1006 1.401 . S
C1002 C1007 1.499 . S
N1003 Co986 1.989 . S
N1003 C1002 1.342 . S
N1003 N1004 1.388 . S
N1004 Co987 1.993 . S
N1004 N1003 1.388 . S
N1004 C1005 1.346 . S
C1005 N1004 1.346 . S
C1005 C1006 1.396 . S
C1005 C1015 1.510 . S
C1006 C1002 1.401 . S
C1006 C1005 1.396 . S
C1007 C1002 1.499 . S
C1007 H1008 0.959 . S
C1007 H1009 0.960 . S
C1007 H1010 0.961 . S
H1008 C1007 0.959 . S
H1009 C1007 0.960 . S
H1010 C1007 0.961 . S
O1011 Co986 1.967 . S
O1011 C1019 1.258 . S
O1012 Co987 1.941 . S
O1012 C1019 1.266 . S
H1013 C1015 0.959 . S
H1014 C1015 0.961 . S
C1015 C1005 1.510 . S
C1015 H1013 0.959 . S
C1015 H1014 0.961 . S
C1015 H1016 0.960 . S
H1016 C1015 0.960 . S
H1017 N997 0.862 . S
O1018 Co986 1.920 . S
O1018 C991 1.289 . S
C1019 O1011 1.258 . S
C1019 O1012 1.266 . S
Co1020 O1023 1.970 . S
Co1020 N1037 1.989 . S
Co1020 O1045 1.967 . S
Co1020 O1052 1.920 . S
Co1021 O1024 1.966 . S
Co1021 N1030 2.022 . S
Co1021 N1038 1.993 . S
Co1021 O1046 1.941 . S
C1022 O1023 1.258 . S
C1022 O1024 1.263 . S
O1023 Co1020 1.970 . S
O1023 C1022 1.258 . S
O1024 Co1021 1.966 . S
O1024 C1022 1.263 . S
C1025 O1026 1.235 . S
C1025 O1052 1.289 . S
O1026 C1025 1.235 . S
C1027 C1029 1.400 . S
C1027 N1030 1.351 . S
C1027 C1032 1.501 . S
C1028 C1029 1.387 . S
C1028 N1031 1.341 . S
C1029 C1027 1.400 . S
C1029 C1028 1.387 . S
N1030 Co1021 2.022 . S
N1030 C1027 1.351 . S
N1030 N1031 1.365 . S
N1031 C1028 1.341 . S
N1031 N1030 1.365 . S
N1031 H1051 0.862 . S
C1032 C1027 1.501 . S
C1032 H1033 0.961 . S
C1032 H1034 0.961 . S
C1032 H1035 0.960 . S
H1033 C1032 0.961 . S
H1034 C1032 0.961 . S
H1035 C1032 0.960 . S
C1036 N1037 1.342 . S
C1036 C1040 1.401 . S
C1036 C1041 1.499 . S
N1037 Co1020 1.989 . S
N1037 C1036 1.342 . S
N1037 N1038 1.388 . S
N1038 Co1021 1.993 . S
N1038 N1037 1.388 . S
N1038 C1039 1.346 . S
C1039 N1038 1.346 . S
C1039 C1040 1.396 . S
C1039 C1049 1.510 . S
C1040 C1036 1.401 . S
C1040 C1039 1.396 . S
C1041 C1036 1.499 . S
C1041 H1042 0.959 . S
C1041 H1043 0.960 . S
C1041 H1044 0.961 . S
H1042 C1041 0.959 . S
H1043 C1041 0.960 . S
H1044 C1041 0.961 . S
O1045 Co1020 1.967 . S
O1045 C1053 1.258 . S
O1046 Co1021 1.941 . S
O1046 C1053 1.266 . S
H1047 C1049 0.959 . S
H1048 C1049 0.961 . S
C1049 C1039 1.510 . S
C1049 H1047 0.959 . S
C1049 H1048 0.961 . S
C1049 H1050 0.960 . S
H1050 C1049 0.960 . S
H1051 N1031 0.862 . S
O1052 Co1020 1.920 . S
O1052 C1025 1.289 . S
C1053 O1045 1.258 . S
C1053 O1046 1.266 . S
Co1054 O1057 1.970 . S
Co1054 N1071 1.989 . S
Co1054 O1079 1.967 . S
Co1054 O1086 1.920 . S
Co1055 O1058 1.966 . S
Co1055 N1064 2.022 . S
Co1055 N1072 1.993 . S
Co1055 O1080 1.941 . S
C1056 O1057 1.258 . S
C1056 O1058 1.263 . S
O1057 Co1054 1.970 . S
O1057 C1056 1.258 . S
O1058 Co1055 1.966 . S
O1058 C1056 1.263 . S
C1059 O1060 1.235 . S
C1059 O1086 1.289 . S
O1060 C1059 1.235 . S
C1061 C1063 1.400 . S
C1061 N1064 1.351 . S
C1061 C1066 1.501 . S
C1062 C1063 1.387 . S
C1062 N1065 1.341 . S
C1063 C1061 1.400 . S
C1063 C1062 1.387 . S
N1064 Co1055 2.022 . S
N1064 C1061 1.351 . S
N1064 N1065 1.365 . S
N1065 C1062 1.341 . S
N1065 N1064 1.365 . S
N1065 H1085 0.862 . S
C1066 C1061 1.501 . S
C1066 H1067 0.961 . S
C1066 H1068 0.961 . S
C1066 H1069 0.960 . S
H1067 C1066 0.961 . S
H1068 C1066 0.961 . S
H1069 C1066 0.960 . S
C1070 N1071 1.342 . S
C1070 C1074 1.401 . S
C1070 C1075 1.499 . S
N1071 Co1054 1.989 . S
N1071 C1070 1.342 . S
N1071 N1072 1.388 . S
N1072 Co1055 1.993 . S
N1072 N1071 1.388 . S
N1072 C1073 1.346 . S
C1073 N1072 1.346 . S
C1073 C1074 1.396 . S
C1073 C1083 1.510 . S
C1074 C1070 1.401 . S
C1074 C1073 1.396 . S
C1075 C1070 1.499 . S
C1075 H1076 0.959 . S
C1075 H1077 0.960 . S
C1075 H1078 0.961 . S
H1076 C1075 0.959 . S
H1077 C1075 0.960 . S
H1078 C1075 0.961 . S
O1079 Co1054 1.967 . S
O1079 C1087 1.258 . S
O1080 Co1055 1.941 . S
O1080 C1087 1.266 . S
H1081 C1083 0.959 . S
H1082 C1083 0.961 . S
C1083 C1073 1.510 . S
C1083 H1081 0.959 . S
C1083 H1082 0.961 . S
C1083 H1084 0.960 . S
H1084 C1083 0.960 . S
H1085 N1065 0.862 . S
O1086 Co1054 1.920 . S
O1086 C1059 1.289 . S
C1087 O1079 1.258 . S
C1087 O1080 1.266 . S
H1088 C1094 0.930 . S
H1089 C1098 0.930 . S
H1090 C1103 0.929 . S
H1091 C1101 0.929 . S
H1092 C1096 0.929 . S
H1093 C1102 0.929 . S
C1094 H1088 0.930 . S
C1094 C1095 1.367 1_565 S
C1094 C1102 1.378 . S
C1095 C1094 1.367 1_545 S
C1095 C1103 1.433 . S
C1096 H1092 0.929 . S
C1096 C1098 1.378 . S
C1096 C1100 1.349 1_545 S
C1097 C1100 1.462 1_544 S
C1097 C1102 1.349 1_545 S
C1097 N1105 1.428 . S
C1098 H1089 0.930 . S
C1098 C1096 1.378 . S
C1098 C1099 1.367 1_545 S
C1099 C1098 1.367 1_565 S
C1099 C1101 1.433 . S
C1100 C1096 1.349 1_565 S
C1100 C1097 1.462 1_566 S
C1100 N1104 1.428 . S
C1101 H1091 0.929 . S
C1101 C1099 1.433 . S
C1101 N1104 1.384 . S
C1102 H1093 0.929 . S
C1102 C1094 1.378 . S
C1102 C1097 1.349 1_565 S
C1103 H1090 0.929 . S
C1103 C1095 1.433 . S
C1103 N1105 1.384 . S
N1104 C1100 1.428 . S
N1104 C1101 1.384 . S
N1105 C1097 1.428 . S
N1105 C1103 1.384 . S
H1106 C1112 0.930 . S
H1107 C1116 0.930 . S
H1108 C1121 0.929 . S
H1109 C1119 0.929 . S
H1110 C1114 0.929 . S
H1111 C1120 0.929 . S
C1112 H1106 0.930 . S
C1112 C1113 1.367 . S
C1112 C1120 1.378 . S
C1113 C1112 1.367 . S
C1113 C1121 1.433 . S
C1114 H1110 0.929 . S
C1114 C1116 1.378 . S
C1114 C1118 1.350 . S
C1115 C1118 1.463 . S
C1115 C1120 1.350 . S
C1115 N1123 1.427 . S
C1116 H1107 0.930 . S
C1116 C1114 1.378 . S
C1116 C1117 1.367 . S
C1117 C1116 1.367 . S
C1117 C1119 1.433 . S
C1118 C1114 1.350 . S
C1118 C1115 1.463 . S
C1118 N1122 1.427 . S
C1119 H1109 0.929 . S
C1119 C1117 1.433 . S
C1119 N1122 1.384 . S
C1120 H1111 0.929 . S
C1120 C1112 1.378 . S
C1120 C1115 1.350 . S
C1121 H1108 0.929 . S
C1121 C1113 1.433 . S
C1121 N1123 1.384 . S
N1122 C1118 1.427 . S
N1122 C1119 1.384 . S
N1123 C1115 1.427 . S
N1123 C1121 1.384 . S
H1124 C1130 0.930 . S
H1125 C1134 0.930 . S
H1126 C1139 0.929 . S
H1127 C1137 0.929 . S
H1128 C1132 0.929 . S
H1129 C1138 0.929 . S
C1130 H1124 0.930 . S
C1130 C1131 1.367 . S
C1130 C1138 1.378 . S
C1131 C1130 1.367 . S
C1131 C1139 1.433 1_545 S
C1132 H1128 0.929 . S
C1132 C1134 1.378 . S
C1132 C1136 1.350 . S
C1133 C1136 1.463 1_645 S
C1133 C1138 1.350 . S
C1133 N1141 1.427 1_545 S
C1134 H1125 0.930 . S
C1134 C1132 1.378 . S
C1134 C1135 1.367 . S
C1135 C1134 1.367 . S
C1135 C1137 1.433 1_565 S
C1136 C1132 1.350 . S
C1136 C1133 1.463 1_465 S
C1136 N1140 1.427 1_565 S
C1137 H1127 0.929 . S
C1137 C1135 1.433 1_545 S
C1137 N1140 1.384 . S
C1138 H1129 0.929 . S
C1138 C1130 1.378 . S
C1138 C1133 1.350 . S
C1139 H1126 0.929 . S
C1139 C1131 1.433 1_565 S
C1139 N1141 1.384 . S
N1140 C1136 1.427 1_545 S
N1140 C1137 1.384 . S
N1141 C1133 1.427 1_565 S
N1141 C1139 1.384 . S
H1142 C1148 0.930 . S
H1143 C1152 0.930 . S
H1144 C1157 0.929 . S
H1145 C1155 0.929 . S
H1146 C1150 0.929 . S
H1147 C1156 0.929 . S
C1148 H1142 0.930 . S
C1148 C1149 1.367 . S
C1148 C1156 1.378 . S
C1149 C1148 1.367 . S
C1149 C1157 1.433 . S
C1150 H1146 0.929 . S
C1150 C1152 1.378 . S
C1150 C1154 1.350 . S
C1151 C1154 1.463 . S
C1151 C1156 1.350 . S
C1151 N1159 1.427 . S
C1152 H1143 0.930 . S
C1152 C1150 1.378 . S
C1152 C1153 1.367 . S
C1153 C1152 1.367 . S
C1153 C1155 1.433 . S
C1154 C1150 1.350 . S
C1154 C1151 1.463 . S
C1154 N1158 1.427 . S
C1155 H1145 0.929 . S
C1155 C1153 1.433 . S
C1155 N1158 1.384 . S
C1156 H1147 0.929 . S
C1156 C1148 1.378 . S
C1156 C1151 1.350 . S
C1157 H1144 0.929 . S
C1157 C1149 1.433 . S
C1157 N1159 1.384 . S
N1158 C1154 1.427 . S
N1158 C1155 1.384 . S
N1159 C1151 1.427 . S
N1159 C1157 1.384 . S
H1160 C1166 0.930 . S
H1161 C1170 0.930 . S
H1162 C1175 0.929 . S
H1163 C1173 0.929 . S
H1164 C1168 0.929 . S
H1165 C1174 0.929 . S
C1166 H1160 0.930 . S
C1166 C1167 1.367 1_565 S
C1166 C1174 1.378 . S
C1167 C1166 1.367 1_545 S
C1167 C1175 1.433 . S
C1168 H1164 0.929 . S
C1168 C1170 1.378 . S
C1168 C1172 1.345 1_545 S
C1169 C1172 1.462 1_545 S
C1169 C1174 1.345 1_545 S
C1169 N1177 1.433 . S
C1170 H1161 0.930 . S
C1170 C1168 1.378 . S
C1170 C1171 1.367 1_545 S
C1171 C1170 1.367 1_565 S
C1171 C1173 1.433 . S
C1172 C1168 1.345 1_565 S
C1172 C1169 1.462 1_565 S
C1172 N1176 1.433 . S
C1173 H1163 0.929 . S
C1173 C1171 1.433 . S
C1173 N1176 1.384 . S
C1174 H1165 0.929 . S
C1174 C1166 1.378 . S
C1174 C1169 1.345 1_565 S
C1175 H1162 0.929 . S
C1175 C1167 1.433 . S
C1175 N1177 1.384 . S
N1176 C1172 1.433 . S
N1176 C1173 1.384 . S
N1177 C1169 1.433 . S
N1177 C1175 1.384 . S
H1178 C1184 0.930 . S
H1179 C1188 0.930 . S
H1180 C1193 0.929 . S
H1181 C1191 0.929 . S
H1182 C1186 0.929 . S
H1183 C1192 0.929 . S
C1184 H1178 0.930 . S
C1184 C1185 1.367 . S
C1184 C1192 1.378 . S
C1185 C1184 1.367 . S
C1185 C1193 1.433 . S
C1186 H1182 0.929 . S
C1186 C1188 1.378 . S
C1186 C1190 1.350 . S
C1187 C1190 1.463 . S
C1187 C1192 1.350 . S
C1187 N1195 1.427 . S
C1188 H1179 0.930 . S
C1188 C1186 1.378 . S
C1188 C1189 1.367 . S
C1189 C1188 1.367 . S
C1189 C1191 1.433 . S
C1190 C1186 1.350 . S
C1190 C1187 1.463 . S
C1190 N1194 1.427 . S
C1191 H1181 0.929 . S
C1191 C1189 1.433 . S
C1191 N1194 1.384 . S
C1192 H1183 0.929 . S
C1192 C1184 1.378 . S
C1192 C1187 1.350 . S
C1193 H1180 0.929 . S
C1193 C1185 1.433 . S
C1193 N1195 1.384 . S
N1194 C1190 1.427 . S
N1194 C1191 1.384 . S
N1195 C1187 1.427 . S
N1195 C1193 1.384 . S
H1196 C1202 0.930 1_455 S
H1197 C1206 0.930 1_655 S
H1198 C1211 0.929 . S
H1199 C1209 0.929 . S
H1200 C1204 0.929 . S
H1201 C1210 0.929 . S
C1202 H1196 0.930 1_655 S
C1202 C1203 1.367 1_545 S
C1202 C1210 1.378 1_655 S
C1203 C1202 1.367 1_565 S
C1203 C1211 1.433 . S
C1204 H1200 0.929 . S
C1204 C1206 1.378 1_655 S
C1204 C1208 1.347 1_665 S
C1205 C1208 1.462 1_664 S
C1205 C1210 1.347 1_665 S
C1205 N1213 1.430 . S
C1206 H1197 0.930 1_455 S
C1206 C1204 1.378 1_455 S
C1206 C1207 1.367 1_565 S
C1207 C1206 1.367 1_545 S
C1207 C1209 1.433 . S
C1208 C1204 1.347 1_445 S
C1208 C1205 1.462 1_446 S
C1208 N1212 1.430 . S
C1209 H1199 0.929 . S
C1209 C1207 1.433 . S
C1209 N1212 1.384 . S
C1210 H1201 0.929 . S
C1210 C1202 1.378 1_455 S
C1210 C1205 1.347 1_445 S
C1211 H1198 0.929 . S
C1211 C1203 1.433 . S
C1211 N1213 1.384 . S
N1212 C1208 1.430 . S
N1212 C1209 1.384 . S
N1213 C1205 1.430 . S
N1213 C1211 1.384 . S
H1214 C1220 0.930 . S
H1215 C1224 0.930 . S
H1216 C1229 0.929 . S
H1217 C1227 0.929 . S
H1218 C1222 0.929 . S
H1219 C1228 0.929 . S
C1220 H1214 0.930 . S
C1220 C1221 1.367 . S
C1220 C1228 1.378 . S
C1221 C1220 1.367 . S
C1221 C1229 1.433 . S
C1222 H1218 0.929 . S
C1222 C1224 1.378 . S
C1222 C1226 1.350 . S
C1223 C1226 1.463 . S
C1223 C1228 1.350 . S
C1223 N1231 1.427 . S
C1224 H1215 0.930 . S
C1224 C1222 1.378 . S
C1224 C1225 1.367 . S
C1225 C1224 1.367 . S
C1225 C1227 1.433 . S
C1226 C1222 1.350 . S
C1226 C1223 1.463 . S
C1226 N1230 1.427 . S
C1227 H1217 0.929 . S
C1227 C1225 1.433 . S
C1227 N1230 1.384 . S
C1228 H1219 0.929 . S
C1228 C1220 1.378 . S
C1228 C1223 1.350 . S
C1229 H1216 0.929 . S
C1229 C1221 1.433 . S
C1229 N1231 1.384 . S
N1230 C1226 1.427 . S
N1230 C1227 1.384 . S
N1231 C1223 1.427 . S
N1231 C1229 1.384 . S
H1232 C1238 0.930 . S
H1233 C1242 0.930 . S
H1234 C1247 0.929 . S
H1235 C1245 0.929 . S
H1236 C1240 0.929 . S
H1237 C1246 0.929 . S
C1238 H1232 0.930 . S
C1238 C1239 1.367 . S
C1238 C1246 1.378 . S
C1239 C1238 1.367 . S
C1239 C1247 1.433 . S
C1240 H1236 0.929 . S
C1240 C1242 1.378 . S
C1240 C1244 1.350 . S
C1241 C1244 1.463 . S
C1241 C1246 1.350 . S
C1241 N1249 1.427 . S
C1242 H1233 0.930 . S
C1242 C1240 1.378 . S
C1242 C1243 1.367 . S
C1243 C1242 1.367 . S
C1243 C1245 1.433 . S
C1244 C1240 1.350 . S
C1244 C1241 1.463 . S
C1244 N1248 1.427 . S
C1245 H1235 0.929 . S
C1245 C1243 1.433 . S
C1245 N1248 1.384 . S
C1246 H1237 0.929 . S
C1246 C1238 1.378 . S
C1246 C1241 1.350 . S
C1247 H1234 0.929 . S
C1247 C1239 1.433 . S
C1247 N1249 1.384 . S
N1248 C1244 1.427 . S
N1248 C1245 1.384 . S
N1249 C1241 1.427 . S
N1249 C1247 1.384 . S
H1250 C1256 0.930 . S
H1251 C1260 0.930 . S
H1252 C1265 0.929 . S
H1253 C1263 0.929 . S
H1254 C1258 0.929 . S
H1255 C1264 0.929 . S
C1256 H1250 0.930 . S
C1256 C1257 1.367 . S
C1256 C1264 1.378 . S
C1257 C1256 1.367 . S
C1257 C1265 1.433 . S
C1258 H1254 0.929 . S
C1258 C1260 1.378 . S
C1258 C1262 1.350 . S
C1259 C1262 1.463 . S
C1259 C1264 1.350 . S
C1259 N1267 1.427 . S
C1260 H1251 0.930 . S
C1260 C1258 1.378 . S
C1260 C1261 1.367 . S
C1261 C1260 1.367 . S
C1261 C1263 1.433 . S
C1262 C1258 1.350 . S
C1262 C1259 1.463 . S
C1262 N1266 1.427 . S
C1263 H1253 0.929 . S
C1263 C1261 1.433 . S
C1263 N1266 1.384 . S
C1264 H1255 0.929 . S
C1264 C1256 1.378 . S
C1264 C1259 1.350 . S
C1265 H1252 0.929 . S
C1265 C1257 1.433 . S
C1265 N1267 1.384 . S
N1266 C1262 1.427 . S
N1266 C1263 1.384 . S
N1267 C1259 1.427 . S
N1267 C1265 1.384 . S
H1268 C1274 0.930 . S
H1269 C1278 0.930 . S
H1270 C1283 0.929 . S
H1271 C1281 0.929 . S
H1272 C1276 0.929 . S
H1273 C1282 0.929 . S
C1274 H1268 0.930 . S
C1274 C1275 1.367 . S
C1274 C1282 1.378 . S
C1275 C1274 1.367 . S
C1275 C1283 1.433 . S
C1276 H1272 0.929 . S
C1276 C1278 1.378 . S
C1276 C1280 1.350 . S
C1277 C1280 1.463 . S
C1277 C1282 1.350 . S
C1277 N1285 1.427 . S
C1278 H1269 0.930 . S
C1278 C1276 1.378 . S
C1278 C1279 1.367 . S
C1279 C1278 1.367 . S
C1279 C1281 1.433 . S
C1280 C1276 1.350 . S
C1280 C1277 1.463 . S
C1280 N1284 1.427 . S
C1281 H1271 0.929 . S
C1281 C1279 1.433 . S
C1281 N1284 1.384 . S
C1282 H1273 0.929 . S
C1282 C1274 1.378 . S
C1282 C1277 1.350 . S
C1283 H1270 0.929 . S
C1283 C1275 1.433 . S
C1283 N1285 1.384 . S
N1284 C1280 1.427 . S
N1284 C1281 1.384 . S
N1285 C1277 1.427 . S
N1285 C1283 1.384 . S
H1286 C1292 0.930 . S
H1287 C1296 0.930 . S
H1288 C1301 0.929 . S
H1289 C1299 0.929 . S
H1290 C1294 0.929 . S
H1291 C1300 0.929 . S
C1292 H1286 0.930 . S
C1292 C1293 1.367 . S
C1292 C1300 1.378 . S
C1293 C1292 1.367 . S
C1293 C1301 1.433 . S
C1294 H1290 0.929 . S
C1294 C1296 1.378 . S
C1294 C1298 1.350 . S
C1295 C1298 1.463 . S
C1295 C1300 1.350 . S
C1295 N1303 1.427 . S
C1296 H1287 0.930 . S
C1296 C1294 1.378 . S
C1296 C1297 1.367 . S
C1297 C1296 1.367 . S
C1297 C1299 1.433 . S
C1298 C1294 1.350 . S
C1298 C1295 1.463 . S
C1298 N1302 1.427 . S
C1299 H1289 0.929 . S
C1299 C1297 1.433 . S
C1299 N1302 1.384 . S
C1300 H1291 0.929 . S
C1300 C1292 1.378 . S
C1300 C1295 1.350 . S
C1301 H1288 0.929 . S
C1301 C1293 1.433 . S
C1301 N1303 1.384 . S
N1302 C1298 1.427 . S
N1302 C1299 1.384 . S
N1303 C1295 1.427 . S
N1303 C1301 1.384 . S
H1304 C1310 0.930 . S
H1305 C1314 0.930 . S
H1306 C1319 0.931 . S
H1307 C1317 0.931 . S
H1308 C1312 0.929 . S
H1309 C1318 0.929 . S
C1310 H1304 0.930 . S
C1310 C1311 1.367 . S
C1310 C1318 1.378 . S
C1311 C1310 1.367 . S
C1311 C1319 1.430 1_655 S
C1312 H1308 0.929 . S
C1312 C1314 1.378 . S
C1312 C1316 1.350 . S
C1313 C1316 1.463 1_655 S
C1313 C1318 1.350 . S
C1313 N1321 1.427 1_655 S
C1314 H1305 0.930 . S
C1314 C1312 1.378 . S
C1314 C1315 1.367 . S
C1315 C1314 1.367 . S
C1315 C1317 1.430 1_455 S
C1316 C1312 1.350 . S
C1316 C1313 1.463 1_455 S
C1316 N1320 1.427 1_455 S
C1317 H1307 0.931 . S
C1317 C1315 1.430 1_655 S
C1317 N1320 1.385 . S
C1318 H1309 0.929 . S
C1318 C1310 1.378 . S
C1318 C1313 1.350 . S
C1319 H1306 0.931 . S
C1319 C1311 1.430 1_455 S
C1319 N1321 1.385 . S
N1320 C1316 1.427 1_655 S
N1320 C1317 1.385 . S
N1321 C1313 1.427 1_455 S
N1321 C1319 1.385 . S
H1322 C1328 0.930 . S
H1323 C1332 0.930 . S
H1324 C1337 0.929 . S
H1325 C1335 0.929 . S
H1326 C1330 0.929 . S
H1327 C1336 0.929 . S
C1328 H1322 0.930 . S
C1328 C1329 1.367 . S
C1328 C1336 1.378 . S
C1329 C1328 1.367 . S
C1329 C1337 1.433 . S
C1330 H1326 0.929 . S
C1330 C1332 1.378 . S
C1330 C1334 1.350 . S
C1331 C1334 1.463 1_556 S
C1331 C1336 1.350 . S
C1331 N1339 1.427 . S
C1332 H1323 0.930 . S
C1332 C1330 1.378 . S
C1332 C1333 1.367 . S
C1333 C1332 1.367 . S
C1333 C1335 1.433 . S
C1334 C1330 1.350 . S
C1334 C1331 1.463 1_554 S
C1334 N1338 1.427 . S
C1335 H1325 0.929 . S
C1335 C1333 1.433 . S
C1335 N1338 1.384 . S
C1336 H1327 0.929 . S
C1336 C1328 1.378 . S
C1336 C1331 1.350 . S
C1337 H1324 0.929 . S
C1337 C1329 1.433 . S
C1337 N1339 1.384 . S
N1338 C1334 1.427 . S
N1338 C1335 1.384 . S
N1339 C1331 1.427 . S
N1339 C1337 1.384 . S
H1340 C1346 0.930 1_655 S
H1341 C1350 0.930 1_455 S
H1342 C1355 0.929 . S
H1343 C1353 0.929 . S
H1344 C1348 0.929 . S
H1345 C1354 0.929 . S
C1346 H1340 0.930 1_455 S
C1346 C1347 1.367 . S
C1346 C1354 1.378 1_455 S
C1347 C1346 1.367 . S
C1347 C1355 1.433 . S
C1348 H1344 0.929 . S
C1348 C1350 1.378 1_455 S
C1348 C1352 1.350 1_455 S
C1349 C1352 1.463 1_454 S
C1349 C1354 1.350 1_455 S
C1349 N1357 1.427 . S
C1350 H1341 0.930 1_655 S
C1350 C1348 1.378 1_655 S
C1350 C1351 1.367 . S
C1351 C1350 1.367 . S
C1351 C1353 1.433 . S
C1352 C1348 1.350 1_655 S
C1352 C1349 1.463 1_656 S
C1352 N1356 1.427 . S
C1353 H1343 0.929 . S
C1353 C1351 1.433 . S
C1353 N1356 1.384 . S
C1354 H1345 0.929 . S
C1354 C1346 1.378 1_655 S
C1354 C1349 1.350 1_655 S
C1355 H1342 0.929 . S
C1355 C1347 1.433 . S
C1355 N1357 1.384 . S
N1356 C1352 1.427 . S
N1356 C1353 1.384 . S
N1357 C1349 1.427 . S
N1357 C1355 1.384 . S
H1358 C1364 0.930 . S
H1359 C1368 0.930 . S
H1360 C1373 0.929 . S
H1361 C1371 0.929 . S
H1362 C1366 0.929 . S
H1363 C1372 0.929 . S
C1364 H1358 0.930 . S
C1364 C1365 1.367 . S
C1364 C1372 1.378 . S
C1365 C1364 1.367 . S
C1365 C1373 1.433 . S
C1366 H1362 0.929 . S
C1366 C1368 1.378 . S
C1366 C1370 1.350 . S
C1367 C1370 1.463 . S
C1367 C1372 1.350 . S
C1367 N1375 1.427 . S
C1368 H1359 0.930 . S
C1368 C1366 1.378 . S
C1368 C1369 1.367 . S
C1369 C1368 1.367 . S
C1369 C1371 1.433 . S
C1370 C1366 1.350 . S
C1370 C1367 1.463 . S
C1370 N1374 1.427 . S
C1371 H1361 0.929 . S
C1371 C1369 1.433 . S
C1371 N1374 1.384 . S
C1372 H1363 0.929 . S
C1372 C1364 1.378 . S
C1372 C1367 1.350 . S
C1373 H1360 0.929 . S
C1373 C1365 1.433 . S
C1373 N1375 1.384 . S
N1374 C1370 1.427 . S
N1374 C1371 1.384 . S
N1375 C1367 1.427 . S
N1375 C1373 1.384 . S
H1376 C1382 0.930 . S
H1377 C1386 0.930 . S
H1378 C1391 0.929 . S
H1379 C1389 0.929 . S
H1380 C1384 0.929 . S
H1381 C1390 0.929 . S
C1382 H1376 0.930 . S
C1382 C1383 1.367 1_545 S
C1382 C1390 1.378 . S
C1383 C1382 1.367 1_565 S
C1383 C1391 1.433 . S
C1384 H1380 0.929 . S
C1384 C1386 1.378 . S
C1384 C1388 1.350 . S
C1385 C1388 1.463 . S
C1385 C1390 1.350 1_565 S
C1385 N1393 1.427 . S
C1386 H1377 0.930 . S
C1386 C1384 1.378 . S
C1386 C1387 1.367 . S
C1387 C1386 1.367 . S
C1387 C1389 1.433 1_565 S
C1388 C1384 1.350 . S
C1388 C1385 1.463 . S
C1388 N1392 1.427 1_565 S
C1389 H1379 0.929 . S
C1389 C1387 1.433 1_545 S
C1389 N1392 1.384 . S
C1390 H1381 0.929 . S
C1390 C1382 1.378 . S
C1390 C1385 1.350 1_545 S
C1391 H1378 0.929 . S
C1391 C1383 1.433 . S
C1391 N1393 1.384 . S
N1392 C1388 1.427 1_545 S
N1392 C1389 1.384 . S
N1393 C1385 1.427 . S
N1393 C1391 1.384 . S
H1394 C1400 0.930 . S
H1395 C1404 0.930 . S
H1396 C1409 0.929 . S
H1397 C1407 0.929 . S
H1398 C1402 0.929 . S
H1399 C1408 0.929 . S
C1400 H1394 0.930 . S
C1400 C1401 1.367 . S
C1400 C1408 1.378 . S
C1401 C1400 1.367 . S
C1401 C1409 1.433 . S
C1402 H1398 0.929 . S
C1402 C1404 1.378 . S
C1402 C1406 1.350 . S
C1403 C1406 1.463 . S
C1403 C1408 1.350 . S
C1403 N1411 1.427 . S
C1404 H1395 0.930 . S
C1404 C1402 1.378 . S
C1404 C1405 1.367 . S
C1405 C1404 1.367 . S
C1405 C1407 1.433 . S
C1406 C1402 1.350 . S
C1406 C1403 1.463 . S
C1406 N1410 1.427 . S
C1407 H1397 0.929 . S
C1407 C1405 1.433 . S
C1407 N1410 1.384 . S
C1408 H1399 0.929 . S
C1408 C1400 1.378 . S
C1408 C1403 1.350 . S
C1409 H1396 0.929 . S
C1409 C1401 1.433 . S
C1409 N1411 1.384 . S
N1410 C1406 1.427 . S
N1410 C1407 1.384 . S
N1411 C1403 1.427 . S
N1411 C1409 1.384 . S
H1412 C1418 0.930 . S
H1413 C1422 0.930 . S
H1414 C1427 0.929 . S
H1415 C1425 0.929 . S
H1416 C1420 0.929 . S
H1417 C1426 0.929 . S
C1418 H1412 0.930 . S
C1418 C1419 1.367 . S
C1418 C1426 1.378 . S
C1419 C1418 1.367 . S
C1419 C1427 1.433 1_545 S
C1420 H1416 0.929 . S
C1420 C1422 1.378 . S
C1420 C1424 1.350 1_565 S
C1421 C1424 1.463 . S
C1421 C1426 1.350 . S
C1421 N1429 1.427 1_545 S
C1422 H1413 0.930 . S
C1422 C1420 1.378 . S
C1422 C1423 1.367 1_565 S
C1423 C1422 1.367 1_545 S
C1423 C1425 1.433 . S
C1424 C1420 1.350 1_545 S
C1424 C1421 1.463 . S
C1424 N1428 1.427 . S
C1425 H1415 0.929 . S
C1425 C1423 1.433 . S
C1425 N1428 1.384 . S
C1426 H1417 0.929 . S
C1426 C1418 1.378 . S
C1426 C1421 1.350 . S
C1427 H1414 0.929 . S
C1427 C1419 1.433 1_565 S
C1427 N1429 1.384 . S
N1428 C1424 1.427 . S
N1428 C1425 1.384 . S
N1429 C1421 1.427 1_565 S
N1429 C1427 1.384 . S
H1430 C1436 0.930 . S
H1431 C1440 0.930 . S
H1432 C1445 0.929 . S
H1433 C1443 0.929 . S
H1434 C1438 0.929 . S
H1435 C1444 0.929 . S
C1436 H1430 0.930 . S
C1436 C1437 1.367 . S
C1436 C1444 1.378 . S
C1437 C1436 1.367 . S
C1437 C1445 1.433 . S
C1438 H1434 0.929 . S
C1438 C1440 1.378 . S
C1438 C1442 1.350 . S
C1439 C1442 1.463 . S
C1439 C1444 1.350 . S
C1439 N1447 1.427 . S
C1440 H1431 0.930 . S
C1440 C1438 1.378 . S
C1440 C1441 1.367 . S
C1441 C1440 1.367 . S
C1441 C1443 1.433 . S
C1442 C1438 1.350 . S
C1442 C1439 1.463 . S
C1442 N1446 1.427 . S
C1443 H1433 0.929 . S
C1443 C1441 1.433 . S
C1443 N1446 1.384 . S
C1444 H1435 0.929 . S
C1444 C1436 1.378 . S
C1444 C1439 1.350 . S
C1445 H1432 0.929 . S
C1445 C1437 1.433 . S
C1445 N1447 1.384 . S
N1446 C1442 1.427 . S
N1446 C1443 1.384 . S
N1447 C1439 1.427 . S
N1447 C1445 1.384 . S
H1448 C1454 0.930 . S
H1449 C1458 0.930 . S
H1450 C1463 0.929 . S
H1451 C1461 0.929 . S
H1452 C1456 0.929 . S
H1453 C1462 0.929 . S
C1454 H1448 0.930 . S
C1454 C1455 1.367 . S
C1454 C1462 1.378 . S
C1455 C1454 1.367 . S
C1455 C1463 1.433 1_545 S
C1456 H1452 0.929 . S
C1456 C1458 1.378 . S
C1456 C1460 1.350 1_565 S
C1457 C1460 1.463 . S
C1457 C1462 1.350 . S
C1457 N1465 1.427 1_545 S
C1458 H1449 0.930 . S
C1458 C1456 1.378 . S
C1458 C1459 1.367 1_565 S
C1459 C1458 1.367 1_545 S
C1459 C1461 1.433 . S
C1460 C1456 1.350 1_545 S
C1460 C1457 1.463 . S
C1460 N1464 1.427 . S
C1461 H1451 0.929 . S
C1461 C1459 1.433 . S
C1461 N1464 1.384 . S
C1462 H1453 0.929 . S
C1462 C1454 1.378 . S
C1462 C1457 1.350 . S
C1463 H1450 0.929 . S
C1463 C1455 1.433 1_565 S
C1463 N1465 1.384 . S
N1464 C1460 1.427 . S
N1464 C1461 1.384 . S
N1465 C1457 1.427 1_565 S
N1465 C1463 1.384 . S
H1466 C1472 0.930 . S
H1467 C1476 0.930 . S
H1468 C1481 0.929 . S
H1469 C1479 0.929 . S
H1470 C1474 0.929 . S
H1471 C1480 0.929 . S
C1472 H1466 0.930 . S
C1472 C1473 1.367 . S
C1472 C1480 1.378 . S
C1473 C1472 1.367 . S
C1473 C1481 1.433 . S
C1474 H1470 0.929 . S
C1474 C1476 1.378 . S
C1474 C1478 1.350 . S
C1475 C1478 1.463 . S
C1475 C1480 1.350 . S
C1475 N1483 1.427 . S
C1476 H1467 0.930 . S
C1476 C1474 1.378 . S
C1476 C1477 1.367 . S
C1477 C1476 1.367 . S
C1477 C1479 1.433 . S
C1478 C1474 1.350 . S
C1478 C1475 1.463 . S
C1478 N1482 1.427 . S
C1479 H1469 0.929 . S
C1479 C1477 1.433 . S
C1479 N1482 1.384 . S
C1480 H1471 0.929 . S
C1480 C1472 1.378 . S
C1480 C1475 1.350 . S
C1481 H1468 0.929 . S
C1481 C1473 1.433 . S
C1481 N1483 1.384 . S
N1482 C1478 1.427 . S
N1482 C1479 1.384 . S
N1483 C1475 1.427 . S
N1483 C1481 1.384 . S
H1484 C1490 0.930 . S
H1485 C1494 0.930 . S
H1486 C1499 0.929 . S
H1487 C1497 0.929 . S
H1488 C1492 0.929 1_545 S
H1489 C1498 0.929 . S
C1490 H1484 0.930 . S
C1490 C1491 1.367 . S
C1490 C1498 1.378 . S
C1491 C1490 1.367 . S
C1491 C1499 1.433 1_565 S
C1492 H1488 0.929 1_565 S
C1492 C1494 1.378 . S
C1492 C1496 1.350 . S
C1493 C1496 1.463 . S
C1493 C1498 1.350 . S
C1493 N1501 1.427 1_565 S
C1494 H1485 0.930 . S
C1494 C1492 1.378 . S
C1494 C1495 1.367 . S
C1495 C1494 1.367 . S
C1495 C1497 1.433 . S
C1496 C1492 1.350 . S
C1496 C1493 1.463 . S
C1496 N1500 1.427 . S
C1497 H1487 0.929 . S
C1497 C1495 1.433 . S
C1497 N1500 1.384 . S
C1498 H1489 0.929 . S
C1498 C1490 1.378 . S
C1498 C1493 1.350 . S
C1499 H1486 0.929 . S
C1499 C1491 1.433 1_545 S
C1499 N1501 1.384 . S
N1500 C1496 1.427 . S
N1500 C1497 1.384 . S
N1501 C1493 1.427 1_545 S
N1501 C1499 1.384 . S
H1502 C1508 0.930 . S
H1503 C1512 0.930 . S
H1504 C1517 0.929 . S
H1505 C1515 0.929 . S
H1506 C1510 0.929 . S
H1507 C1516 0.929 . S
C1508 H1502 0.930 . S
C1508 C1509 1.367 . S
C1508 C1516 1.378 . S
C1509 C1508 1.367 . S
C1509 C1517 1.433 . S
C1510 H1506 0.929 . S
C1510 C1512 1.378 . S
C1510 C1514 1.350 . S
C1511 C1514 1.463 . S
C1511 C1516 1.350 . S
C1511 N1519 1.427 . S
C1512 H1503 0.930 . S
C1512 C1510 1.378 . S
C1512 C1513 1.367 . S
C1513 C1512 1.367 . S
C1513 C1515 1.433 . S
C1514 C1510 1.350 . S
C1514 C1511 1.463 . S
C1514 N1518 1.427 . S
C1515 H1505 0.929 . S
C1515 C1513 1.433 . S
C1515 N1518 1.384 . S
C1516 H1507 0.929 . S
C1516 C1508 1.378 . S
C1516 C1511 1.350 . S
C1517 H1504 0.929 . S
C1517 C1509 1.433 . S
C1517 N1519 1.384 . S
N1518 C1514 1.427 . S
N1518 C1515 1.384 . S
N1519 C1511 1.427 . S
N1519 C1517 1.384 . S
H1520 C1526 0.930 . S
H1521 C1530 0.930 . S
H1522 C1535 0.929 . S
H1523 C1533 0.929 . S
H1524 C1528 0.929 . S
H1525 C1534 0.929 . S
C1526 H1520 0.930 . S
C1526 C1527 1.367 . S
C1526 C1534 1.378 . S
C1527 C1526 1.367 . S
C1527 C1535 1.433 1_545 S
C1528 H1524 0.929 . S
C1528 C1530 1.378 . S
C1528 C1532 1.350 1_565 S
C1529 C1532 1.463 . S
C1529 C1534 1.350 . S
C1529 N1537 1.427 1_545 S
C1530 H1521 0.930 . S
C1530 C1528 1.378 . S
C1530 C1531 1.367 1_565 S
C1531 C1530 1.367 1_545 S
C1531 C1533 1.433 . S
C1532 C1528 1.350 1_545 S
C1532 C1529 1.463 . S
C1532 N1536 1.427 . S
C1533 H1523 0.929 . S
C1533 C1531 1.433 . S
C1533 N1536 1.384 . S
C1534 H1525 0.929 . S
C1534 C1526 1.378 . S
C1534 C1529 1.350 . S
C1535 H1522 0.929 . S
C1535 C1527 1.433 1_565 S
C1535 N1537 1.384 . S
N1536 C1532 1.427 . S
N1536 C1533 1.384 . S
N1537 C1529 1.427 1_565 S
N1537 C1535 1.384 . S
H1538 C1544 0.930 . S
H1539 C1548 0.930 . S
H1540 C1553 0.929 . S
H1541 C1551 0.929 . S
H1542 C1546 0.929 . S
H1543 C1552 0.929 . S
C1544 H1538 0.930 . S
C1544 C1545 1.367 . S
C1544 C1552 1.378 . S
C1545 C1544 1.367 . S
C1545 C1553 1.433 . S
C1546 H1542 0.929 . S
C1546 C1548 1.378 . S
C1546 C1550 1.350 . S
C1547 C1550 1.463 . S
C1547 C1552 1.350 . S
C1547 N1555 1.427 . S
C1548 H1539 0.930 . S
C1548 C1546 1.378 . S
C1548 C1549 1.367 . S
C1549 C1548 1.367 . S
C1549 C1551 1.433 . S
C1550 C1546 1.350 . S
C1550 C1547 1.463 . S
C1550 N1554 1.427 . S
C1551 H1541 0.929 . S
C1551 C1549 1.433 . S
C1551 N1554 1.384 . S
C1552 H1543 0.929 . S
C1552 C1544 1.378 . S
C1552 C1547 1.350 . S
C1553 H1540 0.929 . S
C1553 C1545 1.433 . S
C1553 N1555 1.384 . S
N1554 C1550 1.427 . S
N1554 C1551 1.384 . S
N1555 C1547 1.427 . S
N1555 C1553 1.384 . S
H1556 C1562 0.930 . S
H1557 C1566 0.930 . S
H1558 C1571 0.929 . S
H1559 C1569 0.929 . S
H1560 C1564 0.929 . S
H1561 C1570 0.929 . S
C1562 H1556 0.930 . S
C1562 C1563 1.367 . S
C1562 C1570 1.378 . S
C1563 C1562 1.367 . S
C1563 C1571 1.433 1_565 S
C1564 H1560 0.929 . S
C1564 C1566 1.378 . S
C1564 C1568 1.350 1_545 S
C1565 C1568 1.463 . S
C1565 C1570 1.350 . S
C1565 N1573 1.427 1_565 S
C1566 H1557 0.930 . S
C1566 C1564 1.378 . S
C1566 C1567 1.367 1_545 S
C1567 C1566 1.367 1_565 S
C1567 C1569 1.433 . S
C1568 C1564 1.350 1_565 S
C1568 C1565 1.463 . S
C1568 N1572 1.427 . S
C1569 H1559 0.929 . S
C1569 C1567 1.433 . S
C1569 N1572 1.384 . S
C1570 H1561 0.929 . S
C1570 C1562 1.378 . S
C1570 C1565 1.350 . S
C1571 H1558 0.929 . S
C1571 C1563 1.433 1_545 S
C1571 N1573 1.384 . S
N1572 C1568 1.427 . S
N1572 C1569 1.384 . S
N1573 C1565 1.427 1_545 S
N1573 C1571 1.384 . S
H1574 C1580 0.930 . S
H1575 C1584 0.930 . S
H1576 C1589 0.929 . S
H1577 C1587 0.929 . S
H1578 C1582 0.929 . S
H1579 C1588 0.929 . S
C1580 H1574 0.930 . S
C1580 C1581 1.367 . S
C1580 C1588 1.378 . S
C1581 C1580 1.367 . S
C1581 C1589 1.433 . S
C1582 H1578 0.929 . S
C1582 C1584 1.378 . S
C1582 C1586 1.350 . S
C1583 C1586 1.463 . S
C1583 C1588 1.350 . S
C1583 N1591 1.427 . S
C1584 H1575 0.930 . S
C1584 C1582 1.378 . S
C1584 C1585 1.367 . S
C1585 C1584 1.367 . S
C1585 C1587 1.433 . S
C1586 C1582 1.350 . S
C1586 C1583 1.463 . S
C1586 N1590 1.427 . S
C1587 H1577 0.929 . S
C1587 C1585 1.433 . S
C1587 N1590 1.384 . S
C1588 H1579 0.929 . S
C1588 C1580 1.378 . S
C1588 C1583 1.350 . S
C1589 H1576 0.929 . S
C1589 C1581 1.433 . S
C1589 N1591 1.384 . S
N1590 C1586 1.427 . S
N1590 C1587 1.384 . S
N1591 C1583 1.427 . S
N1591 C1589 1.384 . S
H1592 C1598 0.930 . S
H1593 C1602 0.930 . S
H1594 C1607 0.929 1_545 S
H1595 C1605 0.929 . S
H1596 C1600 0.929 . S
H1597 C1606 0.929 . S
C1598 H1592 0.930 . S
C1598 C1599 1.367 . S
C1598 C1606 1.378 . S
C1599 C1598 1.367 . S
C1599 C1607 1.433 . S
C1600 H1596 0.929 . S
C1600 C1602 1.378 . S
C1600 C1604 1.350 . S
C1601 C1604 1.463 . S
C1601 C1606 1.350 . S
C1601 N1609 1.427 . S
C1602 H1593 0.930 . S
C1602 C1600 1.378 . S
C1602 C1603 1.367 . S
C1603 C1602 1.367 . S
C1603 C1605 1.433 . S
C1604 C1600 1.350 . S
C1604 C1601 1.463 . S
C1604 N1608 1.427 . S
C1605 H1595 0.929 . S
C1605 C1603 1.433 . S
C1605 N1608 1.384 . S
C1606 H1597 0.929 . S
C1606 C1598 1.378 . S
C1606 C1601 1.350 . S
C1607 H1594 0.929 1_565 S
C1607 C1599 1.433 . S
C1607 N1609 1.384 . S
N1608 C1604 1.427 . S
N1608 C1605 1.384 . S
N1609 C1601 1.427 . S
N1609 C1607 1.384 . S
H1610 C1616 0.930 . S
H1611 C1620 0.930 . S
H1612 C1625 0.929 . S
H1613 C1623 0.929 . S
H1614 C1618 0.929 . S
H1615 C1624 0.929 . S
C1616 H1610 0.930 . S
C1616 C1617 1.367 . S
C1616 C1624 1.378 . S
C1617 C1616 1.367 . S
C1617 C1625 1.433 . S
C1618 H1614 0.929 . S
C1618 C1620 1.378 . S
C1618 C1622 1.350 . S
C1619 C1622 1.463 . S
C1619 C1624 1.350 . S
C1619 N1627 1.427 . S
C1620 H1611 0.930 . S
C1620 C1618 1.378 . S
C1620 C1621 1.367 . S
C1621 C1620 1.367 . S
C1621 C1623 1.433 . S
C1622 C1618 1.350 . S
C1622 C1619 1.463 . S
C1622 N1626 1.427 . S
C1623 H1613 0.929 . S
C1623 C1621 1.433 . S
C1623 N1626 1.384 . S
C1624 H1615 0.929 . S
C1624 C1616 1.378 . S
C1624 C1619 1.350 . S
C1625 H1612 0.929 . S
C1625 C1617 1.433 . S
C1625 N1627 1.384 . S
N1626 C1622 1.427 . S
N1626 C1623 1.384 . S
N1627 C1619 1.427 . S
N1627 C1625 1.384 . S
H1628 C1634 0.930 . S
H1629 C1638 0.930 . S
H1630 C1643 0.929 . S
H1631 C1641 0.929 . S
H1632 C1636 0.929 . S
H1633 C1642 0.929 . S
C1634 H1628 0.930 . S
C1634 C1635 1.367 . S
C1634 C1642 1.378 . S
C1635 C1634 1.367 . S
C1635 C1643 1.433 1_545 S
C1636 H1632 0.929 . S
C1636 C1638 1.378 . S
C1636 C1640 1.350 1_565 S
C1637 C1640 1.463 . S
C1637 C1642 1.350 . S
C1637 N1645 1.427 1_545 S
C1638 H1629 0.930 . S
C1638 C1636 1.378 . S
C1638 C1639 1.367 1_565 S
C1639 C1638 1.367 1_545 S
C1639 C1641 1.433 . S
C1640 C1636 1.350 1_545 S
C1640 C1637 1.463 . S
C1640 N1644 1.427 . S
C1641 H1631 0.929 . S
C1641 C1639 1.433 . S
C1641 N1644 1.384 . S
C1642 H1633 0.929 . S
C1642 C1634 1.378 . S
C1642 C1637 1.350 . S
C1643 H1630 0.929 . S
C1643 C1635 1.433 1_565 S
C1643 N1645 1.384 . S
N1644 C1640 1.427 . S
N1644 C1641 1.384 . S
N1645 C1637 1.427 1_565 S
N1645 C1643 1.384 . S
H1646 C1652 0.930 . S
H1647 C1656 0.930 . S
H1648 C1661 0.929 . S
H1649 C1659 0.929 . S
H1650 C1654 0.929 . S
H1651 C1660 0.929 . S
C1652 H1646 0.930 . S
C1652 C1653 1.367 . S
C1652 C1660 1.378 . S
C1653 C1652 1.367 . S
C1653 C1661 1.433 . S
C1654 H1650 0.929 . S
C1654 C1656 1.378 . S
C1654 C1658 1.350 . S
C1655 C1658 1.463 . S
C1655 C1660 1.350 . S
C1655 N1663 1.427 . S
C1656 H1647 0.930 . S
C1656 C1654 1.378 . S
C1656 C1657 1.367 . S
C1657 C1656 1.367 . S
C1657 C1659 1.433 . S
C1658 C1654 1.350 . S
C1658 C1655 1.463 . S
C1658 N1662 1.427 . S
C1659 H1649 0.929 . S
C1659 C1657 1.433 . S
C1659 N1662 1.384 . S
C1660 H1651 0.929 . S
C1660 C1652 1.378 . S
C1660 C1655 1.350 . S
C1661 H1648 0.929 . S
C1661 C1653 1.433 . S
C1661 N1663 1.384 . S
N1662 C1658 1.427 . S
N1662 C1659 1.384 . S
N1663 C1655 1.427 . S
N1663 C1661 1.384 . S
H1664 C1670 0.930 . S
H1665 C1674 0.930 . S
H1666 C1679 0.929 . S
H1667 C1677 0.929 . S
H1668 C1672 0.929 . S
H1669 C1678 0.929 . S
C1670 H1664 0.930 . S
C1670 C1671 1.367 . S
C1670 C1678 1.378 . S
C1671 C1670 1.367 . S
C1671 C1679 1.433 . S
C1672 H1668 0.929 . S
C1672 C1674 1.378 . S
C1672 C1676 1.350 . S
C1673 C1676 1.463 . S
C1673 C1678 1.350 . S
C1673 N1681 1.427 . S
C1674 H1665 0.930 . S
C1674 C1672 1.378 . S
C1674 C1675 1.367 . S
C1675 C1674 1.367 . S
C1675 C1677 1.433 . S
C1676 C1672 1.350 . S
C1676 C1673 1.463 . S
C1676 N1680 1.427 . S
C1677 H1667 0.929 . S
C1677 C1675 1.433 . S
C1677 N1680 1.384 . S
C1678 H1669 0.929 . S
C1678 C1670 1.378 . S
C1678 C1673 1.350 . S
C1679 H1666 0.929 . S
C1679 C1671 1.433 . S
C1679 N1681 1.384 . S
N1680 C1676 1.427 . S
N1680 C1677 1.384 . S
N1681 C1673 1.427 . S
N1681 C1679 1.384 . S
H1682 C1688 0.930 . S
H1683 C1692 0.930 . S
H1684 C1697 0.929 . S
H1685 C1695 0.929 . S
H1686 C1690 0.929 . S
H1687 C1696 0.929 . S
C1688 H1682 0.930 . S
C1688 C1689 1.367 . S
C1688 C1696 1.378 1_545 S
C1689 C1688 1.367 . S
C1689 C1697 1.433 . S
C1690 H1686 0.929 . S
C1690 C1692 1.378 . S
C1690 C1694 1.350 . S
C1691 C1694 1.463 . S
C1691 C1696 1.350 . S
C1691 N1699 1.427 . S
C1692 H1683 0.930 . S
C1692 C1690 1.378 . S
C1692 C1693 1.367 . S
C1693 C1692 1.367 . S
C1693 C1695 1.433 . S
C1694 C1690 1.350 . S
C1694 C1691 1.463 . S
C1694 N1698 1.427 . S
C1695 H1685 0.929 . S
C1695 C1693 1.433 . S
C1695 N1698 1.384 . S
C1696 H1687 0.929 . S
C1696 C1688 1.378 1_565 S
C1696 C1691 1.350 . S
C1697 H1684 0.929 . S
C1697 C1689 1.433 . S
C1697 N1699 1.384 1_545 S
N1698 C1694 1.427 . S
N1698 C1695 1.384 . S
N1699 C1691 1.427 . S
N1699 C1697 1.384 1_565 S
H1700 C1706 0.930 . S
H1701 C1710 0.930 . S
H1702 C1715 0.929 . S
H1703 C1713 0.929 . S
H1704 C1708 0.929 . S
H1705 C1714 0.929 . S
C1706 H1700 0.930 . S
C1706 C1707 1.367 . S
C1706 C1714 1.378 . S
C1707 C1706 1.367 . S
C1707 C1715 1.433 . S
C1708 H1704 0.929 . S
C1708 C1710 1.378 . S
C1708 C1712 1.350 . S
C1709 C1712 1.463 . S
C1709 C1714 1.350 . S
C1709 N1717 1.427 . S
C1710 H1701 0.930 . S
C1710 C1708 1.378 . S
C1710 C1711 1.367 . S
C1711 C1710 1.367 . S
C1711 C1713 1.433 . S
C1712 C1708 1.350 . S
C1712 C1709 1.463 . S
C1712 N1716 1.427 . S
C1713 H1703 0.929 . S
C1713 C1711 1.433 . S
C1713 N1716 1.384 . S
C1714 H1705 0.929 . S
C1714 C1706 1.378 . S
C1714 C1709 1.350 . S
C1715 H1702 0.929 . S
C1715 C1707 1.433 . S
C1715 N1717 1.384 . S
N1716 C1712 1.427 . S
N1716 C1713 1.384 . S
N1717 C1709 1.427 . S
N1717 C1715 1.384 . S
H1718 C1724 0.930 . S
H1719 C1728 0.930 . S
H1720 C1733 0.929 . S
H1721 C1731 0.929 . S
H1722 C1726 0.929 . S
H1723 C1732 0.929 . S
C1724 H1718 0.930 . S
C1724 C1725 1.367 . S
C1724 C1732 1.378 . S
C1725 C1724 1.367 . S
C1725 C1733 1.433 . S
C1726 H1722 0.929 . S
C1726 C1728 1.378 1_545 S
C1726 C1730 1.350 . S
C1727 C1730 1.463 . S
C1727 C1732 1.350 . S
C1727 N1735 1.427 . S
C1728 H1719 0.930 . S
C1728 C1726 1.378 1_565 S
C1728 C1729 1.367 . S
C1729 C1728 1.367 . S
C1729 C1731 1.433 . S
C1730 C1726 1.350 . S
C1730 C1727 1.463 . S
C1730 N1734 1.427 . S
C1731 H1721 0.929 . S
C1731 C1729 1.433 . S
C1731 N1734 1.384 1_565 S
C1732 H1723 0.929 . S
C1732 C1724 1.378 . S
C1732 C1727 1.350 . S
C1733 H1720 0.929 . S
C1733 C1725 1.433 . S
C1733 N1735 1.384 . S
N1734 C1730 1.427 . S
N1734 C1731 1.384 1_545 S
N1735 C1727 1.427 . S
N1735 C1733 1.384 . S
H1736 C1742 0.930 . S
H1737 C1746 0.930 . S
H1738 C1751 0.929 . S
H1739 C1749 0.929 . S
H1740 C1744 0.929 . S
H1741 C1750 0.929 . S
C1742 H1736 0.930 . S
C1742 C1743 1.367 . S
C1742 C1750 1.378 . S
C1743 C1742 1.367 . S
C1743 C1751 1.433 . S
C1744 H1740 0.929 . S
C1744 C1746 1.378 . S
C1744 C1748 1.350 . S
C1745 C1748 1.463 . S
C1745 C1750 1.350 . S
C1745 N1753 1.427 . S
C1746 H1737 0.930 . S
C1746 C1744 1.378 . S
C1746 C1747 1.367 . S
C1747 C1746 1.367 . S
C1747 C1749 1.433 . S
C1748 C1744 1.350 . S
C1748 C1745 1.463 . S
C1748 N1752 1.427 . S
C1749 H1739 0.929 . S
C1749 C1747 1.433 . S
C1749 N1752 1.384 . S
C1750 H1741 0.929 . S
C1750 C1742 1.378 . S
C1750 C1745 1.350 . S
C1751 H1738 0.929 . S
C1751 C1743 1.433 . S
C1751 N1753 1.384 . S
N1752 C1748 1.427 . S
N1752 C1749 1.384 . S
N1753 C1745 1.427 . S
N1753 C1751 1.384 . S
H1754 C1760 0.930 . S
H1755 C1764 0.930 . S
H1756 C1769 0.929 . S
H1757 C1767 0.929 . S
H1758 C1762 0.929 . S
H1759 C1768 0.929 . S
C1760 H1754 0.930 . S
C1760 C1761 1.367 . S
C1760 C1768 1.378 1_545 S
C1761 C1760 1.367 . S
C1761 C1769 1.433 . S
C1762 H1758 0.929 . S
C1762 C1764 1.378 . S
C1762 C1766 1.350 . S
C1763 C1766 1.463 . S
C1763 C1768 1.350 . S
C1763 N1771 1.427 . S
C1764 H1755 0.930 . S
C1764 C1762 1.378 . S
C1764 C1765 1.367 . S
C1765 C1764 1.367 . S
C1765 C1767 1.433 . S
C1766 C1762 1.350 . S
C1766 C1763 1.463 . S
C1766 N1770 1.427 . S
C1767 H1757 0.929 . S
C1767 C1765 1.433 . S
C1767 N1770 1.384 . S
C1768 H1759 0.929 . S
C1768 C1760 1.378 1_565 S
C1768 C1763 1.350 . S
C1769 H1756 0.929 . S
C1769 C1761 1.433 . S
C1769 N1771 1.384 1_545 S
N1770 C1766 1.427 . S
N1770 C1767 1.384 . S
N1771 C1763 1.427 . S
N1771 C1769 1.384 1_565 S
H1772 C1778 0.930 . S
H1773 C1782 0.930 . S
H1774 C1787 0.929 . S
H1775 C1785 0.929 . S
H1776 C1780 0.929 . S
H1777 C1786 0.929 . S
C1778 H1772 0.930 . S
C1778 C1779 1.367 . S
C1778 C1786 1.378 . S
C1779 C1778 1.367 . S
C1779 C1787 1.433 . S
C1780 H1776 0.929 . S
C1780 C1782 1.378 . S
C1780 C1784 1.350 . S
C1781 C1784 1.463 . S
C1781 C1786 1.350 . S
C1781 N1789 1.427 . S
C1782 H1773 0.930 . S
C1782 C1780 1.378 . S
C1782 C1783 1.367 . S
C1783 C1782 1.367 . S
C1783 C1785 1.433 . S
C1784 C1780 1.350 . S
C1784 C1781 1.463 . S
C1784 N1788 1.427 . S
C1785 H1775 0.929 . S
C1785 C1783 1.433 . S
C1785 N1788 1.384 . S
C1786 H1777 0.929 . S
C1786 C1778 1.378 . S
C1786 C1781 1.350 . S
C1787 H1774 0.929 . S
C1787 C1779 1.433 . S
C1787 N1789 1.384 . S
N1788 C1784 1.427 . S
N1788 C1785 1.384 . S
N1789 C1781 1.427 . S
N1789 C1787 1.384 . S
H1790 C1796 0.930 . S
H1791 C1800 0.930 . S
H1792 C1805 0.929 . S
H1793 C1803 0.929 . S
H1794 C1798 0.929 . S
H1795 C1804 0.929 . S
C1796 H1790 0.930 . S
C1796 C1797 1.367 . S
C1796 C1804 1.378 . S
C1797 C1796 1.367 . S
C1797 C1805 1.433 . S
C1798 H1794 0.929 . S
C1798 C1800 1.378 1_545 S
C1798 C1802 1.350 . S
C1799 C1802 1.463 . S
C1799 C1804 1.350 . S
C1799 N1807 1.427 . S
C1800 H1791 0.930 . S
C1800 C1798 1.378 1_565 S
C1800 C1801 1.367 . S
C1801 C1800 1.367 . S
C1801 C1803 1.433 . S
C1802 C1798 1.350 . S
C1802 C1799 1.463 . S
C1802 N1806 1.427 . S
C1803 H1793 0.929 . S
C1803 C1801 1.433 . S
C1803 N1806 1.384 1_565 S
C1804 H1795 0.929 . S
C1804 C1796 1.378 . S
C1804 C1799 1.350 . S
C1805 H1792 0.929 . S
C1805 C1797 1.433 . S
C1805 N1807 1.384 . S
N1806 C1802 1.427 . S
N1806 C1803 1.384 1_545 S
N1807 C1799 1.427 . S
N1807 C1805 1.384 . S
H1808 C1814 0.930 . S
H1809 C1818 0.930 . S
H1810 C1823 0.929 . S
H1811 C1821 0.929 . S
H1812 C1816 0.929 . S
H1813 C1822 0.929 . S
C1814 H1808 0.930 . S
C1814 C1815 1.367 . S
C1814 C1822 1.378 . S
C1815 C1814 1.367 . S
C1815 C1823 1.433 . S
C1816 H1812 0.929 . S
C1816 C1818 1.378 . S
C1816 C1820 1.350 . S
C1817 C1820 1.463 . S
C1817 C1822 1.350 . S
C1817 N1825 1.427 . S
C1818 H1809 0.930 . S
C1818 C1816 1.378 . S
C1818 C1819 1.367 . S
C1819 C1818 1.367 . S
C1819 C1821 1.433 . S
C1820 C1816 1.350 . S
C1820 C1817 1.463 . S
C1820 N1824 1.427 . S
C1821 H1811 0.929 . S
C1821 C1819 1.433 . S
C1821 N1824 1.384 . S
C1822 H1813 0.929 . S
C1822 C1814 1.378 . S
C1822 C1817 1.350 . S
C1823 H1810 0.929 . S
C1823 C1815 1.433 . S
C1823 N1825 1.384 . S
N1824 C1820 1.427 . S
N1824 C1821 1.384 . S
N1825 C1817 1.427 . S
N1825 C1823 1.384 . S
H1826 C1832 0.930 . S
H1827 C1836 0.930 . S
H1828 C1841 0.929 . S
H1829 C1839 0.929 . S
H1830 C1834 0.929 . S
H1831 C1840 0.929 . S
C1832 H1826 0.930 . S
C1832 C1833 1.367 . S
C1832 C1840 1.378 . S
C1833 C1832 1.367 . S
C1833 C1841 1.433 . S
C1834 H1830 0.929 . S
C1834 C1836 1.378 1_545 S
C1834 C1838 1.350 . S
C1835 C1838 1.463 . S
C1835 C1840 1.350 . S
C1835 N1843 1.427 . S
C1836 H1827 0.930 . S
C1836 C1834 1.378 1_565 S
C1836 C1837 1.367 . S
C1837 C1836 1.367 . S
C1837 C1839 1.433 . S
C1838 C1834 1.350 . S
C1838 C1835 1.463 . S
C1838 N1842 1.427 . S
C1839 H1829 0.929 . S
C1839 C1837 1.433 . S
C1839 N1842 1.384 1_565 S
C1840 H1831 0.929 . S
C1840 C1832 1.378 . S
C1840 C1835 1.350 . S
C1841 H1828 0.929 . S
C1841 C1833 1.433 . S
C1841 N1843 1.384 . S
N1842 C1838 1.427 . S
N1842 C1839 1.384 1_545 S
N1843 C1835 1.427 . S
N1843 C1841 1.384 . S
H1844 C1850 0.930 . S
H1845 C1854 0.930 . S
H1846 C1859 0.929 . S
H1847 C1857 0.929 . S
H1848 C1852 0.929 . S
H1849 C1858 0.929 . S
C1850 H1844 0.930 . S
C1850 C1851 1.367 . S
C1850 C1858 1.378 . S
C1851 C1850 1.367 . S
C1851 C1859 1.433 . S
C1852 H1848 0.929 . S
C1852 C1854 1.378 . S
C1852 C1856 1.350 . S
C1853 C1856 1.463 . S
C1853 C1858 1.350 . S
C1853 N1861 1.427 . S
C1854 H1845 0.930 . S
C1854 C1852 1.378 . S
C1854 C1855 1.367 . S
C1855 C1854 1.367 . S
C1855 C1857 1.433 . S
C1856 C1852 1.350 . S
C1856 C1853 1.463 . S
C1856 N1860 1.427 . S
C1857 H1847 0.929 . S
C1857 C1855 1.433 . S
C1857 N1860 1.384 . S
C1858 H1849 0.929 . S
C1858 C1850 1.378 . S
C1858 C1853 1.350 . S
C1859 H1846 0.929 . S
C1859 C1851 1.433 . S
C1859 N1861 1.384 . S
N1860 C1856 1.427 . S
N1860 C1857 1.384 . S
N1861 C1853 1.427 . S
N1861 C1859 1.384 . S
H1862 C1868 0.930 . S
H1863 C1872 0.930 . S
H1864 C1877 0.929 . S
H1865 C1875 0.929 . S
H1866 C1870 0.929 . S
H1867 C1876 0.929 . S
C1868 H1862 0.930 . S
C1868 C1869 1.367 . S
C1868 C1876 1.378 . S
C1869 C1868 1.367 . S
C1869 C1877 1.433 . S
C1870 H1866 0.929 . S
C1870 C1872 1.378 1_565 S
C1870 C1874 1.350 . S
C1871 C1874 1.463 . S
C1871 C1876 1.350 . S
C1871 N1879 1.427 . S
C1872 H1863 0.930 . S
C1872 C1870 1.378 1_545 S
C1872 C1873 1.367 . S
C1873 C1872 1.367 . S
C1873 C1875 1.433 . S
C1874 C1870 1.350 . S
C1874 C1871 1.463 . S
C1874 N1878 1.427 . S
C1875 H1865 0.929 . S
C1875 C1873 1.433 . S
C1875 N1878 1.384 1_545 S
C1876 H1867 0.929 . S
C1876 C1868 1.378 . S
C1876 C1871 1.350 . S
C1877 H1864 0.929 . S
C1877 C1869 1.433 . S
C1877 N1879 1.384 . S
N1878 C1874 1.427 . S
N1878 C1875 1.384 1_565 S
N1879 C1871 1.427 . S
N1879 C1877 1.384 . S
H1880 C1886 0.930 . S
H1881 C1890 0.930 . S
H1882 C1895 0.929 . S
H1883 C1893 0.929 . S
H1884 C1888 0.929 . S
H1885 C1894 0.929 . S
C1886 H1880 0.930 . S
C1886 C1887 1.367 . S
C1886 C1894 1.378 . S
C1887 C1886 1.367 . S
C1887 C1895 1.433 . S
C1888 H1884 0.929 . S
C1888 C1890 1.378 . S
C1888 C1892 1.350 . S
C1889 C1892 1.463 . S
C1889 C1894 1.350 . S
C1889 N1897 1.427 . S
C1890 H1881 0.930 . S
C1890 C1888 1.378 . S
C1890 C1891 1.367 . S
C1891 C1890 1.367 . S
C1891 C1893 1.433 . S
C1892 C1888 1.350 . S
C1892 C1889 1.463 . S
C1892 N1896 1.427 . S
C1893 H1883 0.929 . S
C1893 C1891 1.433 . S
C1893 N1896 1.384 . S
C1894 H1885 0.929 . S
C1894 C1886 1.378 . S
C1894 C1889 1.350 . S
C1895 H1882 0.929 . S
C1895 C1887 1.433 . S
C1895 N1897 1.384 . S
N1896 C1892 1.427 . S
N1896 C1893 1.384 . S
N1897 C1889 1.427 . S
N1897 C1895 1.384 . S
H1898 C1904 0.930 . S
H1899 C1908 0.930 . S
H1900 C1913 0.929 . S
H1901 C1911 0.929 . S
H1902 C1906 0.929 . S
H1903 C1912 0.929 . S
C1904 H1898 0.930 . S
C1904 C1905 1.367 . S
C1904 C1912 1.378 . S
C1905 C1904 1.367 . S
C1905 C1913 1.433 . S
C1906 H1902 0.929 . S
C1906 C1908 1.378 1_545 S
C1906 C1910 1.350 . S
C1907 C1910 1.463 . S
C1907 C1912 1.350 . S
C1907 N1915 1.427 . S
C1908 H1899 0.930 . S
C1908 C1906 1.378 1_565 S
C1908 C1909 1.367 . S
C1909 C1908 1.367 . S
C1909 C1911 1.433 . S
C1910 C1906 1.350 . S
C1910 C1907 1.463 . S
C1910 N1914 1.427 . S
C1911 H1901 0.929 . S
C1911 C1909 1.433 . S
C1911 N1914 1.384 1_565 S
C1912 H1903 0.929 . S
C1912 C1904 1.378 . S
C1912 C1907 1.350 . S
C1913 H1900 0.929 . S
C1913 C1905 1.433 . S
C1913 N1915 1.384 . S
N1914 C1910 1.427 . S
N1914 C1911 1.384 1_545 S
N1915 C1907 1.427 . S
N1915 C1913 1.384 . S
H1916 C1922 0.930 . S
H1917 C1926 0.930 . S
H1918 C1931 0.929 . S
H1919 C1929 0.929 . S
H1920 C1924 0.929 . S
H1921 C1930 0.929 . S
C1922 H1916 0.930 . S
C1922 C1923 1.367 . S
C1922 C1930 1.378 . S
C1923 C1922 1.367 . S
C1923 C1931 1.433 . S
C1924 H1920 0.929 . S
C1924 C1926 1.378 . S
C1924 C1928 1.350 . S
C1925 C1928 1.463 . S
C1925 C1930 1.350 . S
C1925 N1933 1.427 . S
C1926 H1917 0.930 . S
C1926 C1924 1.378 . S
C1926 C1927 1.367 . S
C1927 C1926 1.367 . S
C1927 C1929 1.433 . S
C1928 C1924 1.350 . S
C1928 C1925 1.463 . S
C1928 N1932 1.427 . S
C1929 H1919 0.929 . S
C1929 C1927 1.433 . S
C1929 N1932 1.384 . S
C1930 H1921 0.929 . S
C1930 C1922 1.378 . S
C1930 C1925 1.350 . S
C1931 H1918 0.929 . S
C1931 C1923 1.433 . S
C1931 N1933 1.384 . S
N1932 C1928 1.427 . S
N1932 C1929 1.384 . S
N1933 C1925 1.427 . S
N1933 C1931 1.384 . S
H1934 C1940 0.930 . S
H1935 C1944 0.930 . S
H1936 C1949 0.929 . S
H1937 C1947 0.929 . S
H1938 C1942 0.929 . S
H1939 C1948 0.929 . S
C1940 H1934 0.930 . S
C1940 C1941 1.367 . S
C1940 C1948 1.378 1_545 S
C1941 C1940 1.367 . S
C1941 C1949 1.433 . S
C1942 H1938 0.929 . S
C1942 C1944 1.378 . S
C1942 C1946 1.350 . S
C1943 C1946 1.463 . S
C1943 C1948 1.350 . S
C1943 N1951 1.427 . S
C1944 H1935 0.930 . S
C1944 C1942 1.378 . S
C1944 C1945 1.367 . S
C1945 C1944 1.367 . S
C1945 C1947 1.433 . S
C1946 C1942 1.350 . S
C1946 C1943 1.463 . S
C1946 N1950 1.427 . S
C1947 H1937 0.929 . S
C1947 C1945 1.433 . S
C1947 N1950 1.384 . S
C1948 H1939 0.929 . S
C1948 C1940 1.378 1_565 S
C1948 C1943 1.350 . S
C1949 H1936 0.929 . S
C1949 C1941 1.433 . S
C1949 N1951 1.384 1_545 S
N1950 C1946 1.427 . S
N1950 C1947 1.384 . S
N1951 C1943 1.427 . S
N1951 C1949 1.384 1_565 S
H1952 C1958 0.930 . S
H1953 C1962 0.930 . S
H1954 C1967 0.929 . S
H1955 C1965 0.929 . S
H1956 C1960 0.929 . S
H1957 C1966 0.929 . S
C1958 H1952 0.930 . S
C1958 C1959 1.367 . S
C1958 C1966 1.378 . S
C1959 C1958 1.367 . S
C1959 C1967 1.433 . S
C1960 H1956 0.929 . S
C1960 C1962 1.378 . S
C1960 C1964 1.350 . S
C1961 C1964 1.463 . S
C1961 C1966 1.350 . S
C1961 N1969 1.427 . S
C1962 H1953 0.930 . S
C1962 C1960 1.378 . S
C1962 C1963 1.367 . S
C1963 C1962 1.367 . S
C1963 C1965 1.433 . S
C1964 C1960 1.350 . S
C1964 C1961 1.463 . S
C1964 N1968 1.427 . S
C1965 H1955 0.929 . S
C1965 C1963 1.433 . S
C1965 N1968 1.384 . S
C1966 H1957 0.929 . S
C1966 C1958 1.378 . S
C1966 C1961 1.350 . S
C1967 H1954 0.929 . S
C1967 C1959 1.433 . S
C1967 N1969 1.384 . S
N1968 C1964 1.427 . S
N1968 C1965 1.384 . S
N1969 C1961 1.427 . S
N1969 C1967 1.384 . S
H1970 C1976 0.930 . S
H1971 C1980 0.930 . S
H1972 C1985 0.929 . S
H1973 C1983 0.929 . S
H1974 C1978 0.929 . S
H1975 C1984 0.929 . S
C1976 H1970 0.930 . S
C1976 C1977 1.367 . S
C1976 C1984 1.378 . S
C1977 C1976 1.367 . S
C1977 C1985 1.433 . S
C1978 H1974 0.929 . S
C1978 C1980 1.378 . S
C1978 C1982 1.350 . S
C1979 C1982 1.463 . S
C1979 C1984 1.350 . S
C1979 N1987 1.427 . S
C1980 H1971 0.930 . S
C1980 C1978 1.378 . S
C1980 C1981 1.367 . S
C1981 C1980 1.367 . S
C1981 C1983 1.433 . S
C1982 C1978 1.350 . S
C1982 C1979 1.463 . S
C1982 N1986 1.427 . S
C1983 H1973 0.929 . S
C1983 C1981 1.433 . S
C1983 N1986 1.384 . S
C1984 H1975 0.929 . S
C1984 C1976 1.378 . S
C1984 C1979 1.350 . S
C1985 H1972 0.929 . S
C1985 C1977 1.433 . S
C1985 N1987 1.384 . S
N1986 C1982 1.427 . S
N1986 C1983 1.384 . S
N1987 C1979 1.427 . S
N1987 C1985 1.384 . S
H1988 C1994 0.930 . S
H1989 C1998 0.930 . S
H1990 C2003 0.929 . S
H1991 C2001 0.929 . S
H1992 C1996 0.929 . S
H1993 C2002 0.929 . S
C1994 H1988 0.930 . S
C1994 C1995 1.367 . S
C1994 C2002 1.378 . S
C1995 C1994 1.367 . S
C1995 C2003 1.433 . S
C1996 H1992 0.929 . S
C1996 C1998 1.378 . S
C1996 C2000 1.350 . S
C1997 C2000 1.463 . S
C1997 C2002 1.350 . S
C1997 N2005 1.427 . S
C1998 H1989 0.930 . S
C1998 C1996 1.378 . S
C1998 C1999 1.367 . S
C1999 C1998 1.367 . S
C1999 C2001 1.433 . S
C2000 C1996 1.350 . S
C2000 C1997 1.463 . S
C2000 N2004 1.427 . S
C2001 H1991 0.929 . S
C2001 C1999 1.433 . S
C2001 N2004 1.384 . S
C2002 H1993 0.929 . S
C2002 C1994 1.378 . S
C2002 C1997 1.350 . S
C2003 H1990 0.929 . S
C2003 C1995 1.433 . S
C2003 N2005 1.384 . S
N2004 C2000 1.427 . S
N2004 C2001 1.384 . S
N2005 C1997 1.427 . S
N2005 C2003 1.384 . S
H2006 C2012 0.930 . S
H2007 C2016 0.930 . S
H2008 C2021 0.929 . S
H2009 C2019 0.929 . S
H2010 C2014 0.929 . S
H2011 C2020 0.929 . S
C2012 H2006 0.930 . S
C2012 C2013 1.367 . S
C2012 C2020 1.378 . S
C2013 C2012 1.367 . S
C2013 C2021 1.433 . S
C2014 H2010 0.929 . S
C2014 C2016 1.378 . S
C2014 C2018 1.350 . S
C2015 C2018 1.463 . S
C2015 C2020 1.350 . S
C2015 N2023 1.427 . S
C2016 H2007 0.930 . S
C2016 C2014 1.378 . S
C2016 C2017 1.367 . S
C2017 C2016 1.367 . S
C2017 C2019 1.433 . S
C2018 C2014 1.350 . S
C2018 C2015 1.463 . S
C2018 N2022 1.427 . S
C2019 H2009 0.929 . S
C2019 C2017 1.433 . S
C2019 N2022 1.384 . S
C2020 H2011 0.929 . S
C2020 C2012 1.378 . S
C2020 C2015 1.350 . S
C2021 H2008 0.929 . S
C2021 C2013 1.433 . S
C2021 N2023 1.384 . S
N2022 C2018 1.427 . S
N2022 C2019 1.384 . S
N2023 C2015 1.427 . S
N2023 C2021 1.384 . S
H2024 C2030 0.930 . S
H2025 C2034 0.930 . S
H2026 C2039 0.929 . S
H2027 C2037 0.929 . S
H2028 C2032 0.929 . S
H2029 C2038 0.929 . S
C2030 H2024 0.930 . S
C2030 C2031 1.367 . S
C2030 C2038 1.378 . S
C2031 C2030 1.367 . S
C2031 C2039 1.433 . S
C2032 H2028 0.929 . S
C2032 C2034 1.378 . S
C2032 C2036 1.350 . S
C2033 C2036 1.463 . S
C2033 C2038 1.350 . S
C2033 N2041 1.427 . S
C2034 H2025 0.930 . S
C2034 C2032 1.378 . S
C2034 C2035 1.367 . S
C2035 C2034 1.367 . S
C2035 C2037 1.433 . S
C2036 C2032 1.350 . S
C2036 C2033 1.463 . S
C2036 N2040 1.427 . S
C2037 H2027 0.929 . S
C2037 C2035 1.433 . S
C2037 N2040 1.384 . S
C2038 H2029 0.929 . S
C2038 C2030 1.378 . S
C2038 C2033 1.350 . S
C2039 H2026 0.929 . S
C2039 C2031 1.433 . S
C2039 N2041 1.384 . S
N2040 C2036 1.427 . S
N2040 C2037 1.384 . S
N2041 C2033 1.427 . S
N2041 C2039 1.384 . S
H2042 C2048 0.930 . S
H2043 C2052 0.930 . S
H2044 C2057 0.929 . S
H2045 C2055 0.929 . S
H2046 C2050 0.929 . S
H2047 C2056 0.929 . S
C2048 H2042 0.930 . S
C2048 C2049 1.367 . S
C2048 C2056 1.378 . S
C2049 C2048 1.367 . S
C2049 C2057 1.433 . S
C2050 H2046 0.929 . S
C2050 C2052 1.378 . S
C2050 C2054 1.350 . S
C2051 C2054 1.463 . S
C2051 C2056 1.350 . S
C2051 N2059 1.427 . S
C2052 H2043 0.930 . S
C2052 C2050 1.378 . S
C2052 C2053 1.367 . S
C2053 C2052 1.367 . S
C2053 C2055 1.433 . S
C2054 C2050 1.350 . S
C2054 C2051 1.463 . S
C2054 N2058 1.427 . S
C2055 H2045 0.929 . S
C2055 C2053 1.433 . S
C2055 N2058 1.384 . S
C2056 H2047 0.929 . S
C2056 C2048 1.378 . S
C2056 C2051 1.350 . S
C2057 H2044 0.929 . S
C2057 C2049 1.433 . S
C2057 N2059 1.384 . S
N2058 C2054 1.427 . S
N2058 C2055 1.384 . S
N2059 C2051 1.427 . S
N2059 C2057 1.384 . S
H2060 C2066 0.930 . S
H2061 C2070 0.930 . S
H2062 C2075 0.929 . S
H2063 C2073 0.929 . S
H2064 C2068 0.929 . S
H2065 C2074 0.929 . S
C2066 H2060 0.930 . S
C2066 C2067 1.367 . S
C2066 C2074 1.378 . S
C2067 C2066 1.367 . S
C2067 C2075 1.433 . S
C2068 H2064 0.929 . S
C2068 C2070 1.378 . S
C2068 C2072 1.350 . S
C2069 C2072 1.463 . S
C2069 C2074 1.350 . S
C2069 N2077 1.427 . S
C2070 H2061 0.930 . S
C2070 C2068 1.378 . S
C2070 C2071 1.367 . S
C2071 C2070 1.367 . S
C2071 C2073 1.433 . S
C2072 C2068 1.350 . S
C2072 C2069 1.463 . S
C2072 N2076 1.427 . S
C2073 H2063 0.929 . S
C2073 C2071 1.433 . S
C2073 N2076 1.384 . S
C2074 H2065 0.929 . S
C2074 C2066 1.378 . S
C2074 C2069 1.350 . S
C2075 H2062 0.929 . S
C2075 C2067 1.433 . S
C2075 N2077 1.384 . S
N2076 C2072 1.427 . S
N2076 C2073 1.384 . S
N2077 C2069 1.427 . S
N2077 C2075 1.384 . S
H2078 C2084 0.930 . S
H2079 C2088 0.930 . S
H2080 C2093 0.929 . S
H2081 C2091 0.929 . S
H2082 C2086 0.929 . S
H2083 C2092 0.929 . S
C2084 H2078 0.930 . S
C2084 C2085 1.367 . S
C2084 C2092 1.378 . S
C2085 C2084 1.367 . S
C2085 C2093 1.433 . S
C2086 H2082 0.929 . S
C2086 C2088 1.378 . S
C2086 C2090 1.350 . S
C2087 C2090 1.463 . S
C2087 C2092 1.350 . S
C2087 N2095 1.427 . S
C2088 H2079 0.930 . S
C2088 C2086 1.378 . S
C2088 C2089 1.367 . S
C2089 C2088 1.367 . S
C2089 C2091 1.433 . S
C2090 C2086 1.350 . S
C2090 C2087 1.463 . S
C2090 N2094 1.427 . S
C2091 H2081 0.929 . S
C2091 C2089 1.433 . S
C2091 N2094 1.384 . S
C2092 H2083 0.929 . S
C2092 C2084 1.378 . S
C2092 C2087 1.350 . S
C2093 H2080 0.929 . S
C2093 C2085 1.433 . S
C2093 N2095 1.384 . S
N2094 C2090 1.427 . S
N2094 C2091 1.384 . S
N2095 C2087 1.427 . S
N2095 C2093 1.384 . S
H2096 C2102 0.930 . S
H2097 C2106 0.930 . S
H2098 C2111 0.929 . S
H2099 C2109 0.929 . S
H2100 C2104 0.929 . S
H2101 C2110 0.929 . S
C2102 H2096 0.930 . S
C2102 C2103 1.367 . S
C2102 C2110 1.378 . S
C2103 C2102 1.367 . S
C2103 C2111 1.433 . S
C2104 H2100 0.929 . S
C2104 C2106 1.378 . S
C2104 C2108 1.350 . S
C2105 C2108 1.463 . S
C2105 C2110 1.350 . S
C2105 N2113 1.427 . S
C2106 H2097 0.930 . S
C2106 C2104 1.378 . S
C2106 C2107 1.367 . S
C2107 C2106 1.367 . S
C2107 C2109 1.433 . S
C2108 C2104 1.350 . S
C2108 C2105 1.463 . S
C2108 N2112 1.427 . S
C2109 H2099 0.929 . S
C2109 C2107 1.433 . S
C2109 N2112 1.384 . S
C2110 H2101 0.929 . S
C2110 C2102 1.378 . S
C2110 C2105 1.350 . S
C2111 H2098 0.929 . S
C2111 C2103 1.433 . S
C2111 N2113 1.384 . S
N2112 C2108 1.427 . S
N2112 C2109 1.384 . S
N2113 C2105 1.427 . S
N2113 C2111 1.384 . S
H2114 C2120 0.930 . S
H2115 C2124 0.930 . S
H2116 C2129 0.929 . S
H2117 C2127 0.929 . S
H2118 C2122 0.929 . S
H2119 C2128 0.929 . S
C2120 H2114 0.930 . S
C2120 C2121 1.367 . S
C2120 C2128 1.378 . S
C2121 C2120 1.367 . S
C2121 C2129 1.433 . S
C2122 H2118 0.929 . S
C2122 C2124 1.378 . S
C2122 C2126 1.350 . S
C2123 C2126 1.463 . S
C2123 C2128 1.350 . S
C2123 N2131 1.427 . S
C2124 H2115 0.930 . S
C2124 C2122 1.378 . S
C2124 C2125 1.367 . S
C2125 C2124 1.367 . S
C2125 C2127 1.433 . S
C2126 C2122 1.350 . S
C2126 C2123 1.463 . S
C2126 N2130 1.427 . S
C2127 H2117 0.929 . S
C2127 C2125 1.433 . S
C2127 N2130 1.384 . S
C2128 H2119 0.929 . S
C2128 C2120 1.378 . S
C2128 C2123 1.350 . S
C2129 H2116 0.929 . S
C2129 C2121 1.433 . S
C2129 N2131 1.384 . S
N2130 C2126 1.427 . S
N2130 C2127 1.384 . S
N2131 C2123 1.427 . S
N2131 C2129 1.384 . S
H2132 C2138 0.930 . S
H2133 C2142 0.930 . S
H2134 C2147 0.929 . S
H2135 C2145 0.929 . S
H2136 C2140 0.929 . S
H2137 C2146 0.929 . S
C2138 H2132 0.930 . S
C2138 C2139 1.367 . S
C2138 C2146 1.378 . S
C2139 C2138 1.367 . S
C2139 C2147 1.433 . S
C2140 H2136 0.929 . S
C2140 C2142 1.378 . S
C2140 C2144 1.350 . S
C2141 C2144 1.463 . S
C2141 C2146 1.350 . S
C2141 N2149 1.427 . S
C2142 H2133 0.930 . S
C2142 C2140 1.378 . S
C2142 C2143 1.367 . S
C2143 C2142 1.367 . S
C2143 C2145 1.433 . S
C2144 C2140 1.350 . S
C2144 C2141 1.463 . S
C2144 N2148 1.427 . S
C2145 H2135 0.929 . S
C2145 C2143 1.433 . S
C2145 N2148 1.384 . S
C2146 H2137 0.929 . S
C2146 C2138 1.378 . S
C2146 C2141 1.350 . S
C2147 H2134 0.929 . S
C2147 C2139 1.433 . S
C2147 N2149 1.384 . S
N2148 C2144 1.427 . S
N2148 C2145 1.384 . S
N2149 C2141 1.427 . S
N2149 C2147 1.384 . S
H2150 C2156 0.930 . S
H2151 C2160 0.930 . S
H2152 C2165 0.929 . S
H2153 C2163 0.929 . S
H2154 C2158 0.929 . S
H2155 C2164 0.929 . S
C2156 H2150 0.930 . S
C2156 C2157 1.367 . S
C2156 C2164 1.378 . S
C2157 C2156 1.367 . S
C2157 C2165 1.433 . S
C2158 H2154 0.929 . S
C2158 C2160 1.378 . S
C2158 C2162 1.350 . S
C2159 C2162 1.463 . S
C2159 C2164 1.350 . S
C2159 N2167 1.427 . S
C2160 H2151 0.930 . S
C2160 C2158 1.378 . S
C2160 C2161 1.367 . S
C2161 C2160 1.367 . S
C2161 C2163 1.433 . S
C2162 C2158 1.350 . S
C2162 C2159 1.463 . S
C2162 N2166 1.427 . S
C2163 H2153 0.929 . S
C2163 C2161 1.433 . S
C2163 N2166 1.384 . S
C2164 H2155 0.929 . S
C2164 C2156 1.378 . S
C2164 C2159 1.350 . S
C2165 H2152 0.929 . S
C2165 C2157 1.433 . S
C2165 N2167 1.384 . S
N2166 C2162 1.427 . S
N2166 C2163 1.384 . S
N2167 C2159 1.427 . S
N2167 C2165 1.384 . S
H2168 C2174 0.930 . S
H2169 C2178 0.930 . S
H2170 C2183 0.929 . S
H2171 C2181 0.929 . S
H2172 C2176 0.929 . S
H2173 C2182 0.929 . S
C2174 H2168 0.930 . S
C2174 C2175 1.367 . S
C2174 C2182 1.378 . S
C2175 C2174 1.367 . S
C2175 C2183 1.433 . S
C2176 H2172 0.929 . S
C2176 C2178 1.378 . S
C2176 C2180 1.350 . S
C2177 C2180 1.463 . S
C2177 C2182 1.350 . S
C2177 N2185 1.427 . S
C2178 H2169 0.930 . S
C2178 C2176 1.378 . S
C2178 C2179 1.367 . S
C2179 C2178 1.367 . S
C2179 C2181 1.433 . S
C2180 C2176 1.350 . S
C2180 C2177 1.463 . S
C2180 N2184 1.427 . S
C2181 H2171 0.929 . S
C2181 C2179 1.433 . S
C2181 N2184 1.384 . S
C2182 H2173 0.929 . S
C2182 C2174 1.378 . S
C2182 C2177 1.350 . S
C2183 H2170 0.929 . S
C2183 C2175 1.433 . S
C2183 N2185 1.384 . S
N2184 C2180 1.427 . S
N2184 C2181 1.384 . S
N2185 C2177 1.427 . S
N2185 C2183 1.384 . S
H2186 C2192 0.930 . S
H2187 C2196 0.930 . S
H2188 C2201 0.929 . S
H2189 C2199 0.929 . S
H2190 C2194 0.929 . S
H2191 C2200 0.929 . S
C2192 H2186 0.930 . S
C2192 C2193 1.367 . S
C2192 C2200 1.378 . S
C2193 C2192 1.367 . S
C2193 C2201 1.433 . S
C2194 H2190 0.929 . S
C2194 C2196 1.378 . S
C2194 C2198 1.350 . S
C2195 C2198 1.463 . S
C2195 C2200 1.350 . S
C2195 N2203 1.427 . S
C2196 H2187 0.930 . S
C2196 C2194 1.378 . S
C2196 C2197 1.367 . S
C2197 C2196 1.367 . S
C2197 C2199 1.433 . S
C2198 C2194 1.350 . S
C2198 C2195 1.463 . S
C2198 N2202 1.427 . S
C2199 H2189 0.929 . S
C2199 C2197 1.433 . S
C2199 N2202 1.384 . S
C2200 H2191 0.929 . S
C2200 C2192 1.378 . S
C2200 C2195 1.350 . S
C2201 H2188 0.929 . S
C2201 C2193 1.433 . S
C2201 N2203 1.384 . S
N2202 C2198 1.427 . S
N2202 C2199 1.384 . S
N2203 C2195 1.427 . S
N2203 C2201 1.384 . S
H2204 C2210 0.930 . S
H2205 C2214 0.930 . S
H2206 C2219 0.929 . S
H2207 C2217 0.929 . S
H2208 C2212 0.929 . S
H2209 C2218 0.929 . S
C2210 H2204 0.930 . S
C2210 C2211 1.367 . S
C2210 C2218 1.378 . S
C2211 C2210 1.367 . S
C2211 C2219 1.433 . S
C2212 H2208 0.929 . S
C2212 C2214 1.378 . S
C2212 C2216 1.350 . S
C2213 C2216 1.463 . S
C2213 C2218 1.350 . S
C2213 N2221 1.427 . S
C2214 H2205 0.930 . S
C2214 C2212 1.378 . S
C2214 C2215 1.367 . S
C2215 C2214 1.367 . S
C2215 C2217 1.433 . S
C2216 C2212 1.350 . S
C2216 C2213 1.463 . S
C2216 N2220 1.427 . S
C2217 H2207 0.929 . S
C2217 C2215 1.433 . S
C2217 N2220 1.384 . S
C2218 H2209 0.929 . S
C2218 C2210 1.378 . S
C2218 C2213 1.350 . S
C2219 H2206 0.929 . S
C2219 C2211 1.433 . S
C2219 N2221 1.384 . S
N2220 C2216 1.427 . S
N2220 C2217 1.384 . S
N2221 C2213 1.427 . S
N2221 C2219 1.384 . S
H2222 C2228 0.930 . S
H2223 C2232 0.930 . S
H2224 C2237 0.929 . S
H2225 C2235 0.929 . S
H2226 C2230 0.929 . S
H2227 C2236 0.929 . S
C2228 H2222 0.930 . S
C2228 C2229 1.367 . S
C2228 C2236 1.378 . S
C2229 C2228 1.367 . S
C2229 C2237 1.433 . S
C2230 H2226 0.929 . S
C2230 C2232 1.378 . S
C2230 C2234 1.350 . S
C2231 C2234 1.463 . S
C2231 C2236 1.350 . S
C2231 N2239 1.427 . S
C2232 H2223 0.930 . S
C2232 C2230 1.378 . S
C2232 C2233 1.367 . S
C2233 C2232 1.367 . S
C2233 C2235 1.433 . S
C2234 C2230 1.350 . S
C2234 C2231 1.463 . S
C2234 N2238 1.427 . S
C2235 H2225 0.929 . S
C2235 C2233 1.433 . S
C2235 N2238 1.384 . S
C2236 H2227 0.929 . S
C2236 C2228 1.378 . S
C2236 C2231 1.350 . S
C2237 H2224 0.929 . S
C2237 C2229 1.433 . S
C2237 N2239 1.384 . S
N2238 C2234 1.427 . S
N2238 C2235 1.384 . S
N2239 C2231 1.427 . S
N2239 C2237 1.384 . S
H2240 C2246 0.930 . S
H2241 C2250 0.930 . S
H2242 C2255 0.929 . S
H2243 C2253 0.929 . S
H2244 C2248 0.929 . S
H2245 C2254 0.929 . S
C2246 H2240 0.930 . S
C2246 C2247 1.367 . S
C2246 C2254 1.378 . S
C2247 C2246 1.367 . S
C2247 C2255 1.433 . S
C2248 H2244 0.929 . S
C2248 C2250 1.378 . S
C2248 C2252 1.350 . S
C2249 C2252 1.463 . S
C2249 C2254 1.350 . S
C2249 N2257 1.427 . S
C2250 H2241 0.930 . S
C2250 C2248 1.378 . S
C2250 C2251 1.367 . S
C2251 C2250 1.367 . S
C2251 C2253 1.433 . S
C2252 C2248 1.350 . S
C2252 C2249 1.463 . S
C2252 N2256 1.427 . S
C2253 H2243 0.929 . S
C2253 C2251 1.433 . S
C2253 N2256 1.384 . S
C2254 H2245 0.929 . S
C2254 C2246 1.378 . S
C2254 C2249 1.350 . S
C2255 H2242 0.929 . S
C2255 C2247 1.433 . S
C2255 N2257 1.384 . S
N2256 C2252 1.427 . S
N2256 C2253 1.384 . S
N2257 C2249 1.427 . S
N2257 C2255 1.384 . S
H2258 C2264 0.930 . S
H2259 C2268 0.930 . S
H2260 C2273 0.929 . S
H2261 C2271 0.929 . S
H2262 C2266 0.929 . S
H2263 C2272 0.929 . S
C2264 H2258 0.930 . S
C2264 C2265 1.367 . S
C2264 C2272 1.378 . S
C2265 C2264 1.367 . S
C2265 C2273 1.433 . S
C2266 H2262 0.929 . S
C2266 C2268 1.378 . S
C2266 C2270 1.350 . S
C2267 C2270 1.463 1_655 S
C2267 C2272 1.350 . S
C2267 N2275 1.427 . S
C2268 H2259 0.930 . S
C2268 C2266 1.378 . S
C2268 C2269 1.367 . S
C2269 C2268 1.367 . S
C2269 C2271 1.433 . S
C2270 C2266 1.350 . S
C2270 C2267 1.463 1_455 S
C2270 N2274 1.427 . S
C2271 H2261 0.929 . S
C2271 C2269 1.433 . S
C2271 N2274 1.384 . S
C2272 H2263 0.929 . S
C2272 C2264 1.378 . S
C2272 C2267 1.350 . S
C2273 H2260 0.929 . S
C2273 C2265 1.433 . S
C2273 N2275 1.384 . S
N2274 C2270 1.427 . S
N2274 C2271 1.384 . S
N2275 C2267 1.427 . S
N2275 C2273 1.384 . S
H2276 C2282 0.930 1_455 S
H2277 C2286 0.930 1_655 S
H2278 C2291 0.929 . S
H2279 C2289 0.929 . S
H2280 C2284 0.929 . S
H2281 C2290 0.929 . S
C2282 H2276 0.930 1_655 S
C2282 C2283 1.367 . S
C2282 C2290 1.378 1_655 S
C2283 C2282 1.367 . S
C2283 C2291 1.433 . S
C2284 H2280 0.929 . S
C2284 C2286 1.378 1_655 S
C2284 C2288 1.350 1_655 S
C2285 C2288 1.463 1_655 S
C2285 C2290 1.350 1_655 S
C2285 N2293 1.427 . S
C2286 H2277 0.930 1_455 S
C2286 C2284 1.378 1_455 S
C2286 C2287 1.367 . S
C2287 C2286 1.367 . S
C2287 C2289 1.433 . S
C2288 C2284 1.350 1_455 S
C2288 C2285 1.463 1_455 S
C2288 N2292 1.427 . S
C2289 H2279 0.929 . S
C2289 C2287 1.433 . S
C2289 N2292 1.384 . S
C2290 H2281 0.929 . S
C2290 C2282 1.378 1_455 S
C2290 C2285 1.350 1_455 S
C2291 H2278 0.929 . S
C2291 C2283 1.433 . S
C2291 N2293 1.384 . S
N2292 C2288 1.427 . S
N2292 C2289 1.384 . S
N2293 C2285 1.427 . S
N2293 C2291 1.384 . S
H2294 C2300 0.930 . S
H2295 C2304 0.930 . S
H2296 C2309 0.929 . S
H2297 C2307 0.929 . S
H2298 C2302 0.929 . S
H2299 C2308 0.929 . S
C2300 H2294 0.930 . S
C2300 C2301 1.367 . S
C2300 C2308 1.378 . S
C2301 C2300 1.367 . S
C2301 C2309 1.433 . S
C2302 H2298 0.929 . S
C2302 C2304 1.378 . S
C2302 C2306 1.350 . S
C2303 C2306 1.463 . S
C2303 C2308 1.350 . S
C2303 N2311 1.427 . S
C2304 H2295 0.930 . S
C2304 C2302 1.378 . S
C2304 C2305 1.367 . S
C2305 C2304 1.367 . S
C2305 C2307 1.433 . S
C2306 C2302 1.350 . S
C2306 C2303 1.463 . S
C2306 N2310 1.427 . S
C2307 H2297 0.929 . S
C2307 C2305 1.433 . S
C2307 N2310 1.384 . S
C2308 H2299 0.929 . S
C2308 C2300 1.378 . S
C2308 C2303 1.350 . S
C2309 H2296 0.929 . S
C2309 C2301 1.433 . S
C2309 N2311 1.384 . S
N2310 C2306 1.427 . S
N2310 C2307 1.384 . S
N2311 C2303 1.427 . S
N2311 C2309 1.384 . S
H2312 C2318 0.930 . S
H2313 C2322 0.930 . S
H2314 C2327 0.929 . S
H2315 C2325 0.929 . S
H2316 C2320 0.929 . S
H2317 C2326 0.929 . S
C2318 H2312 0.930 . S
C2318 C2319 1.367 . S
C2318 C2326 1.378 . S
C2319 C2318 1.367 . S
C2319 C2327 1.433 . S
C2320 H2316 0.929 . S
C2320 C2322 1.378 . S
C2320 C2324 1.350 . S
C2321 C2324 1.463 . S
C2321 C2326 1.350 . S
C2321 N2329 1.427 . S
C2322 H2313 0.930 . S
C2322 C2320 1.378 . S
C2322 C2323 1.367 . S
C2323 C2322 1.367 . S
C2323 C2325 1.433 . S
C2324 C2320 1.350 . S
C2324 C2321 1.463 . S
C2324 N2328 1.427 . S
C2325 H2315 0.929 . S
C2325 C2323 1.433 . S
C2325 N2328 1.384 . S
C2326 H2317 0.929 . S
C2326 C2318 1.378 . S
C2326 C2321 1.350 . S
C2327 H2314 0.929 . S
C2327 C2319 1.433 . S
C2327 N2329 1.384 . S
N2328 C2324 1.427 . S
N2328 C2325 1.384 . S
N2329 C2321 1.427 . S
N2329 C2327 1.384 . S
H2330 C2336 0.930 . S
H2331 C2340 0.930 . S
H2332 C2345 0.929 . S
H2333 C2343 0.929 . S
H2334 C2338 0.929 . S
H2335 C2344 0.929 . S
C2336 H2330 0.930 . S
C2336 C2337 1.367 . S
C2336 C2344 1.378 . S
C2337 C2336 1.367 . S
C2337 C2345 1.433 . S
C2338 H2334 0.929 . S
C2338 C2340 1.378 . S
C2338 C2342 1.350 . S
C2339 C2342 1.463 . S
C2339 C2344 1.350 . S
C2339 N2347 1.427 . S
C2340 H2331 0.930 . S
C2340 C2338 1.378 . S
C2340 C2341 1.367 . S
C2341 C2340 1.367 . S
C2341 C2343 1.433 . S
C2342 C2338 1.350 . S
C2342 C2339 1.463 . S
C2342 N2346 1.427 . S
C2343 H2333 0.929 . S
C2343 C2341 1.433 . S
C2343 N2346 1.384 . S
C2344 H2335 0.929 . S
C2344 C2336 1.378 . S
C2344 C2339 1.350 . S
C2345 H2332 0.929 . S
C2345 C2337 1.433 . S
C2345 N2347 1.384 . S
N2346 C2342 1.427 . S
N2346 C2343 1.384 . S
N2347 C2339 1.427 . S
N2347 C2345 1.384 . S
H2348 C2354 0.930 1_655 S
H2349 C2358 0.930 1_455 S
H2350 C2363 0.929 . S
H2351 C2361 0.929 . S
H2352 C2356 0.929 . S
H2353 C2362 0.929 . S
C2354 H2348 0.930 1_455 S
C2354 C2355 1.367 . S
C2354 C2362 1.378 1_455 S
C2355 C2354 1.367 . S
C2355 C2363 1.433 . S
C2356 H2352 0.929 . S
C2356 C2358 1.378 1_455 S
C2356 C2360 1.350 1_455 S
C2357 C2360 1.463 1_455 S
C2357 C2362 1.350 1_455 S
C2357 N2365 1.427 . S
C2358 H2349 0.930 1_655 S
C2358 C2356 1.378 1_655 S
C2358 C2359 1.367 . S
C2359 C2358 1.367 . S
C2359 C2361 1.433 . S
C2360 C2356 1.350 1_655 S
C2360 C2357 1.463 1_655 S
C2360 N2364 1.427 . S
C2361 H2351 0.929 . S
C2361 C2359 1.433 . S
C2361 N2364 1.384 . S
C2362 H2353 0.929 . S
C2362 C2354 1.378 1_655 S
C2362 C2357 1.350 1_655 S
C2363 H2350 0.929 . S
C2363 C2355 1.433 . S
C2363 N2365 1.384 . S
N2364 C2360 1.427 . S
N2364 C2361 1.384 . S
N2365 C2357 1.427 . S
N2365 C2363 1.384 . S
H2366 C2372 0.930 . S
H2367 C2376 0.930 . S
H2368 C2381 0.929 . S
H2369 C2379 0.929 . S
H2370 C2374 0.929 . S
H2371 C2380 0.929 . S
C2372 H2366 0.930 . S
C2372 C2373 1.367 . S
C2372 C2380 1.378 . S
C2373 C2372 1.367 . S
C2373 C2381 1.433 . S
C2374 H2370 0.929 . S
C2374 C2376 1.378 . S
C2374 C2378 1.350 . S
C2375 C2378 1.463 1_655 S
C2375 C2380 1.350 . S
C2375 N2383 1.427 . S
C2376 H2367 0.930 . S
C2376 C2374 1.378 . S
C2376 C2377 1.367 . S
C2377 C2376 1.367 . S
C2377 C2379 1.433 . S
C2378 C2374 1.350 . S
C2378 C2375 1.463 1_455 S
C2378 N2382 1.427 . S
C2379 H2369 0.929 . S
C2379 C2377 1.433 . S
C2379 N2382 1.384 . S
C2380 H2371 0.929 . S
C2380 C2372 1.378 . S
C2380 C2375 1.350 . S
C2381 H2368 0.929 . S
C2381 C2373 1.433 . S
C2381 N2383 1.384 . S
N2382 C2378 1.427 . S
N2382 C2379 1.384 . S
N2383 C2375 1.427 . S
N2383 C2381 1.384 . S
H2384 C2390 0.930 . S
H2385 C2394 0.930 . S
H2386 C2399 0.929 . S
H2387 C2397 0.929 . S
H2388 C2392 0.929 . S
H2389 C2398 0.929 . S
C2390 H2384 0.930 . S
C2390 C2391 1.367 . S
C2390 C2398 1.378 . S
C2391 C2390 1.367 . S
C2391 C2399 1.433 . S
C2392 H2388 0.929 . S
C2392 C2394 1.378 . S
C2392 C2396 1.350 . S
C2393 C2396 1.463 . S
C2393 C2398 1.350 . S
C2393 N2401 1.427 . S
C2394 H2385 0.930 . S
C2394 C2392 1.378 . S
C2394 C2395 1.367 . S
C2395 C2394 1.367 . S
C2395 C2397 1.433 . S
C2396 C2392 1.350 . S
C2396 C2393 1.463 . S
C2396 N2400 1.427 . S
C2397 H2387 0.929 . S
C2397 C2395 1.433 . S
C2397 N2400 1.384 . S
C2398 H2389 0.929 . S
C2398 C2390 1.378 . S
C2398 C2393 1.350 . S
C2399 H2386 0.929 . S
C2399 C2391 1.433 . S
C2399 N2401 1.384 . S
N2400 C2396 1.427 . S
N2400 C2397 1.384 . S
N2401 C2393 1.427 . S
N2401 C2399 1.384 . S
H2402 C2408 0.930 . S
H2403 C2412 0.930 . S
H2404 C2417 0.929 . S
H2405 C2415 0.929 . S
H2406 C2410 0.929 . S
H2407 C2416 0.929 . S
C2408 H2402 0.930 . S
C2408 C2409 1.367 . S
C2408 C2416 1.378 . S
C2409 C2408 1.367 . S
C2409 C2417 1.433 . S
C2410 H2406 0.929 . S
C2410 C2412 1.378 . S
C2410 C2414 1.350 . S
C2411 C2414 1.463 1_655 S
C2411 C2416 1.350 . S
C2411 N2419 1.427 . S
C2412 H2403 0.930 . S
C2412 C2410 1.378 . S
C2412 C2413 1.367 . S
C2413 C2412 1.367 . S
C2413 C2415 1.433 . S
C2414 C2410 1.350 . S
C2414 C2411 1.463 1_455 S
C2414 N2418 1.427 . S
C2415 H2405 0.929 . S
C2415 C2413 1.433 . S
C2415 N2418 1.384 . S
C2416 H2407 0.929 . S
C2416 C2408 1.378 . S
C2416 C2411 1.350 . S
C2417 H2404 0.929 . S
C2417 C2409 1.433 . S
C2417 N2419 1.384 . S
N2418 C2414 1.427 . S
N2418 C2415 1.384 . S
N2419 C2411 1.427 . S
N2419 C2417 1.384 . S
H2420 C2426 0.930 . S
H2421 C2430 0.930 . S
H2422 C2435 0.929 . S
H2423 C2433 0.929 . S
H2424 C2428 0.929 1_655 S
H2425 C2434 0.929 1_455 S
C2426 H2420 0.930 . S
C2426 C2427 1.367 . S
C2426 C2434 1.378 . S
C2427 C2426 1.367 . S
C2427 C2435 1.433 . S
C2428 H2424 0.929 1_455 S
C2428 C2430 1.378 . S
C2428 C2432 1.350 . S
C2429 C2432 1.463 1_655 S
C2429 C2434 1.350 . S
C2429 N2437 1.427 . S
C2430 H2421 0.930 . S
C2430 C2428 1.378 . S
C2430 C2431 1.367 . S
C2431 C2430 1.367 . S
C2431 C2433 1.433 . S
C2432 C2428 1.350 . S
C2432 C2429 1.463 1_455 S
C2432 N2436 1.427 . S
C2433 H2423 0.929 . S
C2433 C2431 1.433 . S
C2433 N2436 1.384 . S
C2434 H2425 0.929 1_655 S
C2434 C2426 1.378 . S
C2434 C2429 1.350 . S
C2435 H2422 0.929 . S
C2435 C2427 1.433 . S
C2435 N2437 1.384 . S
N2436 C2432 1.427 . S
N2436 C2433 1.384 . S
N2437 C2429 1.427 . S
N2437 C2435 1.384 . S
H2438 C2444 0.930 . S
H2439 C2448 0.930 . S
H2440 C2453 0.929 . S
H2441 C2451 0.929 . S
H2442 C2446 0.929 . S
H2443 C2452 0.929 . S
C2444 H2438 0.930 . S
C2444 C2445 1.367 . S
C2444 C2452 1.378 . S
C2445 C2444 1.367 . S
C2445 C2453 1.433 . S
C2446 H2442 0.929 . S
C2446 C2448 1.378 . S
C2446 C2450 1.350 . S
C2447 C2450 1.463 . S
C2447 C2452 1.350 . S
C2447 N2455 1.427 . S
C2448 H2439 0.930 . S
C2448 C2446 1.378 . S
C2448 C2449 1.367 . S
C2449 C2448 1.367 . S
C2449 C2451 1.433 . S
C2450 C2446 1.350 . S
C2450 C2447 1.463 . S
C2450 N2454 1.427 . S
C2451 H2441 0.929 . S
C2451 C2449 1.433 . S
C2451 N2454 1.384 . S
C2452 H2443 0.929 . S
C2452 C2444 1.378 . S
C2452 C2447 1.350 . S
C2453 H2440 0.929 . S
C2453 C2445 1.433 . S
C2453 N2455 1.384 . S
N2454 C2450 1.427 . S
N2454 C2451 1.384 . S
N2455 C2447 1.427 . S
N2455 C2453 1.384 . S
H2456 C2462 0.930 . S
H2457 C2466 0.930 . S
H2458 C2471 0.929 . S
H2459 C2469 0.929 . S
H2460 C2464 0.929 . S
H2461 C2470 0.929 . S
C2462 H2456 0.930 . S
C2462 C2463 1.367 . S
C2462 C2470 1.378 . S
C2463 C2462 1.367 . S
C2463 C2471 1.433 . S
C2464 H2460 0.929 . S
C2464 C2466 1.378 . S
C2464 C2468 1.350 . S
C2465 C2468 1.463 . S
C2465 C2470 1.350 . S
C2465 N2473 1.427 . S
C2466 H2457 0.930 . S
C2466 C2464 1.378 . S
C2466 C2467 1.367 . S
C2467 C2466 1.367 . S
C2467 C2469 1.433 . S
C2468 C2464 1.350 . S
C2468 C2465 1.463 . S
C2468 N2472 1.427 . S
C2469 H2459 0.929 . S
C2469 C2467 1.433 . S
C2469 N2472 1.384 . S
C2470 H2461 0.929 . S
C2470 C2462 1.378 . S
C2470 C2465 1.350 . S
C2471 H2458 0.929 . S
C2471 C2463 1.433 . S
C2471 N2473 1.384 . S
N2472 C2468 1.427 . S
N2472 C2469 1.384 . S
N2473 C2465 1.427 . S
N2473 C2471 1.384 . S
H2474 C2480 0.930 . S
H2475 C2484 0.930 . S
H2476 C2489 0.929 . S
H2477 C2487 0.929 . S
H2478 C2482 0.929 . S
H2479 C2488 0.929 . S
C2480 H2474 0.930 . S
C2480 C2481 1.367 . S
C2480 C2488 1.378 . S
C2481 C2480 1.367 . S
C2481 C2489 1.433 . S
C2482 H2478 0.929 . S
C2482 C2484 1.378 . S
C2482 C2486 1.350 . S
C2483 C2486 1.463 . S
C2483 C2488 1.350 . S
C2483 N2491 1.427 . S
C2484 H2475 0.930 . S
C2484 C2482 1.378 . S
C2484 C2485 1.367 . S
C2485 C2484 1.367 . S
C2485 C2487 1.433 . S
C2486 C2482 1.350 . S
C2486 C2483 1.463 . S
C2486 N2490 1.427 . S
C2487 H2477 0.929 . S
C2487 C2485 1.433 . S
C2487 N2490 1.384 . S
C2488 H2479 0.929 . S
C2488 C2480 1.378 . S
C2488 C2483 1.350 . S
C2489 H2476 0.929 . S
C2489 C2481 1.433 . S
C2489 N2491 1.384 . S
N2490 C2486 1.427 . S
N2490 C2487 1.384 . S
N2491 C2483 1.427 . S
N2491 C2489 1.384 . S
H2492 C2498 0.930 . S
H2493 C2502 0.930 . S
H2494 C2507 0.929 . S
H2495 C2505 0.929 . S
H2496 C2500 0.929 . S
H2497 C2506 0.929 . S
C2498 H2492 0.930 . S
C2498 C2499 1.367 . S
C2498 C2506 1.378 . S
C2499 C2498 1.367 . S
C2499 C2507 1.433 1_655 S
C2500 H2496 0.929 . S
C2500 C2502 1.378 . S
C2500 C2504 1.350 . S
C2501 C2504 1.463 1_655 S
C2501 C2506 1.350 . S
C2501 N2509 1.427 1_655 S
C2502 H2493 0.930 . S
C2502 C2500 1.378 . S
C2502 C2503 1.367 . S
C2503 C2502 1.367 . S
C2503 C2505 1.433 1_455 S
C2504 C2500 1.350 . S
C2504 C2501 1.463 1_455 S
C2504 N2508 1.427 1_455 S
C2505 H2495 0.929 . S
C2505 C2503 1.433 1_655 S
C2505 N2508 1.384 . S
C2506 H2497 0.929 . S
C2506 C2498 1.378 . S
C2506 C2501 1.350 . S
C2507 H2494 0.929 . S
C2507 C2499 1.433 1_455 S
C2507 N2509 1.384 . S
N2508 C2504 1.427 1_655 S
N2508 C2505 1.384 . S
N2509 C2501 1.427 1_455 S
N2509 C2507 1.384 . S
H2510 C2516 0.930 . S
H2511 C2520 0.930 . S
H2512 C2525 0.929 . S
H2513 C2523 0.929 . S
H2514 C2518 0.929 . S
H2515 C2524 0.929 . S
C2516 H2510 0.930 . S
C2516 C2517 1.367 . S
C2516 C2524 1.378 . S
C2517 C2516 1.367 . S
C2517 C2525 1.433 . S
C2518 H2514 0.929 . S
C2518 C2520 1.378 . S
C2518 C2522 1.350 . S
C2519 C2522 1.463 1_455 S
C2519 C2524 1.350 . S
C2519 N2527 1.427 . S
C2520 H2511 0.930 . S
C2520 C2518 1.378 . S
C2520 C2521 1.367 . S
C2521 C2520 1.367 . S
C2521 C2523 1.433 . S
C2522 C2518 1.350 . S
C2522 C2519 1.463 1_655 S
C2522 N2526 1.427 . S
C2523 H2513 0.929 . S
C2523 C2521 1.433 . S
C2523 N2526 1.384 . S
C2524 H2515 0.929 . S
C2524 C2516 1.378 . S
C2524 C2519 1.350 . S
C2525 H2512 0.929 . S
C2525 C2517 1.433 . S
C2525 N2527 1.384 . S
N2526 C2522 1.427 . S
N2526 C2523 1.384 . S
N2527 C2519 1.427 . S
N2527 C2525 1.384 . S
C1095 C2 1.526 . S
C1099 C274 1.526 . S
C1113 C36 1.524 . S
C1117 C852 1.524 . S
C1131 C342 1.523 . S
C1135 C70 1.523 . S
C1149 C920 1.524 . S
C1153 C104 1.524 . S
C1167 C410 1.523 . S
C1171 C138 1.523 . S
C1185 C172 1.525 . S
C1189 C988 1.525 . S
C1203 C478 1.523 . S
C1207 C206 1.523 . S
C1221 C1056 1.522 . S
C1225 C240 1.522 . S
C1239 C308 1.526 . S
C1243 C580 1.526 . S
C1257 C376 1.524 . S
C1261 C648 1.524 . S
C1275 C716 1.523 . S
C1279 C444 1.523 . S
C1293 C512 1.521 . S
C1297 C784 1.521 . S
C1311 C546 1.526 . S
C1315 C818 1.526 . S
C1329 C886 1.524 . S
C1333 C614 1.524 . S
C1347 C954 1.523 . S
C1351 C682 1.523 . S
C1365 C750 1.524 . S
C1369 C1022 1.524 . S
C1383 C5 0.790 . S
C1387 C485 0.767 . S
C1401 C1063 0.779 . S
C1405 C39 0.796 . S
C1419 C417 0.775 . S
C1423 C73 0.794 . S
C1437 C995 0.787 . S
C1441 C107 0.783 . S
C1455 C349 0.756 . S
C1459 C141 0.781 . S
C1473 C175 0.777 . S
C1477 C927 0.754 . S
C1491 C281 0.787 . S
C1495 C209 0.798 . S
C1509 C243 0.782 . S
C1513 C859 0.756 . S
C1527 C277 0.785 . S
C1531 C213 0.789 . S
C1545 C311 0.775 . S
C1549 C791 0.768 . S
C1563 C345 0.778 . S
C1567 C145 0.777 . S
C1581 C723 0.794 . S
C1585 C379 0.798 . S
C1599 C77 0.759 . S
C1603 C413 0.774 . S
C1617 C655 0.756 . S
C1621 C447 0.774 . S
C1635 C481 0.782 . S
C1639 C9 0.785 . S
C1653 C587 0.761 . S
C1657 C515 0.773 . S
C1671 C549 0.796 . S
C1675 C1029 0.781 . S
C1689 C519 0.777 . S
C1693 C583 0.795 . S
C1707 C961 0.754 . S
C1711 C617 0.775 . S
C1725 C651 0.793 . S
C1729 C451 0.796 . S
C1743 C893 0.797 . S
C1747 C685 0.794 . S
C1761 C383 0.767 . S
C1765 C719 0.774 . S
C1779 C753 0.773 . S
C1783 C825 0.762 . S
C1797 C787 0.797 . S
C1801 C315 0.795 . S
C1815 C821 0.791 . S
C1819 C757 0.795 . S
C1833 C855 0.797 . S
C1837 C247 0.784 . S
C1851 C889 0.783 . S
C1855 C689 0.786 . S
C1869 C923 0.785 . S
C1873 C179 0.789 . S
C1887 C621 0.762 . S
C1891 C957 0.787 . S
C1905 C991 0.780 . S
C1909 C111 0.755 . S
C1923 C553 0.769 . S
C1927 C1025 0.775 . S
C1941 C43 0.764 . S
C1945 C1059 0.788 . S
C1959 C258 1.791 . S
C1963 C20 1.790 . S
C1977 C156 1.783 . S
C1981 C54 1.786 . S
C1995 C88 1.782 . S
C1999 C190 1.781 . S
C2013 C122 1.781 . S
C2017 C224 1.782 . S
C2031 C530 1.782 . S
C2035 C292 1.781 . S
C2049 C326 1.791 . S
C2053 C428 1.789 . S
C2067 C462 1.786 . S
C2071 C360 1.783 . S
C2085 C496 1.786 . S
C2089 C394 1.789 . S
C2103 C564 1.790 . S
C2107 C802 1.788 . S
C2121 C598 1.789 . S
C2125 C700 1.786 . S
C2139 C632 1.785 . S
C2143 C734 1.788 . S
C2157 C768 1.788 . S
C2161 C666 1.785 . S
C2175 C1074 1.790 . S
C2179 C836 1.787 . S
C2193 C972 1.791 . S
C2197 C870 1.790 . S
C2211 C904 1.781 . S
C2215 C1006 1.781 . S
C2229 C938 1.791 . S
C2233 C1040 1.789 . S
C2247 C33 2.205 . S
C2251 C645 2.204 . S
C2265 C679 2.204 . S
C2269 C67 2.205 . S
C2283 C577 2.206 . S
C2287 C101 2.204 . S
C2301 C611 2.204 . S
C2305 C135 2.205 . S
C2319 C781 2.204 . S
C2323 C169 2.205 . S
C2337 C815 2.204 . S
C2341 C203 2.205 . S
C2355 C237 2.206 . S
C2359 C713 2.204 . S
C2373 C747 2.205 . S
C2377 C271 2.204 . S
C2391 C917 2.204 . S
C2395 C305 2.205 . S
C2409 C339 2.204 . S
C2413 C951 2.205 . S
C2427 C373 2.204 . S
C2431 C849 2.205 . S
C2445 C407 2.204 . S
C2449 C883 2.205 . S
C2463 C441 2.204 . S
C2467 C1053 2.206 . S
C2481 C1087 2.204 . S
C2485 C475 2.205 . S
C2499 C509 2.204 . S
C2503 C985 2.205 . S
C2517 C1019 2.204 . S
C2521 C543 2.205 . S
