# Generated by pormake.
# Topology lcy-a, (4)-cn, num edge types: 1
# Building blocks:
#     Node 0, Type 0, BuildingBlock: ICAMEG_clean_sbu_1, # of connection points: 4
#     Node 1, Type 0, BuildingBlock: ICAMEG_clean_sbu_1, # of connection points: 4
#     Node 2, Type 0, BuildingBlock: ICAMEG_clean_sbu_1, # of connection points: 4
#     Node 3, Type 0, BuildingBlock: ICAMEG_clean_sbu_1, # of connection points: 4
#     Node 4, Type 0, BuildingBlock: ICAMEG_clean_sbu_1, # of connection points: 4
#     Node 5, Type 0, BuildingBlock: ICAMEG_clean_sbu_1, # of connection points: 4
#     Node 6, Type 0, BuildingBlock: ICAMEG_clean_sbu_1, # of connection points: 4
#     Node 7, Type 0, BuildingBlock: ICAMEG_clean_sbu_1, # of connection points: 4
#     Node 8, Type 0, BuildingBlock: ICAMEG_clean_sbu_1, # of connection points: 4
#     Node 9, Type 0, BuildingBlock: ICAMEG_clean_sbu_1, # of connection points: 4
#     Node 10, Type 0, BuildingBlock: ICAMEG_clean_sbu_1, # of connection points: 4
#     Node 11, Type 0, BuildingBlock: ICAMEG_clean_sbu_1, # of connection points: 4
#     Node 12, Type 0, BuildingBlock: ICAMEG_clean_sbu_1, # of connection points: 4
#     Node 13, Type 0, BuildingBlock: ICAMEG_clean_sbu_1, # of connection points: 4
#     Node 14, Type 0, BuildingBlock: ICAMEG_clean_sbu_1, # of connection points: 4
#     Node 15, Type 0, BuildingBlock: ICAMEG_clean_sbu_1, # of connection points: 4
#     Node 16, Type 0, BuildingBlock: ICAMEG_clean_sbu_1, # of connection points: 4
#     Node 17, Type 0, BuildingBlock: ICAMEG_clean_sbu_1, # of connection points: 4
#     Node 18, Type 0, BuildingBlock: ICAMEG_clean_sbu_1, # of connection points: 4
#     Node 19, Type 0, BuildingBlock: ICAMEG_clean_sbu_1, # of connection points: 4
#     Node 20, Type 0, BuildingBlock: ICAMEG_clean_sbu_1, # of connection points: 4
#     Node 21, Type 0, BuildingBlock: ICAMEG_clean_sbu_1, # of connection points: 4
#     Node 22, Type 0, BuildingBlock: ICAMEG_clean_sbu_1, # of connection points: 4
#     Node 23, Type 0, BuildingBlock: ICAMEG_clean_sbu_1, # of connection points: 4
#     Edge 24, Type (0, 0), BuildingBlock: EZIPEK_clean_linker_0, # of connection points: 2
#     Edge 25, Type (0, 0), BuildingBlock: EZIPEK_clean_linker_0, # of connection points: 2
#     Edge 26, Type (0, 0), BuildingBlock: EZIPEK_clean_linker_0, # of connection points: 2
#     Edge 27, Type (0, 0), BuildingBlock: EZIPEK_clean_linker_0, # of connection points: 2
#     Edge 28, Type (0, 0), BuildingBlock: EZIPEK_clean_linker_0, # of connection points: 2
#     Edge 29, Type (0, 0), BuildingBlock: EZIPEK_clean_linker_0, # of connection points: 2
#     Edge 30, Type (0, 0), BuildingBlock: EZIPEK_clean_linker_0, # of connection points: 2
#     Edge 31, Type (0, 0), BuildingBlock: EZIPEK_clean_linker_0, # of connection points: 2
#     Edge 32, Type (0, 0), BuildingBlock: EZIPEK_clean_linker_0, # of connection points: 2
#     Edge 33, Type (0, 0), BuildingBlock: EZIPEK_clean_linker_0, # of connection points: 2
#     Edge 34, Type (0, 0), BuildingBlock: EZIPEK_clean_linker_0, # of connection points: 2
#     Edge 35, Type (0, 0), BuildingBlock: EZIPEK_clean_linker_0, # of connection points: 2
#     Edge 36, Type (0, 0), BuildingBlock: EZIPEK_clean_linker_0, # of connection points: 2
#     Edge 37, Type (0, 0), BuildingBlock: EZIPEK_clean_linker_0, # of connection points: 2
#     Edge 38, Type (0, 0), BuildingBlock: EZIPEK_clean_linker_0, # of connection points: 2
#     Edge 39, Type (0, 0), BuildingBlock: EZIPEK_clean_linker_0, # of connection points: 2
#     Edge 40, Type (0, 0), BuildingBlock: EZIPEK_clean_linker_0, # of connection points: 2
#     Edge 41, Type (0, 0), BuildingBlock: EZIPEK_clean_linker_0, # of connection points: 2
#     Edge 42, Type (0, 0), BuildingBlock: EZIPEK_clean_linker_0, # of connection points: 2
#     Edge 43, Type (0, 0), BuildingBlock: EZIPEK_clean_linker_0, # of connection points: 2
#     Edge 44, Type (0, 0), BuildingBlock: EZIPEK_clean_linker_0, # of connection points: 2
#     Edge 45, Type (0, 0), BuildingBlock: EZIPEK_clean_linker_0, # of connection points: 2
#     Edge 46, Type (0, 0), BuildingBlock: EZIPEK_clean_linker_0, # of connection points: 2
#     Edge 47, Type (0, 0), BuildingBlock: EZIPEK_clean_linker_0, # of connection points: 2
#     Edge 48, Type (0, 0), BuildingBlock: EZIPEK_clean_linker_0, # of connection points: 2
#     Edge 49, Type (0, 0), BuildingBlock: EZIPEK_clean_linker_0, # of connection points: 2
#     Edge 50, Type (0, 0), BuildingBlock: EZIPEK_clean_linker_0, # of connection points: 2
#     Edge 51, Type (0, 0), BuildingBlock: EZIPEK_clean_linker_0, # of connection points: 2
#     Edge 52, Type (0, 0), BuildingBlock: EZIPEK_clean_linker_0, # of connection points: 2
#     Edge 53, Type (0, 0), BuildingBlock: EZIPEK_clean_linker_0, # of connection points: 2
#     Edge 54, Type (0, 0), BuildingBlock: EZIPEK_clean_linker_0, # of connection points: 2
#     Edge 55, Type (0, 0), BuildingBlock: EZIPEK_clean_linker_0, # of connection points: 2
#     Edge 56, Type (0, 0), BuildingBlock: EZIPEK_clean_linker_0, # of connection points: 2
#     Edge 57, Type (0, 0), BuildingBlock: EZIPEK_clean_linker_0, # of connection points: 2
#     Edge 58, Type (0, 0), BuildingBlock: EZIPEK_clean_linker_0, # of connection points: 2
#     Edge 59, Type (0, 0), BuildingBlock: EZIPEK_clean_linker_0, # of connection points: 2
#     Edge 60, Type (0, 0), BuildingBlock: EZIPEK_clean_linker_0, # of connection points: 2
#     Edge 61, Type (0, 0), BuildingBlock: EZIPEK_clean_linker_0, # of connection points: 2
#     Edge 62, Type (0, 0), BuildingBlock: EZIPEK_clean_linker_0, # of connection points: 2
#     Edge 63, Type (0, 0), BuildingBlock: EZIPEK_clean_linker_0, # of connection points: 2
#     Edge 64, Type (0, 0), BuildingBlock: EZIPEK_clean_linker_0, # of connection points: 2
#     Edge 65, Type (0, 0), BuildingBlock: EZIPEK_clean_linker_0, # of connection points: 2
#     Edge 66, Type (0, 0), BuildingBlock: EZIPEK_clean_linker_0, # of connection points: 2
#     Edge 67, Type (0, 0), BuildingBlock: EZIPEK_clean_linker_0, # of connection points: 2
#     Edge 68, Type (0, 0), BuildingBlock: EZIPEK_clean_linker_0, # of connection points: 2
#     Edge 69, Type (0, 0), BuildingBlock: EZIPEK_clean_linker_0, # of connection points: 2
#     Edge 70, Type (0, 0), BuildingBlock: EZIPEK_clean_linker_0, # of connection points: 2
#     Edge 71, Type (0, 0), BuildingBlock: EZIPEK_clean_linker_0, # of connection points: 2
# Relax obj value: 0.375
# Max RMSD: 0.170
# Mean RMSD: 0.170
data_MOF--net-lcy-a--node1-ICAMEG_clean_sbu_1--edge1-EZIPEK_clean_linker_0
_symmetry_space_group_name_H-M    P1
_symmetry_Int_Tables_number       1
_symmetry_cell_setting            triclinic
loop_
_symmetry_equiv_pos_as_xyz
'x, y, z'
_cell_length_a     45.455302
_cell_length_b     45.462583
_cell_length_c     45.472577
_cell_angle_alpha  90.272333
_cell_angle_beta   89.797908
_cell_angle_gamma 89.926445
loop_
_atom_site_label
_atom_site_type_symbol
_atom_site_fract_x
_atom_site_fract_y
_atom_site_fract_z
_atom_type_partial_charge
Co0 Co 0.23224 0.31024 0.38597 0.0
Co1 Co 0.16858 0.2765 0.36584 0.0
O2 O 0.19304 0.29656 0.39586 0.0
C3 C 0.21648 0.35123 0.43826 0.0
O4 O 0.19145 0.33805 0.44376 0.0
C5 C 0.16062 0.24301 0.42032 0.0
O6 O 0.18906 0.24508 0.42432 0.0
O7 O 0.19999 0.24483 0.36228 0.0
O8 O 0.23917 0.27487 0.35991 0.0
H9 H 0.14359 0.22967 0.26793 0.0
H10 H 0.21291 0.29158 0.44707 0.0
O11 O 0.22948 0.34594 0.4136 0.0
H12 H 0.3138 0.25421 0.43624 0.0
H13 H 0.32643 0.36211 0.40177 0.0
H14 H 0.26042 0.32165 0.32809 0.0
H15 H 0.288 0.27566 0.39407 0.0
H16 H 0.28629 0.33076 0.41717 0.0
O17 O 0.14879 0.25455 0.39799 0.0
H18 H 0.17473 0.25619 0.30297 0.0
H19 H 0.10664 0.25444 0.36693 0.0
H20 H 0.29175 0.36313 0.31482 0.0
H21 H 0.23719 0.2695 0.48939 0.0
H22 H 0.32358 0.38614 0.3535 0.0
H23 H 0.28841 0.25105 0.48454 0.0
O24 O 0.21441 0.33327 0.35254 0.0
H25 H 0.11016 0.35467 0.41909 0.0
H26 H 0.1309 0.30867 0.3229 0.0
H27 H 0.09505 0.34914 0.32614 0.0
H28 H 0.08424 0.37234 0.37454 0.0
H29 H 0.14601 0.31429 0.4148 0.0
H30 H 0.07465 0.22789 0.33254 0.0
H31 H 0.09299 0.21518 0.28258 0.0
O32 O 0.18692 0.29827 0.3324 0.0
C33 C 0.22774 0.24918 0.35857 0.0
C34 C 0.13551 0.23455 0.28984 0.0
C35 C 0.09686 0.23355 0.32607 0.0
N36 N 0.14353 0.25562 0.33776 0.0
C37 C 0.15336 0.2493 0.31002 0.0
C38 C 0.11537 0.24829 0.34566 0.0
C39 C 0.10712 0.2265 0.29803 0.0
C40 C 0.23528 0.28456 0.44456 0.0
N41 N 0.24973 0.28761 0.41833 0.0
C42 C 0.24886 0.27148 0.46871 0.0
C43 C 0.27751 0.26103 0.46596 0.0
C44 C 0.29176 0.26286 0.43892 0.0
C45 C 0.27712 0.27544 0.4151 0.0
C46 C 0.31047 0.35549 0.38608 0.0
C47 C 0.27366 0.33192 0.34483 0.0
C48 C 0.28886 0.33587 0.39422 0.0
N49 N 0.26982 0.32525 0.37384 0.0
C50 C 0.2921 0.35487 0.3369 0.0
C51 C 0.31007 0.36738 0.35819 0.0
C52 C 0.20153 0.32199 0.33024 0.0
C53 C 0.11426 0.3444 0.39795 0.0
C54 C 0.12599 0.31816 0.34418 0.0
C55 C 0.10579 0.3413 0.34581 0.0
C56 C 0.09979 0.35436 0.37294 0.0
N57 N 0.13955 0.30792 0.36894 0.0
C58 C 0.13436 0.32124 0.39544 0.0
Co59 Co 0.93645 0.98625 0.63966 0.0
Co60 Co 0.96669 0.9206 0.62094 0.0
O61 O 0.94834 0.9468 0.6508 0.0
C62 C 0.90078 0.97488 0.69502 0.0
O63 O 0.91452 0.95025 0.70085 0.0
C64 C 0.98475 0.89983 0.68059 0.0
O65 O 0.96579 0.91684 0.69403 0.0
O66 O 0.00033 0.94924 0.61921 0.0
O67 O 0.97193 0.989 0.61318 0.0
H68 H 0.01649 0.89568 0.52465 0.0
H69 H 0.96365 0.96876 0.69814 0.0
O70 O 0.90236 0.98601 0.66919 0.0
H71 H -0.00365 0.07004 0.68064 0.0
H72 H 0.86197 0.06564 0.637 0.0
H73 H 0.94078 0.01503 0.5831 0.0
H74 H 0.96818 0.04342 0.64324 0.0
H75 H 0.89723 0.03649 0.66328 0.0
O76 O 0.98751 0.89919 0.65281 0.0
H77 H 0.99166 0.92797 0.56046 0.0
H78 H 0.98279 0.85689 0.61998 0.0
H79 H 0.90435 0.03989 0.55664 0.0
H80 H 0.99349 0.99345 0.73527 0.0
H81 H 0.86459 0.06896 0.58281 0.0
H82 H 0.00943 0.04504 0.72727 0.0
O83 O 0.91198 0.96802 0.60759 0.0
H84 H 0.8826 0.86558 0.66923 0.0
H85 H 0.93345 0.88672 0.57594 0.0
H86 H 0.89087 0.85358 0.57598 0.0
H87 H 0.86517 0.84251 0.62289 0.0
H88 H 0.92484 0.89873 0.6682 0.0
H89 H 0.0077 0.82382 0.58489 0.0
H90 H 0.02472 0.84309 0.53675 0.0
O91 O 0.9471 0.94088 0.58716 0.0
C92 C -0.00271 0.97694 0.6151 0.0
C93 C 0.00943 0.88706 0.54567 0.0
C94 C 0.00454 0.84676 0.57947 0.0
N95 N 0.98642 0.89477 0.59274 0.0
C96 C 0.99548 0.90537 0.56616 0.0
C97 C 0.99069 0.86574 0.59941 0.0
C98 C 0.01402 0.85756 0.55245 0.0
C99 C 0.97011 0.99088 0.69416 0.0
N100 N 0.96147 0.00519 0.66925 0.0
C101 C 0.98726 0.00494 0.71545 0.0
C102 C -0.00378 0.03384 0.71096 0.0
C103 C 0.98872 0.04793 0.68493 0.0
C104 C 0.97193 0.03292 0.66399 0.0
C105 C 0.87998 0.05573 0.62516 0.0
C106 C 0.92474 0.02712 0.59566 0.0
C107 C 0.90048 0.03879 0.64016 0.0
N108 N 0.92178 0.02342 0.62523 0.0
C109 C 0.90377 0.04224 0.58003 0.0
C110 C 0.88135 0.05718 0.59475 0.0
C111 C 0.92379 0.95614 0.58489 0.0
C112 C 0.89397 0.86974 0.64872 0.0
C113 C 0.92292 0.88173 0.59665 0.0
C114 C 0.89857 0.86304 0.59644 0.0
C115 C 0.88413 0.85689 0.62272 0.0
N116 N 0.93311 0.89371 0.62238 0.0
C117 C 0.9184 0.88836 0.64806 0.0
Co118 Co 0.26299 0.67799 0.88388 0.0
Co119 Co 0.3256 0.71427 0.8653 0.0
O120 O 0.30129 0.69299 0.89354 0.0
C121 C 0.2806 0.6408 0.93543 0.0
O122 O 0.30693 0.65141 0.94067 0.0
C123 C 0.32966 0.7477 0.91958 0.0
O124 O 0.30097 0.74696 0.92106 0.0
O125 O 0.29319 0.74485 0.86173 0.0
O126 O 0.2546 0.71355 0.85928 0.0
H127 H 0.35175 0.7772 0.77787 0.0
H128 H 0.28156 0.69754 0.94499 0.0
O129 O 0.2698 0.64231 0.90952 0.0
H130 H 0.18173 0.73642 0.93199 0.0
H131 H 0.17615 0.61349 0.90219 0.0
H132 H 0.22823 0.67435 0.82925 0.0
H133 H 0.20664 0.70994 0.89189 0.0
H134 H 0.21713 0.64505 0.91716 0.0
O135 O 0.3434 0.73531 0.89874 0.0
H136 H 0.31921 0.74812 0.80994 0.0
H137 H 0.3892 0.72971 0.86735 0.0
H138 H 0.18478 0.64682 0.81464 0.0
H139 H 0.25799 0.72404 0.98578 0.0
H140 H 0.1593 0.61406 0.85045 0.0
H141 H 0.20734 0.74352 0.97967 0.0
O142 O 0.28051 0.65733 0.84857 0.0
H143 H 0.39064 0.64378 0.92005 0.0
H144 H 0.36088 0.67918 0.82222 0.0
H145 H 0.39768 0.6395 0.82595 0.0
H146 H 0.41289 0.62162 0.87514 0.0
H147 H 0.35369 0.68322 0.91532 0.0
H148 H 0.42302 0.7585 0.83653 0.0
H149 H 0.40445 0.78245 0.79123 0.0
O150 O 0.30808 0.69358 0.8303 0.0
C151 C 0.26565 0.73941 0.85766 0.0
C152 C 0.36025 0.7667 0.79739 0.0
C153 C 0.40019 0.75621 0.83027 0.0
N154 N 0.35192 0.73661 0.83985 0.0
C155 C 0.34169 0.75016 0.8154 0.0
C156 C 0.38085 0.73982 0.84761 0.0
C157 C 0.38977 0.76966 0.80491 0.0
C158 C 0.2593 0.70456 0.94246 0.0
N159 N 0.24476 0.69949 0.91676 0.0
C160 C 0.24612 0.72022 0.96552 0.0
C161 C 0.21781 0.73127 0.96204 0.0
C162 C 0.2034 0.72717 0.93541 0.0
C163 C 0.21748 0.71162 0.91283 0.0
C164 C 0.18689 0.62729 0.88617 0.0
C165 C 0.21648 0.66155 0.84543 0.0
C166 C 0.2105 0.6449 0.89439 0.0
N167 N 0.22557 0.66092 0.87387 0.0
C168 C 0.19213 0.64531 0.83682 0.0
C169 C 0.17769 0.62745 0.85707 0.0
C170 C 0.2933 0.66996 0.82682 0.0
C171 C 0.38422 0.65141 0.89849 0.0
C172 C 0.36719 0.67137 0.84371 0.0
C173 C 0.38814 0.64897 0.84568 0.0
C174 C 0.39668 0.63897 0.87329 0.0
N175 N 0.35515 0.68355 0.86854 0.0
C176 C 0.36334 0.67378 0.89568 0.0
Co177 Co 0.56893 0.00359 0.13707 0.0
Co178 Co 0.53254 0.06669 0.12372 0.0
O179 O 0.55188 0.04025 0.1519 0.0
C180 C 0.60013 0.01649 0.19481 0.0
O181 O 0.58491 0.04069 0.19898 0.0
C182 C 0.4951 0.0714 0.17642 0.0
O183 O 0.49537 0.04286 0.17905 0.0
O184 O 0.50263 0.03472 0.11742 0.0
O185 O 0.53619 -0.0 0.10736 0.0
H186 H 0.47365 0.09136 0.03349 0.0
H187 H 0.53831 0.01322 0.19551 0.0
O188 O 0.60028 0.00396 0.16941 0.0
H189 H 0.51234 0.91251 0.16534 0.0
H190 H 0.63927 0.91748 0.13487 0.0
H191 H 0.57446 0.98087 0.07637 0.0
H192 H 0.54273 0.94342 0.13346 0.0
H193 H 0.60733 0.95353 0.15913 0.0
O194 O 0.50896 0.08405 0.15598 0.0
H195 H 0.50115 0.05907 0.06692 0.0
H196 H 0.51679 0.13049 0.12489 0.0
H197 H 0.60603 0.94536 0.0513 0.0
H198 H 0.50601 0.98397 0.22701 0.0
H199 H 0.63947 0.91347 0.08037 0.0
H200 H 0.49336 0.93278 0.21257 0.0
O201 O 0.59347 0.02774 0.10949 0.0
H202 H 0.59945 0.12857 0.18624 0.0
H203 H 0.56917 0.10512 0.0848 0.0
H204 H 0.60812 0.14185 0.09321 0.0
H205 H 0.62346 0.15386 0.14424 0.0
H206 H 0.56069 0.09181 0.17682 0.0
H207 H 0.48943 0.16373 0.09227 0.0
H208 H 0.46776 0.14429 0.04604 0.0
O209 O 0.55598 0.05123 0.08949 0.0
C210 C 0.50939 0.00833 0.10988 0.0
C211 C 0.48329 0.10021 0.05338 0.0
C212 C 0.49214 0.1408 0.08635 0.0
N213 N 0.51158 0.09286 0.09724 0.0
C214 C 0.49904 0.08195 0.07229 0.0
C215 C 0.50776 0.12183 0.10467 0.0
C216 C 0.47995 0.12988 0.06045 0.0
C217 C 0.53257 0.99144 0.18835 0.0
N218 N 0.54384 0.97989 0.1628 0.0
C219 C 0.51435 0.97474 0.20664 0.0
C220 C 0.50733 0.946 0.1986 0.0
C221 C 0.51813 0.93457 0.17222 0.0
C222 C 0.53591 0.9521 0.15434 0.0
C223 C 0.62489 0.93118 0.12189 0.0
C224 C 0.58827 0.96696 0.08955 0.0
C225 C 0.6063 0.95153 0.13567 0.0
N226 N 0.58828 0.96931 0.11959 0.0
C227 C 0.60654 0.94693 0.07502 0.0
C228 C 0.62513 0.92906 0.09134 0.0
C229 C 0.58197 0.04083 0.0875 0.0
C230 C 0.59295 0.12354 0.16391 0.0
C231 C 0.57584 0.11005 0.10707 0.0
C232 C 0.59784 0.13096 0.11169 0.0
C233 C 0.60642 0.1377 0.14033 0.0
N234 N 0.56266 0.09628 0.13033 0.0
C235 C 0.571 0.10276 0.15845 0.0
Co236 Co 0.73259 0.17186 0.59845 0.0
Co237 Co 0.673 0.21254 0.62198 0.0
O238 O 0.69411 0.18957 0.59141 0.0
C239 C 0.70615 0.13447 0.55084 0.0
O240 O 0.68164 0.14944 0.54847 0.0
C241 C 0.65355 0.23422 0.56312 0.0
O242 O 0.66619 0.21258 0.549 0.0
O243 O 0.70725 0.24066 0.62208 0.0
O244 O 0.74542 0.20858 0.62036 0.0
H245 H 0.65676 0.26162 0.72117 0.0
H246 H 0.71135 0.1917 0.53822 0.0
O247 O 0.72145 0.13608 0.57443 0.0
H248 H 0.81698 0.21311 0.53916 0.0
H249 H 0.81842 0.10382 0.57965 0.0
H250 H 0.76733 0.16617 0.65235 0.0
H251 H 0.7925 0.19433 0.58316 0.0
H252 H 0.77596 0.13429 0.56487 0.0
O253 O 0.65429 0.23666 0.59087 0.0
H254 H 0.68376 0.23213 0.68502 0.0
H255 H 0.61403 0.24163 0.62383 0.0
H256 H 0.8075 0.13434 0.66815 0.0
H257 H 0.73403 0.21331 0.49472 0.0
H258 H 0.83476 0.10453 0.63144 0.0
H259 H 0.78768 0.22318 0.49432 0.0
O260 O 0.7163 0.15319 0.63489 0.0
H261 H 0.59956 0.14144 0.57733 0.0
H262 H 0.63754 0.18455 0.66914 0.0
H263 H 0.59744 0.14856 0.67137 0.0
H264 H 0.57794 0.12676 0.62525 0.0
H265 H 0.63959 0.17727 0.57608 0.0
H266 H 0.58638 0.27142 0.65945 0.0
H267 H 0.60764 0.28179 0.70862 0.0
O268 O 0.69128 0.19038 0.65454 0.0
C269 C 0.73496 0.23483 0.62301 0.0
C270 C 0.6475 0.25783 0.69958 0.0
C271 C 0.60808 0.26336 0.66497 0.0
N272 N 0.65174 0.23643 0.6512 0.0
C273 C 0.66298 0.2413 0.67867 0.0
C274 C 0.62422 0.24679 0.64461 0.0
C275 C 0.61994 0.26907 0.69257 0.0
C276 C 0.7342 0.19627 0.5389 0.0
N277 N 0.75032 0.18998 0.56333 0.0
C278 C 0.74721 0.20844 0.51387 0.0
C279 C 0.77726 0.214 0.51364 0.0
C280 C 0.79369 0.20818 0.53866 0.0
C281 C 0.77966 0.19694 0.56356 0.0
C282 C 0.8072 0.11747 0.59561 0.0
C283 C 0.77827 0.15246 0.63628 0.0
C284 C 0.78323 0.13476 0.58744 0.0
N285 N 0.76924 0.15222 0.60771 0.0
C286 C 0.80143 0.13478 0.64533 0.0
C287 C 0.81628 0.1176 0.62476 0.0
C288 C 0.70569 0.16673 0.65708 0.0
C289 C 0.6076 0.15107 0.59758 0.0
C290 C 0.62912 0.17563 0.6488 0.0
C291 C 0.6064 0.15504 0.65029 0.0
C292 C 0.59551 0.14278 0.62445 0.0
N293 N 0.64061 0.18422 0.62229 0.0
C294 C 0.63032 0.17173 0.59696 0.0
Co295 Co 0.0649 0.47588 0.85157 0.0
Co296 Co 0.02187 0.42009 0.87845 0.0
O297 O 0.04585 0.43812 0.84749 0.0
C298 C 0.1039 0.45033 0.80428 0.0
O299 O 0.11006 0.42243 0.79978 0.0
C300 C 0.98928 0.41112 0.82348 0.0
O301 O 0.99314 0.4392 0.8185 0.0
O302 O 0.99501 0.45561 0.8772 0.0
O303 O 0.02817 0.49255 0.87099 0.0
H304 H 0.97158 0.40975 0.97761 0.0
H305 H 0.04576 0.44623 0.7951 0.0
O306 O 0.10103 0.45881 0.83116 0.0
H307 H 0.02447 0.55147 0.78127 0.0
H308 H 0.13678 0.55595 0.82615 0.0
H309 H 0.07383 0.51405 0.90296 0.0
H310 H 0.04408 0.53372 0.82805 0.0
H311 H 0.09964 0.51841 0.81358 0.0
O312 O -0.00089 0.39983 0.84692 0.0
H313 H 0.0028 0.4338 0.9412 0.0
H314 H 0.98986 0.36274 0.88155 0.0
H315 H 0.11271 0.54834 0.91589 0.0
H316 H 0.02296 0.46269 0.74922 0.0
H317 H 0.14402 0.57071 0.87774 0.0
H318 H 0.0133 0.51579 0.74136 0.0
O319 O 0.08192 0.46278 0.89037 0.0
H320 H 0.09749 0.34965 0.83701 0.0
H321 H 0.04575 0.38247 0.92666 0.0
H322 H 0.08187 0.34243 0.92976 0.0
H323 H 0.10795 0.32549 0.88469 0.0
H324 H 0.06142 0.38967 0.83483 0.0
H325 H 0.95855 0.33797 0.9176 0.0
H326 H 0.94901 0.36139 0.96612 0.0
O327 O 0.04406 0.43925 0.91056 0.0
C328 C 0.00186 0.48316 0.87608 0.0
C329 C 0.97491 0.39966 0.95624 0.0
C330 C 0.9676 0.35942 0.92261 0.0
N331 N -0.00324 0.40112 0.90795 0.0
C332 C 0.99229 0.41356 0.93508 0.0
C333 C 0.98505 0.37398 0.90196 0.0
C334 C 0.96235 0.37249 0.94985 0.0
C335 C 0.04139 0.46939 0.79238 0.0
N336 N 0.04826 0.48913 0.81407 0.0
C337 C 0.0284 0.47858 0.76614 0.0
C338 C 0.02295 0.50834 0.76174 0.0
C339 C 0.02942 0.52835 0.78399 0.0
C340 C 0.0412 0.51818 0.81039 0.0
C341 C 0.12315 0.54657 0.84288 0.0
C342 C 0.08766 0.52286 0.88579 0.0
C343 C 0.10231 0.52511 0.83605 0.0
N344 N 0.08555 0.51273 0.85763 0.0
C345 C 0.10928 0.54298 0.89339 0.0
C346 C 0.12713 0.55505 0.87188 0.0
C347 C 0.06847 0.45242 0.91268 0.0
C348 C 0.08574 0.3563 0.85669 0.0
C349 C 0.05615 0.37477 0.90669 0.0
C350 C 0.07697 0.35225 0.9087 0.0
C351 C 0.09168 0.34283 0.88345 0.0
N352 N 0.04958 0.38727 0.88016 0.0
C353 C 0.06483 0.3788 0.85555 0.0
Co354 Co 0.75633 0.80971 0.10738 0.0
Co355 Co 0.82291 0.77867 0.12069 0.0
O356 O 0.79428 0.79463 0.09211 0.0
C357 C 0.76306 0.83813 0.04718 0.0
O358 O 0.7865 0.82245 0.04092 0.0
C359 C 0.82894 0.73718 0.07014 0.0
O360 O 0.80033 0.73462 0.06902 0.0
O361 O 0.79308 0.74733 0.12989 0.0
O362 O 0.75652 0.77885 0.1386 0.0
H363 H 0.8992 0.77573 0.20297 0.0
H364 H 0.7668 0.77476 0.05138 0.0
O365 O 0.75339 0.83957 0.07373 0.0
H366 H 0.66787 0.74673 0.0849 0.0
H367 H 0.66807 0.87719 0.10939 0.0
H368 H 0.73244 0.81372 0.16829 0.0
H369 H 0.69807 0.77989 0.11462 0.0
H370 H 0.70408 0.84555 0.08532 0.0
O371 O 0.84103 0.75299 0.08969 0.0
H372 H 0.86518 0.80014 0.17017 0.0
H373 H 0.83707 0.71808 0.13594 0.0
H374 H 0.69679 0.84502 0.19307 0.0
H375 H 0.73818 0.74 0.02209 0.0
H376 H 0.66484 0.87834 0.16378 0.0
H377 H 0.68776 0.72635 0.03813 0.0
O378 O 0.77874 0.83722 0.13343 0.0
H379 H 0.88934 0.83216 0.04945 0.0
H380 H 0.84695 0.83679 0.14875 0.0
H381 H 0.88037 0.87484 0.13306 0.0
H382 H 0.90267 0.8729 0.08327 0.0
H383 H 0.85514 0.79448 0.06528 0.0
H384 H 0.87087 0.69241 0.16904 0.0
H385 H 0.9026 0.72126 0.20282 0.0
O386 O 0.80657 0.80303 0.15378 0.0
C387 C 0.76632 0.75262 0.13677 0.0
C388 C 0.88615 0.76289 0.18773 0.0
C389 C 0.87025 0.7162 0.1688 0.0
N390 N 0.85038 0.761 0.14877 0.0
C391 C 0.86699 0.77685 0.16827 0.0
C392 C 0.85139 0.73096 0.14968 0.0
C393 C 0.88796 0.73236 0.18777 0.0
C394 C 0.7453 0.76898 0.05904 0.0
N395 N 0.73381 0.78129 0.0841 0.0
C396 C 0.72897 0.74919 0.04211 0.0
C397 C 0.70069 0.74159 0.05107 0.0
C398 C 0.68947 0.75314 0.07719 0.0
C399 C 0.70662 0.77251 0.09376 0.0
C400 C 0.68214 0.86324 0.12244 0.0
C401 C 0.71828 0.82705 0.15492 0.0
C402 C 0.70257 0.84473 0.10876 0.0
N403 N 0.72095 0.82727 0.12489 0.0
C404 C 0.69821 0.84532 0.16935 0.0
C405 C 0.68033 0.86388 0.15296 0.0
C406 C 0.79241 0.82712 0.15576 0.0
C407 C 0.88071 0.83267 0.07166 0.0
C408 C 0.85659 0.83422 0.12735 0.0
C409 C 0.8756 0.85662 0.11843 0.0
C410 C 0.88802 0.85561 0.09051 0.0
N411 N 0.85065 0.81046 0.10953 0.0
C412 C 0.86162 0.81064 0.08133 0.0
Co413 Co 0.4305 0.51139 0.35071 0.0
Co414 Co 0.46361 0.57488 0.3732 0.0
O415 O 0.44399 0.55095 0.3424 0.0
C416 C 0.38889 0.52634 0.29852 0.0
O417 O 0.40099 0.55178 0.29245 0.0
C418 C 0.50081 0.57856 0.32172 0.0
O419 O 0.4986 0.54995 0.31974 0.0
O420 O 0.49471 0.54322 0.37886 0.0
O421 O 0.4656 0.50357 0.37675 0.0
H422 H 0.50547 0.60055 0.47295 0.0
H423 H 0.44768 0.53147 0.28999 0.0
O424 O 0.39497 0.51401 0.32319 0.0
H425 H 0.49312 0.43411 0.29984 0.0
H426 H 0.40458 0.40801 0.33174 0.0
H427 H 0.41834 0.48322 0.40645 0.0
H428 H 0.46839 0.45747 0.34205 0.0
H429 H 0.41332 0.45745 0.31751 0.0
O430 O 0.48772 0.59272 0.34189 0.0
H431 H 0.48012 0.56931 0.43705 0.0
H432 H 0.48737 0.63599 0.37243 0.0
H433 H 0.39722 0.44121 0.42216 0.0
H434 H 0.47266 0.50954 0.2475 0.0
H435 H 0.38558 0.36062 0.39175 0.0
H436 H 0.49531 0.46004 0.25196 0.0
O437 O 0.40652 0.52797 0.38482 0.0
H438 H 0.39833 0.64095 0.3136 0.0
H439 H 0.42615 0.61079 0.41375 0.0
H440 H 0.38766 0.64838 0.40719 0.0
H441 H 0.37355 0.66376 0.35683 0.0
H442 H 0.43663 0.60327 0.32114 0.0
H443 H 0.51285 0.66801 0.4077 0.0
H444 H 0.52222 0.65039 0.45842 0.0
O445 O 0.43965 0.5574 0.40569 0.0
C446 C 0.49077 0.51535 0.38097 0.0
C447 C 0.50199 0.60831 0.45076 0.0
C448 C 0.50613 0.64614 0.41418 0.0
N449 N 0.48339 0.5999 0.40201 0.0
C450 C 0.48786 0.59046 0.43012 0.0
C451 C 0.49193 0.62766 0.39414 0.0
C452 C 0.51131 0.63629 0.44263 0.0
C453 C 0.45651 0.50986 0.29212 0.0
N454 N 0.45425 0.49518 0.31813 0.0
C455 C 0.47121 0.49759 0.26798 0.0
C456 C 0.48402 0.46993 0.27053 0.0
C457 C 0.48274 0.45538 0.29733 0.0
C458 C 0.46848 0.46876 0.32118 0.0
C459 C 0.40287 0.42451 0.34877 0.0
C460 C 0.41166 0.46791 0.38969 0.0
C461 C 0.41004 0.45277 0.34044 0.0
N462 N 0.41624 0.47341 0.36094 0.0
C463 C 0.3996 0.44188 0.39861 0.0
C464 C 0.39652 0.41697 0.37869 0.0
C465 C 0.41668 0.54155 0.40736 0.0
C466 C 0.40433 0.63447 0.33566 0.0
C467 C 0.42011 0.61727 0.39175 0.0
C468 C 0.39831 0.63862 0.38818 0.0
C469 C 0.39041 0.64725 0.35992 0.0
N470 N 0.43372 0.60488 0.36784 0.0
C471 C 0.42604 0.61318 0.34007 0.0
Co472 Co 0.38692 0.22728 0.30473 0.0
Co473 Co 0.36805 0.16401 0.27185 0.0
O474 O 0.39763 0.18841 0.2909 0.0
C475 C 0.44771 0.2234 0.33305 0.0
O476 O 0.45802 0.20593 0.31248 0.0
C477 C 0.41687 0.1537 0.22957 0.0
O478 O 0.41439 0.18024 0.21902 0.0
O479 O 0.36277 0.19595 0.2411 0.0
O480 O 0.35595 0.23156 0.2743 0.0
H481 H 0.27605 0.14234 0.21408 0.0
H482 H 0.43691 0.20648 0.26448 0.0
O483 O 0.41971 0.22681 0.33614 0.0
H484 H 0.4197 0.30938 0.23717 0.0
H485 H 0.40746 0.31881 0.35908 0.0
H486 H 0.32966 0.2548 0.32079 0.0
H487 H 0.38919 0.28622 0.27447 0.0
H488 H 0.41947 0.2801 0.32476 0.0
O489 O 0.39994 0.14431 0.2495 0.0
H490 H 0.31147 0.1738 0.2402 0.0
H491 H 0.36577 0.10007 0.25738 0.0
H492 H 0.31724 0.29162 0.35822 0.0
H493 H 0.46656 0.22834 0.22591 0.0
H494 H 0.35689 0.32195 0.38051 0.0
H495 H 0.45913 0.28063 0.21242 0.0
O496 O 0.35656 0.20763 0.33132 0.0
H497 H 0.42753 0.10169 0.34083 0.0
H498 H 0.32735 0.12787 0.30919 0.0
H499 H 0.33395 0.0922 0.34919 0.0
H500 H 0.38436 0.07877 0.36522 0.0
H501 H 0.41992 0.13757 0.30115 0.0
H502 H 0.33111 0.06768 0.23133 0.0
H503 H 0.28566 0.08869 0.20967 0.0
O504 O 0.3352 0.18205 0.29531 0.0
C505 C 0.35639 0.22275 0.2477 0.0
C506 C 0.29558 0.13283 0.22374 0.0
C507 C 0.32645 0.09095 0.23342 0.0
N508 N 0.34009 0.13884 0.25141 0.0
C509 C 0.31564 0.15062 0.23872 0.0
C510 C 0.34595 0.10945 0.24829 0.0
C511 C 0.301 0.10276 0.22123 0.0
C512 C 0.43333 0.2293 0.25987 0.0
N513 N 0.41329 0.24583 0.27548 0.0
C514 C 0.45038 0.24159 0.23743 0.0
C515 C 0.4462 0.27086 0.22984 0.0
C516 C 0.42434 0.28706 0.24393 0.0
C517 C 0.40755 0.2739 0.26602 0.0
C518 C 0.39038 0.30406 0.35244 0.0
C519 C 0.34685 0.2685 0.3297 0.0
C520 C 0.3969 0.2827 0.33176 0.0
N521 N 0.37548 0.26441 0.32154 0.0
C522 C 0.33966 0.28928 0.35107 0.0
C523 C 0.36183 0.30646 0.36327 0.0
C524 C 0.33383 0.19424 0.32064 0.0
C525 C 0.40545 0.1073 0.33399 0.0
C526 C 0.34933 0.12235 0.31608 0.0
C527 C 0.35294 0.10202 0.33872 0.0
C528 C 0.38123 0.09448 0.34769 0.0
N529 N 0.37318 0.1348 0.30263 0.0
C530 C 0.40098 0.12756 0.31144 0.0
Co531 Co 0.01494 0.14237 0.57337 0.0
Co532 Co 0.07269 0.11968 0.52989 0.0
O533 O 0.05274 0.15 0.5536 0.0
C534 C 0.03761 0.19588 0.60419 0.0
O535 O 0.06167 0.19945 0.5886 0.0
C536 C 0.09055 0.1783 0.50337 0.0
O537 O 0.07746 0.19393 0.52373 0.0
O538 O 0.03631 0.11752 0.50485 0.0
O539 O 0.0019 0.11654 0.54069 0.0
H540 H 0.1153 0.01888 0.50245 0.0
H541 H 0.03233 0.20027 0.54506 0.0
O542 O 0.02614 0.17028 0.60647 0.0
H543 H 0.92888 0.18561 0.51934 0.0
H544 H 0.93613 0.16779 0.64633 0.0
H545 H 0.97995 0.08879 0.586 0.0
H546 H 0.95492 0.14988 0.54968 0.0
H547 H 0.97327 0.17935 0.60864 0.0
O548 O 0.08982 0.15043 0.50357 0.0
H549 H 0.0898 0.05332 0.53409 0.0
H550 H 0.09036 0.11725 0.46605 0.0
H551 H 0.9408 0.07751 0.6213 0.0
H552 H 0.00829 0.23582 0.51282 0.0
H553 H 0.91989 0.11635 0.65274 0.0
H554 H 0.95562 0.2292 0.50031 0.0
O555 O 0.03301 0.10677 0.59329 0.0
H556 H 0.1516 0.17356 0.58714 0.0
H557 H 0.10854 0.07675 0.56805 0.0
H558 H 0.15166 0.08023 0.59878 0.0
H559 H 0.17415 0.12892 0.60869 0.0
H560 H 0.10862 0.16893 0.55598 0.0
H561 H 0.11607 0.083 0.43389 0.0
H562 H 0.12935 0.03333 0.45183 0.0
O563 O 0.05679 0.08802 0.55475 0.0
C564 C 0.00964 0.11431 0.51377 0.0
C565 C 0.1109 0.04094 0.49477 0.0
C566 C 0.1113 0.07683 0.45637 0.0
N567 N 0.09151 0.08965 0.50419 0.0
C568 C 0.09691 0.06135 0.51316 0.0
C569 C 0.09724 0.09664 0.47536 0.0
C570 C 0.11859 0.04895 0.46634 0.0
C571 C 0.00983 0.19718 0.54014 0.0
N572 N 0.995 0.1739 0.5516 0.0
C573 C -0.00393 0.21743 0.52165 0.0
C574 C 0.96658 0.21371 0.51458 0.0
C575 C 0.95156 0.18946 0.52542 0.0
C576 C 0.96632 0.16954 0.54341 0.0
C577 C 0.94498 0.15059 0.63246 0.0
C578 C 0.96983 0.10639 0.59843 0.0
C579 C 0.96635 0.15681 0.61135 0.0
N580 N 0.97921 0.13465 0.59532 0.0
C581 C 0.94784 0.09969 0.61862 0.0
C582 C 0.93585 0.12173 0.63613 0.0
C583 C 0.04364 0.0846 0.579 0.0
C584 C 0.1429 0.152 0.58195 0.0
C585 C 0.11867 0.09782 0.56976 0.0
C586 C 0.14299 0.09976 0.58838 0.0
C587 C 0.15545 0.12704 0.59414 0.0
N588 N 0.10737 0.12215 0.55603 0.0
C589 C 0.11858 0.14913 0.56346 0.0
Co590 Co 0.09718 0.75876 0.81958 0.0
Co591 Co 0.12016 0.81698 0.77744 0.0
O592 O 0.08966 0.79636 0.80066 0.0
C593 C 0.04992 0.78722 0.85614 0.0
O594 O 0.04844 0.81123 0.84044 0.0
C595 C 0.06083 0.83506 0.75509 0.0
O596 O 0.04722 0.82061 0.77575 0.0
O597 O 0.12054 0.78233 0.75003 0.0
O598 O 0.11939 0.74512 0.78313 0.0
H599 H 0.22007 0.83255 0.72975 0.0
H600 H 0.03552 0.77807 0.80121 0.0
O601 O 0.07288 0.77085 0.85483 0.0
H602 H 0.04041 0.67254 0.77904 0.0
H603 H 0.0799 0.67533 0.89074 0.0
H604 H 0.15205 0.72582 0.8282 0.0
H605 H 0.0838 0.69882 0.79694 0.0
H606 H 0.06376 0.71466 0.85651 0.0
O607 O 0.0887 0.83554 0.75307 0.0
H608 H 0.18418 0.80669 0.76001 0.0
H609 H 0.12168 0.8748 0.74614 0.0
H610 H 0.16883 0.6915 0.86566 0.0
H611 H 0.99217 0.75357 0.78137 0.0
H612 H 0.13292 0.66593 0.8972 0.0
H613 H 0.99389 0.69999 0.77088 0.0
O614 O 0.13305 0.77637 0.83829 0.0
H615 H 0.07427 0.8913 0.84702 0.0
H616 H 0.16699 0.853 0.80551 0.0
H617 H 0.16846 0.89353 0.84135 0.0
H618 H 0.12187 0.91312 0.86239 0.0
H619 H 0.07381 0.851 0.81107 0.0
H620 H 0.15719 0.90136 0.71577 0.0
H621 H 0.20688 0.88032 0.7071 0.0
O622 O 0.15279 0.79886 0.79992 0.0
C623 C 0.12195 0.75489 0.75662 0.0
C624 C 0.19821 0.8416 0.73267 0.0
C625 C 0.16297 0.88016 0.72484 0.0
N626 N 0.14951 0.83767 0.75338 0.0
C627 C 0.17733 0.82666 0.74952 0.0
C628 C 0.14264 0.86458 0.74178 0.0
C629 C 0.19086 0.86843 0.72007 0.0
C630 C 0.03705 0.75522 0.79651 0.0
N631 N 0.06239 0.74007 0.80185 0.0
C632 C 0.01213 0.74121 0.78527 0.0
C633 C 0.01307 0.71118 0.7794 0.0
C634 C 0.03904 0.69579 0.78412 0.0
C635 C 0.06364 0.7108 0.79472 0.0
C636 C 0.09567 0.68717 0.87757 0.0
C637 C 0.13602 0.7154 0.84217 0.0
C638 C 0.08675 0.70887 0.85776 0.0
N639 N 0.107 0.72287 0.84044 0.0
C640 C 0.14573 0.69547 0.86306 0.0
C641 C 0.12546 0.68128 0.88086 0.0
C642 C 0.15527 0.7864 0.82461 0.0
C643 C 0.09473 0.88313 0.83784 0.0
C644 C 0.14649 0.86148 0.81413 0.0
C645 C 0.14753 0.88442 0.83463 0.0
C646 C 0.12142 0.89536 0.84647 0.0
N647 N 0.12017 0.84981 0.80531 0.0
C648 C 0.09458 0.86016 0.81732 0.0
Co649 Co 0.48193 0.85092 0.05523 0.0
Co650 Co 0.41954 0.8714 0.0216 0.0
O651 O 0.44238 0.84171 0.04252 0.0
C652 C 0.46889 0.79476 0.08969 0.0
O653 O 0.44501 0.78826 0.07499 0.0
C654 C 0.39754 0.81223 0.00278 0.0
O655 O 0.41098 0.79874 0.02418 0.0
O656 O 0.45166 0.87226 0.99077 0.0
O657 O 0.48775 0.87993 0.02294 0.0
H658 H 0.4053 0.96116 0.95843 0.0
H659 H 0.46191 0.79406 0.02577 0.0
O660 O 0.48006 0.82059 0.0883 0.0
H661 H 0.56152 0.81113 0.98819 0.0
H662 H 0.58077 0.82764 0.09395 0.0
H663 H 0.51272 0.90705 0.06838 0.0
H664 H 0.53658 0.84792 0.01912 0.0
H665 H 0.53287 0.81599 0.0747 0.0
O666 O 0.39907 0.8399 -0.00075 0.0
H667 H 0.4336 0.92573 0.98775 0.0
H668 H 0.35654 0.87612 0.00433 0.0
H669 H 0.55803 0.91905 0.09436 0.0
H670 H 0.48354 0.75846 0.99167 0.0
H671 H 0.59284 0.87936 0.10855 0.0
H672 H 0.53465 0.76578 0.97377 0.0
O673 O 0.46397 0.88327 0.08019 0.0
H674 H 0.3564 0.82743 0.10262 0.0
H675 H 0.38361 0.91801 0.05041 0.0
H676 H 0.34677 0.9203 0.08991 0.0
H677 H 0.33253 0.87473 0.11619 0.0
H678 H 0.39342 0.82622 0.06368 0.0
H679 H 0.32724 0.91078 0.97495 0.0
H680 H 0.35155 0.95389 0.95199 0.0
O681 O 0.4391 0.90421 0.04346 0.0
C682 C 0.47845 0.87876 -0.00338 0.0
C683 C 0.39435 0.94269 0.96864 0.0
C684 C 0.35058 0.91441 0.97787 0.0
N685 N 0.39675 0.89954 -0.00119 0.0
C686 C 0.41034 0.92266 0.98546 0.0
C687 C 0.36732 0.89488 0.99454 0.0
C688 C 0.36422 0.93857 0.96498 0.0
C689 C 0.48375 0.79778 0.01842 0.0
N690 N 0.49925 0.82156 0.02811 0.0
C691 C 0.49607 0.77742 -0.00124 0.0
C692 C 0.52469 0.7815 0.98873 0.0
C693 C 0.53987 0.80669 -0.00293 0.0
C694 C 0.52611 0.8271 0.01562 0.0
C695 C 0.56534 0.84525 0.09093 0.0
C696 C 0.52715 0.88953 0.07524 0.0
C697 C 0.53841 0.83878 0.07865 0.0
N698 N 0.51995 0.86085 0.07034 0.0
C699 C 0.553 0.89655 0.08987 0.0
C700 C 0.57225 0.87423 0.09798 0.0
C701 C 0.45107 0.90577 0.06877 0.0
C702 C 0.36178 0.84732 0.09078 0.0
C703 C 0.37723 0.89784 0.0611 0.0
C704 C 0.35644 0.89939 0.08374 0.0
C705 C 0.34851 0.87386 0.0985 0.0
N706 N 0.38945 0.8715 0.05268 0.0
C707 C 0.38251 0.84663 0.06801 0.0
Co708 Co 0.89059 0.25947 0.67378 0.0
Co709 Co 0.87071 0.32087 0.71198 0.0
O710 O 0.90143 0.29644 0.69292 0.0
C711 C 0.94889 0.27599 0.6475 0.0
O712 O 0.95161 0.29878 0.6649 0.0
C713 C 0.92874 0.33942 0.73819 0.0
O714 O 0.94409 0.32451 0.71887 0.0
O715 O 0.86545 0.28773 0.74026 0.0
O716 O 0.86072 0.25184 0.70625 0.0
H717 H 0.77335 0.33768 0.76265 0.0
H718 H 0.94154 0.27232 0.71437 0.0
O719 O 0.92344 0.26444 0.64334 0.0
H720 H 0.93217 0.16489 0.7159 0.0
H721 H 0.89563 0.17927 0.59672 0.0
H722 H 0.83241 0.23352 0.6662 0.0
H723 H 0.89821 0.19438 0.68759 0.0
H724 H 0.91746 0.21404 0.63192 0.0
O725 O 0.90078 0.33907 0.73845 0.0
H726 H 0.81067 0.30948 0.7351 0.0
H727 H 0.86755 0.38292 0.73448 0.0
H728 H 0.81017 0.20032 0.63121 0.0
H729 H 0.97549 0.24362 0.74411 0.0
H730 H 0.84127 0.17223 0.59623 0.0
H731 H 0.97171 0.18921 0.74455 0.0
O732 O 0.86167 0.28264 0.64988 0.0
H733 H 0.92828 0.38256 0.63937 0.0
H734 H 0.83069 0.36413 0.6823 0.0
H735 H 0.83613 0.40205 0.6447 0.0
H736 H 0.88529 0.41183 0.62296 0.0
H737 H 0.92175 0.34464 0.67661 0.0
H738 H 0.83125 0.41217 0.7622 0.0
H739 H 0.78353 0.38964 0.77636 0.0
O740 O 0.83845 0.30411 0.68679 0.0
C741 C 0.86007 0.26096 0.73305 0.0
C742 C 0.79405 0.34779 0.75667 0.0
C743 C 0.82652 0.38954 0.75643 0.0
N744 N 0.84133 0.34425 0.7331 0.0
C745 C 0.81528 0.33176 0.74112 0.0
C746 C 0.84715 0.37276 0.74086 0.0
C747 C 0.79977 0.37691 0.76435 0.0
C748 C 0.9394 0.24899 0.71389 0.0
N749 N 0.91811 0.23571 0.69739 0.0
C750 C 0.95888 0.23262 0.7311 0.0
C751 C 0.95672 0.20215 0.73144 0.0
C752 C 0.93464 0.18856 0.71536 0.0
C753 C 0.91534 0.20572 0.69885 0.0
C754 C 0.88173 0.1908 0.61229 0.0
C755 C 0.84672 0.22122 0.65173 0.0
C756 C 0.89398 0.21063 0.63235 0.0
N757 N 0.87646 0.22556 0.65191 0.0
C758 C 0.83378 0.20218 0.63173 0.0
C759 C 0.85137 0.18678 0.61195 0.0
C760 C 0.83832 0.29417 0.66057 0.0
C761 C 0.90677 0.37877 0.6489 0.0
C762 C 0.8522 0.36795 0.67328 0.0
C763 C 0.85513 0.38965 0.65183 0.0
C764 C 0.88267 0.39513 0.63964 0.0
N765 N 0.876 0.35221 0.68284 0.0
C766 C 0.90294 0.35724 0.6704 0.0
Co767 Co 0.97955 0.63881 0.91796 0.0
Co768 Co 0.9173 0.62572 0.95599 0.0
O769 O 0.94322 0.65366 0.93569 0.0
C770 C 0.96873 0.69809 0.88946 0.0
O771 O 0.94507 0.70312 0.90523 0.0
C772 C 0.90294 0.68597 0.98105 0.0
O773 O 0.9187 0.70006 0.96156 0.0
O774 O 0.95019 0.61963 0.98447 0.0
O775 O 0.98325 0.60831 0.94981 0.0
H776 H 0.89593 0.53249 0.01119 0.0
H777 H 0.97109 0.69589 0.95207 0.0
O778 O 0.97916 0.67188 0.88752 0.0
H779 H 0.0714 0.66284 0.9747 0.0
H780 H 0.06022 0.6368 0.84134 0.0
H781 H 0.00211 0.57835 0.91104 0.0
H782 H 0.03913 0.63314 0.94324 0.0
H783 H 0.02824 0.6612 0.87674 0.0
O784 O 0.90155 0.65802 0.98161 0.0
H785 H 0.92619 0.56683 0.98226 0.0
H786 H 0.85549 0.62759 0.97874 0.0
H787 H 0.03461 0.55337 0.8765 0.0
H788 H 0.00164 0.72581 0.98461 0.0
H789 H 0.06389 0.58229 0.8407 0.0
H790 H 0.05273 0.70994 -0.0044 0.0
O791 O 0.9547 0.61181 0.89352 0.0
H792 H 0.85693 0.68445 0.8837 0.0
H793 H 0.87303 0.58677 0.92691 0.0
H794 H 0.83441 0.59312 0.88994 0.0
H795 H 0.82583 0.64234 0.86816 0.0
H796 H 0.89554 0.67695 0.92027 0.0
H797 H 0.82442 0.59414 0.0079 0.0
H798 H 0.84452 0.54608 0.02414 0.0
O799 O 0.93161 0.59157 0.93123 0.0
C800 C 0.97602 0.61135 0.97686 0.0
C801 C 0.88683 0.55328 0.00408 0.0
C802 C 0.84672 0.58788 0.00225 0.0
N803 N 0.89257 0.59886 0.97824 0.0
C804 C 0.90389 0.57274 0.9876 0.0
C805 C 0.86446 0.60675 0.98578 0.0
C806 C 0.85801 0.56093 0.01137 0.0
C807 C 0.99288 0.68842 0.9566 0.0
N808 N 0.00383 0.6634 0.94368 0.0
C809 C 0.01033 0.7057 0.97514 0.0
C810 C 0.03898 0.69683 0.98128 0.0
C811 C 0.04951 0.67053 0.96945 0.0
C812 C 0.03134 0.65391 0.95107 0.0
C813 C 0.04805 0.62387 0.85707 0.0
C814 C 0.01534 0.59163 0.8966 0.0
C815 C 0.02971 0.63771 0.87763 0.0
N816 N 0.01329 0.62167 0.89713 0.0
C817 C 0.0337 0.5771 0.87667 0.0
C818 C 0.05 0.59334 0.85662 0.0
C819 C 0.94181 0.58962 0.90505 0.0
C820 C 0.8601 0.66298 0.89337 0.0
C821 C 0.86949 0.60834 0.9179 0.0
C822 C 0.84752 0.61177 0.89681 0.0
C823 C 0.84273 0.63935 0.88458 0.0
N824 N 0.88606 0.63175 0.9271 0.0
C825 C 0.88187 0.65867 0.91454 0.0
Co826 Co 0.6004 0.73179 0.18837 0.0
Co827 Co 0.62654 0.66957 0.22082 0.0
O828 O 0.59497 0.69157 0.20117 0.0
C829 C 0.54748 0.71526 0.15168 0.0
O830 O 0.54132 0.69059 0.16516 0.0
C831 C 0.56864 0.64409 0.23932 0.0
O832 O 0.55488 0.65557 0.21699 0.0
O833 O 0.62686 0.70094 0.25258 0.0
O834 O 0.62554 0.74085 0.22341 0.0
H835 H 0.72746 0.65226 0.26462 0.0
H836 H 0.54501 0.70523 0.21523 0.0
O837 O 0.57338 0.72618 0.15313 0.0
H838 H 0.54442 0.80793 0.24806 0.0
H839 H 0.57004 0.82554 0.14242 0.0
H840 H 0.65396 0.7667 0.17525 0.0
H841 H 0.58657 0.78765 0.22125 0.0
H842 H 0.5617 0.77919 0.16631 0.0
O843 O 0.59607 0.6476 0.24331 0.0
H844 H 0.69005 0.68018 0.23815 0.0
H845 H 0.63022 0.60874 0.24565 0.0
H846 H 0.66278 0.80723 0.1415 0.0
H847 H 0.50432 0.7228 0.24556 0.0
H848 H 0.62144 0.83914 0.12624 0.0
H849 H 0.50267 0.77522 0.26094 0.0
O850 O 0.6358 0.7178 0.16494 0.0
H851 H 0.58426 0.60859 0.13694 0.0
H852 H 0.67381 0.63431 0.19158 0.0
H853 H 0.67662 0.59782 0.15202 0.0
H854 H 0.63158 0.58421 0.12448 0.0
H855 H 0.5825 0.64525 0.176 0.0
H856 H 0.66717 0.58023 0.27228 0.0
H857 H 0.71628 0.60185 0.28212 0.0
O858 O 0.65783 0.69106 0.1995 0.0
C859 C 0.62859 0.72891 0.24867 0.0
C860 C 0.7059 0.64283 0.26109 0.0
C861 C 0.67209 0.60246 0.26542 0.0
N862 N 0.65682 0.64729 0.24185 0.0
C863 C 0.68425 0.65881 0.24638 0.0
C864 C 0.65096 0.6191 0.2507 0.0
C865 C 0.69966 0.61454 0.27083 0.0
C866 C 0.54513 0.72763 0.22171 0.0
N867 N 0.5672 0.74596 0.21294 0.0
C868 C 0.52179 0.73766 0.23921 0.0
C869 C 0.52083 0.767 0.24782 0.0
C870 C 0.54402 0.78538 0.24032 0.0
C871 C 0.56765 0.77398 0.22417 0.0
C872 C 0.58877 0.81192 0.14731 0.0
C873 C 0.63546 0.77884 0.16689 0.0
C874 C 0.58409 0.78622 0.16256 0.0
N875 N 0.6073 0.7704 0.17296 0.0
C876 C 0.64076 0.80247 0.14841 0.0
C877 C 0.61734 0.81968 0.13915 0.0
C878 C 0.65888 0.70637 0.17633 0.0
C879 C 0.60385 0.61346 0.14952 0.0
C880 C 0.65368 0.62795 0.18083 0.0
C881 C 0.65561 0.60747 0.15791 0.0
C882 C 0.63041 0.59994 0.14239 0.0
N883 N 0.62724 0.6402 0.1889 0.0
C884 C 0.6028 0.63391 0.17254 0.0
Co885 Co 0.51772 0.35536 0.43351 0.0
Co886 Co 0.57842 0.37677 0.46991 0.0
O887 O 0.55671 0.34681 0.44769 0.0
C888 C 0.53016 0.29925 0.39771 0.0
O889 O 0.55568 0.29201 0.40903 0.0
C890 C 0.59683 0.3177 0.49114 0.0
O891 O 0.58278 0.30448 0.4699 0.0
O892 O 0.54481 0.37879 0.49924 0.0
O893 O 0.51054 0.38469 0.46508 0.0
H894 H 0.59035 0.46841 0.53174 0.0
H895 H 0.53424 0.29479 0.45616 0.0
O896 O 0.52045 0.32558 0.40015 0.0
H897 H 0.44061 0.31848 0.50461 0.0
H898 H 0.41763 0.33052 0.40292 0.0
H899 H 0.4892 0.40966 0.41465 0.0
H900 H 0.46367 0.35377 0.47114 0.0
H901 H 0.46658 0.31946 0.41559 0.0
O902 O 0.59719 0.34549 0.49405 0.0
H903 H 0.56319 0.43236 0.50192 0.0
H904 H 0.64039 0.38122 0.49054 0.0
H905 H 0.44841 0.42068 0.38767 0.0
H906 H 0.51251 0.25909 0.48972 0.0
H907 H 0.36764 0.38721 0.37939 0.0
H908 H 0.46493 0.27054 0.51418 0.0
O909 O 0.53617 0.38804 0.40922 0.0
H910 H 0.64652 0.32844 0.39528 0.0
H911 H 0.61659 0.4218 0.4417 0.0
H912 H 0.65569 0.42187 0.4044 0.0
H913 H 0.67128 0.37488 0.38105 0.0
H914 H 0.60728 0.32941 0.43202 0.0
H915 H 0.66852 0.41645 0.52058 0.0
H916 H 0.64359 0.46066 0.54116 0.0
O917 O 0.56023 0.40948 0.44636 0.0
C918 C 0.51828 0.38455 0.49185 0.0
C919 C 0.60159 0.44944 0.52258 0.0
C920 C 0.64542 0.42028 0.51636 0.0
N921 N 0.60022 0.40527 0.49342 0.0
C922 C 0.58625 0.42905 0.50545 0.0
C923 C 0.62933 0.40041 0.49932 0.0
C924 C 0.63142 0.44505 0.52792 0.0
C925 C 0.51366 0.29998 0.46595 0.0
N926 N 0.49998 0.32596 0.45992 0.0
C927 C 0.50134 0.27963 0.48533 0.0
C928 C 0.47472 0.28607 0.49909 0.0
C929 C 0.46105 0.31286 0.49365 0.0
C930 C 0.47427 0.33275 0.4744 0.0
C931 C 0.43289 0.34864 0.40202 0.0
C932 C 0.47392 0.3921 0.41037 0.0
C933 C 0.461 0.34215 0.4113 0.0
N934 N 0.48012 0.36414 0.41769 0.0
C935 C 0.44818 0.3987 0.39627 0.0
C936 C 0.42385 0.37816 0.39492 0.0
C937 C 0.54836 0.41096 0.42092 0.0
C938 C 0.64033 0.349 0.4057 0.0
C939 C 0.62323 0.40114 0.43204 0.0
C940 C 0.64543 0.40137 0.41074 0.0
C941 C 0.65414 0.37505 0.39764 0.0
N942 N 0.61024 0.37539 0.44065 0.0
C943 C 0.61817 0.34965 0.42706 0.0
Co944 Co 0.30844 0.38755 0.2267 0.0
Co945 Co 0.27388 0.36893 0.16313 0.0
O946 O 0.29561 0.39775 0.18745 0.0
C947 C 0.35095 0.43825 0.2114 0.0
O948 O 0.33846 0.4439 0.1861 0.0
C949 C 0.24175 0.42384 0.15887 0.0
O950 O 0.24264 0.42471 0.18763 0.0
O951 O 0.2422 0.36632 0.19455 0.0
O952 O 0.27195 0.36368 0.23369 0.0
H953 H 0.22149 0.2741 0.1391 0.0
H954 H 0.29213 0.44951 0.2074 0.0
O955 O 0.34536 0.41348 0.22387 0.0
H956 H 0.25008 0.43905 0.30641 0.0
H957 H 0.35967 0.40201 0.3214 0.0
H958 H 0.31534 0.32981 0.25609 0.0
H959 H 0.27316 0.3968 0.28161 0.0
H960 H 0.33046 0.41836 0.27978 0.0
O961 O 0.25329 0.40266 0.14472 0.0
H962 H 0.24921 0.30832 0.17045 0.0
H963 H 0.25232 0.37076 0.10137 0.0
H964 H 0.35037 0.31315 0.29293 0.0
H965 H 0.26944 0.49215 0.23114 0.0
H966 H 0.37527 0.35056 0.32486 0.0
H967 H 0.24839 0.48743 0.28134 0.0
O968 O 0.32976 0.3524 0.20924 0.0
H969 H 0.34905 0.4203 0.1002 0.0
H970 H 0.30628 0.32447 0.12693 0.0
H971 H 0.34646 0.32637 0.09052 0.0
H972 H 0.36809 0.37456 0.07681 0.0
H973 H 0.30906 0.41723 0.1368 0.0
H974 H 0.22457 0.33717 0.06924 0.0
H975 H 0.20894 0.2884 0.08801 0.0
O976 O 0.29426 0.33426 0.18085 0.0
C977 C 0.24629 0.36309 0.22226 0.0
C978 C 0.22789 0.29542 0.13075 0.0
C979 C 0.22959 0.33081 0.09157 0.0
N980 N 0.25168 0.34201 0.13826 0.0
C981 C 0.24345 0.31505 0.14855 0.0
C982 C 0.24509 0.34988 0.11003 0.0
C983 C 0.22089 0.30343 0.10209 0.0
C984 C 0.28454 0.44721 0.22959 0.0
N985 N 0.28684 0.42097 0.24398 0.0
C986 C 0.27092 0.47149 0.24278 0.0
C987 C 0.25897 0.4688 0.27083 0.0
C988 C 0.26002 0.44173 0.28492 0.0
C989 C 0.27339 0.41784 0.27079 0.0
C990 C 0.35237 0.3863 0.30565 0.0
C991 C 0.32638 0.34584 0.26936 0.0
C992 C 0.33433 0.39527 0.28302 0.0
N993 N 0.32263 0.37517 0.26435 0.0
C994 C 0.34602 0.33624 0.29058 0.0
C995 C 0.3598 0.35692 0.30835 0.0
C996 C 0.31723 0.33072 0.19628 0.0
C997 C 0.33965 0.39919 0.10579 0.0
C998 C 0.31541 0.34557 0.12102 0.0
C999 C 0.33822 0.34649 0.10039 0.0
C1000 C 0.35035 0.37352 0.09272 0.0
N1001 N 0.30483 0.37088 0.13359 0.0
C1002 C 0.31682 0.39739 0.12635 0.0
Co1003 Co 0.81754 0.10552 0.76454 0.0
Co1004 Co 0.77834 0.12279 0.82508 0.0
O1005 O 0.80049 0.09374 0.80176 0.0
C1006 C 0.85251 0.05253 0.78347 0.0
O1007 O 0.83839 0.04913 0.80842 0.0
C1008 C 0.7437 0.06931 0.82819 0.0
O1009 O 0.74554 0.06755 0.7995 0.0
O1010 O 0.74955 0.12599 0.79192 0.0
O1011 O 0.78398 0.13255 0.75746 0.0
H1012 H 0.71561 0.21267 0.84212 0.0
H1013 H 0.79578 0.044 0.77664 0.0
O1014 O 0.85099 0.07682 0.76944 0.0
H1015 H 0.75797 0.06871 0.67877 0.0
H1016 H 0.88034 0.09523 0.67415 0.0
H1017 H 0.82312 0.1633 0.7363 0.0
H1018 H 0.78694 0.10456 0.70684 0.0
H1019 H 0.85172 0.07654 0.71574 0.0
O1020 O 0.75578 0.09012 0.84222 0.0
H1021 H 0.74592 0.17834 0.81285 0.0
H1022 H 0.75857 0.12436 0.88757 0.0
H1023 H 0.8502 0.18261 0.69464 0.0
H1024 H 0.76738 0.00719 0.74936 0.0
H1025 H 0.87949 0.14878 0.66257 0.0
H1026 H 0.74812 0.01937 0.69985 0.0
O1027 O 0.83939 0.1374 0.78591 0.0
H1028 H 0.84451 0.06735 0.89374 0.0
H1029 H 0.81143 0.16565 0.86253 0.0
H1030 H 0.84894 0.1614 0.90129 0.0
H1031 H 0.86569 0.11196 0.91719 0.0
H1032 H 0.80718 0.07261 0.85489 0.0
H1033 H 0.72826 0.15794 0.9177 0.0
H1034 H 0.70669 0.20262 0.89505 0.0
O1035 O 0.80084 0.1571 0.80866 0.0
C1036 C 0.75708 0.13096 0.76531 0.0
C1037 C 0.72514 0.19345 0.85233 0.0
C1038 C 0.73224 0.16276 0.89474 0.0
N1039 N 0.75487 0.1499 0.84859 0.0
C1040 C 0.74247 0.17401 0.83585 0.0
C1041 C 0.7495 0.14387 0.87756 0.0
C1042 C 0.72011 0.18778 0.88201 0.0
C1043 C 0.7889 0.04908 0.75479 0.0
N1044 N 0.79513 0.07582 0.74282 0.0
C1045 C 0.77219 0.02829 0.73953 0.0
C1046 C 0.76127 0.03517 0.71185 0.0
C1047 C 0.76687 0.06277 0.69999 0.0
C1048 C 0.78369 0.08293 0.71593 0.0
C1049 C 0.86771 0.11034 0.68745 0.0
C1050 C 0.83543 0.1482 0.72264 0.0
C1051 C 0.85156 0.09986 0.71126 0.0
N1052 N 0.83597 0.11885 0.72871 0.0
C1053 C 0.85107 0.15937 0.69896 0.0
C1054 C 0.86743 0.14034 0.68122 0.0
C1055 C 0.82659 0.15962 0.79773 0.0
C1056 C 0.83739 0.08901 0.88701 0.0
C1057 C 0.81872 0.14406 0.86916 0.0
C1058 C 0.83991 0.14179 0.89121 0.0
C1059 C 0.84928 0.11405 0.90014 0.0
N1060 N 0.80714 0.1194 0.85637 0.0
C1061 C 0.81623 0.09213 0.86503 0.0
Co1062 Co 0.13133 0.55846 0.00721 0.0
Co1063 Co 0.11536 0.53203 0.07446 0.0
O1064 O 0.14473 0.54813 0.04677 0.0
C1065 C 0.19046 0.58996 0.0111 0.0
O1066 O 0.19829 0.57642 0.03525 0.0
C1067 C 0.16634 0.4934 0.08745 0.0
O1068 O 0.16732 0.48484 0.05992 0.0
O1069 O 0.11032 0.4974 0.04698 0.0
O1070 O 0.10223 0.5255 0.00802 0.0
H1071 H 0.02429 0.52508 0.14016 0.0
H1072 H 0.18787 0.5268 0.0246 0.0
O1073 O 0.16324 0.59042 0.00343 0.0
H1074 H 0.16322 0.48952 0.92614 0.0
H1075 H 0.12817 0.62146 0.91629 0.0
H1076 H 0.07266 0.55424 0.97958 0.0
H1077 H 0.12912 0.52196 0.9528 0.0
H1078 H 0.15339 0.59522 0.95451 0.0
O1079 O 0.14734 0.51184 0.09593 0.0
H1080 H 0.05695 0.54954 0.10574 0.0
H1081 H 0.10922 0.47252 0.09793 0.0
H1082 H 0.04748 0.58032 0.94183 0.0
H1083 H 0.22205 0.49358 -0.00047 0.0
H1084 H 0.07522 0.61548 0.9096 0.0
H1085 H 0.2105 0.4753 0.94934 0.0
O1086 O 0.10159 0.58572 0.02563 0.0
H1087 H 0.17755 0.5982 0.1383 0.0
H1088 H 0.07963 0.58739 0.09461 0.0
H1089 H 0.08907 0.62835 0.12722 0.0
H1090 H 0.13819 0.63426 0.14999 0.0
H1091 H 0.16757 0.55714 0.1054 0.0
H1092 H 0.07634 0.4468 0.13202 0.0
H1093 H 0.03367 0.47318 0.15393 0.0
O1094 O 0.08166 0.55205 0.05453 0.0
C1095 C 0.10426 0.50022 0.01972 0.0
C1096 C 0.0434 0.51363 0.13161 0.0
C1097 C 0.07244 0.4697 0.12692 0.0
N1098 N 0.08717 0.51378 0.10155 0.0
C1099 C 0.06277 0.52784 0.11244 0.0
C1100 C 0.09124 0.48462 0.10778 0.0
C1101 C 0.04852 0.48447 0.13915 0.0
C1102 C 0.18271 0.51996 0.00264 0.0
N1103 N 0.15782 0.52965 0.98884 0.0
C1104 C 0.20216 0.50061 0.98859 0.0
C1105 C 0.19564 0.4903 0.96049 0.0
C1106 C 0.16926 0.49844 0.94738 0.0
C1107 C 0.15024 0.51754 0.96231 0.0
C1108 C 0.11618 0.60641 0.92997 0.0
C1109 C 0.08578 0.56781 0.96538 0.0
C1110 C 0.13048 0.59072 0.95188 0.0
N1111 N 0.11534 0.5717 0.96973 0.0
C1112 C 0.07091 0.58315 0.94376 0.0
C1113 C 0.08626 0.60277 0.92606 0.0
C1114 C 0.07908 0.57492 0.03877 0.0
C1115 C 0.15563 0.59521 0.12956 0.0
C1116 C 0.10066 0.58788 0.10513 0.0
C1117 C 0.10609 0.61209 0.12335 0.0
C1118 C 0.13365 0.61552 0.13597 0.0
N1119 N 0.12169 0.56667 0.10022 0.0
C1120 C 0.14941 0.57127 0.11125 0.0
Co1121 Co 0.67178 0.8911 0.2659 0.0
Co1122 Co 0.71684 0.873 0.32195 0.0
O1123 O 0.69217 0.90179 0.30174 0.0
C1124 C 0.63762 0.9429 0.28987 0.0
O1125 O 0.65373 0.94693 0.3134 0.0
C1126 C 0.74256 0.9326 0.33379 0.0
O1127 O 0.72826 0.94469 0.31214 0.0
O1128 O 0.742 0.87163 0.28576 0.0
O1129 O 0.70529 0.86498 0.25319 0.0
H1130 H 0.78246 0.78396 0.32884 0.0
H1131 H 0.69114 0.95483 0.27737 0.0
O1132 O 0.63798 0.91802 0.27656 0.0
H1133 H 0.71888 0.93339 0.17512 0.0
H1134 H 0.60228 0.9099 0.18287 0.0
H1135 H 0.65606 0.83433 0.23789 0.0
H1136 H 0.69711 0.89511 0.20608 0.0
H1137 H 0.63912 0.9244 0.21998 0.0
O1138 O 0.74107 0.90525 0.33895 0.0
H1139 H 0.74903 0.81864 0.30433 0.0
H1140 H 0.74241 0.86977 0.38223 0.0
H1141 H 0.6163 0.82019 0.20497 0.0
H1142 H 0.71336 0.99356 0.24778 0.0
H1143 H 0.58708 0.8589 0.17908 0.0
H1144 H 0.7271 0.98333 0.19587 0.0
O1145 O 0.65296 0.85724 0.28776 0.0
H1146 H 0.65163 0.92455 0.39553 0.0
H1147 H 0.69086 0.82863 0.36361 0.0
H1148 H 0.6563 0.83082 0.40519 0.0
H1149 H 0.63641 0.87911 0.42159 0.0
H1150 H 0.686 0.92106 0.35373 0.0
H1151 H 0.77581 0.83576 0.40775 0.0
H1152 H 0.79591 0.7923 0.38113 0.0
O1153 O 0.69376 0.83864 0.30653 0.0
C1154 C 0.73266 0.86598 0.25973 0.0
C1155 C 0.77366 0.80266 0.34079 0.0
C1156 C 0.7699 0.8317 0.38506 0.0
N1157 N 0.74298 0.8457 0.3419 0.0
C1158 C 0.75464 0.82234 0.32695 0.0
C1159 C 0.75092 0.85086 0.37047 0.0
C1160 C 0.78121 0.80736 0.3701 0.0
C1161 C 0.69653 0.94987 0.2551 0.0
N1162 N 0.69114 0.92267 0.24351 0.0
C1163 C 0.70942 0.97207 0.23827 0.0
C1164 C 0.71717 0.96633 0.20919 0.0
C1165 C 0.71248 0.93842 0.19754 0.0
C1166 C 0.69992 0.91675 0.21523 0.0
C1167 C 0.61338 0.89361 0.19577 0.0
C1168 C 0.64398 0.85117 0.2264 0.0
C1169 C 0.63482 0.90136 0.2161 0.0
N1170 N 0.64938 0.88016 0.23163 0.0
C1171 C 0.62141 0.84295 0.20762 0.0
C1172 C 0.60549 0.86443 0.19285 0.0
C1173 C 0.66708 0.83547 0.29874 0.0
C1174 C 0.66021 0.90337 0.38871 0.0
C1175 C 0.68231 0.84966 0.37031 0.0
C1176 C 0.66276 0.8508 0.39406 0.0
C1177 C 0.65164 0.87788 0.40327 0.0
N1178 N 0.69077 0.87475 0.35613 0.0
C1179 C 0.67984 0.90132 0.36508 0.0
Co1180 Co 0.35237 0.43309 0.51236 0.0
Co1181 Co 0.37181 0.46879 0.5751 0.0
O1182 O 0.34231 0.44683 0.55161 0.0
C1183 C 0.30178 0.38968 0.52713 0.0
O1184 O 0.29504 0.40149 0.55267 0.0
C1185 C 0.31413 0.49567 0.58489 0.0
O1186 O 0.3118 0.49808 0.55625 0.0
O1187 O 0.37274 0.50028 0.54368 0.0
O1188 O 0.37696 0.46932 0.50528 0.0
H1189 H 0.46788 0.52057 0.59545 0.0
H1190 H 0.28934 0.44635 0.52946 0.0
O1191 O 0.32633 0.39663 0.51495 0.0
H1192 H 0.30429 0.49821 0.43627 0.0
H1193 H 0.33751 0.40861 0.40681 0.0
H1194 H 0.40758 0.40585 0.48689 0.0
H1195 H 0.34553 0.47307 0.46022 0.0
H1196 H 0.32144 0.41998 0.4551 0.0
O1197 O 0.33864 0.48839 0.59577 0.0
H1198 H 0.43269 0.49252 0.56574 0.0
H1199 H 0.37236 0.49104 0.63711 0.0
H1200 H 0.41883 0.37749 0.44751 0.0
H1201 H 0.2474 0.47048 0.50613 0.0
H1202 H 0.39666 0.37724 0.36378 0.0
H1203 H 0.25454 0.49665 0.4589 0.0
O1204 O 0.38676 0.41148 0.53094 0.0
H1205 H 0.32293 0.39319 0.63919 0.0
H1206 H 0.41762 0.43707 0.60976 0.0
H1207 H 0.41699 0.39716 0.64619 0.0
H1208 H 0.36939 0.37498 0.66124 0.0
H1209 H 0.32453 0.43311 0.60275 0.0
H1210 H 0.4069 0.51913 0.66764 0.0
H1211 H 0.45516 0.53418 0.64689 0.0
O1212 O 0.40603 0.44878 0.55588 0.0
C1213 C 0.37651 0.49548 0.51604 0.0
C1214 C 0.44672 0.51459 0.60461 0.0
C1215 C 0.41251 0.5138 0.64508 0.0
N1216 N 0.39962 0.49122 0.59894 0.0
C1217 C 0.42644 0.49892 0.58768 0.0
C1218 C 0.39279 0.49818 0.62747 0.0
C1219 C 0.4396 0.52217 0.63347 0.0
C1220 C 0.2926 0.45624 0.50849 0.0
N1221 N 0.31963 0.45576 0.49533 0.0
C1222 C 0.26878 0.47066 0.49559 0.0
C1223 C 0.27281 0.48548 0.46922 0.0
C1224 C 0.30067 0.48636 0.45655 0.0
C1225 C 0.32405 0.47219 0.47047 0.0
C1226 C 0.35287 0.40459 0.42444 0.0
C1227 C 0.39084 0.40461 0.47066 0.0
C1228 C 0.34417 0.41431 0.45201 0.0
N1229 N 0.36396 0.41735 0.47408 0.0
C1230 C 0.39808 0.38877 0.44571 0.0
C1231 C 0.38125 0.39147 0.41912 0.0
C1232 C 0.40901 0.42448 0.54237 0.0
C1233 C 0.3438 0.40276 0.63291 0.0
C1234 C 0.39677 0.42768 0.61625 0.0
C1235 C 0.39658 0.40502 0.63687 0.0
C1236 C 0.36987 0.39255 0.64527 0.0
N1237 N 0.37108 0.43778 0.60439 0.0
C1238 C 0.34485 0.42542 0.61229 0.0
Co1239 Co 0.17212 0.60351 0.73276 0.0
Co1240 Co 0.20565 0.61698 0.66831 0.0
O1241 O 0.18703 0.58876 0.69533 0.0
C1242 C 0.14262 0.54378 0.7257 0.0
O1243 O 0.15759 0.53731 0.70187 0.0
C1244 C 0.22858 0.55702 0.65291 0.0
O1245 O 0.20866 0.54401 0.66898 0.0
O1246 O 0.23626 0.62345 0.69936 0.0
O1247 O 0.20349 0.63465 0.73405 0.0
H1248 H 0.25848 0.71104 0.64437 0.0
H1249 H 0.20644 0.54717 0.72167 0.0
O1250 O 0.14169 0.57038 0.73523 0.0
H1251 H 0.23524 0.57958 0.82059 0.0
H1252 H 0.10662 0.60461 0.8221 0.0
H1253 H 0.16495 0.66444 0.75371 0.0
H1254 H 0.20155 0.6091 0.79096 0.0
H1255 H 0.13855 0.58098 0.78544 0.0
O1256 O 0.23043 0.58484 0.6511 0.0
H1257 H 0.23138 0.67637 0.67591 0.0
H1258 H 0.22565 0.61516 0.60553 0.0
H1259 H 0.13313 0.68867 0.78902 0.0
H1260 H 0.2415 0.51768 0.74936 0.0
H1261 H 0.10316 0.65873 0.82382 0.0
H1262 H 0.25568 0.53318 0.79981 0.0
O1263 O 0.1455 0.62953 0.70948 0.0
H1264 H 0.12728 0.5593 0.6139 0.0
H1265 H 0.17524 0.65561 0.62491 0.0
H1266 H 0.13633 0.64947 0.5883 0.0
H1267 H 0.11215 0.60091 0.58219 0.0
H1268 H 0.16594 0.56642 0.65033 0.0
H1269 H 0.25304 0.64892 0.57321 0.0
H1270 H 0.26943 0.69738 0.59251 0.0
O1271 O 0.18126 0.65067 0.68406 0.0
C1272 C 0.23008 0.63216 0.72541 0.0
C1273 C 0.25128 0.69008 0.63562 0.0
C1274 C 0.24826 0.6552 0.59571 0.0
N1275 N 0.22636 0.64408 0.64253 0.0
C1276 C 0.23582 0.67043 0.6534 0.0
C1277 C 0.23282 0.63614 0.61416 0.0
C1278 C 0.25746 0.68239 0.60655 0.0
C1279 C 0.21221 0.55449 0.7432 0.0
N1280 N 0.19974 0.57922 0.75525 0.0
C1281 C 0.23226 0.53745 0.75902 0.0
C1282 C 0.24019 0.54612 0.78729 0.0
C1283 C 0.22861 0.57201 0.799 0.0
C1284 C 0.20885 0.58851 0.78235 0.0
C1285 C 0.11954 0.61778 0.80721 0.0
C1286 C 0.15267 0.65094 0.76877 0.0
C1287 C 0.13815 0.60444 0.78669 0.0
N1288 N 0.15434 0.62092 0.76758 0.0
C1289 C 0.13434 0.66499 0.78887 0.0
C1290 C 0.11763 0.64824 0.8082 0.0
C1291 C 0.15544 0.65164 0.69526 0.0
C1292 C 0.13812 0.5804 0.61583 0.0
C1293 C 0.16552 0.63418 0.62223 0.0
C1294 C 0.14316 0.63094 0.60149 0.0
C1295 C 0.12956 0.60375 0.59813 0.0
N1296 N 0.17481 0.61087 0.63882 0.0
C1297 C 0.16057 0.5845 0.63635 0.0
Co1298 Co 0.64234 0.92039 0.97278 0.0
Co1299 Co 0.62127 0.96769 0.9198 0.0
O1300 O 0.65012 0.94114 0.93668 0.0
C1301 C 0.69452 0.88657 0.9509 0.0
O1302 O 0.70219 0.8884 0.9231 0.0
C1303 C 0.68082 0.98611 0.89791 0.0
O1304 O 0.69375 0.96281 0.90851 0.0
O1305 O 0.62406 0.99148 0.95695 0.0
O1306 O 0.61855 0.95418 0.98912 0.0
H1307 H 0.53666 0.03949 0.92257 0.0
H1308 H 0.70257 0.9426 0.95405 0.0
O1309 O 0.66693 0.88642 0.95701 0.0
H1310 H 0.69528 0.96516 0.05947 0.0
H1311 H 0.6679 0.84898 0.05203 0.0
H1312 H 0.58798 0.90387 0.00457 0.0
H1313 H 0.65426 0.94183 0.03358 0.0
H1314 H 0.67908 0.88734 0.01588 0.0
O1315 O 0.65348 0.9909 0.90143 0.0
H1316 H 0.5707 0.00274 0.9429 0.0
H1317 H 0.61509 -0.00398 0.86112 0.0
H1318 H 0.57649 0.86357 0.03757 0.0
H1319 H 0.74322 0.96829 0.97823 0.0
H1320 H 0.61687 0.83455 0.0609 0.0
H1321 H 0.74038 0.97881 0.03176 0.0
O1322 O 0.60575 0.90339 0.95342 0.0
H1323 H 0.65759 0.89631 0.84178 0.0
H1324 H 0.57149 0.94903 0.88153 0.0
H1325 H 0.56547 0.9164 0.83883 0.0
H1326 H 0.60877 0.88994 0.81832 0.0
H1327 H 0.66246 0.92847 0.88469 0.0
H1328 H 0.5817 0.03278 0.83969 0.0
H1329 H 0.54189 0.0546 0.87038 0.0
O1330 O 0.58755 0.94568 0.93715 0.0
C1331 C 0.61926 0.98169 0.98299 0.0
C1332 C 0.55367 0.0299 0.90883 0.0
C1333 C 0.57893 0.02614 0.86235 0.0
N1334 N 0.59413 -0.0037 0.90313 0.0
C1335 C 0.57293 0.00895 0.92031 0.0
C1336 C 0.59774 0.00525 0.87464 0.0
C1337 C 0.55665 0.0384 0.87959 0.0
C1338 C 0.70067 0.94739 0.97693 0.0
N1339 N 0.67632 0.93887 0.99228 0.0
C1340 C 0.72398 0.9619 0.99074 0.0
C1341 C 0.72241 0.96779 0.02073 0.0
C1342 C 0.69725 0.95997 0.03629 0.0
C1343 C 0.67411 0.9463 0.02147 0.0
C1344 C 0.65043 0.86053 0.04121 0.0
C1345 C 0.6057 0.89166 0.01453 0.0
C1346 C 0.65648 0.88247 0.02091 0.0
N1347 N 0.63419 0.8972 0.00725 0.0
C1348 C 0.59898 0.86882 0.0335 0.0
C1349 C 0.6215 0.85284 0.04661 0.0
C1350 C 0.58401 0.9188 0.94399 0.0
C1351 C 0.63867 0.9083 0.85002 0.0
C1352 C 0.59066 0.93818 0.87258 0.0
C1353 C 0.58702 0.91948 0.84841 0.0
C1354 C 0.61128 0.90461 0.83696 0.0
N1355 N 0.61782 0.94259 0.88481 0.0
C1356 C 0.64145 0.92717 0.87419 0.0
Co1357 Co 0.85556 0.0644 0.48291 0.0
Co1358 Co 0.8708 0.02985 0.41838 0.0
O1359 O 0.84218 0.04742 0.44607 0.0
C1360 C 0.79629 0.09319 0.47289 0.0
O1361 O 0.7903 0.07779 0.44918 0.0
C1362 C 0.81896 0.99155 0.41364 0.0
O1363 O 0.8181 0.98887 0.44222 0.0
O1364 O 0.87843 -0.00133 0.44929 0.0
O1365 O 0.88478 0.03071 0.48675 0.0
H1366 H 0.96401 0.97882 0.38425 0.0
H1367 H 0.79782 0.03179 0.47178 0.0
O1368 O 0.8231 0.09576 0.48139 0.0
H1369 H 0.8251 0.00919 0.57368 0.0
H1370 H 0.86033 0.14478 0.56098 0.0
H1371 H 0.91304 0.06426 0.5124 0.0
H1372 H 0.85795 0.03808 0.54203 0.0
H1373 H 0.8358 0.11546 0.52517 0.0
O1374 O 0.8384 0.00685 0.40108 0.0
H1375 H 0.93146 0.00302 0.41998 0.0
H1376 H 0.86628 0.0149 0.35488 0.0
H1377 H 0.93899 0.09537 0.54729 0.0
H1378 H 0.76455 0.00234 0.50183 0.0
H1379 H 0.91215 0.13497 0.57378 0.0
H1380 H 0.77758 0.99122 0.55361 0.0
O1381 O 0.88439 0.08867 0.46012 0.0
H1382 H 0.80596 0.09854 0.36134 0.0
H1383 H 0.90834 0.06885 0.38114 0.0
H1384 H 0.89865 0.10932 0.34659 0.0
H1385 H 0.84715 0.12435 0.33641 0.0
H1386 H 0.81664 0.0583 0.39591 0.0
H1387 H 0.89791 0.99052 0.31821 0.0
H1388 H 0.94731 0.97235 0.33269 0.0
O1389 O 0.90498 0.05289 0.4341 0.0
C1390 C 0.88416 0.00424 0.47654 0.0
C1391 C 0.94257 0.98671 0.3776 0.0
C1392 C 0.90552 0.99323 0.34059 0.0
N1393 N 0.89702 0.01074 0.38997 0.0
C1394 C 0.92405 0.00059 0.39796 0.0
C1395 C 0.88765 0.007 0.36159 0.0
C1396 C 0.9332 0.98306 0.34871 0.0
C1397 C 0.80382 0.02778 0.49414 0.0
N1398 N 0.82923 0.039 0.50572 0.0
C1399 C 0.78478 0.01068 0.51115 0.0
C1400 C 0.79211 0.00439 0.54015 0.0
C1401 C 0.81866 0.01457 0.55145 0.0
C1402 C 0.8372 0.0313 0.53358 0.0
C1403 C 0.8718 0.12645 0.55119 0.0
C1404 C 0.90093 0.08145 0.52299 0.0
C1405 C 0.85757 0.10854 0.53077 0.0
N1406 N 0.8716 0.08504 0.51764 0.0
C1407 C 0.91597 0.09917 0.54306 0.0
C1408 C 0.90103 0.12137 0.55781 0.0
C1409 C 0.90719 0.07679 0.44857 0.0
C1410 C 0.82849 0.09215 0.36556 0.0
C1411 C 0.88586 0.07534 0.37696 0.0
C1412 C 0.88051 0.09823 0.3573 0.0
C1413 C 0.85161 0.10664 0.3516 0.0
N1414 N 0.86306 0.06115 0.3905 0.0
C1415 C 0.83467 0.06935 0.38508 0.0
C1416 C 0.13735 0.18442 0.47439 0.0
C1417 C 0.10796 0.19325 0.48067 0.0
C1418 C 0.11387 0.23595 0.44935 0.0
C1419 C 0.14224 0.2257 0.44075 0.0
N1420 N 0.17609 0.18459 0.43806 0.0
N1421 N 0.06563 0.22201 0.46666 0.0
C1422 C 0.15262 0.19826 0.45116 0.0
C1423 C 0.09534 0.2173 0.46576 0.0
N1424 N 0.15132 0.16384 0.49111 0.0
N1425 N 0.10506 0.26399 0.44352 0.0
H1426 H 0.05109 0.208 0.47753 0.0
H1427 H 0.05521 0.23781 0.45381 0.0
H1428 H 0.11883 0.2793 0.4339 0.0
H1429 H 0.08555 0.27301 0.45165 0.0
H1430 H 0.17372 0.15932 0.48903 0.0
H1431 H 0.14157 0.15339 0.50891 0.0
H1432 H 0.18268 0.16333 0.44349 0.0
H1433 H 0.1866 0.19273 0.41939 0.0
C1434 C 0.02753 0.89832 0.71353 0.0
C1435 C 0.00535 0.88304 0.69807 0.0
C1436 C 0.02359 0.83602 0.71571 0.0
C1437 C 0.04331 0.85157 0.73411 0.0
N1438 N 0.06185 0.89748 0.75375 0.0
N1439 N 0.97963 0.83821 0.68594 0.0
C1440 C 0.04494 0.88272 0.73377 0.0
C1441 C 0.00269 0.85207 0.69937 0.0
N1442 N 0.03234 0.92756 0.70835 0.0
N1443 N 0.02541 0.80604 0.71337 0.0
H1444 H 0.96395 0.84936 0.67353 0.0
H1445 H 0.97473 0.81605 0.68886 0.0
H1446 H 0.04079 0.79357 0.72488 0.0
H1447 H 0.01352 0.79376 0.69813 0.0
H1448 H 0.05034 0.93906 0.7166 0.0
H1449 H 0.0198 0.93983 0.69365 0.0
H1450 H 0.061 0.92019 0.7568 0.0
H1451 H 0.0751 0.88694 0.769 0.0
C1452 C 0.3661 0.78639 0.93116 0.0
C1453 C 0.34646 0.7644 0.94113 0.0
C1454 C 0.35824 0.77588 0.99194 0.0
C1455 C 0.3805 0.79514 0.9818 0.0
N1456 N 0.41061 0.81312 0.94176 0.0
N1457 N 0.32972 0.73279 0.98032 0.0
C1458 C 0.38595 0.79882 0.95137 0.0
C1459 C 0.34407 0.75755 0.97136 0.0
N1460 N 0.36518 0.79607 0.90275 0.0
N1461 N 0.34986 0.77577 0.02084 0.0
H1462 H 0.32104 0.71762 0.96553 0.0
H1463 H 0.32963 0.72561 0.00205 0.0
H1464 H 0.35896 0.78972 0.03661 0.0
H1465 H 0.33176 0.76395 0.02846 0.0
H1466 H 0.37739 0.81397 0.89534 0.0
H1467 H 0.35001 0.78833 0.88739 0.0
H1468 H 0.41678 0.81388 0.91968 0.0
H1469 H 0.42659 0.82139 0.95597 0.0
C1470 C 0.44615 0.09461 0.17915 0.0
C1471 C 0.47367 0.08904 0.19262 0.0
C1472 C 0.46418 0.12645 0.23016 0.0
C1473 C 0.43707 0.13263 0.21609 0.0
N1474 N 0.39917 0.11974 0.18134 0.0
N1475 N 0.51007 0.09885 0.22965 0.0
C1476 C 0.42717 0.11594 0.19169 0.0
C1477 C 0.48291 0.10451 0.21803 0.0
N1478 N 0.43889 0.08042 0.15355 0.0
N1479 N 0.47146 0.14111 0.25547 0.0
H1480 H 0.52358 0.08189 0.22193 0.0
H1481 H 0.51977 0.11112 0.24633 0.0
H1482 H 0.45859 0.15796 0.26438 0.0
H1483 H 0.4895 0.13609 0.26851 0.0
H1484 H 0.42119 0.0863 0.14037 0.0
H1485 H 0.4515 0.06343 0.14452 0.0
H1486 H 0.38927 0.10584 0.16607 0.0
H1487 H 0.38483 0.13583 0.18939 0.0
C1488 C 0.60815 0.2595 0.54733 0.0
C1489 C 0.63921 0.25719 0.54652 0.0
C1490 C 0.64285 0.29692 0.51114 0.0
C1491 C 0.61185 0.29963 0.51248 0.0
N1492 N 0.56535 0.28894 0.5357 0.0
N1493 N 0.68677 0.27675 0.53327 0.0
C1494 C 0.59457 0.28262 0.53189 0.0
C1495 C 0.65683 0.27688 0.53014 0.0
N1496 N 0.59169 0.23886 0.5617 0.0
N1497 N 0.65867 0.31248 0.49087 0.0
H1498 H 0.69783 0.26212 0.54699 0.0
H1499 H 0.70054 0.29261 0.5242 0.0
H1500 H 0.64921 0.32802 0.47703 0.0
H1501 H 0.68085 0.30874 0.48644 0.0
H1502 H 0.56887 0.23759 0.56032 0.0
H1503 H 0.60095 0.22149 0.57334 0.0
H1504 H 0.55217 0.27911 0.55162 0.0
H1505 H 0.5548 0.306 0.52463 0.0
C1506 C 0.93818 0.38807 0.7619 0.0
C1507 C 0.94411 0.35754 0.75994 0.0
C1508 C 0.98243 0.36275 0.79657 0.0
C1509 C 0.97347 0.39241 0.80188 0.0
N1510 N 0.9359 0.42965 0.79475 0.0
N1511 N 0.9672 0.31445 0.7804 0.0
C1512 C 0.9493 0.40412 0.78606 0.0
C1513 C 0.96469 0.34438 0.77891 0.0
N1514 N 0.92311 0.40206 0.74015 0.0
N1515 N 0.00878 0.35251 0.80639 0.0
H1516 H 0.95422 0.30014 0.76802 0.0
H1517 H 0.98007 0.30394 0.79613 0.0
H1518 H 0.02408 0.36607 0.81627 0.0
H1519 H 0.01708 0.33181 0.8009 0.0
H1520 H 0.92044 0.42484 0.73966 0.0
H1521 H 0.91635 0.39132 0.72104 0.0
H1522 H 0.91682 0.43752 0.78482 0.0
H1523 H 0.94133 0.44081 0.81405 0.0
C1524 C 0.8714 0.70559 0.05468 0.0
C1525 C 0.84771 0.72429 0.04683 0.0
C1526 C 0.86095 0.71897 0.9949 0.0
C1527 C 0.88594 0.70232 0.00322 0.0
N1528 N 0.91905 0.686 0.04102 0.0
N1529 N 0.82441 0.75465 0.0101 0.0
C1530 C 0.89252 0.69772 0.03317 0.0
C1531 C 0.84368 0.7327 0.01709 0.0
N1532 N 0.87273 0.69382 0.08217 0.0
N1533 N 0.85301 0.72081 0.96602 0.0
H1534 H 0.81214 0.76609 0.02582 0.0
H1535 H 0.8228 0.76353 0.98909 0.0
H1536 H 0.8654 0.71163 0.94899 0.0
H1537 H 0.83298 0.72959 0.95921 0.0
H1538 H 0.88832 0.67827 0.08843 0.0
H1539 H 0.8559 0.6967 0.09741 0.0
H1540 H 0.92617 0.68483 0.06274 0.0
H1541 H 0.93518 0.6803 0.02562 0.0
C1542 C 0.53262 0.60468 0.25016 0.0
C1543 C 0.55195 0.62682 0.26045 0.0
C1544 C 0.54099 0.61375 0.31106 0.0
C1545 C 0.51869 0.59469 0.30066 0.0
N1546 N 0.48779 0.57861 0.26059 0.0
N1547 N 0.56904 0.65744 0.30066 0.0
C1548 C 0.51291 0.59187 0.27025 0.0
C1549 C 0.55472 0.63284 0.29093 0.0
N1550 N 0.53358 0.59525 0.22158 0.0
N1551 N 0.54956 0.61316 0.33983 0.0
H1552 H 0.57795 0.67314 0.28657 0.0
H1553 H 0.56915 0.66394 0.32267 0.0
H1554 H 0.54067 0.59866 0.35518 0.0
H1555 H 0.56761 0.62491 0.34766 0.0
H1556 H 0.52137 0.57737 0.21401 0.0
H1557 H 0.54886 0.60302 0.20634 0.0
H1558 H 0.48157 0.57826 0.23855 0.0
H1559 H 0.47148 0.57145 0.27496 0.0
C1560 C 0.19298 0.44592 0.14904 0.0
C1561 C 0.22344 0.44488 0.14304 0.0
C1562 C 0.2174 0.47943 0.10257 0.0
C1563 C 0.1869 0.48092 0.10919 0.0
N1564 N 0.14994 0.4763 0.14789 0.0
N1565 N 0.26599 0.46671 0.12028 0.0
C1566 C 0.17586 0.46764 0.13527 0.0
C1567 C 0.23616 0.46341 0.12154 0.0
N1568 N 0.18001 0.42559 0.16697 0.0
N1569 N 0.22848 0.49385 0.07869 0.0
H1570 H 0.27993 0.45686 0.13548 0.0
H1571 H 0.27658 0.48161 0.10654 0.0
H1572 H 0.21613 0.5088 0.06654 0.0
H1573 H 0.24969 0.49048 0.07059 0.0
H1574 H 0.15725 0.42381 0.16927 0.0
H1575 H 0.19157 0.40862 0.17711 0.0
H1576 H 0.14246 0.46796 0.16788 0.0
H1577 H 0.13843 0.49494 0.14166 0.0
C1578 C 0.69495 0.03739 0.88649 0.0
C1579 C 0.69774 0.00696 0.88037 0.0
C1580 C 0.73296 0.01725 0.84137 0.0
C1581 C 0.72694 0.04763 0.84484 0.0
N1582 N 0.69661 0.08614 0.86598 0.0
N1583 N 0.71383 0.96827 0.84708 0.0
C1584 C 0.70624 0.05763 0.86602 0.0
C1585 C 0.71515 -0.00314 0.8564 0.0
N1586 N 0.68251 0.04698 0.91224 0.0
N1587 N 0.75643 0.00784 0.825 0.0
H1588 H 0.70009 0.95265 0.85657 0.0
H1589 H 0.72407 0.96091 0.82785 0.0
H1590 H 0.77114 0.02223 0.81502 0.0
H1591 H 0.76315 0.98592 0.82417 0.0
H1592 H 0.68249 0.06901 0.91868 0.0
H1593 H 0.67521 0.03272 0.92861 0.0
H1594 H 0.67963 0.09366 0.87954 0.0
H1595 H 0.70317 0.1014 0.85021 0.0
C1596 C 0.79227 0.94348 0.35221 0.0
C1597 C 0.76191 0.95026 0.35241 0.0
C1598 C 0.76874 0.98464 0.39328 0.0
C1599 C 0.79848 0.97551 0.39487 0.0
N1600 N 0.838 0.94352 0.37922 0.0
N1601 N 0.72008 0.9751 0.37416 0.0
C1602 C 0.81012 0.95414 0.37526 0.0
C1603 C 0.74976 0.97033 0.37315 0.0
N1604 N 0.80408 0.92753 0.32946 0.0
N1605 N 0.75904 0.00782 0.41 0.0
H1606 H 0.70568 0.96686 0.3584 0.0
H1607 H 0.70956 0.98611 0.39137 0.0
H1608 H 0.77228 0.01865 0.42527 0.0
H1609 H 0.73855 0.01771 0.40732 0.0
H1610 H 0.82658 0.92437 0.32648 0.0
H1611 H 0.79154 0.91981 0.31186 0.0
H1612 H 0.84669 0.92587 0.36737 0.0
H1613 H 0.85165 0.9506 0.39625 0.0
C1614 C 0.24194 0.52941 0.60767 0.0
C1615 C 0.24929 0.5389 0.6364 0.0
C1616 C 0.29405 0.50962 0.63517 0.0
C1617 C 0.28937 0.50446 0.60469 0.0
N1618 N 0.25191 0.4943 0.56893 0.0
N1619 N 0.28266 0.53994 0.6775 0.0
C1620 C 0.26125 0.51005 0.59272 0.0
C1621 C 0.2754 0.52949 0.65023 0.0
N1622 N 0.21703 0.53957 0.59436 0.0
N1623 N 0.31374 0.49304 0.6505 0.0
H1624 H 0.26897 0.55388 0.68965 0.0
H1625 H 0.30322 0.53663 0.68701 0.0
H1626 H 0.32315 0.47408 0.64169 0.0
H1627 H 0.31672 0.49478 0.67314 0.0
H1628 H 0.21234 0.53599 0.57223 0.0
H1629 H 0.20212 0.55354 0.60485 0.0
H1630 H 0.23075 0.49562 0.56033 0.0
H1631 H 0.26394 0.4765 0.56091 0.0
C1632 C 0.24794 0.3718 0.51592 0.0
C1633 C 0.27826 0.37522 0.50777 0.0
C1634 C 0.26331 0.37411 0.45646 0.0
C1635 C 0.23426 0.36574 0.46299 0.0
N1636 N 0.19749 0.36059 0.50124 0.0
N1637 N 0.31238 0.36051 0.47001 0.0
C1638 C 0.22604 0.36567 0.49351 0.0
C1639 C 0.28531 0.3706 0.47792 0.0
N1640 N 0.24004 0.37356 0.54484 0.0
N1641 N 0.26972 0.38737 0.43052 0.0
H1642 H 0.32782 0.35358 0.48545 0.0
H1643 H 0.31764 0.35564 0.44832 0.0
H1644 H 0.25342 0.39331 0.41554 0.0
H1645 H 0.29066 0.39524 0.42592 0.0
H1646 H 0.21842 0.37601 0.55207 0.0
H1647 H 0.25522 0.3716 0.5618 0.0
H1648 H 0.19076 0.35542 0.52249 0.0
H1649 H 0.18022 0.36269 0.48643 0.0
C1650 C 0.86555 0.98205 0.73848 0.0
C1651 C 0.88861 0.99279 0.7203 0.0
C1652 C 0.89455 0.03483 0.75409 0.0
C1653 C 0.86818 0.02762 0.76849 0.0
N1654 N 0.82917 0.99229 0.77648 0.0
N1655 N 0.92212 0.03141 0.70907 0.0
C1656 C 0.85403 0.00035 0.76167 0.0
C1657 C 0.90239 0.0197 0.72796 0.0
N1658 N 0.85444 0.95459 0.73339 0.0
N1659 N 0.91234 0.05606 0.76579 0.0
H1660 H 0.93056 0.05266 0.71093 0.0
H1661 H 0.93056 0.05266 0.71093 0.0
H1662 H 0.90707 0.06699 0.78537 0.0
H1663 H 0.9336 0.06016 0.75822 0.0
H1664 H 0.84005 0.94395 0.74765 0.0
H1665 H 0.8609 0.94165 0.71549 0.0
H1666 H 0.81535 0.97536 0.76968 0.0
H1667 H 0.82194 0.00275 0.79553 0.0
C1668 C 0.25555 0.63863 0.98611 0.0
C1669 C 0.26309 0.62511 0.95867 0.0
C1670 C 0.22333 0.58959 0.96525 0.0
C1671 C 0.21431 0.60352 0.99209 0.0
N1672 N 0.22088 0.64263 0.02716 0.0
N1673 N 0.26169 0.58157 0.92895 0.0
C1674 C 0.23052 0.62821 0.00247 0.0
C1675 C 0.24924 0.59869 0.95048 0.0
N1676 N 0.27293 0.66054 -0.00289 0.0
N1677 N 0.20629 0.5686 0.95262 0.0
H1678 H 0.28136 0.58726 0.91852 0.0
H1679 H 0.2547 0.56031 0.92399 0.0
H1680 H 0.1866 0.56252 0.9617 0.0
H1681 H 0.2096 0.5602 0.93151 0.0
H1682 H 0.27026 0.67005 0.01778 0.0
H1683 H 0.29198 0.66774 0.98674 0.0
H1684 H 0.2294 0.66245 0.03476 0.0
H1685 H 0.20259 0.63578 0.03922 0.0
C1686 C 0.59582 0.97302 0.22855 0.0
C1687 C 0.61006 -0.00026 0.22161 0.0
C1688 C 0.63788 0.99526 0.26804 0.0
C1689 C 0.62337 0.96795 0.27379 0.0
N1690 N 0.57931 0.94013 0.26699 0.0
N1691 N 0.64119 0.0394 0.23768 0.0
C1692 C 0.59902 0.96024 0.25659 0.0
C1693 C 0.62986 0.01202 0.24247 0.0
N1694 N 0.58048 0.95906 0.20734 0.0
N1695 N 0.65944 0.00501 0.28645 0.0
H1696 H 0.63731 0.05107 0.21838 0.0
H1697 H 0.65327 0.05112 0.25319 0.0
H1698 H 0.66304 -0.00392 0.30713 0.0
H1699 H 0.67375 0.0221 0.28136 0.0
H1700 H 0.57058 0.93858 0.21002 0.0
H1701 H 0.57058 0.93858 0.21002 0.0
H1702 H 0.55933 0.93565 0.25671 0.0
H1703 H 0.58152 0.93077 0.28781 0.0
C1704 C 0.72485 0.13294 0.4975 0.0
C1705 C 0.71981 0.11888 0.52507 0.0
C1706 C 0.7644 0.09074 0.51907 0.0
C1707 C 0.77089 0.10431 0.49155 0.0
N1708 N 0.75381 0.13521 0.45219 0.0
N1709 N 0.72663 0.07507 0.55299 0.0
C1710 C 0.74977 0.12425 0.47983 0.0
C1711 C 0.7365 0.09412 0.53206 0.0
N1712 N 0.70625 0.15459 0.48837 0.0
N1713 N 0.78562 0.07747 0.53501 0.0
H1714 H 0.70612 0.07781 0.56309 0.0
H1715 H 0.73732 0.05531 0.55762 0.0
H1716 H 0.80734 0.07967 0.52944 0.0
H1717 H 0.78219 0.06915 0.55608 0.0
H1718 H 0.71049 0.16824 0.47056 0.0
H1719 H 0.68623 0.15893 0.49865 0.0
H1720 H 0.73807 0.14737 0.44098 0.0
H1721 H 0.77278 0.13112 0.43984 0.0
C1722 C 0.11029 0.49899 0.73561 0.0
C1723 C 0.13244 0.51888 0.74499 0.0
C1724 C 0.14095 0.48817 0.78881 0.0
C1725 C 0.11584 0.47134 0.78194 0.0
N1726 N 0.0856 0.45212 0.74295 0.0
N1727 N 0.16695 0.53376 0.78112 0.0
C1728 C 0.10309 0.47413 0.75352 0.0
C1729 C 0.14741 0.51344 0.77172 0.0
N1730 N 0.09509 0.50475 0.71043 0.0
N1731 N 0.15926 0.4792 0.81085 0.0
H1732 H 0.17736 0.53339 0.8015 0.0
H1733 H 0.17736 0.53339 0.8015 0.0
H1734 H 0.15553 0.46017 0.82302 0.0
H1735 H 0.17992 0.48823 0.81472 0.0
H1736 H 0.07644 0.49318 0.70397 0.0
H1737 H 0.09987 0.52272 0.69705 0.0
H1738 H 0.07808 0.45113 0.72139 0.0
H1739 H 0.08046 0.43349 0.7552 0.0
C1740 C 0.74229 0.88554 0.98031 0.0
C1741 C 0.71554 0.87186 0.97151 0.0
C1742 C 0.72035 0.83638 0.0112 0.0
C1743 C 0.74581 0.85119 0.02208 0.0
N1744 N 0.78056 0.89073 0.01747 0.0
N1745 N 0.68771 0.82712 0.97016 0.0
C1746 C 0.75693 0.87579 0.00643 0.0
C1747 C 0.70747 0.84489 0.98423 0.0
N1748 N 0.75449 0.90662 0.96282 0.0
N1749 N 0.70673 0.81574 0.02782 0.0
H1750 H 0.67873 0.83248 0.94978 0.0
H1751 H 0.68308 0.80569 0.97668 0.0
H1752 H 0.71168 0.81367 0.04973 0.0
H1753 H 0.68728 0.80514 0.02204 0.0
H1754 H 0.77517 0.91576 0.96625 0.0
H1755 H 0.74491 0.91339 0.94321 0.0
H1756 H 0.78806 0.91068 0.00925 0.0
H1757 H 0.79152 0.88416 0.03647 0.0
C1758 C 0.36577 0.49343 0.22185 0.0
C1759 C 0.36511 0.46288 0.22977 0.0
C1760 C 0.36885 0.47782 0.28099 0.0
C1761 C 0.37453 0.50748 0.27439 0.0
N1762 N 0.37509 0.54446 0.23629 0.0
N1763 N 0.38594 0.43027 0.26529 0.0
C1764 C 0.37211 0.51568 0.24404 0.0
C1765 C 0.37274 0.45626 0.25891 0.0
N1766 N 0.36117 0.50136 0.19335 0.0
N1767 N 0.3575 0.47031 0.3076 0.0
H1768 H 0.39222 0.41529 0.24896 0.0
H1769 H 0.3933 0.42556 0.28632 0.0
H1770 H 0.35055 0.48605 0.32292 0.0
H1771 H 0.35218 0.44875 0.31272 0.0
H1772 H 0.35649 0.52279 0.18687 0.0
H1773 H 0.36307 0.48657 0.17592 0.0
H1774 H 0.3784 0.55142 0.21476 0.0
H1775 H 0.37333 0.56159 0.25145 0.0
C1776 C 0.50377 0.2849 0.35101 0.0
C1777 C 0.51246 0.2775 0.37994 0.0
C1778 C 0.47688 0.23608 0.37927 0.0
C1779 C 0.46926 0.24261 0.34979 0.0
N1780 N 0.48012 0.27047 0.30596 0.0
N1781 N 0.51206 0.24154 0.41895 0.0
C1782 C 0.48408 0.26622 0.33528 0.0
C1783 C 0.50047 0.25172 0.39327 0.0
N1784 N 0.51443 0.30996 0.33831 0.0
N1785 N 0.46141 0.21505 0.39407 0.0
H1786 H 0.52988 0.25136 0.42933 0.0
H1787 H 0.50624 0.22155 0.42836 0.0
H1788 H 0.44479 0.20265 0.38425 0.0
H1789 H 0.46337 0.21147 0.41658 0.0
H1790 H 0.50538 0.31937 0.31957 0.0
H1791 H 0.53171 0.32215 0.34718 0.0
H1792 H 0.49296 0.28437 0.29311 0.0
H1793 H 0.46525 0.25836 0.29397 0.0
C1794 C 0.00941 0.24381 0.59779 0.0
C1795 C 0.02124 0.22184 0.61659 0.0
C1796 C 0.9953 0.24622 0.65696 0.0
C1797 C 0.9761 0.26044 0.63679 0.0
N1798 N 0.96626 0.27281 0.58626 0.0
N1799 N 0.02476 0.20295 0.66597 0.0
C1800 C 0.98339 0.25905 0.60655 0.0
C1801 C 0.01373 0.22306 0.64676 0.0
N1802 N 0.02409 0.25214 0.57305 0.0
N1803 N -0.00154 0.25647 0.68492 0.0
H1804 H 0.03999 0.18689 0.65972 0.0
H1805 H 0.01751 0.20174 0.68774 0.0
H1806 H 0.98869 0.27586 0.69228 0.0
H1807 H 0.01409 0.24795 0.69932 0.0
H1808 H 0.01718 0.26971 0.5601 0.0
H1809 H 0.0449 0.24411 0.56771 0.0
H1810 H 0.9697 0.27022 0.56369 0.0
H1811 H 0.94782 0.28527 0.59208 0.0
C1812 C 0.97674 0.74693 0.86256 0.0
C1813 C 0.98743 0.72411 0.88102 0.0
C1814 C 0.02927 0.7555 0.89393 0.0
C1815 C 0.02325 0.77415 0.87042 0.0
N1816 N 0.98736 0.792 0.83567 0.0
N1817 N 0.0277 0.70517 0.90837 0.0
C1818 C -0.00447 0.77152 0.85589 0.0
C1819 C 0.01466 0.72829 0.89535 0.0
N1820 N 0.94909 0.74481 0.85111 0.0
N1821 N 0.05008 0.76331 0.91408 0.0
H1822 H 0.04874 0.70594 0.91738 0.0
H1823 H 0.04874 0.70594 0.91738 0.0
H1824 H 0.06109 0.78344 0.91284 0.0
H1825 H 0.05367 0.75156 0.93339 0.0
H1826 H 0.93872 0.7617 0.83976 0.0
H1827 H 0.93591 0.72629 0.85407 0.0
H1828 H 0.96966 0.78943 0.82144 0.0
H1829 H -0.00179 0.81198 0.8333 0.0
C1830 C 0.50038 0.74546 0.15036 0.0
C1831 C 0.52403 0.73146 0.13505 0.0
C1832 C 0.50369 0.75111 0.08945 0.0
C1833 C 0.4854 0.77094 0.1055 0.0
N1834 N 0.46771 0.78769 0.15266 0.0
N1835 N 0.5489 0.7229 0.08884 0.0
C1836 C 0.48434 0.76851 0.13647 0.0
C1837 C 0.52616 0.7352 0.10424 0.0
N1838 N 0.49181 0.73561 0.17727 0.0
N1839 N 0.49795 0.74527 0.06069 0.0
H1840 H 0.56472 0.7095 0.09861 0.0
H1841 H 0.55278 0.72755 0.06673 0.0
H1842 H 0.47821 0.75175 0.05124 0.0
H1843 H 0.50975 0.72991 0.04828 0.0
H1844 H 0.47356 0.74394 0.1885 0.0
H1845 H 0.50005 0.71625 0.18611 0.0
H1846 H 0.46851 0.78853 0.17556 0.0
H1847 H 0.4547 0.80392 0.14304 0.0
C1848 C 0.20474 0.36466 0.29352 0.0
C1849 C 0.20689 0.33398 0.29974 0.0
C1850 C 0.21584 0.3249 0.24705 0.0
C1851 C 0.22173 0.3548 0.24277 0.0
N1852 N 0.20995 0.40384 0.257 0.0
N1853 N 0.21932 0.28524 0.28146 0.0
C1854 C 0.21261 0.37503 0.26472 0.0
C1855 C 0.21312 0.31407 0.27609 0.0
N1856 N 0.19553 0.38364 0.31503 0.0
N1857 N 0.21251 0.30706 0.22321 0.0
H1858 H 0.2237 0.27746 0.30246 0.0
H1859 H 0.22374 0.26988 0.26497 0.0
H1860 H 0.2122 0.31588 0.2021 0.0
H1861 H 0.20627 0.28506 0.22469 0.0
H1862 H 0.19558 0.4064 0.31304 0.0
H1863 H 0.1874 0.37647 0.33523 0.0
H1864 H 0.20174 0.42034 0.27064 0.0
H1865 H 0.21465 0.41077 0.23564 0.0
C1866 C 0.87283 0.96986 0.51886 0.0
C1867 C 0.89304 0.98032 0.49756 0.0
C1868 C 0.93332 0.97074 0.53148 0.0
C1869 C 0.91297 0.96318 0.55438 0.0
N1870 N 0.86291 0.95 0.56695 0.0
N1871 N 0.9412 0.97155 0.47882 0.0
C1872 C 0.88264 0.96097 0.54715 0.0
C1873 C 0.92299 0.97494 0.50237 0.0
N1874 N 0.84409 0.96631 0.51192 0.0
N1875 N 0.96219 0.97621 0.53744 0.0
H1876 H 0.93291 0.97186 0.45749 0.0
H1877 H 0.96306 0.96485 0.48072 0.0
H1878 H 0.97068 0.97667 0.55857 0.0
H1879 H 0.97693 0.98379 0.52159 0.0
H1880 H 0.83585 0.97054 0.49102 0.0
H1881 H 0.83585 0.97054 0.49102 0.0
H1882 H 0.84045 0.94861 0.56245 0.0
H1883 H 0.8691 0.94152 0.58728 0.0
C1884 C 0.27085 0.62111 0.76139 0.0
C1885 C 0.25355 0.64204 0.74601 0.0
C1886 C 0.2777 0.68047 0.77437 0.0
C1887 C 0.28646 0.65973 0.79592 0.0
N1888 N 0.29575 0.60887 0.80704 0.0
N1889 N 0.24027 0.69301 0.73914 0.0
C1890 C 0.28441 0.62946 0.78853 0.0
C1891 C 0.25672 0.67218 0.75299 0.0
N1892 N 0.27476 0.59368 0.74984 0.0
N1893 N 0.29177 0.70669 0.77199 0.0
H1894 H 0.22417 0.68784 0.72371 0.0
H1895 H 0.24144 0.71524 0.74466 0.0
H1896 H 0.31202 0.70984 0.78196 0.0
H1897 H 0.28701 0.72186 0.75553 0.0
H1898 H 0.28937 0.57839 0.75857 0.0
H1899 H 0.26536 0.58737 0.72993 0.0
H1900 H 0.29255 0.58635 0.8042 0.0
H1901 H 0.30798 0.61459 0.82558 0.0
C1902 C 0.62472 0.02878 0.05236 0.0
C1903 C 0.59457 0.0357 0.05716 0.0
C1904 C 0.58153 0.00969 0.01226 0.0
C1905 C 0.61131 0.00261 0.00692 0.0
N1906 N 0.66196 0.01481 0.0163 0.0
N1907 N 0.55111 0.04921 0.02976 0.0
C1908 C 0.63329 0.01514 0.02521 0.0
C1909 C 0.57489 0.03142 0.03342 0.0
N1910 N 0.64504 0.03553 0.07329 0.0
N1911 N 0.55945 0.99526 -0.00187 0.0
H1912 H 0.54893 0.06878 0.04159 0.0
H1913 H 0.53692 0.04705 0.01188 0.0
H1914 H 0.56337 0.97718 0.98451 0.0
H1915 H 0.53734 -0.00044 0.00257 0.0
H1916 H 0.66667 0.02792 0.07248 0.0
H1917 H 0.63988 0.04847 0.09161 0.0
H1918 H 0.67864 0.0257 0.02758 0.0
H1919 H 0.66843 0.00579 -0.00387 0.0
C1920 C 0.73035 0.17908 0.70496 0.0
C1921 C 0.71486 0.15824 0.68735 0.0
C1922 C 0.71706 0.12299 0.72824 0.0
C1923 C 0.73573 0.1426 0.74375 0.0
N1924 N 0.76075 0.18883 0.74689 0.0
N1925 N 0.69245 0.11051 0.68229 0.0
C1926 C 0.74164 0.17078 0.73245 0.0
C1927 C 0.70779 0.13019 0.69909 0.0
N1928 N 0.73515 0.20702 0.69538 0.0
N1929 N 0.70837 0.09761 0.74156 0.0
H1930 H 0.68392 0.11581 0.66171 0.0
H1931 H 0.68895 0.08869 0.68806 0.0
H1932 H 0.71401 0.09296 0.76321 0.0
H1933 H 0.69375 0.08254 0.7325 0.0
H1934 H 0.74097 0.22436 0.70924 0.0
H1935 H 0.73244 0.2133 0.67385 0.0
H1936 H 0.77224 0.2055 0.73636 0.0
H1937 H 0.76712 0.18522 0.76849 0.0
C1938 C 0.11414 0.45957 0.98354 0.0
C1939 C 0.09376 0.47527 0.00132 0.0
C1940 C 0.05785 0.47417 0.96216 0.0
C1941 C 0.07827 0.45997 0.94309 0.0
N1942 N 0.12389 0.43349 0.93735 0.0
N1943 N 0.04321 0.48278 0.01264 0.0
C1944 C 0.1059 0.45065 0.95437 0.0
C1945 C 0.06448 0.47723 0.99227 0.0
N1946 N 0.14123 0.45362 0.99477 0.0
N1947 N 0.03318 0.48709 0.9512 0.0
H1948 H 0.0484 0.48451 0.03496 0.0
H1949 H 0.02084 0.48198 0.00768 0.0
H1950 H 0.02903 0.48849 0.9288 0.0
H1951 H 0.01886 0.49947 0.96409 0.0
H1952 H 0.15819 0.44346 0.98316 0.0
H1953 H 0.14632 0.45891 0.01647 0.0
H1954 H 0.14381 0.42483 0.94443 0.0
H1955 H 0.11811 0.42673 0.91619 0.0
C1956 C 0.7667 0.87874 0.21786 0.0
C1957 C 0.75383 0.85724 0.2364 0.0
C1958 C 0.78109 0.81958 0.2098 0.0
C1959 C 0.78618 0.83932 0.18606 0.0
N1960 N 0.78701 0.88967 0.16964 0.0
N1961 N 0.74544 0.8059 0.24653 0.0
C1962 C 0.77998 0.86964 0.19074 0.0
C1963 C 0.76002 0.82725 0.23139 0.0
N1964 N 0.76683 0.90753 0.22643 0.0
N1965 N 0.7972 0.79451 0.21305 0.0
H1966 H 0.728 0.81047 0.26079 0.0
H1967 H 0.74888 0.7836 0.24255 0.0
H1968 H 0.81612 0.79015 0.2009 0.0
H1969 H 0.79484 0.78088 0.23129 0.0
H1970 H 0.77804 0.92389 0.21501 0.0
H1971 H 0.7577 0.91451 0.24638 0.0
H1972 H 0.77984 0.91145 0.17031 0.0
H1973 H 0.79961 0.88415 0.15119 0.0
C1974 C 0.36487 0.53074 0.47464 0.0
C1975 C 0.38526 0.51974 0.4953 0.0
C1976 C 0.42522 0.5273 0.46053 0.0
C1977 C 0.40498 0.53516 0.4379 0.0
N1978 N 0.3553 0.54821 0.42479 0.0
N1979 N 0.43392 0.5268 0.51297 0.0
C1980 C 0.37463 0.5384 0.44546 0.0
C1981 C 0.41522 0.52424 0.48985 0.0
N1982 N 0.33673 0.53552 0.48396 0.0
N1983 N 0.45359 0.52019 0.4539 0.0
H1984 H 0.42563 0.528 0.53432 0.0
H1985 H 0.45612 0.53208 0.51067 0.0
H1986 H 0.46096 0.51761 0.43243 0.0
H1987 H 0.4687 0.51337 0.46962 0.0
H1988 H 0.32058 0.54573 0.47148 0.0
H1989 H 0.33027 0.53055 0.50544 0.0
H1990 H 0.33263 0.54897 0.42783 0.0
H1991 H 0.3621 0.55537 0.4041 0.0
C1992 C 0.26996 0.21599 0.37289 0.0
C1993 C 0.24874 0.22434 0.3517 0.0
C1994 C 0.27758 0.1963 0.31569 0.0
C1995 C 0.30317 0.19844 0.33387 0.0
N1996 N 0.31976 0.20171 0.3842 0.0
N1997 N 0.23051 0.21714 0.30275 0.0
C1998 C 0.2983 0.20594 0.36383 0.0
C1999 C 0.25206 0.21303 0.32292 0.0
N2000 N 0.2629 0.21557 0.40189 0.0
N2001 N 0.27602 0.17569 0.2939 0.0
H2002 H 0.2101 0.22541 0.30884 0.0
H2003 H 0.23327 0.21254 0.28042 0.0
H2004 H 0.29082 0.15829 0.29265 0.0
H2005 H 0.25739 0.17248 0.28099 0.0
H2006 H 0.24196 0.22093 0.40977 0.0
H2007 H 0.24196 0.22093 0.40977 0.0
H2008 H 0.31678 0.20736 0.40629 0.0
H2009 H 0.33973 0.19154 0.37915 0.0
C2010 C 0.03011 0.00024 0.57848 0.0
C2011 C 0.0229 -0.00393 0.60797 0.0
C2012 C 0.04093 0.04567 0.61938 0.0
C2013 C 0.0396 0.05303 0.58896 0.0
N2014 N 0.03468 0.03352 0.53826 0.0
N2015 N 0.03501 0.00955 0.65737 0.0
C2016 C 0.03546 0.02917 0.56801 0.0
C2017 C 0.03244 0.01707 0.62865 0.0
N2018 N 0.03309 0.97607 0.5609 0.0
N2019 N 0.05091 0.06547 0.63963 0.0
H2020 H 0.03036 0.98843 0.66503 0.0
H2021 H 0.03036 0.98843 0.66503 0.0
H2022 H 0.05989 0.08574 0.63387 0.0
H2023 H 0.0516 0.06074 0.66206 0.0
H2024 H 0.04114 0.97665 0.53943 0.0
H2025 H 0.03162 0.95502 0.56976 0.0
H2026 H 0.02819 0.01728 0.52343 0.0
H2027 H 0.03704 0.0534 0.52754 0.0
C2028 C 0.23492 0.7622 0.81953 0.0
C2029 C 0.24432 0.76275 0.84892 0.0
C2030 C 0.19637 0.78458 0.86264 0.0
C2031 C 0.18565 0.77834 0.83402 0.0
N2032 N 0.19435 0.7529 0.78788 0.0
N2033 N 0.23443 0.77969 0.89847 0.0
C2034 C 0.2049 0.76515 0.81309 0.0
C2035 C 0.22531 0.77551 0.87039 0.0
N2036 N 0.25484 0.75925 0.79745 0.0
N2037 N 0.17907 0.79877 0.88276 0.0
H2038 H 0.25563 0.77461 0.90548 0.0
H2039 H 0.25563 0.77461 0.90548 0.0
H2040 H 0.15804 0.80648 0.87783 0.0
H2041 H 0.18623 0.80333 0.90409 0.0
H2042 H 0.24938 0.7612 0.77528 0.0
H2043 H 0.27703 0.75985 0.80192 0.0
H2044 H 0.20733 0.74044 0.77359 0.0
H2045 H 0.17215 0.75165 0.78338 0.0
C2046 C 0.4802 0.98269 0.07027 0.0
C2047 C 0.48626 0.98712 0.10038 0.0
C2048 C 0.46042 0.941 0.11169 0.0
C2049 C 0.45617 0.93605 0.08131 0.0
N2050 N 0.44245 0.96433 0.0384 0.0
N2051 N 0.46975 0.97588 0.14979 0.0
C2052 C 0.46004 0.96047 0.06223 0.0
C2053 C 0.47251 0.96819 0.12112 0.0
N2054 N 0.49367 -0.00085 0.04926 0.0
N2055 N 0.45126 0.92082 0.1318 0.0
H2056 H 0.47629 -0.00371 0.15787 0.0
H2057 H 0.47629 -0.00371 0.15787 0.0
H2058 H 0.43989 0.9018 0.1258 0.0
H2059 H 0.45432 0.92387 0.15436 0.0
H2060 H 0.48977 -0.00394 0.02691 0.0
H2061 H 0.51053 0.01376 0.0542 0.0
H2062 H 0.44398 0.98274 0.02488 0.0
H2063 H 0.42334 0.95209 0.03557 0.0
C2064 C 0.75742 0.27525 0.65536 0.0
C2065 C 0.75685 0.25899 0.62873 0.0
C2066 C 0.80646 0.27709 0.6168 0.0
C2067 C 0.80882 0.28921 0.64563 0.0
N2068 N 0.77958 0.3157 0.68148 0.0
N2069 N 0.77312 0.26015 0.57871 0.0
C2070 C 0.78222 0.2931 0.66188 0.0
C2071 C 0.77921 0.26441 0.60772 0.0
N2072 N 0.73422 0.27432 0.67426 0.0
N2073 N 0.82969 0.2782 0.59779 0.0
H2074 H 0.75244 0.25299 0.57175 0.0
H2075 H 0.78708 0.26689 0.56183 0.0
H2076 H 0.8478 0.29179 0.60133 0.0
H2077 H 0.83052 0.26593 0.57838 0.0
H2078 H 0.73519 0.28204 0.69586 0.0
H2079 H 0.71421 0.26549 0.66811 0.0
H2080 H 0.76013 0.32081 0.69258 0.0
H2081 H 0.79529 0.33217 0.68284 0.0
C2082 C 0.97269 0.52659 0.85732 0.0
C2083 C 0.97838 0.50629 0.88024 0.0
C2084 C 0.94342 0.53407 0.91069 0.0
C2085 C 0.94672 0.55905 0.89226 0.0
N2086 N 0.9583 0.57595 0.84332 0.0
N2087 N 0.96577 0.48986 0.92904 0.0
C2088 C 0.95938 0.55435 0.86398 0.0
C2089 C 0.96256 0.50962 0.90696 0.0
N2090 N 0.97773 0.51823 0.82896 0.0
N2091 N 0.92064 0.5326 0.93017 0.0
H2092 H 0.97803 0.47088 0.92634 0.0
H2093 H 0.95751 0.49332 0.9502 0.0
H2094 H 0.90362 0.54791 0.92997 0.0
H2095 H 0.91623 0.51407 0.94286 0.0
H2096 H 0.97123 0.53069 0.81094 0.0
H2097 H 0.98523 0.49716 0.82368 0.0
H2098 H 0.97078 0.57531 0.82404 0.0
H2099 H 0.94473 0.59433 0.84556 0.0
C2100 C 0.69916 0.70553 0.13738 0.0
C2101 C 0.68905 0.7142 0.16575 0.0
C2102 C 0.73881 0.73151 0.1777 0.0
C2103 C 0.74663 0.72928 0.14809 0.0
N2104 N 0.73943 0.70601 0.10156 0.0
N2105 N 0.69962 0.73831 0.21223 0.0
C2106 C 0.72834 0.71353 0.12842 0.0
C2107 C 0.70917 0.72739 0.18595 0.0
N2108 N 0.68094 0.68987 0.11931 0.0
N2109 N 0.76006 0.73776 0.19784 0.0
H2110 H 0.6778 0.73776 0.21859 0.0
H2111 H 0.71275 0.75076 0.22623 0.0
H2112 H 0.78201 0.74041 0.19149 0.0
H2113 H 0.75657 0.73646 0.22045 0.0
H2114 H 0.68645 0.68297 0.09818 0.0
H2115 H 0.6599 0.68334 0.12572 0.0
H2116 H 0.72801 0.69464 0.08536 0.0
H2117 H 0.76131 0.71019 0.09629 0.0
C2118 C 0.52573 0.47344 0.36839 0.0
C2119 C 0.51558 0.49463 0.38912 0.0
C2120 C 0.54349 0.46732 0.42625 0.0
C2121 C 0.54332 0.44152 0.408 0.0
N2122 N 0.5429 0.42443 0.35759 0.0
N2123 N 0.52101 0.51427 0.43787 0.0
C2124 C 0.53673 0.44577 0.37785 0.0
C2125 C 0.52623 0.49227 0.4182 0.0
N2126 N 0.52765 0.48016 0.33945 0.0
N2127 N 0.56267 0.46962 0.44912 0.0
H2128 H 0.51233 0.53429 0.4313 0.0
H2129 H 0.52491 0.51225 0.46035 0.0
H2130 H 0.58026 0.45527 0.45149 0.0
H2131 H 0.56462 0.48839 0.4622 0.0
H2132 H 0.52234 0.50086 0.33123 0.0
H2133 H 0.52234 0.50086 0.33123 0.0
H2134 H 0.53762 0.42679 0.3354 0.0
H2135 H 0.55434 0.40527 0.3628 0.0
C2136 C 0.36218 0.25944 0.20627 0.0
C2137 C 0.34368 0.2439 0.22609 0.0
C2138 C 0.30594 0.28195 0.22063 0.0
C2139 C 0.32574 0.29958 0.20383 0.0
N2140 N 0.37271 0.30496 0.18007 0.0
N2141 N 0.29565 0.23691 0.24691 0.0
C2142 C 0.3538 0.28809 0.19619 0.0
C2143 C 0.31483 0.25413 0.23143 0.0
N2144 N 0.38743 0.24639 0.19664 0.0
N2145 N 0.27939 0.29302 0.22897 0.0
H2146 H 0.30202 0.21756 0.25716 0.0
H2147 H 0.27305 0.24054 0.24802 0.0
H2148 H 0.27005 0.31124 0.21938 0.0
H2149 H 0.26773 0.28537 0.24701 0.0
H2150 H 0.40113 0.25498 0.18047 0.0
H2151 H 0.39318 0.22536 0.20324 0.0
H2152 H 0.3947 0.29967 0.17644 0.0
H2153 H 0.36659 0.3252 0.17123 0.0
C2154 C 0.81811 0.21401 0.78859 0.0
C2155 C 0.83815 0.19017 0.79164 0.0
C2156 C 0.87527 0.22211 0.76932 0.0
C2157 C 0.85267 0.23918 0.7564 0.0
N2158 N 0.80103 0.25106 0.75475 0.0
N2159 N 0.88912 0.17521 0.79024 0.0
C2160 C 0.82353 0.23523 0.76646 0.0
C2161 C 0.86788 0.19525 0.78357 0.0
N2162 N 0.7953 0.21751 0.80776 0.0
N2163 N 0.90316 0.23283 0.77034 0.0
H2164 H 0.88514 0.15737 0.80403 0.0
H2165 H 0.91047 0.17651 0.78186 0.0
H2166 H 0.90805 0.25401 0.76312 0.0
H2167 H 0.91998 0.22257 0.782 0.0
H2168 H 0.78098 0.23543 0.80697 0.0
H2169 H 0.79389 0.20516 0.82696 0.0
H2170 H 0.7793 0.2491 0.76187 0.0
H2171 H 0.80376 0.26316 0.73558 0.0
C2172 C 0.0142 0.62369 0.01518 0.0
C2173 C -0.00222 0.60229 -0.00055 0.0
C2174 C 0.02576 0.56449 0.02472 0.0
C2175 C 0.04842 0.58523 0.03129 0.0
N2176 N 0.06106 0.63632 0.03752 0.0
N2177 N 0.98835 0.55108 0.98957 0.0
C2178 C 0.0417 0.6155 0.02795 0.0
C2179 C 0.00374 0.57228 0.00421 0.0
N2180 N 0.00308 0.65131 0.01882 0.0
N2181 N 0.02332 0.53865 0.03956 0.0
H2182 H 0.97315 0.55584 0.97318 0.0
H2183 H 0.99218 0.52873 0.9925 0.0
H2184 H 0.03604 0.53328 0.05763 0.0
H2185 H 0.00512 0.52491 0.03724 0.0
H2186 H 0.01266 0.66697 0.03257 0.0
H2187 H 0.98273 0.65743 0.01029 0.0
H2188 H 0.05849 0.65867 0.03328 0.0
H2189 H 0.07997 0.631 0.0493 0.0
C2190 C 0.62414 0.7988 0.29242 0.0
C2191 C 0.65462 0.80435 0.29711 0.0
C2192 C 0.66543 0.753 0.28296 0.0
C2193 C 0.63619 0.74955 0.27336 0.0
N2194 N 0.58652 0.76134 0.28545 0.0
N2195 N 0.69836 0.77943 0.31482 0.0
C2196 C 0.61501 0.7702 0.283 0.0
C2197 C 0.67379 0.77932 0.29774 0.0
N2198 N 0.60384 0.82035 0.2975 0.0
N2199 N 0.6849 0.73063 0.27903 0.0
H2200 H 0.70179 0.79531 0.33084 0.0
H2201 H 0.71241 0.76148 0.31704 0.0
H2202 H 0.67759 0.70971 0.27366 0.0
H2203 H 0.70759 0.73292 0.28129 0.0
H2204 H 0.58201 0.81865 0.29078 0.0
H2205 H 0.60887 0.83968 0.30883 0.0
H2206 H 0.57032 0.77389 0.29586 0.0
H2207 H 0.58012 0.74003 0.27963 0.0
C2208 C 0.45281 0.38884 0.54453 0.0
C2209 C 0.44 0.41542 0.53417 0.0
C2210 C 0.485 0.42539 0.50546 0.0
C2211 C 0.49627 0.39742 0.51268 0.0
N2212 N 0.49313 0.35317 0.54105 0.0
N2213 N 0.44442 0.45848 0.50371 0.0
C2214 C 0.48101 0.37949 0.53326 0.0
C2215 C 0.4566 0.43373 0.51497 0.0
N2216 N 0.43798 0.37279 0.5651 0.0
N2217 N 0.50169 0.44442 0.48926 0.0
H2218 H 0.42759 0.46951 0.51414 0.0
H2219 H 0.45094 0.46748 0.48373 0.0
H2220 H 0.5217 0.43852 0.4799 0.0
H2221 H 0.4967 0.46663 0.48672 0.0
H2222 H 0.44617 0.35394 0.57501 0.0
H2223 H 0.41749 0.37923 0.57334 0.0
H2224 H 0.48282 0.33763 0.55421 0.0
H2225 H 0.51389 0.3466 0.53368 0.0
C2226 C 0.15869 0.70718 0.69707 0.0
C2227 C 0.1413 0.68143 0.69992 0.0
C2228 C 0.10491 0.71176 0.7262 0.0
C2229 C 0.1271 0.73263 0.73267 0.0
N2230 N 0.17487 0.75202 0.72009 0.0
N2231 N 0.09303 0.6621 0.71068 0.0
C2232 C 0.15389 0.73105 0.71668 0.0
C2233 C 0.11275 0.6846 0.71238 0.0
N2234 N 0.17815 0.70978 0.67437 0.0
N2235 N 0.07621 0.71902 0.73099 0.0
H2236 H 0.09646 0.64383 0.69711 0.0
H2237 H 0.07346 0.66182 0.7227 0.0
H2238 H 0.07012 0.73966 0.73916 0.0
H2239 H 0.05872 0.70605 0.72386 0.0
H2240 H 0.19018 0.72886 0.67036 0.0
H2241 H 0.17855 0.69471 0.65708 0.0
H2242 H 0.19616 0.7499 0.71173 0.0
H2243 H 0.17105 0.77075 0.73247 0.0
C2244 C 0.51661 0.86904 0.95727 0.0
C2245 C 0.49923 0.88937 0.97364 0.0
C2246 C 0.52992 0.92835 0.95394 0.0
C2247 C 0.55268 0.90794 0.94716 0.0
N2248 N 0.56352 0.8573 0.93492 0.0
N2249 N 0.49308 0.9397 0.98997 0.0
C2250 C 0.54487 0.8777 0.94668 0.0
C2251 C 0.50685 0.91947 0.9726 0.0
N2252 N 0.50692 0.84131 0.95176 0.0
N2253 N 0.52858 0.95513 0.94076 0.0
H2254 H 0.47755 0.93387 0.00567 0.0
H2255 H 0.49954 0.96168 0.99045 0.0
H2256 H 0.541 0.95972 0.92211 0.0
H2257 H 0.5115 0.97 0.94476 0.0
H2258 H 0.48621 0.8338 0.95827 0.0
H2259 H 0.48621 0.8338 0.95827 0.0
H2260 H 0.55847 0.8349 0.93464 0.0
H2261 H 0.58328 0.86309 0.92477 0.0
C2262 C 0.95511 0.06565 0.47472 0.0
C2263 C 0.93725 0.08601 0.45908 0.0
C2264 C 0.97318 0.12443 0.47286 0.0
C2265 C 0.98639 0.10462 0.49307 0.0
N2266 N 0.97934 0.05965 0.52055 0.0
N2267 N 0.93008 0.13598 0.4432 0.0
C2268 C 0.97466 0.07616 0.49598 0.0
C2269 C 0.94659 0.11589 0.45806 0.0
N2270 N 0.95266 0.03608 0.47156 0.0
N2271 N 0.98551 0.15142 0.46842 0.0
H2272 H 0.91186 0.12994 0.43066 0.0
H2273 H 0.93377 0.15856 0.44425 0.0
H2274 H 0.00425 0.15841 0.47963 0.0
H2275 H 0.97835 0.166 0.45237 0.0
H2276 H 0.96849 0.02187 0.48012 0.0
H2277 H 0.93678 0.02584 0.45934 0.0
H2278 H 0.96829 0.03992 0.52442 0.0
H2279 H 0.99059 0.06716 0.53889 0.0
loop_
_geom_bond_atom_site_label_1
_geom_bond_atom_site_label_2
_geom_bond_distance
_geom_bond_site_symmetry_2
_ccdc_geom_bond_type
Co0 O2 2.143 . S
Co0 O8 2.074 . S
Co0 O11 2.093 . S
Co0 O24 2.097 . S
Co0 N41 2.151 . S
Co0 N49 2.214 . S
Co1 O2 2.160 . S
Co1 O7 2.058 . S
Co1 O17 2.057 . S
Co1 O32 2.037 . S
Co1 N36 2.145 . S
Co1 N57 2.257 . S
O2 Co0 2.143 . S
O2 Co1 2.160 . S
C3 O4 1.278 . S
C3 O11 1.224 . S
O4 C3 1.278 . S
C5 O6 1.245 . S
C5 O17 1.232 . S
O6 C5 1.245 . S
O7 Co1 2.058 . S
O7 C33 1.269 . S
O8 Co0 2.074 . S
O8 C33 1.257 . S
H9 C34 0.930 . S
H10 C40 0.930 . S
O11 Co0 2.093 . S
O11 C3 1.224 . S
H12 C44 0.929 . S
H13 C46 0.930 . S
H14 C47 0.930 . S
H15 C45 0.929 . S
H16 C48 0.928 . S
O17 Co1 2.057 . S
O17 C5 1.232 . S
H18 C37 0.929 . S
H19 C38 0.929 . S
H20 C50 0.931 . S
H21 C42 0.929 . S
H22 C51 0.930 . S
H23 C43 0.931 . S
O24 Co0 2.097 . S
O24 C52 1.214 . S
H25 C53 0.929 . S
H26 C54 0.929 . S
H27 C55 0.930 . S
H28 C56 0.929 . S
H29 C58 0.930 . S
H30 C35 0.930 . S
H31 C39 0.930 . S
O32 Co1 2.037 . S
O32 C52 1.234 . S
C33 O7 1.269 . S
C33 O8 1.257 . S
C34 H9 0.930 . S
C34 C37 1.388 . S
C34 C39 1.418 . S
C35 H30 0.930 . S
C35 C38 1.404 . S
C35 C39 1.353 . S
N36 Co1 2.145 . S
N36 C37 1.397 . S
N36 C38 1.334 . S
C37 H18 0.929 . S
C37 C34 1.388 . S
C37 N36 1.397 . S
C38 H19 0.929 . S
C38 C35 1.404 . S
C38 N36 1.334 . S
C39 H31 0.930 . S
C39 C34 1.418 . S
C39 C35 1.353 . S
C40 H10 0.930 . S
C40 N41 1.330 . S
C40 C42 1.446 . S
N41 Co0 2.151 . S
N41 C40 1.330 . S
N41 C45 1.418 . S
C42 H21 0.929 . S
C42 C40 1.446 . S
C42 C43 1.332 . S
C43 H23 0.931 . S
C43 C42 1.332 . S
C43 C44 1.267 . S
C44 H12 0.929 . S
C44 C43 1.267 . S
C44 C45 1.251 . S
C45 H15 0.929 . S
C45 N41 1.418 . S
C45 C44 1.251 . S
C46 H13 0.930 . S
C46 C48 1.406 . S
C46 C51 1.261 . S
C47 H14 0.930 . S
C47 N49 1.325 . S
C47 C50 1.357 . S
C48 H16 0.928 . S
C48 C46 1.406 . S
C48 N49 1.261 . S
N49 Co0 2.214 . S
N49 C47 1.325 . S
N49 C48 1.261 . S
C50 H20 0.931 . S
C50 C47 1.357 . S
C50 C51 1.312 . S
C51 H22 0.930 . S
C51 C46 1.261 . S
C51 C50 1.312 . S
C52 O24 1.214 . S
C52 O32 1.234 . S
C53 H25 0.929 . S
C53 C56 1.391 . S
C53 C58 1.391 . S
C54 H26 0.929 . S
C54 C55 1.390 . S
C54 N57 1.391 . S
C55 H27 0.930 . S
C55 C54 1.390 . S
C55 C56 1.392 . S
C56 H28 0.929 . S
C56 C53 1.391 . S
C56 C55 1.392 . S
N57 Co1 2.257 . S
N57 C54 1.391 . S
N57 C58 1.388 . S
C58 H29 0.930 . S
C58 C53 1.391 . S
C58 N57 1.388 . S
Co59 O61 2.143 . S
Co59 O67 2.074 . S
Co59 O70 2.093 . S
Co59 O83 2.097 . S
Co59 N100 2.151 1_565 S
Co59 N108 2.214 1_565 S
Co60 O61 2.160 . S
Co60 O66 2.061 . S
Co60 O76 2.057 . S
Co60 O91 2.037 . S
Co60 N95 2.145 . S
Co60 N116 2.257 . S
O61 Co59 2.143 . S
O61 Co60 2.160 . S
C62 O63 1.278 . S
C62 O70 1.224 . S
O63 C62 1.278 . S
C64 O65 1.245 . S
C64 O76 1.232 . S
O65 C64 1.245 . S
O66 Co60 2.061 . S
O66 C92 1.270 . S
O67 Co59 2.074 . S
O67 C92 1.257 . S
H68 C93 0.930 . S
H69 C99 0.930 1_565 S
O70 Co59 2.093 . S
O70 C62 1.224 . S
H71 C103 0.929 1_455 S
H72 C105 0.930 . S
H73 C106 0.930 . S
H74 C104 0.929 . S
H75 C107 0.928 . S
O76 Co60 2.057 . S
O76 C64 1.232 . S
H77 C96 0.929 . S
H78 C97 0.929 . S
H79 C109 0.931 . S
H80 C101 0.929 . S
H81 C110 0.930 . S
H82 C102 0.931 . S
O83 Co59 2.097 . S
O83 C111 1.214 . S
H84 C112 0.929 . S
H85 C113 0.929 . S
H86 C114 0.930 . S
H87 C115 0.929 . S
H88 C117 0.930 . S
H89 C94 0.930 . S
H90 C98 0.930 . S
O91 Co60 2.037 . S
O91 C111 1.234 . S
C92 O66 1.270 . S
C92 O67 1.257 . S
C93 H68 0.930 . S
C93 C96 1.388 . S
C93 C98 1.418 1_655 S
C94 H89 0.930 . S
C94 C97 1.404 1_455 S
C94 C98 1.353 . S
N95 Co60 2.145 . S
N95 C96 1.397 . S
N95 C97 1.334 . S
C96 H77 0.929 . S
C96 C93 1.388 . S
C96 N95 1.397 . S
C97 H78 0.929 . S
C97 C94 1.404 1_655 S
C97 N95 1.334 . S
C98 H90 0.930 . S
C98 C93 1.418 1_455 S
C98 C94 1.353 . S
C99 H69 0.930 1_545 S
C99 N100 1.330 . S
C99 C101 1.446 . S
N100 Co59 2.151 1_545 S
N100 C99 1.330 . S
N100 C104 1.418 . S
C101 H80 0.929 . S
C101 C99 1.446 . S
C101 C102 1.332 . S
C102 H82 0.931 . S
C102 C101 1.332 . S
C102 C103 1.267 . S
C103 H71 0.929 1_655 S
C103 C102 1.267 . S
C103 C104 1.251 . S
C104 H74 0.929 . S
C104 N100 1.418 . S
C104 C103 1.251 . S
C105 H72 0.930 . S
C105 C107 1.406 . S
C105 C110 1.261 . S
C106 H73 0.930 . S
C106 N108 1.325 . S
C106 C109 1.357 . S
C107 H75 0.928 . S
C107 C105 1.406 . S
C107 N108 1.261 . S
N108 Co59 2.214 1_545 S
N108 C106 1.325 . S
N108 C107 1.261 . S
C109 H79 0.931 . S
C109 C106 1.357 . S
C109 C110 1.312 . S
C110 H81 0.930 . S
C110 C105 1.261 . S
C110 C109 1.312 . S
C111 O83 1.214 . S
C111 O91 1.234 . S
C112 H84 0.929 . S
C112 C115 1.391 . S
C112 C117 1.391 . S
C113 H85 0.929 . S
C113 C114 1.390 . S
C113 N116 1.391 . S
C114 H86 0.930 . S
C114 C113 1.390 . S
C114 C115 1.392 . S
C115 H87 0.929 . S
C115 C112 1.391 . S
C115 C114 1.392 . S
N116 Co60 2.257 . S
N116 C113 1.391 . S
N116 C117 1.388 . S
C117 H88 0.930 . S
C117 C112 1.391 . S
C117 N116 1.388 . S
Co118 O120 2.143 . S
Co118 O126 2.074 . S
Co118 O129 2.093 . S
Co118 O142 2.097 . S
Co118 N159 2.151 . S
Co118 N167 2.214 . S
Co119 O120 2.160 . S
Co119 O125 2.058 . S
Co119 O135 2.057 . S
Co119 O150 2.037 . S
Co119 N154 2.145 . S
Co119 N175 2.257 . S
O120 Co118 2.143 . S
O120 Co119 2.160 . S
C121 O122 1.278 . S
C121 O129 1.224 . S
O122 C121 1.278 . S
C123 O124 1.245 . S
C123 O135 1.232 . S
O124 C123 1.245 . S
O125 Co119 2.058 . S
O125 C151 1.269 . S
O126 Co118 2.074 . S
O126 C151 1.257 . S
H127 C152 0.930 . S
H128 C158 0.930 . S
O129 Co118 2.093 . S
O129 C121 1.224 . S
H130 C162 0.929 . S
H131 C164 0.930 . S
H132 C165 0.930 . S
H133 C163 0.929 . S
H134 C166 0.928 . S
O135 Co119 2.057 . S
O135 C123 1.232 . S
H136 C155 0.929 . S
H137 C156 0.929 . S
H138 C168 0.931 . S
H139 C160 0.929 . S
H140 C169 0.930 . S
H141 C161 0.931 . S
O142 Co118 2.097 . S
O142 C170 1.214 . S
H143 C171 0.929 . S
H144 C172 0.929 . S
H145 C173 0.930 . S
H146 C174 0.929 . S
H147 C176 0.930 . S
H148 C153 0.930 . S
H149 C157 0.930 . S
O150 Co119 2.037 . S
O150 C170 1.234 . S
C151 O125 1.269 . S
C151 O126 1.257 . S
C152 H127 0.930 . S
C152 C155 1.388 . S
C152 C157 1.418 . S
C153 H148 0.930 . S
C153 C156 1.404 . S
C153 C157 1.353 . S
N154 Co119 2.145 . S
N154 C155 1.397 . S
N154 C156 1.334 . S
C155 H136 0.929 . S
C155 C152 1.388 . S
C155 N154 1.397 . S
C156 H137 0.929 . S
C156 C153 1.404 . S
C156 N154 1.334 . S
C157 H149 0.930 . S
C157 C152 1.418 . S
C157 C153 1.353 . S
C158 H128 0.930 . S
C158 N159 1.330 . S
C158 C160 1.446 . S
N159 Co118 2.151 . S
N159 C158 1.330 . S
N159 C163 1.418 . S
C160 H139 0.929 . S
C160 C158 1.446 . S
C160 C161 1.332 . S
C161 H141 0.931 . S
C161 C160 1.332 . S
C161 C162 1.267 . S
C162 H130 0.929 . S
C162 C161 1.267 . S
C162 C163 1.251 . S
C163 H133 0.929 . S
C163 N159 1.418 . S
C163 C162 1.251 . S
C164 H131 0.930 . S
C164 C166 1.406 . S
C164 C169 1.261 . S
C165 H132 0.930 . S
C165 N167 1.325 . S
C165 C168 1.357 . S
C166 H134 0.928 . S
C166 C164 1.406 . S
C166 N167 1.261 . S
N167 Co118 2.214 . S
N167 C165 1.325 . S
N167 C166 1.261 . S
C168 H138 0.931 . S
C168 C165 1.357 . S
C168 C169 1.312 . S
C169 H140 0.930 . S
C169 C164 1.261 . S
C169 C168 1.312 . S
C170 O142 1.214 . S
C170 O150 1.234 . S
C171 H143 0.929 . S
C171 C174 1.391 . S
C171 C176 1.391 . S
C172 H144 0.929 . S
C172 C173 1.390 . S
C172 N175 1.391 . S
C173 H145 0.930 . S
C173 C172 1.390 . S
C173 C174 1.392 . S
C174 H146 0.929 . S
C174 C171 1.391 . S
C174 C173 1.392 . S
N175 Co119 2.257 . S
N175 C172 1.391 . S
N175 C176 1.388 . S
C176 H147 0.930 . S
C176 C171 1.391 . S
C176 N175 1.388 . S
Co177 O179 2.143 . S
Co177 O185 2.074 . S
Co177 O188 2.093 . S
Co177 O201 2.097 . S
Co177 N218 2.151 1_545 S
Co177 N226 2.214 1_545 S
Co178 O179 2.160 . S
Co178 O184 2.058 . S
Co178 O194 2.057 . S
Co178 O209 2.037 . S
Co178 N213 2.145 . S
Co178 N234 2.257 . S
O179 Co177 2.143 . S
O179 Co178 2.160 . S
C180 O181 1.278 . S
C180 O188 1.224 . S
O181 C180 1.278 . S
C182 O183 1.245 . S
C182 O194 1.232 . S
O183 C182 1.245 . S
O184 Co178 2.058 . S
O184 C210 1.269 . S
O185 Co177 2.074 . S
O185 C210 1.257 . S
H186 C211 0.930 . S
H187 C217 0.930 1_545 S
O188 Co177 2.093 . S
O188 C180 1.224 . S
H189 C221 0.929 . S
H190 C223 0.930 . S
H191 C224 0.930 . S
H192 C222 0.929 . S
H193 C225 0.928 . S
O194 Co178 2.057 . S
O194 C182 1.232 . S
H195 C214 0.929 . S
H196 C215 0.929 . S
H197 C227 0.931 . S
H198 C219 0.929 . S
H199 C228 0.930 . S
H200 C220 0.931 . S
O201 Co177 2.097 . S
O201 C229 1.214 . S
H202 C230 0.929 . S
H203 C231 0.929 . S
H204 C232 0.930 . S
H205 C233 0.929 . S
H206 C235 0.930 . S
H207 C212 0.930 . S
H208 C216 0.930 . S
O209 Co178 2.037 . S
O209 C229 1.234 . S
C210 O184 1.269 . S
C210 O185 1.257 . S
C211 H186 0.930 . S
C211 C214 1.388 . S
C211 C216 1.418 . S
C212 H207 0.930 . S
C212 C215 1.404 . S
C212 C216 1.353 . S
N213 Co178 2.145 . S
N213 C214 1.397 . S
N213 C215 1.334 . S
C214 H195 0.929 . S
C214 C211 1.388 . S
C214 N213 1.397 . S
C215 H196 0.929 . S
C215 C212 1.404 . S
C215 N213 1.334 . S
C216 H208 0.930 . S
C216 C211 1.418 . S
C216 C212 1.353 . S
C217 H187 0.930 1_565 S
C217 N218 1.330 . S
C217 C219 1.446 . S
N218 Co177 2.151 1_565 S
N218 C217 1.330 . S
N218 C222 1.418 . S
C219 H198 0.929 . S
C219 C217 1.446 . S
C219 C220 1.332 . S
C220 H200 0.931 . S
C220 C219 1.332 . S
C220 C221 1.267 . S
C221 H189 0.929 . S
C221 C220 1.267 . S
C221 C222 1.251 . S
C222 H192 0.929 . S
C222 N218 1.418 . S
C222 C221 1.251 . S
C223 H190 0.930 . S
C223 C225 1.406 . S
C223 C228 1.261 . S
C224 H191 0.930 . S
C224 N226 1.325 . S
C224 C227 1.357 . S
C225 H193 0.928 . S
C225 C223 1.406 . S
C225 N226 1.261 . S
N226 Co177 2.214 1_565 S
N226 C224 1.325 . S
N226 C225 1.261 . S
C227 H197 0.931 . S
C227 C224 1.357 . S
C227 C228 1.312 . S
C228 H199 0.930 . S
C228 C223 1.261 . S
C228 C227 1.312 . S
C229 O201 1.214 . S
C229 O209 1.234 . S
C230 H202 0.929 . S
C230 C233 1.391 . S
C230 C235 1.391 . S
C231 H203 0.929 . S
C231 C232 1.390 . S
C231 N234 1.391 . S
C232 H204 0.930 . S
C232 C231 1.390 . S
C232 C233 1.392 . S
C233 H205 0.929 . S
C233 C230 1.391 . S
C233 C232 1.392 . S
N234 Co178 2.257 . S
N234 C231 1.391 . S
N234 C235 1.388 . S
C235 H206 0.930 . S
C235 C230 1.391 . S
C235 N234 1.388 . S
Co236 O238 2.143 . S
Co236 O244 2.074 . S
Co236 O247 2.093 . S
Co236 O260 2.097 . S
Co236 N277 2.151 . S
Co236 N285 2.214 . S
Co237 O238 2.160 . S
Co237 O243 2.058 . S
Co237 O253 2.057 . S
Co237 O268 2.037 . S
Co237 N272 2.145 . S
Co237 N293 2.257 . S
O238 Co236 2.143 . S
O238 Co237 2.160 . S
C239 O240 1.278 . S
C239 O247 1.224 . S
O240 C239 1.278 . S
C241 O242 1.245 . S
C241 O253 1.232 . S
O242 C241 1.245 . S
O243 Co237 2.058 . S
O243 C269 1.269 . S
O244 Co236 2.074 . S
O244 C269 1.257 . S
H245 C270 0.930 . S
H246 C276 0.930 . S
O247 Co236 2.093 . S
O247 C239 1.224 . S
H248 C280 0.929 . S
H249 C282 0.930 . S
H250 C283 0.930 . S
H251 C281 0.929 . S
H252 C284 0.928 . S
O253 Co237 2.057 . S
O253 C241 1.232 . S
H254 C273 0.929 . S
H255 C274 0.929 . S
H256 C286 0.931 . S
H257 C278 0.929 . S
H258 C287 0.930 . S
H259 C279 0.931 . S
O260 Co236 2.097 . S
O260 C288 1.214 . S
H261 C289 0.929 . S
H262 C290 0.929 . S
H263 C291 0.930 . S
H264 C292 0.929 . S
H265 C294 0.930 . S
H266 C271 0.930 . S
H267 C275 0.930 . S
O268 Co237 2.037 . S
O268 C288 1.234 . S
C269 O243 1.269 . S
C269 O244 1.257 . S
C270 H245 0.930 . S
C270 C273 1.388 . S
C270 C275 1.418 . S
C271 H266 0.930 . S
C271 C274 1.404 . S
C271 C275 1.353 . S
N272 Co237 2.145 . S
N272 C273 1.397 . S
N272 C274 1.334 . S
C273 H254 0.929 . S
C273 C270 1.388 . S
C273 N272 1.397 . S
C274 H255 0.929 . S
C274 C271 1.404 . S
C274 N272 1.334 . S
C275 H267 0.930 . S
C275 C270 1.418 . S
C275 C271 1.353 . S
C276 H246 0.930 . S
C276 N277 1.330 . S
C276 C278 1.446 . S
N277 Co236 2.151 . S
N277 C276 1.330 . S
N277 C281 1.418 . S
C278 H257 0.929 . S
C278 C276 1.446 . S
C278 C279 1.332 . S
C279 H259 0.931 . S
C279 C278 1.332 . S
C279 C280 1.267 . S
C280 H248 0.929 . S
C280 C279 1.267 . S
C280 C281 1.251 . S
C281 H251 0.929 . S
C281 N277 1.418 . S
C281 C280 1.251 . S
C282 H249 0.930 . S
C282 C284 1.406 . S
C282 C287 1.261 . S
C283 H250 0.930 . S
C283 N285 1.325 . S
C283 C286 1.357 . S
C284 H252 0.928 . S
C284 C282 1.406 . S
C284 N285 1.261 . S
N285 Co236 2.214 . S
N285 C283 1.325 . S
N285 C284 1.261 . S
C286 H256 0.931 . S
C286 C283 1.357 . S
C286 C287 1.312 . S
C287 H258 0.930 . S
C287 C282 1.261 . S
C287 C286 1.312 . S
C288 O260 1.214 . S
C288 O268 1.234 . S
C289 H261 0.929 . S
C289 C292 1.391 . S
C289 C294 1.391 . S
C290 H262 0.929 . S
C290 C291 1.390 . S
C290 N293 1.391 . S
C291 H263 0.930 . S
C291 C290 1.390 . S
C291 C292 1.392 . S
C292 H264 0.929 . S
C292 C289 1.391 . S
C292 C291 1.392 . S
N293 Co237 2.257 . S
N293 C290 1.391 . S
N293 C294 1.388 . S
C294 H265 0.930 . S
C294 C289 1.391 . S
C294 N293 1.388 . S
Co295 O297 2.143 . S
Co295 O303 2.074 . S
Co295 O306 2.093 . S
Co295 O319 2.097 . S
Co295 N336 2.151 . S
Co295 N344 2.214 . S
Co296 O297 2.160 . S
Co296 O302 2.061 . S
Co296 O312 2.057 . S
Co296 O327 2.037 . S
Co296 N331 2.145 . S
Co296 N352 2.257 . S
O297 Co295 2.143 . S
O297 Co296 2.160 . S
C298 O299 1.278 . S
C298 O306 1.224 . S
O299 C298 1.278 . S
C300 O301 1.245 . S
C300 O312 1.232 . S
O301 C300 1.245 . S
O302 Co296 2.061 . S
O302 C328 1.270 . S
O303 Co295 2.074 . S
O303 C328 1.257 . S
H304 C329 0.930 . S
H305 C335 0.930 . S
O306 Co295 2.093 . S
O306 C298 1.224 . S
H307 C339 0.929 1_655 S
H308 C341 0.930 . S
H309 C342 0.930 . S
H310 C340 0.929 . S
H311 C343 0.928 . S
O312 Co296 2.057 . S
O312 C300 1.232 . S
H313 C332 0.929 . S
H314 C333 0.929 . S
H315 C345 0.931 . S
H316 C337 0.929 . S
H317 C346 0.930 . S
H318 C338 0.931 . S
O319 Co295 2.097 . S
O319 C347 1.214 . S
H320 C348 0.929 . S
H321 C349 0.929 . S
H322 C350 0.930 . S
H323 C351 0.929 . S
H324 C353 0.930 . S
H325 C330 0.930 . S
H326 C334 0.930 . S
O327 Co296 2.037 . S
O327 C347 1.234 . S
C328 O302 1.270 . S
C328 O303 1.257 . S
C329 H304 0.930 . S
C329 C332 1.388 . S
C329 C334 1.418 1_455 S
C330 H325 0.930 . S
C330 C333 1.404 1_655 S
C330 C334 1.353 . S
N331 Co296 2.145 . S
N331 C332 1.397 . S
N331 C333 1.334 . S
C332 H313 0.929 . S
C332 C329 1.388 . S
C332 N331 1.397 . S
C333 H314 0.929 . S
C333 C330 1.404 1_455 S
C333 N331 1.334 . S
C334 H326 0.930 . S
C334 C329 1.418 1_655 S
C334 C330 1.353 . S
C335 H305 0.930 . S
C335 N336 1.330 . S
C335 C337 1.446 . S
N336 Co295 2.151 . S
N336 C335 1.330 . S
N336 C340 1.418 . S
C337 H316 0.929 . S
C337 C335 1.446 . S
C337 C338 1.332 . S
C338 H318 0.931 . S
C338 C337 1.332 . S
C338 C339 1.267 . S
C339 H307 0.929 1_455 S
C339 C338 1.267 . S
C339 C340 1.251 . S
C340 H310 0.929 . S
C340 N336 1.418 . S
C340 C339 1.251 . S
C341 H308 0.930 . S
C341 C343 1.406 . S
C341 C346 1.261 . S
C342 H309 0.930 . S
C342 N344 1.325 . S
C342 C345 1.357 . S
C343 H311 0.928 . S
C343 C341 1.406 . S
C343 N344 1.261 . S
N344 Co295 2.214 . S
N344 C342 1.325 . S
N344 C343 1.261 . S
C345 H315 0.931 . S
C345 C342 1.357 . S
C345 C346 1.312 . S
C346 H317 0.930 . S
C346 C341 1.261 . S
C346 C345 1.312 . S
C347 O319 1.214 . S
C347 O327 1.234 . S
C348 H320 0.929 . S
C348 C351 1.391 . S
C348 C353 1.391 . S
C349 H321 0.929 . S
C349 C350 1.390 . S
C349 N352 1.391 . S
C350 H322 0.930 . S
C350 C349 1.390 . S
C350 C351 1.392 . S
C351 H323 0.929 . S
C351 C348 1.391 . S
C351 C350 1.392 . S
N352 Co296 2.257 . S
N352 C349 1.391 . S
N352 C353 1.388 . S
C353 H324 0.930 . S
C353 C348 1.391 . S
C353 N352 1.388 . S
Co354 O356 2.143 . S
Co354 O362 2.074 . S
Co354 O365 2.093 . S
Co354 O378 2.097 . S
Co354 N395 2.151 . S
Co354 N403 2.214 . S
Co355 O356 2.160 . S
Co355 O361 2.058 . S
Co355 O371 2.057 . S
Co355 O386 2.037 . S
Co355 N390 2.145 . S
Co355 N411 2.257 . S
O356 Co354 2.143 . S
O356 Co355 2.160 . S
C357 O358 1.278 . S
C357 O365 1.224 . S
O358 C357 1.278 . S
C359 O360 1.245 . S
C359 O371 1.232 . S
O360 C359 1.245 . S
O361 Co355 2.058 . S
O361 C387 1.269 . S
O362 Co354 2.074 . S
O362 C387 1.257 . S
H363 C388 0.930 . S
H364 C394 0.930 . S
O365 Co354 2.093 . S
O365 C357 1.224 . S
H366 C398 0.929 . S
H367 C400 0.930 . S
H368 C401 0.930 . S
H369 C399 0.929 . S
H370 C402 0.928 . S
O371 Co355 2.057 . S
O371 C359 1.232 . S
H372 C391 0.929 . S
H373 C392 0.929 . S
H374 C404 0.931 . S
H375 C396 0.929 . S
H376 C405 0.930 . S
H377 C397 0.931 . S
O378 Co354 2.097 . S
O378 C406 1.214 . S
H379 C407 0.929 . S
H380 C408 0.929 . S
H381 C409 0.930 . S
H382 C410 0.929 . S
H383 C412 0.930 . S
H384 C389 0.930 . S
H385 C393 0.930 . S
O386 Co355 2.037 . S
O386 C406 1.234 . S
C387 O361 1.269 . S
C387 O362 1.257 . S
C388 H363 0.930 . S
C388 C391 1.388 . S
C388 C393 1.418 . S
C389 H384 0.930 . S
C389 C392 1.404 . S
C389 C393 1.353 . S
N390 Co355 2.145 . S
N390 C391 1.397 . S
N390 C392 1.334 . S
C391 H372 0.929 . S
C391 C388 1.388 . S
C391 N390 1.397 . S
C392 H373 0.929 . S
C392 C389 1.404 . S
C392 N390 1.334 . S
C393 H385 0.930 . S
C393 C388 1.418 . S
C393 C389 1.353 . S
C394 H364 0.930 . S
C394 N395 1.330 . S
C394 C396 1.446 . S
N395 Co354 2.151 . S
N395 C394 1.330 . S
N395 C399 1.418 . S
C396 H375 0.929 . S
C396 C394 1.446 . S
C396 C397 1.332 . S
C397 H377 0.931 . S
C397 C396 1.332 . S
C397 C398 1.267 . S
C398 H366 0.929 . S
C398 C397 1.267 . S
C398 C399 1.251 . S
C399 H369 0.929 . S
C399 N395 1.418 . S
C399 C398 1.251 . S
C400 H367 0.930 . S
C400 C402 1.406 . S
C400 C405 1.261 . S
C401 H368 0.930 . S
C401 N403 1.325 . S
C401 C404 1.357 . S
C402 H370 0.928 . S
C402 C400 1.406 . S
C402 N403 1.261 . S
N403 Co354 2.214 . S
N403 C401 1.325 . S
N403 C402 1.261 . S
C404 H374 0.931 . S
C404 C401 1.357 . S
C404 C405 1.312 . S
C405 H376 0.930 . S
C405 C400 1.261 . S
C405 C404 1.312 . S
C406 O378 1.214 . S
C406 O386 1.234 . S
C407 H379 0.929 . S
C407 C410 1.391 . S
C407 C412 1.391 . S
C408 H380 0.929 . S
C408 C409 1.390 . S
C408 N411 1.391 . S
C409 H381 0.930 . S
C409 C408 1.390 . S
C409 C410 1.392 . S
C410 H382 0.929 . S
C410 C407 1.391 . S
C410 C409 1.392 . S
N411 Co355 2.257 . S
N411 C408 1.391 . S
N411 C412 1.388 . S
C412 H383 0.930 . S
C412 C407 1.391 . S
C412 N411 1.388 . S
Co413 O415 2.143 . S
Co413 O421 2.074 . S
Co413 O424 2.093 . S
Co413 O437 2.097 . S
Co413 N454 2.151 . S
Co413 N462 2.214 . S
Co414 O415 2.160 . S
Co414 O420 2.058 . S
Co414 O430 2.057 . S
Co414 O445 2.037 . S
Co414 N449 2.145 . S
Co414 N470 2.257 . S
O415 Co413 2.143 . S
O415 Co414 2.160 . S
C416 O417 1.278 . S
C416 O424 1.224 . S
O417 C416 1.278 . S
C418 O419 1.245 . S
C418 O430 1.232 . S
O419 C418 1.245 . S
O420 Co414 2.058 . S
O420 C446 1.269 . S
O421 Co413 2.074 . S
O421 C446 1.257 . S
H422 C447 0.930 . S
H423 C453 0.930 . S
O424 Co413 2.093 . S
O424 C416 1.224 . S
H425 C457 0.929 . S
H426 C459 0.930 . S
H427 C460 0.930 . S
H428 C458 0.929 . S
H429 C461 0.928 . S
O430 Co414 2.057 . S
O430 C418 1.232 . S
H431 C450 0.929 . S
H432 C451 0.929 . S
H433 C463 0.931 . S
H434 C455 0.929 . S
H435 C464 0.930 . S
H436 C456 0.931 . S
O437 Co413 2.097 . S
O437 C465 1.214 . S
H438 C466 0.929 . S
H439 C467 0.929 . S
H440 C468 0.930 . S
H441 C469 0.929 . S
H442 C471 0.930 . S
H443 C448 0.930 . S
H444 C452 0.930 . S
O445 Co414 2.037 . S
O445 C465 1.234 . S
C446 O420 1.269 . S
C446 O421 1.257 . S
C447 H422 0.930 . S
C447 C450 1.388 . S
C447 C452 1.418 . S
C448 H443 0.930 . S
C448 C451 1.404 . S
C448 C452 1.353 . S
N449 Co414 2.145 . S
N449 C450 1.397 . S
N449 C451 1.334 . S
C450 H431 0.929 . S
C450 C447 1.388 . S
C450 N449 1.397 . S
C451 H432 0.929 . S
C451 C448 1.404 . S
C451 N449 1.334 . S
C452 H444 0.930 . S
C452 C447 1.418 . S
C452 C448 1.353 . S
C453 H423 0.930 . S
C453 N454 1.330 . S
C453 C455 1.446 . S
N454 Co413 2.151 . S
N454 C453 1.330 . S
N454 C458 1.418 . S
C455 H434 0.929 . S
C455 C453 1.446 . S
C455 C456 1.332 . S
C456 H436 0.931 . S
C456 C455 1.332 . S
C456 C457 1.267 . S
C457 H425 0.929 . S
C457 C456 1.267 . S
C457 C458 1.251 . S
C458 H428 0.929 . S
C458 N454 1.418 . S
C458 C457 1.251 . S
C459 H426 0.930 . S
C459 C461 1.406 . S
C459 C464 1.261 . S
C460 H427 0.930 . S
C460 N462 1.325 . S
C460 C463 1.357 . S
C461 H429 0.928 . S
C461 C459 1.406 . S
C461 N462 1.261 . S
N462 Co413 2.214 . S
N462 C460 1.325 . S
N462 C461 1.261 . S
C463 H433 0.931 . S
C463 C460 1.357 . S
C463 C464 1.312 . S
C464 H435 0.930 . S
C464 C459 1.261 . S
C464 C463 1.312 . S
C465 O437 1.214 . S
C465 O445 1.234 . S
C466 H438 0.929 . S
C466 C469 1.391 . S
C466 C471 1.391 . S
C467 H439 0.929 . S
C467 C468 1.390 . S
C467 N470 1.391 . S
C468 H440 0.930 . S
C468 C467 1.390 . S
C468 C469 1.392 . S
C469 H441 0.929 . S
C469 C466 1.391 . S
C469 C468 1.392 . S
N470 Co414 2.257 . S
N470 C467 1.391 . S
N470 C471 1.388 . S
C471 H442 0.930 . S
C471 C466 1.391 . S
C471 N470 1.388 . S
Co472 O474 2.143 . S
Co472 O480 2.074 . S
Co472 O483 2.093 . S
Co472 O496 2.097 . S
Co472 N513 2.151 . S
Co472 N521 2.214 . S
Co473 O474 2.160 . S
Co473 O479 2.058 . S
Co473 O489 2.057 . S
Co473 O504 2.037 . S
Co473 N508 2.145 . S
Co473 N529 2.257 . S
O474 Co472 2.143 . S
O474 Co473 2.160 . S
C475 O476 1.278 . S
C475 O483 1.224 . S
O476 C475 1.278 . S
C477 O478 1.245 . S
C477 O489 1.232 . S
O478 C477 1.245 . S
O479 Co473 2.058 . S
O479 C505 1.269 . S
O480 Co472 2.074 . S
O480 C505 1.257 . S
H481 C506 0.930 . S
H482 C512 0.930 . S
O483 Co472 2.093 . S
O483 C475 1.224 . S
H484 C516 0.929 . S
H485 C518 0.930 . S
H486 C519 0.930 . S
H487 C517 0.929 . S
H488 C520 0.928 . S
O489 Co473 2.057 . S
O489 C477 1.232 . S
H490 C509 0.929 . S
H491 C510 0.929 . S
H492 C522 0.931 . S
H493 C514 0.929 . S
H494 C523 0.930 . S
H495 C515 0.931 . S
O496 Co472 2.097 . S
O496 C524 1.214 . S
H497 C525 0.929 . S
H498 C526 0.929 . S
H499 C527 0.930 . S
H500 C528 0.929 . S
H501 C530 0.930 . S
H502 C507 0.930 . S
H503 C511 0.930 . S
O504 Co473 2.037 . S
O504 C524 1.234 . S
C505 O479 1.269 . S
C505 O480 1.257 . S
C506 H481 0.930 . S
C506 C509 1.388 . S
C506 C511 1.418 . S
C507 H502 0.930 . S
C507 C510 1.404 . S
C507 C511 1.353 . S
N508 Co473 2.145 . S
N508 C509 1.397 . S
N508 C510 1.334 . S
C509 H490 0.929 . S
C509 C506 1.388 . S
C509 N508 1.397 . S
C510 H491 0.929 . S
C510 C507 1.404 . S
C510 N508 1.334 . S
C511 H503 0.930 . S
C511 C506 1.418 . S
C511 C507 1.353 . S
C512 H482 0.930 . S
C512 N513 1.330 . S
C512 C514 1.446 . S
N513 Co472 2.151 . S
N513 C512 1.330 . S
N513 C517 1.418 . S
C514 H493 0.929 . S
C514 C512 1.446 . S
C514 C515 1.332 . S
C515 H495 0.931 . S
C515 C514 1.332 . S
C515 C516 1.267 . S
C516 H484 0.929 . S
C516 C515 1.267 . S
C516 C517 1.251 . S
C517 H487 0.929 . S
C517 N513 1.418 . S
C517 C516 1.251 . S
C518 H485 0.930 . S
C518 C520 1.406 . S
C518 C523 1.261 . S
C519 H486 0.930 . S
C519 N521 1.325 . S
C519 C522 1.357 . S
C520 H488 0.928 . S
C520 C518 1.406 . S
C520 N521 1.261 . S
N521 Co472 2.214 . S
N521 C519 1.325 . S
N521 C520 1.261 . S
C522 H492 0.931 . S
C522 C519 1.357 . S
C522 C523 1.312 . S
C523 H494 0.930 . S
C523 C518 1.261 . S
C523 C522 1.312 . S
C524 O496 1.214 . S
C524 O504 1.234 . S
C525 H497 0.929 . S
C525 C528 1.391 . S
C525 C530 1.391 . S
C526 H498 0.929 . S
C526 C527 1.390 . S
C526 N529 1.391 . S
C527 H499 0.930 . S
C527 C526 1.390 . S
C527 C528 1.392 . S
C528 H500 0.929 . S
C528 C525 1.391 . S
C528 C527 1.392 . S
N529 Co473 2.257 . S
N529 C526 1.391 . S
N529 C530 1.388 . S
C530 H501 0.930 . S
C530 C525 1.391 . S
C530 N529 1.388 . S
Co531 O533 2.143 . S
Co531 O539 2.074 . S
Co531 O542 2.093 . S
Co531 O555 2.097 . S
Co531 N572 2.151 1_455 S
Co531 N580 2.214 1_455 S
Co532 O533 2.160 . S
Co532 O538 2.058 . S
Co532 O548 2.057 . S
Co532 O563 2.037 . S
Co532 N567 2.145 . S
Co532 N588 2.257 . S
O533 Co531 2.143 . S
O533 Co532 2.160 . S
C534 O535 1.278 . S
C534 O542 1.224 . S
O535 C534 1.278 . S
C536 O537 1.245 . S
C536 O548 1.232 . S
O537 C536 1.245 . S
O538 Co532 2.058 . S
O538 C564 1.269 . S
O539 Co531 2.074 . S
O539 C564 1.257 . S
H540 C565 0.930 . S
H541 C571 0.930 1_455 S
O542 Co531 2.093 . S
O542 C534 1.224 . S
H543 C575 0.929 . S
H544 C577 0.930 . S
H545 C578 0.930 . S
H546 C576 0.929 . S
H547 C579 0.928 . S
O548 Co532 2.057 . S
O548 C536 1.232 . S
H549 C568 0.929 . S
H550 C569 0.929 . S
H551 C581 0.931 . S
H552 C573 0.929 . S
H553 C582 0.930 . S
H554 C574 0.931 . S
O555 Co531 2.097 . S
O555 C583 1.214 . S
H556 C584 0.929 . S
H557 C585 0.929 . S
H558 C586 0.930 . S
H559 C587 0.929 . S
H560 C589 0.930 . S
H561 C566 0.930 . S
H562 C570 0.930 . S
O563 Co532 2.037 . S
O563 C583 1.234 . S
C564 O538 1.269 . S
C564 O539 1.257 . S
C565 H540 0.930 . S
C565 C568 1.388 . S
C565 C570 1.418 . S
C566 H561 0.930 . S
C566 C569 1.404 . S
C566 C570 1.353 . S
N567 Co532 2.145 . S
N567 C568 1.397 . S
N567 C569 1.334 . S
C568 H549 0.929 . S
C568 C565 1.388 . S
C568 N567 1.397 . S
C569 H550 0.929 . S
C569 C566 1.404 . S
C569 N567 1.334 . S
C570 H562 0.930 . S
C570 C565 1.418 . S
C570 C566 1.353 . S
C571 H541 0.930 1_655 S
C571 N572 1.330 . S
C571 C573 1.446 . S
N572 Co531 2.151 1_655 S
N572 C571 1.330 . S
N572 C576 1.418 . S
C573 H552 0.929 . S
C573 C571 1.446 . S
C573 C574 1.332 . S
C574 H554 0.931 . S
C574 C573 1.332 . S
C574 C575 1.267 . S
C575 H543 0.929 . S
C575 C574 1.267 . S
C575 C576 1.251 . S
C576 H546 0.929 . S
C576 N572 1.418 . S
C576 C575 1.251 . S
C577 H544 0.930 . S
C577 C579 1.406 . S
C577 C582 1.261 . S
C578 H545 0.930 . S
C578 N580 1.325 . S
C578 C581 1.357 . S
C579 H547 0.928 . S
C579 C577 1.406 . S
C579 N580 1.261 . S
N580 Co531 2.214 1_655 S
N580 C578 1.325 . S
N580 C579 1.261 . S
C581 H551 0.931 . S
C581 C578 1.357 . S
C581 C582 1.312 . S
C582 H553 0.930 . S
C582 C577 1.261 . S
C582 C581 1.312 . S
C583 O555 1.214 . S
C583 O563 1.234 . S
C584 H556 0.929 . S
C584 C587 1.391 . S
C584 C589 1.391 . S
C585 H557 0.929 . S
C585 C586 1.390 . S
C585 N588 1.391 . S
C586 H558 0.930 . S
C586 C585 1.390 . S
C586 C587 1.392 . S
C587 H559 0.929 . S
C587 C584 1.391 . S
C587 C586 1.392 . S
N588 Co532 2.257 . S
N588 C585 1.391 . S
N588 C589 1.388 . S
C589 H560 0.930 . S
C589 C584 1.391 . S
C589 N588 1.388 . S
Co590 O592 2.143 . S
Co590 O598 2.074 . S
Co590 O601 2.093 . S
Co590 O614 2.097 . S
Co590 N631 2.151 . S
Co590 N639 2.214 . S
Co591 O592 2.160 . S
Co591 O597 2.058 . S
Co591 O607 2.057 . S
Co591 O622 2.037 . S
Co591 N626 2.145 . S
Co591 N647 2.257 . S
O592 Co590 2.143 . S
O592 Co591 2.160 . S
C593 O594 1.278 . S
C593 O601 1.224 . S
O594 C593 1.278 . S
C595 O596 1.245 . S
C595 O607 1.232 . S
O596 C595 1.245 . S
O597 Co591 2.058 . S
O597 C623 1.269 . S
O598 Co590 2.074 . S
O598 C623 1.257 . S
H599 C624 0.930 . S
H600 C630 0.930 . S
O601 Co590 2.093 . S
O601 C593 1.224 . S
H602 C634 0.929 . S
H603 C636 0.930 . S
H604 C637 0.930 . S
H605 C635 0.929 . S
H606 C638 0.928 . S
O607 Co591 2.057 . S
O607 C595 1.232 . S
H608 C627 0.929 . S
H609 C628 0.929 . S
H610 C640 0.931 . S
H611 C632 0.929 . S
H612 C641 0.930 . S
H613 C633 0.931 . S
O614 Co590 2.097 . S
O614 C642 1.214 . S
H615 C643 0.929 . S
H616 C644 0.929 . S
H617 C645 0.930 . S
H618 C646 0.929 . S
H619 C648 0.930 . S
H620 C625 0.930 . S
H621 C629 0.930 . S
O622 Co591 2.037 . S
O622 C642 1.234 . S
C623 O597 1.269 . S
C623 O598 1.257 . S
C624 H599 0.930 . S
C624 C627 1.388 . S
C624 C629 1.418 . S
C625 H620 0.930 . S
C625 C628 1.404 . S
C625 C629 1.353 . S
N626 Co591 2.145 . S
N626 C627 1.397 . S
N626 C628 1.334 . S
C627 H608 0.929 . S
C627 C624 1.388 . S
C627 N626 1.397 . S
C628 H609 0.929 . S
C628 C625 1.404 . S
C628 N626 1.334 . S
C629 H621 0.930 . S
C629 C624 1.418 . S
C629 C625 1.353 . S
C630 H600 0.930 . S
C630 N631 1.330 . S
C630 C632 1.446 . S
N631 Co590 2.151 . S
N631 C630 1.330 . S
N631 C635 1.418 . S
C632 H611 0.929 . S
C632 C630 1.446 . S
C632 C633 1.332 . S
C633 H613 0.931 . S
C633 C632 1.332 . S
C633 C634 1.267 . S
C634 H602 0.929 . S
C634 C633 1.267 . S
C634 C635 1.251 . S
C635 H605 0.929 . S
C635 N631 1.418 . S
C635 C634 1.251 . S
C636 H603 0.930 . S
C636 C638 1.406 . S
C636 C641 1.261 . S
C637 H604 0.930 . S
C637 N639 1.325 . S
C637 C640 1.357 . S
C638 H606 0.928 . S
C638 C636 1.406 . S
C638 N639 1.261 . S
N639 Co590 2.214 . S
N639 C637 1.325 . S
N639 C638 1.261 . S
C640 H610 0.931 . S
C640 C637 1.357 . S
C640 C641 1.312 . S
C641 H612 0.930 . S
C641 C636 1.261 . S
C641 C640 1.312 . S
C642 O614 1.214 . S
C642 O622 1.234 . S
C643 H615 0.929 . S
C643 C646 1.391 . S
C643 C648 1.391 . S
C644 H616 0.929 . S
C644 C645 1.390 . S
C644 N647 1.391 . S
C645 H617 0.930 . S
C645 C644 1.390 . S
C645 C646 1.392 . S
C646 H618 0.929 . S
C646 C643 1.391 . S
C646 C645 1.392 . S
N647 Co591 2.257 . S
N647 C644 1.391 . S
N647 C648 1.388 . S
C648 H619 0.930 . S
C648 C643 1.391 . S
C648 N647 1.388 . S
Co649 O651 2.143 . S
Co649 O657 2.074 . S
Co649 O660 2.093 . S
Co649 O673 2.097 . S
Co649 N690 2.151 . S
Co649 N698 2.214 . S
Co650 O651 2.160 . S
Co650 O656 2.061 . S
Co650 O666 2.057 . S
Co650 O681 2.037 . S
Co650 N685 2.145 . S
Co650 N706 2.257 . S
O651 Co649 2.143 . S
O651 Co650 2.160 . S
C652 O653 1.278 . S
C652 O660 1.224 . S
O653 C652 1.278 . S
C654 O655 1.245 . S
C654 O666 1.232 . S
O655 C654 1.245 . S
O656 Co650 2.061 . S
O656 C682 1.270 . S
O657 Co649 2.074 . S
O657 C682 1.257 . S
H658 C683 0.930 . S
H659 C689 0.930 . S
O660 Co649 2.093 . S
O660 C652 1.224 . S
H661 C693 0.929 1_556 S
H662 C695 0.930 . S
H663 C696 0.930 . S
H664 C694 0.929 . S
H665 C697 0.928 . S
O666 Co650 2.057 . S
O666 C654 1.232 . S
H667 C686 0.929 . S
H668 C687 0.929 . S
H669 C699 0.931 . S
H670 C691 0.929 . S
H671 C700 0.930 . S
H672 C692 0.931 . S
O673 Co649 2.097 . S
O673 C701 1.214 . S
H674 C702 0.929 . S
H675 C703 0.929 . S
H676 C704 0.930 . S
H677 C705 0.929 . S
H678 C707 0.930 . S
H679 C684 0.930 . S
H680 C688 0.930 . S
O681 Co650 2.037 . S
O681 C701 1.234 . S
C682 O656 1.270 . S
C682 O657 1.257 . S
C683 H658 0.930 . S
C683 C686 1.388 . S
C683 C688 1.418 1_554 S
C684 H679 0.930 . S
C684 C687 1.404 1_556 S
C684 C688 1.353 . S
N685 Co650 2.145 . S
N685 C686 1.397 . S
N685 C687 1.334 . S
C686 H667 0.929 . S
C686 C683 1.388 . S
C686 N685 1.397 . S
C687 H668 0.929 . S
C687 C684 1.404 1_554 S
C687 N685 1.334 . S
C688 H680 0.930 . S
C688 C683 1.418 1_556 S
C688 C684 1.353 . S
C689 H659 0.930 . S
C689 N690 1.330 . S
C689 C691 1.446 . S
N690 Co649 2.151 . S
N690 C689 1.330 . S
N690 C694 1.418 . S
C691 H670 0.929 . S
C691 C689 1.446 . S
C691 C692 1.332 . S
C692 H672 0.931 . S
C692 C691 1.332 . S
C692 C693 1.267 . S
C693 H661 0.929 1_554 S
C693 C692 1.267 . S
C693 C694 1.251 . S
C694 H664 0.929 . S
C694 N690 1.418 . S
C694 C693 1.251 . S
C695 H662 0.930 . S
C695 C697 1.406 . S
C695 C700 1.261 . S
C696 H663 0.930 . S
C696 N698 1.325 . S
C696 C699 1.357 . S
C697 H665 0.928 . S
C697 C695 1.406 . S
C697 N698 1.261 . S
N698 Co649 2.214 . S
N698 C696 1.325 . S
N698 C697 1.261 . S
C699 H669 0.931 . S
C699 C696 1.357 . S
C699 C700 1.312 . S
C700 H671 0.930 . S
C700 C695 1.261 . S
C700 C699 1.312 . S
C701 O673 1.214 . S
C701 O681 1.234 . S
C702 H674 0.929 . S
C702 C705 1.391 . S
C702 C707 1.391 . S
C703 H675 0.929 . S
C703 C704 1.390 . S
C703 N706 1.391 . S
C704 H676 0.930 . S
C704 C703 1.390 . S
C704 C705 1.392 . S
C705 H677 0.929 . S
C705 C702 1.391 . S
C705 C704 1.392 . S
N706 Co650 2.257 . S
N706 C703 1.391 . S
N706 C707 1.388 . S
C707 H678 0.930 . S
C707 C702 1.391 . S
C707 N706 1.388 . S
Co708 O710 2.143 . S
Co708 O716 2.074 . S
Co708 O719 2.093 . S
Co708 O732 2.097 . S
Co708 N749 2.151 . S
Co708 N757 2.214 . S
Co709 O710 2.160 . S
Co709 O715 2.058 . S
Co709 O725 2.057 . S
Co709 O740 2.037 . S
Co709 N744 2.145 . S
Co709 N765 2.257 . S
O710 Co708 2.143 . S
O710 Co709 2.160 . S
C711 O712 1.278 . S
C711 O719 1.224 . S
O712 C711 1.278 . S
C713 O714 1.245 . S
C713 O725 1.232 . S
O714 C713 1.245 . S
O715 Co709 2.058 . S
O715 C741 1.269 . S
O716 Co708 2.074 . S
O716 C741 1.257 . S
H717 C742 0.930 . S
H718 C748 0.930 . S
O719 Co708 2.093 . S
O719 C711 1.224 . S
H720 C752 0.929 . S
H721 C754 0.930 . S
H722 C755 0.930 . S
H723 C753 0.929 . S
H724 C756 0.928 . S
O725 Co709 2.057 . S
O725 C713 1.232 . S
H726 C745 0.929 . S
H727 C746 0.929 . S
H728 C758 0.931 . S
H729 C750 0.929 . S
H730 C759 0.930 . S
H731 C751 0.931 . S
O732 Co708 2.097 . S
O732 C760 1.214 . S
H733 C761 0.929 . S
H734 C762 0.929 . S
H735 C763 0.930 . S
H736 C764 0.929 . S
H737 C766 0.930 . S
H738 C743 0.930 . S
H739 C747 0.930 . S
O740 Co709 2.037 . S
O740 C760 1.234 . S
C741 O715 1.269 . S
C741 O716 1.257 . S
C742 H717 0.930 . S
C742 C745 1.388 . S
C742 C747 1.418 . S
C743 H738 0.930 . S
C743 C746 1.404 . S
C743 C747 1.353 . S
N744 Co709 2.145 . S
N744 C745 1.397 . S
N744 C746 1.334 . S
C745 H726 0.929 . S
C745 C742 1.388 . S
C745 N744 1.397 . S
C746 H727 0.929 . S
C746 C743 1.404 . S
C746 N744 1.334 . S
C747 H739 0.930 . S
C747 C742 1.418 . S
C747 C743 1.353 . S
C748 H718 0.930 . S
C748 N749 1.330 . S
C748 C750 1.446 . S
N749 Co708 2.151 . S
N749 C748 1.330 . S
N749 C753 1.418 . S
C750 H729 0.929 . S
C750 C748 1.446 . S
C750 C751 1.332 . S
C751 H731 0.931 . S
C751 C750 1.332 . S
C751 C752 1.267 . S
C752 H720 0.929 . S
C752 C751 1.267 . S
C752 C753 1.251 . S
C753 H723 0.929 . S
C753 N749 1.418 . S
C753 C752 1.251 . S
C754 H721 0.930 . S
C754 C756 1.406 . S
C754 C759 1.261 . S
C755 H722 0.930 . S
C755 N757 1.325 . S
C755 C758 1.357 . S
C756 H724 0.928 . S
C756 C754 1.406 . S
C756 N757 1.261 . S
N757 Co708 2.214 . S
N757 C755 1.325 . S
N757 C756 1.261 . S
C758 H728 0.931 . S
C758 C755 1.357 . S
C758 C759 1.312 . S
C759 H730 0.930 . S
C759 C754 1.261 . S
C759 C758 1.312 . S
C760 O732 1.214 . S
C760 O740 1.234 . S
C761 H733 0.929 . S
C761 C764 1.391 . S
C761 C766 1.391 . S
C762 H734 0.929 . S
C762 C763 1.390 . S
C762 N765 1.391 . S
C763 H735 0.930 . S
C763 C762 1.390 . S
C763 C764 1.392 . S
C764 H736 0.929 . S
C764 C761 1.391 . S
C764 C763 1.392 . S
N765 Co709 2.257 . S
N765 C762 1.391 . S
N765 C766 1.388 . S
C766 H737 0.930 . S
C766 C761 1.391 . S
C766 N765 1.388 . S
Co767 O769 2.143 . S
Co767 O775 2.074 . S
Co767 O778 2.093 . S
Co767 O791 2.097 . S
Co767 N808 2.151 1_655 S
Co767 N816 2.214 1_655 S
Co768 O769 2.160 . S
Co768 O774 2.061 . S
Co768 O784 2.057 . S
Co768 O799 2.037 . S
Co768 N803 2.145 . S
Co768 N824 2.257 . S
O769 Co767 2.143 . S
O769 Co768 2.160 . S
C770 O771 1.278 . S
C770 O778 1.224 . S
O771 C770 1.278 . S
C772 O773 1.245 . S
C772 O784 1.232 . S
O773 C772 1.245 . S
O774 Co768 2.061 . S
O774 C800 1.270 . S
O775 Co767 2.074 . S
O775 C800 1.257 . S
H776 C801 0.930 . S
H777 C807 0.930 1_655 S
O778 Co767 2.093 . S
O778 C770 1.224 . S
H779 C811 0.929 1_554 S
H780 C813 0.930 . S
H781 C814 0.930 . S
H782 C812 0.929 . S
H783 C815 0.928 . S
O784 Co768 2.057 . S
O784 C772 1.232 . S
H785 C804 0.929 . S
H786 C805 0.929 . S
H787 C817 0.931 . S
H788 C809 0.929 . S
H789 C818 0.930 . S
H790 C810 0.931 . S
O791 Co767 2.097 . S
O791 C819 1.214 . S
H792 C820 0.929 . S
H793 C821 0.929 . S
H794 C822 0.930 . S
H795 C823 0.929 . S
H796 C825 0.930 . S
H797 C802 0.930 . S
H798 C806 0.930 . S
O799 Co768 2.037 . S
O799 C819 1.234 . S
C800 O774 1.270 . S
C800 O775 1.257 . S
C801 H776 0.930 . S
C801 C804 1.388 . S
C801 C806 1.418 1_556 S
C802 H797 0.930 . S
C802 C805 1.404 1_554 S
C802 C806 1.353 . S
N803 Co768 2.145 . S
N803 C804 1.397 . S
N803 C805 1.334 . S
C804 H785 0.929 . S
C804 C801 1.388 . S
C804 N803 1.397 . S
C805 H786 0.929 . S
C805 C802 1.404 1_556 S
C805 N803 1.334 . S
C806 H798 0.930 . S
C806 C801 1.418 1_554 S
C806 C802 1.353 . S
C807 H777 0.930 1_455 S
C807 N808 1.330 . S
C807 C809 1.446 . S
N808 Co767 2.151 1_455 S
N808 C807 1.330 . S
N808 C812 1.418 . S
C809 H788 0.929 . S
C809 C807 1.446 . S
C809 C810 1.332 . S
C810 H790 0.931 . S
C810 C809 1.332 . S
C810 C811 1.267 . S
C811 H779 0.929 1_556 S
C811 C810 1.267 . S
C811 C812 1.251 . S
C812 H782 0.929 . S
C812 N808 1.418 . S
C812 C811 1.251 . S
C813 H780 0.930 . S
C813 C815 1.406 . S
C813 C818 1.261 . S
C814 H781 0.930 . S
C814 N816 1.325 . S
C814 C817 1.357 . S
C815 H783 0.928 . S
C815 C813 1.406 . S
C815 N816 1.261 . S
N816 Co767 2.214 1_455 S
N816 C814 1.325 . S
N816 C815 1.261 . S
C817 H787 0.931 . S
C817 C814 1.357 . S
C817 C818 1.312 . S
C818 H789 0.930 . S
C818 C813 1.261 . S
C818 C817 1.312 . S
C819 O791 1.214 . S
C819 O799 1.234 . S
C820 H792 0.929 . S
C820 C823 1.391 . S
C820 C825 1.391 . S
C821 H793 0.929 . S
C821 C822 1.390 . S
C821 N824 1.391 . S
C822 H794 0.930 . S
C822 C821 1.390 . S
C822 C823 1.392 . S
C823 H795 0.929 . S
C823 C820 1.391 . S
C823 C822 1.392 . S
N824 Co768 2.257 . S
N824 C821 1.391 . S
N824 C825 1.388 . S
C825 H796 0.930 . S
C825 C820 1.391 . S
C825 N824 1.388 . S
Co826 O828 2.143 . S
Co826 O834 2.074 . S
Co826 O837 2.093 . S
Co826 O850 2.097 . S
Co826 N867 2.151 . S
Co826 N875 2.214 . S
Co827 O828 2.160 . S
Co827 O833 2.058 . S
Co827 O843 2.057 . S
Co827 O858 2.037 . S
Co827 N862 2.145 . S
Co827 N883 2.257 . S
O828 Co826 2.143 . S
O828 Co827 2.160 . S
C829 O830 1.278 . S
C829 O837 1.224 . S
O830 C829 1.278 . S
C831 O832 1.245 . S
C831 O843 1.232 . S
O832 C831 1.245 . S
O833 Co827 2.058 . S
O833 C859 1.269 . S
O834 Co826 2.074 . S
O834 C859 1.257 . S
H835 C860 0.930 . S
H836 C866 0.930 . S
O837 Co826 2.093 . S
O837 C829 1.224 . S
H838 C870 0.929 . S
H839 C872 0.930 . S
H840 C873 0.930 . S
H841 C871 0.929 . S
H842 C874 0.928 . S
O843 Co827 2.057 . S
O843 C831 1.232 . S
H844 C863 0.929 . S
H845 C864 0.929 . S
H846 C876 0.931 . S
H847 C868 0.929 . S
H848 C877 0.930 . S
H849 C869 0.931 . S
O850 Co826 2.097 . S
O850 C878 1.214 . S
H851 C879 0.929 . S
H852 C880 0.929 . S
H853 C881 0.930 . S
H854 C882 0.929 . S
H855 C884 0.930 . S
H856 C861 0.930 . S
H857 C865 0.930 . S
O858 Co827 2.037 . S
O858 C878 1.234 . S
C859 O833 1.269 . S
C859 O834 1.257 . S
C860 H835 0.930 . S
C860 C863 1.388 . S
C860 C865 1.418 . S
C861 H856 0.930 . S
C861 C864 1.404 . S
C861 C865 1.353 . S
N862 Co827 2.145 . S
N862 C863 1.397 . S
N862 C864 1.334 . S
C863 H844 0.929 . S
C863 C860 1.388 . S
C863 N862 1.397 . S
C864 H845 0.929 . S
C864 C861 1.404 . S
C864 N862 1.334 . S
C865 H857 0.930 . S
C865 C860 1.418 . S
C865 C861 1.353 . S
C866 H836 0.930 . S
C866 N867 1.330 . S
C866 C868 1.446 . S
N867 Co826 2.151 . S
N867 C866 1.330 . S
N867 C871 1.418 . S
C868 H847 0.929 . S
C868 C866 1.446 . S
C868 C869 1.332 . S
C869 H849 0.931 . S
C869 C868 1.332 . S
C869 C870 1.267 . S
C870 H838 0.929 . S
C870 C869 1.267 . S
C870 C871 1.251 . S
C871 H841 0.929 . S
C871 N867 1.418 . S
C871 C870 1.251 . S
C872 H839 0.930 . S
C872 C874 1.406 . S
C872 C877 1.261 . S
C873 H840 0.930 . S
C873 N875 1.325 . S
C873 C876 1.357 . S
C874 H842 0.928 . S
C874 C872 1.406 . S
C874 N875 1.261 . S
N875 Co826 2.214 . S
N875 C873 1.325 . S
N875 C874 1.261 . S
C876 H846 0.931 . S
C876 C873 1.357 . S
C876 C877 1.312 . S
C877 H848 0.930 . S
C877 C872 1.261 . S
C877 C876 1.312 . S
C878 O850 1.214 . S
C878 O858 1.234 . S
C879 H851 0.929 . S
C879 C882 1.391 . S
C879 C884 1.391 . S
C880 H852 0.929 . S
C880 C881 1.390 . S
C880 N883 1.391 . S
C881 H853 0.930 . S
C881 C880 1.390 . S
C881 C882 1.392 . S
C882 H854 0.929 . S
C882 C879 1.391 . S
C882 C881 1.392 . S
N883 Co827 2.257 . S
N883 C880 1.391 . S
N883 C884 1.388 . S
C884 H855 0.930 . S
C884 C879 1.391 . S
C884 N883 1.388 . S
Co885 O887 2.143 . S
Co885 O893 2.074 . S
Co885 O896 2.093 . S
Co885 O909 2.097 . S
Co885 N926 2.151 . S
Co885 N934 2.214 . S
Co886 O887 2.160 . S
Co886 O892 2.058 . S
Co886 O902 2.057 . S
Co886 O917 2.037 . S
Co886 N921 2.145 . S
Co886 N942 2.257 . S
O887 Co885 2.143 . S
O887 Co886 2.160 . S
C888 O889 1.278 . S
C888 O896 1.224 . S
O889 C888 1.278 . S
C890 O891 1.245 . S
C890 O902 1.232 . S
O891 C890 1.245 . S
O892 Co886 2.058 . S
O892 C918 1.269 . S
O893 Co885 2.074 . S
O893 C918 1.257 . S
H894 C919 0.930 . S
H895 C925 0.930 . S
O896 Co885 2.093 . S
O896 C888 1.224 . S
H897 C929 0.929 . S
H898 C931 0.930 . S
H899 C932 0.930 . S
H900 C930 0.929 . S
H901 C933 0.928 . S
O902 Co886 2.057 . S
O902 C890 1.232 . S
H903 C922 0.929 . S
H904 C923 0.929 . S
H905 C935 0.931 . S
H906 C927 0.929 . S
H907 C936 0.930 . S
H908 C928 0.931 . S
O909 Co885 2.097 . S
O909 C937 1.214 . S
H910 C938 0.929 . S
H911 C939 0.929 . S
H912 C940 0.930 . S
H913 C941 0.929 . S
H914 C943 0.930 . S
H915 C920 0.930 . S
H916 C924 0.930 . S
O917 Co886 2.037 . S
O917 C937 1.234 . S
C918 O892 1.269 . S
C918 O893 1.257 . S
C919 H894 0.930 . S
C919 C922 1.388 . S
C919 C924 1.418 . S
C920 H915 0.930 . S
C920 C923 1.404 . S
C920 C924 1.353 . S
N921 Co886 2.145 . S
N921 C922 1.397 . S
N921 C923 1.334 . S
C922 H903 0.929 . S
C922 C919 1.388 . S
C922 N921 1.397 . S
C923 H904 0.929 . S
C923 C920 1.404 . S
C923 N921 1.334 . S
C924 H916 0.930 . S
C924 C919 1.418 . S
C924 C920 1.353 . S
C925 H895 0.930 . S
C925 N926 1.330 . S
C925 C927 1.446 . S
N926 Co885 2.151 . S
N926 C925 1.330 . S
N926 C930 1.418 . S
C927 H906 0.929 . S
C927 C925 1.446 . S
C927 C928 1.332 . S
C928 H908 0.931 . S
C928 C927 1.332 . S
C928 C929 1.267 . S
C929 H897 0.929 . S
C929 C928 1.267 . S
C929 C930 1.251 . S
C930 H900 0.929 . S
C930 N926 1.418 . S
C930 C929 1.251 . S
C931 H898 0.930 . S
C931 C933 1.406 . S
C931 C936 1.261 . S
C932 H899 0.930 . S
C932 N934 1.325 . S
C932 C935 1.357 . S
C933 H901 0.928 . S
C933 C931 1.406 . S
C933 N934 1.261 . S
N934 Co885 2.214 . S
N934 C932 1.325 . S
N934 C933 1.261 . S
C935 H905 0.931 . S
C935 C932 1.357 . S
C935 C936 1.312 . S
C936 H907 0.930 . S
C936 C931 1.261 . S
C936 C935 1.312 . S
C937 O909 1.214 . S
C937 O917 1.234 . S
C938 H910 0.929 . S
C938 C941 1.391 . S
C938 C943 1.391 . S
C939 H911 0.929 . S
C939 C940 1.390 . S
C939 N942 1.391 . S
C940 H912 0.930 . S
C940 C939 1.390 . S
C940 C941 1.392 . S
C941 H913 0.929 . S
C941 C938 1.391 . S
C941 C940 1.392 . S
N942 Co886 2.257 . S
N942 C939 1.391 . S
N942 C943 1.388 . S
C943 H914 0.930 . S
C943 C938 1.391 . S
C943 N942 1.388 . S
Co944 O946 2.143 . S
Co944 O952 2.074 . S
Co944 O955 2.093 . S
Co944 O968 2.097 . S
Co944 N985 2.151 . S
Co944 N993 2.214 . S
Co945 O946 2.160 . S
Co945 O951 2.058 . S
Co945 O961 2.057 . S
Co945 O976 2.037 . S
Co945 N980 2.145 . S
Co945 N1001 2.257 . S
O946 Co944 2.143 . S
O946 Co945 2.160 . S
C947 O948 1.278 . S
C947 O955 1.224 . S
O948 C947 1.278 . S
C949 O950 1.245 . S
C949 O961 1.232 . S
O950 C949 1.245 . S
O951 Co945 2.058 . S
O951 C977 1.269 . S
O952 Co944 2.074 . S
O952 C977 1.257 . S
H953 C978 0.930 . S
H954 C984 0.930 . S
O955 Co944 2.093 . S
O955 C947 1.224 . S
H956 C988 0.929 . S
H957 C990 0.930 . S
H958 C991 0.930 . S
H959 C989 0.929 . S
H960 C992 0.928 . S
O961 Co945 2.057 . S
O961 C949 1.232 . S
H962 C981 0.929 . S
H963 C982 0.929 . S
H964 C994 0.931 . S
H965 C986 0.929 . S
H966 C995 0.930 . S
H967 C987 0.931 . S
O968 Co944 2.097 . S
O968 C996 1.214 . S
H969 C997 0.929 . S
H970 C998 0.929 . S
H971 C999 0.930 . S
H972 C1000 0.929 . S
H973 C1002 0.930 . S
H974 C979 0.930 . S
H975 C983 0.930 . S
O976 Co945 2.037 . S
O976 C996 1.234 . S
C977 O951 1.269 . S
C977 O952 1.257 . S
C978 H953 0.930 . S
C978 C981 1.388 . S
C978 C983 1.418 . S
C979 H974 0.930 . S
C979 C982 1.404 . S
C979 C983 1.353 . S
N980 Co945 2.145 . S
N980 C981 1.397 . S
N980 C982 1.334 . S
C981 H962 0.929 . S
C981 C978 1.388 . S
C981 N980 1.397 . S
C982 H963 0.929 . S
C982 C979 1.404 . S
C982 N980 1.334 . S
C983 H975 0.930 . S
C983 C978 1.418 . S
C983 C979 1.353 . S
C984 H954 0.930 . S
C984 N985 1.330 . S
C984 C986 1.446 . S
N985 Co944 2.151 . S
N985 C984 1.330 . S
N985 C989 1.418 . S
C986 H965 0.929 . S
C986 C984 1.446 . S
C986 C987 1.332 . S
C987 H967 0.931 . S
C987 C986 1.332 . S
C987 C988 1.267 . S
C988 H956 0.929 . S
C988 C987 1.267 . S
C988 C989 1.251 . S
C989 H959 0.929 . S
C989 N985 1.418 . S
C989 C988 1.251 . S
C990 H957 0.930 . S
C990 C992 1.406 . S
C990 C995 1.261 . S
C991 H958 0.930 . S
C991 N993 1.325 . S
C991 C994 1.357 . S
C992 H960 0.928 . S
C992 C990 1.406 . S
C992 N993 1.261 . S
N993 Co944 2.214 . S
N993 C991 1.325 . S
N993 C992 1.261 . S
C994 H964 0.931 . S
C994 C991 1.357 . S
C994 C995 1.312 . S
C995 H966 0.930 . S
C995 C990 1.261 . S
C995 C994 1.312 . S
C996 O968 1.214 . S
C996 O976 1.234 . S
C997 H969 0.929 . S
C997 C1000 1.391 . S
C997 C1002 1.391 . S
C998 H970 0.929 . S
C998 C999 1.390 . S
C998 N1001 1.391 . S
C999 H971 0.930 . S
C999 C998 1.390 . S
C999 C1000 1.392 . S
C1000 H972 0.929 . S
C1000 C997 1.391 . S
C1000 C999 1.392 . S
N1001 Co945 2.257 . S
N1001 C998 1.391 . S
N1001 C1002 1.388 . S
C1002 H973 0.930 . S
C1002 C997 1.391 . S
C1002 N1001 1.388 . S
Co1003 O1005 2.143 . S
Co1003 O1011 2.074 . S
Co1003 O1014 2.093 . S
Co1003 O1027 2.097 . S
Co1003 N1044 2.151 . S
Co1003 N1052 2.214 . S
Co1004 O1005 2.160 . S
Co1004 O1010 2.058 . S
Co1004 O1020 2.057 . S
Co1004 O1035 2.037 . S
Co1004 N1039 2.145 . S
Co1004 N1060 2.257 . S
O1005 Co1003 2.143 . S
O1005 Co1004 2.160 . S
C1006 O1007 1.278 . S
C1006 O1014 1.224 . S
O1007 C1006 1.278 . S
C1008 O1009 1.245 . S
C1008 O1020 1.232 . S
O1009 C1008 1.245 . S
O1010 Co1004 2.058 . S
O1010 C1036 1.269 . S
O1011 Co1003 2.074 . S
O1011 C1036 1.257 . S
H1012 C1037 0.930 . S
H1013 C1043 0.930 . S
O1014 Co1003 2.093 . S
O1014 C1006 1.224 . S
H1015 C1047 0.929 . S
H1016 C1049 0.930 . S
H1017 C1050 0.930 . S
H1018 C1048 0.929 . S
H1019 C1051 0.928 . S
O1020 Co1004 2.057 . S
O1020 C1008 1.232 . S
H1021 C1040 0.929 . S
H1022 C1041 0.929 . S
H1023 C1053 0.931 . S
H1024 C1045 0.929 . S
H1025 C1054 0.930 . S
H1026 C1046 0.931 . S
O1027 Co1003 2.097 . S
O1027 C1055 1.214 . S
H1028 C1056 0.929 . S
H1029 C1057 0.929 . S
H1030 C1058 0.930 . S
H1031 C1059 0.929 . S
H1032 C1061 0.930 . S
H1033 C1038 0.930 . S
H1034 C1042 0.930 . S
O1035 Co1004 2.037 . S
O1035 C1055 1.234 . S
C1036 O1010 1.269 . S
C1036 O1011 1.257 . S
C1037 H1012 0.930 . S
C1037 C1040 1.388 . S
C1037 C1042 1.418 . S
C1038 H1033 0.930 . S
C1038 C1041 1.404 . S
C1038 C1042 1.353 . S
N1039 Co1004 2.145 . S
N1039 C1040 1.397 . S
N1039 C1041 1.334 . S
C1040 H1021 0.929 . S
C1040 C1037 1.388 . S
C1040 N1039 1.397 . S
C1041 H1022 0.929 . S
C1041 C1038 1.404 . S
C1041 N1039 1.334 . S
C1042 H1034 0.930 . S
C1042 C1037 1.418 . S
C1042 C1038 1.353 . S
C1043 H1013 0.930 . S
C1043 N1044 1.330 . S
C1043 C1045 1.446 . S
N1044 Co1003 2.151 . S
N1044 C1043 1.330 . S
N1044 C1048 1.418 . S
C1045 H1024 0.929 . S
C1045 C1043 1.446 . S
C1045 C1046 1.332 . S
C1046 H1026 0.931 . S
C1046 C1045 1.332 . S
C1046 C1047 1.267 . S
C1047 H1015 0.929 . S
C1047 C1046 1.267 . S
C1047 C1048 1.251 . S
C1048 H1018 0.929 . S
C1048 N1044 1.418 . S
C1048 C1047 1.251 . S
C1049 H1016 0.930 . S
C1049 C1051 1.406 . S
C1049 C1054 1.261 . S
C1050 H1017 0.930 . S
C1050 N1052 1.325 . S
C1050 C1053 1.357 . S
C1051 H1019 0.928 . S
C1051 C1049 1.406 . S
C1051 N1052 1.261 . S
N1052 Co1003 2.214 . S
N1052 C1050 1.325 . S
N1052 C1051 1.261 . S
C1053 H1023 0.931 . S
C1053 C1050 1.357 . S
C1053 C1054 1.312 . S
C1054 H1025 0.930 . S
C1054 C1049 1.261 . S
C1054 C1053 1.312 . S
C1055 O1027 1.214 . S
C1055 O1035 1.234 . S
C1056 H1028 0.929 . S
C1056 C1059 1.391 . S
C1056 C1061 1.391 . S
C1057 H1029 0.929 . S
C1057 C1058 1.390 . S
C1057 N1060 1.391 . S
C1058 H1030 0.930 . S
C1058 C1057 1.390 . S
C1058 C1059 1.392 . S
C1059 H1031 0.929 . S
C1059 C1056 1.391 . S
C1059 C1058 1.392 . S
N1060 Co1004 2.257 . S
N1060 C1057 1.391 . S
N1060 C1061 1.388 . S
C1061 H1032 0.930 . S
C1061 C1056 1.391 . S
C1061 N1060 1.388 . S
Co1062 O1064 2.143 . S
Co1062 O1070 2.074 . S
Co1062 O1073 2.093 . S
Co1062 O1086 2.097 . S
Co1062 N1103 2.151 1_554 S
Co1062 N1111 2.214 1_554 S
Co1063 O1064 2.160 . S
Co1063 O1069 2.058 . S
Co1063 O1079 2.057 . S
Co1063 O1094 2.037 . S
Co1063 N1098 2.145 . S
Co1063 N1119 2.257 . S
O1064 Co1062 2.143 . S
O1064 Co1063 2.160 . S
C1065 O1066 1.278 . S
C1065 O1073 1.224 . S
O1066 C1065 1.278 . S
C1067 O1068 1.245 . S
C1067 O1079 1.232 . S
O1068 C1067 1.245 . S
O1069 Co1063 2.058 . S
O1069 C1095 1.269 . S
O1070 Co1062 2.074 . S
O1070 C1095 1.257 . S
H1071 C1096 0.930 . S
H1072 C1102 0.930 1_554 S
O1073 Co1062 2.093 . S
O1073 C1065 1.224 . S
H1074 C1106 0.929 . S
H1075 C1108 0.930 . S
H1076 C1109 0.930 . S
H1077 C1107 0.929 . S
H1078 C1110 0.928 . S
O1079 Co1063 2.057 . S
O1079 C1067 1.232 . S
H1080 C1099 0.929 . S
H1081 C1100 0.929 . S
H1082 C1112 0.931 . S
H1083 C1104 0.929 . S
H1084 C1113 0.930 . S
H1085 C1105 0.931 . S
O1086 Co1062 2.097 . S
O1086 C1114 1.214 . S
H1087 C1115 0.929 . S
H1088 C1116 0.929 . S
H1089 C1117 0.930 . S
H1090 C1118 0.929 . S
H1091 C1120 0.930 . S
H1092 C1097 0.930 . S
H1093 C1101 0.930 . S
O1094 Co1063 2.037 . S
O1094 C1114 1.234 . S
C1095 O1069 1.269 . S
C1095 O1070 1.257 . S
C1096 H1071 0.930 . S
C1096 C1099 1.388 . S
C1096 C1101 1.418 . S
C1097 H1092 0.930 . S
C1097 C1100 1.404 . S
C1097 C1101 1.353 . S
N1098 Co1063 2.145 . S
N1098 C1099 1.397 . S
N1098 C1100 1.334 . S
C1099 H1080 0.929 . S
C1099 C1096 1.388 . S
C1099 N1098 1.397 . S
C1100 H1081 0.929 . S
C1100 C1097 1.404 . S
C1100 N1098 1.334 . S
C1101 H1093 0.930 . S
C1101 C1096 1.418 . S
C1101 C1097 1.353 . S
C1102 H1072 0.930 1_556 S
C1102 N1103 1.330 . S
C1102 C1104 1.446 . S
N1103 Co1062 2.151 1_556 S
N1103 C1102 1.330 . S
N1103 C1107 1.418 . S
C1104 H1083 0.929 . S
C1104 C1102 1.446 . S
C1104 C1105 1.332 . S
C1105 H1085 0.931 . S
C1105 C1104 1.332 . S
C1105 C1106 1.267 . S
C1106 H1074 0.929 . S
C1106 C1105 1.267 . S
C1106 C1107 1.251 . S
C1107 H1077 0.929 . S
C1107 N1103 1.418 . S
C1107 C1106 1.251 . S
C1108 H1075 0.930 . S
C1108 C1110 1.406 . S
C1108 C1113 1.261 . S
C1109 H1076 0.930 . S
C1109 N1111 1.325 . S
C1109 C1112 1.357 . S
C1110 H1078 0.928 . S
C1110 C1108 1.406 . S
C1110 N1111 1.261 . S
N1111 Co1062 2.214 1_556 S
N1111 C1109 1.325 . S
N1111 C1110 1.261 . S
C1112 H1082 0.931 . S
C1112 C1109 1.357 . S
C1112 C1113 1.312 . S
C1113 H1084 0.930 . S
C1113 C1108 1.261 . S
C1113 C1112 1.312 . S
C1114 O1086 1.214 . S
C1114 O1094 1.234 . S
C1115 H1087 0.929 . S
C1115 C1118 1.391 . S
C1115 C1120 1.391 . S
C1116 H1088 0.929 . S
C1116 C1117 1.390 . S
C1116 N1119 1.391 . S
C1117 H1089 0.930 . S
C1117 C1116 1.390 . S
C1117 C1118 1.392 . S
C1118 H1090 0.929 . S
C1118 C1115 1.391 . S
C1118 C1117 1.392 . S
N1119 Co1063 2.257 . S
N1119 C1116 1.391 . S
N1119 C1120 1.388 . S
C1120 H1091 0.930 . S
C1120 C1115 1.391 . S
C1120 N1119 1.388 . S
Co1121 O1123 2.143 . S
Co1121 O1129 2.074 . S
Co1121 O1132 2.093 . S
Co1121 O1145 2.097 . S
Co1121 N1162 2.151 . S
Co1121 N1170 2.214 . S
Co1122 O1123 2.160 . S
Co1122 O1128 2.058 . S
Co1122 O1138 2.057 . S
Co1122 O1153 2.037 . S
Co1122 N1157 2.145 . S
Co1122 N1178 2.257 . S
O1123 Co1121 2.143 . S
O1123 Co1122 2.160 . S
C1124 O1125 1.278 . S
C1124 O1132 1.224 . S
O1125 C1124 1.278 . S
C1126 O1127 1.245 . S
C1126 O1138 1.232 . S
O1127 C1126 1.245 . S
O1128 Co1122 2.058 . S
O1128 C1154 1.269 . S
O1129 Co1121 2.074 . S
O1129 C1154 1.257 . S
H1130 C1155 0.930 . S
H1131 C1161 0.930 . S
O1132 Co1121 2.093 . S
O1132 C1124 1.224 . S
H1133 C1165 0.929 . S
H1134 C1167 0.930 . S
H1135 C1168 0.930 . S
H1136 C1166 0.929 . S
H1137 C1169 0.928 . S
O1138 Co1122 2.057 . S
O1138 C1126 1.232 . S
H1139 C1158 0.929 . S
H1140 C1159 0.929 . S
H1141 C1171 0.931 . S
H1142 C1163 0.929 . S
H1143 C1172 0.930 . S
H1144 C1164 0.931 . S
O1145 Co1121 2.097 . S
O1145 C1173 1.214 . S
H1146 C1174 0.929 . S
H1147 C1175 0.929 . S
H1148 C1176 0.930 . S
H1149 C1177 0.929 . S
H1150 C1179 0.930 . S
H1151 C1156 0.930 . S
H1152 C1160 0.930 . S
O1153 Co1122 2.037 . S
O1153 C1173 1.234 . S
C1154 O1128 1.269 . S
C1154 O1129 1.257 . S
C1155 H1130 0.930 . S
C1155 C1158 1.388 . S
C1155 C1160 1.418 . S
C1156 H1151 0.930 . S
C1156 C1159 1.404 . S
C1156 C1160 1.353 . S
N1157 Co1122 2.145 . S
N1157 C1158 1.397 . S
N1157 C1159 1.334 . S
C1158 H1139 0.929 . S
C1158 C1155 1.388 . S
C1158 N1157 1.397 . S
C1159 H1140 0.929 . S
C1159 C1156 1.404 . S
C1159 N1157 1.334 . S
C1160 H1152 0.930 . S
C1160 C1155 1.418 . S
C1160 C1156 1.353 . S
C1161 H1131 0.930 . S
C1161 N1162 1.330 . S
C1161 C1163 1.446 . S
N1162 Co1121 2.151 . S
N1162 C1161 1.330 . S
N1162 C1166 1.418 . S
C1163 H1142 0.929 . S
C1163 C1161 1.446 . S
C1163 C1164 1.332 . S
C1164 H1144 0.931 . S
C1164 C1163 1.332 . S
C1164 C1165 1.267 . S
C1165 H1133 0.929 . S
C1165 C1164 1.267 . S
C1165 C1166 1.251 . S
C1166 H1136 0.929 . S
C1166 N1162 1.418 . S
C1166 C1165 1.251 . S
C1167 H1134 0.930 . S
C1167 C1169 1.406 . S
C1167 C1172 1.261 . S
C1168 H1135 0.930 . S
C1168 N1170 1.325 . S
C1168 C1171 1.357 . S
C1169 H1137 0.928 . S
C1169 C1167 1.406 . S
C1169 N1170 1.261 . S
N1170 Co1121 2.214 . S
N1170 C1168 1.325 . S
N1170 C1169 1.261 . S
C1171 H1141 0.931 . S
C1171 C1168 1.357 . S
C1171 C1172 1.312 . S
C1172 H1143 0.930 . S
C1172 C1167 1.261 . S
C1172 C1171 1.312 . S
C1173 O1145 1.214 . S
C1173 O1153 1.234 . S
C1174 H1146 0.929 . S
C1174 C1177 1.391 . S
C1174 C1179 1.391 . S
C1175 H1147 0.929 . S
C1175 C1176 1.390 . S
C1175 N1178 1.391 . S
C1176 H1148 0.930 . S
C1176 C1175 1.390 . S
C1176 C1177 1.392 . S
C1177 H1149 0.929 . S
C1177 C1174 1.391 . S
C1177 C1176 1.392 . S
N1178 Co1122 2.257 . S
N1178 C1175 1.391 . S
N1178 C1179 1.388 . S
C1179 H1150 0.930 . S
C1179 C1174 1.391 . S
C1179 N1178 1.388 . S
Co1180 O1182 2.143 . S
Co1180 O1188 2.074 . S
Co1180 O1191 2.093 . S
Co1180 O1204 2.097 . S
Co1180 N1221 2.151 . S
Co1180 N1229 2.214 . S
Co1181 O1182 2.160 . S
Co1181 O1187 2.058 . S
Co1181 O1197 2.057 . S
Co1181 O1212 2.037 . S
Co1181 N1216 2.145 . S
Co1181 N1237 2.257 . S
O1182 Co1180 2.143 . S
O1182 Co1181 2.160 . S
C1183 O1184 1.278 . S
C1183 O1191 1.224 . S
O1184 C1183 1.278 . S
C1185 O1186 1.245 . S
C1185 O1197 1.232 . S
O1186 C1185 1.245 . S
O1187 Co1181 2.058 . S
O1187 C1213 1.269 . S
O1188 Co1180 2.074 . S
O1188 C1213 1.257 . S
H1189 C1214 0.930 . S
H1190 C1220 0.930 . S
O1191 Co1180 2.093 . S
O1191 C1183 1.224 . S
H1192 C1224 0.929 . S
H1193 C1226 0.930 . S
H1194 C1227 0.930 . S
H1195 C1225 0.929 . S
H1196 C1228 0.928 . S
O1197 Co1181 2.057 . S
O1197 C1185 1.232 . S
H1198 C1217 0.929 . S
H1199 C1218 0.929 . S
H1200 C1230 0.931 . S
H1201 C1222 0.929 . S
H1202 C1231 0.930 . S
H1203 C1223 0.931 . S
O1204 Co1180 2.097 . S
O1204 C1232 1.214 . S
H1205 C1233 0.929 . S
H1206 C1234 0.929 . S
H1207 C1235 0.930 . S
H1208 C1236 0.929 . S
H1209 C1238 0.930 . S
H1210 C1215 0.930 . S
H1211 C1219 0.930 . S
O1212 Co1181 2.037 . S
O1212 C1232 1.234 . S
C1213 O1187 1.269 . S
C1213 O1188 1.257 . S
C1214 H1189 0.930 . S
C1214 C1217 1.388 . S
C1214 C1219 1.418 . S
C1215 H1210 0.930 . S
C1215 C1218 1.404 . S
C1215 C1219 1.353 . S
N1216 Co1181 2.145 . S
N1216 C1217 1.397 . S
N1216 C1218 1.334 . S
C1217 H1198 0.929 . S
C1217 C1214 1.388 . S
C1217 N1216 1.397 . S
C1218 H1199 0.929 . S
C1218 C1215 1.404 . S
C1218 N1216 1.334 . S
C1219 H1211 0.930 . S
C1219 C1214 1.418 . S
C1219 C1215 1.353 . S
C1220 H1190 0.930 . S
C1220 N1221 1.330 . S
C1220 C1222 1.446 . S
N1221 Co1180 2.151 . S
N1221 C1220 1.330 . S
N1221 C1225 1.418 . S
C1222 H1201 0.929 . S
C1222 C1220 1.446 . S
C1222 C1223 1.332 . S
C1223 H1203 0.931 . S
C1223 C1222 1.332 . S
C1223 C1224 1.267 . S
C1224 H1192 0.929 . S
C1224 C1223 1.267 . S
C1224 C1225 1.251 . S
C1225 H1195 0.929 . S
C1225 N1221 1.418 . S
C1225 C1224 1.251 . S
C1226 H1193 0.930 . S
C1226 C1228 1.406 . S
C1226 C1231 1.261 . S
C1227 H1194 0.930 . S
C1227 N1229 1.325 . S
C1227 C1230 1.357 . S
C1228 H1196 0.928 . S
C1228 C1226 1.406 . S
C1228 N1229 1.261 . S
N1229 Co1180 2.214 . S
N1229 C1227 1.325 . S
N1229 C1228 1.261 . S
C1230 H1200 0.931 . S
C1230 C1227 1.357 . S
C1230 C1231 1.312 . S
C1231 H1202 0.930 . S
C1231 C1226 1.261 . S
C1231 C1230 1.312 . S
C1232 O1204 1.214 . S
C1232 O1212 1.234 . S
C1233 H1205 0.929 . S
C1233 C1236 1.391 . S
C1233 C1238 1.391 . S
C1234 H1206 0.929 . S
C1234 C1235 1.390 . S
C1234 N1237 1.391 . S
C1235 H1207 0.930 . S
C1235 C1234 1.390 . S
C1235 C1236 1.392 . S
C1236 H1208 0.929 . S
C1236 C1233 1.391 . S
C1236 C1235 1.392 . S
N1237 Co1181 2.257 . S
N1237 C1234 1.391 . S
N1237 C1238 1.388 . S
C1238 H1209 0.930 . S
C1238 C1233 1.391 . S
C1238 N1237 1.388 . S
Co1239 O1241 2.143 . S
Co1239 O1247 2.074 . S
Co1239 O1250 2.093 . S
Co1239 O1263 2.097 . S
Co1239 N1280 2.151 . S
Co1239 N1288 2.214 . S
Co1240 O1241 2.160 . S
Co1240 O1246 2.058 . S
Co1240 O1256 2.057 . S
Co1240 O1271 2.037 . S
Co1240 N1275 2.145 . S
Co1240 N1296 2.257 . S
O1241 Co1239 2.143 . S
O1241 Co1240 2.160 . S
C1242 O1243 1.278 . S
C1242 O1250 1.224 . S
O1243 C1242 1.278 . S
C1244 O1245 1.245 . S
C1244 O1256 1.232 . S
O1245 C1244 1.245 . S
O1246 Co1240 2.058 . S
O1246 C1272 1.269 . S
O1247 Co1239 2.074 . S
O1247 C1272 1.257 . S
H1248 C1273 0.930 . S
H1249 C1279 0.930 . S
O1250 Co1239 2.093 . S
O1250 C1242 1.224 . S
H1251 C1283 0.929 . S
H1252 C1285 0.930 . S
H1253 C1286 0.930 . S
H1254 C1284 0.929 . S
H1255 C1287 0.928 . S
O1256 Co1240 2.057 . S
O1256 C1244 1.232 . S
H1257 C1276 0.929 . S
H1258 C1277 0.929 . S
H1259 C1289 0.931 . S
H1260 C1281 0.929 . S
H1261 C1290 0.930 . S
H1262 C1282 0.931 . S
O1263 Co1239 2.097 . S
O1263 C1291 1.214 . S
H1264 C1292 0.929 . S
H1265 C1293 0.929 . S
H1266 C1294 0.930 . S
H1267 C1295 0.929 . S
H1268 C1297 0.930 . S
H1269 C1274 0.930 . S
H1270 C1278 0.930 . S
O1271 Co1240 2.037 . S
O1271 C1291 1.234 . S
C1272 O1246 1.269 . S
C1272 O1247 1.257 . S
C1273 H1248 0.930 . S
C1273 C1276 1.388 . S
C1273 C1278 1.418 . S
C1274 H1269 0.930 . S
C1274 C1277 1.404 . S
C1274 C1278 1.353 . S
N1275 Co1240 2.145 . S
N1275 C1276 1.397 . S
N1275 C1277 1.334 . S
C1276 H1257 0.929 . S
C1276 C1273 1.388 . S
C1276 N1275 1.397 . S
C1277 H1258 0.929 . S
C1277 C1274 1.404 . S
C1277 N1275 1.334 . S
C1278 H1270 0.930 . S
C1278 C1273 1.418 . S
C1278 C1274 1.353 . S
C1279 H1249 0.930 . S
C1279 N1280 1.330 . S
C1279 C1281 1.446 . S
N1280 Co1239 2.151 . S
N1280 C1279 1.330 . S
N1280 C1284 1.418 . S
C1281 H1260 0.929 . S
C1281 C1279 1.446 . S
C1281 C1282 1.332 . S
C1282 H1262 0.931 . S
C1282 C1281 1.332 . S
C1282 C1283 1.267 . S
C1283 H1251 0.929 . S
C1283 C1282 1.267 . S
C1283 C1284 1.251 . S
C1284 H1254 0.929 . S
C1284 N1280 1.418 . S
C1284 C1283 1.251 . S
C1285 H1252 0.930 . S
C1285 C1287 1.406 . S
C1285 C1290 1.261 . S
C1286 H1253 0.930 . S
C1286 N1288 1.325 . S
C1286 C1289 1.357 . S
C1287 H1255 0.928 . S
C1287 C1285 1.406 . S
C1287 N1288 1.261 . S
N1288 Co1239 2.214 . S
N1288 C1286 1.325 . S
N1288 C1287 1.261 . S
C1289 H1259 0.931 . S
C1289 C1286 1.357 . S
C1289 C1290 1.312 . S
C1290 H1261 0.930 . S
C1290 C1285 1.261 . S
C1290 C1289 1.312 . S
C1291 O1263 1.214 . S
C1291 O1271 1.234 . S
C1292 H1264 0.929 . S
C1292 C1295 1.391 . S
C1292 C1297 1.391 . S
C1293 H1265 0.929 . S
C1293 C1294 1.390 . S
C1293 N1296 1.391 . S
C1294 H1266 0.930 . S
C1294 C1293 1.390 . S
C1294 C1295 1.392 . S
C1295 H1267 0.929 . S
C1295 C1292 1.391 . S
C1295 C1294 1.392 . S
N1296 Co1240 2.257 . S
N1296 C1293 1.391 . S
N1296 C1297 1.388 . S
C1297 H1268 0.930 . S
C1297 C1292 1.391 . S
C1297 N1296 1.388 . S
Co1298 O1300 2.143 . S
Co1298 O1306 2.074 . S
Co1298 O1309 2.093 . S
Co1298 O1322 2.097 . S
Co1298 N1339 2.151 1_556 S
Co1298 N1347 2.214 1_556 S
Co1299 O1300 2.160 . S
Co1299 O1305 2.061 . S
Co1299 O1315 2.057 . S
Co1299 O1330 2.037 . S
Co1299 N1334 2.145 . S
Co1299 N1355 2.257 . S
O1300 Co1298 2.143 . S
O1300 Co1299 2.160 . S
C1301 O1302 1.278 . S
C1301 O1309 1.224 . S
O1302 C1301 1.278 . S
C1303 O1304 1.245 . S
C1303 O1315 1.232 . S
O1304 C1303 1.245 . S
O1305 Co1299 2.061 . S
O1305 C1331 1.270 . S
O1306 Co1298 2.074 . S
O1306 C1331 1.257 . S
H1307 C1332 0.930 . S
H1308 C1338 0.930 1_556 S
O1309 Co1298 2.093 . S
O1309 C1301 1.224 . S
H1310 C1342 0.929 1_545 S
H1311 C1344 0.930 . S
H1312 C1345 0.930 . S
H1313 C1343 0.929 . S
H1314 C1346 0.928 . S
O1315 Co1299 2.057 . S
O1315 C1303 1.232 . S
H1316 C1335 0.929 . S
H1317 C1336 0.929 . S
H1318 C1348 0.931 . S
H1319 C1340 0.929 . S
H1320 C1349 0.930 . S
H1321 C1341 0.931 . S
O1322 Co1298 2.097 . S
O1322 C1350 1.214 . S
H1323 C1351 0.929 . S
H1324 C1352 0.929 . S
H1325 C1353 0.930 . S
H1326 C1354 0.929 . S
H1327 C1356 0.930 . S
H1328 C1333 0.930 . S
H1329 C1337 0.930 . S
O1330 Co1299 2.037 . S
O1330 C1350 1.234 . S
C1331 O1305 1.270 . S
C1331 O1306 1.257 . S
C1332 H1307 0.930 . S
C1332 C1335 1.388 . S
C1332 C1337 1.418 1_565 S
C1333 H1328 0.930 . S
C1333 C1336 1.404 1_545 S
C1333 C1337 1.353 . S
N1334 Co1299 2.145 . S
N1334 C1335 1.397 . S
N1334 C1336 1.334 . S
C1335 H1316 0.929 . S
C1335 C1332 1.388 . S
C1335 N1334 1.397 . S
C1336 H1317 0.929 . S
C1336 C1333 1.404 1_565 S
C1336 N1334 1.334 . S
C1337 H1329 0.930 . S
C1337 C1332 1.418 1_545 S
C1337 C1333 1.353 . S
C1338 H1308 0.930 1_554 S
C1338 N1339 1.330 . S
C1338 C1340 1.446 . S
N1339 Co1298 2.151 1_554 S
N1339 C1338 1.330 . S
N1339 C1343 1.418 . S
C1340 H1319 0.929 . S
C1340 C1338 1.446 . S
C1340 C1341 1.332 . S
C1341 H1321 0.931 . S
C1341 C1340 1.332 . S
C1341 C1342 1.267 . S
C1342 H1310 0.929 1_565 S
C1342 C1341 1.267 . S
C1342 C1343 1.251 . S
C1343 H1313 0.929 . S
C1343 N1339 1.418 . S
C1343 C1342 1.251 . S
C1344 H1311 0.930 . S
C1344 C1346 1.406 . S
C1344 C1349 1.261 . S
C1345 H1312 0.930 . S
C1345 N1347 1.325 . S
C1345 C1348 1.357 . S
C1346 H1314 0.928 . S
C1346 C1344 1.406 . S
C1346 N1347 1.261 . S
N1347 Co1298 2.214 1_554 S
N1347 C1345 1.325 . S
N1347 C1346 1.261 . S
C1348 H1318 0.931 . S
C1348 C1345 1.357 . S
C1348 C1349 1.312 . S
C1349 H1320 0.930 . S
C1349 C1344 1.261 . S
C1349 C1348 1.312 . S
C1350 O1322 1.214 . S
C1350 O1330 1.234 . S
C1351 H1323 0.929 . S
C1351 C1354 1.391 . S
C1351 C1356 1.391 . S
C1352 H1324 0.929 . S
C1352 C1353 1.390 . S
C1352 N1355 1.391 . S
C1353 H1325 0.930 . S
C1353 C1352 1.390 . S
C1353 C1354 1.392 . S
C1354 H1326 0.929 . S
C1354 C1351 1.391 . S
C1354 C1353 1.392 . S
N1355 Co1299 2.257 . S
N1355 C1352 1.391 . S
N1355 C1356 1.388 . S
C1356 H1327 0.930 . S
C1356 C1351 1.391 . S
C1356 N1355 1.388 . S
Co1357 O1359 2.143 . S
Co1357 O1365 2.074 . S
Co1357 O1368 2.093 . S
Co1357 O1381 2.097 . S
Co1357 N1398 2.151 . S
Co1357 N1406 2.214 . S
Co1358 O1359 2.160 . S
Co1358 O1364 2.061 . S
Co1358 O1374 2.057 . S
Co1358 O1389 2.037 . S
Co1358 N1393 2.145 . S
Co1358 N1414 2.257 . S
O1359 Co1357 2.143 . S
O1359 Co1358 2.160 . S
C1360 O1361 1.278 . S
C1360 O1368 1.224 . S
O1361 C1360 1.278 . S
C1362 O1363 1.245 . S
C1362 O1374 1.232 . S
O1363 C1362 1.245 . S
O1364 Co1358 2.061 . S
O1364 C1390 1.270 . S
O1365 Co1357 2.074 . S
O1365 C1390 1.257 . S
H1366 C1391 0.930 . S
H1367 C1397 0.930 . S
O1368 Co1357 2.093 . S
O1368 C1360 1.224 . S
H1369 C1401 0.929 1_565 S
H1370 C1403 0.930 . S
H1371 C1404 0.930 . S
H1372 C1402 0.929 . S
H1373 C1405 0.928 . S
O1374 Co1358 2.057 . S
O1374 C1362 1.232 . S
H1375 C1394 0.929 . S
H1376 C1395 0.929 . S
H1377 C1407 0.931 . S
H1378 C1399 0.929 . S
H1379 C1408 0.930 . S
H1380 C1400 0.931 . S
O1381 Co1357 2.097 . S
O1381 C1409 1.214 . S
H1382 C1410 0.929 . S
H1383 C1411 0.929 . S
H1384 C1412 0.930 . S
H1385 C1413 0.929 . S
H1386 C1415 0.930 . S
H1387 C1392 0.930 . S
H1388 C1396 0.930 . S
O1389 Co1358 2.037 . S
O1389 C1409 1.234 . S
C1390 O1364 1.270 . S
C1390 O1365 1.257 . S
C1391 H1366 0.930 . S
C1391 C1394 1.388 . S
C1391 C1396 1.418 1_545 S
C1392 H1387 0.930 . S
C1392 C1395 1.404 1_565 S
C1392 C1396 1.353 . S
N1393 Co1358 2.145 . S
N1393 C1394 1.397 . S
N1393 C1395 1.334 . S
C1394 H1375 0.929 . S
C1394 C1391 1.388 . S
C1394 N1393 1.397 . S
C1395 H1376 0.929 . S
C1395 C1392 1.404 1_545 S
C1395 N1393 1.334 . S
C1396 H1388 0.930 . S
C1396 C1391 1.418 1_565 S
C1396 C1392 1.353 . S
C1397 H1367 0.930 . S
C1397 N1398 1.330 . S
C1397 C1399 1.446 . S
N1398 Co1357 2.151 . S
N1398 C1397 1.330 . S
N1398 C1402 1.418 . S
C1399 H1378 0.929 . S
C1399 C1397 1.446 . S
C1399 C1400 1.332 . S
C1400 H1380 0.931 . S
C1400 C1399 1.332 . S
C1400 C1401 1.267 . S
C1401 H1369 0.929 1_545 S
C1401 C1400 1.267 . S
C1401 C1402 1.251 . S
C1402 H1372 0.929 . S
C1402 N1398 1.418 . S
C1402 C1401 1.251 . S
C1403 H1370 0.930 . S
C1403 C1405 1.406 . S
C1403 C1408 1.261 . S
C1404 H1371 0.930 . S
C1404 N1406 1.325 . S
C1404 C1407 1.357 . S
C1405 H1373 0.928 . S
C1405 C1403 1.406 . S
C1405 N1406 1.261 . S
N1406 Co1357 2.214 . S
N1406 C1404 1.325 . S
N1406 C1405 1.261 . S
C1407 H1377 0.931 . S
C1407 C1404 1.357 . S
C1407 C1408 1.312 . S
C1408 H1379 0.930 . S
C1408 C1403 1.261 . S
C1408 C1407 1.312 . S
C1409 O1381 1.214 . S
C1409 O1389 1.234 . S
C1410 H1382 0.929 . S
C1410 C1413 1.391 . S
C1410 C1415 1.391 . S
C1411 H1383 0.929 . S
C1411 C1412 1.390 . S
C1411 N1414 1.391 . S
C1412 H1384 0.930 . S
C1412 C1411 1.390 . S
C1412 C1413 1.392 . S
C1413 H1385 0.929 . S
C1413 C1410 1.391 . S
C1413 C1412 1.392 . S
N1414 Co1358 2.257 . S
N1414 C1411 1.391 . S
N1414 C1415 1.388 . S
C1415 H1386 0.930 . S
C1415 C1410 1.391 . S
C1415 N1414 1.388 . S
C1416 C1417 1.363 . S
C1416 C1422 1.379 . S
C1416 N1424 1.356 . S
C1417 C1416 1.363 . S
C1417 C1423 1.363 . S
C1418 C1419 1.363 . S
C1418 C1423 1.379 . S
C1418 N1425 1.356 . S
C1419 C1418 1.363 . S
C1419 C1422 1.363 . S
N1420 C1422 1.356 . S
N1420 H1432 0.984 . S
N1420 H1433 0.985 . S
N1421 C1423 1.356 . S
N1421 H1426 0.984 . S
N1421 H1427 0.985 . S
C1422 C1416 1.379 . S
C1422 C1419 1.363 . S
C1422 N1420 1.356 . S
C1423 C1417 1.363 . S
C1423 C1418 1.379 . S
C1423 N1421 1.356 . S
N1424 C1416 1.356 . S
N1424 H1430 0.984 . S
N1424 H1431 0.984 . S
N1425 C1418 1.356 . S
N1425 H1428 0.984 . S
N1425 H1429 0.985 . S
H1426 N1421 0.984 . S
H1427 N1421 0.985 . S
H1428 N1425 0.984 . S
H1429 N1425 0.985 . S
H1430 N1424 0.984 . S
H1431 N1424 0.984 . S
H1432 N1420 0.984 . S
H1433 N1420 0.985 . S
C1434 C1435 1.363 . S
C1434 C1440 1.379 . S
C1434 N1442 1.356 . S
C1435 C1434 1.363 . S
C1435 C1441 1.363 . S
C1436 C1437 1.363 . S
C1436 C1441 1.379 . S
C1436 N1443 1.356 . S
C1437 C1436 1.363 . S
C1437 C1440 1.363 . S
N1438 C1440 1.356 . S
N1438 H1450 0.984 . S
N1438 H1451 0.985 . S
N1439 C1441 1.356 1_655 S
N1439 H1444 0.984 . S
N1439 H1445 0.985 . S
C1440 C1434 1.379 . S
C1440 C1437 1.363 . S
C1440 N1438 1.356 . S
C1441 C1435 1.363 . S
C1441 C1436 1.379 . S
C1441 N1439 1.356 1_455 S
N1442 C1434 1.356 . S
N1442 H1448 0.984 . S
N1442 H1449 0.984 . S
N1443 C1436 1.356 . S
N1443 H1446 0.984 . S
N1443 H1447 0.985 . S
H1444 N1439 0.984 . S
H1445 N1439 0.985 . S
H1446 N1443 0.984 . S
H1447 N1443 0.985 . S
H1448 N1442 0.984 . S
H1449 N1442 0.984 . S
H1450 N1438 0.984 . S
H1451 N1438 0.985 . S
C1452 C1453 1.363 . S
C1452 C1458 1.379 . S
C1452 N1460 1.356 . S
C1453 C1452 1.363 . S
C1453 C1459 1.363 . S
C1454 C1455 1.363 . S
C1454 C1459 1.379 . S
C1454 N1461 1.356 1_556 S
C1455 C1454 1.363 . S
C1455 C1458 1.363 . S
N1456 C1458 1.356 . S
N1456 H1468 0.984 . S
N1456 H1469 0.985 . S
N1457 C1459 1.356 . S
N1457 H1462 0.984 . S
N1457 H1463 0.985 . S
C1458 C1452 1.379 . S
C1458 C1455 1.363 . S
C1458 N1456 1.356 . S
C1459 C1453 1.363 . S
C1459 C1454 1.379 . S
C1459 N1457 1.356 . S
N1460 C1452 1.356 . S
N1460 H1466 0.984 . S
N1460 H1467 0.984 . S
N1461 C1454 1.356 1_554 S
N1461 H1464 0.984 . S
N1461 H1465 0.985 . S
H1462 N1457 0.984 . S
H1463 N1457 0.985 . S
H1464 N1461 0.984 . S
H1465 N1461 0.985 . S
H1466 N1460 0.984 . S
H1467 N1460 0.984 . S
H1468 N1456 0.984 . S
H1469 N1456 0.985 . S
C1470 C1471 1.363 . S
C1470 C1476 1.379 . S
C1470 N1478 1.356 . S
C1471 C1470 1.363 . S
C1471 C1477 1.363 . S
C1472 C1473 1.363 . S
C1472 C1477 1.379 . S
C1472 N1479 1.356 . S
C1473 C1472 1.363 . S
C1473 C1476 1.363 . S
N1474 C1476 1.356 . S
N1474 H1486 0.984 . S
N1474 H1487 0.985 . S
N1475 C1477 1.356 . S
N1475 H1480 0.984 . S
N1475 H1481 0.985 . S
C1476 C1470 1.379 . S
C1476 C1473 1.363 . S
C1476 N1474 1.356 . S
C1477 C1471 1.363 . S
C1477 C1472 1.379 . S
C1477 N1475 1.356 . S
N1478 C1470 1.356 . S
N1478 H1484 0.984 . S
N1478 H1485 0.984 . S
N1479 C1472 1.356 . S
N1479 H1482 0.984 . S
N1479 H1483 0.985 . S
H1480 N1475 0.984 . S
H1481 N1475 0.985 . S
H1482 N1479 0.984 . S
H1483 N1479 0.985 . S
H1484 N1478 0.984 . S
H1485 N1478 0.984 . S
H1486 N1474 0.984 . S
H1487 N1474 0.985 . S
C1488 C1489 1.363 . S
C1488 C1494 1.379 . S
C1488 N1496 1.356 . S
C1489 C1488 1.363 . S
C1489 C1495 1.363 . S
C1490 C1491 1.363 . S
C1490 C1495 1.379 . S
C1490 N1497 1.356 . S
C1491 C1490 1.363 . S
C1491 C1494 1.363 . S
N1492 C1494 1.356 . S
N1492 H1504 0.984 . S
N1492 H1505 0.985 . S
N1493 C1495 1.356 . S
N1493 H1498 0.984 . S
N1493 H1499 0.985 . S
C1494 C1488 1.379 . S
C1494 C1491 1.363 . S
C1494 N1492 1.356 . S
C1495 C1489 1.363 . S
C1495 C1490 1.379 . S
C1495 N1493 1.356 . S
N1496 C1488 1.356 . S
N1496 H1502 0.984 . S
N1496 H1503 0.984 . S
N1497 C1490 1.356 . S
N1497 H1500 0.984 . S
N1497 H1501 0.985 . S
H1498 N1493 0.984 . S
H1499 N1493 0.985 . S
H1500 N1497 0.984 . S
H1501 N1497 0.985 . S
H1502 N1496 0.984 . S
H1503 N1496 0.984 . S
H1504 N1492 0.984 . S
H1505 N1492 0.985 . S
C1506 C1507 1.363 . S
C1506 C1512 1.379 . S
C1506 N1514 1.356 . S
C1507 C1506 1.363 . S
C1507 C1513 1.363 . S
C1508 C1509 1.363 . S
C1508 C1513 1.379 . S
C1508 N1515 1.356 1_655 S
C1509 C1508 1.363 . S
C1509 C1512 1.363 . S
N1510 C1512 1.356 . S
N1510 H1522 0.984 . S
N1510 H1523 0.985 . S
N1511 C1513 1.356 . S
N1511 H1516 0.984 . S
N1511 H1517 0.985 . S
C1512 C1506 1.379 . S
C1512 C1509 1.363 . S
C1512 N1510 1.356 . S
C1513 C1507 1.363 . S
C1513 C1508 1.379 . S
C1513 N1511 1.356 . S
N1514 C1506 1.356 . S
N1514 H1520 0.984 . S
N1514 H1521 0.984 . S
N1515 C1508 1.356 1_455 S
N1515 H1518 0.984 . S
N1515 H1519 0.985 . S
H1516 N1511 0.984 . S
H1517 N1511 0.985 . S
H1518 N1515 0.984 . S
H1519 N1515 0.985 . S
H1520 N1514 0.984 . S
H1521 N1514 0.984 . S
H1522 N1510 0.984 . S
H1523 N1510 0.985 . S
C1524 C1525 1.363 . S
C1524 C1530 1.379 . S
C1524 N1532 1.356 . S
C1525 C1524 1.363 . S
C1525 C1531 1.363 . S
C1526 C1527 1.363 . S
C1526 C1531 1.379 . S
C1526 N1533 1.356 1_554 S
C1527 C1526 1.363 . S
C1527 C1530 1.363 . S
N1528 C1530 1.356 . S
N1528 H1540 0.984 . S
N1528 H1541 0.985 . S
N1529 C1531 1.356 . S
N1529 H1534 0.984 . S
N1529 H1535 0.985 . S
C1530 C1524 1.379 . S
C1530 C1527 1.363 . S
C1530 N1528 1.356 . S
C1531 C1525 1.363 . S
C1531 C1526 1.379 . S
C1531 N1529 1.356 . S
N1532 C1524 1.356 . S
N1532 H1538 0.984 . S
N1532 H1539 0.984 . S
N1533 C1526 1.356 1_556 S
N1533 H1536 0.984 . S
N1533 H1537 0.985 . S
H1534 N1529 0.984 . S
H1535 N1529 0.985 . S
H1536 N1533 0.984 . S
H1537 N1533 0.985 . S
H1538 N1532 0.984 . S
H1539 N1532 0.984 . S
H1540 N1528 0.984 . S
H1541 N1528 0.985 . S
C1542 C1543 1.363 . S
C1542 C1548 1.379 . S
C1542 N1550 1.356 . S
C1543 C1542 1.363 . S
C1543 C1549 1.363 . S
C1544 C1545 1.363 . S
C1544 C1549 1.379 . S
C1544 N1551 1.356 . S
C1545 C1544 1.363 . S
C1545 C1548 1.363 . S
N1546 C1548 1.356 . S
N1546 H1558 0.984 . S
N1546 H1559 0.985 . S
N1547 C1549 1.356 . S
N1547 H1552 0.984 . S
N1547 H1553 0.985 . S
C1548 C1542 1.379 . S
C1548 C1545 1.363 . S
C1548 N1546 1.356 . S
C1549 C1543 1.363 . S
C1549 C1544 1.379 . S
C1549 N1547 1.356 . S
N1550 C1542 1.356 . S
N1550 H1556 0.984 . S
N1550 H1557 0.984 . S
N1551 C1544 1.356 . S
N1551 H1554 0.984 . S
N1551 H1555 0.985 . S
H1552 N1547 0.984 . S
H1553 N1547 0.985 . S
H1554 N1551 0.984 . S
H1555 N1551 0.985 . S
H1556 N1550 0.984 . S
H1557 N1550 0.984 . S
H1558 N1546 0.984 . S
H1559 N1546 0.985 . S
C1560 C1561 1.363 . S
C1560 C1566 1.379 . S
C1560 N1568 1.356 . S
C1561 C1560 1.363 . S
C1561 C1567 1.363 . S
C1562 C1563 1.363 . S
C1562 C1567 1.379 . S
C1562 N1569 1.356 . S
C1563 C1562 1.363 . S
C1563 C1566 1.363 . S
N1564 C1566 1.356 . S
N1564 H1576 0.984 . S
N1564 H1577 0.985 . S
N1565 C1567 1.356 . S
N1565 H1570 0.984 . S
N1565 H1571 0.985 . S
C1566 C1560 1.379 . S
C1566 C1563 1.363 . S
C1566 N1564 1.356 . S
C1567 C1561 1.363 . S
C1567 C1562 1.379 . S
C1567 N1565 1.356 . S
N1568 C1560 1.356 . S
N1568 H1574 0.984 . S
N1568 H1575 0.984 . S
N1569 C1562 1.356 . S
N1569 H1572 0.984 . S
N1569 H1573 0.985 . S
H1570 N1565 0.984 . S
H1571 N1565 0.985 . S
H1572 N1569 0.984 . S
H1573 N1569 0.985 . S
H1574 N1568 0.984 . S
H1575 N1568 0.984 . S
H1576 N1564 0.984 . S
H1577 N1564 0.985 . S
C1578 C1579 1.363 . S
C1578 C1584 1.379 . S
C1578 N1586 1.356 . S
C1579 C1578 1.363 . S
C1579 C1585 1.363 . S
C1580 C1581 1.363 . S
C1580 C1585 1.379 . S
C1580 N1587 1.356 . S
C1581 C1580 1.363 . S
C1581 C1584 1.363 . S
N1582 C1584 1.356 . S
N1582 H1594 0.984 . S
N1582 H1595 0.985 . S
N1583 C1585 1.356 1_565 S
N1583 H1588 0.984 . S
N1583 H1589 0.985 . S
C1584 C1578 1.379 . S
C1584 C1581 1.363 . S
C1584 N1582 1.356 . S
C1585 C1579 1.363 . S
C1585 C1580 1.379 . S
C1585 N1583 1.356 1_545 S
N1586 C1578 1.356 . S
N1586 H1592 0.984 . S
N1586 H1593 0.984 . S
N1587 C1580 1.356 . S
N1587 H1590 0.984 . S
N1587 H1591 0.985 . S
H1588 N1583 0.984 . S
H1589 N1583 0.985 . S
H1590 N1587 0.984 . S
H1591 N1587 0.985 . S
H1592 N1586 0.984 . S
H1593 N1586 0.984 . S
H1594 N1582 0.984 . S
H1595 N1582 0.985 . S
C1596 C1597 1.363 . S
C1596 C1602 1.379 . S
C1596 N1604 1.356 . S
C1597 C1596 1.363 . S
C1597 C1603 1.363 . S
C1598 C1599 1.363 . S
C1598 C1603 1.379 . S
C1598 N1605 1.356 1_565 S
C1599 C1598 1.363 . S
C1599 C1602 1.363 . S
N1600 C1602 1.356 . S
N1600 H1612 0.984 . S
N1600 H1613 0.985 . S
N1601 C1603 1.356 . S
N1601 H1606 0.984 . S
N1601 H1607 0.985 . S
C1602 C1596 1.379 . S
C1602 C1599 1.363 . S
C1602 N1600 1.356 . S
C1603 C1597 1.363 . S
C1603 C1598 1.379 . S
C1603 N1601 1.356 . S
N1604 C1596 1.356 . S
N1604 H1610 0.984 . S
N1604 H1611 0.984 . S
N1605 C1598 1.356 1_545 S
N1605 H1608 0.984 . S
N1605 H1609 0.985 . S
H1606 N1601 0.984 . S
H1607 N1601 0.985 . S
H1608 N1605 0.984 . S
H1609 N1605 0.985 . S
H1610 N1604 0.984 . S
H1611 N1604 0.984 . S
H1612 N1600 0.984 . S
H1613 N1600 0.985 . S
C1614 C1615 1.363 . S
C1614 C1620 1.379 . S
C1614 N1622 1.356 . S
C1615 C1614 1.363 . S
C1615 C1621 1.363 . S
C1616 C1617 1.363 . S
C1616 C1621 1.379 . S
C1616 N1623 1.356 . S
C1617 C1616 1.363 . S
C1617 C1620 1.363 . S
N1618 C1620 1.356 . S
N1618 H1630 0.984 . S
N1618 H1631 0.985 . S
N1619 C1621 1.356 . S
N1619 H1624 0.984 . S
N1619 H1625 0.985 . S
C1620 C1614 1.379 . S
C1620 C1617 1.363 . S
C1620 N1618 1.356 . S
C1621 C1615 1.363 . S
C1621 C1616 1.379 . S
C1621 N1619 1.356 . S
N1622 C1614 1.356 . S
N1622 H1628 0.984 . S
N1622 H1629 0.984 . S
N1623 C1616 1.356 . S
N1623 H1626 0.984 . S
N1623 H1627 0.985 . S
H1624 N1619 0.984 . S
H1625 N1619 0.985 . S
H1626 N1623 0.984 . S
H1627 N1623 0.985 . S
H1628 N1622 0.984 . S
H1629 N1622 0.984 . S
H1630 N1618 0.984 . S
H1631 N1618 0.985 . S
C1632 C1633 1.363 . S
C1632 C1638 1.379 . S
C1632 N1640 1.356 . S
C1633 C1632 1.363 . S
C1633 C1639 1.363 . S
C1634 C1635 1.363 . S
C1634 C1639 1.379 . S
C1634 N1641 1.356 . S
C1635 C1634 1.363 . S
C1635 C1638 1.363 . S
N1636 C1638 1.356 . S
N1636 H1648 0.984 . S
N1636 H1649 0.985 . S
N1637 C1639 1.356 . S
N1637 H1642 0.984 . S
N1637 H1643 0.985 . S
C1638 C1632 1.379 . S
C1638 C1635 1.363 . S
C1638 N1636 1.356 . S
C1639 C1633 1.363 . S
C1639 C1634 1.379 . S
C1639 N1637 1.356 . S
N1640 C1632 1.356 . S
N1640 H1646 0.984 . S
N1640 H1647 0.984 . S
N1641 C1634 1.356 . S
N1641 H1644 0.984 . S
N1641 H1645 0.985 . S
H1642 N1637 0.984 . S
H1643 N1637 0.985 . S
H1644 N1641 0.984 . S
H1645 N1641 0.985 . S
H1646 N1640 0.984 . S
H1647 N1640 0.984 . S
H1648 N1636 0.984 . S
H1649 N1636 0.985 . S
C1650 C1651 1.363 . S
C1650 C1656 1.379 1_565 S
C1650 N1658 1.356 . S
C1651 C1650 1.363 . S
C1651 C1657 1.363 1_565 S
C1652 C1653 1.363 . S
C1652 C1657 1.379 . S
C1652 N1659 1.356 . S
C1653 C1652 1.363 . S
C1653 C1656 1.363 . S
N1654 C1656 1.356 . S
N1654 H1666 0.984 1_545 S
N1654 H1667 0.985 . S
N1655 C1657 1.356 . S
N1655 H1660 0.984 1_545 S
N1655 H1661 0.985 . S
C1656 C1650 1.379 1_545 S
C1656 C1653 1.363 . S
C1656 N1654 1.356 . S
C1657 C1651 1.363 1_545 S
C1657 C1652 1.379 . S
C1657 N1655 1.356 . S
N1658 C1650 1.356 . S
N1658 H1664 0.984 . S
N1658 H1665 0.984 . S
N1659 C1652 1.356 . S
N1659 H1662 0.984 . S
N1659 H1663 0.985 . S
H1660 N1655 0.984 1_565 S
H1661 N1655 0.985 . S
H1662 N1659 0.984 . S
H1663 N1659 0.985 . S
H1664 N1658 0.984 . S
H1665 N1658 0.984 . S
H1666 N1654 0.984 1_565 S
H1667 N1654 0.985 . S
C1668 C1669 1.363 . S
C1668 C1674 1.379 1_556 S
C1668 N1676 1.356 . S
C1669 C1668 1.363 . S
C1669 C1675 1.363 . S
C1670 C1671 1.363 1_556 S
C1670 C1675 1.379 . S
C1670 N1677 1.356 . S
C1671 C1670 1.363 1_554 S
C1671 C1674 1.363 . S
N1672 C1674 1.356 . S
N1672 H1684 0.984 . S
N1672 H1685 0.985 . S
N1673 C1675 1.356 . S
N1673 H1678 0.984 . S
N1673 H1679 0.985 . S
C1674 C1668 1.379 1_554 S
C1674 C1671 1.363 . S
C1674 N1672 1.356 . S
C1675 C1669 1.363 . S
C1675 C1670 1.379 . S
C1675 N1673 1.356 . S
N1676 C1668 1.356 . S
N1676 H1682 0.984 1_556 S
N1676 H1683 0.984 . S
N1677 C1670 1.356 . S
N1677 H1680 0.984 1_556 S
N1677 H1681 0.985 . S
H1678 N1673 0.984 . S
H1679 N1673 0.985 . S
H1680 N1677 0.984 1_554 S
H1681 N1677 0.985 . S
H1682 N1676 0.984 1_554 S
H1683 N1676 0.984 . S
H1684 N1672 0.984 . S
H1685 N1672 0.985 . S
C1686 C1687 1.363 1_565 S
C1686 C1692 1.379 . S
C1686 N1694 1.356 . S
C1687 C1686 1.363 1_545 S
C1687 C1693 1.363 . S
C1688 C1689 1.363 . S
C1688 C1693 1.379 1_565 S
C1688 N1695 1.356 . S
C1689 C1688 1.363 . S
C1689 C1692 1.363 . S
N1690 C1692 1.356 . S
N1690 H1702 0.984 . S
N1690 H1703 0.985 . S
N1691 C1693 1.356 . S
N1691 H1696 0.984 . S
N1691 H1697 0.985 . S
C1692 C1686 1.379 . S
C1692 C1689 1.363 . S
C1692 N1690 1.356 . S
C1693 C1687 1.363 . S
C1693 C1688 1.379 1_545 S
C1693 N1691 1.356 . S
N1694 C1686 1.356 . S
N1694 H1700 0.984 . S
N1694 H1701 0.984 1_565 S
N1695 C1688 1.356 . S
N1695 H1698 0.984 . S
N1695 H1699 0.985 1_565 S
H1696 N1691 0.984 . S
H1697 N1691 0.985 . S
H1698 N1695 0.984 . S
H1699 N1695 0.985 1_545 S
H1700 N1694 0.984 . S
H1701 N1694 0.984 1_545 S
H1702 N1690 0.984 . S
H1703 N1690 0.985 . S
C1704 C1705 1.363 . S
C1704 C1710 1.379 . S
C1704 N1712 1.356 . S
C1705 C1704 1.363 . S
C1705 C1711 1.363 . S
C1706 C1707 1.363 . S
C1706 C1711 1.379 . S
C1706 N1713 1.356 . S
C1707 C1706 1.363 . S
C1707 C1710 1.363 . S
N1708 C1710 1.356 . S
N1708 H1720 0.984 . S
N1708 H1721 0.985 . S
N1709 C1711 1.356 . S
N1709 H1714 0.984 . S
N1709 H1715 0.985 . S
C1710 C1704 1.379 . S
C1710 C1707 1.363 . S
C1710 N1708 1.356 . S
C1711 C1705 1.363 . S
C1711 C1706 1.379 . S
C1711 N1709 1.356 . S
N1712 C1704 1.356 . S
N1712 H1718 0.984 . S
N1712 H1719 0.984 . S
N1713 C1706 1.356 . S
N1713 H1716 0.984 . S
N1713 H1717 0.985 . S
H1714 N1709 0.984 . S
H1715 N1709 0.985 . S
H1716 N1713 0.984 . S
H1717 N1713 0.985 . S
H1718 N1712 0.984 . S
H1719 N1712 0.984 . S
H1720 N1708 0.984 . S
H1721 N1708 0.985 . S
C1722 C1723 1.363 . S
C1722 C1728 1.379 . S
C1722 N1730 1.356 . S
C1723 C1722 1.363 . S
C1723 C1729 1.363 . S
C1724 C1725 1.363 . S
C1724 C1729 1.379 . S
C1724 N1731 1.356 . S
C1725 C1724 1.363 . S
C1725 C1728 1.363 . S
N1726 C1728 1.356 . S
N1726 H1738 0.984 . S
N1726 H1739 0.985 . S
N1727 C1729 1.356 . S
N1727 H1732 0.984 . S
N1727 H1733 0.985 . S
C1728 C1722 1.379 . S
C1728 C1725 1.363 . S
C1728 N1726 1.356 . S
C1729 C1723 1.363 . S
C1729 C1724 1.379 . S
C1729 N1727 1.356 . S
N1730 C1722 1.356 . S
N1730 H1736 0.984 . S
N1730 H1737 0.984 . S
N1731 C1724 1.356 . S
N1731 H1734 0.984 . S
N1731 H1735 0.985 . S
H1732 N1727 0.984 . S
H1733 N1727 0.985 . S
H1734 N1731 0.984 . S
H1735 N1731 0.985 . S
H1736 N1730 0.984 . S
H1737 N1730 0.984 . S
H1738 N1726 0.984 . S
H1739 N1726 0.985 . S
C1740 C1741 1.363 . S
C1740 C1746 1.379 1_556 S
C1740 N1748 1.356 . S
C1741 C1740 1.363 . S
C1741 C1747 1.363 1_556 S
C1742 C1743 1.363 . S
C1742 C1747 1.379 . S
C1742 N1749 1.356 . S
C1743 C1742 1.363 . S
C1743 C1746 1.363 . S
N1744 C1746 1.356 . S
N1744 H1756 0.984 . S
N1744 H1757 0.985 . S
N1745 C1747 1.356 1_556 S
N1745 H1750 0.984 . S
N1745 H1751 0.985 1_556 S
C1746 C1740 1.379 1_554 S
C1746 C1743 1.363 . S
C1746 N1744 1.356 . S
C1747 C1741 1.363 1_554 S
C1747 C1742 1.379 . S
C1747 N1745 1.356 1_554 S
N1748 C1740 1.356 . S
N1748 H1754 0.984 . S
N1748 H1755 0.984 . S
N1749 C1742 1.356 . S
N1749 H1752 0.984 . S
N1749 H1753 0.985 . S
H1750 N1745 0.984 . S
H1751 N1745 0.985 1_554 S
H1752 N1749 0.984 . S
H1753 N1749 0.985 . S
H1754 N1748 0.984 . S
H1755 N1748 0.984 . S
H1756 N1744 0.984 . S
H1757 N1744 0.985 . S
C1758 C1759 1.363 . S
C1758 C1764 1.379 . S
C1758 N1766 1.356 . S
C1759 C1758 1.363 . S
C1759 C1765 1.363 . S
C1760 C1761 1.363 . S
C1760 C1765 1.379 . S
C1760 N1767 1.356 . S
C1761 C1760 1.363 . S
C1761 C1764 1.363 . S
N1762 C1764 1.356 . S
N1762 H1774 0.984 . S
N1762 H1775 0.985 . S
N1763 C1765 1.356 . S
N1763 H1768 0.984 . S
N1763 H1769 0.985 . S
C1764 C1758 1.379 . S
C1764 C1761 1.363 . S
C1764 N1762 1.356 . S
C1765 C1759 1.363 . S
C1765 C1760 1.379 . S
C1765 N1763 1.356 . S
N1766 C1758 1.356 . S
N1766 H1772 0.984 . S
N1766 H1773 0.984 . S
N1767 C1760 1.356 . S
N1767 H1770 0.984 . S
N1767 H1771 0.985 . S
H1768 N1763 0.984 . S
H1769 N1763 0.985 . S
H1770 N1767 0.984 . S
H1771 N1767 0.985 . S
H1772 N1766 0.984 . S
H1773 N1766 0.984 . S
H1774 N1762 0.984 . S
H1775 N1762 0.985 . S
C1776 C1777 1.363 . S
C1776 C1782 1.379 . S
C1776 N1784 1.356 . S
C1777 C1776 1.363 . S
C1777 C1783 1.363 . S
C1778 C1779 1.363 . S
C1778 C1783 1.379 . S
C1778 N1785 1.356 . S
C1779 C1778 1.363 . S
C1779 C1782 1.363 . S
N1780 C1782 1.356 . S
N1780 H1792 0.984 . S
N1780 H1793 0.985 . S
N1781 C1783 1.356 . S
N1781 H1786 0.984 . S
N1781 H1787 0.985 . S
C1782 C1776 1.379 . S
C1782 C1779 1.363 . S
C1782 N1780 1.356 . S
C1783 C1777 1.363 . S
C1783 C1778 1.379 . S
C1783 N1781 1.356 . S
N1784 C1776 1.356 . S
N1784 H1790 0.984 . S
N1784 H1791 0.984 . S
N1785 C1778 1.356 . S
N1785 H1788 0.984 . S
N1785 H1789 0.985 . S
H1786 N1781 0.984 . S
H1787 N1781 0.985 . S
H1788 N1785 0.984 . S
H1789 N1785 0.985 . S
H1790 N1784 0.984 . S
H1791 N1784 0.984 . S
H1792 N1780 0.984 . S
H1793 N1780 0.985 . S
C1794 C1795 1.363 . S
C1794 C1800 1.379 1_455 S
C1794 N1802 1.356 . S
C1795 C1794 1.363 . S
C1795 C1801 1.363 1_455 S
C1796 C1797 1.363 . S
C1796 C1801 1.379 . S
C1796 N1803 1.356 . S
C1797 C1796 1.363 . S
C1797 C1800 1.363 . S
N1798 C1800 1.356 . S
N1798 H1810 0.984 . S
N1798 H1811 0.985 . S
N1799 C1801 1.356 . S
N1799 H1804 0.984 1_655 S
N1799 H1805 0.985 . S
C1800 C1794 1.379 1_655 S
C1800 C1797 1.363 . S
C1800 N1798 1.356 . S
C1801 C1795 1.363 1_655 S
C1801 C1796 1.379 . S
C1801 N1799 1.356 . S
N1802 C1794 1.356 . S
N1802 H1808 0.984 . S
N1802 H1809 0.984 . S
N1803 C1796 1.356 . S
N1803 H1806 0.984 . S
N1803 H1807 0.985 . S
H1804 N1799 0.984 1_455 S
H1805 N1799 0.985 . S
H1806 N1803 0.984 . S
H1807 N1803 0.985 . S
H1808 N1802 0.984 . S
H1809 N1802 0.984 . S
H1810 N1798 0.984 . S
H1811 N1798 0.985 . S
C1812 C1813 1.363 . S
C1812 C1818 1.379 1_655 S
C1812 N1820 1.356 . S
C1813 C1812 1.363 . S
C1813 C1819 1.363 1_655 S
C1814 C1815 1.363 . S
C1814 C1819 1.379 . S
C1814 N1821 1.356 . S
C1815 C1814 1.363 . S
C1815 C1818 1.363 . S
N1816 C1818 1.356 . S
N1816 H1828 0.984 1_455 S
N1816 H1829 0.985 . S
N1817 C1819 1.356 . S
N1817 H1822 0.984 1_455 S
N1817 H1823 0.985 . S
C1818 C1812 1.379 1_455 S
C1818 C1815 1.363 . S
C1818 N1816 1.356 . S
C1819 C1813 1.363 1_455 S
C1819 C1814 1.379 . S
C1819 N1817 1.356 . S
N1820 C1812 1.356 . S
N1820 H1826 0.984 . S
N1820 H1827 0.984 . S
N1821 C1814 1.356 . S
N1821 H1824 0.984 . S
N1821 H1825 0.985 . S
H1822 N1817 0.984 1_655 S
H1823 N1817 0.985 . S
H1824 N1821 0.984 . S
H1825 N1821 0.985 . S
H1826 N1820 0.984 . S
H1827 N1820 0.984 . S
H1828 N1816 0.984 1_655 S
H1829 N1816 0.985 . S
C1830 C1831 1.363 . S
C1830 C1836 1.379 . S
C1830 N1838 1.356 . S
C1831 C1830 1.363 . S
C1831 C1837 1.363 . S
C1832 C1833 1.363 . S
C1832 C1837 1.379 . S
C1832 N1839 1.356 . S
C1833 C1832 1.363 . S
C1833 C1836 1.363 . S
N1834 C1836 1.356 . S
N1834 H1846 0.984 . S
N1834 H1847 0.985 . S
N1835 C1837 1.356 . S
N1835 H1840 0.984 . S
N1835 H1841 0.985 . S
C1836 C1830 1.379 . S
C1836 C1833 1.363 . S
C1836 N1834 1.356 . S
C1837 C1831 1.363 . S
C1837 C1832 1.379 . S
C1837 N1835 1.356 . S
N1838 C1830 1.356 . S
N1838 H1844 0.984 . S
N1838 H1845 0.984 . S
N1839 C1832 1.356 . S
N1839 H1842 0.984 . S
N1839 H1843 0.985 . S
H1840 N1835 0.984 . S
H1841 N1835 0.985 . S
H1842 N1839 0.984 . S
H1843 N1839 0.985 . S
H1844 N1838 0.984 . S
H1845 N1838 0.984 . S
H1846 N1834 0.984 . S
H1847 N1834 0.985 . S
C1848 C1849 1.363 . S
C1848 C1854 1.379 . S
C1848 N1856 1.356 . S
C1849 C1848 1.363 . S
C1849 C1855 1.363 . S
C1850 C1851 1.363 . S
C1850 C1855 1.379 . S
C1850 N1857 1.356 . S
C1851 C1850 1.363 . S
C1851 C1854 1.363 . S
N1852 C1854 1.356 . S
N1852 H1864 0.984 . S
N1852 H1865 0.985 . S
N1853 C1855 1.356 . S
N1853 H1858 0.984 . S
N1853 H1859 0.985 . S
C1854 C1848 1.379 . S
C1854 C1851 1.363 . S
C1854 N1852 1.356 . S
C1855 C1849 1.363 . S
C1855 C1850 1.379 . S
C1855 N1853 1.356 . S
N1856 C1848 1.356 . S
N1856 H1862 0.984 . S
N1856 H1863 0.984 . S
N1857 C1850 1.356 . S
N1857 H1860 0.984 . S
N1857 H1861 0.985 . S
H1858 N1853 0.984 . S
H1859 N1853 0.985 . S
H1860 N1857 0.984 . S
H1861 N1857 0.985 . S
H1862 N1856 0.984 . S
H1863 N1856 0.984 . S
H1864 N1852 0.984 . S
H1865 N1852 0.985 . S
C1866 C1867 1.363 . S
C1866 C1872 1.379 . S
C1866 N1874 1.356 1_565 S
C1867 C1866 1.363 . S
C1867 C1873 1.363 . S
C1868 C1869 1.363 . S
C1868 C1873 1.379 . S
C1868 N1875 1.356 . S
C1869 C1868 1.363 . S
C1869 C1872 1.363 . S
N1870 C1872 1.356 . S
N1870 H1882 0.984 . S
N1870 H1883 0.985 . S
N1871 C1873 1.356 . S
N1871 H1876 0.984 . S
N1871 H1877 0.985 . S
C1872 C1866 1.379 . S
C1872 C1869 1.363 . S
C1872 N1870 1.356 . S
C1873 C1867 1.363 . S
C1873 C1868 1.379 . S
C1873 N1871 1.356 . S
N1874 C1866 1.356 1_545 S
N1874 H1880 0.984 . S
N1874 H1881 0.984 . S
N1875 C1868 1.356 . S
N1875 H1878 0.984 . S
N1875 H1879 0.985 . S
H1876 N1871 0.984 . S
H1877 N1871 0.985 . S
H1878 N1875 0.984 . S
H1879 N1875 0.985 . S
H1880 N1874 0.984 . S
H1881 N1874 0.984 . S
H1882 N1870 0.984 . S
H1883 N1870 0.985 . S
C1884 C1885 1.363 . S
C1884 C1890 1.379 . S
C1884 N1892 1.356 . S
C1885 C1884 1.363 . S
C1885 C1891 1.363 . S
C1886 C1887 1.363 . S
C1886 C1891 1.379 . S
C1886 N1893 1.356 . S
C1887 C1886 1.363 . S
C1887 C1890 1.363 . S
N1888 C1890 1.356 . S
N1888 H1900 0.984 . S
N1888 H1901 0.985 . S
N1889 C1891 1.356 . S
N1889 H1894 0.984 . S
N1889 H1895 0.985 . S
C1890 C1884 1.379 . S
C1890 C1887 1.363 . S
C1890 N1888 1.356 . S
C1891 C1885 1.363 . S
C1891 C1886 1.379 . S
C1891 N1889 1.356 . S
N1892 C1884 1.356 . S
N1892 H1898 0.984 . S
N1892 H1899 0.984 . S
N1893 C1886 1.356 . S
N1893 H1896 0.984 . S
N1893 H1897 0.985 . S
H1894 N1889 0.984 . S
H1895 N1889 0.985 . S
H1896 N1893 0.984 . S
H1897 N1893 0.985 . S
H1898 N1892 0.984 . S
H1899 N1892 0.984 . S
H1900 N1888 0.984 . S
H1901 N1888 0.985 . S
C1902 C1903 1.363 . S
C1902 C1908 1.379 . S
C1902 N1910 1.356 . S
C1903 C1902 1.363 . S
C1903 C1909 1.363 . S
C1904 C1905 1.363 1_554 S
C1904 C1909 1.379 . S
C1904 N1911 1.356 1_554 S
C1905 C1904 1.363 1_556 S
C1905 C1908 1.363 1_556 S
N1906 C1908 1.356 1_565 S
N1906 H1918 0.984 . S
N1906 H1919 0.985 1_554 S
N1907 C1909 1.356 . S
N1907 H1912 0.984 . S
N1907 H1913 0.985 . S
C1908 C1902 1.379 . S
C1908 C1905 1.363 1_554 S
C1908 N1906 1.356 1_545 S
C1909 C1903 1.363 . S
C1909 C1904 1.379 . S
C1909 N1907 1.356 . S
N1910 C1902 1.356 . S
N1910 H1916 0.984 1_545 S
N1910 H1917 0.984 . S
N1911 C1904 1.356 1_556 S
N1911 H1914 0.984 . S
N1911 H1915 0.985 . S
H1912 N1907 0.984 . S
H1913 N1907 0.985 . S
H1914 N1911 0.984 . S
H1915 N1911 0.985 . S
H1916 N1910 0.984 1_565 S
H1917 N1910 0.984 . S
H1918 N1906 0.984 . S
H1919 N1906 0.985 1_556 S
C1920 C1921 1.363 . S
C1920 C1926 1.379 . S
C1920 N1928 1.356 . S
C1921 C1920 1.363 . S
C1921 C1927 1.363 . S
C1922 C1923 1.363 . S
C1922 C1927 1.379 . S
C1922 N1929 1.356 . S
C1923 C1922 1.363 . S
C1923 C1926 1.363 . S
N1924 C1926 1.356 . S
N1924 H1936 0.984 . S
N1924 H1937 0.985 . S
N1925 C1927 1.356 . S
N1925 H1930 0.984 . S
N1925 H1931 0.985 . S
C1926 C1920 1.379 . S
C1926 C1923 1.363 . S
C1926 N1924 1.356 . S
C1927 C1921 1.363 . S
C1927 C1922 1.379 . S
C1927 N1925 1.356 . S
N1928 C1920 1.356 . S
N1928 H1934 0.984 . S
N1928 H1935 0.984 . S
N1929 C1922 1.356 . S
N1929 H1932 0.984 . S
N1929 H1933 0.985 . S
H1930 N1925 0.984 . S
H1931 N1925 0.985 . S
H1932 N1929 0.984 . S
H1933 N1929 0.985 . S
H1934 N1928 0.984 . S
H1935 N1928 0.984 . S
H1936 N1924 0.984 . S
H1937 N1924 0.985 . S
C1938 C1939 1.363 1_556 S
C1938 C1944 1.379 . S
C1938 N1946 1.356 1_556 S
C1939 C1938 1.363 1_554 S
C1939 C1945 1.363 1_554 S
C1940 C1941 1.363 . S
C1940 C1945 1.379 . S
C1940 N1947 1.356 . S
C1941 C1940 1.363 . S
C1941 C1944 1.363 . S
N1942 C1944 1.356 . S
N1942 H1954 0.984 . S
N1942 H1955 0.985 . S
N1943 C1945 1.356 . S
N1943 H1948 0.984 1_556 S
N1943 H1949 0.985 . S
C1944 C1938 1.379 . S
C1944 C1941 1.363 . S
C1944 N1942 1.356 . S
C1945 C1939 1.363 1_556 S
C1945 C1940 1.379 . S
C1945 N1943 1.356 . S
N1946 C1938 1.356 1_554 S
N1946 H1952 0.984 . S
N1946 H1953 0.984 . S
N1947 C1940 1.356 . S
N1947 H1950 0.984 . S
N1947 H1951 0.985 . S
H1948 N1943 0.984 1_554 S
H1949 N1943 0.985 . S
H1950 N1947 0.984 . S
H1951 N1947 0.985 . S
H1952 N1946 0.984 . S
H1953 N1946 0.984 . S
H1954 N1942 0.984 . S
H1955 N1942 0.985 . S
C1956 C1957 1.363 . S
C1956 C1962 1.379 . S
C1956 N1964 1.356 . S
C1957 C1956 1.363 . S
C1957 C1963 1.363 . S
C1958 C1959 1.363 . S
C1958 C1963 1.379 . S
C1958 N1965 1.356 . S
C1959 C1958 1.363 . S
C1959 C1962 1.363 . S
N1960 C1962 1.356 . S
N1960 H1972 0.984 . S
N1960 H1973 0.985 . S
N1961 C1963 1.356 . S
N1961 H1966 0.984 . S
N1961 H1967 0.985 . S
C1962 C1956 1.379 . S
C1962 C1959 1.363 . S
C1962 N1960 1.356 . S
C1963 C1957 1.363 . S
C1963 C1958 1.379 . S
C1963 N1961 1.356 . S
N1964 C1956 1.356 . S
N1964 H1970 0.984 . S
N1964 H1971 0.984 . S
N1965 C1958 1.356 . S
N1965 H1968 0.984 . S
N1965 H1969 0.985 . S
H1966 N1961 0.984 . S
H1967 N1961 0.985 . S
H1968 N1965 0.984 . S
H1969 N1965 0.985 . S
H1970 N1964 0.984 . S
H1971 N1964 0.984 . S
H1972 N1960 0.984 . S
H1973 N1960 0.985 . S
C1974 C1975 1.363 . S
C1974 C1980 1.379 . S
C1974 N1982 1.356 . S
C1975 C1974 1.363 . S
C1975 C1981 1.363 . S
C1976 C1977 1.363 . S
C1976 C1981 1.379 . S
C1976 N1983 1.356 . S
C1977 C1976 1.363 . S
C1977 C1980 1.363 . S
N1978 C1980 1.356 . S
N1978 H1990 0.984 . S
N1978 H1991 0.985 . S
N1979 C1981 1.356 . S
N1979 H1984 0.984 . S
N1979 H1985 0.985 . S
C1980 C1974 1.379 . S
C1980 C1977 1.363 . S
C1980 N1978 1.356 . S
C1981 C1975 1.363 . S
C1981 C1976 1.379 . S
C1981 N1979 1.356 . S
N1982 C1974 1.356 . S
N1982 H1988 0.984 . S
N1982 H1989 0.984 . S
N1983 C1976 1.356 . S
N1983 H1986 0.984 . S
N1983 H1987 0.985 . S
H1984 N1979 0.984 . S
H1985 N1979 0.985 . S
H1986 N1983 0.984 . S
H1987 N1983 0.985 . S
H1988 N1982 0.984 . S
H1989 N1982 0.984 . S
H1990 N1978 0.984 . S
H1991 N1978 0.985 . S
C1992 C1993 1.363 . S
C1992 C1998 1.379 . S
C1992 N2000 1.356 . S
C1993 C1992 1.363 . S
C1993 C1999 1.363 . S
C1994 C1995 1.363 . S
C1994 C1999 1.379 . S
C1994 N2001 1.356 . S
C1995 C1994 1.363 . S
C1995 C1998 1.363 . S
N1996 C1998 1.356 . S
N1996 H2008 0.984 . S
N1996 H2009 0.985 . S
N1997 C1999 1.356 . S
N1997 H2002 0.984 . S
N1997 H2003 0.985 . S
C1998 C1992 1.379 . S
C1998 C1995 1.363 . S
C1998 N1996 1.356 . S
C1999 C1993 1.363 . S
C1999 C1994 1.379 . S
C1999 N1997 1.356 . S
N2000 C1992 1.356 . S
N2000 H2006 0.984 . S
N2000 H2007 0.984 . S
N2001 C1994 1.356 . S
N2001 H2004 0.984 . S
N2001 H2005 0.985 . S
H2002 N1997 0.984 . S
H2003 N1997 0.985 . S
H2004 N2001 0.984 . S
H2005 N2001 0.985 . S
H2006 N2000 0.984 . S
H2007 N2000 0.984 . S
H2008 N1996 0.984 . S
H2009 N1996 0.985 . S
C2010 C2011 1.363 1_545 S
C2010 C2016 1.379 . S
C2010 N2018 1.356 1_545 S
C2011 C2010 1.363 1_565 S
C2011 C2017 1.363 1_565 S
C2012 C2013 1.363 . S
C2012 C2017 1.379 . S
C2012 N2019 1.356 . S
C2013 C2012 1.363 . S
C2013 C2016 1.363 . S
N2014 C2016 1.356 . S
N2014 H2026 0.984 . S
N2014 H2027 0.985 . S
N2015 C2017 1.356 1_655 S
N2015 H2020 0.984 1_545 S
N2015 H2021 0.985 . S
C2016 C2010 1.379 . S
C2016 C2013 1.363 . S
C2016 N2014 1.356 . S
C2017 C2011 1.363 1_545 S
C2017 C2012 1.379 . S
C2017 N2015 1.356 1_455 S
N2018 C2010 1.356 1_565 S
N2018 H2024 0.984 . S
N2018 H2025 0.984 . S
N2019 C2012 1.356 . S
N2019 H2022 0.984 . S
N2019 H2023 0.985 . S
H2020 N2015 0.984 1_565 S
H2021 N2015 0.985 . S
H2022 N2019 0.984 . S
H2023 N2019 0.985 . S
H2024 N2018 0.984 . S
H2025 N2018 0.984 . S
H2026 N2014 0.984 . S
H2027 N2014 0.985 . S
C2028 C2029 1.363 . S
C2028 C2034 1.379 . S
C2028 N2036 1.356 . S
C2029 C2028 1.363 . S
C2029 C2035 1.363 . S
C2030 C2031 1.363 . S
C2030 C2035 1.379 . S
C2030 N2037 1.356 . S
C2031 C2030 1.363 . S
C2031 C2034 1.363 . S
N2032 C2034 1.356 . S
N2032 H2044 0.984 . S
N2032 H2045 0.985 . S
N2033 C2035 1.356 . S
N2033 H2038 0.984 . S
N2033 H2039 0.985 . S
C2034 C2028 1.379 . S
C2034 C2031 1.363 . S
C2034 N2032 1.356 . S
C2035 C2029 1.363 . S
C2035 C2030 1.379 . S
C2035 N2033 1.356 . S
N2036 C2028 1.356 . S
N2036 H2042 0.984 . S
N2036 H2043 0.984 . S
N2037 C2030 1.356 . S
N2037 H2040 0.984 . S
N2037 H2041 0.985 . S
H2038 N2033 0.984 . S
H2039 N2033 0.985 . S
H2040 N2037 0.984 . S
H2041 N2037 0.985 . S
H2042 N2036 0.984 . S
H2043 N2036 0.984 . S
H2044 N2032 0.984 . S
H2045 N2032 0.985 . S
C2046 C2047 1.363 1_565 S
C2046 C2052 1.379 . S
C2046 N2054 1.356 1_565 S
C2047 C2046 1.363 1_545 S
C2047 C2053 1.363 1_545 S
C2048 C2049 1.363 . S
C2048 C2053 1.379 . S
C2048 N2055 1.356 . S
C2049 C2048 1.363 . S
C2049 C2052 1.363 . S
N2050 C2052 1.356 . S
N2050 H2062 0.984 . S
N2050 H2063 0.985 . S
N2051 C2053 1.356 . S
N2051 H2056 0.984 1_565 S
N2051 H2057 0.985 . S
C2052 C2046 1.379 . S
C2052 C2049 1.363 . S
C2052 N2050 1.356 . S
C2053 C2047 1.363 1_565 S
C2053 C2048 1.379 . S
C2053 N2051 1.356 . S
N2054 C2046 1.356 1_545 S
N2054 H2060 0.984 . S
N2054 H2061 0.984 . S
N2055 C2048 1.356 . S
N2055 H2058 0.984 . S
N2055 H2059 0.985 . S
H2056 N2051 0.984 1_545 S
H2057 N2051 0.985 . S
H2058 N2055 0.984 . S
H2059 N2055 0.985 . S
H2060 N2054 0.984 . S
H2061 N2054 0.984 . S
H2062 N2050 0.984 . S
H2063 N2050 0.985 . S
C2064 C2065 1.363 . S
C2064 C2070 1.379 . S
C2064 N2072 1.356 . S
C2065 C2064 1.363 . S
C2065 C2071 1.363 . S
C2066 C2067 1.363 . S
C2066 C2071 1.379 . S
C2066 N2073 1.356 . S
C2067 C2066 1.363 . S
C2067 C2070 1.363 . S
N2068 C2070 1.356 . S
N2068 H2080 0.984 . S
N2068 H2081 0.985 . S
N2069 C2071 1.356 . S
N2069 H2074 0.984 . S
N2069 H2075 0.985 . S
C2070 C2064 1.379 . S
C2070 C2067 1.363 . S
C2070 N2068 1.356 . S
C2071 C2065 1.363 . S
C2071 C2066 1.379 . S
C2071 N2069 1.356 . S
N2072 C2064 1.356 . S
N2072 H2078 0.984 . S
N2072 H2079 0.984 . S
N2073 C2066 1.356 . S
N2073 H2076 0.984 . S
N2073 H2077 0.985 . S
H2074 N2069 0.984 . S
H2075 N2069 0.985 . S
H2076 N2073 0.984 . S
H2077 N2073 0.985 . S
H2078 N2072 0.984 . S
H2079 N2072 0.984 . S
H2080 N2068 0.984 . S
H2081 N2068 0.985 . S
C2082 C2083 1.363 . S
C2082 C2088 1.379 . S
C2082 N2090 1.356 1_655 S
C2083 C2082 1.363 . S
C2083 C2089 1.363 . S
C2084 C2085 1.363 . S
C2084 C2089 1.379 . S
C2084 N2091 1.356 . S
C2085 C2084 1.363 . S
C2085 C2088 1.363 . S
N2086 C2088 1.356 . S
N2086 H2098 0.984 . S
N2086 H2099 0.985 . S
N2087 C2089 1.356 . S
N2087 H2092 0.984 . S
N2087 H2093 0.985 . S
C2088 C2082 1.379 . S
C2088 C2085 1.363 . S
C2088 N2086 1.356 . S
C2089 C2083 1.363 . S
C2089 C2084 1.379 . S
C2089 N2087 1.356 . S
N2090 C2082 1.356 1_455 S
N2090 H2096 0.984 . S
N2090 H2097 0.984 . S
N2091 C2084 1.356 . S
N2091 H2094 0.984 . S
N2091 H2095 0.985 . S
H2092 N2087 0.984 . S
H2093 N2087 0.985 . S
H2094 N2091 0.984 . S
H2095 N2091 0.985 . S
H2096 N2090 0.984 . S
H2097 N2090 0.984 . S
H2098 N2086 0.984 . S
H2099 N2086 0.985 . S
C2100 C2101 1.363 . S
C2100 C2106 1.379 . S
C2100 N2108 1.356 . S
C2101 C2100 1.363 . S
C2101 C2107 1.363 . S
C2102 C2103 1.363 . S
C2102 C2107 1.379 . S
C2102 N2109 1.356 . S
C2103 C2102 1.363 . S
C2103 C2106 1.363 . S
N2104 C2106 1.356 . S
N2104 H2116 0.984 . S
N2104 H2117 0.985 . S
N2105 C2107 1.356 . S
N2105 H2110 0.984 . S
N2105 H2111 0.985 . S
C2106 C2100 1.379 . S
C2106 C2103 1.363 . S
C2106 N2104 1.356 . S
C2107 C2101 1.363 . S
C2107 C2102 1.379 . S
C2107 N2105 1.356 . S
N2108 C2100 1.356 . S
N2108 H2114 0.984 . S
N2108 H2115 0.984 . S
N2109 C2102 1.356 . S
N2109 H2112 0.984 . S
N2109 H2113 0.985 . S
H2110 N2105 0.984 . S
H2111 N2105 0.985 . S
H2112 N2109 0.984 . S
H2113 N2109 0.985 . S
H2114 N2108 0.984 . S
H2115 N2108 0.984 . S
H2116 N2104 0.984 . S
H2117 N2104 0.985 . S
C2118 C2119 1.363 . S
C2118 C2124 1.379 . S
C2118 N2126 1.356 . S
C2119 C2118 1.363 . S
C2119 C2125 1.363 . S
C2120 C2121 1.363 . S
C2120 C2125 1.379 . S
C2120 N2127 1.356 . S
C2121 C2120 1.363 . S
C2121 C2124 1.363 . S
N2122 C2124 1.356 . S
N2122 H2134 0.984 . S
N2122 H2135 0.985 . S
N2123 C2125 1.356 . S
N2123 H2128 0.984 . S
N2123 H2129 0.985 . S
C2124 C2118 1.379 . S
C2124 C2121 1.363 . S
C2124 N2122 1.356 . S
C2125 C2119 1.363 . S
C2125 C2120 1.379 . S
C2125 N2123 1.356 . S
N2126 C2118 1.356 . S
N2126 H2132 0.984 . S
N2126 H2133 0.984 . S
N2127 C2120 1.356 . S
N2127 H2130 0.984 . S
N2127 H2131 0.985 . S
H2128 N2123 0.984 . S
H2129 N2123 0.985 . S
H2130 N2127 0.984 . S
H2131 N2127 0.985 . S
H2132 N2126 0.984 . S
H2133 N2126 0.984 . S
H2134 N2122 0.984 . S
H2135 N2122 0.985 . S
C2136 C2137 1.363 . S
C2136 C2142 1.379 . S
C2136 N2144 1.356 . S
C2137 C2136 1.363 . S
C2137 C2143 1.363 . S
C2138 C2139 1.363 . S
C2138 C2143 1.379 . S
C2138 N2145 1.356 . S
C2139 C2138 1.363 . S
C2139 C2142 1.363 . S
N2140 C2142 1.356 . S
N2140 H2152 0.984 . S
N2140 H2153 0.985 . S
N2141 C2143 1.356 . S
N2141 H2146 0.984 . S
N2141 H2147 0.985 . S
C2142 C2136 1.379 . S
C2142 C2139 1.363 . S
C2142 N2140 1.356 . S
C2143 C2137 1.363 . S
C2143 C2138 1.379 . S
C2143 N2141 1.356 . S
N2144 C2136 1.356 . S
N2144 H2150 0.984 . S
N2144 H2151 0.984 . S
N2145 C2138 1.356 . S
N2145 H2148 0.984 . S
N2145 H2149 0.985 . S
H2146 N2141 0.984 . S
H2147 N2141 0.985 . S
H2148 N2145 0.984 . S
H2149 N2145 0.985 . S
H2150 N2144 0.984 . S
H2151 N2144 0.984 . S
H2152 N2140 0.984 . S
H2153 N2140 0.985 . S
C2154 C2155 1.363 . S
C2154 C2160 1.379 . S
C2154 N2162 1.356 . S
C2155 C2154 1.363 . S
C2155 C2161 1.363 . S
C2156 C2157 1.363 . S
C2156 C2161 1.379 . S
C2156 N2163 1.356 . S
C2157 C2156 1.363 . S
C2157 C2160 1.363 . S
N2158 C2160 1.356 . S
N2158 H2170 0.984 . S
N2158 H2171 0.985 . S
N2159 C2161 1.356 . S
N2159 H2164 0.984 . S
N2159 H2165 0.985 . S
C2160 C2154 1.379 . S
C2160 C2157 1.363 . S
C2160 N2158 1.356 . S
C2161 C2155 1.363 . S
C2161 C2156 1.379 . S
C2161 N2159 1.356 . S
N2162 C2154 1.356 . S
N2162 H2168 0.984 . S
N2162 H2169 0.984 . S
N2163 C2156 1.356 . S
N2163 H2166 0.984 . S
N2163 H2167 0.985 . S
H2164 N2159 0.984 . S
H2165 N2159 0.985 . S
H2166 N2163 0.984 . S
H2167 N2163 0.985 . S
H2168 N2162 0.984 . S
H2169 N2162 0.984 . S
H2170 N2158 0.984 . S
H2171 N2158 0.985 . S
C2172 C2173 1.363 1_455 S
C2172 C2178 1.379 . S
C2172 N2180 1.356 1_455 S
C2173 C2172 1.363 1_655 S
C2173 C2179 1.363 1_655 S
C2174 C2175 1.363 . S
C2174 C2179 1.379 . S
C2174 N2181 1.356 . S
C2175 C2174 1.363 . S
C2175 C2178 1.363 . S
N2176 C2178 1.356 . S
N2176 H2188 0.984 . S
N2176 H2189 0.985 . S
N2177 C2179 1.356 1_655 S
N2177 H2182 0.984 . S
N2177 H2183 0.985 . S
C2178 C2172 1.379 . S
C2178 C2175 1.363 . S
C2178 N2176 1.356 . S
C2179 C2173 1.363 1_455 S
C2179 C2174 1.379 . S
C2179 N2177 1.356 1_455 S
N2180 C2172 1.356 1_655 S
N2180 H2186 0.984 1_655 S
N2180 H2187 0.981 1_554 S
N2181 C2174 1.356 . S
N2181 H2184 0.984 . S
N2181 H2185 0.985 . S
H2182 N2177 0.984 . S
H2183 N2177 0.985 . S
H2184 N2181 0.984 . S
H2185 N2181 0.985 . S
H2186 N2180 0.984 1_455 S
H2187 N2180 0.981 1_556 S
H2188 N2176 0.984 . S
H2189 N2176 0.985 . S
C2190 C2191 1.363 . S
C2190 C2196 1.379 . S
C2190 N2198 1.356 . S
C2191 C2190 1.363 . S
C2191 C2197 1.363 . S
C2192 C2193 1.363 . S
C2192 C2197 1.379 . S
C2192 N2199 1.356 . S
C2193 C2192 1.363 . S
C2193 C2196 1.363 . S
N2194 C2196 1.356 . S
N2194 H2206 0.984 . S
N2194 H2207 0.985 . S
N2195 C2197 1.356 . S
N2195 H2200 0.984 . S
N2195 H2201 0.985 . S
C2196 C2190 1.379 . S
C2196 C2193 1.363 . S
C2196 N2194 1.356 . S
C2197 C2191 1.363 . S
C2197 C2192 1.379 . S
C2197 N2195 1.356 . S
N2198 C2190 1.356 . S
N2198 H2204 0.984 . S
N2198 H2205 0.984 . S
N2199 C2192 1.356 . S
N2199 H2202 0.984 . S
N2199 H2203 0.985 . S
H2200 N2195 0.984 . S
H2201 N2195 0.985 . S
H2202 N2199 0.984 . S
H2203 N2199 0.985 . S
H2204 N2198 0.984 . S
H2205 N2198 0.984 . S
H2206 N2194 0.984 . S
H2207 N2194 0.985 . S
C2208 C2209 1.363 . S
C2208 C2214 1.379 . S
C2208 N2216 1.356 . S
C2209 C2208 1.363 . S
C2209 C2215 1.363 . S
C2210 C2211 1.363 . S
C2210 C2215 1.379 . S
C2210 N2217 1.356 . S
C2211 C2210 1.363 . S
C2211 C2214 1.363 . S
N2212 C2214 1.356 . S
N2212 H2224 0.984 . S
N2212 H2225 0.985 . S
N2213 C2215 1.356 . S
N2213 H2218 0.984 . S
N2213 H2219 0.985 . S
C2214 C2208 1.379 . S
C2214 C2211 1.363 . S
C2214 N2212 1.356 . S
C2215 C2209 1.363 . S
C2215 C2210 1.379 . S
C2215 N2213 1.356 . S
N2216 C2208 1.356 . S
N2216 H2222 0.984 . S
N2216 H2223 0.984 . S
N2217 C2210 1.356 . S
N2217 H2220 0.984 . S
N2217 H2221 0.985 . S
H2218 N2213 0.984 . S
H2219 N2213 0.985 . S
H2220 N2217 0.984 . S
H2221 N2217 0.985 . S
H2222 N2216 0.984 . S
H2223 N2216 0.984 . S
H2224 N2212 0.984 . S
H2225 N2212 0.985 . S
C2226 C2227 1.363 . S
C2226 C2232 1.379 . S
C2226 N2234 1.356 . S
C2227 C2226 1.363 . S
C2227 C2233 1.363 . S
C2228 C2229 1.363 . S
C2228 C2233 1.379 . S
C2228 N2235 1.356 . S
C2229 C2228 1.363 . S
C2229 C2232 1.363 . S
N2230 C2232 1.356 . S
N2230 H2242 0.984 . S
N2230 H2243 0.985 . S
N2231 C2233 1.356 . S
N2231 H2236 0.984 . S
N2231 H2237 0.985 . S
C2232 C2226 1.379 . S
C2232 C2229 1.363 . S
C2232 N2230 1.356 . S
C2233 C2227 1.363 . S
C2233 C2228 1.379 . S
C2233 N2231 1.356 . S
N2234 C2226 1.356 . S
N2234 H2240 0.984 . S
N2234 H2241 0.984 . S
N2235 C2228 1.356 . S
N2235 H2238 0.984 . S
N2235 H2239 0.985 . S
H2236 N2231 0.984 . S
H2237 N2231 0.985 . S
H2238 N2235 0.984 . S
H2239 N2235 0.985 . S
H2240 N2234 0.984 . S
H2241 N2234 0.984 . S
H2242 N2230 0.984 . S
H2243 N2230 0.985 . S
C2244 C2245 1.363 . S
C2244 C2250 1.379 . S
C2244 N2252 1.356 1_556 S
C2245 C2244 1.363 . S
C2245 C2251 1.363 . S
C2246 C2247 1.363 . S
C2246 C2251 1.379 . S
C2246 N2253 1.356 . S
C2247 C2246 1.363 . S
C2247 C2250 1.363 . S
N2248 C2250 1.356 . S
N2248 H2260 0.984 . S
N2248 H2261 0.985 . S
N2249 C2251 1.356 . S
N2249 H2254 0.984 . S
N2249 H2255 0.985 . S
C2250 C2244 1.379 . S
C2250 C2247 1.363 . S
C2250 N2248 1.356 . S
C2251 C2245 1.363 . S
C2251 C2246 1.379 . S
C2251 N2249 1.356 . S
N2252 C2244 1.356 1_554 S
N2252 H2258 0.984 . S
N2252 H2259 0.984 . S
N2253 C2246 1.356 . S
N2253 H2256 0.984 . S
N2253 H2257 0.985 . S
H2254 N2249 0.984 . S
H2255 N2249 0.985 . S
H2256 N2253 0.984 . S
H2257 N2253 0.985 . S
H2258 N2252 0.984 . S
H2259 N2252 0.984 . S
H2260 N2248 0.984 . S
H2261 N2248 0.985 . S
C2262 C2263 1.363 . S
C2262 C2268 1.379 . S
C2262 N2270 1.356 . S
C2263 C2262 1.363 . S
C2263 C2269 1.363 . S
C2264 C2265 1.363 1_655 S
C2264 C2269 1.379 . S
C2264 N2271 1.356 1_655 S
C2265 C2264 1.363 1_455 S
C2265 C2268 1.363 1_455 S
N2266 C2268 1.347 1_455 S
N2266 H2278 0.978 1_455 S
N2266 H2279 1.000 . S
N2267 C2269 1.356 . S
N2267 H2272 0.984 . S
N2267 H2273 0.985 . S
C2268 C2262 1.379 . S
C2268 C2265 1.363 1_655 S
C2268 N2266 1.347 1_655 S
C2269 C2263 1.363 . S
C2269 C2264 1.379 . S
C2269 N2267 1.356 . S
N2270 C2262 1.356 . S
N2270 H2276 0.984 . S
N2270 H2277 0.984 . S
N2271 C2264 1.356 1_455 S
N2271 H2274 0.984 . S
N2271 H2275 0.985 . S
H2272 N2267 0.984 . S
H2273 N2267 0.985 . S
H2274 N2271 0.984 . S
H2275 N2271 0.985 . S
H2276 N2270 0.984 . S
H2277 N2270 0.984 . S
H2278 N2266 0.978 1_655 S
H2279 N2266 1.000 . S
C1417 C536 1.341 . S
C1419 C5 1.341 . S
C1435 C64 1.341 1_455 S
C1437 C595 1.341 . S
C1453 C123 1.341 . S
C1455 C654 1.341 1_556 S
C1471 C182 1.341 . S
C1473 C477 1.341 . S
C1489 C241 1.341 . S
C1491 C890 1.341 . S
C1507 C713 1.341 . S
C1509 C300 1.341 1_655 S
C1525 C359 1.341 . S
C1527 C772 1.341 1_554 S
C1543 C831 1.341 . S
C1545 C418 1.341 . S
C1561 C949 1.341 . S
C1563 C1067 1.341 . S
C1579 C1303 1.341 1_545 S
C1581 C1008 1.341 . S
C1597 C1126 1.341 . S
C1599 C1362 1.341 1_565 S
C1615 C1244 1.341 . S
C1617 C1185 1.341 . S
C1633 C1183 2.032 . S
C1635 C3 2.032 . S
C1651 C62 2.032 . S
C1653 C1006 2.032 . S
C1669 C121 2.032 . S
C1671 C1065 2.032 . S
C1687 C180 2.032 . S
C1689 C1124 2.032 . S
C1705 C239 2.032 . S
C1707 C1360 2.032 . S
C1723 C1242 2.032 . S
C1725 C298 2.032 . S
C1741 C1301 2.032 . S
C1743 C357 2.032 . S
C1759 C947 2.032 . S
C1761 C416 2.032 . S
C1777 C888 2.032 . S
C1779 C475 2.032 . S
C1795 C534 2.032 . S
C1797 C711 2.032 . S
C1813 C770 2.032 . S
C1815 C593 2.032 . S
C1831 C829 2.032 . S
C1833 C652 2.032 . S
C1849 C52 1.492 . S
C1851 C977 1.455 . S
C1867 C1390 1.455 1_565 S
C1869 C111 1.492 . S
C1885 C1272 1.455 . S
C1887 C170 1.492 . S
C1903 C229 1.492 . S
C1905 C1331 1.455 1_545 S
C1921 C288 1.492 . S
C1923 C1036 1.455 . S
C1939 C1095 1.455 . S
C1941 C347 1.492 . S
C1957 C1154 1.455 . S
C1959 C406 1.492 . S
C1975 C1213 1.455 . S
C1977 C465 1.492 . S
C1993 C33 1.455 . S
C1995 C524 1.492 . S
C2011 C92 1.455 1_455 S
C2013 C583 1.492 . S
C2029 C151 1.455 . S
C2031 C642 1.492 . S
C2047 C210 1.455 . S
C2049 C701 1.492 . S
C2065 C269 1.455 . S
C2067 C760 1.492 . S
C2083 C328 1.455 1_655 S
C2085 C819 1.492 . S
C2101 C878 1.492 . S
C2103 C387 1.455 . S
C2119 C446 1.455 . S
C2121 C937 1.492 . S
C2137 C505 1.455 . S
C2139 C996 1.492 . S
C2155 C1055 1.492 . S
C2157 C741 1.455 . S
C2173 C800 1.455 1_554 S
C2175 C1114 1.492 . S
C2191 C1173 1.492 . S
C2193 C859 1.455 . S
C2209 C1232 1.492 . S
C2211 C918 1.455 . S
C2227 C1291 1.492 . S
C2229 C623 1.455 . S
C2245 C682 1.455 1_556 S
C2247 C1350 1.492 . S
C2263 C1409 1.492 . S
C2265 C564 1.455 . S
