# Generated by pormake.
# Topology gis, (4)-cn, num edge types: 1
# Building blocks:
#     Node 0, Type 0, BuildingBlock: UXUYUI_clean_sbu_0, # of connection points: 4
#     Node 1, Type 0, BuildingBlock: UXUYUI_clean_sbu_0, # of connection points: 4
#     Node 2, Type 0, BuildingBlock: UXUYUI_clean_sbu_0, # of connection points: 4
#     Node 3, Type 0, BuildingBlock: UXUYUI_clean_sbu_0, # of connection points: 4
#     Node 4, Type 0, BuildingBlock: UXUYUI_clean_sbu_0, # of connection points: 4
#     Node 5, Type 0, BuildingBlock: UXUYUI_clean_sbu_0, # of connection points: 4
#     Node 6, Type 0, BuildingBlock: UXUYUI_clean_sbu_0, # of connection points: 4
#     Node 7, Type 0, BuildingBlock: UXUYUI_clean_sbu_0, # of connection points: 4
#     Node 8, Type 0, BuildingBlock: UXUYUI_clean_sbu_0, # of connection points: 4
#     Node 9, Type 0, BuildingBlock: UXUYUI_clean_sbu_0, # of connection points: 4
#     Node 10, Type 0, BuildingBlock: UXUYUI_clean_sbu_0, # of connection points: 4
#     Node 11, Type 0, BuildingBlock: UXUYUI_clean_sbu_0, # of connection points: 4
#     Node 12, Type 0, BuildingBlock: UXUYUI_clean_sbu_0, # of connection points: 4
#     Node 13, Type 0, BuildingBlock: UXUYUI_clean_sbu_0, # of connection points: 4
#     Node 14, Type 0, BuildingBlock: UXUYUI_clean_sbu_0, # of connection points: 4
#     Node 15, Type 0, BuildingBlock: UXUYUI_clean_sbu_0, # of connection points: 4
#     Edge 16, Type (0, 0), None
#     Edge 17, Type (0, 0), None
#     Edge 18, Type (0, 0), None
#     Edge 19, Type (0, 0), None
#     Edge 20, Type (0, 0), None
#     Edge 21, Type (0, 0), None
#     Edge 22, Type (0, 0), None
#     Edge 23, Type (0, 0), None
#     Edge 24, Type (0, 0), None
#     Edge 25, Type (0, 0), None
#     Edge 26, Type (0, 0), None
#     Edge 27, Type (0, 0), None
#     Edge 28, Type (0, 0), None
#     Edge 29, Type (0, 0), None
#     Edge 30, Type (0, 0), None
#     Edge 31, Type (0, 0), None
#     Edge 32, Type (0, 0), None
#     Edge 33, Type (0, 0), None
#     Edge 34, Type (0, 0), None
#     Edge 35, Type (0, 0), None
#     Edge 36, Type (0, 0), None
#     Edge 37, Type (0, 0), None
#     Edge 38, Type (0, 0), None
#     Edge 39, Type (0, 0), None
#     Edge 40, Type (0, 0), None
#     Edge 41, Type (0, 0), None
#     Edge 42, Type (0, 0), None
#     Edge 43, Type (0, 0), None
#     Edge 44, Type (0, 0), None
#     Edge 45, Type (0, 0), None
#     Edge 46, Type (0, 0), None
#     Edge 47, Type (0, 0), None
# Relax obj value: 0.245
# Max RMSD: 0.177
# Mean RMSD: 0.176
data_MOF--net-gis--node1-UXUYUI_clean_sbu_0--edge1-none
_symmetry_space_group_name_H-M    P1
_symmetry_Int_Tables_number       1
_symmetry_cell_setting            triclinic
loop_
_symmetry_equiv_pos_as_xyz
'x, y, z'
_cell_length_a     42.489528
_cell_length_b     42.490282
_cell_length_c     45.114992
_cell_angle_alpha  89.999566
_cell_angle_beta   89.999954
_cell_angle_gamma 89.99964
loop_
_atom_site_label
_atom_site_type_symbol
_atom_site_fract_x
_atom_site_fract_y
_atom_site_fract_z
_atom_type_partial_charge
Li0 Li 0.16901 0.61878 0.11943 0.0
Li1 Li 0.18065 0.57455 0.15064 0.0
Li2 Li 0.17341 0.56734 0.09807 0.0
Li3 Li 0.12922 0.57907 0.1293 0.0
C4 C 0.22819 0.60234 0.09732 0.0
N5 N 0.27044 0.62344 0.05521 0.0
C6 C 0.26045 0.59757 0.10127 0.0
C7 C 0.21741 0.61788 0.07197 0.0
C8 C 0.28145 0.6084 0.07973 0.0
C9 C 0.23914 0.62836 0.05093 0.0
C10 C 0.15886 0.62925 0.17864 0.0
C11 C 0.14729 0.66442 0.21914 0.0
N12 N 0.17832 0.67208 0.22091 0.0
C13 C 0.19064 0.63753 0.1808 0.0
C14 C 0.13699 0.64283 0.19789 0.0
C15 C 0.2 0.6592 0.20234 0.0
C16 C 0.14555 0.67829 0.11108 0.0
N17 N 0.17328 0.66286 0.11436 0.0
C18 C 0.2017 0.71137 0.11322 0.0
C19 C 0.20112 0.67858 0.11563 0.0
C20 C 0.1733 0.72808 0.11004 0.0
C21 C 0.14496 0.71098 0.10902 0.0
H22 H 0.12377 0.6651 0.11072 0.0
H23 H 0.22283 0.66577 0.11889 0.0
C24 C 0.23283 0.55079 0.18244 0.0
N25 N 0.20305 0.56202 0.18517 0.0
C26 C 0.25117 0.54556 0.20767 0.0
C27 C 0.20739 0.5625 0.23792 0.0
C28 C 0.18983 0.56696 0.21221 0.0
C29 C 0.23882 0.55242 0.23591 0.0
H30 H 0.24266 0.54692 0.16062 0.0
H31 H 0.16608 0.57585 0.21385 0.0
C32 C 0.11876 0.58926 0.07009 0.0
N33 N 0.07586 0.56992 0.02783 0.0
C34 C 0.11041 0.55751 0.06791 0.0
C35 C 0.10521 0.61118 0.05085 0.0
C36 C 0.08871 0.5482 0.04637 0.0
C37 C 0.08359 0.60093 0.02961 0.0
C38 C 0.14553 0.51986 0.15138 0.0
C39 C 0.15021 0.48758 0.14743 0.0
C40 C 0.13004 0.53067 0.17675 0.0
C41 C 0.13933 0.46662 0.16897 0.0
C42 C 0.11952 0.50897 0.19779 0.0
N43 N 0.12434 0.47766 0.1935 0.0
C44 C 0.19696 0.5151 0.06623 0.0
C45 C 0.18098 0.5582 0.0365 0.0
C46 C 0.20211 0.49676 0.04098 0.0
N47 N 0.18587 0.54493 0.06352 0.0
C48 C 0.18537 0.54064 0.01076 0.0
C49 C 0.19531 0.50917 0.01276 0.0
H50 H 0.20077 0.50523 0.08804 0.0
H51 H 0.17219 0.58198 0.03487 0.0
C52 C 0.06975 0.60264 0.13763 0.0
N53 N 0.08514 0.57489 0.13436 0.0
C54 C 0.03706 0.60328 0.13965 0.0
C55 C 0.03658 0.54655 0.13543 0.0
C56 C 0.06937 0.54707 0.13307 0.0
C57 C 0.01991 0.57498 0.1386 0.0
H58 H 0.08297 0.6244 0.13801 0.0
H59 H 0.08215 0.52534 0.12981 0.0
O60 O 0.20748 0.59167 0.11826 0.0
O61 O 0.14897 0.60816 0.15769 0.0
O62 O 0.13987 0.5991 0.09104 0.0
O63 O 0.15625 0.54055 0.13045 0.0
H64 H 0.26917 0.58559 0.1208 0.0
H65 H 0.19258 0.62202 0.0686 0.0
H66 H 0.30648 0.60486 0.0825 0.0
H67 H 0.23111 0.64044 0.03123 0.0
H68 H 0.13062 0.67509 0.23421 0.0
H69 H 0.20793 0.62732 0.16608 0.0
H70 H 0.1123 0.63671 0.19642 0.0
H71 H 0.22451 0.66578 0.2043 0.0
H72 H 0.22412 0.72343 0.11394 0.0
H73 H 0.1224 0.72267 0.10745 0.0
H74 H 0.27505 0.53715 0.20498 0.0
H75 H 0.19685 0.5686 0.259 0.0
H76 H 0.12059 0.54019 0.08262 0.0
H77 H 0.11139 0.63585 0.05233 0.0
H78 H 0.08208 0.52371 0.04441 0.0
H79 H 0.07294 0.61764 0.01455 0.0
H80 H 0.16215 0.47883 0.12789 0.0
H81 H 0.12597 0.55552 0.18013 0.0
H82 H 0.1428 0.44157 0.16619 0.0
H83 H 0.10747 0.51703 0.2175 0.0
H84 H 0.2104 0.47283 0.04365 0.0
H85 H 0.17932 0.55123 0.9897 0.0
H86 H 0.0254 0.62586 0.14122 0.0
H87 H 0.02449 0.52414 0.13469 0.0
Li88 Li 0.62913 0.91909 0.36921 0.0
Li89 Li 0.67327 0.9307 0.40056 0.0
Li90 Li 0.68064 0.92356 0.348 0.0
Li91 Li 0.66884 0.8793 0.37911 0.0
C92 C 0.64561 0.97834 0.34726 0.0
N93 N 0.62461 0.02068 0.3052 0.0
C94 C 0.65043 0.01058 0.35126 0.0
C95 C 0.63008 0.96762 0.32188 0.0
C96 C 0.63964 0.03163 0.32974 0.0
C97 C 0.61965 0.9894 0.30087 0.0
C98 C 0.61847 0.90877 0.42836 0.0
C99 C 0.58307 0.89698 0.46862 0.0
N100 N 0.5754 0.928 0.47051 0.0
C101 C 0.61019 0.94053 0.43064 0.0
C102 C 0.60478 0.88679 0.44744 0.0
C103 C 0.5884 0.94978 0.45212 0.0
C104 C 0.56966 0.89562 0.36059 0.0
N105 N 0.58507 0.92334 0.36406 0.0
C106 C 0.53653 0.95172 0.3631 0.0
C107 C 0.56932 0.95116 0.36549 0.0
C108 C 0.51984 0.92333 0.35975 0.0
C109 C 0.53697 0.89503 0.35852 0.0
H110 H 0.58287 0.87386 0.3601 0.0
H111 H 0.58211 0.97286 0.36889 0.0
C112 C 0.697 0.98279 0.43248 0.0
N113 N 0.6857 0.95304 0.43516 0.0
C114 C 0.70222 0.0011 0.45773 0.0
C115 C 0.6851 0.95734 0.48792 0.0
C116 C 0.68065 0.93981 0.46217 0.0
C117 C 0.69527 0.98874 0.48595 0.0
H118 H 0.70095 0.99264 0.41068 0.0
H119 H 0.67171 0.91608 0.46378 0.0
C120 C 0.65886 0.86899 0.31983 0.0
N121 N 0.67843 0.82632 0.27746 0.0
C122 C 0.69063 0.86062 0.3178 0.0
C123 C 0.63706 0.85559 0.3004 0.0
C124 C 0.70005 0.83903 0.2962 0.0
C125 C 0.64742 0.83407 0.27911 0.0
C126 C 0.72795 0.89559 0.40142 0.0
C127 C 0.76025 0.90024 0.39756 0.0
C128 C 0.71704 0.88009 0.42674 0.0
C129 C 0.78113 0.88931 0.41916 0.0
C130 C 0.73865 0.86952 0.44783 0.0
N131 N 0.76999 0.87432 0.44365 0.0
C132 C 0.73308 0.94691 0.3163 0.0
C133 C 0.68992 0.93131 0.28648 0.0
C134 C 0.7515 0.95198 0.29109 0.0
N135 N 0.70317 0.93604 0.31353 0.0
C136 C 0.70754 0.93565 0.26078 0.0
C137 C 0.73908 0.94536 0.26283 0.0
H138 H 0.74296 0.95058 0.33813 0.0
H139 H 0.66608 0.92267 0.2848 0.0
C140 C 0.64527 0.8198 0.38725 0.0
N141 N 0.67303 0.83521 0.38412 0.0
C142 C 0.64466 0.78711 0.38927 0.0
C143 C 0.70141 0.78668 0.38535 0.0
C144 C 0.70087 0.81948 0.38297 0.0
C145 C 0.67298 0.76999 0.38838 0.0
H146 H 0.6235 0.833 0.38751 0.0
H147 H 0.72261 0.83227 0.37983 0.0
O148 O 0.65623 0.95757 0.36818 0.0
O149 O 0.63966 0.89898 0.40745 0.0
O150 O 0.64891 0.89002 0.34081 0.0
O151 O 0.70735 0.90635 0.38043 0.0
H152 H 0.6624 0.01926 0.37081 0.0
H153 H 0.6259 0.9428 0.31848 0.0
H154 H 0.64323 0.05666 0.33255 0.0
H155 H 0.60758 0.98142 0.28115 0.0
H156 H 0.5723 0.88023 0.48356 0.0
H157 H 0.62048 0.9579 0.41605 0.0
H158 H 0.6109 0.86211 0.44588 0.0
H159 H 0.58182 0.97428 0.45416 0.0
H160 H 0.52445 0.97413 0.36397 0.0
H161 H 0.52529 0.87246 0.35681 0.0
H162 H 0.71069 0.02496 0.45508 0.0
H163 H 0.67893 0.94679 0.50897 0.0
H164 H 0.70786 0.8707 0.33264 0.0
H165 H 0.61239 0.86178 0.30177 0.0
H166 H 0.72454 0.83239 0.29434 0.0
H167 H 0.6308 0.82353 0.2639 0.0
H168 H 0.76908 0.91218 0.37806 0.0
H169 H 0.69217 0.87604 0.43004 0.0
H170 H 0.80619 0.89276 0.41646 0.0
H171 H 0.73052 0.85747 0.46752 0.0
H172 H 0.77548 0.96009 0.2938 0.0
H173 H 0.69694 0.92973 0.23968 0.0
H174 H 0.62207 0.77543 0.39072 0.0
H175 H 0.72384 0.77461 0.38474 0.0
Li176 Li 0.3245 0.43085 0.59797 0.0
Li177 Li 0.36897 0.41927 0.62892 0.0
Li178 Li 0.32926 0.37941 0.61907 0.0
Li179 Li 0.31751 0.42342 0.65056 0.0
C180 C 0.37905 0.4096 0.5696 0.0
N181 N 0.42132 0.42982 0.52714 0.0
C182 C 0.38729 0.44141 0.56784 0.0
C183 C 0.39239 0.38807 0.54985 0.0
C184 C 0.40867 0.45117 0.54619 0.0
C185 C 0.4137 0.39877 0.52852 0.0
C186 C 0.35243 0.47826 0.65136 0.0
C187 C 0.37839 0.48899 0.69782 0.0
N188 N 0.37363 0.52032 0.69359 0.0
C189 C 0.3478 0.51055 0.64746 0.0
C190 C 0.36786 0.46736 0.67672 0.0
C191 C 0.35869 0.53145 0.66907 0.0
C192 C 0.30071 0.48313 0.56627 0.0
N193 N 0.31176 0.45329 0.56354 0.0
C194 C 0.31201 0.45754 0.51077 0.0
C195 C 0.31649 0.44 0.5365 0.0
C196 C 0.30213 0.48903 0.51278 0.0
C197 C 0.29546 0.50146 0.54103 0.0
H198 H 0.29703 0.49303 0.58809 0.0
H199 H 0.32525 0.4162 0.53485 0.0
C200 C 0.42844 0.39567 0.63642 0.0
N201 N 0.41306 0.42351 0.63387 0.0
C202 C 0.46113 0.39496 0.63839 0.0
C203 C 0.46163 0.45179 0.63562 0.0
C204 C 0.42883 0.45135 0.63325 0.0
C205 C 0.47829 0.42328 0.63808 0.0
H206 H 0.41521 0.37391 0.63626 0.0
H207 H 0.41606 0.47317 0.63054 0.0
C208 C 0.26983 0.39564 0.59741 0.0
N209 N 0.22734 0.37457 0.55549 0.0
C210 C 0.23759 0.40044 0.6015 0.0
C211 C 0.28046 0.38009 0.572 0.0
C212 C 0.21648 0.38962 0.58005 0.0
C213 C 0.25862 0.36963 0.55107 0.0
C214 C 0.34046 0.36842 0.67804 0.0
C215 C 0.30883 0.35995 0.6811 0.0
C216 C 0.36315 0.35432 0.69608 0.0
C217 C 0.30041 0.33758 0.70235 0.0
C218 C 0.35378 0.33202 0.71707 0.0
N219 N 0.32287 0.32419 0.71975 0.0
C220 C 0.35274 0.31993 0.61018 0.0
C221 C 0.29728 0.31961 0.61584 0.0
C222 C 0.3533 0.28723 0.60816 0.0
N223 N 0.32508 0.33534 0.614 0.0
C224 C 0.29667 0.28682 0.6135 0.0
C225 C 0.325 0.27012 0.60979 0.0
H226 H 0.3745 0.33312 0.60937 0.0
H227 H 0.27565 0.33242 0.61952 0.0
C228 C 0.26555 0.44721 0.68257 0.0
N229 N 0.29523 0.43569 0.68522 0.0
C230 C 0.24725 0.45242 0.70783 0.0
C231 C 0.29086 0.43484 0.73798 0.0
C232 C 0.30839 0.4304 0.71223 0.0
C233 C 0.25953 0.44525 0.73602 0.0
H234 H 0.25576 0.45135 0.66078 0.0
H235 H 0.33207 0.42131 0.71381 0.0
O236 O 0.3582 0.39932 0.59061 0.0
O237 O 0.34167 0.45764 0.63038 0.0
O238 O 0.29066 0.40629 0.61825 0.0
O239 O 0.34944 0.39002 0.6572 0.0
H240 H 0.37726 0.45844 0.58292 0.0
H241 H 0.38629 0.36336 0.551 0.0
H242 H 0.4152 0.47571 0.54453 0.0
H243 H 0.42418 0.38237 0.51306 0.0
H244 H 0.3904 0.48087 0.71753 0.0
H245 H 0.3359 0.51937 0.62794 0.0
H246 H 0.3719 0.4425 0.68005 0.0
H247 H 0.35527 0.55651 0.66634 0.0
H248 H 0.31797 0.44692 0.4897 0.0
H249 H 0.28722 0.5254 0.54372 0.0
H250 H 0.47277 0.37233 0.63937 0.0
H251 H 0.47373 0.47421 0.63545 0.0
H252 H 0.22898 0.41242 0.62106 0.0
H253 H 0.30528 0.37595 0.56852 0.0
H254 H 0.19145 0.39318 0.58294 0.0
H255 H 0.26654 0.35755 0.53132 0.0
H256 H 0.29095 0.3705 0.66724 0.0
H257 H 0.38775 0.36054 0.69386 0.0
H258 H 0.27602 0.33083 0.705 0.0
H259 H 0.37109 0.32093 0.73121 0.0
H260 H 0.37583 0.27554 0.60615 0.0
H261 H 0.27427 0.27475 0.6147 0.0
H262 H 0.22345 0.46107 0.70519 0.0
H263 H 0.30134 0.42851 0.75902 0.0
Li264 Li 0.82914 0.11873 0.87915 0.0
Li265 Li 0.81744 0.07446 0.848 0.0
Li266 Li 0.82457 0.06736 0.9006 0.0
Li267 Li 0.86886 0.0789 0.8694 0.0
C268 C 0.76988 0.10249 0.90118 0.0
N269 N 0.7276 0.12376 0.94319 0.0
C270 C 0.73762 0.09781 0.89717 0.0
C271 C 0.78065 0.11801 0.92655 0.0
C272 C 0.71661 0.10874 0.91866 0.0
C273 C 0.75891 0.12858 0.94753 0.0
C274 C 0.83943 0.12906 0.81993 0.0
C275 C 0.85121 0.16414 0.77942 0.0
N276 N 0.8202 0.17188 0.77756 0.0
C277 C 0.80768 0.13742 0.81768 0.0
C278 C 0.86139 0.14255 0.80072 0.0
C279 C 0.79844 0.15908 0.79609 0.0
C280 C 0.85269 0.17822 0.88741 0.0
N281 N 0.82495 0.16282 0.88412 0.0
C282 C 0.79659 0.21137 0.88515 0.0
C283 C 0.79713 0.17857 0.88279 0.0
C284 C 0.825 0.22805 0.88834 0.0
C285 C 0.85331 0.21092 0.88942 0.0
H286 H 0.87446 0.16501 0.88783 0.0
H287 H 0.77541 0.16579 0.87951 0.0
C288 C 0.76524 0.05079 0.81619 0.0
N289 N 0.79505 0.06193 0.81347 0.0
C290 C 0.74689 0.04559 0.79096 0.0
C291 C 0.79073 0.06237 0.76071 0.0
C292 C 0.8083 0.0668 0.78643 0.0
C293 C 0.75926 0.05239 0.76272 0.0
H294 H 0.75538 0.04697 0.83801 0.0
H295 H 0.83207 0.07561 0.78478 0.0
C296 C 0.87925 0.08914 0.9286 0.0
N297 N 0.922 0.06967 0.97094 0.0
C298 C 0.8875 0.05736 0.93079 0.0
C299 C 0.89283 0.11101 0.94785 0.0
C300 C 0.90913 0.04799 0.95237 0.0
C301 C 0.91438 0.1007 0.96914 0.0
C302 C 0.85242 0.01967 0.84742 0.0
C303 C 0.84767 0.98742 0.85145 0.0
C304 C 0.86795 0.03039 0.82203 0.0
C305 C 0.85852 0.96637 0.82996 0.0
C306 C 0.87845 0.00861 0.80106 0.0
N307 N 0.87355 0.97731 0.80542 0.0
C308 C 0.80061 0.01535 0.93248 0.0
C309 C 0.81693 0.05834 0.96218 0.0
C310 C 0.79529 0.99708 0.95774 0.0
N311 N 0.81196 0.04509 0.93516 0.0
C312 C 0.81239 0.04085 0.98793 0.0
C313 C 0.8022 0.00945 0.98596 0.0
H314 H 0.79671 0.00548 0.91068 0.0
H315 H 0.82589 0.08207 0.96378 0.0
C316 C 0.92834 0.10238 0.86115 0.0
N317 N 0.91294 0.07463 0.86438 0.0
C318 C 0.96103 0.103 0.85912 0.0
C319 C 0.96148 0.04627 0.86327 0.0
C320 C 0.92869 0.0468 0.86564 0.0
C321 C 0.97817 0.07469 0.86013 0.0
H322 H 0.91513 0.12415 0.8608 0.0
H323 H 0.9159 0.02508 0.86887 0.0
O324 O 0.79061 0.09172 0.8803 0.0
O325 O 0.84922 0.10798 0.84094 0.0
O326 O 0.85821 0.09905 0.90761 0.0
O327 O 0.84172 0.04044 0.86829 0.0
H328 H 0.7289 0.08584 0.87764 0.0
H329 H 0.80549 0.12208 0.92996 0.0
H330 H 0.69156 0.10527 0.91584 0.0
H331 H 0.76693 0.14065 0.96724 0.0
H332 H 0.86795 0.17475 0.76437 0.0
H333 H 0.79033 0.12728 0.83237 0.0
H334 H 0.88606 0.13637 0.80225 0.0
H335 H 0.77395 0.16572 0.79406 0.0
H336 H 0.77417 0.22344 0.88439 0.0
H337 H 0.87589 0.22259 0.89101 0.0
H338 H 0.72298 0.03726 0.79365 0.0
H339 H 0.80129 0.06842 0.73963 0.0
H340 H 0.8773 0.04007 0.91607 0.0
H341 H 0.88673 0.1357 0.94637 0.0
H342 H 0.91567 0.02347 0.95435 0.0
H343 H 0.92504 0.11737 0.98422 0.0
H344 H 0.83569 0.97875 0.871 0.0
H345 H 0.87208 0.05522 0.8186 0.0
H346 H 0.855 0.94134 0.8328 0.0
H347 H 0.89052 0.01658 0.78133 0.0
H348 H 0.78679 0.97323 0.95509 0.0
H349 H 0.81853 0.05141 0.00898 0.0
H350 H 0.9727 0.12559 0.85759 0.0
H351 H 0.97357 0.02385 0.86397 0.0
Li352 Li 0.12914 0.41909 0.8692 0.0
Li353 Li 0.17327 0.4307 0.90056 0.0
Li354 Li 0.18065 0.42355 0.84799 0.0
Li355 Li 0.16884 0.3793 0.87911 0.0
C356 C 0.14562 0.47832 0.84724 0.0
N357 N 0.12463 0.52066 0.80516 0.0
C358 C 0.15044 0.51057 0.85123 0.0
C359 C 0.13009 0.4676 0.82186 0.0
C360 C 0.13965 0.53161 0.8297 0.0
C361 C 0.11966 0.48937 0.80084 0.0
C362 C 0.11847 0.40879 0.92836 0.0
C363 C 0.08307 0.39703 0.96863 0.0
N364 N 0.07541 0.42805 0.9705 0.0
C365 C 0.11019 0.44055 0.93062 0.0
C366 C 0.10478 0.38683 0.94745 0.0
C367 C 0.08841 0.44982 0.95209 0.0
C368 C 0.06966 0.39562 0.86058 0.0
N369 N 0.08507 0.42334 0.86405 0.0
C370 C 0.03653 0.45173 0.86307 0.0
C371 C 0.06933 0.45117 0.86547 0.0
C372 C 0.01984 0.42334 0.85973 0.0
C373 C 0.03697 0.39503 0.85852 0.0
H374 H 0.08286 0.37386 0.86011 0.0
H375 H 0.08212 0.47286 0.86886 0.0
C376 C 0.19699 0.48281 0.93246 0.0
N377 N 0.18569 0.45305 0.93515 0.0
C378 C 0.20221 0.50112 0.95772 0.0
C379 C 0.1851 0.45735 0.98791 0.0
C380 C 0.18065 0.43982 0.96216 0.0
C381 C 0.19526 0.48876 0.98593 0.0
H382 H 0.20094 0.49265 0.91066 0.0
H383 H 0.17172 0.41609 0.96377 0.0
C384 C 0.15886 0.36897 0.81984 0.0
N385 N 0.17842 0.32627 0.77749 0.0
C386 C 0.19062 0.3606 0.8178 0.0
C387 C 0.13705 0.35555 0.80042 0.0
C388 C 0.20004 0.339 0.79621 0.0
C389 C 0.14741 0.33403 0.77914 0.0
C390 C 0.22795 0.39559 0.90142 0.0
C391 C 0.26025 0.40024 0.89757 0.0
C392 C 0.21703 0.38009 0.92675 0.0
C393 C 0.28113 0.38932 0.91917 0.0
C394 C 0.23865 0.36953 0.94784 0.0
N395 N 0.26999 0.37433 0.94366 0.0
C396 C 0.23309 0.44689 0.81629 0.0
C397 C 0.18993 0.43128 0.78647 0.0
C398 C 0.25151 0.45197 0.79109 0.0
N399 N 0.20318 0.43602 0.81353 0.0
C400 C 0.20755 0.43562 0.76077 0.0
C401 C 0.23909 0.44534 0.76283 0.0
H402 H 0.24296 0.45057 0.83812 0.0
H403 H 0.16609 0.42264 0.7848 0.0
C404 C 0.14527 0.3198 0.88728 0.0
N405 N 0.17303 0.33521 0.88414 0.0
C406 C 0.14466 0.28711 0.88931 0.0
C407 C 0.20141 0.28668 0.88536 0.0
C408 C 0.20087 0.31948 0.88298 0.0
C409 C 0.17299 0.26998 0.8884 0.0
H410 H 0.1235 0.333 0.88756 0.0
H411 H 0.2226 0.33227 0.87982 0.0
O412 O 0.15623 0.45757 0.86817 0.0
O413 O 0.13965 0.39899 0.90745 0.0
O414 O 0.14892 0.39001 0.84081 0.0
O415 O 0.20735 0.40635 0.88043 0.0
H416 H 0.16241 0.51925 0.87077 0.0
H417 H 0.12591 0.44278 0.81846 0.0
H418 H 0.14324 0.55664 0.8325 0.0
H419 H 0.10759 0.48139 0.78112 0.0
H420 H 0.07231 0.38029 0.98358 0.0
H421 H 0.12048 0.45791 0.91602 0.0
H422 H 0.1109 0.36214 0.9459 0.0
H423 H 0.08183 0.47432 0.95412 0.0
H424 H 0.02446 0.47414 0.86394 0.0
H425 H 0.02529 0.37246 0.85681 0.0
H426 H 0.21067 0.52498 0.95507 0.0
H427 H 0.17894 0.44681 0.00896 0.0
H428 H 0.20786 0.37069 0.83264 0.0
H429 H 0.11238 0.36175 0.80179 0.0
H430 H 0.22453 0.33236 0.79435 0.0
H431 H 0.13078 0.32348 0.76394 0.0
H432 H 0.26908 0.41218 0.87807 0.0
H433 H 0.19217 0.37604 0.93004 0.0
H434 H 0.30619 0.39278 0.91647 0.0
H435 H 0.23051 0.35748 0.96752 0.0
H436 H 0.27549 0.46008 0.7938 0.0
H437 H 0.19696 0.4297 0.73968 0.0
H438 H 0.12208 0.27542 0.89077 0.0
H439 H 0.22384 0.27462 0.88473 0.0
Li440 Li 0.8245 0.93085 0.09798 0.0
Li441 Li 0.86896 0.91926 0.12894 0.0
Li442 Li 0.82925 0.87941 0.11908 0.0
Li443 Li 0.8175 0.92342 0.15057 0.0
C444 C 0.87906 0.90959 0.06962 0.0
N445 N 0.92134 0.9298 0.02717 0.0
C446 C 0.8873 0.9414 0.06785 0.0
C447 C 0.8924 0.88806 0.04988 0.0
C448 C 0.90868 0.95115 0.04621 0.0
C449 C 0.91372 0.89875 0.02855 0.0
C450 C 0.85243 0.97825 0.15138 0.0
C451 C 0.87839 0.98897 0.19784 0.0
N452 N 0.87362 0.0203 0.19362 0.0
C453 C 0.8478 0.01054 0.1475 0.0
C454 C 0.86786 0.96734 0.17674 0.0
C455 C 0.85869 0.03143 0.1691 0.0
C456 C 0.80073 0.98314 0.06628 0.0
N457 N 0.81177 0.95329 0.06355 0.0
C458 C 0.81203 0.95755 0.01078 0.0
C459 C 0.8165 0.94001 0.03651 0.0
C460 C 0.80216 0.98905 0.0128 0.0
C461 C 0.79548 0.00148 0.04105 0.0
H462 H 0.79704 0.99304 0.0881 0.0
H463 H 0.82525 0.91621 0.03486 0.0
C464 C 0.92843 0.89566 0.13646 0.0
N465 N 0.91305 0.9235 0.1339 0.0
C466 C 0.96112 0.89496 0.13843 0.0
C467 C 0.96162 0.95178 0.13563 0.0
C468 C 0.92881 0.95134 0.13326 0.0
C469 C 0.97828 0.92327 0.1381 0.0
H470 H 0.91521 0.8739 0.13631 0.0
H471 H 0.91605 0.97315 0.13054 0.0
C472 C 0.76982 0.89565 0.0974 0.0
N473 N 0.72734 0.8746 0.05548 0.0
C474 C 0.73758 0.90046 0.10149 0.0
C475 C 0.78046 0.8801 0.072 0.0
C476 C 0.71647 0.88964 0.08004 0.0
C477 C 0.75862 0.86965 0.05106 0.0
C478 C 0.84041 0.86842 0.17805 0.0
C479 C 0.80876 0.85996 0.18108 0.0
C480 C 0.86306 0.85433 0.19614 0.0
C481 C 0.8003 0.83761 0.20234 0.0
C482 C 0.85365 0.83205 0.21713 0.0
N483 N 0.82273 0.82424 0.21977 0.0
C484 C 0.85273 0.81992 0.11018 0.0
C485 C 0.79727 0.81961 0.11582 0.0
C486 C 0.85328 0.78723 0.10816 0.0
N487 N 0.82507 0.83534 0.11399 0.0
C488 C 0.79665 0.78682 0.11348 0.0
C489 C 0.82499 0.77011 0.10978 0.0
H490 H 0.87449 0.83312 0.10939 0.0
H491 H 0.77563 0.83241 0.1195 0.0
C492 C 0.76554 0.94721 0.18257 0.0
N493 N 0.79521 0.93569 0.18523 0.0
C494 C 0.74724 0.95243 0.20783 0.0
C495 C 0.79085 0.93485 0.23798 0.0
C496 C 0.80837 0.9304 0.21224 0.0
C497 C 0.75952 0.94526 0.23602 0.0
H498 H 0.75576 0.95136 0.16078 0.0
H499 H 0.83205 0.92131 0.21382 0.0
O500 O 0.8582 0.89931 0.09062 0.0
O501 O 0.84167 0.95763 0.13039 0.0
O502 O 0.79065 0.90629 0.11825 0.0
O503 O 0.84942 0.89 0.15721 0.0
H504 H 0.87726 0.95843 0.08293 0.0
H505 H 0.8863 0.86335 0.05103 0.0
H506 H 0.91522 0.97569 0.04456 0.0
H507 H 0.9242 0.88235 0.0131 0.0
H508 H 0.89039 0.98084 0.21755 0.0
H509 H 0.8359 0.01936 0.12797 0.0
H510 H 0.8719 0.94248 0.18006 0.0
H511 H 0.85526 0.05649 0.16638 0.0
H512 H 0.81798 0.94694 0.98971 0.0
H513 H 0.78724 0.02541 0.04373 0.0
H514 H 0.97277 0.87233 0.13942 0.0
H515 H 0.97371 0.9742 0.13545 0.0
H516 H 0.72897 0.91244 0.12106 0.0
H517 H 0.80528 0.87595 0.06852 0.0
H518 H 0.69145 0.89321 0.08292 0.0
H519 H 0.76654 0.85757 0.03132 0.0
H520 H 0.79091 0.87051 0.16718 0.0
H521 H 0.88766 0.86054 0.19395 0.0
H522 H 0.77591 0.83087 0.20495 0.0
H523 H 0.87094 0.82096 0.23131 0.0
H524 H 0.87581 0.77554 0.10616 0.0
H525 H 0.77425 0.77475 0.11466 0.0
H526 H 0.72344 0.96109 0.2052 0.0
H527 H 0.80132 0.92852 0.25903 0.0
Li528 Li 0.32913 0.61872 0.37915 0.0
Li529 Li 0.31743 0.57447 0.34799 0.0
Li530 Li 0.32456 0.56736 0.40059 0.0
Li531 Li 0.36885 0.57889 0.3694 0.0
C532 C 0.26987 0.60248 0.40118 0.0
N533 N 0.22758 0.62374 0.44318 0.0
C534 C 0.2376 0.5978 0.39716 0.0
C535 C 0.28063 0.61801 0.42654 0.0
C536 C 0.21659 0.60872 0.41865 0.0
C537 C 0.25889 0.62857 0.44752 0.0
C538 C 0.33944 0.62907 0.31994 0.0
C539 C 0.35124 0.66419 0.27946 0.0
N540 N 0.32024 0.67193 0.27759 0.0
C541 C 0.30769 0.63743 0.31768 0.0
C542 C 0.36141 0.64259 0.30075 0.0
C543 C 0.29846 0.65911 0.2961 0.0
C544 C 0.35268 0.67822 0.38745 0.0
N545 N 0.32494 0.66282 0.38413 0.0
C546 C 0.29658 0.71136 0.38515 0.0
C547 C 0.29712 0.67857 0.38279 0.0
C548 C 0.32499 0.72805 0.38836 0.0
C549 C 0.3533 0.71091 0.38946 0.0
H550 H 0.37445 0.66501 0.38787 0.0
H551 H 0.2754 0.66578 0.3795 0.0
C552 C 0.26524 0.55078 0.31618 0.0
N553 N 0.29505 0.56194 0.31345 0.0
C554 C 0.24689 0.54557 0.29095 0.0
C555 C 0.29072 0.56239 0.2607 0.0
C556 C 0.30829 0.56683 0.28642 0.0
C557 C 0.25926 0.55239 0.26271 0.0
H558 H 0.25539 0.54695 0.338 0.0
H559 H 0.33206 0.57565 0.28478 0.0
C560 C 0.37923 0.58911 0.4286 0.0
N561 N 0.42197 0.56961 0.47094 0.0
C562 C 0.38748 0.55733 0.43078 0.0
C563 C 0.3928 0.61097 0.44788 0.0
C564 C 0.4091 0.54794 0.45236 0.0
C565 C 0.41435 0.60064 0.46916 0.0
C566 C 0.35241 0.51968 0.3474 0.0
C567 C 0.34766 0.48742 0.35143 0.0
C568 C 0.36794 0.5304 0.32202 0.0
C569 C 0.35852 0.46638 0.32993 0.0
C570 C 0.37843 0.50863 0.30104 0.0
N571 N 0.37354 0.47733 0.30539 0.0
C572 C 0.30059 0.51533 0.43247 0.0
C573 C 0.3169 0.55833 0.46217 0.0
C574 C 0.29527 0.49706 0.45773 0.0
N575 N 0.31194 0.54507 0.43515 0.0
C576 C 0.31237 0.54084 0.48792 0.0
C577 C 0.30218 0.50944 0.48595 0.0
H578 H 0.2967 0.50547 0.41067 0.0
H579 H 0.32586 0.58206 0.46377 0.0
C580 C 0.42833 0.60238 0.36117 0.0
N581 N 0.41293 0.57463 0.36439 0.0
C582 C 0.46103 0.603 0.35915 0.0
C583 C 0.46148 0.54626 0.36325 0.0
C584 C 0.42868 0.5468 0.36562 0.0
C585 C 0.47816 0.57469 0.36013 0.0
H586 H 0.41512 0.62415 0.36083 0.0
H587 H 0.41589 0.52507 0.36884 0.0
O588 O 0.2906 0.59172 0.3803 0.0
O589 O 0.34921 0.60798 0.34094 0.0
O590 O 0.3582 0.59903 0.40762 0.0
O591 O 0.34171 0.54044 0.36828 0.0
H592 H 0.22889 0.58583 0.37763 0.0
H593 H 0.30548 0.62208 0.42996 0.0
H594 H 0.19155 0.60525 0.41583 0.0
H595 H 0.2669 0.64064 0.46724 0.0
H596 H 0.36799 0.67481 0.26443 0.0
H597 H 0.29033 0.62728 0.33235 0.0
H598 H 0.38608 0.6364 0.3023 0.0
H599 H 0.27397 0.66575 0.29406 0.0
H600 H 0.27416 0.72344 0.38437 0.0
H601 H 0.37588 0.72258 0.39106 0.0
H602 H 0.22299 0.53723 0.29364 0.0
H603 H 0.30128 0.56845 0.23962 0.0
H604 H 0.37728 0.54005 0.41604 0.0
H605 H 0.38671 0.63566 0.4464 0.0
H606 H 0.41564 0.52342 0.45433 0.0
H607 H 0.42501 0.6173 0.48425 0.0
H608 H 0.33569 0.47875 0.37097 0.0
H609 H 0.37206 0.55523 0.31859 0.0
H610 H 0.35499 0.44135 0.33276 0.0
H611 H 0.39051 0.51661 0.28131 0.0
H612 H 0.28678 0.47321 0.45508 0.0
H613 H 0.3185 0.5514 0.50897 0.0
H614 H 0.47269 0.62559 0.35763 0.0
H615 H 0.47356 0.52385 0.36394 0.0
Li616 Li 0.66902 0.11878 0.61942 0.0
Li617 Li 0.68066 0.07456 0.65065 0.0
Li618 Li 0.67343 0.06734 0.59807 0.0
Li619 Li 0.62923 0.07907 0.6293 0.0
C620 C 0.7282 0.10234 0.59733 0.0
N621 N 0.77046 0.12342 0.55522 0.0
C622 C 0.76046 0.09755 0.60128 0.0
C623 C 0.71743 0.11788 0.57197 0.0
C624 C 0.78146 0.10838 0.57973 0.0
C625 C 0.73916 0.12835 0.55094 0.0
C626 C 0.65886 0.12927 0.67863 0.0
C627 C 0.64726 0.16448 0.71909 0.0
N628 N 0.67829 0.17214 0.72088 0.0
C629 C 0.69063 0.13755 0.6808 0.0
C630 C 0.63697 0.14287 0.69785 0.0
C631 C 0.69998 0.15924 0.70233 0.0
C632 C 0.64556 0.17829 0.61104 0.0
N633 N 0.67329 0.16286 0.61434 0.0
C634 C 0.70171 0.21137 0.61321 0.0
C635 C 0.70113 0.17858 0.61562 0.0
C636 C 0.67331 0.22808 0.61001 0.0
C637 C 0.64498 0.21098 0.60898 0.0
H638 H 0.62378 0.1651 0.61067 0.0
H639 H 0.72283 0.16577 0.6189 0.0
C640 C 0.73282 0.05079 0.68245 0.0
N641 N 0.70305 0.06204 0.68518 0.0
C642 C 0.75117 0.04555 0.70768 0.0
C643 C 0.7074 0.06253 0.73793 0.0
C644 C 0.68984 0.067 0.71222 0.0
C645 C 0.73883 0.05243 0.73592 0.0
H646 H 0.74266 0.04691 0.66063 0.0
H647 H 0.66609 0.07589 0.71386 0.0
C648 C 0.61877 0.08924 0.57009 0.0
N649 N 0.57589 0.06986 0.52782 0.0
C650 C 0.61043 0.05748 0.56793 0.0
C651 C 0.60523 0.11114 0.55083 0.0
C652 C 0.58874 0.04816 0.54639 0.0
C653 C 0.58362 0.10087 0.52959 0.0
C654 C 0.64554 0.01987 0.6514 0.0
C655 C 0.65022 0.98759 0.64746 0.0
C656 C 0.63005 0.03069 0.67677 0.0
C657 C 0.63933 0.96664 0.66901 0.0
C658 C 0.61953 0.009 0.69781 0.0
N659 N 0.62435 0.97769 0.69353 0.0
C660 C 0.69696 0.01508 0.56624 0.0
C661 C 0.681 0.05818 0.53651 0.0
C662 C 0.70211 0.99674 0.541 0.0
N663 N 0.68588 0.04492 0.56354 0.0
C664 C 0.68539 0.04063 0.51078 0.0
C665 C 0.69532 0.00915 0.51277 0.0
H666 H 0.70077 0.00521 0.58805 0.0
H667 H 0.67222 0.08197 0.53488 0.0
C668 C 0.56976 0.10264 0.63762 0.0
N669 N 0.58515 0.07489 0.63436 0.0
C670 C 0.53707 0.10328 0.63963 0.0
C671 C 0.53659 0.04655 0.63545 0.0
C672 C 0.56938 0.04707 0.63309 0.0
C673 C 0.51992 0.07498 0.6386 0.0
H674 H 0.58298 0.1244 0.63798 0.0
H675 H 0.58216 0.02534 0.62984 0.0
O676 O 0.70748 0.09167 0.61826 0.0
O677 O 0.64897 0.10818 0.65768 0.0
O678 O 0.63988 0.09909 0.59103 0.0
O679 O 0.65626 0.04055 0.63046 0.0
H680 H 0.76918 0.08558 0.6208 0.0
H681 H 0.6926 0.12202 0.5686 0.0
H682 H 0.8065 0.10483 0.58251 0.0
H683 H 0.73114 0.14042 0.53123 0.0
H684 H 0.63058 0.17516 0.73415 0.0
H685 H 0.70793 0.12733 0.6661 0.0
H686 H 0.61228 0.13675 0.69638 0.0
H687 H 0.72449 0.16581 0.7043 0.0
H688 H 0.72414 0.22342 0.61395 0.0
H689 H 0.62241 0.22267 0.60739 0.0
H690 H 0.77504 0.03713 0.70499 0.0
H691 H 0.69686 0.06864 0.75901 0.0
H692 H 0.6206 0.04017 0.58265 0.0
H693 H 0.61141 0.13581 0.5523 0.0
H694 H 0.58211 0.02366 0.54443 0.0
H695 H 0.57298 0.11757 0.51451 0.0
H696 H 0.66215 0.97883 0.62792 0.0
H697 H 0.62599 0.05554 0.68014 0.0
H698 H 0.6428 0.94159 0.66624 0.0
H699 H 0.60749 0.01707 0.71753 0.0
H700 H 0.71039 0.97281 0.54367 0.0
H701 H 0.67935 0.05122 0.48971 0.0
H702 H 0.52541 0.12587 0.64118 0.0
H703 H 0.5245 0.02414 0.63472 0.0
Li704 Li 0.82162 0.41642 0.8483 0.0
Li705 Li 0.83163 0.42625 0.90036 0.0
Li706 Li 0.87589 0.41216 0.86695 0.0
Li707 Li 0.83594 0.37206 0.8815 0.0
C708 C 0.84192 0.47959 0.85649 0.0
N709 N 0.82869 0.54006 0.83773 0.0
C710 C 0.81613 0.49581 0.86815 0.0
C711 C 0.86128 0.4943 0.83563 0.0
C712 C 0.80975 0.52632 0.8583 0.0
C713 C 0.8541 0.52483 0.82631 0.0
C714 C 0.76844 0.40605 0.89215 0.0
C715 C 0.72308 0.39399 0.92223 0.0
N716 N 0.70797 0.41948 0.91081 0.0
C717 C 0.75234 0.43192 0.8805 0.0
C718 C 0.75361 0.38672 0.91296 0.0
C719 C 0.72183 0.43839 0.89029 0.0
C720 C 0.79103 0.39676 0.79849 0.0
N721 N 0.79629 0.42367 0.8139 0.0
C722 C 0.76453 0.45273 0.77964 0.0
C723 C 0.78366 0.4515 0.80492 0.0
C724 C 0.75912 0.42521 0.76289 0.0
C725 C 0.77346 0.39715 0.77254 0.0
H726 H 0.80062 0.37476 0.80638 0.0
H727 H 0.78771 0.47262 0.81762 0.0
C728 C 0.85126 0.4565 0.95042 0.0
N729 N 0.82441 0.45148 0.93485 0.0
C730 C 0.85085 0.47403 0.9764 0.0
C731 C 0.79539 0.48343 0.96899 0.0
C732 C 0.79663 0.46432 0.94369 0.0
C733 C 0.82285 0.4886 0.9859 0.0
H734 H 0.87325 0.44678 0.94263 0.0
H735 H 0.77556 0.46048 0.93087 0.0
C736 C 0.86423 0.3806 0.81318 0.0
N737 N 0.88636 0.378 0.75568 0.0
C738 C 0.86854 0.35153 0.79928 0.0
C739 C 0.87107 0.40834 0.79785 0.0
C740 C 0.87979 0.35071 0.77019 0.0
C741 C 0.88226 0.40653 0.76879 0.0
C742 C 0.86748 0.38343 0.93519 0.0
C743 C 0.89652 0.3789 0.94908 0.0
C744 C 0.83971 0.37653 0.95044 0.0
C745 C 0.89728 0.36738 0.97808 0.0
C746 C 0.84145 0.36506 0.9794 0.0
N747 N 0.86995 0.36075 0.99251 0.0
C748 C 0.93413 0.44093 0.87659 0.0
C749 C 0.93625 0.39762 0.84357 0.0
C750 C 0.96688 0.44381 0.87593 0.0
N751 N 0.91962 0.41789 0.86081 0.0
C752 C 0.96891 0.4 0.84182 0.0
C753 C 0.98482 0.42282 0.8587 0.0
H754 H 0.92029 0.45632 0.89057 0.0
H755 H 0.92441 0.37891 0.83187 0.0
C756 C 0.80719 0.3138 0.87182 0.0
N757 N 0.83034 0.32829 0.88749 0.0
C758 C 0.80437 0.28105 0.87239 0.0
C759 C 0.84846 0.27896 0.90618 0.0
C760 C 0.85079 0.31162 0.9045 0.0
C761 C 0.82552 0.26308 0.88942 0.0
H762 H 0.79167 0.32767 0.858 0.0
H763 H 0.86957 0.32345 0.9161 0.0
O764 O 0.84886 0.44987 0.86611 0.0
O765 O 0.79815 0.399 0.88258 0.0
O766 O 0.85297 0.38178 0.84157 0.0
O767 O 0.86638 0.39493 0.90689 0.0
H768 H 0.80105 0.48492 0.88444 0.0
H769 H 0.88174 0.48235 0.82683 0.0
H770 H 0.78974 0.53906 0.867 0.0
H771 H 0.86881 0.53646 0.81009 0.0
H772 H 0.71137 0.37931 0.93841 0.0
H773 H 0.76333 0.44698 0.86425 0.0
H774 H 0.76547 0.36621 0.92177 0.0
H775 H 0.70919 0.45846 0.88159 0.0
H776 H 0.75379 0.47494 0.77378 0.0
H777 H 0.77141 0.37535 0.76035 0.0
H778 H 0.87259 0.47588 0.98871 0.0
H779 H 0.77324 0.49436 0.97471 0.0
H780 H 0.86321 0.32986 0.81087 0.0
H781 H 0.86763 0.43096 0.80825 0.0
H782 H 0.88327 0.32839 0.75914 0.0
H783 H 0.88764 0.42782 0.75665 0.0
H784 H 0.91822 0.38427 0.93756 0.0
H785 H 0.8171 0.38013 0.94005 0.0
H786 H 0.91958 0.36372 0.98912 0.0
H787 H 0.82013 0.35962 0.99148 0.0
H788 H 0.97799 0.46143 0.88974 0.0
H789 H 0.98156 0.38361 0.82783 0.0
H790 H 0.78665 0.26996 0.85867 0.0
H791 H 0.86498 0.26629 0.92002 0.0
Li792 Li 0.33595 0.12612 0.61687 0.0
Li793 Li 0.37595 0.0861 0.63147 0.0
Li794 Li 0.33164 0.07186 0.5982 0.0
Li795 Li 0.32172 0.08186 0.65024 0.0
C796 C 0.36751 0.11443 0.56314 0.0
N797 N 0.37011 0.13661 0.50565 0.0
C798 C 0.39658 0.11879 0.54925 0.0
C799 C 0.33978 0.12125 0.5478 0.0
C800 C 0.3974 0.13006 0.52016 0.0
C801 C 0.34157 0.13246 0.51875 0.0
C802 C 0.36446 0.11774 0.68516 0.0
C803 C 0.38269 0.09184 0.72949 0.0
N804 N 0.38689 0.12039 0.74255 0.0
C805 C 0.36888 0.14682 0.69901 0.0
C806 C 0.37135 0.09002 0.70049 0.0
C807 C 0.38028 0.14766 0.72804 0.0
C808 C 0.30754 0.18443 0.62689 0.0
N809 N 0.3303 0.16988 0.61079 0.0
C810 C 0.34802 0.21915 0.5916 0.0
C811 C 0.35036 0.18649 0.59331 0.0
C812 C 0.32547 0.23509 0.60878 0.0
C813 C 0.30473 0.21719 0.6263 0.0
H814 H 0.29234 0.17062 0.64107 0.0
H815 H 0.36887 0.17463 0.58136 0.0
C816 C 0.43418 0.05724 0.62195 0.0
N817 N 0.41969 0.08043 0.63757 0.0
C818 C 0.46693 0.05438 0.62259 0.0
C819 C 0.46901 0.0985 0.65634 0.0
C820 C 0.43635 0.10086 0.6546 0.0
C821 C 0.48489 0.07552 0.63963 0.0
H822 H 0.42032 0.04173 0.60811 0.0
H823 H 0.42452 0.11967 0.66616 0.0
C824 C 0.26847 0.09218 0.60634 0.0
N825 N 0.20801 0.07889 0.58757 0.0
C826 C 0.25227 0.06638 0.618 0.0
C827 C 0.25375 0.11151 0.58546 0.0
C828 C 0.22177 0.05997 0.60816 0.0
C829 C 0.22322 0.10431 0.57615 0.0
C830 C 0.34196 0.01865 0.64209 0.0
C831 C 0.31613 0.00249 0.63044 0.0
C832 C 0.36131 0.00388 0.66293 0.0
C833 C 0.30971 0.97198 0.64026 0.0
C834 C 0.35408 0.97336 0.67223 0.0
N835 N 0.32864 0.95818 0.66081 0.0
C836 C 0.35129 0.0413 0.54835 0.0
C837 C 0.29658 0.03382 0.55487 0.0
C838 C 0.3509 0.02372 0.5224 0.0
N839 N 0.3244 0.04652 0.56379 0.0
C840 C 0.29535 0.01467 0.5296 0.0
C841 C 0.32285 0.0093 0.51281 0.0
H842 H 0.3733 0.05092 0.5562 0.0
H843 H 0.27547 0.03783 0.56759 0.0
C844 C 0.29135 0.1015 0.70024 0.0
N845 N 0.29645 0.07464 0.68471 0.0
C846 C 0.27382 0.10107 0.72622 0.0
C847 C 0.26459 0.04557 0.71888 0.0
C848 C 0.28369 0.04683 0.69358 0.0
C849 C 0.25934 0.07303 0.73576 0.0
H850 H 0.30101 0.1235 0.69243 0.0
H851 H 0.2876 0.02576 0.68078 0.0
O852 O 0.36634 0.10316 0.59152 0.0
O853 O 0.35307 0.11655 0.65682 0.0
O854 O 0.29818 0.09915 0.61596 0.0
O855 O 0.34896 0.04837 0.63249 0.0
H856 H 0.41826 0.11348 0.56084 0.0
H857 H 0.31715 0.11777 0.55819 0.0
H858 H 0.41972 0.13357 0.50912 0.0
H859 H 0.32029 0.13782 0.5066 0.0
H860 H 0.38811 0.07056 0.74163 0.0
H861 H 0.36351 0.16848 0.68742 0.0
H862 H 0.36783 0.06738 0.69013 0.0
H863 H 0.38384 0.17 0.73905 0.0
H864 H 0.36422 0.23177 0.5774 0.0
H865 H 0.28733 0.22832 0.64034 0.0
H866 H 0.47802 0.03664 0.60891 0.0
H867 H 0.48166 0.11502 0.67019 0.0
H868 H 0.26317 0.05131 0.6343 0.0
H869 H 0.26569 0.13197 0.57665 0.0
H870 H 0.20904 0.03996 0.61686 0.0
H871 H 0.21159 0.119 0.55992 0.0
H872 H 0.30106 0.01343 0.61417 0.0
H873 H 0.38179 0.0158 0.67174 0.0
H874 H 0.28967 0.95929 0.63156 0.0
H875 H 0.36878 0.96169 0.68843 0.0
H876 H 0.37268 0.02171 0.51018 0.0
H877 H 0.27315 0.00387 0.52379 0.0
H878 H 0.27189 0.12282 0.7385 0.0
H879 H 0.25374 0.02339 0.72464 0.0
Li880 Li 0.66209 0.62599 0.38148 0.0
Li881 Li 0.62215 0.58588 0.36707 0.0
Li882 Li 0.66653 0.57182 0.40033 0.0
Li883 Li 0.67634 0.58168 0.34823 0.0
C884 C 0.63074 0.61463 0.43526 0.0
N885 N 0.6284 0.6374 0.49255 0.0
C886 C 0.60173 0.61918 0.44921 0.0
C887 C 0.65855 0.62155 0.45044 0.0
C888 C 0.60105 0.63075 0.47819 0.0
C889 C 0.65688 0.63307 0.4794 0.0
C890 C 0.63346 0.61735 0.31328 0.0
C891 C 0.61519 0.59124 0.26906 0.0
N892 N 0.61085 0.61973 0.25593 0.0
C893 C 0.6289 0.64637 0.29935 0.0
C894 C 0.62663 0.58955 0.29804 0.0
C895 C 0.61742 0.64707 0.27034 0.0
C896 C 0.69094 0.68424 0.37197 0.0
N897 N 0.66768 0.66975 0.38749 0.0
C898 C 0.64941 0.71907 0.40607 0.0
C899 C 0.64711 0.68641 0.40438 0.0
C900 C 0.67247 0.73496 0.38946 0.0
C901 C 0.69374 0.717 0.37256 0.0
H902 H 0.70656 0.67038 0.35824 0.0
H903 H 0.62825 0.67457 0.41586 0.0
C904 C 0.56393 0.55691 0.37662 0.0
N905 N 0.57839 0.58014 0.36104 0.0
C906 C 0.53118 0.55404 0.37602 0.0
C907 C 0.52905 0.59824 0.34236 0.0
C908 C 0.56171 0.60061 0.34407 0.0
C909 C 0.51319 0.57522 0.35904 0.0
H910 H 0.57781 0.54137 0.39041 0.0
H911 H 0.57352 0.61945 0.33254 0.0
C912 C 0.72967 0.59219 0.39197 0.0
N913 N 0.79022 0.57903 0.41055 0.0
C914 C 0.74583 0.56635 0.38034 0.0
C915 C 0.74447 0.61163 0.41271 0.0
C916 C 0.77639 0.56001 0.39009 0.0
C917 C 0.77504 0.60449 0.42193 0.0
C918 C 0.65622 0.51847 0.35653 0.0
C919 C 0.6821 0.50236 0.36813 0.0
C920 C 0.63684 0.50365 0.33575 0.0
C921 C 0.68855 0.47185 0.35831 0.0
C922 C 0.64409 0.47313 0.32646 0.0
N923 N 0.66959 0.45801 0.33782 0.0
C924 C 0.64706 0.54154 0.45039 0.0
C925 C 0.7017 0.53383 0.44362 0.0
C926 C 0.64752 0.524 0.47636 0.0
N927 N 0.67388 0.54661 0.4348 0.0
C928 C 0.70299 0.51471 0.46892 0.0
C929 C 0.67556 0.50947 0.48583 0.0
H930 H 0.62505 0.55122 0.44262 0.0
H931 H 0.72276 0.53772 0.43079 0.0
C932 C 0.70663 0.60135 0.29824 0.0
N933 N 0.70158 0.57447 0.31376 0.0
C934 C 0.72415 0.60099 0.27226 0.0
C935 C 0.73348 0.5455 0.27955 0.0
C936 C 0.71439 0.54669 0.30486 0.0
C937 C 0.73868 0.57298 0.2627 0.0
H938 H 0.69692 0.62333 0.30607 0.0
H939 H 0.71052 0.5256 0.31764 0.0
O940 O 0.63178 0.6031 0.40697 0.0
O941 O 0.64492 0.61629 0.3416 0.0
O942 O 0.6999 0.5991 0.38244 0.0
O943 O 0.6492 0.54818 0.36612 0.0
H944 H 0.58 0.61381 0.43773 0.0
H945 H 0.68113 0.61793 0.44001 0.0
H946 H 0.57877 0.63443 0.48927 0.0
H947 H 0.67822 0.63851 0.49142 0.0
H948 H 0.60981 0.5699 0.257 0.0
H949 H 0.63422 0.66809 0.31087 0.0
H950 H 0.63025 0.56696 0.30846 0.0
H951 H 0.61374 0.66936 0.25928 0.0
H952 H 0.63279 0.73173 0.41981 0.0
H953 H 0.71155 0.72809 0.35895 0.0
H954 H 0.52011 0.53626 0.38968 0.0
H955 H 0.51637 0.61479 0.32856 0.0
H956 H 0.73488 0.55121 0.36414 0.0
H957 H 0.73255 0.63212 0.42149 0.0
H958 H 0.78909 0.53997 0.38141 0.0
H959 H 0.78674 0.61926 0.43806 0.0
H960 H 0.6972 0.51333 0.38436 0.0
H961 H 0.61631 0.51552 0.32699 0.0
H962 H 0.70864 0.4592 0.36697 0.0
H963 H 0.62937 0.46142 0.3103 0.0
H964 H 0.6258 0.5221 0.48869 0.0
H965 H 0.72517 0.50383 0.47464 0.0
H966 H 0.72603 0.62275 0.25999 0.0
H967 H 0.74438 0.52334 0.27376 0.0
Li968 Li 0.1667 0.92627 0.09814 0.0
Li969 Li 0.17636 0.91638 0.15026 0.0
Li970 Li 0.16231 0.87207 0.11692 0.0
Li971 Li 0.12226 0.91209 0.13124 0.0
C972 C 0.22983 0.90596 0.10658 0.0
N973 N 0.29039 0.91914 0.08802 0.0
C974 C 0.24597 0.93183 0.11818 0.0
C975 C 0.24467 0.8865 0.08588 0.0
C976 C 0.27652 0.93818 0.10843 0.0
C977 C 0.27524 0.89365 0.07666 0.0
C978 C 0.15619 0.97957 0.1419 0.0
C979 C 0.14394 0.02493 0.1719 0.0
N980 N 0.16945 0.04007 0.16057 0.0
C981 C 0.18209 0.9957 0.13033 0.0
C982 C 0.13674 0.99439 0.16263 0.0
C983 C 0.18848 0.02622 0.14013 0.0
C984 C 0.14717 0.95665 0.0482 0.0
N985 N 0.17403 0.95154 0.06371 0.0
C986 C 0.20306 0.98346 0.02956 0.0
C987 C 0.20184 0.96432 0.05484 0.0
C988 C 0.17558 0.98873 0.01272 0.0
C989 C 0.14756 0.97421 0.02225 0.0
H990 H 0.12517 0.94696 0.05601 0.0
H991 H 0.22292 0.96039 0.06762 0.0
C992 C 0.20633 0.89682 0.2005 0.0
N993 N 0.20148 0.92363 0.18482 0.0
C994 C 0.22379 0.89725 0.22652 0.0
C995 C 0.23345 0.95263 0.21895 0.0
C996 C 0.21441 0.95139 0.1936 0.0
C997 C 0.23847 0.92522 0.23595 0.0
H998 H 0.19654 0.87484 0.19277 0.0
H999 H 0.2107 0.97243 0.1807 0.0
C1000 C 0.1311 0.88346 0.06304 0.0
N1001 N 0.12899 0.86083 0.0057 0.0
C1002 C 0.10215 0.87889 0.04901 0.0
C1003 C 0.15897 0.87663 0.04793 0.0
C1004 C 0.10158 0.86739 0.02 0.0
C1005 C 0.15742 0.86518 0.01894 0.0
C1006 C 0.13324 0.88066 0.18499 0.0
C1007 C 0.1284 0.85164 0.19883 0.0
C1008 C 0.12635 0.90846 0.20018 0.0
C1009 C 0.11658 0.85095 0.22772 0.0
C1010 C 0.11458 0.90679 0.22904 0.0
N1011 N 0.10997 0.87831 0.2421 0.0
C1012 C 0.19115 0.81383 0.12653 0.0
C1013 C 0.14753 0.81166 0.09387 0.0
C1014 C 0.19397 0.78107 0.12595 0.0
N1015 N 0.16799 0.82832 0.11089 0.0
C1016 C 0.14985 0.77899 0.09219 0.0
C1017 C 0.17281 0.76311 0.10893 0.0
H1018 H 0.20668 0.82769 0.14035 0.0
H1019 H 0.12874 0.82349 0.0823 0.0
C1020 C 0.0641 0.94144 0.12218 0.0
N1021 N 0.07851 0.91777 0.13721 0.0
C1022 C 0.03134 0.94431 0.1228 0.0
C1023 C 0.02912 0.89919 0.15535 0.0
C1024 C 0.06178 0.89684 0.15364 0.0
C1025 C 0.01331 0.92268 0.13922 0.0
H1026 H 0.07802 0.95736 0.10882 0.0
H1027 H 0.07357 0.87767 0.16471 0.0
O1028 O 0.20007 0.89904 0.1161 0.0
O1029 O 0.14923 0.94984 0.13232 0.0
O1030 O 0.13203 0.89493 0.09136 0.0
O1031 O 0.14497 0.8817 0.15677 0.0
H1032 H 0.23499 0.94699 0.13435 0.0
H1033 H 0.23278 0.86598 0.07713 0.0
H1034 H 0.2892 0.95826 0.11709 0.0
H1035 H 0.28696 0.87886 0.06057 0.0
H1036 H 0.12916 0.03664 0.18801 0.0
H1037 H 0.19723 0.98473 0.11415 0.0
H1038 H 0.11621 0.98251 0.17135 0.0
H1039 H 0.20857 0.03889 0.1315 0.0
H1040 H 0.22523 0.99434 0.02379 0.0
H1041 H 0.12581 0.97614 0.00998 0.0
H1042 H 0.22553 0.87555 0.23891 0.0
H1043 H 0.24447 0.97476 0.22463 0.0
H1044 H 0.08037 0.8842 0.06043 0.0
H1045 H 0.18151 0.88027 0.05843 0.0
H1046 H 0.07934 0.8637 0.00884 0.0
H1047 H 0.17881 0.85981 0.00697 0.0
H1048 H 0.13374 0.82991 0.18735 0.0
H1049 H 0.13018 0.93105 0.18983 0.0
H1050 H 0.11268 0.82867 0.23873 0.0
H1051 H 0.10915 0.92813 0.24107 0.0
H1052 H 0.2117 0.76998 0.13965 0.0
H1053 H 0.13332 0.76633 0.07836 0.0
H1054 H 0.02031 0.96248 0.10958 0.0
H1055 H 0.01641 0.88228 0.16872 0.0
Li1056 Li 0.83594 0.62611 0.11687 0.0
Li1057 Li 0.87594 0.5861 0.13147 0.0
Li1058 Li 0.83163 0.57185 0.0982 0.0
Li1059 Li 0.82171 0.58185 0.15024 0.0
C1060 C 0.86751 0.61442 0.06313 0.0
N1061 N 0.87011 0.63658 0.00564 0.0
C1062 C 0.89658 0.61877 0.04924 0.0
C1063 C 0.83977 0.62124 0.04779 0.0
C1064 C 0.8974 0.63003 0.02016 0.0
C1065 C 0.84157 0.63244 0.01874 0.0
C1066 C 0.86444 0.61774 0.18516 0.0
C1067 C 0.88267 0.59185 0.22949 0.0
N1068 N 0.88687 0.62039 0.24256 0.0
C1069 C 0.86885 0.64682 0.199 0.0
C1070 C 0.87133 0.59002 0.20049 0.0
C1071 C 0.88025 0.64767 0.22804 0.0
C1072 C 0.80752 0.68443 0.12688 0.0
N1073 N 0.83029 0.66988 0.11078 0.0
C1074 C 0.84801 0.71915 0.0916 0.0
C1075 C 0.85035 0.68648 0.09331 0.0
C1076 C 0.82546 0.73509 0.10877 0.0
C1077 C 0.8047 0.71718 0.12628 0.0
H1078 H 0.79231 0.67061 0.14105 0.0
H1079 H 0.86887 0.67462 0.08137 0.0
C1080 C 0.93417 0.55726 0.12193 0.0
N1081 N 0.91969 0.58043 0.13757 0.0
C1082 C 0.96693 0.5544 0.12257 0.0
C1083 C 0.969 0.59849 0.15636 0.0
C1084 C 0.93634 0.60085 0.15462 0.0
C1085 C 0.98488 0.57552 0.13963 0.0
H1086 H 0.92032 0.54176 0.10808 0.0
H1087 H 0.92451 0.61965 0.16619 0.0
C1088 C 0.76846 0.59216 0.10634 0.0
N1089 N 0.708 0.57887 0.08757 0.0
C1090 C 0.75226 0.56636 0.118 0.0
C1091 C 0.75374 0.6115 0.08546 0.0
C1092 C 0.72176 0.55996 0.10815 0.0
C1093 C 0.72322 0.60429 0.07614 0.0
C1094 C 0.84195 0.51865 0.14209 0.0
C1095 C 0.81613 0.50249 0.13044 0.0
C1096 C 0.8613 0.50388 0.16294 0.0
C1097 C 0.8097 0.47198 0.14026 0.0
C1098 C 0.85407 0.47336 0.17223 0.0
N1099 N 0.82863 0.45818 0.16082 0.0
C1100 C 0.85129 0.54128 0.04836 0.0
C1101 C 0.79658 0.53382 0.05486 0.0
C1102 C 0.8509 0.5237 0.02241 0.0
N1103 N 0.8244 0.54651 0.06379 0.0
C1104 C 0.79535 0.51466 0.0296 0.0
C1105 C 0.82285 0.50929 0.01281 0.0
H1106 H 0.87329 0.55091 0.05621 0.0
H1107 H 0.77547 0.53783 0.06758 0.0
C1108 C 0.79133 0.60149 0.20023 0.0
N1109 N 0.79644 0.57464 0.1847 0.0
C1110 C 0.7738 0.60107 0.22622 0.0
C1111 C 0.76459 0.54557 0.21888 0.0
C1112 C 0.78368 0.54683 0.19358 0.0
C1113 C 0.75933 0.57302 0.23575 0.0
H1114 H 0.80099 0.6235 0.19243 0.0
H1115 H 0.7876 0.52575 0.18078 0.0
O1116 O 0.86633 0.60316 0.09152 0.0
O1117 O 0.85306 0.61655 0.15682 0.0
O1118 O 0.79817 0.59914 0.11596 0.0
O1119 O 0.84895 0.54836 0.13249 0.0
H1120 H 0.91825 0.61345 0.06084 0.0
H1121 H 0.81714 0.61778 0.05818 0.0
H1122 H 0.91972 0.63354 0.00912 0.0
H1123 H 0.82029 0.63781 0.0066 0.0
H1124 H 0.88809 0.57057 0.24163 0.0
H1125 H 0.86349 0.66849 0.18742 0.0
H1126 H 0.86782 0.56738 0.19013 0.0
H1127 H 0.88381 0.67 0.23905 0.0
H1128 H 0.86422 0.73177 0.0774 0.0
H1129 H 0.78731 0.72832 0.14032 0.0
H1130 H 0.97802 0.53666 0.10888 0.0
H1131 H 0.98166 0.61499 0.17022 0.0
H1132 H 0.76317 0.5513 0.1343 0.0
H1133 H 0.76568 0.63196 0.07664 0.0
H1134 H 0.70904 0.53994 0.11687 0.0
H1135 H 0.71158 0.61897 0.05991 0.0
H1136 H 0.80105 0.51342 0.11417 0.0
H1137 H 0.88178 0.5158 0.17175 0.0
H1138 H 0.78966 0.45928 0.13156 0.0
H1139 H 0.86877 0.46169 0.18844 0.0
H1140 H 0.87268 0.5217 0.0102 0.0
H1141 H 0.77315 0.50387 0.02379 0.0
H1142 H 0.77187 0.62281 0.2385 0.0
H1143 H 0.75374 0.52338 0.22464 0.0
Li1144 Li 0.12215 0.08588 0.86707 0.0
Li1145 Li 0.1621 0.12599 0.88149 0.0
Li1146 Li 0.17635 0.08168 0.84824 0.0
Li1147 Li 0.16654 0.07182 0.90033 0.0
C1148 C 0.13349 0.11737 0.81328 0.0
N1149 N 0.11089 0.11977 0.75593 0.0
C1150 C 0.12894 0.14639 0.79937 0.0
C1151 C 0.12665 0.08958 0.79804 0.0
C1152 C 0.11746 0.14711 0.77035 0.0
C1153 C 0.11523 0.09128 0.76906 0.0
C1154 C 0.13074 0.11461 0.93527 0.0
C1155 C 0.15686 0.13303 0.97942 0.0
N1156 N 0.12838 0.13734 0.99257 0.0
C1157 C 0.10173 0.11914 0.94921 0.0
C1158 C 0.15854 0.12153 0.95046 0.0
C1159 C 0.10103 0.1307 0.9782 0.0
C1160 C 0.06394 0.05693 0.87664 0.0
N1161 N 0.0784 0.08014 0.86104 0.0
C1162 C 0.02906 0.09823 0.84234 0.0
C1163 C 0.06172 0.1006 0.84405 0.0
C1164 C 0.0132 0.07522 0.85904 0.0
C1165 C 0.03118 0.05406 0.87604 0.0
H1166 H 0.07782 0.0414 0.89044 0.0
H1167 H 0.07353 0.11943 0.8325 0.0
C1168 C 0.19093 0.18424 0.87197 0.0
N1169 N 0.16769 0.16975 0.88751 0.0
C1170 C 0.19374 0.217 0.87256 0.0
C1171 C 0.14943 0.21907 0.90611 0.0
C1172 C 0.14714 0.18641 0.90442 0.0
C1173 C 0.17248 0.23496 0.88948 0.0
H1174 H 0.20654 0.17038 0.85823 0.0
H1175 H 0.12829 0.17456 0.91591 0.0
C1176 C 0.15623 0.01847 0.85652 0.0
N1177 N 0.16962 0.95802 0.8378 0.0
C1178 C 0.18211 0.00236 0.86813 0.0
C1179 C 0.13686 0.00366 0.83573 0.0
C1180 C 0.18857 0.97186 0.85831 0.0
C1181 C 0.14412 0.97314 0.82643 0.0
C1182 C 0.22967 0.09218 0.89198 0.0
C1183 C 0.24584 0.06634 0.88035 0.0
C1184 C 0.24447 0.11161 0.91273 0.0
C1185 C 0.27639 0.06 0.8901 0.0
C1186 C 0.27504 0.10446 0.92196 0.0
N1187 N 0.29022 0.079 0.91057 0.0
C1188 C 0.20665 0.10136 0.79825 0.0
C1189 C 0.2144 0.0467 0.80486 0.0
C1190 C 0.22417 0.10099 0.77227 0.0
N1191 N 0.2016 0.07448 0.81376 0.0
C1192 C 0.23349 0.04551 0.77955 0.0
C1193 C 0.23869 0.07299 0.7627 0.0
H1194 H 0.19694 0.12334 0.80608 0.0
H1195 H 0.21053 0.0256 0.81764 0.0
C1196 C 0.14705 0.04152 0.95038 0.0
N1197 N 0.17388 0.0466 0.9348 0.0
C1198 C 0.14751 0.02398 0.97635 0.0
C1199 C 0.20299 0.01471 0.96892 0.0
C1200 C 0.2017 0.03382 0.94363 0.0
C1201 C 0.17555 0.00946 0.98583 0.0
H1202 H 0.12504 0.05119 0.9426 0.0
H1203 H 0.22276 0.03773 0.9308 0.0
O1204 O 0.14494 0.11629 0.8416 0.0
O1205 O 0.13179 0.1031 0.90697 0.0
O1206 O 0.14921 0.04818 0.86612 0.0
O1207 O 0.19991 0.0991 0.88244 0.0
H1208 H 0.13425 0.16811 0.81089 0.0
H1209 H 0.13027 0.06698 0.80845 0.0
H1210 H 0.11379 0.1694 0.75929 0.0
H1211 H 0.10985 0.06995 0.75699 0.0
H1212 H 0.1782 0.13847 0.99145 0.0
H1213 H 0.08 0.11376 0.93773 0.0
H1214 H 0.18112 0.11793 0.94003 0.0
H1215 H 0.07875 0.13435 0.98928 0.0
H1216 H 0.01638 0.11476 0.82853 0.0
H1217 H 0.02011 0.03629 0.88971 0.0
H1218 H 0.21154 0.22809 0.85894 0.0
H1219 H 0.13283 0.23173 0.91986 0.0
H1220 H 0.1972 0.01333 0.88437 0.0
H1221 H 0.11634 0.01553 0.82696 0.0
H1222 H 0.20865 0.9592 0.86697 0.0
H1223 H 0.12941 0.96144 0.81026 0.0
H1224 H 0.23488 0.05121 0.86414 0.0
H1225 H 0.23256 0.13209 0.92152 0.0
H1226 H 0.28909 0.03995 0.88142 0.0
H1227 H 0.28674 0.11922 0.9381 0.0
H1228 H 0.22605 0.12276 0.76 0.0
H1229 H 0.24438 0.02335 0.77376 0.0
H1230 H 0.12578 0.02207 0.98866 0.0
H1231 H 0.22517 0.00383 0.97466 0.0
Li1232 Li 0.66671 0.42627 0.59814 0.0
Li1233 Li 0.67637 0.41638 0.65026 0.0
Li1234 Li 0.66232 0.37207 0.6169 0.0
Li1235 Li 0.62227 0.41209 0.63123 0.0
C1236 C 0.72985 0.40596 0.60657 0.0
N1237 N 0.7904 0.41914 0.58801 0.0
C1238 C 0.74598 0.43183 0.61817 0.0
C1239 C 0.74469 0.3865 0.58587 0.0
C1240 C 0.77654 0.43818 0.60843 0.0
C1241 C 0.77525 0.39365 0.57666 0.0
C1242 C 0.6562 0.47957 0.64189 0.0
C1243 C 0.64395 0.52493 0.67189 0.0
N1244 N 0.66947 0.54007 0.66056 0.0
C1245 C 0.6821 0.49569 0.63032 0.0
C1246 C 0.63676 0.49439 0.66262 0.0
C1247 C 0.68849 0.52622 0.64013 0.0
C1248 C 0.64718 0.45667 0.54821 0.0
N1249 N 0.67405 0.45155 0.56371 0.0
C1250 C 0.70308 0.48346 0.52956 0.0
C1251 C 0.70185 0.46432 0.55483 0.0
C1252 C 0.67559 0.48875 0.51272 0.0
C1253 C 0.64757 0.47424 0.52226 0.0
H1254 H 0.62519 0.44698 0.55603 0.0
H1255 H 0.72295 0.46038 0.5676 0.0
C1256 C 0.70632 0.39682 0.70051 0.0
N1257 N 0.70148 0.42362 0.68482 0.0
C1258 C 0.72378 0.39725 0.72653 0.0
C1259 C 0.73346 0.45263 0.71894 0.0
C1260 C 0.71442 0.45139 0.6936 0.0
C1261 C 0.73846 0.42522 0.73595 0.0
H1262 H 0.69653 0.37484 0.69277 0.0
H1263 H 0.71071 0.47242 0.68068 0.0
C1264 C 0.63112 0.38348 0.56303 0.0
N1265 N 0.62901 0.36087 0.50567 0.0
C1266 C 0.60217 0.37892 0.54898 0.0
C1267 C 0.65899 0.37664 0.54791 0.0
C1268 C 0.6016 0.36743 0.51997 0.0
C1269 C 0.65744 0.36521 0.51892 0.0
C1270 C 0.63324 0.38065 0.68497 0.0
C1271 C 0.62839 0.35163 0.69881 0.0
C1272 C 0.62634 0.40845 0.70016 0.0
C1273 C 0.61656 0.35093 0.7277 0.0
C1274 C 0.61456 0.40678 0.72902 0.0
N1275 N 0.60994 0.37829 0.74207 0.0
C1276 C 0.69115 0.31383 0.62653 0.0
C1277 C 0.64757 0.31166 0.59384 0.0
C1278 C 0.69397 0.28107 0.62595 0.0
N1279 N 0.66801 0.32832 0.61087 0.0
C1280 C 0.64989 0.27899 0.59215 0.0
C1281 C 0.67283 0.26311 0.60891 0.0
H1282 H 0.70667 0.32769 0.64036 0.0
H1283 H 0.62878 0.32349 0.58225 0.0
C1284 C 0.56411 0.44145 0.62218 0.0
N1285 N 0.57852 0.41777 0.63719 0.0
C1286 C 0.53136 0.44432 0.62279 0.0
C1287 C 0.52913 0.39918 0.65531 0.0
C1288 C 0.56178 0.39683 0.6536 0.0
C1289 C 0.51332 0.42268 0.63919 0.0
H1290 H 0.57803 0.45738 0.60882 0.0
H1291 H 0.57357 0.37765 0.66467 0.0
O1292 O 0.70009 0.39904 0.6161 0.0
O1293 O 0.64924 0.44984 0.63232 0.0
O1294 O 0.63205 0.39493 0.59135 0.0
O1295 O 0.64498 0.38169 0.65675 0.0
H1296 H 0.735 0.44698 0.63435 0.0
H1297 H 0.73279 0.36598 0.57712 0.0
H1298 H 0.78922 0.45825 0.61709 0.0
H1299 H 0.78698 0.37886 0.56056 0.0
H1300 H 0.62918 0.53664 0.68801 0.0
H1301 H 0.69724 0.48472 0.61414 0.0
H1302 H 0.61622 0.48251 0.67135 0.0
H1303 H 0.70858 0.53888 0.63149 0.0
H1304 H 0.72525 0.49433 0.52377 0.0
H1305 H 0.62581 0.47617 0.51 0.0
H1306 H 0.72551 0.37556 0.73892 0.0
H1307 H 0.74448 0.47476 0.72462 0.0
H1308 H 0.58039 0.38423 0.5604 0.0
H1309 H 0.68153 0.38027 0.55841 0.0
H1310 H 0.57936 0.36376 0.50881 0.0
H1311 H 0.67883 0.35984 0.50695 0.0
H1312 H 0.63373 0.3299 0.68732 0.0
H1313 H 0.63018 0.43104 0.68981 0.0
H1314 H 0.61265 0.32865 0.73869 0.0
H1315 H 0.60913 0.42812 0.74105 0.0
H1316 H 0.71169 0.26998 0.63966 0.0
H1317 H 0.63337 0.26633 0.57831 0.0
H1318 H 0.52033 0.4625 0.60958 0.0
H1319 H 0.51642 0.38226 0.66868 0.0
Li1320 Li 0.32162 0.91641 0.34831 0.0
Li1321 Li 0.33162 0.92625 0.40036 0.0
Li1322 Li 0.37588 0.91215 0.36696 0.0
Li1323 Li 0.33593 0.87206 0.38151 0.0
C1324 C 0.34192 0.97958 0.35649 0.0
N1325 N 0.32869 0.04006 0.33773 0.0
C1326 C 0.31613 0.9958 0.36815 0.0
C1327 C 0.36127 0.99429 0.33563 0.0
C1328 C 0.30975 0.02631 0.3583 0.0
C1329 C 0.3541 0.02482 0.32631 0.0
C1330 C 0.26843 0.90604 0.39216 0.0
C1331 C 0.22308 0.89399 0.42224 0.0
N1332 N 0.20797 0.91947 0.41082 0.0
C1333 C 0.25234 0.93191 0.3805 0.0
C1334 C 0.2536 0.88672 0.41297 0.0
C1335 C 0.22183 0.93839 0.3903 0.0
C1336 C 0.29103 0.89676 0.29849 0.0
N1337 N 0.29629 0.92366 0.3139 0.0
C1338 C 0.26453 0.95272 0.27964 0.0
C1339 C 0.28365 0.95149 0.30493 0.0
C1340 C 0.25912 0.92521 0.26289 0.0
C1341 C 0.27346 0.89714 0.27253 0.0
H1342 H 0.30063 0.87475 0.30637 0.0
H1343 H 0.2877 0.97261 0.31763 0.0
C1344 C 0.35126 0.95651 0.45041 0.0
N1345 N 0.32441 0.95148 0.43485 0.0
C1346 C 0.35085 0.97404 0.47639 0.0
C1347 C 0.29539 0.98343 0.46899 0.0
C1348 C 0.29662 0.96432 0.44369 0.0
C1349 C 0.32284 0.98861 0.48589 0.0
H1350 H 0.37325 0.9468 0.44262 0.0
H1351 H 0.27555 0.96047 0.43087 0.0
C1352 C 0.36423 0.88059 0.3132 0.0
N1353 N 0.38637 0.87797 0.2557 0.0
C1354 C 0.36854 0.85151 0.2993 0.0
C1355 C 0.37107 0.90832 0.29786 0.0
C1356 C 0.3798 0.85069 0.27021 0.0
C1357 C 0.38227 0.90651 0.2688 0.0
C1358 C 0.36748 0.88344 0.4352 0.0
C1359 C 0.39652 0.87892 0.4491 0.0
C1360 C 0.33971 0.87654 0.45046 0.0
C1361 C 0.39727 0.86741 0.4781 0.0
C1362 C 0.34144 0.86508 0.47942 0.0
N1363 N 0.36995 0.86078 0.49253 0.0
C1364 C 0.43412 0.94092 0.37661 0.0
C1365 C 0.43625 0.89762 0.34358 0.0
C1366 C 0.46688 0.94379 0.37596 0.0
N1367 N 0.41962 0.91788 0.36082 0.0
C1368 C 0.46891 0.9 0.34183 0.0
C1369 C 0.48481 0.92282 0.35872 0.0
H1370 H 0.42028 0.95629 0.3906 0.0
H1371 H 0.42441 0.87892 0.33187 0.0
C1372 C 0.30719 0.8138 0.37182 0.0
N1373 N 0.33033 0.82828 0.3875 0.0
C1374 C 0.30438 0.78104 0.37239 0.0
C1375 C 0.34844 0.77895 0.40621 0.0
C1376 C 0.35076 0.81162 0.40454 0.0
C1377 C 0.3255 0.76307 0.38944 0.0
H1378 H 0.29168 0.82766 0.35798 0.0
H1379 H 0.36954 0.82344 0.41614 0.0
O1380 O 0.34886 0.94986 0.36612 0.0
O1381 O 0.29815 0.899 0.38258 0.0
O1382 O 0.35297 0.88177 0.34158 0.0
O1383 O 0.36637 0.89493 0.4069 0.0
H1384 H 0.30105 0.98491 0.38444 0.0
H1385 H 0.38173 0.98234 0.32682 0.0
H1386 H 0.28974 0.03905 0.367 0.0
H1387 H 0.36881 0.03645 0.31008 0.0
H1388 H 0.21137 0.87931 0.43842 0.0
H1389 H 0.26332 0.94698 0.36426 0.0
H1390 H 0.26547 0.86621 0.42178 0.0
H1391 H 0.20918 0.95846 0.3816 0.0
H1392 H 0.25378 0.97493 0.27379 0.0
H1393 H 0.27142 0.87535 0.26034 0.0
H1394 H 0.37259 0.9759 0.4887 0.0
H1395 H 0.27323 0.99435 0.47472 0.0
H1396 H 0.36321 0.82985 0.31089 0.0
H1397 H 0.36763 0.93095 0.30825 0.0
H1398 H 0.38328 0.82836 0.25917 0.0
H1399 H 0.38765 0.92779 0.25666 0.0
H1400 H 0.41822 0.88429 0.43757 0.0
H1401 H 0.3171 0.88013 0.44006 0.0
H1402 H 0.41958 0.86376 0.48914 0.0
H1403 H 0.32013 0.85965 0.4915 0.0
H1404 H 0.47798 0.96141 0.38977 0.0
H1405 H 0.48156 0.88361 0.32783 0.0
H1406 H 0.28667 0.76996 0.35866 0.0
H1407 H 0.36494 0.76629 0.42006 0.0
loop_
_geom_bond_atom_site_label_1
_geom_bond_atom_site_label_2
_geom_bond_distance
_geom_bond_site_symmetry_2
_ccdc_geom_bond_type
Li0 N17 1.990 . S
Li0 O60 1.956 . S
Li0 O61 1.970 . S
Li0 O62 1.961 . S
Li1 N25 1.990 . S
Li1 O60 1.970 . S
Li1 O61 1.956 . S
Li1 O63 1.961 . S
Li2 N47 1.990 . S
Li2 O60 1.961 . S
Li2 O62 1.956 . S
Li2 O63 1.970 . S
Li3 N53 1.990 . S
Li3 O61 1.961 . S
Li3 O62 1.970 . S
Li3 O63 1.956 . S
C4 C6 1.348 . S
C4 C7 1.356 . S
C4 O60 1.325 . S
N5 C8 1.314 . S
N5 C9 1.279 . S
C6 C4 1.348 . S
C6 C8 1.353 . S
C6 H64 0.929 . S
C7 C4 1.356 . S
C7 C9 1.358 . S
C7 H65 0.930 . S
C8 N5 1.314 . S
C8 C6 1.353 . S
C8 H66 0.930 . S
C9 N5 1.279 . S
C9 C7 1.358 . S
C9 H67 0.930 . S
C10 C13 1.348 . S
C10 C14 1.356 . S
C10 O61 1.325 . S
C11 N12 1.279 . S
C11 C14 1.358 . S
C11 H68 0.930 . S
N12 C11 1.279 . S
N12 C15 1.314 . S
C13 C10 1.348 . S
C13 C15 1.353 . S
C13 H69 0.929 . S
C14 C10 1.356 . S
C14 C11 1.358 . S
C14 H70 0.930 . S
C15 N12 1.314 . S
C15 C13 1.353 . S
C15 H71 0.930 . S
C16 N17 1.314 . S
C16 C21 1.353 . S
C16 H22 0.930 . S
N17 Li0 1.990 . S
N17 C16 1.314 . S
N17 C19 1.279 . S
C18 C19 1.358 . S
C18 C20 1.356 . S
C18 H72 0.930 . S
C19 N17 1.279 . S
C19 C18 1.358 . S
C19 H23 0.930 . S
C20 C18 1.356 . S
C20 C21 1.348 . S
C21 C16 1.353 . S
C21 C20 1.348 . S
C21 H73 0.929 . S
H22 C16 0.930 . S
H23 C19 0.930 . S
C24 N25 1.314 . S
C24 C26 1.353 . S
C24 H30 0.930 . S
N25 Li1 1.990 . S
N25 C24 1.314 . S
N25 C28 1.279 . S
C26 C24 1.353 . S
C26 C29 1.348 . S
C26 H74 0.929 . S
C27 C28 1.358 . S
C27 C29 1.356 . S
C27 H75 0.930 . S
C28 N25 1.279 . S
C28 C27 1.358 . S
C28 H31 0.930 . S
C29 C26 1.348 . S
C29 C27 1.356 . S
H30 C24 0.930 . S
H31 C28 0.930 . S
C32 C34 1.348 . S
C32 C35 1.356 . S
C32 O62 1.325 . S
N33 C36 1.314 . S
N33 C37 1.279 . S
C34 C32 1.348 . S
C34 C36 1.353 . S
C34 H76 0.929 . S
C35 C32 1.356 . S
C35 C37 1.358 . S
C35 H77 0.930 . S
C36 N33 1.314 . S
C36 C34 1.353 . S
C36 H78 0.930 . S
C37 N33 1.279 . S
C37 C35 1.358 . S
C37 H79 0.930 . S
C38 C39 1.348 . S
C38 C40 1.356 . S
C38 O63 1.325 . S
C39 C38 1.348 . S
C39 C41 1.353 . S
C39 H80 0.929 . S
C40 C38 1.356 . S
C40 C42 1.358 . S
C40 H81 0.930 . S
C41 C39 1.353 . S
C41 N43 1.314 . S
C41 H82 0.930 . S
C42 C40 1.358 . S
C42 N43 1.279 . S
C42 H83 0.930 . S
N43 C41 1.314 . S
N43 C42 1.279 . S
C44 C46 1.353 . S
C44 N47 1.314 . S
C44 H50 0.930 . S
C45 N47 1.279 . S
C45 C48 1.358 . S
C45 H51 0.930 . S
C46 C44 1.353 . S
C46 C49 1.348 . S
C46 H84 0.929 . S
N47 Li2 1.990 . S
N47 C44 1.314 . S
N47 C45 1.279 . S
C48 C45 1.358 . S
C48 C49 1.356 . S
C48 H85 0.930 1_554 S
C49 C46 1.348 . S
C49 C48 1.356 . S
H50 C44 0.930 . S
H51 C45 0.930 . S
C52 N53 1.314 . S
C52 C54 1.353 . S
C52 H58 0.930 . S
N53 Li3 1.990 . S
N53 C52 1.314 . S
N53 C56 1.279 . S
C54 C52 1.353 . S
C54 C57 1.348 . S
C54 H86 0.929 . S
C55 C56 1.358 . S
C55 C57 1.356 . S
C55 H87 0.930 . S
C56 N53 1.279 . S
C56 C55 1.358 . S
C56 H59 0.930 . S
C57 C54 1.348 . S
C57 C55 1.356 . S
H58 C52 0.930 . S
H59 C56 0.930 . S
O60 Li0 1.956 . S
O60 Li1 1.970 . S
O60 Li2 1.961 . S
O60 C4 1.325 . S
O61 Li0 1.970 . S
O61 Li1 1.956 . S
O61 Li3 1.961 . S
O61 C10 1.325 . S
O62 Li0 1.961 . S
O62 Li2 1.956 . S
O62 Li3 1.970 . S
O62 C32 1.325 . S
O63 Li1 1.961 . S
O63 Li2 1.970 . S
O63 Li3 1.956 . S
O63 C38 1.325 . S
H64 C6 0.929 . S
H65 C7 0.930 . S
H66 C8 0.930 . S
H67 C9 0.930 . S
H68 C11 0.930 . S
H69 C13 0.929 . S
H70 C14 0.930 . S
H71 C15 0.930 . S
H72 C18 0.930 . S
H73 C21 0.929 . S
H74 C26 0.929 . S
H75 C27 0.930 . S
H76 C34 0.929 . S
H77 C35 0.930 . S
H78 C36 0.930 . S
H79 C37 0.930 . S
H80 C39 0.929 . S
H81 C40 0.930 . S
H82 C41 0.930 . S
H83 C42 0.930 . S
H84 C46 0.929 . S
H85 C48 0.930 1_556 S
H86 C54 0.929 . S
H87 C55 0.930 . S
Li88 N105 1.990 . S
Li88 O148 1.956 . S
Li88 O149 1.970 . S
Li88 O150 1.961 . S
Li89 N113 1.990 . S
Li89 O148 1.970 . S
Li89 O149 1.956 . S
Li89 O151 1.961 . S
Li90 N135 1.990 . S
Li90 O148 1.961 . S
Li90 O150 1.956 . S
Li90 O151 1.970 . S
Li91 N141 1.990 . S
Li91 O149 1.961 . S
Li91 O150 1.970 . S
Li91 O151 1.956 . S
C92 C94 1.348 1_565 S
C92 C95 1.356 . S
C92 O148 1.325 . S
N93 C96 1.314 . S
N93 C97 1.279 . S
C94 C92 1.348 1_545 S
C94 C96 1.353 . S
C94 H152 0.929 . S
C95 C92 1.356 . S
C95 C97 1.358 1_565 S
C95 H153 0.930 . S
C96 N93 1.314 . S
C96 C94 1.353 . S
C96 H154 0.930 . S
C97 N93 1.279 . S
C97 C95 1.358 1_545 S
C97 H155 0.930 . S
C98 C101 1.348 . S
C98 C102 1.356 . S
C98 O149 1.325 . S
C99 N100 1.279 . S
C99 C102 1.358 . S
C99 H156 0.930 . S
N100 C99 1.279 . S
N100 C103 1.314 . S
C101 C98 1.348 . S
C101 C103 1.353 . S
C101 H157 0.929 . S
C102 C98 1.356 . S
C102 C99 1.358 . S
C102 H158 0.930 . S
C103 N100 1.314 . S
C103 C101 1.353 . S
C103 H159 0.930 . S
C104 N105 1.314 . S
C104 C109 1.353 . S
C104 H110 0.930 . S
N105 Li88 1.990 . S
N105 C104 1.314 . S
N105 C107 1.279 . S
C106 C107 1.358 . S
C106 C108 1.356 . S
C106 H160 0.930 . S
C107 N105 1.279 . S
C107 C106 1.358 . S
C107 H111 0.930 . S
C108 C106 1.356 . S
C108 C109 1.348 . S
C109 C104 1.353 . S
C109 C108 1.348 . S
C109 H161 0.929 . S
H110 C104 0.930 . S
H111 C107 0.930 . S
C112 N113 1.314 . S
C112 C114 1.353 . S
C112 H118 0.930 . S
N113 Li89 1.990 . S
N113 C112 1.314 . S
N113 C116 1.279 . S
C114 C112 1.353 . S
C114 C117 1.348 . S
C114 H162 0.929 1_565 S
C115 C116 1.358 . S
C115 C117 1.356 . S
C115 H163 0.930 . S
C116 N113 1.279 . S
C116 C115 1.358 . S
C116 H119 0.930 . S
C117 C114 1.348 . S
C117 C115 1.356 . S
H118 C112 0.930 . S
H119 C116 0.930 . S
C120 C122 1.348 . S
C120 C123 1.356 . S
C120 O150 1.325 . S
N121 C124 1.314 . S
N121 C125 1.279 . S
C122 C120 1.348 . S
C122 C124 1.353 . S
C122 H164 0.929 . S
C123 C120 1.356 . S
C123 C125 1.358 . S
C123 H165 0.930 . S
C124 N121 1.314 . S
C124 C122 1.353 . S
C124 H166 0.930 . S
C125 N121 1.279 . S
C125 C123 1.358 . S
C125 H167 0.930 . S
C126 C127 1.348 . S
C126 C128 1.356 . S
C126 O151 1.325 . S
C127 C126 1.348 . S
C127 C129 1.353 . S
C127 H168 0.929 . S
C128 C126 1.356 . S
C128 C130 1.358 . S
C128 H169 0.930 . S
C129 C127 1.353 . S
C129 N131 1.314 . S
C129 H170 0.930 . S
C130 C128 1.358 . S
C130 N131 1.279 . S
C130 H171 0.930 . S
N131 C129 1.314 . S
N131 C130 1.279 . S
C132 C134 1.353 . S
C132 N135 1.314 . S
C132 H138 0.930 . S
C133 N135 1.279 . S
C133 C136 1.358 . S
C133 H139 0.930 . S
C134 C132 1.353 . S
C134 C137 1.348 . S
C134 H172 0.929 . S
N135 Li90 1.990 . S
N135 C132 1.314 . S
N135 C133 1.279 . S
C136 C133 1.358 . S
C136 C137 1.356 . S
C136 H173 0.930 . S
C137 C134 1.348 . S
C137 C136 1.356 . S
H138 C132 0.930 . S
H139 C133 0.930 . S
C140 N141 1.314 . S
C140 C142 1.353 . S
C140 H146 0.930 . S
N141 Li91 1.990 . S
N141 C140 1.314 . S
N141 C144 1.279 . S
C142 C140 1.353 . S
C142 C145 1.348 . S
C142 H174 0.929 . S
C143 C144 1.358 . S
C143 C145 1.356 . S
C143 H175 0.930 . S
C144 N141 1.279 . S
C144 C143 1.358 . S
C144 H147 0.930 . S
C145 C142 1.348 . S
C145 C143 1.356 . S
H146 C140 0.930 . S
H147 C144 0.930 . S
O148 Li88 1.956 . S
O148 Li89 1.970 . S
O148 Li90 1.961 . S
O148 C92 1.325 . S
O149 Li88 1.970 . S
O149 Li89 1.956 . S
O149 Li91 1.961 . S
O149 C98 1.325 . S
O150 Li88 1.961 . S
O150 Li90 1.956 . S
O150 Li91 1.970 . S
O150 C120 1.325 . S
O151 Li89 1.961 . S
O151 Li90 1.970 . S
O151 Li91 1.956 . S
O151 C126 1.325 . S
H152 C94 0.929 . S
H153 C95 0.930 . S
H154 C96 0.930 . S
H155 C97 0.930 . S
H156 C99 0.930 . S
H157 C101 0.929 . S
H158 C102 0.930 . S
H159 C103 0.930 . S
H160 C106 0.930 . S
H161 C109 0.929 . S
H162 C114 0.929 1_545 S
H163 C115 0.930 . S
H164 C122 0.929 . S
H165 C123 0.930 . S
H166 C124 0.930 . S
H167 C125 0.930 . S
H168 C127 0.929 . S
H169 C128 0.930 . S
H170 C129 0.930 . S
H171 C130 0.930 . S
H172 C134 0.929 . S
H173 C136 0.930 . S
H174 C142 0.929 . S
H175 C143 0.930 . S
Li176 N193 1.990 . S
Li176 O236 1.956 . S
Li176 O237 1.970 . S
Li176 O238 1.961 . S
Li177 N201 1.990 . S
Li177 O236 1.970 . S
Li177 O237 1.956 . S
Li177 O239 1.961 . S
Li178 N223 1.990 . S
Li178 O236 1.961 . S
Li178 O238 1.956 . S
Li178 O239 1.970 . S
Li179 N229 1.990 . S
Li179 O237 1.961 . S
Li179 O238 1.970 . S
Li179 O239 1.956 . S
C180 C182 1.348 . S
C180 C183 1.356 . S
C180 O236 1.325 . S
N181 C184 1.314 . S
N181 C185 1.279 . S
C182 C180 1.348 . S
C182 C184 1.353 . S
C182 H240 0.929 . S
C183 C180 1.356 . S
C183 C185 1.358 . S
C183 H241 0.930 . S
C184 N181 1.314 . S
C184 C182 1.353 . S
C184 H242 0.930 . S
C185 N181 1.279 . S
C185 C183 1.358 . S
C185 H243 0.930 . S
C186 C189 1.348 . S
C186 C190 1.356 . S
C186 O237 1.325 . S
C187 N188 1.279 . S
C187 C190 1.358 . S
C187 H244 0.930 . S
N188 C187 1.279 . S
N188 C191 1.314 . S
C189 C186 1.348 . S
C189 C191 1.353 . S
C189 H245 0.929 . S
C190 C186 1.356 . S
C190 C187 1.358 . S
C190 H246 0.930 . S
C191 N188 1.314 . S
C191 C189 1.353 . S
C191 H247 0.930 . S
C192 N193 1.314 . S
C192 C197 1.353 . S
C192 H198 0.930 . S
N193 Li176 1.990 . S
N193 C192 1.314 . S
N193 C195 1.279 . S
C194 C195 1.358 . S
C194 C196 1.356 . S
C194 H248 0.930 . S
C195 N193 1.279 . S
C195 C194 1.358 . S
C195 H199 0.930 . S
C196 C194 1.356 . S
C196 C197 1.348 . S
C197 C192 1.353 . S
C197 C196 1.348 . S
C197 H249 0.929 . S
H198 C192 0.930 . S
H199 C195 0.930 . S
C200 N201 1.314 . S
C200 C202 1.353 . S
C200 H206 0.930 . S
N201 Li177 1.990 . S
N201 C200 1.314 . S
N201 C204 1.279 . S
C202 C200 1.353 . S
C202 C205 1.348 . S
C202 H250 0.929 . S
C203 C204 1.358 . S
C203 C205 1.356 . S
C203 H251 0.930 . S
C204 N201 1.279 . S
C204 C203 1.358 . S
C204 H207 0.930 . S
C205 C202 1.348 . S
C205 C203 1.356 . S
H206 C200 0.930 . S
H207 C204 0.930 . S
C208 C210 1.348 . S
C208 C211 1.356 . S
C208 O238 1.325 . S
N209 C212 1.314 . S
N209 C213 1.279 . S
C210 C208 1.348 . S
C210 C212 1.353 . S
C210 H252 0.929 . S
C211 C208 1.356 . S
C211 C213 1.358 . S
C211 H253 0.930 . S
C212 N209 1.314 . S
C212 C210 1.353 . S
C212 H254 0.930 . S
C213 N209 1.279 . S
C213 C211 1.358 . S
C213 H255 0.930 . S
C214 C215 1.348 . S
C214 C216 1.356 . S
C214 O239 1.325 . S
C215 C214 1.348 . S
C215 C217 1.353 . S
C215 H256 0.929 . S
C216 C214 1.356 . S
C216 C218 1.358 . S
C216 H257 0.930 . S
C217 C215 1.353 . S
C217 N219 1.314 . S
C217 H258 0.930 . S
C218 C216 1.358 . S
C218 N219 1.279 . S
C218 H259 0.930 . S
N219 C217 1.314 . S
N219 C218 1.279 . S
C220 C222 1.353 . S
C220 N223 1.314 . S
C220 H226 0.930 . S
C221 N223 1.279 . S
C221 C224 1.358 . S
C221 H227 0.930 . S
C222 C220 1.353 . S
C222 C225 1.348 . S
C222 H260 0.929 . S
N223 Li178 1.990 . S
N223 C220 1.314 . S
N223 C221 1.279 . S
C224 C221 1.358 . S
C224 C225 1.356 . S
C224 H261 0.930 . S
C225 C222 1.348 . S
C225 C224 1.356 . S
H226 C220 0.930 . S
H227 C221 0.930 . S
C228 N229 1.314 . S
C228 C230 1.353 . S
C228 H234 0.930 . S
N229 Li179 1.990 . S
N229 C228 1.314 . S
N229 C232 1.279 . S
C230 C228 1.353 . S
C230 C233 1.348 . S
C230 H262 0.929 . S
C231 C232 1.358 . S
C231 C233 1.356 . S
C231 H263 0.930 . S
C232 N229 1.279 . S
C232 C231 1.358 . S
C232 H235 0.930 . S
C233 C230 1.348 . S
C233 C231 1.356 . S
H234 C228 0.930 . S
H235 C232 0.930 . S
O236 Li176 1.956 . S
O236 Li177 1.970 . S
O236 Li178 1.961 . S
O236 C180 1.325 . S
O237 Li176 1.970 . S
O237 Li177 1.956 . S
O237 Li179 1.961 . S
O237 C186 1.325 . S
O238 Li176 1.961 . S
O238 Li178 1.956 . S
O238 Li179 1.970 . S
O238 C208 1.325 . S
O239 Li177 1.961 . S
O239 Li178 1.970 . S
O239 Li179 1.956 . S
O239 C214 1.325 . S
H240 C182 0.929 . S
H241 C183 0.930 . S
H242 C184 0.930 . S
H243 C185 0.930 . S
H244 C187 0.930 . S
H245 C189 0.929 . S
H246 C190 0.930 . S
H247 C191 0.930 . S
H248 C194 0.930 . S
H249 C197 0.929 . S
H250 C202 0.929 . S
H251 C203 0.930 . S
H252 C210 0.929 . S
H253 C211 0.930 . S
H254 C212 0.930 . S
H255 C213 0.930 . S
H256 C215 0.929 . S
H257 C216 0.930 . S
H258 C217 0.930 . S
H259 C218 0.930 . S
H260 C222 0.929 . S
H261 C224 0.930 . S
H262 C230 0.929 . S
H263 C231 0.930 . S
Li264 N281 1.990 . S
Li264 O324 1.956 . S
Li264 O325 1.970 . S
Li264 O326 1.961 . S
Li265 N289 1.990 . S
Li265 O324 1.970 . S
Li265 O325 1.956 . S
Li265 O327 1.961 . S
Li266 N311 1.990 . S
Li266 O324 1.961 . S
Li266 O326 1.956 . S
Li266 O327 1.970 . S
Li267 N317 1.990 . S
Li267 O325 1.961 . S
Li267 O326 1.970 . S
Li267 O327 1.956 . S
C268 C270 1.348 . S
C268 C271 1.356 . S
C268 O324 1.325 . S
N269 C272 1.314 . S
N269 C273 1.279 . S
C270 C268 1.348 . S
C270 C272 1.353 . S
C270 H328 0.929 . S
C271 C268 1.356 . S
C271 C273 1.358 . S
C271 H329 0.930 . S
C272 N269 1.314 . S
C272 C270 1.353 . S
C272 H330 0.930 . S
C273 N269 1.279 . S
C273 C271 1.358 . S
C273 H331 0.930 . S
C274 C277 1.348 . S
C274 C278 1.356 . S
C274 O325 1.325 . S
C275 N276 1.279 . S
C275 C278 1.358 . S
C275 H332 0.930 . S
N276 C275 1.279 . S
N276 C279 1.314 . S
C277 C274 1.348 . S
C277 C279 1.353 . S
C277 H333 0.929 . S
C278 C274 1.356 . S
C278 C275 1.358 . S
C278 H334 0.930 . S
C279 N276 1.314 . S
C279 C277 1.353 . S
C279 H335 0.930 . S
C280 N281 1.314 . S
C280 C285 1.353 . S
C280 H286 0.930 . S
N281 Li264 1.990 . S
N281 C280 1.314 . S
N281 C283 1.279 . S
C282 C283 1.358 . S
C282 C284 1.356 . S
C282 H336 0.930 . S
C283 N281 1.279 . S
C283 C282 1.358 . S
C283 H287 0.930 . S
C284 C282 1.356 . S
C284 C285 1.348 . S
C285 C280 1.353 . S
C285 C284 1.348 . S
C285 H337 0.929 . S
H286 C280 0.930 . S
H287 C283 0.930 . S
C288 N289 1.314 . S
C288 C290 1.353 . S
C288 H294 0.930 . S
N289 Li265 1.990 . S
N289 C288 1.314 . S
N289 C292 1.279 . S
C290 C288 1.353 . S
C290 C293 1.348 . S
C290 H338 0.929 . S
C291 C292 1.358 . S
C291 C293 1.356 . S
C291 H339 0.930 . S
C292 N289 1.279 . S
C292 C291 1.358 . S
C292 H295 0.930 . S
C293 C290 1.348 . S
C293 C291 1.356 . S
H294 C288 0.930 . S
H295 C292 0.930 . S
C296 C298 1.348 . S
C296 C299 1.356 . S
C296 O326 1.325 . S
N297 C300 1.314 . S
N297 C301 1.279 . S
C298 C296 1.348 . S
C298 C300 1.353 . S
C298 H340 0.929 . S
C299 C296 1.356 . S
C299 C301 1.358 . S
C299 H341 0.930 . S
C300 N297 1.314 . S
C300 C298 1.353 . S
C300 H342 0.930 . S
C301 N297 1.279 . S
C301 C299 1.358 . S
C301 H343 0.930 . S
C302 C303 1.348 1_545 S
C302 C304 1.356 . S
C302 O327 1.325 . S
C303 C302 1.348 1_565 S
C303 C305 1.353 . S
C303 H344 0.929 . S
C304 C302 1.356 . S
C304 C306 1.358 1_545 S
C304 H345 0.930 . S
C305 C303 1.353 . S
C305 N307 1.314 . S
C305 H346 0.930 . S
C306 C304 1.358 1_565 S
C306 N307 1.279 . S
C306 H347 0.930 . S
N307 C305 1.314 . S
N307 C306 1.279 . S
C308 C310 1.353 . S
C308 N311 1.314 . S
C308 H314 0.930 . S
C309 N311 1.279 . S
C309 C312 1.358 . S
C309 H315 0.930 . S
C310 C308 1.353 . S
C310 C313 1.348 . S
C310 H348 0.929 1_545 S
N311 Li266 1.990 . S
N311 C308 1.314 . S
N311 C309 1.279 . S
C312 C309 1.358 . S
C312 C313 1.356 . S
C312 H349 0.930 1_556 S
C313 C310 1.348 . S
C313 C312 1.356 . S
H314 C308 0.930 . S
H315 C309 0.930 . S
C316 N317 1.314 . S
C316 C318 1.353 . S
C316 H322 0.930 . S
N317 Li267 1.990 . S
N317 C316 1.314 . S
N317 C320 1.279 . S
C318 C316 1.353 . S
C318 C321 1.348 . S
C318 H350 0.929 . S
C319 C320 1.358 . S
C319 C321 1.356 . S
C319 H351 0.930 . S
C320 N317 1.279 . S
C320 C319 1.358 . S
C320 H323 0.930 . S
C321 C318 1.348 . S
C321 C319 1.356 . S
H322 C316 0.930 . S
H323 C320 0.930 . S
O324 Li264 1.956 . S
O324 Li265 1.970 . S
O324 Li266 1.961 . S
O324 C268 1.325 . S
O325 Li264 1.970 . S
O325 Li265 1.956 . S
O325 Li267 1.961 . S
O325 C274 1.325 . S
O326 Li264 1.961 . S
O326 Li266 1.956 . S
O326 Li267 1.970 . S
O326 C296 1.325 . S
O327 Li265 1.961 . S
O327 Li266 1.970 . S
O327 Li267 1.956 . S
O327 C302 1.325 . S
H328 C270 0.929 . S
H329 C271 0.930 . S
H330 C272 0.930 . S
H331 C273 0.930 . S
H332 C275 0.930 . S
H333 C277 0.929 . S
H334 C278 0.930 . S
H335 C279 0.930 . S
H336 C282 0.930 . S
H337 C285 0.929 . S
H338 C290 0.929 . S
H339 C291 0.930 . S
H340 C298 0.929 . S
H341 C299 0.930 . S
H342 C300 0.930 . S
H343 C301 0.930 . S
H344 C303 0.929 . S
H345 C304 0.930 . S
H346 C305 0.930 . S
H347 C306 0.930 . S
H348 C310 0.929 1_565 S
H349 C312 0.930 1_554 S
H350 C318 0.929 . S
H351 C319 0.930 . S
Li352 N369 1.990 . S
Li352 O412 1.956 . S
Li352 O413 1.970 . S
Li352 O414 1.961 . S
Li353 N377 1.990 . S
Li353 O412 1.970 . S
Li353 O413 1.956 . S
Li353 O415 1.961 . S
Li354 N399 1.990 . S
Li354 O412 1.961 . S
Li354 O414 1.956 . S
Li354 O415 1.970 . S
Li355 N405 1.990 . S
Li355 O413 1.961 . S
Li355 O414 1.970 . S
Li355 O415 1.956 . S
C356 C358 1.348 . S
C356 C359 1.356 . S
C356 O412 1.325 . S
N357 C360 1.314 . S
N357 C361 1.279 . S
C358 C356 1.348 . S
C358 C360 1.353 . S
C358 H416 0.929 . S
C359 C356 1.356 . S
C359 C361 1.358 . S
C359 H417 0.930 . S
C360 N357 1.314 . S
C360 C358 1.353 . S
C360 H418 0.930 . S
C361 N357 1.279 . S
C361 C359 1.358 . S
C361 H419 0.930 . S
C362 C365 1.348 . S
C362 C366 1.356 . S
C362 O413 1.325 . S
C363 N364 1.279 . S
C363 C366 1.358 . S
C363 H420 0.930 . S
N364 C363 1.279 . S
N364 C367 1.314 . S
C365 C362 1.348 . S
C365 C367 1.353 . S
C365 H421 0.929 . S
C366 C362 1.356 . S
C366 C363 1.358 . S
C366 H422 0.930 . S
C367 N364 1.314 . S
C367 C365 1.353 . S
C367 H423 0.930 . S
C368 N369 1.314 . S
C368 C373 1.353 . S
C368 H374 0.930 . S
N369 Li352 1.990 . S
N369 C368 1.314 . S
N369 C371 1.279 . S
C370 C371 1.358 . S
C370 C372 1.356 . S
C370 H424 0.930 . S
C371 N369 1.279 . S
C371 C370 1.358 . S
C371 H375 0.930 . S
C372 C370 1.356 . S
C372 C373 1.348 . S
C373 C368 1.353 . S
C373 C372 1.348 . S
C373 H425 0.929 . S
H374 C368 0.930 . S
H375 C371 0.930 . S
C376 N377 1.314 . S
C376 C378 1.353 . S
C376 H382 0.930 . S
N377 Li353 1.990 . S
N377 C376 1.314 . S
N377 C380 1.279 . S
C378 C376 1.353 . S
C378 C381 1.348 . S
C378 H426 0.929 . S
C379 C380 1.358 . S
C379 C381 1.356 . S
C379 H427 0.930 1_556 S
C380 N377 1.279 . S
C380 C379 1.358 . S
C380 H383 0.930 . S
C381 C378 1.348 . S
C381 C379 1.356 . S
H382 C376 0.930 . S
H383 C380 0.930 . S
C384 C386 1.348 . S
C384 C387 1.356 . S
C384 O414 1.325 . S
N385 C388 1.314 . S
N385 C389 1.279 . S
C386 C384 1.348 . S
C386 C388 1.353 . S
C386 H428 0.929 . S
C387 C384 1.356 . S
C387 C389 1.358 . S
C387 H429 0.930 . S
C388 N385 1.314 . S
C388 C386 1.353 . S
C388 H430 0.930 . S
C389 N385 1.279 . S
C389 C387 1.358 . S
C389 H431 0.930 . S
C390 C391 1.348 . S
C390 C392 1.356 . S
C390 O415 1.325 . S
C391 C390 1.348 . S
C391 C393 1.353 . S
C391 H432 0.929 . S
C392 C390 1.356 . S
C392 C394 1.358 . S
C392 H433 0.930 . S
C393 C391 1.353 . S
C393 N395 1.314 . S
C393 H434 0.930 . S
C394 C392 1.358 . S
C394 N395 1.279 . S
C394 H435 0.930 . S
N395 C393 1.314 . S
N395 C394 1.279 . S
C396 C398 1.353 . S
C396 N399 1.314 . S
C396 H402 0.930 . S
C397 N399 1.279 . S
C397 C400 1.358 . S
C397 H403 0.930 . S
C398 C396 1.353 . S
C398 C401 1.348 . S
C398 H436 0.929 . S
N399 Li354 1.990 . S
N399 C396 1.314 . S
N399 C397 1.279 . S
C400 C397 1.358 . S
C400 C401 1.356 . S
C400 H437 0.930 . S
C401 C398 1.348 . S
C401 C400 1.356 . S
H402 C396 0.930 . S
H403 C397 0.930 . S
C404 N405 1.314 . S
C404 C406 1.353 . S
C404 H410 0.930 . S
N405 Li355 1.990 . S
N405 C404 1.314 . S
N405 C408 1.279 . S
C406 C404 1.353 . S
C406 C409 1.348 . S
C406 H438 0.929 . S
C407 C408 1.358 . S
C407 C409 1.356 . S
C407 H439 0.930 . S
C408 N405 1.279 . S
C408 C407 1.358 . S
C408 H411 0.930 . S
C409 C406 1.348 . S
C409 C407 1.356 . S
H410 C404 0.930 . S
H411 C408 0.930 . S
O412 Li352 1.956 . S
O412 Li353 1.970 . S
O412 Li354 1.961 . S
O412 C356 1.325 . S
O413 Li352 1.970 . S
O413 Li353 1.956 . S
O413 Li355 1.961 . S
O413 C362 1.325 . S
O414 Li352 1.961 . S
O414 Li354 1.956 . S
O414 Li355 1.970 . S
O414 C384 1.325 . S
O415 Li353 1.961 . S
O415 Li354 1.970 . S
O415 Li355 1.956 . S
O415 C390 1.325 . S
H416 C358 0.929 . S
H417 C359 0.930 . S
H418 C360 0.930 . S
H419 C361 0.930 . S
H420 C363 0.930 . S
H421 C365 0.929 . S
H422 C366 0.930 . S
H423 C367 0.930 . S
H424 C370 0.930 . S
H425 C373 0.929 . S
H426 C378 0.929 . S
H427 C379 0.930 1_554 S
H428 C386 0.929 . S
H429 C387 0.930 . S
H430 C388 0.930 . S
H431 C389 0.930 . S
H432 C391 0.929 . S
H433 C392 0.930 . S
H434 C393 0.930 . S
H435 C394 0.930 . S
H436 C398 0.929 . S
H437 C400 0.930 . S
H438 C406 0.929 . S
H439 C407 0.930 . S
Li440 N457 1.990 . S
Li440 O500 1.956 . S
Li440 O501 1.970 . S
Li440 O502 1.961 . S
Li441 N465 1.990 . S
Li441 O500 1.970 . S
Li441 O501 1.956 . S
Li441 O503 1.961 . S
Li442 N487 1.990 . S
Li442 O500 1.961 . S
Li442 O502 1.956 . S
Li442 O503 1.970 . S
Li443 N493 1.990 . S
Li443 O501 1.961 . S
Li443 O502 1.970 . S
Li443 O503 1.956 . S
C444 C446 1.348 . S
C444 C447 1.356 . S
C444 O500 1.325 . S
N445 C448 1.314 . S
N445 C449 1.279 . S
C446 C444 1.348 . S
C446 C448 1.353 . S
C446 H504 0.929 . S
C447 C444 1.356 . S
C447 C449 1.358 . S
C447 H505 0.930 . S
C448 N445 1.314 . S
C448 C446 1.353 . S
C448 H506 0.930 . S
C449 N445 1.279 . S
C449 C447 1.358 . S
C449 H507 0.930 . S
C450 C453 1.348 1_565 S
C450 C454 1.356 . S
C450 O501 1.325 . S
C451 N452 1.279 . S
C451 C454 1.358 1_545 S
C451 H508 0.930 . S
N452 C451 1.279 . S
N452 C455 1.314 . S
C453 C450 1.348 1_545 S
C453 C455 1.353 . S
C453 H509 0.929 . S
C454 C450 1.356 . S
C454 C451 1.358 1_565 S
C454 H510 0.930 . S
C455 N452 1.314 . S
C455 C453 1.353 . S
C455 H511 0.930 . S
C456 N457 1.314 . S
C456 C461 1.353 . S
C456 H462 0.930 . S
N457 Li440 1.990 . S
N457 C456 1.314 . S
N457 C459 1.279 . S
C458 C459 1.358 . S
C458 C460 1.356 . S
C458 H512 0.930 1_554 S
C459 N457 1.279 . S
C459 C458 1.358 . S
C459 H463 0.930 . S
C460 C458 1.356 . S
C460 C461 1.348 . S
C461 C456 1.353 . S
C461 C460 1.348 . S
C461 H513 0.929 1_565 S
H462 C456 0.930 . S
H463 C459 0.930 . S
C464 N465 1.314 . S
C464 C466 1.353 . S
C464 H470 0.930 . S
N465 Li441 1.990 . S
N465 C464 1.314 . S
N465 C468 1.279 . S
C466 C464 1.353 . S
C466 C469 1.348 . S
C466 H514 0.929 . S
C467 C468 1.358 . S
C467 C469 1.356 . S
C467 H515 0.930 . S
C468 N465 1.279 . S
C468 C467 1.358 . S
C468 H471 0.930 . S
C469 C466 1.348 . S
C469 C467 1.356 . S
H470 C464 0.930 . S
H471 C468 0.930 . S
C472 C474 1.348 . S
C472 C475 1.356 . S
C472 O502 1.325 . S
N473 C476 1.314 . S
N473 C477 1.279 . S
C474 C472 1.348 . S
C474 C476 1.353 . S
C474 H516 0.929 . S
C475 C472 1.356 . S
C475 C477 1.358 . S
C475 H517 0.930 . S
C476 N473 1.314 . S
C476 C474 1.353 . S
C476 H518 0.930 . S
C477 N473 1.279 . S
C477 C475 1.358 . S
C477 H519 0.930 . S
C478 C479 1.348 . S
C478 C480 1.356 . S
C478 O503 1.325 . S
C479 C478 1.348 . S
C479 C481 1.353 . S
C479 H520 0.929 . S
C480 C478 1.356 . S
C480 C482 1.358 . S
C480 H521 0.930 . S
C481 C479 1.353 . S
C481 N483 1.314 . S
C481 H522 0.930 . S
C482 C480 1.358 . S
C482 N483 1.279 . S
C482 H523 0.930 . S
N483 C481 1.314 . S
N483 C482 1.279 . S
C484 C486 1.353 . S
C484 N487 1.314 . S
C484 H490 0.930 . S
C485 N487 1.279 . S
C485 C488 1.358 . S
C485 H491 0.930 . S
C486 C484 1.353 . S
C486 C489 1.348 . S
C486 H524 0.929 . S
N487 Li442 1.990 . S
N487 C484 1.314 . S
N487 C485 1.279 . S
C488 C485 1.358 . S
C488 C489 1.356 . S
C488 H525 0.930 . S
C489 C486 1.348 . S
C489 C488 1.356 . S
H490 C484 0.930 . S
H491 C485 0.930 . S
C492 N493 1.314 . S
C492 C494 1.353 . S
C492 H498 0.930 . S
N493 Li443 1.990 . S
N493 C492 1.314 . S
N493 C496 1.279 . S
C494 C492 1.353 . S
C494 C497 1.348 . S
C494 H526 0.929 . S
C495 C496 1.358 . S
C495 C497 1.356 . S
C495 H527 0.930 . S
C496 N493 1.279 . S
C496 C495 1.358 . S
C496 H499 0.930 . S
C497 C494 1.348 . S
C497 C495 1.356 . S
H498 C492 0.930 . S
H499 C496 0.930 . S
O500 Li440 1.956 . S
O500 Li441 1.970 . S
O500 Li442 1.961 . S
O500 C444 1.325 . S
O501 Li440 1.970 . S
O501 Li441 1.956 . S
O501 Li443 1.961 . S
O501 C450 1.325 . S
O502 Li440 1.961 . S
O502 Li442 1.956 . S
O502 Li443 1.970 . S
O502 C472 1.325 . S
O503 Li441 1.961 . S
O503 Li442 1.970 . S
O503 Li443 1.956 . S
O503 C478 1.325 . S
H504 C446 0.929 . S
H505 C447 0.930 . S
H506 C448 0.930 . S
H507 C449 0.930 . S
H508 C451 0.930 . S
H509 C453 0.929 . S
H510 C454 0.930 . S
H511 C455 0.930 . S
H512 C458 0.930 1_556 S
H513 C461 0.929 1_545 S
H514 C466 0.929 . S
H515 C467 0.930 . S
H516 C474 0.929 . S
H517 C475 0.930 . S
H518 C476 0.930 . S
H519 C477 0.930 . S
H520 C479 0.929 . S
H521 C480 0.930 . S
H522 C481 0.930 . S
H523 C482 0.930 . S
H524 C486 0.929 . S
H525 C488 0.930 . S
H526 C494 0.929 . S
H527 C495 0.930 . S
Li528 N545 1.990 . S
Li528 O588 1.956 . S
Li528 O589 1.970 . S
Li528 O590 1.961 . S
Li529 N553 1.990 . S
Li529 O588 1.970 . S
Li529 O589 1.956 . S
Li529 O591 1.961 . S
Li530 N575 1.990 . S
Li530 O588 1.961 . S
Li530 O590 1.956 . S
Li530 O591 1.970 . S
Li531 N581 1.990 . S
Li531 O589 1.961 . S
Li531 O590 1.970 . S
Li531 O591 1.956 . S
C532 C534 1.348 . S
C532 C535 1.356 . S
C532 O588 1.325 . S
N533 C536 1.314 . S
N533 C537 1.279 . S
C534 C532 1.348 . S
C534 C536 1.353 . S
C534 H592 0.929 . S
C535 C532 1.356 . S
C535 C537 1.358 . S
C535 H593 0.930 . S
C536 N533 1.314 . S
C536 C534 1.353 . S
C536 H594 0.930 . S
C537 N533 1.279 . S
C537 C535 1.358 . S
C537 H595 0.930 . S
C538 C541 1.348 . S
C538 C542 1.356 . S
C538 O589 1.325 . S
C539 N540 1.279 . S
C539 C542 1.358 . S
C539 H596 0.930 . S
N540 C539 1.279 . S
N540 C543 1.314 . S
C541 C538 1.348 . S
C541 C543 1.353 . S
C541 H597 0.929 . S
C542 C538 1.356 . S
C542 C539 1.358 . S
C542 H598 0.930 . S
C543 N540 1.314 . S
C543 C541 1.353 . S
C543 H599 0.930 . S
C544 N545 1.314 . S
C544 C549 1.353 . S
C544 H550 0.930 . S
N545 Li528 1.990 . S
N545 C544 1.314 . S
N545 C547 1.279 . S
C546 C547 1.358 . S
C546 C548 1.356 . S
C546 H600 0.930 . S
C547 N545 1.279 . S
C547 C546 1.358 . S
C547 H551 0.930 . S
C548 C546 1.356 . S
C548 C549 1.348 . S
C549 C544 1.353 . S
C549 C548 1.348 . S
C549 H601 0.929 . S
H550 C544 0.930 . S
H551 C547 0.930 . S
C552 N553 1.314 . S
C552 C554 1.353 . S
C552 H558 0.930 . S
N553 Li529 1.990 . S
N553 C552 1.314 . S
N553 C556 1.279 . S
C554 C552 1.353 . S
C554 C557 1.348 . S
C554 H602 0.929 . S
C555 C556 1.358 . S
C555 C557 1.356 . S
C555 H603 0.930 . S
C556 N553 1.279 . S
C556 C555 1.358 . S
C556 H559 0.930 . S
C557 C554 1.348 . S
C557 C555 1.356 . S
H558 C552 0.930 . S
H559 C556 0.930 . S
C560 C562 1.348 . S
C560 C563 1.356 . S
C560 O590 1.325 . S
N561 C564 1.314 . S
N561 C565 1.279 . S
C562 C560 1.348 . S
C562 C564 1.353 . S
C562 H604 0.929 . S
C563 C560 1.356 . S
C563 C565 1.358 . S
C563 H605 0.930 . S
C564 N561 1.314 . S
C564 C562 1.353 . S
C564 H606 0.930 . S
C565 N561 1.279 . S
C565 C563 1.358 . S
C565 H607 0.930 . S
C566 C567 1.348 . S
C566 C568 1.356 . S
C566 O591 1.325 . S
C567 C566 1.348 . S
C567 C569 1.353 . S
C567 H608 0.929 . S
C568 C566 1.356 . S
C568 C570 1.358 . S
C568 H609 0.930 . S
C569 C567 1.353 . S
C569 N571 1.314 . S
C569 H610 0.930 . S
C570 C568 1.358 . S
C570 N571 1.279 . S
C570 H611 0.930 . S
N571 C569 1.314 . S
N571 C570 1.279 . S
C572 C574 1.353 . S
C572 N575 1.314 . S
C572 H578 0.930 . S
C573 N575 1.279 . S
C573 C576 1.358 . S
C573 H579 0.930 . S
C574 C572 1.353 . S
C574 C577 1.348 . S
C574 H612 0.929 . S
N575 Li530 1.990 . S
N575 C572 1.314 . S
N575 C573 1.279 . S
C576 C573 1.358 . S
C576 C577 1.356 . S
C576 H613 0.930 . S
C577 C574 1.348 . S
C577 C576 1.356 . S
H578 C572 0.930 . S
H579 C573 0.930 . S
C580 N581 1.314 . S
C580 C582 1.353 . S
C580 H586 0.930 . S
N581 Li531 1.990 . S
N581 C580 1.314 . S
N581 C584 1.279 . S
C582 C580 1.353 . S
C582 C585 1.348 . S
C582 H614 0.929 . S
C583 C584 1.358 . S
C583 C585 1.356 . S
C583 H615 0.930 . S
C584 N581 1.279 . S
C584 C583 1.358 . S
C584 H587 0.930 . S
C585 C582 1.348 . S
C585 C583 1.356 . S
H586 C580 0.930 . S
H587 C584 0.930 . S
O588 Li528 1.956 . S
O588 Li529 1.970 . S
O588 Li530 1.961 . S
O588 C532 1.325 . S
O589 Li528 1.970 . S
O589 Li529 1.956 . S
O589 Li531 1.961 . S
O589 C538 1.325 . S
O590 Li528 1.961 . S
O590 Li530 1.956 . S
O590 Li531 1.970 . S
O590 C560 1.325 . S
O591 Li529 1.961 . S
O591 Li530 1.970 . S
O591 Li531 1.956 . S
O591 C566 1.325 . S
H592 C534 0.929 . S
H593 C535 0.930 . S
H594 C536 0.930 . S
H595 C537 0.930 . S
H596 C539 0.930 . S
H597 C541 0.929 . S
H598 C542 0.930 . S
H599 C543 0.930 . S
H600 C546 0.930 . S
H601 C549 0.929 . S
H602 C554 0.929 . S
H603 C555 0.930 . S
H604 C562 0.929 . S
H605 C563 0.930 . S
H606 C564 0.930 . S
H607 C565 0.930 . S
H608 C567 0.929 . S
H609 C568 0.930 . S
H610 C569 0.930 . S
H611 C570 0.930 . S
H612 C574 0.929 . S
H613 C576 0.930 . S
H614 C582 0.929 . S
H615 C583 0.930 . S
Li616 N633 1.990 . S
Li616 O676 1.956 . S
Li616 O677 1.970 . S
Li616 O678 1.961 . S
Li617 N641 1.990 . S
Li617 O676 1.970 . S
Li617 O677 1.956 . S
Li617 O679 1.961 . S
Li618 N663 1.990 . S
Li618 O676 1.961 . S
Li618 O678 1.956 . S
Li618 O679 1.970 . S
Li619 N669 1.990 . S
Li619 O677 1.961 . S
Li619 O678 1.970 . S
Li619 O679 1.956 . S
C620 C622 1.348 . S
C620 C623 1.356 . S
C620 O676 1.325 . S
N621 C624 1.314 . S
N621 C625 1.279 . S
C622 C620 1.348 . S
C622 C624 1.353 . S
C622 H680 0.929 . S
C623 C620 1.356 . S
C623 C625 1.358 . S
C623 H681 0.930 . S
C624 N621 1.314 . S
C624 C622 1.353 . S
C624 H682 0.930 . S
C625 N621 1.279 . S
C625 C623 1.358 . S
C625 H683 0.930 . S
C626 C629 1.348 . S
C626 C630 1.356 . S
C626 O677 1.325 . S
C627 N628 1.279 . S
C627 C630 1.358 . S
C627 H684 0.930 . S
N628 C627 1.279 . S
N628 C631 1.314 . S
C629 C626 1.348 . S
C629 C631 1.353 . S
C629 H685 0.929 . S
C630 C626 1.356 . S
C630 C627 1.358 . S
C630 H686 0.930 . S
C631 N628 1.314 . S
C631 C629 1.353 . S
C631 H687 0.930 . S
C632 N633 1.314 . S
C632 C637 1.353 . S
C632 H638 0.930 . S
N633 Li616 1.990 . S
N633 C632 1.314 . S
N633 C635 1.279 . S
C634 C635 1.358 . S
C634 C636 1.356 . S
C634 H688 0.930 . S
C635 N633 1.279 . S
C635 C634 1.358 . S
C635 H639 0.930 . S
C636 C634 1.356 . S
C636 C637 1.348 . S
C637 C632 1.353 . S
C637 C636 1.348 . S
C637 H689 0.929 . S
H638 C632 0.930 . S
H639 C635 0.930 . S
C640 N641 1.314 . S
C640 C642 1.353 . S
C640 H646 0.930 . S
N641 Li617 1.990 . S
N641 C640 1.314 . S
N641 C644 1.279 . S
C642 C640 1.353 . S
C642 C645 1.348 . S
C642 H690 0.929 . S
C643 C644 1.358 . S
C643 C645 1.356 . S
C643 H691 0.930 . S
C644 N641 1.279 . S
C644 C643 1.358 . S
C644 H647 0.930 . S
C645 C642 1.348 . S
C645 C643 1.356 . S
H646 C640 0.930 . S
H647 C644 0.930 . S
C648 C650 1.348 . S
C648 C651 1.356 . S
C648 O678 1.325 . S
N649 C652 1.314 . S
N649 C653 1.279 . S
C650 C648 1.348 . S
C650 C652 1.353 . S
C650 H692 0.929 . S
C651 C648 1.356 . S
C651 C653 1.358 . S
C651 H693 0.930 . S
C652 N649 1.314 . S
C652 C650 1.353 . S
C652 H694 0.930 . S
C653 N649 1.279 . S
C653 C651 1.358 . S
C653 H695 0.930 . S
C654 C655 1.348 1_545 S
C654 C656 1.356 . S
C654 O679 1.325 . S
C655 C654 1.348 1_565 S
C655 C657 1.353 . S
C655 H696 0.929 . S
C656 C654 1.356 . S
C656 C658 1.358 1_545 S
C656 H697 0.930 . S
C657 C655 1.353 . S
C657 N659 1.314 . S
C657 H698 0.930 . S
C658 C656 1.358 1_565 S
C658 N659 1.279 . S
C658 H699 0.930 . S
N659 C657 1.314 . S
N659 C658 1.279 . S
C660 C662 1.353 . S
C660 N663 1.314 . S
C660 H666 0.930 . S
C661 N663 1.279 . S
C661 C664 1.358 . S
C661 H667 0.930 . S
C662 C660 1.353 . S
C662 C665 1.348 . S
C662 H700 0.929 1_545 S
N663 Li618 1.990 . S
N663 C660 1.314 . S
N663 C661 1.279 . S
C664 C661 1.358 . S
C664 C665 1.356 . S
C664 H701 0.930 . S
C665 C662 1.348 . S
C665 C664 1.356 . S
H666 C660 0.930 . S
H667 C661 0.930 . S
C668 N669 1.314 . S
C668 C670 1.353 . S
C668 H674 0.930 . S
N669 Li619 1.990 . S
N669 C668 1.314 . S
N669 C672 1.279 . S
C670 C668 1.353 . S
C670 C673 1.348 . S
C670 H702 0.929 . S
C671 C672 1.358 . S
C671 C673 1.356 . S
C671 H703 0.930 . S
C672 N669 1.279 . S
C672 C671 1.358 . S
C672 H675 0.930 . S
C673 C670 1.348 . S
C673 C671 1.356 . S
H674 C668 0.930 . S
H675 C672 0.930 . S
O676 Li616 1.956 . S
O676 Li617 1.970 . S
O676 Li618 1.961 . S
O676 C620 1.325 . S
O677 Li616 1.970 . S
O677 Li617 1.956 . S
O677 Li619 1.961 . S
O677 C626 1.325 . S
O678 Li616 1.961 . S
O678 Li618 1.956 . S
O678 Li619 1.970 . S
O678 C648 1.325 . S
O679 Li617 1.961 . S
O679 Li618 1.970 . S
O679 Li619 1.956 . S
O679 C654 1.325 . S
H680 C622 0.929 . S
H681 C623 0.930 . S
H682 C624 0.930 . S
H683 C625 0.930 . S
H684 C627 0.930 . S
H685 C629 0.929 . S
H686 C630 0.930 . S
H687 C631 0.930 . S
H688 C634 0.930 . S
H689 C637 0.929 . S
H690 C642 0.929 . S
H691 C643 0.930 . S
H692 C650 0.929 . S
H693 C651 0.930 . S
H694 C652 0.930 . S
H695 C653 0.930 . S
H696 C655 0.929 . S
H697 C656 0.930 . S
H698 C657 0.930 . S
H699 C658 0.930 . S
H700 C662 0.929 1_565 S
H701 C664 0.930 . S
H702 C670 0.929 . S
H703 C671 0.930 . S
Li704 N721 1.990 . S
Li704 O764 1.956 . S
Li704 O765 1.970 . S
Li704 O766 1.961 . S
Li705 N729 1.990 . S
Li705 O764 1.970 . S
Li705 O765 1.956 . S
Li705 O767 1.961 . S
Li706 N751 1.990 . S
Li706 O764 1.961 . S
Li706 O766 1.956 . S
Li706 O767 1.970 . S
Li707 N757 1.990 . S
Li707 O765 1.961 . S
Li707 O766 1.970 . S
Li707 O767 1.956 . S
C708 C710 1.348 . S
C708 C711 1.356 . S
C708 O764 1.325 . S
N709 C712 1.314 . S
N709 C713 1.279 . S
C710 C708 1.348 . S
C710 C712 1.353 . S
C710 H768 0.929 . S
C711 C708 1.356 . S
C711 C713 1.358 . S
C711 H769 0.930 . S
C712 N709 1.314 . S
C712 C710 1.353 . S
C712 H770 0.930 . S
C713 N709 1.279 . S
C713 C711 1.358 . S
C713 H771 0.930 . S
C714 C717 1.348 . S
C714 C718 1.356 . S
C714 O765 1.325 . S
C715 N716 1.279 . S
C715 C718 1.358 . S
C715 H772 0.930 . S
N716 C715 1.279 . S
N716 C719 1.314 . S
C717 C714 1.348 . S
C717 C719 1.353 . S
C717 H773 0.929 . S
C718 C714 1.356 . S
C718 C715 1.358 . S
C718 H774 0.930 . S
C719 N716 1.314 . S
C719 C717 1.353 . S
C719 H775 0.930 . S
C720 N721 1.314 . S
C720 C725 1.353 . S
C720 H726 0.930 . S
N721 Li704 1.990 . S
N721 C720 1.314 . S
N721 C723 1.279 . S
C722 C723 1.358 . S
C722 C724 1.356 . S
C722 H776 0.930 . S
C723 N721 1.279 . S
C723 C722 1.358 . S
C723 H727 0.930 . S
C724 C722 1.356 . S
C724 C725 1.348 . S
C725 C720 1.353 . S
C725 C724 1.348 . S
C725 H777 0.929 . S
H726 C720 0.930 . S
H727 C723 0.930 . S
C728 N729 1.314 . S
C728 C730 1.353 . S
C728 H734 0.930 . S
N729 Li705 1.990 . S
N729 C728 1.314 . S
N729 C732 1.279 . S
C730 C728 1.353 . S
C730 C733 1.348 . S
C730 H778 0.929 . S
C731 C732 1.358 . S
C731 C733 1.356 . S
C731 H779 0.930 . S
C732 N729 1.279 . S
C732 C731 1.358 . S
C732 H735 0.930 . S
C733 C730 1.348 . S
C733 C731 1.356 . S
H734 C728 0.930 . S
H735 C732 0.930 . S
C736 C738 1.348 . S
C736 C739 1.356 . S
C736 O766 1.325 . S
N737 C740 1.314 . S
N737 C741 1.279 . S
C738 C736 1.348 . S
C738 C740 1.353 . S
C738 H780 0.929 . S
C739 C736 1.356 . S
C739 C741 1.358 . S
C739 H781 0.930 . S
C740 N737 1.314 . S
C740 C738 1.353 . S
C740 H782 0.930 . S
C741 N737 1.279 . S
C741 C739 1.358 . S
C741 H783 0.930 . S
C742 C743 1.348 . S
C742 C744 1.356 . S
C742 O767 1.325 . S
C743 C742 1.348 . S
C743 C745 1.353 . S
C743 H784 0.929 . S
C744 C742 1.356 . S
C744 C746 1.358 . S
C744 H785 0.930 . S
C745 C743 1.353 . S
C745 N747 1.314 . S
C745 H786 0.930 . S
C746 C744 1.358 . S
C746 N747 1.279 . S
C746 H787 0.930 . S
N747 C745 1.314 . S
N747 C746 1.279 . S
C748 C750 1.353 . S
C748 N751 1.314 . S
C748 H754 0.930 . S
C749 N751 1.279 . S
C749 C752 1.358 . S
C749 H755 0.930 . S
C750 C748 1.353 . S
C750 C753 1.348 . S
C750 H788 0.929 . S
N751 Li706 1.990 . S
N751 C748 1.314 . S
N751 C749 1.279 . S
C752 C749 1.358 . S
C752 C753 1.356 . S
C752 H789 0.930 . S
C753 C750 1.348 . S
C753 C752 1.356 . S
H754 C748 0.930 . S
H755 C749 0.930 . S
C756 N757 1.314 . S
C756 C758 1.353 . S
C756 H762 0.930 . S
N757 Li707 1.990 . S
N757 C756 1.314 . S
N757 C760 1.279 . S
C758 C756 1.353 . S
C758 C761 1.348 . S
C758 H790 0.929 . S
C759 C760 1.358 . S
C759 C761 1.356 . S
C759 H791 0.930 . S
C760 N757 1.279 . S
C760 C759 1.358 . S
C760 H763 0.930 . S
C761 C758 1.348 . S
C761 C759 1.356 . S
H762 C756 0.930 . S
H763 C760 0.930 . S
O764 Li704 1.956 . S
O764 Li705 1.970 . S
O764 Li706 1.961 . S
O764 C708 1.325 . S
O765 Li704 1.970 . S
O765 Li705 1.956 . S
O765 Li707 1.961 . S
O765 C714 1.325 . S
O766 Li704 1.961 . S
O766 Li706 1.956 . S
O766 Li707 1.970 . S
O766 C736 1.325 . S
O767 Li705 1.961 . S
O767 Li706 1.970 . S
O767 Li707 1.956 . S
O767 C742 1.325 . S
H768 C710 0.929 . S
H769 C711 0.930 . S
H770 C712 0.930 . S
H771 C713 0.930 . S
H772 C715 0.930 . S
H773 C717 0.929 . S
H774 C718 0.930 . S
H775 C719 0.930 . S
H776 C722 0.930 . S
H777 C725 0.929 . S
H778 C730 0.929 . S
H779 C731 0.930 . S
H780 C738 0.929 . S
H781 C739 0.930 . S
H782 C740 0.930 . S
H783 C741 0.930 . S
H784 C743 0.929 . S
H785 C744 0.930 . S
H786 C745 0.930 . S
H787 C746 0.930 . S
H788 C750 0.929 . S
H789 C752 0.930 . S
H790 C758 0.929 . S
H791 C759 0.930 . S
Li792 N809 1.990 . S
Li792 O852 1.956 . S
Li792 O853 1.970 . S
Li792 O854 1.961 . S
Li793 N817 1.990 . S
Li793 O852 1.970 . S
Li793 O853 1.956 . S
Li793 O855 1.961 . S
Li794 N839 1.990 . S
Li794 O852 1.961 . S
Li794 O854 1.956 . S
Li794 O855 1.970 . S
Li795 N845 1.990 . S
Li795 O853 1.961 . S
Li795 O854 1.970 . S
Li795 O855 1.956 . S
C796 C798 1.348 . S
C796 C799 1.356 . S
C796 O852 1.325 . S
N797 C800 1.314 . S
N797 C801 1.279 . S
C798 C796 1.348 . S
C798 C800 1.353 . S
C798 H856 0.929 . S
C799 C796 1.356 . S
C799 C801 1.358 . S
C799 H857 0.930 . S
C800 N797 1.314 . S
C800 C798 1.353 . S
C800 H858 0.930 . S
C801 N797 1.279 . S
C801 C799 1.358 . S
C801 H859 0.930 . S
C802 C805 1.348 . S
C802 C806 1.356 . S
C802 O853 1.325 . S
C803 N804 1.279 . S
C803 C806 1.358 . S
C803 H860 0.930 . S
N804 C803 1.279 . S
N804 C807 1.314 . S
C805 C802 1.348 . S
C805 C807 1.353 . S
C805 H861 0.929 . S
C806 C802 1.356 . S
C806 C803 1.358 . S
C806 H862 0.930 . S
C807 N804 1.314 . S
C807 C805 1.353 . S
C807 H863 0.930 . S
C808 N809 1.314 . S
C808 C813 1.353 . S
C808 H814 0.930 . S
N809 Li792 1.990 . S
N809 C808 1.314 . S
N809 C811 1.279 . S
C810 C811 1.358 . S
C810 C812 1.356 . S
C810 H864 0.930 . S
C811 N809 1.279 . S
C811 C810 1.358 . S
C811 H815 0.930 . S
C812 C810 1.356 . S
C812 C813 1.348 . S
C813 C808 1.353 . S
C813 C812 1.348 . S
C813 H865 0.929 . S
H814 C808 0.930 . S
H815 C811 0.930 . S
C816 N817 1.314 . S
C816 C818 1.353 . S
C816 H822 0.930 . S
N817 Li793 1.990 . S
N817 C816 1.314 . S
N817 C820 1.279 . S
C818 C816 1.353 . S
C818 C821 1.348 . S
C818 H866 0.929 . S
C819 C820 1.358 . S
C819 C821 1.356 . S
C819 H867 0.930 . S
C820 N817 1.279 . S
C820 C819 1.358 . S
C820 H823 0.930 . S
C821 C818 1.348 . S
C821 C819 1.356 . S
H822 C816 0.930 . S
H823 C820 0.930 . S
C824 C826 1.348 . S
C824 C827 1.356 . S
C824 O854 1.325 . S
N825 C828 1.314 . S
N825 C829 1.279 . S
C826 C824 1.348 . S
C826 C828 1.353 . S
C826 H868 0.929 . S
C827 C824 1.356 . S
C827 C829 1.358 . S
C827 H869 0.930 . S
C828 N825 1.314 . S
C828 C826 1.353 . S
C828 H870 0.930 . S
C829 N825 1.279 . S
C829 C827 1.358 . S
C829 H871 0.930 . S
C830 C831 1.348 1_545 S
C830 C832 1.356 . S
C830 O855 1.325 . S
C831 C830 1.348 1_565 S
C831 C833 1.353 . S
C831 H872 0.929 . S
C832 C830 1.356 . S
C832 C834 1.358 1_545 S
C832 H873 0.930 . S
C833 C831 1.353 . S
C833 N835 1.314 . S
C833 H874 0.930 . S
C834 C832 1.358 1_565 S
C834 N835 1.279 . S
C834 H875 0.930 . S
N835 C833 1.314 . S
N835 C834 1.279 . S
C836 C838 1.353 . S
C836 N839 1.314 . S
C836 H842 0.930 . S
C837 N839 1.279 . S
C837 C840 1.358 . S
C837 H843 0.930 . S
C838 C836 1.353 . S
C838 C841 1.348 . S
C838 H876 0.929 . S
N839 Li794 1.990 . S
N839 C836 1.314 . S
N839 C837 1.279 . S
C840 C837 1.358 . S
C840 C841 1.356 . S
C840 H877 0.930 . S
C841 C838 1.348 . S
C841 C840 1.356 . S
H842 C836 0.930 . S
H843 C837 0.930 . S
C844 N845 1.314 . S
C844 C846 1.353 . S
C844 H850 0.930 . S
N845 Li795 1.990 . S
N845 C844 1.314 . S
N845 C848 1.279 . S
C846 C844 1.353 . S
C846 C849 1.348 . S
C846 H878 0.929 . S
C847 C848 1.358 . S
C847 C849 1.356 . S
C847 H879 0.930 1_545 S
C848 N845 1.279 . S
C848 C847 1.358 . S
C848 H851 0.930 . S
C849 C846 1.348 . S
C849 C847 1.356 . S
H850 C844 0.930 . S
H851 C848 0.930 . S
O852 Li792 1.956 . S
O852 Li793 1.970 . S
O852 Li794 1.961 . S
O852 C796 1.325 . S
O853 Li792 1.970 . S
O853 Li793 1.956 . S
O853 Li795 1.961 . S
O853 C802 1.325 . S
O854 Li792 1.961 . S
O854 Li794 1.956 . S
O854 Li795 1.970 . S
O854 C824 1.325 . S
O855 Li793 1.961 . S
O855 Li794 1.970 . S
O855 Li795 1.956 . S
O855 C830 1.325 . S
H856 C798 0.929 . S
H857 C799 0.930 . S
H858 C800 0.930 . S
H859 C801 0.930 . S
H860 C803 0.930 . S
H861 C805 0.929 . S
H862 C806 0.930 . S
H863 C807 0.930 . S
H864 C810 0.930 . S
H865 C813 0.929 . S
H866 C818 0.929 . S
H867 C819 0.930 . S
H868 C826 0.929 . S
H869 C827 0.930 . S
H870 C828 0.930 . S
H871 C829 0.930 . S
H872 C831 0.929 . S
H873 C832 0.930 . S
H874 C833 0.930 . S
H875 C834 0.930 . S
H876 C838 0.929 . S
H877 C840 0.930 . S
H878 C846 0.929 . S
H879 C847 0.930 1_565 S
Li880 N897 1.990 . S
Li880 O940 1.956 . S
Li880 O941 1.970 . S
Li880 O942 1.961 . S
Li881 N905 1.990 . S
Li881 O940 1.970 . S
Li881 O941 1.956 . S
Li881 O943 1.961 . S
Li882 N927 1.990 . S
Li882 O940 1.961 . S
Li882 O942 1.956 . S
Li882 O943 1.970 . S
Li883 N933 1.990 . S
Li883 O941 1.961 . S
Li883 O942 1.970 . S
Li883 O943 1.956 . S
C884 C886 1.348 . S
C884 C887 1.356 . S
C884 O940 1.325 . S
N885 C888 1.314 . S
N885 C889 1.279 . S
C886 C884 1.348 . S
C886 C888 1.353 . S
C886 H944 0.929 . S
C887 C884 1.356 . S
C887 C889 1.358 . S
C887 H945 0.930 . S
C888 N885 1.314 . S
C888 C886 1.353 . S
C888 H946 0.930 . S
C889 N885 1.279 . S
C889 C887 1.358 . S
C889 H947 0.930 . S
C890 C893 1.348 . S
C890 C894 1.356 . S
C890 O941 1.325 . S
C891 N892 1.279 . S
C891 C894 1.358 . S
C891 H948 0.930 . S
N892 C891 1.279 . S
N892 C895 1.314 . S
C893 C890 1.348 . S
C893 C895 1.353 . S
C893 H949 0.929 . S
C894 C890 1.356 . S
C894 C891 1.358 . S
C894 H950 0.930 . S
C895 N892 1.314 . S
C895 C893 1.353 . S
C895 H951 0.930 . S
C896 N897 1.314 . S
C896 C901 1.353 . S
C896 H902 0.930 . S
N897 Li880 1.990 . S
N897 C896 1.314 . S
N897 C899 1.279 . S
C898 C899 1.358 . S
C898 C900 1.356 . S
C898 H952 0.930 . S
C899 N897 1.279 . S
C899 C898 1.358 . S
C899 H903 0.930 . S
C900 C898 1.356 . S
C900 C901 1.348 . S
C901 C896 1.353 . S
C901 C900 1.348 . S
C901 H953 0.929 . S
H902 C896 0.930 . S
H903 C899 0.930 . S
C904 N905 1.314 . S
C904 C906 1.353 . S
C904 H910 0.930 . S
N905 Li881 1.990 . S
N905 C904 1.314 . S
N905 C908 1.279 . S
C906 C904 1.353 . S
C906 C909 1.348 . S
C906 H954 0.929 . S
C907 C908 1.358 . S
C907 C909 1.356 . S
C907 H955 0.930 . S
C908 N905 1.279 . S
C908 C907 1.358 . S
C908 H911 0.930 . S
C909 C906 1.348 . S
C909 C907 1.356 . S
H910 C904 0.930 . S
H911 C908 0.930 . S
C912 C914 1.348 . S
C912 C915 1.356 . S
C912 O942 1.325 . S
N913 C916 1.314 . S
N913 C917 1.279 . S
C914 C912 1.348 . S
C914 C916 1.353 . S
C914 H956 0.929 . S
C915 C912 1.356 . S
C915 C917 1.358 . S
C915 H957 0.930 . S
C916 N913 1.314 . S
C916 C914 1.353 . S
C916 H958 0.930 . S
C917 N913 1.279 . S
C917 C915 1.358 . S
C917 H959 0.930 . S
C918 C919 1.348 . S
C918 C920 1.356 . S
C918 O943 1.325 . S
C919 C918 1.348 . S
C919 C921 1.353 . S
C919 H960 0.929 . S
C920 C918 1.356 . S
C920 C922 1.358 . S
C920 H961 0.930 . S
C921 C919 1.353 . S
C921 N923 1.314 . S
C921 H962 0.930 . S
C922 C920 1.358 . S
C922 N923 1.279 . S
C922 H963 0.930 . S
N923 C921 1.314 . S
N923 C922 1.279 . S
C924 C926 1.353 . S
C924 N927 1.314 . S
C924 H930 0.930 . S
C925 N927 1.279 . S
C925 C928 1.358 . S
C925 H931 0.930 . S
C926 C924 1.353 . S
C926 C929 1.348 . S
C926 H964 0.929 . S
N927 Li882 1.990 . S
N927 C924 1.314 . S
N927 C925 1.279 . S
C928 C925 1.358 . S
C928 C929 1.356 . S
C928 H965 0.930 . S
C929 C926 1.348 . S
C929 C928 1.356 . S
H930 C924 0.930 . S
H931 C925 0.930 . S
C932 N933 1.314 . S
C932 C934 1.353 . S
C932 H938 0.930 . S
N933 Li883 1.990 . S
N933 C932 1.314 . S
N933 C936 1.279 . S
C934 C932 1.353 . S
C934 C937 1.348 . S
C934 H966 0.929 . S
C935 C936 1.358 . S
C935 C937 1.356 . S
C935 H967 0.930 . S
C936 N933 1.279 . S
C936 C935 1.358 . S
C936 H939 0.930 . S
C937 C934 1.348 . S
C937 C935 1.356 . S
H938 C932 0.930 . S
H939 C936 0.930 . S
O940 Li880 1.956 . S
O940 Li881 1.970 . S
O940 Li882 1.961 . S
O940 C884 1.325 . S
O941 Li880 1.970 . S
O941 Li881 1.956 . S
O941 Li883 1.961 . S
O941 C890 1.325 . S
O942 Li880 1.961 . S
O942 Li882 1.956 . S
O942 Li883 1.970 . S
O942 C912 1.325 . S
O943 Li881 1.961 . S
O943 Li882 1.970 . S
O943 Li883 1.956 . S
O943 C918 1.325 . S
H944 C886 0.929 . S
H945 C887 0.930 . S
H946 C888 0.930 . S
H947 C889 0.930 . S
H948 C891 0.930 . S
H949 C893 0.929 . S
H950 C894 0.930 . S
H951 C895 0.930 . S
H952 C898 0.930 . S
H953 C901 0.929 . S
H954 C906 0.929 . S
H955 C907 0.930 . S
H956 C914 0.929 . S
H957 C915 0.930 . S
H958 C916 0.930 . S
H959 C917 0.930 . S
H960 C919 0.929 . S
H961 C920 0.930 . S
H962 C921 0.930 . S
H963 C922 0.930 . S
H964 C926 0.929 . S
H965 C928 0.930 . S
H966 C934 0.929 . S
H967 C935 0.930 . S
Li968 N985 1.990 . S
Li968 O1028 1.956 . S
Li968 O1029 1.970 . S
Li968 O1030 1.961 . S
Li969 N993 1.990 . S
Li969 O1028 1.970 . S
Li969 O1029 1.956 . S
Li969 O1031 1.961 . S
Li970 N1015 1.990 . S
Li970 O1028 1.961 . S
Li970 O1030 1.956 . S
Li970 O1031 1.970 . S
Li971 N1021 1.990 . S
Li971 O1029 1.961 . S
Li971 O1030 1.970 . S
Li971 O1031 1.956 . S
C972 C974 1.348 . S
C972 C975 1.356 . S
C972 O1028 1.325 . S
N973 C976 1.314 . S
N973 C977 1.279 . S
C974 C972 1.348 . S
C974 C976 1.353 . S
C974 H1032 0.929 . S
C975 C972 1.356 . S
C975 C977 1.358 . S
C975 H1033 0.930 . S
C976 N973 1.314 . S
C976 C974 1.353 . S
C976 H1034 0.930 . S
C977 N973 1.279 . S
C977 C975 1.358 . S
C977 H1035 0.930 . S
C978 C981 1.348 1_565 S
C978 C982 1.356 . S
C978 O1029 1.325 . S
C979 N980 1.279 . S
C979 C982 1.358 1_545 S
C979 H1036 0.930 . S
N980 C979 1.279 . S
N980 C983 1.314 . S
C981 C978 1.348 1_545 S
C981 C983 1.353 . S
C981 H1037 0.929 . S
C982 C978 1.356 . S
C982 C979 1.358 1_565 S
C982 H1038 0.930 . S
C983 N980 1.314 . S
C983 C981 1.353 . S
C983 H1039 0.930 . S
C984 N985 1.314 . S
C984 C989 1.353 . S
C984 H990 0.930 . S
N985 Li968 1.990 . S
N985 C984 1.314 . S
N985 C987 1.279 . S
C986 C987 1.358 . S
C986 C988 1.356 . S
C986 H1040 0.930 . S
C987 N985 1.279 . S
C987 C986 1.358 . S
C987 H991 0.930 . S
C988 C986 1.356 . S
C988 C989 1.348 . S
C989 C984 1.353 . S
C989 C988 1.348 . S
C989 H1041 0.929 . S
H990 C984 0.930 . S
H991 C987 0.930 . S
C992 N993 1.314 . S
C992 C994 1.353 . S
C992 H998 0.930 . S
N993 Li969 1.990 . S
N993 C992 1.314 . S
N993 C996 1.279 . S
C994 C992 1.353 . S
C994 C997 1.348 . S
C994 H1042 0.929 . S
C995 C996 1.358 . S
C995 C997 1.356 . S
C995 H1043 0.930 1_565 S
C996 N993 1.279 . S
C996 C995 1.358 . S
C996 H999 0.930 . S
C997 C994 1.348 . S
C997 C995 1.356 . S
H998 C992 0.930 . S
H999 C996 0.930 . S
C1000 C1002 1.348 . S
C1000 C1003 1.356 . S
C1000 O1030 1.325 . S
N1001 C1004 1.314 . S
N1001 C1005 1.279 . S
C1002 C1000 1.348 . S
C1002 C1004 1.353 . S
C1002 H1044 0.929 . S
C1003 C1000 1.356 . S
C1003 C1005 1.358 . S
C1003 H1045 0.930 . S
C1004 N1001 1.314 . S
C1004 C1002 1.353 . S
C1004 H1046 0.930 . S
C1005 N1001 1.279 . S
C1005 C1003 1.358 . S
C1005 H1047 0.930 . S
C1006 C1007 1.348 . S
C1006 C1008 1.356 . S
C1006 O1031 1.325 . S
C1007 C1006 1.348 . S
C1007 C1009 1.353 . S
C1007 H1048 0.929 . S
C1008 C1006 1.356 . S
C1008 C1010 1.358 . S
C1008 H1049 0.930 . S
C1009 C1007 1.353 . S
C1009 N1011 1.314 . S
C1009 H1050 0.930 . S
C1010 C1008 1.358 . S
C1010 N1011 1.279 . S
C1010 H1051 0.930 . S
N1011 C1009 1.314 . S
N1011 C1010 1.279 . S
C1012 C1014 1.353 . S
C1012 N1015 1.314 . S
C1012 H1018 0.930 . S
C1013 N1015 1.279 . S
C1013 C1016 1.358 . S
C1013 H1019 0.930 . S
C1014 C1012 1.353 . S
C1014 C1017 1.348 . S
C1014 H1052 0.929 . S
N1015 Li970 1.990 . S
N1015 C1012 1.314 . S
N1015 C1013 1.279 . S
C1016 C1013 1.358 . S
C1016 C1017 1.356 . S
C1016 H1053 0.930 . S
C1017 C1014 1.348 . S
C1017 C1016 1.356 . S
H1018 C1012 0.930 . S
H1019 C1013 0.930 . S
C1020 N1021 1.314 . S
C1020 C1022 1.353 . S
C1020 H1026 0.930 . S
N1021 Li971 1.990 . S
N1021 C1020 1.314 . S
N1021 C1024 1.279 . S
C1022 C1020 1.353 . S
C1022 C1025 1.348 . S
C1022 H1054 0.929 . S
C1023 C1024 1.358 . S
C1023 C1025 1.356 . S
C1023 H1055 0.930 . S
C1024 N1021 1.279 . S
C1024 C1023 1.358 . S
C1024 H1027 0.930 . S
C1025 C1022 1.348 . S
C1025 C1023 1.356 . S
H1026 C1020 0.930 . S
H1027 C1024 0.930 . S
O1028 Li968 1.956 . S
O1028 Li969 1.970 . S
O1028 Li970 1.961 . S
O1028 C972 1.325 . S
O1029 Li968 1.970 . S
O1029 Li969 1.956 . S
O1029 Li971 1.961 . S
O1029 C978 1.325 . S
O1030 Li968 1.961 . S
O1030 Li970 1.956 . S
O1030 Li971 1.970 . S
O1030 C1000 1.325 . S
O1031 Li969 1.961 . S
O1031 Li970 1.970 . S
O1031 Li971 1.956 . S
O1031 C1006 1.325 . S
H1032 C974 0.929 . S
H1033 C975 0.930 . S
H1034 C976 0.930 . S
H1035 C977 0.930 . S
H1036 C979 0.930 . S
H1037 C981 0.929 . S
H1038 C982 0.930 . S
H1039 C983 0.930 . S
H1040 C986 0.930 . S
H1041 C989 0.929 . S
H1042 C994 0.929 . S
H1043 C995 0.930 1_545 S
H1044 C1002 0.929 . S
H1045 C1003 0.930 . S
H1046 C1004 0.930 . S
H1047 C1005 0.930 . S
H1048 C1007 0.929 . S
H1049 C1008 0.930 . S
H1050 C1009 0.930 . S
H1051 C1010 0.930 . S
H1052 C1014 0.929 . S
H1053 C1016 0.930 . S
H1054 C1022 0.929 . S
H1055 C1023 0.930 . S
Li1056 N1073 1.990 . S
Li1056 O1116 1.956 . S
Li1056 O1117 1.970 . S
Li1056 O1118 1.961 . S
Li1057 N1081 1.990 . S
Li1057 O1116 1.970 . S
Li1057 O1117 1.956 . S
Li1057 O1119 1.961 . S
Li1058 N1103 1.990 . S
Li1058 O1116 1.961 . S
Li1058 O1118 1.956 . S
Li1058 O1119 1.970 . S
Li1059 N1109 1.990 . S
Li1059 O1117 1.961 . S
Li1059 O1118 1.970 . S
Li1059 O1119 1.956 . S
C1060 C1062 1.348 . S
C1060 C1063 1.356 . S
C1060 O1116 1.325 . S
N1061 C1064 1.314 . S
N1061 C1065 1.279 . S
C1062 C1060 1.348 . S
C1062 C1064 1.353 . S
C1062 H1120 0.929 . S
C1063 C1060 1.356 . S
C1063 C1065 1.358 . S
C1063 H1121 0.930 . S
C1064 N1061 1.314 . S
C1064 C1062 1.353 . S
C1064 H1122 0.930 . S
C1065 N1061 1.279 . S
C1065 C1063 1.358 . S
C1065 H1123 0.930 . S
C1066 C1069 1.348 . S
C1066 C1070 1.356 . S
C1066 O1117 1.325 . S
C1067 N1068 1.279 . S
C1067 C1070 1.358 . S
C1067 H1124 0.930 . S
N1068 C1067 1.279 . S
N1068 C1071 1.314 . S
C1069 C1066 1.348 . S
C1069 C1071 1.353 . S
C1069 H1125 0.929 . S
C1070 C1066 1.356 . S
C1070 C1067 1.358 . S
C1070 H1126 0.930 . S
C1071 N1068 1.314 . S
C1071 C1069 1.353 . S
C1071 H1127 0.930 . S
C1072 N1073 1.314 . S
C1072 C1077 1.353 . S
C1072 H1078 0.930 . S
N1073 Li1056 1.990 . S
N1073 C1072 1.314 . S
N1073 C1075 1.279 . S
C1074 C1075 1.358 . S
C1074 C1076 1.356 . S
C1074 H1128 0.930 . S
C1075 N1073 1.279 . S
C1075 C1074 1.358 . S
C1075 H1079 0.930 . S
C1076 C1074 1.356 . S
C1076 C1077 1.348 . S
C1077 C1072 1.353 . S
C1077 C1076 1.348 . S
C1077 H1129 0.929 . S
H1078 C1072 0.930 . S
H1079 C1075 0.930 . S
C1080 N1081 1.314 . S
C1080 C1082 1.353 . S
C1080 H1086 0.930 . S
N1081 Li1057 1.990 . S
N1081 C1080 1.314 . S
N1081 C1084 1.279 . S
C1082 C1080 1.353 . S
C1082 C1085 1.348 . S
C1082 H1130 0.929 . S
C1083 C1084 1.358 . S
C1083 C1085 1.356 . S
C1083 H1131 0.930 . S
C1084 N1081 1.279 . S
C1084 C1083 1.358 . S
C1084 H1087 0.930 . S
C1085 C1082 1.348 . S
C1085 C1083 1.356 . S
H1086 C1080 0.930 . S
H1087 C1084 0.930 . S
C1088 C1090 1.348 . S
C1088 C1091 1.356 . S
C1088 O1118 1.325 . S
N1089 C1092 1.314 . S
N1089 C1093 1.279 . S
C1090 C1088 1.348 . S
C1090 C1092 1.353 . S
C1090 H1132 0.929 . S
C1091 C1088 1.356 . S
C1091 C1093 1.358 . S
C1091 H1133 0.930 . S
C1092 N1089 1.314 . S
C1092 C1090 1.353 . S
C1092 H1134 0.930 . S
C1093 N1089 1.279 . S
C1093 C1091 1.358 . S
C1093 H1135 0.930 . S
C1094 C1095 1.348 . S
C1094 C1096 1.356 . S
C1094 O1119 1.325 . S
C1095 C1094 1.348 . S
C1095 C1097 1.353 . S
C1095 H1136 0.929 . S
C1096 C1094 1.356 . S
C1096 C1098 1.358 . S
C1096 H1137 0.930 . S
C1097 C1095 1.353 . S
C1097 N1099 1.314 . S
C1097 H1138 0.930 . S
C1098 C1096 1.358 . S
C1098 N1099 1.279 . S
C1098 H1139 0.930 . S
N1099 C1097 1.314 . S
N1099 C1098 1.279 . S
C1100 C1102 1.353 . S
C1100 N1103 1.314 . S
C1100 H1106 0.930 . S
C1101 N1103 1.279 . S
C1101 C1104 1.358 . S
C1101 H1107 0.930 . S
C1102 C1100 1.353 . S
C1102 C1105 1.348 . S
C1102 H1140 0.929 . S
N1103 Li1058 1.990 . S
N1103 C1100 1.314 . S
N1103 C1101 1.279 . S
C1104 C1101 1.358 . S
C1104 C1105 1.356 . S
C1104 H1141 0.930 . S
C1105 C1102 1.348 . S
C1105 C1104 1.356 . S
H1106 C1100 0.930 . S
H1107 C1101 0.930 . S
C1108 N1109 1.314 . S
C1108 C1110 1.353 . S
C1108 H1114 0.930 . S
N1109 Li1059 1.990 . S
N1109 C1108 1.314 . S
N1109 C1112 1.279 . S
C1110 C1108 1.353 . S
C1110 C1113 1.348 . S
C1110 H1142 0.929 . S
C1111 C1112 1.358 . S
C1111 C1113 1.356 . S
C1111 H1143 0.930 . S
C1112 N1109 1.279 . S
C1112 C1111 1.358 . S
C1112 H1115 0.930 . S
C1113 C1110 1.348 . S
C1113 C1111 1.356 . S
H1114 C1108 0.930 . S
H1115 C1112 0.930 . S
O1116 Li1056 1.956 . S
O1116 Li1057 1.970 . S
O1116 Li1058 1.961 . S
O1116 C1060 1.325 . S
O1117 Li1056 1.970 . S
O1117 Li1057 1.956 . S
O1117 Li1059 1.961 . S
O1117 C1066 1.325 . S
O1118 Li1056 1.961 . S
O1118 Li1058 1.956 . S
O1118 Li1059 1.970 . S
O1118 C1088 1.325 . S
O1119 Li1057 1.961 . S
O1119 Li1058 1.970 . S
O1119 Li1059 1.956 . S
O1119 C1094 1.325 . S
H1120 C1062 0.929 . S
H1121 C1063 0.930 . S
H1122 C1064 0.930 . S
H1123 C1065 0.930 . S
H1124 C1067 0.930 . S
H1125 C1069 0.929 . S
H1126 C1070 0.930 . S
H1127 C1071 0.930 . S
H1128 C1074 0.930 . S
H1129 C1077 0.929 . S
H1130 C1082 0.929 . S
H1131 C1083 0.930 . S
H1132 C1090 0.929 . S
H1133 C1091 0.930 . S
H1134 C1092 0.930 . S
H1135 C1093 0.930 . S
H1136 C1095 0.929 . S
H1137 C1096 0.930 . S
H1138 C1097 0.930 . S
H1139 C1098 0.930 . S
H1140 C1102 0.929 . S
H1141 C1104 0.930 . S
H1142 C1110 0.929 . S
H1143 C1111 0.930 . S
Li1144 N1161 1.990 . S
Li1144 O1204 1.956 . S
Li1144 O1205 1.970 . S
Li1144 O1206 1.961 . S
Li1145 N1169 1.990 . S
Li1145 O1204 1.970 . S
Li1145 O1205 1.956 . S
Li1145 O1207 1.961 . S
Li1146 N1191 1.990 . S
Li1146 O1204 1.961 . S
Li1146 O1206 1.956 . S
Li1146 O1207 1.970 . S
Li1147 N1197 1.990 . S
Li1147 O1205 1.961 . S
Li1147 O1206 1.970 . S
Li1147 O1207 1.956 . S
C1148 C1150 1.348 . S
C1148 C1151 1.356 . S
C1148 O1204 1.325 . S
N1149 C1152 1.314 . S
N1149 C1153 1.279 . S
C1150 C1148 1.348 . S
C1150 C1152 1.353 . S
C1150 H1208 0.929 . S
C1151 C1148 1.356 . S
C1151 C1153 1.358 . S
C1151 H1209 0.930 . S
C1152 N1149 1.314 . S
C1152 C1150 1.353 . S
C1152 H1210 0.930 . S
C1153 N1149 1.279 . S
C1153 C1151 1.358 . S
C1153 H1211 0.930 . S
C1154 C1157 1.348 . S
C1154 C1158 1.356 . S
C1154 O1205 1.325 . S
C1155 N1156 1.279 . S
C1155 C1158 1.358 . S
C1155 H1212 0.930 . S
N1156 C1155 1.279 . S
N1156 C1159 1.314 . S
C1157 C1154 1.348 . S
C1157 C1159 1.353 . S
C1157 H1213 0.929 . S
C1158 C1154 1.356 . S
C1158 C1155 1.358 . S
C1158 H1214 0.930 . S
C1159 N1156 1.314 . S
C1159 C1157 1.353 . S
C1159 H1215 0.930 . S
C1160 N1161 1.314 . S
C1160 C1165 1.353 . S
C1160 H1166 0.930 . S
N1161 Li1144 1.990 . S
N1161 C1160 1.314 . S
N1161 C1163 1.279 . S
C1162 C1163 1.358 . S
C1162 C1164 1.356 . S
C1162 H1216 0.930 . S
C1163 N1161 1.279 . S
C1163 C1162 1.358 . S
C1163 H1167 0.930 . S
C1164 C1162 1.356 . S
C1164 C1165 1.348 . S
C1165 C1160 1.353 . S
C1165 C1164 1.348 . S
C1165 H1217 0.929 . S
H1166 C1160 0.930 . S
H1167 C1163 0.930 . S
C1168 N1169 1.314 . S
C1168 C1170 1.353 . S
C1168 H1174 0.930 . S
N1169 Li1145 1.990 . S
N1169 C1168 1.314 . S
N1169 C1172 1.279 . S
C1170 C1168 1.353 . S
C1170 C1173 1.348 . S
C1170 H1218 0.929 . S
C1171 C1172 1.358 . S
C1171 C1173 1.356 . S
C1171 H1219 0.930 . S
C1172 N1169 1.279 . S
C1172 C1171 1.358 . S
C1172 H1175 0.930 . S
C1173 C1170 1.348 . S
C1173 C1171 1.356 . S
H1174 C1168 0.930 . S
H1175 C1172 0.930 . S
C1176 C1178 1.348 1_545 S
C1176 C1179 1.356 . S
C1176 O1206 1.325 . S
N1177 C1180 1.314 . S
N1177 C1181 1.279 . S
C1178 C1176 1.348 1_565 S
C1178 C1180 1.353 . S
C1178 H1220 0.929 . S
C1179 C1176 1.356 . S
C1179 C1181 1.358 1_545 S
C1179 H1221 0.930 . S
C1180 N1177 1.314 . S
C1180 C1178 1.353 . S
C1180 H1222 0.930 . S
C1181 N1177 1.279 . S
C1181 C1179 1.358 1_565 S
C1181 H1223 0.930 . S
C1182 C1183 1.348 . S
C1182 C1184 1.356 . S
C1182 O1207 1.325 . S
C1183 C1182 1.348 . S
C1183 C1185 1.353 . S
C1183 H1224 0.929 . S
C1184 C1182 1.356 . S
C1184 C1186 1.358 . S
C1184 H1225 0.930 . S
C1185 C1183 1.353 . S
C1185 N1187 1.314 . S
C1185 H1226 0.930 . S
C1186 C1184 1.358 . S
C1186 N1187 1.279 . S
C1186 H1227 0.930 . S
N1187 C1185 1.314 . S
N1187 C1186 1.279 . S
C1188 C1190 1.353 . S
C1188 N1191 1.314 . S
C1188 H1194 0.930 . S
C1189 N1191 1.279 . S
C1189 C1192 1.358 . S
C1189 H1195 0.930 . S
C1190 C1188 1.353 . S
C1190 C1193 1.348 . S
C1190 H1228 0.929 . S
N1191 Li1146 1.990 . S
N1191 C1188 1.314 . S
N1191 C1189 1.279 . S
C1192 C1189 1.358 . S
C1192 C1193 1.356 . S
C1192 H1229 0.930 1_545 S
C1193 C1190 1.348 . S
C1193 C1192 1.356 . S
H1194 C1188 0.930 . S
H1195 C1189 0.930 . S
C1196 N1197 1.314 . S
C1196 C1198 1.353 . S
C1196 H1202 0.930 . S
N1197 Li1147 1.990 . S
N1197 C1196 1.314 . S
N1197 C1200 1.279 . S
C1198 C1196 1.353 . S
C1198 C1201 1.348 . S
C1198 H1230 0.929 . S
C1199 C1200 1.358 . S
C1199 C1201 1.356 . S
C1199 H1231 0.930 . S
C1200 N1197 1.279 . S
C1200 C1199 1.358 . S
C1200 H1203 0.930 . S
C1201 C1198 1.348 . S
C1201 C1199 1.356 . S
H1202 C1196 0.930 . S
H1203 C1200 0.930 . S
O1204 Li1144 1.956 . S
O1204 Li1145 1.970 . S
O1204 Li1146 1.961 . S
O1204 C1148 1.325 . S
O1205 Li1144 1.970 . S
O1205 Li1145 1.956 . S
O1205 Li1147 1.961 . S
O1205 C1154 1.325 . S
O1206 Li1144 1.961 . S
O1206 Li1146 1.956 . S
O1206 Li1147 1.970 . S
O1206 C1176 1.325 . S
O1207 Li1145 1.961 . S
O1207 Li1146 1.970 . S
O1207 Li1147 1.956 . S
O1207 C1182 1.325 . S
H1208 C1150 0.929 . S
H1209 C1151 0.930 . S
H1210 C1152 0.930 . S
H1211 C1153 0.930 . S
H1212 C1155 0.930 . S
H1213 C1157 0.929 . S
H1214 C1158 0.930 . S
H1215 C1159 0.930 . S
H1216 C1162 0.930 . S
H1217 C1165 0.929 . S
H1218 C1170 0.929 . S
H1219 C1171 0.930 . S
H1220 C1178 0.929 . S
H1221 C1179 0.930 . S
H1222 C1180 0.930 . S
H1223 C1181 0.930 . S
H1224 C1183 0.929 . S
H1225 C1184 0.930 . S
H1226 C1185 0.930 . S
H1227 C1186 0.930 . S
H1228 C1190 0.929 . S
H1229 C1192 0.930 1_565 S
H1230 C1198 0.929 . S
H1231 C1199 0.930 . S
Li1232 N1249 1.990 . S
Li1232 O1292 1.956 . S
Li1232 O1293 1.970 . S
Li1232 O1294 1.961 . S
Li1233 N1257 1.990 . S
Li1233 O1292 1.970 . S
Li1233 O1293 1.956 . S
Li1233 O1295 1.961 . S
Li1234 N1279 1.990 . S
Li1234 O1292 1.961 . S
Li1234 O1294 1.956 . S
Li1234 O1295 1.970 . S
Li1235 N1285 1.990 . S
Li1235 O1293 1.961 . S
Li1235 O1294 1.970 . S
Li1235 O1295 1.956 . S
C1236 C1238 1.348 . S
C1236 C1239 1.356 . S
C1236 O1292 1.325 . S
N1237 C1240 1.314 . S
N1237 C1241 1.279 . S
C1238 C1236 1.348 . S
C1238 C1240 1.353 . S
C1238 H1296 0.929 . S
C1239 C1236 1.356 . S
C1239 C1241 1.358 . S
C1239 H1297 0.930 . S
C1240 N1237 1.314 . S
C1240 C1238 1.353 . S
C1240 H1298 0.930 . S
C1241 N1237 1.279 . S
C1241 C1239 1.358 . S
C1241 H1299 0.930 . S
C1242 C1245 1.348 . S
C1242 C1246 1.356 . S
C1242 O1293 1.325 . S
C1243 N1244 1.279 . S
C1243 C1246 1.358 . S
C1243 H1300 0.930 . S
N1244 C1243 1.279 . S
N1244 C1247 1.314 . S
C1245 C1242 1.348 . S
C1245 C1247 1.353 . S
C1245 H1301 0.929 . S
C1246 C1242 1.356 . S
C1246 C1243 1.358 . S
C1246 H1302 0.930 . S
C1247 N1244 1.314 . S
C1247 C1245 1.353 . S
C1247 H1303 0.930 . S
C1248 N1249 1.314 . S
C1248 C1253 1.353 . S
C1248 H1254 0.930 . S
N1249 Li1232 1.990 . S
N1249 C1248 1.314 . S
N1249 C1251 1.279 . S
C1250 C1251 1.358 . S
C1250 C1252 1.356 . S
C1250 H1304 0.930 . S
C1251 N1249 1.279 . S
C1251 C1250 1.358 . S
C1251 H1255 0.930 . S
C1252 C1250 1.356 . S
C1252 C1253 1.348 . S
C1253 C1248 1.353 . S
C1253 C1252 1.348 . S
C1253 H1305 0.929 . S
H1254 C1248 0.930 . S
H1255 C1251 0.930 . S
C1256 N1257 1.314 . S
C1256 C1258 1.353 . S
C1256 H1262 0.930 . S
N1257 Li1233 1.990 . S
N1257 C1256 1.314 . S
N1257 C1260 1.279 . S
C1258 C1256 1.353 . S
C1258 C1261 1.348 . S
C1258 H1306 0.929 . S
C1259 C1260 1.358 . S
C1259 C1261 1.356 . S
C1259 H1307 0.930 . S
C1260 N1257 1.279 . S
C1260 C1259 1.358 . S
C1260 H1263 0.930 . S
C1261 C1258 1.348 . S
C1261 C1259 1.356 . S
H1262 C1256 0.930 . S
H1263 C1260 0.930 . S
C1264 C1266 1.348 . S
C1264 C1267 1.356 . S
C1264 O1294 1.325 . S
N1265 C1268 1.314 . S
N1265 C1269 1.279 . S
C1266 C1264 1.348 . S
C1266 C1268 1.353 . S
C1266 H1308 0.929 . S
C1267 C1264 1.356 . S
C1267 C1269 1.358 . S
C1267 H1309 0.930 . S
C1268 N1265 1.314 . S
C1268 C1266 1.353 . S
C1268 H1310 0.930 . S
C1269 N1265 1.279 . S
C1269 C1267 1.358 . S
C1269 H1311 0.930 . S
C1270 C1271 1.348 . S
C1270 C1272 1.356 . S
C1270 O1295 1.325 . S
C1271 C1270 1.348 . S
C1271 C1273 1.353 . S
C1271 H1312 0.929 . S
C1272 C1270 1.356 . S
C1272 C1274 1.358 . S
C1272 H1313 0.930 . S
C1273 C1271 1.353 . S
C1273 N1275 1.314 . S
C1273 H1314 0.930 . S
C1274 C1272 1.358 . S
C1274 N1275 1.279 . S
C1274 H1315 0.930 . S
N1275 C1273 1.314 . S
N1275 C1274 1.279 . S
C1276 C1278 1.353 . S
C1276 N1279 1.314 . S
C1276 H1282 0.930 . S
C1277 N1279 1.279 . S
C1277 C1280 1.358 . S
C1277 H1283 0.930 . S
C1278 C1276 1.353 . S
C1278 C1281 1.348 . S
C1278 H1316 0.929 . S
N1279 Li1234 1.990 . S
N1279 C1276 1.314 . S
N1279 C1277 1.279 . S
C1280 C1277 1.358 . S
C1280 C1281 1.356 . S
C1280 H1317 0.930 . S
C1281 C1278 1.348 . S
C1281 C1280 1.356 . S
H1282 C1276 0.930 . S
H1283 C1277 0.930 . S
C1284 N1285 1.314 . S
C1284 C1286 1.353 . S
C1284 H1290 0.930 . S
N1285 Li1235 1.990 . S
N1285 C1284 1.314 . S
N1285 C1288 1.279 . S
C1286 C1284 1.353 . S
C1286 C1289 1.348 . S
C1286 H1318 0.929 . S
C1287 C1288 1.358 . S
C1287 C1289 1.356 . S
C1287 H1319 0.930 . S
C1288 N1285 1.279 . S
C1288 C1287 1.358 . S
C1288 H1291 0.930 . S
C1289 C1286 1.348 . S
C1289 C1287 1.356 . S
H1290 C1284 0.930 . S
H1291 C1288 0.930 . S
O1292 Li1232 1.956 . S
O1292 Li1233 1.970 . S
O1292 Li1234 1.961 . S
O1292 C1236 1.325 . S
O1293 Li1232 1.970 . S
O1293 Li1233 1.956 . S
O1293 Li1235 1.961 . S
O1293 C1242 1.325 . S
O1294 Li1232 1.961 . S
O1294 Li1234 1.956 . S
O1294 Li1235 1.970 . S
O1294 C1264 1.325 . S
O1295 Li1233 1.961 . S
O1295 Li1234 1.970 . S
O1295 Li1235 1.956 . S
O1295 C1270 1.325 . S
H1296 C1238 0.929 . S
H1297 C1239 0.930 . S
H1298 C1240 0.930 . S
H1299 C1241 0.930 . S
H1300 C1243 0.930 . S
H1301 C1245 0.929 . S
H1302 C1246 0.930 . S
H1303 C1247 0.930 . S
H1304 C1250 0.930 . S
H1305 C1253 0.929 . S
H1306 C1258 0.929 . S
H1307 C1259 0.930 . S
H1308 C1266 0.929 . S
H1309 C1267 0.930 . S
H1310 C1268 0.930 . S
H1311 C1269 0.930 . S
H1312 C1271 0.929 . S
H1313 C1272 0.930 . S
H1314 C1273 0.930 . S
H1315 C1274 0.930 . S
H1316 C1278 0.929 . S
H1317 C1280 0.930 . S
H1318 C1286 0.929 . S
H1319 C1287 0.930 . S
Li1320 N1337 1.990 . S
Li1320 O1380 1.956 . S
Li1320 O1381 1.970 . S
Li1320 O1382 1.961 . S
Li1321 N1345 1.990 . S
Li1321 O1380 1.970 . S
Li1321 O1381 1.956 . S
Li1321 O1383 1.961 . S
Li1322 N1367 1.990 . S
Li1322 O1380 1.961 . S
Li1322 O1382 1.956 . S
Li1322 O1383 1.970 . S
Li1323 N1373 1.990 . S
Li1323 O1381 1.961 . S
Li1323 O1382 1.970 . S
Li1323 O1383 1.956 . S
C1324 C1326 1.348 1_565 S
C1324 C1327 1.356 . S
C1324 O1380 1.325 . S
N1325 C1328 1.314 . S
N1325 C1329 1.279 . S
C1326 C1324 1.348 1_545 S
C1326 C1328 1.353 . S
C1326 H1384 0.929 . S
C1327 C1324 1.356 . S
C1327 C1329 1.358 1_565 S
C1327 H1385 0.930 . S
C1328 N1325 1.314 . S
C1328 C1326 1.353 . S
C1328 H1386 0.930 . S
C1329 N1325 1.279 . S
C1329 C1327 1.358 1_545 S
C1329 H1387 0.930 . S
C1330 C1333 1.348 . S
C1330 C1334 1.356 . S
C1330 O1381 1.325 . S
C1331 N1332 1.279 . S
C1331 C1334 1.358 . S
C1331 H1388 0.930 . S
N1332 C1331 1.279 . S
N1332 C1335 1.314 . S
C1333 C1330 1.348 . S
C1333 C1335 1.353 . S
C1333 H1389 0.929 . S
C1334 C1330 1.356 . S
C1334 C1331 1.358 . S
C1334 H1390 0.930 . S
C1335 N1332 1.314 . S
C1335 C1333 1.353 . S
C1335 H1391 0.930 . S
C1336 N1337 1.314 . S
C1336 C1341 1.353 . S
C1336 H1342 0.930 . S
N1337 Li1320 1.990 . S
N1337 C1336 1.314 . S
N1337 C1339 1.279 . S
C1338 C1339 1.358 . S
C1338 C1340 1.356 . S
C1338 H1392 0.930 1_565 S
C1339 N1337 1.279 . S
C1339 C1338 1.358 . S
C1339 H1343 0.930 . S
C1340 C1338 1.356 . S
C1340 C1341 1.348 . S
C1341 C1336 1.353 . S
C1341 C1340 1.348 . S
C1341 H1393 0.929 . S
H1342 C1336 0.930 . S
H1343 C1339 0.930 . S
C1344 N1345 1.314 . S
C1344 C1346 1.353 . S
C1344 H1350 0.930 . S
N1345 Li1321 1.990 . S
N1345 C1344 1.314 . S
N1345 C1348 1.279 . S
C1346 C1344 1.353 . S
C1346 C1349 1.348 . S
C1346 H1394 0.929 . S
C1347 C1348 1.358 . S
C1347 C1349 1.356 . S
C1347 H1395 0.930 . S
C1348 N1345 1.279 . S
C1348 C1347 1.358 . S
C1348 H1351 0.930 . S
C1349 C1346 1.348 . S
C1349 C1347 1.356 . S
H1350 C1344 0.930 . S
H1351 C1348 0.930 . S
C1352 C1354 1.348 . S
C1352 C1355 1.356 . S
C1352 O1382 1.325 . S
N1353 C1356 1.314 . S
N1353 C1357 1.279 . S
C1354 C1352 1.348 . S
C1354 C1356 1.353 . S
C1354 H1396 0.929 . S
C1355 C1352 1.356 . S
C1355 C1357 1.358 . S
C1355 H1397 0.930 . S
C1356 N1353 1.314 . S
C1356 C1354 1.353 . S
C1356 H1398 0.930 . S
C1357 N1353 1.279 . S
C1357 C1355 1.358 . S
C1357 H1399 0.930 . S
C1358 C1359 1.348 . S
C1358 C1360 1.356 . S
C1358 O1383 1.325 . S
C1359 C1358 1.348 . S
C1359 C1361 1.353 . S
C1359 H1400 0.929 . S
C1360 C1358 1.356 . S
C1360 C1362 1.358 . S
C1360 H1401 0.930 . S
C1361 C1359 1.353 . S
C1361 N1363 1.314 . S
C1361 H1402 0.930 . S
C1362 C1360 1.358 . S
C1362 N1363 1.279 . S
C1362 H1403 0.930 . S
N1363 C1361 1.314 . S
N1363 C1362 1.279 . S
C1364 C1366 1.353 . S
C1364 N1367 1.314 . S
C1364 H1370 0.930 . S
C1365 N1367 1.279 . S
C1365 C1368 1.358 . S
C1365 H1371 0.930 . S
C1366 C1364 1.353 . S
C1366 C1369 1.348 . S
C1366 H1404 0.929 . S
N1367 Li1322 1.990 . S
N1367 C1364 1.314 . S
N1367 C1365 1.279 . S
C1368 C1365 1.358 . S
C1368 C1369 1.356 . S
C1368 H1405 0.930 . S
C1369 C1366 1.348 . S
C1369 C1368 1.356 . S
H1370 C1364 0.930 . S
H1371 C1365 0.930 . S
C1372 N1373 1.314 . S
C1372 C1374 1.353 . S
C1372 H1378 0.930 . S
N1373 Li1323 1.990 . S
N1373 C1372 1.314 . S
N1373 C1376 1.279 . S
C1374 C1372 1.353 . S
C1374 C1377 1.348 . S
C1374 H1406 0.929 . S
C1375 C1376 1.358 . S
C1375 C1377 1.356 . S
C1375 H1407 0.930 . S
C1376 N1373 1.279 . S
C1376 C1375 1.358 . S
C1376 H1379 0.930 . S
C1377 C1374 1.348 . S
C1377 C1375 1.356 . S
H1378 C1372 0.930 . S
H1379 C1376 0.930 . S
O1380 Li1320 1.956 . S
O1380 Li1321 1.970 . S
O1380 Li1322 1.961 . S
O1380 C1324 1.325 . S
O1381 Li1320 1.970 . S
O1381 Li1321 1.956 . S
O1381 Li1323 1.961 . S
O1381 C1330 1.325 . S
O1382 Li1320 1.961 . S
O1382 Li1322 1.956 . S
O1382 Li1323 1.970 . S
O1382 C1352 1.325 . S
O1383 Li1321 1.961 . S
O1383 Li1322 1.970 . S
O1383 Li1323 1.956 . S
O1383 C1358 1.325 . S
H1384 C1326 0.929 . S
H1385 C1327 0.930 . S
H1386 C1328 0.930 . S
H1387 C1329 0.930 . S
H1388 C1331 0.930 . S
H1389 C1333 0.929 . S
H1390 C1334 0.930 . S
H1391 C1335 0.930 . S
H1392 C1338 0.930 1_545 S
H1393 C1341 0.929 . S
H1394 C1346 0.929 . S
H1395 C1347 0.930 . S
H1396 C1354 0.929 . S
H1397 C1355 0.930 . S
H1398 C1356 0.930 . S
H1399 C1357 0.930 . S
H1400 C1359 0.929 . S
H1401 C1360 0.930 . S
H1402 C1361 0.930 . S
H1403 C1362 0.930 . S
H1404 C1366 0.929 . S
H1405 C1368 0.930 . S
H1406 C1374 0.929 . S
H1407 C1375 0.930 . S
C1017 C20 1.596 . S
C1369 C108 1.596 . S
C225 C812 1.596 . S
C1164 C321 1.596 1_455 S
C409 C1173 1.596 . S
C469 C1025 1.596 1_655 S
C548 C1377 1.596 . S
C673 C821 1.596 . S
C284 C761 1.596 . S
C900 C145 1.596 . S
C1076 C489 1.596 . S
C1281 C636 1.596 . S
C372 C753 1.596 1_455 S
C909 C585 1.596 . S
C1289 C205 1.596 . S
C57 C1085 1.596 1_455 S
C49 C381 1.022 1_554 S
C137 C497 1.022 . S
C196 C577 1.022 . S
C645 C293 1.022 . S
C733 C1105 1.031 1_556 S
C1193 C849 1.031 . S
C929 C1252 1.031 . S
C1340 C997 1.031 . S
C665 C117 1.022 1_545 S
C233 C401 1.022 . S
C313 C460 1.022 1_546 S
C29 C557 1.022 . S
C841 C1349 1.031 1_545 S
C1113 C937 1.031 . S
C988 C1201 1.031 1_564 S
C1261 C724 1.031 . S
