# Generated by pormake.
# Topology snl, (6)-cn, num edge types: 1
# Building blocks:
#     Node 0, Type 0, BuildingBlock: KUMBUR_clean_sbu_0, # of connection points: 6
#     Node 1, Type 0, BuildingBlock: KUMBUR_clean_sbu_0, # of connection points: 6
#     Node 2, Type 0, BuildingBlock: KUMBUR_clean_sbu_0, # of connection points: 6
#     Node 3, Type 0, BuildingBlock: KUMBUR_clean_sbu_0, # of connection points: 6
#     Node 4, Type 0, BuildingBlock: KUMBUR_clean_sbu_0, # of connection points: 6
#     Node 5, Type 0, BuildingBlock: KUMBUR_clean_sbu_0, # of connection points: 6
#     Node 6, Type 0, BuildingBlock: KUMBUR_clean_sbu_0, # of connection points: 6
#     Node 7, Type 0, BuildingBlock: KUMBUR_clean_sbu_0, # of connection points: 6
#     Node 8, Type 0, BuildingBlock: KUMBUR_clean_sbu_0, # of connection points: 6
#     Node 9, Type 0, BuildingBlock: KUMBUR_clean_sbu_0, # of connection points: 6
#     Node 10, Type 0, BuildingBlock: KUMBUR_clean_sbu_0, # of connection points: 6
#     Node 11, Type 0, BuildingBlock: KUMBUR_clean_sbu_0, # of connection points: 6
#     Node 12, Type 0, BuildingBlock: KUMBUR_clean_sbu_0, # of connection points: 6
#     Node 13, Type 0, BuildingBlock: KUMBUR_clean_sbu_0, # of connection points: 6
#     Node 14, Type 0, BuildingBlock: KUMBUR_clean_sbu_0, # of connection points: 6
#     Node 15, Type 0, BuildingBlock: KUMBUR_clean_sbu_0, # of connection points: 6
#     Edge 16, Type (0, 0), BuildingBlock: OJICUG_clean_linker_0, # of connection points: 2
#     Edge 17, Type (0, 0), BuildingBlock: OJICUG_clean_linker_0, # of connection points: 2
#     Edge 18, Type (0, 0), BuildingBlock: OJICUG_clean_linker_0, # of connection points: 2
#     Edge 19, Type (0, 0), BuildingBlock: OJICUG_clean_linker_0, # of connection points: 2
#     Edge 20, Type (0, 0), BuildingBlock: OJICUG_clean_linker_0, # of connection points: 2
#     Edge 21, Type (0, 0), BuildingBlock: OJICUG_clean_linker_0, # of connection points: 2
#     Edge 22, Type (0, 0), BuildingBlock: OJICUG_clean_linker_0, # of connection points: 2
#     Edge 23, Type (0, 0), BuildingBlock: OJICUG_clean_linker_0, # of connection points: 2
#     Edge 24, Type (0, 0), BuildingBlock: OJICUG_clean_linker_0, # of connection points: 2
#     Edge 25, Type (0, 0), BuildingBlock: OJICUG_clean_linker_0, # of connection points: 2
#     Edge 26, Type (0, 0), BuildingBlock: OJICUG_clean_linker_0, # of connection points: 2
#     Edge 27, Type (0, 0), BuildingBlock: OJICUG_clean_linker_0, # of connection points: 2
#     Edge 28, Type (0, 0), BuildingBlock: OJICUG_clean_linker_0, # of connection points: 2
#     Edge 29, Type (0, 0), BuildingBlock: OJICUG_clean_linker_0, # of connection points: 2
#     Edge 30, Type (0, 0), BuildingBlock: OJICUG_clean_linker_0, # of connection points: 2
#     Edge 31, Type (0, 0), BuildingBlock: OJICUG_clean_linker_0, # of connection points: 2
#     Edge 32, Type (0, 0), BuildingBlock: OJICUG_clean_linker_0, # of connection points: 2
#     Edge 33, Type (0, 0), BuildingBlock: OJICUG_clean_linker_0, # of connection points: 2
#     Edge 34, Type (0, 0), BuildingBlock: OJICUG_clean_linker_0, # of connection points: 2
#     Edge 35, Type (0, 0), BuildingBlock: OJICUG_clean_linker_0, # of connection points: 2
#     Edge 36, Type (0, 0), BuildingBlock: OJICUG_clean_linker_0, # of connection points: 2
#     Edge 37, Type (0, 0), BuildingBlock: OJICUG_clean_linker_0, # of connection points: 2
#     Edge 38, Type (0, 0), BuildingBlock: OJICUG_clean_linker_0, # of connection points: 2
#     Edge 39, Type (0, 0), BuildingBlock: OJICUG_clean_linker_0, # of connection points: 2
#     Edge 40, Type (0, 0), BuildingBlock: OJICUG_clean_linker_0, # of connection points: 2
#     Edge 41, Type (0, 0), BuildingBlock: OJICUG_clean_linker_0, # of connection points: 2
#     Edge 42, Type (0, 0), BuildingBlock: OJICUG_clean_linker_0, # of connection points: 2
#     Edge 43, Type (0, 0), BuildingBlock: OJICUG_clean_linker_0, # of connection points: 2
#     Edge 44, Type (0, 0), BuildingBlock: OJICUG_clean_linker_0, # of connection points: 2
#     Edge 45, Type (0, 0), BuildingBlock: OJICUG_clean_linker_0, # of connection points: 2
#     Edge 46, Type (0, 0), BuildingBlock: OJICUG_clean_linker_0, # of connection points: 2
#     Edge 47, Type (0, 0), BuildingBlock: OJICUG_clean_linker_0, # of connection points: 2
#     Edge 48, Type (0, 0), BuildingBlock: OJICUG_clean_linker_0, # of connection points: 2
#     Edge 49, Type (0, 0), BuildingBlock: OJICUG_clean_linker_0, # of connection points: 2
#     Edge 50, Type (0, 0), BuildingBlock: OJICUG_clean_linker_0, # of connection points: 2
#     Edge 51, Type (0, 0), BuildingBlock: OJICUG_clean_linker_0, # of connection points: 2
#     Edge 52, Type (0, 0), BuildingBlock: OJICUG_clean_linker_0, # of connection points: 2
#     Edge 53, Type (0, 0), BuildingBlock: OJICUG_clean_linker_0, # of connection points: 2
#     Edge 54, Type (0, 0), BuildingBlock: OJICUG_clean_linker_0, # of connection points: 2
#     Edge 55, Type (0, 0), BuildingBlock: OJICUG_clean_linker_0, # of connection points: 2
#     Edge 56, Type (0, 0), BuildingBlock: OJICUG_clean_linker_0, # of connection points: 2
#     Edge 57, Type (0, 0), BuildingBlock: OJICUG_clean_linker_0, # of connection points: 2
#     Edge 58, Type (0, 0), BuildingBlock: OJICUG_clean_linker_0, # of connection points: 2
#     Edge 59, Type (0, 0), BuildingBlock: OJICUG_clean_linker_0, # of connection points: 2
#     Edge 60, Type (0, 0), BuildingBlock: OJICUG_clean_linker_0, # of connection points: 2
#     Edge 61, Type (0, 0), BuildingBlock: OJICUG_clean_linker_0, # of connection points: 2
#     Edge 62, Type (0, 0), BuildingBlock: OJICUG_clean_linker_0, # of connection points: 2
#     Edge 63, Type (0, 0), BuildingBlock: OJICUG_clean_linker_0, # of connection points: 2
# Relax obj value: 0.161
# Max RMSD: 0.260
# Mean RMSD: 0.251
data_MOF--net-snl--node1-KUMBUR_clean_sbu_0--edge1-OJICUG_clean_linker_0
_symmetry_space_group_name_H-M    P1
_symmetry_Int_Tables_number       1
_symmetry_cell_setting            triclinic
loop_
_symmetry_equiv_pos_as_xyz
'x, y, z'
_cell_length_a     40.429239
_cell_length_b     40.817812
_cell_length_c     20.427192
_cell_angle_alpha  90.514392
_cell_angle_beta   90.154239
_cell_angle_gamma 90.15674
loop_
_atom_site_label
_atom_site_type_symbol
_atom_site_fract_x
_atom_site_fract_y
_atom_site_fract_z
_atom_type_partial_charge
Tb0 Tb 0.15909 0.65543 0.07013 0.0
C1 C 0.0598 0.60547 0.25431 0.0
C2 C 0.05176 0.64172 0.38432 0.0
C3 C 0.99222 0.59964 0.36775 0.0
C4 C 0.07187 0.63183 0.31285 0.0
C5 C 0.02321 0.58414 0.25829 0.0
C6 C 0.01468 0.62765 0.4114 0.0
C7 C 0.04477 0.55665 0.1608 0.0
N8 N 0.08199 0.59821 0.2072 0.0
C9 C 0.07469 0.57371 0.16318 0.0
C10 C 0.01924 0.56184 0.20436 0.0
Tb11 Tb 0.13389 0.62273 0.21976 0.0
N12 N 0.10129 0.64669 0.30111 0.0
C13 C 0.11403 0.66867 0.34606 0.0
C14 C 0.0679 0.66457 0.42332 0.0
C15 C 0.09801 0.67778 0.40413 0.0
H16 H 0.0904 0.56786 0.12346 0.0
H17 H 0.11009 0.69525 0.4365 0.0
H18 H 1.00508 0.63643 0.4577 0.0
H19 H 0.04107 0.53884 0.12176 0.0
H20 H 0.13844 0.67893 0.33895 0.0
H21 H 0.24474 0.5638 0.9738 0.0
H22 H 0.05708 0.67242 0.46926 0.0
H23 H 0.17908 0.73628 0.09534 0.0
H24 H 0.19198 0.5913 0.98446 0.0
H25 H 0.2266 0.76796 0.13092 0.0
H26 H 0.96889 0.59142 0.38918 0.0
H27 H 0.29498 0.58856 0.0218 0.0
H28 H 0.32143 0.63648 0.07884 0.0
H29 H 0.99758 0.54695 0.19483 0.0
H30 H 0.31627 0.69222 0.12342 0.0
N31 N 0.20915 0.62878 0.05025 0.0
C32 C 0.21236 0.60124 1.01171 0.0
C33 C 0.27121 0.60004 0.03008 0.0
C34 C 0.26876 0.63013 0.06259 0.0
C35 C 0.24293 0.58595 1.0031 0.0
C36 C 0.23714 0.64442 0.07039 0.0
H37 H 0.28117 0.74165 0.14203 0.0
N38 N 0.20381 0.68987 0.09411 0.0
C39 C 0.22911 0.74187 0.12228 0.0
C40 C 0.23432 0.67598 0.09376 0.0
C41 C 0.20163 0.72316 0.10349 0.0
C42 C 0.25982 0.72702 0.12821 0.0
C43 C 0.263 0.69397 0.1116 0.0
O44 O 0.1648 0.68797 0.99192 0.0
O45 O 0.11667 0.63364 0.12209 0.0
O46 O 0.14347 0.57916 0.15265 0.0
O47 O 0.14801 0.60364 0.05111 0.0
O48 O 0.1073 0.67321 0.06435 0.0
O49 O 0.14918 0.63904 0.97313 0.0
O50 O 0.13239 0.58225 0.28223 0.0
O51 O 0.17594 0.64777 0.17333 0.0
O52 O 0.13938 0.69916 0.11723 0.0
O53 O 0.13151 0.67936 0.22309 0.0
O54 O 0.18272 0.60161 0.20776 0.0
O55 O 0.16156 0.62449 0.30893 0.0
C56 C 0.09313 0.65203 0.10177 0.0
C57 C 0.18022 0.66445 0.88862 0.0
C58 C 0.18949 0.65313 0.77055 0.0
C59 C 0.16813 0.65466 0.82588 0.0
C60 C 0.22286 0.66218 0.77975 0.0
C61 C 0.21379 0.67263 0.89535 0.0
C62 C 0.23479 0.67163 0.84133 0.0
C63 C 0.14661 0.5771 0.08721 0.0
C64 C 0.15782 0.66647 0.94659 0.0
C65 C 0.29413 0.67892 0.10911 0.0
C66 C 0.29705 0.64712 0.08404 0.0
C67 C 0.19849 0.6272 0.18972 0.0
C68 C 0.14175 0.59017 0.39765 0.0
C69 C 0.15297 0.61018 0.45101 0.0
C70 C 0.1445 0.60217 0.5167 0.0
C71 C 0.125 0.57433 0.52791 0.0
C72 C 0.12389 0.56152 0.41221 0.0
C73 C 0.11507 0.55411 0.47627 0.0
C74 C 0.13306 0.70423 0.17979 0.0
C75 C 0.15104 0.59582 0.32734 0.0
H76 H 0.14235 0.64784 0.82056 0.0
H77 H 0.23996 0.66227 0.73904 0.0
H78 H 0.22382 0.68011 0.94239 0.0
H79 H 0.26056 0.67834 0.84715 0.0
H80 H 0.16841 0.63137 0.44178 0.0
H81 H 0.11837 0.56755 0.57736 0.0
H82 H 0.11616 0.54476 0.37364 0.0
H83 H 0.10076 0.53224 0.48603 0.0
Tb84 Tb 0.66096 0.87036 0.4802 0.0
C85 C 0.57245 0.93645 0.27252 0.0
C86 C 0.52712 0.89945 0.24745 0.0
C87 C 0.52506 0.95577 0.21022 0.0
C88 C 0.55789 0.90586 0.27774 0.0
C89 C 0.55583 0.96194 0.23973 0.0
C90 C 0.51119 0.92441 0.21276 0.0
C91 C 0.60355 0.99636 0.25765 0.0
N92 N 0.60381 0.9405 0.29519 0.0
C93 C 0.61981 0.96987 0.28607 0.0
C94 C 0.57142 0.99238 0.23417 0.0
Tb95 Tb 0.62988 0.89282 0.3258 0.0
N96 N 0.57538 0.88151 0.30654 0.0
C97 C 0.56303 0.85029 0.30747 0.0
C98 C 0.51403 0.86774 0.25016 0.0
C99 C 0.53195 0.84313 0.28084 0.0
H100 H 0.64523 0.97319 0.30091 0.0
H101 H 0.52228 0.8184 0.28234 0.0
H102 H 0.48838 0.91961 0.18689 0.0
H103 H 0.61624 0.01955 0.252 0.0
H104 H 0.57715 0.83056 0.32799 0.0
H105 H 0.72646 0.97556 0.58903 0.0
H106 H 0.49058 0.86174 0.2273 0.0
H107 H 0.69611 0.79862 0.43401 0.0
H108 H 0.68072 0.93663 0.57848 0.0
H109 H 0.74861 0.77977 0.39013 0.0
H110 H 0.51225 0.97479 0.1836 0.0
H111 H 0.77897 0.9655 0.53054 0.0
H112 H 0.81311 0.92771 0.46094 0.0
H113 H 0.5593 0.0126 0.20995 0.0
H114 H 0.81951 0.87324 0.40909 0.0
N115 N 0.70447 0.90621 0.50674 0.0
C116 C 0.70253 0.93241 0.54947 0.0
C117 C 0.75851 0.94852 0.52454 0.0
C118 C 0.76204 0.9196 0.48829 0.0
C119 C 0.72891 0.95435 0.55721 0.0
C120 C 0.73462 0.89821 0.48243 0.0
H121 H 0.79649 0.81743 0.38643 0.0
N122 N 0.71139 0.84807 0.44937 0.0
C123 C 0.74601 0.8049 0.40668 0.0
C124 C 0.73836 0.86782 0.45393 0.0
C125 C 0.7156 0.81616 0.43015 0.0
C126 C 0.77302 0.82604 0.40531 0.0
C127 C 0.76956 0.85781 0.43012 0.0
O128 O 0.65739 0.82762 0.53652 0.0
O129 O 0.61672 0.87143 0.41801 0.0
O130 O 0.61947 0.93616 0.39437 0.0
O131 O 0.64604 0.92158 0.49129 0.0
O132 O 0.61009 0.88256 0.51429 0.0
O133 O 0.66941 0.87316 0.58233 0.0
O134 O 0.66267 0.89659 0.24573 0.0
O135 O 0.67554 0.87971 0.37761 0.0
O136 O 0.645 0.82347 0.43731 0.0
O137 O 0.63613 0.83745 0.32826 0.0
O138 O 0.67289 0.92444 0.33336 0.0
O139 O 0.61637 0.87358 0.23187 0.0
C140 C 0.59445 0.87905 0.4596 0.0
C141 C 0.63865 0.83579 0.64647 0.0
C142 C 0.62235 0.84227 0.76172 0.0
C143 C 0.64401 0.84948 0.70961 0.0
C144 C 0.59546 0.82121 0.75035 0.0
C145 C 0.6113 0.81493 0.63657 0.0
C146 C 0.59002 0.80768 0.68822 0.0
C147 C 0.63007 0.9432 0.45555 0.0
C148 C 0.662 0.84275 0.59203 0.0
C149 C 0.79604 0.88002 0.43052 0.0
C150 C 0.79227 0.911 0.45936 0.0
C151 C 0.69326 0.90423 0.35944 0.0
C152 C 0.63899 0.90214 0.14055 0.0
C153 C 0.63275 0.88547 0.08053 0.0
C154 C 0.633 0.90266 1.02033 0.0
C155 C 0.6387 0.9367 0.02185 0.0
C156 C 0.6453 0.93599 0.1393 0.0
C157 C 0.64464 0.95311 0.08074 0.0
C158 C 0.64018 0.81506 0.37532 0.0
C159 C 0.64276 0.88394 0.20305 0.0
H160 H 0.66483 0.86578 0.71813 0.0
H161 H 0.57842 0.81553 0.78953 0.0
H162 H 0.60626 0.80419 0.58893 0.0
H163 H 0.56907 0.79158 0.67995 0.0
H164 H 0.62874 0.85922 0.08059 0.0
H165 H 0.63976 0.95067 0.97708 0.0
H166 H 0.65211 0.94917 0.18328 0.0
H167 H 0.64976 0.97915 0.08078 0.0
Tb168 Tb 0.36817 0.38225 0.57331 0.0
C169 C 0.44266 0.46557 0.77878 0.0
C170 C 0.488 0.43447 0.82441 0.0
C171 C 0.48355 0.49276 0.84818 0.0
C172 C 0.45914 0.43617 0.78562 0.0
C173 C 0.4551 0.4944 0.8087 0.0
C174 C 0.49969 0.46276 0.85677 0.0
C175 C 0.40829 0.52357 0.76484 0.0
N176 N 0.41359 0.46555 0.74548 0.0
C177 C 0.39569 0.49396 0.7404 0.0
C178 C 0.43795 0.52376 0.79992 0.0
Tb179 Tb 0.39222 0.41448 0.72312 0.0
N180 N 0.44613 0.40904 0.75636 0.0
C181 C 0.46209 0.3796 0.76127 0.0
C182 C 0.50424 0.40441 0.82963 0.0
C183 C 0.4916 0.37703 0.7967 0.0
H184 H 0.37154 0.49377 0.71758 0.0
H185 H 0.50405 0.35367 0.80016 0.0
H186 H 0.52157 0.46182 0.88734 0.0
H187 H 0.3945 0.54598 0.75852 0.0
H188 H 0.45203 0.35764 0.73931 0.0
H189 H 0.24277 0.43159 0.57398 0.0
H190 H 0.52669 0.40217 0.85834 0.0
H191 H 0.39661 0.31301 0.5079 0.0
H192 H 0.30268 0.43552 0.578 0.0
H193 H 0.37353 0.26276 0.45844 0.0
H194 H 0.49316 0.51449 0.8725 0.0
H195 H 0.21545 0.37841 0.55279 0.0
H196 H 0.22076 0.31966 0.51935 0.0
H197 H 0.44693 0.5465 0.8213 0.0
H198 H 0.25637 0.27421 0.48363 0.0
N199 N 0.31104 0.38387 0.56614 0.0
C200 C 0.29201 0.41163 0.57017 0.0
C201 C 0.24217 0.37966 0.55596 0.0
C202 C 0.26161 0.352 0.54428 0.0
C203 C 0.2575 0.40972 0.56762 0.0
C204 C 0.29638 0.35481 0.54996 0.0
H205 H 0.31301 0.2541 0.45587 0.0
N206 N 0.34971 0.33264 0.5348 0.0
C207 C 0.3572 0.28099 0.4794 0.0
C208 C 0.31634 0.32866 0.53205 0.0
C209 C 0.37019 0.30952 0.50786 0.0
C210 C 0.32305 0.27614 0.4781 0.0
C211 C 0.30216 0.29995 0.50488 0.0
O212 O 0.39828 0.40655 0.50468 0.0
O213 O 0.41093 0.39966 0.62909 0.0
O214 O 0.40184 0.45198 0.64365 0.0
O215 O 0.35954 0.43547 0.57628 0.0
O216 O 0.41728 0.35791 0.57631 0.0
O217 O 0.35592 0.37992 0.47239 0.0
O218 O 0.36277 0.43196 0.8004 0.0
O219 O 0.34931 0.39164 0.6743 0.0
O220 O 0.3724 0.33755 0.6301 0.0
O221 O 0.3938 0.35887 0.72814 0.0
O222 O 0.34376 0.43698 0.71454 0.0
O223 O 0.39841 0.39416 0.81782 0.0
C224 C 0.43281 0.3784 0.61384 0.0
C225 C 0.40146 0.382 0.39989 0.0
C226 C 0.41541 0.38014 0.28333 0.0
C227 C 0.39543 0.39186 0.33501 0.0
C228 C 0.44081 0.35779 0.29722 0.0
C229 C 0.42728 0.35994 0.41233 0.0
C230 C 0.44655 0.34771 0.36124 0.0
C231 C 0.38153 0.45804 0.59321 0.0
C232 C 0.38184 0.3961 0.4542 0.0
C233 C 0.26763 0.29643 0.50285 0.0
C234 C 0.24738 0.32228 0.52329 0.0
C235 C 0.3271 0.41229 0.69278 0.0
C236 C 0.38734 0.43189 0.90565 0.0
C237 C 0.39223 0.41471 0.96458 0.0
C238 C 0.4002 0.4319 0.02286 0.0
C239 C 0.40385 0.46604 0.02169 0.0
C240 C 0.38961 0.46631 0.907 0.0
C241 C 0.39843 0.48309 0.96408 0.0
C242 C 0.38425 0.33362 0.68984 0.0
C243 C 0.37735 0.41434 0.84453 0.0
H244 H 0.37602 0.40943 0.32512 0.0
H245 H 0.45635 0.34821 0.25843 0.0
H246 H 0.43302 0.35239 0.46144 0.0
H247 H 0.46634 0.33068 0.37145 0.0
H248 H 0.38942 0.3883 0.96532 0.0
H249 H 0.41009 0.47961 0.06592 0.0
H250 H 0.38394 0.48053 0.86437 0.0
H251 H 0.40047 0.50949 0.96394 0.0
Tb252 Tb 0.89094 0.10706 0.81061 0.0
C253 C 0.81751 0.1937 0.98784 0.0
C254 C 0.85287 0.24056 1.00654 0.0
C255 C 0.79316 0.24702 1.0093 0.0
C256 C 0.84872 0.20722 0.99053 0.0
C257 C 0.78938 0.21321 0.99968 0.0
C258 C 0.82489 0.2605 1.01332 0.0
C259 C 0.75709 0.16378 1.00696 0.0
N260 N 0.81511 0.16072 0.98235 0.0
C261 C 0.78567 0.14539 0.99572 0.0
C262 C 0.75873 0.19786 1.00703 0.0
Tb263 Tb 0.8636 0.13287 0.96551 0.0
N264 N 0.87502 0.1869 0.98518 0.0
C265 C 0.90618 0.19815 0.99942 0.0
C266 C 0.88482 0.25218 1.01956 0.0
C267 C 0.91151 0.23084 1.01671 0.0
H268 H 0.78421 0.11893 0.99578 0.0
H269 H 0.93622 0.23953 0.0279 0.0
H270 H 0.82735 0.286 0.02476 0.0
H271 H 0.73394 0.15184 1.01709 0.0
H272 H 0.92731 0.18227 0.99827 0.0
H273 H 0.81245 0.06499 0.61151 0.0
H274 H 0.88935 0.27707 0.03457 0.0
H275 H 0.94976 0.06633 0.89227 0.0
H276 H 0.84097 0.10626 0.68075 0.0
H277 H 0.96449 1.00922 0.91318 0.0
H278 H 0.77189 0.26259 1.01776 0.0
H279 H 0.81811 1.00605 0.63592 0.0
H280 H 0.84576 0.96205 0.70143 0.0
H281 H 0.7366 0.21198 1.01685 0.0
H282 H 0.8874 0.94696 0.78383 0.0
N283 N 0.8612 0.07105 0.74611 0.0
C284 C 0.8436 0.08054 0.69189 0.0
C285 C 0.83055 0.02404 0.66665 0.0
C286 C 0.85122 0.01435 0.71795 0.0
C287 C 0.82738 0.05728 0.65258 0.0
C288 C 0.86701 0.03876 0.75627 0.0
H289 H 0.93226 0.96427 0.86173 0.0
N290 N 0.90836 0.05466 0.83145 0.0
C291 C 0.94366 0.01477 0.88182 0.0
C292 C 0.8912 0.03028 0.80091 0.0
C293 C 0.93507 0.04734 0.86991 0.0
C294 C 0.92538 0.98948 0.85282 0.0
C295 C 0.89923 0.99706 0.81068 0.0
O296 O 0.93481 0.09671 0.75905 0.0
O297 O 0.8863 0.14944 0.87617 0.0
O298 O 0.82189 0.13907 0.89069 0.0
O299 O 0.83705 0.10079 0.81254 0.0
O300 O 0.87134 0.15562 0.78192 0.0
O301 O 0.89806 0.12786 0.71721 0.0
O302 O 0.84412 0.11112 0.05126 0.0
O303 O 0.88304 0.09085 0.91239 0.0
O304 O 0.93596 0.12373 0.86085 0.0
O305 O 0.91889 0.12718 0.9695 0.0
O306 O 0.83882 0.08559 0.95867 0.0
O307 O 0.89041 0.13576 0.05426 0.0
C308 C 0.87518 0.1708 0.83694 0.0
C309 C 0.92594 0.09214 0.64312 0.0
C310 C 0.91628 0.08781 0.52378 0.0
C311 C 0.91472 0.10586 0.58345 0.0
C312 C 0.92898 0.05578 0.52517 0.0
C313 C 0.93833 0.05998 0.64219 0.0
C314 C 0.93976 0.04207 0.58379 0.0
C315 C 0.81481 0.12093 0.83733 0.0
C316 C 0.92477 0.11118 0.70598 0.0
C317 C 0.88177 0.97256 0.77637 0.0
C318 C 0.85797 0.98117 0.7297 0.0
C319 C 0.86211 0.06924 0.93107 0.0
C320 C 0.86017 0.13566 0.15305 0.0
C321 C 0.87258 0.12232 0.21208 0.0
C322 C 0.86596 0.13752 0.27363 0.0
C323 C 0.84702 0.16647 0.27388 0.0
C324 C 0.84102 0.16415 0.15595 0.0
C325 C 0.83458 0.17941 0.21582 0.0
C326 C 0.9425 0.12738 0.924 0.0
C327 C 0.86841 0.1206 0.08861 0.0
H328 H 0.90512 0.13062 0.58338 0.0
H329 H 0.93004 0.04101 0.4809 0.0
H330 H 0.9469 0.04847 0.68666 0.0
H331 H 0.94925 0.01731 0.58404 0.0
H332 H 0.88719 0.10017 0.20973 0.0
H333 H 0.84214 0.17971 0.31894 0.0
H334 H 0.8313 0.17486 0.11193 0.0
H335 H 0.82008 0.20167 0.2172 0.0
Tb336 Tb 0.16202 0.37347 0.96312 0.0
C337 C 0.05893 0.40919 0.77561 0.0
C338 C 0.05493 0.3672 0.65139 0.0
C339 C 0.99216 0.40693 0.65742 0.0
C340 C 0.07319 0.38116 0.72214 0.0
C341 C 0.02148 0.42808 0.76626 0.0
C342 C 0.01807 0.37721 0.61838 0.0
C343 C 0.04059 0.46108 0.85974 0.0
N344 N 0.08038 0.4205 0.82144 0.0
C345 C 0.07166 0.44651 0.86033 0.0
C346 C 0.0157 0.45201 0.81685 0.0
Tb347 Tb 0.13337 0.39963 0.81326 0.0
N348 N 0.10331 0.36874 0.73737 0.0
C349 C 0.11785 0.34578 0.69674 0.0
C350 C 0.07261 0.34369 0.61738 0.0
C351 C 0.10302 0.33308 0.64009 0.0
H352 H 0.0875 0.45598 0.8974 0.0
H353 H 0.11635 0.315 0.61149 0.0
H354 H 1.00158 0.39217 0.63225 0.0
H355 H 0.03556 0.48032 0.89523 0.0
H356 H 0.14278 0.33752 0.70658 0.0
H357 H 0.23996 0.47756 0.03653 0.0
H358 H 0.06273 0.33329 0.57244 0.0
H359 H 0.18897 0.29495 0.93557 0.0
H360 H 0.19027 0.44443 0.03607 0.0
H361 H 0.23802 0.26817 0.89394 0.0
H362 H 0.96554 0.41639 0.63698 0.0
H363 H 0.29144 0.45591 0.98827 0.0
H364 H 0.32123 0.40877 0.93817 0.0
H365 H 0.99304 0.46557 0.82375 0.0
H366 H 0.3209 0.35163 0.89955 0.0
N367 N 0.20971 0.40568 0.97637 0.0
C368 C 0.21093 0.43521 1.00914 0.0
C369 C 0.2689 0.44152 0.9855 0.0
C370 C 0.26888 0.40985 0.95941 0.0
C371 C 0.2399 0.4539 1.01211 0.0
C372 C 0.23877 0.39206 0.95696 0.0
H373 H 0.29002 0.29923 0.8823 0.0
N374 N 0.20923 0.34345 0.93574 0.0
C375 C 0.23846 0.29426 0.90401 0.0
C376 C 0.2385 0.35998 0.93565 0.0
C377 C 0.20984 0.31021 0.92542 0.0
C378 C 0.26777 0.31173 0.89807 0.0
C379 C 0.26836 0.34475 0.91598 0.0
O380 O 0.17111 0.34153 0.04176 0.0
O381 O 0.11733 0.39112 0.91184 0.0
O382 O 0.14154 0.446 0.87451 0.0
O383 O 0.14505 0.42381 0.97836 0.0
O384 O 0.11008 0.35473 0.97655 0.0
O385 O 0.16075 0.39199 0.0599 0.0
O386 O 0.12455 0.43382 0.73802 0.0
O387 O 0.17847 0.38009 0.85881 0.0
O388 O 0.14397 0.32679 0.92617 0.0
O389 O 0.13125 0.34329 0.82039 0.0
O390 O 0.17963 0.42624 0.8191 0.0
O391 O 0.16096 0.39486 0.7254 0.0
C392 C 0.09434 0.37302 0.93546 0.0
C393 C 0.14824 0.35587 0.1464 0.0
C394 C 0.13903 0.36392 0.26473 0.0
C395 C 0.1554 0.37243 0.20607 0.0
C396 C 0.11516 0.3388 0.26227 0.0
C397 C 0.12397 0.33126 0.14559 0.0
C398 C 0.10763 0.32282 0.20322 0.0
C399 C 0.14365 0.44961 0.94006 0.0
C400 C 0.16712 0.36405 0.08648 0.0
C401 C 0.29795 0.36279 0.91544 0.0
C402 C 0.29818 0.39529 0.93723 0.0
C403 C 0.19827 0.40295 0.839 0.0
C404 C 0.15596 0.43359 0.63665 0.0
C405 C 0.1504 0.41734 0.57616 0.0
C406 C 0.16192 0.43069 0.51656 0.0
C407 C 0.17909 0.4608 0.51955 0.0
C408 C 0.1729 0.46349 0.63775 0.0
C409 C 0.1843 0.47701 0.5794 0.0
C410 C 0.13549 0.31972 0.86542 0.0
C411 C 0.14445 0.41839 0.69788 0.0
H412 H 0.17417 0.39144 0.20703 0.0
H413 H 0.10188 0.33182 0.30598 0.0
H414 H 0.11774 0.31842 0.10057 0.0
H415 H 0.089 0.30371 0.20216 0.0
H416 H 0.13677 0.39446 0.57584 0.0
H417 H 0.18913 0.47174 0.47581 0.0
H418 H 0.17752 0.47619 0.68368 0.0
H419 H 0.19761 0.50006 0.58058 0.0
Tb420 Tb 0.85129 0.87559 0.09381 0.0
C421 C 0.94157 0.96674 0.25643 0.0
C422 C 0.99278 0.93862 0.27904 0.0
C423 C 0.99132 0.9981 0.28164 0.0
C424 C 0.95902 0.93796 0.26162 0.0
C425 C 0.95734 0.99719 0.26741 0.0
C426 C 1.00894 0.96884 0.28802 0.0
C427 C 0.90405 0.02323 0.25852 0.0
N428 N 0.90855 0.96474 0.24567 0.0
C429 C 0.88946 0.99243 0.24929 0.0
C430 C 0.93822 0.02567 0.26685 0.0
Tb431 Tb 0.88662 0.91301 0.23427 0.0
N432 N 0.94249 0.90924 0.25318 0.0
C433 C 0.95854 0.88013 0.26316 0.0
C434 C 1.00891 0.90886 0.28902 0.0
C435 C 0.99186 0.87956 0.2806 0.0
H436 H 0.86298 0.99101 0.24344 0.0
H437 H 1.00425 0.85644 0.28848 0.0
H438 H 0.03481 0.96992 0.30137 0.0
H439 H 0.88884 0.04498 0.25995 0.0
H440 H 0.94623 0.85689 0.25826 0.0
H441 H 0.73382 0.93967 0.08341 0.0
H442 H 0.03417 0.90799 0.30499 0.0
H443 H 0.86882 0.79679 0.07418 0.0
H444 H 0.79397 0.93566 0.08519 0.0
H445 H 0.83904 0.74437 0.08581 0.0
H446 H 1.00392 0.02123 0.29006 0.0
H447 H 0.69963 0.88969 0.08677 0.0
H448 H 0.69603 0.82844 0.09256 0.0
H449 H 0.94946 0.04949 0.27493 0.0
H450 H 0.72454 0.77516 0.09411 0.0
N451 N 0.7949 0.88325 0.08996 0.0
C452 C 0.77991 0.91327 0.08638 0.0
C453 C 0.72615 0.8876 0.08784 0.0
C454 C 0.74133 0.85698 0.0902 0.0
C455 C 0.74546 0.91585 0.0856 0.0
C456 C 0.77616 0.85561 0.09019 0.0
H457 H 0.77802 0.74352 0.09393 0.0
N458 N 0.82549 0.82566 0.08604 0.0
C459 C 0.82537 0.76702 0.08489 0.0
C460 C 0.792 0.82579 0.08915 0.0
C461 C 0.84219 0.79676 0.07881 0.0
C462 C 0.79098 0.76671 0.09051 0.0
C463 C 0.77373 0.79635 0.09066 0.0
O464 O 0.87026 0.85502 1.00692 0.0
O465 O 0.89627 0.89505 0.13771 0.0
O466 O 0.89264 0.94883 0.15087 0.0
O467 O 0.8507 0.92927 0.08369 0.0
O468 O 0.90188 0.8539 0.08361 0.0
O469 O 0.83974 0.89829 1.0045 0.0
O470 O 0.86425 0.93061 0.32084 0.0
O471 O 0.84093 0.89218 0.19404 0.0
O472 O 0.84599 0.84082 0.17336 0.0
O473 O 0.89132 0.85758 0.23302 0.0
O474 O 0.83838 0.93692 0.2361 0.0
O475 O 0.89462 0.88772 0.32286 0.0
C476 C 0.91825 0.87561 0.11644 0.0
C477 C 0.84155 0.86552 0.90808 0.0
C478 C 0.84092 0.86656 0.78798 0.0
C479 C 0.85395 0.87752 0.84854 0.0
C480 C 0.8151 0.84331 0.78851 0.0
C481 C 0.81584 0.84245 0.90726 0.0
C482 C 0.80272 0.83145 0.84767 0.0
C483 C 0.8725 0.95234 0.09908 0.0
C484 C 0.85646 0.87703 0.97002 0.0
C485 C 0.73904 0.79751 0.09273 0.0
C486 C 0.72283 0.82781 0.09196 0.0
C487 C 0.82015 0.91371 0.21319 0.0
C488 C 0.89147 0.91936 0.4211 0.0
C489 C 0.88084 0.90487 0.47991 0.0
C490 C 0.89212 0.91666 0.54129 0.0
C491 C 0.91516 0.94253 0.54268 0.0
C492 C 0.91424 0.94529 0.42418 0.0
C493 C 0.92621 0.95654 0.48451 0.0
C494 C 0.87032 0.83406 0.21368 0.0
C495 C 0.87732 0.90824 0.35762 0.0
H496 H 0.87362 0.89561 0.84964 0.0
H497 H 0.80475 0.83385 0.74318 0.0
H498 H 0.80607 0.83283 0.95244 0.0
H499 H 0.783 0.81345 0.84729 0.0
H500 H 0.86374 0.88447 0.47813 0.0
H501 H 0.92412 0.95244 0.58882 0.0
H502 H 0.92248 0.95715 0.38023 0.0
H503 H 0.94377 0.97659 0.48619 0.0
Tb504 Tb 0.39905 0.62381 0.32468 0.0
C505 C 0.31158 0.69337 0.51132 0.0
C506 C 0.33647 0.745 0.54295 0.0
C507 C 0.27684 0.73799 0.54985 0.0
C508 C 0.33929 0.71297 0.51753 0.0
C509 C 0.28 0.7056 0.52755 0.0
C510 C 0.30508 0.75736 0.55885 0.0
C511 C 0.25789 0.65128 0.51081 0.0
N512 N 0.31612 0.66131 0.49602 0.0
C513 C 0.28991 0.63984 0.49939 0.0
C514 C 0.25285 0.68434 0.52489 0.0
Tb515 Tb 0.37011 0.64515 0.47957 0.0
N516 N 0.36931 0.69946 0.50554 0.0
C517 C 0.39761 0.71645 0.5196 0.0
C518 C 0.36543 0.76276 0.5555 0.0
C519 C 0.39613 0.74848 0.5439 0.0
H520 H 0.29327 0.61402 0.49019 0.0
H521 H 0.41864 0.7619 0.55472 0.0
H522 H 0.30221 0.78156 0.57953 0.0
H523 H 0.23721 0.63449 0.50948 0.0
H524 H 0.42149 0.70521 0.51264 0.0
H525 H 0.32087 0.58064 0.12582 0.0
H526 H 0.36453 0.78693 0.57659 0.0
H527 H 0.45965 0.58396 0.40541 0.0
H528 H 0.3474 0.62226 0.19697 0.0
H529 H 0.47732 0.52754 0.42144 0.0
H530 H 0.25288 0.74781 0.5631 0.0
H531 H 0.33097 0.52189 0.14395 0.0
H532 H 0.36235 0.47848 0.20359 0.0
H533 H 0.22814 0.69292 0.53606 0.0
H534 H 0.40524 0.46408 0.28369 0.0
N535 N 0.37079 0.58718 0.25846 0.0
C536 C 0.35194 0.59657 0.20579 0.0
C537 C 0.3425 0.53996 0.17589 0.0
C538 C 0.36434 0.53056 0.22538 0.0
C539 C 0.33685 0.57314 0.16525 0.0
C540 C 0.3788 0.5551 0.2655 0.0
H541 H 0.44834 0.48215 0.36449 0.0
N542 N 0.41936 0.5718 0.34174 0.0
C543 C 0.45646 0.53266 0.38984 0.0
C544 C 0.4037 0.54713 0.30894 0.0
C545 C 0.44618 0.56495 0.38044 0.0
C546 C 0.44003 0.50712 0.35774 0.0
C547 C 0.41373 0.51419 0.31572 0.0
O548 O 0.44351 0.61724 0.27275 0.0
O549 O 0.39354 0.66522 0.39373 0.0
O550 O 0.32958 0.65366 0.40265 0.0
O551 O 0.34552 0.61513 0.32673 0.0
O552 O 0.37945 0.6734 0.30037 0.0
O553 O 0.40386 0.64475 0.23083 0.0
O554 O 0.35605 0.61837 0.56361 0.0
O555 O 0.39203 0.60457 0.42469 0.0
O556 O 0.44401 0.63923 0.37498 0.0
O557 O 0.42667 0.64592 0.48307 0.0
O558 O 0.34874 0.59621 0.47109 0.0
O559 O 0.39509 0.65319 0.56951 0.0
C560 C 0.38282 0.68778 0.35642 0.0
C561 C 0.43378 0.61018 0.15777 0.0
C562 C 0.42234 0.60258 0.0396 0.0
C563 C 0.42069 0.62184 0.0978 0.0
C564 C 0.43767 0.57168 0.0429 0.0
C565 C 0.44837 0.57896 0.15873 0.0
C566 C 0.45027 0.56001 0.10183 0.0
C567 C 0.32282 0.63521 0.34957 0.0
C568 C 0.43175 0.63011 0.21938 0.0
C569 C 0.3979 0.48947 0.27899 0.0
C570 C 0.37339 0.49765 0.23357 0.0
C571 C 0.37221 0.58141 0.44139 0.0
C572 C 0.36506 0.64422 0.66744 0.0
C573 C 0.38036 0.63356 0.726 0.0
C574 C 0.36984 0.6458 0.78771 0.0
C575 C 0.34379 0.66846 0.7899 0.0
C576 C 0.33863 0.66628 0.67186 0.0
C577 C 0.32817 0.67835 0.73245 0.0
C578 C 0.45066 0.64435 0.43761 0.0
C579 C 0.37714 0.6328 0.60231 0.0
H580 H 0.40881 0.64558 0.09692 0.0
H581 H 0.44046 0.55647 0.99959 0.0
H582 H 0.45834 0.56897 0.20355 0.0
H583 H 0.46176 0.5361 0.10331 0.0
H584 H 0.40056 0.61619 0.72358 0.0
H585 H 0.33504 0.678 0.83638 0.0
H586 H 0.32593 0.67419 0.62865 0.0
H587 H 0.30776 0.69543 0.73488 0.0
Tb588 Tb 0.64732 0.14928 0.5659 0.0
C589 C 0.6067 0.05254 0.77413 0.0
C590 C 0.54819 0.04819 0.7527 0.0
C591 C 0.57797 1.00099 0.79318 0.0
C592 C 0.57758 0.06662 0.75462 0.0
C593 C 0.6071 0.01984 0.79611 0.0
C594 C 0.54857 0.01505 0.77045 0.0
C595 C 0.66449 0.02728 0.82381 0.0
N596 N 0.63449 0.07128 0.77206 0.0
C597 C 0.66299 0.05923 0.7997 0.0
C598 C 0.63659 1.00723 0.82087 0.0
Tb599 Tb 0.62802 0.12256 0.72244 0.0
N600 N 0.57797 0.09886 0.73875 0.0
C601 C 0.54926 0.11551 0.73571 0.0
C602 C 0.51939 0.06403 0.73355 0.0
C603 C 0.51979 0.09806 0.72804 0.0
H604 H 0.68546 0.07332 0.80085 0.0
H605 H 0.49765 0.11085 0.71633 0.0
H606 H 0.52611 1.0005 0.76891 0.0
H607 H 0.68741 0.01799 0.8438 0.0
H608 H 0.54965 0.14192 0.73394 0.0
H609 H 0.67201 0.06821 0.35939 0.0
H610 H 0.49666 0.05053 0.72585 0.0
H611 H 0.70245 0.2061 0.62757 0.0
H612 H 0.63849 0.10681 0.42592 0.0
H613 H 0.76181 0.20974 0.644 0.0
H614 H 0.57787 0.97569 0.80886 0.0
H615 H 0.7307 0.0586 0.38836 0.0
H616 H 0.78041 0.07594 0.45503 0.0
H617 H 0.63793 0.98234 0.83873 0.0
H618 H 0.80495 0.11542 0.53299 0.0
N619 N 0.67693 0.11616 0.49514 0.0
C620 C 0.66398 0.10225 0.43912 0.0
C621 C 0.71596 0.07518 0.41791 0.0
C622 C 0.73028 0.09339 0.46905 0.0
C623 C 0.6829 0.08059 0.40131 0.0
C624 C 0.70996 0.11467 0.50587 0.0
H625 H 0.79859 0.16653 0.60056 0.0
N626 N 0.70357 0.16035 0.57541 0.0
C627 C 0.75146 0.18911 0.61723 0.0
C628 C 0.72384 0.13767 0.5475 0.0
C629 C 0.71725 0.18675 0.60767 0.0
C630 C 0.77212 0.16467 0.59284 0.0
C631 C 0.75848 0.13896 0.55606 0.0
O632 O 0.61762 0.1862 0.52423 0.0
O633 O 0.60564 0.14336 0.63493 0.0
O634 O 0.62139 0.07818 0.65567 0.0
O635 O 0.64247 0.09563 0.55655 0.0
O636 O 0.59847 0.12771 0.54078 0.0
O637 O 0.65986 0.16922 0.47326 0.0
O638 O 0.65812 0.14648 0.79229 0.0
O639 O 0.66922 0.14238 0.66537 0.0
O640 O 0.64756 0.1938 0.62687 0.0
O641 O 0.61358 0.17694 0.71146 0.0
O642 O 0.6735 0.09672 0.70005 0.0
O643 O 0.60965 0.13157 0.819 0.0
C644 C 0.58365 0.13115 0.59628 0.0
C645 C 0.6125 0.18265 0.40726 0.0
C646 C 0.60592 0.17204 0.2882 0.0
C647 C 0.62583 0.17224 0.3459 0.0
C648 C 0.57274 0.18179 0.29332 0.0
C649 C 0.57912 0.1922 0.40949 0.0
C650 C 0.55952 0.19156 0.35329 0.0
C651 C 0.63001 0.07234 0.5935 0.0
C652 C 0.63292 0.18591 0.46853 0.0
C653 C 0.77848 0.11536 0.52537 0.0
C654 C 0.76445 0.09272 0.48145 0.0
C655 C 0.69071 0.12027 0.67848 0.0
C656 C 0.65103 0.13279 0.90478 0.0
C657 C 0.63531 0.13984 0.96574 0.0
C658 C 0.64991 0.13004 0.02638 0.0
C659 C 0.67937 0.11173 0.02362 0.0
C660 C 0.68191 0.11715 0.90622 0.0
C661 C 0.69502 0.10537 0.96431 0.0
C662 C 0.62965 0.20104 0.67898 0.0
C663 C 0.63731 0.14408 0.84028 0.0
H664 H 0.65156 0.16508 0.3427 0.0
H665 H 0.55677 0.18157 0.25063 0.0
H666 H 0.56806 0.20056 0.45489 0.0
H667 H 0.53386 0.19895 0.35614 0.0
H668 H 0.61229 0.15333 0.96588 0.0
H669 H 0.69187 0.10399 0.06773 0.0
H670 H 0.69665 0.11466 0.86254 0.0
H671 H 0.71855 0.09276 0.9638 0.0
Tb672 Tb 0.90264 0.39023 0.80807 0.0
C673 C 0.80157 0.38173 0.98001 0.0
C674 C 0.79234 0.42792 0.05276 0.0
C675 C 0.74548 0.39961 1.00337 0.0
C676 C 0.81402 0.4069 1.01845 0.0
C677 C 0.76709 0.37719 0.97369 0.0
C678 C 0.75803 0.42485 0.04321 0.0
C679 C 0.77775 0.32713 0.914 0.0
N680 N 0.8232 0.36026 0.95268 0.0
C681 C 0.81167 0.33255 0.92198 0.0
C682 C 0.75532 0.34982 0.93907 0.0
Tb683 Tb 0.87845 0.37208 0.96648 0.0
N684 N 0.8473 0.40892 0.02681 0.0
C685 C 0.85995 0.4283 0.07644 0.0
C686 C 0.80565 0.45029 0.098 0.0
C687 C 0.83956 0.44996 0.11093 0.0
H688 H 0.82839 0.3144 0.90368 0.0
H689 H 0.84999 0.46624 0.14771 0.0
H690 H 0.74098 0.44112 0.06815 0.0
H691 H 0.76897 0.30534 0.88876 0.0
H692 H 0.88618 0.42813 0.08694 0.0
H693 H 0.99766 0.2992 0.78462 0.0
H694 H 0.78983 0.46685 0.12527 0.0
H695 H 0.89248 0.4697 0.78324 0.0
H696 H 0.94506 0.32053 0.8127 0.0
H697 H 0.92004 0.51499 0.73013 0.0
H698 H 0.71904 0.39693 0.99722 0.0
H699 H 0.04112 0.33039 0.7421 0.0
H700 H 0.06626 0.42528 0.64321 0.0
H701 H 0.72902 0.34555 0.93301 0.0
H702 H 0.02764 0.47982 0.64258 0.0
N703 N 0.95471 0.3702 0.79026 0.0
C704 C 0.96239 0.33774 0.79382 0.0
C705 C 0.01864 0.34391 0.75125 0.0
C706 C 1.01345 0.37772 0.73538 0.0
C707 C 0.99324 0.32504 0.77681 0.0
C708 C 0.97603 0.3914 0.76331 0.0
H709 H 0.97398 0.50981 0.67801 0.0
N710 N 0.93181 0.43568 0.77383 0.0
C711 C 0.93301 0.49191 0.73373 0.0
C712 C 0.96211 0.4293 0.74893 0.0
C713 C 0.91739 0.4658 0.76576 0.0
C714 C 0.96374 0.48895 0.70339 0.0
C715 C 0.98122 0.45979 0.70563 0.0
O716 O 0.87284 0.40272 0.72742 0.0
O717 O 0.85945 0.37617 0.86522 0.0
O718 O 0.88926 0.32397 0.92256 0.0
O719 O 0.88864 0.33649 0.81185 0.0
O720 O 0.85657 0.41826 0.81289 0.0
O721 O 0.91041 0.36674 0.71573 0.0
O722 O 0.86622 0.33018 1.01825 0.0
O723 O 0.92136 0.3708 0.90011 0.0
O724 O 0.91514 0.4337 0.87487 0.0
O725 O 0.8765 0.42531 0.95557 0.0
O726 O 0.92974 0.38795 0.99221 0.0
O727 O 0.89531 0.3673 0.06466 0.0
C728 C 0.83866 0.3976 0.84438 0.0
C729 C 0.8935 0.39615 0.62004 0.0
C730 C 0.88897 0.39129 0.50086 0.0
C731 C 0.88577 0.37739 0.56361 0.0
C732 C 0.90091 0.42338 0.49472 0.0
C733 C 0.90353 0.4288 0.61197 0.0
C734 C 0.90813 0.44203 0.55012 0.0
C735 C 0.88803 0.31469 0.86047 0.0
C736 C 0.88717 0.38299 0.68651 0.0
C737 C 0.01867 0.45845 0.66802 0.0
C738 C 0.04267 0.42413 0.66931 0.0
C739 C 0.9446 0.38157 0.93785 0.0
C740 C 0.85452 0.34099 0.12995 0.0
C741 C 0.86609 0.34632 0.19438 0.0
C742 C 0.84382 0.34651 0.24768 0.0
C743 C 0.8101 0.34024 0.23569 0.0
C744 C 0.8204 0.33601 0.11976 0.0
C745 C 0.79855 0.33525 0.1722 0.0
C746 C 0.89854 0.44424 0.92778 0.0
C747 C 0.87777 0.34105 0.07361 0.0
H748 H 0.87588 0.35283 0.56851 0.0
H749 H 0.90328 0.43448 0.44693 0.0
H750 H 0.90759 0.44439 0.6532 0.0
H751 H 0.91633 0.46717 0.54522 0.0
H752 H 0.89213 0.35124 0.20263 0.0
H753 H 0.79247 0.33954 0.2755 0.0
H754 H 0.81025 0.33268 0.07132 0.0
H755 H 0.77244 0.33104 0.1635 0.0
Tb756 Tb 0.39129 0.11277 0.72015 0.0
C757 C 0.30071 0.18255 0.59364 0.0
C758 C 0.25801 0.14284 0.56823 0.0
C759 C 0.24289 0.19533 0.61572 0.0
C760 C 0.29175 0.152 0.57103 0.0
C761 C 0.27621 0.20502 0.61434 0.0
C762 C 0.23377 0.16428 0.5924 0.0
C763 C 0.31829 0.24655 0.61986 0.0
N764 N 0.33309 0.19117 0.59006 0.0
C765 C 0.34116 0.22379 0.59598 0.0
C766 C 0.28573 0.23698 0.63039 0.0
Tb767 Tb 0.3703 0.14885 0.56801 0.0
N768 N 0.31604 0.13166 0.54969 0.0
C769 C 0.30737 0.10313 0.51813 0.0
C770 C 0.24956 0.11265 0.54022 0.0
C771 C 0.27435 0.09302 0.51383 0.0
H772 H 0.36543 0.23274 0.58328 0.0
H773 H 0.26805 0.07011 0.48973 0.0
H774 H 0.20787 0.15744 0.5917 0.0
H775 H 0.32563 0.27176 0.62819 0.0
H776 H 0.32536 0.08791 0.49497 0.0
H777 H 0.49201 0.18389 0.82165 0.0
H778 H 0.22399 0.10475 0.53693 0.0
H779 H 0.37887 0.03187 0.70953 0.0
H780 H 0.44814 0.17323 0.74146 0.0
H781 H 0.40201 0.98252 0.76107 0.0
H782 H 0.22387 0.21208 0.63237 0.0
H783 H 0.51128 0.13963 0.89425 0.0
H784 H 0.50937 0.07996 0.92431 0.0
H785 H 0.26783 0.25489 0.64704 0.0
H786 H 0.48713 0.0246 0.90327 0.0
N787 N 0.44163 0.12312 0.76744 0.0
C788 C 0.45587 0.1535 0.77224 0.0
C789 C 0.49172 0.13474 0.85911 0.0
C790 C 0.47815 0.10334 0.85209 0.0
C791 C 0.48101 0.15973 0.81798 0.0
C792 C 0.45301 0.09829 0.80497 0.0
H793 H 0.44838 0.98774 0.83984 0.0
N794 N 0.41538 0.0642 0.74968 0.0
C795 C 0.41331 1.00621 0.77016 0.0
C796 C 0.44034 0.06741 0.7937 0.0
C797 C 0.40076 0.03418 0.73981 0.0
C798 C 0.43937 1.00926 0.81481 0.0
C799 C 0.45271 0.04026 0.82828 0.0
O800 O 0.35927 0.09148 0.78912 0.0
O801 O 0.35127 0.13576 0.66561 0.0
O802 O 0.39381 0.1881 0.62334 0.0
O803 O 0.38942 0.16833 0.7295 0.0
O804 O 0.3443 0.08902 0.69799 0.0
O805 O 0.38649 0.13511 0.81375 0.0
O806 O 0.37442 0.18368 0.49359 0.0
O807 O 0.41029 0.13151 0.63018 0.0
O808 O 0.40422 0.07516 0.64054 0.0
O809 O 0.37406 0.09536 0.55267 0.0
O810 O 0.4243 0.15314 0.54709 0.0
O811 O 0.37341 0.13198 0.47041 0.0
C812 C 0.32888 0.11434 0.67663 0.0
C813 C 0.3739 0.09868 0.90125 0.0
C814 C 0.37547 0.10463 1.02082 0.0
C815 C 0.36967 0.11803 0.95829 0.0
C816 C 0.38642 0.07219 0.02581 0.0
C817 C 0.38299 0.06567 0.90832 0.0
C818 C 0.39 0.05281 0.96982 0.0
C819 C 0.39369 0.19289 0.68713 0.0
C820 C 0.36677 0.11237 0.83537 0.0
C821 C 0.47746 0.04508 0.87586 0.0
C822 C 0.48997 0.07662 0.88814 0.0
C823 C 0.4363 0.13862 0.59738 0.0
C824 C 0.35265 0.16799 0.39005 0.0
C825 C 0.36201 0.15612 0.32784 0.0
C826 C 0.34337 0.16394 0.27165 0.0
C827 C 0.31573 0.18449 0.27896 0.0
C828 C 0.32396 0.18698 0.39629 0.0
C829 C 0.30583 0.19545 0.34082 0.0
C830 C 0.39101 0.07133 0.58024 0.0
C831 C 0.37397 0.16157 0.44709 0.0
H832 H 0.36129 0.14314 0.95419 0.0
H833 H 0.39096 0.06147 0.07334 0.0
H834 H 0.38416 0.04947 0.86654 0.0
H835 H 0.39743 0.02746 0.97418 0.0
H836 H 0.38366 0.14064 0.3235 0.0
H837 H 0.302 0.19239 0.2366 0.0
H838 H 0.31594 0.19572 0.44383 0.0
H839 H 0.2842 0.21084 0.34568 0.0
Tb840 Tb 0.67616 0.63615 0.46741 0.0
C841 C 0.58546 0.55003 0.31636 0.0
C842 C 0.61305 0.49815 0.33319 0.0
C843 C 0.55336 0.49955 0.31944 0.0
C844 C 0.6143 0.53258 0.32739 0.0
C845 C 0.55489 0.53353 0.30975 0.0
C846 C 0.58238 0.48191 0.3314 0.0
C847 C 0.53023 0.5847 0.27698 0.0
N848 N 0.5878 0.58282 0.30655 0.0
C849 C 0.56102 0.59997 0.2839 0.0
C850 C 0.52703 0.55142 0.29076 0.0
Tb851 Tb 0.63925 0.6052 0.32366 0.0
N852 N 0.64371 0.54893 0.32698 0.0
C853 C 0.67273 0.53157 0.32516 0.0
C854 C 0.64275 0.4809 0.33776 0.0
C855 C 0.67265 0.49757 0.33215 0.0
H856 H 0.56312 0.6258 0.27413 0.0
H857 H 0.69574 0.48423 0.33333 0.0
H858 H 0.581 0.45553 0.33652 0.0
H859 H 0.50902 0.59861 0.26092 0.0
H860 H 0.69644 0.54331 0.321 0.0
H861 H 0.63733 0.75752 0.53803 0.0
H862 H 0.64296 0.45465 0.34316 0.0
H863 H 0.75216 0.60225 0.46331 0.0
H864 H 0.62925 0.70077 0.50065 0.0
H865 H 0.80965 0.62053 0.47404 0.0
H866 H 0.53002 0.48654 0.31556 0.0
H867 H 0.69409 0.77961 0.55192 0.0
H868 H 0.75483 0.77228 0.53982 0.0
H869 H 0.50324 0.53955 0.28427 0.0
H870 H 0.80173 0.73556 0.5185 0.0
N871 N 0.68064 0.69127 0.4877 0.0
C872 C 0.65406 0.71045 0.50328 0.0
C873 C 0.69041 0.75518 0.53246 0.0
C874 C 0.71752 0.73578 0.51599 0.0
C875 C 0.65851 0.74266 0.52528 0.0
C876 C 0.71183 0.70336 0.49438 0.0
H877 H 0.8224 0.67896 0.49407 0.0
N878 N 0.73148 0.65033 0.47252 0.0
C879 C 0.78979 0.63821 0.47713 0.0
C880 C 0.73815 0.68238 0.48515 0.0
C881 C 0.75689 0.62797 0.47124 0.0
C882 C 0.7969 0.67123 0.48807 0.0
C883 C 0.77096 0.69363 0.49394 0.0
O884 O 0.69224 0.61141 0.55171 0.0
O885 O 0.65124 0.59228 0.42627 0.0
O886 O 0.59692 0.61343 0.38746 0.0
O887 O 0.62018 0.64349 0.47399 0.0
O888 O 0.69604 0.58681 0.46916 0.0
O889 O 0.65567 0.64907 0.55957 0.0
O890 O 0.66314 0.62781 0.2439 0.0
O891 O 0.65716 0.64876 0.37319 0.0
O892 O 0.71148 0.64297 0.38239 0.0
O893 O 0.69365 0.59894 0.32094 0.0
O894 O 0.61674 0.65484 0.31562 0.0
O895 O 0.62801 0.5898 0.22686 0.0
C896 C 0.67129 0.57042 0.4473 0.0
C897 C 0.69157 0.64157 0.65109 0.0
C898 C 0.69299 0.6511 0.76991 0.0
C899 C 0.67608 0.64032 0.71295 0.0
C900 C 0.7253 0.66347 0.76404 0.0
C901 C 0.72417 0.65334 0.6473 0.0
C902 C 0.74073 0.66448 0.70317 0.0
C903 C 0.59389 0.63081 0.44184 0.0
C904 C 0.67443 0.6289 0.59165 0.0
C905 C 0.77675 0.72646 0.51153 0.0
C906 C 0.75006 0.74736 0.52357 0.0
C907 C 0.63719 0.67056 0.35313 0.0
C908 C 0.63339 0.63004 0.14447 0.0
C909 C 0.6479 0.62795 0.08172 0.0
C910 C 0.6359 0.64738 0.03 0.0
C911 C 0.60907 0.6684 0.04148 0.0
C912 C 0.60652 0.65118 0.15432 0.0
C913 C 0.59439 0.67008 0.1031 0.0
C914 C 0.71654 0.62147 0.33356 0.0
C915 C 0.64723 0.61115 0.19964 0.0
H916 H 0.65099 0.63121 0.7168 0.0
H917 H 0.73888 0.67181 0.80688 0.0
H918 H 0.73721 0.6534 0.60149 0.0
H919 H 0.76583 0.67355 0.69938 0.0
H920 H 0.66893 0.61201 0.07361 0.0
H921 H 0.59947 0.68358 1.00258 0.0
H922 H 0.59502 0.65346 0.20161 0.0
H923 H 0.57371 0.68638 0.11139 0.0
Tb924 Tb 0.14165 0.87972 0.05959 0.0
C925 C 0.13402 0.99302 0.20161 0.0
C926 C 0.18252 1.00817 0.26439 0.0
C927 C 0.1528 0.04968 0.20384 0.0
C928 C 0.16051 0.98409 0.23979 0.0
C929 C 0.12919 0.02616 0.18496 0.0
C930 C 0.17945 0.04075 0.2437 0.0
C931 C 0.07687 1.01073 0.13688 0.0
N932 N 0.11182 0.9695 0.1843 0.0
C933 C 0.08317 0.9781 0.15311 0.0
C934 C 0.1003 0.03481 0.15171 0.0
Tb935 Tb 0.12454 0.91646 0.21309 0.0
N936 N 0.16214 0.95254 0.25968 0.0
C937 C 0.18062 0.94536 0.3141 0.0
C938 C 0.20528 0.99926 0.31268 0.0
C939 C 0.20352 0.96795 0.3393 0.0
H940 H 0.06528 0.96002 0.13921 0.0
H941 H 0.21923 0.96143 0.38012 0.0
H942 H 0.19651 0.05948 0.26089 0.0
H943 H 0.05425 0.01713 0.11165 0.0
H944 H 0.17793 0.92201 0.3375 0.0
H945 H 0.07853 0.7654 1.01796 0.0
H946 H 0.22256 0.01699 0.33298 0.0
H947 H 0.22074 0.9022 0.03044 0.0
H948 H 0.08411 0.82205 0.05652 0.0
H949 H 0.27107 0.877 0.98873 0.0
H950 H 0.14991 0.07501 0.19001 0.0
H951 H 0.1269 0.73616 0.97423 0.0
H952 H 0.18728 0.7375 0.94332 0.0
H953 H 0.0956 0.06 0.13828 0.0
H954 H 0.24022 0.76631 0.94244 0.0
N955 N 0.13632 0.8243 0.04307 0.0
C956 C 0.10606 0.80922 0.04154 0.0
C957 C 0.13011 0.76047 0.99473 0.0
C958 C 0.16096 0.77603 0.99496 0.0
C959 C 0.10262 0.77704 1.01878 0.0
C960 C 0.16344 0.80808 0.02115 0.0
H961 H 0.27192 0.81816 0.96013 0.0
N962 N 0.19246 0.85765 0.03164 0.0
C963 C 0.24922 0.86211 0.99617 0.0
C964 C 0.19272 0.82527 1.01613 0.0
C965 C 0.22018 0.87634 1.01988 0.0
C966 C 0.2497 0.82888 0.98064 0.0
C967 C 0.22099 0.81027 0.98857 0.0
O968 O 0.14976 0.90285 0.96842 0.0
O969 O 0.12919 0.9269 0.10743 0.0
O970 O 0.07472 0.906 0.17393 0.0
O971 O 0.08577 0.87936 0.07476 0.0
O972 O 0.16935 0.92503 0.04808 0.0
O973 O 0.10971 0.86965 0.97956 0.0
O974 O 0.08608 0.93509 0.27105 0.0
O975 O 0.12253 0.87094 0.15566 0.0
O976 O 0.18469 0.86927 0.12896 0.0
O977 O 0.1785 0.9113 0.20564 0.0
O978 O 0.1363 0.86649 0.25039 0.0
O979 O 0.12012 0.90053 0.3109 0.0
C980 C 0.15149 0.94499 0.08062 0.0
C981 C 0.1322 0.87435 0.87245 0.0
C982 C 0.12815 0.87822 0.75271 0.0
C983 C 0.12054 0.89038 0.81591 0.0
C984 C 0.14628 0.84909 0.74675 0.0
C985 C 0.15053 0.84551 0.86455 0.0
C986 C 0.15727 0.83283 0.80239 0.0
C987 C 0.06446 0.89154 0.11917 0.0
C988 C 0.12548 0.8881 0.93881 0.0
C989 C 0.21902 0.77799 0.96499 0.0
C990 C 0.18884 0.76133 0.96633 0.0
C991 C 0.13041 0.84957 0.19821 0.0
C992 C 0.09954 0.94072 0.38453 0.0
C993 C 0.10325 0.92525 0.44567 0.0
C994 C 0.1052 0.94376 0.50458 0.0
C995 C 0.10325 0.97816 0.50054 0.0
C996 C 0.09838 0.97506 0.38238 0.0
C997 C 0.10015 0.99354 0.44004 0.0
C998 C 0.19595 0.88692 0.18046 0.0
C999 C 0.09627 0.92066 0.32389 0.0
H1000 H 0.10531 0.91194 0.82089 0.0
H1001 H 0.15254 0.83928 0.69891 0.0
H1002 H 0.15972 0.83268 0.90609 0.0
H1003 H 0.17148 0.81051 0.79736 0.0
H1004 H 0.10496 0.89879 0.44689 0.0
H1005 H 0.10372 0.99338 0.54418 0.0
H1006 H 0.09585 0.9877 0.33624 0.0
H1007 H 0.09887 0.02 0.43789 0.0
Tb1008 Tb 0.90303 0.61574 0.21207 0.0
C1009 C 0.8335 0.6938 0.99547 0.0
C1010 C 0.77867 0.66963 0.99687 0.0
C1011 C 0.78692 0.72274 0.94699 0.0
C1012 C 0.81273 0.66823 1.01275 0.0
C1013 C 0.82092 0.72076 0.96027 0.0
C1014 C 0.76579 0.6974 0.9659 0.0
C1015 C 0.87649 0.74194 0.95289 0.0
N1016 N 0.86634 0.69128 1.00913 0.0
C1017 C 0.88789 0.71482 0.98751 0.0
C1018 C 0.84289 0.74492 0.93903 0.0
Tb1019 Tb 0.8829 0.6431 0.0565 0.0
N1020 N 0.82634 0.64083 0.03917 0.0
C1021 C 0.80733 0.61307 0.04438 0.0
C1022 C 0.75879 0.64234 1.00905 0.0
C1023 C 0.77333 0.61376 0.03181 0.0
H1024 H 0.914 0.71319 0.99705 0.0
H1025 H 0.75847 0.59195 0.03848 0.0
H1026 H 0.73972 0.69893 0.95398 0.0
H1027 H 0.89371 0.76052 0.93671 0.0
H1028 H 0.81765 0.59 0.05907 0.0
H1029 H 0.99246 0.71219 0.26211 0.0
H1030 H 0.73256 0.64253 0.99788 0.0
H1031 H 0.89649 0.53662 0.22863 0.0
H1032 H 0.9418 0.68975 0.22774 0.0
H1033 H 0.92476 0.49137 0.28011 0.0
H1034 H 0.77681 0.74356 0.92125 0.0
H1035 H 0.03762 0.68157 0.29869 0.0
H1036 H 0.06613 0.58453 0.38464 0.0
H1037 H 0.83416 0.76597 0.91213 0.0
H1038 H 0.03047 0.5281 0.37467 0.0
N1039 N 0.95328 0.6393 0.24061 0.0
C1040 C 0.95936 0.67229 0.24427 0.0
C1041 C 0.01585 0.66735 0.28639 0.0
C1042 C 1.0123 0.63276 0.29575 0.0
C1043 C 0.98943 0.68585 0.26462 0.0
C1044 C 0.9758 0.61819 0.2641 0.0
H1045 H 0.97821 0.49731 0.33458 0.0
N1046 N 0.93427 0.57182 0.24419 0.0
C1047 C 0.93697 0.515 0.27933 0.0
C1048 C 0.96372 0.57912 0.27246 0.0
C1049 C 0.92094 0.5411 0.24848 0.0
C1050 C 0.96739 0.51838 0.31094 0.0
C1051 C 0.98379 0.54824 0.31244 0.0
O1052 O 0.87186 0.59574 0.28297 0.0
O1053 O 0.86142 0.63412 0.15524 0.0
O1054 O 0.88255 0.68937 0.11098 0.0
O1055 O 0.88963 0.66959 0.21742 0.0
O1056 O 0.85615 0.5898 0.19896 0.0
O1057 O 0.90806 0.63163 0.31132 0.0
O1058 O 0.9183 0.62115 0.99403 0.0
O1059 O 0.92422 0.62827 0.11862 0.0
O1060 O 0.91432 0.57518 0.13792 0.0
O1061 O 0.87495 0.59002 0.06286 0.0
O1062 O 0.93046 0.66969 0.06491 0.0
O1063 O 0.87203 0.63674 0.95579 0.0
C1064 C 0.83947 0.61295 0.172 0.0
C1065 C 0.89252 0.59104 0.39068 0.0
C1066 C 0.90528 0.58732 0.50811 0.0
C1067 C 0.90234 0.60598 0.45021 0.0
C1068 C 0.89899 0.55338 0.50468 0.0
C1069 C 0.88563 0.55719 0.38994 0.0
C1070 C 0.88951 0.53853 0.44604 0.0
C1071 C 0.88489 0.69411 0.17496 0.0
C1072 C 0.88568 0.61109 0.33171 0.0
C1073 C 0.02089 0.54986 0.35155 0.0
C1074 C 0.04328 0.58517 0.35658 0.0
C1075 C 0.94544 0.65048 0.10487 0.0
C1076 C 0.91789 0.64022 0.88511 0.0
C1077 C 0.91185 0.62807 0.82152 0.0
C1078 C 0.92694 0.64277 0.76706 0.0
C1079 C 0.94788 0.66985 0.77658 0.0
C1080 C 0.93996 0.66654 0.8938 0.0
C1081 C 0.95453 0.68147 0.83976 0.0
C1082 C 0.89655 0.5683 0.08379 0.0
C1083 C 0.90095 0.62528 0.94148 0.0
H1084 H 0.90708 0.63211 0.45147 0.0
H1085 H 0.90011 0.53825 0.54788 0.0
H1086 H 0.87629 0.545 0.34648 0.0
H1087 H 0.8841 0.51254 0.44455 0.0
H1088 H 0.8954 0.60731 0.81435 0.0
H1089 H 0.95971 0.68145 0.73525 0.0
H1090 H 0.94612 0.6755 0.9422 0.0
H1091 H 0.97126 0.70194 0.84694 0.0
Tb1092 Tb 0.16516 0.13924 0.96506 0.0
C1093 C 0.07586 0.05472 0.80626 0.0
C1094 C 0.10264 1.00238 0.82267 0.0
C1095 C 0.04303 1.00471 0.80755 0.0
C1096 C 0.10441 0.03679 0.81753 0.0
C1097 C 0.04506 0.03874 0.79903 0.0
C1098 C 0.07175 0.98658 0.81962 0.0
C1099 C 0.02104 0.09074 0.76977 0.0
N1100 N 0.07859 0.08766 0.79885 0.0
C1101 C 0.05202 0.10554 0.77755 0.0
C1102 C 0.01739 0.05731 0.78163 0.0
Tb1103 Tb 0.13007 0.10908 0.82002 0.0
N1104 N 0.13401 0.05279 0.81985 0.0
C1105 C 0.16284 0.03511 0.81944 0.0
C1106 C 0.13205 0.98482 0.82929 0.0
C1107 C 0.16223 1.00111 0.82573 0.0
H1108 H 0.05424 0.13155 0.77022 0.0
H1109 H 0.18512 0.98748 0.82842 0.0
H1110 H 0.06988 0.96025 0.82451 0.0
H1111 H 1.00001 0.10525 0.75504 0.0
H1112 H 0.18677 0.04652 0.81715 0.0
H1113 H 0.11122 0.25502 0.03588 0.0
H1114 H 0.13198 0.95866 0.83545 0.0
H1115 H 0.24383 0.11432 0.95958 0.0
H1116 H 0.11023 0.19884 0.9934 0.0
H1117 H 0.29907 0.13893 0.97138 0.0
H1118 H 0.01951 0.99207 0.80326 0.0
H1119 H 0.16448 0.28198 0.06063 0.0
H1120 H 0.22635 0.28028 0.05996 0.0
H1121 H 0.99334 0.04591 0.7755 0.0
H1122 H 0.27749 0.24963 0.03816 0.0
N1123 N 0.1628 0.19426 0.98818 0.0
C1124 C 0.13388 0.21047 1.00099 0.0
C1125 C 0.16431 0.25777 0.03908 0.0
C1126 C 0.19384 0.24137 0.02579 0.0
C1127 C 0.13421 0.24247 0.02569 0.0
C1128 C 0.19227 0.20929 0.99977 0.0
H1129 H 0.30494 0.19726 1.00308 0.0
N1130 N 0.21817 0.15955 0.973 0.0
C1131 C 0.27735 0.15396 0.97785 0.0
C1132 C 0.22094 0.19163 0.9901 0.0
C1133 C 0.24589 0.14018 0.97043 0.0
C1134 C 0.28053 0.18697 0.99479 0.0
C1135 C 0.25211 0.20598 1.00326 0.0
O1136 O 0.18425 0.11528 0.04773 0.0
O1137 O 0.14255 0.09485 0.92197 0.0
O1138 O 0.08788 0.11221 0.88412 0.0
O1139 O 0.10924 0.14225 0.97216 0.0
O1140 O 0.18755 0.09074 0.96486 0.0
O1141 O 0.14367 0.14865 0.05782 0.0
O1142 O 0.15313 0.13448 0.74277 0.0
O1143 O 0.14719 0.15304 0.8705 0.0
O1144 O 0.20042 0.14684 0.88084 0.0
O1145 O 0.18383 0.10196 0.82124 0.0
O1146 O 0.10567 0.15811 0.81639 0.0
O1147 O 0.12195 0.09364 0.72206 0.0
C1148 C 0.16332 0.07349 0.94279 0.0
C1149 C 0.18064 0.14432 0.14819 0.0
C1150 C 0.18045 0.15579 0.26628 0.0
C1151 C 0.16471 0.14305 0.20961 0.0
C1152 C 0.21174 0.17049 0.26038 0.0
C1153 C 0.21242 0.15803 0.1447 0.0
C1154 C 0.22745 0.17162 0.19991 0.0
C1155 C 0.08403 0.12833 0.93936 0.0
C1156 C 0.16476 0.13029 0.08868 0.0
C1157 C 0.25383 0.23825 0.02732 0.0
C1158 C 0.22472 0.25568 0.03977 0.0
C1159 C 0.12603 0.17435 0.85316 0.0
C1160 C 0.12437 0.13531 0.64219 0.0
C1161 C 0.13758 0.13274 0.57843 0.0
C1162 C 0.12464 0.15192 0.52723 0.0
C1163 C 0.09789 0.17287 0.54015 0.0
C1164 C 0.09776 0.15659 0.65355 0.0
C1165 C 0.08446 0.17499 0.60278 0.0
C1166 C 0.20624 0.12476 0.83362 0.0
C1167 C 0.1394 0.11701 0.69691 0.0
H1168 H 0.14024 0.13234 0.21333 0.0
H1169 H 0.22432 0.18065 0.30289 0.0
H1170 H 0.22606 0.1579 0.09966 0.0
H1171 H 0.25152 0.18279 0.19557 0.0
H1172 H 0.15848 0.11678 0.56922 0.0
H1173 H 0.08746 0.18777 0.50166 0.0
H1174 H 0.08741 0.15946 0.70168 0.0
H1175 H 0.06396 0.19135 0.61226 0.0
Tb1176 Tb 0.65959 0.37697 0.57497 0.0
C1177 C 0.6037 0.48784 0.7123 0.0
C1178 C 0.65042 0.52464 0.70345 0.0
C1179 C 0.5948 0.54638 0.69749 0.0
C1180 C 0.63744 0.4926 0.71064 0.0
C1181 C 0.582 0.51481 0.70663 0.0
C1182 C 0.62896 0.55128 0.69606 0.0
C1183 C 0.53646 0.47787 0.7224 0.0
N1184 N 0.59205 0.45701 0.72108 0.0
C1185 C 0.55889 0.45234 0.73197 0.0
C1186 C 0.54801 0.50928 0.71003 0.0
Tb1187 Tb 0.63065 0.41527 0.71943 0.0
N1188 N 0.65752 0.46602 0.71558 0.0
C1189 C 0.69124 0.47076 0.71498 0.0
C1190 C 0.6846 0.52909 0.70334 0.0
C1191 C 0.70505 0.50203 0.70957 0.0
H1192 H 0.54951 0.42805 0.74143 0.0
H1193 H 0.73165 0.5051 0.70855 0.0
H1194 H 0.63856 0.57577 0.68923 0.0
H1195 H 0.5102 0.47322 0.72276 0.0
H1196 H 0.70852 0.45105 0.71541 0.0
H1197 H 0.61494 0.25355 0.53803 0.0
H1198 H 0.69543 0.55324 0.69797 0.0
H1199 H 0.73666 0.40895 0.55029 0.0
H1200 H 0.60994 0.31257 0.5599 0.0
H1201 H 0.79204 0.38872 0.52959 0.0
H1202 H 0.57848 0.56722 0.69219 0.0
H1203 H 0.67069 0.22876 0.52539 0.0
H1204 H 0.73124 0.2358 0.51437 0.0
H1205 H 0.53051 0.52908 0.70376 0.0
H1206 H 0.77951 0.27237 0.51341 0.0
N1207 N 0.66199 0.32127 0.56095 0.0
C1208 C 0.63429 0.30215 0.5545 0.0
C1209 C 0.66818 0.25462 0.5345 0.0
C1210 C 0.69628 0.27434 0.5377 0.0
C1211 C 0.63696 0.26858 0.54174 0.0
C1212 C 0.69235 0.30804 0.55065 0.0
H1213 H 0.80237 0.32939 0.51836 0.0
N1214 N 0.71385 0.36135 0.55457 0.0
C1215 C 0.77178 0.37152 0.53406 0.0
C1216 C 0.71923 0.32873 0.54743 0.0
C1217 C 0.73974 0.38288 0.54568 0.0
C1218 C 0.77755 0.33805 0.5283 0.0
C1219 C 0.75108 0.31621 0.53382 0.0
O1220 O 0.66833 0.39836 0.48292 0.0
O1221 O 0.64088 0.42388 0.61501 0.0
O1222 O 0.58929 0.4152 0.65069 0.0
O1223 O 0.60308 0.371 0.5852 0.0
O1224 O 0.68264 0.42423 0.56048 0.0
O1225 O 0.62991 0.36277 0.49413 0.0
O1226 O 0.6011 0.40517 0.80158 0.0
O1227 O 0.64561 0.36893 0.67439 0.0
O1228 O 0.70169 0.37193 0.64951 0.0
O1229 O 0.68307 0.40323 0.7377 0.0
O1230 O 0.60722 0.36585 0.7361 0.0
O1231 O 0.65097 0.42345 0.81333 0.0
C1232 C 0.66201 0.44322 0.58842 0.0
C1233 C 0.65417 0.36754 0.38876 0.0
C1234 C 0.65281 0.3714 0.26889 0.0
C1235 C 0.64212 0.38221 0.33122 0.0
C1236 C 0.67437 0.34438 0.26544 0.0
C1237 C 0.67582 0.34092 0.38367 0.0
C1238 C 0.68556 0.32923 0.32235 0.0
C1239 C 0.5802 0.39132 0.61098 0.0
C1240 C 0.64538 0.38157 0.45328 0.0
C1241 C 0.75532 0.28244 0.52408 0.0
C1242 C 0.72788 0.26157 0.52528 0.0
C1243 C 0.62633 0.34796 0.70025 0.0
C1244 C 0.61439 0.43093 0.90344 0.0
C1245 C 0.62341 0.41757 0.96422 0.0
C1246 C 0.61332 0.43235 0.02361 0.0
C1247 C 0.59396 0.46088 0.02096 0.0
C1248 C 0.59548 0.45963 0.90201 0.0
C1249 C 0.58532 0.47445 0.96059 0.0
C1250 C 0.70693 0.38652 0.70806 0.0
C1251 C 0.62427 0.41353 0.84299 0.0
H1252 H 0.6251 0.40251 0.33524 0.0
H1253 H 0.68253 0.33477 0.21864 0.0
H1254 H 0.68539 0.3293 0.42686 0.0
H1255 H 0.70222 0.30857 0.3189 0.0
H1256 H 0.63786 0.39524 0.96518 0.0
H1257 H 0.58599 0.47301 0.06555 0.0
H1258 H 0.58841 0.47046 0.85595 0.0
H1259 H 0.5706 0.49655 0.95919 0.0
Tb1260 Tb 0.36704 0.88428 0.46635 0.0
C1261 C 0.42068 0.97299 0.31433 0.0
C1262 C 0.37416 1.00358 0.27244 0.0
C1263 C 0.42351 0.03264 0.30754 0.0
C1264 C 0.38872 0.97346 0.2909 0.0
C1265 C 0.43856 1.00267 0.32229 0.0
C1266 C 0.39144 0.03309 0.28215 0.0
C1267 C 0.48632 0.97114 0.35107 0.0
N1268 N 0.43477 0.94347 0.32655 0.0
C1269 C 0.468 0.94252 0.34037 0.0
C1270 C 0.47141 1.00142 0.34297 0.0
Tb1271 Tb 0.40129 0.89725 0.31354 0.0
N1272 N 0.37261 0.94439 0.28261 0.0
C1273 C 0.34377 0.94433 0.24683 0.0
C1274 C 0.34292 1.00324 0.24352 0.0
C1275 C 0.328 0.97337 0.22932 0.0
H1276 H 0.48156 0.92002 0.34109 0.0
H1277 H 0.30483 0.97257 0.20262 0.0
H1278 H 0.38042 0.05633 0.26915 0.0
H1279 H 0.51231 0.96972 0.3636 0.0
H1280 H 0.33313 0.92238 0.22732 0.0
H1281 H 0.27979 0.78514 0.42994 0.0
H1282 H 0.33092 0.02575 0.22891 0.0
H1283 H 0.36694 0.94391 0.58439 0.0
H1284 H 0.33488 0.81157 0.43006 0.0
H1285 H 0.32612 0.97047 0.6559 0.0
H1286 H 0.43681 0.05555 0.31385 0.0
H1287 H 0.23318 0.81284 0.48563 0.0
H1288 H 0.21334 0.85976 0.55545 0.0
H1289 H 0.48587 0.02358 0.34993 0.0
H1290 H 0.22603 0.91036 0.61677 0.0
N1291 N 0.31869 0.85513 0.47483 0.0
C1292 C 0.31436 0.82418 0.45056 0.0
C1293 C 0.25707 0.82486 0.48332 0.0
C1294 C 0.26248 0.85514 0.51428 0.0
C1295 C 0.28327 0.80917 0.45177 0.0
C1296 C 0.29397 0.86989 0.50918 0.0
H1297 H 0.26802 0.95149 0.6552 0.0
N1298 N 0.33216 0.91145 0.53873 0.0
C1299 C 0.31855 0.95068 0.62348 0.0
C1300 C 0.30097 0.89889 0.54231 0.0
C1301 C 0.34165 0.9356 0.58245 0.0
C1302 C 0.28581 0.93992 0.6229 0.0
C1303 C 0.27683 0.91318 0.58342 0.0
O1304 O 0.39049 0.88901 0.55819 0.0
O1305 O 0.39482 0.92106 0.41212 0.0
O1306 O 0.44482 0.8802 0.36509 0.0
O1307 O 0.42388 0.88438 0.4709 0.0
O1308 O 0.35235 0.93514 0.45783 0.0
O1309 O 0.37507 0.84173 0.52228 0.0
O1310 O 0.43705 0.89676 0.23899 0.0
O1311 O 0.37904 0.85912 0.37582 0.0
O1312 O 0.32422 0.88259 0.39389 0.0
O1313 O 0.35004 0.88144 0.29327 0.0
O1314 O 0.41856 0.8456 0.32147 0.0
O1315 O 0.3869 0.88466 0.21682 0.0
C1316 C 0.37781 0.94655 0.42874 0.0
C1317 C 0.36838 0.85359 0.63779 0.0
C1318 C 0.36525 0.86129 0.75815 0.0
C1319 C 0.382 0.86581 0.69752 0.0
C1320 C 0.33537 0.84336 0.75713 0.0
C1321 C 0.33753 0.83797 0.63954 0.0
C1322 C 0.32153 0.83236 0.69848 0.0
C1323 C 0.44924 0.88023 0.42895 0.0
C1324 C 0.38522 0.85866 0.57347 0.0
C1325 C 0.24497 0.89943 0.58621 0.0
C1326 C 0.23777 0.87055 0.55146 0.0
C1327 C 0.39748 0.83428 0.36318 0.0
C1328 C 0.41767 0.90909 0.13126 0.0
C1329 C 0.40829 0.89465 0.07066 0.0
C1330 C 0.4114 0.9122 1.01155 0.0
C1331 C 0.42373 0.94436 1.01387 0.0
C1332 C 0.42908 0.94163 0.13208 0.0
C1333 C 0.43223 0.95899 0.07375 0.0
C1334 C 0.32275 0.88042 0.32859 0.0
C1335 C 0.41605 0.88975 0.19261 0.0
H1336 H 0.40505 0.87934 0.69623 0.0
H1337 H 0.32235 0.83763 0.80179 0.0
H1338 H 0.3258 0.82976 0.59505 0.0
H1339 H 0.29814 0.81938 0.69871 0.0
H1340 H 0.39889 0.86976 0.0694 0.0
H1341 H 0.4261 0.95842 0.96937 0.0
H1342 H 0.43601 0.95353 0.17767 0.0
H1343 H 0.44129 0.98397 0.07497 0.0
C1344 C 0.14641 0.64959 0.67866 0.0
C1345 C 0.17801 0.6418 0.70342 0.0
H1346 H 0.11141 0.64408 0.59938 0.0
C1347 C 0.19913 0.62312 0.66268 0.0
H1348 H 0.1294 0.664 0.70783 0.0
C1349 C 0.18896 0.61227 0.6003 0.0
C1350 C 0.15751 0.62001 0.5758 0.0
H1351 H 0.22332 0.61574 0.67985 0.0
H1352 H 0.20518 0.59639 0.57236 0.0
C1353 C 0.13628 0.63871 0.6159 0.0
C1354 C 0.61145 0.90121 0.90422 0.0
C1355 C 0.62905 0.88584 0.95514 0.0
H1356 H 0.59622 0.89974 0.8034 0.0
C1357 C 0.6448 0.85582 0.94124 0.0
H1358 H 0.59859 0.92407 0.91297 0.0
C1359 C 0.64329 0.8419 0.87802 0.0
C1360 C 0.62621 0.85778 0.8274 0.0
H1361 H 0.65892 0.84348 0.97875 0.0
H1362 H 0.65545 0.81872 0.86861 0.0
C1363 C 0.61012 0.8874 0.84127 0.0
C1364 C 0.4389 0.40312 0.18018 0.0
C1365 C 0.4112 0.39214 0.21536 0.0
H1366 H 0.45694 0.42412 0.09122 0.0
C1367 C 0.37995 0.39256 0.18495 0.0
H1368 H 0.46321 0.40344 0.20262 0.0
C1369 C 0.37655 0.40379 0.12058 0.0
C1370 C 0.40426 0.41515 0.08614 0.0
H1371 H 0.35824 0.38417 0.2109 0.0
H1372 H 0.35219 0.40462 0.09844 0.0
C1373 C 0.4354 0.41477 0.11647 0.0
C1374 C 0.87374 0.11799 0.45668 0.0
C1375 C 0.90406 0.10145 0.46008 0.0
H1376 H 0.83707 0.14032 0.39645 0.0
C1377 C 0.92172 0.09643 0.40138 0.0
H1378 H 0.85939 0.12199 0.5006 0.0
C1379 C 0.90949 0.10786 0.34124 0.0
C1380 C 0.87887 0.12415 0.33755 0.0
H1381 H 0.94534 0.08398 0.40199 0.0
H1382 H 0.9244 0.10439 0.29785 0.0
C1383 C 0.8611 0.1287 0.39649 0.0
C1384 C 0.15031 0.36306 0.38661 0.0
C1385 C 0.14631 0.38101 0.32854 0.0
H1386 H 0.15911 0.36407 0.49005 0.0
C1387 C 0.14776 0.41537 0.33269 0.0
H1388 H 0.14966 0.33653 0.38525 0.0
C1389 C 0.15246 0.43134 0.39327 0.0
C1390 C 0.15645 0.41345 0.45169 0.0
H1391 H 0.14429 0.43 0.28924 0.0
H1392 H 0.15229 0.45785 0.39418 0.0
C1393 C 0.15549 0.37897 0.44707 0.0
C1394 C 0.88825 0.885 0.71628 0.0
C1395 C 0.85419 0.8791 0.72452 0.0
H1396 H 0.92691 0.90115 0.6524 0.0
C1397 C 0.83288 0.88512 0.67134 0.0
H1398 H 0.90554 0.88021 0.7556 0.0
C1399 C 0.84525 0.89673 0.61188 0.0
C1400 C 0.87922 0.9029 0.60386 0.0
H1401 H 0.80646 0.88144 0.67591 0.0
H1402 H 0.82803 0.90165 0.57271 0.0
C1403 C 0.90056 0.89691 0.65693 0.0
C1404 C 0.39787 0.65751 0.89597 0.0
C1405 C 0.38485 0.63471 0.85056 0.0
H1406 H 0.42036 0.66553 0.99009 0.0
C1407 C 0.38337 0.60166 0.86833 0.0
H1408 H 0.39891 0.68328 0.88389 0.0
C1409 C 0.39481 0.59154 0.92975 0.0
C1410 C 0.40855 0.61411 0.97518 0.0
H1411 H 0.37225 0.58379 0.83554 0.0
H1412 H 0.39229 0.56595 0.9419 0.0
C1413 C 0.40978 0.64734 0.95725 0.0
C1414 C 0.64161 0.12017 0.1486 0.0
C1415 C 0.63674 0.14014 0.09297 0.0
H1416 H 0.63697 0.11477 0.253 0.0
C1417 C 0.62202 0.17098 0.10331 0.0
H1418 H 0.652 0.09588 0.14346 0.0
C1419 C 0.6129 0.1815 0.1666 0.0
C1420 C 0.61857 0.16179 0.22195 0.0
H1421 H 0.61819 0.18744 0.06275 0.0
H1422 H 0.6015 0.20533 0.17239 0.0
C1423 C 0.63307 0.13097 0.21196 0.0
C1424 C 0.88486 0.34372 0.3413 0.0
C1425 C 0.85481 0.35525 0.31527 0.0
H1426 H 0.91907 0.34556 0.42232 0.0
C1427 C 0.83517 0.37619 0.35396 0.0
H1428 H 0.90044 0.32743 0.3129 0.0
C1429 C 0.84561 0.38603 0.41613 0.0
C1430 C 0.87579 0.3751 0.44148 0.0
H1431 H 0.81225 0.38613 0.33519 0.0
H1432 H 0.83078 0.4035 0.44334 0.0
C1433 C 0.89529 0.35362 0.40407 0.0
C1434 C 0.32686 0.13961 0.16271 0.0
C1435 C 0.35202 0.15033 0.20573 0.0
H1436 H 0.31483 0.11622 0.07141 0.0
C1437 C 0.38517 0.14722 0.18558 0.0
H1438 H 0.30112 0.14076 0.17706 0.0
C1439 C 0.39287 0.13353 0.12425 0.0
C1440 C 0.3676 0.1229 0.08175 0.0
H1441 H 0.40518 0.15532 0.21719 0.0
H1442 H 0.41856 0.13073 0.11039 0.0
C1443 C 0.33461 0.12587 0.10173 0.0
C1444 C 0.66498 0.67658 0.93993 0.0
C1445 C 0.65174 0.64734 0.96449 0.0
H1446 H 0.68824 0.7006 0.85933 0.0
C1447 C 0.65159 0.61919 0.92431 0.0
H1448 H 0.66525 0.69863 0.96987 0.0
C1449 C 0.6641 0.62049 0.86023 0.0
C1450 C 0.67754 0.64979 0.83591 0.0
H1451 H 0.64119 0.59646 0.94199 0.0
H1452 H 0.66379 0.59851 0.83008 0.0
C1453 C 0.67799 0.67772 0.87667 0.0
C1454 C 0.09589 0.89631 0.58198 0.0
C1455 C 0.10941 0.92755 0.56991 0.0
H1456 H 0.09104 0.85641 0.64922 0.0
C1457 C 0.12734 0.94308 0.62095 0.0
H1458 H 0.08136 0.88367 0.54499 0.0
C1459 C 0.13191 0.92775 0.68143 0.0
C1460 C 0.11912 0.8963 0.69237 0.0
H1461 H 0.13887 0.96673 0.61379 0.0
H1462 H 0.14678 0.93986 0.7186 0.0
C1463 C 0.10099 0.88079 0.64213 0.0
C1464 C 0.90547 0.64733 0.65236 0.0
C1465 C 0.92196 0.62919 0.70045 0.0
H1466 H 0.88652 0.64819 0.55443 0.0
C1467 C 0.93459 0.59826 0.68427 0.0
H1468 H 0.89567 0.67136 0.66397 0.0
C1469 C 0.93052 0.58543 0.62112 0.0
C1470 C 0.91288 0.60287 0.57303 0.0
H1471 H 0.9479 0.58413 0.72041 0.0
H1472 H 0.9411 0.56167 0.61028 0.0
C1473 C 0.90065 0.63418 0.58944 0.0
C1474 C 0.14219 0.12322 0.42306 0.0
C1475 C 0.13969 0.15203 0.46097 0.0
H1476 H 0.15624 0.10195 0.33042 0.0
C1477 C 0.14995 0.18187 0.43384 0.0
H1478 H 0.13421 0.09996 0.44276 0.0
C1479 C 0.16257 0.18298 0.37035 0.0
C1480 C 0.16481 0.15436 0.33195 0.0
H1481 H 0.1483 0.20442 0.46204 0.0
H1482 H 0.17057 0.20634 0.35108 0.0
C1483 C 0.15436 0.12443 0.35873 0.0
C1484 C 0.61023 0.40051 0.19896 0.0
C1485 C 0.64258 0.3885 0.20752 0.0
H1486 H 0.57546 0.42342 0.13423 0.0
C1487 C 0.66535 0.39254 0.15613 0.0
H1488 H 0.59197 0.39783 0.23722 0.0
C1489 C 0.65582 0.40705 0.09731 0.0
C1490 C 0.62333 0.41811 0.08785 0.0
H1491 H 0.69076 0.38461 0.16135 0.0
H1492 H 0.67401 0.40992 0.05919 0.0
C1493 C 0.60073 0.41516 0.13983 0.0
C1494 C 0.36645 0.89413 0.93481 0.0
C1495 C 0.40027 0.89808 0.94756 0.0
H1496 H 0.32893 0.88188 0.86549 0.0
C1497 C 0.42289 0.89106 0.89711 0.0
H1498 H 0.34843 0.90024 0.97213 0.0
C1499 C 0.41186 0.87933 0.83568 0.0
C1500 C 0.37782 0.87503 0.82266 0.0
H1501 H 0.44915 0.89442 0.90544 0.0
H1502 H 0.43012 0.87325 0.79892 0.0
C1503 C 0.35538 0.8833 0.87324 0.0
C1504 C 0.10142 0.75871 0.18193 0.0
C1505 C 0.12978 0.74043 0.19916 0.0
H1506 H 0.07863 0.8063 0.171 0.0
C1507 C 0.15787 0.75895 0.21834 0.0
H1508 H 0.0793 0.74605 0.16602 0.0
C1509 C 0.15818 0.79385 0.21656 0.0
C1510 C 0.13035 0.81199 0.19582 0.0
H1511 H 0.1804 0.74635 0.23167 0.0
H1512 H 0.18064 0.8067 0.23041 0.0
C1513 C 0.10136 0.79362 0.1827 0.0
C1514 C 0.53879 0.84973 0.44437 0.0
C1515 C 0.55687 0.87902 0.4542 0.0
H1516 H 0.49118 0.82713 0.42677 0.0
C1517 C 0.53828 0.90744 0.46846 0.0
H1518 H 0.55187 0.82684 0.4376 0.0
C1519 C 0.50313 0.90712 0.46723 0.0
C1520 C 0.48514 0.87843 0.45099 0.0
H1521 H 0.55098 0.93023 0.47954 0.0
H1522 H 0.49003 0.92989 0.47542 0.0
C1523 C 0.50375 0.84968 0.44017 0.0
C1524 C 0.41761 0.28251 0.67498 0.0
C1525 C 0.3918 0.29869 0.70793 0.0
H1526 H 0.43915 0.23682 0.64502 0.0
C1527 C 0.36984 0.27927 0.74486 0.0
H1528 H 0.43451 0.29638 0.64488 0.0
C1529 C 0.37264 0.24452 0.7454 0.0
C1530 C 0.3972 0.22834 0.70824 0.0
H1531 H 0.34902 0.29068 0.76924 0.0
H1532 H 0.35368 0.23031 0.7696 0.0
C1533 C 0.42031 0.24814 0.67524 0.0
C1534 C 0.99468 0.11254 0.98754 0.0
C1535 C 0.97808 0.13262 0.94233 0.0
H1536 H 0.04195 0.09555 0.02331 0.0
C1537 C 0.99698 0.15519 0.90666 0.0
H1538 H 0.98096 0.0944 1.0148 0.0
C1539 C 0.03151 0.15657 0.91316 0.0
C1540 C 0.04859 0.13518 0.95489 0.0
H1541 H 0.98515 0.17072 0.87084 0.0
H1542 H 0.04514 0.17239 0.88067 0.0
C1543 C 0.02964 0.11345 0.99299 0.0
C1544 C 0.15927 0.26338 0.83441 0.0
C1545 C 0.13151 0.28316 0.84965 0.0
H1546 H 0.18025 0.21469 0.82694 0.0
C1547 C 0.10193 0.2663 0.86392 0.0
H1548 H 0.18249 0.27493 0.82209 0.0
C1549 C 0.10025 0.23151 0.86355 0.0
C1550 C 0.12853 0.2118 0.85293 0.0
H1551 H 0.08008 0.28002 0.87714 0.0
H1552 H 0.07685 0.22 0.87464 0.0
C1553 C 0.15805 0.22855 0.83741 0.0
C1554 C 1.01202 0.85642 0.10381 0.0
C1555 C 0.02714 0.88748 0.11082 0.0
H1556 H 0.96663 0.82833 0.10105 0.0
C1557 C 1.00567 0.91467 0.11669 0.0
H1558 H 0.02726 0.83474 0.09971 0.0
C1559 C 0.97081 0.91104 0.11659 0.0
C1560 C 0.95572 0.87992 0.11368 0.0
H1561 H 0.01563 0.93909 0.1218 0.0
H1562 H 0.95565 0.93278 0.12024 0.0
C1563 C 0.97703 0.85274 0.1052 0.0
C1564 C 0.41432 0.74127 0.38713 0.0
C1565 C 0.38536 0.72536 0.364 0.0
H1566 H 0.43988 0.78679 0.40852 0.0
C1567 C 0.36035 0.74622 0.33949 0.0
H1568 H 0.43527 0.72668 0.40227 0.0
C1569 C 0.36357 0.78108 0.34066 0.0
C1570 C 0.39137 0.79707 0.36902 0.0
H1571 H 0.33832 0.73548 0.31787 0.0
H1572 H 0.34421 0.79562 0.31863 0.0
C1573 C 0.41703 0.77612 0.39044 0.0
C1574 C 0.52866 0.16147 0.6211 0.0
C1575 C 0.54572 0.13309 0.59977 0.0
H1576 H 0.48167 0.18501 0.63952 0.0
C1577 C 0.52573 0.10651 0.57818 0.0
H1578 H 0.54262 0.18307 0.63537 0.0
C1579 C 0.49053 0.10734 0.58228 0.0
C1580 C 0.47351 0.13488 0.60776 0.0
H1581 H 0.53744 0.08461 0.55903 0.0
H1582 H 0.47651 0.08649 0.56419 0.0
C1583 C 0.49344 0.16235 0.62463 0.0
C1584 C 0.90901 0.22273 0.85903 0.0
C1585 C 0.87878 0.20777 0.8413 0.0
H1586 H 0.93538 0.26761 0.88056 0.0
C1587 C 0.85283 0.22867 0.8219 0.0
H1588 H 0.93012 0.20765 0.87111 0.0
C1589 C 0.85631 0.26326 0.82441 0.0
C1590 C 0.88587 0.27819 0.84659 0.0
H1591 H 0.82951 0.21821 0.80578 0.0
H1592 H 0.83542 0.27831 0.81086 0.0
C1593 C 0.91224 0.25725 0.86324 0.0
C1594 C 0.61016 0.76041 0.37769 0.0
C1595 C 0.63844 0.77859 0.36064 0.0
H1596 H 0.5876 0.71314 0.38848 0.0
C1597 C 0.66666 0.7606 0.34098 0.0
H1598 H 0.58819 0.77304 0.39444 0.0
C1599 C 0.6669 0.72579 0.34088 0.0
C1600 C 0.63856 0.70768 0.35845 0.0
H1601 H 0.68901 0.77347 0.3274 0.0
H1602 H 0.68919 0.71304 0.32628 0.0
C1603 C 0.60997 0.72577 0.37488 0.0
C1604 C 0.9097 0.75084 0.18396 0.0
C1605 C 0.88375 0.72903 0.19904 0.0
H1606 H 0.92666 0.80088 0.1806 0.0
C1607 C 0.85535 0.74209 0.22909 0.0
H1608 H 0.93173 0.74174 0.15988 0.0
C1609 C 0.85213 0.77624 0.2395 0.0
C1610 C 0.87763 0.79823 0.22213 0.0
H1611 H 0.83465 0.72621 0.24019 0.0
H1612 H 0.82883 0.78569 0.25754 0.0
C1613 C 0.90694 0.78482 0.1964 0.0
C1614 C 0.65714 0.25722 0.69806 0.0
C1615 C 0.62777 0.23799 0.69624 0.0
H1616 H 0.68015 0.3052 0.70051 0.0
C1617 C 0.59783 0.25585 0.69948 0.0
H1618 H 0.68089 0.24518 0.69626 0.0
C1619 C 0.59748 0.29098 0.7019 0.0
C1620 C 0.62696 0.31006 0.69974 0.0
H1621 H 0.57452 0.24276 0.69728 0.0
H1622 H 0.57382 0.30333 0.70299 0.0
C1623 C 0.6568 0.29214 0.70011 0.0
C1624 C 1.00329 0.40583 0.95473 0.0
C1625 C 0.98294 0.37956 0.93291 0.0
H1626 H 0.05248 0.42388 0.97768 0.0
C1627 C 1.0002 0.35012 0.91932 0.0
H1628 H 0.99177 0.42823 0.97189 0.0
C1629 C 0.03559 0.3486 0.91693 0.0
C1630 C 0.05597 0.37586 0.93279 0.0
H1631 H 0.98633 0.32769 0.91209 0.0
H1632 H 0.04704 0.32554 0.90419 0.0
C1633 C 0.03863 0.40359 0.95677 0.0
C1634 C 0.50348 0.63064 0.50398 0.0
C1635 C 0.48731 0.64771 0.45311 0.0
H1636 H 0.55001 0.61213 0.54191 0.0
C1637 C 0.50763 0.6628 0.40617 0.0
H1638 H 0.48892 0.61774 0.53998 0.0
C1639 C 0.54218 0.65934 0.40698 0.0
C1640 C 0.55862 0.64132 0.4556 0.0
H1641 H 0.49655 0.67565 0.36545 0.0
H1642 H 0.55587 0.66888 0.36594 0.0
C1643 C 0.53868 0.6274 0.50507 0.0
C1644 C 0.49127 0.35407 0.60275 0.0
C1645 C 0.47063 0.38189 0.61174 0.0
H1646 H 0.54101 0.33446 0.59552 0.0
C1647 C 0.48671 0.41252 0.61351 0.0
H1648 H 0.48017 0.32995 0.59982 0.0
C1649 C 0.52165 0.41511 0.60797 0.0
C1650 C 0.54258 0.38731 0.6025 0.0
H1651 H 0.47225 0.4347 0.61841 0.0
H1652 H 0.5325 0.43935 0.60852 0.0
C1653 C 0.52645 0.35663 0.59906 0.0
C1654 C 0.03683 0.62222 0.08542 0.0
C1655 C 0.05539 0.64963 0.10773 0.0
H1656 H 0.98872 0.59912 0.07392 0.0
C1657 C 0.03681 0.678 0.12177 0.0
H1658 H 0.04944 0.60188 0.06243 0.0
C1659 C 1.00176 0.6781 0.11886 0.0
C1660 C 0.98327 0.64916 0.1074 0.0
H1661 H 0.04948 0.70067 0.13315 0.0
H1662 H 0.98893 0.70098 0.12758 0.0
C1663 C 1.00162 0.62118 0.08925 0.0
C1664 C 0.14107 0.5141 0.08136 0.0
C1665 C 0.14419 0.54436 0.04964 0.0
H1666 H 0.13676 0.46191 0.07306 0.0
C1667 C 0.14422 0.54317 0.97984 0.0
H1668 H 0.13999 0.51335 0.13428 0.0
C1669 C 0.14359 0.51318 0.94386 0.0
C1670 C 0.14173 0.48286 0.97583 0.0
H1671 H 0.14485 0.56561 0.95214 0.0
H1672 H 0.14482 0.51384 0.89095 0.0
C1673 C 0.13929 0.48426 0.04539 0.0
C1674 C 0.7402 0.87579 0.2916 0.0
C1675 C 0.72696 0.90329 0.32553 0.0
H1676 H 0.78012 0.85632 0.23171 0.0
C1677 C 0.74382 0.93319 0.31791 0.0
H1678 H 0.72746 0.85247 0.2937 0.0
C1679 C 0.77259 0.93579 0.27968 0.0
C1680 C 0.78681 0.90853 0.24727 0.0
H1681 H 0.7343 0.95518 0.34114 0.0
H1682 H 0.78407 0.95971 0.27622 0.0
C1683 C 0.77013 0.87818 0.25446 0.0
C1684 C 0.40399 0.51649 0.56471 0.0
C1685 C 0.383 0.48934 0.55149 0.0
H1686 H 0.41803 0.56629 0.54022 0.0
C1687 C 0.36218 0.49221 0.49583 0.0
H1688 H 0.42059 0.5158 0.60633 0.0
C1689 C 0.36118 0.52091 0.45735 0.0
C1690 C 0.38126 0.54837 0.47132 0.0
H1691 H 0.34565 0.47234 0.48241 0.0
H1692 H 0.34343 0.52209 0.41762 0.0
C1693 C 0.40294 0.54548 0.52576 0.0
C1694 C 0.76175 0.15104 0.79539 0.0
C1695 C 0.78184 0.1227 0.79994 0.0
H1696 H 0.71791 0.17355 0.75356 0.0
C1697 C 0.77181 0.09547 0.76157 0.0
H1698 H 0.76825 0.17273 0.82352 0.0
C1699 C 0.74408 0.09641 0.71962 0.0
C1700 C 0.72389 0.12438 0.71429 0.0
H1701 H 0.78542 0.07274 0.76431 0.0
H1702 H 0.73768 0.07435 0.69246 0.0
C1703 C 0.73311 0.15177 0.75377 0.0
C1704 C 0.88289 0.53351 0.98192 0.0
C1705 C 0.90022 0.53675 0.04232 0.0
H1706 H 0.86942 0.50328 0.89859 0.0
C1707 C 0.92021 0.50985 0.05997 0.0
H1708 H 0.86719 0.5532 0.96516 0.0
C1709 C 0.92172 0.48089 1.0202 0.0
C1710 C 0.90384 0.47768 0.96051 0.0
H1711 H 0.93407 0.51075 0.10538 0.0
H1712 H 0.93608 0.46034 0.03754 0.0
C1713 C 0.88452 0.50477 0.9424 0.0
C1714 C 0.24267 0.0987 0.74648 0.0
C1715 C 0.23745 0.12469 0.79151 0.0
H1716 H 0.27448 0.07561 0.67577 0.0
C1717 C 0.26189 0.14961 0.7935 0.0
H1718 H 0.22481 0.079 0.74204 0.0
C1719 C 0.29067 0.14787 0.7533 0.0
C1720 C 0.29598 0.12112 0.70992 0.0
H1721 H 0.25904 0.17023 0.82668 0.0
H1722 H 0.30936 0.1668 0.75807 0.0
C1723 C 0.27128 0.09682 0.70739 0.0
C1724 C 0.63341 0.5239 0.49907 0.0
C1725 C 0.6646 0.53763 0.48196 0.0
H1726 H 0.60693 0.48381 0.54648 0.0
C1727 C 0.69262 0.52088 0.50558 0.0
H1728 H 0.61095 0.53587 0.48323 0.0
C1729 C 0.6903 0.49245 0.5435 0.0
C1730 C 0.65981 0.47796 0.56016 0.0
H1731 H 0.7172 0.52997 0.49478 0.0
H1732 H 0.71321 0.48099 0.55861 0.0
C1733 C 0.63105 0.49425 0.5369 0.0
C1734 C 0.28891 0.87386 0.22174 0.0
C1735 C 0.28979 0.87694 0.29123 0.0
H1736 H 0.2601 0.87514 0.13256 0.0
C1737 C 0.25884 0.87827 0.32259 0.0
H1738 H 0.31175 0.87149 0.1946 0.0
C1739 C 0.22885 0.87852 0.28617 0.0
C1740 C 0.22816 0.87895 0.21676 0.0
H1741 H 0.25765 0.87968 0.37545 0.0
H1742 H 0.20588 0.87848 0.31282 0.0
C1743 C 0.25891 0.87542 0.18535 0.0
C1744 C 0.62003 1.00591 0.45705 0.0
C1745 C 0.62411 0.97618 0.49037 0.0
H1746 H 0.61631 0.05827 0.46306 0.0
C1747 C 0.62591 0.97854 0.55994 0.0
H1748 H 0.61784 1.00589 0.40433 0.0
C1749 C 0.62655 1.00908 0.59394 0.0
C1750 C 0.62488 0.03888 0.56006 0.0
H1751 H 0.62759 0.9565 0.58877 0.0
H1752 H 0.62949 1.00928 0.64665 0.0
C1753 C 0.62004 0.0364 0.49123 0.0
C1754 C 0.24666 0.37323 0.77308 0.0
C1755 C 0.23246 0.40097 0.80514 0.0
H1756 H 0.28707 0.35382 0.71335 0.0
C1757 C 0.24949 0.43081 0.79661 0.0
H1758 H 0.23427 0.34975 0.77607 0.0
C1759 C 0.2786 0.43336 0.75914 0.0
C1760 C 0.2936 0.40615 0.72779 0.0
H1761 H 0.23979 0.45303 0.81865 0.0
H1762 H 0.28963 0.45747 0.75518 0.0
C1763 C 0.27693 0.37568 0.73588 0.0
C1764 C 0.85115 0.98333 0.99986 0.0
C1765 C 0.87327 0.98211 0.05382 0.0
H1766 H 0.83121 1.01049 0.91909 0.0
C1767 C 0.89498 1.00912 0.06157 0.0
H1768 H 0.83384 0.96355 0.99075 0.0
C1769 C 0.89355 0.03648 1.01856 0.0
C1770 C 0.87065 0.03763 0.96587 0.0
H1771 H 0.91251 1.00954 0.10173 0.0
H1772 H 0.90939 0.0574 0.02834 0.0
C1773 C 0.84977 1.01038 0.95747 0.0
C1774 C 0.24001 0.66202 0.26231 0.0
C1775 C 0.23128 0.63323 0.22654 0.0
H1776 H 0.27486 0.68583 0.32931 0.0
C1777 C 0.2523 0.60605 0.23507 0.0
H1778 H 0.22436 0.68343 0.25911 0.0
C1779 C 0.28021 0.60704 0.27667 0.0
C1780 C 0.28966 0.63549 0.31192 0.0
H1781 H 0.24663 0.58314 0.21025 0.0
H1782 H 0.29453 0.58481 0.28146 0.0
C1783 C 0.2688 0.66318 0.30396 0.0
C1784 C 0.4093 0.98104 0.51747 0.0
C1785 C 0.39022 0.97902 0.45884 0.0
H1786 H 0.42394 1.00995 0.60307 0.0
C1787 C 0.37409 1.00805 0.44088 0.0
H1788 H 0.42131 0.95919 0.53537 0.0
C1789 C 0.37716 0.03745 0.47734 0.0
C1790 C 0.3936 0.03932 0.53872 0.0
H1791 H 0.35743 1.00783 0.39946 0.0
H1792 H 0.36527 0.05869 0.45726 0.0
C1793 C 0.41047 1.01035 0.55723 0.0
C1794 C 0.80111 0.64558 0.25138 0.0
C1795 C 0.80607 0.61996 0.20499 0.0
H1796 H 0.77026 0.66642 0.32808 0.0
C1797 C 0.78107 0.59577 0.20202 0.0
H1798 H 0.82006 0.66412 0.25784 0.0
C1799 C 0.75264 0.59692 0.24246 0.0
C1800 C 0.74771 0.62194 0.2899 0.0
H1801 H 0.784 0.57497 0.16926 0.0
H1802 H 0.73469 0.57733 0.2373 0.0
C1803 C 0.77256 0.64657 0.29288 0.0
C1804 C 0.1831 0.02703 1.01504 0.0
C1805 C 0.15676 0.04079 0.97859 0.0
H1806 H 0.20133 0.98863 0.0766 0.0
C1807 C 0.12633 0.0234 0.98126 0.0
H1808 H 0.20712 0.03883 1.01552 0.0
C1809 C 0.12335 0.99301 1.01603 0.0
C1810 C 0.14997 0.97998 0.0533 0.0
H1811 H 0.10498 0.03283 0.95571 0.0
H1812 H 0.10035 0.97947 1.01268 0.0
C1813 C 0.17975 0.9979 0.05131 0.0
C1814 C 0.7463 0.40797 0.79802 0.0
C1815 C 0.74075 0.38617 0.74437 0.0
H1816 H 0.78005 0.429 0.86894 0.0
C1817 C 0.76795 0.36591 0.72753 0.0
H1818 H 0.72679 0.42418 0.81428 0.0
C1819 C 0.79886 0.36781 0.76228 0.0
C1820 C 0.80422 0.39037 0.8148 0.0
H1821 H 0.76554 0.34873 0.6871 0.0
H1822 H 0.81905 0.35231 0.74638 0.0
C1823 C 0.77722 0.4106 0.83077 0.0
loop_
_geom_bond_atom_site_label_1
_geom_bond_atom_site_label_2
_geom_bond_distance
_geom_bond_site_symmetry_2
_ccdc_geom_bond_type
Tb0 N31 2.660 . S
Tb0 N38 2.600 . S
Tb0 O44 2.546 1_554 S
Tb0 O45 2.610 . S
Tb0 O47 2.320 . S
Tb0 O48 2.552 . S
Tb0 O49 2.413 1_554 S
Tb0 O51 2.362 . S
Tb0 O52 2.421 . S
Tb0 C64 2.833 1_554 S
C1 C4 1.432 . S
C1 C5 1.414 . S
C1 N8 1.359 . S
C2 C4 1.418 1_655 S
C2 C6 1.430 . S
C2 C14 1.410 . S
C3 C5 1.444 1_655 S
C3 C6 1.317 . S
C3 H26 0.929 . S
C4 C1 1.432 . S
C4 C2 1.418 1_455 S
C4 N12 1.360 . S
C5 C1 1.414 . S
C5 C3 1.444 1_455 S
C5 C10 1.385 . S
C6 C2 1.430 . S
C6 C3 1.317 . S
C6 H18 0.930 . S
C7 C9 1.392 . S
C7 C10 1.370 . S
C7 H19 0.931 . S
N8 C1 1.359 . S
N8 C9 1.327 . S
N8 Tb11 2.600 . S
C9 C7 1.392 . S
C9 N8 1.327 . S
C9 H16 0.930 . S
C10 C5 1.385 . S
C10 C7 1.370 . S
C10 H29 0.930 . S
Tb11 N8 2.600 . S
Tb11 N12 2.660 . S
Tb11 O45 2.362 . S
Tb11 O46 2.421 . S
Tb11 O50 2.546 . S
Tb11 O51 2.610 . S
Tb11 O53 2.320 . S
Tb11 O54 2.552 . S
Tb11 O55 2.413 . S
Tb11 C75 2.833 . S
N12 C4 1.360 . S
N12 Tb11 2.660 . S
N12 C13 1.305 . S
C13 N12 1.305 . S
C13 C15 1.407 . S
C13 H20 0.930 . S
C14 C2 1.410 . S
C14 C15 1.345 1_655 S
C14 H22 0.930 . S
C15 C13 1.407 . S
C15 C14 1.345 1_455 S
C15 H17 0.930 . S
H16 C9 0.930 . S
H17 C15 0.930 . S
H18 C6 0.930 . S
H19 C7 0.931 . S
H20 C13 0.930 . S
H21 C35 0.930 . S
H22 C14 0.930 . S
H23 C41 0.930 . S
H24 C32 0.930 . S
H25 C39 0.931 . S
H26 C3 0.929 . S
H27 C33 0.930 . S
H28 C66 0.930 . S
H29 C10 0.930 . S
H30 C65 0.929 . S
N31 Tb0 2.660 . S
N31 C32 1.305 . S
N31 C36 1.360 . S
C32 H24 0.930 . S
C32 N31 1.305 . S
C32 C35 1.407 . S
C33 H27 0.930 . S
C33 C34 1.410 . S
C33 C35 1.345 . S
C34 C33 1.410 . S
C34 C36 1.417 . S
C34 C66 1.432 1_554 S
C35 H21 0.930 . S
C35 C32 1.407 . S
C35 C33 1.345 . S
C36 N31 1.360 . S
C36 C34 1.417 . S
C36 C40 1.432 . S
H37 C42 0.930 . S
N38 Tb0 2.600 . S
N38 C40 1.359 . S
N38 C41 1.327 . S
C39 H25 0.931 . S
C39 C41 1.392 1_556 S
C39 C42 1.370 . S
C40 C36 1.432 . S
C40 N38 1.359 . S
C40 C43 1.414 1_554 S
C41 H23 0.930 . S
C41 N38 1.327 . S
C41 C39 1.392 1_554 S
C42 H37 0.930 . S
C42 C39 1.370 . S
C42 C43 1.385 . S
C43 C40 1.414 1_556 S
C43 C42 1.385 . S
C43 C65 1.444 . S
O44 Tb0 2.546 1_556 S
O44 C64 1.251 . S
O45 Tb0 2.610 . S
O45 Tb11 2.362 . S
O45 C56 1.283 . S
O46 Tb11 2.421 . S
O46 C63 1.262 . S
O47 Tb0 2.320 . S
O47 C63 1.260 . S
O48 Tb0 2.552 . S
O48 C56 1.243 . S
O49 Tb0 2.413 1_556 S
O49 C64 1.256 . S
O50 Tb11 2.546 . S
O50 C75 1.251 . S
O51 Tb0 2.362 . S
O51 Tb11 2.610 . S
O51 C67 1.283 . S
O52 Tb0 2.421 . S
O52 C74 1.262 . S
O53 Tb11 2.320 . S
O53 C74 1.260 . S
O54 Tb11 2.552 . S
O54 C67 1.243 . S
O55 Tb11 2.413 . S
O55 C75 1.256 . S
C56 O45 1.283 . S
C56 O48 1.243 . S
C57 C59 1.382 . S
C57 C61 1.393 . S
C57 C64 1.500 . S
C58 C59 1.400 . S
C58 C60 1.384 . S
C59 C57 1.382 . S
C59 C58 1.400 . S
C59 H76 0.930 . S
C60 C58 1.384 . S
C60 C62 1.392 . S
C60 H77 0.931 . S
C61 C57 1.393 . S
C61 C62 1.401 . S
C61 H78 0.930 . S
C62 C60 1.392 . S
C62 C61 1.401 . S
C62 H79 0.930 . S
C63 O46 1.262 . S
C63 O47 1.260 . S
C64 Tb0 2.833 1_556 S
C64 O44 1.251 . S
C64 O49 1.256 . S
C64 C57 1.500 . S
C65 H30 0.929 . S
C65 C43 1.444 . S
C65 C66 1.317 . S
C66 H28 0.930 . S
C66 C34 1.432 1_556 S
C66 C65 1.317 . S
C67 O51 1.283 . S
C67 O54 1.243 . S
C68 C69 1.382 . S
C68 C72 1.393 . S
C68 C75 1.500 . S
C69 C68 1.382 . S
C69 C70 1.400 . S
C69 H80 0.930 . S
C70 C69 1.400 . S
C70 C71 1.384 . S
C71 C70 1.384 . S
C71 C73 1.392 . S
C71 H81 0.931 . S
C72 C68 1.393 . S
C72 C73 1.401 . S
C72 H82 0.930 . S
C73 C71 1.392 . S
C73 C72 1.401 . S
C73 H83 0.930 . S
C74 O52 1.262 . S
C74 O53 1.260 . S
C75 Tb11 2.833 . S
C75 O50 1.251 . S
C75 O55 1.256 . S
C75 C68 1.500 . S
H76 C59 0.930 . S
H77 C60 0.931 . S
H78 C61 0.930 . S
H79 C62 0.930 . S
H80 C69 0.930 . S
H81 C71 0.931 . S
H82 C72 0.930 . S
H83 C73 0.930 . S
Tb84 N115 2.660 . S
Tb84 N122 2.600 . S
Tb84 O128 2.546 . S
Tb84 O129 2.610 . S
Tb84 O131 2.320 . S
Tb84 O132 2.552 . S
Tb84 O133 2.413 . S
Tb84 O135 2.362 . S
Tb84 O136 2.421 . S
Tb84 C148 2.833 . S
C85 C88 1.432 . S
C85 C89 1.414 . S
C85 N92 1.359 . S
C86 C88 1.417 . S
C86 C90 1.432 . S
C86 C98 1.410 . S
C87 C89 1.444 . S
C87 C90 1.317 . S
C87 H110 0.929 . S
C88 C85 1.432 . S
C88 C86 1.417 . S
C88 N96 1.360 . S
C89 C85 1.414 . S
C89 C87 1.444 . S
C89 C94 1.385 . S
C90 C86 1.432 . S
C90 C87 1.317 . S
C90 H102 0.930 . S
C91 C93 1.392 . S
C91 C94 1.370 . S
C91 H103 0.931 1_565 S
N92 C85 1.359 . S
N92 C93 1.327 . S
N92 Tb95 2.600 . S
C93 C91 1.392 . S
C93 N92 1.327 . S
C93 H100 0.930 . S
C94 C89 1.385 . S
C94 C91 1.370 . S
C94 H113 0.930 . S
Tb95 N92 2.600 . S
Tb95 N96 2.660 . S
Tb95 O129 2.362 . S
Tb95 O130 2.421 . S
Tb95 O134 2.546 . S
Tb95 O135 2.610 . S
Tb95 O137 2.320 . S
Tb95 O138 2.552 . S
Tb95 O139 2.413 . S
Tb95 C159 2.833 . S
N96 C88 1.360 . S
N96 Tb95 2.660 . S
N96 C97 1.305 . S
C97 N96 1.305 . S
C97 C99 1.407 . S
C97 H104 0.930 . S
C98 C86 1.410 . S
C98 C99 1.345 . S
C98 H106 0.930 . S
C99 C97 1.407 . S
C99 C98 1.345 . S
C99 H101 0.930 . S
H100 C93 0.930 . S
H101 C99 0.930 . S
H102 C90 0.930 . S
H103 C91 0.931 1_545 S
H104 C97 0.930 . S
H105 C119 0.930 . S
H106 C98 0.930 . S
H107 C125 0.930 . S
H108 C116 0.930 . S
H109 C123 0.931 . S
H110 C87 0.929 . S
H111 C117 0.930 . S
H112 C150 0.930 . S
H113 C94 0.930 . S
H114 C149 0.929 . S
N115 Tb84 2.660 . S
N115 C116 1.305 . S
N115 C120 1.360 . S
C116 H108 0.930 . S
C116 N115 1.305 . S
C116 C119 1.407 . S
C117 H111 0.930 . S
C117 C118 1.410 . S
C117 C119 1.345 . S
C118 C117 1.410 . S
C118 C120 1.417 . S
C118 C150 1.432 . S
C119 H105 0.930 . S
C119 C116 1.407 . S
C119 C117 1.345 . S
C120 N115 1.360 . S
C120 C118 1.417 . S
C120 C124 1.432 . S
H121 C126 0.930 . S
N122 Tb84 2.600 . S
N122 C124 1.359 . S
N122 C125 1.327 . S
C123 H109 0.931 . S
C123 C125 1.392 . S
C123 C126 1.370 . S
C124 C120 1.432 . S
C124 N122 1.359 . S
C124 C127 1.414 . S
C125 H107 0.930 . S
C125 N122 1.327 . S
C125 C123 1.392 . S
C126 H121 0.930 . S
C126 C123 1.370 . S
C126 C127 1.385 . S
C127 C124 1.414 . S
C127 C126 1.385 . S
C127 C149 1.444 . S
O128 Tb84 2.546 . S
O128 C148 1.251 . S
O129 Tb84 2.610 . S
O129 Tb95 2.362 . S
O129 C140 1.283 . S
O130 Tb95 2.421 . S
O130 C147 1.262 . S
O131 Tb84 2.320 . S
O131 C147 1.260 . S
O132 Tb84 2.552 . S
O132 C140 1.243 . S
O133 Tb84 2.413 . S
O133 C148 1.256 . S
O134 Tb95 2.546 . S
O134 C159 1.251 . S
O135 Tb84 2.362 . S
O135 Tb95 2.610 . S
O135 C151 1.283 . S
O136 Tb84 2.421 . S
O136 C158 1.262 . S
O137 Tb95 2.320 . S
O137 C158 1.260 . S
O138 Tb95 2.552 . S
O138 C151 1.243 . S
O139 Tb95 2.413 . S
O139 C159 1.256 . S
C140 O129 1.283 . S
C140 O132 1.243 . S
C141 C143 1.382 . S
C141 C145 1.393 . S
C141 C148 1.500 . S
C142 C143 1.400 . S
C142 C144 1.384 . S
C143 C141 1.382 . S
C143 C142 1.400 . S
C143 H160 0.930 . S
C144 C142 1.384 . S
C144 C146 1.392 . S
C144 H161 0.931 . S
C145 C141 1.393 . S
C145 C146 1.401 . S
C145 H162 0.930 . S
C146 C144 1.392 . S
C146 C145 1.401 . S
C146 H163 0.930 . S
C147 O130 1.262 . S
C147 O131 1.260 . S
C148 Tb84 2.833 . S
C148 O128 1.251 . S
C148 O133 1.256 . S
C148 C141 1.500 . S
C149 H114 0.929 . S
C149 C127 1.444 . S
C149 C150 1.317 . S
C150 H112 0.930 . S
C150 C118 1.432 . S
C150 C149 1.317 . S
C151 O135 1.283 . S
C151 O138 1.243 . S
C152 C153 1.382 . S
C152 C156 1.393 . S
C152 C159 1.500 . S
C153 C152 1.382 . S
C153 C154 1.400 1_554 S
C153 H164 0.930 . S
C154 C153 1.400 1_556 S
C154 C155 1.384 . S
C155 C154 1.384 . S
C155 C157 1.392 . S
C155 H165 0.931 . S
C156 C152 1.393 . S
C156 C157 1.401 1_554 S
C156 H166 0.930 . S
C157 C155 1.392 . S
C157 C156 1.401 1_556 S
C157 H167 0.930 . S
C158 O136 1.262 . S
C158 O137 1.260 . S
C159 Tb95 2.833 . S
C159 O134 1.251 . S
C159 O139 1.256 . S
C159 C152 1.500 . S
H160 C143 0.930 . S
H161 C144 0.931 . S
H162 C145 0.930 . S
H163 C146 0.930 . S
H164 C153 0.930 . S
H165 C155 0.931 . S
H166 C156 0.930 . S
H167 C157 0.930 . S
Tb168 N199 2.660 . S
Tb168 N206 2.600 . S
Tb168 O212 2.546 . S
Tb168 O213 2.610 . S
Tb168 O215 2.320 . S
Tb168 O216 2.552 . S
Tb168 O217 2.413 . S
Tb168 O219 2.362 . S
Tb168 O220 2.421 . S
Tb168 C232 2.833 . S
C169 C172 1.432 . S
C169 C173 1.414 . S
C169 N176 1.359 . S
C170 C172 1.417 . S
C170 C174 1.432 . S
C170 C182 1.410 . S
C171 C173 1.444 . S
C171 C174 1.317 . S
C171 H194 0.929 . S
C172 C169 1.432 . S
C172 C170 1.417 . S
C172 N180 1.360 . S
C173 C169 1.414 . S
C173 C171 1.444 . S
C173 C178 1.385 . S
C174 C170 1.432 . S
C174 C171 1.317 . S
C174 H186 0.930 . S
C175 C177 1.392 . S
C175 C178 1.370 . S
C175 H187 0.931 . S
N176 C169 1.359 . S
N176 C177 1.327 . S
N176 Tb179 2.600 . S
C177 C175 1.392 . S
C177 N176 1.327 . S
C177 H184 0.930 . S
C178 C173 1.385 . S
C178 C175 1.370 . S
C178 H197 0.930 . S
Tb179 N176 2.600 . S
Tb179 N180 2.660 . S
Tb179 O213 2.362 . S
Tb179 O214 2.421 . S
Tb179 O218 2.546 . S
Tb179 O219 2.610 . S
Tb179 O221 2.320 . S
Tb179 O222 2.552 . S
Tb179 O223 2.413 . S
Tb179 C243 2.833 . S
N180 C172 1.360 . S
N180 Tb179 2.660 . S
N180 C181 1.305 . S
C181 N180 1.305 . S
C181 C183 1.407 . S
C181 H188 0.930 . S
C182 C170 1.410 . S
C182 C183 1.345 . S
C182 H190 0.930 . S
C183 C181 1.407 . S
C183 C182 1.345 . S
C183 H185 0.930 . S
H184 C177 0.930 . S
H185 C183 0.930 . S
H186 C174 0.930 . S
H187 C175 0.931 . S
H188 C181 0.930 . S
H189 C203 0.930 . S
H190 C182 0.930 . S
H191 C209 0.930 . S
H192 C200 0.930 . S
H193 C207 0.931 . S
H194 C171 0.929 . S
H195 C201 0.930 . S
H196 C234 0.930 . S
H197 C178 0.930 . S
H198 C233 0.929 . S
N199 Tb168 2.660 . S
N199 C200 1.305 . S
N199 C204 1.360 . S
C200 H192 0.930 . S
C200 N199 1.305 . S
C200 C203 1.407 . S
C201 H195 0.930 . S
C201 C202 1.410 . S
C201 C203 1.345 . S
C202 C201 1.410 . S
C202 C204 1.417 . S
C202 C234 1.432 . S
C203 H189 0.930 . S
C203 C200 1.407 . S
C203 C201 1.345 . S
C204 N199 1.360 . S
C204 C202 1.417 . S
C204 C208 1.432 . S
H205 C210 0.930 . S
N206 Tb168 2.600 . S
N206 C208 1.359 . S
N206 C209 1.327 . S
C207 H193 0.931 . S
C207 C209 1.392 . S
C207 C210 1.370 . S
C208 C204 1.432 . S
C208 N206 1.359 . S
C208 C211 1.414 . S
C209 H191 0.930 . S
C209 N206 1.327 . S
C209 C207 1.392 . S
C210 H205 0.930 . S
C210 C207 1.370 . S
C210 C211 1.385 . S
C211 C208 1.414 . S
C211 C210 1.385 . S
C211 C233 1.444 . S
O212 Tb168 2.546 . S
O212 C232 1.251 . S
O213 Tb168 2.610 . S
O213 Tb179 2.362 . S
O213 C224 1.283 . S
O214 Tb179 2.421 . S
O214 C231 1.262 . S
O215 Tb168 2.320 . S
O215 C231 1.260 . S
O216 Tb168 2.552 . S
O216 C224 1.243 . S
O217 Tb168 2.413 . S
O217 C232 1.256 . S
O218 Tb179 2.546 . S
O218 C243 1.251 . S
O219 Tb168 2.362 . S
O219 Tb179 2.610 . S
O219 C235 1.283 . S
O220 Tb168 2.421 . S
O220 C242 1.262 . S
O221 Tb179 2.320 . S
O221 C242 1.260 . S
O222 Tb179 2.552 . S
O222 C235 1.243 . S
O223 Tb179 2.413 . S
O223 C243 1.256 . S
C224 O213 1.283 . S
C224 O216 1.243 . S
C225 C227 1.382 . S
C225 C229 1.393 . S
C225 C232 1.500 . S
C226 C227 1.400 . S
C226 C228 1.384 . S
C227 C225 1.382 . S
C227 C226 1.400 . S
C227 H244 0.930 . S
C228 C226 1.384 . S
C228 C230 1.392 . S
C228 H245 0.931 . S
C229 C225 1.393 . S
C229 C230 1.401 . S
C229 H246 0.930 . S
C230 C228 1.392 . S
C230 C229 1.401 . S
C230 H247 0.930 . S
C231 O214 1.262 . S
C231 O215 1.260 . S
C232 Tb168 2.833 . S
C232 O212 1.251 . S
C232 O217 1.256 . S
C232 C225 1.500 . S
C233 H198 0.929 . S
C233 C211 1.444 . S
C233 C234 1.317 . S
C234 H196 0.930 . S
C234 C202 1.432 . S
C234 C233 1.317 . S
C235 O219 1.283 . S
C235 O222 1.243 . S
C236 C237 1.382 . S
C236 C240 1.393 . S
C236 C243 1.500 . S
C237 C236 1.382 . S
C237 C238 1.400 1_556 S
C237 H248 0.930 . S
C238 C237 1.400 1_554 S
C238 C239 1.384 . S
C239 C238 1.384 . S
C239 C241 1.392 . S
C239 H249 0.931 . S
C240 C236 1.393 . S
C240 C241 1.401 1_556 S
C240 H250 0.930 . S
C241 C239 1.392 . S
C241 C240 1.401 1_554 S
C241 H251 0.930 . S
C242 O220 1.262 . S
C242 O221 1.260 . S
C243 Tb179 2.833 . S
C243 O218 1.251 . S
C243 O223 1.256 . S
C243 C236 1.500 . S
H244 C227 0.930 . S
H245 C228 0.931 . S
H246 C229 0.930 . S
H247 C230 0.930 . S
H248 C237 0.930 . S
H249 C239 0.931 . S
H250 C240 0.930 . S
H251 C241 0.930 . S
Tb252 N283 2.660 . S
Tb252 N290 2.600 . S
Tb252 O296 2.546 . S
Tb252 O297 2.610 . S
Tb252 O299 2.320 . S
Tb252 O300 2.552 . S
Tb252 O301 2.413 . S
Tb252 O303 2.362 . S
Tb252 O304 2.421 . S
Tb252 C316 2.833 . S
C253 C256 1.432 1_554 S
C253 C257 1.414 . S
C253 N260 1.359 1_554 S
C254 C256 1.417 1_554 S
C254 C258 1.432 . S
C254 C266 1.410 1_554 S
C255 C257 1.444 . S
C255 C258 1.317 . S
C255 H278 0.929 . S
C256 C253 1.432 1_556 S
C256 C254 1.417 1_556 S
C256 N264 1.360 . S
C257 C253 1.414 . S
C257 C255 1.444 . S
C257 C262 1.385 . S
C258 C254 1.432 . S
C258 C255 1.317 . S
C258 H270 0.930 . S
C259 C261 1.392 1_554 S
C259 C262 1.370 . S
C259 H271 0.931 . S
N260 C253 1.359 1_556 S
N260 C261 1.327 . S
N260 Tb263 2.600 . S
C261 C259 1.392 1_556 S
C261 N260 1.327 . S
C261 H268 0.930 . S
C262 C257 1.385 . S
C262 C259 1.370 . S
C262 H281 0.930 . S
Tb263 N260 2.600 . S
Tb263 N264 2.660 . S
Tb263 O297 2.362 . S
Tb263 O298 2.421 . S
Tb263 O302 2.546 1_556 S
Tb263 O303 2.610 . S
Tb263 O305 2.320 . S
Tb263 O306 2.552 . S
Tb263 O307 2.413 1_556 S
Tb263 C327 2.833 1_556 S
N264 C256 1.360 . S
N264 Tb263 2.660 . S
N264 C265 1.305 . S
C265 N264 1.305 . S
C265 C267 1.407 . S
C265 H272 0.930 . S
C266 C254 1.410 1_556 S
C266 C267 1.345 . S
C266 H274 0.929 1_556 S
C267 C265 1.407 . S
C267 C266 1.345 . S
C267 H269 0.930 . S
H268 C261 0.930 . S
H269 C267 0.930 . S
H270 C258 0.930 . S
H271 C259 0.931 . S
H272 C265 0.930 . S
H273 C287 0.928 1_565 S
H274 C266 0.929 1_554 S
H275 C293 0.930 . S
H276 C284 0.930 . S
H277 C291 0.931 . S
H278 C255 0.929 . S
H279 C285 0.930 . S
H280 C318 0.930 . S
H281 C262 0.930 . S
H282 C317 0.929 . S
N283 Tb252 2.660 . S
N283 C284 1.305 . S
N283 C288 1.360 . S
C284 H276 0.930 . S
C284 N283 1.305 . S
C284 C287 1.407 . S
C285 H279 0.930 . S
C285 C286 1.410 . S
C285 C287 1.345 1_565 S
C286 C285 1.410 . S
C286 C288 1.417 1_565 S
C286 C318 1.432 . S
C287 H273 0.928 1_545 S
C287 C284 1.407 . S
C287 C285 1.345 1_545 S
C288 N283 1.360 . S
C288 C286 1.417 1_545 S
C288 C292 1.432 . S
H289 C294 0.930 1_565 S
N290 Tb252 2.600 . S
N290 C292 1.359 . S
N290 C293 1.327 . S
C291 H277 0.931 . S
C291 C293 1.392 . S
C291 C294 1.370 . S
C292 C288 1.432 . S
C292 N290 1.359 . S
C292 C295 1.414 . S
C293 H275 0.930 . S
C293 N290 1.327 . S
C293 C291 1.392 . S
C294 H289 0.930 1_545 S
C294 C291 1.370 . S
C294 C295 1.385 . S
C295 C292 1.414 . S
C295 C294 1.385 . S
C295 C317 1.444 1_545 S
O296 Tb252 2.546 . S
O296 C316 1.251 . S
O297 Tb252 2.610 . S
O297 Tb263 2.362 . S
O297 C308 1.283 . S
O298 Tb263 2.421 . S
O298 C315 1.262 . S
O299 Tb252 2.320 . S
O299 C315 1.260 . S
O300 Tb252 2.552 . S
O300 C308 1.243 . S
O301 Tb252 2.413 . S
O301 C316 1.256 . S
O302 Tb263 2.546 1_554 S
O302 C327 1.251 . S
O303 Tb252 2.362 . S
O303 Tb263 2.610 . S
O303 C319 1.283 . S
O304 Tb252 2.421 . S
O304 C326 1.262 . S
O305 Tb263 2.320 . S
O305 C326 1.260 . S
O306 Tb263 2.552 . S
O306 C319 1.243 . S
O307 Tb263 2.413 1_554 S
O307 C327 1.256 . S
C308 O297 1.283 . S
C308 O300 1.243 . S
C309 C311 1.382 . S
C309 C313 1.393 . S
C309 C316 1.500 . S
C310 C311 1.400 . S
C310 C312 1.384 . S
C311 C309 1.382 . S
C311 C310 1.400 . S
C311 H328 0.930 . S
C312 C310 1.384 . S
C312 C314 1.392 . S
C312 H329 0.931 . S
C313 C309 1.393 . S
C313 C314 1.401 . S
C313 H330 0.930 . S
C314 C312 1.392 . S
C314 C313 1.401 . S
C314 H331 0.930 . S
C315 O298 1.262 . S
C315 O299 1.260 . S
C316 Tb252 2.833 . S
C316 O296 1.251 . S
C316 O301 1.256 . S
C316 C309 1.500 . S
C317 H282 0.929 . S
C317 C295 1.444 1_565 S
C317 C318 1.317 . S
C318 H280 0.930 . S
C318 C286 1.432 . S
C318 C317 1.317 . S
C319 O303 1.283 . S
C319 O306 1.243 . S
C320 C321 1.382 . S
C320 C324 1.393 . S
C320 C327 1.500 . S
C321 C320 1.382 . S
C321 C322 1.400 . S
C321 H332 0.930 . S
C322 C321 1.400 . S
C322 C323 1.384 . S
C323 C322 1.384 . S
C323 C325 1.392 . S
C323 H333 0.931 . S
C324 C320 1.393 . S
C324 C325 1.401 . S
C324 H334 0.930 . S
C325 C323 1.392 . S
C325 C324 1.401 . S
C325 H335 0.930 . S
C326 O304 1.262 . S
C326 O305 1.260 . S
C327 Tb263 2.833 1_554 S
C327 O302 1.251 . S
C327 O307 1.256 . S
C327 C320 1.500 . S
H328 C311 0.930 . S
H329 C312 0.931 . S
H330 C313 0.930 . S
H331 C314 0.930 . S
H332 C321 0.930 . S
H333 C323 0.931 . S
H334 C324 0.930 . S
H335 C325 0.930 . S
Tb336 N367 2.660 . S
Tb336 N374 2.600 . S
Tb336 O380 2.546 1_556 S
Tb336 O381 2.610 . S
Tb336 O383 2.320 . S
Tb336 O384 2.552 . S
Tb336 O385 2.413 1_556 S
Tb336 O387 2.362 . S
Tb336 O388 2.421 . S
Tb336 C400 2.833 1_556 S
C337 C340 1.432 . S
C337 C341 1.414 . S
C337 N344 1.359 . S
C338 C340 1.417 . S
C338 C342 1.432 1_455 S
C338 C350 1.410 1_455 S
C339 C341 1.444 1_655 S
C339 C342 1.317 . S
C339 H362 0.929 . S
C340 C337 1.432 . S
C340 C338 1.417 . S
C340 N348 1.360 . S
C341 C337 1.414 . S
C341 C339 1.444 1_455 S
C341 C346 1.385 . S
C342 C338 1.432 1_655 S
C342 C339 1.317 . S
C342 H354 0.930 . S
C343 C345 1.392 . S
C343 C346 1.370 . S
C343 H355 0.931 . S
N344 C337 1.359 . S
N344 C345 1.327 . S
N344 Tb347 2.600 . S
C345 C343 1.392 . S
C345 N344 1.327 . S
C345 H352 0.930 . S
C346 C341 1.385 . S
C346 C343 1.370 . S
C346 H365 0.930 . S
Tb347 N344 2.600 . S
Tb347 N348 2.660 . S
Tb347 O381 2.362 . S
Tb347 O382 2.421 . S
Tb347 O386 2.546 . S
Tb347 O387 2.610 . S
Tb347 O389 2.320 . S
Tb347 O390 2.552 . S
Tb347 O391 2.413 . S
Tb347 C411 2.833 . S
N348 C340 1.360 . S
N348 Tb347 2.660 . S
N348 C349 1.305 . S
C349 N348 1.305 . S
C349 C351 1.407 . S
C349 H356 0.930 . S
C350 C338 1.410 1_655 S
C350 C351 1.345 1_655 S
C350 H358 0.930 . S
C351 C349 1.407 . S
C351 C350 1.345 1_455 S
C351 H353 0.930 . S
H352 C345 0.930 . S
H353 C351 0.930 . S
H354 C342 0.930 . S
H355 C343 0.931 . S
H356 C349 0.930 . S
H357 C371 0.930 . S
H358 C350 0.930 . S
H359 C377 0.930 . S
H360 C368 0.930 . S
H361 C375 0.931 . S
H362 C339 0.929 . S
H363 C369 0.930 . S
H364 C402 0.930 . S
H365 C346 0.930 . S
H366 C401 0.929 . S
N367 Tb336 2.660 . S
N367 C368 1.305 . S
N367 C372 1.360 . S
C368 H360 0.930 . S
C368 N367 1.305 . S
C368 C371 1.407 . S
C369 H363 0.930 . S
C369 C370 1.410 1_556 S
C369 C371 1.345 . S
C370 C369 1.410 1_554 S
C370 C372 1.417 1_554 S
C370 C402 1.432 . S
C371 H357 0.930 . S
C371 C368 1.407 . S
C371 C369 1.345 . S
C372 N367 1.360 . S
C372 C370 1.417 1_556 S
C372 C376 1.431 1_556 S
H373 C378 0.930 . S
N374 Tb336 2.600 . S
N374 C376 1.358 1_556 S
N374 C377 1.327 . S
C375 H361 0.931 . S
C375 C377 1.392 1_554 S
C375 C378 1.370 . S
C376 C372 1.431 1_554 S
C376 N374 1.358 1_554 S
C376 C379 1.415 . S
C377 H359 0.930 . S
C377 N374 1.327 . S
C377 C375 1.392 1_556 S
C378 H373 0.930 . S
C378 C375 1.370 . S
C378 C379 1.385 . S
C379 C376 1.415 . S
C379 C378 1.385 . S
C379 C401 1.444 . S
O380 Tb336 2.546 1_554 S
O380 C400 1.251 . S
O381 Tb336 2.610 . S
O381 Tb347 2.362 . S
O381 C392 1.283 . S
O382 Tb347 2.421 . S
O382 C399 1.262 . S
O383 Tb336 2.320 . S
O383 C399 1.260 . S
O384 Tb336 2.552 . S
O384 C392 1.243 . S
O385 Tb336 2.413 1_554 S
O385 C400 1.256 . S
O386 Tb347 2.546 . S
O386 C411 1.251 . S
O387 Tb336 2.362 . S
O387 Tb347 2.610 . S
O387 C403 1.283 . S
O388 Tb336 2.421 . S
O388 C410 1.262 . S
O389 Tb347 2.320 . S
O389 C410 1.260 . S
O390 Tb347 2.552 . S
O390 C403 1.243 . S
O391 Tb347 2.413 . S
O391 C411 1.256 . S
C392 O381 1.283 . S
C392 O384 1.243 . S
C393 C395 1.382 . S
C393 C397 1.393 . S
C393 C400 1.500 . S
C394 C395 1.400 . S
C394 C396 1.384 . S
C395 C393 1.382 . S
C395 C394 1.400 . S
C395 H412 0.930 . S
C396 C394 1.384 . S
C396 C398 1.392 . S
C396 H413 0.931 . S
C397 C393 1.393 . S
C397 C398 1.401 . S
C397 H414 0.930 . S
C398 C396 1.392 . S
C398 C397 1.401 . S
C398 H415 0.930 . S
C399 O382 1.262 . S
C399 O383 1.260 . S
C400 Tb336 2.833 1_554 S
C400 O380 1.251 . S
C400 O385 1.256 . S
C400 C393 1.500 . S
C401 H366 0.929 . S
C401 C379 1.444 . S
C401 C402 1.317 . S
C402 H364 0.930 . S
C402 C370 1.432 . S
C402 C401 1.317 . S
C403 O387 1.283 . S
C403 O390 1.243 . S
C404 C405 1.382 . S
C404 C408 1.393 . S
C404 C411 1.500 . S
C405 C404 1.382 . S
C405 C406 1.400 . S
C405 H416 0.930 . S
C406 C405 1.400 . S
C406 C407 1.384 . S
C407 C406 1.384 . S
C407 C409 1.392 . S
C407 H417 0.931 . S
C408 C404 1.393 . S
C408 C409 1.401 . S
C408 H418 0.930 . S
C409 C407 1.392 . S
C409 C408 1.401 . S
C409 H419 0.930 . S
C410 O388 1.262 . S
C410 O389 1.260 . S
C411 Tb347 2.833 . S
C411 O386 1.251 . S
C411 O391 1.256 . S
C411 C404 1.500 . S
H412 C395 0.930 . S
H413 C396 0.931 . S
H414 C397 0.930 . S
H415 C398 0.930 . S
H416 C405 0.930 . S
H417 C407 0.931 . S
H418 C408 0.930 . S
H419 C409 0.930 . S
Tb420 N451 2.660 . S
Tb420 N458 2.600 . S
Tb420 O464 2.546 1_554 S
Tb420 O465 2.610 . S
Tb420 O467 2.320 . S
Tb420 O468 2.552 . S
Tb420 O469 2.413 1_554 S
Tb420 O471 2.362 . S
Tb420 O472 2.421 . S
Tb420 C484 2.833 1_554 S
C421 C424 1.432 . S
C421 C425 1.414 . S
C421 N428 1.359 . S
C422 C424 1.417 . S
C422 C426 1.432 1_655 S
C422 C434 1.410 1_655 S
C423 C425 1.444 1_455 S
C423 C426 1.317 . S
C423 H446 0.929 . S
C424 C421 1.432 . S
C424 C422 1.417 . S
C424 N432 1.360 . S
C425 C421 1.414 . S
C425 C423 1.444 1_655 S
C425 C430 1.385 . S
C426 C422 1.432 1_455 S
C426 C423 1.317 . S
C426 H438 0.930 . S
C427 C429 1.392 . S
C427 C430 1.370 . S
C427 H439 0.931 1_565 S
N428 C421 1.359 . S
N428 C429 1.327 . S
N428 Tb431 2.600 . S
C429 C427 1.392 . S
C429 N428 1.327 . S
C429 H436 0.930 . S
C430 C425 1.385 . S
C430 C427 1.370 . S
C430 H449 0.930 1_565 S
Tb431 N428 2.600 . S
Tb431 N432 2.660 . S
Tb431 O465 2.362 . S
Tb431 O466 2.421 . S
Tb431 O470 2.546 . S
Tb431 O471 2.610 . S
Tb431 O473 2.320 . S
Tb431 O474 2.552 . S
Tb431 O475 2.413 . S
Tb431 C495 2.833 . S
N432 C424 1.360 . S
N432 Tb431 2.660 . S
N432 C433 1.305 . S
C433 N432 1.305 . S
C433 C435 1.407 . S
C433 H440 0.930 . S
C434 C422 1.410 1_455 S
C434 C435 1.345 1_455 S
C434 H442 0.930 . S
C435 C433 1.407 . S
C435 C434 1.345 1_655 S
C435 H437 0.930 . S
H436 C429 0.930 . S
H437 C435 0.930 . S
H438 C426 0.930 . S
H439 C427 0.931 1_545 S
H440 C433 0.930 . S
H441 C455 0.930 . S
H442 C434 0.930 . S
H443 C461 0.930 . S
H444 C452 0.930 . S
H445 C459 0.931 . S
H446 C423 0.929 . S
H447 C453 0.930 . S
H448 C486 0.930 . S
H449 C430 0.930 1_545 S
H450 C485 0.929 . S
N451 Tb420 2.660 . S
N451 C452 1.305 . S
N451 C456 1.360 . S
C452 H444 0.930 . S
C452 N451 1.305 . S
C452 C455 1.407 . S
C453 H447 0.930 . S
C453 C454 1.410 . S
C453 C455 1.345 . S
C454 C453 1.410 . S
C454 C456 1.417 . S
C454 C486 1.432 1_554 S
C455 H441 0.930 . S
C455 C452 1.407 . S
C455 C453 1.345 . S
C456 N451 1.360 . S
C456 C454 1.417 . S
C456 C460 1.432 . S
H457 C462 0.930 . S
N458 Tb420 2.600 . S
N458 C460 1.359 . S
N458 C461 1.327 . S
C459 H445 0.931 . S
C459 C461 1.392 1_556 S
C459 C462 1.370 . S
C460 C456 1.432 . S
C460 N458 1.359 . S
C460 C463 1.414 1_554 S
C461 H443 0.930 . S
C461 N458 1.327 . S
C461 C459 1.392 1_554 S
C462 H457 0.930 . S
C462 C459 1.370 . S
C462 C463 1.385 . S
C463 C460 1.414 1_556 S
C463 C462 1.385 . S
C463 C485 1.444 . S
O464 Tb420 2.546 1_556 S
O464 C484 1.251 . S
O465 Tb420 2.610 . S
O465 Tb431 2.362 . S
O465 C476 1.283 . S
O466 Tb431 2.421 . S
O466 C483 1.262 . S
O467 Tb420 2.320 . S
O467 C483 1.260 . S
O468 Tb420 2.552 . S
O468 C476 1.243 . S
O469 Tb420 2.413 1_556 S
O469 C484 1.256 . S
O470 Tb431 2.546 . S
O470 C495 1.251 . S
O471 Tb420 2.362 . S
O471 Tb431 2.610 . S
O471 C487 1.283 . S
O472 Tb420 2.421 . S
O472 C494 1.262 . S
O473 Tb431 2.320 . S
O473 C494 1.260 . S
O474 Tb431 2.552 . S
O474 C487 1.243 . S
O475 Tb431 2.413 . S
O475 C495 1.256 . S
C476 O465 1.283 . S
C476 O468 1.243 . S
C477 C479 1.382 . S
C477 C481 1.393 . S
C477 C484 1.500 . S
C478 C479 1.400 . S
C478 C480 1.384 . S
C479 C477 1.382 . S
C479 C478 1.400 . S
C479 H496 0.930 . S
C480 C478 1.384 . S
C480 C482 1.392 . S
C480 H497 0.931 . S
C481 C477 1.393 . S
C481 C482 1.401 . S
C481 H498 0.930 . S
C482 C480 1.392 . S
C482 C481 1.401 . S
C482 H499 0.930 . S
C483 O466 1.262 . S
C483 O467 1.260 . S
C484 Tb420 2.833 1_556 S
C484 O464 1.251 . S
C484 O469 1.256 . S
C484 C477 1.500 . S
C485 H450 0.929 . S
C485 C463 1.444 . S
C485 C486 1.317 . S
C486 H448 0.930 . S
C486 C454 1.432 1_556 S
C486 C485 1.317 . S
C487 O471 1.283 . S
C487 O474 1.243 . S
C488 C489 1.382 . S
C488 C492 1.393 . S
C488 C495 1.500 . S
C489 C488 1.382 . S
C489 C490 1.400 . S
C489 H500 0.930 . S
C490 C489 1.400 . S
C490 C491 1.384 . S
C491 C490 1.384 . S
C491 C493 1.392 . S
C491 H501 0.931 . S
C492 C488 1.393 . S
C492 C493 1.401 . S
C492 H502 0.930 . S
C493 C491 1.392 . S
C493 C492 1.401 . S
C493 H503 0.930 . S
C494 O472 1.262 . S
C494 O473 1.260 . S
C495 Tb431 2.833 . S
C495 O470 1.251 . S
C495 O475 1.256 . S
C495 C488 1.500 . S
H496 C479 0.930 . S
H497 C480 0.931 . S
H498 C481 0.930 . S
H499 C482 0.930 . S
H500 C489 0.930 . S
H501 C491 0.931 . S
H502 C492 0.930 . S
H503 C493 0.930 . S
Tb504 N535 2.660 . S
Tb504 N542 2.600 . S
Tb504 O548 2.546 . S
Tb504 O549 2.610 . S
Tb504 O551 2.320 . S
Tb504 O552 2.552 . S
Tb504 O553 2.413 . S
Tb504 O555 2.362 . S
Tb504 O556 2.421 . S
Tb504 C568 2.833 . S
C505 C508 1.432 . S
C505 C509 1.414 . S
C505 N512 1.359 . S
C506 C508 1.417 . S
C506 C510 1.432 . S
C506 C518 1.410 . S
C507 C509 1.444 . S
C507 C510 1.317 . S
C507 H530 0.929 . S
C508 C505 1.432 . S
C508 C506 1.417 . S
C508 N516 1.360 . S
C509 C505 1.414 . S
C509 C507 1.444 . S
C509 C514 1.385 . S
C510 C506 1.432 . S
C510 C507 1.317 . S
C510 H522 0.930 . S
C511 C513 1.392 . S
C511 C514 1.370 . S
C511 H523 0.931 . S
N512 C505 1.359 . S
N512 C513 1.327 . S
N512 Tb515 2.600 . S
C513 C511 1.392 . S
C513 N512 1.327 . S
C513 H520 0.930 . S
C514 C509 1.385 . S
C514 C511 1.370 . S
C514 H533 0.930 . S
Tb515 N512 2.600 . S
Tb515 N516 2.660 . S
Tb515 O549 2.362 . S
Tb515 O550 2.421 . S
Tb515 O554 2.546 . S
Tb515 O555 2.610 . S
Tb515 O557 2.320 . S
Tb515 O558 2.552 . S
Tb515 O559 2.413 . S
Tb515 C579 2.833 . S
N516 C508 1.360 . S
N516 Tb515 2.660 . S
N516 C517 1.305 . S
C517 N516 1.305 . S
C517 C519 1.407 . S
C517 H524 0.930 . S
C518 C506 1.410 . S
C518 C519 1.345 . S
C518 H526 0.930 . S
C519 C517 1.407 . S
C519 C518 1.345 . S
C519 H521 0.930 . S
H520 C513 0.930 . S
H521 C519 0.930 . S
H522 C510 0.930 . S
H523 C511 0.931 . S
H524 C517 0.930 . S
H525 C539 0.930 . S
H526 C518 0.930 . S
H527 C545 0.930 . S
H528 C536 0.930 . S
H529 C543 0.931 . S
H530 C507 0.929 . S
H531 C537 0.930 . S
H532 C570 0.930 . S
H533 C514 0.930 . S
H534 C569 0.929 . S
N535 Tb504 2.660 . S
N535 C536 1.305 . S
N535 C540 1.360 . S
C536 H528 0.930 . S
C536 N535 1.305 . S
C536 C539 1.407 . S
C537 H531 0.930 . S
C537 C538 1.410 . S
C537 C539 1.345 . S
C538 C537 1.410 . S
C538 C540 1.417 . S
C538 C570 1.432 . S
C539 H525 0.930 . S
C539 C536 1.407 . S
C539 C537 1.345 . S
C540 N535 1.360 . S
C540 C538 1.417 . S
C540 C544 1.432 . S
H541 C546 0.930 . S
N542 Tb504 2.600 . S
N542 C544 1.359 . S
N542 C545 1.327 . S
C543 H529 0.931 . S
C543 C545 1.392 . S
C543 C546 1.370 . S
C544 C540 1.432 . S
C544 N542 1.359 . S
C544 C547 1.414 . S
C545 H527 0.930 . S
C545 N542 1.327 . S
C545 C543 1.392 . S
C546 H541 0.930 . S
C546 C543 1.370 . S
C546 C547 1.385 . S
C547 C544 1.414 . S
C547 C546 1.385 . S
C547 C569 1.444 . S
O548 Tb504 2.546 . S
O548 C568 1.251 . S
O549 Tb504 2.610 . S
O549 Tb515 2.362 . S
O549 C560 1.283 . S
O550 Tb515 2.421 . S
O550 C567 1.262 . S
O551 Tb504 2.320 . S
O551 C567 1.260 . S
O552 Tb504 2.552 . S
O552 C560 1.243 . S
O553 Tb504 2.413 . S
O553 C568 1.256 . S
O554 Tb515 2.546 . S
O554 C579 1.251 . S
O555 Tb504 2.362 . S
O555 Tb515 2.610 . S
O555 C571 1.283 . S
O556 Tb504 2.421 . S
O556 C578 1.262 . S
O557 Tb515 2.320 . S
O557 C578 1.260 . S
O558 Tb515 2.552 . S
O558 C571 1.243 . S
O559 Tb515 2.413 . S
O559 C579 1.256 . S
C560 O549 1.283 . S
C560 O552 1.243 . S
C561 C563 1.382 . S
C561 C565 1.393 . S
C561 C568 1.500 . S
C562 C563 1.400 1_556 S
C562 C564 1.384 . S
C563 C561 1.382 . S
C563 C562 1.400 1_554 S
C563 H580 0.930 . S
C564 C562 1.384 . S
C564 C566 1.392 . S
C564 H581 0.931 . S
C565 C561 1.393 . S
C565 C566 1.401 1_554 S
C565 H582 0.930 . S
C566 C564 1.392 . S
C566 C565 1.401 1_556 S
C566 H583 0.930 . S
C567 O550 1.262 . S
C567 O551 1.260 . S
C568 Tb504 2.833 . S
C568 O548 1.251 . S
C568 O553 1.256 . S
C568 C561 1.500 . S
C569 H534 0.929 . S
C569 C547 1.444 . S
C569 C570 1.317 . S
C570 H532 0.930 . S
C570 C538 1.432 . S
C570 C569 1.317 . S
C571 O555 1.283 . S
C571 O558 1.243 . S
C572 C573 1.382 . S
C572 C576 1.393 . S
C572 C579 1.500 . S
C573 C572 1.382 . S
C573 C574 1.400 . S
C573 H584 0.930 . S
C574 C573 1.400 . S
C574 C575 1.384 . S
C575 C574 1.384 . S
C575 C577 1.392 . S
C575 H585 0.931 . S
C576 C572 1.393 . S
C576 C577 1.401 . S
C576 H586 0.930 . S
C577 C575 1.392 . S
C577 C576 1.401 . S
C577 H587 0.930 . S
C578 O556 1.262 . S
C578 O557 1.260 . S
C579 Tb515 2.833 . S
C579 O554 1.251 . S
C579 O559 1.256 . S
C579 C572 1.500 . S
H580 C563 0.930 . S
H581 C564 0.931 . S
H582 C565 0.930 . S
H583 C566 0.930 . S
H584 C573 0.930 . S
H585 C575 0.931 . S
H586 C576 0.930 . S
H587 C577 0.930 . S
Tb588 N619 2.660 . S
Tb588 N626 2.600 . S
Tb588 O632 2.546 . S
Tb588 O633 2.610 . S
Tb588 O635 2.320 . S
Tb588 O636 2.552 . S
Tb588 O637 2.413 . S
Tb588 O639 2.362 . S
Tb588 O640 2.421 . S
Tb588 C652 2.833 . S
C589 C592 1.432 . S
C589 C593 1.414 . S
C589 N596 1.359 . S
C590 C592 1.417 . S
C590 C594 1.432 . S
C590 C602 1.410 . S
C591 C593 1.444 . S
C591 C594 1.317 . S
C591 H614 0.929 . S
C592 C589 1.432 . S
C592 C590 1.417 . S
C592 N600 1.360 . S
C593 C589 1.414 . S
C593 C591 1.444 . S
C593 C598 1.385 . S
C594 C590 1.432 . S
C594 C591 1.317 . S
C594 H606 0.930 . S
C595 C597 1.392 . S
C595 C598 1.370 . S
C595 H607 0.931 1_545 S
N596 C589 1.359 . S
N596 C597 1.327 . S
N596 Tb599 2.600 . S
C597 C595 1.392 . S
C597 N596 1.327 . S
C597 H604 0.930 . S
C598 C593 1.385 . S
C598 C595 1.370 . S
C598 H617 0.930 . S
Tb599 N596 2.600 . S
Tb599 N600 2.660 . S
Tb599 O633 2.362 . S
Tb599 O634 2.421 . S
Tb599 O638 2.546 . S
Tb599 O639 2.610 . S
Tb599 O641 2.320 . S
Tb599 O642 2.552 . S
Tb599 O643 2.413 . S
Tb599 C663 2.833 . S
N600 C592 1.360 . S
N600 Tb599 2.660 . S
N600 C601 1.305 . S
C601 N600 1.305 . S
C601 C603 1.407 . S
C601 H608 0.930 . S
C602 C590 1.410 . S
C602 C603 1.345 . S
C602 H610 0.930 . S
C603 C601 1.407 . S
C603 C602 1.345 . S
C603 H605 0.930 . S
H604 C597 0.930 . S
H605 C603 0.930 . S
H606 C594 0.930 . S
H607 C595 0.931 1_565 S
H608 C601 0.930 . S
H609 C623 0.930 . S
H610 C602 0.930 . S
H611 C629 0.930 . S
H612 C620 0.930 . S
H613 C627 0.931 . S
H614 C591 0.929 . S
H615 C621 0.930 . S
H616 C654 0.930 . S
H617 C598 0.930 . S
H618 C653 0.929 . S
N619 Tb588 2.660 . S
N619 C620 1.305 . S
N619 C624 1.360 . S
C620 H612 0.930 . S
C620 N619 1.305 . S
C620 C623 1.407 . S
C621 H615 0.930 . S
C621 C622 1.410 . S
C621 C623 1.345 . S
C622 C621 1.410 . S
C622 C624 1.417 . S
C622 C654 1.432 . S
C623 H609 0.930 . S
C623 C620 1.407 . S
C623 C621 1.345 . S
C624 N619 1.360 . S
C624 C622 1.417 . S
C624 C628 1.432 . S
H625 C630 0.930 . S
N626 Tb588 2.600 . S
N626 C628 1.359 . S
N626 C629 1.327 . S
C627 H613 0.931 . S
C627 C629 1.392 . S
C627 C630 1.370 . S
C628 C624 1.432 . S
C628 N626 1.359 . S
C628 C631 1.414 . S
C629 H611 0.930 . S
C629 N626 1.327 . S
C629 C627 1.392 . S
C630 H625 0.930 . S
C630 C627 1.370 . S
C630 C631 1.385 . S
C631 C628 1.414 . S
C631 C630 1.385 . S
C631 C653 1.444 . S
O632 Tb588 2.546 . S
O632 C652 1.251 . S
O633 Tb588 2.610 . S
O633 Tb599 2.362 . S
O633 C644 1.283 . S
O634 Tb599 2.421 . S
O634 C651 1.262 . S
O635 Tb588 2.320 . S
O635 C651 1.260 . S
O636 Tb588 2.552 . S
O636 C644 1.243 . S
O637 Tb588 2.413 . S
O637 C652 1.256 . S
O638 Tb599 2.546 . S
O638 C663 1.251 . S
O639 Tb588 2.362 . S
O639 Tb599 2.610 . S
O639 C655 1.283 . S
O640 Tb588 2.421 . S
O640 C662 1.262 . S
O641 Tb599 2.320 . S
O641 C662 1.260 . S
O642 Tb599 2.552 . S
O642 C655 1.243 . S
O643 Tb599 2.413 . S
O643 C663 1.256 . S
C644 O633 1.283 . S
C644 O636 1.243 . S
C645 C647 1.382 . S
C645 C649 1.393 . S
C645 C652 1.500 . S
C646 C647 1.400 . S
C646 C648 1.384 . S
C647 C645 1.382 . S
C647 C646 1.400 . S
C647 H664 0.930 . S
C648 C646 1.384 . S
C648 C650 1.392 . S
C648 H665 0.931 . S
C649 C645 1.393 . S
C649 C650 1.401 . S
C649 H666 0.930 . S
C650 C648 1.392 . S
C650 C649 1.401 . S
C650 H667 0.930 . S
C651 O634 1.262 . S
C651 O635 1.260 . S
C652 Tb588 2.833 . S
C652 O632 1.251 . S
C652 O637 1.256 . S
C652 C645 1.500 . S
C653 H618 0.929 . S
C653 C631 1.444 . S
C653 C654 1.317 . S
C654 H616 0.930 . S
C654 C622 1.432 . S
C654 C653 1.317 . S
C655 O639 1.283 . S
C655 O642 1.243 . S
C656 C657 1.382 . S
C656 C660 1.393 . S
C656 C663 1.500 . S
C657 C656 1.382 . S
C657 C658 1.400 1_556 S
C657 H668 0.930 . S
C658 C657 1.400 1_554 S
C658 C659 1.384 . S
C659 C658 1.384 . S
C659 C661 1.392 . S
C659 H669 0.931 . S
C660 C656 1.393 . S
C660 C661 1.401 1_556 S
C660 H670 0.930 . S
C661 C659 1.392 . S
C661 C660 1.401 1_554 S
C661 H671 0.930 . S
C662 O640 1.262 . S
C662 O641 1.260 . S
C663 Tb599 2.833 . S
C663 O638 1.251 . S
C663 O643 1.256 . S
C663 C656 1.500 . S
H664 C647 0.930 . S
H665 C648 0.931 . S
H666 C649 0.930 . S
H667 C650 0.930 . S
H668 C657 0.930 . S
H669 C659 0.931 . S
H670 C660 0.930 . S
H671 C661 0.930 . S
Tb672 N703 2.660 . S
Tb672 N710 2.600 . S
Tb672 O716 2.546 . S
Tb672 O717 2.610 . S
Tb672 O719 2.320 . S
Tb672 O720 2.552 . S
Tb672 O721 2.413 . S
Tb672 O723 2.362 . S
Tb672 O724 2.421 . S
Tb672 C736 2.833 . S
C673 C676 1.432 . S
C673 C677 1.414 1_556 S
C673 N680 1.359 . S
C674 C676 1.417 . S
C674 C678 1.432 1_556 S
C674 C686 1.410 . S
C675 C677 1.444 . S
C675 C678 1.317 . S
C675 H698 0.929 . S
C676 C673 1.432 . S
C676 C674 1.417 . S
C676 N684 1.360 . S
C677 C673 1.414 1_554 S
C677 C675 1.444 . S
C677 C682 1.385 . S
C678 C674 1.432 1_554 S
C678 C675 1.317 . S
C678 H690 0.930 . S
C679 C681 1.392 1_554 S
C679 C682 1.370 . S
C679 H691 0.931 . S
N680 C673 1.359 . S
N680 C681 1.327 . S
N680 Tb683 2.600 . S
C681 C679 1.392 1_556 S
C681 N680 1.327 . S
C681 H688 0.930 . S
C682 C677 1.385 . S
C682 C679 1.370 . S
C682 H701 0.930 . S
Tb683 N680 2.600 . S
Tb683 N684 2.660 . S
Tb683 O717 2.362 . S
Tb683 O718 2.421 . S
Tb683 O722 2.546 1_556 S
Tb683 O723 2.610 . S
Tb683 O725 2.320 . S
Tb683 O726 2.552 . S
Tb683 O727 2.413 1_556 S
Tb683 C747 2.833 1_556 S
N684 C676 1.360 . S
N684 Tb683 2.660 . S
N684 C685 1.305 . S
C685 N684 1.305 . S
C685 C687 1.407 . S
C685 H692 0.930 . S
C686 C674 1.410 . S
C686 C687 1.345 . S
C686 H694 0.930 . S
C687 C685 1.407 . S
C687 C686 1.345 . S
C687 H689 0.930 . S
H688 C681 0.930 . S
H689 C687 0.930 . S
H690 C678 0.930 . S
H691 C679 0.931 . S
H692 C685 0.930 . S
H693 C707 0.930 . S
H694 C686 0.930 . S
H695 C713 0.930 . S
H696 C704 0.930 . S
H697 C711 0.931 . S
H698 C675 0.929 . S
H699 C705 0.930 . S
H700 C738 0.930 . S
H701 C682 0.930 . S
H702 C737 0.929 . S
N703 Tb672 2.660 . S
N703 C704 1.305 . S
N703 C708 1.360 . S
C704 H696 0.930 . S
C704 N703 1.305 . S
C704 C707 1.407 . S
C705 H699 0.930 . S
C705 C706 1.411 1_455 S
C705 C707 1.345 1_455 S
C706 C705 1.411 1_655 S
C706 C708 1.413 . S
C706 C738 1.434 1_655 S
C707 H693 0.930 . S
C707 C704 1.407 . S
C707 C705 1.345 1_655 S
C708 N703 1.360 . S
C708 C706 1.413 . S
C708 C712 1.432 . S
H709 C714 0.930 . S
N710 Tb672 2.600 . S
N710 C712 1.359 . S
N710 C713 1.327 . S
C711 H697 0.931 . S
C711 C713 1.392 . S
C711 C714 1.370 . S
C712 C708 1.432 . S
C712 N710 1.359 . S
C712 C715 1.414 . S
C713 H695 0.930 . S
C713 N710 1.327 . S
C713 C711 1.392 . S
C714 H709 0.930 . S
C714 C711 1.370 . S
C714 C715 1.385 . S
C715 C712 1.414 . S
C715 C714 1.385 . S
C715 C737 1.444 1_655 S
O716 Tb672 2.546 . S
O716 C736 1.251 . S
O717 Tb672 2.610 . S
O717 Tb683 2.362 . S
O717 C728 1.283 . S
O718 Tb683 2.421 . S
O718 C735 1.262 . S
O719 Tb672 2.320 . S
O719 C735 1.260 . S
O720 Tb672 2.552 . S
O720 C728 1.243 . S
O721 Tb672 2.413 . S
O721 C736 1.256 . S
O722 Tb683 2.546 1_554 S
O722 C747 1.251 . S
O723 Tb672 2.362 . S
O723 Tb683 2.610 . S
O723 C739 1.283 . S
O724 Tb672 2.421 . S
O724 C746 1.262 . S
O725 Tb683 2.320 . S
O725 C746 1.260 . S
O726 Tb683 2.552 . S
O726 C739 1.243 . S
O727 Tb683 2.413 1_554 S
O727 C747 1.256 . S
C728 O717 1.283 . S
C728 O720 1.243 . S
C729 C731 1.382 . S
C729 C733 1.393 . S
C729 C736 1.500 . S
C730 C731 1.400 . S
C730 C732 1.384 . S
C731 C729 1.382 . S
C731 C730 1.400 . S
C731 H748 0.930 . S
C732 C730 1.384 . S
C732 C734 1.392 . S
C732 H749 0.931 . S
C733 C729 1.393 . S
C733 C734 1.401 . S
C733 H750 0.930 . S
C734 C732 1.392 . S
C734 C733 1.401 . S
C734 H751 0.930 . S
C735 O718 1.262 . S
C735 O719 1.260 . S
C736 Tb672 2.833 . S
C736 O716 1.251 . S
C736 O721 1.256 . S
C736 C729 1.500 . S
C737 H702 0.929 . S
C737 C715 1.444 1_455 S
C737 C738 1.317 . S
C738 H700 0.930 . S
C738 C706 1.434 1_455 S
C738 C737 1.317 . S
C739 O723 1.283 . S
C739 O726 1.243 . S
C740 C741 1.382 . S
C740 C744 1.393 . S
C740 C747 1.500 . S
C741 C740 1.382 . S
C741 C742 1.400 . S
C741 H752 0.930 . S
C742 C741 1.400 . S
C742 C743 1.384 . S
C743 C742 1.384 . S
C743 C745 1.392 . S
C743 H753 0.931 . S
C744 C740 1.393 . S
C744 C745 1.401 . S
C744 H754 0.930 . S
C745 C743 1.392 . S
C745 C744 1.401 . S
C745 H755 0.930 . S
C746 O724 1.262 . S
C746 O725 1.260 . S
C747 Tb683 2.833 1_554 S
C747 O722 1.251 . S
C747 O727 1.256 . S
C747 C740 1.500 . S
H748 C731 0.930 . S
H749 C732 0.931 . S
H750 C733 0.930 . S
H751 C734 0.930 . S
H752 C741 0.930 . S
H753 C743 0.931 . S
H754 C744 0.930 . S
H755 C745 0.930 . S
Tb756 N787 2.660 . S
Tb756 N794 2.600 . S
Tb756 O800 2.546 . S
Tb756 O801 2.610 . S
Tb756 O803 2.320 . S
Tb756 O804 2.552 . S
Tb756 O805 2.413 . S
Tb756 O807 2.362 . S
Tb756 O808 2.421 . S
Tb756 C820 2.833 . S
C757 C760 1.432 . S
C757 C761 1.414 . S
C757 N764 1.359 . S
C758 C760 1.417 . S
C758 C762 1.432 . S
C758 C770 1.410 . S
C759 C761 1.444 . S
C759 C762 1.317 . S
C759 H782 0.929 . S
C760 C757 1.432 . S
C760 C758 1.417 . S
C760 N768 1.360 . S
C761 C757 1.414 . S
C761 C759 1.444 . S
C761 C766 1.385 . S
C762 C758 1.432 . S
C762 C759 1.317 . S
C762 H774 0.930 . S
C763 C765 1.392 . S
C763 C766 1.370 . S
C763 H775 0.931 . S
N764 C757 1.359 . S
N764 C765 1.327 . S
N764 Tb767 2.600 . S
C765 C763 1.392 . S
C765 N764 1.327 . S
C765 H772 0.930 . S
C766 C761 1.385 . S
C766 C763 1.370 . S
C766 H785 0.930 . S
Tb767 N764 2.600 . S
Tb767 N768 2.660 . S
Tb767 O801 2.362 . S
Tb767 O802 2.421 . S
Tb767 O806 2.546 . S
Tb767 O807 2.610 . S
Tb767 O809 2.320 . S
Tb767 O810 2.552 . S
Tb767 O811 2.413 . S
Tb767 C831 2.833 . S
N768 C760 1.360 . S
N768 Tb767 2.660 . S
N768 C769 1.305 . S
C769 N768 1.305 . S
C769 C771 1.407 . S
C769 H776 0.930 . S
C770 C758 1.410 . S
C770 C771 1.345 . S
C770 H778 0.930 . S
C771 C769 1.407 . S
C771 C770 1.345 . S
C771 H773 0.930 . S
H772 C765 0.930 . S
H773 C771 0.930 . S
H774 C762 0.930 . S
H775 C763 0.931 . S
H776 C769 0.930 . S
H777 C791 0.930 . S
H778 C770 0.930 . S
H779 C797 0.930 . S
H780 C788 0.930 . S
H781 C795 0.931 1_565 S
H782 C759 0.929 . S
H783 C789 0.930 . S
H784 C822 0.930 . S
H785 C766 0.930 . S
H786 C821 0.929 . S
N787 Tb756 2.660 . S
N787 C788 1.305 . S
N787 C792 1.360 . S
C788 H780 0.930 . S
C788 N787 1.305 . S
C788 C791 1.407 . S
C789 H783 0.930 . S
C789 C790 1.410 . S
C789 C791 1.345 . S
C790 C789 1.410 . S
C790 C792 1.417 . S
C790 C822 1.432 . S
C791 H777 0.930 . S
C791 C788 1.407 . S
C791 C789 1.345 . S
C792 N787 1.360 . S
C792 C790 1.417 . S
C792 C796 1.432 . S
H793 C798 0.931 . S
N794 Tb756 2.600 . S
N794 C796 1.359 . S
N794 C797 1.327 . S
C795 H781 0.931 1_545 S
C795 C797 1.392 . S
C795 C798 1.370 . S
C796 C792 1.432 . S
C796 N794 1.359 . S
C796 C799 1.414 . S
C797 H779 0.930 . S
C797 N794 1.327 . S
C797 C795 1.392 . S
C798 H793 0.931 . S
C798 C795 1.370 . S
C798 C799 1.385 . S
C799 C796 1.414 . S
C799 C798 1.385 . S
C799 C821 1.444 . S
O800 Tb756 2.546 . S
O800 C820 1.251 . S
O801 Tb756 2.610 . S
O801 Tb767 2.362 . S
O801 C812 1.283 . S
O802 Tb767 2.421 . S
O802 C819 1.262 . S
O803 Tb756 2.320 . S
O803 C819 1.260 . S
O804 Tb756 2.552 . S
O804 C812 1.243 . S
O805 Tb756 2.413 . S
O805 C820 1.256 . S
O806 Tb767 2.546 . S
O806 C831 1.251 . S
O807 Tb756 2.362 . S
O807 Tb767 2.610 . S
O807 C823 1.283 . S
O808 Tb756 2.421 . S
O808 C830 1.262 . S
O809 Tb767 2.320 . S
O809 C830 1.260 . S
O810 Tb767 2.552 . S
O810 C823 1.243 . S
O811 Tb767 2.413 . S
O811 C831 1.256 . S
C812 O801 1.283 . S
C812 O804 1.243 . S
C813 C815 1.382 . S
C813 C817 1.393 . S
C813 C820 1.500 . S
C814 C815 1.400 1_554 S
C814 C816 1.384 . S
C815 C813 1.382 . S
C815 C814 1.400 1_556 S
C815 H832 0.930 . S
C816 C814 1.384 . S
C816 C818 1.392 . S
C816 H833 0.931 . S
C817 C813 1.393 . S
C817 C818 1.401 1_556 S
C817 H834 0.930 . S
C818 C816 1.392 . S
C818 C817 1.401 1_554 S
C818 H835 0.930 . S
C819 O802 1.262 . S
C819 O803 1.260 . S
C820 Tb756 2.833 . S
C820 O800 1.251 . S
C820 O805 1.256 . S
C820 C813 1.500 . S
C821 H786 0.929 . S
C821 C799 1.444 . S
C821 C822 1.317 . S
C822 H784 0.930 . S
C822 C790 1.432 . S
C822 C821 1.317 . S
C823 O807 1.283 . S
C823 O810 1.243 . S
C824 C825 1.382 . S
C824 C828 1.393 . S
C824 C831 1.500 . S
C825 C824 1.382 . S
C825 C826 1.400 . S
C825 H836 0.930 . S
C826 C825 1.400 . S
C826 C827 1.384 . S
C827 C826 1.384 . S
C827 C829 1.392 . S
C827 H837 0.931 . S
C828 C824 1.393 . S
C828 C829 1.401 . S
C828 H838 0.930 . S
C829 C827 1.392 . S
C829 C828 1.401 . S
C829 H839 0.930 . S
C830 O808 1.262 . S
C830 O809 1.260 . S
C831 Tb767 2.833 . S
C831 O806 1.251 . S
C831 O811 1.256 . S
C831 C824 1.500 . S
H832 C815 0.930 . S
H833 C816 0.931 . S
H834 C817 0.930 . S
H835 C818 0.930 . S
H836 C825 0.930 . S
H837 C827 0.931 . S
H838 C828 0.930 . S
H839 C829 0.930 . S
Tb840 N871 2.660 . S
Tb840 N878 2.600 . S
Tb840 O884 2.546 . S
Tb840 O885 2.610 . S
Tb840 O887 2.320 . S
Tb840 O888 2.552 . S
Tb840 O889 2.413 . S
Tb840 O891 2.362 . S
Tb840 O892 2.421 . S
Tb840 C904 2.833 . S
C841 C844 1.432 . S
C841 C845 1.414 . S
C841 N848 1.359 . S
C842 C844 1.417 . S
C842 C846 1.432 . S
C842 C854 1.410 . S
C843 C845 1.444 . S
C843 C846 1.317 . S
C843 H866 0.929 . S
C844 C841 1.432 . S
C844 C842 1.417 . S
C844 N852 1.360 . S
C845 C841 1.414 . S
C845 C843 1.444 . S
C845 C850 1.385 . S
C846 C842 1.432 . S
C846 C843 1.317 . S
C846 H858 0.930 . S
C847 C849 1.392 . S
C847 C850 1.370 . S
C847 H859 0.931 . S
N848 C841 1.359 . S
N848 C849 1.327 . S
N848 Tb851 2.600 . S
C849 C847 1.392 . S
C849 N848 1.327 . S
C849 H856 0.930 . S
C850 C845 1.385 . S
C850 C847 1.370 . S
C850 H869 0.930 . S
Tb851 N848 2.600 . S
Tb851 N852 2.660 . S
Tb851 O885 2.362 . S
Tb851 O886 2.421 . S
Tb851 O890 2.546 . S
Tb851 O891 2.610 . S
Tb851 O893 2.320 . S
Tb851 O894 2.552 . S
Tb851 O895 2.413 . S
Tb851 C915 2.833 . S
N852 C844 1.360 . S
N852 Tb851 2.660 . S
N852 C853 1.305 . S
C853 N852 1.305 . S
C853 C855 1.407 . S
C853 H860 0.930 . S
C854 C842 1.410 . S
C854 C855 1.345 . S
C854 H862 0.930 . S
C855 C853 1.407 . S
C855 C854 1.345 . S
C855 H857 0.930 . S
H856 C849 0.930 . S
H857 C855 0.930 . S
H858 C846 0.930 . S
H859 C847 0.931 . S
H860 C853 0.930 . S
H861 C875 0.930 . S
H862 C854 0.930 . S
H863 C881 0.930 . S
H864 C872 0.930 . S
H865 C879 0.931 . S
H866 C843 0.929 . S
H867 C873 0.930 . S
H868 C906 0.930 . S
H869 C850 0.930 . S
H870 C905 0.929 . S
N871 Tb840 2.660 . S
N871 C872 1.305 . S
N871 C876 1.360 . S
C872 H864 0.930 . S
C872 N871 1.305 . S
C872 C875 1.407 . S
C873 H867 0.930 . S
C873 C874 1.410 . S
C873 C875 1.345 . S
C874 C873 1.410 . S
C874 C876 1.417 . S
C874 C906 1.432 . S
C875 H861 0.930 . S
C875 C872 1.407 . S
C875 C873 1.345 . S
C876 N871 1.360 . S
C876 C874 1.417 . S
C876 C880 1.432 . S
H877 C882 0.930 . S
N878 Tb840 2.600 . S
N878 C880 1.359 . S
N878 C881 1.327 . S
C879 H865 0.931 . S
C879 C881 1.392 . S
C879 C882 1.370 . S
C880 C876 1.432 . S
C880 N878 1.359 . S
C880 C883 1.414 . S
C881 H863 0.930 . S
C881 N878 1.327 . S
C881 C879 1.392 . S
C882 H877 0.930 . S
C882 C879 1.370 . S
C882 C883 1.385 . S
C883 C880 1.414 . S
C883 C882 1.385 . S
C883 C905 1.444 . S
O884 Tb840 2.546 . S
O884 C904 1.251 . S
O885 Tb840 2.610 . S
O885 Tb851 2.362 . S
O885 C896 1.283 . S
O886 Tb851 2.421 . S
O886 C903 1.262 . S
O887 Tb840 2.320 . S
O887 C903 1.260 . S
O888 Tb840 2.552 . S
O888 C896 1.243 . S
O889 Tb840 2.413 . S
O889 C904 1.256 . S
O890 Tb851 2.546 . S
O890 C915 1.251 . S
O891 Tb840 2.362 . S
O891 Tb851 2.610 . S
O891 C907 1.283 . S
O892 Tb840 2.421 . S
O892 C914 1.262 . S
O893 Tb851 2.320 . S
O893 C914 1.260 . S
O894 Tb851 2.552 . S
O894 C907 1.243 . S
O895 Tb851 2.413 . S
O895 C915 1.256 . S
C896 O885 1.283 . S
C896 O888 1.243 . S
C897 C899 1.382 . S
C897 C901 1.393 . S
C897 C904 1.500 . S
C898 C899 1.400 . S
C898 C900 1.384 . S
C899 C897 1.382 . S
C899 C898 1.400 . S
C899 H916 0.930 . S
C900 C898 1.384 . S
C900 C902 1.392 . S
C900 H917 0.931 . S
C901 C897 1.393 . S
C901 C902 1.401 . S
C901 H918 0.930 . S
C902 C900 1.392 . S
C902 C901 1.401 . S
C902 H919 0.930 . S
C903 O886 1.262 . S
C903 O887 1.260 . S
C904 Tb840 2.833 . S
C904 O884 1.251 . S
C904 O889 1.256 . S
C904 C897 1.500 . S
C905 H870 0.929 . S
C905 C883 1.444 . S
C905 C906 1.317 . S
C906 H868 0.930 . S
C906 C874 1.432 . S
C906 C905 1.317 . S
C907 O891 1.283 . S
C907 O894 1.243 . S
C908 C909 1.382 . S
C908 C912 1.393 . S
C908 C915 1.500 . S
C909 C908 1.382 . S
C909 C910 1.400 1_554 S
C909 H920 0.930 . S
C910 C909 1.400 1_556 S
C910 C911 1.384 . S
C911 C910 1.384 . S
C911 C913 1.392 . S
C911 H921 0.931 . S
C912 C908 1.393 . S
C912 C913 1.401 1_554 S
C912 H922 0.930 . S
C913 C911 1.392 . S
C913 C912 1.401 1_556 S
C913 H923 0.930 . S
C914 O892 1.262 . S
C914 O893 1.260 . S
C915 Tb851 2.833 . S
C915 O890 1.251 . S
C915 O895 1.256 . S
C915 C908 1.500 . S
H916 C899 0.930 . S
H917 C900 0.931 . S
H918 C901 0.930 . S
H919 C902 0.930 . S
H920 C909 0.930 . S
H921 C911 0.931 . S
H922 C912 0.930 . S
H923 C913 0.930 . S
Tb924 N955 2.660 . S
Tb924 N962 2.600 . S
Tb924 O968 2.546 1_554 S
Tb924 O969 2.610 . S
Tb924 O971 2.320 . S
Tb924 O972 2.552 . S
Tb924 O973 2.413 1_554 S
Tb924 O975 2.362 . S
Tb924 O976 2.421 . S
Tb924 C988 2.833 1_554 S
C925 C928 1.432 . S
C925 C929 1.414 . S
C925 N932 1.359 . S
C926 C928 1.417 1_545 S
C926 C930 1.432 . S
C926 C938 1.410 . S
C927 C929 1.444 1_545 S
C927 C930 1.317 . S
C927 H950 0.929 . S
C928 C925 1.432 . S
C928 C926 1.417 1_565 S
C928 N936 1.360 . S
C929 C925 1.414 . S
C929 C927 1.444 1_565 S
C929 C934 1.385 . S
C930 C926 1.432 . S
C930 C927 1.317 . S
C930 H942 0.930 . S
C931 C933 1.392 . S
C931 C934 1.370 . S
C931 H943 0.911 1_455 S
N932 C925 1.359 . S
N932 C933 1.327 . S
N932 Tb935 2.600 . S
C933 C931 1.392 . S
C933 N932 1.327 . S
C933 H940 0.930 . S
C934 C929 1.385 . S
C934 C931 1.370 . S
C934 H953 0.930 1_565 S
Tb935 N932 2.600 . S
Tb935 N936 2.660 . S
Tb935 O969 2.362 . S
Tb935 O970 2.421 . S
Tb935 O974 2.546 . S
Tb935 O975 2.610 . S
Tb935 O977 2.320 . S
Tb935 O978 2.552 . S
Tb935 O979 2.413 . S
Tb935 C999 2.833 . S
N936 C928 1.360 . S
N936 Tb935 2.660 . S
N936 C937 1.305 . S
C937 N936 1.305 . S
C937 C939 1.407 . S
C937 H944 0.930 . S
C938 C926 1.410 . S
C938 C939 1.345 1_545 S
C938 H946 0.930 . S
C939 C937 1.407 . S
C939 C938 1.345 1_565 S
C939 H941 0.930 1_565 S
H940 C933 0.930 . S
H941 C939 0.930 1_545 S
H942 C930 0.930 . S
H943 C931 0.911 1_655 S
H944 C937 0.930 . S
H945 C959 0.930 . S
H946 C938 0.930 . S
H947 C965 0.930 . S
H948 C956 0.930 . S
H949 C963 0.931 . S
H950 C927 0.929 . S
H951 C957 0.930 . S
H952 C990 0.930 . S
H953 C934 0.930 1_545 S
H954 C989 0.929 . S
N955 Tb924 2.660 . S
N955 C956 1.305 . S
N955 C960 1.360 . S
C956 H948 0.930 . S
C956 N955 1.305 . S
C956 C959 1.407 . S
C957 H951 0.930 . S
C957 C958 1.410 1_554 S
C957 C959 1.345 . S
C958 C957 1.410 1_556 S
C958 C960 1.417 1_556 S
C958 C990 1.432 . S
C959 H945 0.930 . S
C959 C956 1.407 . S
C959 C957 1.345 . S
C960 N955 1.360 . S
C960 C958 1.417 1_554 S
C960 C964 1.432 . S
H961 C966 0.930 . S
N962 Tb924 2.600 . S
N962 C964 1.360 . S
N962 C965 1.327 . S
C963 H949 0.931 . S
C963 C965 1.392 1_556 S
C963 C966 1.370 . S
C964 C960 1.432 . S
C964 N962 1.360 . S
C964 C967 1.412 1_554 S
C965 H947 0.930 . S
C965 N962 1.327 . S
C965 C963 1.392 1_554 S
C966 H961 0.930 . S
C966 C963 1.370 . S
C966 C967 1.385 . S
C967 C964 1.412 1_556 S
C967 C966 1.385 . S
C967 C989 1.444 . S
O968 Tb924 2.546 1_556 S
O968 C988 1.251 . S
O969 Tb924 2.610 . S
O969 Tb935 2.362 . S
O969 C980 1.283 . S
O970 Tb935 2.421 . S
O970 C987 1.262 . S
O971 Tb924 2.320 . S
O971 C987 1.260 . S
O972 Tb924 2.552 . S
O972 C980 1.243 . S
O973 Tb924 2.413 1_556 S
O973 C988 1.256 . S
O974 Tb935 2.546 . S
O974 C999 1.251 . S
O975 Tb924 2.362 . S
O975 Tb935 2.610 . S
O975 C991 1.283 . S
O976 Tb924 2.421 . S
O976 C998 1.262 . S
O977 Tb935 2.320 . S
O977 C998 1.260 . S
O978 Tb935 2.552 . S
O978 C991 1.243 . S
O979 Tb935 2.413 . S
O979 C999 1.256 . S
C980 O969 1.283 . S
C980 O972 1.243 . S
C981 C983 1.382 . S
C981 C985 1.393 . S
C981 C988 1.500 . S
C982 C983 1.400 . S
C982 C984 1.384 . S
C983 C981 1.382 . S
C983 C982 1.400 . S
C983 H1000 0.930 . S
C984 C982 1.384 . S
C984 C986 1.392 . S
C984 H1001 0.931 . S
C985 C981 1.393 . S
C985 C986 1.401 . S
C985 H1002 0.930 . S
C986 C984 1.392 . S
C986 C985 1.401 . S
C986 H1003 0.930 . S
C987 O970 1.262 . S
C987 O971 1.260 . S
C988 Tb924 2.833 1_556 S
C988 O968 1.251 . S
C988 O973 1.256 . S
C988 C981 1.500 . S
C989 H954 0.929 . S
C989 C967 1.444 . S
C989 C990 1.317 . S
C990 H952 0.930 . S
C990 C958 1.432 . S
C990 C989 1.317 . S
C991 O975 1.283 . S
C991 O978 1.243 . S
C992 C993 1.382 . S
C992 C996 1.393 . S
C992 C999 1.500 . S
C993 C992 1.382 . S
C993 C994 1.400 . S
C993 H1004 0.930 . S
C994 C993 1.400 . S
C994 C995 1.384 . S
C995 C994 1.384 . S
C995 C997 1.392 . S
C995 H1005 0.931 . S
C996 C992 1.393 . S
C996 C997 1.401 . S
C996 H1006 0.930 . S
C997 C995 1.392 . S
C997 C996 1.401 . S
C997 H1007 0.930 . S
C998 O976 1.262 . S
C998 O977 1.260 . S
C999 Tb935 2.833 . S
C999 O974 1.251 . S
C999 O979 1.256 . S
C999 C992 1.500 . S
H1000 C983 0.930 . S
H1001 C984 0.931 . S
H1002 C985 0.930 . S
H1003 C986 0.930 . S
H1004 C993 0.930 . S
H1005 C995 0.931 . S
H1006 C996 0.930 . S
H1007 C997 0.930 . S
Tb1008 N1039 2.660 . S
Tb1008 N1046 2.600 . S
Tb1008 O1052 2.546 . S
Tb1008 O1053 2.610 . S
Tb1008 O1055 2.320 . S
Tb1008 O1056 2.552 . S
Tb1008 O1057 2.413 . S
Tb1008 O1059 2.362 . S
Tb1008 O1060 2.421 . S
Tb1008 C1072 2.833 . S
C1009 C1012 1.432 1_556 S
C1009 C1013 1.414 . S
C1009 N1016 1.359 1_556 S
C1010 C1012 1.417 1_556 S
C1010 C1014 1.432 . S
C1010 C1022 1.410 1_556 S
C1011 C1013 1.444 . S
C1011 C1014 1.317 . S
C1011 H1034 0.929 . S
C1012 C1009 1.432 1_554 S
C1012 C1010 1.417 1_554 S
C1012 N1020 1.360 . S
C1013 C1009 1.414 . S
C1013 C1011 1.444 . S
C1013 C1018 1.385 . S
C1014 C1010 1.432 . S
C1014 C1011 1.317 . S
C1014 H1026 0.930 . S
C1015 C1017 1.392 1_556 S
C1015 C1018 1.370 . S
C1015 H1027 0.931 . S
N1016 C1009 1.359 1_554 S
N1016 C1017 1.327 . S
N1016 Tb1019 2.600 . S
C1017 C1015 1.392 1_554 S
C1017 N1016 1.327 . S
C1017 H1024 0.930 . S
C1018 C1013 1.385 . S
C1018 C1015 1.370 . S
C1018 H1037 0.930 . S
Tb1019 N1016 2.600 . S
Tb1019 N1020 2.660 . S
Tb1019 O1053 2.362 . S
Tb1019 O1054 2.421 . S
Tb1019 O1058 2.546 1_554 S
Tb1019 O1059 2.610 . S
Tb1019 O1061 2.320 . S
Tb1019 O1062 2.552 . S
Tb1019 O1063 2.413 1_554 S
Tb1019 C1083 2.833 1_554 S
N1020 C1012 1.360 . S
N1020 Tb1019 2.660 . S
N1020 C1021 1.305 . S
C1021 N1020 1.305 . S
C1021 C1023 1.407 . S
C1021 H1028 0.930 . S
C1022 C1010 1.410 1_554 S
C1022 C1023 1.345 . S
C1022 H1030 0.932 . S
C1023 C1021 1.407 . S
C1023 C1022 1.345 . S
C1023 H1025 0.930 . S
H1024 C1017 0.930 . S
H1025 C1023 0.930 . S
H1026 C1014 0.930 . S
H1027 C1015 0.931 . S
H1028 C1021 0.930 . S
H1029 C1043 0.930 . S
H1030 C1022 0.932 . S
H1031 C1049 0.930 . S
H1032 C1040 0.930 . S
H1033 C1047 0.931 . S
H1034 C1011 0.929 . S
H1035 C1041 0.930 . S
H1036 C1074 0.930 . S
H1037 C1018 0.930 . S
H1038 C1073 0.929 . S
N1039 Tb1008 2.660 . S
N1039 C1040 1.305 . S
N1039 C1044 1.360 . S
C1040 H1032 0.930 . S
C1040 N1039 1.305 . S
C1040 C1043 1.407 . S
C1041 H1035 0.930 . S
C1041 C1042 1.407 1_455 S
C1041 C1043 1.345 1_455 S
C1042 C1041 1.407 1_655 S
C1042 C1044 1.429 . S
C1042 C1074 1.423 1_655 S
C1043 H1029 0.930 . S
C1043 C1040 1.407 . S
C1043 C1041 1.345 1_655 S
C1044 N1039 1.360 . S
C1044 C1042 1.429 . S
C1044 C1048 1.432 . S
H1045 C1050 0.930 . S
N1046 Tb1008 2.600 . S
N1046 C1048 1.359 . S
N1046 C1049 1.327 . S
C1047 H1033 0.931 . S
C1047 C1049 1.392 . S
C1047 C1050 1.370 . S
C1048 C1044 1.432 . S
C1048 N1046 1.359 . S
C1048 C1051 1.414 . S
C1049 H1031 0.930 . S
C1049 N1046 1.327 . S
C1049 C1047 1.392 . S
C1050 H1045 0.930 . S
C1050 C1047 1.370 . S
C1050 C1051 1.385 . S
C1051 C1048 1.414 . S
C1051 C1050 1.385 . S
C1051 C1073 1.444 1_655 S
O1052 Tb1008 2.546 . S
O1052 C1072 1.251 . S
O1053 Tb1008 2.610 . S
O1053 Tb1019 2.362 . S
O1053 C1064 1.283 . S
O1054 Tb1019 2.421 . S
O1054 C1071 1.262 . S
O1055 Tb1008 2.320 . S
O1055 C1071 1.260 . S
O1056 Tb1008 2.552 . S
O1056 C1064 1.243 . S
O1057 Tb1008 2.413 . S
O1057 C1072 1.256 . S
O1058 Tb1019 2.546 1_556 S
O1058 C1083 1.251 . S
O1059 Tb1008 2.362 . S
O1059 Tb1019 2.610 . S
O1059 C1075 1.283 . S
O1060 Tb1008 2.421 . S
O1060 C1082 1.262 . S
O1061 Tb1019 2.320 . S
O1061 C1082 1.260 . S
O1062 Tb1019 2.552 . S
O1062 C1075 1.243 . S
O1063 Tb1019 2.413 1_556 S
O1063 C1083 1.256 . S
C1064 O1053 1.283 . S
C1064 O1056 1.243 . S
C1065 C1067 1.382 . S
C1065 C1069 1.393 . S
C1065 C1072 1.500 . S
C1066 C1067 1.400 . S
C1066 C1068 1.384 . S
C1067 C1065 1.382 . S
C1067 C1066 1.400 . S
C1067 H1084 0.930 . S
C1068 C1066 1.384 . S
C1068 C1070 1.392 . S
C1068 H1085 0.931 . S
C1069 C1065 1.393 . S
C1069 C1070 1.401 . S
C1069 H1086 0.930 . S
C1070 C1068 1.392 . S
C1070 C1069 1.401 . S
C1070 H1087 0.930 . S
C1071 O1054 1.262 . S
C1071 O1055 1.260 . S
C1072 Tb1008 2.833 . S
C1072 O1052 1.251 . S
C1072 O1057 1.256 . S
C1072 C1065 1.500 . S
C1073 H1038 0.929 . S
C1073 C1051 1.444 1_455 S
C1073 C1074 1.317 . S
C1074 H1036 0.930 . S
C1074 C1042 1.423 1_455 S
C1074 C1073 1.317 . S
C1075 O1059 1.283 . S
C1075 O1062 1.243 . S
C1076 C1077 1.382 . S
C1076 C1080 1.393 . S
C1076 C1083 1.500 . S
C1077 C1076 1.382 . S
C1077 C1078 1.400 . S
C1077 H1088 0.930 . S
C1078 C1077 1.400 . S
C1078 C1079 1.384 . S
C1079 C1078 1.384 . S
C1079 C1081 1.392 . S
C1079 H1089 0.931 . S
C1080 C1076 1.393 . S
C1080 C1081 1.401 . S
C1080 H1090 0.930 . S
C1081 C1079 1.392 . S
C1081 C1080 1.401 . S
C1081 H1091 0.930 . S
C1082 O1060 1.262 . S
C1082 O1061 1.260 . S
C1083 Tb1019 2.833 1_556 S
C1083 O1058 1.251 . S
C1083 O1063 1.256 . S
C1083 C1076 1.500 . S
H1084 C1067 0.930 . S
H1085 C1068 0.931 . S
H1086 C1069 0.930 . S
H1087 C1070 0.930 . S
H1088 C1077 0.930 . S
H1089 C1079 0.931 . S
H1090 C1080 0.930 . S
H1091 C1081 0.930 . S
Tb1092 N1123 2.660 . S
Tb1092 N1130 2.600 . S
Tb1092 O1136 2.546 1_556 S
Tb1092 O1137 2.610 . S
Tb1092 O1139 2.320 . S
Tb1092 O1140 2.552 . S
Tb1092 O1141 2.413 1_556 S
Tb1092 O1143 2.362 . S
Tb1092 O1144 2.421 . S
Tb1092 C1156 2.833 1_556 S
C1093 C1096 1.432 . S
C1093 C1097 1.414 . S
C1093 N1100 1.359 . S
C1094 C1096 1.417 1_565 S
C1094 C1098 1.432 . S
C1094 C1106 1.410 . S
C1095 C1097 1.444 1_565 S
C1095 C1098 1.317 . S
C1095 H1118 0.929 . S
C1096 C1093 1.432 . S
C1096 C1094 1.417 1_545 S
C1096 N1104 1.360 . S
C1097 C1093 1.414 . S
C1097 C1095 1.444 1_545 S
C1097 C1102 1.385 . S
C1098 C1094 1.432 . S
C1098 C1095 1.317 . S
C1098 H1110 0.930 . S
C1099 C1101 1.392 . S
C1099 C1102 1.370 . S
C1099 H1111 0.931 . S
N1100 C1093 1.359 . S
N1100 C1101 1.327 . S
N1100 Tb1103 2.600 . S
C1101 C1099 1.392 . S
C1101 N1100 1.327 . S
C1101 H1108 0.930 . S
C1102 C1097 1.385 . S
C1102 C1099 1.370 . S
C1102 H1121 0.930 1_545 S
Tb1103 N1100 2.600 . S
Tb1103 N1104 2.660 . S
Tb1103 O1137 2.362 . S
Tb1103 O1138 2.421 . S
Tb1103 O1142 2.546 . S
Tb1103 O1143 2.610 . S
Tb1103 O1145 2.320 . S
Tb1103 O1146 2.552 . S
Tb1103 O1147 2.413 . S
Tb1103 C1167 2.833 . S
N1104 C1096 1.360 . S
N1104 Tb1103 2.660 . S
N1104 C1105 1.305 . S
C1105 N1104 1.305 . S
C1105 C1107 1.421 . S
C1105 H1112 0.930 . S
C1106 C1094 1.410 . S
C1106 C1107 1.335 1_565 S
C1106 H1114 0.930 . S
C1107 C1105 1.421 . S
C1107 C1106 1.335 1_545 S
C1107 H1109 0.927 1_545 S
H1108 C1101 0.930 . S
H1109 C1107 0.927 1_565 S
H1110 C1098 0.930 . S
H1111 C1099 0.931 . S
H1112 C1105 0.930 . S
H1113 C1127 0.930 . S
H1114 C1106 0.930 . S
H1115 C1133 0.930 . S
H1116 C1124 0.930 . S
H1117 C1131 0.931 . S
H1118 C1095 0.929 . S
H1119 C1125 0.930 . S
H1120 C1158 0.930 . S
H1121 C1102 0.930 1_565 S
H1122 C1157 0.929 . S
N1123 Tb1092 2.660 . S
N1123 C1124 1.305 . S
N1123 C1128 1.360 . S
C1124 H1116 0.930 . S
C1124 N1123 1.305 . S
C1124 C1127 1.407 . S
C1125 H1119 0.930 . S
C1125 C1126 1.410 1_556 S
C1125 C1127 1.345 . S
C1126 C1125 1.410 1_554 S
C1126 C1128 1.417 1_554 S
C1126 C1158 1.432 . S
C1127 H1113 0.930 . S
C1127 C1124 1.407 . S
C1127 C1125 1.345 . S
C1128 N1123 1.360 . S
C1128 C1126 1.417 1_556 S
C1128 C1132 1.432 1_556 S
H1129 C1134 0.930 . S
N1130 Tb1092 2.600 . S
N1130 C1132 1.359 1_556 S
N1130 C1133 1.327 . S
C1131 H1117 0.931 . S
C1131 C1133 1.392 1_554 S
C1131 C1134 1.370 . S
C1132 C1128 1.432 1_554 S
C1132 N1130 1.359 1_554 S
C1132 C1135 1.414 . S
C1133 H1115 0.930 . S
C1133 N1130 1.327 . S
C1133 C1131 1.392 1_556 S
C1134 H1129 0.930 . S
C1134 C1131 1.370 . S
C1134 C1135 1.385 . S
C1135 C1132 1.414 . S
C1135 C1134 1.385 . S
C1135 C1157 1.444 . S
O1136 Tb1092 2.546 1_554 S
O1136 C1156 1.251 . S
O1137 Tb1092 2.610 . S
O1137 Tb1103 2.362 . S
O1137 C1148 1.283 . S
O1138 Tb1103 2.421 . S
O1138 C1155 1.262 . S
O1139 Tb1092 2.320 . S
O1139 C1155 1.260 . S
O1140 Tb1092 2.552 . S
O1140 C1148 1.243 . S
O1141 Tb1092 2.413 1_554 S
O1141 C1156 1.256 . S
O1142 Tb1103 2.546 . S
O1142 C1167 1.251 . S
O1143 Tb1092 2.362 . S
O1143 Tb1103 2.610 . S
O1143 C1159 1.283 . S
O1144 Tb1092 2.421 . S
O1144 C1166 1.262 . S
O1145 Tb1103 2.320 . S
O1145 C1166 1.260 . S
O1146 Tb1103 2.552 . S
O1146 C1159 1.243 . S
O1147 Tb1103 2.413 . S
O1147 C1167 1.256 . S
C1148 O1137 1.283 . S
C1148 O1140 1.243 . S
C1149 C1151 1.382 . S
C1149 C1153 1.393 . S
C1149 C1156 1.500 . S
C1150 C1151 1.400 . S
C1150 C1152 1.384 . S
C1151 C1149 1.382 . S
C1151 C1150 1.400 . S
C1151 H1168 0.930 . S
C1152 C1150 1.384 . S
C1152 C1154 1.392 . S
C1152 H1169 0.931 . S
C1153 C1149 1.393 . S
C1153 C1154 1.401 . S
C1153 H1170 0.930 . S
C1154 C1152 1.392 . S
C1154 C1153 1.401 . S
C1154 H1171 0.930 . S
C1155 O1138 1.262 . S
C1155 O1139 1.260 . S
C1156 Tb1092 2.833 1_554 S
C1156 O1136 1.251 . S
C1156 O1141 1.256 . S
C1156 C1149 1.500 . S
C1157 H1122 0.929 . S
C1157 C1135 1.444 . S
C1157 C1158 1.317 . S
C1158 H1120 0.930 . S
C1158 C1126 1.432 . S
C1158 C1157 1.317 . S
C1159 O1143 1.283 . S
C1159 O1146 1.243 . S
C1160 C1161 1.382 . S
C1160 C1164 1.393 . S
C1160 C1167 1.500 . S
C1161 C1160 1.382 . S
C1161 C1162 1.400 . S
C1161 H1172 0.930 . S
C1162 C1161 1.400 . S
C1162 C1163 1.384 . S
C1163 C1162 1.384 . S
C1163 C1165 1.392 . S
C1163 H1173 0.931 . S
C1164 C1160 1.393 . S
C1164 C1165 1.401 . S
C1164 H1174 0.930 . S
C1165 C1163 1.392 . S
C1165 C1164 1.401 . S
C1165 H1175 0.930 . S
C1166 O1144 1.262 . S
C1166 O1145 1.260 . S
C1167 Tb1103 2.833 . S
C1167 O1142 1.251 . S
C1167 O1147 1.256 . S
C1167 C1160 1.500 . S
H1168 C1151 0.930 . S
H1169 C1152 0.931 . S
H1170 C1153 0.930 . S
H1171 C1154 0.930 . S
H1172 C1161 0.930 . S
H1173 C1163 0.931 . S
H1174 C1164 0.930 . S
H1175 C1165 0.930 . S
Tb1176 N1207 2.660 . S
Tb1176 N1214 2.600 . S
Tb1176 O1220 2.546 . S
Tb1176 O1221 2.610 . S
Tb1176 O1223 2.320 . S
Tb1176 O1224 2.552 . S
Tb1176 O1225 2.413 . S
Tb1176 O1227 2.362 . S
Tb1176 O1228 2.421 . S
Tb1176 C1240 2.833 . S
C1177 C1180 1.432 . S
C1177 C1181 1.414 . S
C1177 N1184 1.359 . S
C1178 C1180 1.417 . S
C1178 C1182 1.432 . S
C1178 C1190 1.410 . S
C1179 C1181 1.444 . S
C1179 C1182 1.317 . S
C1179 H1202 0.929 . S
C1180 C1177 1.432 . S
C1180 C1178 1.417 . S
C1180 N1188 1.360 . S
C1181 C1177 1.414 . S
C1181 C1179 1.444 . S
C1181 C1186 1.385 . S
C1182 C1178 1.432 . S
C1182 C1179 1.317 . S
C1182 H1194 0.930 . S
C1183 C1185 1.392 . S
C1183 C1186 1.370 . S
C1183 H1195 0.931 . S
N1184 C1177 1.359 . S
N1184 C1185 1.327 . S
N1184 Tb1187 2.600 . S
C1185 C1183 1.392 . S
C1185 N1184 1.327 . S
C1185 H1192 0.930 . S
C1186 C1181 1.385 . S
C1186 C1183 1.370 . S
C1186 H1205 0.930 . S
Tb1187 N1184 2.600 . S
Tb1187 N1188 2.660 . S
Tb1187 O1221 2.362 . S
Tb1187 O1222 2.421 . S
Tb1187 O1226 2.546 . S
Tb1187 O1227 2.610 . S
Tb1187 O1229 2.320 . S
Tb1187 O1230 2.552 . S
Tb1187 O1231 2.413 . S
Tb1187 C1251 2.833 . S
N1188 C1180 1.360 . S
N1188 Tb1187 2.660 . S
N1188 C1189 1.305 . S
C1189 N1188 1.305 . S
C1189 C1191 1.407 . S
C1189 H1196 0.930 . S
C1190 C1178 1.410 . S
C1190 C1191 1.345 . S
C1190 H1198 0.930 . S
C1191 C1189 1.407 . S
C1191 C1190 1.345 . S
C1191 H1193 0.930 . S
H1192 C1185 0.930 . S
H1193 C1191 0.930 . S
H1194 C1182 0.930 . S
H1195 C1183 0.931 . S
H1196 C1189 0.930 . S
H1197 C1211 0.930 . S
H1198 C1190 0.930 . S
H1199 C1217 0.930 . S
H1200 C1208 0.930 . S
H1201 C1215 0.931 . S
H1202 C1179 0.929 . S
H1203 C1209 0.930 . S
H1204 C1242 0.930 . S
H1205 C1186 0.930 . S
H1206 C1241 0.929 . S
N1207 Tb1176 2.660 . S
N1207 C1208 1.305 . S
N1207 C1212 1.360 . S
C1208 H1200 0.930 . S
C1208 N1207 1.305 . S
C1208 C1211 1.407 . S
C1209 H1203 0.930 . S
C1209 C1210 1.410 . S
C1209 C1211 1.345 . S
C1210 C1209 1.410 . S
C1210 C1212 1.417 . S
C1210 C1242 1.432 . S
C1211 H1197 0.930 . S
C1211 C1208 1.407 . S
C1211 C1209 1.345 . S
C1212 N1207 1.360 . S
C1212 C1210 1.417 . S
C1212 C1216 1.432 . S
H1213 C1218 0.930 . S
N1214 Tb1176 2.600 . S
N1214 C1216 1.359 . S
N1214 C1217 1.327 . S
C1215 H1201 0.931 . S
C1215 C1217 1.392 . S
C1215 C1218 1.370 . S
C1216 C1212 1.432 . S
C1216 N1214 1.359 . S
C1216 C1219 1.414 . S
C1217 H1199 0.930 . S
C1217 N1214 1.327 . S
C1217 C1215 1.392 . S
C1218 H1213 0.930 . S
C1218 C1215 1.370 . S
C1218 C1219 1.385 . S
C1219 C1216 1.414 . S
C1219 C1218 1.385 . S
C1219 C1241 1.444 . S
O1220 Tb1176 2.546 . S
O1220 C1240 1.251 . S
O1221 Tb1176 2.610 . S
O1221 Tb1187 2.362 . S
O1221 C1232 1.283 . S
O1222 Tb1187 2.421 . S
O1222 C1239 1.262 . S
O1223 Tb1176 2.320 . S
O1223 C1239 1.260 . S
O1224 Tb1176 2.552 . S
O1224 C1232 1.243 . S
O1225 Tb1176 2.413 . S
O1225 C1240 1.256 . S
O1226 Tb1187 2.546 . S
O1226 C1251 1.251 . S
O1227 Tb1176 2.362 . S
O1227 Tb1187 2.610 . S
O1227 C1243 1.283 . S
O1228 Tb1176 2.421 . S
O1228 C1250 1.262 . S
O1229 Tb1187 2.320 . S
O1229 C1250 1.260 . S
O1230 Tb1187 2.552 . S
O1230 C1243 1.243 . S
O1231 Tb1187 2.413 . S
O1231 C1251 1.256 . S
C1232 O1221 1.283 . S
C1232 O1224 1.243 . S
C1233 C1235 1.382 . S
C1233 C1237 1.393 . S
C1233 C1240 1.500 . S
C1234 C1235 1.400 . S
C1234 C1236 1.384 . S
C1235 C1233 1.382 . S
C1235 C1234 1.400 . S
C1235 H1252 0.930 . S
C1236 C1234 1.384 . S
C1236 C1238 1.392 . S
C1236 H1253 0.931 . S
C1237 C1233 1.393 . S
C1237 C1238 1.401 . S
C1237 H1254 0.930 . S
C1238 C1236 1.392 . S
C1238 C1237 1.401 . S
C1238 H1255 0.930 . S
C1239 O1222 1.262 . S
C1239 O1223 1.260 . S
C1240 Tb1176 2.833 . S
C1240 O1220 1.251 . S
C1240 O1225 1.256 . S
C1240 C1233 1.500 . S
C1241 H1206 0.929 . S
C1241 C1219 1.444 . S
C1241 C1242 1.317 . S
C1242 H1204 0.930 . S
C1242 C1210 1.432 . S
C1242 C1241 1.317 . S
C1243 O1227 1.283 . S
C1243 O1230 1.243 . S
C1244 C1245 1.382 . S
C1244 C1248 1.393 . S
C1244 C1251 1.500 . S
C1245 C1244 1.382 . S
C1245 C1246 1.397 1_556 S
C1245 H1256 0.930 . S
C1246 C1245 1.397 1_554 S
C1246 C1247 1.386 . S
C1247 C1246 1.386 . S
C1247 C1249 1.392 . S
C1247 H1257 0.931 . S
C1248 C1244 1.393 . S
C1248 C1249 1.401 1_556 S
C1248 H1258 0.930 . S
C1249 C1247 1.392 . S
C1249 C1248 1.401 1_554 S
C1249 H1259 0.930 . S
C1250 O1228 1.262 . S
C1250 O1229 1.260 . S
C1251 Tb1187 2.833 . S
C1251 O1226 1.251 . S
C1251 O1231 1.256 . S
C1251 C1244 1.500 . S
H1252 C1235 0.930 . S
H1253 C1236 0.931 . S
H1254 C1237 0.930 . S
H1255 C1238 0.930 . S
H1256 C1245 0.930 . S
H1257 C1247 0.931 . S
H1258 C1248 0.930 . S
H1259 C1249 0.930 . S
Tb1260 N1291 2.660 . S
Tb1260 N1298 2.600 . S
Tb1260 O1304 2.546 . S
Tb1260 O1305 2.610 . S
Tb1260 O1307 2.320 . S
Tb1260 O1308 2.552 . S
Tb1260 O1309 2.413 . S
Tb1260 O1311 2.362 . S
Tb1260 O1312 2.421 . S
Tb1260 C1324 2.833 . S
C1261 C1264 1.432 . S
C1261 C1265 1.414 . S
C1261 N1268 1.359 . S
C1262 C1264 1.417 1_545 S
C1262 C1266 1.432 . S
C1262 C1274 1.410 . S
C1263 C1265 1.444 1_545 S
C1263 C1266 1.317 . S
C1263 H1286 0.929 . S
C1264 C1261 1.432 . S
C1264 C1262 1.417 1_565 S
C1264 N1272 1.360 . S
C1265 C1261 1.414 . S
C1265 C1263 1.444 1_565 S
C1265 C1270 1.385 . S
C1266 C1262 1.432 . S
C1266 C1263 1.317 . S
C1266 H1278 0.930 . S
C1267 C1269 1.392 . S
C1267 C1270 1.370 . S
C1267 H1279 0.931 . S
N1268 C1261 1.359 . S
N1268 C1269 1.327 . S
N1268 Tb1271 2.600 . S
C1269 C1267 1.392 . S
C1269 N1268 1.327 . S
C1269 H1276 0.930 . S
C1270 C1265 1.385 . S
C1270 C1267 1.370 . S
C1270 H1289 0.930 . S
Tb1271 N1268 2.600 . S
Tb1271 N1272 2.660 . S
Tb1271 O1305 2.362 . S
Tb1271 O1306 2.421 . S
Tb1271 O1310 2.546 . S
Tb1271 O1311 2.610 . S
Tb1271 O1313 2.320 . S
Tb1271 O1314 2.552 . S
Tb1271 O1315 2.413 . S
Tb1271 C1335 2.833 . S
N1272 C1264 1.360 . S
N1272 Tb1271 2.660 . S
N1272 C1273 1.305 . S
C1273 N1272 1.305 . S
C1273 C1275 1.407 . S
C1273 H1280 0.930 . S
C1274 C1262 1.410 . S
C1274 C1275 1.345 1_545 S
C1274 H1282 0.930 . S
C1275 C1273 1.407 . S
C1275 C1274 1.345 1_565 S
C1275 H1277 0.930 . S
H1276 C1269 0.930 . S
H1277 C1275 0.930 . S
H1278 C1266 0.930 . S
H1279 C1267 0.931 . S
H1280 C1273 0.930 . S
H1281 C1295 0.930 . S
H1282 C1274 0.930 . S
H1283 C1301 0.930 . S
H1284 C1292 0.930 . S
H1285 C1299 0.931 . S
H1286 C1263 0.929 . S
H1287 C1293 0.930 . S
H1288 C1326 0.930 . S
H1289 C1270 0.930 . S
H1290 C1325 0.929 . S
N1291 Tb1260 2.660 . S
N1291 C1292 1.305 . S
N1291 C1296 1.360 . S
C1292 H1284 0.930 . S
C1292 N1291 1.305 . S
C1292 C1295 1.407 . S
C1293 H1287 0.930 . S
C1293 C1294 1.410 . S
C1293 C1295 1.345 . S
C1294 C1293 1.410 . S
C1294 C1296 1.417 . S
C1294 C1326 1.432 . S
C1295 H1281 0.930 . S
C1295 C1292 1.407 . S
C1295 C1293 1.345 . S
C1296 N1291 1.360 . S
C1296 C1294 1.417 . S
C1296 C1300 1.432 . S
H1297 C1302 0.930 . S
N1298 Tb1260 2.600 . S
N1298 C1300 1.359 . S
N1298 C1301 1.327 . S
C1299 H1285 0.931 . S
C1299 C1301 1.392 . S
C1299 C1302 1.370 . S
C1300 C1296 1.432 . S
C1300 N1298 1.359 . S
C1300 C1303 1.414 . S
C1301 H1283 0.930 . S
C1301 N1298 1.327 . S
C1301 C1299 1.392 . S
C1302 H1297 0.930 . S
C1302 C1299 1.370 . S
C1302 C1303 1.385 . S
C1303 C1300 1.414 . S
C1303 C1302 1.385 . S
C1303 C1325 1.444 . S
O1304 Tb1260 2.546 . S
O1304 C1324 1.251 . S
O1305 Tb1260 2.610 . S
O1305 Tb1271 2.362 . S
O1305 C1316 1.283 . S
O1306 Tb1271 2.421 . S
O1306 C1323 1.262 . S
O1307 Tb1260 2.320 . S
O1307 C1323 1.260 . S
O1308 Tb1260 2.552 . S
O1308 C1316 1.243 . S
O1309 Tb1260 2.413 . S
O1309 C1324 1.256 . S
O1310 Tb1271 2.546 . S
O1310 C1335 1.251 . S
O1311 Tb1260 2.362 . S
O1311 Tb1271 2.610 . S
O1311 C1327 1.283 . S
O1312 Tb1260 2.421 . S
O1312 C1334 1.262 . S
O1313 Tb1271 2.320 . S
O1313 C1334 1.260 . S
O1314 Tb1271 2.552 . S
O1314 C1327 1.243 . S
O1315 Tb1271 2.413 . S
O1315 C1335 1.256 . S
C1316 O1305 1.283 . S
C1316 O1308 1.243 . S
C1317 C1319 1.382 . S
C1317 C1321 1.393 . S
C1317 C1324 1.500 . S
C1318 C1319 1.400 . S
C1318 C1320 1.384 . S
C1319 C1317 1.382 . S
C1319 C1318 1.400 . S
C1319 H1336 0.930 . S
C1320 C1318 1.384 . S
C1320 C1322 1.392 . S
C1320 H1337 0.931 . S
C1321 C1317 1.393 . S
C1321 C1322 1.401 . S
C1321 H1338 0.930 . S
C1322 C1320 1.392 . S
C1322 C1321 1.401 . S
C1322 H1339 0.930 . S
C1323 O1306 1.262 . S
C1323 O1307 1.260 . S
C1324 Tb1260 2.833 . S
C1324 O1304 1.251 . S
C1324 O1309 1.256 . S
C1324 C1317 1.500 . S
C1325 H1290 0.929 . S
C1325 C1303 1.444 . S
C1325 C1326 1.317 . S
C1326 H1288 0.930 . S
C1326 C1294 1.432 . S
C1326 C1325 1.317 . S
C1327 O1311 1.283 . S
C1327 O1314 1.243 . S
C1328 C1329 1.382 . S
C1328 C1332 1.393 . S
C1328 C1335 1.500 . S
C1329 C1328 1.382 . S
C1329 C1330 1.400 1_554 S
C1329 H1340 0.930 . S
C1330 C1329 1.400 1_556 S
C1330 C1331 1.384 . S
C1331 C1330 1.384 . S
C1331 C1333 1.392 . S
C1331 H1341 0.931 . S
C1332 C1328 1.393 . S
C1332 C1333 1.401 1_554 S
C1332 H1342 0.930 . S
C1333 C1331 1.392 . S
C1333 C1332 1.401 1_556 S
C1333 H1343 0.930 . S
C1334 O1312 1.262 . S
C1334 O1313 1.260 . S
C1335 Tb1271 2.833 . S
C1335 O1310 1.251 . S
C1335 O1315 1.256 . S
C1335 C1328 1.500 . S
H1336 C1319 0.930 . S
H1337 C1320 0.931 . S
H1338 C1321 0.930 . S
H1339 C1322 0.930 . S
H1340 C1329 0.930 . S
H1341 C1331 0.931 . S
H1342 C1332 0.930 . S
H1343 C1333 0.930 . S
C1344 C1345 1.387 . S
C1344 H1348 0.950 . S
C1344 C1353 1.390 . S
C1345 C1344 1.387 . S
C1345 C1347 1.387 . S
H1346 C1353 0.950 . S
C1347 C1345 1.387 . S
C1347 C1349 1.390 . S
C1347 H1351 0.950 . S
H1348 C1344 0.950 . S
C1349 C1347 1.390 . S
C1349 C1350 1.387 . S
C1349 H1352 0.950 . S
C1350 C1349 1.387 . S
C1350 C1353 1.387 . S
H1351 C1347 0.950 . S
H1352 C1349 0.950 . S
C1353 C1344 1.390 . S
C1353 H1346 0.950 . S
C1353 C1350 1.387 . S
C1354 C1355 1.387 . S
C1354 H1358 0.950 . S
C1354 C1363 1.390 . S
C1355 C1354 1.387 . S
C1355 C1357 1.387 . S
H1356 C1363 0.950 . S
C1357 C1355 1.387 . S
C1357 C1359 1.390 . S
C1357 H1361 0.950 . S
H1358 C1354 0.950 . S
C1359 C1357 1.390 . S
C1359 C1360 1.387 . S
C1359 H1362 0.950 . S
C1360 C1359 1.387 . S
C1360 C1363 1.387 . S
H1361 C1357 0.950 . S
H1362 C1359 0.950 . S
C1363 C1354 1.390 . S
C1363 H1356 0.950 . S
C1363 C1360 1.387 . S
C1364 C1365 1.387 . S
C1364 H1368 0.950 . S
C1364 C1373 1.390 . S
C1365 C1364 1.387 . S
C1365 C1367 1.387 . S
H1366 C1373 0.950 . S
C1367 C1365 1.387 . S
C1367 C1369 1.390 . S
C1367 H1371 0.950 . S
H1368 C1364 0.950 . S
C1369 C1367 1.390 . S
C1369 C1370 1.387 . S
C1369 H1372 0.950 . S
C1370 C1369 1.387 . S
C1370 C1373 1.387 . S
H1371 C1367 0.950 . S
H1372 C1369 0.950 . S
C1373 C1364 1.390 . S
C1373 H1366 0.950 . S
C1373 C1370 1.387 . S
C1374 C1375 1.387 . S
C1374 H1378 0.950 . S
C1374 C1383 1.390 . S
C1375 C1374 1.387 . S
C1375 C1377 1.387 . S
H1376 C1383 0.950 . S
C1377 C1375 1.387 . S
C1377 C1379 1.390 . S
C1377 H1381 0.950 . S
H1378 C1374 0.950 . S
C1379 C1377 1.390 . S
C1379 C1380 1.387 . S
C1379 H1382 0.950 . S
C1380 C1379 1.387 . S
C1380 C1383 1.387 . S
H1381 C1377 0.950 . S
H1382 C1379 0.950 . S
C1383 C1374 1.390 . S
C1383 H1376 0.950 . S
C1383 C1380 1.387 . S
C1384 C1385 1.387 . S
C1384 H1388 0.950 . S
C1384 C1393 1.390 . S
C1385 C1384 1.387 . S
C1385 C1387 1.387 . S
H1386 C1393 0.950 . S
C1387 C1385 1.387 . S
C1387 C1389 1.390 . S
C1387 H1391 0.950 . S
H1388 C1384 0.950 . S
C1389 C1387 1.390 . S
C1389 C1390 1.387 . S
C1389 H1392 0.950 . S
C1390 C1389 1.387 . S
C1390 C1393 1.387 . S
H1391 C1387 0.950 . S
H1392 C1389 0.950 . S
C1393 C1384 1.390 . S
C1393 H1386 0.950 . S
C1393 C1390 1.387 . S
C1394 C1395 1.387 . S
C1394 H1398 0.950 . S
C1394 C1403 1.390 . S
C1395 C1394 1.387 . S
C1395 C1397 1.387 . S
H1396 C1403 0.950 . S
C1397 C1395 1.387 . S
C1397 C1399 1.390 . S
C1397 H1401 0.950 . S
H1398 C1394 0.950 . S
C1399 C1397 1.390 . S
C1399 C1400 1.387 . S
C1399 H1402 0.950 . S
C1400 C1399 1.387 . S
C1400 C1403 1.387 . S
H1401 C1397 0.950 . S
H1402 C1399 0.950 . S
C1403 C1394 1.390 . S
C1403 H1396 0.950 . S
C1403 C1400 1.387 . S
C1404 C1405 1.387 . S
C1404 H1408 0.950 . S
C1404 C1413 1.390 . S
C1405 C1404 1.387 . S
C1405 C1407 1.387 . S
H1406 C1413 0.950 . S
C1407 C1405 1.387 . S
C1407 C1409 1.390 . S
C1407 H1411 0.950 . S
H1408 C1404 0.950 . S
C1409 C1407 1.390 . S
C1409 C1410 1.387 . S
C1409 H1412 0.950 . S
C1410 C1409 1.387 . S
C1410 C1413 1.387 . S
H1411 C1407 0.950 . S
H1412 C1409 0.950 . S
C1413 C1404 1.390 . S
C1413 H1406 0.950 . S
C1413 C1410 1.387 . S
C1414 C1415 1.387 . S
C1414 H1418 0.950 . S
C1414 C1423 1.390 . S
C1415 C1414 1.387 . S
C1415 C1417 1.387 . S
H1416 C1423 0.950 . S
C1417 C1415 1.387 . S
C1417 C1419 1.390 . S
C1417 H1421 0.950 . S
H1418 C1414 0.950 . S
C1419 C1417 1.390 . S
C1419 C1420 1.387 . S
C1419 H1422 0.950 . S
C1420 C1419 1.387 . S
C1420 C1423 1.387 . S
H1421 C1417 0.950 . S
H1422 C1419 0.950 . S
C1423 C1414 1.390 . S
C1423 H1416 0.950 . S
C1423 C1420 1.387 . S
C1424 C1425 1.387 . S
C1424 H1428 0.950 . S
C1424 C1433 1.390 . S
C1425 C1424 1.387 . S
C1425 C1427 1.387 . S
H1426 C1433 0.950 . S
C1427 C1425 1.387 . S
C1427 C1429 1.390 . S
C1427 H1431 0.950 . S
H1428 C1424 0.950 . S
C1429 C1427 1.390 . S
C1429 C1430 1.387 . S
C1429 H1432 0.950 . S
C1430 C1429 1.387 . S
C1430 C1433 1.387 . S
H1431 C1427 0.950 . S
H1432 C1429 0.950 . S
C1433 C1424 1.390 . S
C1433 H1426 0.950 . S
C1433 C1430 1.387 . S
C1434 C1435 1.387 . S
C1434 H1438 0.950 . S
C1434 C1443 1.390 . S
C1435 C1434 1.387 . S
C1435 C1437 1.387 . S
H1436 C1443 0.950 . S
C1437 C1435 1.387 . S
C1437 C1439 1.390 . S
C1437 H1441 0.950 . S
H1438 C1434 0.950 . S
C1439 C1437 1.390 . S
C1439 C1440 1.387 . S
C1439 H1442 0.950 . S
C1440 C1439 1.387 . S
C1440 C1443 1.387 . S
H1441 C1437 0.950 . S
H1442 C1439 0.950 . S
C1443 C1434 1.390 . S
C1443 H1436 0.950 . S
C1443 C1440 1.387 . S
C1444 C1445 1.387 . S
C1444 H1448 0.950 . S
C1444 C1453 1.390 . S
C1445 C1444 1.387 . S
C1445 C1447 1.387 . S
H1446 C1453 0.950 . S
C1447 C1445 1.387 . S
C1447 C1449 1.390 . S
C1447 H1451 0.950 . S
H1448 C1444 0.950 . S
C1449 C1447 1.390 . S
C1449 C1450 1.387 . S
C1449 H1452 0.950 . S
C1450 C1449 1.387 . S
C1450 C1453 1.387 . S
H1451 C1447 0.950 . S
H1452 C1449 0.950 . S
C1453 C1444 1.390 . S
C1453 H1446 0.950 . S
C1453 C1450 1.387 . S
C1454 C1455 1.387 . S
C1454 H1458 0.950 . S
C1454 C1463 1.390 . S
C1455 C1454 1.387 . S
C1455 C1457 1.387 . S
H1456 C1463 0.950 . S
C1457 C1455 1.387 . S
C1457 C1459 1.390 . S
C1457 H1461 0.950 . S
H1458 C1454 0.950 . S
C1459 C1457 1.390 . S
C1459 C1460 1.387 . S
C1459 H1462 0.950 . S
C1460 C1459 1.387 . S
C1460 C1463 1.387 . S
H1461 C1457 0.950 . S
H1462 C1459 0.950 . S
C1463 C1454 1.390 . S
C1463 H1456 0.950 . S
C1463 C1460 1.387 . S
C1464 C1465 1.387 . S
C1464 H1468 0.950 . S
C1464 C1473 1.390 . S
C1465 C1464 1.387 . S
C1465 C1467 1.387 . S
H1466 C1473 0.950 . S
C1467 C1465 1.387 . S
C1467 C1469 1.390 . S
C1467 H1471 0.950 . S
H1468 C1464 0.950 . S
C1469 C1467 1.390 . S
C1469 C1470 1.387 . S
C1469 H1472 0.950 . S
C1470 C1469 1.387 . S
C1470 C1473 1.387 . S
H1471 C1467 0.950 . S
H1472 C1469 0.950 . S
C1473 C1464 1.390 . S
C1473 H1466 0.950 . S
C1473 C1470 1.387 . S
C1474 C1475 1.387 . S
C1474 H1478 0.950 . S
C1474 C1483 1.390 . S
C1475 C1474 1.387 . S
C1475 C1477 1.387 . S
H1476 C1483 0.950 . S
C1477 C1475 1.387 . S
C1477 C1479 1.390 . S
C1477 H1481 0.950 . S
H1478 C1474 0.950 . S
C1479 C1477 1.390 . S
C1479 C1480 1.387 . S
C1479 H1482 0.950 . S
C1480 C1479 1.387 . S
C1480 C1483 1.387 . S
H1481 C1477 0.950 . S
H1482 C1479 0.950 . S
C1483 C1474 1.390 . S
C1483 H1476 0.950 . S
C1483 C1480 1.387 . S
C1484 C1485 1.387 . S
C1484 H1488 0.950 . S
C1484 C1493 1.390 . S
C1485 C1484 1.387 . S
C1485 C1487 1.387 . S
H1486 C1493 0.950 . S
C1487 C1485 1.387 . S
C1487 C1489 1.390 . S
C1487 H1491 0.950 . S
H1488 C1484 0.950 . S
C1489 C1487 1.390 . S
C1489 C1490 1.387 . S
C1489 H1492 0.950 . S
C1490 C1489 1.387 . S
C1490 C1493 1.387 . S
H1491 C1487 0.950 . S
H1492 C1489 0.950 . S
C1493 C1484 1.390 . S
C1493 H1486 0.950 . S
C1493 C1490 1.387 . S
C1494 C1495 1.387 . S
C1494 H1498 0.950 . S
C1494 C1503 1.390 . S
C1495 C1494 1.387 . S
C1495 C1497 1.387 . S
H1496 C1503 0.950 . S
C1497 C1495 1.387 . S
C1497 C1499 1.390 . S
C1497 H1501 0.950 . S
H1498 C1494 0.950 . S
C1499 C1497 1.390 . S
C1499 C1500 1.387 . S
C1499 H1502 0.950 . S
C1500 C1499 1.387 . S
C1500 C1503 1.387 . S
H1501 C1497 0.950 . S
H1502 C1499 0.950 . S
C1503 C1494 1.390 . S
C1503 H1496 0.950 . S
C1503 C1500 1.387 . S
C1504 C1505 1.387 . S
C1504 H1508 0.950 . S
C1504 C1513 1.390 . S
C1505 C1504 1.387 . S
C1505 C1507 1.387 . S
H1506 C1513 0.950 . S
C1507 C1505 1.387 . S
C1507 C1509 1.390 . S
C1507 H1511 0.950 . S
H1508 C1504 0.950 . S
C1509 C1507 1.390 . S
C1509 C1510 1.387 . S
C1509 H1512 0.950 . S
C1510 C1509 1.387 . S
C1510 C1513 1.387 . S
H1511 C1507 0.950 . S
H1512 C1509 0.950 . S
C1513 C1504 1.390 . S
C1513 H1506 0.950 . S
C1513 C1510 1.387 . S
C1514 C1515 1.387 . S
C1514 H1518 0.950 . S
C1514 C1523 1.390 . S
C1515 C1514 1.387 . S
C1515 C1517 1.387 . S
H1516 C1523 0.950 . S
C1517 C1515 1.387 . S
C1517 C1519 1.390 . S
C1517 H1521 0.950 . S
H1518 C1514 0.950 . S
C1519 C1517 1.390 . S
C1519 C1520 1.387 . S
C1519 H1522 0.950 . S
C1520 C1519 1.387 . S
C1520 C1523 1.387 . S
H1521 C1517 0.950 . S
H1522 C1519 0.950 . S
C1523 C1514 1.390 . S
C1523 H1516 0.950 . S
C1523 C1520 1.387 . S
C1524 C1525 1.387 . S
C1524 H1528 0.950 . S
C1524 C1533 1.390 . S
C1525 C1524 1.387 . S
C1525 C1527 1.387 . S
H1526 C1533 0.950 . S
C1527 C1525 1.387 . S
C1527 C1529 1.390 . S
C1527 H1531 0.950 . S
H1528 C1524 0.950 . S
C1529 C1527 1.390 . S
C1529 C1530 1.387 . S
C1529 H1532 0.950 . S
C1530 C1529 1.387 . S
C1530 C1533 1.387 . S
H1531 C1527 0.950 . S
H1532 C1529 0.950 . S
C1533 C1524 1.390 . S
C1533 H1526 0.950 . S
C1533 C1530 1.387 . S
C1534 C1535 1.387 . S
C1534 H1538 0.950 1_556 S
C1534 C1543 1.390 1_655 S
C1535 C1534 1.387 . S
C1535 C1537 1.387 . S
H1536 C1543 0.950 1_554 S
C1537 C1535 1.387 . S
C1537 C1539 1.390 1_655 S
C1537 H1541 0.950 . S
H1538 C1534 0.950 1_554 S
C1539 C1537 1.390 1_455 S
C1539 C1540 1.387 . S
C1539 H1542 0.950 . S
C1540 C1539 1.387 . S
C1540 C1543 1.387 . S
H1541 C1537 0.950 . S
H1542 C1539 0.950 . S
C1543 C1534 1.390 1_455 S
C1543 H1536 0.950 1_556 S
C1543 C1540 1.387 . S
C1544 C1545 1.387 . S
C1544 H1548 0.950 . S
C1544 C1553 1.390 . S
C1545 C1544 1.387 . S
C1545 C1547 1.387 . S
H1546 C1553 0.950 . S
C1547 C1545 1.387 . S
C1547 C1549 1.390 . S
C1547 H1551 0.950 . S
H1548 C1544 0.950 . S
C1549 C1547 1.390 . S
C1549 C1550 1.387 . S
C1549 H1552 0.950 . S
C1550 C1549 1.387 . S
C1550 C1553 1.387 . S
H1551 C1547 0.950 . S
H1552 C1549 0.950 . S
C1553 C1544 1.390 . S
C1553 H1546 0.950 . S
C1553 C1550 1.387 . S
C1554 C1555 1.387 . S
C1554 H1558 0.950 1_554 S
C1554 C1563 1.390 1_455 S
C1555 C1554 1.387 . S
C1555 C1557 1.387 . S
H1556 C1563 0.950 1_556 S
C1557 C1555 1.387 . S
C1557 C1559 1.390 1_455 S
C1557 H1561 0.950 . S
H1558 C1554 0.950 1_556 S
C1559 C1557 1.390 1_655 S
C1559 C1560 1.387 . S
C1559 H1562 0.950 . S
C1560 C1559 1.387 . S
C1560 C1563 1.387 . S
H1561 C1557 0.950 . S
H1562 C1559 0.950 . S
C1563 C1554 1.390 1_655 S
C1563 H1556 0.950 1_554 S
C1563 C1560 1.387 . S
C1564 C1565 1.387 . S
C1564 H1568 0.950 . S
C1564 C1573 1.390 . S
C1565 C1564 1.387 . S
C1565 C1567 1.387 . S
H1566 C1573 0.950 . S
C1567 C1565 1.387 . S
C1567 C1569 1.390 . S
C1567 H1571 0.950 . S
H1568 C1564 0.950 . S
C1569 C1567 1.390 . S
C1569 C1570 1.387 . S
C1569 H1572 0.950 . S
C1570 C1569 1.387 . S
C1570 C1573 1.387 . S
H1571 C1567 0.950 . S
H1572 C1569 0.950 . S
C1573 C1564 1.390 . S
C1573 H1566 0.950 . S
C1573 C1570 1.387 . S
C1574 C1575 1.387 . S
C1574 H1578 0.950 . S
C1574 C1583 1.390 . S
C1575 C1574 1.387 . S
C1575 C1577 1.387 . S
H1576 C1583 0.950 . S
C1577 C1575 1.387 . S
C1577 C1579 1.390 . S
C1577 H1581 0.950 . S
H1578 C1574 0.950 . S
C1579 C1577 1.390 . S
C1579 C1580 1.387 . S
C1579 H1582 0.950 . S
C1580 C1579 1.387 . S
C1580 C1583 1.387 . S
H1581 C1577 0.950 . S
H1582 C1579 0.950 . S
C1583 C1574 1.390 . S
C1583 H1576 0.950 . S
C1583 C1580 1.387 . S
C1584 C1585 1.387 . S
C1584 H1588 0.950 . S
C1584 C1593 1.390 . S
C1585 C1584 1.387 . S
C1585 C1587 1.387 . S
H1586 C1593 0.950 . S
C1587 C1585 1.387 . S
C1587 C1589 1.390 . S
C1587 H1591 0.950 . S
H1588 C1584 0.950 . S
C1589 C1587 1.390 . S
C1589 C1590 1.387 . S
C1589 H1592 0.950 . S
C1590 C1589 1.387 . S
C1590 C1593 1.387 . S
H1591 C1587 0.950 . S
H1592 C1589 0.950 . S
C1593 C1584 1.390 . S
C1593 H1586 0.950 . S
C1593 C1590 1.387 . S
C1594 C1595 1.387 . S
C1594 H1598 0.950 . S
C1594 C1603 1.390 . S
C1595 C1594 1.387 . S
C1595 C1597 1.387 . S
H1596 C1603 0.950 . S
C1597 C1595 1.387 . S
C1597 C1599 1.390 . S
C1597 H1601 0.950 . S
H1598 C1594 0.950 . S
C1599 C1597 1.390 . S
C1599 C1600 1.387 . S
C1599 H1602 0.950 . S
C1600 C1599 1.387 . S
C1600 C1603 1.387 . S
H1601 C1597 0.950 . S
H1602 C1599 0.950 . S
C1603 C1594 1.390 . S
C1603 H1596 0.950 . S
C1603 C1600 1.387 . S
C1604 C1605 1.387 . S
C1604 H1608 0.950 . S
C1604 C1613 1.390 . S
C1605 C1604 1.387 . S
C1605 C1607 1.387 . S
H1606 C1613 0.950 . S
C1607 C1605 1.387 . S
C1607 C1609 1.390 . S
C1607 H1611 0.950 . S
H1608 C1604 0.950 . S
C1609 C1607 1.390 . S
C1609 C1610 1.387 . S
C1609 H1612 0.950 . S
C1610 C1609 1.387 . S
C1610 C1613 1.387 . S
H1611 C1607 0.950 . S
H1612 C1609 0.950 . S
C1613 C1604 1.390 . S
C1613 H1606 0.950 . S
C1613 C1610 1.387 . S
C1614 C1615 1.387 . S
C1614 H1618 0.950 . S
C1614 C1623 1.390 . S
C1615 C1614 1.387 . S
C1615 C1617 1.387 . S
H1616 C1623 0.950 . S
C1617 C1615 1.387 . S
C1617 C1619 1.390 . S
C1617 H1621 0.950 . S
H1618 C1614 0.950 . S
C1619 C1617 1.390 . S
C1619 C1620 1.387 . S
C1619 H1622 0.950 . S
C1620 C1619 1.387 . S
C1620 C1623 1.387 . S
H1621 C1617 0.950 . S
H1622 C1619 0.950 . S
C1623 C1614 1.390 . S
C1623 H1616 0.950 . S
C1623 C1620 1.387 . S
C1624 C1625 1.387 . S
C1624 H1628 0.950 . S
C1624 C1633 1.390 1_655 S
C1625 C1624 1.387 . S
C1625 C1627 1.387 . S
H1626 C1633 0.950 . S
C1627 C1625 1.387 . S
C1627 C1629 1.390 1_655 S
C1627 H1631 0.950 . S
H1628 C1624 0.950 . S
C1629 C1627 1.390 1_455 S
C1629 C1630 1.387 . S
C1629 H1632 0.950 . S
C1630 C1629 1.387 . S
C1630 C1633 1.387 . S
H1631 C1627 0.950 . S
H1632 C1629 0.950 . S
C1633 C1624 1.390 1_455 S
C1633 H1626 0.950 . S
C1633 C1630 1.387 . S
C1634 C1635 1.387 . S
C1634 H1638 0.950 . S
C1634 C1643 1.390 . S
C1635 C1634 1.387 . S
C1635 C1637 1.387 . S
H1636 C1643 0.950 . S
C1637 C1635 1.387 . S
C1637 C1639 1.390 . S
C1637 H1641 0.950 . S
H1638 C1634 0.950 . S
C1639 C1637 1.390 . S
C1639 C1640 1.387 . S
C1639 H1642 0.950 . S
C1640 C1639 1.387 . S
C1640 C1643 1.387 . S
H1641 C1637 0.950 . S
H1642 C1639 0.950 . S
C1643 C1634 1.390 . S
C1643 H1636 0.950 . S
C1643 C1640 1.387 . S
C1644 C1645 1.387 . S
C1644 H1648 0.950 . S
C1644 C1653 1.390 . S
C1645 C1644 1.387 . S
C1645 C1647 1.387 . S
H1646 C1653 0.950 . S
C1647 C1645 1.387 . S
C1647 C1649 1.390 . S
C1647 H1651 0.950 . S
H1648 C1644 0.950 . S
C1649 C1647 1.390 . S
C1649 C1650 1.387 . S
C1649 H1652 0.950 . S
C1650 C1649 1.387 . S
C1650 C1653 1.387 . S
H1651 C1647 0.950 . S
H1652 C1649 0.950 . S
C1653 C1644 1.390 . S
C1653 H1646 0.950 . S
C1653 C1650 1.387 . S
C1654 C1655 1.387 . S
C1654 H1658 0.950 . S
C1654 C1663 1.390 1_455 S
C1655 C1654 1.387 . S
C1655 C1657 1.387 . S
H1656 C1663 0.950 . S
C1657 C1655 1.387 . S
C1657 C1659 1.390 1_455 S
C1657 H1661 0.950 1_554 S
H1658 C1654 0.950 . S
C1659 C1657 1.390 1_655 S
C1659 C1660 1.387 . S
C1659 H1662 0.950 1_554 S
C1660 C1659 1.387 . S
C1660 C1663 1.387 . S
H1661 C1657 0.950 1_556 S
H1662 C1659 0.950 1_556 S
C1663 C1654 1.390 1_655 S
C1663 H1656 0.950 . S
C1663 C1660 1.387 . S
C1664 C1665 1.387 . S
C1664 H1668 0.950 . S
C1664 C1673 1.390 . S
C1665 C1664 1.387 . S
C1665 C1667 1.387 1_554 S
H1666 C1673 0.950 . S
C1667 C1665 1.387 1_556 S
C1667 C1669 1.390 . S
C1667 H1671 0.950 . S
H1668 C1664 0.950 . S
C1669 C1667 1.390 . S
C1669 C1670 1.387 . S
C1669 H1672 0.950 . S
C1670 C1669 1.387 . S
C1670 C1673 1.387 1_556 S
H1671 C1667 0.950 . S
H1672 C1669 0.950 . S
C1673 C1664 1.390 . S
C1673 H1666 0.950 . S
C1673 C1670 1.387 1_554 S
C1674 C1675 1.387 . S
C1674 H1678 0.950 . S
C1674 C1683 1.390 . S
C1675 C1674 1.387 . S
C1675 C1677 1.387 . S
H1676 C1683 0.950 . S
C1677 C1675 1.387 . S
C1677 C1679 1.390 . S
C1677 H1681 0.950 . S
H1678 C1674 0.950 . S
C1679 C1677 1.390 . S
C1679 C1680 1.387 . S
C1679 H1682 0.950 . S
C1680 C1679 1.387 . S
C1680 C1683 1.387 . S
H1681 C1677 0.950 . S
H1682 C1679 0.950 . S
C1683 C1674 1.390 . S
C1683 H1676 0.950 . S
C1683 C1680 1.387 . S
C1684 C1685 1.387 . S
C1684 H1688 0.950 . S
C1684 C1693 1.390 . S
C1685 C1684 1.387 . S
C1685 C1687 1.387 . S
H1686 C1693 0.950 . S
C1687 C1685 1.387 . S
C1687 C1689 1.390 . S
C1687 H1691 0.950 . S
H1688 C1684 0.950 . S
C1689 C1687 1.390 . S
C1689 C1690 1.387 . S
C1689 H1692 0.950 . S
C1690 C1689 1.387 . S
C1690 C1693 1.387 . S
H1691 C1687 0.950 . S
H1692 C1689 0.950 . S
C1693 C1684 1.390 . S
C1693 H1686 0.950 . S
C1693 C1690 1.387 . S
C1694 C1695 1.387 . S
C1694 H1698 0.950 . S
C1694 C1703 1.390 . S
C1695 C1694 1.387 . S
C1695 C1697 1.387 . S
H1696 C1703 0.950 . S
C1697 C1695 1.387 . S
C1697 C1699 1.390 . S
C1697 H1701 0.950 . S
H1698 C1694 0.950 . S
C1699 C1697 1.390 . S
C1699 C1700 1.387 . S
C1699 H1702 0.950 . S
C1700 C1699 1.387 . S
C1700 C1703 1.387 . S
H1701 C1697 0.950 . S
H1702 C1699 0.950 . S
C1703 C1694 1.390 . S
C1703 H1696 0.950 . S
C1703 C1700 1.387 . S
C1704 C1705 1.387 . S
C1704 H1708 0.950 . S
C1704 C1713 1.390 1_554 S
C1705 C1704 1.387 . S
C1705 C1707 1.387 . S
H1706 C1713 0.950 . S
C1707 C1705 1.387 . S
C1707 C1709 1.390 1_554 S
C1707 H1711 0.950 . S
H1708 C1704 0.950 . S
C1709 C1707 1.390 1_556 S
C1709 C1710 1.387 . S
C1709 H1712 0.950 . S
C1710 C1709 1.387 . S
C1710 C1713 1.387 . S
H1711 C1707 0.950 . S
H1712 C1709 0.950 . S
C1713 C1704 1.390 1_556 S
C1713 H1706 0.950 . S
C1713 C1710 1.387 . S
C1714 C1715 1.387 . S
C1714 H1718 0.950 . S
C1714 C1723 1.390 . S
C1715 C1714 1.387 . S
C1715 C1717 1.387 . S
H1716 C1723 0.950 . S
C1717 C1715 1.387 . S
C1717 C1719 1.390 . S
C1717 H1721 0.950 . S
H1718 C1714 0.950 . S
C1719 C1717 1.390 . S
C1719 C1720 1.387 . S
C1719 H1722 0.950 . S
C1720 C1719 1.387 . S
C1720 C1723 1.387 . S
H1721 C1717 0.950 . S
H1722 C1719 0.950 . S
C1723 C1714 1.390 . S
C1723 H1716 0.950 . S
C1723 C1720 1.387 . S
C1724 C1725 1.387 . S
C1724 H1728 0.950 . S
C1724 C1733 1.390 . S
C1725 C1724 1.387 . S
C1725 C1727 1.387 . S
H1726 C1733 0.950 . S
C1727 C1725 1.387 . S
C1727 C1729 1.390 . S
C1727 H1731 0.950 . S
H1728 C1724 0.950 . S
C1729 C1727 1.390 . S
C1729 C1730 1.387 . S
C1729 H1732 0.950 . S
C1730 C1729 1.387 . S
C1730 C1733 1.387 . S
H1731 C1727 0.950 . S
H1732 C1729 0.950 . S
C1733 C1724 1.390 . S
C1733 H1726 0.950 . S
C1733 C1730 1.387 . S
C1734 C1735 1.387 . S
C1734 H1738 0.950 . S
C1734 C1743 1.390 . S
C1735 C1734 1.387 . S
C1735 C1737 1.387 . S
H1736 C1743 0.950 . S
C1737 C1735 1.387 . S
C1737 C1739 1.390 . S
C1737 H1741 0.950 . S
H1738 C1734 0.950 . S
C1739 C1737 1.390 . S
C1739 C1740 1.387 . S
C1739 H1742 0.950 . S
C1740 C1739 1.387 . S
C1740 C1743 1.387 . S
H1741 C1737 0.950 . S
H1742 C1739 0.950 . S
C1743 C1734 1.390 . S
C1743 H1736 0.950 . S
C1743 C1740 1.387 . S
C1744 C1745 1.387 . S
C1744 H1748 0.950 . S
C1744 C1753 1.390 1_565 S
C1745 C1744 1.387 . S
C1745 C1747 1.387 . S
H1746 C1753 0.950 . S
C1747 C1745 1.387 . S
C1747 C1749 1.390 1_565 S
C1747 H1751 0.950 . S
H1748 C1744 0.950 . S
C1749 C1747 1.390 1_545 S
C1749 C1750 1.387 . S
C1749 H1752 0.950 . S
C1750 C1749 1.387 . S
C1750 C1753 1.387 . S
H1751 C1747 0.950 . S
H1752 C1749 0.950 . S
C1753 C1744 1.390 1_545 S
C1753 H1746 0.950 . S
C1753 C1750 1.387 . S
C1754 C1755 1.387 . S
C1754 H1758 0.950 . S
C1754 C1763 1.390 . S
C1755 C1754 1.387 . S
C1755 C1757 1.387 . S
H1756 C1763 0.950 . S
C1757 C1755 1.387 . S
C1757 C1759 1.390 . S
C1757 H1761 0.950 . S
H1758 C1754 0.950 . S
C1759 C1757 1.390 . S
C1759 C1760 1.387 . S
C1759 H1762 0.950 . S
C1760 C1759 1.387 . S
C1760 C1763 1.387 . S
H1761 C1757 0.950 . S
H1762 C1759 0.950 . S
C1763 C1754 1.390 . S
C1763 H1756 0.950 . S
C1763 C1760 1.387 . S
C1764 C1765 1.387 . S
C1764 H1768 0.950 . S
C1764 C1773 1.390 1_564 S
C1765 C1764 1.387 . S
C1765 C1767 1.387 . S
H1766 C1773 0.950 . S
C1767 C1765 1.387 . S
C1767 C1769 1.390 1_564 S
C1767 H1771 0.950 . S
H1768 C1764 0.950 . S
C1769 C1767 1.390 1_546 S
C1769 C1770 1.387 . S
C1769 H1772 0.950 . S
C1770 C1769 1.387 . S
C1770 C1773 1.387 . S
H1771 C1767 0.950 . S
H1772 C1769 0.950 . S
C1773 C1764 1.390 1_546 S
C1773 H1766 0.950 . S
C1773 C1770 1.387 . S
C1774 C1775 1.387 . S
C1774 H1778 0.950 . S
C1774 C1783 1.390 . S
C1775 C1774 1.387 . S
C1775 C1777 1.387 . S
H1776 C1783 0.950 . S
C1777 C1775 1.387 . S
C1777 C1779 1.390 . S
C1777 H1781 0.950 . S
H1778 C1774 0.950 . S
C1779 C1777 1.390 . S
C1779 C1780 1.387 . S
C1779 H1782 0.950 . S
C1780 C1779 1.387 . S
C1780 C1783 1.387 . S
H1781 C1777 0.950 . S
H1782 C1779 0.950 . S
C1783 C1774 1.390 . S
C1783 H1776 0.950 . S
C1783 C1780 1.387 . S
C1784 C1785 1.387 . S
C1784 H1788 0.950 . S
C1784 C1793 1.390 1_565 S
C1785 C1784 1.387 . S
C1785 C1787 1.387 . S
H1786 C1793 0.950 . S
C1787 C1785 1.387 . S
C1787 C1789 1.390 1_565 S
C1787 H1791 0.950 . S
H1788 C1784 0.950 . S
C1789 C1787 1.390 1_545 S
C1789 C1790 1.387 . S
C1789 H1792 0.950 . S
C1790 C1789 1.387 . S
C1790 C1793 1.387 . S
H1791 C1787 0.950 . S
H1792 C1789 0.950 . S
C1793 C1784 1.390 1_545 S
C1793 H1786 0.950 . S
C1793 C1790 1.387 . S
C1794 C1795 1.387 . S
C1794 H1798 0.950 . S
C1794 C1803 1.390 . S
C1795 C1794 1.387 . S
C1795 C1797 1.387 . S
H1796 C1803 0.950 . S
C1797 C1795 1.387 . S
C1797 C1799 1.390 . S
C1797 H1801 0.950 . S
H1798 C1794 0.950 . S
C1799 C1797 1.390 . S
C1799 C1800 1.387 . S
C1799 H1802 0.950 . S
C1800 C1799 1.387 . S
C1800 C1803 1.387 . S
H1801 C1797 0.950 . S
H1802 C1799 0.950 . S
C1803 C1794 1.390 . S
C1803 H1796 0.950 . S
C1803 C1800 1.387 . S
C1804 C1805 1.387 . S
C1804 H1808 0.950 . S
C1804 C1813 1.390 1_546 S
C1805 C1804 1.387 . S
C1805 C1807 1.387 . S
H1806 C1813 0.950 . S
C1807 C1805 1.387 . S
C1807 C1809 1.390 1_546 S
C1807 H1811 0.950 . S
H1808 C1804 0.950 . S
C1809 C1807 1.390 1_564 S
C1809 C1810 1.387 . S
C1809 H1812 0.950 . S
C1810 C1809 1.387 . S
C1810 C1813 1.387 . S
H1811 C1807 0.950 . S
H1812 C1809 0.950 . S
C1813 C1804 1.390 1_564 S
C1813 H1806 0.950 . S
C1813 C1810 1.387 . S
C1814 C1815 1.387 . S
C1814 H1818 0.950 . S
C1814 C1823 1.390 . S
C1815 C1814 1.387 . S
C1815 C1817 1.387 . S
H1816 C1823 0.950 . S
C1817 C1815 1.387 . S
C1817 C1819 1.390 . S
C1817 H1821 0.950 . S
H1818 C1814 0.950 . S
C1819 C1817 1.390 . S
C1819 C1820 1.387 . S
C1819 H1822 0.950 . S
C1820 C1819 1.387 . S
C1820 C1823 1.387 . S
H1821 C1817 0.950 . S
H1822 C1819 0.950 . S
C1823 C1814 1.390 . S
C1823 H1816 0.950 . S
C1823 C1820 1.387 . S
C1345 C58 1.383 . S
C1350 C70 1.383 . S
C1355 C154 1.357 . S
C1360 C142 1.357 . S
C1365 C226 1.344 . S
C1370 C238 1.344 . S
C1375 C310 1.346 . S
C1380 C322 1.346 . S
C1385 C394 1.367 . S
C1390 C406 1.367 . S
C1395 C478 1.357 . S
C1400 C490 1.357 . S
C1405 C574 1.358 . S
C1410 C562 1.358 . S
C1415 C658 1.379 . S
C1420 C646 1.379 . S
C1425 C742 1.377 . S
C1430 C730 1.377 . S
C1435 C826 1.358 . S
C1440 C814 1.358 . S
C1445 C910 1.350 . S
C1450 C898 1.350 . S
C1455 C994 1.352 . S
C1460 C982 1.352 . S
C1465 C1078 1.362 . S
C1470 C1066 1.362 . S
C1475 C1162 1.349 . S
C1480 C1150 1.349 . S
C1485 C1234 1.350 . S
C1490 C1246 1.353 . S
C1495 C1330 1.393 . S
C1500 C1318 1.393 . S
C1505 C74 1.737 . S
C1510 C991 1.815 . S
C1515 C140 1.797 . S
C1520 C1323 1.723 . S
C1525 C242 1.725 . S
C1530 C819 1.716 . S
C1535 C326 1.694 . S
C1540 C1155 1.700 . S
C1545 C410 1.744 . S
C1550 C1159 1.819 . S
C1555 C987 1.720 . S
C1560 C476 1.794 . S
C1565 C560 1.849 . S
C1570 C1327 1.854 . S
C1575 C644 1.836 . S
C1580 C823 1.828 . S
C1585 C308 1.769 . S
C1590 C735 1.695 . S
C1595 C158 1.731 . S
C1600 C907 1.812 . S
C1605 C1071 1.678 . S
C1610 C494 1.680 . S
C1615 C662 1.746 . S
C1620 C1243 1.822 . S
C1625 C739 1.875 . S
C1630 C392 1.876 . S
C1635 C578 1.705 . S
C1640 C903 1.705 . S
C1645 C224 1.837 . S
C1650 C1239 1.759 . S
C1655 C56 1.824 . S
C1660 C1075 1.822 . S
C1665 C63 1.634 . S
C1670 C399 1.642 . S
C1675 C151 1.544 . S
C1680 C487 1.553 . S
C1685 C231 1.716 . S
C1690 C571 1.591 . S
C1695 C315 1.645 . S
C1700 C655 1.520 . S
C1705 C1082 1.597 . S
C1710 C746 1.594 . S
C1715 C1166 1.689 . S
C1720 C812 1.564 . S
C1725 C896 1.587 . S
C1730 C1232 1.584 . S
C1735 C1334 1.631 . S
C1740 C998 1.641 . S
C1745 C147 1.654 . S
C1750 C651 1.645 . S
C1755 C403 1.591 . S
C1760 C235 1.602 . S
C1765 C483 1.664 . S
C1770 C319 1.541 . S
C1775 C67 1.516 . S
C1780 C567 1.633 . S
C1785 C1316 1.528 . S
C1790 C830 1.646 . S
C1795 C1064 1.545 . S
C1800 C914 1.680 . S
C1805 C1148 1.580 . S
C1810 C980 1.572 . S
C1815 C1250 1.690 . S
C1820 C728 1.565 . S
