# Generated by pormake.
# Topology bcg, (8)-cn, num edge types: 1
# Building blocks:
#     Node 0, Type 0, BuildingBlock: TAGTUT_clean_sbu_3, # of connection points: 8
#     Node 1, Type 0, BuildingBlock: TAGTUT_clean_sbu_3, # of connection points: 8
#     Node 2, Type 0, BuildingBlock: TAGTUT_clean_sbu_3, # of connection points: 8
#     Node 3, Type 0, BuildingBlock: TAGTUT_clean_sbu_3, # of connection points: 8
#     Edge 4, Type (0, 0), BuildingBlock: TEMPAE_clean_linker_10, # of connection points: 2
#     Edge 5, Type (0, 0), BuildingBlock: TEMPAE_clean_linker_10, # of connection points: 2
#     Edge 6, Type (0, 0), BuildingBlock: TEMPAE_clean_linker_10, # of connection points: 2
#     Edge 7, Type (0, 0), BuildingBlock: TEMPAE_clean_linker_10, # of connection points: 2
#     Edge 8, Type (0, 0), BuildingBlock: TEMPAE_clean_linker_10, # of connection points: 2
#     Edge 9, Type (0, 0), BuildingBlock: TEMPAE_clean_linker_10, # of connection points: 2
#     Edge 10, Type (0, 0), BuildingBlock: TEMPAE_clean_linker_10, # of connection points: 2
#     Edge 11, Type (0, 0), BuildingBlock: TEMPAE_clean_linker_10, # of connection points: 2
#     Edge 12, Type (0, 0), BuildingBlock: TEMPAE_clean_linker_10, # of connection points: 2
#     Edge 13, Type (0, 0), BuildingBlock: TEMPAE_clean_linker_10, # of connection points: 2
#     Edge 14, Type (0, 0), BuildingBlock: TEMPAE_clean_linker_10, # of connection points: 2
#     Edge 15, Type (0, 0), BuildingBlock: TEMPAE_clean_linker_10, # of connection points: 2
#     Edge 16, Type (0, 0), BuildingBlock: TEMPAE_clean_linker_10, # of connection points: 2
#     Edge 17, Type (0, 0), BuildingBlock: TEMPAE_clean_linker_10, # of connection points: 2
#     Edge 18, Type (0, 0), BuildingBlock: TEMPAE_clean_linker_10, # of connection points: 2
#     Edge 19, Type (0, 0), BuildingBlock: TEMPAE_clean_linker_10, # of connection points: 2
# Relax obj value: 0.117
# Max RMSD: 0.248
# Mean RMSD: 0.248
data_MOF--net-bcg--node1-TAGTUT_clean_sbu_3--edge1-TEMPAE_clean_linker_10
_symmetry_space_group_name_H-M    P1
_symmetry_Int_Tables_number       1
_symmetry_cell_setting            triclinic
loop_
_symmetry_equiv_pos_as_xyz
'x, y, z'
_cell_length_a     15.23356
_cell_length_b     27.575232
_cell_length_c     33.421997
_cell_angle_alpha  90.670101
_cell_angle_beta   89.96362
_cell_angle_gamma 89.931539
loop_
_atom_site_label
_atom_site_type_symbol
_atom_site_fract_x
_atom_site_fract_y
_atom_site_fract_z
_atom_type_partial_charge
C0 C 0.43876 0.22498 0.01336 0.0
C1 C 0.28554 0.27901 0.15347 0.0
C2 C 0.05637 0.25744 0.08706 0.0
Mg3 Mg 0.34826 0.22567 0.92368 0.0
Mg4 Mg 0.20582 0.31387 0.90106 0.0
O5 O 0.24005 0.26423 0.93542 0.0
Mg6 Mg 0.25752 0.27685 0.99382 0.0
O7 O 0.27676 0.28513 0.05289 0.0
Mg8 Mg 0.26134 0.21559 0.0679 0.0
Mg9 Mg 0.2034 0.33013 0.07927 0.0
C10 C 0.06364 0.32 0.97024 0.0
O11 O 0.30121 0.35585 0.98898 0.0
O12 O 0.28786 0.2082 0.86045 0.0
O13 O 0.24862 0.39262 0.04483 0.0
O14 O 0.41607 0.29331 0.89798 0.0
O15 O 0.18975 0.26761 0.84949 0.0
O16 O 0.32396 0.356 0.89076 0.0
O17 O 0.21646 0.20008 0.0035 0.0
O18 O 0.27198 0.16158 0.95047 0.0
C19 C 0.22668 0.16147 0.98272 0.0
C20 C 0.22825 0.22816 0.83883 0.0
O21 O 0.11861 0.30208 0.99488 0.0
O22 O 0.29891 0.24027 0.13245 0.0
O23 O 0.08459 0.33215 0.9344 0.0
O24 O 0.1174 0.22559 0.08598 0.0
O25 O 0.25017 0.31733 0.13924 0.0
O26 O 0.07173 0.30184 0.07908 0.0
O27 O 0.39274 0.24807 0.98801 0.0
O28 O 0.40582 0.21067 0.04661 0.0
C29 C 0.40109 0.33751 0.88866 0.0
C30 C 0.291 0.39359 0.01147 0.0
C31 C 0.93634 0.73729 0.01715 0.0
C32 C 0.78471 0.78672 0.15651 0.0
C33 C 0.5544 0.75795 0.09261 0.0
Mg34 Mg 0.84467 0.73017 0.92783 0.0
Mg35 Mg 0.70466 0.81669 0.9027 0.0
O36 O 0.7342 0.76783 0.93842 0.0
Mg37 Mg 0.74827 0.78169 0.99709 0.0
O38 O 0.7679 0.79065 0.05597 0.0
Mg39 Mg 0.76152 0.72105 0.07208 0.0
Mg40 Mg 0.69447 0.83444 0.08283 0.0
C41 C 0.55914 0.82865 0.97062 0.0
O42 O 0.78916 0.8615 0.9917 0.0
O43 O 0.78665 0.71007 0.86486 0.0
O44 O 0.73628 0.89704 0.04796 0.0
O45 O 0.91318 0.79645 0.90116 0.0
O46 O 0.6876 0.76857 0.8525 0.0
O47 O 0.82177 0.85856 0.89126 0.0
O48 O 0.71233 0.70353 0.00805 0.0
O49 O 0.77045 0.66662 0.9548 0.0
C50 C 0.72468 0.66535 0.98682 0.0
C51 C 0.7264 0.72882 0.84289 0.0
O52 O 0.60681 0.80747 0.99679 0.0
O53 O 0.8001 0.7479 0.13591 0.0
O54 O 0.58641 0.83899 0.93525 0.0
O55 O 0.61753 0.72732 0.09167 0.0
O56 O 0.74534 0.82375 0.14219 0.0
O57 O 0.56618 0.80239 0.0836 0.0
O58 O 0.88404 0.75539 0.99171 0.0
O59 O 0.90754 0.72083 0.05044 0.0
C60 C 0.89879 0.84007 0.89034 0.0
C61 C 0.77806 0.89896 0.0145 0.0
C62 C 0.43595 0.7651 0.48939 0.0
C63 C 0.28241 0.71904 0.34985 0.0
C64 C 0.05293 0.74808 0.41441 0.0
Mg65 Mg 0.34522 0.77102 0.57889 0.0
Mg66 Mg 0.20548 0.6843 0.60345 0.0
O67 O 0.23456 0.73376 0.56822 0.0
Mg68 Mg 0.24773 0.72104 0.5093 0.0
O69 O 0.26649 0.71323 0.45023 0.0
Mg70 Mg 0.2609 0.78319 0.43502 0.0
Mg71 Mg 0.19169 0.67059 0.4231 0.0
C72 C 0.05908 0.67394 0.53578 0.0
O73 O 0.28761 0.64104 0.51347 0.0
O74 O 0.2883 0.79015 0.64209 0.0
O75 O 0.23254 0.60709 0.45704 0.0
O76 O 0.414 0.70417 0.60479 0.0
O77 O 0.18918 0.73171 0.65419 0.0
O78 O 0.32272 0.64206 0.61436 0.0
O79 O 0.21264 0.79944 0.49935 0.0
O80 O 0.27062 0.83539 0.55297 0.0
C81 C 0.22501 0.83725 0.52095 0.0
C82 C 0.22835 0.7712 0.66405 0.0
O83 O 0.1063 0.69568 0.50977 0.0
O84 O 0.29867 0.75738 0.37089 0.0
O85 O 0.08677 0.66285 0.57092 0.0
O86 O 0.11661 0.77827 0.41552 0.0
O87 O 0.24234 0.68205 0.36377 0.0
O88 O 0.06398 0.70349 0.42314 0.0
O89 O 0.38362 0.74673 0.51465 0.0
O90 O 0.4072 0.78225 0.45633 0.0
C91 C 0.39974 0.66044 0.61536 0.0
C92 C 0.27508 0.60415 0.49022 0.0
C93 C 0.93969 0.2783 0.48291 0.0
C94 C 0.78815 0.22095 0.34352 0.0
C95 C 0.55837 0.24298 0.40937 0.0
Mg96 Mg 0.84884 0.27865 0.57264 0.0
Mg97 Mg 0.70629 0.19085 0.59574 0.0
O98 O 0.74053 0.24025 0.56117 0.0
Mg99 Mg 0.75882 0.2266 0.50302 0.0
O100 O 0.77882 0.21705 0.44416 0.0
Mg101 Mg 0.7624 0.28618 0.42822 0.0
Mg102 Mg 0.70665 0.17101 0.41839 0.0
C103 C 0.56483 0.18381 0.52655 0.0
O104 O 0.80316 0.1479 0.50916 0.0
O105 O 0.78764 0.29694 0.63578 0.0
O106 O 0.75228 0.10934 0.45388 0.0
O107 O 0.91637 0.21119 0.59879 0.0
O108 O 0.68982 0.23756 0.64697 0.0
O109 O 0.8243 0.14863 0.60617 0.0
O110 O 0.71702 0.30317 0.49247 0.0
O111 O 0.77301 0.34229 0.54508 0.0
C112 C 0.7273 0.34204 0.51296 0.0
C113 C 0.72788 0.27715 0.65744 0.0
O114 O 0.62013 0.20132 0.50188 0.0
O115 O 0.80056 0.26019 0.364 0.0
O116 O 0.58532 0.17218 0.56256 0.0
O117 O 0.61873 0.27514 0.41023 0.0
O118 O 0.75364 0.18272 0.35829 0.0
O119 O 0.57449 0.19877 0.41781 0.0
O120 O 0.89393 0.25551 0.50855 0.0
O121 O 0.90658 0.29201 0.44953 0.0
C122 C 0.90138 0.16705 0.6082 0.0
C123 C 0.79396 0.1095 0.48741 0.0
C124 C 0.57485 0.22644 0.97298 0.0
C125 C 0.53378 0.2313 0.01022 0.0
C126 C 0.66092 0.24279 0.96744 0.0
C127 C 0.70505 0.26628 -0.00046 0.0
C128 C 0.66381 0.2708 0.03738 0.0
C129 C 0.57913 0.25228 0.04244 0.0
C130 C 0.70493 0.23415 0.9275 0.0
C131 C 0.7077 0.29486 0.0729 0.0
C132 C 0.95167 0.26543 0.99713 0.0
C133 C 0.97112 0.31033 0.97978 0.0
C134 C 0.86557 0.25126 0.0044 0.0
C135 C 0.79656 0.28276 0.99408 0.0
C136 C 0.81517 0.32879 0.97746 0.0
C137 C 0.90286 0.34183 0.96976 0.0
C138 C 0.84868 0.20223 0.02259 0.0
C139 C 0.7425 0.36416 0.96833 0.0
H140 H 0.53891 0.21062 0.94805 0.0
H141 H 0.54644 0.257 0.07107 0.0
H142 H 0.73843 0.26738 0.91723 0.0
H143 H 0.75593 0.20568 0.9308 0.0
H144 H 0.65772 0.22216 0.90407 0.0
H145 H 0.65927 0.31621 0.09068 0.0
H146 H 0.73376 0.26628 0.09272 0.0
H147 H 0.76235 0.31919 0.06437 0.0
H148 H 0.00422 0.24026 0.00392 0.0
H149 H 0.91801 0.37639 0.95627 0.0
H150 H 0.80272 0.181 0.00355 0.0
H151 H 0.81742 0.20697 0.05235 0.0
H152 H 0.91001 0.18097 0.02649 0.0
H153 H 0.69316 0.34694 0.94839 0.0
H154 H 0.76725 0.3976 0.95397 0.0
H155 H 0.70822 0.37437 0.99653 0.0
C156 C 0.04569 0.79809 0.99667 0.0
C157 C 0.02844 0.75291 0.01407 0.0
C158 C 0.13093 0.81588 0.9936 0.0
C159 C 0.20121 0.78736 0.00749 0.0
C160 C 0.18458 0.74257 0.02656 0.0
C161 C 0.09764 0.72598 0.03005 0.0
C162 C 0.1458 0.86464 0.97448 0.0
C163 C 0.25869 0.71175 0.04223 0.0
C164 C 0.4131 0.80083 0.95045 0.0
C165 C 0.46435 0.82753 0.97752 0.0
C166 C 0.32768 0.78705 0.96025 0.0
C167 C 0.29183 0.8019 0.99747 0.0
C168 C 0.34125 0.83158 0.0239 0.0
C169 C 0.42832 0.84311 0.01402 0.0
C170 C 0.27744 0.75464 0.93157 0.0
C171 C 0.3026 0.85025 0.06272 0.0
H172 H -0.00793 0.82013 0.98565 0.0
H173 H 0.084 0.6917 0.04431 0.0
H174 H 0.18053 0.88925 0.99555 0.0
H175 H 0.18832 0.86044 0.94774 0.0
H176 H 0.08343 0.88228 0.96541 0.0
H177 H 0.23454 0.67974 0.05882 0.0
H178 H 0.30007 0.69883 0.01691 0.0
H179 H 0.30134 0.73364 0.06235 0.0
H180 H 0.44208 0.78767 0.9227 0.0
H181 H 0.46873 0.86339 0.03499 0.0
H182 H 0.21087 0.76945 0.92604 0.0
H183 H 0.26903 0.71833 0.94502 0.0
H184 H 0.31163 0.75005 0.9024 0.0
H185 H 0.2427 0.87184 0.05681 0.0
H186 H 0.34937 0.87346 0.07972 0.0
H187 H 0.2822 0.81937 0.08154 0.0
C188 C 0.59731 0.77671 0.47688 0.0
C189 C 0.52811 0.7495 0.49244 0.0
C190 C 0.68434 0.76023 0.48052 0.0
C191 C 0.70107 0.71526 0.49933 0.0
C192 C 0.63085 0.68651 0.51286 0.0
C193 C 0.5455 0.70417 0.50961 0.0
C194 C 0.75842 0.79134 0.46531 0.0
C195 C 0.6459 0.63762 0.53176 0.0
C196 C 0.9285 0.65978 0.49239 0.0
C197 C 0.96428 0.67492 0.52902 0.0
C198 C 0.8414 0.67135 0.4826 0.0
C199 C 0.79168 0.70063 0.5093 0.0
C200 C 0.82724 0.71498 0.54667 0.0
C201 C 0.91274 0.70115 0.55636 0.0
C202 C 0.80303 0.65315 0.44361 0.0
C203 C 0.77661 0.74693 0.57563 0.0
H204 H 0.5836 0.81114 0.46285 0.0
H205 H 0.4919 0.68195 0.52035 0.0
H206 H 0.79905 0.80418 0.49086 0.0
H207 H 0.8018 0.7697 0.44526 0.0
H208 H 0.73425 0.82341 0.44877 0.0
H209 H 0.58357 0.61981 0.54062 0.0
H210 H 0.68113 0.61323 0.51064 0.0
H211 H 0.68805 0.64169 0.55862 0.0
H212 H 0.96916 0.63986 0.47123 0.0
H213 H 0.94155 0.71395 0.58422 0.0
H214 H 0.78148 0.68421 0.42525 0.0
H215 H 0.74391 0.63092 0.44939 0.0
H216 H 0.85039 0.63067 0.4262 0.0
H217 H 0.7679 0.7834 0.56252 0.0
H218 H 0.81067 0.75117 0.60485 0.0
H219 H 0.71016 0.73193 0.58102 0.0
C220 C 0.0802 0.25104 0.45373 0.0
C221 C 0.0348 0.27215 0.48594 0.0
C222 C 0.1651 0.23272 0.45871 0.0
C223 C 0.2065 0.23756 0.49645 0.0
C224 C 0.16237 0.26126 0.52851 0.0
C225 C 0.07607 0.27738 0.52307 0.0
C226 C 0.20898 0.20843 0.42324 0.0
C227 C 0.20658 0.27024 0.56833 0.0
C228 C 0.40415 0.16213 0.52689 0.0
C229 C 0.47245 0.19343 0.51671 0.0
C230 C 0.31654 0.17515 0.51895 0.0
C231 C 0.29801 0.22099 0.50194 0.0
C232 C 0.36707 0.25225 0.49136 0.0
C233 C 0.45312 0.23808 0.49886 0.0
C234 C 0.24387 0.13995 0.52822 0.0
C235 C 0.35027 0.30101 0.47264 0.0
H236 H 0.0474 0.24606 0.42517 0.0
H237 H 0.04013 0.29331 0.54799 0.0
H238 H 0.23462 0.23688 0.40318 0.0
H239 H 0.26394 0.18427 0.43179 0.0
H240 H 0.16064 0.18684 0.40568 0.0
H241 H 0.23907 0.23686 0.57899 0.0
H242 H 0.25845 0.29809 0.56464 0.0
H243 H 0.15973 0.28314 0.59163 0.0
H244 H 0.4192 0.12774 0.54071 0.0
H245 H 0.50572 0.26307 0.49186 0.0
H246 H 0.21039 0.12919 0.49999 0.0
H247 H 0.19392 0.15752 0.5477 0.0
H248 H 0.26845 0.10681 0.54314 0.0
H249 H 0.31969 0.29582 0.44281 0.0
H250 H 0.41153 0.32226 0.46878 0.0
H251 H 0.30372 0.32247 0.49128 0.0
C252 C 0.59893 0.61996 0.95926 0.0
C253 C 0.66017 0.62615 0.99014 0.0
C254 C 0.53284 0.5849 0.9617 0.0
C255 C 0.52983 0.55427 0.99531 0.0
C256 C 0.59183 0.5604 0.02666 0.0
C257 C 0.65551 0.59714 0.02405 0.0
C258 C 0.46619 0.58077 0.92838 0.0
C259 C 0.59183 0.52763 0.06251 0.0
C260 C 0.32427 0.48228 0.01978 0.0
C261 C 0.34416 0.43701 0.00245 0.0
C262 C 0.38282 0.52142 0.01658 0.0
C263 C 0.46416 0.51451 0.99671 0.0
C264 C 0.48341 0.46928 0.97826 0.0
C265 C 0.42267 0.43137 0.98086 0.0
C266 C 0.35856 0.5698 0.03521 0.0
C267 C 0.56994 0.46011 0.95732 0.0
H268 H 0.60175 0.64341 0.93345 0.0
H269 H 0.70251 0.60261 0.04803 0.0
H270 H 0.47205 0.5449 0.91327 0.0
H271 H 0.39876 0.58335 0.94083 0.0
H272 H 0.47452 0.60944 0.90561 0.0
H273 H 0.64532 0.53665 0.0839 0.0
H274 H 0.52812 0.53043 0.07845 0.0
H275 H 0.59963 0.48932 0.05254 0.0
H276 H 0.26373 0.48682 0.03648 0.0
H277 H 0.43931 0.39635 0.96785 0.0
H278 H 0.36688 0.59919 0.01313 0.0
H279 H 0.40294 0.57801 0.06069 0.0
H280 H 0.28979 0.57046 0.0463 0.0
H281 H 0.57995 0.48681 0.9332 0.0
H282 H 0.57398 0.42307 0.94399 0.0
H283 H 0.62463 0.46475 0.97895 0.0
C284 C 0.67301 0.42285 0.49057 0.0
C285 C 0.65837 0.37877 0.50954 0.0
C286 C 0.6053 0.45738 0.48804 0.0
C287 C 0.5221 0.44729 0.50523 0.0
C288 C 0.50763 0.40254 0.52435 0.0
C289 C 0.57602 0.36872 0.5261 0.0
C290 C 0.62255 0.50457 0.46702 0.0
C291 C 0.42098 0.39085 0.544 0.0
C292 C 0.3822 0.55696 0.53116 0.0
C293 C 0.32563 0.55918 0.49807 0.0
C294 C 0.44449 0.51977 0.53454 0.0
C295 C 0.45087 0.48405 0.50396 0.0
C296 C 0.39094 0.48436 0.47164 0.0
C297 C 0.32863 0.52175 0.4692 0.0
C298 C 0.5063 0.52005 0.56986 0.0
C299 C 0.395 0.44632 0.43879 0.0
H300 H 0.73694 0.43015 0.47772 0.0
H301 H 0.56557 0.33439 0.54092 0.0
H302 H 0.57822 0.50769 0.44083 0.0
H303 H 0.608 0.53562 0.48735 0.0
H304 H 0.69154 0.50758 0.45654 0.0
H305 H 0.41656 0.35213 0.55261 0.0
H306 H 0.41306 0.41358 0.57137 0.0
H307 H 0.36539 0.39938 0.52385 0.0
H308 H 0.38085 0.58555 0.55358 0.0
H309 H 0.2853 0.52289 0.44353 0.0
H310 H 0.57406 0.52769 0.55952 0.0
H311 H 0.50723 0.48399 0.5842 0.0
H312 H 0.48785 0.54773 0.59272 0.0
H313 H 0.34295 0.45129 0.41593 0.0
H314 H 0.38796 0.40968 0.45171 0.0
H315 H 0.4599 0.44756 0.42374 0.0
C316 C 0.07649 0.13285 0.96992 0.0
C317 C 0.15901 0.1242 0.98683 0.0
C318 C 0.00847 0.09909 0.97346 0.0
C319 C 0.02361 0.05576 0.99462 0.0
C320 C 0.10703 0.04712 0.01211 0.0
C321 C 0.17418 0.08165 0.00797 0.0
C322 C 0.9214 0.10931 0.95364 0.0
C323 C 0.12513 0.00144 0.03516 0.0
C324 C 0.8314 0.98221 0.03326 0.0
C325 C 0.82893 0.9435 0.00556 0.0
C326 C 0.89318 0.01967 0.02964 0.0
C327 C 0.9532 0.0187 0.9973 0.0
C328 C 0.94764 0.98149 0.96796 0.0
C329 C 0.88588 0.94429 0.97251 0.0
C330 C 0.89629 0.05936 0.06114 0.0
C331 C 0.00976 0.97975 0.93272 0.0
H332 H 0.06539 0.16616 0.9537 0.0
H333 H 0.23808 0.07557 0.02127 0.0
H334 H 0.91353 0.08502 0.9272 0.0
H335 H 0.8662 0.10178 0.9743 0.0
H336 H 0.91625 0.14745 0.94352 0.0
H337 H 0.19411 0.99944 0.04579 0.0
H338 H 0.08071 0.99973 0.06143 0.0
H339 H 0.11136 0.96911 0.01615 0.0
H340 H 0.78784 0.98218 0.05891 0.0
H341 H 0.88519 0.91467 0.95103 0.0
H342 H 0.88731 0.09517 0.04698 0.0
H343 H 0.96156 0.05972 0.07588 0.0
H344 H 0.84497 0.05495 0.08444 0.0
H345 H -0.00803 0.95096 0.91079 0.0
H346 H 0.07756 0.9729 0.94339 0.0
H347 H 0.01017 0.01504 0.91716 0.0
C348 C 0.8264 0.02025 0.48303 0.0
C349 C 0.84762 0.06665 0.49762 0.0
C350 C 0.88463 0.98113 0.4879 0.0
C351 C 0.96712 0.98925 0.5064 0.0
C352 C 0.98788 0.03579 0.52191 0.0
C353 C 0.92737 0.07365 0.51789 0.0
C354 C 0.85857 0.93141 0.47266 0.0
C355 C 0.07576 0.04632 0.54107 0.0
C356 C 0.10442 0.88725 0.5485 0.0
C357 C 0.16255 0.87748 0.51692 0.0
C358 C 0.03834 0.92225 0.54486 0.0
C359 C 0.03258 0.94943 0.50933 0.0
C360 C 0.09187 0.93992 0.47739 0.0
C361 C 0.15507 0.90306 0.48124 0.0
C362 C 0.97418 0.92978 0.57887 0.0
C363 C 0.08934 0.96911 0.43949 0.0
H364 H 0.76487 0.0147 0.46736 0.0
H365 H 0.94502 0.10957 0.52868 0.0
H366 H 0.90034 0.92091 0.44678 0.0
H367 H 0.86904 0.90396 0.49621 0.0
H368 H 0.78879 0.93006 0.46307 0.0
H369 H 0.08034 0.08414 0.55266 0.0
H370 H 0.08794 0.02132 0.5662 0.0
H371 H 0.12883 0.0403 0.51878 0.0
H372 H 0.10903 0.86631 0.5757 0.0
H373 H 0.19944 0.89474 0.45672 0.0
H374 H 0.90589 0.92617 0.56767 0.0
H375 H 0.98101 0.96694 0.59151 0.0
H376 H 0.98422 0.9034 0.60334 0.0
H377 H 0.02522 0.96414 0.42433 0.0
H378 H 0.14234 0.95853 0.41826 0.0
H379 H 0.09605 0.0083 0.44682 0.0
C380 C 0.46456 0.30268 0.37432 0.0
C381 C 0.47581 0.25536 0.38853 0.0
C382 C 0.41318 0.31135 0.34043 0.0
C383 C 0.36973 0.27198 0.32157 0.0
C384 C 0.36708 0.22643 0.34062 0.0
C385 C 0.42094 0.21843 0.37394 0.0
C386 C 0.41735 0.36081 0.32164 0.0
C387 C 0.31576 0.18458 0.32308 0.0
C388 C 0.2459 0.29477 0.22479 0.0
C389 C 0.30736 0.27859 0.19631 0.0
C390 C 0.26435 0.29254 0.26593 0.0
C391 C 0.34701 0.275 0.27848 0.0
C392 C 0.41006 0.26002 0.24957 0.0
C393 C 0.38858 0.26093 0.20884 0.0
C394 C 0.19479 0.30757 0.29581 0.0
C395 C 0.50039 0.24282 0.26155 0.0
H396 H 0.50411 0.33199 0.38651 0.0
H397 H 0.42648 0.1821 0.38574 0.0
H398 H 0.46932 0.36054 0.29833 0.0
H399 H 0.3546 0.37048 0.30699 0.0
H400 H 0.4338 0.3894 0.34411 0.0
H401 H 0.30395 0.15599 0.3456 0.0
H402 H 0.25167 0.19716 0.31129 0.0
H403 H 0.35322 0.16824 0.29782 0.0
H404 H 0.18246 0.30786 0.21489 0.0
H405 H 0.43593 0.24863 0.18668 0.0
H406 H 0.14094 0.32837 0.28157 0.0
H407 H 0.22294 0.32987 0.32045 0.0
H408 H 0.16654 0.27465 0.30957 0.0
H409 H 0.52995 0.2677 0.28411 0.0
H410 H 0.5454 0.24048 0.23553 0.0
H411 H 0.49552 0.20639 0.27511 0.0
C412 C 0.42072 0.78073 0.13131 0.0
C413 C 0.4744 0.74432 0.11487 0.0
C414 C 0.3676 0.77146 0.16455 0.0
C415 C 0.37134 0.7253 0.18247 0.0
C416 C 0.41528 0.68673 0.16259 0.0
C417 C 0.4651 0.69658 0.12839 0.0
C418 C 0.31713 0.81287 0.18351 0.0
C419 C 0.42094 0.63679 0.18042 0.0
C420 C 0.38852 0.73499 0.29521 0.0
C421 C 0.30616 0.7185 0.30727 0.0
C422 C 0.41133 0.73545 0.25462 0.0
C423 C 0.34864 0.72099 0.22543 0.0
C424 C 0.26507 0.70438 0.23753 0.0
C425 C 0.24521 0.70268 0.27851 0.0
C426 C 0.50229 0.75212 0.24307 0.0
C427 C 0.19594 0.69003 0.2073 0.0
H428 H 0.42715 0.81767 0.12118 0.0
H429 H 0.50478 0.66786 0.11522 0.0
H430 H 0.25375 0.80011 0.1959 0.0
H431 H 0.35606 0.82854 0.20855 0.0
H432 H 0.30399 0.84209 0.1617 0.0
H433 H 0.43689 0.60888 0.15728 0.0
H434 H 0.47388 0.63659 0.20324 0.0
H435 H 0.35894 0.62658 0.19548 0.0
H436 H 0.43545 0.74698 0.31761 0.0
H437 H 0.18094 0.6905 0.28807 0.0
H438 H 0.49812 0.78789 0.22833 0.0
H439 H 0.53266 0.72623 0.22148 0.0
H440 H 0.54626 0.75567 0.26941 0.0
H441 H 0.17335 0.72278 0.19128 0.0
H442 H 0.13822 0.6727 0.22156 0.0
H443 H 0.22331 0.66474 0.18447 0.0
C444 C 0.55744 0.65149 0.63271 0.0
C445 C 0.47043 0.63624 0.63797 0.0
C446 C 0.61842 0.64799 0.66392 0.0
C447 C 0.58992 0.63103 0.70149 0.0
C448 C 0.50832 0.60671 0.70413 0.0
C449 C 0.44912 0.60934 0.67198 0.0
C450 C 0.7077 0.67051 0.65863 0.0
C451 C 0.47738 0.58547 0.74302 0.0
C452 C 0.72838 0.65731 0.79469 0.0
C453 C 0.69578 0.70312 0.80616 0.0
C454 C 0.69446 0.63253 0.76092 0.0
C455 C 0.62692 0.65434 0.73817 0.0
C456 C 0.59432 0.70063 0.74969 0.0
C457 C 0.62928 0.72428 0.7832 0.0
C458 C 0.73256 0.58382 0.74936 0.0
C459 C 0.5221 0.72572 0.72663 0.0
H460 H 0.57497 0.67155 0.60621 0.0
H461 H 0.38261 0.5963 0.67595 0.0
H462 H 0.70214 0.71045 0.66237 0.0
H463 H 0.75573 0.65685 0.68073 0.0
H464 H 0.73319 0.66278 0.6281 0.0
H465 H 0.42598 0.55753 0.73788 0.0
H466 H 0.53268 0.56903 0.75968 0.0
H467 H 0.44884 0.6148 0.76201 0.0
H468 H 0.77989 0.64062 0.81217 0.0
H469 H 0.60341 0.7596 0.79154 0.0
H470 H 0.78545 0.58921 0.72701 0.0
H471 H 0.68261 0.55957 0.73564 0.0
H472 H 0.76174 0.56544 0.77561 0.0
H473 H 0.5446 0.73321 0.69574 0.0
H474 H 0.5019 0.76068 0.74072 0.0
H475 H 0.46337 0.70208 0.72455 0.0
C476 C 0.55852 0.34844 0.87119 0.0
C477 C 0.47076 0.3625 0.86594 0.0
C478 C 0.61895 0.3519 0.83963 0.0
C479 C 0.58957 0.36819 0.80195 0.0
C480 C 0.50667 0.39127 0.79927 0.0
C481 C 0.44793 0.3884 0.83161 0.0
C482 C 0.70923 0.33057 0.84493 0.0
C483 C 0.47426 0.41154 0.76026 0.0
C484 C 0.72762 0.34702 0.70748 0.0
C485 C 0.69755 0.30102 0.69518 0.0
C486 C 0.69365 0.36994 0.74219 0.0
C487 C 0.62865 0.34609 0.76509 0.0
C488 C 0.5992 0.29945 0.75294 0.0
C489 C 0.63407 0.27768 0.71848 0.0
C490 C 0.72866 0.41904 0.75455 0.0
C491 C 0.53001 0.27219 0.77617 0.0
H492 H 0.57738 0.32962 0.89817 0.0
H493 H 0.38074 0.40041 0.82762 0.0
H494 H 0.70547 0.29054 0.84143 0.0
H495 H 0.75651 0.34461 0.82266 0.0
H496 H 0.73452 0.33888 0.87538 0.0
H497 H 0.42077 0.43838 0.76522 0.0
H498 H 0.52829 0.42907 0.74353 0.0
H499 H 0.4481 0.38147 0.7414 0.0
H500 H 0.77697 0.36533 0.68985 0.0
H501 H 0.6104 0.24209 0.70964 0.0
H502 H 0.77945 0.4142 0.77794 0.0
H503 H 0.67632 0.4425 0.76741 0.0
H504 H 0.7594 0.43801 0.72897 0.0
H505 H 0.55397 0.26491 0.80686 0.0
H506 H 0.51256 0.23694 0.76185 0.0
H507 H 0.46933 0.29429 0.77882 0.0
C508 C 0.9191 0.72623 0.37561 0.0
C509 C 0.97333 0.76229 0.39207 0.0
C510 C 0.86672 0.73572 0.34219 0.0
C511 C 0.87149 0.7818 0.32418 0.0
C512 C 0.91577 0.82014 0.34412 0.0
C513 C 0.96507 0.81005 0.37844 0.0
C514 C 0.81607 0.69453 0.32312 0.0
C515 C 0.92231 0.87002 0.32627 0.0
C516 C 0.8903 0.77129 0.21149 0.0
C517 C 0.80812 0.78778 0.19914 0.0
C518 C 0.9126 0.77123 0.25214 0.0
C519 C 0.84957 0.78609 0.28112 0.0
C520 C 0.76622 0.80276 0.26871 0.0
C521 C 0.74689 0.80406 0.22767 0.0
C522 C 0.00331 0.75444 0.264 0.0
C523 C 0.69672 0.81756 0.29869 0.0
H524 H 0.92469 0.68928 0.38584 0.0
H525 H 0.00513 0.83853 0.39161 0.0
H526 H 0.75307 0.70758 0.31053 0.0
H527 H 0.85525 0.67863 0.29822 0.0
H528 H 0.8022 0.66541 0.34493 0.0
H529 H 0.93821 0.89788 0.34944 0.0
H530 H 0.97562 0.86995 0.3036 0.0
H531 H 0.86066 0.88051 0.31104 0.0
H532 H 0.93745 0.75892 0.18927 0.0
H533 H 0.68275 0.81626 0.2179 0.0
H534 H -0.00118 0.71859 0.2786 0.0
H535 H 0.03325 0.78018 0.28579 0.0
H536 H 0.0478 0.75099 0.23782 0.0
H537 H 0.67406 0.78508 0.31502 0.0
H538 H 0.63909 0.83469 0.28417 0.0
H539 H 0.72383 0.84319 0.32129 0.0
C540 C 0.89036 0.23833 0.28762 0.0
C541 C 0.80949 0.22072 0.30061 0.0
C542 C 0.91108 0.23892 0.24679 0.0
C543 C 0.84762 0.22366 0.21824 0.0
C544 C 0.76543 0.20601 0.23125 0.0
C545 C 0.74773 0.20413 0.27248 0.0
C546 C 0.00095 0.25626 0.23431 0.0
C547 C 0.69554 0.19056 0.20175 0.0
C548 C 0.9185 0.28098 0.12269 0.0
C549 C 0.97401 0.24443 0.1078 0.0
C550 C 0.86524 0.27251 0.15614 0.0
C551 C 0.86916 0.22688 0.17501 0.0
C552 C 0.91308 0.18781 0.15582 0.0
C553 C 0.96378 0.19694 0.12179 0.0
C554 C 0.81348 0.31405 0.17407 0.0
C555 C 0.91865 0.13828 0.17442 0.0
H556 H 0.93794 0.25095 0.30951 0.0
H557 H 0.68457 0.19107 0.28273 0.0
H558 H 0.03022 0.23143 0.21159 0.0
H559 H -0.00461 0.29269 0.2208 0.0
H560 H 0.04655 0.25866 0.26008 0.0
H561 H 0.64169 0.17023 0.2164 0.0
H562 H 0.66737 0.22325 0.18755 0.0
H563 H 0.72345 0.16767 0.17739 0.0
H564 H 0.92318 0.31742 0.11105 0.0
H565 H 0.00379 0.1679 0.10935 0.0
H566 H 0.85111 0.33039 0.19924 0.0
H567 H 0.74983 0.30115 0.18607 0.0
H568 H 0.80078 0.34274 0.15172 0.0
H569 H 0.97172 0.13855 0.19717 0.0
H570 H 0.93442 0.10986 0.15169 0.0
H571 H 0.85674 0.12839 0.18968 0.0
C572 C 0.13635 0.22827 0.77726 0.0
C573 C 0.19865 0.20454 0.80094 0.0
C574 C 0.10166 0.20649 0.74281 0.0
C575 C 0.13013 0.15945 0.7311 0.0
C576 C 0.19434 0.13533 0.75426 0.0
C577 C 0.22812 0.15827 0.78895 0.0
C578 C 0.03349 0.23407 0.7192 0.0
C579 C 0.22852 0.08588 0.74226 0.0
C580 C 0.94819 0.11695 0.66563 0.0
C581 C 0.97101 0.14206 0.63091 0.0
C582 C 0.00715 0.11447 0.69786 0.0
C583 C 0.09033 0.13701 0.69461 0.0
C584 C 0.11957 0.15242 0.65665 0.0
C585 C 0.05886 0.1556 0.62523 0.0
C586 C 0.97468 0.09536 0.73728 0.0
C587 C 0.21009 0.17316 0.65086 0.0
H588 H 0.11337 0.26413 0.78584 0.0
H589 H 0.27669 0.13969 0.80685 0.0
H590 H 0.05805 0.24075 0.6885 0.0
H591 H 0.9723 0.21249 0.71658 0.0
H592 H 0.01674 0.26964 0.73318 0.0
H593 H 0.25967 0.06715 0.76786 0.0
H594 H 0.17558 0.06251 0.72995 0.0
H595 H 0.27874 0.09009 0.7185 0.0
H596 H 0.88087 0.1054 0.66995 0.0
H597 H 0.0776 0.17386 0.59796 0.0
H598 H 0.94959 0.12608 0.75578 0.0
H599 H 0.02844 0.07769 0.7541 0.0
H600 H 0.9204 0.06895 0.7329 0.0
H601 H 0.20701 0.21323 0.65419 0.0
H602 H 0.23477 0.16447 0.62036 0.0
H603 H 0.25747 0.159 0.67304 0.0
C604 C 0.13288 0.77508 0.72433 0.0
C605 C 0.1983 0.79659 0.701 0.0
C606 C 0.09759 0.7988 0.75776 0.0
C607 C 0.1289 0.84548 0.7688 0.0
C608 C 0.19584 0.86747 0.74585 0.0
C609 C 0.23002 0.84264 0.71216 0.0
C610 C 0.02622 0.77346 0.78113 0.0
C611 C 0.23289 0.9165 0.75708 0.0
C612 C 0.9486 0.89047 0.83348 0.0
C613 C 0.96958 0.86414 0.86783 0.0
C614 C 0.00863 0.89301 0.80165 0.0
C615 C 0.0907 0.86923 0.80502 0.0
C616 C 0.11858 0.85298 0.84288 0.0
C617 C 0.05675 0.84947 0.87376 0.0
C618 C 0.97821 0.91336 0.76235 0.0
C619 C 0.20824 0.83107 0.8488 0.0
H620 H 0.10794 0.7395 0.71625 0.0
H621 H 0.28084 0.85954 0.69443 0.0
H622 H 0.04911 0.76645 0.81203 0.0
H623 H 0.96684 0.79668 0.78314 0.0
H624 H 0.00691 0.73821 0.76733 0.0
H625 H 0.26196 0.93472 0.73073 0.0
H626 H 0.18236 0.94066 0.77055 0.0
H627 H 0.28566 0.9116 0.77954 0.0
H628 H 0.8819 0.90306 0.82904 0.0
H629 H 0.07393 0.82988 0.90054 0.0
H630 H 0.95123 0.88348 0.74352 0.0
H631 H 0.03347 0.93002 0.74583 0.0
H632 H 0.92575 0.94091 0.76688 0.0
H633 H 0.20378 0.79107 0.84529 0.0
H634 H 0.23272 0.83925 0.87939 0.0
H635 H 0.25653 0.84482 0.82685 0.0
loop_
_geom_bond_atom_site_label_1
_geom_bond_atom_site_label_2
_geom_bond_distance
_geom_bond_site_symmetry_2
_ccdc_geom_bond_type
C0 O27 1.312 1_554 S
C0 O28 1.208 . S
C1 O22 1.331 . S
C1 O25 1.244 . S
C2 O24 1.264 . S
C2 O26 1.273 . S
Mg3 O5 1.936 . S
Mg3 O12 2.081 . S
Mg3 O14 2.023 . S
Mg3 O18 2.031 . S
Mg3 O27 2.291 . S
Mg4 O5 1.963 . S
Mg4 O15 1.942 . S
Mg4 O16 1.955 . S
Mg4 O23 1.986 . S
O5 Mg3 1.936 . S
O5 Mg4 1.963 . S
O5 Mg6 1.915 1_556 S
Mg6 O5 1.915 1_554 S
Mg6 O7 1.915 . S
Mg6 O11 2.013 1_554 S
Mg6 O17 2.114 . S
Mg6 O21 2.013 . S
Mg6 O27 2.114 1_554 S
O7 Mg6 1.915 . S
O7 Mg8 1.936 . S
O7 Mg9 1.963 . S
Mg8 O7 1.936 . S
Mg8 O17 2.291 . S
Mg8 O22 2.081 . S
Mg8 O24 2.023 . S
Mg8 O28 2.031 . S
Mg9 O7 1.963 . S
Mg9 O13 1.986 . S
Mg9 O25 1.942 . S
Mg9 O26 1.955 . S
C10 O21 1.191 1_556 S
C10 O23 1.307 . S
O11 Mg6 2.013 1_556 S
O11 C30 1.191 1_556 S
O12 Mg3 2.081 . S
O12 C20 1.331 . S
O13 Mg9 1.986 . S
O13 C30 1.307 . S
O14 Mg3 2.023 . S
O14 C29 1.264 . S
O15 Mg4 1.942 . S
O15 C20 1.244 . S
O16 Mg4 1.955 . S
O16 C29 1.273 . S
O17 Mg6 2.114 . S
O17 Mg8 2.291 . S
O17 C19 1.312 1_554 S
O18 Mg3 2.031 . S
O18 C19 1.208 . S
C19 O17 1.312 1_556 S
C19 O18 1.208 . S
C20 O12 1.331 . S
C20 O15 1.244 . S
O21 Mg6 2.013 . S
O21 C10 1.191 1_554 S
O22 C1 1.331 . S
O22 Mg8 2.081 . S
O23 Mg4 1.986 . S
O23 C10 1.307 . S
O24 C2 1.264 . S
O24 Mg8 2.023 . S
O25 C1 1.244 . S
O25 Mg9 1.942 . S
O26 C2 1.273 . S
O26 Mg9 1.955 . S
O27 C0 1.312 1_556 S
O27 Mg3 2.291 . S
O27 Mg6 2.114 1_556 S
O28 C0 1.208 . S
O28 Mg8 2.031 . S
C29 O14 1.264 . S
C29 O16 1.273 . S
C30 O11 1.191 1_554 S
C30 O13 1.307 . S
C31 O58 1.312 1_554 S
C31 O59 1.208 . S
C32 O53 1.331 . S
C32 O56 1.244 . S
C33 O55 1.264 . S
C33 O57 1.273 . S
Mg34 O36 1.936 . S
Mg34 O43 2.081 . S
Mg34 O45 2.023 . S
Mg34 O49 2.031 . S
Mg34 O58 2.291 . S
Mg35 O36 1.963 . S
Mg35 O46 1.942 . S
Mg35 O47 1.955 . S
Mg35 O54 1.986 . S
O36 Mg34 1.936 . S
O36 Mg35 1.963 . S
O36 Mg37 1.915 1_556 S
Mg37 O36 1.915 1_554 S
Mg37 O38 1.915 . S
Mg37 O42 2.013 1_554 S
Mg37 O48 2.114 . S
Mg37 O52 2.013 . S
Mg37 O58 2.114 1_554 S
O38 Mg37 1.915 . S
O38 Mg39 1.936 . S
O38 Mg40 1.963 . S
Mg39 O38 1.936 . S
Mg39 O48 2.291 . S
Mg39 O53 2.081 . S
Mg39 O55 2.023 . S
Mg39 O59 2.031 . S
Mg40 O38 1.963 . S
Mg40 O44 1.986 . S
Mg40 O56 1.942 . S
Mg40 O57 1.955 . S
C41 O52 1.191 1_556 S
C41 O54 1.307 . S
O42 Mg37 2.013 1_556 S
O42 C61 1.191 1_556 S
O43 Mg34 2.081 . S
O43 C51 1.331 . S
O44 Mg40 1.986 . S
O44 C61 1.307 . S
O45 Mg34 2.023 . S
O45 C60 1.264 . S
O46 Mg35 1.942 . S
O46 C51 1.244 . S
O47 Mg35 1.955 . S
O47 C60 1.273 . S
O48 Mg37 2.114 . S
O48 Mg39 2.291 . S
O48 C50 1.312 1_554 S
O49 Mg34 2.031 . S
O49 C50 1.208 . S
C50 O48 1.312 1_556 S
C50 O49 1.208 . S
C51 O43 1.331 . S
C51 O46 1.244 . S
O52 Mg37 2.013 . S
O52 C41 1.191 1_554 S
O53 C32 1.331 . S
O53 Mg39 2.081 . S
O54 Mg35 1.986 . S
O54 C41 1.307 . S
O55 C33 1.264 . S
O55 Mg39 2.023 . S
O56 C32 1.244 . S
O56 Mg40 1.942 . S
O57 C33 1.273 . S
O57 Mg40 1.955 . S
O58 C31 1.312 1_556 S
O58 Mg34 2.291 . S
O58 Mg37 2.114 1_556 S
O59 C31 1.208 . S
O59 Mg39 2.031 . S
C60 O45 1.264 . S
C60 O47 1.273 . S
C61 O42 1.191 1_554 S
C61 O44 1.307 . S
C62 O89 1.312 . S
C62 O90 1.208 . S
C63 O84 1.331 . S
C63 O87 1.244 . S
C64 O86 1.264 . S
C64 O88 1.273 . S
Mg65 O67 1.936 . S
Mg65 O74 2.081 . S
Mg65 O76 2.023 . S
Mg65 O80 2.031 . S
Mg65 O89 2.291 . S
Mg66 O67 1.963 . S
Mg66 O77 1.942 . S
Mg66 O78 1.955 . S
Mg66 O85 1.986 . S
O67 Mg65 1.936 . S
O67 Mg66 1.963 . S
O67 Mg68 1.915 . S
Mg68 O67 1.915 . S
Mg68 O69 1.915 . S
Mg68 O73 2.013 . S
Mg68 O79 2.114 . S
Mg68 O83 2.013 . S
Mg68 O89 2.114 . S
O69 Mg68 1.915 . S
O69 Mg70 1.936 . S
O69 Mg71 1.963 . S
Mg70 O69 1.936 . S
Mg70 O79 2.291 . S
Mg70 O84 2.081 . S
Mg70 O86 2.023 . S
Mg70 O90 2.031 . S
Mg71 O69 1.963 . S
Mg71 O75 1.986 . S
Mg71 O87 1.942 . S
Mg71 O88 1.955 . S
C72 O83 1.191 . S
C72 O85 1.307 . S
O73 Mg68 2.013 . S
O73 C92 1.191 . S
O74 Mg65 2.081 . S
O74 C82 1.331 . S
O75 Mg71 1.986 . S
O75 C92 1.307 . S
O76 Mg65 2.023 . S
O76 C91 1.264 . S
O77 Mg66 1.942 . S
O77 C82 1.244 . S
O78 Mg66 1.955 . S
O78 C91 1.273 . S
O79 Mg68 2.114 . S
O79 Mg70 2.291 . S
O79 C81 1.312 . S
O80 Mg65 2.031 . S
O80 C81 1.208 . S
C81 O79 1.312 . S
C81 O80 1.208 . S
C82 O74 1.331 . S
C82 O77 1.244 . S
O83 Mg68 2.013 . S
O83 C72 1.191 . S
O84 C63 1.331 . S
O84 Mg70 2.081 . S
O85 Mg66 1.986 . S
O85 C72 1.307 . S
O86 C64 1.264 . S
O86 Mg70 2.023 . S
O87 C63 1.244 . S
O87 Mg71 1.942 . S
O88 C64 1.273 . S
O88 Mg71 1.955 . S
O89 C62 1.312 . S
O89 Mg65 2.291 . S
O89 Mg68 2.114 . S
O90 C62 1.208 . S
O90 Mg70 2.031 . S
C91 O76 1.264 . S
C91 O78 1.273 . S
C92 O73 1.191 . S
C92 O75 1.307 . S
C93 O120 1.312 . S
C93 O121 1.208 . S
C94 O115 1.331 . S
C94 O118 1.244 . S
C95 O117 1.264 . S
C95 O119 1.273 . S
Mg96 O98 1.936 . S
Mg96 O105 2.081 . S
Mg96 O107 2.023 . S
Mg96 O111 2.031 . S
Mg96 O120 2.291 . S
Mg97 O98 1.963 . S
Mg97 O108 1.942 . S
Mg97 O109 1.955 . S
Mg97 O116 1.986 . S
O98 Mg96 1.936 . S
O98 Mg97 1.963 . S
O98 Mg99 1.915 . S
Mg99 O98 1.915 . S
Mg99 O100 1.915 . S
Mg99 O104 2.013 . S
Mg99 O110 2.114 . S
Mg99 O114 2.013 . S
Mg99 O120 2.114 . S
O100 Mg99 1.915 . S
O100 Mg101 1.936 . S
O100 Mg102 1.963 . S
Mg101 O100 1.936 . S
Mg101 O110 2.291 . S
Mg101 O115 2.081 . S
Mg101 O117 2.023 . S
Mg101 O121 2.031 . S
Mg102 O100 1.963 . S
Mg102 O106 1.986 . S
Mg102 O118 1.942 . S
Mg102 O119 1.955 . S
C103 O114 1.191 . S
C103 O116 1.307 . S
O104 Mg99 2.013 . S
O104 C123 1.191 . S
O105 Mg96 2.081 . S
O105 C113 1.331 . S
O106 Mg102 1.986 . S
O106 C123 1.307 . S
O107 Mg96 2.023 . S
O107 C122 1.264 . S
O108 Mg97 1.942 . S
O108 C113 1.244 . S
O109 Mg97 1.955 . S
O109 C122 1.273 . S
O110 Mg99 2.114 . S
O110 Mg101 2.291 . S
O110 C112 1.312 . S
O111 Mg96 2.031 . S
O111 C112 1.208 . S
C112 O110 1.312 . S
C112 O111 1.208 . S
C113 O105 1.331 . S
C113 O108 1.244 . S
O114 Mg99 2.013 . S
O114 C103 1.191 . S
O115 C94 1.331 . S
O115 Mg101 2.081 . S
O116 Mg97 1.986 . S
O116 C103 1.307 . S
O117 C95 1.264 . S
O117 Mg101 2.023 . S
O118 C94 1.244 . S
O118 Mg102 1.942 . S
O119 C95 1.273 . S
O119 Mg102 1.955 . S
O120 C93 1.312 . S
O120 Mg96 2.291 . S
O120 Mg99 2.114 . S
O121 C93 1.208 . S
O121 Mg101 2.031 . S
C122 O107 1.264 . S
C122 O109 1.273 . S
C123 O104 1.191 . S
C123 O106 1.307 . S
C124 C125 1.391 . S
C124 C126 1.394 . S
C124 H140 0.931 . S
C125 C124 1.391 . S
C125 C129 1.376 1_556 S
C126 C124 1.394 . S
C126 C127 1.369 . S
C126 C130 1.531 . S
C127 C126 1.369 . S
C127 C128 1.410 1_556 S
C127 C135 1.503 . S
C128 C127 1.410 1_554 S
C128 C129 1.392 . S
C128 C131 1.511 . S
C129 C125 1.376 1_554 S
C129 C128 1.392 . S
C129 H141 0.929 . S
C130 C126 1.531 . S
C130 H142 0.960 . S
C130 H143 0.962 . S
C130 H144 0.960 . S
C131 C128 1.511 . S
C131 H145 0.961 . S
C131 H146 0.961 . S
C131 H147 0.961 . S
C132 C133 1.373 . S
C132 C134 1.363 . S
C132 H148 0.931 . S
C133 C132 1.373 . S
C133 C137 1.405 1_554 S
C134 C132 1.363 . S
C134 C135 1.370 1_554 S
C134 C138 1.524 . S
C135 C127 1.503 . S
C135 C134 1.370 1_556 S
C135 C136 1.403 . S
C136 C135 1.403 . S
C136 C137 1.404 . S
C136 C139 1.539 . S
C137 C133 1.405 1_556 S
C137 C136 1.404 . S
C137 H149 0.930 . S
C138 C134 1.524 . S
C138 H150 0.956 . S
C138 H151 0.961 . S
C138 H152 0.961 . S
C139 C136 1.539 . S
C139 H153 0.958 . S
C139 H154 0.961 . S
C139 H155 0.960 . S
H140 C124 0.931 . S
H141 C129 0.929 . S
H142 C130 0.960 . S
H143 C130 0.962 . S
H144 C130 0.960 . S
H145 C131 0.961 . S
H146 C131 0.961 . S
H147 C131 0.961 . S
H148 C132 0.931 . S
H149 C137 0.930 . S
H150 C138 0.956 . S
H151 C138 0.961 . S
H152 C138 0.961 . S
H153 C139 0.958 . S
H154 C139 0.961 . S
H155 C139 0.960 . S
C156 C157 1.391 . S
C156 C158 1.394 . S
C156 H172 0.931 1_455 S
C157 C156 1.391 . S
C157 C161 1.376 1_554 S
C158 C156 1.394 . S
C158 C159 1.369 . S
C158 C162 1.531 . S
C159 C158 1.369 . S
C159 C160 1.410 . S
C159 C167 1.503 . S
C160 C159 1.410 . S
C160 C161 1.392 1_554 S
C160 C163 1.511 1_554 S
C161 C157 1.376 1_556 S
C161 C160 1.392 1_556 S
C161 H173 0.929 . S
C162 C158 1.531 . S
C162 H174 0.960 . S
C162 H175 0.962 . S
C162 H176 0.960 . S
C163 C160 1.511 1_556 S
C163 H177 0.961 . S
C163 H178 0.961 . S
C163 H179 0.961 1_556 S
C164 C165 1.370 1_556 S
C164 C166 1.363 . S
C164 H180 0.931 . S
C165 C164 1.370 1_554 S
C165 C169 1.408 . S
C166 C164 1.363 . S
C166 C167 1.370 1_556 S
C166 C170 1.524 . S
C167 C159 1.503 . S
C167 C166 1.370 1_554 S
C167 C168 1.403 . S
C168 C167 1.403 . S
C168 C169 1.404 . S
C168 C171 1.539 . S
C169 C165 1.408 . S
C169 C168 1.404 . S
C169 H181 0.930 . S
C170 C166 1.524 . S
C170 H182 0.956 . S
C170 H183 0.961 . S
C170 H184 0.961 . S
C171 C168 1.539 . S
C171 H185 0.958 . S
C171 H186 0.961 . S
C171 H187 0.960 . S
H172 C156 0.931 1_655 S
H173 C161 0.929 . S
H174 C162 0.960 . S
H175 C162 0.962 . S
H176 C162 0.960 . S
H177 C163 0.961 . S
H178 C163 0.961 . S
H179 C163 0.961 1_554 S
H180 C164 0.931 . S
H181 C169 0.930 . S
H182 C170 0.956 . S
H183 C170 0.961 . S
H184 C170 0.961 . S
H185 C171 0.958 . S
H186 C171 0.961 . S
H187 C171 0.960 . S
C188 C189 1.391 . S
C188 C190 1.394 . S
C188 H204 0.931 . S
C189 C188 1.391 . S
C189 C193 1.376 . S
C190 C188 1.394 . S
C190 C191 1.369 . S
C190 C194 1.531 . S
C191 C190 1.369 . S
C191 C192 1.410 . S
C191 C199 1.503 . S
C192 C191 1.410 . S
C192 C193 1.392 . S
C192 C195 1.511 . S
C193 C189 1.376 . S
C193 C192 1.392 . S
C193 H205 0.929 . S
C194 C190 1.531 . S
C194 H206 0.960 . S
C194 H207 0.962 . S
C194 H208 0.960 . S
C195 C192 1.511 . S
C195 H209 0.961 . S
C195 H210 0.961 . S
C195 H211 0.961 . S
C196 C197 1.370 . S
C196 C198 1.363 . S
C196 H212 0.931 . S
C197 C196 1.370 . S
C197 C201 1.408 . S
C198 C196 1.363 . S
C198 C199 1.370 . S
C198 C202 1.524 . S
C199 C191 1.503 . S
C199 C198 1.370 . S
C199 C200 1.403 . S
C200 C199 1.403 . S
C200 C201 1.404 . S
C200 C203 1.539 . S
C201 C197 1.408 . S
C201 C200 1.404 . S
C201 H213 0.930 . S
C202 C198 1.524 . S
C202 H214 0.956 . S
C202 H215 0.961 . S
C202 H216 0.961 . S
C203 C200 1.539 . S
C203 H217 0.958 . S
C203 H218 0.961 . S
C203 H219 0.960 . S
H204 C188 0.931 . S
H205 C193 0.929 . S
H206 C194 0.960 . S
H207 C194 0.962 . S
H208 C194 0.960 . S
H209 C195 0.961 . S
H210 C195 0.961 . S
H211 C195 0.961 . S
H212 C196 0.931 . S
H213 C201 0.930 . S
H214 C202 0.956 . S
H215 C202 0.961 . S
H216 C202 0.961 . S
H217 C203 0.958 . S
H218 C203 0.961 . S
H219 C203 0.960 . S
C220 C221 1.391 . S
C220 C222 1.394 . S
C220 H236 0.931 . S
C221 C220 1.391 . S
C221 C225 1.376 . S
C222 C220 1.394 . S
C222 C223 1.369 . S
C222 C226 1.531 . S
C223 C222 1.369 . S
C223 C224 1.410 . S
C223 C231 1.503 . S
C224 C223 1.410 . S
C224 C225 1.392 . S
C224 C227 1.511 . S
C225 C221 1.376 . S
C225 C224 1.392 . S
C225 H237 0.929 . S
C226 C222 1.531 . S
C226 H238 0.960 . S
C226 H239 0.962 . S
C226 H240 0.960 . S
C227 C224 1.511 . S
C227 H241 0.961 . S
C227 H242 0.961 . S
C227 H243 0.961 . S
C228 C229 1.370 . S
C228 C230 1.363 . S
C228 H244 0.931 . S
C229 C228 1.370 . S
C229 C233 1.408 . S
C230 C228 1.363 . S
C230 C231 1.370 . S
C230 C234 1.524 . S
C231 C223 1.503 . S
C231 C230 1.370 . S
C231 C232 1.403 . S
C232 C231 1.403 . S
C232 C233 1.404 . S
C232 C235 1.539 . S
C233 C229 1.408 . S
C233 C232 1.404 . S
C233 H245 0.930 . S
C234 C230 1.524 . S
C234 H246 0.956 . S
C234 H247 0.961 . S
C234 H248 0.961 . S
C235 C232 1.539 . S
C235 H249 0.958 . S
C235 H250 0.961 . S
C235 H251 0.960 . S
H236 C220 0.931 . S
H237 C225 0.929 . S
H238 C226 0.960 . S
H239 C226 0.962 . S
H240 C226 0.960 . S
H241 C227 0.961 . S
H242 C227 0.961 . S
H243 C227 0.961 . S
H244 C228 0.931 . S
H245 C233 0.930 . S
H246 C234 0.956 . S
H247 C234 0.961 . S
H248 C234 0.961 . S
H249 C235 0.958 . S
H250 C235 0.961 . S
H251 C235 0.960 . S
C252 C253 1.391 1_556 S
C252 C254 1.394 . S
C252 H268 0.931 . S
C253 C252 1.391 1_554 S
C253 C257 1.376 . S
C254 C252 1.394 . S
C254 C255 1.369 . S
C254 C258 1.531 . S
C255 C254 1.369 . S
C255 C256 1.410 1_556 S
C255 C263 1.503 . S
C256 C255 1.410 1_554 S
C256 C257 1.392 . S
C256 C259 1.511 . S
C257 C253 1.376 . S
C257 C256 1.392 . S
C257 H269 0.929 . S
C258 C254 1.531 . S
C258 H270 0.960 . S
C258 H271 0.962 . S
C258 H272 0.960 . S
C259 C256 1.511 . S
C259 H273 0.961 . S
C259 H274 0.961 . S
C259 H275 0.961 . S
C260 C261 1.370 . S
C260 C262 1.363 . S
C260 H276 0.931 . S
C261 C260 1.370 . S
C261 C265 1.408 1_554 S
C262 C260 1.363 . S
C262 C263 1.370 1_554 S
C262 C266 1.524 . S
C263 C255 1.503 . S
C263 C262 1.370 1_556 S
C263 C264 1.403 . S
C264 C263 1.403 . S
C264 C265 1.404 . S
C264 C267 1.539 . S
C265 C261 1.408 1_556 S
C265 C264 1.404 . S
C265 H277 0.930 . S
C266 C262 1.524 . S
C266 H278 0.956 . S
C266 H279 0.961 . S
C266 H280 0.961 . S
C267 C264 1.539 . S
C267 H281 0.958 . S
C267 H282 0.961 . S
C267 H283 0.960 . S
H268 C252 0.931 . S
H269 C257 0.929 . S
H270 C258 0.960 . S
H271 C258 0.962 . S
H272 C258 0.960 . S
H273 C259 0.961 . S
H274 C259 0.961 . S
H275 C259 0.961 . S
H276 C260 0.931 . S
H277 C265 0.930 . S
H278 C266 0.956 . S
H279 C266 0.961 . S
H280 C266 0.961 . S
H281 C267 0.958 . S
H282 C267 0.961 . S
H283 C267 0.960 . S
C284 C285 1.391 . S
C284 C286 1.394 . S
C284 H300 0.931 . S
C285 C284 1.391 . S
C285 C289 1.376 . S
C286 C284 1.394 . S
C286 C287 1.369 . S
C286 C290 1.531 . S
C287 C286 1.369 . S
C287 C288 1.410 . S
C287 C295 1.503 . S
C288 C287 1.410 . S
C288 C289 1.392 . S
C288 C291 1.511 . S
C289 C285 1.376 . S
C289 C288 1.392 . S
C289 H301 0.929 . S
C290 C286 1.531 . S
C290 H302 0.960 . S
C290 H303 0.962 . S
C290 H304 0.960 . S
C291 C288 1.511 . S
C291 H305 0.961 . S
C291 H306 0.961 . S
C291 H307 0.961 . S
C292 C293 1.370 . S
C292 C294 1.363 . S
C292 H308 0.931 . S
C293 C292 1.370 . S
C293 C297 1.408 . S
C294 C292 1.363 . S
C294 C295 1.370 . S
C294 C298 1.524 . S
C295 C287 1.503 . S
C295 C294 1.370 . S
C295 C296 1.403 . S
C296 C295 1.403 . S
C296 C297 1.404 . S
C296 C299 1.539 . S
C297 C293 1.408 . S
C297 C296 1.404 . S
C297 H309 0.930 . S
C298 C294 1.524 . S
C298 H310 0.956 . S
C298 H311 0.961 . S
C298 H312 0.961 . S
C299 C296 1.539 . S
C299 H313 0.958 . S
C299 H314 0.961 . S
C299 H315 0.960 . S
H300 C284 0.931 . S
H301 C289 0.929 . S
H302 C290 0.960 . S
H303 C290 0.962 . S
H304 C290 0.960 . S
H305 C291 0.961 . S
H306 C291 0.961 . S
H307 C291 0.961 . S
H308 C292 0.931 . S
H309 C297 0.930 . S
H310 C298 0.956 . S
H311 C298 0.961 . S
H312 C298 0.961 . S
H313 C299 0.958 . S
H314 C299 0.961 . S
H315 C299 0.960 . S
C316 C317 1.391 1_556 S
C316 C318 1.394 . S
C316 H332 0.931 . S
C317 C316 1.391 1_554 S
C317 C321 1.376 . S
C318 C316 1.394 . S
C318 C319 1.369 1_556 S
C318 C322 1.531 . S
C319 C318 1.369 1_554 S
C319 C320 1.410 . S
C319 C327 1.503 1_445 S
C320 C319 1.410 . S
C320 C321 1.392 . S
C320 C323 1.511 . S
C321 C317 1.376 . S
C321 C320 1.392 . S
C321 H333 0.929 . S
C322 C318 1.531 . S
C322 H334 0.960 1_545 S
C322 H335 0.962 1_455 S
C322 H336 0.960 . S
C323 C320 1.511 . S
C323 H337 0.961 . S
C323 H338 0.971 1_455 S
C323 H339 0.961 1_545 S
C324 C325 1.370 . S
C324 C326 1.363 . S
C324 H340 0.931 . S
C325 C324 1.370 . S
C325 C329 1.408 . S
C326 C324 1.363 . S
C326 C327 1.370 . S
C326 C330 1.524 1_565 S
C327 C319 1.503 1_665 S
C327 C326 1.370 . S
C327 C328 1.403 1_655 S
C328 C327 1.403 1_455 S
C328 C329 1.404 1_455 S
C328 C331 1.539 . S
C329 C325 1.408 . S
C329 C328 1.404 1_655 S
C329 H341 0.930 . S
C330 C326 1.524 1_545 S
C330 H342 0.956 1_554 S
C330 H343 0.961 . S
C330 H344 0.961 . S
C331 C328 1.539 . S
C331 H345 0.958 1_554 S
C331 H346 0.961 . S
C331 H347 0.960 . S
H332 C316 0.931 . S
H333 C321 0.929 . S
H334 C322 0.960 1_565 S
H335 C322 0.962 1_655 S
H336 C322 0.960 . S
H337 C323 0.961 . S
H338 C323 0.971 1_655 S
H339 C323 0.961 1_565 S
H340 C324 0.931 . S
H341 C329 0.930 . S
H342 C330 0.956 1_556 S
H343 C330 0.961 . S
H344 C330 0.961 . S
H345 C331 0.958 1_556 S
H346 C331 0.961 . S
H347 C331 0.960 . S
C348 C349 1.391 . S
C348 C350 1.394 . S
C348 H364 0.931 . S
C349 C348 1.391 . S
C349 C353 1.376 . S
C350 C348 1.394 . S
C350 C351 1.369 . S
C350 C354 1.531 1_545 S
C351 C350 1.369 . S
C351 C352 1.410 1_655 S
C351 C359 1.503 1_645 S
C352 C351 1.410 1_455 S
C352 C353 1.392 1_455 S
C352 C355 1.511 . S
C353 C349 1.376 . S
C353 C352 1.392 1_655 S
C353 H365 0.929 . S
C354 C350 1.531 1_565 S
C354 H366 0.960 . S
C354 H367 0.962 . S
C354 H368 0.960 . S
C355 C352 1.511 . S
C355 H369 0.961 . S
C355 H370 0.961 . S
C355 H371 0.961 . S
C356 C357 1.370 . S
C356 C358 1.363 . S
C356 H372 0.931 . S
C357 C356 1.370 . S
C357 C361 1.408 . S
C358 C356 1.363 . S
C358 C359 1.370 . S
C358 C362 1.524 1_455 S
C359 C351 1.503 1_465 S
C359 C358 1.370 . S
C359 C360 1.403 . S
C360 C359 1.403 . S
C360 C361 1.404 . S
C360 C363 1.539 . S
C361 C357 1.408 . S
C361 C360 1.404 . S
C361 H373 0.930 . S
C362 C358 1.524 1_655 S
C362 H374 0.956 . S
C362 H375 0.961 . S
C362 H376 0.961 . S
C363 C360 1.539 . S
C363 H377 0.958 . S
C363 H378 0.961 . S
C363 H379 0.960 1_565 S
H364 C348 0.931 . S
H365 C353 0.929 . S
H366 C354 0.960 . S
H367 C354 0.962 . S
H368 C354 0.960 . S
H369 C355 0.961 . S
H370 C355 0.961 . S
H371 C355 0.961 . S
H372 C356 0.931 . S
H373 C361 0.930 . S
H374 C362 0.956 . S
H375 C362 0.961 . S
H376 C362 0.961 . S
H377 C363 0.958 . S
H378 C363 0.961 . S
H379 C363 0.960 1_545 S
C380 C381 1.391 . S
C380 C382 1.394 . S
C380 H396 0.931 . S
C381 C380 1.391 . S
C381 C385 1.376 . S
C382 C380 1.394 . S
C382 C383 1.369 . S
C382 C386 1.531 . S
C383 C382 1.369 . S
C383 C384 1.410 . S
C383 C391 1.503 . S
C384 C383 1.410 . S
C384 C385 1.392 . S
C384 C387 1.511 . S
C385 C381 1.376 . S
C385 C384 1.392 . S
C385 H397 0.929 . S
C386 C382 1.531 . S
C386 H398 0.960 . S
C386 H399 0.962 . S
C386 H400 0.960 . S
C387 C384 1.511 . S
C387 H401 0.961 . S
C387 H402 0.961 . S
C387 H403 0.961 . S
C388 C389 1.370 . S
C388 C390 1.363 . S
C388 H404 0.931 . S
C389 C388 1.370 . S
C389 C393 1.408 . S
C390 C388 1.363 . S
C390 C391 1.370 . S
C390 C394 1.524 . S
C391 C383 1.503 . S
C391 C390 1.370 . S
C391 C392 1.403 . S
C392 C391 1.403 . S
C392 C393 1.404 . S
C392 C395 1.539 . S
C393 C389 1.408 . S
C393 C392 1.404 . S
C393 H405 0.930 . S
C394 C390 1.524 . S
C394 H406 0.956 . S
C394 H407 0.961 . S
C394 H408 0.961 . S
C395 C392 1.539 . S
C395 H409 0.958 . S
C395 H410 0.961 . S
C395 H411 0.960 . S
H396 C380 0.931 . S
H397 C385 0.929 . S
H398 C386 0.960 . S
H399 C386 0.962 . S
H400 C386 0.960 . S
H401 C387 0.961 . S
H402 C387 0.961 . S
H403 C387 0.961 . S
H404 C388 0.931 . S
H405 C393 0.930 . S
H406 C394 0.956 . S
H407 C394 0.961 . S
H408 C394 0.961 . S
H409 C395 0.958 . S
H410 C395 0.961 . S
H411 C395 0.960 . S
C412 C413 1.391 . S
C412 C414 1.394 . S
C412 H428 0.931 . S
C413 C412 1.391 . S
C413 C417 1.376 . S
C414 C412 1.394 . S
C414 C415 1.369 . S
C414 C418 1.531 . S
C415 C414 1.369 . S
C415 C416 1.410 . S
C415 C423 1.503 . S
C416 C415 1.410 . S
C416 C417 1.392 . S
C416 C419 1.511 . S
C417 C413 1.376 . S
C417 C416 1.392 . S
C417 H429 0.929 . S
C418 C414 1.531 . S
C418 H430 0.960 . S
C418 H431 0.962 . S
C418 H432 0.960 . S
C419 C416 1.511 . S
C419 H433 0.961 . S
C419 H434 0.961 . S
C419 H435 0.961 . S
C420 C421 1.370 . S
C420 C422 1.363 . S
C420 H436 0.931 . S
C421 C420 1.370 . S
C421 C425 1.408 . S
C422 C420 1.363 . S
C422 C423 1.370 . S
C422 C426 1.524 . S
C423 C415 1.503 . S
C423 C422 1.370 . S
C423 C424 1.403 . S
C424 C423 1.403 . S
C424 C425 1.404 . S
C424 C427 1.539 . S
C425 C421 1.408 . S
C425 C424 1.404 . S
C425 H437 0.930 . S
C426 C422 1.524 . S
C426 H438 0.956 . S
C426 H439 0.961 . S
C426 H440 0.961 . S
C427 C424 1.539 . S
C427 H441 0.958 . S
C427 H442 0.961 . S
C427 H443 0.960 . S
H428 C412 0.931 . S
H429 C417 0.929 . S
H430 C418 0.960 . S
H431 C418 0.962 . S
H432 C418 0.960 . S
H433 C419 0.961 . S
H434 C419 0.961 . S
H435 C419 0.961 . S
H436 C420 0.931 . S
H437 C425 0.930 . S
H438 C426 0.956 . S
H439 C426 0.961 . S
H440 C426 0.961 . S
H441 C427 0.958 . S
H442 C427 0.961 . S
H443 C427 0.960 . S
C444 C445 1.391 . S
C444 C446 1.394 . S
C444 H460 0.931 . S
C445 C444 1.391 . S
C445 C449 1.376 . S
C446 C444 1.394 . S
C446 C447 1.369 . S
C446 C450 1.531 . S
C447 C446 1.369 . S
C447 C448 1.410 . S
C447 C455 1.503 . S
C448 C447 1.410 . S
C448 C449 1.392 . S
C448 C451 1.511 . S
C449 C445 1.376 . S
C449 C448 1.392 . S
C449 H461 0.929 . S
C450 C446 1.531 . S
C450 H462 0.960 . S
C450 H463 0.962 . S
C450 H464 0.960 . S
C451 C448 1.511 . S
C451 H465 0.961 . S
C451 H466 0.961 . S
C451 H467 0.961 . S
C452 C453 1.370 . S
C452 C454 1.363 . S
C452 H468 0.931 . S
C453 C452 1.370 . S
C453 C457 1.408 . S
C454 C452 1.363 . S
C454 C455 1.370 . S
C454 C458 1.524 . S
C455 C447 1.503 . S
C455 C454 1.370 . S
C455 C456 1.403 . S
C456 C455 1.403 . S
C456 C457 1.404 . S
C456 C459 1.539 . S
C457 C453 1.408 . S
C457 C456 1.404 . S
C457 H469 0.930 . S
C458 C454 1.524 . S
C458 H470 0.956 . S
C458 H471 0.961 . S
C458 H472 0.961 . S
C459 C456 1.539 . S
C459 H473 0.958 . S
C459 H474 0.961 . S
C459 H475 0.960 . S
H460 C444 0.931 . S
H461 C449 0.929 . S
H462 C450 0.960 . S
H463 C450 0.962 . S
H464 C450 0.960 . S
H465 C451 0.961 . S
H466 C451 0.961 . S
H467 C451 0.961 . S
H468 C452 0.931 . S
H469 C457 0.930 . S
H470 C458 0.956 . S
H471 C458 0.961 . S
H472 C458 0.961 . S
H473 C459 0.958 . S
H474 C459 0.961 . S
H475 C459 0.960 . S
C476 C477 1.391 . S
C476 C478 1.394 . S
C476 H492 0.931 . S
C477 C476 1.391 . S
C477 C481 1.376 . S
C478 C476 1.394 . S
C478 C479 1.369 . S
C478 C482 1.531 . S
C479 C478 1.369 . S
C479 C480 1.410 . S
C479 C487 1.503 . S
C480 C479 1.410 . S
C480 C481 1.392 . S
C480 C483 1.511 . S
C481 C477 1.376 . S
C481 C480 1.392 . S
C481 H493 0.929 . S
C482 C478 1.531 . S
C482 H494 0.960 . S
C482 H495 0.962 . S
C482 H496 0.960 . S
C483 C480 1.511 . S
C483 H497 0.961 . S
C483 H498 0.961 . S
C483 H499 0.961 . S
C484 C485 1.370 . S
C484 C486 1.363 . S
C484 H500 0.931 . S
C485 C484 1.370 . S
C485 C489 1.408 . S
C486 C484 1.363 . S
C486 C487 1.370 . S
C486 C490 1.524 . S
C487 C479 1.503 . S
C487 C486 1.370 . S
C487 C488 1.403 . S
C488 C487 1.403 . S
C488 C489 1.404 . S
C488 C491 1.539 . S
C489 C485 1.408 . S
C489 C488 1.404 . S
C489 H501 0.930 . S
C490 C486 1.524 . S
C490 H502 0.956 . S
C490 H503 0.961 . S
C490 H504 0.961 . S
C491 C488 1.539 . S
C491 H505 0.958 . S
C491 H506 0.961 . S
C491 H507 0.960 . S
H492 C476 0.931 . S
H493 C481 0.929 . S
H494 C482 0.960 . S
H495 C482 0.962 . S
H496 C482 0.960 . S
H497 C483 0.961 . S
H498 C483 0.961 . S
H499 C483 0.961 . S
H500 C484 0.931 . S
H501 C489 0.930 . S
H502 C490 0.956 . S
H503 C490 0.961 . S
H504 C490 0.961 . S
H505 C491 0.958 . S
H506 C491 0.961 . S
H507 C491 0.960 . S
C508 C509 1.391 . S
C508 C510 1.394 1_455 S
C508 H524 0.931 1_455 S
C509 C508 1.391 . S
C509 C513 1.376 . S
C510 C508 1.394 1_655 S
C510 C511 1.369 1_655 S
C510 C514 1.531 . S
C511 C510 1.369 1_455 S
C511 C512 1.410 . S
C511 C519 1.503 1_455 S
C512 C511 1.410 . S
C512 C513 1.392 . S
C512 C515 1.511 . S
C513 C509 1.376 . S
C513 C512 1.392 . S
C513 H525 0.929 . S
C514 C510 1.531 . S
C514 H526 0.960 . S
C514 H527 0.962 . S
C514 H528 0.960 . S
C515 C512 1.511 . S
C515 H529 0.961 . S
C515 H530 0.961 . S
C515 H531 0.961 . S
C516 C517 1.370 . S
C516 C518 1.363 . S
C516 H532 0.931 . S
C517 C516 1.370 . S
C517 C521 1.408 . S
C518 C516 1.363 . S
C518 C519 1.370 . S
C518 C522 1.524 . S
C519 C511 1.503 1_655 S
C519 C518 1.370 . S
C519 C520 1.403 1_655 S
C520 C519 1.403 1_455 S
C520 C521 1.404 1_455 S
C520 C523 1.539 . S
C521 C517 1.408 . S
C521 C520 1.404 1_655 S
C521 H533 0.930 . S
C522 C518 1.524 . S
C522 H534 0.956 . S
C522 H535 0.961 1_655 S
C522 H536 0.961 . S
C523 C520 1.539 . S
C523 H537 0.958 . S
C523 H538 0.961 . S
C523 H539 0.960 . S
H524 C508 0.931 1_655 S
H525 C513 0.929 . S
H526 C514 0.960 . S
H527 C514 0.962 . S
H528 C514 0.960 . S
H529 C515 0.961 . S
H530 C515 0.961 . S
H531 C515 0.961 . S
H532 C516 0.931 . S
H533 C521 0.930 . S
H534 C522 0.956 . S
H535 C522 0.961 1_455 S
H536 C522 0.961 . S
H537 C523 0.958 . S
H538 C523 0.961 . S
H539 C523 0.960 . S
C540 C541 1.391 1_455 S
C540 C542 1.394 . S
C540 H556 0.931 . S
C541 C540 1.391 1_655 S
C541 C545 1.376 . S
C542 C540 1.394 . S
C542 C543 1.369 1_455 S
C542 C546 1.531 . S
C543 C542 1.369 1_655 S
C543 C544 1.410 . S
C543 C551 1.503 1_655 S
C544 C543 1.410 . S
C544 C545 1.392 . S
C544 C547 1.511 . S
C545 C541 1.376 . S
C545 C544 1.392 . S
C545 H557 0.929 . S
C546 C542 1.531 . S
C546 H558 0.960 . S
C546 H559 0.962 . S
C546 H560 0.960 . S
C547 C544 1.511 . S
C547 H561 0.961 . S
C547 H562 0.961 . S
C547 H563 0.961 . S
C548 C549 1.370 . S
C548 C550 1.363 . S
C548 H564 0.931 . S
C549 C548 1.370 . S
C549 C553 1.408 . S
C550 C548 1.363 . S
C550 C551 1.370 . S
C550 C554 1.524 . S
C551 C543 1.503 1_455 S
C551 C550 1.370 . S
C551 C552 1.403 1_455 S
C552 C551 1.403 1_655 S
C552 C553 1.404 1_655 S
C552 C555 1.539 . S
C553 C549 1.408 . S
C553 C552 1.404 1_455 S
C553 H565 0.927 1_455 S
C554 C550 1.524 . S
C554 H566 0.956 . S
C554 H567 0.961 . S
C554 H568 0.961 . S
C555 C552 1.539 . S
C555 H569 0.958 . S
C555 H570 0.961 . S
C555 H571 0.960 . S
H556 C540 0.931 . S
H557 C545 0.929 . S
H558 C546 0.960 . S
H559 C546 0.962 . S
H560 C546 0.960 . S
H561 C547 0.961 . S
H562 C547 0.961 . S
H563 C547 0.961 . S
H564 C548 0.931 . S
H565 C553 0.927 1_655 S
H566 C554 0.956 . S
H567 C554 0.961 . S
H568 C554 0.961 . S
H569 C555 0.958 . S
H570 C555 0.961 . S
H571 C555 0.960 . S
C572 C573 1.391 . S
C572 C574 1.394 . S
C572 H588 0.931 . S
C573 C572 1.391 . S
C573 C577 1.376 . S
C574 C572 1.394 . S
C574 C575 1.369 . S
C574 C578 1.531 . S
C575 C574 1.369 . S
C575 C576 1.410 . S
C575 C583 1.503 1_455 S
C576 C575 1.410 . S
C576 C577 1.392 . S
C576 C579 1.511 . S
C577 C573 1.376 . S
C577 C576 1.392 . S
C577 H589 0.929 . S
C578 C574 1.531 . S
C578 H590 0.960 . S
C578 H591 0.962 1_455 S
C578 H592 0.960 . S
C579 C576 1.511 . S
C579 H593 0.961 . S
C579 H594 0.961 . S
C579 H595 0.961 . S
C580 C581 1.370 . S
C580 C582 1.363 . S
C580 H596 0.931 . S
C581 C580 1.370 . S
C581 C585 1.408 1_655 S
C582 C580 1.363 . S
C582 C583 1.370 . S
C582 C586 1.524 . S
C583 C575 1.503 1_655 S
C583 C582 1.370 . S
C583 C584 1.403 1_655 S
C584 C583 1.403 1_455 S
C584 C585 1.404 . S
C584 C587 1.539 . S
C585 C581 1.408 1_455 S
C585 C584 1.404 . S
C585 H597 0.930 . S
C586 C582 1.524 . S
C586 H598 0.956 . S
C586 H599 0.961 . S
C586 H600 0.961 . S
C587 C584 1.539 . S
C587 H601 0.958 . S
C587 H602 0.961 . S
C587 H603 0.960 . S
H588 C572 0.931 . S
H589 C577 0.929 . S
H590 C578 0.960 . S
H591 C578 0.962 1_655 S
H592 C578 0.960 . S
H593 C579 0.961 . S
H594 C579 0.961 . S
H595 C579 0.961 . S
H596 C580 0.931 . S
H597 C585 0.930 . S
H598 C586 0.956 . S
H599 C586 0.961 . S
H600 C586 0.961 . S
H601 C587 0.958 . S
H602 C587 0.961 . S
H603 C587 0.960 . S
C604 C605 1.391 . S
C604 C606 1.394 1_455 S
C604 H620 0.931 1_455 S
C605 C604 1.391 . S
C605 C609 1.376 . S
C606 C604 1.394 1_655 S
C606 C607 1.369 1_655 S
C606 C610 1.531 . S
C607 C606 1.369 1_455 S
C607 C608 1.410 . S
C607 C615 1.503 1_455 S
C608 C607 1.410 . S
C608 C609 1.392 . S
C608 C611 1.511 . S
C609 C605 1.376 . S
C609 C608 1.392 . S
C609 H621 0.929 . S
C610 C606 1.531 . S
C610 H622 0.960 . S
C610 H623 0.962 . S
C610 H624 0.960 . S
C611 C608 1.511 . S
C611 H625 0.961 . S
C611 H626 0.961 . S
C611 H627 0.961 . S
C612 C613 1.370 . S
C612 C614 1.363 . S
C612 H628 0.931 . S
C613 C612 1.370 . S
C613 C617 1.408 . S
C614 C612 1.363 . S
C614 C615 1.370 . S
C614 C618 1.524 . S
C615 C607 1.503 1_655 S
C615 C614 1.370 . S
C615 C616 1.403 1_655 S
C616 C615 1.403 1_455 S
C616 C617 1.404 1_455 S
C616 C619 1.539 . S
C617 C613 1.408 . S
C617 C616 1.404 1_655 S
C617 H629 0.930 1_655 S
C618 C614 1.524 . S
C618 H630 0.956 . S
C618 H631 0.961 . S
C618 H632 0.961 . S
C619 C616 1.539 . S
C619 H633 0.958 . S
C619 H634 0.961 . S
C619 H635 0.960 . S
H620 C604 0.931 1_655 S
H621 C609 0.929 . S
H622 C610 0.960 . S
H623 C610 0.962 . S
H624 C610 0.960 . S
H625 C611 0.961 . S
H626 C611 0.961 . S
H627 C611 0.961 . S
H628 C612 0.931 . S
H629 C617 0.930 1_455 S
H630 C618 0.956 . S
H631 C618 0.961 . S
H632 C618 0.961 . S
H633 C619 0.958 . S
H634 C619 0.961 . S
H635 C619 0.960 . S
C125 C0 1.466 1_556 S
C133 C10 1.454 1_654 S
C157 C31 1.449 1_455 S
C165 C41 1.454 1_554 S
C189 C62 1.479 . S
C197 C72 1.447 1_655 S
C221 C93 1.488 1_455 S
C229 C103 1.438 . S
C253 C50 1.534 1_554 S
C261 C30 1.563 . S
C285 C112 1.570 . S
C293 C92 1.554 . S
C317 C19 1.548 1_554 S
C325 C61 1.555 . S
C349 C123 1.536 . S
C357 C81 1.562 . S
C381 C95 1.148 . S
C389 C1 1.172 . S
C413 C33 1.154 . S
C421 C63 1.170 . S
C445 C91 1.192 . S
C453 C51 1.233 . S
C477 C29 1.211 . S
C485 C113 1.252 . S
C509 C64 1.154 . S
C517 C32 1.170 . S
C541 C94 1.136 . S
C549 C2 1.172 . S
C573 C20 1.192 . S
C581 C122 1.256 . S
C605 C82 1.182 . S
C613 C60 1.246 . S
