# Generated by pormake.
# Topology vmh, (6)-cn, num edge types: 1
# Building blocks:
#     Node 0, Type 0, BuildingBlock: IZENUY_clean_sbu_0, # of connection points: 6
#     Node 1, Type 0, BuildingBlock: IZENUY_clean_sbu_0, # of connection points: 6
#     Node 2, Type 0, BuildingBlock: IZENUY_clean_sbu_0, # of connection points: 6
#     Node 3, Type 0, BuildingBlock: IZENUY_clean_sbu_0, # of connection points: 6
#     Node 4, Type 0, BuildingBlock: IZENUY_clean_sbu_0, # of connection points: 6
#     Node 5, Type 0, BuildingBlock: IZENUY_clean_sbu_0, # of connection points: 6
#     Node 6, Type 0, BuildingBlock: IZENUY_clean_sbu_0, # of connection points: 6
#     Node 7, Type 0, BuildingBlock: IZENUY_clean_sbu_0, # of connection points: 6
#     Edge 8, Type (0, 0), BuildingBlock: CIFDUS_clean_linker_0, # of connection points: 2
#     Edge 9, Type (0, 0), BuildingBlock: CIFDUS_clean_linker_0, # of connection points: 2
#     Edge 10, Type (0, 0), BuildingBlock: CIFDUS_clean_linker_0, # of connection points: 2
#     Edge 11, Type (0, 0), BuildingBlock: CIFDUS_clean_linker_0, # of connection points: 2
#     Edge 12, Type (0, 0), BuildingBlock: CIFDUS_clean_linker_0, # of connection points: 2
#     Edge 13, Type (0, 0), BuildingBlock: CIFDUS_clean_linker_0, # of connection points: 2
#     Edge 14, Type (0, 0), BuildingBlock: CIFDUS_clean_linker_0, # of connection points: 2
#     Edge 15, Type (0, 0), BuildingBlock: CIFDUS_clean_linker_0, # of connection points: 2
#     Edge 16, Type (0, 0), BuildingBlock: CIFDUS_clean_linker_0, # of connection points: 2
#     Edge 17, Type (0, 0), BuildingBlock: CIFDUS_clean_linker_0, # of connection points: 2
#     Edge 18, Type (0, 0), BuildingBlock: CIFDUS_clean_linker_0, # of connection points: 2
#     Edge 19, Type (0, 0), BuildingBlock: CIFDUS_clean_linker_0, # of connection points: 2
#     Edge 20, Type (0, 0), BuildingBlock: CIFDUS_clean_linker_0, # of connection points: 2
#     Edge 21, Type (0, 0), BuildingBlock: CIFDUS_clean_linker_0, # of connection points: 2
#     Edge 22, Type (0, 0), BuildingBlock: CIFDUS_clean_linker_0, # of connection points: 2
#     Edge 23, Type (0, 0), BuildingBlock: CIFDUS_clean_linker_0, # of connection points: 2
#     Edge 24, Type (0, 0), BuildingBlock: CIFDUS_clean_linker_0, # of connection points: 2
#     Edge 25, Type (0, 0), BuildingBlock: CIFDUS_clean_linker_0, # of connection points: 2
#     Edge 26, Type (0, 0), BuildingBlock: CIFDUS_clean_linker_0, # of connection points: 2
#     Edge 27, Type (0, 0), BuildingBlock: CIFDUS_clean_linker_0, # of connection points: 2
#     Edge 28, Type (0, 0), BuildingBlock: CIFDUS_clean_linker_0, # of connection points: 2
#     Edge 29, Type (0, 0), BuildingBlock: CIFDUS_clean_linker_0, # of connection points: 2
#     Edge 30, Type (0, 0), BuildingBlock: CIFDUS_clean_linker_0, # of connection points: 2
#     Edge 31, Type (0, 0), BuildingBlock: CIFDUS_clean_linker_0, # of connection points: 2
# Relax obj value: 0.247
# Max RMSD: 0.263
# Mean RMSD: 0.263
data_MOF--net-vmh--node1-IZENUY_clean_sbu_0--edge1-CIFDUS_clean_linker_0
_symmetry_space_group_name_H-M    P1
_symmetry_Int_Tables_number       1
_symmetry_cell_setting            triclinic
loop_
_symmetry_equiv_pos_as_xyz
'x, y, z'
_cell_length_a     24.664583
_cell_length_b     37.897833
_cell_length_c     25.346239
_cell_angle_alpha  90.164618
_cell_angle_beta   106.13422
_cell_angle_gamma 89.861238
loop_
_atom_site_label
_atom_site_type_symbol
_atom_site_fract_x
_atom_site_fract_y
_atom_site_fract_z
_atom_type_partial_charge
Fe0 Fe 0.2741 0.10156 0.11156 0.0
Fe1 Fe 0.27173 0.03584 0.03796 0.0
O2 O 0.29269 0.07996 0.05681 0.0
Fe3 Fe 0.33421 0.10203 0.02048 0.0
O4 O 0.39232 0.10454 0.08134 0.0
O5 O 0.34416 0.12394 0.13727 0.0
O6 O 0.30449 0.06695 0.15978 0.0
C7 C 0.29489 0.03445 0.15417 0.0
C8 C 0.27061 0.1587 0.04495 0.0
O9 O 0.2729 0.02095 0.10748 0.0
C10 C 0.25927 0.07086 0.93554 0.0
O11 O 0.20201 0.08071 0.09512 0.0
O12 O 0.19887 0.04754 0.02248 0.0
O13 O 0.31218 0.14614 0.03188 0.0
O14 O 0.24289 0.1396 0.06908 0.0
C15 C 0.37845 0.03446 0.02953 0.0
O16 O 0.26521 0.04295 0.96442 0.0
O17 O 0.27804 0.10007 0.95702 0.0
C18 C 0.17503 0.06063 0.05578 0.0
O19 O 0.34454 0.02082 0.05251 0.0
O20 O 0.36588 0.06251 1.00266 0.0
C21 C 0.39112 0.11797 0.12654 0.0
Fe22 Fe 0.7802 0.11519 0.40874 0.0
Fe23 Fe 0.76803 0.0423 0.45947 0.0
O24 O 0.75097 0.08792 0.4504 0.0
Fe25 Fe 0.70304 0.10599 0.48399 0.0
O26 O 0.65261 0.11491 0.4197 0.0
O27 O 0.71195 0.13888 0.37842 0.0
O28 O 0.75819 0.08634 0.35037 0.0
C29 C 0.76756 0.05392 0.34802 0.0
C30 C 0.77341 0.16454 0.48571 0.0
O31 O 0.77768 0.03483 0.39055 0.0
C32 C 0.76605 0.06641 0.56617 0.0
O33 O 0.85163 0.09387 0.43131 0.0
O34 O 0.84177 0.05148 0.48778 0.0
O35 O 0.72794 0.15094 0.48802 0.0
O36 O 0.80532 0.14817 0.4628 0.0
C37 C 0.65674 0.03986 0.45213 0.0
O38 O 0.76303 0.04171 0.53115 0.0
O39 O 0.75203 0.09753 0.55042 0.0
C40 C 0.87257 0.06952 0.46603 0.0
O41 O 0.69449 0.02937 0.43113 0.0
O42 O 0.66609 0.06508 0.48572 0.0
C43 C 0.66173 0.13203 0.38052 0.0
Fe44 Fe 0.76802 0.98674 0.96226 0.0
Fe45 Fe 0.79479 0.91937 0.90725 0.0
O46 O 0.7574 0.94094 0.94851 0.0
Fe47 Fe 0.70781 0.91706 0.97327 0.0
O48 O 0.65148 0.94648 0.94068 0.0
O49 O 0.69651 0.99608 0.96504 0.0
O50 O 0.74539 0.99733 0.88891 0.0
C51 C 0.76818 0.98401 0.85459 0.0
C52 C 0.7623 0.96234 0.06265 0.0
O53 O 0.80152 0.95826 0.86769 0.0
C54 C 0.78475 0.86518 0.9821 0.0
O55 O 0.84238 0.98556 0.96364 0.0
O56 O 0.86302 0.92923 0.95773 0.0
O57 O 0.72349 0.94104 0.03889 0.0
O58 O 0.79024 0.97923 0.03598 0.0
C59 C 0.684 0.89727 0.86301 0.0
O60 O 0.79422 0.8756 0.93811 0.0
O61 O 0.75967 0.88492 1.00759 0.0
C62 C 0.87814 0.96069 0.97321 0.0
O63 O 0.72813 0.91037 0.85455 0.0
O64 O 0.68329 0.88967 0.91142 0.0
C65 C 0.65115 0.97896 0.94939 0.0
Fe66 Fe 0.26278 0.93555 0.61133 0.0
Fe67 Fe 0.34604 0.92661 0.54241 0.0
O68 O 0.29812 0.95325 0.56564 0.0
Fe69 Fe 0.28747 0.99798 0.54496 0.0
O70 O 0.31195 1.01396 0.61594 0.0
O71 O 0.25907 0.97706 0.64641 0.0
O72 O 0.33048 0.92743 0.66302 0.0
C73 C 0.3723 0.91113 0.65464 0.0
C74 C 0.17746 0.97515 0.54467 0.0
O75 O 0.37108 0.9015 0.60648 0.0
C76 C 0.28941 0.96698 0.44804 0.0
O77 O 0.26056 0.89016 0.58476 0.0
O78 O 0.29268 0.8942 0.51251 0.0
O79 O 0.21361 0.99917 0.54644 0.0
O80 O 0.19319 0.94432 0.56278 0.0
C81 C 0.40428 0.98765 0.55793 0.0
O82 O 0.33032 0.94766 0.4739 0.0
O83 O 0.26173 0.98509 0.47349 0.0
C84 C 0.26786 0.87692 0.54121 0.0
O85 O 0.40285 0.95621 0.57206 0.0
O86 O 0.35914 1.0047 0.53795 0.0
C87 C 0.28773 1.00508 0.65184 0.0
Fe88 Fe 0.75794 0.61074 0.12557 0.0
Fe89 Fe 0.77778 0.53899 0.07396 0.0
O90 O 0.78996 0.58523 0.0835 0.0
Fe91 Fe 0.83661 0.60579 0.05073 0.0
O92 O 0.8862 0.61526 0.11672 0.0
O93 O 0.82365 0.6359 0.1572 0.0
O94 O 0.7812 0.58143 0.18314 0.0
C95 C 0.7758 0.54857 0.18468 0.0
C96 C 0.76125 0.66182 0.05041 0.0
O97 O 0.76992 0.52976 0.14239 0.0
C98 C 0.77386 0.56491 0.96794 0.0
O99 O 0.68873 0.58792 0.10145 0.0
O100 O 0.70273 0.54516 0.04696 0.0
O101 O 0.80769 0.6496 0.04802 0.0
O102 O 0.73058 0.64428 0.07297 0.0
C103 C 0.88944 0.54149 0.07979 0.0
O104 O 0.78101 0.54004 1.00272 0.0
O105 O 0.78902 0.59625 0.9829 0.0
C106 C 0.67012 0.56316 0.0669 0.0
O107 O 0.85302 0.52853 0.10053 0.0
O108 O 0.87671 0.56685 0.04715 0.0
C109 C 0.87475 0.63011 0.15714 0.0
Fe110 Fe 0.27898 0.61554 0.4255 0.0
Fe111 Fe 0.26053 0.54665 0.4838 0.0
O112 O 0.24886 0.59267 0.47153 0.0
Fe113 Fe 0.20438 0.61553 0.50445 0.0
O114 O 0.15367 0.62424 0.43879 0.0
O115 O 0.21485 0.64243 0.39574 0.0
O116 O 0.24929 0.58525 0.37041 0.0
C117 C 0.25227 0.55223 0.37018 0.0
C118 C 0.28255 0.66904 0.49864 0.0
O119 O 0.26568 0.53497 0.41453 0.0
C120 C 0.26262 0.57522 0.58959 0.0
O121 O 0.34689 0.59077 0.44673 0.0
O122 O 0.33574 0.55265 0.50873 0.0
O123 O 0.23634 0.65837 0.50437 0.0
O124 O 0.31096 0.64962 0.47568 0.0
C125 C 0.14955 0.55101 0.48029 0.0
O126 O 0.25822 0.54983 0.55567 0.0
O127 O 0.2523 0.60668 0.57252 0.0
C128 C 0.36688 0.56781 0.48389 0.0
O129 O 0.18522 0.53682 0.45959 0.0
O130 O 0.16232 0.57787 0.51013 0.0
C131 C 0.1641 0.63735 0.3969 0.0
Fe132 Fe 0.25965 0.48995 0.98417 0.0
Fe133 Fe 0.27927 0.41984 0.92798 0.0
O134 O 0.24877 0.44372 0.97297 0.0
Fe135 Fe 0.20493 0.4213 1.0069 0.0
O136 O 0.1639 0.45909 1.0143 0.0
O137 O 0.18389 0.49961 0.96196 0.0
O138 O 0.26239 0.50102 0.91391 0.0
C139 C 0.25237 0.48284 0.8703 0.0
C140 C 0.26578 0.46138 0.09069 0.0
O141 O 0.25142 0.44972 0.8718 0.0
C142 C 0.28124 0.36694 1.00182 0.0
O143 O 0.33513 0.48483 1.00732 0.0
O144 O 0.34758 0.44382 0.94949 0.0
O145 O 0.25451 0.42996 0.07383 0.0
O146 O 0.25987 0.48686 0.0568 0.0
C147 C 0.1637 0.39913 0.90009 0.0
O148 O 0.31023 0.38595 0.97913 0.0
O149 O 0.23486 0.378 1.00617 0.0
C150 C 0.36679 0.46816 0.98456 0.0
O151 O 0.21431 0.39369 0.89835 0.0
O152 O 0.15357 0.41283 0.94189 0.0
C153 C 0.14964 0.48565 0.98448 0.0
Fe154 Fe 0.75631 0.42458 0.6278 0.0
Fe155 Fe 0.83678 0.4231 0.55445 0.0
O156 O 0.78848 0.44654 0.58227 0.0
Fe157 Fe 0.77479 0.49168 0.56414 0.0
O158 O 0.76929 0.50645 0.63102 0.0
O159 O 0.77752 0.45804 0.6806 0.0
O160 O 0.82258 0.4012 0.66392 0.0
C161 C 0.87373 0.40645 0.66369 0.0
C162 C 0.66759 0.46897 0.56269 0.0
O163 O 0.88556 0.41903 0.62204 0.0
C164 C 0.77399 0.45679 0.46364 0.0
O165 O 0.73073 0.38763 0.58001 0.0
O166 O 0.81007 0.37979 0.56008 0.0
O167 O 0.69961 0.48481 0.53958 0.0
O168 O 0.6867 0.44612 0.60006 0.0
C169 C 0.88625 0.48922 0.56881 0.0
O170 O 0.78988 0.42691 0.48499 0.0
O171 O 0.77707 0.48421 0.49342 0.0
C172 C 0.76279 0.36853 0.56084 0.0
O173 O 0.87557 0.46078 0.54309 0.0
O174 O 0.84945 0.50363 0.58748 0.0
C175 C 0.77574 0.49116 0.67644 0.0
H176 H 0.32604 0.09051 0.87236 0.0
H177 H 0.16913 0.03883 0.86719 0.0
H178 H 0.16055 0.01856 0.77355 0.0
H179 H 0.20403 1.00847 0.70001 0.0
H180 H 0.36579 0.05428 0.70693 0.0
H181 H 0.36602 0.08466 0.79294 0.0
C182 C 0.28915 0.0758 0.8498 0.0
C183 C 0.24773 0.06643 0.87589 0.0
C184 C 0.28609 0.06277 0.79703 0.0
C185 C 0.20093 0.04656 0.84736 0.0
C186 C 0.19635 0.03479 0.79416 0.0
C187 C 0.23929 0.02535 0.71998 0.0
C188 C 0.28545 0.02861 0.69784 0.0
C189 C 0.23974 0.04158 0.76965 0.0
C190 C 0.32999 0.05125 0.72341 0.0
C191 C 0.33017 0.06839 0.77265 0.0
H192 H 0.78024 0.05095 0.8187 0.0
H193 H 0.73364 0.94463 0.76412 0.0
H194 H 0.73035 0.96041 0.67039 0.0
H195 H 0.74632 1.00296 0.60503 0.0
H196 H 0.7927 0.10993 0.65635 0.0
H197 H 0.79195 0.09531 0.75032 0.0
C198 C 0.76816 0.03166 0.78585 0.0
C199 C 0.75656 0.99681 0.79788 0.0
C200 C 0.76795 0.04073 0.73187 0.0
C201 C 0.74213 0.97168 0.75549 0.0
C202 C 0.74082 0.98058 0.70201 0.0
C203 C 0.75677 0.02308 0.63677 0.0
C204 C 0.77033 0.05732 0.62389 0.0
C205 C 0.75496 1.01474 0.69 0.0
C206 C 0.78266 0.08322 0.66541 0.0
C207 C 0.78186 0.07494 0.71903 0.0
H208 H 0.74681 0.98677 0.30543 0.0
H209 H 0.80307 0.09001 0.27228 0.0
H210 H 0.81211 0.06978 0.1841 0.0
H211 H 0.79927 0.02419 0.11369 0.0
H212 H 0.73607 0.92197 0.14144 0.0
H213 H 0.7351 0.9401 0.23402 0.0
C214 C 0.7613 1.00465 0.27892 0.0
C215 C 0.77376 0.0399 0.29533 0.0
C216 C 0.76527 0.99304 0.22713 0.0
C217 C 0.79237 0.06286 0.26043 0.0
C218 C 0.79786 0.05131 0.20997 0.0
C219 C 0.78617 1.00565 0.14029 0.0
C220 C 0.76812 0.97174 0.12079 0.0
C221 C 0.78381 0.01663 0.19256 0.0
C222 C 0.75028 0.94827 0.15552 0.0
C223 C 0.74953 0.95865 0.20842 0.0
H224 H 0.21367 0.01918 0.20242 0.0
H225 H 0.39097 1.00551 0.21946 0.0
H226 H 0.40419 0.97922 0.31064 0.0
H227 H 0.3664 0.96538 0.38881 0.0
H228 H 0.19029 0.98437 0.37405 0.0
H229 H 0.1751 1.00281 0.27874 0.0
C230 C 0.25482 1.00961 0.22578 0.0
C231 C 0.30116 1.01353 0.20435 0.0
C232 C 0.26225 0.99573 0.27873 0.0
C233 C 0.35469 1.00208 0.23514 0.0
C234 C 0.36222 0.9873 0.28728 0.0
C235 C 0.32452 0.97291 0.36435 0.0
C236 C 0.27947 0.97344 0.38844 0.0
C237 C 0.31649 0.98467 0.31001 0.0
C238 C 0.22562 0.9838 0.35648 0.0
C239 C 0.21693 0.99442 0.302 0.0
H240 H 0.72053 0.47705 0.75135 0.0
H241 H 0.8311 0.55329 0.70983 0.0
H242 H 0.83521 0.58653 0.79427 0.0
H243 H 0.81339 0.59044 0.8843 0.0
H244 H 0.69992 0.51424 0.92192 0.0
H245 H 0.68954 0.48504 0.83403 0.0
C246 C 0.74542 0.501 0.76084 0.0
C247 C 0.77645 0.5124 0.72543 0.0
C248 C 0.74653 0.52015 0.80848 0.0
C249 C 0.80736 0.54392 0.7371 0.0
C250 C 0.80961 0.5629 0.78522 0.0
C251 C 0.78517 0.56811 0.87238 0.0
C252 C 0.75778 0.55431 0.90961 0.0
C253 C 0.78002 0.55095 0.82177 0.0
C254 C 0.7217 0.52516 0.89398 0.0
C255 C 0.71603 0.50828 0.84393 0.0
H256 H 0.21583 0.5181 0.62084 0.0
H257 H 0.30934 0.61175 0.68664 0.0
H258 H 0.31161 0.59302 0.78034 0.0
H259 H 0.29069 0.54744 0.84373 0.0
H260 H 0.19479 0.45528 0.77272 0.0
H261 H 0.18935 0.47625 0.68112 0.0
C262 C 0.23712 0.53446 0.65561 0.0
C263 C 0.26358 0.56589 0.64684 0.0
C264 C 0.23754 0.52378 0.7086 0.0
C265 C 0.28923 0.58724 0.69233 0.0
C266 C 0.29045 0.57649 0.74585 0.0
C267 C 0.26796 0.5323 0.80813 0.0
C268 C 0.24378 0.49952 0.81543 0.0
C269 C 0.26519 0.5445 0.75461 0.0
C270 C 0.2145 0.48027 0.76867 0.0
C271 C 0.21134 0.49222 0.71605 0.0
H272 H 0.2996 0.49072 0.34449 0.0
H273 H 0.18424 0.57501 0.27401 0.0
H274 H 0.17772 0.55348 0.18216 0.0
H275 H 0.20946 0.51406 0.12153 0.0
H276 H 0.32294 0.42836 0.18737 0.0
H277 H 0.32562 0.44694 0.28139 0.0
C278 C 0.27238 0.50389 0.30897 0.0
C279 C 0.24298 0.53471 0.3161 0.0
C280 C 0.26923 0.49151 0.25554 0.0
C281 C 0.20791 0.55157 0.26969 0.0
C282 C 0.20418 0.53934 0.21706 0.0
C283 C 0.2351 0.49947 0.15646 0.0
C284 C 0.26716 0.47047 0.14782 0.0
C285 C 0.23573 0.51 0.20953 0.0
C286 C 0.29854 0.45109 0.19325 0.0
C287 C 0.29997 0.46172 0.24684 0.0
H288 H 0.8001 0.4814 0.2261 0.0
H289 H 0.72941 0.58152 0.25555 0.0
H290 H 0.71289 0.55884 0.33899 0.0
H291 H 0.7248 0.51322 0.40709 0.0
H292 H 0.80475 0.4147 0.38708 0.0
H293 H 0.80915 0.43339 0.29558 0.0
C294 C 0.78107 0.49806 0.25092 0.0
C295 C 0.76699 0.53329 0.23516 0.0
C296 C 0.77272 0.48505 0.30018 0.0
C297 C 0.74191 0.5546 0.26736 0.0
C298 C 0.7319 0.54159 0.3149 0.0
C299 C 0.74272 0.49553 0.3826 0.0
C300 C 0.76507 0.46285 0.40417 0.0
C301 C 0.74805 0.5072 0.33213 0.0
C302 C 0.78714 0.44003 0.3714 0.0
C303 C 0.79033 0.45093 0.31941 0.0
H304 H 0.47073 0.06623 0.02185 0.0
H305 H 0.39786 0.9631 0.02442 0.0
H306 H 0.4755 0.93659 0.99437 0.0
H307 H 0.56035 0.94412 0.96293 0.0
H308 H 0.62879 0.04855 0.95693 0.0
H309 H 0.5533 0.07386 0.98986 0.0
C310 C 0.4721 0.03784 0.01625 0.0
C311 C 0.42905 0.01646 0.02475 0.0
C312 C 0.51436 0.02347 0.99654 0.0
C313 C 0.4312 0.97981 0.01842 0.0
C314 C 0.4748 0.9649 1.00037 0.0
C315 C 0.55819 0.97249 0.96784 0.0
C316 C 0.59988 0.99458 0.95752 0.0
C317 C 0.51568 0.9867 0.98801 0.0
C318 C 0.59695 0.03117 0.96451 0.0
C319 C 0.55438 0.04555 0.98392 0.0
H320 H 0.416 1.013 0.46291 0.0
H321 H 0.50897 0.98186 0.62665 0.0
H322 H 0.59769 0.98583 0.60174 0.0
H323 H 0.64814 1.0005 0.53479 0.0
H324 H 0.55709 0.03553 0.37303 0.0
H325 H 0.46711 0.02485 0.39386 0.0
C326 C 0.45593 1.00803 0.49332 0.0
C327 C 0.45675 0.9984 0.54696 0.0
C328 C 0.50626 1.00915 0.4781 0.0
C329 C 0.50811 0.99047 0.58567 0.0
C330 C 0.55843 0.99199 0.57114 0.0
C331 C 0.60838 1.00421 0.50344 0.0
C332 C 0.60853 0.01804 0.45232 0.0
C333 C 0.55783 1.00104 0.51744 0.0
C334 C 0.55741 0.02387 0.41211 0.0
C335 C 0.50627 0.01882 0.42465 0.0
H336 H 0.98687 0.5718 0.08268 0.0
H337 H 0.90406 0.47069 0.06762 0.0
H338 H 0.97483 0.44584 0.0265 0.0
H339 H 0.05455 0.45471 0.98818 0.0
H340 H 0.13659 0.55604 1.00185 0.0
H341 H 0.06766 0.58042 0.04579 0.0
C342 C 0.98549 0.544 0.07184 0.0
C343 C 0.94087 0.52288 0.07824 0.0
C344 C 0.02342 0.53089 0.04482 0.0
C345 C 0.93879 0.48709 0.06405 0.0
C346 C 0.97815 0.47329 0.03913 0.0
C347 C 0.05634 0.48241 0.99961 0.0
C348 C 0.09976 0.50385 0.9913 0.0
C349 C 1.01908 0.49537 0.0275 0.0
C350 C 0.1025 0.53948 1.00653 0.0
C351 C 0.06421 0.55301 0.03299 0.0
H352 H 0.05479 0.58173 0.48735 0.0
H353 H 0.13343 0.47995 0.48637 0.0
H354 H 0.06123 0.45279 0.52271 0.0
H355 H 0.98058 0.45909 0.55977 0.0
H356 H 0.90081 0.56059 0.56002 0.0
H357 H 0.97274 0.58787 0.52316 0.0
C358 C 0.05533 0.55343 0.4941 0.0
C359 C 0.0989 0.53266 0.48426 0.0
C360 C 1.01583 0.53861 0.51742 0.0
C361 C 0.09959 0.49617 0.49281 0.0
C362 C 0.05926 0.48092 0.51475 0.0
C363 C 0.97937 0.48734 0.55239 0.0
C364 C 0.93575 0.50798 0.56242 0.0
C365 C 1.0184 0.50213 0.52856 0.0
C366 C 0.93458 0.54443 0.55332 0.0
C367 C 0.9748 0.55975 0.53115 0.0
H368 H 0.13744 0.99548 0.0216 0.0
H369 H 0.08435 0.09229 0.08243 0.0
H370 H 0.98854 0.06803 0.06628 0.0
H371 H 0.91905 0.02108 0.02804 0.0
H372 H 0.97347 0.92467 0.96694 0.0
H373 H 0.07045 0.94702 0.99084 0.0
C374 C 0.10501 1.01146 0.03146 0.0
C375 C 0.11789 0.04613 0.05218 0.0
C376 C 0.05051 0.99734 0.02201 0.0
C377 C 0.07564 0.06581 0.06613 0.0
C378 C 0.02089 0.0519 0.05669 0.0
C379 C 0.95215 1.00472 0.02027 0.0
C380 C 0.9386 0.97122 0.99493 0.0
C381 C 1.00768 0.01797 0.03361 0.0
C382 C 0.98237 0.95036 0.9862 0.0
C383 C 0.03779 0.9633 0.99958 0.0
H384 H 0.91808 1.00748 0.51174 0.0
H385 H 0.96253 0.10382 0.44337 0.0
H386 H 0.05971 0.08216 0.4596 0.0
H387 H 0.13191 0.03619 0.49423 0.0
H388 H 0.08594 0.93948 0.56046 0.0
H389 H 0.98882 0.96093 0.54301 0.0
C390 C 0.94888 0.02409 0.5006 0.0
C391 C 0.93271 0.05771 0.47693 0.0
C392 C 1.00425 1.01118 0.50917 0.0
C393 C 0.9735 0.07814 0.46198 0.0
C394 C 0.02908 0.06565 0.47114 0.0
C395 C 0.1007 0.01959 0.5047 0.0
C396 C 0.11672 0.98611 0.529 0.0
C397 C 0.0449 0.03222 0.49476 0.0
C398 C 0.07521 0.96513 0.54166 0.0
C399 C 1.01965 0.97754 0.53198 0.0
H400 H 0.41593 0.524 0.04819 0.0
H401 H 0.45204 0.4412 0.94537 0.0
H402 H 0.54754 0.46453 0.95969 0.0
H403 H 0.6204 0.50829 1.0011 0.0
H404 H 0.58422 0.59094 0.10415 0.0
H405 H 0.48844 0.56799 0.08896 0.0
C406 C 0.44458 0.51076 0.02901 0.0
C407 C 0.42644 0.48056 0.99584 0.0
C408 C 0.49922 0.52457 0.03692 0.0
C409 C 0.46456 0.46422 0.97128 0.0
C410 C 0.51918 0.4777 0.97927 0.0
C411 C 0.59164 0.52159 0.02009 0.0
C412 C 0.60994 0.55156 0.05379 0.0
C413 C 0.53685 0.50793 1.01182 0.0
C414 C 0.57162 0.56808 0.0779 0.0
C415 C 0.51684 0.5548 0.06945 0.0
H416 H 0.6176 0.52282 0.49471 0.0
H417 H 0.58273 0.44389 0.60347 0.0
H418 H 0.48806 0.46841 0.59 0.0
H419 H 0.41618 0.51283 0.54928 0.0
H420 H 0.45078 0.59191 0.44065 0.0
H421 H 0.54514 0.56694 0.45309 0.0
C422 C 0.58929 0.51062 0.51521 0.0
C423 C 0.6077 0.48125 0.55004 0.0
C424 C 0.53512 0.52523 0.50795 0.0
C425 C 0.57003 0.46624 0.57627 0.0
C426 C 0.51589 0.48044 0.56882 0.0
C427 C 0.44429 0.52492 0.52845 0.0
C428 C 0.42606 0.55456 0.49421 0.0
C429 C 0.49823 0.51013 0.53524 0.0
C430 C 0.46342 0.56936 0.46745 0.0
C431 C 0.51738 0.55493 0.47436 0.0
H432 H 0.41306 0.14344 0.23237 0.0
H433 H 0.49502 0.1127 0.10921 0.0
H434 H 0.58692 0.12026 0.1745 0.0
H435 H 0.64485 0.12838 0.26984 0.0
H436 H 0.56378 0.15738 0.39389 0.0
H437 H 0.47201 0.15865 0.32536 0.0
C438 C 0.45098 0.13892 0.21961 0.0
C439 C 0.4465 0.12702 0.16597 0.0
C440 C 0.50452 0.1431 0.25774 0.0
C441 C 0.49654 0.12148 0.1503 0.0
C442 C 0.54956 0.12585 0.18767 0.0
C443 C 0.60734 0.13624 0.28134 0.0
C444 C 0.61112 0.14287 0.33671 0.0
C445 C 0.5542 0.13576 0.24192 0.0
C446 C 0.56191 0.15225 0.35134 0.0
C447 C 0.50927 0.15266 0.31225 0.0
H448 H 0.57613 0.89768 0.87142 0.0
H449 H 0.67073 0.89199 0.75179 0.0
H450 H 0.58258 0.89361 0.67746 0.0
H451 H 0.47883 0.89951 0.64628 0.0
H452 H 0.38497 0.90998 0.76597 0.0
H453 H 0.47248 0.90355 0.84029 0.0
C454 C 0.5776 0.89621 0.82911 0.0
C455 C 0.63043 0.89436 0.81746 0.0
C456 C 0.52667 0.89819 0.78649 0.0
C457 C 0.63105 0.8933 0.76218 0.0
C458 C 0.58051 0.89427 0.7196 0.0
C459 C 0.47725 0.89986 0.68861 0.0
C460 C 0.42485 0.90476 0.70029 0.0
C461 C 0.52808 0.89711 0.73122 0.0
C462 C 0.42427 0.90601 0.75557 0.0
C463 C 0.47445 0.90237 0.79813 0.0
H464 H 0.98641 0.63872 0.16297 0.0
H465 H 0.87033 0.64048 0.26275 0.0
H466 H 0.94939 0.6457 0.34563 0.0
H467 H 0.05192 0.64417 0.39043 0.0
H468 H 0.1679 0.6441 0.29053 0.0
H469 H 0.08865 0.64418 0.2074 0.0
C470 C 0.97827 0.64081 0.20277 0.0
C471 C 0.92221 0.63903 0.20639 0.0
C472 C 0.02408 0.64393 0.25045 0.0
C473 C 0.91275 0.64197 0.25845 0.0
C474 C 0.95809 0.64473 0.30602 0.0
C475 C 0.05995 0.64483 0.3505 0.0
C476 C 0.11612 0.64396 0.34702 0.0
C477 C 1.014 0.64495 0.30263 0.0
C478 C 0.12539 0.64495 0.29473 0.0
C479 C 0.07996 0.64474 0.24702 0.0
H480 H 0.98405 0.39486 0.66845 0.0
H481 H 0.86992 0.40006 0.77009 0.0
H482 H 0.94962 0.39481 0.85248 0.0
H483 H 0.05218 0.39451 0.89569 0.0
H484 H 0.16619 0.38875 0.7939 0.0
H485 H 0.086 0.38798 0.71162 0.0
C486 C 0.97647 0.3944 0.7086 0.0
C487 C 0.92098 0.39815 0.71302 0.0
C488 C 0.02253 0.39138 0.75582 0.0
C489 C 0.91203 0.39713 0.76539 0.0
C490 C 0.95768 0.39432 0.81257 0.0
C491 C 0.05957 0.39247 0.85556 0.0
C492 C 0.11536 0.39192 0.85114 0.0
C493 C 1.01319 0.39223 0.80831 0.0
C494 C 0.1239 0.38907 0.79871 0.0
C495 C 0.07799 0.38889 0.75153 0.0
H496 H 0.33081 0.20413 1.00118 0.0
H497 H 0.19565 0.20136 0.0791 0.0
H498 H 0.19168 0.26605 0.07713 0.0
H499 H 0.22634 0.3226 0.05298 0.0
H500 H 0.36068 0.32497 0.97405 0.0
H501 H 0.36688 0.26047 0.97915 0.0
C502 C 0.30012 0.21743 0.01772 0.0
C503 C 0.26321 0.19764 0.04011 0.0
C504 C 0.29887 0.2544 0.0173 0.0
C505 C 0.22411 0.21571 0.06126 0.0
C506 C 0.22223 0.2527 0.06052 0.0
C507 C 0.25747 0.30918 0.03718 0.0
C508 C 0.29299 0.32879 1.01286 0.0
C509 C 0.25958 0.2722 0.03883 0.0
C510 C 0.33315 0.31074 0.99317 0.0
C511 C 0.3362 0.27384 0.99556 0.0
H512 H 0.7094 0.2055 0.5333 0.0
H513 H 0.85535 0.20907 0.47053 0.0
H514 H 0.86102 0.27291 0.48497 0.0
H515 H 0.8236 0.32691 0.51256 0.0
H516 H 0.67947 0.3245 0.57798 0.0
H517 H 0.67253 0.26034 0.56286 0.0
C518 C 0.74284 0.2201 0.52307 0.0
C519 C 0.78205 0.20237 0.50074 0.0
C520 C 0.74529 0.25681 0.53074 0.0
C521 C 0.82495 0.22186 0.48796 0.0
C522 C 0.82785 0.25839 0.49577 0.0
C523 C 0.79039 0.3126 0.52372 0.0
C524 C 0.75209 0.33065 0.54671 0.0
C525 C 0.7879 0.27603 0.51651 0.0
C526 C 0.70922 0.31143 0.56005 0.0
C527 C 0.70569 0.27474 0.55187 0.0
H528 H 0.72484 0.82701 0.03808 0.0
H529 H 0.85254 0.81738 0.95174 0.0
H530 H 0.85088 0.75335 0.96016 0.0
H531 H 0.81332 0.70067 0.99072 0.0
H532 H 0.68798 0.70844 0.07992 0.0
H533 H 0.6867 0.77292 0.06946 0.0
C534 C 0.75301 0.81092 0.02196 0.0
C535 C 0.78931 0.82702 0.99477 0.0
C536 C 0.75109 0.77393 0.02607 0.0
C537 C 0.82462 0.80572 0.97314 0.0
C538 C 0.82332 0.76911 0.97752 0.0
C539 C 0.78528 0.7163 1.00774 0.0
C540 C 0.75089 0.69966 0.03629 0.0
C541 C 0.78643 0.75303 1.00338 0.0
C542 C 0.71452 0.72046 0.05739 0.0
C543 C 0.71441 0.75735 0.05204 0.0
H544 H 0.23247 0.7136 0.55353 0.0
H545 H 0.35704 0.71102 0.46298 0.0
H546 H 0.36086 0.77579 0.46505 0.0
H547 H 0.32534 0.83308 0.48965 0.0
H548 H 0.19846 0.83378 0.57769 0.0
H549 H 0.19739 0.76945 0.57744 0.0
C550 C 0.26092 0.72701 0.53444 0.0
C551 C 0.29436 0.70732 0.50797 0.0
C552 C 0.26125 0.76392 0.53403 0.0
C553 C 0.33121 0.72539 0.48403 0.0
C554 C 0.33278 0.76244 0.48458 0.0
C555 C 0.29671 0.81914 0.50788 0.0
C556 C 0.26144 0.83827 0.53314 0.0
C557 C 0.29709 0.78198 0.50852 0.0
C558 C 0.22558 0.81976 0.55764 0.0
C559 C 0.22534 0.78298 0.55794 0.0
loop_
_geom_bond_atom_site_label_1
_geom_bond_atom_site_label_2
_geom_bond_distance
_geom_bond_site_symmetry_2
_ccdc_geom_bond_type
Fe0 O2 1.918 . S
Fe0 O5 1.997 . S
Fe0 O6 2.002 . S
Fe0 O11 1.976 . S
Fe0 O14 1.996 . S
Fe1 O2 1.918 . S
Fe1 O9 1.997 . S
Fe1 O12 1.996 . S
Fe1 O16 1.976 1_554 S
Fe1 O19 2.002 . S
O2 Fe0 1.918 . S
O2 Fe1 1.918 . S
O2 Fe3 1.918 . S
Fe3 O2 1.918 . S
Fe3 O4 2.002 . S
Fe3 O13 1.976 1_554 S
Fe3 O17 1.996 1_554 S
Fe3 O20 1.997 . S
O4 Fe3 2.002 . S
O4 C21 1.295 . S
O5 Fe0 1.997 . S
O5 C21 1.235 . S
O6 Fe0 2.002 . S
O6 C7 1.295 . S
C7 O6 1.295 . S
C7 O9 1.235 . S
C8 O13 1.287 1_554 S
C8 O14 1.255 . S
O9 Fe1 1.997 . S
O9 C7 1.235 . S
C10 O16 1.287 . S
C10 O17 1.255 . S
O11 Fe0 1.976 . S
O11 C18 1.287 . S
O12 Fe1 1.996 . S
O12 C18 1.255 . S
O13 Fe3 1.976 1_556 S
O13 C8 1.287 1_556 S
O14 Fe0 1.996 . S
O14 C8 1.255 . S
C15 O19 1.295 . S
C15 O20 1.235 . S
O16 Fe1 1.976 1_556 S
O16 C10 1.287 . S
O17 Fe3 1.996 1_556 S
O17 C10 1.255 . S
C18 O11 1.287 . S
C18 O12 1.255 . S
O19 Fe1 2.002 . S
O19 C15 1.295 . S
O20 Fe3 1.997 . S
O20 C15 1.235 . S
C21 O4 1.295 . S
C21 O5 1.235 . S
Fe22 O24 1.918 . S
Fe22 O27 1.997 . S
Fe22 O28 2.002 . S
Fe22 O33 1.976 . S
Fe22 O36 1.996 . S
Fe23 O24 1.918 . S
Fe23 O31 1.997 . S
Fe23 O34 1.996 . S
Fe23 O38 1.976 . S
Fe23 O41 2.002 . S
O24 Fe22 1.918 . S
O24 Fe23 1.918 . S
O24 Fe25 1.918 . S
Fe25 O24 1.918 . S
Fe25 O26 2.002 . S
Fe25 O35 1.976 . S
Fe25 O39 1.996 . S
Fe25 O42 1.997 . S
O26 Fe25 2.002 . S
O26 C43 1.295 . S
O27 Fe22 1.997 . S
O27 C43 1.235 . S
O28 Fe22 2.002 . S
O28 C29 1.295 . S
C29 O28 1.295 . S
C29 O31 1.235 . S
C30 O35 1.287 . S
C30 O36 1.255 . S
O31 Fe23 1.997 . S
O31 C29 1.235 . S
C32 O38 1.287 . S
C32 O39 1.255 . S
O33 Fe22 1.976 . S
O33 C40 1.287 . S
O34 Fe23 1.996 . S
O34 C40 1.255 . S
O35 Fe25 1.976 . S
O35 C30 1.287 . S
O36 Fe22 1.996 . S
O36 C30 1.255 . S
C37 O41 1.295 . S
C37 O42 1.235 . S
O38 Fe23 1.976 . S
O38 C32 1.287 . S
O39 Fe25 1.996 . S
O39 C32 1.255 . S
C40 O33 1.287 . S
C40 O34 1.255 . S
O41 Fe23 2.002 . S
O41 C37 1.295 . S
O42 Fe25 1.997 . S
O42 C37 1.235 . S
C43 O26 1.295 . S
C43 O27 1.235 . S
Fe44 O46 1.918 . S
Fe44 O49 1.997 . S
Fe44 O50 2.002 . S
Fe44 O55 1.976 . S
Fe44 O58 1.996 1_556 S
Fe45 O46 1.918 . S
Fe45 O53 1.997 . S
Fe45 O56 1.996 . S
Fe45 O60 1.976 . S
Fe45 O63 2.002 . S
O46 Fe44 1.918 . S
O46 Fe45 1.918 . S
O46 Fe47 1.918 . S
Fe47 O46 1.918 . S
Fe47 O48 2.002 . S
Fe47 O57 1.976 1_556 S
Fe47 O61 1.995 1_556 S
Fe47 O64 1.997 . S
O48 Fe47 2.002 . S
O48 C65 1.295 . S
O49 Fe44 1.997 . S
O49 C65 1.235 . S
O50 Fe44 2.002 . S
O50 C51 1.295 . S
C51 O50 1.295 . S
C51 O53 1.235 . S
C52 O57 1.287 . S
C52 O58 1.255 . S
O53 Fe45 1.997 . S
O53 C51 1.235 . S
C54 O60 1.287 . S
C54 O61 1.249 1_556 S
O55 Fe44 1.976 . S
O55 C62 1.287 . S
O56 Fe45 1.996 . S
O56 C62 1.255 . S
O57 Fe47 1.976 1_554 S
O57 C52 1.287 . S
O58 Fe44 1.996 1_554 S
O58 C52 1.255 . S
C59 O63 1.295 . S
C59 O64 1.235 . S
O60 Fe45 1.976 . S
O60 C54 1.287 . S
O61 Fe47 1.995 1_554 S
O61 C54 1.249 1_554 S
C62 O55 1.287 . S
C62 O56 1.255 . S
O63 Fe45 2.002 . S
O63 C59 1.295 . S
O64 Fe47 1.997 . S
O64 C59 1.235 . S
C65 O48 1.295 . S
C65 O49 1.235 . S
Fe66 O68 1.918 . S
Fe66 O71 1.997 . S
Fe66 O72 2.002 . S
Fe66 O77 1.976 . S
Fe66 O80 1.996 . S
Fe67 O68 1.918 . S
Fe67 O75 1.997 . S
Fe67 O78 1.996 . S
Fe67 O82 1.976 . S
Fe67 O85 2.002 . S
O68 Fe66 1.918 . S
O68 Fe67 1.918 . S
O68 Fe69 1.918 . S
Fe69 O68 1.918 . S
Fe69 O70 2.002 . S
Fe69 O79 1.976 . S
Fe69 O83 1.996 . S
Fe69 O86 1.997 . S
O70 Fe69 2.002 . S
O70 C87 1.295 . S
O71 Fe66 1.997 . S
O71 C87 1.235 . S
O72 Fe66 2.002 . S
O72 C73 1.295 . S
C73 O72 1.295 . S
C73 O75 1.235 . S
C74 O79 1.287 . S
C74 O80 1.255 . S
O75 Fe67 1.997 . S
O75 C73 1.235 . S
C76 O82 1.287 . S
C76 O83 1.255 . S
O77 Fe66 1.976 . S
O77 C84 1.287 . S
O78 Fe67 1.996 . S
O78 C84 1.255 . S
O79 Fe69 1.976 . S
O79 C74 1.287 . S
O80 Fe66 1.996 . S
O80 C74 1.255 . S
C81 O85 1.295 . S
C81 O86 1.235 . S
O82 Fe67 1.976 . S
O82 C76 1.287 . S
O83 Fe69 1.996 . S
O83 C76 1.255 . S
C84 O77 1.287 . S
C84 O78 1.255 . S
O85 Fe67 2.002 . S
O85 C81 1.295 . S
O86 Fe69 1.997 . S
O86 C81 1.235 . S
C87 O70 1.295 . S
C87 O71 1.235 . S
Fe88 O90 1.918 . S
Fe88 O93 1.997 . S
Fe88 O94 2.002 . S
Fe88 O99 1.976 . S
Fe88 O102 1.996 . S
Fe89 O90 1.918 . S
Fe89 O97 1.997 . S
Fe89 O100 1.996 . S
Fe89 O104 1.976 1_554 S
Fe89 O107 2.002 . S
O90 Fe88 1.918 . S
O90 Fe89 1.918 . S
O90 Fe91 1.918 . S
Fe91 O90 1.918 . S
Fe91 O92 2.002 . S
Fe91 O101 1.976 1_554 S
Fe91 O105 1.996 1_554 S
Fe91 O108 1.997 . S
O92 Fe91 2.002 . S
O92 C109 1.295 . S
O93 Fe88 1.997 . S
O93 C109 1.235 . S
O94 Fe88 2.002 . S
O94 C95 1.295 . S
C95 O94 1.295 . S
C95 O97 1.235 . S
C96 O101 1.287 1_554 S
C96 O102 1.255 . S
O97 Fe89 1.997 . S
O97 C95 1.235 . S
C98 O104 1.287 . S
C98 O105 1.255 . S
O99 Fe88 1.976 . S
O99 C106 1.287 . S
O100 Fe89 1.996 . S
O100 C106 1.255 . S
O101 Fe91 1.976 1_556 S
O101 C96 1.287 1_556 S
O102 Fe88 1.996 . S
O102 C96 1.255 . S
C103 O107 1.295 . S
C103 O108 1.235 . S
O104 Fe89 1.976 1_556 S
O104 C98 1.287 . S
O105 Fe91 1.996 1_556 S
O105 C98 1.255 . S
C106 O99 1.287 . S
C106 O100 1.255 . S
O107 Fe89 2.002 . S
O107 C103 1.295 . S
O108 Fe91 1.997 . S
O108 C103 1.235 . S
C109 O92 1.295 . S
C109 O93 1.235 . S
Fe110 O112 1.918 . S
Fe110 O115 1.997 . S
Fe110 O116 2.002 . S
Fe110 O121 1.976 . S
Fe110 O124 1.996 . S
Fe111 O112 1.918 . S
Fe111 O119 1.997 . S
Fe111 O122 1.996 . S
Fe111 O126 1.976 . S
Fe111 O129 2.002 . S
O112 Fe110 1.918 . S
O112 Fe111 1.918 . S
O112 Fe113 1.918 . S
Fe113 O112 1.918 . S
Fe113 O114 2.002 . S
Fe113 O123 1.976 . S
Fe113 O127 1.996 . S
Fe113 O130 1.997 . S
O114 Fe113 2.002 . S
O114 C131 1.295 . S
O115 Fe110 1.997 . S
O115 C131 1.235 . S
O116 Fe110 2.002 . S
O116 C117 1.295 . S
C117 O116 1.295 . S
C117 O119 1.235 . S
C118 O123 1.287 . S
C118 O124 1.255 . S
O119 Fe111 1.997 . S
O119 C117 1.235 . S
C120 O126 1.287 . S
C120 O127 1.255 . S
O121 Fe110 1.976 . S
O121 C128 1.287 . S
O122 Fe111 1.996 . S
O122 C128 1.255 . S
O123 Fe113 1.976 . S
O123 C118 1.287 . S
O124 Fe110 1.996 . S
O124 C118 1.255 . S
C125 O129 1.295 . S
C125 O130 1.235 . S
O126 Fe111 1.976 . S
O126 C120 1.287 . S
O127 Fe113 1.996 . S
O127 C120 1.255 . S
C128 O121 1.287 . S
C128 O122 1.255 . S
O129 Fe111 2.002 . S
O129 C125 1.295 . S
O130 Fe113 1.997 . S
O130 C125 1.235 . S
C131 O114 1.295 . S
C131 O115 1.235 . S
Fe132 O134 1.918 . S
Fe132 O137 1.997 . S
Fe132 O138 2.002 . S
Fe132 O143 1.976 . S
Fe132 O146 1.996 1_556 S
Fe133 O134 1.918 . S
Fe133 O141 1.997 . S
Fe133 O144 1.996 . S
Fe133 O148 1.976 . S
Fe133 O151 2.002 . S
O134 Fe132 1.918 . S
O134 Fe133 1.918 . S
O134 Fe135 1.918 . S
Fe135 O134 1.918 . S
Fe135 O136 2.002 . S
Fe135 O145 1.976 1_556 S
Fe135 O149 1.995 1_556 S
Fe135 O152 1.997 . S
O136 Fe135 2.002 . S
O136 C153 1.295 . S
O137 Fe132 1.997 . S
O137 C153 1.235 . S
O138 Fe132 2.002 . S
O138 C139 1.295 . S
C139 O138 1.295 . S
C139 O141 1.235 . S
C140 O145 1.287 . S
C140 O146 1.255 . S
O141 Fe133 1.997 . S
O141 C139 1.235 . S
C142 O148 1.287 . S
C142 O149 1.249 1_556 S
O143 Fe132 1.976 . S
O143 C150 1.287 . S
O144 Fe133 1.996 . S
O144 C150 1.255 . S
O145 Fe135 1.976 1_554 S
O145 C140 1.287 . S
O146 Fe132 1.996 1_554 S
O146 C140 1.255 . S
C147 O151 1.295 . S
C147 O152 1.235 . S
O148 Fe133 1.976 . S
O148 C142 1.287 . S
O149 Fe135 1.995 1_554 S
O149 C142 1.249 1_554 S
C150 O143 1.287 . S
C150 O144 1.255 . S
O151 Fe133 2.002 . S
O151 C147 1.295 . S
O152 Fe135 1.997 . S
O152 C147 1.235 . S
C153 O136 1.295 . S
C153 O137 1.235 . S
Fe154 O156 1.918 . S
Fe154 O159 1.997 . S
Fe154 O160 2.002 . S
Fe154 O165 1.976 . S
Fe154 O168 1.996 . S
Fe155 O156 1.918 . S
Fe155 O163 1.997 . S
Fe155 O166 1.996 . S
Fe155 O170 1.976 . S
Fe155 O173 2.002 . S
O156 Fe154 1.918 . S
O156 Fe155 1.918 . S
O156 Fe157 1.918 . S
Fe157 O156 1.918 . S
Fe157 O158 2.002 . S
Fe157 O167 1.976 . S
Fe157 O171 1.996 . S
Fe157 O174 1.997 . S
O158 Fe157 2.002 . S
O158 C175 1.295 . S
O159 Fe154 1.997 . S
O159 C175 1.235 . S
O160 Fe154 2.002 . S
O160 C161 1.295 . S
C161 O160 1.295 . S
C161 O163 1.235 . S
C162 O167 1.287 . S
C162 O168 1.255 . S
O163 Fe155 1.997 . S
O163 C161 1.235 . S
C164 O170 1.287 . S
C164 O171 1.255 . S
O165 Fe154 1.976 . S
O165 C172 1.287 . S
O166 Fe155 1.996 . S
O166 C172 1.255 . S
O167 Fe157 1.976 . S
O167 C162 1.287 . S
O168 Fe154 1.996 . S
O168 C162 1.255 . S
C169 O173 1.295 . S
C169 O174 1.235 . S
O170 Fe155 1.976 . S
O170 C164 1.287 . S
O171 Fe157 1.996 . S
O171 C164 1.255 . S
C172 O165 1.287 . S
C172 O166 1.255 . S
O173 Fe155 2.002 . S
O173 C169 1.295 . S
O174 Fe157 1.997 . S
O174 C169 1.235 . S
C175 O158 1.295 . S
C175 O159 1.235 . S
H176 C182 0.930 . S
H177 C185 0.930 . S
H178 C186 0.930 . S
H179 C187 0.930 . S
H180 C190 0.930 . S
H181 C191 0.930 . S
C182 H176 0.930 . S
C182 C183 1.355 . S
C182 C184 1.415 . S
C183 C182 1.355 . S
C183 C185 1.419 . S
C184 C182 1.415 . S
C184 C189 1.425 . S
C184 C191 1.409 1_545 S
C185 H177 0.930 . S
C185 C183 1.419 . S
C185 C186 1.362 . S
C186 H178 0.930 . S
C186 C185 1.362 . S
C186 C189 1.409 . S
C187 H179 0.930 . S
C187 C188 1.355 1_545 S
C187 C189 1.415 . S
C188 C187 1.355 1_565 S
C188 C190 1.419 . S
C189 C184 1.425 . S
C189 C186 1.409 . S
C189 C187 1.415 . S
C190 H180 0.930 . S
C190 C188 1.419 . S
C190 C191 1.362 . S
C191 H181 0.930 . S
C191 C184 1.409 1_565 S
C191 C190 1.362 . S
H192 C198 0.930 . S
H193 C201 0.930 . S
H194 C202 0.930 . S
H195 C203 0.930 . S
H196 C206 0.930 . S
H197 C207 0.930 . S
C198 H192 0.930 . S
C198 C199 1.355 . S
C198 C200 1.415 1_565 S
C199 C198 1.355 . S
C199 C201 1.419 1_565 S
C200 C198 1.415 1_545 S
C200 C205 1.425 . S
C200 C207 1.409 . S
C201 H193 0.930 . S
C201 C199 1.419 1_545 S
C201 C202 1.362 . S
C202 H194 0.930 . S
C202 C201 1.362 . S
C202 C205 1.409 . S
C203 H195 0.930 . S
C203 C204 1.355 . S
C203 C205 1.415 . S
C204 C203 1.355 . S
C204 C206 1.419 . S
C205 C200 1.425 . S
C205 C202 1.409 . S
C205 C203 1.415 . S
C206 H196 0.930 . S
C206 C204 1.419 . S
C206 C207 1.362 . S
C207 H197 0.930 . S
C207 C200 1.409 . S
C207 C206 1.362 . S
H208 C214 0.930 . S
H209 C217 0.930 1_545 S
H210 C218 0.930 . S
H211 C219 0.930 . S
H212 C222 0.930 . S
H213 C223 0.930 . S
C214 H208 0.930 . S
C214 C215 1.355 1_565 S
C214 C216 1.415 . S
C215 C214 1.355 1_545 S
C215 C217 1.419 1_545 S
C216 C214 1.415 . S
C216 C221 1.425 . S
C216 C223 1.409 . S
C217 H209 0.930 1_565 S
C217 C215 1.419 1_565 S
C217 C218 1.362 . S
C218 H210 0.930 . S
C218 C217 1.362 . S
C218 C221 1.409 . S
C219 H211 0.930 . S
C219 C220 1.355 . S
C219 C221 1.415 . S
C220 C219 1.355 . S
C220 C222 1.419 . S
C221 C216 1.425 . S
C221 C218 1.409 . S
C221 C219 1.415 . S
C222 H212 0.930 . S
C222 C220 1.419 . S
C222 C223 1.362 . S
C223 H213 0.930 . S
C223 C216 1.409 . S
C223 C222 1.362 . S
H224 C230 0.930 . S
H225 C233 0.930 . S
H226 C234 0.930 . S
H227 C235 0.930 . S
H228 C238 0.930 1_545 S
H229 C239 0.930 . S
C230 H224 0.930 . S
C230 C231 1.355 . S
C230 C232 1.415 1_545 S
C231 C230 1.355 . S
C231 C233 1.419 1_545 S
C232 C230 1.415 1_565 S
C232 C237 1.425 . S
C232 C239 1.409 1_565 S
C233 H225 0.930 . S
C233 C231 1.419 1_565 S
C233 C234 1.362 . S
C234 H226 0.930 . S
C234 C233 1.362 . S
C234 C237 1.409 . S
C235 H227 0.930 . S
C235 C236 1.355 . S
C235 C237 1.415 . S
C236 C235 1.355 . S
C236 C238 1.419 . S
C237 C232 1.425 . S
C237 C234 1.409 . S
C237 C235 1.415 . S
C238 H228 0.930 1_565 S
C238 C236 1.419 . S
C238 C239 1.362 1_565 S
C239 H229 0.930 . S
C239 C232 1.409 1_545 S
C239 C238 1.362 1_545 S
H240 C246 0.930 . S
H241 C249 0.930 . S
H242 C250 0.930 . S
H243 C251 0.930 . S
H244 C254 0.930 . S
H245 C255 0.930 . S
C246 H240 0.930 . S
C246 C247 1.355 . S
C246 C248 1.415 . S
C247 C246 1.355 . S
C247 C249 1.419 . S
C248 C246 1.415 . S
C248 C253 1.425 . S
C248 C255 1.409 . S
C249 H241 0.930 . S
C249 C247 1.419 . S
C249 C250 1.362 . S
C250 H242 0.930 . S
C250 C249 1.362 . S
C250 C253 1.409 . S
C251 H243 0.930 . S
C251 C252 1.355 . S
C251 C253 1.415 . S
C252 C251 1.355 . S
C252 C254 1.419 . S
C253 C248 1.425 . S
C253 C250 1.409 . S
C253 C251 1.415 . S
C254 H244 0.930 . S
C254 C252 1.419 . S
C254 C255 1.362 . S
C255 H245 0.930 . S
C255 C248 1.409 . S
C255 C254 1.362 . S
H256 C262 0.930 . S
H257 C265 0.930 . S
H258 C266 0.930 . S
H259 C267 0.930 . S
H260 C270 0.930 . S
H261 C271 0.930 . S
C262 H256 0.930 . S
C262 C263 1.355 . S
C262 C264 1.415 . S
C263 C262 1.355 . S
C263 C265 1.419 . S
C264 C262 1.415 . S
C264 C269 1.425 . S
C264 C271 1.409 . S
C265 H257 0.930 . S
C265 C263 1.419 . S
C265 C266 1.362 . S
C266 H258 0.930 . S
C266 C265 1.362 . S
C266 C269 1.409 . S
C267 H259 0.930 . S
C267 C268 1.355 . S
C267 C269 1.415 . S
C268 C267 1.355 . S
C268 C270 1.419 . S
C269 C264 1.425 . S
C269 C266 1.409 . S
C269 C267 1.415 . S
C270 H260 0.930 . S
C270 C268 1.419 . S
C270 C271 1.362 . S
C271 H261 0.930 . S
C271 C264 1.409 . S
C271 C270 1.362 . S
H272 C278 0.930 . S
H273 C281 0.930 . S
H274 C282 0.930 . S
H275 C283 0.930 . S
H276 C286 0.930 . S
H277 C287 0.930 . S
C278 H272 0.930 . S
C278 C279 1.355 . S
C278 C280 1.415 . S
C279 C278 1.355 . S
C279 C281 1.419 . S
C280 C278 1.415 . S
C280 C285 1.425 . S
C280 C287 1.409 . S
C281 H273 0.930 . S
C281 C279 1.419 . S
C281 C282 1.362 . S
C282 H274 0.930 . S
C282 C281 1.362 . S
C282 C285 1.409 . S
C283 H275 0.930 . S
C283 C284 1.355 . S
C283 C285 1.415 . S
C284 C283 1.355 . S
C284 C286 1.419 . S
C285 C280 1.425 . S
C285 C282 1.409 . S
C285 C283 1.415 . S
C286 H276 0.930 . S
C286 C284 1.419 . S
C286 C287 1.362 . S
C287 H277 0.930 . S
C287 C280 1.409 . S
C287 C286 1.362 . S
H288 C294 0.930 . S
H289 C297 0.930 . S
H290 C298 0.930 . S
H291 C299 0.930 . S
H292 C302 0.930 . S
H293 C303 0.930 . S
C294 H288 0.930 . S
C294 C295 1.355 . S
C294 C296 1.415 . S
C295 C294 1.355 . S
C295 C297 1.419 . S
C296 C294 1.415 . S
C296 C301 1.425 . S
C296 C303 1.409 . S
C297 H289 0.930 . S
C297 C295 1.419 . S
C297 C298 1.362 . S
C298 H290 0.930 . S
C298 C297 1.362 . S
C298 C301 1.409 . S
C299 H291 0.930 . S
C299 C300 1.355 . S
C299 C301 1.415 . S
C300 C299 1.355 . S
C300 C302 1.419 . S
C301 C296 1.425 . S
C301 C298 1.409 . S
C301 C299 1.415 . S
C302 H292 0.930 . S
C302 C300 1.419 . S
C302 C303 1.362 . S
C303 H293 0.930 . S
C303 C296 1.409 . S
C303 C302 1.362 . S
H304 C310 0.930 . S
H305 C313 0.930 . S
H306 C314 0.930 . S
H307 C315 0.930 . S
H308 C318 0.930 . S
H309 C319 0.930 . S
C310 H304 0.930 . S
C310 C311 1.355 1_556 S
C310 C312 1.415 . S
C311 C310 1.355 1_554 S
C311 C313 1.419 1_545 S
C312 C310 1.415 . S
C312 C317 1.425 1_546 S
C312 C319 1.409 . S
C313 H305 0.930 . S
C313 C311 1.419 1_565 S
C313 C314 1.362 . S
C314 H306 0.930 . S
C314 C313 1.362 . S
C314 C317 1.409 . S
C315 H307 0.930 . S
C315 C316 1.355 1_554 S
C315 C317 1.415 . S
C316 C315 1.355 1_556 S
C316 C318 1.419 1_565 S
C317 C312 1.425 1_564 S
C317 C314 1.409 . S
C317 C315 1.415 . S
C318 H308 0.930 . S
C318 C316 1.419 1_545 S
C318 C319 1.362 . S
C319 H309 0.930 . S
C319 C312 1.409 . S
C319 C318 1.362 . S
H320 C326 0.930 . S
H321 C329 0.930 . S
H322 C330 0.930 . S
H323 C331 0.930 . S
H324 C334 0.930 . S
H325 C335 0.930 . S
C326 H320 0.930 . S
C326 C327 1.355 . S
C326 C328 1.411 1_565 S
C327 C326 1.355 . S
C327 C329 1.419 . S
C328 C326 1.411 1_545 S
C328 C333 1.424 1_545 S
C328 C335 1.415 . S
C329 H321 0.930 . S
C329 C327 1.419 . S
C329 C330 1.362 . S
C330 H322 0.930 . S
C330 C329 1.362 . S
C330 C333 1.409 . S
C331 H323 0.930 . S
C331 C332 1.355 . S
C331 C333 1.415 1_545 S
C332 C331 1.355 . S
C332 C334 1.419 . S
C333 C328 1.424 1_565 S
C333 C330 1.409 . S
C333 C331 1.415 1_565 S
C334 H324 0.930 . S
C334 C332 1.419 . S
C334 C335 1.362 . S
C335 H325 0.930 . S
C335 C328 1.415 . S
C335 C334 1.362 . S
H336 C342 0.930 . S
H337 C345 0.930 . S
H338 C346 0.930 . S
H339 C347 0.930 . S
H340 C350 0.930 . S
H341 C351 0.930 . S
C342 H336 0.930 . S
C342 C343 1.355 . S
C342 C344 1.415 1_655 S
C343 C342 1.355 . S
C343 C345 1.419 1_554 S
C344 C342 1.415 1_455 S
C344 C349 1.425 1_454 S
C344 C351 1.409 . S
C345 H337 0.930 . S
C345 C343 1.419 1_556 S
C345 C346 1.362 . S
C346 H338 0.930 . S
C346 C345 1.362 . S
C346 C349 1.409 . S
C347 H339 0.930 . S
C347 C348 1.355 . S
C347 C349 1.415 1_455 S
C348 C347 1.355 . S
C348 C350 1.419 1_556 S
C349 C344 1.425 1_656 S
C349 C346 1.409 . S
C349 C347 1.415 1_655 S
C350 H340 0.930 . S
C350 C348 1.419 1_554 S
C350 C351 1.362 . S
C351 H341 0.930 . S
C351 C344 1.409 . S
C351 C350 1.362 . S
H352 C358 0.930 . S
H353 C361 0.930 . S
H354 C362 0.930 . S
H355 C363 0.930 . S
H356 C366 0.930 . S
H357 C367 0.930 . S
C358 H352 0.930 . S
C358 C359 1.355 . S
C358 C360 1.415 . S
C359 C358 1.355 . S
C359 C361 1.419 . S
C360 C358 1.415 . S
C360 C365 1.425 1_455 S
C360 C367 1.409 . S
C361 H353 0.930 . S
C361 C359 1.419 . S
C361 C362 1.362 1_455 S
C362 H354 0.930 . S
C362 C361 1.362 1_655 S
C362 C365 1.409 . S
C363 H355 0.930 . S
C363 C364 1.355 . S
C363 C365 1.415 . S
C364 C363 1.355 . S
C364 C366 1.419 . S
C365 C360 1.425 1_655 S
C365 C362 1.409 . S
C365 C363 1.415 . S
C366 H356 0.930 . S
C366 C364 1.419 . S
C366 C367 1.362 1_655 S
C367 H357 0.930 . S
C367 C360 1.409 . S
C367 C366 1.362 1_455 S
H368 C374 0.930 1_565 S
H369 C377 0.930 . S
H370 C378 0.930 . S
H371 C379 0.930 1_545 S
H372 C382 0.930 . S
H373 C383 0.930 . S
C374 H368 0.930 1_545 S
C374 C375 1.355 . S
C374 C376 1.415 1_545 S
C375 C374 1.355 . S
C375 C377 1.419 1_554 S
C376 C374 1.415 1_565 S
C376 C381 1.425 1_464 S
C376 C383 1.409 . S
C377 H369 0.930 . S
C377 C375 1.419 1_556 S
C377 C378 1.362 1_455 S
C378 H370 0.930 . S
C378 C377 1.362 1_655 S
C378 C381 1.409 . S
C379 H371 0.930 1_565 S
C379 C380 1.355 . S
C379 C381 1.415 1_565 S
C380 C379 1.355 . S
C380 C382 1.419 1_556 S
C381 C376 1.425 1_646 S
C381 C378 1.409 . S
C381 C379 1.415 1_545 S
C382 H372 0.930 . S
C382 C380 1.419 1_554 S
C382 C383 1.362 1_655 S
C383 H373 0.930 . S
C383 C376 1.409 . S
C383 C382 1.362 1_455 S
H384 C390 0.930 1_565 S
H385 C393 0.930 . S
H386 C394 0.930 . S
H387 C395 0.930 1_545 S
H388 C398 0.930 . S
H389 C399 0.930 . S
C390 H384 0.930 1_545 S
C390 C391 1.355 . S
C390 C392 1.415 1_545 S
C391 C390 1.355 . S
C391 C393 1.419 . S
C392 C390 1.415 1_565 S
C392 C397 1.425 1_665 S
C392 C399 1.409 . S
C393 H385 0.930 . S
C393 C391 1.419 . S
C393 C394 1.362 1_655 S
C394 H386 0.930 . S
C394 C393 1.362 1_455 S
C394 C397 1.409 . S
C395 H387 0.930 1_565 S
C395 C396 1.355 . S
C395 C397 1.415 1_565 S
C396 C395 1.355 . S
C396 C398 1.419 . S
C397 C392 1.425 1_445 S
C397 C394 1.409 . S
C397 C395 1.415 1_545 S
C398 H388 0.930 . S
C398 C396 1.419 . S
C398 C399 1.362 1_455 S
C399 H389 0.930 . S
C399 C392 1.409 . S
C399 C398 1.362 1_655 S
H400 C406 0.930 . S
H401 C409 0.930 . S
H402 C410 0.930 . S
H403 C411 0.930 . S
H404 C414 0.930 . S
H405 C415 0.930 . S
C406 H400 0.930 . S
C406 C407 1.355 . S
C406 C408 1.415 . S
C407 C406 1.355 . S
C407 C409 1.419 . S
C408 C406 1.415 . S
C408 C413 1.425 1_556 S
C408 C415 1.409 . S
C409 H401 0.930 . S
C409 C407 1.419 . S
C409 C410 1.362 1_556 S
C410 H402 0.930 . S
C410 C409 1.362 1_554 S
C410 C413 1.409 . S
C411 H403 0.930 . S
C411 C412 1.355 . S
C411 C413 1.415 . S
C412 C411 1.355 . S
C412 C414 1.419 . S
C413 C408 1.425 1_554 S
C413 C410 1.409 . S
C413 C411 1.415 . S
C414 H404 0.930 . S
C414 C412 1.419 . S
C414 C415 1.362 1_554 S
C415 H405 0.930 . S
C415 C408 1.409 . S
C415 C414 1.362 1_556 S
H416 C422 0.930 . S
H417 C425 0.930 . S
H418 C426 0.930 . S
H419 C427 0.930 . S
H420 C430 0.930 . S
H421 C431 0.930 . S
C422 H416 0.930 . S
C422 C423 1.355 . S
C422 C424 1.415 . S
C423 C422 1.355 . S
C423 C425 1.419 . S
C424 C422 1.415 . S
C424 C429 1.425 . S
C424 C431 1.409 . S
C425 H417 0.930 . S
C425 C423 1.419 . S
C425 C426 1.362 . S
C426 H418 0.930 . S
C426 C425 1.362 . S
C426 C429 1.409 . S
C427 H419 0.930 . S
C427 C428 1.355 . S
C427 C429 1.415 . S
C428 C427 1.355 . S
C428 C430 1.419 . S
C429 C424 1.425 . S
C429 C426 1.409 . S
C429 C427 1.415 . S
C430 H420 0.930 . S
C430 C428 1.419 . S
C430 C431 1.362 . S
C431 H421 0.930 . S
C431 C424 1.409 . S
C431 C430 1.362 . S
H432 C438 0.930 . S
H433 C441 0.930 . S
H434 C442 0.930 . S
H435 C443 0.930 . S
H436 C446 0.930 . S
H437 C447 0.930 . S
C438 H432 0.930 . S
C438 C439 1.355 . S
C438 C440 1.415 . S
C439 C438 1.355 . S
C439 C441 1.419 . S
C440 C438 1.415 . S
C440 C445 1.425 . S
C440 C447 1.409 . S
C441 H433 0.930 . S
C441 C439 1.419 . S
C441 C442 1.362 . S
C442 H434 0.930 . S
C442 C441 1.362 . S
C442 C445 1.409 . S
C443 H435 0.930 . S
C443 C444 1.355 . S
C443 C445 1.415 . S
C444 C443 1.355 . S
C444 C446 1.419 . S
C445 C440 1.425 . S
C445 C442 1.409 . S
C445 C443 1.415 . S
C446 H436 0.930 . S
C446 C444 1.419 . S
C446 C447 1.362 . S
C447 H437 0.930 . S
C447 C440 1.409 . S
C447 C446 1.362 . S
H448 C454 0.930 . S
H449 C457 0.930 . S
H450 C458 0.930 . S
H451 C459 0.930 . S
H452 C462 0.930 . S
H453 C463 0.930 . S
C454 H448 0.930 . S
C454 C455 1.355 . S
C454 C456 1.415 . S
C455 C454 1.355 . S
C455 C457 1.419 . S
C456 C454 1.415 . S
C456 C461 1.425 . S
C456 C463 1.409 . S
C457 H449 0.930 . S
C457 C455 1.419 . S
C457 C458 1.362 . S
C458 H450 0.930 . S
C458 C457 1.362 . S
C458 C461 1.409 . S
C459 H451 0.930 . S
C459 C460 1.355 . S
C459 C461 1.415 . S
C460 C459 1.355 . S
C460 C462 1.419 . S
C461 C456 1.425 . S
C461 C458 1.409 . S
C461 C459 1.415 . S
C462 H452 0.930 . S
C462 C460 1.419 . S
C462 C463 1.362 . S
C463 H453 0.930 . S
C463 C456 1.409 . S
C463 C462 1.362 . S
H464 C470 0.930 . S
H465 C473 0.930 . S
H466 C474 0.930 . S
H467 C475 0.930 . S
H468 C478 0.930 . S
H469 C479 0.930 . S
C470 H464 0.930 . S
C470 C471 1.355 . S
C470 C472 1.415 . S
C471 C470 1.355 . S
C471 C473 1.419 . S
C472 C470 1.415 . S
C472 C477 1.425 1_655 S
C472 C479 1.409 1_655 S
C473 H465 0.930 . S
C473 C471 1.419 . S
C473 C474 1.362 . S
C474 H466 0.930 . S
C474 C473 1.362 . S
C474 C477 1.409 1_655 S
C475 H467 0.930 . S
C475 C476 1.355 . S
C475 C477 1.415 . S
C476 C475 1.355 . S
C476 C478 1.419 . S
C477 C472 1.425 1_455 S
C477 C474 1.409 1_455 S
C477 C475 1.415 . S
C478 H468 0.930 . S
C478 C476 1.419 . S
C478 C479 1.362 . S
C479 H469 0.930 . S
C479 C472 1.409 1_455 S
C479 C478 1.362 . S
H480 C486 0.930 . S
H481 C489 0.930 . S
H482 C490 0.930 . S
H483 C491 0.930 . S
H484 C494 0.930 . S
H485 C495 0.930 . S
C486 H480 0.930 . S
C486 C487 1.355 . S
C486 C488 1.415 1_655 S
C487 C486 1.355 . S
C487 C489 1.419 . S
C488 C486 1.415 1_455 S
C488 C493 1.425 1_455 S
C488 C495 1.409 . S
C489 H481 0.930 . S
C489 C487 1.419 . S
C489 C490 1.362 . S
C490 H482 0.930 . S
C490 C489 1.362 . S
C490 C493 1.409 . S
C491 H483 0.930 . S
C491 C492 1.355 . S
C491 C493 1.415 1_455 S
C492 C491 1.355 . S
C492 C494 1.419 . S
C493 C488 1.425 1_655 S
C493 C490 1.409 . S
C493 C491 1.415 1_655 S
C494 H484 0.930 . S
C494 C492 1.419 . S
C494 C495 1.362 . S
C495 H485 0.930 . S
C495 C488 1.409 . S
C495 C494 1.362 . S
H496 C502 0.930 . S
H497 C505 0.930 . S
H498 C506 0.930 . S
H499 C507 0.930 . S
H500 C510 0.930 . S
H501 C511 0.930 . S
C502 H496 0.930 . S
C502 C503 1.355 . S
C502 C504 1.415 . S
C503 C502 1.355 . S
C503 C505 1.419 1_554 S
C504 C502 1.415 . S
C504 C509 1.425 1_554 S
C504 C511 1.409 . S
C505 H497 0.930 . S
C505 C503 1.419 1_556 S
C505 C506 1.362 . S
C506 H498 0.930 . S
C506 C505 1.362 . S
C506 C509 1.409 . S
C507 H499 0.930 . S
C507 C508 1.355 . S
C507 C509 1.415 . S
C508 C507 1.355 . S
C508 C510 1.419 1_556 S
C509 C504 1.425 1_556 S
C509 C506 1.409 . S
C509 C507 1.415 . S
C510 H500 0.930 . S
C510 C508 1.419 1_554 S
C510 C511 1.362 . S
C511 H501 0.930 . S
C511 C504 1.409 . S
C511 C510 1.362 . S
H512 C518 0.930 . S
H513 C521 0.930 . S
H514 C522 0.930 . S
H515 C523 0.930 . S
H516 C526 0.930 . S
H517 C527 0.930 . S
C518 H512 0.930 . S
C518 C519 1.355 . S
C518 C520 1.415 . S
C519 C518 1.355 . S
C519 C521 1.419 . S
C520 C518 1.415 . S
C520 C525 1.425 . S
C520 C527 1.409 . S
C521 H513 0.930 . S
C521 C519 1.419 . S
C521 C522 1.362 . S
C522 H514 0.930 . S
C522 C521 1.362 . S
C522 C525 1.409 . S
C523 H515 0.930 . S
C523 C524 1.355 . S
C523 C525 1.415 . S
C524 C523 1.355 . S
C524 C526 1.419 . S
C525 C520 1.425 . S
C525 C522 1.409 . S
C525 C523 1.415 . S
C526 H516 0.930 . S
C526 C524 1.419 . S
C526 C527 1.362 . S
C527 H517 0.930 . S
C527 C520 1.409 . S
C527 C526 1.362 . S
H528 C534 0.930 . S
H529 C537 0.930 . S
H530 C538 0.930 . S
H531 C539 0.930 . S
H532 C542 0.930 . S
H533 C543 0.930 . S
C534 H528 0.930 . S
C534 C535 1.355 . S
C534 C536 1.415 1_556 S
C535 C534 1.355 . S
C535 C537 1.419 . S
C536 C534 1.415 1_554 S
C536 C541 1.427 . S
C536 C543 1.410 . S
C537 H529 0.930 . S
C537 C535 1.419 . S
C537 C538 1.362 . S
C538 H530 0.930 . S
C538 C537 1.362 . S
C538 C541 1.407 1_556 S
C539 H531 0.930 . S
C539 C540 1.355 . S
C539 C541 1.415 . S
C540 C539 1.355 . S
C540 C542 1.419 . S
C541 C536 1.427 . S
C541 C538 1.407 1_554 S
C541 C539 1.415 . S
C542 H532 0.930 . S
C542 C540 1.419 . S
C542 C543 1.362 . S
C543 H533 0.930 . S
C543 C536 1.410 . S
C543 C542 1.362 . S
H544 C550 0.930 . S
H545 C553 0.930 . S
H546 C554 0.930 . S
H547 C555 0.930 . S
H548 C558 0.930 . S
H549 C559 0.930 . S
C550 H544 0.930 . S
C550 C551 1.355 . S
C550 C552 1.415 . S
C551 C550 1.355 . S
C551 C553 1.419 . S
C552 C550 1.415 . S
C552 C557 1.425 . S
C552 C559 1.409 . S
C553 H545 0.930 . S
C553 C551 1.419 . S
C553 C554 1.362 . S
C554 H546 0.930 . S
C554 C553 1.362 . S
C554 C557 1.409 . S
C555 H547 0.930 . S
C555 C556 1.355 . S
C555 C557 1.415 . S
C556 C555 1.355 . S
C556 C558 1.419 . S
C557 C552 1.425 . S
C557 C554 1.409 . S
C557 C555 1.415 . S
C558 H548 0.930 . S
C558 C556 1.419 . S
C558 C559 1.362 . S
C559 H549 0.930 . S
C559 C552 1.409 . S
C559 C558 1.362 . S
C183 C10 1.418 . S
C188 C87 1.399 . S
C199 C51 1.402 . S
C204 C32 1.377 . S
C215 C29 1.394 . S
C220 C52 1.361 . S
C231 C7 1.421 . S
C236 C76 1.373 . S
C247 C175 1.425 . S
C252 C98 1.376 . S
C263 C120 1.399 . S
C268 C139 1.394 . S
C279 C117 1.388 . S
C284 C140 1.414 . S
C295 C95 1.378 . S
C300 C164 1.385 . S
C311 C15 1.005 . S
C316 C65 1.005 . S
C327 C81 0.957 . S
C332 C37 0.964 . S
C343 C103 0.913 . S
C348 C153 0.909 . S
C359 C125 1.008 . S
C364 C169 1.006 . S
C375 C18 1.980 . S
C380 C62 1.993 . S
C391 C40 1.992 . S
C396 C74 2.002 . S
C407 C150 1.960 . S
C412 C106 1.943 . S
C423 C162 1.999 . S
C428 C128 1.987 . S
C439 C21 1.546 . S
C444 C43 1.557 . S
C455 C59 1.557 . S
C460 C73 1.540 . S
C471 C109 1.573 . S
C476 C131 1.539 . S
C487 C161 1.549 . S
C492 C147 1.548 . S
C503 C8 1.448 . S
C508 C142 1.449 . S
C519 C30 1.434 . S
C524 C172 1.438 . S
C535 C54 1.450 . S
C540 C96 1.449 . S
C551 C118 1.450 . S
C556 C84 1.447 . S
