# Generated by pormake.
# Topology crr, (4)-cn, num edge types: 1
# Building blocks:
#     Node 0, Type 0, BuildingBlock: ESEHIV_clean_sbu_0, # of connection points: 4
#     Node 1, Type 0, BuildingBlock: ESEHIV_clean_sbu_0, # of connection points: 4
#     Node 2, Type 0, BuildingBlock: ESEHIV_clean_sbu_0, # of connection points: 4
#     Node 3, Type 0, BuildingBlock: ESEHIV_clean_sbu_0, # of connection points: 4
#     Node 4, Type 0, BuildingBlock: ESEHIV_clean_sbu_0, # of connection points: 4
#     Node 5, Type 0, BuildingBlock: ESEHIV_clean_sbu_0, # of connection points: 4
#     Node 6, Type 0, BuildingBlock: ESEHIV_clean_sbu_0, # of connection points: 4
#     Node 7, Type 0, BuildingBlock: ESEHIV_clean_sbu_0, # of connection points: 4
#     Node 8, Type 0, BuildingBlock: ESEHIV_clean_sbu_0, # of connection points: 4
#     Node 9, Type 0, BuildingBlock: ESEHIV_clean_sbu_0, # of connection points: 4
#     Node 10, Type 0, BuildingBlock: ESEHIV_clean_sbu_0, # of connection points: 4
#     Node 11, Type 0, BuildingBlock: ESEHIV_clean_sbu_0, # of connection points: 4
#     Edge 12, Type (0, 0), BuildingBlock: ZUJKAS_clean_linker_0, # of connection points: 2
#     Edge 13, Type (0, 0), BuildingBlock: ZUJKAS_clean_linker_0, # of connection points: 2
#     Edge 14, Type (0, 0), BuildingBlock: ZUJKAS_clean_linker_0, # of connection points: 2
#     Edge 15, Type (0, 0), BuildingBlock: ZUJKAS_clean_linker_0, # of connection points: 2
#     Edge 16, Type (0, 0), BuildingBlock: ZUJKAS_clean_linker_0, # of connection points: 2
#     Edge 17, Type (0, 0), BuildingBlock: ZUJKAS_clean_linker_0, # of connection points: 2
#     Edge 18, Type (0, 0), BuildingBlock: ZUJKAS_clean_linker_0, # of connection points: 2
#     Edge 19, Type (0, 0), BuildingBlock: ZUJKAS_clean_linker_0, # of connection points: 2
#     Edge 20, Type (0, 0), BuildingBlock: ZUJKAS_clean_linker_0, # of connection points: 2
#     Edge 21, Type (0, 0), BuildingBlock: ZUJKAS_clean_linker_0, # of connection points: 2
#     Edge 22, Type (0, 0), BuildingBlock: ZUJKAS_clean_linker_0, # of connection points: 2
#     Edge 23, Type (0, 0), BuildingBlock: ZUJKAS_clean_linker_0, # of connection points: 2
#     Edge 24, Type (0, 0), BuildingBlock: ZUJKAS_clean_linker_0, # of connection points: 2
#     Edge 25, Type (0, 0), BuildingBlock: ZUJKAS_clean_linker_0, # of connection points: 2
#     Edge 26, Type (0, 0), BuildingBlock: ZUJKAS_clean_linker_0, # of connection points: 2
#     Edge 27, Type (0, 0), BuildingBlock: ZUJKAS_clean_linker_0, # of connection points: 2
#     Edge 28, Type (0, 0), BuildingBlock: ZUJKAS_clean_linker_0, # of connection points: 2
#     Edge 29, Type (0, 0), BuildingBlock: ZUJKAS_clean_linker_0, # of connection points: 2
#     Edge 30, Type (0, 0), BuildingBlock: ZUJKAS_clean_linker_0, # of connection points: 2
#     Edge 31, Type (0, 0), BuildingBlock: ZUJKAS_clean_linker_0, # of connection points: 2
#     Edge 32, Type (0, 0), BuildingBlock: ZUJKAS_clean_linker_0, # of connection points: 2
#     Edge 33, Type (0, 0), BuildingBlock: ZUJKAS_clean_linker_0, # of connection points: 2
#     Edge 34, Type (0, 0), BuildingBlock: ZUJKAS_clean_linker_0, # of connection points: 2
#     Edge 35, Type (0, 0), BuildingBlock: ZUJKAS_clean_linker_0, # of connection points: 2
# Relax obj value: 0.027
# Max RMSD: 0.136
# Mean RMSD: 0.118
data_MOF--net-crr--node1-ESEHIV_clean_sbu_0--edge1-ZUJKAS_clean_linker_0
_symmetry_space_group_name_H-M    P1
_symmetry_Int_Tables_number       1
_symmetry_cell_setting            triclinic
loop_
_symmetry_equiv_pos_as_xyz
'x, y, z'
_cell_length_a     55.087127
_cell_length_b     59.773703
_cell_length_c     55.188171
_cell_angle_alpha  91.545678
_cell_angle_beta   86.534201
_cell_angle_gamma 88.26618
loop_
_atom_site_label
_atom_site_type_symbol
_atom_site_fract_x
_atom_site_fract_y
_atom_site_fract_z
_atom_type_partial_charge
Cu0 Cu 0.14123 0.37627 0.38824 0.0
N1 N 0.13215 0.40555 0.39884 0.0
N2 N 0.10827 0.4366 0.4034 0.0
C3 C 0.11283 0.41698 0.39098 0.0
C4 C 0.12551 0.4375 0.41978 0.0
C5 C 0.14017 0.4183 0.41697 0.0
O6 O 0.11417 0.35836 0.39997 0.0
C7 C 0.1628 0.39119 0.34549 0.0
O8 O 0.16694 0.408 0.36034 0.0
H9 H 0.10169 0.41042 0.37712 0.0
H10 H 0.15504 0.41364 0.42792 0.0
N11 N 0.16928 0.36445 0.40118 0.0
N12 N 0.19739 0.33774 0.40745 0.0
C13 C 0.17458 0.34232 0.40097 0.0
C14 C 0.18948 0.37441 0.40793 0.0
C15 C 0.20686 0.35794 0.41191 0.0
C16 C 0.11313 0.35617 0.42295 0.0
O17 O 0.13038 0.36475 0.43538 0.0
H18 H 0.16232 0.32991 0.39469 0.0
H19 H 0.19184 0.3923 0.4087 0.0
O20 O 0.14957 0.37546 0.35335 0.0
H21 H 0.12728 0.4509 0.43307 0.0
H22 H 0.22521 0.36069 0.41701 0.0
Cu23 Cu 0.34672 0.89332 0.668 0.0
N24 N 0.31484 0.88344 0.66836 0.0
N25 N 0.28519 0.85937 0.66298 0.0
C26 C 0.30894 0.86364 0.65853 0.0
C27 C 0.27576 0.87731 0.67613 0.0
C28 C 0.29415 0.89207 0.67958 0.0
O29 O 0.36431 0.87045 0.68526 0.0
C30 C 0.34381 0.911 0.62294 0.0
O31 O 0.32186 0.9156 0.63279 0.0
H32 H 0.32203 0.85244 0.64861 0.0
H33 H 0.29265 0.90753 0.69022 0.0
N34 N 0.35017 0.9208 0.68413 0.0
N35 N 0.37123 0.94959 0.69746 0.0
C36 C 0.37195 0.92778 0.69042 0.0
C37 C 0.33496 0.93883 0.68718 0.0
C38 C 0.3479 0.95663 0.69552 0.0
C39 C 0.35999 0.87147 0.70825 0.0
O40 O 0.34585 0.88788 0.71784 0.0
H41 H 0.38841 0.91741 0.68797 0.0
H42 H 0.3163 0.93947 0.68215 0.0
O43 O 0.35839 0.89905 0.63469 0.0
H44 H 0.25716 0.87923 0.68358 0.0
H45 H 0.3409 0.97362 0.69878 0.0
Cu46 Cu 0.90661 0.63956 0.35023 0.0
N47 N 0.90048 0.63757 0.31725 0.0
N48 N 0.87857 0.63476 0.28449 0.0
C49 C 0.87871 0.63288 0.30883 0.0
C50 C 0.90128 0.64084 0.27739 0.0
C51 C 0.9147 0.64268 0.29763 0.0
O52 O 0.88111 0.6599 0.36487 0.0
C53 C 0.91969 0.59403 0.35044 0.0
O54 O 0.92224 0.59691 0.32693 0.0
H55 H 0.86317 0.62862 0.32053 0.0
H56 H 0.93316 0.64819 0.29803 0.0
N57 N 0.93609 0.65249 0.35625 0.0
N58 N 0.96409 0.66451 0.38084 0.0
C59 C 0.94019 0.66181 0.37801 0.0
C60 C 0.95818 0.64915 0.34472 0.0
C61 C 0.9755 0.65669 0.3598 0.0
C62 C 0.88257 0.67952 0.35643 0.0
O63 O 0.90042 0.6833 0.34031 0.0
H64 H 0.92607 0.66427 0.39242 0.0
H65 H 0.96167 0.64003 0.32762 0.0
O66 O 0.9101 0.60993 0.36404 0.0
H67 H 0.90751 0.64469 0.25905 0.0
H68 H 0.99501 0.65508 0.35618 0.0
Cu69 Cu 0.63514 0.10492 0.6454 0.0
N70 N 0.6675 0.11169 0.64998 0.0
N71 N 0.69946 0.13362 0.65257 0.0
C72 C 0.6752 0.13283 0.65097 0.0
C73 C 0.70749 0.11207 0.65256 0.0
C74 C 0.68766 0.09852 0.6511 0.0
O75 O 0.61746 0.13352 0.6518 0.0
C76 C 0.64167 0.07163 0.60999 0.0
O77 O 0.6527 0.06273 0.62802 0.0
H78 H 0.6633 0.14741 0.64956 0.0
H79 H 0.68808 0.08043 0.6505 0.0
N80 N 0.62271 0.08427 0.66733 0.0
N81 N 0.59492 0.063 0.68574 0.0
C82 C 0.59931 0.07848 0.66882 0.0
C83 C 0.63373 0.07202 0.68384 0.0
C84 C 0.61659 0.05878 0.69521 0.0
C85 C 0.61359 0.13934 0.67416 0.0
O86 O 0.61908 0.12499 0.69073 0.0
H87 H 0.58588 0.08526 0.65726 0.0
H88 H 0.65283 0.07259 0.68726 0.0
O89 O 0.63241 0.09141 0.61301 0.0
H90 H 0.7263 0.10651 0.65343 0.0
H91 H 0.6198 0.0471 0.70941 0.0
Cu92 Cu 0.1077 0.63949 0.65503 0.0
N93 N 0.11303 0.64299 0.68797 0.0
N94 N 0.13487 0.6421 0.72083 0.0
C95 C 0.13374 0.63576 0.69729 0.0
C96 C 0.11385 0.65387 0.72653 0.0
C97 C 0.10042 0.65444 0.70616 0.0
O98 O 0.13457 0.65494 0.63888 0.0
C99 C 0.09013 0.59752 0.66165 0.0
O100 O 0.08133 0.60822 0.68152 0.0
H101 H 0.14822 0.62691 0.68649 0.0
H102 H 0.08315 0.66318 0.70457 0.0
N103 N 0.07903 0.65295 0.64531 0.0
N104 N 0.05302 0.6633 0.61781 0.0
C105 C 0.07617 0.65726 0.62189 0.0
C106 C 0.05691 0.65647 0.65674 0.0
C107 C 0.04081 0.66305 0.63978 0.0
C108 C 0.13259 0.67612 0.64245 0.0
O109 O 0.11319 0.68449 0.65493 0.0
H110 H 0.09078 0.65504 0.60795 0.0
H111 H 0.05247 0.65319 0.67564 0.0
O112 O 0.10442 0.60776 0.64698 0.0
H113 H 0.10865 0.6618 0.744 0.0
H114 H 0.0214 0.66601 0.64311 0.0
Cu115 Cu 0.65697 0.90232 0.35795 0.0
N116 N 0.68996 0.89362 0.35551 0.0
N117 N 0.72262 0.87072 0.35798 0.0
C118 C 0.69812 0.87298 0.36078 0.0
C119 C 0.73009 0.89089 0.3505 0.0
C120 C 0.70991 0.90496 0.34897 0.0
O121 O 0.64031 0.87779 0.34268 0.0
C122 C 0.66043 0.92541 0.40067 0.0
O123 O 0.67904 0.93234 0.38721 0.0
H124 H 0.68608 0.85985 0.36631 0.0
H125 H 0.70984 0.92227 0.34376 0.0
N126 N 0.649 0.92803 0.34126 0.0
N127 N 0.62378 0.95525 0.32988 0.0
C128 C 0.62687 0.93803 0.34477 0.0
C129 C 0.66059 0.93933 0.32347 0.0
C130 C 0.64494 0.95615 0.31631 0.0
C131 C 0.64618 0.87584 0.31998 0.0
O132 O 0.66177 0.8898 0.31041 0.0
H133 H 0.61294 0.93211 0.35749 0.0
H134 H 0.67874 0.93526 0.31575 0.0
O135 O 0.64737 0.9103 0.39183 0.0
H136 H 0.74878 0.89539 0.34674 0.0
H137 H 0.64879 0.96796 0.30217 0.0
Cu138 Cu 0.89242 0.36654 0.6408 0.0
N139 N 0.86201 0.35819 0.63106 0.0
N140 N 0.83023 0.33608 0.62843 0.0
C141 C 0.85126 0.33962 0.63897 0.0
C142 C 0.82754 0.35317 0.61323 0.0
C143 C 0.84713 0.36693 0.61502 0.0
O144 O 0.89164 0.35774 0.67467 0.0
C145 C 0.91548 0.35457 0.59678 0.0
O146 O 0.89718 0.36717 0.5903 0.0
H147 H 0.85923 0.32845 0.65164 0.0
H148 H 0.85054 0.3819 0.60494 0.0
N149 N 0.89775 0.39717 0.63788 0.0
N150 N 0.91828 0.42883 0.63468 0.0
C151 C 0.91979 0.4064 0.63702 0.0
C152 C 0.88165 0.4143 0.63589 0.0
C153 C 0.89425 0.43387 0.63401 0.0
C154 C 0.88258 0.37141 0.69117 0.0
O155 O 0.87877 0.39241 0.68572 0.0
H156 H 0.93658 0.39677 0.63843 0.0
H157 H 0.86215 0.41269 0.63592 0.0
O158 O 0.91736 0.35115 0.61931 0.0
H159 H 0.81259 0.35547 0.60158 0.0
H160 H 0.88632 0.45045 0.63203 0.0
Cu161 Cu 0.37706 0.11635 0.39467 0.0
N162 N 0.39186 0.143 0.38657 0.0
N163 N 0.39932 0.1721 0.36293 0.0
C164 C 0.3841 0.15556 0.36856 0.0
C165 C 0.41754 0.16993 0.37809 0.0
C166 C 0.41282 0.15195 0.3928 0.0
O167 O 0.34333 0.12239 0.38733 0.0
C168 C 0.4158 0.08842 0.38163 0.0
O169 O 0.42345 0.09971 0.40029 0.0
H170 H 0.36838 0.15162 0.35859 0.0
H171 H 0.4244 0.1453 0.4062 0.0
N172 N 0.37942 0.10903 0.42729 0.0
N173 N 0.38133 0.08762 0.45982 0.0
C174 C 0.37906 0.08805 0.43561 0.0
C175 C 0.38202 0.12243 0.44688 0.0
C176 C 0.38307 0.10926 0.46702 0.0
C177 C 0.32676 0.12675 0.40406 0.0
O178 O 0.33027 0.12042 0.42621 0.0
H179 H 0.37698 0.07339 0.42406 0.0
H180 H 0.38309 0.14046 0.4465 0.0
O181 O 0.39448 0.09281 0.3749 0.0
H182 H 0.43344 0.18014 0.37806 0.0
H183 H 0.38533 0.11513 0.48545 0.0
Cu184 Cu 0.37703 0.35338 0.114 0.0
N185 N 0.37216 0.3235 0.12174 0.0
N186 N 0.37116 0.29418 0.14607 0.0
C187 C 0.37414 0.31639 0.14446 0.0
C188 C 0.36711 0.28691 0.12333 0.0
C189 C 0.36758 0.30511 0.10833 0.0
O190 O 0.36253 0.36998 0.14261 0.0
C191 C 0.42037 0.34409 0.08825 0.0
O192 O 0.406 0.3293 0.07921 0.0
H193 H 0.37848 0.32732 0.15944 0.0
H194 H 0.36529 0.30478 0.08902 0.0
N195 N 0.36092 0.36348 0.08731 0.0
N196 N 0.34673 0.3891 0.06247 0.0
C197 C 0.36008 0.38522 0.08172 0.0
C198 C 0.34764 0.35301 0.07102 0.0
C199 C 0.33881 0.36884 0.05566 0.0
C200 C 0.33928 0.37047 0.14401 0.0
O201 O 0.32786 0.36148 0.12614 0.0
H202 H 0.36858 0.39802 0.09221 0.0
H203 H 0.34427 0.3353 0.07054 0.0
O204 O 0.4117 0.35723 0.10547 0.0
H205 H 0.3641 0.26973 0.11792 0.0
H206 H 0.32747 0.36563 0.04069 0.0
Cu207 Cu 0.35558 0.64683 0.91671 0.0
N208 N 0.35148 0.6777 0.91334 0.0
N209 N 0.3517 0.71 0.8937 0.0
C210 C 0.35523 0.68756 0.89187 0.0
C211 C 0.34551 0.71442 0.91747 0.0
C212 C 0.34537 0.69444 0.92956 0.0
O213 O 0.34296 0.6336 0.88751 0.0
C214 C 0.39457 0.64698 0.94426 0.0
O215 O 0.37771 0.65824 0.95781 0.0
H216 H 0.36093 0.67832 0.87527 0.0
H217 H 0.34129 0.69232 0.94875 0.0
N218 N 0.33769 0.63477 0.94289 0.0
N219 N 0.32626 0.60772 0.96795 0.0
C220 C 0.34051 0.61314 0.9484 0.0
C221 C 0.32091 0.64357 0.95949 0.0
C222 C 0.31374 0.62682 0.97498 0.0
C223 C 0.31997 0.63687 0.88736 0.0
O224 O 0.30862 0.6479 0.90582 0.0
H225 H 0.35273 0.60156 0.9379 0.0
H226 H 0.31434 0.66081 0.96027 0.0
O227 O 0.38953 0.6403 0.92303 0.0
H228 H 0.3412 0.73085 0.92558 0.0
H229 H 0.30062 0.62868 0.99036 0.0
Cu230 Cu 0.6537 0.65757 0.09221 0.0
N231 N 0.67068 0.65109 0.06231 0.0
N232 N 0.67853 0.63213 0.02713 0.0
C233 C 0.66656 0.63251 0.04916 0.0
C234 C 0.69109 0.65117 0.02646 0.0
C235 C 0.68606 0.66298 0.04821 0.0
O236 O 0.62064 0.64862 0.08647 0.0
C237 C 0.69327 0.64385 0.11638 0.0
O238 O 0.70349 0.65508 0.09858 0.0
H239 H 0.65443 0.61973 0.05555 0.0
H240 H 0.69259 0.67928 0.05309 0.0
N241 N 0.65279 0.68787 0.10151 0.0
N242 N 0.64785 0.71807 0.12644 0.0
C243 C 0.64877 0.69547 0.12463 0.0
C244 C 0.6546 0.70622 0.08806 0.0
C245 C 0.65158 0.72488 0.10337 0.0
C246 C 0.61261 0.65754 0.06765 0.0
O247 O 0.6256 0.67275 0.05663 0.0
H248 H 0.64662 0.68444 0.13978 0.0
H249 H 0.65748 0.70609 0.0685 0.0
O250 O 0.67024 0.64188 0.11742 0.0
H251 H 0.70229 0.65659 0.01106 0.0
H252 H 0.65158 0.74208 0.09776 0.0
Cu253 Cu 0.64154 0.37367 0.87048 0.0
N254 N 0.63885 0.40459 0.86774 0.0
N255 N 0.64251 0.44102 0.87645 0.0
C256 C 0.64576 0.4199 0.88405 0.0
C257 C 0.63318 0.43882 0.85446 0.0
C258 C 0.63094 0.41631 0.84914 0.0
O259 O 0.62894 0.36746 0.90342 0.0
C260 C 0.68561 0.34639 0.85964 0.0
O261 O 0.67244 0.32872 0.8634 0.0
H262 H 0.65356 0.41553 0.90088 0.0
H263 H 0.62425 0.40899 0.8328 0.0
N264 N 0.6223 0.36022 0.84769 0.0
N265 N 0.60973 0.33847 0.81754 0.0
C266 C 0.62901 0.34532 0.82955 0.0
C267 C 0.59806 0.36312 0.84694 0.0
C268 C 0.59025 0.34973 0.82844 0.0
C269 C 0.61675 0.35031 0.90874 0.0
O270 O 0.61509 0.33434 0.89215 0.0
H271 H 0.64752 0.33919 0.82562 0.0
H272 H 0.58683 0.374 0.85927 0.0
O273 O 0.67583 0.36587 0.8631 0.0
H274 H 0.62819 0.45246 0.84306 0.0
H275 H 0.57163 0.34839 0.82349 0.0
H276 H 0.24593 0.32803 0.40024 0.0
H277 H 0.26585 0.29081 0.3974 0.0
H278 H 0.1964 0.2606 0.41065 0.0
H279 H 0.17638 0.29768 0.41367 0.0
H280 H 0.26685 0.25757 0.43125 0.0
H281 H 0.22377 0.22729 0.34874 0.0
H282 H 0.22295 0.25645 0.3583 0.0
H283 H 0.20242 0.23736 0.37274 0.0
C284 C 0.23489 0.31351 0.40276 0.0
C285 C 0.20948 0.31591 0.407 0.0
C286 C 0.2463 0.29221 0.40096 0.0
C287 C 0.23256 0.27288 0.40328 0.0
C288 C 0.20731 0.27523 0.40811 0.0
H289 H 0.28924 0.14095 0.43595 0.0
H290 H 0.26467 0.17555 0.43445 0.0
C291 C 0.19589 0.29648 0.40989 0.0
C292 C 0.24473 0.25029 0.40137 0.0
H293 H 0.2462 0.20013 0.36986 0.0
C294 C 0.26238 0.24504 0.41779 0.0
C295 C 0.23909 0.23403 0.38359 0.0
C296 C 0.2212 0.23907 0.36467 0.0
C297 C 0.2742 0.22387 0.41723 0.0
C298 C 0.26795 0.20734 0.40004 0.0
C299 C 0.25069 0.21271 0.38325 0.0
C300 C 0.27968 0.1846 0.39907 0.0
C301 C 0.29358 0.21948 0.43487 0.0
C302 C 0.29513 0.17749 0.379 0.0
C303 C 0.30908 0.15755 0.37968 0.0
C304 C 0.30784 0.14441 0.40051 0.0
C305 C 0.29084 0.15073 0.41973 0.0
C306 C 0.27688 0.1706 0.41898 0.0
H307 H 0.30021 0.23527 0.44282 0.0
H308 H 0.28592 0.20943 0.44995 0.0
H309 H 0.30933 0.20985 0.42585 0.0
H310 H 0.2974 0.18796 0.36336 0.0
H311 H 0.32189 0.1532 0.36451 0.0
H312 H 0.30523 0.81744 0.65604 0.0
H313 H 0.28437 0.78329 0.64553 0.0
H314 H 0.21649 0.8211 0.64534 0.0
H315 H 0.23732 0.85543 0.65539 0.0
H316 H 0.2456 0.7644 0.67267 0.0
H317 H 0.21923 0.78509 0.58041 0.0
H318 H 0.24243 0.79979 0.59558 0.0
H319 H 0.21078 0.80659 0.60297 0.0
C320 C 0.28594 0.8186 0.65337 0.0
C321 C 0.27297 0.83925 0.65642 0.0
C322 C 0.27403 0.79902 0.64749 0.0
C323 C 0.24897 0.7997 0.64427 0.0
C324 C 0.23595 0.82026 0.64728 0.0
H325 H 0.12746 0.7204 0.63508 0.0
H326 H 0.15925 0.74771 0.63183 0.0
C327 C 0.24781 0.83983 0.65329 0.0
C328 C 0.23609 0.7788 0.63908 0.0
H329 H 0.19845 0.75498 0.5995 0.0
C330 C 0.23562 0.7621 0.65648 0.0
C331 C 0.22325 0.77582 0.61787 0.0
C332 C 0.22409 0.79267 0.59801 0.0
C333 C 0.22135 0.74316 0.65401 0.0
C334 C 0.20759 0.74066 0.63329 0.0
C335 C 0.20905 0.75686 0.61532 0.0
C336 C 0.18902 0.72325 0.63168 0.0
C337 C 0.21993 0.72673 0.67431 0.0
C338 C 0.19515 0.70021 0.63165 0.0
C339 C 0.17682 0.68439 0.6335 0.0
C340 C 0.1522 0.69149 0.63545 0.0
C341 C 0.14627 0.71442 0.63384 0.0
C342 C 0.16445 0.73008 0.63192 0.0
H343 H 0.2285 0.73307 0.69075 0.0
H344 H 0.2007 0.723 0.67939 0.0
H345 H 0.22952 0.71082 0.66812 0.0
H346 H 0.21404 0.69455 0.63103 0.0
H347 H 0.18191 0.66683 0.63474 0.0
H348 H 0.70968 0.83441 0.38423 0.0
H349 H 0.73432 0.80062 0.39005 0.0
H350 H 0.79408 0.82782 0.34763 0.0
H351 H 0.76947 0.86149 0.34108 0.0
H352 H 0.75748 0.77082 0.35225 0.0
H353 H 0.82342 0.80848 0.41226 0.0
H354 H 0.79413 0.82156 0.40757 0.0
H355 H 0.81887 0.82353 0.38505 0.0
C356 C 0.72796 0.83328 0.37591 0.0
C357 C 0.73744 0.85089 0.36207 0.0
C358 C 0.74209 0.81392 0.37943 0.0
C359 C 0.76609 0.81182 0.36952 0.0
C360 C 0.7757 0.82928 0.3558 0.0
H361 H 0.88642 0.72323 0.34574 0.0
H362 H 0.85622 0.75345 0.35274 0.0
C363 C 0.76156 0.84859 0.3521 0.0
C364 C 0.78096 0.79112 0.37279 0.0
H365 H 0.8342 0.77234 0.39481 0.0
C366 C 0.77408 0.77099 0.36186 0.0
C367 C 0.80246 0.79142 0.3855 0.0
C368 C 0.81012 0.81234 0.39848 0.0
C369 C 0.78896 0.75146 0.362 0.0
C370 C 0.81105 0.75201 0.37384 0.0
C371 C 0.81727 0.7719 0.38577 0.0
C372 C 0.82945 0.73324 0.37132 0.0
C373 C 0.78165 0.73079 0.34829 0.0
C374 C 0.8247 0.71174 0.37988 0.0
C375 C 0.84213 0.69415 0.37581 0.0
C376 C 0.8645 0.69789 0.36313 0.0
C377 C 0.86934 0.71963 0.35539 0.0
C378 C 0.85208 0.73703 0.35945 0.0
H379 H 0.7662 0.7343 0.33678 0.0
H380 H 0.79723 0.72368 0.33654 0.0
H381 H 0.77604 0.71791 0.36142 0.0
H382 H 0.80749 0.70852 0.38948 0.0
H383 H 0.83789 0.67761 0.38205 0.0
H384 H 0.80537 0.3146 0.59444 0.0
H385 H 0.78252 0.28034 0.59961 0.0
H386 H 0.79784 0.28038 0.67537 0.0
H387 H 0.82124 0.31422 0.67003 0.0
H388 H 0.80612 0.24009 0.65565 0.0
H389 H 0.71589 0.27118 0.62978 0.0
H390 H 0.7393 0.27493 0.60636 0.0
H391 H 0.74037 0.2897 0.63514 0.0
C392 C 0.8035 0.30747 0.61225 0.0
C393 C 0.81504 0.31707 0.63183 0.0
C394 C 0.79039 0.28791 0.61523 0.0
C395 C 0.78812 0.27789 0.63798 0.0
C396 C 0.79931 0.28775 0.65764 0.0
H397 H 0.68591 0.17386 0.67329 0.0
H398 H 0.70833 0.2085 0.67096 0.0
C399 C 0.81268 0.30708 0.65458 0.0
C400 C 0.77509 0.2566 0.64114 0.0
H401 H 0.72117 0.23164 0.63274 0.0
C402 C 0.78748 0.2383 0.65078 0.0
C403 C 0.75066 0.25429 0.63511 0.0
C404 C 0.73569 0.27364 0.62627 0.0
C405 C 0.77626 0.21773 0.65429 0.0
C406 C 0.75219 0.21513 0.64727 0.0
C407 C 0.73971 0.23351 0.6379 0.0
C408 C 0.73938 0.19365 0.64978 0.0
C409 C 0.79018 0.19923 0.66603 0.0
C410 C 0.74936 0.17367 0.6388 0.0
C411 C 0.73667 0.15375 0.64042 0.0
C412 C 0.71353 0.15357 0.65259 0.0
C413 C 0.70363 0.17354 0.66365 0.0
C414 C 0.71644 0.19334 0.66232 0.0
H415 H 0.80472 0.20596 0.67701 0.0
H416 H 0.77795 0.18929 0.67796 0.0
H417 H 0.79903 0.18787 0.65167 0.0
H418 H 0.7667 0.17355 0.62846 0.0
H419 H 0.74454 0.1387 0.6314 0.0
H420 H 0.35919 0.30784 0.19245 0.0
H421 H 0.36527 0.287 0.22917 0.0
H422 H 0.39418 0.23034 0.18543 0.0
H423 H 0.38782 0.25113 0.14848 0.0
H424 H 0.3634 0.21756 0.22206 0.0
H425 H 0.42955 0.27546 0.25876 0.0
H426 H 0.40135 0.28944 0.25281 0.0
H427 H 0.42021 0.2768 0.22805 0.0
C428 C 0.36696 0.29098 0.19064 0.0
C429 C 0.37328 0.28122 0.16756 0.0
C430 C 0.37052 0.27911 0.21167 0.0
C431 C 0.38081 0.25731 0.21012 0.0
C432 C 0.38643 0.24723 0.18708 0.0
H433 H 0.43636 0.18736 0.33382 0.0
H434 H 0.43262 0.20807 0.29634 0.0
C435 C 0.38268 0.25906 0.16598 0.0
C436 C 0.3853 0.245 0.23256 0.0
H437 H 0.41311 0.24874 0.28619 0.0
C438 C 0.3744 0.22431 0.236 0.0
C439 C 0.40004 0.25359 0.25059 0.0
C440 C 0.41367 0.27492 0.24729 0.0
C441 C 0.37723 0.21231 0.25725 0.0
C442 C 0.39084 0.22151 0.27587 0.0
C443 C 0.40237 0.24186 0.27211 0.0
C444 C 0.39325 0.21027 0.29936 0.0
C445 C 0.36583 0.18974 0.25937 0.0
C446 C 0.37245 0.20537 0.31397 0.0
C447 C 0.37456 0.19353 0.33526 0.0
C448 C 0.39754 0.18662 0.34262 0.0
C449 C 0.41844 0.19257 0.32868 0.0
C450 C 0.4163 0.20428 0.30721 0.0
H451 H 0.36264 0.18225 0.24124 0.0
H452 H 0.37747 0.17791 0.26907 0.0
H453 H 0.34795 0.19177 0.26971 0.0
H454 H 0.35451 0.21044 0.30874 0.0
H455 H 0.35817 0.18951 0.34587 0.0
H456 H 0.33443 0.63233 0.83863 0.0
H457 H 0.30737 0.62793 0.80492 0.0
H458 H 0.246 0.62267 0.8566 0.0
H459 H 0.27265 0.62672 0.88988 0.0
H460 H 0.24421 0.5933 0.81703 0.0
H461 H 0.26142 0.68052 0.78898 0.0
H462 H 0.28744 0.66163 0.78919 0.0
H463 H 0.27109 0.66995 0.81727 0.0
C464 C 0.31527 0.62967 0.84266 0.0
C465 C 0.30558 0.63006 0.86682 0.0
C466 C 0.29981 0.62739 0.82345 0.0
C467 C 0.27459 0.62538 0.82828 0.0
C468 C 0.26534 0.62429 0.85241 0.0
H469 H 0.14642 0.66683 0.76039 0.0
H470 H 0.18163 0.66114 0.78468 0.0
C471 C 0.28062 0.62667 0.87143 0.0
C472 C 0.25714 0.62601 0.80881 0.0
H473 H 0.23067 0.66167 0.77007 0.0
C474 C 0.24148 0.60808 0.80643 0.0
C475 C 0.25337 0.6455 0.79534 0.0
C476 C 0.26905 0.66561 0.79782 0.0
C477 C 0.22165 0.60939 0.79161 0.0
C478 C 0.21765 0.62902 0.77845 0.0
C479 C 0.23379 0.64665 0.78019 0.0
C480 C 0.19614 0.63209 0.76375 0.0
C481 C 0.20448 0.5902 0.79115 0.0
C482 C 0.19255 0.61766 0.74392 0.0
C483 C 0.17226 0.62071 0.73018 0.0
C484 C 0.15521 0.63842 0.73578 0.0
C485 C 0.1589 0.65285 0.75569 0.0
C486 C 0.17918 0.64974 0.76948 0.0
H487 H 0.20681 0.57886 0.80653 0.0
H488 H 0.18525 0.59645 0.79189 0.0
H489 H 0.20815 0.58021 0.77401 0.0
H490 H 0.20556 0.60413 0.73892 0.0
H491 H 0.16995 0.6091 0.71518 0.0
H492 H 0.65781 0.76213 0.13283 0.0
H493 H 0.65023 0.7853 0.16978 0.0
H494 H 0.62076 0.72893 0.20719 0.0
H495 H 0.62754 0.70568 0.17022 0.0
H496 H 0.60066 0.79088 0.19974 0.0
H497 H 0.67807 0.75515 0.24842 0.0
H498 H 0.6782 0.75414 0.21566 0.0
H499 H 0.65851 0.73652 0.23309 0.0
C500 C 0.64948 0.7546 0.14874 0.0
C501 C 0.6434 0.73188 0.14833 0.0
C502 C 0.64527 0.76789 0.16992 0.0
C503 C 0.63509 0.75876 0.1912 0.0
C504 C 0.62885 0.73621 0.19097 0.0
H505 H 0.63111 0.83364 0.3319 0.0
H506 H 0.62289 0.80288 0.30311 0.0
C507 C 0.63291 0.72292 0.16976 0.0
C508 C 0.6311 0.77298 0.21358 0.0
H509 H 0.65619 0.78595 0.26705 0.0
C510 C 0.61257 0.78964 0.21463 0.0
C511 C 0.6464 0.77105 0.23311 0.0
C512 C 0.66652 0.75333 0.23271 0.0
C513 C 0.60958 0.80507 0.23431 0.0
C514 C 0.62596 0.80414 0.2531 0.0
C515 C 0.64363 0.78666 0.25268 0.0
C516 C 0.62749 0.8229 0.27112 0.0
C517 C 0.58921 0.82252 0.23452 0.0
C518 C 0.63256 0.84428 0.26275 0.0
C519 C 0.63726 0.86162 0.27898 0.0
C520 C 0.63712 0.85805 0.30405 0.0
C521 C 0.63108 0.8369 0.31269 0.0
C522 C 0.62652 0.81934 0.29628 0.0
H523 H 0.57358 0.81619 0.22484 0.0
H524 H 0.58274 0.82773 0.25334 0.0
H525 H 0.5958 0.83747 0.22495 0.0
H526 H 0.634 0.84737 0.24347 0.0
H527 H 0.64185 0.87773 0.27174 0.0
H528 H 0.71806 0.37943 0.85117 0.0
H529 H 0.75679 0.37662 0.82718 0.0
H530 H 0.7489 0.30547 0.81743 0.0
H531 H 0.70984 0.30813 0.84128 0.0
H532 H 0.80073 0.35091 0.83138 0.0
H533 H 0.75454 0.32826 0.74752 0.0
H534 H 0.73797 0.3392 0.7747 0.0
H535 H 0.7492 0.31065 0.77307 0.0
C536 C 0.72462 0.3631 0.84419 0.0
C537 C 0.71065 0.34403 0.84798 0.0
C538 C 0.74684 0.36153 0.83049 0.0
C539 C 0.75557 0.34092 0.82016 0.0
C540 C 0.74232 0.32163 0.82488 0.0
H541 H 0.86994 0.32846 0.70192 0.0
H542 H 0.84263 0.3172 0.73586 0.0
C543 C 0.72005 0.32316 0.83867 0.0
C544 C 0.77778 0.34013 0.80337 0.0
H545 H 0.79651 0.33352 0.74338 0.0
C546 C 0.7999 0.34685 0.81218 0.0
C547 C 0.77674 0.33471 0.77833 0.0
C548 C 0.75335 0.32794 0.76768 0.0
C549 C 0.8208 0.34887 0.79654 0.0
C550 C 0.81944 0.34452 0.77132 0.0
C551 C 0.79761 0.33682 0.7627 0.0
C552 C 0.83933 0.35015 0.75321 0.0
C553 C 0.84407 0.35586 0.8072 0.0
C554 C 0.84705 0.37228 0.7519 0.0
C555 C 0.86267 0.37872 0.73262 0.0
C556 C 0.87085 0.36323 0.71405 0.0
C557 C 0.86422 0.34077 0.71604 0.0
C558 C 0.84846 0.33433 0.73536 0.0
H559 H 0.84479 0.3506 0.82631 0.0
H560 H 0.86031 0.34865 0.79652 0.0
H561 H 0.84489 0.37439 0.80722 0.0
H562 H 0.83988 0.38495 0.76504 0.0
H563 H 0.86732 0.39617 0.73161 0.0
H564 H 0.37085 0.87632 0.75506 0.0
H565 H 0.37411 0.84703 0.78472 0.0
H566 H 0.36757 0.79671 0.72819 0.0
H567 H 0.36487 0.8262 0.69816 0.0
H568 H 0.33652 0.81965 0.79453 0.0
H569 H 0.42031 0.7687 0.7677 0.0
H570 H 0.41486 0.7964 0.75648 0.0
H571 H 0.39994 0.77284 0.74388 0.0
C572 C 0.37085 0.85898 0.74881 0.0
C573 C 0.36764 0.85351 0.72432 0.0
C574 C 0.37263 0.84225 0.7658 0.0
C575 C 0.37107 0.81964 0.75876 0.0
C576 C 0.36923 0.814 0.73402 0.0
H577 H 0.34834 0.70141 0.84539 0.0
H578 H 0.35354 0.72767 0.8125 0.0
C579 C 0.36772 0.83085 0.71685 0.0
C580 C 0.36851 0.80258 0.77782 0.0
H581 H 0.39406 0.75471 0.79912 0.0
C582 C 0.34919 0.80551 0.79556 0.0
C583 C 0.38488 0.784 0.77905 0.0
C584 C 0.4063 0.78031 0.7609 0.0
C585 C 0.34581 0.79049 0.81448 0.0
C586 C 0.36237 0.77212 0.81596 0.0
C587 C 0.38147 0.7689 0.79802 0.0
C588 C 0.36001 0.75609 0.83603 0.0
C589 C 0.32427 0.79421 0.83253 0.0
C590 C 0.36213 0.76329 0.86023 0.0
C591 C 0.35927 0.74826 0.87915 0.0
C592 C 0.35436 0.72567 0.87426 0.0
C593 C 0.35244 0.71855 0.84991 0.0
C594 C 0.35533 0.73357 0.83103 0.0
H595 H 0.31018 0.80561 0.82554 0.0
H596 H 0.31583 0.77811 0.83712 0.0
H597 H 0.33048 0.80194 0.84949 0.0
H598 H 0.3661 0.78054 0.86447 0.0
H599 H 0.36126 0.7543 0.89756 0.0
H600 H 0.74082 0.63146 0.11112 0.0
H601 H 0.76895 0.62599 0.14301 0.0
H602 H 0.7095 0.63443 0.19734 0.0
H603 H 0.68094 0.6396 0.16515 0.0
H604 H 0.7749 0.66034 0.17712 0.0
H605 H 0.75022 0.58128 0.22219 0.0
H606 H 0.74119 0.5877 0.19215 0.0
H607 H 0.72584 0.60134 0.21836 0.0
C608 C 0.7336 0.63161 0.12983 0.0
C609 C 0.70871 0.63603 0.13567 0.0
C610 C 0.74971 0.62849 0.14805 0.0
C611 C 0.74138 0.62982 0.17256 0.0
C612 C 0.71629 0.63302 0.17852 0.0
H613 H 0.83036 0.63881 0.29882 0.0
H614 H 0.79595 0.63695 0.27294 0.0
C615 C 0.7 0.63596 0.16014 0.0
C616 C 0.75951 0.63037 0.19142 0.0
H617 H 0.78185 0.60174 0.23849 0.0
C618 C 0.77636 0.64754 0.19057 0.0
C619 C 0.76123 0.61381 0.20911 0.0
C620 C 0.7438 0.59486 0.21056 0.0
C621 C 0.79517 0.64837 0.20655 0.0
C622 C 0.79745 0.6314 0.22369 0.0
C623 C 0.78014 0.61462 0.22517 0.0
C624 C 0.81815 0.63069 0.23967 0.0
C625 C 0.81249 0.66744 0.20497 0.0
C626 C 0.84203 0.62731 0.2296 0.0
C627 C 0.86177 0.62824 0.24434 0.0
C628 C 0.85807 0.63254 0.2695 0.0
C629 C 0.834 0.63526 0.27961 0.0
C630 C 0.81425 0.63428 0.26483 0.0
H631 H 0.80485 0.68179 0.19518 0.0
H632 H 0.81697 0.6734 0.22335 0.0
H633 H 0.82966 0.66154 0.19493 0.0
H634 H 0.8454 0.6242 0.21025 0.0
H635 H 0.87993 0.62563 0.23596 0.0
H636 H 0.62314 0.17793 0.64965 0.0
H637 H 0.62209 0.21616 0.6676 0.0
H638 H 0.59113 0.19157 0.73497 0.0
H639 H 0.5921 0.15365 0.71736 0.0
H640 H 0.5791 0.24395 0.69904 0.0
H641 H 0.66258 0.21935 0.74489 0.0
H642 H 0.65407 0.20571 0.71718 0.0
H643 H 0.63868 0.19944 0.74567 0.0
C644 C 0.61537 0.18085 0.66801 0.0
C645 C 0.60776 0.16281 0.68215 0.0
C646 C 0.61493 0.20263 0.67826 0.0
C647 C 0.60678 0.20655 0.70266 0.0
C648 C 0.59761 0.18883 0.71616 0.0
H649 H 0.57254 0.31196 0.8067 0.0
H650 H 0.57294 0.28236 0.77545 0.0
C651 C 0.59814 0.16718 0.70604 0.0
C652 C 0.60975 0.22847 0.71511 0.0
H653 H 0.64154 0.25269 0.7595 0.0
C654 C 0.59295 0.24607 0.712 0.0
C655 C 0.62805 0.23124 0.73173 0.0
C656 C 0.64705 0.21303 0.73504 0.0
C657 C 0.59328 0.26608 0.72602 0.0
C658 C 0.61057 0.26825 0.74388 0.0
C659 C 0.62815 0.25102 0.74599 0.0
C660 C 0.6099 0.28749 0.76162 0.0
C661 C 0.57498 0.28459 0.72167 0.0
C662 C 0.63073 0.3 0.76475 0.0
C663 C 0.63062 0.31692 0.78283 0.0
C664 C 0.60968 0.32163 0.79824 0.0
C665 C 0.58882 0.30915 0.79491 0.0
C666 C 0.58898 0.29222 0.77692 0.0
H667 H 0.56906 0.28366 0.70278 0.0
H668 H 0.55863 0.28284 0.73415 0.0
H669 H 0.58252 0.30133 0.72504 0.0
H670 H 0.64716 0.29655 0.7533 0.0
H671 H 0.64693 0.32629 0.78472 0.0
H672 H 0.29597 0.39283 0.14581 0.0
H673 H 0.26672 0.39787 0.18069 0.0
H674 H 0.31868 0.36798 0.22661 0.0
H675 H 0.34841 0.36359 0.19162 0.0
H676 H 0.24721 0.36442 0.20496 0.0
H677 H 0.29233 0.41991 0.26943 0.0
H678 H 0.30309 0.41614 0.238 0.0
H679 H 0.31025 0.39537 0.25968 0.0
C680 C 0.30143 0.38801 0.16352 0.0
C681 C 0.32453 0.37807 0.1661 0.0
C682 C 0.28463 0.39073 0.18342 0.0
C683 C 0.29039 0.38333 0.20636 0.0
C684 C 0.3139 0.37423 0.20924 0.0
H685 H 0.17765 0.35291 0.31936 0.0
H686 H 0.20813 0.34995 0.28504 0.0
C687 C 0.33094 0.3718 0.18928 0.0
C688 C 0.27102 0.38358 0.22645 0.0
H689 H 0.25608 0.40317 0.2843 0.0
C690 C 0.24915 0.37296 0.2223 0.0
C691 C 0.27344 0.39478 0.24904 0.0
C692 C 0.29594 0.40738 0.2543 0.0
C693 C 0.22961 0.37339 0.23993 0.0
C694 C 0.23216 0.38426 0.26268 0.0
C695 C 0.25411 0.39474 0.26691 0.0
C696 C 0.21211 0.38574 0.28211 0.0
C697 C 0.20618 0.36278 0.23369 0.0
C698 C 0.20405 0.40677 0.29188 0.0
C699 C 0.18687 0.40846 0.31158 0.0
C700 C 0.17721 0.38916 0.32193 0.0
C701 C 0.18443 0.3681 0.31151 0.0
C702 C 0.2019 0.3664 0.2919 0.0
H703 H 0.20485 0.36087 0.21374 0.0
H704 H 0.20548 0.34585 0.24142 0.0
H705 H 0.19012 0.37285 0.24137 0.0
H706 H 0.21151 0.42194 0.28462 0.0
H707 H 0.18172 0.42493 0.31923 0.0
H708 H 0.91058 0.35121 0.54826 0.0
H709 H 0.94232 0.34368 0.51616 0.0
H710 H 0.99487 0.33325 0.56993 0.0
H711 H 0.96287 0.34051 0.60241 0.0
H712 H 0.98158 0.3701 0.50997 0.0
H713 H 0.01223 0.28188 0.52072 0.0
H714 H 0.98372 0.29328 0.53439 0.0
H715 H 0.01177 0.29885 0.54812 0.0
C716 C 0.92879 0.34691 0.55334 0.0
C717 C 0.93425 0.34658 0.5779 0.0
C718 C 0.94692 0.34257 0.53492 0.0
C719 C 0.97096 0.33779 0.54057 0.0
C720 C 0.97635 0.3365 0.56511 0.0
H721 H 0.1114 0.3412 0.46885 0.0
H722 H 0.07539 0.33365 0.49473 0.0
C723 C 0.95808 0.34072 0.58366 0.0
C724 C 0.99056 0.33668 0.52082 0.0
H725 H 0.03749 0.30397 0.49471 0.0
C726 C 0.99361 0.35552 0.50642 0.0
C727 C 1.00626 0.31768 0.51626 0.0
C728 C 1.00326 0.29668 0.53052 0.0
C729 C 0.01242 0.35624 0.48817 0.0
C730 C 0.02839 0.33737 0.4838 0.0
C731 C 0.02509 0.31833 0.4979 0.0
C732 C 0.05015 0.33818 0.46661 0.0
C733 C 0.01572 0.37761 0.47453 0.0
C734 C 0.0481 0.34224 0.4418 0.0
C735 C 0.06881 0.34667 0.42683 0.0
C736 C 0.09181 0.34705 0.43653 0.0
C737 C 0.0939 0.3413 0.46088 0.0
C738 C 0.07332 0.33688 0.47573 0.0
H739 H 1.00497 0.39192 0.48341 0.0
H740 H 0.03518 0.38205 0.47308 0.0
H741 H 0.00959 0.37522 0.45588 0.0
H742 H 0.03039 0.3429 0.43428 0.0
H743 H 0.06664 0.35099 0.40813 0.0
H744 H 0.36539 0.08504 0.50708 0.0
H745 H 0.36471 0.05164 0.53171 0.0
H746 H 0.39768 0.0124 0.471 0.0
H747 H 0.39799 0.04572 0.44619 0.0
H748 H 0.36094 0.99109 0.49135 0.0
H749 H 0.41817 0.01962 0.5642 0.0
H750 H 0.39303 0.03883 0.56098 0.0
H751 H 0.41589 0.03453 0.53639 0.0
C752 C 0.3728 0.06937 0.49909 0.0
C753 C 0.38175 0.06808 0.47467 0.0
C754 C 0.37251 0.05026 0.51322 0.0
C755 C 0.38159 0.02949 0.50342 0.0
C756 C 0.39065 0.0282 0.47906 0.0
H757 H 0.39067 0.91829 0.60494 0.0
H758 H 0.40294 0.9441 0.57281 0.0
C759 C 0.39073 0.04726 0.46485 0.0
C760 C 0.38036 0.00895 0.51815 0.0
H761 H 0.39289 0.98837 0.57336 0.0
C762 C 0.36825 0.99041 0.50915 0.0
C763 C 0.39036 0.00769 0.54115 0.0
C764 C 0.40532 0.02615 0.55112 0.0
C765 C 0.36474 0.97124 0.52299 0.0
C766 C 0.37301 0.97075 0.54678 0.0
C767 C 0.38628 0.98876 0.55526 0.0
C768 C 0.36615 0.95284 0.56394 0.0
C769 C 0.35203 0.95178 0.51197 0.0
C770 C 0.34148 0.94886 0.56941 0.0
C771 C 0.3345 0.9341 0.58752 0.0
C772 C 0.35198 0.92307 0.60089 0.0
C773 C 0.37677 0.92633 0.59483 0.0
C774 C 0.38378 0.9412 0.57658 0.0
H775 H 0.35515 0.95107 0.49188 0.0
H776 H 0.35832 0.93559 0.5192 0.0
H777 H 0.33214 0.95393 0.51622 0.0
H778 H 0.32747 0.95797 0.56044 0.0
H779 H 0.31525 0.93206 0.59173 0.0
H780 H 0.07079 0.64489 0.57467 0.0
H781 H 0.0545 0.64945 0.53513 0.0
H782 H 0.99588 0.69173 0.56758 0.0
H783 H 0.01264 0.68778 0.60759 0.0
H784 H 0.00808 0.63721 0.52239 0.0
H785 H 0.02269 0.72794 0.50927 0.0
H786 H 0.03811 0.71215 0.53154 0.0
H787 H 1.00668 0.72055 0.53715 0.0
C788 C 0.05472 0.65556 0.57351 0.0
C789 C 0.04321 0.66621 0.59438 0.0
C790 C 0.04531 0.65799 0.55082 0.0
C791 C 0.02418 0.67114 0.54835 0.0
C792 C 0.01247 0.6818 0.56905 0.0
H793 H 0.94468 0.69109 0.41801 0.0
H794 H 0.95917 0.6942 0.45903 0.0
C795 C 0.02191 0.67935 0.59191 0.0
C796 C 0.01411 0.67262 0.52411 0.0
H797 H 1.00412 0.70822 0.47805 0.0
C798 C 0.00714 0.65275 0.51272 0.0
C799 C 0.01281 0.69293 0.51161 0.0
C800 C 0.0206 0.71464 0.52285 0.0
C801 C 0.99915 0.65257 0.48908 0.0
C802 C 0.99854 0.67275 0.47628 0.0
C803 C 1.00485 0.69276 0.48786 0.0
C804 C 0.99139 0.67315 0.45083 0.0
C805 C 0.99129 0.63078 0.47805 0.0
C806 C 1.00521 0.66102 0.43244 0.0
C807 C 0.99694 0.65912 0.40904 0.0
C808 C 0.97468 0.66939 0.4036 0.0
C809 C 0.96168 0.68269 0.42173 0.0
C810 C 0.96998 0.68458 0.44513 0.0
H811 H 0.98705 0.61829 0.49212 0.0
H812 H 0.97501 0.63346 0.46743 0.0
H813 H 1.00624 0.62361 0.46555 0.0
H814 H 0.02201 0.65236 0.43641 0.0
H815 H 0.00738 0.64868 0.39563 0.0
H816 H 0.66436 0.03158 0.59805 0.0
H817 H 0.66039 0.00774 0.56226 0.0
H818 H 0.60976 0.05587 0.53488 0.0
H819 H 0.61398 0.08031 0.5709 0.0
H820 H 0.6198 0.98787 0.54568 0.0
H821 H 0.65973 0.04553 0.47759 0.0
H822 H 0.66221 0.05003 0.50979 0.0
H823 H 0.63402 0.0564 0.49635 0.0
C824 C 0.65241 0.03727 0.58444 0.0
C825 C 0.63954 0.05797 0.58736 0.0
C826 C 0.65009 0.0235 0.56397 0.0
C827 C 0.63486 0.02997 0.54579 0.0
C828 C 0.62189 0.05063 0.54852 0.0
H829 H 0.61554 0.93065 0.42568 0.0
H830 H 0.60519 0.95587 0.4611 0.0
C831 C 0.62429 0.06458 0.56911 0.0
C832 C 0.63315 0.01488 0.52409 0.0
H833 H 0.64941 0.00994 0.46343 0.0
C834 C 0.62594 0.99276 0.5276 0.0
C835 C 0.64128 0.02125 0.50054 0.0
C836 C 0.64993 0.04452 0.49571 0.0
C837 C 0.62763 0.97663 0.50847 0.0
C838 C 0.63645 0.98285 0.48511 0.0
C839 C 0.6426 1.00521 0.48136 0.0
C840 C 0.64217 0.96612 0.46496 0.0
C841 C 0.62125 0.9528 0.51368 0.0
C842 C 0.66632 0.96326 0.4556 0.0
C843 C 0.67218 0.94904 0.43553 0.0
C844 C 0.65405 0.93724 0.42426 0.0
C845 C 0.62993 0.93931 0.43418 0.0
C846 C 0.62401 0.95376 0.45435 0.0
H847 H 0.61848 0.94999 0.53346 0.0
H848 H 0.60418 0.94881 0.50502 0.0
H849 H 0.6358 0.94097 0.50592 0.0
H850 H 0.68067 0.97245 0.46356 0.0
H851 H 0.69095 0.94778 0.4284 0.0
H852 H 0.45211 0.06546 0.40143 0.0
H853 H 0.48323 0.0407 0.38098 0.0
H854 H 0.44919 0.04811 0.31323 0.0
H855 H 0.4174 0.07313 0.33385 0.0
H856 H 0.47279 0.99815 0.34328 0.0
H857 H 0.52799 0.06971 0.31215 0.0
H858 H 0.50892 0.07312 0.33984 0.0
H859 H 0.49522 0.07019 0.31133 0.0
C860 C 0.45101 0.0617 0.38221 0.0
C861 C 0.43242 0.07134 0.36918 0.0
C862 C 0.4688 0.04751 0.37059 0.0
C863 C 0.46855 0.04277 0.34565 0.0
C864 C 0.4496 0.05167 0.33254 0.0
H865 H 0.60725 0.97574 0.29026 0.0
H866 H 0.568 0.99612 0.28793 0.0
C867 C 0.43147 0.06582 0.34432 0.0
C868 C 0.48907 0.02925 0.33385 0.0
H869 H 0.54869 0.03463 0.31489 0.0
C870 C 0.48919 1.00598 0.33631 0.0
C871 C 0.51036 0.03955 0.32476 0.0
C872 C 0.51083 0.06453 0.3217 0.0
C873 C 0.51063 0.99293 0.33155 0.0
C874 C 0.53255 1.00354 0.32475 0.0
C875 C 0.53193 0.02654 0.32028 0.0
C876 C 0.55651 0.99169 0.32564 0.0
C877 C 0.50989 0.968 0.33499 0.0
C878 C 0.56337 0.98323 0.34775 0.0
C879 C 0.58566 0.97185 0.34916 0.0
C880 C 0.60173 0.9687 0.3285 0.0
C881 C 0.59528 0.97793 0.30649 0.0
C882 C 0.57283 0.98941 0.30509 0.0
H883 H 0.49153 0.96165 0.33196 0.0
H884 H 0.52348 0.95881 0.32245 0.0
H885 H 0.51406 0.96432 0.35392 0.0
H886 H 0.55141 0.98545 0.36401 0.0
H887 H 0.5903 0.96549 0.36652 0.0
H888 H 0.06807 0.569 0.69262 0.0
H889 H 0.04442 0.5367 0.68257 0.0
H890 H 0.06467 0.54395 0.60653 0.0
H891 H 0.08831 0.57685 0.61655 0.0
H892 H 0.01555 0.54129 0.61527 0.0
H893 H 0.06092 0.47259 0.66189 0.0
H894 H 0.05433 0.49625 0.68212 0.0
H895 H 0.07533 0.49881 0.65608 0.0
C896 C 0.06799 0.56347 0.67376 0.0
C897 C 0.08009 0.57551 0.65538 0.0
C898 C 0.05454 0.54485 0.66805 0.0
C899 C 0.05294 0.53766 0.64382 0.0
C900 C 0.06578 0.54909 0.62539 0.0
H901 H 0.96524 0.4196 0.61862 0.0
H902 H 0.99898 0.44532 0.61764 0.0
C903 C 0.07942 0.56779 0.63114 0.0
C904 C 0.03582 0.51976 0.63796 0.0
H905 H 0.01852 0.46764 0.65446 0.0
C906 C 0.01645 0.52503 0.62348 0.0
C907 C 0.03706 0.49841 0.64839 0.0
C908 C 0.05819 0.4911 0.66277 0.0
C909 C 0.99764 0.51004 0.62026 0.0
C910 C 0.99793 0.48939 0.63225 0.0
C911 C 0.01801 0.4836 0.64559 0.0
C912 C 0.97721 0.47394 0.63199 0.0
C913 C 0.97755 0.51658 0.60419 0.0
C914 C 0.95374 0.48135 0.64061 0.0
C915 C 0.9344 0.46667 0.64122 0.0
C916 C 0.93814 0.44414 0.63349 0.0
C917 C 0.96171 0.43674 0.62496 0.0
C918 C 0.98103 0.45147 0.62426 0.0
H919 H 0.98382 0.52879 0.59051 0.0
H920 H 0.97068 0.50174 0.59454 0.0
H921 H 0.96224 0.52466 0.61551 0.0
H922 H 0.95043 0.49842 0.64734 0.0
H923 H 0.91665 0.47286 0.6483 0.0
H924 H 0.54994 0.08142 0.68144 0.0
H925 H 0.51109 0.06327 0.68796 0.0
H926 H 0.54853 1.00342 0.70981 0.0
H927 H 0.58763 0.02147 0.70312 0.0
H928 H 0.49838 0.02421 0.66333 0.0
H929 H 0.4933 0.01331 0.76314 0.0
H930 H 0.51373 0.03245 0.74829 0.0
H931 H 0.52104 1.00294 0.74736 0.0
C932 C 0.54997 0.0644 0.68766 0.0
C933 C 0.57195 0.05283 0.69157 0.0
C934 C 0.52771 0.05411 0.69153 0.0
C935 C 0.52689 0.03208 0.69956 0.0
C936 C 0.54871 0.0206 0.70405 0.0
H937 H 0.41387 0.93538 0.71469 0.0
H938 H 0.45111 0.95642 0.71638 0.0
C939 C 0.57105 0.03092 0.70019 0.0
C940 C 0.50332 0.02071 0.70145 0.0
H941 H 0.46334 0.99548 0.74093 0.0
C942 C 0.49062 0.01805 0.68032 0.0
C943 C 0.49336 0.01259 0.72361 0.0
C944 C 0.50591 0.01558 0.74697 0.0
C945 C 0.46841 1.00716 0.68064 0.0
C946 C 0.45832 0.99915 0.70283 0.0
C947 C 0.47103 1.00178 0.72398 0.0
C948 C 0.43505 0.98725 0.70411 0.0
C949 C 0.45633 1.00375 0.65703 0.0
C950 C 0.41342 0.99781 0.69747 0.0
C951 C 0.39213 0.98575 0.69624 0.0
C952 C 0.39205 0.96291 0.70177 0.0
C953 C 0.41342 0.9528 0.7098 0.0
C954 C 0.43469 0.96484 0.71095 0.0
H955 H 0.46923 1.00579 0.64103 0.0
H956 H 0.4486 0.98684 0.65581 0.0
H957 H 0.44124 0.01636 0.65608 0.0
H958 H 0.41318 0.01525 0.69259 0.0
H959 H 0.37608 0.9941 0.68997 0.0
H960 H 0.93602 0.59037 0.39642 0.0
H961 H 0.96623 0.56275 0.40933 0.0
H962 H 0.96482 0.52756 0.34026 0.0
H963 H 0.9349 0.55497 0.32722 0.0
H964 H 0.96888 0.51273 0.41031 0.0
H965 H 0.03616 0.54886 0.34461 0.0
H966 H 0.00779 0.56318 0.35444 0.0
H967 H 0.00831 0.54086 0.33193 0.0
C968 C 0.94163 0.57639 0.38426 0.0
C969 C 0.93319 0.57497 0.3607 0.0
C970 C 0.95899 0.56069 0.39162 0.0
C971 C 0.96812 0.54338 0.37556 0.0
C972 C 0.95833 0.54101 0.35279 0.0
H973 H 0.08369 0.44299 0.36284 0.0
H974 H 0.04931 0.46889 0.35812 0.0
C975 C 0.94113 0.55665 0.34541 0.0
C976 C 0.98917 0.52881 0.38154 0.0
H977 H 0.04812 0.5151 0.36276 0.0
C978 C 0.98629 0.51334 0.4001 0.0
C979 C 0.0119 0.52971 0.36825 0.0
C980 C 0.01641 0.54666 0.34883 0.0
C981 C 1.00529 0.49813 0.40506 0.0
C982 C 0.02786 0.49871 0.39135 0.0
C983 C 0.03082 0.51456 0.37319 0.0
C984 C 0.04843 0.48259 0.39485 0.0
C985 C 1.00078 0.48105 0.42432 0.0
C986 C 0.05965 0.48179 0.41701 0.0
C987 C 0.07935 0.46686 0.41982 0.0
C988 C 0.0883 0.45243 0.40049 0.0
C989 C 0.07712 0.45352 0.37825 0.0
C990 C 0.05749 0.46844 0.37547 0.0
H991 H 0.98106 0.47941 0.42916 0.0
H992 H 0.00864 0.46438 0.41818 0.0
H993 H 0.00968 0.48631 0.44096 0.0
H994 H 0.05332 0.49285 0.43209 0.0
H995 H 0.08734 0.46644 0.43724 0.0
H996 H 0.37394 0.42607 0.06486 0.0
H997 H 0.36446 0.46299 0.04969 0.0
H998 H 0.29894 0.43842 0.02101 0.0
H999 H 0.30806 0.40124 0.03662 0.0
H1000 H 0.3279 0.46433 0.98826 0.0
H1001 H 0.31074 0.50785 0.07787 0.0
H1002 H 0.33898 0.49191 0.07503 0.0
H1003 H 0.3107 0.47774 0.07406 0.0
C1004 C 0.35732 0.42846 0.05565 0.0
C1005 C 0.34161 0.41065 0.05229 0.0
C1006 C 0.35194 0.44964 0.04696 0.0
C1007 C 0.33074 0.45357 0.0347 0.0
C1008 C 0.31529 0.43576 0.03066 0.0
H1009 H 0.28836 0.59074 0.99484 0.0
H1010 H 0.28623 0.55298 0.01119 0.0
C1011 C 0.32062 0.4145 0.03946 0.0
C1012 C 0.32536 0.47617 0.02553 0.0
H1013 H 0.31808 0.5312 0.0437 0.0
C1014 C 0.32539 0.47892 1.00037 0.0
C1015 C 0.32176 0.49516 0.04138 0.0
C1016 C 0.32029 0.49306 0.06861 0.0
C1017 C 0.32325 0.50029 0.9906 0.0
C1018 C 0.32124 0.51938 1.00642 0.0
C1019 C 0.31986 0.51655 0.03161 0.0
C1020 C 0.32236 0.54238 0.99709 0.0
C1021 C 0.32358 0.50232 0.9634 0.0
C1022 C 0.34359 0.54907 0.98439 0.0
C1023 C 0.34494 0.57057 0.97528 0.0
C1024 C 0.32507 0.58594 0.97863 0.0
C1025 C 0.304 0.57939 0.99198 0.0
C1026 C 0.3027 0.55779 1.0012 0.0
H1027 H 0.31838 0.48649 0.95436 0.0
H1028 H 0.31104 0.51608 0.95833 0.0
H1029 H 0.34225 0.50614 0.95637 0.0
H1030 H 0.3592 0.53764 0.98158 0.0
H1031 H 0.3617 0.57515 0.96573 0.0
H1032 H 0.43951 0.63733 0.92066 0.0
H1033 H 0.4786 0.63229 0.93974 0.0
H1034 H 0.44129 0.63971 0.01058 0.0
H1035 H 0.4027 0.64486 0.99192 0.0
H1036 H 0.49648 0.6661 0.97298 0.0
H1037 H 0.48716 0.58392 0.01636 0.0
H1038 H 0.46962 0.59216 0.99123 0.0
H1039 H 0.4611 0.60264 0.02147 0.0
C1040 C 0.4397 0.6375 0.94027 0.0
C1041 C 0.41809 0.64164 0.95477 0.0
C1042 C 0.46196 0.63464 0.95114 0.0
C1043 C 0.46276 0.63534 0.97659 0.0
C1044 C 0.44107 0.63871 0.99096 0.0
H1045 H 0.56705 0.64806 0.08748 0.0
H1046 H 0.53088 0.64041 0.06466 0.0
C1047 C 0.41903 0.64187 0.9802 0.0
C1048 C 0.48622 0.63489 0.98847 0.0
H1049 H 0.51793 0.60743 0.03068 0.0
C1050 C 0.50142 0.65309 0.98527 0.0
C1051 C 0.49231 0.61812 1.00487 0.0
C1052 C 0.47681 0.59798 0.0086 0.0
C1053 C 0.52215 0.65539 0.99861 0.0
C1054 C 0.52827 0.63865 0.01513 0.0
C1055 C 0.51324 0.62024 0.01806 0.0
C1056 C 0.55029 0.64015 0.02931 0.0
C1057 C 0.53673 0.67623 0.99558 0.0
C1058 C 0.57325 0.64147 0.01712 0.0
C1059 C 0.59359 0.64611 0.03 0.0
C1060 C 0.59156 0.64898 0.05541 0.0
C1061 C 0.56902 0.6459 0.0679 0.0
C1062 C 0.54842 0.6416 0.05487 0.0
H1063 H 0.52597 0.69 0.98779 0.0
H1064 H 0.54318 0.68225 0.01321 0.0
H1065 H 0.55286 0.67239 0.98296 0.0
H1066 H 0.57529 0.63974 0.99751 0.0
H1067 H 0.6109 0.64804 0.01998 0.0
H1068 H 0.65377 0.48078 0.85655 0.0
H1069 H 0.66353 0.51536 0.87812 0.0
H1070 H 0.65385 0.48245 0.94644 0.0
H1071 H 0.64403 0.44792 0.92509 0.0
H1072 H 0.63559 0.54059 0.91207 0.0
H1073 H 0.71996 0.51014 0.95172 0.0
H1074 H 0.70621 0.49507 0.92757 0.0
H1075 H 0.69472 0.49262 0.95858 0.0
C1076 C 0.65364 0.4809 0.87616 0.0
C1077 C 0.64824 0.46149 0.88906 0.0
C1078 C 0.65936 0.50065 0.88845 0.0
C1079 C 0.6599 0.50137 0.91385 0.0
C1080 C 0.65423 0.48212 0.92679 0.0
H1081 H 0.6393 0.60759 0.01887 0.0
H1082 H 0.63653 0.57751 0.98863 0.0
C1083 C 0.64857 0.46238 0.91454 0.0
C1084 C 0.66531 0.52245 0.92701 0.0
H1085 H 0.70135 0.54403 0.96952 0.0
C1086 C 0.65017 0.54143 0.92439 0.0
C1087 C 0.68461 0.5237 0.94275 0.0
C1088 C 0.70247 0.50436 0.94516 0.0
C1089 C 0.65303 0.56125 0.93802 0.0
C1090 C 0.67128 0.56197 0.95498 0.0
C1091 C 0.68721 0.54339 0.95668 0.0
C1092 C 0.67291 0.58112 0.97242 0.0
C1093 C 0.63631 0.58116 0.9343 0.0
C1094 C 0.69446 0.59298 0.97367 0.0
C1095 C 0.6962 0.61015 0.99124 0.0
C1096 C 0.67653 0.61546 0.00804 0.0
C1097 C 0.65492 0.6037 1.00647 0.0
C1098 C 0.65318 0.58668 0.98894 0.0
H1099 H 0.62915 0.58057 0.91591 0.0
H1100 H 0.62055 0.581 0.9478 0.0
H1101 H 0.64575 0.59714 0.93676 0.0
H1102 H 0.70998 0.58882 0.96119 0.0
H1103 H 0.7131 0.61883 0.99212 0.0
H1104 H 0.44999 0.38071 0.08725 0.0
H1105 H 0.48745 0.38472 0.06106 0.0
H1106 H 0.4835 0.31607 0.03609 0.0
H1107 H 0.44649 0.31197 0.06182 0.0
H1108 H 0.53564 0.3546 0.05395 0.0
H1109 H 0.47772 0.35818 0.97509 0.0
H1110 H 0.46595 0.36449 1.00586 0.0
H1111 H 0.47144 0.33592 0.99559 0.0
C1112 C 0.45748 0.36637 0.0766 0.0
C1113 C 0.44513 0.3461 0.07643 0.0
C1114 C 0.47881 0.36869 0.06162 0.0
C1115 C 0.48805 0.35075 0.04642 0.0
C1116 C 0.47657 0.33018 0.04748 0.0
H1117 H 0.58664 0.31742 0.92444 0.0
H1118 H 0.55742 0.31888 0.95959 0.0
C1119 C 0.45537 0.32789 0.06223 0.0
C1120 C 0.50828 0.35358 0.02778 0.0
H1121 H 0.52015 0.35238 0.96628 0.0
C1122 C 0.53232 0.35447 0.03478 0.0
C1123 C 0.50387 0.35335 1.00279 0.0
C1124 C 0.47835 0.35312 0.99427 0.0
C1125 C 0.55214 0.35418 0.01732 0.0
C1126 C 0.5477 0.35316 0.99231 0.0
C1127 C 0.52359 0.35299 0.98543 0.0
C1128 C 0.5676 0.35148 0.97276 0.0
C1129 C 0.57769 0.35405 0.0257 0.0
C1130 C 0.5834 0.36918 0.96862 0.0
C1131 C 0.60021 0.3684 0.94844 0.0
C1132 C 0.60148 0.34994 0.93193 0.0
C1133 C 0.58622 0.33191 0.9367 0.0
C1134 C 0.56945 0.33272 0.9568 0.0
H1135 H 0.57819 0.35051 0.04533 0.0
H1136 H 0.58939 0.34134 0.01513 0.0
H1137 H 0.58555 0.37068 0.02263 0.0
H1138 H 0.58209 0.38398 0.98044 0.0
H1139 H 0.61157 0.38264 0.94531 0.0
loop_
_geom_bond_atom_site_label_1
_geom_bond_atom_site_label_2
_geom_bond_distance
_geom_bond_site_symmetry_2
_ccdc_geom_bond_type
Cu0 N1 1.999 . S
Cu0 O6 1.974 . S
Cu0 N11 1.985 . S
Cu0 O20 1.959 . S
N1 Cu0 1.999 . S
N1 C3 1.263 . S
N1 C5 1.389 . S
N2 C3 1.358 . S
N2 C4 1.400 . S
C3 N1 1.263 . S
C3 N2 1.358 . S
C3 H9 0.930 . S
C4 N2 1.400 . S
C4 C5 1.351 . S
C4 H21 0.930 . S
C5 N1 1.389 . S
C5 C4 1.351 . S
C5 H10 0.930 . S
O6 Cu0 1.974 . S
O6 C16 1.282 . S
C7 O8 1.261 . S
C7 O20 1.251 . S
O8 C7 1.261 . S
H9 C3 0.930 . S
H10 C5 0.930 . S
N11 Cu0 1.985 . S
N11 C13 1.335 . S
N11 C14 1.390 . S
N12 C13 1.345 . S
N12 C15 1.336 . S
C13 N11 1.335 . S
C13 N12 1.345 . S
C13 H18 0.930 . S
C14 N11 1.390 . S
C14 C15 1.346 . S
C14 H19 0.930 . S
C15 N12 1.336 . S
C15 C14 1.346 . S
C15 H22 0.929 . S
C16 O6 1.282 . S
C16 O17 1.216 . S
O17 C16 1.216 . S
H18 C13 0.930 . S
H19 C14 0.930 . S
O20 Cu0 1.959 . S
O20 C7 1.251 . S
H21 C4 0.930 . S
H22 C15 0.929 . S
Cu23 N24 1.999 . S
Cu23 O29 1.974 . S
Cu23 N34 1.985 . S
Cu23 O43 1.959 . S
N24 Cu23 1.999 . S
N24 C26 1.263 . S
N24 C28 1.389 . S
N25 C26 1.358 . S
N25 C27 1.400 . S
C26 N24 1.263 . S
C26 N25 1.358 . S
C26 H32 0.930 . S
C27 N25 1.400 . S
C27 C28 1.351 . S
C27 H44 0.930 . S
C28 N24 1.389 . S
C28 C27 1.351 . S
C28 H33 0.930 . S
O29 Cu23 1.974 . S
O29 C39 1.282 . S
C30 O31 1.261 . S
C30 O43 1.251 . S
O31 C30 1.261 . S
H32 C26 0.930 . S
H33 C28 0.930 . S
N34 Cu23 1.985 . S
N34 C36 1.335 . S
N34 C37 1.390 . S
N35 C36 1.345 . S
N35 C38 1.336 . S
C36 N34 1.335 . S
C36 N35 1.345 . S
C36 H41 0.930 . S
C37 N34 1.390 . S
C37 C38 1.346 . S
C37 H42 0.930 . S
C38 N35 1.336 . S
C38 C37 1.346 . S
C38 H45 0.929 . S
C39 O29 1.282 . S
C39 O40 1.216 . S
O40 C39 1.216 . S
H41 C36 0.930 . S
H42 C37 0.930 . S
O43 Cu23 1.959 . S
O43 C30 1.251 . S
H44 C27 0.930 . S
H45 C38 0.929 . S
Cu46 N47 1.999 . S
Cu46 O52 1.974 . S
Cu46 N57 1.985 . S
Cu46 O66 1.959 . S
N47 Cu46 1.999 . S
N47 C49 1.263 . S
N47 C51 1.389 . S
N48 C49 1.358 . S
N48 C50 1.400 . S
C49 N47 1.263 . S
C49 N48 1.358 . S
C49 H55 0.930 . S
C50 N48 1.400 . S
C50 C51 1.351 . S
C50 H67 0.930 . S
C51 N47 1.389 . S
C51 C50 1.351 . S
C51 H56 0.930 . S
O52 Cu46 1.974 . S
O52 C62 1.282 . S
C53 O54 1.261 . S
C53 O66 1.251 . S
O54 C53 1.261 . S
H55 C49 0.930 . S
H56 C51 0.930 . S
N57 Cu46 1.985 . S
N57 C59 1.335 . S
N57 C60 1.390 . S
N58 C59 1.345 . S
N58 C61 1.336 . S
C59 N57 1.335 . S
C59 N58 1.345 . S
C59 H64 0.930 . S
C60 N57 1.390 . S
C60 C61 1.346 . S
C60 H65 0.930 . S
C61 N58 1.336 . S
C61 C60 1.346 . S
C61 H68 0.929 . S
C62 O52 1.282 . S
C62 O63 1.216 . S
O63 C62 1.216 . S
H64 C59 0.930 . S
H65 C60 0.930 . S
O66 Cu46 1.959 . S
O66 C53 1.251 . S
H67 C50 0.930 . S
H68 C61 0.929 . S
Cu69 N70 1.999 . S
Cu69 O75 1.974 . S
Cu69 N80 1.985 . S
Cu69 O89 1.959 . S
N70 Cu69 1.999 . S
N70 C72 1.263 . S
N70 C74 1.389 . S
N71 C72 1.358 . S
N71 C73 1.400 . S
C72 N70 1.263 . S
C72 N71 1.358 . S
C72 H78 0.930 . S
C73 N71 1.400 . S
C73 C74 1.351 . S
C73 H90 0.930 . S
C74 N70 1.389 . S
C74 C73 1.351 . S
C74 H79 0.930 . S
O75 Cu69 1.974 . S
O75 C85 1.282 . S
C76 O77 1.261 . S
C76 O89 1.251 . S
O77 C76 1.261 . S
H78 C72 0.930 . S
H79 C74 0.930 . S
N80 Cu69 1.985 . S
N80 C82 1.335 . S
N80 C83 1.390 . S
N81 C82 1.345 . S
N81 C84 1.336 . S
C82 N80 1.335 . S
C82 N81 1.345 . S
C82 H87 0.930 . S
C83 N80 1.390 . S
C83 C84 1.346 . S
C83 H88 0.930 . S
C84 N81 1.336 . S
C84 C83 1.346 . S
C84 H91 0.929 . S
C85 O75 1.282 . S
C85 O86 1.216 . S
O86 C85 1.216 . S
H87 C82 0.930 . S
H88 C83 0.930 . S
O89 Cu69 1.959 . S
O89 C76 1.251 . S
H90 C73 0.930 . S
H91 C84 0.929 . S
Cu92 N93 1.999 . S
Cu92 O98 1.974 . S
Cu92 N103 1.985 . S
Cu92 O112 1.959 . S
N93 Cu92 1.999 . S
N93 C95 1.263 . S
N93 C97 1.389 . S
N94 C95 1.358 . S
N94 C96 1.400 . S
C95 N93 1.263 . S
C95 N94 1.358 . S
C95 H101 0.930 . S
C96 N94 1.400 . S
C96 C97 1.351 . S
C96 H113 0.930 . S
C97 N93 1.389 . S
C97 C96 1.351 . S
C97 H102 0.930 . S
O98 Cu92 1.974 . S
O98 C108 1.282 . S
C99 O100 1.261 . S
C99 O112 1.251 . S
O100 C99 1.261 . S
H101 C95 0.930 . S
H102 C97 0.930 . S
N103 Cu92 1.985 . S
N103 C105 1.335 . S
N103 C106 1.390 . S
N104 C105 1.345 . S
N104 C107 1.336 . S
C105 N103 1.335 . S
C105 N104 1.345 . S
C105 H110 0.930 . S
C106 N103 1.390 . S
C106 C107 1.346 . S
C106 H111 0.930 . S
C107 N104 1.336 . S
C107 C106 1.346 . S
C107 H114 0.929 . S
C108 O98 1.282 . S
C108 O109 1.216 . S
O109 C108 1.216 . S
H110 C105 0.930 . S
H111 C106 0.930 . S
O112 Cu92 1.959 . S
O112 C99 1.251 . S
H113 C96 0.930 . S
H114 C107 0.929 . S
Cu115 N116 1.999 . S
Cu115 O121 1.974 . S
Cu115 N126 1.985 . S
Cu115 O135 1.959 . S
N116 Cu115 1.999 . S
N116 C118 1.263 . S
N116 C120 1.389 . S
N117 C118 1.358 . S
N117 C119 1.400 . S
C118 N116 1.263 . S
C118 N117 1.358 . S
C118 H124 0.930 . S
C119 N117 1.400 . S
C119 C120 1.351 . S
C119 H136 0.930 . S
C120 N116 1.389 . S
C120 C119 1.351 . S
C120 H125 0.930 . S
O121 Cu115 1.974 . S
O121 C131 1.282 . S
C122 O123 1.261 . S
C122 O135 1.251 . S
O123 C122 1.261 . S
H124 C118 0.930 . S
H125 C120 0.930 . S
N126 Cu115 1.985 . S
N126 C128 1.335 . S
N126 C129 1.390 . S
N127 C128 1.345 . S
N127 C130 1.336 . S
C128 N126 1.335 . S
C128 N127 1.345 . S
C128 H133 0.930 . S
C129 N126 1.390 . S
C129 C130 1.346 . S
C129 H134 0.930 . S
C130 N127 1.336 . S
C130 C129 1.346 . S
C130 H137 0.929 . S
C131 O121 1.282 . S
C131 O132 1.216 . S
O132 C131 1.216 . S
H133 C128 0.930 . S
H134 C129 0.930 . S
O135 Cu115 1.959 . S
O135 C122 1.251 . S
H136 C119 0.930 . S
H137 C130 0.929 . S
Cu138 N139 1.999 . S
Cu138 O144 1.974 . S
Cu138 N149 1.985 . S
Cu138 O158 1.959 . S
N139 Cu138 1.999 . S
N139 C141 1.263 . S
N139 C143 1.389 . S
N140 C141 1.358 . S
N140 C142 1.400 . S
C141 N139 1.263 . S
C141 N140 1.358 . S
C141 H147 0.930 . S
C142 N140 1.400 . S
C142 C143 1.351 . S
C142 H159 0.930 . S
C143 N139 1.389 . S
C143 C142 1.351 . S
C143 H148 0.930 . S
O144 Cu138 1.974 . S
O144 C154 1.282 . S
C145 O146 1.261 . S
C145 O158 1.251 . S
O146 C145 1.261 . S
H147 C141 0.930 . S
H148 C143 0.930 . S
N149 Cu138 1.985 . S
N149 C151 1.335 . S
N149 C152 1.390 . S
N150 C151 1.345 . S
N150 C153 1.336 . S
C151 N149 1.335 . S
C151 N150 1.345 . S
C151 H156 0.930 . S
C152 N149 1.390 . S
C152 C153 1.346 . S
C152 H157 0.930 . S
C153 N150 1.336 . S
C153 C152 1.346 . S
C153 H160 0.929 . S
C154 O144 1.282 . S
C154 O155 1.216 . S
O155 C154 1.216 . S
H156 C151 0.930 . S
H157 C152 0.930 . S
O158 Cu138 1.959 . S
O158 C145 1.251 . S
H159 C142 0.930 . S
H160 C153 0.929 . S
Cu161 N162 1.999 . S
Cu161 O167 1.974 . S
Cu161 N172 1.985 . S
Cu161 O181 1.959 . S
N162 Cu161 1.999 . S
N162 C164 1.263 . S
N162 C166 1.389 . S
N163 C164 1.358 . S
N163 C165 1.400 . S
C164 N162 1.263 . S
C164 N163 1.358 . S
C164 H170 0.930 . S
C165 N163 1.400 . S
C165 C166 1.351 . S
C165 H182 0.930 . S
C166 N162 1.389 . S
C166 C165 1.351 . S
C166 H171 0.930 . S
O167 Cu161 1.974 . S
O167 C177 1.282 . S
C168 O169 1.261 . S
C168 O181 1.251 . S
O169 C168 1.261 . S
H170 C164 0.930 . S
H171 C166 0.930 . S
N172 Cu161 1.985 . S
N172 C174 1.335 . S
N172 C175 1.390 . S
N173 C174 1.345 . S
N173 C176 1.336 . S
C174 N172 1.335 . S
C174 N173 1.345 . S
C174 H179 0.930 . S
C175 N172 1.390 . S
C175 C176 1.346 . S
C175 H180 0.930 . S
C176 N173 1.336 . S
C176 C175 1.346 . S
C176 H183 0.929 . S
C177 O167 1.282 . S
C177 O178 1.216 . S
O178 C177 1.216 . S
H179 C174 0.930 . S
H180 C175 0.930 . S
O181 Cu161 1.959 . S
O181 C168 1.251 . S
H182 C165 0.930 . S
H183 C176 0.929 . S
Cu184 N185 1.999 . S
Cu184 O190 1.974 . S
Cu184 N195 1.985 . S
Cu184 O204 1.959 . S
N185 Cu184 1.999 . S
N185 C187 1.263 . S
N185 C189 1.389 . S
N186 C187 1.358 . S
N186 C188 1.400 . S
C187 N185 1.263 . S
C187 N186 1.358 . S
C187 H193 0.930 . S
C188 N186 1.400 . S
C188 C189 1.351 . S
C188 H205 0.930 . S
C189 N185 1.389 . S
C189 C188 1.351 . S
C189 H194 0.930 . S
O190 Cu184 1.974 . S
O190 C200 1.282 . S
C191 O192 1.261 . S
C191 O204 1.251 . S
O192 C191 1.261 . S
H193 C187 0.930 . S
H194 C189 0.930 . S
N195 Cu184 1.985 . S
N195 C197 1.335 . S
N195 C198 1.390 . S
N196 C197 1.345 . S
N196 C199 1.336 . S
C197 N195 1.335 . S
C197 N196 1.345 . S
C197 H202 0.930 . S
C198 N195 1.390 . S
C198 C199 1.346 . S
C198 H203 0.930 . S
C199 N196 1.336 . S
C199 C198 1.346 . S
C199 H206 0.929 . S
C200 O190 1.282 . S
C200 O201 1.216 . S
O201 C200 1.216 . S
H202 C197 0.930 . S
H203 C198 0.930 . S
O204 Cu184 1.959 . S
O204 C191 1.251 . S
H205 C188 0.930 . S
H206 C199 0.929 . S
Cu207 N208 1.999 . S
Cu207 O213 1.974 . S
Cu207 N218 1.985 . S
Cu207 O227 1.959 . S
N208 Cu207 1.999 . S
N208 C210 1.263 . S
N208 C212 1.389 . S
N209 C210 1.358 . S
N209 C211 1.400 . S
C210 N208 1.263 . S
C210 N209 1.358 . S
C210 H216 0.930 . S
C211 N209 1.400 . S
C211 C212 1.351 . S
C211 H228 0.930 . S
C212 N208 1.389 . S
C212 C211 1.351 . S
C212 H217 0.930 . S
O213 Cu207 1.974 . S
O213 C223 1.282 . S
C214 O215 1.261 . S
C214 O227 1.251 . S
O215 C214 1.261 . S
H216 C210 0.930 . S
H217 C212 0.930 . S
N218 Cu207 1.985 . S
N218 C220 1.335 . S
N218 C221 1.390 . S
N219 C220 1.345 . S
N219 C222 1.336 . S
C220 N218 1.335 . S
C220 N219 1.345 . S
C220 H225 0.930 . S
C221 N218 1.390 . S
C221 C222 1.346 . S
C221 H226 0.930 . S
C222 N219 1.336 . S
C222 C221 1.346 . S
C222 H229 0.929 . S
C223 O213 1.282 . S
C223 O224 1.216 . S
O224 C223 1.216 . S
H225 C220 0.930 . S
H226 C221 0.930 . S
O227 Cu207 1.959 . S
O227 C214 1.251 . S
H228 C211 0.930 . S
H229 C222 0.929 . S
Cu230 N231 1.999 . S
Cu230 O236 1.974 . S
Cu230 N241 1.985 . S
Cu230 O250 1.959 . S
N231 Cu230 1.999 . S
N231 C233 1.263 . S
N231 C235 1.389 . S
N232 C233 1.358 . S
N232 C234 1.400 . S
C233 N231 1.263 . S
C233 N232 1.358 . S
C233 H239 0.930 . S
C234 N232 1.400 . S
C234 C235 1.351 . S
C234 H251 0.930 . S
C235 N231 1.389 . S
C235 C234 1.351 . S
C235 H240 0.930 . S
O236 Cu230 1.974 . S
O236 C246 1.282 . S
C237 O238 1.261 . S
C237 O250 1.251 . S
O238 C237 1.261 . S
H239 C233 0.930 . S
H240 C235 0.930 . S
N241 Cu230 1.985 . S
N241 C243 1.335 . S
N241 C244 1.390 . S
N242 C243 1.345 . S
N242 C245 1.336 . S
C243 N241 1.335 . S
C243 N242 1.345 . S
C243 H248 0.930 . S
C244 N241 1.390 . S
C244 C245 1.346 . S
C244 H249 0.930 . S
C245 N242 1.336 . S
C245 C244 1.346 . S
C245 H252 0.929 . S
C246 O236 1.282 . S
C246 O247 1.216 . S
O247 C246 1.216 . S
H248 C243 0.930 . S
H249 C244 0.930 . S
O250 Cu230 1.959 . S
O250 C237 1.251 . S
H251 C234 0.930 . S
H252 C245 0.929 . S
Cu253 N254 1.999 . S
Cu253 O259 1.974 . S
Cu253 N264 1.985 . S
Cu253 O273 1.959 . S
N254 Cu253 1.999 . S
N254 C256 1.263 . S
N254 C258 1.389 . S
N255 C256 1.358 . S
N255 C257 1.400 . S
C256 N254 1.263 . S
C256 N255 1.358 . S
C256 H262 0.930 . S
C257 N255 1.400 . S
C257 C258 1.351 . S
C257 H274 0.930 . S
C258 N254 1.389 . S
C258 C257 1.351 . S
C258 H263 0.930 . S
O259 Cu253 1.974 . S
O259 C269 1.282 . S
C260 O261 1.261 . S
C260 O273 1.251 . S
O261 C260 1.261 . S
H262 C256 0.930 . S
H263 C258 0.930 . S
N264 Cu253 1.985 . S
N264 C266 1.335 . S
N264 C267 1.390 . S
N265 C266 1.345 . S
N265 C268 1.336 . S
C266 N264 1.335 . S
C266 N265 1.345 . S
C266 H271 0.930 . S
C267 N264 1.390 . S
C267 C268 1.346 . S
C267 H272 0.930 . S
C268 N265 1.336 . S
C268 C267 1.346 . S
C268 H275 0.929 . S
C269 O259 1.282 . S
C269 O270 1.216 . S
O270 C269 1.216 . S
H271 C266 0.930 . S
H272 C267 0.930 . S
O273 Cu253 1.959 . S
O273 C260 1.251 . S
H274 C257 0.930 . S
H275 C268 0.929 . S
H276 C284 0.929 . S
H277 C286 0.930 . S
H278 C288 0.930 . S
H279 C291 0.929 . S
H280 C294 0.930 . S
H281 C296 0.960 . S
H282 C296 0.960 . S
H283 C296 0.960 . S
C284 H276 0.929 . S
C284 C285 1.377 . S
C284 C286 1.384 . S
C285 C284 1.377 . S
C285 C291 1.390 . S
C286 H277 0.930 . S
C286 C284 1.384 . S
C286 C287 1.372 . S
C287 C286 1.372 . S
C287 C288 1.400 . S
C287 C292 1.490 . S
C288 H278 0.930 . S
C288 C287 1.400 . S
C288 C291 1.386 . S
H289 C305 0.930 . S
H290 C306 0.931 . S
C291 H279 0.929 . S
C291 C285 1.390 . S
C291 C288 1.386 . S
C292 C287 1.490 . S
C292 C294 1.395 . S
C292 C295 1.403 . S
H293 C299 0.930 . S
C294 H280 0.930 . S
C294 C292 1.395 . S
C294 C297 1.403 . S
C295 C292 1.403 . S
C295 C296 1.524 . S
C295 C299 1.400 . S
C296 H281 0.960 . S
C296 H282 0.960 . S
C296 H283 0.960 . S
C296 C295 1.524 . S
C297 C294 1.403 . S
C297 C298 1.392 . S
C297 C301 1.495 . S
C298 C297 1.392 . S
C298 C299 1.385 . S
C298 C300 1.478 . S
C299 H293 0.930 . S
C299 C295 1.400 . S
C299 C298 1.385 . S
C300 C298 1.478 . S
C300 C302 1.381 . S
C300 C306 1.383 . S
C301 C297 1.495 . S
C301 H307 0.959 . S
C301 H308 0.961 . S
C301 H309 0.960 . S
C302 C300 1.381 . S
C302 C303 1.394 . S
C302 H310 0.930 . S
C303 C302 1.394 . S
C303 C304 1.383 . S
C303 H311 0.929 . S
C304 C303 1.383 . S
C304 C305 1.377 . S
C305 H289 0.930 . S
C305 C304 1.377 . S
C305 C306 1.379 . S
C306 H290 0.931 . S
C306 C300 1.383 . S
C306 C305 1.379 . S
H307 C301 0.959 . S
H308 C301 0.961 . S
H309 C301 0.960 . S
H310 C302 0.930 . S
H311 C303 0.929 . S
H312 C320 0.929 . S
H313 C322 0.930 . S
H314 C324 0.930 . S
H315 C327 0.929 . S
H316 C330 0.930 . S
H317 C332 0.960 . S
H318 C332 0.960 . S
H319 C332 0.960 . S
C320 H312 0.929 . S
C320 C321 1.377 . S
C320 C322 1.384 . S
C321 C320 1.377 . S
C321 C327 1.390 . S
C322 H313 0.930 . S
C322 C320 1.384 . S
C322 C323 1.372 . S
C323 C322 1.372 . S
C323 C324 1.400 . S
C323 C328 1.490 . S
C324 H314 0.930 . S
C324 C323 1.400 . S
C324 C327 1.386 . S
H325 C341 0.930 . S
H326 C342 0.931 . S
C327 H315 0.929 . S
C327 C321 1.390 . S
C327 C324 1.386 . S
C328 C323 1.490 . S
C328 C330 1.395 . S
C328 C331 1.403 . S
H329 C335 0.930 . S
C330 H316 0.930 . S
C330 C328 1.395 . S
C330 C333 1.403 . S
C331 C328 1.403 . S
C331 C332 1.524 . S
C331 C335 1.400 . S
C332 H317 0.960 . S
C332 H318 0.960 . S
C332 H319 0.960 . S
C332 C331 1.524 . S
C333 C330 1.403 . S
C333 C334 1.392 . S
C333 C337 1.495 . S
C334 C333 1.392 . S
C334 C335 1.385 . S
C334 C336 1.478 . S
C335 H329 0.930 . S
C335 C331 1.400 . S
C335 C334 1.385 . S
C336 C334 1.478 . S
C336 C338 1.381 . S
C336 C342 1.383 . S
C337 C333 1.495 . S
C337 H343 0.959 . S
C337 H344 0.961 . S
C337 H345 0.960 . S
C338 C336 1.381 . S
C338 C339 1.394 . S
C338 H346 0.930 . S
C339 C338 1.394 . S
C339 C340 1.383 . S
C339 H347 0.929 . S
C340 C339 1.383 . S
C340 C341 1.377 . S
C341 H325 0.930 . S
C341 C340 1.377 . S
C341 C342 1.379 . S
C342 H326 0.931 . S
C342 C336 1.383 . S
C342 C341 1.379 . S
H343 C337 0.959 . S
H344 C337 0.961 . S
H345 C337 0.960 . S
H346 C338 0.930 . S
H347 C339 0.929 . S
H348 C356 0.929 . S
H349 C358 0.930 . S
H350 C360 0.930 . S
H351 C363 0.929 . S
H352 C366 0.930 . S
H353 C368 0.960 . S
H354 C368 0.960 . S
H355 C368 0.960 . S
C356 H348 0.929 . S
C356 C357 1.377 . S
C356 C358 1.384 . S
C357 C356 1.377 . S
C357 C363 1.390 . S
C358 H349 0.930 . S
C358 C356 1.384 . S
C358 C359 1.372 . S
C359 C358 1.372 . S
C359 C360 1.400 . S
C359 C364 1.490 . S
C360 H350 0.930 . S
C360 C359 1.400 . S
C360 C363 1.386 . S
H361 C377 0.930 . S
H362 C378 0.931 . S
C363 H351 0.929 . S
C363 C357 1.390 . S
C363 C360 1.386 . S
C364 C359 1.490 . S
C364 C366 1.395 . S
C364 C367 1.403 . S
H365 C371 0.930 . S
C366 H352 0.930 . S
C366 C364 1.395 . S
C366 C369 1.403 . S
C367 C364 1.403 . S
C367 C368 1.524 . S
C367 C371 1.400 . S
C368 H353 0.960 . S
C368 H354 0.960 . S
C368 H355 0.960 . S
C368 C367 1.524 . S
C369 C366 1.403 . S
C369 C370 1.392 . S
C369 C373 1.495 . S
C370 C369 1.392 . S
C370 C371 1.385 . S
C370 C372 1.478 . S
C371 H365 0.930 . S
C371 C367 1.400 . S
C371 C370 1.385 . S
C372 C370 1.478 . S
C372 C374 1.381 . S
C372 C378 1.383 . S
C373 C369 1.495 . S
C373 H379 0.959 . S
C373 H380 0.961 . S
C373 H381 0.960 . S
C374 C372 1.381 . S
C374 C375 1.394 . S
C374 H382 0.930 . S
C375 C374 1.394 . S
C375 C376 1.383 . S
C375 H383 0.929 . S
C376 C375 1.383 . S
C376 C377 1.377 . S
C377 H361 0.930 . S
C377 C376 1.377 . S
C377 C378 1.379 . S
C378 H362 0.931 . S
C378 C372 1.383 . S
C378 C377 1.379 . S
H379 C373 0.959 . S
H380 C373 0.961 . S
H381 C373 0.960 . S
H382 C374 0.930 . S
H383 C375 0.929 . S
H384 C392 0.929 . S
H385 C394 0.930 . S
H386 C396 0.930 . S
H387 C399 0.929 . S
H388 C402 0.930 . S
H389 C404 0.960 . S
H390 C404 0.960 . S
H391 C404 0.960 . S
C392 H384 0.929 . S
C392 C393 1.377 . S
C392 C394 1.384 . S
C393 C392 1.377 . S
C393 C399 1.390 . S
C394 H385 0.930 . S
C394 C392 1.384 . S
C394 C395 1.372 . S
C395 C394 1.372 . S
C395 C396 1.400 . S
C395 C400 1.490 . S
C396 H386 0.930 . S
C396 C395 1.400 . S
C396 C399 1.386 . S
H397 C413 0.930 . S
H398 C414 0.931 . S
C399 H387 0.929 . S
C399 C393 1.390 . S
C399 C396 1.386 . S
C400 C395 1.490 . S
C400 C402 1.395 . S
C400 C403 1.403 . S
H401 C407 0.930 . S
C402 H388 0.930 . S
C402 C400 1.395 . S
C402 C405 1.403 . S
C403 C400 1.403 . S
C403 C404 1.524 . S
C403 C407 1.400 . S
C404 H389 0.960 . S
C404 H390 0.960 . S
C404 H391 0.960 . S
C404 C403 1.524 . S
C405 C402 1.403 . S
C405 C406 1.392 . S
C405 C409 1.495 . S
C406 C405 1.392 . S
C406 C407 1.385 . S
C406 C408 1.478 . S
C407 H401 0.930 . S
C407 C403 1.400 . S
C407 C406 1.385 . S
C408 C406 1.478 . S
C408 C410 1.381 . S
C408 C414 1.383 . S
C409 C405 1.495 . S
C409 H415 0.959 . S
C409 H416 0.961 . S
C409 H417 0.960 . S
C410 C408 1.381 . S
C410 C411 1.394 . S
C410 H418 0.930 . S
C411 C410 1.394 . S
C411 C412 1.383 . S
C411 H419 0.929 . S
C412 C411 1.383 . S
C412 C413 1.377 . S
C413 H397 0.930 . S
C413 C412 1.377 . S
C413 C414 1.379 . S
C414 H398 0.931 . S
C414 C408 1.383 . S
C414 C413 1.379 . S
H415 C409 0.959 . S
H416 C409 0.961 . S
H417 C409 0.960 . S
H418 C410 0.930 . S
H419 C411 0.929 . S
H420 C428 0.929 . S
H421 C430 0.930 . S
H422 C432 0.930 . S
H423 C435 0.929 . S
H424 C438 0.930 . S
H425 C440 0.960 . S
H426 C440 0.960 . S
H427 C440 0.960 . S
C428 H420 0.929 . S
C428 C429 1.377 . S
C428 C430 1.384 . S
C429 C428 1.377 . S
C429 C435 1.390 . S
C430 H421 0.930 . S
C430 C428 1.384 . S
C430 C431 1.372 . S
C431 C430 1.372 . S
C431 C432 1.400 . S
C431 C436 1.490 . S
C432 H422 0.930 . S
C432 C431 1.400 . S
C432 C435 1.386 . S
H433 C449 0.930 . S
H434 C450 0.931 . S
C435 H423 0.929 . S
C435 C429 1.390 . S
C435 C432 1.386 . S
C436 C431 1.490 . S
C436 C438 1.395 . S
C436 C439 1.403 . S
H437 C443 0.930 . S
C438 H424 0.930 . S
C438 C436 1.395 . S
C438 C441 1.403 . S
C439 C436 1.403 . S
C439 C440 1.524 . S
C439 C443 1.400 . S
C440 H425 0.960 . S
C440 H426 0.960 . S
C440 H427 0.960 . S
C440 C439 1.524 . S
C441 C438 1.403 . S
C441 C442 1.392 . S
C441 C445 1.495 . S
C442 C441 1.392 . S
C442 C443 1.385 . S
C442 C444 1.478 . S
C443 H437 0.930 . S
C443 C439 1.400 . S
C443 C442 1.385 . S
C444 C442 1.478 . S
C444 C446 1.381 . S
C444 C450 1.383 . S
C445 C441 1.495 . S
C445 H451 0.959 . S
C445 H452 0.961 . S
C445 H453 0.960 . S
C446 C444 1.381 . S
C446 C447 1.394 . S
C446 H454 0.930 . S
C447 C446 1.394 . S
C447 C448 1.383 . S
C447 H455 0.929 . S
C448 C447 1.383 . S
C448 C449 1.377 . S
C449 H433 0.930 . S
C449 C448 1.377 . S
C449 C450 1.379 . S
C450 H434 0.931 . S
C450 C444 1.383 . S
C450 C449 1.379 . S
H451 C445 0.959 . S
H452 C445 0.961 . S
H453 C445 0.960 . S
H454 C446 0.930 . S
H455 C447 0.929 . S
H456 C464 0.929 . S
H457 C466 0.930 . S
H458 C468 0.930 . S
H459 C471 0.929 . S
H460 C474 0.930 . S
H461 C476 0.960 . S
H462 C476 0.960 . S
H463 C476 0.960 . S
C464 H456 0.929 . S
C464 C465 1.377 . S
C464 C466 1.384 . S
C465 C464 1.377 . S
C465 C471 1.390 . S
C466 H457 0.930 . S
C466 C464 1.384 . S
C466 C467 1.372 . S
C467 C466 1.372 . S
C467 C468 1.400 . S
C467 C472 1.490 . S
C468 H458 0.930 . S
C468 C467 1.400 . S
C468 C471 1.386 . S
H469 C485 0.930 . S
H470 C486 0.931 . S
C471 H459 0.929 . S
C471 C465 1.390 . S
C471 C468 1.386 . S
C472 C467 1.490 . S
C472 C474 1.395 . S
C472 C475 1.403 . S
H473 C479 0.930 . S
C474 H460 0.930 . S
C474 C472 1.395 . S
C474 C477 1.403 . S
C475 C472 1.403 . S
C475 C476 1.524 . S
C475 C479 1.400 . S
C476 H461 0.960 . S
C476 H462 0.960 . S
C476 H463 0.960 . S
C476 C475 1.524 . S
C477 C474 1.403 . S
C477 C478 1.392 . S
C477 C481 1.495 . S
C478 C477 1.392 . S
C478 C479 1.385 . S
C478 C480 1.478 . S
C479 H473 0.930 . S
C479 C475 1.400 . S
C479 C478 1.385 . S
C480 C478 1.478 . S
C480 C482 1.381 . S
C480 C486 1.383 . S
C481 C477 1.495 . S
C481 H487 0.959 . S
C481 H488 0.961 . S
C481 H489 0.960 . S
C482 C480 1.381 . S
C482 C483 1.394 . S
C482 H490 0.930 . S
C483 C482 1.394 . S
C483 C484 1.383 . S
C483 H491 0.929 . S
C484 C483 1.383 . S
C484 C485 1.377 . S
C485 H469 0.930 . S
C485 C484 1.377 . S
C485 C486 1.379 . S
C486 H470 0.931 . S
C486 C480 1.383 . S
C486 C485 1.379 . S
H487 C481 0.959 . S
H488 C481 0.961 . S
H489 C481 0.960 . S
H490 C482 0.930 . S
H491 C483 0.929 . S
H492 C500 0.929 . S
H493 C502 0.930 . S
H494 C504 0.930 . S
H495 C507 0.929 . S
H496 C510 0.930 . S
H497 C512 0.960 . S
H498 C512 0.960 . S
H499 C512 0.960 . S
C500 H492 0.929 . S
C500 C501 1.377 . S
C500 C502 1.384 . S
C501 C500 1.377 . S
C501 C507 1.390 . S
C502 H493 0.930 . S
C502 C500 1.384 . S
C502 C503 1.372 . S
C503 C502 1.372 . S
C503 C504 1.400 . S
C503 C508 1.490 . S
C504 H494 0.930 . S
C504 C503 1.400 . S
C504 C507 1.386 . S
H505 C521 0.930 . S
H506 C522 0.931 . S
C507 H495 0.929 . S
C507 C501 1.390 . S
C507 C504 1.386 . S
C508 C503 1.490 . S
C508 C510 1.395 . S
C508 C511 1.403 . S
H509 C515 0.930 . S
C510 H496 0.930 . S
C510 C508 1.395 . S
C510 C513 1.403 . S
C511 C508 1.403 . S
C511 C512 1.524 . S
C511 C515 1.400 . S
C512 H497 0.960 . S
C512 H498 0.960 . S
C512 H499 0.960 . S
C512 C511 1.524 . S
C513 C510 1.403 . S
C513 C514 1.392 . S
C513 C517 1.495 . S
C514 C513 1.392 . S
C514 C515 1.385 . S
C514 C516 1.478 . S
C515 H509 0.930 . S
C515 C511 1.400 . S
C515 C514 1.385 . S
C516 C514 1.478 . S
C516 C518 1.381 . S
C516 C522 1.383 . S
C517 C513 1.495 . S
C517 H523 0.959 . S
C517 H524 0.961 . S
C517 H525 0.960 . S
C518 C516 1.381 . S
C518 C519 1.394 . S
C518 H526 0.930 . S
C519 C518 1.394 . S
C519 C520 1.383 . S
C519 H527 0.929 . S
C520 C519 1.383 . S
C520 C521 1.377 . S
C521 H505 0.930 . S
C521 C520 1.377 . S
C521 C522 1.379 . S
C522 H506 0.931 . S
C522 C516 1.383 . S
C522 C521 1.379 . S
H523 C517 0.959 . S
H524 C517 0.961 . S
H525 C517 0.960 . S
H526 C518 0.930 . S
H527 C519 0.929 . S
H528 C536 0.929 . S
H529 C538 0.930 . S
H530 C540 0.930 . S
H531 C543 0.929 . S
H532 C546 0.930 . S
H533 C548 0.960 . S
H534 C548 0.960 . S
H535 C548 0.960 . S
C536 H528 0.929 . S
C536 C537 1.377 . S
C536 C538 1.384 . S
C537 C536 1.377 . S
C537 C543 1.390 . S
C538 H529 0.930 . S
C538 C536 1.384 . S
C538 C539 1.372 . S
C539 C538 1.372 . S
C539 C540 1.400 . S
C539 C544 1.490 . S
C540 H530 0.930 . S
C540 C539 1.400 . S
C540 C543 1.386 . S
H541 C557 0.930 . S
H542 C558 0.931 . S
C543 H531 0.929 . S
C543 C537 1.390 . S
C543 C540 1.386 . S
C544 C539 1.490 . S
C544 C546 1.395 . S
C544 C547 1.403 . S
H545 C551 0.930 . S
C546 H532 0.930 . S
C546 C544 1.395 . S
C546 C549 1.403 . S
C547 C544 1.403 . S
C547 C548 1.524 . S
C547 C551 1.400 . S
C548 H533 0.960 . S
C548 H534 0.960 . S
C548 H535 0.960 . S
C548 C547 1.524 . S
C549 C546 1.403 . S
C549 C550 1.392 . S
C549 C553 1.495 . S
C550 C549 1.392 . S
C550 C551 1.385 . S
C550 C552 1.478 . S
C551 H545 0.930 . S
C551 C547 1.400 . S
C551 C550 1.385 . S
C552 C550 1.478 . S
C552 C554 1.381 . S
C552 C558 1.383 . S
C553 C549 1.495 . S
C553 H559 0.959 . S
C553 H560 0.961 . S
C553 H561 0.960 . S
C554 C552 1.381 . S
C554 C555 1.394 . S
C554 H562 0.930 . S
C555 C554 1.394 . S
C555 C556 1.383 . S
C555 H563 0.929 . S
C556 C555 1.383 . S
C556 C557 1.377 . S
C557 H541 0.930 . S
C557 C556 1.377 . S
C557 C558 1.379 . S
C558 H542 0.931 . S
C558 C552 1.383 . S
C558 C557 1.379 . S
H559 C553 0.959 . S
H560 C553 0.961 . S
H561 C553 0.960 . S
H562 C554 0.930 . S
H563 C555 0.929 . S
H564 C572 0.929 . S
H565 C574 0.930 . S
H566 C576 0.930 . S
H567 C579 0.929 . S
H568 C582 0.930 . S
H569 C584 0.960 . S
H570 C584 0.960 . S
H571 C584 0.960 . S
C572 H564 0.929 . S
C572 C573 1.377 . S
C572 C574 1.384 . S
C573 C572 1.377 . S
C573 C579 1.390 . S
C574 H565 0.930 . S
C574 C572 1.384 . S
C574 C575 1.372 . S
C575 C574 1.372 . S
C575 C576 1.400 . S
C575 C580 1.490 . S
C576 H566 0.930 . S
C576 C575 1.400 . S
C576 C579 1.386 . S
H577 C593 0.930 . S
H578 C594 0.931 . S
C579 H567 0.929 . S
C579 C573 1.390 . S
C579 C576 1.386 . S
C580 C575 1.490 . S
C580 C582 1.395 . S
C580 C583 1.403 . S
H581 C587 0.930 . S
C582 H568 0.930 . S
C582 C580 1.395 . S
C582 C585 1.403 . S
C583 C580 1.403 . S
C583 C584 1.524 . S
C583 C587 1.400 . S
C584 H569 0.960 . S
C584 H570 0.960 . S
C584 H571 0.960 . S
C584 C583 1.524 . S
C585 C582 1.403 . S
C585 C586 1.392 . S
C585 C589 1.495 . S
C586 C585 1.392 . S
C586 C587 1.385 . S
C586 C588 1.478 . S
C587 H581 0.930 . S
C587 C583 1.400 . S
C587 C586 1.385 . S
C588 C586 1.478 . S
C588 C590 1.381 . S
C588 C594 1.383 . S
C589 C585 1.495 . S
C589 H595 0.959 . S
C589 H596 0.961 . S
C589 H597 0.960 . S
C590 C588 1.381 . S
C590 C591 1.394 . S
C590 H598 0.930 . S
C591 C590 1.394 . S
C591 C592 1.383 . S
C591 H599 0.929 . S
C592 C591 1.383 . S
C592 C593 1.377 . S
C593 H577 0.930 . S
C593 C592 1.377 . S
C593 C594 1.379 . S
C594 H578 0.931 . S
C594 C588 1.383 . S
C594 C593 1.379 . S
H595 C589 0.959 . S
H596 C589 0.961 . S
H597 C589 0.960 . S
H598 C590 0.930 . S
H599 C591 0.929 . S
H600 C608 0.929 . S
H601 C610 0.930 . S
H602 C612 0.930 . S
H603 C615 0.929 . S
H604 C618 0.930 . S
H605 C620 0.960 . S
H606 C620 0.960 . S
H607 C620 0.960 . S
C608 H600 0.929 . S
C608 C609 1.377 . S
C608 C610 1.384 . S
C609 C608 1.377 . S
C609 C615 1.390 . S
C610 H601 0.930 . S
C610 C608 1.384 . S
C610 C611 1.372 . S
C611 C610 1.372 . S
C611 C612 1.400 . S
C611 C616 1.490 . S
C612 H602 0.930 . S
C612 C611 1.400 . S
C612 C615 1.386 . S
H613 C629 0.930 . S
H614 C630 0.931 . S
C615 H603 0.929 . S
C615 C609 1.390 . S
C615 C612 1.386 . S
C616 C611 1.490 . S
C616 C618 1.395 . S
C616 C619 1.403 . S
H617 C623 0.930 . S
C618 H604 0.930 . S
C618 C616 1.395 . S
C618 C621 1.403 . S
C619 C616 1.403 . S
C619 C620 1.524 . S
C619 C623 1.400 . S
C620 H605 0.960 . S
C620 H606 0.960 . S
C620 H607 0.960 . S
C620 C619 1.524 . S
C621 C618 1.403 . S
C621 C622 1.392 . S
C621 C625 1.495 . S
C622 C621 1.392 . S
C622 C623 1.385 . S
C622 C624 1.478 . S
C623 H617 0.930 . S
C623 C619 1.400 . S
C623 C622 1.385 . S
C624 C622 1.478 . S
C624 C626 1.381 . S
C624 C630 1.383 . S
C625 C621 1.495 . S
C625 H631 0.959 . S
C625 H632 0.961 . S
C625 H633 0.960 . S
C626 C624 1.381 . S
C626 C627 1.394 . S
C626 H634 0.930 . S
C627 C626 1.394 . S
C627 C628 1.383 . S
C627 H635 0.929 . S
C628 C627 1.383 . S
C628 C629 1.377 . S
C629 H613 0.930 . S
C629 C628 1.377 . S
C629 C630 1.379 . S
C630 H614 0.931 . S
C630 C624 1.383 . S
C630 C629 1.379 . S
H631 C625 0.959 . S
H632 C625 0.961 . S
H633 C625 0.960 . S
H634 C626 0.930 . S
H635 C627 0.929 . S
H636 C644 0.929 . S
H637 C646 0.930 . S
H638 C648 0.930 . S
H639 C651 0.929 . S
H640 C654 0.930 . S
H641 C656 0.960 . S
H642 C656 0.960 . S
H643 C656 0.960 . S
C644 H636 0.929 . S
C644 C645 1.377 . S
C644 C646 1.384 . S
C645 C644 1.377 . S
C645 C651 1.390 . S
C646 H637 0.930 . S
C646 C644 1.384 . S
C646 C647 1.372 . S
C647 C646 1.372 . S
C647 C648 1.400 . S
C647 C652 1.490 . S
C648 H638 0.930 . S
C648 C647 1.400 . S
C648 C651 1.386 . S
H649 C665 0.930 . S
H650 C666 0.931 . S
C651 H639 0.929 . S
C651 C645 1.390 . S
C651 C648 1.386 . S
C652 C647 1.490 . S
C652 C654 1.395 . S
C652 C655 1.403 . S
H653 C659 0.930 . S
C654 H640 0.930 . S
C654 C652 1.395 . S
C654 C657 1.403 . S
C655 C652 1.403 . S
C655 C656 1.524 . S
C655 C659 1.400 . S
C656 H641 0.960 . S
C656 H642 0.960 . S
C656 H643 0.960 . S
C656 C655 1.524 . S
C657 C654 1.403 . S
C657 C658 1.392 . S
C657 C661 1.495 . S
C658 C657 1.392 . S
C658 C659 1.385 . S
C658 C660 1.478 . S
C659 H653 0.930 . S
C659 C655 1.400 . S
C659 C658 1.385 . S
C660 C658 1.478 . S
C660 C662 1.381 . S
C660 C666 1.383 . S
C661 C657 1.495 . S
C661 H667 0.959 . S
C661 H668 0.961 . S
C661 H669 0.960 . S
C662 C660 1.381 . S
C662 C663 1.394 . S
C662 H670 0.930 . S
C663 C662 1.394 . S
C663 C664 1.383 . S
C663 H671 0.929 . S
C664 C663 1.383 . S
C664 C665 1.377 . S
C665 H649 0.930 . S
C665 C664 1.377 . S
C665 C666 1.379 . S
C666 H650 0.931 . S
C666 C660 1.383 . S
C666 C665 1.379 . S
H667 C661 0.959 . S
H668 C661 0.961 . S
H669 C661 0.960 . S
H670 C662 0.930 . S
H671 C663 0.929 . S
H672 C680 0.929 . S
H673 C682 0.930 . S
H674 C684 0.930 . S
H675 C687 0.929 . S
H676 C690 0.930 . S
H677 C692 0.960 . S
H678 C692 0.960 . S
H679 C692 0.960 . S
C680 H672 0.929 . S
C680 C681 1.377 . S
C680 C682 1.384 . S
C681 C680 1.377 . S
C681 C687 1.390 . S
C682 H673 0.930 . S
C682 C680 1.384 . S
C682 C683 1.372 . S
C683 C682 1.372 . S
C683 C684 1.400 . S
C683 C688 1.490 . S
C684 H674 0.930 . S
C684 C683 1.400 . S
C684 C687 1.386 . S
H685 C701 0.930 . S
H686 C702 0.931 . S
C687 H675 0.929 . S
C687 C681 1.390 . S
C687 C684 1.386 . S
C688 C683 1.490 . S
C688 C690 1.395 . S
C688 C691 1.403 . S
H689 C695 0.930 . S
C690 H676 0.930 . S
C690 C688 1.395 . S
C690 C693 1.403 . S
C691 C688 1.403 . S
C691 C692 1.524 . S
C691 C695 1.400 . S
C692 H677 0.960 . S
C692 H678 0.960 . S
C692 H679 0.960 . S
C692 C691 1.524 . S
C693 C690 1.403 . S
C693 C694 1.392 . S
C693 C697 1.495 . S
C694 C693 1.392 . S
C694 C695 1.385 . S
C694 C696 1.478 . S
C695 H689 0.930 . S
C695 C691 1.400 . S
C695 C694 1.385 . S
C696 C694 1.478 . S
C696 C698 1.381 . S
C696 C702 1.383 . S
C697 C693 1.495 . S
C697 H703 0.959 . S
C697 H704 0.961 . S
C697 H705 0.960 . S
C698 C696 1.381 . S
C698 C699 1.394 . S
C698 H706 0.930 . S
C699 C698 1.394 . S
C699 C700 1.383 . S
C699 H707 0.929 . S
C700 C699 1.383 . S
C700 C701 1.377 . S
C701 H685 0.930 . S
C701 C700 1.377 . S
C701 C702 1.379 . S
C702 H686 0.931 . S
C702 C696 1.383 . S
C702 C701 1.379 . S
H703 C697 0.959 . S
H704 C697 0.961 . S
H705 C697 0.960 . S
H706 C698 0.930 . S
H707 C699 0.929 . S
H708 C716 0.929 . S
H709 C718 0.930 . S
H710 C720 0.930 . S
H711 C723 0.929 . S
H712 C726 0.930 . S
H713 C728 0.960 . S
H714 C728 0.960 . S
H715 C728 0.960 . S
C716 H708 0.929 . S
C716 C717 1.377 . S
C716 C718 1.384 . S
C717 C716 1.377 . S
C717 C723 1.390 . S
C718 H709 0.930 . S
C718 C716 1.384 . S
C718 C719 1.372 . S
C719 C718 1.372 . S
C719 C720 1.400 . S
C719 C724 1.490 . S
C720 H710 0.930 . S
C720 C719 1.400 . S
C720 C723 1.386 . S
H721 C737 0.930 . S
H722 C738 0.931 . S
C723 H711 0.929 . S
C723 C717 1.390 . S
C723 C720 1.386 . S
C724 C719 1.490 . S
C724 C726 1.395 1_655 S
C724 C727 1.403 . S
H725 C731 0.932 . S
C726 H712 0.930 . S
C726 C724 1.395 1_455 S
C726 C729 1.403 . S
C727 C724 1.403 . S
C727 C728 1.524 . S
C727 C731 1.407 . S
C728 H713 0.960 . S
C728 H714 0.960 . S
C728 H715 0.960 . S
C728 C727 1.524 . S
C729 C726 1.403 . S
C729 C730 1.392 . S
C729 C733 1.495 . S
C730 C729 1.392 . S
C730 C731 1.377 1_455 S
C730 C732 1.478 . S
C731 H725 0.932 . S
C731 C727 1.407 . S
C731 C730 1.377 1_655 S
C732 C730 1.478 . S
C732 C734 1.381 . S
C732 C738 1.383 . S
C733 C729 1.495 . S
C733 H739 0.959 . S
C733 H740 0.961 . S
C733 H741 0.960 . S
C734 C732 1.381 . S
C734 C735 1.394 . S
C734 H742 0.930 . S
C735 C734 1.394 . S
C735 C736 1.383 . S
C735 H743 0.929 . S
C736 C735 1.383 . S
C736 C737 1.377 . S
C737 H721 0.930 . S
C737 C736 1.377 . S
C737 C738 1.379 . S
C738 H722 0.931 . S
C738 C732 1.383 . S
C738 C737 1.379 . S
H739 C733 0.959 . S
H740 C733 0.961 . S
H741 C733 0.960 . S
H742 C734 0.930 . S
H743 C735 0.929 . S
H744 C752 0.929 . S
H745 C754 0.930 . S
H746 C756 0.930 1_565 S
H747 C759 0.929 . S
H748 C762 0.930 . S
H749 C764 0.960 . S
H750 C764 0.960 . S
H751 C764 0.960 . S
C752 H744 0.929 . S
C752 C753 1.377 . S
C752 C754 1.384 . S
C753 C752 1.377 . S
C753 C759 1.390 . S
C754 H745 0.930 . S
C754 C752 1.384 . S
C754 C755 1.372 . S
C755 C754 1.372 . S
C755 C756 1.400 . S
C755 C760 1.490 1_545 S
C756 H746 0.930 1_545 S
C756 C755 1.400 . S
C756 C759 1.386 . S
H757 C773 0.930 . S
H758 C774 0.931 . S
C759 H747 0.929 . S
C759 C753 1.390 . S
C759 C756 1.386 . S
C760 C755 1.490 1_565 S
C760 C762 1.395 . S
C760 C763 1.403 1_565 S
H761 C767 0.930 . S
C762 H748 0.930 . S
C762 C760 1.395 . S
C762 C765 1.403 . S
C763 C760 1.403 1_545 S
C763 C764 1.524 . S
C763 C767 1.400 1_545 S
C764 H749 0.960 . S
C764 H750 0.960 . S
C764 H751 0.960 . S
C764 C763 1.524 . S
C765 C762 1.403 . S
C765 C766 1.392 . S
C765 C769 1.495 . S
C766 C765 1.392 . S
C766 C767 1.385 . S
C766 C768 1.478 . S
C767 H761 0.930 . S
C767 C763 1.400 1_565 S
C767 C766 1.385 . S
C768 C766 1.478 . S
C768 C770 1.381 . S
C768 C774 1.383 . S
C769 C765 1.495 . S
C769 H775 0.959 . S
C769 H776 0.961 . S
C769 H777 0.960 . S
C770 C768 1.381 . S
C770 C771 1.394 . S
C770 H778 0.930 . S
C771 C770 1.394 . S
C771 C772 1.383 . S
C771 H779 0.929 . S
C772 C771 1.383 . S
C772 C773 1.377 . S
C773 H757 0.930 . S
C773 C772 1.377 . S
C773 C774 1.379 . S
C774 H758 0.931 . S
C774 C768 1.383 . S
C774 C773 1.379 . S
H775 C769 0.959 . S
H776 C769 0.961 . S
H777 C769 0.960 . S
H778 C770 0.930 . S
H779 C771 0.929 . S
H780 C788 0.929 . S
H781 C790 0.930 . S
H782 C792 0.930 1_655 S
H783 C795 0.929 . S
H784 C798 0.930 . S
H785 C800 0.960 . S
H786 C800 0.960 . S
H787 C800 0.960 . S
C788 H780 0.929 . S
C788 C789 1.377 . S
C788 C790 1.384 . S
C789 C788 1.377 . S
C789 C795 1.390 . S
C790 H781 0.930 . S
C790 C788 1.384 . S
C790 C791 1.372 . S
C791 C790 1.372 . S
C791 C792 1.400 . S
C791 C796 1.490 . S
C792 H782 0.930 1_455 S
C792 C791 1.400 . S
C792 C795 1.386 . S
H793 C809 0.930 . S
H794 C810 0.931 . S
C795 H783 0.929 . S
C795 C789 1.390 . S
C795 C792 1.386 . S
C796 C791 1.490 . S
C796 C798 1.395 1_455 S
C796 C799 1.403 . S
H797 C803 0.930 . S
C798 H784 0.930 . S
C798 C796 1.395 1_655 S
C798 C801 1.403 . S
C799 C796 1.403 . S
C799 C800 1.524 . S
C799 C803 1.400 1_455 S
C800 H785 0.960 . S
C800 H786 0.960 . S
C800 H787 0.960 . S
C800 C799 1.524 . S
C801 C798 1.403 . S
C801 C802 1.392 . S
C801 C805 1.495 . S
C802 C801 1.392 . S
C802 C803 1.385 . S
C802 C804 1.478 . S
C803 H797 0.930 . S
C803 C799 1.400 1_655 S
C803 C802 1.385 . S
C804 C802 1.478 . S
C804 C806 1.381 . S
C804 C810 1.383 . S
C805 C801 1.495 . S
C805 H811 0.959 . S
C805 H812 0.961 . S
C805 H813 0.960 . S
C806 C804 1.381 . S
C806 C807 1.394 . S
C806 H814 0.892 1_655 S
C807 C806 1.394 . S
C807 C808 1.383 . S
C807 H815 0.929 . S
C808 C807 1.383 . S
C808 C809 1.377 . S
C809 H793 0.930 . S
C809 C808 1.377 . S
C809 C810 1.379 . S
C810 H794 0.931 . S
C810 C804 1.383 . S
C810 C809 1.379 . S
H811 C805 0.959 . S
H812 C805 0.961 . S
H813 C805 0.960 . S
H814 C806 0.892 1_455 S
H815 C807 0.929 . S
H816 C824 0.929 . S
H817 C826 0.930 . S
H818 C828 0.930 . S
H819 C831 0.929 . S
H820 C834 0.930 . S
H821 C836 0.960 . S
H822 C836 0.960 . S
H823 C836 0.960 . S
C824 H816 0.929 . S
C824 C825 1.377 . S
C824 C826 1.384 . S
C825 C824 1.377 . S
C825 C831 1.390 . S
C826 H817 0.930 . S
C826 C824 1.384 . S
C826 C827 1.372 . S
C827 C826 1.372 . S
C827 C828 1.400 . S
C827 C832 1.490 . S
C828 H818 0.930 . S
C828 C827 1.400 . S
C828 C831 1.386 . S
H829 C845 0.930 . S
H830 C846 0.931 . S
C831 H819 0.929 . S
C831 C825 1.390 . S
C831 C828 1.386 . S
C832 C827 1.490 . S
C832 C834 1.395 1_545 S
C832 C835 1.403 . S
H833 C839 0.930 . S
C834 H820 0.930 . S
C834 C832 1.395 1_565 S
C834 C837 1.403 . S
C835 C832 1.403 . S
C835 C836 1.524 . S
C835 C839 1.400 . S
C836 H821 0.960 . S
C836 H822 0.960 . S
C836 H823 0.960 . S
C836 C835 1.524 . S
C837 C834 1.403 . S
C837 C838 1.392 . S
C837 C841 1.495 . S
C838 C837 1.392 . S
C838 C839 1.385 1_565 S
C838 C840 1.478 . S
C839 H833 0.930 . S
C839 C835 1.400 . S
C839 C838 1.385 1_545 S
C840 C838 1.478 . S
C840 C842 1.381 . S
C840 C846 1.383 . S
C841 C837 1.495 . S
C841 H847 0.959 . S
C841 H848 0.961 . S
C841 H849 0.960 . S
C842 C840 1.381 . S
C842 C843 1.394 . S
C842 H850 0.930 . S
C843 C842 1.394 . S
C843 C844 1.383 . S
C843 H851 0.929 . S
C844 C843 1.383 . S
C844 C845 1.377 . S
C845 H829 0.930 . S
C845 C844 1.377 . S
C845 C846 1.379 . S
C846 H830 0.931 . S
C846 C840 1.383 . S
C846 C845 1.379 . S
H847 C841 0.959 . S
H848 C841 0.961 . S
H849 C841 0.960 . S
H850 C842 0.930 . S
H851 C843 0.929 . S
H852 C860 0.929 . S
H853 C862 0.930 . S
H854 C864 0.930 . S
H855 C867 0.929 . S
H856 C870 0.930 . S
H857 C872 0.960 . S
H858 C872 0.960 . S
H859 C872 0.960 . S
C860 H852 0.929 . S
C860 C861 1.377 . S
C860 C862 1.384 . S
C861 C860 1.377 . S
C861 C867 1.390 . S
C862 H853 0.930 . S
C862 C860 1.384 . S
C862 C863 1.372 . S
C863 C862 1.372 . S
C863 C864 1.400 . S
C863 C868 1.490 . S
C864 H854 0.930 . S
C864 C863 1.400 . S
C864 C867 1.386 . S
H865 C881 0.930 . S
H866 C882 0.931 1_545 S
C867 H855 0.929 . S
C867 C861 1.390 . S
C867 C864 1.386 . S
C868 C863 1.490 . S
C868 C870 1.395 1_545 S
C868 C871 1.403 . S
H869 C875 0.930 . S
C870 H856 0.930 . S
C870 C868 1.395 1_565 S
C870 C873 1.403 . S
C871 C868 1.403 . S
C871 C872 1.524 . S
C871 C875 1.400 . S
C872 H857 0.960 . S
C872 H858 0.960 . S
C872 H859 0.960 . S
C872 C871 1.524 . S
C873 C870 1.403 . S
C873 C874 1.392 . S
C873 C877 1.495 . S
C874 C873 1.392 . S
C874 C875 1.385 1_565 S
C874 C876 1.478 . S
C875 H869 0.930 . S
C875 C871 1.400 . S
C875 C874 1.385 1_545 S
C876 C874 1.478 . S
C876 C878 1.381 . S
C876 C882 1.383 . S
C877 C873 1.495 . S
C877 H883 0.959 . S
C877 H884 0.961 . S
C877 H885 0.960 . S
C878 C876 1.381 . S
C878 C879 1.394 . S
C878 H886 0.930 . S
C879 C878 1.394 . S
C879 C880 1.383 . S
C879 H887 0.929 . S
C880 C879 1.383 . S
C880 C881 1.377 . S
C881 H865 0.930 . S
C881 C880 1.377 . S
C881 C882 1.379 . S
C882 H866 0.931 1_565 S
C882 C876 1.383 . S
C882 C881 1.379 . S
H883 C877 0.959 . S
H884 C877 0.961 . S
H885 C877 0.960 . S
H886 C878 0.930 . S
H887 C879 0.929 . S
H888 C896 0.929 . S
H889 C898 0.930 . S
H890 C900 0.930 . S
H891 C903 0.929 . S
H892 C906 0.930 . S
H893 C908 0.960 . S
H894 C908 0.960 . S
H895 C908 0.960 . S
C896 H888 0.929 . S
C896 C897 1.377 . S
C896 C898 1.384 . S
C897 C896 1.377 . S
C897 C903 1.390 . S
C898 H889 0.930 . S
C898 C896 1.384 . S
C898 C899 1.372 . S
C899 C898 1.372 . S
C899 C900 1.400 . S
C899 C904 1.490 . S
C900 H890 0.930 . S
C900 C899 1.400 . S
C900 C903 1.386 . S
H901 C917 0.930 . S
H902 C918 0.931 . S
C903 H891 0.929 . S
C903 C897 1.390 . S
C903 C900 1.386 . S
C904 C899 1.490 . S
C904 C906 1.395 1_455 S
C904 C907 1.403 . S
H905 C911 0.930 . S
C906 H892 0.930 . S
C906 C904 1.395 1_655 S
C906 C909 1.403 . S
C907 C904 1.403 . S
C907 C908 1.524 . S
C907 C911 1.400 . S
C908 H893 0.960 . S
C908 H894 0.960 . S
C908 H895 0.960 . S
C908 C907 1.524 . S
C909 C906 1.403 . S
C909 C910 1.392 . S
C909 C913 1.495 . S
C910 C909 1.392 . S
C910 C911 1.385 1_655 S
C910 C912 1.478 . S
C911 H905 0.930 . S
C911 C907 1.400 . S
C911 C910 1.385 1_455 S
C912 C910 1.478 . S
C912 C914 1.381 . S
C912 C918 1.383 . S
C913 C909 1.495 . S
C913 H919 0.959 . S
C913 H920 0.961 . S
C913 H921 0.960 . S
C914 C912 1.381 . S
C914 C915 1.394 . S
C914 H922 0.930 . S
C915 C914 1.394 . S
C915 C916 1.383 . S
C915 H923 0.929 . S
C916 C915 1.383 . S
C916 C917 1.377 . S
C917 H901 0.930 . S
C917 C916 1.377 . S
C917 C918 1.379 . S
C918 H902 0.931 . S
C918 C912 1.383 . S
C918 C917 1.379 . S
H919 C913 0.959 . S
H920 C913 0.961 . S
H921 C913 0.960 . S
H922 C914 0.930 . S
H923 C915 0.929 . S
H924 C932 0.929 . S
H925 C934 0.930 . S
H926 C936 0.943 . S
H927 C939 0.929 1_565 S
H928 C942 0.930 . S
H929 C944 0.960 . S
H930 C944 0.960 . S
H931 C944 0.960 . S
C932 H924 0.929 . S
C932 C933 1.377 . S
C932 C934 1.384 . S
C933 C932 1.377 . S
C933 C939 1.390 . S
C934 H925 0.930 . S
C934 C932 1.384 . S
C934 C935 1.372 . S
C935 C934 1.372 . S
C935 C936 1.392 1_545 S
C935 C940 1.490 . S
C936 H926 0.943 . S
C936 C935 1.392 1_565 S
C936 C939 1.380 1_565 S
H937 C953 0.930 . S
H938 C954 0.931 . S
C939 H927 0.929 1_545 S
C939 C933 1.390 . S
C939 C936 1.380 1_545 S
C940 C935 1.490 . S
C940 C942 1.395 . S
C940 C943 1.403 1_545 S
H941 C947 0.930 . S
C942 H928 0.930 . S
C942 C940 1.395 . S
C942 C945 1.403 . S
C943 C940 1.403 1_565 S
C943 C944 1.524 . S
C943 C947 1.400 . S
C944 H929 0.960 . S
C944 H930 0.960 . S
C944 H931 0.960 . S
C944 C943 1.524 . S
C945 C942 1.403 . S
C945 C946 1.392 1_545 S
C945 C949 1.495 . S
C946 C945 1.392 1_565 S
C946 C947 1.385 . S
C946 C948 1.478 . S
C947 H941 0.930 . S
C947 C943 1.400 . S
C947 C946 1.385 . S
C948 C946 1.478 . S
C948 C950 1.381 . S
C948 C954 1.383 . S
C949 C945 1.495 . S
C949 H955 0.959 . S
C949 H956 0.961 . S
C949 H957 0.960 . S
C950 C948 1.381 . S
C950 C951 1.394 . S
C950 H958 0.930 1_565 S
C951 C950 1.394 . S
C951 C952 1.383 . S
C951 H959 0.929 . S
C952 C951 1.383 . S
C952 C953 1.377 . S
C953 H937 0.930 . S
C953 C952 1.377 . S
C953 C954 1.379 . S
C954 H938 0.931 . S
C954 C948 1.383 . S
C954 C953 1.379 . S
H955 C949 0.959 . S
H956 C949 0.961 . S
H957 C949 0.960 . S
H958 C950 0.930 1_545 S
H959 C951 0.929 . S
H960 C968 0.929 . S
H961 C970 0.930 . S
H962 C972 0.930 . S
H963 C975 0.929 . S
H964 C978 0.930 . S
H965 C980 0.960 . S
H966 C980 0.960 . S
H967 C980 0.960 . S
C968 H960 0.929 . S
C968 C969 1.377 . S
C968 C970 1.384 . S
C969 C968 1.377 . S
C969 C975 1.390 . S
C970 H961 0.930 . S
C970 C968 1.384 . S
C970 C971 1.372 . S
C971 C970 1.372 . S
C971 C972 1.400 . S
C971 C976 1.490 . S
C972 H962 0.930 . S
C972 C971 1.400 . S
C972 C975 1.386 . S
H973 C989 0.930 . S
H974 C990 0.931 1_655 S
C975 H963 0.929 . S
C975 C969 1.390 . S
C975 C972 1.386 . S
C976 C971 1.490 . S
C976 C978 1.395 . S
C976 C979 1.403 1_655 S
H977 C983 0.930 . S
C978 H964 0.930 . S
C978 C976 1.395 . S
C978 C981 1.403 . S
C979 C976 1.403 1_455 S
C979 C980 1.524 . S
C979 C983 1.400 . S
C980 H965 0.960 . S
C980 H966 0.960 . S
C980 H967 0.960 . S
C980 C979 1.524 . S
C981 C978 1.403 . S
C981 C982 1.392 . S
C981 C985 1.495 . S
C982 C981 1.392 . S
C982 C983 1.385 1_655 S
C982 C984 1.478 1_655 S
C983 H977 0.930 . S
C983 C979 1.400 . S
C983 C982 1.385 1_455 S
C984 C982 1.478 1_455 S
C984 C986 1.381 . S
C984 C990 1.383 . S
C985 C981 1.495 . S
C985 H991 0.959 . S
C985 H992 0.961 . S
C985 H993 0.960 . S
C986 C984 1.381 . S
C986 C987 1.394 . S
C986 H994 0.930 . S
C987 C986 1.394 . S
C987 C988 1.383 . S
C987 H995 0.929 . S
C988 C987 1.383 . S
C988 C989 1.377 . S
C989 H973 0.930 . S
C989 C988 1.377 . S
C989 C990 1.379 . S
C990 H974 0.931 1_455 S
C990 C984 1.383 . S
C990 C989 1.379 . S
H991 C985 0.959 . S
H992 C985 0.961 . S
H993 C985 0.960 . S
H994 C986 0.930 . S
H995 C987 0.929 . S
H996 C1004 0.929 . S
H997 C1006 0.930 . S
H998 C1008 0.930 . S
H999 C1011 0.929 . S
H1000 C1014 0.930 . S
H1001 C1016 0.960 . S
H1002 C1016 0.960 . S
H1003 C1016 0.960 . S
C1004 H996 0.929 . S
C1004 C1005 1.377 . S
C1004 C1006 1.384 . S
C1005 C1004 1.377 . S
C1005 C1011 1.390 . S
C1006 H997 0.930 . S
C1006 C1004 1.384 . S
C1006 C1007 1.372 . S
C1007 C1006 1.372 . S
C1007 C1008 1.400 . S
C1007 C1012 1.490 . S
C1008 H998 0.930 . S
C1008 C1007 1.400 . S
C1008 C1011 1.386 . S
H1009 C1025 0.930 . S
H1010 C1026 0.931 1_554 S
C1011 H999 0.929 . S
C1011 C1005 1.390 . S
C1011 C1008 1.386 . S
C1012 C1007 1.490 . S
C1012 C1014 1.395 1_554 S
C1012 C1015 1.403 . S
H1013 C1019 0.930 . S
C1014 H1000 0.930 . S
C1014 C1012 1.395 1_556 S
C1014 C1017 1.403 . S
C1015 C1012 1.403 . S
C1015 C1016 1.524 . S
C1015 C1019 1.400 . S
C1016 H1001 0.960 . S
C1016 H1002 0.960 . S
C1016 H1003 0.960 . S
C1016 C1015 1.524 . S
C1017 C1014 1.403 . S
C1017 C1018 1.392 . S
C1017 C1021 1.495 . S
C1018 C1017 1.392 . S
C1018 C1019 1.385 1_556 S
C1018 C1020 1.478 . S
C1019 H1013 0.930 . S
C1019 C1015 1.400 . S
C1019 C1018 1.385 1_554 S
C1020 C1018 1.478 . S
C1020 C1022 1.381 . S
C1020 C1026 1.383 . S
C1021 C1017 1.495 . S
C1021 H1027 0.959 . S
C1021 H1028 0.961 . S
C1021 H1029 0.960 . S
C1022 C1020 1.381 . S
C1022 C1023 1.394 . S
C1022 H1030 0.930 . S
C1023 C1022 1.394 . S
C1023 C1024 1.383 . S
C1023 H1031 0.929 . S
C1024 C1023 1.383 . S
C1024 C1025 1.377 . S
C1025 H1009 0.930 . S
C1025 C1024 1.377 . S
C1025 C1026 1.379 . S
C1026 H1010 0.931 1_556 S
C1026 C1020 1.383 . S
C1026 C1025 1.379 . S
H1027 C1021 0.959 . S
H1028 C1021 0.961 . S
H1029 C1021 0.960 . S
H1030 C1022 0.930 . S
H1031 C1023 0.929 . S
H1032 C1040 0.929 . S
H1033 C1042 0.930 . S
H1034 C1044 0.930 1_554 S
H1035 C1047 0.929 1_554 S
H1036 C1050 0.930 . S
H1037 C1052 0.960 . S
H1038 C1052 0.960 1_556 S
H1039 C1052 0.960 . S
C1040 H1032 0.929 . S
C1040 C1041 1.377 . S
C1040 C1042 1.384 . S
C1041 C1040 1.377 . S
C1041 C1047 1.390 . S
C1042 H1033 0.930 . S
C1042 C1040 1.384 . S
C1042 C1043 1.372 . S
C1043 C1042 1.372 . S
C1043 C1044 1.400 . S
C1043 C1048 1.490 . S
C1044 H1034 0.930 1_556 S
C1044 C1043 1.400 . S
C1044 C1047 1.386 . S
H1045 C1061 0.930 . S
H1046 C1062 0.931 . S
C1047 H1035 0.929 1_556 S
C1047 C1041 1.390 . S
C1047 C1044 1.386 . S
C1048 C1043 1.490 . S
C1048 C1050 1.395 . S
C1048 C1051 1.403 1_556 S
H1049 C1055 0.930 . S
C1050 H1036 0.930 . S
C1050 C1048 1.395 . S
C1050 C1053 1.403 . S
C1051 C1048 1.403 1_554 S
C1051 C1052 1.524 . S
C1051 C1055 1.400 . S
C1052 H1037 0.960 . S
C1052 H1038 0.960 1_554 S
C1052 H1039 0.960 . S
C1052 C1051 1.524 . S
C1053 C1050 1.403 . S
C1053 C1054 1.392 1_556 S
C1053 C1057 1.495 . S
C1054 C1053 1.392 1_554 S
C1054 C1055 1.385 . S
C1054 C1056 1.478 . S
C1055 H1049 0.930 . S
C1055 C1051 1.400 . S
C1055 C1054 1.385 . S
C1056 C1054 1.478 . S
C1056 C1058 1.384 1_554 S
C1056 C1062 1.383 . S
C1057 C1053 1.495 . S
C1057 H1063 0.959 . S
C1057 H1064 0.961 1_556 S
C1057 H1065 0.960 . S
C1058 C1056 1.384 1_556 S
C1058 C1059 1.396 1_556 S
C1058 H1066 0.926 . S
C1059 C1058 1.396 1_554 S
C1059 C1060 1.383 . S
C1059 H1067 0.929 1_554 S
C1060 C1059 1.383 . S
C1060 C1061 1.377 . S
C1061 H1045 0.930 . S
C1061 C1060 1.377 . S
C1061 C1062 1.379 . S
C1062 H1046 0.931 . S
C1062 C1056 1.383 . S
C1062 C1061 1.379 . S
H1063 C1057 0.959 . S
H1064 C1057 0.961 1_554 S
H1065 C1057 0.960 . S
H1066 C1058 0.926 . S
H1067 C1059 0.929 1_556 S
H1068 C1076 0.929 . S
H1069 C1078 0.930 . S
H1070 C1080 0.930 . S
H1071 C1083 0.929 . S
H1072 C1086 0.930 . S
H1073 C1088 0.960 . S
H1074 C1088 0.960 . S
H1075 C1088 0.960 . S
C1076 H1068 0.929 . S
C1076 C1077 1.377 . S
C1076 C1078 1.384 . S
C1077 C1076 1.377 . S
C1077 C1083 1.390 . S
C1078 H1069 0.930 . S
C1078 C1076 1.384 . S
C1078 C1079 1.372 . S
C1079 C1078 1.372 . S
C1079 C1080 1.400 . S
C1079 C1084 1.490 . S
C1080 H1070 0.930 . S
C1080 C1079 1.400 . S
C1080 C1083 1.386 . S
H1081 C1097 0.930 . S
H1082 C1098 0.931 . S
C1083 H1071 0.929 . S
C1083 C1077 1.390 . S
C1083 C1080 1.386 . S
C1084 C1079 1.490 . S
C1084 C1086 1.395 . S
C1084 C1087 1.403 1_556 S
H1085 C1091 0.930 . S
C1086 H1072 0.930 . S
C1086 C1084 1.395 . S
C1086 C1089 1.403 . S
C1087 C1084 1.403 1_554 S
C1087 C1088 1.524 . S
C1087 C1091 1.400 . S
C1088 H1073 0.960 . S
C1088 H1074 0.960 . S
C1088 H1075 0.960 . S
C1088 C1087 1.524 . S
C1089 C1086 1.403 . S
C1089 C1090 1.392 . S
C1089 C1093 1.495 . S
C1090 C1089 1.392 . S
C1090 C1091 1.385 1_556 S
C1090 C1092 1.478 1_556 S
C1091 H1085 0.930 . S
C1091 C1087 1.400 . S
C1091 C1090 1.385 1_554 S
C1092 C1090 1.478 1_554 S
C1092 C1094 1.381 . S
C1092 C1098 1.383 . S
C1093 C1089 1.495 . S
C1093 H1099 0.959 . S
C1093 H1100 0.961 . S
C1093 H1101 0.960 . S
C1094 C1092 1.381 . S
C1094 C1095 1.394 . S
C1094 H1102 0.930 . S
C1095 C1094 1.394 . S
C1095 C1096 1.383 . S
C1095 H1103 0.929 . S
C1096 C1095 1.383 . S
C1096 C1097 1.377 . S
C1097 H1081 0.930 . S
C1097 C1096 1.377 . S
C1097 C1098 1.379 . S
C1098 H1082 0.931 . S
C1098 C1092 1.383 . S
C1098 C1097 1.379 . S
H1099 C1093 0.959 . S
H1100 C1093 0.961 . S
H1101 C1093 0.960 . S
H1102 C1094 0.930 . S
H1103 C1095 0.929 . S
H1104 C1112 0.929 . S
H1105 C1114 0.930 . S
H1106 C1116 0.930 . S
H1107 C1119 0.929 . S
H1108 C1122 0.930 . S
H1109 C1124 0.960 . S
H1110 C1124 0.960 . S
H1111 C1124 0.960 . S
C1112 H1104 0.929 . S
C1112 C1113 1.377 . S
C1112 C1114 1.384 . S
C1113 C1112 1.377 . S
C1113 C1119 1.390 . S
C1114 H1105 0.930 . S
C1114 C1112 1.384 . S
C1114 C1115 1.372 . S
C1115 C1114 1.372 . S
C1115 C1116 1.400 . S
C1115 C1120 1.490 . S
C1116 H1106 0.930 . S
C1116 C1115 1.400 . S
C1116 C1119 1.386 . S
H1117 C1133 0.930 . S
H1118 C1134 0.931 . S
C1119 H1107 0.929 . S
C1119 C1113 1.390 . S
C1119 C1116 1.386 . S
C1120 C1115 1.490 . S
C1120 C1122 1.395 . S
C1120 C1123 1.403 1_554 S
H1121 C1127 0.930 . S
C1122 H1108 0.930 . S
C1122 C1120 1.395 . S
C1122 C1125 1.403 . S
C1123 C1120 1.403 1_556 S
C1123 C1124 1.524 . S
C1123 C1127 1.400 . S
C1124 H1109 0.960 . S
C1124 H1110 0.960 . S
C1124 H1111 0.960 . S
C1124 C1123 1.524 . S
C1125 C1122 1.403 . S
C1125 C1126 1.392 1_554 S
C1125 C1129 1.495 . S
C1126 C1125 1.392 1_556 S
C1126 C1127 1.385 . S
C1126 C1128 1.478 . S
C1127 H1121 0.930 . S
C1127 C1123 1.400 . S
C1127 C1126 1.385 . S
C1128 C1126 1.478 . S
C1128 C1130 1.381 . S
C1128 C1134 1.383 . S
C1129 C1125 1.495 . S
C1129 H1135 0.959 . S
C1129 H1136 0.961 . S
C1129 H1137 0.960 . S
C1130 C1128 1.381 . S
C1130 C1131 1.394 . S
C1130 H1138 0.930 . S
C1131 C1130 1.394 . S
C1131 C1132 1.383 . S
C1131 H1139 0.929 . S
C1132 C1131 1.383 . S
C1132 C1133 1.377 . S
C1133 H1117 0.930 . S
C1133 C1132 1.377 . S
C1133 C1134 1.379 . S
C1134 H1118 0.931 . S
C1134 C1128 1.383 . S
C1134 C1133 1.379 . S
H1135 C1129 0.959 . S
H1136 C1129 0.961 . S
H1137 C1129 0.960 . S
H1138 C1130 0.930 . S
H1139 C1131 0.929 . S
C285 N12 1.362 . S
C304 C177 1.368 . S
C321 N25 1.290 . S
C340 C108 1.332 . S
C357 N117 1.324 . S
C376 C62 1.368 . S
C393 N140 1.223 . S
C412 N71 1.229 . S
C429 N186 1.176 . S
C448 N163 1.182 . S
C465 C223 1.357 . S
C484 N94 1.309 . S
C501 N242 1.403 . S
C520 C131 1.409 . S
C537 C260 1.569 . S
C556 C154 1.576 . S
C573 C39 1.385 . S
C592 N209 1.375 . S
C609 C237 1.358 . S
C628 N48 1.346 . S
C645 C85 1.353 . S
C664 N265 1.334 . S
C681 C200 1.559 . S
C700 C7 1.559 . S
C717 C145 1.583 . S
C736 C16 1.547 . S
C753 N173 1.747 . S
C772 C30 1.805 . S
C789 N104 1.339 . S
C808 N58 1.353 . S
C825 C76 1.950 . S
C844 C122 1.932 . S
C861 C168 1.598 . S
C880 N127 1.535 . S
C897 C99 1.795 . S
C916 N150 1.703 . S
C933 N81 1.440 . S
C952 N35 1.476 . S
C969 C53 1.827 . S
C988 N2 1.804 . S
C1005 N196 1.436 . S
C1024 N219 1.411 . S
C1041 C214 1.826 . S
C1060 C246 1.830 . S
C1077 N255 1.446 . S
C1096 N232 1.472 . S
C1113 C191 1.799 . S
C1132 C269 1.805 . S
