# Generated by pormake.
# Topology atn, (4)-cn, num edge types: 1
# Building blocks:
#     Node 0, Type 0, BuildingBlock: UXUYUI_clean_sbu_0, # of connection points: 4
#     Node 1, Type 0, BuildingBlock: UXUYUI_clean_sbu_0, # of connection points: 4
#     Node 2, Type 0, BuildingBlock: UXUYUI_clean_sbu_0, # of connection points: 4
#     Node 3, Type 0, BuildingBlock: UXUYUI_clean_sbu_0, # of connection points: 4
#     Node 4, Type 0, BuildingBlock: UXUYUI_clean_sbu_0, # of connection points: 4
#     Node 5, Type 0, BuildingBlock: UXUYUI_clean_sbu_0, # of connection points: 4
#     Node 6, Type 0, BuildingBlock: UXUYUI_clean_sbu_0, # of connection points: 4
#     Node 7, Type 0, BuildingBlock: UXUYUI_clean_sbu_0, # of connection points: 4
#     Node 8, Type 0, BuildingBlock: UXUYUI_clean_sbu_0, # of connection points: 4
#     Node 9, Type 0, BuildingBlock: UXUYUI_clean_sbu_0, # of connection points: 4
#     Node 10, Type 0, BuildingBlock: UXUYUI_clean_sbu_0, # of connection points: 4
#     Node 11, Type 0, BuildingBlock: UXUYUI_clean_sbu_0, # of connection points: 4
#     Node 12, Type 0, BuildingBlock: UXUYUI_clean_sbu_0, # of connection points: 4
#     Node 13, Type 0, BuildingBlock: UXUYUI_clean_sbu_0, # of connection points: 4
#     Node 14, Type 0, BuildingBlock: UXUYUI_clean_sbu_0, # of connection points: 4
#     Node 15, Type 0, BuildingBlock: UXUYUI_clean_sbu_0, # of connection points: 4
#     Edge 16, Type (0, 0), BuildingBlock: TEMPAE_clean_linker_10, # of connection points: 2
#     Edge 17, Type (0, 0), BuildingBlock: TEMPAE_clean_linker_10, # of connection points: 2
#     Edge 18, Type (0, 0), BuildingBlock: TEMPAE_clean_linker_10, # of connection points: 2
#     Edge 19, Type (0, 0), BuildingBlock: TEMPAE_clean_linker_10, # of connection points: 2
#     Edge 20, Type (0, 0), BuildingBlock: TEMPAE_clean_linker_10, # of connection points: 2
#     Edge 21, Type (0, 0), BuildingBlock: TEMPAE_clean_linker_10, # of connection points: 2
#     Edge 22, Type (0, 0), BuildingBlock: TEMPAE_clean_linker_10, # of connection points: 2
#     Edge 23, Type (0, 0), BuildingBlock: TEMPAE_clean_linker_10, # of connection points: 2
#     Edge 24, Type (0, 0), BuildingBlock: TEMPAE_clean_linker_10, # of connection points: 2
#     Edge 25, Type (0, 0), BuildingBlock: TEMPAE_clean_linker_10, # of connection points: 2
#     Edge 26, Type (0, 0), BuildingBlock: TEMPAE_clean_linker_10, # of connection points: 2
#     Edge 27, Type (0, 0), BuildingBlock: TEMPAE_clean_linker_10, # of connection points: 2
#     Edge 28, Type (0, 0), BuildingBlock: TEMPAE_clean_linker_10, # of connection points: 2
#     Edge 29, Type (0, 0), BuildingBlock: TEMPAE_clean_linker_10, # of connection points: 2
#     Edge 30, Type (0, 0), BuildingBlock: TEMPAE_clean_linker_10, # of connection points: 2
#     Edge 31, Type (0, 0), BuildingBlock: TEMPAE_clean_linker_10, # of connection points: 2
#     Edge 32, Type (0, 0), BuildingBlock: TEMPAE_clean_linker_10, # of connection points: 2
#     Edge 33, Type (0, 0), BuildingBlock: TEMPAE_clean_linker_10, # of connection points: 2
#     Edge 34, Type (0, 0), BuildingBlock: TEMPAE_clean_linker_10, # of connection points: 2
#     Edge 35, Type (0, 0), BuildingBlock: TEMPAE_clean_linker_10, # of connection points: 2
#     Edge 36, Type (0, 0), BuildingBlock: TEMPAE_clean_linker_10, # of connection points: 2
#     Edge 37, Type (0, 0), BuildingBlock: TEMPAE_clean_linker_10, # of connection points: 2
#     Edge 38, Type (0, 0), BuildingBlock: TEMPAE_clean_linker_10, # of connection points: 2
#     Edge 39, Type (0, 0), BuildingBlock: TEMPAE_clean_linker_10, # of connection points: 2
#     Edge 40, Type (0, 0), BuildingBlock: TEMPAE_clean_linker_10, # of connection points: 2
#     Edge 41, Type (0, 0), BuildingBlock: TEMPAE_clean_linker_10, # of connection points: 2
#     Edge 42, Type (0, 0), BuildingBlock: TEMPAE_clean_linker_10, # of connection points: 2
#     Edge 43, Type (0, 0), BuildingBlock: TEMPAE_clean_linker_10, # of connection points: 2
#     Edge 44, Type (0, 0), BuildingBlock: TEMPAE_clean_linker_10, # of connection points: 2
#     Edge 45, Type (0, 0), BuildingBlock: TEMPAE_clean_linker_10, # of connection points: 2
#     Edge 46, Type (0, 0), BuildingBlock: TEMPAE_clean_linker_10, # of connection points: 2
#     Edge 47, Type (0, 0), BuildingBlock: TEMPAE_clean_linker_10, # of connection points: 2
# Relax obj value: 0.164
# Max RMSD: 0.140
# Mean RMSD: 0.140
data_MOF--net-atn--node1-UXUYUI_clean_sbu_0--edge1-TEMPAE_clean_linker_10
_symmetry_space_group_name_H-M    P1
_symmetry_Int_Tables_number       1
_symmetry_cell_setting            triclinic
loop_
_symmetry_equiv_pos_as_xyz
'x, y, z'
_cell_length_a     92.001299
_cell_length_b     92.003059
_cell_length_c     37.744856
_cell_angle_alpha  90.001957
_cell_angle_beta   89.986088
_cell_angle_gamma 90.001034
loop_
_atom_site_label
_atom_site_type_symbol
_atom_site_fract_x
_atom_site_fract_y
_atom_site_fract_z
_atom_type_partial_charge
Li0 Li 0.21307 0.39352 0.99322 0.0
Li1 Li 0.20166 0.37452 0.02844 0.0
Li2 Li 0.22468 0.37079 0.99854 0.0
Li3 Li 0.20213 0.37315 0.96407 0.0
C4 C 0.23239 0.3849 0.05828 0.0
N5 N 0.25702 0.38492 0.10026 0.0
C6 C 0.23138 0.38161 0.09435 0.0
C7 C 0.24591 0.38848 0.04377 0.0
C8 C 0.24396 0.38161 0.11509 0.0
C9 C 0.25824 0.38835 0.06534 0.0
C10 C 0.18383 0.39801 0.01043 0.0
C11 C 0.16195 0.41234 0.01483 0.0
N12 N 0.16726 0.41879 0.04456 0.0
C13 C 0.18907 0.40479 0.04104 0.0
C14 C 0.17017 0.40182 0.99719 0.0
C15 C 0.18053 0.41527 0.05789 0.0
C16 C 0.20669 0.42144 0.96781 0.0
N17 N 0.2158 0.41389 0.98937 0.0
C18 C 0.22788 0.43572 0.00665 0.0
C19 C 0.22628 0.42067 0.00857 0.0
C20 C 0.21853 0.44383 0.98489 0.0
C21 C 0.20789 0.43649 0.96509 0.0
H22 H 0.19836 0.41575 0.95311 0.0
H23 H 0.23328 0.41446 0.02574 0.0
C24 C 0.19867 0.35979 0.09156 0.0
N25 N 0.19122 0.36877 0.06955 0.0
C26 C 0.19232 0.35483 0.1228 0.0
C27 C 0.17039 0.36785 0.10736 0.0
C28 C 0.17722 0.37263 0.07641 0.0
C29 C 0.17804 0.35896 0.13118 0.0
H30 H 0.20961 0.35649 0.08474 0.0
H31 H 0.1713 0.37933 0.05792 0.0
C32 C 0.22595 0.39236 0.93173 0.0
N33 N 0.2346 0.41469 0.8875 0.0
C34 C 0.21656 0.39753 0.90547 0.0
C35 C 0.2398 0.39843 0.93518 0.0
C36 C 0.22112 0.40885 0.88344 0.0
C37 C 0.24395 0.40975 0.91267 0.0
C38 C 0.19694 0.34732 0.00031 0.0
C39 C 0.2008 0.33275 0.00496 0.0
C40 C 0.18228 0.35112 0.99729 0.0
C41 C 0.1899 0.3222 0.00641 0.0
C42 C 0.17171 0.34025 -0.00112 0.0
N43 N 0.1757 0.32613 0.00336 0.0
C44 C 0.24526 0.35272 0.03131 0.0
C45 C 0.25146 0.36025 0.97309 0.0
C46 C 0.25802 0.34461 0.03382 0.0
N47 N 0.24231 0.36036 0.00135 0.0
C48 C 0.26424 0.35211 0.97426 0.0
C49 C 0.26759 0.34414 0.00489 0.0
H50 H 0.23763 0.35286 0.05312 0.0
H51 H 0.24871 0.36631 0.94948 0.0
C52 C 0.1814 0.37441 0.90881 0.0
N53 N 0.19226 0.36641 0.92344 0.0
C54 C 0.17468 0.36975 0.87765 0.0
C55 C 0.19019 0.34852 0.878 0.0
C56 C 0.19669 0.35366 0.90892 0.0
C57 C 0.17915 0.35668 0.86166 0.0
H58 H 0.17821 0.38458 0.9209 0.0
H59 H 0.20536 0.34755 0.92128 0.0
O60 O 0.22018 0.38481 0.0375 0.0
O61 O 0.19201 0.38783 0.99303 0.0
O62 O 0.22153 0.38151 0.95409 0.0
O63 O 0.20753 0.35775 -0.0009 0.0
H64 H 0.22099 0.37923 0.10636 0.0
H65 H 0.24688 0.39117 0.01602 0.0
H66 H 0.24333 0.37903 0.14301 0.0
H67 H 0.26877 0.39095 0.0543 0.0
H68 H 0.15135 0.41539 0.00488 0.0
H69 H 0.1996 0.40205 0.05178 0.0
H70 H 0.16595 0.3967 0.97352 0.0
H71 H 0.18445 0.42059 0.08158 0.0
H72 H 0.23629 0.44095 0.02214 0.0
H73 H 0.20031 0.44236 0.94843 0.0
H74 H 0.19846 0.34769 0.14003 0.0
H75 H 0.15933 0.37121 0.11279 0.0
H76 H 0.20581 0.393 0.90243 0.0
H77 H 0.24728 0.39449 0.95504 0.0
H78 H 0.21392 0.41303 0.8632 0.0
H79 H 0.25461 0.4146 0.9152 0.0
H80 H 0.21211 0.32965 0.00744 0.0
H81 H 0.17907 0.36233 0.99381 0.0
H82 H 0.19272 0.31088 0.00998 0.0
H83 H 0.16032 0.34303 0.99658 0.0
H84 H 0.26016 0.3384 0.05765 0.0
H85 H 0.27138 0.35196 0.95144 0.0
H86 H 0.16634 0.37648 0.86578 0.0
H87 H 0.19381 0.33827 0.86701 0.0
Li88 Li 0.60377 0.21008 0.99397 0.0
Li89 Li 0.62534 0.20015 0.02315 0.0
Li90 Li 0.62675 0.22339 0.98762 0.0
Li91 Li 0.62442 0.19963 0.95887 0.0
C92 C 0.60797 0.22711 0.05552 0.0
N93 N 0.5923 0.24327 0.10401 0.0
C94 C 0.60457 0.22127 0.0887 0.0
C95 C 0.60366 0.24128 0.04731 0.0
C96 C 0.59656 0.22958 0.11276 0.0
C97 C 0.59567 0.24925 0.07209 0.0
C98 C 0.60866 0.1764 0.00702 0.0
C99 C 0.61683 0.15217 0.02104 0.0
N100 N 0.60386 0.14943 0.03698 0.0
C101 C 0.59536 0.1733 0.02323 0.0
C102 C 0.61944 0.16572 0.0056 0.0
C103 C 0.59316 0.15961 0.03834 0.0
C104 C 0.57584 0.21391 0.96593 0.0
N105 N 0.58333 0.21191 0.99657 0.0
C106 C 0.56132 0.21191 0.03007 0.0
C107 C 0.57641 0.21073 0.02824 0.0
C108 C 0.55331 0.21413 -0.00111 0.0
C109 C 0.56074 0.21513 0.96649 0.0
H110 H 0.58159 0.21444 0.941 0.0
H111 H 0.58255 0.20854 0.05199 0.0
C112 C 0.64671 0.19256 0.07251 0.0
N113 N 0.63239 0.1909 0.06466 0.0
C114 C 0.65242 0.18661 0.10352 0.0
C115 C 0.62857 0.17717 0.11757 0.0
C116 C 0.62328 0.18351 0.08657 0.0
C117 C 0.64329 0.1788 0.12641 0.0
H118 H 0.65366 0.19871 0.05491 0.0
H119 H 0.61185 0.18278 0.08042 0.0
C120 C 0.60909 0.22892 0.92858 0.0
N121 N 0.60138 0.25203 0.88578 0.0
C122 C 0.61369 0.22938 0.89329 0.0
C123 C 0.6004 0.2401 0.94193 0.0
C124 C 0.60972 0.24119 0.87212 0.0
C125 C 0.59666 0.25172 0.91992 0.0
C126 C 0.65318 0.20228 0.9741 0.0
C127 C 0.66154 0.21201 0.95429 0.0
C128 C 0.65789 0.18795 0.97832 0.0
C129 C 0.67435 0.20714 0.93833 0.0
C130 C 0.67076 0.18349 0.96194 0.0
N131 N 0.67865 0.19309 0.94241 0.0
C132 C 0.6393 0.24828 0.01666 0.0
C133 C 0.63904 0.24818 0.95387 0.0
C134 C 0.64678 0.26147 0.01697 0.0
N135 N 0.63565 0.24192 0.98543 0.0
C136 C 0.64643 0.26141 0.95292 0.0
C137 C 0.65058 0.26814 0.98478 0.0
H138 H 0.63673 0.2429 0.04135 0.0
H139 H 0.63642 0.24271 0.92941 0.0
C140 C 0.62347 0.17577 0.91159 0.0
N141 N 0.62941 0.18907 0.91754 0.0
C142 C 0.62696 0.16804 0.8809 0.0
C143 C 0.64253 0.18791 0.86306 0.0
C144 C 0.63863 0.19529 0.89386 0.0
C145 C 0.63667 0.1741 0.85632 0.0
H146 H 0.61593 0.1712 0.93051 0.0
H147 H 0.64283 0.20608 0.89872 0.0
O148 O 0.61585 0.21913 0.03171 0.0
O149 O 0.61102 0.18977 0.99226 0.0
O150 O 0.61297 0.21747 0.94972 0.0
O151 O 0.64056 0.20683 0.9897 0.0
H152 H 0.60796 0.21039 0.09567 0.0
H153 H 0.60657 0.24615 0.02225 0.0
H154 H 0.59374 0.22515 0.1384 0.0
H155 H 0.59222 0.26021 0.06602 0.0
H156 H 0.62511 0.14383 0.02029 0.0
H157 H 0.58684 0.18139 0.02428 0.0
H158 H 0.6297 0.16787 0.9927 0.0
H159 H 0.58295 0.15709 0.05114 0.0
H160 H 0.55596 0.21074 0.05546 0.0
H161 H 0.55495 0.21686 0.94187 0.0
H162 H 0.66384 0.18807 0.10955 0.0
H163 H 0.62117 0.17142 0.13494 0.0
H164 H 0.6203 0.22075 0.8824 0.0
H165 H 0.59646 0.23974 0.96886 0.0
H166 H 0.61327 0.24173 0.84483 0.0
H167 H 0.58996 0.26046 0.92996 0.0
H168 H 0.65812 0.22317 0.95099 0.0
H169 H 0.65171 0.18036 0.99415 0.0
H170 H 0.68088 0.21452 0.92268 0.0
H171 H 0.6745 0.1724 0.96483 0.0
H172 H 0.65003 0.26608 0.04215 0.0
H173 H 0.64908 0.26618 0.9275 0.0
H174 H 0.62222 0.1574 0.87658 0.0
H175 H 0.64983 0.19307 0.84438 0.0
Li176 Li 0.79376 0.62385 0.04022 0.0
Li177 Li 0.78365 0.60368 0.00606 0.0
Li178 Li 0.79626 0.62362 0.9765 0.0
Li179 Li 0.77239 0.62747 0.00173 0.0
C180 C 0.81913 0.61131 0.01347 0.0
N181 N 0.84885 0.61516 0.0183 0.0
C182 C 0.82847 0.59941 0.01034 0.0
C183 C 0.8249 0.62518 0.01905 0.0
C184 C 0.84346 0.60157 0.01286 0.0
C185 C 0.83995 0.6269 0.02142 0.0
C186 C 0.76527 0.60914 0.06844 0.0
C187 C 0.74141 0.60125 0.08674 0.0
N188 N 0.74698 0.59704 0.11849 0.0
C189 C 0.77072 0.60487 0.10142 0.0
C190 C 0.75047 0.60744 0.06115 0.0
C191 C 0.76131 0.59871 0.1263 0.0
C192 C 0.80084 0.64298 0.09504 0.0
N193 N 0.80236 0.62906 0.08372 0.0
C194 C 0.81632 0.62295 0.13489 0.0
C195 C 0.80994 0.61906 0.10273 0.0
C196 C 0.815 0.63729 0.14715 0.0
C197 C 0.80717 0.64739 0.12681 0.0
H198 H 0.79467 0.65063 0.07936 0.0
H199 H 0.81096 0.60806 0.09289 0.0
C200 C 0.78364 0.57663 0.9734 0.0
N201 N 0.78083 0.58331 0.00476 0.0
C202 C 0.78243 0.56157 0.97045 0.0
C203 C 0.77537 0.56058 0.03211 0.0
C204 C 0.77678 0.57564 0.03389 0.0
C205 C 0.77834 0.55333 0.00016 0.0
H206 H 0.78702 0.58302 0.9508 0.0
H207 H 0.77485 0.58112 0.05865 0.0
C208 C 0.78783 0.65246 0.98674 0.0
N209 N 0.78352 0.6772 0.94654 0.0
C210 C 0.78268 0.65135 0.95199 0.0
C211 C 0.79083 0.66615 0.00098 0.0
C212 C 0.78057 0.66398 0.93212 0.0
C213 C 0.78857 0.67853 0.98025 0.0
C214 C 0.76614 0.60927 0.94373 0.0
C215 C 0.76494 0.61232 0.90758 0.0
C216 C 0.75531 0.60117 0.96057 0.0
C217 C 0.75282 0.60731 0.88891 0.0
C218 C 0.74337 0.59634 0.94099 0.0
N219 N 0.74238 0.5995 0.90587 0.0
C220 C 0.80816 0.61949 0.90905 0.0
C221 C 0.81698 0.64043 0.9388 0.0
C222 C 0.81606 0.6231 0.87875 0.0
N223 N 0.8086 0.62826 0.93799 0.0
C224 C 0.82499 0.64448 0.90905 0.0
C225 C 0.8244 0.63589 0.87834 0.0
H226 H 0.80135 0.6099 0.90925 0.0
H227 H 0.81714 0.64719 0.96221 0.0
C228 C 0.74929 0.64305 0.02982 0.0
N229 N 0.7547 0.63793 0.99874 0.0
C230 C 0.73696 0.65184 0.03006 0.0
C231 C 0.73596 0.64995 0.96621 0.0
C232 C 0.74826 0.64108 0.96725 0.0
C233 C 0.73026 0.65561 0.99789 0.0
H234 H 0.75476 0.6405 0.05441 0.0
H235 H 0.75292 0.63715 0.94282 0.0
O236 O 0.80443 0.60931 0.01094 0.0
O237 O 0.77433 0.61533 0.04393 0.0
O238 O 0.78999 0.64026 0.00686 0.0
O239 O 0.77791 0.61419 0.9623 0.0
H240 H 0.82416 0.5886 0.00599 0.0
H241 H 0.81786 0.63453 0.02151 0.0
H242 H 0.85082 0.59246 0.01049 0.0
H243 H 0.84456 0.63757 0.02572 0.0
H244 H 0.72995 0.59985 0.0814 0.0
H245 H 0.78211 0.60616 0.10763 0.0
H246 H 0.74596 0.61098 0.03615 0.0
H247 H 0.7654 0.59527 0.15182 0.0
H248 H 0.82236 0.61491 0.1498 0.0
H249 H 0.80579 0.6585 0.13565 0.0
H250 H 0.78505 0.55641 0.94546 0.0
H251 H 0.77205 0.55466 0.05557 0.0
H252 H 0.78038 0.64088 0.94036 0.0
H253 H 0.79487 0.66722 0.02777 0.0
H254 H 0.77658 0.66326 0.90521 0.0
H255 H 0.79083 0.6892 0.99096 0.0
H256 H 0.77325 0.61857 0.89416 0.0
H257 H 0.75618 0.59854 0.98835 0.0
H258 H 0.75172 0.60964 0.86095 0.0
H259 H 0.73491 0.59006 0.95371 0.0
H260 H 0.81521 0.61627 0.85546 0.0
H261 H 0.8314 0.65435 0.90985 0.0
H262 H 0.73284 0.6558 0.05514 0.0
H263 H 0.73132 0.65278 0.94077 0.0
Li264 Li 0.37314 0.79364 0.03201 0.0
Li265 Li 0.39304 0.78354 0.9982 0.0
Li266 Li 0.37338 0.79642 0.96769 0.0
Li267 Li 0.3695 0.77249 0.99245 0.0
C268 C 0.38545 0.81904 0.00606 0.0
N269 N 0.38132 0.84868 0.01219 0.0
C270 C 0.39735 0.82846 0.00491 0.0
C271 C 0.37145 0.82468 0.01039 0.0
C272 C 0.39504 0.84342 0.00805 0.0
C273 C 0.36959 0.8397 0.01342 0.0
C274 C 0.39057 0.7658 0.05562 0.0
C275 C 0.40304 0.74321 0.067 0.0
N276 N 0.40946 0.74929 0.09588 0.0
C277 C 0.39709 0.77174 0.08576 0.0
C278 C 0.39339 0.75136 0.04643 0.0
C279 C 0.40669 0.76325 0.10563 0.0
C280 C 0.35432 0.7999 0.08817 0.0
N281 N 0.36801 0.802 0.07585 0.0
C282 C 0.37433 0.81569 0.12732 0.0
C283 C 0.37801 0.8097 0.09455 0.0
C284 C 0.36022 0.81374 0.1408 0.0
C285 C 0.35013 0.80576 0.12066 0.0
H286 H 0.34667 0.79362 0.07274 0.0
H287 H 0.38887 0.81107 0.0841 0.0
C288 C 0.42067 0.77434 0.97286 0.0
N289 N 0.4134 0.78079 -2e-05 0.0
C290 C 0.43575 0.77291 0.97422 0.0
C291 C 0.43558 0.78497 0.03115 0.0
C292 C 0.42053 0.78625 0.02855 0.0
C293 C 0.44337 0.77827 0.00366 0.0
H294 H 0.41484 0.77056 0.94984 0.0
H295 H 0.41451 0.79184 0.04905 0.0
C296 C 0.34422 0.78826 0.97944 0.0
N297 N 0.3187 0.78444 0.94195 0.0
C298 C 0.3446 0.78329 0.94448 0.0
C299 C 0.33084 0.79133 0.99531 0.0
C300 C 0.3316 0.78142 0.92596 0.0
C301 C 0.31806 0.78932 0.97593 0.0
C302 C 0.38437 0.76706 0.92987 0.0
C303 C 0.37937 0.76886 0.89516 0.0
C304 C 0.39061 0.75385 0.93996 0.0
C305 C 0.38056 0.75733 0.87124 0.0
C306 C 0.39161 0.74258 0.91527 0.0
N307 N 0.38659 0.74453 0.88172 0.0
C308 C 0.37882 0.80964 0.90246 0.0
C309 C 0.35656 0.81688 0.92872 0.0
C310 C 0.37576 0.81777 0.87218 0.0
N311 N 0.36911 0.80909 0.92952 0.0
C312 C 0.35303 0.82513 0.89893 0.0
C313 C 0.36257 0.82541 0.86984 0.0
H314 H 0.38879 0.80344 0.90408 0.0
H315 H 0.34909 0.81639 0.9508 0.0
C316 C 0.35445 0.74939 0.02123 0.0
N317 N 0.35879 0.75484 0.98948 0.0
C318 C 0.34566 0.73706 0.02269 0.0
C319 C 0.34621 0.73595 0.9587 0.0
C320 C 0.35482 0.74844 0.95846 0.0
C321 C 0.3414 0.73026 0.99112 0.0
H322 H 0.35759 0.75484 0.04545 0.0
H323 H 0.35795 0.75317 0.93347 0.0
O324 O 0.38761 0.80438 0.00307 0.0
O325 O 0.38121 0.77397 0.03574 0.0
O326 O 0.35682 0.79011 0.99816 0.0
O327 O 0.38318 0.77821 0.95373 0.0
H328 H 0.40825 0.82425 0.00164 0.0
H329 H 0.36211 0.81758 0.01149 0.0
H330 H 0.40415 0.85084 0.0072 0.0
H331 H 0.35882 0.84421 0.01677 0.0
H332 H 0.40537 0.73205 0.06008 0.0
H333 H 0.39488 0.78283 0.09353 0.0
H334 H 0.38809 0.74644 0.02387 0.0
H335 H 0.41193 0.76776 0.1288 0.0
H336 H 0.3825 0.82159 0.14213 0.0
H337 H 0.33908 0.80417 0.12973 0.0
H338 H 0.4414 0.76773 0.95243 0.0
H339 H 0.44111 0.78953 0.05391 0.0
H340 H 0.35483 0.78096 0.93173 0.0
H341 H 0.33032 0.79525 0.0223 0.0
H342 H 0.33176 0.77757 0.89888 0.0
H343 H 0.30763 0.79165 0.9879 0.0
H344 H 0.37454 0.77901 0.88678 0.0
H345 H 0.39471 0.75234 0.96651 0.0
H346 H 0.37667 0.75855 0.84436 0.0
H347 H 0.39639 0.73229 0.92277 0.0
H348 H 0.38352 0.81788 0.8506 0.0
H349 H 0.34269 0.83073 0.89815 0.0
H350 H 0.34213 0.73296 0.04817 0.0
H351 H 0.3429 0.73111 0.93381 0.0
Li352 Li 0.19879 0.62346 0.0333 0.0
Li353 Li 0.22203 0.62585 0.99855 0.0
Li354 Li 0.19884 0.62436 0.969 0.0
Li355 Li 0.20889 0.60354 0.9951 0.0
C356 C 0.20193 0.65208 0.98659 0.0
N357 N 0.19421 0.67711 0.95085 0.0
C358 C 0.21083 0.65749 0.95965 0.0
C359 C 0.18914 0.65941 0.9955 0.0
C360 C 0.20672 0.67015 0.94184 0.0
C361 C 0.18542 0.67205 0.97709 0.0
C362 C 0.22896 0.61391 0.06104 0.0
C363 C 0.25447 0.61111 0.07417 0.0
N364 N 0.25234 0.61759 0.10614 0.0
C365 C 0.22701 0.62046 0.09413 0.0
C366 C 0.24279 0.60911 0.05106 0.0
C367 C 0.23897 0.62224 0.11651 0.0
C368 C 0.18212 0.61834 0.09487 0.0
N369 N 0.18943 0.62855 0.07592 0.0
C370 C 0.18405 0.64672 0.11902 0.0
C371 C 0.19058 0.6425 0.08735 0.0
C372 C 0.17628 0.63648 0.13912 0.0
C373 C 0.17537 0.6221 0.12673 0.0
H374 H 0.1815 0.6073 0.08511 0.0
H375 H 0.19675 0.65028 0.07204 0.0
C376 C 0.24823 0.63554 0.968 0.0
N377 N 0.24014 0.63568 0.99814 0.0
C378 C 0.26091 0.64382 0.96576 0.0
C379 C 0.25682 0.65199 0.02585 0.0
C380 C 0.24408 0.64378 0.02669 0.0
C381 C 0.26526 0.6522 0.99492 0.0
H382 H 0.24459 0.62938 0.94529 0.0
H383 H 0.23716 0.64413 0.0498 0.0
C384 C 0.17448 0.61067 0.98723 0.0
N385 N 0.14634 0.61137 0.96152 0.0
C386 C 0.17122 0.6046 0.95419 0.0
C387 C 0.16338 0.61707 0.00718 0.0
C388 C 0.15695 0.60508 0.94164 0.0
C389 C 0.14924 0.61731 0.99374 0.0
C390 C 0.22243 0.60349 0.93621 0.0
C391 C 0.21366 0.59682 0.9107 0.0
C392 C 0.23636 0.59805 0.94273 0.0
C393 C 0.21894 0.58474 0.89233 0.0
C394 C 0.24124 0.58594 0.92384 0.0
N395 N 0.2325 0.57958 0.89926 0.0
C396 C 0.19584 0.63202 0.89772 0.0
C397 C 0.17532 0.63851 0.93219 0.0
C398 C 0.18937 0.63767 0.86735 0.0
N399 N 0.18868 0.63229 0.92919 0.0
C400 C 0.16839 0.64425 0.90241 0.0
C401 C 0.1754 0.64377 0.86937 0.0
H402 H 0.20668 0.62756 0.89623 0.0
H403 H 0.17003 0.63907 0.95769 0.0
C404 C 0.22218 0.57643 0.00938 0.0
N405 N 0.21089 0.583 0.9926 0.0
C406 C 0.22394 0.56139 0.00733 0.0
C407 C 0.20236 0.56017 0.97092 0.0
C408 C 0.20101 0.57521 0.9738 0.0
C409 C 0.21392 0.55307 0.98791 0.0
H410 H 0.22981 0.58284 0.02442 0.0
H411 H 0.19214 0.58066 0.96076 0.0
O412 O 0.20558 0.6395 0.00367 0.0
O413 O 0.21737 0.61212 0.0387 0.0
O414 O 0.18837 0.61021 0.0002 0.0
O415 O 0.21729 0.61508 0.95519 0.0
H416 H 0.22071 0.65187 0.95225 0.0
H417 H 0.18205 0.65527 0.01603 0.0
H418 H 0.21346 0.67443 0.92078 0.0
H419 H 0.17551 0.6778 0.98353 0.0
H420 H 0.26525 0.60755 0.06664 0.0
H421 H 0.2164 0.62414 0.1025 0.0
H422 H 0.24454 0.6041 0.02553 0.0
H423 H 0.23762 0.62733 0.14214 0.0
H424 H 0.18529 0.65784 0.12797 0.0
H425 H 0.16942 0.6139 0.14131 0.0
H426 H 0.26712 0.64385 0.94138 0.0
H427 H 0.25971 0.65858 0.04856 0.0
H428 H 0.17966 0.59989 0.93795 0.0
H429 H 0.16565 0.62191 0.03266 0.0
H430 H 0.15432 0.60053 0.916 0.0
H431 H 0.14057 0.62226 0.00888 0.0
H432 H 0.20281 0.6008 0.90544 0.0
H433 H 0.24329 0.60304 0.9624 0.0
H434 H 0.21223 0.57942 0.87269 0.0
H435 H 0.25197 0.58157 0.92879 0.0
H436 H 0.19535 0.63747 0.84264 0.0
H437 H 0.15763 0.64887 0.9052 0.0
H438 H 0.23289 0.55632 0.02128 0.0
H439 H 0.19449 0.55419 0.95533 0.0
Li440 Li 0.37021 0.2239 0.00605 0.0
Li441 Li 0.37242 0.20004 0.03336 0.0
Li442 Li 0.39346 0.21085 0.00098 0.0
Li443 Li 0.37241 0.20102 0.96971 0.0
C444 C 0.38812 0.22938 0.06497 0.0
N445 N 0.39744 0.25243 0.10616 0.0
C446 C 0.38312 0.23093 0.09975 0.0
C447 C 0.39808 0.23942 0.05144 0.0
C448 C 0.38788 0.2427 0.12007 0.0
C449 C 0.40261 0.25103 0.07259 0.0
C450 C 0.34437 0.20184 0.01808 0.0
C451 C 0.32882 0.18167 0.03328 0.0
N452 N 0.3201 0.19085 0.05189 0.0
C453 C 0.33517 0.21109 0.03703 0.0
C454 C 0.3411 0.18704 0.01586 0.0
C455 C 0.32298 0.20532 0.05404 0.0
C456 C 0.35826 0.24998 0.9799 0.0
N457 N 0.36091 0.24218 0.00978 0.0
C458 C 0.34789 0.25939 0.04492 0.0
C459 C 0.35601 0.24665 0.04196 0.0
C460 C 0.34488 0.26759 0.01446 0.0
C461 C 0.35037 0.26291 0.9817 0.0
H462 H 0.36191 0.24595 0.95451 0.0
H463 H 0.35786 0.24 0.0651 0.0
C464 C 0.37062 0.17536 0.07888 0.0
N465 N 0.36672 0.18948 0.07408 0.0
C466 C 0.36638 0.16797 0.10953 0.0
C467 C 0.35423 0.1898 0.12946 0.0
C468 C 0.35868 0.19673 0.09853 0.0
C469 C 0.35815 0.17525 0.13538 0.0
H470 H 0.37712 0.1699 0.05908 0.0
H471 H 0.3557 0.20794 0.09388 0.0
C472 C 0.38929 0.22946 0.94072 0.0
N473 N 0.40405 0.24818 0.89609 0.0
C474 C 0.3928 0.22516 0.90624 0.0
C475 C 0.39304 0.24341 0.9522 0.0
C476 C 0.40034 0.23474 0.88417 0.0
C477 C 0.40056 0.25268 0.92934 0.0
C478 C 0.38983 0.17816 0.98226 0.0
C479 C 0.40325 0.17712 0.96506 0.0
C480 C 0.38001 0.1666 0.98029 0.0
C481 C 0.40651 0.16461 0.94562 0.0
C482 C 0.38366 0.15429 0.96053 0.0
N483 N 0.39672 0.15356 0.94372 0.0
C484 C 0.42078 0.21149 0.03278 0.0
C485 C 0.42151 0.215 0.97058 0.0
C486 C 0.43587 0.2126 0.03485 0.0
N487 N 0.41395 0.2128 0.00103 0.0
C488 C 0.43661 0.21622 0.97141 0.0
C489 C 0.44396 0.215 0.00385 0.0
H490 H 0.41448 0.20956 0.05651 0.0
H491 H 0.41591 0.21548 0.94554 0.0
C492 C 0.35166 0.19064 0.92134 0.0
N493 N 0.36618 0.19185 0.92724 0.0
C494 C 0.34656 0.18444 0.89 0.0
C495 C 0.37144 0.18085 0.87134 0.0
C496 C 0.37606 0.18715 0.90302 0.0
C497 C 0.3565 0.17952 0.86444 0.0
H498 H 0.34403 0.19464 0.94078 0.0
H499 H 0.38754 0.1885 0.90802 0.0
O500 O 0.38354 0.2179 0.04472 0.0
O501 O 0.35652 0.20725 0.00178 0.0
O502 O 0.38188 0.22018 0.96264 0.0
O503 O 0.38641 0.19037 0.00122 0.0
H504 H 0.3756 0.22318 0.11097 0.0
H505 H 0.40245 0.23817 0.0251 0.0
H506 H 0.38401 0.24408 0.14692 0.0
H507 H 0.41029 0.25888 0.06235 0.0
H508 H 0.32623 0.17022 0.03199 0.0
H509 H 0.33743 0.22259 0.03875 0.0
H510 H 0.348 0.17976 0.00098 0.0
H511 H 0.31581 0.21234 0.06899 0.0
H512 H 0.34374 0.26264 0.07059 0.0
H513 H 0.348 0.26882 0.95756 0.0
H514 H 0.3697 0.15678 0.11325 0.0
H515 H 0.34769 0.19574 0.14842 0.0
H516 H 0.38984 0.21451 0.89665 0.0
H517 H 0.38997 0.24717 0.97825 0.0
H518 H 0.40323 0.23149 0.85753 0.0
H519 H 0.40355 0.26349 0.93796 0.0
H520 H 0.41104 0.18589 0.9665 0.0
H521 H 0.36966 0.16713 0.99375 0.0
H522 H 0.41681 0.1637 0.932 0.0
H523 H 0.37611 0.14531 0.95859 0.0
H524 H 0.44115 0.21165 0.06039 0.0
H525 H 0.44249 0.21775 0.94682 0.0
H526 H 0.33495 0.18351 0.88583 0.0
H527 H 0.37946 0.17739 0.85211 0.0
Li528 Li 0.79441 0.37228 0.03004 0.0
Li529 Li 0.7709 0.37078 -0.0003 0.0
Li530 Li 0.79424 0.37248 0.9647 0.0
Li531 Li 0.78422 0.39341 0.99586 0.0
C532 C 0.79247 0.34336 0.00471 0.0
N533 N 0.80266 0.31579 0.01974 0.0
C534 C 0.78345 0.33323 0.02141 0.0
C535 C 0.80657 0.33936 0.995 0.0
C536 C 0.78883 0.31938 0.02899 0.0
C537 C 0.81155 0.3254 0.00299 0.0
C538 C 0.76491 0.38485 0.06161 0.0
C539 C 0.74037 0.39263 0.07366 0.0
N540 N 0.74121 0.38653 0.10641 0.0
C541 C 0.76559 0.3788 0.09553 0.0
C542 C 0.75225 0.39195 0.05069 0.0
C543 C 0.75347 0.37971 0.11774 0.0
C544 C 0.81644 0.37324 0.08303 0.0
N545 N 0.80441 0.36611 0.07134 0.0
C546 C 0.80554 0.34963 0.1201 0.0
C547 C 0.7988 0.35464 0.08941 0.0
C548 C 0.8181 0.35661 0.1326 0.0
C549 C 0.82353 0.36862 0.11378 0.0
H550 H 0.82048 0.38256 0.06862 0.0
H551 H 0.78889 0.34958 0.08041 0.0
C552 C 0.74457 0.36076 0.97092 0.0
N553 N 0.75249 0.36163 0.00122 0.0
C554 C 0.73164 0.35283 0.97025 0.0
C555 C 0.73505 0.34727 0.03231 0.0
C556 C 0.74799 0.35514 0.03163 0.0
C557 C 0.72684 0.34575 0.00113 0.0
H558 H 0.74857 0.3658 0.94694 0.0
H559 H 0.75467 0.35566 0.0551 0.0
C560 C 0.81895 0.38738 0.98934 0.0
N561 N 0.84807 0.39013 0.9727 0.0
C562 C 0.8242 0.40031 0.97469 0.0
C563 C 0.82855 0.37595 0.99607 0.0
C564 C 0.83895 0.40146 0.96629 0.0
C565 C 0.84322 0.37752 0.98734 0.0
C566 C 0.76932 0.39204 0.93363 0.0
C567 C 0.77674 0.39598 0.90278 0.0
C568 C 0.75573 0.39815 0.94079 0.0
C569 C 0.77058 0.40623 0.87999 0.0
C570 C 0.74993 0.40837 0.91736 0.0
N571 N 0.75742 0.41218 0.88772 0.0
C572 C 0.79978 0.35271 0.91029 0.0
C573 C 0.81317 0.37461 0.90501 0.0
C574 C 0.8057 0.3475 0.87874 0.0
N575 N 0.80363 0.36601 0.92282 0.0
C576 C 0.81941 0.36982 0.87339 0.0
C577 C 0.81562 0.35612 0.85981 0.0
H578 H 0.79196 0.34621 0.92467 0.0
H579 H 0.81565 0.38535 0.91477 0.0
C580 C 0.77649 0.42104 0.02193 0.0
N581 N 0.7825 0.41388 0.99408 0.0
C582 C 0.77512 0.43613 0.02114 0.0
C583 C 0.78628 0.43619 0.96313 0.0
C584 C 0.78751 0.42111 0.96516 0.0
C585 C 0.78004 0.4439 0.99141 0.0
H586 H 0.77291 0.41507 0.04496 0.0
H587 H 0.79253 0.41517 0.94373 0.0
O588 O 0.78735 0.35698 0.99708 0.0
O589 O 0.77664 0.38397 0.0394 0.0
O590 O 0.80452 0.38606 0.99752 0.0
O591 O 0.77523 0.38208 0.95636 0.0
H592 H 0.77245 0.33607 0.02873 0.0
H593 H 0.81354 0.34687 0.98104 0.0
H594 H 0.78201 0.31148 0.0422 0.0
H595 H 0.82246 0.32218 0.99571 0.0
H596 H 0.73048 0.39802 0.06546 0.0
H597 H 0.77535 0.37344 0.10463 0.0
H598 H 0.75163 0.39689 0.0248 0.0
H599 H 0.75383 0.375 0.14399 0.0
H600 H 0.80079 0.34058 0.13433 0.0
H601 H 0.83317 0.37431 0.12261 0.0
H602 H 0.72583 0.35175 0.94546 0.0
H603 H 0.73171 0.34214 0.05681 0.0
H604 H 0.81696 0.40934 0.96966 0.0
H605 H 0.82477 0.36604 0.0083 0.0
H606 H 0.84314 0.41137 0.95471 0.0
H607 H 0.85077 0.36874 0.99233 0.0
H608 H 0.78721 0.39128 0.89665 0.0
H609 H 0.74968 0.39498 0.96408 0.0
H610 H 0.77627 0.40947 0.85617 0.0
H611 H 0.73945 0.41324 0.92268 0.0
H612 H 0.80257 0.33684 0.86928 0.0
H613 H 0.82681 0.3769 0.85925 0.0
H614 H 0.77054 0.44167 0.04386 0.0
H615 H 0.79015 0.44173 0.93963 0.0
Li616 Li 0.62226 0.801 0.02557 0.0
Li617 Li 0.62754 0.77756 0.99612 0.0
Li618 Li 0.62119 0.79898 0.9636 0.0
Li619 Li 0.60267 0.78801 0.99792 0.0
C620 C 0.64889 0.80269 0.97431 0.0
N621 N 0.66892 0.81666 0.93167 0.0
C622 C 0.65777 0.79467 0.95149 0.0
C623 C 0.65029 0.81781 0.97568 0.0
C624 C 0.6678 0.80194 0.93007 0.0
C625 C 0.66047 0.82467 0.95388 0.0
C626 C 0.61749 0.78016 0.0733 0.0
C627 C 0.60925 0.77833 0.13381 0.0
N628 N 0.62323 0.7795 0.14516 0.0
C629 C 0.6318 0.78118 0.08557 0.0
C630 C 0.60613 0.77861 0.09759 0.0
C631 C 0.63447 0.78089 0.122 0.0
C632 C 0.6162 0.81566 0.08926 0.0
N633 N 0.62686 0.81274 0.06532 0.0
C634 C 0.64464 0.82416 0.10197 0.0
C635 C 0.64085 0.8169 0.0709 0.0
C636 C 0.63397 0.82679 0.1277 0.0
C637 C 0.61959 0.82257 0.12114 0.0
H638 H 0.6052 0.81206 0.08418 0.0
H639 H 0.64917 0.81409 0.05188 0.0
C640 C 0.64335 0.75545 0.96316 0.0
N641 N 0.63846 0.76007 0.99521 0.0
C642 C 0.65162 0.74279 0.96054 0.0
C643 C 0.64939 0.73969 0.02391 0.0
C644 C 0.64105 0.75234 0.02522 0.0
C645 C 0.65493 0.73483 0.99128 0.0
H646 H 0.64085 0.76166 0.9396 0.0
H647 H 0.63673 0.75599 0.05024 0.0
C648 C 0.59647 0.81561 0.97507 0.0
N649 N 0.57474 0.8288 0.93608 0.0
C650 C 0.59158 0.80929 0.94355 0.0
C651 C 0.59029 0.82863 0.98674 0.0
C652 C 0.58059 0.81613 0.92423 0.0
C653 C 0.57932 0.83514 0.96665 0.0
C654 C 0.60804 0.76576 0.94883 0.0
C655 C 0.60633 0.76152 0.91352 0.0
C656 C 0.60443 0.75605 0.97598 0.0
C657 C 0.60101 0.74765 0.90592 0.0
C658 C 0.59915 0.74228 0.96728 0.0
N659 N 0.59756 0.73839 0.93273 0.0
C660 C 0.62942 0.79998 0.89257 0.0
C661 C 0.62507 0.82325 0.91747 0.0
C662 C 0.63378 0.80625 0.8607 0.0
N663 N 0.62535 0.80852 0.92018 0.0
C664 C 0.62945 0.83 0.88611 0.0
C665 C 0.63407 0.82146 0.85733 0.0
H666 H 0.62959 0.7883 0.89566 0.0
H667 H 0.6219 0.82975 0.94005 0.0
C668 C 0.57566 0.78897 0.03122 0.0
N669 N 0.58245 0.78426 0.00138 0.0
C670 C 0.56066 0.78731 0.03497 0.0
C671 C 0.55992 0.77618 0.97696 0.0
C672 C 0.5749 0.77813 0.97426 0.0
C673 C 0.55263 0.78084 0.00757 0.0
H674 H 0.58188 0.79428 0.05178 0.0
H675 H 0.58038 0.77508 0.95011 0.0
O676 O 0.63874 0.7958 0.99483 0.0
O677 O 0.61461 0.78093 0.03776 0.0
O678 O 0.60713 0.80913 0.99482 0.0
O679 O 0.61337 0.7793 0.95641 0.0
H680 H 0.65687 0.78297 0.95015 0.0
H681 H 0.64338 0.82421 0.99286 0.0
H682 H 0.67467 0.79587 0.91212 0.0
H683 H 0.66158 0.83637 0.95443 0.0
H684 H 0.60055 0.77719 0.1529 0.0
H685 H 0.64072 0.78245 0.06713 0.0
H686 H 0.59501 0.77762 0.08862 0.0
H687 H 0.64547 0.78184 0.13184 0.0
H688 H 0.65588 0.82709 0.10661 0.0
H689 H 0.61116 0.82437 0.14069 0.0
H690 H 0.65541 0.7393 0.93474 0.0
H691 H 0.65174 0.73398 0.04833 0.0
H692 H 0.59618 0.79922 0.93401 0.0
H693 H 0.59393 0.83364 0.01113 0.0
H694 H 0.5767 0.81135 0.89982 0.0
H695 H 0.57445 0.84522 0.97539 0.0
H696 H 0.60908 0.7689 0.8922 0.0
H697 H 0.60566 0.75907 0.00347 0.0
H698 H 0.59962 0.74424 0.87871 0.0
H699 H 0.59631 0.73467 0.98801 0.0
H700 H 0.637 0.79924 0.83903 0.0
H701 H 0.62966 0.84175 0.88483 0.0
H702 H 0.55541 0.79111 0.05892 0.0
H703 H 0.55405 0.77149 0.95488 0.0
Li704 Li 0.71216 0.89177 0.4938 0.0
Li705 Li 0.70115 0.87176 0.52642 0.0
Li706 Li 0.72484 0.86785 0.49679 0.0
Li707 Li 0.7026 0.87022 0.46383 0.0
C708 C 0.73251 0.88713 0.54976 0.0
N709 N 0.75819 0.89805 0.57674 0.0
C710 C 0.73539 0.88622 0.58602 0.0
C711 C 0.74271 0.89354 0.52717 0.0
C712 C 0.74843 0.89182 0.59917 0.0
C713 C 0.75562 0.89901 0.54133 0.0
C714 C 0.67921 0.88842 0.50743 0.0
C715 C 0.65441 0.88267 0.52261 0.0
N716 N 0.65357 0.89517 0.54177 0.0
C717 C 0.67807 0.90127 0.52697 0.0
C718 C 0.66727 0.8791 0.50493 0.0
C719 C 0.66502 0.90447 0.54424 0.0
C720 C 0.71109 0.91921 0.46172 0.0
N721 N 0.71412 0.91225 0.49257 0.0
C722 C 0.71893 0.93483 0.52147 0.0
C723 C 0.71777 0.91973 0.52233 0.0
C724 C 0.71601 0.94233 0.48984 0.0
C725 C 0.712 0.93432 0.45969 0.0
H726 H 0.70767 0.91302 0.43889 0.0
H727 H 0.71964 0.91401 0.5469 0.0
C728 C 0.68564 0.85359 0.5732 0.0
N729 N 0.69041 0.86739 0.56797 0.0
C730 C 0.67807 0.85 0.60397 0.0
C731 C 0.68051 0.87489 0.62359 0.0
C732 C 0.68812 0.87798 0.59246 0.0
C733 C 0.67542 0.86071 0.62971 0.0
H734 H 0.68795 0.84528 0.55385 0.0
H735 H 0.69231 0.88881 0.5879 0.0
C736 C 0.72466 0.87655 0.42075 0.0
N737 N 0.73011 0.86852 0.35141 0.0
C738 C 0.73048 0.86286 0.41315 0.0
C739 C 0.7216 0.88614 0.39303 0.0
C740 C 0.73317 0.85901 0.37796 0.0
C741 C 0.72442 0.88188 0.35816 0.0
C742 C 0.70335 0.8419 0.48481 0.0
C743 C 0.71359 0.83164 0.47359 0.0
C744 C 0.68853 0.83878 0.48183 0.0
C745 C 0.7088 0.81848 0.45926 0.0
C746 C 0.68418 0.82551 0.46732 0.0
N747 N 0.69432 0.81572 0.45642 0.0
C748 C 0.74421 0.84759 0.52469 0.0
C749 C 0.75479 0.86336 0.48217 0.0
C750 C 0.75718 0.83988 0.52778 0.0
N751 N 0.74319 0.85885 0.5016 0.0
C752 C 0.76798 0.85593 0.48436 0.0
C753 C 0.76921 0.84387 0.50699 0.0
H754 H 0.73479 0.84437 0.53994 0.0
H755 H 0.75369 0.87251 0.4644 0.0
C756 C 0.68225 0.87383 0.40914 0.0
N757 N 0.69267 0.86464 0.42137 0.0
C758 C 0.67498 0.87084 0.37749 0.0
C759 C 0.68915 0.84886 0.37187 0.0
C760 C 0.69631 0.85242 0.40317 0.0
C761 C 0.67838 0.85817 0.35835 0.0
H762 H 0.67976 0.88364 0.42371 0.0
H763 H 0.70489 0.84546 0.41261 0.0
O764 O 0.71987 0.88152 0.53647 0.0
O765 O 0.69196 0.88498 0.49083 0.0
O766 O 0.72173 0.88041 0.45506 0.0
O767 O 0.70785 0.85481 0.49905 0.0
H768 H 0.72761 0.88123 0.6038 0.0
H769 H 0.74067 0.89431 0.499 0.0
H770 H 0.7508 0.89121 0.6272 0.0
H771 H 0.76361 0.90401 0.52418 0.0
H772 H 0.6451 0.87551 0.52108 0.0
H773 H 0.6872 0.90862 0.52911 0.0
H774 H 0.66793 0.86921 0.48954 0.0
H775 H 0.66401 0.91432 0.55968 0.0
H776 H 0.7221 0.94055 0.54532 0.0
H777 H 0.70929 0.93967 0.43501 0.0
H778 H 0.67469 0.83884 0.60794 0.0
H779 H 0.67868 0.8835 0.64264 0.0
H780 H 0.7326 0.85514 0.43409 0.0
H781 H 0.71704 0.89674 0.39826 0.0
H782 H 0.7376 0.84842 0.37174 0.0
H783 H 0.72208 0.8892 0.33647 0.0
H784 H 0.7251 0.83385 0.47563 0.0
H785 H 0.68047 0.84657 0.4904 0.0
H786 H 0.7166 0.81048 0.45033 0.0
H787 H 0.67275 0.82299 0.46469 0.0
H788 H 0.7576 0.83054 0.54523 0.0
H789 H 0.77706 0.85945 0.46821 0.0
H790 H 0.66699 0.87852 0.36787 0.0
H791 H 0.69205 0.83886 0.3585 0.0
Li792 Li 0.10282 0.714 0.49719 0.0
Li793 Li 0.12403 0.7053 0.53217 0.0
Li794 Li 0.12586 0.72618 0.49469 0.0
Li795 Li 0.12412 0.70262 0.46835 0.0
C796 C 0.11555 0.73599 0.5556 0.0
N797 N 0.12128 0.76129 0.59246 0.0
C798 C 0.12638 0.73623 0.58157 0.0
C799 C 0.10751 0.74856 0.54871 0.0
C800 C 0.12914 0.74914 0.59984 0.0
C801 C 0.1106 0.76126 0.56753 0.0
C802 C 0.11237 0.67906 0.50549 0.0
C803 C 0.12829 0.65843 0.51237 0.0
N804 N 0.11658 0.64942 0.51128 0.0
C805 C 0.10049 0.66961 0.50443 0.0
C806 C 0.12638 0.67345 0.50949 0.0
C807 C 0.10284 0.65466 0.50741 0.0
C808 C 0.07496 0.71313 0.46674 0.0
N809 N 0.08247 0.71539 0.4972 0.0
C810 C 0.06055 0.71931 0.52948 0.0
C811 C 0.07567 0.71844 0.52822 0.0
C812 C 0.05242 0.71708 0.49841 0.0
C813 C 0.05983 0.71403 0.46668 0.0
H814 H 0.08075 0.71069 0.4425 0.0
H815 H 0.082 0.72007 0.55204 0.0
C816 C 0.14315 0.69198 0.58029 0.0
N817 N 0.12937 0.69693 0.57579 0.0
C818 C 0.14745 0.68627 0.61284 0.0
C819 C 0.12329 0.69091 0.63548 0.0
C820 C 0.11943 0.69646 0.60237 0.0
C821 C 0.1375 0.6858 0.64108 0.0
H822 H 0.15079 0.6925 0.5586 0.0
H823 H 0.10858 0.70061 0.59793 0.0
C824 C 0.10818 0.73097 0.43268 0.0
N825 N 0.09749 0.75231 0.38822 0.0
C826 C 0.11321 0.73203 0.39783 0.0
C827 C 0.09761 0.74069 0.4448 0.0
C828 C 0.10771 0.74292 0.37581 0.0
C829 C 0.09236 0.75142 0.42195 0.0
C830 C 0.15207 0.71263 0.47877 0.0
C831 C 0.15058 0.71902 0.44537 0.0
C832 C 0.16592 0.70911 0.49132 0.0
C833 C 0.16297 0.72173 0.42502 0.0
C834 C 0.17805 0.71199 0.47018 0.0
N835 N 0.17633 0.71818 0.43773 0.0
C836 C 0.14744 0.74533 0.51446 0.0
C837 C 0.13183 0.75594 0.47178 0.0
C838 C 0.15591 0.75785 0.51556 0.0
N839 N 0.13568 0.74454 0.49276 0.0
C840 C 0.14006 0.7687 0.47193 0.0
C841 C 0.15231 0.76972 0.49396 0.0
H842 H 0.15031 0.73612 0.53081 0.0
H843 H 0.12252 0.75521 0.45469 0.0
C844 C 0.12093 0.6904 0.40096 0.0
N845 N 0.12969 0.69064 0.42991 0.0
C846 C 0.12503 0.6826 0.37086 0.0
C847 C 0.14693 0.67518 0.40137 0.0
C848 C 0.14238 0.68308 0.43087 0.0
C849 C 0.1383 0.67505 0.37068 0.0
H850 H 0.1109 0.69654 0.40101 0.0
H851 H 0.14913 0.68341 0.45429 0.0
O852 O 0.11291 0.72353 0.53689 0.0
O853 O 0.11021 0.69371 0.50256 0.0
O854 O 0.11328 0.72018 0.45428 0.0
O855 O 0.14011 0.70988 0.49936 0.0
H856 H 0.13275 0.72662 0.58718 0.0
H857 H 0.09899 0.74853 0.52898 0.0
H858 H 0.13757 0.74952 0.61978 0.0
H859 H 0.10452 0.77109 0.56232 0.0
H860 H 0.13908 0.65395 0.51545 0.0
H861 H 0.08956 0.67381 0.50132 0.0
H862 H 0.13569 0.6806 0.51025 0.0
H863 H 0.09374 0.64721 0.50663 0.0
H864 H 0.05529 0.72143 0.55462 0.0
H865 H 0.05402 0.71243 0.44204 0.0
H866 H 0.15844 0.68223 0.6158 0.0
H867 H 0.11533 0.6909 0.65663 0.0
H868 H 0.12127 0.72449 0.38785 0.0
H869 H 0.09358 0.74006 0.47161 0.0
H870 H 0.11155 0.74389 0.34881 0.0
H871 H 0.08422 0.75904 0.43104 0.0
H872 H 0.14002 0.72189 0.43521 0.0
H873 H 0.1673 0.70422 0.51717 0.0
H874 H 0.16195 0.72666 0.39912 0.0
H875 H 0.18883 0.70931 0.47958 0.0
H876 H 0.16541 0.75807 0.53249 0.0
H877 H 0.13689 0.77765 0.45499 0.0
H878 H 0.11815 0.6829 0.34759 0.0
H879 H 0.15716 0.66937 0.40241 0.0
Li880 Li 0.2944 0.12333 0.53195 0.0
Li881 Li 0.28476 0.10282 0.50127 0.0
Li882 Li 0.29406 0.1232 0.46838 0.0
Li883 Li 0.27165 0.12516 0.50062 0.0
C884 C 0.31395 0.10071 0.5182 0.0
N885 N 0.33173 0.08182 0.55506 0.0
C886 C 0.31028 0.0964 0.55257 0.0
C887 C 0.32667 0.09543 0.5026 0.0
C888 C 0.31941 0.08684 0.57076 0.0
C889 C 0.33552 0.08588 0.52166 0.0
C890 C 0.26359 0.10613 0.55317 0.0
C891 C 0.24177 0.09264 0.53997 0.0
N892 N 0.23845 0.09235 0.57507 0.0
C893 C 0.25997 0.10569 0.5891 0.0
C894 C 0.25442 0.09954 0.52836 0.0
C895 C 0.24721 0.09868 0.59966 0.0
C896 C 0.2956 0.13399 0.60056 0.0
N897 N 0.30419 0.1299 0.57307 0.0
C898 C 0.32561 0.13529 0.60631 0.0
C899 C 0.31894 0.13048 0.57522 0.0
C900 C 0.31699 0.13947 0.63531 0.0
C901 C 0.3018 0.13881 0.63212 0.0
H902 H 0.28391 0.13351 0.59786 0.0
H903 H 0.32551 0.12715 0.5529 0.0
C904 C 0.28312 0.07529 0.47005 0.0
N905 N 0.28315 0.08235 0.50164 0.0
C906 C 0.28214 0.06016 0.46904 0.0
C907 C 0.28131 0.05994 0.53311 0.0
C908 C 0.2822 0.07506 0.53287 0.0
C909 C 0.28132 0.05233 0.5009 0.0
H910 H 0.28396 0.08142 0.4457 0.0
H911 H 0.28217 0.08096 0.55762 0.0
C912 C 0.29798 0.15018 0.50107 0.0
N913 N 0.31822 0.17236 0.50287 0.0
C914 C 0.29351 0.16453 0.50634 0.0
C915 C 0.31276 0.14711 0.4967 0.0
C916 C 0.3039 0.17559 0.50717 0.0
C917 C 0.32282 0.15847 0.4977 0.0
C918 C 0.26943 0.11743 0.42928 0.0
C919 C 0.26761 0.13237 0.42418 0.0
C920 C 0.26479 0.10774 0.40312 0.0
C921 C 0.26119 0.13737 0.39294 0.0
C922 C 0.25842 0.11316 0.37223 0.0
N923 N 0.25677 0.12774 0.36782 0.0
C924 C 0.31201 0.11861 0.40907 0.0
C925 C 0.30183 0.14224 0.41258 0.0
C926 C 0.31865 0.122 0.37683 0.0
N927 N 0.30376 0.12869 0.42607 0.0
C928 C 0.30822 0.14609 0.38048 0.0
C929 C 0.31666 0.13587 0.36201 0.0
H930 H 0.31323 0.10787 0.42034 0.0
H931 H 0.29515 0.15004 0.4265 0.0
C932 C 0.25222 0.14619 0.52301 0.0
N933 N 0.25316 0.13415 0.50234 0.0
C934 C 0.23939 0.15421 0.52411 0.0
C935 C 0.2286 0.1371 0.48317 0.0
C936 C 0.24161 0.1293 0.48317 0.0
C937 C 0.22747 0.14982 0.50352 0.0
H938 H 0.2616 0.14971 0.53803 0.0
H939 H 0.24261 0.11959 0.46723 0.0
O940 O 0.30519 0.11002 0.49964 0.0
O941 O 0.27607 0.11298 0.54264 0.0
O942 O 0.28787 0.13928 0.50038 0.0
O943 O 0.27577 0.1122 0.45951 0.0
H944 H 0.3005 0.10037 0.56514 0.0
H945 H 0.32966 0.09867 0.47601 0.0
H946 H 0.31669 0.0834 0.59736 0.0
H947 H 0.34539 0.08171 0.50989 0.0
H948 H 0.23458 0.0875 0.52105 0.0
H949 H 0.26697 0.11071 0.60865 0.0
H950 H 0.25704 0.09968 0.50046 0.0
H951 H 0.24428 0.09826 0.6274 0.0
H952 H 0.33736 0.13554 0.60781 0.0
H953 H 0.29477 0.14216 0.65365 0.0
H954 H 0.28232 0.05464 0.4437 0.0
H955 H 0.28055 0.05427 0.5582 0.0
H956 H 0.2821 0.16709 0.50975 0.0
H957 H 0.31645 0.13609 0.49251 0.0
H958 H 0.30059 0.18675 0.51123 0.0
H959 H 0.33428 0.15624 0.49436 0.0
H960 H 0.27106 0.14006 0.44412 0.0
H961 H 0.26611 0.09614 0.40665 0.0
H962 H 0.25972 0.1489 0.38868 0.0
H963 H 0.25479 0.10578 0.35176 0.0
H964 H 0.32499 0.11379 0.36327 0.0
H965 H 0.30659 0.15696 0.37024 0.0
H966 H 0.23899 0.16406 0.53982 0.0
H967 H 0.21958 0.13334 0.46716 0.0
Li968 Li 0.8732 0.2937 0.52867 0.0
Li969 Li 0.89325 0.2828 0.49549 0.0
Li970 Li 0.87285 0.29313 0.46422 0.0
Li971 Li 0.87083 0.27069 0.49876 0.0
C972 C 0.89667 0.3121 0.51234 0.0
N973 N 0.91681 0.32916 0.54741 0.0
C974 C 0.9031 0.30716 0.5437 0.0
C975 C 0.90051 0.32572 0.49886 0.0
C976 C 0.91325 0.31594 0.561 0.0
C977 C 0.91069 0.33419 0.51699 0.0
C978 C 0.88366 0.26276 0.5577 0.0
C979 C 0.8895 0.23727 0.56257 0.0
N980 N 0.88256 0.23676 0.59436 0.0
C981 C 0.87678 0.26203 0.59068 0.0
C982 C 0.89024 0.25032 0.54378 0.0
C983 C 0.87627 0.24878 0.60871 0.0
C984 C 0.85639 0.29681 0.58862 0.0
N985 N 0.86644 0.30408 0.5691 0.0
C986 C 0.86545 0.32428 0.60885 0.0
C987 C 0.87075 0.31774 0.57804 0.0
C988 C 0.85556 0.31671 0.63036 0.0
C989 C 0.85087 0.30288 0.61964 0.0
H990 H 0.85271 0.28621 0.58005 0.0
H991 H 0.87827 0.32361 0.56145 0.0
C992 C 0.9212 0.287 0.46703 0.0
N993 N 0.91374 0.28085 0.49427 0.0
C994 C 0.93631 0.28614 0.46591 0.0
C995 C 0.93583 0.27336 0.52192 0.0
C996 C 0.9207 0.27418 0.52156 0.0
C997 C 0.94374 0.27933 0.49374 0.0
H998 H 0.91541 0.29275 0.44645 0.0
H999 H 0.91453 0.26979 0.54342 0.0
C1000 C 0.84641 0.2976 0.49762 0.0
N1001 N 0.82462 0.31826 0.49754 0.0
C1002 C 0.83185 0.29334 0.49957 0.0
C1003 C 0.84989 0.31237 0.49572 0.0
C1004 C 0.82099 0.30395 0.49947 0.0
C1005 C 0.83872 0.32265 0.49569 0.0
C1006 C 0.89272 0.27017 0.43152 0.0
C1007 C 0.89547 0.27889 0.40192 0.0
C1008 C 0.90077 0.25744 0.43646 0.0
C1009 C 0.90643 0.2749 0.37821 0.0
C1010 C 0.91166 0.25383 0.4122 0.0
N1011 N 0.91425 0.26257 0.38383 0.0
C1012 C 0.87379 0.31476 0.41111 0.0
C1013 C 0.85422 0.29807 0.40684 0.0
C1014 C 0.86918 0.32189 0.38046 0.0
N1015 N 0.86632 0.30307 0.42343 0.0
C1016 C 0.84917 0.30491 0.37625 0.0
C1017 C 0.85673 0.31695 0.36261 0.0
H1018 H 0.88343 0.31841 0.42483 0.0
H1019 H 0.84856 0.28869 0.41729 0.0
C1020 C 0.85055 0.25143 0.52674 0.0
N1021 N 0.86104 0.25269 0.50161 0.0
C1022 C 0.8426 0.2386 0.52972 0.0
C1023 C 0.85645 0.2286 0.48099 0.0
C1024 C 0.86418 0.24164 0.479 0.0
C1025 C 0.84542 0.22702 0.50644 0.0
H1026 H 0.84828 0.26048 0.54416 0.0
H1027 H 0.87255 0.24301 0.45919 0.0
O1028 O 0.88688 0.30364 0.49442 0.0
O1029 O 0.884 0.27557 0.53919 0.0
O1030 O 0.85712 0.28729 0.49785 0.0
O1031 O 0.88208 0.27397 0.45518 0.0
H1032 H 0.90029 0.29671 0.55475 0.0
H1033 H 0.89566 0.32974 0.47466 0.0
H1034 H 0.9183 0.31224 0.58527 0.0
H1035 H 0.91375 0.34475 0.50684 0.0
H1036 H 0.89443 0.22754 0.55188 0.0
H1037 H 0.87196 0.27158 0.60241 0.0
H1038 H 0.89579 0.25074 0.51863 0.0
H1039 H 0.87091 0.24805 0.63416 0.0
H1040 H 0.86926 0.33502 0.6161 0.0
H1041 H 0.84296 0.29685 0.63499 0.0
H1042 H 0.94217 0.29109 0.44412 0.0
H1043 H 0.9413 0.26814 0.54393 0.0
H1044 H 0.829 0.28194 0.50115 0.0
H1045 H 0.86109 0.31589 0.49431 0.0
H1046 H 0.80968 0.30081 0.50094 0.0
H1047 H 0.84126 0.33411 0.49421 0.0
H1048 H 0.88932 0.2887 0.39736 0.0
H1049 H 0.89869 0.25041 0.45878 0.0
H1050 H 0.90873 0.28161 0.35536 0.0
H1051 H 0.91803 0.24407 0.41589 0.0
H1052 H 0.87525 0.33119 0.37091 0.0
H1053 H 0.83963 0.30065 0.36302 0.0
H1054 H 0.83401 0.23794 0.54931 0.0
H1055 H 0.85901 0.2199 0.46268 0.0
Li1056 Li 0.72303 0.12546 0.50364 0.0
Li1057 Li 0.69982 0.12109 0.52799 0.0
Li1058 Li 0.71206 0.10224 0.49573 0.0
Li1059 Li 0.70116 0.12343 0.46394 0.0
C1060 C 0.73035 0.11309 0.56078 0.0
N1061 N 0.7555 0.11793 0.59913 0.0
C1062 C 0.7304 0.12306 0.58877 0.0
C1063 C 0.74311 0.1056 0.55235 0.0
C1064 C 0.74321 0.12533 0.60785 0.0
C1065 C 0.7557 0.1082 0.57201 0.0
C1066 C 0.69752 0.1495 0.51329 0.0
C1067 C 0.67807 0.16688 0.50678 0.0
N1068 N 0.6807 0.17184 0.54011 0.0
C1069 C 0.70009 0.15483 0.54742 0.0
C1070 C 0.68645 0.1556 0.49273 0.0
C1071 C 0.69144 0.1661 0.56053 0.0
C1072 C 0.75239 0.13242 0.48712 0.0
N1073 N 0.74084 0.13592 0.50791 0.0
C1074 C 0.7539 0.15575 0.53334 0.0
C1075 C 0.7414 0.14729 0.53081 0.0
C1076 C 0.76591 0.15263 0.51167 0.0
C1077 C 0.76514 0.14065 0.48865 0.0
H1078 H 0.75161 0.12348 0.46873 0.0
H1079 H 0.73209 0.14988 0.54693 0.0
C1080 C 0.69124 0.1189 0.59931 0.0
N1081 N 0.68711 0.12431 0.56738 0.0
C1082 C 0.68321 0.12205 0.62967 0.0
C1083 C 0.6661 0.13526 0.59332 0.0
C1084 C 0.6745 0.13188 0.56367 0.0
C1085 C 0.67065 0.13067 0.62704 0.0
H1086 H 0.70097 0.11239 0.60137 0.0
H1087 H 0.67115 0.13563 0.53781 0.0
C1088 C 0.72633 0.10478 0.4348 0.0
N1089 N 0.73675 0.08422 0.3878 0.0
C1090 C 0.7193 0.10249 0.40243 0.0
C1091 C 0.73872 0.09667 0.44311 0.0
C1092 C 0.72473 0.09204 0.37906 0.0
C1093 C 0.74379 0.08631 0.41906 0.0
C1094 C 0.67968 0.10227 0.50831 0.0
C1095 C 0.68173 0.09128 0.53338 0.0
C1096 C 0.66571 0.10766 0.50211 0.0
C1097 C 0.66973 0.08583 0.55179 0.0
C1098 C 0.65399 0.10193 0.52107 0.0
N1099 N 0.65623 0.09122 0.54531 0.0
C1100 C 0.72105 0.07435 0.5184 0.0
C1101 C 0.7091 0.07505 0.46279 0.0
C1102 C 0.72229 0.05926 0.51636 0.0
N1103 N 0.71463 0.08188 0.49171 0.0
C1104 C 0.71024 0.06001 0.45945 0.0
C1105 C 0.71682 0.05189 0.48659 0.0
H1106 H 0.72484 0.07999 0.54172 0.0
H1107 H 0.70367 0.0813 0.44247 0.0
C1108 C 0.70056 0.13973 0.40203 0.0
N1109 N 0.69274 0.13004 0.42138 0.0
C1110 C 0.69524 0.14477 0.3697 0.0
C1111 C 0.6738 0.12992 0.37817 0.0
C1112 C 0.67964 0.12501 0.41014 0.0
C1113 C 0.68169 0.13986 0.35751 0.0
H1114 H 0.71099 0.14343 0.41169 0.0
H1115 H 0.67383 0.11708 0.42575 0.0
O1116 O 0.71799 0.11093 0.54125 0.0
O1117 O 0.70587 0.13847 0.49984 0.0
O1118 O 0.72108 0.11487 0.45822 0.0
O1119 O 0.69135 0.10798 0.49068 0.0
H1120 H 0.72075 0.12919 0.59533 0.0
H1121 H 0.74335 0.09796 0.53063 0.0
H1122 H 0.74341 0.13307 0.62942 0.0
H1123 H 0.76566 0.10252 0.56564 0.0
H1124 H 0.66945 0.17167 0.49119 0.0
H1125 H 0.70836 0.15007 0.56405 0.0
H1126 H 0.68431 0.15167 0.46627 0.0
H1127 H 0.6932 0.17021 0.58704 0.0
H1128 H 0.75411 0.16476 0.5518 0.0
H1129 H 0.77408 0.13798 0.47116 0.0
H1130 H 0.68716 0.11828 0.65508 0.0
H1131 H 0.6563 0.14164 0.58997 0.0
H1132 H 0.70969 0.1086 0.39548 0.0
H1133 H 0.74428 0.09824 0.46802 0.0
H1134 H 0.71936 0.09011 0.354 0.0
H1135 H 0.75331 0.0799 0.42529 0.0
H1136 H 0.69248 0.08714 0.53898 0.0
H1137 H 0.66394 0.11637 0.48337 0.0
H1138 H 0.67117 0.07736 0.57135 0.0
H1139 H 0.64313 0.10605 0.51667 0.0
H1140 H 0.7271 0.05342 0.53833 0.0
H1141 H 0.70594 0.0548 0.43595 0.0
H1142 H 0.70157 0.1525 0.35453 0.0
H1143 H 0.66339 0.1258 0.36935 0.0
Li1144 Li 0.86956 0.72087 0.50906 0.0
Li1145 Li 0.87321 0.698 0.5413 0.0
Li1146 Li 0.8927 0.70903 0.5078 0.0
Li1147 Li 0.87273 0.69844 0.47797 0.0
C1148 C 0.87752 0.72291 0.58086 0.0
N1149 N 0.86684 0.73438 0.64335 0.0
C1150 C 0.86253 0.72367 0.58669 0.0
C1151 C 0.88707 0.72801 0.60683 0.0
C1152 C 0.85735 0.7295 0.61845 0.0
C1153 C 0.88147 0.73377 0.63824 0.0
C1154 C 0.84595 0.69418 0.50156 0.0
C1155 C 0.83669 0.6697 0.49738 0.0
N1156 N 0.82466 0.67482 0.48056 0.0
C1157 C 0.83349 0.69919 0.4843 0.0
C1158 C 0.84757 0.67931 0.5082 0.0
C1159 C 0.82285 0.68923 0.47387 0.0
C1160 C 0.84887 0.73997 0.48322 0.0
N1161 N 0.85971 0.73897 0.50746 0.0
C1162 C 0.85505 0.76313 0.52766 0.0
C1163 C 0.8632 0.75035 0.52885 0.0
C1164 C 0.84332 0.76421 0.50397 0.0
C1165 C 0.84046 0.75253 0.48105 0.0
H1166 H 0.84673 0.73093 0.46568 0.0
H1167 H 0.87218 0.74945 0.54718 0.0
C1168 C 0.87879 0.6799 0.59999 0.0
N1169 N 0.86835 0.68759 0.5828 0.0
C1170 C 0.87545 0.67251 0.63129 0.0
C1171 C 0.85069 0.68114 0.62631 0.0
C1172 C 0.8545 0.6883 0.59516 0.0
C1173 C 0.86123 0.67312 0.64487 0.0
H1174 H 0.88972 0.67959 0.58946 0.0
H1175 H 0.84644 0.69457 0.58102 0.0
C1176 C 0.88797 0.7302 0.45679 0.0
N1177 N 0.90019 0.75624 0.43572 0.0
C1178 C 0.88829 0.73397 0.42095 0.0
C1179 C 0.89386 0.73968 0.48195 0.0
C1180 C 0.89452 0.74718 0.41082 0.0
C1181 C 0.89999 0.75278 0.47076 0.0
C1182 C 0.89668 0.68016 0.48989 0.0
C1183 C 0.90044 0.68418 0.45536 0.0
C1184 C 0.90311 0.66792 0.50519 0.0
C1185 C 0.91059 0.67588 0.43671 0.0
C1186 C 0.91322 0.6599 0.48568 0.0
N1187 N 0.91672 0.66401 0.45213 0.0
C1188 C 0.92015 0.71241 0.53854 0.0
C1189 C 0.92016 0.71329 0.47576 0.0
C1190 C 0.9352 0.71421 0.5393 0.0
N1191 N 0.91301 0.71194 0.50709 0.0
C1192 C 0.9352 0.71497 0.47524 0.0
C1193 C 0.94294 0.71541 0.50731 0.0
H1194 H 0.91414 0.71129 0.56301 0.0
H1195 H 0.9142 0.71288 0.4511 0.0
C1196 C 0.85973 0.69681 0.41194 0.0
N1197 N 0.86608 0.68845 0.43723 0.0
C1198 C 0.85406 0.69043 0.38148 0.0
C1199 C 0.86168 0.66694 0.40353 0.0
C1200 C 0.86707 0.67377 0.43382 0.0
C1201 C 0.85503 0.67532 0.37701 0.0
H1202 H 0.859 0.70845 0.41568 0.0
H1203 H 0.87192 0.66737 0.45471 0.0
O1204 O 0.88293 0.71713 0.55016 0.0
O1205 O 0.85672 0.70368 0.51102 0.0
O1206 O 0.88185 0.71728 0.46687 0.0
O1207 O 0.88685 0.68814 0.50893 0.0
H1208 H 0.85494 0.71989 0.5669 0.0
H1209 H 0.89871 0.72751 0.60275 0.0
H1210 H 0.84578 0.73015 0.62327 0.0
H1211 H 0.88874 0.73774 0.65856 0.0
H1212 H 0.83785 0.65817 0.50217 0.0
H1213 H 0.83202 0.71064 0.47895 0.0
H1214 H 0.85725 0.6752 0.52101 0.0
H1215 H 0.81316 0.69296 0.46042 0.0
H1216 H 0.85763 0.77189 0.54576 0.0
H1217 H 0.83176 0.75306 0.46178 0.0
H1218 H 0.88386 0.66637 0.64462 0.0
H1219 H 0.83968 0.68214 0.63614 0.0
H1220 H 0.88377 0.72675 0.40116 0.0
H1221 H 0.89375 0.73697 0.5098 0.0
H1222 H 0.89485 0.75024 0.38315 0.0
H1223 H 0.90459 0.76021 0.48993 0.0
H1224 H 0.89559 0.69361 0.44304 0.0
H1225 H 0.90033 0.66467 0.53192 0.0
H1226 H 0.91359 0.67888 0.40999 0.0
H1227 H 0.91829 0.6504 0.49721 0.0
H1228 H 0.9407 0.71469 0.56464 0.0
H1229 H 0.94072 0.71562 0.44995 0.0
H1230 H 0.84909 0.69725 0.36145 0.0
H1231 H 0.86247 0.65523 0.40111 0.0
Li1232 Li 0.276 0.86941 0.50033 0.0
Li1233 Li 0.29854 0.87341 0.53378 0.0
Li1234 Li 0.28761 0.89273 0.49941 0.0
Li1235 Li 0.29858 0.8728 0.47044 0.0
C1236 C 0.27323 0.87767 0.57192 0.0
N1237 N 0.26141 0.86724 0.63427 0.0
C1238 C 0.27261 0.8627 0.57826 0.0
C1239 C 0.26783 0.88731 0.59731 0.0
C1240 C 0.2666 0.85765 0.60993 0.0
C1241 C 0.2619 0.88183 0.62865 0.0
C1242 C 0.30307 0.84626 0.49366 0.0
C1243 C 0.32772 0.83744 0.49007 0.0
N1244 N 0.32296 0.82558 0.47194 0.0
C1245 C 0.29842 0.83397 0.47508 0.0
C1246 C 0.31784 0.84801 0.50128 0.0
C1247 C 0.30865 0.82365 0.4643 0.0
C1248 C 0.2573 0.84867 0.47319 0.0
N1249 N 0.25802 0.85941 0.49778 0.0
C1250 C 0.23366 0.85461 0.51633 0.0
C1251 C 0.24642 0.86277 0.51858 0.0
C1252 C 0.23284 0.84302 0.49219 0.0
C1253 C 0.24478 0.84026 0.46999 0.0
H1254 H 0.26651 0.84665 0.45611 0.0
H1255 H 0.24709 0.87167 0.53717 0.0
C1256 C 0.31513 0.87963 0.59469 0.0
N1257 N 0.30841 0.86887 0.57625 0.0
C1258 C 0.32175 0.87658 0.62717 0.0
C1259 C 0.31442 0.85147 0.6207 0.0
C1260 C 0.30801 0.85499 0.58841 0.0
C1261 C 0.3213 0.86236 0.64068 0.0
H1262 H 0.31514 0.8906 0.58439 0.0
H1263 H 0.30253 0.84667 0.57321 0.0
C1264 C 0.26685 0.88766 0.44766 0.0
N1265 N 0.2408 0.89949 0.4254 0.0
C1266 C 0.26328 0.8878 0.41168 0.0
C1267 C 0.25715 0.89354 0.47234 0.0
C1268 C 0.25007 0.89383 0.40095 0.0
C1269 C 0.24404 0.89947 0.46055 0.0
C1270 C 0.31659 0.89689 0.48283 0.0
C1271 C 0.31269 0.90067 0.44824 0.0
C1272 C 0.32875 0.90334 0.49846 0.0
C1273 C 0.32105 0.91085 0.42983 0.0
C1274 C 0.33683 0.91348 0.47917 0.0
N1275 N 0.33284 0.917 0.44555 0.0
C1276 C 0.28448 0.92028 0.52965 0.0
C1277 C 0.28321 0.92007 0.46686 0.0
C1278 C 0.28295 0.93537 0.53013 0.0
N1279 N 0.28465 0.91302 0.49832 0.0
C1280 C 0.28176 0.93514 0.46609 0.0
C1281 C 0.28172 0.94296 0.49801 0.0
H1282 H 0.28576 0.91435 0.55419 0.0
H1283 H 0.28338 0.91402 0.44233 0.0
C1284 C 0.30041 0.86036 0.40404 0.0
N1285 N 0.30878 0.86635 0.42978 0.0
C1286 C 0.30676 0.85511 0.37309 0.0
C1287 C 0.33028 0.86228 0.39577 0.0
C1288 C 0.32346 0.86731 0.42647 0.0
C1289 C 0.32188 0.85612 0.36851 0.0
H1290 H 0.28877 0.85957 0.40777 0.0
H1291 H 0.32986 0.87197 0.44764 0.0
O1292 O 0.27924 0.88296 0.54136 0.0
O1293 O 0.29332 0.85674 0.50352 0.0
O1294 O 0.27975 0.8817 0.45834 0.0
O1295 O 0.30854 0.88706 0.50168 0.0
H1296 H 0.27666 0.85504 0.55893 0.0
H1297 H 0.26824 0.89893 0.59284 0.0
H1298 H 0.26606 0.8461 0.61515 0.0
H1299 H 0.25768 0.88918 0.64853 0.0
H1300 H 0.33919 0.8387 0.4956 0.0
H1301 H 0.28705 0.8324 0.46897 0.0
H1302 H 0.32168 0.85756 0.51515 0.0
H1303 H 0.3052 0.8141 0.44983 0.0
H1304 H 0.2247 0.8571 0.53391 0.0
H1305 H 0.24446 0.83165 0.45042 0.0
H1306 H 0.32684 0.8853 0.64192 0.0
H1307 H 0.31402 0.84033 0.62993 0.0
H1308 H 0.27067 0.88327 0.39226 0.0
H1309 H 0.25968 0.89357 0.50029 0.0
H1310 H 0.24717 0.89401 0.37317 0.0
H1311 H 0.23644 0.90405 0.47936 0.0
H1312 H 0.30332 0.89581 0.43568 0.0
H1313 H 0.33189 0.90056 0.52525 0.0
H1314 H 0.31814 0.91387 0.40306 0.0
H1315 H 0.34627 0.91857 0.49095 0.0
H1316 H 0.28312 0.94106 0.55525 0.0
H1317 H 0.28071 0.94062 0.44082 0.0
H1318 H 0.29989 0.85015 0.35316 0.0
H1319 H 0.34196 0.86334 0.39327 0.0
Li1320 Li 0.12445 0.29514 0.5279 0.0
Li1321 Li 0.12631 0.27266 0.49659 0.0
Li1322 Li 0.12454 0.29475 0.46335 0.0
Li1323 Li 0.10319 0.28489 0.49646 0.0
C1324 C 0.15267 0.28635 0.51477 0.0
N1325 N 0.17754 0.28094 0.55364 0.0
C1326 C 0.15199 0.27784 0.54539 0.0
C1327 C 0.166 0.29212 0.50393 0.0
C1328 C 0.16468 0.27522 0.56467 0.0
C1329 C 0.17845 0.28927 0.52394 0.0
C1330 C 0.1094 0.2658 0.55885 0.0
C1331 C 0.09409 0.24499 0.57 0.0
N1332 N 0.10057 0.2432 0.60208 0.0
C1333 C 0.11582 0.26381 0.59208 0.0
C1334 C 0.09838 0.25636 0.5478 0.0
C1335 C 0.11125 0.25229 0.61347 0.0
C1336 C 0.12146 0.30381 0.59833 0.0
N1337 N 0.12988 0.30555 0.56907 0.0
C1338 C 0.14634 0.32076 0.60095 0.0
C1339 C 0.14204 0.31394 0.56963 0.0
C1340 C 0.13809 0.3188 0.63189 0.0
C1341 C 0.12542 0.31032 0.63027 0.0
H1342 H 0.11179 0.29716 0.59695 0.0
H1343 H 0.14855 0.31513 0.54597 0.0
C1344 C 0.14812 0.25417 0.47356 0.0
N1345 N 0.13623 0.25433 0.49495 0.0
C1346 C 0.15682 0.24182 0.47128 0.0
C1347 C 0.14083 0.22982 0.51277 0.0
C1348 C 0.13236 0.2424 0.514 0.0
C1349 C 0.15336 0.22949 0.49154 0.0
H1350 H 0.15094 0.26377 0.45849 0.0
H1351 H 0.12291 0.24258 0.5307 0.0
C1352 C 0.11333 0.31998 0.49626 0.0
N1353 N 0.11849 0.34955 0.49839 0.0
C1354 C 0.10192 0.32964 0.5028 0.0
C1355 C 0.12737 0.32536 0.4908 0.0
C1356 C 0.10475 0.34455 0.50377 0.0
C1357 C 0.12975 0.34034 0.49198 0.0
C1358 C 0.11509 0.26429 0.43572 0.0
C1359 C 0.12567 0.26357 0.4092 0.0
C1360 C 0.10636 0.25219 0.44258 0.0
C1361 C 0.12753 0.25062 0.39041 0.0
C1362 C 0.10856 0.23943 0.42322 0.0
N1363 N 0.11902 0.23891 0.39779 0.0
C1364 C 0.14395 0.30208 0.4094 0.0
C1365 C 0.12069 0.31295 0.40376 0.0
C1366 C 0.1485 0.30842 0.37774 0.0
N1367 N 0.13025 0.30438 0.42152 0.0
C1368 C 0.12481 0.31959 0.37203 0.0
C1369 C 0.13884 0.31723 0.35852 0.0
H1370 H 0.15126 0.29514 0.42412 0.0
H1371 H 0.10982 0.31449 0.41408 0.0
C1372 C 0.07536 0.28319 0.52719 0.0
N1373 N 0.08283 0.28355 0.49613 0.0
C1374 C 0.06025 0.28206 0.52697 0.0
C1375 C 0.06083 0.28239 0.46284 0.0
C1376 C 0.07595 0.28321 0.4643 0.0
C1377 C 0.05287 0.28171 0.49448 0.0
H1378 H 0.08116 0.28371 0.55207 0.0
H1379 H 0.08224 0.28363 0.4401 0.0
O1380 O 0.14039 0.28914 0.49547 0.0
O1381 O 0.11359 0.27719 0.53784 0.0
O1382 O 0.11071 0.30536 0.49536 0.0
O1383 O 0.11335 0.27676 0.45497 0.0
H1384 H 0.14181 0.27327 0.55409 0.0
H1385 H 0.1667 0.29879 0.48036 0.0
H1386 H 0.1643 0.26863 0.58839 0.0
H1387 H 0.18883 0.29368 0.51587 0.0
H1388 H 0.08562 0.23758 0.56169 0.0
H1389 H 0.12423 0.2711 0.60134 0.0
H1390 H 0.09326 0.25771 0.52229 0.0
H1391 H 0.11616 0.25061 0.63918 0.0
H1392 H 0.15625 0.32712 0.60124 0.0
H1393 H 0.1187 0.30868 0.6535 0.0
H1394 H 0.16623 0.24197 0.45404 0.0
H1395 H 0.13782 0.22063 0.52912 0.0
H1396 H 0.09099 0.32563 0.50711 0.0
H1397 H 0.13634 0.31805 0.48579 0.0
H1398 H 0.09602 0.35216 0.50882 0.0
H1399 H 0.14056 0.34465 0.48784 0.0
H1400 H 0.13249 0.27284 0.40349 0.0
H1401 H 0.098 0.25262 0.46266 0.0
H1402 H 0.13576 0.24986 0.37002 0.0
H1403 H 0.10194 0.22995 0.42841 0.0
H1404 H 0.15947 0.30648 0.36843 0.0
H1405 H 0.11701 0.32622 0.35784 0.0
H1406 H 0.05437 0.28171 0.55182 0.0
H1407 H 0.05541 0.28214 0.43737 0.0
C1408 C 0.20298 0.52822 0.98924 0.0
C1409 C 0.21533 0.53705 0.98598 0.0
C1410 C 0.2041 0.51305 0.98795 0.0
C1411 C 0.21792 0.50656 0.98348 0.0
C1412 C 0.23043 0.51538 0.97998 0.0
C1413 C 0.22899 0.53055 0.98122 0.0
C1414 C 0.19051 0.50397 0.99181 0.0
C1415 C 0.24534 0.5088 0.97519 0.0
C1416 C 0.22112 0.46773 0.01567 0.0
C1417 C 0.2194 0.4599 0.98407 0.0
C1418 C 0.22109 0.48295 0.0157 0.0
C1419 C 0.21923 0.4905 0.98336 0.0
C1420 C 0.21785 0.48268 0.95126 0.0
C1421 C 0.21796 0.46745 0.952 0.0
C1422 C 0.22258 0.49094 0.05047 0.0
C1423 C 0.21589 0.4904 0.91627 0.0
H1424 H 0.19243 0.53318 0.99344 0.0
H1425 H 0.23854 0.53733 0.97823 0.0
H1426 H 0.18929 0.49666 0.96862 0.0
H1427 H 0.19136 0.49699 0.01569 0.0
H1428 H 0.18055 0.51074 0.99414 0.0
H1429 H 0.25394 0.51719 0.97226 0.0
H1430 H 0.24802 0.50186 0.99832 0.0
H1431 H 0.24547 0.50171 0.95142 0.0
H1432 H 0.22206 0.46194 0.04059 0.0
H1433 H 0.21683 0.46142 0.92746 0.0
H1434 H 0.21242 0.49701 0.05618 0.0
H1435 H 0.23151 0.49902 0.04884 0.0
H1436 H 0.2248 0.48347 0.07295 0.0
H1437 H 0.20551 0.49654 0.91647 0.0
H1438 H 0.21576 0.48274 0.89351 0.0
H1439 H 0.22476 0.49839 0.91219 0.0
C1440 C 0.46792 0.20558 0.02484 0.0
C1441 C 0.46001 0.21578 0.00509 0.0
C1442 C 0.48314 0.20573 0.0249 0.0
C1443 C 0.4906 0.21636 0.00478 0.0
C1444 C 0.48269 0.22687 0.98538 0.0
C1445 C 0.46746 0.22643 0.98571 0.0
C1446 C 0.49125 0.19431 0.04577 0.0
C1447 C 0.4903 0.23841 0.96383 0.0
C1448 C 0.53027 0.2232 0.02632 0.0
C1449 C 0.53725 0.21499 4e-05 0.0
C1450 C 0.51506 0.22386 0.02802 0.0
C1451 C 0.50669 0.21609 0.00292 0.0
C1452 C 0.51368 0.20785 0.97623 0.0
C1453 C 0.52889 0.20741 0.97511 0.0
C1454 C 0.50795 0.23282 0.05673 0.0
C1455 C 0.50509 0.19937 0.94911 0.0
H1456 H 0.46219 0.19723 0.03952 0.0
H1457 H 0.46136 0.23443 0.97078 0.0
H1458 H 0.49774 0.18744 0.0275 0.0
H1459 H 0.49896 0.19954 0.0644 0.0
H1460 H 0.48382 0.18717 0.06112 0.0
H1461 H 0.48255 0.24616 0.95147 0.0
H1462 H 0.49795 0.24461 0.98082 0.0
H1463 H 0.49681 0.23323 0.94255 0.0
H1464 H 0.53672 0.2292 0.04539 0.0
H1465 H 0.53425 0.20089 0.95506 0.0
H1466 H 0.50106 0.22575 0.07362 0.0
H1467 H 0.50072 0.24112 0.04471 0.0
H1468 H 0.51602 0.2384 0.07385 0.0
H1469 H 0.49817 0.19119 0.96261 0.0
H1470 H 0.5122 0.19367 0.92979 0.0
H1471 H 0.49774 0.20676 0.93436 0.0
C1472 C 0.79059 0.46829 0.97717 0.0
C1473 C 0.77901 0.45999 0.99041 0.0
C1474 C 0.79002 0.48351 0.97731 0.0
C1475 C 0.77763 0.49059 0.9913 0.0
C1476 C 0.76581 0.48229 0.00419 0.0
C1477 C 0.76662 0.46708 0.00348 0.0
C1478 C 0.80283 0.49202 0.96324 0.0
C1479 C 0.75243 0.48949 0.01935 0.0
C1480 C 0.78316 0.52879 0.0261 0.0
C1481 C 0.77769 0.53724 0.99819 0.0
C1482 C 0.783 0.51359 0.02437 0.0
C1483 C 0.77734 0.50667 0.99387 0.0
C1484 C 0.77172 0.5151 0.96568 0.0
C1485 C 0.77193 0.53031 0.96822 0.0
C1486 C 0.78906 0.50493 0.055 0.0
C1487 C 0.76564 0.50806 0.93272 0.0
H1488 H 0.80028 0.4629 0.96747 0.0
H1489 H 0.75754 0.46072 0.01323 0.0
H1490 H 0.79916 0.49984 0.94273 0.0
H1491 H 0.80781 0.49842 0.98497 0.0
H1492 H 0.81129 0.48487 0.95154 0.0
H1493 H 0.74398 0.48148 0.02715 0.0
H1494 H 0.75544 0.49598 0.04302 0.0
H1495 H 0.74769 0.49711 -0.00028 0.0
H1496 H 0.78785 0.53407 0.04908 0.0
H1497 H 0.76752 0.53678 0.94677 0.0
H1498 H 0.79849 0.49839 0.04595 0.0
H1499 H 0.78075 0.49722 0.06501 0.0
H1500 H 0.79262 0.51198 0.07727 0.0
H1501 H 0.77419 0.50145 0.91964 0.0
H1502 H 0.7615 0.51617 0.91341 0.0
H1503 H 0.75665 0.50058 0.93985 0.0
C1504 C 0.52828 0.79141 0.02135 0.0
C1505 C 0.53663 0.77955 0.01003 0.0
C1506 C 0.51307 0.7907 0.02163 0.0
C1507 C 0.50608 0.77778 0.01047 0.0
C1508 C 0.51445 0.76563 -0.00012 0.0
C1509 C 0.52966 0.76668 -0.00033 0.0
C1510 C 0.50447 0.8039 0.03286 0.0
C1511 C 0.50736 0.75164 0.98812 0.0
C1512 C 0.46649 0.77314 0.03618 0.0
C1513 C 0.45942 0.77748 0.00503 0.0
C1514 C 0.48171 0.77291 0.03816 0.0
C1515 C 0.48999 0.77724 0.00837 0.0
C1516 C 0.4829 0.78147 0.97674 0.0
C1517 C 0.46769 0.7815 0.97542 0.0
C1518 C 0.48893 0.76819 0.0722 0.0
C1519 C 0.49138 0.78626 0.94451 0.0
H1520 H 0.53364 0.80143 0.02896 0.0
H1521 H 0.53611 0.75745 0.99127 0.0
H1522 H 0.49785 0.80788 0.01027 0.0
H1523 H 0.49683 0.80101 0.05448 0.0
H1524 H 0.51157 0.8129 0.04212 0.0
H1525 H 0.51543 0.74296 0.98253 0.0
H1526 H 0.49974 0.7477 0.0088 0.0
H1527 H 0.50089 0.75359 0.96378 0.0
H1528 H 0.4601 0.7699 0.05898 0.0
H1529 H 0.46223 0.78503 0.95146 0.0
H1530 H 0.49538 0.77731 0.08327 0.0
H1531 H 0.49658 0.75913 0.06694 0.0
H1532 H 0.48093 0.76462 0.09246 0.0
H1533 H 0.49795 0.79602 0.95105 0.0
H1534 H 0.48421 0.78891 0.92173 0.0
H1535 H 0.49905 0.77759 0.9363 0.0
C1536 C 0.70551 0.02791 0.47157 0.0
C1537 C 0.71742 0.03578 0.48466 0.0
C1538 C 0.70565 0.01268 0.47095 0.0
C1539 C 0.71791 0.00515 0.48414 0.0
C1540 C 0.73005 0.013 0.49693 0.0
C1541 C 0.72968 0.02824 0.49687 0.0
C1542 C 0.69254 0.00465 0.45689 0.0
C1543 C 0.74328 0.0053 0.51134 0.0
C1544 C 0.71156 0.96676 0.51698 0.0
C1545 C 0.71677 0.95844 0.48855 0.0
C1546 C 0.71207 0.98198 0.51606 0.0
C1547 C 0.71778 0.98904 0.48581 0.0
C1548 C 0.72308 0.98074 0.45702 0.0
C1549 C 0.72257 0.96552 0.4588 0.0
C1550 C 0.70635 0.99049 0.54732 0.0
C1551 C 0.72917 0.98793 0.42427 0.0
H1552 H 0.6959 0.03363 0.46259 0.0
H1553 H 0.73901 0.03425 0.50651 0.0
H1554 H 0.69588 0.99689 0.43592 0.0
H1555 H 0.68747 0.99823 0.47848 0.0
H1556 H 0.68422 0.01213 0.44578 0.0
H1557 H 0.75198 0.01301 0.51937 0.0
H1558 H 0.74019 -0.00133 0.5347 0.0
H1559 H 0.74775 0.99776 0.49115 0.0
H1560 H 0.70685 0.96139 0.5398 0.0
H1561 H 0.7268 0.95916 0.43695 0.0
H1562 H 0.69707 0.99736 0.53891 0.0
H1563 H 0.71491 0.99789 0.55753 0.0
H1564 H 0.7027 0.98333 0.56928 0.0
H1565 H 0.72077 0.99495 0.41195 0.0
H1566 H 0.73293 0.9799 0.40428 0.0
H1567 H 0.73844 0.99504 0.43151 0.0
C1568 C 0.96604 0.72575 0.48268 0.0
C1569 C 0.95902 0.7167 0.50725 0.0
C1570 C 0.98125 0.72645 0.48108 0.0
C1571 C 0.98961 0.71803 0.5049 0.0
C1572 C 0.98262 0.70916 0.53035 0.0
C1573 C 0.96741 0.70853 0.53107 0.0
C1574 C 0.98836 0.73597 0.45347 0.0
C1575 C 0.99121 0.70012 0.55636 0.0
C1576 C 0.02808 0.70759 0.4798 0.0
C1577 C 0.0363 0.71763 0.49931 0.0
C1578 C 0.01286 0.70776 0.48096 0.0
C1579 C 0.0057 0.71811 0.50249 0.0
C1580 C 0.01389 0.72832 0.52213 0.0
C1581 C 0.0291 0.72801 0.52014 0.0
C1582 C 0.00446 0.69675 0.45945 0.0
C1583 C 0.00659 0.73946 0.54553 0.0
H1584 H 0.95964 0.73228 0.46459 0.0
H1585 H 0.96209 0.70135 0.54978 0.0
H1586 H 0.99579 0.74386 0.46634 0.0
H1587 H 0.99503 0.72919 0.43539 0.0
H1588 H 0.98029 0.74207 0.43742 0.0
H1589 H 0.98412 0.69439 0.57566 0.0
H1590 H 0.99774 0.6919 0.54188 0.0
H1591 H -0.00107 0.70711 0.57119 0.0
H1592 H 0.03355 0.69938 0.46408 0.0
H1593 H 0.03536 0.73596 0.53485 0.0
H1594 H 0.99666 0.70238 0.44172 0.0
H1595 H 0.99803 0.68967 0.47735 0.0
H1596 H 0.01167 0.68979 0.44305 0.0
H1597 H -0.00093 0.74625 0.52961 0.0
H1598 H 0.01453 0.7467 0.55893 0.0
H1599 H -3e-05 0.7339 0.56605 0.0
C1600 C 0.27129 0.02895 0.47765 0.0
C1601 C 0.28075 0.03627 0.50062 0.0
C1602 C 0.27078 0.01372 0.47697 0.0
C1603 C 0.28006 0.00569 0.49957 0.0
C1604 C 0.28961 0.01304 0.52288 0.0
C1605 C 0.2898 0.02826 0.52321 0.0
C1606 C 0.26037 0.00623 0.45201 0.0
C1607 C 0.29976 0.00481 0.5471 0.0
C1608 C 0.27154 0.96634 0.52094 0.0
C1609 C 0.28089 0.95901 0.49771 0.0
C1610 C 0.27095 0.98156 0.52142 0.0
C1611 C 0.28005 0.98959 0.49834 0.0
C1612 C 0.28944 0.98224 0.47467 0.0
C1613 C 0.28971 0.96702 0.47456 0.0
C1614 C 0.26071 0.98907 0.54677 0.0
C1615 C 0.29939 0.99045 0.44992 0.0
H1616 H 0.26418 0.03516 0.46044 0.0
H1617 H 0.29724 0.03392 0.54069 0.0
H1618 H 0.2665 -0.0006 0.43297 0.0
H1619 H 0.25306 -0.0011 0.4671 0.0
H1620 H 0.25361 0.01407 0.43685 0.0
H1621 H 0.30639 0.01218 0.56393 0.0
H1622 H 0.29346 0.99745 0.56459 0.0
H1623 H 0.30721 0.99794 0.53116 0.0
H1624 H 0.26461 0.96014 0.53861 0.0
H1625 H 0.29709 0.96136 0.45689 0.0
H1626 H 0.25335 0.99645 0.532 0.0
H1627 H 0.26698 0.99585 0.56565 0.0
H1628 H 0.25401 0.98123 0.56212 0.0
H1629 H 0.29296 0.99786 0.43283 0.0
H1630 H 0.30584 0.98308 0.43268 0.0
H1631 H 0.30701 0.99728 0.46548 0.0
C1632 C 0.02885 0.29154 0.47601 0.0
C1633 C 0.03689 0.28085 0.49365 0.0
C1634 C 0.01363 0.29112 0.47591 0.0
C1635 C 0.00637 0.27954 0.49317 0.0
C1636 C 0.01449 0.26855 0.51042 0.0
C1637 C 0.0297 0.26944 0.51082 0.0
C1638 C 0.00531 0.30319 0.4579 0.0
C1639 C 0.00712 0.25588 0.52842 0.0
C1640 C 0.96737 0.28525 0.52217 0.0
C1641 C 0.95973 0.27898 0.494 0.0
C1642 C 0.98259 0.28555 0.52219 0.0
C1643 C 0.99027 0.2791 0.49373 0.0
C1644 C 0.98257 0.27247 0.46555 0.0
C1645 C 0.96733 0.27266 0.46582 0.0
C1646 C 0.99045 0.29298 0.55229 0.0
C1647 C 0.99041 0.26522 0.43518 0.0
H1648 H 0.0345 0.3004 0.46299 0.0
H1649 H 0.03601 0.26114 0.52422 0.0
H1650 H -0.00173 0.29866 0.43677 0.0
H1651 H 0.9981 0.30866 0.47733 0.0
H1652 H 0.01262 0.31146 0.44593 0.0
H1653 H 0.01504 0.24795 0.53932 0.0
H1654 H 0.00016 0.25986 0.55038 0.0
H1655 H -7e-05 0.25018 0.50936 0.0
H1656 H 0.96139 0.29024 0.54376 0.0
H1657 H 0.96132 0.26776 0.44418 0.0
H1658 H 0.9973 0.30192 0.54178 0.0
H1659 H 0.9978 0.28518 0.56574 0.0
H1660 H 0.98284 0.29755 0.57225 0.0
H1661 H 0.99705 0.27333 0.42068 0.0
H1662 H 0.9828 0.26002 0.41618 0.0
H1663 H 0.99796 0.25682 0.44547 0.0
C1664 C 0.28296 0.32466 0.97857 0.0
C1665 C 0.28052 0.33463 0.00596 0.0
C1666 C 0.29438 0.31463 0.98055 0.0
C1667 C 0.3037 0.31475 0.0104 0.0
C1668 C 0.30165 0.32521 0.03746 0.0
C1669 C 0.28996 0.33496 0.03508 0.0
C1670 C 0.29609 0.3035 0.95141 0.0
C1671 C 0.31154 0.32583 0.06933 0.0
C1672 C 0.32141 0.27876 0.03259 0.0
C1673 C 0.33499 0.28021 0.0162 0.0
C1674 C 0.31125 0.29009 0.03164 0.0
C1675 C 0.31488 0.30325 0.01433 0.0
C1676 C 0.32881 0.30499 -0.00104 0.0
C1677 C 0.33868 0.29336 -0.00025 0.0
C1678 C 0.29643 0.28774 0.04787 0.0
C1679 C 0.33314 0.31898 0.98091 0.0
H1680 H 0.27556 0.32433 0.95623 0.0
H1681 H 0.28812 0.34278 0.0561 0.0
H1682 H 0.3073 0.3038 0.94064 0.0
H1683 H 0.2943 0.29244 0.96232 0.0
H1684 H 0.28832 0.30528 0.92931 0.0
H1685 H 0.30931 0.33545 0.08626 0.0
H1686 H 0.31009 0.31589 0.08557 0.0
H1687 H 0.32307 0.32615 0.06078 0.0
H1688 H 0.31851 0.26852 0.04493 0.0
H1689 H 0.34924 0.29448 0.98728 0.0
H1690 H 0.28799 0.28827 0.0269 0.0
H1691 H 0.29399 0.29646 0.06726 0.0
H1692 H 0.29554 0.27707 0.06149 0.0
H1693 H 0.32648 0.32055 0.95672 0.0
H1694 H 0.3448 0.31905 0.9732 0.0
H1695 H 0.33103 0.32837 0.99861 0.0
C1696 C 0.70173 0.33942 0.97976 0.0
C1697 C 0.71402 0.33593 0.00012 0.0
C1698 C 0.69011 0.32962 0.97652 0.0
C1699 C 0.69077 0.31609 0.99427 0.0
C1700 C 0.7029 0.31271 0.01577 0.0
C1701 C 0.7144 0.32262 0.01823 0.0
C1702 C 0.67734 0.33354 0.95329 0.0
C1703 C 0.70398 0.29841 0.03526 0.0
C1704 C 0.6577 0.29237 0.00997 0.0
C1705 C 0.65976 0.28142 0.98457 0.0
C1706 C 0.66735 0.30414 0.01248 0.0
C1707 C 0.67927 0.30499 0.98889 0.0
C1708 C 0.68099 0.29438 0.96207 0.0
C1709 C 0.67126 0.28269 0.96035 0.0
C1710 C 0.66518 0.31526 0.04142 0.0
C1711 C 0.69354 0.29496 0.9363 0.0
H1712 H 0.70126 0.34976 0.96607 0.0
H1713 H 0.72394 0.31968 0.03348 0.0
H1714 H 0.67688 0.32603 0.93032 0.0
H1715 H 0.66702 0.33227 0.96815 0.0
H1716 H 0.67804 0.34486 0.9432 0.0
H1717 H 0.71369 0.29787 0.05271 0.0
H1718 H 0.69413 0.29665 0.05168 0.0
H1719 H 0.70458 0.28935 0.01592 0.0
H1720 H 0.64869 0.29159 0.02838 0.0
H1721 H 0.67307 0.2742 0.94093 0.0
H1722 H 0.66572 0.32642 0.03039 0.0
H1723 H 0.67404 0.31425 0.06121 0.0
H1724 H 0.65461 0.31387 0.05525 0.0
H1725 H 0.69428 0.30589 0.92401 0.0
H1726 H 0.69251 0.28672 0.91493 0.0
H1727 H 0.70388 0.293 0.95065 0.0
C1728 C 0.70631 0.66419 0.9737 0.0
C1729 C 0.71797 0.66607 0.99725 0.0
C1730 C 0.69509 0.6745 0.9716 0.0
C1731 C 0.69553 0.68691 0.99372 0.0
C1732 C 0.70707 0.6887 0.0181 0.0
C1733 C 0.71817 0.6783 0.01943 0.0
C1734 C 0.68296 0.67227 0.94523 0.0
C1735 C 0.70788 0.70178 0.04221 0.0
C1736 C 0.67688 0.722 0.96762 0.0
C1737 C 0.66459 0.72191 0.98963 0.0
C1738 C 0.68672 0.71037 0.96762 0.0
C1739 C 0.6843 0.69843 0.99049 0.0
C1740 C 0.67172 0.69803 0.01201 0.0
C1741 C 0.66197 0.70976 0.0112 0.0
C1742 C 0.69999 0.71113 0.94412 0.0
C1743 C 0.66881 0.68548 0.03679 0.0
H1744 H 0.70598 0.65467 0.95679 0.0
H1745 H 0.72725 0.67999 0.03725 0.0
H1746 H 0.67228 0.67267 0.95885 0.0
H1747 H 0.68307 0.68119 0.92544 0.0
H1748 H 0.68389 0.66174 0.93102 0.0
H1749 H 0.71718 0.70115 0.06094 0.0
H1750 H 0.70903 0.71181 0.02614 0.0
H1751 H 0.69769 0.70281 0.05773 0.0
H1752 H 0.67912 0.7314 0.95121 0.0
H1753 H 0.65236 0.70948 0.0278 0.0
H1754 H 0.701 0.70104 0.92821 0.0
H1755 H 0.7099 0.71201 0.96072 0.0
H1756 H 0.69965 0.72058 0.92581 0.0
H1757 H 0.6693 0.67503 0.02217 0.0
H1758 H 0.65804 0.68635 0.04994 0.0
H1759 H 0.67734 0.68512 0.05754 0.0
C1760 C 0.28867 0.66196 0.01854 0.0
C1761 C 0.27791 0.66203 0.9923 0.0
C1762 C 0.30007 0.67208 0.01777 0.0
C1763 C 0.30046 0.68268 0.99059 0.0
C1764 C 0.28979 0.68255 0.96358 0.0
C1765 C 0.2787 0.67212 0.9646 0.0
C1766 C 0.31144 0.6717 0.0466 0.0
C1767 C 0.28969 0.69384 0.93452 0.0
C1768 C 0.31828 0.71883 0.01106 0.0
C1769 C 0.33129 0.71779 0.99194 0.0
C1770 C 0.30821 0.70742 0.01099 0.0
C1771 C 0.31135 0.69457 0.9918 0.0
C1772 C 0.32463 0.69334 0.97305 0.0
C1773 C 0.3344 0.70506 0.97303 0.0
C1774 C 0.29405 0.70925 0.03079 0.0
C1775 C 0.32845 0.6797 0.95287 0.0
H1776 H 0.28806 0.65407 0.03982 0.0
H1777 H 0.27026 0.67224 0.94454 0.0
H1778 H 0.32249 0.67185 0.03483 0.0
H1779 H 0.31042 0.68152 0.06349 0.0
H1780 H 0.31039 0.66193 0.06371 0.0
H1781 H 0.28106 0.69178 0.91456 0.0
H1782 H 0.2879 0.70476 0.9462 0.0
H1783 H 0.30035 0.69409 0.92083 0.0
H1784 H 0.31583 0.72876 0.02534 0.0
H1785 H 0.34452 0.70426 0.95844 0.0
H1786 H 0.29283 0.7005 0.0508 0.0
H1787 H 0.28479 0.70829 0.01211 0.0
H1788 H 0.29332 0.71991 0.04447 0.0
H1789 H 0.32783 0.67012 0.97069 0.0
H1790 H 0.33951 0.6802 0.94116 0.0
H1791 H 0.32048 0.67793 0.93123 0.0
C1792 C 0.83952 0.79122 0.50668 0.0
C1793 C 0.83372 0.77716 0.50409 0.0
C1794 C 0.83038 0.80345 0.50735 0.0
C1795 C 0.81514 0.80151 0.50543 0.0
C1796 C 0.80926 0.78734 0.50279 0.0
C1797 C 0.81861 0.77535 0.50221 0.0
C1798 C 0.837 0.81842 0.51007 0.0
C1799 C 0.79305 0.78481 0.5008 0.0
C1800 C 0.78794 0.82911 0.53895 0.0
C1801 C 0.78251 0.83477 0.5071 0.0
C1802 C 0.79922 0.81887 0.53896 0.0
C1803 C 0.80517 0.81418 0.50631 0.0
C1804 C 0.80034 0.8205 0.47423 0.0
C1805 C 0.78904 0.83072 0.47501 0.0
C1806 C 0.80417 0.81246 0.57374 0.0
C1807 C 0.80643 0.81579 0.4389 0.0
H1808 H 0.8512 0.79267 0.50784 0.0
H1809 H 0.81407 0.76449 0.50085 0.0
H1810 H 0.83375 0.82508 0.48688 0.0
H1811 H 0.83286 0.82402 0.53407 0.0
H1812 H 0.84906 0.81807 0.51137 0.0
H1813 H 0.79025 0.7731 0.49851 0.0
H1814 H 0.7877 0.78925 0.52483 0.0
H1815 H 0.78844 0.79063 0.47762 0.0
H1816 H 0.78308 0.8324 0.56386 0.0
H1817 H 0.78481 0.83496 0.45028 0.0
H1818 H 0.81621 0.81257 0.5755 0.0
H1819 H 0.80063 0.80095 0.5754 0.0
H1820 H 0.79966 0.81841 0.59686 0.0
H1821 H 0.81848 0.8157 0.43962 0.0
H1822 H 0.80283 0.82299 0.41696 0.0
H1823 H 0.8028 0.80455 0.43301 0.0
C1824 C 0.22166 0.81835 0.48906 0.0
C1825 C 0.21988 0.83345 0.49108 0.0
C1826 C 0.20964 0.80903 0.48888 0.0
C1827 C 0.19547 0.81495 0.49083 0.0
C1828 C 0.19355 0.8302 0.49259 0.0
C1829 C 0.20581 0.83929 0.49276 0.0
C1830 C 0.21213 0.79281 0.48714 0.0
C1831 C 0.17858 0.83687 0.49454 0.0
C1832 C 0.16603 0.78891 0.46103 0.0
C1833 C 0.16179 0.78274 0.49338 0.0
C1834 C 0.17646 0.80003 0.45989 0.0
C1835 C 0.18276 0.80503 0.49185 0.0
C1836 C 0.17793 0.79939 0.52468 0.0
C1837 C 0.16748 0.7883 0.52504 0.0
C1838 C 0.18132 0.80582 0.42438 0.0
C1839 C 0.18435 0.8045 0.55934 0.0
H1840 H 0.23252 0.81377 0.48835 0.0
H1841 H 0.20439 0.85098 0.49398 0.0
H1842 H 0.20765 0.78754 0.51123 0.0
H1843 H 0.20634 0.78815 0.464 0.0
H1844 H 0.22384 0.78998 0.48499 0.0
H1845 H 0.17895 0.84894 0.49501 0.0
H1846 H 0.17199 0.83335 0.47148 0.0
H1847 H 0.17291 0.83303 0.51873 0.0
H1848 H 0.16174 0.78458 0.43647 0.0
H1849 H 0.16403 0.78372 0.55013 0.0
H1850 H 0.19256 0.80209 0.41887 0.0
H1851 H 0.18147 0.81788 0.42458 0.0
H1852 H 0.17417 0.80209 0.40247 0.0
H1853 H 0.19587 0.801 0.56105 0.0
H1854 H 0.17841 0.80006 0.58259 0.0
H1855 H 0.18419 0.81654 0.56081 0.0
C1856 C 0.20834 0.16502 0.53247 0.0
C1857 C 0.21436 0.15911 0.50156 0.0
C1858 C 0.19714 0.17531 0.53067 0.0
C1859 C 0.19198 0.17989 0.49715 0.0
C1860 C 0.19753 0.17342 0.46592 0.0
C1861 C 0.20864 0.16305 0.46852 0.0
C1862 C 0.19135 0.18182 0.56458 0.0
C1863 C 0.19237 0.17809 0.42969 0.0
C1864 C 0.15747 0.20249 0.49275 0.0
C1865 C 0.16314 0.21665 0.49179 0.0
C1866 C 0.16671 0.19036 0.49433 0.0
C1867 C 0.18194 0.19247 0.49468 0.0
C1868 C 0.18772 0.20671 0.49326 0.0
C1869 C 0.17826 0.21862 0.49204 0.0
C1870 C 0.16019 0.17531 0.49595 0.0
C1871 C 0.20392 0.2094 0.49348 0.0
H1872 H 0.21265 0.16183 0.55805 0.0
H1873 H 0.21338 0.15858 0.44457 0.0
H1874 H 0.19475 0.19337 0.56647 0.0
H1875 H 0.17929 0.18162 0.56468 0.0
H1876 H 0.19536 0.17599 0.58842 0.0
H1877 H 0.19663 0.17095 0.40835 0.0
H1878 H 0.18032 0.17807 0.42849 0.0
H1879 H 0.19603 0.18938 0.42444 0.0
H1880 H 0.1458 0.20088 0.49215 0.0
H1881 H 0.18273 0.22951 0.49202 0.0
H1882 H 0.16366 0.1698 0.52068 0.0
H1883 H 0.1642 0.16866 0.47347 0.0
H1884 H 0.14812 0.17553 0.49512 0.0
H1885 H 0.20871 0.20521 0.51844 0.0
H1886 H 0.20664 0.22112 0.49107 0.0
H1887 H 0.20915 0.20347 0.47128 0.0
C1888 C 0.83193 0.20777 0.5399 0.0
C1889 C 0.8362 0.2138 0.50741 0.0
C1890 C 0.82172 0.19647 0.5413 0.0
C1891 C 0.81564 0.19112 0.50943 0.0
C1892 C 0.82052 0.19659 0.47647 0.0
C1893 C 0.83074 0.20789 0.47585 0.0
C1894 C 0.81684 0.19084 0.57695 0.0
C1895 C 0.81431 0.19114 0.4419 0.0
C1896 C 0.79292 0.1566 0.51044 0.0
C1897 C 0.77879 0.16232 0.51176 0.0
C1898 C 0.80509 0.16582 0.5099 0.0
C1899 C 0.80303 0.18106 0.51065 0.0
C1900 C 0.7888 0.18687 0.5121 0.0
C1901 C 0.77687 0.17743 0.51255 0.0
C1902 C 0.82013 0.15928 0.5084 0.0
C1903 C 0.78615 0.20308 0.51282 0.0
H1904 H 0.83632 0.21214 0.56434 0.0
H1905 H 0.8339 0.21259 0.45066 0.0
H1906 H 0.80548 0.19431 0.58197 0.0
H1907 H 0.81701 0.17878 0.57732 0.0
H1908 H 0.82378 0.19493 0.59888 0.0
H1909 H 0.82042 0.1953 0.41863 0.0
H1910 H 0.8144 0.17909 0.44118 0.0
H1911 H 0.80282 0.19468 0.43952 0.0
H1912 H 0.79446 0.14492 0.51011 0.0
H1913 H 0.76598 0.18193 0.5129 0.0
H1914 H 0.82663 0.163 0.53142 0.0
H1915 H 0.82583 0.16303 0.48416 0.0
H1916 H 0.81987 0.14721 0.50837 0.0
H1917 H 0.79178 0.20801 0.53586 0.0
H1918 H 0.77441 0.20581 0.51448 0.0
H1919 H 0.7907 0.20816 0.48858 0.0
C1920 C 0.15098 0.31532 0.29949 0.0
C1921 C 0.14339 0.32373 0.32433 0.0
C1922 C 0.15582 0.32137 0.26753 0.0
C1923 C 0.15304 0.33621 0.2603 0.0
C1924 C 0.14513 0.34469 0.28495 0.0
C1925 C 0.14036 0.33833 0.3167 0.0
C1926 C 0.16413 0.31195 0.24176 0.0
C1927 C 0.14202 0.36056 0.27816 0.0
C1928 C 0.17915 0.35423 0.19629 0.0
C1929 C 0.17123 0.3539 0.16457 0.0
C1930 C 0.17319 0.34884 0.22783 0.0
C1931 C 0.15899 0.34293 0.2276 0.0
C1932 C 0.1508 0.34287 0.19584 0.0
C1933 C 0.15702 0.34839 0.16466 0.0
C1934 C 0.18222 0.34919 0.26124 0.0
C1935 C 0.13565 0.3366 0.1946 0.0
H1936 H 0.15313 0.30396 0.30505 0.0
H1937 H 0.13458 0.34488 0.33596 0.0
H1938 H 0.15883 0.31219 0.21537 0.0
H1939 H 0.17531 0.31625 0.23838 0.0
H1940 H 0.16486 0.30047 0.25073 0.0
H1941 H 0.13514 0.36546 0.29921 0.0
H1942 H 0.15238 0.36669 0.27669 0.0
H1943 H 0.13645 0.36191 0.25231 0.0
H1944 H 0.19005 0.35869 0.19641 0.0
H1945 H 0.15092 0.34802 0.14012 0.0
H1946 H 0.18435 0.33793 0.27042 0.0
H1947 H 0.1762 0.35483 0.28267 0.0
H1948 H 0.19281 0.35476 0.25728 0.0
H1949 H 0.13604 0.32481 0.20066 0.0
H1950 H 0.13044 0.33808 0.16829 0.0
H1951 H 0.12871 0.34179 0.21505 0.0
C1952 C 0.68459 0.14474 0.29285 0.0
C1953 C 0.67587 0.14506 0.32328 0.0
C1954 C 0.6793 0.14981 0.26028 0.0
C1955 C 0.66504 0.15553 0.25833 0.0
C1956 C 0.65618 0.15585 0.289 0.0
C1957 C 0.66168 0.15049 0.32111 0.0
C1958 C 0.68897 0.14907 0.228 0.0
C1959 C 0.641 0.16209 0.28803 0.0
C1960 C 0.65686 0.18163 0.18318 0.0
C1961 C 0.64898 0.17276 0.15993 0.0
C1962 C 0.66205 0.17618 0.21546 0.0
C1963 C 0.6595 0.16145 0.22432 0.0
C1964 C 0.65167 0.1524 0.20073 0.0
C1965 C 0.64638 0.15822 0.16889 0.0
C1966 C 0.67014 0.18622 0.24023 0.0
C1967 C 0.64897 0.13658 0.20903 0.0
H1968 H 0.69552 0.1404 0.29451 0.0
H1969 H 0.65499 0.15084 0.34475 0.0
H1970 H 0.68348 0.14289 0.2066 0.0
H1971 H 0.69103 0.16019 0.21777 0.0
H1972 H 0.69959 0.14383 0.23375 0.0
H1973 H 0.6355 0.16147 0.3142 0.0
H1974 H 0.64142 0.17363 0.27959 0.0
H1975 H 0.63431 0.15617 0.2683 0.0
H1976 H 0.65871 0.19293 0.17635 0.0
H1977 H 0.64036 0.15135 0.15072 0.0
H1978 H 0.68126 0.182 0.24502 0.0
H1979 H 0.66454 0.18665 0.26624 0.0
H1980 H 0.671 0.19745 0.2296 0.0
H1981 H 0.65947 0.13089 0.21318 0.0
H1982 H 0.64292 0.13096 0.18756 0.0
H1983 H 0.64267 0.13559 0.23398 0.0
C1984 C 0.85758 0.65851 0.32535 0.0
C1985 C 0.84914 0.66841 0.34468 0.0
C1986 C 0.85242 0.65257 0.29351 0.0
C1987 C 0.83845 0.65652 0.28109 0.0
C1988 C 0.82973 0.66618 0.30108 0.0
C1989 C 0.83522 0.67207 0.33258 0.0
C1990 C 0.86207 0.6424 0.27269 0.0
C1991 C 0.81471 0.6705 0.28889 0.0
C1992 C 0.82976 0.65461 0.1831 0.0
C1993 C 0.82164 0.64176 0.18113 0.0
C1994 C 0.83563 0.65933 0.21537 0.0
C1995 C 0.83315 0.65107 0.24642 0.0
C1996 C 0.82514 0.63795 0.24449 0.0
C1997 C 0.81954 0.63341 0.21175 0.0
C1998 C 0.84427 0.67329 0.21632 0.0
C1999 C 0.82217 0.62895 0.27714 0.0
H2000 H 0.86839 0.65577 0.3346 0.0
H2001 H 0.82863 0.67959 0.3478 0.0
H2002 H 0.8563 0.63204 0.26736 0.0
H2003 H 0.86472 0.64734 0.24666 0.0
H2004 H 0.87239 0.63994 0.28677 0.0
H2005 H 0.80904 0.67752 0.30845 0.0
H2006 H 0.81544 0.67645 0.2634 0.0
H2007 H 0.80799 0.66066 0.28417 0.0
H2008 H 0.83154 0.66098 0.15931 0.0
H2009 H 0.81315 0.62352 0.21026 0.0
H2010 H 0.85511 0.67131 0.22827 0.0
H2011 H 0.83862 0.68139 0.2332 0.0
H2012 H 0.84581 0.67804 0.18953 0.0
H2013 H 0.83252 0.62614 0.29056 0.0
H2014 H 0.81625 0.61874 0.27089 0.0
H2015 H 0.81558 0.63535 0.2962 0.0
C2016 C 0.34192 0.84298 0.33666 0.0
C2017 C 0.32876 0.85068 0.33547 0.0
C2018 C 0.34812 0.83725 0.30569 0.0
C2019 C 0.34092 0.83915 0.27289 0.0
C2020 C 0.3278 0.84715 0.27142 0.0
C2021 C 0.32193 0.85289 0.30267 0.0
C2022 C 0.36221 0.82888 0.30818 0.0
C2023 C 0.31978 0.84937 0.23692 0.0
C2024 C 0.36059 0.83395 0.18544 0.0
C2025 C 0.35596 0.81999 0.17557 0.0
C2026 C 0.35614 0.84018 0.21759 0.0
C2027 C 0.34673 0.83231 0.24021 0.0
C2028 C 0.34225 0.81812 0.23077 0.0
C2029 C 0.34699 0.8121 0.19867 0.0
C2030 C 0.36122 0.85531 0.22696 0.0
C2031 C 0.33218 0.80941 0.25418 0.0
H2032 H 0.34719 0.84111 0.36192 0.0
H2033 H 0.31192 0.85908 0.30143 0.0
H2034 H 0.36034 0.81737 0.3007 0.0
H2035 H 0.37028 0.83338 0.2893 0.0
H2036 H 0.36691 0.82918 0.33527 0.0
H2037 H 0.30987 0.85614 0.2402 0.0
H2038 H 0.327 0.85468 0.21725 0.0
H2039 H 0.31654 0.83869 0.22577 0.0
H2040 H 0.36741 0.84018 0.1676 0.0
H2041 H 0.34361 0.8012 0.1916 0.0
H2042 H 0.36612 0.85538 0.25382 0.0
H2043 H 0.3518 0.86283 0.22753 0.0
H2044 H 0.36933 0.85955 0.20776 0.0
H2045 H 0.33686 0.80835 0.28113 0.0
H2046 H 0.33008 0.79835 0.24351 0.0
H2047 H 0.32163 0.81516 0.25689 0.0
C2048 C 0.15578 0.68353 0.68981 0.0
C2049 C 0.14202 0.68011 0.67617 0.0
C2050 C 0.16049 0.67781 0.72223 0.0
C2051 C 0.15116 0.66854 0.74165 0.0
C2052 C 0.13711 0.66532 0.72853 0.0
C2053 C 0.13272 0.67111 0.69585 0.0
C2054 C 0.17555 0.68148 0.73538 0.0
C2055 C 0.12685 0.65552 0.74866 0.0
C2056 C 0.16964 0.64241 0.80471 0.0
C2057 C 0.16836 0.64973 0.83715 0.0
C2058 C 0.16382 0.64828 0.77355 0.0
C2059 C 0.15641 0.66174 0.77492 0.0
C2060 C 0.15466 0.66898 0.80772 0.0
C2061 C 0.16071 0.66292 0.83847 0.0
C2062 C 0.16591 0.64024 0.73902 0.0
C2063 C 0.14674 0.68332 0.81017 0.0
H2064 H 0.16291 0.69071 0.6751 0.0
H2065 H 0.12212 0.66832 0.68533 0.0
H2066 H 0.17494 0.68637 0.7622 0.0
H2067 H 0.18212 0.67141 0.73762 0.0
H2068 H 0.18131 0.68916 0.71753 0.0
H2069 H 0.11601 0.65478 0.73586 0.0
H2070 H 0.13153 0.64443 0.75046 0.0
H2071 H 0.12542 0.65956 0.77614 0.0
H2072 H 0.1753 0.63208 0.80363 0.0
H2073 H 0.15979 0.6687 0.86338 0.0
H2074 H 0.17246 0.64697 0.72057 0.0
H2075 H 0.15525 0.63826 0.72619 0.0
H2076 H 0.1715 0.62964 0.74271 0.0
H2077 H 0.1528 0.69175 0.79523 0.0
H2078 H 0.14545 0.68705 0.83799 0.0
H2079 H 0.13582 0.68241 0.79792 0.0
C2080 C 0.33536 0.15446 0.66794 0.0
C2081 C 0.32374 0.1446 0.66872 0.0
C2082 C 0.34136 0.1599 0.69943 0.0
C2083 C 0.33562 0.15533 0.7324 0.0
C2084 C 0.32411 0.14513 0.73335 0.0
C2085 C 0.31831 0.13989 0.70149 0.0
C2086 C 0.35361 0.17079 0.69742 0.0
C2087 C 0.31776 0.13995 0.76802 0.0
C2088 C 0.35779 0.16086 0.81615 0.0
C2089 C 0.3513 0.17335 0.83043 0.0
C2090 C 0.35288 0.15491 0.78408 0.0
C2091 C 0.34123 0.16164 0.76591 0.0
C2092 C 0.33471 0.17431 0.78006 0.0
C2093 C 0.33982 0.18001 0.81215 0.0
C2094 C 0.36005 0.14136 0.76982 0.0
C2095 C 0.32229 0.18183 0.76134 0.0
H2096 H 0.3395 0.15822 0.64267 0.0
H2097 H 0.30948 0.13209 0.7022 0.0
H2098 H 0.35004 0.1813 0.70892 0.0
H2099 H 0.36302 0.16697 0.71327 0.0
H2100 H 0.35728 0.17272 0.66977 0.0
H2101 H 0.30921 0.13156 0.76418 0.0
H2102 H 0.32644 0.13535 0.78505 0.0
H2103 H 0.31294 0.14927 0.78252 0.0
H2104 H 0.36657 0.15561 0.83037 0.0
H2105 H 0.33493 0.1898 0.82279 0.0
H2106 H 0.36427 0.14339 0.74273 0.0
H2107 H 0.35194 0.13247 0.76781 0.0
H2108 H 0.36917 0.13762 0.78681 0.0
H2109 H 0.32566 0.18501 0.73421 0.0
H2110 H 0.31856 0.1917 0.77566 0.0
H2111 H 0.31297 0.17426 0.75865 0.0
C2112 C 0.83658 0.35262 0.8183 0.0
C2113 C 0.82173 0.35097 0.8257 0.0
C2114 C 0.8425 0.34756 0.78634 0.0
C2115 C 0.83333 0.34076 0.7612 0.0
C2116 C 0.81831 0.33924 0.76833 0.0
C2117 C 0.81269 0.34435 0.80053 0.0
C2118 C 0.85859 0.34928 0.7797 0.0
C2119 C 0.80818 0.33212 0.74206 0.0
C2120 C 0.84568 0.3376 0.66549 0.0
C2121 C 0.85022 0.32307 0.664 0.0
C2122 C 0.84027 0.34357 0.69708 0.0
C2123 C 0.8395 0.33481 0.72785 0.0
C2124 C 0.84428 0.3202 0.72662 0.0
C2125 C 0.84956 0.3145 0.69468 0.0
C2126 C 0.83518 0.35918 0.6974 0.0
C2127 C 0.84372 0.31055 0.75896 0.0
H2128 H 0.84362 0.35763 0.83783 0.0
H2129 H 0.80117 0.34326 0.80593 0.0
H2130 H 0.86371 0.33843 0.77673 0.0
H2131 H 0.86043 0.35528 0.75459 0.0
H2132 H 0.86415 0.35518 0.80152 0.0
H2133 H 0.7967 0.33215 0.75124 0.0
H2134 H 0.80877 0.33782 0.71619 0.0
H2135 H 0.81157 0.3207 0.73748 0.0
H2136 H 0.84606 0.34422 0.64174 0.0
H2137 H 0.85328 0.30333 0.69374 0.0
H2138 H 0.84107 0.36538 0.71811 0.0
H2139 H 0.82345 0.35962 0.7041 0.0
H2140 H 0.83686 0.36463 0.67147 0.0
H2141 H 0.84993 0.31558 0.78097 0.0
H2142 H 0.84822 0.29955 0.75377 0.0
H2143 H 0.83231 0.30937 0.76805 0.0
C2144 C 0.63286 0.84072 0.81022 0.0
C2145 C 0.63959 0.82832 0.82435 0.0
C2146 C 0.63802 0.84718 0.77895 0.0
C2147 C 0.65011 0.84101 0.76129 0.0
C2148 C 0.657 0.82856 0.77553 0.0
C2149 C 0.65172 0.82244 0.80697 0.0
C2150 C 0.63048 0.86052 0.76464 0.0
C2151 C 0.66991 0.82164 0.75741 0.0
C2152 C 0.65625 0.84705 0.66314 0.0
C2153 C 0.66795 0.85684 0.66331 0.0
C2154 C 0.65001 0.84218 0.69486 0.0
C2155 C 0.65549 0.84733 0.72755 0.0
C2156 C 0.66684 0.85771 0.72792 0.0
C2157 C 0.67298 0.8623 0.69578 0.0
C2158 C 0.63793 0.83107 0.69341 0.0
C2159 C 0.67289 0.86354 0.76229 0.0
H2160 H 0.62341 0.84526 0.82333 0.0
H2161 H 0.65719 0.81306 0.81811 0.0
H2162 H 0.63843 0.8695 0.76142 0.0
H2163 H 0.62591 0.85818 0.73807 0.0
H2164 H 0.62155 0.86429 0.78221 0.0
H2165 H 0.67401 0.81197 0.77194 0.0
H2166 H 0.66688 0.81826 0.73017 0.0
H2167 H 0.67888 0.82964 0.75503 0.0
H2168 H 0.65211 0.84301 0.63813 0.0
H2169 H 0.6821 0.86975 0.69621 0.0
H2170 H 0.62845 0.83485 0.70909 0.0
H2171 H 0.6417 0.82072 0.70539 0.0
H2172 H 0.6343 0.82885 0.66587 0.0
H2173 H 0.66396 0.86749 0.77955 0.0
H2174 H 0.68071 0.87256 0.75797 0.0
H2175 H 0.67853 0.85469 0.77677 0.0
C2176 C 0.84395 0.65882 0.68236 0.0
C2177 C 0.85739 0.66585 0.6787 0.0
C2178 C 0.83953 0.65309 0.71502 0.0
C2179 C 0.84885 0.6543 0.7447 0.0
C2180 C 0.8627 0.66081 0.74087 0.0
C2181 C 0.86679 0.66656 0.70791 0.0
C2182 C 0.82467 0.64622 0.71807 0.0
C2183 C 0.87296 0.6622 0.77191 0.0
C2184 C 0.83014 0.65517 0.83404 0.0
C2185 C 0.83163 0.64073 0.84532 0.0
C2186 C 0.83599 0.65979 0.80169 0.0
C2187 C 0.8436 0.64973 0.78018 0.0
C2188 C 0.8455 0.63523 0.79185 0.0
C2189 C 0.83941 0.63088 0.82426 0.0
C2190 C 0.83363 0.67531 0.79001 0.0
C2191 C 0.85369 0.62428 0.76976 0.0
H2192 H 0.83675 0.65798 0.65971 0.0
H2193 H 0.87715 0.67208 0.70537 0.0
H2194 H 0.82556 0.63517 0.72959 0.0
H2195 H 0.81779 0.65276 0.73621 0.0
H2196 H 0.81908 0.64542 0.69205 0.0
H2197 H 0.88385 0.66623 0.76378 0.0
H2198 H 0.86835 0.66988 0.7916 0.0
H2199 H 0.87428 0.65156 0.78535 0.0
H2200 H 0.82395 0.66276 0.85001 0.0
H2201 H 0.84069 0.61974 0.83311 0.0
H2202 H 0.82703 0.67549 0.7654 0.0
H2203 H 0.8442 0.68054 0.78385 0.0
H2204 H 0.82798 0.6819 0.81047 0.0
H2205 H 0.84782 0.62236 0.74452 0.0
H2206 H 0.855 0.61371 0.78363 0.0
H2207 H 0.86461 0.62854 0.76289 0.0
C2208 C 0.34155 0.86403 0.68495 0.0
C2209 C 0.32775 0.85882 0.67561 0.0
C2210 C 0.34805 0.86001 0.71716 0.0
C2211 C 0.34053 0.85058 0.74044 0.0
C2212 C 0.32641 0.84565 0.7316 0.0
C2213 C 0.3202 0.84984 0.69931 0.0
C2214 C 0.36311 0.86546 0.72576 0.0
C2215 C 0.318 0.83565 0.75585 0.0
C2216 C 0.36069 0.82587 0.80378 0.0
C2217 C 0.35827 0.83275 0.83641 0.0
C2218 C 0.35549 0.8319 0.77214 0.0
C2219 C 0.34763 0.84511 0.77316 0.0
C2220 C 0.34562 0.85242 0.80579 0.0
C2221 C 0.35097 0.84614 0.83708 0.0
C2222 C 0.35785 0.82378 0.73783 0.0
C2223 C 0.33735 0.86656 0.80784 0.0
H2224 H 0.34746 0.87092 0.66661 0.0
H2225 H 0.30941 0.84601 0.69248 0.0
H2226 H 0.36328 0.87048 0.75248 0.0
H2227 H 0.37083 0.8562 0.7262 0.0
H2228 H 0.36703 0.87358 0.70616 0.0
H2229 H 0.30689 0.83334 0.74577 0.0
H2230 H 0.32389 0.82519 0.75875 0.0
H2231 H 0.31708 0.84053 0.78263 0.0
H2232 H 0.36614 0.81543 0.80307 0.0
H2233 H 0.34926 0.85162 0.86216 0.0
H2234 H 0.36257 0.83111 0.71754 0.0
H2235 H 0.34726 0.81987 0.72751 0.0
H2236 H 0.36517 0.81427 0.74117 0.0
H2237 H 0.34173 0.87446 0.78839 0.0
H2238 H 0.33783 0.87149 0.83469 0.0
H2239 H 0.32578 0.86465 0.80093 0.0
C2240 C 0.14333 0.31636 0.69651 0.0
C2241 C 0.14302 0.32504 0.666 0.0
C2242 C 0.14868 0.32182 0.72864 0.0
C2243 C 0.15372 0.33634 0.73031 0.0
C2244 C 0.15312 0.34526 0.69979 0.0
C2245 C 0.14785 0.33947 0.66789 0.0
C2246 C 0.14931 0.31192 0.76053 0.0
C2247 C 0.15824 0.36085 0.70071 0.0
C2248 C 0.15762 0.35327 0.82158 0.0
C2249 C 0.17258 0.35172 0.82778 0.0
C2250 C 0.15134 0.34852 0.78972 0.0
C2251 C 0.16022 0.34195 0.76363 0.0
C2252 C 0.17532 0.34041 0.76962 0.0
C2253 C 0.18133 0.34539 0.8015 0.0
C2254 C 0.1352 0.35041 0.78413 0.0
C2255 C 0.18513 0.33341 0.74244 0.0
H2256 H 0.13977 0.30514 0.69499 0.0
H2257 H 0.14748 0.34623 0.64438 0.0
H2258 H 0.16078 0.31039 0.7688 0.0
H2259 H 0.14346 0.31692 0.78315 0.0
H2260 H 0.14448 0.30107 0.75513 0.0
H2261 H 0.15635 0.36655 0.67517 0.0
H2262 H 0.15255 0.36687 0.72207 0.0
H2263 H 0.17003 0.36121 0.70679 0.0
H2264 H 0.15076 0.358 0.84188 0.0
H2265 H 0.19293 0.34442 0.80574 0.0
H2266 H 0.12996 0.33962 0.78122 0.0
H2267 H 0.13317 0.35652 0.75927 0.0
H2268 H 0.12992 0.35627 0.80641 0.0
H2269 H 0.18145 0.32214 0.73708 0.0
H2270 H 0.19666 0.33305 0.7512 0.0
H2271 H 0.18454 0.33946 0.71707 0.0
C2272 C 0.65514 0.16545 0.81276 0.0
C2273 C 0.64059 0.16622 0.82349 0.0
C2274 C 0.65901 0.15869 0.78087 0.0
C2275 C 0.64804 0.15266 0.75908 0.0
C2276 C 0.63334 0.15313 0.77011 0.0
C2277 C 0.62979 0.15987 0.80233 0.0
C2278 C 0.67483 0.15826 0.77018 0.0
C2279 C 0.62135 0.1469 0.74741 0.0
C2280 C 0.65854 0.15023 0.6623 0.0
C2281 C 0.66308 0.13571 0.65952 0.0
C2282 C 0.65296 0.1557 0.69417 0.0
C2283 C 0.652 0.14647 0.72406 0.0
C2284 C 0.65596 0.13165 0.72106 0.0
C2285 C 0.66142 0.12644 0.68876 0.0
C2286 C 0.64877 0.17155 0.6963 0.0
C2287 C 0.65505 0.12148 0.75237 0.0
H2288 H 0.66352 0.17018 0.82936 0.0
H2289 H 0.61851 0.16057 0.81048 0.0
H2290 H 0.67822 0.14689 0.76483 0.0
H2291 H 0.67642 0.16451 0.74534 0.0
H2292 H 0.68208 0.16287 0.79088 0.0
H2293 H 0.61059 0.14738 0.76074 0.0
H2294 H 0.62067 0.15304 0.72215 0.0
H2295 H 0.62377 0.13543 0.74059 0.0
H2296 H 0.65996 0.15752 0.64002 0.0
H2297 H 0.66469 0.11516 0.68661 0.0
H2298 H 0.65648 0.17737 0.71388 0.0
H2299 H 0.63777 0.17272 0.70798 0.0
H2300 H 0.64887 0.1769 0.66991 0.0
H2301 H 0.66304 0.12486 0.7728 0.0
H2302 H 0.65732 0.11003 0.74488 0.0
H2303 H 0.64411 0.12205 0.76467 0.0
C2304 C 0.86182 0.32764 0.30287 0.0
C2305 C 0.8518 0.32405 0.32947 0.0
C2306 C 0.85719 0.33364 0.27062 0.0
C2307 C 0.84219 0.33615 0.26495 0.0
C2308 C 0.83206 0.33288 0.29205 0.0
C2309 C 0.83699 0.32685 0.32397 0.0
C2310 C 0.86829 0.33693 0.24226 0.0
C2311 C 0.81599 0.33549 0.28706 0.0
C2312 C 0.82955 0.36144 0.19167 0.0
C2313 C 0.82521 0.3515 0.16556 0.0
C2314 C 0.83539 0.35662 0.22396 0.0
C2315 C 0.83696 0.34153 0.23012 0.0
C2316 C 0.83298 0.33147 0.20346 0.0
C2317 C 0.82714 0.33658 0.17152 0.0
C2318 C 0.8395 0.36765 0.25183 0.0
C2319 C 0.83459 0.31529 0.20895 0.0
H2320 H 0.87326 0.32536 0.30689 0.0
H2321 H 0.82924 0.32428 0.34468 0.0
H2322 H 0.86629 0.32994 0.21882 0.0
H2323 H 0.86726 0.34839 0.23342 0.0
H2324 H 0.8796 0.33509 0.25154 0.0
H2325 H 0.80962 0.33298 0.31132 0.0
H2326 H 0.81401 0.34699 0.27965 0.0
H2327 H 0.81186 0.32864 0.26507 0.0
H2328 H 0.82796 0.37298 0.18729 0.0
H2329 H 0.824 0.32888 0.15117 0.0
H2330 H 0.8509 0.36594 0.26044 0.0
H2331 H 0.83249 0.36623 0.27551 0.0
H2332 H 0.83833 0.379 0.24219 0.0
H2333 H 0.84598 0.31263 0.21613 0.0
H2334 H 0.83157 0.30896 0.18499 0.0
H2335 H 0.82759 0.31173 0.23126 0.0
C2336 C 0.64462 0.84657 0.16453 0.0
C2337 C 0.6382 0.83282 0.16233 0.0
C2338 C 0.65 0.85178 0.1969 0.0
C2339 C 0.64931 0.8428 0.22733 0.0
C2340 C 0.6425 0.82901 0.22528 0.0
C2341 C 0.63687 0.82425 0.19277 0.0
C2342 C 0.65684 0.86669 0.19828 0.0
C2343 C 0.64185 0.81898 0.2569 0.0
C2344 C 0.67859 0.84789 0.29678 0.0
C2345 C 0.67093 0.85471 0.32434 0.0
C2346 C 0.67165 0.84393 0.2652 0.0
C2347 C 0.65676 0.84726 0.26048 0.0
C2348 C 0.64903 0.85454 0.28761 0.0
C2349 C 0.65616 0.85802 0.31939 0.0
C2350 C 0.68022 0.836 0.23704 0.0
C2351 C 0.63322 0.85853 0.28317 0.0
H2352 H 0.64559 0.85314 0.1408 0.0
H2353 H 0.63202 0.81353 0.19074 0.0
H2354 H 0.65235 0.87301 0.22081 0.0
H2355 H 0.66872 0.86563 0.20266 0.0
H2356 H 0.65506 0.8729 0.17343 0.0
H2357 H 0.63548 0.80897 0.25138 0.0
H2358 H 0.65304 0.81577 0.26464 0.0
H2359 H 0.63693 0.82463 0.27991 0.0
H2360 H 0.69007 0.84561 0.2998 0.0
H2361 H 0.65007 0.86313 0.34056 0.0
H2362 H 0.68032 0.84242 0.21217 0.0
H2363 H 0.67497 0.82542 0.23103 0.0
H2364 H 0.69164 0.83394 0.2452 0.0
H2365 H 0.6317 0.86488 0.25846 0.0
H2366 H 0.62903 0.86499 0.30583 0.0
H2367 H 0.62657 0.84852 0.28067 0.0
C2368 C 0.134 0.65943 0.31726 0.0
C2369 C 0.1435 0.66777 0.33801 0.0
C2370 C 0.13866 0.65321 0.28526 0.0
C2371 C 0.15313 0.65549 0.27374 0.0
C2372 C 0.16284 0.66366 0.29494 0.0
C2373 C 0.15791 0.66968 0.32684 0.0
C2374 C 0.12805 0.64446 0.26346 0.0
C2375 C 0.17832 0.6664 0.28342 0.0
C2376 C 0.17045 0.63183 0.20303 0.0
C2377 C 0.16941 0.64081 0.1731 0.0
C2378 C 0.16478 0.63626 0.23582 0.0
C2379 C 0.15798 0.65001 0.23869 0.0
C2380 C 0.15653 0.65893 0.20837 0.0
C2381 C 0.16223 0.65421 0.17592 0.0
C2382 C 0.16648 0.62644 0.2676 0.0
C2383 C 0.14932 0.67366 0.21038 0.0
H2384 H 0.1229 0.65781 0.32603 0.0
H2385 H 0.16524 0.67629 0.34254 0.0
H2386 H 0.12611 0.64996 0.23774 0.0
H2387 H 0.13266 0.63358 0.25751 0.0
H2388 H 0.11745 0.64301 0.2771 0.0
H2389 H 0.18466 0.67243 0.30371 0.0
H2390 H 0.1839 0.65595 0.27793 0.0
H2391 H 0.17839 0.67278 0.25848 0.0
H2392 H 0.1761 0.62152 0.2011 0.0
H2393 H 0.16116 0.66107 0.15273 0.0
H2394 H 0.15583 0.62482 0.28083 0.0
H2395 H 0.17384 0.63161 0.28718 0.0
H2396 H 0.171 0.61564 0.26037 0.0
H2397 H 0.13823 0.67261 0.22164 0.0
H2398 H 0.14852 0.67899 0.18405 0.0
H2399 H 0.1556 0.68086 0.22833 0.0
C2400 C 0.31501 0.1475 0.30235 0.0
C2401 C 0.32318 0.13973 0.32733 0.0
C2402 C 0.32121 0.15207 0.27034 0.0
C2403 C 0.33594 0.14877 0.26309 0.0
C2404 C 0.34412 0.14049 0.28763 0.0
C2405 C 0.33763 0.13606 0.31953 0.0
C2406 C 0.31211 0.16082 0.24475 0.0
C2407 C 0.35984 0.13675 0.28073 0.0
C2408 C 0.34784 0.15375 0.16753 0.0
C2409 C 0.3536 0.16785 0.16847 0.0
C2410 C 0.34249 0.14714 0.19843 0.0
C2411 C 0.34294 0.15484 0.23088 0.0
C2412 C 0.34924 0.16886 0.23217 0.0
C2413 C 0.3545 0.17519 0.20096 0.0
C2414 C 0.33587 0.13215 0.1961 0.0
C2415 C 0.34997 0.1774 0.26631 0.0
H2416 H 0.30376 0.15011 0.30797 0.0
H2417 H 0.344 0.13012 0.33885 0.0
H2418 H 0.31673 0.17191 0.24202 0.0
H2419 H 0.31231 0.15573 0.21812 0.0
H2420 H 0.30062 0.1618 0.25352 0.0
H2421 H 0.36432 0.12926 0.30107 0.0
H2422 H 0.36104 0.13163 0.25428 0.0
H2423 H 0.36645 0.14684 0.2806 0.0
H2424 H 0.34705 0.14807 0.14244 0.0
H2425 H 0.35921 0.18598 0.2019 0.0
H2426 H 0.32403 0.13281 0.20141 0.0
H2427 H 0.34065 0.12492 0.21653 0.0
H2428 H 0.33751 0.12712 0.16964 0.0
H2429 H 0.33881 0.17986 0.27569 0.0
H2430 H 0.35597 0.1878 0.26319 0.0
H2431 H 0.35537 0.17087 0.28723 0.0
loop_
_geom_bond_atom_site_label_1
_geom_bond_atom_site_label_2
_geom_bond_distance
_geom_bond_site_symmetry_2
_ccdc_geom_bond_type
Li0 N17 1.990 . S
Li0 O60 1.956 . S
Li0 O61 1.969 1_554 S
Li0 O62 1.961 1_554 S
Li1 N25 1.990 . S
Li1 O60 1.970 . S
Li1 O61 1.935 1_554 S
Li1 O63 1.961 . S
Li2 N47 1.991 . S
Li2 O60 1.938 1_556 S
Li2 O62 1.978 . S
Li2 O63 1.969 1_556 S
Li3 N53 1.990 . S
Li3 O61 1.981 . S
Li3 O62 1.970 . S
Li3 O63 1.956 1_556 S
C4 C6 1.348 . S
C4 C7 1.356 . S
C4 O60 1.325 . S
N5 C8 1.314 . S
N5 C9 1.279 . S
C6 C4 1.348 . S
C6 C8 1.353 . S
C6 H64 0.929 . S
C7 C4 1.356 . S
C7 C9 1.358 . S
C7 H65 0.930 . S
C8 N5 1.314 . S
C8 C6 1.353 . S
C8 H66 0.930 . S
C9 N5 1.279 . S
C9 C7 1.358 . S
C9 H67 0.930 . S
C10 C13 1.349 1_556 S
C10 C14 1.355 . S
C10 O61 1.324 . S
C11 N12 1.279 1_556 S
C11 C14 1.358 . S
C11 H68 0.930 . S
N12 C11 1.279 1_554 S
N12 C15 1.314 . S
C13 C10 1.349 1_554 S
C13 C15 1.353 . S
C13 H69 0.929 . S
C14 C10 1.355 . S
C14 C11 1.358 . S
C14 H70 0.930 . S
C15 N12 1.314 . S
C15 C13 1.353 . S
C15 H71 0.930 . S
C16 N17 1.314 1_556 S
C16 C21 1.353 . S
C16 H22 0.930 . S
N17 Li0 1.990 . S
N17 C16 1.314 1_554 S
N17 C19 1.279 . S
C18 C19 1.358 . S
C18 C20 1.359 . S
C18 H72 0.930 . S
C19 N17 1.279 . S
C19 C18 1.358 . S
C19 H23 0.930 . S
C20 C18 1.359 . S
C20 C21 1.345 1_554 S
C21 C16 1.353 . S
C21 C20 1.345 1_556 S
C21 H73 0.929 . S
H22 C16 0.930 . S
H23 C19 0.930 . S
C24 N25 1.314 . S
C24 C26 1.353 . S
C24 H30 0.930 . S
N25 Li1 1.990 . S
N25 C24 1.314 . S
N25 C28 1.279 . S
C26 C24 1.353 . S
C26 C29 1.348 . S
C26 H74 0.929 . S
C27 C28 1.358 . S
C27 C29 1.356 . S
C27 H75 0.930 . S
C28 N25 1.279 . S
C28 C27 1.358 . S
C28 H31 0.930 . S
C29 C26 1.348 . S
C29 C27 1.356 . S
H30 C24 0.930 . S
H31 C28 0.930 . S
C32 C34 1.348 . S
C32 C35 1.356 . S
C32 O62 1.325 . S
N33 C36 1.314 . S
N33 C37 1.279 . S
C34 C32 1.348 . S
C34 C36 1.353 . S
C34 H76 0.929 . S
C35 C32 1.356 . S
C35 C37 1.358 . S
C35 H77 0.930 . S
C36 N33 1.314 . S
C36 C34 1.353 . S
C36 H78 0.930 . S
C37 N33 1.279 . S
C37 C35 1.358 . S
C37 H79 0.930 . S
C38 C39 1.347 1_554 S
C38 C40 1.357 . S
C38 O63 1.325 . S
C39 C38 1.347 1_556 S
C39 C41 1.353 . S
C39 H80 0.929 . S
C40 C38 1.357 . S
C40 C42 1.358 . S
C40 H81 0.930 . S
C41 C39 1.353 . S
C41 N43 1.314 . S
C41 H82 0.930 . S
C42 C40 1.358 . S
C42 N43 1.279 1_554 S
C42 H83 0.930 . S
N43 C41 1.314 . S
N43 C42 1.279 1_556 S
C44 C46 1.353 . S
C44 N47 1.314 1_554 S
C44 H50 0.930 . S
C45 N47 1.279 . S
C45 C48 1.358 . S
C45 H51 0.930 . S
C46 C44 1.353 . S
C46 C49 1.345 . S
C46 H84 0.929 . S
N47 Li2 1.991 . S
N47 C44 1.314 1_556 S
N47 C45 1.279 . S
C48 C45 1.358 . S
C48 C49 1.359 1_556 S
C48 H85 0.930 . S
C49 C46 1.345 . S
C49 C48 1.359 1_554 S
H50 C44 0.930 . S
H51 C45 0.930 . S
C52 N53 1.314 . S
C52 C54 1.353 . S
C52 H58 0.930 . S
N53 Li3 1.990 . S
N53 C52 1.314 . S
N53 C56 1.279 . S
C54 C52 1.353 . S
C54 C57 1.348 . S
C54 H86 0.929 . S
C55 C56 1.358 . S
C55 C57 1.356 . S
C55 H87 0.930 . S
C56 N53 1.279 . S
C56 C55 1.358 . S
C56 H59 0.930 . S
C57 C54 1.348 . S
C57 C55 1.356 . S
H58 C52 0.930 . S
H59 C56 0.930 . S
O60 Li0 1.956 . S
O60 Li1 1.970 . S
O60 Li2 1.938 1_554 S
O60 C4 1.325 . S
O61 Li0 1.969 1_556 S
O61 Li1 1.935 1_556 S
O61 Li3 1.981 . S
O61 C10 1.324 . S
O62 Li0 1.961 1_556 S
O62 Li2 1.978 . S
O62 Li3 1.970 . S
O62 C32 1.325 . S
O63 Li1 1.961 . S
O63 Li2 1.969 1_554 S
O63 Li3 1.956 1_554 S
O63 C38 1.325 . S
H64 C6 0.929 . S
H65 C7 0.930 . S
H66 C8 0.930 . S
H67 C9 0.930 . S
H68 C11 0.930 . S
H69 C13 0.929 . S
H70 C14 0.930 . S
H71 C15 0.930 . S
H72 C18 0.930 . S
H73 C21 0.929 . S
H74 C26 0.929 . S
H75 C27 0.930 . S
H76 C34 0.929 . S
H77 C35 0.930 . S
H78 C36 0.930 . S
H79 C37 0.930 . S
H80 C39 0.929 . S
H81 C40 0.930 . S
H82 C41 0.930 . S
H83 C42 0.930 . S
H84 C46 0.929 . S
H85 C48 0.930 . S
H86 C54 0.929 . S
H87 C55 0.930 . S
Li88 N105 1.990 . S
Li88 O148 1.956 . S
Li88 O149 1.969 1_554 S
Li88 O150 1.961 1_554 S
Li89 N113 1.990 . S
Li89 O148 1.970 . S
Li89 O149 1.935 1_554 S
Li89 O151 1.961 . S
Li90 N135 1.991 . S
Li90 O148 1.938 1_556 S
Li90 O150 1.978 . S
Li90 O151 1.969 1_556 S
Li91 N141 1.990 . S
Li91 O149 1.981 . S
Li91 O150 1.970 . S
Li91 O151 1.956 1_556 S
C92 C94 1.348 . S
C92 C95 1.356 . S
C92 O148 1.325 . S
N93 C96 1.314 . S
N93 C97 1.279 . S
C94 C92 1.348 . S
C94 C96 1.353 . S
C94 H152 0.929 . S
C95 C92 1.356 . S
C95 C97 1.358 . S
C95 H153 0.930 . S
C96 N93 1.314 . S
C96 C94 1.353 . S
C96 H154 0.930 . S
C97 N93 1.279 . S
C97 C95 1.358 . S
C97 H155 0.930 . S
C98 C101 1.349 1_556 S
C98 C102 1.355 . S
C98 O149 1.324 . S
C99 N100 1.279 1_556 S
C99 C102 1.358 . S
C99 H156 0.930 . S
N100 C99 1.279 1_554 S
N100 C103 1.314 . S
C101 C98 1.349 1_554 S
C101 C103 1.353 . S
C101 H157 0.929 . S
C102 C98 1.355 . S
C102 C99 1.358 . S
C102 H158 0.930 . S
C103 N100 1.314 . S
C103 C101 1.353 . S
C103 H159 0.930 . S
C104 N105 1.314 1_556 S
C104 C109 1.353 . S
C104 H110 0.930 . S
N105 Li88 1.990 . S
N105 C104 1.314 1_554 S
N105 C107 1.279 . S
C106 C107 1.358 . S
C106 C108 1.359 . S
C106 H160 0.930 . S
C107 N105 1.279 . S
C107 C106 1.358 . S
C107 H111 0.930 . S
C108 C106 1.359 . S
C108 C109 1.345 1_554 S
C109 C104 1.353 . S
C109 C108 1.345 1_556 S
C109 H161 0.929 . S
H110 C104 0.930 . S
H111 C107 0.930 . S
C112 N113 1.314 . S
C112 C114 1.353 . S
C112 H118 0.930 . S
N113 Li89 1.990 . S
N113 C112 1.314 . S
N113 C116 1.279 . S
C114 C112 1.353 . S
C114 C117 1.348 . S
C114 H162 0.929 . S
C115 C116 1.358 . S
C115 C117 1.356 . S
C115 H163 0.930 . S
C116 N113 1.279 . S
C116 C115 1.358 . S
C116 H119 0.930 . S
C117 C114 1.348 . S
C117 C115 1.356 . S
H118 C112 0.930 . S
H119 C116 0.930 . S
C120 C122 1.348 . S
C120 C123 1.356 . S
C120 O150 1.325 . S
N121 C124 1.314 . S
N121 C125 1.279 . S
C122 C120 1.348 . S
C122 C124 1.353 . S
C122 H164 0.929 . S
C123 C120 1.356 . S
C123 C125 1.358 . S
C123 H165 0.930 . S
C124 N121 1.314 . S
C124 C122 1.353 . S
C124 H166 0.930 . S
C125 N121 1.279 . S
C125 C123 1.358 . S
C125 H167 0.930 . S
C126 C127 1.347 1_554 S
C126 C128 1.357 . S
C126 O151 1.325 . S
C127 C126 1.347 1_556 S
C127 C129 1.353 . S
C127 H168 0.929 . S
C128 C126 1.357 . S
C128 C130 1.358 . S
C128 H169 0.930 . S
C129 C127 1.353 . S
C129 N131 1.314 . S
C129 H170 0.930 . S
C130 C128 1.358 . S
C130 N131 1.279 1_554 S
C130 H171 0.930 . S
N131 C129 1.314 . S
N131 C130 1.279 1_556 S
C132 C134 1.353 . S
C132 N135 1.314 1_554 S
C132 H138 0.930 . S
C133 N135 1.279 . S
C133 C136 1.358 . S
C133 H139 0.930 . S
C134 C132 1.353 . S
C134 C137 1.345 . S
C134 H172 0.929 . S
N135 Li90 1.991 . S
N135 C132 1.314 1_556 S
N135 C133 1.279 . S
C136 C133 1.358 . S
C136 C137 1.359 1_556 S
C136 H173 0.930 . S
C137 C134 1.345 . S
C137 C136 1.359 1_554 S
H138 C132 0.930 . S
H139 C133 0.930 . S
C140 N141 1.314 . S
C140 C142 1.353 . S
C140 H146 0.930 . S
N141 Li91 1.990 . S
N141 C140 1.314 . S
N141 C144 1.279 . S
C142 C140 1.353 . S
C142 C145 1.348 . S
C142 H174 0.929 . S
C143 C144 1.358 . S
C143 C145 1.356 . S
C143 H175 0.930 . S
C144 N141 1.279 . S
C144 C143 1.358 . S
C144 H147 0.930 . S
C145 C142 1.348 . S
C145 C143 1.356 . S
H146 C140 0.930 . S
H147 C144 0.930 . S
O148 Li88 1.956 . S
O148 Li89 1.970 . S
O148 Li90 1.938 1_554 S
O148 C92 1.325 . S
O149 Li88 1.969 1_556 S
O149 Li89 1.935 1_556 S
O149 Li91 1.981 . S
O149 C98 1.324 . S
O150 Li88 1.961 1_556 S
O150 Li90 1.978 . S
O150 Li91 1.970 . S
O150 C120 1.325 . S
O151 Li89 1.961 . S
O151 Li90 1.969 1_554 S
O151 Li91 1.956 1_554 S
O151 C126 1.325 . S
H152 C94 0.929 . S
H153 C95 0.930 . S
H154 C96 0.930 . S
H155 C97 0.930 . S
H156 C99 0.930 . S
H157 C101 0.929 . S
H158 C102 0.930 . S
H159 C103 0.930 . S
H160 C106 0.930 . S
H161 C109 0.929 . S
H162 C114 0.929 . S
H163 C115 0.930 . S
H164 C122 0.929 . S
H165 C123 0.930 . S
H166 C124 0.930 . S
H167 C125 0.930 . S
H168 C127 0.929 . S
H169 C128 0.930 . S
H170 C129 0.930 . S
H171 C130 0.930 . S
H172 C134 0.929 . S
H173 C136 0.930 . S
H174 C142 0.929 . S
H175 C143 0.930 . S
Li176 N193 1.990 . S
Li176 O236 1.935 1_554 S
Li176 O237 1.970 . S
Li176 O238 1.961 . S
Li177 N201 1.990 . S
Li177 O236 1.969 1_554 S
Li177 O237 1.956 . S
Li177 O239 1.961 1_554 S
Li178 N223 1.990 . S
Li178 O236 1.981 . S
Li178 O238 1.956 1_556 S
Li178 O239 1.970 . S
Li179 N229 1.991 . S
Li179 O237 1.938 1_556 S
Li179 O238 1.969 1_556 S
Li179 O239 1.978 . S
C180 C182 1.349 1_556 S
C180 C183 1.355 . S
C180 O236 1.324 . S
N181 C184 1.314 . S
N181 C185 1.279 1_554 S
C182 C180 1.349 1_554 S
C182 C184 1.353 . S
C182 H240 0.929 . S
C183 C180 1.355 . S
C183 C185 1.358 . S
C183 H241 0.930 . S
C184 N181 1.314 . S
C184 C182 1.353 . S
C184 H242 0.930 . S
C185 N181 1.279 1_556 S
C185 C183 1.358 . S
C185 H243 0.930 . S
C186 C189 1.348 . S
C186 C190 1.356 . S
C186 O237 1.325 . S
C187 N188 1.279 . S
C187 C190 1.358 . S
C187 H244 0.930 . S
N188 C187 1.279 . S
N188 C191 1.314 . S
C189 C186 1.348 . S
C189 C191 1.353 . S
C189 H245 0.929 . S
C190 C186 1.356 . S
C190 C187 1.358 . S
C190 H246 0.930 . S
C191 N188 1.314 . S
C191 C189 1.353 . S
C191 H247 0.930 . S
C192 N193 1.314 . S
C192 C197 1.353 . S
C192 H198 0.930 . S
N193 Li176 1.990 . S
N193 C192 1.314 . S
N193 C195 1.279 . S
C194 C195 1.358 . S
C194 C196 1.356 . S
C194 H248 0.930 . S
C195 N193 1.279 . S
C195 C194 1.358 . S
C195 H199 0.930 . S
C196 C194 1.356 . S
C196 C197 1.348 . S
C197 C192 1.353 . S
C197 C196 1.348 . S
C197 H249 0.929 . S
H198 C192 0.930 . S
H199 C195 0.930 . S
C200 N201 1.314 1_556 S
C200 C202 1.353 . S
C200 H206 0.930 . S
N201 Li177 1.990 . S
N201 C200 1.314 1_554 S
N201 C204 1.279 . S
C202 C200 1.353 . S
C202 C205 1.345 1_556 S
C202 H250 0.929 . S
C203 C204 1.358 . S
C203 C205 1.359 . S
C203 H251 0.930 . S
C204 N201 1.279 . S
C204 C203 1.358 . S
C204 H207 0.930 . S
C205 C202 1.345 1_554 S
C205 C203 1.359 . S
H206 C200 0.930 . S
H207 C204 0.930 . S
C208 C210 1.347 1_554 S
C208 C211 1.357 . S
C208 O238 1.325 . S
N209 C212 1.314 . S
N209 C213 1.279 1_556 S
C210 C208 1.347 1_556 S
C210 C212 1.353 . S
C210 H252 0.929 . S
C211 C208 1.357 . S
C211 C213 1.358 . S
C211 H253 0.930 . S
C212 N209 1.314 . S
C212 C210 1.353 . S
C212 H254 0.930 . S
C213 N209 1.279 1_554 S
C213 C211 1.358 . S
C213 H255 0.930 . S
C214 C215 1.348 . S
C214 C216 1.356 . S
C214 O239 1.325 . S
C215 C214 1.348 . S
C215 C217 1.353 . S
C215 H256 0.929 . S
C216 C214 1.356 . S
C216 C218 1.358 . S
C216 H257 0.930 . S
C217 C215 1.353 . S
C217 N219 1.314 . S
C217 H258 0.930 . S
C218 C216 1.358 . S
C218 N219 1.279 . S
C218 H259 0.930 . S
N219 C217 1.314 . S
N219 C218 1.279 . S
C220 C222 1.353 . S
C220 N223 1.314 . S
C220 H226 0.930 . S
C221 N223 1.279 . S
C221 C224 1.358 . S
C221 H227 0.930 . S
C222 C220 1.353 . S
C222 C225 1.348 . S
C222 H260 0.929 . S
N223 Li178 1.990 . S
N223 C220 1.314 . S
N223 C221 1.279 . S
C224 C221 1.358 . S
C224 C225 1.356 . S
C224 H261 0.930 . S
C225 C222 1.348 . S
C225 C224 1.356 . S
H226 C220 0.930 . S
H227 C221 0.930 . S
C228 N229 1.314 1_554 S
C228 C230 1.353 . S
C228 H234 0.930 . S
N229 Li179 1.991 . S
N229 C228 1.314 1_556 S
N229 C232 1.279 . S
C230 C228 1.353 . S
C230 C233 1.345 . S
C230 H262 0.929 . S
C231 C232 1.358 . S
C231 C233 1.359 1_556 S
C231 H263 0.930 . S
C232 N229 1.279 . S
C232 C231 1.358 . S
C232 H235 0.930 . S
C233 C230 1.345 . S
C233 C231 1.359 1_554 S
H234 C228 0.930 . S
H235 C232 0.930 . S
O236 Li176 1.935 1_556 S
O236 Li177 1.969 1_556 S
O236 Li178 1.981 . S
O236 C180 1.324 . S
O237 Li176 1.970 . S
O237 Li177 1.956 . S
O237 Li179 1.938 1_554 S
O237 C186 1.325 . S
O238 Li176 1.961 . S
O238 Li178 1.956 1_554 S
O238 Li179 1.969 1_554 S
O238 C208 1.325 . S
O239 Li177 1.961 1_556 S
O239 Li178 1.970 . S
O239 Li179 1.978 . S
O239 C214 1.325 . S
H240 C182 0.929 . S
H241 C183 0.930 . S
H242 C184 0.930 . S
H243 C185 0.930 . S
H244 C187 0.930 . S
H245 C189 0.929 . S
H246 C190 0.930 . S
H247 C191 0.930 . S
H248 C194 0.930 . S
H249 C197 0.929 . S
H250 C202 0.929 . S
H251 C203 0.930 . S
H252 C210 0.929 . S
H253 C211 0.930 . S
H254 C212 0.930 . S
H255 C213 0.930 . S
H256 C215 0.929 . S
H257 C216 0.930 . S
H258 C217 0.930 . S
H259 C218 0.930 . S
H260 C222 0.929 . S
H261 C224 0.930 . S
H262 C230 0.929 . S
H263 C231 0.930 . S
Li264 N281 1.990 . S
Li264 O324 1.935 1_554 S
Li264 O325 1.970 . S
Li264 O326 1.961 . S
Li265 N289 1.990 . S
Li265 O324 1.969 1_554 S
Li265 O325 1.956 . S
Li265 O327 1.961 1_554 S
Li266 N311 1.990 . S
Li266 O324 1.981 . S
Li266 O326 1.956 1_556 S
Li266 O327 1.970 . S
Li267 N317 1.991 . S
Li267 O325 1.938 1_556 S
Li267 O326 1.969 1_556 S
Li267 O327 1.978 . S
C268 C270 1.349 1_556 S
C268 C271 1.355 . S
C268 O324 1.324 . S
N269 C272 1.314 . S
N269 C273 1.279 1_554 S
C270 C268 1.349 1_554 S
C270 C272 1.353 . S
C270 H328 0.929 . S
C271 C268 1.355 . S
C271 C273 1.358 . S
C271 H329 0.930 . S
C272 N269 1.314 . S
C272 C270 1.353 . S
C272 H330 0.930 . S
C273 N269 1.279 1_556 S
C273 C271 1.358 . S
C273 H331 0.930 . S
C274 C277 1.348 . S
C274 C278 1.356 . S
C274 O325 1.325 . S
C275 N276 1.279 . S
C275 C278 1.358 . S
C275 H332 0.930 . S
N276 C275 1.279 . S
N276 C279 1.314 . S
C277 C274 1.348 . S
C277 C279 1.353 . S
C277 H333 0.929 . S
C278 C274 1.356 . S
C278 C275 1.358 . S
C278 H334 0.930 . S
C279 N276 1.314 . S
C279 C277 1.353 . S
C279 H335 0.930 . S
C280 N281 1.314 . S
C280 C285 1.353 . S
C280 H286 0.930 . S
N281 Li264 1.990 . S
N281 C280 1.314 . S
N281 C283 1.279 . S
C282 C283 1.358 . S
C282 C284 1.356 . S
C282 H336 0.930 . S
C283 N281 1.279 . S
C283 C282 1.358 . S
C283 H287 0.930 . S
C284 C282 1.356 . S
C284 C285 1.348 . S
C285 C280 1.353 . S
C285 C284 1.348 . S
C285 H337 0.929 . S
H286 C280 0.930 . S
H287 C283 0.930 . S
C288 N289 1.314 1_556 S
C288 C290 1.353 . S
C288 H294 0.930 . S
N289 Li265 1.990 . S
N289 C288 1.314 1_554 S
N289 C292 1.279 . S
C290 C288 1.353 . S
C290 C293 1.345 1_556 S
C290 H338 0.929 . S
C291 C292 1.358 . S
C291 C293 1.359 . S
C291 H339 0.930 . S
C292 N289 1.279 . S
C292 C291 1.358 . S
C292 H295 0.930 . S
C293 C290 1.345 1_554 S
C293 C291 1.359 . S
H294 C288 0.930 . S
H295 C292 0.930 . S
C296 C298 1.347 1_554 S
C296 C299 1.357 . S
C296 O326 1.325 . S
N297 C300 1.314 . S
N297 C301 1.279 1_556 S
C298 C296 1.347 1_556 S
C298 C300 1.353 . S
C298 H340 0.929 . S
C299 C296 1.357 . S
C299 C301 1.358 . S
C299 H341 0.930 . S
C300 N297 1.314 . S
C300 C298 1.353 . S
C300 H342 0.930 . S
C301 N297 1.279 1_554 S
C301 C299 1.358 . S
C301 H343 0.930 . S
C302 C303 1.348 . S
C302 C304 1.356 . S
C302 O327 1.325 . S
C303 C302 1.348 . S
C303 C305 1.353 . S
C303 H344 0.929 . S
C304 C302 1.356 . S
C304 C306 1.358 . S
C304 H345 0.930 . S
C305 C303 1.353 . S
C305 N307 1.314 . S
C305 H346 0.930 . S
C306 C304 1.358 . S
C306 N307 1.279 . S
C306 H347 0.930 . S
N307 C305 1.314 . S
N307 C306 1.279 . S
C308 C310 1.353 . S
C308 N311 1.314 . S
C308 H314 0.930 . S
C309 N311 1.279 . S
C309 C312 1.358 . S
C309 H315 0.930 . S
C310 C308 1.353 . S
C310 C313 1.348 . S
C310 H348 0.929 . S
N311 Li266 1.990 . S
N311 C308 1.314 . S
N311 C309 1.279 . S
C312 C309 1.358 . S
C312 C313 1.356 . S
C312 H349 0.930 . S
C313 C310 1.348 . S
C313 C312 1.356 . S
H314 C308 0.930 . S
H315 C309 0.930 . S
C316 N317 1.314 1_554 S
C316 C318 1.353 . S
C316 H322 0.930 . S
N317 Li267 1.991 . S
N317 C316 1.314 1_556 S
N317 C320 1.279 . S
C318 C316 1.353 . S
C318 C321 1.345 . S
C318 H350 0.929 . S
C319 C320 1.358 . S
C319 C321 1.359 1_556 S
C319 H351 0.930 . S
C320 N317 1.279 . S
C320 C319 1.358 . S
C320 H323 0.930 . S
C321 C318 1.345 . S
C321 C319 1.359 1_554 S
H322 C316 0.930 . S
H323 C320 0.930 . S
O324 Li264 1.935 1_556 S
O324 Li265 1.969 1_556 S
O324 Li266 1.981 . S
O324 C268 1.324 . S
O325 Li264 1.970 . S
O325 Li265 1.956 . S
O325 Li267 1.938 1_554 S
O325 C274 1.325 . S
O326 Li264 1.961 . S
O326 Li266 1.956 1_554 S
O326 Li267 1.969 1_554 S
O326 C296 1.325 . S
O327 Li265 1.961 1_556 S
O327 Li266 1.970 . S
O327 Li267 1.978 . S
O327 C302 1.325 . S
H328 C270 0.929 . S
H329 C271 0.930 . S
H330 C272 0.930 . S
H331 C273 0.930 . S
H332 C275 0.930 . S
H333 C277 0.929 . S
H334 C278 0.930 . S
H335 C279 0.930 . S
H336 C282 0.930 . S
H337 C285 0.929 . S
H338 C290 0.929 . S
H339 C291 0.930 . S
H340 C298 0.929 . S
H341 C299 0.930 . S
H342 C300 0.930 . S
H343 C301 0.930 . S
H344 C303 0.929 . S
H345 C304 0.930 . S
H346 C305 0.930 . S
H347 C306 0.930 . S
H348 C310 0.929 . S
H349 C312 0.930 . S
H350 C318 0.929 . S
H351 C319 0.930 . S
Li352 N369 1.990 . S
Li352 O412 1.935 1_554 S
Li352 O413 1.970 . S
Li352 O414 1.961 . S
Li353 N377 1.990 . S
Li353 O412 1.969 1_554 S
Li353 O413 1.956 . S
Li353 O415 1.961 1_554 S
Li354 N399 1.990 . S
Li354 O412 1.981 . S
Li354 O414 1.956 1_556 S
Li354 O415 1.970 . S
Li355 N405 1.991 . S
Li355 O413 1.938 1_556 S
Li355 O414 1.969 1_556 S
Li355 O415 1.978 . S
C356 C358 1.349 1_556 S
C356 C359 1.355 . S
C356 O412 1.324 . S
N357 C360 1.314 . S
N357 C361 1.279 1_554 S
C358 C356 1.349 1_554 S
C358 C360 1.353 . S
C358 H416 0.929 . S
C359 C356 1.355 . S
C359 C361 1.358 . S
C359 H417 0.930 . S
C360 N357 1.314 . S
C360 C358 1.353 . S
C360 H418 0.930 . S
C361 N357 1.279 1_556 S
C361 C359 1.358 . S
C361 H419 0.930 . S
C362 C365 1.348 . S
C362 C366 1.356 . S
C362 O413 1.325 . S
C363 N364 1.279 . S
C363 C366 1.358 . S
C363 H420 0.930 . S
N364 C363 1.279 . S
N364 C367 1.314 . S
C365 C362 1.348 . S
C365 C367 1.353 . S
C365 H421 0.929 . S
C366 C362 1.356 . S
C366 C363 1.358 . S
C366 H422 0.930 . S
C367 N364 1.314 . S
C367 C365 1.353 . S
C367 H423 0.930 . S
C368 N369 1.314 . S
C368 C373 1.353 . S
C368 H374 0.930 . S
N369 Li352 1.990 . S
N369 C368 1.314 . S
N369 C371 1.279 . S
C370 C371 1.358 . S
C370 C372 1.356 . S
C370 H424 0.930 . S
C371 N369 1.279 . S
C371 C370 1.358 . S
C371 H375 0.930 . S
C372 C370 1.356 . S
C372 C373 1.348 . S
C373 C368 1.353 . S
C373 C372 1.348 . S
C373 H425 0.929 . S
H374 C368 0.930 . S
H375 C371 0.930 . S
C376 N377 1.314 1_556 S
C376 C378 1.353 . S
C376 H382 0.930 . S
N377 Li353 1.990 . S
N377 C376 1.314 1_554 S
N377 C380 1.279 . S
C378 C376 1.353 . S
C378 C381 1.345 1_556 S
C378 H426 0.929 . S
C379 C380 1.358 . S
C379 C381 1.359 . S
C379 H427 0.930 . S
C380 N377 1.279 . S
C380 C379 1.358 . S
C380 H383 0.930 . S
C381 C378 1.345 1_554 S
C381 C379 1.359 . S
H382 C376 0.930 . S
H383 C380 0.930 . S
C384 C386 1.346 1_554 S
C384 C387 1.357 . S
C384 O414 1.325 . S
N385 C388 1.314 . S
N385 C389 1.279 1_556 S
C386 C384 1.346 1_556 S
C386 C388 1.353 . S
C386 H428 0.929 . S
C387 C384 1.357 . S
C387 C389 1.358 . S
C387 H429 0.930 . S
C388 N385 1.314 . S
C388 C386 1.353 . S
C388 H430 0.930 . S
C389 N385 1.279 1_554 S
C389 C387 1.358 . S
C389 H431 0.930 . S
C390 C391 1.348 . S
C390 C392 1.356 . S
C390 O415 1.325 . S
C391 C390 1.348 . S
C391 C393 1.353 . S
C391 H432 0.929 . S
C392 C390 1.356 . S
C392 C394 1.358 . S
C392 H433 0.930 . S
C393 C391 1.353 . S
C393 N395 1.314 . S
C393 H434 0.930 . S
C394 C392 1.358 . S
C394 N395 1.279 . S
C394 H435 0.930 . S
N395 C393 1.314 . S
N395 C394 1.279 . S
C396 C398 1.353 . S
C396 N399 1.314 . S
C396 H402 0.930 . S
C397 N399 1.279 . S
C397 C400 1.358 . S
C397 H403 0.930 . S
C398 C396 1.353 . S
C398 C401 1.348 . S
C398 H436 0.929 . S
N399 Li354 1.990 . S
N399 C396 1.314 . S
N399 C397 1.279 . S
C400 C397 1.358 . S
C400 C401 1.356 . S
C400 H437 0.930 . S
C401 C398 1.348 . S
C401 C400 1.356 . S
H402 C396 0.930 . S
H403 C397 0.930 . S
C404 N405 1.314 1_554 S
C404 C406 1.353 . S
C404 H410 0.930 . S
N405 Li355 1.991 . S
N405 C404 1.314 1_556 S
N405 C408 1.279 . S
C406 C404 1.353 . S
C406 C409 1.345 . S
C406 H438 0.929 . S
C407 C408 1.358 . S
C407 C409 1.359 1_556 S
C407 H439 0.930 . S
C408 N405 1.279 . S
C408 C407 1.358 . S
C408 H411 0.930 . S
C409 C406 1.345 . S
C409 C407 1.359 1_554 S
H410 C404 0.930 . S
H411 C408 0.930 . S
O412 Li352 1.935 1_556 S
O412 Li353 1.969 1_556 S
O412 Li354 1.981 . S
O412 C356 1.324 . S
O413 Li352 1.970 . S
O413 Li353 1.956 . S
O413 Li355 1.938 1_554 S
O413 C362 1.325 . S
O414 Li352 1.961 . S
O414 Li354 1.956 1_554 S
O414 Li355 1.969 1_554 S
O414 C384 1.325 . S
O415 Li353 1.961 1_556 S
O415 Li354 1.970 . S
O415 Li355 1.978 . S
O415 C390 1.325 . S
H416 C358 0.929 . S
H417 C359 0.930 . S
H418 C360 0.930 . S
H419 C361 0.930 . S
H420 C363 0.930 . S
H421 C365 0.929 . S
H422 C366 0.930 . S
H423 C367 0.930 . S
H424 C370 0.930 . S
H425 C373 0.929 . S
H426 C378 0.929 . S
H427 C379 0.930 . S
H428 C386 0.929 . S
H429 C387 0.930 . S
H430 C388 0.930 . S
H431 C389 0.930 . S
H432 C391 0.929 . S
H433 C392 0.930 . S
H434 C393 0.930 . S
H435 C394 0.930 . S
H436 C398 0.929 . S
H437 C400 0.930 . S
H438 C406 0.929 . S
H439 C407 0.930 . S
Li440 N457 1.990 . S
Li440 O500 1.956 . S
Li440 O501 1.969 1_554 S
Li440 O502 1.961 1_554 S
Li441 N465 1.990 . S
Li441 O500 1.970 . S
Li441 O501 1.935 1_554 S
Li441 O503 1.961 . S
Li442 N487 1.991 . S
Li442 O500 1.938 1_556 S
Li442 O502 1.978 . S
Li442 O503 1.969 1_556 S
Li443 N493 1.990 . S
Li443 O501 1.981 . S
Li443 O502 1.970 . S
Li443 O503 1.956 1_556 S
C444 C446 1.348 . S
C444 C447 1.356 . S
C444 O500 1.325 . S
N445 C448 1.314 . S
N445 C449 1.279 . S
C446 C444 1.348 . S
C446 C448 1.353 . S
C446 H504 0.929 . S
C447 C444 1.356 . S
C447 C449 1.358 . S
C447 H505 0.930 . S
C448 N445 1.314 . S
C448 C446 1.353 . S
C448 H506 0.930 . S
C449 N445 1.279 . S
C449 C447 1.358 . S
C449 H507 0.930 . S
C450 C453 1.349 1_556 S
C450 C454 1.355 . S
C450 O501 1.324 . S
C451 N452 1.279 1_556 S
C451 C454 1.358 . S
C451 H508 0.930 . S
N452 C451 1.279 1_554 S
N452 C455 1.314 . S
C453 C450 1.349 1_554 S
C453 C455 1.353 . S
C453 H509 0.929 . S
C454 C450 1.355 . S
C454 C451 1.358 . S
C454 H510 0.930 . S
C455 N452 1.314 . S
C455 C453 1.353 . S
C455 H511 0.930 . S
C456 N457 1.314 1_556 S
C456 C461 1.353 . S
C456 H462 0.930 . S
N457 Li440 1.990 . S
N457 C456 1.314 1_554 S
N457 C459 1.279 . S
C458 C459 1.358 . S
C458 C460 1.359 . S
C458 H512 0.930 . S
C459 N457 1.279 . S
C459 C458 1.358 . S
C459 H463 0.930 . S
C460 C458 1.359 . S
C460 C461 1.345 1_554 S
C461 C456 1.353 . S
C461 C460 1.345 1_556 S
C461 H513 0.929 . S
H462 C456 0.930 . S
H463 C459 0.930 . S
C464 N465 1.314 . S
C464 C466 1.353 . S
C464 H470 0.930 . S
N465 Li441 1.990 . S
N465 C464 1.314 . S
N465 C468 1.279 . S
C466 C464 1.353 . S
C466 C469 1.348 . S
C466 H514 0.929 . S
C467 C468 1.358 . S
C467 C469 1.356 . S
C467 H515 0.930 . S
C468 N465 1.279 . S
C468 C467 1.358 . S
C468 H471 0.930 . S
C469 C466 1.348 . S
C469 C467 1.356 . S
H470 C464 0.930 . S
H471 C468 0.930 . S
C472 C474 1.348 . S
C472 C475 1.356 . S
C472 O502 1.325 . S
N473 C476 1.314 . S
N473 C477 1.279 . S
C474 C472 1.348 . S
C474 C476 1.353 . S
C474 H516 0.929 . S
C475 C472 1.356 . S
C475 C477 1.358 . S
C475 H517 0.930 . S
C476 N473 1.314 . S
C476 C474 1.353 . S
C476 H518 0.930 . S
C477 N473 1.279 . S
C477 C475 1.358 . S
C477 H519 0.930 . S
C478 C479 1.346 1_554 S
C478 C480 1.357 . S
C478 O503 1.325 . S
C479 C478 1.346 1_556 S
C479 C481 1.353 . S
C479 H520 0.929 . S
C480 C478 1.357 . S
C480 C482 1.358 . S
C480 H521 0.930 . S
C481 C479 1.353 . S
C481 N483 1.314 . S
C481 H522 0.930 . S
C482 C480 1.358 . S
C482 N483 1.279 1_554 S
C482 H523 0.930 . S
N483 C481 1.314 . S
N483 C482 1.279 1_556 S
C484 C486 1.353 . S
C484 N487 1.314 1_554 S
C484 H490 0.930 . S
C485 N487 1.279 . S
C485 C488 1.358 . S
C485 H491 0.930 . S
C486 C484 1.353 . S
C486 C489 1.345 . S
C486 H524 0.929 . S
N487 Li442 1.991 . S
N487 C484 1.314 1_556 S
N487 C485 1.279 . S
C488 C485 1.358 . S
C488 C489 1.359 1_556 S
C488 H525 0.930 . S
C489 C486 1.345 . S
C489 C488 1.359 1_554 S
H490 C484 0.930 . S
H491 C485 0.930 . S
C492 N493 1.314 . S
C492 C494 1.353 . S
C492 H498 0.930 . S
N493 Li443 1.990 . S
N493 C492 1.314 . S
N493 C496 1.279 . S
C494 C492 1.353 . S
C494 C497 1.348 . S
C494 H526 0.929 . S
C495 C496 1.358 . S
C495 C497 1.356 . S
C495 H527 0.930 . S
C496 N493 1.279 . S
C496 C495 1.358 . S
C496 H499 0.930 . S
C497 C494 1.348 . S
C497 C495 1.356 . S
H498 C492 0.930 . S
H499 C496 0.930 . S
O500 Li440 1.956 . S
O500 Li441 1.970 . S
O500 Li442 1.938 1_554 S
O500 C444 1.325 . S
O501 Li440 1.969 1_556 S
O501 Li441 1.935 1_556 S
O501 Li443 1.981 . S
O501 C450 1.324 . S
O502 Li440 1.961 1_556 S
O502 Li442 1.978 . S
O502 Li443 1.970 . S
O502 C472 1.325 . S
O503 Li441 1.961 . S
O503 Li442 1.969 1_554 S
O503 Li443 1.956 1_554 S
O503 C478 1.325 . S
H504 C446 0.929 . S
H505 C447 0.930 . S
H506 C448 0.930 . S
H507 C449 0.930 . S
H508 C451 0.930 . S
H509 C453 0.929 . S
H510 C454 0.930 . S
H511 C455 0.930 . S
H512 C458 0.930 . S
H513 C461 0.929 . S
H514 C466 0.929 . S
H515 C467 0.930 . S
H516 C474 0.929 . S
H517 C475 0.930 . S
H518 C476 0.930 . S
H519 C477 0.930 . S
H520 C479 0.929 . S
H521 C480 0.930 . S
H522 C481 0.930 . S
H523 C482 0.930 . S
H524 C486 0.929 . S
H525 C488 0.930 . S
H526 C494 0.929 . S
H527 C495 0.930 . S
Li528 N545 1.990 . S
Li528 O588 1.935 1_554 S
Li528 O589 1.970 . S
Li528 O590 1.961 . S
Li529 N553 1.990 . S
Li529 O588 1.969 1_554 S
Li529 O589 1.956 . S
Li529 O591 1.961 1_554 S
Li530 N575 1.990 . S
Li530 O588 1.981 . S
Li530 O590 1.956 1_556 S
Li530 O591 1.970 . S
Li531 N581 1.991 . S
Li531 O589 1.938 1_556 S
Li531 O590 1.969 1_556 S
Li531 O591 1.978 . S
C532 C534 1.349 1_556 S
C532 C535 1.355 . S
C532 O588 1.324 . S
N533 C536 1.314 . S
N533 C537 1.279 1_554 S
C534 C532 1.349 1_554 S
C534 C536 1.353 . S
C534 H592 0.929 . S
C535 C532 1.355 . S
C535 C537 1.358 . S
C535 H593 0.930 . S
C536 N533 1.314 . S
C536 C534 1.353 . S
C536 H594 0.930 . S
C537 N533 1.279 1_556 S
C537 C535 1.358 . S
C537 H595 0.930 . S
C538 C541 1.348 . S
C538 C542 1.356 . S
C538 O589 1.325 . S
C539 N540 1.279 . S
C539 C542 1.358 . S
C539 H596 0.930 . S
N540 C539 1.279 . S
N540 C543 1.314 . S
C541 C538 1.348 . S
C541 C543 1.353 . S
C541 H597 0.929 . S
C542 C538 1.356 . S
C542 C539 1.358 . S
C542 H598 0.930 . S
C543 N540 1.314 . S
C543 C541 1.353 . S
C543 H599 0.930 . S
C544 N545 1.314 . S
C544 C549 1.353 . S
C544 H550 0.930 . S
N545 Li528 1.990 . S
N545 C544 1.314 . S
N545 C547 1.279 . S
C546 C547 1.358 . S
C546 C548 1.356 . S
C546 H600 0.930 . S
C547 N545 1.279 . S
C547 C546 1.358 . S
C547 H551 0.930 . S
C548 C546 1.356 . S
C548 C549 1.348 . S
C549 C544 1.353 . S
C549 C548 1.348 . S
C549 H601 0.929 . S
H550 C544 0.930 . S
H551 C547 0.930 . S
C552 N553 1.314 1_556 S
C552 C554 1.353 . S
C552 H558 0.930 . S
N553 Li529 1.990 . S
N553 C552 1.314 1_554 S
N553 C556 1.279 . S
C554 C552 1.353 . S
C554 C557 1.345 1_556 S
C554 H602 0.929 . S
C555 C556 1.358 . S
C555 C557 1.359 . S
C555 H603 0.930 . S
C556 N553 1.279 . S
C556 C555 1.358 . S
C556 H559 0.930 . S
C557 C554 1.345 1_554 S
C557 C555 1.359 . S
H558 C552 0.930 . S
H559 C556 0.930 . S
C560 C562 1.346 1_554 S
C560 C563 1.357 . S
C560 O590 1.325 . S
N561 C564 1.314 . S
N561 C565 1.279 1_556 S
C562 C560 1.346 1_556 S
C562 C564 1.353 . S
C562 H604 0.929 . S
C563 C560 1.357 . S
C563 C565 1.358 . S
C563 H605 0.930 . S
C564 N561 1.314 . S
C564 C562 1.353 . S
C564 H606 0.930 . S
C565 N561 1.279 1_554 S
C565 C563 1.358 . S
C565 H607 0.930 . S
C566 C567 1.348 . S
C566 C568 1.356 . S
C566 O591 1.325 . S
C567 C566 1.348 . S
C567 C569 1.353 . S
C567 H608 0.929 . S
C568 C566 1.356 . S
C568 C570 1.358 . S
C568 H609 0.930 . S
C569 C567 1.353 . S
C569 N571 1.314 . S
C569 H610 0.930 . S
C570 C568 1.358 . S
C570 N571 1.279 . S
C570 H611 0.930 . S
N571 C569 1.314 . S
N571 C570 1.279 . S
C572 C574 1.353 . S
C572 N575 1.314 . S
C572 H578 0.930 . S
C573 N575 1.279 . S
C573 C576 1.358 . S
C573 H579 0.930 . S
C574 C572 1.353 . S
C574 C577 1.348 . S
C574 H612 0.929 . S
N575 Li530 1.990 . S
N575 C572 1.314 . S
N575 C573 1.279 . S
C576 C573 1.358 . S
C576 C577 1.356 . S
C576 H613 0.930 . S
C577 C574 1.348 . S
C577 C576 1.356 . S
H578 C572 0.930 . S
H579 C573 0.930 . S
C580 N581 1.314 1_554 S
C580 C582 1.353 . S
C580 H586 0.930 . S
N581 Li531 1.991 . S
N581 C580 1.314 1_556 S
N581 C584 1.279 . S
C582 C580 1.353 . S
C582 C585 1.345 . S
C582 H614 0.929 . S
C583 C584 1.358 . S
C583 C585 1.359 1_556 S
C583 H615 0.930 . S
C584 N581 1.279 . S
C584 C583 1.358 . S
C584 H587 0.930 . S
C585 C582 1.345 . S
C585 C583 1.359 1_554 S
H586 C580 0.930 . S
H587 C584 0.930 . S
O588 Li528 1.935 1_556 S
O588 Li529 1.969 1_556 S
O588 Li530 1.981 . S
O588 C532 1.324 . S
O589 Li528 1.970 . S
O589 Li529 1.956 . S
O589 Li531 1.938 1_554 S
O589 C538 1.325 . S
O590 Li528 1.961 . S
O590 Li530 1.956 1_554 S
O590 Li531 1.969 1_554 S
O590 C560 1.325 . S
O591 Li529 1.961 1_556 S
O591 Li530 1.970 . S
O591 Li531 1.978 . S
O591 C566 1.325 . S
H592 C534 0.929 . S
H593 C535 0.930 . S
H594 C536 0.930 . S
H595 C537 0.930 . S
H596 C539 0.930 . S
H597 C541 0.929 . S
H598 C542 0.930 . S
H599 C543 0.930 . S
H600 C546 0.930 . S
H601 C549 0.929 . S
H602 C554 0.929 . S
H603 C555 0.930 . S
H604 C562 0.929 . S
H605 C563 0.930 . S
H606 C564 0.930 . S
H607 C565 0.930 . S
H608 C567 0.929 . S
H609 C568 0.930 . S
H610 C569 0.930 . S
H611 C570 0.930 . S
H612 C574 0.929 . S
H613 C576 0.930 . S
H614 C582 0.929 . S
H615 C583 0.930 . S
Li616 N633 1.990 . S
Li616 O676 1.935 1_554 S
Li616 O677 1.970 . S
Li616 O678 1.961 . S
Li617 N641 1.990 . S
Li617 O676 1.969 1_554 S
Li617 O677 1.956 . S
Li617 O679 1.961 1_554 S
Li618 N663 1.990 . S
Li618 O676 1.981 . S
Li618 O678 1.956 1_556 S
Li618 O679 1.970 . S
Li619 N669 1.991 . S
Li619 O677 1.938 1_556 S
Li619 O678 1.969 1_556 S
Li619 O679 1.978 . S
C620 C622 1.349 1_556 S
C620 C623 1.355 . S
C620 O676 1.324 . S
N621 C624 1.314 . S
N621 C625 1.279 1_554 S
C622 C620 1.349 1_554 S
C622 C624 1.353 . S
C622 H680 0.929 . S
C623 C620 1.355 . S
C623 C625 1.358 . S
C623 H681 0.930 . S
C624 N621 1.314 . S
C624 C622 1.353 . S
C624 H682 0.930 . S
C625 N621 1.279 1_556 S
C625 C623 1.358 . S
C625 H683 0.930 . S
C626 C629 1.348 . S
C626 C630 1.356 . S
C626 O677 1.325 . S
C627 N628 1.279 . S
C627 C630 1.358 . S
C627 H684 0.930 . S
N628 C627 1.279 . S
N628 C631 1.314 . S
C629 C626 1.348 . S
C629 C631 1.353 . S
C629 H685 0.929 . S
C630 C626 1.356 . S
C630 C627 1.358 . S
C630 H686 0.930 . S
C631 N628 1.314 . S
C631 C629 1.353 . S
C631 H687 0.930 . S
C632 N633 1.314 . S
C632 C637 1.353 . S
C632 H638 0.930 . S
N633 Li616 1.990 . S
N633 C632 1.314 . S
N633 C635 1.279 . S
C634 C635 1.358 . S
C634 C636 1.356 . S
C634 H688 0.930 . S
C635 N633 1.279 . S
C635 C634 1.358 . S
C635 H639 0.930 . S
C636 C634 1.356 . S
C636 C637 1.348 . S
C637 C632 1.353 . S
C637 C636 1.348 . S
C637 H689 0.929 . S
H638 C632 0.930 . S
H639 C635 0.930 . S
C640 N641 1.314 1_556 S
C640 C642 1.353 . S
C640 H646 0.930 . S
N641 Li617 1.990 . S
N641 C640 1.314 1_554 S
N641 C644 1.279 . S
C642 C640 1.353 . S
C642 C645 1.345 1_556 S
C642 H690 0.929 . S
C643 C644 1.358 . S
C643 C645 1.359 . S
C643 H691 0.930 . S
C644 N641 1.279 . S
C644 C643 1.358 . S
C644 H647 0.930 . S
C645 C642 1.345 1_554 S
C645 C643 1.359 . S
H646 C640 0.930 . S
H647 C644 0.930 . S
C648 C650 1.346 1_554 S
C648 C651 1.357 . S
C648 O678 1.325 . S
N649 C652 1.314 . S
N649 C653 1.279 1_556 S
C650 C648 1.346 1_556 S
C650 C652 1.353 . S
C650 H692 0.929 . S
C651 C648 1.357 . S
C651 C653 1.358 . S
C651 H693 0.930 . S
C652 N649 1.314 . S
C652 C650 1.353 . S
C652 H694 0.930 . S
C653 N649 1.279 1_554 S
C653 C651 1.358 . S
C653 H695 0.930 . S
C654 C655 1.348 . S
C654 C656 1.356 . S
C654 O679 1.325 . S
C655 C654 1.348 . S
C655 C657 1.353 . S
C655 H696 0.929 . S
C656 C654 1.356 . S
C656 C658 1.358 . S
C656 H697 0.930 . S
C657 C655 1.353 . S
C657 N659 1.314 . S
C657 H698 0.930 . S
C658 C656 1.358 . S
C658 N659 1.279 . S
C658 H699 0.930 . S
N659 C657 1.314 . S
N659 C658 1.279 . S
C660 C662 1.353 . S
C660 N663 1.314 . S
C660 H666 0.930 . S
C661 N663 1.279 . S
C661 C664 1.358 . S
C661 H667 0.930 . S
C662 C660 1.353 . S
C662 C665 1.348 . S
C662 H700 0.929 . S
N663 Li618 1.990 . S
N663 C660 1.314 . S
N663 C661 1.279 . S
C664 C661 1.358 . S
C664 C665 1.356 . S
C664 H701 0.930 . S
C665 C662 1.348 . S
C665 C664 1.356 . S
H666 C660 0.930 . S
H667 C661 0.930 . S
C668 N669 1.314 1_554 S
C668 C670 1.353 . S
C668 H674 0.930 . S
N669 Li619 1.991 . S
N669 C668 1.314 1_556 S
N669 C672 1.279 . S
C670 C668 1.353 . S
C670 C673 1.345 . S
C670 H702 0.929 . S
C671 C672 1.358 . S
C671 C673 1.359 1_556 S
C671 H703 0.930 . S
C672 N669 1.279 . S
C672 C671 1.358 . S
C672 H675 0.930 . S
C673 C670 1.345 . S
C673 C671 1.359 1_554 S
H674 C668 0.930 . S
H675 C672 0.930 . S
O676 Li616 1.935 1_556 S
O676 Li617 1.969 1_556 S
O676 Li618 1.981 . S
O676 C620 1.324 . S
O677 Li616 1.970 . S
O677 Li617 1.956 . S
O677 Li619 1.938 1_554 S
O677 C626 1.325 . S
O678 Li616 1.961 . S
O678 Li618 1.956 1_554 S
O678 Li619 1.969 1_554 S
O678 C648 1.325 . S
O679 Li617 1.961 1_556 S
O679 Li618 1.970 . S
O679 Li619 1.978 . S
O679 C654 1.325 . S
H680 C622 0.929 . S
H681 C623 0.930 . S
H682 C624 0.930 . S
H683 C625 0.930 . S
H684 C627 0.930 . S
H685 C629 0.929 . S
H686 C630 0.930 . S
H687 C631 0.930 . S
H688 C634 0.930 . S
H689 C637 0.929 . S
H690 C642 0.929 . S
H691 C643 0.930 . S
H692 C650 0.929 . S
H693 C651 0.930 . S
H694 C652 0.930 . S
H695 C653 0.930 . S
H696 C655 0.929 . S
H697 C656 0.930 . S
H698 C657 0.930 . S
H699 C658 0.930 . S
H700 C662 0.929 . S
H701 C664 0.930 . S
H702 C670 0.929 . S
H703 C671 0.930 . S
Li704 N721 1.990 . S
Li704 O764 1.956 . S
Li704 O765 1.970 . S
Li704 O766 1.961 . S
Li705 N729 1.990 . S
Li705 O764 1.970 . S
Li705 O765 1.956 . S
Li705 O767 1.961 . S
Li706 N751 1.990 . S
Li706 O764 1.961 . S
Li706 O766 1.956 . S
Li706 O767 1.970 . S
Li707 N757 1.990 . S
Li707 O765 1.961 . S
Li707 O766 1.970 . S
Li707 O767 1.956 . S
C708 C710 1.348 . S
C708 C711 1.356 . S
C708 O764 1.325 . S
N709 C712 1.314 . S
N709 C713 1.279 . S
C710 C708 1.348 . S
C710 C712 1.353 . S
C710 H768 0.929 . S
C711 C708 1.356 . S
C711 C713 1.358 . S
C711 H769 0.930 . S
C712 N709 1.314 . S
C712 C710 1.353 . S
C712 H770 0.930 . S
C713 N709 1.279 . S
C713 C711 1.358 . S
C713 H771 0.930 . S
C714 C717 1.348 . S
C714 C718 1.356 . S
C714 O765 1.325 . S
C715 N716 1.279 . S
C715 C718 1.358 . S
C715 H772 0.930 . S
N716 C715 1.279 . S
N716 C719 1.314 . S
C717 C714 1.348 . S
C717 C719 1.353 . S
C717 H773 0.929 . S
C718 C714 1.356 . S
C718 C715 1.358 . S
C718 H774 0.930 . S
C719 N716 1.314 . S
C719 C717 1.353 . S
C719 H775 0.930 . S
C720 N721 1.314 . S
C720 C725 1.353 . S
C720 H726 0.930 . S
N721 Li704 1.990 . S
N721 C720 1.314 . S
N721 C723 1.279 . S
C722 C723 1.358 . S
C722 C724 1.356 . S
C722 H776 0.930 . S
C723 N721 1.279 . S
C723 C722 1.358 . S
C723 H727 0.930 . S
C724 C722 1.356 . S
C724 C725 1.348 . S
C725 C720 1.353 . S
C725 C724 1.348 . S
C725 H777 0.929 . S
H726 C720 0.930 . S
H727 C723 0.930 . S
C728 N729 1.314 . S
C728 C730 1.353 . S
C728 H734 0.930 . S
N729 Li705 1.990 . S
N729 C728 1.314 . S
N729 C732 1.279 . S
C730 C728 1.353 . S
C730 C733 1.348 . S
C730 H778 0.929 . S
C731 C732 1.358 . S
C731 C733 1.356 . S
C731 H779 0.930 . S
C732 N729 1.279 . S
C732 C731 1.358 . S
C732 H735 0.930 . S
C733 C730 1.348 . S
C733 C731 1.356 . S
H734 C728 0.930 . S
H735 C732 0.930 . S
C736 C738 1.348 . S
C736 C739 1.356 . S
C736 O766 1.325 . S
N737 C740 1.314 . S
N737 C741 1.279 . S
C738 C736 1.348 . S
C738 C740 1.353 . S
C738 H780 0.929 . S
C739 C736 1.356 . S
C739 C741 1.358 . S
C739 H781 0.930 . S
C740 N737 1.314 . S
C740 C738 1.353 . S
C740 H782 0.930 . S
C741 N737 1.279 . S
C741 C739 1.358 . S
C741 H783 0.930 . S
C742 C743 1.348 . S
C742 C744 1.356 . S
C742 O767 1.325 . S
C743 C742 1.348 . S
C743 C745 1.353 . S
C743 H784 0.929 . S
C744 C742 1.356 . S
C744 C746 1.358 . S
C744 H785 0.930 . S
C745 C743 1.353 . S
C745 N747 1.314 . S
C745 H786 0.930 . S
C746 C744 1.358 . S
C746 N747 1.279 . S
C746 H787 0.930 . S
N747 C745 1.314 . S
N747 C746 1.279 . S
C748 C750 1.353 . S
C748 N751 1.314 . S
C748 H754 0.930 . S
C749 N751 1.279 . S
C749 C752 1.358 . S
C749 H755 0.930 . S
C750 C748 1.353 . S
C750 C753 1.348 . S
C750 H788 0.929 . S
N751 Li706 1.990 . S
N751 C748 1.314 . S
N751 C749 1.279 . S
C752 C749 1.358 . S
C752 C753 1.356 . S
C752 H789 0.930 . S
C753 C750 1.348 . S
C753 C752 1.356 . S
H754 C748 0.930 . S
H755 C749 0.930 . S
C756 N757 1.314 . S
C756 C758 1.353 . S
C756 H762 0.930 . S
N757 Li707 1.990 . S
N757 C756 1.314 . S
N757 C760 1.279 . S
C758 C756 1.353 . S
C758 C761 1.348 . S
C758 H790 0.929 . S
C759 C760 1.358 . S
C759 C761 1.356 . S
C759 H791 0.930 . S
C760 N757 1.279 . S
C760 C759 1.358 . S
C760 H763 0.930 . S
C761 C758 1.348 . S
C761 C759 1.356 . S
H762 C756 0.930 . S
H763 C760 0.930 . S
O764 Li704 1.956 . S
O764 Li705 1.970 . S
O764 Li706 1.961 . S
O764 C708 1.325 . S
O765 Li704 1.970 . S
O765 Li705 1.956 . S
O765 Li707 1.961 . S
O765 C714 1.325 . S
O766 Li704 1.961 . S
O766 Li706 1.956 . S
O766 Li707 1.970 . S
O766 C736 1.325 . S
O767 Li705 1.961 . S
O767 Li706 1.970 . S
O767 Li707 1.956 . S
O767 C742 1.325 . S
H768 C710 0.929 . S
H769 C711 0.930 . S
H770 C712 0.930 . S
H771 C713 0.930 . S
H772 C715 0.930 . S
H773 C717 0.929 . S
H774 C718 0.930 . S
H775 C719 0.930 . S
H776 C722 0.930 . S
H777 C725 0.929 . S
H778 C730 0.929 . S
H779 C731 0.930 . S
H780 C738 0.929 . S
H781 C739 0.930 . S
H782 C740 0.930 . S
H783 C741 0.930 . S
H784 C743 0.929 . S
H785 C744 0.930 . S
H786 C745 0.930 . S
H787 C746 0.930 . S
H788 C750 0.929 . S
H789 C752 0.930 . S
H790 C758 0.929 . S
H791 C759 0.930 . S
Li792 N809 1.990 . S
Li792 O852 1.956 . S
Li792 O853 1.970 . S
Li792 O854 1.961 . S
Li793 N817 1.990 . S
Li793 O852 1.970 . S
Li793 O853 1.956 . S
Li793 O855 1.961 . S
Li794 N839 1.990 . S
Li794 O852 1.961 . S
Li794 O854 1.956 . S
Li794 O855 1.970 . S
Li795 N845 1.990 . S
Li795 O853 1.961 . S
Li795 O854 1.970 . S
Li795 O855 1.956 . S
C796 C798 1.348 . S
C796 C799 1.356 . S
C796 O852 1.325 . S
N797 C800 1.314 . S
N797 C801 1.279 . S
C798 C796 1.348 . S
C798 C800 1.353 . S
C798 H856 0.929 . S
C799 C796 1.356 . S
C799 C801 1.358 . S
C799 H857 0.930 . S
C800 N797 1.314 . S
C800 C798 1.353 . S
C800 H858 0.930 . S
C801 N797 1.279 . S
C801 C799 1.358 . S
C801 H859 0.930 . S
C802 C805 1.348 . S
C802 C806 1.356 . S
C802 O853 1.325 . S
C803 N804 1.279 . S
C803 C806 1.358 . S
C803 H860 0.930 . S
N804 C803 1.279 . S
N804 C807 1.314 . S
C805 C802 1.348 . S
C805 C807 1.353 . S
C805 H861 0.929 . S
C806 C802 1.356 . S
C806 C803 1.358 . S
C806 H862 0.930 . S
C807 N804 1.314 . S
C807 C805 1.353 . S
C807 H863 0.930 . S
C808 N809 1.314 . S
C808 C813 1.353 . S
C808 H814 0.930 . S
N809 Li792 1.990 . S
N809 C808 1.314 . S
N809 C811 1.279 . S
C810 C811 1.358 . S
C810 C812 1.356 . S
C810 H864 0.930 . S
C811 N809 1.279 . S
C811 C810 1.358 . S
C811 H815 0.930 . S
C812 C810 1.356 . S
C812 C813 1.348 . S
C813 C808 1.353 . S
C813 C812 1.348 . S
C813 H865 0.929 . S
H814 C808 0.930 . S
H815 C811 0.930 . S
C816 N817 1.314 . S
C816 C818 1.353 . S
C816 H822 0.930 . S
N817 Li793 1.990 . S
N817 C816 1.314 . S
N817 C820 1.279 . S
C818 C816 1.353 . S
C818 C821 1.348 . S
C818 H866 0.929 . S
C819 C820 1.358 . S
C819 C821 1.356 . S
C819 H867 0.930 . S
C820 N817 1.279 . S
C820 C819 1.358 . S
C820 H823 0.930 . S
C821 C818 1.348 . S
C821 C819 1.356 . S
H822 C816 0.930 . S
H823 C820 0.930 . S
C824 C826 1.348 . S
C824 C827 1.356 . S
C824 O854 1.325 . S
N825 C828 1.314 . S
N825 C829 1.279 . S
C826 C824 1.348 . S
C826 C828 1.353 . S
C826 H868 0.929 . S
C827 C824 1.356 . S
C827 C829 1.358 . S
C827 H869 0.930 . S
C828 N825 1.314 . S
C828 C826 1.353 . S
C828 H870 0.930 . S
C829 N825 1.279 . S
C829 C827 1.358 . S
C829 H871 0.930 . S
C830 C831 1.348 . S
C830 C832 1.356 . S
C830 O855 1.325 . S
C831 C830 1.348 . S
C831 C833 1.353 . S
C831 H872 0.929 . S
C832 C830 1.356 . S
C832 C834 1.358 . S
C832 H873 0.930 . S
C833 C831 1.353 . S
C833 N835 1.314 . S
C833 H874 0.930 . S
C834 C832 1.358 . S
C834 N835 1.279 . S
C834 H875 0.930 . S
N835 C833 1.314 . S
N835 C834 1.279 . S
C836 C838 1.353 . S
C836 N839 1.314 . S
C836 H842 0.930 . S
C837 N839 1.279 . S
C837 C840 1.358 . S
C837 H843 0.930 . S
C838 C836 1.353 . S
C838 C841 1.348 . S
C838 H876 0.929 . S
N839 Li794 1.990 . S
N839 C836 1.314 . S
N839 C837 1.279 . S
C840 C837 1.358 . S
C840 C841 1.356 . S
C840 H877 0.930 . S
C841 C838 1.348 . S
C841 C840 1.356 . S
H842 C836 0.930 . S
H843 C837 0.930 . S
C844 N845 1.314 . S
C844 C846 1.353 . S
C844 H850 0.930 . S
N845 Li795 1.990 . S
N845 C844 1.314 . S
N845 C848 1.279 . S
C846 C844 1.353 . S
C846 C849 1.348 . S
C846 H878 0.929 . S
C847 C848 1.358 . S
C847 C849 1.356 . S
C847 H879 0.930 . S
C848 N845 1.279 . S
C848 C847 1.358 . S
C848 H851 0.930 . S
C849 C846 1.348 . S
C849 C847 1.356 . S
H850 C844 0.930 . S
H851 C848 0.930 . S
O852 Li792 1.956 . S
O852 Li793 1.970 . S
O852 Li794 1.961 . S
O852 C796 1.325 . S
O853 Li792 1.970 . S
O853 Li793 1.956 . S
O853 Li795 1.961 . S
O853 C802 1.325 . S
O854 Li792 1.961 . S
O854 Li794 1.956 . S
O854 Li795 1.970 . S
O854 C824 1.325 . S
O855 Li793 1.961 . S
O855 Li794 1.970 . S
O855 Li795 1.956 . S
O855 C830 1.325 . S
H856 C798 0.929 . S
H857 C799 0.930 . S
H858 C800 0.930 . S
H859 C801 0.930 . S
H860 C803 0.930 . S
H861 C805 0.929 . S
H862 C806 0.930 . S
H863 C807 0.930 . S
H864 C810 0.930 . S
H865 C813 0.929 . S
H866 C818 0.929 . S
H867 C819 0.930 . S
H868 C826 0.929 . S
H869 C827 0.930 . S
H870 C828 0.930 . S
H871 C829 0.930 . S
H872 C831 0.929 . S
H873 C832 0.930 . S
H874 C833 0.930 . S
H875 C834 0.930 . S
H876 C838 0.929 . S
H877 C840 0.930 . S
H878 C846 0.929 . S
H879 C847 0.930 . S
Li880 N897 1.990 . S
Li880 O940 1.956 . S
Li880 O941 1.970 . S
Li880 O942 1.961 . S
Li881 N905 1.990 . S
Li881 O940 1.970 . S
Li881 O941 1.956 . S
Li881 O943 1.961 . S
Li882 N927 1.990 . S
Li882 O940 1.961 . S
Li882 O942 1.956 . S
Li882 O943 1.970 . S
Li883 N933 1.990 . S
Li883 O941 1.961 . S
Li883 O942 1.970 . S
Li883 O943 1.956 . S
C884 C886 1.348 . S
C884 C887 1.356 . S
C884 O940 1.325 . S
N885 C888 1.314 . S
N885 C889 1.279 . S
C886 C884 1.348 . S
C886 C888 1.353 . S
C886 H944 0.929 . S
C887 C884 1.356 . S
C887 C889 1.358 . S
C887 H945 0.930 . S
C888 N885 1.314 . S
C888 C886 1.353 . S
C888 H946 0.930 . S
C889 N885 1.279 . S
C889 C887 1.358 . S
C889 H947 0.930 . S
C890 C893 1.348 . S
C890 C894 1.356 . S
C890 O941 1.325 . S
C891 N892 1.279 . S
C891 C894 1.358 . S
C891 H948 0.930 . S
N892 C891 1.279 . S
N892 C895 1.314 . S
C893 C890 1.348 . S
C893 C895 1.353 . S
C893 H949 0.929 . S
C894 C890 1.356 . S
C894 C891 1.358 . S
C894 H950 0.930 . S
C895 N892 1.314 . S
C895 C893 1.353 . S
C895 H951 0.930 . S
C896 N897 1.314 . S
C896 C901 1.353 . S
C896 H902 0.930 . S
N897 Li880 1.990 . S
N897 C896 1.314 . S
N897 C899 1.279 . S
C898 C899 1.358 . S
C898 C900 1.356 . S
C898 H952 0.930 . S
C899 N897 1.279 . S
C899 C898 1.358 . S
C899 H903 0.930 . S
C900 C898 1.356 . S
C900 C901 1.348 . S
C901 C896 1.353 . S
C901 C900 1.348 . S
C901 H953 0.929 . S
H902 C896 0.930 . S
H903 C899 0.930 . S
C904 N905 1.314 . S
C904 C906 1.353 . S
C904 H910 0.930 . S
N905 Li881 1.990 . S
N905 C904 1.314 . S
N905 C908 1.279 . S
C906 C904 1.353 . S
C906 C909 1.348 . S
C906 H954 0.929 . S
C907 C908 1.358 . S
C907 C909 1.356 . S
C907 H955 0.930 . S
C908 N905 1.279 . S
C908 C907 1.358 . S
C908 H911 0.930 . S
C909 C906 1.348 . S
C909 C907 1.356 . S
H910 C904 0.930 . S
H911 C908 0.930 . S
C912 C914 1.348 . S
C912 C915 1.356 . S
C912 O942 1.325 . S
N913 C916 1.314 . S
N913 C917 1.279 . S
C914 C912 1.348 . S
C914 C916 1.353 . S
C914 H956 0.929 . S
C915 C912 1.356 . S
C915 C917 1.358 . S
C915 H957 0.930 . S
C916 N913 1.314 . S
C916 C914 1.353 . S
C916 H958 0.930 . S
C917 N913 1.279 . S
C917 C915 1.358 . S
C917 H959 0.930 . S
C918 C919 1.348 . S
C918 C920 1.356 . S
C918 O943 1.325 . S
C919 C918 1.348 . S
C919 C921 1.353 . S
C919 H960 0.929 . S
C920 C918 1.356 . S
C920 C922 1.358 . S
C920 H961 0.930 . S
C921 C919 1.353 . S
C921 N923 1.314 . S
C921 H962 0.930 . S
C922 C920 1.358 . S
C922 N923 1.279 . S
C922 H963 0.930 . S
N923 C921 1.314 . S
N923 C922 1.279 . S
C924 C926 1.353 . S
C924 N927 1.314 . S
C924 H930 0.930 . S
C925 N927 1.279 . S
C925 C928 1.358 . S
C925 H931 0.930 . S
C926 C924 1.353 . S
C926 C929 1.348 . S
C926 H964 0.929 . S
N927 Li882 1.990 . S
N927 C924 1.314 . S
N927 C925 1.279 . S
C928 C925 1.358 . S
C928 C929 1.356 . S
C928 H965 0.930 . S
C929 C926 1.348 . S
C929 C928 1.356 . S
H930 C924 0.930 . S
H931 C925 0.930 . S
C932 N933 1.314 . S
C932 C934 1.353 . S
C932 H938 0.930 . S
N933 Li883 1.990 . S
N933 C932 1.314 . S
N933 C936 1.279 . S
C934 C932 1.353 . S
C934 C937 1.348 . S
C934 H966 0.929 . S
C935 C936 1.358 . S
C935 C937 1.356 . S
C935 H967 0.930 . S
C936 N933 1.279 . S
C936 C935 1.358 . S
C936 H939 0.930 . S
C937 C934 1.348 . S
C937 C935 1.356 . S
H938 C932 0.930 . S
H939 C936 0.930 . S
O940 Li880 1.956 . S
O940 Li881 1.970 . S
O940 Li882 1.961 . S
O940 C884 1.325 . S
O941 Li880 1.970 . S
O941 Li881 1.956 . S
O941 Li883 1.961 . S
O941 C890 1.325 . S
O942 Li880 1.961 . S
O942 Li882 1.956 . S
O942 Li883 1.970 . S
O942 C912 1.325 . S
O943 Li881 1.961 . S
O943 Li882 1.970 . S
O943 Li883 1.956 . S
O943 C918 1.325 . S
H944 C886 0.929 . S
H945 C887 0.930 . S
H946 C888 0.930 . S
H947 C889 0.930 . S
H948 C891 0.930 . S
H949 C893 0.929 . S
H950 C894 0.930 . S
H951 C895 0.930 . S
H952 C898 0.930 . S
H953 C901 0.929 . S
H954 C906 0.929 . S
H955 C907 0.930 . S
H956 C914 0.929 . S
H957 C915 0.930 . S
H958 C916 0.930 . S
H959 C917 0.930 . S
H960 C919 0.929 . S
H961 C920 0.930 . S
H962 C921 0.930 . S
H963 C922 0.930 . S
H964 C926 0.929 . S
H965 C928 0.930 . S
H966 C934 0.929 . S
H967 C935 0.930 . S
Li968 N985 1.990 . S
Li968 O1028 1.956 . S
Li968 O1029 1.970 . S
Li968 O1030 1.961 . S
Li969 N993 1.990 . S
Li969 O1028 1.970 . S
Li969 O1029 1.956 . S
Li969 O1031 1.961 . S
Li970 N1015 1.990 . S
Li970 O1028 1.961 . S
Li970 O1030 1.956 . S
Li970 O1031 1.970 . S
Li971 N1021 1.990 . S
Li971 O1029 1.961 . S
Li971 O1030 1.970 . S
Li971 O1031 1.956 . S
C972 C974 1.348 . S
C972 C975 1.356 . S
C972 O1028 1.325 . S
N973 C976 1.314 . S
N973 C977 1.279 . S
C974 C972 1.348 . S
C974 C976 1.353 . S
C974 H1032 0.929 . S
C975 C972 1.356 . S
C975 C977 1.358 . S
C975 H1033 0.930 . S
C976 N973 1.314 . S
C976 C974 1.353 . S
C976 H1034 0.930 . S
C977 N973 1.279 . S
C977 C975 1.358 . S
C977 H1035 0.930 . S
C978 C981 1.348 . S
C978 C982 1.356 . S
C978 O1029 1.325 . S
C979 N980 1.279 . S
C979 C982 1.358 . S
C979 H1036 0.930 . S
N980 C979 1.279 . S
N980 C983 1.314 . S
C981 C978 1.348 . S
C981 C983 1.353 . S
C981 H1037 0.929 . S
C982 C978 1.356 . S
C982 C979 1.358 . S
C982 H1038 0.930 . S
C983 N980 1.314 . S
C983 C981 1.353 . S
C983 H1039 0.930 . S
C984 N985 1.314 . S
C984 C989 1.353 . S
C984 H990 0.930 . S
N985 Li968 1.990 . S
N985 C984 1.314 . S
N985 C987 1.279 . S
C986 C987 1.358 . S
C986 C988 1.356 . S
C986 H1040 0.930 . S
C987 N985 1.279 . S
C987 C986 1.358 . S
C987 H991 0.930 . S
C988 C986 1.356 . S
C988 C989 1.348 . S
C989 C984 1.353 . S
C989 C988 1.348 . S
C989 H1041 0.929 . S
H990 C984 0.930 . S
H991 C987 0.930 . S
C992 N993 1.314 . S
C992 C994 1.353 . S
C992 H998 0.930 . S
N993 Li969 1.990 . S
N993 C992 1.314 . S
N993 C996 1.279 . S
C994 C992 1.353 . S
C994 C997 1.348 . S
C994 H1042 0.929 . S
C995 C996 1.358 . S
C995 C997 1.356 . S
C995 H1043 0.930 . S
C996 N993 1.279 . S
C996 C995 1.358 . S
C996 H999 0.930 . S
C997 C994 1.348 . S
C997 C995 1.356 . S
H998 C992 0.930 . S
H999 C996 0.930 . S
C1000 C1002 1.348 . S
C1000 C1003 1.356 . S
C1000 O1030 1.325 . S
N1001 C1004 1.314 . S
N1001 C1005 1.279 . S
C1002 C1000 1.348 . S
C1002 C1004 1.353 . S
C1002 H1044 0.929 . S
C1003 C1000 1.356 . S
C1003 C1005 1.358 . S
C1003 H1045 0.930 . S
C1004 N1001 1.314 . S
C1004 C1002 1.353 . S
C1004 H1046 0.930 . S
C1005 N1001 1.279 . S
C1005 C1003 1.358 . S
C1005 H1047 0.930 . S
C1006 C1007 1.348 . S
C1006 C1008 1.356 . S
C1006 O1031 1.325 . S
C1007 C1006 1.348 . S
C1007 C1009 1.353 . S
C1007 H1048 0.929 . S
C1008 C1006 1.356 . S
C1008 C1010 1.358 . S
C1008 H1049 0.930 . S
C1009 C1007 1.353 . S
C1009 N1011 1.314 . S
C1009 H1050 0.930 . S
C1010 C1008 1.358 . S
C1010 N1011 1.279 . S
C1010 H1051 0.930 . S
N1011 C1009 1.314 . S
N1011 C1010 1.279 . S
C1012 C1014 1.353 . S
C1012 N1015 1.314 . S
C1012 H1018 0.930 . S
C1013 N1015 1.279 . S
C1013 C1016 1.358 . S
C1013 H1019 0.930 . S
C1014 C1012 1.353 . S
C1014 C1017 1.348 . S
C1014 H1052 0.929 . S
N1015 Li970 1.990 . S
N1015 C1012 1.314 . S
N1015 C1013 1.279 . S
C1016 C1013 1.358 . S
C1016 C1017 1.356 . S
C1016 H1053 0.930 . S
C1017 C1014 1.348 . S
C1017 C1016 1.356 . S
H1018 C1012 0.930 . S
H1019 C1013 0.930 . S
C1020 N1021 1.314 . S
C1020 C1022 1.353 . S
C1020 H1026 0.930 . S
N1021 Li971 1.990 . S
N1021 C1020 1.314 . S
N1021 C1024 1.279 . S
C1022 C1020 1.353 . S
C1022 C1025 1.348 . S
C1022 H1054 0.929 . S
C1023 C1024 1.358 . S
C1023 C1025 1.356 . S
C1023 H1055 0.930 . S
C1024 N1021 1.279 . S
C1024 C1023 1.358 . S
C1024 H1027 0.930 . S
C1025 C1022 1.348 . S
C1025 C1023 1.356 . S
H1026 C1020 0.930 . S
H1027 C1024 0.930 . S
O1028 Li968 1.956 . S
O1028 Li969 1.970 . S
O1028 Li970 1.961 . S
O1028 C972 1.325 . S
O1029 Li968 1.970 . S
O1029 Li969 1.956 . S
O1029 Li971 1.961 . S
O1029 C978 1.325 . S
O1030 Li968 1.961 . S
O1030 Li970 1.956 . S
O1030 Li971 1.970 . S
O1030 C1000 1.325 . S
O1031 Li969 1.961 . S
O1031 Li970 1.970 . S
O1031 Li971 1.956 . S
O1031 C1006 1.325 . S
H1032 C974 0.929 . S
H1033 C975 0.930 . S
H1034 C976 0.930 . S
H1035 C977 0.930 . S
H1036 C979 0.930 . S
H1037 C981 0.929 . S
H1038 C982 0.930 . S
H1039 C983 0.930 . S
H1040 C986 0.930 . S
H1041 C989 0.929 . S
H1042 C994 0.929 . S
H1043 C995 0.930 . S
H1044 C1002 0.929 . S
H1045 C1003 0.930 . S
H1046 C1004 0.930 . S
H1047 C1005 0.930 . S
H1048 C1007 0.929 . S
H1049 C1008 0.930 . S
H1050 C1009 0.930 . S
H1051 C1010 0.930 . S
H1052 C1014 0.929 . S
H1053 C1016 0.930 . S
H1054 C1022 0.929 . S
H1055 C1023 0.930 . S
Li1056 N1073 1.990 . S
Li1056 O1116 1.956 . S
Li1056 O1117 1.970 . S
Li1056 O1118 1.961 . S
Li1057 N1081 1.990 . S
Li1057 O1116 1.970 . S
Li1057 O1117 1.956 . S
Li1057 O1119 1.961 . S
Li1058 N1103 1.990 . S
Li1058 O1116 1.961 . S
Li1058 O1118 1.956 . S
Li1058 O1119 1.970 . S
Li1059 N1109 1.990 . S
Li1059 O1117 1.961 . S
Li1059 O1118 1.970 . S
Li1059 O1119 1.956 . S
C1060 C1062 1.348 . S
C1060 C1063 1.356 . S
C1060 O1116 1.325 . S
N1061 C1064 1.314 . S
N1061 C1065 1.279 . S
C1062 C1060 1.348 . S
C1062 C1064 1.353 . S
C1062 H1120 0.929 . S
C1063 C1060 1.356 . S
C1063 C1065 1.358 . S
C1063 H1121 0.930 . S
C1064 N1061 1.314 . S
C1064 C1062 1.353 . S
C1064 H1122 0.930 . S
C1065 N1061 1.279 . S
C1065 C1063 1.358 . S
C1065 H1123 0.930 . S
C1066 C1069 1.348 . S
C1066 C1070 1.356 . S
C1066 O1117 1.325 . S
C1067 N1068 1.279 . S
C1067 C1070 1.358 . S
C1067 H1124 0.930 . S
N1068 C1067 1.279 . S
N1068 C1071 1.314 . S
C1069 C1066 1.348 . S
C1069 C1071 1.353 . S
C1069 H1125 0.929 . S
C1070 C1066 1.356 . S
C1070 C1067 1.358 . S
C1070 H1126 0.930 . S
C1071 N1068 1.314 . S
C1071 C1069 1.353 . S
C1071 H1127 0.930 . S
C1072 N1073 1.314 . S
C1072 C1077 1.353 . S
C1072 H1078 0.930 . S
N1073 Li1056 1.990 . S
N1073 C1072 1.314 . S
N1073 C1075 1.279 . S
C1074 C1075 1.358 . S
C1074 C1076 1.356 . S
C1074 H1128 0.930 . S
C1075 N1073 1.279 . S
C1075 C1074 1.358 . S
C1075 H1079 0.930 . S
C1076 C1074 1.356 . S
C1076 C1077 1.348 . S
C1077 C1072 1.353 . S
C1077 C1076 1.348 . S
C1077 H1129 0.929 . S
H1078 C1072 0.930 . S
H1079 C1075 0.930 . S
C1080 N1081 1.314 . S
C1080 C1082 1.353 . S
C1080 H1086 0.930 . S
N1081 Li1057 1.990 . S
N1081 C1080 1.314 . S
N1081 C1084 1.279 . S
C1082 C1080 1.353 . S
C1082 C1085 1.348 . S
C1082 H1130 0.929 . S
C1083 C1084 1.358 . S
C1083 C1085 1.356 . S
C1083 H1131 0.930 . S
C1084 N1081 1.279 . S
C1084 C1083 1.358 . S
C1084 H1087 0.930 . S
C1085 C1082 1.348 . S
C1085 C1083 1.356 . S
H1086 C1080 0.930 . S
H1087 C1084 0.930 . S
C1088 C1090 1.348 . S
C1088 C1091 1.356 . S
C1088 O1118 1.325 . S
N1089 C1092 1.314 . S
N1089 C1093 1.279 . S
C1090 C1088 1.348 . S
C1090 C1092 1.353 . S
C1090 H1132 0.929 . S
C1091 C1088 1.356 . S
C1091 C1093 1.358 . S
C1091 H1133 0.930 . S
C1092 N1089 1.314 . S
C1092 C1090 1.353 . S
C1092 H1134 0.930 . S
C1093 N1089 1.279 . S
C1093 C1091 1.358 . S
C1093 H1135 0.930 . S
C1094 C1095 1.348 . S
C1094 C1096 1.356 . S
C1094 O1119 1.325 . S
C1095 C1094 1.348 . S
C1095 C1097 1.353 . S
C1095 H1136 0.929 . S
C1096 C1094 1.356 . S
C1096 C1098 1.358 . S
C1096 H1137 0.930 . S
C1097 C1095 1.353 . S
C1097 N1099 1.314 . S
C1097 H1138 0.930 . S
C1098 C1096 1.358 . S
C1098 N1099 1.279 . S
C1098 H1139 0.930 . S
N1099 C1097 1.314 . S
N1099 C1098 1.279 . S
C1100 C1102 1.353 . S
C1100 N1103 1.314 . S
C1100 H1106 0.930 . S
C1101 N1103 1.279 . S
C1101 C1104 1.358 . S
C1101 H1107 0.930 . S
C1102 C1100 1.353 . S
C1102 C1105 1.348 . S
C1102 H1140 0.929 . S
N1103 Li1058 1.990 . S
N1103 C1100 1.314 . S
N1103 C1101 1.279 . S
C1104 C1101 1.358 . S
C1104 C1105 1.356 . S
C1104 H1141 0.930 . S
C1105 C1102 1.348 . S
C1105 C1104 1.356 . S
H1106 C1100 0.930 . S
H1107 C1101 0.930 . S
C1108 N1109 1.314 . S
C1108 C1110 1.353 . S
C1108 H1114 0.930 . S
N1109 Li1059 1.990 . S
N1109 C1108 1.314 . S
N1109 C1112 1.279 . S
C1110 C1108 1.353 . S
C1110 C1113 1.348 . S
C1110 H1142 0.929 . S
C1111 C1112 1.358 . S
C1111 C1113 1.356 . S
C1111 H1143 0.930 . S
C1112 N1109 1.279 . S
C1112 C1111 1.358 . S
C1112 H1115 0.930 . S
C1113 C1110 1.348 . S
C1113 C1111 1.356 . S
H1114 C1108 0.930 . S
H1115 C1112 0.930 . S
O1116 Li1056 1.956 . S
O1116 Li1057 1.970 . S
O1116 Li1058 1.961 . S
O1116 C1060 1.325 . S
O1117 Li1056 1.970 . S
O1117 Li1057 1.956 . S
O1117 Li1059 1.961 . S
O1117 C1066 1.325 . S
O1118 Li1056 1.961 . S
O1118 Li1058 1.956 . S
O1118 Li1059 1.970 . S
O1118 C1088 1.325 . S
O1119 Li1057 1.961 . S
O1119 Li1058 1.970 . S
O1119 Li1059 1.956 . S
O1119 C1094 1.325 . S
H1120 C1062 0.929 . S
H1121 C1063 0.930 . S
H1122 C1064 0.930 . S
H1123 C1065 0.930 . S
H1124 C1067 0.930 . S
H1125 C1069 0.929 . S
H1126 C1070 0.930 . S
H1127 C1071 0.930 . S
H1128 C1074 0.930 . S
H1129 C1077 0.929 . S
H1130 C1082 0.929 . S
H1131 C1083 0.930 . S
H1132 C1090 0.929 . S
H1133 C1091 0.930 . S
H1134 C1092 0.930 . S
H1135 C1093 0.930 . S
H1136 C1095 0.929 . S
H1137 C1096 0.930 . S
H1138 C1097 0.930 . S
H1139 C1098 0.930 . S
H1140 C1102 0.929 . S
H1141 C1104 0.930 . S
H1142 C1110 0.929 . S
H1143 C1111 0.930 . S
Li1144 N1161 1.990 . S
Li1144 O1204 1.956 . S
Li1144 O1205 1.970 . S
Li1144 O1206 1.961 . S
Li1145 N1169 1.990 . S
Li1145 O1204 1.970 . S
Li1145 O1205 1.956 . S
Li1145 O1207 1.961 . S
Li1146 N1191 1.990 . S
Li1146 O1204 1.961 . S
Li1146 O1206 1.956 . S
Li1146 O1207 1.970 . S
Li1147 N1197 1.990 . S
Li1147 O1205 1.961 . S
Li1147 O1206 1.970 . S
Li1147 O1207 1.956 . S
C1148 C1150 1.348 . S
C1148 C1151 1.356 . S
C1148 O1204 1.325 . S
N1149 C1152 1.314 . S
N1149 C1153 1.279 . S
C1150 C1148 1.348 . S
C1150 C1152 1.353 . S
C1150 H1208 0.929 . S
C1151 C1148 1.356 . S
C1151 C1153 1.358 . S
C1151 H1209 0.930 . S
C1152 N1149 1.314 . S
C1152 C1150 1.353 . S
C1152 H1210 0.930 . S
C1153 N1149 1.279 . S
C1153 C1151 1.358 . S
C1153 H1211 0.930 . S
C1154 C1157 1.348 . S
C1154 C1158 1.356 . S
C1154 O1205 1.325 . S
C1155 N1156 1.279 . S
C1155 C1158 1.358 . S
C1155 H1212 0.930 . S
N1156 C1155 1.279 . S
N1156 C1159 1.314 . S
C1157 C1154 1.348 . S
C1157 C1159 1.353 . S
C1157 H1213 0.929 . S
C1158 C1154 1.356 . S
C1158 C1155 1.358 . S
C1158 H1214 0.930 . S
C1159 N1156 1.314 . S
C1159 C1157 1.353 . S
C1159 H1215 0.930 . S
C1160 N1161 1.314 . S
C1160 C1165 1.353 . S
C1160 H1166 0.930 . S
N1161 Li1144 1.990 . S
N1161 C1160 1.314 . S
N1161 C1163 1.279 . S
C1162 C1163 1.358 . S
C1162 C1164 1.356 . S
C1162 H1216 0.930 . S
C1163 N1161 1.279 . S
C1163 C1162 1.358 . S
C1163 H1167 0.930 . S
C1164 C1162 1.356 . S
C1164 C1165 1.348 . S
C1165 C1160 1.353 . S
C1165 C1164 1.348 . S
C1165 H1217 0.929 . S
H1166 C1160 0.930 . S
H1167 C1163 0.930 . S
C1168 N1169 1.314 . S
C1168 C1170 1.353 . S
C1168 H1174 0.930 . S
N1169 Li1145 1.990 . S
N1169 C1168 1.314 . S
N1169 C1172 1.279 . S
C1170 C1168 1.353 . S
C1170 C1173 1.348 . S
C1170 H1218 0.929 . S
C1171 C1172 1.358 . S
C1171 C1173 1.356 . S
C1171 H1219 0.930 . S
C1172 N1169 1.279 . S
C1172 C1171 1.358 . S
C1172 H1175 0.930 . S
C1173 C1170 1.348 . S
C1173 C1171 1.356 . S
H1174 C1168 0.930 . S
H1175 C1172 0.930 . S
C1176 C1178 1.348 . S
C1176 C1179 1.356 . S
C1176 O1206 1.325 . S
N1177 C1180 1.314 . S
N1177 C1181 1.279 . S
C1178 C1176 1.348 . S
C1178 C1180 1.353 . S
C1178 H1220 0.929 . S
C1179 C1176 1.356 . S
C1179 C1181 1.358 . S
C1179 H1221 0.930 . S
C1180 N1177 1.314 . S
C1180 C1178 1.353 . S
C1180 H1222 0.930 . S
C1181 N1177 1.279 . S
C1181 C1179 1.358 . S
C1181 H1223 0.930 . S
C1182 C1183 1.348 . S
C1182 C1184 1.356 . S
C1182 O1207 1.325 . S
C1183 C1182 1.348 . S
C1183 C1185 1.353 . S
C1183 H1224 0.929 . S
C1184 C1182 1.356 . S
C1184 C1186 1.358 . S
C1184 H1225 0.930 . S
C1185 C1183 1.353 . S
C1185 N1187 1.314 . S
C1185 H1226 0.930 . S
C1186 C1184 1.358 . S
C1186 N1187 1.279 . S
C1186 H1227 0.930 . S
N1187 C1185 1.314 . S
N1187 C1186 1.279 . S
C1188 C1190 1.353 . S
C1188 N1191 1.314 . S
C1188 H1194 0.930 . S
C1189 N1191 1.279 . S
C1189 C1192 1.358 . S
C1189 H1195 0.930 . S
C1190 C1188 1.353 . S
C1190 C1193 1.348 . S
C1190 H1228 0.929 . S
N1191 Li1146 1.990 . S
N1191 C1188 1.314 . S
N1191 C1189 1.279 . S
C1192 C1189 1.358 . S
C1192 C1193 1.356 . S
C1192 H1229 0.930 . S
C1193 C1190 1.348 . S
C1193 C1192 1.356 . S
H1194 C1188 0.930 . S
H1195 C1189 0.930 . S
C1196 N1197 1.314 . S
C1196 C1198 1.353 . S
C1196 H1202 0.930 . S
N1197 Li1147 1.990 . S
N1197 C1196 1.314 . S
N1197 C1200 1.279 . S
C1198 C1196 1.353 . S
C1198 C1201 1.348 . S
C1198 H1230 0.929 . S
C1199 C1200 1.358 . S
C1199 C1201 1.356 . S
C1199 H1231 0.930 . S
C1200 N1197 1.279 . S
C1200 C1199 1.358 . S
C1200 H1203 0.930 . S
C1201 C1198 1.348 . S
C1201 C1199 1.356 . S
H1202 C1196 0.930 . S
H1203 C1200 0.930 . S
O1204 Li1144 1.956 . S
O1204 Li1145 1.970 . S
O1204 Li1146 1.961 . S
O1204 C1148 1.325 . S
O1205 Li1144 1.970 . S
O1205 Li1145 1.956 . S
O1205 Li1147 1.961 . S
O1205 C1154 1.325 . S
O1206 Li1144 1.961 . S
O1206 Li1146 1.956 . S
O1206 Li1147 1.970 . S
O1206 C1176 1.325 . S
O1207 Li1145 1.961 . S
O1207 Li1146 1.970 . S
O1207 Li1147 1.956 . S
O1207 C1182 1.325 . S
H1208 C1150 0.929 . S
H1209 C1151 0.930 . S
H1210 C1152 0.930 . S
H1211 C1153 0.930 . S
H1212 C1155 0.930 . S
H1213 C1157 0.929 . S
H1214 C1158 0.930 . S
H1215 C1159 0.930 . S
H1216 C1162 0.930 . S
H1217 C1165 0.929 . S
H1218 C1170 0.929 . S
H1219 C1171 0.930 . S
H1220 C1178 0.929 . S
H1221 C1179 0.930 . S
H1222 C1180 0.930 . S
H1223 C1181 0.930 . S
H1224 C1183 0.929 . S
H1225 C1184 0.930 . S
H1226 C1185 0.930 . S
H1227 C1186 0.930 . S
H1228 C1190 0.929 . S
H1229 C1192 0.930 . S
H1230 C1198 0.929 . S
H1231 C1199 0.930 . S
Li1232 N1249 1.990 . S
Li1232 O1292 1.956 . S
Li1232 O1293 1.970 . S
Li1232 O1294 1.961 . S
Li1233 N1257 1.990 . S
Li1233 O1292 1.970 . S
Li1233 O1293 1.956 . S
Li1233 O1295 1.961 . S
Li1234 N1279 1.990 . S
Li1234 O1292 1.961 . S
Li1234 O1294 1.956 . S
Li1234 O1295 1.970 . S
Li1235 N1285 1.990 . S
Li1235 O1293 1.961 . S
Li1235 O1294 1.970 . S
Li1235 O1295 1.956 . S
C1236 C1238 1.348 . S
C1236 C1239 1.356 . S
C1236 O1292 1.325 . S
N1237 C1240 1.314 . S
N1237 C1241 1.279 . S
C1238 C1236 1.348 . S
C1238 C1240 1.353 . S
C1238 H1296 0.929 . S
C1239 C1236 1.356 . S
C1239 C1241 1.358 . S
C1239 H1297 0.930 . S
C1240 N1237 1.314 . S
C1240 C1238 1.353 . S
C1240 H1298 0.930 . S
C1241 N1237 1.279 . S
C1241 C1239 1.358 . S
C1241 H1299 0.930 . S
C1242 C1245 1.348 . S
C1242 C1246 1.356 . S
C1242 O1293 1.325 . S
C1243 N1244 1.279 . S
C1243 C1246 1.358 . S
C1243 H1300 0.930 . S
N1244 C1243 1.279 . S
N1244 C1247 1.314 . S
C1245 C1242 1.348 . S
C1245 C1247 1.353 . S
C1245 H1301 0.929 . S
C1246 C1242 1.356 . S
C1246 C1243 1.358 . S
C1246 H1302 0.930 . S
C1247 N1244 1.314 . S
C1247 C1245 1.353 . S
C1247 H1303 0.930 . S
C1248 N1249 1.314 . S
C1248 C1253 1.353 . S
C1248 H1254 0.930 . S
N1249 Li1232 1.990 . S
N1249 C1248 1.314 . S
N1249 C1251 1.279 . S
C1250 C1251 1.358 . S
C1250 C1252 1.356 . S
C1250 H1304 0.930 . S
C1251 N1249 1.279 . S
C1251 C1250 1.358 . S
C1251 H1255 0.930 . S
C1252 C1250 1.356 . S
C1252 C1253 1.348 . S
C1253 C1248 1.353 . S
C1253 C1252 1.348 . S
C1253 H1305 0.929 . S
H1254 C1248 0.930 . S
H1255 C1251 0.930 . S
C1256 N1257 1.314 . S
C1256 C1258 1.353 . S
C1256 H1262 0.930 . S
N1257 Li1233 1.990 . S
N1257 C1256 1.314 . S
N1257 C1260 1.279 . S
C1258 C1256 1.353 . S
C1258 C1261 1.348 . S
C1258 H1306 0.929 . S
C1259 C1260 1.358 . S
C1259 C1261 1.356 . S
C1259 H1307 0.930 . S
C1260 N1257 1.279 . S
C1260 C1259 1.358 . S
C1260 H1263 0.930 . S
C1261 C1258 1.348 . S
C1261 C1259 1.356 . S
H1262 C1256 0.930 . S
H1263 C1260 0.930 . S
C1264 C1266 1.348 . S
C1264 C1267 1.356 . S
C1264 O1294 1.325 . S
N1265 C1268 1.314 . S
N1265 C1269 1.279 . S
C1266 C1264 1.348 . S
C1266 C1268 1.353 . S
C1266 H1308 0.929 . S
C1267 C1264 1.356 . S
C1267 C1269 1.358 . S
C1267 H1309 0.930 . S
C1268 N1265 1.314 . S
C1268 C1266 1.353 . S
C1268 H1310 0.930 . S
C1269 N1265 1.279 . S
C1269 C1267 1.358 . S
C1269 H1311 0.930 . S
C1270 C1271 1.348 . S
C1270 C1272 1.356 . S
C1270 O1295 1.325 . S
C1271 C1270 1.348 . S
C1271 C1273 1.353 . S
C1271 H1312 0.929 . S
C1272 C1270 1.356 . S
C1272 C1274 1.358 . S
C1272 H1313 0.930 . S
C1273 C1271 1.353 . S
C1273 N1275 1.314 . S
C1273 H1314 0.930 . S
C1274 C1272 1.358 . S
C1274 N1275 1.279 . S
C1274 H1315 0.930 . S
N1275 C1273 1.314 . S
N1275 C1274 1.279 . S
C1276 C1278 1.353 . S
C1276 N1279 1.314 . S
C1276 H1282 0.930 . S
C1277 N1279 1.279 . S
C1277 C1280 1.358 . S
C1277 H1283 0.930 . S
C1278 C1276 1.353 . S
C1278 C1281 1.348 . S
C1278 H1316 0.929 . S
N1279 Li1234 1.990 . S
N1279 C1276 1.314 . S
N1279 C1277 1.279 . S
C1280 C1277 1.358 . S
C1280 C1281 1.356 . S
C1280 H1317 0.930 . S
C1281 C1278 1.348 . S
C1281 C1280 1.356 . S
H1282 C1276 0.930 . S
H1283 C1277 0.930 . S
C1284 N1285 1.314 . S
C1284 C1286 1.353 . S
C1284 H1290 0.930 . S
N1285 Li1235 1.990 . S
N1285 C1284 1.314 . S
N1285 C1288 1.279 . S
C1286 C1284 1.353 . S
C1286 C1289 1.348 . S
C1286 H1318 0.929 . S
C1287 C1288 1.358 . S
C1287 C1289 1.356 . S
C1287 H1319 0.930 . S
C1288 N1285 1.279 . S
C1288 C1287 1.358 . S
C1288 H1291 0.930 . S
C1289 C1286 1.348 . S
C1289 C1287 1.356 . S
H1290 C1284 0.930 . S
H1291 C1288 0.930 . S
O1292 Li1232 1.956 . S
O1292 Li1233 1.970 . S
O1292 Li1234 1.961 . S
O1292 C1236 1.325 . S
O1293 Li1232 1.970 . S
O1293 Li1233 1.956 . S
O1293 Li1235 1.961 . S
O1293 C1242 1.325 . S
O1294 Li1232 1.961 . S
O1294 Li1234 1.956 . S
O1294 Li1235 1.970 . S
O1294 C1264 1.325 . S
O1295 Li1233 1.961 . S
O1295 Li1234 1.970 . S
O1295 Li1235 1.956 . S
O1295 C1270 1.325 . S
H1296 C1238 0.929 . S
H1297 C1239 0.930 . S
H1298 C1240 0.930 . S
H1299 C1241 0.930 . S
H1300 C1243 0.930 . S
H1301 C1245 0.929 . S
H1302 C1246 0.930 . S
H1303 C1247 0.930 . S
H1304 C1250 0.930 . S
H1305 C1253 0.929 . S
H1306 C1258 0.929 . S
H1307 C1259 0.930 . S
H1308 C1266 0.929 . S
H1309 C1267 0.930 . S
H1310 C1268 0.930 . S
H1311 C1269 0.930 . S
H1312 C1271 0.929 . S
H1313 C1272 0.930 . S
H1314 C1273 0.930 . S
H1315 C1274 0.930 . S
H1316 C1278 0.929 . S
H1317 C1280 0.930 . S
H1318 C1286 0.929 . S
H1319 C1287 0.930 . S
Li1320 N1337 1.990 . S
Li1320 O1380 1.956 . S
Li1320 O1381 1.970 . S
Li1320 O1382 1.961 . S
Li1321 N1345 1.990 . S
Li1321 O1380 1.970 . S
Li1321 O1381 1.956 . S
Li1321 O1383 1.961 . S
Li1322 N1367 1.990 . S
Li1322 O1380 1.961 . S
Li1322 O1382 1.956 . S
Li1322 O1383 1.970 . S
Li1323 N1373 1.990 . S
Li1323 O1381 1.961 . S
Li1323 O1382 1.970 . S
Li1323 O1383 1.956 . S
C1324 C1326 1.348 . S
C1324 C1327 1.356 . S
C1324 O1380 1.325 . S
N1325 C1328 1.314 . S
N1325 C1329 1.279 . S
C1326 C1324 1.348 . S
C1326 C1328 1.353 . S
C1326 H1384 0.929 . S
C1327 C1324 1.356 . S
C1327 C1329 1.358 . S
C1327 H1385 0.930 . S
C1328 N1325 1.314 . S
C1328 C1326 1.353 . S
C1328 H1386 0.930 . S
C1329 N1325 1.279 . S
C1329 C1327 1.358 . S
C1329 H1387 0.930 . S
C1330 C1333 1.348 . S
C1330 C1334 1.356 . S
C1330 O1381 1.325 . S
C1331 N1332 1.279 . S
C1331 C1334 1.358 . S
C1331 H1388 0.930 . S
N1332 C1331 1.279 . S
N1332 C1335 1.314 . S
C1333 C1330 1.348 . S
C1333 C1335 1.353 . S
C1333 H1389 0.929 . S
C1334 C1330 1.356 . S
C1334 C1331 1.358 . S
C1334 H1390 0.930 . S
C1335 N1332 1.314 . S
C1335 C1333 1.353 . S
C1335 H1391 0.930 . S
C1336 N1337 1.314 . S
C1336 C1341 1.353 . S
C1336 H1342 0.930 . S
N1337 Li1320 1.990 . S
N1337 C1336 1.314 . S
N1337 C1339 1.279 . S
C1338 C1339 1.358 . S
C1338 C1340 1.356 . S
C1338 H1392 0.930 . S
C1339 N1337 1.279 . S
C1339 C1338 1.358 . S
C1339 H1343 0.930 . S
C1340 C1338 1.356 . S
C1340 C1341 1.348 . S
C1341 C1336 1.353 . S
C1341 C1340 1.348 . S
C1341 H1393 0.929 . S
H1342 C1336 0.930 . S
H1343 C1339 0.930 . S
C1344 N1345 1.314 . S
C1344 C1346 1.353 . S
C1344 H1350 0.930 . S
N1345 Li1321 1.990 . S
N1345 C1344 1.314 . S
N1345 C1348 1.279 . S
C1346 C1344 1.353 . S
C1346 C1349 1.348 . S
C1346 H1394 0.929 . S
C1347 C1348 1.358 . S
C1347 C1349 1.356 . S
C1347 H1395 0.930 . S
C1348 N1345 1.279 . S
C1348 C1347 1.358 . S
C1348 H1351 0.930 . S
C1349 C1346 1.348 . S
C1349 C1347 1.356 . S
H1350 C1344 0.930 . S
H1351 C1348 0.930 . S
C1352 C1354 1.348 . S
C1352 C1355 1.356 . S
C1352 O1382 1.325 . S
N1353 C1356 1.314 . S
N1353 C1357 1.279 . S
C1354 C1352 1.348 . S
C1354 C1356 1.353 . S
C1354 H1396 0.929 . S
C1355 C1352 1.356 . S
C1355 C1357 1.358 . S
C1355 H1397 0.930 . S
C1356 N1353 1.314 . S
C1356 C1354 1.353 . S
C1356 H1398 0.930 . S
C1357 N1353 1.279 . S
C1357 C1355 1.358 . S
C1357 H1399 0.930 . S
C1358 C1359 1.348 . S
C1358 C1360 1.356 . S
C1358 O1383 1.325 . S
C1359 C1358 1.348 . S
C1359 C1361 1.353 . S
C1359 H1400 0.929 . S
C1360 C1358 1.356 . S
C1360 C1362 1.358 . S
C1360 H1401 0.930 . S
C1361 C1359 1.353 . S
C1361 N1363 1.314 . S
C1361 H1402 0.930 . S
C1362 C1360 1.358 . S
C1362 N1363 1.279 . S
C1362 H1403 0.930 . S
N1363 C1361 1.314 . S
N1363 C1362 1.279 . S
C1364 C1366 1.353 . S
C1364 N1367 1.314 . S
C1364 H1370 0.930 . S
C1365 N1367 1.279 . S
C1365 C1368 1.358 . S
C1365 H1371 0.930 . S
C1366 C1364 1.353 . S
C1366 C1369 1.348 . S
C1366 H1404 0.929 . S
N1367 Li1322 1.990 . S
N1367 C1364 1.314 . S
N1367 C1365 1.279 . S
C1368 C1365 1.358 . S
C1368 C1369 1.356 . S
C1368 H1405 0.930 . S
C1369 C1366 1.348 . S
C1369 C1368 1.356 . S
H1370 C1364 0.930 . S
H1371 C1365 0.930 . S
C1372 N1373 1.314 . S
C1372 C1374 1.353 . S
C1372 H1378 0.930 . S
N1373 Li1323 1.990 . S
N1373 C1372 1.314 . S
N1373 C1376 1.279 . S
C1374 C1372 1.353 . S
C1374 C1377 1.348 . S
C1374 H1406 0.929 . S
C1375 C1376 1.358 . S
C1375 C1377 1.356 . S
C1375 H1407 0.930 . S
C1376 N1373 1.279 . S
C1376 C1375 1.358 . S
C1376 H1379 0.930 . S
C1377 C1374 1.348 . S
C1377 C1375 1.356 . S
H1378 C1372 0.930 . S
H1379 C1376 0.930 . S
O1380 Li1320 1.956 . S
O1380 Li1321 1.970 . S
O1380 Li1322 1.961 . S
O1380 C1324 1.325 . S
O1381 Li1320 1.970 . S
O1381 Li1321 1.956 . S
O1381 Li1323 1.961 . S
O1381 C1330 1.325 . S
O1382 Li1320 1.961 . S
O1382 Li1322 1.956 . S
O1382 Li1323 1.970 . S
O1382 C1352 1.325 . S
O1383 Li1321 1.961 . S
O1383 Li1322 1.970 . S
O1383 Li1323 1.956 . S
O1383 C1358 1.325 . S
H1384 C1326 0.929 . S
H1385 C1327 0.930 . S
H1386 C1328 0.930 . S
H1387 C1329 0.930 . S
H1388 C1331 0.930 . S
H1389 C1333 0.929 . S
H1390 C1334 0.930 . S
H1391 C1335 0.930 . S
H1392 C1338 0.930 . S
H1393 C1341 0.929 . S
H1394 C1346 0.929 . S
H1395 C1347 0.930 . S
H1396 C1354 0.929 . S
H1397 C1355 0.930 . S
H1398 C1356 0.930 . S
H1399 C1357 0.930 . S
H1400 C1359 0.929 . S
H1401 C1360 0.930 . S
H1402 C1361 0.930 . S
H1403 C1362 0.930 . S
H1404 C1366 0.929 . S
H1405 C1368 0.930 . S
H1406 C1374 0.929 . S
H1407 C1375 0.930 . S
C1408 C1409 1.391 . S
C1408 C1410 1.394 . S
C1408 H1424 0.931 . S
C1409 C1408 1.391 . S
C1409 C1413 1.376 1_556 S
C1410 C1408 1.394 . S
C1410 C1411 1.369 . S
C1410 C1414 1.531 . S
C1411 C1410 1.369 . S
C1411 C1412 1.410 1_556 S
C1411 C1419 1.503 . S
C1412 C1411 1.410 1_554 S
C1412 C1413 1.392 . S
C1412 C1415 1.511 . S
C1413 C1409 1.376 1_554 S
C1413 C1412 1.392 . S
C1413 H1425 0.929 . S
C1414 C1410 1.531 . S
C1414 H1426 0.960 . S
C1414 H1427 0.962 . S
C1414 H1428 0.960 . S
C1415 C1412 1.511 . S
C1415 H1429 0.961 . S
C1415 H1430 0.961 . S
C1415 H1431 0.948 1_554 S
C1416 C1417 1.370 1_554 S
C1416 C1418 1.363 . S
C1416 H1432 0.931 . S
C1417 C1416 1.370 1_556 S
C1417 C1421 1.408 . S
C1418 C1416 1.363 . S
C1418 C1419 1.370 1_554 S
C1418 C1422 1.524 . S
C1419 C1411 1.503 . S
C1419 C1418 1.370 1_556 S
C1419 C1420 1.403 . S
C1420 C1419 1.403 . S
C1420 C1421 1.404 . S
C1420 C1423 1.539 . S
C1421 C1417 1.408 . S
C1421 C1420 1.404 . S
C1421 H1433 0.930 . S
C1422 C1418 1.524 . S
C1422 H1434 0.956 . S
C1422 H1435 0.961 . S
C1422 H1436 0.961 . S
C1423 C1420 1.539 . S
C1423 H1437 0.958 . S
C1423 H1438 0.961 . S
C1423 H1439 0.960 . S
H1424 C1408 0.931 . S
H1425 C1413 0.929 . S
H1426 C1414 0.960 . S
H1427 C1414 0.962 . S
H1428 C1414 0.960 . S
H1429 C1415 0.961 . S
H1430 C1415 0.961 . S
H1431 C1415 0.948 1_556 S
H1432 C1416 0.931 . S
H1433 C1421 0.930 . S
H1434 C1422 0.956 . S
H1435 C1422 0.961 . S
H1436 C1422 0.961 . S
H1437 C1423 0.958 . S
H1438 C1423 0.961 . S
H1439 C1423 0.960 . S
C1440 C1441 1.391 1_554 S
C1440 C1442 1.394 . S
C1440 H1456 0.931 . S
C1441 C1440 1.391 1_556 S
C1441 C1445 1.376 . S
C1442 C1440 1.394 . S
C1442 C1443 1.369 1_554 S
C1442 C1446 1.531 . S
C1443 C1442 1.369 1_556 S
C1443 C1444 1.410 . S
C1443 C1451 1.503 . S
C1444 C1443 1.410 . S
C1444 C1445 1.392 . S
C1444 C1447 1.511 . S
C1445 C1441 1.376 . S
C1445 C1444 1.392 . S
C1445 H1457 0.929 . S
C1446 C1442 1.531 . S
C1446 H1458 0.960 . S
C1446 H1459 0.962 . S
C1446 H1460 0.960 . S
C1447 C1444 1.511 . S
C1447 H1461 0.961 . S
C1447 H1462 0.961 . S
C1447 H1463 0.961 . S
C1448 C1449 1.370 1_554 S
C1448 C1450 1.363 . S
C1448 H1464 0.931 . S
C1449 C1448 1.370 1_556 S
C1449 C1453 1.408 . S
C1450 C1448 1.363 . S
C1450 C1451 1.370 1_554 S
C1450 C1454 1.524 . S
C1451 C1443 1.503 . S
C1451 C1450 1.370 1_556 S
C1451 C1452 1.403 . S
C1452 C1451 1.403 . S
C1452 C1453 1.404 . S
C1452 C1455 1.539 . S
C1453 C1449 1.408 . S
C1453 C1452 1.404 . S
C1453 H1465 0.930 . S
C1454 C1450 1.524 . S
C1454 H1466 0.956 . S
C1454 H1467 0.961 . S
C1454 H1468 0.961 . S
C1455 C1452 1.539 . S
C1455 H1469 0.958 . S
C1455 H1470 0.961 . S
C1455 H1471 0.960 . S
H1456 C1440 0.931 . S
H1457 C1445 0.929 . S
H1458 C1446 0.960 . S
H1459 C1446 0.962 . S
H1460 C1446 0.960 . S
H1461 C1447 0.961 . S
H1462 C1447 0.961 . S
H1463 C1447 0.961 . S
H1464 C1448 0.931 . S
H1465 C1453 0.930 . S
H1466 C1454 0.956 . S
H1467 C1454 0.961 . S
H1468 C1454 0.961 . S
H1469 C1455 0.958 . S
H1470 C1455 0.961 . S
H1471 C1455 0.960 . S
C1472 C1473 1.391 . S
C1472 C1474 1.394 . S
C1472 H1488 0.931 . S
C1473 C1472 1.391 . S
C1473 C1477 1.376 . S
C1474 C1472 1.394 . S
C1474 C1475 1.369 . S
C1474 C1478 1.531 . S
C1475 C1474 1.369 . S
C1475 C1476 1.410 . S
C1475 C1483 1.503 . S
C1476 C1475 1.410 . S
C1476 C1477 1.392 . S
C1476 C1479 1.511 1_556 S
C1477 C1473 1.376 . S
C1477 C1476 1.392 . S
C1477 H1489 0.929 1_556 S
C1478 C1474 1.531 . S
C1478 H1490 0.960 . S
C1478 H1491 0.962 1_556 S
C1478 H1492 0.960 . S
C1479 C1476 1.511 1_554 S
C1479 H1493 0.961 . S
C1479 H1494 0.962 . S
C1479 H1495 0.959 1_554 S
C1480 C1481 1.370 1_554 S
C1480 C1482 1.363 . S
C1480 H1496 0.931 . S
C1481 C1480 1.370 1_556 S
C1481 C1485 1.408 . S
C1482 C1480 1.363 . S
C1482 C1483 1.370 1_554 S
C1482 C1486 1.524 . S
C1483 C1475 1.503 . S
C1483 C1482 1.370 1_556 S
C1483 C1484 1.403 . S
C1484 C1483 1.403 . S
C1484 C1485 1.404 . S
C1484 C1487 1.539 . S
C1485 C1481 1.408 . S
C1485 C1484 1.404 . S
C1485 H1497 0.930 . S
C1486 C1482 1.524 . S
C1486 H1498 0.956 . S
C1486 H1499 0.961 . S
C1486 H1500 0.961 . S
C1487 C1484 1.539 . S
C1487 H1501 0.958 . S
C1487 H1502 0.961 . S
C1487 H1503 0.960 . S
H1488 C1472 0.931 . S
H1489 C1477 0.929 1_554 S
H1490 C1478 0.960 . S
H1491 C1478 0.962 1_554 S
H1492 C1478 0.960 . S
H1493 C1479 0.961 . S
H1494 C1479 0.962 . S
H1495 C1479 0.959 1_556 S
H1496 C1480 0.931 . S
H1497 C1485 0.930 . S
H1498 C1486 0.956 . S
H1499 C1486 0.961 . S
H1500 C1486 0.961 . S
H1501 C1487 0.958 . S
H1502 C1487 0.961 . S
H1503 C1487 0.960 . S
C1504 C1505 1.391 1_554 S
C1504 C1506 1.394 . S
C1504 H1520 0.931 . S
C1505 C1504 1.391 1_556 S
C1505 C1509 1.376 . S
C1506 C1504 1.394 . S
C1506 C1507 1.369 1_554 S
C1506 C1510 1.531 . S
C1507 C1506 1.369 1_556 S
C1507 C1508 1.410 . S
C1507 C1515 1.503 . S
C1508 C1507 1.410 . S
C1508 C1509 1.392 . S
C1508 C1511 1.511 . S
C1509 C1505 1.376 . S
C1509 C1508 1.392 . S
C1509 H1521 0.929 . S
C1510 C1506 1.531 . S
C1510 H1522 0.960 . S
C1510 H1523 0.962 . S
C1510 H1524 0.960 . S
C1511 C1508 1.511 . S
C1511 H1525 0.961 . S
C1511 H1526 0.961 . S
C1511 H1527 0.961 . S
C1512 C1513 1.370 1_554 S
C1512 C1514 1.363 . S
C1512 H1528 0.931 . S
C1513 C1512 1.370 1_556 S
C1513 C1517 1.408 . S
C1514 C1512 1.363 . S
C1514 C1515 1.370 1_554 S
C1514 C1518 1.524 . S
C1515 C1507 1.503 . S
C1515 C1514 1.370 1_556 S
C1515 C1516 1.403 . S
C1516 C1515 1.403 . S
C1516 C1517 1.404 . S
C1516 C1519 1.539 . S
C1517 C1513 1.408 . S
C1517 C1516 1.404 . S
C1517 H1529 0.930 . S
C1518 C1514 1.524 . S
C1518 H1530 0.956 . S
C1518 H1531 0.961 . S
C1518 H1532 0.961 . S
C1519 C1516 1.539 . S
C1519 H1533 0.958 . S
C1519 H1534 0.961 . S
C1519 H1535 0.960 . S
H1520 C1504 0.931 . S
H1521 C1509 0.929 . S
H1522 C1510 0.960 . S
H1523 C1510 0.962 . S
H1524 C1510 0.960 . S
H1525 C1511 0.961 . S
H1526 C1511 0.961 . S
H1527 C1511 0.961 . S
H1528 C1512 0.931 . S
H1529 C1517 0.930 . S
H1530 C1518 0.956 . S
H1531 C1518 0.961 . S
H1532 C1518 0.961 . S
H1533 C1519 0.958 . S
H1534 C1519 0.961 . S
H1535 C1519 0.960 . S
C1536 C1537 1.391 . S
C1536 C1538 1.394 . S
C1536 H1552 0.931 . S
C1537 C1536 1.391 . S
C1537 C1541 1.376 . S
C1538 C1536 1.394 . S
C1538 C1539 1.369 . S
C1538 C1542 1.531 . S
C1539 C1538 1.369 . S
C1539 C1540 1.410 . S
C1539 C1547 1.503 1_545 S
C1540 C1539 1.410 . S
C1540 C1541 1.392 . S
C1540 C1543 1.511 . S
C1541 C1537 1.376 . S
C1541 C1540 1.392 . S
C1541 H1553 0.929 . S
C1542 C1538 1.531 . S
C1542 H1554 0.960 1_545 S
C1542 H1555 0.962 . S
C1542 H1556 0.960 . S
C1543 C1540 1.511 . S
C1543 H1557 0.961 . S
C1543 H1558 0.961 1_545 S
C1543 H1559 0.961 . S
C1544 C1545 1.370 . S
C1544 C1546 1.363 . S
C1544 H1560 0.931 . S
C1545 C1544 1.370 . S
C1545 C1549 1.408 . S
C1546 C1544 1.363 . S
C1546 C1547 1.370 . S
C1546 C1550 1.524 . S
C1547 C1539 1.503 1_565 S
C1547 C1546 1.370 . S
C1547 C1548 1.403 . S
C1548 C1547 1.403 . S
C1548 C1549 1.404 . S
C1548 C1551 1.539 . S
C1549 C1545 1.408 . S
C1549 C1548 1.404 . S
C1549 H1561 0.930 . S
C1550 C1546 1.524 . S
C1550 H1562 0.983 . S
C1550 H1563 0.921 1_565 S
C1550 H1564 0.961 . S
C1551 C1548 1.539 . S
C1551 H1565 0.958 . S
C1551 H1566 0.961 . S
C1551 H1567 0.966 . S
H1552 C1536 0.931 . S
H1553 C1541 0.929 . S
H1554 C1542 0.960 1_565 S
H1555 C1542 0.962 . S
H1556 C1542 0.960 . S
H1557 C1543 0.961 . S
H1558 C1543 0.961 1_565 S
H1559 C1543 0.961 . S
H1560 C1544 0.931 . S
H1561 C1549 0.930 . S
H1562 C1550 0.983 . S
H1563 C1550 0.921 1_545 S
H1564 C1550 0.961 . S
H1565 C1551 0.958 . S
H1566 C1551 0.961 . S
H1567 C1551 0.966 . S
C1568 C1569 1.391 . S
C1568 C1570 1.394 . S
C1568 H1584 0.931 . S
C1569 C1568 1.391 . S
C1569 C1573 1.376 . S
C1570 C1568 1.394 . S
C1570 C1571 1.369 . S
C1570 C1574 1.531 . S
C1571 C1570 1.369 . S
C1571 C1572 1.410 . S
C1571 C1579 1.503 1_655 S
C1572 C1571 1.410 . S
C1572 C1573 1.392 . S
C1572 C1575 1.511 . S
C1573 C1569 1.376 . S
C1573 C1572 1.392 . S
C1573 H1585 0.929 . S
C1574 C1570 1.531 . S
C1574 H1586 0.960 1_655 S
C1574 H1587 0.962 . S
C1574 H1588 0.960 . S
C1575 C1572 1.511 . S
C1575 H1589 0.961 . S
C1575 H1590 0.961 1_655 S
C1575 H1591 0.961 . S
C1576 C1577 1.370 . S
C1576 C1578 1.363 . S
C1576 H1592 0.931 . S
C1577 C1576 1.370 . S
C1577 C1581 1.408 . S
C1578 C1576 1.363 . S
C1578 C1579 1.370 . S
C1578 C1582 1.524 . S
C1579 C1571 1.503 1_455 S
C1579 C1578 1.370 . S
C1579 C1580 1.403 . S
C1580 C1579 1.403 . S
C1580 C1581 1.404 . S
C1580 C1583 1.539 . S
C1581 C1577 1.408 . S
C1581 C1580 1.404 . S
C1581 H1593 0.930 . S
C1582 C1578 1.524 . S
C1582 H1594 0.980 . S
C1582 H1595 0.918 1_455 S
C1582 H1596 0.961 . S
C1583 C1580 1.539 . S
C1583 H1597 0.958 . S
C1583 H1598 0.961 . S
C1583 H1599 0.971 . S
H1584 C1568 0.931 . S
H1585 C1573 0.929 . S
H1586 C1574 0.960 1_455 S
H1587 C1574 0.962 . S
H1588 C1574 0.960 . S
H1589 C1575 0.961 . S
H1590 C1575 0.961 1_455 S
H1591 C1575 0.961 . S
H1592 C1576 0.931 . S
H1593 C1581 0.930 . S
H1594 C1582 0.980 . S
H1595 C1582 0.918 1_655 S
H1596 C1582 0.961 . S
H1597 C1583 0.958 . S
H1598 C1583 0.961 . S
H1599 C1583 0.971 . S
C1600 C1601 1.391 . S
C1600 C1602 1.394 . S
C1600 H1616 0.931 . S
C1601 C1600 1.391 . S
C1601 C1605 1.376 . S
C1602 C1600 1.394 . S
C1602 C1603 1.369 . S
C1602 C1606 1.531 . S
C1603 C1602 1.369 . S
C1603 C1604 1.410 . S
C1603 C1611 1.503 1_545 S
C1604 C1603 1.410 . S
C1604 C1605 1.392 . S
C1604 C1607 1.511 . S
C1605 C1601 1.376 . S
C1605 C1604 1.392 . S
C1605 H1617 0.929 . S
C1606 C1602 1.531 . S
C1606 H1618 0.960 1_545 S
C1606 H1619 0.962 . S
C1606 H1620 0.960 . S
C1607 C1604 1.511 . S
C1607 H1621 0.961 . S
C1607 H1622 0.961 1_545 S
C1607 H1623 0.961 . S
C1608 C1609 1.370 . S
C1608 C1610 1.363 . S
C1608 H1624 0.931 . S
C1609 C1608 1.370 . S
C1609 C1613 1.408 . S
C1610 C1608 1.363 . S
C1610 C1611 1.370 . S
C1610 C1614 1.524 . S
C1611 C1603 1.503 1_565 S
C1611 C1610 1.370 . S
C1611 C1612 1.403 . S
C1612 C1611 1.403 . S
C1612 C1613 1.404 . S
C1612 C1615 1.539 . S
C1613 C1609 1.408 . S
C1613 C1612 1.404 . S
C1613 H1625 0.930 . S
C1614 C1610 1.524 . S
C1614 H1626 0.981 . S
C1614 H1627 0.916 1_565 S
C1614 H1628 0.961 . S
C1615 C1612 1.539 . S
C1615 H1629 0.958 . S
C1615 H1630 0.961 . S
C1615 H1631 0.971 . S
H1616 C1600 0.931 . S
H1617 C1605 0.929 . S
H1618 C1606 0.960 1_565 S
H1619 C1606 0.962 . S
H1620 C1606 0.960 . S
H1621 C1607 0.961 . S
H1622 C1607 0.961 1_565 S
H1623 C1607 0.961 . S
H1624 C1608 0.931 . S
H1625 C1613 0.930 . S
H1626 C1614 0.981 . S
H1627 C1614 0.916 1_545 S
H1628 C1614 0.961 . S
H1629 C1615 0.958 . S
H1630 C1615 0.961 . S
H1631 C1615 0.971 . S
C1632 C1633 1.391 . S
C1632 C1634 1.394 . S
C1632 H1648 0.931 . S
C1633 C1632 1.391 . S
C1633 C1637 1.376 . S
C1634 C1632 1.394 . S
C1634 C1635 1.369 . S
C1634 C1638 1.531 . S
C1635 C1634 1.369 . S
C1635 C1636 1.410 . S
C1635 C1643 1.503 1_455 S
C1636 C1635 1.410 . S
C1636 C1637 1.392 . S
C1636 C1639 1.511 . S
C1637 C1633 1.376 . S
C1637 C1636 1.392 . S
C1637 H1649 0.929 . S
C1638 C1634 1.531 . S
C1638 H1650 0.960 1_455 S
C1638 H1651 0.962 . S
C1638 H1652 0.960 . S
C1639 C1636 1.511 . S
C1639 H1653 0.961 . S
C1639 H1654 0.961 1_455 S
C1639 H1655 0.961 . S
C1640 C1641 1.370 . S
C1640 C1642 1.363 . S
C1640 H1656 0.931 . S
C1641 C1640 1.370 . S
C1641 C1645 1.408 . S
C1642 C1640 1.363 . S
C1642 C1643 1.370 . S
C1642 C1646 1.524 . S
C1643 C1635 1.503 1_655 S
C1643 C1642 1.370 . S
C1643 C1644 1.403 . S
C1644 C1643 1.403 . S
C1644 C1645 1.404 . S
C1644 C1647 1.539 . S
C1645 C1641 1.408 . S
C1645 C1644 1.404 . S
C1645 H1657 0.930 . S
C1646 C1642 1.524 . S
C1646 H1658 0.983 . S
C1646 H1659 0.921 1_655 S
C1646 H1660 0.961 . S
C1647 C1644 1.539 . S
C1647 H1661 0.958 . S
C1647 H1662 0.961 . S
C1647 H1663 0.966 . S
H1648 C1632 0.931 . S
H1649 C1637 0.929 . S
H1650 C1638 0.960 1_655 S
H1651 C1638 0.962 . S
H1652 C1638 0.960 . S
H1653 C1639 0.961 . S
H1654 C1639 0.961 1_655 S
H1655 C1639 0.961 . S
H1656 C1640 0.931 . S
H1657 C1645 0.930 . S
H1658 C1646 0.983 . S
H1659 C1646 0.921 1_455 S
H1660 C1646 0.961 . S
H1661 C1647 0.958 . S
H1662 C1647 0.961 . S
H1663 C1647 0.966 . S
C1664 C1665 1.399 . S
C1664 C1666 1.394 . S
C1664 H1680 0.931 . S
C1665 C1664 1.399 . S
C1665 C1669 1.368 1_556 S
C1666 C1664 1.394 . S
C1666 C1667 1.369 . S
C1666 C1670 1.531 . S
C1667 C1666 1.369 . S
C1667 C1668 1.410 1_556 S
C1667 C1675 1.503 . S
C1668 C1667 1.410 1_554 S
C1668 C1669 1.392 . S
C1668 C1671 1.511 . S
C1669 C1665 1.368 1_554 S
C1669 C1668 1.392 . S
C1669 H1681 0.929 . S
C1670 C1666 1.531 . S
C1670 H1682 0.960 . S
C1670 H1683 0.962 . S
C1670 H1684 0.960 . S
C1671 C1668 1.511 . S
C1671 H1685 0.961 . S
C1671 H1686 0.961 . S
C1671 H1687 0.961 . S
C1672 C1673 1.370 1_554 S
C1672 C1674 1.363 . S
C1672 H1688 0.931 . S
C1673 C1672 1.370 1_556 S
C1673 C1677 1.408 . S
C1674 C1672 1.363 . S
C1674 C1675 1.370 1_554 S
C1674 C1678 1.524 . S
C1675 C1667 1.503 . S
C1675 C1674 1.370 1_556 S
C1675 C1676 1.403 . S
C1676 C1675 1.403 . S
C1676 C1677 1.404 . S
C1676 C1679 1.539 . S
C1677 C1673 1.408 . S
C1677 C1676 1.404 . S
C1677 H1689 0.930 . S
C1678 C1674 1.524 . S
C1678 H1690 0.956 1_554 S
C1678 H1691 0.961 . S
C1678 H1692 0.961 . S
C1679 C1676 1.539 . S
C1679 H1693 0.958 . S
C1679 H1694 0.961 . S
C1679 H1695 0.960 . S
H1680 C1664 0.931 . S
H1681 C1669 0.929 . S
H1682 C1670 0.960 . S
H1683 C1670 0.962 . S
H1684 C1670 0.960 . S
H1685 C1671 0.961 . S
H1686 C1671 0.961 . S
H1687 C1671 0.961 . S
H1688 C1672 0.931 . S
H1689 C1677 0.930 . S
H1690 C1678 0.956 1_556 S
H1691 C1678 0.961 . S
H1692 C1678 0.961 . S
H1693 C1679 0.958 . S
H1694 C1679 0.961 . S
H1695 C1679 0.960 . S
C1696 C1697 1.391 . S
C1696 C1698 1.394 . S
C1696 H1712 0.931 . S
C1697 C1696 1.391 . S
C1697 C1701 1.376 1_556 S
C1698 C1696 1.394 . S
C1698 C1699 1.369 . S
C1698 C1702 1.531 . S
C1699 C1698 1.369 . S
C1699 C1700 1.410 1_556 S
C1699 C1707 1.503 . S
C1700 C1699 1.410 1_554 S
C1700 C1701 1.392 . S
C1700 C1703 1.511 . S
C1701 C1697 1.376 1_554 S
C1701 C1700 1.392 . S
C1701 H1713 0.929 . S
C1702 C1698 1.531 . S
C1702 H1714 0.960 . S
C1702 H1715 0.962 . S
C1702 H1716 0.960 . S
C1703 C1700 1.511 . S
C1703 H1717 0.961 . S
C1703 H1718 0.961 . S
C1703 H1719 0.961 . S
C1704 C1705 1.357 1_554 S
C1704 C1706 1.363 . S
C1704 H1720 0.931 . S
C1705 C1704 1.357 1_556 S
C1705 C1709 1.423 . S
C1706 C1704 1.363 . S
C1706 C1707 1.370 1_554 S
C1706 C1710 1.524 . S
C1707 C1699 1.503 . S
C1707 C1706 1.370 1_556 S
C1707 C1708 1.403 . S
C1708 C1707 1.403 . S
C1708 C1709 1.404 . S
C1708 C1711 1.539 . S
C1709 C1705 1.423 . S
C1709 C1708 1.404 . S
C1709 H1721 0.930 . S
C1710 C1706 1.524 . S
C1710 H1722 0.956 . S
C1710 H1723 0.961 . S
C1710 H1724 0.961 . S
C1711 C1708 1.539 . S
C1711 H1725 0.958 . S
C1711 H1726 0.961 . S
C1711 H1727 0.960 . S
H1712 C1696 0.931 . S
H1713 C1701 0.929 . S
H1714 C1702 0.960 . S
H1715 C1702 0.962 . S
H1716 C1702 0.960 . S
H1717 C1703 0.961 . S
H1718 C1703 0.961 . S
H1719 C1703 0.961 . S
H1720 C1704 0.931 . S
H1721 C1709 0.930 . S
H1722 C1710 0.956 . S
H1723 C1710 0.961 . S
H1724 C1710 0.961 . S
H1725 C1711 0.958 . S
H1726 C1711 0.961 . S
H1727 C1711 0.960 . S
C1728 C1729 1.391 1_556 S
C1728 C1730 1.394 . S
C1728 H1744 0.931 . S
C1729 C1728 1.391 1_554 S
C1729 C1733 1.376 . S
C1730 C1728 1.394 . S
C1730 C1731 1.369 1_556 S
C1730 C1734 1.531 . S
C1731 C1730 1.369 1_554 S
C1731 C1732 1.410 . S
C1731 C1739 1.503 . S
C1732 C1731 1.410 . S
C1732 C1733 1.392 . S
C1732 C1735 1.511 . S
C1733 C1729 1.376 . S
C1733 C1732 1.392 . S
C1733 H1745 0.929 . S
C1734 C1730 1.531 . S
C1734 H1746 0.960 . S
C1734 H1747 0.962 . S
C1734 H1748 0.960 . S
C1735 C1732 1.511 . S
C1735 H1749 0.961 . S
C1735 H1750 0.961 . S
C1735 H1751 0.961 . S
C1736 C1737 1.360 1_556 S
C1736 C1738 1.363 . S
C1736 H1752 0.931 . S
C1737 C1736 1.360 1_554 S
C1737 C1741 1.420 . S
C1738 C1736 1.363 . S
C1738 C1739 1.370 1_556 S
C1738 C1742 1.524 . S
C1739 C1731 1.503 . S
C1739 C1738 1.370 1_554 S
C1739 C1740 1.403 . S
C1740 C1739 1.403 . S
C1740 C1741 1.404 . S
C1740 C1743 1.539 . S
C1741 C1737 1.420 . S
C1741 C1740 1.404 . S
C1741 H1753 0.930 . S
C1742 C1738 1.524 . S
C1742 H1754 0.956 . S
C1742 H1755 0.961 . S
C1742 H1756 0.961 . S
C1743 C1740 1.539 . S
C1743 H1757 0.958 . S
C1743 H1758 0.961 . S
C1743 H1759 0.960 . S
H1744 C1728 0.931 . S
H1745 C1733 0.929 . S
H1746 C1734 0.960 . S
H1747 C1734 0.962 . S
H1748 C1734 0.960 . S
H1749 C1735 0.961 . S
H1750 C1735 0.961 . S
H1751 C1735 0.961 . S
H1752 C1736 0.931 . S
H1753 C1741 0.930 . S
H1754 C1742 0.956 . S
H1755 C1742 0.961 . S
H1756 C1742 0.961 . S
H1757 C1743 0.958 . S
H1758 C1743 0.961 . S
H1759 C1743 0.960 . S
C1760 C1761 1.391 1_554 S
C1760 C1762 1.394 . S
C1760 H1776 0.931 . S
C1761 C1760 1.391 1_556 S
C1761 C1765 1.376 . S
C1762 C1760 1.394 . S
C1762 C1763 1.369 1_554 S
C1762 C1766 1.531 . S
C1763 C1762 1.369 1_556 S
C1763 C1764 1.410 . S
C1763 C1771 1.503 . S
C1764 C1763 1.410 . S
C1764 C1765 1.392 . S
C1764 C1767 1.511 . S
C1765 C1761 1.376 . S
C1765 C1764 1.392 . S
C1765 H1777 0.929 . S
C1766 C1762 1.531 . S
C1766 H1778 0.960 1_554 S
C1766 H1779 0.962 . S
C1766 H1780 0.960 . S
C1767 C1764 1.511 . S
C1767 H1781 0.961 . S
C1767 H1782 0.961 . S
C1767 H1783 0.961 . S
C1768 C1769 1.370 1_554 S
C1768 C1770 1.363 . S
C1768 H1784 0.931 . S
C1769 C1768 1.370 1_556 S
C1769 C1773 1.408 . S
C1770 C1768 1.363 . S
C1770 C1771 1.370 1_554 S
C1770 C1774 1.524 . S
C1771 C1763 1.503 . S
C1771 C1770 1.370 1_556 S
C1771 C1772 1.403 . S
C1772 C1771 1.403 . S
C1772 C1773 1.404 . S
C1772 C1775 1.539 . S
C1773 C1769 1.408 . S
C1773 C1772 1.404 . S
C1773 H1785 0.930 . S
C1774 C1770 1.524 . S
C1774 H1786 0.956 . S
C1774 H1787 0.961 . S
C1774 H1788 0.961 . S
C1775 C1772 1.539 . S
C1775 H1789 0.958 . S
C1775 H1790 0.961 . S
C1775 H1791 0.960 . S
H1776 C1760 0.931 . S
H1777 C1765 0.929 . S
H1778 C1766 0.960 1_556 S
H1779 C1766 0.962 . S
H1780 C1766 0.960 . S
H1781 C1767 0.961 . S
H1782 C1767 0.961 . S
H1783 C1767 0.961 . S
H1784 C1768 0.931 . S
H1785 C1773 0.930 . S
H1786 C1774 0.956 . S
H1787 C1774 0.961 . S
H1788 C1774 0.961 . S
H1789 C1775 0.958 . S
H1790 C1775 0.961 . S
H1791 C1775 0.960 . S
C1792 C1793 1.391 . S
C1792 C1794 1.394 . S
C1792 H1808 0.931 . S
C1793 C1792 1.391 . S
C1793 C1797 1.376 . S
C1794 C1792 1.394 . S
C1794 C1795 1.369 . S
C1794 C1798 1.531 . S
C1795 C1794 1.369 . S
C1795 C1796 1.410 . S
C1795 C1803 1.503 . S
C1796 C1795 1.410 . S
C1796 C1797 1.392 . S
C1796 C1799 1.511 . S
C1797 C1793 1.376 . S
C1797 C1796 1.392 . S
C1797 H1809 0.929 . S
C1798 C1794 1.531 . S
C1798 H1810 0.960 . S
C1798 H1811 0.962 . S
C1798 H1812 0.960 . S
C1799 C1796 1.511 . S
C1799 H1813 0.961 . S
C1799 H1814 0.961 . S
C1799 H1815 0.961 . S
C1800 C1801 1.370 . S
C1800 C1802 1.363 . S
C1800 H1816 0.931 . S
C1801 C1800 1.370 . S
C1801 C1805 1.408 . S
C1802 C1800 1.363 . S
C1802 C1803 1.370 . S
C1802 C1806 1.524 . S
C1803 C1795 1.503 . S
C1803 C1802 1.370 . S
C1803 C1804 1.403 . S
C1804 C1803 1.403 . S
C1804 C1805 1.404 . S
C1804 C1807 1.539 . S
C1805 C1801 1.408 . S
C1805 C1804 1.404 . S
C1805 H1817 0.930 . S
C1806 C1802 1.524 . S
C1806 H1818 0.956 . S
C1806 H1819 0.961 . S
C1806 H1820 0.961 . S
C1807 C1804 1.539 . S
C1807 H1821 0.958 . S
C1807 H1822 0.961 . S
C1807 H1823 0.960 . S
H1808 C1792 0.931 . S
H1809 C1797 0.929 . S
H1810 C1798 0.960 . S
H1811 C1798 0.962 . S
H1812 C1798 0.960 . S
H1813 C1799 0.961 . S
H1814 C1799 0.961 . S
H1815 C1799 0.961 . S
H1816 C1800 0.931 . S
H1817 C1805 0.930 . S
H1818 C1806 0.956 . S
H1819 C1806 0.961 . S
H1820 C1806 0.961 . S
H1821 C1807 0.958 . S
H1822 C1807 0.961 . S
H1823 C1807 0.960 . S
C1824 C1825 1.391 . S
C1824 C1826 1.394 . S
C1824 H1840 0.931 . S
C1825 C1824 1.391 . S
C1825 C1829 1.376 . S
C1826 C1824 1.394 . S
C1826 C1827 1.369 . S
C1826 C1830 1.531 . S
C1827 C1826 1.369 . S
C1827 C1828 1.410 . S
C1827 C1835 1.503 . S
C1828 C1827 1.410 . S
C1828 C1829 1.392 . S
C1828 C1831 1.511 . S
C1829 C1825 1.376 . S
C1829 C1828 1.392 . S
C1829 H1841 0.929 . S
C1830 C1826 1.531 . S
C1830 H1842 0.960 . S
C1830 H1843 0.962 . S
C1830 H1844 0.960 . S
C1831 C1828 1.511 . S
C1831 H1845 0.961 . S
C1831 H1846 0.961 . S
C1831 H1847 0.961 . S
C1832 C1833 1.370 . S
C1832 C1834 1.363 . S
C1832 H1848 0.931 . S
C1833 C1832 1.370 . S
C1833 C1837 1.408 . S
C1834 C1832 1.363 . S
C1834 C1835 1.370 . S
C1834 C1838 1.524 . S
C1835 C1827 1.503 . S
C1835 C1834 1.370 . S
C1835 C1836 1.403 . S
C1836 C1835 1.403 . S
C1836 C1837 1.404 . S
C1836 C1839 1.539 . S
C1837 C1833 1.408 . S
C1837 C1836 1.404 . S
C1837 H1849 0.930 . S
C1838 C1834 1.524 . S
C1838 H1850 0.956 . S
C1838 H1851 0.961 . S
C1838 H1852 0.961 . S
C1839 C1836 1.539 . S
C1839 H1853 0.958 . S
C1839 H1854 0.961 . S
C1839 H1855 0.960 . S
H1840 C1824 0.931 . S
H1841 C1829 0.929 . S
H1842 C1830 0.960 . S
H1843 C1830 0.962 . S
H1844 C1830 0.960 . S
H1845 C1831 0.961 . S
H1846 C1831 0.961 . S
H1847 C1831 0.961 . S
H1848 C1832 0.931 . S
H1849 C1837 0.930 . S
H1850 C1838 0.956 . S
H1851 C1838 0.961 . S
H1852 C1838 0.961 . S
H1853 C1839 0.958 . S
H1854 C1839 0.961 . S
H1855 C1839 0.960 . S
C1856 C1857 1.391 . S
C1856 C1858 1.394 . S
C1856 H1872 0.931 . S
C1857 C1856 1.391 . S
C1857 C1861 1.376 . S
C1858 C1856 1.394 . S
C1858 C1859 1.369 . S
C1858 C1862 1.531 . S
C1859 C1858 1.369 . S
C1859 C1860 1.410 . S
C1859 C1867 1.503 . S
C1860 C1859 1.410 . S
C1860 C1861 1.392 . S
C1860 C1863 1.511 . S
C1861 C1857 1.376 . S
C1861 C1860 1.392 . S
C1861 H1873 0.929 . S
C1862 C1858 1.531 . S
C1862 H1874 0.960 . S
C1862 H1875 0.962 . S
C1862 H1876 0.960 . S
C1863 C1860 1.511 . S
C1863 H1877 0.961 . S
C1863 H1878 0.961 . S
C1863 H1879 0.961 . S
C1864 C1865 1.370 . S
C1864 C1866 1.363 . S
C1864 H1880 0.931 . S
C1865 C1864 1.370 . S
C1865 C1869 1.408 . S
C1866 C1864 1.363 . S
C1866 C1867 1.370 . S
C1866 C1870 1.524 . S
C1867 C1859 1.503 . S
C1867 C1866 1.370 . S
C1867 C1868 1.403 . S
C1868 C1867 1.403 . S
C1868 C1869 1.404 . S
C1868 C1871 1.539 . S
C1869 C1865 1.408 . S
C1869 C1868 1.404 . S
C1869 H1881 0.930 . S
C1870 C1866 1.524 . S
C1870 H1882 0.956 . S
C1870 H1883 0.961 . S
C1870 H1884 0.961 . S
C1871 C1868 1.539 . S
C1871 H1885 0.958 . S
C1871 H1886 0.961 . S
C1871 H1887 0.960 . S
H1872 C1856 0.931 . S
H1873 C1861 0.929 . S
H1874 C1862 0.960 . S
H1875 C1862 0.962 . S
H1876 C1862 0.960 . S
H1877 C1863 0.961 . S
H1878 C1863 0.961 . S
H1879 C1863 0.961 . S
H1880 C1864 0.931 . S
H1881 C1869 0.930 . S
H1882 C1870 0.956 . S
H1883 C1870 0.961 . S
H1884 C1870 0.961 . S
H1885 C1871 0.958 . S
H1886 C1871 0.961 . S
H1887 C1871 0.960 . S
C1888 C1889 1.391 . S
C1888 C1890 1.394 . S
C1888 H1904 0.931 . S
C1889 C1888 1.391 . S
C1889 C1893 1.376 . S
C1890 C1888 1.394 . S
C1890 C1891 1.369 . S
C1890 C1894 1.531 . S
C1891 C1890 1.369 . S
C1891 C1892 1.410 . S
C1891 C1899 1.503 . S
C1892 C1891 1.410 . S
C1892 C1893 1.392 . S
C1892 C1895 1.511 . S
C1893 C1889 1.376 . S
C1893 C1892 1.392 . S
C1893 H1905 0.929 . S
C1894 C1890 1.531 . S
C1894 H1906 0.960 . S
C1894 H1907 0.962 . S
C1894 H1908 0.960 . S
C1895 C1892 1.511 . S
C1895 H1909 0.961 . S
C1895 H1910 0.961 . S
C1895 H1911 0.961 . S
C1896 C1897 1.370 . S
C1896 C1898 1.363 . S
C1896 H1912 0.931 . S
C1897 C1896 1.370 . S
C1897 C1901 1.408 . S
C1898 C1896 1.363 . S
C1898 C1899 1.370 . S
C1898 C1902 1.524 . S
C1899 C1891 1.503 . S
C1899 C1898 1.370 . S
C1899 C1900 1.403 . S
C1900 C1899 1.403 . S
C1900 C1901 1.404 . S
C1900 C1903 1.539 . S
C1901 C1897 1.408 . S
C1901 C1900 1.404 . S
C1901 H1913 0.930 . S
C1902 C1898 1.524 . S
C1902 H1914 0.956 . S
C1902 H1915 0.961 . S
C1902 H1916 0.961 . S
C1903 C1900 1.539 . S
C1903 H1917 0.958 . S
C1903 H1918 0.961 . S
C1903 H1919 0.960 . S
H1904 C1888 0.931 . S
H1905 C1893 0.929 . S
H1906 C1894 0.960 . S
H1907 C1894 0.962 . S
H1908 C1894 0.960 . S
H1909 C1895 0.961 . S
H1910 C1895 0.961 . S
H1911 C1895 0.961 . S
H1912 C1896 0.931 . S
H1913 C1901 0.930 . S
H1914 C1902 0.956 . S
H1915 C1902 0.961 . S
H1916 C1902 0.961 . S
H1917 C1903 0.958 . S
H1918 C1903 0.961 . S
H1919 C1903 0.960 . S
C1920 C1921 1.391 . S
C1920 C1922 1.394 . S
C1920 H1936 0.931 . S
C1921 C1920 1.391 . S
C1921 C1925 1.376 . S
C1922 C1920 1.394 . S
C1922 C1923 1.369 . S
C1922 C1926 1.531 . S
C1923 C1922 1.369 . S
C1923 C1924 1.410 . S
C1923 C1931 1.503 . S
C1924 C1923 1.410 . S
C1924 C1925 1.392 . S
C1924 C1927 1.511 . S
C1925 C1921 1.376 . S
C1925 C1924 1.392 . S
C1925 H1937 0.929 . S
C1926 C1922 1.531 . S
C1926 H1938 0.960 . S
C1926 H1939 0.962 . S
C1926 H1940 0.960 . S
C1927 C1924 1.511 . S
C1927 H1941 0.961 . S
C1927 H1942 0.961 . S
C1927 H1943 0.961 . S
C1928 C1929 1.370 . S
C1928 C1930 1.363 . S
C1928 H1944 0.931 . S
C1929 C1928 1.370 . S
C1929 C1933 1.408 . S
C1930 C1928 1.363 . S
C1930 C1931 1.370 . S
C1930 C1934 1.524 . S
C1931 C1923 1.503 . S
C1931 C1930 1.370 . S
C1931 C1932 1.403 . S
C1932 C1931 1.403 . S
C1932 C1933 1.404 . S
C1932 C1935 1.539 . S
C1933 C1929 1.408 . S
C1933 C1932 1.404 . S
C1933 H1945 0.930 . S
C1934 C1930 1.524 . S
C1934 H1946 0.956 . S
C1934 H1947 0.961 . S
C1934 H1948 0.961 . S
C1935 C1932 1.539 . S
C1935 H1949 0.958 . S
C1935 H1950 0.961 . S
C1935 H1951 0.960 . S
H1936 C1920 0.931 . S
H1937 C1925 0.929 . S
H1938 C1926 0.960 . S
H1939 C1926 0.962 . S
H1940 C1926 0.960 . S
H1941 C1927 0.961 . S
H1942 C1927 0.961 . S
H1943 C1927 0.961 . S
H1944 C1928 0.931 . S
H1945 C1933 0.930 . S
H1946 C1934 0.956 . S
H1947 C1934 0.961 . S
H1948 C1934 0.961 . S
H1949 C1935 0.958 . S
H1950 C1935 0.961 . S
H1951 C1935 0.960 . S
C1952 C1953 1.391 . S
C1952 C1954 1.394 . S
C1952 H1968 0.931 . S
C1953 C1952 1.391 . S
C1953 C1957 1.376 . S
C1954 C1952 1.394 . S
C1954 C1955 1.369 . S
C1954 C1958 1.531 . S
C1955 C1954 1.369 . S
C1955 C1956 1.410 . S
C1955 C1963 1.503 . S
C1956 C1955 1.410 . S
C1956 C1957 1.392 . S
C1956 C1959 1.511 . S
C1957 C1953 1.376 . S
C1957 C1956 1.392 . S
C1957 H1969 0.929 . S
C1958 C1954 1.531 . S
C1958 H1970 0.960 . S
C1958 H1971 0.962 . S
C1958 H1972 0.960 . S
C1959 C1956 1.511 . S
C1959 H1973 0.961 . S
C1959 H1974 0.961 . S
C1959 H1975 0.961 . S
C1960 C1961 1.370 . S
C1960 C1962 1.363 . S
C1960 H1976 0.931 . S
C1961 C1960 1.370 . S
C1961 C1965 1.408 . S
C1962 C1960 1.363 . S
C1962 C1963 1.370 . S
C1962 C1966 1.524 . S
C1963 C1955 1.503 . S
C1963 C1962 1.370 . S
C1963 C1964 1.403 . S
C1964 C1963 1.403 . S
C1964 C1965 1.404 . S
C1964 C1967 1.539 . S
C1965 C1961 1.408 . S
C1965 C1964 1.404 . S
C1965 H1977 0.930 . S
C1966 C1962 1.524 . S
C1966 H1978 0.956 . S
C1966 H1979 0.961 . S
C1966 H1980 0.961 . S
C1967 C1964 1.539 . S
C1967 H1981 0.958 . S
C1967 H1982 0.961 . S
C1967 H1983 0.960 . S
H1968 C1952 0.931 . S
H1969 C1957 0.929 . S
H1970 C1958 0.960 . S
H1971 C1958 0.962 . S
H1972 C1958 0.960 . S
H1973 C1959 0.961 . S
H1974 C1959 0.961 . S
H1975 C1959 0.961 . S
H1976 C1960 0.931 . S
H1977 C1965 0.930 . S
H1978 C1966 0.956 . S
H1979 C1966 0.961 . S
H1980 C1966 0.961 . S
H1981 C1967 0.958 . S
H1982 C1967 0.961 . S
H1983 C1967 0.960 . S
C1984 C1985 1.391 . S
C1984 C1986 1.394 . S
C1984 H2000 0.931 . S
C1985 C1984 1.391 . S
C1985 C1989 1.376 . S
C1986 C1984 1.394 . S
C1986 C1987 1.369 . S
C1986 C1990 1.531 . S
C1987 C1986 1.369 . S
C1987 C1988 1.410 . S
C1987 C1995 1.503 . S
C1988 C1987 1.410 . S
C1988 C1989 1.392 . S
C1988 C1991 1.511 . S
C1989 C1985 1.376 . S
C1989 C1988 1.392 . S
C1989 H2001 0.929 . S
C1990 C1986 1.531 . S
C1990 H2002 0.960 . S
C1990 H2003 0.962 . S
C1990 H2004 0.960 . S
C1991 C1988 1.511 . S
C1991 H2005 0.961 . S
C1991 H2006 0.961 . S
C1991 H2007 0.961 . S
C1992 C1993 1.370 . S
C1992 C1994 1.363 . S
C1992 H2008 0.931 . S
C1993 C1992 1.370 . S
C1993 C1997 1.408 . S
C1994 C1992 1.363 . S
C1994 C1995 1.370 . S
C1994 C1998 1.524 . S
C1995 C1987 1.503 . S
C1995 C1994 1.370 . S
C1995 C1996 1.403 . S
C1996 C1995 1.403 . S
C1996 C1997 1.404 . S
C1996 C1999 1.539 . S
C1997 C1993 1.408 . S
C1997 C1996 1.404 . S
C1997 H2009 0.930 . S
C1998 C1994 1.524 . S
C1998 H2010 0.956 . S
C1998 H2011 0.961 . S
C1998 H2012 0.961 . S
C1999 C1996 1.539 . S
C1999 H2013 0.958 . S
C1999 H2014 0.961 . S
C1999 H2015 0.960 . S
H2000 C1984 0.931 . S
H2001 C1989 0.929 . S
H2002 C1990 0.960 . S
H2003 C1990 0.962 . S
H2004 C1990 0.960 . S
H2005 C1991 0.961 . S
H2006 C1991 0.961 . S
H2007 C1991 0.961 . S
H2008 C1992 0.931 . S
H2009 C1997 0.930 . S
H2010 C1998 0.956 . S
H2011 C1998 0.961 . S
H2012 C1998 0.961 . S
H2013 C1999 0.958 . S
H2014 C1999 0.961 . S
H2015 C1999 0.960 . S
C2016 C2017 1.391 . S
C2016 C2018 1.394 . S
C2016 H2032 0.931 . S
C2017 C2016 1.391 . S
C2017 C2021 1.376 . S
C2018 C2016 1.394 . S
C2018 C2019 1.369 . S
C2018 C2022 1.531 . S
C2019 C2018 1.369 . S
C2019 C2020 1.410 . S
C2019 C2027 1.503 . S
C2020 C2019 1.410 . S
C2020 C2021 1.392 . S
C2020 C2023 1.511 . S
C2021 C2017 1.376 . S
C2021 C2020 1.392 . S
C2021 H2033 0.929 . S
C2022 C2018 1.531 . S
C2022 H2034 0.960 . S
C2022 H2035 0.962 . S
C2022 H2036 0.960 . S
C2023 C2020 1.511 . S
C2023 H2037 0.961 . S
C2023 H2038 0.961 . S
C2023 H2039 0.961 . S
C2024 C2025 1.370 . S
C2024 C2026 1.363 . S
C2024 H2040 0.931 . S
C2025 C2024 1.370 . S
C2025 C2029 1.408 . S
C2026 C2024 1.363 . S
C2026 C2027 1.370 . S
C2026 C2030 1.524 . S
C2027 C2019 1.503 . S
C2027 C2026 1.370 . S
C2027 C2028 1.403 . S
C2028 C2027 1.403 . S
C2028 C2029 1.404 . S
C2028 C2031 1.539 . S
C2029 C2025 1.408 . S
C2029 C2028 1.404 . S
C2029 H2041 0.930 . S
C2030 C2026 1.524 . S
C2030 H2042 0.956 . S
C2030 H2043 0.961 . S
C2030 H2044 0.961 . S
C2031 C2028 1.539 . S
C2031 H2045 0.958 . S
C2031 H2046 0.961 . S
C2031 H2047 0.960 . S
H2032 C2016 0.931 . S
H2033 C2021 0.929 . S
H2034 C2022 0.960 . S
H2035 C2022 0.962 . S
H2036 C2022 0.960 . S
H2037 C2023 0.961 . S
H2038 C2023 0.961 . S
H2039 C2023 0.961 . S
H2040 C2024 0.931 . S
H2041 C2029 0.930 . S
H2042 C2030 0.956 . S
H2043 C2030 0.961 . S
H2044 C2030 0.961 . S
H2045 C2031 0.958 . S
H2046 C2031 0.961 . S
H2047 C2031 0.960 . S
C2048 C2049 1.391 . S
C2048 C2050 1.394 . S
C2048 H2064 0.931 . S
C2049 C2048 1.391 . S
C2049 C2053 1.376 . S
C2050 C2048 1.394 . S
C2050 C2051 1.369 . S
C2050 C2054 1.531 . S
C2051 C2050 1.369 . S
C2051 C2052 1.410 . S
C2051 C2059 1.503 . S
C2052 C2051 1.410 . S
C2052 C2053 1.392 . S
C2052 C2055 1.511 . S
C2053 C2049 1.376 . S
C2053 C2052 1.392 . S
C2053 H2065 0.929 . S
C2054 C2050 1.531 . S
C2054 H2066 0.960 . S
C2054 H2067 0.962 . S
C2054 H2068 0.960 . S
C2055 C2052 1.511 . S
C2055 H2069 0.961 . S
C2055 H2070 0.961 . S
C2055 H2071 0.961 . S
C2056 C2057 1.370 . S
C2056 C2058 1.363 . S
C2056 H2072 0.931 . S
C2057 C2056 1.370 . S
C2057 C2061 1.408 . S
C2058 C2056 1.363 . S
C2058 C2059 1.370 . S
C2058 C2062 1.524 . S
C2059 C2051 1.503 . S
C2059 C2058 1.370 . S
C2059 C2060 1.403 . S
C2060 C2059 1.403 . S
C2060 C2061 1.404 . S
C2060 C2063 1.539 . S
C2061 C2057 1.408 . S
C2061 C2060 1.404 . S
C2061 H2073 0.930 . S
C2062 C2058 1.524 . S
C2062 H2074 0.956 . S
C2062 H2075 0.961 . S
C2062 H2076 0.961 . S
C2063 C2060 1.539 . S
C2063 H2077 0.958 . S
C2063 H2078 0.961 . S
C2063 H2079 0.960 . S
H2064 C2048 0.931 . S
H2065 C2053 0.929 . S
H2066 C2054 0.960 . S
H2067 C2054 0.962 . S
H2068 C2054 0.960 . S
H2069 C2055 0.961 . S
H2070 C2055 0.961 . S
H2071 C2055 0.961 . S
H2072 C2056 0.931 . S
H2073 C2061 0.930 . S
H2074 C2062 0.956 . S
H2075 C2062 0.961 . S
H2076 C2062 0.961 . S
H2077 C2063 0.958 . S
H2078 C2063 0.961 . S
H2079 C2063 0.960 . S
C2080 C2081 1.391 . S
C2080 C2082 1.394 . S
C2080 H2096 0.931 . S
C2081 C2080 1.391 . S
C2081 C2085 1.376 . S
C2082 C2080 1.394 . S
C2082 C2083 1.369 . S
C2082 C2086 1.531 . S
C2083 C2082 1.369 . S
C2083 C2084 1.410 . S
C2083 C2091 1.503 . S
C2084 C2083 1.410 . S
C2084 C2085 1.392 . S
C2084 C2087 1.511 . S
C2085 C2081 1.376 . S
C2085 C2084 1.392 . S
C2085 H2097 0.929 . S
C2086 C2082 1.531 . S
C2086 H2098 0.960 . S
C2086 H2099 0.962 . S
C2086 H2100 0.960 . S
C2087 C2084 1.511 . S
C2087 H2101 0.961 . S
C2087 H2102 0.961 . S
C2087 H2103 0.961 . S
C2088 C2089 1.370 . S
C2088 C2090 1.363 . S
C2088 H2104 0.931 . S
C2089 C2088 1.370 . S
C2089 C2093 1.408 . S
C2090 C2088 1.363 . S
C2090 C2091 1.370 . S
C2090 C2094 1.524 . S
C2091 C2083 1.503 . S
C2091 C2090 1.370 . S
C2091 C2092 1.403 . S
C2092 C2091 1.403 . S
C2092 C2093 1.404 . S
C2092 C2095 1.539 . S
C2093 C2089 1.408 . S
C2093 C2092 1.404 . S
C2093 H2105 0.930 . S
C2094 C2090 1.524 . S
C2094 H2106 0.956 . S
C2094 H2107 0.961 . S
C2094 H2108 0.961 . S
C2095 C2092 1.539 . S
C2095 H2109 0.958 . S
C2095 H2110 0.961 . S
C2095 H2111 0.960 . S
H2096 C2080 0.931 . S
H2097 C2085 0.929 . S
H2098 C2086 0.960 . S
H2099 C2086 0.962 . S
H2100 C2086 0.960 . S
H2101 C2087 0.961 . S
H2102 C2087 0.961 . S
H2103 C2087 0.961 . S
H2104 C2088 0.931 . S
H2105 C2093 0.930 . S
H2106 C2094 0.956 . S
H2107 C2094 0.961 . S
H2108 C2094 0.961 . S
H2109 C2095 0.958 . S
H2110 C2095 0.961 . S
H2111 C2095 0.960 . S
C2112 C2113 1.391 . S
C2112 C2114 1.394 . S
C2112 H2128 0.931 . S
C2113 C2112 1.391 . S
C2113 C2117 1.376 . S
C2114 C2112 1.394 . S
C2114 C2115 1.369 . S
C2114 C2118 1.531 . S
C2115 C2114 1.369 . S
C2115 C2116 1.410 . S
C2115 C2123 1.503 . S
C2116 C2115 1.410 . S
C2116 C2117 1.392 . S
C2116 C2119 1.511 . S
C2117 C2113 1.376 . S
C2117 C2116 1.392 . S
C2117 H2129 0.929 . S
C2118 C2114 1.531 . S
C2118 H2130 0.960 . S
C2118 H2131 0.962 . S
C2118 H2132 0.960 . S
C2119 C2116 1.511 . S
C2119 H2133 0.961 . S
C2119 H2134 0.961 . S
C2119 H2135 0.961 . S
C2120 C2121 1.370 . S
C2120 C2122 1.363 . S
C2120 H2136 0.931 . S
C2121 C2120 1.370 . S
C2121 C2125 1.408 . S
C2122 C2120 1.363 . S
C2122 C2123 1.370 . S
C2122 C2126 1.524 . S
C2123 C2115 1.503 . S
C2123 C2122 1.370 . S
C2123 C2124 1.403 . S
C2124 C2123 1.403 . S
C2124 C2125 1.404 . S
C2124 C2127 1.539 . S
C2125 C2121 1.408 . S
C2125 C2124 1.404 . S
C2125 H2137 0.930 . S
C2126 C2122 1.524 . S
C2126 H2138 0.956 . S
C2126 H2139 0.961 . S
C2126 H2140 0.961 . S
C2127 C2124 1.539 . S
C2127 H2141 0.958 . S
C2127 H2142 0.961 . S
C2127 H2143 0.960 . S
H2128 C2112 0.931 . S
H2129 C2117 0.929 . S
H2130 C2118 0.960 . S
H2131 C2118 0.962 . S
H2132 C2118 0.960 . S
H2133 C2119 0.961 . S
H2134 C2119 0.961 . S
H2135 C2119 0.961 . S
H2136 C2120 0.931 . S
H2137 C2125 0.930 . S
H2138 C2126 0.956 . S
H2139 C2126 0.961 . S
H2140 C2126 0.961 . S
H2141 C2127 0.958 . S
H2142 C2127 0.961 . S
H2143 C2127 0.960 . S
C2144 C2145 1.391 . S
C2144 C2146 1.394 . S
C2144 H2160 0.931 . S
C2145 C2144 1.391 . S
C2145 C2149 1.376 . S
C2146 C2144 1.394 . S
C2146 C2147 1.369 . S
C2146 C2150 1.531 . S
C2147 C2146 1.369 . S
C2147 C2148 1.410 . S
C2147 C2155 1.503 . S
C2148 C2147 1.410 . S
C2148 C2149 1.392 . S
C2148 C2151 1.511 . S
C2149 C2145 1.376 . S
C2149 C2148 1.392 . S
C2149 H2161 0.929 . S
C2150 C2146 1.531 . S
C2150 H2162 0.960 . S
C2150 H2163 0.962 . S
C2150 H2164 0.960 . S
C2151 C2148 1.511 . S
C2151 H2165 0.961 . S
C2151 H2166 0.961 . S
C2151 H2167 0.961 . S
C2152 C2153 1.370 . S
C2152 C2154 1.363 . S
C2152 H2168 0.931 . S
C2153 C2152 1.370 . S
C2153 C2157 1.408 . S
C2154 C2152 1.363 . S
C2154 C2155 1.370 . S
C2154 C2158 1.524 . S
C2155 C2147 1.503 . S
C2155 C2154 1.370 . S
C2155 C2156 1.403 . S
C2156 C2155 1.403 . S
C2156 C2157 1.404 . S
C2156 C2159 1.539 . S
C2157 C2153 1.408 . S
C2157 C2156 1.404 . S
C2157 H2169 0.930 . S
C2158 C2154 1.524 . S
C2158 H2170 0.956 . S
C2158 H2171 0.961 . S
C2158 H2172 0.961 . S
C2159 C2156 1.539 . S
C2159 H2173 0.958 . S
C2159 H2174 0.961 . S
C2159 H2175 0.960 . S
H2160 C2144 0.931 . S
H2161 C2149 0.929 . S
H2162 C2150 0.960 . S
H2163 C2150 0.962 . S
H2164 C2150 0.960 . S
H2165 C2151 0.961 . S
H2166 C2151 0.961 . S
H2167 C2151 0.961 . S
H2168 C2152 0.931 . S
H2169 C2157 0.930 . S
H2170 C2158 0.956 . S
H2171 C2158 0.961 . S
H2172 C2158 0.961 . S
H2173 C2159 0.958 . S
H2174 C2159 0.961 . S
H2175 C2159 0.960 . S
C2176 C2177 1.391 . S
C2176 C2178 1.394 . S
C2176 H2192 0.931 . S
C2177 C2176 1.391 . S
C2177 C2181 1.376 . S
C2178 C2176 1.394 . S
C2178 C2179 1.369 . S
C2178 C2182 1.531 . S
C2179 C2178 1.369 . S
C2179 C2180 1.410 . S
C2179 C2187 1.503 . S
C2180 C2179 1.410 . S
C2180 C2181 1.392 . S
C2180 C2183 1.511 . S
C2181 C2177 1.376 . S
C2181 C2180 1.392 . S
C2181 H2193 0.929 . S
C2182 C2178 1.531 . S
C2182 H2194 0.960 . S
C2182 H2195 0.962 . S
C2182 H2196 0.960 . S
C2183 C2180 1.511 . S
C2183 H2197 0.961 . S
C2183 H2198 0.961 . S
C2183 H2199 0.961 . S
C2184 C2185 1.370 . S
C2184 C2186 1.363 . S
C2184 H2200 0.931 . S
C2185 C2184 1.370 . S
C2185 C2189 1.408 . S
C2186 C2184 1.363 . S
C2186 C2187 1.370 . S
C2186 C2190 1.524 . S
C2187 C2179 1.503 . S
C2187 C2186 1.370 . S
C2187 C2188 1.403 . S
C2188 C2187 1.403 . S
C2188 C2189 1.404 . S
C2188 C2191 1.539 . S
C2189 C2185 1.408 . S
C2189 C2188 1.404 . S
C2189 H2201 0.930 . S
C2190 C2186 1.524 . S
C2190 H2202 0.956 . S
C2190 H2203 0.961 . S
C2190 H2204 0.961 . S
C2191 C2188 1.539 . S
C2191 H2205 0.958 . S
C2191 H2206 0.961 . S
C2191 H2207 0.960 . S
H2192 C2176 0.931 . S
H2193 C2181 0.929 . S
H2194 C2182 0.960 . S
H2195 C2182 0.962 . S
H2196 C2182 0.960 . S
H2197 C2183 0.961 . S
H2198 C2183 0.961 . S
H2199 C2183 0.961 . S
H2200 C2184 0.931 . S
H2201 C2189 0.930 . S
H2202 C2190 0.956 . S
H2203 C2190 0.961 . S
H2204 C2190 0.961 . S
H2205 C2191 0.958 . S
H2206 C2191 0.961 . S
H2207 C2191 0.960 . S
C2208 C2209 1.391 . S
C2208 C2210 1.394 . S
C2208 H2224 0.931 . S
C2209 C2208 1.391 . S
C2209 C2213 1.376 . S
C2210 C2208 1.394 . S
C2210 C2211 1.369 . S
C2210 C2214 1.531 . S
C2211 C2210 1.369 . S
C2211 C2212 1.410 . S
C2211 C2219 1.503 . S
C2212 C2211 1.410 . S
C2212 C2213 1.392 . S
C2212 C2215 1.511 . S
C2213 C2209 1.376 . S
C2213 C2212 1.392 . S
C2213 H2225 0.929 . S
C2214 C2210 1.531 . S
C2214 H2226 0.960 . S
C2214 H2227 0.962 . S
C2214 H2228 0.960 . S
C2215 C2212 1.511 . S
C2215 H2229 0.961 . S
C2215 H2230 0.961 . S
C2215 H2231 0.961 . S
C2216 C2217 1.370 . S
C2216 C2218 1.363 . S
C2216 H2232 0.931 . S
C2217 C2216 1.370 . S
C2217 C2221 1.408 . S
C2218 C2216 1.363 . S
C2218 C2219 1.370 . S
C2218 C2222 1.524 . S
C2219 C2211 1.503 . S
C2219 C2218 1.370 . S
C2219 C2220 1.403 . S
C2220 C2219 1.403 . S
C2220 C2221 1.404 . S
C2220 C2223 1.539 . S
C2221 C2217 1.408 . S
C2221 C2220 1.404 . S
C2221 H2233 0.930 . S
C2222 C2218 1.524 . S
C2222 H2234 0.956 . S
C2222 H2235 0.961 . S
C2222 H2236 0.961 . S
C2223 C2220 1.539 . S
C2223 H2237 0.958 . S
C2223 H2238 0.961 . S
C2223 H2239 0.960 . S
H2224 C2208 0.931 . S
H2225 C2213 0.929 . S
H2226 C2214 0.960 . S
H2227 C2214 0.962 . S
H2228 C2214 0.960 . S
H2229 C2215 0.961 . S
H2230 C2215 0.961 . S
H2231 C2215 0.961 . S
H2232 C2216 0.931 . S
H2233 C2221 0.930 . S
H2234 C2222 0.956 . S
H2235 C2222 0.961 . S
H2236 C2222 0.961 . S
H2237 C2223 0.958 . S
H2238 C2223 0.961 . S
H2239 C2223 0.960 . S
C2240 C2241 1.391 . S
C2240 C2242 1.394 . S
C2240 H2256 0.931 . S
C2241 C2240 1.391 . S
C2241 C2245 1.376 . S
C2242 C2240 1.394 . S
C2242 C2243 1.369 . S
C2242 C2246 1.531 . S
C2243 C2242 1.369 . S
C2243 C2244 1.410 . S
C2243 C2251 1.503 . S
C2244 C2243 1.410 . S
C2244 C2245 1.392 . S
C2244 C2247 1.511 . S
C2245 C2241 1.376 . S
C2245 C2244 1.392 . S
C2245 H2257 0.929 . S
C2246 C2242 1.531 . S
C2246 H2258 0.960 . S
C2246 H2259 0.962 . S
C2246 H2260 0.960 . S
C2247 C2244 1.511 . S
C2247 H2261 0.961 . S
C2247 H2262 0.961 . S
C2247 H2263 0.961 . S
C2248 C2249 1.370 . S
C2248 C2250 1.363 . S
C2248 H2264 0.931 . S
C2249 C2248 1.370 . S
C2249 C2253 1.408 . S
C2250 C2248 1.363 . S
C2250 C2251 1.370 . S
C2250 C2254 1.524 . S
C2251 C2243 1.503 . S
C2251 C2250 1.370 . S
C2251 C2252 1.403 . S
C2252 C2251 1.403 . S
C2252 C2253 1.404 . S
C2252 C2255 1.539 . S
C2253 C2249 1.408 . S
C2253 C2252 1.404 . S
C2253 H2265 0.930 . S
C2254 C2250 1.524 . S
C2254 H2266 0.956 . S
C2254 H2267 0.961 . S
C2254 H2268 0.961 . S
C2255 C2252 1.539 . S
C2255 H2269 0.958 . S
C2255 H2270 0.961 . S
C2255 H2271 0.960 . S
H2256 C2240 0.931 . S
H2257 C2245 0.929 . S
H2258 C2246 0.960 . S
H2259 C2246 0.962 . S
H2260 C2246 0.960 . S
H2261 C2247 0.961 . S
H2262 C2247 0.961 . S
H2263 C2247 0.961 . S
H2264 C2248 0.931 . S
H2265 C2253 0.930 . S
H2266 C2254 0.956 . S
H2267 C2254 0.961 . S
H2268 C2254 0.961 . S
H2269 C2255 0.958 . S
H2270 C2255 0.961 . S
H2271 C2255 0.960 . S
C2272 C2273 1.391 . S
C2272 C2274 1.394 . S
C2272 H2288 0.931 . S
C2273 C2272 1.391 . S
C2273 C2277 1.376 . S
C2274 C2272 1.394 . S
C2274 C2275 1.369 . S
C2274 C2278 1.531 . S
C2275 C2274 1.369 . S
C2275 C2276 1.410 . S
C2275 C2283 1.503 . S
C2276 C2275 1.410 . S
C2276 C2277 1.392 . S
C2276 C2279 1.511 . S
C2277 C2273 1.376 . S
C2277 C2276 1.392 . S
C2277 H2289 0.929 . S
C2278 C2274 1.531 . S
C2278 H2290 0.960 . S
C2278 H2291 0.962 . S
C2278 H2292 0.960 . S
C2279 C2276 1.511 . S
C2279 H2293 0.961 . S
C2279 H2294 0.961 . S
C2279 H2295 0.961 . S
C2280 C2281 1.370 . S
C2280 C2282 1.363 . S
C2280 H2296 0.931 . S
C2281 C2280 1.370 . S
C2281 C2285 1.408 . S
C2282 C2280 1.363 . S
C2282 C2283 1.370 . S
C2282 C2286 1.524 . S
C2283 C2275 1.503 . S
C2283 C2282 1.370 . S
C2283 C2284 1.403 . S
C2284 C2283 1.403 . S
C2284 C2285 1.404 . S
C2284 C2287 1.539 . S
C2285 C2281 1.408 . S
C2285 C2284 1.404 . S
C2285 H2297 0.930 . S
C2286 C2282 1.524 . S
C2286 H2298 0.956 . S
C2286 H2299 0.961 . S
C2286 H2300 0.961 . S
C2287 C2284 1.539 . S
C2287 H2301 0.958 . S
C2287 H2302 0.961 . S
C2287 H2303 0.960 . S
H2288 C2272 0.931 . S
H2289 C2277 0.929 . S
H2290 C2278 0.960 . S
H2291 C2278 0.962 . S
H2292 C2278 0.960 . S
H2293 C2279 0.961 . S
H2294 C2279 0.961 . S
H2295 C2279 0.961 . S
H2296 C2280 0.931 . S
H2297 C2285 0.930 . S
H2298 C2286 0.956 . S
H2299 C2286 0.961 . S
H2300 C2286 0.961 . S
H2301 C2287 0.958 . S
H2302 C2287 0.961 . S
H2303 C2287 0.960 . S
C2304 C2305 1.391 . S
C2304 C2306 1.394 . S
C2304 H2320 0.931 . S
C2305 C2304 1.391 . S
C2305 C2309 1.376 . S
C2306 C2304 1.394 . S
C2306 C2307 1.369 . S
C2306 C2310 1.531 . S
C2307 C2306 1.369 . S
C2307 C2308 1.410 . S
C2307 C2315 1.503 . S
C2308 C2307 1.410 . S
C2308 C2309 1.392 . S
C2308 C2311 1.511 . S
C2309 C2305 1.376 . S
C2309 C2308 1.392 . S
C2309 H2321 0.929 . S
C2310 C2306 1.531 . S
C2310 H2322 0.960 . S
C2310 H2323 0.962 . S
C2310 H2324 0.960 . S
C2311 C2308 1.511 . S
C2311 H2325 0.961 . S
C2311 H2326 0.961 . S
C2311 H2327 0.961 . S
C2312 C2313 1.370 . S
C2312 C2314 1.363 . S
C2312 H2328 0.931 . S
C2313 C2312 1.370 . S
C2313 C2317 1.408 . S
C2314 C2312 1.363 . S
C2314 C2315 1.370 . S
C2314 C2318 1.524 . S
C2315 C2307 1.503 . S
C2315 C2314 1.370 . S
C2315 C2316 1.403 . S
C2316 C2315 1.403 . S
C2316 C2317 1.404 . S
C2316 C2319 1.539 . S
C2317 C2313 1.408 . S
C2317 C2316 1.404 . S
C2317 H2329 0.930 . S
C2318 C2314 1.524 . S
C2318 H2330 0.956 . S
C2318 H2331 0.961 . S
C2318 H2332 0.961 . S
C2319 C2316 1.539 . S
C2319 H2333 0.958 . S
C2319 H2334 0.961 . S
C2319 H2335 0.960 . S
H2320 C2304 0.931 . S
H2321 C2309 0.929 . S
H2322 C2310 0.960 . S
H2323 C2310 0.962 . S
H2324 C2310 0.960 . S
H2325 C2311 0.961 . S
H2326 C2311 0.961 . S
H2327 C2311 0.961 . S
H2328 C2312 0.931 . S
H2329 C2317 0.930 . S
H2330 C2318 0.956 . S
H2331 C2318 0.961 . S
H2332 C2318 0.961 . S
H2333 C2319 0.958 . S
H2334 C2319 0.961 . S
H2335 C2319 0.960 . S
C2336 C2337 1.391 . S
C2336 C2338 1.394 . S
C2336 H2352 0.931 . S
C2337 C2336 1.391 . S
C2337 C2341 1.376 . S
C2338 C2336 1.394 . S
C2338 C2339 1.369 . S
C2338 C2342 1.531 . S
C2339 C2338 1.369 . S
C2339 C2340 1.410 . S
C2339 C2347 1.503 . S
C2340 C2339 1.410 . S
C2340 C2341 1.392 . S
C2340 C2343 1.511 . S
C2341 C2337 1.376 . S
C2341 C2340 1.392 . S
C2341 H2353 0.929 . S
C2342 C2338 1.531 . S
C2342 H2354 0.960 . S
C2342 H2355 0.962 . S
C2342 H2356 0.960 . S
C2343 C2340 1.511 . S
C2343 H2357 0.961 . S
C2343 H2358 0.961 . S
C2343 H2359 0.961 . S
C2344 C2345 1.370 . S
C2344 C2346 1.363 . S
C2344 H2360 0.931 . S
C2345 C2344 1.370 . S
C2345 C2349 1.408 . S
C2346 C2344 1.363 . S
C2346 C2347 1.370 . S
C2346 C2350 1.524 . S
C2347 C2339 1.503 . S
C2347 C2346 1.370 . S
C2347 C2348 1.403 . S
C2348 C2347 1.403 . S
C2348 C2349 1.404 . S
C2348 C2351 1.539 . S
C2349 C2345 1.408 . S
C2349 C2348 1.404 . S
C2349 H2361 0.930 . S
C2350 C2346 1.524 . S
C2350 H2362 0.956 . S
C2350 H2363 0.961 . S
C2350 H2364 0.961 . S
C2351 C2348 1.539 . S
C2351 H2365 0.958 . S
C2351 H2366 0.961 . S
C2351 H2367 0.960 . S
H2352 C2336 0.931 . S
H2353 C2341 0.929 . S
H2354 C2342 0.960 . S
H2355 C2342 0.962 . S
H2356 C2342 0.960 . S
H2357 C2343 0.961 . S
H2358 C2343 0.961 . S
H2359 C2343 0.961 . S
H2360 C2344 0.931 . S
H2361 C2349 0.930 . S
H2362 C2350 0.956 . S
H2363 C2350 0.961 . S
H2364 C2350 0.961 . S
H2365 C2351 0.958 . S
H2366 C2351 0.961 . S
H2367 C2351 0.960 . S
C2368 C2369 1.391 . S
C2368 C2370 1.394 . S
C2368 H2384 0.931 . S
C2369 C2368 1.391 . S
C2369 C2373 1.376 . S
C2370 C2368 1.394 . S
C2370 C2371 1.369 . S
C2370 C2374 1.531 . S
C2371 C2370 1.369 . S
C2371 C2372 1.410 . S
C2371 C2379 1.503 . S
C2372 C2371 1.410 . S
C2372 C2373 1.392 . S
C2372 C2375 1.511 . S
C2373 C2369 1.376 . S
C2373 C2372 1.392 . S
C2373 H2385 0.929 . S
C2374 C2370 1.531 . S
C2374 H2386 0.960 . S
C2374 H2387 0.962 . S
C2374 H2388 0.960 . S
C2375 C2372 1.511 . S
C2375 H2389 0.961 . S
C2375 H2390 0.961 . S
C2375 H2391 0.961 . S
C2376 C2377 1.370 . S
C2376 C2378 1.363 . S
C2376 H2392 0.931 . S
C2377 C2376 1.370 . S
C2377 C2381 1.408 . S
C2378 C2376 1.363 . S
C2378 C2379 1.370 . S
C2378 C2382 1.524 . S
C2379 C2371 1.503 . S
C2379 C2378 1.370 . S
C2379 C2380 1.403 . S
C2380 C2379 1.403 . S
C2380 C2381 1.404 . S
C2380 C2383 1.539 . S
C2381 C2377 1.408 . S
C2381 C2380 1.404 . S
C2381 H2393 0.930 . S
C2382 C2378 1.524 . S
C2382 H2394 0.956 . S
C2382 H2395 0.961 . S
C2382 H2396 0.961 . S
C2383 C2380 1.539 . S
C2383 H2397 0.958 . S
C2383 H2398 0.961 . S
C2383 H2399 0.960 . S
H2384 C2368 0.931 . S
H2385 C2373 0.929 . S
H2386 C2374 0.960 . S
H2387 C2374 0.962 . S
H2388 C2374 0.960 . S
H2389 C2375 0.961 . S
H2390 C2375 0.961 . S
H2391 C2375 0.961 . S
H2392 C2376 0.931 . S
H2393 C2381 0.930 . S
H2394 C2382 0.956 . S
H2395 C2382 0.961 . S
H2396 C2382 0.961 . S
H2397 C2383 0.958 . S
H2398 C2383 0.961 . S
H2399 C2383 0.960 . S
C2400 C2401 1.391 . S
C2400 C2402 1.394 . S
C2400 H2416 0.931 . S
C2401 C2400 1.391 . S
C2401 C2405 1.376 . S
C2402 C2400 1.394 . S
C2402 C2403 1.369 . S
C2402 C2406 1.531 . S
C2403 C2402 1.369 . S
C2403 C2404 1.410 . S
C2403 C2411 1.503 . S
C2404 C2403 1.410 . S
C2404 C2405 1.392 . S
C2404 C2407 1.511 . S
C2405 C2401 1.376 . S
C2405 C2404 1.392 . S
C2405 H2417 0.929 . S
C2406 C2402 1.531 . S
C2406 H2418 0.960 . S
C2406 H2419 0.962 . S
C2406 H2420 0.960 . S
C2407 C2404 1.511 . S
C2407 H2421 0.961 . S
C2407 H2422 0.961 . S
C2407 H2423 0.961 . S
C2408 C2409 1.370 . S
C2408 C2410 1.363 . S
C2408 H2424 0.931 . S
C2409 C2408 1.370 . S
C2409 C2413 1.408 . S
C2410 C2408 1.363 . S
C2410 C2411 1.370 . S
C2410 C2414 1.524 . S
C2411 C2403 1.503 . S
C2411 C2410 1.370 . S
C2411 C2412 1.403 . S
C2412 C2411 1.403 . S
C2412 C2413 1.404 . S
C2412 C2415 1.539 . S
C2413 C2409 1.408 . S
C2413 C2412 1.404 . S
C2413 H2425 0.930 . S
C2414 C2410 1.524 . S
C2414 H2426 0.956 . S
C2414 H2427 0.961 . S
C2414 H2428 0.961 . S
C2415 C2412 1.539 . S
C2415 H2429 0.958 . S
C2415 H2430 0.961 . S
C2415 H2431 0.960 . S
H2416 C2400 0.931 . S
H2417 C2405 0.929 . S
H2418 C2406 0.960 . S
H2419 C2406 0.962 . S
H2420 C2406 0.960 . S
H2421 C2407 0.961 . S
H2422 C2407 0.961 . S
H2423 C2407 0.961 . S
H2424 C2408 0.931 . S
H2425 C2413 0.930 . S
H2426 C2414 0.956 . S
H2427 C2414 0.961 . S
H2428 C2414 0.961 . S
H2429 C2415 0.958 . S
H2430 C2415 0.961 . S
H2431 C2415 0.960 . S
C1409 C409 0.853 1_556 S
C1417 C20 0.853 1_556 S
C1441 C489 0.843 1_556 S
C1449 C108 0.849 1_556 S
C1473 C585 0.850 1_556 S
C1481 C205 0.852 1_556 S
C1505 C673 0.845 1_556 S
C1513 C293 0.850 1_556 S
C1537 C1105 0.858 . S
C1545 C724 0.855 . S
C1569 C1193 0.858 . S
C1577 C812 0.853 . S
C1601 C909 0.845 . S
C1609 C1281 0.847 . S
C1633 C1377 0.858 . S
C1641 C997 0.855 . S
C1665 C49 1.253 1_556 S
C1673 C460 1.245 1_556 S
C1697 C557 1.222 1_556 S
C1705 C137 1.230 1_556 S
C1729 C233 1.251 . S
C1737 C645 1.242 . S
C1761 C381 1.240 1_556 S
C1769 C321 1.237 1_556 S
C1793 C1164 1.237 . S
C1801 C753 1.236 . S
C1825 C1252 1.228 . S
C1833 C841 1.237 . S
C1857 C937 1.214 . S
C1865 C1349 1.229 . S
C1889 C1025 1.214 . S
C1897 C1076 1.229 . S
C1921 C1369 1.532 . S
C1929 C29 1.528 . S
C1953 C1113 1.535 . S
C1961 C117 1.530 . S
C1985 C1201 1.526 . S
C1993 C196 1.528 . S
C2017 C1289 1.517 . S
C2025 C284 1.523 . S
C2049 C821 1.529 . S
C2057 C401 1.533 . S
C2081 C900 1.517 . S
C2089 C497 1.530 . S
C2113 C577 1.519 . S
C2121 C988 1.532 . S
C2145 C665 1.524 . S
C2153 C733 1.534 . S
C2177 C1173 1.536 . S
C2185 C225 1.538 . S
C2209 C1261 1.530 . S
C2217 C313 1.532 . S
C2241 C1340 1.516 . S
C2249 C57 1.530 . S
C2273 C145 1.535 . S
C2281 C1085 1.538 . S
C2305 C1017 1.522 . S
C2313 C548 1.523 . S
C2337 C636 1.537 . S
C2345 C761 1.531 . S
C2369 C849 1.526 . S
C2377 C372 1.524 . S
C2401 C929 1.517 . S
C2409 C469 1.526 . S
