# Generated by pormake.
# Topology tfs, (6)-cn, num edge types: 1
# Building blocks:
#     Node 0, Type 0, BuildingBlock: NUHQIS_clean_sbu_0, # of connection points: 6
#     Node 1, Type 0, BuildingBlock: NUHQIS_clean_sbu_0, # of connection points: 6
#     Node 2, Type 0, BuildingBlock: NUHQIS_clean_sbu_0, # of connection points: 6
#     Node 3, Type 0, BuildingBlock: NUHQIS_clean_sbu_0, # of connection points: 6
#     Node 4, Type 0, BuildingBlock: NUHQIS_clean_sbu_0, # of connection points: 6
#     Node 5, Type 0, BuildingBlock: NUHQIS_clean_sbu_0, # of connection points: 6
#     Edge 6, Type (0, 0), BuildingBlock: CIFDUS_clean_linker_0, # of connection points: 2
#     Edge 7, Type (0, 0), BuildingBlock: CIFDUS_clean_linker_0, # of connection points: 2
#     Edge 8, Type (0, 0), BuildingBlock: CIFDUS_clean_linker_0, # of connection points: 2
#     Edge 9, Type (0, 0), BuildingBlock: CIFDUS_clean_linker_0, # of connection points: 2
#     Edge 10, Type (0, 0), BuildingBlock: CIFDUS_clean_linker_0, # of connection points: 2
#     Edge 11, Type (0, 0), BuildingBlock: CIFDUS_clean_linker_0, # of connection points: 2
#     Edge 12, Type (0, 0), BuildingBlock: CIFDUS_clean_linker_0, # of connection points: 2
#     Edge 13, Type (0, 0), BuildingBlock: CIFDUS_clean_linker_0, # of connection points: 2
#     Edge 14, Type (0, 0), BuildingBlock: CIFDUS_clean_linker_0, # of connection points: 2
#     Edge 15, Type (0, 0), BuildingBlock: CIFDUS_clean_linker_0, # of connection points: 2
#     Edge 16, Type (0, 0), BuildingBlock: CIFDUS_clean_linker_0, # of connection points: 2
#     Edge 17, Type (0, 0), BuildingBlock: CIFDUS_clean_linker_0, # of connection points: 2
#     Edge 18, Type (0, 0), BuildingBlock: CIFDUS_clean_linker_0, # of connection points: 2
#     Edge 19, Type (0, 0), BuildingBlock: CIFDUS_clean_linker_0, # of connection points: 2
#     Edge 20, Type (0, 0), BuildingBlock: CIFDUS_clean_linker_0, # of connection points: 2
#     Edge 21, Type (0, 0), BuildingBlock: CIFDUS_clean_linker_0, # of connection points: 2
#     Edge 22, Type (0, 0), BuildingBlock: CIFDUS_clean_linker_0, # of connection points: 2
#     Edge 23, Type (0, 0), BuildingBlock: CIFDUS_clean_linker_0, # of connection points: 2
# Relax obj value: 0.599
# Max RMSD: 0.440
# Mean RMSD: 0.362
data_MOF--net-tfs--node1-NUHQIS_clean_sbu_0--edge1-CIFDUS_clean_linker_0
_symmetry_space_group_name_H-M    P1
_symmetry_Int_Tables_number       1
_symmetry_cell_setting            triclinic
loop_
_symmetry_equiv_pos_as_xyz
'x, y, z'
_cell_length_a     49.746305
_cell_length_b     42.202801
_cell_length_c     11.930768
_cell_angle_alpha  85.986015
_cell_angle_beta   90.516468
_cell_angle_gamma 119.81984
loop_
_atom_site_label
_atom_site_type_symbol
_atom_site_fract_x
_atom_site_fract_y
_atom_site_fract_z
_atom_type_partial_charge
Tb0 Tb 0.14822 0.41317 0.1932 0.0
Eu1 Eu 0.15775 0.4952 0.23458 0.0
C2 C 0.14226 0.46098 0.01375 0.0
C3 C 0.21609 0.48667 0.16146 0.0
C4 C 0.15017 0.32934 0.12394 0.0
C5 C 0.19399 0.32015 0.15787 0.0
C6 C 0.18221 0.34369 0.13341 0.0
C7 C 0.13027 0.29135 0.1322 0.0
C8 C 0.14197 0.26787 0.15781 0.0
C9 C 0.17378 0.28216 0.17471 0.0
C10 C 0.13649 0.35302 0.12142 0.0
O11 O 0.17357 0.42392 0.34595 0.0
O12 O 0.16783 0.47274 0.39447 0.0
O13 O 0.10774 0.45393 0.27246 0.0
O14 O 0.10888 0.40019 0.3041 0.0
C15 C 0.17735 0.44884 0.41404 0.0
O16 O 0.17963 0.54774 0.30842 0.0
O17 O 0.13893 0.53157 0.20624 0.0
O18 O 0.16232 0.49193 0.05089 0.0
O19 O 0.1252 0.43532 0.08934 0.0
O20 O 0.19841 0.45065 0.15856 0.0
O21 O 0.20518 0.50812 0.18502 0.0
C22 C 0.09474 0.41938 0.31002 0.0
O23 O 0.1271 0.35627 0.21946 0.0
O24 O 0.15103 0.38433 0.06138 0.0
C25 C 0.17815 0.59193 0.18273 0.0
C26 C 0.20517 0.65452 0.03299 0.0
C27 C 0.18287 0.64951 0.11501 0.0
C28 C 0.16942 0.6184 0.18896 0.0
C29 C 0.20026 0.59644 0.10121 0.0
C30 C 0.21392 0.6278 0.02707 0.0
C31 C 0.16205 0.55814 0.25417 0.0
H32 H 0.21856 0.3318 0.17181 0.0
H33 H 0.19785 0.37303 0.12822 0.0
H34 H 0.10545 0.27994 0.12546 0.0
H35 H 0.12599 0.23868 0.17033 0.0
H36 H 0.17641 0.67022 0.12458 0.0
H37 H 0.15218 0.61499 0.25086 0.0
H38 H 0.2068 0.57567 0.09481 0.0
H39 H 0.23135 0.63131 -0.03401 0.0
Tb40 Tb 0.69155 0.24936 0.59738 0.0
Eu41 Eu 0.7676 0.2987 0.53072 0.0
C42 C 0.71674 0.2806 0.36025 0.0
C43 C 0.72589 0.20986 0.49928 0.0
C44 C 0.62975 0.22205 0.80146 0.0
C45 C 0.59548 0.23288 0.91545 0.0
C46 C 0.6041 0.22696 0.81129 0.0
C47 C 0.64722 0.22417 0.89741 0.0
C48 C 0.6384 0.22968 0.00196 0.0
C49 C 0.61231 0.23389 0.01213 0.0
C50 C 0.63892 0.21614 0.69085 0.0
O51 O 0.72145 0.2642 0.73876 0.0
O52 O 0.7646 0.26374 0.68407 0.0
O53 O 0.75447 0.33586 0.62022 0.0
O54 O 0.70199 0.30571 0.59016 0.0
C55 C 0.74215 0.25411 0.75736 0.0
O56 O 0.81399 0.3416 0.56374 0.0
O57 O 0.80445 0.31845 0.40075 0.0
O58 O 0.73595 0.30762 0.41718 0.0
O59 O 0.69528 0.25087 0.4157 0.0
O60 O 0.70201 0.20808 0.55185 0.0
O61 O 0.75211 0.2411 0.47572 0.0
C62 C 0.72735 0.33464 0.61943 0.0
O63 O 0.64673 0.24258 0.61195 0.0
O64 O 0.65803 0.20338 0.69364 0.0
C65 C 0.85673 0.34458 0.46593 0.0
C66 C 0.9195 0.36268 0.45109 0.0
C67 C 0.9082 0.3717 0.54383 0.0
C68 C 0.87725 0.36282 0.55111 0.0
C69 C 0.8677 0.33416 0.37509 0.0
C70 C 0.89882 0.34293 0.36817 0.0
C71 C 0.82554 0.341 0.46641 0.0
H72 H 0.57483 0.23525 0.92102 0.0
H73 H 0.5905 0.22582 0.73862 0.0
H74 H 0.66755 0.2212 0.89216 0.0
H75 H 0.65173 0.23024 0.0749 0.0
H76 H 0.92362 0.38675 0.60921 0.0
H77 H 0.86975 0.37165 0.62161 0.0
H78 H 0.8526 0.32054 0.30731 0.0
H79 H 0.90705 0.33598 0.29521 0.0
Tb80 Tb 0.60741 0.82341 0.34391 0.0
Eu81 Eu 0.54389 0.7366 0.32211 0.0
C82 C 0.60159 0.77745 0.14339 0.0
C83 C 0.54255 0.8114 0.25494 0.0
C84 C 0.65599 0.92538 0.3902 0.0
C85 C 0.64634 0.96834 0.48466 0.0
C86 C 0.63955 0.93233 0.47089 0.0
C87 C 0.67945 0.9552 0.32458 0.0
C88 C 0.68621 0.99115 0.33809 0.0
C89 C 0.66969 0.99834 0.418 0.0
C90 C 0.65024 0.88786 0.37461 0.0
O91 O 0.57 0.80586 0.46431 0.0
O92 O 0.55545 0.74665 0.50108 0.0
O93 O 0.58365 0.72735 0.36364 0.0
O94 O 0.62248 0.78483 0.41304 0.0
C95 C 0.56468 0.77885 0.53707 0.0
O96 O 0.50132 0.6896 0.39488 0.0
O97 O 0.51623 0.68932 0.22508 0.0
O98 O 0.57134 0.75798 0.16026 0.0
O99 O 0.62039 0.80207 0.20934 0.0
O100 O 0.57317 0.83054 0.24416 0.0
O101 O 0.52756 0.77735 0.29877 0.0
C102 C 0.61118 0.74926 0.4029 0.0
O103 O 0.64117 0.87559 0.2758 0.0
O104 O 0.636 0.86223 0.4557 0.0
C105 C 0.46207 0.65366 0.27032 0.0
C106 C 0.39898 0.61635 0.21024 0.0
C107 C 0.41019 0.60052 0.29207 0.0
C108 C 0.44133 0.61895 0.32152 0.0
C109 C 0.45118 0.66976 0.18853 0.0
C110 C 0.41995 0.65127 0.15868 0.0
C111 C 0.49478 0.672 0.30393 0.0
H112 H 0.63339 0.97267 0.54842 0.0
H113 H 0.62151 0.91003 0.52353 0.0
H114 H 0.69262 0.95064 0.26223 0.0
H115 H 0.70402 1.01325 0.28424 0.0
H116 H 0.39476 0.57414 0.33541 0.0
H117 H 0.44923 0.60609 0.38514 0.0
H118 H 0.46675 0.69656 0.14787 0.0
H119 H 0.4123 0.66427 0.09472 0.0
Tb120 Tb 0.7414 0.59856 0.509 0.0
Eu121 Eu 0.66611 0.54346 0.5875 0.0
C122 C 0.71731 0.60869 0.73493 0.0
C123 C 0.71794 0.5183 0.6235 0.0
C124 C 0.82449 0.66332 0.38817 0.0
C125 C 0.87136 0.7156 0.44846 0.0
C126 C 0.83997 0.68952 0.46627 0.0
C127 C 0.84011 0.6653 0.28844 0.0
C128 C 0.87148 0.6912 0.27081 0.0
C129 C 0.88783 0.71572 0.35278 0.0
C130 C 0.79473 0.6299 0.41703 0.0
O131 O 0.71271 0.55113 0.4206 0.0
O132 O 0.67045 0.55491 0.39973 0.0
O133 O 0.67114 0.59884 0.55241 0.0
O134 O 0.71924 0.63169 0.45994 0.0
C135 C 0.69332 0.55358 0.35294 0.0
O136 O 0.61821 0.50477 0.54981 0.0
O137 O 0.62993 0.5219 0.71912 0.0
O138 O 0.69204 0.5766 0.72995 0.0
O139 O 0.73954 0.62367 0.6574 0.0
O140 O 0.73995 0.55308 0.61512 0.0
O141 O 0.6887 0.50817 0.6041 0.0
C142 C 0.69264 0.62835 0.49527 0.0
O143 O 0.78879 0.61805 0.52294 0.0
O144 O 0.76997 0.62445 0.3632 0.0
C145 C 0.58499 0.46359 0.70019 0.0
C146 C 0.53303 0.39755 0.78552 0.0
C147 C 0.54052 0.40425 0.66974 0.0
C148 C 0.56611 0.43693 0.62752 0.0
C149 C 0.57854 0.45604 0.81678 0.0
C150 C 0.55287 0.42319 0.85913 0.0
C151 C 0.60821 0.50073 0.65356 0.0
H152 H 0.88307 0.73463 0.51208 0.0
H153 H 0.82835 0.68855 0.54387 0.0
H154 H 0.8286 0.64512 0.22752 0.0
H155 H 0.88333 0.69023 0.19655 0.0
H156 H 0.52592 0.38467 0.61116 0.0
H157 H 0.57027 0.44193 0.53737 0.0
H158 H 0.59246 0.47619 0.87501 0.0
H159 H 0.54761 0.41879 0.94868 0.0
Tb160 Tb 0.22632 0.89094 0.20402 0.0
Eu161 Eu 0.30368 0.91441 0.2044 0.0
C162 C 0.2749 0.94115 0.00719 0.0
C163 C 0.25067 0.84493 0.09384 0.0
C164 C 0.13547 0.85568 0.19843 0.0
C165 C 0.08502 0.81917 0.11717 0.0
C166 C 0.11725 0.83424 0.11305 0.0
C167 C 0.12092 0.86241 0.28661 0.0
C168 C 0.08875 0.84739 0.29072 0.0
C169 C 0.07032 0.82516 0.20691 0.0
C170 C 0.16911 0.86868 0.20018 0.0
O171 O 0.23484 0.87645 0.37049 0.0
O172 O 0.27754 0.87058 0.3425 0.0
O173 O 0.29751 0.952 0.30989 0.0
O174 O 0.2506 0.94692 0.25732 0.0
C175 C 0.2574 0.87185 0.40981 0.0
O176 O 0.34436 0.92326 0.29983 0.0
O177 O 0.34754 0.93021 0.11824 0.0
O178 O 0.29921 0.95111 0.07008 0.0
O179 O 0.24645 0.9174 0.04198 0.0
O180 O 0.23102 0.8442 0.16837 0.0
O181 O 0.27968 0.87085 0.08594 0.0
C182 C 0.27622 0.96172 0.31539 0.0
O183 O 0.1839 0.8632 0.12118 0.0
O184 O 0.18676 0.88778 0.27911 0.0
C185 C 0.3798 0.91048 0.20973 0.0
C186 C 0.41681 0.87688 0.20597 0.0
C187 C 0.4264 0.90875 0.26283 0.0
C188 C 0.40809 0.92533 0.26455 0.0
C189 C 0.36984 0.87842 0.15389 0.0
C190 C 0.3882 0.86182 0.1519 0.0
C191 C 0.36154 0.92933 0.21029 0.0
H192 H 0.07155 0.80187 0.05185 0.0
H193 H 0.12779 0.82835 0.04442 0.0
H194 H 0.13434 0.87876 0.35378 0.0
H195 H 0.07828 0.85306 0.36009 0.0
H196 H 0.44791 0.92068 0.30738 0.0
H197 H 0.41609 0.94992 0.30867 0.0
H198 H 0.34801 0.86639 0.11121 0.0
H199 H 0.38014 0.83744 0.10675 0.0
Tb200 Tb 0.32307 0.15111 0.93967 0.0
Eu201 Eu 0.37376 0.12537 0.02747 0.0
C202 C 0.32349 0.11915 0.1734 0.0
C203 C 0.38987 0.20834 0.01976 0.0
C204 C 0.26604 0.17027 0.78415 0.0
C205 C 0.21745 0.15142 0.68967 0.0
C206 C 0.23408 0.14626 0.77717 0.0
C207 C 0.28135 0.1985 0.6988 0.0
C208 C 0.2647 0.20389 0.61205 0.0
C209 C 0.23238 0.18108 0.60822 0.0
C210 C 0.28239 0.16797 0.8858 0.0
O211 O 0.3511 0.16128 0.79047 0.0
O212 O 0.39023 0.14903 0.84911 0.0
O213 O 0.34832 0.08715 0.89822 0.0
O214 O 0.30724 0.09775 0.86831 0.0
C215 C 0.37701 0.16074 0.77314 0.0
O216 O 0.41631 0.12287 0.04575 0.0
O217 O 0.37686 0.08867 0.15825 0.0
O218 O 0.32699 0.09805 0.1089 0.0
O219 O 0.32394 0.14748 0.12154 0.0
O220 O 0.36706 0.20113 0.95078 0.0
O221 O 0.39156 0.18233 0.0812 0.0
C222 C 0.32213 0.07969 0.85085 0.0
O223 O 0.27581 0.13541 0.92792 0.0
O224 O 0.31194 0.19141 0.88795 0.0
C225 C 0.42659 0.10946 0.23027 0.0
C226 C 0.47809 0.13934 0.36907 0.0
C227 C 0.46959 0.10679 0.31665 0.0
C228 C 0.44417 0.0922 0.24734 0.0
C229 C 0.43187 0.13839 0.29514 0.0
C230 C 0.45723 0.15288 0.36578 0.0
C231 C 0.40588 0.09997 0.13505 0.0
H232 H 0.19269 0.13291 0.68814 0.0
H233 H 0.22171 0.12426 0.84171 0.0
H234 H 0.30599 0.21754 0.70138 0.0
H235 H 0.27701 0.22728 0.55188 0.0
H236 H 0.48449 0.09491 0.31705 0.0
H237 H 0.43993 0.06933 0.19944 0.0
H238 H 0.41789 0.15147 0.28477 0.0
H239 H 0.46227 0.17703 0.40817 0.0
H240 H 0.24753 0.20915 0.38927 0.0
H241 H 0.17641 0.17615 0.648 0.0
H242 H 0.14985 0.20009 0.52831 0.0
H243 H 0.15013 0.23709 0.36143 0.0
H244 H 0.22339 0.27579 0.10948 0.0
H245 H 0.24605 0.24334 0.21568 0.0
C246 C 0.22615 0.20705 0.41935 0.0
C247 C 0.21415 0.1909 0.52797 0.0
C248 C 0.21155 0.22225 0.35171 0.0
C249 C 0.18606 0.18782 0.56442 0.0
C250 C 0.17096 0.20191 0.49645 0.0
C251 C 0.17064 0.23764 0.32847 0.0
C252 C 0.18508 0.25852 0.2279 0.0
C253 C 0.18393 0.22001 0.39145 0.0
C254 C 0.21199 0.25981 0.18701 0.0
C255 C 0.22492 0.24137 0.24775 0.0
H256 H 0.06466 0.45226 0.3865 0.0
H257 H 0.05109 0.34617 0.32031 0.0
H258 H 0.99528 0.31867 0.35945 0.0
H259 H 0.94981 0.32591 0.401 0.0
H260 H 0.96492 0.43271 0.46695 0.0
H261 H 1.02061 0.45885 0.43842 0.0
C262 C 0.04957 0.42303 0.38145 0.0
C263 C 0.06196 0.40135 0.34962 0.0
C264 C 1.0177 0.40762 0.40295 0.0
C265 C 0.04213 0.36346 0.34502 0.0
C266 C 1.01019 0.34779 0.36647 0.0
C267 C 0.96541 0.35484 0.40926 0.0
C268 C 0.95332 0.37736 0.43617 0.0
C269 C 0.99762 0.36976 0.39339 0.0
C270 C 0.97371 0.41477 0.44745 0.0
C271 C 1.00554 0.42977 0.43084 0.0
H272 H 0.67164 0.14653 0.48868 0.0
H273 H 0.7702 0.19194 0.43852 0.0
H274 H 0.76162 0.13065 0.40644 0.0
H275 H 0.72587 0.06329 0.40424 0.0
H276 H 0.62749 1.02021 0.45496 0.0
H277 H 0.63652 0.08149 0.47802 0.0
C278 C 0.69146 0.14334 0.47083 0.0
C279 C 0.72167 0.17402 0.46771 0.0
C280 C 0.68637 0.10819 0.45416 0.0
C281 C 0.74674 0.16898 0.44187 0.0
C282 C 0.7418 0.13384 0.42415 0.0
C283 C 0.70635 0.0673 0.41931 0.0
C284 C 0.67596 0.03665 0.42937 0.0
C285 C 0.71169 0.10307 0.43184 0.0
C286 C 0.65113 0.04274 0.44956 0.0
C287 C 0.65625 0.07796 0.46177 0.0
H288 H 0.65204 0.63983 0.60937 0.0
H289 H 0.71652 0.68432 0.32556 0.0
H290 H 0.69945 0.72908 0.27786 0.0
H291 H 0.66244 0.75192 0.30883 0.0
H292 H 0.59675 0.70348 0.58808 0.0
H293 H 0.61814 0.66422 0.64627 0.0
C294 C 0.66259 0.65939 0.53714 0.0
C295 C 0.68538 0.65839 0.47052 0.0
C296 C 0.65242 0.68453 0.50985 0.0
C297 C 0.699 0.68444 0.37847 0.0
C298 C 0.68911 0.70994 0.35096 0.0
C299 C 0.65352 0.73343 0.38404 0.0
C300 C 0.62856 0.73121 0.44613 0.0
C301 C 0.66542 0.70987 0.41503 0.0
C302 C 0.61644 0.70635 0.5411 0.0
C303 C 0.62846 0.6836 0.57361 0.0
H304 H 1.0332 0.79376 0.39455 0.0
H305 H 1.02989 0.81609 0.03769 0.0
H306 H 0.97332 0.7855 0.05148 0.0
H307 H 0.92471 0.75195 0.16506 0.0
H308 H 0.92869 0.72913 0.5215 0.0
H309 H 0.98504 0.7616 0.50802 0.0
C310 C 1.02019 0.79249 0.31991 0.0
C311 C 1.03589 0.80736 0.2153 0.0
C312 C 0.98772 0.77506 0.32849 0.0
C313 C 1.01847 0.80459 0.11916 0.0
C314 C 0.9861 0.78729 0.12707 0.0
C315 C 0.93789 0.75409 0.23982 0.0
C316 C 0.92229 0.73827 0.34428 0.0
C317 C 0.97046 0.77229 0.23129 0.0
C318 C 0.9399 0.74165 0.44035 0.0
C319 C 0.97221 0.7599 0.43262 0.0
H320 H 0.31448 0.97664 0.48748 0.0
H321 H 0.24588 1.00102 0.3482 0.0
H322 H 0.25219 0.0385 0.50649 0.0
H323 H 0.27891 0.06531 0.68424 0.0
H324 H 0.34317 0.03285 0.82197 0.0
H325 H 0.33658 0.99751 0.66385 0.0
C326 C 0.30096 0.99034 0.48978 0.0
C327 C 0.28018 0.98656 0.40426 0.0
C328 C 0.3037 1.01015 0.58203 0.0
C329 C 0.26236 1.00381 0.4121 0.0
C330 C 0.26582 0.025 0.50305 0.0
C331 C 0.29083 0.04977 0.68081 0.0
C332 C 0.31185 0.05239 0.76504 0.0
C333 C 0.28646 0.0283 0.58911 0.0
C334 C 0.3272 0.03209 0.75845 0.0
C335 C 0.32358 1.0118 0.66751 0.0
H336 H 0.2853 0.81592 0.03162 0.0
H337 H 0.19455 0.80473 0.00321 0.0
H338 H 0.17502 0.74541 0.92508 0.0
H339 H 0.18022 0.69115 0.92258 0.0
H340 H 0.26774 0.69818 -0.00171 0.0
H341 H 0.29287 0.76476 -0.01002 0.0
C342 C 0.26148 0.8008 0.00552 0.0
C343 C 0.24092 0.81352 0.02668 0.0
C344 C 0.25002 0.76583 -0.03193 0.0
C345 C 0.21031 0.79443 -0.00891 0.0
C346 C 0.19926 0.76077 0.9458 0.0
C347 C 0.20505 0.70756 0.93278 0.0
C348 C 0.22183 0.69014 -0.03292 0.0
C349 C 0.21832 0.74513 0.94226 0.0
C350 C 0.25416 0.7111 -0.0251 0.0
C351 C 0.26841 0.74917 -0.02743 0.0
H352 H 0.51175 0.21385 0.33361 0.0
H353 H 0.5215 0.12147 0.45461 0.0
H354 H 0.57334 0.1507 0.36784 0.0
H355 H 0.60445 0.18979 0.20113 0.0
H356 H 0.59201 0.27967 0.07352 0.0
H357 H 0.553 0.2645 0.22102 0.0
C358 C 0.52553 0.20059 0.34644 0.0
C359 C 0.5116 0.16391 0.39122 0.0
C360 C 0.55457 0.21671 0.29116 0.0
C361 C 0.53089 0.1487 0.41322 0.0
C362 C 0.56049 0.16526 0.36252 0.0
C363 C 0.59426 0.20709 0.20882 0.0
C364 C 0.59988 0.2347 0.1237 0.0
C365 C 0.57095 0.19731 0.29138 0.0
C366 C 0.58708 0.2574 0.13594 0.0
C367 C 0.56475 0.2487 0.22019 0.0
H368 H 0.3597 0.54274 0.1911 0.0
H369 H 0.36208 0.64672 0.16908 0.0
H370 H 0.30663 0.61581 0.13747 0.0
H371 H 0.257 0.55955 0.13135 0.0
H372 H 0.25286 0.45468 0.16444 0.0
H373 H 0.3095 0.48575 0.17506 0.0
C374 C 0.34812 0.55868 0.17956 0.0
C375 C 0.36532 0.59718 0.183 0.0
C376 C 0.31587 0.54057 0.16335 0.0
C377 C 0.3498 0.61725 0.16558 0.0
C378 C 0.31794 0.59953 0.14824 0.0
C379 C 0.26834 0.54326 0.13992 0.0
C380 C 0.25046 0.50465 0.14824 0.0
C381 C 0.30069 0.56123 0.14889 0.0
C382 C 0.26589 0.48434 0.15767 0.0
C383 C 0.2983 0.50214 0.16469 0.0
H384 H 0.68081 0.44619 0.69102 0.0
H385 H 0.77519 0.52502 0.58952 0.0
H386 H 0.78785 0.47593 0.58785 0.0
H387 H 0.77057 0.40909 0.59826 0.0
H388 H 0.67581 0.33171 0.70184 0.0
H389 H 0.6652 0.38138 0.72047 0.0
C390 C 0.70429 0.45278 0.67006 0.0
C391 C 0.72687 0.48935 0.63998 0.0
C392 C 0.71141 0.42439 0.6688 0.0
C393 C 0.75725 0.49721 0.61371 0.0
C394 C 0.76451 0.46902 0.61199 0.0
C395 C 0.74782 0.40322 0.62696 0.0
C396 C 0.72396 0.36648 0.64701 0.0
C397 C 0.74159 0.43229 0.63707 0.0
C398 C 0.69457 0.35955 0.68396 0.0
C399 C 0.68838 0.38801 0.6948 0.0
H400 H 0.48 0.90988 0.18272 0.0
H401 H 0.39749 0.80363 0.22866 0.0
H402 H 0.42911 0.77425 0.23697 0.0
H403 H 0.47992 0.77865 0.24309 0.0
H404 H 0.56295 0.88463 0.20481 0.0
H405 H 0.53132 0.9141 0.18134 0.0
C406 C 0.46892 0.8803 0.195 0.0
C407 C 0.43631 0.85909 0.20554 0.0
C408 C 0.48732 0.8635 0.20118 0.0
C409 C 0.42242 0.82071 0.21912 0.0
C410 C 0.44052 0.80385 0.22461 0.0
C411 C 0.49125 0.80822 0.22885 0.0
C412 C 0.52387 0.82935 0.22651 0.0
C413 C 0.47296 0.82498 0.21721 0.0
C414 C 0.53795 0.86761 0.2068 0.0
C415 C 0.51984 0.88451 0.19403 0.0
H416 H 0.52224 0.34936 -0.03107 0.0
H417 H 0.47668 0.37435 0.69573 0.0
H418 H 0.42752 0.32051 0.7545 0.0
H419 H 0.39838 0.2645 0.87311 0.0
H420 H 0.44311 0.23619 0.14197 0.0
H421 H 0.49141 0.29388 0.09783 0.0
C422 C 0.50144 0.34312 0.92321 0.0
C423 C 0.50321 0.36546 0.82691 0.0
C424 C 0.47309 0.31176 0.95711 0.0
C425 C 0.47609 0.35712 0.76844 0.0
C426 C 0.44791 0.3265 0.80251 0.0
C427 C 0.41845 0.27101 0.92372 0.0
C428 C 0.4171 0.24581 0.01021 0.0
C429 C 0.44626 0.30335 0.89535 0.0
C430 C 0.44348 0.25501 0.07459 0.0
C431 C 0.47118 0.28788 0.04885 0.0
H432 H 0.19408 0.49724 0.88004 0.0
H433 H 0.10419 0.3993 0.91434 0.0
H434 H 0.11387 0.37923 0.7404 0.0
H435 H 0.14335 0.39512 0.56466 0.0
H436 H 0.22882 0.49744 0.5159 0.0
H437 H 0.22689 0.50915 0.71283 0.0
C438 C 0.17664 0.47157 0.84914 0.0
C439 C 0.14818 0.45017 0.90747 0.0
C440 C 0.18213 0.46053 0.74845 0.0
C441 C 0.12603 0.41652 0.86876 0.0
C442 C 0.13167 0.40482 0.77038 0.0
C443 C 0.16231 0.41892 0.59954 0.0
C444 C 0.18601 0.44553 0.52824 0.0
C445 C 0.15916 0.42717 0.70788 0.0
C446 C 0.21048 0.47663 0.5714 0.0
C447 C 0.20891 0.48371 0.68267 0.0
H448 H 0.69655 0.22086 0.23895 0.0
H449 H 0.76281 0.33668 0.23399 0.0
H450 H 0.78517 0.33438 0.05731 0.0
H451 H 0.78077 0.30228 0.89191 0.0
H452 H 0.70972 0.18967 0.88017 0.0
H453 H 0.69568 0.18691 0.07821 0.0
C454 C 0.71571 0.24558 0.19865 0.0
C455 C 0.72757 0.27896 0.24821 0.0
C456 C 0.72826 0.2443 0.09573 0.0
C457 C 0.75286 0.31068 0.19644 0.0
C458 C 0.76599 0.3094 0.09611 0.0
C459 C 0.76339 0.2767 0.93514 0.0
C460 C 0.74629 0.24626 0.87397 0.0
C461 C 0.75342 0.27662 0.04388 0.0
C462 C 0.72337 0.21322 0.92792 0.0
C463 C 0.71482 0.212 0.03979 0.0
H464 H 0.62433 0.83424 -0.00589 0.0
H465 H 0.60143 0.72151 0.04592 0.0
H466 H 0.59153 0.71342 0.84598 0.0
H467 H 0.57481 0.73341 0.67723 0.0
H468 H 0.59042 0.84382 0.63336 0.0
H469 H 0.61642 0.85769 0.81221 0.0
C470 C 0.61877 0.80858 0.95965 0.0
C471 C 0.61295 0.77828 0.032 0.0
C472 C 0.60993 0.80324 0.84856 0.0
C473 C 0.60576 0.74496 -0.01045 0.0
C474 C 0.59944 0.74018 0.87641 0.0
C475 C 0.58431 0.76066 0.70579 0.0
C476 C 0.58024 0.78733 0.64397 0.0
C477 C 0.59884 0.76822 0.80828 0.0
C478 C 0.59281 0.82264 0.68128 0.0
C479 C 0.60796 0.83071 0.78258 0.0
H480 H 0.67415 0.5918 0.21241 0.0
H481 H 0.73982 0.55308 0.24193 0.0
H482 H 0.76257 0.5826 0.05864 0.0
H483 H 0.75767 0.60903 0.87892 0.0
H484 H 0.6861 0.63724 0.83354 0.0
H485 H 0.67325 0.62509 0.03534 0.0
C486 C 0.6933 0.58975 0.17814 0.0
C487 C 0.70491 0.56977 0.23911 0.0
C488 C 0.70584 0.606 0.07099 0.0
C489 C 0.73017 0.56788 0.1953 0.0
C490 C 0.74348 0.58509 0.0912 0.0
C491 C 0.74044 0.61436 0.91487 0.0
C492 C 0.72265 0.62358 0.84375 0.0
C493 C 0.7309 0.6032 0.02704 0.0
C494 C 0.7001 0.63023 0.88872 0.0
C495 C 0.69221 0.62229 0.00314 0.0
H496 H 0.23339 0.90303 0.53379 0.0
H497 H 0.30157 0.86786 0.54442 0.0
H498 H 0.3184 0.8943 0.72694 0.0
H499 H 0.31111 0.92471 0.88607 0.0
H500 H 0.24473 0.96218 0.85964 0.0
H501 H 0.23101 0.93919 0.67397 0.0
C502 C 0.25184 0.90057 0.57513 0.0
C503 C 0.26576 0.88264 0.52596 0.0
C504 C 0.26235 0.91739 0.67477 0.0
C505 C 0.29006 0.88085 0.58132 0.0
C506 C 0.29995 0.89644 0.68456 0.0
C507 C 0.29483 0.92947 0.83688 0.0
C508 C 0.27901 0.94531 0.8853 0.0
C509 C 0.28629 0.91495 0.73164 0.0
C510 C 0.25738 0.95052 0.82277 0.0
C511 C 0.24896 0.93647 0.71837 0.0
H512 H 0.37437 0.10931 0.64957 0.0
H513 H 0.39676 0.22202 0.63398 0.0
H514 H 0.3823 0.21932 0.43696 0.0
H515 H 0.35307 0.18114 0.28541 0.0
H516 H 0.32594 0.06646 0.30902 0.0
H517 H 0.35265 0.07374 0.48629 0.0
C518 C 0.37756 0.13371 0.60095 0.0
C519 C 0.38639 0.16572 0.65503 0.0
C520 C 0.36666 0.13095 0.4915 0.0
C521 C 0.3902 0.19721 0.59272 0.0
C522 C 0.38112 0.19533 0.48131 0.0
C523 C 0.35248 0.15751 0.33015 0.0
C524 C 0.33681 0.12303 0.28575 0.0
C525 C 0.36726 0.16161 0.43293 0.0
C526 C 0.33718 0.09305 0.34312 0.0
C527 C 0.35249 0.09716 0.44404 0.0
loop_
_geom_bond_atom_site_label_1
_geom_bond_atom_site_label_2
_geom_bond_distance
_geom_bond_site_symmetry_2
_ccdc_geom_bond_type
Tb0 C10 2.823 1_556 S
Tb0 O11 2.340 1_556 S
Tb0 O14 2.366 1_556 S
Tb0 O19 2.427 . S
Tb0 O20 2.385 . S
Tb0 O23 2.480 . S
Tb0 O24 2.465 1_556 S
Eu1 O12 2.418 . S
Eu1 O13 2.384 . S
Eu1 O16 2.479 . S
Eu1 O17 2.471 1_554 S
Eu1 O18 2.347 1_554 S
Eu1 O21 2.366 1_554 S
Eu1 C31 2.825 1_554 S
C2 O18 1.259 . S
C2 O19 1.265 . S
C3 O20 1.255 . S
C3 O21 1.265 . S
C4 C6 1.380 . S
C4 C7 1.374 . S
C4 C10 1.507 . S
C5 C6 1.384 . S
C5 C9 1.387 . S
C5 H32 0.930 . S
C6 C4 1.380 . S
C6 C5 1.384 . S
C6 H33 0.931 1_554 S
C7 C4 1.374 . S
C7 C8 1.390 . S
C7 H34 0.930 . S
C8 C7 1.390 . S
C8 C9 1.391 . S
C8 H35 0.930 . S
C9 C5 1.387 . S
C9 C8 1.391 . S
C10 Tb0 2.823 1_554 S
C10 C4 1.507 . S
C10 O23 1.238 1_554 S
C10 O24 1.247 . S
O11 Tb0 2.340 1_554 S
O11 C15 1.259 . S
O12 Eu1 2.418 . S
O12 C15 1.265 . S
O13 Eu1 2.384 . S
O13 C22 1.255 . S
O14 Tb0 2.366 1_554 S
O14 C22 1.265 . S
C15 O11 1.259 . S
C15 O12 1.265 . S
O16 Eu1 2.479 . S
O16 C31 1.238 1_554 S
O17 Eu1 2.471 1_556 S
O17 C31 1.247 . S
O18 Eu1 2.347 1_556 S
O18 C2 1.259 . S
O19 Tb0 2.427 . S
O19 C2 1.265 . S
O20 Tb0 2.385 . S
O20 C3 1.255 . S
O21 Eu1 2.366 1_556 S
O21 C3 1.265 . S
C22 O13 1.255 . S
C22 O14 1.265 . S
O23 Tb0 2.480 . S
O23 C10 1.238 1_556 S
O24 Tb0 2.465 1_554 S
O24 C10 1.247 . S
C25 C28 1.380 . S
C25 C29 1.374 . S
C25 C31 1.507 . S
C26 C27 1.387 . S
C26 C30 1.391 . S
C27 C26 1.387 . S
C27 C28 1.384 . S
C27 H36 0.930 . S
C28 C25 1.380 . S
C28 C27 1.384 . S
C28 H37 0.931 1_556 S
C29 C25 1.374 . S
C29 C30 1.390 . S
C29 H38 0.930 . S
C30 C26 1.391 . S
C30 C29 1.390 . S
C30 H39 0.930 . S
C31 Eu1 2.825 1_556 S
C31 O16 1.238 1_556 S
C31 O17 1.247 . S
C31 C25 1.507 . S
H32 C5 0.930 . S
H33 C6 0.931 1_556 S
H34 C7 0.930 . S
H35 C8 0.930 . S
H36 C27 0.930 . S
H37 C28 0.931 1_554 S
H38 C29 0.930 . S
H39 C30 0.930 . S
Tb40 C50 2.825 1_556 S
Tb40 O51 2.347 1_556 S
Tb40 O54 2.366 . S
Tb40 O59 2.418 . S
Tb40 O60 2.384 . S
Tb40 O63 2.479 . S
Tb40 O64 2.471 1_556 S
Eu41 O52 2.418 . S
Eu41 O53 2.384 . S
Eu41 O56 2.479 . S
Eu41 O57 2.471 1_554 S
Eu41 O58 2.347 1_554 S
Eu41 O61 2.366 . S
Eu41 C71 2.825 1_554 S
C42 O58 1.259 . S
C42 O59 1.265 . S
C43 O60 1.255 . S
C43 O61 1.265 1_556 S
C44 C46 1.380 . S
C44 C47 1.374 . S
C44 C50 1.507 . S
C45 C46 1.384 . S
C45 C49 1.387 . S
C45 H72 0.930 . S
C46 C44 1.380 . S
C46 C45 1.384 . S
C46 H73 0.931 1_554 S
C47 C44 1.374 . S
C47 C48 1.390 . S
C47 H74 0.930 . S
C48 C47 1.390 . S
C48 C49 1.391 . S
C48 H75 0.930 . S
C49 C45 1.387 . S
C49 C48 1.391 . S
C50 Tb40 2.825 1_554 S
C50 C44 1.507 . S
C50 O63 1.238 1_554 S
C50 O64 1.247 . S
O51 Tb40 2.347 1_554 S
O51 C55 1.259 . S
O52 Eu41 2.418 . S
O52 C55 1.265 . S
O53 Eu41 2.384 . S
O53 C62 1.255 . S
O54 Tb40 2.366 . S
O54 C62 1.265 1_556 S
C55 O51 1.259 . S
C55 O52 1.265 . S
O56 Eu41 2.479 . S
O56 C71 1.238 1_554 S
O57 Eu41 2.471 1_556 S
O57 C71 1.247 . S
O58 Eu41 2.347 1_556 S
O58 C42 1.259 . S
O59 Tb40 2.418 . S
O59 C42 1.265 . S
O60 Tb40 2.384 . S
O60 C43 1.255 . S
O61 Eu41 2.366 . S
O61 C43 1.265 1_554 S
C62 O53 1.255 . S
C62 O54 1.265 1_554 S
O63 Tb40 2.479 . S
O63 C50 1.238 1_556 S
O64 Tb40 2.471 1_554 S
O64 C50 1.247 . S
C65 C68 1.380 . S
C65 C69 1.374 . S
C65 C71 1.507 . S
C66 C67 1.387 . S
C66 C70 1.391 . S
C67 C66 1.387 . S
C67 C68 1.384 . S
C67 H76 0.930 . S
C68 C65 1.380 . S
C68 C67 1.384 . S
C68 H77 0.931 1_556 S
C69 C65 1.374 . S
C69 C70 1.390 . S
C69 H78 0.930 . S
C70 C66 1.391 . S
C70 C69 1.390 . S
C70 H79 0.930 . S
C71 Eu41 2.825 1_556 S
C71 O56 1.238 1_556 S
C71 O57 1.247 . S
C71 C65 1.507 . S
H72 C45 0.930 . S
H73 C46 0.931 1_556 S
H74 C47 0.930 . S
H75 C48 0.930 . S
H76 C67 0.930 . S
H77 C68 0.931 1_554 S
H78 C69 0.930 . S
H79 C70 0.930 . S
Tb80 C90 2.825 . S
Tb80 O91 2.347 . S
Tb80 O94 2.366 . S
Tb80 O99 2.418 1_554 S
Tb80 O100 2.384 . S
Tb80 O103 2.479 . S
Tb80 O104 2.471 . S
Eu81 O92 2.418 . S
Eu81 O93 2.384 . S
Eu81 O96 2.479 . S
Eu81 O97 2.471 1_554 S
Eu81 O98 2.347 1_554 S
Eu81 O101 2.366 . S
Eu81 C111 2.825 . S
C82 O98 1.259 . S
C82 O99 1.265 . S
C83 O100 1.255 . S
C83 O101 1.265 . S
C84 C86 1.380 . S
C84 C87 1.374 . S
C84 C90 1.507 . S
C85 C86 1.384 . S
C85 C89 1.387 . S
C85 H112 0.930 1_565 S
C86 C84 1.380 . S
C86 C85 1.384 . S
C86 H113 0.931 . S
C87 C84 1.374 . S
C87 C88 1.390 . S
C87 H114 0.930 . S
C88 C87 1.390 . S
C88 C89 1.391 . S
C88 H115 0.930 . S
C89 C85 1.387 . S
C89 C88 1.391 . S
C90 Tb80 2.825 . S
C90 C84 1.507 . S
C90 O103 1.238 . S
C90 O104 1.247 . S
O91 Tb80 2.347 . S
O91 C95 1.259 . S
O92 Eu81 2.418 . S
O92 C95 1.265 . S
O93 Eu81 2.384 . S
O93 C102 1.255 . S
O94 Tb80 2.366 . S
O94 C102 1.265 . S
C95 O91 1.259 . S
C95 O92 1.265 . S
O96 Eu81 2.479 . S
O96 C111 1.238 . S
O97 Eu81 2.471 1_556 S
O97 C111 1.247 1_556 S
O98 Eu81 2.347 1_556 S
O98 C82 1.259 . S
O99 Tb80 2.418 1_556 S
O99 C82 1.265 . S
O100 Tb80 2.384 . S
O100 C83 1.255 . S
O101 Eu81 2.366 . S
O101 C83 1.265 . S
C102 O93 1.255 . S
C102 O94 1.265 . S
O103 Tb80 2.479 . S
O103 C90 1.238 . S
O104 Tb80 2.471 . S
O104 C90 1.247 . S
C105 C108 1.375 1_556 S
C105 C109 1.380 . S
C105 C111 1.504 1_556 S
C106 C107 1.387 1_556 S
C106 C110 1.391 . S
C107 C106 1.387 1_554 S
C107 C108 1.384 . S
C107 H116 0.930 . S
C108 C105 1.375 1_554 S
C108 C107 1.384 . S
C108 H117 0.931 . S
C109 C105 1.380 . S
C109 C110 1.390 . S
C109 H118 0.930 . S
C110 C106 1.391 . S
C110 C109 1.390 . S
C110 H119 0.930 . S
C111 Eu81 2.825 . S
C111 O96 1.238 . S
C111 O97 1.247 1_554 S
C111 C105 1.504 1_554 S
H112 C85 0.930 1_545 S
H113 C86 0.931 . S
H114 C87 0.930 . S
H115 C88 0.930 . S
H116 C107 0.930 . S
H117 C108 0.931 . S
H118 C109 0.930 . S
H119 C110 0.930 . S
Tb120 C130 2.825 . S
Tb120 O131 2.347 . S
Tb120 O134 2.366 . S
Tb120 O139 2.418 1_556 S
Tb120 O140 2.384 . S
Tb120 O143 2.479 . S
Tb120 O144 2.471 . S
Eu121 O132 2.418 . S
Eu121 O133 2.384 . S
Eu121 O136 2.479 . S
Eu121 O137 2.471 1_556 S
Eu121 O138 2.347 1_556 S
Eu121 O141 2.366 . S
Eu121 C151 2.825 1_556 S
C122 O138 1.259 . S
C122 O139 1.265 . S
C123 O140 1.255 . S
C123 O141 1.265 . S
C124 C126 1.380 . S
C124 C127 1.374 . S
C124 C130 1.507 . S
C125 C126 1.384 . S
C125 C129 1.387 . S
C125 H152 0.930 . S
C126 C124 1.380 . S
C126 C125 1.384 . S
C126 H153 0.931 . S
C127 C124 1.374 . S
C127 C128 1.390 . S
C127 H154 0.930 . S
C128 C127 1.390 . S
C128 C129 1.391 . S
C128 H155 0.930 . S
C129 C125 1.387 . S
C129 C128 1.391 . S
C130 Tb120 2.825 . S
C130 C124 1.507 . S
C130 O143 1.238 . S
C130 O144 1.247 . S
O131 Tb120 2.347 . S
O131 C135 1.259 . S
O132 Eu121 2.418 . S
O132 C135 1.265 . S
O133 Eu121 2.384 . S
O133 C142 1.255 . S
O134 Tb120 2.366 . S
O134 C142 1.265 . S
C135 O131 1.259 . S
C135 O132 1.265 . S
O136 Eu121 2.479 . S
O136 C151 1.238 1_556 S
O137 Eu121 2.471 1_554 S
O137 C151 1.247 . S
O138 Eu121 2.347 1_554 S
O138 C122 1.259 . S
O139 Tb120 2.418 1_554 S
O139 C122 1.265 . S
O140 Tb120 2.384 . S
O140 C123 1.255 . S
O141 Eu121 2.366 . S
O141 C123 1.265 . S
C142 O133 1.255 . S
C142 O134 1.265 . S
O143 Tb120 2.479 . S
O143 C130 1.238 . S
O144 Tb120 2.471 . S
O144 C130 1.247 . S
C145 C148 1.380 1_554 S
C145 C149 1.374 . S
C145 C151 1.507 . S
C146 C147 1.387 . S
C146 C150 1.391 . S
C147 C146 1.387 . S
C147 C148 1.384 1_554 S
C147 H156 0.930 1_554 S
C148 C145 1.380 1_556 S
C148 C147 1.384 1_556 S
C148 H157 0.931 . S
C149 C145 1.374 . S
C149 C150 1.390 . S
C149 H158 0.930 . S
C150 C146 1.391 . S
C150 C149 1.390 . S
C150 H159 0.930 . S
C151 Eu121 2.825 1_554 S
C151 O136 1.238 1_554 S
C151 O137 1.247 . S
C151 C145 1.507 . S
H152 C125 0.930 . S
H153 C126 0.931 . S
H154 C127 0.930 . S
H155 C128 0.930 . S
H156 C147 0.930 1_556 S
H157 C148 0.931 . S
H158 C149 0.930 . S
H159 C150 0.930 . S
Tb160 C170 2.825 . S
Tb160 O171 2.347 . S
Tb160 O174 2.366 . S
Tb160 O179 2.418 1_554 S
Tb160 O180 2.382 1_554 S
Tb160 O183 2.479 . S
Tb160 O184 2.471 . S
Eu161 O172 2.418 . S
Eu161 O173 2.384 . S
Eu161 O176 2.479 . S
Eu161 O177 2.471 1_554 S
Eu161 O178 2.347 1_554 S
Eu161 O181 2.366 . S
Eu161 C191 2.825 1_554 S
C162 O178 1.259 . S
C162 O179 1.265 . S
C163 O180 1.254 1_554 S
C163 O181 1.265 . S
C164 C166 1.380 . S
C164 C167 1.374 . S
C164 C170 1.507 . S
C165 C166 1.384 . S
C165 C169 1.387 . S
C165 H192 0.930 . S
C166 C164 1.380 . S
C166 C165 1.384 . S
C166 H193 0.931 . S
C167 C164 1.374 . S
C167 C168 1.390 . S
C167 H194 0.930 . S
C168 C167 1.390 . S
C168 C169 1.391 . S
C168 H195 0.930 . S
C169 C165 1.387 . S
C169 C168 1.391 . S
C170 Tb160 2.825 . S
C170 C164 1.507 . S
C170 O183 1.238 . S
C170 O184 1.247 . S
O171 Tb160 2.347 . S
O171 C175 1.259 . S
O172 Eu161 2.418 . S
O172 C175 1.265 . S
O173 Eu161 2.384 . S
O173 C182 1.255 . S
O174 Tb160 2.366 . S
O174 C182 1.265 . S
C175 O171 1.259 . S
C175 O172 1.265 . S
O176 Eu161 2.479 . S
O176 C191 1.238 1_554 S
O177 Eu161 2.471 1_556 S
O177 C191 1.247 . S
O178 Eu161 2.347 1_556 S
O178 C162 1.259 . S
O179 Tb160 2.418 1_556 S
O179 C162 1.265 . S
O180 Tb160 2.382 1_556 S
O180 C163 1.254 1_556 S
O181 Eu161 2.366 . S
O181 C163 1.265 . S
C182 O173 1.255 . S
C182 O174 1.265 . S
O183 Tb160 2.479 . S
O183 C170 1.238 . S
O184 Tb160 2.471 . S
O184 C170 1.247 . S
C185 C188 1.380 1_556 S
C185 C189 1.374 . S
C185 C191 1.507 . S
C186 C187 1.387 . S
C186 C190 1.391 . S
C187 C186 1.387 . S
C187 C188 1.384 1_556 S
C187 H196 0.930 1_556 S
C188 C185 1.380 1_554 S
C188 C187 1.384 1_554 S
C188 H197 0.931 . S
C189 C185 1.374 . S
C189 C190 1.390 . S
C189 H198 0.930 . S
C190 C186 1.391 . S
C190 C189 1.390 . S
C190 H199 0.930 . S
C191 Eu161 2.825 1_556 S
C191 O176 1.238 1_556 S
C191 O177 1.247 . S
C191 C185 1.507 . S
H192 C165 0.930 . S
H193 C166 0.931 . S
H194 C167 0.930 . S
H195 C168 0.930 . S
H196 C187 0.930 1_554 S
H197 C188 0.931 . S
H198 C189 0.930 . S
H199 C190 0.930 . S
Tb200 C210 2.825 1_554 S
Tb200 O211 2.347 1_554 S
Tb200 O214 2.366 1_554 S
Tb200 O219 2.418 . S
Tb200 O220 2.384 . S
Tb200 O223 2.479 . S
Tb200 O224 2.471 1_554 S
Eu201 O212 2.418 . S
Eu201 O213 2.384 . S
Eu201 O216 2.479 . S
Eu201 O217 2.471 1_556 S
Eu201 O218 2.347 1_556 S
Eu201 O221 2.366 1_556 S
Eu201 C231 2.825 1_556 S
C202 O218 1.259 . S
C202 O219 1.265 . S
C203 O220 1.255 . S
C203 O221 1.265 . S
C204 C206 1.380 . S
C204 C207 1.374 . S
C204 C210 1.507 . S
C205 C206 1.384 . S
C205 C209 1.387 . S
C205 H232 0.930 . S
C206 C204 1.380 . S
C206 C205 1.384 . S
C206 H233 0.931 1_556 S
C207 C204 1.374 . S
C207 C208 1.390 . S
C207 H234 0.930 . S
C208 C207 1.390 . S
C208 C209 1.391 . S
C208 H235 0.930 . S
C209 C205 1.387 . S
C209 C208 1.391 . S
C210 Tb200 2.825 1_556 S
C210 C204 1.507 . S
C210 O223 1.238 1_556 S
C210 O224 1.247 . S
O211 Tb200 2.347 1_556 S
O211 C215 1.259 . S
O212 Eu201 2.418 . S
O212 C215 1.265 . S
O213 Eu201 2.384 . S
O213 C222 1.255 . S
O214 Tb200 2.366 1_556 S
O214 C222 1.265 . S
C215 O211 1.259 . S
C215 O212 1.265 . S
O216 Eu201 2.479 . S
O216 C231 1.238 1_556 S
O217 Eu201 2.471 1_554 S
O217 C231 1.247 . S
O218 Eu201 2.347 1_554 S
O218 C202 1.259 . S
O219 Tb200 2.418 . S
O219 C202 1.265 . S
O220 Tb200 2.384 . S
O220 C203 1.255 . S
O221 Eu201 2.366 1_554 S
O221 C203 1.265 . S
C222 O213 1.255 . S
C222 O214 1.265 . S
O223 Tb200 2.479 . S
O223 C210 1.238 1_554 S
O224 Tb200 2.471 1_556 S
O224 C210 1.247 . S
C225 C228 1.380 . S
C225 C229 1.374 . S
C225 C231 1.507 . S
C226 C227 1.387 . S
C226 C230 1.391 . S
C227 C226 1.387 . S
C227 C228 1.384 . S
C227 H236 0.930 . S
C228 C225 1.380 . S
C228 C227 1.384 . S
C228 H237 0.931 1_554 S
C229 C225 1.374 . S
C229 C230 1.390 . S
C229 H238 0.930 . S
C230 C226 1.391 . S
C230 C229 1.390 . S
C230 H239 0.930 . S
C231 Eu201 2.825 1_554 S
C231 O216 1.238 1_554 S
C231 O217 1.247 . S
C231 C225 1.507 . S
H232 C205 0.930 . S
H233 C206 0.931 1_554 S
H234 C207 0.930 . S
H235 C208 0.930 . S
H236 C227 0.930 . S
H237 C228 0.931 1_556 S
H238 C229 0.930 . S
H239 C230 0.930 . S
H240 C246 0.930 . S
H241 C249 0.930 . S
H242 C250 0.930 . S
H243 C251 0.930 . S
H244 C254 0.930 . S
H245 C255 0.930 . S
C246 H240 0.930 . S
C246 C247 1.355 . S
C246 C248 1.415 . S
C247 C246 1.355 . S
C247 C249 1.419 . S
C248 C246 1.415 . S
C248 C253 1.425 . S
C248 C255 1.409 . S
C249 H241 0.930 . S
C249 C247 1.419 . S
C249 C250 1.362 . S
C250 H242 0.930 . S
C250 C249 1.362 . S
C250 C253 1.409 . S
C251 H243 0.930 . S
C251 C252 1.355 . S
C251 C253 1.415 . S
C252 C251 1.355 . S
C252 C254 1.419 . S
C253 C248 1.425 . S
C253 C250 1.409 . S
C253 C251 1.415 . S
C254 H244 0.930 . S
C254 C252 1.419 . S
C254 C255 1.362 . S
C255 H245 0.930 . S
C255 C248 1.409 . S
C255 C254 1.362 . S
H256 C262 0.930 . S
H257 C265 0.930 . S
H258 C266 0.930 . S
H259 C267 0.930 . S
H260 C270 0.930 . S
H261 C271 0.930 . S
C262 H256 0.930 . S
C262 C263 1.355 . S
C262 C264 1.415 1_455 S
C263 C262 1.355 . S
C263 C265 1.419 . S
C264 C262 1.415 1_655 S
C264 C269 1.425 . S
C264 C271 1.409 . S
C265 H257 0.930 . S
C265 C263 1.419 . S
C265 C266 1.362 . S
C266 H258 0.930 . S
C266 C265 1.362 . S
C266 C269 1.409 1_455 S
C267 H259 0.930 . S
C267 C268 1.355 . S
C267 C269 1.415 . S
C268 C267 1.355 . S
C268 C270 1.419 . S
C269 C264 1.425 . S
C269 C266 1.409 1_655 S
C269 C267 1.415 . S
C270 H260 0.930 . S
C270 C268 1.419 . S
C270 C271 1.362 . S
C271 H261 0.930 . S
C271 C264 1.409 . S
C271 C270 1.362 . S
H272 C278 0.930 . S
H273 C281 0.930 . S
H274 C282 0.930 . S
H275 C283 0.916 1_565 S
H276 C286 0.930 . S
H277 C287 0.930 . S
C278 H272 0.930 . S
C278 C279 1.355 . S
C278 C280 1.415 . S
C279 C278 1.355 . S
C279 C281 1.419 . S
C280 C278 1.415 . S
C280 C285 1.425 . S
C280 C287 1.409 . S
C281 H273 0.930 . S
C281 C279 1.419 . S
C281 C282 1.362 . S
C282 H274 0.930 . S
C282 C281 1.362 . S
C282 C285 1.409 . S
C283 H275 0.916 1_545 S
C283 C284 1.355 . S
C283 C285 1.415 . S
C284 C283 1.355 . S
C284 C286 1.419 . S
C285 C280 1.425 . S
C285 C282 1.409 . S
C285 C283 1.415 . S
C286 H276 0.930 . S
C286 C284 1.419 . S
C286 C287 1.362 . S
C287 H277 0.930 . S
C287 C280 1.409 . S
C287 C286 1.362 . S
H288 C294 0.930 . S
H289 C297 0.930 . S
H290 C298 0.930 . S
H291 C299 0.930 . S
H292 C302 0.930 . S
H293 C303 0.930 . S
C294 H288 0.930 . S
C294 C295 1.355 . S
C294 C296 1.415 . S
C295 C294 1.355 . S
C295 C297 1.419 . S
C296 C294 1.415 . S
C296 C301 1.425 . S
C296 C303 1.409 . S
C297 H289 0.930 . S
C297 C295 1.419 . S
C297 C298 1.362 . S
C298 H290 0.930 . S
C298 C297 1.362 . S
C298 C301 1.409 . S
C299 H291 0.930 . S
C299 C300 1.355 . S
C299 C301 1.415 . S
C300 C299 1.355 . S
C300 C302 1.419 . S
C301 C296 1.425 . S
C301 C298 1.409 . S
C301 C299 1.415 . S
C302 H292 0.930 . S
C302 C300 1.419 . S
C302 C303 1.362 . S
C303 H293 0.930 . S
C303 C296 1.409 . S
C303 C302 1.362 . S
H304 C310 0.930 . S
H305 C313 0.930 . S
H306 C314 0.930 . S
H307 C315 0.930 . S
H308 C318 0.930 . S
H309 C319 0.930 . S
C310 H304 0.930 . S
C310 C311 1.355 . S
C310 C312 1.415 . S
C311 C310 1.355 . S
C311 C313 1.419 . S
C312 C310 1.415 . S
C312 C317 1.425 . S
C312 C319 1.409 . S
C313 H305 0.930 . S
C313 C311 1.419 . S
C313 C314 1.362 . S
C314 H306 0.930 . S
C314 C313 1.362 . S
C314 C317 1.409 . S
C315 H307 0.930 . S
C315 C316 1.355 . S
C315 C317 1.415 . S
C316 C315 1.355 . S
C316 C318 1.419 . S
C317 C312 1.425 . S
C317 C314 1.409 . S
C317 C315 1.415 . S
C318 H308 0.930 . S
C318 C316 1.419 . S
C318 C319 1.362 . S
C319 H309 0.930 . S
C319 C312 1.409 . S
C319 C318 1.362 . S
H320 C326 0.930 . S
H321 C329 0.930 . S
H322 C330 0.930 . S
H323 C331 0.930 . S
H324 C334 0.930 . S
H325 C335 0.930 . S
C326 H320 0.930 . S
C326 C327 1.355 . S
C326 C328 1.415 . S
C327 C326 1.355 . S
C327 C329 1.419 . S
C328 C326 1.415 . S
C328 C333 1.425 1_565 S
C328 C335 1.409 . S
C329 H321 0.930 . S
C329 C327 1.419 . S
C329 C330 1.362 1_565 S
C330 H322 0.930 . S
C330 C329 1.362 1_545 S
C330 C333 1.409 . S
C331 H323 0.930 . S
C331 C332 1.355 . S
C331 C333 1.415 . S
C332 C331 1.355 . S
C332 C334 1.419 1_545 S
C333 C328 1.425 1_545 S
C333 C330 1.409 . S
C333 C331 1.415 . S
C334 H324 0.930 . S
C334 C332 1.419 1_565 S
C334 C335 1.362 . S
C335 H325 0.930 . S
C335 C328 1.409 . S
C335 C334 1.362 . S
H336 C342 0.930 . S
H337 C345 0.930 . S
H338 C346 0.930 . S
H339 C347 0.930 . S
H340 C350 0.930 . S
H341 C351 0.930 1_554 S
C342 H336 0.930 . S
C342 C343 1.355 1_554 S
C342 C344 1.415 1_554 S
C343 C342 1.355 1_556 S
C343 C345 1.419 . S
C344 C342 1.415 1_556 S
C344 C349 1.425 . S
C344 C351 1.409 . S
C345 H337 0.930 . S
C345 C343 1.419 . S
C345 C346 1.362 . S
C346 H338 0.930 . S
C346 C345 1.362 . S
C346 C349 1.409 . S
C347 H339 0.930 . S
C347 C348 1.355 . S
C347 C349 1.415 . S
C348 C347 1.355 . S
C348 C350 1.419 . S
C349 C344 1.425 . S
C349 C346 1.409 . S
C349 C347 1.415 . S
C350 H340 0.930 . S
C350 C348 1.419 . S
C350 C351 1.362 . S
C351 H341 0.930 1_556 S
C351 C344 1.409 . S
C351 C350 1.362 . S
H352 C358 0.930 . S
H353 C361 0.930 . S
H354 C362 0.930 . S
H355 C363 0.930 . S
H356 C366 0.930 . S
H357 C367 0.930 . S
C358 H352 0.930 . S
C358 C359 1.355 . S
C358 C360 1.415 . S
C359 C358 1.355 . S
C359 C361 1.419 . S
C360 C358 1.415 . S
C360 C365 1.425 . S
C360 C367 1.409 . S
C361 H353 0.930 . S
C361 C359 1.419 . S
C361 C362 1.362 . S
C362 H354 0.930 . S
C362 C361 1.362 . S
C362 C365 1.409 . S
C363 H355 0.930 . S
C363 C364 1.355 . S
C363 C365 1.415 . S
C364 C363 1.355 . S
C364 C366 1.419 . S
C365 C360 1.425 . S
C365 C362 1.409 . S
C365 C363 1.415 . S
C366 H356 0.930 . S
C366 C364 1.419 . S
C366 C367 1.362 . S
C367 H357 0.930 . S
C367 C360 1.409 . S
C367 C366 1.362 . S
H368 C374 0.930 . S
H369 C377 0.930 . S
H370 C378 0.930 . S
H371 C379 0.930 . S
H372 C382 0.930 . S
H373 C383 0.930 . S
C374 H368 0.930 . S
C374 C375 1.355 . S
C374 C376 1.415 . S
C375 C374 1.355 . S
C375 C377 1.419 . S
C376 C374 1.415 . S
C376 C381 1.425 . S
C376 C383 1.409 . S
C377 H369 0.930 . S
C377 C375 1.419 . S
C377 C378 1.362 . S
C378 H370 0.930 . S
C378 C377 1.362 . S
C378 C381 1.409 . S
C379 H371 0.930 . S
C379 C380 1.355 . S
C379 C381 1.415 . S
C380 C379 1.355 . S
C380 C382 1.419 . S
C381 C376 1.425 . S
C381 C378 1.409 . S
C381 C379 1.415 . S
C382 H372 0.930 . S
C382 C380 1.419 . S
C382 C383 1.362 . S
C383 H373 0.930 . S
C383 C376 1.409 . S
C383 C382 1.362 . S
H384 C390 0.930 . S
H385 C393 0.930 . S
H386 C394 0.930 . S
H387 C395 0.930 . S
H388 C398 0.930 . S
H389 C399 0.930 . S
C390 H384 0.930 . S
C390 C391 1.355 1_556 S
C390 C392 1.415 . S
C391 C390 1.355 1_554 S
C391 C393 1.419 . S
C392 C390 1.415 . S
C392 C397 1.425 1_556 S
C392 C399 1.409 . S
C393 H385 0.930 . S
C393 C391 1.419 . S
C393 C394 1.362 . S
C394 H386 0.930 . S
C394 C393 1.362 . S
C394 C397 1.409 . S
C395 H387 0.930 . S
C395 C396 1.355 . S
C395 C397 1.415 . S
C396 C395 1.355 . S
C396 C398 1.419 1_554 S
C397 C392 1.425 1_554 S
C397 C394 1.409 . S
C397 C395 1.415 . S
C398 H388 0.930 . S
C398 C396 1.419 1_556 S
C398 C399 1.362 . S
C399 H389 0.930 . S
C399 C392 1.409 . S
C399 C398 1.362 . S
H400 C406 0.930 1_554 S
H401 C409 0.930 . S
H402 C410 0.930 . S
H403 C411 0.930 . S
H404 C414 0.930 . S
H405 C415 0.930 . S
C406 H400 0.930 1_556 S
C406 C407 1.355 . S
C406 C408 1.415 . S
C407 C406 1.355 . S
C407 C409 1.419 . S
C408 C406 1.415 . S
C408 C413 1.425 . S
C408 C415 1.409 1_556 S
C409 H401 0.930 . S
C409 C407 1.419 . S
C409 C410 1.362 . S
C410 H402 0.930 . S
C410 C409 1.362 . S
C410 C413 1.409 . S
C411 H403 0.930 . S
C411 C412 1.355 1_556 S
C411 C413 1.415 . S
C412 C411 1.355 1_554 S
C412 C414 1.419 . S
C413 C408 1.425 . S
C413 C410 1.409 . S
C413 C411 1.415 . S
C414 H404 0.930 . S
C414 C412 1.419 . S
C414 C415 1.362 . S
C415 H405 0.930 . S
C415 C408 1.409 1_554 S
C415 C414 1.362 . S
H416 C422 0.930 . S
H417 C425 0.930 . S
H418 C426 0.930 . S
H419 C427 0.930 . S
H420 C430 0.930 . S
H421 C431 0.930 . S
C422 H416 0.930 . S
C422 C423 1.355 . S
C422 C424 1.415 . S
C423 C422 1.355 . S
C423 C425 1.419 . S
C424 C422 1.415 . S
C424 C429 1.425 . S
C424 C431 1.409 . S
C425 H417 0.930 . S
C425 C423 1.419 . S
C425 C426 1.362 . S
C426 H418 0.930 . S
C426 C425 1.362 . S
C426 C429 1.409 . S
C427 H419 0.930 . S
C427 C428 1.355 . S
C427 C429 1.415 . S
C428 C427 1.355 . S
C428 C430 1.419 . S
C429 C424 1.425 . S
C429 C426 1.409 . S
C429 C427 1.415 . S
C430 H420 0.930 . S
C430 C428 1.419 . S
C430 C431 1.362 . S
C431 H421 0.930 . S
C431 C424 1.409 . S
C431 C430 1.362 . S
H432 C438 0.930 . S
H433 C441 0.930 . S
H434 C442 0.930 . S
H435 C443 0.930 . S
H436 C446 0.930 . S
H437 C447 0.930 . S
C438 H432 0.930 . S
C438 C439 1.355 . S
C438 C440 1.415 . S
C439 C438 1.355 . S
C439 C441 1.419 . S
C440 C438 1.415 . S
C440 C445 1.425 . S
C440 C447 1.409 . S
C441 H433 0.930 . S
C441 C439 1.419 . S
C441 C442 1.362 . S
C442 H434 0.930 . S
C442 C441 1.362 . S
C442 C445 1.409 . S
C443 H435 0.930 . S
C443 C444 1.355 . S
C443 C445 1.415 . S
C444 C443 1.355 . S
C444 C446 1.419 . S
C445 C440 1.425 . S
C445 C442 1.409 . S
C445 C443 1.415 . S
C446 H436 0.930 . S
C446 C444 1.419 . S
C446 C447 1.362 . S
C447 H437 0.930 . S
C447 C440 1.409 . S
C447 C446 1.362 . S
H448 C454 0.930 . S
H449 C457 0.930 . S
H450 C458 0.930 . S
H451 C459 0.930 . S
H452 C462 0.930 . S
H453 C463 0.930 . S
C454 H448 0.930 . S
C454 C455 1.355 . S
C454 C456 1.415 . S
C455 C454 1.355 . S
C455 C457 1.419 . S
C456 C454 1.415 . S
C456 C461 1.425 . S
C456 C463 1.409 . S
C457 H449 0.930 . S
C457 C455 1.419 . S
C457 C458 1.362 . S
C458 H450 0.930 . S
C458 C457 1.362 . S
C458 C461 1.409 . S
C459 H451 0.930 . S
C459 C460 1.355 . S
C459 C461 1.415 . S
C460 C459 1.355 . S
C460 C462 1.419 . S
C461 C456 1.425 . S
C461 C458 1.409 . S
C461 C459 1.415 . S
C462 H452 0.930 . S
C462 C460 1.419 . S
C462 C463 1.362 . S
C463 H453 0.930 . S
C463 C456 1.409 . S
C463 C462 1.362 . S
H464 C470 0.930 . S
H465 C473 0.930 . S
H466 C474 0.930 . S
H467 C475 0.930 . S
H468 C478 0.930 . S
H469 C479 0.930 . S
C470 H464 0.930 . S
C470 C471 1.355 . S
C470 C472 1.415 . S
C471 C470 1.355 . S
C471 C473 1.419 . S
C472 C470 1.415 . S
C472 C477 1.425 . S
C472 C479 1.409 . S
C473 H465 0.930 . S
C473 C471 1.419 . S
C473 C474 1.362 . S
C474 H466 0.930 . S
C474 C473 1.362 . S
C474 C477 1.409 . S
C475 H467 0.930 . S
C475 C476 1.355 . S
C475 C477 1.415 . S
C476 C475 1.355 . S
C476 C478 1.419 . S
C477 C472 1.425 . S
C477 C474 1.409 . S
C477 C475 1.415 . S
C478 H468 0.930 . S
C478 C476 1.419 . S
C478 C479 1.362 . S
C479 H469 0.930 . S
C479 C472 1.409 . S
C479 C478 1.362 . S
H480 C486 0.930 . S
H481 C489 0.930 . S
H482 C490 0.930 . S
H483 C491 0.930 . S
H484 C494 0.930 . S
H485 C495 0.930 . S
C486 H480 0.930 . S
C486 C487 1.355 . S
C486 C488 1.415 . S
C487 C486 1.355 . S
C487 C489 1.419 . S
C488 C486 1.415 . S
C488 C493 1.425 . S
C488 C495 1.409 . S
C489 H481 0.930 . S
C489 C487 1.419 . S
C489 C490 1.362 . S
C490 H482 0.930 . S
C490 C489 1.362 . S
C490 C493 1.409 . S
C491 H483 0.930 . S
C491 C492 1.355 . S
C491 C493 1.415 . S
C492 C491 1.355 . S
C492 C494 1.419 . S
C493 C488 1.425 . S
C493 C490 1.409 . S
C493 C491 1.415 . S
C494 H484 0.930 . S
C494 C492 1.419 . S
C494 C495 1.362 . S
C495 H485 0.930 . S
C495 C488 1.409 . S
C495 C494 1.362 . S
H496 C502 0.930 . S
H497 C505 0.930 . S
H498 C506 0.930 . S
H499 C507 0.930 . S
H500 C510 0.930 . S
H501 C511 0.930 . S
C502 H496 0.930 . S
C502 C503 1.355 . S
C502 C504 1.415 . S
C503 C502 1.355 . S
C503 C505 1.419 . S
C504 C502 1.415 . S
C504 C509 1.425 . S
C504 C511 1.409 . S
C505 H497 0.930 . S
C505 C503 1.419 . S
C505 C506 1.362 . S
C506 H498 0.930 . S
C506 C505 1.362 . S
C506 C509 1.409 . S
C507 H499 0.930 . S
C507 C508 1.355 . S
C507 C509 1.415 . S
C508 C507 1.355 . S
C508 C510 1.419 . S
C509 C504 1.425 . S
C509 C506 1.409 . S
C509 C507 1.415 . S
C510 H500 0.930 . S
C510 C508 1.419 . S
C510 C511 1.362 . S
C511 H501 0.930 . S
C511 C504 1.409 . S
C511 C510 1.362 . S
H512 C518 0.930 . S
H513 C521 0.930 . S
H514 C522 0.930 . S
H515 C523 0.930 . S
H516 C526 0.930 . S
H517 C527 0.930 . S
C518 H512 0.930 . S
C518 C519 1.355 . S
C518 C520 1.415 . S
C519 C518 1.355 . S
C519 C521 1.419 . S
C520 C518 1.415 . S
C520 C525 1.425 . S
C520 C527 1.409 . S
C521 H513 0.930 . S
C521 C519 1.419 . S
C521 C522 1.362 . S
C522 H514 0.930 . S
C522 C521 1.362 . S
C522 C525 1.409 . S
C523 H515 0.930 . S
C523 C524 1.355 . S
C523 C525 1.415 . S
C524 C523 1.355 . S
C524 C526 1.419 . S
C525 C520 1.425 . S
C525 C522 1.409 . S
C525 C523 1.415 . S
C526 H516 0.930 . S
C526 C524 1.419 . S
C526 C527 1.362 . S
C527 H517 0.930 . S
C527 C520 1.409 . S
C527 C526 1.362 . S
C247 C209 1.846 . S
C252 C9 2.109 . S
C263 C22 3.556 . S
C268 C66 3.324 . S
C279 C43 2.901 . S
C284 C89 2.606 1_545 S
C295 C142 4.487 . S
C300 C102 4.373 . S
C311 C169 2.523 1_655 S
C316 C129 2.640 . S
C327 C182 2.994 . S
C332 C222 2.850 . S
C343 C163 1.467 1_556 S
C348 C26 1.341 . S
C359 C226 1.186 . S
C364 C49 1.192 . S
C375 C106 2.172 . S
C380 C3 2.147 . S
C391 C123 3.889 1_554 S
C396 C62 3.927 . S
C407 C186 3.032 . S
C412 C83 3.101 . S
C423 C146 2.132 . S
C428 C203 2.260 . S
C439 C2 0.644 . S
C444 C15 0.644 . S
C455 C42 0.695 . S
C460 C55 0.695 . S
C471 C82 0.685 . S
C476 C95 0.685 . S
C487 C135 0.669 . S
C492 C122 0.669 . S
C503 C175 0.627 . S
C508 C162 0.627 . S
C519 C215 0.699 . S
C524 C202 0.699 . S
