# Generated by pormake.
# Topology wfu, (7)-cn, num edge types: 1
# Building blocks:
#     Node 0, Type 0, BuildingBlock: NUHQUE_clean_sbu_2, # of connection points: 7
#     Node 1, Type 0, BuildingBlock: NUHQUE_clean_sbu_2, # of connection points: 7
#     Node 2, Type 0, BuildingBlock: NUHQUE_clean_sbu_2, # of connection points: 7
#     Node 3, Type 0, BuildingBlock: NUHQUE_clean_sbu_2, # of connection points: 7
#     Node 4, Type 0, BuildingBlock: NUHQUE_clean_sbu_2, # of connection points: 7
#     Node 5, Type 0, BuildingBlock: NUHQUE_clean_sbu_2, # of connection points: 7
#     Node 6, Type 0, BuildingBlock: NUHQUE_clean_sbu_2, # of connection points: 7
#     Node 7, Type 0, BuildingBlock: NUHQUE_clean_sbu_2, # of connection points: 7
#     Edge 8, Type (0, 0), BuildingBlock: EZIPEK_clean_linker_0, # of connection points: 2
#     Edge 9, Type (0, 0), BuildingBlock: EZIPEK_clean_linker_0, # of connection points: 2
#     Edge 10, Type (0, 0), BuildingBlock: EZIPEK_clean_linker_0, # of connection points: 2
#     Edge 11, Type (0, 0), BuildingBlock: EZIPEK_clean_linker_0, # of connection points: 2
#     Edge 12, Type (0, 0), BuildingBlock: EZIPEK_clean_linker_0, # of connection points: 2
#     Edge 13, Type (0, 0), BuildingBlock: EZIPEK_clean_linker_0, # of connection points: 2
#     Edge 14, Type (0, 0), BuildingBlock: EZIPEK_clean_linker_0, # of connection points: 2
#     Edge 15, Type (0, 0), BuildingBlock: EZIPEK_clean_linker_0, # of connection points: 2
#     Edge 16, Type (0, 0), BuildingBlock: EZIPEK_clean_linker_0, # of connection points: 2
#     Edge 17, Type (0, 0), BuildingBlock: EZIPEK_clean_linker_0, # of connection points: 2
#     Edge 18, Type (0, 0), BuildingBlock: EZIPEK_clean_linker_0, # of connection points: 2
#     Edge 19, Type (0, 0), BuildingBlock: EZIPEK_clean_linker_0, # of connection points: 2
#     Edge 20, Type (0, 0), BuildingBlock: EZIPEK_clean_linker_0, # of connection points: 2
#     Edge 21, Type (0, 0), BuildingBlock: EZIPEK_clean_linker_0, # of connection points: 2
#     Edge 22, Type (0, 0), BuildingBlock: EZIPEK_clean_linker_0, # of connection points: 2
#     Edge 23, Type (0, 0), BuildingBlock: EZIPEK_clean_linker_0, # of connection points: 2
#     Edge 24, Type (0, 0), BuildingBlock: EZIPEK_clean_linker_0, # of connection points: 2
#     Edge 25, Type (0, 0), BuildingBlock: EZIPEK_clean_linker_0, # of connection points: 2
#     Edge 26, Type (0, 0), BuildingBlock: EZIPEK_clean_linker_0, # of connection points: 2
#     Edge 27, Type (0, 0), BuildingBlock: EZIPEK_clean_linker_0, # of connection points: 2
#     Edge 28, Type (0, 0), BuildingBlock: EZIPEK_clean_linker_0, # of connection points: 2
#     Edge 29, Type (0, 0), BuildingBlock: EZIPEK_clean_linker_0, # of connection points: 2
#     Edge 30, Type (0, 0), BuildingBlock: EZIPEK_clean_linker_0, # of connection points: 2
#     Edge 31, Type (0, 0), BuildingBlock: EZIPEK_clean_linker_0, # of connection points: 2
#     Edge 32, Type (0, 0), BuildingBlock: EZIPEK_clean_linker_0, # of connection points: 2
#     Edge 33, Type (0, 0), BuildingBlock: EZIPEK_clean_linker_0, # of connection points: 2
#     Edge 34, Type (0, 0), BuildingBlock: EZIPEK_clean_linker_0, # of connection points: 2
#     Edge 35, Type (0, 0), BuildingBlock: EZIPEK_clean_linker_0, # of connection points: 2
# Relax obj value: 0.228
# Max RMSD: 0.203
# Mean RMSD: 0.203
data_MOF--net-wfu--node1-NUHQUE_clean_sbu_2--edge1-EZIPEK_clean_linker_0
_symmetry_space_group_name_H-M    P1
_symmetry_Int_Tables_number       1
_symmetry_cell_setting            triclinic
loop_
_symmetry_equiv_pos_as_xyz
'x, y, z'
_cell_length_a     28.419944
_cell_length_b     28.802223
_cell_length_c     23.526859
_cell_angle_alpha  89.010889
_cell_angle_beta   90.678284
_cell_angle_gamma 90.494965
loop_
_atom_site_label
_atom_site_type_symbol
_atom_site_fract_x
_atom_site_fract_y
_atom_site_fract_z
_atom_type_partial_charge
O0 O 0.31147 0.51922 0.22922 0.0
Tb1 Tb 0.33084 0.46186 0.17594 0.0
Eu2 Eu 0.38029 0.37184 0.24936 0.0
C3 C 0.33386 0.55896 0.22162 0.0
O4 O 0.37003 0.5598 0.18733 0.0
C5 C 0.43874 0.46399 0.22381 0.0
O6 O 0.37962 0.38263 0.15357 0.0
C7 C 0.35751 0.3301 0.34174 0.0
C8 C 0.39752 0.35935 0.11136 0.0
O9 O 0.38731 0.37355 0.05932 0.0
C10 C 0.28676 0.36198 0.17691 0.0
C11 C 0.32592 0.29418 0.36732 0.0
C12 C 0.30282 0.3034 0.41869 0.0
C13 C 0.27605 0.26864 0.44661 0.0
C14 C 0.27232 0.22444 0.42257 0.0
C15 C 0.29494 0.21477 0.37137 0.0
C16 C 0.32123 0.24983 0.34363 0.0
O17 O 0.40733 0.47353 0.18345 0.0
O18 O 0.43238 0.43024 0.26158 0.0
O19 O 0.29367 0.50777 0.1164 0.0
O20 O 0.33778 0.45651 0.08382 0.0
C21 C 0.30896 0.48979 0.06997 0.0
O22 O 0.32543 0.34066 0.19259 0.0
O23 O 0.28053 0.40515 0.19249 0.0
O24 O 0.39273 0.31553 0.30913 0.0
O25 O 0.33757 0.37003 0.32487 0.0
H26 H 0.30677 0.33718 0.43789 0.0
H27 H 0.2527 0.1972 0.44441 0.0
H28 H 0.33917 0.24194 0.3046 0.0
O29 O 0.52709 0.74224 0.86382 0.0
Tb30 Tb 0.47626 0.69951 0.91041 0.0
Eu31 Eu 0.39018 0.67469 0.79516 0.0
C32 C 0.55322 0.72606 0.82292 0.0
O33 O 0.53682 0.69238 0.79123 0.0
C34 C 0.482 0.60694 0.83472 0.0
O35 O 0.34159 0.63054 0.84914 0.0
C36 C 0.35082 0.68964 0.69624 0.0
C37 C 0.35842 0.61089 0.89574 0.0
O38 O 0.40184 0.61952 0.91147 0.0
C39 C 0.37863 0.74261 0.89513 0.0
C40 C 0.31488 0.72223 0.67249 0.0
C41 C 0.32054 0.74169 0.61751 0.0
C42 C 0.28599 0.77114 0.59362 0.0
C43 C 0.24569 0.78091 0.62487 0.0
C44 C 0.2396 0.76271 0.68003 0.0
C45 C 0.27449 0.73357 0.70384 0.0
O46 O 0.49487 0.63136 0.87965 0.0
O47 O 0.44958 0.6206 0.79658 0.0
O48 O 0.49631 0.7474 0.97686 0.0
O49 O 0.49804 0.67557 0.99597 0.0
C50 C 0.50322 0.71691 1.01721 0.0
O51 O 0.3795 0.74265 0.83969 0.0
O52 O 0.40214 0.71126 0.92366 0.0
O53 O 0.33571 0.65822 0.73303 0.0
O54 O 0.39217 0.70731 0.71036 0.0
H55 H 0.3516 0.73388 0.59328 0.0
H56 H 0.21916 0.80364 0.60648 0.0
H57 H 0.26991 0.71962 0.74648 0.0
O58 O 0.75186 0.5286 0.20658 0.0
Tb59 Tb 0.71449 0.57079 0.14379 0.0
Eu60 Eu 0.68299 0.66302 0.24564 0.0
C61 C 0.73568 0.4859 0.21316 0.0
O62 O 0.69494 0.47572 0.18932 0.0
C63 C 0.61677 0.56836 0.20924 0.0
O64 O 0.676 0.72363 0.18309 0.0
C65 C 0.69377 0.6993 0.34533 0.0
C66 C 0.6466 0.75136 0.15522 0.0
O67 O 0.66678 0.78309 0.12261 0.0
C68 C 0.75724 0.66625 0.15001 0.0
C69 C 0.71947 0.74039 0.36749 0.0
C70 C 0.73869 0.73985 0.42324 0.0
C71 C 0.76192 0.77954 0.44453 0.0
C72 C 0.76548 0.81935 0.40972 0.0
C73 C 0.74907 0.81958 0.3536 0.0
C74 C 0.7255 0.78035 0.33257 0.0
O75 O 0.64379 0.55381 0.16837 0.0
O76 O 0.62772 0.60355 0.24314 0.0
O77 O 0.76447 0.54134 0.08487 0.0
O78 O 0.69128 0.54038 0.06426 0.0
C79 C 0.73299 0.52894 0.04764 0.0
O80 O 0.75557 0.66627 0.2057 0.0
O81 O 0.72538 0.6428 0.1224 0.0
O82 O 0.65785 0.7085 0.31123 0.0
O83 O 0.71948 0.66445 0.32801 0.0
H84 H 0.73614 0.70869 0.44954 0.0
H85 H 0.784 0.84975 0.42541 0.0
H86 H 0.71277 0.78071 0.28895 0.0
O87 O 0.54929 0.29016 0.80431 0.0
Tb88 Tb 0.56344 0.32197 0.88593 0.0
Eu89 Eu 0.65156 0.3502 0.78602 0.0
C90 C 0.50794 0.27431 0.78686 0.0
O91 O 0.50481 0.25612 0.73614 0.0
C92 C 0.5681 0.42154 0.82721 0.0
O93 O 0.7072 0.39653 0.82367 0.0
C94 C 0.67911 0.32562 0.68596 0.0
C95 C 0.69801 0.41252 0.87396 0.0
O96 O 0.65878 0.4 0.89851 0.0
C97 C 0.66766 0.29302 0.90298 0.0
C98 C 0.71755 0.29693 0.66345 0.0
C99 C 0.7134 0.2776 0.6089 0.0
C100 C 0.75124 0.25325 0.58576 0.0
C101 C 0.79321 0.24877 0.61717 0.0
C102 C 0.79792 0.26753 0.67157 0.0
C103 C 0.75973 0.29101 0.69496 0.0
O104 O 0.55877 0.39638 0.87308 0.0
O105 O 0.5934 0.40534 0.78486 0.0
O106 O 0.53834 0.27201 0.95049 0.0
O107 O 0.50538 0.33741 0.94193 0.0
C108 C 0.50631 0.29868 0.971 0.0
O109 O 0.67198 0.29152 0.84746 0.0
O110 O 0.63219 0.3146 0.92551 0.0
O111 O 0.69275 0.36413 0.71061 0.0
O112 O 0.64492 0.30392 0.71329 0.0
H113 H 0.68112 0.28172 0.58441 0.0
H114 H 0.82243 0.23024 0.5992 0.0
H115 H 0.76328 0.30549 0.73704 0.0
O116 O 0.82149 0.02339 0.33636 0.0
Tb117 Tb 0.86185 0.06147 0.39959 0.0
Eu118 Eu 0.87038 0.14239 0.28973 0.0
C119 C 0.83801 0.98384 0.31828 0.0
O120 O 0.88109 0.97273 0.33387 0.0
C121 C 0.94525 0.06203 0.31316 0.0
O122 O 0.9271 0.16615 0.34999 0.0
C123 C 0.86303 0.19487 0.19924 0.0
C124 C 0.9246 0.20142 0.3843 0.0
O125 O 0.8875 0.2282 0.38322 0.0
C126 C 0.8066 0.15335 0.39693 0.0
C127 C 0.83283 0.23232 0.17503 0.0
C128 C 0.81003 0.22619 0.12205 0.0
C129 C 0.78259 0.26191 0.09761 0.0
C130 C 0.77805 0.30382 0.12626 0.0
C131 C 0.80048 0.31052 0.17886 0.0
C132 C 0.82793 0.27488 0.20312 0.0
O133 O 0.93301 0.06047 0.367 0.0
O134 O 0.91686 0.0798 0.27353 0.0
O135 O 0.82019 0.02376 0.46295 0.0
O136 O 0.89388 0.02879 0.47559 0.0
C137 C 0.85471 1.0136 0.49736 0.0
O138 O 0.80403 0.15212 0.34115 0.0
O139 O 0.83898 0.1297 0.42433 0.0
O140 O 0.88969 0.20531 0.24343 0.0
O141 O 0.8446 0.15274 0.2026 0.0
H142 H 0.81367 0.19382 0.09974 0.0
H143 H 0.7569 0.33141 0.10751 0.0
H144 H 0.84528 0.28057 0.24371 0.0
O145 O 1.01747 0.25815 0.70541 0.0
Tb146 Tb 0.08036 0.22641 0.67175 0.0
Eu147 Eu 0.17711 0.17424 0.75614 0.0
C148 C 0.98986 0.23689 0.74227 0.0
O149 O 1.00699 0.20391 0.77552 0.0
C150 C 0.07595 0.1223 0.73079 0.0
O151 O 0.22441 0.12302 0.71507 0.0
C152 C 0.20692 0.2079 0.85183 0.0
C153 C 0.20886 0.11071 0.66467 0.0
O154 O 0.16818 0.12669 0.64656 0.0
C155 C 0.18403 0.25435 0.66023 0.0
C156 C 0.24308 0.23694 0.88042 0.0
C157 C 0.23242 0.25663 0.93301 0.0
C158 C 0.26716 0.2803 0.96451 0.0
C159 C 0.31285 0.28463 0.94282 0.0
C160 C 0.32391 0.26601 0.88981 0.0
C161 C 0.28878 0.24227 0.85864 0.0
O162 O 0.06139 0.15455 0.6942 0.0
O163 O 0.11374 0.12647 0.76357 0.0
O164 O 0.04457 0.25641 0.59778 0.0
O165 O 0.08968 0.19948 0.58672 0.0
C166 C 0.06109 0.22805 0.56083 0.0
O167 O 0.20129 0.21524 0.67974 0.0
O168 O 0.14385 0.26904 0.68011 0.0
O169 O 0.22046 0.16754 0.83232 0.0
O170 O 0.17524 0.22899 0.81919 0.0
H171 H 0.19743 0.25241 0.95036 0.0
H172 H 0.33997 0.30218 0.96742 0.0
H173 H 0.29742 0.22695 0.81835 0.0
O174 O 0.27794 0.99169 0.29236 0.0
Tb175 Tb 0.23421 0.98263 0.36715 0.0
Eu176 Eu 0.19265 0.8858 0.28753 0.0
C177 C 0.29726 0.03107 0.27443 0.0
O178 O 0.32243 0.03075 0.22798 0.0
C179 C 0.13302 0.98364 0.30333 0.0
O180 O 0.1501 0.8452 0.35212 0.0
C181 C 0.20046 0.84616 0.19025 0.0
C182 C 0.13276 0.86859 0.39451 0.0
O183 O 0.1414 0.91328 0.39743 0.0
C184 C 0.26001 0.87992 0.39107 0.0
C185 C 0.23097 0.81103 0.16495 0.0
C186 C 0.24745 0.81747 0.10912 0.0
C187 C 0.276 0.78379 0.0846 0.0
C188 C 0.2875 0.7435 0.11585 0.0
C189 C 0.27111 0.73671 0.17128 0.0
C190 C 0.24334 0.77065 0.19599 0.0
O191 O 0.16714 1.00532 0.33113 0.0
O192 O 0.13664 0.94124 0.28367 0.0
O193 O 0.28341 1.01644 0.42671 0.0
O194 O 0.21009 0.02581 0.43552 0.0
C195 C 0.25105 0.03485 0.45774 0.0
O196 O 0.26026 0.87253 0.33641 0.0
O197 O 0.23668 0.91533 0.40989 0.0
O198 O 0.17182 0.83109 0.23029 0.0
O199 O 0.22021 0.88666 0.20137 0.0
H200 H 0.23824 0.8485 0.08489 0.0
H201 H 0.30916 0.71723 0.09686 0.0
H202 H 0.23109 0.76521 0.23908 0.0
O203 O 1.02426 0.80319 0.72933 0.0
Tb204 Tb 0.97097 0.84055 0.67969 0.0
Eu205 Eu 0.87074 0.89237 0.75713 0.0
C206 C 0.0583 0.82485 0.75701 0.0
O207 O 0.04894 0.86389 0.78238 0.0
C208 C 0.97168 0.94591 0.73234 0.0
O209 O 0.80482 0.93508 0.76027 0.0
C210 C 0.86428 0.83333 0.84166 0.0
C211 C 0.78945 0.9621 0.71846 0.0
O212 O 0.75008 0.9848 0.72495 0.0
C213 C 0.86375 0.82779 0.6492 0.0
C214 C 0.82713 0.80463 0.86889 0.0
C215 C 0.8347 0.78743 0.92465 0.0
C216 C 0.79883 0.76314 0.95344 0.0
C217 C 0.75526 0.75626 0.92626 0.0
C218 C 0.74688 0.7732 0.87079 0.0
C219 C 0.78306 0.79737 0.842 0.0
O220 O 0.98926 0.91229 0.70161 0.0
O221 O 0.93125 0.94352 0.75921 0.0
O222 O 1.0082 0.79938 0.61767 0.0
O223 O 0.99091 0.8689 0.59664 0.0
C224 C 1.01042 0.83142 0.57849 0.0
O225 O 0.84873 0.86614 0.67154 0.0
O226 O 0.90182 0.80687 0.66898 0.0
O227 O 0.85931 0.87831 0.84682 0.0
O228 O 0.87851 0.82152 0.79082 0.0
H229 H 0.86828 0.79318 0.94583 0.0
H230 H 0.72764 0.73735 0.94842 0.0
H231 H 0.77671 0.81093 0.79938 0.0
C232 C 0.24455 0.36741 0.08155 0.0
C233 C 0.25875 0.3404 0.12958 0.0
C234 C 0.25977 0.27069 0.07088 0.0
C235 C 0.25653 0.29962 1.02144 0.0
N236 N 0.24085 0.37449 0.97844 0.0
N237 N 0.25932 0.26526 0.17455 0.0
C238 C 0.24665 0.34764 0.02645 0.0
C239 C 0.25924 0.29139 0.12552 0.0
N240 N 0.22706 0.41083 0.08894 0.0
N241 N 0.26622 0.224 0.06531 0.0
H242 H 0.25748 0.28059 0.21439 0.0
H243 H 0.25737 0.22919 0.17618 0.0
H244 H 0.26622 0.20784 0.02599 0.0
H245 H 0.27328 0.20127 0.09907 0.0
H246 H 0.21374 0.43167 0.05606 0.0
H247 H 0.21994 0.42357 0.12908 0.0
H248 H 0.23866 0.41053 0.97856 0.0
H249 H 0.24026 0.36067 0.93772 0.0
C250 C 0.29736 0.75851 0.9296 0.0
C251 C 0.34546 0.77136 0.92728 0.0
C252 C 0.33993 0.81019 1.01868 0.0
C253 C 0.29483 0.78957 0.02608 0.0
N254 N 0.22739 0.74943 0.9876 0.0
N255 N 0.40706 0.82298 0.95665 0.0
C256 C 0.27203 0.76638 0.98046 0.0
C257 C 0.36479 0.80202 0.96771 0.0
N258 N 0.2765 0.73852 0.88341 0.0
N259 N 0.36004 0.83466 0.06205 0.0
H260 H 0.42514 0.81704 0.91909 0.0
H261 H 0.42202 0.8489 0.98142 0.0
H262 H 0.342 0.84222 0.09908 0.0
H263 H 0.39467 0.8466 0.06228 0.0
H264 H 0.2408 0.73062 0.88024 0.0
H265 H 0.29473 0.73291 0.84603 0.0
H266 H 0.21012 0.72784 0.959 0.0
H267 H 0.2077 0.75631 1.02362 0.0
C268 C 0.82095 0.69667 1.01859 0.0
C269 C 0.80603 0.74339 1.01198 0.0
C270 C 0.78371 0.74428 0.11272 0.0
C271 C 0.7898 0.69563 0.11541 0.0
N272 N 0.82978 0.6291 0.08159 0.0
N273 N 0.7785 0.814 0.053 0.0
C274 C 0.81408 0.67321 0.07167 0.0
C275 C 0.79009 0.76827 0.05968 0.0
N276 N 0.83863 0.67411 0.97297 0.0
N277 N 0.77192 0.76706 0.16083 0.0
H278 H 0.78447 0.83256 1.01524 0.0
H279 H 0.76198 0.83329 0.08383 0.0
H280 H 0.76889 0.74982 0.19996 0.0
H281 H 0.76928 0.80295 0.16343 0.0
H282 H 0.84565 0.63875 0.97259 0.0
H283 H 0.84532 0.69092 0.93423 0.0
H284 H 0.84987 0.61049 0.05334 0.0
H285 H 0.82547 0.61251 0.12106 0.0
C286 C 0.77873 0.27144 0.99092 0.0
C287 C 0.75724 0.25613 0.04225 0.0
C288 C 0.68222 0.2458 0.99138 0.0
C289 C 0.70132 0.26916 0.94325 0.0
N290 N 0.77131 0.2857 0.88903 0.0
N291 N 0.68956 0.22602 0.09177 0.0
C292 C 0.75083 0.27608 0.94018 0.0
C293 C 0.70947 0.24154 0.04226 0.0
N294 N 0.82524 0.28401 0.99174 0.0
N295 N 0.63839 0.22622 0.98711 0.0
H296 H 0.70901 0.22058 0.12915 0.0
H297 H 0.65359 0.22053 0.0967 0.0
H298 H 0.61948 0.22642 0.94879 0.0
H299 H 0.62308 0.20567 1.01877 0.0
H300 H 0.84225 0.30065 0.9581 0.0
H301 H 0.84678 0.27938 0.02758 0.0
H302 H 0.8075 0.28707 0.88301 0.0
H303 H 0.75257 0.28811 0.85095 0.0
C304 C 0.75092 0.15736 0.47753 0.0
C305 C 0.77391 0.18086 0.43213 0.0
C306 C 0.76391 0.25522 0.47983 0.0
C307 C 0.74815 0.23068 0.52907 0.0
N308 N 0.72089 0.15995 0.57392 0.0
N309 N 0.7871 0.25246 0.38053 0.0
C310 C 0.73879 0.18224 0.52705 0.0
C311 C 0.77514 0.23007 0.42998 0.0
N312 N 0.74096 0.11108 0.47251 0.0
N313 N 0.77087 0.30216 0.48229 0.0
H314 H 0.7944 0.23472 0.34349 0.0
H315 H 0.78612 0.28828 0.37446 0.0
H316 H 0.7613 0.32141 0.51744 0.0
H317 H 0.78725 0.32198 0.45077 0.0
H318 H 0.72253 0.09123 0.50226 0.0
H319 H 0.74839 0.09308 0.43555 0.0
H320 H 0.71738 0.12413 0.57836 0.0
H321 H 0.71 0.17776 0.60965 0.0
C322 C 0.2585 0.27223 0.60767 0.0
C323 C 0.2088 0.27647 0.61015 0.0
C324 C 0.20555 0.288 0.50632 0.0
C325 C 0.25413 0.27711 0.50316 0.0
N326 N 0.32799 0.26069 0.55031 0.0
N327 N 0.14043 0.31061 0.56527 0.0
C328 C 0.28118 0.27075 0.55386 0.0
C329 C 0.18375 0.29114 0.56054 0.0
N330 N 0.2838 0.27102 0.65746 0.0
N331 N 0.17969 0.29336 0.45733 0.0
H332 H 0.1254 0.31755 0.60426 0.0
H333 H 0.12244 0.32602 0.5312 0.0
H334 H 0.19473 0.29335 0.41709 0.0
H335 H 0.14309 0.29497 0.45641 0.0
H336 H 0.32035 0.2711 0.66003 0.0
H337 H 0.26776 0.27448 0.69686 0.0
H338 H 0.34897 0.25073 0.58484 0.0
H339 H 0.34583 0.26006 0.51185 0.0
C340 C 0.30657 0.86484 0.47981 0.0
C341 C 0.27988 0.84622 0.43404 0.0
C342 C 0.27315 0.7721 0.48746 0.0
C343 C 0.29161 0.794 0.53653 0.0
N344 N 0.32609 0.86129 0.58046 0.0
N345 N 0.23752 0.78103 0.39388 0.0
C346 C 0.30905 0.84022 0.53275 0.0
C347 C 0.2641 0.79911 0.43705 0.0
N348 N 0.32975 0.90621 0.47217 0.0
N349 N 0.26383 0.72548 0.48939 0.0
H350 H 0.23174 0.79807 0.35517 0.0
H351 H 0.21919 0.74968 0.39722 0.0
H352 H 0.26916 0.70517 0.52601 0.0
H353 H 0.25489 0.70622 0.45375 0.0
H354 H 0.35295 0.92021 0.502 0.0
H355 H 0.32935 0.92429 0.43332 0.0
H356 H 0.33352 0.89669 0.58245 0.0
H357 H 0.33047 0.84369 0.61928 0.0
C358 C 0.79137 0.79118 0.60354 0.0
C359 C 0.83797 0.80902 0.59882 0.0
C360 C 0.83716 0.79036 0.49787 0.0
C361 C 0.7884 0.77995 0.49996 0.0
N362 N 0.71732 0.77478 0.55476 0.0
N363 N 0.89772 0.83962 0.53668 0.0
C364 C 0.76495 0.78096 0.553 0.0
C365 C 0.85921 0.81191 0.54478 0.0
N366 N 0.77241 0.78416 0.65608 0.0
N367 N 0.86191 0.78141 0.44994 0.0
H368 H 0.91036 0.86119 0.56849 0.0
H369 H 0.91203 0.84643 0.49678 0.0
H370 H 0.84679 0.76477 0.41504 0.0
H371 H 0.89815 0.78638 0.44736 0.0
H372 H 0.74024 0.76743 0.66263 0.0
H373 H 0.79077 0.79179 0.69349 0.0
H374 H 0.69757 0.78034 0.59099 0.0
H375 H 0.69711 0.76696 0.51886 0.0
C376 C 0.50649 0.32427 0.07171 0.0
C377 C 0.48773 0.29465 0.02926 0.0
C378 C 0.41803 0.28109 0.08657 0.0
C379 C 0.43069 0.32064 0.1179 0.0
N380 N 0.49398 0.36017 0.16352 0.0
N381 N 0.43361 0.23385 1.00399 0.0
C382 C 0.47805 0.33469 0.11898 0.0
C383 C 0.44637 0.26849 0.0399 0.0
N384 N 0.54992 0.34408 0.06489 0.0
N385 N 0.37719 0.2586 0.0997 0.0
H386 H 0.45568 0.22356 0.97145 0.0
H387 H 0.40237 0.21496 1.007 0.0
H388 H 0.35734 0.26901 0.13421 0.0
H389 H 0.36481 0.22905 0.07939 0.0
H390 H 0.56379 0.36942 0.09145 0.0
H391 H 0.57191 0.33517 0.03162 0.0
H392 H 0.5288 0.3709 0.16884 0.0
H393 H 0.47176 0.36742 0.19719 0.0
C394 C 0.28043 0.55458 1.00643 0.0
C395 C 0.30438 0.51188 1.01254 0.0
C396 C 0.34744 0.52815 0.92519 0.0
C397 C 0.33182 0.5748 0.92714 0.0
N398 N 0.28145 0.63264 0.96639 0.0
N399 N 0.34078 0.44943 0.96349 0.0
C400 C 0.29668 0.58782 0.96585 0.0
C401 C 0.33168 0.49574 0.96717 0.0
N402 N 0.24148 0.56243 0.03817 0.0
N403 N 0.37906 0.51575 0.88492 0.0
H404 H 0.32578 0.42506 0.99125 0.0
H405 H 0.35829 0.43457 0.92984 0.0
H406 H 0.38908 0.53814 0.85178 0.0
H407 H 0.39647 0.48411 0.88513 0.0
H408 H 0.22066 0.59184 0.03349 0.0
H409 H 0.22672 0.53654 0.0641 0.0
H410 H 0.26053 0.64588 0.99823 0.0
H411 H 0.29193 0.65728 0.9361 0.0
C412 C 0.53109 0.77544 0.08836 0.0
C413 C 0.52139 0.72854 0.07502 0.0
C414 C 0.57029 0.70441 0.15584 0.0
C415 C 0.59415 0.74724 0.1508 0.0
N416 N 0.58354 0.82933 0.13715 0.0
N417 N 0.51121 0.65215 0.11587 0.0
C418 C 0.56939 0.78503 0.12573 0.0
C419 C 0.53429 0.69379 0.1153 0.0
N420 N 0.50274 0.80971 0.06714 0.0
N421 N 0.57796 0.67764 0.2028 0.0
H422 H 0.4816 0.64606 0.09037 0.0
H423 H 0.51965 0.62502 0.14366 0.0
H424 H 0.60139 0.68859 0.23424 0.0
H425 H 0.55657 0.64954 0.21404 0.0
H426 H 0.50707 0.84478 0.07583 0.0
H427 H 0.47143 0.80192 0.04569 0.0
H428 H 0.57033 0.85878 0.11658 0.0
H429 H 0.609 0.83605 0.16843 0.0
C430 C 0.75865 0.43431 0.94389 0.0
C431 C 0.72677 0.44861 0.90091 0.0
C432 C 0.72132 0.52464 0.94374 0.0
C433 C 0.74199 0.50564 0.99384 0.0
N434 N 0.78412 0.44329 0.04161 0.0
N435 N 0.68132 0.50846 0.85457 0.0
C436 C 0.76321 0.46122 0.99356 0.0
C437 C 0.71027 0.4947 0.89833 0.0
N438 N 0.78323 0.39441 0.93728 0.0
N439 N 0.71208 0.57105 0.94026 0.0
H440 H 0.67432 0.48728 0.81983 0.0
H441 H 0.66311 0.53969 0.85381 0.0
H442 H 0.72071 0.59359 0.97317 0.0
H443 H 0.7006 0.58766 0.90309 0.0
H444 H 0.80955 0.3832 0.96532 0.0
H445 H 0.78038 0.37566 0.89984 0.0
H446 H 0.7949 0.40891 0.04566 0.0
H447 H 0.78873 0.4621 0.07867 0.0
C448 C 0.97996 0.17068 0.45955 0.0
C449 C 0.96337 0.20883 0.42602 0.0
C450 C 1.01965 0.25951 0.47482 0.0
C451 C 0.03769 0.22065 0.50513 0.0
N452 N 0.04707 0.13727 0.50807 0.0
N453 N 0.97629 0.28736 0.39154 0.0
C454 C 1.0221 0.17552 0.49131 0.0
C455 C 0.98589 0.25284 0.4304 0.0
N456 N 0.95461 0.13035 0.46339 0.0
N457 N 0.03443 0.30246 0.49088 0.0
H458 H 0.9525 0.28317 0.3579 0.0
H459 H 0.99527 0.3184 0.38919 0.0
H460 H 1.02092 0.33353 0.47449 0.0
H461 H 1.02092 0.33353 0.47449 0.0
H462 H 0.96318 0.10343 0.49174 0.0
H463 H 0.92257 0.12568 0.44267 0.0
H464 H 0.03727 0.10362 0.49709 0.0
H465 H 0.08101 0.13934 0.52494 0.0
C466 C 0.2208 0.03823 0.61192 0.0
C467 C 0.23677 0.08347 0.62503 0.0
C468 C 0.27784 0.08966 0.53422 0.0
C469 C 0.25667 0.04713 0.51838 0.0
N470 N 0.22432 0.97322 0.54795 0.0
N471 N 0.28998 0.14728 0.60771 0.0
C472 C 0.2336 1.01875 0.55943 0.0
C473 C 0.26911 0.10729 0.5893 0.0
N474 N 0.19115 1.01528 0.64832 0.0
N475 N 0.30437 0.11369 0.49565 0.0
H476 H 0.2838 0.16045 0.64794 0.0
H477 H 0.31572 0.16554 0.5854 0.0
H478 H 0.31315 0.09923 0.45702 0.0
H479 H 0.31751 0.14711 0.50143 0.0
H480 H 0.17321 0.98478 0.63827 0.0
H481 H 0.18326 0.02807 0.68834 0.0
H482 H 0.2108 0.94955 0.57758 0.0
H483 H 0.23473 0.95804 0.51022 0.0
C484 C 0.06147 0.82543 0.43122 0.0
C485 C 0.10622 0.84613 0.44127 0.0
C486 C 0.08995 0.85099 0.5427 0.0
C487 C 0.04489 0.83142 0.53252 0.0
N488 N 0.99343 0.78666 0.47248 0.0
N489 N 0.16863 0.86315 0.50784 0.0
C490 C 0.03251 0.81407 0.47845 0.0
C491 C 0.1222 0.85392 0.49759 0.0
N492 N 0.0454 0.81935 0.37689 0.0
N493 N 0.10156 0.86787 0.59504 0.0
H494 H 0.19308 0.8628 0.47551 0.0
H495 H 0.18354 0.86565 0.54831 0.0
H496 H 0.0798 0.8642 0.63023 0.0
H497 H 0.13153 0.88796 0.60276 0.0
H498 H 1.01091 0.80959 0.36711 0.0
H499 H 0.06578 0.82674 0.34127 0.0
H500 H 0.98494 0.76945 0.43511 0.0
H501 H 0.97211 0.77759 0.50681 0.0
C502 C 0.86466 1.01756 0.60418 0.0
C503 C 0.84804 0.99357 0.55535 0.0
C504 C 0.79817 0.94374 0.61544 0.0
C505 C 0.81483 0.96751 0.66409 0.0
N506 N 0.87094 1.01956 0.70718 0.0
N507 N 0.81002 0.92608 0.51619 0.0
C508 C 0.85086 1.00159 0.65918 0.0
C509 C 0.81829 0.95409 0.56163 0.0
N510 N 0.89031 0.0577 0.5982 0.0
N511 N 0.7624 0.91195 0.62056 0.0
H512 H 0.8254 0.93216 0.47666 0.0
H513 H 0.79198 0.89453 0.51907 0.0
H514 H 0.74872 0.90157 0.65979 0.0
H515 H 0.74493 0.89737 0.58595 0.0
H516 H 0.89863 0.07945 0.63176 0.0
H517 H 0.9007 0.07158 0.55921 0.0
H518 H 0.90075 0.04084 0.70683 0.0
H519 H 0.86034 1.00974 0.74798 0.0
C520 C 0.50779 0.49665 0.16898 0.0
C521 C 0.48496 0.48974 0.22192 0.0
C522 C 0.55124 0.53045 0.26873 0.0
C523 C 0.57011 0.54336 0.21484 0.0
N524 N 0.55697 0.54758 0.11268 0.0
N525 N 0.4811 0.50937 0.32119 0.0
C526 C 0.54568 0.52897 0.1647 0.0
C527 C 0.50557 0.50929 0.27159 0.0
N528 N 0.49467 0.47122 0.1228 0.0
N529 N 0.57756 0.53576 0.31715 0.0
H530 H 0.44712 0.49584 0.3248 0.0
H531 H 0.49271 0.52721 0.35696 0.0
H532 H 0.61209 0.54815 0.31707 0.0
H533 H 0.56697 0.52279 0.35665 0.0
H534 H 0.51358 0.47168 0.08507 0.0
H535 H 0.46855 0.44564 0.12404 0.0
H536 H 0.53735 0.54105 0.07591 0.0
H537 H 0.58127 0.57456 0.10727 0.0
C538 C 0.51554 0.53967 0.77667 0.0
C539 C 0.50425 0.55955 0.82989 0.0
C540 C 0.54601 0.49513 0.87716 0.0
C541 C 0.54919 0.47057 0.82544 0.0
N542 N 0.52572 0.4679 0.72614 0.0
N543 N 0.49596 0.5437 0.93121 0.0
C544 C 0.5309 0.49236 0.775 0.0
C545 C 0.51572 0.53369 0.88027 0.0
N546 N 0.51369 0.56592 0.72788 0.0
N547 N 0.57284 0.48299 0.92348 0.0
H548 H 0.46945 0.56796 0.93555 0.0
H549 H 0.50124 0.52307 0.9676 0.0
H550 H 0.59864 0.45769 0.92234 0.0
H551 H 0.57369 0.50252 0.96045 0.0
H552 H 0.52531 0.55379 0.68902 0.0
H553 H 0.50614 0.60125 0.72742 0.0
H554 H 0.50876 0.48146 0.69007 0.0
H555 H 0.53321 0.4327 0.72355 0.0
C556 C 1.00631 1.01595 0.25736 0.0
C557 C 0.99474 0.04781 0.3004 0.0
C558 C 0.07108 0.03429 0.34575 0.0
C559 C 0.08575 1.00663 0.3 0.0
N560 N 0.06951 0.98211 0.20368 0.0
N561 N 1.02704 0.10183 0.36777 0.0
C562 C 0.05404 1.00063 0.25299 0.0
C563 C 0.03067 0.06168 0.33875 0.0
N564 N 0.9721 0.999 0.22207 0.0
N565 N 0.09288 0.03221 0.39779 0.0
H566 H 0.9998 0.12481 0.35945 0.0
H567 H 0.05463 0.11482 0.39265 0.0
H568 H 0.11776 1.00723 0.40892 0.0
H569 H 0.08078 0.05068 0.43239 0.0
H570 H 0.97801 0.9721 0.19402 0.0
H571 H 0.93714 1.00938 0.22394 0.0
H572 H 0.04862 0.98034 0.16705 0.0
H573 H 0.10465 0.97376 0.19731 0.0
C574 C 0.03293 0.05732 0.78428 0.0
C575 C 0.04903 0.07711 0.73213 0.0
C576 C 1.00886 1.01407 0.68069 0.0
C577 C 0.99807 0.99121 0.73295 0.0
N578 N 1.00689 0.98776 0.83498 0.0
N579 N 0.06064 0.06744 0.6312 0.0
C580 C 1.01201 1.01196 0.78496 0.0
C581 C 0.03927 0.05358 0.68046 0.0
N582 N 0.03567 0.08253 0.83288 0.0
N583 N 0.98847 0.99941 0.63113 0.0
H584 H 0.08433 0.09512 0.62874 0.0
H585 H 0.05871 0.04835 0.594 0.0
H586 H 0.96461 0.97176 0.62931 0.0
H587 H 0.99115 1.01792 0.59283 0.0
H588 H 1.02018 0.07184 0.87087 0.0
H589 H 0.04929 0.11625 0.83385 0.0
H590 H 1.02084 0.99907 0.87353 0.0
H591 H 0.9926 0.95431 0.83711 0.0
C592 C 0.25298 0.10306 0.29962 0.0
C593 C 0.29389 0.07533 0.30576 0.0
C594 C 0.33438 0.13812 0.35708 0.0
C595 C 0.29419 0.16658 0.34896 0.0
N596 N 0.21657 0.17875 0.3098 0.0
N597 N 0.37437 0.06615 0.33685 0.0
C598 C 0.25358 0.14955 0.31999 0.0
C599 C 0.33478 0.09283 0.33366 0.0
N600 N 0.21404 0.08511 0.27296 0.0
N601 N 0.3713 0.15373 0.38967 0.0
H602 H 0.37488 0.03157 0.32437 0.0
H603 H 0.4073 0.0784 0.3496 0.0
H604 H 0.37223 0.18646 0.40793 0.0
H605 H 0.39957 0.13333 0.4027 0.0
H606 H 0.18136 0.10103 0.27121 0.0
H607 H 0.21374 0.05258 0.25417 0.0
H608 H 0.18713 0.17055 0.28524 0.0
H609 H 0.21612 0.21291 0.3238 0.0
C610 C 0.16021 0.74465 0.72477 0.0
C611 C 0.19702 0.77677 0.71247 0.0
C612 C 0.14488 0.84129 0.73478 0.0
C613 C 0.10814 0.80914 0.74934 0.0
N614 N 0.08725 0.73019 0.77474 0.0
N615 N 0.22884 0.85373 0.72422 0.0
C616 C 0.11795 0.76076 0.74968 0.0
C617 C 0.19079 0.8244 0.72414 0.0
N618 N 0.16437 0.69921 0.7101 0.0
N619 N 0.13581 0.88742 0.72585 0.0
H620 H 0.26294 0.84228 0.71683 0.0
H621 H 0.2272 0.88796 0.73768 0.0
H622 H 0.10254 0.90196 0.72724 0.0
H623 H 0.16069 0.91073 0.70963 0.0
H624 H 0.13651 0.67551 0.71216 0.0
H625 H 0.19451 0.686 0.69169 0.0
H626 H 0.09447 0.69501 0.78062 0.0
H627 H 0.05703 0.74096 0.79536 0.0
C628 C 0.80481 0.86166 0.28892 0.0
C629 C 0.76105 0.86076 0.3174 0.0
C630 C 0.75757 0.94569 0.3103 0.0
C631 C 0.80597 0.94628 0.29662 0.0
N632 N 0.86615 0.90877 0.24434 0.0
N633 N 0.6919 0.90042 0.34766 0.0
C634 C 0.82636 0.90529 0.27608 0.0
C635 C 0.73564 0.90241 0.32434 0.0
N636 N 0.82729 0.82096 0.2787 0.0
N637 N 0.73266 0.98595 0.30785 0.0
H638 H 0.67462 0.8689 0.35579 0.0
H639 H 0.67358 0.92951 0.36046 0.0
H640 H 0.74716 1.01669 0.29149 0.0
H641 H 0.69659 0.98765 0.31462 0.0
H642 H 0.86165 0.81907 0.26418 0.0
H643 H 0.81167 0.78861 0.28642 0.0
H644 H 0.88182 0.88082 0.22473 0.0
H645 H 0.88059 0.94106 0.23312 0.0
C646 C 0.90644 0.20668 0.72784 0.0
C647 C 0.93804 0.2446 0.7372 0.0
C648 C 0.87508 0.29919 0.71073 0.0
C649 C 0.84345 0.2613 0.70316 0.0
N650 N 0.82512 0.1808 0.72179 0.0
N651 N 0.94835 0.3265 0.75292 0.0
C652 C 0.85789 0.21569 0.718 0.0
C653 C 0.9209 0.29076 0.73374 0.0
N654 N 0.92281 0.1624 0.72319 0.0
N655 N 0.86256 0.34283 0.69299 0.0
H656 H 0.98163 0.32124 0.77103 0.0
H657 H 0.93626 0.36037 0.75631 0.0
H658 H 0.82951 0.35057 0.67588 0.0
H659 H 0.88615 0.37069 0.69134 0.0
H660 H 0.90154 0.13467 0.71079 0.0
H661 H 0.95819 0.1536 0.72568 0.0
H662 H 0.83288 0.14767 0.73755 0.0
H663 H 0.78927 0.1865 0.71486 0.0
C664 C 0.75832 0.36179 0.24659 0.0
C665 C 0.79516 0.35591 0.20723 0.0
C666 C 0.80966 0.43996 0.20548 0.0
C667 C 0.76571 0.44614 0.2318 0.0
N668 N 0.70491 0.41556 0.29158 0.0
N669 N 0.85924 0.38815 0.15279 0.0
C670 C 0.74286 0.40761 0.25811 0.0
C671 C 0.82251 0.39463 0.18868 0.0
N672 N 0.73728 0.32358 0.2708 0.0
N673 N 0.83894 0.47715 0.19699 0.0
H674 H 0.87081 0.35522 0.14188 0.0
H675 H 0.87674 0.41521 0.13184 0.0
H676 H 0.83179 0.50971 0.21328 0.0
H677 H 0.8727 0.47455 0.18073 0.0
H678 H 0.71129 0.32484 0.30142 0.0
H679 H 0.7477 0.28982 0.26218 0.0
H680 H 0.6835 0.3898 0.30919 0.0
H681 H 0.69512 0.44924 0.30193 0.0
C682 C 0.44647 0.23064 0.84196 0.0
C683 C 0.46515 0.27398 0.82283 0.0
C684 C 0.39185 0.31269 0.84911 0.0
C685 C 0.37321 0.26926 0.86836 0.0
N686 N 0.38519 0.18861 0.89298 0.0
N687 N 0.45932 0.3571 0.81478 0.0
C688 C 0.40124 0.22868 0.86747 0.0
C689 C 0.43907 0.31536 0.82903 0.0
N690 N 0.47189 0.19111 0.83469 0.0
N691 N 0.36344 0.35081 0.84703 0.0
H692 H 0.49267 0.35982 0.79704 0.0
H693 H 0.4448 0.38914 0.82385 0.0
H694 H 0.32866 0.35011 0.86067 0.0
H695 H 0.37288 0.3825 0.82843 0.0
H696 H 0.45831 0.1577 0.84028 0.0
H697 H 0.50658 0.19161 0.82062 0.0
H698 H 0.40548 0.15903 0.89918 0.0
H699 H 0.35265 0.18597 0.91284 0.0
C700 C 0.25034 0.65543 0.20292 0.0
C701 C 0.28278 0.69314 0.20269 0.0
C702 C 0.34385 0.64288 0.24369 0.0
C703 C 0.31301 0.60432 0.23699 0.0
N704 N 0.2322 0.57843 0.23995 0.0
N705 N 0.35526 0.72671 0.23721 0.0
C706 C 0.26454 0.61199 0.22645 0.0
C707 C 0.32789 0.68819 0.2284 0.0
N708 N 0.2069 0.66039 0.17816 0.0
N709 N 0.38877 0.63532 0.26275 0.0
H710 H 0.34405 0.76012 0.2262 0.0
H711 H 0.38747 0.72627 0.25863 0.0
H712 H 0.39946 0.60274 0.27794 0.0
H713 H 0.41524 0.66049 0.26322 0.0
H714 H 0.18413 0.63251 0.17089 0.0
H715 H 0.1948 0.69193 0.16146 0.0
H716 H 0.19602 0.58333 0.23615 0.0
H717 H 0.24123 0.54846 0.26281 0.0
C718 C 0.63951 0.70395 0.82733 0.0
C719 C 0.60438 0.73894 0.82248 0.0
C720 C 0.66501 0.79869 0.84053 0.0
C721 C 0.69988 0.76372 0.84391 0.0
N722 N 0.7226 0.68561 0.82352 0.0
N723 N 0.58605 0.81999 0.80986 0.0
C724 C 0.68777 0.71725 0.83104 0.0
C725 C 0.61799 0.7865 0.8243 0.0
N726 N 0.62712 0.65816 0.83361 0.0
N727 N 0.67615 0.84309 0.85557 0.0
H728 H 0.55173 0.81206 0.79685 0.0
H729 H 0.59483 0.85503 0.80533 0.0
H730 H 0.71024 0.85348 0.86659 0.0
H731 H 0.65113 0.86885 0.8606 0.0
H732 H 0.65133 0.63203 0.84223 0.0
H733 H 0.5926 0.64618 0.83642 0.0
H734 H 0.71627 0.65221 0.80877 0.0
H735 H 0.75824 0.69448 0.8263 0.0
loop_
_geom_bond_atom_site_label_1
_geom_bond_atom_site_label_2
_geom_bond_distance
_geom_bond_site_symmetry_2
_ccdc_geom_bond_type
O0 Tb1 2.292 . S
O0 C3 1.255 . S
Tb1 O0 2.292 . S
Tb1 O17 2.326 . S
Tb1 O19 2.500 . S
Tb1 O20 2.473 . S
Tb1 O23 2.324 . S
Eu2 O6 2.292 . S
Eu2 C7 2.852 . S
Eu2 O18 2.324 . S
Eu2 O22 2.326 . S
Eu2 O24 2.500 . S
Eu2 O25 2.473 . S
C3 O0 1.255 . S
C3 O4 1.247 . S
O4 C3 1.247 . S
C5 O17 1.242 . S
C5 O18 1.258 . S
O6 Eu2 2.292 . S
O6 C8 1.255 . S
C7 Eu2 2.852 . S
C7 C11 1.503 . S
C7 O24 1.273 . S
C7 O25 1.257 . S
C8 O6 1.255 . S
C8 O9 1.247 1_554 S
O9 C8 1.247 1_556 S
C10 O22 1.242 . S
C10 O23 1.258 . S
C11 C7 1.503 . S
C11 C12 1.379 . S
C11 C16 1.392 . S
C12 C11 1.379 . S
C12 C13 1.404 . S
C12 H26 0.929 . S
C13 C12 1.404 . S
C13 C14 1.389 . S
C14 C13 1.389 . S
C14 C15 1.399 . S
C14 H27 0.931 . S
C15 C14 1.399 . S
C15 C16 1.390 . S
C16 C11 1.392 . S
C16 C15 1.390 . S
C16 H28 0.929 . S
O17 Tb1 2.326 . S
O17 C5 1.242 . S
O18 Eu2 2.324 . S
O18 C5 1.258 . S
O19 Tb1 2.500 . S
O19 C21 1.273 . S
O20 Tb1 2.473 . S
O20 C21 1.257 . S
C21 O19 1.273 . S
C21 O20 1.257 . S
O22 Eu2 2.326 . S
O22 C10 1.242 . S
O23 Tb1 2.324 . S
O23 C10 1.258 . S
O24 Eu2 2.500 . S
O24 C7 1.273 . S
O25 Eu2 2.473 . S
O25 C7 1.257 . S
H26 C12 0.929 . S
H27 C14 0.931 . S
H28 C16 0.929 . S
O29 Tb30 2.292 . S
O29 C32 1.255 . S
Tb30 O29 2.292 . S
Tb30 O46 2.326 . S
Tb30 O48 2.500 . S
Tb30 O49 2.473 . S
Tb30 O52 2.324 . S
Eu31 O35 2.292 . S
Eu31 C36 2.852 . S
Eu31 O47 2.324 . S
Eu31 O51 2.326 . S
Eu31 O53 2.500 . S
Eu31 O54 2.473 . S
C32 O29 1.255 . S
C32 O33 1.247 . S
O33 C32 1.247 . S
C34 O46 1.242 . S
C34 O47 1.258 . S
O35 Eu31 2.292 . S
O35 C37 1.255 . S
C36 Eu31 2.852 . S
C36 C40 1.503 . S
C36 O53 1.273 . S
C36 O54 1.257 . S
C37 O35 1.255 . S
C37 O38 1.247 1_556 S
O38 C37 1.247 1_554 S
C39 O51 1.242 . S
C39 O52 1.258 . S
C40 C36 1.503 . S
C40 C41 1.379 . S
C40 C45 1.392 . S
C41 C40 1.379 . S
C41 C42 1.404 . S
C41 H55 0.929 . S
C42 C41 1.404 . S
C42 C43 1.389 . S
C43 C42 1.389 . S
C43 C44 1.399 . S
C43 H56 0.931 . S
C44 C43 1.399 . S
C44 C45 1.390 . S
C45 C40 1.392 . S
C45 C44 1.390 . S
C45 H57 0.929 . S
O46 Tb30 2.326 . S
O46 C34 1.242 . S
O47 Eu31 2.324 . S
O47 C34 1.258 . S
O48 Tb30 2.500 . S
O48 C50 1.273 . S
O49 Tb30 2.473 . S
O49 C50 1.257 . S
C50 O48 1.273 . S
C50 O49 1.257 . S
O51 Eu31 2.326 . S
O51 C39 1.242 . S
O52 Tb30 2.324 . S
O52 C39 1.258 . S
O53 Eu31 2.500 . S
O53 C36 1.273 . S
O54 Eu31 2.473 . S
O54 C36 1.257 . S
H55 C41 0.929 . S
H56 C43 0.931 . S
H57 C45 0.929 . S
O58 Tb59 2.292 . S
O58 C61 1.255 . S
Tb59 O58 2.292 . S
Tb59 O75 2.326 . S
Tb59 O77 2.500 . S
Tb59 O78 2.473 . S
Tb59 O81 2.324 . S
Eu60 O64 2.292 . S
Eu60 C65 2.852 . S
Eu60 O76 2.324 . S
Eu60 O80 2.326 . S
Eu60 O82 2.500 . S
Eu60 O83 2.473 . S
C61 O58 1.255 . S
C61 O62 1.247 . S
O62 C61 1.247 . S
C63 O75 1.242 . S
C63 O76 1.258 . S
O64 Eu60 2.292 . S
O64 C66 1.255 . S
C65 Eu60 2.852 . S
C65 C69 1.503 . S
C65 O82 1.273 . S
C65 O83 1.257 . S
C66 O64 1.255 . S
C66 O67 1.247 1_554 S
O67 C66 1.247 1_556 S
C68 O80 1.242 . S
C68 O81 1.258 . S
C69 C65 1.503 . S
C69 C70 1.379 . S
C69 C74 1.392 . S
C70 C69 1.379 . S
C70 C71 1.404 . S
C70 H84 0.929 . S
C71 C70 1.404 . S
C71 C72 1.389 . S
C72 C71 1.389 . S
C72 C73 1.399 . S
C72 H85 0.931 . S
C73 C72 1.399 . S
C73 C74 1.390 . S
C74 C69 1.392 . S
C74 C73 1.390 . S
C74 H86 0.929 . S
O75 Tb59 2.326 . S
O75 C63 1.242 . S
O76 Eu60 2.324 . S
O76 C63 1.258 . S
O77 Tb59 2.500 . S
O77 C79 1.273 . S
O78 Tb59 2.473 . S
O78 C79 1.257 . S
C79 O77 1.273 . S
C79 O78 1.257 . S
O80 Eu60 2.326 . S
O80 C68 1.242 . S
O81 Tb59 2.324 . S
O81 C68 1.258 . S
O82 Eu60 2.500 . S
O82 C65 1.273 . S
O83 Eu60 2.473 . S
O83 C65 1.257 . S
H84 C70 0.929 . S
H85 C72 0.931 . S
H86 C74 0.929 . S
O87 Tb88 2.292 . S
O87 C90 1.255 . S
Tb88 O87 2.292 . S
Tb88 O104 2.326 . S
Tb88 O106 2.500 . S
Tb88 O107 2.473 . S
Tb88 O110 2.324 . S
Eu89 O93 2.292 . S
Eu89 C94 2.852 . S
Eu89 O105 2.324 . S
Eu89 O109 2.326 . S
Eu89 O111 2.500 . S
Eu89 O112 2.473 . S
C90 O87 1.255 . S
C90 O91 1.247 . S
O91 C90 1.247 . S
C92 O104 1.242 . S
C92 O105 1.258 . S
O93 Eu89 2.292 . S
O93 C95 1.255 . S
C94 Eu89 2.852 . S
C94 C98 1.503 . S
C94 O111 1.273 . S
C94 O112 1.257 . S
C95 O93 1.255 . S
C95 O96 1.247 1_556 S
O96 C95 1.247 1_554 S
C97 O109 1.242 . S
C97 O110 1.258 . S
C98 C94 1.503 . S
C98 C99 1.379 . S
C98 C103 1.392 . S
C99 C98 1.379 . S
C99 C100 1.404 . S
C99 H113 0.929 . S
C100 C99 1.404 . S
C100 C101 1.389 . S
C101 C100 1.389 . S
C101 C102 1.399 . S
C101 H114 0.931 . S
C102 C101 1.399 . S
C102 C103 1.390 . S
C103 C98 1.392 . S
C103 C102 1.390 . S
C103 H115 0.929 . S
O104 Tb88 2.326 . S
O104 C92 1.242 . S
O105 Eu89 2.324 . S
O105 C92 1.258 . S
O106 Tb88 2.500 . S
O106 C108 1.273 . S
O107 Tb88 2.473 . S
O107 C108 1.257 . S
C108 O106 1.273 . S
C108 O107 1.257 . S
O109 Eu89 2.326 . S
O109 C97 1.242 . S
O110 Tb88 2.324 . S
O110 C97 1.258 . S
O111 Eu89 2.500 . S
O111 C94 1.273 . S
O112 Eu89 2.473 . S
O112 C94 1.257 . S
H113 C99 0.929 . S
H114 C101 0.931 . S
H115 C103 0.929 . S
O116 Tb117 2.292 1_565 S
O116 C119 1.255 . S
Tb117 O116 2.292 1_545 S
Tb117 O133 2.326 . S
Tb117 O135 2.500 1_545 S
Tb117 O136 2.473 . S
Tb117 O139 2.324 . S
Eu118 O122 2.292 . S
Eu118 C123 2.852 . S
Eu118 O134 2.324 . S
Eu118 O138 2.326 . S
Eu118 O140 2.500 . S
Eu118 O141 2.473 . S
C119 O116 1.255 . S
C119 O120 1.247 . S
O120 C119 1.247 . S
C121 O133 1.242 . S
C121 O134 1.258 . S
O122 Eu118 2.292 . S
O122 C124 1.255 . S
C123 Eu118 2.852 . S
C123 C127 1.503 . S
C123 O140 1.273 . S
C123 O141 1.257 . S
C124 O122 1.255 . S
C124 O125 1.247 . S
O125 C124 1.247 . S
C126 O138 1.242 . S
C126 O139 1.258 . S
C127 C123 1.503 . S
C127 C128 1.379 . S
C127 C132 1.392 . S
C128 C127 1.379 . S
C128 C129 1.404 . S
C128 H142 0.929 . S
C129 C128 1.404 . S
C129 C130 1.389 . S
C130 C129 1.389 . S
C130 C131 1.399 . S
C130 H143 0.931 . S
C131 C130 1.399 . S
C131 C132 1.390 . S
C132 C127 1.392 . S
C132 C131 1.390 . S
C132 H144 0.929 . S
O133 Tb117 2.326 . S
O133 C121 1.242 . S
O134 Eu118 2.324 . S
O134 C121 1.258 . S
O135 Tb117 2.500 1_565 S
O135 C137 1.273 . S
O136 Tb117 2.473 . S
O136 C137 1.257 1_545 S
C137 O135 1.273 . S
C137 O136 1.257 1_565 S
O138 Eu118 2.326 . S
O138 C126 1.242 . S
O139 Tb117 2.324 . S
O139 C126 1.258 . S
O140 Eu118 2.500 . S
O140 C123 1.273 . S
O141 Eu118 2.473 . S
O141 C123 1.257 . S
H142 C128 0.929 . S
H143 C130 0.931 . S
H144 C132 0.929 . S
O145 Tb146 2.292 1_655 S
O145 C148 1.255 . S
Tb146 O145 2.292 1_455 S
Tb146 O162 2.326 . S
Tb146 O164 2.500 1_455 S
Tb146 O165 2.473 . S
Tb146 O168 2.324 . S
Eu147 O151 2.292 . S
Eu147 C152 2.852 . S
Eu147 O163 2.324 . S
Eu147 O167 2.326 . S
Eu147 O169 2.500 . S
Eu147 O170 2.473 . S
C148 O145 1.255 . S
C148 O149 1.247 . S
O149 C148 1.247 . S
C150 O162 1.242 . S
C150 O163 1.258 . S
O151 Eu147 2.292 . S
O151 C153 1.255 . S
C152 Eu147 2.852 . S
C152 C156 1.503 . S
C152 O169 1.273 . S
C152 O170 1.257 . S
C153 O151 1.255 . S
C153 O154 1.247 . S
O154 C153 1.247 . S
C155 O167 1.242 . S
C155 O168 1.258 . S
C156 C152 1.503 . S
C156 C157 1.379 . S
C156 C161 1.392 . S
C157 C156 1.379 . S
C157 C158 1.404 . S
C157 H171 0.929 . S
C158 C157 1.404 . S
C158 C159 1.389 . S
C159 C158 1.389 . S
C159 C160 1.399 . S
C159 H172 0.931 . S
C160 C159 1.399 . S
C160 C161 1.390 . S
C161 C156 1.392 . S
C161 C160 1.390 . S
C161 H173 0.929 . S
O162 Tb146 2.326 . S
O162 C150 1.242 . S
O163 Eu147 2.324 . S
O163 C150 1.258 . S
O164 Tb146 2.500 1_655 S
O164 C166 1.273 . S
O165 Tb146 2.473 . S
O165 C166 1.257 1_455 S
C166 O164 1.273 . S
C166 O165 1.257 1_655 S
O167 Eu147 2.326 . S
O167 C155 1.242 . S
O168 Tb146 2.324 . S
O168 C155 1.258 . S
O169 Eu147 2.500 . S
O169 C152 1.273 . S
O170 Eu147 2.473 . S
O170 C152 1.257 . S
H171 C157 0.929 . S
H172 C159 0.931 . S
H173 C161 0.929 . S
O174 Tb175 2.292 1_545 S
O174 C177 1.255 . S
Tb175 O174 2.292 1_565 S
Tb175 O191 2.326 . S
Tb175 O193 2.500 1_565 S
Tb175 O194 2.473 . S
Tb175 O197 2.324 . S
Eu176 O180 2.292 . S
Eu176 C181 2.852 . S
Eu176 O192 2.324 . S
Eu176 O196 2.326 . S
Eu176 O198 2.500 . S
Eu176 O199 2.473 . S
C177 O174 1.255 . S
C177 O178 1.247 . S
O178 C177 1.247 . S
C179 O191 1.242 . S
C179 O192 1.258 . S
O180 Eu176 2.292 . S
O180 C182 1.255 . S
C181 Eu176 2.852 . S
C181 C185 1.503 . S
C181 O198 1.273 . S
C181 O199 1.257 . S
C182 O180 1.255 . S
C182 O183 1.247 . S
O183 C182 1.247 . S
C184 O196 1.242 . S
C184 O197 1.258 . S
C185 C181 1.503 . S
C185 C186 1.379 . S
C185 C190 1.392 . S
C186 C185 1.379 . S
C186 C187 1.404 . S
C186 H200 0.929 . S
C187 C186 1.404 . S
C187 C188 1.389 . S
C188 C187 1.389 . S
C188 C189 1.399 . S
C188 H201 0.931 . S
C189 C188 1.399 . S
C189 C190 1.390 . S
C190 C185 1.392 . S
C190 C189 1.390 . S
C190 H202 0.929 . S
O191 Tb175 2.326 . S
O191 C179 1.242 . S
O192 Eu176 2.324 . S
O192 C179 1.258 . S
O193 Tb175 2.500 1_545 S
O193 C195 1.273 . S
O194 Tb175 2.473 . S
O194 C195 1.257 1_565 S
C195 O193 1.273 . S
C195 O194 1.257 1_545 S
O196 Eu176 2.326 . S
O196 C184 1.242 . S
O197 Tb175 2.324 . S
O197 C184 1.258 . S
O198 Eu176 2.500 . S
O198 C181 1.273 . S
O199 Eu176 2.473 . S
O199 C181 1.257 . S
H200 C186 0.929 . S
H201 C188 0.931 . S
H202 C190 0.929 . S
O203 Tb204 2.292 1_455 S
O203 C206 1.255 . S
Tb204 O203 2.292 1_655 S
Tb204 O220 2.326 . S
Tb204 O222 2.500 1_655 S
Tb204 O223 2.473 . S
Tb204 O226 2.324 . S
Eu205 O209 2.292 . S
Eu205 C210 2.852 . S
Eu205 O221 2.324 . S
Eu205 O225 2.326 . S
Eu205 O227 2.500 . S
Eu205 O228 2.473 . S
C206 O203 1.255 . S
C206 O207 1.247 . S
O207 C206 1.247 . S
C208 O220 1.242 . S
C208 O221 1.258 . S
O209 Eu205 2.292 . S
O209 C211 1.255 . S
C210 Eu205 2.852 . S
C210 C214 1.503 . S
C210 O227 1.273 . S
C210 O228 1.257 . S
C211 O209 1.255 . S
C211 O212 1.247 . S
O212 C211 1.247 . S
C213 O225 1.242 . S
C213 O226 1.258 . S
C214 C210 1.503 . S
C214 C215 1.379 . S
C214 C219 1.392 . S
C215 C214 1.379 . S
C215 C216 1.404 . S
C215 H229 0.929 . S
C216 C215 1.404 . S
C216 C217 1.389 . S
C217 C216 1.389 . S
C217 C218 1.399 . S
C217 H230 0.931 . S
C218 C217 1.399 . S
C218 C219 1.390 . S
C219 C214 1.392 . S
C219 C218 1.390 . S
C219 H231 0.929 . S
O220 Tb204 2.326 . S
O220 C208 1.242 . S
O221 Eu205 2.324 . S
O221 C208 1.258 . S
O222 Tb204 2.500 1_455 S
O222 C224 1.273 . S
O223 Tb204 2.473 . S
O223 C224 1.257 1_655 S
C224 O222 1.273 . S
C224 O223 1.257 1_455 S
O225 Eu205 2.326 . S
O225 C213 1.242 . S
O226 Tb204 2.324 . S
O226 C213 1.258 . S
O227 Eu205 2.500 . S
O227 C210 1.273 . S
O228 Eu205 2.473 . S
O228 C210 1.257 . S
H229 C215 0.929 . S
H230 C217 0.931 . S
H231 C219 0.929 . S
C232 C233 1.363 1_556 S
C232 C238 1.379 . S
C232 N240 1.356 1_556 S
C233 C232 1.363 1_554 S
C233 C239 1.363 1_554 S
C234 C235 1.363 . S
C234 C239 1.379 . S
C234 N241 1.356 . S
C235 C234 1.363 . S
C235 C238 1.363 . S
N236 C238 1.356 . S
N236 H248 0.984 . S
N236 H249 0.985 . S
N237 C239 1.356 1_554 S
N237 H242 0.984 . S
N237 H243 0.985 . S
C238 C232 1.379 . S
C238 C235 1.363 . S
C238 N236 1.356 . S
C239 C233 1.363 1_556 S
C239 C234 1.379 . S
C239 N237 1.356 1_556 S
N240 C232 1.356 1_554 S
N240 H246 0.984 1_554 S
N240 H247 0.984 . S
N241 C234 1.356 . S
N241 H244 0.984 . S
N241 H245 0.985 . S
H242 N237 0.984 . S
H243 N237 0.985 . S
H244 N241 0.984 . S
H245 N241 0.985 . S
H246 N240 0.984 1_556 S
H247 N240 0.984 . S
H248 N236 0.984 . S
H249 N236 0.985 . S
C250 C251 1.363 1_554 S
C250 C256 1.379 . S
C250 N258 1.356 1_554 S
C251 C250 1.363 1_556 S
C251 C257 1.363 1_556 S
C252 C253 1.363 . S
C252 C257 1.379 . S
C252 N259 1.356 . S
C253 C252 1.363 . S
C253 C256 1.363 . S
N254 C256 1.356 . S
N254 H266 0.984 . S
N254 H267 0.985 . S
N255 C257 1.356 1_556 S
N255 H260 0.984 . S
N255 H261 0.985 1_556 S
C256 C250 1.379 . S
C256 C253 1.363 . S
C256 N254 1.356 . S
C257 C251 1.363 1_554 S
C257 C252 1.379 . S
C257 N255 1.356 1_554 S
N258 C250 1.356 1_556 S
N258 H264 0.984 . S
N258 H265 0.984 . S
N259 C252 1.356 . S
N259 H262 0.984 . S
N259 H263 0.985 . S
H260 N255 0.984 . S
H261 N255 0.985 1_554 S
H262 N259 0.984 . S
H263 N259 0.985 . S
H264 N258 0.984 . S
H265 N258 0.984 . S
H266 N254 0.984 . S
H267 N254 0.985 . S
C268 C269 1.363 . S
C268 C274 1.379 . S
C268 N276 1.356 . S
C269 C268 1.363 . S
C269 C275 1.363 . S
C270 C271 1.363 1_556 S
C270 C275 1.379 . S
C270 N277 1.356 . S
C271 C270 1.363 1_554 S
C271 C274 1.363 1_554 S
N272 C274 1.356 1_554 S
N272 H284 0.984 . S
N272 H285 0.985 . S
N273 C275 1.356 . S
N273 H278 0.984 . S
N273 H279 0.985 . S
C274 C268 1.379 . S
C274 C271 1.363 1_556 S
C274 N272 1.356 1_556 S
C275 C269 1.363 . S
C275 C270 1.379 . S
C275 N273 1.356 . S
N276 C268 1.356 . S
N276 H282 0.984 . S
N276 H283 0.984 . S
N277 C270 1.356 . S
N277 H280 0.985 1_556 S
N277 H281 0.984 . S
H278 N273 0.984 . S
H279 N273 0.985 . S
H280 N277 0.985 1_554 S
H281 N277 0.984 . S
H282 N276 0.984 . S
H283 N276 0.984 . S
H284 N272 0.984 . S
H285 N272 0.985 . S
C286 C287 1.363 . S
C286 C292 1.379 . S
C286 N294 1.356 . S
C287 C286 1.363 . S
C287 C293 1.363 . S
C288 C289 1.363 1_554 S
C288 C293 1.379 . S
C288 N295 1.356 . S
C289 C288 1.363 1_556 S
C289 C292 1.363 1_556 S
N290 C292 1.356 1_556 S
N290 H302 0.984 . S
N290 H303 0.985 . S
N291 C293 1.356 . S
N291 H296 0.984 . S
N291 H297 0.985 . S
C292 C286 1.379 . S
C292 C289 1.363 1_554 S
C292 N290 1.356 1_554 S
C293 C287 1.363 . S
C293 C288 1.379 . S
C293 N291 1.356 . S
N294 C286 1.356 . S
N294 H300 0.984 . S
N294 H301 0.984 . S
N295 C288 1.356 . S
N295 H298 0.984 1_554 S
N295 H299 0.985 . S
H296 N291 0.984 . S
H297 N291 0.985 . S
H298 N295 0.984 1_556 S
H299 N295 0.985 . S
H300 N294 0.984 . S
H301 N294 0.984 . S
H302 N290 0.984 . S
H303 N290 0.985 . S
C304 C305 1.363 . S
C304 C310 1.379 . S
C304 N312 1.356 . S
C305 C304 1.363 . S
C305 C311 1.363 . S
C306 C307 1.363 . S
C306 C311 1.379 . S
C306 N313 1.356 . S
C307 C306 1.363 . S
C307 C310 1.363 . S
N308 C310 1.356 . S
N308 H320 0.984 . S
N308 H321 0.985 . S
N309 C311 1.356 . S
N309 H314 0.984 . S
N309 H315 0.985 . S
C310 C304 1.379 . S
C310 C307 1.363 . S
C310 N308 1.356 . S
C311 C305 1.363 . S
C311 C306 1.379 . S
C311 N309 1.356 . S
N312 C304 1.356 . S
N312 H318 0.984 . S
N312 H319 0.984 . S
N313 C306 1.356 . S
N313 H316 0.984 . S
N313 H317 0.985 . S
H314 N309 0.984 . S
H315 N309 0.985 . S
H316 N313 0.984 . S
H317 N313 0.985 . S
H318 N312 0.984 . S
H319 N312 0.984 . S
H320 N308 0.984 . S
H321 N308 0.985 . S
C322 C323 1.363 . S
C322 C328 1.379 . S
C322 N330 1.356 . S
C323 C322 1.363 . S
C323 C329 1.363 . S
C324 C325 1.363 . S
C324 C329 1.379 . S
C324 N331 1.356 . S
C325 C324 1.363 . S
C325 C328 1.363 . S
N326 C328 1.356 . S
N326 H338 0.984 . S
N326 H339 0.985 . S
N327 C329 1.356 . S
N327 H332 0.984 . S
N327 H333 0.985 . S
C328 C322 1.379 . S
C328 C325 1.363 . S
C328 N326 1.356 . S
C329 C323 1.363 . S
C329 C324 1.379 . S
C329 N327 1.356 . S
N330 C322 1.356 . S
N330 H336 0.984 . S
N330 H337 0.984 . S
N331 C324 1.356 . S
N331 H334 0.984 . S
N331 H335 0.985 . S
H332 N327 0.984 . S
H333 N327 0.985 . S
H334 N331 0.984 . S
H335 N331 0.985 . S
H336 N330 0.984 . S
H337 N330 0.984 . S
H338 N326 0.984 . S
H339 N326 0.985 . S
C340 C341 1.363 . S
C340 C346 1.379 . S
C340 N348 1.356 . S
C341 C340 1.363 . S
C341 C347 1.363 . S
C342 C343 1.363 . S
C342 C347 1.379 . S
C342 N349 1.356 . S
C343 C342 1.363 . S
C343 C346 1.363 . S
N344 C346 1.356 . S
N344 H356 0.984 . S
N344 H357 0.985 . S
N345 C347 1.356 . S
N345 H350 0.984 . S
N345 H351 0.985 . S
C346 C340 1.379 . S
C346 C343 1.363 . S
C346 N344 1.356 . S
C347 C341 1.363 . S
C347 C342 1.379 . S
C347 N345 1.356 . S
N348 C340 1.356 . S
N348 H354 0.984 . S
N348 H355 0.984 . S
N349 C342 1.356 . S
N349 H352 0.984 . S
N349 H353 0.985 . S
H350 N345 0.984 . S
H351 N345 0.985 . S
H352 N349 0.984 . S
H353 N349 0.985 . S
H354 N348 0.984 . S
H355 N348 0.984 . S
H356 N344 0.984 . S
H357 N344 0.985 . S
C358 C359 1.363 . S
C358 C364 1.379 . S
C358 N366 1.356 . S
C359 C358 1.363 . S
C359 C365 1.363 . S
C360 C361 1.363 . S
C360 C365 1.379 . S
C360 N367 1.356 . S
C361 C360 1.363 . S
C361 C364 1.363 . S
N362 C364 1.356 . S
N362 H374 0.984 . S
N362 H375 0.985 . S
N363 C365 1.356 . S
N363 H368 0.984 . S
N363 H369 0.985 . S
C364 C358 1.379 . S
C364 C361 1.363 . S
C364 N362 1.356 . S
C365 C359 1.363 . S
C365 C360 1.379 . S
C365 N363 1.356 . S
N366 C358 1.356 . S
N366 H372 0.984 . S
N366 H373 0.984 . S
N367 C360 1.356 . S
N367 H370 0.984 . S
N367 H371 0.985 . S
H368 N363 0.984 . S
H369 N363 0.985 . S
H370 N367 0.984 . S
H371 N367 0.985 . S
H372 N366 0.984 . S
H373 N366 0.984 . S
H374 N362 0.984 . S
H375 N362 0.985 . S
C376 C377 1.363 1_554 S
C376 C382 1.379 . S
C376 N384 1.356 . S
C377 C376 1.363 1_556 S
C377 C383 1.363 . S
C378 C379 1.342 1_556 S
C378 C383 1.379 . S
C378 N385 1.356 . S
C379 C378 1.342 1_554 S
C379 C382 1.379 . S
N380 C382 1.356 . S
N380 H392 0.984 . S
N380 H393 0.985 . S
N381 C383 1.356 . S
N381 H386 0.984 . S
N381 H387 0.985 . S
C382 C376 1.379 . S
C382 C379 1.379 . S
C382 N380 1.356 . S
C383 C377 1.363 . S
C383 C378 1.379 . S
C383 N381 1.356 . S
N384 C376 1.356 . S
N384 H390 0.984 . S
N384 H391 0.984 . S
N385 C378 1.356 . S
N385 H388 0.984 . S
N385 H389 0.985 . S
H386 N381 0.984 . S
H387 N381 0.985 . S
H388 N385 0.984 . S
H389 N385 0.985 . S
H390 N384 0.984 . S
H391 N384 0.984 . S
H392 N380 0.984 . S
H393 N380 0.985 . S
C394 C395 1.363 . S
C394 C400 1.379 . S
C394 N402 1.356 . S
C395 C394 1.363 . S
C395 C401 1.363 1_554 S
C396 C397 1.373 . S
C396 C401 1.379 . S
C396 N403 1.356 . S
C397 C396 1.373 . S
C397 C400 1.348 1_556 S
N398 C400 1.356 . S
N398 H410 0.984 . S
N398 H411 0.985 . S
N399 C401 1.356 . S
N399 H404 0.984 . S
N399 H405 0.985 . S
C400 C394 1.379 . S
C400 C397 1.348 1_554 S
C400 N398 1.356 . S
C401 C395 1.363 1_556 S
C401 C396 1.379 . S
C401 N399 1.356 . S
N402 C394 1.356 . S
N402 H408 0.984 . S
N402 H409 0.984 . S
N403 C396 1.356 . S
N403 H406 0.984 . S
N403 H407 0.985 . S
H404 N399 0.984 . S
H405 N399 0.985 . S
H406 N403 0.984 . S
H407 N403 0.985 . S
H408 N402 0.984 . S
H409 N402 0.984 . S
H410 N398 0.984 . S
H411 N398 0.985 . S
C412 C413 1.363 . S
C412 C418 1.379 . S
C412 N420 1.356 . S
C413 C412 1.363 . S
C413 C419 1.363 1_556 S
C414 C415 1.379 . S
C414 C419 1.379 . S
C414 N421 1.356 . S
C415 C414 1.379 . S
C415 C418 1.342 1_554 S
N416 C418 1.356 . S
N416 H428 0.984 . S
N416 H429 0.985 . S
N417 C419 1.356 . S
N417 H422 0.984 . S
N417 H423 0.985 . S
C418 C412 1.379 . S
C418 C415 1.342 1_556 S
C418 N416 1.356 . S
C419 C413 1.363 1_554 S
C419 C414 1.379 . S
C419 N417 1.356 . S
N420 C412 1.356 . S
N420 H426 0.984 . S
N420 H427 0.984 . S
N421 C414 1.356 . S
N421 H424 0.984 . S
N421 H425 0.985 . S
H422 N417 0.984 . S
H423 N417 0.985 . S
H424 N421 0.984 . S
H425 N421 0.985 . S
H426 N420 0.984 . S
H427 N420 0.984 . S
H428 N416 0.984 . S
H429 N416 0.985 . S
C430 C431 1.344 1_554 S
C430 C436 1.379 . S
C430 N438 1.356 . S
C431 C430 1.344 1_556 S
C431 C437 1.377 . S
C432 C433 1.363 1_556 S
C432 C437 1.379 . S
C432 N439 1.356 . S
C433 C432 1.363 1_554 S
C433 C436 1.363 . S
N434 C436 1.356 . S
N434 H446 0.984 . S
N434 H447 0.985 . S
N435 C437 1.356 . S
N435 H440 0.984 . S
N435 H441 0.985 . S
C436 C430 1.379 . S
C436 C433 1.363 . S
C436 N434 1.356 . S
C437 C431 1.377 . S
C437 C432 1.379 . S
C437 N435 1.356 . S
N438 C430 1.356 . S
N438 H444 0.984 . S
N438 H445 0.984 . S
N439 C432 1.356 . S
N439 H442 0.984 . S
N439 H443 0.985 . S
H440 N435 0.984 . S
H441 N435 0.985 . S
H442 N439 0.984 . S
H443 N439 0.985 . S
H444 N438 0.984 . S
H445 N438 0.984 . S
H446 N434 0.984 . S
H447 N434 0.985 . S
C448 C449 1.363 . S
C448 C454 1.379 . S
C448 N456 1.356 . S
C449 C448 1.363 . S
C449 C455 1.363 . S
C450 C451 1.363 . S
C450 C455 1.379 . S
C450 N457 1.356 . S
C451 C450 1.363 . S
C451 C454 1.363 . S
N452 C454 1.356 . S
N452 H464 0.984 . S
N452 H465 0.985 . S
N453 C455 1.356 . S
N453 H458 0.984 . S
N453 H459 0.985 . S
C454 C448 1.379 . S
C454 C451 1.363 . S
C454 N452 1.356 . S
C455 C449 1.363 . S
C455 C450 1.379 . S
C455 N453 1.356 . S
N456 C448 1.356 . S
N456 H462 0.984 . S
N456 H463 0.984 . S
N457 C450 1.356 . S
N457 H460 1.002 . S
N457 H461 0.985 . S
H458 N453 0.984 . S
H459 N453 0.985 . S
H460 N457 1.002 . S
H461 N457 0.985 . S
H462 N456 0.984 . S
H463 N456 0.984 . S
H464 N452 0.984 . S
H465 N452 0.985 . S
C466 C467 1.363 . S
C466 C472 1.379 . S
C466 N474 1.356 . S
C467 C466 1.363 . S
C467 C473 1.363 . S
C468 C469 1.363 . S
C468 C473 1.379 . S
C468 N475 1.356 . S
C469 C468 1.363 . S
C469 C472 1.363 . S
N470 C472 1.356 . S
N470 H482 0.984 1_545 S
N470 H483 0.985 1_545 S
N471 C473 1.356 . S
N471 H476 0.984 . S
N471 H477 0.985 . S
C472 C466 1.379 . S
C472 C469 1.363 . S
C472 N470 1.356 . S
C473 C467 1.363 . S
C473 C468 1.379 . S
C473 N471 1.356 . S
N474 C466 1.356 . S
N474 H480 0.984 . S
N474 H481 0.984 . S
N475 C468 1.356 . S
N475 H478 0.984 . S
N475 H479 0.985 . S
H476 N471 0.984 . S
H477 N471 0.985 . S
H478 N475 0.984 . S
H479 N475 0.985 . S
H480 N474 0.984 . S
H481 N474 0.984 . S
H482 N470 0.984 1_565 S
H483 N470 0.985 1_565 S
C484 C485 1.363 . S
C484 C490 1.379 . S
C484 N492 1.356 . S
C485 C484 1.363 . S
C485 C491 1.363 . S
C486 C487 1.363 . S
C486 C491 1.379 . S
C486 N493 1.356 . S
C487 C486 1.363 . S
C487 C490 1.363 . S
N488 C490 1.379 . S
N488 H500 0.979 1_455 S
N488 H501 0.968 1_455 S
N489 C491 1.356 . S
N489 H494 0.984 . S
N489 H495 0.985 . S
C490 C484 1.379 . S
C490 C487 1.363 . S
C490 N488 1.379 . S
C491 C485 1.363 . S
C491 C486 1.379 . S
C491 N489 1.356 . S
N492 C484 1.356 . S
N492 H498 0.984 . S
N492 H499 0.984 . S
N493 C486 1.356 . S
N493 H496 0.984 . S
N493 H497 0.985 . S
H494 N489 0.984 . S
H495 N489 0.985 . S
H496 N493 0.984 . S
H497 N493 0.985 . S
H498 N492 0.984 . S
H499 N492 0.984 . S
H500 N488 0.979 1_655 S
H501 N488 0.968 1_655 S
C502 C503 1.363 . S
C502 C508 1.379 . S
C502 N510 1.356 . S
C503 C502 1.363 . S
C503 C509 1.363 . S
C504 C505 1.363 . S
C504 C509 1.379 . S
C504 N511 1.356 . S
C505 C504 1.363 . S
C505 C508 1.363 . S
N506 C508 1.356 . S
N506 H518 0.984 . S
N506 H519 0.985 . S
N507 C509 1.356 . S
N507 H512 0.984 . S
N507 H513 0.985 . S
C508 C502 1.379 . S
C508 C505 1.363 . S
C508 N506 1.356 . S
C509 C503 1.363 . S
C509 C504 1.379 . S
C509 N507 1.356 . S
N510 C502 1.356 . S
N510 H516 0.984 . S
N510 H517 0.984 . S
N511 C504 1.356 . S
N511 H514 0.984 . S
N511 H515 0.985 . S
H512 N507 0.984 . S
H513 N507 0.985 . S
H514 N511 0.984 . S
H515 N511 0.985 . S
H516 N510 0.984 . S
H517 N510 0.984 . S
H518 N506 0.984 . S
H519 N506 0.985 . S
C520 C521 1.363 . S
C520 C526 1.379 . S
C520 N528 1.356 . S
C521 C520 1.363 . S
C521 C527 1.363 . S
C522 C523 1.363 . S
C522 C527 1.379 . S
C522 N529 1.356 . S
C523 C522 1.363 . S
C523 C526 1.363 . S
N524 C526 1.356 . S
N524 H536 0.984 . S
N524 H537 0.985 . S
N525 C527 1.356 . S
N525 H530 0.984 . S
N525 H531 0.985 . S
C526 C520 1.379 . S
C526 C523 1.363 . S
C526 N524 1.356 . S
C527 C521 1.363 . S
C527 C522 1.379 . S
C527 N525 1.356 . S
N528 C520 1.356 . S
N528 H534 0.984 . S
N528 H535 0.984 . S
N529 C522 1.356 . S
N529 H532 0.984 . S
N529 H533 0.985 . S
H530 N525 0.984 . S
H531 N525 0.985 . S
H532 N529 0.984 . S
H533 N529 0.985 . S
H534 N528 0.984 . S
H535 N528 0.984 . S
H536 N524 0.984 . S
H537 N524 0.985 . S
C538 C539 1.363 . S
C538 C544 1.379 . S
C538 N546 1.356 . S
C539 C538 1.363 . S
C539 C545 1.363 . S
C540 C541 1.363 . S
C540 C545 1.379 . S
C540 N547 1.356 . S
C541 C540 1.363 . S
C541 C544 1.363 . S
N542 C544 1.356 . S
N542 H554 0.984 . S
N542 H555 0.985 . S
N543 C545 1.356 . S
N543 H548 0.984 . S
N543 H549 0.985 . S
C544 C538 1.379 . S
C544 C541 1.363 . S
C544 N542 1.356 . S
C545 C539 1.363 . S
C545 C540 1.379 . S
C545 N543 1.356 . S
N546 C538 1.356 . S
N546 H552 0.984 . S
N546 H553 0.984 . S
N547 C540 1.356 . S
N547 H550 0.984 . S
N547 H551 0.985 . S
H548 N543 0.984 . S
H549 N543 0.985 . S
H550 N547 0.984 . S
H551 N547 0.985 . S
H552 N546 0.984 . S
H553 N546 0.984 . S
H554 N542 0.984 . S
H555 N542 0.985 . S
C556 C557 1.363 . S
C556 C562 1.379 1_655 S
C556 N564 1.356 . S
C557 C556 1.363 . S
C557 C563 1.363 1_545 S
C558 C559 1.363 . S
C558 C563 1.379 1_455 S
C558 N565 1.356 . S
C559 C558 1.363 . S
C559 C562 1.363 1_565 S
N560 C562 1.356 . S
N560 H572 0.984 . S
N560 H573 0.985 . S
N561 C563 1.356 . S
N561 H566 0.984 . S
N561 H567 0.985 . S
C562 C556 1.379 1_455 S
C562 C559 1.363 1_545 S
C562 N560 1.356 . S
C563 C557 1.363 1_565 S
C563 C558 1.379 1_655 S
C563 N561 1.356 . S
N564 C556 1.356 . S
N564 H570 0.984 . S
N564 H571 0.984 . S
N565 C558 1.356 . S
N565 H568 0.984 . S
N565 H569 0.985 . S
H566 N561 0.984 . S
H567 N561 0.985 . S
H568 N565 0.984 . S
H569 N565 0.985 . S
H570 N564 0.984 . S
H571 N564 0.984 . S
H572 N560 0.984 . S
H573 N560 0.985 . S
C574 C575 1.363 . S
C574 C580 1.379 1_545 S
C574 N582 1.356 . S
C575 C574 1.363 . S
C575 C581 1.363 1_455 S
C576 C577 1.363 . S
C576 C581 1.379 1_565 S
C576 N583 1.356 . S
C577 C576 1.363 . S
C577 C580 1.363 1_655 S
N578 C580 1.356 . S
N578 H590 0.984 . S
N578 H591 0.985 . S
N579 C581 1.356 . S
N579 H584 0.984 . S
N579 H585 0.985 . S
C580 C574 1.379 1_565 S
C580 C577 1.363 1_455 S
C580 N578 1.356 . S
C581 C575 1.363 1_655 S
C581 C576 1.379 1_545 S
C581 N579 1.356 . S
N582 C574 1.356 . S
N582 H588 0.984 . S
N582 H589 0.984 . S
N583 C576 1.356 . S
N583 H586 0.984 . S
N583 H587 0.985 . S
H584 N579 0.984 . S
H585 N579 0.985 . S
H586 N583 0.984 . S
H587 N583 0.985 . S
H588 N582 0.984 . S
H589 N582 0.984 . S
H590 N578 0.984 . S
H591 N578 0.985 . S
C592 C593 1.363 . S
C592 C598 1.379 . S
C592 N600 1.356 . S
C593 C592 1.363 . S
C593 C599 1.363 . S
C594 C595 1.363 . S
C594 C599 1.379 . S
C594 N601 1.356 . S
C595 C594 1.363 . S
C595 C598 1.363 . S
N596 C598 1.356 . S
N596 H608 0.984 . S
N596 H609 0.985 . S
N597 C599 1.356 . S
N597 H602 0.984 . S
N597 H603 0.985 . S
C598 C592 1.379 . S
C598 C595 1.363 . S
C598 N596 1.356 . S
C599 C593 1.363 . S
C599 C594 1.379 . S
C599 N597 1.356 . S
N600 C592 1.356 . S
N600 H606 0.984 . S
N600 H607 0.984 . S
N601 C594 1.356 . S
N601 H604 0.984 . S
N601 H605 0.985 . S
H602 N597 0.984 . S
H603 N597 0.985 . S
H604 N601 0.984 . S
H605 N601 0.985 . S
H606 N600 0.984 . S
H607 N600 0.984 . S
H608 N596 0.984 . S
H609 N596 0.985 . S
C610 C611 1.363 . S
C610 C616 1.379 . S
C610 N618 1.356 . S
C611 C610 1.363 . S
C611 C617 1.363 . S
C612 C613 1.363 . S
C612 C617 1.379 . S
C612 N619 1.356 . S
C613 C612 1.363 . S
C613 C616 1.363 . S
N614 C616 1.356 . S
N614 H626 0.984 . S
N614 H627 0.985 . S
N615 C617 1.356 . S
N615 H620 0.984 . S
N615 H621 0.985 . S
C616 C610 1.379 . S
C616 C613 1.363 . S
C616 N614 1.356 . S
C617 C611 1.363 . S
C617 C612 1.379 . S
C617 N615 1.356 . S
N618 C610 1.356 . S
N618 H624 0.984 . S
N618 H625 0.984 . S
N619 C612 1.356 . S
N619 H622 0.984 . S
N619 H623 0.985 . S
H620 N615 0.984 . S
H621 N615 0.985 . S
H622 N619 0.984 . S
H623 N619 0.985 . S
H624 N618 0.984 . S
H625 N618 0.984 . S
H626 N614 0.984 . S
H627 N614 0.985 . S
C628 C629 1.363 . S
C628 C634 1.379 . S
C628 N636 1.356 . S
C629 C628 1.363 . S
C629 C635 1.363 . S
C630 C631 1.363 . S
C630 C635 1.379 . S
C630 N637 1.356 . S
C631 C630 1.363 . S
C631 C634 1.363 . S
N632 C634 1.356 . S
N632 H644 0.984 . S
N632 H645 0.985 . S
N633 C635 1.356 . S
N633 H638 0.984 . S
N633 H639 0.985 . S
C634 C628 1.379 . S
C634 C631 1.363 . S
C634 N632 1.356 . S
C635 C629 1.363 . S
C635 C630 1.379 . S
C635 N633 1.356 . S
N636 C628 1.356 . S
N636 H642 0.984 . S
N636 H643 0.984 . S
N637 C630 1.356 . S
N637 H640 0.984 . S
N637 H641 0.985 . S
H638 N633 0.984 . S
H639 N633 0.985 . S
H640 N637 0.984 . S
H641 N637 0.985 . S
H642 N636 0.984 . S
H643 N636 0.984 . S
H644 N632 0.984 . S
H645 N632 0.985 . S
C646 C647 1.363 . S
C646 C652 1.379 . S
C646 N654 1.356 . S
C647 C646 1.363 . S
C647 C653 1.363 . S
C648 C649 1.363 . S
C648 C653 1.379 . S
C648 N655 1.356 . S
C649 C648 1.363 . S
C649 C652 1.363 . S
N650 C652 1.356 . S
N650 H662 0.984 . S
N650 H663 0.985 . S
N651 C653 1.356 . S
N651 H656 0.984 . S
N651 H657 0.985 . S
C652 C646 1.379 . S
C652 C649 1.363 . S
C652 N650 1.356 . S
C653 C647 1.363 . S
C653 C648 1.379 . S
C653 N651 1.356 . S
N654 C646 1.356 . S
N654 H660 0.984 . S
N654 H661 0.984 . S
N655 C648 1.356 . S
N655 H658 0.984 . S
N655 H659 0.985 . S
H656 N651 0.984 . S
H657 N651 0.985 . S
H658 N655 0.984 . S
H659 N655 0.985 . S
H660 N654 0.984 . S
H661 N654 0.984 . S
H662 N650 0.984 . S
H663 N650 0.985 . S
C664 C665 1.363 . S
C664 C670 1.379 . S
C664 N672 1.356 . S
C665 C664 1.363 . S
C665 C671 1.363 . S
C666 C667 1.363 . S
C666 C671 1.379 . S
C666 N673 1.356 . S
C667 C666 1.363 . S
C667 C670 1.363 . S
N668 C670 1.356 . S
N668 H680 0.984 . S
N668 H681 0.985 . S
N669 C671 1.356 . S
N669 H674 0.984 . S
N669 H675 0.985 . S
C670 C664 1.379 . S
C670 C667 1.363 . S
C670 N668 1.356 . S
C671 C665 1.363 . S
C671 C666 1.379 . S
C671 N669 1.356 . S
N672 C664 1.356 . S
N672 H678 0.984 . S
N672 H679 0.984 . S
N673 C666 1.356 . S
N673 H676 0.984 . S
N673 H677 0.985 . S
H674 N669 0.984 . S
H675 N669 0.985 . S
H676 N673 0.984 . S
H677 N673 0.985 . S
H678 N672 0.984 . S
H679 N672 0.984 . S
H680 N668 0.984 . S
H681 N668 0.985 . S
C682 C683 1.363 . S
C682 C688 1.379 . S
C682 N690 1.356 . S
C683 C682 1.363 . S
C683 C689 1.363 . S
C684 C685 1.363 . S
C684 C689 1.379 . S
C684 N691 1.356 . S
C685 C684 1.363 . S
C685 C688 1.363 . S
N686 C688 1.356 . S
N686 H698 0.984 . S
N686 H699 0.985 . S
N687 C689 1.356 . S
N687 H692 0.984 . S
N687 H693 0.985 . S
C688 C682 1.379 . S
C688 C685 1.363 . S
C688 N686 1.356 . S
C689 C683 1.363 . S
C689 C684 1.379 . S
C689 N687 1.356 . S
N690 C682 1.356 . S
N690 H696 0.984 . S
N690 H697 0.984 . S
N691 C684 1.356 . S
N691 H694 0.984 . S
N691 H695 0.985 . S
H692 N687 0.984 . S
H693 N687 0.985 . S
H694 N691 0.984 . S
H695 N691 0.985 . S
H696 N690 0.984 . S
H697 N690 0.984 . S
H698 N686 0.984 . S
H699 N686 0.985 . S
C700 C701 1.363 . S
C700 C706 1.379 . S
C700 N708 1.356 . S
C701 C700 1.363 . S
C701 C707 1.363 . S
C702 C703 1.363 . S
C702 C707 1.379 . S
C702 N709 1.356 . S
C703 C702 1.363 . S
C703 C706 1.363 . S
N704 C706 1.356 . S
N704 H716 0.984 . S
N704 H717 0.985 . S
N705 C707 1.356 . S
N705 H710 0.984 . S
N705 H711 0.985 . S
C706 C700 1.379 . S
C706 C703 1.363 . S
C706 N704 1.356 . S
C707 C701 1.363 . S
C707 C702 1.379 . S
C707 N705 1.356 . S
N708 C700 1.356 . S
N708 H714 0.984 . S
N708 H715 0.984 . S
N709 C702 1.356 . S
N709 H712 0.984 . S
N709 H713 0.985 . S
H710 N705 0.984 . S
H711 N705 0.985 . S
H712 N709 0.984 . S
H713 N709 0.985 . S
H714 N708 0.984 . S
H715 N708 0.984 . S
H716 N704 0.984 . S
H717 N704 0.985 . S
C718 C719 1.363 . S
C718 C724 1.379 . S
C718 N726 1.356 . S
C719 C718 1.363 . S
C719 C725 1.363 . S
C720 C721 1.363 . S
C720 C725 1.379 . S
C720 N727 1.356 . S
C721 C720 1.363 . S
C721 C724 1.363 . S
N722 C724 1.356 . S
N722 H734 0.984 . S
N722 H735 0.985 . S
N723 C725 1.356 . S
N723 H728 0.984 . S
N723 H729 0.985 . S
C724 C718 1.379 . S
C724 C721 1.363 . S
C724 N722 1.356 . S
C725 C719 1.363 . S
C725 C720 1.379 . S
C725 N723 1.356 . S
N726 C718 1.356 . S
N726 H732 0.984 . S
N726 H733 0.984 . S
N727 C720 1.356 . S
N727 H730 0.984 . S
N727 H731 0.985 . S
H728 N723 0.984 . S
H729 N723 0.985 . S
H730 N727 0.984 . S
H731 N727 0.985 . S
H732 N726 0.984 . S
H733 N726 0.984 . S
H734 N722 0.984 . S
H735 N722 0.985 . S
C233 C10 2.297 . S
C235 C158 2.184 . S
C251 C39 2.297 . S
C253 C187 2.184 . S
C269 C216 2.184 . S
C271 C68 2.297 . S
C287 C129 2.184 . S
C289 C97 2.297 . S
C305 C126 2.297 . S
C307 C100 2.184 . S
C323 C155 2.297 . S
C325 C13 2.184 . S
C341 C184 2.297 . S
C343 C42 2.184 . S
C359 C213 2.297 . S
C361 C71 2.184 . S
C377 C108 0.796 . S
C379 C8 0.748 . S
C395 C21 0.796 . S
C397 C37 0.748 . S
C413 C50 0.796 . S
C415 C66 0.748 . S
C431 C95 0.748 . S
C433 C79 0.796 . S
C449 C124 0.738 . S
C451 C166 0.796 . S
C467 C153 0.738 . S
C469 C195 0.796 . S
C485 C182 0.738 . S
C487 C224 0.796 . S
C503 C137 0.796 . S
C505 C211 0.738 . S
C521 C5 2.962 . S
C523 C63 2.962 . S
C539 C34 2.962 . S
C541 C92 2.962 . S
C557 C121 2.962 . S
C559 C179 2.962 . S
C575 C150 2.962 . S
C577 C208 2.962 . S
C593 C177 1.489 . S
C595 C15 1.531 . S
C611 C44 1.531 . S
C613 C206 1.489 . S
C629 C73 1.531 . S
C631 C119 1.489 . S
C647 C148 1.489 . S
C649 C102 1.531 . S
C665 C131 1.531 . S
C667 C61 1.489 . S
C683 C90 1.489 . S
C685 C160 1.531 . S
C701 C189 1.531 . S
C703 C3 1.489 . S
C719 C32 1.489 . S
C721 C218 1.531 . S
