# Generated by pormake.
# Topology vbm, (6)-cn, num edge types: 1
# Building blocks:
#     Node 0, Type 0, BuildingBlock: HISSIN_clean_sbu_0, # of connection points: 6
#     Node 1, Type 0, BuildingBlock: HISSIN_clean_sbu_0, # of connection points: 6
#     Node 2, Type 0, BuildingBlock: HISSIN_clean_sbu_0, # of connection points: 6
#     Node 3, Type 0, BuildingBlock: HISSIN_clean_sbu_0, # of connection points: 6
#     Node 4, Type 0, BuildingBlock: HISSIN_clean_sbu_0, # of connection points: 6
#     Node 5, Type 0, BuildingBlock: HISSIN_clean_sbu_0, # of connection points: 6
#     Node 6, Type 0, BuildingBlock: HISSIN_clean_sbu_0, # of connection points: 6
#     Node 7, Type 0, BuildingBlock: HISSIN_clean_sbu_0, # of connection points: 6
#     Node 8, Type 0, BuildingBlock: HISSIN_clean_sbu_0, # of connection points: 6
#     Node 9, Type 0, BuildingBlock: HISSIN_clean_sbu_0, # of connection points: 6
#     Node 10, Type 0, BuildingBlock: HISSIN_clean_sbu_0, # of connection points: 6
#     Node 11, Type 0, BuildingBlock: HISSIN_clean_sbu_0, # of connection points: 6
#     Node 12, Type 0, BuildingBlock: HISSIN_clean_sbu_0, # of connection points: 6
#     Node 13, Type 0, BuildingBlock: HISSIN_clean_sbu_0, # of connection points: 6
#     Node 14, Type 0, BuildingBlock: HISSIN_clean_sbu_0, # of connection points: 6
#     Node 15, Type 0, BuildingBlock: HISSIN_clean_sbu_0, # of connection points: 6
#     Edge 16, Type (0, 0), None
#     Edge 17, Type (0, 0), None
#     Edge 18, Type (0, 0), None
#     Edge 19, Type (0, 0), None
#     Edge 20, Type (0, 0), None
#     Edge 21, Type (0, 0), None
#     Edge 22, Type (0, 0), None
#     Edge 23, Type (0, 0), None
#     Edge 24, Type (0, 0), None
#     Edge 25, Type (0, 0), None
#     Edge 26, Type (0, 0), None
#     Edge 27, Type (0, 0), None
#     Edge 28, Type (0, 0), None
#     Edge 29, Type (0, 0), None
#     Edge 30, Type (0, 0), None
#     Edge 31, Type (0, 0), None
#     Edge 32, Type (0, 0), None
#     Edge 33, Type (0, 0), None
#     Edge 34, Type (0, 0), None
#     Edge 35, Type (0, 0), None
#     Edge 36, Type (0, 0), None
#     Edge 37, Type (0, 0), None
#     Edge 38, Type (0, 0), None
#     Edge 39, Type (0, 0), None
#     Edge 40, Type (0, 0), None
#     Edge 41, Type (0, 0), None
#     Edge 42, Type (0, 0), None
#     Edge 43, Type (0, 0), None
#     Edge 44, Type (0, 0), None
#     Edge 45, Type (0, 0), None
#     Edge 46, Type (0, 0), None
#     Edge 47, Type (0, 0), None
#     Edge 48, Type (0, 0), None
#     Edge 49, Type (0, 0), None
#     Edge 50, Type (0, 0), None
#     Edge 51, Type (0, 0), None
#     Edge 52, Type (0, 0), None
#     Edge 53, Type (0, 0), None
#     Edge 54, Type (0, 0), None
#     Edge 55, Type (0, 0), None
#     Edge 56, Type (0, 0), None
#     Edge 57, Type (0, 0), None
#     Edge 58, Type (0, 0), None
#     Edge 59, Type (0, 0), None
#     Edge 60, Type (0, 0), None
#     Edge 61, Type (0, 0), None
#     Edge 62, Type (0, 0), None
#     Edge 63, Type (0, 0), None
# Relax obj value: 0.092
# Max RMSD: 0.207
# Mean RMSD: 0.207
data_MOF--net-vbm--node1-HISSIN_clean_sbu_0--edge1-none
_symmetry_space_group_name_H-M    P1
_symmetry_Int_Tables_number       1
_symmetry_cell_setting            triclinic
loop_
_symmetry_equiv_pos_as_xyz
'x, y, z'
_cell_length_a     23.45087
_cell_length_b     15.825337
_cell_length_c     25.653115
_cell_angle_alpha  90.244134
_cell_angle_beta   89.995942
_cell_angle_gamma 90.022744
loop_
_atom_site_label
_atom_site_type_symbol
_atom_site_fract_x
_atom_site_fract_y
_atom_site_fract_z
_atom_type_partial_charge
Eu0 Eu 0.09669 0.11368 0.09549 0.0
Eu1 Eu 0.02306 0.26868 0.13382 0.0
C2 C 0.05249 0.1032 0.21159 0.0
C3 C 0.10713 0.89097 0.06899 0.0
C4 C 0.10882 0.85685 0.11945 0.0
C5 C 0.04689 0.77292 0.04193 0.0
C6 C 0.08203 0.78039 0.13045 0.0
C7 C 0.07386 0.84979 0.03098 0.0
C8 C 0.05111 0.73697 0.09177 0.0
C9 C 0.13409 0.97399 0.0582 0.0
O10 O 0.10946 0.32949 0.13027 0.0
O11 O 0.16521 0.21074 0.12306 0.0
C12 C 0.1597 0.29412 0.12959 0.0
O13 O 0.1146 0.21637 0.04011 0.0
O14 O 0.00634 0.37655 0.18481 0.0
O15 O -0.04749 0.35407 0.11719 0.0
O16 O 0.02408 0.26011 0.04318 0.0
C17 C 0.07163 0.24989 0.01646 0.0
O18 O 0.00215 0.08722 0.07798 0.0
O19 O -0.04212 0.16818 0.13944 0.0
O20 O 0.03894 0.18511 0.20787 0.0
O21 O 0.10359 1.02587 0.03006 0.0
O22 O 0.15876 1.01179 0.09785 0.0
O23 O 0.0717 1.06156 0.17182 0.0
C24 C -0.017 0.49392 0.1336 0.0
C25 C 0.00474 0.50705 0.0831 0.0
C26 C -0.00046 0.64157 0.15338 0.0
C27 C 0.02511 0.58676 0.06848 0.0
C28 C -0.0191 0.56167 0.1684 0.0
C29 C 0.0238 0.65461 0.10406 0.0
C30 C -0.03075 0.40852 0.15241 0.0
C31 C -0.04292 0.10552 0.10658 0.0
H32 H 0.13136 0.88865 0.15069 0.0
H33 H 0.02185 0.74256 0.01171 0.0
H34 H 0.08661 0.75469 0.16927 0.0
H35 H 0.06762 0.87787 -0.00696 0.0
H36 H 0.00819 0.45506 0.05568 0.0
H37 H -0.00374 0.69304 0.18112 0.0
H38 H 0.04402 0.59421 0.03025 0.0
H39 H -0.03407 0.55223 0.20775 0.0
Eu40 Eu 0.76491 1.03692 0.108 0.0
Eu41 Eu 0.84202 0.88434 0.14004 0.0
C42 C 0.82474 1.05434 0.21588 0.0
C43 C 0.72283 0.25727 0.09925 0.0
C44 C 0.7325 0.28343 0.15091 0.0
C45 C 0.76291 0.39009 0.06922 0.0
C46 C 0.75603 0.36264 0.1616 0.0
C47 C 0.73645 0.31258 0.05881 0.0
C48 C 0.77357 0.41674 0.12097 0.0
C49 C 0.70541 0.1695 0.08723 0.0
O50 O 0.75953 0.82448 0.11463 0.0
O51 O 0.70571 0.93364 0.14188 0.0
C52 C 0.71046 0.85227 0.13048 0.0
O53 O 0.76704 0.95336 0.03781 0.0
O54 O 0.84651 0.78612 0.19921 0.0
O55 O 0.90415 0.78257 0.13281 0.0
O56 O 0.8542 0.89435 0.05139 0.0
C57 C 0.81305 0.91696 0.01953 0.0
O58 O 0.85709 1.07944 0.09186 0.0
O59 O 0.91226 0.97763 0.13176 0.0
O60 O 0.8266 0.97025 0.21322 0.0
O61 O 0.73635 0.13108 0.05194 0.0
O62 O 0.69451 0.12125 0.12734 0.0
O63 O 0.81046 0.09673 0.17497 0.0
C64 C 0.85601 0.65643 0.15589 0.0
C65 C 0.83175 0.64208 0.10664 0.0
C66 C 0.82772 0.51531 0.18171 0.0
C67 C 0.8045 0.56542 0.0954 0.0
C68 C 0.85209 0.5935 0.19344 0.0
C69 C 0.80233 0.49985 0.13264 0.0
C70 C 0.87985 0.73961 0.17018 0.0
C71 C 0.90714 1.04958 0.10719 0.0
H72 H 0.72195 0.2428 0.18339 0.0
H73 H 0.77527 0.42789 0.03618 0.0
H74 H 0.76007 0.38032 0.20214 0.0
H75 H 0.72785 0.29444 0.01892 0.0
H76 H 0.83235 0.69104 0.07725 0.0
H77 H 0.82935 0.46775 0.21168 0.0
H78 H 0.78431 0.55942 0.05773 0.0
H79 H 0.86869 0.60499 0.2318 0.0
Eu80 Eu 0.11585 1.03688 0.3654 0.0
Eu81 Eu 0.04072 0.88702 0.33717 0.0
C82 C 0.05324 1.05625 0.26207 0.0
C83 C 0.15088 0.25628 0.3688 0.0
C84 C 0.17049 0.30375 0.32652 0.0
C85 C 0.07868 0.36318 0.38544 0.0
C86 C 0.14704 0.38273 0.31586 0.0
C87 C 0.10328 0.28538 0.39686 0.0
C88 C 0.10102 0.41411 0.34556 0.0
C89 C 0.1743 0.17138 0.37847 0.0
O90 O 0.12096 0.82479 0.36449 0.0
O91 O 0.17444 0.93045 0.33315 0.0
C92 C 0.16992 0.85041 0.34757 0.0
O93 O 0.11854 0.96342 0.43841 0.0
O94 O 0.0381 0.79248 0.27545 0.0
O95 O -0.02031 0.78399 0.34123 0.0
O96 O 0.03385 0.89516 0.42692 0.0
C97 C 0.07522 0.92232 0.45765 0.0
O98 O 0.02364 1.07814 0.38516 0.0
O99 O -0.03211 0.97371 0.34859 0.0
O100 O 0.05645 0.97244 0.26424 0.0
O101 O 0.1525 0.1303 0.41801 0.0
O102 O 0.18028 0.12424 0.33673 0.0
O103 O 0.06369 0.09836 0.30393 0.0
C104 C 0.02875 0.65951 0.31457 0.0
C105 C 0.02666 0.62558 0.36506 0.0
C106 C 0.07926 0.5344 0.28493 0.0
C107 C 0.05065 0.54666 0.37528 0.0
C108 C 0.05755 0.61464 0.27549 0.0
C109 C 0.07636 0.49908 0.33506 0.0
C110 C 0.00493 0.74366 0.30297 0.0
C111 C -0.02696 1.04648 0.37226 0.0
H112 H 0.20455 0.28018 0.30194 0.0
H113 H 0.04166 0.38245 0.40767 0.0
H114 H 0.16612 0.4193 0.28491 0.0
H115 H 0.08434 0.24777 0.42751 0.0
H116 H 0.00671 0.65992 0.39679 0.0
H117 H 0.09819 0.50065 0.25253 0.0
H118 H 0.04941 0.52383 0.41496 0.0
H119 H 0.06409 0.64192 0.23757 0.0
Eu120 Eu 0.78071 0.11065 0.38428 0.0
Eu121 Eu 0.85713 0.26539 0.34538 0.0
C122 C 0.82591 0.10097 0.26684 0.0
C123 C 0.76058 0.88838 0.41222 0.0
C124 C 0.7857 0.87171 0.3637 0.0
C125 C 0.78909 0.74781 0.44045 0.0
C126 C 0.8102 0.79369 0.35281 0.0
C127 C 0.76259 0.82577 0.45059 0.0
C128 C 0.81303 0.73025 0.391 0.0
C129 C 0.73786 0.97388 0.42303 0.0
O130 O 0.77062 0.32584 0.3495 0.0
O131 O 0.71354 0.20858 0.35657 0.0
C132 C 0.7201 0.29149 0.3497 0.0
O133 O 0.76957 0.21601 0.44061 0.0
O134 O 0.87406 0.37261 0.29456 0.0
O135 O 0.92505 0.35432 0.36425 0.0
O136 O 0.86086 0.25479 0.43508 0.0
C137 C 0.8145 0.24659 0.46323 0.0
O138 O 0.8755 1.07753 0.39729 0.0
O139 O 0.92366 0.16717 0.34274 0.0
O140 O 0.84298 0.18132 0.27116 0.0
O141 O 0.77231 1.0229 0.44942 0.0
O142 O 0.7152 1.01287 0.38311 0.0
O143 O 0.8032 1.06143 0.30584 0.0
C144 C 0.88823 0.48956 0.34901 0.0
C145 C 0.84769 0.49412 0.38933 0.0
C146 C 0.88153 0.64064 0.33861 0.0
C147 C 0.82385 0.57191 0.4039 0.0
C148 C 0.90528 0.56315 0.32447 0.0
C149 C 0.84015 0.6468 0.37834 0.0
C150 C 0.9078 0.40758 0.32895 0.0
C151 C 0.92253 0.10134 0.37293 0.0
H152 H 0.78452 0.91777 0.33292 0.0
H153 H 0.79094 0.70202 0.47159 0.0
H154 H 0.8252 0.78338 0.31347 0.0
H155 H 0.74416 0.83733 0.48842 0.0
H156 H 0.83326 0.43723 0.4086 0.0
H157 H 0.89517 0.6952 0.31712 0.0
H158 H 0.79126 0.57229 0.43374 0.0
H159 H 0.93583 0.56012 0.29305 0.0
Eu160 Eu 0.86591 0.89576 0.8446 0.0
Eu161 Eu 0.79227 1.05077 0.88291 0.0
C162 C 0.81734 0.91459 0.96196 0.0
C163 C 0.90597 0.67052 0.84481 0.0
C164 C 0.88423 0.65739 0.8953 0.0
C165 C 0.88944 0.52287 0.82502 0.0
C166 C 0.86385 0.57769 0.90992 0.0
C167 C 0.90808 0.60277 0.81 0.0
C168 C 0.86518 0.50984 0.87435 0.0
C169 C 0.91972 0.75592 0.826 0.0
O170 O 0.8868 1.07724 0.90043 0.0
O171 O 0.93108 0.99626 0.83898 0.0
C172 C 0.93188 1.05892 0.87184 0.0
O173 O 0.85002 0.97932 0.77054 0.0
O174 O 0.78535 0.13859 0.94834 0.0
O175 O 0.7302 0.15266 0.88053 0.0
O176 O 0.81727 0.10288 0.80659 0.0
C177 C 0.83648 1.06123 0.76682 0.0
O178 O 0.7795 0.83494 0.84816 0.0
O179 O 0.72375 0.9537 0.85535 0.0
O180 O 0.77436 0.94812 0.93831 0.0
O181 O 0.88262 0.78789 0.7936 0.0
O182 O 0.93646 0.81038 0.86121 0.0
O183 O 0.86488 0.9043 0.93523 0.0
C184 C 0.78183 0.27348 0.90941 0.0
C185 C 0.78015 0.30761 0.85895 0.0
C186 C 0.84207 0.39153 0.93647 0.0
C187 C 0.80694 0.38406 0.84794 0.0
C188 C 0.81509 0.31466 0.94742 0.0
C189 C 0.83785 0.42748 0.88663 0.0
C190 C 0.75486 0.19047 0.92019 0.0
C191 C 0.72927 0.87032 0.84883 0.0
H192 H 0.88077 0.70938 0.92272 0.0
H193 H 0.89272 0.4714 0.79729 0.0
H194 H 0.84494 0.57024 0.94815 0.0
H195 H 0.92305 0.61221 0.77066 0.0
H196 H 0.75761 0.27581 0.8277 0.0
H197 H 0.8671 0.42188 0.96669 0.0
H198 H 0.80237 0.40976 0.80913 0.0
H199 H 0.82132 0.28658 0.98535 0.0
Eu200 Eu 0.04695 0.28009 0.83837 0.0
Eu201 Eu 0.12405 0.12751 0.8704 0.0
C202 C 0.07591 0.24747 0.95888 0.0
C203 C 0.03296 0.508 0.82251 0.0
C204 C 0.05721 0.52235 0.87176 0.0
C205 C 0.06125 0.64911 0.79669 0.0
C206 C 0.08446 0.59901 0.883 0.0
C207 C 0.03688 0.57093 0.78496 0.0
C208 C 0.08663 0.66458 0.84576 0.0
C209 C 0.00912 0.42481 0.80822 0.0
O210 O 0.03187 0.08499 0.88655 0.0
O211 O -0.0233 0.18682 0.84666 0.0
C212 C -0.01817 0.11486 0.87123 0.0
O213 O 0.06237 0.19418 0.76519 0.0
O214 O 0.15262 1.03335 0.92646 0.0
O215 O 0.19445 1.04318 0.85105 0.0
O216 O 0.0785 1.0677 0.80344 0.0
C217 C 0.06422 0.11009 0.76253 0.0
O218 O 0.12943 0.33995 0.86378 0.0
O219 O 0.18326 0.2308 0.83653 0.0
O220 O 0.12192 0.21104 0.94061 0.0
O221 O 0.04247 0.37831 0.7792 0.0
O222 O -0.01518 0.38186 0.84559 0.0
O223 O 0.03477 0.2701 0.92702 0.0
C224 C 0.16613 0.90716 0.87914 0.0
C225 C 0.15646 0.88099 0.82749 0.0
C226 C 0.12604 0.77434 0.90917 0.0
C227 C 0.13293 0.80178 0.81679 0.0
C228 C 0.15251 0.85185 0.91959 0.0
C229 C 0.11539 0.74769 0.85743 0.0
C230 C 0.18356 0.99492 0.89117 0.0
C231 C 0.1785 0.31217 0.84794 0.0
H232 H 0.0566 0.4734 0.90115 0.0
H233 H 0.05962 0.69667 0.76671 0.0
H234 H 0.10464 0.60502 0.92068 0.0
H235 H 0.02029 0.55943 0.74659 0.0
H236 H 0.16702 0.92162 0.79501 0.0
H237 H 0.11368 0.73655 0.94222 0.0
H238 H 0.1289 0.7841 0.77626 0.0
H239 H 0.1611 0.87 0.95948 0.0
Eu240 Eu 0.84825 0.27742 0.64124 0.0
Eu241 Eu 0.77312 0.12755 0.61301 0.0
C242 C 0.81376 0.24211 0.52076 0.0
C243 C 0.86021 0.50492 0.66385 0.0
C244 C 0.8623 0.53885 0.61336 0.0
C245 C 0.80971 0.63003 0.6935 0.0
C246 C 0.83831 0.61777 0.60314 0.0
C247 C 0.83141 0.54979 0.70293 0.0
C248 C 0.8126 0.66536 0.64337 0.0
C249 C 0.88403 0.42077 0.67545 0.0
O250 O 0.86534 0.08629 0.59325 0.0
O251 O 0.92109 0.19073 0.62981 0.0
C252 C 0.91594 0.11796 0.60614 0.0
O253 O 0.83252 0.19199 0.71417 0.0
O254 O 0.73646 1.03412 0.56041 0.0
O255 O 0.7087 1.0402 0.64169 0.0
O256 O 0.82529 1.06607 0.67448 0.0
C257 C 0.83573 0.10818 0.71633 0.0
O258 O 0.76801 0.33965 0.61391 0.0
O259 O 0.71453 0.23399 0.64525 0.0
O260 O 0.77045 0.20097 0.53998 0.0
O261 O 0.85085 0.37194 0.70296 0.0
O262 O 0.90927 0.38045 0.6372 0.0
O263 O 0.85511 0.2693 0.55149 0.0
C264 C 0.73809 0.90816 0.60962 0.0
C265 C 0.71848 0.86069 0.65191 0.0
C266 C 0.81029 0.80126 0.593 0.0
C267 C 0.74193 0.7817 0.66257 0.0
C268 C 0.7857 0.87906 0.58157 0.0
C269 C 0.78794 0.75033 0.63287 0.0
C270 C 0.71466 0.99305 0.59995 0.0
C271 C 0.71905 0.31403 0.63082 0.0
H272 H 0.88225 0.50452 0.58163 0.0
H273 H 0.79078 0.66378 0.7259 0.0
H274 H 0.83955 0.6406 0.56346 0.0
H275 H 0.82487 0.52251 0.74085 0.0
H276 H 0.68442 0.88425 0.67649 0.0
H277 H 0.84731 0.78199 0.57077 0.0
H278 H 0.72285 0.74513 0.69352 0.0
H279 H 0.80463 0.91666 0.55092 0.0
Eu280 Eu 0.03184 0.89905 0.63302 0.0
Eu281 Eu 0.10827 1.0538 0.59413 0.0
C282 C 0.07447 0.91788 0.51518 0.0
C283 C 0.00074 0.67488 0.62939 0.0
C284 C 0.04128 0.67032 0.58908 0.0
C285 C 0.00743 0.5238 0.63979 0.0
C286 C 0.06511 0.59254 0.57451 0.0
C287 C -0.01632 0.60129 0.65393 0.0
C288 C 0.04882 0.51765 0.60006 0.0
C289 C -0.01883 0.75686 0.64946 0.0
O290 O 0.01348 0.08694 0.58112 0.0
O291 O -0.03469 0.99727 0.63565 0.0
C292 C -0.03355 1.0631 0.60547 0.0
O293 O 0.04598 0.98312 0.70725 0.0
O294 O 0.11667 0.14156 0.529 0.0
O295 O 0.17378 0.15158 0.59532 0.0
O296 O 0.08578 0.10301 0.67257 0.0
C297 C 0.06306 1.06346 0.71157 0.0
O298 O 0.11835 0.8386 0.62889 0.0
O299 O 0.17543 0.95586 0.62184 0.0
O300 O 0.11941 0.94847 0.53779 0.0
O301 O 0.01492 0.79183 0.68385 0.0
O302 O -0.03609 0.81013 0.61416 0.0
O303 O 0.02811 0.90962 0.54332 0.0
C304 C 0.1284 0.27607 0.5662 0.0
C305 C 0.10327 0.29274 0.61471 0.0
C306 C 0.09989 0.41664 0.53796 0.0
C307 C 0.07877 0.37076 0.6256 0.0
C308 C 0.1264 0.33869 0.52783 0.0
C309 C 0.07594 0.4342 0.58741 0.0
C310 C 0.15112 0.19058 0.55539 0.0
C311 C 0.16887 0.87295 0.6287 0.0
H312 H 0.05571 0.72722 0.56981 0.0
H313 H -0.00621 0.46924 0.66128 0.0
H314 H 0.09771 0.59215 0.54468 0.0
H315 H -0.04687 0.60432 0.68535 0.0
H316 H 0.10445 0.24668 0.64549 0.0
H317 H 0.09804 0.46243 0.50683 0.0
H318 H 0.06376 0.38107 0.66494 0.0
H319 H 0.14484 0.32712 0.49 0.0
Eu320 Eu 0.59669 0.61368 0.09549 0.0
Eu321 Eu 0.52306 0.76868 0.13382 0.0
C322 C 0.55249 0.6032 0.21159 0.0
C323 C 0.60712 0.39097 0.06898 0.0
C324 C 0.60882 0.35685 0.11944 0.0
C325 C 0.54688 0.27292 0.04193 0.0
C326 C 0.58203 0.28039 0.13045 0.0
C327 C 0.57386 0.34979 0.03097 0.0
C328 C 0.55111 0.23697 0.09177 0.0
C329 C 0.63409 0.47399 0.05819 0.0
O330 O 0.60946 0.8295 0.13027 0.0
O331 O 0.66522 0.71074 0.12306 0.0
C332 C 0.6597 0.79412 0.12959 0.0
O333 O 0.6146 0.71637 0.04011 0.0
O334 O 0.50634 0.87655 0.18481 0.0
O335 O 0.45251 0.85407 0.11719 0.0
O336 O 0.52408 0.76011 0.04318 0.0
C337 C 0.57163 0.7499 0.01646 0.0
O338 O 0.50215 0.58722 0.07798 0.0
O339 O 0.45788 0.66818 0.13944 0.0
O340 O 0.53894 0.68511 0.20787 0.0
O341 O 0.60359 0.52587 0.03006 0.0
O342 O 0.65876 0.5118 0.09785 0.0
O343 O 0.5717 0.56157 0.17182 0.0
C344 C 0.483 0.99392 0.13359 0.0
C345 C 0.50474 1.00706 0.0831 0.0
C346 C 0.49954 0.14157 0.15338 0.0
C347 C 0.52511 0.08676 0.06848 0.0
C348 C 0.4809 1.06168 0.1684 0.0
C349 C 0.52379 0.15461 0.10406 0.0
C350 C 0.46925 0.90852 0.1524 0.0
C351 C 0.45708 0.60552 0.10658 0.0
H352 H 0.63136 0.38865 0.15069 0.0
H353 H 0.52185 0.24256 0.01171 0.0
H354 H 0.58661 0.2547 0.16926 0.0
H355 H 0.56762 0.37787 -0.00696 0.0
H356 H 0.50818 0.95507 0.05568 0.0
H357 H 0.49626 0.19304 0.18111 0.0
H358 H 0.54402 0.09421 0.03025 0.0
H359 H 0.46593 1.05224 0.20774 0.0
Eu360 Eu 0.26491 0.53693 0.108 0.0
Eu361 Eu 0.34202 0.38434 0.14004 0.0
C362 C 0.32474 0.55434 0.21588 0.0
C363 C 0.22283 0.75727 0.09926 0.0
C364 C 0.2325 0.78344 0.15091 0.0
C365 C 0.26292 0.8901 0.06923 0.0
C366 C 0.25604 0.86265 0.16161 0.0
C367 C 0.23645 0.81259 0.05881 0.0
C368 C 0.27358 0.91675 0.12097 0.0
C369 C 0.20541 0.66951 0.08723 0.0
O370 O 0.25953 0.32448 0.11464 0.0
O371 O 0.20571 0.43364 0.14188 0.0
C372 C 0.21046 0.35227 0.13047 0.0
O373 O 0.26704 0.45336 0.03781 0.0
O374 O 0.34651 0.28612 0.19921 0.0
O375 O 0.40415 0.28258 0.13281 0.0
O376 O 0.3542 0.39435 0.05139 0.0
C377 C 0.31305 0.41696 0.01953 0.0
O378 O 0.35709 0.57945 0.09185 0.0
O379 O 0.41226 0.47763 0.13176 0.0
O380 O 0.3266 0.47026 0.21322 0.0
O381 O 0.23636 0.63109 0.05194 0.0
O382 O 0.19452 0.62126 0.12735 0.0
O383 O 0.31046 0.59673 0.17498 0.0
C384 C 0.35602 0.15644 0.15589 0.0
C385 C 0.33176 0.14208 0.10664 0.0
C386 C 0.32772 1.01532 0.18171 0.0
C387 C 0.3045 1.06543 0.0954 0.0
C388 C 0.35209 0.0935 0.19344 0.0
C389 C 0.30233 0.99985 0.13264 0.0
C390 C 0.37986 0.23962 0.17018 0.0
C391 C 0.40714 0.54958 0.10719 0.0
H392 H 0.22195 0.74281 0.18339 0.0
H393 H 0.27527 0.92789 0.03618 0.0
H394 H 0.26007 0.88033 0.20214 0.0
H395 H 0.22785 0.79444 0.01892 0.0
H396 H 0.33236 0.19104 0.07725 0.0
H397 H 0.32936 0.96776 0.21168 0.0
H398 H 0.28432 1.05942 0.05773 0.0
H399 H 0.36869 0.105 0.2318 0.0
Eu400 Eu 0.61585 0.53689 0.3654 0.0
Eu401 Eu 0.54072 0.38702 0.33717 0.0
C402 C 0.55324 0.55626 0.26207 0.0
C403 C 0.65088 0.75628 0.3688 0.0
C404 C 0.67049 0.80375 0.32652 0.0
C405 C 0.57868 0.86318 0.38543 0.0
C406 C 0.64704 0.88274 0.31585 0.0
C407 C 0.60327 0.78539 0.39686 0.0
C408 C 0.60102 0.91411 0.34556 0.0
C409 C 0.6743 0.67139 0.37847 0.0
O410 O 0.62096 0.32478 0.36449 0.0
O411 O 0.67444 0.43045 0.33316 0.0
C412 C 0.66992 0.35041 0.34758 0.0
O413 O 0.61853 0.46343 0.43841 0.0
O414 O 0.5381 0.29249 0.27545 0.0
O415 O 0.47969 0.28399 0.34122 0.0
O416 O 0.53385 0.39516 0.42692 0.0
C417 C 0.57522 0.42232 0.45765 0.0
O418 O 0.52363 0.57814 0.38517 0.0
O419 O 0.46789 0.47372 0.34859 0.0
O420 O 0.55645 0.47245 0.26424 0.0
O421 O 0.6525 0.63031 0.41801 0.0
O422 O 0.68028 0.62424 0.33673 0.0
O423 O 0.56368 0.59836 0.30393 0.0
C424 C 0.52875 0.15951 0.31457 0.0
C425 C 0.52666 0.12559 0.36506 0.0
C426 C 0.57926 1.03441 0.28492 0.0
C427 C 0.55065 1.04667 0.37528 0.0
C428 C 0.55755 0.11465 0.27549 0.0
C429 C 0.57636 0.99908 0.33505 0.0
C430 C 0.50493 0.24366 0.30297 0.0
C431 C 0.47303 0.54648 0.37226 0.0
H432 H 0.70455 0.78019 0.30193 0.0
H433 H 0.54166 0.88245 0.40766 0.0
H434 H 0.66612 0.91931 0.28491 0.0
H435 H 0.58434 0.74778 0.42751 0.0
H436 H 0.50671 0.15992 0.39679 0.0
H437 H 0.59819 1.00066 0.25252 0.0
H438 H 0.54941 1.02384 0.41496 0.0
H439 H 0.56409 0.14192 0.23757 0.0
Eu440 Eu 0.28071 0.61066 0.38428 0.0
Eu441 Eu 0.35713 0.76539 0.34538 0.0
C442 C 0.32591 0.60098 0.26684 0.0
C443 C 0.26058 0.38839 0.41222 0.0
C444 C 0.2857 0.37171 0.3637 0.0
C445 C 0.28909 0.24781 0.44045 0.0
C446 C 0.3102 0.29369 0.35281 0.0
C447 C 0.26259 0.32577 0.45059 0.0
C448 C 0.31303 0.23025 0.391 0.0
C449 C 0.23786 0.47388 0.42303 0.0
O450 O 0.27062 0.82584 0.3495 0.0
O451 O 0.21354 0.70857 0.35657 0.0
C452 C 0.2201 0.79149 0.34969 0.0
O453 O 0.26957 0.71601 0.44061 0.0
O454 O 0.37406 0.87261 0.29456 0.0
O455 O 0.42505 0.85432 0.36425 0.0
O456 O 0.36086 0.75479 0.43508 0.0
C457 C 0.3145 0.74659 0.46323 0.0
O458 O 0.3755 0.57753 0.3973 0.0
O459 O 0.42366 0.66717 0.34274 0.0
O460 O 0.34298 0.68132 0.27116 0.0
O461 O 0.27231 0.5229 0.44942 0.0
O462 O 0.2152 0.51288 0.38311 0.0
O463 O 0.3032 0.56143 0.30584 0.0
C464 C 0.38823 0.98957 0.34902 0.0
C465 C 0.34769 0.99412 0.38934 0.0
C466 C 0.38153 0.14064 0.33861 0.0
C467 C 0.32385 1.07191 0.4039 0.0
C468 C 0.40528 1.06315 0.32447 0.0
C469 C 0.34015 0.1468 0.37834 0.0
C470 C 0.4078 0.90758 0.32896 0.0
C471 C 0.42253 0.60135 0.37293 0.0
H472 H 0.28451 0.41777 0.33292 0.0
H473 H 0.29094 0.20202 0.47159 0.0
H474 H 0.3252 0.28338 0.31347 0.0
H475 H 0.24416 0.33733 0.48842 0.0
H476 H 0.33326 0.93723 0.4086 0.0
H477 H 0.39517 0.1952 0.31712 0.0
H478 H 0.29126 1.0723 0.43374 0.0
H479 H 0.43583 1.06012 0.29305 0.0
Eu480 Eu 0.3659 0.39576 0.8446 0.0
Eu481 Eu 0.29227 0.55077 0.88291 0.0
C482 C 0.31734 0.41459 0.96196 0.0
C483 C 0.40597 0.17052 0.84481 0.0
C484 C 0.38423 0.15739 0.8953 0.0
C485 C 0.38944 1.02287 0.82502 0.0
C486 C 0.36386 1.07768 0.90992 0.0
C487 C 0.40808 0.10277 0.81 0.0
C488 C 0.36518 1.00983 0.87435 0.0
C489 C 0.41972 0.25592 0.826 0.0
O490 O 0.3868 0.57723 0.90043 0.0
O491 O 0.43108 0.49625 0.83898 0.0
C492 C 0.43188 0.55892 0.87184 0.0
O493 O 0.35003 0.47932 0.77054 0.0
O494 O 0.28535 0.63859 0.94834 0.0
O495 O 0.2302 0.65266 0.88054 0.0
O496 O 0.31727 0.60287 0.80659 0.0
C497 C 0.33648 0.56123 0.76682 0.0
O498 O 0.2795 0.33494 0.84816 0.0
O499 O 0.22375 0.4537 0.85535 0.0
O500 O 0.27436 0.44812 0.93831 0.0
O501 O 0.38262 0.28789 0.7936 0.0
O502 O 0.43646 0.31038 0.86122 0.0
O503 O 0.36488 0.4043 0.93524 0.0
C504 C 0.28183 0.77348 0.90941 0.0
C505 C 0.28015 0.8076 0.85895 0.0
C506 C 0.34207 0.89152 0.93647 0.0
C507 C 0.30694 0.88406 0.84794 0.0
C508 C 0.31509 0.81466 0.94742 0.0
C509 C 0.33786 0.92748 0.88663 0.0
C510 C 0.25486 0.69046 0.9202 0.0
C511 C 0.22927 0.37032 0.84883 0.0
H512 H 0.38078 0.20938 0.92273 0.0
H513 H 0.39272 0.9714 0.79729 0.0
H514 H 0.34494 1.07023 0.94815 0.0
H515 H 0.42305 0.11221 0.77066 0.0
H516 H 0.25761 0.77581 0.8277 0.0
H517 H 0.3671 0.92188 0.96669 0.0
H518 H 0.30237 0.90976 0.80913 0.0
H519 H 0.32133 0.78658 0.98536 0.0
Eu520 Eu 0.54695 0.78009 0.83837 0.0
Eu521 Eu 0.62405 0.6275 0.87041 0.0
C522 C 0.57592 0.74747 0.95888 0.0
C523 C 0.53295 1.00799 0.82251 0.0
C524 C 0.5572 1.02235 0.87176 0.0
C525 C 0.56125 0.14911 0.79669 0.0
C526 C 0.58446 0.09901 0.883 0.0
C527 C 0.53688 1.07092 0.78496 0.0
C528 C 0.58663 0.16458 0.84575 0.0
C529 C 0.50912 0.92481 0.80821 0.0
O530 O 0.53187 0.58499 0.88655 0.0
O531 O 0.4767 0.68681 0.84665 0.0
C532 C 0.48183 0.61486 0.87123 0.0
O533 O 0.56238 0.69417 0.76519 0.0
O534 O 0.65261 0.53334 0.92646 0.0
O535 O 0.69444 0.54317 0.85105 0.0
O536 O 0.5785 0.5677 0.80344 0.0
C537 C 0.56422 0.61009 0.76253 0.0
O538 O 0.62943 0.83996 0.86378 0.0
O539 O 0.68326 0.7308 0.83654 0.0
O540 O 0.62192 0.71103 0.94061 0.0
O541 O 0.54246 0.8783 0.7792 0.0
O542 O 0.48482 0.88186 0.84559 0.0
O543 O 0.53477 0.7701 0.92702 0.0
C544 C 0.66613 0.40716 0.87914 0.0
C545 C 0.65646 0.38099 0.82749 0.0
C546 C 0.62604 0.27434 0.90917 0.0
C547 C 0.63293 0.30178 0.81679 0.0
C548 C 0.6525 0.35185 0.91959 0.0
C549 C 0.61538 0.24769 0.85743 0.0
C550 C 0.68355 0.49492 0.89117 0.0
C551 C 0.6785 0.81216 0.84795 0.0
H552 H 0.5566 0.9734 0.90115 0.0
H553 H 0.55962 0.19667 0.76671 0.0
H554 H 0.60463 0.10502 0.92068 0.0
H555 H 0.52029 1.05942 0.74659 0.0
H556 H 0.66702 0.42162 0.79501 0.0
H557 H 0.61367 0.23655 0.94222 0.0
H558 H 0.6289 0.2841 0.77626 0.0
H559 H 0.6611 0.36999 0.95948 0.0
Eu560 Eu 0.34825 0.77742 0.64124 0.0
Eu561 Eu 0.27312 0.62754 0.61301 0.0
C562 C 0.31376 0.74211 0.52076 0.0
C563 C 0.36021 1.00492 0.66385 0.0
C564 C 0.3623 1.03884 0.61337 0.0
C565 C 0.30971 0.13002 0.6935 0.0
C566 C 0.33831 0.11777 0.60315 0.0
C567 C 0.33141 1.04978 0.70294 0.0
C568 C 0.31261 0.16535 0.64338 0.0
C569 C 0.38403 0.92077 0.67545 0.0
O570 O 0.36534 0.58629 0.59325 0.0
O571 O 0.42109 0.69073 0.62981 0.0
C572 C 0.41594 0.61796 0.60614 0.0
O573 O 0.33252 0.69198 0.71417 0.0
O574 O 0.23646 0.53411 0.56041 0.0
O575 O 0.2087 0.5402 0.64169 0.0
O576 O 0.32529 0.56607 0.67448 0.0
C577 C 0.33573 0.60817 0.71634 0.0
O578 O 0.26801 0.83965 0.61391 0.0
O579 O 0.21453 0.73398 0.64524 0.0
O580 O 0.27045 0.70096 0.53998 0.0
O581 O 0.35085 0.87194 0.70297 0.0
O582 O 0.40927 0.88044 0.6372 0.0
O583 O 0.35511 0.7693 0.55149 0.0
C584 C 0.23809 0.40815 0.60963 0.0
C585 C 0.21848 0.36068 0.65191 0.0
C586 C 0.31029 0.30125 0.593 0.0
C587 C 0.24193 0.2817 0.66258 0.0
C588 C 0.2857 0.37905 0.58157 0.0
C589 C 0.28794 0.25032 0.63288 0.0
C590 C 0.21467 0.49304 0.59995 0.0
C591 C 0.21905 0.81402 0.63081 0.0
H592 H 0.38225 1.00451 0.58163 0.0
H593 H 0.29078 0.16377 0.7259 0.0
H594 H 0.33955 0.1406 0.56347 0.0
H595 H 0.32487 1.0225 0.74085 0.0
H596 H 0.18442 0.38425 0.67649 0.0
H597 H 0.34731 0.28198 0.57077 0.0
H598 H 0.22285 0.24513 0.69352 0.0
H599 H 0.30464 0.41666 0.55093 0.0
Eu600 Eu 0.53184 0.39904 0.63302 0.0
Eu601 Eu 0.60828 0.5538 0.59413 0.0
C602 C 0.57447 0.41788 0.51518 0.0
C603 C 0.50074 0.17488 0.62939 0.0
C604 C 0.54128 0.17032 0.58908 0.0
C605 C 0.50743 1.0238 0.63979 0.0
C606 C 0.56511 0.09254 0.57451 0.0
C607 C 0.48368 0.10129 0.65393 0.0
C608 C 0.54882 1.01764 0.60006 0.0
C609 C 0.48117 0.25686 0.64945 0.0
O610 O 0.51348 0.58693 0.58112 0.0
O611 O 0.46531 0.49726 0.63565 0.0
C612 C 0.46645 0.5631 0.60547 0.0
O613 O 0.54598 0.48312 0.70725 0.0
O614 O 0.61668 0.64156 0.529 0.0
O615 O 0.67378 0.65158 0.59532 0.0
O616 O 0.58578 0.60301 0.67257 0.0
C617 C 0.56307 0.56346 0.71157 0.0
O618 O 0.61835 0.3386 0.62889 0.0
O619 O 0.67543 0.45587 0.62184 0.0
O620 O 0.61941 0.44847 0.53779 0.0
O621 O 0.51492 0.29183 0.68385 0.0
O622 O 0.46391 0.31012 0.61416 0.0
O623 O 0.52811 0.40962 0.54332 0.0
C624 C 0.6284 0.77607 0.56619 0.0
C625 C 0.60327 0.79274 0.61471 0.0
C626 C 0.59989 0.91664 0.53796 0.0
C627 C 0.57877 0.87075 0.6256 0.0
C628 C 0.6264 0.83868 0.52782 0.0
C629 C 0.57594 0.93419 0.58741 0.0
C630 C 0.65112 0.69057 0.55539 0.0
C631 C 0.66887 0.37295 0.62871 0.0
H632 H 0.55571 0.22722 0.56981 0.0
H633 H 0.49379 0.96924 0.66128 0.0
H634 H 0.59771 0.09215 0.54467 0.0
H635 H 0.45313 0.10432 0.68535 0.0
H636 H 0.60445 0.74668 0.64549 0.0
H637 H 0.59804 0.96243 0.50682 0.0
H638 H 0.56376 0.88107 0.66494 0.0
H639 H 0.64484 0.82712 0.49 0.0
loop_
_geom_bond_atom_site_label_1
_geom_bond_atom_site_label_2
_geom_bond_distance
_geom_bond_site_symmetry_2
_ccdc_geom_bond_type
Eu0 C9 2.828 1_545 S
Eu0 O11 2.392 . S
Eu0 O13 2.418 . S
Eu0 O18 2.373 1_545 S
Eu0 O21 2.488 1_545 S
Eu0 O22 2.471 1_545 S
Eu0 O23 2.349 . S
Eu1 O10 2.373 . S
Eu1 O14 2.488 . S
Eu1 O15 2.471 . S
Eu1 O16 2.349 . S
Eu1 O19 2.392 . S
Eu1 O20 2.418 . S
Eu1 C30 2.828 . S
C2 O20 1.244 . S
C2 O23 1.265 . S
C3 C4 1.379 . S
C3 C7 1.373 . S
C3 C9 1.505 . S
C4 C3 1.379 . S
C4 C6 1.369 . S
C4 H32 0.930 . S
C5 C7 1.383 . S
C5 C8 1.382 . S
C5 H33 0.930 . S
C6 C4 1.369 . S
C6 C8 1.392 . S
C6 H34 0.930 . S
C7 C3 1.373 . S
C7 C5 1.383 . S
C7 H35 0.931 . S
C8 C5 1.382 . S
C8 C6 1.392 . S
C9 Eu0 2.828 1_565 S
C9 C3 1.505 . S
C9 O21 1.249 . S
C9 O22 1.244 . S
O10 Eu1 2.373 . S
O10 C12 1.258 . S
O11 Eu0 2.392 . S
O11 C12 1.242 . S
C12 O10 1.258 . S
C12 O11 1.242 . S
O13 Eu0 2.418 . S
O13 C17 1.244 . S
O14 Eu1 2.488 . S
O14 C30 1.249 . S
O15 Eu1 2.471 . S
O15 C30 1.244 . S
O16 Eu1 2.349 . S
O16 C17 1.265 . S
C17 O13 1.244 . S
C17 O16 1.265 . S
O18 Eu0 2.373 1_565 S
O18 C31 1.253 1_565 S
O19 Eu1 2.392 . S
O19 C31 1.254 . S
O20 Eu1 2.418 . S
O20 C2 1.244 . S
O21 Eu0 2.488 1_565 S
O21 C9 1.249 . S
O22 Eu0 2.471 1_565 S
O22 C9 1.244 . S
O23 Eu0 2.349 . S
O23 C2 1.265 . S
C24 C25 1.379 . S
C24 C28 1.373 . S
C24 C30 1.505 . S
C25 C24 1.379 . S
C25 C27 1.369 . S
C25 H36 0.930 . S
C26 C28 1.383 . S
C26 C29 1.382 . S
C26 H37 0.930 . S
C27 C25 1.369 . S
C27 C29 1.392 . S
C27 H38 0.930 . S
C28 C24 1.373 . S
C28 C26 1.383 . S
C28 H39 0.931 . S
C29 C26 1.382 . S
C29 C27 1.392 . S
C30 Eu1 2.828 . S
C30 O14 1.249 . S
C30 O15 1.244 . S
C30 C24 1.505 . S
C31 O18 1.253 1_545 S
C31 O19 1.254 . S
H32 C4 0.930 . S
H33 C5 0.930 . S
H34 C6 0.930 . S
H35 C7 0.931 . S
H36 C25 0.930 . S
H37 C26 0.930 . S
H38 C27 0.930 . S
H39 C28 0.931 . S
Eu40 C49 2.828 1_565 S
Eu40 O51 2.392 . S
Eu40 O53 2.418 . S
Eu40 O58 2.373 1_565 S
Eu40 O61 2.488 1_565 S
Eu40 O62 2.471 1_565 S
Eu40 O63 2.349 . S
Eu41 O50 2.373 . S
Eu41 O54 2.488 . S
Eu41 O55 2.471 . S
Eu41 O56 2.349 . S
Eu41 O59 2.392 . S
Eu41 O60 2.418 . S
Eu41 C70 2.828 . S
C42 O60 1.244 . S
C42 O63 1.265 . S
C43 C44 1.379 . S
C43 C47 1.373 . S
C43 C49 1.505 . S
C44 C43 1.379 . S
C44 C46 1.369 . S
C44 H72 0.930 . S
C45 C47 1.383 . S
C45 C48 1.382 . S
C45 H73 0.930 . S
C46 C44 1.369 . S
C46 C48 1.392 . S
C46 H74 0.930 . S
C47 C43 1.373 . S
C47 C45 1.383 . S
C47 H75 0.931 . S
C48 C45 1.382 . S
C48 C46 1.392 . S
C49 Eu40 2.828 1_545 S
C49 C43 1.505 . S
C49 O61 1.249 . S
C49 O62 1.244 . S
O50 Eu41 2.373 . S
O50 C52 1.258 . S
O51 Eu40 2.392 . S
O51 C52 1.242 . S
C52 O50 1.258 . S
C52 O51 1.242 . S
O53 Eu40 2.418 . S
O53 C57 1.244 . S
O54 Eu41 2.488 . S
O54 C70 1.249 . S
O55 Eu41 2.471 . S
O55 C70 1.244 . S
O56 Eu41 2.349 . S
O56 C57 1.265 . S
C57 O53 1.244 . S
C57 O56 1.265 . S
O58 Eu40 2.373 1_545 S
O58 C71 1.253 1_545 S
O59 Eu41 2.392 . S
O59 C71 1.254 . S
O60 Eu41 2.418 . S
O60 C42 1.244 . S
O61 Eu40 2.488 1_545 S
O61 C49 1.249 . S
O62 Eu40 2.471 1_545 S
O62 C49 1.244 . S
O63 Eu40 2.349 . S
O63 C42 1.265 . S
C64 C65 1.379 . S
C64 C68 1.373 . S
C64 C70 1.505 . S
C65 C64 1.379 . S
C65 C67 1.369 . S
C65 H76 0.930 . S
C66 C68 1.383 . S
C66 C69 1.382 . S
C66 H77 0.930 . S
C67 C65 1.369 . S
C67 C69 1.392 . S
C67 H78 0.930 . S
C68 C64 1.373 . S
C68 C66 1.383 . S
C68 H79 0.931 . S
C69 C66 1.382 . S
C69 C67 1.392 . S
C70 Eu41 2.828 . S
C70 O54 1.249 . S
C70 O55 1.244 . S
C70 C64 1.505 . S
C71 O58 1.253 1_565 S
C71 O59 1.254 . S
H72 C44 0.930 . S
H73 C45 0.930 . S
H74 C46 0.930 . S
H75 C47 0.931 . S
H76 C65 0.930 . S
H77 C66 0.930 . S
H78 C67 0.930 . S
H79 C68 0.931 . S
Eu80 C89 2.828 1_565 S
Eu80 O91 2.392 . S
Eu80 O93 2.418 . S
Eu80 O98 2.373 1_565 S
Eu80 O101 2.488 1_565 S
Eu80 O102 2.471 1_565 S
Eu80 O103 2.349 . S
Eu81 O90 2.373 . S
Eu81 O94 2.488 . S
Eu81 O95 2.471 . S
Eu81 O96 2.349 . S
Eu81 O99 2.392 . S
Eu81 O100 2.418 . S
Eu81 C110 2.828 . S
C82 O100 1.244 . S
C82 O103 1.265 . S
C83 C84 1.379 . S
C83 C87 1.373 . S
C83 C89 1.505 . S
C84 C83 1.379 . S
C84 C86 1.369 . S
C84 H112 0.930 . S
C85 C87 1.383 . S
C85 C88 1.382 . S
C85 H113 0.930 . S
C86 C84 1.369 . S
C86 C88 1.392 . S
C86 H114 0.930 . S
C87 C83 1.373 . S
C87 C85 1.383 . S
C87 H115 0.931 . S
C88 C85 1.382 . S
C88 C86 1.392 . S
C89 Eu80 2.828 1_545 S
C89 C83 1.505 . S
C89 O101 1.249 . S
C89 O102 1.244 . S
O90 Eu81 2.373 . S
O90 C92 1.258 . S
O91 Eu80 2.392 . S
O91 C92 1.242 . S
C92 O90 1.258 . S
C92 O91 1.242 . S
O93 Eu80 2.418 . S
O93 C97 1.244 . S
O94 Eu81 2.488 . S
O94 C110 1.249 . S
O95 Eu81 2.471 . S
O95 C110 1.244 . S
O96 Eu81 2.349 . S
O96 C97 1.265 . S
C97 O93 1.244 . S
C97 O96 1.265 . S
O98 Eu80 2.373 1_545 S
O98 C111 1.253 1_545 S
O99 Eu81 2.392 . S
O99 C111 1.254 . S
O100 Eu81 2.418 . S
O100 C82 1.244 . S
O101 Eu80 2.488 1_545 S
O101 C89 1.249 . S
O102 Eu80 2.471 1_545 S
O102 C89 1.244 . S
O103 Eu80 2.349 . S
O103 C82 1.265 . S
C104 C105 1.379 . S
C104 C108 1.373 . S
C104 C110 1.505 . S
C105 C104 1.379 . S
C105 C107 1.369 . S
C105 H116 0.930 . S
C106 C108 1.383 . S
C106 C109 1.382 . S
C106 H117 0.930 . S
C107 C105 1.369 . S
C107 C109 1.392 . S
C107 H118 0.930 . S
C108 C104 1.373 . S
C108 C106 1.383 . S
C108 H119 0.931 . S
C109 C106 1.382 . S
C109 C107 1.392 . S
C110 Eu81 2.828 . S
C110 O94 1.249 . S
C110 O95 1.244 . S
C110 C104 1.505 . S
C111 O98 1.253 1_565 S
C111 O99 1.254 . S
H112 C84 0.930 . S
H113 C85 0.930 . S
H114 C86 0.930 . S
H115 C87 0.931 . S
H116 C105 0.930 . S
H117 C106 0.930 . S
H118 C107 0.930 . S
H119 C108 0.931 . S
Eu120 C129 2.828 1_545 S
Eu120 O131 2.392 . S
Eu120 O133 2.418 . S
Eu120 O138 2.373 1_545 S
Eu120 O141 2.488 1_545 S
Eu120 O142 2.471 1_545 S
Eu120 O143 2.349 . S
Eu121 O130 2.373 . S
Eu121 O134 2.488 . S
Eu121 O135 2.471 . S
Eu121 O136 2.349 . S
Eu121 O139 2.392 . S
Eu121 O140 2.418 . S
Eu121 C150 2.828 . S
C122 O140 1.244 . S
C122 O143 1.265 . S
C123 C124 1.379 . S
C123 C127 1.373 . S
C123 C129 1.505 . S
C124 C123 1.379 . S
C124 C126 1.369 . S
C124 H152 0.930 . S
C125 C127 1.383 . S
C125 C128 1.382 . S
C125 H153 0.930 . S
C126 C124 1.369 . S
C126 C128 1.392 . S
C126 H154 0.930 . S
C127 C123 1.373 . S
C127 C125 1.383 . S
C127 H155 0.931 . S
C128 C125 1.382 . S
C128 C126 1.392 . S
C129 Eu120 2.828 1_565 S
C129 C123 1.505 . S
C129 O141 1.249 . S
C129 O142 1.244 . S
O130 Eu121 2.373 . S
O130 C132 1.258 . S
O131 Eu120 2.392 . S
O131 C132 1.242 . S
C132 O130 1.258 . S
C132 O131 1.242 . S
O133 Eu120 2.418 . S
O133 C137 1.244 . S
O134 Eu121 2.488 . S
O134 C150 1.249 . S
O135 Eu121 2.471 . S
O135 C150 1.244 . S
O136 Eu121 2.349 . S
O136 C137 1.265 . S
C137 O133 1.244 . S
C137 O136 1.265 . S
O138 Eu120 2.373 1_565 S
O138 C151 1.253 1_565 S
O139 Eu121 2.392 . S
O139 C151 1.254 . S
O140 Eu121 2.418 . S
O140 C122 1.244 . S
O141 Eu120 2.488 1_565 S
O141 C129 1.249 . S
O142 Eu120 2.471 1_565 S
O142 C129 1.244 . S
O143 Eu120 2.349 . S
O143 C122 1.265 . S
C144 C145 1.379 . S
C144 C148 1.373 . S
C144 C150 1.505 . S
C145 C144 1.379 . S
C145 C147 1.369 . S
C145 H156 0.930 . S
C146 C148 1.383 . S
C146 C149 1.382 . S
C146 H157 0.930 . S
C147 C145 1.369 . S
C147 C149 1.392 . S
C147 H158 0.930 . S
C148 C144 1.373 . S
C148 C146 1.383 . S
C148 H159 0.931 . S
C149 C146 1.382 . S
C149 C147 1.392 . S
C150 Eu121 2.828 . S
C150 O134 1.249 . S
C150 O135 1.244 . S
C150 C144 1.505 . S
C151 O138 1.253 1_545 S
C151 O139 1.254 . S
H152 C124 0.930 . S
H153 C125 0.930 . S
H154 C126 0.930 . S
H155 C127 0.931 . S
H156 C145 0.930 . S
H157 C146 0.930 . S
H158 C147 0.930 . S
H159 C148 0.931 . S
Eu160 C169 2.828 . S
Eu160 O171 2.392 . S
Eu160 O173 2.418 . S
Eu160 O178 2.373 . S
Eu160 O181 2.488 . S
Eu160 O182 2.471 . S
Eu160 O183 2.349 . S
Eu161 O170 2.373 1_565 S
Eu161 O174 2.488 1_565 S
Eu161 O175 2.471 1_565 S
Eu161 O176 2.349 . S
Eu161 O179 2.392 . S
Eu161 O180 2.418 . S
Eu161 C190 2.828 1_565 S
C162 O180 1.244 . S
C162 O183 1.265 . S
C163 C164 1.379 . S
C163 C167 1.373 . S
C163 C169 1.505 . S
C164 C163 1.379 . S
C164 C166 1.369 . S
C164 H192 0.930 . S
C165 C167 1.383 . S
C165 C168 1.382 . S
C165 H193 0.930 . S
C166 C164 1.369 . S
C166 C168 1.392 . S
C166 H194 0.930 . S
C167 C163 1.373 . S
C167 C165 1.383 . S
C167 H195 0.931 . S
C168 C165 1.382 . S
C168 C166 1.392 . S
C169 Eu160 2.828 . S
C169 C163 1.505 . S
C169 O181 1.249 . S
C169 O182 1.244 . S
O170 Eu161 2.373 1_545 S
O170 C172 1.253 1_545 S
O171 Eu160 2.392 . S
O171 C172 1.254 . S
C172 O170 1.253 1_565 S
C172 O171 1.254 . S
O173 Eu160 2.418 . S
O173 C177 1.244 . S
O174 Eu161 2.488 1_545 S
O174 C190 1.249 . S
O175 Eu161 2.471 1_545 S
O175 C190 1.244 . S
O176 Eu161 2.349 . S
O176 C177 1.265 . S
C177 O173 1.244 . S
C177 O176 1.265 . S
O178 Eu160 2.373 . S
O178 C191 1.258 . S
O179 Eu161 2.392 . S
O179 C191 1.242 . S
O180 Eu161 2.418 . S
O180 C162 1.244 . S
O181 Eu160 2.488 . S
O181 C169 1.249 . S
O182 Eu160 2.471 . S
O182 C169 1.244 . S
O183 Eu160 2.349 . S
O183 C162 1.265 . S
C184 C185 1.379 . S
C184 C188 1.373 . S
C184 C190 1.505 . S
C185 C184 1.379 . S
C185 C187 1.369 . S
C185 H196 0.930 . S
C186 C188 1.383 . S
C186 C189 1.382 . S
C186 H197 0.930 . S
C187 C185 1.369 . S
C187 C189 1.392 . S
C187 H198 0.930 . S
C188 C184 1.373 . S
C188 C186 1.383 . S
C188 H199 0.931 . S
C189 C186 1.382 . S
C189 C187 1.392 . S
C190 Eu161 2.828 1_545 S
C190 O174 1.249 . S
C190 O175 1.244 . S
C190 C184 1.505 . S
C191 O178 1.258 . S
C191 O179 1.242 . S
H192 C164 0.930 . S
H193 C165 0.930 . S
H194 C166 0.930 . S
H195 C167 0.931 . S
H196 C185 0.930 . S
H197 C186 0.930 . S
H198 C187 0.930 . S
H199 C188 0.931 . S
Eu200 C209 2.828 . S
Eu200 O211 2.392 . S
Eu200 O213 2.418 . S
Eu200 O218 2.373 . S
Eu200 O221 2.488 . S
Eu200 O222 2.471 . S
Eu200 O223 2.349 . S
Eu201 O210 2.373 1_545 S
Eu201 O214 2.488 1_545 S
Eu201 O215 2.471 1_545 S
Eu201 O216 2.349 . S
Eu201 O219 2.392 . S
Eu201 O220 2.418 . S
Eu201 C230 2.828 1_545 S
C202 O220 1.244 . S
C202 O223 1.265 . S
C203 C204 1.379 . S
C203 C207 1.373 . S
C203 C209 1.505 . S
C204 C203 1.379 . S
C204 C206 1.369 . S
C204 H232 0.930 . S
C205 C207 1.383 . S
C205 C208 1.382 . S
C205 H233 0.930 . S
C206 C204 1.369 . S
C206 C208 1.392 . S
C206 H234 0.930 . S
C207 C203 1.373 . S
C207 C205 1.383 . S
C207 H235 0.931 . S
C208 C205 1.382 . S
C208 C206 1.392 . S
C209 Eu200 2.828 . S
C209 C203 1.505 . S
C209 O221 1.249 . S
C209 O222 1.244 . S
O210 Eu201 2.373 1_565 S
O210 C212 1.253 1_565 S
O211 Eu200 2.392 . S
O211 C212 1.254 . S
C212 O210 1.253 1_545 S
C212 O211 1.254 . S
O213 Eu200 2.418 . S
O213 C217 1.244 . S
O214 Eu201 2.488 1_565 S
O214 C230 1.249 . S
O215 Eu201 2.471 1_565 S
O215 C230 1.244 . S
O216 Eu201 2.349 . S
O216 C217 1.265 . S
C217 O213 1.244 . S
C217 O216 1.265 . S
O218 Eu200 2.373 . S
O218 C231 1.258 . S
O219 Eu201 2.392 . S
O219 C231 1.242 . S
O220 Eu201 2.418 . S
O220 C202 1.244 . S
O221 Eu200 2.488 . S
O221 C209 1.249 . S
O222 Eu200 2.471 . S
O222 C209 1.244 . S
O223 Eu200 2.349 . S
O223 C202 1.265 . S
C224 C225 1.379 . S
C224 C228 1.373 . S
C224 C230 1.505 . S
C225 C224 1.379 . S
C225 C227 1.369 . S
C225 H236 0.930 . S
C226 C228 1.383 . S
C226 C229 1.382 . S
C226 H237 0.930 . S
C227 C225 1.369 . S
C227 C229 1.392 . S
C227 H238 0.930 . S
C228 C224 1.373 . S
C228 C226 1.383 . S
C228 H239 0.931 . S
C229 C226 1.382 . S
C229 C227 1.392 . S
C230 Eu201 2.828 1_565 S
C230 O214 1.249 . S
C230 O215 1.244 . S
C230 C224 1.505 . S
C231 O218 1.258 . S
C231 O219 1.242 . S
H232 C204 0.930 . S
H233 C205 0.930 . S
H234 C206 0.930 . S
H235 C207 0.931 . S
H236 C225 0.930 . S
H237 C226 0.930 . S
H238 C227 0.930 . S
H239 C228 0.931 . S
Eu240 C249 2.828 . S
Eu240 O251 2.392 . S
Eu240 O253 2.418 . S
Eu240 O258 2.373 . S
Eu240 O261 2.488 . S
Eu240 O262 2.471 . S
Eu240 O263 2.349 . S
Eu241 O250 2.373 1_545 S
Eu241 O254 2.488 1_545 S
Eu241 O255 2.471 1_545 S
Eu241 O256 2.349 . S
Eu241 O259 2.392 . S
Eu241 O260 2.418 . S
Eu241 C270 2.828 1_545 S
C242 O260 1.244 . S
C242 O263 1.265 . S
C243 C244 1.379 . S
C243 C247 1.373 . S
C243 C249 1.505 . S
C244 C243 1.379 . S
C244 C246 1.369 . S
C244 H272 0.930 . S
C245 C247 1.383 . S
C245 C248 1.382 . S
C245 H273 0.930 . S
C246 C244 1.369 . S
C246 C248 1.392 . S
C246 H274 0.930 . S
C247 C243 1.373 . S
C247 C245 1.383 . S
C247 H275 0.931 . S
C248 C245 1.382 . S
C248 C246 1.392 . S
C249 Eu240 2.828 . S
C249 C243 1.505 . S
C249 O261 1.249 . S
C249 O262 1.244 . S
O250 Eu241 2.373 1_565 S
O250 C252 1.253 1_565 S
O251 Eu240 2.392 . S
O251 C252 1.254 . S
C252 O250 1.253 1_545 S
C252 O251 1.254 . S
O253 Eu240 2.418 . S
O253 C257 1.244 . S
O254 Eu241 2.488 1_565 S
O254 C270 1.249 . S
O255 Eu241 2.471 1_565 S
O255 C270 1.244 . S
O256 Eu241 2.349 . S
O256 C257 1.265 . S
C257 O253 1.244 . S
C257 O256 1.265 . S
O258 Eu240 2.373 . S
O258 C271 1.258 . S
O259 Eu241 2.392 . S
O259 C271 1.242 . S
O260 Eu241 2.418 . S
O260 C242 1.244 . S
O261 Eu240 2.488 . S
O261 C249 1.249 . S
O262 Eu240 2.471 . S
O262 C249 1.244 . S
O263 Eu240 2.349 . S
O263 C242 1.265 . S
C264 C265 1.379 . S
C264 C268 1.373 . S
C264 C270 1.505 . S
C265 C264 1.379 . S
C265 C267 1.369 . S
C265 H276 0.930 . S
C266 C268 1.383 . S
C266 C269 1.382 . S
C266 H277 0.930 . S
C267 C265 1.369 . S
C267 C269 1.392 . S
C267 H278 0.930 . S
C268 C264 1.373 . S
C268 C266 1.383 . S
C268 H279 0.931 . S
C269 C266 1.382 . S
C269 C267 1.392 . S
C270 Eu241 2.828 1_565 S
C270 O254 1.249 . S
C270 O255 1.244 . S
C270 C264 1.505 . S
C271 O258 1.258 . S
C271 O259 1.242 . S
H272 C244 0.930 . S
H273 C245 0.930 . S
H274 C246 0.930 . S
H275 C247 0.931 . S
H276 C265 0.930 . S
H277 C266 0.930 . S
H278 C267 0.930 . S
H279 C268 0.931 . S
Eu280 C289 2.828 . S
Eu280 O291 2.392 . S
Eu280 O293 2.418 . S
Eu280 O298 2.373 . S
Eu280 O301 2.488 . S
Eu280 O302 2.471 . S
Eu280 O303 2.349 . S
Eu281 O290 2.373 1_565 S
Eu281 O294 2.488 1_565 S
Eu281 O295 2.471 1_565 S
Eu281 O296 2.349 . S
Eu281 O299 2.392 . S
Eu281 O300 2.418 . S
Eu281 C310 2.828 1_565 S
C282 O300 1.244 . S
C282 O303 1.265 . S
C283 C284 1.379 . S
C283 C287 1.373 . S
C283 C289 1.505 . S
C284 C283 1.379 . S
C284 C286 1.369 . S
C284 H312 0.930 . S
C285 C287 1.383 . S
C285 C288 1.382 . S
C285 H313 0.930 . S
C286 C284 1.369 . S
C286 C288 1.392 . S
C286 H314 0.930 . S
C287 C283 1.373 . S
C287 C285 1.383 . S
C287 H315 0.931 . S
C288 C285 1.382 . S
C288 C286 1.392 . S
C289 Eu280 2.828 . S
C289 C283 1.505 . S
C289 O301 1.249 . S
C289 O302 1.244 . S
O290 Eu281 2.373 1_545 S
O290 C292 1.253 1_545 S
O291 Eu280 2.392 . S
O291 C292 1.254 . S
C292 O290 1.253 1_565 S
C292 O291 1.254 . S
O293 Eu280 2.418 . S
O293 C297 1.244 . S
O294 Eu281 2.488 1_545 S
O294 C310 1.249 . S
O295 Eu281 2.471 1_545 S
O295 C310 1.244 . S
O296 Eu281 2.349 . S
O296 C297 1.265 . S
C297 O293 1.244 . S
C297 O296 1.265 . S
O298 Eu280 2.373 . S
O298 C311 1.258 . S
O299 Eu281 2.392 . S
O299 C311 1.242 . S
O300 Eu281 2.418 . S
O300 C282 1.244 . S
O301 Eu280 2.488 . S
O301 C289 1.249 . S
O302 Eu280 2.471 . S
O302 C289 1.244 . S
O303 Eu280 2.349 . S
O303 C282 1.265 . S
C304 C305 1.379 . S
C304 C308 1.373 . S
C304 C310 1.505 . S
C305 C304 1.379 . S
C305 C307 1.369 . S
C305 H316 0.930 . S
C306 C308 1.383 . S
C306 C309 1.382 . S
C306 H317 0.930 . S
C307 C305 1.369 . S
C307 C309 1.392 . S
C307 H318 0.930 . S
C308 C304 1.373 . S
C308 C306 1.383 . S
C308 H319 0.931 . S
C309 C306 1.382 . S
C309 C307 1.392 . S
C310 Eu281 2.828 1_545 S
C310 O294 1.249 . S
C310 O295 1.244 . S
C310 C304 1.505 . S
C311 O298 1.258 . S
C311 O299 1.242 . S
H312 C284 0.930 . S
H313 C285 0.930 . S
H314 C286 0.930 . S
H315 C287 0.931 . S
H316 C305 0.930 . S
H317 C306 0.930 . S
H318 C307 0.930 . S
H319 C308 0.931 . S
Eu320 C329 2.828 . S
Eu320 O331 2.392 . S
Eu320 O333 2.418 . S
Eu320 O338 2.373 . S
Eu320 O341 2.488 . S
Eu320 O342 2.471 . S
Eu320 O343 2.349 . S
Eu321 O330 2.373 . S
Eu321 O334 2.488 . S
Eu321 O335 2.471 . S
Eu321 O336 2.349 . S
Eu321 O339 2.392 . S
Eu321 O340 2.418 . S
Eu321 C350 2.828 . S
C322 O340 1.244 . S
C322 O343 1.265 . S
C323 C324 1.379 . S
C323 C327 1.373 . S
C323 C329 1.505 . S
C324 C323 1.379 . S
C324 C326 1.369 . S
C324 H352 0.930 . S
C325 C327 1.383 . S
C325 C328 1.382 . S
C325 H353 0.930 . S
C326 C324 1.369 . S
C326 C328 1.392 . S
C326 H354 0.930 . S
C327 C323 1.373 . S
C327 C325 1.383 . S
C327 H355 0.931 . S
C328 C325 1.382 . S
C328 C326 1.392 . S
C329 Eu320 2.828 . S
C329 C323 1.505 . S
C329 O341 1.249 . S
C329 O342 1.244 . S
O330 Eu321 2.373 . S
O330 C332 1.258 . S
O331 Eu320 2.392 . S
O331 C332 1.242 . S
C332 O330 1.258 . S
C332 O331 1.242 . S
O333 Eu320 2.418 . S
O333 C337 1.244 . S
O334 Eu321 2.488 . S
O334 C350 1.249 . S
O335 Eu321 2.471 . S
O335 C350 1.244 . S
O336 Eu321 2.349 . S
O336 C337 1.265 . S
C337 O333 1.244 . S
C337 O336 1.265 . S
O338 Eu320 2.373 . S
O338 C351 1.258 . S
O339 Eu321 2.392 . S
O339 C351 1.242 . S
O340 Eu321 2.418 . S
O340 C322 1.244 . S
O341 Eu320 2.488 . S
O341 C329 1.249 . S
O342 Eu320 2.471 . S
O342 C329 1.244 . S
O343 Eu320 2.349 . S
O343 C322 1.265 . S
C344 C345 1.379 . S
C344 C348 1.373 . S
C344 C350 1.505 . S
C345 C344 1.379 . S
C345 C347 1.369 1_565 S
C345 H356 0.930 . S
C346 C348 1.383 1_545 S
C346 C349 1.382 . S
C346 H357 0.930 . S
C347 C345 1.369 1_545 S
C347 C349 1.392 . S
C347 H358 0.930 . S
C348 C344 1.373 . S
C348 C346 1.383 1_565 S
C348 H359 0.931 . S
C349 C346 1.382 . S
C349 C347 1.392 . S
C350 Eu321 2.828 . S
C350 O334 1.249 . S
C350 O335 1.244 . S
C350 C344 1.505 . S
C351 O338 1.258 . S
C351 O339 1.242 . S
H352 C324 0.930 . S
H353 C325 0.930 . S
H354 C326 0.930 . S
H355 C327 0.931 . S
H356 C345 0.930 . S
H357 C346 0.930 . S
H358 C347 0.930 . S
H359 C348 0.931 . S
Eu360 C369 2.828 . S
Eu360 O371 2.392 . S
Eu360 O373 2.418 . S
Eu360 O378 2.373 . S
Eu360 O381 2.488 . S
Eu360 O382 2.471 . S
Eu360 O383 2.349 . S
Eu361 O370 2.373 . S
Eu361 O374 2.488 . S
Eu361 O375 2.471 . S
Eu361 O376 2.349 . S
Eu361 O379 2.392 . S
Eu361 O380 2.418 . S
Eu361 C390 2.828 . S
C362 O380 1.244 . S
C362 O383 1.265 . S
C363 C364 1.379 . S
C363 C367 1.373 . S
C363 C369 1.505 . S
C364 C363 1.379 . S
C364 C366 1.369 . S
C364 H392 0.930 . S
C365 C367 1.383 . S
C365 C368 1.382 . S
C365 H393 0.930 . S
C366 C364 1.369 . S
C366 C368 1.392 . S
C366 H394 0.930 . S
C367 C363 1.373 . S
C367 C365 1.383 . S
C367 H395 0.931 . S
C368 C365 1.382 . S
C368 C366 1.392 . S
C369 Eu360 2.828 . S
C369 C363 1.505 . S
C369 O381 1.249 . S
C369 O382 1.244 . S
O370 Eu361 2.373 . S
O370 C372 1.258 . S
O371 Eu360 2.392 . S
O371 C372 1.242 . S
C372 O370 1.258 . S
C372 O371 1.242 . S
O373 Eu360 2.418 . S
O373 C377 1.244 . S
O374 Eu361 2.488 . S
O374 C390 1.249 . S
O375 Eu361 2.471 . S
O375 C390 1.244 . S
O376 Eu361 2.349 . S
O376 C377 1.265 . S
C377 O373 1.244 . S
C377 O376 1.265 . S
O378 Eu360 2.373 . S
O378 C391 1.258 . S
O379 Eu361 2.392 . S
O379 C391 1.242 . S
O380 Eu361 2.418 . S
O380 C362 1.244 . S
O381 Eu360 2.488 . S
O381 C369 1.249 . S
O382 Eu360 2.471 . S
O382 C369 1.244 . S
O383 Eu360 2.349 . S
O383 C362 1.265 . S
C384 C385 1.379 . S
C384 C388 1.373 . S
C384 C390 1.505 . S
C385 C384 1.379 . S
C385 C387 1.369 1_545 S
C385 H396 0.930 . S
C386 C388 1.383 1_565 S
C386 C389 1.382 . S
C386 H397 0.930 . S
C387 C385 1.369 1_565 S
C387 C389 1.392 . S
C387 H398 0.930 . S
C388 C384 1.373 . S
C388 C386 1.383 1_545 S
C388 H399 0.931 . S
C389 C386 1.382 . S
C389 C387 1.392 . S
C390 Eu361 2.828 . S
C390 O374 1.249 . S
C390 O375 1.244 . S
C390 C384 1.505 . S
C391 O378 1.258 . S
C391 O379 1.242 . S
H392 C364 0.930 . S
H393 C365 0.930 . S
H394 C366 0.930 . S
H395 C367 0.931 . S
H396 C385 0.930 . S
H397 C386 0.930 . S
H398 C387 0.930 . S
H399 C388 0.931 . S
Eu400 C409 2.828 . S
Eu400 O411 2.392 . S
Eu400 O413 2.418 . S
Eu400 O418 2.373 . S
Eu400 O421 2.488 . S
Eu400 O422 2.471 . S
Eu400 O423 2.349 . S
Eu401 O410 2.373 . S
Eu401 O414 2.488 . S
Eu401 O415 2.471 . S
Eu401 O416 2.349 . S
Eu401 O419 2.392 . S
Eu401 O420 2.418 . S
Eu401 C430 2.828 . S
C402 O420 1.244 . S
C402 O423 1.265 . S
C403 C404 1.379 . S
C403 C407 1.373 . S
C403 C409 1.505 . S
C404 C403 1.379 . S
C404 C406 1.369 . S
C404 H432 0.930 . S
C405 C407 1.383 . S
C405 C408 1.382 . S
C405 H433 0.930 . S
C406 C404 1.369 . S
C406 C408 1.392 . S
C406 H434 0.930 . S
C407 C403 1.373 . S
C407 C405 1.383 . S
C407 H435 0.931 . S
C408 C405 1.382 . S
C408 C406 1.392 . S
C409 Eu400 2.828 . S
C409 C403 1.505 . S
C409 O421 1.249 . S
C409 O422 1.244 . S
O410 Eu401 2.373 . S
O410 C412 1.258 . S
O411 Eu400 2.392 . S
O411 C412 1.242 . S
C412 O410 1.258 . S
C412 O411 1.242 . S
O413 Eu400 2.418 . S
O413 C417 1.244 . S
O414 Eu401 2.488 . S
O414 C430 1.249 . S
O415 Eu401 2.471 . S
O415 C430 1.244 . S
O416 Eu401 2.349 . S
O416 C417 1.265 . S
C417 O413 1.244 . S
C417 O416 1.265 . S
O418 Eu400 2.373 . S
O418 C431 1.258 . S
O419 Eu401 2.392 . S
O419 C431 1.242 . S
O420 Eu401 2.418 . S
O420 C402 1.244 . S
O421 Eu400 2.488 . S
O421 C409 1.249 . S
O422 Eu400 2.471 . S
O422 C409 1.244 . S
O423 Eu400 2.349 . S
O423 C402 1.265 . S
C424 C425 1.379 . S
C424 C428 1.373 . S
C424 C430 1.505 . S
C425 C424 1.379 . S
C425 C427 1.369 1_545 S
C425 H436 0.930 . S
C426 C428 1.383 1_565 S
C426 C429 1.382 . S
C426 H437 0.930 . S
C427 C425 1.369 1_565 S
C427 C429 1.392 . S
C427 H438 0.930 . S
C428 C424 1.373 . S
C428 C426 1.383 1_545 S
C428 H439 0.931 . S
C429 C426 1.382 . S
C429 C427 1.392 . S
C430 Eu401 2.828 . S
C430 O414 1.249 . S
C430 O415 1.244 . S
C430 C424 1.505 . S
C431 O418 1.258 . S
C431 O419 1.242 . S
H432 C404 0.930 . S
H433 C405 0.930 . S
H434 C406 0.930 . S
H435 C407 0.931 . S
H436 C425 0.930 . S
H437 C426 0.930 . S
H438 C427 0.930 . S
H439 C428 0.931 . S
Eu440 C449 2.828 . S
Eu440 O451 2.392 . S
Eu440 O453 2.418 . S
Eu440 O458 2.373 . S
Eu440 O461 2.488 . S
Eu440 O462 2.471 . S
Eu440 O463 2.349 . S
Eu441 O450 2.373 . S
Eu441 O454 2.488 . S
Eu441 O455 2.471 . S
Eu441 O456 2.349 . S
Eu441 O459 2.392 . S
Eu441 O460 2.418 . S
Eu441 C470 2.828 . S
C442 O460 1.244 . S
C442 O463 1.265 . S
C443 C444 1.379 . S
C443 C447 1.373 . S
C443 C449 1.505 . S
C444 C443 1.379 . S
C444 C446 1.369 . S
C444 H472 0.930 . S
C445 C447 1.383 . S
C445 C448 1.382 . S
C445 H473 0.930 . S
C446 C444 1.369 . S
C446 C448 1.392 . S
C446 H474 0.930 . S
C447 C443 1.373 . S
C447 C445 1.383 . S
C447 H475 0.931 . S
C448 C445 1.382 . S
C448 C446 1.392 . S
C449 Eu440 2.828 . S
C449 C443 1.505 . S
C449 O461 1.249 . S
C449 O462 1.244 . S
O450 Eu441 2.373 . S
O450 C452 1.258 . S
O451 Eu440 2.392 . S
O451 C452 1.242 . S
C452 O450 1.258 . S
C452 O451 1.242 . S
O453 Eu440 2.418 . S
O453 C457 1.244 . S
O454 Eu441 2.488 . S
O454 C470 1.249 . S
O455 Eu441 2.471 . S
O455 C470 1.244 . S
O456 Eu441 2.349 . S
O456 C457 1.265 . S
C457 O453 1.244 . S
C457 O456 1.265 . S
O458 Eu440 2.373 . S
O458 C471 1.258 . S
O459 Eu441 2.392 . S
O459 C471 1.242 . S
O460 Eu441 2.418 . S
O460 C442 1.244 . S
O461 Eu440 2.488 . S
O461 C449 1.249 . S
O462 Eu440 2.471 . S
O462 C449 1.244 . S
O463 Eu440 2.349 . S
O463 C442 1.265 . S
C464 C465 1.379 . S
C464 C468 1.373 . S
C464 C470 1.505 . S
C465 C464 1.379 . S
C465 C467 1.369 1_565 S
C465 H476 0.930 . S
C466 C468 1.383 1_545 S
C466 C469 1.382 . S
C466 H477 0.930 . S
C467 C465 1.369 1_545 S
C467 C469 1.392 . S
C467 H478 0.930 . S
C468 C464 1.373 . S
C468 C466 1.383 1_565 S
C468 H479 0.931 . S
C469 C466 1.382 . S
C469 C467 1.392 . S
C470 Eu441 2.828 . S
C470 O454 1.249 . S
C470 O455 1.244 . S
C470 C464 1.505 . S
C471 O458 1.258 . S
C471 O459 1.242 . S
H472 C444 0.930 . S
H473 C445 0.930 . S
H474 C446 0.930 . S
H475 C447 0.931 . S
H476 C465 0.930 . S
H477 C466 0.930 . S
H478 C467 0.930 . S
H479 C468 0.931 . S
Eu480 C489 2.828 . S
Eu480 O491 2.392 . S
Eu480 O493 2.418 . S
Eu480 O498 2.373 . S
Eu480 O501 2.488 . S
Eu480 O502 2.471 . S
Eu480 O503 2.349 . S
Eu481 O490 2.373 . S
Eu481 O494 2.488 . S
Eu481 O495 2.471 . S
Eu481 O496 2.349 . S
Eu481 O499 2.392 . S
Eu481 O500 2.418 . S
Eu481 C510 2.828 . S
C482 O500 1.244 . S
C482 O503 1.265 . S
C483 C484 1.379 . S
C483 C487 1.373 . S
C483 C489 1.505 . S
C484 C483 1.379 . S
C484 C486 1.369 1_545 S
C484 H512 0.930 . S
C485 C487 1.383 1_565 S
C485 C488 1.382 . S
C485 H513 0.930 . S
C486 C484 1.369 1_565 S
C486 C488 1.392 . S
C486 H514 0.930 . S
C487 C483 1.373 . S
C487 C485 1.383 1_545 S
C487 H515 0.931 . S
C488 C485 1.382 . S
C488 C486 1.392 . S
C489 Eu480 2.828 . S
C489 C483 1.505 . S
C489 O501 1.249 . S
C489 O502 1.244 . S
O490 Eu481 2.373 . S
O490 C492 1.258 . S
O491 Eu480 2.392 . S
O491 C492 1.242 . S
C492 O490 1.258 . S
C492 O491 1.242 . S
O493 Eu480 2.418 . S
O493 C497 1.244 . S
O494 Eu481 2.488 . S
O494 C510 1.249 . S
O495 Eu481 2.471 . S
O495 C510 1.244 . S
O496 Eu481 2.349 . S
O496 C497 1.265 . S
C497 O493 1.244 . S
C497 O496 1.265 . S
O498 Eu480 2.373 . S
O498 C511 1.258 . S
O499 Eu481 2.392 . S
O499 C511 1.242 . S
O500 Eu481 2.418 . S
O500 C482 1.244 . S
O501 Eu480 2.488 . S
O501 C489 1.249 . S
O502 Eu480 2.471 . S
O502 C489 1.244 . S
O503 Eu480 2.349 . S
O503 C482 1.265 . S
C504 C505 1.379 . S
C504 C508 1.373 . S
C504 C510 1.505 . S
C505 C504 1.379 . S
C505 C507 1.369 . S
C505 H516 0.930 . S
C506 C508 1.383 . S
C506 C509 1.382 . S
C506 H517 0.930 . S
C507 C505 1.369 . S
C507 C509 1.392 . S
C507 H518 0.930 . S
C508 C504 1.373 . S
C508 C506 1.383 . S
C508 H519 0.931 . S
C509 C506 1.382 . S
C509 C507 1.392 . S
C510 Eu481 2.828 . S
C510 O494 1.249 . S
C510 O495 1.244 . S
C510 C504 1.505 . S
C511 O498 1.258 . S
C511 O499 1.242 . S
H512 C484 0.930 . S
H513 C485 0.930 . S
H514 C486 0.930 . S
H515 C487 0.931 . S
H516 C505 0.930 . S
H517 C506 0.930 . S
H518 C507 0.930 . S
H519 C508 0.931 . S
Eu520 C529 2.828 . S
Eu520 O531 2.392 . S
Eu520 O533 2.418 . S
Eu520 O538 2.373 . S
Eu520 O541 2.488 . S
Eu520 O542 2.471 . S
Eu520 O543 2.349 . S
Eu521 O530 2.373 . S
Eu521 O534 2.488 . S
Eu521 O535 2.471 . S
Eu521 O536 2.349 . S
Eu521 O539 2.392 . S
Eu521 O540 2.418 . S
Eu521 C550 2.828 . S
C522 O540 1.244 . S
C522 O543 1.265 . S
C523 C524 1.379 . S
C523 C527 1.373 . S
C523 C529 1.505 . S
C524 C523 1.379 . S
C524 C526 1.369 1_565 S
C524 H552 0.930 . S
C525 C527 1.383 1_545 S
C525 C528 1.382 . S
C525 H553 0.930 . S
C526 C524 1.369 1_545 S
C526 C528 1.392 . S
C526 H554 0.930 . S
C527 C523 1.373 . S
C527 C525 1.383 1_565 S
C527 H555 0.931 . S
C528 C525 1.382 . S
C528 C526 1.392 . S
C529 Eu520 2.828 . S
C529 C523 1.505 . S
C529 O541 1.249 . S
C529 O542 1.244 . S
O530 Eu521 2.373 . S
O530 C532 1.258 . S
O531 Eu520 2.392 . S
O531 C532 1.242 . S
C532 O530 1.258 . S
C532 O531 1.242 . S
O533 Eu520 2.418 . S
O533 C537 1.244 . S
O534 Eu521 2.488 . S
O534 C550 1.249 . S
O535 Eu521 2.471 . S
O535 C550 1.244 . S
O536 Eu521 2.349 . S
O536 C537 1.265 . S
C537 O533 1.244 . S
C537 O536 1.265 . S
O538 Eu520 2.373 . S
O538 C551 1.258 . S
O539 Eu521 2.392 . S
O539 C551 1.242 . S
O540 Eu521 2.418 . S
O540 C522 1.244 . S
O541 Eu520 2.488 . S
O541 C529 1.249 . S
O542 Eu520 2.471 . S
O542 C529 1.244 . S
O543 Eu520 2.349 . S
O543 C522 1.265 . S
C544 C545 1.379 . S
C544 C548 1.373 . S
C544 C550 1.505 . S
C545 C544 1.379 . S
C545 C547 1.369 . S
C545 H556 0.930 . S
C546 C548 1.383 . S
C546 C549 1.382 . S
C546 H557 0.930 . S
C547 C545 1.369 . S
C547 C549 1.392 . S
C547 H558 0.930 . S
C548 C544 1.373 . S
C548 C546 1.383 . S
C548 H559 0.931 . S
C549 C546 1.382 . S
C549 C547 1.392 . S
C550 Eu521 2.828 . S
C550 O534 1.249 . S
C550 O535 1.244 . S
C550 C544 1.505 . S
C551 O538 1.258 . S
C551 O539 1.242 . S
H552 C524 0.930 . S
H553 C525 0.930 . S
H554 C526 0.930 . S
H555 C527 0.931 . S
H556 C545 0.930 . S
H557 C546 0.930 . S
H558 C547 0.930 . S
H559 C548 0.931 . S
Eu560 C569 2.828 . S
Eu560 O571 2.392 . S
Eu560 O573 2.418 . S
Eu560 O578 2.373 . S
Eu560 O581 2.488 . S
Eu560 O582 2.471 . S
Eu560 O583 2.349 . S
Eu561 O570 2.373 . S
Eu561 O574 2.488 . S
Eu561 O575 2.471 . S
Eu561 O576 2.349 . S
Eu561 O579 2.392 . S
Eu561 O580 2.418 . S
Eu561 C590 2.828 . S
C562 O580 1.244 . S
C562 O583 1.265 . S
C563 C564 1.379 . S
C563 C567 1.373 . S
C563 C569 1.505 . S
C564 C563 1.379 . S
C564 C566 1.369 1_565 S
C564 H592 0.930 . S
C565 C567 1.383 1_545 S
C565 C568 1.382 . S
C565 H593 0.930 . S
C566 C564 1.369 1_545 S
C566 C568 1.392 . S
C566 H594 0.930 . S
C567 C563 1.373 . S
C567 C565 1.383 1_565 S
C567 H595 0.931 . S
C568 C565 1.382 . S
C568 C566 1.392 . S
C569 Eu560 2.828 . S
C569 C563 1.505 . S
C569 O581 1.249 . S
C569 O582 1.244 . S
O570 Eu561 2.373 . S
O570 C572 1.258 . S
O571 Eu560 2.392 . S
O571 C572 1.242 . S
C572 O570 1.258 . S
C572 O571 1.242 . S
O573 Eu560 2.418 . S
O573 C577 1.244 . S
O574 Eu561 2.488 . S
O574 C590 1.249 . S
O575 Eu561 2.471 . S
O575 C590 1.244 . S
O576 Eu561 2.349 . S
O576 C577 1.265 . S
C577 O573 1.244 . S
C577 O576 1.265 . S
O578 Eu560 2.373 . S
O578 C591 1.258 . S
O579 Eu561 2.392 . S
O579 C591 1.242 . S
O580 Eu561 2.418 . S
O580 C562 1.244 . S
O581 Eu560 2.488 . S
O581 C569 1.249 . S
O582 Eu560 2.471 . S
O582 C569 1.244 . S
O583 Eu560 2.349 . S
O583 C562 1.265 . S
C584 C585 1.379 . S
C584 C588 1.373 . S
C584 C590 1.505 . S
C585 C584 1.379 . S
C585 C587 1.369 . S
C585 H596 0.930 . S
C586 C588 1.383 . S
C586 C589 1.382 . S
C586 H597 0.930 . S
C587 C585 1.369 . S
C587 C589 1.392 . S
C587 H598 0.930 . S
C588 C584 1.373 . S
C588 C586 1.383 . S
C588 H599 0.931 . S
C589 C586 1.382 . S
C589 C587 1.392 . S
C590 Eu561 2.828 . S
C590 O574 1.249 . S
C590 O575 1.244 . S
C590 C584 1.505 . S
C591 O578 1.258 . S
C591 O579 1.242 . S
H592 C564 0.930 . S
H593 C565 0.930 . S
H594 C566 0.930 . S
H595 C567 0.931 . S
H596 C585 0.930 . S
H597 C586 0.930 . S
H598 C587 0.930 . S
H599 C588 0.931 . S
Eu600 C609 2.828 . S
Eu600 O611 2.392 . S
Eu600 O613 2.418 . S
Eu600 O618 2.373 . S
Eu600 O621 2.488 . S
Eu600 O622 2.471 . S
Eu600 O623 2.349 . S
Eu601 O610 2.373 . S
Eu601 O614 2.488 . S
Eu601 O615 2.471 . S
Eu601 O616 2.349 . S
Eu601 O619 2.392 . S
Eu601 O620 2.418 . S
Eu601 C630 2.828 . S
C602 O620 1.244 . S
C602 O623 1.265 . S
C603 C604 1.379 . S
C603 C607 1.373 . S
C603 C609 1.505 . S
C604 C603 1.379 . S
C604 C606 1.369 1_545 S
C604 H632 0.930 . S
C605 C607 1.383 1_565 S
C605 C608 1.382 . S
C605 H633 0.930 . S
C606 C604 1.369 1_565 S
C606 C608 1.392 . S
C606 H634 0.930 . S
C607 C603 1.373 . S
C607 C605 1.383 1_545 S
C607 H635 0.931 . S
C608 C605 1.382 . S
C608 C606 1.392 . S
C609 Eu600 2.828 . S
C609 C603 1.505 . S
C609 O621 1.249 . S
C609 O622 1.244 . S
O610 Eu601 2.373 . S
O610 C612 1.258 . S
O611 Eu600 2.392 . S
O611 C612 1.242 . S
C612 O610 1.258 . S
C612 O611 1.242 . S
O613 Eu600 2.418 . S
O613 C617 1.244 . S
O614 Eu601 2.488 . S
O614 C630 1.249 . S
O615 Eu601 2.471 . S
O615 C630 1.244 . S
O616 Eu601 2.349 . S
O616 C617 1.265 . S
C617 O613 1.244 . S
C617 O616 1.265 . S
O618 Eu600 2.373 . S
O618 C631 1.258 . S
O619 Eu601 2.392 . S
O619 C631 1.242 . S
O620 Eu601 2.418 . S
O620 C602 1.244 . S
O621 Eu600 2.488 . S
O621 C609 1.249 . S
O622 Eu600 2.471 . S
O622 C609 1.244 . S
O623 Eu600 2.349 . S
O623 C602 1.265 . S
C624 C625 1.379 . S
C624 C628 1.373 . S
C624 C630 1.505 . S
C625 C624 1.379 . S
C625 C627 1.369 . S
C625 H636 0.930 . S
C626 C628 1.383 . S
C626 C629 1.382 . S
C626 H637 0.930 . S
C627 C625 1.369 . S
C627 C629 1.392 . S
C627 H638 0.930 . S
C628 C624 1.373 . S
C628 C626 1.383 . S
C628 H639 0.931 . S
C629 C626 1.382 . S
C629 C627 1.392 . S
C630 Eu601 2.828 . S
C630 O614 1.249 . S
C630 O615 1.244 . S
C630 C624 1.505 . S
C631 O618 1.258 . S
C631 O619 1.242 . S
H632 C604 0.930 . S
H633 C605 0.930 . S
H634 C606 0.930 . S
H635 C607 0.931 . S
H636 C625 0.930 . S
H637 C626 0.930 . S
H638 C627 0.930 . S
H639 C628 0.931 . S
C12 C372 2.613 . S
C52 C332 2.613 . S
C452 C92 2.613 . S
C132 C412 2.613 . S
C551 C191 2.613 . S
C511 C231 2.613 . S
C631 C271 2.613 . S
C311 C591 2.613 . S
C82 C2 3.024 1_565 S
C122 C42 3.024 1_545 S
C257 C177 3.024 1_545 S
C217 C297 3.024 1_545 S
C402 C322 3.024 . S
C442 C362 3.024 . S
C497 C577 3.024 . S
C537 C617 3.024 . S
C202 C17 1.469 1_556 S
C162 C57 1.469 1_556 S
C97 C282 1.469 . S
C242 C137 1.469 . S
C337 C522 1.469 1_554 S
C482 C377 1.469 1_556 S
C417 C602 1.469 . S
C562 C457 1.469 . S
C71 C31 1.868 1_665 S
C151 C111 1.868 1_645 S
C212 C172 1.868 1_445 S
C252 C292 1.868 1_645 S
C391 C351 1.868 . S
C471 C431 1.868 . S
C492 C532 1.868 . S
C572 C612 1.868 . S
C8 C29 1.718 . S
C48 C69 1.718 . S
C88 C109 1.718 . S
C149 C128 1.718 . S
C189 C168 1.718 . S
C208 C229 1.718 . S
C269 C248 1.718 . S
C309 C288 1.718 . S
C349 C328 1.718 . S
C368 C389 1.718 . S
C429 C408 1.718 . S
C469 C448 1.718 . S
C509 C488 1.718 . S
C549 C528 1.718 . S
C568 C589 1.718 . S
C629 C608 1.718 . S
