# Generated by pormake.
# Topology sol, (6)-cn, num edge types: 1
# Building blocks:
#     Node 0, Type 0, BuildingBlock: OJICUG_clean_sbu_0, # of connection points: 6
#     Node 1, Type 0, BuildingBlock: OJICUG_clean_sbu_0, # of connection points: 6
#     Node 2, Type 0, BuildingBlock: OJICUG_clean_sbu_0, # of connection points: 6
#     Node 3, Type 0, BuildingBlock: OJICUG_clean_sbu_0, # of connection points: 6
#     Node 4, Type 0, BuildingBlock: OJICUG_clean_sbu_0, # of connection points: 6
#     Node 5, Type 0, BuildingBlock: OJICUG_clean_sbu_0, # of connection points: 6
#     Node 6, Type 0, BuildingBlock: OJICUG_clean_sbu_0, # of connection points: 6
#     Node 7, Type 0, BuildingBlock: OJICUG_clean_sbu_0, # of connection points: 6
#     Edge 8, Type (0, 0), BuildingBlock: OJICUG_clean_linker_0, # of connection points: 2
#     Edge 9, Type (0, 0), BuildingBlock: OJICUG_clean_linker_0, # of connection points: 2
#     Edge 10, Type (0, 0), BuildingBlock: OJICUG_clean_linker_0, # of connection points: 2
#     Edge 11, Type (0, 0), BuildingBlock: OJICUG_clean_linker_0, # of connection points: 2
#     Edge 12, Type (0, 0), BuildingBlock: OJICUG_clean_linker_0, # of connection points: 2
#     Edge 13, Type (0, 0), BuildingBlock: OJICUG_clean_linker_0, # of connection points: 2
#     Edge 14, Type (0, 0), BuildingBlock: OJICUG_clean_linker_0, # of connection points: 2
#     Edge 15, Type (0, 0), BuildingBlock: OJICUG_clean_linker_0, # of connection points: 2
#     Edge 16, Type (0, 0), BuildingBlock: OJICUG_clean_linker_0, # of connection points: 2
#     Edge 17, Type (0, 0), BuildingBlock: OJICUG_clean_linker_0, # of connection points: 2
#     Edge 18, Type (0, 0), BuildingBlock: OJICUG_clean_linker_0, # of connection points: 2
#     Edge 19, Type (0, 0), BuildingBlock: OJICUG_clean_linker_0, # of connection points: 2
#     Edge 20, Type (0, 0), BuildingBlock: OJICUG_clean_linker_0, # of connection points: 2
#     Edge 21, Type (0, 0), BuildingBlock: OJICUG_clean_linker_0, # of connection points: 2
#     Edge 22, Type (0, 0), BuildingBlock: OJICUG_clean_linker_0, # of connection points: 2
#     Edge 23, Type (0, 0), BuildingBlock: OJICUG_clean_linker_0, # of connection points: 2
#     Edge 24, Type (0, 0), BuildingBlock: OJICUG_clean_linker_0, # of connection points: 2
#     Edge 25, Type (0, 0), BuildingBlock: OJICUG_clean_linker_0, # of connection points: 2
#     Edge 26, Type (0, 0), BuildingBlock: OJICUG_clean_linker_0, # of connection points: 2
#     Edge 27, Type (0, 0), BuildingBlock: OJICUG_clean_linker_0, # of connection points: 2
#     Edge 28, Type (0, 0), BuildingBlock: OJICUG_clean_linker_0, # of connection points: 2
#     Edge 29, Type (0, 0), BuildingBlock: OJICUG_clean_linker_0, # of connection points: 2
#     Edge 30, Type (0, 0), BuildingBlock: OJICUG_clean_linker_0, # of connection points: 2
#     Edge 31, Type (0, 0), BuildingBlock: OJICUG_clean_linker_0, # of connection points: 2
# Relax obj value: 0.163
# Max RMSD: 0.156
# Mean RMSD: 0.156
data_MOF--net-sol--node1-OJICUG_clean_sbu_0--edge1-OJICUG_clean_linker_0
_symmetry_space_group_name_H-M    P1
_symmetry_Int_Tables_number       1
_symmetry_cell_setting            triclinic
loop_
_symmetry_equiv_pos_as_xyz
'x, y, z'
_cell_length_a     26.061779
_cell_length_b     21.729927
_cell_length_c     22.897662
_cell_angle_alpha  90.048411
_cell_angle_beta   89.986641
_cell_angle_gamma 90.041147
loop_
_atom_site_label
_atom_site_type_symbol
_atom_site_fract_x
_atom_site_fract_y
_atom_site_fract_z
_atom_type_partial_charge
Sc0 Sc 0.24176 0.21052 0.05303 0.0
Sc1 Sc 0.10764 0.21632 0.02595 0.0
Sc2 Sc 0.15678 0.12809 0.14207 0.0
O3 O 0.16876 0.18472 0.07319 0.0
C4 C 0.25891 0.07182 0.09139 0.0
C5 C 0.1926 0.18896 0.92669 0.0
C6 C 0.07277 0.07775 0.05133 0.0
C7 C 0.17857 0.33316 0.02593 0.0
C8 C 0.24377 0.21859 0.19187 0.0
C9 C 0.06785 0.22554 0.1576 0.0
O10 O 0.27397 0.12066 0.06645 0.0
O11 O 0.14635 0.19903 0.94277 0.0
O12 O 0.10149 0.07096 0.0959 0.0
O13 O 0.21943 0.30303 0.03521 0.0
O14 O 0.20842 0.17876 0.19709 0.0
O15 O 0.06349 0.2397 0.10383 0.0
O16 O 0.26033 0.23707 0.14252 0.0
O17 O 0.13425 0.30939 0.02515 0.0
O18 O 0.09897 0.18555 0.1761 0.0
O19 O 0.2301 0.18797 0.96242 0.0
O20 O 0.21597 0.06669 0.1169 0.0
O21 O 0.07241 0.12688 0.0212 0.0
Sc22 Sc 0.34424 0.32642 0.64206 0.0
Sc23 Sc 0.39344 0.23792 0.52598 0.0
Sc24 Sc 0.25932 0.24376 0.55305 0.0
O25 O 0.3323 0.26962 0.57322 0.0
C26 C 0.25733 0.23586 0.69189 0.0
C27 C 0.43325 0.22908 0.65763 0.0
C28 C 0.32253 0.12107 0.52598 0.0
C29 C 0.42822 0.3766 0.55126 0.0
C30 C 0.24207 0.38251 0.59142 0.0
C31 C 0.30853 0.26518 0.42673 0.0
O32 O 0.29267 0.27574 0.69712 0.0
O33 O 0.43758 0.21471 0.60388 0.0
O34 O 0.28167 0.15123 0.53523 0.0
O35 O 0.39945 0.38351 0.5958 0.0
O36 O 0.22705 0.33363 0.56646 0.0
O37 O 0.35476 0.25508 0.4428 0.0
O38 O 0.28499 0.3877 0.61695 0.0
O39 O 0.42866 0.32736 0.52121 0.0
O40 O 0.27101 0.26619 0.46246 0.0
O41 O 0.40213 0.26913 0.67609 0.0
O42 O 0.24076 0.21734 0.64255 0.0
O43 O 0.36685 0.14485 0.52522 0.0
Sc44 Sc 0.65819 0.33804 0.86283 0.0
Sc45 Sc 0.60715 0.24499 0.97475 0.0
Sc46 Sc 0.74086 0.24583 0.94556 0.0
O47 O 0.66881 0.27682 0.92838 0.0
C48 C 0.74323 0.24988 0.80675 0.0
C49 C 0.56814 0.24211 0.84284 0.0
C50 C 0.67452 0.125 0.96207 0.0
C51 C 0.57505 0.3862 0.95446 0.0
C52 C 0.76172 0.3864 0.92042 0.0
C53 C 0.69159 0.26035 0.074 0.0
O54 O 0.70588 0.28713 0.80372 0.0
O55 O 0.56577 0.22202 0.89505 0.0
O56 O 0.7153 0.15261 0.94702 0.0
O57 O 0.60664 0.39613 0.91308 0.0
O58 O 0.77372 0.33656 0.94581 0.0
O59 O 0.64452 0.26147 0.05849 0.0
O60 O 0.72133 0.3933 0.89012 0.0
O61 O 0.57146 0.33424 0.97963 0.0
O62 O 0.72827 0.25433 0.03775 0.0
O63 O 0.59683 0.28621 0.82741 0.0
O64 O 0.76206 0.23175 0.8549 0.0
O65 O 0.63322 0.15175 0.97593 0.0
Sc66 Sc 0.84337 0.11606 0.36272 0.0
Sc67 Sc 0.89412 0.20939 0.47475 0.0
Sc68 Sc 0.76048 0.20807 0.44541 0.0
O69 O 0.83259 0.17727 0.42831 0.0
C70 C 0.7582 0.20379 0.30658 0.0
C71 C 0.93323 0.21225 0.34291 0.0
C72 C 0.82655 0.3291 0.46149 0.0
C73 C 0.92645 0.06818 0.45436 0.0
C74 C 0.73985 0.06754 0.4204 0.0
C75 C 0.80976 0.194 0.57391 0.0
O76 O 0.79587 0.167 0.30351 0.0
O77 O 0.93535 0.23264 0.39506 0.0
O78 O 0.78599 0.30124 0.44609 0.0
O79 O 0.89474 0.05804 0.41313 0.0
O80 O 0.72791 0.11725 0.44614 0.0
O81 O 0.85683 0.19259 0.55842 0.0
O82 O 0.7801 0.06085 0.38978 0.0
O83 O 0.9301 0.12027 0.47937 0.0
O84 O 0.77314 0.20025 0.53765 0.0
O85 O 0.90485 0.16782 0.32753 0.0
O86 O 0.73907 0.22148 0.35475 0.0
O87 O 0.86773 0.30258 0.47617 0.0
Sc88 Sc 0.76546 0.7444 0.95215 0.0
Sc89 Sc 0.89803 0.74285 0.98858 0.0
Sc90 Sc 0.84908 0.84611 0.88344 0.0
O91 O 0.83754 0.77833 0.94216 0.0
C92 C 0.76469 0.76708 0.81567 0.0
C93 C 0.83356 0.62424 0.95479 0.0
C94 C 0.94134 0.75505 0.85872 0.0
C95 C 0.80933 0.74246 0.08331 0.0
C96 C 0.74487 0.88668 0.94412 0.0
C97 C 0.92939 0.88529 0.98275 0.0
O98 O 0.74565 0.74252 0.86086 0.0
O99 O 0.87317 0.64898 0.97687 0.0
O100 O 0.91079 0.79783 0.84483 0.0
O101 O 0.77496 0.73946 0.04421 0.0
O102 O 0.78568 0.89769 0.91568 0.0
O103 O 0.93239 0.83206 0.00565 0.0
O104 O 0.73195 0.83391 0.96276 0.0
O105 O 0.85694 0.7483 0.07141 0.0
O106 O 0.89978 0.89695 0.94004 0.0
O107 O 0.79316 0.65336 0.94131 0.0
O108 O 0.8021 0.80427 0.81789 0.0
O109 O 0.94362 0.73137 0.90957 0.0
Sc110 Sc 0.73519 0.70917 0.45214 0.0
Sc111 Sc 0.6027 0.71167 0.48862 0.0
Sc112 Sc 0.65103 0.60869 0.38273 0.0
O113 O 0.66295 0.67591 0.44197 0.0
C114 C 0.73544 0.68747 0.31537 0.0
C115 C 0.66777 0.8297 0.45466 0.0
C116 C 0.55868 0.69996 0.35916 0.0
C117 C 0.69113 0.71209 0.58326 0.0
C118 C 0.75554 0.56733 0.4428 0.0
C119 C 0.57131 0.56909 0.48227 0.0
O120 O 0.75555 0.71 0.36094 0.0
O121 O 0.62834 0.80536 0.47757 0.0
O122 O 0.58861 0.65655 0.34526 0.0
O123 O 0.72545 0.71531 0.54412 0.0
O124 O 0.71513 0.55725 0.41329 0.0
O125 O 0.5679 0.62253 0.50481 0.0
O126 O 0.76801 0.61945 0.46345 0.0
O127 O 0.64361 0.70538 0.57145 0.0
O128 O 0.60126 0.55722 0.43986 0.0
O129 O 0.70783 0.80021 0.44049 0.0
O130 O 0.69698 0.65182 0.31705 0.0
O131 O 0.55719 0.72425 0.4098 0.0
Sc132 Sc 0.34354 0.60505 0.12311 0.0
Sc133 Sc 0.39701 0.71682 0.02983 0.0
Sc134 Sc 0.26339 0.71457 0.0601 0.0
O135 O 0.33468 0.6784 0.07024 0.0
C136 C 0.24487 0.57157 0.04879 0.0
C137 C 0.43059 0.57537 0.02825 0.0
C138 C 0.31273 0.72633 0.93077 0.0
C139 C 0.43178 0.69611 0.16255 0.0
C140 C 0.25582 0.67664 0.19385 0.0
C141 C 0.33208 0.83325 0.06871 0.0
O142 O 0.28497 0.55697 0.07716 0.0
O143 O 0.43358 0.62991 0.00851 0.0
O144 O 0.27664 0.72858 0.96825 0.0
O145 O 0.40096 0.65187 0.17147 0.0
O146 O 0.24066 0.70887 0.15108 0.0
O147 O 0.37143 0.80971 0.04503 0.0
O148 O 0.29116 0.63708 0.18851 0.0
O149 O 0.43738 0.72254 0.1131 0.0
O150 O 0.29141 0.80362 0.08005 0.0
O151 O 0.39933 0.56067 0.06836 0.0
O152 O 0.23004 0.62647 0.03998 0.0
O153 O 0.35947 0.71644 0.94467 0.0
Sc154 Sc 0.23771 0.73967 0.56013 0.0
Sc155 Sc 0.10409 0.73752 0.52984 0.0
Sc156 Sc 0.15756 0.84923 0.62335 0.0
O157 O 0.16642 0.77588 0.57034 0.0
C158 C 0.24523 0.77756 0.69397 0.0
C159 C 0.16893 0.62105 0.56865 0.0
C160 C 0.06908 0.75842 0.66249 0.0
C161 C 0.18845 0.72788 0.4308 0.0
C162 C 0.25631 0.88266 0.54911 0.0
C163 C 0.07069 0.87902 0.52837 0.0
O164 O 0.26041 0.74537 0.65112 0.0
O165 O 0.12955 0.64461 0.54508 0.0
O166 O 0.10003 0.8025 0.67159 0.0
O167 O 0.22453 0.72568 0.46825 0.0
O168 O 0.21621 0.89727 0.57754 0.0
O169 O 0.06772 0.8245 0.50852 0.0
O170 O 0.27109 0.82775 0.54016 0.0
O171 O 0.1417 0.73772 0.44472 0.0
O172 O 0.10185 0.89368 0.56861 0.0
O173 O 0.20964 0.65063 0.57991 0.0
O174 O 0.20987 0.8171 0.68873 0.0
O175 O 0.06353 0.73203 0.61299 0.0
C176 C 0.97936 0.24501 0.19157 0.0
C177 C 0.0321 0.24936 0.2016 0.0
H178 H 0.90599 0.2298 0.23032 0.0
C179 C 0.05015 0.25817 0.25907 0.0
H180 H 0.96462 0.23805 0.14781 0.0
C181 C 0.0167 0.25322 0.30648 0.0
C182 C 0.96511 0.23911 0.2965 0.0
H183 H 0.09092 0.26202 0.26758 0.0
H184 H 0.03214 0.25363 0.3504 0.0
C185 C 0.94603 0.23956 0.2389 0.0
C186 C 0.52173 0.20943 0.69153 0.0
C187 C 0.46898 0.20536 0.70164 0.0
H188 H 0.5952 0.22428 0.73016 0.0
C189 C 0.45095 0.19679 0.75914 0.0
H190 H 0.53647 0.21621 0.64774 0.0
C191 C 0.48446 0.20163 0.8065 0.0
C192 C 0.53611 0.21542 0.79645 0.0
H193 H 0.41018 0.19315 0.76772 0.0
H194 H 0.46906 0.20137 0.85044 0.0
C195 C 0.55513 0.21477 0.73881 0.0
C196 C 0.02868 0.73987 0.81871 0.0
C197 C 0.97559 0.73441 0.81204 0.0
H198 H 0.10049 0.75163 0.77497 0.0
C199 C 0.95473 0.72419 0.75614 0.0
H200 H 0.04534 0.74829 0.86133 0.0
C201 C 0.98605 0.72588 0.70674 0.0
C202 C 0.03832 0.73892 0.71294 0.0
H203 H 0.91359 0.72003 0.75035 0.0
H204 H 0.96869 0.72278 0.66385 0.0
C205 C 0.0599 0.74247 0.76929 0.0
C206 C 0.47145 0.71482 0.31901 0.0
C207 C 0.5245 0.72089 0.31261 0.0
H208 H 0.3999 0.70237 0.2749 0.0
C209 C 0.54551 0.7315 0.25685 0.0
H210 H 0.45469 0.70603 0.36152 0.0
C211 C 0.51441 0.72954 0.20729 0.0
C212 C 0.46223 0.71586 0.21319 0.0
H213 H 0.58664 0.73607 0.25128 0.0
H214 H 0.53192 0.73291 0.16449 0.0
C215 C 0.44044 0.71199 0.26943 0.0
C216 C 0.03598 0.97067 0.06366 0.0
C217 C 0.03621 0.02788 0.03482 0.0
H218 H 0.00208 0.8809 0.07039 0.0
C219 C 0.99972 0.03815 0.99061 0.0
H220 H 0.06329 0.96117 0.09812 0.0
C221 C 0.96441 -0.00741 0.9752 0.0
C222 C 0.96451 0.93501 0.00324 0.0
H223 H 0.99819 0.08166 0.96764 0.0
H224 H 0.93741 0.00248 0.94051 0.0
C225 C 0.00064 0.92471 0.04794 0.0
C226 C 0.49999 0.52984 0.5474 0.0
C227 C 0.53627 0.51937 0.50287 0.0
H228 H 0.43728 0.49351 0.59755 0.0
C229 C 0.53662 0.46159 0.47511 0.0
H230 H 0.49836 0.5738 0.56964 0.0
C231 C 0.50139 0.416 0.49063 0.0
C232 C 0.46473 0.42645 0.53466 0.0
H233 H 0.56375 0.45156 0.44056 0.0
H234 H 0.50309 0.37233 0.46788 0.0
C235 C 0.46472 0.48386 0.56323 0.0
C236 C 0.50508 0.54041 0.96522 0.0
C237 C 0.46682 0.52724 0.00687 0.0
H238 H 0.56947 0.50672 0.91609 0.0
C239 C 0.46496 0.46766 0.03078 0.0
H240 H 0.50789 0.58581 0.94602 0.0
C241 C 0.50037 0.42278 0.01417 0.0
C242 C 0.53882 0.4357 0.97281 0.0
H243 H 0.43629 0.45547 0.06302 0.0
H244 H 0.49727 0.37763 0.03386 0.0
C245 C 0.5406 0.49511 0.94828 0.0
C246 C 0.0011 0.03171 0.51411 0.0
C247 C 0.96266 0.01872 0.47274 0.0
H248 H 0.0651 -0.00095 0.56304 0.0
C249 C 0.96085 0.95925 0.44827 0.0
H250 H 0.00421 0.07692 0.53376 0.0
C251 C 0.99632 0.91395 0.46527 0.0
C252 C 0.03454 0.92717 0.50694 0.0
H253 H 0.93199 0.94758 0.41608 0.0
H254 H 0.99347 0.8685 0.44611 0.0
C255 C 0.03645 -0.01318 0.53079 0.0
C256 C 0.33895 0.94132 0.03555 0.0
C257 C 0.33069 0.89889 0.08072 0.0
H258 H 0.3218 0.0318 0.00361 0.0
C259 C 0.30889 0.91814 0.13348 0.0
H260 H 0.35555 0.92673 0.99442 0.0
C261 C 0.28952 -0.0228 0.13854 0.0
C262 C 0.29172 0.01747 0.09082 0.0
H263 H 0.30272 0.88584 0.16887 0.0
H264 H 0.26936 -0.0102 0.1782 0.0
C265 C 0.31944 0.00094 0.04066 0.0
C266 C 0.19201 0.53627 0.63345 0.0
C267 C 0.17026 0.55542 0.58066 0.0
H268 H 0.23151 0.46471 0.67821 0.0
C269 C 0.16207 0.5129 0.5355 0.0
H270 H 0.19814 0.56864 0.66883 0.0
C271 C 0.18158 0.45329 0.54063 0.0
C272 C 0.20924 0.43686 0.59082 0.0
H273 H 0.14552 0.52741 0.49435 0.0
H274 H 0.17927 0.42235 0.50359 0.0
C275 C 0.21139 0.47722 0.63854 0.0
C276 C 0.79915 0.48048 0.87892 0.0
C277 C 0.79496 0.44014 0.9264 0.0
H278 H 0.8167 0.57179 0.85127 0.0
C279 C 0.81578 0.45659 0.98076 0.0
H280 H 0.78415 0.46805 0.83636 0.0
C281 C 0.83474 0.51616 0.98917 0.0
C282 C 0.83299 0.55853 0.94307 0.0
H283 H 0.81293 0.42576 0.01779 0.0
H284 H 0.84584 0.53073 0.03264 0.0
C285 C 0.81804 0.53942 0.88725 0.0
C286 C 0.68576 -0.00261 0.48068 0.0
C287 C 0.70672 0.01372 0.42636 0.0
H288 H 0.65549 0.92341 0.53249 0.0
C289 C 0.70263 0.97327 0.37889 0.0
H290 H 0.68849 0.02831 0.51769 0.0
C291 C 0.6837 0.91437 0.38719 0.0
C292 C 0.6686 0.8954 0.44297 0.0
H293 H 0.7177 -0.01439 0.33634 0.0
H294 H 0.68507 0.88193 0.3512 0.0
C295 C 0.66674 0.93787 0.48905 0.0
C296 C 0.68736 0.02565 0.01168 0.0
C297 C 0.67551 0.05847 0.96078 0.0
H298 H 0.71854 0.9418 0.04613 0.0
C299 C 0.67599 0.02927 0.90642 0.0
H300 H 0.68767 0.04844 0.0538 0.0
C301 C 0.69336 0.96914 0.90211 0.0
C302 C 0.71036 0.93824 0.95215 0.0
H303 H 0.66729 0.05462 0.86688 0.0
H304 H 0.69792 0.94873 0.8592 0.0
C305 C 0.70475 0.96511 0.00737 0.0
C306 C 0.80453 0.48322 0.39957 0.0
C307 C 0.78996 0.51547 0.4499 0.0
H308 H 0.82897 0.39693 0.36464 0.0
C309 C 0.7986 0.49024 0.50529 0.0
H310 H 0.7979 0.50246 0.35655 0.0
C311 C 0.81637 0.42984 0.50985 0.0
C312 C 0.82555 0.39561 0.45899 0.0
H313 H 0.78689 0.51467 0.54435 0.0
H314 H 0.81831 0.40824 0.55242 0.0
C315 C 0.82222 0.42331 0.40411 0.0
C316 C 0.15412 0.44111 0.04805 0.0
C317 C 0.18405 0.39906 0.01644 0.0
H318 H 0.15054 0.53284 0.08255 0.0
C319 C 0.22555 0.41986 0.98293 0.0
H320 H 0.12187 0.4255 0.07399 0.0
C321 C 0.24121 0.48064 0.98708 0.0
C322 C 0.2156 0.52076 0.02491 0.0
H323 H 0.24849 0.38795 0.95756 0.0
H324 H 0.27653 0.49452 0.96577 0.0
C325 C 0.17016 0.50225 0.05256 0.0
C326 C 0.25993 0.97345 0.48735 0.0
C327 C 0.28555 0.93346 0.52524 0.0
H328 H 0.25264 0.06603 0.4577 0.0
C329 C 0.33096 0.95208 0.55287 0.0
H330 H 0.22463 0.95947 0.46606 0.0
C331 C 0.34699 0.01321 0.54826 0.0
C332 C 0.31707 0.05514 0.51658 0.0
H333 H 0.35057 0.92158 0.58289 0.0
H334 H 0.37923 0.0289 0.57419 0.0
C335 C 0.27559 0.03422 0.48311 0.0
C336 C 0.16932 0.20349 0.82002 0.0
C337 C 0.20535 0.18666 0.86314 0.0
H338 H 0.15743 0.23151 0.73074 0.0
C339 C 0.25646 0.17634 0.84578 0.0
H340 H 0.12965 0.21185 0.83164 0.0
C341 C 0.27215 0.18825 0.78863 0.0
C342 C 0.23711 0.20954 0.74682 0.0
H343 H 0.28535 0.16269 0.8772 0.0
H344 H 0.31244 0.18376 0.77778 0.0
C345 C 0.1851 0.21464 0.76217 0.0
C346 C 0.22905 0.26631 0.28866 0.0
C347 C 0.26404 0.2449 0.24681 0.0
H348 H 0.21587 0.29184 0.37728 0.0
C349 C 0.31604 0.23955 0.26216 0.0
H350 H 0.18877 0.27096 0.27781 0.0
C351 C 0.33182 0.25059 0.32003 0.0
C352 C 0.29582 0.26754 0.36319 0.0
H353 H 0.34366 0.22257 0.23069 0.0
H354 H 0.37146 0.24205 0.33164 0.0
C355 C 0.24474 0.2781 0.34584 0.0
C356 C 0.68593 0.2297 0.23759 0.0
C357 C 0.73855 0.22891 0.25105 0.0
H358 H 0.62913 0.24041 0.1702 0.0
C359 C 0.77394 0.24761 0.20859 0.0
H360 H 0.65791 0.21559 0.26987 0.0
C361 C 0.75775 0.26287 0.15256 0.0
C362 C 0.70563 0.25861 0.13693 0.0
H363 H 0.8146 0.24854 0.21826 0.0
H364 H 0.78672 0.27488 0.12059 0.0
C365 C 0.66954 0.24409 0.18067 0.0
C366 C 0.74355 0.19152 0.65243 0.0
C367 C 0.79568 0.1956 0.63684 0.0
H368 H 0.68672 0.20575 0.71823 0.0
C369 C 0.83181 0.20969 0.68067 0.0
H370 H 0.71455 0.17982 0.62038 0.0
C371 C 0.81545 0.22383 0.73769 0.0
C372 C 0.76284 0.22478 0.75115 0.0
H373 H 0.87224 0.21321 0.67022 0.0
H374 H 0.84351 0.23765 0.77005 0.0
C375 C 0.72739 0.20651 0.70857 0.0
C376 C 0.73996 0.71722 0.1539 0.0
C377 C 0.79161 0.73352 0.14431 0.0
H378 H 0.68245 0.68981 0.21451 0.0
C379 C 0.82488 0.73716 0.19257 0.0
H380 H 0.7128 0.71392 0.11823 0.0
C381 C 0.80676 0.72357 0.24894 0.0
C382 C 0.75549 0.7051 0.25744 0.0
H383 H 0.86479 0.74962 0.18672 0.0
H384 H 0.83307 0.72592 0.28549 0.0
C385 C 0.72235 0.70287 0.20939 0.0
C386 C 0.69454 0.72747 0.74926 0.0
C387 C 0.74468 0.7502 0.75746 0.0
H388 H 0.63748 0.69783 0.68729 0.0
C389 C 0.77673 0.75729 0.70884 0.0
H390 H 0.66906 0.7214 0.78619 0.0
C391 C 0.75922 0.74314 0.65327 0.0
C392 C 0.70874 0.72202 0.64415 0.0
H393 H 0.81575 0.77385 0.71358 0.0
H394 H 0.78546 0.75022 0.6172 0.0
C395 C 0.67649 0.714 0.69282 0.0
C396 C 0.30986 0.72992 0.76376 0.0
C397 C 0.26584 0.7661 0.75366 0.0
H398 H 0.3601 0.68933 0.82788 0.0
C399 C 0.23923 0.78983 0.80209 0.0
H400 H 0.33125 0.71088 0.72745 0.0
C401 C 0.25512 0.77682 0.85876 0.0
C402 C 0.29856 0.7402 0.86928 0.0
H403 H 0.2051 0.81764 0.79649 0.0
H404 H 0.23303 0.79576 0.89461 0.0
C405 C 0.32642 0.71761 0.82117 0.0
C406 C 0.24612 0.67752 0.35865 0.0
C407 C 0.20261 0.71403 0.36928 0.0
H408 H 0.29614 0.63678 0.29625 0.0
C409 C 0.17467 0.73651 0.32123 0.0
H410 H 0.26828 0.65867 0.39444 0.0
C411 C 0.19119 0.72419 0.26378 0.0
C412 C 0.23525 0.6881 0.25358 0.0
H413 H 0.14093 0.7647 0.32803 0.0
H414 H 0.16972 0.74313 0.22753 0.0
C415 C 0.26196 0.66449 0.30194 0.0
loop_
_geom_bond_atom_site_label_1
_geom_bond_atom_site_label_2
_geom_bond_distance
_geom_bond_site_symmetry_2
_ccdc_geom_bond_type
Sc0 O3 2.025 . S
Sc0 O10 2.105 . S
Sc0 O13 2.105 . S
Sc0 O16 2.105 . S
Sc0 O19 2.105 . S
Sc1 O3 2.025 . S
Sc1 O11 2.105 1_554 S
Sc1 O15 2.105 . S
Sc1 O17 2.105 . S
Sc1 O21 2.105 . S
Sc2 O3 2.025 . S
Sc2 O12 2.105 . S
Sc2 O14 2.105 . S
Sc2 O18 2.105 . S
Sc2 O20 2.105 . S
O3 Sc0 2.025 . S
O3 Sc1 2.025 . S
O3 Sc2 2.025 . S
C4 O10 1.268 . S
C4 O20 1.268 . S
C5 O11 1.268 . S
C5 O19 1.268 1_556 S
C6 O12 1.268 . S
C6 O21 1.268 . S
C7 O13 1.268 . S
C7 O17 1.268 . S
C8 O14 1.268 . S
C8 O16 1.268 . S
C9 O15 1.268 . S
C9 O18 1.268 . S
O10 Sc0 2.105 . S
O10 C4 1.268 . S
O11 Sc1 2.105 1_556 S
O11 C5 1.268 . S
O12 Sc2 2.105 . S
O12 C6 1.268 . S
O13 Sc0 2.105 . S
O13 C7 1.268 . S
O14 Sc2 2.105 . S
O14 C8 1.268 . S
O15 Sc1 2.105 . S
O15 C9 1.268 . S
O16 Sc0 2.105 . S
O16 C8 1.268 . S
O17 Sc1 2.105 . S
O17 C7 1.268 . S
O18 Sc2 2.105 . S
O18 C9 1.268 . S
O19 Sc0 2.105 . S
O19 C5 1.268 1_554 S
O20 Sc2 2.105 . S
O20 C4 1.268 . S
O21 Sc1 2.105 . S
O21 C6 1.268 . S
Sc22 O25 2.025 . S
Sc22 O32 2.105 . S
Sc22 O35 2.105 . S
Sc22 O38 2.105 . S
Sc22 O41 2.105 . S
Sc23 O25 2.025 . S
Sc23 O33 2.105 . S
Sc23 O37 2.105 . S
Sc23 O39 2.105 . S
Sc23 O43 2.105 . S
Sc24 O25 2.025 . S
Sc24 O34 2.105 . S
Sc24 O36 2.105 . S
Sc24 O40 2.105 . S
Sc24 O42 2.105 . S
O25 Sc22 2.025 . S
O25 Sc23 2.025 . S
O25 Sc24 2.025 . S
C26 O32 1.268 . S
C26 O42 1.268 . S
C27 O33 1.268 . S
C27 O41 1.268 . S
C28 O34 1.268 . S
C28 O43 1.268 . S
C29 O35 1.268 . S
C29 O39 1.268 . S
C30 O36 1.268 . S
C30 O38 1.268 . S
C31 O37 1.268 . S
C31 O40 1.268 . S
O32 Sc22 2.105 . S
O32 C26 1.268 . S
O33 Sc23 2.105 . S
O33 C27 1.268 . S
O34 Sc24 2.105 . S
O34 C28 1.268 . S
O35 Sc22 2.105 . S
O35 C29 1.268 . S
O36 Sc24 2.105 . S
O36 C30 1.268 . S
O37 Sc23 2.105 . S
O37 C31 1.268 . S
O38 Sc22 2.105 . S
O38 C30 1.268 . S
O39 Sc23 2.105 . S
O39 C29 1.268 . S
O40 Sc24 2.105 . S
O40 C31 1.268 . S
O41 Sc22 2.105 . S
O41 C27 1.268 . S
O42 Sc24 2.105 . S
O42 C26 1.268 . S
O43 Sc23 2.105 . S
O43 C28 1.268 . S
Sc44 O47 2.025 . S
Sc44 O54 2.105 . S
Sc44 O57 2.105 . S
Sc44 O60 2.105 . S
Sc44 O63 2.105 . S
Sc45 O47 2.025 . S
Sc45 O55 2.105 . S
Sc45 O59 2.105 1_556 S
Sc45 O61 2.105 . S
Sc45 O65 2.105 . S
Sc46 O47 2.025 . S
Sc46 O56 2.105 . S
Sc46 O58 2.105 . S
Sc46 O62 2.105 . S
Sc46 O64 2.105 . S
O47 Sc44 2.025 . S
O47 Sc45 2.025 . S
O47 Sc46 2.025 . S
C48 O54 1.268 . S
C48 O64 1.268 . S
C49 O55 1.268 . S
C49 O63 1.268 . S
C50 O56 1.268 . S
C50 O65 1.268 . S
C51 O57 1.268 . S
C51 O61 1.268 . S
C52 O58 1.268 . S
C52 O60 1.268 . S
C53 O59 1.268 . S
C53 O62 1.268 1_554 S
O54 Sc44 2.105 . S
O54 C48 1.268 . S
O55 Sc45 2.105 . S
O55 C49 1.268 . S
O56 Sc46 2.105 . S
O56 C50 1.268 . S
O57 Sc44 2.105 . S
O57 C51 1.268 . S
O58 Sc46 2.105 . S
O58 C52 1.268 . S
O59 Sc45 2.105 1_554 S
O59 C53 1.268 . S
O60 Sc44 2.105 . S
O60 C52 1.268 . S
O61 Sc45 2.105 . S
O61 C51 1.268 . S
O62 Sc46 2.105 . S
O62 C53 1.268 1_556 S
O63 Sc44 2.105 . S
O63 C49 1.268 . S
O64 Sc46 2.105 . S
O64 C48 1.268 . S
O65 Sc45 2.105 . S
O65 C50 1.268 . S
Sc66 O69 2.025 . S
Sc66 O76 2.105 . S
Sc66 O79 2.105 . S
Sc66 O82 2.105 . S
Sc66 O85 2.105 . S
Sc67 O69 2.025 . S
Sc67 O77 2.105 . S
Sc67 O81 2.105 . S
Sc67 O83 2.105 . S
Sc67 O87 2.105 . S
Sc68 O69 2.025 . S
Sc68 O78 2.105 . S
Sc68 O80 2.105 . S
Sc68 O84 2.105 . S
Sc68 O86 2.105 . S
O69 Sc66 2.025 . S
O69 Sc67 2.025 . S
O69 Sc68 2.025 . S
C70 O76 1.268 . S
C70 O86 1.268 . S
C71 O77 1.268 . S
C71 O85 1.268 . S
C72 O78 1.268 . S
C72 O87 1.268 . S
C73 O79 1.268 . S
C73 O83 1.268 . S
C74 O80 1.268 . S
C74 O82 1.268 . S
C75 O81 1.268 . S
C75 O84 1.268 . S
O76 Sc66 2.105 . S
O76 C70 1.268 . S
O77 Sc67 2.105 . S
O77 C71 1.268 . S
O78 Sc68 2.105 . S
O78 C72 1.268 . S
O79 Sc66 2.105 . S
O79 C73 1.268 . S
O80 Sc68 2.105 . S
O80 C74 1.268 . S
O81 Sc67 2.105 . S
O81 C75 1.268 . S
O82 Sc66 2.105 . S
O82 C74 1.268 . S
O83 Sc67 2.105 . S
O83 C73 1.268 . S
O84 Sc68 2.105 . S
O84 C75 1.268 . S
O85 Sc66 2.105 . S
O85 C71 1.268 . S
O86 Sc68 2.105 . S
O86 C70 1.268 . S
O87 Sc67 2.105 . S
O87 C72 1.268 . S
Sc88 O91 2.025 . S
Sc88 O98 2.105 . S
Sc88 O101 2.105 . S
Sc88 O104 2.105 . S
Sc88 O107 2.105 . S
Sc89 O91 2.025 . S
Sc89 O99 2.105 . S
Sc89 O103 2.105 . S
Sc89 O105 2.105 1_556 S
Sc89 O109 2.105 . S
Sc90 O91 2.025 . S
Sc90 O100 2.105 . S
Sc90 O102 2.105 . S
Sc90 O106 2.105 . S
Sc90 O108 2.105 . S
O91 Sc88 2.025 . S
O91 Sc89 2.025 . S
O91 Sc90 2.025 . S
C92 O98 1.268 . S
C92 O108 1.268 . S
C93 O99 1.268 . S
C93 O107 1.268 . S
C94 O100 1.268 . S
C94 O109 1.268 . S
C95 O101 1.268 1_554 S
C95 O105 1.268 . S
C96 O102 1.268 . S
C96 O104 1.268 . S
C97 O103 1.268 . S
C97 O106 1.268 . S
O98 Sc88 2.105 . S
O98 C92 1.268 . S
O99 Sc89 2.105 . S
O99 C93 1.268 . S
O100 Sc90 2.105 . S
O100 C94 1.268 . S
O101 Sc88 2.105 . S
O101 C95 1.268 1_556 S
O102 Sc90 2.105 . S
O102 C96 1.268 . S
O103 Sc89 2.105 . S
O103 C97 1.268 . S
O104 Sc88 2.105 . S
O104 C96 1.268 . S
O105 Sc89 2.105 1_554 S
O105 C95 1.268 . S
O106 Sc90 2.105 . S
O106 C97 1.268 . S
O107 Sc88 2.105 . S
O107 C93 1.268 . S
O108 Sc90 2.105 . S
O108 C92 1.268 . S
O109 Sc89 2.105 . S
O109 C94 1.268 . S
Sc110 O113 2.025 . S
Sc110 O120 2.105 . S
Sc110 O123 2.105 . S
Sc110 O126 2.105 . S
Sc110 O129 2.105 . S
Sc111 O113 2.025 . S
Sc111 O121 2.105 . S
Sc111 O125 2.105 . S
Sc111 O127 2.105 . S
Sc111 O131 2.105 . S
Sc112 O113 2.025 . S
Sc112 O122 2.105 . S
Sc112 O124 2.105 . S
Sc112 O128 2.105 . S
Sc112 O130 2.105 . S
O113 Sc110 2.025 . S
O113 Sc111 2.025 . S
O113 Sc112 2.025 . S
C114 O120 1.268 . S
C114 O130 1.268 . S
C115 O121 1.268 . S
C115 O129 1.268 . S
C116 O122 1.268 . S
C116 O131 1.268 . S
C117 O123 1.268 . S
C117 O127 1.268 . S
C118 O124 1.268 . S
C118 O126 1.268 . S
C119 O125 1.268 . S
C119 O128 1.268 . S
O120 Sc110 2.105 . S
O120 C114 1.268 . S
O121 Sc111 2.105 . S
O121 C115 1.268 . S
O122 Sc112 2.105 . S
O122 C116 1.268 . S
O123 Sc110 2.105 . S
O123 C117 1.268 . S
O124 Sc112 2.105 . S
O124 C118 1.268 . S
O125 Sc111 2.105 . S
O125 C119 1.268 . S
O126 Sc110 2.105 . S
O126 C118 1.268 . S
O127 Sc111 2.105 . S
O127 C117 1.268 . S
O128 Sc112 2.105 . S
O128 C119 1.268 . S
O129 Sc110 2.105 . S
O129 C115 1.268 . S
O130 Sc112 2.105 . S
O130 C114 1.268 . S
O131 Sc111 2.105 . S
O131 C116 1.268 . S
Sc132 O135 2.025 . S
Sc132 O142 2.105 . S
Sc132 O145 2.105 . S
Sc132 O148 2.105 . S
Sc132 O151 2.105 . S
Sc133 O135 2.025 . S
Sc133 O143 2.105 . S
Sc133 O147 2.105 . S
Sc133 O149 2.105 . S
Sc133 O153 2.105 1_554 S
Sc134 O135 2.025 . S
Sc134 O144 2.105 . S
Sc134 O146 2.105 . S
Sc134 O150 2.105 . S
Sc134 O152 2.105 . S
O135 Sc132 2.025 . S
O135 Sc133 2.025 . S
O135 Sc134 2.025 . S
C136 O142 1.268 . S
C136 O152 1.268 . S
C137 O143 1.268 . S
C137 O151 1.268 . S
C138 O144 1.268 1_556 S
C138 O153 1.268 . S
C139 O145 1.268 . S
C139 O149 1.268 . S
C140 O146 1.268 . S
C140 O148 1.268 . S
C141 O147 1.268 . S
C141 O150 1.268 . S
O142 Sc132 2.105 . S
O142 C136 1.268 . S
O143 Sc133 2.105 . S
O143 C137 1.268 . S
O144 Sc134 2.105 . S
O144 C138 1.268 1_554 S
O145 Sc132 2.105 . S
O145 C139 1.268 . S
O146 Sc134 2.105 . S
O146 C140 1.268 . S
O147 Sc133 2.105 . S
O147 C141 1.268 . S
O148 Sc132 2.105 . S
O148 C140 1.268 . S
O149 Sc133 2.105 . S
O149 C139 1.268 . S
O150 Sc134 2.105 . S
O150 C141 1.268 . S
O151 Sc132 2.105 . S
O151 C137 1.268 . S
O152 Sc134 2.105 . S
O152 C136 1.268 . S
O153 Sc133 2.105 1_556 S
O153 C138 1.268 . S
Sc154 O157 2.025 . S
Sc154 O164 2.105 . S
Sc154 O167 2.105 . S
Sc154 O170 2.105 . S
Sc154 O173 2.105 . S
Sc155 O157 2.025 . S
Sc155 O165 2.105 . S
Sc155 O169 2.105 . S
Sc155 O171 2.105 . S
Sc155 O175 2.105 . S
Sc156 O157 2.025 . S
Sc156 O166 2.105 . S
Sc156 O168 2.105 . S
Sc156 O172 2.105 . S
Sc156 O174 2.105 . S
O157 Sc154 2.025 . S
O157 Sc155 2.025 . S
O157 Sc156 2.025 . S
C158 O164 1.268 . S
C158 O174 1.268 . S
C159 O165 1.268 . S
C159 O173 1.268 . S
C160 O166 1.268 . S
C160 O175 1.268 . S
C161 O167 1.268 . S
C161 O171 1.268 . S
C162 O168 1.268 . S
C162 O170 1.268 . S
C163 O169 1.268 . S
C163 O172 1.268 . S
O164 Sc154 2.105 . S
O164 C158 1.268 . S
O165 Sc155 2.105 . S
O165 C159 1.268 . S
O166 Sc156 2.105 . S
O166 C160 1.268 . S
O167 Sc154 2.105 . S
O167 C161 1.268 . S
O168 Sc156 2.105 . S
O168 C162 1.268 . S
O169 Sc155 2.105 . S
O169 C163 1.268 . S
O170 Sc154 2.105 . S
O170 C162 1.268 . S
O171 Sc155 2.105 . S
O171 C161 1.268 . S
O172 Sc156 2.105 . S
O172 C163 1.268 . S
O173 Sc154 2.105 . S
O173 C159 1.268 . S
O174 Sc156 2.105 . S
O174 C158 1.268 . S
O175 Sc155 2.105 . S
O175 C160 1.268 . S
C176 C177 1.387 . S
C176 H180 0.950 . S
C176 C185 1.390 1_455 S
C177 C176 1.387 . S
C177 C179 1.387 . S
H178 C185 0.950 . S
C179 C177 1.387 . S
C179 C181 1.390 1_455 S
C179 H183 0.950 . S
H180 C176 0.950 . S
C181 C179 1.390 1_655 S
C181 C182 1.387 . S
C181 H184 0.950 . S
C182 C181 1.387 . S
C182 C185 1.387 . S
H183 C179 0.950 . S
H184 C181 0.950 . S
C185 C176 1.390 1_655 S
C185 H178 0.950 . S
C185 C182 1.387 . S
C186 C187 1.387 . S
C186 H190 0.950 . S
C186 C195 1.390 . S
C187 C186 1.387 . S
C187 C189 1.387 . S
H188 C195 0.950 . S
C189 C187 1.387 . S
C189 C191 1.390 . S
C189 H193 0.950 . S
H190 C186 0.950 . S
C191 C189 1.390 . S
C191 C192 1.387 . S
C191 H194 0.950 . S
C192 C191 1.387 . S
C192 C195 1.387 . S
H193 C189 0.950 . S
H194 C191 0.950 . S
C195 C186 1.390 . S
C195 H188 0.950 . S
C195 C192 1.387 . S
C196 C197 1.387 . S
C196 H200 0.950 . S
C196 C205 1.390 1_655 S
C197 C196 1.387 . S
C197 C199 1.387 . S
H198 C205 0.950 . S
C199 C197 1.387 . S
C199 C201 1.390 1_655 S
C199 H203 0.950 . S
H200 C196 0.950 . S
C201 C199 1.390 1_455 S
C201 C202 1.387 . S
C201 H204 0.950 . S
C202 C201 1.387 . S
C202 C205 1.387 . S
H203 C199 0.950 . S
H204 C201 0.950 . S
C205 C196 1.390 1_455 S
C205 H198 0.950 . S
C205 C202 1.387 . S
C206 C207 1.387 . S
C206 H210 0.950 . S
C206 C215 1.390 . S
C207 C206 1.387 . S
C207 C209 1.387 . S
H208 C215 0.950 . S
C209 C207 1.387 . S
C209 C211 1.390 . S
C209 H213 0.950 . S
H210 C206 0.950 . S
C211 C209 1.390 . S
C211 C212 1.387 . S
C211 H214 0.950 . S
C212 C211 1.387 . S
C212 C215 1.387 . S
H213 C209 0.950 . S
H214 C211 0.950 . S
C215 C206 1.390 . S
C215 H208 0.950 . S
C215 C212 1.387 . S
C216 C217 1.387 . S
C216 H220 0.950 . S
C216 C225 1.390 1_445 S
C217 C216 1.387 . S
C217 C219 1.387 1_554 S
H218 C225 0.950 . S
C219 C217 1.387 1_556 S
C219 C221 1.390 1_445 S
C219 H223 0.950 . S
H220 C216 0.950 . S
C221 C219 1.390 1_665 S
C221 C222 1.387 . S
C221 H224 0.950 . S
C222 C221 1.387 . S
C222 C225 1.387 1_556 S
H223 C219 0.950 . S
H224 C221 0.950 . S
C225 C216 1.390 1_665 S
C225 H218 0.950 . S
C225 C222 1.387 1_554 S
C226 C227 1.387 . S
C226 H230 0.950 . S
C226 C235 1.390 . S
C227 C226 1.387 . S
C227 C229 1.387 . S
H228 C235 0.950 . S
C229 C227 1.387 . S
C229 C231 1.390 . S
C229 H233 0.950 . S
H230 C226 0.950 . S
C231 C229 1.390 . S
C231 C232 1.387 . S
C231 H234 0.950 . S
C232 C231 1.387 . S
C232 C235 1.387 . S
H233 C229 0.950 . S
H234 C231 0.950 . S
C235 C226 1.390 . S
C235 H228 0.950 . S
C235 C232 1.387 . S
C236 C237 1.387 1_556 S
C236 H240 0.950 . S
C236 C245 1.390 . S
C237 C236 1.387 1_554 S
C237 C239 1.387 . S
H238 C245 0.950 . S
C239 C237 1.387 . S
C239 C241 1.390 . S
C239 H243 0.950 . S
H240 C236 0.950 . S
C241 C239 1.390 . S
C241 C242 1.387 1_554 S
C241 H244 0.950 . S
C242 C241 1.387 1_556 S
C242 C245 1.387 . S
H243 C239 0.950 . S
H244 C241 0.950 . S
C245 C236 1.390 . S
C245 H238 0.950 . S
C245 C242 1.387 . S
C246 C247 1.387 1_455 S
C246 H250 0.950 . S
C246 C255 1.390 . S
C247 C246 1.387 1_655 S
C247 C249 1.387 1_545 S
H248 C255 0.950 . S
C249 C247 1.387 1_565 S
C249 C251 1.390 . S
C249 H253 0.950 . S
H250 C246 0.950 . S
C251 C249 1.390 . S
C251 C252 1.387 1_655 S
C251 H254 0.950 . S
C252 C251 1.387 1_455 S
C252 C255 1.387 1_565 S
H253 C249 0.950 . S
H254 C251 0.950 . S
C255 C246 1.390 . S
C255 H248 0.950 . S
C255 C252 1.387 1_545 S
C256 C257 1.387 . S
C256 H260 0.950 . S
C256 C265 1.390 . S
C257 C256 1.387 . S
C257 C259 1.387 . S
H258 C265 0.950 1_545 S
C259 C257 1.387 . S
C259 C261 1.390 1_565 S
C259 H263 0.950 . S
H260 C256 0.950 . S
C261 C259 1.390 1_545 S
C261 C262 1.387 . S
C261 H264 0.950 . S
C262 C261 1.387 . S
C262 C265 1.387 1_545 S
H263 C259 0.950 . S
H264 C261 0.950 . S
C265 C256 1.390 . S
C265 H258 0.950 1_565 S
C265 C262 1.387 1_565 S
C266 C267 1.387 . S
C266 H270 0.950 . S
C266 C275 1.390 . S
C267 C266 1.387 . S
C267 C269 1.387 . S
H268 C275 0.950 . S
C269 C267 1.387 . S
C269 C271 1.390 . S
C269 H273 0.950 . S
H270 C266 0.950 . S
C271 C269 1.390 . S
C271 C272 1.387 . S
C271 H274 0.950 . S
C272 C271 1.387 . S
C272 C275 1.387 . S
H273 C269 0.950 . S
H274 C271 0.950 . S
C275 C266 1.390 . S
C275 H268 0.950 . S
C275 C272 1.387 . S
C276 C277 1.387 . S
C276 H280 0.950 . S
C276 C285 1.390 . S
C277 C276 1.387 . S
C277 C279 1.387 . S
H278 C285 0.950 . S
C279 C277 1.387 . S
C279 C281 1.390 . S
C279 H283 0.950 . S
H280 C276 0.950 . S
C281 C279 1.390 . S
C281 C282 1.387 . S
C281 H284 0.950 . S
C282 C281 1.387 . S
C282 C285 1.387 . S
H283 C279 0.950 . S
H284 C281 0.950 . S
C285 C276 1.390 . S
C285 H278 0.950 . S
C285 C282 1.387 . S
C286 C287 1.390 . S
C286 H290 0.952 . S
C286 C295 1.385 1_545 S
C287 C286 1.390 . S
C287 C289 1.387 . S
H288 C295 0.950 . S
C289 C287 1.387 . S
C289 C291 1.390 1_545 S
C289 H293 0.950 . S
H290 C286 0.952 . S
C291 C289 1.390 1_565 S
C291 C292 1.387 . S
C291 H294 0.950 . S
C292 C291 1.387 . S
C292 C295 1.387 . S
H293 C289 0.950 . S
H294 C291 0.950 . S
C295 C286 1.385 1_565 S
C295 H288 0.950 . S
C295 C292 1.387 . S
C296 C297 1.387 . S
C296 H300 0.950 . S
C296 C305 1.390 1_545 S
C297 C296 1.387 . S
C297 C299 1.387 . S
H298 C305 0.950 . S
C299 C297 1.387 . S
C299 C301 1.390 1_545 S
C299 H303 0.950 . S
H300 C296 0.950 . S
C301 C299 1.390 1_565 S
C301 C302 1.387 . S
C301 H304 0.950 . S
C302 C301 1.387 . S
C302 C305 1.387 . S
H303 C299 0.950 . S
H304 C301 0.950 . S
C305 C296 1.390 1_565 S
C305 H298 0.950 . S
C305 C302 1.387 . S
C306 C307 1.387 . S
C306 H310 0.950 . S
C306 C315 1.390 . S
C307 C306 1.387 . S
C307 C309 1.387 . S
H308 C315 0.950 . S
C309 C307 1.387 . S
C309 C311 1.390 . S
C309 H313 0.950 . S
H310 C306 0.950 . S
C311 C309 1.390 . S
C311 C312 1.387 . S
C311 H314 0.950 . S
C312 C311 1.387 . S
C312 C315 1.387 . S
H313 C309 0.950 . S
H314 C311 0.950 . S
C315 C306 1.390 . S
C315 H308 0.950 . S
C315 C312 1.387 . S
C316 C317 1.387 . S
C316 H320 0.950 . S
C316 C325 1.390 . S
C317 C316 1.387 . S
C317 C319 1.387 . S
H318 C325 0.950 . S
C319 C317 1.387 . S
C319 C321 1.390 . S
C319 H323 0.950 . S
H320 C316 0.950 . S
C321 C319 1.390 . S
C321 C322 1.387 . S
C321 H324 0.950 . S
C322 C321 1.387 . S
C322 C325 1.387 . S
H323 C319 0.950 . S
H324 C321 0.950 . S
C325 C316 1.390 . S
C325 H318 0.950 . S
C325 C322 1.387 . S
C326 C327 1.387 . S
C326 H330 0.950 . S
C326 C335 1.390 1_565 S
C327 C326 1.387 . S
C327 C329 1.387 . S
H328 C335 0.950 . S
C329 C327 1.387 . S
C329 C331 1.390 1_565 S
C329 H333 0.950 . S
H330 C326 0.950 . S
C331 C329 1.390 1_545 S
C331 C332 1.387 . S
C331 H334 0.950 . S
C332 C331 1.387 . S
C332 C335 1.387 . S
H333 C329 0.950 . S
H334 C331 0.950 . S
C335 C326 1.390 1_545 S
C335 H328 0.950 . S
C335 C332 1.387 . S
C336 C337 1.387 . S
C336 H340 0.950 . S
C336 C345 1.390 . S
C337 C336 1.387 . S
C337 C339 1.387 . S
H338 C345 0.950 . S
C339 C337 1.387 . S
C339 C341 1.390 . S
C339 H343 0.950 . S
H340 C336 0.950 . S
C341 C339 1.390 . S
C341 C342 1.387 . S
C341 H344 0.950 . S
C342 C341 1.387 . S
C342 C345 1.387 . S
H343 C339 0.950 . S
H344 C341 0.950 . S
C345 C336 1.390 . S
C345 H338 0.950 . S
C345 C342 1.387 . S
C346 C347 1.387 . S
C346 H350 0.950 . S
C346 C355 1.390 . S
C347 C346 1.387 . S
C347 C349 1.387 . S
H348 C355 0.950 . S
C349 C347 1.387 . S
C349 C351 1.390 . S
C349 H353 0.950 . S
H350 C346 0.950 . S
C351 C349 1.390 . S
C351 C352 1.387 . S
C351 H354 0.950 . S
C352 C351 1.387 . S
C352 C355 1.387 . S
H353 C349 0.950 . S
H354 C351 0.950 . S
C355 C346 1.390 . S
C355 H348 0.950 . S
C355 C352 1.387 . S
C356 C357 1.387 . S
C356 H360 0.950 . S
C356 C365 1.390 . S
C357 C356 1.387 . S
C357 C359 1.387 . S
H358 C365 0.950 . S
C359 C357 1.387 . S
C359 C361 1.390 . S
C359 H363 0.950 . S
H360 C356 0.950 . S
C361 C359 1.390 . S
C361 C362 1.387 . S
C361 H364 0.950 . S
C362 C361 1.387 . S
C362 C365 1.387 . S
H363 C359 0.950 . S
H364 C361 0.950 . S
C365 C356 1.390 . S
C365 H358 0.950 . S
C365 C362 1.387 . S
C366 C367 1.387 . S
C366 H370 0.950 . S
C366 C375 1.390 . S
C367 C366 1.387 . S
C367 C369 1.387 . S
H368 C375 0.950 . S
C369 C367 1.387 . S
C369 C371 1.390 . S
C369 H373 0.950 . S
H370 C366 0.950 . S
C371 C369 1.390 . S
C371 C372 1.387 . S
C371 H374 0.950 . S
C372 C371 1.387 . S
C372 C375 1.387 . S
H373 C369 0.950 . S
H374 C371 0.950 . S
C375 C366 1.390 . S
C375 H368 0.950 . S
C375 C372 1.387 . S
C376 C377 1.387 . S
C376 H380 0.950 . S
C376 C385 1.390 . S
C377 C376 1.387 . S
C377 C379 1.387 . S
H378 C385 0.950 . S
C379 C377 1.387 . S
C379 C381 1.390 . S
C379 H383 0.950 . S
H380 C376 0.950 . S
C381 C379 1.390 . S
C381 C382 1.387 . S
C381 H384 0.950 . S
C382 C381 1.387 . S
C382 C385 1.387 . S
H383 C379 0.950 . S
H384 C381 0.950 . S
C385 C376 1.390 . S
C385 H378 0.950 . S
C385 C382 1.387 . S
C386 C387 1.387 . S
C386 H390 0.950 . S
C386 C395 1.390 . S
C387 C386 1.387 . S
C387 C389 1.387 . S
H388 C395 0.950 . S
C389 C387 1.387 . S
C389 C391 1.390 . S
C389 H393 0.950 . S
H390 C386 0.950 . S
C391 C389 1.390 . S
C391 C392 1.387 . S
C391 H394 0.950 . S
C392 C391 1.387 . S
C392 C395 1.387 . S
H393 C389 0.950 . S
H394 C391 0.950 . S
C395 C386 1.390 . S
C395 H388 0.950 . S
C395 C392 1.387 . S
C396 C397 1.387 . S
C396 H400 0.950 . S
C396 C405 1.390 . S
C397 C396 1.387 . S
C397 C399 1.387 . S
H398 C405 0.950 . S
C399 C397 1.387 . S
C399 C401 1.390 . S
C399 H403 0.950 . S
H400 C396 0.950 . S
C401 C399 1.390 . S
C401 C402 1.387 . S
C401 H404 0.950 . S
C402 C401 1.387 . S
C402 C405 1.387 . S
H403 C399 0.950 . S
H404 C401 0.950 . S
C405 C396 1.390 . S
C405 H398 0.950 . S
C405 C402 1.387 . S
C406 C407 1.387 . S
C406 H410 0.950 . S
C406 C415 1.390 . S
C407 C406 1.387 . S
C407 C409 1.387 . S
H408 C415 0.950 . S
C409 C407 1.387 . S
C409 C411 1.390 . S
C409 H413 0.950 . S
H410 C406 0.950 . S
C411 C409 1.390 . S
C411 C412 1.387 . S
C411 H414 0.950 . S
C412 C411 1.387 . S
C412 C415 1.387 . S
H413 C409 0.950 . S
H414 C411 0.950 . S
C415 C406 1.390 . S
C415 H408 0.950 . S
C415 C412 1.387 . S
C177 C9 0.981 . S
C182 C71 0.981 . S
C187 C27 0.981 . S
C192 C49 0.981 . S
C197 C94 0.981 . S
C202 C160 0.981 . S
C207 C116 0.981 . S
C212 C139 0.981 . S
C217 C6 1.885 . S
C222 C97 1.885 . S
C227 C119 1.885 . S
C232 C29 1.885 . S
C237 C137 1.885 . S
C242 C51 1.885 . S
C247 C73 1.884 . S
C252 C163 1.884 . S
C257 C141 1.092 . S
C262 C4 1.109 . S
C267 C159 1.089 . S
C272 C30 1.108 . S
C277 C52 1.108 . S
C282 C93 1.089 . S
C287 C74 1.109 . S
C292 C115 1.092 . S
C297 C50 1.089 . S
C302 C96 1.108 . S
C307 C118 1.108 . S
C312 C72 1.091 . S
C317 C7 1.092 . S
C322 C136 1.109 . S
C327 C162 1.108 . S
C332 C28 1.089 . S
C337 C5 1.590 . S
C342 C26 1.627 . S
C347 C8 1.628 . S
C352 C31 1.589 . S
C357 C70 1.628 . S
C362 C53 1.589 . S
C367 C75 1.589 . S
C372 C48 1.628 . S
C377 C95 1.589 . S
C382 C114 1.627 . S
C387 C92 1.628 . S
C392 C117 1.590 . S
C397 C158 1.628 . S
C402 C138 1.590 . S
C407 C161 1.590 . S
C412 C140 1.627 . S
