# Generated by pormake.
# Topology wjt, (5)-cn, num edge types: 1
# Building blocks:
#     Node 0, Type 0, BuildingBlock: XOMCOT_clean_sbu_1, # of connection points: 5
#     Node 1, Type 0, BuildingBlock: XOMCOT_clean_sbu_1, # of connection points: 5
#     Node 2, Type 0, BuildingBlock: XOMCOT_clean_sbu_1, # of connection points: 5
#     Node 3, Type 0, BuildingBlock: XOMCOT_clean_sbu_1, # of connection points: 5
#     Node 4, Type 0, BuildingBlock: XOMCOT_clean_sbu_1, # of connection points: 5
#     Node 5, Type 0, BuildingBlock: XOMCOT_clean_sbu_1, # of connection points: 5
#     Node 6, Type 0, BuildingBlock: XOMCOT_clean_sbu_1, # of connection points: 5
#     Node 7, Type 0, BuildingBlock: XOMCOT_clean_sbu_1, # of connection points: 5
#     Node 8, Type 0, BuildingBlock: XOMCOT_clean_sbu_1, # of connection points: 5
#     Node 9, Type 0, BuildingBlock: XOMCOT_clean_sbu_1, # of connection points: 5
#     Node 10, Type 0, BuildingBlock: XOMCOT_clean_sbu_1, # of connection points: 5
#     Node 11, Type 0, BuildingBlock: XOMCOT_clean_sbu_1, # of connection points: 5
#     Edge 12, Type (0, 0), BuildingBlock: OJICUG_clean_linker_0, # of connection points: 2
#     Edge 13, Type (0, 0), BuildingBlock: OJICUG_clean_linker_0, # of connection points: 2
#     Edge 14, Type (0, 0), BuildingBlock: OJICUG_clean_linker_0, # of connection points: 2
#     Edge 15, Type (0, 0), BuildingBlock: OJICUG_clean_linker_0, # of connection points: 2
#     Edge 16, Type (0, 0), BuildingBlock: OJICUG_clean_linker_0, # of connection points: 2
#     Edge 17, Type (0, 0), BuildingBlock: OJICUG_clean_linker_0, # of connection points: 2
#     Edge 18, Type (0, 0), BuildingBlock: OJICUG_clean_linker_0, # of connection points: 2
#     Edge 19, Type (0, 0), BuildingBlock: OJICUG_clean_linker_0, # of connection points: 2
#     Edge 20, Type (0, 0), BuildingBlock: OJICUG_clean_linker_0, # of connection points: 2
#     Edge 21, Type (0, 0), BuildingBlock: OJICUG_clean_linker_0, # of connection points: 2
#     Edge 22, Type (0, 0), BuildingBlock: OJICUG_clean_linker_0, # of connection points: 2
#     Edge 23, Type (0, 0), BuildingBlock: OJICUG_clean_linker_0, # of connection points: 2
#     Edge 24, Type (0, 0), BuildingBlock: OJICUG_clean_linker_0, # of connection points: 2
#     Edge 25, Type (0, 0), BuildingBlock: OJICUG_clean_linker_0, # of connection points: 2
#     Edge 26, Type (0, 0), BuildingBlock: OJICUG_clean_linker_0, # of connection points: 2
#     Edge 27, Type (0, 0), BuildingBlock: OJICUG_clean_linker_0, # of connection points: 2
#     Edge 28, Type (0, 0), BuildingBlock: OJICUG_clean_linker_0, # of connection points: 2
#     Edge 29, Type (0, 0), BuildingBlock: OJICUG_clean_linker_0, # of connection points: 2
#     Edge 30, Type (0, 0), BuildingBlock: OJICUG_clean_linker_0, # of connection points: 2
#     Edge 31, Type (0, 0), BuildingBlock: OJICUG_clean_linker_0, # of connection points: 2
#     Edge 32, Type (0, 0), BuildingBlock: OJICUG_clean_linker_0, # of connection points: 2
#     Edge 33, Type (0, 0), BuildingBlock: OJICUG_clean_linker_0, # of connection points: 2
#     Edge 34, Type (0, 0), BuildingBlock: OJICUG_clean_linker_0, # of connection points: 2
#     Edge 35, Type (0, 0), BuildingBlock: OJICUG_clean_linker_0, # of connection points: 2
#     Edge 36, Type (0, 0), BuildingBlock: OJICUG_clean_linker_0, # of connection points: 2
#     Edge 37, Type (0, 0), BuildingBlock: OJICUG_clean_linker_0, # of connection points: 2
#     Edge 38, Type (0, 0), BuildingBlock: OJICUG_clean_linker_0, # of connection points: 2
#     Edge 39, Type (0, 0), BuildingBlock: OJICUG_clean_linker_0, # of connection points: 2
#     Edge 40, Type (0, 0), BuildingBlock: OJICUG_clean_linker_0, # of connection points: 2
#     Edge 41, Type (0, 0), BuildingBlock: OJICUG_clean_linker_0, # of connection points: 2
# Relax obj value: 0.223
# Max RMSD: 0.166
# Mean RMSD: 0.166
data_MOF--net-wjt--node1-XOMCOT_clean_sbu_1--edge1-OJICUG_clean_linker_0
_symmetry_space_group_name_H-M    P1
_symmetry_Int_Tables_number       1
_symmetry_cell_setting            triclinic
loop_
_symmetry_equiv_pos_as_xyz
'x, y, z'
_cell_length_a     50.766757
_cell_length_b     50.857234
_cell_length_c     13.273514
_cell_angle_alpha  90.045997
_cell_angle_beta   89.928347
_cell_angle_gamma 119.86162
loop_
_atom_site_label
_atom_site_type_symbol
_atom_site_fract_x
_atom_site_fract_y
_atom_site_fract_z
_atom_type_partial_charge
C0 C 0.3107 0.46317 0.33231 0.0
C1 C 0.3084 0.46511 0.43512 0.0
N2 N 0.30269 0.43855 0.47624 0.0
N3 N 0.30673 0.43564 0.30892 0.0
C4 C 0.3012 0.42094 0.39782 0.0
H5 H 0.3168 0.4813 0.27861 0.0
Co6 Co 0.31431 0.42474 0.18272 0.0
C7 C 0.34064 0.38601 0.23257 0.0
O8 O 0.36182 0.40177 0.16555 0.0
N9 N 0.3203 0.41377 0.05265 0.0
C10 C 0.31211 0.38478 0.9171 0.0
C11 C 0.3142 0.38606 0.02019 0.0
C12 C 0.32032 0.42828 0.96718 0.0
N13 N 0.31566 0.4113 0.88375 0.0
O14 O 0.27148 0.39847 0.16086 0.0
H15 H 0.30838 0.36671 0.06771 0.0
H16 H 0.32013 0.44945 0.96688 0.0
O17 O 0.31888 0.39161 0.24558 0.0
C18 C 0.26063 0.41413 0.12309 0.0
O19 O 0.27836 0.44363 0.1162 0.0
N20 N 0.35659 0.45309 0.20142 0.0
C21 C 0.41452 0.50199 0.24346 0.0
C22 C 0.40002 0.47784 0.31126 0.0
C23 C 0.37111 0.45377 0.28921 0.0
C24 C 0.37063 0.47644 0.13447 0.0
C25 C 0.39977 0.50078 0.15305 0.0
H26 H 0.35987 0.4364 0.34563 0.0
H27 H 0.35875 0.47752 0.06912 0.0
H28 H 0.29852 0.39863 0.406 0.0
H29 H 0.31198 0.48496 0.47651 0.0
H30 H 0.30646 0.36509 0.87109 0.0
H31 H 0.4105 0.47806 0.38253 0.0
H32 H 0.40982 0.51943 0.10005 0.0
C33 C 0.85203 0.2945 0.65152 0.0
C34 C 0.84959 0.29316 0.75497 0.0
N35 N 0.8751 0.29516 0.79331 0.0
N36 N 0.87891 0.29727 0.62474 0.0
C37 C 0.89202 0.29675 0.71259 0.0
H38 H 0.83652 0.29616 0.5996 0.0
Co39 Co 0.89624 0.31076 0.49836 0.0
C40 C 0.95958 0.31827 0.52256 0.0
O41 O 0.96118 0.30835 0.43266 0.0
N42 N 0.91266 0.32472 0.37108 0.0
C43 C 0.93888 0.35081 0.23695 0.0
C44 C 0.93805 0.34996 0.34102 0.0
C45 C 0.89856 0.3109 0.28499 0.0
N46 N 0.91379 0.32613 0.20207 0.0
O47 O 0.88518 0.26966 0.45481 0.0
H48 H 0.95453 0.36688 0.39134 0.0
H49 H 0.87747 0.28989 0.28305 0.0
O50 O 0.9357 0.31892 0.54905 0.0
C51 C 0.86401 0.24318 0.48019 0.0
O52 O 0.85438 0.23785 0.57372 0.0
N53 N 0.90468 0.34997 0.53545 0.0
C54 C 0.90802 0.40439 0.59488 0.0
C55 C 0.92679 0.39465 0.63914 0.0
C56 C 0.92466 0.36732 0.60888 0.0
C57 C 0.88652 0.35916 0.49058 0.0
C58 C 0.88785 0.38629 0.51887 0.0
H59 H 0.93846 0.35989 0.6471 0.0
H60 H 0.87028 0.34486 0.43429 0.0
H61 H 0.91421 0.29908 0.71797 0.0
H62 H 0.83172 0.29351 0.79846 0.0
H63 H 0.95616 0.36862 0.19097 0.0
H64 H 0.9429 0.40789 0.69741 0.0
H65 H 0.87248 0.39247 0.48361 0.0
C66 C 0.5673 0.84615 0.04246 0.0
C67 C 0.56859 0.84149 0.14361 0.0
N68 N 0.5969 0.86075 0.17624 0.0
N69 N 0.59444 0.86882 0.01084 0.0
C70 C 0.61246 0.87584 0.09308 0.0
H71 H 0.54732 0.83423 0.99613 0.0
Co72 Co 0.60173 0.88556 0.88028 0.0
C73 C 0.63894 0.94203 0.00909 0.0
O74 O 0.61861 0.93168 0.0816 0.0
N75 N 0.60801 0.90068 0.7507 0.0
C76 C 0.61914 0.92865 0.61219 0.0
C77 C 0.6164 0.92863 0.71555 0.0
C78 C 0.60535 0.88414 0.66823 0.0
N79 N 0.61224 0.90054 0.58275 0.0
O80 O 0.63171 0.87262 0.85345 0.0
H81 H 0.62003 0.94766 0.76162 0.0
H82 H 0.59878 0.86052 0.67122 0.0
O83 O 0.63437 0.92621 0.92868 0.0
C84 C 0.62872 0.84641 0.86962 0.0
O85 O 0.61525 0.83191 0.95251 0.0
N86 N 0.57051 0.89564 0.89749 0.0
C87 C 0.51768 0.89907 0.93363 0.0
C88 C 0.54677 0.92421 0.94991 0.0
C89 C 0.57277 0.92239 0.92755 0.0
C90 C 0.54282 0.87222 0.87073 0.0
C91 C 0.51624 0.87337 0.88799 0.0
H92 H 0.59433 0.94275 0.93438 0.0
H93 H 0.5413 0.852 0.83809 0.0
H94 H 0.63629 0.89283 0.09332 0.0
H95 H 0.54945 0.82672 0.1907 0.0
H96 H 0.62513 0.94771 0.56267 0.0
H97 H 0.54992 0.94518 0.9814 0.0
H98 H 0.49487 0.85398 0.86621 0.0
C99 C 0.72831 0.56072 0.37092 0.0
C100 C 0.73032 0.56005 0.47395 0.0
N101 N 0.73071 0.58483 0.51185 0.0
N102 N 0.72775 0.58594 0.3433 0.0
C103 C 0.72981 0.60045 0.43077 0.0
H104 H 0.72452 0.54255 0.32002 0.0
Co105 Co 0.71422 0.58982 0.21654 0.0
C106 C 0.71035 0.64724 0.24199 0.0
O107 O 0.72388 0.65945 0.1563 0.0
N108 N 0.70048 0.59236 0.09007 0.0
C109 C 0.67838 0.59843 0.95515 0.0
C110 C 0.6787 0.59828 0.05904 0.0
C111 C 0.7122 0.58796 0.00505 0.0
N112 N 0.69974 0.59216 0.92121 0.0
O113 O 0.75545 0.61963 0.17313 0.0
H114 H 0.66419 0.60241 0.10848 0.0
H115 H 0.72997 0.58216 0.00564 0.0
O116 O 0.70644 0.62138 0.26807 0.0
C117 C 0.77554 0.61155 0.16466 0.0
O118 O 0.76972 0.58538 0.20245 0.0
N119 N 0.67484 0.55967 0.25335 0.0
C120 C 0.61949 0.50967 0.31025 0.0
C121 C 0.63079 0.53756 0.36025 0.0
C122 C 0.65856 0.56228 0.3309 0.0
C123 C 0.66417 0.53287 0.20334 0.0
C124 C 0.63647 0.50764 0.23008 0.0
H125 H 0.66726 0.5831 0.37302 0.0
H126 H 0.67766 0.53088 0.14387 0.0
H127 H 0.72845 0.62089 0.4357 0.0
H128 H 0.7285 0.54127 0.5177 0.0
H129 H 0.66341 0.60271 0.90874 0.0
H130 H 0.61842 0.54023 0.42222 0.0
H131 H 0.62897 0.48647 0.19044 0.0
C132 C 0.16363 0.74673 0.65507 0.0
C133 C 0.16456 0.74892 0.75874 0.0
N134 N 0.13832 0.72623 0.79569 0.0
N135 N 0.13694 0.7227 0.6268 0.0
C136 C 0.1221 0.71081 0.71439 0.0
H137 H 0.18189 0.76101 0.6045 0.0
Co138 Co 0.12443 0.70517 0.49886 0.0
C139 C 0.0592 0.6942 0.49492 0.0
O140 O 0.05666 0.6965 0.39736 0.0
N141 N 0.11218 0.68715 0.36882 0.0
C142 C 0.10975 0.66025 0.2326 0.0
C143 C 0.11208 0.66189 0.33575 0.0
C144 C 0.10929 0.70002 0.28309 0.0
N145 N 0.10802 0.68426 0.19965 0.0
O146 O 0.13641 0.7447 0.44087 0.0
H147 H 0.11628 0.64684 0.38148 0.0
H148 H 0.11056 0.72187 0.28041 0.0
O149 O 0.0839 0.69761 0.53187 0.0
C150 C 0.16329 0.75638 0.40491 0.0
O151 O 0.17799 0.74138 0.41524 0.0
N152 N 0.1157 0.66765 0.55416 0.0
C153 C 0.11111 0.61419 0.62743 0.0
C154 C 0.08497 0.61646 0.61288 0.0
C155 C 0.08769 0.6434 0.57478 0.0
C156 C 0.14132 0.66598 0.57053 0.0
C157 C 0.13954 0.63937 0.60625 0.0
H158 H 0.06728 0.64438 0.5604 0.0
H159 H 0.16327 0.68535 0.55334 0.0
H160 H 0.10072 0.68983 0.71906 0.0
H161 H 0.18343 0.76533 0.80349 0.0
H162 H 0.11207 0.64425 0.18483 0.0
H163 H 0.06263 0.59729 0.62763 0.0
H164 H 0.1602 0.6384 0.61673 0.0
C165 C 0.46727 0.15543 0.03058 0.0
C166 C 0.46771 0.16262 0.13013 0.0
N167 N 0.43891 0.15207 0.16103 0.0
N168 N 0.43828 0.13958 0.99808 0.0
C169 C 0.42169 0.13978 0.07768 0.0
H170 H 0.48697 0.16026 0.98575 0.0
Co171 Co 0.42943 0.1239 0.86588 0.0
C172 C 0.37982 0.06789 0.98387 0.0
O173 O 0.38908 0.07912 0.07388 0.0
N174 N 0.4223 0.11064 0.73299 0.0
C175 C 0.40925 0.08411 0.59076 0.0
C176 C 0.41214 0.08279 0.69364 0.0
C177 C 0.42635 0.1286 0.65289 0.0
N178 N 0.41816 0.11302 0.56572 0.0
O179 O 0.40427 0.14215 0.84378 0.0
H180 H 0.40792 0.06303 0.73643 0.0
H181 H 0.43521 0.15276 0.65806 0.0
O182 O 0.39373 0.0837 0.9058 0.0
C183 C 0.42089 0.17066 0.82912 0.0
O184 O 0.45008 0.18305 0.84821 0.0
N185 N 0.45616 0.10829 0.88247 0.0
C186 C 0.50538 0.09971 0.92505 0.0
C187 C 0.47875 0.08545 0.98304 0.0
C188 C 0.45446 0.09003 0.96059 0.0
C189 C 0.48112 0.12091 0.82158 0.0
C190 C 0.50584 0.11669 0.84089 0.0
H191 H 0.43566 0.08097 0.01186 0.0
H192 H 0.48272 0.13591 0.76123 0.0
H193 H 0.39726 0.12989 0.07614 0.0
H194 H 0.48758 0.17244 0.1781 0.0
H195 H 0.40211 0.06551 0.53818 0.0
H196 H 0.47737 0.0726 0.04979 0.0
H197 H 0.52564 0.12777 0.79269 0.0
C198 C 0.59457 0.7473 0.30869 0.0
C199 C 0.59676 0.74936 0.20526 0.0
N200 N 0.60439 0.72901 0.17185 0.0
N201 N 0.60097 0.72587 0.33999 0.0
C202 C 0.6072 0.71549 0.25501 0.0
H203 H 0.58713 0.75951 0.35669 0.0
Co204 Co 0.59649 0.70886 0.46683 0.0
C205 C 0.64802 0.69496 0.48317 0.0
O206 O 0.64362 0.6884 0.57947 0.0
N207 N 0.59126 0.69142 0.59683 0.0
C208 C 0.57099 0.66241 0.73272 0.0
C209 C 0.56983 0.66367 0.62951 0.0
C210 C 0.60534 0.70624 0.68238 0.0
N211 N 0.59314 0.68943 0.76565 0.0
O212 O 0.62127 0.74903 0.52436 0.0
H213 H 0.55304 0.64572 0.58312 0.0
H214 H 0.62398 0.72928 0.68478 0.0
O215 O 0.63185 0.704 0.43725 0.0
C216 C 0.60284 0.75724 0.55812 0.0
O217 O 0.57373 0.7392 0.54064 0.0
N218 N 0.5696 0.67064 0.41166 0.0
C219 C 0.5216 0.61512 0.3482 0.0
C220 C 0.55136 0.62006 0.34964 0.0
C221 C 0.57519 0.64805 0.38268 0.0
C222 C 0.54101 0.66655 0.40609 0.0
C223 C 0.51664 0.63889 0.37564 0.0
H224 H 0.59774 0.65108 0.38646 0.0
H225 H 0.53704 0.68471 0.42887 0.0
H226 H 0.61232 0.69725 0.25385 0.0
H227 H 0.59114 0.76324 0.15818 0.0
H228 H 0.55536 0.64381 0.78006 0.0
H229 H 0.55597 0.60213 0.32892 0.0
H230 H 0.49399 0.63598 0.37457 0.0
C231 C 0.84771 0.55706 0.65961 0.0
C232 C 0.84372 0.5549 0.55686 0.0
N233 N 0.86518 0.58101 0.51517 0.0
N234 N 0.8716 0.58437 0.68286 0.0
C235 C 0.88134 0.59869 0.59346 0.0
H236 H 0.83543 0.53905 0.71351 0.0
Co237 Co 0.89049 0.59359 0.80892 0.0
C238 C 0.95609 0.63099 0.75766 0.0
O239 O 0.96158 0.6149 0.82302 0.0
N240 N 0.90799 0.60263 0.93824 0.0
C241 C 0.93004 0.63077 0.0743 0.0
C242 C 0.93033 0.62985 0.97124 0.0
C243 C 0.8936 0.58798 0.0238 0.0
N244 N 0.90658 0.6046 0.10759 0.0
O245 O 0.87647 0.6221 0.83885 0.0
H246 H 0.94388 0.64939 0.92454 0.0
H247 H 0.87181 0.56734 0.02406 0.0
O248 O 0.92883 0.6259 0.74615 0.0
C249 C 0.8481 0.6126 0.84961 0.0
O250 O 0.82853 0.58536 0.81717 0.0
N251 N 0.90222 0.5638 0.78357 0.0
C252 C 0.90812 0.51353 0.72942 0.0
C253 C 0.92046 0.53959 0.66912 0.0
C254 C 0.9168 0.56408 0.6963 0.0
C255 C 0.89038 0.53876 0.84392 0.0
C256 C 0.89331 0.51355 0.81889 0.0
H257 H 0.92452 0.58263 0.64375 0.0
H258 H 0.87694 0.53731 0.90871 0.0
H259 H 0.90155 0.62055 0.58495 0.0
H260 H 0.82734 0.53504 0.5159 0.0
H261 H 0.94454 0.65022 0.12045 0.0
H262 H 0.93217 0.54084 0.5995 0.0
H263 H 0.88264 0.49367 0.86665 0.0
C264 C 0.30632 0.84472 0.94853 0.0
C265 C 0.30025 0.83969 0.84762 0.0
N266 N 0.28899 0.85723 0.81559 0.0
N267 N 0.29963 0.86588 0.98082 0.0
C268 C 0.2873 0.87157 0.89918 0.0
H269 H 0.31607 0.83419 0.99414 0.0
Co270 Co 0.30842 0.88295 0.11137 0.0
C271 C 0.32526 0.93849 0.98053 0.0
O272 O 0.33586 0.92873 0.90802 0.0
N273 N 0.31632 0.89815 0.24081 0.0
C274 C 0.32959 0.92629 0.37915 0.0
C275 C 0.33265 0.92671 0.27586 0.0
C276 C 0.30412 0.88082 0.3232 0.0
N277 N 0.31139 0.89732 0.40875 0.0
O278 O 0.26565 0.86862 0.1355 0.0
H279 H 0.3458 0.94654 0.22963 0.0
H280 H 0.28956 0.8565 0.31955 0.0
O281 O 0.31467 0.92268 0.06123 0.0
C282 C 0.24949 0.8399 0.1459 0.0
O283 O 0.26187 0.82314 0.12609 0.0
N284 N 0.35002 0.89444 0.09596 0.0
C285 C 0.40673 0.89884 0.06151 0.0
C286 C 0.40198 0.92336 0.04134 0.0
C287 C 0.37391 0.9211 0.06279 0.0
C288 C 0.3551 0.8718 0.12661 0.0
C289 C 0.38309 0.87348 0.11043 0.0
H290 H 0.37194 0.94096 0.05224 0.0
H291 H 0.33676 0.85167 0.16075 0.0
H292 H 0.27902 0.88748 0.89936 0.0
H293 H 0.30612 0.82606 0.80014 0.0
H294 H 0.34023 0.94581 0.42839 0.0
H295 H 0.41932 0.94408 0.00718 0.0
H296 H 0.38571 0.85466 0.13512 0.0
C297 C 0.45698 0.29246 0.37328 0.0
C298 C 0.45788 0.29081 0.26987 0.0
N299 N 0.43363 0.2915 0.23186 0.0
N300 N 0.43227 0.29414 0.40035 0.0
C301 C 0.41809 0.29265 0.31276 0.0
H302 H 0.47457 0.295 0.42491 0.0
Co303 Co 0.42764 0.30696 0.52711 0.0
C304 C 0.37245 0.3157 0.49778 0.0
O305 O 0.35997 0.30575 0.58653 0.0
N306 N 0.42427 0.32019 0.65442 0.0
C307 C 0.42367 0.34591 0.78895 0.0
C308 C 0.42382 0.34528 0.68493 0.0
C309 C 0.42451 0.30622 0.74016 0.0
N310 N 0.42426 0.32125 0.82331 0.0
O311 O 0.39708 0.26567 0.56704 0.0
H312 H 0.42435 0.36233 0.63496 0.0
H313 H 0.4249 0.28533 0.74166 0.0
O314 O 0.39697 0.31587 0.47442 0.0
C315 C 0.39387 0.23977 0.54389 0.0
O316 O 0.39995 0.23492 0.45195 0.0
N317 N 0.45874 0.34633 0.49366 0.0
C318 C 0.50976 0.40135 0.44013 0.0
C319 C 0.48213 0.39072 0.38897 0.0
C320 C 0.45697 0.36313 0.41649 0.0
C321 C 0.48526 0.3564 0.54519 0.0
C322 C 0.511 0.38394 0.52014 0.0
H323 H 0.43653 0.35496 0.37301 0.0
H324 H 0.48662 0.34255 0.60451 0.0
H325 H 0.39763 0.29398 0.30763 0.0
H326 H 0.47636 0.29183 0.22603 0.0
H327 H 0.42409 0.36364 0.83528 0.0
H328 H 0.48 0.40343 0.32715 0.0
H329 H 0.53195 0.39095 0.56078 0.0
C330 C 0.1719 0.46327 0.67584 0.0
C331 C 0.17616 0.46522 0.57307 0.0
N332 N 0.15482 0.43899 0.53162 0.0
N333 N 0.14785 0.43606 0.69892 0.0
C334 C 0.1384 0.42153 0.60981 0.0
H335 H 0.18422 0.48125 0.72972 0.0
Co336 Co 0.1292 0.42592 0.825 0.0
C337 C 0.06418 0.38812 0.77702 0.0
O338 O 0.05955 0.40469 0.84314 0.0
N339 N 0.1121 0.41568 0.95521 0.0
C340 C 0.09123 0.38673 0.09071 0.0
C341 C 0.09056 0.38798 0.98769 0.0
C342 C 0.12643 0.43027 0.04084 0.0
N343 N 0.11411 0.41325 0.12424 0.0
O344 O 0.14519 0.39921 0.84936 0.0
H345 H 0.07726 0.36854 0.9403 0.0
H346 H 0.14772 0.45145 0.04124 0.0
O347 O 0.09124 0.39293 0.7631 0.0
C348 C 0.17149 0.41467 0.8886 0.0
O349 O 0.18339 0.44419 0.89532 0.0
N350 N 0.11585 0.45468 0.80337 0.0
C351 C 0.10789 0.50387 0.75439 0.0
C352 C 0.09813 0.47925 0.68874 0.0
C353 C 0.10236 0.45501 0.71431 0.0
C354 C 0.12515 0.47847 0.86861 0.0
C355 C 0.12088 0.50301 0.84648 0.0
H356 H 0.09603 0.43719 0.65949 0.0
H357 H 0.13764 0.47962 0.93541 0.0
H358 H 0.11827 0.3996 0.60127 0.0
H359 H 0.19273 0.48492 0.53187 0.0
H360 H 0.07726 0.367 0.1365 0.0
H361 H 0.08824 0.4792 0.61641 0.0
H362 H 0.12941 0.52203 0.89805 0.0
C363 C 0.71626 0.16439 0.99026 0.0
C364 C 0.72263 0.16939 0.88959 0.0
N365 N 0.7335 0.15148 0.85804 0.0
N366 N 0.72228 0.1428 0.02302 0.0
C367 C 0.73472 0.13698 0.94176 0.0
H368 H 0.70695 0.17546 0.03529 0.0
Co369 Co 0.71308 0.12567 0.15416 0.0
C370 C 0.69859 0.07064 0.02589 0.0
O371 O 0.68681 0.07973 0.95528 0.0
N372 N 0.70488 0.11043 0.28424 0.0
C373 C 0.69129 0.08203 0.42225 0.0
C374 C 0.6883 0.08184 0.31898 0.0
C375 C 0.71714 0.12752 0.36714 0.0
N376 N 0.7097 0.11089 0.45228 0.0
O377 O 0.75613 0.143 0.18194 0.0
H378 H 0.67501 0.06213 0.27262 0.0
H379 H 0.73183 0.15178 0.36466 0.0
O380 O 0.70943 0.08665 0.1061 0.0
C381 C 0.76716 0.1712 0.20138 0.0
O382 O 0.74963 0.18301 0.1863 0.0
N383 N 0.67111 0.11171 0.13445 0.0
C384 C 0.61438 0.10406 0.08272 0.0
C385 C 0.61966 0.07946 0.07953 0.0
C386 C 0.64799 0.08356 0.10871 0.0
C387 C 0.6648 0.13435 0.15249 0.0
C388 C 0.63687 0.13128 0.12551 0.0
H389 H 0.65101 0.06408 0.10892 0.0
H390 H 0.68221 0.15559 0.18372 0.0
H391 H 0.74293 0.12103 0.94218 0.0
H392 H 0.71722 0.18331 0.84192 0.0
H393 H 0.68048 0.06244 0.47112 0.0
H394 H 0.60256 0.05751 0.05164 0.0
H395 H 0.63325 0.15036 0.13607 0.0
C396 C 0.20636 0.39986 0.11184 0.0
C397 C 0.23173 0.40049 0.06734 0.0
H398 H 0.16597 0.40243 0.0875 0.0
C399 C 0.23262 0.39816 0.96194 0.0
H400 H 0.20561 0.40259 0.19259 0.0
C401 C 0.21014 0.3985 0.90158 0.0
C402 C 0.18628 0.4008 0.94594 0.0
H403 H 0.25238 0.39949 0.92578 0.0
H404 H 0.21315 0.40016 0.82055 0.0
C405 C 0.18369 0.39982 0.05154 0.0
C406 C 0.80584 0.22042 0.27397 0.0
C407 C 0.79545 0.18933 0.26081 0.0
H408 H 0.8335 0.26051 0.35845 0.0
C409 C 0.80934 0.17604 0.31705 0.0
H410 H 0.7955 0.23146 0.23359 0.0
C411 C 0.83253 0.19353 0.38689 0.0
C412 C 0.84214 0.22447 0.40081 0.0
H413 H 0.80141 0.15202 0.31048 0.0
H414 H 0.84235 0.18279 0.43161 0.0
C415 C 0.82823 0.23743 0.34435 0.0
C416 C 0.58919 0.78888 0.66519 0.0
C417 C 0.6119 0.78314 0.62884 0.0
H418 H 0.57689 0.8128 0.77039 0.0
C419 C 0.6415 0.80032 0.66814 0.0
H420 H 0.5661 0.77625 0.6374 0.0
C421 C 0.6478 0.82213 0.74408 0.0
C422 C 0.62457 0.8269 0.78151 0.0
H423 H 0.65943 0.79624 0.64273 0.0
H424 H 0.67044 0.83449 0.77563 0.0
C425 C 0.59532 0.80999 0.74137 0.0
C426 C 0.81152 0.62872 0.90914 0.0
C427 C 0.83712 0.62567 0.92789 0.0
H428 H 0.77326 0.63001 0.97191 0.0
C429 C 0.84625 0.6264 0.02819 0.0
H430 H 0.80379 0.62796 0.83258 0.0
C431 C 0.82772 0.62559 0.10791 0.0
C432 C 0.80038 0.6254 0.08897 0.0
H433 H 0.86571 0.62391 0.04512 0.0
H434 H 0.83337 0.62229 0.18383 0.0
C435 C 0.79384 0.62959 0.98924 0.0
C436 C 0.17448 0.77734 0.23236 0.0
C437 C 0.17655 0.78282 0.33646 0.0
H438 H 0.1962 0.79177 0.08853 0.0
C439 C 0.19897 0.81128 0.37208 0.0
H440 H 0.15788 0.75551 0.20311 0.0
C441 C 0.22057 0.8327 0.30556 0.0
C442 C 0.22065 0.82542 0.20326 0.0
H443 H 0.20161 0.81583 0.45229 0.0
H444 H 0.23913 0.85333 0.33638 0.0
C445 C 0.19646 0.79823 0.16653 0.0
C446 C 0.42525 0.2356 0.67858 0.0
C447 C 0.39781 0.22213 0.62535 0.0
H448 H 0.45303 0.23067 0.78816 0.0
C449 C 0.37656 0.19147 0.64378 0.0
H450 H 0.44283 0.25855 0.66148 0.0
C451 C 0.38287 0.17471 0.71479 0.0
C452 C 0.41059 0.18843 0.76793 0.0
H453 H 0.35554 0.18033 0.60154 0.0
H454 H 0.36671 0.15084 0.72487 0.0
C455 C 0.43126 0.21929 0.75029 0.0
C456 C 0.49382 0.57098 0.23027 0.0
C457 C 0.49539 0.58506 0.32295 0.0
H458 H 0.46664 0.53359 0.13161 0.0
C459 C 0.471 0.5709 0.3907 0.0
H460 H 0.51234 0.58157 0.17674 0.0
C461 C 0.44527 0.54345 0.36582 0.0
C462 C 0.44314 0.52976 0.27192 0.0
H463 H 0.47175 0.58127 0.46278 0.0
H464 H 0.42657 0.53343 0.41887 0.0
C465 C 0.46772 0.5437 0.20444 0.0
C466 C 0.91269 0.46714 0.76457 0.0
C467 C 0.9089 0.48592 0.69535 0.0
H468 H 0.91506 0.42672 0.78784 0.0
C469 C 0.90521 0.47779 0.59274 0.0
H470 H 0.91579 0.47274 0.84398 0.0
C471 C 0.90529 0.45167 0.56027 0.0
C472 C 0.90886 0.43275 0.62943 0.0
H473 H 0.9017 0.49132 0.5372 0.0
H474 H 0.90264 0.44638 0.4806 0.0
C475 C 0.91265 0.4409 0.73206 0.0
C476 C 0.48892 0.92666 0.97893 0.0
C477 C 0.48927 0.89934 0.96505 0.0
H478 H 0.46425 0.94835 0.02503 0.0
C479 C 0.46217 0.87203 0.98459 0.0
H480 H 0.50874 0.94838 0.96352 0.0
C481 C 0.43573 0.87197 0.01436 0.0
C482 C 0.43548 0.89926 0.03024 0.0
H483 H 0.46107 0.85031 0.9781 0.0
H484 H 0.41544 0.85018 0.0237 0.0
C485 C 0.46273 0.92664 0.01263 0.0
C486 C 0.57011 0.46224 0.27275 0.0
C487 C 0.5908 0.48255 0.34366 0.0
H488 H 0.52864 0.42075 0.24731 0.0
C489 C 0.58426 0.47628 0.44681 0.0
H490 H 0.57429 0.46649 0.19277 0.0
C491 C 0.55791 0.45014 0.47821 0.0
C492 C 0.53738 0.42968 0.40724 0.0
H493 H 0.59985 0.49125 0.50351 0.0
H494 H 0.55358 0.44599 0.55817 0.0
C495 C 0.54374 0.43616 0.30411 0.0
C496 C 0.12082 0.54519 0.62942 0.0
C497 C 0.1075 0.53155 0.72179 0.0
H498 H 0.13259 0.5822 0.52811 0.0
C499 C 0.09469 0.54494 0.7826 0.0
H500 H 0.13109 0.53547 0.58158 0.0
C501 C 0.09509 0.57145 0.75103 0.0
C502 C 0.109 0.58532 0.65951 0.0
H503 H 0.08429 0.53481 0.85409 0.0
H504 H 0.08518 0.5815 0.79896 0.0
C505 C 0.12181 0.57194 0.59907 0.0
C506 C 0.55793 0.07533 0.04655 0.0
C507 C 0.58631 0.10202 0.03932 0.0
H508 H 0.51029 0.05329 0.01419 0.0
C509 C 0.58794 0.12712 0.98893 0.0
H510 H 0.55572 0.05555 0.08489 0.0
C511 C 0.56189 0.12599 0.94985 0.0
C512 C 0.53337 0.0996 0.95881 0.0
H513 H 0.60946 0.14785 0.97963 0.0
H514 H 0.56412 0.14626 0.91515 0.0
C515 C 0.53179 0.07413 0.00668 0.0
C516 C 0.36486 0.35485 0.26605 0.0
C517 C 0.34439 0.3642 0.29698 0.0
H518 H 0.3893 0.33265 0.30391 0.0
C519 C 0.3306 0.3549 0.39238 0.0
H520 H 0.37575 0.36122 0.19289 0.0
C521 C 0.33858 0.33801 0.45716 0.0
C522 C 0.36045 0.33015 0.42743 0.0
H523 H 0.31471 0.36172 0.41872 0.0
H524 H 0.32855 0.33218 0.5316 0.0
C525 C 0.37271 0.33823 0.33014 0.0
C526 C 0.04148 0.35679 0.61884 0.0
C527 C 0.03801 0.36614 0.71546 0.0
H528 H 0.01933 0.33417 0.48115 0.0
C529 C 1.00861 0.35691 0.75039 0.0
H530 H 0.06387 0.36359 0.5895 0.0
C531 C 0.98348 0.34041 0.68893 0.0
C532 C 0.98661 0.33233 0.59034 0.0
H533 H 1.00494 0.36336 0.82469 0.0
H534 H 0.96166 0.33503 0.71839 0.0
C535 C 0.01594 0.33999 0.5567 0.0
C536 C 0.68615 0.02157 0.10985 0.0
C537 C 0.6918 0.03871 0.02145 0.0
H538 H 0.66473 0.97711 0.17493 0.0
C539 C 0.68556 0.0237 0.92791 0.0
H540 H 0.69107 0.03238 0.18295 0.0
C541 C 0.67121 0.99201 0.92313 0.0
C542 C 0.66211 0.97472 0.01188 0.0
H543 H 0.69005 0.03634 0.85828 0.0
H544 H 0.66506 0.98114 0.85015 0.0
C545 C 0.67106 0.98985 0.10514 0.0
C546 C 0.67566 0.69546 0.32377 0.0
C547 C 0.66696 0.68568 0.42376 0.0
H548 H 0.69673 0.69151 0.18832 0.0
C549 C 0.67423 0.66457 0.46431 0.0
H550 H 0.67031 0.71162 0.29 0.0
C551 C 0.68864 0.65263 0.40559 0.0
C552 C 0.69698 0.66191 0.30529 0.0
H553 H 0.66767 0.65622 0.54052 0.0
H554 H 0.69269 0.63562 0.43873 0.0
C555 C 0.69082 0.68394 0.26552 0.0
C556 C 0.03586 0.68333 0.66715 0.0
C557 C 0.03214 0.68285 0.56207 0.0
H558 H 0.01471 0.66738 0.81091 0.0
C559 C 1.00241 0.66876 0.52304 0.0
H560 H 0.05824 0.69472 0.70033 0.0
C561 C 0.97717 0.65366 0.58738 0.0
C562 C 0.9813 0.6522 0.69158 0.0
H563 H 0.99864 0.668 0.44254 0.0
H564 H 0.95469 0.64146 0.55475 0.0
C565 C 1.01084 0.6679 0.73084 0.0
C566 C 0.34603 0.01755 0.06511 0.0
C567 C 0.35905 0.03452 0.97669 0.0
H568 H 0.32455 0.97388 0.13567 0.0
C569 C 0.3555 0.01877 0.88626 0.0
H570 H 0.34765 0.02879 0.13609 0.0
C571 C 0.34256 0.98716 0.88647 0.0
C572 C 0.33236 0.97057 0.97687 0.0
H573 H 0.36418 0.03084 0.8163 0.0
H574 H 0.34193 0.9759 0.81644 0.0
C575 C 0.33272 0.98594 0.06512 0.0
C576 C 0.28889 0.4019 0.6157 0.0
C577 C 0.30381 0.43201 0.58133 0.0
H578 H 0.28053 0.37169 0.73866 0.0
C579 C 0.32162 0.45535 0.64963 0.0
H580 H 0.27461 0.38346 0.56552 0.0
C581 C 0.32518 0.44859 0.74907 0.0
C582 C 0.31104 0.41838 0.78241 0.0
H583 H 0.33378 0.47876 0.62544 0.0
H584 H 0.33975 0.46696 0.79904 0.0
C585 C 0.29244 0.39515 0.71495 0.0
C586 C 0.87328 0.29857 0.07543 0.0
C587 C 0.9042 0.31778 0.09887 0.0
H588 H 0.83994 0.27593 0.96026 0.0
C589 C 0.92542 0.32857 0.01984 0.0
H590 H 0.85611 0.29009 0.13373 0.0
C591 C 0.91596 0.32057 0.9201 0.0
C592 C 0.88506 0.30154 0.89673 0.0
H593 H 0.94936 0.3432 0.03489 0.0
H594 H 0.93285 0.33007 0.86125 0.0
C595 C 0.86387 0.29056 0.9757 0.0
C596 C 0.58955 0.849 0.35794 0.0
C597 C 0.60515 0.8696 0.27982 0.0
H598 H 0.57906 0.84261 0.51477 0.0
C599 C 0.62555 0.90003 0.30476 0.0
H600 H 0.57403 0.82534 0.3415 0.0
C601 C 0.62848 0.91002 0.40436 0.0
C602 C 0.61132 0.88979 0.48149 0.0
H603 H 0.6381 0.91659 0.24703 0.0
H604 H 0.64373 0.93375 0.42052 0.0
C605 C 0.59256 0.85895 0.45753 0.0
C606 C 0.70029 0.60457 0.74026 0.0
C607 C 0.70854 0.59133 0.81806 0.0
H608 H 0.7007 0.61285 0.58265 0.0
C609 C 0.72591 0.57759 0.79331 0.0
H610 H 0.68741 0.6158 0.75589 0.0
C611 C 0.73418 0.57657 0.69359 0.0
C612 C 0.72521 0.58907 0.61569 0.0
H613 H 0.73272 0.56701 0.85026 0.0
H614 H 0.74726 0.56555 0.67722 0.0
C615 C 0.70846 0.60339 0.64048 0.0
C616 C 0.09283 0.69296 0.03218 0.0
C617 C 0.11551 0.69622 0.09936 0.0
H618 H 0.08245 0.70013 0.88139 0.0
C619 C 0.14579 0.71023 0.0666 0.0
H620 H 0.06935 0.68199 0.05637 0.0
C621 C 0.15342 0.72105 0.96807 0.0
C622 C 0.13074 0.71732 0.89952 0.0
H623 H 0.16348 0.71264 0.11769 0.0
H624 H 0.17691 0.7314 0.94455 0.0
C625 C 0.10035 0.70323 0.93263 0.0
C626 C 0.39945 0.10776 0.39128 0.0
C627 C 0.42038 0.12518 0.46623 0.0
H628 H 0.38779 0.10354 0.23564 0.0
C629 C 0.44431 0.15417 0.44148 0.0
H630 H 0.38032 0.08571 0.40909 0.0
C631 C 0.4488 0.16432 0.34179 0.0
C632 C 0.42936 0.14578 0.26493 0.0
H633 H 0.46064 0.16826 0.49793 0.0
H634 H 0.46851 0.18595 0.32382 0.0
C635 C 0.40364 0.11815 0.2919 0.0
C636 C 0.61055 0.74022 0.98985 0.0
C637 C 0.60412 0.71972 0.06932 0.0
H638 H 0.61197 0.74664 0.8307 0.0
C639 C 0.59576 0.68949 0.04703 0.0
H640 H 0.61719 0.76364 0.00474 0.0
C641 C 0.59306 0.67978 0.94741 0.0
C642 C 0.5987 0.70006 0.86799 0.0
H643 H 0.59018 0.67294 0.10629 0.0
H644 H 0.58607 0.65628 0.93242 0.0
C645 C 0.60791 0.73051 0.89017 0.0
C646 C 0.87784 0.56848 0.24427 0.0
C647 C 0.89464 0.59839 0.20886 0.0
H648 H 0.85547 0.53941 0.3697 0.0
C649 C 0.89977 0.62229 0.27424 0.0
H650 H 0.87358 0.54963 0.19585 0.0
C651 C 0.88931 0.6165 0.37352 0.0
C652 C 0.87335 0.58667 0.41006 0.0
H653 H 0.91182 0.64558 0.24885 0.0
H654 H 0.89388 0.63543 0.42198 0.0
C655 C 0.86733 0.56266 0.34383 0.0
C656 C 0.30301 0.90569 0.58719 0.0
C657 C 0.30189 0.88618 0.51004 0.0
H658 H 0.2991 0.91172 0.74457 0.0
C659 C 0.29204 0.85574 0.53424 0.0
H660 H 0.30963 0.92903 0.5712 0.0
C661 C 0.2855 0.84564 0.6338 0.0
C662 C 0.28877 0.86571 0.71194 0.0
H663 H 0.29065 0.83989 0.47729 0.0
H664 H 0.27914 0.82238 0.65026 0.0
C665 C 0.29646 0.89557 0.68685 0.0
C666 C 0.43802 0.29419 0.94958 0.0
C667 C 0.42573 0.31295 0.92631 0.0
H668 H 0.4497 0.2723 0.06491 0.0
C669 C 0.41508 0.32351 0.00535 0.0
H670 H 0.44688 0.2859 0.89112 0.0
C671 C 0.41696 0.31581 0.10501 0.0
C672 C 0.42948 0.29732 0.1284 0.0
H673 H 0.40531 0.33778 0.9904 0.0
H674 H 0.40948 0.3252 0.16375 0.0
C675 C 0.43988 0.28651 0.04939 0.0
C676 C 0.15269 0.45646 0.35922 0.0
C677 C 0.14703 0.43285 0.42651 0.0
H678 H 0.14617 0.46866 0.21059 0.0
C679 C 0.13158 0.40285 0.39122 0.0
H680 H 0.16416 0.47981 0.38426 0.0
C681 C 0.12121 0.39649 0.29201 0.0
C682 C 0.12593 0.41999 0.22552 0.0
H683 H 0.1273 0.38422 0.44069 0.0
H684 H 0.10952 0.3731 0.26761 0.0
C685 C 0.14225 0.45009 0.25978 0.0
C686 C 0.71793 0.10235 0.63055 0.0
C687 C 0.71941 0.12198 0.55342 0.0
H688 H 0.722 0.09643 0.78785 0.0
C689 C 0.73004 0.15262 0.57727 0.0
H690 H 0.7107 0.07885 0.6148 0.0
C691 C 0.73711 0.16286 0.67643 0.0
C692 C 0.73348 0.14274 0.75462 0.0
H693 H 0.73168 0.16859 0.52051 0.0
H694 H 0.74409 0.18629 0.6926 0.0
C695 C 0.72495 0.11262 0.72995 0.0
loop_
_geom_bond_atom_site_label_1
_geom_bond_atom_site_label_2
_geom_bond_distance
_geom_bond_site_symmetry_2
_ccdc_geom_bond_type
C0 C1 1.351 . S
C0 N3 1.368 . S
C0 H5 0.931 . S
C1 C0 1.351 . S
C1 N2 1.373 . S
C1 H29 0.930 . S
N2 C1 1.373 . S
N2 C4 1.340 . S
N3 C0 1.368 . S
N3 C4 1.321 . S
N3 Co6 2.135 . S
C4 N2 1.340 . S
C4 N3 1.321 . S
C4 H28 0.930 . S
H5 C0 0.931 . S
Co6 N3 2.135 . S
Co6 N9 2.121 . S
Co6 O14 2.055 . S
Co6 O17 2.039 . S
Co6 N20 2.140 . S
C7 O8 1.227 . S
C7 O17 1.265 . S
O8 C7 1.227 . S
N9 Co6 2.121 . S
N9 C11 1.375 . S
N9 C12 1.313 . S
C10 C11 1.338 1_556 S
C10 N13 1.377 . S
C10 H30 0.930 . S
C11 N9 1.375 . S
C11 C10 1.338 1_554 S
C11 H15 0.931 . S
C12 N9 1.313 . S
C12 N13 1.344 1_554 S
C12 H16 0.930 1_554 S
N13 C10 1.377 . S
N13 C12 1.344 1_556 S
O14 Co6 2.055 . S
O14 C18 1.253 . S
H15 C11 0.931 . S
H16 C12 0.930 1_556 S
O17 Co6 2.039 . S
O17 C7 1.265 . S
C18 O14 1.253 . S
C18 O19 1.227 . S
O19 C18 1.227 . S
N20 Co6 2.140 . S
N20 C23 1.346 . S
N20 C24 1.345 . S
C21 C22 1.387 . S
C21 C25 1.391 . S
C22 C21 1.387 . S
C22 C23 1.369 . S
C22 H31 0.929 . S
C23 N20 1.346 . S
C23 C22 1.369 . S
C23 H26 0.928 . S
C24 N20 1.345 . S
C24 C25 1.371 . S
C24 H27 0.931 . S
C25 C21 1.391 . S
C25 C24 1.371 . S
C25 H32 0.930 . S
H26 C23 0.928 . S
H27 C24 0.931 . S
H28 C4 0.930 . S
H29 C1 0.930 . S
H30 C10 0.930 . S
H31 C22 0.929 . S
H32 C25 0.930 . S
C33 C34 1.351 . S
C33 N36 1.368 . S
C33 H38 0.931 . S
C34 C33 1.351 . S
C34 N35 1.373 . S
C34 H62 0.930 . S
N35 C34 1.373 . S
N35 C37 1.340 . S
N36 C33 1.368 . S
N36 C37 1.321 . S
N36 Co39 2.135 . S
C37 N35 1.340 . S
C37 N36 1.321 . S
C37 H61 0.930 . S
H38 C33 0.931 . S
Co39 N36 2.135 . S
Co39 N42 2.121 . S
Co39 O47 2.055 . S
Co39 O50 2.039 . S
Co39 N53 2.140 . S
C40 O41 1.227 . S
C40 O50 1.265 . S
O41 C40 1.227 . S
N42 Co39 2.121 . S
N42 C44 1.375 . S
N42 C45 1.313 . S
C43 C44 1.338 . S
C43 N46 1.377 . S
C43 H63 0.930 . S
C44 N42 1.375 . S
C44 C43 1.338 . S
C44 H48 0.931 . S
C45 N42 1.313 . S
C45 N46 1.344 . S
C45 H49 0.930 . S
N46 C43 1.377 . S
N46 C45 1.344 . S
O47 Co39 2.055 . S
O47 C51 1.253 . S
H48 C44 0.931 . S
H49 C45 0.930 . S
O50 Co39 2.039 . S
O50 C40 1.265 . S
C51 O47 1.253 . S
C51 O52 1.227 . S
O52 C51 1.227 . S
N53 Co39 2.140 . S
N53 C56 1.346 . S
N53 C57 1.345 . S
C54 C55 1.387 . S
C54 C58 1.391 . S
C55 C54 1.387 . S
C55 C56 1.369 . S
C55 H64 0.929 . S
C56 N53 1.346 . S
C56 C55 1.369 . S
C56 H59 0.928 . S
C57 N53 1.345 . S
C57 C58 1.371 . S
C57 H60 0.931 . S
C58 C54 1.391 . S
C58 C57 1.371 . S
C58 H65 0.930 . S
H59 C56 0.928 . S
H60 C57 0.931 . S
H61 C37 0.930 . S
H62 C34 0.930 . S
H63 C43 0.930 . S
H64 C55 0.929 . S
H65 C58 0.930 . S
C66 C67 1.351 . S
C66 N69 1.368 . S
C66 H71 0.931 . S
C67 C66 1.351 . S
C67 N68 1.373 . S
C67 H95 0.930 . S
N68 C67 1.373 . S
N68 C70 1.340 . S
N69 C66 1.368 . S
N69 C70 1.321 . S
N69 Co72 2.135 1_554 S
C70 N68 1.340 . S
C70 N69 1.321 . S
C70 H94 0.930 . S
H71 C66 0.931 . S
Co72 N69 2.135 1_556 S
Co72 N75 2.121 . S
Co72 O80 2.055 . S
Co72 O83 2.039 . S
Co72 N86 2.140 . S
C73 O74 1.227 . S
C73 O83 1.265 . S
O74 C73 1.227 . S
N75 Co72 2.121 . S
N75 C77 1.375 . S
N75 C78 1.313 . S
C76 C77 1.338 . S
C76 N79 1.377 . S
C76 H96 0.930 . S
C77 N75 1.375 . S
C77 C76 1.338 . S
C77 H81 0.931 . S
C78 N75 1.313 . S
C78 N79 1.344 . S
C78 H82 0.930 . S
N79 C76 1.377 . S
N79 C78 1.344 . S
O80 Co72 2.055 . S
O80 C84 1.253 . S
H81 C77 0.931 . S
H82 C78 0.930 . S
O83 Co72 2.039 . S
O83 C73 1.265 . S
C84 O80 1.253 . S
C84 O85 1.227 . S
O85 C84 1.227 . S
N86 Co72 2.140 . S
N86 C89 1.346 1_556 S
N86 C90 1.345 . S
C87 C88 1.387 1_556 S
C87 C91 1.391 . S
C88 C87 1.387 1_554 S
C88 C89 1.369 . S
C88 H97 0.929 . S
C89 N86 1.346 1_554 S
C89 C88 1.369 . S
C89 H92 0.928 . S
C90 N86 1.345 . S
C90 C91 1.371 . S
C90 H93 0.931 . S
C91 C87 1.391 . S
C91 C90 1.371 . S
C91 H98 0.930 . S
H92 C89 0.928 . S
H93 C90 0.931 . S
H94 C70 0.930 . S
H95 C67 0.930 . S
H96 C76 0.930 . S
H97 C88 0.929 . S
H98 C91 0.930 . S
C99 C100 1.351 . S
C99 N102 1.368 . S
C99 H104 0.931 . S
C100 C99 1.351 . S
C100 N101 1.373 . S
C100 H128 0.930 . S
N101 C100 1.373 . S
N101 C103 1.340 . S
N102 C99 1.368 . S
N102 C103 1.321 . S
N102 Co105 2.135 . S
C103 N101 1.340 . S
C103 N102 1.321 . S
C103 H127 0.930 . S
H104 C99 0.931 . S
Co105 N102 2.135 . S
Co105 N108 2.121 . S
Co105 O113 2.055 . S
Co105 O116 2.039 . S
Co105 N119 2.140 . S
C106 O107 1.227 . S
C106 O116 1.265 . S
O107 C106 1.227 . S
N108 Co105 2.121 . S
N108 C110 1.375 . S
N108 C111 1.313 . S
C109 C110 1.338 1_556 S
C109 N112 1.377 . S
C109 H129 0.930 . S
C110 N108 1.375 . S
C110 C109 1.338 1_554 S
C110 H114 0.931 . S
C111 N108 1.313 . S
C111 N112 1.344 1_554 S
C111 H115 0.930 1_554 S
N112 C109 1.377 . S
N112 C111 1.344 1_556 S
O113 Co105 2.055 . S
O113 C117 1.253 . S
H114 C110 0.931 . S
H115 C111 0.930 1_556 S
O116 Co105 2.039 . S
O116 C106 1.265 . S
C117 O113 1.253 . S
C117 O118 1.227 . S
O118 C117 1.227 . S
N119 Co105 2.140 . S
N119 C122 1.346 . S
N119 C123 1.345 . S
C120 C121 1.387 . S
C120 C124 1.391 . S
C121 C120 1.387 . S
C121 C122 1.369 . S
C121 H130 0.929 . S
C122 N119 1.346 . S
C122 C121 1.369 . S
C122 H125 0.928 . S
C123 N119 1.345 . S
C123 C124 1.371 . S
C123 H126 0.931 . S
C124 C120 1.391 . S
C124 C123 1.371 . S
C124 H131 0.930 . S
H125 C122 0.928 . S
H126 C123 0.931 . S
H127 C103 0.930 . S
H128 C100 0.930 . S
H129 C109 0.930 . S
H130 C121 0.929 . S
H131 C124 0.930 . S
C132 C133 1.351 . S
C132 N135 1.368 . S
C132 H137 0.931 . S
C133 C132 1.351 . S
C133 N134 1.373 . S
C133 H161 0.930 . S
N134 C133 1.373 . S
N134 C136 1.340 . S
N135 C132 1.368 . S
N135 C136 1.321 . S
N135 Co138 2.135 . S
C136 N134 1.340 . S
C136 N135 1.321 . S
C136 H160 0.930 . S
H137 C132 0.931 . S
Co138 N135 2.135 . S
Co138 N141 2.121 . S
Co138 O146 2.055 . S
Co138 O149 2.039 . S
Co138 N152 2.140 . S
C139 O140 1.227 . S
C139 O149 1.265 . S
O140 C139 1.227 . S
N141 Co138 2.121 . S
N141 C143 1.375 . S
N141 C144 1.313 . S
C142 C143 1.338 . S
C142 N145 1.377 . S
C142 H162 0.930 . S
C143 N141 1.375 . S
C143 C142 1.338 . S
C143 H147 0.931 . S
C144 N141 1.313 . S
C144 N145 1.344 . S
C144 H148 0.930 . S
N145 C142 1.377 . S
N145 C144 1.344 . S
O146 Co138 2.055 . S
O146 C150 1.253 . S
H147 C143 0.931 . S
H148 C144 0.930 . S
O149 Co138 2.039 . S
O149 C139 1.265 . S
C150 O146 1.253 . S
C150 O151 1.227 . S
O151 C150 1.227 . S
N152 Co138 2.140 . S
N152 C155 1.346 . S
N152 C156 1.345 . S
C153 C154 1.387 . S
C153 C157 1.391 . S
C154 C153 1.387 . S
C154 C155 1.369 . S
C154 H163 0.929 . S
C155 N152 1.346 . S
C155 C154 1.369 . S
C155 H158 0.928 . S
C156 N152 1.345 . S
C156 C157 1.371 . S
C156 H159 0.931 . S
C157 C153 1.391 . S
C157 C156 1.371 . S
C157 H164 0.930 . S
H158 C155 0.928 . S
H159 C156 0.931 . S
H160 C136 0.930 . S
H161 C133 0.930 . S
H162 C142 0.930 . S
H163 C154 0.929 . S
H164 C157 0.930 . S
C165 C166 1.351 . S
C165 N168 1.368 . S
C165 H170 0.931 . S
C166 C165 1.351 . S
C166 N167 1.373 . S
C166 H194 0.930 . S
N167 C166 1.373 . S
N167 C169 1.340 . S
N168 C165 1.368 . S
N168 C169 1.321 . S
N168 Co171 2.135 1_554 S
C169 N167 1.340 . S
C169 N168 1.321 . S
C169 H193 0.930 . S
H170 C165 0.931 . S
Co171 N168 2.135 1_556 S
Co171 N174 2.121 . S
Co171 O179 2.055 . S
Co171 O182 2.039 . S
Co171 N185 2.140 . S
C172 O173 1.227 . S
C172 O182 1.265 . S
O173 C172 1.227 . S
N174 Co171 2.121 . S
N174 C176 1.375 . S
N174 C177 1.313 . S
C175 C176 1.338 . S
C175 N178 1.377 . S
C175 H195 0.930 . S
C176 N174 1.375 . S
C176 C175 1.338 . S
C176 H180 0.931 . S
C177 N174 1.313 . S
C177 N178 1.344 . S
C177 H181 0.930 . S
N178 C175 1.377 . S
N178 C177 1.344 . S
O179 Co171 2.055 . S
O179 C183 1.253 . S
H180 C176 0.931 . S
H181 C177 0.930 . S
O182 Co171 2.039 . S
O182 C172 1.265 . S
C183 O179 1.253 . S
C183 O184 1.227 . S
O184 C183 1.227 . S
N185 Co171 2.140 . S
N185 C188 1.346 1_556 S
N185 C189 1.345 . S
C186 C187 1.387 1_556 S
C186 C190 1.391 . S
C187 C186 1.387 1_554 S
C187 C188 1.369 . S
C187 H196 0.929 . S
C188 N185 1.346 1_554 S
C188 C187 1.369 . S
C188 H191 0.928 . S
C189 N185 1.345 . S
C189 C190 1.371 . S
C189 H192 0.931 . S
C190 C186 1.391 . S
C190 C189 1.371 . S
C190 H197 0.930 . S
H191 C188 0.928 . S
H192 C189 0.931 . S
H193 C169 0.930 . S
H194 C166 0.930 . S
H195 C175 0.930 . S
H196 C187 0.929 . S
H197 C190 0.930 . S
C198 C199 1.351 . S
C198 N201 1.368 . S
C198 H203 0.931 . S
C199 C198 1.351 . S
C199 N200 1.373 . S
C199 H227 0.930 . S
N200 C199 1.373 . S
N200 C202 1.340 . S
N201 C198 1.368 . S
N201 C202 1.321 . S
N201 Co204 2.135 . S
C202 N200 1.340 . S
C202 N201 1.321 . S
C202 H226 0.930 . S
H203 C198 0.931 . S
Co204 N201 2.135 . S
Co204 N207 2.121 . S
Co204 O212 2.055 . S
Co204 O215 2.039 . S
Co204 N218 2.140 . S
C205 O206 1.227 . S
C205 O215 1.265 . S
O206 C205 1.227 . S
N207 Co204 2.121 . S
N207 C209 1.375 . S
N207 C210 1.313 . S
C208 C209 1.338 . S
C208 N211 1.377 . S
C208 H228 0.930 . S
C209 N207 1.375 . S
C209 C208 1.338 . S
C209 H213 0.931 . S
C210 N207 1.313 . S
C210 N211 1.344 . S
C210 H214 0.930 . S
N211 C208 1.377 . S
N211 C210 1.344 . S
O212 Co204 2.055 . S
O212 C216 1.253 . S
H213 C209 0.931 . S
H214 C210 0.930 . S
O215 Co204 2.039 . S
O215 C205 1.265 . S
C216 O212 1.253 . S
C216 O217 1.227 . S
O217 C216 1.227 . S
N218 Co204 2.140 . S
N218 C221 1.346 . S
N218 C222 1.345 . S
C219 C220 1.387 . S
C219 C223 1.391 . S
C220 C219 1.387 . S
C220 C221 1.369 . S
C220 H229 0.929 . S
C221 N218 1.346 . S
C221 C220 1.369 . S
C221 H224 0.928 . S
C222 N218 1.345 . S
C222 C223 1.371 . S
C222 H225 0.931 . S
C223 C219 1.391 . S
C223 C222 1.371 . S
C223 H230 0.930 . S
H224 C221 0.928 . S
H225 C222 0.931 . S
H226 C202 0.930 . S
H227 C199 0.930 . S
H228 C208 0.930 . S
H229 C220 0.929 . S
H230 C223 0.930 . S
C231 C232 1.351 . S
C231 N234 1.368 . S
C231 H236 0.931 . S
C232 C231 1.351 . S
C232 N233 1.373 . S
C232 H260 0.930 . S
N233 C232 1.373 . S
N233 C235 1.340 . S
N234 C231 1.368 . S
N234 C235 1.321 . S
N234 Co237 2.135 . S
C235 N233 1.340 . S
C235 N234 1.321 . S
C235 H259 0.930 . S
H236 C231 0.931 . S
Co237 N234 2.135 . S
Co237 N240 2.121 . S
Co237 O245 2.055 . S
Co237 O248 2.039 . S
Co237 N251 2.140 . S
C238 O239 1.227 . S
C238 O248 1.265 . S
O239 C238 1.227 . S
N240 Co237 2.121 . S
N240 C242 1.375 . S
N240 C243 1.313 . S
C241 C242 1.338 1_554 S
C241 N244 1.377 . S
C241 H261 0.930 . S
C242 N240 1.375 . S
C242 C241 1.338 1_556 S
C242 H246 0.931 . S
C243 N240 1.313 . S
C243 N244 1.344 1_556 S
C243 H247 0.930 1_556 S
N244 C241 1.377 . S
N244 C243 1.344 1_554 S
O245 Co237 2.055 . S
O245 C249 1.253 . S
H246 C242 0.931 . S
H247 C243 0.930 1_554 S
O248 Co237 2.039 . S
O248 C238 1.265 . S
C249 O245 1.253 . S
C249 O250 1.227 . S
O250 C249 1.227 . S
N251 Co237 2.140 . S
N251 C254 1.346 . S
N251 C255 1.345 . S
C252 C253 1.387 . S
C252 C256 1.391 . S
C253 C252 1.387 . S
C253 C254 1.369 . S
C253 H262 0.929 . S
C254 N251 1.346 . S
C254 C253 1.369 . S
C254 H257 0.928 . S
C255 N251 1.345 . S
C255 C256 1.371 . S
C255 H258 0.931 . S
C256 C252 1.391 . S
C256 C255 1.371 . S
C256 H263 0.930 . S
H257 C254 0.928 . S
H258 C255 0.931 . S
H259 C235 0.930 . S
H260 C232 0.930 . S
H261 C241 0.930 . S
H262 C253 0.929 . S
H263 C256 0.930 . S
C264 C265 1.351 . S
C264 N267 1.368 . S
C264 H269 0.931 . S
C265 C264 1.351 . S
C265 N266 1.373 . S
C265 H293 0.930 . S
N266 C265 1.373 . S
N266 C268 1.340 . S
N267 C264 1.368 . S
N267 C268 1.321 . S
N267 Co270 2.135 1_556 S
C268 N266 1.340 . S
C268 N267 1.321 . S
C268 H292 0.930 . S
H269 C264 0.931 . S
Co270 N267 2.135 1_554 S
Co270 N273 2.121 . S
Co270 O278 2.055 . S
Co270 O281 2.039 . S
Co270 N284 2.140 . S
C271 O272 1.227 . S
C271 O281 1.265 . S
O272 C271 1.227 . S
N273 Co270 2.121 . S
N273 C275 1.375 . S
N273 C276 1.313 . S
C274 C275 1.338 . S
C274 N277 1.377 . S
C274 H294 0.930 . S
C275 N273 1.375 . S
C275 C274 1.338 . S
C275 H279 0.931 . S
C276 N273 1.313 . S
C276 N277 1.344 . S
C276 H280 0.930 . S
N277 C274 1.377 . S
N277 C276 1.344 . S
O278 Co270 2.055 . S
O278 C282 1.253 . S
H279 C275 0.931 . S
H280 C276 0.930 . S
O281 Co270 2.039 . S
O281 C271 1.265 . S
C282 O278 1.253 . S
C282 O283 1.227 . S
O283 C282 1.227 . S
N284 Co270 2.140 . S
N284 C287 1.346 1_554 S
N284 C288 1.345 . S
C285 C286 1.387 1_554 S
C285 C289 1.391 . S
C286 C285 1.387 1_556 S
C286 C287 1.369 . S
C286 H295 0.929 . S
C287 N284 1.346 1_556 S
C287 C286 1.369 . S
C287 H290 0.928 . S
C288 N284 1.345 . S
C288 C289 1.371 . S
C288 H291 0.931 . S
C289 C285 1.391 . S
C289 C288 1.371 . S
C289 H296 0.930 . S
H290 C287 0.928 . S
H291 C288 0.931 . S
H292 C268 0.930 . S
H293 C265 0.930 . S
H294 C274 0.930 . S
H295 C286 0.929 . S
H296 C289 0.930 . S
C297 C298 1.351 . S
C297 N300 1.368 . S
C297 H302 0.931 . S
C298 C297 1.351 . S
C298 N299 1.373 . S
C298 H326 0.930 . S
N299 C298 1.373 . S
N299 C301 1.340 . S
N300 C297 1.368 . S
N300 C301 1.321 . S
N300 Co303 2.135 . S
C301 N299 1.340 . S
C301 N300 1.321 . S
C301 H325 0.930 . S
H302 C297 0.931 . S
Co303 N300 2.135 . S
Co303 N306 2.121 . S
Co303 O311 2.055 . S
Co303 O314 2.039 . S
Co303 N317 2.140 . S
C304 O305 1.227 . S
C304 O314 1.265 . S
O305 C304 1.227 . S
N306 Co303 2.121 . S
N306 C308 1.375 . S
N306 C309 1.313 . S
C307 C308 1.338 . S
C307 N310 1.377 . S
C307 H327 0.930 . S
C308 N306 1.375 . S
C308 C307 1.338 . S
C308 H312 0.931 . S
C309 N306 1.313 . S
C309 N310 1.344 . S
C309 H313 0.930 . S
N310 C307 1.377 . S
N310 C309 1.344 . S
O311 Co303 2.055 . S
O311 C315 1.253 . S
H312 C308 0.931 . S
H313 C309 0.930 . S
O314 Co303 2.039 . S
O314 C304 1.265 . S
C315 O311 1.253 . S
C315 O316 1.227 . S
O316 C315 1.227 . S
N317 Co303 2.140 . S
N317 C320 1.346 . S
N317 C321 1.345 . S
C318 C319 1.387 . S
C318 C322 1.391 . S
C319 C318 1.387 . S
C319 C320 1.369 . S
C319 H328 0.929 . S
C320 N317 1.346 . S
C320 C319 1.369 . S
C320 H323 0.928 . S
C321 N317 1.345 . S
C321 C322 1.371 . S
C321 H324 0.931 . S
C322 C318 1.391 . S
C322 C321 1.371 . S
C322 H329 0.930 . S
H323 C320 0.928 . S
H324 C321 0.931 . S
H325 C301 0.930 . S
H326 C298 0.930 . S
H327 C307 0.930 . S
H328 C319 0.929 . S
H329 C322 0.930 . S
C330 C331 1.351 . S
C330 N333 1.368 . S
C330 H335 0.931 . S
C331 C330 1.351 . S
C331 N332 1.373 . S
C331 H359 0.930 . S
N332 C331 1.373 . S
N332 C334 1.340 . S
N333 C330 1.368 . S
N333 C334 1.321 . S
N333 Co336 2.135 . S
C334 N332 1.340 . S
C334 N333 1.321 . S
C334 H358 0.930 . S
H335 C330 0.931 . S
Co336 N333 2.135 . S
Co336 N339 2.121 . S
Co336 O344 2.055 . S
Co336 O347 2.039 . S
Co336 N350 2.140 . S
C337 O338 1.227 . S
C337 O347 1.265 . S
O338 C337 1.227 . S
N339 Co336 2.121 . S
N339 C341 1.375 . S
N339 C342 1.313 . S
C340 C341 1.338 1_554 S
C340 N343 1.377 . S
C340 H360 0.930 . S
C341 N339 1.375 . S
C341 C340 1.338 1_556 S
C341 H345 0.931 . S
C342 N339 1.313 . S
C342 N343 1.344 1_556 S
C342 H346 0.930 1_556 S
N343 C340 1.377 . S
N343 C342 1.344 1_554 S
O344 Co336 2.055 . S
O344 C348 1.253 . S
H345 C341 0.931 . S
H346 C342 0.930 1_554 S
O347 Co336 2.039 . S
O347 C337 1.265 . S
C348 O344 1.253 . S
C348 O349 1.227 . S
O349 C348 1.227 . S
N350 Co336 2.140 . S
N350 C353 1.346 . S
N350 C354 1.345 . S
C351 C352 1.387 . S
C351 C355 1.391 . S
C352 C351 1.387 . S
C352 C353 1.369 . S
C352 H361 0.929 . S
C353 N350 1.346 . S
C353 C352 1.369 . S
C353 H356 0.928 . S
C354 N350 1.345 . S
C354 C355 1.371 . S
C354 H357 0.931 . S
C355 C351 1.391 . S
C355 C354 1.371 . S
C355 H362 0.930 . S
H356 C353 0.928 . S
H357 C354 0.931 . S
H358 C334 0.930 . S
H359 C331 0.930 . S
H360 C340 0.930 . S
H361 C352 0.929 . S
H362 C355 0.930 . S
C363 C364 1.351 . S
C363 N366 1.368 . S
C363 H368 0.931 . S
C364 C363 1.351 . S
C364 N365 1.373 . S
C364 H392 0.930 . S
N365 C364 1.373 . S
N365 C367 1.340 . S
N366 C363 1.368 . S
N366 C367 1.321 . S
N366 Co369 2.135 1_556 S
C367 N365 1.340 . S
C367 N366 1.321 . S
C367 H391 0.930 . S
H368 C363 0.931 . S
Co369 N366 2.135 1_554 S
Co369 N372 2.121 . S
Co369 O377 2.055 . S
Co369 O380 2.039 . S
Co369 N383 2.140 . S
C370 O371 1.227 . S
C370 O380 1.265 . S
O371 C370 1.227 . S
N372 Co369 2.121 . S
N372 C374 1.375 . S
N372 C375 1.313 . S
C373 C374 1.338 . S
C373 N376 1.377 . S
C373 H393 0.930 . S
C374 N372 1.375 . S
C374 C373 1.338 . S
C374 H378 0.931 . S
C375 N372 1.313 . S
C375 N376 1.344 . S
C375 H379 0.930 . S
N376 C373 1.377 . S
N376 C375 1.344 . S
O377 Co369 2.055 . S
O377 C381 1.253 . S
H378 C374 0.931 . S
H379 C375 0.930 . S
O380 Co369 2.039 . S
O380 C370 1.265 . S
C381 O377 1.253 . S
C381 O382 1.227 . S
O382 C381 1.227 . S
N383 Co369 2.140 . S
N383 C386 1.346 1_554 S
N383 C387 1.345 . S
C384 C385 1.387 1_554 S
C384 C388 1.391 . S
C385 C384 1.387 1_556 S
C385 C386 1.369 . S
C385 H394 0.929 . S
C386 N383 1.346 1_556 S
C386 C385 1.369 . S
C386 H389 0.928 . S
C387 N383 1.345 . S
C387 C388 1.371 . S
C387 H390 0.931 . S
C388 C384 1.391 . S
C388 C387 1.371 . S
C388 H395 0.930 . S
H389 C386 0.928 . S
H390 C387 0.931 . S
H391 C367 0.930 . S
H392 C364 0.930 . S
H393 C373 0.930 . S
H394 C385 0.929 . S
H395 C388 0.930 . S
C396 C397 1.387 . S
C396 H400 0.950 . S
C396 C405 1.390 1_554 S
C397 C396 1.387 . S
C397 C399 1.387 . S
H398 C405 0.950 . S
C399 C397 1.387 . S
C399 C401 1.390 1_554 S
C399 H403 0.950 . S
H400 C396 0.950 . S
C401 C399 1.390 1_556 S
C401 C402 1.387 . S
C401 H404 0.950 . S
C402 C401 1.387 . S
C402 C405 1.387 . S
H403 C399 0.950 . S
H404 C401 0.950 . S
C405 C396 1.390 1_556 S
C405 H398 0.950 . S
C405 C402 1.387 . S
C406 C407 1.387 . S
C406 H410 0.950 . S
C406 C415 1.390 . S
C407 C406 1.387 . S
C407 C409 1.387 . S
H408 C415 0.950 . S
C409 C407 1.387 . S
C409 C411 1.390 . S
C409 H413 0.950 . S
H410 C406 0.950 . S
C411 C409 1.390 . S
C411 C412 1.387 . S
C411 H414 0.950 . S
C412 C411 1.387 . S
C412 C415 1.387 . S
H413 C409 0.950 . S
H414 C411 0.950 . S
C415 C406 1.390 . S
C415 H408 0.950 . S
C415 C412 1.387 . S
C416 C417 1.387 . S
C416 H420 0.950 . S
C416 C425 1.390 . S
C417 C416 1.387 . S
C417 C419 1.387 . S
H418 C425 0.950 . S
C419 C417 1.387 . S
C419 C421 1.390 . S
C419 H423 0.950 . S
H420 C416 0.950 . S
C421 C419 1.390 . S
C421 C422 1.387 . S
C421 H424 0.950 . S
C422 C421 1.387 . S
C422 C425 1.387 . S
H423 C419 0.950 . S
H424 C421 0.950 . S
C425 C416 1.390 . S
C425 H418 0.950 . S
C425 C422 1.387 . S
C426 C427 1.387 . S
C426 H430 0.950 . S
C426 C435 1.390 1_556 S
C427 C426 1.387 . S
C427 C429 1.387 . S
H428 C435 0.950 . S
C429 C427 1.387 . S
C429 C431 1.390 1_556 S
C429 H433 0.950 . S
H430 C426 0.950 . S
C431 C429 1.390 1_554 S
C431 C432 1.387 . S
C431 H434 0.950 . S
C432 C431 1.387 . S
C432 C435 1.387 . S
H433 C429 0.950 . S
H434 C431 0.950 . S
C435 C426 1.390 1_554 S
C435 H428 0.950 . S
C435 C432 1.387 . S
C436 C437 1.387 . S
C436 H440 0.950 . S
C436 C445 1.390 . S
C437 C436 1.387 . S
C437 C439 1.387 . S
H438 C445 0.950 . S
C439 C437 1.387 . S
C439 C441 1.390 . S
C439 H443 0.950 . S
H440 C436 0.950 . S
C441 C439 1.390 . S
C441 C442 1.387 . S
C441 H444 0.950 . S
C442 C441 1.387 . S
C442 C445 1.387 . S
H443 C439 0.950 . S
H444 C441 0.950 . S
C445 C436 1.390 . S
C445 H438 0.950 . S
C445 C442 1.387 . S
C446 C447 1.387 . S
C446 H450 0.950 . S
C446 C455 1.390 . S
C447 C446 1.387 . S
C447 C449 1.387 . S
H448 C455 0.950 . S
C449 C447 1.387 . S
C449 C451 1.390 . S
C449 H453 0.950 . S
H450 C446 0.950 . S
C451 C449 1.390 . S
C451 C452 1.387 . S
C451 H454 0.950 . S
C452 C451 1.387 . S
C452 C455 1.387 . S
H453 C449 0.950 . S
H454 C451 0.950 . S
C455 C446 1.390 . S
C455 H448 0.950 . S
C455 C452 1.387 . S
C456 C457 1.387 . S
C456 H460 0.950 . S
C456 C465 1.390 . S
C457 C456 1.387 . S
C457 C459 1.387 . S
H458 C465 0.950 . S
C459 C457 1.387 . S
C459 C461 1.390 . S
C459 H463 0.950 . S
H460 C456 0.950 . S
C461 C459 1.390 . S
C461 C462 1.387 . S
C461 H464 0.950 . S
C462 C461 1.387 . S
C462 C465 1.387 . S
H463 C459 0.950 . S
H464 C461 0.950 . S
C465 C456 1.390 . S
C465 H458 0.950 . S
C465 C462 1.387 . S
C466 C467 1.387 . S
C466 H470 0.950 . S
C466 C475 1.390 . S
C467 C466 1.387 . S
C467 C469 1.387 . S
H468 C475 0.950 . S
C469 C467 1.387 . S
C469 C471 1.390 . S
C469 H473 0.950 . S
H470 C466 0.950 . S
C471 C469 1.390 . S
C471 C472 1.387 . S
C471 H474 0.950 . S
C472 C471 1.387 . S
C472 C475 1.387 . S
H473 C469 0.950 . S
H474 C471 0.950 . S
C475 C466 1.390 . S
C475 H468 0.950 . S
C475 C472 1.387 . S
C476 C477 1.387 . S
C476 H480 0.950 . S
C476 C485 1.390 1_556 S
C477 C476 1.387 . S
C477 C479 1.387 . S
H478 C485 0.950 . S
C479 C477 1.387 . S
C479 C481 1.390 1_556 S
C479 H483 0.950 . S
H480 C476 0.950 . S
C481 C479 1.390 1_554 S
C481 C482 1.387 . S
C481 H484 0.950 . S
C482 C481 1.387 . S
C482 C485 1.387 . S
H483 C479 0.950 . S
H484 C481 0.950 . S
C485 C476 1.390 1_554 S
C485 H478 0.950 . S
C485 C482 1.387 . S
C486 C487 1.387 . S
C486 H490 0.950 . S
C486 C495 1.390 . S
C487 C486 1.387 . S
C487 C489 1.387 . S
H488 C495 0.950 . S
C489 C487 1.387 . S
C489 C491 1.390 . S
C489 H493 0.950 . S
H490 C486 0.950 . S
C491 C489 1.390 . S
C491 C492 1.387 . S
C491 H494 0.950 . S
C492 C491 1.387 . S
C492 C495 1.387 . S
H493 C489 0.950 . S
H494 C491 0.950 . S
C495 C486 1.390 . S
C495 H488 0.950 . S
C495 C492 1.387 . S
C496 C497 1.387 . S
C496 H500 0.950 . S
C496 C505 1.390 . S
C497 C496 1.387 . S
C497 C499 1.387 . S
H498 C505 0.950 . S
C499 C497 1.387 . S
C499 C501 1.390 . S
C499 H503 0.950 . S
H500 C496 0.950 . S
C501 C499 1.390 . S
C501 C502 1.387 . S
C501 H504 0.950 . S
C502 C501 1.387 . S
C502 C505 1.387 . S
H503 C499 0.950 . S
H504 C501 0.950 . S
C505 C496 1.390 . S
C505 H498 0.950 . S
C505 C502 1.387 . S
C506 C507 1.387 . S
C506 H510 0.950 . S
C506 C515 1.390 1_554 S
C507 C506 1.387 . S
C507 C509 1.387 . S
H508 C515 0.950 . S
C509 C507 1.387 . S
C509 C511 1.390 1_554 S
C509 H513 0.950 . S
H510 C506 0.950 . S
C511 C509 1.390 1_556 S
C511 C512 1.387 . S
C511 H514 0.950 . S
C512 C511 1.387 . S
C512 C515 1.387 . S
H513 C509 0.950 . S
H514 C511 0.950 . S
C515 C506 1.390 1_556 S
C515 H508 0.950 . S
C515 C512 1.387 . S
C516 C517 1.387 . S
C516 H520 0.950 . S
C516 C525 1.390 . S
C517 C516 1.387 . S
C517 C519 1.387 . S
H518 C525 0.950 . S
C519 C517 1.387 . S
C519 C521 1.390 . S
C519 H523 0.950 . S
H520 C516 0.950 . S
C521 C519 1.390 . S
C521 C522 1.387 . S
C521 H524 0.950 . S
C522 C521 1.387 . S
C522 C525 1.387 . S
H523 C519 0.950 . S
H524 C521 0.950 . S
C525 C516 1.390 . S
C525 H518 0.950 . S
C525 C522 1.387 . S
C526 C527 1.387 . S
C526 H530 0.950 . S
C526 C535 1.390 1_455 S
C527 C526 1.387 . S
C527 C529 1.387 . S
H528 C535 0.950 . S
C529 C527 1.387 . S
C529 C531 1.390 1_455 S
C529 H533 0.950 . S
H530 C526 0.950 . S
C531 C529 1.390 1_655 S
C531 C532 1.387 . S
C531 H534 0.950 . S
C532 C531 1.387 . S
C532 C535 1.387 . S
H533 C529 0.950 . S
H534 C531 0.950 . S
C535 C526 1.390 1_655 S
C535 H528 0.950 . S
C535 C532 1.387 . S
C536 C537 1.387 . S
C536 H540 0.950 . S
C536 C545 1.390 1_544 S
C537 C536 1.387 . S
C537 C539 1.387 . S
H538 C545 0.950 . S
C539 C537 1.387 . S
C539 C541 1.390 1_544 S
C539 H543 0.950 . S
H540 C536 0.950 . S
C541 C539 1.390 1_566 S
C541 C542 1.387 . S
C541 H544 0.950 . S
C542 C541 1.387 . S
C542 C545 1.387 . S
H543 C539 0.950 . S
H544 C541 0.950 . S
C545 C536 1.390 1_566 S
C545 H538 0.950 . S
C545 C542 1.387 . S
C546 C547 1.387 . S
C546 H550 0.950 . S
C546 C555 1.390 . S
C547 C546 1.387 . S
C547 C549 1.387 . S
H548 C555 0.950 . S
C549 C547 1.387 . S
C549 C551 1.390 . S
C549 H553 0.950 . S
H550 C546 0.950 . S
C551 C549 1.390 . S
C551 C552 1.387 . S
C551 H554 0.950 . S
C552 C551 1.387 . S
C552 C555 1.387 . S
H553 C549 0.950 . S
H554 C551 0.950 . S
C555 C546 1.390 . S
C555 H548 0.950 . S
C555 C552 1.387 . S
C556 C557 1.387 . S
C556 H560 0.950 . S
C556 C565 1.390 1_455 S
C557 C556 1.387 . S
C557 C559 1.387 . S
H558 C565 0.950 . S
C559 C557 1.387 . S
C559 C561 1.390 1_455 S
C559 H563 0.950 . S
H560 C556 0.950 . S
C561 C559 1.390 1_655 S
C561 C562 1.387 . S
C561 H564 0.950 . S
C562 C561 1.387 . S
C562 C565 1.387 . S
H563 C559 0.950 . S
H564 C561 0.950 . S
C565 C556 1.390 1_655 S
C565 H558 0.950 . S
C565 C562 1.387 . S
C566 C567 1.387 . S
C566 H570 0.950 . S
C566 C575 1.390 1_546 S
C567 C566 1.387 . S
C567 C569 1.387 . S
H568 C575 0.950 . S
C569 C567 1.387 . S
C569 C571 1.390 1_546 S
C569 H573 0.950 . S
H570 C566 0.950 . S
C571 C569 1.390 1_564 S
C571 C572 1.387 . S
C571 H574 0.950 . S
C572 C571 1.387 . S
C572 C575 1.387 . S
H573 C569 0.950 . S
H574 C571 0.950 . S
C575 C566 1.390 1_564 S
C575 H568 0.950 . S
C575 C572 1.387 . S
C576 C577 1.387 . S
C576 H580 0.950 . S
C576 C585 1.390 . S
C577 C576 1.387 . S
C577 C579 1.387 . S
H578 C585 0.950 . S
C579 C577 1.387 . S
C579 C581 1.390 . S
C579 H583 0.950 . S
H580 C576 0.950 . S
C581 C579 1.390 . S
C581 C582 1.387 . S
C581 H584 0.950 . S
C582 C581 1.387 . S
C582 C585 1.387 . S
H583 C579 0.950 . S
H584 C581 0.950 . S
C585 C576 1.390 . S
C585 H578 0.950 . S
C585 C582 1.387 . S
C586 C587 1.387 . S
C586 H590 0.950 . S
C586 C595 1.390 . S
C587 C586 1.387 . S
C587 C589 1.387 . S
H588 C595 0.950 . S
C589 C587 1.387 . S
C589 C591 1.390 1_554 S
C589 H593 0.950 . S
H590 C586 0.950 . S
C591 C589 1.390 1_556 S
C591 C592 1.387 . S
C591 H594 0.950 . S
C592 C591 1.387 . S
C592 C595 1.387 1_556 S
H593 C589 0.950 . S
H594 C591 0.950 . S
C595 C586 1.390 . S
C595 H588 0.950 . S
C595 C592 1.387 1_554 S
C596 C597 1.387 . S
C596 H600 0.950 . S
C596 C605 1.390 . S
C597 C596 1.387 . S
C597 C599 1.387 . S
H598 C605 0.950 . S
C599 C597 1.387 . S
C599 C601 1.390 . S
C599 H603 0.950 . S
H600 C596 0.950 . S
C601 C599 1.390 . S
C601 C602 1.387 . S
C601 H604 0.950 . S
C602 C601 1.387 . S
C602 C605 1.387 . S
H603 C599 0.950 . S
H604 C601 0.950 . S
C605 C596 1.390 . S
C605 H598 0.950 . S
C605 C602 1.387 . S
C606 C607 1.387 . S
C606 H610 0.950 . S
C606 C615 1.390 . S
C607 C606 1.387 . S
C607 C609 1.387 . S
H608 C615 0.950 . S
C609 C607 1.387 . S
C609 C611 1.390 . S
C609 H613 0.950 . S
H610 C606 0.950 . S
C611 C609 1.390 . S
C611 C612 1.387 . S
C611 H614 0.950 . S
C612 C611 1.387 . S
C612 C615 1.387 . S
H613 C609 0.950 . S
H614 C611 0.950 . S
C615 C606 1.390 . S
C615 H608 0.950 . S
C615 C612 1.387 . S
C616 C617 1.387 . S
C616 H620 0.950 . S
C616 C625 1.390 . S
C617 C616 1.387 . S
C617 C619 1.387 . S
H618 C625 0.950 1_556 S
C619 C617 1.387 . S
C619 C621 1.390 . S
C619 H623 0.950 . S
H620 C616 0.950 . S
C621 C619 1.390 . S
C621 C622 1.387 1_554 S
C621 H624 0.950 1_554 S
C622 C621 1.387 1_556 S
C622 C625 1.387 1_556 S
H623 C619 0.950 . S
H624 C621 0.950 1_556 S
C625 C616 1.390 . S
C625 H618 0.950 1_554 S
C625 C622 1.387 1_554 S
C626 C627 1.387 . S
C626 H630 0.950 . S
C626 C635 1.390 . S
C627 C626 1.387 . S
C627 C629 1.387 . S
H628 C635 0.950 . S
C629 C627 1.387 . S
C629 C631 1.390 . S
C629 H633 0.950 . S
H630 C626 0.950 . S
C631 C629 1.390 . S
C631 C632 1.387 . S
C631 H634 0.950 . S
C632 C631 1.387 . S
C632 C635 1.387 . S
H633 C629 0.950 . S
H634 C631 0.950 . S
C635 C626 1.390 . S
C635 H628 0.950 . S
C635 C632 1.387 . S
C636 C637 1.387 1_556 S
C636 H640 0.950 . S
C636 C645 1.390 . S
C637 C636 1.387 1_554 S
C637 C639 1.387 1_554 S
H638 C645 0.950 . S
C639 C637 1.387 1_556 S
C639 C641 1.390 . S
C639 H643 0.950 1_556 S
H640 C636 0.950 . S
C641 C639 1.390 . S
C641 C642 1.387 . S
C641 H644 0.950 . S
C642 C641 1.387 . S
C642 C645 1.387 . S
H643 C639 0.950 1_554 S
H644 C641 0.950 . S
C645 C636 1.390 . S
C645 H638 0.950 . S
C645 C642 1.387 . S
C646 C647 1.387 . S
C646 H650 0.950 . S
C646 C655 1.390 . S
C647 C646 1.387 . S
C647 C649 1.387 . S
H648 C655 0.950 . S
C649 C647 1.387 . S
C649 C651 1.390 . S
C649 H653 0.950 . S
H650 C646 0.950 . S
C651 C649 1.390 . S
C651 C652 1.387 . S
C651 H654 0.950 . S
C652 C651 1.387 . S
C652 C655 1.387 . S
H653 C649 0.950 . S
H654 C651 0.950 . S
C655 C646 1.390 . S
C655 H648 0.950 . S
C655 C652 1.387 . S
C656 C657 1.387 . S
C656 H660 0.950 . S
C656 C665 1.390 . S
C657 C656 1.387 . S
C657 C659 1.387 . S
H658 C665 0.950 . S
C659 C657 1.387 . S
C659 C661 1.390 . S
C659 H663 0.950 . S
H660 C656 0.950 . S
C661 C659 1.390 . S
C661 C662 1.387 . S
C661 H664 0.950 . S
C662 C661 1.387 . S
C662 C665 1.387 . S
H663 C659 0.950 . S
H664 C661 0.950 . S
C665 C656 1.390 . S
C665 H658 0.950 . S
C665 C662 1.387 . S
C666 C667 1.387 . S
C666 H670 0.950 . S
C666 C675 1.390 . S
C667 C666 1.387 . S
C667 C669 1.387 . S
H668 C675 0.950 . S
C669 C667 1.387 . S
C669 C671 1.390 . S
C669 H673 0.950 . S
H670 C666 0.950 . S
C671 C669 1.390 . S
C671 C672 1.387 1_556 S
C671 H674 0.950 1_556 S
C672 C671 1.387 1_554 S
C672 C675 1.387 1_554 S
H673 C669 0.950 . S
H674 C671 0.950 1_554 S
C675 C666 1.390 . S
C675 H668 0.950 . S
C675 C672 1.387 1_556 S
C676 C677 1.387 . S
C676 H680 0.950 . S
C676 C685 1.390 . S
C677 C676 1.387 . S
C677 C679 1.387 . S
H678 C685 0.950 . S
C679 C677 1.387 . S
C679 C681 1.390 . S
C679 H683 0.950 . S
H680 C676 0.950 . S
C681 C679 1.390 . S
C681 C682 1.387 . S
C681 H684 0.950 . S
C682 C681 1.387 . S
C682 C685 1.387 . S
H683 C679 0.950 . S
H684 C681 0.950 . S
C685 C676 1.390 . S
C685 H678 0.950 . S
C685 C682 1.387 . S
C686 C687 1.387 . S
C686 H690 0.950 . S
C686 C695 1.390 . S
C687 C686 1.387 . S
C687 C689 1.387 . S
H688 C695 0.950 . S
C689 C687 1.387 . S
C689 C691 1.390 . S
C689 H693 0.950 . S
H690 C686 0.950 . S
C691 C689 1.390 . S
C691 C692 1.387 . S
C691 H694 0.950 . S
C692 C691 1.387 . S
C692 C695 1.387 . S
H693 C689 0.950 . S
H694 C691 0.950 . S
C695 C686 1.390 . S
C695 H688 0.950 . S
C695 C692 1.387 . S
C397 C18 1.574 . S
C402 C348 1.574 . S
C407 C381 1.578 . S
C412 C51 1.578 . S
C417 C216 1.577 . S
C422 C84 1.576 . S
C427 C249 1.574 . S
C432 C117 1.574 . S
C437 C150 1.577 . S
C442 C282 1.578 . S
C447 C315 1.578 . S
C452 C183 1.578 . S
C457 C219 1.588 . S
C462 C21 1.587 . S
C467 C252 1.588 . S
C472 C54 1.588 . S
C477 C87 1.588 . S
C482 C285 1.588 . S
C487 C120 1.588 . S
C492 C318 1.589 . S
C497 C351 1.589 . S
C502 C153 1.588 . S
C507 C384 1.588 . S
C512 C186 1.588 . S
C517 C7 1.429 . S
C522 C304 1.427 . S
C527 C337 1.427 . S
C532 C40 1.429 . S
C537 C370 1.427 . S
C542 C73 1.427 . S
C547 C205 1.427 . S
C552 C106 1.429 . S
C557 C139 1.427 . S
C562 C238 1.429 . S
C567 C172 1.429 . S
C572 C271 1.429 . S
C577 N2 1.232 . S
C582 N13 1.232 . S
C587 N46 1.231 . S
C592 N35 1.231 . S
C597 N68 1.231 . S
C602 N79 1.231 . S
C607 N112 1.231 . S
C612 N101 1.232 . S
C617 N145 1.232 . S
C622 N134 1.232 . S
C627 N178 1.232 . S
C632 N167 1.232 . S
C637 N200 1.232 . S
C642 N211 1.231 . S
C647 N244 1.231 . S
C652 N233 1.232 . S
C657 N277 1.233 . S
C662 N266 1.233 . S
C667 N310 1.231 . S
C672 N299 1.231 . S
C677 N332 1.232 . S
C682 N343 1.231 . S
C687 N376 1.233 . S
C692 N365 1.233 . S
