# Generated by pormake.
# Topology wjf, (4)-cn, num edge types: 1
# Building blocks:
#     Node 0, Type 0, BuildingBlock: QUQFOY_clean_sbu_3, # of connection points: 4
#     Node 1, Type 0, BuildingBlock: QUQFOY_clean_sbu_3, # of connection points: 4
#     Node 2, Type 0, BuildingBlock: QUQFOY_clean_sbu_3, # of connection points: 4
#     Node 3, Type 0, BuildingBlock: QUQFOY_clean_sbu_3, # of connection points: 4
#     Node 4, Type 0, BuildingBlock: QUQFOY_clean_sbu_3, # of connection points: 4
#     Node 5, Type 0, BuildingBlock: QUQFOY_clean_sbu_3, # of connection points: 4
#     Node 6, Type 0, BuildingBlock: QUQFOY_clean_sbu_3, # of connection points: 4
#     Node 7, Type 0, BuildingBlock: QUQFOY_clean_sbu_3, # of connection points: 4
#     Node 8, Type 0, BuildingBlock: QUQFOY_clean_sbu_3, # of connection points: 4
#     Node 9, Type 0, BuildingBlock: QUQFOY_clean_sbu_3, # of connection points: 4
#     Node 10, Type 0, BuildingBlock: QUQFOY_clean_sbu_3, # of connection points: 4
#     Node 11, Type 0, BuildingBlock: QUQFOY_clean_sbu_3, # of connection points: 4
#     Edge 12, Type (0, 0), BuildingBlock: KIFKEQ_clean_linker_1, # of connection points: 2
#     Edge 13, Type (0, 0), BuildingBlock: KIFKEQ_clean_linker_1, # of connection points: 2
#     Edge 14, Type (0, 0), BuildingBlock: KIFKEQ_clean_linker_1, # of connection points: 2
#     Edge 15, Type (0, 0), BuildingBlock: KIFKEQ_clean_linker_1, # of connection points: 2
#     Edge 16, Type (0, 0), BuildingBlock: KIFKEQ_clean_linker_1, # of connection points: 2
#     Edge 17, Type (0, 0), BuildingBlock: KIFKEQ_clean_linker_1, # of connection points: 2
#     Edge 18, Type (0, 0), BuildingBlock: KIFKEQ_clean_linker_1, # of connection points: 2
#     Edge 19, Type (0, 0), BuildingBlock: KIFKEQ_clean_linker_1, # of connection points: 2
#     Edge 20, Type (0, 0), BuildingBlock: KIFKEQ_clean_linker_1, # of connection points: 2
#     Edge 21, Type (0, 0), BuildingBlock: KIFKEQ_clean_linker_1, # of connection points: 2
#     Edge 22, Type (0, 0), BuildingBlock: KIFKEQ_clean_linker_1, # of connection points: 2
#     Edge 23, Type (0, 0), BuildingBlock: KIFKEQ_clean_linker_1, # of connection points: 2
#     Edge 24, Type (0, 0), BuildingBlock: KIFKEQ_clean_linker_1, # of connection points: 2
#     Edge 25, Type (0, 0), BuildingBlock: KIFKEQ_clean_linker_1, # of connection points: 2
#     Edge 26, Type (0, 0), BuildingBlock: KIFKEQ_clean_linker_1, # of connection points: 2
#     Edge 27, Type (0, 0), BuildingBlock: KIFKEQ_clean_linker_1, # of connection points: 2
#     Edge 28, Type (0, 0), BuildingBlock: KIFKEQ_clean_linker_1, # of connection points: 2
#     Edge 29, Type (0, 0), BuildingBlock: KIFKEQ_clean_linker_1, # of connection points: 2
#     Edge 30, Type (0, 0), BuildingBlock: KIFKEQ_clean_linker_1, # of connection points: 2
#     Edge 31, Type (0, 0), BuildingBlock: KIFKEQ_clean_linker_1, # of connection points: 2
#     Edge 32, Type (0, 0), BuildingBlock: KIFKEQ_clean_linker_1, # of connection points: 2
#     Edge 33, Type (0, 0), BuildingBlock: KIFKEQ_clean_linker_1, # of connection points: 2
#     Edge 34, Type (0, 0), BuildingBlock: KIFKEQ_clean_linker_1, # of connection points: 2
#     Edge 35, Type (0, 0), BuildingBlock: KIFKEQ_clean_linker_1, # of connection points: 2
# Relax obj value: 0.105
# Max RMSD: 0.136
# Mean RMSD: 0.136
data_MOF--net-wjf--node1-QUQFOY_clean_sbu_3--edge1-KIFKEQ_clean_linker_1
_symmetry_space_group_name_H-M    P1
_symmetry_Int_Tables_number       1
_symmetry_cell_setting            triclinic
loop_
_symmetry_equiv_pos_as_xyz
'x, y, z'
_cell_length_a     53.625448
_cell_length_b     53.730018
_cell_length_c     29.717722
_cell_angle_alpha  89.946942
_cell_angle_beta   90.054241
_cell_angle_gamma 120.17392
loop_
_atom_site_label
_atom_site_type_symbol
_atom_site_fract_x
_atom_site_fract_y
_atom_site_fract_z
_atom_type_partial_charge
C0 C 0.3224 0.33082 0.12766 0.0
O1 O 0.33567 0.32178 0.10339 0.0
Cd2 Cd 0.34882 0.3346 0.0264 0.0
O3 O 0.31419 0.34747 0.11129 0.0
Cd4 Cd 0.31652 0.37008 0.03715 0.0
C5 C 0.38957 0.40807 0.03989 0.0
O6 O 0.30862 0.33078 -0.01364 0.0
O7 O 0.32464 0.37305 0.9572 0.0
O8 O 0.26594 0.35447 0.04075 0.0
C9 C 0.31444 0.3463 0.95138 0.0
O10 O 0.38769 0.38421 0.02947 0.0
C11 C 0.26823 0.37862 0.03179 0.0
O12 O 0.36693 0.40952 0.0479 0.0
O13 O 0.29367 0.4002 0.02978 0.0
C14 C 0.96773 0.31251 0.47779 0.0
O15 O -0.00974 0.32355 0.4536 0.0
Cd16 Cd -0.007 0.34639 0.38322 0.0
O17 O 0.9445 0.31054 0.46292 0.0
Cd18 Cd 0.92695 0.32028 0.39142 0.0
C19 C 0.96623 0.39078 0.41322 0.0
O20 O 0.95616 0.31467 0.33277 0.0
O21 O 0.93692 0.34069 0.31733 0.0
O22 O 0.8891 0.27049 0.38776 0.0
C23 C 0.94996 0.32798 0.30354 0.0
O24 O 0.98707 0.38754 0.40022 0.0
C25 C 0.86875 0.27521 0.37845 0.0
O26 O 0.9408 0.36912 0.41685 0.0
O27 O 0.87481 0.30135 0.37907 0.0
C28 C 0.6477 0.98396 0.79387 0.0
O29 O 0.65721 0.00613 0.76906 0.0
Cd30 Cd 0.64556 0.00617 0.69127 0.0
O31 O 0.63079 0.95896 0.77791 0.0
Cd32 Cd 0.60798 0.93876 0.70373 0.0
C33 C 0.57246 0.97617 0.70331 0.0
O34 O 0.64872 0.96871 0.65342 0.0
O35 O 0.60667 0.94302 0.62317 0.0
O36 O 0.61749 0.89939 0.7128 0.0
C37 C 0.63362 0.95897 0.61802 0.0
O38 O 0.5966 -0.00232 0.69199 0.0
C39 C 0.59254 0.87961 0.70102 0.0
O40 O 0.57041 0.95205 0.71288 0.0
O41 O 0.57368 0.88695 0.69467 0.0
C42 C 0.66214 0.65506 0.13319 0.0
O43 O 0.65147 0.66681 0.10882 0.0
Cd44 Cd 0.63671 0.65388 0.03222 0.0
O45 O 0.66733 0.63623 0.11668 0.0
Cd46 Cd 0.66386 0.61384 0.04208 0.0
C47 C 0.59093 0.58107 0.04551 0.0
O48 O 0.67566 0.65486 -0.00797 0.0
O49 O 0.65719 0.61262 0.96189 0.0
O50 O 0.71251 0.62235 0.05119 0.0
C51 C 0.66916 0.63961 0.95669 0.0
O52 O 0.59448 0.60568 0.03535 0.0
C53 C 0.70697 0.59756 0.03829 0.0
O54 O 0.61259 0.57783 0.05279 0.0
O55 O 0.6806 0.57915 0.03117 0.0
C56 C 0.00291 0.67234 0.47511 0.0
O57 O 0.98033 0.66139 0.45099 0.0
Cd58 Cd 0.97743 0.63867 0.38044 0.0
O59 O 0.02605 0.67419 0.46017 0.0
Cd60 Cd 0.04331 0.66413 0.38882 0.0
C61 C 0.00328 0.5936 0.41071 0.0
O62 O 0.01444 0.67043 0.33016 0.0
O63 O 0.03334 0.64417 0.31444 0.0
O64 O 0.08195 0.71359 0.38552 0.0
C65 C 0.02057 0.6572 0.30076 0.0
O66 O 0.98258 0.59701 0.39741 0.0
C67 C 0.10194 0.7083 0.37651 0.0
O68 O 0.02876 0.61515 0.41443 0.0
O69 O 0.09528 0.68199 0.37707 0.0
C70 C 0.32567 0.0007 0.79407 0.0
O71 O 0.31398 0.97825 0.76971 0.0
Cd72 Cd 0.32672 0.97649 0.69305 0.0
O73 O 0.34441 0.02487 0.7775 0.0
Cd74 Cd 0.36654 0.04365 0.7025 0.0
C75 C 0.39972 0.00422 0.70557 0.0
O76 O 0.32537 0.01414 0.65257 0.0
O77 O 0.36768 0.03787 0.62233 0.0
O78 O 0.35837 0.08397 0.70974 0.0
C79 C 0.34063 0.02285 0.61718 0.0
O80 O 0.37508 0.98294 0.69562 0.0
C81 C 0.38347 0.10313 0.69746 0.0
O82 O 0.40284 0.02902 0.7129 0.0
O83 O 0.40182 0.09505 0.6917 0.0
C84 C 0.65018 0.66603 0.46798 0.0
O85 O 0.66226 0.65572 0.4924 0.0
Cd86 Cd 0.64911 0.64074 0.56884 0.0
O87 O 0.63101 0.67077 0.48443 0.0
Cd88 Cd 0.60841 0.667 0.55898 0.0
C89 C 0.57624 0.59441 0.55502 0.0
O90 O 0.6495 0.67925 0.60925 0.0
O91 O 0.60705 0.66005 0.63915 0.0
O92 O 0.61688 0.71547 0.55003 0.0
C93 C 0.63411 0.67246 0.64451 0.0
O94 O 0.60104 0.59832 0.56517 0.0
C95 C 0.59203 0.70992 0.56283 0.0
O96 O 0.5726 0.6158 0.54791 0.0
O97 O 0.57354 0.68359 0.56974 0.0
C98 C 0.97843 0.65971 0.8052 0.0
O99 O 0.00063 0.67038 0.83016 0.0
Cd100 Cd 0.00125 0.64975 0.90134 0.0
O101 O 0.95458 0.63891 0.81929 0.0
Cd102 Cd 0.93505 0.61087 0.88959 0.0
C103 C 0.97389 0.57869 0.8706 0.0
O104 O 0.96356 0.64536 0.94925 0.0
O105 O 0.94233 0.59993 0.96495 0.0
O106 O 0.89735 0.62303 0.89007 0.0
C107 C 0.9559 0.62572 -0.02124 0.0
O108 O -0.00517 0.60238 0.88487 0.0
C109 C 0.87663 0.59783 0.89797 0.0
O110 O 0.94887 0.57566 0.86539 0.0
O111 O 0.88257 0.57769 0.89819 0.0
C112 C 0.31361 0.97639 0.12901 0.0
O113 O 0.32397 -0.00126 0.15353 0.0
Cd114 Cd 0.33837 0.00055 0.23031 0.0
O115 O 0.30852 0.95235 0.14547 0.0
Cd116 Cd 0.31182 0.93346 0.22037 0.0
C117 C 0.38461 0.97412 0.21789 0.0
O118 O 0.29943 0.96226 0.27022 0.0
O119 O 0.31837 0.93904 0.30063 0.0
O120 O 0.26341 0.89277 0.21132 0.0
C121 C 0.30604 0.95369 0.30567 0.0
O122 O 0.38076 -0.005 0.22786 0.0
C123 C 0.26924 0.8738 0.2246 0.0
O124 O 0.36315 0.94909 0.21035 0.0
O125 O 0.29568 0.88216 0.23173 0.0
C126 C 0.33213 0.3216 0.46322 0.0
O127 O 0.32213 0.33379 0.48795 0.0
Cd128 Cd 0.33421 0.34612 0.56546 0.0
O129 O 0.34975 0.31445 0.4791 0.0
Cd130 Cd 0.37329 0.31785 0.55268 0.0
C131 C 0.40722 0.3908 0.55263 0.0
O132 O 0.33262 0.30623 0.60337 0.0
O133 O 0.37496 0.32352 0.63305 0.0
O134 O 0.3638 0.26908 0.54281 0.0
C135 C 0.34799 0.312 0.63854 0.0
O136 O 0.38277 0.38733 0.56389 0.0
C137 C 0.38857 0.27409 0.55514 0.0
O138 O 0.41006 0.36918 0.54318 0.0
O139 O 0.40749 0.30028 0.56203 0.0
C140 C -0.00688 0.32394 0.80778 0.0
O141 O 0.97076 0.31399 0.83224 0.0
Cd142 Cd 0.97016 0.33534 0.90255 0.0
O143 O 0.01723 0.34414 0.82228 0.0
Cd144 Cd 0.03699 0.37156 0.89311 0.0
C145 C 0.00179 0.40717 0.87203 0.0
O146 O 0.00635 0.33854 0.95244 0.0
O147 O 0.02937 0.38418 -0.0328 0.0
O148 O 0.06981 0.35406 0.90335 0.0
C149 C 0.01447 0.35854 -0.01863 0.0
O150 O 0.97994 0.38367 0.88478 0.0
C151 C 0.09269 0.37831 0.9068 0.0
O152 O 0.02654 0.40931 0.86866 0.0
O153 O 0.09053 0.40051 0.89953 0.0
C154 C 0.6574 0.00433 0.12984 0.0
O155 O 0.64515 0.98198 0.1544 0.0
Cd156 Cd 0.63297 0.98093 0.23209 0.0
O157 O 0.6648 0.02906 0.14609 0.0
Cd158 Cd 0.66122 0.04821 0.22065 0.0
C159 C 0.58808 0.00864 0.22023 0.0
O160 O 0.67309 0.01895 0.27056 0.0
O161 O 0.6553 0.04312 0.30108 0.0
O162 O 0.70976 0.08898 0.21227 0.0
C163 C 0.66714 0.02802 0.30606 0.0
O164 O 0.59142 0.98761 0.23136 0.0
C165 C 0.70376 0.10792 0.22499 0.0
O166 O 0.60983 0.0332 0.21102 0.0
O167 O 0.67725 0.09949 0.2314 0.0
H168 H 0.35234 0.31278 0.17898 0.0
H169 H 0.2842 0.33327 0.18598 0.0
H170 H 0.35053 0.3067 0.2599 0.0
H171 H 0.28105 0.32548 0.26712 0.0
H172 H 0.31302 0.35073 0.41223 0.0
H173 H 0.30676 0.34883 0.33126 0.0
H174 H 0.32731 0.28069 0.32374 0.0
H175 H 0.3353 0.28398 0.40481 0.0
C176 C 0.33645 0.31532 0.19777 0.0
C177 C 0.31859 0.32377 0.17616 0.0
C178 C 0.33524 0.3116 0.24434 0.0
C179 C 0.31572 0.31571 0.27046 0.0
C180 C 0.29684 0.32278 0.24839 0.0
C181 C 0.29847 0.32706 0.20181 0.0
C182 C 0.31591 0.33513 0.39332 0.0
C183 C 0.32495 0.31771 0.41479 0.0
C184 C 0.3121 0.33386 0.34675 0.0
C185 C 0.31669 0.31472 0.32054 0.0
C186 C 0.32427 0.29621 0.34252 0.0
C187 C 0.32867 0.29792 0.38906 0.0
H188 H 0.01213 0.31006 0.51892 0.0
H189 H 0.92736 0.29801 0.54391 0.0
H190 H 0.01811 0.30526 0.59917 0.0
H191 H 0.93369 0.29414 0.62402 0.0
H192 H 0.94602 0.27961 0.7667 0.0
H193 H 0.9391 0.26904 0.68643 0.0
H194 H 0.02676 0.33671 0.66152 0.0
H195 H 0.03393 0.34664 0.7416 0.0
C196 C -0.00539 0.30602 0.54144 0.0
C197 C 0.96942 0.30483 0.52508 0.0
C198 C -0.00189 0.30341 0.58747 0.0
C199 C 0.97658 0.29973 0.61816 0.0
C200 C 0.95064 0.29669 0.60141 0.0
C201 C 0.94706 0.2991 0.55538 0.0
C202 C 0.964 0.29184 0.74416 0.0
C203 C -0.00959 0.31425 0.7605 0.0
C204 C 0.95997 0.28587 0.69812 0.0
C205 C 0.98222 0.30228 0.66741 0.0
C206 C 0.0092 0.32343 0.68414 0.0
C207 C 0.01328 0.32928 0.73017 0.0
H208 H 0.66533 0.0322 0.8443 0.0
H209 H 0.64523 0.9438 0.85327 0.0
H210 H 0.67127 0.03703 0.92525 0.0
H211 H 0.65294 0.94902 0.93438 0.0
H212 H 0.62817 0.95592 0.07915 0.0
H213 H 0.62967 0.95138 -0.00175 0.0
H214 H 0.69722 0.04065 -0.01047 0.0
H215 H 0.69431 0.04549 0.07065 0.0
C216 C 0.66284 0.01396 0.86355 0.0
C217 C 0.65455 0.98753 0.84247 0.0
C218 C 0.66647 0.01678 0.91014 0.0
C219 C 0.66246 -0.00661 0.93681 0.0
C220 C 0.65553 0.96733 0.91526 0.0
C221 C 0.6513 0.96434 0.86868 0.0
C222 C 0.64355 0.97452 0.06001 0.0
C223 C 0.66096 0.00114 0.08123 0.0
C224 C 0.6446 0.97187 0.01345 0.0
C225 C 0.66349 -0.00434 -0.0131 0.0
C226 C 0.68189 0.02199 0.00856 0.0
C227 C 0.68041 0.02478 0.05514 0.0
H228 H 0.67545 0.62772 0.19847 0.0
H229 H 0.65832 0.69742 0.17818 0.0
H230 H 0.6765 0.6348 0.27939 0.0
H231 H 0.66024 0.70507 0.25917 0.0
H232 H 0.62236 0.67871 0.40263 0.0
H233 H 0.62966 0.68004 0.32173 0.0
H234 H 0.70106 0.66535 0.34217 0.0
H235 H 0.69318 0.66315 0.42313 0.0
C236 C 0.67246 0.64492 0.21121 0.0
C237 C 0.66649 0.66178 0.18185 0.0
C238 C 0.67322 0.64911 0.25768 0.0
C239 C 0.66823 0.67039 0.27587 0.0
C240 C 0.66363 0.68814 0.24635 0.0
C241 C 0.66268 0.68384 0.19988 0.0
C242 C 0.63985 0.67613 0.38995 0.0
C243 C 0.65697 0.67051 0.41934 0.0
C244 C 0.64416 0.67706 0.34349 0.0
C245 C 0.66584 0.67259 0.32537 0.0
C246 C 0.68383 0.66833 0.35494 0.0
C247 C 0.6794 0.66723 0.40139 0.0
H248 H 0.93765 0.63678 0.73898 0.0
H249 H 0.02528 0.70445 0.76421 0.0
H250 H 0.94459 0.6471 0.65899 0.0
H251 H 0.03196 0.71538 0.684 0.0
H252 H 0.04364 0.68714 0.54083 0.0
H253 H 0.03753 0.69074 0.62106 0.0
H254 H 0.95272 0.6789 0.59716 0.0
H255 H 0.95848 0.6744 0.51677 0.0
C256 C 0.95819 0.65434 0.7276 0.0
C257 C 0.98105 0.66946 0.75794 0.0
C258 C 0.96213 0.66042 0.68163 0.0
C259 C -0.01104 0.6819 0.66494 0.0
C260 C 0.0112 0.69834 0.69566 0.0
C261 C 0.00731 0.69215 0.74166 0.0
C262 C 0.02389 0.68585 0.55252 0.0
C263 C 0.00135 0.67998 0.52245 0.0
C264 C 0.02045 0.6881 0.59863 0.0
C265 C -0.00554 0.68475 0.61567 0.0
C266 C 0.97276 0.68098 0.58522 0.0
C267 C 0.97613 0.67855 0.53911 0.0
H268 H 0.3011 0.93611 0.06339 0.0
H269 H 0.31717 0.02256 0.08421 0.0
H270 H 0.30026 0.94245 -0.01754 0.0
H271 H 0.31546 0.0286 0.00325 0.0
H272 H 0.35324 0.04122 0.8596 0.0
H273 H 0.34612 0.03486 0.94053 0.0
H274 H 0.27546 0.9482 0.91983 0.0
H275 H 0.28315 0.95426 0.83888 0.0
C276 C 0.30391 0.95628 0.05076 0.0
C277 C 0.30949 0.97891 0.08028 0.0
C278 C 0.30327 0.95988 0.00429 0.0
C279 C 0.308 0.98613 -0.01373 0.0
C280 C 0.31228 0.0083 0.01594 0.0
C281 C 0.31309 0.00476 0.0624 0.0
C282 C 0.33595 0.02093 0.87225 0.0
C283 C 0.31897 -0.00184 0.84276 0.0
C284 C 0.33175 0.01732 0.91873 0.0
C285 C 0.31034 0.99092 0.93678 0.0
C286 C 0.2925 0.96862 0.90713 0.0
C287 C 0.29681 0.97216 0.86067 0.0
H288 H 0.09597 0.33825 0.95676 0.0
H289 H 0.14921 0.42249 0.8986 0.0
H290 H 0.13779 0.34044 -0.00915 0.0
H291 H 0.19222 0.42397 0.93033 0.0
H292 H 0.26206 0.42646 0.0239 0.0
H293 H 0.22008 0.42795 -0.00554 0.0
H294 H 0.1764 0.33582 -0.02654 0.0
H295 H 0.21686 0.33428 0.00544 0.0
C296 C 0.11686 0.35706 0.95034 0.0
C297 C 0.11933 0.38 0.92432 0.0
C298 C 0.14104 0.35829 -0.03016 0.0
C299 C 0.16874 0.38213 0.96282 0.0
C300 C 0.17129 0.40531 0.93685 0.0
C301 C 0.14674 0.40438 0.91819 0.0
C302 C 0.24314 0.40656 0.01377 0.0
C303 C 0.24257 0.38021 0.01779 0.0
C304 C 0.21921 0.40741 -0.00366 0.0
C305 C 0.19451 0.38197 -0.01823 0.0
C306 C 0.19439 0.3558 -0.01444 0.0
C307 C 0.21781 0.35489 0.00386 0.0
H308 H 0.82434 0.27912 0.33922 0.0
H309 H 0.85059 0.21804 0.37739 0.0
H310 H 0.78321 0.24102 0.29789 0.0
H311 H 0.80984 0.18039 0.33646 0.0
H312 H 0.76171 0.13092 0.21509 0.0
H313 H 0.79969 0.17289 0.25349 0.0
H314 H 0.73651 0.19203 0.3075 0.0
H315 H 0.6982 0.14986 0.26875 0.0
C316 C 0.82101 0.2575 0.33963 0.0
C317 C 0.84087 0.25166 0.36128 0.0
C318 C 0.79756 0.23576 0.31581 0.0
C319 C 0.79377 0.20794 0.31305 0.0
C320 C 0.81265 0.20181 0.33699 0.0
C321 C 0.83586 0.22336 0.36084 0.0
C322 C 0.75589 0.14437 0.23431 0.0
C323 C 0.72688 0.13684 0.23925 0.0
C324 C 0.77764 0.16828 0.25666 0.0
C325 C 0.77096 0.1853 0.28439 0.0
C326 C 0.74225 0.17919 0.28654 0.0
C327 C 0.72036 0.1551 0.26422 0.0
H328 H 0.62993 0.85954 0.70852 0.0
H329 H 0.54412 0.83497 0.66244 0.0
H330 H 0.62617 0.81715 0.67249 0.0
H331 H 0.54043 0.79226 0.62625 0.0
H332 H 0.54444 0.70567 0.605 0.0
H333 H 0.54112 0.74479 0.64156 0.0
H334 H 0.62495 0.80621 0.58902 0.0
H335 H 0.62834 0.7675 0.55262 0.0
C336 C 0.61002 0.84481 0.69147 0.0
C337 C 0.58744 0.85081 0.68799 0.0
C338 C 0.60799 0.82065 0.67047 0.0
C339 C 0.58328 0.80182 0.64568 0.0
C340 C 0.55979 0.80655 0.64492 0.0
C341 C 0.56189 0.83093 0.66578 0.0
C342 C 0.56183 0.72761 0.60038 0.0
C343 C 0.58679 0.73344 0.57627 0.0
C344 C 0.55995 0.74995 0.62146 0.0
C345 C 0.58308 0.77839 0.619 0.0
C346 C 0.60709 0.78437 0.59238 0.0
C347 C 0.6089 0.76219 0.57116 0.0
H348 H 0.7028 0.55076 -0.00597 0.0
H349 H 0.76459 0.63299 0.0512 0.0
H350 H 0.74221 0.54765 0.95793 0.0
H351 H 0.80366 0.62975 0.01549 0.0
H352 H 0.85864 0.63693 0.89678 0.0
H353 H 0.81656 0.6333 0.93382 0.0
H354 H 0.78843 0.54542 -0.0288 0.0
H355 H 0.83086 0.54898 0.93373 0.0
C356 C 0.72479 0.5678 -0.00016 0.0
C357 C 0.73054 0.59228 0.0251 0.0
C358 C 0.74732 0.56603 -0.02095 0.0
C359 C 0.77591 0.58878 -0.01698 0.0
C360 C 0.78175 0.61222 0.0109 0.0
C361 C 0.75936 0.61394 0.03171 0.0
C362 C 0.84331 0.61664 0.91222 0.0
C363 C 0.84826 0.59332 0.91262 0.0
C364 C 0.81932 0.61466 0.93384 0.0
C365 C 0.79959 0.58931 0.95636 0.0
C366 C 0.8034 0.56529 0.95433 0.0
C367 C 0.82761 0.5673 0.93274 0.0
H368 H 0.12115 0.76569 0.37477 0.0
H369 H 0.1461 0.70331 0.33885 0.0
H370 H 0.16255 0.80276 0.33424 0.0
H371 H 0.18793 0.74087 0.298 0.0
H372 H 0.21148 0.85086 0.21249 0.0
H373 H 0.17296 0.8092 0.25069 0.0
H374 H 0.23524 0.79001 0.3086 0.0
H375 H 0.27413 0.83193 0.27011 0.0
C376 C 0.13573 0.75996 0.35883 0.0
C377 C 0.13016 0.73146 0.35973 0.0
C378 C 0.15932 0.78117 0.33523 0.0
C379 C 0.17804 0.77452 0.31205 0.0
C380 C 0.1737 0.74651 0.31533 0.0
C381 C 0.14985 0.72509 0.33887 0.0
C382 C 0.217 0.83746 0.23252 0.0
C383 C 0.24592 0.84493 0.23867 0.0
C384 C 0.19493 0.81373 0.25473 0.0
C385 C 0.20121 0.79682 0.28348 0.0
C386 C 0.22984 0.80279 0.28682 0.0
C387 C 0.25205 0.82673 0.26466 0.0
H388 H 0.34716 0.12457 0.70321 0.0
H389 H 0.43242 0.14656 0.65803 0.0
H390 H 0.35206 0.16704 0.66565 0.0
H391 H 0.43726 0.18938 0.62032 0.0
H392 H 0.43574 0.27727 0.59722 0.0
H393 H 0.43796 0.23767 0.63435 0.0
H394 H 0.35366 0.1775 0.58185 0.0
H395 H 0.35136 0.2167 0.54487 0.0
C396 C 0.3672 0.13875 0.68601 0.0
C397 C 0.38929 0.13201 0.68328 0.0
C398 C 0.36988 0.16295 0.66412 0.0
C399 C 0.39477 0.1811 0.63919 0.0
C400 C 0.41778 0.17563 0.63908 0.0
C401 C 0.41502 0.15119 0.66082 0.0
C402 C 0.41802 0.25549 0.59267 0.0
C403 C 0.39323 0.25017 0.56847 0.0
C404 C 0.41927 0.23287 0.61409 0.0
C405 C 0.39568 0.20467 0.61186 0.0
C406 C 0.37187 0.19916 0.58503 0.0
C407 C 0.37068 0.22161 0.56349 0.0
H408 H 0.37092 0.30584 0.71591 0.0
H409 H 0.29799 0.31007 0.66341 0.0
H410 H 0.35508 0.30665 0.79243 0.0
H411 H 0.28229 0.31129 0.74048 0.0
H412 H 0.3097 0.36967 0.87339 0.0
H413 H 0.31017 0.35332 0.79711 0.0
H414 H 0.3134 0.28014 0.85013 0.0
H415 H 0.31254 0.29634 0.92695 0.0
C416 C 0.35122 0.30645 0.72084 0.0
C417 C 0.33585 0.30828 0.68397 0.0
C418 C 0.34202 0.30662 0.76457 0.0
C419 C 0.31753 0.30907 0.77216 0.0
C420 C 0.30127 0.3094 0.73529 0.0
C421 C 0.31022 0.3087 0.69139 0.0
C422 C 0.31004 0.34984 0.86876 0.0
C423 C 0.31148 0.33443 0.90588 0.0
C424 C 0.30997 0.34033 0.82517 0.0
C425 C 0.31177 0.31549 0.81794 0.0
C426 C 0.31197 0.29936 0.85503 0.0
C427 C 0.31152 0.30862 0.8988 0.0
H428 H 0.97579 0.30133 0.26148 0.0
H429 H 0.94483 0.3607 0.23883 0.0
H430 H -0.0082 0.30729 0.18286 0.0
H431 H 0.96067 0.36647 0.16109 0.0
H432 H 0.025 0.39785 0.04671 0.0
H433 H 0.00987 0.38891 0.12493 0.0
H434 H 0.96926 0.29729 0.10249 0.0
H435 H 0.98456 0.30618 0.02353 0.0
C436 C 0.97239 0.31556 0.23978 0.0
C437 C 0.95928 0.33071 0.25631 0.0
C438 C 0.98138 0.31882 0.19489 0.0
C439 C 0.97762 0.33749 0.16625 0.0
C440 C 0.96416 0.35225 0.18272 0.0
C441 C 0.95502 0.34885 0.2272 0.0
C442 C 0.0129 0.37577 0.05833 0.0
C443 C 0.00571 0.35269 0.02892 0.0
C444 C 0.0042 0.37069 0.10309 0.0
C445 C -0.01175 0.34243 0.11948 0.0
C446 C 0.98165 0.31927 0.09055 0.0
C447 C -0.00977 0.32436 0.04545 0.0
H448 H 0.6837 0.00744 0.59392 0.0
H449 H 0.61119 0.9303 0.54009 0.0
H450 H 0.69991 0.02485 0.51715 0.0
H451 H 0.62752 0.94743 0.46387 0.0
H452 H 0.67294 0.05631 0.38409 0.0
H453 H 0.67271 0.03934 0.46021 0.0
H454 H 0.6693 0.96303 0.40654 0.0
H455 H 0.66994 0.9803 0.32984 0.0
C456 C 0.67166 -0.00604 0.56573 0.0
C457 C 0.64601 0.96776 0.57272 0.0
C458 C 0.68091 0.00389 0.52197 0.0
C459 C 0.66493 0.98744 0.48478 0.0
C460 C 0.6404 0.96037 0.49195 0.0
C461 C 0.6309 0.95072 0.53553 0.0
C462 C 0.67271 0.03618 0.38854 0.0
C463 C 0.67108 0.01939 0.35127 0.0
C464 C 0.67288 0.02663 0.43206 0.0
C465 C 0.67097 -9e-05 0.43909 0.0
C466 C 0.67079 0.98373 0.40181 0.0
C467 C 0.67115 -0.00642 0.35811 0.0
H468 H 0.68519 0.67649 0.66876 0.0
H469 H 0.61075 0.67734 0.72228 0.0
H470 H 0.70178 0.67616 0.74563 0.0
H471 H 0.62752 0.67752 0.7986 0.0
H472 H 0.67102 0.68962 0.93256 0.0
H473 H 0.6699 0.70578 0.85569 0.0
H474 H 0.67484 0.63359 0.80266 0.0
H475 H 0.67543 0.61723 0.87896 0.0
C476 C 0.6728 0.6773 0.69691 0.0
C477 C 0.64653 0.67651 0.68984 0.0
C478 C 0.68227 0.67714 0.7407 0.0
C479 C 0.6659 0.67686 0.7778 0.0
C480 C 0.64068 0.67807 0.77055 0.0
C481 C 0.63095 0.67765 0.72694 0.0
C482 C 0.67248 0.67763 0.90439 0.0
C483 C 0.67291 0.65201 0.91142 0.0
C484 C 0.67185 0.68685 0.86061 0.0
C485 C 0.67233 0.6709 0.82349 0.0
C486 C 0.67478 0.64642 0.83073 0.0
C487 C 0.67482 0.63692 0.87432 0.0
H488 H -0.00539 0.68397 0.25911 0.0
H489 H 0.02622 0.62525 0.23543 0.0
H490 H 0.97847 0.67822 0.18048 0.0
H491 H 0.01023 0.61967 0.15778 0.0
H492 H 0.94482 0.58709 0.04542 0.0
H493 H 0.96009 0.59669 0.12347 0.0
H494 H 0.00088 0.68811 0.09891 0.0
H495 H 0.98545 0.67855 0.01992 0.0
C496 C -0.00184 0.66995 0.23717 0.0
C497 C 0.01142 0.65485 0.25345 0.0
C498 C -0.0109 0.66682 0.1923 0.0
C499 C -0.00707 0.64832 0.16344 0.0
C500 C 0.00667 0.63374 0.1796 0.0
C501 C 0.01588 0.63702 0.22404 0.0
C502 C 0.95695 0.60928 0.0565 0.0
C503 C 0.96424 0.6321 0.02643 0.0
C504 C 0.96572 0.61473 0.10119 0.0
C505 C 0.98186 0.64311 0.11691 0.0
C506 C -0.01162 0.66604 0.08744 0.0
C507 C 0.97971 0.66057 0.04235 0.0
H508 H 0.30319 0.00135 0.32933 0.0
H509 H 0.30046 0.92544 0.38372 0.0
H510 H 0.30411 0.01872 0.40601 0.0
H511 H 0.30086 0.94247 0.45984 0.0
H512 H 0.29 0.9749 0.59346 0.0
H513 H 0.27347 0.95744 0.51677 0.0
H514 H 0.34667 0.03396 0.46296 0.0
H515 H 0.36338 0.05109 0.53909 0.0
C516 C 0.30206 0.9881 0.35764 0.0
C517 C 0.30216 0.9623 0.35086 0.0
C518 C 0.30257 -0.002 0.40132 0.0
C519 C 0.30251 0.98186 0.43861 0.0
C520 C 0.30059 0.95514 0.43165 0.0
C521 C 0.30066 0.94555 0.38815 0.0
C522 C 0.30215 0.98818 0.56516 0.0
C523 C 0.32813 0.0141 0.57194 0.0
C524 C 0.29272 0.97823 0.52147 0.0
C525 C 0.30882 -0.00558 0.48419 0.0
C526 C 0.33371 0.02124 0.49115 0.0
C527 C 0.34341 0.03088 0.53466 0.0
H528 H 0.40447 0.46263 0.06837 0.0
H529 H 0.44082 0.41223 0.018 0.0
H530 H 0.45299 0.50466 0.0736 0.0
H531 H 0.48874 0.45403 0.02213 0.0
H532 H 0.57383 0.52595 0.07252 0.0
H533 H 0.52492 0.48481 0.07485 0.0
H534 H 0.49186 0.5384 0.02587 0.0
H535 H 0.54055 0.57963 0.02473 0.0
C536 C 0.42272 0.46052 0.05827 0.0
C537 C 0.41869 0.43402 0.04285 0.0
C538 C 0.45052 0.48461 0.06113 0.0
C539 C 0.47482 0.48269 0.04853 0.0
C540 C 0.47066 0.4562 0.03301 0.0
C541 C 0.44303 0.43221 0.0303 0.0
C542 C 0.55613 0.52899 0.06244 0.0
C543 C 0.56119 0.55608 0.04821 0.0
C544 C 0.52807 0.50537 0.06359 0.0
C545 C 0.50442 0.50824 0.05029 0.0
C546 C 0.50947 0.53546 0.03687 0.0
C547 C 0.53748 0.55909 0.03591 0.0
H548 H 0.04017 0.57682 0.44508 0.0
H549 H 0.95309 0.54318 0.39632 0.0
H550 H 0.03096 0.52775 0.45445 0.0
H551 H 0.94428 0.49452 0.40404 0.0
H552 H 0.92866 0.40752 0.4447 0.0
H553 H 0.93764 0.45659 0.45271 0.0
H554 H 0.02524 0.48984 0.40688 0.0
H555 H 0.01665 0.44122 0.40052 0.0
C556 C 0.01906 0.559 0.43651 0.0
C557 C -0.00253 0.56399 0.41966 0.0
C558 C 0.01379 0.53086 0.44167 0.0
C559 C 0.9869 0.50708 0.42975 0.0
C560 C 0.96509 0.51216 0.41423 0.0
C561 C 0.97027 0.54021 0.40943 0.0
C562 C 0.94992 0.42534 0.43689 0.0
C563 C 0.97183 0.42037 0.42168 0.0
C564 C 0.95505 0.45349 0.44124 0.0
C565 C 0.98215 0.47727 0.43018 0.0
C566 C 0.00425 0.4722 0.41637 0.0
C567 C -0.0008 0.44417 0.41235 0.0
H568 H 0.56907 0.02333 0.67895 0.0
H569 H 0.51781 0.93728 0.73258 0.0
H570 H 0.52741 0.02971 0.68169 0.0
H571 H 0.47608 0.94402 0.73641 0.0
H572 H 0.40123 0.95534 0.68585 0.0
H573 H 0.44261 0.94833 0.68722 0.0
H574 H 0.4965 0.03579 0.73344 0.0
H575 H 0.45516 0.0431 0.73093 0.0
C576 C 0.54894 0.00579 0.69165 0.0
C577 C 0.54681 0.97974 0.70549 0.0
C578 C 0.52506 0.00957 0.69353 0.0
C579 C 0.4984 0.98746 0.70948 0.0
C580 C 0.49623 0.9614 0.72348 0.0
C581 C 0.52017 0.95756 0.72146 0.0
C582 C 0.42187 0.9731 0.69644 0.0
C583 C 0.42488 -0.00014 0.70806 0.0
C584 C 0.44559 0.96898 0.69753 0.0
C585 C 0.47291 0.99148 0.71038 0.0
C586 C 0.47584 0.01812 0.72271 0.0
C587 C 0.45211 0.02228 0.72148 0.0
H588 H 0.52069 0.57652 0.52856 0.0
H589 H 0.57597 0.54454 0.5742 0.0
H590 H 0.48026 0.52726 0.52455 0.0
H591 H 0.5355 0.49555 0.57136 0.0
H592 H 0.46245 0.4085 0.5241 0.0
H593 H 0.50327 0.45771 0.52121 0.0
H594 H 0.44946 0.48922 0.57499 0.0
H595 H 0.40874 0.44049 0.57678 0.0
C596 C 0.52422 0.55903 0.53784 0.0
C597 C 0.55157 0.56455 0.55183 0.0
C598 C 0.50102 0.53078 0.53573 0.0
C599 C 0.5046 0.50741 0.54774 0.0
C600 C 0.53204 0.51295 0.56123 0.0
C601 C 0.55523 0.54114 0.56318 0.0
C602 C 0.45935 0.42596 0.53517 0.0
C603 C 0.4323 0.42049 0.55065 0.0
C604 C 0.48277 0.45416 0.5337 0.0
C605 C 0.47964 0.47747 0.54777 0.0
C606 C 0.45255 0.47191 0.56312 0.0
C607 C 0.42921 0.44384 0.56446 0.0
H608 H 0.93649 0.52579 0.83403 0.0
H609 H 0.02254 0.57627 0.88847 0.0
H610 H 0.94397 0.48482 0.8257 0.0
H611 H 0.02959 0.53525 0.88175 0.0
H612 H 0.04221 0.46146 0.84304 0.0
H613 H 0.03587 0.50319 0.83419 0.0
H614 H 0.94665 0.45133 0.87439 0.0
H615 H 0.95266 0.40981 0.88161 0.0
C616 C 0.95701 0.52819 0.84408 0.0
C617 C 0.97879 0.55426 0.86225 0.0
C618 C 0.96128 0.50466 0.83952 0.0
C619 C 0.98733 0.50659 0.85337 0.0
C620 C 0.00941 0.533 0.87012 0.0
C621 C 0.00524 0.55653 0.87434 0.0
C622 C 0.02119 0.45895 0.84943 0.0
C623 C -0.00196 0.4323 0.86329 0.0
C624 C 0.01756 0.4829 0.84459 0.0
C625 C -0.00926 0.48072 0.85373 0.0
C626 C 0.96747 0.45382 0.86632 0.0
C627 C 0.97104 0.42996 0.87087 0.0
H628 H 0.53798 0.96032 0.24387 0.0
H629 H 0.57087 0.04629 0.19134 0.0
H630 H 0.48926 0.95228 0.24112 0.0
H631 H 0.52172 0.0379 0.18748 0.0
H632 H 0.43457 0.02369 0.23818 0.0
H633 H 0.48353 0.03215 0.23678 0.0
H634 H 0.45165 0.94522 0.18972 0.0
H635 H 0.4024 0.93644 0.19228 0.0
C636 C 0.53483 0.97749 0.23141 0.0
C637 C 0.55842 0.00402 0.21791 0.0
C638 C 0.50678 0.97276 0.22951 0.0
C639 C 0.5015 -0.00563 0.21391 0.0
C640 C 0.52506 0.02089 0.20017 0.0
C641 C 0.55322 0.02568 0.20221 0.0
C642 C 0.43793 0.00634 0.22741 0.0
C643 C 0.41447 0.9793 0.21554 0.0
C644 C 0.4661 0.0113 0.2263 0.0
C645 C 0.47158 0.98939 0.21315 0.0
C646 C 0.44817 0.96246 0.20065 0.0
C647 C 0.41993 0.95745 0.20191 0.0
loop_
_geom_bond_atom_site_label_1
_geom_bond_atom_site_label_2
_geom_bond_distance
_geom_bond_site_symmetry_2
_ccdc_geom_bond_type
C0 O1 1.306 . S
C0 O3 1.160 . S
O1 C0 1.306 . S
O1 Cd2 2.228 . S
Cd2 O1 2.228 . S
Cd2 O6 2.273 . S
Cd2 O10 2.277 . S
O3 C0 1.160 . S
O3 Cd4 2.203 . S
Cd4 O3 2.203 . S
Cd4 O6 2.411 . S
Cd4 O7 2.333 1_554 S
Cd4 O8 2.352 . S
Cd4 O12 2.277 . S
Cd4 O13 2.356 . S
C5 O10 1.209 . S
C5 O12 1.226 . S
O6 Cd2 2.273 . S
O6 Cd4 2.411 . S
O6 C9 1.320 1_554 S
O7 Cd4 2.333 1_556 S
O7 C9 1.214 . S
O8 Cd4 2.352 . S
O8 C11 1.258 . S
C9 O6 1.320 1_556 S
C9 O7 1.214 . S
O10 Cd2 2.277 . S
O10 C5 1.209 . S
C11 O8 1.258 . S
C11 O13 1.282 . S
O12 Cd4 2.277 . S
O12 C5 1.226 . S
O13 Cd4 2.356 . S
O13 C11 1.282 . S
C14 O15 1.306 1_655 S
C14 O17 1.160 . S
O15 C14 1.306 1_455 S
O15 Cd16 2.228 . S
Cd16 O15 2.228 . S
Cd16 O20 2.273 1_455 S
Cd16 O24 2.277 1_455 S
O17 C14 1.160 . S
O17 Cd18 2.203 . S
Cd18 O17 2.203 . S
Cd18 O20 2.411 . S
Cd18 O21 2.333 . S
Cd18 O22 2.352 . S
Cd18 O26 2.277 . S
Cd18 O27 2.356 . S
C19 O24 1.209 . S
C19 O26 1.226 . S
O20 Cd16 2.273 1_655 S
O20 Cd18 2.411 . S
O20 C23 1.320 . S
O21 Cd18 2.333 . S
O21 C23 1.214 . S
O22 Cd18 2.352 . S
O22 C25 1.258 . S
C23 O20 1.320 . S
C23 O21 1.214 . S
O24 Cd16 2.277 1_655 S
O24 C19 1.209 . S
C25 O22 1.258 . S
C25 O27 1.282 . S
O26 Cd18 2.277 . S
O26 C19 1.226 . S
O27 Cd18 2.356 . S
O27 C25 1.282 . S
C28 O29 1.306 1_565 S
C28 O31 1.160 . S
O29 C28 1.306 1_545 S
O29 Cd30 2.228 . S
Cd30 O29 2.228 . S
Cd30 O34 2.273 1_545 S
Cd30 O38 2.277 1_545 S
O31 C28 1.160 . S
O31 Cd32 2.203 . S
Cd32 O31 2.203 . S
Cd32 O34 2.411 . S
Cd32 O35 2.333 . S
Cd32 O36 2.352 . S
Cd32 O40 2.277 . S
Cd32 O41 2.356 . S
C33 O38 1.209 . S
C33 O40 1.226 . S
O34 Cd30 2.273 1_565 S
O34 Cd32 2.411 . S
O34 C37 1.320 . S
O35 Cd32 2.333 . S
O35 C37 1.214 . S
O36 Cd32 2.352 . S
O36 C39 1.258 . S
C37 O34 1.320 . S
C37 O35 1.214 . S
O38 Cd30 2.277 1_565 S
O38 C33 1.209 . S
C39 O36 1.258 . S
C39 O41 1.282 . S
O40 Cd32 2.277 . S
O40 C33 1.226 . S
O41 Cd32 2.356 . S
O41 C39 1.282 . S
C42 O43 1.306 . S
C42 O45 1.160 . S
O43 C42 1.306 . S
O43 Cd44 2.228 . S
Cd44 O43 2.228 . S
Cd44 O48 2.273 . S
Cd44 O52 2.277 . S
O45 C42 1.160 . S
O45 Cd46 2.203 . S
Cd46 O45 2.203 . S
Cd46 O48 2.411 . S
Cd46 O49 2.333 1_554 S
Cd46 O50 2.352 . S
Cd46 O54 2.277 . S
Cd46 O55 2.356 . S
C47 O52 1.209 . S
C47 O54 1.226 . S
O48 Cd44 2.273 . S
O48 Cd46 2.411 . S
O48 C51 1.320 1_554 S
O49 Cd46 2.333 1_556 S
O49 C51 1.214 . S
O50 Cd46 2.352 . S
O50 C53 1.258 . S
C51 O48 1.320 1_556 S
C51 O49 1.214 . S
O52 Cd44 2.277 . S
O52 C47 1.209 . S
C53 O50 1.258 . S
C53 O55 1.282 . S
O54 Cd46 2.277 . S
O54 C47 1.226 . S
O55 Cd46 2.356 . S
O55 C53 1.282 . S
C56 O57 1.306 1_455 S
C56 O59 1.160 . S
O57 C56 1.306 1_655 S
O57 Cd58 2.228 . S
Cd58 O57 2.228 . S
Cd58 O62 2.273 1_655 S
Cd58 O66 2.277 1_655 S
O59 C56 1.160 . S
O59 Cd60 2.203 . S
Cd60 O59 2.203 . S
Cd60 O62 2.411 . S
Cd60 O63 2.333 . S
Cd60 O64 2.352 . S
Cd60 O68 2.277 . S
Cd60 O69 2.356 . S
C61 O66 1.209 . S
C61 O68 1.226 . S
O62 Cd58 2.273 1_455 S
O62 Cd60 2.411 . S
O62 C65 1.320 . S
O63 Cd60 2.333 . S
O63 C65 1.214 . S
O64 Cd60 2.352 . S
O64 C67 1.258 . S
C65 O62 1.320 . S
C65 O63 1.214 . S
O66 Cd58 2.277 1_455 S
O66 C61 1.209 . S
C67 O64 1.258 . S
C67 O69 1.282 . S
O68 Cd60 2.277 . S
O68 C61 1.226 . S
O69 Cd60 2.356 . S
O69 C67 1.282 . S
C70 O71 1.306 1_545 S
C70 O73 1.160 . S
O71 C70 1.306 1_565 S
O71 Cd72 2.228 . S
Cd72 O71 2.228 . S
Cd72 O76 2.273 1_565 S
Cd72 O80 2.277 1_565 S
O73 C70 1.160 . S
O73 Cd74 2.203 . S
Cd74 O73 2.203 . S
Cd74 O76 2.411 . S
Cd74 O77 2.333 . S
Cd74 O78 2.352 . S
Cd74 O82 2.277 . S
Cd74 O83 2.356 . S
C75 O80 1.209 . S
C75 O82 1.226 . S
O76 Cd72 2.273 1_545 S
O76 Cd74 2.411 . S
O76 C79 1.320 . S
O77 Cd74 2.333 . S
O77 C79 1.214 . S
O78 Cd74 2.352 . S
O78 C81 1.258 . S
C79 O76 1.320 . S
C79 O77 1.214 . S
O80 Cd72 2.277 1_545 S
O80 C75 1.209 . S
C81 O78 1.258 . S
C81 O83 1.282 . S
O82 Cd74 2.277 . S
O82 C75 1.226 . S
O83 Cd74 2.356 . S
O83 C81 1.282 . S
C84 O85 1.306 . S
C84 O87 1.160 . S
O85 C84 1.306 . S
O85 Cd86 2.228 . S
Cd86 O85 2.228 . S
Cd86 O90 2.273 . S
Cd86 O94 2.277 . S
O87 C84 1.160 . S
O87 Cd88 2.203 . S
Cd88 O87 2.203 . S
Cd88 O90 2.411 . S
Cd88 O91 2.333 . S
Cd88 O92 2.352 . S
Cd88 O96 2.277 . S
Cd88 O97 2.356 . S
C89 O94 1.209 . S
C89 O96 1.226 . S
O90 Cd86 2.273 . S
O90 Cd88 2.411 . S
O90 C93 1.320 . S
O91 Cd88 2.333 . S
O91 C93 1.214 . S
O92 Cd88 2.352 . S
O92 C95 1.258 . S
C93 O90 1.320 . S
C93 O91 1.214 . S
O94 Cd86 2.277 . S
O94 C89 1.209 . S
C95 O92 1.258 . S
C95 O97 1.282 . S
O96 Cd88 2.277 . S
O96 C89 1.226 . S
O97 Cd88 2.356 . S
O97 C95 1.282 . S
C98 O99 1.306 1_655 S
C98 O101 1.160 . S
O99 C98 1.306 1_455 S
O99 Cd100 2.228 . S
Cd100 O99 2.228 . S
Cd100 O104 2.273 1_455 S
Cd100 O108 2.277 1_455 S
O101 C98 1.160 . S
O101 Cd102 2.203 . S
Cd102 O101 2.203 . S
Cd102 O104 2.411 . S
Cd102 O105 2.333 1_556 S
Cd102 O106 2.352 . S
Cd102 O110 2.277 . S
Cd102 O111 2.356 . S
C103 O108 1.209 . S
C103 O110 1.226 . S
O104 Cd100 2.273 1_655 S
O104 Cd102 2.411 . S
O104 C107 1.320 1_556 S
O105 Cd102 2.333 1_554 S
O105 C107 1.214 . S
O106 Cd102 2.352 . S
O106 C109 1.258 . S
C107 O104 1.320 1_554 S
C107 O105 1.214 . S
O108 Cd100 2.277 1_655 S
O108 C103 1.209 . S
C109 O106 1.258 . S
C109 O111 1.282 . S
O110 Cd102 2.277 . S
O110 C103 1.226 . S
O111 Cd102 2.356 . S
O111 C109 1.282 . S
C112 O113 1.306 1_565 S
C112 O115 1.160 . S
O113 C112 1.306 1_545 S
O113 Cd114 2.228 . S
Cd114 O113 2.228 . S
Cd114 O118 2.273 1_545 S
Cd114 O122 2.277 1_545 S
O115 C112 1.160 . S
O115 Cd116 2.203 . S
Cd116 O115 2.203 . S
Cd116 O118 2.411 . S
Cd116 O119 2.333 . S
Cd116 O120 2.352 . S
Cd116 O124 2.277 . S
Cd116 O125 2.356 . S
C117 O122 1.209 . S
C117 O124 1.226 . S
O118 Cd114 2.273 1_565 S
O118 Cd116 2.411 . S
O118 C121 1.320 . S
O119 Cd116 2.333 . S
O119 C121 1.214 . S
O120 Cd116 2.352 . S
O120 C123 1.258 . S
C121 O118 1.320 . S
C121 O119 1.214 . S
O122 Cd114 2.277 1_565 S
O122 C117 1.209 . S
C123 O120 1.258 . S
C123 O125 1.282 . S
O124 Cd116 2.277 . S
O124 C117 1.226 . S
O125 Cd116 2.356 . S
O125 C123 1.282 . S
C126 O127 1.306 . S
C126 O129 1.160 . S
O127 C126 1.306 . S
O127 Cd128 2.228 . S
Cd128 O127 2.228 . S
Cd128 O132 2.273 . S
Cd128 O136 2.277 . S
O129 C126 1.160 . S
O129 Cd130 2.203 . S
Cd130 O129 2.203 . S
Cd130 O132 2.411 . S
Cd130 O133 2.333 . S
Cd130 O134 2.352 . S
Cd130 O138 2.277 . S
Cd130 O139 2.356 . S
C131 O136 1.209 . S
C131 O138 1.226 . S
O132 Cd128 2.273 . S
O132 Cd130 2.411 . S
O132 C135 1.320 . S
O133 Cd130 2.333 . S
O133 C135 1.214 . S
O134 Cd130 2.352 . S
O134 C137 1.258 . S
C135 O132 1.320 . S
C135 O133 1.214 . S
O136 Cd128 2.277 . S
O136 C131 1.209 . S
C137 O134 1.258 . S
C137 O139 1.282 . S
O138 Cd130 2.277 . S
O138 C131 1.226 . S
O139 Cd130 2.356 . S
O139 C137 1.282 . S
C140 O141 1.306 1_455 S
C140 O143 1.160 . S
O141 C140 1.306 1_655 S
O141 Cd142 2.228 . S
Cd142 O141 2.228 . S
Cd142 O146 2.273 1_655 S
Cd142 O150 2.277 1_655 S
O143 C140 1.160 . S
O143 Cd144 2.203 . S
Cd144 O143 2.203 . S
Cd144 O146 2.411 . S
Cd144 O147 2.333 1_556 S
Cd144 O148 2.352 . S
Cd144 O152 2.277 . S
Cd144 O153 2.356 . S
C145 O150 1.209 . S
C145 O152 1.226 . S
O146 Cd142 2.273 1_455 S
O146 Cd144 2.411 . S
O146 C149 1.320 1_556 S
O147 Cd144 2.333 1_554 S
O147 C149 1.214 . S
O148 Cd144 2.352 . S
O148 C151 1.258 . S
C149 O146 1.320 1_554 S
C149 O147 1.214 . S
O150 Cd142 2.277 1_455 S
O150 C145 1.209 . S
C151 O148 1.258 . S
C151 O153 1.282 . S
O152 Cd144 2.277 . S
O152 C145 1.226 . S
O153 Cd144 2.356 . S
O153 C151 1.282 . S
C154 O155 1.306 1_545 S
C154 O157 1.160 . S
O155 C154 1.306 1_565 S
O155 Cd156 2.228 . S
Cd156 O155 2.228 . S
Cd156 O160 2.273 1_565 S
Cd156 O164 2.277 1_565 S
O157 C154 1.160 . S
O157 Cd158 2.203 . S
Cd158 O157 2.203 . S
Cd158 O160 2.411 . S
Cd158 O161 2.333 . S
Cd158 O162 2.352 . S
Cd158 O166 2.277 . S
Cd158 O167 2.356 . S
C159 O164 1.209 . S
C159 O166 1.226 . S
O160 Cd156 2.273 1_545 S
O160 Cd158 2.411 . S
O160 C163 1.320 . S
O161 Cd158 2.333 . S
O161 C163 1.214 . S
O162 Cd158 2.352 . S
O162 C165 1.258 . S
C163 O160 1.320 . S
C163 O161 1.214 . S
O164 Cd156 2.277 1_545 S
O164 C159 1.209 . S
C165 O162 1.258 . S
C165 O167 1.282 . S
O166 Cd158 2.277 . S
O166 C159 1.226 . S
O167 Cd158 2.356 . S
O167 C165 1.282 . S
H168 C176 0.950 . S
H169 C181 0.950 . S
H170 C178 0.950 . S
H171 C180 0.950 . S
H172 C182 0.950 . S
H173 C184 0.950 . S
H174 C186 0.950 . S
H175 C187 0.950 . S
C176 H168 0.950 . S
C176 C177 1.386 . S
C176 C178 1.391 . S
C177 C176 1.386 . S
C177 C181 1.393 . S
C178 H170 0.950 . S
C178 C176 1.391 . S
C178 C179 1.400 . S
C179 C178 1.400 . S
C179 C180 1.398 . S
C179 C185 1.491 . S
C180 H171 0.950 . S
C180 C179 1.398 . S
C180 C181 1.391 . S
C181 H169 0.950 . S
C181 C177 1.393 . S
C181 C180 1.391 . S
C182 H172 0.950 . S
C182 C183 1.386 . S
C182 C184 1.391 . S
C183 C182 1.386 . S
C183 C187 1.393 . S
C184 H173 0.950 . S
C184 C182 1.391 . S
C184 C185 1.400 . S
C185 C179 1.491 . S
C185 C184 1.400 . S
C185 C186 1.398 . S
C186 H174 0.950 . S
C186 C185 1.398 . S
C186 C187 1.391 . S
C187 H175 0.950 . S
C187 C183 1.393 . S
C187 C186 1.391 . S
H188 C196 0.950 . S
H189 C201 0.950 . S
H190 C198 0.950 . S
H191 C200 0.950 . S
H192 C202 0.950 . S
H193 C204 0.950 . S
H194 C206 0.950 . S
H195 C207 0.950 . S
C196 H188 0.950 . S
C196 C197 1.386 1_455 S
C196 C198 1.391 . S
C197 C196 1.386 1_655 S
C197 C201 1.393 . S
C198 H190 0.950 . S
C198 C196 1.391 . S
C198 C199 1.400 1_455 S
C199 C198 1.400 1_655 S
C199 C200 1.398 . S
C199 C205 1.491 1_655 S
C200 H191 0.950 . S
C200 C199 1.398 . S
C200 C201 1.391 . S
C201 H189 0.950 . S
C201 C197 1.393 . S
C201 C200 1.391 . S
C202 H192 0.950 . S
C202 C203 1.386 1_655 S
C202 C204 1.391 . S
C203 C202 1.386 1_455 S
C203 C207 1.393 . S
C204 H193 0.950 . S
C204 C202 1.391 . S
C204 C205 1.400 1_655 S
C205 C199 1.491 1_455 S
C205 C204 1.400 1_455 S
C205 C206 1.398 . S
C206 H194 0.950 . S
C206 C205 1.398 . S
C206 C207 1.391 . S
C207 H195 0.950 . S
C207 C203 1.393 . S
C207 C206 1.391 . S
H208 C216 0.950 . S
H209 C221 0.950 . S
H210 C218 0.950 . S
H211 C220 0.950 . S
H212 C222 0.950 . S
H213 C224 0.950 . S
H214 C226 0.950 . S
H215 C227 0.950 . S
C216 H208 0.950 . S
C216 C217 1.386 1_545 S
C216 C218 1.391 . S
C217 C216 1.386 1_565 S
C217 C221 1.393 . S
C218 H210 0.950 . S
C218 C216 1.391 . S
C218 C219 1.400 1_545 S
C219 C218 1.400 1_565 S
C219 C220 1.398 . S
C219 C225 1.491 1_566 S
C220 H211 0.950 . S
C220 C219 1.398 . S
C220 C221 1.391 . S
C221 H209 0.950 . S
C221 C217 1.393 . S
C221 C220 1.391 . S
C222 H212 0.950 . S
C222 C223 1.386 1_565 S
C222 C224 1.391 . S
C223 C222 1.386 1_545 S
C223 C227 1.393 . S
C224 H213 0.950 . S
C224 C222 1.391 . S
C224 C225 1.400 1_565 S
C225 C219 1.491 1_544 S
C225 C224 1.400 1_545 S
C225 C226 1.398 . S
C226 H214 0.950 . S
C226 C225 1.398 . S
C226 C227 1.391 . S
C227 H215 0.950 . S
C227 C223 1.393 . S
C227 C226 1.391 . S
H228 C236 0.950 . S
H229 C241 0.950 . S
H230 C238 0.950 . S
H231 C240 0.950 . S
H232 C242 0.950 . S
H233 C244 0.950 . S
H234 C246 0.950 . S
H235 C247 0.950 . S
C236 H228 0.950 . S
C236 C237 1.386 . S
C236 C238 1.391 . S
C237 C236 1.386 . S
C237 C241 1.393 . S
C238 H230 0.950 . S
C238 C236 1.391 . S
C238 C239 1.400 . S
C239 C238 1.400 . S
C239 C240 1.398 . S
C239 C245 1.491 . S
C240 H231 0.950 . S
C240 C239 1.398 . S
C240 C241 1.391 . S
C241 H229 0.950 . S
C241 C237 1.393 . S
C241 C240 1.391 . S
C242 H232 0.950 . S
C242 C243 1.386 . S
C242 C244 1.391 . S
C243 C242 1.386 . S
C243 C247 1.393 . S
C244 H233 0.950 . S
C244 C242 1.391 . S
C244 C245 1.400 . S
C245 C239 1.491 . S
C245 C244 1.400 . S
C245 C246 1.398 . S
C246 H234 0.950 . S
C246 C245 1.398 . S
C246 C247 1.391 . S
C247 H235 0.950 . S
C247 C243 1.393 . S
C247 C246 1.391 . S
H248 C256 0.950 . S
H249 C261 0.950 . S
H250 C258 0.950 . S
H251 C260 0.950 . S
H252 C262 0.950 . S
H253 C264 0.950 . S
H254 C266 0.950 . S
H255 C267 0.950 . S
C256 H248 0.950 . S
C256 C257 1.386 . S
C256 C258 1.391 . S
C257 C256 1.386 . S
C257 C261 1.393 1_655 S
C258 H250 0.950 . S
C258 C256 1.391 . S
C258 C259 1.400 . S
C259 C258 1.400 . S
C259 C260 1.398 1_655 S
C259 C265 1.491 1_655 S
C260 H251 0.950 . S
C260 C259 1.398 1_455 S
C260 C261 1.391 . S
C261 H249 0.950 . S
C261 C257 1.393 1_455 S
C261 C260 1.391 . S
C262 H252 0.950 . S
C262 C263 1.386 . S
C262 C264 1.391 . S
C263 C262 1.386 . S
C263 C267 1.393 1_455 S
C264 H253 0.950 . S
C264 C262 1.391 . S
C264 C265 1.400 . S
C265 C259 1.491 1_455 S
C265 C264 1.400 . S
C265 C266 1.398 1_455 S
C266 H254 0.950 . S
C266 C265 1.398 1_655 S
C266 C267 1.391 . S
C267 H255 0.950 . S
C267 C263 1.393 1_655 S
C267 C266 1.391 . S
H268 C276 0.950 . S
H269 C281 0.950 . S
H270 C278 0.950 . S
H271 C280 0.950 . S
H272 C282 0.950 . S
H273 C284 0.950 . S
H274 C286 0.950 . S
H275 C287 0.950 . S
C276 H268 0.950 . S
C276 C277 1.386 . S
C276 C278 1.391 . S
C277 C276 1.386 . S
C277 C281 1.393 1_565 S
C278 H270 0.950 . S
C278 C276 1.391 . S
C278 C279 1.400 . S
C279 C278 1.400 . S
C279 C280 1.398 1_565 S
C279 C285 1.491 1_564 S
C280 H271 0.950 . S
C280 C279 1.398 1_545 S
C280 C281 1.391 . S
C281 H269 0.950 . S
C281 C277 1.393 1_545 S
C281 C280 1.391 . S
C282 H272 0.950 . S
C282 C283 1.386 . S
C282 C284 1.391 . S
C283 C282 1.386 . S
C283 C287 1.393 1_545 S
C284 H273 0.950 . S
C284 C282 1.391 . S
C284 C285 1.400 . S
C285 C279 1.491 1_546 S
C285 C284 1.400 . S
C285 C286 1.398 1_545 S
C286 H274 0.950 . S
C286 C285 1.398 1_565 S
C286 C287 1.391 . S
C287 H275 0.950 . S
C287 C283 1.393 1_565 S
C287 C286 1.391 . S
H288 C296 0.950 . S
H289 C301 0.950 . S
H290 C298 0.950 . S
H291 C300 0.950 1_554 S
H292 C302 0.950 . S
H293 C304 0.950 . S
H294 C306 0.950 1_556 S
H295 C307 0.950 . S
C296 H288 0.950 . S
C296 C297 1.386 . S
C296 C298 1.391 . S
C297 C296 1.386 . S
C297 C301 1.393 . S
C298 H290 0.950 . S
C298 C296 1.391 . S
C298 C299 1.400 . S
C299 C298 1.400 . S
C299 C300 1.398 . S
C299 C305 1.491 1_556 S
C300 H291 0.950 1_556 S
C300 C299 1.398 . S
C300 C301 1.391 . S
C301 H289 0.950 . S
C301 C297 1.393 . S
C301 C300 1.391 . S
C302 H292 0.950 . S
C302 C303 1.386 . S
C302 C304 1.391 . S
C303 C302 1.386 . S
C303 C307 1.393 . S
C304 H293 0.950 . S
C304 C302 1.391 . S
C304 C305 1.400 . S
C305 C299 1.491 1_554 S
C305 C304 1.400 . S
C305 C306 1.398 . S
C306 H294 0.950 1_554 S
C306 C305 1.398 . S
C306 C307 1.391 . S
C307 H295 0.950 . S
C307 C303 1.393 . S
C307 C306 1.391 . S
H308 C316 0.950 . S
H309 C321 0.950 . S
H310 C318 0.950 . S
H311 C320 0.950 . S
H312 C322 0.950 . S
H313 C324 0.950 . S
H314 C326 0.950 . S
H315 C327 0.950 . S
C316 H308 0.950 . S
C316 C317 1.386 . S
C316 C318 1.391 . S
C317 C316 1.386 . S
C317 C321 1.393 . S
C318 H310 0.950 . S
C318 C316 1.391 . S
C318 C319 1.400 . S
C319 C318 1.400 . S
C319 C320 1.398 . S
C319 C325 1.491 . S
C320 H311 0.950 . S
C320 C319 1.398 . S
C320 C321 1.391 . S
C321 H309 0.950 . S
C321 C317 1.393 . S
C321 C320 1.391 . S
C322 H312 0.950 . S
C322 C323 1.386 . S
C322 C324 1.391 . S
C323 C322 1.386 . S
C323 C327 1.393 . S
C324 H313 0.950 . S
C324 C322 1.391 . S
C324 C325 1.400 . S
C325 C319 1.491 . S
C325 C324 1.400 . S
C325 C326 1.398 . S
C326 H314 0.950 . S
C326 C325 1.398 . S
C326 C327 1.391 . S
C327 H315 0.950 . S
C327 C323 1.393 . S
C327 C326 1.391 . S
H328 C336 0.950 . S
H329 C341 0.950 . S
H330 C338 0.950 . S
H331 C340 0.950 . S
H332 C342 0.950 . S
H333 C344 0.950 . S
H334 C346 0.950 . S
H335 C347 0.950 . S
C336 H328 0.950 . S
C336 C337 1.386 . S
C336 C338 1.391 . S
C337 C336 1.386 . S
C337 C341 1.393 . S
C338 H330 0.950 . S
C338 C336 1.391 . S
C338 C339 1.400 . S
C339 C338 1.400 . S
C339 C340 1.398 . S
C339 C345 1.491 . S
C340 H331 0.950 . S
C340 C339 1.398 . S
C340 C341 1.391 . S
C341 H329 0.950 . S
C341 C337 1.393 . S
C341 C340 1.391 . S
C342 H332 0.950 . S
C342 C343 1.386 . S
C342 C344 1.391 . S
C343 C342 1.386 . S
C343 C347 1.393 . S
C344 H333 0.950 . S
C344 C342 1.391 . S
C344 C345 1.400 . S
C345 C339 1.491 . S
C345 C344 1.400 . S
C345 C346 1.398 . S
C346 H334 0.950 . S
C346 C345 1.398 . S
C346 C347 1.391 . S
C347 H335 0.950 . S
C347 C343 1.393 . S
C347 C346 1.391 . S
H348 C356 0.950 1_556 S
H349 C361 0.950 . S
H350 C358 0.950 . S
H351 C360 0.950 . S
H352 C362 0.950 1_554 S
H353 C364 0.950 . S
H354 C366 0.950 . S
H355 C367 0.950 . S
C356 H348 0.950 1_554 S
C356 C357 1.386 . S
C356 C358 1.391 1_554 S
C357 C356 1.386 . S
C357 C361 1.393 . S
C358 H350 0.950 . S
C358 C356 1.391 1_556 S
C358 C359 1.400 1_556 S
C359 C358 1.400 1_554 S
C359 C360 1.398 . S
C359 C365 1.491 1_554 S
C360 H351 0.950 . S
C360 C359 1.398 . S
C360 C361 1.391 . S
C361 H349 0.950 . S
C361 C357 1.393 . S
C361 C360 1.391 . S
C362 H352 0.950 1_556 S
C362 C363 1.386 . S
C362 C364 1.391 1_556 S
C363 C362 1.386 . S
C363 C367 1.393 . S
C364 H353 0.950 . S
C364 C362 1.391 1_554 S
C364 C365 1.400 1_554 S
C365 C359 1.491 1_556 S
C365 C364 1.400 1_556 S
C365 C366 1.398 . S
C366 H354 0.950 . S
C366 C365 1.398 . S
C366 C367 1.391 . S
C367 H355 0.950 . S
C367 C363 1.393 . S
C367 C366 1.391 . S
H368 C376 0.950 . S
H369 C381 0.950 . S
H370 C378 0.950 . S
H371 C380 0.950 . S
H372 C382 0.950 . S
H373 C384 0.950 . S
H374 C386 0.950 . S
H375 C387 0.950 . S
C376 H368 0.950 . S
C376 C377 1.386 . S
C376 C378 1.391 . S
C377 C376 1.386 . S
C377 C381 1.393 . S
C378 H370 0.950 . S
C378 C376 1.391 . S
C378 C379 1.400 . S
C379 C378 1.400 . S
C379 C380 1.398 . S
C379 C385 1.491 . S
C380 H371 0.950 . S
C380 C379 1.398 . S
C380 C381 1.391 . S
C381 H369 0.950 . S
C381 C377 1.393 . S
C381 C380 1.391 . S
C382 H372 0.950 . S
C382 C383 1.386 . S
C382 C384 1.391 . S
C383 C382 1.386 . S
C383 C387 1.393 . S
C384 H373 0.950 . S
C384 C382 1.391 . S
C384 C385 1.400 . S
C385 C379 1.491 . S
C385 C384 1.400 . S
C385 C386 1.398 . S
C386 H374 0.950 . S
C386 C385 1.398 . S
C386 C387 1.391 . S
C387 H375 0.950 . S
C387 C383 1.393 . S
C387 C386 1.391 . S
H388 C396 0.950 . S
H389 C401 0.950 . S
H390 C398 0.950 . S
H391 C400 0.950 . S
H392 C402 0.950 . S
H393 C404 0.950 . S
H394 C406 0.950 . S
H395 C407 0.950 . S
C396 H388 0.950 . S
C396 C397 1.386 . S
C396 C398 1.391 . S
C397 C396 1.386 . S
C397 C401 1.393 . S
C398 H390 0.950 . S
C398 C396 1.391 . S
C398 C399 1.400 . S
C399 C398 1.400 . S
C399 C400 1.398 . S
C399 C405 1.491 . S
C400 H391 0.950 . S
C400 C399 1.398 . S
C400 C401 1.391 . S
C401 H389 0.950 . S
C401 C397 1.393 . S
C401 C400 1.391 . S
C402 H392 0.950 . S
C402 C403 1.386 . S
C402 C404 1.391 . S
C403 C402 1.386 . S
C403 C407 1.393 . S
C404 H393 0.950 . S
C404 C402 1.391 . S
C404 C405 1.400 . S
C405 C399 1.491 . S
C405 C404 1.400 . S
C405 C406 1.398 . S
C406 H394 0.950 . S
C406 C405 1.398 . S
C406 C407 1.391 . S
C407 H395 0.950 . S
C407 C403 1.393 . S
C407 C406 1.391 . S
H408 C416 0.950 . S
H409 C421 0.950 . S
H410 C418 0.950 . S
H411 C420 0.950 . S
H412 C422 0.950 . S
H413 C424 0.950 . S
H414 C426 0.950 . S
H415 C427 0.950 . S
C416 H408 0.950 . S
C416 C417 1.386 . S
C416 C418 1.391 . S
C417 C416 1.386 . S
C417 C421 1.393 . S
C418 H410 0.950 . S
C418 C416 1.391 . S
C418 C419 1.400 . S
C419 C418 1.400 . S
C419 C420 1.398 . S
C419 C425 1.491 . S
C420 H411 0.950 . S
C420 C419 1.398 . S
C420 C421 1.391 . S
C421 H409 0.950 . S
C421 C417 1.393 . S
C421 C420 1.391 . S
C422 H412 0.950 . S
C422 C423 1.386 . S
C422 C424 1.391 . S
C423 C422 1.386 . S
C423 C427 1.393 . S
C424 H413 0.950 . S
C424 C422 1.391 . S
C424 C425 1.400 . S
C425 C419 1.491 . S
C425 C424 1.400 . S
C425 C426 1.398 . S
C426 H414 0.950 . S
C426 C425 1.398 . S
C426 C427 1.391 . S
C427 H415 0.950 . S
C427 C423 1.393 . S
C427 C426 1.391 . S
H428 C436 0.950 . S
H429 C441 0.950 . S
H430 C438 0.950 . S
H431 C440 0.950 . S
H432 C442 0.950 . S
H433 C444 0.950 . S
H434 C446 0.950 . S
H435 C447 0.950 . S
C436 H428 0.950 . S
C436 C437 1.386 . S
C436 C438 1.391 . S
C437 C436 1.386 . S
C437 C441 1.393 1_655 S
C438 H430 0.950 . S
C438 C436 1.391 . S
C438 C439 1.400 . S
C439 C438 1.400 . S
C439 C440 1.398 1_655 S
C439 C445 1.491 1_655 S
C440 H431 0.950 . S
C440 C439 1.398 1_455 S
C440 C441 1.391 . S
C441 H429 0.950 . S
C441 C437 1.393 1_455 S
C441 C440 1.391 . S
C442 H432 0.950 . S
C442 C443 1.386 . S
C442 C444 1.391 . S
C443 C442 1.386 . S
C443 C447 1.393 1_455 S
C444 H433 0.950 . S
C444 C442 1.391 . S
C444 C445 1.400 . S
C445 C439 1.491 1_455 S
C445 C444 1.400 . S
C445 C446 1.398 1_455 S
C446 H434 0.950 . S
C446 C445 1.398 1_655 S
C446 C447 1.391 . S
C447 H435 0.950 . S
C447 C443 1.393 1_655 S
C447 C446 1.391 . S
H448 C456 0.950 . S
H449 C461 0.950 . S
H450 C458 0.950 . S
H451 C460 0.950 . S
H452 C462 0.950 . S
H453 C464 0.950 . S
H454 C466 0.950 . S
H455 C467 0.950 . S
C456 H448 0.950 . S
C456 C457 1.386 1_545 S
C456 C458 1.391 . S
C457 C456 1.386 1_565 S
C457 C461 1.393 . S
C458 H450 0.950 . S
C458 C456 1.391 . S
C458 C459 1.400 1_545 S
C459 C458 1.400 1_565 S
C459 C460 1.398 . S
C459 C465 1.491 1_565 S
C460 H451 0.950 . S
C460 C459 1.398 . S
C460 C461 1.391 . S
C461 H449 0.950 . S
C461 C457 1.393 . S
C461 C460 1.391 . S
C462 H452 0.950 . S
C462 C463 1.386 1_565 S
C462 C464 1.391 . S
C463 C462 1.386 1_545 S
C463 C467 1.393 . S
C464 H453 0.950 . S
C464 C462 1.391 . S
C464 C465 1.400 1_565 S
C465 C459 1.491 1_545 S
C465 C464 1.400 1_545 S
C465 C466 1.398 . S
C466 H454 0.950 . S
C466 C465 1.398 . S
C466 C467 1.391 . S
C467 H455 0.950 . S
C467 C463 1.393 . S
C467 C466 1.391 . S
H468 C476 0.950 . S
H469 C481 0.950 . S
H470 C478 0.950 . S
H471 C480 0.950 . S
H472 C482 0.950 . S
H473 C484 0.950 . S
H474 C486 0.950 . S
H475 C487 0.950 . S
C476 H468 0.950 . S
C476 C477 1.386 . S
C476 C478 1.391 . S
C477 C476 1.386 . S
C477 C481 1.393 . S
C478 H470 0.950 . S
C478 C476 1.391 . S
C478 C479 1.400 . S
C479 C478 1.400 . S
C479 C480 1.398 . S
C479 C485 1.491 . S
C480 H471 0.950 . S
C480 C479 1.398 . S
C480 C481 1.391 . S
C481 H469 0.950 . S
C481 C477 1.393 . S
C481 C480 1.391 . S
C482 H472 0.950 . S
C482 C483 1.386 . S
C482 C484 1.391 . S
C483 C482 1.386 . S
C483 C487 1.393 . S
C484 H473 0.950 . S
C484 C482 1.391 . S
C484 C485 1.400 . S
C485 C479 1.491 . S
C485 C484 1.400 . S
C485 C486 1.398 . S
C486 H474 0.950 . S
C486 C485 1.398 . S
C486 C487 1.391 . S
C487 H475 0.950 . S
C487 C483 1.393 . S
C487 C486 1.391 . S
H488 C496 0.950 . S
H489 C501 0.950 . S
H490 C498 0.950 . S
H491 C500 0.950 . S
H492 C502 0.950 . S
H493 C504 0.950 . S
H494 C506 0.950 . S
H495 C507 0.950 . S
C496 H488 0.950 . S
C496 C497 1.386 . S
C496 C498 1.391 . S
C497 C496 1.386 . S
C497 C501 1.393 1_455 S
C498 H490 0.950 . S
C498 C496 1.391 . S
C498 C499 1.400 . S
C499 C498 1.400 . S
C499 C500 1.398 1_455 S
C499 C505 1.491 1_455 S
C500 H491 0.950 . S
C500 C499 1.398 1_655 S
C500 C501 1.391 . S
C501 H489 0.950 . S
C501 C497 1.393 1_655 S
C501 C500 1.391 . S
C502 H492 0.950 . S
C502 C503 1.386 . S
C502 C504 1.391 . S
C503 C502 1.386 . S
C503 C507 1.393 1_655 S
C504 H493 0.950 . S
C504 C502 1.391 . S
C504 C505 1.400 . S
C505 C499 1.491 1_655 S
C505 C504 1.400 . S
C505 C506 1.398 1_655 S
C506 H494 0.950 . S
C506 C505 1.398 1_455 S
C506 C507 1.391 . S
C507 H495 0.950 . S
C507 C503 1.393 1_455 S
C507 C506 1.391 . S
H508 C516 0.950 . S
H509 C521 0.950 . S
H510 C518 0.950 . S
H511 C520 0.950 . S
H512 C522 0.950 . S
H513 C524 0.950 . S
H514 C526 0.950 . S
H515 C527 0.950 . S
C516 H508 0.950 . S
C516 C517 1.386 1_545 S
C516 C518 1.391 . S
C517 C516 1.386 1_565 S
C517 C521 1.393 . S
C518 H510 0.950 . S
C518 C516 1.391 . S
C518 C519 1.400 1_545 S
C519 C518 1.400 1_565 S
C519 C520 1.398 . S
C519 C525 1.491 1_565 S
C520 H511 0.950 . S
C520 C519 1.398 . S
C520 C521 1.391 . S
C521 H509 0.950 . S
C521 C517 1.393 . S
C521 C520 1.391 . S
C522 H512 0.950 . S
C522 C523 1.386 1_565 S
C522 C524 1.391 . S
C523 C522 1.386 1_545 S
C523 C527 1.393 . S
C524 H513 0.950 . S
C524 C522 1.391 . S
C524 C525 1.400 1_565 S
C525 C519 1.491 1_545 S
C525 C524 1.400 1_545 S
C525 C526 1.398 . S
C526 H514 0.950 . S
C526 C525 1.398 . S
C526 C527 1.391 . S
C527 H515 0.950 . S
C527 C523 1.393 . S
C527 C526 1.391 . S
H528 C536 0.950 . S
H529 C541 0.950 . S
H530 C538 0.950 . S
H531 C540 0.950 . S
H532 C542 0.950 . S
H533 C544 0.950 . S
H534 C546 0.950 . S
H535 C547 0.950 . S
C536 H528 0.950 . S
C536 C537 1.386 . S
C536 C538 1.391 . S
C537 C536 1.386 . S
C537 C541 1.393 . S
C538 H530 0.950 . S
C538 C536 1.391 . S
C538 C539 1.400 . S
C539 C538 1.400 . S
C539 C540 1.398 . S
C539 C545 1.491 . S
C540 H531 0.950 . S
C540 C539 1.398 . S
C540 C541 1.391 . S
C541 H529 0.950 . S
C541 C537 1.393 . S
C541 C540 1.391 . S
C542 H532 0.950 . S
C542 C543 1.386 . S
C542 C544 1.391 . S
C543 C542 1.386 . S
C543 C547 1.393 . S
C544 H533 0.950 . S
C544 C542 1.391 . S
C544 C545 1.400 . S
C545 C539 1.491 . S
C545 C544 1.400 . S
C545 C546 1.398 . S
C546 H534 0.950 . S
C546 C545 1.398 . S
C546 C547 1.391 . S
C547 H535 0.950 . S
C547 C543 1.393 . S
C547 C546 1.391 . S
H548 C556 0.950 . S
H549 C561 0.950 . S
H550 C558 0.950 . S
H551 C560 0.950 . S
H552 C562 0.950 . S
H553 C564 0.950 . S
H554 C566 0.950 . S
H555 C567 0.950 . S
C556 H548 0.950 . S
C556 C557 1.386 . S
C556 C558 1.391 . S
C557 C556 1.386 . S
C557 C561 1.393 1_455 S
C558 H550 0.950 . S
C558 C556 1.391 . S
C558 C559 1.400 . S
C559 C558 1.400 . S
C559 C560 1.398 1_455 S
C559 C565 1.491 1_455 S
C560 H551 0.950 . S
C560 C559 1.398 1_655 S
C560 C561 1.391 . S
C561 H549 0.950 . S
C561 C557 1.393 1_655 S
C561 C560 1.391 . S
C562 H552 0.950 . S
C562 C563 1.386 . S
C562 C564 1.391 . S
C563 C562 1.386 . S
C563 C567 1.393 1_655 S
C564 H553 0.950 . S
C564 C562 1.391 . S
C564 C565 1.400 . S
C565 C559 1.491 1_655 S
C565 C564 1.400 . S
C565 C566 1.398 1_655 S
C566 H554 0.950 . S
C566 C565 1.398 1_455 S
C566 C567 1.391 . S
C567 H555 0.950 . S
C567 C563 1.393 1_455 S
C567 C566 1.391 . S
H568 C576 0.950 . S
H569 C581 0.950 . S
H570 C578 0.950 . S
H571 C580 0.950 . S
H572 C582 0.950 . S
H573 C584 0.950 . S
H574 C586 0.950 . S
H575 C587 0.950 . S
C576 H568 0.950 . S
C576 C577 1.386 1_545 S
C576 C578 1.391 . S
C577 C576 1.386 1_565 S
C577 C581 1.393 . S
C578 H570 0.950 . S
C578 C576 1.391 . S
C578 C579 1.400 1_545 S
C579 C578 1.400 1_565 S
C579 C580 1.398 . S
C579 C585 1.491 1_565 S
C580 H571 0.950 . S
C580 C579 1.398 . S
C580 C581 1.391 . S
C581 H569 0.950 . S
C581 C577 1.393 . S
C581 C580 1.391 . S
C582 H572 0.950 . S
C582 C583 1.386 1_565 S
C582 C584 1.391 . S
C583 C582 1.386 1_545 S
C583 C587 1.393 . S
C584 H573 0.950 . S
C584 C582 1.391 . S
C584 C585 1.400 1_565 S
C585 C579 1.491 1_545 S
C585 C584 1.400 1_545 S
C585 C586 1.398 . S
C586 H574 0.950 . S
C586 C585 1.398 . S
C586 C587 1.391 . S
C587 H575 0.950 . S
C587 C583 1.393 . S
C587 C586 1.391 . S
H588 C596 0.950 . S
H589 C601 0.950 . S
H590 C598 0.950 . S
H591 C600 0.950 . S
H592 C602 0.950 . S
H593 C604 0.950 . S
H594 C606 0.950 . S
H595 C607 0.950 . S
C596 H588 0.950 . S
C596 C597 1.386 . S
C596 C598 1.391 . S
C597 C596 1.386 . S
C597 C601 1.393 . S
C598 H590 0.950 . S
C598 C596 1.391 . S
C598 C599 1.400 . S
C599 C598 1.400 . S
C599 C600 1.398 . S
C599 C605 1.491 . S
C600 H591 0.950 . S
C600 C599 1.398 . S
C600 C601 1.391 . S
C601 H589 0.950 . S
C601 C597 1.393 . S
C601 C600 1.391 . S
C602 H592 0.950 . S
C602 C603 1.386 . S
C602 C604 1.391 . S
C603 C602 1.386 . S
C603 C607 1.393 . S
C604 H593 0.950 . S
C604 C602 1.391 . S
C604 C605 1.400 . S
C605 C599 1.491 . S
C605 C604 1.400 . S
C605 C606 1.398 . S
C606 H594 0.950 . S
C606 C605 1.398 . S
C606 C607 1.391 . S
C607 H595 0.950 . S
C607 C603 1.393 . S
C607 C606 1.391 . S
H608 C616 0.950 . S
H609 C621 0.950 . S
H610 C618 0.950 . S
H611 C620 0.950 . S
H612 C622 0.950 . S
H613 C624 0.950 . S
H614 C626 0.950 . S
H615 C627 0.950 . S
C616 H608 0.950 . S
C616 C617 1.386 . S
C616 C618 1.391 . S
C617 C616 1.386 . S
C617 C621 1.393 1_655 S
C618 H610 0.950 . S
C618 C616 1.391 . S
C618 C619 1.400 . S
C619 C618 1.400 . S
C619 C620 1.398 1_655 S
C619 C625 1.491 1_655 S
C620 H611 0.950 . S
C620 C619 1.398 1_455 S
C620 C621 1.391 . S
C621 H609 0.950 . S
C621 C617 1.393 1_455 S
C621 C620 1.391 . S
C622 H612 0.950 . S
C622 C623 1.386 . S
C622 C624 1.391 . S
C623 C622 1.386 . S
C623 C627 1.393 1_455 S
C624 H613 0.950 . S
C624 C622 1.391 . S
C624 C625 1.400 . S
C625 C619 1.491 1_455 S
C625 C624 1.400 . S
C625 C626 1.398 1_455 S
C626 H614 0.950 . S
C626 C625 1.398 1_655 S
C626 C627 1.391 . S
C627 H615 0.950 . S
C627 C623 1.393 1_655 S
C627 C626 1.391 . S
H628 C636 0.950 1_565 S
H629 C641 0.950 . S
H630 C638 0.950 . S
H631 C640 0.950 . S
H632 C642 0.950 1_545 S
H633 C644 0.950 . S
H634 C646 0.950 . S
H635 C647 0.950 . S
C636 H628 0.950 1_545 S
C636 C637 1.386 . S
C636 C638 1.391 1_545 S
C637 C636 1.386 . S
C637 C641 1.393 . S
C638 H630 0.950 . S
C638 C636 1.391 1_565 S
C638 C639 1.400 1_565 S
C639 C638 1.400 1_545 S
C639 C640 1.398 . S
C639 C645 1.491 1_545 S
C640 H631 0.950 . S
C640 C639 1.398 . S
C640 C641 1.391 . S
C641 H629 0.950 . S
C641 C637 1.393 . S
C641 C640 1.391 . S
C642 H632 0.950 1_565 S
C642 C643 1.386 . S
C642 C644 1.391 1_565 S
C643 C642 1.386 . S
C643 C647 1.393 . S
C644 H633 0.950 . S
C644 C642 1.391 1_545 S
C644 C645 1.400 1_545 S
C645 C639 1.491 1_565 S
C645 C644 1.400 1_565 S
C645 C646 1.398 . S
C646 H634 0.950 . S
C646 C645 1.398 . S
C646 C647 1.391 . S
C647 H635 0.950 . S
C647 C643 1.393 . S
C647 C646 1.391 . S
C177 C0 1.500 . S
C183 C126 1.508 . S
C197 C14 1.496 . S
C203 C140 1.512 . S
C217 C28 1.500 . S
C223 C154 1.509 . S
C237 C42 1.510 . S
C243 C84 1.498 . S
C257 C98 1.509 . S
C263 C56 1.499 . S
C277 C112 1.512 . S
C283 C70 1.496 . S
C297 C151 1.547 . S
C303 C11 1.550 . S
C317 C25 1.537 . S
C323 C165 1.534 . S
C337 C39 1.550 . S
C343 C95 1.547 . S
C357 C53 1.541 . S
C363 C109 1.536 . S
C377 C67 1.538 . S
C383 C123 1.544 . S
C397 C81 1.543 . S
C403 C137 1.548 . S
C417 C135 0.751 . S
C423 C9 0.751 . S
C437 C23 0.712 . S
C443 C149 0.732 . S
C457 C37 0.727 . S
C463 C163 0.708 . S
C477 C93 0.706 . S
C483 C51 0.698 . S
C497 C65 0.720 . S
C503 C107 0.740 . S
C517 C121 0.707 . S
C523 C79 0.698 . S
C537 C5 1.508 . S
C543 C47 1.507 . S
C557 C61 1.510 . S
C563 C19 1.508 . S
C577 C33 1.509 . S
C583 C75 1.510 . S
C597 C89 1.507 . S
C603 C131 1.506 . S
C617 C103 1.506 . S
C623 C145 1.505 . S
C637 C159 1.510 . S
C643 C117 1.511 . S
