# Generated by pormake.
# Topology umk, (4)-cn, num edge types: 1
# Building blocks:
#     Node 0, Type 0, BuildingBlock: CEKHIL_clean_sbu_0, # of connection points: 4
#     Node 1, Type 0, BuildingBlock: CEKHIL_clean_sbu_0, # of connection points: 4
#     Node 2, Type 0, BuildingBlock: CEKHIL_clean_sbu_0, # of connection points: 4
#     Node 3, Type 0, BuildingBlock: CEKHIL_clean_sbu_0, # of connection points: 4
#     Node 4, Type 0, BuildingBlock: CEKHIL_clean_sbu_0, # of connection points: 4
#     Node 5, Type 0, BuildingBlock: CEKHIL_clean_sbu_0, # of connection points: 4
#     Node 6, Type 0, BuildingBlock: CEKHIL_clean_sbu_0, # of connection points: 4
#     Node 7, Type 0, BuildingBlock: CEKHIL_clean_sbu_0, # of connection points: 4
#     Node 8, Type 0, BuildingBlock: CEKHIL_clean_sbu_0, # of connection points: 4
#     Node 9, Type 0, BuildingBlock: CEKHIL_clean_sbu_0, # of connection points: 4
#     Node 10, Type 0, BuildingBlock: CEKHIL_clean_sbu_0, # of connection points: 4
#     Node 11, Type 0, BuildingBlock: CEKHIL_clean_sbu_0, # of connection points: 4
#     Node 12, Type 0, BuildingBlock: CEKHIL_clean_sbu_0, # of connection points: 4
#     Node 13, Type 0, BuildingBlock: CEKHIL_clean_sbu_0, # of connection points: 4
#     Node 14, Type 0, BuildingBlock: CEKHIL_clean_sbu_0, # of connection points: 4
#     Node 15, Type 0, BuildingBlock: CEKHIL_clean_sbu_0, # of connection points: 4
#     Node 16, Type 0, BuildingBlock: CEKHIL_clean_sbu_0, # of connection points: 4
#     Node 17, Type 0, BuildingBlock: CEKHIL_clean_sbu_0, # of connection points: 4
#     Node 18, Type 0, BuildingBlock: CEKHIL_clean_sbu_0, # of connection points: 4
#     Node 19, Type 0, BuildingBlock: CEKHIL_clean_sbu_0, # of connection points: 4
#     Node 20, Type 0, BuildingBlock: CEKHIL_clean_sbu_0, # of connection points: 4
#     Node 21, Type 0, BuildingBlock: CEKHIL_clean_sbu_0, # of connection points: 4
#     Node 22, Type 0, BuildingBlock: CEKHIL_clean_sbu_0, # of connection points: 4
#     Node 23, Type 0, BuildingBlock: CEKHIL_clean_sbu_0, # of connection points: 4
#     Edge 24, Type (0, 0), BuildingBlock: MIFKUJ_clean_linker_0, # of connection points: 2
#     Edge 25, Type (0, 0), BuildingBlock: MIFKUJ_clean_linker_0, # of connection points: 2
#     Edge 26, Type (0, 0), BuildingBlock: MIFKUJ_clean_linker_0, # of connection points: 2
#     Edge 27, Type (0, 0), BuildingBlock: MIFKUJ_clean_linker_0, # of connection points: 2
#     Edge 28, Type (0, 0), BuildingBlock: MIFKUJ_clean_linker_0, # of connection points: 2
#     Edge 29, Type (0, 0), BuildingBlock: MIFKUJ_clean_linker_0, # of connection points: 2
#     Edge 30, Type (0, 0), BuildingBlock: MIFKUJ_clean_linker_0, # of connection points: 2
#     Edge 31, Type (0, 0), BuildingBlock: MIFKUJ_clean_linker_0, # of connection points: 2
#     Edge 32, Type (0, 0), BuildingBlock: MIFKUJ_clean_linker_0, # of connection points: 2
#     Edge 33, Type (0, 0), BuildingBlock: MIFKUJ_clean_linker_0, # of connection points: 2
#     Edge 34, Type (0, 0), BuildingBlock: MIFKUJ_clean_linker_0, # of connection points: 2
#     Edge 35, Type (0, 0), BuildingBlock: MIFKUJ_clean_linker_0, # of connection points: 2
#     Edge 36, Type (0, 0), BuildingBlock: MIFKUJ_clean_linker_0, # of connection points: 2
#     Edge 37, Type (0, 0), BuildingBlock: MIFKUJ_clean_linker_0, # of connection points: 2
#     Edge 38, Type (0, 0), BuildingBlock: MIFKUJ_clean_linker_0, # of connection points: 2
#     Edge 39, Type (0, 0), BuildingBlock: MIFKUJ_clean_linker_0, # of connection points: 2
#     Edge 40, Type (0, 0), BuildingBlock: MIFKUJ_clean_linker_0, # of connection points: 2
#     Edge 41, Type (0, 0), BuildingBlock: MIFKUJ_clean_linker_0, # of connection points: 2
#     Edge 42, Type (0, 0), BuildingBlock: MIFKUJ_clean_linker_0, # of connection points: 2
#     Edge 43, Type (0, 0), BuildingBlock: MIFKUJ_clean_linker_0, # of connection points: 2
#     Edge 44, Type (0, 0), BuildingBlock: MIFKUJ_clean_linker_0, # of connection points: 2
#     Edge 45, Type (0, 0), BuildingBlock: MIFKUJ_clean_linker_0, # of connection points: 2
#     Edge 46, Type (0, 0), BuildingBlock: MIFKUJ_clean_linker_0, # of connection points: 2
#     Edge 47, Type (0, 0), BuildingBlock: MIFKUJ_clean_linker_0, # of connection points: 2
#     Edge 48, Type (0, 0), BuildingBlock: MIFKUJ_clean_linker_0, # of connection points: 2
#     Edge 49, Type (0, 0), BuildingBlock: MIFKUJ_clean_linker_0, # of connection points: 2
#     Edge 50, Type (0, 0), BuildingBlock: MIFKUJ_clean_linker_0, # of connection points: 2
#     Edge 51, Type (0, 0), BuildingBlock: MIFKUJ_clean_linker_0, # of connection points: 2
#     Edge 52, Type (0, 0), BuildingBlock: MIFKUJ_clean_linker_0, # of connection points: 2
#     Edge 53, Type (0, 0), BuildingBlock: MIFKUJ_clean_linker_0, # of connection points: 2
#     Edge 54, Type (0, 0), BuildingBlock: MIFKUJ_clean_linker_0, # of connection points: 2
#     Edge 55, Type (0, 0), BuildingBlock: MIFKUJ_clean_linker_0, # of connection points: 2
#     Edge 56, Type (0, 0), BuildingBlock: MIFKUJ_clean_linker_0, # of connection points: 2
#     Edge 57, Type (0, 0), BuildingBlock: MIFKUJ_clean_linker_0, # of connection points: 2
#     Edge 58, Type (0, 0), BuildingBlock: MIFKUJ_clean_linker_0, # of connection points: 2
#     Edge 59, Type (0, 0), BuildingBlock: MIFKUJ_clean_linker_0, # of connection points: 2
#     Edge 60, Type (0, 0), BuildingBlock: MIFKUJ_clean_linker_0, # of connection points: 2
#     Edge 61, Type (0, 0), BuildingBlock: MIFKUJ_clean_linker_0, # of connection points: 2
#     Edge 62, Type (0, 0), BuildingBlock: MIFKUJ_clean_linker_0, # of connection points: 2
#     Edge 63, Type (0, 0), BuildingBlock: MIFKUJ_clean_linker_0, # of connection points: 2
#     Edge 64, Type (0, 0), BuildingBlock: MIFKUJ_clean_linker_0, # of connection points: 2
#     Edge 65, Type (0, 0), BuildingBlock: MIFKUJ_clean_linker_0, # of connection points: 2
#     Edge 66, Type (0, 0), BuildingBlock: MIFKUJ_clean_linker_0, # of connection points: 2
#     Edge 67, Type (0, 0), BuildingBlock: MIFKUJ_clean_linker_0, # of connection points: 2
#     Edge 68, Type (0, 0), BuildingBlock: MIFKUJ_clean_linker_0, # of connection points: 2
#     Edge 69, Type (0, 0), BuildingBlock: MIFKUJ_clean_linker_0, # of connection points: 2
#     Edge 70, Type (0, 0), BuildingBlock: MIFKUJ_clean_linker_0, # of connection points: 2
#     Edge 71, Type (0, 0), BuildingBlock: MIFKUJ_clean_linker_0, # of connection points: 2
# Relax obj value: 0.069
# Max RMSD: 0.047
# Mean RMSD: 0.047
data_MOF--net-umk--node1-CEKHIL_clean_sbu_0--edge1-MIFKUJ_clean_linker_0
_symmetry_space_group_name_H-M    P1
_symmetry_Int_Tables_number       1
_symmetry_cell_setting            triclinic
loop_
_symmetry_equiv_pos_as_xyz
'x, y, z'
_cell_length_a     85.441915
_cell_length_b     85.454609
_cell_length_c     56.113076
_cell_angle_alpha  89.980942
_cell_angle_beta   90.022691
_cell_angle_gamma 119.9777
loop_
_atom_site_label
_atom_site_type_symbol
_atom_site_fract_x
_atom_site_fract_y
_atom_site_fract_z
_atom_type_partial_charge
Co0 Co 0.33516 0.46889 0.08345 0.0
O1 O 0.31945 0.47887 0.07913 0.0
O2 O 0.32127 0.46001 0.05399 0.0
C3 C 0.328 0.46124 0.12229 0.0
O4 O 0.34937 0.45522 0.08267 0.0
Co5 Co 0.36645 0.48599 0.1209 0.0
O6 O 0.36902 0.46478 0.1134 0.0
C7 C 0.3707 0.50388 0.07421 0.0
C8 C 0.31373 0.46951 0.05968 0.0
C9 C 0.36148 0.45442 0.09562 0.0
O10 O 0.35567 0.49054 0.06648 0.0
O11 O 0.37622 0.50501 0.09569 0.0
O12 O 0.31763 0.4506 0.10556 0.0
O13 O 0.34112 0.47645 0.11504 0.0
Co14 Co 0.86872 0.33235 0.58335 0.0
O15 O 0.84313 0.31579 0.57978 0.0
O16 O 0.86384 0.31785 0.55449 0.0
C17 C 0.87029 0.32651 0.62247 0.0
O18 O 0.89655 0.34752 0.58199 0.0
Co19 Co 0.88156 0.36467 0.61876 0.0
O20 O 0.90577 0.36816 0.6115 0.0
C21 C 0.86497 0.3654 0.57305 0.0
C22 C 0.84685 0.31002 0.56044 0.0
C23 C 0.90915 0.3604 0.59448 0.0
O24 O 0.86615 0.35172 0.56552 0.0
O25 O 0.86864 0.37121 0.5945 0.0
O26 O 0.87068 0.31589 0.60619 0.0
O27 O 0.86726 0.33892 0.61467 0.0
Co28 Co 0.53981 0.86988 0.08449 0.0
O29 O 0.53066 0.84446 0.07917 0.0
O30 O 0.54949 0.86601 0.05493 0.0
C31 C 0.54701 0.86955 0.12332 0.0
O32 O 0.5526 0.89773 0.08499 0.0
Co33 Co 0.521 0.88186 0.12209 0.0
O34 O 0.54265 0.9059 0.1172 0.0
C35 C 0.50336 0.86722 0.07567 0.0
C36 C 0.5403 0.84884 0.05992 0.0
C37 C 0.55329 0.90987 0.09944 0.0
O38 O 0.51792 0.86811 0.06748 0.0
O39 O 0.50154 0.87047 0.09746 0.0
O40 O 0.55815 0.87084 0.10666 0.0
O41 O 0.53169 0.86711 0.11592 0.0
Co42 Co 0.67635 0.5402 0.58596 0.0
O43 O 0.69226 0.53042 0.58212 0.0
O44 O 0.69023 0.5489 0.55646 0.0
C45 C 0.68338 0.54779 0.62486 0.0
O46 O 0.66209 0.55382 0.58481 0.0
Co47 Co 0.64489 0.52333 0.62299 0.0
O48 O 0.64423 0.54583 0.61724 0.0
C49 C 0.64097 0.50509 0.57665 0.0
C50 C 0.69796 0.53966 0.56258 0.0
C51 C 0.65116 0.55573 0.59889 0.0
O52 O 0.65599 0.51845 0.56898 0.0
O53 O 0.63527 0.50411 0.598 0.0
O54 O 0.69378 0.55852 0.6082 0.0
O55 O 0.67023 0.53265 0.61749 0.0
Co56 Co 0.14016 0.67312 0.08291 0.0
O57 O 0.16593 0.68877 0.07978 0.0
O58 O 0.14597 0.68744 0.05373 0.0
C59 C 0.13908 0.67977 0.12179 0.0
O60 O 0.11235 0.6592 0.08095 0.0
Co61 Co 0.12452 0.64115 0.11909 0.0
O62 O 0.10179 0.64149 0.11349 0.0
C63 C 0.14099 0.63838 0.07403 0.0
C64 C 0.16283 0.69484 0.06024 0.0
C65 C 0.09931 0.64871 0.09505 0.0
O66 O 0.14169 0.65288 0.06594 0.0
O67 O 0.13608 0.63261 0.09533 0.0
O68 O 0.13908 0.69038 0.10518 0.0
O69 O 0.14098 0.66655 0.11442 0.0
Co70 Co 0.4686 0.13633 0.58738 0.0
O71 O 0.4781 0.16199 0.58362 0.0
O72 O 0.45909 0.14135 0.55854 0.0
C73 C 0.46156 0.13543 0.62655 0.0
O74 O 0.45538 0.10849 0.58598 0.0
Co75 Co 0.48686 0.12231 0.62304 0.0
O76 O 0.46601 0.09831 0.61531 0.0
C77 C 0.50477 0.13872 0.57739 0.0
C78 C 0.46849 0.15835 0.56439 0.0
C79 C 0.45515 0.09551 0.59811 0.0
O80 O 0.49031 0.1383 0.56963 0.0
O81 O 0.50647 0.13468 0.59884 0.0
O82 O 0.45049 0.13498 0.61032 0.0
O83 O 0.47672 0.13777 0.61864 0.0
Co84 Co 0.5418 0.6772 0.91815 0.0
O85 O 0.53297 0.69396 0.9211 0.0
O86 O 0.55172 0.6922 0.94653 0.0
C87 C 0.54861 0.68221 0.87882 0.0
O88 O 0.55435 0.662 0.92008 0.0
Co89 Co 0.52189 0.64411 0.88399 0.0
O90 O 0.54216 0.64007 0.89223 0.0
C91 C 0.50501 0.6448 0.92932 0.0
C92 C 0.54267 0.70008 0.94023 0.0
C93 C 0.55364 0.6485 0.90869 0.0
O94 O 0.52009 0.65823 0.93663 0.0
O95 O 0.50251 0.63876 0.90796 0.0
O96 O 0.55992 0.69315 0.89462 0.0
O97 O 0.53334 0.66994 0.88719 0.0
Co98 Co 0.86637 0.53648 0.41349 0.0
O99 O 0.84088 0.52795 0.41693 0.0
O100 O 0.86156 0.54536 0.44312 0.0
C101 C 0.86793 0.54482 0.37476 0.0
O102 O 0.89418 0.54877 0.41498 0.0
Co103 Co 0.87942 0.51822 0.37639 0.0
O104 O 0.90344 0.53932 0.38332 0.0
C105 C 0.86352 0.49979 0.42203 0.0
C106 C 0.84465 0.53695 0.43669 0.0
C107 C 0.90681 0.5495 0.40147 0.0
O108 O 0.86352 0.51396 0.4301 0.0
O109 O 0.86778 0.49849 0.40054 0.0
O110 O 0.86866 0.5556 0.39161 0.0
O111 O 0.86485 0.52921 0.38183 0.0
Co112 Co 0.33291 0.86748 0.91465 0.0
O113 O 0.31782 0.84173 0.9189 0.0
O114 O 0.31862 0.86209 0.94378 0.0
C115 C 0.32609 0.8675 0.8756 0.0
O116 O 0.3462 0.89533 0.91531 0.0
Co117 Co 0.36483 0.88284 0.87837 0.0
O118 O 0.36395 0.90537 0.88277 0.0
C119 C 0.36836 0.86817 0.9246 0.0
C120 C 0.31163 0.84511 0.93812 0.0
C121 C 0.35655 0.90812 0.90078 0.0
O122 O 0.35352 0.86699 0.93221 0.0
O123 O 0.37409 0.87272 0.90322 0.0
O124 O 0.3153 0.86747 0.89194 0.0
O125 O 0.33954 0.86613 0.88336 0.0
Co126 Co 0.47176 0.33103 0.4187 0.0
O127 O 0.48069 0.31453 0.42362 0.0
O128 O 0.46149 0.31678 0.44765 0.0
C129 C 0.46535 0.32479 0.37945 0.0
O130 O 0.459 0.34612 0.41835 0.0
Co131 Co 0.49203 0.363 0.38294 0.0
O132 O 0.47059 0.3658 0.38781 0.0
C133 C 0.5082 0.3642 0.42971 0.0
C134 C 0.47069 0.30881 0.44253 0.0
C135 C 0.45915 0.35838 0.40463 0.0
O136 O 0.49317 0.35066 0.437 0.0
O137 O 0.51094 0.36973 0.4081 0.0
O138 O 0.45393 0.31432 0.39548 0.0
O139 O 0.48056 0.33731 0.38769 0.0
Co140 Co 0.14237 0.46883 0.91244 0.0
O141 O 0.16799 0.4784 0.91655 0.0
O142 O 0.14727 0.45962 0.9417 0.0
C143 C 0.14159 0.46139 0.87347 0.0
O144 O 0.1145 0.45561 0.91331 0.0
Co145 Co 0.12876 0.48695 0.87581 0.0
O146 O 0.10498 0.46536 0.8822 0.0
C147 C 0.14381 0.50471 0.92206 0.0
C148 C 0.1643 0.46899 0.93596 0.0
C149 C 0.10178 0.45485 0.89994 0.0
O150 O 0.14407 0.49057 0.92975 0.0
O151 O 0.13976 0.50629 0.90057 0.0
O152 O 0.14119 0.45053 0.88999 0.0
O153 O 0.144 0.47666 0.88101 0.0
Co154 Co 0.67533 0.13785 0.41816 0.0
O155 O 0.69098 0.16338 0.42406 0.0
O156 O 0.68913 0.14168 0.44741 0.0
C157 C 0.68266 0.1388 0.37913 0.0
O158 O 0.66121 0.10999 0.4173 0.0
Co159 Co 0.64419 0.12454 0.38084 0.0
O160 O 0.64354 0.10118 0.38463 0.0
C161 C 0.6406 0.13855 0.42761 0.0
C162 C 0.69656 0.15888 0.44293 0.0
C163 C 0.65052 0.09767 0.40247 0.0
O164 O 0.65483 0.13862 0.43564 0.0
O165 O 0.63539 0.13491 0.4059 0.0
O166 O 0.69291 0.13781 0.39547 0.0
O167 O 0.66946 0.14056 0.38693 0.0
Co168 Co 0.67489 0.53804 0.9167 0.0
O169 O 0.69121 0.52865 0.9194 0.0
O170 O 0.68898 0.54641 0.94605 0.0
C171 C 0.68142 0.54635 0.8779 0.0
O172 O 0.66023 0.55119 0.91921 0.0
Co173 Co 0.64297 0.52112 0.88032 0.0
O174 O 0.63958 0.54154 0.88966 0.0
C175 C 0.64027 0.50212 0.92556 0.0
C176 C 0.69689 0.53752 0.93922 0.0
C177 C 0.64754 0.55179 0.90739 0.0
O178 O 0.65499 0.51579 0.93341 0.0
O179 O 0.63442 0.50124 0.90431 0.0
O180 O 0.69186 0.5569 0.89468 0.0
O181 O 0.66851 0.53098 0.88503 0.0
Co182 Co 0.13853 0.67192 0.4136 0.0
O183 O 0.16416 0.68785 0.41773 0.0
O184 O 0.1435 0.68582 0.44308 0.0
C185 C 0.13839 0.67909 0.37467 0.0
O186 O 0.11064 0.65762 0.41434 0.0
Co187 Co 0.12433 0.6406 0.37646 0.0
O188 O 0.10103 0.63972 0.38194 0.0
C189 C 0.13831 0.63658 0.42306 0.0
C190 C 0.16049 0.69358 0.43712 0.0
C191 C 0.0979 0.64663 0.40018 0.0
O192 O 0.13989 0.65159 0.4307 0.0
O193 O 0.13372 0.63091 0.40167 0.0
O194 O 0.13772 0.68933 0.39128 0.0
O195 O 0.14032 0.66591 0.38212 0.0
Co196 Co 0.47026 0.1389 0.91928 0.0
O197 O 0.48098 0.16452 0.9252 0.0
O198 O 0.46054 0.14324 0.94836 0.0
C199 C 0.46444 0.14034 0.88018 0.0
O200 O 0.4555 0.11108 0.91836 0.0
Co201 Co 0.487 0.12418 0.8824 0.0
O202 O 0.46337 0.10171 0.88536 0.0
C203 C 0.50416 0.13674 0.92981 0.0
C204 C 0.47078 0.16039 0.94392 0.0
C205 C 0.45306 0.09862 0.90327 0.0
O206 O 0.49084 0.1386 0.93718 0.0
O207 O 0.50549 0.13245 0.90834 0.0
O208 O 0.4533 0.13983 0.89635 0.0
O209 O 0.47901 0.14129 0.88818 0.0
Co210 Co 0.33498 0.46691 0.41306 0.0
O211 O 0.3182 0.47567 0.41642 0.0
O212 O 0.32077 0.45762 0.44222 0.0
C213 C 0.32882 0.45909 0.37411 0.0
O214 O 0.35036 0.45446 0.41464 0.0
Co215 Co 0.36693 0.48586 0.37698 0.0
O216 O 0.37018 0.465 0.38417 0.0
C217 C 0.36847 0.5036 0.42276 0.0
C218 C 0.31263 0.46643 0.43598 0.0
C219 C 0.36283 0.45431 0.40174 0.0
O220 O 0.35437 0.48915 0.43038 0.0
O221 O 0.37434 0.50532 0.40139 0.0
O222 O 0.31845 0.44815 0.39063 0.0
O223 O 0.34124 0.47461 0.3816 0.0
Co224 Co 0.87033 0.33318 0.91384 0.0
O225 O 0.84491 0.31575 0.91646 0.0
O226 O 0.8654 0.31897 0.94299 0.0
C227 C 0.87276 0.32749 0.87493 0.0
O228 O 0.89803 0.34909 0.91614 0.0
Co229 Co 0.88314 0.36543 0.87837 0.0
O230 O 0.90748 0.36953 0.88638 0.0
C231 C 0.86547 0.36566 0.92335 0.0
C232 C 0.84858 0.31034 0.93615 0.0
C233 C 0.91072 0.362 0.90383 0.0
O234 O 0.86666 0.35206 0.93111 0.0
O235 O 0.86955 0.37163 0.902 0.0
O236 O 0.87338 0.31713 0.89144 0.0
O237 O 0.86919 0.33962 0.88237 0.0
Co238 Co 0.53822 0.86584 0.41455 0.0
O239 O 0.52829 0.84023 0.41906 0.0
O240 O 0.54712 0.861 0.44412 0.0
C241 C 0.54552 0.86574 0.37577 0.0
O242 O 0.55199 0.8937 0.41496 0.0
Co243 Co 0.5213 0.88012 0.37729 0.0
O244 O 0.54421 0.90315 0.38191 0.0
C245 C 0.50254 0.86487 0.42303 0.0
C246 C 0.53764 0.84396 0.43852 0.0
C247 C 0.55422 0.90628 0.40019 0.0
O248 O 0.51651 0.86457 0.43135 0.0
O249 O 0.50148 0.86915 0.40146 0.0
O250 O 0.5564 0.86642 0.39244 0.0
O251 O 0.53043 0.86394 0.38307 0.0
Co252 Co 0.47042 0.33202 0.08659 0.0
O253 O 0.4799 0.31585 0.08265 0.0
O254 O 0.46037 0.31721 0.05814 0.0
C255 C 0.46393 0.32651 0.12594 0.0
O256 O 0.45722 0.34664 0.08548 0.0
Co257 Co 0.48971 0.36486 0.12119 0.0
O258 O 0.4688 0.36809 0.11396 0.0
C259 C 0.50673 0.36503 0.07548 0.0
C260 C 0.46998 0.30977 0.06369 0.0
C261 C 0.45741 0.35969 0.0974 0.0
O262 O 0.49178 0.35146 0.06807 0.0
O263 O 0.50909 0.37091 0.09691 0.0
O264 O 0.45268 0.31559 0.11008 0.0
O265 O 0.47904 0.33911 0.11759 0.0
Co266 Co 0.14175 0.46743 0.58198 0.0
O267 O 0.16727 0.47602 0.57932 0.0
O268 O 0.14697 0.45793 0.55322 0.0
C269 C 0.13947 0.45978 0.62106 0.0
O270 O 0.114 0.4552 0.57986 0.0
Co271 Co 0.12903 0.48735 0.61685 0.0
O272 O 0.10469 0.46723 0.60851 0.0
C273 C 0.14643 0.50456 0.57161 0.0
C274 C 0.16384 0.4667 0.55988 0.0
C275 C 0.10138 0.45595 0.59168 0.0
O276 O 0.14485 0.48954 0.56413 0.0
O277 O 0.14286 0.50691 0.59301 0.0
O278 O 0.13913 0.44875 0.60484 0.0
O279 O 0.14284 0.47532 0.61326 0.0
Co280 Co 0.67855 0.14238 0.08693 0.0
O281 O 0.69565 0.1677 0.0825 0.0
O282 O 0.69228 0.14629 0.05753 0.0
C283 C 0.68517 0.1418 0.12594 0.0
O284 O 0.66283 0.11462 0.08664 0.0
Co285 Co 0.64715 0.13062 0.12355 0.0
O286 O 0.64446 0.10641 0.1186 0.0
C287 C 0.64553 0.14623 0.07733 0.0
C288 C 0.70084 0.16337 0.06315 0.0
C289 C 0.65119 0.10246 0.10087 0.0
O290 O 0.65912 0.14504 0.0695 0.0
O291 O 0.64004 0.14288 0.09895 0.0
O292 O 0.69515 0.14039 0.10956 0.0
O293 O 0.67277 0.14485 0.11819 0.0
Co294 Co 0.53673 0.6727 0.58588 0.0
O295 O 0.52735 0.68896 0.5828 0.0
O296 O 0.54577 0.68718 0.55686 0.0
C297 C 0.54436 0.67886 0.62487 0.0
O298 O 0.54977 0.6579 0.58411 0.0
Co299 Co 0.51843 0.64053 0.62171 0.0
O300 O 0.53994 0.63828 0.61481 0.0
C301 C 0.50026 0.63915 0.57638 0.0
C302 C 0.5366 0.69491 0.56332 0.0
C303 C 0.5505 0.64578 0.59717 0.0
O304 O 0.51475 0.65306 0.56849 0.0
O305 O 0.49863 0.63338 0.59781 0.0
O306 O 0.55523 0.68945 0.60846 0.0
O307 O 0.52904 0.66615 0.61724 0.0
Co308 Co 0.8682 0.53692 0.08431 0.0
O309 O 0.84244 0.52726 0.08153 0.0
O310 O 0.86241 0.54525 0.05498 0.0
C311 C 0.8699 0.54513 0.1231 0.0
O312 O 0.89599 0.55049 0.08193 0.0
Co313 Co 0.88401 0.52071 0.12041 0.0
O314 O 0.90662 0.54388 0.11486 0.0
C315 C 0.86785 0.50148 0.07518 0.0
C316 C 0.84561 0.53622 0.06178 0.0
C317 C 0.90905 0.55331 0.09617 0.0
O318 O 0.86625 0.51489 0.06752 0.0
O319 O 0.87333 0.50087 0.09622 0.0
O320 O 0.86978 0.5556 0.10637 0.0
O321 O 0.86765 0.52983 0.11594 0.0
Co322 Co 0.33191 0.86425 0.58321 0.0
O323 O 0.31487 0.83873 0.58043 0.0
O324 O 0.3176 0.85916 0.55412 0.0
C325 C 0.32604 0.8662 0.62217 0.0
O326 O 0.34735 0.892 0.58103 0.0
Co327 Co 0.36416 0.87768 0.61884 0.0
O328 O 0.3681 0.90189 0.61047 0.0
C329 C 0.36502 0.86045 0.57366 0.0
C330 C 0.30925 0.84231 0.56083 0.0
C331 C 0.36029 0.90486 0.59311 0.0
O332 O 0.3511 0.86109 0.5659 0.0
O333 O 0.37094 0.86471 0.595 0.0
O334 O 0.31561 0.86679 0.60574 0.0
O335 O 0.33843 0.86309 0.61459 0.0
H336 H 0.34912 0.48162 0.15879 0.0
H337 H 0.34638 0.4741 0.2009 0.0
H338 H 0.29958 0.4222 0.18637 0.0
H339 H 0.3022 0.42976 0.14364 0.0
H340 H 0.29487 0.43926 0.22565 0.0
H341 H 0.33801 0.42348 0.1999 0.0
H342 H 0.36487 0.42739 0.17836 0.0
H343 H 0.39885 0.47408 0.22074 0.0
H344 H 0.37218 0.47068 0.24226 0.0
H345 H 0.30315 0.42792 0.35209 0.0
H346 H 0.30029 0.4212 0.30915 0.0
H347 H 0.34771 0.4729 0.29576 0.0
H348 H 0.35069 0.47957 0.33818 0.0
H349 H 0.34845 0.44673 0.26998 0.0
H350 H 0.30459 0.46588 0.28844 0.0
H351 H 0.27775 0.46296 0.30905 0.0
H352 H 0.24526 0.40974 0.27994 0.0
H353 H 0.27198 0.41228 0.25938 0.0
C354 C 0.33826 0.46854 0.16441 0.0
C355 C 0.32594 0.45623 0.14782 0.0
C356 C 0.33675 0.46424 0.18855 0.0
C357 C 0.32296 0.44747 0.19676 0.0
C358 C 0.3104 0.43517 0.18036 0.0
C359 C 0.31193 0.43948 0.15601 0.0
C360 C 0.32179 0.44332 0.22263 0.0
C361 C 0.3064 0.4404 0.23532 0.0
C362 C 0.33686 0.44491 0.23527 0.0
C363 C 0.35304 0.44684 0.22267 0.0
C364 C 0.35119 0.43464 0.20457 0.0
C365 C 0.36639 0.43676 0.19235 0.0
C366 C 0.38355 0.45097 0.19818 0.0
C367 C 0.38555 0.46306 0.21627 0.0
C368 C 0.37039 0.46103 0.22851 0.0
C369 C 0.313 0.43777 0.33994 0.0
C370 C 0.32711 0.4543 0.34852 0.0
C371 C 0.31133 0.43393 0.31544 0.0
C372 C 0.32375 0.44659 0.29921 0.0
C373 C 0.33802 0.46289 0.30791 0.0
C374 C 0.33966 0.46671 0.33222 0.0
C375 C 0.32188 0.4435 0.27302 0.0
C376 C 0.33672 0.44505 0.26028 0.0
C377 C 0.30631 0.44064 0.26037 0.0
C378 C 0.2903 0.43917 0.27265 0.0
C379 C 0.29174 0.4535 0.2866 0.0
C380 C 0.27655 0.45193 0.29823 0.0
C381 C 0.25982 0.43615 0.29587 0.0
C382 C 0.25823 0.42194 0.2818 0.0
C383 C 0.27339 0.42344 0.27015 0.0
H384 H 0.24808 0.43496 0.3049 0.0
H385 H 0.3953 0.4526 0.18868 0.0
H386 H 0.87335 0.29965 0.64523 0.0
H387 H 0.87755 0.29718 0.68816 0.0
H388 H 0.87888 0.34768 0.70016 0.0
H389 H 0.87465 0.35018 0.65768 0.0
H390 H 0.90532 0.34558 0.72538 0.0
H391 H 0.84086 0.30818 0.70996 0.0
H392 H 0.81423 0.28306 0.69059 0.0
H393 H 0.8286 0.24527 0.71903 0.0
H394 H 0.85547 0.27023 0.73832 0.0
H395 H 0.87667 0.35078 0.83949 0.0
H396 H 0.88026 0.34784 0.79702 0.0
H397 H 0.87919 0.29749 0.80938 0.0
H398 H 0.87559 0.30039 0.85242 0.0
H399 H 0.85671 0.29558 0.77204 0.0
H400 H 0.91799 0.33273 0.794 0.0
H401 H 0.94397 0.35792 0.81425 0.0
H402 H 0.93594 0.39609 0.774 0.0
H403 H 0.90971 0.37113 0.75379 0.0
C404 C 0.87465 0.31025 0.65705 0.0
C405 C 0.87361 0.32507 0.64808 0.0
C406 C 0.87702 0.30881 0.68154 0.0
C407 C 0.87848 0.32223 0.69738 0.0
C408 C 0.87787 0.33721 0.68829 0.0
C409 C 0.87536 0.33857 0.66397 0.0
C410 C 0.87997 0.32062 0.72355 0.0
C411 C 0.89471 0.33464 0.7356 0.0
C412 C 0.86643 0.30605 0.73684 0.0
C413 C 0.85028 0.29107 0.7253 0.0
C414 C 0.83842 0.29453 0.7119 0.0
C415 C 0.82328 0.28032 0.70098 0.0
C416 C 0.81977 0.26259 0.70351 0.0
C417 C 0.83137 0.25902 0.71704 0.0
C418 C 0.84655 0.27318 0.72797 0.0
C419 C 0.87735 0.33913 0.83331 0.0
C420 C 0.87589 0.32583 0.84935 0.0
C421 C 0.87947 0.3375 0.80897 0.0
C422 C 0.88019 0.32255 0.80002 0.0
C423 C 0.87875 0.30919 0.81594 0.0
C424 C 0.87677 0.31089 0.84048 0.0
C425 C 0.88176 0.32087 0.77389 0.0
C426 C 0.86759 0.30627 0.76184 0.0
C427 C 0.89586 0.3349 0.76058 0.0
C428 C 0.9118 0.35002 0.77244 0.0
C429 C 0.92169 0.34649 0.78956 0.0
C430 C 0.93647 0.36074 0.80103 0.0
C431 C 0.94159 0.37859 0.79543 0.0
C432 C 0.93196 0.38224 0.77831 0.0
C433 C 0.91714 0.36805 0.76681 0.0
H434 H 0.95303 0.3896 0.80434 0.0
H435 H 0.80803 0.25161 0.69504 0.0
H436 H 0.57802 0.8752 0.35406 0.0
H437 H 0.58394 0.87662 0.31089 0.0
H438 H 0.52816 0.86001 0.29673 0.0
H439 H 0.52225 0.85879 0.33929 0.0
H440 H 0.5408 0.84043 0.271 0.0
H441 H 0.55842 0.90236 0.29126 0.0
H442 H 0.57654 0.931 0.31294 0.0
H443 H 0.62518 0.93613 0.28314 0.0
H444 H 0.60733 0.90732 0.2616 0.0
H445 H 0.52412 0.86385 0.15996 0.0
H446 H 0.52982 0.86391 0.20247 0.0
H447 H 0.58482 0.87775 0.18804 0.0
H448 H 0.57914 0.87757 0.14494 0.0
H449 H 0.57931 0.89782 0.22776 0.0
H450 H 0.56042 0.83772 0.20224 0.0
H451 H 0.54152 0.80933 0.18042 0.0
H452 H 0.49496 0.80075 0.22019 0.0
H453 H 0.51352 0.82925 0.24199 0.0
C454 C 0.56708 0.87188 0.34167 0.0
C455 C 0.54968 0.86689 0.35003 0.0
C456 C 0.57047 0.87272 0.31708 0.0
C457 C 0.55646 0.86836 0.30066 0.0
C458 C 0.53914 0.86333 0.30909 0.0
C459 C 0.53581 0.86272 0.33346 0.0
C460 C 0.55943 0.86894 0.27457 0.0
C461 C 0.5493 0.85296 0.26155 0.0
C462 C 0.57088 0.88521 0.26231 0.0
C463 C 0.58157 0.90257 0.2751 0.0
C464 C 0.57299 0.9095 0.28952 0.0
C465 C 0.58321 0.92578 0.30175 0.0
C466 C 0.602 0.93535 0.29949 0.0
C467 C 0.61062 0.92868 0.28493 0.0
C468 C 0.60046 0.91238 0.27271 0.0
C469 C 0.53749 0.86701 0.16572 0.0
C470 C 0.55116 0.8706 0.14907 0.0
C471 C 0.54071 0.86702 0.19005 0.0
C472 C 0.55768 0.87069 0.19836 0.0
C473 C 0.57162 0.87486 0.18192 0.0
C474 C 0.56834 0.87469 0.15737 0.0
C475 C 0.56023 0.86939 0.22427 0.0
C476 C 0.57129 0.8852 0.23724 0.0
C477 C 0.5496 0.85295 0.23658 0.0
C478 C 0.53837 0.83569 0.22367 0.0
C479 C 0.54613 0.82985 0.20622 0.0
C480 C 0.53547 0.81373 0.19387 0.0
C481 C 0.51704 0.80326 0.1989 0.0
C482 C 0.50924 0.80888 0.21632 0.0
C483 C 0.51983 0.825 0.2287 0.0
H484 H 0.50882 0.79078 0.18931 0.0
H485 H 0.60989 0.94796 0.30896 0.0
H486 H 0.70892 0.5766 0.85615 0.0
H487 H 0.714 0.58215 0.813 0.0
H488 H 0.66516 0.5318 0.79894 0.0
H489 H 0.66009 0.5262 0.84146 0.0
H490 H 0.69395 0.5348 0.77417 0.0
H491 H 0.66678 0.5718 0.79175 0.0
H492 H 0.66546 0.59674 0.81191 0.0
H493 H 0.71703 0.63486 0.78234 0.0
H494 H 0.71875 0.61008 0.76222 0.0
H495 H 0.66112 0.52806 0.66084 0.0
H496 H 0.66578 0.53331 0.70345 0.0
H497 H 0.71611 0.58241 0.69052 0.0
H498 H 0.7114 0.57729 0.64721 0.0
H499 H 0.69468 0.58496 0.72866 0.0
H500 H 0.71943 0.548 0.7062 0.0
H501 H 0.72011 0.52285 0.68564 0.0
H502 H 0.67328 0.48461 0.72473 0.0
H503 H 0.67215 0.50953 0.74527 0.0
C504 C 0.69921 0.56685 0.84379 0.0
C505 C 0.68416 0.55092 0.85222 0.0
C506 C 0.70211 0.57003 0.81919 0.0
C507 C 0.68999 0.55733 0.80275 0.0
C508 C 0.67476 0.54172 0.81126 0.0
C509 C 0.67186 0.53857 0.83564 0.0
C510 C 0.69317 0.55954 0.77663 0.0
C511 C 0.69412 0.54578 0.76425 0.0
C512 C 0.69408 0.57422 0.76372 0.0
C513 C 0.693 0.58908 0.77575 0.0
C514 C 0.67791 0.58548 0.78973 0.0
C515 C 0.67707 0.5996 0.80111 0.0
C516 C 0.69118 0.61737 0.79849 0.0
C517 C 0.70613 0.62108 0.7844 0.0
C518 C 0.70704 0.60701 0.773 0.0
C519 C 0.67314 0.54009 0.66691 0.0
C520 C 0.68598 0.55218 0.65061 0.0
C521 C 0.67579 0.54306 0.69134 0.0
C522 C 0.69142 0.5581 0.70017 0.0
C523 C 0.70399 0.57068 0.68404 0.0
C524 C 0.70131 0.56771 0.65936 0.0
C525 C 0.69465 0.55978 0.7263 0.0
C526 C 0.69496 0.57423 0.73864 0.0
C527 C 0.69493 0.54574 0.73931 0.0
C528 C 0.69567 0.53066 0.72721 0.0
C529 C 0.70922 0.53423 0.71032 0.0
C530 C 0.70969 0.52001 0.69867 0.0
C531 C 0.69674 0.50214 0.70386 0.0
C532 C 0.68331 0.49846 0.72074 0.0
C533 C 0.68277 0.51263 0.73242 0.0
H534 H 0.69712 0.49115 0.69481 0.0
H535 H 0.6905 0.62828 0.8073 0.0
H536 H 0.1314 0.70383 0.3526 0.0
H537 H 0.13074 0.70865 0.30938 0.0
H538 H 0.14239 0.66584 0.29577 0.0
H539 H 0.14294 0.66091 0.33836 0.0
H540 H 0.16465 0.69713 0.27068 0.0
H541 H 0.10098 0.65834 0.28861 0.0
H542 H 0.07246 0.65065 0.30898 0.0
H543 H 0.07411 0.69776 0.27922 0.0
H544 H 0.10282 0.70587 0.25895 0.0
H545 H 0.1407 0.65989 0.15832 0.0
H546 H 0.13995 0.66489 0.20088 0.0
H547 H 0.13275 0.71048 0.1867 0.0
H548 H 0.1336 0.70561 0.14353 0.0
H549 H 0.10995 0.68552 0.22543 0.0
H550 H 0.17176 0.72141 0.20238 0.0
H551 H 0.1998 0.72786 0.18164 0.0
H552 H 0.20151 0.6857 0.22112 0.0
H553 H 0.17332 0.67879 0.24185 0.0
C554 C 0.13374 0.69543 0.34032 0.0
C555 C 0.13726 0.68202 0.34888 0.0
C556 C 0.13333 0.69818 0.31569 0.0
C557 C 0.13658 0.68763 0.29939 0.0
C558 C 0.13995 0.6742 0.30801 0.0
C559 C 0.1402 0.67136 0.33242 0.0
C560 C 0.13685 0.69046 0.27326 0.0
C561 C 0.15271 0.69467 0.2608 0.0
C562 C 0.12142 0.68774 0.26042 0.0
C563 C 0.10417 0.68285 0.27255 0.0
C564 C 0.09536 0.66715 0.28661 0.0
C565 C 0.07914 0.6627 0.2981 0.0
C566 C 0.07151 0.67375 0.29547 0.0
C567 C 0.08006 0.68924 0.28129 0.0
C568 C 0.0963 0.69377 0.2698 0.0
C569 C 0.13883 0.67094 0.16412 0.0
C570 C 0.13734 0.68245 0.14752 0.0
C571 C 0.13842 0.67377 0.1885 0.0
C572 C 0.13647 0.68814 0.19692 0.0
C573 C 0.1343 0.69933 0.18051 0.0
C574 C 0.13484 0.69657 0.15591 0.0
C575 C 0.13758 0.6916 0.22294 0.0
C576 C 0.12204 0.68854 0.23535 0.0
C577 C 0.1533 0.69533 0.23585 0.0
C578 C 0.17036 0.69953 0.22358 0.0
C579 C 0.17805 0.71343 0.20653 0.0
C580 C 0.19398 0.71718 0.19478 0.0
C581 C 0.20242 0.70718 0.20003 0.0
C582 C 0.19496 0.69343 0.21707 0.0
C583 C 0.17902 0.68961 0.22885 0.0
H584 H 0.21475 0.71011 0.19092 0.0
H585 H 0.05894 0.67027 0.30437 0.0
H586 H 0.43322 0.13399 0.85736 0.0
H587 H 0.42794 0.13246 0.81406 0.0
H588 H 0.48203 0.14258 0.80168 0.0
H589 H 0.48735 0.14408 0.84444 0.0
H590 H 0.47399 0.1641 0.77432 0.0
H591 H 0.44685 0.10107 0.7964 0.0
H592 H 0.42547 0.07367 0.81848 0.0
H593 H 0.3808 0.07611 0.78745 0.0
H594 H 0.40194 0.10374 0.76549 0.0
H595 H 0.48348 0.13655 0.66225 0.0
H596 H 0.47883 0.13664 0.70501 0.0
H597 H 0.42649 0.13113 0.69283 0.0
H598 H 0.43108 0.13107 0.64947 0.0
H599 H 0.42851 0.10892 0.73211 0.0
H600 H 0.4567 0.1704 0.70596 0.0
H601 H 0.4789 0.19727 0.68369 0.0
H602 H 0.52222 0.19737 0.72262 0.0
H603 H 0.5003 0.17032 0.74487 0.0
C604 C 0.44394 0.13586 0.84534 0.0
C605 C 0.46071 0.13918 0.85429 0.0
C606 C 0.44089 0.13494 0.82066 0.0
C607 C 0.45461 0.13742 0.80466 0.0
C608 C 0.47129 0.14071 0.81367 0.0
C609 C 0.47428 0.1415 0.83816 0.0
C610 C 0.452 0.13684 0.77845 0.0
C611 C 0.46402 0.15204 0.76512 0.0
C612 C 0.43868 0.12126 0.76646 0.0
C613 C 0.42598 0.10461 0.77955 0.0
C614 C 0.43247 0.09587 0.79446 0.0
C615 C 0.4204 0.08028 0.80693 0.0
C616 C 0.40179 0.07318 0.80442 0.0
C617 C 0.39522 0.08165 0.78941 0.0
C618 C 0.40724 0.09728 0.77695 0.0
C619 C 0.47088 0.1352 0.66854 0.0
C620 C 0.4577 0.13395 0.65244 0.0
C621 C 0.46826 0.13525 0.69304 0.0
C622 C 0.45241 0.13408 0.70207 0.0
C623 C 0.43882 0.13208 0.68617 0.0
C624 C 0.44149 0.1321 0.66146 0.0
C625 C 0.45086 0.13601 0.72811 0.0
C626 C 0.43814 0.12112 0.74137 0.0
C627 C 0.4636 0.15185 0.74015 0.0
C628 C 0.47684 0.16826 0.727 0.0
C629 C 0.47097 0.17607 0.70966 0.0
C630 C 0.4835 0.19135 0.69706 0.0
C631 C 0.50196 0.19901 0.70171 0.0
C632 C 0.50792 0.19142 0.71903 0.0
C633 C 0.49544 0.17613 0.73167 0.0
H634 H 0.51164 0.21083 0.69193 0.0
H635 H 0.39247 0.0611 0.81404 0.0
H636 H 0.5741 0.70619 0.64751 0.0
H637 H 0.5794 0.71029 0.69076 0.0
H638 H 0.52965 0.66042 0.70318 0.0
H639 H 0.52423 0.6564 0.66051 0.0
H640 H 0.53145 0.68735 0.72966 0.0
H641 H 0.57101 0.66373 0.70983 0.0
H642 H 0.59654 0.66413 0.68876 0.0
H643 H 0.63307 0.7158 0.71948 0.0
H644 H 0.6077 0.71582 0.74047 0.0
H645 H 0.52851 0.65801 0.84468 0.0
H646 H 0.53261 0.66106 0.80171 0.0
H647 H 0.58107 0.71264 0.81084 0.0
H648 H 0.57717 0.70952 0.8544 0.0
H649 H 0.5837 0.69132 0.7737 0.0
H650 H 0.54422 0.71312 0.79699 0.0
H651 H 0.51851 0.7122 0.81824 0.0
H652 H 0.4817 0.66385 0.78062 0.0
H653 H 0.5072 0.66432 0.7594 0.0
C654 C 0.56442 0.69606 0.65953 0.0
C655 C 0.54871 0.68103 0.65061 0.0
C656 C 0.56747 0.69839 0.68419 0.0
C657 C 0.55489 0.68567 0.70022 0.0
C658 C 0.53948 0.67047 0.6912 0.0
C659 C 0.53643 0.66817 0.66673 0.0
C660 C 0.55701 0.68825 0.72645 0.0
C661 C 0.54286 0.68815 0.73926 0.0
C662 C 0.57219 0.68997 0.73895 0.0
C663 C 0.58743 0.68988 0.72648 0.0
C664 C 0.58447 0.67525 0.71193 0.0
C665 C 0.59891 0.67538 0.70003 0.0
C666 C 0.61641 0.69001 0.70272 0.0
C667 C 0.6195 0.7045 0.71738 0.0
C668 C 0.6051 0.70444 0.72928 0.0
C669 C 0.54017 0.66995 0.83767 0.0
C670 C 0.55242 0.68362 0.85295 0.0
C671 C 0.54248 0.67167 0.81305 0.0
C672 C 0.55695 0.68722 0.80306 0.0
C673 C 0.56975 0.70057 0.81821 0.0
C674 C 0.56749 0.69879 0.84304 0.0
C675 C 0.55779 0.68967 0.7768 0.0
C676 C 0.57246 0.69083 0.76403 0.0
C677 C 0.54307 0.68892 0.76419 0.0
C678 C 0.52765 0.68872 0.77669 0.0
C679 C 0.53065 0.70224 0.79334 0.0
C680 C 0.51611 0.7018 0.80537 0.0
C681 C 0.49849 0.68797 0.8008 0.0
C682 C 0.49536 0.67456 0.78414 0.0
C683 C 0.50985 0.67492 0.77208 0.0
H684 H 0.48725 0.68764 0.81014 0.0
H685 H 0.62757 0.69009 0.69349 0.0
H686 H 0.86883 0.52449 0.33832 0.0
H687 H 0.87345 0.53191 0.29619 0.0
H688 H 0.87864 0.58387 0.31061 0.0
H689 H 0.87389 0.57642 0.35339 0.0
H690 H 0.85634 0.56624 0.27144 0.0
H691 H 0.91563 0.58286 0.29662 0.0
H692 H 0.93884 0.57932 0.31813 0.0
H693 H 0.9262 0.53236 0.27635 0.0
H694 H 0.90269 0.53542 0.25487 0.0
H695 H 0.87453 0.5762 0.14455 0.0
H696 H 0.87859 0.58345 0.18736 0.0
H697 H 0.87601 0.53261 0.20169 0.0
H698 H 0.8722 0.52546 0.15944 0.0
H699 H 0.90253 0.55909 0.22688 0.0
H700 H 0.83919 0.5389 0.20918 0.0
H701 H 0.81481 0.54115 0.18875 0.0
H702 H 0.83503 0.59457 0.2169 0.0
H703 H 0.85967 0.5927 0.23728 0.0
C704 C 0.87104 0.53756 0.33268 0.0
C705 C 0.87109 0.54992 0.34926 0.0
C706 C 0.87375 0.54181 0.30852 0.0
C707 C 0.87666 0.55855 0.30026 0.0
C708 C 0.87653 0.57092 0.31665 0.0
C709 C 0.87387 0.56667 0.34104 0.0
C710 C 0.87943 0.56257 0.27433 0.0
C711 C 0.86674 0.56518 0.2617 0.0
C712 C 0.89293 0.56106 0.26162 0.0
C713 C 0.90734 0.55936 0.27415 0.0
C714 C 0.91774 0.57173 0.29208 0.0
C715 C 0.93095 0.5698 0.30428 0.0
C716 C 0.93399 0.55562 0.29862 0.0
C717 C 0.92384 0.54336 0.2807 0.0
C718 C 0.91059 0.5452 0.26847 0.0
C719 C 0.87494 0.56667 0.15688 0.0
C720 C 0.87299 0.55024 0.14861 0.0
C721 C 0.87722 0.57079 0.18132 0.0
C722 C 0.87752 0.55853 0.19779 0.0
C723 C 0.87591 0.54233 0.18938 0.0
C724 C 0.87365 0.53823 0.16515 0.0
C725 C 0.87893 0.56192 0.22393 0.0
C726 C 0.89246 0.56071 0.23662 0.0
C727 C 0.8662 0.56469 0.23665 0.0
C728 C 0.85138 0.56576 0.22448 0.0
C729 C 0.83851 0.55118 0.21085 0.0
C730 C 0.82464 0.55237 0.19932 0.0
C731 C 0.82341 0.56802 0.20146 0.0
C732 C 0.83602 0.58248 0.21521 0.0
C733 C 0.84994 0.58136 0.22676 0.0
H734 H 0.81266 0.56892 0.19251 0.0
H735 H 0.9442 0.55414 0.3081 0.0
H736 H 0.29967 0.87034 0.64476 0.0
H737 H 0.29546 0.87131 0.68805 0.0
H738 H 0.34338 0.86771 0.70058 0.0
H739 H 0.34756 0.86664 0.65791 0.0
H740 H 0.31499 0.84308 0.72642 0.0
H741 H 0.34389 0.9071 0.70861 0.0
H742 H 0.3464 0.93375 0.68807 0.0
H743 H 0.2952 0.92231 0.71693 0.0
H744 H 0.29235 0.89546 0.73752 0.0
H745 H 0.34845 0.86968 0.8399 0.0
H746 H 0.34396 0.87019 0.79718 0.0
H747 H 0.29374 0.86936 0.80952 0.0
H748 H 0.29824 0.86898 0.85286 0.0
H749 H 0.31594 0.89351 0.77149 0.0
H750 H 0.29011 0.83154 0.79453 0.0
H751 H 0.28927 0.80571 0.81534 0.0
H752 H 0.33582 0.81366 0.7761 0.0
H753 H 0.33711 0.83971 0.75531 0.0
C754 C 0.30936 0.86993 0.65681 0.0
C755 C 0.32388 0.86831 0.64793 0.0
C756 C 0.30696 0.8705 0.68149 0.0
C757 C 0.31907 0.86949 0.69754 0.0
C758 C 0.33379 0.86836 0.68857 0.0
C759 C 0.33618 0.8678 0.6641 0.0
C760 C 0.31637 0.86888 0.72374 0.0
C761 C 0.31519 0.85411 0.73625 0.0
C762 C 0.31605 0.88299 0.73653 0.0
C763 C 0.3178 0.89917 0.72434 0.0
C764 C 0.3331 0.91019 0.71042 0.0
C765 C 0.3346 0.92535 0.6988 0.0
C766 C 0.32092 0.92968 0.70108 0.0
C767 C 0.30576 0.91891 0.71512 0.0
C768 C 0.30421 0.90374 0.72679 0.0
C769 C 0.33649 0.86975 0.83366 0.0
C770 C 0.32361 0.86912 0.84979 0.0
C771 C 0.33394 0.87003 0.80918 0.0
C772 C 0.31841 0.86956 0.80018 0.0
C773 C 0.3058 0.86967 0.81615 0.0
C774 C 0.30836 0.86939 0.84084 0.0
C775 C 0.31526 0.86802 0.77407 0.0
C776 C 0.31529 0.88229 0.7616 0.0
C777 C 0.31461 0.85347 0.76119 0.0
C778 C 0.31374 0.83764 0.77343 0.0
C779 C 0.30023 0.82785 0.79043 0.0
C780 C 0.29967 0.81316 0.80222 0.0
C781 C 0.3125 0.80806 0.79706 0.0
C782 C 0.32589 0.81762 0.78007 0.0
C783 C 0.32652 0.83233 0.76825 0.0
H784 H 0.31205 0.79669 0.80621 0.0
H785 H 0.3221 0.94142 0.69204 0.0
H786 H 0.48647 0.34728 0.34432 0.0
H787 H 0.48034 0.34516 0.30174 0.0
H788 H 0.42897 0.29687 0.31308 0.0
H789 H 0.43507 0.29891 0.35618 0.0
H790 H 0.44837 0.29382 0.27509 0.0
H791 H 0.42897 0.33448 0.30012 0.0
H792 H 0.43108 0.36061 0.32168 0.0
H793 H 0.47798 0.39652 0.28086 0.0
H794 H 0.47636 0.3706 0.25934 0.0
H795 H 0.43418 0.30014 0.14955 0.0
H796 H 0.42872 0.29759 0.19277 0.0
H797 H 0.47928 0.34694 0.20361 0.0
H798 H 0.48473 0.3496 0.16082 0.0
H799 H 0.45304 0.34628 0.23088 0.0
H800 H 0.47548 0.30556 0.2118 0.0
H801 H 0.47464 0.27964 0.19123 0.0
H802 H 0.42243 0.24409 0.22133 0.0
H803 H 0.42288 0.26986 0.24184 0.0
C804 C 0.47381 0.33623 0.33787 0.0
C805 C 0.46121 0.3233 0.35366 0.0
C806 C 0.4703 0.33507 0.31348 0.0
C807 C 0.45409 0.32099 0.30425 0.0
C808 C 0.44152 0.30789 0.31987 0.0
C809 C 0.445 0.3091 0.34445 0.0
C810 C 0.45076 0.32004 0.27817 0.0
C811 C 0.44893 0.30508 0.26543 0.0
C812 C 0.45171 0.33485 0.26556 0.0
C813 C 0.45258 0.35055 0.27818 0.0
C814 C 0.4398 0.34794 0.29583 0.0
C815 C 0.44091 0.36272 0.30804 0.0
C816 C 0.45466 0.38021 0.30266 0.0
C817 C 0.46732 0.38296 0.28501 0.0
C818 C 0.4663 0.36823 0.27277 0.0
C819 C 0.44405 0.31048 0.16119 0.0
C820 C 0.45991 0.32503 0.15178 0.0
C821 C 0.44094 0.30899 0.18585 0.0
C822 C 0.45365 0.32203 0.20146 0.0
C823 C 0.46925 0.33674 0.19196 0.0
C824 C 0.47238 0.3382 0.16744 0.0
C825 C 0.45125 0.32032 0.22776 0.0
C826 C 0.45202 0.33481 0.24054 0.0
C827 C 0.44936 0.30512 0.24039 0.0
C828 C 0.44911 0.28965 0.22808 0.0
C829 C 0.46376 0.29223 0.21386 0.0
C830 C 0.46337 0.27757 0.20224 0.0
C831 C 0.44846 0.26024 0.2049 0.0
C832 C 0.43394 0.25753 0.21924 0.0
C833 C 0.43426 0.27215 0.23086 0.0
H834 H 0.44819 0.2489 0.1959 0.0
H835 H 0.45551 0.39163 0.31215 0.0
H836 H 0.13585 0.47956 0.65623 0.0
H837 H 0.13236 0.47332 0.69882 0.0
H838 H 0.13236 0.42345 0.68694 0.0
H839 H 0.13593 0.42969 0.6439 0.0
H840 H 0.10658 0.44602 0.72528 0.0
H841 H 0.15467 0.4181 0.73626 0.0
H842 H 0.18056 0.41867 0.71589 0.0
H843 H 0.19595 0.47082 0.68654 0.0
H844 H 0.17031 0.47064 0.70697 0.0
H845 H 0.13788 0.43097 0.85126 0.0
H846 H 0.13347 0.42398 0.80837 0.0
H847 H 0.13446 0.47422 0.79539 0.0
H848 H 0.13882 0.48122 0.83769 0.0
H849 H 0.15535 0.4433 0.76983 0.0
H850 H 0.10437 0.46864 0.75334 0.0
H851 H 0.07947 0.4693 0.77464 0.0
H852 H 0.0704 0.4233 0.81619 0.0
H853 H 0.09502 0.42215 0.79487 0.0
C854 C 0.13499 0.46718 0.66258 0.0
C855 C 0.13625 0.45515 0.64669 0.0
C856 C 0.13291 0.4636 0.68697 0.0
C857 C 0.13219 0.44797 0.69612 0.0
C858 C 0.13302 0.43566 0.68028 0.0
C859 C 0.13501 0.43922 0.65572 0.0
C860 C 0.13131 0.44525 0.72236 0.0
C861 C 0.11722 0.44539 0.73503 0.0
C862 C 0.14489 0.44385 0.73507 0.0
C863 C 0.16043 0.44421 0.72286 0.0
C864 C 0.16361 0.42968 0.72547 0.0
C865 C 0.17824 0.42994 0.71393 0.0
C866 C 0.18985 0.44473 0.69984 0.0
C867 C 0.1869 0.45933 0.69736 0.0
C868 C 0.17231 0.45914 0.70889 0.0
C869 C 0.13705 0.44044 0.83921 0.0
C870 C 0.13861 0.4566 0.84787 0.0
C871 C 0.13458 0.43645 0.81476 0.0
C872 C 0.13339 0.44846 0.79874 0.0
C873 C 0.13501 0.46459 0.80744 0.0
C874 C 0.13758 0.46861 0.83169 0.0
C875 C 0.13096 0.44473 0.77274 0.0
C876 C 0.14442 0.44339 0.76011 0.0
C877 C 0.11681 0.44507 0.76004 0.0
C878 C 0.10164 0.44538 0.77256 0.0
C879 C 0.09698 0.45857 0.76688 0.0
C880 C 0.08293 0.45905 0.779 0.0
C881 C 0.07338 0.44637 0.79679 0.0
C882 C 0.07783 0.43314 0.80245 0.0
C883 C 0.09184 0.43258 0.79036 0.0
H884 H 0.06253 0.44679 0.80618 0.0
H885 H 0.20115 0.4449 0.69091 0.0
H886 H 0.70443 0.12796 0.35681 0.0
H887 H 0.70678 0.12425 0.3137 0.0
H888 H 0.66846 0.14218 0.30049 0.0
H889 H 0.66571 0.14536 0.34307 0.0
H890 H 0.66017 0.1137 0.27452 0.0
H891 H 0.71621 0.16977 0.29316 0.0
H892 H 0.74552 0.18735 0.31366 0.0
H893 H 0.76367 0.15291 0.2838 0.0
H894 H 0.73439 0.13502 0.26333 0.0
H895 H 0.66889 0.14917 0.16202 0.0
H896 H 0.67079 0.14494 0.20451 0.0
H897 H 0.70722 0.12472 0.19127 0.0
H898 H 0.70572 0.12941 0.14817 0.0
H899 H 0.71778 0.14741 0.22997 0.0
H900 H 0.66367 0.09538 0.20485 0.0
H901 H 0.63472 0.07876 0.18334 0.0
H902 H 0.61272 0.10523 0.22525 0.0
H903 H 0.64163 0.12226 0.24672 0.0
C904 C 0.69657 0.13112 0.34462 0.0
C905 C 0.68488 0.13694 0.35331 0.0
C906 C 0.69794 0.12903 0.32001 0.0
C907 C 0.68784 0.133 0.30377 0.0
C908 C 0.67629 0.13889 0.31258 0.0
C909 C 0.67479 0.14078 0.33699 0.0
C910 C 0.68897 0.13113 0.27752 0.0
C911 C 0.67278 0.1211 0.26481 0.0
C912 C 0.70548 0.14012 0.26478 0.0
C913 C 0.72307 0.15095 0.27696 0.0
C914 C 0.72642 0.16589 0.2911 0.0
C915 C 0.74303 0.17592 0.30269 0.0
C916 C 0.75643 0.17122 0.3001 0.0
C917 C 0.75327 0.15652 0.28584 0.0
C918 C 0.73668 0.14644 0.27423 0.0
C919 C 0.67733 0.14381 0.16804 0.0
C920 C 0.68703 0.13946 0.15171 0.0
C921 C 0.67835 0.14134 0.19239 0.0
C922 C 0.68882 0.13413 0.20108 0.0
C923 C 0.69894 0.13017 0.18493 0.0
C924 C 0.69805 0.13282 0.16036 0.0
C925 C 0.68887 0.1308 0.22709 0.0
C926 C 0.70522 0.1397 0.23971 0.0
C927 C 0.67249 0.12075 0.23982 0.0
C928 C 0.65487 0.11014 0.22738 0.0
C929 C 0.65268 0.0977 0.20944 0.0
C930 C 0.63628 0.08821 0.19723 0.0
C931 C 0.62189 0.09093 0.20293 0.0
C932 C 0.62387 0.10312 0.22088 0.0
C933 C 0.64026 0.11267 0.2331 0.0
H934 H 0.60922 0.0836 0.19343 0.0
H935 H 0.76927 0.17899 0.30909 0.0
H936 H 0.16138 0.446 0.97243 0.0
H937 H 0.18603 0.4448 0.99328 0.0
H938 H 0.22502 0.49033 0.95213 0.0
H939 H 0.20058 0.4912 0.93091 0.0
H940 H 0.23583 0.46736 0.95389 0.0
H941 H 0.21472 0.49325 0.01282 0.0
H942 H 0.19231 0.49471 0.03901 0.0
H943 H 0.18186 0.44552 0.0734 0.0
H944 H 0.20406 0.44365 0.04719 0.0
H945 H 0.29928 0.4914 0.06517 0.0
H946 H 0.27382 0.49035 0.04408 0.0
H947 H 0.26799 0.44542 0.00217 0.0
H948 H 0.29395 0.44678 0.0229 0.0
H949 H 0.24002 0.46692 0.04198 0.0
H950 H 0.24918 0.44472 0.94817 0.0
H951 H 0.27361 0.44742 0.92197 0.0
H952 H 0.31149 0.49646 0.95743 0.0
H953 H 0.28725 0.49416 0.98362 0.0
C954 C 0.17521 0.45581 0.96797 0.0
C955 C 0.17897 0.4687 0.95 0.0
C956 C 0.18934 0.45515 0.97993 0.0
C957 C 0.20754 0.46755 0.97447 0.0
C958 C 0.2112 0.48051 0.95668 0.0
C959 C 0.19715 0.48106 0.9446 0.0
C960 C 0.22285 0.4671 0.98693 0.0
C961 C 0.23666 0.46719 0.97317 0.0
C962 C 0.22424 0.46711 0.01211 0.0
C963 C 0.2109 0.46821 0.02788 0.0
C964 C 0.20754 0.48267 0.02585 0.0
C965 C 0.19489 0.48359 0.04071 0.0
C966 C 0.18562 0.47019 0.05781 0.0
C967 C 0.18902 0.45587 0.06012 0.0
C968 C 0.20164 0.45488 0.04528 0.0
C969 C 0.2927 0.48136 0.05133 0.0
C970 C 0.29876 0.46922 0.04568 0.0
C971 C 0.27801 0.4807 0.03934 0.0
C972 C 0.26887 0.46785 0.02138 0.0
C973 C 0.2749 0.45568 0.01566 0.0
C974 C 0.28976 0.45644 0.02755 0.0
C975 C 0.25305 0.46729 0.00894 0.0
C976 C 0.23911 0.46694 0.0227 0.0
C977 C 0.25179 0.46755 0.98377 0.0
C978 C 0.26644 0.46913 0.96802 0.0
C979 C 0.26272 0.45609 0.95033 0.0
C980 C 0.27653 0.45755 0.93548 0.0
C981 C 0.29411 0.47207 0.9381 0.0
C982 C 0.29789 0.48518 0.95549 0.0
C983 C 0.28413 0.48379 0.97036 0.0
H984 H 0.30478 0.47317 0.9266 0.0
H985 H 0.17584 0.47092 0.0693 0.0
H986 H 0.69769 0.18784 0.46468 0.0
H987 H 0.7233 0.21271 0.48523 0.0
H988 H 0.75534 0.18739 0.47182 0.0
H989 H 0.72906 0.16172 0.45323 0.0
H990 H 0.76596 0.20257 0.5105 0.0
H991 H 0.75716 0.22562 0.43725 0.0
H992 H 0.74055 0.23215 0.40654 0.0
H993 H 0.7301 0.26365 0.45693 0.0
H994 H 0.74647 0.25712 0.48802 0.0
H995 H 0.8496 0.28722 0.52812 0.0
H996 H 0.82473 0.26106 0.50779 0.0
H997 H 0.78627 0.27274 0.5411 0.0
H998 H 0.81086 0.2985 0.56174 0.0
H999 H 0.78073 0.26504 0.49064 0.0
H1000 H 0.79079 0.24055 0.5636 0.0
H1001 H 0.80957 0.23466 0.59148 0.0
H1002 H 0.82071 0.20669 0.53642 0.0
H1003 H 0.80217 0.21264 0.50812 0.0
C1004 C 0.71014 0.18749 0.46656 0.0
C1005 C 0.71141 0.17287 0.45751 0.0
C1006 C 0.72492 0.20187 0.47798 0.0
C1007 C 0.74169 0.20247 0.47946 0.0
C1008 C 0.74273 0.1875 0.47094 0.0
C1009 C 0.72769 0.17277 0.46031 0.0
C1010 C 0.75809 0.21871 0.48956 0.0
C1011 C 0.76925 0.21618 0.50574 0.0
C1012 C 0.76266 0.2367 0.4837 0.0
C1013 C 0.75291 0.24075 0.465 0.0
C1014 C 0.75124 0.23386 0.44181 0.0
C1015 C 0.74187 0.23757 0.42433 0.0
C1016 C 0.73424 0.24827 0.4298 0.0
C1017 C 0.73601 0.25534 0.45273 0.0
C1018 C 0.74535 0.25166 0.47027 0.0
C1019 C 0.83585 0.28426 0.53095 0.0
C1020 C 0.83222 0.29494 0.54658 0.0
C1021 C 0.82165 0.26927 0.51942 0.0
C1022 C 0.8036 0.26487 0.523 0.0
C1023 C 0.80005 0.27584 0.53805 0.0
C1024 C 0.81415 0.29056 0.54988 0.0
C1025 C 0.78828 0.24874 0.51145 0.0
C1026 C 0.77738 0.25136 0.49508 0.0
C1027 C 0.78426 0.2309 0.51661 0.0
C1028 C 0.79526 0.22721 0.53369 0.0
C1029 C 0.79736 0.23328 0.55739 0.0
C1030 C 0.80794 0.2299 0.57328 0.0
C1031 C 0.81637 0.22035 0.56571 0.0
C1032 C 0.81419 0.21411 0.54225 0.0
C1033 C 0.80364 0.21747 0.52629 0.0
H1034 H 0.82456 0.21775 0.57804 0.0
H1035 H 0.72698 0.25112 0.41625 0.0
H1036 H 0.51586 0.81288 0.05891 0.0
H1037 H 0.51811 0.78896 0.03834 0.0
H1038 H 0.56946 0.82849 0.00871 0.0
H1039 H 0.5668 0.85269 0.02856 0.0
H1040 H 0.5526 0.80435 0.97684 0.0
H1041 H 0.56515 0.80055 0.05869 0.0
H1042 H 0.55995 0.79863 0.1021 0.0
H1043 H 0.51088 0.74795 0.09323 0.0
H1044 H 0.51566 0.74969 0.04973 0.0
H1045 H 0.56286 0.7176 0.98002 0.0
H1046 H 0.56485 0.74408 0.00017 0.0
H1047 H 0.52629 0.74401 0.9505 0.0
H1048 H 0.52445 0.71792 0.93024 0.0
H1049 H 0.54144 0.75028 0.02323 0.0
H1050 H 0.53545 0.78634 0.93849 0.0
H1051 H 0.54421 0.78981 0.89609 0.0
H1052 H 0.5868 0.77874 0.91262 0.0
H1053 H 0.57847 0.77546 0.95513 0.0
C1054 C 0.52758 0.81653 0.04785 0.0
C1055 C 0.54121 0.83471 0.04548 0.0
C1056 C 0.52894 0.80277 0.03623 0.0
C1057 C 0.54421 0.80673 0.02244 0.0
C1058 C 0.55758 0.82498 0.01936 0.0
C1059 C 0.55605 0.83884 0.03068 0.0
C1060 C 0.54616 0.79179 0.01146 0.0
C1061 C 0.55017 0.79257 0.98705 0.0
C1062 C 0.54353 0.7765 0.02475 0.0
C1063 C 0.54071 0.77532 0.05093 0.0
C1064 C 0.5532 0.78905 0.06599 0.0
C1065 C 0.55034 0.78799 0.09061 0.0
C1066 C 0.53508 0.7732 0.10041 0.0
C1067 C 0.52269 0.75941 0.08561 0.0
C1068 C 0.52548 0.76041 0.06098 0.0
C1069 C 0.55481 0.72324 0.97344 0.0
C1070 C 0.54357 0.71565 0.95343 0.0
C1071 C 0.55594 0.73837 0.98499 0.0
C1072 C 0.54595 0.74631 0.97668 0.0
C1073 C 0.53445 0.73846 0.95702 0.0
C1074 C 0.53333 0.72342 0.9455 0.0
C1075 C 0.54729 0.76264 0.98852 0.0
C1076 C 0.54392 0.76211 0.01308 0.0
C1077 C 0.55099 0.77836 0.9755 0.0
C1078 C 0.55621 0.78049 0.94998 0.0
C1079 C 0.54673 0.78472 0.93309 0.0
C1080 C 0.55161 0.78664 0.90903 0.0
C1081 C 0.56601 0.78444 0.90166 0.0
C1082 C 0.5756 0.78037 0.91834 0.0
C1083 C 0.57079 0.77846 0.94241 0.0
H1084 H 0.56976 0.78592 0.88302 0.0
H1085 H 0.53288 0.77241 0.11947 0.0
H1086 H 0.70703 0.54821 0.51529 0.0
H1087 H 0.73225 0.54845 0.49361 0.0
H1088 H 0.74885 0.5333 0.55798 0.0
H1089 H 0.7235 0.53243 0.57943 0.0
H1090 H 0.77776 0.56494 0.52838 0.0
H1091 H 0.72968 0.50196 0.52499 0.0
H1092 H 0.69873 0.47785 0.51538 0.0
H1093 H 0.7068 0.49448 0.44206 0.0
H1094 H 0.73772 0.51888 0.45134 0.0
H1095 H 0.84366 0.54419 0.48441 0.0
H1096 H 0.81914 0.54513 0.50592 0.0
H1097 H 0.78917 0.53444 0.44021 0.0
H1098 H 0.81298 0.53231 0.41924 0.0
H1099 H 0.76657 0.51653 0.47061 0.0
H1100 H 0.81342 0.57845 0.47076 0.0
H1101 H 0.84381 0.60452 0.47786 0.0
H1102 H 0.8381 0.59322 0.55292 0.0
H1103 H 0.80776 0.56693 0.54623 0.0
C1104 C 0.71606 0.54493 0.52477 0.0
C1105 C 0.7132 0.54021 0.54904 0.0
C1106 C 0.73045 0.54508 0.51239 0.0
C1107 C 0.74246 0.54093 0.52422 0.0
C1108 C 0.7398 0.53659 0.54852 0.0
C1109 C 0.72523 0.536 0.56071 0.0
C1110 C 0.75757 0.54069 0.51128 0.0
C1111 C 0.7754 0.5543 0.51586 0.0
C1112 C 0.75444 0.5271 0.4945 0.0
C1113 C 0.73591 0.51237 0.48891 0.0
C1114 C 0.72478 0.50059 0.50687 0.0
C1115 C 0.70727 0.48685 0.50148 0.0
C1116 C 0.70078 0.48467 0.47814 0.0
C1117 C 0.71183 0.4962 0.46014 0.0
C1118 C 0.72935 0.50998 0.46545 0.0
C1119 C 0.83181 0.54204 0.47464 0.0
C1120 C 0.83027 0.53814 0.45014 0.0
C1121 C 0.81781 0.54273 0.4869 0.0
C1122 C 0.80222 0.54015 0.47476 0.0
C1123 C 0.80086 0.53639 0.45021 0.0
C1124 C 0.81457 0.53524 0.43815 0.0
C1125 C 0.78712 0.54094 0.48745 0.0
C1126 C 0.76917 0.52734 0.48294 0.0
C1127 C 0.79016 0.55484 0.50386 0.0
C1128 C 0.8084 0.57061 0.50796 0.0
C1129 C 0.8187 0.58145 0.48876 0.0
C1130 C 0.83591 0.59627 0.49271 0.0
C1131 C 0.8429 0.60049 0.51582 0.0
C1132 C 0.83268 0.58992 0.53503 0.0
C1133 C 0.81547 0.57506 0.53117 0.0
H1134 H 0.85622 0.61198 0.51884 0.0
H1135 H 0.68722 0.47402 0.474 0.0
H1136 H 0.29445 0.84725 0.9786 0.0
H1137 H 0.26937 0.82224 0.00014 0.0
H1138 H 0.26976 0.78435 0.94974 0.0
H1139 H 0.29483 0.80904 0.92858 0.0
H1140 H 0.23552 0.79786 0.98812 0.0
H1141 H 0.25849 0.74483 0.97631 0.0
H1142 H 0.28681 0.74391 0.97301 0.0
H1143 H 0.31522 0.79404 0.01119 0.0
H1144 H 0.28703 0.79513 0.015 0.0
H1145 H 0.16169 0.71033 0.01752 0.0
H1146 H 0.18681 0.73605 0.99714 0.0
H1147 H 0.22298 0.73986 0.05341 0.0
H1148 H 0.19823 0.71402 0.0733 0.0
H1149 H 0.23953 0.74446 0.01402 0.0
H1150 H 0.20549 0.76961 0.04797 0.0
H1151 H 0.17842 0.77215 0.05556 0.0
H1152 H 0.17427 0.78053 0.9809 0.0
H1153 H 0.2012 0.77781 0.97283 0.0
C1154 C 0.28926 0.83357 0.97224 0.0
C1155 C 0.29678 0.83018 0.95195 0.0
C1156 C 0.27484 0.81928 0.98449 0.0
C1157 C 0.26771 0.80131 0.97677 0.0
C1158 C 0.27514 0.79799 0.95638 0.0
C1159 C 0.28952 0.8122 0.94423 0.0
C1160 C 0.25254 0.78596 0.98986 0.0
C1161 C 0.23641 0.78619 0.99379 0.0
C1162 C 0.25368 0.77078 0.99768 0.0
C1163 C 0.27067 0.77014 0.99572 0.0
C1164 C 0.27076 0.75562 0.98408 0.0
C1165 C 0.2868 0.75508 0.98211 0.0
C1166 C 0.30282 0.76894 0.99181 0.0
C1167 C 0.30282 0.78334 0.00359 0.0
C1168 C 0.28682 0.78394 0.00564 0.0
C1169 C 0.17502 0.71661 0.02546 0.0
C1170 C 0.1779 0.71006 0.04706 0.0
C1171 C 0.18939 0.73143 0.01387 0.0
C1172 C 0.20688 0.74016 0.02381 0.0
C1173 C 0.20972 0.73344 0.04524 0.0
C1174 C 0.19547 0.71862 0.05667 0.0
C1175 C 0.22234 0.75619 0.01204 0.0
C1176 C 0.23856 0.75609 0.00832 0.0
C1177 C 0.22141 0.77165 0.00498 0.0
C1178 C 0.20525 0.77332 0.00978 0.0
C1179 C 0.19873 0.77186 0.03315 0.0
C1180 C 0.18342 0.77336 0.03755 0.0
C1181 C 0.1746 0.77645 0.01872 0.0
C1182 C 0.1811 0.77811 0.99546 0.0
C1183 C 0.19639 0.7766 0.99097 0.0
H1184 H 0.16275 0.77761 0.02215 0.0
H1185 H 0.31522 0.7685 0.99025 0.0
H1186 H 0.49259 0.19446 0.5662 0.0
H1187 H 0.49112 0.21892 0.54586 0.0
H1188 H 0.4412 0.18016 0.51216 0.0
H1189 H 0.44311 0.15547 0.53177 0.0
H1190 H 0.45933 0.20462 0.48164 0.0
H1191 H 0.44357 0.20749 0.56228 0.0
H1192 H 0.44696 0.20889 0.606 0.0
H1193 H 0.49644 0.25956 0.60015 0.0
H1194 H 0.49348 0.25835 0.55637 0.0
H1195 H 0.44915 0.29134 0.48144 0.0
H1196 H 0.44645 0.26484 0.50248 0.0
H1197 H 0.48704 0.26525 0.45642 0.0
H1198 H 0.48961 0.29134 0.43532 0.0
H1199 H 0.46889 0.25822 0.5278 0.0
H1200 H 0.47801 0.22302 0.44436 0.0
H1201 H 0.47091 0.22004 0.40141 0.0
H1202 H 0.42788 0.23115 0.41435 0.0
H1203 H 0.43454 0.23393 0.45739 0.0
C1204 C 0.48133 0.1911 0.55436 0.0
C1205 C 0.46791 0.17299 0.55071 0.0
C1206 C 0.48041 0.20517 0.54286 0.0
C1207 C 0.46579 0.20157 0.52786 0.0
C1208 C 0.45259 0.18341 0.52371 0.0
C1209 C 0.45368 0.16927 0.53492 0.0
C1210 C 0.46442 0.21675 0.5165 0.0
C1211 C 0.4614 0.21629 0.49182 0.0
C1212 C 0.46661 0.23191 0.52968 0.0
C1213 C 0.46836 0.23276 0.55603 0.0
C1214 C 0.45523 0.21888 0.57031 0.0
C1215 C 0.45707 0.21965 0.59511 0.0
C1216 C 0.47193 0.23429 0.60585 0.0
C1217 C 0.48495 0.24822 0.59181 0.0
C1218 C 0.48318 0.24752 0.567 0.0
C1219 C 0.45753 0.2858 0.47588 0.0
C1220 C 0.46952 0.29344 0.45658 0.0
C1221 C 0.45599 0.27064 0.48793 0.0
C1222 C 0.46631 0.26277 0.48083 0.0
C1223 C 0.47862 0.27074 0.46199 0.0
C1224 C 0.48014 0.28579 0.44998 0.0
C1225 C 0.46438 0.24627 0.49293 0.0
C1226 C 0.46676 0.24649 0.51771 0.0
C1227 C 0.46112 0.23068 0.47995 0.0
C1228 C 0.4569 0.22885 0.45409 0.0
C1229 C 0.46699 0.22475 0.43806 0.0
C1230 C 0.46304 0.22311 0.41369 0.0
C1231 C 0.44899 0.22546 0.40515 0.0
C1232 C 0.4388 0.2294 0.42097 0.0
C1233 C 0.44268 0.23103 0.44535 0.0
H1234 H 0.44596 0.22419 0.38628 0.0
H1235 H 0.47333 0.23485 0.62504 0.0
H1236 H 0.84328 0.54193 0.01394 0.0
H1237 H 0.81823 0.54225 0.99304 0.0
H1238 H 0.78994 0.5334 0.05986 0.0
H1239 H 0.81426 0.53175 0.08026 0.0
H1240 H 0.7665 0.51516 0.03078 0.0
H1241 H 0.81392 0.57679 0.02692 0.0
H1242 H 0.84428 0.60232 0.01801 0.0
H1243 H 0.83653 0.58864 0.94366 0.0
H1244 H 0.8062 0.56289 0.95217 0.0
H1245 H 0.70637 0.54593 0.98642 0.0
H1246 H 0.73174 0.54613 0.00757 0.0
H1247 H 0.7477 0.53094 0.94271 0.0
H1248 H 0.72222 0.53017 0.92175 0.0
H1249 H 0.77691 0.56197 0.97073 0.0
H1250 H 0.72814 0.49968 0.97779 0.0
H1251 H 0.69732 0.47624 0.98911 0.0
H1252 H 0.70773 0.49463 0.06166 0.0
H1253 H 0.73855 0.51838 0.05067 0.0
C1254 C 0.83168 0.54003 0.02408 0.0
C1255 C 0.83075 0.5368 0.04873 0.0
C1256 C 0.81737 0.54038 0.01217 0.0
C1257 C 0.80213 0.53822 0.02479 0.0
C1258 C 0.80135 0.53505 0.04949 0.0
C1259 C 0.81535 0.53416 0.06122 0.0
C1260 C 0.78683 0.53889 0.01247 0.0
C1261 C 0.76893 0.52563 0.01796 0.0
C1262 C 0.78964 0.55234 0.99541 0.0
C1263 C 0.80787 0.56781 0.99022 0.0
C1264 C 0.81875 0.57916 0.00869 0.0
C1265 C 0.83594 0.59368 0.00371 0.0
C1266 C 0.84235 0.59707 0.98029 0.0
C1267 C 0.83156 0.58598 0.96179 0.0
C1268 C 0.81436 0.57143 0.96668 0.0
C1269 C 0.71528 0.54262 0.97671 0.0
C1270 C 0.71221 0.53796 0.95244 0.0
C1271 C 0.72977 0.54274 0.9888 0.0
C1272 C 0.74164 0.53858 0.97669 0.0
C1273 C 0.73876 0.53424 0.95239 0.0
C1274 C 0.72411 0.53372 0.94048 0.0
C1275 C 0.75692 0.5384 0.98929 0.0
C1276 C 0.7747 0.55167 0.98375 0.0
C1277 C 0.75402 0.52529 0.00674 0.0
C1278 C 0.73557 0.51093 0.01335 0.0
C1279 C 0.7238 0.49884 0.99611 0.0
C1280 C 0.70634 0.48547 0.00247 0.0
C1281 C 0.70055 0.48398 0.02607 0.0
C1282 C 0.71222 0.49582 0.04337 0.0
C1283 C 0.72969 0.50923 0.03709 0.0
H1284 H 0.68703 0.47363 0.03096 0.0
H1285 H 0.85567 0.60832 0.97647 0.0
H1286 H 0.16092 0.70314 0.48422 0.0
H1287 H 0.18568 0.72848 0.5056 0.0
H1288 H 0.21734 0.74473 0.44098 0.0
H1289 H 0.19322 0.71894 0.42022 0.0
H1290 H 0.2388 0.74906 0.47299 0.0
H1291 H 0.19421 0.76712 0.46727 0.0
H1292 H 0.16434 0.76462 0.47198 0.0
H1293 H 0.16793 0.76103 0.54792 0.0
H1294 H 0.19774 0.76328 0.54364 0.0
H1295 H 0.30043 0.84105 0.51333 0.0
H1296 H 0.27475 0.81614 0.49225 0.0
H1297 H 0.25675 0.78625 0.55797 0.0
H1298 H 0.28256 0.81064 0.57886 0.0
H1299 H 0.22883 0.78982 0.52573 0.0
H1300 H 0.27461 0.77154 0.52825 0.0
H1301 H 0.30525 0.77659 0.52082 0.0
H1302 H 0.29961 0.78384 0.44621 0.0
H1303 H 0.26903 0.77911 0.45329 0.0
C1304 C 0.17319 0.71214 0.47466 0.0
C1305 C 0.1751 0.70898 0.45055 0.0
C1306 C 0.18734 0.72676 0.48684 0.0
C1307 C 0.20348 0.7389 0.47494 0.0
C1308 C 0.20522 0.73568 0.45079 0.0
C1309 C 0.19133 0.72088 0.43885 0.0
C1310 C 0.21873 0.75472 0.48748 0.0
C1311 C 0.23648 0.75804 0.48421 0.0
C1312 C 0.21604 0.76658 0.50246 0.0
C1313 C 0.19811 0.76517 0.50511 0.0
C1314 C 0.18857 0.76566 0.48496 0.0
C1315 C 0.17166 0.76431 0.48755 0.0
C1316 C 0.16422 0.76261 0.51023 0.0
C1317 C 0.1737 0.76231 0.53036 0.0
C1318 C 0.1906 0.76364 0.52787 0.0
C1319 C 0.29097 0.82918 0.52324 0.0
C1320 C 0.29358 0.82778 0.54773 0.0
C1321 C 0.27632 0.81497 0.51121 0.0
C1322 C 0.26382 0.79936 0.52358 0.0
C1323 C 0.26618 0.79817 0.5481 0.0
C1324 C 0.28101 0.8121 0.55997 0.0
C1325 C 0.24854 0.78396 0.51096 0.0
C1326 C 0.23091 0.78078 0.51432 0.0
C1327 C 0.25134 0.77249 0.49561 0.0
C1328 C 0.26965 0.7752 0.49135 0.0
C1329 C 0.27999 0.7744 0.51031 0.0
C1330 C 0.29732 0.77716 0.50615 0.0
C1331 C 0.3044 0.7806 0.48307 0.0
C1332 C 0.29413 0.78122 0.46408 0.0
C1333 C 0.2768 0.77849 0.46816 0.0
H1334 H 0.31782 0.78273 0.47988 0.0
H1335 H 0.15113 0.76157 0.5122 0.0
H1336 H 0.49646 0.19605 0.94641 0.0
H1337 H 0.49492 0.22027 0.96774 0.0
H1338 H 0.44216 0.18179 0.99438 0.0
H1339 H 0.44381 0.1573 0.97362 0.0
H1340 H 0.45356 0.22152 0.96514 0.0
H1341 H 0.46097 0.19045 0.03482 0.0
H1342 H 0.47681 0.17705 0.05587 0.0
H1343 H 0.52686 0.2272 0.05013 0.0
H1344 H 0.51132 0.24079 0.0287 0.0
H1345 H 0.44152 0.28282 0.03907 0.0
H1346 H 0.44026 0.25652 0.0197 0.0
H1347 H 0.49654 0.27716 0.03664 0.0
H1348 H 0.49731 0.3026 0.0575 0.0
H1349 H 0.48187 0.24464 0.04406 0.0
H1350 H 0.47772 0.277 0.97692 0.0
H1351 H 0.46558 0.29243 0.95232 0.0
H1352 H 0.41425 0.24349 0.94845 0.0
H1353 H 0.42603 0.22782 0.97326 0.0
C1354 C 0.48459 0.19268 0.95701 0.0
C1355 C 0.47028 0.17472 0.95839 0.0
C1356 C 0.48373 0.20655 0.96914 0.0
C1357 C 0.46843 0.20283 0.9826 0.0
C1358 C 0.45411 0.18493 0.98412 0.0
C1359 C 0.45512 0.17095 0.97236 0.0
C1360 C 0.46742 0.21782 0.99464 0.0
C1361 C 0.45944 0.22645 0.98259 0.0
C1362 C 0.47576 0.22466 0.01689 0.0
C1363 C 0.48503 0.21655 0.02993 0.0
C1364 C 0.47538 0.19855 0.03782 0.0
C1365 C 0.48429 0.19094 0.04988 0.0
C1366 C 0.50284 0.20125 0.05426 0.0
C1367 C 0.5125 0.21921 0.04668 0.0
C1368 C 0.50365 0.22688 0.0346 0.0
C1369 C 0.45363 0.28177 0.03843 0.0
C1370 C 0.46952 0.29479 0.04973 0.0
C1371 C 0.45296 0.26675 0.02722 0.0
C1372 C 0.46838 0.26477 0.02625 0.0
C1373 C 0.48436 0.2781 0.03714 0.0
C1374 C 0.48486 0.29277 0.04896 0.0
C1375 C 0.46787 0.24864 0.01469 0.0
C1376 C 0.47574 0.2398 0.02672 0.0
C1377 C 0.45982 0.24191 0.99206 0.0
C1378 C 0.4527 0.2513 0.97716 0.0
C1379 C 0.46381 0.26957 0.97096 0.0
C1380 C 0.457 0.27835 0.95696 0.0
C1381 C 0.43914 0.26896 0.94889 0.0
C1382 C 0.42807 0.25076 0.95475 0.0
C1383 C 0.43481 0.24191 0.96876 0.0
H1384 H 0.43389 0.27579 0.93805 0.0
H1385 H 0.50972 0.19533 0.0636 0.0
H1386 H 0.16216 0.44956 0.51735 0.0
H1387 H 0.18705 0.44863 0.49668 0.0
H1388 H 0.22369 0.48086 0.55258 0.0
H1389 H 0.19919 0.48219 0.57281 0.0
H1390 H 0.23965 0.49304 0.5126 0.0
H1391 H 0.20644 0.43394 0.5471 0.0
H1392 H 0.1796 0.40424 0.55503 0.0
H1393 H 0.17496 0.39152 0.48042 0.0
H1394 H 0.20165 0.42126 0.472 0.0
H1395 H 0.29623 0.44725 0.47692 0.0
H1396 H 0.27083 0.44644 0.49866 0.0
H1397 H 0.26899 0.48306 0.44734 0.0
H1398 H 0.29429 0.48411 0.4259 0.0
H1399 H 0.23616 0.43587 0.48679 0.0
H1400 H 0.25792 0.51143 0.47426 0.0
H1401 H 0.28594 0.54085 0.47022 0.0
H1402 H 0.31545 0.52015 0.50804 0.0
H1403 H 0.28757 0.4907 0.5126 0.0
C1404 C 0.17554 0.45646 0.52517 0.0
C1405 C 0.17863 0.46596 0.54674 0.0
C1406 C 0.18976 0.45584 0.51341 0.0
C1407 C 0.20734 0.46454 0.52311 0.0
C1408 C 0.21036 0.47407 0.54459 0.0
C1409 C 0.19625 0.47478 0.55621 0.0
C1410 C 0.22274 0.46409 0.51097 0.0
C1411 C 0.23879 0.4805 0.50692 0.0
C1412 C 0.22194 0.44778 0.50389 0.0
C1413 C 0.20593 0.42989 0.5089 0.0
C1414 C 0.19961 0.42486 0.53237 0.0
C1415 C 0.18444 0.40801 0.53695 0.0
C1416 C 0.17555 0.39602 0.51824 0.0
C1417 C 0.18184 0.40084 0.49489 0.0
C1418 C 0.197 0.41768 0.49021 0.0
C1419 C 0.29045 0.45518 0.47036 0.0
C1420 C 0.29742 0.46584 0.44974 0.0
C1421 C 0.27586 0.45463 0.48273 0.0
C1422 C 0.26804 0.46483 0.47482 0.0
C1423 C 0.27489 0.47528 0.45408 0.0
C1424 C 0.2894 0.47583 0.44178 0.0
C1425 C 0.25289 0.46482 0.48821 0.0
C1426 C 0.23693 0.44837 0.49244 0.0
C1427 C 0.25387 0.48107 0.49596 0.0
C1428 C 0.27068 0.49881 0.49355 0.0
C1429 C 0.27038 0.51318 0.48179 0.0
C1430 C 0.28623 0.52986 0.4794 0.0
C1431 C 0.30247 0.53235 0.4888 0.0
C1432 C 0.30287 0.51818 0.50069 0.0
C1433 C 0.28705 0.50149 0.50315 0.0
H1434 H 0.31473 0.54526 0.48691 0.0
H1435 H 0.16381 0.38298 0.52182 0.0
H1436 H 0.81841 0.28205 0.91753 0.0
H1437 H 0.79422 0.25623 0.93823 0.0
H1438 H 0.82124 0.27757 0.00536 0.0
H1439 H 0.84625 0.30294 0.98424 0.0
H1440 H 0.80729 0.2439 0.00789 0.0
H1441 H 0.78206 0.28014 0.98384 0.0
H1442 H 0.77391 0.29751 0.95643 0.0
H1443 H 0.74153 0.24968 0.91511 0.0
H1444 H 0.74967 0.23207 0.94211 0.0
H1445 H 0.72677 0.19646 0.07845 0.0
H1446 H 0.75224 0.21997 0.05613 0.0
H1447 H 0.73534 0.1861 0.99368 0.0
H1448 H 0.70989 0.16211 0.01625 0.0
H1449 H 0.7436 0.22513 0.9887 0.0
H1450 H 0.76917 0.18927 0.01717 0.0
H1451 H 0.77663 0.17361 0.04822 0.0
H1452 H 0.80764 0.22364 0.08584 0.0
H1453 H 0.80014 0.23956 0.05518 0.0
C1454 C 0.81923 0.28124 0.93672 0.0
C1455 C 0.83417 0.29463 0.94928 0.0
C1456 C 0.80525 0.26649 0.94863 0.0
C1457 C 0.80543 0.26505 0.97359 0.0
C1458 C 0.82059 0.27829 0.98615 0.0
C1459 C 0.83489 0.29284 0.97409 0.0
C1460 C 0.78988 0.24973 0.98639 0.0
C1461 C 0.79341 0.24003 0.00379 0.0
C1462 C 0.77158 0.2443 0.98111 0.0
C1463 C 0.76662 0.25483 0.96487 0.0
C1464 C 0.7733 0.27336 0.96882 0.0
C1465 C 0.76867 0.28324 0.95337 0.0
C1466 C 0.75725 0.27471 0.934 0.0
C1467 C 0.75039 0.25627 0.93009 0.0
C1468 C 0.75499 0.24633 0.94548 0.0
C1469 C 0.72844 0.19394 0.05997 0.0
C1470 C 0.71626 0.17739 0.04912 0.0
C1471 C 0.74306 0.2074 0.04726 0.0
C1472 C 0.74573 0.2048 0.02327 0.0
C1473 C 0.73353 0.18837 0.01222 0.0
C1474 C 0.71904 0.17468 0.02512 0.0
C1475 C 0.76115 0.21946 0.00985 0.0
C1476 C 0.75754 0.22906 0.99252 0.0
C1477 C 0.77932 0.22509 0.01565 0.0
C1478 C 0.78396 0.21557 0.03399 0.0
C1479 C 0.77745 0.1969 0.03217 0.0
C1480 C 0.78171 0.18799 0.04968 0.0
C1481 C 0.79257 0.19762 0.06902 0.0
C1482 C 0.79922 0.2162 0.07086 0.0
C1483 C 0.79499 0.22517 0.05341 0.0
H1484 H 0.79585 0.19069 0.08256 0.0
H1485 H 0.75369 0.28239 0.92206 0.0
H1486 H 0.52026 0.80802 0.42827 0.0
H1487 H 0.52092 0.78375 0.45014 0.0
H1488 H 0.55598 0.82196 0.50281 0.0
H1489 H 0.55569 0.84661 0.48052 0.0
H1490 H 0.56713 0.79855 0.49279 0.0
H1491 H 0.5109 0.79349 0.51426 0.0
H1492 H 0.48149 0.79158 0.50743 0.0
H1493 H 0.46298 0.74206 0.46873 0.0
H1494 H 0.4924 0.74383 0.47502 0.0
H1495 H 0.51922 0.71322 0.57501 0.0
H1496 H 0.52031 0.73899 0.55493 0.0
H1497 H 0.55552 0.73718 0.50129 0.0
H1498 H 0.55479 0.7114 0.52179 0.0
H1499 H 0.50959 0.74357 0.51422 0.0
H1500 H 0.58344 0.77999 0.4797 0.0
H1501 H 0.61307 0.7838 0.49094 0.0
H1502 H 0.59642 0.77337 0.56417 0.0
H1503 H 0.5668 0.76974 0.55342 0.0
C1504 C 0.52809 0.81134 0.44455 0.0
C1505 C 0.53783 0.82931 0.4527 0.0
C1506 C 0.52841 0.79737 0.45711 0.0
C1507 C 0.5383 0.80089 0.47836 0.0
C1508 C 0.54821 0.81885 0.48649 0.0
C1509 C 0.54796 0.83293 0.47381 0.0
C1510 C 0.5381 0.78572 0.49194 0.0
C1511 C 0.55454 0.78653 0.49748 0.0
C1512 C 0.52172 0.77011 0.49856 0.0
C1513 C 0.50392 0.76888 0.49494 0.0
C1514 C 0.5006 0.78225 0.50416 0.0
C1515 C 0.48392 0.78119 0.5004 0.0
C1516 C 0.47038 0.76673 0.48761 0.0
C1517 C 0.47348 0.75327 0.47862 0.0
C1518 C 0.49016 0.75428 0.48229 0.0
C1519 C 0.52722 0.71823 0.55892 0.0
C1520 C 0.53695 0.7102 0.55006 0.0
C1521 C 0.52779 0.73302 0.54739 0.0
C1522 C 0.53811 0.74025 0.52663 0.0
C1523 C 0.54767 0.7321 0.51747 0.0
C1524 C 0.54716 0.71727 0.52912 0.0
C1525 C 0.53862 0.7562 0.51474 0.0
C1526 C 0.5222 0.75554 0.5095 0.0
C1527 C 0.55502 0.77212 0.50903 0.0
C1528 C 0.57284 0.77439 0.51569 0.0
C1529 C 0.58613 0.77856 0.49821 0.0
C1530 C 0.60292 0.78068 0.50449 0.0
C1531 C 0.6066 0.77876 0.52824 0.0
C1532 C 0.59353 0.77478 0.54577 0.0
C1533 C 0.57673 0.77266 0.53958 0.0
H1534 H 0.61961 0.7804 0.53306 0.0
H1535 H 0.45748 0.76593 0.48469 0.0
H1536 H 0.34309 0.42042 0.07493 0.0
H1537 H 0.35489 0.39968 0.0677 0.0
H1538 H 0.4069 0.43987 0.09474 0.0
H1539 H 0.3953 0.46022 0.10226 0.0
H1540 H 0.40933 0.42375 0.05264 0.0
H1541 H 0.37952 0.40717 0.12995 0.0
H1542 H 0.3532 0.39636 0.15665 0.0
H1543 H 0.32522 0.34715 0.11646 0.0
H1544 H 0.35132 0.35781 0.0893 0.0
H1545 H 0.46165 0.39278 0.10653 0.0
H1546 H 0.441 0.40389 0.09819 0.0
H1547 H 0.40307 0.35267 0.06688 0.0
H1548 H 0.42405 0.34131 0.07499 0.0
H1549 H 0.38803 0.36845 0.1017 0.0
H1550 H 0.42176 0.38343 0.0296 0.0
H1551 H 0.44912 0.39487 0.00479 0.0
H1552 H 0.4703 0.44753 0.03589 0.0
H1553 H 0.44319 0.43635 0.06117 0.0
C1554 C 0.35706 0.4248 0.07911 0.0
C1555 C 0.36821 0.44191 0.08931 0.0
C1556 C 0.36377 0.41295 0.07506 0.0
C1557 C 0.3818 0.41822 0.08071 0.0
C1558 C 0.39298 0.43549 0.09017 0.0
C1559 C 0.38627 0.44709 0.09458 0.0
C1560 C 0.38931 0.40591 0.07776 0.0
C1561 C 0.40457 0.41157 0.0632 0.0
C1562 C 0.38289 0.38977 0.09111 0.0
C1563 C 0.36724 0.38339 0.1074 0.0
C1564 C 0.36768 0.39413 0.12667 0.0
C1565 C 0.35282 0.38801 0.14191 0.0
C1566 C 0.33752 0.37111 0.13819 0.0
C1567 C 0.33706 0.36026 0.11927 0.0
C1568 C 0.35188 0.36633 0.10395 0.0
C1569 C 0.44894 0.38376 0.09786 0.0
C1570 C 0.44453 0.36609 0.09148 0.0
C1571 C 0.43715 0.3902 0.09303 0.0
C1572 C 0.42051 0.37916 0.08185 0.0
C1573 C 0.41586 0.36142 0.07552 0.0
C1574 C 0.42788 0.35499 0.08005 0.0
C1575 C 0.40835 0.38663 0.0771 0.0
C1576 C 0.39237 0.3802 0.09039 0.0
C1577 C 0.41413 0.40213 0.06264 0.0
C1578 C 0.43045 0.40901 0.04737 0.0
C1579 C 0.4323 0.39742 0.03128 0.0
C1580 C 0.44777 0.40387 0.01711 0.0
C1581 C 0.46145 0.42191 0.01878 0.0
C1582 C 0.45968 0.43356 0.03461 0.0
C1583 C 0.44425 0.42718 0.04883 0.0
H1584 H 0.47341 0.42688 0.0078 0.0
H1585 H 0.32603 0.3664 0.15002 0.0
H1586 H 0.07361 0.46209 0.59946 0.0
H1587 H 0.04143 0.4413 0.59513 0.0
H1588 H 0.05223 0.40073 0.56689 0.0
H1589 H 0.08501 0.42186 0.57098 0.0
H1590 H 0.02209 0.40206 0.54398 0.0
H1591 H 0.04081 0.39628 0.62217 0.0
H1592 H 0.05711 0.40745 0.66022 0.0
H1593 H 0.02673 0.43386 0.67563 0.0
H1594 H 0.01045 0.42309 0.63749 0.0
H1595 H 0.9252 0.34356 0.57041 0.0
H1596 H 0.95786 0.35502 0.56546 0.0
H1597 H 0.96945 0.40431 0.60132 0.0
H1598 H 0.93745 0.39305 0.60654 0.0
H1599 H 0.98874 0.39117 0.62014 0.0
H1600 H 0.97384 0.40113 0.53959 0.0
H1601 H 0.95808 0.39111 0.50098 0.0
H1602 H 0.98101 0.35696 0.49015 0.0
H1603 H 0.99675 0.36663 0.52885 0.0
C1604 C 0.06928 0.44881 0.59213 0.0
C1605 C 0.08196 0.44357 0.58594 0.0
C1606 C 0.0508 0.43692 0.58963 0.0
C1607 C 0.04435 0.41932 0.58112 0.0
C1608 C 0.0569 0.41423 0.57361 0.0
C1609 C 0.07561 0.4263 0.57597 0.0
C1610 C 0.02452 0.40627 0.58195 0.0
C1611 C 0.01478 0.39931 0.56068 0.0
C1612 C 0.01493 0.40269 0.6037 0.0
C1613 C 0.02444 0.40891 0.62691 0.0
C1614 C 0.03766 0.40454 0.63362 0.0
C1615 C 0.0469 0.4108 0.65521 0.0
C1616 C 0.04297 0.42137 0.67033 0.0
C1617 C 0.02975 0.42566 0.66391 0.0
C1618 C 0.02049 0.41945 0.64232 0.0
C1619 C 0.93476 0.35689 0.57702 0.0
C1620 C 0.92862 0.36725 0.58915 0.0
C1621 C 0.95342 0.36344 0.57417 0.0
C1622 C 0.96621 0.38053 0.58318 0.0
C1623 C 0.95997 0.39101 0.59448 0.0
C1624 C 0.94154 0.3845 0.59745 0.0
C1625 C 0.98615 0.38768 0.58206 0.0
C1626 C 0.99597 0.39351 0.60344 0.0
C1627 C 0.9957 0.39017 0.56044 0.0
C1628 C 0.98627 0.38442 0.53722 0.0
C1629 C 0.97539 0.39137 0.52906 0.0
C1630 C 0.96649 0.38578 0.50715 0.0
C1631 C 0.96849 0.37336 0.49316 0.0
C1632 C 0.97944 0.36655 0.50103 0.0
C1633 C 0.98836 0.37208 0.52294 0.0
H1634 H 0.96159 0.36905 0.4762 0.0
H1635 H 0.05015 0.42622 0.68702 0.0
H1636 H 0.57721 0.92656 0.06184 0.0
H1637 H 0.59657 0.95929 0.05501 0.0
H1638 H 0.57771 0.97009 0.12081 0.0
H1639 H 0.55871 0.93801 0.1278 0.0
H1640 H 0.57528 0.98946 0.08379 0.0
H1641 H 0.61919 0.97491 0.11674 0.0
H1642 H 0.6369 0.95931 0.11691 0.0
H1643 H 0.65957 0.98247 0.04881 0.0
H1644 H 0.64178 0.99803 0.04811 0.0
H1645 H 0.62995 0.07426 0.13015 0.0
H1646 H 0.61632 0.04214 0.12242 0.0
H1647 H 0.64299 0.05327 0.05425 0.0
H1648 H 0.6569 0.08596 0.06181 0.0
H1649 H 0.64229 0.02322 0.08133 0.0
H1650 H 0.60162 0.04156 0.05172 0.0
H1651 H 0.58439 0.05763 0.05273 0.0
H1652 H 0.55545 0.02722 0.11443 0.0
H1653 H 0.57271 0.01116 0.11403 0.0
C1654 C 0.57732 0.93593 0.07492 0.0
C1655 C 0.56622 0.9295 0.09529 0.0
C1656 C 0.5884 0.95463 0.07099 0.0
C1657 C 0.58851 0.96719 0.08733 0.0
C1658 C 0.57776 0.96074 0.10782 0.0
C1659 C 0.56687 0.94225 0.11179 0.0
C1660 C 0.59922 0.98712 0.08338 0.0
C1661 C 0.58993 0.99681 0.08318 0.0
C1662 C 0.61833 0.99677 0.08178 0.0
C1663 C 0.62898 0.98742 0.08222 0.0
C1664 C 0.62781 0.97653 0.1017 0.0
C1665 C 0.63789 0.96773 0.10191 0.0
C1666 C 0.6493 0.96984 0.08284 0.0
C1667 C 0.65069 0.98081 0.06354 0.0
C1668 C 0.64062 0.98963 0.06323 0.0
C1669 C 0.6331 0.07005 0.11348 0.0
C1670 C 0.64441 0.08286 0.09646 0.0
C1671 C 0.62526 0.05158 0.10913 0.0
C1672 C 0.62841 0.04525 0.08764 0.0
C1673 C 0.64032 0.05786 0.07094 0.0
C1674 C 0.64823 0.07653 0.07528 0.0
C1675 C 0.61829 0.02546 0.08269 0.0
C1676 C 0.62764 0.01584 0.08125 0.0
C1677 C 0.59916 0.01577 0.08275 0.0
C1678 C 0.58854 0.02521 0.0829 0.0
C1679 C 0.59166 0.03837 0.06559 0.0
C1680 C 0.58188 0.04748 0.06605 0.0
C1681 C 0.56885 0.04347 0.08365 0.0
C1682 C 0.56555 0.03031 0.1008 0.0
C1683 C 0.57531 0.02118 0.10044 0.0
H1684 H 0.5613 0.05054 0.08398 0.0
H1685 H 0.6571 0.96303 0.08305 0.0
H1686 H 0.63029 0.56419 0.62666 0.0
H1687 H 0.61724 0.58289 0.61691 0.0
H1688 H 0.64482 0.59657 0.54933 0.0
H1689 H 0.65799 0.57735 0.55878 0.0
H1690 H 0.64273 0.62697 0.5833 0.0
H1691 H 0.60807 0.57161 0.53862 0.0
H1692 H 0.59271 0.53849 0.53393 0.0
H1693 H 0.55739 0.53193 0.59223 0.0
H1694 H 0.57272 0.56498 0.59751 0.0
H1695 H 0.57813 0.6587 0.56351 0.0
H1696 H 0.59867 0.64691 0.55507 0.0
H1697 H 0.57252 0.6066 0.60977 0.0
H1698 H 0.5523 0.61801 0.61821 0.0
H1699 H 0.57653 0.59169 0.56979 0.0
H1700 H 0.61299 0.64417 0.61943 0.0
H1701 H 0.62865 0.67668 0.62902 0.0
H1702 H 0.66036 0.68841 0.56524 0.0
H1703 H 0.6447 0.65595 0.55514 0.0
C1704 C 0.63383 0.57121 0.60972 0.0
C1705 C 0.64512 0.56901 0.5934 0.0
C1706 C 0.62635 0.582 0.60426 0.0
C1707 C 0.62998 0.59106 0.58241 0.0
C1708 C 0.64189 0.5897 0.56636 0.0
C1709 C 0.64937 0.57869 0.57177 0.0
C1710 C 0.61996 0.60061 0.57631 0.0
C1711 C 0.62836 0.61939 0.57953 0.0
C1712 C 0.60115 0.59066 0.57201 0.0
C1713 C 0.59162 0.57078 0.56853 0.0
C1714 C 0.5971 0.5631 0.55053 0.0
C1715 C 0.58839 0.54434 0.54776 0.0
C1716 C 0.57411 0.53312 0.56281 0.0
C1717 C 0.56846 0.54064 0.58059 0.0
C1718 C 0.57714 0.55938 0.58345 0.0
C1719 C 0.5768 0.64733 0.57371 0.0
C1720 C 0.56347 0.63937 0.59155 0.0
C1721 C 0.58856 0.64063 0.5689 0.0
C1722 C 0.58711 0.62579 0.58174 0.0
C1723 C 0.57386 0.61794 0.59946 0.0
C1724 C 0.5623 0.62462 0.60435 0.0
C1725 C 0.59915 0.61808 0.57729 0.0
C1726 C 0.59103 0.5995 0.57243 0.0
C1727 C 0.61815 0.62823 0.58032 0.0
C1728 C 0.6275 0.64769 0.58636 0.0
C1729 C 0.62318 0.65371 0.60734 0.0
C1730 C 0.63208 0.67212 0.61289 0.0
C1731 C 0.64544 0.68461 0.5977 0.0
C1732 C 0.64997 0.67872 0.57696 0.0
C1733 C 0.64109 0.66032 0.57131 0.0
H1734 H 0.65232 0.69886 0.60203 0.0
H1735 H 0.56742 0.5186 0.56071 0.0
H1736 H 0.92516 0.56602 0.05232 0.0
H1737 H 0.95752 0.58667 0.0445 0.0
H1738 H 0.96779 0.59286 0.12013 0.0
H1739 H 0.93584 0.57235 0.12796 0.0
H1740 H 0.98685 0.62517 0.09652 0.0
H1741 H 0.97455 0.56333 0.08902 0.0
H1742 H 0.95942 0.53282 0.07135 0.0
H1743 H 0.98054 0.55549 0.0025 0.0
H1744 H 0.99561 0.58618 0.01975 0.0
H1745 H 0.0725 0.64049 0.12699 0.0
H1746 H 0.04057 0.62916 0.1193 0.0
H1747 H 0.05071 0.63393 0.04364 0.0
H1748 H 0.08311 0.64556 0.05132 0.0
H1749 H 0.02152 0.59995 0.05744 0.0
H1750 H 0.0391 0.66161 0.06762 0.0
H1751 H 0.05454 0.69175 0.0863 0.0
H1752 H 0.02377 0.66961 0.15034 0.0
H1753 H 0.00833 0.63928 0.13219 0.0
C1754 C 0.93431 0.57204 0.06722 0.0
C1755 C 0.92795 0.56746 0.09075 0.0
C1756 C 0.9528 0.58376 0.06274 0.0
C1757 C 0.96515 0.59124 0.08174 0.0
C1758 C 0.95859 0.5873 0.10517 0.0
C1759 C 0.94029 0.57549 0.10962 0.0
C1760 C 0.98503 0.60236 0.07776 0.0
C1761 C 0.99443 0.61969 0.0879 0.0
C1762 C 0.99495 0.59546 0.06593 0.0
C1763 C 0.98598 0.57704 0.05559 0.0
C1764 C 0.97583 0.56181 0.07008 0.0
C1765 C 0.96729 0.54449 0.06015 0.0
C1766 C 0.96896 0.54222 0.0358 0.0
C1767 C 0.97922 0.55727 0.02135 0.0
C1768 C 0.98776 0.57463 0.03118 0.0
C1769 C 0.06804 0.63937 0.10867 0.0
C1770 C 0.08038 0.64394 0.08976 0.0
C1771 C 0.04974 0.63293 0.1043 0.0
C1772 C 0.04319 0.63075 0.0809 0.0
C1773 C 0.05547 0.63555 0.06186 0.0
C1774 C 0.07397 0.64231 0.06626 0.0
C1775 C 0.02336 0.62254 0.07687 0.0
C1776 C 0.01396 0.60572 0.06539 0.0
C1777 C 0.01341 0.62989 0.08751 0.0
C1778 C 0.0226 0.64813 0.09855 0.0
C1779 C 0.03571 0.66314 0.08575 0.0
C1780 C 0.04445 0.68026 0.09624 0.0
C1781 C 0.04016 0.68259 0.1195 0.0
C1782 C 0.02708 0.66779 0.13231 0.0
C1783 C 0.0183 0.65063 0.12191 0.0
H1784 H 0.04694 0.69586 0.12759 0.0
H1785 H 0.96234 0.5288 0.02814 0.0
H1786 H 0.45948 0.06674 0.60741 0.0
H1787 H 0.43931 0.03507 0.5982 0.0
H1788 H 0.40182 0.04829 0.5652 0.0
H1789 H 0.42235 0.08057 0.57419 0.0
H1790 H 0.38622 0.01711 0.5995 0.0
H1791 H 0.42162 0.03682 0.52883 0.0
H1792 H 0.44953 0.05316 0.50513 0.0
H1793 H 0.47035 0.02166 0.53724 0.0
H1794 H 0.44269 0.00532 0.56142 0.0
H1795 H 0.34209 0.92072 0.57262 0.0
H1796 H 0.354 0.95326 0.5656 0.0
H1797 H 0.40605 0.96471 0.5921 0.0
H1798 H 0.39437 0.9327 0.59925 0.0
H1799 H 0.40909 0.98397 0.55153 0.0
H1800 H 0.37755 0.96971 0.62753 0.0
H1801 H 0.35075 0.95389 0.65337 0.0
H1802 H 0.32335 0.97532 0.61226 0.0
H1803 H 0.34994 0.99109 0.58595 0.0
C1804 C 0.44697 0.06305 0.59819 0.0
C1805 C 0.44255 0.07628 0.59161 0.0
C1806 C 0.43545 0.04487 0.59286 0.0
C1807 C 0.41908 0.03927 0.58095 0.0
C1808 C 0.41442 0.05232 0.5744 0.0
C1809 C 0.42618 0.07074 0.57944 0.0
C1810 C 0.40717 0.01968 0.57576 0.0
C1811 C 0.39091 0.00988 0.58841 0.0
C1812 C 0.41342 0.01019 0.56164 0.0
C1813 C 0.43008 0.01989 0.54703 0.0
C1814 C 0.4322 0.03346 0.53097 0.0
C1815 C 0.44797 0.04271 0.51742 0.0
C1816 C 0.46171 0.03846 0.51969 0.0
C1817 C 0.45969 0.02493 0.53549 0.0
C1818 C 0.44395 0.01565 0.54909 0.0
C1819 C 0.35611 0.93021 0.57667 0.0
C1820 C 0.36724 0.92411 0.58663 0.0
C1821 C 0.36287 0.94879 0.57277 0.0
C1822 C 0.38093 0.96148 0.57841 0.0
C1823 C 0.39211 0.95525 0.58755 0.0
C1824 C 0.38535 0.93689 0.59175 0.0
C1825 C 0.38843 0.98135 0.57583 0.0
C1826 C 0.404 0.9912 0.56188 0.0
C1827 C 0.38157 0.99083 0.58884 0.0
C1828 C 0.36561 0.98135 0.60458 0.0
C1829 C 0.36574 0.9709 0.62386 0.0
C1830 C 0.35061 0.96197 0.63862 0.0
C1831 C 0.33532 0.96353 0.63441 0.0
C1832 C 0.33517 0.97407 0.61546 0.0
C1833 C 0.35027 0.98301 0.60062 0.0
H1834 H 0.32363 0.95661 0.64587 0.0
H1835 H 0.47391 0.04564 0.50919 0.0
H1836 H 0.54716 0.61422 0.90381 0.0
H1837 H 0.56736 0.60246 0.91169 0.0
H1838 H 0.60869 0.65509 0.93532 0.0
H1839 H 0.58819 0.6671 0.92763 0.0
H1840 H 0.62044 0.6368 0.90114 0.0
H1841 H 0.59103 0.6258 0.97642 0.0
H1842 H 0.56493 0.61606 0.00325 0.0
H1843 H 0.54129 0.56201 0.97598 0.0
H1844 H 0.56714 0.57147 0.94874 0.0
H1845 H 0.66681 0.58654 0.92538 0.0
H1846 H 0.65514 0.60728 0.93331 0.0
H1847 H 0.60156 0.56527 0.914 0.0
H1848 H 0.61306 0.54487 0.90578 0.0
H1849 H 0.60147 0.58394 0.95435 0.0
H1850 H 0.626 0.59589 0.87425 0.0
H1851 H 0.65013 0.60464 0.84442 0.0
H1852 H 0.68158 0.65598 0.87893 0.0
H1853 H 0.65767 0.64741 0.90919 0.0
C1854 C 0.56052 0.62337 0.91077 0.0
C1855 C 0.56606 0.64165 0.91503 0.0
C1856 C 0.57204 0.61657 0.91536 0.0
C1857 C 0.58952 0.62784 0.92418 0.0
C1858 C 0.59523 0.64614 0.92855 0.0
C1859 C 0.58349 0.65295 0.92428 0.0
C1860 C 0.60157 0.62013 0.92818 0.0
C1861 C 0.61666 0.62562 0.91334 0.0
C1862 C 0.59643 0.60529 0.94372 0.0
C1863 C 0.58102 0.59938 0.96045 0.0
C1864 C 0.58023 0.61186 0.97606 0.0
C1865 C 0.56548 0.60638 0.99135 0.0
C1866 C 0.55145 0.58843 0.99129 0.0
C1867 C 0.55218 0.57591 0.97601 0.0
C1868 C 0.5669 0.58132 0.96068 0.0
C1869 C 0.65252 0.58174 0.92316 0.0
C1870 C 0.64087 0.56412 0.91482 0.0
C1871 C 0.64588 0.59359 0.92759 0.0
C1872 C 0.62745 0.58785 0.92419 0.0
C1873 C 0.61579 0.57003 0.91683 0.0
C1874 C 0.62242 0.5584 0.91201 0.0
C1875 C 0.62008 0.60032 0.92692 0.0
C1876 C 0.60572 0.59559 0.94287 0.0
C1877 C 0.62582 0.61575 0.91227 0.0
C1878 C 0.6402 0.62091 0.89418 0.0
C1879 C 0.63815 0.60897 0.87562 0.0
C1880 C 0.65176 0.61391 0.8586 0.0
C1881 C 0.66743 0.63082 0.85984 0.0
C1882 C 0.66947 0.64286 0.87805 0.0
C1883 C 0.65589 0.63797 0.89513 0.0
H1884 H 0.67796 0.63463 0.84664 0.0
H1885 H 0.54001 0.58423 0.0031 0.0
H1886 H 0.92219 0.57797 0.43379 0.0
H1887 H 0.95466 0.59804 0.44192 0.0
H1888 H 0.96764 0.56906 0.39005 0.0
H1889 H 0.93584 0.54933 0.38186 0.0
H1890 H 0.9864 0.57419 0.43123 0.0
H1891 H 0.97163 0.60917 0.37667 0.0
H1892 H 0.95548 0.62507 0.36458 0.0
H1893 H 0.97644 0.65971 0.42573 0.0
H1894 H 0.99253 0.64382 0.43834 0.0
H1895 H 0.06847 0.62303 0.37432 0.0
H1896 H 0.03675 0.61066 0.3836 0.0
H1897 H 0.05071 0.64354 0.44682 0.0
H1898 H 0.08309 0.65608 0.43785 0.0
H1899 H 0.01891 0.63961 0.41199 0.0
H1900 H 0.03823 0.60678 0.46196 0.0
H1901 H 0.05502 0.59093 0.4708 0.0
H1902 H 0.02551 0.55199 0.41619 0.0
H1903 H 0.00875 0.56779 0.40675 0.0
C1904 C 0.932 0.5759 0.42418 0.0
C1905 C 0.92628 0.56198 0.40714 0.0
C1906 C 0.95054 0.5874 0.4288 0.0
C1907 C 0.96363 0.58504 0.41662 0.0
C1908 C 0.95787 0.57112 0.3998 0.0
C1909 C 0.93955 0.55985 0.39506 0.0
C1910 C 0.98343 0.59683 0.42083 0.0
C1911 C 0.99346 0.58854 0.42727 0.0
C1912 C 0.99273 0.61565 0.41619 0.0
C1913 C 0.98305 0.62515 0.40863 0.0
C1914 C 0.97265 0.62006 0.38766 0.0
C1915 C 0.96354 0.62909 0.38068 0.0
C1916 C 0.96487 0.64334 0.39443 0.0
C1917 C 0.97537 0.64863 0.41514 0.0
C1918 C 0.98449 0.63962 0.42221 0.0
C1919 C 0.06502 0.62786 0.39019 0.0
C1920 C 0.07854 0.64053 0.40544 0.0
C1921 C 0.04675 0.62073 0.39541 0.0
C1922 C 0.04134 0.62609 0.41591 0.0
C1923 C 0.05462 0.63924 0.43085 0.0
C1924 C 0.07311 0.64635 0.42573 0.0
C1925 C 0.02174 0.6168 0.42181 0.0
C1926 C 0.01178 0.62545 0.41696 0.0
C1927 C 0.01243 0.59824 0.4278 0.0
C1928 C 0.02231 0.58854 0.43358 0.0
C1929 C 0.03542 0.59492 0.45172 0.0
C1930 C 0.04491 0.58593 0.45685 0.0
C1931 C 0.04135 0.57047 0.44404 0.0
C1932 C 0.02825 0.56396 0.4261 0.0
C1933 C 0.01874 0.57292 0.42088 0.0
H1934 H 0.04872 0.56353 0.44804 0.0
H1935 H 0.95782 0.65033 0.38899 0.0
H1936 H 0.43849 0.07189 0.87009 0.0
H1937 H 0.41697 0.04004 0.87595 0.0
H1938 H 0.41265 0.04975 0.95042 0.0
H1939 H 0.43465 0.08205 0.94469 0.0
H1940 H 0.41729 0.02047 0.9438 0.0
H1941 H 0.37713 0.039 0.91365 0.0
H1942 H 0.36696 0.05494 0.8867 0.0
H1943 H 0.36825 0.02375 0.82755 0.0
H1944 H 0.37866 0.00777 0.85407 0.0
H1945 H 0.35492 0.92421 0.94286 0.0
H1946 H 0.36578 0.95654 0.9495 0.0
H1947 H 0.37945 0.9671 0.875 0.0
H1948 H 0.36858 0.93524 0.86827 0.0
H1949 H 0.36482 0.98643 0.89008 0.0
H1950 H 0.41109 0.97337 0.91825 0.0
H1951 H 0.42274 0.95811 0.94407 0.0
H1952 H 0.41057 0.97943 0.00617 0.0
H1953 H 0.39863 0.99464 0.98068 0.0
C1954 C 0.43291 0.06739 0.88774 0.0
C1955 C 0.43839 0.0796 0.90695 0.0
C1956 C 0.42046 0.0491 0.89103 0.0
C1957 C 0.41299 0.04243 0.91358 0.0
C1958 C 0.41816 0.05458 0.93282 0.0
C1959 C 0.43065 0.07305 0.9295 0.0
C1960 C 0.40055 0.02262 0.91678 0.0
C1961 C 0.40551 0.01306 0.93252 0.0
C1962 C 0.38528 0.01285 0.90189 0.0
C1963 C 0.37872 0.02221 0.88588 0.0
C1964 C 0.37531 0.03558 0.89488 0.0
C1965 C 0.3695 0.04462 0.87967 0.0
C1966 C 0.36696 0.04035 0.85543 0.0
C1967 C 0.37019 0.02701 0.84635 0.0
C1968 C 0.37601 0.01793 0.86147 0.0
C1969 C 0.35998 0.93342 0.92788 0.0
C1970 C 0.36101 0.92711 0.90508 0.0
C1971 C 0.36629 0.95191 0.93171 0.0
C1972 C 0.37364 0.96436 0.91279 0.0
C1973 C 0.37388 0.95787 0.88992 0.0
C1974 C 0.36772 0.93957 0.88613 0.0
C1975 C 0.38198 0.98427 0.91642 0.0
C1976 C 0.37626 0.99386 0.90189 0.0
C1977 C 0.39658 0.99404 0.93233 0.0
C1978 C 0.40375 0.98492 0.9476 0.0
C1979 C 0.41077 0.97468 0.93742 0.0
C1980 C 0.41745 0.96606 0.95198 0.0
C1981 C 0.41734 0.96775 0.97675 0.0
C1982 C 0.4106 0.9781 0.98699 0.0
C1983 C 0.40388 0.98671 0.9725 0.0
H1984 H 0.42252 0.96107 0.98799 0.0
H1985 H 0.36249 0.04739 0.84368 0.0
H1986 H 0.39404 0.45675 0.38601 0.0
H1987 H 0.40483 0.43563 0.39141 0.0
H1988 H 0.35848 0.40173 0.43491 0.0
H1989 H 0.34738 0.42323 0.42969 0.0
H1990 H 0.39243 0.40539 0.45203 0.0
H1991 H 0.35726 0.38829 0.38069 0.0
H1992 H 0.34685 0.39364 0.34215 0.0
H1993 H 0.40034 0.41554 0.31349 0.0
H1994 H 0.41115 0.41059 0.35196 0.0
H1995 H 0.42927 0.34494 0.43469 0.0
H1996 H 0.40772 0.356 0.43874 0.0
H1997 H 0.4381 0.39769 0.38704 0.0
H1998 H 0.4591 0.38674 0.38259 0.0
H1999 H 0.40379 0.38223 0.3768 0.0
H2000 H 0.43984 0.40503 0.44954 0.0
H2001 H 0.45132 0.4014 0.48828 0.0
H2002 H 0.39697 0.36946 0.51405 0.0
H2003 H 0.38517 0.37274 0.47533 0.0
C2004 C 0.38601 0.44486 0.39682 0.0
C2005 C 0.36962 0.44162 0.40711 0.0
C2006 C 0.39229 0.43276 0.39991 0.0
C2007 C 0.38234 0.4169 0.41319 0.0
C2008 C 0.36633 0.41385 0.42445 0.0
C2009 C 0.36 0.42612 0.42143 0.0
C2010 C 0.38869 0.40351 0.41398 0.0
C2011 C 0.39453 0.39993 0.43567 0.0
C2012 C 0.39155 0.39644 0.39264 0.0
C2013 C 0.38502 0.3991 0.36927 0.0
C2014 C 0.36682 0.39431 0.3662 0.0
C2015 C 0.36085 0.39728 0.34436 0.0
C2016 C 0.37293 0.40493 0.32539 0.0
C2017 C 0.39099 0.40959 0.3282 0.0
C2018 C 0.39704 0.40668 0.35001 0.0
C2019 C 0.43133 0.35647 0.42424 0.0
C2020 C 0.44595 0.36482 0.40823 0.0
C2021 C 0.41902 0.36282 0.42662 0.0
C2022 C 0.42123 0.37773 0.41318 0.0
C2023 C 0.43592 0.38609 0.39748 0.0
C2024 C 0.44803 0.37976 0.395 0.0
C2025 C 0.40844 0.38487 0.41468 0.0
C2026 C 0.40131 0.38724 0.3933 0.0
C2027 C 0.40451 0.39084 0.43627 0.0
C2028 C 0.41163 0.38893 0.45948 0.0
C2029 C 0.43034 0.39711 0.46341 0.0
C2030 C 0.43691 0.39515 0.48537 0.0
C2031 C 0.42488 0.38515 0.50359 0.0
C2032 C 0.40627 0.37716 0.49991 0.0
C2033 C 0.39964 0.37907 0.47797 0.0
H2034 H 0.42999 0.38365 0.52058 0.0
H2035 H 0.36828 0.40724 0.30851 0.0
H2036 H 0.07248 0.45484 0.88082 0.0
H2037 H 0.04079 0.43536 0.89012 0.0
H2038 H 0.05438 0.40612 0.94074 0.0
H2039 H 0.08677 0.42602 0.93175 0.0
H2040 H 0.02247 0.3848 0.90375 0.0
H2041 H 0.04291 0.42849 0.9668 0.0
H2042 H 0.06011 0.45919 0.98365 0.0
H2043 H 0.02996 0.47628 0.94033 0.0
H2044 H 0.01279 0.44577 0.92291 0.0
H2045 H 0.92639 0.3455 0.92929 0.0
H2046 H 0.95887 0.35754 0.93675 0.0
H2047 H 0.97107 0.40656 0.89969 0.0
H2048 H 0.93914 0.39481 0.8922 0.0
H2049 H 0.99059 0.41392 0.9404 0.0
H2050 H 0.9754 0.37401 0.87216 0.0
H2051 H 0.95891 0.34465 0.85158 0.0
H2052 H 0.97938 0.32141 0.90193 0.0
H2053 H 0.99581 0.35062 0.923 0.0
C2054 C 0.06894 0.44426 0.8939 0.0
C2055 C 0.08236 0.44211 0.90557 0.0
C2056 C 0.0507 0.43311 0.89918 0.0
C2057 C 0.0452 0.41933 0.91613 0.0
C2058 C 0.05837 0.4167 0.92755 0.0
C2059 C 0.07685 0.42811 0.92247 0.0
C2060 C 0.02563 0.40838 0.92194 0.0
C2061 C 0.01549 0.39089 0.91247 0.0
C2062 C 0.01651 0.41651 0.93279 0.0
C2063 C 0.02661 0.43484 0.94347 0.0
C2064 C 0.04003 0.43882 0.96074 0.0
C2065 C 0.04977 0.45619 0.97042 0.0
C2066 C 0.04614 0.46968 0.96305 0.0
C2067 C 0.03275 0.46582 0.94603 0.0
C2068 C 0.02299 0.44848 0.93627 0.0
C2069 C 0.93602 0.35889 0.92293 0.0
C2070 C 0.9301 0.36911 0.91002 0.0
C2071 C 0.95458 0.36574 0.92713 0.0
C2072 C 0.96747 0.38298 0.91873 0.0
C2073 C 0.96146 0.39328 0.90644 0.0
C2074 C 0.94311 0.38644 0.90204 0.0
C2075 C 0.98732 0.39045 0.92176 0.0
C2076 C 0.99752 0.40744 0.9326 0.0
C2077 C 0.99645 0.38192 0.91199 0.0
C2078 C 0.98661 0.3644 0.89934 0.0
C2079 C 0.97624 0.36259 0.87897 0.0
C2080 C 0.96694 0.34599 0.86719 0.0
C2081 C 0.96804 0.33115 0.8755 0.0
C2082 C 0.9785 0.33291 0.89556 0.0
C2083 C 0.98781 0.34948 0.90742 0.0
H2084 H 0.96083 0.31831 0.86635 0.0
H2085 H 0.05369 0.48311 0.97055 0.0
H2086 H 0.57201 0.92266 0.44214 0.0
H2087 H 0.59325 0.95505 0.44863 0.0
H2088 H 0.58925 0.96544 0.37429 0.0
H2089 H 0.56849 0.93351 0.36769 0.0
H2090 H 0.6233 0.98461 0.38858 0.0
H2091 H 0.56466 0.97211 0.41858 0.0
H2092 H 0.53816 0.95714 0.4451 0.0
H2093 H 0.57266 0.97855 0.50632 0.0
H2094 H 0.5994 0.99347 0.48012 0.0
H2095 H 0.6362 0.07061 0.36971 0.0
H2096 H 0.62501 0.03859 0.37554 0.0
H2097 H 0.6412 0.04826 0.44932 0.0
H2098 H 0.65247 0.08077 0.44361 0.0
H2099 H 0.60637 0.0192 0.44349 0.0
H2100 H 0.6644 0.03689 0.41169 0.0
H2101 H 0.69019 0.05239 0.38417 0.0
H2102 H 0.6566 0.02143 0.32563 0.0
H2103 H 0.63054 0.00593 0.35272 0.0
C2104 C 0.57587 0.93185 0.42716 0.0
C2105 C 0.56838 0.92545 0.40445 0.0
C2106 C 0.58792 0.95038 0.43091 0.0
C2107 C 0.59275 0.9628 0.41199 0.0
C2108 C 0.58579 0.95624 0.38921 0.0
C2109 C 0.57378 0.93789 0.3855 0.0
C2110 C 0.60448 0.98271 0.41548 0.0
C2111 C 0.6196 0.99215 0.40063 0.0
C2112 C 0.60008 0.99264 0.43173 0.0
C2113 C 0.58403 0.98369 0.44743 0.0
C2114 C 0.5666 0.9735 0.4377 0.0
C2115 C 0.55154 0.96505 0.45267 0.0
C2116 C 0.55373 0.96684 0.47738 0.0
C2117 C 0.57099 0.97713 0.48717 0.0
C2118 C 0.5861 0.98559 0.47228 0.0
C2119 C 0.63756 0.06607 0.38721 0.0
C2120 C 0.64526 0.07837 0.40621 0.0
C2121 C 0.6312 0.04767 0.39048 0.0
C2122 C 0.63239 0.04095 0.41281 0.0
C2123 C 0.6402 0.05313 0.43188 0.0
C2124 C 0.64673 0.07172 0.42857 0.0
C2125 C 0.62474 0.02108 0.41589 0.0
C2126 C 0.61039 0.01165 0.43192 0.0
C2127 C 0.62979 0.01113 0.40064 0.0
C2128 C 0.64548 0.02029 0.38426 0.0
C2129 C 0.66248 0.03346 0.39293 0.0
C2130 C 0.67716 0.04223 0.3774 0.0
C2131 C 0.67503 0.03791 0.35317 0.0
C2132 C 0.65823 0.02476 0.34442 0.0
C2133 C 0.64351 0.01595 0.35986 0.0
H2134 H 0.68641 0.04473 0.34118 0.0
H2135 H 0.54206 0.96029 0.48894 0.0
H2136 H 0.50748 0.6376 0.97631 0.0
H2137 H 0.48301 0.61484 0.00115 0.0
H2138 H 0.44464 0.60539 0.94525 0.0
H2139 H 0.46898 0.62787 0.92031 0.0
H2140 H 0.43089 0.60415 0.99216 0.0
H2141 H 0.46085 0.57904 0.9464 0.0
H2142 H 0.48743 0.57771 0.93202 0.0
H2143 H 0.5002 0.57053 0.00376 0.0
H2144 H 0.47382 0.5721 0.01862 0.0
H2145 H 0.36301 0.51478 0.03135 0.0
H2146 H 0.3844 0.53989 0.00579 0.0
H2147 H 0.42764 0.55073 0.05464 0.0
H2148 H 0.40674 0.52608 0.0799 0.0
H2149 H 0.4378 0.5509 0.00905 0.0
H2150 H 0.40884 0.57662 0.05531 0.0
H2151 H 0.38304 0.57893 0.07069 0.0
H2152 H 0.36891 0.58548 0.9994 0.0
H2153 H 0.3945 0.58293 0.98357 0.0
C2154 C 0.49375 0.63105 0.96963 0.0
C2155 C 0.49014 0.63441 0.94635 0.0
C2156 C 0.47981 0.61798 0.98375 0.0
C2157 C 0.46205 0.60829 0.97489 0.0
C2158 C 0.45823 0.61268 0.9524 0.0
C2159 C 0.47216 0.62549 0.93817 0.0
C2160 C 0.44788 0.59237 0.9879 0.0
C2161 C 0.43228 0.59241 0.99565 0.0
C2162 C 0.44977 0.57712 0.99254 0.0
C2163 C 0.46548 0.57589 0.98364 0.0
C2164 C 0.46941 0.57732 0.95913 0.0
C2165 C 0.48442 0.5765 0.95089 0.0
C2166 C 0.49553 0.5741 0.96698 0.0
C2167 C 0.4916 0.57243 0.99133 0.0
C2168 C 0.47661 0.57327 0.99967 0.0
C2169 C 0.37709 0.5225 0.03652 0.0
C2170 C 0.38309 0.51849 0.05778 0.0
C2171 C 0.38927 0.53687 0.02199 0.0
C2172 C 0.40762 0.54725 0.0284 0.0
C2173 C 0.41359 0.54295 0.04931 0.0
C2174 C 0.40152 0.52886 0.06383 0.0
C2175 C 0.42086 0.56271 0.01372 0.0
C2176 C 0.43631 0.56257 0.0055 0.0
C2177 C 0.41885 0.57787 0.00879 0.0
C2178 C 0.40343 0.57933 0.01823 0.0
C2179 C 0.40012 0.57836 0.04289 0.0
C2180 C 0.38556 0.57975 0.0517 0.0
C2181 C 0.3743 0.58228 0.03602 0.0
C2182 C 0.37762 0.58347 0.01151 0.0
C2183 C 0.39214 0.58205 0.00262 0.0
H2184 H 0.36305 0.58338 0.04287 0.0
H2185 H 0.50716 0.57348 0.96058 0.0
H2186 H 0.85281 0.38846 0.58433 0.0
H2187 H 0.84908 0.409 0.55806 0.0
H2188 H 0.86289 0.38721 0.49752 0.0
H2189 H 0.8669 0.36656 0.52397 0.0
H2190 H 0.88231 0.42357 0.49823 0.0
H2191 H 0.81988 0.37946 0.50506 0.0
H2192 H 0.79143 0.35867 0.52559 0.0
H2193 H 0.79241 0.40344 0.56172 0.0
H2194 H 0.82102 0.4245 0.54165 0.0
H2195 H 0.86117 0.46777 0.40995 0.0
H2196 H 0.85839 0.44391 0.43607 0.0
H2197 H 0.85417 0.47229 0.49696 0.0
H2198 H 0.85719 0.49676 0.47073 0.0
H2199 H 0.82925 0.43257 0.49607 0.0
H2200 H 0.89234 0.47642 0.48967 0.0
H2201 H 0.9205 0.49694 0.46835 0.0
H2202 H 0.91779 0.45191 0.43072 0.0
H2203 H 0.88944 0.43114 0.45155 0.0
C2204 C 0.85486 0.38781 0.56538 0.0
C2205 C 0.86029 0.3759 0.55629 0.0
C2206 C 0.85259 0.39953 0.55034 0.0
C2207 C 0.85561 0.39963 0.52577 0.0
C2208 C 0.86046 0.38736 0.51644 0.0
C2209 C 0.86265 0.37549 0.53154 0.0
C2210 C 0.855 0.41349 0.51033 0.0
C2211 C 0.87057 0.4253 0.49746 0.0
C2212 C 0.8399 0.41616 0.50988 0.0
C2213 C 0.82269 0.40355 0.52201 0.0
C2214 C 0.81412 0.38487 0.51754 0.0
C2215 C 0.79794 0.37304 0.52906 0.0
C2216 C 0.79014 0.37973 0.54499 0.0
C2217 C 0.79848 0.39828 0.54939 0.0
C2218 C 0.81467 0.41017 0.53793 0.0
C2219 C 0.85952 0.46905 0.42886 0.0
C2220 C 0.85963 0.48442 0.4382 0.0
C2221 C 0.85792 0.45529 0.44377 0.0
C2222 C 0.8563 0.45642 0.46844 0.0
C2223 C 0.85546 0.47122 0.47791 0.0
C2224 C 0.85721 0.48519 0.46291 0.0
C2225 C 0.85651 0.4425 0.48406 0.0
C2226 C 0.84092 0.43075 0.49691 0.0
C2227 C 0.87157 0.43981 0.48449 0.0
C2228 C 0.88866 0.45225 0.472 0.0
C2229 C 0.89766 0.47091 0.47669 0.0
C2230 C 0.91367 0.48258 0.46472 0.0
C2231 C 0.9209 0.47574 0.44814 0.0
C2232 C 0.91216 0.45719 0.44354 0.0
C2233 C 0.89612 0.44546 0.45544 0.0
H2234 H 0.93331 0.4848 0.43891 0.0
H2235 H 0.77761 0.37055 0.55389 0.0
H2236 H 0.39908 0.86753 0.91336 0.0
H2237 H 0.41949 0.86391 0.93974 0.0
H2238 H 0.38502 0.85723 0.99958 0.0
H2239 H 0.36438 0.86124 0.97307 0.0
H2240 H 0.41976 0.88039 0.00989 0.0
H2241 H 0.3878 0.82118 0.97686 0.0
H2242 H 0.37447 0.79825 0.94513 0.0
H2243 H 0.42709 0.81705 0.91503 0.0
H2244 H 0.44073 0.84027 0.9464 0.0
H2245 H 0.46879 0.85706 0.08822 0.0
H2246 H 0.44441 0.85408 0.06279 0.0
H2247 H 0.47833 0.86538 0.00093 0.0
H2248 H 0.50307 0.86833 0.02647 0.0
H2249 H 0.44247 0.83821 0.99302 0.0
H2250 H 0.47389 0.89854 0.02485 0.0
H2251 H 0.48708 0.92138 0.05672 0.0
H2252 H 0.43486 0.89998 0.08929 0.0
H2253 H 0.4214 0.87684 0.05778 0.0
C2254 C 0.39563 0.86518 0.9321 0.0
C2255 C 0.37999 0.86472 0.94103 0.0
C2256 C 0.40735 0.86297 0.94718 0.0
C2257 C 0.40371 0.86003 0.97162 0.0
C2258 C 0.38806 0.85939 0.98073 0.0
C2259 C 0.37625 0.86164 0.96555 0.0
C2260 C 0.4169 0.85862 0.98756 0.0
C2261 C 0.42443 0.8709 0.00648 0.0
C2262 C 0.4234 0.84658 0.98275 0.0
C2263 C 0.41527 0.83256 0.96391 0.0
C2264 C 0.39652 0.82051 0.96339 0.0
C2265 C 0.38891 0.80745 0.94548 0.0
C2266 C 0.39992 0.80622 0.92805 0.0
C2267 C 0.41858 0.81803 0.92854 0.0
C2268 C 0.42626 0.83113 0.9464 0.0
C2269 C 0.47113 0.8588 0.06919 0.0
C2270 C 0.48805 0.86321 0.05944 0.0
C2271 C 0.45712 0.85709 0.05467 0.0
C2272 C 0.45965 0.85986 0.03003 0.0
C2273 C 0.47614 0.86329 0.01996 0.0
C2274 C 0.49026 0.86497 0.03456 0.0
C2275 C 0.44531 0.86002 0.01518 0.0
C2276 C 0.43763 0.84756 0.99649 0.0
C2277 C 0.43863 0.87186 0.02021 0.0
C2278 C 0.44667 0.88585 0.03908 0.0
C2279 C 0.46524 0.89862 0.03891 0.0
C2280 C 0.47276 0.91164 0.05689 0.0
C2281 C 0.46182 0.9121 0.07506 0.0
C2282 C 0.44332 0.89959 0.07523 0.0
C2283 C 0.43574 0.88653 0.0573 0.0
H2284 H 0.46767 0.92219 0.08897 0.0
H2285 H 0.394 0.7961 0.91419 0.0
H2286 H 0.54431 0.3826 0.42114 0.0
H2287 H 0.56811 0.405 0.44667 0.0
H2288 H 0.52905 0.39381 0.50225 0.0
H2289 H 0.50505 0.37112 0.47671 0.0
H2290 H 0.54951 0.43049 0.49006 0.0
H2291 H 0.56001 0.38205 0.51051 0.0
H2292 H 0.56558 0.35687 0.50268 0.0
H2293 H 0.61492 0.39301 0.46642 0.0
H2294 H 0.6095 0.41838 0.47374 0.0
H2295 H 0.6058 0.4798 0.58425 0.0
H2296 H 0.5853 0.45555 0.55824 0.0
H2297 H 0.62741 0.47176 0.50571 0.0
H2298 H 0.64844 0.49655 0.53196 0.0
H2299 H 0.60669 0.43326 0.51445 0.0
H2300 H 0.59688 0.48172 0.49423 0.0
H2301 H 0.59151 0.50713 0.50125 0.0
H2302 H 0.5412 0.47135 0.53568 0.0
H2303 H 0.54639 0.44574 0.52924 0.0
C2304 C 0.54083 0.38462 0.439 0.0
C2305 C 0.5228 0.37512 0.44692 0.0
C2306 C 0.55447 0.39741 0.45358 0.0
C2307 C 0.55037 0.40111 0.47634 0.0
C2308 C 0.5325 0.39115 0.48472 0.0
C2309 C 0.51883 0.3781 0.47021 0.0
C2310 C 0.56448 0.41637 0.49044 0.0
C2311 C 0.56188 0.43096 0.49573 0.0
C2312 C 0.58096 0.41732 0.49692 0.0
C2313 C 0.58425 0.40209 0.49246 0.0
C2314 C 0.57196 0.3846 0.50067 0.0
C2315 C 0.57511 0.3703 0.49636 0.0
C2316 C 0.59057 0.37332 0.484 0.0
C2317 C 0.60293 0.39068 0.47596 0.0
C2318 C 0.59984 0.40503 0.48021 0.0
C2319 C 0.6109 0.47832 0.56724 0.0
C2320 C 0.62888 0.49023 0.56026 0.0
C2321 C 0.59905 0.4644 0.55232 0.0
C2322 C 0.60476 0.46192 0.52999 0.0
C2323 C 0.62275 0.4735 0.52292 0.0
C2324 C 0.6347 0.48768 0.53787 0.0
C2325 C 0.59158 0.44722 0.51431 0.0
C2326 C 0.59434 0.43279 0.50869 0.0
C2327 C 0.57527 0.44644 0.50734 0.0
C2328 C 0.57211 0.46182 0.51141 0.0
C2329 C 0.58475 0.47928 0.50351 0.0
C2330 C 0.58173 0.49372 0.50735 0.0
C2331 C 0.56604 0.49086 0.51892 0.0
C2332 C 0.55335 0.47354 0.52672 0.0
C2333 C 0.55632 0.45906 0.52296 0.0
H2334 H 0.56368 0.50203 0.52174 0.0
H2335 H 0.59299 0.36223 0.48069 0.0
H2336 H 0.14995 0.50699 0.97071 0.0
H2337 H 0.15314 0.53108 0.99761 0.0
H2338 H 0.14819 0.56004 0.93779 0.0
H2339 H 0.14556 0.53662 0.911 0.0
H2340 H 0.17255 0.58313 0.96659 0.0
H2341 H 0.11192 0.53293 0.97511 0.0
H2342 H 0.08884 0.50133 0.98364 0.0
H2343 H 0.10978 0.50638 0.05454 0.0
H2344 H 0.13314 0.53794 0.04631 0.0
H2345 H 0.14229 0.6382 0.02487 0.0
H2346 H 0.14604 0.61685 0.9996 0.0
H2347 H 0.15311 0.59175 0.06224 0.0
H2348 H 0.14914 0.61266 0.08742 0.0
H2349 H 0.12919 0.56688 0.03343 0.0
H2350 H 0.18871 0.61874 0.02463 0.0
H2351 H 0.2107 0.65048 0.01501 0.0
H2352 H 0.19052 0.64248 0.94332 0.0
H2353 H 0.16825 0.61076 0.95261 0.0
C2354 C 0.14976 0.5186 0.96329 0.0
C2355 C 0.14732 0.5197 0.93867 0.0
C2356 C 0.15148 0.53232 0.97869 0.0
C2357 C 0.15063 0.54729 0.96977 0.0
C2358 C 0.14889 0.54868 0.94516 0.0
C2359 C 0.14728 0.53513 0.92983 0.0
C2360 C 0.15079 0.56124 0.98584 0.0
C2361 C 0.16299 0.57957 0.98113 0.0
C2362 C 0.13848 0.55666 0.005 0.0
C2363 C 0.1244 0.53772 0.01 0.0
C2364 C 0.11168 0.52725 0.99246 0.0
C2365 C 0.09854 0.50936 0.99725 0.0
C2366 C 0.09788 0.50184 0.0196 0.0
C2367 C 0.11033 0.51221 0.03722 0.0
C2368 C 0.12352 0.5301 0.03251 0.0
C2369 C 0.14489 0.62829 0.03321 0.0
C2370 C 0.14526 0.62708 0.05818 0.0
C2371 C 0.14705 0.61609 0.01876 0.0
C2372 C 0.14986 0.60265 0.02902 0.0
C2373 C 0.15082 0.60187 0.05389 0.0
C2374 C 0.14857 0.61391 0.06827 0.0
C2375 C 0.15091 0.58878 0.01415 0.0
C2376 C 0.13888 0.57045 0.01905 0.0
C2377 C 0.16324 0.59338 0.99502 0.0
C2378 C 0.17671 0.61242 0.98938 0.0
C2379 C 0.18888 0.62379 0.00686 0.0
C2380 C 0.20141 0.64177 0.00146 0.0
C2381 C 0.20198 0.6485 0.97858 0.0
C2382 C 0.19006 0.63725 0.96104 0.0
C2383 C 0.17749 0.61927 0.96636 0.0
H2384 H 0.21169 0.66242 0.97444 0.0
H2385 H 0.08769 0.48799 0.02327 0.0
H2386 H 0.53896 0.14709 0.58948 0.0
H2387 H 0.56307 0.15035 0.56348 0.0
H2388 H 0.52997 0.14351 0.50196 0.0
H2389 H 0.5053 0.13979 0.52816 0.0
H2390 H 0.54437 0.12223 0.49913 0.0
H2391 H 0.56769 0.18474 0.51534 0.0
H2392 H 0.57686 0.21183 0.54001 0.0
H2393 H 0.61645 0.20313 0.57539 0.0
H2394 H 0.60734 0.17583 0.55116 0.0
H2395 H 0.61245 0.1433 0.41506 0.0
H2396 H 0.59123 0.14617 0.44078 0.0
H2397 H 0.62039 0.14481 0.50271 0.0
H2398 H 0.64203 0.14183 0.47683 0.0
H2399 H 0.60843 0.17104 0.50484 0.0
H2400 H 0.584 0.1078 0.48896 0.0
H2401 H 0.57485 0.08109 0.46352 0.0
H2402 H 0.53717 0.09184 0.42667 0.0
H2403 H 0.54629 0.11879 0.45167 0.0
C2404 C 0.53675 0.14645 0.57041 0.0
C2405 C 0.52005 0.14304 0.56095 0.0
C2406 C 0.5507 0.14847 0.55552 0.0
C2407 C 0.54846 0.14734 0.53072 0.0
C2408 C 0.53202 0.14448 0.52107 0.0
C2409 C 0.51796 0.14245 0.53605 0.0
C2410 C 0.56285 0.14781 0.51523 0.0
C2411 C 0.5583 0.13309 0.50008 0.0
C2412 C 0.58117 0.1617 0.51696 0.0
C2413 C 0.58672 0.17814 0.53155 0.0
C2414 C 0.57826 0.18852 0.52851 0.0
C2415 C 0.58346 0.20393 0.54239 0.0
C2416 C 0.5972 0.20918 0.55929 0.0
C2417 C 0.6058 0.19904 0.56231 0.0
C2418 C 0.60063 0.18361 0.54848 0.0
C2419 C 0.61455 0.14367 0.43414 0.0
C2420 C 0.62891 0.14207 0.44384 0.0
C2421 C 0.60232 0.14533 0.44882 0.0
C2422 C 0.60405 0.14542 0.47363 0.0
C2423 C 0.61879 0.14468 0.48355 0.0
C2424 C 0.63112 0.14296 0.46875 0.0
C2425 C 0.58987 0.14549 0.48887 0.0
C2426 C 0.59446 0.16026 0.50392 0.0
C2427 C 0.57156 0.13169 0.48701 0.0
C2428 C 0.56595 0.11541 0.47205 0.0
C2429 C 0.57387 0.10456 0.47531 0.0
C2430 C 0.56867 0.08935 0.46099 0.0
C2431 C 0.55547 0.08479 0.44345 0.0
C2432 C 0.5474 0.0954 0.44025 0.0
C2433 C 0.55257 0.11063 0.4545 0.0
H2434 H 0.55146 0.07302 0.43238 0.0
H2435 H 0.60121 0.22111 0.57003 0.0
H2436 H 0.50508 0.37053 0.02751 0.0
H2437 H 0.52999 0.39182 0.00201 0.0
H2438 H 0.56738 0.40395 0.0602 0.0
H2439 H 0.54255 0.38328 0.08581 0.0
H2440 H 0.57251 0.43382 0.04225 0.0
H2441 H 0.56662 0.37949 0.00871 0.0
H2442 H 0.55054 0.34921 0.99042 0.0
H2443 H 0.53576 0.37062 0.9308 0.0
H2444 H 0.55154 0.40098 0.94888 0.0
H2445 H 0.64839 0.49383 0.96997 0.0
H2446 H 0.6283 0.46842 0.99584 0.0
H2447 H 0.58577 0.45094 0.94353 0.0
H2448 H 0.60562 0.47558 0.91763 0.0
H2449 H 0.58584 0.42279 0.96 0.0
H2450 H 0.58843 0.47589 0.99552 0.0
H2451 H 0.6038 0.50621 0.01379 0.0
H2452 H 0.62425 0.48692 0.06957 0.0
H2453 H 0.60916 0.45653 0.05146 0.0
C2454 C 0.51868 0.37747 0.03465 0.0
C2455 C 0.52184 0.37531 0.05867 0.0
C2456 C 0.53294 0.38964 0.02008 0.0
C2457 C 0.55065 0.39953 0.02913 0.0
C2458 C 0.55387 0.39664 0.0528 0.0
C2459 C 0.53965 0.38475 0.06741 0.0
C2460 C 0.56562 0.41383 0.01468 0.0
C2461 C 0.57562 0.43128 0.02441 0.0
C2462 C 0.56954 0.41072 0.99124 0.0
C2463 C 0.56016 0.39249 0.98025 0.0
C2464 C 0.55985 0.37772 0.99177 0.0
C2465 C 0.5508 0.36054 0.98143 0.0
C2466 C 0.54211 0.35799 0.95949 0.0
C2467 C 0.54249 0.37262 0.9478 0.0
C2468 C 0.5515 0.38982 0.95807 0.0
C2469 C 0.63478 0.48451 0.964 0.0
C2470 C 0.6287 0.48681 0.94167 0.0
C2471 C 0.62328 0.47001 0.97882 0.0
C2472 C 0.60541 0.45778 0.97174 0.0
C2473 C 0.59948 0.46004 0.9494 0.0
C2474 C 0.61093 0.47428 0.93459 0.0
C2475 C 0.59249 0.44279 0.98745 0.0
C2476 C 0.58286 0.42522 0.97796 0.0
C2477 C 0.58884 0.44578 0.01109 0.0
C2478 C 0.59785 0.46402 0.022 0.0
C2479 C 0.59631 0.47816 0.01159 0.0
C2480 C 0.60495 0.49534 0.02193 0.0
C2481 C 0.61504 0.4985 0.04279 0.0
C2482 C 0.61646 0.48446 0.05339 0.0
C2483 C 0.60786 0.46726 0.04311 0.0
H2484 H 0.62173 0.51181 0.05076 0.0
H2485 H 0.5351 0.34468 0.95152 0.0
H2486 H 0.15496 0.64435 0.46732 0.0
H2487 H 0.15921 0.62356 0.4934 0.0
H2488 H 0.13204 0.5809 0.44184 0.0
H2489 H 0.12776 0.60121 0.41604 0.0
H2490 H 0.11947 0.56953 0.48651 0.0
H2491 H 0.1769 0.6022 0.44643 0.0
H2492 H 0.20508 0.6294 0.43421 0.0
H2493 H 0.22046 0.64235 0.50756 0.0
H2494 H 0.19221 0.61533 0.52024 0.0
H2495 H 0.13864 0.5023 0.52389 0.0
H2496 H 0.14033 0.52652 0.49856 0.0
H2497 H 0.16536 0.56463 0.55595 0.0
H2498 H 0.16358 0.54055 0.58134 0.0
H2499 H 0.17967 0.5795 0.51063 0.0
H2500 H 0.12253 0.54664 0.55062 0.0
H2501 H 0.09446 0.51932 0.56289 0.0
H2502 H 0.0785 0.50693 0.48962 0.0
H2503 H 0.10665 0.53404 0.47689 0.0
C2504 C 0.14991 0.63054 0.46161 0.0
C2505 C 0.14111 0.62454 0.43951 0.0
C2506 C 0.1524 0.6187 0.47646 0.0
C2507 C 0.14599 0.60068 0.46949 0.0
C2508 C 0.13708 0.59471 0.44761 0.0
C2509 C 0.13474 0.60645 0.43279 0.0
C2510 C 0.14822 0.58771 0.48479 0.0
C2511 C 0.13266 0.57167 0.4916 0.0
C2512 C 0.16538 0.59063 0.49186 0.0
C2513 C 0.18234 0.60688 0.48429 0.0
C2514 C 0.1862 0.61095 0.45996 0.0
C2515 C 0.20221 0.62631 0.45295 0.0
C2516 C 0.21452 0.63763 0.4701 0.0
C2517 C 0.21088 0.63359 0.4943 0.0
C2518 C 0.19488 0.61825 0.50141 0.0
C2519 C 0.14495 0.51593 0.53087 0.0
C2520 C 0.15084 0.51949 0.55466 0.0
C2521 C 0.14581 0.52973 0.51645 0.0
C2522 C 0.15276 0.54732 0.52551 0.0
C2523 C 0.15991 0.55117 0.54862 0.0
C2524 C 0.15883 0.53737 0.56312 0.0
C2525 C 0.15094 0.56123 0.51187 0.0
C2526 C 0.16652 0.57743 0.50554 0.0
C2527 C 0.13378 0.5585 0.50521 0.0
C2528 C 0.11679 0.54225 0.51279 0.0
C2529 C 0.11311 0.538 0.53711 0.0
C2530 C 0.09718 0.52257 0.54415 0.0
C2531 C 0.08473 0.51137 0.52704 0.0
C2532 C 0.08818 0.5156 0.50285 0.0
C2533 C 0.10411 0.531 0.49571 0.0
H2534 H 0.0724 0.49943 0.53252 0.0
H2535 H 0.22692 0.64951 0.46464 0.0
H2536 H 0.62618 0.16268 0.08784 0.0
H2537 H 0.60386 0.16468 0.0629 0.0
H2538 H 0.61677 0.14012 0.00469 0.0
H2539 H 0.63963 0.13855 0.02952 0.0
H2540 H 0.60963 0.16539 0.98845 0.0
H2541 H 0.58053 0.11485 0.04208 0.0
H2542 H 0.57331 0.09979 0.08129 0.0
H2543 H 0.55166 0.13301 0.1046 0.0
H2544 H 0.55897 0.14843 0.0656 0.0
H2545 H 0.52961 0.12696 0.92268 0.0
H2546 H 0.55456 0.13206 0.94829 0.0
H2547 H 0.53764 0.15767 0.00039 0.0
H2548 H 0.51208 0.15234 0.97467 0.0
H2549 H 0.54724 0.13464 0.0209 0.0
H2550 H 0.5741 0.18319 0.96476 0.0
H2551 H 0.58081 0.19704 0.92479 0.0
H2552 H 0.60623 0.16641 0.90539 0.0
H2553 H 0.59946 0.15219 0.94514 0.0
C2554 C 0.6245 0.15797 0.06959 0.0
C2555 C 0.63453 0.15028 0.06071 0.0
C2556 C 0.61165 0.15903 0.05539 0.0
C2557 C 0.60825 0.15208 0.03213 0.0
C2558 C 0.61905 0.14544 0.02266 0.0
C2559 C 0.63215 0.1446 0.03682 0.0
C2560 C 0.5928 0.15085 0.01828 0.0
C2561 C 0.59598 0.15854 0.99546 0.0
C2562 C 0.57499 0.14227 0.02764 0.0
C2563 C 0.57046 0.13291 0.05102 0.0
C2564 C 0.57434 0.11902 0.05563 0.0
C2565 C 0.57021 0.11041 0.0778 0.0
C2566 C 0.56208 0.11548 0.09545 0.0
C2567 C 0.55799 0.12912 0.09092 0.0
C2568 C 0.5621 0.13779 0.06878 0.0
C2569 C 0.53109 0.13375 0.93953 0.0
C2570 C 0.51886 0.13942 0.94645 0.0
C2571 C 0.5455 0.13672 0.95415 0.0
C2572 C 0.54827 0.14563 0.97601 0.0
C2573 C 0.53585 0.15091 0.98344 0.0
C2574 C 0.52125 0.14785 0.96876 0.0
C2575 C 0.56404 0.14905 0.99098 0.0
C2576 C 0.56093 0.14171 0.014 0.0
C2577 C 0.58188 0.15784 0.98174 0.0
C2578 C 0.58618 0.16655 0.9579 0.0
C2579 C 0.58103 0.17933 0.95193 0.0
C2580 C 0.58486 0.18726 0.92931 0.0
C2581 C 0.59392 0.18259 0.91255 0.0
C2582 C 0.59922 0.17002 0.91839 0.0
C2583 C 0.59542 0.16204 0.94098 0.0
H2584 H 0.59685 0.18873 0.89504 0.0
H2585 H 0.5589 0.1088 0.11261 0.0
H2586 H 0.49998 0.63819 0.52721 0.0
H2587 H 0.47516 0.61691 0.50151 0.0
H2588 H 0.44098 0.59434 0.56319 0.0
H2589 H 0.46554 0.61524 0.5888 0.0
H2590 H 0.44056 0.56837 0.53699 0.0
H2591 H 0.4338 0.62004 0.52236 0.0
H2592 H 0.4439 0.65152 0.51082 0.0
H2593 H 0.45797 0.64171 0.44116 0.0
H2594 H 0.44818 0.61023 0.4524 0.0
H2595 H 0.36268 0.50675 0.47064 0.0
H2596 H 0.3823 0.53147 0.49764 0.0
H2597 H 0.41861 0.55935 0.43936 0.0
H2598 H 0.39909 0.53531 0.41243 0.0
H2599 H 0.41611 0.58296 0.46555 0.0
H2600 H 0.42609 0.53293 0.48077 0.0
H2601 H 0.41718 0.50161 0.49179 0.0
H2602 H 0.39834 0.50862 0.5597 0.0
H2603 H 0.40695 0.53992 0.54895 0.0
C2604 C 0.48708 0.62891 0.53521 0.0
C2605 C 0.48484 0.62833 0.56009 0.0
C2606 C 0.47289 0.61675 0.52052 0.0
C2607 C 0.45618 0.60396 0.53044 0.0
C2608 C 0.45375 0.60395 0.55513 0.0
C2609 C 0.46786 0.61597 0.56975 0.0
C2610 C 0.44159 0.58978 0.51551 0.0
C2611 C 0.43501 0.57159 0.52159 0.0
C2612 C 0.43459 0.59391 0.49513 0.0
C2613 C 0.4404 0.61282 0.4883 0.0
C2614 C 0.43918 0.62463 0.50464 0.0
C2615 C 0.44482 0.64247 0.49814 0.0
C2616 C 0.45161 0.64863 0.47529 0.0
C2617 C 0.45273 0.63693 0.45887 0.0
C2618 C 0.44711 0.61908 0.46528 0.0
C2619 C 0.37475 0.51823 0.46356 0.0
C2620 C 0.3793 0.51887 0.43934 0.0
C2621 C 0.38601 0.53233 0.47903 0.0
C2622 C 0.40212 0.5472 0.47062 0.0
C2623 C 0.4063 0.54809 0.44634 0.0
C2624 C 0.39507 0.53418 0.43093 0.0
C2625 C 0.41518 0.56155 0.48694 0.0
C2626 C 0.42153 0.57976 0.48111 0.0
C2627 C 0.42211 0.55746 0.50747 0.0
C2628 C 0.41696 0.53867 0.51395 0.0
C2629 C 0.41992 0.52774 0.49798 0.0
C2630 C 0.41495 0.51 0.50419 0.0
C2631 C 0.40714 0.50311 0.5264 0.0
C2632 C 0.40435 0.51396 0.54248 0.0
C2633 C 0.40928 0.5317 0.53635 0.0
H2634 H 0.40331 0.48938 0.53117 0.0
H2635 H 0.45598 0.66244 0.4703 0.0
H2636 H 0.86818 0.36791 0.97228 0.0
H2637 H 0.86445 0.38905 0.99797 0.0
H2638 H 0.84779 0.40805 0.93715 0.0
H2639 H 0.85179 0.38734 0.91149 0.0
H2640 H 0.87328 0.4356 0.96036 0.0
H2641 H 0.81795 0.3824 0.98228 0.0
H2642 H 0.79906 0.35111 0.99652 0.0
H2643 H 0.82786 0.36511 0.06295 0.0
H2644 H 0.84711 0.39644 0.04898 0.0
H2645 H 0.85593 0.49596 0.02841 0.0
H2646 H 0.85117 0.47099 0.00211 0.0
H2647 H 0.86668 0.44762 0.05909 0.0
H2648 H 0.87098 0.47194 0.08539 0.0
H2649 H 0.83937 0.42179 0.03639 0.0
H2650 H 0.89636 0.47348 0.01364 0.0
H2651 H 0.91631 0.50472 0.99983 0.0
H2652 H 0.88527 0.49338 0.93548 0.0
H2653 H 0.865 0.46212 0.94905 0.0
C2654 C 0.86337 0.37633 0.96451 0.0
C2655 C 0.86043 0.37603 0.93981 0.0
C2656 C 0.86123 0.38843 0.9792 0.0
C2657 C 0.85585 0.40021 0.9695 0.0
C2658 C 0.85208 0.39924 0.94505 0.0
C2659 C 0.85435 0.38733 0.9304 0.0
C2660 C 0.85538 0.41444 0.9843 0.0
C2661 C 0.86558 0.43251 0.97678 0.0
C2662 C 0.84571 0.41054 0.00601 0.0
C2663 C 0.83407 0.39174 0.0145 0.0
C2664 C 0.82035 0.37878 0.99986 0.0
C2665 C 0.80956 0.36104 0.00789 0.0
C2666 C 0.81229 0.35611 0.0306 0.0
C2667 C 0.82578 0.36894 0.04535 0.0
C2668 C 0.83662 0.38669 0.0374 0.0
C2669 C 0.85819 0.48543 0.03536 0.0
C2670 C 0.86396 0.48611 0.05903 0.0
C2671 C 0.85553 0.47118 0.02029 0.0
C2672 C 0.85876 0.45748 0.02853 0.0
C2673 C 0.86405 0.45795 0.05227 0.0
C2674 C 0.86659 0.47202 0.0673 0.0
C2675 C 0.85734 0.44292 0.0125 0.0
C2676 C 0.84686 0.42482 0.01982 0.0
C2677 C 0.86686 0.44677 0.99067 0.0
C2678 C 0.87905 0.46554 0.98248 0.0
C2679 C 0.89371 0.47769 0.99663 0.0
C2680 C 0.90509 0.49539 0.98883 0.0
C2681 C 0.90202 0.50105 0.96683 0.0
C2682 C 0.8876 0.48899 0.95254 0.0
C2683 C 0.87618 0.47128 0.96027 0.0
H2684 H 0.91084 0.51476 0.96082 0.0
H2685 H 0.80392 0.34237 0.03678 0.0
H2686 H 0.4997 0.86011 0.47197 0.0
H2687 H 0.47434 0.85567 0.49731 0.0
H2688 H 0.44485 0.85575 0.43498 0.0
H2689 H 0.46981 0.86022 0.40978 0.0
H2690 H 0.44525 0.87843 0.46817 0.0
H2691 H 0.43311 0.81697 0.46534 0.0
H2692 H 0.44027 0.79256 0.47055 0.0
H2693 H 0.44916 0.80442 0.54531 0.0
H2694 H 0.44232 0.82909 0.54049 0.0
H2695 H 0.36305 0.85749 0.52458 0.0
H2696 H 0.38402 0.85414 0.49806 0.0
H2697 H 0.41271 0.85046 0.5591 0.0
H2698 H 0.39173 0.85324 0.58549 0.0
H2699 H 0.41209 0.82864 0.52595 0.0
H2700 H 0.42678 0.89081 0.5293 0.0
H2701 H 0.42089 0.91616 0.52538 0.0
H2702 H 0.40887 0.90412 0.45108 0.0
H2703 H 0.41446 0.87853 0.45465 0.0
C2704 C 0.48774 0.859 0.46367 0.0
C2705 C 0.48694 0.8607 0.43882 0.0
C2706 C 0.47324 0.85642 0.47817 0.0
C2707 C 0.45768 0.8554 0.46802 0.0
C2708 C 0.45672 0.85661 0.44323 0.0
C2709 C 0.47109 0.85917 0.42883 0.0
C2710 C 0.44268 0.85399 0.483 0.0
C2711 C 0.43783 0.86738 0.48055 0.0
C2712 C 0.43328 0.83985 0.49959 0.0
C2713 C 0.43737 0.825 0.50251 0.0
C2714 C 0.43675 0.81448 0.48286 0.0
C2715 C 0.44072 0.80058 0.48574 0.0
C2716 C 0.4452 0.79697 0.50824 0.0
C2717 C 0.4457 0.80725 0.52789 0.0
C2718 C 0.44177 0.82118 0.5251 0.0
C2719 C 0.37362 0.85563 0.53233 0.0
C2720 C 0.37582 0.85592 0.55719 0.0
C2721 C 0.38568 0.85383 0.51715 0.0
C2722 C 0.4002 0.85242 0.52658 0.0
C2723 C 0.40171 0.85161 0.55135 0.0
C2724 C 0.3897 0.85333 0.56645 0.0
C2725 C 0.4146 0.85303 0.51098 0.0
C2726 C 0.41941 0.83958 0.5134 0.0
C2727 C 0.42414 0.86724 0.4945 0.0
C2728 C 0.42082 0.88264 0.4923 0.0
C2729 C 0.42274 0.89349 0.51217 0.0
C2730 C 0.41948 0.90791 0.51001 0.0
C2731 C 0.41445 0.91171 0.48801 0.0
C2732 C 0.41273 0.90113 0.46812 0.0
C2733 C 0.41594 0.88667 0.47019 0.0
H2734 H 0.41194 0.92289 0.48637 0.0
H2735 H 0.44821 0.78617 0.51046 0.0
loop_
_geom_bond_atom_site_label_1
_geom_bond_atom_site_label_2
_geom_bond_distance
_geom_bond_site_symmetry_2
_ccdc_geom_bond_type
Co0 O1 2.216 . S
Co0 O2 2.091 . S
Co0 O4 2.004 . S
Co0 O10 2.021 . S
Co0 O12 2.137 . S
Co0 O13 2.244 . S
O1 Co0 2.216 . S
O1 C8 1.247 . S
O2 Co0 2.091 . S
O2 C8 1.261 . S
C3 O12 1.247 . S
C3 O13 1.272 . S
O4 Co0 2.004 . S
O4 C9 1.259 . S
Co5 O6 2.061 . S
Co5 O11 2.052 . S
Co5 O13 2.135 . S
O6 Co5 2.061 . S
O6 C9 1.235 . S
C7 O10 1.238 . S
C7 O11 1.241 . S
C8 O1 1.247 . S
C8 O2 1.261 . S
C9 O4 1.259 . S
C9 O6 1.235 . S
O10 Co0 2.021 . S
O10 C7 1.238 . S
O11 Co5 2.052 . S
O11 C7 1.241 . S
O12 Co0 2.137 . S
O12 C3 1.247 . S
O13 Co0 2.244 . S
O13 C3 1.272 . S
O13 Co5 2.135 . S
Co14 O15 2.216 . S
Co14 O16 2.091 . S
Co14 O18 2.004 . S
Co14 O24 2.021 . S
Co14 O26 2.137 . S
Co14 O27 2.244 . S
O15 Co14 2.216 . S
O15 C22 1.247 . S
O16 Co14 2.091 . S
O16 C22 1.261 . S
C17 O26 1.247 . S
C17 O27 1.272 . S
O18 Co14 2.004 . S
O18 C23 1.259 . S
Co19 O20 2.061 . S
Co19 O25 2.052 . S
Co19 O27 2.135 . S
O20 Co19 2.061 . S
O20 C23 1.235 . S
C21 O24 1.238 . S
C21 O25 1.241 . S
C22 O15 1.247 . S
C22 O16 1.261 . S
C23 O18 1.259 . S
C23 O20 1.235 . S
O24 Co14 2.021 . S
O24 C21 1.238 . S
O25 Co19 2.052 . S
O25 C21 1.241 . S
O26 Co14 2.137 . S
O26 C17 1.247 . S
O27 Co14 2.244 . S
O27 C17 1.272 . S
O27 Co19 2.135 . S
Co28 O29 2.216 . S
Co28 O30 2.091 . S
Co28 O32 2.004 . S
Co28 O38 2.021 . S
Co28 O40 2.137 . S
Co28 O41 2.244 . S
O29 Co28 2.216 . S
O29 C36 1.247 . S
O30 Co28 2.091 . S
O30 C36 1.261 . S
C31 O40 1.247 . S
C31 O41 1.272 . S
O32 Co28 2.004 . S
O32 C37 1.259 . S
Co33 O34 2.061 . S
Co33 O39 2.052 . S
Co33 O41 2.135 . S
O34 Co33 2.061 . S
O34 C37 1.235 . S
C35 O38 1.238 . S
C35 O39 1.241 . S
C36 O29 1.247 . S
C36 O30 1.261 . S
C37 O32 1.259 . S
C37 O34 1.235 . S
O38 Co28 2.021 . S
O38 C35 1.238 . S
O39 Co33 2.052 . S
O39 C35 1.241 . S
O40 Co28 2.137 . S
O40 C31 1.247 . S
O41 Co28 2.244 . S
O41 C31 1.272 . S
O41 Co33 2.135 . S
Co42 O43 2.216 . S
Co42 O44 2.091 . S
Co42 O46 2.004 . S
Co42 O52 2.021 . S
Co42 O54 2.137 . S
Co42 O55 2.244 . S
O43 Co42 2.216 . S
O43 C50 1.247 . S
O44 Co42 2.091 . S
O44 C50 1.261 . S
C45 O54 1.247 . S
C45 O55 1.272 . S
O46 Co42 2.004 . S
O46 C51 1.259 . S
Co47 O48 2.061 . S
Co47 O53 2.052 . S
Co47 O55 2.135 . S
O48 Co47 2.061 . S
O48 C51 1.235 . S
C49 O52 1.238 . S
C49 O53 1.241 . S
C50 O43 1.247 . S
C50 O44 1.261 . S
C51 O46 1.259 . S
C51 O48 1.235 . S
O52 Co42 2.021 . S
O52 C49 1.238 . S
O53 Co47 2.052 . S
O53 C49 1.241 . S
O54 Co42 2.137 . S
O54 C45 1.247 . S
O55 Co42 2.244 . S
O55 C45 1.272 . S
O55 Co47 2.135 . S
Co56 O57 2.216 . S
Co56 O58 2.091 . S
Co56 O60 2.004 . S
Co56 O66 2.021 . S
Co56 O68 2.137 . S
Co56 O69 2.244 . S
O57 Co56 2.216 . S
O57 C64 1.247 . S
O58 Co56 2.091 . S
O58 C64 1.261 . S
C59 O68 1.247 . S
C59 O69 1.272 . S
O60 Co56 2.004 . S
O60 C65 1.259 . S
Co61 O62 2.061 . S
Co61 O67 2.052 . S
Co61 O69 2.135 . S
O62 Co61 2.061 . S
O62 C65 1.235 . S
C63 O66 1.238 . S
C63 O67 1.241 . S
C64 O57 1.247 . S
C64 O58 1.261 . S
C65 O60 1.259 . S
C65 O62 1.235 . S
O66 Co56 2.021 . S
O66 C63 1.238 . S
O67 Co61 2.052 . S
O67 C63 1.241 . S
O68 Co56 2.137 . S
O68 C59 1.247 . S
O69 Co56 2.244 . S
O69 C59 1.272 . S
O69 Co61 2.135 . S
Co70 O71 2.216 . S
Co70 O72 2.091 . S
Co70 O74 2.004 . S
Co70 O80 2.021 . S
Co70 O82 2.137 . S
Co70 O83 2.244 . S
O71 Co70 2.216 . S
O71 C78 1.247 . S
O72 Co70 2.091 . S
O72 C78 1.261 . S
C73 O82 1.247 . S
C73 O83 1.272 . S
O74 Co70 2.004 . S
O74 C79 1.259 . S
Co75 O76 2.061 . S
Co75 O81 2.052 . S
Co75 O83 2.135 . S
O76 Co75 2.061 . S
O76 C79 1.235 . S
C77 O80 1.238 . S
C77 O81 1.241 . S
C78 O71 1.247 . S
C78 O72 1.261 . S
C79 O74 1.259 . S
C79 O76 1.235 . S
O80 Co70 2.021 . S
O80 C77 1.238 . S
O81 Co75 2.052 . S
O81 C77 1.241 . S
O82 Co70 2.137 . S
O82 C73 1.247 . S
O83 Co70 2.244 . S
O83 C73 1.272 . S
O83 Co75 2.135 . S
Co84 O85 2.216 . S
Co84 O86 2.091 . S
Co84 O88 2.004 . S
Co84 O94 2.021 . S
Co84 O96 2.137 . S
Co84 O97 2.244 . S
O85 Co84 2.216 . S
O85 C92 1.247 . S
O86 Co84 2.091 . S
O86 C92 1.261 . S
C87 O96 1.247 . S
C87 O97 1.272 . S
O88 Co84 2.004 . S
O88 C93 1.259 . S
Co89 O90 2.061 . S
Co89 O95 2.052 . S
Co89 O97 2.135 . S
O90 Co89 2.061 . S
O90 C93 1.235 . S
C91 O94 1.238 . S
C91 O95 1.241 . S
C92 O85 1.247 . S
C92 O86 1.261 . S
C93 O88 1.259 . S
C93 O90 1.235 . S
O94 Co84 2.021 . S
O94 C91 1.238 . S
O95 Co89 2.052 . S
O95 C91 1.241 . S
O96 Co84 2.137 . S
O96 C87 1.247 . S
O97 Co84 2.244 . S
O97 C87 1.272 . S
O97 Co89 2.135 . S
Co98 O99 2.216 . S
Co98 O100 2.091 . S
Co98 O102 2.004 . S
Co98 O108 2.021 . S
Co98 O110 2.137 . S
Co98 O111 2.244 . S
O99 Co98 2.216 . S
O99 C106 1.247 . S
O100 Co98 2.091 . S
O100 C106 1.261 . S
C101 O110 1.247 . S
C101 O111 1.272 . S
O102 Co98 2.004 . S
O102 C107 1.259 . S
Co103 O104 2.061 . S
Co103 O109 2.052 . S
Co103 O111 2.135 . S
O104 Co103 2.061 . S
O104 C107 1.235 . S
C105 O108 1.238 . S
C105 O109 1.241 . S
C106 O99 1.247 . S
C106 O100 1.261 . S
C107 O102 1.259 . S
C107 O104 1.235 . S
O108 Co98 2.021 . S
O108 C105 1.238 . S
O109 Co103 2.052 . S
O109 C105 1.241 . S
O110 Co98 2.137 . S
O110 C101 1.247 . S
O111 Co98 2.244 . S
O111 C101 1.272 . S
O111 Co103 2.135 . S
Co112 O113 2.216 . S
Co112 O114 2.091 . S
Co112 O116 2.004 . S
Co112 O122 2.021 . S
Co112 O124 2.137 . S
Co112 O125 2.244 . S
O113 Co112 2.216 . S
O113 C120 1.247 . S
O114 Co112 2.091 . S
O114 C120 1.261 . S
C115 O124 1.247 . S
C115 O125 1.272 . S
O116 Co112 2.004 . S
O116 C121 1.259 . S
Co117 O118 2.061 . S
Co117 O123 2.052 . S
Co117 O125 2.135 . S
O118 Co117 2.061 . S
O118 C121 1.235 . S
C119 O122 1.238 . S
C119 O123 1.241 . S
C120 O113 1.247 . S
C120 O114 1.261 . S
C121 O116 1.259 . S
C121 O118 1.235 . S
O122 Co112 2.021 . S
O122 C119 1.238 . S
O123 Co117 2.052 . S
O123 C119 1.241 . S
O124 Co112 2.137 . S
O124 C115 1.247 . S
O125 Co112 2.244 . S
O125 C115 1.272 . S
O125 Co117 2.135 . S
Co126 O127 2.216 . S
Co126 O128 2.091 . S
Co126 O130 2.004 . S
Co126 O136 2.021 . S
Co126 O138 2.137 . S
Co126 O139 2.244 . S
O127 Co126 2.216 . S
O127 C134 1.247 . S
O128 Co126 2.091 . S
O128 C134 1.261 . S
C129 O138 1.247 . S
C129 O139 1.272 . S
O130 Co126 2.004 . S
O130 C135 1.259 . S
Co131 O132 2.061 . S
Co131 O137 2.052 . S
Co131 O139 2.135 . S
O132 Co131 2.061 . S
O132 C135 1.235 . S
C133 O136 1.238 . S
C133 O137 1.241 . S
C134 O127 1.247 . S
C134 O128 1.261 . S
C135 O130 1.259 . S
C135 O132 1.235 . S
O136 Co126 2.021 . S
O136 C133 1.238 . S
O137 Co131 2.052 . S
O137 C133 1.241 . S
O138 Co126 2.137 . S
O138 C129 1.247 . S
O139 Co126 2.244 . S
O139 C129 1.272 . S
O139 Co131 2.135 . S
Co140 O141 2.216 . S
Co140 O142 2.091 . S
Co140 O144 2.004 . S
Co140 O150 2.021 . S
Co140 O152 2.137 . S
Co140 O153 2.244 . S
O141 Co140 2.216 . S
O141 C148 1.247 . S
O142 Co140 2.091 . S
O142 C148 1.261 . S
C143 O152 1.247 . S
C143 O153 1.272 . S
O144 Co140 2.004 . S
O144 C149 1.259 . S
Co145 O146 2.061 . S
Co145 O151 2.052 . S
Co145 O153 2.135 . S
O146 Co145 2.061 . S
O146 C149 1.235 . S
C147 O150 1.238 . S
C147 O151 1.241 . S
C148 O141 1.247 . S
C148 O142 1.261 . S
C149 O144 1.259 . S
C149 O146 1.235 . S
O150 Co140 2.021 . S
O150 C147 1.238 . S
O151 Co145 2.052 . S
O151 C147 1.241 . S
O152 Co140 2.137 . S
O152 C143 1.247 . S
O153 Co140 2.244 . S
O153 C143 1.272 . S
O153 Co145 2.135 . S
Co154 O155 2.216 . S
Co154 O156 2.091 . S
Co154 O158 2.004 . S
Co154 O164 2.021 . S
Co154 O166 2.137 . S
Co154 O167 2.244 . S
O155 Co154 2.216 . S
O155 C162 1.247 . S
O156 Co154 2.091 . S
O156 C162 1.261 . S
C157 O166 1.247 . S
C157 O167 1.272 . S
O158 Co154 2.004 . S
O158 C163 1.259 . S
Co159 O160 2.061 . S
Co159 O165 2.052 . S
Co159 O167 2.135 . S
O160 Co159 2.061 . S
O160 C163 1.235 . S
C161 O164 1.238 . S
C161 O165 1.241 . S
C162 O155 1.247 . S
C162 O156 1.261 . S
C163 O158 1.259 . S
C163 O160 1.235 . S
O164 Co154 2.021 . S
O164 C161 1.238 . S
O165 Co159 2.052 . S
O165 C161 1.241 . S
O166 Co154 2.137 . S
O166 C157 1.247 . S
O167 Co154 2.244 . S
O167 C157 1.272 . S
O167 Co159 2.135 . S
Co168 O169 2.216 . S
Co168 O170 2.091 . S
Co168 O172 2.004 . S
Co168 O178 2.021 . S
Co168 O180 2.137 . S
Co168 O181 2.244 . S
O169 Co168 2.216 . S
O169 C176 1.247 . S
O170 Co168 2.091 . S
O170 C176 1.261 . S
C171 O180 1.247 . S
C171 O181 1.272 . S
O172 Co168 2.004 . S
O172 C177 1.259 . S
Co173 O174 2.061 . S
Co173 O179 2.052 . S
Co173 O181 2.135 . S
O174 Co173 2.061 . S
O174 C177 1.235 . S
C175 O178 1.238 . S
C175 O179 1.241 . S
C176 O169 1.247 . S
C176 O170 1.261 . S
C177 O172 1.259 . S
C177 O174 1.235 . S
O178 Co168 2.021 . S
O178 C175 1.238 . S
O179 Co173 2.052 . S
O179 C175 1.241 . S
O180 Co168 2.137 . S
O180 C171 1.247 . S
O181 Co168 2.244 . S
O181 C171 1.272 . S
O181 Co173 2.135 . S
Co182 O183 2.216 . S
Co182 O184 2.091 . S
Co182 O186 2.004 . S
Co182 O192 2.021 . S
Co182 O194 2.137 . S
Co182 O195 2.244 . S
O183 Co182 2.216 . S
O183 C190 1.247 . S
O184 Co182 2.091 . S
O184 C190 1.261 . S
C185 O194 1.247 . S
C185 O195 1.272 . S
O186 Co182 2.004 . S
O186 C191 1.259 . S
Co187 O188 2.061 . S
Co187 O193 2.052 . S
Co187 O195 2.135 . S
O188 Co187 2.061 . S
O188 C191 1.235 . S
C189 O192 1.238 . S
C189 O193 1.241 . S
C190 O183 1.247 . S
C190 O184 1.261 . S
C191 O186 1.259 . S
C191 O188 1.235 . S
O192 Co182 2.021 . S
O192 C189 1.238 . S
O193 Co187 2.052 . S
O193 C189 1.241 . S
O194 Co182 2.137 . S
O194 C185 1.247 . S
O195 Co182 2.244 . S
O195 C185 1.272 . S
O195 Co187 2.135 . S
Co196 O197 2.216 . S
Co196 O198 2.091 . S
Co196 O200 2.004 . S
Co196 O206 2.021 . S
Co196 O208 2.137 . S
Co196 O209 2.244 . S
O197 Co196 2.216 . S
O197 C204 1.247 . S
O198 Co196 2.091 . S
O198 C204 1.261 . S
C199 O208 1.247 . S
C199 O209 1.272 . S
O200 Co196 2.004 . S
O200 C205 1.259 . S
Co201 O202 2.061 . S
Co201 O207 2.052 . S
Co201 O209 2.135 . S
O202 Co201 2.061 . S
O202 C205 1.235 . S
C203 O206 1.238 . S
C203 O207 1.241 . S
C204 O197 1.247 . S
C204 O198 1.261 . S
C205 O200 1.259 . S
C205 O202 1.235 . S
O206 Co196 2.021 . S
O206 C203 1.238 . S
O207 Co201 2.052 . S
O207 C203 1.241 . S
O208 Co196 2.137 . S
O208 C199 1.247 . S
O209 Co196 2.244 . S
O209 C199 1.272 . S
O209 Co201 2.135 . S
Co210 O211 2.216 . S
Co210 O212 2.091 . S
Co210 O214 2.004 . S
Co210 O220 2.021 . S
Co210 O222 2.137 . S
Co210 O223 2.244 . S
O211 Co210 2.216 . S
O211 C218 1.247 . S
O212 Co210 2.091 . S
O212 C218 1.261 . S
C213 O222 1.247 . S
C213 O223 1.272 . S
O214 Co210 2.004 . S
O214 C219 1.259 . S
Co215 O216 2.061 . S
Co215 O221 2.052 . S
Co215 O223 2.135 . S
O216 Co215 2.061 . S
O216 C219 1.235 . S
C217 O220 1.238 . S
C217 O221 1.241 . S
C218 O211 1.247 . S
C218 O212 1.261 . S
C219 O214 1.259 . S
C219 O216 1.235 . S
O220 Co210 2.021 . S
O220 C217 1.238 . S
O221 Co215 2.052 . S
O221 C217 1.241 . S
O222 Co210 2.137 . S
O222 C213 1.247 . S
O223 Co210 2.244 . S
O223 C213 1.272 . S
O223 Co215 2.135 . S
Co224 O225 2.216 . S
Co224 O226 2.091 . S
Co224 O228 2.004 . S
Co224 O234 2.021 . S
Co224 O236 2.137 . S
Co224 O237 2.244 . S
O225 Co224 2.216 . S
O225 C232 1.247 . S
O226 Co224 2.091 . S
O226 C232 1.261 . S
C227 O236 1.247 . S
C227 O237 1.272 . S
O228 Co224 2.004 . S
O228 C233 1.259 . S
Co229 O230 2.061 . S
Co229 O235 2.052 . S
Co229 O237 2.135 . S
O230 Co229 2.061 . S
O230 C233 1.235 . S
C231 O234 1.238 . S
C231 O235 1.241 . S
C232 O225 1.247 . S
C232 O226 1.261 . S
C233 O228 1.259 . S
C233 O230 1.235 . S
O234 Co224 2.021 . S
O234 C231 1.238 . S
O235 Co229 2.052 . S
O235 C231 1.241 . S
O236 Co224 2.137 . S
O236 C227 1.247 . S
O237 Co224 2.244 . S
O237 C227 1.272 . S
O237 Co229 2.135 . S
Co238 O239 2.216 . S
Co238 O240 2.091 . S
Co238 O242 2.004 . S
Co238 O248 2.021 . S
Co238 O250 2.137 . S
Co238 O251 2.244 . S
O239 Co238 2.216 . S
O239 C246 1.247 . S
O240 Co238 2.091 . S
O240 C246 1.261 . S
C241 O250 1.247 . S
C241 O251 1.272 . S
O242 Co238 2.004 . S
O242 C247 1.259 . S
Co243 O244 2.061 . S
Co243 O249 2.052 . S
Co243 O251 2.135 . S
O244 Co243 2.061 . S
O244 C247 1.235 . S
C245 O248 1.238 . S
C245 O249 1.241 . S
C246 O239 1.247 . S
C246 O240 1.261 . S
C247 O242 1.259 . S
C247 O244 1.235 . S
O248 Co238 2.021 . S
O248 C245 1.238 . S
O249 Co243 2.052 . S
O249 C245 1.241 . S
O250 Co238 2.137 . S
O250 C241 1.247 . S
O251 Co238 2.244 . S
O251 C241 1.272 . S
O251 Co243 2.135 . S
Co252 O253 2.216 . S
Co252 O254 2.091 . S
Co252 O256 2.004 . S
Co252 O262 2.021 . S
Co252 O264 2.137 . S
Co252 O265 2.244 . S
O253 Co252 2.216 . S
O253 C260 1.247 . S
O254 Co252 2.091 . S
O254 C260 1.261 . S
C255 O264 1.247 . S
C255 O265 1.272 . S
O256 Co252 2.004 . S
O256 C261 1.259 . S
Co257 O258 2.061 . S
Co257 O263 2.052 . S
Co257 O265 2.135 . S
O258 Co257 2.061 . S
O258 C261 1.235 . S
C259 O262 1.238 . S
C259 O263 1.241 . S
C260 O253 1.247 . S
C260 O254 1.261 . S
C261 O256 1.259 . S
C261 O258 1.235 . S
O262 Co252 2.021 . S
O262 C259 1.238 . S
O263 Co257 2.052 . S
O263 C259 1.241 . S
O264 Co252 2.137 . S
O264 C255 1.247 . S
O265 Co252 2.244 . S
O265 C255 1.272 . S
O265 Co257 2.135 . S
Co266 O267 2.216 . S
Co266 O268 2.091 . S
Co266 O270 2.004 . S
Co266 O276 2.021 . S
Co266 O278 2.137 . S
Co266 O279 2.244 . S
O267 Co266 2.216 . S
O267 C274 1.247 . S
O268 Co266 2.091 . S
O268 C274 1.261 . S
C269 O278 1.247 . S
C269 O279 1.272 . S
O270 Co266 2.004 . S
O270 C275 1.259 . S
Co271 O272 2.061 . S
Co271 O277 2.052 . S
Co271 O279 2.135 . S
O272 Co271 2.061 . S
O272 C275 1.235 . S
C273 O276 1.238 . S
C273 O277 1.241 . S
C274 O267 1.247 . S
C274 O268 1.261 . S
C275 O270 1.259 . S
C275 O272 1.235 . S
O276 Co266 2.021 . S
O276 C273 1.238 . S
O277 Co271 2.052 . S
O277 C273 1.241 . S
O278 Co266 2.137 . S
O278 C269 1.247 . S
O279 Co266 2.244 . S
O279 C269 1.272 . S
O279 Co271 2.135 . S
Co280 O281 2.216 . S
Co280 O282 2.091 . S
Co280 O284 2.004 . S
Co280 O290 2.021 . S
Co280 O292 2.137 . S
Co280 O293 2.244 . S
O281 Co280 2.216 . S
O281 C288 1.247 . S
O282 Co280 2.091 . S
O282 C288 1.261 . S
C283 O292 1.247 . S
C283 O293 1.272 . S
O284 Co280 2.004 . S
O284 C289 1.259 . S
Co285 O286 2.061 . S
Co285 O291 2.052 . S
Co285 O293 2.135 . S
O286 Co285 2.061 . S
O286 C289 1.235 . S
C287 O290 1.238 . S
C287 O291 1.241 . S
C288 O281 1.247 . S
C288 O282 1.261 . S
C289 O284 1.259 . S
C289 O286 1.235 . S
O290 Co280 2.021 . S
O290 C287 1.238 . S
O291 Co285 2.052 . S
O291 C287 1.241 . S
O292 Co280 2.137 . S
O292 C283 1.247 . S
O293 Co280 2.244 . S
O293 C283 1.272 . S
O293 Co285 2.135 . S
Co294 O295 2.216 . S
Co294 O296 2.091 . S
Co294 O298 2.004 . S
Co294 O304 2.021 . S
Co294 O306 2.137 . S
Co294 O307 2.244 . S
O295 Co294 2.216 . S
O295 C302 1.247 . S
O296 Co294 2.091 . S
O296 C302 1.261 . S
C297 O306 1.247 . S
C297 O307 1.272 . S
O298 Co294 2.004 . S
O298 C303 1.259 . S
Co299 O300 2.061 . S
Co299 O305 2.052 . S
Co299 O307 2.135 . S
O300 Co299 2.061 . S
O300 C303 1.235 . S
C301 O304 1.238 . S
C301 O305 1.241 . S
C302 O295 1.247 . S
C302 O296 1.261 . S
C303 O298 1.259 . S
C303 O300 1.235 . S
O304 Co294 2.021 . S
O304 C301 1.238 . S
O305 Co299 2.052 . S
O305 C301 1.241 . S
O306 Co294 2.137 . S
O306 C297 1.247 . S
O307 Co294 2.244 . S
O307 C297 1.272 . S
O307 Co299 2.135 . S
Co308 O309 2.216 . S
Co308 O310 2.091 . S
Co308 O312 2.004 . S
Co308 O318 2.021 . S
Co308 O320 2.137 . S
Co308 O321 2.244 . S
O309 Co308 2.216 . S
O309 C316 1.247 . S
O310 Co308 2.091 . S
O310 C316 1.261 . S
C311 O320 1.247 . S
C311 O321 1.272 . S
O312 Co308 2.004 . S
O312 C317 1.259 . S
Co313 O314 2.061 . S
Co313 O319 2.052 . S
Co313 O321 2.135 . S
O314 Co313 2.061 . S
O314 C317 1.235 . S
C315 O318 1.238 . S
C315 O319 1.241 . S
C316 O309 1.247 . S
C316 O310 1.261 . S
C317 O312 1.259 . S
C317 O314 1.235 . S
O318 Co308 2.021 . S
O318 C315 1.238 . S
O319 Co313 2.052 . S
O319 C315 1.241 . S
O320 Co308 2.137 . S
O320 C311 1.247 . S
O321 Co308 2.244 . S
O321 C311 1.272 . S
O321 Co313 2.135 . S
Co322 O323 2.216 . S
Co322 O324 2.091 . S
Co322 O326 2.004 . S
Co322 O332 2.021 . S
Co322 O334 2.137 . S
Co322 O335 2.244 . S
O323 Co322 2.216 . S
O323 C330 1.247 . S
O324 Co322 2.091 . S
O324 C330 1.261 . S
C325 O334 1.247 . S
C325 O335 1.272 . S
O326 Co322 2.004 . S
O326 C331 1.259 . S
Co327 O328 2.061 . S
Co327 O333 2.052 . S
Co327 O335 2.135 . S
O328 Co327 2.061 . S
O328 C331 1.235 . S
C329 O332 1.238 . S
C329 O333 1.241 . S
C330 O323 1.247 . S
C330 O324 1.261 . S
C331 O326 1.259 . S
C331 O328 1.235 . S
O332 Co322 2.021 . S
O332 C329 1.238 . S
O333 Co327 2.052 . S
O333 C329 1.241 . S
O334 Co322 2.137 . S
O334 C325 1.247 . S
O335 Co322 2.244 . S
O335 C325 1.272 . S
O335 Co327 2.135 . S
H336 C354 0.951 . S
H337 C356 0.951 . S
H338 C358 0.950 . S
H339 C359 0.950 . S
H340 C361 0.950 . S
H341 C364 0.950 . S
H342 C365 0.950 . S
H343 C367 0.950 . S
H344 C368 0.950 . S
H345 C369 0.951 . S
H346 C371 0.951 . S
H347 C373 0.950 . S
H348 C374 0.950 . S
H349 C376 0.950 . S
H350 C379 0.950 . S
H351 C380 0.950 . S
H352 C382 0.950 . S
H353 C383 0.950 . S
C354 H336 0.951 . S
C354 C355 1.366 . S
C354 C356 1.388 . S
C355 C354 1.366 . S
C355 C359 1.385 . S
C356 H337 0.951 . S
C356 C354 1.388 . S
C356 C357 1.366 . S
C357 C356 1.366 . S
C357 C358 1.414 . S
C357 C360 1.499 . S
C358 H338 0.950 . S
C358 C357 1.414 . S
C358 C359 1.374 . S
C359 H339 0.950 . S
C359 C355 1.385 . S
C359 C358 1.374 . S
C360 C357 1.499 . S
C360 C361 1.373 . S
C360 C362 1.389 . S
C361 H340 0.950 . S
C361 C360 1.373 . S
C361 C377 1.377 . S
C362 C360 1.389 . S
C362 C363 1.524 . S
C362 C376 1.377 . S
C363 C362 1.524 . S
C363 C364 1.397 . S
C363 C368 1.363 . S
C364 H341 0.950 . S
C364 C363 1.397 . S
C364 C365 1.334 . S
C365 H342 0.950 . S
C365 C364 1.334 . S
C365 C366 1.287 . S
C366 C365 1.287 . S
C366 C367 1.524 . S
C366 H385 0.913 . S
C367 H343 0.950 . S
C367 C366 1.524 . S
C367 C368 1.415 . S
C368 H344 0.950 . S
C368 C363 1.363 . S
C368 C367 1.415 . S
C369 H345 0.951 . S
C369 C370 1.366 . S
C369 C371 1.388 . S
C370 C369 1.366 . S
C370 C374 1.385 . S
C371 H346 0.951 . S
C371 C369 1.388 . S
C371 C372 1.366 . S
C372 C371 1.366 . S
C372 C373 1.414 . S
C372 C375 1.499 . S
C373 H347 0.950 . S
C373 C372 1.414 . S
C373 C374 1.374 . S
C374 H348 0.950 . S
C374 C370 1.385 . S
C374 C373 1.374 . S
C375 C372 1.499 . S
C375 C376 1.373 . S
C375 C377 1.389 . S
C376 H349 0.950 . S
C376 C362 1.377 . S
C376 C375 1.373 . S
C377 C361 1.377 . S
C377 C375 1.389 . S
C377 C378 1.524 . S
C378 C377 1.524 . S
C378 C379 1.397 . S
C378 C383 1.363 . S
C379 H350 0.950 . S
C379 C378 1.397 . S
C379 C380 1.334 . S
C380 H351 0.950 . S
C380 C379 1.334 . S
C380 C381 1.287 . S
C381 C380 1.287 . S
C381 C382 1.524 . S
C381 H384 0.999 . S
C382 H352 0.950 . S
C382 C381 1.524 . S
C382 C383 1.415 . S
C383 H353 0.950 . S
C383 C378 1.363 . S
C383 C382 1.415 . S
H384 C381 0.999 . S
H385 C366 0.913 . S
H386 C404 0.951 . S
H387 C406 0.951 . S
H388 C408 0.950 . S
H389 C409 0.950 . S
H390 C411 0.950 . S
H391 C414 0.950 . S
H392 C415 0.950 . S
H393 C417 0.950 . S
H394 C418 0.950 . S
H395 C419 0.951 . S
H396 C421 0.951 . S
H397 C423 0.950 . S
H398 C424 0.950 . S
H399 C426 0.950 . S
H400 C429 0.950 . S
H401 C430 0.950 . S
H402 C432 0.950 . S
H403 C433 0.950 . S
C404 H386 0.951 . S
C404 C405 1.366 . S
C404 C406 1.388 . S
C405 C404 1.366 . S
C405 C409 1.385 . S
C406 H387 0.951 . S
C406 C404 1.388 . S
C406 C407 1.366 . S
C407 C406 1.366 . S
C407 C408 1.414 . S
C407 C410 1.499 . S
C408 H388 0.950 . S
C408 C407 1.414 . S
C408 C409 1.374 . S
C409 H389 0.950 . S
C409 C405 1.385 . S
C409 C408 1.374 . S
C410 C407 1.499 . S
C410 C411 1.373 . S
C410 C412 1.389 . S
C411 H390 0.950 . S
C411 C410 1.373 . S
C411 C427 1.377 . S
C412 C410 1.389 . S
C412 C413 1.524 . S
C412 C426 1.377 . S
C413 C412 1.524 . S
C413 C414 1.397 . S
C413 C418 1.363 . S
C414 H391 0.950 . S
C414 C413 1.397 . S
C414 C415 1.334 . S
C415 H392 0.950 . S
C415 C414 1.334 . S
C415 C416 1.287 . S
C416 C415 1.287 . S
C416 C417 1.524 . S
C416 H435 0.913 . S
C417 H393 0.950 . S
C417 C416 1.524 . S
C417 C418 1.415 . S
C418 H394 0.950 . S
C418 C413 1.363 . S
C418 C417 1.415 . S
C419 H395 0.951 . S
C419 C420 1.366 . S
C419 C421 1.388 . S
C420 C419 1.366 . S
C420 C424 1.385 . S
C421 H396 0.951 . S
C421 C419 1.388 . S
C421 C422 1.366 . S
C422 C421 1.366 . S
C422 C423 1.414 . S
C422 C425 1.499 . S
C423 H397 0.950 . S
C423 C422 1.414 . S
C423 C424 1.374 . S
C424 H398 0.950 . S
C424 C420 1.385 . S
C424 C423 1.374 . S
C425 C422 1.499 . S
C425 C426 1.373 . S
C425 C427 1.389 . S
C426 H399 0.950 . S
C426 C412 1.377 . S
C426 C425 1.373 . S
C427 C411 1.377 . S
C427 C425 1.389 . S
C427 C428 1.524 . S
C428 C427 1.524 . S
C428 C429 1.397 . S
C428 C433 1.363 . S
C429 H400 0.950 . S
C429 C428 1.397 . S
C429 C430 1.334 . S
C430 H401 0.950 . S
C430 C429 1.334 . S
C430 C431 1.287 . S
C431 C430 1.287 . S
C431 C432 1.524 . S
C431 H434 0.999 . S
C432 H402 0.950 . S
C432 C431 1.524 . S
C432 C433 1.415 . S
C433 H403 0.950 . S
C433 C428 1.363 . S
C433 C432 1.415 . S
H434 C431 0.999 . S
H435 C416 0.913 . S
H436 C454 0.951 . S
H437 C456 0.951 . S
H438 C458 0.950 . S
H439 C459 0.950 . S
H440 C461 0.950 . S
H441 C464 0.950 . S
H442 C465 0.950 . S
H443 C467 0.950 . S
H444 C468 0.950 . S
H445 C469 0.951 . S
H446 C471 0.951 . S
H447 C473 0.950 . S
H448 C474 0.950 . S
H449 C476 0.950 . S
H450 C479 0.950 . S
H451 C480 0.950 . S
H452 C482 0.950 . S
H453 C483 0.950 . S
C454 H436 0.951 . S
C454 C455 1.366 . S
C454 C456 1.388 . S
C455 C454 1.366 . S
C455 C459 1.385 . S
C456 H437 0.951 . S
C456 C454 1.388 . S
C456 C457 1.366 . S
C457 C456 1.366 . S
C457 C458 1.414 . S
C457 C460 1.499 . S
C458 H438 0.950 . S
C458 C457 1.414 . S
C458 C459 1.374 . S
C459 H439 0.950 . S
C459 C455 1.385 . S
C459 C458 1.374 . S
C460 C457 1.499 . S
C460 C461 1.373 . S
C460 C462 1.389 . S
C461 H440 0.950 . S
C461 C460 1.373 . S
C461 C477 1.377 . S
C462 C460 1.389 . S
C462 C463 1.524 . S
C462 C476 1.377 . S
C463 C462 1.524 . S
C463 C464 1.397 . S
C463 C468 1.363 . S
C464 H441 0.950 . S
C464 C463 1.397 . S
C464 C465 1.334 . S
C465 H442 0.950 . S
C465 C464 1.334 . S
C465 C466 1.287 . S
C466 C465 1.287 . S
C466 C467 1.524 . S
C466 H485 0.913 . S
C467 H443 0.950 . S
C467 C466 1.524 . S
C467 C468 1.415 . S
C468 H444 0.950 . S
C468 C463 1.363 . S
C468 C467 1.415 . S
C469 H445 0.951 . S
C469 C470 1.366 . S
C469 C471 1.388 . S
C470 C469 1.366 . S
C470 C474 1.385 . S
C471 H446 0.951 . S
C471 C469 1.388 . S
C471 C472 1.366 . S
C472 C471 1.366 . S
C472 C473 1.414 . S
C472 C475 1.499 . S
C473 H447 0.950 . S
C473 C472 1.414 . S
C473 C474 1.374 . S
C474 H448 0.950 . S
C474 C470 1.385 . S
C474 C473 1.374 . S
C475 C472 1.499 . S
C475 C476 1.373 . S
C475 C477 1.389 . S
C476 H449 0.950 . S
C476 C462 1.377 . S
C476 C475 1.373 . S
C477 C461 1.377 . S
C477 C475 1.389 . S
C477 C478 1.524 . S
C478 C477 1.524 . S
C478 C479 1.397 . S
C478 C483 1.363 . S
C479 H450 0.950 . S
C479 C478 1.397 . S
C479 C480 1.334 . S
C480 H451 0.950 . S
C480 C479 1.334 . S
C480 C481 1.287 . S
C481 C480 1.287 . S
C481 C482 1.524 . S
C481 H484 0.999 . S
C482 H452 0.950 . S
C482 C481 1.524 . S
C482 C483 1.415 . S
C483 H453 0.950 . S
C483 C478 1.363 . S
C483 C482 1.415 . S
H484 C481 0.999 . S
H485 C466 0.913 . S
H486 C504 0.951 . S
H487 C506 0.951 . S
H488 C508 0.950 . S
H489 C509 0.950 . S
H490 C511 0.950 . S
H491 C514 0.950 . S
H492 C515 0.950 . S
H493 C517 0.950 . S
H494 C518 0.950 . S
H495 C519 0.951 . S
H496 C521 0.951 . S
H497 C523 0.950 . S
H498 C524 0.950 . S
H499 C526 0.950 . S
H500 C529 0.950 . S
H501 C530 0.950 . S
H502 C532 0.950 . S
H503 C533 0.950 . S
C504 H486 0.951 . S
C504 C505 1.366 . S
C504 C506 1.388 . S
C505 C504 1.366 . S
C505 C509 1.385 . S
C506 H487 0.951 . S
C506 C504 1.388 . S
C506 C507 1.366 . S
C507 C506 1.366 . S
C507 C508 1.414 . S
C507 C510 1.499 . S
C508 H488 0.950 . S
C508 C507 1.414 . S
C508 C509 1.374 . S
C509 H489 0.950 . S
C509 C505 1.385 . S
C509 C508 1.374 . S
C510 C507 1.499 . S
C510 C511 1.373 . S
C510 C512 1.389 . S
C511 H490 0.950 . S
C511 C510 1.373 . S
C511 C527 1.377 . S
C512 C510 1.389 . S
C512 C513 1.524 . S
C512 C526 1.377 . S
C513 C512 1.524 . S
C513 C514 1.397 . S
C513 C518 1.363 . S
C514 H491 0.950 . S
C514 C513 1.397 . S
C514 C515 1.334 . S
C515 H492 0.950 . S
C515 C514 1.334 . S
C515 C516 1.287 . S
C516 C515 1.287 . S
C516 C517 1.524 . S
C516 H535 0.913 . S
C517 H493 0.950 . S
C517 C516 1.524 . S
C517 C518 1.415 . S
C518 H494 0.950 . S
C518 C513 1.363 . S
C518 C517 1.415 . S
C519 H495 0.951 . S
C519 C520 1.366 . S
C519 C521 1.388 . S
C520 C519 1.366 . S
C520 C524 1.385 . S
C521 H496 0.951 . S
C521 C519 1.388 . S
C521 C522 1.366 . S
C522 C521 1.366 . S
C522 C523 1.414 . S
C522 C525 1.499 . S
C523 H497 0.950 . S
C523 C522 1.414 . S
C523 C524 1.374 . S
C524 H498 0.950 . S
C524 C520 1.385 . S
C524 C523 1.374 . S
C525 C522 1.499 . S
C525 C526 1.373 . S
C525 C527 1.389 . S
C526 H499 0.950 . S
C526 C512 1.377 . S
C526 C525 1.373 . S
C527 C511 1.377 . S
C527 C525 1.389 . S
C527 C528 1.524 . S
C528 C527 1.524 . S
C528 C529 1.397 . S
C528 C533 1.363 . S
C529 H500 0.950 . S
C529 C528 1.397 . S
C529 C530 1.334 . S
C530 H501 0.950 . S
C530 C529 1.334 . S
C530 C531 1.287 . S
C531 C530 1.287 . S
C531 C532 1.524 . S
C531 H534 0.999 . S
C532 H502 0.950 . S
C532 C531 1.524 . S
C532 C533 1.415 . S
C533 H503 0.950 . S
C533 C528 1.363 . S
C533 C532 1.415 . S
H534 C531 0.999 . S
H535 C516 0.913 . S
H536 C554 0.951 . S
H537 C556 0.951 . S
H538 C558 0.950 . S
H539 C559 0.950 . S
H540 C561 0.950 . S
H541 C564 0.950 . S
H542 C565 0.950 . S
H543 C567 0.950 . S
H544 C568 0.950 . S
H545 C569 0.951 . S
H546 C571 0.951 . S
H547 C573 0.950 . S
H548 C574 0.950 . S
H549 C576 0.950 . S
H550 C579 0.950 . S
H551 C580 0.950 . S
H552 C582 0.950 . S
H553 C583 0.950 . S
C554 H536 0.951 . S
C554 C555 1.366 . S
C554 C556 1.388 . S
C555 C554 1.366 . S
C555 C559 1.385 . S
C556 H537 0.951 . S
C556 C554 1.388 . S
C556 C557 1.366 . S
C557 C556 1.366 . S
C557 C558 1.414 . S
C557 C560 1.499 . S
C558 H538 0.950 . S
C558 C557 1.414 . S
C558 C559 1.374 . S
C559 H539 0.950 . S
C559 C555 1.385 . S
C559 C558 1.374 . S
C560 C557 1.499 . S
C560 C561 1.373 . S
C560 C562 1.389 . S
C561 H540 0.950 . S
C561 C560 1.373 . S
C561 C577 1.377 . S
C562 C560 1.389 . S
C562 C563 1.524 . S
C562 C576 1.377 . S
C563 C562 1.524 . S
C563 C564 1.397 . S
C563 C568 1.363 . S
C564 H541 0.950 . S
C564 C563 1.397 . S
C564 C565 1.334 . S
C565 H542 0.950 . S
C565 C564 1.334 . S
C565 C566 1.287 . S
C566 C565 1.287 . S
C566 C567 1.524 . S
C566 H585 0.913 . S
C567 H543 0.950 . S
C567 C566 1.524 . S
C567 C568 1.415 . S
C568 H544 0.950 . S
C568 C563 1.363 . S
C568 C567 1.415 . S
C569 H545 0.951 . S
C569 C570 1.366 . S
C569 C571 1.388 . S
C570 C569 1.366 . S
C570 C574 1.385 . S
C571 H546 0.951 . S
C571 C569 1.388 . S
C571 C572 1.366 . S
C572 C571 1.366 . S
C572 C573 1.414 . S
C572 C575 1.499 . S
C573 H547 0.950 . S
C573 C572 1.414 . S
C573 C574 1.374 . S
C574 H548 0.950 . S
C574 C570 1.385 . S
C574 C573 1.374 . S
C575 C572 1.499 . S
C575 C576 1.373 . S
C575 C577 1.389 . S
C576 H549 0.950 . S
C576 C562 1.377 . S
C576 C575 1.373 . S
C577 C561 1.377 . S
C577 C575 1.389 . S
C577 C578 1.524 . S
C578 C577 1.524 . S
C578 C579 1.397 . S
C578 C583 1.363 . S
C579 H550 0.950 . S
C579 C578 1.397 . S
C579 C580 1.334 . S
C580 H551 0.950 . S
C580 C579 1.334 . S
C580 C581 1.287 . S
C581 C580 1.287 . S
C581 C582 1.524 . S
C581 H584 0.999 . S
C582 H552 0.950 . S
C582 C581 1.524 . S
C582 C583 1.415 . S
C583 H553 0.950 . S
C583 C578 1.363 . S
C583 C582 1.415 . S
H584 C581 0.999 . S
H585 C566 0.913 . S
H586 C604 0.951 . S
H587 C606 0.951 . S
H588 C608 0.950 . S
H589 C609 0.950 . S
H590 C611 0.950 . S
H591 C614 0.950 . S
H592 C615 0.950 . S
H593 C617 0.950 . S
H594 C618 0.950 . S
H595 C619 0.951 . S
H596 C621 0.951 . S
H597 C623 0.950 . S
H598 C624 0.950 . S
H599 C626 0.950 . S
H600 C629 0.950 . S
H601 C630 0.950 . S
H602 C632 0.950 . S
H603 C633 0.950 . S
C604 H586 0.951 . S
C604 C605 1.366 . S
C604 C606 1.388 . S
C605 C604 1.366 . S
C605 C609 1.385 . S
C606 H587 0.951 . S
C606 C604 1.388 . S
C606 C607 1.366 . S
C607 C606 1.366 . S
C607 C608 1.414 . S
C607 C610 1.499 . S
C608 H588 0.950 . S
C608 C607 1.414 . S
C608 C609 1.374 . S
C609 H589 0.950 . S
C609 C605 1.385 . S
C609 C608 1.374 . S
C610 C607 1.499 . S
C610 C611 1.373 . S
C610 C612 1.389 . S
C611 H590 0.950 . S
C611 C610 1.373 . S
C611 C627 1.377 . S
C612 C610 1.389 . S
C612 C613 1.524 . S
C612 C626 1.377 . S
C613 C612 1.524 . S
C613 C614 1.397 . S
C613 C618 1.363 . S
C614 H591 0.950 . S
C614 C613 1.397 . S
C614 C615 1.334 . S
C615 H592 0.950 . S
C615 C614 1.334 . S
C615 C616 1.287 . S
C616 C615 1.287 . S
C616 C617 1.524 . S
C616 H635 0.913 . S
C617 H593 0.950 . S
C617 C616 1.524 . S
C617 C618 1.415 . S
C618 H594 0.950 . S
C618 C613 1.363 . S
C618 C617 1.415 . S
C619 H595 0.951 . S
C619 C620 1.366 . S
C619 C621 1.388 . S
C620 C619 1.366 . S
C620 C624 1.385 . S
C621 H596 0.951 . S
C621 C619 1.388 . S
C621 C622 1.366 . S
C622 C621 1.366 . S
C622 C623 1.414 . S
C622 C625 1.499 . S
C623 H597 0.950 . S
C623 C622 1.414 . S
C623 C624 1.374 . S
C624 H598 0.950 . S
C624 C620 1.385 . S
C624 C623 1.374 . S
C625 C622 1.499 . S
C625 C626 1.373 . S
C625 C627 1.389 . S
C626 H599 0.950 . S
C626 C612 1.377 . S
C626 C625 1.373 . S
C627 C611 1.377 . S
C627 C625 1.389 . S
C627 C628 1.524 . S
C628 C627 1.524 . S
C628 C629 1.397 . S
C628 C633 1.363 . S
C629 H600 0.950 . S
C629 C628 1.397 . S
C629 C630 1.334 . S
C630 H601 0.950 . S
C630 C629 1.334 . S
C630 C631 1.287 . S
C631 C630 1.287 . S
C631 C632 1.524 . S
C631 H634 0.999 . S
C632 H602 0.950 . S
C632 C631 1.524 . S
C632 C633 1.415 . S
C633 H603 0.950 . S
C633 C628 1.363 . S
C633 C632 1.415 . S
H634 C631 0.999 . S
H635 C616 0.913 . S
H636 C654 0.951 . S
H637 C656 0.951 . S
H638 C658 0.950 . S
H639 C659 0.950 . S
H640 C661 0.950 . S
H641 C664 0.950 . S
H642 C665 0.950 . S
H643 C667 0.950 . S
H644 C668 0.950 . S
H645 C669 0.951 . S
H646 C671 0.951 . S
H647 C673 0.950 . S
H648 C674 0.950 . S
H649 C676 0.950 . S
H650 C679 0.950 . S
H651 C680 0.950 . S
H652 C682 0.950 . S
H653 C683 0.950 . S
C654 H636 0.951 . S
C654 C655 1.366 . S
C654 C656 1.388 . S
C655 C654 1.366 . S
C655 C659 1.385 . S
C656 H637 0.951 . S
C656 C654 1.388 . S
C656 C657 1.366 . S
C657 C656 1.366 . S
C657 C658 1.414 . S
C657 C660 1.499 . S
C658 H638 0.950 . S
C658 C657 1.414 . S
C658 C659 1.374 . S
C659 H639 0.950 . S
C659 C655 1.385 . S
C659 C658 1.374 . S
C660 C657 1.499 . S
C660 C661 1.373 . S
C660 C662 1.389 . S
C661 H640 0.950 . S
C661 C660 1.373 . S
C661 C677 1.377 . S
C662 C660 1.389 . S
C662 C663 1.524 . S
C662 C676 1.377 . S
C663 C662 1.524 . S
C663 C664 1.397 . S
C663 C668 1.363 . S
C664 H641 0.950 . S
C664 C663 1.397 . S
C664 C665 1.334 . S
C665 H642 0.950 . S
C665 C664 1.334 . S
C665 C666 1.287 . S
C666 C665 1.287 . S
C666 C667 1.524 . S
C666 H685 0.913 . S
C667 H643 0.950 . S
C667 C666 1.524 . S
C667 C668 1.415 . S
C668 H644 0.950 . S
C668 C663 1.363 . S
C668 C667 1.415 . S
C669 H645 0.951 . S
C669 C670 1.366 . S
C669 C671 1.388 . S
C670 C669 1.366 . S
C670 C674 1.385 . S
C671 H646 0.951 . S
C671 C669 1.388 . S
C671 C672 1.366 . S
C672 C671 1.366 . S
C672 C673 1.414 . S
C672 C675 1.499 . S
C673 H647 0.950 . S
C673 C672 1.414 . S
C673 C674 1.374 . S
C674 H648 0.950 . S
C674 C670 1.385 . S
C674 C673 1.374 . S
C675 C672 1.499 . S
C675 C676 1.373 . S
C675 C677 1.389 . S
C676 H649 0.950 . S
C676 C662 1.377 . S
C676 C675 1.373 . S
C677 C661 1.377 . S
C677 C675 1.389 . S
C677 C678 1.524 . S
C678 C677 1.524 . S
C678 C679 1.397 . S
C678 C683 1.363 . S
C679 H650 0.950 . S
C679 C678 1.397 . S
C679 C680 1.334 . S
C680 H651 0.950 . S
C680 C679 1.334 . S
C680 C681 1.287 . S
C681 C680 1.287 . S
C681 C682 1.524 . S
C681 H684 0.999 . S
C682 H652 0.950 . S
C682 C681 1.524 . S
C682 C683 1.415 . S
C683 H653 0.950 . S
C683 C678 1.363 . S
C683 C682 1.415 . S
H684 C681 0.999 . S
H685 C666 0.913 . S
H686 C704 0.951 . S
H687 C706 0.951 . S
H688 C708 0.950 . S
H689 C709 0.950 . S
H690 C711 0.950 . S
H691 C714 0.950 . S
H692 C715 0.950 . S
H693 C717 0.950 . S
H694 C718 0.950 . S
H695 C719 0.951 . S
H696 C721 0.951 . S
H697 C723 0.950 . S
H698 C724 0.950 . S
H699 C726 0.950 . S
H700 C729 0.950 . S
H701 C730 0.950 . S
H702 C732 0.950 . S
H703 C733 0.950 . S
C704 H686 0.951 . S
C704 C705 1.366 . S
C704 C706 1.388 . S
C705 C704 1.366 . S
C705 C709 1.385 . S
C706 H687 0.951 . S
C706 C704 1.388 . S
C706 C707 1.366 . S
C707 C706 1.366 . S
C707 C708 1.414 . S
C707 C710 1.499 . S
C708 H688 0.950 . S
C708 C707 1.414 . S
C708 C709 1.374 . S
C709 H689 0.950 . S
C709 C705 1.385 . S
C709 C708 1.374 . S
C710 C707 1.499 . S
C710 C711 1.373 . S
C710 C712 1.389 . S
C711 H690 0.950 . S
C711 C710 1.373 . S
C711 C727 1.377 . S
C712 C710 1.389 . S
C712 C713 1.524 . S
C712 C726 1.377 . S
C713 C712 1.524 . S
C713 C714 1.397 . S
C713 C718 1.363 . S
C714 H691 0.950 . S
C714 C713 1.397 . S
C714 C715 1.334 . S
C715 H692 0.950 . S
C715 C714 1.334 . S
C715 C716 1.287 . S
C716 C715 1.287 . S
C716 C717 1.524 . S
C716 H735 0.913 . S
C717 H693 0.950 . S
C717 C716 1.524 . S
C717 C718 1.415 . S
C718 H694 0.950 . S
C718 C713 1.363 . S
C718 C717 1.415 . S
C719 H695 0.951 . S
C719 C720 1.366 . S
C719 C721 1.388 . S
C720 C719 1.366 . S
C720 C724 1.385 . S
C721 H696 0.951 . S
C721 C719 1.388 . S
C721 C722 1.366 . S
C722 C721 1.366 . S
C722 C723 1.414 . S
C722 C725 1.499 . S
C723 H697 0.950 . S
C723 C722 1.414 . S
C723 C724 1.374 . S
C724 H698 0.950 . S
C724 C720 1.385 . S
C724 C723 1.374 . S
C725 C722 1.499 . S
C725 C726 1.373 . S
C725 C727 1.389 . S
C726 H699 0.950 . S
C726 C712 1.377 . S
C726 C725 1.373 . S
C727 C711 1.377 . S
C727 C725 1.389 . S
C727 C728 1.524 . S
C728 C727 1.524 . S
C728 C729 1.397 . S
C728 C733 1.363 . S
C729 H700 0.950 . S
C729 C728 1.397 . S
C729 C730 1.334 . S
C730 H701 0.950 . S
C730 C729 1.334 . S
C730 C731 1.287 . S
C731 C730 1.287 . S
C731 C732 1.524 . S
C731 H734 0.999 . S
C732 H702 0.950 . S
C732 C731 1.524 . S
C732 C733 1.415 . S
C733 H703 0.950 . S
C733 C728 1.363 . S
C733 C732 1.415 . S
H734 C731 0.999 . S
H735 C716 0.913 . S
H736 C754 0.951 . S
H737 C756 0.951 . S
H738 C758 0.950 . S
H739 C759 0.950 . S
H740 C761 0.950 . S
H741 C764 0.950 . S
H742 C765 0.950 . S
H743 C767 0.950 . S
H744 C768 0.950 . S
H745 C769 0.951 . S
H746 C771 0.951 . S
H747 C773 0.950 . S
H748 C774 0.950 . S
H749 C776 0.950 . S
H750 C779 0.950 . S
H751 C780 0.950 . S
H752 C782 0.950 . S
H753 C783 0.950 . S
C754 H736 0.951 . S
C754 C755 1.366 . S
C754 C756 1.388 . S
C755 C754 1.366 . S
C755 C759 1.385 . S
C756 H737 0.951 . S
C756 C754 1.388 . S
C756 C757 1.366 . S
C757 C756 1.366 . S
C757 C758 1.414 . S
C757 C760 1.499 . S
C758 H738 0.950 . S
C758 C757 1.414 . S
C758 C759 1.374 . S
C759 H739 0.950 . S
C759 C755 1.385 . S
C759 C758 1.374 . S
C760 C757 1.499 . S
C760 C761 1.373 . S
C760 C762 1.389 . S
C761 H740 0.950 . S
C761 C760 1.373 . S
C761 C777 1.377 . S
C762 C760 1.389 . S
C762 C763 1.524 . S
C762 C776 1.377 . S
C763 C762 1.524 . S
C763 C764 1.397 . S
C763 C768 1.363 . S
C764 H741 0.950 . S
C764 C763 1.397 . S
C764 C765 1.334 . S
C765 H742 0.950 . S
C765 C764 1.334 . S
C765 C766 1.287 . S
C766 C765 1.287 . S
C766 C767 1.524 . S
C766 H785 0.913 . S
C767 H743 0.950 . S
C767 C766 1.524 . S
C767 C768 1.415 . S
C768 H744 0.950 . S
C768 C763 1.363 . S
C768 C767 1.415 . S
C769 H745 0.951 . S
C769 C770 1.366 . S
C769 C771 1.388 . S
C770 C769 1.366 . S
C770 C774 1.385 . S
C771 H746 0.951 . S
C771 C769 1.388 . S
C771 C772 1.366 . S
C772 C771 1.366 . S
C772 C773 1.414 . S
C772 C775 1.499 . S
C773 H747 0.950 . S
C773 C772 1.414 . S
C773 C774 1.374 . S
C774 H748 0.950 . S
C774 C770 1.385 . S
C774 C773 1.374 . S
C775 C772 1.499 . S
C775 C776 1.373 . S
C775 C777 1.389 . S
C776 H749 0.950 . S
C776 C762 1.377 . S
C776 C775 1.373 . S
C777 C761 1.377 . S
C777 C775 1.389 . S
C777 C778 1.524 . S
C778 C777 1.524 . S
C778 C779 1.397 . S
C778 C783 1.363 . S
C779 H750 0.950 . S
C779 C778 1.397 . S
C779 C780 1.334 . S
C780 H751 0.950 . S
C780 C779 1.334 . S
C780 C781 1.287 . S
C781 C780 1.287 . S
C781 C782 1.524 . S
C781 H784 0.999 . S
C782 H752 0.950 . S
C782 C781 1.524 . S
C782 C783 1.415 . S
C783 H753 0.950 . S
C783 C778 1.363 . S
C783 C782 1.415 . S
H784 C781 0.999 . S
H785 C766 0.913 . S
H786 C804 0.951 . S
H787 C806 0.951 . S
H788 C808 0.950 . S
H789 C809 0.950 . S
H790 C811 0.950 . S
H791 C814 0.950 . S
H792 C815 0.950 . S
H793 C817 0.950 . S
H794 C818 0.950 . S
H795 C819 0.951 . S
H796 C821 0.951 . S
H797 C823 0.950 . S
H798 C824 0.950 . S
H799 C826 0.950 . S
H800 C829 0.950 . S
H801 C830 0.950 . S
H802 C832 0.950 . S
H803 C833 0.950 . S
C804 H786 0.951 . S
C804 C805 1.366 . S
C804 C806 1.388 . S
C805 C804 1.366 . S
C805 C809 1.385 . S
C806 H787 0.951 . S
C806 C804 1.388 . S
C806 C807 1.366 . S
C807 C806 1.366 . S
C807 C808 1.414 . S
C807 C810 1.499 . S
C808 H788 0.950 . S
C808 C807 1.414 . S
C808 C809 1.374 . S
C809 H789 0.950 . S
C809 C805 1.385 . S
C809 C808 1.374 . S
C810 C807 1.499 . S
C810 C811 1.373 . S
C810 C812 1.389 . S
C811 H790 0.950 . S
C811 C810 1.373 . S
C811 C827 1.377 . S
C812 C810 1.389 . S
C812 C813 1.524 . S
C812 C826 1.377 . S
C813 C812 1.524 . S
C813 C814 1.397 . S
C813 C818 1.363 . S
C814 H791 0.950 . S
C814 C813 1.397 . S
C814 C815 1.334 . S
C815 H792 0.950 . S
C815 C814 1.334 . S
C815 C816 1.287 . S
C816 C815 1.287 . S
C816 C817 1.524 . S
C816 H835 0.913 . S
C817 H793 0.950 . S
C817 C816 1.524 . S
C817 C818 1.415 . S
C818 H794 0.950 . S
C818 C813 1.363 . S
C818 C817 1.415 . S
C819 H795 0.951 . S
C819 C820 1.366 . S
C819 C821 1.388 . S
C820 C819 1.366 . S
C820 C824 1.385 . S
C821 H796 0.951 . S
C821 C819 1.388 . S
C821 C822 1.366 . S
C822 C821 1.366 . S
C822 C823 1.414 . S
C822 C825 1.499 . S
C823 H797 0.950 . S
C823 C822 1.414 . S
C823 C824 1.374 . S
C824 H798 0.950 . S
C824 C820 1.385 . S
C824 C823 1.374 . S
C825 C822 1.499 . S
C825 C826 1.373 . S
C825 C827 1.389 . S
C826 H799 0.950 . S
C826 C812 1.377 . S
C826 C825 1.373 . S
C827 C811 1.377 . S
C827 C825 1.389 . S
C827 C828 1.524 . S
C828 C827 1.524 . S
C828 C829 1.397 . S
C828 C833 1.363 . S
C829 H800 0.950 . S
C829 C828 1.397 . S
C829 C830 1.334 . S
C830 H801 0.950 . S
C830 C829 1.334 . S
C830 C831 1.287 . S
C831 C830 1.287 . S
C831 C832 1.524 . S
C831 H834 0.999 . S
C832 H802 0.950 . S
C832 C831 1.524 . S
C832 C833 1.415 . S
C833 H803 0.950 . S
C833 C828 1.363 . S
C833 C832 1.415 . S
H834 C831 0.999 . S
H835 C816 0.913 . S
H836 C854 0.951 . S
H837 C856 0.951 . S
H838 C858 0.950 . S
H839 C859 0.950 . S
H840 C861 0.950 . S
H841 C864 0.950 . S
H842 C865 0.950 . S
H843 C867 0.950 . S
H844 C868 0.950 . S
H845 C869 0.951 . S
H846 C871 0.951 . S
H847 C873 0.950 . S
H848 C874 0.950 . S
H849 C876 0.950 . S
H850 C879 0.950 . S
H851 C880 0.950 . S
H852 C882 0.950 . S
H853 C883 0.950 . S
C854 H836 0.951 . S
C854 C855 1.366 . S
C854 C856 1.388 . S
C855 C854 1.366 . S
C855 C859 1.385 . S
C856 H837 0.951 . S
C856 C854 1.388 . S
C856 C857 1.366 . S
C857 C856 1.366 . S
C857 C858 1.414 . S
C857 C860 1.499 . S
C858 H838 0.950 . S
C858 C857 1.414 . S
C858 C859 1.374 . S
C859 H839 0.950 . S
C859 C855 1.385 . S
C859 C858 1.374 . S
C860 C857 1.499 . S
C860 C861 1.373 . S
C860 C862 1.389 . S
C861 H840 0.950 . S
C861 C860 1.373 . S
C861 C877 1.377 . S
C862 C860 1.389 . S
C862 C863 1.524 . S
C862 C876 1.377 . S
C863 C862 1.524 . S
C863 C864 1.397 . S
C863 C868 1.363 . S
C864 H841 0.950 . S
C864 C863 1.397 . S
C864 C865 1.334 . S
C865 H842 0.950 . S
C865 C864 1.334 . S
C865 C866 1.287 . S
C866 C865 1.287 . S
C866 C867 1.524 . S
C866 H885 0.913 . S
C867 H843 0.950 . S
C867 C866 1.524 . S
C867 C868 1.415 . S
C868 H844 0.950 . S
C868 C863 1.363 . S
C868 C867 1.415 . S
C869 H845 0.951 . S
C869 C870 1.366 . S
C869 C871 1.388 . S
C870 C869 1.366 . S
C870 C874 1.385 . S
C871 H846 0.951 . S
C871 C869 1.388 . S
C871 C872 1.366 . S
C872 C871 1.366 . S
C872 C873 1.414 . S
C872 C875 1.499 . S
C873 H847 0.950 . S
C873 C872 1.414 . S
C873 C874 1.374 . S
C874 H848 0.950 . S
C874 C870 1.385 . S
C874 C873 1.374 . S
C875 C872 1.499 . S
C875 C876 1.373 . S
C875 C877 1.389 . S
C876 H849 0.950 . S
C876 C862 1.377 . S
C876 C875 1.373 . S
C877 C861 1.377 . S
C877 C875 1.389 . S
C877 C878 1.524 . S
C878 C877 1.524 . S
C878 C879 1.397 . S
C878 C883 1.363 . S
C879 H850 0.950 . S
C879 C878 1.397 . S
C879 C880 1.334 . S
C880 H851 0.950 . S
C880 C879 1.334 . S
C880 C881 1.287 . S
C881 C880 1.287 . S
C881 C882 1.524 . S
C881 H884 0.999 . S
C882 H852 0.950 . S
C882 C881 1.524 . S
C882 C883 1.415 . S
C883 H853 0.950 . S
C883 C878 1.363 . S
C883 C882 1.415 . S
H884 C881 0.999 . S
H885 C866 0.913 . S
H886 C904 0.951 . S
H887 C906 0.951 . S
H888 C908 0.950 . S
H889 C909 0.950 . S
H890 C911 0.950 . S
H891 C914 0.950 . S
H892 C915 0.950 . S
H893 C917 0.950 . S
H894 C918 0.950 . S
H895 C919 0.951 . S
H896 C921 0.951 . S
H897 C923 0.950 . S
H898 C924 0.950 . S
H899 C926 0.950 . S
H900 C929 0.950 . S
H901 C930 0.950 . S
H902 C932 0.950 . S
H903 C933 0.950 . S
C904 H886 0.951 . S
C904 C905 1.366 . S
C904 C906 1.388 . S
C905 C904 1.366 . S
C905 C909 1.385 . S
C906 H887 0.951 . S
C906 C904 1.388 . S
C906 C907 1.366 . S
C907 C906 1.366 . S
C907 C908 1.414 . S
C907 C910 1.499 . S
C908 H888 0.950 . S
C908 C907 1.414 . S
C908 C909 1.374 . S
C909 H889 0.950 . S
C909 C905 1.385 . S
C909 C908 1.374 . S
C910 C907 1.499 . S
C910 C911 1.373 . S
C910 C912 1.389 . S
C911 H890 0.950 . S
C911 C910 1.373 . S
C911 C927 1.377 . S
C912 C910 1.389 . S
C912 C913 1.524 . S
C912 C926 1.377 . S
C913 C912 1.524 . S
C913 C914 1.397 . S
C913 C918 1.363 . S
C914 H891 0.950 . S
C914 C913 1.397 . S
C914 C915 1.334 . S
C915 H892 0.950 . S
C915 C914 1.334 . S
C915 C916 1.287 . S
C916 C915 1.287 . S
C916 C917 1.524 . S
C916 H935 0.913 . S
C917 H893 0.950 . S
C917 C916 1.524 . S
C917 C918 1.415 . S
C918 H894 0.950 . S
C918 C913 1.363 . S
C918 C917 1.415 . S
C919 H895 0.951 . S
C919 C920 1.366 . S
C919 C921 1.388 . S
C920 C919 1.366 . S
C920 C924 1.385 . S
C921 H896 0.951 . S
C921 C919 1.388 . S
C921 C922 1.366 . S
C922 C921 1.366 . S
C922 C923 1.414 . S
C922 C925 1.499 . S
C923 H897 0.950 . S
C923 C922 1.414 . S
C923 C924 1.374 . S
C924 H898 0.950 . S
C924 C920 1.385 . S
C924 C923 1.374 . S
C925 C922 1.499 . S
C925 C926 1.373 . S
C925 C927 1.389 . S
C926 H899 0.950 . S
C926 C912 1.377 . S
C926 C925 1.373 . S
C927 C911 1.377 . S
C927 C925 1.389 . S
C927 C928 1.524 . S
C928 C927 1.524 . S
C928 C929 1.397 . S
C928 C933 1.363 . S
C929 H900 0.950 . S
C929 C928 1.397 . S
C929 C930 1.334 . S
C930 H901 0.950 . S
C930 C929 1.334 . S
C930 C931 1.287 . S
C931 C930 1.287 . S
C931 C932 1.524 . S
C931 H934 0.999 . S
C932 H902 0.950 . S
C932 C931 1.524 . S
C932 C933 1.415 . S
C933 H903 0.950 . S
C933 C928 1.363 . S
C933 C932 1.415 . S
H934 C931 0.999 . S
H935 C916 0.913 . S
H936 C954 0.951 . S
H937 C956 0.951 . S
H938 C958 0.950 . S
H939 C959 0.950 . S
H940 C961 0.950 . S
H941 C964 0.950 . S
H942 C965 0.950 . S
H943 C967 0.950 . S
H944 C968 0.950 . S
H945 C969 0.951 . S
H946 C971 0.951 . S
H947 C973 0.950 . S
H948 C974 0.950 . S
H949 C976 0.950 . S
H950 C979 0.950 . S
H951 C980 0.950 . S
H952 C982 0.950 . S
H953 C983 0.950 . S
C954 H936 0.951 . S
C954 C955 1.366 . S
C954 C956 1.388 . S
C955 C954 1.366 . S
C955 C959 1.385 . S
C956 H937 0.951 . S
C956 C954 1.388 . S
C956 C957 1.366 . S
C957 C956 1.366 . S
C957 C958 1.414 . S
C957 C960 1.499 . S
C958 H938 0.950 . S
C958 C957 1.414 . S
C958 C959 1.374 . S
C959 H939 0.950 . S
C959 C955 1.385 . S
C959 C958 1.374 . S
C960 C957 1.499 . S
C960 C961 1.373 . S
C960 C962 1.389 1_556 S
C961 H940 0.950 . S
C961 C960 1.373 . S
C961 C977 1.377 . S
C962 C960 1.389 1_554 S
C962 C963 1.524 . S
C962 C976 1.377 . S
C963 C962 1.524 . S
C963 C964 1.397 . S
C963 C968 1.363 . S
C964 H941 0.950 . S
C964 C963 1.397 . S
C964 C965 1.334 . S
C965 H942 0.950 . S
C965 C964 1.334 . S
C965 C966 1.287 . S
C966 C965 1.287 . S
C966 C967 1.524 . S
C966 H985 0.913 . S
C967 H943 0.950 . S
C967 C966 1.524 . S
C967 C968 1.415 . S
C968 H944 0.950 . S
C968 C963 1.363 . S
C968 C967 1.415 . S
C969 H945 0.951 . S
C969 C970 1.366 . S
C969 C971 1.388 . S
C970 C969 1.366 . S
C970 C974 1.385 . S
C971 H946 0.951 . S
C971 C969 1.388 . S
C971 C972 1.366 . S
C972 C971 1.366 . S
C972 C973 1.414 . S
C972 C975 1.499 . S
C973 H947 0.950 . S
C973 C972 1.414 . S
C973 C974 1.374 . S
C974 H948 0.950 . S
C974 C970 1.385 . S
C974 C973 1.374 . S
C975 C972 1.499 . S
C975 C976 1.373 . S
C975 C977 1.389 1_554 S
C976 H949 0.950 . S
C976 C962 1.377 . S
C976 C975 1.373 . S
C977 C961 1.377 . S
C977 C975 1.389 1_556 S
C977 C978 1.524 . S
C978 C977 1.524 . S
C978 C979 1.397 . S
C978 C983 1.363 . S
C979 H950 0.950 . S
C979 C978 1.397 . S
C979 C980 1.334 . S
C980 H951 0.950 . S
C980 C979 1.334 . S
C980 C981 1.287 . S
C981 C980 1.287 . S
C981 C982 1.524 . S
C981 H984 0.999 . S
C982 H952 0.950 . S
C982 C981 1.524 . S
C982 C983 1.415 . S
C983 H953 0.950 . S
C983 C978 1.363 . S
C983 C982 1.415 . S
H984 C981 0.999 . S
H985 C966 0.913 . S
H986 C1004 0.951 . S
H987 C1006 0.951 . S
H988 C1008 0.950 . S
H989 C1009 0.950 . S
H990 C1011 0.950 . S
H991 C1014 0.950 . S
H992 C1015 0.950 . S
H993 C1017 0.950 . S
H994 C1018 0.950 . S
H995 C1019 0.951 . S
H996 C1021 0.951 . S
H997 C1023 0.950 . S
H998 C1024 0.950 . S
H999 C1026 0.950 . S
H1000 C1029 0.950 . S
H1001 C1030 0.950 . S
H1002 C1032 0.950 . S
H1003 C1033 0.950 . S
C1004 H986 0.951 . S
C1004 C1005 1.366 . S
C1004 C1006 1.388 . S
C1005 C1004 1.366 . S
C1005 C1009 1.385 . S
C1006 H987 0.951 . S
C1006 C1004 1.388 . S
C1006 C1007 1.366 . S
C1007 C1006 1.366 . S
C1007 C1008 1.414 . S
C1007 C1010 1.499 . S
C1008 H988 0.950 . S
C1008 C1007 1.414 . S
C1008 C1009 1.374 . S
C1009 H989 0.950 . S
C1009 C1005 1.385 . S
C1009 C1008 1.374 . S
C1010 C1007 1.499 . S
C1010 C1011 1.373 . S
C1010 C1012 1.389 . S
C1011 H990 0.950 . S
C1011 C1010 1.373 . S
C1011 C1027 1.377 . S
C1012 C1010 1.389 . S
C1012 C1013 1.524 . S
C1012 C1026 1.377 . S
C1013 C1012 1.524 . S
C1013 C1014 1.397 . S
C1013 C1018 1.363 . S
C1014 H991 0.950 . S
C1014 C1013 1.397 . S
C1014 C1015 1.334 . S
C1015 H992 0.950 . S
C1015 C1014 1.334 . S
C1015 C1016 1.287 . S
C1016 C1015 1.287 . S
C1016 C1017 1.524 . S
C1016 H1035 0.913 . S
C1017 H993 0.950 . S
C1017 C1016 1.524 . S
C1017 C1018 1.415 . S
C1018 H994 0.950 . S
C1018 C1013 1.363 . S
C1018 C1017 1.415 . S
C1019 H995 0.951 . S
C1019 C1020 1.366 . S
C1019 C1021 1.388 . S
C1020 C1019 1.366 . S
C1020 C1024 1.385 . S
C1021 H996 0.951 . S
C1021 C1019 1.388 . S
C1021 C1022 1.366 . S
C1022 C1021 1.366 . S
C1022 C1023 1.414 . S
C1022 C1025 1.499 . S
C1023 H997 0.950 . S
C1023 C1022 1.414 . S
C1023 C1024 1.374 . S
C1024 H998 0.950 . S
C1024 C1020 1.385 . S
C1024 C1023 1.374 . S
C1025 C1022 1.499 . S
C1025 C1026 1.373 . S
C1025 C1027 1.389 . S
C1026 H999 0.950 . S
C1026 C1012 1.377 . S
C1026 C1025 1.373 . S
C1027 C1011 1.377 . S
C1027 C1025 1.389 . S
C1027 C1028 1.524 . S
C1028 C1027 1.524 . S
C1028 C1029 1.397 . S
C1028 C1033 1.363 . S
C1029 H1000 0.950 . S
C1029 C1028 1.397 . S
C1029 C1030 1.334 . S
C1030 H1001 0.950 . S
C1030 C1029 1.334 . S
C1030 C1031 1.287 . S
C1031 C1030 1.287 . S
C1031 C1032 1.524 . S
C1031 H1034 0.999 . S
C1032 H1002 0.950 . S
C1032 C1031 1.524 . S
C1032 C1033 1.415 . S
C1033 H1003 0.950 . S
C1033 C1028 1.363 . S
C1033 C1032 1.415 . S
H1034 C1031 0.999 . S
H1035 C1016 0.913 . S
H1036 C1054 0.951 . S
H1037 C1056 0.951 . S
H1038 C1058 0.950 . S
H1039 C1059 0.950 . S
H1040 C1061 0.950 . S
H1041 C1064 0.950 . S
H1042 C1065 0.950 . S
H1043 C1067 0.950 . S
H1044 C1068 0.950 . S
H1045 C1069 0.951 . S
H1046 C1071 0.951 . S
H1047 C1073 0.950 . S
H1048 C1074 0.950 . S
H1049 C1076 0.950 . S
H1050 C1079 0.950 . S
H1051 C1080 0.950 . S
H1052 C1082 0.950 . S
H1053 C1083 0.950 . S
C1054 H1036 0.951 . S
C1054 C1055 1.366 . S
C1054 C1056 1.388 . S
C1055 C1054 1.366 . S
C1055 C1059 1.385 . S
C1056 H1037 0.951 . S
C1056 C1054 1.388 . S
C1056 C1057 1.366 . S
C1057 C1056 1.366 . S
C1057 C1058 1.414 . S
C1057 C1060 1.499 . S
C1058 H1038 0.950 . S
C1058 C1057 1.414 . S
C1058 C1059 1.374 . S
C1059 H1039 0.950 . S
C1059 C1055 1.385 . S
C1059 C1058 1.374 . S
C1060 C1057 1.499 . S
C1060 C1061 1.373 1_554 S
C1060 C1062 1.389 . S
C1061 H1040 0.950 . S
C1061 C1060 1.373 1_556 S
C1061 C1077 1.377 . S
C1062 C1060 1.389 . S
C1062 C1063 1.524 . S
C1062 C1076 1.377 . S
C1063 C1062 1.524 . S
C1063 C1064 1.397 . S
C1063 C1068 1.363 . S
C1064 H1041 0.950 . S
C1064 C1063 1.397 . S
C1064 C1065 1.334 . S
C1065 H1042 0.950 . S
C1065 C1064 1.334 . S
C1065 C1066 1.287 . S
C1066 C1065 1.287 . S
C1066 C1067 1.524 . S
C1066 H1085 0.913 . S
C1067 H1043 0.950 . S
C1067 C1066 1.524 . S
C1067 C1068 1.415 . S
C1068 H1044 0.950 . S
C1068 C1063 1.363 . S
C1068 C1067 1.415 . S
C1069 H1045 0.951 . S
C1069 C1070 1.366 . S
C1069 C1071 1.388 . S
C1070 C1069 1.366 . S
C1070 C1074 1.385 . S
C1071 H1046 0.951 . S
C1071 C1069 1.388 . S
C1071 C1072 1.366 . S
C1072 C1071 1.366 . S
C1072 C1073 1.414 . S
C1072 C1075 1.499 . S
C1073 H1047 0.950 . S
C1073 C1072 1.414 . S
C1073 C1074 1.374 . S
C1074 H1048 0.950 . S
C1074 C1070 1.385 . S
C1074 C1073 1.374 . S
C1075 C1072 1.499 . S
C1075 C1076 1.373 1_556 S
C1075 C1077 1.389 . S
C1076 H1049 0.950 . S
C1076 C1062 1.377 . S
C1076 C1075 1.373 1_554 S
C1077 C1061 1.377 . S
C1077 C1075 1.389 . S
C1077 C1078 1.524 . S
C1078 C1077 1.524 . S
C1078 C1079 1.397 . S
C1078 C1083 1.363 . S
C1079 H1050 0.950 . S
C1079 C1078 1.397 . S
C1079 C1080 1.334 . S
C1080 H1051 0.950 . S
C1080 C1079 1.334 . S
C1080 C1081 1.287 . S
C1081 C1080 1.287 . S
C1081 C1082 1.524 . S
C1081 H1084 0.999 . S
C1082 H1052 0.950 . S
C1082 C1081 1.524 . S
C1082 C1083 1.415 . S
C1083 H1053 0.950 . S
C1083 C1078 1.363 . S
C1083 C1082 1.415 . S
H1084 C1081 0.999 . S
H1085 C1066 0.913 . S
H1086 C1104 0.951 . S
H1087 C1106 0.951 . S
H1088 C1108 0.950 . S
H1089 C1109 0.950 . S
H1090 C1111 0.950 . S
H1091 C1114 0.950 . S
H1092 C1115 0.950 . S
H1093 C1117 0.950 . S
H1094 C1118 0.950 . S
H1095 C1119 0.951 . S
H1096 C1121 0.951 . S
H1097 C1123 0.950 . S
H1098 C1124 0.950 . S
H1099 C1126 0.950 . S
H1100 C1129 0.950 . S
H1101 C1130 0.950 . S
H1102 C1132 0.950 . S
H1103 C1133 0.950 . S
C1104 H1086 0.951 . S
C1104 C1105 1.366 . S
C1104 C1106 1.388 . S
C1105 C1104 1.366 . S
C1105 C1109 1.385 . S
C1106 H1087 0.951 . S
C1106 C1104 1.388 . S
C1106 C1107 1.366 . S
C1107 C1106 1.366 . S
C1107 C1108 1.414 . S
C1107 C1110 1.499 . S
C1108 H1088 0.950 . S
C1108 C1107 1.414 . S
C1108 C1109 1.374 . S
C1109 H1089 0.950 . S
C1109 C1105 1.385 . S
C1109 C1108 1.374 . S
C1110 C1107 1.499 . S
C1110 C1111 1.373 . S
C1110 C1112 1.389 . S
C1111 H1090 0.950 . S
C1111 C1110 1.373 . S
C1111 C1127 1.377 . S
C1112 C1110 1.389 . S
C1112 C1113 1.524 . S
C1112 C1126 1.377 . S
C1113 C1112 1.524 . S
C1113 C1114 1.397 . S
C1113 C1118 1.363 . S
C1114 H1091 0.950 . S
C1114 C1113 1.397 . S
C1114 C1115 1.334 . S
C1115 H1092 0.950 . S
C1115 C1114 1.334 . S
C1115 C1116 1.287 . S
C1116 C1115 1.287 . S
C1116 C1117 1.524 . S
C1116 H1135 0.913 . S
C1117 H1093 0.950 . S
C1117 C1116 1.524 . S
C1117 C1118 1.415 . S
C1118 H1094 0.950 . S
C1118 C1113 1.363 . S
C1118 C1117 1.415 . S
C1119 H1095 0.951 . S
C1119 C1120 1.366 . S
C1119 C1121 1.388 . S
C1120 C1119 1.366 . S
C1120 C1124 1.385 . S
C1121 H1096 0.951 . S
C1121 C1119 1.388 . S
C1121 C1122 1.366 . S
C1122 C1121 1.366 . S
C1122 C1123 1.414 . S
C1122 C1125 1.499 . S
C1123 H1097 0.950 . S
C1123 C1122 1.414 . S
C1123 C1124 1.374 . S
C1124 H1098 0.950 . S
C1124 C1120 1.385 . S
C1124 C1123 1.374 . S
C1125 C1122 1.499 . S
C1125 C1126 1.373 . S
C1125 C1127 1.389 . S
C1126 H1099 0.950 . S
C1126 C1112 1.377 . S
C1126 C1125 1.373 . S
C1127 C1111 1.377 . S
C1127 C1125 1.389 . S
C1127 C1128 1.524 . S
C1128 C1127 1.524 . S
C1128 C1129 1.397 . S
C1128 C1133 1.363 . S
C1129 H1100 0.950 . S
C1129 C1128 1.397 . S
C1129 C1130 1.334 . S
C1130 H1101 0.950 . S
C1130 C1129 1.334 . S
C1130 C1131 1.287 . S
C1131 C1130 1.287 . S
C1131 C1132 1.524 . S
C1131 H1134 0.999 . S
C1132 H1102 0.950 . S
C1132 C1131 1.524 . S
C1132 C1133 1.415 . S
C1133 H1103 0.950 . S
C1133 C1128 1.363 . S
C1133 C1132 1.415 . S
H1134 C1131 0.999 . S
H1135 C1116 0.913 . S
H1136 C1154 0.951 . S
H1137 C1156 0.951 1_554 S
H1138 C1158 0.950 . S
H1139 C1159 0.950 . S
H1140 C1161 0.950 . S
H1141 C1164 0.950 . S
H1142 C1165 0.950 . S
H1143 C1167 0.950 . S
H1144 C1168 0.950 . S
H1145 C1169 0.951 . S
H1146 C1171 0.951 1_556 S
H1147 C1173 0.950 . S
H1148 C1174 0.950 . S
H1149 C1176 0.950 . S
H1150 C1179 0.950 . S
H1151 C1180 0.950 . S
H1152 C1182 0.950 . S
H1153 C1183 0.950 . S
C1154 H1136 0.951 . S
C1154 C1155 1.366 . S
C1154 C1156 1.388 . S
C1155 C1154 1.366 . S
C1155 C1159 1.385 . S
C1156 H1137 0.951 1_556 S
C1156 C1154 1.388 . S
C1156 C1157 1.366 . S
C1157 C1156 1.366 . S
C1157 C1158 1.414 . S
C1157 C1160 1.499 . S
C1158 H1138 0.950 . S
C1158 C1157 1.414 . S
C1158 C1159 1.374 . S
C1159 H1139 0.950 . S
C1159 C1155 1.385 . S
C1159 C1158 1.374 . S
C1160 C1157 1.499 . S
C1160 C1161 1.373 . S
C1160 C1162 1.389 1_556 S
C1161 H1140 0.950 . S
C1161 C1160 1.373 . S
C1161 C1177 1.377 . S
C1162 C1160 1.389 1_554 S
C1162 C1163 1.524 . S
C1162 C1176 1.377 . S
C1163 C1162 1.524 . S
C1163 C1164 1.397 1_554 S
C1163 C1168 1.363 . S
C1164 H1141 0.950 . S
C1164 C1163 1.397 1_556 S
C1164 C1165 1.334 . S
C1165 H1142 0.950 . S
C1165 C1164 1.334 . S
C1165 C1166 1.287 1_556 S
C1166 C1165 1.287 1_554 S
C1166 C1167 1.524 . S
C1166 H1185 0.913 . S
C1167 H1143 0.950 . S
C1167 C1166 1.524 . S
C1167 C1168 1.415 . S
C1168 H1144 0.950 . S
C1168 C1163 1.363 . S
C1168 C1167 1.415 . S
C1169 H1145 0.951 . S
C1169 C1170 1.366 . S
C1169 C1171 1.388 . S
C1170 C1169 1.366 . S
C1170 C1174 1.385 . S
C1171 H1146 0.951 1_554 S
C1171 C1169 1.388 . S
C1171 C1172 1.366 . S
C1172 C1171 1.366 . S
C1172 C1173 1.414 . S
C1172 C1175 1.499 . S
C1173 H1147 0.950 . S
C1173 C1172 1.414 . S
C1173 C1174 1.374 . S
C1174 H1148 0.950 . S
C1174 C1170 1.385 . S
C1174 C1173 1.374 . S
C1175 C1172 1.499 . S
C1175 C1176 1.373 . S
C1175 C1177 1.389 1_554 S
C1176 H1149 0.950 . S
C1176 C1162 1.377 . S
C1176 C1175 1.373 . S
C1177 C1161 1.377 . S
C1177 C1175 1.389 1_556 S
C1177 C1178 1.524 . S
C1178 C1177 1.524 . S
C1178 C1179 1.397 1_556 S
C1178 C1183 1.363 . S
C1179 H1150 0.950 . S
C1179 C1178 1.397 1_554 S
C1179 C1180 1.334 . S
C1180 H1151 0.950 . S
C1180 C1179 1.334 . S
C1180 C1181 1.287 1_554 S
C1181 C1180 1.287 1_556 S
C1181 C1182 1.524 . S
C1181 H1184 0.999 . S
C1182 H1152 0.950 . S
C1182 C1181 1.524 . S
C1182 C1183 1.415 . S
C1183 H1153 0.950 . S
C1183 C1178 1.363 . S
C1183 C1182 1.415 . S
H1184 C1181 0.999 . S
H1185 C1166 0.913 . S
H1186 C1204 0.951 . S
H1187 C1206 0.951 . S
H1188 C1208 0.950 . S
H1189 C1209 0.950 . S
H1190 C1211 0.950 . S
H1191 C1214 0.950 . S
H1192 C1215 0.950 . S
H1193 C1217 0.950 . S
H1194 C1218 0.950 . S
H1195 C1219 0.951 . S
H1196 C1221 0.951 . S
H1197 C1223 0.950 . S
H1198 C1224 0.950 . S
H1199 C1226 0.950 . S
H1200 C1229 0.950 . S
H1201 C1230 0.950 . S
H1202 C1232 0.950 . S
H1203 C1233 0.950 . S
C1204 H1186 0.951 . S
C1204 C1205 1.366 . S
C1204 C1206 1.388 . S
C1205 C1204 1.366 . S
C1205 C1209 1.385 . S
C1206 H1187 0.951 . S
C1206 C1204 1.388 . S
C1206 C1207 1.366 . S
C1207 C1206 1.366 . S
C1207 C1208 1.414 . S
C1207 C1210 1.499 . S
C1208 H1188 0.950 . S
C1208 C1207 1.414 . S
C1208 C1209 1.374 . S
C1209 H1189 0.950 . S
C1209 C1205 1.385 . S
C1209 C1208 1.374 . S
C1210 C1207 1.499 . S
C1210 C1211 1.373 . S
C1210 C1212 1.389 . S
C1211 H1190 0.950 . S
C1211 C1210 1.373 . S
C1211 C1227 1.377 . S
C1212 C1210 1.389 . S
C1212 C1213 1.524 . S
C1212 C1226 1.377 . S
C1213 C1212 1.524 . S
C1213 C1214 1.397 . S
C1213 C1218 1.363 . S
C1214 H1191 0.950 . S
C1214 C1213 1.397 . S
C1214 C1215 1.334 . S
C1215 H1192 0.950 . S
C1215 C1214 1.334 . S
C1215 C1216 1.287 . S
C1216 C1215 1.287 . S
C1216 C1217 1.524 . S
C1216 H1235 0.913 . S
C1217 H1193 0.950 . S
C1217 C1216 1.524 . S
C1217 C1218 1.415 . S
C1218 H1194 0.950 . S
C1218 C1213 1.363 . S
C1218 C1217 1.415 . S
C1219 H1195 0.951 . S
C1219 C1220 1.366 . S
C1219 C1221 1.388 . S
C1220 C1219 1.366 . S
C1220 C1224 1.385 . S
C1221 H1196 0.951 . S
C1221 C1219 1.388 . S
C1221 C1222 1.366 . S
C1222 C1221 1.366 . S
C1222 C1223 1.414 . S
C1222 C1225 1.499 . S
C1223 H1197 0.950 . S
C1223 C1222 1.414 . S
C1223 C1224 1.374 . S
C1224 H1198 0.950 . S
C1224 C1220 1.385 . S
C1224 C1223 1.374 . S
C1225 C1222 1.499 . S
C1225 C1226 1.373 . S
C1225 C1227 1.389 . S
C1226 H1199 0.950 . S
C1226 C1212 1.377 . S
C1226 C1225 1.373 . S
C1227 C1211 1.377 . S
C1227 C1225 1.389 . S
C1227 C1228 1.524 . S
C1228 C1227 1.524 . S
C1228 C1229 1.397 . S
C1228 C1233 1.363 . S
C1229 H1200 0.950 . S
C1229 C1228 1.397 . S
C1229 C1230 1.334 . S
C1230 H1201 0.950 . S
C1230 C1229 1.334 . S
C1230 C1231 1.287 . S
C1231 C1230 1.287 . S
C1231 C1232 1.524 . S
C1231 H1234 0.999 . S
C1232 H1202 0.950 . S
C1232 C1231 1.524 . S
C1232 C1233 1.415 . S
C1233 H1203 0.950 . S
C1233 C1228 1.363 . S
C1233 C1232 1.415 . S
H1234 C1231 0.999 . S
H1235 C1216 0.913 . S
H1236 C1254 0.951 . S
H1237 C1256 0.951 1_556 S
H1238 C1258 0.950 . S
H1239 C1259 0.950 . S
H1240 C1261 0.950 . S
H1241 C1264 0.950 1_554 S
H1242 C1265 0.950 . S
H1243 C1267 0.950 . S
H1244 C1268 0.950 . S
H1245 C1269 0.951 . S
H1246 C1271 0.951 1_554 S
H1247 C1273 0.950 . S
H1248 C1274 0.950 . S
H1249 C1276 0.950 . S
H1250 C1279 0.950 1_556 S
H1251 C1280 0.950 . S
H1252 C1282 0.950 . S
H1253 C1283 0.950 . S
C1254 H1236 0.951 . S
C1254 C1255 1.366 . S
C1254 C1256 1.388 . S
C1255 C1254 1.366 . S
C1255 C1259 1.385 . S
C1256 H1237 0.951 1_554 S
C1256 C1254 1.388 . S
C1256 C1257 1.366 . S
C1257 C1256 1.366 . S
C1257 C1258 1.414 . S
C1257 C1260 1.499 . S
C1258 H1238 0.950 . S
C1258 C1257 1.414 . S
C1258 C1259 1.374 . S
C1259 H1239 0.950 . S
C1259 C1255 1.385 . S
C1259 C1258 1.374 . S
C1260 C1257 1.499 . S
C1260 C1261 1.373 . S
C1260 C1262 1.389 1_554 S
C1261 H1240 0.950 . S
C1261 C1260 1.373 . S
C1261 C1277 1.377 . S
C1262 C1260 1.389 1_556 S
C1262 C1263 1.524 . S
C1262 C1276 1.377 . S
C1263 C1262 1.524 . S
C1263 C1264 1.397 . S
C1263 C1268 1.363 . S
C1264 H1241 0.950 1_556 S
C1264 C1263 1.397 . S
C1264 C1265 1.334 . S
C1265 H1242 0.950 . S
C1265 C1264 1.334 . S
C1265 C1266 1.287 . S
C1266 C1265 1.287 . S
C1266 C1267 1.524 . S
C1266 H1285 0.913 . S
C1267 H1243 0.950 . S
C1267 C1266 1.524 . S
C1267 C1268 1.415 . S
C1268 H1244 0.950 . S
C1268 C1263 1.363 . S
C1268 C1267 1.415 . S
C1269 H1245 0.951 . S
C1269 C1270 1.366 . S
C1269 C1271 1.388 . S
C1270 C1269 1.366 . S
C1270 C1274 1.385 . S
C1271 H1246 0.951 1_556 S
C1271 C1269 1.388 . S
C1271 C1272 1.366 . S
C1272 C1271 1.366 . S
C1272 C1273 1.414 . S
C1272 C1275 1.499 . S
C1273 H1247 0.950 . S
C1273 C1272 1.414 . S
C1273 C1274 1.374 . S
C1274 H1248 0.950 . S
C1274 C1270 1.385 . S
C1274 C1273 1.374 . S
C1275 C1272 1.499 . S
C1275 C1276 1.373 . S
C1275 C1277 1.389 1_556 S
C1276 H1249 0.950 . S
C1276 C1262 1.377 . S
C1276 C1275 1.373 . S
C1277 C1261 1.377 . S
C1277 C1275 1.389 1_554 S
C1277 C1278 1.524 . S
C1278 C1277 1.524 . S
C1278 C1279 1.397 . S
C1278 C1283 1.363 . S
C1279 H1250 0.950 1_554 S
C1279 C1278 1.397 . S
C1279 C1280 1.334 . S
C1280 H1251 0.950 . S
C1280 C1279 1.334 . S
C1280 C1281 1.287 . S
C1281 C1280 1.287 . S
C1281 C1282 1.524 . S
C1281 H1284 0.999 . S
C1282 H1252 0.950 . S
C1282 C1281 1.524 . S
C1282 C1283 1.415 . S
C1283 H1253 0.950 . S
C1283 C1278 1.363 . S
C1283 C1282 1.415 . S
H1284 C1281 0.999 . S
H1285 C1266 0.913 . S
H1286 C1304 0.951 . S
H1287 C1306 0.951 . S
H1288 C1308 0.950 . S
H1289 C1309 0.950 . S
H1290 C1311 0.950 . S
H1291 C1314 0.950 . S
H1292 C1315 0.950 . S
H1293 C1317 0.950 . S
H1294 C1318 0.950 . S
H1295 C1319 0.951 . S
H1296 C1321 0.951 . S
H1297 C1323 0.950 . S
H1298 C1324 0.950 . S
H1299 C1326 0.950 . S
H1300 C1329 0.950 . S
H1301 C1330 0.950 . S
H1302 C1332 0.950 . S
H1303 C1333 0.950 . S
C1304 H1286 0.951 . S
C1304 C1305 1.366 . S
C1304 C1306 1.388 . S
C1305 C1304 1.366 . S
C1305 C1309 1.385 . S
C1306 H1287 0.951 . S
C1306 C1304 1.388 . S
C1306 C1307 1.366 . S
C1307 C1306 1.366 . S
C1307 C1308 1.414 . S
C1307 C1310 1.499 . S
C1308 H1288 0.950 . S
C1308 C1307 1.414 . S
C1308 C1309 1.374 . S
C1309 H1289 0.950 . S
C1309 C1305 1.385 . S
C1309 C1308 1.374 . S
C1310 C1307 1.499 . S
C1310 C1311 1.373 . S
C1310 C1312 1.389 . S
C1311 H1290 0.950 . S
C1311 C1310 1.373 . S
C1311 C1327 1.377 . S
C1312 C1310 1.389 . S
C1312 C1313 1.524 . S
C1312 C1326 1.377 . S
C1313 C1312 1.524 . S
C1313 C1314 1.397 . S
C1313 C1318 1.363 . S
C1314 H1291 0.950 . S
C1314 C1313 1.397 . S
C1314 C1315 1.334 . S
C1315 H1292 0.950 . S
C1315 C1314 1.334 . S
C1315 C1316 1.287 . S
C1316 C1315 1.287 . S
C1316 C1317 1.524 . S
C1316 H1335 0.913 . S
C1317 H1293 0.950 . S
C1317 C1316 1.524 . S
C1317 C1318 1.415 . S
C1318 H1294 0.950 . S
C1318 C1313 1.363 . S
C1318 C1317 1.415 . S
C1319 H1295 0.951 . S
C1319 C1320 1.366 . S
C1319 C1321 1.388 . S
C1320 C1319 1.366 . S
C1320 C1324 1.385 . S
C1321 H1296 0.951 . S
C1321 C1319 1.388 . S
C1321 C1322 1.366 . S
C1322 C1321 1.366 . S
C1322 C1323 1.414 . S
C1322 C1325 1.499 . S
C1323 H1297 0.950 . S
C1323 C1322 1.414 . S
C1323 C1324 1.374 . S
C1324 H1298 0.950 . S
C1324 C1320 1.385 . S
C1324 C1323 1.374 . S
C1325 C1322 1.499 . S
C1325 C1326 1.373 . S
C1325 C1327 1.389 . S
C1326 H1299 0.950 . S
C1326 C1312 1.377 . S
C1326 C1325 1.373 . S
C1327 C1311 1.377 . S
C1327 C1325 1.389 . S
C1327 C1328 1.524 . S
C1328 C1327 1.524 . S
C1328 C1329 1.397 . S
C1328 C1333 1.363 . S
C1329 H1300 0.950 . S
C1329 C1328 1.397 . S
C1329 C1330 1.334 . S
C1330 H1301 0.950 . S
C1330 C1329 1.334 . S
C1330 C1331 1.287 . S
C1331 C1330 1.287 . S
C1331 C1332 1.524 . S
C1331 H1334 0.999 . S
C1332 H1302 0.950 . S
C1332 C1331 1.524 . S
C1332 C1333 1.415 . S
C1333 H1303 0.950 . S
C1333 C1328 1.363 . S
C1333 C1332 1.415 . S
H1334 C1331 0.999 . S
H1335 C1316 0.913 . S
H1336 C1354 0.951 . S
H1337 C1356 0.951 . S
H1338 C1358 0.950 . S
H1339 C1359 0.950 . S
H1340 C1361 0.950 . S
H1341 C1364 0.950 . S
H1342 C1365 0.950 . S
H1343 C1367 0.950 . S
H1344 C1368 0.950 . S
H1345 C1369 0.951 . S
H1346 C1371 0.951 . S
H1347 C1373 0.950 . S
H1348 C1374 0.950 . S
H1349 C1376 0.950 . S
H1350 C1379 0.950 . S
H1351 C1380 0.950 . S
H1352 C1382 0.950 . S
H1353 C1383 0.950 . S
C1354 H1336 0.951 . S
C1354 C1355 1.366 . S
C1354 C1356 1.388 . S
C1355 C1354 1.366 . S
C1355 C1359 1.385 . S
C1356 H1337 0.951 . S
C1356 C1354 1.388 . S
C1356 C1357 1.366 . S
C1357 C1356 1.366 . S
C1357 C1358 1.414 . S
C1357 C1360 1.499 . S
C1358 H1338 0.950 . S
C1358 C1357 1.414 . S
C1358 C1359 1.374 . S
C1359 H1339 0.950 . S
C1359 C1355 1.385 . S
C1359 C1358 1.374 . S
C1360 C1357 1.499 . S
C1360 C1361 1.373 . S
C1360 C1362 1.389 1_556 S
C1361 H1340 0.950 . S
C1361 C1360 1.373 . S
C1361 C1377 1.377 . S
C1362 C1360 1.389 1_554 S
C1362 C1363 1.524 . S
C1362 C1376 1.377 . S
C1363 C1362 1.524 . S
C1363 C1364 1.397 . S
C1363 C1368 1.363 . S
C1364 H1341 0.950 . S
C1364 C1363 1.397 . S
C1364 C1365 1.334 . S
C1365 H1342 0.950 . S
C1365 C1364 1.334 . S
C1365 C1366 1.287 . S
C1366 C1365 1.287 . S
C1366 C1367 1.524 . S
C1366 H1385 0.913 . S
C1367 H1343 0.950 . S
C1367 C1366 1.524 . S
C1367 C1368 1.415 . S
C1368 H1344 0.950 . S
C1368 C1363 1.363 . S
C1368 C1367 1.415 . S
C1369 H1345 0.951 . S
C1369 C1370 1.366 . S
C1369 C1371 1.388 . S
C1370 C1369 1.366 . S
C1370 C1374 1.385 . S
C1371 H1346 0.951 . S
C1371 C1369 1.388 . S
C1371 C1372 1.366 . S
C1372 C1371 1.366 . S
C1372 C1373 1.414 . S
C1372 C1375 1.499 . S
C1373 H1347 0.950 . S
C1373 C1372 1.414 . S
C1373 C1374 1.374 . S
C1374 H1348 0.950 . S
C1374 C1370 1.385 . S
C1374 C1373 1.374 . S
C1375 C1372 1.499 . S
C1375 C1376 1.373 . S
C1375 C1377 1.389 1_554 S
C1376 H1349 0.950 . S
C1376 C1362 1.377 . S
C1376 C1375 1.373 . S
C1377 C1361 1.377 . S
C1377 C1375 1.389 1_556 S
C1377 C1378 1.524 . S
C1378 C1377 1.524 . S
C1378 C1379 1.397 . S
C1378 C1383 1.363 . S
C1379 H1350 0.950 . S
C1379 C1378 1.397 . S
C1379 C1380 1.334 . S
C1380 H1351 0.950 . S
C1380 C1379 1.334 . S
C1380 C1381 1.287 . S
C1381 C1380 1.287 . S
C1381 C1382 1.524 . S
C1381 H1384 0.999 . S
C1382 H1352 0.950 . S
C1382 C1381 1.524 . S
C1382 C1383 1.415 . S
C1383 H1353 0.950 . S
C1383 C1378 1.363 . S
C1383 C1382 1.415 . S
H1384 C1381 0.999 . S
H1385 C1366 0.913 . S
H1386 C1404 0.951 . S
H1387 C1406 0.951 . S
H1388 C1408 0.950 . S
H1389 C1409 0.950 . S
H1390 C1411 0.950 . S
H1391 C1414 0.950 . S
H1392 C1415 0.950 . S
H1393 C1417 0.950 . S
H1394 C1418 0.950 . S
H1395 C1419 0.951 . S
H1396 C1421 0.951 . S
H1397 C1423 0.950 . S
H1398 C1424 0.950 . S
H1399 C1426 0.950 . S
H1400 C1429 0.950 . S
H1401 C1430 0.950 . S
H1402 C1432 0.950 . S
H1403 C1433 0.950 . S
C1404 H1386 0.951 . S
C1404 C1405 1.366 . S
C1404 C1406 1.388 . S
C1405 C1404 1.366 . S
C1405 C1409 1.385 . S
C1406 H1387 0.951 . S
C1406 C1404 1.388 . S
C1406 C1407 1.366 . S
C1407 C1406 1.366 . S
C1407 C1408 1.414 . S
C1407 C1410 1.499 . S
C1408 H1388 0.950 . S
C1408 C1407 1.414 . S
C1408 C1409 1.374 . S
C1409 H1389 0.950 . S
C1409 C1405 1.385 . S
C1409 C1408 1.374 . S
C1410 C1407 1.499 . S
C1410 C1411 1.373 . S
C1410 C1412 1.389 . S
C1411 H1390 0.950 . S
C1411 C1410 1.373 . S
C1411 C1427 1.377 . S
C1412 C1410 1.389 . S
C1412 C1413 1.524 . S
C1412 C1426 1.377 . S
C1413 C1412 1.524 . S
C1413 C1414 1.397 . S
C1413 C1418 1.363 . S
C1414 H1391 0.950 . S
C1414 C1413 1.397 . S
C1414 C1415 1.334 . S
C1415 H1392 0.950 . S
C1415 C1414 1.334 . S
C1415 C1416 1.287 . S
C1416 C1415 1.287 . S
C1416 C1417 1.524 . S
C1416 H1435 0.913 . S
C1417 H1393 0.950 . S
C1417 C1416 1.524 . S
C1417 C1418 1.415 . S
C1418 H1394 0.950 . S
C1418 C1413 1.363 . S
C1418 C1417 1.415 . S
C1419 H1395 0.951 . S
C1419 C1420 1.366 . S
C1419 C1421 1.388 . S
C1420 C1419 1.366 . S
C1420 C1424 1.385 . S
C1421 H1396 0.951 . S
C1421 C1419 1.388 . S
C1421 C1422 1.366 . S
C1422 C1421 1.366 . S
C1422 C1423 1.414 . S
C1422 C1425 1.499 . S
C1423 H1397 0.950 . S
C1423 C1422 1.414 . S
C1423 C1424 1.374 . S
C1424 H1398 0.950 . S
C1424 C1420 1.385 . S
C1424 C1423 1.374 . S
C1425 C1422 1.499 . S
C1425 C1426 1.373 . S
C1425 C1427 1.389 . S
C1426 H1399 0.950 . S
C1426 C1412 1.377 . S
C1426 C1425 1.373 . S
C1427 C1411 1.377 . S
C1427 C1425 1.389 . S
C1427 C1428 1.524 . S
C1428 C1427 1.524 . S
C1428 C1429 1.397 . S
C1428 C1433 1.363 . S
C1429 H1400 0.950 . S
C1429 C1428 1.397 . S
C1429 C1430 1.334 . S
C1430 H1401 0.950 . S
C1430 C1429 1.334 . S
C1430 C1431 1.287 . S
C1431 C1430 1.287 . S
C1431 C1432 1.524 . S
C1431 H1434 0.999 . S
C1432 H1402 0.950 . S
C1432 C1431 1.524 . S
C1432 C1433 1.415 . S
C1433 H1403 0.950 . S
C1433 C1428 1.363 . S
C1433 C1432 1.415 . S
H1434 C1431 0.999 . S
H1435 C1416 0.913 . S
H1436 C1454 0.951 . S
H1437 C1456 0.951 . S
H1438 C1458 0.950 1_554 S
H1439 C1459 0.950 . S
H1440 C1461 0.950 . S
H1441 C1464 0.950 . S
H1442 C1465 0.950 . S
H1443 C1467 0.950 . S
H1444 C1468 0.950 . S
H1445 C1469 0.951 . S
H1446 C1471 0.951 . S
H1447 C1473 0.950 1_556 S
H1448 C1474 0.950 . S
H1449 C1476 0.950 . S
H1450 C1479 0.950 . S
H1451 C1480 0.950 . S
H1452 C1482 0.950 . S
H1453 C1483 0.950 . S
C1454 H1436 0.951 . S
C1454 C1455 1.366 . S
C1454 C1456 1.388 . S
C1455 C1454 1.366 . S
C1455 C1459 1.385 . S
C1456 H1437 0.951 . S
C1456 C1454 1.388 . S
C1456 C1457 1.366 . S
C1457 C1456 1.366 . S
C1457 C1458 1.414 . S
C1457 C1460 1.499 . S
C1458 H1438 0.950 1_556 S
C1458 C1457 1.414 . S
C1458 C1459 1.374 . S
C1459 H1439 0.950 . S
C1459 C1455 1.385 . S
C1459 C1458 1.374 . S
C1460 C1457 1.499 . S
C1460 C1461 1.373 1_556 S
C1460 C1462 1.389 . S
C1461 H1440 0.950 . S
C1461 C1460 1.373 1_554 S
C1461 C1477 1.377 . S
C1462 C1460 1.389 . S
C1462 C1463 1.524 . S
C1462 C1476 1.377 . S
C1463 C1462 1.524 . S
C1463 C1464 1.397 . S
C1463 C1468 1.363 . S
C1464 H1441 0.950 . S
C1464 C1463 1.397 . S
C1464 C1465 1.334 . S
C1465 H1442 0.950 . S
C1465 C1464 1.334 . S
C1465 C1466 1.287 . S
C1466 C1465 1.287 . S
C1466 C1467 1.524 . S
C1466 H1485 0.913 . S
C1467 H1443 0.950 . S
C1467 C1466 1.524 . S
C1467 C1468 1.415 . S
C1468 H1444 0.950 . S
C1468 C1463 1.363 . S
C1468 C1467 1.415 . S
C1469 H1445 0.951 . S
C1469 C1470 1.366 . S
C1469 C1471 1.388 . S
C1470 C1469 1.366 . S
C1470 C1474 1.385 . S
C1471 H1446 0.951 . S
C1471 C1469 1.388 . S
C1471 C1472 1.366 . S
C1472 C1471 1.366 . S
C1472 C1473 1.414 . S
C1472 C1475 1.499 . S
C1473 H1447 0.950 1_554 S
C1473 C1472 1.414 . S
C1473 C1474 1.374 . S
C1474 H1448 0.950 . S
C1474 C1470 1.385 . S
C1474 C1473 1.374 . S
C1475 C1472 1.499 . S
C1475 C1476 1.373 1_554 S
C1475 C1477 1.389 . S
C1476 H1449 0.950 . S
C1476 C1462 1.377 . S
C1476 C1475 1.373 1_556 S
C1477 C1461 1.377 . S
C1477 C1475 1.389 . S
C1477 C1478 1.524 . S
C1478 C1477 1.524 . S
C1478 C1479 1.397 . S
C1478 C1483 1.363 . S
C1479 H1450 0.950 . S
C1479 C1478 1.397 . S
C1479 C1480 1.334 . S
C1480 H1451 0.950 . S
C1480 C1479 1.334 . S
C1480 C1481 1.287 . S
C1481 C1480 1.287 . S
C1481 C1482 1.524 . S
C1481 H1484 0.999 . S
C1482 H1452 0.950 . S
C1482 C1481 1.524 . S
C1482 C1483 1.415 . S
C1483 H1453 0.950 . S
C1483 C1478 1.363 . S
C1483 C1482 1.415 . S
H1484 C1481 0.999 . S
H1485 C1466 0.913 . S
H1486 C1504 0.951 . S
H1487 C1506 0.951 . S
H1488 C1508 0.950 . S
H1489 C1509 0.950 . S
H1490 C1511 0.950 . S
H1491 C1514 0.950 . S
H1492 C1515 0.950 . S
H1493 C1517 0.950 . S
H1494 C1518 0.950 . S
H1495 C1519 0.951 . S
H1496 C1521 0.951 . S
H1497 C1523 0.950 . S
H1498 C1524 0.950 . S
H1499 C1526 0.950 . S
H1500 C1529 0.950 . S
H1501 C1530 0.950 . S
H1502 C1532 0.950 . S
H1503 C1533 0.950 . S
C1504 H1486 0.951 . S
C1504 C1505 1.366 . S
C1504 C1506 1.388 . S
C1505 C1504 1.366 . S
C1505 C1509 1.385 . S
C1506 H1487 0.951 . S
C1506 C1504 1.388 . S
C1506 C1507 1.366 . S
C1507 C1506 1.366 . S
C1507 C1508 1.414 . S
C1507 C1510 1.499 . S
C1508 H1488 0.950 . S
C1508 C1507 1.414 . S
C1508 C1509 1.374 . S
C1509 H1489 0.950 . S
C1509 C1505 1.385 . S
C1509 C1508 1.374 . S
C1510 C1507 1.499 . S
C1510 C1511 1.373 . S
C1510 C1512 1.389 . S
C1511 H1490 0.950 . S
C1511 C1510 1.373 . S
C1511 C1527 1.377 . S
C1512 C1510 1.389 . S
C1512 C1513 1.524 . S
C1512 C1526 1.377 . S
C1513 C1512 1.524 . S
C1513 C1514 1.397 . S
C1513 C1518 1.363 . S
C1514 H1491 0.950 . S
C1514 C1513 1.397 . S
C1514 C1515 1.334 . S
C1515 H1492 0.950 . S
C1515 C1514 1.334 . S
C1515 C1516 1.287 . S
C1516 C1515 1.287 . S
C1516 C1517 1.524 . S
C1516 H1535 0.913 . S
C1517 H1493 0.950 . S
C1517 C1516 1.524 . S
C1517 C1518 1.415 . S
C1518 H1494 0.950 . S
C1518 C1513 1.363 . S
C1518 C1517 1.415 . S
C1519 H1495 0.951 . S
C1519 C1520 1.366 . S
C1519 C1521 1.388 . S
C1520 C1519 1.366 . S
C1520 C1524 1.385 . S
C1521 H1496 0.951 . S
C1521 C1519 1.388 . S
C1521 C1522 1.366 . S
C1522 C1521 1.366 . S
C1522 C1523 1.414 . S
C1522 C1525 1.499 . S
C1523 H1497 0.950 . S
C1523 C1522 1.414 . S
C1523 C1524 1.374 . S
C1524 H1498 0.950 . S
C1524 C1520 1.385 . S
C1524 C1523 1.374 . S
C1525 C1522 1.499 . S
C1525 C1526 1.373 . S
C1525 C1527 1.389 . S
C1526 H1499 0.950 . S
C1526 C1512 1.377 . S
C1526 C1525 1.373 . S
C1527 C1511 1.377 . S
C1527 C1525 1.389 . S
C1527 C1528 1.524 . S
C1528 C1527 1.524 . S
C1528 C1529 1.397 . S
C1528 C1533 1.363 . S
C1529 H1500 0.950 . S
C1529 C1528 1.397 . S
C1529 C1530 1.334 . S
C1530 H1501 0.950 . S
C1530 C1529 1.334 . S
C1530 C1531 1.287 . S
C1531 C1530 1.287 . S
C1531 C1532 1.524 . S
C1531 H1534 0.999 . S
C1532 H1502 0.950 . S
C1532 C1531 1.524 . S
C1532 C1533 1.415 . S
C1533 H1503 0.950 . S
C1533 C1528 1.363 . S
C1533 C1532 1.415 . S
H1534 C1531 0.999 . S
H1535 C1516 0.913 . S
H1536 C1554 0.951 . S
H1537 C1556 0.951 . S
H1538 C1558 0.950 . S
H1539 C1559 0.950 . S
H1540 C1561 0.950 . S
H1541 C1564 0.950 . S
H1542 C1565 0.950 . S
H1543 C1567 0.950 . S
H1544 C1568 0.950 . S
H1545 C1569 0.951 . S
H1546 C1571 0.951 . S
H1547 C1573 0.950 . S
H1548 C1574 0.950 . S
H1549 C1576 0.950 . S
H1550 C1579 0.950 . S
H1551 C1580 0.950 1_556 S
H1552 C1582 0.950 . S
H1553 C1583 0.950 . S
C1554 H1536 0.951 . S
C1554 C1555 1.366 . S
C1554 C1556 1.388 . S
C1555 C1554 1.366 . S
C1555 C1559 1.385 . S
C1556 H1537 0.951 . S
C1556 C1554 1.388 . S
C1556 C1557 1.366 . S
C1557 C1556 1.366 . S
C1557 C1558 1.414 . S
C1557 C1560 1.499 . S
C1558 H1538 0.950 . S
C1558 C1557 1.414 . S
C1558 C1559 1.374 . S
C1559 H1539 0.950 . S
C1559 C1555 1.385 . S
C1559 C1558 1.374 . S
C1560 C1557 1.499 . S
C1560 C1561 1.373 . S
C1560 C1562 1.389 . S
C1561 H1540 0.950 . S
C1561 C1560 1.373 . S
C1561 C1577 1.377 . S
C1562 C1560 1.389 . S
C1562 C1563 1.524 . S
C1562 C1576 1.377 . S
C1563 C1562 1.524 . S
C1563 C1564 1.397 . S
C1563 C1568 1.363 . S
C1564 H1541 0.950 . S
C1564 C1563 1.397 . S
C1564 C1565 1.334 . S
C1565 H1542 0.950 . S
C1565 C1564 1.334 . S
C1565 C1566 1.287 . S
C1566 C1565 1.287 . S
C1566 C1567 1.524 . S
C1566 H1585 0.913 . S
C1567 H1543 0.950 . S
C1567 C1566 1.524 . S
C1567 C1568 1.415 . S
C1568 H1544 0.950 . S
C1568 C1563 1.363 . S
C1568 C1567 1.415 . S
C1569 H1545 0.951 . S
C1569 C1570 1.366 . S
C1569 C1571 1.388 . S
C1570 C1569 1.366 . S
C1570 C1574 1.385 . S
C1571 H1546 0.951 . S
C1571 C1569 1.388 . S
C1571 C1572 1.366 . S
C1572 C1571 1.366 . S
C1572 C1573 1.414 . S
C1572 C1575 1.499 . S
C1573 H1547 0.950 . S
C1573 C1572 1.414 . S
C1573 C1574 1.374 . S
C1574 H1548 0.950 . S
C1574 C1570 1.385 . S
C1574 C1573 1.374 . S
C1575 C1572 1.499 . S
C1575 C1576 1.373 . S
C1575 C1577 1.389 . S
C1576 H1549 0.950 . S
C1576 C1562 1.377 . S
C1576 C1575 1.373 . S
C1577 C1561 1.377 . S
C1577 C1575 1.389 . S
C1577 C1578 1.524 . S
C1578 C1577 1.524 . S
C1578 C1579 1.397 . S
C1578 C1583 1.363 . S
C1579 H1550 0.950 . S
C1579 C1578 1.397 . S
C1579 C1580 1.334 . S
C1580 H1551 0.950 1_554 S
C1580 C1579 1.334 . S
C1580 C1581 1.287 1_554 S
C1581 C1580 1.287 1_556 S
C1581 C1582 1.524 1_556 S
C1581 H1584 0.999 . S
C1582 H1552 0.950 . S
C1582 C1581 1.524 1_554 S
C1582 C1583 1.415 . S
C1583 H1553 0.950 . S
C1583 C1578 1.363 . S
C1583 C1582 1.415 . S
H1584 C1581 0.999 . S
H1585 C1566 0.913 . S
H1586 C1604 0.951 . S
H1587 C1606 0.951 . S
H1588 C1608 0.950 . S
H1589 C1609 0.950 . S
H1590 C1611 0.950 . S
H1591 C1614 0.950 . S
H1592 C1615 0.950 . S
H1593 C1617 0.950 . S
H1594 C1618 0.950 . S
H1595 C1619 0.951 . S
H1596 C1621 0.951 . S
H1597 C1623 0.950 . S
H1598 C1624 0.950 . S
H1599 C1626 0.950 . S
H1600 C1629 0.950 . S
H1601 C1630 0.950 . S
H1602 C1632 0.950 . S
H1603 C1633 0.950 . S
C1604 H1586 0.951 . S
C1604 C1605 1.366 . S
C1604 C1606 1.388 . S
C1605 C1604 1.366 . S
C1605 C1609 1.385 . S
C1606 H1587 0.951 . S
C1606 C1604 1.388 . S
C1606 C1607 1.366 . S
C1607 C1606 1.366 . S
C1607 C1608 1.414 . S
C1607 C1610 1.499 . S
C1608 H1588 0.950 . S
C1608 C1607 1.414 . S
C1608 C1609 1.374 . S
C1609 H1589 0.950 . S
C1609 C1605 1.385 . S
C1609 C1608 1.374 . S
C1610 C1607 1.499 . S
C1610 C1611 1.373 . S
C1610 C1612 1.389 . S
C1611 H1590 0.950 . S
C1611 C1610 1.373 . S
C1611 C1627 1.377 1_455 S
C1612 C1610 1.389 . S
C1612 C1613 1.524 . S
C1612 C1626 1.377 1_455 S
C1613 C1612 1.524 . S
C1613 C1614 1.397 . S
C1613 C1618 1.363 . S
C1614 H1591 0.950 . S
C1614 C1613 1.397 . S
C1614 C1615 1.334 . S
C1615 H1592 0.950 . S
C1615 C1614 1.334 . S
C1615 C1616 1.287 . S
C1616 C1615 1.287 . S
C1616 C1617 1.524 . S
C1616 H1635 0.913 . S
C1617 H1593 0.950 . S
C1617 C1616 1.524 . S
C1617 C1618 1.415 . S
C1618 H1594 0.950 . S
C1618 C1613 1.363 . S
C1618 C1617 1.415 . S
C1619 H1595 0.951 . S
C1619 C1620 1.366 . S
C1619 C1621 1.388 . S
C1620 C1619 1.366 . S
C1620 C1624 1.385 . S
C1621 H1596 0.951 . S
C1621 C1619 1.388 . S
C1621 C1622 1.366 . S
C1622 C1621 1.366 . S
C1622 C1623 1.414 . S
C1622 C1625 1.499 . S
C1623 H1597 0.950 . S
C1623 C1622 1.414 . S
C1623 C1624 1.374 . S
C1624 H1598 0.950 . S
C1624 C1620 1.385 . S
C1624 C1623 1.374 . S
C1625 C1622 1.499 . S
C1625 C1626 1.373 . S
C1625 C1627 1.389 . S
C1626 H1599 0.950 . S
C1626 C1612 1.377 1_655 S
C1626 C1625 1.373 . S
C1627 C1611 1.377 1_655 S
C1627 C1625 1.389 . S
C1627 C1628 1.524 . S
C1628 C1627 1.524 . S
C1628 C1629 1.397 . S
C1628 C1633 1.363 . S
C1629 H1600 0.950 . S
C1629 C1628 1.397 . S
C1629 C1630 1.334 . S
C1630 H1601 0.950 . S
C1630 C1629 1.334 . S
C1630 C1631 1.287 . S
C1631 C1630 1.287 . S
C1631 C1632 1.524 . S
C1631 H1634 0.999 . S
C1632 H1602 0.950 . S
C1632 C1631 1.524 . S
C1632 C1633 1.415 . S
C1633 H1603 0.950 . S
C1633 C1628 1.363 . S
C1633 C1632 1.415 . S
H1634 C1631 0.999 . S
H1635 C1616 0.913 . S
H1636 C1654 0.951 . S
H1637 C1656 0.951 . S
H1638 C1658 0.950 . S
H1639 C1659 0.950 . S
H1640 C1661 0.950 . S
H1641 C1664 0.950 . S
H1642 C1665 0.950 . S
H1643 C1667 0.950 . S
H1644 C1668 0.950 . S
H1645 C1669 0.951 . S
H1646 C1671 0.951 . S
H1647 C1673 0.950 . S
H1648 C1674 0.950 . S
H1649 C1676 0.950 . S
H1650 C1679 0.950 . S
H1651 C1680 0.950 . S
H1652 C1682 0.950 . S
H1653 C1683 0.950 . S
C1654 H1636 0.951 . S
C1654 C1655 1.366 . S
C1654 C1656 1.388 . S
C1655 C1654 1.366 . S
C1655 C1659 1.385 . S
C1656 H1637 0.951 . S
C1656 C1654 1.388 . S
C1656 C1657 1.366 . S
C1657 C1656 1.366 . S
C1657 C1658 1.414 . S
C1657 C1660 1.499 . S
C1658 H1638 0.950 . S
C1658 C1657 1.414 . S
C1658 C1659 1.374 . S
C1659 H1639 0.950 . S
C1659 C1655 1.385 . S
C1659 C1658 1.374 . S
C1660 C1657 1.499 . S
C1660 C1661 1.373 . S
C1660 C1662 1.389 . S
C1661 H1640 0.950 . S
C1661 C1660 1.373 . S
C1661 C1677 1.377 1_565 S
C1662 C1660 1.389 . S
C1662 C1663 1.524 . S
C1662 C1676 1.377 1_565 S
C1663 C1662 1.524 . S
C1663 C1664 1.397 . S
C1663 C1668 1.363 . S
C1664 H1641 0.950 . S
C1664 C1663 1.397 . S
C1664 C1665 1.334 . S
C1665 H1642 0.950 . S
C1665 C1664 1.334 . S
C1665 C1666 1.287 . S
C1666 C1665 1.287 . S
C1666 C1667 1.524 . S
C1666 H1685 0.913 . S
C1667 H1643 0.950 . S
C1667 C1666 1.524 . S
C1667 C1668 1.415 . S
C1668 H1644 0.950 . S
C1668 C1663 1.363 . S
C1668 C1667 1.415 . S
C1669 H1645 0.951 . S
C1669 C1670 1.366 . S
C1669 C1671 1.388 . S
C1670 C1669 1.366 . S
C1670 C1674 1.385 . S
C1671 H1646 0.951 . S
C1671 C1669 1.388 . S
C1671 C1672 1.366 . S
C1672 C1671 1.366 . S
C1672 C1673 1.414 . S
C1672 C1675 1.499 . S
C1673 H1647 0.950 . S
C1673 C1672 1.414 . S
C1673 C1674 1.374 . S
C1674 H1648 0.950 . S
C1674 C1670 1.385 . S
C1674 C1673 1.374 . S
C1675 C1672 1.499 . S
C1675 C1676 1.373 . S
C1675 C1677 1.389 . S
C1676 H1649 0.950 . S
C1676 C1662 1.377 1_545 S
C1676 C1675 1.373 . S
C1677 C1661 1.377 1_545 S
C1677 C1675 1.389 . S
C1677 C1678 1.524 . S
C1678 C1677 1.524 . S
C1678 C1679 1.397 . S
C1678 C1683 1.363 . S
C1679 H1650 0.950 . S
C1679 C1678 1.397 . S
C1679 C1680 1.334 . S
C1680 H1651 0.950 . S
C1680 C1679 1.334 . S
C1680 C1681 1.287 . S
C1681 C1680 1.287 . S
C1681 C1682 1.524 . S
C1681 H1684 0.999 . S
C1682 H1652 0.950 . S
C1682 C1681 1.524 . S
C1682 C1683 1.415 . S
C1683 H1653 0.950 . S
C1683 C1678 1.363 . S
C1683 C1682 1.415 . S
H1684 C1681 0.999 . S
H1685 C1666 0.913 . S
H1686 C1704 0.951 . S
H1687 C1706 0.951 . S
H1688 C1708 0.950 . S
H1689 C1709 0.950 . S
H1690 C1711 0.950 . S
H1691 C1714 0.950 . S
H1692 C1715 0.950 . S
H1693 C1717 0.950 . S
H1694 C1718 0.950 . S
H1695 C1719 0.951 . S
H1696 C1721 0.951 . S
H1697 C1723 0.950 . S
H1698 C1724 0.950 . S
H1699 C1726 0.950 . S
H1700 C1729 0.950 . S
H1701 C1730 0.950 . S
H1702 C1732 0.950 . S
H1703 C1733 0.950 . S
C1704 H1686 0.951 . S
C1704 C1705 1.366 . S
C1704 C1706 1.388 . S
C1705 C1704 1.366 . S
C1705 C1709 1.385 . S
C1706 H1687 0.951 . S
C1706 C1704 1.388 . S
C1706 C1707 1.366 . S
C1707 C1706 1.366 . S
C1707 C1708 1.414 . S
C1707 C1710 1.499 . S
C1708 H1688 0.950 . S
C1708 C1707 1.414 . S
C1708 C1709 1.374 . S
C1709 H1689 0.950 . S
C1709 C1705 1.385 . S
C1709 C1708 1.374 . S
C1710 C1707 1.499 . S
C1710 C1711 1.373 . S
C1710 C1712 1.389 . S
C1711 H1690 0.950 . S
C1711 C1710 1.373 . S
C1711 C1727 1.377 . S
C1712 C1710 1.389 . S
C1712 C1713 1.524 . S
C1712 C1726 1.377 . S
C1713 C1712 1.524 . S
C1713 C1714 1.397 . S
C1713 C1718 1.363 . S
C1714 H1691 0.950 . S
C1714 C1713 1.397 . S
C1714 C1715 1.334 . S
C1715 H1692 0.950 . S
C1715 C1714 1.334 . S
C1715 C1716 1.287 . S
C1716 C1715 1.287 . S
C1716 C1717 1.524 . S
C1716 H1735 0.913 . S
C1717 H1693 0.950 . S
C1717 C1716 1.524 . S
C1717 C1718 1.415 . S
C1718 H1694 0.950 . S
C1718 C1713 1.363 . S
C1718 C1717 1.415 . S
C1719 H1695 0.951 . S
C1719 C1720 1.366 . S
C1719 C1721 1.388 . S
C1720 C1719 1.366 . S
C1720 C1724 1.385 . S
C1721 H1696 0.951 . S
C1721 C1719 1.388 . S
C1721 C1722 1.366 . S
C1722 C1721 1.366 . S
C1722 C1723 1.414 . S
C1722 C1725 1.499 . S
C1723 H1697 0.950 . S
C1723 C1722 1.414 . S
C1723 C1724 1.374 . S
C1724 H1698 0.950 . S
C1724 C1720 1.385 . S
C1724 C1723 1.374 . S
C1725 C1722 1.499 . S
C1725 C1726 1.373 . S
C1725 C1727 1.389 . S
C1726 H1699 0.950 . S
C1726 C1712 1.377 . S
C1726 C1725 1.373 . S
C1727 C1711 1.377 . S
C1727 C1725 1.389 . S
C1727 C1728 1.524 . S
C1728 C1727 1.524 . S
C1728 C1729 1.397 . S
C1728 C1733 1.363 . S
C1729 H1700 0.950 . S
C1729 C1728 1.397 . S
C1729 C1730 1.334 . S
C1730 H1701 0.950 . S
C1730 C1729 1.334 . S
C1730 C1731 1.287 . S
C1731 C1730 1.287 . S
C1731 C1732 1.524 . S
C1731 H1734 0.999 . S
C1732 H1702 0.950 . S
C1732 C1731 1.524 . S
C1732 C1733 1.415 . S
C1733 H1703 0.950 . S
C1733 C1728 1.363 . S
C1733 C1732 1.415 . S
H1734 C1731 0.999 . S
H1735 C1716 0.913 . S
H1736 C1754 0.951 . S
H1737 C1756 0.951 . S
H1738 C1758 0.950 . S
H1739 C1759 0.950 . S
H1740 C1761 0.950 . S
H1741 C1764 0.950 . S
H1742 C1765 0.950 . S
H1743 C1767 0.950 . S
H1744 C1768 0.950 . S
H1745 C1769 0.951 . S
H1746 C1771 0.951 . S
H1747 C1773 0.950 . S
H1748 C1774 0.950 . S
H1749 C1776 0.950 . S
H1750 C1779 0.950 . S
H1751 C1780 0.950 . S
H1752 C1782 0.950 . S
H1753 C1783 0.950 . S
C1754 H1736 0.951 . S
C1754 C1755 1.366 . S
C1754 C1756 1.388 . S
C1755 C1754 1.366 . S
C1755 C1759 1.385 . S
C1756 H1737 0.951 . S
C1756 C1754 1.388 . S
C1756 C1757 1.366 . S
C1757 C1756 1.366 . S
C1757 C1758 1.414 . S
C1757 C1760 1.499 . S
C1758 H1738 0.950 . S
C1758 C1757 1.414 . S
C1758 C1759 1.374 . S
C1759 H1739 0.950 . S
C1759 C1755 1.385 . S
C1759 C1758 1.374 . S
C1760 C1757 1.499 . S
C1760 C1761 1.373 . S
C1760 C1762 1.389 . S
C1761 H1740 0.950 . S
C1761 C1760 1.373 . S
C1761 C1777 1.377 1_655 S
C1762 C1760 1.389 . S
C1762 C1763 1.524 . S
C1762 C1776 1.377 1_655 S
C1763 C1762 1.524 . S
C1763 C1764 1.397 . S
C1763 C1768 1.363 . S
C1764 H1741 0.950 . S
C1764 C1763 1.397 . S
C1764 C1765 1.334 . S
C1765 H1742 0.950 . S
C1765 C1764 1.334 . S
C1765 C1766 1.287 . S
C1766 C1765 1.287 . S
C1766 C1767 1.524 . S
C1766 H1785 0.913 . S
C1767 H1743 0.950 . S
C1767 C1766 1.524 . S
C1767 C1768 1.415 . S
C1768 H1744 0.950 . S
C1768 C1763 1.363 . S
C1768 C1767 1.415 . S
C1769 H1745 0.951 . S
C1769 C1770 1.366 . S
C1769 C1771 1.388 . S
C1770 C1769 1.366 . S
C1770 C1774 1.385 . S
C1771 H1746 0.951 . S
C1771 C1769 1.388 . S
C1771 C1772 1.366 . S
C1772 C1771 1.366 . S
C1772 C1773 1.414 . S
C1772 C1775 1.499 . S
C1773 H1747 0.950 . S
C1773 C1772 1.414 . S
C1773 C1774 1.374 . S
C1774 H1748 0.950 . S
C1774 C1770 1.385 . S
C1774 C1773 1.374 . S
C1775 C1772 1.499 . S
C1775 C1776 1.373 . S
C1775 C1777 1.389 . S
C1776 H1749 0.950 . S
C1776 C1762 1.377 1_455 S
C1776 C1775 1.373 . S
C1777 C1761 1.377 1_455 S
C1777 C1775 1.389 . S
C1777 C1778 1.524 . S
C1778 C1777 1.524 . S
C1778 C1779 1.397 . S
C1778 C1783 1.363 . S
C1779 H1750 0.950 . S
C1779 C1778 1.397 . S
C1779 C1780 1.334 . S
C1780 H1751 0.950 . S
C1780 C1779 1.334 . S
C1780 C1781 1.287 . S
C1781 C1780 1.287 . S
C1781 C1782 1.524 . S
C1781 H1784 0.999 . S
C1782 H1752 0.950 . S
C1782 C1781 1.524 . S
C1782 C1783 1.415 . S
C1783 H1753 0.950 . S
C1783 C1778 1.363 . S
C1783 C1782 1.415 . S
H1784 C1781 0.999 . S
H1785 C1766 0.913 . S
H1786 C1804 0.951 . S
H1787 C1806 0.951 . S
H1788 C1808 0.950 . S
H1789 C1809 0.950 . S
H1790 C1811 0.950 . S
H1791 C1814 0.950 . S
H1792 C1815 0.950 . S
H1793 C1817 0.950 . S
H1794 C1818 0.950 . S
H1795 C1819 0.951 . S
H1796 C1821 0.951 . S
H1797 C1823 0.950 . S
H1798 C1824 0.950 . S
H1799 C1826 0.950 . S
H1800 C1829 0.950 . S
H1801 C1830 0.950 . S
H1802 C1832 0.950 . S
H1803 C1833 0.950 . S
C1804 H1786 0.951 . S
C1804 C1805 1.366 . S
C1804 C1806 1.388 . S
C1805 C1804 1.366 . S
C1805 C1809 1.385 . S
C1806 H1787 0.951 . S
C1806 C1804 1.388 . S
C1806 C1807 1.366 . S
C1807 C1806 1.366 . S
C1807 C1808 1.414 . S
C1807 C1810 1.499 . S
C1808 H1788 0.950 . S
C1808 C1807 1.414 . S
C1808 C1809 1.374 . S
C1809 H1789 0.950 . S
C1809 C1805 1.385 . S
C1809 C1808 1.374 . S
C1810 C1807 1.499 . S
C1810 C1811 1.373 . S
C1810 C1812 1.389 . S
C1811 H1790 0.950 . S
C1811 C1810 1.373 . S
C1811 C1827 1.377 1_545 S
C1812 C1810 1.389 . S
C1812 C1813 1.524 . S
C1812 C1826 1.377 1_545 S
C1813 C1812 1.524 . S
C1813 C1814 1.397 . S
C1813 C1818 1.363 . S
C1814 H1791 0.950 . S
C1814 C1813 1.397 . S
C1814 C1815 1.334 . S
C1815 H1792 0.950 . S
C1815 C1814 1.334 . S
C1815 C1816 1.287 . S
C1816 C1815 1.287 . S
C1816 C1817 1.524 . S
C1816 H1835 0.913 . S
C1817 H1793 0.950 . S
C1817 C1816 1.524 . S
C1817 C1818 1.415 . S
C1818 H1794 0.950 . S
C1818 C1813 1.363 . S
C1818 C1817 1.415 . S
C1819 H1795 0.951 . S
C1819 C1820 1.366 . S
C1819 C1821 1.388 . S
C1820 C1819 1.366 . S
C1820 C1824 1.385 . S
C1821 H1796 0.951 . S
C1821 C1819 1.388 . S
C1821 C1822 1.366 . S
C1822 C1821 1.366 . S
C1822 C1823 1.414 . S
C1822 C1825 1.499 . S
C1823 H1797 0.950 . S
C1823 C1822 1.414 . S
C1823 C1824 1.374 . S
C1824 H1798 0.950 . S
C1824 C1820 1.385 . S
C1824 C1823 1.374 . S
C1825 C1822 1.499 . S
C1825 C1826 1.373 . S
C1825 C1827 1.389 . S
C1826 H1799 0.950 . S
C1826 C1812 1.377 1_565 S
C1826 C1825 1.373 . S
C1827 C1811 1.377 1_565 S
C1827 C1825 1.389 . S
C1827 C1828 1.524 . S
C1828 C1827 1.524 . S
C1828 C1829 1.397 . S
C1828 C1833 1.363 . S
C1829 H1800 0.950 . S
C1829 C1828 1.397 . S
C1829 C1830 1.334 . S
C1830 H1801 0.950 . S
C1830 C1829 1.334 . S
C1830 C1831 1.287 . S
C1831 C1830 1.287 . S
C1831 C1832 1.524 . S
C1831 H1834 0.999 . S
C1832 H1802 0.950 . S
C1832 C1831 1.524 . S
C1832 C1833 1.415 . S
C1833 H1803 0.950 . S
C1833 C1828 1.363 . S
C1833 C1832 1.415 . S
H1834 C1831 0.999 . S
H1835 C1816 0.913 . S
H1836 C1854 0.951 . S
H1837 C1856 0.951 . S
H1838 C1858 0.950 . S
H1839 C1859 0.950 . S
H1840 C1861 0.950 . S
H1841 C1864 0.950 . S
H1842 C1865 0.950 1_554 S
H1843 C1867 0.950 . S
H1844 C1868 0.950 . S
H1845 C1869 0.951 . S
H1846 C1871 0.951 . S
H1847 C1873 0.950 . S
H1848 C1874 0.950 . S
H1849 C1876 0.950 . S
H1850 C1879 0.950 . S
H1851 C1880 0.950 . S
H1852 C1882 0.950 . S
H1853 C1883 0.950 . S
C1854 H1836 0.951 . S
C1854 C1855 1.366 . S
C1854 C1856 1.388 . S
C1855 C1854 1.366 . S
C1855 C1859 1.385 . S
C1856 H1837 0.951 . S
C1856 C1854 1.388 . S
C1856 C1857 1.366 . S
C1857 C1856 1.366 . S
C1857 C1858 1.414 . S
C1857 C1860 1.499 . S
C1858 H1838 0.950 . S
C1858 C1857 1.414 . S
C1858 C1859 1.374 . S
C1859 H1839 0.950 . S
C1859 C1855 1.385 . S
C1859 C1858 1.374 . S
C1860 C1857 1.499 . S
C1860 C1861 1.373 . S
C1860 C1862 1.389 . S
C1861 H1840 0.950 . S
C1861 C1860 1.373 . S
C1861 C1877 1.377 . S
C1862 C1860 1.389 . S
C1862 C1863 1.524 . S
C1862 C1876 1.377 . S
C1863 C1862 1.524 . S
C1863 C1864 1.397 . S
C1863 C1868 1.363 . S
C1864 H1841 0.950 . S
C1864 C1863 1.397 . S
C1864 C1865 1.334 . S
C1865 H1842 0.950 1_556 S
C1865 C1864 1.334 . S
C1865 C1866 1.287 1_556 S
C1866 C1865 1.287 1_554 S
C1866 C1867 1.524 . S
C1866 H1885 0.913 . S
C1867 H1843 0.950 . S
C1867 C1866 1.524 . S
C1867 C1868 1.415 1_554 S
C1868 H1844 0.950 . S
C1868 C1863 1.363 . S
C1868 C1867 1.415 1_556 S
C1869 H1845 0.951 . S
C1869 C1870 1.366 . S
C1869 C1871 1.388 . S
C1870 C1869 1.366 . S
C1870 C1874 1.385 . S
C1871 H1846 0.951 . S
C1871 C1869 1.388 . S
C1871 C1872 1.366 . S
C1872 C1871 1.366 . S
C1872 C1873 1.414 . S
C1872 C1875 1.499 . S
C1873 H1847 0.950 . S
C1873 C1872 1.414 . S
C1873 C1874 1.374 . S
C1874 H1848 0.950 . S
C1874 C1870 1.385 . S
C1874 C1873 1.374 . S
C1875 C1872 1.499 . S
C1875 C1876 1.373 . S
C1875 C1877 1.389 . S
C1876 H1849 0.950 . S
C1876 C1862 1.377 . S
C1876 C1875 1.373 . S
C1877 C1861 1.377 . S
C1877 C1875 1.389 . S
C1877 C1878 1.524 . S
C1878 C1877 1.524 . S
C1878 C1879 1.397 . S
C1878 C1883 1.363 . S
C1879 H1850 0.950 . S
C1879 C1878 1.397 . S
C1879 C1880 1.334 . S
C1880 H1851 0.950 . S
C1880 C1879 1.334 . S
C1880 C1881 1.287 . S
C1881 C1880 1.287 . S
C1881 C1882 1.524 . S
C1881 H1884 0.999 . S
C1882 H1852 0.950 . S
C1882 C1881 1.524 . S
C1882 C1883 1.415 . S
C1883 H1853 0.950 . S
C1883 C1878 1.363 . S
C1883 C1882 1.415 . S
H1884 C1881 0.999 . S
H1885 C1866 0.913 . S
H1886 C1904 0.951 . S
H1887 C1906 0.951 . S
H1888 C1908 0.950 . S
H1889 C1909 0.950 . S
H1890 C1911 0.950 . S
H1891 C1914 0.950 . S
H1892 C1915 0.950 . S
H1893 C1917 0.950 . S
H1894 C1918 0.950 . S
H1895 C1919 0.951 . S
H1896 C1921 0.951 . S
H1897 C1923 0.950 . S
H1898 C1924 0.950 . S
H1899 C1926 0.950 . S
H1900 C1929 0.950 . S
H1901 C1930 0.950 . S
H1902 C1932 0.950 . S
H1903 C1933 0.950 . S
C1904 H1886 0.951 . S
C1904 C1905 1.366 . S
C1904 C1906 1.388 . S
C1905 C1904 1.366 . S
C1905 C1909 1.385 . S
C1906 H1887 0.951 . S
C1906 C1904 1.388 . S
C1906 C1907 1.366 . S
C1907 C1906 1.366 . S
C1907 C1908 1.414 . S
C1907 C1910 1.499 . S
C1908 H1888 0.950 . S
C1908 C1907 1.414 . S
C1908 C1909 1.374 . S
C1909 H1889 0.950 . S
C1909 C1905 1.385 . S
C1909 C1908 1.374 . S
C1910 C1907 1.499 . S
C1910 C1911 1.373 . S
C1910 C1912 1.389 . S
C1911 H1890 0.950 . S
C1911 C1910 1.373 . S
C1911 C1927 1.377 1_655 S
C1912 C1910 1.389 . S
C1912 C1913 1.524 . S
C1912 C1926 1.377 1_655 S
C1913 C1912 1.524 . S
C1913 C1914 1.397 . S
C1913 C1918 1.363 . S
C1914 H1891 0.950 . S
C1914 C1913 1.397 . S
C1914 C1915 1.334 . S
C1915 H1892 0.950 . S
C1915 C1914 1.334 . S
C1915 C1916 1.287 . S
C1916 C1915 1.287 . S
C1916 C1917 1.524 . S
C1916 H1935 0.913 . S
C1917 H1893 0.950 . S
C1917 C1916 1.524 . S
C1917 C1918 1.415 . S
C1918 H1894 0.950 . S
C1918 C1913 1.363 . S
C1918 C1917 1.415 . S
C1919 H1895 0.951 . S
C1919 C1920 1.366 . S
C1919 C1921 1.388 . S
C1920 C1919 1.366 . S
C1920 C1924 1.385 . S
C1921 H1896 0.951 . S
C1921 C1919 1.388 . S
C1921 C1922 1.366 . S
C1922 C1921 1.366 . S
C1922 C1923 1.414 . S
C1922 C1925 1.499 . S
C1923 H1897 0.950 . S
C1923 C1922 1.414 . S
C1923 C1924 1.374 . S
C1924 H1898 0.950 . S
C1924 C1920 1.385 . S
C1924 C1923 1.374 . S
C1925 C1922 1.499 . S
C1925 C1926 1.373 . S
C1925 C1927 1.389 . S
C1926 H1899 0.950 . S
C1926 C1912 1.377 1_455 S
C1926 C1925 1.373 . S
C1927 C1911 1.377 1_455 S
C1927 C1925 1.389 . S
C1927 C1928 1.524 . S
C1928 C1927 1.524 . S
C1928 C1929 1.397 . S
C1928 C1933 1.363 . S
C1929 H1900 0.950 . S
C1929 C1928 1.397 . S
C1929 C1930 1.334 . S
C1930 H1901 0.950 . S
C1930 C1929 1.334 . S
C1930 C1931 1.287 . S
C1931 C1930 1.287 . S
C1931 C1932 1.524 . S
C1931 H1934 0.999 . S
C1932 H1902 0.950 . S
C1932 C1931 1.524 . S
C1932 C1933 1.415 . S
C1933 H1903 0.950 . S
C1933 C1928 1.363 . S
C1933 C1932 1.415 . S
H1934 C1931 0.999 . S
H1935 C1916 0.913 . S
H1936 C1954 0.951 . S
H1937 C1956 0.951 . S
H1938 C1958 0.950 . S
H1939 C1959 0.950 . S
H1940 C1961 0.950 . S
H1941 C1964 0.950 . S
H1942 C1965 0.950 . S
H1943 C1967 0.950 . S
H1944 C1968 0.950 . S
H1945 C1969 0.951 . S
H1946 C1971 0.951 . S
H1947 C1973 0.950 . S
H1948 C1974 0.950 . S
H1949 C1976 0.950 . S
H1950 C1979 0.950 . S
H1951 C1980 0.950 . S
H1952 C1982 0.950 1_554 S
H1953 C1983 0.950 . S
C1954 H1936 0.951 . S
C1954 C1955 1.366 . S
C1954 C1956 1.388 . S
C1955 C1954 1.366 . S
C1955 C1959 1.385 . S
C1956 H1937 0.951 . S
C1956 C1954 1.388 . S
C1956 C1957 1.366 . S
C1957 C1956 1.366 . S
C1957 C1958 1.414 . S
C1957 C1960 1.499 . S
C1958 H1938 0.950 . S
C1958 C1957 1.414 . S
C1958 C1959 1.374 . S
C1959 H1939 0.950 . S
C1959 C1955 1.385 . S
C1959 C1958 1.374 . S
C1960 C1957 1.499 . S
C1960 C1961 1.373 . S
C1960 C1962 1.389 . S
C1961 H1940 0.950 . S
C1961 C1960 1.373 . S
C1961 C1977 1.377 1_545 S
C1962 C1960 1.389 . S
C1962 C1963 1.524 . S
C1962 C1976 1.377 1_545 S
C1963 C1962 1.524 . S
C1963 C1964 1.397 . S
C1963 C1968 1.363 . S
C1964 H1941 0.950 . S
C1964 C1963 1.397 . S
C1964 C1965 1.334 . S
C1965 H1942 0.950 . S
C1965 C1964 1.334 . S
C1965 C1966 1.287 . S
C1966 C1965 1.287 . S
C1966 C1967 1.524 . S
C1966 H1985 0.913 . S
C1967 H1943 0.950 . S
C1967 C1966 1.524 . S
C1967 C1968 1.415 . S
C1968 H1944 0.950 . S
C1968 C1963 1.363 . S
C1968 C1967 1.415 . S
C1969 H1945 0.951 . S
C1969 C1970 1.366 . S
C1969 C1971 1.388 . S
C1970 C1969 1.366 . S
C1970 C1974 1.385 . S
C1971 H1946 0.951 . S
C1971 C1969 1.388 . S
C1971 C1972 1.366 . S
C1972 C1971 1.366 . S
C1972 C1973 1.414 . S
C1972 C1975 1.499 . S
C1973 H1947 0.950 . S
C1973 C1972 1.414 . S
C1973 C1974 1.374 . S
C1974 H1948 0.950 . S
C1974 C1970 1.385 . S
C1974 C1973 1.374 . S
C1975 C1972 1.499 . S
C1975 C1976 1.373 . S
C1975 C1977 1.389 . S
C1976 H1949 0.950 . S
C1976 C1962 1.377 1_565 S
C1976 C1975 1.373 . S
C1977 C1961 1.377 1_565 S
C1977 C1975 1.389 . S
C1977 C1978 1.524 . S
C1978 C1977 1.524 . S
C1978 C1979 1.397 . S
C1978 C1983 1.363 . S
C1979 H1950 0.950 . S
C1979 C1978 1.397 . S
C1979 C1980 1.334 . S
C1980 H1951 0.950 . S
C1980 C1979 1.334 . S
C1980 C1981 1.287 . S
C1981 C1980 1.287 . S
C1981 C1982 1.524 . S
C1981 H1984 0.999 . S
C1982 H1952 0.950 1_556 S
C1982 C1981 1.524 . S
C1982 C1983 1.415 . S
C1983 H1953 0.950 . S
C1983 C1978 1.363 . S
C1983 C1982 1.415 . S
H1984 C1981 0.999 . S
H1985 C1966 0.913 . S
H1986 C2004 0.951 . S
H1987 C2006 0.951 . S
H1988 C2008 0.950 . S
H1989 C2009 0.950 . S
H1990 C2011 0.950 . S
H1991 C2014 0.950 . S
H1992 C2015 0.950 . S
H1993 C2017 0.950 . S
H1994 C2018 0.950 . S
H1995 C2019 0.951 . S
H1996 C2021 0.951 . S
H1997 C2023 0.950 . S
H1998 C2024 0.950 . S
H1999 C2026 0.950 . S
H2000 C2029 0.950 . S
H2001 C2030 0.950 . S
H2002 C2032 0.950 . S
H2003 C2033 0.950 . S
C2004 H1986 0.951 . S
C2004 C2005 1.366 . S
C2004 C2006 1.388 . S
C2005 C2004 1.366 . S
C2005 C2009 1.385 . S
C2006 H1987 0.951 . S
C2006 C2004 1.388 . S
C2006 C2007 1.366 . S
C2007 C2006 1.366 . S
C2007 C2008 1.414 . S
C2007 C2010 1.499 . S
C2008 H1988 0.950 . S
C2008 C2007 1.414 . S
C2008 C2009 1.374 . S
C2009 H1989 0.950 . S
C2009 C2005 1.385 . S
C2009 C2008 1.374 . S
C2010 C2007 1.499 . S
C2010 C2011 1.373 . S
C2010 C2012 1.389 . S
C2011 H1990 0.950 . S
C2011 C2010 1.373 . S
C2011 C2027 1.377 . S
C2012 C2010 1.389 . S
C2012 C2013 1.524 . S
C2012 C2026 1.377 . S
C2013 C2012 1.524 . S
C2013 C2014 1.397 . S
C2013 C2018 1.363 . S
C2014 H1991 0.950 . S
C2014 C2013 1.397 . S
C2014 C2015 1.334 . S
C2015 H1992 0.950 . S
C2015 C2014 1.334 . S
C2015 C2016 1.287 . S
C2016 C2015 1.287 . S
C2016 C2017 1.524 . S
C2016 H2035 0.913 . S
C2017 H1993 0.950 . S
C2017 C2016 1.524 . S
C2017 C2018 1.415 . S
C2018 H1994 0.950 . S
C2018 C2013 1.363 . S
C2018 C2017 1.415 . S
C2019 H1995 0.951 . S
C2019 C2020 1.366 . S
C2019 C2021 1.388 . S
C2020 C2019 1.366 . S
C2020 C2024 1.385 . S
C2021 H1996 0.951 . S
C2021 C2019 1.388 . S
C2021 C2022 1.366 . S
C2022 C2021 1.366 . S
C2022 C2023 1.414 . S
C2022 C2025 1.499 . S
C2023 H1997 0.950 . S
C2023 C2022 1.414 . S
C2023 C2024 1.374 . S
C2024 H1998 0.950 . S
C2024 C2020 1.385 . S
C2024 C2023 1.374 . S
C2025 C2022 1.499 . S
C2025 C2026 1.373 . S
C2025 C2027 1.389 . S
C2026 H1999 0.950 . S
C2026 C2012 1.377 . S
C2026 C2025 1.373 . S
C2027 C2011 1.377 . S
C2027 C2025 1.389 . S
C2027 C2028 1.524 . S
C2028 C2027 1.524 . S
C2028 C2029 1.397 . S
C2028 C2033 1.363 . S
C2029 H2000 0.950 . S
C2029 C2028 1.397 . S
C2029 C2030 1.334 . S
C2030 H2001 0.950 . S
C2030 C2029 1.334 . S
C2030 C2031 1.287 . S
C2031 C2030 1.287 . S
C2031 C2032 1.524 . S
C2031 H2034 0.999 . S
C2032 H2002 0.950 . S
C2032 C2031 1.524 . S
C2032 C2033 1.415 . S
C2033 H2003 0.950 . S
C2033 C2028 1.363 . S
C2033 C2032 1.415 . S
H2034 C2031 0.999 . S
H2035 C2016 0.913 . S
H2036 C2054 0.951 . S
H2037 C2056 0.951 . S
H2038 C2058 0.950 . S
H2039 C2059 0.950 . S
H2040 C2061 0.950 . S
H2041 C2064 0.950 . S
H2042 C2065 0.950 . S
H2043 C2067 0.950 . S
H2044 C2068 0.950 . S
H2045 C2069 0.951 . S
H2046 C2071 0.951 . S
H2047 C2073 0.950 . S
H2048 C2074 0.950 . S
H2049 C2076 0.950 . S
H2050 C2079 0.950 . S
H2051 C2080 0.950 . S
H2052 C2082 0.950 . S
H2053 C2083 0.950 . S
C2054 H2036 0.951 . S
C2054 C2055 1.366 . S
C2054 C2056 1.388 . S
C2055 C2054 1.366 . S
C2055 C2059 1.385 . S
C2056 H2037 0.951 . S
C2056 C2054 1.388 . S
C2056 C2057 1.366 . S
C2057 C2056 1.366 . S
C2057 C2058 1.414 . S
C2057 C2060 1.499 . S
C2058 H2038 0.950 . S
C2058 C2057 1.414 . S
C2058 C2059 1.374 . S
C2059 H2039 0.950 . S
C2059 C2055 1.385 . S
C2059 C2058 1.374 . S
C2060 C2057 1.499 . S
C2060 C2061 1.373 . S
C2060 C2062 1.389 . S
C2061 H2040 0.950 . S
C2061 C2060 1.373 . S
C2061 C2077 1.377 1_455 S
C2062 C2060 1.389 . S
C2062 C2063 1.524 . S
C2062 C2076 1.377 1_455 S
C2063 C2062 1.524 . S
C2063 C2064 1.397 . S
C2063 C2068 1.363 . S
C2064 H2041 0.950 . S
C2064 C2063 1.397 . S
C2064 C2065 1.334 . S
C2065 H2042 0.950 . S
C2065 C2064 1.334 . S
C2065 C2066 1.287 . S
C2066 C2065 1.287 . S
C2066 C2067 1.524 . S
C2066 H2085 0.913 . S
C2067 H2043 0.950 . S
C2067 C2066 1.524 . S
C2067 C2068 1.415 . S
C2068 H2044 0.950 . S
C2068 C2063 1.363 . S
C2068 C2067 1.415 . S
C2069 H2045 0.951 . S
C2069 C2070 1.366 . S
C2069 C2071 1.388 . S
C2070 C2069 1.366 . S
C2070 C2074 1.385 . S
C2071 H2046 0.951 . S
C2071 C2069 1.388 . S
C2071 C2072 1.366 . S
C2072 C2071 1.366 . S
C2072 C2073 1.414 . S
C2072 C2075 1.499 . S
C2073 H2047 0.950 . S
C2073 C2072 1.414 . S
C2073 C2074 1.374 . S
C2074 H2048 0.950 . S
C2074 C2070 1.385 . S
C2074 C2073 1.374 . S
C2075 C2072 1.499 . S
C2075 C2076 1.373 . S
C2075 C2077 1.389 . S
C2076 H2049 0.950 . S
C2076 C2062 1.377 1_655 S
C2076 C2075 1.373 . S
C2077 C2061 1.377 1_655 S
C2077 C2075 1.389 . S
C2077 C2078 1.524 . S
C2078 C2077 1.524 . S
C2078 C2079 1.397 . S
C2078 C2083 1.363 . S
C2079 H2050 0.950 . S
C2079 C2078 1.397 . S
C2079 C2080 1.334 . S
C2080 H2051 0.950 . S
C2080 C2079 1.334 . S
C2080 C2081 1.287 . S
C2081 C2080 1.287 . S
C2081 C2082 1.524 . S
C2081 H2084 0.999 . S
C2082 H2052 0.950 . S
C2082 C2081 1.524 . S
C2082 C2083 1.415 . S
C2083 H2053 0.950 . S
C2083 C2078 1.363 . S
C2083 C2082 1.415 . S
H2084 C2081 0.999 . S
H2085 C2066 0.913 . S
H2086 C2104 0.951 . S
H2087 C2106 0.951 . S
H2088 C2108 0.950 . S
H2089 C2109 0.950 . S
H2090 C2111 0.950 . S
H2091 C2114 0.950 . S
H2092 C2115 0.950 . S
H2093 C2117 0.950 . S
H2094 C2118 0.950 . S
H2095 C2119 0.951 . S
H2096 C2121 0.951 . S
H2097 C2123 0.950 . S
H2098 C2124 0.950 . S
H2099 C2126 0.950 . S
H2100 C2129 0.950 . S
H2101 C2130 0.950 . S
H2102 C2132 0.950 . S
H2103 C2133 0.950 . S
C2104 H2086 0.951 . S
C2104 C2105 1.366 . S
C2104 C2106 1.388 . S
C2105 C2104 1.366 . S
C2105 C2109 1.385 . S
C2106 H2087 0.951 . S
C2106 C2104 1.388 . S
C2106 C2107 1.366 . S
C2107 C2106 1.366 . S
C2107 C2108 1.414 . S
C2107 C2110 1.499 . S
C2108 H2088 0.950 . S
C2108 C2107 1.414 . S
C2108 C2109 1.374 . S
C2109 H2089 0.950 . S
C2109 C2105 1.385 . S
C2109 C2108 1.374 . S
C2110 C2107 1.499 . S
C2110 C2111 1.373 . S
C2110 C2112 1.389 . S
C2111 H2090 0.950 . S
C2111 C2110 1.373 . S
C2111 C2127 1.377 1_565 S
C2112 C2110 1.389 . S
C2112 C2113 1.524 . S
C2112 C2126 1.377 1_565 S
C2113 C2112 1.524 . S
C2113 C2114 1.397 . S
C2113 C2118 1.363 . S
C2114 H2091 0.950 . S
C2114 C2113 1.397 . S
C2114 C2115 1.334 . S
C2115 H2092 0.950 . S
C2115 C2114 1.334 . S
C2115 C2116 1.287 . S
C2116 C2115 1.287 . S
C2116 C2117 1.524 . S
C2116 H2135 0.913 . S
C2117 H2093 0.950 . S
C2117 C2116 1.524 . S
C2117 C2118 1.415 . S
C2118 H2094 0.950 . S
C2118 C2113 1.363 . S
C2118 C2117 1.415 . S
C2119 H2095 0.951 . S
C2119 C2120 1.366 . S
C2119 C2121 1.388 . S
C2120 C2119 1.366 . S
C2120 C2124 1.385 . S
C2121 H2096 0.951 . S
C2121 C2119 1.388 . S
C2121 C2122 1.366 . S
C2122 C2121 1.366 . S
C2122 C2123 1.414 . S
C2122 C2125 1.499 . S
C2123 H2097 0.950 . S
C2123 C2122 1.414 . S
C2123 C2124 1.374 . S
C2124 H2098 0.950 . S
C2124 C2120 1.385 . S
C2124 C2123 1.374 . S
C2125 C2122 1.499 . S
C2125 C2126 1.373 . S
C2125 C2127 1.389 . S
C2126 H2099 0.950 . S
C2126 C2112 1.377 1_545 S
C2126 C2125 1.373 . S
C2127 C2111 1.377 1_545 S
C2127 C2125 1.389 . S
C2127 C2128 1.524 . S
C2128 C2127 1.524 . S
C2128 C2129 1.397 . S
C2128 C2133 1.363 . S
C2129 H2100 0.950 . S
C2129 C2128 1.397 . S
C2129 C2130 1.334 . S
C2130 H2101 0.950 . S
C2130 C2129 1.334 . S
C2130 C2131 1.287 . S
C2131 C2130 1.287 . S
C2131 C2132 1.524 . S
C2131 H2134 0.999 . S
C2132 H2102 0.950 . S
C2132 C2131 1.524 . S
C2132 C2133 1.415 . S
C2133 H2103 0.950 . S
C2133 C2128 1.363 . S
C2133 C2132 1.415 . S
H2134 C2131 0.999 . S
H2135 C2116 0.913 . S
H2136 C2154 0.951 . S
H2137 C2156 0.951 . S
H2138 C2158 0.950 . S
H2139 C2159 0.950 . S
H2140 C2161 0.950 . S
H2141 C2164 0.950 . S
H2142 C2165 0.950 . S
H2143 C2167 0.950 . S
H2144 C2168 0.950 . S
H2145 C2169 0.951 . S
H2146 C2171 0.951 . S
H2147 C2173 0.950 . S
H2148 C2174 0.950 . S
H2149 C2176 0.950 . S
H2150 C2179 0.950 . S
H2151 C2180 0.950 . S
H2152 C2182 0.950 . S
H2153 C2183 0.950 . S
C2154 H2136 0.951 . S
C2154 C2155 1.366 . S
C2154 C2156 1.388 . S
C2155 C2154 1.366 . S
C2155 C2159 1.385 . S
C2156 H2137 0.951 . S
C2156 C2154 1.388 . S
C2156 C2157 1.366 . S
C2157 C2156 1.366 . S
C2157 C2158 1.414 . S
C2157 C2160 1.499 . S
C2158 H2138 0.950 . S
C2158 C2157 1.414 . S
C2158 C2159 1.374 . S
C2159 H2139 0.950 . S
C2159 C2155 1.385 . S
C2159 C2158 1.374 . S
C2160 C2157 1.499 . S
C2160 C2161 1.373 1_556 S
C2160 C2162 1.389 . S
C2161 H2140 0.950 . S
C2161 C2160 1.373 1_554 S
C2161 C2177 1.377 . S
C2162 C2160 1.389 . S
C2162 C2163 1.524 . S
C2162 C2176 1.377 . S
C2163 C2162 1.524 . S
C2163 C2164 1.397 . S
C2163 C2168 1.363 . S
C2164 H2141 0.950 . S
C2164 C2163 1.397 . S
C2164 C2165 1.334 . S
C2165 H2142 0.950 . S
C2165 C2164 1.334 . S
C2165 C2166 1.287 . S
C2166 C2165 1.287 . S
C2166 C2167 1.524 . S
C2166 H2185 0.913 . S
C2167 H2143 0.950 . S
C2167 C2166 1.524 . S
C2167 C2168 1.415 . S
C2168 H2144 0.950 . S
C2168 C2163 1.363 . S
C2168 C2167 1.415 . S
C2169 H2145 0.951 . S
C2169 C2170 1.366 . S
C2169 C2171 1.388 . S
C2170 C2169 1.366 . S
C2170 C2174 1.385 . S
C2171 H2146 0.951 . S
C2171 C2169 1.388 . S
C2171 C2172 1.366 . S
C2172 C2171 1.366 . S
C2172 C2173 1.414 . S
C2172 C2175 1.499 . S
C2173 H2147 0.950 . S
C2173 C2172 1.414 . S
C2173 C2174 1.374 . S
C2174 H2148 0.950 . S
C2174 C2170 1.385 . S
C2174 C2173 1.374 . S
C2175 C2172 1.499 . S
C2175 C2176 1.373 1_554 S
C2175 C2177 1.389 . S
C2176 H2149 0.950 . S
C2176 C2162 1.377 . S
C2176 C2175 1.373 1_556 S
C2177 C2161 1.377 . S
C2177 C2175 1.389 . S
C2177 C2178 1.524 . S
C2178 C2177 1.524 . S
C2178 C2179 1.397 . S
C2178 C2183 1.363 . S
C2179 H2150 0.950 . S
C2179 C2178 1.397 . S
C2179 C2180 1.334 . S
C2180 H2151 0.950 . S
C2180 C2179 1.334 . S
C2180 C2181 1.287 . S
C2181 C2180 1.287 . S
C2181 C2182 1.524 . S
C2181 H2184 0.999 . S
C2182 H2152 0.950 . S
C2182 C2181 1.524 . S
C2182 C2183 1.415 . S
C2183 H2153 0.950 . S
C2183 C2178 1.363 . S
C2183 C2182 1.415 . S
H2184 C2181 0.999 . S
H2185 C2166 0.913 . S
H2186 C2204 0.951 . S
H2187 C2206 0.951 . S
H2188 C2208 0.950 . S
H2189 C2209 0.950 . S
H2190 C2211 0.950 . S
H2191 C2214 0.950 . S
H2192 C2215 0.950 . S
H2193 C2217 0.950 . S
H2194 C2218 0.950 . S
H2195 C2219 0.951 . S
H2196 C2221 0.951 . S
H2197 C2223 0.950 . S
H2198 C2224 0.950 . S
H2199 C2226 0.950 . S
H2200 C2229 0.950 . S
H2201 C2230 0.950 . S
H2202 C2232 0.950 . S
H2203 C2233 0.950 . S
C2204 H2186 0.951 . S
C2204 C2205 1.366 . S
C2204 C2206 1.388 . S
C2205 C2204 1.366 . S
C2205 C2209 1.385 . S
C2206 H2187 0.951 . S
C2206 C2204 1.388 . S
C2206 C2207 1.366 . S
C2207 C2206 1.366 . S
C2207 C2208 1.414 . S
C2207 C2210 1.499 . S
C2208 H2188 0.950 . S
C2208 C2207 1.414 . S
C2208 C2209 1.374 . S
C2209 H2189 0.950 . S
C2209 C2205 1.385 . S
C2209 C2208 1.374 . S
C2210 C2207 1.499 . S
C2210 C2211 1.373 . S
C2210 C2212 1.389 . S
C2211 H2190 0.950 . S
C2211 C2210 1.373 . S
C2211 C2227 1.377 . S
C2212 C2210 1.389 . S
C2212 C2213 1.524 . S
C2212 C2226 1.377 . S
C2213 C2212 1.524 . S
C2213 C2214 1.397 . S
C2213 C2218 1.363 . S
C2214 H2191 0.950 . S
C2214 C2213 1.397 . S
C2214 C2215 1.334 . S
C2215 H2192 0.950 . S
C2215 C2214 1.334 . S
C2215 C2216 1.287 . S
C2216 C2215 1.287 . S
C2216 C2217 1.524 . S
C2216 H2235 0.913 . S
C2217 H2193 0.950 . S
C2217 C2216 1.524 . S
C2217 C2218 1.415 . S
C2218 H2194 0.950 . S
C2218 C2213 1.363 . S
C2218 C2217 1.415 . S
C2219 H2195 0.951 . S
C2219 C2220 1.366 . S
C2219 C2221 1.388 . S
C2220 C2219 1.366 . S
C2220 C2224 1.385 . S
C2221 H2196 0.951 . S
C2221 C2219 1.388 . S
C2221 C2222 1.366 . S
C2222 C2221 1.366 . S
C2222 C2223 1.414 . S
C2222 C2225 1.499 . S
C2223 H2197 0.950 . S
C2223 C2222 1.414 . S
C2223 C2224 1.374 . S
C2224 H2198 0.950 . S
C2224 C2220 1.385 . S
C2224 C2223 1.374 . S
C2225 C2222 1.499 . S
C2225 C2226 1.373 . S
C2225 C2227 1.389 . S
C2226 H2199 0.950 . S
C2226 C2212 1.377 . S
C2226 C2225 1.373 . S
C2227 C2211 1.377 . S
C2227 C2225 1.389 . S
C2227 C2228 1.524 . S
C2228 C2227 1.524 . S
C2228 C2229 1.397 . S
C2228 C2233 1.363 . S
C2229 H2200 0.950 . S
C2229 C2228 1.397 . S
C2229 C2230 1.334 . S
C2230 H2201 0.950 . S
C2230 C2229 1.334 . S
C2230 C2231 1.287 . S
C2231 C2230 1.287 . S
C2231 C2232 1.524 . S
C2231 H2234 0.999 . S
C2232 H2202 0.950 . S
C2232 C2231 1.524 . S
C2232 C2233 1.415 . S
C2233 H2203 0.950 . S
C2233 C2228 1.363 . S
C2233 C2232 1.415 . S
H2234 C2231 0.999 . S
H2235 C2216 0.913 . S
H2236 C2254 0.951 . S
H2237 C2256 0.951 . S
H2238 C2258 0.950 1_554 S
H2239 C2259 0.950 . S
H2240 C2261 0.950 . S
H2241 C2264 0.950 . S
H2242 C2265 0.950 . S
H2243 C2267 0.950 . S
H2244 C2268 0.950 . S
H2245 C2269 0.951 . S
H2246 C2271 0.951 . S
H2247 C2273 0.950 1_556 S
H2248 C2274 0.950 . S
H2249 C2276 0.950 . S
H2250 C2279 0.950 . S
H2251 C2280 0.950 . S
H2252 C2282 0.950 . S
H2253 C2283 0.950 . S
C2254 H2236 0.951 . S
C2254 C2255 1.366 . S
C2254 C2256 1.388 . S
C2255 C2254 1.366 . S
C2255 C2259 1.385 . S
C2256 H2237 0.951 . S
C2256 C2254 1.388 . S
C2256 C2257 1.366 . S
C2257 C2256 1.366 . S
C2257 C2258 1.414 . S
C2257 C2260 1.499 . S
C2258 H2238 0.950 1_556 S
C2258 C2257 1.414 . S
C2258 C2259 1.374 . S
C2259 H2239 0.950 . S
C2259 C2255 1.385 . S
C2259 C2258 1.374 . S
C2260 C2257 1.499 . S
C2260 C2261 1.373 1_556 S
C2260 C2262 1.389 . S
C2261 H2240 0.950 . S
C2261 C2260 1.373 1_554 S
C2261 C2277 1.377 . S
C2262 C2260 1.389 . S
C2262 C2263 1.524 . S
C2262 C2276 1.377 . S
C2263 C2262 1.524 . S
C2263 C2264 1.397 . S
C2263 C2268 1.363 . S
C2264 H2241 0.950 . S
C2264 C2263 1.397 . S
C2264 C2265 1.334 . S
C2265 H2242 0.950 . S
C2265 C2264 1.334 . S
C2265 C2266 1.287 . S
C2266 C2265 1.287 . S
C2266 C2267 1.524 . S
C2266 H2285 0.913 . S
C2267 H2243 0.950 . S
C2267 C2266 1.524 . S
C2267 C2268 1.415 . S
C2268 H2244 0.950 . S
C2268 C2263 1.363 . S
C2268 C2267 1.415 . S
C2269 H2245 0.951 . S
C2269 C2270 1.366 . S
C2269 C2271 1.388 . S
C2270 C2269 1.366 . S
C2270 C2274 1.385 . S
C2271 H2246 0.951 . S
C2271 C2269 1.388 . S
C2271 C2272 1.366 . S
C2272 C2271 1.366 . S
C2272 C2273 1.414 . S
C2272 C2275 1.499 . S
C2273 H2247 0.950 1_554 S
C2273 C2272 1.414 . S
C2273 C2274 1.374 . S
C2274 H2248 0.950 . S
C2274 C2270 1.385 . S
C2274 C2273 1.374 . S
C2275 C2272 1.499 . S
C2275 C2276 1.373 1_554 S
C2275 C2277 1.389 . S
C2276 H2249 0.950 . S
C2276 C2262 1.377 . S
C2276 C2275 1.373 1_556 S
C2277 C2261 1.377 . S
C2277 C2275 1.389 . S
C2277 C2278 1.524 . S
C2278 C2277 1.524 . S
C2278 C2279 1.397 . S
C2278 C2283 1.363 . S
C2279 H2250 0.950 . S
C2279 C2278 1.397 . S
C2279 C2280 1.334 . S
C2280 H2251 0.950 . S
C2280 C2279 1.334 . S
C2280 C2281 1.287 . S
C2281 C2280 1.287 . S
C2281 C2282 1.524 . S
C2281 H2284 0.999 . S
C2282 H2252 0.950 . S
C2282 C2281 1.524 . S
C2282 C2283 1.415 . S
C2283 H2253 0.950 . S
C2283 C2278 1.363 . S
C2283 C2282 1.415 . S
H2284 C2281 0.999 . S
H2285 C2266 0.913 . S
H2286 C2304 0.951 . S
H2287 C2306 0.951 . S
H2288 C2308 0.950 . S
H2289 C2309 0.950 . S
H2290 C2311 0.950 . S
H2291 C2314 0.950 . S
H2292 C2315 0.950 . S
H2293 C2317 0.950 . S
H2294 C2318 0.950 . S
H2295 C2319 0.951 . S
H2296 C2321 0.951 . S
H2297 C2323 0.950 . S
H2298 C2324 0.950 . S
H2299 C2326 0.950 . S
H2300 C2329 0.950 . S
H2301 C2330 0.950 . S
H2302 C2332 0.950 . S
H2303 C2333 0.950 . S
C2304 H2286 0.951 . S
C2304 C2305 1.366 . S
C2304 C2306 1.388 . S
C2305 C2304 1.366 . S
C2305 C2309 1.385 . S
C2306 H2287 0.951 . S
C2306 C2304 1.388 . S
C2306 C2307 1.366 . S
C2307 C2306 1.366 . S
C2307 C2308 1.414 . S
C2307 C2310 1.499 . S
C2308 H2288 0.950 . S
C2308 C2307 1.414 . S
C2308 C2309 1.374 . S
C2309 H2289 0.950 . S
C2309 C2305 1.385 . S
C2309 C2308 1.374 . S
C2310 C2307 1.499 . S
C2310 C2311 1.373 . S
C2310 C2312 1.389 . S
C2311 H2290 0.950 . S
C2311 C2310 1.373 . S
C2311 C2327 1.377 . S
C2312 C2310 1.389 . S
C2312 C2313 1.524 . S
C2312 C2326 1.377 . S
C2313 C2312 1.524 . S
C2313 C2314 1.397 . S
C2313 C2318 1.363 . S
C2314 H2291 0.950 . S
C2314 C2313 1.397 . S
C2314 C2315 1.334 . S
C2315 H2292 0.950 . S
C2315 C2314 1.334 . S
C2315 C2316 1.287 . S
C2316 C2315 1.287 . S
C2316 C2317 1.524 . S
C2316 H2335 0.913 . S
C2317 H2293 0.950 . S
C2317 C2316 1.524 . S
C2317 C2318 1.415 . S
C2318 H2294 0.950 . S
C2318 C2313 1.363 . S
C2318 C2317 1.415 . S
C2319 H2295 0.951 . S
C2319 C2320 1.366 . S
C2319 C2321 1.388 . S
C2320 C2319 1.366 . S
C2320 C2324 1.385 . S
C2321 H2296 0.951 . S
C2321 C2319 1.388 . S
C2321 C2322 1.366 . S
C2322 C2321 1.366 . S
C2322 C2323 1.414 . S
C2322 C2325 1.499 . S
C2323 H2297 0.950 . S
C2323 C2322 1.414 . S
C2323 C2324 1.374 . S
C2324 H2298 0.950 . S
C2324 C2320 1.385 . S
C2324 C2323 1.374 . S
C2325 C2322 1.499 . S
C2325 C2326 1.373 . S
C2325 C2327 1.389 . S
C2326 H2299 0.950 . S
C2326 C2312 1.377 . S
C2326 C2325 1.373 . S
C2327 C2311 1.377 . S
C2327 C2325 1.389 . S
C2327 C2328 1.524 . S
C2328 C2327 1.524 . S
C2328 C2329 1.397 . S
C2328 C2333 1.363 . S
C2329 H2300 0.950 . S
C2329 C2328 1.397 . S
C2329 C2330 1.334 . S
C2330 H2301 0.950 . S
C2330 C2329 1.334 . S
C2330 C2331 1.287 . S
C2331 C2330 1.287 . S
C2331 C2332 1.524 . S
C2331 H2334 0.999 . S
C2332 H2302 0.950 . S
C2332 C2331 1.524 . S
C2332 C2333 1.415 . S
C2333 H2303 0.950 . S
C2333 C2328 1.363 . S
C2333 C2332 1.415 . S
H2334 C2331 0.999 . S
H2335 C2316 0.913 . S
H2336 C2354 0.951 . S
H2337 C2356 0.951 1_554 S
H2338 C2358 0.950 . S
H2339 C2359 0.950 . S
H2340 C2361 0.950 . S
H2341 C2364 0.950 . S
H2342 C2365 0.950 . S
H2343 C2367 0.950 . S
H2344 C2368 0.950 . S
H2345 C2369 0.951 . S
H2346 C2371 0.951 1_556 S
H2347 C2373 0.950 . S
H2348 C2374 0.950 . S
H2349 C2376 0.950 . S
H2350 C2379 0.950 . S
H2351 C2380 0.950 . S
H2352 C2382 0.950 . S
H2353 C2383 0.950 . S
C2354 H2336 0.951 . S
C2354 C2355 1.366 . S
C2354 C2356 1.388 . S
C2355 C2354 1.366 . S
C2355 C2359 1.385 . S
C2356 H2337 0.951 1_556 S
C2356 C2354 1.388 . S
C2356 C2357 1.366 . S
C2357 C2356 1.366 . S
C2357 C2358 1.414 . S
C2357 C2360 1.499 . S
C2358 H2338 0.950 . S
C2358 C2357 1.414 . S
C2358 C2359 1.374 . S
C2359 H2339 0.950 . S
C2359 C2355 1.385 . S
C2359 C2358 1.374 . S
C2360 C2357 1.499 . S
C2360 C2361 1.373 . S
C2360 C2362 1.389 1_556 S
C2361 H2340 0.950 . S
C2361 C2360 1.373 . S
C2361 C2377 1.377 . S
C2362 C2360 1.389 1_554 S
C2362 C2363 1.524 . S
C2362 C2376 1.377 . S
C2363 C2362 1.524 . S
C2363 C2364 1.397 . S
C2363 C2368 1.363 . S
C2364 H2341 0.950 . S
C2364 C2363 1.397 . S
C2364 C2365 1.334 . S
C2365 H2342 0.950 . S
C2365 C2364 1.334 . S
C2365 C2366 1.287 . S
C2366 C2365 1.287 . S
C2366 C2367 1.524 . S
C2366 H2385 0.913 . S
C2367 H2343 0.950 . S
C2367 C2366 1.524 . S
C2367 C2368 1.415 . S
C2368 H2344 0.950 . S
C2368 C2363 1.363 . S
C2368 C2367 1.415 . S
C2369 H2345 0.951 . S
C2369 C2370 1.366 . S
C2369 C2371 1.388 . S
C2370 C2369 1.366 . S
C2370 C2374 1.385 . S
C2371 H2346 0.951 1_554 S
C2371 C2369 1.388 . S
C2371 C2372 1.366 . S
C2372 C2371 1.366 . S
C2372 C2373 1.414 . S
C2372 C2375 1.499 . S
C2373 H2347 0.950 . S
C2373 C2372 1.414 . S
C2373 C2374 1.374 . S
C2374 H2348 0.950 . S
C2374 C2370 1.385 . S
C2374 C2373 1.374 . S
C2375 C2372 1.499 . S
C2375 C2376 1.373 . S
C2375 C2377 1.389 1_554 S
C2376 H2349 0.950 . S
C2376 C2362 1.377 . S
C2376 C2375 1.373 . S
C2377 C2361 1.377 . S
C2377 C2375 1.389 1_556 S
C2377 C2378 1.524 . S
C2378 C2377 1.524 . S
C2378 C2379 1.397 . S
C2378 C2383 1.363 . S
C2379 H2350 0.950 . S
C2379 C2378 1.397 . S
C2379 C2380 1.334 . S
C2380 H2351 0.950 . S
C2380 C2379 1.334 . S
C2380 C2381 1.287 . S
C2381 C2380 1.287 . S
C2381 C2382 1.524 . S
C2381 H2384 0.999 . S
C2382 H2352 0.950 . S
C2382 C2381 1.524 . S
C2382 C2383 1.415 . S
C2383 H2353 0.950 . S
C2383 C2378 1.363 . S
C2383 C2382 1.415 . S
H2384 C2381 0.999 . S
H2385 C2366 0.913 . S
H2386 C2404 0.951 . S
H2387 C2406 0.951 . S
H2388 C2408 0.950 . S
H2389 C2409 0.950 . S
H2390 C2411 0.950 . S
H2391 C2414 0.950 . S
H2392 C2415 0.950 . S
H2393 C2417 0.950 . S
H2394 C2418 0.950 . S
H2395 C2419 0.951 . S
H2396 C2421 0.951 . S
H2397 C2423 0.950 . S
H2398 C2424 0.950 . S
H2399 C2426 0.950 . S
H2400 C2429 0.950 . S
H2401 C2430 0.950 . S
H2402 C2432 0.950 . S
H2403 C2433 0.950 . S
C2404 H2386 0.951 . S
C2404 C2405 1.366 . S
C2404 C2406 1.388 . S
C2405 C2404 1.366 . S
C2405 C2409 1.385 . S
C2406 H2387 0.951 . S
C2406 C2404 1.388 . S
C2406 C2407 1.366 . S
C2407 C2406 1.366 . S
C2407 C2408 1.414 . S
C2407 C2410 1.499 . S
C2408 H2388 0.950 . S
C2408 C2407 1.414 . S
C2408 C2409 1.374 . S
C2409 H2389 0.950 . S
C2409 C2405 1.385 . S
C2409 C2408 1.374 . S
C2410 C2407 1.499 . S
C2410 C2411 1.373 . S
C2410 C2412 1.389 . S
C2411 H2390 0.950 . S
C2411 C2410 1.373 . S
C2411 C2427 1.377 . S
C2412 C2410 1.389 . S
C2412 C2413 1.524 . S
C2412 C2426 1.377 . S
C2413 C2412 1.524 . S
C2413 C2414 1.397 . S
C2413 C2418 1.363 . S
C2414 H2391 0.950 . S
C2414 C2413 1.397 . S
C2414 C2415 1.334 . S
C2415 H2392 0.950 . S
C2415 C2414 1.334 . S
C2415 C2416 1.287 . S
C2416 C2415 1.287 . S
C2416 C2417 1.524 . S
C2416 H2435 0.913 . S
C2417 H2393 0.950 . S
C2417 C2416 1.524 . S
C2417 C2418 1.415 . S
C2418 H2394 0.950 . S
C2418 C2413 1.363 . S
C2418 C2417 1.415 . S
C2419 H2395 0.951 . S
C2419 C2420 1.366 . S
C2419 C2421 1.388 . S
C2420 C2419 1.366 . S
C2420 C2424 1.385 . S
C2421 H2396 0.951 . S
C2421 C2419 1.388 . S
C2421 C2422 1.366 . S
C2422 C2421 1.366 . S
C2422 C2423 1.414 . S
C2422 C2425 1.499 . S
C2423 H2397 0.950 . S
C2423 C2422 1.414 . S
C2423 C2424 1.374 . S
C2424 H2398 0.950 . S
C2424 C2420 1.385 . S
C2424 C2423 1.374 . S
C2425 C2422 1.499 . S
C2425 C2426 1.373 . S
C2425 C2427 1.389 . S
C2426 H2399 0.950 . S
C2426 C2412 1.377 . S
C2426 C2425 1.373 . S
C2427 C2411 1.377 . S
C2427 C2425 1.389 . S
C2427 C2428 1.524 . S
C2428 C2427 1.524 . S
C2428 C2429 1.397 . S
C2428 C2433 1.363 . S
C2429 H2400 0.950 . S
C2429 C2428 1.397 . S
C2429 C2430 1.334 . S
C2430 H2401 0.950 . S
C2430 C2429 1.334 . S
C2430 C2431 1.287 . S
C2431 C2430 1.287 . S
C2431 C2432 1.524 . S
C2431 H2434 0.999 . S
C2432 H2402 0.950 . S
C2432 C2431 1.524 . S
C2432 C2433 1.415 . S
C2433 H2403 0.950 . S
C2433 C2428 1.363 . S
C2433 C2432 1.415 . S
H2434 C2431 0.999 . S
H2435 C2416 0.913 . S
H2436 C2454 0.951 . S
H2437 C2456 0.951 . S
H2438 C2458 0.950 . S
H2439 C2459 0.950 . S
H2440 C2461 0.950 . S
H2441 C2464 0.950 . S
H2442 C2465 0.950 . S
H2443 C2467 0.950 . S
H2444 C2468 0.950 . S
H2445 C2469 0.951 . S
H2446 C2471 0.951 . S
H2447 C2473 0.950 . S
H2448 C2474 0.950 . S
H2449 C2476 0.950 . S
H2450 C2479 0.950 . S
H2451 C2480 0.950 . S
H2452 C2482 0.950 . S
H2453 C2483 0.950 . S
C2454 H2436 0.951 . S
C2454 C2455 1.366 . S
C2454 C2456 1.388 . S
C2455 C2454 1.366 . S
C2455 C2459 1.385 . S
C2456 H2437 0.951 . S
C2456 C2454 1.388 . S
C2456 C2457 1.366 . S
C2457 C2456 1.366 . S
C2457 C2458 1.414 . S
C2457 C2460 1.499 . S
C2458 H2438 0.950 . S
C2458 C2457 1.414 . S
C2458 C2459 1.374 . S
C2459 H2439 0.950 . S
C2459 C2455 1.385 . S
C2459 C2458 1.374 . S
C2460 C2457 1.499 . S
C2460 C2461 1.373 . S
C2460 C2462 1.389 1_554 S
C2461 H2440 0.950 . S
C2461 C2460 1.373 . S
C2461 C2477 1.377 . S
C2462 C2460 1.389 1_556 S
C2462 C2463 1.524 . S
C2462 C2476 1.377 . S
C2463 C2462 1.524 . S
C2463 C2464 1.397 . S
C2463 C2468 1.363 . S
C2464 H2441 0.950 . S
C2464 C2463 1.397 . S
C2464 C2465 1.334 . S
C2465 H2442 0.950 . S
C2465 C2464 1.334 . S
C2465 C2466 1.287 . S
C2466 C2465 1.287 . S
C2466 C2467 1.524 . S
C2466 H2485 0.913 . S
C2467 H2443 0.950 . S
C2467 C2466 1.524 . S
C2467 C2468 1.415 . S
C2468 H2444 0.950 . S
C2468 C2463 1.363 . S
C2468 C2467 1.415 . S
C2469 H2445 0.951 . S
C2469 C2470 1.366 . S
C2469 C2471 1.388 . S
C2470 C2469 1.366 . S
C2470 C2474 1.385 . S
C2471 H2446 0.951 . S
C2471 C2469 1.388 . S
C2471 C2472 1.366 . S
C2472 C2471 1.366 . S
C2472 C2473 1.414 . S
C2472 C2475 1.499 . S
C2473 H2447 0.950 . S
C2473 C2472 1.414 . S
C2473 C2474 1.374 . S
C2474 H2448 0.950 . S
C2474 C2470 1.385 . S
C2474 C2473 1.374 . S
C2475 C2472 1.499 . S
C2475 C2476 1.373 . S
C2475 C2477 1.389 1_556 S
C2476 H2449 0.950 . S
C2476 C2462 1.377 . S
C2476 C2475 1.373 . S
C2477 C2461 1.377 . S
C2477 C2475 1.389 1_554 S
C2477 C2478 1.524 . S
C2478 C2477 1.524 . S
C2478 C2479 1.397 . S
C2478 C2483 1.363 . S
C2479 H2450 0.950 . S
C2479 C2478 1.397 . S
C2479 C2480 1.334 . S
C2480 H2451 0.950 . S
C2480 C2479 1.334 . S
C2480 C2481 1.287 . S
C2481 C2480 1.287 . S
C2481 C2482 1.524 . S
C2481 H2484 0.999 . S
C2482 H2452 0.950 . S
C2482 C2481 1.524 . S
C2482 C2483 1.415 . S
C2483 H2453 0.950 . S
C2483 C2478 1.363 . S
C2483 C2482 1.415 . S
H2484 C2481 0.999 . S
H2485 C2466 0.913 . S
H2486 C2504 0.951 . S
H2487 C2506 0.951 . S
H2488 C2508 0.950 . S
H2489 C2509 0.950 . S
H2490 C2511 0.950 . S
H2491 C2514 0.950 . S
H2492 C2515 0.950 . S
H2493 C2517 0.950 . S
H2494 C2518 0.950 . S
H2495 C2519 0.951 . S
H2496 C2521 0.951 . S
H2497 C2523 0.950 . S
H2498 C2524 0.950 . S
H2499 C2526 0.950 . S
H2500 C2529 0.950 . S
H2501 C2530 0.950 . S
H2502 C2532 0.950 . S
H2503 C2533 0.950 . S
C2504 H2486 0.951 . S
C2504 C2505 1.366 . S
C2504 C2506 1.388 . S
C2505 C2504 1.366 . S
C2505 C2509 1.385 . S
C2506 H2487 0.951 . S
C2506 C2504 1.388 . S
C2506 C2507 1.366 . S
C2507 C2506 1.366 . S
C2507 C2508 1.414 . S
C2507 C2510 1.499 . S
C2508 H2488 0.950 . S
C2508 C2507 1.414 . S
C2508 C2509 1.374 . S
C2509 H2489 0.950 . S
C2509 C2505 1.385 . S
C2509 C2508 1.374 . S
C2510 C2507 1.499 . S
C2510 C2511 1.373 . S
C2510 C2512 1.389 . S
C2511 H2490 0.950 . S
C2511 C2510 1.373 . S
C2511 C2527 1.377 . S
C2512 C2510 1.389 . S
C2512 C2513 1.524 . S
C2512 C2526 1.377 . S
C2513 C2512 1.524 . S
C2513 C2514 1.397 . S
C2513 C2518 1.363 . S
C2514 H2491 0.950 . S
C2514 C2513 1.397 . S
C2514 C2515 1.334 . S
C2515 H2492 0.950 . S
C2515 C2514 1.334 . S
C2515 C2516 1.287 . S
C2516 C2515 1.287 . S
C2516 C2517 1.524 . S
C2516 H2535 0.913 . S
C2517 H2493 0.950 . S
C2517 C2516 1.524 . S
C2517 C2518 1.415 . S
C2518 H2494 0.950 . S
C2518 C2513 1.363 . S
C2518 C2517 1.415 . S
C2519 H2495 0.951 . S
C2519 C2520 1.366 . S
C2519 C2521 1.388 . S
C2520 C2519 1.366 . S
C2520 C2524 1.385 . S
C2521 H2496 0.951 . S
C2521 C2519 1.388 . S
C2521 C2522 1.366 . S
C2522 C2521 1.366 . S
C2522 C2523 1.414 . S
C2522 C2525 1.499 . S
C2523 H2497 0.950 . S
C2523 C2522 1.414 . S
C2523 C2524 1.374 . S
C2524 H2498 0.950 . S
C2524 C2520 1.385 . S
C2524 C2523 1.374 . S
C2525 C2522 1.499 . S
C2525 C2526 1.373 . S
C2525 C2527 1.389 . S
C2526 H2499 0.950 . S
C2526 C2512 1.377 . S
C2526 C2525 1.373 . S
C2527 C2511 1.377 . S
C2527 C2525 1.389 . S
C2527 C2528 1.524 . S
C2528 C2527 1.524 . S
C2528 C2529 1.397 . S
C2528 C2533 1.363 . S
C2529 H2500 0.950 . S
C2529 C2528 1.397 . S
C2529 C2530 1.334 . S
C2530 H2501 0.950 . S
C2530 C2529 1.334 . S
C2530 C2531 1.287 . S
C2531 C2530 1.287 . S
C2531 C2532 1.524 . S
C2531 H2534 0.999 . S
C2532 H2502 0.950 . S
C2532 C2531 1.524 . S
C2532 C2533 1.415 . S
C2533 H2503 0.950 . S
C2533 C2528 1.363 . S
C2533 C2532 1.415 . S
H2534 C2531 0.999 . S
H2535 C2516 0.913 . S
H2536 C2554 0.951 . S
H2537 C2556 0.951 . S
H2538 C2558 0.950 . S
H2539 C2559 0.950 . S
H2540 C2561 0.950 . S
H2541 C2564 0.950 . S
H2542 C2565 0.950 . S
H2543 C2567 0.950 . S
H2544 C2568 0.950 . S
H2545 C2569 0.951 . S
H2546 C2571 0.951 . S
H2547 C2573 0.950 . S
H2548 C2574 0.950 . S
H2549 C2576 0.950 . S
H2550 C2579 0.950 . S
H2551 C2580 0.950 . S
H2552 C2582 0.950 . S
H2553 C2583 0.950 . S
C2554 H2536 0.951 . S
C2554 C2555 1.366 . S
C2554 C2556 1.388 . S
C2555 C2554 1.366 . S
C2555 C2559 1.385 . S
C2556 H2537 0.951 . S
C2556 C2554 1.388 . S
C2556 C2557 1.366 . S
C2557 C2556 1.366 . S
C2557 C2558 1.414 . S
C2557 C2560 1.499 . S
C2558 H2538 0.950 . S
C2558 C2557 1.414 . S
C2558 C2559 1.374 . S
C2559 H2539 0.950 . S
C2559 C2555 1.385 . S
C2559 C2558 1.374 . S
C2560 C2557 1.499 . S
C2560 C2561 1.373 1_554 S
C2560 C2562 1.389 . S
C2561 H2540 0.950 . S
C2561 C2560 1.373 1_556 S
C2561 C2577 1.377 . S
C2562 C2560 1.389 . S
C2562 C2563 1.524 . S
C2562 C2576 1.377 . S
C2563 C2562 1.524 . S
C2563 C2564 1.397 . S
C2563 C2568 1.363 . S
C2564 H2541 0.950 . S
C2564 C2563 1.397 . S
C2564 C2565 1.334 . S
C2565 H2542 0.950 . S
C2565 C2564 1.334 . S
C2565 C2566 1.287 . S
C2566 C2565 1.287 . S
C2566 C2567 1.524 . S
C2566 H2585 0.913 . S
C2567 H2543 0.950 . S
C2567 C2566 1.524 . S
C2567 C2568 1.415 . S
C2568 H2544 0.950 . S
C2568 C2563 1.363 . S
C2568 C2567 1.415 . S
C2569 H2545 0.951 . S
C2569 C2570 1.366 . S
C2569 C2571 1.388 . S
C2570 C2569 1.366 . S
C2570 C2574 1.385 . S
C2571 H2546 0.951 . S
C2571 C2569 1.388 . S
C2571 C2572 1.366 . S
C2572 C2571 1.366 . S
C2572 C2573 1.414 . S
C2572 C2575 1.499 . S
C2573 H2547 0.950 . S
C2573 C2572 1.414 . S
C2573 C2574 1.374 . S
C2574 H2548 0.950 . S
C2574 C2570 1.385 . S
C2574 C2573 1.374 . S
C2575 C2572 1.499 . S
C2575 C2576 1.373 1_556 S
C2575 C2577 1.389 . S
C2576 H2549 0.950 . S
C2576 C2562 1.377 . S
C2576 C2575 1.373 1_554 S
C2577 C2561 1.377 . S
C2577 C2575 1.389 . S
C2577 C2578 1.524 . S
C2578 C2577 1.524 . S
C2578 C2579 1.397 . S
C2578 C2583 1.363 . S
C2579 H2550 0.950 . S
C2579 C2578 1.397 . S
C2579 C2580 1.334 . S
C2580 H2551 0.950 . S
C2580 C2579 1.334 . S
C2580 C2581 1.287 . S
C2581 C2580 1.287 . S
C2581 C2582 1.524 . S
C2581 H2584 0.999 . S
C2582 H2552 0.950 . S
C2582 C2581 1.524 . S
C2582 C2583 1.415 . S
C2583 H2553 0.950 . S
C2583 C2578 1.363 . S
C2583 C2582 1.415 . S
H2584 C2581 0.999 . S
H2585 C2566 0.913 . S
H2586 C2604 0.951 . S
H2587 C2606 0.951 . S
H2588 C2608 0.950 . S
H2589 C2609 0.950 . S
H2590 C2611 0.950 . S
H2591 C2614 0.950 . S
H2592 C2615 0.950 . S
H2593 C2617 0.950 . S
H2594 C2618 0.950 . S
H2595 C2619 0.951 . S
H2596 C2621 0.951 . S
H2597 C2623 0.950 . S
H2598 C2624 0.950 . S
H2599 C2626 0.950 . S
H2600 C2629 0.950 . S
H2601 C2630 0.950 . S
H2602 C2632 0.950 . S
H2603 C2633 0.950 . S
C2604 H2586 0.951 . S
C2604 C2605 1.366 . S
C2604 C2606 1.388 . S
C2605 C2604 1.366 . S
C2605 C2609 1.385 . S
C2606 H2587 0.951 . S
C2606 C2604 1.388 . S
C2606 C2607 1.366 . S
C2607 C2606 1.366 . S
C2607 C2608 1.414 . S
C2607 C2610 1.499 . S
C2608 H2588 0.950 . S
C2608 C2607 1.414 . S
C2608 C2609 1.374 . S
C2609 H2589 0.950 . S
C2609 C2605 1.385 . S
C2609 C2608 1.374 . S
C2610 C2607 1.499 . S
C2610 C2611 1.373 . S
C2610 C2612 1.389 . S
C2611 H2590 0.950 . S
C2611 C2610 1.373 . S
C2611 C2627 1.377 . S
C2612 C2610 1.389 . S
C2612 C2613 1.524 . S
C2612 C2626 1.377 . S
C2613 C2612 1.524 . S
C2613 C2614 1.397 . S
C2613 C2618 1.363 . S
C2614 H2591 0.950 . S
C2614 C2613 1.397 . S
C2614 C2615 1.334 . S
C2615 H2592 0.950 . S
C2615 C2614 1.334 . S
C2615 C2616 1.287 . S
C2616 C2615 1.287 . S
C2616 C2617 1.524 . S
C2616 H2635 0.913 . S
C2617 H2593 0.950 . S
C2617 C2616 1.524 . S
C2617 C2618 1.415 . S
C2618 H2594 0.950 . S
C2618 C2613 1.363 . S
C2618 C2617 1.415 . S
C2619 H2595 0.951 . S
C2619 C2620 1.366 . S
C2619 C2621 1.388 . S
C2620 C2619 1.366 . S
C2620 C2624 1.385 . S
C2621 H2596 0.951 . S
C2621 C2619 1.388 . S
C2621 C2622 1.366 . S
C2622 C2621 1.366 . S
C2622 C2623 1.414 . S
C2622 C2625 1.499 . S
C2623 H2597 0.950 . S
C2623 C2622 1.414 . S
C2623 C2624 1.374 . S
C2624 H2598 0.950 . S
C2624 C2620 1.385 . S
C2624 C2623 1.374 . S
C2625 C2622 1.499 . S
C2625 C2626 1.373 . S
C2625 C2627 1.389 . S
C2626 H2599 0.950 . S
C2626 C2612 1.377 . S
C2626 C2625 1.373 . S
C2627 C2611 1.377 . S
C2627 C2625 1.389 . S
C2627 C2628 1.524 . S
C2628 C2627 1.524 . S
C2628 C2629 1.397 . S
C2628 C2633 1.363 . S
C2629 H2600 0.950 . S
C2629 C2628 1.397 . S
C2629 C2630 1.334 . S
C2630 H2601 0.950 . S
C2630 C2629 1.334 . S
C2630 C2631 1.287 . S
C2631 C2630 1.287 . S
C2631 C2632 1.524 . S
C2631 H2634 0.999 . S
C2632 H2602 0.950 . S
C2632 C2631 1.524 . S
C2632 C2633 1.415 . S
C2633 H2603 0.950 . S
C2633 C2628 1.363 . S
C2633 C2632 1.415 . S
H2634 C2631 0.999 . S
H2635 C2616 0.913 . S
H2636 C2654 0.951 . S
H2637 C2656 0.951 1_554 S
H2638 C2658 0.950 . S
H2639 C2659 0.950 . S
H2640 C2661 0.950 . S
H2641 C2664 0.950 . S
H2642 C2665 0.950 . S
H2643 C2667 0.950 . S
H2644 C2668 0.950 . S
H2645 C2669 0.951 . S
H2646 C2671 0.951 1_556 S
H2647 C2673 0.950 . S
H2648 C2674 0.950 . S
H2649 C2676 0.950 . S
H2650 C2679 0.950 . S
H2651 C2680 0.950 . S
H2652 C2682 0.950 . S
H2653 C2683 0.950 . S
C2654 H2636 0.951 . S
C2654 C2655 1.366 . S
C2654 C2656 1.388 . S
C2655 C2654 1.366 . S
C2655 C2659 1.385 . S
C2656 H2637 0.951 1_556 S
C2656 C2654 1.388 . S
C2656 C2657 1.366 . S
C2657 C2656 1.366 . S
C2657 C2658 1.414 . S
C2657 C2660 1.499 . S
C2658 H2638 0.950 . S
C2658 C2657 1.414 . S
C2658 C2659 1.374 . S
C2659 H2639 0.950 . S
C2659 C2655 1.385 . S
C2659 C2658 1.374 . S
C2660 C2657 1.499 . S
C2660 C2661 1.373 . S
C2660 C2662 1.389 1_556 S
C2661 H2640 0.950 . S
C2661 C2660 1.373 . S
C2661 C2677 1.377 . S
C2662 C2660 1.389 1_554 S
C2662 C2663 1.524 . S
C2662 C2676 1.377 . S
C2663 C2662 1.524 . S
C2663 C2664 1.397 . S
C2663 C2668 1.363 . S
C2664 H2641 0.950 . S
C2664 C2663 1.397 . S
C2664 C2665 1.334 . S
C2665 H2642 0.950 . S
C2665 C2664 1.334 . S
C2665 C2666 1.287 . S
C2666 C2665 1.287 . S
C2666 C2667 1.524 . S
C2666 H2685 0.913 . S
C2667 H2643 0.950 . S
C2667 C2666 1.524 . S
C2667 C2668 1.415 . S
C2668 H2644 0.950 . S
C2668 C2663 1.363 . S
C2668 C2667 1.415 . S
C2669 H2645 0.951 . S
C2669 C2670 1.366 . S
C2669 C2671 1.388 . S
C2670 C2669 1.366 . S
C2670 C2674 1.385 . S
C2671 H2646 0.951 1_554 S
C2671 C2669 1.388 . S
C2671 C2672 1.366 . S
C2672 C2671 1.366 . S
C2672 C2673 1.414 . S
C2672 C2675 1.499 . S
C2673 H2647 0.950 . S
C2673 C2672 1.414 . S
C2673 C2674 1.374 . S
C2674 H2648 0.950 . S
C2674 C2670 1.385 . S
C2674 C2673 1.374 . S
C2675 C2672 1.499 . S
C2675 C2676 1.373 . S
C2675 C2677 1.389 1_554 S
C2676 H2649 0.950 . S
C2676 C2662 1.377 . S
C2676 C2675 1.373 . S
C2677 C2661 1.377 . S
C2677 C2675 1.389 1_556 S
C2677 C2678 1.524 . S
C2678 C2677 1.524 . S
C2678 C2679 1.397 . S
C2678 C2683 1.363 . S
C2679 H2650 0.950 . S
C2679 C2678 1.397 . S
C2679 C2680 1.334 . S
C2680 H2651 0.950 . S
C2680 C2679 1.334 . S
C2680 C2681 1.287 . S
C2681 C2680 1.287 . S
C2681 C2682 1.524 . S
C2681 H2684 0.999 . S
C2682 H2652 0.950 . S
C2682 C2681 1.524 . S
C2682 C2683 1.415 . S
C2683 H2653 0.950 . S
C2683 C2678 1.363 . S
C2683 C2682 1.415 . S
H2684 C2681 0.999 . S
H2685 C2666 0.913 . S
H2686 C2704 0.951 . S
H2687 C2706 0.951 . S
H2688 C2708 0.950 . S
H2689 C2709 0.950 . S
H2690 C2711 0.950 . S
H2691 C2714 0.950 . S
H2692 C2715 0.950 . S
H2693 C2717 0.950 . S
H2694 C2718 0.950 . S
H2695 C2719 0.951 . S
H2696 C2721 0.951 . S
H2697 C2723 0.950 . S
H2698 C2724 0.950 . S
H2699 C2726 0.950 . S
H2700 C2729 0.950 . S
H2701 C2730 0.950 . S
H2702 C2732 0.950 . S
H2703 C2733 0.950 . S
C2704 H2686 0.951 . S
C2704 C2705 1.366 . S
C2704 C2706 1.388 . S
C2705 C2704 1.366 . S
C2705 C2709 1.385 . S
C2706 H2687 0.951 . S
C2706 C2704 1.388 . S
C2706 C2707 1.366 . S
C2707 C2706 1.366 . S
C2707 C2708 1.414 . S
C2707 C2710 1.499 . S
C2708 H2688 0.950 . S
C2708 C2707 1.414 . S
C2708 C2709 1.374 . S
C2709 H2689 0.950 . S
C2709 C2705 1.385 . S
C2709 C2708 1.374 . S
C2710 C2707 1.499 . S
C2710 C2711 1.373 . S
C2710 C2712 1.389 . S
C2711 H2690 0.950 . S
C2711 C2710 1.373 . S
C2711 C2727 1.377 . S
C2712 C2710 1.389 . S
C2712 C2713 1.524 . S
C2712 C2726 1.377 . S
C2713 C2712 1.524 . S
C2713 C2714 1.397 . S
C2713 C2718 1.363 . S
C2714 H2691 0.950 . S
C2714 C2713 1.397 . S
C2714 C2715 1.334 . S
C2715 H2692 0.950 . S
C2715 C2714 1.334 . S
C2715 C2716 1.287 . S
C2716 C2715 1.287 . S
C2716 C2717 1.524 . S
C2716 H2735 0.913 . S
C2717 H2693 0.950 . S
C2717 C2716 1.524 . S
C2717 C2718 1.415 . S
C2718 H2694 0.950 . S
C2718 C2713 1.363 . S
C2718 C2717 1.415 . S
C2719 H2695 0.951 . S
C2719 C2720 1.366 . S
C2719 C2721 1.388 . S
C2720 C2719 1.366 . S
C2720 C2724 1.385 . S
C2721 H2696 0.951 . S
C2721 C2719 1.388 . S
C2721 C2722 1.366 . S
C2722 C2721 1.366 . S
C2722 C2723 1.414 . S
C2722 C2725 1.499 . S
C2723 H2697 0.950 . S
C2723 C2722 1.414 . S
C2723 C2724 1.374 . S
C2724 H2698 0.950 . S
C2724 C2720 1.385 . S
C2724 C2723 1.374 . S
C2725 C2722 1.499 . S
C2725 C2726 1.373 . S
C2725 C2727 1.389 . S
C2726 H2699 0.950 . S
C2726 C2712 1.377 . S
C2726 C2725 1.373 . S
C2727 C2711 1.377 . S
C2727 C2725 1.389 . S
C2727 C2728 1.524 . S
C2728 C2727 1.524 . S
C2728 C2729 1.397 . S
C2728 C2733 1.363 . S
C2729 H2700 0.950 . S
C2729 C2728 1.397 . S
C2729 C2730 1.334 . S
C2730 H2701 0.950 . S
C2730 C2729 1.334 . S
C2730 C2731 1.287 . S
C2731 C2730 1.287 . S
C2731 C2732 1.524 . S
C2731 H2734 0.999 . S
C2732 H2702 0.950 . S
C2732 C2731 1.524 . S
C2732 C2733 1.415 . S
C2733 H2703 0.950 . S
C2733 C2728 1.363 . S
C2733 C2732 1.415 . S
H2734 C2731 0.999 . S
H2735 C2716 0.913 . S
C355 C3 1.482 . S
C370 C213 1.482 . S
C405 C17 1.481 . S
C420 C227 1.482 . S
C455 C241 1.482 . S
C470 C31 1.482 . S
C505 C171 1.482 . S
C520 C45 1.482 . S
C555 C185 1.482 . S
C570 C59 1.481 . S
C605 C199 1.482 . S
C620 C73 1.482 . S
C655 C297 1.482 . S
C670 C87 1.482 . S
C705 C101 1.482 . S
C720 C311 1.482 . S
C755 C325 1.482 . S
C770 C115 1.481 . S
C805 C129 1.482 . S
C820 C255 1.482 . S
C855 C269 1.482 . S
C870 C143 1.482 . S
C905 C157 1.482 . S
C920 C283 1.482 . S
C955 C148 1.337 . S
C970 C8 1.337 . S
C1005 C162 1.336 . S
C1020 C22 1.336 . S
C1055 C36 1.336 . S
C1070 C92 1.336 . S
C1105 C50 1.337 . S
C1120 C106 1.337 . S
C1155 C120 1.337 . S
C1170 C64 1.337 . S
C1205 C78 1.337 . S
C1220 C134 1.337 . S
C1255 C316 1.337 . S
C1270 C176 1.337 . S
C1305 C190 1.337 . S
C1320 C330 1.337 . S
C1355 C204 1.337 . S
C1370 C260 1.337 . S
C1405 C274 1.337 . S
C1420 C218 1.337 . S
C1455 C232 1.336 . S
C1470 C288 1.336 . S
C1505 C246 1.337 . S
C1520 C302 1.337 . S
C1555 C9 1.377 . S
C1570 C261 1.377 . S
C1605 C275 1.377 . S
C1620 C23 1.376 . S
C1655 C37 1.376 . S
C1670 C289 1.377 . S
C1705 C51 1.377 . S
C1720 C303 1.377 . S
C1755 C317 1.377 . S
C1770 C65 1.376 . S
C1805 C79 1.377 . S
C1820 C331 1.377 . S
C1855 C93 1.377 . S
C1870 C177 1.377 . S
C1905 C107 1.377 . S
C1920 C191 1.377 . S
C1955 C205 1.376 . S
C1970 C121 1.377 . S
C2005 C219 1.377 . S
C2020 C135 1.376 . S
C2055 C149 1.377 . S
C2070 C233 1.377 . S
C2105 C247 1.377 . S
C2120 C163 1.377 . S
C2155 C91 1.445 . S
C2170 C7 1.445 . S
C2205 C21 1.444 . S
C2220 C105 1.445 . S
C2255 C119 1.444 . S
C2270 C35 1.445 . S
C2305 C133 1.444 . S
C2320 C49 1.444 . S
C2355 C147 1.444 . S
C2370 C63 1.444 . S
C2405 C77 1.444 . S
C2420 C161 1.445 . S
C2455 C259 1.444 . S
C2470 C175 1.444 . S
C2505 C189 1.445 . S
C2520 C273 1.445 . S
C2555 C287 1.445 . S
C2570 C203 1.445 . S
C2605 C301 1.444 . S
C2620 C217 1.445 . S
C2655 C231 1.444 . S
C2670 C315 1.444 . S
C2705 C245 1.444 . S
C2720 C329 1.445 . S
