# Generated by pormake.
# Topology ume, (4)-cn, num edge types: 1
# Building blocks:
#     Node 0, Type 0, BuildingBlock: KOZSID_clean_sbu_0, # of connection points: 4
#     Node 1, Type 0, BuildingBlock: KOZSID_clean_sbu_0, # of connection points: 4
#     Node 2, Type 0, BuildingBlock: KOZSID_clean_sbu_0, # of connection points: 4
#     Node 3, Type 0, BuildingBlock: KOZSID_clean_sbu_0, # of connection points: 4
#     Node 4, Type 0, BuildingBlock: KOZSID_clean_sbu_0, # of connection points: 4
#     Node 5, Type 0, BuildingBlock: KOZSID_clean_sbu_0, # of connection points: 4
#     Node 6, Type 0, BuildingBlock: KOZSID_clean_sbu_0, # of connection points: 4
#     Node 7, Type 0, BuildingBlock: KOZSID_clean_sbu_0, # of connection points: 4
#     Node 8, Type 0, BuildingBlock: KOZSID_clean_sbu_0, # of connection points: 4
#     Node 9, Type 0, BuildingBlock: KOZSID_clean_sbu_0, # of connection points: 4
#     Node 10, Type 0, BuildingBlock: KOZSID_clean_sbu_0, # of connection points: 4
#     Node 11, Type 0, BuildingBlock: KOZSID_clean_sbu_0, # of connection points: 4
#     Node 12, Type 0, BuildingBlock: KOZSID_clean_sbu_0, # of connection points: 4
#     Node 13, Type 0, BuildingBlock: KOZSID_clean_sbu_0, # of connection points: 4
#     Node 14, Type 0, BuildingBlock: KOZSID_clean_sbu_0, # of connection points: 4
#     Node 15, Type 0, BuildingBlock: KOZSID_clean_sbu_0, # of connection points: 4
#     Edge 16, Type (0, 0), BuildingBlock: XUDNAN_clean_linker_2, # of connection points: 2
#     Edge 17, Type (0, 0), BuildingBlock: XUDNAN_clean_linker_2, # of connection points: 2
#     Edge 18, Type (0, 0), BuildingBlock: XUDNAN_clean_linker_2, # of connection points: 2
#     Edge 19, Type (0, 0), BuildingBlock: XUDNAN_clean_linker_2, # of connection points: 2
#     Edge 20, Type (0, 0), BuildingBlock: XUDNAN_clean_linker_2, # of connection points: 2
#     Edge 21, Type (0, 0), BuildingBlock: XUDNAN_clean_linker_2, # of connection points: 2
#     Edge 22, Type (0, 0), BuildingBlock: XUDNAN_clean_linker_2, # of connection points: 2
#     Edge 23, Type (0, 0), BuildingBlock: XUDNAN_clean_linker_2, # of connection points: 2
#     Edge 24, Type (0, 0), BuildingBlock: XUDNAN_clean_linker_2, # of connection points: 2
#     Edge 25, Type (0, 0), BuildingBlock: XUDNAN_clean_linker_2, # of connection points: 2
#     Edge 26, Type (0, 0), BuildingBlock: XUDNAN_clean_linker_2, # of connection points: 2
#     Edge 27, Type (0, 0), BuildingBlock: XUDNAN_clean_linker_2, # of connection points: 2
#     Edge 28, Type (0, 0), BuildingBlock: XUDNAN_clean_linker_2, # of connection points: 2
#     Edge 29, Type (0, 0), BuildingBlock: XUDNAN_clean_linker_2, # of connection points: 2
#     Edge 30, Type (0, 0), BuildingBlock: XUDNAN_clean_linker_2, # of connection points: 2
#     Edge 31, Type (0, 0), BuildingBlock: XUDNAN_clean_linker_2, # of connection points: 2
#     Edge 32, Type (0, 0), BuildingBlock: XUDNAN_clean_linker_2, # of connection points: 2
#     Edge 33, Type (0, 0), BuildingBlock: XUDNAN_clean_linker_2, # of connection points: 2
#     Edge 34, Type (0, 0), BuildingBlock: XUDNAN_clean_linker_2, # of connection points: 2
#     Edge 35, Type (0, 0), BuildingBlock: XUDNAN_clean_linker_2, # of connection points: 2
#     Edge 36, Type (0, 0), BuildingBlock: XUDNAN_clean_linker_2, # of connection points: 2
#     Edge 37, Type (0, 0), BuildingBlock: XUDNAN_clean_linker_2, # of connection points: 2
#     Edge 38, Type (0, 0), BuildingBlock: XUDNAN_clean_linker_2, # of connection points: 2
#     Edge 39, Type (0, 0), BuildingBlock: XUDNAN_clean_linker_2, # of connection points: 2
#     Edge 40, Type (0, 0), BuildingBlock: XUDNAN_clean_linker_2, # of connection points: 2
#     Edge 41, Type (0, 0), BuildingBlock: XUDNAN_clean_linker_2, # of connection points: 2
#     Edge 42, Type (0, 0), BuildingBlock: XUDNAN_clean_linker_2, # of connection points: 2
#     Edge 43, Type (0, 0), BuildingBlock: XUDNAN_clean_linker_2, # of connection points: 2
#     Edge 44, Type (0, 0), BuildingBlock: XUDNAN_clean_linker_2, # of connection points: 2
#     Edge 45, Type (0, 0), BuildingBlock: XUDNAN_clean_linker_2, # of connection points: 2
#     Edge 46, Type (0, 0), BuildingBlock: XUDNAN_clean_linker_2, # of connection points: 2
#     Edge 47, Type (0, 0), BuildingBlock: XUDNAN_clean_linker_2, # of connection points: 2
# Relax obj value: 0.054
# Max RMSD: 0.244
# Mean RMSD: 0.214
data_MOF--net-ume--node1-KOZSID_clean_sbu_0--edge1-XUDNAN_clean_linker_2
_symmetry_space_group_name_H-M    P1
_symmetry_Int_Tables_number       1
_symmetry_cell_setting            triclinic
loop_
_symmetry_equiv_pos_as_xyz
'x, y, z'
_cell_length_a     32.324839
_cell_length_b     38.087773
_cell_length_c     132.99192
_cell_angle_alpha  90.015116
_cell_angle_beta   90.016291
_cell_angle_gamma 89.940759
loop_
_atom_site_label
_atom_site_type_symbol
_atom_site_fract_x
_atom_site_fract_y
_atom_site_fract_z
_atom_type_partial_charge
C0 C 0.33704 0.0812 0.32164 0.0
C1 C 0.35529 0.11315 0.32397 0.0
C2 C 0.32806 0.13886 0.32097 0.0
C3 C 0.2948 0.12129 0.31696 0.0
N4 N 0.29938 0.08621 0.31735 0.0
Co5 Co 0.25967 0.05154 0.31189 0.0
N6 N 0.2137 0.08621 0.3114 0.0
C7 C 0.21814 0.12129 0.3117 0.0
C8 C 0.18086 0.13866 0.31124 0.0
C9 C 0.15124 0.11282 0.31059 0.0
C10 C 0.17207 0.08098 0.31071 0.0
N11 N 0.22 0.01681 0.30629 0.0
C12 C 0.17802 0.01705 0.30616 0.0
C13 C 0.16273 0.98646 0.30182 0.0
C14 C 0.1962 0.96688 0.29899 0.0
C15 C 0.23001 0.98621 0.30182 0.0
N16 N 0.30443 0.01595 0.31245 0.0
C17 C 0.30494 0.98487 0.30762 0.0
C18 C 0.33852 0.96456 0.31002 0.0
C19 C 0.36083 0.98423 0.31669 0.0
C20 C 0.33984 0.01591 0.31786 0.0
N21 N 0.2439 0.03917 0.32587 0.0
C22 C 0.23958 0.02454 0.34679 0.0
C23 C 0.24252 0.99739 0.33961 0.0
C24 C 0.24455 1.00521 0.32924 0.0
C25 C 0.23637 0.05894 0.3431 0.0
C26 C 0.23829 0.0656 0.33273 0.0
N27 N 0.27795 0.06567 0.29806 0.0
C28 C 0.33542 0.08117 0.28713 0.0
C29 C 0.30904 0.09533 0.27982 0.0
C30 C 0.26622 0.09361 0.2818 0.0
C31 C 0.25133 0.07827 0.29085 0.0
C32 C 0.31961 0.06704 0.29608 0.0
H33 H 0.21833 0.07734 0.29209 0.0
H34 H 0.34184 0.05831 0.30155 0.0
H35 H 0.24842 0.98385 0.32399 0.0
H36 H 0.23707 0.09256 0.33034 0.0
C37 C 0.25679 0.13618 0.31403 0.0
C38 C 0.35755 0.04689 0.32286 0.0
C39 C 0.15177 0.04647 0.30943 0.0
C40 C 0.27017 0.97309 0.30244 0.0
H41 H 0.38527 0.11737 0.32738 0.0
H42 H 0.3317 0.16694 0.32184 0.0
H43 H 0.17564 0.16668 0.31171 0.0
H44 H 0.11817 0.11688 0.31007 0.0
H45 H 0.13076 0.97882 0.30086 0.0
H46 H 0.19586 0.94072 0.29581 0.0
H47 H 0.34518 0.93807 0.30755 0.0
H48 H 0.38978 0.97636 0.3201 0.0
H49 H 0.24491 0.97027 0.34197 0.0
H50 H 0.23281 0.08089 0.34821 0.0
H51 H 0.36865 0.08183 0.28608 0.0
H52 H 0.24434 0.1037 0.27635 0.0
C53 C 0.96237 0.78722 0.54988 0.0
C54 C 0.99271 0.78674 0.54252 0.0
C55 C 0.02686 0.77075 0.54671 0.0
C56 C 0.01557 0.76219 0.55638 0.0
N57 N 0.97652 0.7718 0.55849 0.0
Co58 Co 0.94884 0.76596 0.57172 0.0
N59 N 1.00182 0.75987 0.57911 0.0
C60 C 0.03823 0.75178 0.57476 0.0
C61 C 0.06981 0.74884 0.58162 0.0
C62 C 0.05201 0.75492 0.59084 0.0
C63 C 0.01022 0.76098 0.58915 0.0
N64 N 0.9202 0.7608 0.58489 0.0
C65 C 0.935 0.76212 0.59446 0.0
C66 C 0.90364 0.75523 0.60134 0.0
C67 C 0.86838 0.7493 0.5959 0.0
C68 C 0.87994 0.7527 0.58604 0.0
N69 N 0.8957 0.77172 0.5643 0.0
C70 C 0.85822 0.76226 0.56774 0.0
C71 C 0.82675 0.77091 0.56128 0.0
C72 C 0.84552 0.78683 0.55325 0.0
C73 C 0.88774 0.78668 0.5552 0.0
N74 N 0.94721 0.71407 0.56975 0.0
C75 C 0.96022 0.64066 0.56662 0.0
C76 C 0.94924 0.66347 0.55867 0.0
C77 C 0.94243 0.69962 0.56039 0.0
C78 C 0.96252 0.65584 0.57625 0.0
C79 C 0.95623 0.69208 0.57762 0.0
N80 N 0.95277 0.81713 0.57369 0.0
C81 C 0.92438 0.87355 0.57837 0.0
C82 C 0.96247 0.89019 0.57641 0.0
C83 C 0.99524 0.8692 0.57308 0.0
C84 C 0.98981 0.83318 0.57179 0.0
C85 C 0.92013 0.83703 0.57693 0.0
H86 H 0.01612 0.81831 0.56929 0.0
H87 H 0.89064 0.82486 0.57846 0.0
H88 H 0.93481 0.71613 0.55406 0.0
H89 H 0.96016 0.70234 0.5851 0.0
C90 C 0.04243 0.75222 0.56421 0.0
C91 C 0.91959 0.80007 0.54824 0.0
C92 C 0.97903 0.76503 0.59727 0.0
C93 C 0.85309 0.75273 0.5778 0.0
H94 H 0.99035 0.7969 0.53495 0.0
H95 H 0.05693 0.76741 0.54326 0.0
H96 H 0.10219 0.74389 0.58009 0.0
H97 H 0.068 0.75459 0.59799 0.0
H98 H 0.90602 0.75352 0.60943 0.0
H99 H 0.83784 0.74366 0.59882 0.0
H100 H 0.79383 0.76809 0.56253 0.0
H101 H 0.82946 0.79782 0.54686 0.0
H102 H 0.94711 0.65399 0.55102 0.0
H103 H 0.9695 0.64002 0.58279 0.0
H104 H 0.89795 0.88859 0.58092 0.0
H105 H 0.0255 0.88032 0.57166 0.0
C106 C 0.16987 0.44888 0.82139 0.0
C107 C 0.15129 0.41707 0.8237 0.0
C108 C 0.17838 0.39115 0.82076 0.0
C109 C 0.21189 0.40847 0.8168 0.0
N110 N 0.20757 0.44359 0.81715 0.0
Co111 Co 0.24774 0.47797 0.81175 0.0
N112 N 0.29347 0.44307 0.81142 0.0
C113 C 0.28877 0.40802 0.81175 0.0
C114 C 0.32594 0.39046 0.81139 0.0
C115 C 0.35576 0.41613 0.81076 0.0
C116 C 0.33516 0.44807 0.81079 0.0
N117 N 0.28784 0.51243 0.80621 0.0
C118 C 0.32981 0.51196 0.80615 0.0
C119 C 0.34545 0.54238 0.8018 0.0
C120 C 0.31221 0.56209 0.79888 0.0
C121 C 0.27819 0.54299 0.80168 0.0
N122 N 0.20321 0.51379 0.81218 0.0
C123 C 0.20307 0.5448 0.80731 0.0
C124 C 0.16957 0.56533 0.80963 0.0
C125 C 0.14694 0.54588 0.81628 0.0
C126 C 0.16766 0.51411 0.81753 0.0
N127 N 0.26301 0.49049 0.82576 0.0
C128 C 0.26396 0.50564 0.84672 0.0
C129 C 0.26311 0.53259 0.83943 0.0
C130 C 0.26266 0.52453 0.82906 0.0
C131 C 0.26747 0.4711 0.8431 0.0
C132 C 0.26739 0.46422 0.83272 0.0
N133 N 0.22986 0.46372 0.79789 0.0
C134 C 0.17263 0.44847 0.78685 0.0
C135 C 0.19913 0.43406 0.77961 0.0
C136 C 0.2419 0.4355 0.78168 0.0
C137 C 0.25662 0.45084 0.79076 0.0
C138 C 0.18826 0.46259 0.79583 0.0
H139 H 0.28958 0.45156 0.79207 0.0
H140 H 0.16592 0.47151 0.80124 0.0
H141 H 0.26009 0.54579 0.82373 0.0
H142 H 0.26836 0.43718 0.83039 0.0
C143 C 0.24992 0.39335 0.81399 0.0
C144 C 0.14969 0.48334 0.82257 0.0
C145 C 0.35575 0.48245 0.8095 0.0
C146 C 0.23809 0.55632 0.80219 0.0
H147 H 0.12121 0.41306 0.82708 0.0
H148 H 0.1745 0.36311 0.82167 0.0
H149 H 0.33094 0.36241 0.81189 0.0
H150 H 0.38882 0.41189 0.8103 0.0
H151 H 0.37751 0.54981 0.80087 0.0
H152 H 0.31284 0.58817 0.79565 0.0
H153 H 0.1632 0.59181 0.80712 0.0
H154 H 0.11799 0.55399 0.81965 0.0
H155 H 0.26187 0.5599 0.84165 0.0
H156 H 0.26814 0.44899 0.8482 0.0
H157 H 0.13944 0.44804 0.78572 0.0
H158 H 0.26388 0.42521 0.77628 0.0
C159 C 0.54734 0.74635 0.04972 0.0
C160 C 0.51647 0.74782 0.0425 0.0
C161 C 0.48276 0.76355 0.04699 0.0
C162 C 0.49481 0.77098 0.05669 0.0
N163 N 0.53395 0.76091 0.05851 0.0
Co164 Co 0.56256 0.76453 0.07167 0.0
N165 N 0.51012 0.76925 0.07934 0.0
C166 C 0.47359 0.77867 0.07528 0.0
C167 C 0.44276 0.78135 0.08236 0.0
C168 C 0.46124 0.77356 0.09141 0.0
C169 C 0.50249 0.7664 0.08938 0.0
N170 N 0.59218 0.76738 0.08479 0.0
C171 C 0.57808 0.76363 0.09436 0.0
C172 C 0.61037 0.7667 0.10121 0.0
C173 C 0.6453 0.77385 0.09577 0.0
C174 C 0.63275 0.7743 0.08593 0.0
N175 N 0.61512 0.7601 0.06397 0.0
C176 C 0.65289 0.7689 0.06738 0.0
C177 C 0.68382 0.76119 0.06067 0.0
C178 C 0.66439 0.74648 0.05254 0.0
C179 C 0.62234 0.74634 0.05468 0.0
N180 N 0.56402 0.81672 0.07046 0.0
C181 C 0.55348 0.89071 0.06906 0.0
C182 C 0.55197 0.87328 0.07833 0.0
C183 C 0.55687 0.83676 0.07885 0.0
C184 C 0.56134 0.87022 0.06047 0.0
C185 C 0.56707 0.83342 0.06134 0.0
N186 N 0.55876 0.71311 0.07296 0.0
C187 C 0.58701 0.65622 0.07716 0.0
C188 C 0.5487 0.63995 0.07521 0.0
C189 C 0.51598 0.66128 0.07204 0.0
C190 C 0.52157 0.69738 0.07099 0.0
C191 C 0.59144 0.6928 0.07594 0.0
H192 H 0.49522 0.7126 0.06869 0.0
H193 H 0.62107 0.70469 0.07749 0.0
H194 H 0.55358 0.82481 0.08613 0.0
H195 H 0.57315 0.81844 0.05461 0.0
C196 C 0.46859 0.78 0.06475 0.0
C197 C 0.5899 0.73341 0.04781 0.0
C198 C 0.53417 0.76058 0.09726 0.0
C199 C 0.65894 0.77598 0.07758 0.0
H200 H 0.51818 0.73844 0.03483 0.0
H201 H 0.45245 0.76738 0.04371 0.0
H202 H 0.41049 0.78752 0.08108 0.0
H203 H 0.44628 0.7738 0.09869 0.0
H204 H 0.60904 0.7644 0.10931 0.0
H205 H 0.67638 0.77719 0.09865 0.0
H206 H 0.71685 0.76355 0.06183 0.0
H207 H 0.67996 0.73628 0.04598 0.0
H208 H 0.5462 0.88782 0.08519 0.0
H209 H 0.56359 0.88254 0.05315 0.0
H210 H 0.6134 0.64087 0.07958 0.0
H211 H 0.4856 0.65039 0.07062 0.0
C212 C 0.3386 0.44858 0.94702 0.0
C213 C 0.35754 0.41694 0.94463 0.0
C214 C 0.33059 0.39078 0.94744 0.0
C215 C 0.29678 0.40777 0.9514 0.0
N216 N 0.3008 0.44293 0.95114 0.0
Co217 Co 0.26026 0.47684 0.95663 0.0
N218 N 0.21492 0.44179 0.95673 0.0
C219 C 0.2197 0.40677 0.95629 0.0
C220 C 0.18238 0.38941 0.95604 0.0
C221 C 0.1525 0.41523 0.95632 0.0
C222 C 0.17323 0.44702 0.95671 0.0
N223 N 0.21966 0.51069 0.96229 0.0
C224 C 0.17771 0.51007 0.96214 0.0
C225 C 0.16148 0.53976 0.96676 0.0
C226 C 0.19443 0.55925 0.97001 0.0
C227 C 0.22885 0.54071 0.96714 0.0
N228 N 0.30434 0.51293 0.95642 0.0
C229 C 0.304 0.54359 0.96147 0.0
C230 C 0.33746 0.56437 0.95935 0.0
C231 C 0.36057 0.54542 0.95266 0.0
C232 C 0.34014 0.51366 0.95118 0.0
N233 N 0.24508 0.4898 0.94264 0.0
C234 C 0.24106 0.50501 0.92174 0.0
C235 C 0.24364 0.53198 0.92899 0.0
C236 C 0.24552 0.52387 0.93935 0.0
C237 C 0.23809 0.47051 0.92534 0.0
C238 C 0.23993 0.46357 0.93569 0.0
N239 N 0.27801 0.46209 0.97045 0.0
C240 C 0.33517 0.44718 0.98155 0.0
C241 C 0.30868 0.43275 0.98878 0.0
C242 C 0.26594 0.43384 0.98665 0.0
C243 C 0.25124 0.44899 0.97754 0.0
C244 C 0.31958 0.46114 0.97256 0.0
H245 H 0.21831 0.44946 0.97616 0.0
H246 H 0.34195 0.47019 0.96718 0.0
H247 H 0.24906 0.54508 0.94467 0.0
H248 H 0.23898 0.43652 0.938 0.0
C249 C 0.25878 0.39231 0.9541 0.0
C250 C 0.35862 0.48319 0.94606 0.0
C251 C 0.15282 0.48153 0.95783 0.0
C252 C 0.26881 0.55443 0.9667 0.0
H253 H 0.38781 0.4132 0.94132 0.0
H254 H 0.33479 0.36279 0.94646 0.0
H255 H 0.17739 0.36145 0.95524 0.0
H256 H 0.11936 0.41123 0.95626 0.0
H257 H 0.12939 0.5472 0.96757 0.0
H258 H 0.19335 0.58501 0.97344 0.0
H259 H 0.34362 0.59065 0.96206 0.0
H260 H 0.38968 0.55378 0.94944 0.0
H261 H 0.24581 0.55918 0.92669 0.0
H262 H 0.23479 0.44868 0.92019 0.0
H263 H 0.36835 0.44694 0.98272 0.0
H264 H 0.24397 0.42345 0.99202 0.0
C265 C 0.54396 0.78522 0.21936 0.0
C266 C 0.51334 0.7842 0.22664 0.0
C267 C 0.47939 0.76854 0.22227 0.0
C268 C 0.49108 0.76069 0.21257 0.0
N269 N 0.53023 0.77037 0.21064 0.0
Co270 Co 0.55834 0.76621 0.19742 0.0
N271 N 0.50563 0.76131 0.18985 0.0
C272 C 0.46904 0.75282 0.19404 0.0
C273 C 0.43773 0.75062 0.18709 0.0
C274 C 0.45591 0.75755 0.17796 0.0
C275 C 0.49763 0.76338 0.1798 0.0
N276 N 0.58754 0.76294 0.18426 0.0
C277 C 0.57313 0.76549 0.17466 0.0
C278 C 0.60489 0.7597 0.1678 0.0
C279 C 0.63994 0.7531 0.17326 0.0
C280 C 0.6279 0.75505 0.18312 0.0
N281 N 0.61114 0.77075 0.20503 0.0
C282 C 0.64873 0.76151 0.20159 0.0
C283 C 0.67994 0.76945 0.20821 0.0
C284 C 0.66086 0.78475 0.2163 0.0
C285 C 0.61874 0.78497 0.21424 0.0
N286 N 0.55975 0.71403 0.19875 0.0
C287 C 0.54938 0.64006 0.20027 0.0
C288 C 0.54751 0.65733 0.19099 0.0
C289 C 0.55234 0.69381 0.1904 0.0
C290 C 0.55745 0.66071 0.20883 0.0
C291 C 0.56306 0.6975 0.20789 0.0
N292 N 0.55464 0.81758 0.19602 0.0
C293 C 0.58326 0.87425 0.19178 0.0
C294 C 0.54504 0.89078 0.19371 0.0
C295 C 0.51216 0.86965 0.19687 0.0
C296 C 0.51754 0.83354 0.19796 0.0
C297 C 0.58744 0.83766 0.19301 0.0
H298 H 0.49114 0.81853 0.20029 0.0
H299 H 0.617 0.82556 0.19148 0.0
H300 H 0.54879 0.70555 0.18311 0.0
H301 H 0.5693 0.71262 0.21459 0.0
C302 C 0.46447 0.75189 0.20458 0.0
C303 C 0.58656 0.79823 0.22114 0.0
C304 C 0.52911 0.76791 0.17176 0.0
C305 C 0.65432 0.75359 0.19143 0.0
H306 H 0.51533 0.79393 0.23427 0.0
H307 H 0.44913 0.76513 0.2256 0.0
H308 H 0.40533 0.74548 0.1885 0.0
H309 H 0.44024 0.75785 0.17077 0.0
H310 H 0.60291 0.75898 0.15969 0.0
H311 H 0.67061 0.74782 0.17036 0.0
H312 H 0.7129 0.7668 0.207 0.0
H313 H 0.67671 0.79522 0.22278 0.0
H314 H 0.54156 0.64267 0.18416 0.0
H315 H 0.55996 0.64851 0.21615 0.0
H316 H 0.60979 0.88941 0.18939 0.0
H317 H 0.48182 0.8807 0.19826 0.0
C318 C 0.16897 0.08043 0.44713 0.0
C319 C 0.14979 0.11198 0.44477 0.0
C320 C 0.17659 0.13827 0.44757 0.0
C321 C 0.21054 0.12143 0.45151 0.0
N322 N 0.20675 0.08626 0.45125 0.0
Co323 Co 0.24758 0.0525 0.45668 0.0
N324 N 0.29271 0.08774 0.45673 0.0
C325 C 0.28773 0.12273 0.45629 0.0
C326 C 0.32495 0.14025 0.45601 0.0
C327 C 0.35497 0.11455 0.45628 0.0
C328 C 0.33442 0.08268 0.45669 0.0
N329 N 0.28844 0.01882 0.46231 0.0
C330 C 0.33038 0.01963 0.46214 0.0
C331 C 0.34685 0.99003 0.46676 0.0
C332 C 0.31406 0.97041 0.47003 0.0
C333 C 0.27949 0.98878 0.46717 0.0
N334 N 0.20371 0.01623 0.45651 0.0
C335 C 0.20428 0.98559 0.46156 0.0
C336 C 0.17092 0.96467 0.45945 0.0
C337 C 0.14764 0.98351 0.45276 0.0
C338 C 0.16788 0.01534 0.45128 0.0
N339 N 0.26252 0.03954 0.44268 0.0
C340 C 0.26346 0.02395 0.42176 0.0
C341 C 0.26283 0.99713 0.4291 0.0
C342 C 0.26241 1.00542 0.43946 0.0
C343 C 0.26666 0.05857 0.42532 0.0
C344 C 0.26656 0.06566 0.43567 0.0
N345 N 0.22999 0.06717 0.47051 0.0
C346 C 0.17291 0.08165 0.48167 0.0
C347 C 0.19942 0.09609 0.4889 0.0
C348 C 0.24214 0.09527 0.48673 0.0
C349 C 0.2568 0.08032 0.47759 0.0
C350 C 0.18845 0.0679 0.47265 0.0
H351 H 0.28971 0.08004 0.47619 0.0
H352 H 0.16606 0.05882 0.46728 0.0
H353 H 0.26009 0.98428 0.44483 0.0
H354 H 0.26723 0.09277 0.43794 0.0
C355 C 0.24852 0.13705 0.45416 0.0
C356 C 0.14923 0.04572 0.44615 0.0
C357 C 0.35503 0.04827 0.45782 0.0
C358 C 0.2396 0.9749 0.46677 0.0
H359 H 0.11949 0.11559 0.44146 0.0
H360 H 0.17222 0.16624 0.44659 0.0
H361 H 0.32977 0.16822 0.45521 0.0
H362 H 0.38809 0.11869 0.4562 0.0
H363 H 0.379 0.98273 0.46754 0.0
H364 H 0.31534 0.94466 0.47346 0.0
H365 H 0.16494 0.93836 0.46216 0.0
H366 H 0.11856 0.97502 0.44955 0.0
H367 H 0.26175 0.96978 0.42692 0.0
H368 H 0.26706 0.08058 0.42018 0.0
H369 H 0.13975 0.08169 0.48287 0.0
H370 H 0.26411 0.1057 0.4921 0.0
C371 C 0.96161 0.74551 0.71926 0.0
C372 C 0.99235 0.74789 0.72648 0.0
C373 C 0.02539 0.76462 0.72202 0.0
C374 C 0.01309 0.77169 0.71232 0.0
N375 N 0.97445 0.76045 0.71047 0.0
Co376 Co 0.94577 0.7634 0.6973 0.0
N377 N 0.99799 0.76981 0.68967 0.0
C378 C 0.03401 0.78043 0.69373 0.0
C379 C 0.06476 0.78402 0.68667 0.0
C380 C 0.04674 0.77554 0.67761 0.0
C381 C 0.00583 0.76709 0.67963 0.0
N382 N 0.91615 0.76543 0.68418 0.0
C383 C 0.93049 0.76197 0.67462 0.0
C384 C 0.89816 0.7641 0.66775 0.0
C385 C 0.8629 0.7703 0.67316 0.0
C386 C 0.87533 0.77117 0.68302 0.0
N387 N 0.89337 0.75738 0.70498 0.0
C388 C 0.85527 0.76507 0.70155 0.0
C389 C 0.82463 0.75643 0.70823 0.0
C390 C 0.84459 0.74227 0.71637 0.0
C391 C 0.88666 0.7434 0.71426 0.0
N392 N 0.94215 0.81551 0.69856 0.0
C393 C 0.95151 0.88957 0.70004 0.0
C394 C 0.95269 0.87233 0.69074 0.0
C395 C 0.94838 0.83578 0.69017 0.0
C396 C 0.94433 0.86887 0.70862 0.0
C397 C 0.93913 0.83205 0.70771 0.0
N398 N 0.95187 0.71216 0.69596 0.0
C399 C 0.92676 0.65439 0.69154 0.0
C400 C 0.96644 0.64015 0.69297 0.0
C401 C 0.998 0.66237 0.69619 0.0
C402 C 0.99012 0.69791 0.69768 0.0
C403 C 0.92012 0.69065 0.69305 0.0
H404 H 0.01561 0.71397 0.70005 0.0
H405 H 0.8897 0.7014 0.6917 0.0
H406 H 0.95162 0.82398 0.68287 0.0
H407 H 0.93368 0.8169 0.71444 0.0
C408 C 0.03891 0.78173 0.70427 0.0
C409 C 0.91955 0.73146 0.72116 0.0
C410 C 0.97452 0.76004 0.67176 0.0
C411 C 0.84901 0.77203 0.69135 0.0
H412 H 0.99097 0.73851 0.73416 0.0
H413 H 0.05546 0.76942 0.72532 0.0
H414 H 0.09673 0.79114 0.68796 0.0
H415 H 0.06175 0.77612 0.67034 0.0
H416 H 0.89966 0.76177 0.65965 0.0
H417 H 0.83172 0.7727 0.67027 0.0
H418 H 0.79153 0.7578 0.70705 0.0
H419 H 0.82936 0.73156 0.7229 0.0
H420 H 0.95789 0.88704 0.68389 0.0
H421 H 0.94231 0.88105 0.71596 0.0
H422 H 0.90153 0.6379 0.68901 0.0
H423 H 0.02901 0.65237 0.6974 0.0
C424 C 0.83798 0.58195 0.82178 0.0
C425 C 0.85601 0.61402 0.82407 0.0
C426 C 0.82863 0.63956 0.82102 0.0
C427 C 0.79552 0.62176 0.81703 0.0
N428 N 0.80031 0.5867 0.81747 0.0
Co429 Co 0.76089 0.55176 0.81203 0.0
N430 N 0.71473 0.58622 0.81145 0.0
C431 C 0.71894 0.62133 0.81171 0.0
C432 C 0.68157 0.63853 0.8112 0.0
C433 C 0.65212 0.61255 0.81055 0.0
C434 C 0.67313 0.58081 0.81072 0.0
N435 N 0.72151 0.51675 0.80644 0.0
C436 C 0.67953 0.51681 0.80627 0.0
C437 C 0.66449 0.48605 0.80199 0.0
C438 C 0.69812 0.46655 0.79922 0.0
C439 C 0.73176 0.4861 0.80204 0.0
N440 N 0.80585 0.51636 0.81269 0.0
C441 C 0.8066 0.48517 0.80792 0.0
C442 C 0.84025 0.46504 0.81039 0.0
C443 C 0.86235 0.48496 0.81703 0.0
C444 C 0.84118 0.51658 0.81813 0.0
N445 N 0.74499 0.53955 0.82601 0.0
C446 C 0.7406 0.52513 0.84694 0.0
C447 C 0.74365 0.49791 0.83979 0.0
C448 C 0.7457 0.50562 0.82941 0.0
C449 C 0.73732 0.55949 0.84323 0.0
C450 C 0.73926 0.56604 0.83285 0.0
N451 N 0.77932 0.56571 0.79819 0.0
C452 C 0.8369 0.58112 0.78729 0.0
C453 C 0.81058 0.59505 0.77994 0.0
C454 C 0.76773 0.59328 0.78187 0.0
C455 C 0.75276 0.57809 0.79094 0.0
C456 C 0.821 0.56714 0.79625 0.0
H457 H 0.71975 0.57711 0.79216 0.0
H458 H 0.84318 0.55859 0.80175 0.0
H459 H 0.74967 0.48422 0.82418 0.0
H460 H 0.73796 0.59297 0.83043 0.0
C461 C 0.75746 0.63643 0.81405 0.0
C462 C 0.85873 0.54778 0.82305 0.0
C463 C 0.65305 0.5462 0.80947 0.0
C464 C 0.77198 0.47315 0.80272 0.0
H465 H 0.88595 0.61845 0.82748 0.0
H466 H 0.8321 0.66767 0.82185 0.0
H467 H 0.67618 0.66654 0.81162 0.0
H468 H 0.61903 0.61646 0.80999 0.0
H469 H 0.63258 0.47823 0.80102 0.0
H470 H 0.69797 0.44031 0.79609 0.0
H471 H 0.8471 0.43854 0.80796 0.0
H472 H 0.89132 0.4773 0.82048 0.0
H473 H 0.74609 0.47081 0.84217 0.0
H474 H 0.73369 0.58148 0.84831 0.0
H475 H 0.87014 0.58183 0.78626 0.0
H476 H 0.74591 0.6032 0.77639 0.0
C477 C 0.46152 0.28448 0.0496 0.0
C478 C 0.49202 0.2826 0.0423 0.0
C479 C 0.52574 0.26669 0.04672 0.0
C480 C 0.51405 0.25957 0.05646 0.0
N481 N 0.47511 0.26995 0.05838 0.0
Co482 Co 0.44709 0.26694 0.07165 0.0
N483 N 0.49981 0.2616 0.07919 0.0
C484 C 0.53614 0.25224 0.075 0.0
C485 C 0.56746 0.24964 0.08194 0.0
C486 C 0.54956 0.25722 0.09106 0.0
C487 C 0.50796 0.26377 0.08924 0.0
N488 N 0.41797 0.26505 0.08485 0.0
C489 C 0.43258 0.26791 0.09442 0.0
C490 C 0.40071 0.26332 0.10133 0.0
C491 C 0.36543 0.25715 0.09593 0.0
C492 C 0.37742 0.25814 0.08606 0.0
N493 N 0.39428 0.27178 0.06405 0.0
C494 C 0.35654 0.26345 0.06756 0.0
C495 C 0.32541 0.2714 0.06093 0.0
C496 C 0.34468 0.28578 0.05273 0.0
C497 C 0.38682 0.28549 0.05477 0.0
N498 N 0.4451 0.21458 0.07059 0.0
C499 C 0.4672 0.14232 0.06944 0.0
C500 C 0.46291 0.15959 0.07868 0.0
C501 C 0.45208 0.19513 0.0791 0.0
C502 C 0.45603 0.16134 0.06077 0.0
C503 C 0.44478 0.19733 0.06151 0.0
N504 N 0.4519 0.31836 0.07283 0.0
C505 C 0.42593 0.37574 0.07745 0.0
C506 C 0.46508 0.39061 0.07576 0.0
C507 C 0.49675 0.36892 0.07231 0.0
C508 C 0.48958 0.33325 0.07087 0.0
C509 C 0.41995 0.33938 0.07594 0.0
H510 H 0.51526 0.31762 0.06838 0.0
H511 H 0.38996 0.32815 0.07747 0.0
H512 H 0.4526 0.20716 0.08639 0.0
H513 H 0.43832 0.21162 0.05467 0.0
C514 C 0.54057 0.2507 0.06447 0.0
C515 C 0.41911 0.29791 0.04779 0.0
C516 C 0.47671 0.26911 0.09729 0.0
C517 C 0.35089 0.25651 0.07778 0.0
H518 H 0.49007 0.29189 0.03463 0.0
H519 H 0.55587 0.2626 0.04337 0.0
H520 H 0.59971 0.24377 0.08053 0.0
H521 H 0.56531 0.25742 0.09823 0.0
H522 H 0.40273 0.263 0.10944 0.0
H523 H 0.33466 0.25271 0.09887 0.0
H524 H 0.29241 0.26941 0.06218 0.0
H525 H 0.32896 0.29606 0.0462 0.0
H526 H 0.4701 0.14613 0.08565 0.0
H527 H 0.45833 0.14922 0.05342 0.0
H528 H 0.40064 0.39179 0.08018 0.0
H529 H 0.52739 0.37939 0.07093 0.0
C530 C 0.66905 0.94812 0.32167 0.0
C531 C 0.65076 0.91615 0.32395 0.0
C532 C 0.67798 0.89046 0.32094 0.0
C533 C 0.71127 0.90805 0.31696 0.0
N534 N 0.70672 0.94314 0.31739 0.0
Co535 Co 0.74648 0.97784 0.31197 0.0
N536 N 0.79241 0.94313 0.31145 0.0
C537 C 0.78793 0.90805 0.31172 0.0
C538 C 0.82519 0.89065 0.31124 0.0
C539 C 0.85484 0.91647 0.31062 0.0
C540 C 0.83406 0.94832 0.31076 0.0
N541 N 0.78621 1.01261 0.30642 0.0
C542 C 0.82818 1.01232 0.30628 0.0
C543 C 0.8435 0.04295 0.30199 0.0
C544 C 0.81006 0.06261 0.29919 0.0
C545 C 0.77624 0.04328 0.30199 0.0
N546 N 0.70176 1.01347 0.31258 0.0
C547 C 0.70131 0.04462 0.30779 0.0
C548 C 0.66775 0.06493 0.31021 0.0
C549 C 0.64539 0.04518 0.31684 0.0
C550 C 0.66633 1.01346 0.31797 0.0
N551 N 0.76225 0.99002 0.32598 0.0
C552 C 0.76665 1.00445 0.34692 0.0
C553 C 0.76376 0.03168 0.33976 0.0
C554 C 0.7617 0.02396 0.32938 0.0
C555 C 0.76974 0.97008 0.3432 0.0
C556 C 0.76779 0.96352 0.33282 0.0
N557 N 0.7282 0.96389 0.29812 0.0
C558 C 0.67072 0.94866 0.28715 0.0
C559 C 0.6971 0.93459 0.27983 0.0
C560 C 0.73992 0.9362 0.28182 0.0
C561 C 0.75481 0.95137 0.29091 0.0
C562 C 0.68654 0.96262 0.29613 0.0
H563 H 0.78781 0.95223 0.29216 0.0
H564 H 0.66432 0.97129 0.30161 0.0
H565 H 0.75787 0.04537 0.32415 0.0
H566 H 0.76894 0.93658 0.3304 0.0
C567 C 0.74927 0.89317 0.31403 0.0
C568 C 0.64855 0.98241 0.32291 0.0
C569 C 0.8544 0.98282 0.30952 0.0
C570 C 0.73609 0.05644 0.30263 0.0
H571 H 0.62076 0.9119 0.32735 0.0
H572 H 0.67431 0.86237 0.32178 0.0
H573 H 0.83037 0.86262 0.31168 0.0
H574 H 0.8879 0.91238 0.31008 0.0
H575 H 0.87549 0.05056 0.30103 0.0
H576 H 0.81043 0.08881 0.29603 0.0
H577 H 0.66113 0.09145 0.30776 0.0
H578 H 0.61644 0.05302 0.32026 0.0
H579 H 0.76146 0.05878 0.34215 0.0
H580 H 0.77324 0.94808 0.34828 0.0
H581 H 0.6375 0.9481 0.28608 0.0
H582 H 0.76179 0.92617 0.27636 0.0
C583 C 0.04615 0.24289 0.54992 0.0
C584 C 0.01536 0.24427 0.54268 0.0
C585 C 0.98201 0.26097 0.54703 0.0
C586 C 0.99417 0.26902 0.55667 0.0
N587 N 0.03301 0.25836 0.55861 0.0
Co588 Co 0.06179 0.2635 0.57172 0.0
N589 N 0.0095 0.27039 0.5793 0.0
C590 C 0.97324 0.28002 0.57516 0.0
C591 C 0.94246 0.28402 0.5822 0.0
C592 C 0.96072 0.27683 0.59132 0.0
C593 C 1.00177 0.26869 0.58937 0.0
N594 N 0.09141 0.26802 0.58478 0.0
C595 C 0.07721 0.26579 0.59438 0.0
C596 C 0.1095 0.26945 0.60121 0.0
C597 C 0.14459 0.27531 0.5957 0.0
C598 C 0.13211 0.27447 0.58585 0.0
N599 N 0.11428 0.25688 0.56409 0.0
C600 C 0.15228 0.26533 0.56743 0.0
C601 C 0.18305 0.25622 0.56083 0.0
C602 C 0.16329 0.24103 0.55283 0.0
C603 C 0.12121 0.24205 0.55493 0.0
N604 N 0.06446 0.31534 0.56979 0.0
C605 C 0.04779 0.38787 0.56654 0.0
C606 C 0.04727 0.37327 0.57623 0.0
C607 C 0.05557 0.33734 0.57768 0.0
C608 C 0.05998 0.36552 0.55861 0.0
C609 C 0.06857 0.3297 0.5604 0.0
N610 N 0.05655 0.21238 0.57367 0.0
C611 C 0.08272 0.15521 0.57845 0.0
C612 C 0.04334 0.14035 0.57706 0.0
C613 C 0.01134 0.162 0.57377 0.0
C614 C 0.01854 0.19753 0.57208 0.0
C615 C 0.08867 0.19148 0.57673 0.0
H616 H 0.99274 0.21307 0.5696 0.0
H617 H 0.1189 0.20269 0.578 0.0
H618 H 0.0523 0.3271 0.58518 0.0
H619 H 0.07653 0.31324 0.55407 0.0
C620 C 0.96825 0.27987 0.56462 0.0
C621 C 0.08854 0.22942 0.54807 0.0
C622 C 0.0333 0.26301 0.59727 0.0
C623 C 0.15842 0.27407 0.57752 0.0
H624 H 0.01695 0.23435 0.53506 0.0
H625 H 0.9519 0.26523 0.54368 0.0
H626 H 0.91034 0.29053 0.58086 0.0
H627 H 0.94575 0.27804 0.59859 0.0
H628 H 0.10815 0.26818 0.60932 0.0
H629 H 0.17575 0.27848 0.59855 0.0
H630 H 0.21612 0.25816 0.56198 0.0
H631 H 0.17864 0.22984 0.54637 0.0
H632 H 0.03814 0.389 0.58264 0.0
H633 H 0.06196 0.37542 0.551 0.0
H634 H 0.10827 0.13921 0.58105 0.0
H635 H 0.98053 0.15155 0.57261 0.0
C636 C 0.83746 0.9482 0.44728 0.0
C637 C 0.8566 0.91663 0.44491 0.0
C638 C 0.82979 0.89036 0.44771 0.0
C639 C 0.79587 0.90722 0.45166 0.0
N640 N 0.7997 0.94239 0.45141 0.0
Co641 Co 0.75891 0.97618 0.45683 0.0
N642 N 0.71374 0.94099 0.45686 0.0
C643 C 0.71866 0.90599 0.45642 0.0
C644 C 0.68143 0.88852 0.45612 0.0
C645 C 0.65144 0.91425 0.45638 0.0
C646 C 0.67203 0.94609 0.4568 0.0
N647 N 0.71808 1.0099 0.46246 0.0
C648 C 0.67614 1.00914 0.46226 0.0
C649 C 0.6597 0.03875 0.46688 0.0
C650 C 0.6925 0.05833 0.47017 0.0
C651 C 0.72706 0.03991 0.46733 0.0
N652 N 0.80283 1.0124 0.45669 0.0
C653 C 0.80231 0.04301 0.46176 0.0
C654 C 0.83573 0.06389 0.45967 0.0
C655 C 0.85898 0.04505 0.45298 0.0
C656 C 0.83867 1.01326 0.45147 0.0
N657 N 0.74403 0.98917 0.44283 0.0
C658 C 0.74313 1.00476 0.4219 0.0
C659 C 0.74382 0.03158 0.42925 0.0
C660 C 0.74422 0.02329 0.43961 0.0
C661 C 0.73986 0.97015 0.42546 0.0
C662 C 0.73994 0.96305 0.43581 0.0
N663 N 0.77644 0.96148 0.47067 0.0
C664 C 0.83347 0.947 0.48186 0.0
C665 C 0.80691 0.93271 0.48909 0.0
C666 C 0.76419 0.93357 0.48691 0.0
C667 C 0.74959 0.94844 0.47775 0.0
C668 C 0.81798 0.96069 0.47282 0.0
H669 H 0.71668 0.94878 0.47634 0.0
H670 H 0.8404 0.96968 0.46745 0.0
H671 H 0.74658 0.04442 0.44499 0.0
H672 H 0.73922 0.93595 0.43808 0.0
C673 C 0.75787 0.89164 0.4543 0.0
C674 C 0.8572 0.9829 0.4463 0.0
C675 C 0.65147 0.98054 0.45792 0.0
C676 C 0.76699 0.05374 0.46696 0.0
H677 H 0.88688 0.91301 0.4416 0.0
H678 H 0.83413 0.86239 0.44673 0.0
H679 H 0.67656 0.86055 0.45532 0.0
H680 H 0.61831 0.91015 0.45628 0.0
H681 H 0.62756 0.04609 0.46766 0.0
H682 H 0.69125 0.08407 0.47362 0.0
H683 H 0.84176 0.09018 0.4624 0.0
H684 H 0.88808 0.05352 0.44978 0.0
H685 H 0.74495 0.05892 0.42707 0.0
H686 H 0.7394 0.94814 0.42032 0.0
H687 H 0.86662 0.94693 0.48307 0.0
H688 H 0.74218 0.92326 0.49229 0.0
C689 C 0.04569 0.28399 0.71936 0.0
C690 C 0.01509 0.28317 0.72664 0.0
C691 C 0.98087 0.26802 0.72225 0.0
C692 C 0.99237 0.26027 0.71253 0.0
N693 N 0.03168 0.2695 0.71061 0.0
Co694 Co 0.05965 0.26556 0.69737 0.0
N695 N 0.0068 0.26183 0.68981 0.0
C696 C 0.97011 0.25353 0.69398 0.0
C697 C 0.93876 0.25185 0.68703 0.0
C698 C 0.95701 0.25894 0.67792 0.0
C699 C 0.99882 0.26432 0.67977 0.0
N700 N 0.08875 0.26268 0.68419 0.0
C701 C 0.07434 0.26607 0.67462 0.0
C702 C 0.10601 0.26048 0.66772 0.0
C703 C 0.14097 0.2531 0.67313 0.0
C704 C 0.12898 0.25442 0.683 0.0
N705 N 0.11253 0.26889 0.70499 0.0
C706 C 0.14993 0.2593 0.70152 0.0
C707 C 0.18129 0.26663 0.70815 0.0
C708 C 0.16252 0.28195 0.71628 0.0
C709 C 0.12041 0.28281 0.71423 0.0
N710 N 0.05969 0.21321 0.69845 0.0
C711 C 0.03693 0.14116 0.69966 0.0
C712 C 0.04056 0.15847 0.69041 0.0
C713 C 0.05173 0.19391 0.68996 0.0
C714 C 0.04881 0.16008 0.7083 0.0
C715 C 0.06031 0.19598 0.70752 0.0
N716 N 0.05699 0.31704 0.69619 0.0
C717 C 0.08634 0.37347 0.692 0.0
C718 C 0.04832 0.39033 0.69394 0.0
C719 C 0.01523 0.36949 0.69712 0.0
C720 C 0.02016 0.33335 0.69818 0.0
C721 C 0.09006 0.33683 0.6932 0.0
H722 H 0.99355 0.31858 0.70051 0.0
H723 H 0.11942 0.32446 0.69163 0.0
H724 H 0.05092 0.206 0.68268 0.0
H725 H 0.06739 0.21022 0.71433 0.0
C726 C 0.96557 0.25214 0.70452 0.0
C727 C 0.08848 0.29654 0.72113 0.0
C728 C 0.03031 0.26885 0.67174 0.0
C729 C 0.15537 0.25201 0.69131 0.0
H730 H 0.01728 0.29273 0.73429 0.0
H731 H 0.95055 0.26494 0.72558 0.0
H732 H 0.9063 0.24691 0.68843 0.0
H733 H 0.94135 0.25961 0.67074 0.0
H734 H 0.10398 0.26038 0.6596 0.0
H735 H 0.17156 0.2477 0.6702 0.0
H736 H 0.21421 0.26369 0.70691 0.0
H737 H 0.17858 0.29208 0.72278 0.0
H738 H 0.03272 0.1451 0.68347 0.0
H739 H 0.04696 0.14793 0.71564 0.0
H740 H 0.11303 0.38841 0.68959 0.0
H741 H 0.98502 0.38079 0.69852 0.0
C742 C 0.67015 0.58152 0.94727 0.0
C743 C 0.65088 0.613 0.94487 0.0
C744 C 0.67764 0.63939 0.94762 0.0
C745 C 0.71168 0.62268 0.95156 0.0
N746 N 0.70797 0.58749 0.95136 0.0
Co747 Co 0.74894 0.55392 0.95682 0.0
N748 N 0.79401 0.58922 0.95678 0.0
C749 C 0.78895 0.6242 0.95629 0.0
C750 C 0.82612 0.64177 0.95595 0.0
C751 C 0.85621 0.61612 0.95624 0.0
C752 C 0.83574 0.58423 0.95671 0.0
N753 N 0.78996 0.52041 0.96247 0.0
C754 C 0.8319 0.52127 0.96226 0.0
C755 C 0.84848 0.49177 0.96691 0.0
C756 C 0.81576 0.47217 0.97023 0.0
C757 C 0.78113 0.49045 0.96738 0.0
N758 N 0.70515 0.51758 0.95673 0.0
C759 C 0.70585 0.48703 0.96183 0.0
C760 C 0.67253 0.466 0.95978 0.0
C761 C 0.64913 0.48467 0.95307 0.0
C762 C 0.66925 0.51652 0.95153 0.0
N763 N 0.76376 0.54075 0.94283 0.0
C764 C 0.76463 0.52496 0.92191 0.0
C765 C 0.76399 0.49821 0.92927 0.0
C766 C 0.76361 0.5066 0.93963 0.0
C767 C 0.76784 0.55961 0.92544 0.0
C768 C 0.76777 0.5668 0.93579 0.0
N769 N 0.73148 0.56885 0.97064 0.0
C770 C 0.67447 0.58354 0.9818 0.0
C771 C 0.70101 0.59831 0.98897 0.0
C772 C 0.74371 0.59751 0.98678 0.0
C773 C 0.75831 0.58229 0.97767 0.0
C774 C 0.68996 0.56953 0.97281 0.0
H775 H 0.79121 0.58204 0.97624 0.0
H776 H 0.66753 0.56023 0.96747 0.0
H777 H 0.76131 0.48552 0.94502 0.0
H778 H 0.76844 0.59393 0.93803 0.0
C779 C 0.74966 0.6384 0.95416 0.0
C780 C 0.6505 0.54675 0.94635 0.0
C781 C 0.85646 0.54986 0.95788 0.0
C782 C 0.74126 0.4765 0.96703 0.0
H783 H 0.62053 0.61649 0.94158 0.0
H784 H 0.6732 0.66733 0.9466 0.0
H785 H 0.83087 0.66973 0.95511 0.0
H786 H 0.88932 0.62031 0.95613 0.0
H787 H 0.88064 0.48452 0.96769 0.0
H788 H 0.81713 0.44649 0.9737 0.0
H789 H 0.66666 0.43973 0.96252 0.0
H790 H 0.62006 0.47604 0.94989 0.0
H791 H 0.76289 0.47085 0.92711 0.0
H792 H 0.76822 0.58158 0.92029 0.0
H793 H 0.64133 0.58355 0.98302 0.0
H794 H 0.76571 0.60817 0.9921 0.0
C795 C 0.45962 0.24663 0.21926 0.0
C796 C 0.49047 0.24881 0.22647 0.0
C797 C 0.52372 0.26508 0.22196 0.0
C798 C 0.51144 0.27209 0.21225 0.0
N799 N 0.47259 0.26128 0.21045 0.0
Co800 Co 0.44383 0.26409 0.19729 0.0
N801 N 0.49611 0.26948 0.18961 0.0
C802 C 0.53233 0.27984 0.19363 0.0
C803 C 0.56301 0.28307 0.18654 0.0
C804 C 0.54474 0.27465 0.17751 0.0
C805 C 0.50376 0.26661 0.17957 0.0
N806 N 0.41407 0.26589 0.18418 0.0
C807 C 0.42826 0.26202 0.17462 0.0
C808 C 0.39594 0.26438 0.16776 0.0
C809 C 0.36081 0.27108 0.17318 0.0
C810 C 0.37333 0.27206 0.18303 0.0
N811 N 0.39144 0.25912 0.20503 0.0
C812 C 0.35342 0.26713 0.2016 0.0
C813 C 0.32273 0.25896 0.20832 0.0
C814 C 0.34255 0.24473 0.21646 0.0
C815 C 0.38461 0.24534 0.21433 0.0
N816 N 0.44149 0.3164 0.19834 0.0
C817 C 0.46324 0.38865 0.1995 0.0
C818 C 0.45901 0.37139 0.19025 0.0
C819 C 0.44831 0.33583 0.18983 0.0
C820 C 0.45216 0.36961 0.20817 0.0
C821 C 0.4411 0.33362 0.20742 0.0
N822 N 0.44898 0.21271 0.19612 0.0
C823 C 0.42326 0.15514 0.19167 0.0
C824 C 0.46274 0.14056 0.19316 0.0
C825 C 0.49446 0.16248 0.19644 0.0
C826 C 0.48699 0.19809 0.19791 0.0
C827 C 0.41701 0.19147 0.19319 0.0
H828 H 0.51267 0.21391 0.20028 0.0
H829 H 0.38677 0.2025 0.19179 0.0
H830 H 0.44882 0.32373 0.18254 0.0
H831 H 0.43477 0.31928 0.21426 0.0
C832 C 0.53735 0.28151 0.20417 0.0
C833 C 0.41741 0.23297 0.2212 0.0
C834 C 0.47223 0.25983 0.17173 0.0
C835 C 0.34714 0.27366 0.19138 0.0
H836 H 0.48903 0.23956 0.23416 0.0
H837 H 0.55392 0.26955 0.22523 0.0
H838 H 0.59506 0.29001 0.18779 0.0
H839 H 0.55962 0.27505 0.17022 0.0
H840 H 0.39744 0.26202 0.15966 0.0
H841 H 0.32966 0.27387 0.1703 0.0
H842 H 0.28964 0.26058 0.20714 0.0
H843 H 0.32722 0.23425 0.22301 0.0
H844 H 0.46616 0.38488 0.18329 0.0
H845 H 0.45443 0.38172 0.21552 0.0
H846 H 0.39791 0.1389 0.1891 0.0
H847 H 0.52533 0.15222 0.19768 0.0
H848 H 0.91642 0.99355 0.32373 0.0
H849 H 0.89569 0.98171 0.29173 0.0
H850 H 0.96746 1.00088 0.28838 0.0
H851 H 0.98082 0.06849 0.32299 0.0
H852 H 0.01655 0.05443 0.33259 0.0
H853 H 0.96397 0.03876 0.33271 0.0
H854 H 0.98961 0.97438 0.33252 0.0
H855 H 0.04228 0.98985 0.33267 0.0
H856 H 0.02529 0.96038 0.3229 0.0
H857 H 0.03844 0.0284 0.28836 0.0
H858 H 0.11023 0.04764 0.29168 0.0
H859 H 0.08996 0.03558 0.32368 0.0
C860 C 0.9275 0.99407 0.31605 0.0
C861 C 0.9004 0.98611 0.30796 0.0
C862 C 0.91594 0.98742 0.29801 0.0
C863 C 0.95654 0.99869 0.29604 0.0
C864 C 0.98196 1.0078 0.30411 0.0
C865 C 0.96865 1.00438 0.31394 0.0
C866 C 1.00322 0.01451 0.3212 0.0
C867 C 0.99035 0.04591 0.32776 0.0
C868 C 0.01585 0.9829 0.32771 0.0
C869 C 0.03765 0.02468 0.31392 0.0
C870 C 0.0242 0.02132 0.3041 0.0
C871 C 0.04947 0.03053 0.29602 0.0
C872 C 0.09008 0.04186 0.29797 0.0
C873 C 0.10576 0.04313 0.30791 0.0
C874 C 0.07879 0.03508 0.31601 0.0
H875 H 0.01045 0.59466 0.57788 0.0
H876 H 0.93061 0.59664 0.55156 0.0
H877 H 0.94658 0.53452 0.54845 0.0
H878 H 0.08753 0.5355 0.56833 0.0
H879 H 0.0943 0.51235 0.58004 0.0
H880 H 0.07808 0.55763 0.58009 0.0
H881 H 0.01359 0.54119 0.5906 0.0
H882 H 0.02971 0.49589 0.59062 0.0
H883 H 0.97902 0.50761 0.58606 0.0
H884 H 0.97178 0.4711 0.54797 0.0
H885 H 1.00002 0.41176 0.55086 0.0
H886 H 0.06027 0.4487 0.57803 0.0
C887 C 0.99571 0.58228 0.5715 0.0
C888 C 0.96934 0.60179 0.56493 0.0
C889 C 0.95172 0.58354 0.55663 0.0
C890 C 0.96036 0.54778 0.55482 0.0
C891 C 0.98645 0.52973 0.5614 0.0
C892 C 1.00352 0.54628 0.56964 0.0
C893 C 0.02961 0.52045 0.57573 0.0
C894 C 0.07508 0.53219 0.57606 0.0
C895 C 0.01192 0.51603 0.58638 0.0
C896 C 0.02465 0.48685 0.5696 0.0
C897 C 0.99987 0.49294 0.56131 0.0
C898 C 0.99118 0.46617 0.55446 0.0
C899 C 0.00775 0.43241 0.55613 0.0
C900 C 0.03278 0.42502 0.56465 0.0
C901 C 0.04119 0.45302 0.57146 0.0
H902 H 0.59093 0.53624 0.82369 0.0
H903 H 0.61189 0.54614 0.79165 0.0
H904 H 0.5402 0.52663 0.78835 0.0
H905 H 0.52662 0.46119 0.8233 0.0
H906 H 0.49077 0.47586 0.8328 0.0
H907 H 0.54334 0.49157 0.83287 0.0
H908 H 0.51763 0.55591 0.83233 0.0
H909 H 0.46498 0.54041 0.83252 0.0
H910 H 0.48203 0.56924 0.82261 0.0
H911 H 0.46928 0.49901 0.78842 0.0
H912 H 0.39745 0.48001 0.79179 0.0
H913 H 0.41742 0.49412 0.82374 0.0
C914 C 0.57992 0.5352 0.81601 0.0
C915 C 0.60708 0.54267 0.8079 0.0
C916 C 0.59161 0.54076 0.79795 0.0
C917 C 0.55106 0.52929 0.79601 0.0
C918 C 0.5256 0.52064 0.80411 0.0
C919 C 0.53881 0.5247 0.81393 0.0
C920 C 0.50418 0.51503 0.82122 0.0
C921 C 0.51701 0.48407 0.82795 0.0
C922 C 0.49145 0.54706 0.82754 0.0
C923 C 0.46984 0.50435 0.81396 0.0
C924 C 0.48338 0.50708 0.80414 0.0
C925 C 0.45818 0.49735 0.79608 0.0
C926 C 0.41756 0.48616 0.79806 0.0
C927 C 0.40179 0.48551 0.808 0.0
C928 C 0.42868 0.4941 0.81607 0.0
H929 H 0.44445 0.08038 0.05905 0.0
H930 H 0.53706 0.12289 0.0793 0.0
H931 H 0.56998 0.06489 0.08049 0.0
H932 H 0.434 0.9971 0.07141 0.0
H933 H 0.42861 0.97146 0.06009 0.0
H934 H 0.41285 0.01684 0.0602 0.0
H935 H 0.46104 0.02949 0.04511 0.0
H936 H 0.47694 0.9841 0.04495 0.0
H937 H 0.51515 0.01836 0.04597 0.0
H938 H 0.59123 1.00214 0.08057 0.0
H939 H 0.60012 0.93798 0.07924 0.0
H940 H 0.49624 0.93275 0.05867 0.0
C941 C 0.47198 0.07752 0.06361 0.0
C942 C 0.48776 0.10661 0.06916 0.0
C943 C 0.52377 0.10131 0.07509 0.0
C944 C 0.54296 0.06833 0.07579 0.0
C945 C 0.52631 0.04021 0.07046 0.0
C946 C 0.49179 0.04427 0.06443 0.0
C947 C 0.47997 1.00889 0.05978 0.0
C948 C 0.43626 0.99793 0.06307 0.0
C949 C 0.48348 1.01031 0.04827 0.0
C950 C 0.51282 0.98452 0.06427 0.0
C951 C 0.53921 1.00345 0.07038 0.0
C952 C 0.57101 0.98712 0.07572 0.0
C953 C 0.57585 0.95056 0.07492 0.0
C954 C 0.54935 0.93013 0.06878 0.0
C955 C 0.51757 0.9476 0.06328 0.0
H956 H 0.08924 0.49157 0.97149 0.0
H957 H 0.1144 0.48586 0.93957 0.0
H958 H 0.04227 0.50458 0.93596 0.0
H959 H 0.98116 0.46244 0.97057 0.0
H960 H 0.96505 0.49247 0.98029 0.0
H961 H 0.01724 0.47584 0.98017 0.0
H962 H 0.04499 0.53962 0.9802 0.0
H963 H 0.99288 0.55644 0.98015 0.0
H964 H 0.02873 0.56956 0.97048 0.0
H965 H 0.96671 0.52648 0.93596 0.0
H966 H 0.8946 0.54518 0.93959 0.0
H967 H 0.92035 0.54055 0.9715 0.0
C968 C 0.07927 0.49371 0.96374 0.0
C969 C 0.10746 0.48714 0.95579 0.0
C970 C 0.0933 0.49045 0.94576 0.0
C971 C 0.05244 0.50137 0.94366 0.0
C972 C 0.0259 0.50907 0.95167 0.0
C973 C 0.03875 0.50508 0.96152 0.0
C974 C 0.00475 0.51604 0.96879 0.0
C975 C 0.99126 0.48484 0.97534 0.0
C976 C 0.01868 0.54727 0.97529 0.0
C977 C 0.97068 0.5268 0.96152 0.0
C978 C 0.98337 0.52252 0.95167 0.0
C979 C 0.95667 0.52993 0.94366 0.0
C980 C 0.91583 0.54085 0.94578 0.0
C981 C 0.90183 0.54445 0.95581 0.0
C982 C 0.93019 0.53821 0.96375 0.0
H983 H 0.44024 0.45046 0.20992 0.0
H984 H 0.53313 0.40816 0.1897 0.0
H985 H 0.56617 0.4661 0.18866 0.0
H986 H 0.43014 0.53405 0.19766 0.0
H987 H 0.42447 0.55945 0.20901 0.0
H988 H 0.40867 0.51411 0.20879 0.0
H989 H 0.45643 0.50104 0.22394 0.0
H990 H 0.4724 0.54638 0.2242 0.0
H991 H 0.51057 0.51203 0.2232 0.0
H992 H 0.58769 0.52874 0.18878 0.0
H993 H 0.59656 0.59286 0.19021 0.0
H994 H 0.49199 0.59799 0.21057 0.0
C995 C 0.46784 0.45336 0.20539 0.0
C996 C 0.4837 0.42435 0.19981 0.0
C997 C 0.51979 0.42969 0.19392 0.0
C998 C 0.53905 0.46263 0.19332 0.0
C999 C 0.52236 0.49067 0.19868 0.0
C1000 C 0.48769 0.48658 0.20465 0.0
C1001 C 0.47578 0.52189 0.20934 0.0
C1002 C 0.43217 0.53303 0.206 0.0
C1003 C 0.47898 0.52023 0.22086 0.0
C1004 C 0.50878 0.54627 0.20495 0.0
C1005 C 0.53533 0.52738 0.19886 0.0
C1006 C 0.56733 0.54372 0.19361 0.0
C1007 C 0.57218 0.58026 0.19448 0.0
C1008 C 0.54545 0.60064 0.20058 0.0
C1009 C 0.5135 0.58317 0.206 0.0
H1010 H 0.41868 0.03876 0.47148 0.0
H1011 H 0.39339 0.04386 0.43955 0.0
H1012 H 0.46559 0.02534 0.43596 0.0
H1013 H 0.5267 0.06819 0.47052 0.0
H1014 H 0.54293 0.03836 0.48027 0.0
H1015 H 0.49068 0.05487 0.48014 0.0
H1016 H 0.46312 0.99104 0.48025 0.0
H1017 H 0.51528 0.97433 0.48021 0.0
H1018 H 0.47943 0.96098 0.47055 0.0
H1019 H 0.54117 1.00359 0.43598 0.0
H1020 H 0.61331 0.98498 0.43963 0.0
H1021 H 0.58768 0.99015 0.47154 0.0
C1022 C 0.42865 0.03654 0.46373 0.0
C1023 C 0.40041 0.04287 0.45577 0.0
C1024 C 0.41454 0.03946 0.44575 0.0
C1025 C 0.45543 0.02864 0.44365 0.0
C1026 C 0.48203 0.02117 0.45167 0.0
C1027 C 0.46921 0.02528 0.46152 0.0
C1028 C 0.50325 0.01451 0.4688 0.0
C1029 C 0.51668 0.04585 0.47532 0.0
C1030 C 0.48943 0.98336 0.47534 0.0
C1031 C 0.53732 1.00371 0.46155 0.0
C1032 C 0.52459 1.00781 0.45169 0.0
C1033 C 0.55125 1.00029 0.44369 0.0
C1034 C 0.5921 0.98943 0.44581 0.0
C1035 C 0.60613 0.986 0.45584 0.0
C1036 C 0.57781 0.99237 0.46378 0.0
H1037 H 0.06078 0.07905 0.7098 0.0
H1038 H 0.96613 0.12199 0.69018 0.0
H1039 H 0.93321 0.06401 0.68907 0.0
H1040 H 0.07022 0.9961 0.69721 0.0
H1041 H 0.07683 0.97019 0.70844 0.0
H1042 H 0.09243 0.01559 0.70832 0.0
H1043 H 0.04576 0.02784 0.72373 0.0
H1044 H 0.03002 0.98244 0.72389 0.0
H1045 H 0.99162 0.0167 0.72318 0.0
H1046 H 0.91215 1.00121 0.68898 0.0
H1047 H 0.90366 0.93699 0.69023 0.0
H1048 H 0.00952 0.93142 0.71019 0.0
C1049 C 0.0328 0.07629 0.7054 0.0
C1050 C 0.0164 0.10549 0.70001 0.0
C1051 C 0.97985 0.10032 0.69427 0.0
C1052 C 0.96067 0.06735 0.69362 0.0
C1053 C 0.97791 0.03912 0.6988 0.0
C1054 C 0.013 0.04305 0.70463 0.0
C1055 C 0.0254 1.00758 0.70913 0.0
C1056 C 0.0688 0.99673 0.70556 0.0
C1057 C 0.02306 1.00872 0.72067 0.0
C1058 C 0.99219 0.98329 0.70479 0.0
C1059 C 0.96513 1.00235 0.69887 0.0
C1060 C 0.93289 0.9861 0.69368 0.0
C1061 C 0.92827 0.94951 0.69444 0.0
C1062 C 0.95543 0.92898 0.70039 0.0
C1063 C 0.98767 0.94635 0.70573 0.0
H1064 H 0.58481 0.98746 0.30988 0.0
H1065 H 0.61311 0.98526 0.34167 0.0
H1066 H 0.54107 1.00401 0.34553 0.0
H1067 H 0.53147 0.06666 0.31097 0.0
H1068 H 0.49423 0.0558 0.30137 0.0
H1069 H 0.54477 0.03588 0.30119 0.0
H1070 H 0.51232 0.9736 0.30137 0.0
H1071 H 0.46167 0.99331 0.30115 0.0
H1072 H 0.47499 0.9626 0.31094 0.0
H1073 H 0.46471 0.02467 0.34553 0.0
H1074 H 0.39274 0.04359 0.34164 0.0
H1075 H 0.42147 0.04219 0.30987 0.0
C1076 C 0.57522 0.98967 0.31766 0.0
C1077 C 0.60387 0.98432 0.32551 0.0
C1078 C 0.59109 0.98859 0.3356 0.0
C1079 C 0.55048 0.99961 0.33783 0.0
C1080 C 0.52363 1.00687 0.32985 0.0
C1081 C 0.53567 1.00197 0.31997 0.0
C1082 C 0.50305 0.0147 0.31269 0.0
C1083 C 0.51937 0.04506 0.30617 0.0
C1084 C 0.48706 0.98424 0.30616 0.0
C1085 C 0.47041 0.02732 0.31997 0.0
C1086 C 0.48232 0.02217 0.32985 0.0
C1087 C 0.4554 0.02927 0.33782 0.0
C1088 C 0.41483 0.0404 0.33558 0.0
C1089 C 0.4022 0.04496 0.32549 0.0
C1090 C 0.43095 0.03979 0.31766 0.0
H1091 H 0.00875 0.93651 0.56499 0.0
H1092 H 0.93215 0.93151 0.59175 0.0
H1093 H 0.94757 0.99389 0.59523 0.0
H1094 H 0.08815 0.99183 0.5754 0.0
H1095 H 0.09612 0.01623 0.56395 0.0
H1096 H 0.07842 0.97142 0.5634 0.0
H1097 H 0.01471 0.99068 0.55295 0.0
H1098 H 0.03247 0.03545 0.55337 0.0
H1099 H 0.98123 0.02469 0.55773 0.0
H1100 H 0.97203 0.05704 0.59591 0.0
H1101 H 0.99959 0.11685 0.59306 0.0
H1102 H 0.06181 0.0808 0.56613 0.0
C1103 C 0.99528 0.94839 0.57162 0.0
C1104 C 0.9692 0.92875 0.57811 0.0
C1105 C 0.95175 0.94582 0.58659 0.0
C1106 C 0.96069 0.98125 0.58868 0.0
C1107 C 0.98717 0.99949 0.58224 0.0
C1108 C 1.00394 0.98371 0.57383 0.0
C1109 C 0.03103 1.00928 0.56803 0.0
C1110 C 0.07611 0.99641 0.56768 0.0
C1111 C 0.01382 0.01539 0.55739 0.0
C1112 C 0.02692 0.042 0.57449 0.0
C1113 C 1.00158 0.0357 0.58268 0.0
C1114 C 0.99213 0.06211 0.58957 0.0
C1115 C 0.00813 0.09593 0.58794 0.0
C1116 C 0.03357 0.10317 0.57952 0.0
C1117 C 0.0434 0.07571 0.57277 0.0
H1118 H 0.08554 0.48863 0.80966 0.0
H1119 H 0.11493 0.48662 0.84139 0.0
H1120 H 0.04308 0.50558 0.84539 0.0
H1121 H 0.03227 0.568 0.8108 0.0
H1122 H 0.99473 0.55704 0.80128 0.0
H1123 H 0.04528 0.53715 0.80102 0.0
H1124 H 0.01285 0.47485 0.80131 0.0
H1125 H 0.9622 0.49455 0.80117 0.0
H1126 H 0.97585 0.46392 0.81095 0.0
H1127 H 0.96671 0.52617 0.84552 0.0
H1128 H 0.89454 0.54483 0.84176 0.0
H1129 H 0.92223 0.54334 0.80994 0.0
C1130 C 0.07624 0.49097 0.81746 0.0
C1131 C 0.10513 0.4856 0.82525 0.0
C1132 C 0.09272 0.48999 0.83536 0.0
C1133 C 0.05223 0.50112 0.83767 0.0
C1134 C 0.02513 0.50837 0.82974 0.0
C1135 C 0.03682 0.50338 0.81983 0.0
C1136 C 1.00395 0.51605 0.81261 0.0
C1137 C 0.02003 0.54636 0.80605 0.0
C1138 C 0.98775 0.48553 0.80613 0.0
C1139 C 0.97156 0.52871 0.81995 0.0
C1140 C 0.98382 0.52365 0.82981 0.0
C1141 C 0.95713 0.53072 0.83783 0.0
C1142 C 0.91645 0.5417 0.83567 0.0
C1143 C 0.90346 0.54616 0.8256 0.0
C1144 C 0.93198 0.54105 0.81771 0.0
H1145 H 0.50219 0.59411 0.06369 0.0
H1146 H 0.57844 0.59839 0.09053 0.0
H1147 H 0.5622 0.53615 0.09399 0.0
H1148 H 0.42203 0.53942 0.07396 0.0
H1149 H 0.41403 0.51504 0.06251 0.0
H1150 H 0.43225 0.55969 0.06197 0.0
H1151 H 0.49599 0.53988 0.05161 0.0
H1152 H 0.47769 0.49526 0.05201 0.0
H1153 H 0.52895 0.50559 0.05644 0.0
H1154 H 0.53673 0.47342 0.09468 0.0
H1155 H 0.50846 0.41385 0.09182 0.0
H1156 H 0.44763 0.45017 0.06473 0.0
C1157 C 0.51545 0.58206 0.07032 0.0
C1158 C 0.54165 0.60145 0.07685 0.0
C1159 C 0.55877 0.58423 0.08534 0.0
C1160 C 0.54935 0.54891 0.08742 0.0
C1161 C 0.52277 0.53092 0.08095 0.0
C1162 C 0.50637 0.54682 0.07251 0.0
C1163 C 0.47911 0.52146 0.06667 0.0
C1164 C 0.43419 0.5347 0.06626 0.0
C1165 C 0.49648 0.51518 0.05606 0.0
C1166 C 0.48271 0.48873 0.07314 0.0
C1167 C 0.50789 0.49487 0.08137 0.0
C1168 C 0.51678 0.46846 0.0883 0.0
C1169 C 0.50037 0.4348 0.08667 0.0
C1170 C 0.47515 0.42771 0.0782 0.0
C1171 C 0.46589 0.45516 0.07141 0.0
H1172 H 0.4222 0.48843 0.95916 0.0
H1173 H 0.39439 0.48663 0.92735 0.0
H1174 H 0.46669 0.50474 0.92356 0.0
H1175 H 0.47738 0.56695 0.95823 0.0
H1176 H 0.51419 0.55519 0.96784 0.0
H1177 H 0.46318 0.53626 0.96794 0.0
H1178 H 0.49422 0.47342 0.96771 0.0
H1179 H 0.54534 0.49214 0.96796 0.0
H1180 H 0.53129 0.46183 0.95813 0.0
H1181 H 0.54321 0.52474 0.92364 0.0
H1182 H 0.61529 0.54314 0.92757 0.0
H1183 H 0.58657 0.5409 0.95934 0.0
C1184 C 0.43189 0.49073 0.95139 0.0
C1185 C 0.40332 0.48565 0.94351 0.0
C1186 C 0.4163 0.48985 0.93344 0.0
C1187 C 0.45708 0.50047 0.93126 0.0
C1188 C 0.48393 0.5073 0.93926 0.0
C1189 C 0.47168 0.50251 0.94913 0.0
C1190 C 0.50454 0.51449 0.95645 0.0
C1191 C 0.48888 0.54503 0.963 0.0
C1192 C 0.51975 0.48363 0.96294 0.0
C1193 C 0.53754 0.52659 0.9492 0.0
C1194 C 0.52557 0.52186 0.93931 0.0
C1195 C 0.5526 0.52893 0.93135 0.0
C1196 C 0.59324 0.53972 0.93362 0.0
C1197 C 0.60591 0.54389 0.94372 0.0
C1198 C 0.57715 0.5386 0.95155 0.0
H1199 H 0.49774 0.93668 0.20506 0.0
H1200 H 0.5763 0.93251 0.17861 0.0
H1201 H 0.56083 0.99493 0.1752 0.0
H1202 H 0.41882 0.99194 0.19436 0.0
H1203 H 0.40971 0.01606 0.20581 0.0
H1204 H 0.42768 0.9713 0.20637 0.0
H1205 H 0.49037 0.99054 0.21717 0.0
H1206 H 0.47233 0.03526 0.21675 0.0
H1207 H 0.524 0.02477 0.21263 0.0
H1208 H 0.53611 0.05788 0.17454 0.0
H1209 H 0.50791 0.11753 0.17736 0.0
H1210 H 0.44378 0.0808 0.20393 0.0
C1211 C 0.51164 0.94875 0.19851 0.0
C1212 C 0.5383 0.92935 0.19209 0.0
C1213 C 0.55627 0.94665 0.18373 0.0
C1214 C 0.5473 0.98209 0.18167 0.0
C1215 C 0.52025 1.00009 0.18803 0.0
C1216 C 0.50294 0.98408 0.19633 0.0
C1217 C 0.47519 1.00942 0.20205 0.0
C1218 C 0.43018 0.9964 0.20215 0.0
C1219 C 0.49146 0.01535 0.21279 0.0
C1220 C 0.47961 0.04228 0.19568 0.0
C1221 C 0.50564 0.03623 0.1876 0.0
C1222 C 0.51548 0.06278 0.1808 0.0
C1223 C 0.49913 0.09649 0.18241 0.0
C1224 C 0.47299 0.10348 0.19072 0.0
C1225 C 0.46277 0.07589 0.19737 0.0
H1226 H 0.92109 0.98824 0.45931 0.0
H1227 H 0.89242 0.98654 0.42753 0.0
H1228 H 0.96466 1.00455 0.42363 0.0
H1229 H 0.97658 0.06668 0.4583 0.0
H1230 H 0.01358 0.05475 0.46785 0.0
H1231 H 0.96247 0.03601 0.46803 0.0
H1232 H 0.99318 0.97306 0.46773 0.0
H1233 H 0.04441 0.99159 0.4679 0.0
H1234 H 0.02993 0.96135 0.45809 0.0
H1235 H 0.04126 0.02425 0.42359 0.0
H1236 H 0.11357 0.04231 0.42742 0.0
H1237 H 0.08565 0.04015 0.45923 0.0
C1238 C 0.93056 0.99057 0.45152 0.0
C1239 C 0.90179 0.98554 0.44368 0.0
C1240 C 0.9145 0.98975 0.43359 0.0
C1241 C 0.95523 1.0003 0.43134 0.0
C1242 C 0.98231 1.00706 0.43931 0.0
C1243 C 0.9703 1.00228 0.4492 0.0
C1244 C 1.00341 1.01412 0.45646 0.0
C1245 C 0.98808 0.04471 0.46305 0.0
C1246 C 0.01863 0.98318 0.46293 0.0
C1247 C 0.03626 0.02611 0.44917 0.0
C1248 C 0.02402 0.02146 0.43929 0.0
C1249 C 0.05087 0.0284 0.4313 0.0
C1250 C 0.09164 0.03898 0.4335 0.0
C1251 C 0.10458 0.04308 0.44359 0.0
C1252 C 0.07601 0.03791 0.45145 0.0
H1253 H 1.00136 0.4366 0.70524 0.0
H1254 H 0.07998 0.43174 0.67881 0.0
H1255 H 0.06478 0.49414 0.67531 0.0
H1256 H 0.92266 0.49165 0.69441 0.0
H1257 H 0.91345 0.51601 0.70581 0.0
H1258 H 0.93139 0.47126 0.70646 0.0
H1259 H 0.99398 0.49069 0.71727 0.0
H1260 H 0.97597 0.53541 0.71676 0.0
H1261 H 0.02767 0.52481 0.71268 0.0
H1262 H 0.04026 0.55717 0.67456 0.0
H1263 H 0.01203 0.61688 0.67727 0.0
H1264 H 0.94747 0.58063 0.70383 0.0
C1265 C 0.01535 0.44852 0.69868 0.0
C1266 C 0.04194 0.42892 0.69229 0.0
C1267 C 0.06002 0.44603 0.68391 0.0
C1268 C 0.0512 0.48146 0.6818 0.0
C1269 C 0.02417 0.49963 0.68813 0.0
C1270 C 0.00676 0.48381 0.69645 0.0
C1271 C 0.97896 0.50926 0.7021 0.0
C1272 C 0.93395 0.49626 0.7022 0.0
C1273 C 0.99512 0.51541 0.71284 0.0
C1274 C 0.98347 0.54198 0.69568 0.0
C1275 C 0.00961 0.53577 0.68763 0.0
C1276 C 0.01956 0.56219 0.68079 0.0
C1277 C 1.0032 0.59594 0.68234 0.0
C1278 C 0.97693 0.60307 0.69061 0.0
C1279 C 0.96659 0.57561 0.6973 0.0
H1280 H 0.2766 0.06352 0.36204 0.0
H1281 H 0.20384 0.96938 0.35713 0.0
H1282 H 0.2039 0.95802 0.37542 0.0
H1283 H 0.33978 0.02895 0.38226 0.0
H1284 H 0.34069 0.0697 0.38916 0.0
H1285 H 0.33544 0.07014 0.37567 0.0
H1286 H 0.26815 0.10663 0.37727 0.0
H1287 H 0.27322 0.10631 0.39076 0.0
H1288 H 0.22643 0.09042 0.38496 0.0
H1289 H 0.20971 0.95816 0.39464 0.0
H1290 H 0.2213 0.9691 0.41266 0.0
H1291 H 0.29283 0.06204 0.40516 0.0
C1292 C 0.26041 0.04057 0.36478 0.0
C1293 C 0.24012 0.0174 0.35798 0.0
C1294 C 0.22002 0.98743 0.36203 0.0
C1295 C 0.21971 0.98083 0.37247 0.0
C1296 C 0.23985 1.00424 0.37891 0.0
C1297 C 0.25998 0.03346 0.3752 0.0
C1298 C 0.27929 0.05454 0.38373 0.0
C1299 C 0.32661 0.0559 0.38264 0.0
C1300 C 0.26066 0.09167 0.38421 0.0
C1301 C 0.26663 0.03282 0.39284 0.0
C1302 C 0.24385 1.00393 0.38989 0.0
C1303 C 0.22792 0.98055 0.39698 0.0
C1304 C 0.23512 0.98689 0.40729 0.0
C1305 C 0.2584 0.01638 0.4106 0.0
C1306 C 0.27453 0.03938 0.40311 0.0
H1307 H 0.96219 0.81053 0.61299 0.0
H1308 H 0.01789 0.70958 0.60654 0.0
H1309 H 0.02854 0.6996 0.62475 0.0
H1310 H 0.02615 0.83343 0.63514 0.0
H1311 H 0.9832 0.85267 0.64181 0.0
H1312 H 0.98429 0.85352 0.62826 0.0
H1313 H 0.91279 0.82298 0.62775 0.0
H1314 H 0.91155 0.82189 0.64128 0.0
H1315 H 0.90584 0.78181 0.63421 0.0
H1316 H 0.02817 0.6986 0.64402 0.0
H1317 H 0.01539 0.70638 0.6623 0.0
H1318 H 0.95944 0.80762 0.6564 0.0
C1319 C 0.97772 0.78679 0.61542 0.0
C1320 C 0.99049 0.76135 0.60826 0.0
C1321 C 0.00918 0.73 0.6118 0.0
C1322 C 0.01503 0.72399 0.62217 0.0
C1323 C 1.00173 0.74941 0.62903 0.0
C1324 C 0.98346 0.78025 0.62578 0.0
C1325 C 0.96925 0.8022 0.63471 0.0
C1326 C 0.99209 0.83756 0.635 0.0
C1327 C 0.92206 0.80753 0.63447 0.0
C1328 C 0.98205 0.7789 0.64347 0.0
C1329 C 1.0009 0.74858 0.64005 0.0
C1330 C 0.01373 0.72241 0.64675 0.0
C1331 C 0.0065 0.72704 0.65713 0.0
C1332 C 0.98641 0.75748 0.6608 0.0
C1333 C 0.97495 0.78404 0.65384 0.0
H1334 H 0.29348 0.4674 0.86331 0.0
H1335 H 0.22161 0.56034 0.85587 0.0
H1336 H 0.21039 0.57136 0.87389 0.0
H1337 H 0.22764 0.43921 0.88353 0.0
H1338 H 0.26952 0.42289 0.89116 0.0
H1339 H 0.27437 0.42339 0.87767 0.0
H1340 H 0.34161 0.45988 0.87917 0.0
H1341 H 0.33698 0.45946 0.89267 0.0
H1342 H 0.34093 0.50064 0.88606 0.0
H1343 H 0.20508 0.57169 0.89312 0.0
H1344 H 0.20533 0.56037 0.91143 0.0
H1345 H 0.27822 0.4662 0.90645 0.0
C1346 C 0.27519 0.49008 0.86537 0.0
C1347 C 0.25891 0.51308 0.85789 0.0
C1348 C 0.23559 0.54257 0.86123 0.0
C1349 C 0.2286 0.54896 0.87154 0.0
C1350 C 0.24477 0.52564 0.87862 0.0
C1351 C 0.26753 0.49671 0.87566 0.0
C1352 C 0.28042 0.47506 0.88477 0.0
C1353 C 0.26188 0.43794 0.88425 0.0
C1354 C 0.3278 0.47369 0.88572 0.0
C1355 C 0.26127 0.49622 0.89331 0.0
C1356 C 0.24101 0.52543 0.88961 0.0
C1357 C 0.22098 0.54889 0.89607 0.0
C1358 C 0.22149 0.54232 0.90651 0.0
C1359 C 0.24167 0.51233 0.91055 0.0
C1360 C 0.26193 0.48916 0.90373 0.0
H1361 H 0.54791 0.80894 0.11249 0.0
H1362 H 0.49501 0.70643 0.10687 0.0
H1363 H 0.48249 0.69902 0.12517 0.0
H1364 H 0.60226 0.78493 0.13463 0.0
H1365 H 0.59428 0.82615 0.141 0.0
H1366 H 0.59515 0.82468 0.12747 0.0
H1367 H 0.52279 0.85385 0.12689 0.0
H1368 H 0.5217 0.8554 0.14044 0.0
H1369 H 0.48045 0.83413 0.13365 0.0
H1370 H 0.48194 0.70068 0.14442 0.0
H1371 H 0.49209 0.71149 0.16261 0.0
H1372 H 0.54488 0.81328 0.15592 0.0
C1373 C 0.53313 0.78515 0.11512 0.0
C1374 C 0.52248 0.75813 0.10823 0.0
C1375 C 0.5033 0.72743 0.11198 0.0
C1376 C 0.4962 0.72302 0.12238 0.0
C1377 C 0.50823 0.74966 0.129 0.0
C1378 C 0.52612 0.78025 0.1255 0.0
C1379 C 0.53826 0.80406 0.13422 0.0
C1380 C 0.58527 0.81032 0.13433 0.0
C1381 C 0.51437 0.83893 0.13377 0.0
C1382 C 0.52474 0.78209 0.1432 0.0
C1383 C 0.50739 0.75081 0.14002 0.0
C1384 C 0.49476 0.72539 0.14694 0.0
C1385 C 0.50032 0.73187 0.1573 0.0
C1386 C 0.51806 0.76368 0.16077 0.0
C1387 C 0.53013 0.78914 0.15355 0.0
H1388 H 0.77757 0.56425 0.86218 0.0
H1389 H 0.70489 0.47003 0.85731 0.0
H1390 H 0.70499 0.45877 0.87561 0.0
H1391 H 0.84084 0.52979 0.88239 0.0
H1392 H 0.84176 0.57057 0.88927 0.0
H1393 H 0.83645 0.57096 0.87579 0.0
H1394 H 0.76915 0.60742 0.87739 0.0
H1395 H 0.77427 0.60716 0.89088 0.0
H1396 H 0.72747 0.59122 0.8851 0.0
H1397 H 0.71087 0.459 0.89483 0.0
H1398 H 0.72251 0.47003 0.91284 0.0
H1399 H 0.79396 0.56295 0.90528 0.0
C1400 C 0.7614 0.54131 0.86492 0.0
C1401 C 0.74112 0.51808 0.85814 0.0
C1402 C 0.72106 0.48812 0.8622 0.0
C1403 C 0.72077 0.48157 0.87265 0.0
C1404 C 0.74091 0.50503 0.87907 0.0
C1405 C 0.76101 0.53425 0.87535 0.0
C1406 C 0.78034 0.55536 0.88387 0.0
C1407 C 0.82766 0.55674 0.88276 0.0
C1408 C 0.76169 0.59249 0.88433 0.0
C1409 C 0.76773 0.53367 0.89298 0.0
C1410 C 0.74496 0.50476 0.89006 0.0
C1411 C 0.72907 0.4814 0.89716 0.0
C1412 C 0.7363 0.48779 0.90746 0.0
C1413 C 0.75957 0.51731 0.91076 0.0
C1414 C 0.77567 0.54027 0.90325 0.0
H1415 H 0.45897 0.30872 0.15665 0.0
H1416 H 0.51055 0.20547 0.162 0.0
H1417 H 0.52272 0.19837 0.14367 0.0
H1418 H 0.40434 0.2863 0.13446 0.0
H1419 H 0.41308 0.32756 0.12818 0.0
H1420 H 0.4122 0.32573 0.14171 0.0
H1421 H 0.4851 0.35377 0.14236 0.0
H1422 H 0.48619 0.3557 0.12882 0.0
H1423 H 0.52706 0.33361 0.13554 0.0
H1424 H 0.52272 0.20039 0.12445 0.0
H1425 H 0.51245 0.21177 0.1063 0.0
H1426 H 0.46226 0.31441 0.11323 0.0
C1427 C 0.47348 0.28487 0.15395 0.0
C1428 C 0.48388 0.25756 0.16076 0.0
C1429 C 0.50254 0.22671 0.15694 0.0
C1430 C 0.50942 0.22247 0.14653 0.0
C1431 C 0.49776 0.24945 0.13998 0.0
C1432 C 0.4804 0.28019 0.14356 0.0
C1433 C 0.46869 0.30444 0.13491 0.0
C1434 C 0.4218 0.31141 0.13481 0.0
C1435 C 0.49323 0.33893 0.13544 0.0
C1436 C 0.48178 0.28253 0.12587 0.0
C1437 C 0.49852 0.25088 0.12896 0.0
C1438 C 0.51045 0.2254 0.12198 0.0
C1439 C 0.50482 0.2322 0.11165 0.0
C1440 C 0.48779 0.26442 0.10826 0.0
C1441 C 0.47647 0.28995 0.11555 0.0
H1442 H 0.72968 0.96541 0.36216 0.0
H1443 H 0.80256 0.05949 0.35728 0.0
H1444 H 0.80263 0.07075 0.37559 0.0
H1445 H 0.66667 0.99996 0.38241 0.0
H1446 H 0.66573 0.95918 0.38929 0.0
H1447 H 0.67091 0.95879 0.3758 0.0
H1448 H 0.73814 0.92221 0.37737 0.0
H1449 H 0.73315 0.92248 0.39086 0.0
H1450 H 0.77993 0.93834 0.38506 0.0
H1451 H 0.7969 0.07054 0.39481 0.0
H1452 H 0.78536 0.05957 0.41282 0.0
H1453 H 0.71368 0.96672 0.40529 0.0
C1454 C 0.74593 0.98832 0.36491 0.0
C1455 C 0.76621 1.01151 0.35812 0.0
C1456 C 0.78638 0.04143 0.36218 0.0
C1457 C 0.78677 0.04797 0.37262 0.0
C1458 C 0.76663 0.02455 0.37906 0.0
C1459 C 0.74642 0.99537 0.37533 0.0
C1460 C 0.72712 0.97429 0.38386 0.0
C1461 C 0.6798 0.97299 0.38277 0.0
C1462 C 0.7457 0.93713 0.38431 0.0
C1463 C 0.73987 0.99595 0.39297 0.0
C1464 C 0.76268 0.02482 0.39004 0.0
C1465 C 0.77867 0.04817 0.39714 0.0
C1466 C 0.7715 0.04181 0.40744 0.0
C1467 C 0.74818 1.01234 0.41075 0.0
C1468 C 0.732 0.98937 0.40325 0.0
H1469 H 0.04545 0.31461 0.65596 0.0
H1470 H 0.99339 0.2125 0.66256 0.0
H1471 H 0.98262 0.20207 0.64438 0.0
H1472 H 0.97981 0.33573 0.63395 0.0
H1473 H 0.02173 0.35598 0.62716 0.0
H1474 H 0.02119 0.35693 0.64071 0.0
H1475 H 0.09381 0.32819 0.64106 0.0
H1476 H 0.09452 0.32704 0.62752 0.0
H1477 H 0.10202 0.28717 0.63459 0.0
H1478 H 0.98248 0.20083 0.62514 0.0
H1479 H 0.99447 0.20863 0.60683 0.0
H1480 H 0.0467 0.31136 0.61253 0.0
C1481 C 0.03074 0.29049 0.65357 0.0
C1482 C 0.01908 0.2648 0.66076 0.0
C1483 C 1.00135 0.23302 0.65727 0.0
C1484 C 0.99539 0.22677 0.64692 0.0
C1485 C 0.00756 0.25243 0.64003 0.0
C1486 C 0.02485 0.28372 0.64322 0.0
C1487 C 0.03787 0.30595 0.63425 0.0
C1488 C 0.0137 0.34071 0.634 0.0
C1489 C 0.08484 0.31246 0.63437 0.0
C1490 C 0.02557 0.28227 0.62552 0.0
C1491 C 0.00798 0.25153 0.62901 0.0
C1492 C 0.99591 0.22496 0.62236 0.0
C1493 C 1.00268 0.22961 0.61196 0.0
C1494 C 0.02154 0.26048 0.60823 0.0
C1495 C 0.03214 0.28745 0.61514 0.0
H1496 H 0.29604 0.16115 0.27078 0.0
H1497 H 0.36485 0.0642 0.26724 0.0
H1498 H 0.40035 0.08883 0.2524 0.0
H1499 H 0.28402 0.18075 0.24392 0.0
H1500 H 0.29127 0.22735 0.24545 0.0
H1501 H 0.26971 0.20173 0.25556 0.0
H1502 H 0.327 0.22439 0.2675 0.0
H1503 H 0.34883 0.24992 0.25741 0.0
H1504 H 0.38053 0.21866 0.26407 0.0
H1505 H 0.42966 0.12435 0.23775 0.0
H1506 H 0.44852 0.1673 0.22452 0.0
H1507 H 0.36498 0.2432 0.23783 0.0
C1508 C 0.31811 0.14494 0.26678 0.0
C1509 C 0.32722 0.11038 0.27023 0.0
C1510 C 0.35709 0.09056 0.26483 0.0
C1511 C 0.37755 0.10441 0.25635 0.0
C1512 C 0.36848 0.13858 0.25325 0.0
C1513 C 0.33946 0.15867 0.2583 0.0
C1514 C 0.3365 0.19506 0.25351 0.0
C1515 C 0.29277 0.2016 0.24937 0.0
C1516 C 0.34896 0.2237 0.26107 0.0
C1517 C 0.36808 0.19219 0.245 0.0
C1518 C 0.38607 0.15929 0.24497 0.0
C1519 C 0.41564 0.15016 0.23774 0.0
C1520 C 0.42642 0.17484 0.23025 0.0
C1521 C 0.40793 0.20855 0.22994 0.0
C1522 C 0.37908 0.21743 0.23764 0.0
H1523 H 0.79583 0.86695 0.49835 0.0
H1524 H 0.86039 0.96592 0.50178 0.0
H1525 H 0.8962 0.94287 0.5168 0.0
H1526 H 0.78351 0.8481 0.52531 0.0
H1527 H 0.7927 0.80167 0.52394 0.0
H1528 H 0.77042 0.8263 0.51371 0.0
H1529 H 0.82895 0.80477 0.50195 0.0
H1530 H 0.85151 0.78025 0.51216 0.0
H1531 H 0.88212 0.81211 0.50547 0.0
H1532 H 0.92678 0.90867 0.53151 0.0
H1533 H 0.9475 0.86663 0.54483 0.0
H1534 H 0.86694 0.7881 0.53175 0.0
C1535 C 0.81698 0.88394 0.50237 0.0
C1536 C 0.82486 0.9186 0.49883 0.0
C1537 C 0.85358 0.93946 0.50426 0.0
C1538 C 0.87421 0.92652 0.51284 0.0
C1539 C 0.86643 0.89223 0.51601 0.0
C1540 C 0.83845 0.87116 0.51096 0.0
C1541 C 0.83683 0.83488 0.51586 0.0
C1542 C 0.79327 0.8273 0.51995 0.0
C1543 C 0.85067 0.80631 0.50841 0.0
C1544 C 0.86802 0.83894 0.52443 0.0
C1545 C 0.88464 0.87233 0.52438 0.0
C1546 C 0.91379 0.8825 0.5316 0.0
C1547 C 0.92562 0.85835 0.53913 0.0
C1548 C 0.90856 0.82415 0.53952 0.0
C1549 C 0.87999 0.81426 0.53186 0.0
H1550 H 0.14126 0.28613 0.73772 0.0
H1551 H 0.05949 0.363 0.72421 0.0
H1552 H 0.07936 0.40604 0.73734 0.0
H1553 H 0.1256 0.31146 0.76378 0.0
H1554 H 0.17883 0.3048 0.76735 0.0
H1555 H 0.1568 0.27962 0.7572 0.0
H1556 H 0.21505 0.30092 0.74536 0.0
H1557 H 0.23718 0.32629 0.75546 0.0
H1558 H 0.22361 0.34735 0.74377 0.0
H1559 H 0.1091 0.44144 0.75195 0.0
H1560 H 0.14455 0.46578 0.76685 0.0
H1561 H 0.21122 0.36789 0.77066 0.0
C1562 C 0.12787 0.31217 0.73745 0.0
C1563 C 0.09917 0.32126 0.72973 0.0
C1564 C 0.08149 0.3553 0.72995 0.0
C1565 C 0.09283 0.38002 0.73738 0.0
C1566 C 0.12213 0.37063 0.74465 0.0
C1567 C 0.1394 0.33744 0.74476 0.0
C1568 C 0.17066 0.33428 0.75335 0.0
C1569 C 0.15716 0.30585 0.76086 0.0
C1570 C 0.21421 0.32676 0.74924 0.0
C1571 C 0.16834 0.37082 0.75807 0.0
C1572 C 0.13992 0.39124 0.75293 0.0
C1573 C 0.13145 0.4256 0.75597 0.0
C1574 C 0.15188 0.43928 0.76448 0.0
C1575 C 0.18113 0.41913 0.76998 0.0
C1576 C 0.18966 0.38437 0.76659 0.0
H1577 H 0.71206 0.66452 0.99796 0.0
H1578 H 0.64759 0.5657 1.0018 0.0
H1579 H 0.61186 0.58947 1.01673 0.0
H1580 H 0.72464 0.68467 0.02482 0.0
H1581 H 0.71543 0.73103 1.02327 0.0
H1582 H 0.73757 0.70591 1.01312 0.0
H1583 H 0.67887 0.72688 1.00133 0.0
H1584 H 0.65644 0.75188 1.01146 0.0
H1585 H 0.62575 0.71969 1.0049 0.0
H1586 H 0.58153 0.62436 0.03136 0.0
H1587 H 0.56133 0.66693 0.04459 0.0
H1588 H 0.64149 0.74488 0.03111 0.0
C1589 C 0.69093 0.64773 1.00204 0.0
C1590 C 0.68306 0.61289 0.99865 0.0
C1591 C 0.65439 0.59229 1.00417 0.0
C1592 C 0.6338 0.60564 1.0127 0.0
C1593 C 0.64157 0.64009 1.01574 0.0
C1594 C 0.66951 0.66092 1.01059 0.0
C1595 C 0.67118 0.69743 1.01535 0.0
C1596 C 0.7148 0.70522 1.01938 0.0
C1597 C 0.65723 0.72564 1.00781 0.0
C1598 C 0.64011 0.69377 1.02395 0.0
C1599 C 0.62348 0.66039 1.02404 0.0
C1600 C 0.59451 0.65054 0.03133 0.0
C1601 C 0.58296 0.67499 0.03882 0.0
C1602 C 0.60011 0.70918 0.03907 0.0
C1603 C 0.62838 0.71876 0.03132 0.0
H1604 H 0.36647 0.28673 0.03124 0.0
H1605 H 0.44882 0.36388 0.04434 0.0
H1606 H 0.42907 0.40627 0.03103 0.0
H1607 H 0.38209 0.31059 1.005 0.0
H1608 H 0.32878 0.30394 1.00152 0.0
H1609 H 0.35092 0.2792 1.01174 0.0
H1610 H 0.2929 0.30131 1.02355 0.0
H1611 H 0.27069 0.32628 1.01338 0.0
H1612 H 0.28452 0.34784 0.02496 0.0
H1613 H 0.39905 0.4411 1.01635 0.0
H1614 H 0.36336 0.46491 1.00142 0.0
H1615 H 0.29655 0.36701 0.99798 0.0
C1616 C 0.38012 0.31266 0.03136 0.0
C1617 C 0.40891 0.32205 0.03902 0.0
C1618 C 0.42679 0.35596 0.03863 0.0
C1619 C 0.4155 0.38032 0.0311 0.0
C1620 C 0.38608 0.37066 1.02389 0.0
C1621 C 0.36869 0.33756 1.02393 0.0
C1622 C 0.33728 0.33409 1.01539 0.0
C1623 C 0.35057 0.30524 1.00797 0.0
C1624 C 0.29377 0.32695 1.01957 0.0
C1625 C 0.33963 0.37038 1.01052 0.0
C1626 C 0.36819 0.39094 1.01555 0.0
C1627 C 0.37663 0.42514 1.0124 0.0
C1628 C 0.35605 0.43852 1.00387 0.0
C1629 C 0.32672 0.41819 0.99846 0.0
C1630 C 0.31819 0.38361 1.00198 0.0
H1631 H 0.70918 0.86864 0.27078 0.0
H1632 H 0.64216 0.96645 0.26719 0.0
H1633 H 0.60657 0.94235 0.25228 0.0
H1634 H 0.72142 0.84888 0.24391 0.0
H1635 H 0.71323 0.80239 0.24543 0.0
H1636 H 0.73507 0.82769 0.25558 0.0
H1637 H 0.67712 0.80583 0.26743 0.0
H1638 H 0.65501 0.78061 0.2573 0.0
H1639 H 0.62377 0.8123 0.26392 0.0
H1640 H 0.57684 0.90724 0.2376 0.0
H1641 H 0.55713 0.86448 0.22439 0.0
H1642 H 0.63922 0.7875 0.23772 0.0
C1643 C 0.6875 0.88514 0.26675 0.0
C1644 C 0.67892 0.91981 0.27021 0.0
C1645 C 0.64953 0.94002 0.26477 0.0
C1646 C 0.62902 0.92647 0.25625 0.0
C1647 C 0.63756 0.89221 0.25315 0.0
C1648 C 0.66611 0.87173 0.25823 0.0
C1649 C 0.66847 0.83529 0.25344 0.0
C1650 C 0.71215 0.82815 0.24935 0.0
C1651 C 0.65531 0.80683 0.26097 0.0
C1652 C 0.63712 0.8386 0.24488 0.0
C1653 C 0.61975 0.87174 0.24484 0.0
C1654 C 0.59039 0.88125 0.23759 0.0
C1655 C 0.57914 0.85669 0.23012 0.0
C1656 C 0.59695 0.82271 0.22982 0.0
C1657 C 0.62567 0.81348 0.23752 0.0
H1658 H 0.21065 0.16193 0.49808 0.0
H1659 H 0.14571 0.06319 0.50159 0.0
H1660 H 0.10992 0.08655 0.51657 0.0
H1661 H 0.22303 0.18108 0.525 0.0
H1662 H 0.21405 0.22753 0.52358 0.0
H1663 H 0.23618 0.20269 0.51337 0.0
H1664 H 0.17771 0.22427 0.5016 0.0
H1665 H 0.15528 0.24898 0.5118 0.0
H1666 H 0.12452 0.21714 0.50512 0.0
H1667 H 0.07962 0.12101 0.53129 0.0
H1668 H 0.05956 0.16316 0.54464 0.0
H1669 H 0.14023 0.2413 0.53143 0.0
C1670 C 0.18941 0.14506 0.5021 0.0
C1671 C 0.18142 0.11038 0.4986 0.0
C1672 C 0.1526 0.08967 0.50405 0.0
C1673 C 0.13197 0.10279 0.5126 0.0
C1674 C 0.13985 0.13711 0.51574 0.0
C1675 C 0.16794 0.15803 0.51067 0.0
C1676 C 0.16974 0.19436 0.51554 0.0
C1677 C 0.21335 0.20185 0.51961 0.0
C1678 C 0.15599 0.22287 0.50807 0.0
C1679 C 0.13856 0.19049 0.5241 0.0
C1680 C 0.12176 0.15717 0.52409 0.0
C1681 C 0.09271 0.14715 0.53134 0.0
C1682 C 0.08124 0.17136 0.5389 0.0
C1683 C 0.09857 0.20547 0.53926 0.0
C1684 C 0.12691 0.21524 0.53155 0.0
H1685 H 0.86716 0.74211 0.73776 0.0
H1686 H 0.9507 0.66587 0.72461 0.0
H1687 H 0.93172 0.62321 0.73791 0.0
H1688 H 0.88285 0.71808 0.76401 0.0
H1689 H 0.82938 0.72419 0.76743 0.0
H1690 H 0.85136 0.74928 0.75727 0.0
H1691 H 0.79391 0.72684 0.74536 0.0
H1692 H 0.77186 0.70151 0.75547 0.0
H1693 H 0.78626 0.68026 0.74387 0.0
H1694 H 0.90216 0.58795 0.75258 0.0
H1695 H 0.8664 0.56361 0.76743 0.0
H1696 H 0.79784 0.66076 0.7708 0.0
C1697 C 0.88129 0.71634 0.73763 0.0
C1698 C 0.91015 0.70727 0.72996 0.0
C1699 C 0.92861 0.67355 0.73033 0.0
C1700 C 0.91776 0.64904 0.73785 0.0
C1701 C 0.88817 0.65834 0.74506 0.0
C1702 C 0.87024 0.69127 0.74504 0.0
C1703 C 0.8386 0.69433 0.75354 0.0
C1704 C 0.85131 0.72319 0.76101 0.0
C1705 C 0.79507 0.70114 0.74931 0.0
C1706 C 0.84141 0.658 0.75836 0.0
C1707 C 0.87044 0.63779 0.75336 0.0
C1708 C 0.87936 0.60363 0.7565 0.0
C1709 C 0.85875 0.58995 0.76498 0.0
C1710 C 0.82887 0.6099 0.77034 0.0
C1711 C 0.81991 0.64444 0.76684 0.0
loop_
_geom_bond_atom_site_label_1
_geom_bond_atom_site_label_2
_geom_bond_distance
_geom_bond_site_symmetry_2
_ccdc_geom_bond_type
C0 C1 1.443 . S
C0 N4 1.376 . S
C0 C38 1.389 . S
C1 C0 1.443 . S
C1 C2 1.340 . S
C1 H41 0.951 . S
C2 C1 1.340 . S
C2 C3 1.439 . S
C2 H42 0.950 . S
C3 C2 1.439 . S
C3 N4 1.374 . S
C3 C37 1.395 . S
N4 C0 1.376 . S
N4 C3 1.374 . S
N4 Co5 2.008 . S
Co5 N4 2.008 . S
Co5 N6 1.995 . S
Co5 N11 2.008 . S
Co5 N16 1.995 . S
Co5 N21 2.282 . S
Co5 N27 2.282 . S
N6 Co5 1.995 . S
N6 C7 1.376 . S
N6 C10 1.383 . S
C7 N6 1.376 . S
C7 C8 1.446 . S
C7 C37 1.391 . S
C8 C7 1.446 . S
C8 C9 1.339 . S
C8 H43 0.949 . S
C9 C8 1.339 . S
C9 C10 1.439 . S
C9 H44 0.950 . S
C10 N6 1.383 . S
C10 C9 1.439 . S
C10 C39 1.392 . S
N11 Co5 2.008 . S
N11 C12 1.376 . S
N11 C15 1.374 1_545 S
C12 N11 1.376 . S
C12 C13 1.443 1_545 S
C12 C39 1.389 . S
C13 C12 1.443 1_565 S
C13 C14 1.340 . S
C13 H45 0.951 . S
C14 C13 1.340 . S
C14 C15 1.439 . S
C14 H46 0.950 . S
C15 N11 1.374 1_565 S
C15 C14 1.439 . S
C15 C40 1.395 . S
N16 Co5 1.995 . S
N16 C17 1.376 1_545 S
N16 C20 1.383 . S
C17 N16 1.376 1_565 S
C17 C18 1.446 . S
C17 C40 1.391 . S
C18 C17 1.446 . S
C18 C19 1.339 . S
C18 H47 0.949 . S
C19 C18 1.339 . S
C19 C20 1.439 1_565 S
C19 H48 0.950 . S
C20 N16 1.383 . S
C20 C19 1.439 1_545 S
C20 C38 1.392 . S
N21 Co5 2.282 . S
N21 C24 1.332 . S
N21 C26 1.332 . S
C22 C23 1.386 . S
C22 C25 1.388 . S
C23 C22 1.386 . S
C23 C24 1.382 . S
C23 H49 0.950 1_545 S
C24 N21 1.332 . S
C24 C23 1.382 . S
C24 H35 0.952 1_545 S
C25 C22 1.388 . S
C25 C26 1.382 . S
C25 H50 0.950 . S
C26 N21 1.332 . S
C26 C25 1.382 . S
C26 H36 0.948 . S
N27 Co5 2.282 . S
N27 C31 1.332 . S
N27 C32 1.332 . S
C28 C29 1.388 . S
C28 C32 1.382 . S
C28 H51 0.950 . S
C29 C28 1.388 . S
C29 C30 1.386 . S
C30 C29 1.386 . S
C30 C31 1.382 . S
C30 H52 0.950 . S
C31 N27 1.332 . S
C31 C30 1.382 . S
C31 H33 0.952 . S
C32 N27 1.332 . S
C32 C28 1.382 . S
C32 H34 0.948 . S
H33 C31 0.952 . S
H34 C32 0.948 . S
H35 C24 0.952 1_565 S
H36 C26 0.948 . S
C37 C3 1.395 . S
C37 C7 1.391 . S
C38 C0 1.389 . S
C38 C20 1.392 . S
C39 C10 1.392 . S
C39 C12 1.389 . S
C40 C15 1.395 . S
C40 C17 1.391 . S
H41 C1 0.951 . S
H42 C2 0.950 . S
H43 C8 0.949 . S
H44 C9 0.950 . S
H45 C13 0.951 . S
H46 C14 0.950 . S
H47 C18 0.949 . S
H48 C19 0.950 . S
H49 C23 0.950 1_565 S
H50 C25 0.950 . S
H51 C28 0.950 . S
H52 C30 0.950 . S
C53 C54 1.443 1_655 S
C53 N57 1.376 . S
C53 C91 1.389 . S
C54 C53 1.443 1_455 S
C54 C55 1.340 . S
C54 H94 0.951 . S
C55 C54 1.340 . S
C55 C56 1.439 . S
C55 H95 0.950 . S
C56 C55 1.439 . S
C56 N57 1.374 1_455 S
C56 C90 1.395 . S
N57 C53 1.376 . S
N57 C56 1.374 1_655 S
N57 Co58 2.008 . S
Co58 N57 2.008 . S
Co58 N59 1.995 1_655 S
Co58 N64 2.008 . S
Co58 N69 1.995 . S
Co58 N74 2.282 . S
Co58 N80 2.282 . S
N59 Co58 1.995 1_455 S
N59 C60 1.376 . S
N59 C63 1.383 . S
C60 N59 1.376 . S
C60 C61 1.446 . S
C60 C90 1.391 . S
C61 C60 1.446 . S
C61 C62 1.339 . S
C61 H96 0.949 . S
C62 C61 1.339 . S
C62 C63 1.439 . S
C62 H97 0.950 . S
C63 N59 1.383 . S
C63 C62 1.439 . S
C63 C92 1.392 1_455 S
N64 Co58 2.008 . S
N64 C65 1.376 . S
N64 C68 1.374 . S
C65 N64 1.376 . S
C65 C66 1.443 . S
C65 C92 1.389 . S
C66 C65 1.443 . S
C66 C67 1.340 . S
C66 H98 0.951 . S
C67 C66 1.340 . S
C67 C68 1.439 . S
C67 H99 0.950 . S
C68 N64 1.374 . S
C68 C67 1.439 . S
C68 C93 1.395 . S
N69 Co58 1.995 . S
N69 C70 1.376 . S
N69 C73 1.383 . S
C70 N69 1.376 . S
C70 C71 1.446 . S
C70 C93 1.391 . S
C71 C70 1.446 . S
C71 C72 1.339 . S
C71 H100 0.949 . S
C72 C71 1.339 . S
C72 C73 1.439 . S
C72 H101 0.950 . S
C73 N69 1.383 . S
C73 C72 1.439 . S
C73 C91 1.392 . S
N74 Co58 2.282 . S
N74 C77 1.332 . S
N74 C79 1.332 . S
C75 C76 1.386 . S
C75 C78 1.388 . S
C76 C75 1.386 . S
C76 C77 1.382 . S
C76 H102 0.950 . S
C77 N74 1.332 . S
C77 C76 1.382 . S
C77 H88 0.952 . S
C78 C75 1.388 . S
C78 C79 1.382 . S
C78 H103 0.950 1_655 S
C79 N74 1.332 . S
C79 C78 1.382 . S
C79 H89 0.948 1_655 S
N80 Co58 2.282 . S
N80 C84 1.332 . S
N80 C85 1.332 . S
C81 C82 1.388 . S
C81 C85 1.382 . S
C81 H104 0.950 . S
C82 C81 1.388 . S
C82 C83 1.386 . S
C83 C82 1.386 . S
C83 C84 1.382 . S
C83 H105 0.950 1_655 S
C84 N80 1.332 . S
C84 C83 1.382 . S
C84 H86 0.952 1_655 S
C85 N80 1.332 . S
C85 C81 1.382 . S
C85 H87 0.948 . S
H86 C84 0.952 1_455 S
H87 C85 0.948 . S
H88 C77 0.952 . S
H89 C79 0.948 1_455 S
C90 C56 1.395 . S
C90 C60 1.391 . S
C91 C53 1.389 . S
C91 C73 1.392 . S
C92 C63 1.392 1_655 S
C92 C65 1.389 . S
C93 C68 1.395 . S
C93 C70 1.391 . S
H94 C54 0.951 . S
H95 C55 0.950 . S
H96 C61 0.949 . S
H97 C62 0.950 . S
H98 C66 0.951 . S
H99 C67 0.950 . S
H100 C71 0.949 . S
H101 C72 0.950 . S
H102 C76 0.950 . S
H103 C78 0.950 1_455 S
H104 C81 0.950 . S
H105 C83 0.950 1_455 S
C106 C107 1.443 . S
C106 N110 1.376 . S
C106 C144 1.389 . S
C107 C106 1.443 . S
C107 C108 1.340 . S
C107 H147 0.951 . S
C108 C107 1.340 . S
C108 C109 1.439 . S
C108 H148 0.950 . S
C109 C108 1.439 . S
C109 N110 1.374 . S
C109 C143 1.395 . S
N110 C106 1.376 . S
N110 C109 1.374 . S
N110 Co111 2.008 . S
Co111 N110 2.008 . S
Co111 N112 1.995 . S
Co111 N117 2.008 . S
Co111 N122 1.995 . S
Co111 N127 2.282 . S
Co111 N133 2.282 . S
N112 Co111 1.995 . S
N112 C113 1.376 . S
N112 C116 1.383 . S
C113 N112 1.376 . S
C113 C114 1.446 . S
C113 C143 1.391 . S
C114 C113 1.446 . S
C114 C115 1.339 . S
C114 H149 0.949 . S
C115 C114 1.339 . S
C115 C116 1.439 . S
C115 H150 0.950 . S
C116 N112 1.383 . S
C116 C115 1.439 . S
C116 C145 1.392 . S
N117 Co111 2.008 . S
N117 C118 1.376 . S
N117 C121 1.374 . S
C118 N117 1.376 . S
C118 C119 1.443 . S
C118 C145 1.389 . S
C119 C118 1.443 . S
C119 C120 1.340 . S
C119 H151 0.951 . S
C120 C119 1.340 . S
C120 C121 1.439 . S
C120 H152 0.950 . S
C121 N117 1.374 . S
C121 C120 1.439 . S
C121 C146 1.395 . S
N122 Co111 1.995 . S
N122 C123 1.376 . S
N122 C126 1.383 . S
C123 N122 1.376 . S
C123 C124 1.446 . S
C123 C146 1.391 . S
C124 C123 1.446 . S
C124 C125 1.339 . S
C124 H153 0.949 . S
C125 C124 1.339 . S
C125 C126 1.439 . S
C125 H154 0.950 . S
C126 N122 1.383 . S
C126 C125 1.439 . S
C126 C144 1.392 . S
N127 Co111 2.282 . S
N127 C130 1.332 . S
N127 C132 1.332 . S
C128 C129 1.386 . S
C128 C131 1.388 . S
C129 C128 1.386 . S
C129 C130 1.382 . S
C129 H155 0.950 . S
C130 N127 1.332 . S
C130 C129 1.382 . S
C130 H141 0.952 . S
C131 C128 1.388 . S
C131 C132 1.382 . S
C131 H156 0.950 . S
C132 N127 1.332 . S
C132 C131 1.382 . S
C132 H142 0.948 . S
N133 Co111 2.282 . S
N133 C137 1.332 . S
N133 C138 1.332 . S
C134 C135 1.388 . S
C134 C138 1.382 . S
C134 H157 0.950 . S
C135 C134 1.388 . S
C135 C136 1.386 . S
C136 C135 1.386 . S
C136 C137 1.382 . S
C136 H158 0.950 . S
C137 N133 1.332 . S
C137 C136 1.382 . S
C137 H139 0.952 . S
C138 N133 1.332 . S
C138 C134 1.382 . S
C138 H140 0.948 . S
H139 C137 0.952 . S
H140 C138 0.948 . S
H141 C130 0.952 . S
H142 C132 0.948 . S
C143 C109 1.395 . S
C143 C113 1.391 . S
C144 C106 1.389 . S
C144 C126 1.392 . S
C145 C116 1.392 . S
C145 C118 1.389 . S
C146 C121 1.395 . S
C146 C123 1.391 . S
H147 C107 0.951 . S
H148 C108 0.950 . S
H149 C114 0.949 . S
H150 C115 0.950 . S
H151 C119 0.951 . S
H152 C120 0.950 . S
H153 C124 0.949 . S
H154 C125 0.950 . S
H155 C129 0.950 . S
H156 C131 0.950 . S
H157 C134 0.950 . S
H158 C136 0.950 . S
C159 C160 1.443 . S
C159 N163 1.376 . S
C159 C197 1.389 . S
C160 C159 1.443 . S
C160 C161 1.340 . S
C160 H200 0.951 . S
C161 C160 1.340 . S
C161 C162 1.439 . S
C161 H201 0.950 . S
C162 C161 1.439 . S
C162 N163 1.374 . S
C162 C196 1.395 . S
N163 C159 1.376 . S
N163 C162 1.374 . S
N163 Co164 2.008 . S
Co164 N163 2.008 . S
Co164 N165 1.995 . S
Co164 N170 2.008 . S
Co164 N175 1.995 . S
Co164 N180 2.282 . S
Co164 N186 2.282 . S
N165 Co164 1.995 . S
N165 C166 1.376 . S
N165 C169 1.383 . S
C166 N165 1.376 . S
C166 C167 1.446 . S
C166 C196 1.391 . S
C167 C166 1.446 . S
C167 C168 1.339 . S
C167 H202 0.949 . S
C168 C167 1.339 . S
C168 C169 1.439 . S
C168 H203 0.950 . S
C169 N165 1.383 . S
C169 C168 1.439 . S
C169 C198 1.392 . S
N170 Co164 2.008 . S
N170 C171 1.376 . S
N170 C174 1.374 . S
C171 N170 1.376 . S
C171 C172 1.443 . S
C171 C198 1.389 . S
C172 C171 1.443 . S
C172 C173 1.340 . S
C172 H204 0.951 . S
C173 C172 1.340 . S
C173 C174 1.439 . S
C173 H205 0.950 . S
C174 N170 1.374 . S
C174 C173 1.439 . S
C174 C199 1.395 . S
N175 Co164 1.995 . S
N175 C176 1.376 . S
N175 C179 1.383 . S
C176 N175 1.376 . S
C176 C177 1.446 . S
C176 C199 1.391 . S
C177 C176 1.446 . S
C177 C178 1.339 . S
C177 H206 0.949 . S
C178 C177 1.339 . S
C178 C179 1.439 . S
C178 H207 0.950 . S
C179 N175 1.383 . S
C179 C178 1.439 . S
C179 C197 1.392 . S
N180 Co164 2.282 . S
N180 C183 1.332 . S
N180 C185 1.332 . S
C181 C182 1.386 . S
C181 C184 1.388 . S
C182 C181 1.386 . S
C182 C183 1.382 . S
C182 H208 0.950 . S
C183 N180 1.332 . S
C183 C182 1.382 . S
C183 H194 0.952 . S
C184 C181 1.388 . S
C184 C185 1.382 . S
C184 H209 0.950 . S
C185 N180 1.332 . S
C185 C184 1.382 . S
C185 H195 0.948 . S
N186 Co164 2.282 . S
N186 C190 1.332 . S
N186 C191 1.332 . S
C187 C188 1.388 . S
C187 C191 1.382 . S
C187 H210 0.950 . S
C188 C187 1.388 . S
C188 C189 1.386 . S
C189 C188 1.386 . S
C189 C190 1.382 . S
C189 H211 0.950 . S
C190 N186 1.332 . S
C190 C189 1.382 . S
C190 H192 0.952 . S
C191 N186 1.332 . S
C191 C187 1.382 . S
C191 H193 0.948 . S
H192 C190 0.952 . S
H193 C191 0.948 . S
H194 C183 0.952 . S
H195 C185 0.948 . S
C196 C162 1.395 . S
C196 C166 1.391 . S
C197 C159 1.389 . S
C197 C179 1.392 . S
C198 C169 1.392 . S
C198 C171 1.389 . S
C199 C174 1.395 . S
C199 C176 1.391 . S
H200 C160 0.951 . S
H201 C161 0.950 . S
H202 C167 0.949 . S
H203 C168 0.950 . S
H204 C172 0.951 . S
H205 C173 0.950 . S
H206 C177 0.949 . S
H207 C178 0.950 . S
H208 C182 0.950 . S
H209 C184 0.950 . S
H210 C187 0.950 . S
H211 C189 0.950 . S
C212 C213 1.443 . S
C212 N216 1.376 . S
C212 C250 1.389 . S
C213 C212 1.443 . S
C213 C214 1.340 . S
C213 H253 0.951 . S
C214 C213 1.340 . S
C214 C215 1.439 . S
C214 H254 0.950 . S
C215 C214 1.439 . S
C215 N216 1.374 . S
C215 C249 1.395 . S
N216 C212 1.376 . S
N216 C215 1.374 . S
N216 Co217 2.008 . S
Co217 N216 2.008 . S
Co217 N218 1.995 . S
Co217 N223 2.008 . S
Co217 N228 1.995 . S
Co217 N233 2.282 . S
Co217 N239 2.282 . S
N218 Co217 1.995 . S
N218 C219 1.376 . S
N218 C222 1.383 . S
C219 N218 1.376 . S
C219 C220 1.446 . S
C219 C249 1.391 . S
C220 C219 1.446 . S
C220 C221 1.339 . S
C220 H255 0.949 . S
C221 C220 1.339 . S
C221 C222 1.439 . S
C221 H256 0.950 . S
C222 N218 1.383 . S
C222 C221 1.439 . S
C222 C251 1.392 . S
N223 Co217 2.008 . S
N223 C224 1.376 . S
N223 C227 1.374 . S
C224 N223 1.376 . S
C224 C225 1.443 . S
C224 C251 1.389 . S
C225 C224 1.443 . S
C225 C226 1.340 . S
C225 H257 0.951 . S
C226 C225 1.340 . S
C226 C227 1.439 . S
C226 H258 0.950 . S
C227 N223 1.374 . S
C227 C226 1.439 . S
C227 C252 1.395 . S
N228 Co217 1.995 . S
N228 C229 1.376 . S
N228 C232 1.383 . S
C229 N228 1.376 . S
C229 C230 1.446 . S
C229 C252 1.391 . S
C230 C229 1.446 . S
C230 C231 1.339 . S
C230 H259 0.949 . S
C231 C230 1.339 . S
C231 C232 1.439 . S
C231 H260 0.950 . S
C232 N228 1.383 . S
C232 C231 1.439 . S
C232 C250 1.392 . S
N233 Co217 2.282 . S
N233 C236 1.332 . S
N233 C238 1.332 . S
C234 C235 1.386 . S
C234 C237 1.388 . S
C235 C234 1.386 . S
C235 C236 1.382 . S
C235 H261 0.950 . S
C236 N233 1.332 . S
C236 C235 1.382 . S
C236 H247 0.952 . S
C237 C234 1.388 . S
C237 C238 1.382 . S
C237 H262 0.950 . S
C238 N233 1.332 . S
C238 C237 1.382 . S
C238 H248 0.948 . S
N239 Co217 2.282 . S
N239 C243 1.332 . S
N239 C244 1.332 . S
C240 C241 1.388 . S
C240 C244 1.382 . S
C240 H263 0.950 . S
C241 C240 1.388 . S
C241 C242 1.386 . S
C242 C241 1.386 . S
C242 C243 1.382 . S
C242 H264 0.950 . S
C243 N239 1.332 . S
C243 C242 1.382 . S
C243 H245 0.952 . S
C244 N239 1.332 . S
C244 C240 1.382 . S
C244 H246 0.948 . S
H245 C243 0.952 . S
H246 C244 0.948 . S
H247 C236 0.952 . S
H248 C238 0.948 . S
C249 C215 1.395 . S
C249 C219 1.391 . S
C250 C212 1.389 . S
C250 C232 1.392 . S
C251 C222 1.392 . S
C251 C224 1.389 . S
C252 C227 1.395 . S
C252 C229 1.391 . S
H253 C213 0.951 . S
H254 C214 0.950 . S
H255 C220 0.949 . S
H256 C221 0.950 . S
H257 C225 0.951 . S
H258 C226 0.950 . S
H259 C230 0.949 . S
H260 C231 0.950 . S
H261 C235 0.950 . S
H262 C237 0.950 . S
H263 C240 0.950 . S
H264 C242 0.950 . S
C265 C266 1.443 . S
C265 N269 1.376 . S
C265 C303 1.389 . S
C266 C265 1.443 . S
C266 C267 1.340 . S
C266 H306 0.951 . S
C267 C266 1.340 . S
C267 C268 1.439 . S
C267 H307 0.950 . S
C268 C267 1.439 . S
C268 N269 1.374 . S
C268 C302 1.395 . S
N269 C265 1.376 . S
N269 C268 1.374 . S
N269 Co270 2.008 . S
Co270 N269 2.008 . S
Co270 N271 1.995 . S
Co270 N276 2.008 . S
Co270 N281 1.995 . S
Co270 N286 2.282 . S
Co270 N292 2.282 . S
N271 Co270 1.995 . S
N271 C272 1.376 . S
N271 C275 1.383 . S
C272 N271 1.376 . S
C272 C273 1.446 . S
C272 C302 1.391 . S
C273 C272 1.446 . S
C273 C274 1.339 . S
C273 H308 0.949 . S
C274 C273 1.339 . S
C274 C275 1.439 . S
C274 H309 0.950 . S
C275 N271 1.383 . S
C275 C274 1.439 . S
C275 C304 1.392 . S
N276 Co270 2.008 . S
N276 C277 1.376 . S
N276 C280 1.374 . S
C277 N276 1.376 . S
C277 C278 1.443 . S
C277 C304 1.389 . S
C278 C277 1.443 . S
C278 C279 1.340 . S
C278 H310 0.951 . S
C279 C278 1.340 . S
C279 C280 1.439 . S
C279 H311 0.950 . S
C280 N276 1.374 . S
C280 C279 1.439 . S
C280 C305 1.395 . S
N281 Co270 1.995 . S
N281 C282 1.376 . S
N281 C285 1.383 . S
C282 N281 1.376 . S
C282 C283 1.446 . S
C282 C305 1.391 . S
C283 C282 1.446 . S
C283 C284 1.339 . S
C283 H312 0.949 . S
C284 C283 1.339 . S
C284 C285 1.439 . S
C284 H313 0.950 . S
C285 N281 1.383 . S
C285 C284 1.439 . S
C285 C303 1.392 . S
N286 Co270 2.282 . S
N286 C289 1.332 . S
N286 C291 1.332 . S
C287 C288 1.386 . S
C287 C290 1.388 . S
C288 C287 1.386 . S
C288 C289 1.382 . S
C288 H314 0.950 . S
C289 N286 1.332 . S
C289 C288 1.382 . S
C289 H300 0.952 . S
C290 C287 1.388 . S
C290 C291 1.382 . S
C290 H315 0.950 . S
C291 N286 1.332 . S
C291 C290 1.382 . S
C291 H301 0.948 . S
N292 Co270 2.282 . S
N292 C296 1.332 . S
N292 C297 1.332 . S
C293 C294 1.388 . S
C293 C297 1.382 . S
C293 H316 0.950 . S
C294 C293 1.388 . S
C294 C295 1.386 . S
C295 C294 1.386 . S
C295 C296 1.382 . S
C295 H317 0.950 . S
C296 N292 1.332 . S
C296 C295 1.382 . S
C296 H298 0.952 . S
C297 N292 1.332 . S
C297 C293 1.382 . S
C297 H299 0.948 . S
H298 C296 0.952 . S
H299 C297 0.948 . S
H300 C289 0.952 . S
H301 C291 0.948 . S
C302 C268 1.395 . S
C302 C272 1.391 . S
C303 C265 1.389 . S
C303 C285 1.392 . S
C304 C275 1.392 . S
C304 C277 1.389 . S
C305 C280 1.395 . S
C305 C282 1.391 . S
H306 C266 0.951 . S
H307 C267 0.950 . S
H308 C273 0.949 . S
H309 C274 0.950 . S
H310 C278 0.951 . S
H311 C279 0.950 . S
H312 C283 0.949 . S
H313 C284 0.950 . S
H314 C288 0.950 . S
H315 C290 0.950 . S
H316 C293 0.950 . S
H317 C295 0.950 . S
C318 C319 1.443 . S
C318 N322 1.376 . S
C318 C356 1.389 . S
C319 C318 1.443 . S
C319 C320 1.340 . S
C319 H359 0.951 . S
C320 C319 1.340 . S
C320 C321 1.439 . S
C320 H360 0.950 . S
C321 C320 1.439 . S
C321 N322 1.374 . S
C321 C355 1.395 . S
N322 C318 1.376 . S
N322 C321 1.374 . S
N322 Co323 2.008 . S
Co323 N322 2.008 . S
Co323 N324 1.995 . S
Co323 N329 2.008 . S
Co323 N334 1.995 . S
Co323 N339 2.282 . S
Co323 N345 2.282 . S
N324 Co323 1.995 . S
N324 C325 1.376 . S
N324 C328 1.383 . S
C325 N324 1.376 . S
C325 C326 1.446 . S
C325 C355 1.391 . S
C326 C325 1.446 . S
C326 C327 1.339 . S
C326 H361 0.949 . S
C327 C326 1.339 . S
C327 C328 1.439 . S
C327 H362 0.950 . S
C328 N324 1.383 . S
C328 C327 1.439 . S
C328 C357 1.392 . S
N329 Co323 2.008 . S
N329 C330 1.376 . S
N329 C333 1.374 1_545 S
C330 N329 1.376 . S
C330 C331 1.443 1_545 S
C330 C357 1.389 . S
C331 C330 1.443 1_565 S
C331 C332 1.340 . S
C331 H363 0.951 . S
C332 C331 1.340 . S
C332 C333 1.439 . S
C332 H364 0.950 . S
C333 N329 1.374 1_565 S
C333 C332 1.439 . S
C333 C358 1.395 . S
N334 Co323 1.995 . S
N334 C335 1.376 1_545 S
N334 C338 1.383 . S
C335 N334 1.376 1_565 S
C335 C336 1.446 . S
C335 C358 1.391 . S
C336 C335 1.446 . S
C336 C337 1.339 . S
C336 H365 0.949 . S
C337 C336 1.339 . S
C337 C338 1.439 1_565 S
C337 H366 0.950 . S
C338 N334 1.383 . S
C338 C337 1.439 1_545 S
C338 C356 1.392 . S
N339 Co323 2.282 . S
N339 C342 1.332 . S
N339 C344 1.332 . S
C340 C341 1.386 . S
C340 C343 1.388 . S
C341 C340 1.386 . S
C341 C342 1.382 . S
C341 H367 0.950 1_545 S
C342 N339 1.332 . S
C342 C341 1.382 . S
C342 H353 0.952 1_545 S
C343 C340 1.388 . S
C343 C344 1.382 . S
C343 H368 0.950 . S
C344 N339 1.332 . S
C344 C343 1.382 . S
C344 H354 0.948 . S
N345 Co323 2.282 . S
N345 C349 1.332 . S
N345 C350 1.332 . S
C346 C347 1.388 . S
C346 C350 1.382 . S
C346 H369 0.950 . S
C347 C346 1.388 . S
C347 C348 1.386 . S
C348 C347 1.386 . S
C348 C349 1.382 . S
C348 H370 0.950 . S
C349 N345 1.332 . S
C349 C348 1.382 . S
C349 H351 0.952 . S
C350 N345 1.332 . S
C350 C346 1.382 . S
C350 H352 0.948 . S
H351 C349 0.952 . S
H352 C350 0.948 . S
H353 C342 0.952 1_565 S
H354 C344 0.948 . S
C355 C321 1.395 . S
C355 C325 1.391 . S
C356 C318 1.389 . S
C356 C338 1.392 . S
C357 C328 1.392 . S
C357 C330 1.389 . S
C358 C333 1.395 . S
C358 C335 1.391 . S
H359 C319 0.951 . S
H360 C320 0.950 . S
H361 C326 0.949 . S
H362 C327 0.950 . S
H363 C331 0.951 . S
H364 C332 0.950 . S
H365 C336 0.949 . S
H366 C337 0.950 . S
H367 C341 0.950 1_565 S
H368 C343 0.950 . S
H369 C346 0.950 . S
H370 C348 0.950 . S
C371 C372 1.443 1_655 S
C371 N375 1.376 . S
C371 C409 1.389 . S
C372 C371 1.443 1_455 S
C372 C373 1.340 . S
C372 H412 0.951 . S
C373 C372 1.340 . S
C373 C374 1.439 . S
C373 H413 0.950 . S
C374 C373 1.439 . S
C374 N375 1.374 1_455 S
C374 C408 1.395 . S
N375 C371 1.376 . S
N375 C374 1.374 1_655 S
N375 Co376 2.008 . S
Co376 N375 2.008 . S
Co376 N377 1.995 1_655 S
Co376 N382 2.008 . S
Co376 N387 1.995 . S
Co376 N392 2.282 . S
Co376 N398 2.282 . S
N377 Co376 1.995 1_455 S
N377 C378 1.376 . S
N377 C381 1.383 . S
C378 N377 1.376 . S
C378 C379 1.446 . S
C378 C408 1.391 . S
C379 C378 1.446 . S
C379 C380 1.339 . S
C379 H414 0.949 . S
C380 C379 1.339 . S
C380 C381 1.439 . S
C380 H415 0.950 . S
C381 N377 1.383 . S
C381 C380 1.439 . S
C381 C410 1.392 1_455 S
N382 Co376 2.008 . S
N382 C383 1.376 . S
N382 C386 1.374 . S
C383 N382 1.376 . S
C383 C384 1.443 . S
C383 C410 1.389 . S
C384 C383 1.443 . S
C384 C385 1.340 . S
C384 H416 0.951 . S
C385 C384 1.340 . S
C385 C386 1.439 . S
C385 H417 0.950 . S
C386 N382 1.374 . S
C386 C385 1.439 . S
C386 C411 1.395 . S
N387 Co376 1.995 . S
N387 C388 1.376 . S
N387 C391 1.383 . S
C388 N387 1.376 . S
C388 C389 1.446 . S
C388 C411 1.391 . S
C389 C388 1.446 . S
C389 C390 1.339 . S
C389 H418 0.949 . S
C390 C389 1.339 . S
C390 C391 1.439 . S
C390 H419 0.950 . S
C391 N387 1.383 . S
C391 C390 1.439 . S
C391 C409 1.392 . S
N392 Co376 2.282 . S
N392 C395 1.332 . S
N392 C397 1.332 . S
C393 C394 1.386 . S
C393 C396 1.388 . S
C394 C393 1.386 . S
C394 C395 1.382 . S
C394 H420 0.950 . S
C395 N392 1.332 . S
C395 C394 1.382 . S
C395 H406 0.952 . S
C396 C393 1.388 . S
C396 C397 1.382 . S
C396 H421 0.950 1_655 S
C397 N392 1.332 . S
C397 C396 1.382 . S
C397 H407 0.948 1_655 S
N398 Co376 2.282 . S
N398 C402 1.332 . S
N398 C403 1.332 . S
C399 C400 1.388 . S
C399 C403 1.382 . S
C399 H422 0.950 . S
C400 C399 1.388 . S
C400 C401 1.386 . S
C401 C400 1.386 . S
C401 C402 1.382 . S
C401 H423 0.950 1_655 S
C402 N398 1.332 . S
C402 C401 1.382 . S
C402 H404 0.952 1_655 S
C403 N398 1.332 . S
C403 C399 1.382 . S
C403 H405 0.948 . S
H404 C402 0.952 1_455 S
H405 C403 0.948 . S
H406 C395 0.952 . S
H407 C397 0.948 1_455 S
C408 C374 1.395 . S
C408 C378 1.391 . S
C409 C371 1.389 . S
C409 C391 1.392 . S
C410 C381 1.392 1_655 S
C410 C383 1.389 . S
C411 C386 1.395 . S
C411 C388 1.391 . S
H412 C372 0.951 . S
H413 C373 0.950 . S
H414 C379 0.949 . S
H415 C380 0.950 . S
H416 C384 0.951 . S
H417 C385 0.950 . S
H418 C389 0.949 . S
H419 C390 0.950 . S
H420 C394 0.950 . S
H421 C396 0.950 1_455 S
H422 C399 0.950 . S
H423 C401 0.950 1_455 S
C424 C425 1.443 . S
C424 N428 1.376 . S
C424 C462 1.389 . S
C425 C424 1.443 . S
C425 C426 1.340 . S
C425 H465 0.951 . S
C426 C425 1.340 . S
C426 C427 1.439 . S
C426 H466 0.950 . S
C427 C426 1.439 . S
C427 N428 1.374 . S
C427 C461 1.395 . S
N428 C424 1.376 . S
N428 C427 1.374 . S
N428 Co429 2.008 . S
Co429 N428 2.008 . S
Co429 N430 1.995 . S
Co429 N435 2.008 . S
Co429 N440 1.995 . S
Co429 N445 2.282 . S
Co429 N451 2.282 . S
N430 Co429 1.995 . S
N430 C431 1.376 . S
N430 C434 1.383 . S
C431 N430 1.376 . S
C431 C432 1.446 . S
C431 C461 1.391 . S
C432 C431 1.446 . S
C432 C433 1.339 . S
C432 H467 0.949 . S
C433 C432 1.339 . S
C433 C434 1.439 . S
C433 H468 0.950 . S
C434 N430 1.383 . S
C434 C433 1.439 . S
C434 C463 1.392 . S
N435 Co429 2.008 . S
N435 C436 1.376 . S
N435 C439 1.374 . S
C436 N435 1.376 . S
C436 C437 1.443 . S
C436 C463 1.389 . S
C437 C436 1.443 . S
C437 C438 1.340 . S
C437 H469 0.951 . S
C438 C437 1.340 . S
C438 C439 1.439 . S
C438 H470 0.950 . S
C439 N435 1.374 . S
C439 C438 1.439 . S
C439 C464 1.395 . S
N440 Co429 1.995 . S
N440 C441 1.376 . S
N440 C444 1.383 . S
C441 N440 1.376 . S
C441 C442 1.446 . S
C441 C464 1.391 . S
C442 C441 1.446 . S
C442 C443 1.339 . S
C442 H471 0.949 . S
C443 C442 1.339 . S
C443 C444 1.439 . S
C443 H472 0.950 . S
C444 N440 1.383 . S
C444 C443 1.439 . S
C444 C462 1.392 . S
N445 Co429 2.282 . S
N445 C448 1.332 . S
N445 C450 1.332 . S
C446 C447 1.386 . S
C446 C449 1.388 . S
C447 C446 1.386 . S
C447 C448 1.382 . S
C447 H473 0.950 . S
C448 N445 1.332 . S
C448 C447 1.382 . S
C448 H459 0.952 . S
C449 C446 1.388 . S
C449 C450 1.382 . S
C449 H474 0.950 . S
C450 N445 1.332 . S
C450 C449 1.382 . S
C450 H460 0.948 . S
N451 Co429 2.282 . S
N451 C455 1.332 . S
N451 C456 1.332 . S
C452 C453 1.388 . S
C452 C456 1.382 . S
C452 H475 0.950 . S
C453 C452 1.388 . S
C453 C454 1.386 . S
C454 C453 1.386 . S
C454 C455 1.382 . S
C454 H476 0.950 . S
C455 N451 1.332 . S
C455 C454 1.382 . S
C455 H457 0.952 . S
C456 N451 1.332 . S
C456 C452 1.382 . S
C456 H458 0.948 . S
H457 C455 0.952 . S
H458 C456 0.948 . S
H459 C448 0.952 . S
H460 C450 0.948 . S
C461 C427 1.395 . S
C461 C431 1.391 . S
C462 C424 1.389 . S
C462 C444 1.392 . S
C463 C434 1.392 . S
C463 C436 1.389 . S
C464 C439 1.395 . S
C464 C441 1.391 . S
H465 C425 0.951 . S
H466 C426 0.950 . S
H467 C432 0.949 . S
H468 C433 0.950 . S
H469 C437 0.951 . S
H470 C438 0.950 . S
H471 C442 0.949 . S
H472 C443 0.950 . S
H473 C447 0.950 . S
H474 C449 0.950 . S
H475 C452 0.950 . S
H476 C454 0.950 . S
C477 C478 1.443 . S
C477 N481 1.376 . S
C477 C515 1.389 . S
C478 C477 1.443 . S
C478 C479 1.340 . S
C478 H518 0.951 . S
C479 C478 1.340 . S
C479 C480 1.439 . S
C479 H519 0.950 . S
C480 C479 1.439 . S
C480 N481 1.374 . S
C480 C514 1.395 . S
N481 C477 1.376 . S
N481 C480 1.374 . S
N481 Co482 2.008 . S
Co482 N481 2.008 . S
Co482 N483 1.995 . S
Co482 N488 2.008 . S
Co482 N493 1.995 . S
Co482 N498 2.282 . S
Co482 N504 2.282 . S
N483 Co482 1.995 . S
N483 C484 1.376 . S
N483 C487 1.383 . S
C484 N483 1.376 . S
C484 C485 1.446 . S
C484 C514 1.391 . S
C485 C484 1.446 . S
C485 C486 1.339 . S
C485 H520 0.949 . S
C486 C485 1.339 . S
C486 C487 1.439 . S
C486 H521 0.950 . S
C487 N483 1.383 . S
C487 C486 1.439 . S
C487 C516 1.392 . S
N488 Co482 2.008 . S
N488 C489 1.376 . S
N488 C492 1.374 . S
C489 N488 1.376 . S
C489 C490 1.443 . S
C489 C516 1.389 . S
C490 C489 1.443 . S
C490 C491 1.340 . S
C490 H522 0.951 . S
C491 C490 1.340 . S
C491 C492 1.439 . S
C491 H523 0.950 . S
C492 N488 1.374 . S
C492 C491 1.439 . S
C492 C517 1.395 . S
N493 Co482 1.995 . S
N493 C494 1.376 . S
N493 C497 1.383 . S
C494 N493 1.376 . S
C494 C495 1.446 . S
C494 C517 1.391 . S
C495 C494 1.446 . S
C495 C496 1.339 . S
C495 H524 0.949 . S
C496 C495 1.339 . S
C496 C497 1.439 . S
C496 H525 0.950 . S
C497 N493 1.383 . S
C497 C496 1.439 . S
C497 C515 1.392 . S
N498 Co482 2.282 . S
N498 C501 1.332 . S
N498 C503 1.332 . S
C499 C500 1.386 . S
C499 C502 1.388 . S
C500 C499 1.386 . S
C500 C501 1.382 . S
C500 H526 0.950 . S
C501 N498 1.332 . S
C501 C500 1.382 . S
C501 H512 0.952 . S
C502 C499 1.388 . S
C502 C503 1.382 . S
C502 H527 0.950 . S
C503 N498 1.332 . S
C503 C502 1.382 . S
C503 H513 0.948 . S
N504 Co482 2.282 . S
N504 C508 1.332 . S
N504 C509 1.332 . S
C505 C506 1.388 . S
C505 C509 1.382 . S
C505 H528 0.950 . S
C506 C505 1.388 . S
C506 C507 1.386 . S
C507 C506 1.386 . S
C507 C508 1.382 . S
C507 H529 0.950 . S
C508 N504 1.332 . S
C508 C507 1.382 . S
C508 H510 0.952 . S
C509 N504 1.332 . S
C509 C505 1.382 . S
C509 H511 0.948 . S
H510 C508 0.952 . S
H511 C509 0.948 . S
H512 C501 0.952 . S
H513 C503 0.948 . S
C514 C480 1.395 . S
C514 C484 1.391 . S
C515 C477 1.389 . S
C515 C497 1.392 . S
C516 C487 1.392 . S
C516 C489 1.389 . S
C517 C492 1.395 . S
C517 C494 1.391 . S
H518 C478 0.951 . S
H519 C479 0.950 . S
H520 C485 0.949 . S
H521 C486 0.950 . S
H522 C490 0.951 . S
H523 C491 0.950 . S
H524 C495 0.949 . S
H525 C496 0.950 . S
H526 C500 0.950 . S
H527 C502 0.950 . S
H528 C505 0.950 . S
H529 C507 0.950 . S
C530 C531 1.443 . S
C530 N534 1.376 . S
C530 C568 1.389 . S
C531 C530 1.443 . S
C531 C532 1.340 . S
C531 H571 0.951 . S
C532 C531 1.340 . S
C532 C533 1.439 . S
C532 H572 0.950 . S
C533 C532 1.439 . S
C533 N534 1.374 . S
C533 C567 1.395 . S
N534 C530 1.376 . S
N534 C533 1.374 . S
N534 Co535 2.008 . S
Co535 N534 2.008 . S
Co535 N536 1.995 . S
Co535 N541 2.008 . S
Co535 N546 1.995 . S
Co535 N551 2.282 . S
Co535 N557 2.282 . S
N536 Co535 1.995 . S
N536 C537 1.376 . S
N536 C540 1.383 . S
C537 N536 1.376 . S
C537 C538 1.446 . S
C537 C567 1.391 . S
C538 C537 1.446 . S
C538 C539 1.339 . S
C538 H573 0.949 . S
C539 C538 1.339 . S
C539 C540 1.439 . S
C539 H574 0.950 . S
C540 N536 1.383 . S
C540 C539 1.439 . S
C540 C569 1.392 . S
N541 Co535 2.008 . S
N541 C542 1.376 . S
N541 C545 1.374 1_565 S
C542 N541 1.376 . S
C542 C543 1.443 1_565 S
C542 C569 1.389 . S
C543 C542 1.443 1_545 S
C543 C544 1.340 . S
C543 H575 0.951 . S
C544 C543 1.340 . S
C544 C545 1.439 . S
C544 H576 0.950 . S
C545 N541 1.374 1_545 S
C545 C544 1.439 . S
C545 C570 1.395 . S
N546 Co535 1.995 . S
N546 C547 1.376 1_565 S
N546 C550 1.383 . S
C547 N546 1.376 1_545 S
C547 C548 1.446 . S
C547 C570 1.391 . S
C548 C547 1.446 . S
C548 C549 1.339 . S
C548 H577 0.949 . S
C549 C548 1.339 . S
C549 C550 1.439 1_545 S
C549 H578 0.950 . S
C550 N546 1.383 . S
C550 C549 1.439 1_565 S
C550 C568 1.392 . S
N551 Co535 2.282 . S
N551 C554 1.332 . S
N551 C556 1.332 . S
C552 C553 1.386 . S
C552 C555 1.388 . S
C553 C552 1.386 . S
C553 C554 1.382 . S
C553 H579 0.950 1_565 S
C554 N551 1.332 . S
C554 C553 1.382 . S
C554 H565 0.952 1_565 S
C555 C552 1.388 . S
C555 C556 1.382 . S
C555 H580 0.950 . S
C556 N551 1.332 . S
C556 C555 1.382 . S
C556 H566 0.948 . S
N557 Co535 2.282 . S
N557 C561 1.332 . S
N557 C562 1.332 . S
C558 C559 1.388 . S
C558 C562 1.382 . S
C558 H581 0.950 . S
C559 C558 1.388 . S
C559 C560 1.386 . S
C560 C559 1.386 . S
C560 C561 1.382 . S
C560 H582 0.950 . S
C561 N557 1.332 . S
C561 C560 1.382 . S
C561 H563 0.952 . S
C562 N557 1.332 . S
C562 C558 1.382 . S
C562 H564 0.948 . S
H563 C561 0.952 . S
H564 C562 0.948 . S
H565 C554 0.952 1_545 S
H566 C556 0.948 . S
C567 C533 1.395 . S
C567 C537 1.391 . S
C568 C530 1.389 . S
C568 C550 1.392 . S
C569 C540 1.392 . S
C569 C542 1.389 . S
C570 C545 1.395 . S
C570 C547 1.391 . S
H571 C531 0.951 . S
H572 C532 0.950 . S
H573 C538 0.949 . S
H574 C539 0.950 . S
H575 C543 0.951 . S
H576 C544 0.950 . S
H577 C548 0.949 . S
H578 C549 0.950 . S
H579 C553 0.950 1_545 S
H580 C555 0.950 . S
H581 C558 0.950 . S
H582 C560 0.950 . S
C583 C584 1.443 1_455 S
C583 N587 1.376 . S
C583 C621 1.389 . S
C584 C583 1.443 1_655 S
C584 C585 1.340 . S
C584 H624 0.951 . S
C585 C584 1.340 . S
C585 C586 1.439 . S
C585 H625 0.950 . S
C586 C585 1.439 . S
C586 N587 1.374 1_655 S
C586 C620 1.395 . S
N587 C583 1.376 . S
N587 C586 1.374 1_455 S
N587 Co588 2.008 . S
Co588 N587 2.008 . S
Co588 N589 1.995 1_455 S
Co588 N594 2.008 . S
Co588 N599 1.995 . S
Co588 N604 2.282 . S
Co588 N610 2.282 . S
N589 Co588 1.995 1_655 S
N589 C590 1.376 . S
N589 C593 1.383 . S
C590 N589 1.376 . S
C590 C591 1.446 . S
C590 C620 1.391 . S
C591 C590 1.446 . S
C591 C592 1.339 . S
C591 H626 0.949 . S
C592 C591 1.339 . S
C592 C593 1.439 . S
C592 H627 0.950 . S
C593 N589 1.383 . S
C593 C592 1.439 . S
C593 C622 1.392 1_655 S
N594 Co588 2.008 . S
N594 C595 1.376 . S
N594 C598 1.374 . S
C595 N594 1.376 . S
C595 C596 1.443 . S
C595 C622 1.389 . S
C596 C595 1.443 . S
C596 C597 1.340 . S
C596 H628 0.951 . S
C597 C596 1.340 . S
C597 C598 1.439 . S
C597 H629 0.950 . S
C598 N594 1.374 . S
C598 C597 1.439 . S
C598 C623 1.395 . S
N599 Co588 1.995 . S
N599 C600 1.376 . S
N599 C603 1.383 . S
C600 N599 1.376 . S
C600 C601 1.446 . S
C600 C623 1.391 . S
C601 C600 1.446 . S
C601 C602 1.339 . S
C601 H630 0.949 . S
C602 C601 1.339 . S
C602 C603 1.439 . S
C602 H631 0.950 . S
C603 N599 1.383 . S
C603 C602 1.439 . S
C603 C621 1.392 . S
N604 Co588 2.282 . S
N604 C607 1.332 . S
N604 C609 1.332 . S
C605 C606 1.386 . S
C605 C608 1.388 . S
C606 C605 1.386 . S
C606 C607 1.382 . S
C606 H632 0.950 . S
C607 N604 1.332 . S
C607 C606 1.382 . S
C607 H618 0.952 . S
C608 C605 1.388 . S
C608 C609 1.382 . S
C608 H633 0.950 1_455 S
C609 N604 1.332 . S
C609 C608 1.382 . S
C609 H619 0.948 1_455 S
N610 Co588 2.282 . S
N610 C614 1.332 . S
N610 C615 1.332 . S
C611 C612 1.388 . S
C611 C615 1.382 . S
C611 H634 0.950 . S
C612 C611 1.388 . S
C612 C613 1.386 . S
C613 C612 1.386 . S
C613 C614 1.382 . S
C613 H635 0.950 1_455 S
C614 N610 1.332 . S
C614 C613 1.382 . S
C614 H616 0.952 1_455 S
C615 N610 1.332 . S
C615 C611 1.382 . S
C615 H617 0.948 . S
H616 C614 0.952 1_655 S
H617 C615 0.948 . S
H618 C607 0.952 . S
H619 C609 0.948 1_655 S
C620 C586 1.395 . S
C620 C590 1.391 . S
C621 C583 1.389 . S
C621 C603 1.392 . S
C622 C593 1.392 1_455 S
C622 C595 1.389 . S
C623 C598 1.395 . S
C623 C600 1.391 . S
H624 C584 0.951 . S
H625 C585 0.950 . S
H626 C591 0.949 . S
H627 C592 0.950 . S
H628 C596 0.951 . S
H629 C597 0.950 . S
H630 C601 0.949 . S
H631 C602 0.950 . S
H632 C606 0.950 . S
H633 C608 0.950 1_655 S
H634 C611 0.950 . S
H635 C613 0.950 1_655 S
C636 C637 1.443 . S
C636 N640 1.376 . S
C636 C674 1.389 . S
C637 C636 1.443 . S
C637 C638 1.340 . S
C637 H677 0.951 . S
C638 C637 1.340 . S
C638 C639 1.439 . S
C638 H678 0.950 . S
C639 C638 1.439 . S
C639 N640 1.374 . S
C639 C673 1.395 . S
N640 C636 1.376 . S
N640 C639 1.374 . S
N640 Co641 2.008 . S
Co641 N640 2.008 . S
Co641 N642 1.995 . S
Co641 N647 2.008 . S
Co641 N652 1.995 . S
Co641 N657 2.282 . S
Co641 N663 2.282 . S
N642 Co641 1.995 . S
N642 C643 1.376 . S
N642 C646 1.383 . S
C643 N642 1.376 . S
C643 C644 1.446 . S
C643 C673 1.391 . S
C644 C643 1.446 . S
C644 C645 1.339 . S
C644 H679 0.949 . S
C645 C644 1.339 . S
C645 C646 1.439 . S
C645 H680 0.950 . S
C646 N642 1.383 . S
C646 C645 1.439 . S
C646 C675 1.392 . S
N647 Co641 2.008 . S
N647 C648 1.376 . S
N647 C651 1.374 1_565 S
C648 N647 1.376 . S
C648 C649 1.443 1_565 S
C648 C675 1.389 . S
C649 C648 1.443 1_545 S
C649 C650 1.340 . S
C649 H681 0.951 . S
C650 C649 1.340 . S
C650 C651 1.439 . S
C650 H682 0.950 . S
C651 N647 1.374 1_545 S
C651 C650 1.439 . S
C651 C676 1.395 . S
N652 Co641 1.995 . S
N652 C653 1.376 1_565 S
N652 C656 1.383 . S
C653 N652 1.376 1_545 S
C653 C654 1.446 . S
C653 C676 1.391 . S
C654 C653 1.446 . S
C654 C655 1.339 . S
C654 H683 0.949 . S
C655 C654 1.339 . S
C655 C656 1.439 1_545 S
C655 H684 0.950 . S
C656 N652 1.383 . S
C656 C655 1.439 1_565 S
C656 C674 1.392 . S
N657 Co641 2.282 . S
N657 C660 1.332 . S
N657 C662 1.332 . S
C658 C659 1.386 . S
C658 C661 1.388 . S
C659 C658 1.386 . S
C659 C660 1.382 . S
C659 H685 0.950 1_565 S
C660 N657 1.332 . S
C660 C659 1.382 . S
C660 H671 0.952 1_565 S
C661 C658 1.388 . S
C661 C662 1.382 . S
C661 H686 0.950 . S
C662 N657 1.332 . S
C662 C661 1.382 . S
C662 H672 0.948 . S
N663 Co641 2.282 . S
N663 C667 1.332 . S
N663 C668 1.332 . S
C664 C665 1.388 . S
C664 C668 1.382 . S
C664 H687 0.950 . S
C665 C664 1.388 . S
C665 C666 1.386 . S
C666 C665 1.386 . S
C666 C667 1.382 . S
C666 H688 0.950 . S
C667 N663 1.332 . S
C667 C666 1.382 . S
C667 H669 0.952 . S
C668 N663 1.332 . S
C668 C664 1.382 . S
C668 H670 0.948 . S
H669 C667 0.952 . S
H670 C668 0.948 . S
H671 C660 0.952 1_545 S
H672 C662 0.948 . S
C673 C639 1.395 . S
C673 C643 1.391 . S
C674 C636 1.389 . S
C674 C656 1.392 . S
C675 C646 1.392 . S
C675 C648 1.389 . S
C676 C651 1.395 . S
C676 C653 1.391 . S
H677 C637 0.951 . S
H678 C638 0.950 . S
H679 C644 0.949 . S
H680 C645 0.950 . S
H681 C649 0.951 . S
H682 C650 0.950 . S
H683 C654 0.949 . S
H684 C655 0.950 . S
H685 C659 0.950 1_545 S
H686 C661 0.950 . S
H687 C664 0.950 . S
H688 C666 0.950 . S
C689 C690 1.443 1_455 S
C689 N693 1.376 . S
C689 C727 1.389 . S
C690 C689 1.443 1_655 S
C690 C691 1.340 . S
C690 H730 0.951 . S
C691 C690 1.340 . S
C691 C692 1.439 . S
C691 H731 0.950 . S
C692 C691 1.439 . S
C692 N693 1.374 1_655 S
C692 C726 1.395 . S
N693 C689 1.376 . S
N693 C692 1.374 1_455 S
N693 Co694 2.008 . S
Co694 N693 2.008 . S
Co694 N695 1.995 1_455 S
Co694 N700 2.008 . S
Co694 N705 1.995 . S
Co694 N710 2.282 . S
Co694 N716 2.282 . S
N695 Co694 1.995 1_655 S
N695 C696 1.376 . S
N695 C699 1.383 . S
C696 N695 1.376 . S
C696 C697 1.446 . S
C696 C726 1.391 . S
C697 C696 1.446 . S
C697 C698 1.339 . S
C697 H732 0.949 . S
C698 C697 1.339 . S
C698 C699 1.439 . S
C698 H733 0.950 . S
C699 N695 1.383 . S
C699 C698 1.439 . S
C699 C728 1.392 1_655 S
N700 Co694 2.008 . S
N700 C701 1.376 . S
N700 C704 1.374 . S
C701 N700 1.376 . S
C701 C702 1.443 . S
C701 C728 1.389 . S
C702 C701 1.443 . S
C702 C703 1.340 . S
C702 H734 0.951 . S
C703 C702 1.340 . S
C703 C704 1.439 . S
C703 H735 0.950 . S
C704 N700 1.374 . S
C704 C703 1.439 . S
C704 C729 1.395 . S
N705 Co694 1.995 . S
N705 C706 1.376 . S
N705 C709 1.383 . S
C706 N705 1.376 . S
C706 C707 1.446 . S
C706 C729 1.391 . S
C707 C706 1.446 . S
C707 C708 1.339 . S
C707 H736 0.949 . S
C708 C707 1.339 . S
C708 C709 1.439 . S
C708 H737 0.950 . S
C709 N705 1.383 . S
C709 C708 1.439 . S
C709 C727 1.392 . S
N710 Co694 2.282 . S
N710 C713 1.332 . S
N710 C715 1.332 . S
C711 C712 1.386 . S
C711 C714 1.388 . S
C712 C711 1.386 . S
C712 C713 1.382 . S
C712 H738 0.950 . S
C713 N710 1.332 . S
C713 C712 1.382 . S
C713 H724 0.952 . S
C714 C711 1.388 . S
C714 C715 1.382 . S
C714 H739 0.950 1_455 S
C715 N710 1.332 . S
C715 C714 1.382 . S
C715 H725 0.948 1_455 S
N716 Co694 2.282 . S
N716 C720 1.332 . S
N716 C721 1.332 . S
C717 C718 1.388 . S
C717 C721 1.382 . S
C717 H740 0.950 . S
C718 C717 1.388 . S
C718 C719 1.386 . S
C719 C718 1.386 . S
C719 C720 1.382 . S
C719 H741 0.950 1_455 S
C720 N716 1.332 . S
C720 C719 1.382 . S
C720 H722 0.952 1_455 S
C721 N716 1.332 . S
C721 C717 1.382 . S
C721 H723 0.948 . S
H722 C720 0.952 1_655 S
H723 C721 0.948 . S
H724 C713 0.952 . S
H725 C715 0.948 1_655 S
C726 C692 1.395 . S
C726 C696 1.391 . S
C727 C689 1.389 . S
C727 C709 1.392 . S
C728 C699 1.392 1_455 S
C728 C701 1.389 . S
C729 C704 1.395 . S
C729 C706 1.391 . S
H730 C690 0.951 . S
H731 C691 0.950 . S
H732 C697 0.949 . S
H733 C698 0.950 . S
H734 C702 0.951 . S
H735 C703 0.950 . S
H736 C707 0.949 . S
H737 C708 0.950 . S
H738 C712 0.950 . S
H739 C714 0.950 1_655 S
H740 C717 0.950 . S
H741 C719 0.950 1_655 S
C742 C743 1.443 . S
C742 N746 1.376 . S
C742 C780 1.389 . S
C743 C742 1.443 . S
C743 C744 1.340 . S
C743 H783 0.951 . S
C744 C743 1.340 . S
C744 C745 1.439 . S
C744 H784 0.950 . S
C745 C744 1.439 . S
C745 N746 1.374 . S
C745 C779 1.395 . S
N746 C742 1.376 . S
N746 C745 1.374 . S
N746 Co747 2.008 . S
Co747 N746 2.008 . S
Co747 N748 1.995 . S
Co747 N753 2.008 . S
Co747 N758 1.995 . S
Co747 N763 2.282 . S
Co747 N769 2.282 . S
N748 Co747 1.995 . S
N748 C749 1.376 . S
N748 C752 1.383 . S
C749 N748 1.376 . S
C749 C750 1.446 . S
C749 C779 1.391 . S
C750 C749 1.446 . S
C750 C751 1.339 . S
C750 H785 0.949 . S
C751 C750 1.339 . S
C751 C752 1.439 . S
C751 H786 0.950 . S
C752 N748 1.383 . S
C752 C751 1.439 . S
C752 C781 1.392 . S
N753 Co747 2.008 . S
N753 C754 1.376 . S
N753 C757 1.374 . S
C754 N753 1.376 . S
C754 C755 1.443 . S
C754 C781 1.389 . S
C755 C754 1.443 . S
C755 C756 1.340 . S
C755 H787 0.951 . S
C756 C755 1.340 . S
C756 C757 1.439 . S
C756 H788 0.950 . S
C757 N753 1.374 . S
C757 C756 1.439 . S
C757 C782 1.395 . S
N758 Co747 1.995 . S
N758 C759 1.376 . S
N758 C762 1.383 . S
C759 N758 1.376 . S
C759 C760 1.446 . S
C759 C782 1.391 . S
C760 C759 1.446 . S
C760 C761 1.339 . S
C760 H789 0.949 . S
C761 C760 1.339 . S
C761 C762 1.439 . S
C761 H790 0.950 . S
C762 N758 1.383 . S
C762 C761 1.439 . S
C762 C780 1.392 . S
N763 Co747 2.282 . S
N763 C766 1.332 . S
N763 C768 1.332 . S
C764 C765 1.386 . S
C764 C767 1.388 . S
C765 C764 1.386 . S
C765 C766 1.382 . S
C765 H791 0.950 . S
C766 N763 1.332 . S
C766 C765 1.382 . S
C766 H777 0.952 . S
C767 C764 1.388 . S
C767 C768 1.382 . S
C767 H792 0.950 . S
C768 N763 1.332 . S
C768 C767 1.382 . S
C768 H778 0.948 . S
N769 Co747 2.282 . S
N769 C773 1.332 . S
N769 C774 1.332 . S
C770 C771 1.388 . S
C770 C774 1.382 . S
C770 H793 0.950 . S
C771 C770 1.388 . S
C771 C772 1.386 . S
C772 C771 1.386 . S
C772 C773 1.382 . S
C772 H794 0.950 . S
C773 N769 1.332 . S
C773 C772 1.382 . S
C773 H775 0.952 . S
C774 N769 1.332 . S
C774 C770 1.382 . S
C774 H776 0.948 . S
H775 C773 0.952 . S
H776 C774 0.948 . S
H777 C766 0.952 . S
H778 C768 0.948 . S
C779 C745 1.395 . S
C779 C749 1.391 . S
C780 C742 1.389 . S
C780 C762 1.392 . S
C781 C752 1.392 . S
C781 C754 1.389 . S
C782 C757 1.395 . S
C782 C759 1.391 . S
H783 C743 0.951 . S
H784 C744 0.950 . S
H785 C750 0.949 . S
H786 C751 0.950 . S
H787 C755 0.951 . S
H788 C756 0.950 . S
H789 C760 0.949 . S
H790 C761 0.950 . S
H791 C765 0.950 . S
H792 C767 0.950 . S
H793 C770 0.950 . S
H794 C772 0.950 . S
C795 C796 1.443 . S
C795 N799 1.376 . S
C795 C833 1.389 . S
C796 C795 1.443 . S
C796 C797 1.340 . S
C796 H836 0.951 . S
C797 C796 1.340 . S
C797 C798 1.439 . S
C797 H837 0.950 . S
C798 C797 1.439 . S
C798 N799 1.374 . S
C798 C832 1.395 . S
N799 C795 1.376 . S
N799 C798 1.374 . S
N799 Co800 2.008 . S
Co800 N799 2.008 . S
Co800 N801 1.995 . S
Co800 N806 2.008 . S
Co800 N811 1.995 . S
Co800 N816 2.282 . S
Co800 N822 2.282 . S
N801 Co800 1.995 . S
N801 C802 1.376 . S
N801 C805 1.383 . S
C802 N801 1.376 . S
C802 C803 1.446 . S
C802 C832 1.391 . S
C803 C802 1.446 . S
C803 C804 1.339 . S
C803 H838 0.949 . S
C804 C803 1.339 . S
C804 C805 1.439 . S
C804 H839 0.950 . S
C805 N801 1.383 . S
C805 C804 1.439 . S
C805 C834 1.392 . S
N806 Co800 2.008 . S
N806 C807 1.376 . S
N806 C810 1.374 . S
C807 N806 1.376 . S
C807 C808 1.443 . S
C807 C834 1.389 . S
C808 C807 1.443 . S
C808 C809 1.340 . S
C808 H840 0.951 . S
C809 C808 1.340 . S
C809 C810 1.439 . S
C809 H841 0.950 . S
C810 N806 1.374 . S
C810 C809 1.439 . S
C810 C835 1.395 . S
N811 Co800 1.995 . S
N811 C812 1.376 . S
N811 C815 1.383 . S
C812 N811 1.376 . S
C812 C813 1.446 . S
C812 C835 1.391 . S
C813 C812 1.446 . S
C813 C814 1.339 . S
C813 H842 0.949 . S
C814 C813 1.339 . S
C814 C815 1.439 . S
C814 H843 0.950 . S
C815 N811 1.383 . S
C815 C814 1.439 . S
C815 C833 1.392 . S
N816 Co800 2.282 . S
N816 C819 1.332 . S
N816 C821 1.332 . S
C817 C818 1.386 . S
C817 C820 1.388 . S
C818 C817 1.386 . S
C818 C819 1.382 . S
C818 H844 0.950 . S
C819 N816 1.332 . S
C819 C818 1.382 . S
C819 H830 0.952 . S
C820 C817 1.388 . S
C820 C821 1.382 . S
C820 H845 0.950 . S
C821 N816 1.332 . S
C821 C820 1.382 . S
C821 H831 0.948 . S
N822 Co800 2.282 . S
N822 C826 1.332 . S
N822 C827 1.332 . S
C823 C824 1.388 . S
C823 C827 1.382 . S
C823 H846 0.950 . S
C824 C823 1.388 . S
C824 C825 1.386 . S
C825 C824 1.386 . S
C825 C826 1.382 . S
C825 H847 0.950 . S
C826 N822 1.332 . S
C826 C825 1.382 . S
C826 H828 0.952 . S
C827 N822 1.332 . S
C827 C823 1.382 . S
C827 H829 0.948 . S
H828 C826 0.952 . S
H829 C827 0.948 . S
H830 C819 0.952 . S
H831 C821 0.948 . S
C832 C798 1.395 . S
C832 C802 1.391 . S
C833 C795 1.389 . S
C833 C815 1.392 . S
C834 C805 1.392 . S
C834 C807 1.389 . S
C835 C810 1.395 . S
C835 C812 1.391 . S
H836 C796 0.951 . S
H837 C797 0.950 . S
H838 C803 0.949 . S
H839 C804 0.950 . S
H840 C808 0.951 . S
H841 C809 0.950 . S
H842 C813 0.949 . S
H843 C814 0.950 . S
H844 C818 0.950 . S
H845 C820 0.950 . S
H846 C823 0.950 . S
H847 C825 0.950 . S
H848 C860 0.930 . S
H849 C862 0.930 . S
H850 C863 0.930 . S
H851 C867 0.959 . S
H852 C867 0.959 . S
H853 C867 0.961 . S
H854 C868 0.960 1_655 S
H855 C868 0.961 1_545 S
H856 C868 0.959 . S
H857 C871 0.929 . S
H858 C872 0.931 . S
H859 C874 0.930 . S
C860 H848 0.930 . S
C860 C861 1.399 . S
C860 C865 1.399 . S
C861 C860 1.399 . S
C861 C862 1.376 . S
C862 H849 0.930 . S
C862 C861 1.376 . S
C862 C863 1.388 . S
C863 H850 0.930 . S
C863 C862 1.388 . S
C863 C864 1.390 . S
C864 C863 1.390 . S
C864 C865 1.394 . S
C864 C870 1.465 1_655 S
C865 C860 1.399 . S
C865 C864 1.394 . S
C865 C866 1.516 1_565 S
C866 C865 1.516 1_545 S
C866 C867 1.502 . S
C866 C868 1.561 1_645 S
C866 C869 1.526 1_655 S
C867 H851 0.959 . S
C867 H852 0.959 . S
C867 H853 0.961 . S
C867 C866 1.502 . S
C868 H854 0.960 1_455 S
C868 H855 0.961 1_565 S
C868 H856 0.959 . S
C868 C866 1.561 1_465 S
C869 C866 1.526 1_455 S
C869 C870 1.396 1_545 S
C869 C874 1.390 . S
C870 C864 1.465 1_455 S
C870 C869 1.396 1_565 S
C870 C871 1.399 . S
C871 H857 0.929 . S
C871 C870 1.399 . S
C871 C872 1.385 1_565 S
C872 H858 0.931 . S
C872 C871 1.385 1_545 S
C872 C873 1.389 . S
C873 C872 1.389 . S
C873 C874 1.387 . S
C874 H859 0.930 . S
C874 C869 1.390 . S
C874 C873 1.387 . S
H875 C887 0.930 . S
H876 C889 0.930 . S
H877 C890 0.930 . S
H878 C894 0.959 . S
H879 C894 0.959 . S
H880 C894 0.961 . S
H881 C895 0.960 . S
H882 C895 0.961 . S
H883 C895 0.959 . S
H884 C898 0.929 . S
H885 C899 0.931 . S
H886 C901 0.930 . S
C887 H875 0.930 . S
C887 C888 1.399 . S
C887 C892 1.399 . S
C888 C887 1.399 . S
C888 C889 1.376 . S
C889 H876 0.930 . S
C889 C888 1.376 . S
C889 C890 1.388 . S
C890 H877 0.930 . S
C890 C889 1.388 . S
C890 C891 1.390 . S
C891 C890 1.390 . S
C891 C892 1.394 . S
C891 C897 1.465 . S
C892 C887 1.399 . S
C892 C891 1.394 . S
C892 C893 1.516 1_655 S
C893 C892 1.516 1_455 S
C893 C894 1.502 . S
C893 C895 1.561 1_455 S
C893 C896 1.526 . S
C894 H878 0.959 . S
C894 H879 0.959 . S
C894 H880 0.961 . S
C894 C893 1.502 . S
C895 H881 0.960 . S
C895 H882 0.961 . S
C895 H883 0.959 . S
C895 C893 1.561 1_655 S
C896 C893 1.526 . S
C896 C897 1.396 1_455 S
C896 C901 1.390 . S
C897 C891 1.465 . S
C897 C896 1.396 1_655 S
C897 C898 1.399 . S
C898 H884 0.929 . S
C898 C897 1.399 . S
C898 C899 1.385 1_655 S
C899 H885 0.931 . S
C899 C898 1.385 1_455 S
C899 C900 1.389 . S
C900 C899 1.389 . S
C900 C901 1.387 . S
C901 H886 0.930 . S
C901 C896 1.390 . S
C901 C900 1.387 . S
H902 C914 0.930 . S
H903 C916 0.930 . S
H904 C917 0.930 . S
H905 C921 0.959 . S
H906 C921 0.959 . S
H907 C921 0.961 . S
H908 C922 0.960 . S
H909 C922 0.961 . S
H910 C922 0.959 . S
H911 C925 0.929 . S
H912 C926 0.931 . S
H913 C928 0.930 . S
C914 H902 0.930 . S
C914 C915 1.399 . S
C914 C919 1.399 . S
C915 C914 1.399 . S
C915 C916 1.376 . S
C916 H903 0.930 . S
C916 C915 1.376 . S
C916 C917 1.388 . S
C917 H904 0.930 . S
C917 C916 1.388 . S
C917 C918 1.390 . S
C918 C917 1.390 . S
C918 C919 1.394 . S
C918 C924 1.465 . S
C919 C914 1.399 . S
C919 C918 1.394 . S
C919 C920 1.516 . S
C920 C919 1.516 . S
C920 C921 1.502 . S
C920 C922 1.561 . S
C920 C923 1.526 . S
C921 H905 0.959 . S
C921 H906 0.959 . S
C921 H907 0.961 . S
C921 C920 1.502 . S
C922 H908 0.960 . S
C922 H909 0.961 . S
C922 H910 0.959 . S
C922 C920 1.561 . S
C923 C920 1.526 . S
C923 C924 1.396 . S
C923 C928 1.390 . S
C924 C918 1.465 . S
C924 C923 1.396 . S
C924 C925 1.399 . S
C925 H911 0.929 . S
C925 C924 1.399 . S
C925 C926 1.385 . S
C926 H912 0.931 . S
C926 C925 1.385 . S
C926 C927 1.389 . S
C927 C926 1.389 . S
C927 C928 1.387 . S
C928 H913 0.930 . S
C928 C923 1.390 . S
C928 C927 1.387 . S
H929 C941 0.930 . S
H930 C943 0.930 . S
H931 C944 0.930 . S
H932 C948 0.959 . S
H933 C948 0.959 . S
H934 C948 0.961 . S
H935 C949 0.945 1_545 S
H936 C949 0.978 . S
H937 C949 0.954 1_545 S
H938 C952 0.929 . S
H939 C953 0.931 . S
H940 C955 0.930 . S
C941 H929 0.930 . S
C941 C942 1.399 . S
C941 C946 1.399 . S
C942 C941 1.399 . S
C942 C943 1.376 . S
C943 H930 0.930 . S
C943 C942 1.376 . S
C943 C944 1.388 . S
C944 H931 0.930 . S
C944 C943 1.388 . S
C944 C945 1.390 . S
C945 C944 1.390 . S
C945 C946 1.394 . S
C945 C951 1.465 1_545 S
C946 C941 1.399 . S
C946 C945 1.394 . S
C946 C947 1.516 1_545 S
C947 C946 1.516 1_565 S
C947 C948 1.502 . S
C947 C949 1.564 . S
C947 C950 1.526 . S
C948 H932 0.959 . S
C948 H933 0.959 . S
C948 H934 0.961 . S
C948 C947 1.502 . S
C949 H935 0.945 1_565 S
C949 H936 0.978 . S
C949 H937 0.954 1_565 S
C949 C947 1.564 . S
C950 C947 1.526 . S
C950 C951 1.396 . S
C950 C955 1.390 . S
C951 C945 1.465 1_565 S
C951 C950 1.396 . S
C951 C952 1.399 . S
C952 H938 0.929 . S
C952 C951 1.399 . S
C952 C953 1.385 . S
C953 H939 0.931 . S
C953 C952 1.385 . S
C953 C954 1.389 . S
C954 C953 1.389 . S
C954 C955 1.387 . S
C955 H940 0.930 . S
C955 C950 1.390 . S
C955 C954 1.387 . S
H956 C968 0.930 . S
H957 C970 0.930 . S
H958 C971 0.930 . S
H959 C975 0.959 . S
H960 C975 0.959 . S
H961 C975 0.961 1_455 S
H962 C976 0.960 . S
H963 C976 0.961 . S
H964 C976 0.959 . S
H965 C979 0.929 . S
H966 C980 0.931 . S
H967 C982 0.930 . S
C968 H956 0.930 . S
C968 C969 1.399 . S
C968 C973 1.399 . S
C969 C968 1.399 . S
C969 C970 1.376 . S
C970 H957 0.930 . S
C970 C969 1.376 . S
C970 C971 1.388 . S
C971 H958 0.930 . S
C971 C970 1.388 . S
C971 C972 1.390 . S
C972 C971 1.390 . S
C972 C973 1.394 . S
C972 C978 1.465 1_455 S
C973 C968 1.399 . S
C973 C972 1.394 . S
C973 C974 1.516 . S
C974 C973 1.516 . S
C974 C975 1.502 1_455 S
C974 C976 1.561 . S
C974 C977 1.526 1_455 S
C975 H959 0.959 . S
C975 H960 0.959 . S
C975 H961 0.961 1_655 S
C975 C974 1.502 1_655 S
C976 H962 0.960 . S
C976 H963 0.961 . S
C976 H964 0.959 . S
C976 C974 1.561 . S
C977 C974 1.526 1_655 S
C977 C978 1.396 . S
C977 C982 1.390 . S
C978 C972 1.465 1_655 S
C978 C977 1.396 . S
C978 C979 1.399 . S
C979 H965 0.929 . S
C979 C978 1.399 . S
C979 C980 1.385 . S
C980 H966 0.931 . S
C980 C979 1.385 . S
C980 C981 1.389 . S
C981 C980 1.389 . S
C981 C982 1.387 . S
C982 H967 0.930 . S
C982 C977 1.390 . S
C982 C981 1.387 . S
H983 C995 0.930 . S
H984 C997 0.930 . S
H985 C998 0.930 . S
H986 C1002 0.959 . S
H987 C1002 0.959 . S
H988 C1002 0.961 . S
H989 C1003 0.960 . S
H990 C1003 0.961 . S
H991 C1003 0.959 . S
H992 C1006 0.929 . S
H993 C1007 0.931 . S
H994 C1009 0.930 . S
C995 H983 0.930 . S
C995 C996 1.399 . S
C995 C1000 1.399 . S
C996 C995 1.399 . S
C996 C997 1.376 . S
C997 H984 0.930 . S
C997 C996 1.376 . S
C997 C998 1.388 . S
C998 H985 0.930 . S
C998 C997 1.388 . S
C998 C999 1.390 . S
C999 C998 1.390 . S
C999 C1000 1.394 . S
C999 C1005 1.465 . S
C1000 C995 1.399 . S
C1000 C999 1.394 . S
C1000 C1001 1.516 . S
C1001 C1000 1.516 . S
C1001 C1002 1.502 . S
C1001 C1003 1.561 . S
C1001 C1004 1.526 . S
C1002 H986 0.959 . S
C1002 H987 0.959 . S
C1002 H988 0.961 . S
C1002 C1001 1.502 . S
C1003 H989 0.960 . S
C1003 H990 0.961 . S
C1003 H991 0.959 . S
C1003 C1001 1.561 . S
C1004 C1001 1.526 . S
C1004 C1005 1.396 . S
C1004 C1009 1.390 . S
C1005 C999 1.465 . S
C1005 C1004 1.396 . S
C1005 C1006 1.399 . S
C1006 H992 0.929 . S
C1006 C1005 1.399 . S
C1006 C1007 1.385 . S
C1007 H993 0.931 . S
C1007 C1006 1.385 . S
C1007 C1008 1.389 . S
C1008 C1007 1.389 . S
C1008 C1009 1.387 . S
C1009 H994 0.930 . S
C1009 C1004 1.390 . S
C1009 C1008 1.387 . S
H1010 C1022 0.930 . S
H1011 C1024 0.930 . S
H1012 C1025 0.930 . S
H1013 C1029 0.959 . S
H1014 C1029 0.959 1_565 S
H1015 C1029 0.961 . S
H1016 C1030 0.960 . S
H1017 C1030 0.961 . S
H1018 C1030 0.959 . S
H1019 C1033 0.929 . S
H1020 C1034 0.931 . S
H1021 C1036 0.930 . S
C1022 H1010 0.930 . S
C1022 C1023 1.399 . S
C1022 C1027 1.399 . S
C1023 C1022 1.399 . S
C1023 C1024 1.376 . S
C1024 H1011 0.930 . S
C1024 C1023 1.376 . S
C1024 C1025 1.388 . S
C1025 H1012 0.930 . S
C1025 C1024 1.388 . S
C1025 C1026 1.390 . S
C1026 C1025 1.390 . S
C1026 C1027 1.394 . S
C1026 C1032 1.465 1_545 S
C1027 C1022 1.399 . S
C1027 C1026 1.394 . S
C1027 C1028 1.516 1_545 S
C1028 C1027 1.516 1_565 S
C1028 C1029 1.502 1_565 S
C1028 C1030 1.561 . S
C1028 C1031 1.526 . S
C1029 H1013 0.959 . S
C1029 H1014 0.959 1_545 S
C1029 H1015 0.961 . S
C1029 C1028 1.502 1_545 S
C1030 H1016 0.960 . S
C1030 H1017 0.961 . S
C1030 H1018 0.959 . S
C1030 C1028 1.561 . S
C1031 C1028 1.526 . S
C1031 C1032 1.396 . S
C1031 C1036 1.390 . S
C1032 C1026 1.465 1_565 S
C1032 C1031 1.396 . S
C1032 C1033 1.399 . S
C1033 H1019 0.929 . S
C1033 C1032 1.399 . S
C1033 C1034 1.385 . S
C1034 H1020 0.931 . S
C1034 C1033 1.385 . S
C1034 C1035 1.389 . S
C1035 C1034 1.389 . S
C1035 C1036 1.387 . S
C1036 H1021 0.930 . S
C1036 C1031 1.390 . S
C1036 C1035 1.387 . S
H1037 C1049 0.930 . S
H1038 C1051 0.930 . S
H1039 C1052 0.930 . S
H1040 C1056 0.959 . S
H1041 C1056 0.959 . S
H1042 C1056 0.961 . S
H1043 C1057 0.960 1_545 S
H1044 C1057 0.961 . S
H1045 C1057 0.959 . S
H1046 C1060 0.929 . S
H1047 C1061 0.931 . S
H1048 C1063 0.930 1_455 S
C1049 H1037 0.930 . S
C1049 C1050 1.399 . S
C1049 C1054 1.399 . S
C1050 C1049 1.399 . S
C1050 C1051 1.376 1_455 S
C1051 H1038 0.930 . S
C1051 C1050 1.376 1_655 S
C1051 C1052 1.388 . S
C1052 H1039 0.930 . S
C1052 C1051 1.388 . S
C1052 C1053 1.390 . S
C1053 C1052 1.390 . S
C1053 C1054 1.394 1_655 S
C1053 C1059 1.465 1_545 S
C1054 C1049 1.399 . S
C1054 C1053 1.394 1_455 S
C1054 C1055 1.516 1_545 S
C1055 C1054 1.516 1_565 S
C1055 C1056 1.502 . S
C1055 C1057 1.561 . S
C1055 C1058 1.526 . S
C1056 H1040 0.959 . S
C1056 H1041 0.959 . S
C1056 H1042 0.961 . S
C1056 C1055 1.502 . S
C1057 H1043 0.960 1_565 S
C1057 H1044 0.961 . S
C1057 H1045 0.959 . S
C1057 C1055 1.561 . S
C1058 C1055 1.526 . S
C1058 C1059 1.396 1_455 S
C1058 C1063 1.390 1_455 S
C1059 C1053 1.465 1_565 S
C1059 C1058 1.396 1_655 S
C1059 C1060 1.399 . S
C1060 H1046 0.929 . S
C1060 C1059 1.399 . S
C1060 C1061 1.385 . S
C1061 H1047 0.931 . S
C1061 C1060 1.385 . S
C1061 C1062 1.389 . S
C1062 C1061 1.389 . S
C1062 C1063 1.387 . S
C1063 H1048 0.930 1_655 S
C1063 C1058 1.390 1_655 S
C1063 C1062 1.387 . S
H1064 C1076 0.930 . S
H1065 C1078 0.930 . S
H1066 C1079 0.930 . S
H1067 C1083 0.959 . S
H1068 C1083 0.959 . S
H1069 C1083 0.961 . S
H1070 C1084 0.960 . S
H1071 C1084 0.961 . S
H1072 C1084 0.959 1_565 S
H1073 C1087 0.929 . S
H1074 C1088 0.931 . S
H1075 C1090 0.930 . S
C1076 H1064 0.930 . S
C1076 C1077 1.399 . S
C1076 C1081 1.399 . S
C1077 C1076 1.399 . S
C1077 C1078 1.376 . S
C1078 H1065 0.930 . S
C1078 C1077 1.376 . S
C1078 C1079 1.388 . S
C1079 H1066 0.930 . S
C1079 C1078 1.388 . S
C1079 C1080 1.390 . S
C1080 C1079 1.390 . S
C1080 C1081 1.394 . S
C1080 C1086 1.465 . S
C1081 C1076 1.399 . S
C1081 C1080 1.394 . S
C1081 C1082 1.516 1_565 S
C1082 C1081 1.516 1_545 S
C1082 C1083 1.502 . S
C1082 C1084 1.561 . S
C1082 C1085 1.526 . S
C1083 H1067 0.959 . S
C1083 H1068 0.959 . S
C1083 H1069 0.961 . S
C1083 C1082 1.502 . S
C1084 H1070 0.960 . S
C1084 H1071 0.961 . S
C1084 H1072 0.959 1_545 S
C1084 C1082 1.561 . S
C1085 C1082 1.526 . S
C1085 C1086 1.396 1_545 S
C1085 C1090 1.390 . S
C1086 C1080 1.465 . S
C1086 C1085 1.396 1_565 S
C1086 C1087 1.399 . S
C1087 H1073 0.929 . S
C1087 C1086 1.399 . S
C1087 C1088 1.385 1_565 S
C1088 H1074 0.931 . S
C1088 C1087 1.385 1_545 S
C1088 C1089 1.389 . S
C1089 C1088 1.389 . S
C1089 C1090 1.387 . S
C1090 H1075 0.930 . S
C1090 C1085 1.390 . S
C1090 C1089 1.387 . S
H1091 C1103 0.930 . S
H1092 C1105 0.930 . S
H1093 C1106 0.930 . S
H1094 C1110 0.959 . S
H1095 C1110 0.967 . S
H1096 C1110 0.961 . S
H1097 C1111 0.960 1_565 S
H1098 C1111 0.961 . S
H1099 C1111 0.959 . S
H1100 C1114 0.934 . S
H1101 C1115 0.931 . S
H1102 C1117 0.930 . S
C1103 H1091 0.930 . S
C1103 C1104 1.399 . S
C1103 C1108 1.399 . S
C1104 C1103 1.399 . S
C1104 C1105 1.376 . S
C1105 H1092 0.930 . S
C1105 C1104 1.376 . S
C1105 C1106 1.388 . S
C1106 H1093 0.930 . S
C1106 C1105 1.388 . S
C1106 C1107 1.390 . S
C1107 C1106 1.390 . S
C1107 C1108 1.394 . S
C1107 C1113 1.465 1_565 S
C1108 C1103 1.399 . S
C1108 C1107 1.394 . S
C1108 C1109 1.516 1_655 S
C1109 C1108 1.516 1_455 S
C1109 C1110 1.502 . S
C1109 C1111 1.561 1_465 S
C1109 C1112 1.526 1_565 S
C1110 H1094 0.959 . S
C1110 H1095 0.967 . S
C1110 H1096 0.961 . S
C1110 C1109 1.502 . S
C1111 H1097 0.960 1_545 S
C1111 H1098 0.961 . S
C1111 H1099 0.959 . S
C1111 C1109 1.561 1_645 S
C1112 C1109 1.526 1_545 S
C1112 C1113 1.396 1_455 S
C1112 C1117 1.390 . S
C1113 C1107 1.465 1_545 S
C1113 C1112 1.396 1_655 S
C1113 C1114 1.399 . S
C1114 H1100 0.934 . S
C1114 C1113 1.399 . S
C1114 C1115 1.381 1_655 S
C1115 H1101 0.931 . S
C1115 C1114 1.381 1_455 S
C1115 C1116 1.389 . S
C1116 C1115 1.389 . S
C1116 C1117 1.387 . S
C1117 H1102 0.930 . S
C1117 C1112 1.390 . S
C1117 C1116 1.387 . S
H1118 C1130 0.930 . S
H1119 C1132 0.930 . S
H1120 C1133 0.930 . S
H1121 C1137 0.959 . S
H1122 C1137 0.959 . S
H1123 C1137 0.961 . S
H1124 C1138 0.960 1_455 S
H1125 C1138 0.961 . S
H1126 C1138 0.959 . S
H1127 C1141 0.929 . S
H1128 C1142 0.931 . S
H1129 C1144 0.930 . S
C1130 H1118 0.930 . S
C1130 C1131 1.399 . S
C1130 C1135 1.399 . S
C1131 C1130 1.399 . S
C1131 C1132 1.376 . S
C1132 H1119 0.930 . S
C1132 C1131 1.376 . S
C1132 C1133 1.388 . S
C1133 H1120 0.930 . S
C1133 C1132 1.388 . S
C1133 C1134 1.390 . S
C1134 C1133 1.390 . S
C1134 C1135 1.394 . S
C1134 C1140 1.465 1_455 S
C1135 C1130 1.399 . S
C1135 C1134 1.394 . S
C1135 C1136 1.516 . S
C1136 C1135 1.516 . S
C1136 C1137 1.502 . S
C1136 C1138 1.561 1_455 S
C1136 C1139 1.526 1_455 S
C1137 H1121 0.959 . S
C1137 H1122 0.959 . S
C1137 H1123 0.961 . S
C1137 C1136 1.502 . S
C1138 H1124 0.960 1_655 S
C1138 H1125 0.961 . S
C1138 H1126 0.959 . S
C1138 C1136 1.561 1_655 S
C1139 C1136 1.526 1_655 S
C1139 C1140 1.396 . S
C1139 C1144 1.390 . S
C1140 C1134 1.465 1_655 S
C1140 C1139 1.396 . S
C1140 C1141 1.399 . S
C1141 H1127 0.929 . S
C1141 C1140 1.399 . S
C1141 C1142 1.385 . S
C1142 H1128 0.931 . S
C1142 C1141 1.385 . S
C1142 C1143 1.389 . S
C1143 C1142 1.389 . S
C1143 C1144 1.387 . S
C1144 H1129 0.930 . S
C1144 C1139 1.390 . S
C1144 C1143 1.387 . S
H1145 C1157 0.930 . S
H1146 C1159 0.930 . S
H1147 C1160 0.930 . S
H1148 C1164 0.959 . S
H1149 C1164 0.959 . S
H1150 C1164 0.961 . S
H1151 C1165 0.960 . S
H1152 C1165 0.961 . S
H1153 C1165 0.959 . S
H1154 C1168 0.929 . S
H1155 C1169 0.931 . S
H1156 C1171 0.930 . S
C1157 H1145 0.930 . S
C1157 C1158 1.399 . S
C1157 C1162 1.399 . S
C1158 C1157 1.399 . S
C1158 C1159 1.376 . S
C1159 H1146 0.930 . S
C1159 C1158 1.376 . S
C1159 C1160 1.388 . S
C1160 H1147 0.930 . S
C1160 C1159 1.388 . S
C1160 C1161 1.390 . S
C1161 C1160 1.390 . S
C1161 C1162 1.394 . S
C1161 C1167 1.465 . S
C1162 C1157 1.399 . S
C1162 C1161 1.394 . S
C1162 C1163 1.516 . S
C1163 C1162 1.516 . S
C1163 C1164 1.502 . S
C1163 C1165 1.561 . S
C1163 C1166 1.526 . S
C1164 H1148 0.959 . S
C1164 H1149 0.959 . S
C1164 H1150 0.961 . S
C1164 C1163 1.502 . S
C1165 H1151 0.960 . S
C1165 H1152 0.961 . S
C1165 H1153 0.959 . S
C1165 C1163 1.561 . S
C1166 C1163 1.526 . S
C1166 C1167 1.396 . S
C1166 C1171 1.390 . S
C1167 C1161 1.465 . S
C1167 C1166 1.396 . S
C1167 C1168 1.399 . S
C1168 H1154 0.929 . S
C1168 C1167 1.399 . S
C1168 C1169 1.385 . S
C1169 H1155 0.931 . S
C1169 C1168 1.385 . S
C1169 C1170 1.389 . S
C1170 C1169 1.389 . S
C1170 C1171 1.387 . S
C1171 H1156 0.930 . S
C1171 C1166 1.390 . S
C1171 C1170 1.387 . S
H1172 C1184 0.930 . S
H1173 C1186 0.930 . S
H1174 C1187 0.930 . S
H1175 C1191 0.959 . S
H1176 C1191 0.959 . S
H1177 C1191 0.961 . S
H1178 C1192 0.960 . S
H1179 C1192 0.961 . S
H1180 C1192 0.959 . S
H1181 C1195 0.929 . S
H1182 C1196 0.931 . S
H1183 C1198 0.930 . S
C1184 H1172 0.930 . S
C1184 C1185 1.399 . S
C1184 C1189 1.399 . S
C1185 C1184 1.399 . S
C1185 C1186 1.376 . S
C1186 H1173 0.930 . S
C1186 C1185 1.376 . S
C1186 C1187 1.388 . S
C1187 H1174 0.930 . S
C1187 C1186 1.388 . S
C1187 C1188 1.390 . S
C1188 C1187 1.390 . S
C1188 C1189 1.394 . S
C1188 C1194 1.465 . S
C1189 C1184 1.399 . S
C1189 C1188 1.394 . S
C1189 C1190 1.516 . S
C1190 C1189 1.516 . S
C1190 C1191 1.502 . S
C1190 C1192 1.561 . S
C1190 C1193 1.526 . S
C1191 H1175 0.959 . S
C1191 H1176 0.959 . S
C1191 H1177 0.961 . S
C1191 C1190 1.502 . S
C1192 H1178 0.960 . S
C1192 H1179 0.961 . S
C1192 H1180 0.959 . S
C1192 C1190 1.561 . S
C1193 C1190 1.526 . S
C1193 C1194 1.396 . S
C1193 C1198 1.390 . S
C1194 C1188 1.465 . S
C1194 C1193 1.396 . S
C1194 C1195 1.399 . S
C1195 H1181 0.929 . S
C1195 C1194 1.399 . S
C1195 C1196 1.385 . S
C1196 H1182 0.931 . S
C1196 C1195 1.385 . S
C1196 C1197 1.389 . S
C1197 C1196 1.389 . S
C1197 C1198 1.387 . S
C1198 H1183 0.930 . S
C1198 C1193 1.390 . S
C1198 C1197 1.387 . S
H1199 C1211 0.930 . S
H1200 C1213 0.930 . S
H1201 C1214 0.930 . S
H1202 C1218 0.959 . S
H1203 C1218 0.959 . S
H1204 C1218 0.961 . S
H1205 C1219 0.960 1_565 S
H1206 C1219 0.961 . S
H1207 C1219 0.959 . S
H1208 C1222 0.929 . S
H1209 C1223 0.931 . S
H1210 C1225 0.930 . S
C1211 H1199 0.930 . S
C1211 C1212 1.399 . S
C1211 C1216 1.399 . S
C1212 C1211 1.399 . S
C1212 C1213 1.376 . S
C1213 H1200 0.930 . S
C1213 C1212 1.376 . S
C1213 C1214 1.388 . S
C1214 H1201 0.930 . S
C1214 C1213 1.388 . S
C1214 C1215 1.390 . S
C1215 C1214 1.390 . S
C1215 C1216 1.394 . S
C1215 C1221 1.465 1_565 S
C1216 C1211 1.399 . S
C1216 C1215 1.394 . S
C1216 C1217 1.516 . S
C1217 C1216 1.516 . S
C1217 C1218 1.502 . S
C1217 C1219 1.561 1_565 S
C1217 C1220 1.526 1_565 S
C1218 H1202 0.959 . S
C1218 H1203 0.959 . S
C1218 H1204 0.961 . S
C1218 C1217 1.502 . S
C1219 H1205 0.960 1_545 S
C1219 H1206 0.961 . S
C1219 H1207 0.959 . S
C1219 C1217 1.561 1_545 S
C1220 C1217 1.526 1_545 S
C1220 C1221 1.396 . S
C1220 C1225 1.390 . S
C1221 C1215 1.465 1_545 S
C1221 C1220 1.396 . S
C1221 C1222 1.399 . S
C1222 H1208 0.929 . S
C1222 C1221 1.399 . S
C1222 C1223 1.385 . S
C1223 H1209 0.931 . S
C1223 C1222 1.385 . S
C1223 C1224 1.389 . S
C1224 C1223 1.389 . S
C1224 C1225 1.387 . S
C1225 H1210 0.930 . S
C1225 C1220 1.390 . S
C1225 C1224 1.387 . S
H1226 C1238 0.930 . S
H1227 C1240 0.930 . S
H1228 C1241 0.930 . S
H1229 C1245 0.959 . S
H1230 C1245 0.959 . S
H1231 C1245 0.961 . S
H1232 C1246 0.960 1_655 S
H1233 C1246 0.961 1_545 S
H1234 C1246 0.959 . S
H1235 C1249 0.929 1_565 S
H1236 C1250 0.931 . S
H1237 C1252 0.930 . S
C1238 H1226 0.930 . S
C1238 C1239 1.399 . S
C1238 C1243 1.399 . S
C1239 C1238 1.399 . S
C1239 C1240 1.376 . S
C1240 H1227 0.930 . S
C1240 C1239 1.376 . S
C1240 C1241 1.388 . S
C1241 H1228 0.930 . S
C1241 C1240 1.388 . S
C1241 C1242 1.390 . S
C1242 C1241 1.390 . S
C1242 C1243 1.394 . S
C1242 C1248 1.452 1_665 S
C1243 C1238 1.399 . S
C1243 C1242 1.394 . S
C1243 C1244 1.516 1_565 S
C1244 C1243 1.516 1_545 S
C1244 C1245 1.502 . S
C1244 C1246 1.561 1_645 S
C1244 C1247 1.526 1_655 S
C1245 H1229 0.959 . S
C1245 H1230 0.959 . S
C1245 H1231 0.961 . S
C1245 C1244 1.502 . S
C1246 H1232 0.960 1_455 S
C1246 H1233 0.961 1_565 S
C1246 H1234 0.959 . S
C1246 C1244 1.561 1_465 S
C1247 C1244 1.526 1_455 S
C1247 C1248 1.409 . S
C1247 C1252 1.390 . S
C1248 C1242 1.452 1_445 S
C1248 C1247 1.409 . S
C1248 C1249 1.400 . S
C1249 H1235 0.929 1_545 S
C1249 C1248 1.400 . S
C1249 C1250 1.385 . S
C1250 H1236 0.931 . S
C1250 C1249 1.385 . S
C1250 C1251 1.389 . S
C1251 C1250 1.389 . S
C1251 C1252 1.387 . S
C1252 H1237 0.930 . S
C1252 C1247 1.390 . S
C1252 C1251 1.387 . S
H1253 C1265 0.930 . S
H1254 C1267 0.930 . S
H1255 C1268 0.930 . S
H1256 C1272 0.959 . S
H1257 C1272 0.959 . S
H1258 C1272 0.961 . S
H1259 C1273 0.960 . S
H1260 C1273 0.962 . S
H1261 C1273 0.959 . S
H1262 C1276 0.929 . S
H1263 C1277 0.931 . S
H1264 C1279 0.930 . S
C1265 H1253 0.930 . S
C1265 C1266 1.399 . S
C1265 C1270 1.399 . S
C1266 C1265 1.399 . S
C1266 C1267 1.376 . S
C1267 H1254 0.930 . S
C1267 C1266 1.376 . S
C1267 C1268 1.388 . S
C1268 H1255 0.930 . S
C1268 C1267 1.388 . S
C1268 C1269 1.390 . S
C1269 C1268 1.390 . S
C1269 C1270 1.394 . S
C1269 C1275 1.465 . S
C1270 C1265 1.399 . S
C1270 C1269 1.394 . S
C1270 C1271 1.516 1_455 S
C1271 C1270 1.516 1_655 S
C1271 C1272 1.502 . S
C1271 C1273 1.561 1_655 S
C1271 C1274 1.526 . S
C1272 H1256 0.959 . S
C1272 H1257 0.959 . S
C1272 H1258 0.961 . S
C1272 C1271 1.502 . S
C1273 H1259 0.960 . S
C1273 H1260 0.962 . S
C1273 H1261 0.959 . S
C1273 C1271 1.561 1_455 S
C1274 C1271 1.526 . S
C1274 C1275 1.396 1_655 S
C1274 C1279 1.390 . S
C1275 C1269 1.465 . S
C1275 C1274 1.396 1_455 S
C1275 C1276 1.399 . S
C1276 H1262 0.929 . S
C1276 C1275 1.399 . S
C1276 C1277 1.385 1_455 S
C1277 H1263 0.931 . S
C1277 C1276 1.385 1_655 S
C1277 C1278 1.389 . S
C1278 C1277 1.389 . S
C1278 C1279 1.387 . S
C1279 H1264 0.930 . S
C1279 C1274 1.390 . S
C1279 C1278 1.387 . S
H1280 C1292 0.930 . S
H1281 C1294 0.930 . S
H1282 C1295 0.930 . S
H1283 C1299 0.959 . S
H1284 C1299 0.959 . S
H1285 C1299 0.961 . S
H1286 C1300 0.960 . S
H1287 C1300 0.961 . S
H1288 C1300 0.959 . S
H1289 C1303 0.929 . S
H1290 C1304 0.931 . S
H1291 C1306 0.930 . S
C1292 H1280 0.930 . S
C1292 C1293 1.399 . S
C1292 C1297 1.399 . S
C1293 C1292 1.399 . S
C1293 C1294 1.376 1_545 S
C1294 H1281 0.930 . S
C1294 C1293 1.376 1_565 S
C1294 C1295 1.388 . S
C1295 H1282 0.930 . S
C1295 C1294 1.388 . S
C1295 C1296 1.390 1_565 S
C1296 C1295 1.390 1_545 S
C1296 C1297 1.394 . S
C1296 C1302 1.465 . S
C1297 C1292 1.399 . S
C1297 C1296 1.394 . S
C1297 C1298 1.516 . S
C1298 C1297 1.516 . S
C1298 C1299 1.502 . S
C1298 C1300 1.561 . S
C1298 C1301 1.526 . S
C1299 H1283 0.959 . S
C1299 H1284 0.959 . S
C1299 H1285 0.961 . S
C1299 C1298 1.502 . S
C1300 H1286 0.960 . S
C1300 H1287 0.961 . S
C1300 H1288 0.959 . S
C1300 C1298 1.561 . S
C1301 C1298 1.526 . S
C1301 C1302 1.396 . S
C1301 C1306 1.390 . S
C1302 C1296 1.465 . S
C1302 C1301 1.396 . S
C1302 C1303 1.399 1_545 S
C1303 H1289 0.929 . S
C1303 C1302 1.399 1_565 S
C1303 C1304 1.385 . S
C1304 H1290 0.931 . S
C1304 C1303 1.385 . S
C1304 C1305 1.389 1_565 S
C1305 C1304 1.389 1_545 S
C1305 C1306 1.387 . S
C1306 H1291 0.930 . S
C1306 C1301 1.390 . S
C1306 C1305 1.387 . S
H1307 C1319 0.930 . S
H1308 C1321 0.930 . S
H1309 C1322 0.930 . S
H1310 C1326 0.959 . S
H1311 C1326 0.959 . S
H1312 C1326 0.961 . S
H1313 C1327 0.960 . S
H1314 C1327 0.961 . S
H1315 C1327 0.959 . S
H1316 C1330 0.929 . S
H1317 C1331 0.931 . S
H1318 C1333 0.930 . S
C1319 H1307 0.930 . S
C1319 C1320 1.399 . S
C1319 C1324 1.399 . S
C1320 C1319 1.399 . S
C1320 C1321 1.376 . S
C1321 H1308 0.930 . S
C1321 C1320 1.376 . S
C1321 C1322 1.388 . S
C1322 H1309 0.930 . S
C1322 C1321 1.388 . S
C1322 C1323 1.390 . S
C1323 C1322 1.390 . S
C1323 C1324 1.394 . S
C1323 C1329 1.465 . S
C1324 C1319 1.399 . S
C1324 C1323 1.394 . S
C1324 C1325 1.516 . S
C1325 C1324 1.516 . S
C1325 C1326 1.502 1_655 S
C1325 C1327 1.561 . S
C1325 C1328 1.526 . S
C1326 H1310 0.959 . S
C1326 H1311 0.959 . S
C1326 H1312 0.961 . S
C1326 C1325 1.502 1_455 S
C1327 H1313 0.960 . S
C1327 H1314 0.961 . S
C1327 H1315 0.959 . S
C1327 C1325 1.561 . S
C1328 C1325 1.526 . S
C1328 C1329 1.396 . S
C1328 C1333 1.390 . S
C1329 C1323 1.465 . S
C1329 C1328 1.396 . S
C1329 C1330 1.399 . S
C1330 H1316 0.929 . S
C1330 C1329 1.399 . S
C1330 C1331 1.385 . S
C1331 H1317 0.931 . S
C1331 C1330 1.385 . S
C1331 C1332 1.389 . S
C1332 C1331 1.389 . S
C1332 C1333 1.387 . S
C1333 H1318 0.930 . S
C1333 C1328 1.390 . S
C1333 C1332 1.387 . S
H1334 C1346 0.930 . S
H1335 C1348 0.930 . S
H1336 C1349 0.930 . S
H1337 C1353 0.959 . S
H1338 C1353 0.959 . S
H1339 C1353 0.961 . S
H1340 C1354 0.960 . S
H1341 C1354 0.961 . S
H1342 C1354 0.959 . S
H1343 C1357 0.929 . S
H1344 C1358 0.931 . S
H1345 C1360 0.930 . S
C1346 H1334 0.930 . S
C1346 C1347 1.399 . S
C1346 C1351 1.399 . S
C1347 C1346 1.399 . S
C1347 C1348 1.376 . S
C1348 H1335 0.930 . S
C1348 C1347 1.376 . S
C1348 C1349 1.388 . S
C1349 H1336 0.930 . S
C1349 C1348 1.388 . S
C1349 C1350 1.390 . S
C1350 C1349 1.390 . S
C1350 C1351 1.394 . S
C1350 C1356 1.465 . S
C1351 C1346 1.399 . S
C1351 C1350 1.394 . S
C1351 C1352 1.516 . S
C1352 C1351 1.516 . S
C1352 C1353 1.502 . S
C1352 C1354 1.561 . S
C1352 C1355 1.526 . S
C1353 H1337 0.959 . S
C1353 H1338 0.959 . S
C1353 H1339 0.961 . S
C1353 C1352 1.502 . S
C1354 H1340 0.960 . S
C1354 H1341 0.961 . S
C1354 H1342 0.959 . S
C1354 C1352 1.561 . S
C1355 C1352 1.526 . S
C1355 C1356 1.396 . S
C1355 C1360 1.390 . S
C1356 C1350 1.465 . S
C1356 C1355 1.396 . S
C1356 C1357 1.399 . S
C1357 H1343 0.929 . S
C1357 C1356 1.399 . S
C1357 C1358 1.385 . S
C1358 H1344 0.931 . S
C1358 C1357 1.385 . S
C1358 C1359 1.389 . S
C1359 C1358 1.389 . S
C1359 C1360 1.387 . S
C1360 H1345 0.930 . S
C1360 C1355 1.390 . S
C1360 C1359 1.387 . S
H1361 C1373 0.930 . S
H1362 C1375 0.930 . S
H1363 C1376 0.930 . S
H1364 C1380 0.959 . S
H1365 C1380 0.959 . S
H1366 C1380 0.961 . S
H1367 C1381 0.960 . S
H1368 C1381 0.961 . S
H1369 C1381 0.959 . S
H1370 C1384 0.929 . S
H1371 C1385 0.931 . S
H1372 C1387 0.930 . S
C1373 H1361 0.930 . S
C1373 C1374 1.399 . S
C1373 C1378 1.399 . S
C1374 C1373 1.399 . S
C1374 C1375 1.376 . S
C1375 H1362 0.930 . S
C1375 C1374 1.376 . S
C1375 C1376 1.388 . S
C1376 H1363 0.930 . S
C1376 C1375 1.388 . S
C1376 C1377 1.390 . S
C1377 C1376 1.390 . S
C1377 C1378 1.394 . S
C1377 C1383 1.465 . S
C1378 C1373 1.399 . S
C1378 C1377 1.394 . S
C1378 C1379 1.516 . S
C1379 C1378 1.516 . S
C1379 C1380 1.502 . S
C1379 C1381 1.561 . S
C1379 C1382 1.526 . S
C1380 H1364 0.959 . S
C1380 H1365 0.959 . S
C1380 H1366 0.961 . S
C1380 C1379 1.502 . S
C1381 H1367 0.960 . S
C1381 H1368 0.961 . S
C1381 H1369 0.959 . S
C1381 C1379 1.561 . S
C1382 C1379 1.526 . S
C1382 C1383 1.396 . S
C1382 C1387 1.390 . S
C1383 C1377 1.465 . S
C1383 C1382 1.396 . S
C1383 C1384 1.399 . S
C1384 H1370 0.929 . S
C1384 C1383 1.399 . S
C1384 C1385 1.385 . S
C1385 H1371 0.931 . S
C1385 C1384 1.385 . S
C1385 C1386 1.389 . S
C1386 C1385 1.389 . S
C1386 C1387 1.387 . S
C1387 H1372 0.930 . S
C1387 C1382 1.390 . S
C1387 C1386 1.387 . S
H1388 C1400 0.930 . S
H1389 C1402 0.930 . S
H1390 C1403 0.930 . S
H1391 C1407 0.959 . S
H1392 C1407 0.959 . S
H1393 C1407 0.961 . S
H1394 C1408 0.960 . S
H1395 C1408 0.961 . S
H1396 C1408 0.959 . S
H1397 C1411 0.929 . S
H1398 C1412 0.931 . S
H1399 C1414 0.930 . S
C1400 H1388 0.930 . S
C1400 C1401 1.399 . S
C1400 C1405 1.399 . S
C1401 C1400 1.399 . S
C1401 C1402 1.376 . S
C1402 H1389 0.930 . S
C1402 C1401 1.376 . S
C1402 C1403 1.388 . S
C1403 H1390 0.930 . S
C1403 C1402 1.388 . S
C1403 C1404 1.390 . S
C1404 C1403 1.390 . S
C1404 C1405 1.394 . S
C1404 C1410 1.465 . S
C1405 C1400 1.399 . S
C1405 C1404 1.394 . S
C1405 C1406 1.516 . S
C1406 C1405 1.516 . S
C1406 C1407 1.502 . S
C1406 C1408 1.561 . S
C1406 C1409 1.526 . S
C1407 H1391 0.959 . S
C1407 H1392 0.959 . S
C1407 H1393 0.961 . S
C1407 C1406 1.502 . S
C1408 H1394 0.960 . S
C1408 H1395 0.961 . S
C1408 H1396 0.959 . S
C1408 C1406 1.561 . S
C1409 C1406 1.526 . S
C1409 C1410 1.396 . S
C1409 C1414 1.390 . S
C1410 C1404 1.465 . S
C1410 C1409 1.396 . S
C1410 C1411 1.399 . S
C1411 H1397 0.929 . S
C1411 C1410 1.399 . S
C1411 C1412 1.385 . S
C1412 H1398 0.931 . S
C1412 C1411 1.385 . S
C1412 C1413 1.389 . S
C1413 C1412 1.389 . S
C1413 C1414 1.387 . S
C1414 H1399 0.930 . S
C1414 C1409 1.390 . S
C1414 C1413 1.387 . S
H1415 C1427 0.930 . S
H1416 C1429 0.930 . S
H1417 C1430 0.930 . S
H1418 C1434 0.959 . S
H1419 C1434 0.959 . S
H1420 C1434 0.961 . S
H1421 C1435 0.960 . S
H1422 C1435 0.961 . S
H1423 C1435 0.959 . S
H1424 C1438 0.929 . S
H1425 C1439 0.931 . S
H1426 C1441 0.930 . S
C1427 H1415 0.930 . S
C1427 C1428 1.399 . S
C1427 C1432 1.399 . S
C1428 C1427 1.399 . S
C1428 C1429 1.376 . S
C1429 H1416 0.930 . S
C1429 C1428 1.376 . S
C1429 C1430 1.388 . S
C1430 H1417 0.930 . S
C1430 C1429 1.388 . S
C1430 C1431 1.390 . S
C1431 C1430 1.390 . S
C1431 C1432 1.394 . S
C1431 C1437 1.465 . S
C1432 C1427 1.399 . S
C1432 C1431 1.394 . S
C1432 C1433 1.516 . S
C1433 C1432 1.516 . S
C1433 C1434 1.502 . S
C1433 C1435 1.561 . S
C1433 C1436 1.526 . S
C1434 H1418 0.959 . S
C1434 H1419 0.959 . S
C1434 H1420 0.961 . S
C1434 C1433 1.502 . S
C1435 H1421 0.960 . S
C1435 H1422 0.961 . S
C1435 H1423 0.959 . S
C1435 C1433 1.561 . S
C1436 C1433 1.526 . S
C1436 C1437 1.396 . S
C1436 C1441 1.390 . S
C1437 C1431 1.465 . S
C1437 C1436 1.396 . S
C1437 C1438 1.399 . S
C1438 H1424 0.929 . S
C1438 C1437 1.399 . S
C1438 C1439 1.385 . S
C1439 H1425 0.931 . S
C1439 C1438 1.385 . S
C1439 C1440 1.389 . S
C1440 C1439 1.389 . S
C1440 C1441 1.387 . S
C1441 H1426 0.930 . S
C1441 C1436 1.390 . S
C1441 C1440 1.387 . S
H1442 C1454 0.930 . S
H1443 C1456 0.930 . S
H1444 C1457 0.930 . S
H1445 C1461 0.959 . S
H1446 C1461 0.959 . S
H1447 C1461 0.961 . S
H1448 C1462 0.960 . S
H1449 C1462 0.961 . S
H1450 C1462 0.959 . S
H1451 C1465 0.929 . S
H1452 C1466 0.931 . S
H1453 C1468 0.930 . S
C1454 H1442 0.930 . S
C1454 C1455 1.399 . S
C1454 C1459 1.399 . S
C1455 C1454 1.399 . S
C1455 C1456 1.376 1_565 S
C1456 H1443 0.930 . S
C1456 C1455 1.376 1_545 S
C1456 C1457 1.388 . S
C1457 H1444 0.930 . S
C1457 C1456 1.388 . S
C1457 C1458 1.390 1_545 S
C1458 C1457 1.390 1_565 S
C1458 C1459 1.394 . S
C1458 C1464 1.465 . S
C1459 C1454 1.399 . S
C1459 C1458 1.394 . S
C1459 C1460 1.516 . S
C1460 C1459 1.516 . S
C1460 C1461 1.502 . S
C1460 C1462 1.561 . S
C1460 C1463 1.526 . S
C1461 H1445 0.959 . S
C1461 H1446 0.959 . S
C1461 H1447 0.961 . S
C1461 C1460 1.502 . S
C1462 H1448 0.960 . S
C1462 H1449 0.961 . S
C1462 H1450 0.959 . S
C1462 C1460 1.561 . S
C1463 C1460 1.526 . S
C1463 C1464 1.396 . S
C1463 C1468 1.390 . S
C1464 C1458 1.465 . S
C1464 C1463 1.396 . S
C1464 C1465 1.399 1_565 S
C1465 H1451 0.929 . S
C1465 C1464 1.399 1_545 S
C1465 C1466 1.385 . S
C1466 H1452 0.931 . S
C1466 C1465 1.385 . S
C1466 C1467 1.389 1_545 S
C1467 C1466 1.389 1_565 S
C1467 C1468 1.387 . S
C1468 H1453 0.930 . S
C1468 C1463 1.390 . S
C1468 C1467 1.387 . S
H1469 C1481 0.930 . S
H1470 C1483 0.930 . S
H1471 C1484 0.930 . S
H1472 C1488 0.959 . S
H1473 C1488 0.959 . S
H1474 C1488 0.961 . S
H1475 C1489 0.960 . S
H1476 C1489 0.961 . S
H1477 C1489 0.959 . S
H1478 C1492 0.929 . S
H1479 C1493 0.931 . S
H1480 C1495 0.930 . S
C1481 H1469 0.930 . S
C1481 C1482 1.399 . S
C1481 C1486 1.399 . S
C1482 C1481 1.399 . S
C1482 C1483 1.376 . S
C1483 H1470 0.930 . S
C1483 C1482 1.376 . S
C1483 C1484 1.388 . S
C1484 H1471 0.930 . S
C1484 C1483 1.388 . S
C1484 C1485 1.390 . S
C1485 C1484 1.390 . S
C1485 C1486 1.394 . S
C1485 C1491 1.465 . S
C1486 C1481 1.399 . S
C1486 C1485 1.394 . S
C1486 C1487 1.516 . S
C1487 C1486 1.516 . S
C1487 C1488 1.502 1_455 S
C1487 C1489 1.561 . S
C1487 C1490 1.526 . S
C1488 H1472 0.959 . S
C1488 H1473 0.959 . S
C1488 H1474 0.961 . S
C1488 C1487 1.502 1_655 S
C1489 H1475 0.960 . S
C1489 H1476 0.961 . S
C1489 H1477 0.959 . S
C1489 C1487 1.561 . S
C1490 C1487 1.526 . S
C1490 C1491 1.396 . S
C1490 C1495 1.390 . S
C1491 C1485 1.465 . S
C1491 C1490 1.396 . S
C1491 C1492 1.399 . S
C1492 H1478 0.929 . S
C1492 C1491 1.399 . S
C1492 C1493 1.385 . S
C1493 H1479 0.931 . S
C1493 C1492 1.385 . S
C1493 C1494 1.389 . S
C1494 C1493 1.389 . S
C1494 C1495 1.387 . S
C1495 H1480 0.930 . S
C1495 C1490 1.390 . S
C1495 C1494 1.387 . S
H1496 C1508 0.930 . S
H1497 C1510 0.930 . S
H1498 C1511 0.930 . S
H1499 C1515 0.959 . S
H1500 C1515 0.959 . S
H1501 C1515 0.961 . S
H1502 C1516 0.960 . S
H1503 C1516 0.961 . S
H1504 C1516 0.959 . S
H1505 C1519 0.929 . S
H1506 C1520 0.931 . S
H1507 C1522 0.930 . S
C1508 H1496 0.930 . S
C1508 C1509 1.399 . S
C1508 C1513 1.399 . S
C1509 C1508 1.399 . S
C1509 C1510 1.376 . S
C1510 H1497 0.930 . S
C1510 C1509 1.376 . S
C1510 C1511 1.388 . S
C1511 H1498 0.930 . S
C1511 C1510 1.388 . S
C1511 C1512 1.390 . S
C1512 C1511 1.390 . S
C1512 C1513 1.394 . S
C1512 C1518 1.465 . S
C1513 C1508 1.399 . S
C1513 C1512 1.394 . S
C1513 C1514 1.516 . S
C1514 C1513 1.516 . S
C1514 C1515 1.502 . S
C1514 C1516 1.561 . S
C1514 C1517 1.526 . S
C1515 H1499 0.959 . S
C1515 H1500 0.959 . S
C1515 H1501 0.961 . S
C1515 C1514 1.502 . S
C1516 H1502 0.960 . S
C1516 H1503 0.961 . S
C1516 H1504 0.959 . S
C1516 C1514 1.561 . S
C1517 C1514 1.526 . S
C1517 C1518 1.396 . S
C1517 C1522 1.390 . S
C1518 C1512 1.465 . S
C1518 C1517 1.396 . S
C1518 C1519 1.399 . S
C1519 H1505 0.929 . S
C1519 C1518 1.399 . S
C1519 C1520 1.385 . S
C1520 H1506 0.931 . S
C1520 C1519 1.385 . S
C1520 C1521 1.389 . S
C1521 C1520 1.389 . S
C1521 C1522 1.387 . S
C1522 H1507 0.930 . S
C1522 C1517 1.390 . S
C1522 C1521 1.387 . S
H1523 C1535 0.930 . S
H1524 C1537 0.930 . S
H1525 C1538 0.930 . S
H1526 C1542 0.959 . S
H1527 C1542 0.959 . S
H1528 C1542 0.961 . S
H1529 C1543 0.960 . S
H1530 C1543 0.961 . S
H1531 C1543 0.959 . S
H1532 C1546 0.929 . S
H1533 C1547 0.931 . S
H1534 C1549 0.930 . S
C1535 H1523 0.930 . S
C1535 C1536 1.399 . S
C1535 C1540 1.399 . S
C1536 C1535 1.399 . S
C1536 C1537 1.376 . S
C1537 H1524 0.930 . S
C1537 C1536 1.376 . S
C1537 C1538 1.388 . S
C1538 H1525 0.930 . S
C1538 C1537 1.388 . S
C1538 C1539 1.390 . S
C1539 C1538 1.390 . S
C1539 C1540 1.394 . S
C1539 C1545 1.465 . S
C1540 C1535 1.399 . S
C1540 C1539 1.394 . S
C1540 C1541 1.516 . S
C1541 C1540 1.516 . S
C1541 C1542 1.502 . S
C1541 C1543 1.561 . S
C1541 C1544 1.526 . S
C1542 H1526 0.959 . S
C1542 H1527 0.959 . S
C1542 H1528 0.961 . S
C1542 C1541 1.502 . S
C1543 H1529 0.960 . S
C1543 H1530 0.961 . S
C1543 H1531 0.959 . S
C1543 C1541 1.561 . S
C1544 C1541 1.526 . S
C1544 C1545 1.396 . S
C1544 C1549 1.390 . S
C1545 C1539 1.465 . S
C1545 C1544 1.396 . S
C1545 C1546 1.399 . S
C1546 H1532 0.929 . S
C1546 C1545 1.399 . S
C1546 C1547 1.385 . S
C1547 H1533 0.931 . S
C1547 C1546 1.385 . S
C1547 C1548 1.389 . S
C1548 C1547 1.389 . S
C1548 C1549 1.387 . S
C1549 H1534 0.930 . S
C1549 C1544 1.390 . S
C1549 C1548 1.387 . S
H1550 C1562 0.930 . S
H1551 C1564 0.930 . S
H1552 C1565 0.930 . S
H1553 C1569 0.959 . S
H1554 C1569 0.959 . S
H1555 C1569 0.961 . S
H1556 C1570 0.960 . S
H1557 C1570 0.961 . S
H1558 C1570 0.959 . S
H1559 C1573 0.929 . S
H1560 C1574 0.931 . S
H1561 C1576 0.930 . S
C1562 H1550 0.930 . S
C1562 C1563 1.399 . S
C1562 C1567 1.399 . S
C1563 C1562 1.399 . S
C1563 C1564 1.376 . S
C1564 H1551 0.930 . S
C1564 C1563 1.376 . S
C1564 C1565 1.388 . S
C1565 H1552 0.930 . S
C1565 C1564 1.388 . S
C1565 C1566 1.390 . S
C1566 C1565 1.390 . S
C1566 C1567 1.394 . S
C1566 C1572 1.465 . S
C1567 C1562 1.399 . S
C1567 C1566 1.394 . S
C1567 C1568 1.516 . S
C1568 C1567 1.516 . S
C1568 C1569 1.502 . S
C1568 C1570 1.561 . S
C1568 C1571 1.526 . S
C1569 H1553 0.959 . S
C1569 H1554 0.959 . S
C1569 H1555 0.961 . S
C1569 C1568 1.502 . S
C1570 H1556 0.960 . S
C1570 H1557 0.961 . S
C1570 H1558 0.959 . S
C1570 C1568 1.561 . S
C1571 C1568 1.526 . S
C1571 C1572 1.396 . S
C1571 C1576 1.390 . S
C1572 C1566 1.465 . S
C1572 C1571 1.396 . S
C1572 C1573 1.399 . S
C1573 H1559 0.929 . S
C1573 C1572 1.399 . S
C1573 C1574 1.385 . S
C1574 H1560 0.931 . S
C1574 C1573 1.385 . S
C1574 C1575 1.389 . S
C1575 C1574 1.389 . S
C1575 C1576 1.387 . S
C1576 H1561 0.930 . S
C1576 C1571 1.390 . S
C1576 C1575 1.387 . S
H1577 C1589 0.930 . S
H1578 C1591 0.930 . S
H1579 C1592 0.930 . S
H1580 C1596 0.959 . S
H1581 C1596 0.959 . S
H1582 C1596 0.961 1_556 S
H1583 C1597 0.960 . S
H1584 C1597 0.961 . S
H1585 C1597 0.959 . S
H1586 C1600 0.929 . S
H1587 C1601 0.931 . S
H1588 C1603 0.930 . S
C1589 H1577 0.930 . S
C1589 C1590 1.399 . S
C1589 C1594 1.399 . S
C1590 C1589 1.399 . S
C1590 C1591 1.376 . S
C1591 H1578 0.930 . S
C1591 C1590 1.376 . S
C1591 C1592 1.388 . S
C1592 H1579 0.930 . S
C1592 C1591 1.388 . S
C1592 C1593 1.390 . S
C1593 C1592 1.390 . S
C1593 C1594 1.394 . S
C1593 C1599 1.477 . S
C1594 C1589 1.399 . S
C1594 C1593 1.394 . S
C1594 C1595 1.516 . S
C1595 C1594 1.516 . S
C1595 C1596 1.502 1_556 S
C1595 C1597 1.561 . S
C1595 C1598 1.526 1_556 S
C1596 H1580 0.959 . S
C1596 H1581 0.959 . S
C1596 H1582 0.961 1_554 S
C1596 C1595 1.502 1_554 S
C1597 H1583 0.960 . S
C1597 H1584 0.961 . S
C1597 H1585 0.959 . S
C1597 C1595 1.561 . S
C1598 C1595 1.526 1_554 S
C1598 C1599 1.392 1_554 S
C1598 C1603 1.390 . S
C1599 C1593 1.477 . S
C1599 C1598 1.392 1_556 S
C1599 C1600 1.391 1_556 S
C1600 H1586 0.929 . S
C1600 C1599 1.391 1_554 S
C1600 C1601 1.385 . S
C1601 H1587 0.931 . S
C1601 C1600 1.385 . S
C1601 C1602 1.389 . S
C1602 C1601 1.389 . S
C1602 C1603 1.387 . S
C1603 H1588 0.930 . S
C1603 C1598 1.390 . S
C1603 C1602 1.387 . S
H1604 C1616 0.930 . S
H1605 C1618 0.930 . S
H1606 C1619 0.930 . S
H1607 C1623 0.959 . S
H1608 C1623 0.959 . S
H1609 C1623 0.961 . S
H1610 C1624 0.960 . S
H1611 C1624 0.961 . S
H1612 C1624 0.959 . S
H1613 C1627 0.929 1_554 S
H1614 C1628 0.931 . S
H1615 C1630 0.930 . S
C1616 H1604 0.930 . S
C1616 C1617 1.399 . S
C1616 C1621 1.400 . S
C1617 C1616 1.399 . S
C1617 C1618 1.376 . S
C1618 H1605 0.930 . S
C1618 C1617 1.376 . S
C1618 C1619 1.388 . S
C1619 H1606 0.930 . S
C1619 C1618 1.388 . S
C1619 C1620 1.390 . S
C1620 C1619 1.390 . S
C1620 C1621 1.395 . S
C1620 C1626 1.465 1_554 S
C1621 C1616 1.400 . S
C1621 C1620 1.395 . S
C1621 C1622 1.514 1_554 S
C1622 C1621 1.514 1_556 S
C1622 C1623 1.502 . S
C1622 C1624 1.561 . S
C1622 C1625 1.526 . S
C1623 H1607 0.959 . S
C1623 H1608 0.959 . S
C1623 H1609 0.961 . S
C1623 C1622 1.502 . S
C1624 H1610 0.960 . S
C1624 H1611 0.961 . S
C1624 H1612 0.959 . S
C1624 C1622 1.561 . S
C1625 C1622 1.526 . S
C1625 C1626 1.396 . S
C1625 C1630 1.390 . S
C1626 C1620 1.465 1_556 S
C1626 C1625 1.396 . S
C1626 C1627 1.399 . S
C1627 H1613 0.929 1_556 S
C1627 C1626 1.399 . S
C1627 C1628 1.385 . S
C1628 H1614 0.931 . S
C1628 C1627 1.385 . S
C1628 C1629 1.389 . S
C1629 C1628 1.389 . S
C1629 C1630 1.387 . S
C1630 H1615 0.930 . S
C1630 C1625 1.390 . S
C1630 C1629 1.387 . S
H1631 C1643 0.930 . S
H1632 C1645 0.930 . S
H1633 C1646 0.930 . S
H1634 C1650 0.959 . S
H1635 C1650 0.959 . S
H1636 C1650 0.961 . S
H1637 C1651 0.960 . S
H1638 C1651 0.961 . S
H1639 C1651 0.959 . S
H1640 C1654 0.929 . S
H1641 C1655 0.931 . S
H1642 C1657 0.930 . S
C1643 H1631 0.930 . S
C1643 C1644 1.399 . S
C1643 C1648 1.399 . S
C1644 C1643 1.399 . S
C1644 C1645 1.376 . S
C1645 H1632 0.930 . S
C1645 C1644 1.376 . S
C1645 C1646 1.388 . S
C1646 H1633 0.930 . S
C1646 C1645 1.388 . S
C1646 C1647 1.390 . S
C1647 C1646 1.390 . S
C1647 C1648 1.394 . S
C1647 C1653 1.465 . S
C1648 C1643 1.399 . S
C1648 C1647 1.394 . S
C1648 C1649 1.516 . S
C1649 C1648 1.516 . S
C1649 C1650 1.502 . S
C1649 C1651 1.561 . S
C1649 C1652 1.526 . S
C1650 H1634 0.959 . S
C1650 H1635 0.959 . S
C1650 H1636 0.961 . S
C1650 C1649 1.502 . S
C1651 H1637 0.960 . S
C1651 H1638 0.961 . S
C1651 H1639 0.959 . S
C1651 C1649 1.561 . S
C1652 C1649 1.526 . S
C1652 C1653 1.396 . S
C1652 C1657 1.390 . S
C1653 C1647 1.465 . S
C1653 C1652 1.396 . S
C1653 C1654 1.399 . S
C1654 H1640 0.929 . S
C1654 C1653 1.399 . S
C1654 C1655 1.385 . S
C1655 H1641 0.931 . S
C1655 C1654 1.385 . S
C1655 C1656 1.389 . S
C1656 C1655 1.389 . S
C1656 C1657 1.387 . S
C1657 H1642 0.930 . S
C1657 C1652 1.390 . S
C1657 C1656 1.387 . S
H1658 C1670 0.930 . S
H1659 C1672 0.930 . S
H1660 C1673 0.930 . S
H1661 C1677 0.959 . S
H1662 C1677 0.959 . S
H1663 C1677 0.961 . S
H1664 C1678 0.960 . S
H1665 C1678 0.961 . S
H1666 C1678 0.959 . S
H1667 C1681 0.929 . S
H1668 C1682 0.931 . S
H1669 C1684 0.930 . S
C1670 H1658 0.930 . S
C1670 C1671 1.399 . S
C1670 C1675 1.399 . S
C1671 C1670 1.399 . S
C1671 C1672 1.376 . S
C1672 H1659 0.930 . S
C1672 C1671 1.376 . S
C1672 C1673 1.388 . S
C1673 H1660 0.930 . S
C1673 C1672 1.388 . S
C1673 C1674 1.390 . S
C1674 C1673 1.390 . S
C1674 C1675 1.394 . S
C1674 C1680 1.465 . S
C1675 C1670 1.399 . S
C1675 C1674 1.394 . S
C1675 C1676 1.516 . S
C1676 C1675 1.516 . S
C1676 C1677 1.502 . S
C1676 C1678 1.561 . S
C1676 C1679 1.526 . S
C1677 H1661 0.959 . S
C1677 H1662 0.959 . S
C1677 H1663 0.961 . S
C1677 C1676 1.502 . S
C1678 H1664 0.960 . S
C1678 H1665 0.961 . S
C1678 H1666 0.959 . S
C1678 C1676 1.561 . S
C1679 C1676 1.526 . S
C1679 C1680 1.396 . S
C1679 C1684 1.390 . S
C1680 C1674 1.465 . S
C1680 C1679 1.396 . S
C1680 C1681 1.399 . S
C1681 H1667 0.929 . S
C1681 C1680 1.399 . S
C1681 C1682 1.385 . S
C1682 H1668 0.931 . S
C1682 C1681 1.385 . S
C1682 C1683 1.389 . S
C1683 C1682 1.389 . S
C1683 C1684 1.387 . S
C1684 H1669 0.930 . S
C1684 C1679 1.390 . S
C1684 C1683 1.387 . S
H1685 C1697 0.930 . S
H1686 C1699 0.930 . S
H1687 C1700 0.930 . S
H1688 C1704 0.959 . S
H1689 C1704 0.959 . S
H1690 C1704 0.961 . S
H1691 C1705 0.960 . S
H1692 C1705 0.961 . S
H1693 C1705 0.959 . S
H1694 C1708 0.929 . S
H1695 C1709 0.931 . S
H1696 C1711 0.930 . S
C1697 H1685 0.930 . S
C1697 C1698 1.399 . S
C1697 C1702 1.399 . S
C1698 C1697 1.399 . S
C1698 C1699 1.376 . S
C1699 H1686 0.930 . S
C1699 C1698 1.376 . S
C1699 C1700 1.388 . S
C1700 H1687 0.930 . S
C1700 C1699 1.388 . S
C1700 C1701 1.390 . S
C1701 C1700 1.390 . S
C1701 C1702 1.394 . S
C1701 C1707 1.465 . S
C1702 C1697 1.399 . S
C1702 C1701 1.394 . S
C1702 C1703 1.516 . S
C1703 C1702 1.516 . S
C1703 C1704 1.502 . S
C1703 C1705 1.561 . S
C1703 C1706 1.526 . S
C1704 H1688 0.959 . S
C1704 H1689 0.959 . S
C1704 H1690 0.961 . S
C1704 C1703 1.502 . S
C1705 H1691 0.960 . S
C1705 H1692 0.961 . S
C1705 H1693 0.959 . S
C1705 C1703 1.561 . S
C1706 C1703 1.526 . S
C1706 C1707 1.396 . S
C1706 C1711 1.390 . S
C1707 C1701 1.465 . S
C1707 C1706 1.396 . S
C1707 C1708 1.399 . S
C1708 H1694 0.929 . S
C1708 C1707 1.399 . S
C1708 C1709 1.385 . S
C1709 H1695 0.931 . S
C1709 C1708 1.385 . S
C1709 C1710 1.389 . S
C1710 C1709 1.389 . S
C1710 C1711 1.387 . S
C1711 H1696 0.930 . S
C1711 C1706 1.390 . S
C1711 C1710 1.387 . S
C861 C569 2.384 . S
C873 C39 2.355 . S
C888 C75 2.129 . S
C900 C605 2.107 . S
C915 C463 2.366 . S
C927 C145 2.372 . S
C942 C499 2.105 . S
C954 C181 2.134 . S
C969 C251 2.371 . S
C981 C781 2.378 . S
C996 C817 2.109 . S
C1008 C287 2.130 . S
C1023 C357 2.373 . S
C1035 C675 2.375 . S
C1050 C711 2.101 . S
C1062 C393 2.136 . S
C1077 C568 1.315 . S
C1089 C38 1.235 . S
C1104 C82 1.020 . S
C1116 C612 0.970 . S
C1131 C144 1.306 . S
C1143 C462 1.242 . S
C1158 C188 1.016 . S
C1170 C506 0.974 . S
C1185 C250 1.319 . S
C1197 C780 1.233 . S
C1212 C294 1.022 . S
C1224 C824 0.967 . S
C1239 C674 1.304 . S
C1251 C356 1.244 . S
C1266 C718 1.021 . S
C1278 C400 0.968 . S
C1293 C22 1.932 . S
C1305 C340 1.902 . S
C1320 C92 1.823 . S
C1332 C410 1.782 . S
C1347 C128 1.926 . S
C1359 C234 1.914 . S
C1374 C198 1.802 . S
C1386 C304 1.836 . S
C1401 C446 1.930 . S
C1413 C764 1.905 . S
C1428 C834 1.804 . S
C1440 C516 1.836 . S
C1455 C552 1.932 . S
C1467 C658 1.901 . S
C1482 C728 1.820 . S
C1494 C622 1.782 . S
C1509 C29 1.879 . S
C1521 C833 1.912 . S
C1536 C665 1.905 . S
C1548 C91 1.889 . S
C1563 C727 1.877 . S
C1575 C135 1.914 . S
C1590 C771 1.886 . S
C1602 C197 1.905 . S
C1617 C515 1.877 . S
C1629 C241 1.915 . S
C1644 C559 1.914 . S
C1656 C303 1.880 . S
C1671 C347 1.911 . S
C1683 C621 1.883 . S
C1698 C409 1.877 . S
C1710 C453 1.914 . S
