# Generated by pormake.
# Topology irl, (4)-cn, num edge types: 1
# Building blocks:
#     Node 0, Type 0, BuildingBlock: CEKHIL_clean_sbu_0, # of connection points: 4
#     Node 1, Type 0, BuildingBlock: CEKHIL_clean_sbu_0, # of connection points: 4
#     Node 2, Type 0, BuildingBlock: CEKHIL_clean_sbu_0, # of connection points: 4
#     Node 3, Type 0, BuildingBlock: CEKHIL_clean_sbu_0, # of connection points: 4
#     Node 4, Type 0, BuildingBlock: CEKHIL_clean_sbu_0, # of connection points: 4
#     Node 5, Type 0, BuildingBlock: CEKHIL_clean_sbu_0, # of connection points: 4
#     Node 6, Type 0, BuildingBlock: CEKHIL_clean_sbu_0, # of connection points: 4
#     Node 7, Type 0, BuildingBlock: CEKHIL_clean_sbu_0, # of connection points: 4
#     Edge 8, Type (0, 0), BuildingBlock: MIFKUJ_clean_linker_0, # of connection points: 2
#     Edge 9, Type (0, 0), BuildingBlock: MIFKUJ_clean_linker_0, # of connection points: 2
#     Edge 10, Type (0, 0), BuildingBlock: MIFKUJ_clean_linker_0, # of connection points: 2
#     Edge 11, Type (0, 0), BuildingBlock: MIFKUJ_clean_linker_0, # of connection points: 2
#     Edge 12, Type (0, 0), BuildingBlock: MIFKUJ_clean_linker_0, # of connection points: 2
#     Edge 13, Type (0, 0), BuildingBlock: MIFKUJ_clean_linker_0, # of connection points: 2
#     Edge 14, Type (0, 0), BuildingBlock: MIFKUJ_clean_linker_0, # of connection points: 2
#     Edge 15, Type (0, 0), BuildingBlock: MIFKUJ_clean_linker_0, # of connection points: 2
#     Edge 16, Type (0, 0), BuildingBlock: MIFKUJ_clean_linker_0, # of connection points: 2
#     Edge 17, Type (0, 0), BuildingBlock: MIFKUJ_clean_linker_0, # of connection points: 2
#     Edge 18, Type (0, 0), BuildingBlock: MIFKUJ_clean_linker_0, # of connection points: 2
#     Edge 19, Type (0, 0), BuildingBlock: MIFKUJ_clean_linker_0, # of connection points: 2
#     Edge 20, Type (0, 0), BuildingBlock: MIFKUJ_clean_linker_0, # of connection points: 2
#     Edge 21, Type (0, 0), BuildingBlock: MIFKUJ_clean_linker_0, # of connection points: 2
#     Edge 22, Type (0, 0), BuildingBlock: MIFKUJ_clean_linker_0, # of connection points: 2
#     Edge 23, Type (0, 0), BuildingBlock: MIFKUJ_clean_linker_0, # of connection points: 2
# Relax obj value: 0.066
# Max RMSD: 0.130
# Mean RMSD: 0.130
data_MOF--net-irl--node1-CEKHIL_clean_sbu_0--edge1-MIFKUJ_clean_linker_0
_symmetry_space_group_name_H-M    P1
_symmetry_Int_Tables_number       1
_symmetry_cell_setting            triclinic
loop_
_symmetry_equiv_pos_as_xyz
'x, y, z'
_cell_length_a     42.282928
_cell_length_b     59.204787
_cell_length_c     36.389421
_cell_angle_alpha  89.983887
_cell_angle_beta   90.095671
_cell_angle_gamma 89.923167
loop_
_atom_site_label
_atom_site_type_symbol
_atom_site_fract_x
_atom_site_fract_y
_atom_site_fract_z
_atom_type_partial_charge
Co0 Co 0.06923 0.16559 0.98886 0.0
O1 O 0.0891 0.19467 0.98955 0.0
O2 O 0.1097 0.16388 0.01434 0.0
C3 C 0.05605 0.16643 0.92906 0.0
O4 O 0.05509 0.13243 0.99166 0.0
Co5 Co 0.99744 0.1626 0.97217 0.0
O6 O 0.00818 0.13058 0.96238 0.0
C7 C 0.01841 0.17665 0.04578 0.0
C8 C 0.11232 0.18537 0.0072 0.0
C9 C 0.03235 0.12113 0.97664 0.0
O10 O 0.04719 0.17293 0.03626 0.0
O11 O 0.99488 0.17445 0.02389 0.0
O12 O 0.08428 0.16036 0.93916 0.0
O13 O 0.03784 0.17381 0.95498 0.0
Co14 Co 0.93153 0.83913 0.99207 0.0
O15 O 0.91302 0.80959 -0.006 0.0
O16 O 0.89062 0.84047 0.01628 0.0
C17 C 0.94591 0.83747 0.93279 0.0
O18 O 0.94408 0.87258 -0.00633 0.0
Co19 Co 0.0036 0.84325 0.97755 0.0
O20 O 0.99257 0.87533 0.96832 0.0
C21 C 0.98146 0.82955 0.05081 0.0
C22 C 0.88914 0.81877 0.01052 0.0
C23 C 0.96728 0.88423 0.98064 0.0
O24 O 0.95293 0.83344 0.0404 0.0
O25 O 0.00526 0.83104 0.02921 0.0
O26 O 0.91717 0.84291 0.94169 0.0
O27 O 0.96396 0.83107 0.95959 0.0
Co28 Co 0.06894 0.84071 0.50025 0.0
O29 O 0.0908 0.81239 0.49926 0.0
O30 O 0.11042 0.84435 0.47758 0.0
C31 C 0.05292 0.83844 0.55899 0.0
O32 O 0.0519 0.87321 0.49797 0.0
Co33 Co 0.99606 0.83868 0.51143 0.0
O34 O 0.00062 0.87189 0.5149 0.0
C35 C 0.02277 0.82678 0.43967 0.0
C36 C 0.1139 0.82273 0.48322 0.0
C37 C 0.0253 0.88291 0.50574 0.0
O38 O 0.0499 0.83363 0.45098 0.0
O39 O 0.99844 0.82569 0.4605 0.0
O40 O 0.08118 0.84555 0.55122 0.0
O41 O 0.03689 0.83061 0.53155 0.0
Co42 Co 0.93502 0.16671 0.49524 0.0
O43 O 0.9136 0.19523 0.49425 0.0
O44 O 0.89324 0.16343 0.47301 0.0
C45 C 0.95155 0.16893 0.5538 0.0
O46 O 0.9515 0.13405 0.49335 0.0
Co47 Co 0.00808 0.16858 0.50532 0.0
O48 O 0.00294 0.13542 0.50979 0.0
C49 C 0.98062 0.18041 0.43401 0.0
C50 C 0.89001 0.18505 0.4788 0.0
C51 C 0.9781 0.12435 0.50127 0.0
O52 O 0.95376 0.1733 0.44566 0.0
O53 O 0.00507 0.182 0.45464 0.0
O54 O 0.92304 0.16224 0.54633 0.0
O55 O 0.96755 0.17654 0.52622 0.0
Co56 Co 0.5678 0.66517 0.98961 0.0
O57 O 0.58947 0.69339 -0.00622 0.0
O58 O 0.60865 0.66075 0.01348 0.0
C59 C 0.55346 0.66922 0.93064 0.0
O60 O 0.55106 0.63265 0.98842 0.0
Co61 Co 0.49531 0.66708 0.97562 0.0
O62 O 0.50117 0.63432 0.96664 0.0
C63 C 0.5198 0.67714 0.04922 0.0
C64 C 0.6123 0.68248 0.00954 0.0
C65 C 0.52547 0.6231 0.9767 0.0
O66 O 0.54729 0.67068 0.03848 0.0
O67 O 0.49601 0.67873 0.02756 0.0
O68 O 0.58154 0.66193 0.93899 0.0
O69 O 0.53651 0.67617 0.95794 0.0
Co70 Co 0.43342 0.3398 0.99263 0.0
O71 O 0.41162 0.31145 -0.00525 0.0
O72 O 0.39257 0.34368 0.01639 0.0
C73 C 0.44803 0.33738 0.93346 0.0
O74 O 0.44993 0.37241 -0.00594 0.0
Co75 Co 0.50607 0.33855 0.97885 0.0
O76 O 0.50133 0.37178 0.97736 0.0
C77 C 0.48154 0.32668 0.0517 0.0
C78 C 0.38886 0.32208 0.0111 0.0
C79 C 0.47633 0.3824 0.98662 0.0
O80 O 0.45378 0.33284 0.04132 0.0
O81 O 0.50546 0.32618 0.03021 0.0
O82 O 0.41989 0.34438 0.94207 0.0
O83 O 0.46493 0.32977 0.96039 0.0
Co84 Co 0.56681 0.3389 0.49981 0.0
O85 O 0.58856 0.31056 0.49789 0.0
O86 O 0.60775 0.34254 0.4758 0.0
C87 C 0.55234 0.33662 0.55902 0.0
O88 O 0.54973 0.37141 0.49841 0.0
Co89 Co 0.49426 0.33675 0.51328 0.0
O90 O 0.49938 0.36986 0.51862 0.0
C91 C 0.51904 0.32538 0.44049 0.0
C92 C 0.61136 0.32091 0.48129 0.0
C93 C 0.5236 0.38103 0.50832 0.0
O94 O 0.54644 0.33206 0.45121 0.0
O95 O 0.49518 0.3241 0.462 0.0
O96 O 0.58042 0.34363 0.55029 0.0
O97 O 0.53559 0.32878 0.53216 0.0
Co98 Co 0.4345 0.66569 0.49628 0.0
O99 O 0.41373 0.69446 0.49624 0.0
O100 O 0.39352 0.66345 0.47188 0.0
C101 C 0.44889 0.6664 0.55569 0.0
O102 O 0.45012 0.63283 0.49281 0.0
Co103 Co 0.50711 0.66564 0.51063 0.0
O104 O 0.5012 0.63252 0.51103 0.0
C105 C 0.48321 0.67911 0.43815 0.0
C106 C 0.39053 0.68494 0.479 0.0
C107 C 0.47619 0.62237 0.50052 0.0
O108 O 0.45521 0.67344 0.44823 0.0
O109 O 0.50714 0.67872 0.45973 0.0
O110 O 0.42061 0.66005 0.54639 0.0
O111 O 0.4661 0.67437 0.5294 0.0
H112 H 0.96993 0.91045 0.04164 0.0
H113 H 0.98231 0.95083 0.04391 0.0
H114 H 0.97663 0.95408 0.92548 0.0
H115 H 0.9663 0.91341 0.9234 0.0
H116 H 0.02636 0.97387 0.94406 0.0
H117 H 0.92005 0.97945 0.9891 0.0
H118 H 0.87479 0.97083 0.02938 0.0
H119 H 0.92757 0.99345 0.1233 0.0
H120 H 0.9733 1.00195 0.08362 0.0
H121 H 0.01184 0.09306 0.92303 0.0
H122 H 0.00332 0.05231 0.92699 0.0
H123 H 0.04197 0.05201 0.03672 0.0
H124 H 0.05125 0.09302 0.03256 0.0
H125 H 0.97896 0.03102 0.02703 0.0
H126 H 0.08409 0.02796 0.97736 0.0
H127 H 0.12646 0.03804 0.93389 0.0
H128 H 0.07126 0.01202 0.84429 0.0
H129 H 0.02835 1.00208 0.88717 0.0
C130 C 0.97042 0.92002 0.01627 0.0
C131 C 0.96663 0.90905 0.98239 0.0
C132 C 0.97754 0.94312 0.01751 0.0
C133 C 0.98023 0.95576 0.98487 0.0
C134 C 0.97488 0.94483 0.95109 0.0
C135 C 0.96857 0.92166 0.94985 0.0
C136 C 0.99087 0.97983 0.98552 0.0
C137 C 0.01557 0.98634 0.96192 0.0
C138 C 0.97768 0.99619 0.00953 0.0
C139 C 0.95021 0.99111 0.03344 0.0
C140 C 0.92209 0.98242 0.01838 0.0
C141 C 0.89634 0.97759 0.0411 0.0
C142 C 0.89834 0.98152 0.07889 0.0
C143 C 0.92607 0.99037 0.09403 0.0
C144 C 0.9519 0.99522 0.07144 0.0
C145 C 0.01913 0.08424 0.94774 0.0
C146 C 0.03232 0.09616 0.97746 0.0
C147 C 0.0142 0.06098 0.94998 0.0
C148 C 0.02191 0.04917 0.98218 0.0
C149 C 0.03586 0.06086 0.01164 0.0
C150 C 0.04141 0.08419 0.00912 0.0
C151 C 0.0138 0.02484 0.9852 0.0
C152 C 0.98968 0.01836 0.00944 0.0
C153 C 0.02704 0.00859 0.96131 0.0
C154 C 0.0529 0.01443 0.93547 0.0
C155 C 0.08087 0.02455 0.94836 0.0
C156 C 0.10501 0.03021 0.92383 0.0
C157 C 0.10153 0.02571 0.88635 0.0
C158 C 0.07392 0.0155 0.87333 0.0
C159 C 0.0497 0.00983 0.89775 0.0
H160 H 0.12024 0.03011 0.8674 0.0
H161 H 0.87837 0.97777 0.09643 0.0
H162 H 0.97043 0.9069 0.50277 0.0
H163 H 0.9633 0.94754 0.49966 0.0
H164 H 0.06441 0.95681 0.49941 0.0
H165 H 0.07197 0.9156 0.50255 0.0
H166 H 0.0319 0.98518 0.54926 0.0
H167 H 0.02504 0.96441 0.42219 0.0
H168 H 0.00556 0.9424 0.3693 0.0
H169 H 0.91099 0.96561 0.38987 0.0
H170 H 0.92981 0.98745 0.44331 0.0
H171 H 0.0326 0.09991 0.50472 0.0
H172 H 0.03935 0.05931 0.50385 0.0
H173 H 0.93847 0.05054 0.49403 0.0
H174 H 0.93133 0.09182 0.49422 0.0
H175 H 0.97037 0.02167 0.44918 0.0
H176 H 0.97554 0.04155 0.57597 0.0
H177 H 0.9933 0.0629 0.63037 0.0
H178 H 0.08872 0.04069 0.61228 0.0
H179 H 0.07162 0.01947 0.55742 0.0
C180 C 0.99133 0.91744 0.50205 0.0
C181 C 0.02188 0.90787 0.50302 0.0
C182 C 0.98712 0.94076 0.50004 0.0
C183 C 0.01326 0.95522 0.49896 0.0
C184 C 0.04388 0.9459 0.50008 0.0
C185 C 0.04818 0.92237 0.50176 0.0
C186 C 0.00817 0.98007 0.49761 0.0
C187 C 0.01897 0.99324 0.52705 0.0
C188 C 0.99017 0.99041 0.46932 0.0
C189 C 0.97882 0.97743 0.43697 0.0
C190 C 1.00005 0.96468 0.41563 0.0
C191 C 0.98913 0.95225 0.38552 0.0
C192 C 0.95706 0.95258 0.37627 0.0
C193 C 0.93583 0.96536 0.39709 0.0
C194 C 0.94662 0.97778 0.42727 0.0
C195 C 0.01163 0.08952 0.50247 0.0
C196 C 0.98128 0.0993 0.49994 0.0
C197 C 0.01563 0.06617 0.50207 0.0
C198 C 0.98944 0.05178 0.49963 0.0
C199 C 0.95906 0.06133 0.49619 0.0
C200 C 0.95498 0.08491 0.49637 0.0
C201 C 0.99431 0.02686 0.50075 0.0
C202 C 0.98338 0.01364 0.47135 0.0
C203 C 0.01195 0.01641 0.52927 0.0
C204 C 0.02233 0.02907 0.56238 0.0
C205 C 1.00036 0.04135 0.58342 0.0
C206 C 0.0103 0.05341 0.61437 0.0
C207 C 0.04213 0.05319 0.62473 0.0
C208 C 0.06407 0.04086 0.60421 0.0
C209 C 0.05427 0.0288 0.5732 0.0
H210 H 0.04978 0.06254 0.6487 0.0
H211 H 0.94866 0.94298 0.35291 0.0
H212 H 0.47663 0.59801 0.94954 0.0
H213 H 0.46903 0.55741 0.95323 0.0
H214 H 0.55971 0.55012 0.00623 0.0
H215 H 0.56765 0.5912 0.00297 0.0
H216 H 0.5474 0.51751 0.95045 0.0
H217 H 0.49677 0.54762 0.0579 0.0
H218 H 0.46106 0.57326 0.09149 0.0
H219 H 0.3817 0.5475 0.03087 0.0
H220 H 0.41703 0.52192 -0.00346 0.0
H221 H 0.52792 0.40589 0.00812 0.0
H222 H 0.53567 0.44659 0.00823 0.0
H223 H 0.43962 0.45622 0.9711 0.0
H224 H 0.43133 0.41505 0.97231 0.0
H225 H 0.45485 0.48803 0.01912 0.0
H226 H 0.50409 0.45862 0.91089 0.0
H227 H 0.53899 0.43351 0.87512 0.0
H228 H 0.6198 0.45843 0.93403 0.0
H229 H 0.58532 0.48347 0.97051 0.0
C230 C 0.49515 0.58792 0.96199 0.0
C231 C 0.52269 0.59804 0.97637 0.0
C232 C 0.49065 0.56463 0.9641 0.0
C233 C 0.51352 0.55079 0.98055 0.0
C234 C 0.54166 0.56057 -0.00636 0.0
C235 C 0.54616 0.58403 0.99173 0.0
C236 C 0.50756 0.52617 0.9843 0.0
C237 C 0.5275 0.51101 0.96595 0.0
C238 C 0.48095 0.51779 0.00354 0.0
C239 C 0.4596 0.53299 0.02443 0.0
C240 C 0.47174 0.54754 0.05154 0.0
C241 C 0.45156 0.56204 0.07075 0.0
C242 C 0.41914 0.56204 0.06326 0.0
C243 C 0.40682 0.54749 0.03662 0.0
C244 C 0.42691 0.53297 0.01731 0.0
C245 C 0.50832 0.41665 0.00016 0.0
C246 C 0.47911 0.40726 0.98973 0.0
C247 C 0.51286 0.43996 6e-05 0.0
C248 C 0.48858 0.45452 0.9886 0.0
C249 C 0.45884 0.44531 0.97971 0.0
C250 C 0.45408 0.42182 0.98043 0.0
C251 C 0.49477 0.47922 0.98532 0.0
C252 C 0.47483 0.49445 0.00367 0.0
C253 C 0.52125 0.4877 0.96576 0.0
C254 C 0.54208 0.47278 0.94365 0.0
C255 C 0.52928 0.45864 0.91638 0.0
C256 C 0.54898 0.44443 0.89596 0.0
C257 C 0.58158 0.44434 0.90236 0.0
C258 C 0.59454 0.45851 0.92913 0.0
C259 C 0.57493 0.47273 0.94966 0.0
H260 H 0.59679 0.43333 0.88653 0.0
H261 H 0.40355 0.57329 0.07814 0.0
H262 H 0.56762 0.41323 0.48767 0.0
H263 H 0.55956 0.45429 0.48355 0.0
H264 H 0.46347 0.44629 0.52076 0.0
H265 H 0.47106 0.40578 0.52492 0.0
H266 H 0.46631 0.47454 0.46237 0.0
H267 H 0.51949 0.46477 0.57836 0.0
H268 H 0.56257 0.45179 0.6189 0.0
H269 H 0.62879 0.49293 0.55977 0.0
H270 H 0.58614 0.50584 0.51837 0.0
H271 H 0.42972 0.58992 0.50847 0.0
H272 H 0.43708 0.54869 0.50751 0.0
H273 H 0.53575 0.55785 0.48132 0.0
H274 H 0.52877 0.59856 0.48336 0.0
H275 H 0.53171 0.52866 0.53328 0.0
H276 H 0.47869 0.53878 0.41722 0.0
H277 H 0.43578 0.55135 0.376 0.0
H278 H 0.36966 0.5097 0.43435 0.0
H279 H 0.41213 0.49709 0.47622 0.0
C280 C 0.54484 0.42023 0.49508 0.0
C281 C 0.52009 0.40606 0.50665 0.0
C282 C 0.54025 0.4437 0.49272 0.0
C283 C 0.51085 0.45337 0.50185 0.0
C284 C 0.48625 0.43926 0.51334 0.0
C285 C 0.49081 0.41598 0.51587 0.0
C286 C 0.50539 0.47819 0.49993 0.0
C287 C 0.48046 0.48639 0.47807 0.0
C288 C 0.52408 0.49368 0.51999 0.0
C289 C 0.54969 0.48607 0.54502 0.0
C290 C 0.54328 0.47091 0.57381 0.0
C291 C 0.56762 0.46359 0.59698 0.0
C292 C 0.59842 0.4715 0.59189 0.0
C293 C 0.60493 0.48679 0.56364 0.0
C294 C 0.58069 0.49411 0.54031 0.0
C295 C 0.45282 0.58305 0.50211 0.0
C296 C 0.47868 0.5975 0.4963 0.0
C297 C 0.45706 0.55949 0.50151 0.0
C298 C 0.48706 0.55005 0.49432 0.0
C299 C 0.51249 0.56459 0.48731 0.0
C300 C 0.5084 0.58793 0.48841 0.0
C301 C 0.49271 0.52517 0.49539 0.0
C302 C 0.51763 0.5169 0.5173 0.0
C303 C 0.47405 0.50964 0.47526 0.0
C304 C 0.44852 0.51717 0.45007 0.0
C305 C 0.45495 0.53243 0.42143 0.0
C306 C 0.43072 0.53954 0.39792 0.0
C307 C 0.4 0.53138 0.40262 0.0
C308 C 0.39346 0.51604 0.43078 0.0
C309 C 0.4176 0.50888 0.45438 0.0
H310 H 0.38127 0.5369 0.38439 0.0
H311 H 0.61722 0.46581 0.60988 0.0
H312 H 0.96683 0.16646 0.08754 0.0
H313 H 0.95996 0.17327 0.15325 0.0
H314 H 0.04929 0.20852 0.15645 0.0
H315 H 0.057 0.20059 0.09118 0.0
H316 H 0.04789 0.18118 0.20967 0.0
H317 H 0.97306 0.23569 0.16554 0.0
H318 H 0.92773 0.24948 0.12912 0.0
H319 H 0.86641 0.20274 0.18423 0.0
H320 H 0.91143 0.18847 0.22066 0.0
H321 H 0.02694 0.20493 0.39937 0.0
H322 H 0.03271 0.21137 0.33324 0.0
H323 H 0.94746 0.17328 0.31317 0.0
H324 H 0.94085 0.16761 0.3789 0.0
H325 H 0.94898 0.20765 0.26878 0.0
H326 H 0.02513 0.15006 0.30604 0.0
H327 H 0.07043 0.13573 0.34202 0.0
H328 H 0.12912 0.18861 0.29901 0.0
H329 H 0.08406 0.20339 0.26308 0.0
C330 C 0.98475 0.17594 0.10221 0.0
C331 C 0.01245 0.18296 0.08436 0.0
C332 C 0.98074 0.17997 0.13975 0.0
C333 C 0.00389 0.19173 0.15987 0.0
C334 C 0.03109 0.1994 0.14164 0.0
C335 C 0.03546 0.19489 0.10434 0.0
C336 C 0.001 0.19443 0.20034 0.0
C337 C 0.02645 0.18745 0.22248 0.0
C338 C 0.97288 0.20218 0.2173 0.0
C339 C 0.94569 0.21093 0.19569 0.0
C340 C 0.94994 0.22828 0.16976 0.0
C341 C 0.9243 0.23619 0.14913 0.0
C342 C 0.89423 0.22697 0.15432 0.0
C343 C 0.88972 0.20987 0.18023 0.0
C344 C 0.91528 0.20189 0.20093 0.0
C345 C 0.00932 0.1981 0.38084 0.0
C346 C 0.98359 0.18561 0.39439 0.0
C347 C 0.01269 0.20173 0.34305 0.0
C348 C 0.99082 0.19246 0.31814 0.0
C349 C 0.96463 0.18061 0.33178 0.0
C350 C 0.96096 0.17732 0.36945 0.0
C351 C 0.99562 0.19404 0.27782 0.0
C352 C 0.97056 0.20178 0.25578 0.0
C353 C 0.02408 0.18699 0.26088 0.0
C354 C 0.05118 0.17795 0.28221 0.0
C355 C 0.04766 0.15869 0.30443 0.0
C356 C 0.07329 0.15048 0.32479 0.0
C357 C 0.10261 0.16129 0.32288 0.0
C358 C 0.10639 0.18028 0.30051 0.0
C359 C 0.08083 0.18857 0.28013 0.0
H360 H 0.12242 0.15492 0.33868 0.0
H361 H 0.87441 0.23311 0.13829 0.0
H362 H 0.06941 0.82431 0.38777 0.0
H363 H 0.06299 0.81995 0.3215 0.0
H364 H 0.9623 0.81241 0.33552 0.0
H365 H 0.96832 0.817 0.40188 0.0
H366 H 0.03741 0.78733 0.27506 0.0
H367 H 0.92647 0.84383 0.27085 0.0
H368 H 0.9021 0.87464 0.30675 0.0
H369 H 0.99379 0.89548 0.34455 0.0
H370 H 0.01869 0.86492 0.30864 0.0
H371 H 0.93667 0.82129 0.10301 0.0
H372 H 0.94458 0.81568 0.16864 0.0
H373 H 0.04558 0.82011 0.15388 0.0
H374 H 0.03797 0.8256 0.08778 0.0
H375 H 0.97069 0.84569 0.21495 0.0
H376 H 0.08154 0.78858 0.22175 0.0
H377 H 0.10677 0.75805 0.18609 0.0
H378 H 0.01641 0.73892 0.14206 0.0
H379 H 0.99062 0.76914 0.17777 0.0
C380 C 0.04589 0.8215 0.37689 0.0
C381 C 0.01929 0.82135 0.40015 0.0
C382 C 0.04233 0.81887 0.339 0.0
C383 C 0.01216 0.81617 0.32368 0.0
C384 C 0.98576 0.81477 0.34689 0.0
C385 C 0.98927 0.81736 0.38481 0.0
C386 C 0.00801 0.81662 0.28333 0.0
C387 C 0.02306 0.80017 0.26179 0.0
C388 C 0.98905 0.83327 0.26622 0.0
C389 C 0.97436 0.85197 0.28734 0.0
C390 C 0.94141 0.85505 0.28672 0.0
C391 C 0.92752 0.87244 0.3071 0.0
C392 C 0.94638 0.88695 0.32801 0.0
C393 C 0.9792 0.88417 0.32846 0.0
C394 C 0.9932 0.86679 0.30815 0.0
C395 C 0.96065 0.82088 0.11352 0.0
C396 C 0.98671 0.8241 0.09008 0.0
C397 C 0.96508 0.81767 0.15111 0.0
C398 C 0.99562 0.81747 0.16611 0.0
C399 C 0.0218 0.81997 0.14276 0.0
C400 C 0.0174 0.82318 0.10501 0.0
C401 C 0.99976 0.81621 0.20645 0.0
C402 C 0.98487 0.83269 0.22809 0.0
C403 C 0.019 0.79965 0.22348 0.0
C404 C 0.03422 0.78128 0.20216 0.0
C405 C 0.06706 0.77781 0.20454 0.0
C406 C 0.08145 0.76057 0.1843 0.0
C407 C 0.06322 0.74661 0.16173 0.0
C408 C 0.03053 0.74981 0.15943 0.0
C409 C 0.01602 0.76702 0.17961 0.0
H410 H 0.07441 0.73327 0.14608 0.0
H411 H 0.93556 0.90036 0.34383 0.0
H412 H 0.08598 0.84674 0.62158 0.0
H413 H 0.06631 0.84639 0.68467 0.0
H414 H 0.97256 0.83097 0.6452 0.0
H415 H 0.99219 0.83103 0.58173 0.0
H416 H 0.97628 0.86653 0.69974 0.0
H417 H 0.01105 0.78999 0.67986 0.0
H418 H 0.0491 0.76054 0.66134 0.0
H419 H 0.11446 0.78342 0.7437 0.0
H420 H 0.07696 0.81324 0.76235 0.0
H421 H 0.90935 0.83876 0.87146 0.0
H422 H 0.92675 0.83887 0.80759 0.0
H423 H 0.02415 0.83849 0.84345 0.0
H424 H 0.00671 0.83729 0.90757 0.0
H425 H 0.01776 0.81065 0.78944 0.0
H426 H 0.98557 0.88724 0.80945 0.0
H427 H 0.94956 0.91791 0.82826 0.0
H428 H 0.88228 0.89715 0.74649 0.0
H429 H 0.9177 0.86614 0.72755 0.0
C430 C 0.06116 0.84332 0.62628 0.0
C431 C 0.0406 0.83883 0.59681 0.0
C432 C 0.05001 0.84308 0.66231 0.0
C433 C 0.0181 0.8385 0.66945 0.0
C434 C 0.99731 0.83449 0.64009 0.0
C435 C 0.00854 0.83446 0.60397 0.0
C436 C 0.00667 0.83777 0.70775 0.0
C437 C 0.98492 0.85414 0.71933 0.0
C438 C 0.0188 0.82199 0.7333 0.0
C439 C 0.04131 0.80399 0.72226 0.0
C440 C 0.03365 0.78887 0.69381 0.0
C441 C 0.05509 0.77208 0.68333 0.0
C442 C 0.08421 0.77015 0.70127 0.0
C443 C 0.09191 0.78496 0.7298 0.0
C444 C 0.07055 0.80179 0.74036 0.0
C445 C 0.93448 0.83877 0.86571 0.0
C446 C 0.95673 0.83811 0.89438 0.0
C447 C 0.94441 0.83895 0.82919 0.0
C448 C 0.97677 0.83912 0.82066 0.0
C449 C 0.99905 0.83841 0.84936 0.0
C450 C 0.9891 0.83779 0.88594 0.0
C451 C 0.98735 0.83955 0.78182 0.0
C452 C 0.009 0.82309 0.77002 0.0
C453 C 0.97542 0.85548 0.75618 0.0
C454 C 0.95418 0.87424 0.76731 0.0
C455 C 0.96301 0.88912 0.79564 0.0
C456 C 0.94271 0.90658 0.80631 0.0
C457 C 0.91362 0.90945 0.78863 0.0
C458 C 0.9048 0.8949 0.76018 0.0
C459 C 0.925 0.87739 0.74945 0.0
H460 H 0.89793 0.92297 0.79693 0.0
H461 H 0.10079 0.75714 0.69312 0.0
H462 H 0.99788 0.17667 0.90077 0.0
H463 H 0.98172 0.17559 0.83615 0.0
H464 H 0.0748 0.15239 0.80564 0.0
H465 H 0.09119 0.15354 0.87008 0.0
H466 H 0.05333 0.18723 0.76184 0.0
H467 H 0.01505 0.11595 0.8074 0.0
H468 H 0.98547 0.09172 0.85041 0.0
H469 H 0.89907 0.12555 0.82138 0.0
H470 H 0.92823 0.15025 0.77863 0.0
H471 H 0.01299 0.16384 0.57581 0.0
H472 H 0.03262 0.16126 0.63907 0.0
H473 H 0.93764 0.17131 0.67958 0.0
H474 H 0.9179 0.17227 0.6166 0.0
H475 H 0.96268 0.14126 0.71847 0.0
H476 H 0.99917 0.21435 0.67759 0.0
H477 H 0.02746 0.24088 0.63701 0.0
H478 H 0.11492 0.20645 0.65897 0.0
H479 H 0.08707 0.17956 0.69936 0.0
C480 C 0.01485 0.17126 0.8803 0.0
C481 C 0.04577 0.16517 0.89041 0.0
C482 C 0.00557 0.1706 0.84346 0.0
C483 C 0.02705 0.16378 0.81623 0.0
C484 C 0.05793 0.15771 0.82629 0.0
C485 C 0.06718 0.1583 0.86309 0.0
C486 C 0.01745 0.16327 0.77715 0.0
C487 C 0.03378 0.17697 0.75214 0.0
C488 C 0.99152 0.15025 0.76489 0.0
C489 C 0.97387 0.13506 0.79 0.0
C490 C 0.98977 0.11831 0.81034 0.0
C491 C 0.97308 0.10449 0.83466 0.0
C492 C 0.94042 0.10712 0.83867 0.0
C493 C 0.92437 0.12354 0.81826 0.0
C494 C 0.94096 0.13744 0.79395 0.0
C495 C 0.99644 0.16551 0.59833 0.0
C496 C 0.96401 0.1683 0.59152 0.0
C497 C 0.00764 0.16417 0.63447 0.0
C498 C 0.98671 0.16647 0.66427 0.0
C499 C 0.9543 0.1694 0.6572 0.0
C500 C 0.94304 0.17005 0.6212 0.0
C501 C 0.99817 0.16562 0.7029 0.0
C502 C 0.98228 0.15155 0.72793 0.0
C503 C 0.02422 0.1786 0.71531 0.0
C504 C 0.04099 0.19482 0.69118 0.0
C505 C 0.0244 0.21236 0.67357 0.0
C506 C 0.04036 0.22747 0.65064 0.0
C507 C 0.07294 0.22531 0.64534 0.0
C508 C 0.08967 0.20808 0.66305 0.0
C509 C 0.07382 0.19292 0.68599 0.0
H510 H 0.08525 0.23702 0.62756 0.0
H511 H 0.92754 0.09642 0.85754 0.0
H512 H 0.56366 0.67247 0.10379 0.0
H513 H 0.55598 0.67714 0.16956 0.0
H514 H 0.45918 0.69717 0.15112 0.0
H515 H 0.46648 0.69246 0.0847 0.0
H516 H 0.49219 0.72336 0.20603 0.0
H517 H 0.46875 0.64675 0.17598 0.0
H518 H 0.47768 0.60962 0.14711 0.0
H519 H 0.56268 0.60102 0.21032 0.0
H520 H 0.55454 0.6383 0.23915 0.0
H521 H 0.43926 0.69421 0.38888 0.0
H522 H 0.44593 0.69889 0.32251 0.0
H523 H 0.54433 0.68064 0.33243 0.0
H524 H 0.53806 0.67622 0.39889 0.0
H525 H 0.50786 0.65431 0.28137 0.0
H526 H 0.5299 0.73166 0.31185 0.0
H527 H 0.5194 0.76866 0.34042 0.0
H528 H 0.43427 0.77538 0.27681 0.0
H529 H 0.44403 0.73823 0.24824 0.0
C530 C 0.54072 0.67805 0.11347 0.0
C531 C 0.51555 0.68184 0.08888 0.0
C532 C 0.53645 0.68071 0.15114 0.0
C533 C 0.50696 0.68726 0.16507 0.0
C534 C 0.4821 0.69206 0.14073 0.0
C535 C 0.48629 0.68926 0.10286 0.0
C536 C 0.50197 0.68766 0.20521 0.0
C537 C 0.49513 0.70825 0.22255 0.0
C538 C 0.50624 0.66793 0.22657 0.0
C539 C 0.5112 0.64543 0.20945 0.0
C540 C 0.48951 0.63704 0.18348 0.0
C541 C 0.49439 0.61595 0.16717 0.0
C542 C 0.52078 0.603 0.1768 0.0
C543 C 0.54228 0.61109 0.20285 0.0
C544 C 0.53753 0.6322 0.2192 0.0
C545 C 0.46245 0.69154 0.377 0.0
C546 C 0.48812 0.68473 0.39904 0.0
C547 C 0.46621 0.6943 0.33916 0.0
C548 C 0.49559 0.69007 0.32275 0.0
C549 C 0.52149 0.68399 0.34476 0.0
C550 C 0.51789 0.68157 0.38268 0.0
C551 C 0.4986 0.69008 0.28234 0.0
C552 C 0.5049 0.66946 0.26491 0.0
C553 C 0.49348 0.70973 0.26102 0.0
C554 C 0.48751 0.73203 0.27822 0.0
C555 C 0.50876 0.74091 0.30424 0.0
C556 C 0.50299 0.76194 0.32036 0.0
C557 C 0.47613 0.77433 0.31052 0.0
C558 C 0.45504 0.76574 0.28446 0.0
C559 C 0.46069 0.7447 0.26827 0.0
H560 H 0.47171 0.79062 0.32303 0.0
H561 H 0.52451 0.58667 0.16415 0.0
H562 H 0.56235 0.33086 0.38575 0.0
H563 H 0.5542 0.32662 0.31995 0.0
H564 H 0.45854 0.30442 0.33884 0.0
H565 H 0.46626 0.30878 0.4053 0.0
H566 H 0.49349 0.27957 0.282 0.0
H567 H 0.46395 0.35459 0.31607 0.0
H568 H 0.47011 0.39147 0.34667 0.0
H569 H 0.5538 0.40452 0.28351 0.0
H570 H 0.54845 0.36751 0.25296 0.0
H571 H 0.43748 0.31126 0.10031 0.0
H572 H 0.44402 0.30591 0.16666 0.0
H573 H 0.54205 0.32516 0.15813 0.0
H574 H 0.53596 0.33012 0.09168 0.0
H575 H 0.5027 0.35058 0.21019 0.0
H576 H 0.53154 0.27488 0.17621 0.0
H577 H 0.5243 0.23806 0.14577 0.0
H578 H 0.43974 0.22664 0.20823 0.0
H579 H 0.44622 0.2636 0.23867 0.0
C580 C 0.53961 0.32484 0.37617 0.0
C581 C 0.51481 0.32042 0.4009 0.0
C582 C 0.53505 0.32242 0.33848 0.0
C583 C 0.50572 0.31543 0.32469 0.0
C584 C 0.48134 0.30986 0.34914 0.0
C585 C 0.48578 0.31247 0.38703 0.0
C586 C 0.50023 0.31559 0.28461 0.0
C587 C 0.49499 0.2951 0.26627 0.0
C588 C 0.50264 0.33586 0.26427 0.0
C589 C 0.50599 0.35816 0.28252 0.0
C590 C 0.48385 0.36522 0.30897 0.0
C591 C 0.48716 0.38617 0.32626 0.0
C592 C 0.51238 0.40031 0.31712 0.0
C593 C 0.53431 0.39354 0.2906 0.0
C594 C 0.53114 0.37258 0.27328 0.0
C595 C 0.46054 0.31405 0.11251 0.0
C596 C 0.4862 0.3212 0.09089 0.0
C597 C 0.46423 0.3109 0.15031 0.0
C598 C 0.49349 0.31516 0.16706 0.0
C599 C 0.51932 0.32176 0.1455 0.0
C600 C 0.51582 0.3245 0.10761 0.0
C601 C 0.49646 0.31453 0.20744 0.0
C602 C 0.50109 0.33503 0.22588 0.0
C603 C 0.4932 0.29431 0.22774 0.0
C604 C 0.48914 0.27214 0.20937 0.0
C605 C 0.51119 0.26465 0.18315 0.0
C606 C 0.50728 0.24372 0.16597 0.0
C607 C 0.48152 0.23005 0.17497 0.0
C608 C 0.45965 0.23727 0.20124 0.0
C609 C 0.46344 0.2582 0.21848 0.0
H610 H 0.47854 0.21384 0.16166 0.0
H611 H 0.51489 0.41653 0.33051 0.0
H612 H 0.41236 0.34008 0.8716 0.0
H613 H 0.4307 0.3401 0.80786 0.0
H614 H 0.52738 0.33623 0.84523 0.0
H615 H 0.50915 0.33561 0.9093 0.0
H616 H 0.51019 0.37143 0.78756 0.0
H617 H 0.50428 0.2918 0.8158 0.0
H618 H 0.47804 0.25738 0.83857 0.0
H619 H 0.40485 0.26524 0.7576 0.0
H620 H 0.43043 0.29993 0.73471 0.0
H621 H 0.58641 0.34663 0.62016 0.0
H622 H 0.5681 0.34756 0.68361 0.0
H623 H 0.47385 0.3303 0.64762 0.0
H624 H 0.49238 0.32864 0.5839 0.0
H625 H 0.48904 0.30628 0.70534 0.0
H626 H 0.49419 0.38458 0.6749 0.0
H627 H 0.51794 0.41995 0.65223 0.0
H628 H 0.58897 0.4164 0.73649 0.0
H629 H 0.56601 0.3808 0.75928 0.0
C630 C 0.43754 0.33925 0.86625 0.0
C631 C 0.45939 0.33779 0.89527 0.0
C632 C 0.44791 0.33923 0.82991 0.0
C633 C 0.4803 0.33812 0.82208 0.0
C634 C 0.50227 0.33709 0.85095 0.0
C635 C 0.49185 0.33665 0.88738 0.0
C636 C 0.49102 0.33789 0.78356 0.0
C637 C 0.50607 0.35711 0.76958 0.0
C638 C 0.48448 0.31946 0.76014 0.0
C639 C 0.46907 0.29861 0.77384 0.0
C640 C 0.48241 0.28633 0.80311 0.0
C641 C 0.4677 0.26674 0.81598 0.0
C642 C 0.43974 0.25917 0.79962 0.0
C643 C 0.42648 0.27114 0.77029 0.0
C644 C 0.44108 0.29076 0.75735 0.0
C645 C 0.56175 0.3431 0.62572 0.0
C646 C 0.54077 0.3376 0.59714 0.0
C647 C 0.55127 0.34377 0.662 0.0
C648 C 0.51949 0.33936 0.67033 0.0
C649 C 0.49847 0.33382 0.64179 0.0
C650 C 0.50904 0.33292 0.60544 0.0
C651 C 0.50853 0.33985 0.70897 0.0
C652 C 0.49328 0.32068 0.7231 0.0
C653 C 0.51456 0.35849 0.73239 0.0
C654 C 0.52853 0.37988 0.7186 0.0
C655 C 0.51505 0.39122 0.6884 0.0
C656 C 0.52834 0.41134 0.67555 0.0
C657 C 0.55497 0.42039 0.69288 0.0
C658 C 0.56836 0.40935 0.72308 0.0
C659 C 0.55521 0.38921 0.73598 0.0
H660 H 0.5652 0.43599 0.68301 0.0
H661 H 0.42839 0.24398 0.8096 0.0
H662 H 0.49324 0.67699 0.90613 0.0
H663 H 0.47469 0.67647 0.8422 0.0
H664 H 0.56929 0.66123 0.80549 0.0
H665 H 0.58792 0.66157 0.86905 0.0
H666 H 0.53889 0.69607 0.76546 0.0
H667 H 0.51881 0.62029 0.80974 0.0
H668 H 0.49595 0.59296 0.85337 0.0
H669 H 0.40263 0.61709 0.82799 0.0
H670 H 0.425 0.64488 0.7847 0.0
H671 H 0.50965 0.66642 0.58102 0.0
H672 H 0.5271 0.6661 0.64518 0.0
H673 H 0.4297 0.66568 0.68077 0.0
H674 H 0.41234 0.66472 0.61678 0.0
H675 H 0.46073 0.63939 0.72267 0.0
H676 H 0.47789 0.71503 0.68024 0.0
H677 H 0.4985 0.74481 0.6394 0.0
H678 H 0.59364 0.72398 0.66331 0.0
H679 H 0.57358 0.69388 0.70395 0.0
C680 C 0.51003 0.67356 0.88439 0.0
C681 C 0.54197 0.66926 0.89246 0.0
C682 C 0.49943 0.67324 0.848 0.0
C683 C 0.52068 0.66873 0.81933 0.0
C684 C 0.55262 0.66476 0.82733 0.0
C685 C 0.56315 0.66487 0.86362 0.0
C686 C 0.50971 0.66787 0.78085 0.0
C687 C 0.52204 0.68356 0.75588 0.0
C688 C 0.48711 0.65192 0.76892 0.0
C689 C 0.47361 0.63481 0.79423 0.0
C690 C 0.49343 0.61988 0.81364 0.0
C691 C 0.48057 0.60429 0.8383 0.0
C692 C 0.44787 0.60332 0.84351 0.0
C693 C 0.42796 0.61788 0.82396 0.0
C694 C 0.44072 0.63355 0.79935 0.0
C695 C 0.49206 0.66617 0.60261 0.0
C696 C 0.4597 0.66572 0.59409 0.0
C697 C 0.50199 0.66612 0.63924 0.0
C698 C 0.47969 0.66636 0.66787 0.0
C699 C 0.44736 0.66553 0.65923 0.0
C700 C 0.43746 0.66504 0.62266 0.0
C701 C 0.48994 0.66763 0.70683 0.0
C702 C 0.47751 0.65199 0.73203 0.0
C703 C 0.51208 0.68392 0.71915 0.0
C704 C 0.52421 0.70207 0.69486 0.0
C705 C 0.5032 0.71671 0.67659 0.0
C706 C 0.51478 0.73366 0.65351 0.0
C707 C 0.54736 0.73625 0.64869 0.0
C708 C 0.56842 0.72193 0.66703 0.0
C709 C 0.55696 0.70494 0.69012 0.0
H710 H 0.55628 0.74938 0.63081 0.0
H711 H 0.43795 0.59127 0.86264 0.0
H712 H 0.32719 0.33617 0.00842 0.0
H713 H 0.28008 0.31273 0.0176 0.0
H714 H 0.33959 0.25666 0.04948 0.0
H715 H 0.38643 0.27964 0.03806 0.0
H716 H 0.30065 0.24207 0.00363 0.0
H717 H 0.28777 0.28777 0.11132 0.0
H718 H 0.28356 0.32316 0.14673 0.0
H719 H 0.20165 0.34234 0.08413 0.0
H720 H 0.20559 0.3072 0.04803 0.0
H721 H 0.16782 0.17127 0.03994 0.0
H722 H 0.2152 0.19417 0.05178 0.0
H723 H 0.16761 0.25283 0.008 0.0
H724 H 0.12046 0.23038 -0.00313 0.0
H725 H 0.20156 0.26428 0.06671 0.0
H726 H 0.21881 0.22053 0.95542 0.0
H727 H 0.22321 0.18519 0.91985 0.0
H728 H 0.2977 0.16234 0.99117 0.0
H729 H 0.29346 0.19745 0.02741 0.0
C730 C 0.33002 0.31897 0.01805 0.0
C731 C 0.36031 0.30965 0.02246 0.0
C732 C 0.30311 0.30556 0.02347 0.0
C733 C 0.30609 0.28284 0.03455 0.0
C734 C 0.3365 0.27401 0.04071 0.0
C735 C 0.36328 0.28719 0.03434 0.0
C736 C 0.278 0.26765 0.0367 0.0
C737 C 0.27928 0.24681 0.01819 0.0
C738 C 0.24969 0.27384 0.05493 0.0
C739 C 0.24713 0.29491 0.0768 0.0
C740 C 0.26897 0.29959 0.10496 0.0
C741 C 0.26662 0.3196 0.12518 0.0
C742 C 0.24239 0.33501 0.11764 0.0
C743 C 0.22041 0.3304 0.08993 0.0
C744 C 0.22267 0.31043 0.06962 0.0
C745 C 0.16743 0.18909 0.03323 0.0
C746 C 0.14048 0.19894 0.01718 0.0
C747 C 0.19451 0.20215 0.0399 0.0
C748 C 0.1951 0.2252 0.03037 0.0
C749 C 0.16778 0.23513 0.01562 0.0
C750 C 0.14084 0.22218 0.00908 0.0
C751 C 0.22442 0.23893 0.03364 0.0
C752 C 0.22326 0.25949 0.05289 0.0
C753 C 0.25293 0.23249 0.01626 0.0
C754 C 0.25558 0.21147 -0.00566 0.0
C755 C 0.23598 0.20789 0.96364 0.0
C756 C 0.23846 0.18792 0.94335 0.0
C757 C 0.26065 0.1715 0.95331 0.0
C758 C 0.28048 0.17506 0.98352 0.0
C759 C 0.27806 0.19499 0.00393 0.0
H760 H 0.26254 0.15605 0.93757 0.0
H761 H 0.24062 0.35049 0.1333 0.0
H762 H 0.67303 0.66634 0.01793 0.0
H763 H 0.72096 0.68906 0.0277 0.0
H764 H 0.66353 0.74908 0.03747 0.0
H765 H 0.61615 0.72672 0.02675 0.0
H766 H 0.70783 0.7559 0.9896 0.0
H767 H 0.70427 0.72521 0.11177 0.0
H768 H 0.70213 0.69504 0.15843 0.0
H769 H 0.79004 0.66807 0.11892 0.0
H770 H 0.79249 0.69791 0.07168 0.0
H771 H 0.83009 0.83303 0.0319 0.0
H772 H 0.78318 0.80938 0.04176 0.0
H773 H 0.83892 0.7496 0.02162 0.0
H774 H 0.88563 0.77297 0.01192 0.0
H775 H 0.79588 0.74289 0.07733 0.0
H776 H 0.79746 0.77149 0.95334 0.0
H777 H 0.80001 0.80118 0.90588 0.0
H778 H 0.71539 0.83144 0.94869 0.0
H779 H 0.7126 0.80208 -0.00325 0.0
C780 C 0.67073 0.68431 0.02288 0.0
C781 C 0.64096 0.69481 0.02124 0.0
C782 C 0.69808 0.69729 0.02853 0.0
C783 C 0.69589 0.72085 0.03324 0.0
C784 C 0.66592 0.73101 0.03358 0.0
C785 C 0.63882 0.71818 0.0275 0.0
C786 C 0.72457 0.73538 0.03462 0.0
C787 C 0.72676 0.75324 0.00931 0.0
C788 C 0.74979 0.73161 0.05953 0.0
C789 C 0.7484 0.71368 0.08795 0.0
C790 C 0.72301 0.71274 0.11284 0.0
C791 C 0.72177 0.69572 0.13942 0.0
C792 C 0.74589 0.67961 0.14157 0.0
C793 C 0.77135 0.68054 0.11719 0.0
C794 C 0.7727 0.69752 0.09053 0.0
C795 C 0.83239 0.81484 0.03014 0.0
C796 C 0.86143 0.80488 0.02072 0.0
C797 C 0.80561 0.80135 0.03571 0.0
C798 C 0.80752 0.77773 0.03204 0.0
C799 C 0.83688 0.76776 0.0246 0.0
C800 C 0.86352 0.78118 0.01882 0.0
C801 C 0.77865 0.76349 0.03279 0.0
C802 C 0.77662 0.74562 0.05809 0.0
C803 C 0.75349 0.76717 0.00785 0.0
C804 C 0.75502 0.78476 0.97888 0.0
C805 C 0.77954 0.78458 0.9528 0.0
C806 C 0.78101 0.80133 0.92577 0.0
C807 C 0.75793 0.81822 0.92434 0.0
C808 C 0.73328 0.81836 0.94988 0.0
C809 C 0.73174 0.80168 0.97701 0.0
H810 H 0.7591 0.83117 0.90338 0.0
H811 H 0.74488 0.66645 0.16218 0.0
H812 H 0.17531 0.8376 0.4758 0.0
H813 H 0.2224 0.81398 0.46578 0.0
H814 H 0.16283 0.75519 0.45497 0.0
H815 H 0.11633 0.77841 0.46629 0.0
H816 H 0.20709 0.74607 0.50041 0.0
H817 H 0.20449 0.77986 0.38065 0.0
H818 H 0.20308 0.81106 0.33577 0.0
H819 H 0.29157 0.83594 0.37718 0.0
H820 H 0.29331 0.80505 0.42265 0.0
H821 H 0.33178 0.66989 0.45704 0.0
H822 H 0.28403 0.69298 0.44764 0.0
H823 H 0.33783 0.75329 0.47004 0.0
H824 H 0.38521 0.73056 0.47913 0.0
H825 H 0.29585 0.76042 0.41469 0.0
H826 H 0.29552 0.72859 0.53725 0.0
H827 H 0.29693 0.69753 0.58242 0.0
H828 H 0.21303 0.66905 0.53471 0.0
H829 H 0.21137 0.69981 0.48893 0.0
C830 C 0.17239 0.8197 0.47069 0.0
C831 C 0.14226 0.8098 0.47214 0.0
C832 C 0.19926 0.8062 0.46486 0.0
C833 C 0.19625 0.78271 0.45957 0.0
C834 C 0.16591 0.77316 0.45929 0.0
C835 C 0.1393 0.78649 0.4657 0.0
C836 C 0.22446 0.76765 0.45716 0.0
C837 C 0.22615 0.74904 0.48109 0.0
C838 C 0.24982 0.77168 0.43265 0.0
C839 C 0.24887 0.79025 0.40528 0.0
C840 C 0.22353 0.79208 0.38037 0.0
C841 C 0.22269 0.8097 0.35479 0.0
C842 C 0.24718 0.82551 0.35369 0.0
C843 C 0.2726 0.8237 0.3781 0.0
C844 C 0.27354 0.80612 0.40375 0.0
C845 C 0.33343 0.68808 0.4594 0.0
C846 C 0.36215 0.69837 0.46923 0.0
C847 C 0.30618 0.70125 0.45414 0.0
C848 C 0.30731 0.72487 0.45853 0.0
C849 C 0.33634 0.73515 0.4665 0.0
C850 C 0.36339 0.72206 0.47193 0.0
C851 C 0.27812 0.7389 0.45767 0.0
C852 C 0.27642 0.75736 0.43346 0.0
C853 C 0.25263 0.73476 0.48184 0.0
C854 C 0.25354 0.71633 0.50943 0.0
C855 C 0.27752 0.7156 0.53623 0.0
C856 C 0.27834 0.69808 0.56196 0.0
C857 C 0.25514 0.68129 0.56137 0.0
C858 C 0.23102 0.68204 0.53509 0.0
C859 C 0.23012 0.69951 0.50926 0.0
H860 H 0.25581 0.66774 0.58132 0.0
H861 H 0.24648 0.83913 0.33386 0.0
H862 H 0.67259 0.33593 0.47285 0.0
H863 H 0.71978 0.31238 0.46306 0.0
H864 H 0.66052 0.25333 0.45377 0.0
H865 H 0.61391 0.27652 0.46479 0.0
H866 H 0.70495 0.24483 0.49954 0.0
H867 H 0.70197 0.27725 0.37881 0.0
H868 H 0.70028 0.30792 0.33299 0.0
H869 H 0.78861 0.33362 0.37352 0.0
H870 H 0.79063 0.30327 0.41993 0.0
H871 H 0.83116 0.16902 0.45891 0.0
H872 H 0.78282 0.19146 0.4493 0.0
H873 H 0.83562 0.25265 0.46834 0.0
H874 H 0.88354 0.23059 0.47756 0.0
H875 H 0.79356 0.25862 0.41338 0.0
H876 H 0.79358 0.22842 0.537 0.0
H877 H 0.79534 0.19802 0.58333 0.0
H878 H 0.71181 0.16836 0.53666 0.0
H879 H 0.70981 0.19845 0.48973 0.0
C880 C 0.66974 0.31799 0.46806 0.0
C881 C 0.63967 0.30802 0.46988 0.0
C882 C 0.69667 0.30452 0.46238 0.0
C883 C 0.69379 0.28098 0.45765 0.0
C884 C 0.6635 0.27135 0.45765 0.0
C885 C 0.63683 0.28466 0.46389 0.0
C886 C 0.7221 0.26598 0.45563 0.0
C887 C 0.72398 0.24766 0.48013 0.0
C888 C 0.74742 0.26985 0.43099 0.0
C889 C 0.7463 0.28809 0.40307 0.0
C890 C 0.72092 0.28954 0.37814 0.0
C891 C 0.71992 0.30685 0.35203 0.0
C892 C 0.74428 0.32274 0.35041 0.0
C893 C 0.76974 0.32132 0.37484 0.0
C894 C 0.77083 0.30405 0.40103 0.0
C895 C 0.83244 0.18726 0.46055 0.0
C896 C 0.86108 0.19799 0.46937 0.0
C897 C 0.80485 0.20006 0.45517 0.0
C898 C 0.80554 0.22376 0.45849 0.0
C899 C 0.83444 0.23444 0.46562 0.0
C900 C 0.86183 0.22173 0.47112 0.0
C901 C 0.7761 0.23753 0.45709 0.0
C902 C 0.77416 0.25568 0.43226 0.0
C903 C 0.75063 0.23354 0.48137 0.0
C904 C 0.75176 0.21551 0.50962 0.0
C905 C 0.77574 0.21531 0.53646 0.0
C906 C 0.77675 0.19816 0.56285 0.0
C907 C 0.75376 0.18123 0.56287 0.0
C908 C 0.72964 0.18145 0.53656 0.0
C909 C 0.72855 0.19855 0.51007 0.0
H910 H 0.75457 0.16797 0.58333 0.0
H911 H 0.74347 0.33613 0.33017 0.0
loop_
_geom_bond_atom_site_label_1
_geom_bond_atom_site_label_2
_geom_bond_distance
_geom_bond_site_symmetry_2
_ccdc_geom_bond_type
Co0 O1 2.216 . S
Co0 O2 2.091 1_556 S
Co0 O4 2.004 . S
Co0 O10 2.021 1_556 S
Co0 O12 2.137 . S
Co0 O13 2.244 . S
O1 Co0 2.216 . S
O1 C8 1.244 1_556 S
O2 Co0 2.091 1_554 S
O2 C8 1.262 . S
C3 O12 1.247 . S
C3 O13 1.272 . S
O4 Co0 2.004 . S
O4 C9 1.263 . S
Co5 O6 2.062 1_655 S
Co5 O11 2.055 . S
Co5 O13 2.132 1_654 S
O6 Co5 2.062 1_455 S
O6 C9 1.232 1_554 S
C7 O10 1.238 . S
C7 O11 1.241 1_455 S
C8 O1 1.244 1_554 S
C8 O2 1.262 . S
C9 O4 1.263 . S
C9 O6 1.232 1_556 S
O10 Co0 2.021 1_554 S
O10 C7 1.238 . S
O11 Co5 2.055 . S
O11 C7 1.241 1_655 S
O12 Co0 2.137 . S
O12 C3 1.247 . S
O13 Co0 2.244 . S
O13 C3 1.272 . S
O13 Co5 2.132 1_456 S
Co14 O15 2.216 . S
Co14 O16 2.091 1_556 S
Co14 O18 2.004 . S
Co14 O24 2.021 1_556 S
Co14 O26 2.137 . S
Co14 O27 2.244 . S
O15 Co14 2.216 . S
O15 C22 1.244 1_556 S
O16 Co14 2.091 1_554 S
O16 C22 1.262 . S
C17 O26 1.247 . S
C17 O27 1.272 . S
O18 Co14 2.004 . S
O18 C23 1.263 . S
Co19 O20 2.062 1_455 S
Co19 O25 2.055 . S
Co19 O27 2.132 1_454 S
O20 Co19 2.062 1_655 S
O20 C23 1.232 1_554 S
C21 O24 1.238 . S
C21 O25 1.241 1_655 S
C22 O15 1.244 1_554 S
C22 O16 1.262 . S
C23 O18 1.263 . S
C23 O20 1.232 1_556 S
O24 Co14 2.021 1_554 S
O24 C21 1.238 . S
O25 Co19 2.055 . S
O25 C21 1.241 1_455 S
O26 Co14 2.137 . S
O26 C17 1.247 . S
O27 Co14 2.244 . S
O27 C17 1.272 . S
O27 Co19 2.132 1_656 S
Co28 O29 2.216 . S
Co28 O30 2.091 . S
Co28 O32 2.004 . S
Co28 O38 2.021 . S
Co28 O40 2.137 . S
Co28 O41 2.244 . S
O29 Co28 2.216 . S
O29 C36 1.247 . S
O30 Co28 2.091 . S
O30 C36 1.261 . S
C31 O40 1.247 . S
C31 O41 1.272 . S
O32 Co28 2.004 . S
O32 C37 1.259 . S
Co33 O34 2.061 1_655 S
Co33 O39 2.052 . S
Co33 O41 2.135 1_655 S
O34 Co33 2.061 1_455 S
O34 C37 1.235 . S
C35 O38 1.238 . S
C35 O39 1.241 1_455 S
C36 O29 1.247 . S
C36 O30 1.261 . S
C37 O32 1.259 . S
C37 O34 1.235 . S
O38 Co28 2.021 . S
O38 C35 1.238 . S
O39 Co33 2.052 . S
O39 C35 1.241 1_655 S
O40 Co28 2.137 . S
O40 C31 1.247 . S
O41 Co28 2.244 . S
O41 C31 1.272 . S
O41 Co33 2.135 1_455 S
Co42 O43 2.216 . S
Co42 O44 2.091 . S
Co42 O46 2.004 . S
Co42 O52 2.021 . S
Co42 O54 2.137 . S
Co42 O55 2.244 . S
O43 Co42 2.216 . S
O43 C50 1.247 . S
O44 Co42 2.091 . S
O44 C50 1.261 . S
C45 O54 1.247 . S
C45 O55 1.272 . S
O46 Co42 2.004 . S
O46 C51 1.259 . S
Co47 O48 2.061 1_455 S
Co47 O53 2.052 . S
Co47 O55 2.135 1_455 S
O48 Co47 2.061 1_655 S
O48 C51 1.235 . S
C49 O52 1.238 . S
C49 O53 1.241 1_655 S
C50 O43 1.247 . S
C50 O44 1.261 . S
C51 O46 1.259 . S
C51 O48 1.235 . S
O52 Co42 2.021 . S
O52 C49 1.238 . S
O53 Co47 2.052 . S
O53 C49 1.241 1_455 S
O54 Co42 2.137 . S
O54 C45 1.247 . S
O55 Co42 2.244 . S
O55 C45 1.272 . S
O55 Co47 2.135 1_655 S
Co56 O57 2.216 . S
Co56 O58 2.091 1_556 S
Co56 O60 2.004 . S
Co56 O66 2.021 1_556 S
Co56 O68 2.137 . S
Co56 O69 2.244 . S
O57 Co56 2.216 . S
O57 C64 1.244 1_556 S
O58 Co56 2.091 1_554 S
O58 C64 1.262 . S
C59 O68 1.247 . S
C59 O69 1.272 . S
O60 Co56 2.004 . S
O60 C65 1.263 . S
Co61 O62 2.062 . S
Co61 O67 2.055 . S
Co61 O69 2.132 1_554 S
O62 Co61 2.062 . S
O62 C65 1.232 1_554 S
C63 O66 1.238 . S
C63 O67 1.241 . S
C64 O57 1.244 1_554 S
C64 O58 1.262 . S
C65 O60 1.263 . S
C65 O62 1.232 1_556 S
O66 Co56 2.021 1_554 S
O66 C63 1.238 . S
O67 Co61 2.055 . S
O67 C63 1.241 . S
O68 Co56 2.137 . S
O68 C59 1.247 . S
O69 Co56 2.244 . S
O69 C59 1.272 . S
O69 Co61 2.132 1_556 S
Co70 O71 2.216 . S
Co70 O72 2.091 1_556 S
Co70 O74 2.004 . S
Co70 O80 2.021 1_556 S
Co70 O82 2.137 . S
Co70 O83 2.244 . S
O71 Co70 2.216 . S
O71 C78 1.244 1_556 S
O72 Co70 2.091 1_554 S
O72 C78 1.262 . S
C73 O82 1.247 . S
C73 O83 1.272 . S
O74 Co70 2.004 . S
O74 C79 1.263 . S
Co75 O76 2.062 . S
Co75 O81 2.055 . S
Co75 O83 2.132 1_554 S
O76 Co75 2.062 . S
O76 C79 1.232 1_554 S
C77 O80 1.238 . S
C77 O81 1.241 . S
C78 O71 1.244 1_554 S
C78 O72 1.262 . S
C79 O74 1.263 . S
C79 O76 1.232 1_556 S
O80 Co70 2.021 1_554 S
O80 C77 1.238 . S
O81 Co75 2.055 . S
O81 C77 1.241 . S
O82 Co70 2.137 . S
O82 C73 1.247 . S
O83 Co70 2.244 . S
O83 C73 1.272 . S
O83 Co75 2.132 1_556 S
Co84 O85 2.216 . S
Co84 O86 2.091 . S
Co84 O88 2.004 . S
Co84 O94 2.021 . S
Co84 O96 2.137 . S
Co84 O97 2.244 . S
O85 Co84 2.216 . S
O85 C92 1.247 . S
O86 Co84 2.091 . S
O86 C92 1.261 . S
C87 O96 1.247 . S
C87 O97 1.272 . S
O88 Co84 2.004 . S
O88 C93 1.259 . S
Co89 O90 2.061 . S
Co89 O95 2.052 . S
Co89 O97 2.135 . S
O90 Co89 2.061 . S
O90 C93 1.235 . S
C91 O94 1.238 . S
C91 O95 1.241 . S
C92 O85 1.247 . S
C92 O86 1.261 . S
C93 O88 1.259 . S
C93 O90 1.235 . S
O94 Co84 2.021 . S
O94 C91 1.238 . S
O95 Co89 2.052 . S
O95 C91 1.241 . S
O96 Co84 2.137 . S
O96 C87 1.247 . S
O97 Co84 2.244 . S
O97 C87 1.272 . S
O97 Co89 2.135 . S
Co98 O99 2.216 . S
Co98 O100 2.091 . S
Co98 O102 2.004 . S
Co98 O108 2.021 . S
Co98 O110 2.137 . S
Co98 O111 2.244 . S
O99 Co98 2.216 . S
O99 C106 1.247 . S
O100 Co98 2.091 . S
O100 C106 1.261 . S
C101 O110 1.247 . S
C101 O111 1.272 . S
O102 Co98 2.004 . S
O102 C107 1.259 . S
Co103 O104 2.061 . S
Co103 O109 2.052 . S
Co103 O111 2.135 . S
O104 Co103 2.061 . S
O104 C107 1.235 . S
C105 O108 1.238 . S
C105 O109 1.241 . S
C106 O99 1.247 . S
C106 O100 1.261 . S
C107 O102 1.259 . S
C107 O104 1.235 . S
O108 Co98 2.021 . S
O108 C105 1.238 . S
O109 Co103 2.052 . S
O109 C105 1.241 . S
O110 Co98 2.137 . S
O110 C101 1.247 . S
O111 Co98 2.244 . S
O111 C101 1.272 . S
O111 Co103 2.135 . S
H112 C130 0.951 . S
H113 C132 0.951 . S
H114 C134 0.950 . S
H115 C135 0.950 . S
H116 C137 0.950 . S
H117 C140 0.950 . S
H118 C141 0.950 . S
H119 C143 0.950 . S
H120 C144 0.950 . S
H121 C145 0.951 . S
H122 C147 0.951 . S
H123 C149 0.950 . S
H124 C150 0.950 . S
H125 C152 0.950 . S
H126 C155 0.950 . S
H127 C156 0.950 . S
H128 C158 0.950 . S
H129 C159 0.950 . S
C130 H112 0.951 . S
C130 C131 1.364 . S
C130 C132 1.388 . S
C131 C130 1.364 . S
C131 C135 1.387 1_554 S
C132 H113 0.951 . S
C132 C130 1.388 . S
C132 C133 1.374 . S
C133 C132 1.374 . S
C133 C134 1.405 1_554 S
C133 C136 1.498 1_554 S
C134 H114 0.950 . S
C134 C133 1.405 1_556 S
C134 C135 1.374 . S
C135 H115 0.950 . S
C135 C131 1.387 1_556 S
C135 C134 1.374 . S
C136 C133 1.498 1_556 S
C136 C137 1.388 1_655 S
C136 C138 1.375 1_556 S
C137 H116 0.950 . S
C137 C136 1.388 1_455 S
C137 C153 1.377 1_565 S
C138 C136 1.375 1_554 S
C138 C139 1.524 . S
C138 C152 1.377 1_565 S
C139 C138 1.524 . S
C139 C140 1.397 . S
C139 C144 1.363 . S
C140 H117 0.950 . S
C140 C139 1.397 . S
C140 C141 1.334 . S
C141 H118 0.950 . S
C141 C140 1.334 . S
C141 C142 1.287 . S
C142 C141 1.287 . S
C142 C143 1.524 . S
C142 H161 0.913 . S
C143 H119 0.950 . S
C143 C142 1.524 . S
C143 C144 1.415 . S
C144 H120 0.950 . S
C144 C139 1.363 . S
C144 C143 1.415 . S
C145 H121 0.951 . S
C145 C146 1.366 1_556 S
C145 C147 1.388 . S
C146 C145 1.366 1_554 S
C146 C150 1.384 . S
C147 H122 0.951 . S
C147 C145 1.388 . S
C147 C148 1.371 . S
C148 C147 1.371 . S
C148 C149 1.409 1_556 S
C148 C151 1.498 1_556 S
C149 H123 0.950 . S
C149 C148 1.409 1_554 S
C149 C150 1.374 . S
C150 H124 0.950 . S
C150 C146 1.384 . S
C150 C149 1.374 . S
C151 C148 1.498 1_554 S
C151 C152 1.391 1_455 S
C151 C153 1.372 1_554 S
C152 H125 0.950 . S
C152 C138 1.377 1_545 S
C152 C151 1.391 1_655 S
C153 C137 1.377 1_545 S
C153 C151 1.372 1_556 S
C153 C154 1.524 . S
C154 C153 1.524 . S
C154 C155 1.397 . S
C154 C159 1.363 . S
C155 H126 0.950 . S
C155 C154 1.397 . S
C155 C156 1.334 . S
C156 H127 0.950 . S
C156 C155 1.334 . S
C156 C157 1.287 . S
C157 C156 1.287 . S
C157 C158 1.524 . S
C157 H160 0.999 . S
C158 H128 0.950 . S
C158 C157 1.524 . S
C158 C159 1.415 . S
C159 H129 0.950 . S
C159 C154 1.363 . S
C159 C158 1.415 . S
H160 C157 0.999 . S
H161 C142 0.913 . S
H162 C180 0.970 . S
H163 C182 0.951 . S
H164 C184 0.950 . S
H165 C185 0.950 . S
H166 C187 0.950 . S
H167 C190 0.950 1_455 S
H168 C191 0.950 1_455 S
H169 C193 0.950 . S
H170 C194 0.950 . S
H171 C195 0.970 . S
H172 C197 0.951 . S
H173 C199 0.950 . S
H174 C200 0.950 . S
H175 C202 0.950 . S
H176 C205 0.950 1_655 S
H177 C206 0.950 1_655 S
H178 C208 0.950 . S
H179 C209 0.950 . S
C180 H162 0.970 . S
C180 C181 1.341 1_655 S
C180 C182 1.394 . S
C181 C180 1.341 1_455 S
C181 C185 1.385 . S
C182 H163 0.951 . S
C182 C180 1.394 . S
C182 C183 1.366 1_655 S
C183 C182 1.366 1_455 S
C183 C184 1.414 . S
C183 C186 1.499 . S
C184 H164 0.950 . S
C184 C183 1.414 . S
C184 C185 1.374 . S
C185 H165 0.950 . S
C185 C181 1.385 . S
C185 C184 1.374 . S
C186 C183 1.499 . S
C186 C187 1.373 . S
C186 C188 1.389 1_455 S
C187 H166 0.950 . S
C187 C186 1.373 . S
C187 C203 1.377 1_565 S
C188 C186 1.389 1_655 S
C188 C189 1.524 . S
C188 C202 1.377 1_565 S
C189 C188 1.524 . S
C189 C190 1.397 . S
C189 C194 1.363 . S
C190 H167 0.950 1_655 S
C190 C189 1.397 . S
C190 C191 1.334 . S
C191 H168 0.950 1_655 S
C191 C190 1.334 . S
C191 C192 1.287 . S
C192 C191 1.287 . S
C192 C193 1.524 . S
C192 H211 0.913 . S
C193 H169 0.950 . S
C193 C192 1.524 . S
C193 C194 1.415 . S
C194 H170 0.950 . S
C194 C189 1.363 . S
C194 C193 1.415 . S
C195 H171 0.970 . S
C195 C196 1.341 1_455 S
C195 C197 1.394 . S
C196 C195 1.341 1_655 S
C196 C200 1.385 . S
C197 H172 0.951 . S
C197 C195 1.394 . S
C197 C198 1.366 1_455 S
C198 C197 1.366 1_655 S
C198 C199 1.414 . S
C198 C201 1.499 . S
C199 H173 0.950 . S
C199 C198 1.414 . S
C199 C200 1.374 . S
C200 H174 0.950 . S
C200 C196 1.385 . S
C200 C199 1.374 . S
C201 C198 1.499 . S
C201 C202 1.373 . S
C201 C203 1.389 1_655 S
C202 H175 0.950 . S
C202 C188 1.377 1_545 S
C202 C201 1.373 . S
C203 C187 1.377 1_545 S
C203 C201 1.389 1_455 S
C203 C204 1.524 . S
C204 C203 1.524 . S
C204 C205 1.397 . S
C204 C209 1.363 . S
C205 H176 0.950 1_455 S
C205 C204 1.397 . S
C205 C206 1.334 . S
C206 H177 0.950 1_455 S
C206 C205 1.334 . S
C206 C207 1.287 . S
C207 C206 1.287 . S
C207 C208 1.524 . S
C207 H210 0.999 . S
C208 H178 0.950 . S
C208 C207 1.524 . S
C208 C209 1.415 . S
C209 H179 0.950 . S
C209 C204 1.363 . S
C209 C208 1.415 . S
H210 C207 0.999 . S
H211 C192 0.913 . S
H212 C230 0.951 . S
H213 C232 0.951 . S
H214 C234 0.950 . S
H215 C235 0.950 . S
H216 C237 0.950 . S
H217 C240 0.950 . S
H218 C241 0.950 . S
H219 C243 0.950 . S
H220 C244 0.950 1_556 S
H221 C245 0.951 . S
H222 C247 0.951 . S
H223 C249 0.950 . S
H224 C250 0.950 . S
H225 C252 0.950 . S
H226 C255 0.950 . S
H227 C256 0.950 . S
H228 C258 0.950 . S
H229 C259 0.950 1_554 S
C230 H212 0.951 . S
C230 C231 1.367 1_556 S
C230 C232 1.388 . S
C231 C230 1.367 1_554 S
C231 C235 1.383 . S
C232 H213 0.951 . S
C232 C230 1.388 . S
C232 C233 1.366 1_556 S
C233 C232 1.366 1_554 S
C233 C234 1.414 . S
C233 C236 1.499 . S
C234 H214 0.950 . S
C234 C233 1.414 . S
C234 C235 1.374 . S
C235 H215 0.950 . S
C235 C231 1.383 . S
C235 C234 1.374 . S
C236 C233 1.499 . S
C236 C237 1.373 1_554 S
C236 C238 1.389 . S
C237 H216 0.950 . S
C237 C236 1.373 1_556 S
C237 C253 1.377 . S
C238 C236 1.389 . S
C238 C239 1.524 . S
C238 C252 1.377 . S
C239 C238 1.524 . S
C239 C240 1.397 . S
C239 C244 1.363 . S
C240 H217 0.950 . S
C240 C239 1.397 . S
C240 C241 1.334 . S
C241 H218 0.950 . S
C241 C240 1.334 . S
C241 C242 1.287 . S
C242 C241 1.287 . S
C242 C243 1.524 . S
C242 H261 0.913 . S
C243 H219 0.950 . S
C243 C242 1.524 . S
C243 C244 1.415 . S
C244 H220 0.950 1_554 S
C244 C239 1.363 . S
C244 C243 1.415 . S
C245 H221 0.951 . S
C245 C246 1.366 . S
C245 C247 1.388 . S
C246 C245 1.366 . S
C246 C250 1.385 1_554 S
C247 H222 0.951 . S
C247 C245 1.388 . S
C247 C248 1.366 1_554 S
C248 C247 1.366 1_556 S
C248 C249 1.414 . S
C248 C251 1.499 . S
C249 H223 0.950 . S
C249 C248 1.414 . S
C249 C250 1.374 . S
C250 H224 0.950 . S
C250 C246 1.385 1_556 S
C250 C249 1.374 . S
C251 C248 1.499 . S
C251 C252 1.373 1_556 S
C251 C253 1.389 . S
C252 H225 0.950 . S
C252 C238 1.377 . S
C252 C251 1.373 1_554 S
C253 C237 1.377 . S
C253 C251 1.389 . S
C253 C254 1.524 . S
C254 C253 1.524 . S
C254 C255 1.397 . S
C254 C259 1.363 . S
C255 H226 0.950 . S
C255 C254 1.397 . S
C255 C256 1.334 . S
C256 H227 0.950 . S
C256 C255 1.334 . S
C256 C257 1.287 . S
C257 C256 1.287 . S
C257 C258 1.524 . S
C257 H260 0.999 . S
C258 H228 0.950 . S
C258 C257 1.524 . S
C258 C259 1.415 . S
C259 H229 0.950 1_556 S
C259 C254 1.363 . S
C259 C258 1.415 . S
H260 C257 0.999 . S
H261 C242 0.913 . S
H262 C280 0.951 . S
H263 C282 0.951 . S
H264 C284 0.950 . S
H265 C285 0.950 . S
H266 C287 0.950 . S
H267 C290 0.950 . S
H268 C291 0.950 . S
H269 C293 0.950 . S
H270 C294 0.950 . S
H271 C295 0.951 . S
H272 C297 0.951 . S
H273 C299 0.950 . S
H274 C300 0.950 . S
H275 C302 0.950 . S
H276 C305 0.950 . S
H277 C306 0.950 . S
H278 C308 0.950 . S
H279 C309 0.950 . S
C280 H262 0.951 . S
C280 C281 1.366 . S
C280 C282 1.388 . S
C281 C280 1.366 . S
C281 C285 1.385 . S
C282 H263 0.951 . S
C282 C280 1.388 . S
C282 C283 1.366 . S
C283 C282 1.366 . S
C283 C284 1.414 . S
C283 C286 1.499 . S
C284 H264 0.950 . S
C284 C283 1.414 . S
C284 C285 1.374 . S
C285 H265 0.950 . S
C285 C281 1.385 . S
C285 C284 1.374 . S
C286 C283 1.499 . S
C286 C287 1.373 . S
C286 C288 1.389 . S
C287 H266 0.950 . S
C287 C286 1.373 . S
C287 C303 1.377 . S
C288 C286 1.389 . S
C288 C289 1.524 . S
C288 C302 1.377 . S
C289 C288 1.524 . S
C289 C290 1.397 . S
C289 C294 1.363 . S
C290 H267 0.950 . S
C290 C289 1.397 . S
C290 C291 1.334 . S
C291 H268 0.950 . S
C291 C290 1.334 . S
C291 C292 1.287 . S
C292 C291 1.287 . S
C292 C293 1.524 . S
C292 H311 0.913 . S
C293 H269 0.950 . S
C293 C292 1.524 . S
C293 C294 1.415 . S
C294 H270 0.950 . S
C294 C289 1.363 . S
C294 C293 1.415 . S
C295 H271 0.951 . S
C295 C296 1.366 . S
C295 C297 1.388 . S
C296 C295 1.366 . S
C296 C300 1.385 . S
C297 H272 0.951 . S
C297 C295 1.388 . S
C297 C298 1.366 . S
C298 C297 1.366 . S
C298 C299 1.414 . S
C298 C301 1.499 . S
C299 H273 0.950 . S
C299 C298 1.414 . S
C299 C300 1.374 . S
C300 H274 0.950 . S
C300 C296 1.385 . S
C300 C299 1.374 . S
C301 C298 1.499 . S
C301 C302 1.373 . S
C301 C303 1.389 . S
C302 H275 0.950 . S
C302 C288 1.377 . S
C302 C301 1.373 . S
C303 C287 1.377 . S
C303 C301 1.389 . S
C303 C304 1.524 . S
C304 C303 1.524 . S
C304 C305 1.397 . S
C304 C309 1.363 . S
C305 H276 0.950 . S
C305 C304 1.397 . S
C305 C306 1.334 . S
C306 H277 0.950 . S
C306 C305 1.334 . S
C306 C307 1.287 . S
C307 C306 1.287 . S
C307 C308 1.524 . S
C307 H310 0.999 . S
C308 H278 0.950 . S
C308 C307 1.524 . S
C308 C309 1.415 . S
C309 H279 0.950 . S
C309 C304 1.363 . S
C309 C308 1.415 . S
H310 C307 0.999 . S
H311 C292 0.913 . S
H312 C330 0.951 1_655 S
H313 C332 0.964 . S
H314 C334 0.950 . S
H315 C335 0.950 . S
H316 C337 0.950 . S
H317 C340 0.950 . S
H318 C341 0.950 . S
H319 C343 0.950 . S
H320 C344 0.950 . S
H321 C345 0.951 1_455 S
H322 C347 0.964 . S
H323 C349 0.950 . S
H324 C350 0.950 . S
H325 C352 0.950 . S
H326 C355 0.950 . S
H327 C356 0.950 . S
H328 C358 0.950 . S
H329 C359 0.950 . S
C330 H312 0.951 1_455 S
C330 C331 1.366 . S
C330 C332 1.383 1_455 S
C331 C330 1.366 . S
C331 C335 1.385 . S
C332 H313 0.964 . S
C332 C330 1.383 1_655 S
C332 C333 1.358 1_655 S
C333 C332 1.358 1_455 S
C333 C334 1.414 . S
C333 C336 1.499 . S
C334 H314 0.950 . S
C334 C333 1.414 . S
C334 C335 1.374 . S
C335 H315 0.950 . S
C335 C331 1.385 . S
C335 C334 1.374 . S
C336 C333 1.499 . S
C336 C337 1.373 . S
C336 C338 1.389 1_455 S
C337 H316 0.950 . S
C337 C336 1.373 . S
C337 C353 1.377 . S
C338 C336 1.389 1_655 S
C338 C339 1.524 . S
C338 C352 1.377 . S
C339 C338 1.524 . S
C339 C340 1.397 . S
C339 C344 1.363 . S
C340 H317 0.950 . S
C340 C339 1.397 . S
C340 C341 1.334 . S
C341 H318 0.950 . S
C341 C340 1.334 . S
C341 C342 1.287 . S
C342 C341 1.287 . S
C342 C343 1.524 . S
C342 H361 0.913 . S
C343 H319 0.950 . S
C343 C342 1.524 . S
C343 C344 1.415 . S
C344 H320 0.950 . S
C344 C339 1.363 . S
C344 C343 1.415 . S
C345 H321 0.951 1_655 S
C345 C346 1.366 . S
C345 C347 1.383 1_655 S
C346 C345 1.366 . S
C346 C350 1.385 . S
C347 H322 0.964 . S
C347 C345 1.383 1_455 S
C347 C348 1.358 1_455 S
C348 C347 1.358 1_655 S
C348 C349 1.414 . S
C348 C351 1.499 . S
C349 H323 0.950 . S
C349 C348 1.414 . S
C349 C350 1.374 . S
C350 H324 0.950 . S
C350 C346 1.385 . S
C350 C349 1.374 . S
C351 C348 1.499 . S
C351 C352 1.373 . S
C351 C353 1.389 1_655 S
C352 H325 0.950 . S
C352 C338 1.377 . S
C352 C351 1.373 . S
C353 C337 1.377 . S
C353 C351 1.389 1_455 S
C353 C354 1.524 . S
C354 C353 1.524 . S
C354 C355 1.397 . S
C354 C359 1.363 . S
C355 H326 0.950 . S
C355 C354 1.397 . S
C355 C356 1.334 . S
C356 H327 0.950 . S
C356 C355 1.334 . S
C356 C357 1.287 . S
C357 C356 1.287 . S
C357 C358 1.524 . S
C357 H360 0.999 . S
C358 H328 0.950 . S
C358 C357 1.524 . S
C358 C359 1.415 . S
C359 H329 0.950 . S
C359 C354 1.363 . S
C359 C358 1.415 . S
H360 C357 0.999 . S
H361 C342 0.913 . S
H362 C380 0.951 . S
H363 C382 0.951 . S
H364 C384 0.950 . S
H365 C385 0.950 . S
H366 C387 0.950 . S
H367 C390 0.950 . S
H368 C391 0.950 . S
H369 C393 0.950 . S
H370 C394 0.950 . S
H371 C395 0.951 . S
H372 C397 0.951 . S
H373 C399 0.950 . S
H374 C400 0.950 . S
H375 C402 0.950 . S
H376 C405 0.950 . S
H377 C406 0.950 . S
H378 C408 0.950 . S
H379 C409 0.950 . S
C380 H362 0.951 . S
C380 C381 1.366 . S
C380 C382 1.388 . S
C381 C380 1.366 . S
C381 C385 1.385 . S
C382 H363 0.951 . S
C382 C380 1.388 . S
C382 C383 1.366 . S
C383 C382 1.366 . S
C383 C384 1.414 . S
C383 C386 1.499 . S
C384 H364 0.950 . S
C384 C383 1.414 . S
C384 C385 1.374 . S
C385 H365 0.950 . S
C385 C381 1.385 . S
C385 C384 1.374 . S
C386 C383 1.499 . S
C386 C387 1.373 . S
C386 C388 1.389 1_455 S
C387 H366 0.950 . S
C387 C386 1.373 . S
C387 C403 1.377 . S
C388 C386 1.389 1_655 S
C388 C389 1.524 . S
C388 C402 1.377 . S
C389 C388 1.524 . S
C389 C390 1.397 . S
C389 C394 1.363 . S
C390 H367 0.950 . S
C390 C389 1.397 . S
C390 C391 1.334 . S
C391 H368 0.950 . S
C391 C390 1.334 . S
C391 C392 1.287 . S
C392 C391 1.287 . S
C392 C393 1.524 . S
C392 H411 0.913 . S
C393 H369 0.950 . S
C393 C392 1.524 . S
C393 C394 1.415 . S
C394 H370 0.950 . S
C394 C389 1.363 . S
C394 C393 1.415 . S
C395 H371 0.951 . S
C395 C396 1.366 . S
C395 C397 1.388 . S
C396 C395 1.366 . S
C396 C400 1.385 . S
C397 H372 0.951 . S
C397 C395 1.388 . S
C397 C398 1.366 . S
C398 C397 1.366 . S
C398 C399 1.414 . S
C398 C401 1.499 . S
C399 H373 0.950 . S
C399 C398 1.414 . S
C399 C400 1.374 . S
C400 H374 0.950 . S
C400 C396 1.385 . S
C400 C399 1.374 . S
C401 C398 1.499 . S
C401 C402 1.373 . S
C401 C403 1.389 1_655 S
C402 H375 0.950 . S
C402 C388 1.377 . S
C402 C401 1.373 . S
C403 C387 1.377 . S
C403 C401 1.389 1_455 S
C403 C404 1.524 . S
C404 C403 1.524 . S
C404 C405 1.397 . S
C404 C409 1.363 . S
C405 H376 0.950 . S
C405 C404 1.397 . S
C405 C406 1.334 . S
C406 H377 0.950 . S
C406 C405 1.334 . S
C406 C407 1.287 . S
C407 C406 1.287 . S
C407 C408 1.524 . S
C407 H410 0.999 . S
C408 H378 0.950 . S
C408 C407 1.524 . S
C408 C409 1.415 . S
C409 H379 0.950 . S
C409 C404 1.363 . S
C409 C408 1.415 . S
H410 C407 0.999 . S
H411 C392 0.913 . S
H412 C430 0.951 . S
H413 C432 0.951 . S
H414 C434 0.950 . S
H415 C435 0.950 . S
H416 C437 0.950 . S
H417 C440 0.950 . S
H418 C441 0.950 . S
H419 C443 0.950 . S
H420 C444 0.950 . S
H421 C445 0.951 . S
H422 C447 0.951 . S
H423 C449 0.950 . S
H424 C450 0.950 . S
H425 C452 0.950 . S
H426 C455 0.950 . S
H427 C456 0.950 . S
H428 C458 0.950 . S
H429 C459 0.950 . S
C430 H412 0.951 . S
C430 C431 1.366 . S
C430 C432 1.388 . S
C431 C430 1.366 . S
C431 C435 1.385 1_455 S
C432 H413 0.951 . S
C432 C430 1.388 . S
C432 C433 1.366 . S
C433 C432 1.366 . S
C433 C434 1.414 1_455 S
C433 C436 1.499 . S
C434 H414 0.950 . S
C434 C433 1.414 1_655 S
C434 C435 1.374 . S
C435 H415 0.950 . S
C435 C431 1.385 1_655 S
C435 C434 1.374 . S
C436 C433 1.499 . S
C436 C437 1.373 1_455 S
C436 C438 1.389 . S
C437 H416 0.950 . S
C437 C436 1.373 1_655 S
C437 C453 1.377 . S
C438 C436 1.389 . S
C438 C439 1.524 . S
C438 C452 1.377 . S
C439 C438 1.524 . S
C439 C440 1.397 . S
C439 C444 1.363 . S
C440 H417 0.950 . S
C440 C439 1.397 . S
C440 C441 1.334 . S
C441 H418 0.950 . S
C441 C440 1.334 . S
C441 C442 1.287 . S
C442 C441 1.287 . S
C442 C443 1.524 . S
C442 H461 0.913 . S
C443 H419 0.950 . S
C443 C442 1.524 . S
C443 C444 1.415 . S
C444 H420 0.950 . S
C444 C439 1.363 . S
C444 C443 1.415 . S
C445 H421 0.951 . S
C445 C446 1.366 . S
C445 C447 1.388 . S
C446 C445 1.366 . S
C446 C450 1.385 1_655 S
C447 H422 0.951 . S
C447 C445 1.388 . S
C447 C448 1.366 . S
C448 C447 1.366 . S
C448 C449 1.414 1_655 S
C448 C451 1.499 . S
C449 H423 0.950 . S
C449 C448 1.414 1_455 S
C449 C450 1.374 . S
C450 H424 0.950 . S
C450 C446 1.385 1_455 S
C450 C449 1.374 . S
C451 C448 1.499 . S
C451 C452 1.373 1_655 S
C451 C453 1.389 . S
C452 H425 0.950 . S
C452 C438 1.377 . S
C452 C451 1.373 1_455 S
C453 C437 1.377 . S
C453 C451 1.389 . S
C453 C454 1.524 . S
C454 C453 1.524 . S
C454 C455 1.397 . S
C454 C459 1.363 . S
C455 H426 0.950 . S
C455 C454 1.397 . S
C455 C456 1.334 . S
C456 H427 0.950 . S
C456 C455 1.334 . S
C456 C457 1.287 . S
C457 C456 1.287 . S
C457 C458 1.524 . S
C457 H460 0.999 . S
C458 H428 0.950 . S
C458 C457 1.524 . S
C458 C459 1.415 . S
C459 H429 0.950 . S
C459 C454 1.363 . S
C459 C458 1.415 . S
H460 C457 0.999 . S
H461 C442 0.913 . S
H462 C480 0.951 . S
H463 C482 0.951 . S
H464 C484 0.950 . S
H465 C485 0.950 . S
H466 C487 0.950 . S
H467 C490 0.950 . S
H468 C491 0.950 . S
H469 C493 0.950 . S
H470 C494 0.950 . S
H471 C495 0.951 . S
H472 C497 0.951 . S
H473 C499 0.950 . S
H474 C500 0.950 . S
H475 C502 0.950 . S
H476 C505 0.950 . S
H477 C506 0.950 . S
H478 C508 0.950 . S
H479 C509 0.950 . S
C480 H462 0.951 . S
C480 C481 1.366 1_655 S
C480 C482 1.388 . S
C481 C480 1.366 1_455 S
C481 C485 1.385 . S
C482 H463 0.951 . S
C482 C480 1.388 . S
C482 C483 1.366 1_655 S
C483 C482 1.366 1_455 S
C483 C484 1.414 . S
C483 C486 1.499 . S
C484 H464 0.950 . S
C484 C483 1.414 . S
C484 C485 1.374 . S
C485 H465 0.950 . S
C485 C481 1.385 . S
C485 C484 1.374 . S
C486 C483 1.499 . S
C486 C487 1.373 . S
C486 C488 1.389 1_455 S
C487 H466 0.950 . S
C487 C486 1.373 . S
C487 C503 1.377 . S
C488 C486 1.389 1_655 S
C488 C489 1.524 . S
C488 C502 1.377 . S
C489 C488 1.524 . S
C489 C490 1.397 . S
C489 C494 1.363 . S
C490 H467 0.950 . S
C490 C489 1.397 . S
C490 C491 1.334 . S
C491 H468 0.950 . S
C491 C490 1.334 . S
C491 C492 1.287 . S
C492 C491 1.287 . S
C492 C493 1.524 . S
C492 H511 0.913 . S
C493 H469 0.950 . S
C493 C492 1.524 . S
C493 C494 1.415 . S
C494 H470 0.950 . S
C494 C489 1.363 . S
C494 C493 1.415 . S
C495 H471 0.951 . S
C495 C496 1.366 1_455 S
C495 C497 1.388 . S
C496 C495 1.366 1_655 S
C496 C500 1.385 . S
C497 H472 0.951 . S
C497 C495 1.388 . S
C497 C498 1.366 1_455 S
C498 C497 1.366 1_655 S
C498 C499 1.414 . S
C498 C501 1.499 . S
C499 H473 0.950 . S
C499 C498 1.414 . S
C499 C500 1.374 . S
C500 H474 0.950 . S
C500 C496 1.385 . S
C500 C499 1.374 . S
C501 C498 1.499 . S
C501 C502 1.373 . S
C501 C503 1.389 1_655 S
C502 H475 0.950 . S
C502 C488 1.377 . S
C502 C501 1.373 . S
C503 C487 1.377 . S
C503 C501 1.389 1_455 S
C503 C504 1.524 . S
C504 C503 1.524 . S
C504 C505 1.397 . S
C504 C509 1.363 . S
C505 H476 0.950 . S
C505 C504 1.397 . S
C505 C506 1.334 . S
C506 H477 0.950 . S
C506 C505 1.334 . S
C506 C507 1.287 . S
C507 C506 1.287 . S
C507 C508 1.524 . S
C507 H510 0.999 . S
C508 H478 0.950 . S
C508 C507 1.524 . S
C508 C509 1.415 . S
C509 H479 0.950 . S
C509 C504 1.363 . S
C509 C508 1.415 . S
H510 C507 0.999 . S
H511 C492 0.913 . S
H512 C530 0.951 . S
H513 C532 0.951 . S
H514 C534 0.950 . S
H515 C535 0.950 . S
H516 C537 0.950 . S
H517 C540 0.950 . S
H518 C541 0.950 . S
H519 C543 0.950 . S
H520 C544 0.950 . S
H521 C545 0.951 . S
H522 C547 0.951 . S
H523 C549 0.950 . S
H524 C550 0.950 . S
H525 C552 0.950 . S
H526 C555 0.950 . S
H527 C556 0.950 . S
H528 C558 0.950 . S
H529 C559 0.950 . S
C530 H512 0.951 . S
C530 C531 1.366 . S
C530 C532 1.388 . S
C531 C530 1.366 . S
C531 C535 1.385 . S
C532 H513 0.951 . S
C532 C530 1.388 . S
C532 C533 1.366 . S
C533 C532 1.366 . S
C533 C534 1.414 . S
C533 C536 1.499 . S
C534 H514 0.950 . S
C534 C533 1.414 . S
C534 C535 1.374 . S
C535 H515 0.950 . S
C535 C531 1.385 . S
C535 C534 1.374 . S
C536 C533 1.499 . S
C536 C537 1.373 . S
C536 C538 1.389 . S
C537 H516 0.950 . S
C537 C536 1.373 . S
C537 C553 1.377 . S
C538 C536 1.389 . S
C538 C539 1.524 . S
C538 C552 1.377 . S
C539 C538 1.524 . S
C539 C540 1.397 . S
C539 C544 1.363 . S
C540 H517 0.950 . S
C540 C539 1.397 . S
C540 C541 1.334 . S
C541 H518 0.950 . S
C541 C540 1.334 . S
C541 C542 1.287 . S
C542 C541 1.287 . S
C542 C543 1.524 . S
C542 H561 0.913 . S
C543 H519 0.950 . S
C543 C542 1.524 . S
C543 C544 1.415 . S
C544 H520 0.950 . S
C544 C539 1.363 . S
C544 C543 1.415 . S
C545 H521 0.951 . S
C545 C546 1.366 . S
C545 C547 1.388 . S
C546 C545 1.366 . S
C546 C550 1.385 . S
C547 H522 0.951 . S
C547 C545 1.388 . S
C547 C548 1.366 . S
C548 C547 1.366 . S
C548 C549 1.414 . S
C548 C551 1.499 . S
C549 H523 0.950 . S
C549 C548 1.414 . S
C549 C550 1.374 . S
C550 H524 0.950 . S
C550 C546 1.385 . S
C550 C549 1.374 . S
C551 C548 1.499 . S
C551 C552 1.373 . S
C551 C553 1.389 . S
C552 H525 0.950 . S
C552 C538 1.377 . S
C552 C551 1.373 . S
C553 C537 1.377 . S
C553 C551 1.389 . S
C553 C554 1.524 . S
C554 C553 1.524 . S
C554 C555 1.397 . S
C554 C559 1.363 . S
C555 H526 0.950 . S
C555 C554 1.397 . S
C555 C556 1.334 . S
C556 H527 0.950 . S
C556 C555 1.334 . S
C556 C557 1.287 . S
C557 C556 1.287 . S
C557 C558 1.524 . S
C557 H560 0.999 . S
C558 H528 0.950 . S
C558 C557 1.524 . S
C558 C559 1.415 . S
C559 H529 0.950 . S
C559 C554 1.363 . S
C559 C558 1.415 . S
H560 C557 0.999 . S
H561 C542 0.913 . S
H562 C580 0.951 . S
H563 C582 0.951 . S
H564 C584 0.950 . S
H565 C585 0.950 . S
H566 C587 0.950 . S
H567 C590 0.950 . S
H568 C591 0.950 . S
H569 C593 0.950 . S
H570 C594 0.950 . S
H571 C595 0.951 . S
H572 C597 0.951 . S
H573 C599 0.950 . S
H574 C600 0.950 . S
H575 C602 0.950 . S
H576 C605 0.950 . S
H577 C606 0.950 . S
H578 C608 0.950 . S
H579 C609 0.950 . S
C580 H562 0.951 . S
C580 C581 1.366 . S
C580 C582 1.388 . S
C581 C580 1.366 . S
C581 C585 1.385 . S
C582 H563 0.951 . S
C582 C580 1.388 . S
C582 C583 1.366 . S
C583 C582 1.366 . S
C583 C584 1.414 . S
C583 C586 1.499 . S
C584 H564 0.950 . S
C584 C583 1.414 . S
C584 C585 1.374 . S
C585 H565 0.950 . S
C585 C581 1.385 . S
C585 C584 1.374 . S
C586 C583 1.499 . S
C586 C587 1.373 . S
C586 C588 1.389 . S
C587 H566 0.950 . S
C587 C586 1.373 . S
C587 C603 1.377 . S
C588 C586 1.389 . S
C588 C589 1.524 . S
C588 C602 1.377 . S
C589 C588 1.524 . S
C589 C590 1.397 . S
C589 C594 1.363 . S
C590 H567 0.950 . S
C590 C589 1.397 . S
C590 C591 1.334 . S
C591 H568 0.950 . S
C591 C590 1.334 . S
C591 C592 1.287 . S
C592 C591 1.287 . S
C592 C593 1.524 . S
C592 H611 0.913 . S
C593 H569 0.950 . S
C593 C592 1.524 . S
C593 C594 1.415 . S
C594 H570 0.950 . S
C594 C589 1.363 . S
C594 C593 1.415 . S
C595 H571 0.951 . S
C595 C596 1.366 . S
C595 C597 1.388 . S
C596 C595 1.366 . S
C596 C600 1.385 . S
C597 H572 0.951 . S
C597 C595 1.388 . S
C597 C598 1.366 . S
C598 C597 1.366 . S
C598 C599 1.414 . S
C598 C601 1.499 . S
C599 H573 0.950 . S
C599 C598 1.414 . S
C599 C600 1.374 . S
C600 H574 0.950 . S
C600 C596 1.385 . S
C600 C599 1.374 . S
C601 C598 1.499 . S
C601 C602 1.373 . S
C601 C603 1.389 . S
C602 H575 0.950 . S
C602 C588 1.377 . S
C602 C601 1.373 . S
C603 C587 1.377 . S
C603 C601 1.389 . S
C603 C604 1.524 . S
C604 C603 1.524 . S
C604 C605 1.397 . S
C604 C609 1.363 . S
C605 H576 0.950 . S
C605 C604 1.397 . S
C605 C606 1.334 . S
C606 H577 0.950 . S
C606 C605 1.334 . S
C606 C607 1.287 . S
C607 C606 1.287 . S
C607 C608 1.524 . S
C607 H610 0.999 . S
C608 H578 0.950 . S
C608 C607 1.524 . S
C608 C609 1.415 . S
C609 H579 0.950 . S
C609 C604 1.363 . S
C609 C608 1.415 . S
H610 C607 0.999 . S
H611 C592 0.913 . S
H612 C630 0.951 . S
H613 C632 0.951 . S
H614 C634 0.950 . S
H615 C635 0.950 . S
H616 C637 0.950 . S
H617 C640 0.950 . S
H618 C641 0.950 . S
H619 C643 0.950 . S
H620 C644 0.950 . S
H621 C645 0.951 . S
H622 C647 0.951 . S
H623 C649 0.950 . S
H624 C650 0.950 . S
H625 C652 0.950 . S
H626 C655 0.950 . S
H627 C656 0.950 . S
H628 C658 0.950 . S
H629 C659 0.950 . S
C630 H612 0.951 . S
C630 C631 1.366 . S
C630 C632 1.388 . S
C631 C630 1.366 . S
C631 C635 1.385 . S
C632 H613 0.951 . S
C632 C630 1.388 . S
C632 C633 1.366 . S
C633 C632 1.366 . S
C633 C634 1.414 . S
C633 C636 1.499 . S
C634 H614 0.950 . S
C634 C633 1.414 . S
C634 C635 1.374 . S
C635 H615 0.950 . S
C635 C631 1.385 . S
C635 C634 1.374 . S
C636 C633 1.499 . S
C636 C637 1.373 . S
C636 C638 1.389 . S
C637 H616 0.950 . S
C637 C636 1.373 . S
C637 C653 1.377 . S
C638 C636 1.389 . S
C638 C639 1.524 . S
C638 C652 1.377 . S
C639 C638 1.524 . S
C639 C640 1.397 . S
C639 C644 1.363 . S
C640 H617 0.950 . S
C640 C639 1.397 . S
C640 C641 1.334 . S
C641 H618 0.950 . S
C641 C640 1.334 . S
C641 C642 1.287 . S
C642 C641 1.287 . S
C642 C643 1.524 . S
C642 H661 0.913 . S
C643 H619 0.950 . S
C643 C642 1.524 . S
C643 C644 1.415 . S
C644 H620 0.950 . S
C644 C639 1.363 . S
C644 C643 1.415 . S
C645 H621 0.951 . S
C645 C646 1.366 . S
C645 C647 1.388 . S
C646 C645 1.366 . S
C646 C650 1.385 . S
C647 H622 0.951 . S
C647 C645 1.388 . S
C647 C648 1.366 . S
C648 C647 1.366 . S
C648 C649 1.414 . S
C648 C651 1.499 . S
C649 H623 0.950 . S
C649 C648 1.414 . S
C649 C650 1.374 . S
C650 H624 0.950 . S
C650 C646 1.385 . S
C650 C649 1.374 . S
C651 C648 1.499 . S
C651 C652 1.373 . S
C651 C653 1.389 . S
C652 H625 0.950 . S
C652 C638 1.377 . S
C652 C651 1.373 . S
C653 C637 1.377 . S
C653 C651 1.389 . S
C653 C654 1.524 . S
C654 C653 1.524 . S
C654 C655 1.397 . S
C654 C659 1.363 . S
C655 H626 0.950 . S
C655 C654 1.397 . S
C655 C656 1.334 . S
C656 H627 0.950 . S
C656 C655 1.334 . S
C656 C657 1.287 . S
C657 C656 1.287 . S
C657 C658 1.524 . S
C657 H660 0.999 . S
C658 H628 0.950 . S
C658 C657 1.524 . S
C658 C659 1.415 . S
C659 H629 0.950 . S
C659 C654 1.363 . S
C659 C658 1.415 . S
H660 C657 0.999 . S
H661 C642 0.913 . S
H662 C680 0.951 . S
H663 C682 0.951 . S
H664 C684 0.950 . S
H665 C685 0.950 . S
H666 C687 0.950 . S
H667 C690 0.950 . S
H668 C691 0.950 . S
H669 C693 0.950 . S
H670 C694 0.950 . S
H671 C695 0.951 . S
H672 C697 0.951 . S
H673 C699 0.950 . S
H674 C700 0.950 . S
H675 C702 0.950 . S
H676 C705 0.950 . S
H677 C706 0.950 . S
H678 C708 0.950 . S
H679 C709 0.950 . S
C680 H662 0.951 . S
C680 C681 1.366 . S
C680 C682 1.388 . S
C681 C680 1.366 . S
C681 C685 1.385 . S
C682 H663 0.951 . S
C682 C680 1.388 . S
C682 C683 1.366 . S
C683 C682 1.366 . S
C683 C684 1.414 . S
C683 C686 1.499 . S
C684 H664 0.950 . S
C684 C683 1.414 . S
C684 C685 1.374 . S
C685 H665 0.950 . S
C685 C681 1.385 . S
C685 C684 1.374 . S
C686 C683 1.499 . S
C686 C687 1.373 . S
C686 C688 1.389 . S
C687 H666 0.950 . S
C687 C686 1.373 . S
C687 C703 1.377 . S
C688 C686 1.389 . S
C688 C689 1.524 . S
C688 C702 1.377 . S
C689 C688 1.524 . S
C689 C690 1.397 . S
C689 C694 1.363 . S
C690 H667 0.950 . S
C690 C689 1.397 . S
C690 C691 1.334 . S
C691 H668 0.950 . S
C691 C690 1.334 . S
C691 C692 1.287 . S
C692 C691 1.287 . S
C692 C693 1.524 . S
C692 H711 0.913 . S
C693 H669 0.950 . S
C693 C692 1.524 . S
C693 C694 1.415 . S
C694 H670 0.950 . S
C694 C689 1.363 . S
C694 C693 1.415 . S
C695 H671 0.951 . S
C695 C696 1.366 . S
C695 C697 1.388 . S
C696 C695 1.366 . S
C696 C700 1.385 . S
C697 H672 0.951 . S
C697 C695 1.388 . S
C697 C698 1.366 . S
C698 C697 1.366 . S
C698 C699 1.414 . S
C698 C701 1.499 . S
C699 H673 0.950 . S
C699 C698 1.414 . S
C699 C700 1.374 . S
C700 H674 0.950 . S
C700 C696 1.385 . S
C700 C699 1.374 . S
C701 C698 1.499 . S
C701 C702 1.373 . S
C701 C703 1.389 . S
C702 H675 0.950 . S
C702 C688 1.377 . S
C702 C701 1.373 . S
C703 C687 1.377 . S
C703 C701 1.389 . S
C703 C704 1.524 . S
C704 C703 1.524 . S
C704 C705 1.397 . S
C704 C709 1.363 . S
C705 H676 0.950 . S
C705 C704 1.397 . S
C705 C706 1.334 . S
C706 H677 0.950 . S
C706 C705 1.334 . S
C706 C707 1.287 . S
C707 C706 1.287 . S
C707 C708 1.524 . S
C707 H710 0.999 . S
C708 H678 0.950 . S
C708 C707 1.524 . S
C708 C709 1.415 . S
C709 H679 0.950 . S
C709 C704 1.363 . S
C709 C708 1.415 . S
H710 C707 0.999 . S
H711 C692 0.913 . S
H712 C730 0.951 . S
H713 C732 0.951 . S
H714 C734 0.950 . S
H715 C735 0.950 . S
H716 C737 0.950 . S
H717 C740 0.950 . S
H718 C741 0.950 . S
H719 C743 0.950 1_556 S
H720 C744 0.950 . S
H721 C745 0.951 . S
H722 C747 0.951 . S
H723 C749 0.950 . S
H724 C750 0.950 . S
H725 C752 0.950 . S
H726 C755 0.950 . S
H727 C756 0.950 . S
H728 C758 0.935 1_554 S
H729 C759 0.950 . S
C730 H712 0.951 . S
C730 C731 1.366 1_556 S
C730 C732 1.388 . S
C731 C730 1.366 1_554 S
C731 C735 1.385 . S
C732 H713 0.951 . S
C732 C730 1.388 . S
C732 C733 1.366 1_556 S
C733 C732 1.366 1_554 S
C733 C734 1.414 . S
C733 C736 1.499 . S
C734 H714 0.950 . S
C734 C733 1.414 . S
C734 C735 1.374 . S
C735 H715 0.950 . S
C735 C731 1.385 . S
C735 C734 1.374 . S
C736 C733 1.499 . S
C736 C737 1.373 1_554 S
C736 C738 1.389 . S
C737 H716 0.950 . S
C737 C736 1.373 1_556 S
C737 C753 1.377 . S
C738 C736 1.389 . S
C738 C739 1.524 . S
C738 C752 1.377 . S
C739 C738 1.524 . S
C739 C740 1.397 . S
C739 C744 1.363 1_554 S
C740 H717 0.950 . S
C740 C739 1.397 . S
C740 C741 1.334 . S
C741 H718 0.950 . S
C741 C740 1.334 . S
C741 C742 1.287 . S
C742 C741 1.287 . S
C742 C743 1.524 . S
C742 H761 0.913 . S
C743 H719 0.950 1_554 S
C743 C742 1.524 . S
C743 C744 1.415 1_554 S
C744 H720 0.950 . S
C744 C739 1.363 1_556 S
C744 C743 1.415 1_556 S
C745 H721 0.951 . S
C745 C746 1.366 . S
C745 C747 1.388 . S
C746 C745 1.366 . S
C746 C750 1.385 1_554 S
C747 H722 0.951 . S
C747 C745 1.388 . S
C747 C748 1.366 . S
C748 C747 1.366 . S
C748 C749 1.414 1_554 S
C748 C751 1.499 . S
C749 H723 0.950 . S
C749 C748 1.414 1_556 S
C749 C750 1.374 . S
C750 H724 0.950 . S
C750 C746 1.385 1_556 S
C750 C749 1.374 . S
C751 C748 1.499 . S
C751 C752 1.373 . S
C751 C753 1.389 1_554 S
C752 H725 0.950 . S
C752 C738 1.377 . S
C752 C751 1.373 . S
C753 C737 1.377 . S
C753 C751 1.389 1_556 S
C753 C754 1.524 . S
C754 C753 1.524 . S
C754 C755 1.397 . S
C754 C759 1.363 1_556 S
C755 H726 0.950 . S
C755 C754 1.397 . S
C755 C756 1.334 . S
C756 H727 0.950 . S
C756 C755 1.334 . S
C756 C757 1.287 . S
C757 C756 1.287 . S
C757 C758 1.547 . S
C757 H760 0.999 . S
C758 H728 0.935 1_556 S
C758 C757 1.547 . S
C758 C759 1.408 1_556 S
C759 H729 0.950 . S
C759 C754 1.363 1_554 S
C759 C758 1.408 1_554 S
H760 C757 0.999 . S
H761 C742 0.913 . S
H762 C780 0.951 . S
H763 C782 0.951 . S
H764 C784 0.950 . S
H765 C785 0.950 . S
H766 C787 0.950 . S
H767 C790 0.950 . S
H768 C791 0.950 . S
H769 C793 0.950 . S
H770 C794 0.950 . S
H771 C795 0.951 . S
H772 C797 0.951 . S
H773 C799 0.950 . S
H774 C800 0.950 . S
H775 C802 0.950 . S
H776 C805 0.950 . S
H777 C806 0.950 . S
H778 C808 0.950 . S
H779 C809 0.950 . S
C780 H762 0.951 . S
C780 C781 1.366 1_556 S
C780 C782 1.388 . S
C781 C780 1.366 1_554 S
C781 C785 1.385 . S
C782 H763 0.951 . S
C782 C780 1.388 . S
C782 C783 1.366 1_556 S
C783 C782 1.366 1_554 S
C783 C784 1.414 . S
C783 C786 1.499 . S
C784 H764 0.950 . S
C784 C783 1.414 . S
C784 C785 1.374 . S
C785 H765 0.950 . S
C785 C781 1.385 . S
C785 C784 1.374 . S
C786 C783 1.499 . S
C786 C787 1.373 1_554 S
C786 C788 1.389 . S
C787 H766 0.950 . S
C787 C786 1.373 1_556 S
C787 C803 1.377 . S
C788 C786 1.389 . S
C788 C789 1.524 . S
C788 C802 1.377 . S
C789 C788 1.524 . S
C789 C790 1.397 . S
C789 C794 1.363 . S
C790 H767 0.950 . S
C790 C789 1.397 . S
C790 C791 1.334 . S
C791 H768 0.950 . S
C791 C790 1.334 . S
C791 C792 1.287 . S
C792 C791 1.287 . S
C792 C793 1.524 . S
C792 H811 0.913 . S
C793 H769 0.950 . S
C793 C792 1.524 . S
C793 C794 1.415 . S
C794 H770 0.950 . S
C794 C789 1.363 . S
C794 C793 1.415 . S
C795 H771 0.951 . S
C795 C796 1.366 . S
C795 C797 1.388 . S
C796 C795 1.366 . S
C796 C800 1.385 1_554 S
C797 H772 0.951 . S
C797 C795 1.388 . S
C797 C798 1.368 . S
C798 C797 1.368 . S
C798 C799 1.412 1_554 S
C798 C801 1.499 . S
C799 H773 0.950 . S
C799 C798 1.412 1_556 S
C799 C800 1.374 . S
C800 H774 0.950 . S
C800 C796 1.385 1_556 S
C800 C799 1.374 . S
C801 C798 1.499 . S
C801 C802 1.376 . S
C801 C803 1.387 1_554 S
C802 H775 0.950 . S
C802 C788 1.377 . S
C802 C801 1.376 . S
C803 C787 1.377 . S
C803 C801 1.387 1_556 S
C803 C804 1.524 . S
C804 C803 1.524 . S
C804 C805 1.397 . S
C804 C809 1.363 . S
C805 H776 0.950 . S
C805 C804 1.397 . S
C805 C806 1.334 . S
C806 H777 0.950 . S
C806 C805 1.334 . S
C806 C807 1.287 . S
C807 C806 1.287 . S
C807 C808 1.524 . S
C807 H810 0.999 . S
C808 H778 0.950 . S
C808 C807 1.524 . S
C808 C809 1.415 . S
C809 H779 0.950 . S
C809 C804 1.363 . S
C809 C808 1.415 . S
H810 C807 0.999 . S
H811 C792 0.913 . S
H812 C830 0.951 . S
H813 C832 0.951 . S
H814 C834 0.950 . S
H815 C835 0.950 . S
H816 C837 0.950 . S
H817 C840 0.950 . S
H818 C841 0.950 . S
H819 C843 0.950 . S
H820 C844 0.950 . S
H821 C845 0.951 . S
H822 C847 0.951 . S
H823 C849 0.950 . S
H824 C850 0.950 . S
H825 C852 0.950 . S
H826 C855 0.950 . S
H827 C856 0.950 . S
H828 C858 0.950 . S
H829 C859 0.950 . S
C830 H812 0.951 . S
C830 C831 1.366 . S
C830 C832 1.388 . S
C831 C830 1.366 . S
C831 C835 1.385 . S
C832 H813 0.951 . S
C832 C830 1.388 . S
C832 C833 1.366 . S
C833 C832 1.366 . S
C833 C834 1.414 . S
C833 C836 1.499 . S
C834 H814 0.950 . S
C834 C833 1.414 . S
C834 C835 1.374 . S
C835 H815 0.950 . S
C835 C831 1.385 . S
C835 C834 1.374 . S
C836 C833 1.499 . S
C836 C837 1.373 . S
C836 C838 1.389 . S
C837 H816 0.950 . S
C837 C836 1.373 . S
C837 C853 1.377 . S
C838 C836 1.389 . S
C838 C839 1.524 . S
C838 C852 1.377 . S
C839 C838 1.524 . S
C839 C840 1.397 . S
C839 C844 1.363 . S
C840 H817 0.950 . S
C840 C839 1.397 . S
C840 C841 1.334 . S
C841 H818 0.950 . S
C841 C840 1.334 . S
C841 C842 1.287 . S
C842 C841 1.287 . S
C842 C843 1.524 . S
C842 H861 0.913 . S
C843 H819 0.950 . S
C843 C842 1.524 . S
C843 C844 1.415 . S
C844 H820 0.950 . S
C844 C839 1.363 . S
C844 C843 1.415 . S
C845 H821 0.951 . S
C845 C846 1.366 . S
C845 C847 1.388 . S
C846 C845 1.366 . S
C846 C850 1.385 . S
C847 H822 0.951 . S
C847 C845 1.388 . S
C847 C848 1.366 . S
C848 C847 1.366 . S
C848 C849 1.414 . S
C848 C851 1.499 . S
C849 H823 0.950 . S
C849 C848 1.414 . S
C849 C850 1.374 . S
C850 H824 0.950 . S
C850 C846 1.385 . S
C850 C849 1.374 . S
C851 C848 1.499 . S
C851 C852 1.373 . S
C851 C853 1.389 . S
C852 H825 0.950 . S
C852 C838 1.377 . S
C852 C851 1.373 . S
C853 C837 1.377 . S
C853 C851 1.389 . S
C853 C854 1.524 . S
C854 C853 1.524 . S
C854 C855 1.397 . S
C854 C859 1.363 . S
C855 H826 0.950 . S
C855 C854 1.397 . S
C855 C856 1.334 . S
C856 H827 0.950 . S
C856 C855 1.334 . S
C856 C857 1.287 . S
C857 C856 1.287 . S
C857 C858 1.524 . S
C857 H860 0.999 . S
C858 H828 0.950 . S
C858 C857 1.524 . S
C858 C859 1.415 . S
C859 H829 0.950 . S
C859 C854 1.363 . S
C859 C858 1.415 . S
H860 C857 0.999 . S
H861 C842 0.913 . S
H862 C880 0.951 . S
H863 C882 0.951 . S
H864 C884 0.950 . S
H865 C885 0.950 . S
H866 C887 0.950 . S
H867 C890 0.950 . S
H868 C891 0.950 . S
H869 C893 0.950 . S
H870 C894 0.950 . S
H871 C895 0.951 . S
H872 C897 0.951 . S
H873 C899 0.950 . S
H874 C900 0.950 . S
H875 C902 0.950 . S
H876 C905 0.950 . S
H877 C906 0.950 . S
H878 C908 0.950 . S
H879 C909 0.950 . S
C880 H862 0.951 . S
C880 C881 1.366 . S
C880 C882 1.388 . S
C881 C880 1.366 . S
C881 C885 1.385 . S
C882 H863 0.951 . S
C882 C880 1.388 . S
C882 C883 1.366 . S
C883 C882 1.366 . S
C883 C884 1.414 . S
C883 C886 1.499 . S
C884 H864 0.950 . S
C884 C883 1.414 . S
C884 C885 1.374 . S
C885 H865 0.950 . S
C885 C881 1.385 . S
C885 C884 1.374 . S
C886 C883 1.499 . S
C886 C887 1.373 . S
C886 C888 1.389 . S
C887 H866 0.950 . S
C887 C886 1.373 . S
C887 C903 1.377 . S
C888 C886 1.389 . S
C888 C889 1.524 . S
C888 C902 1.377 . S
C889 C888 1.524 . S
C889 C890 1.397 . S
C889 C894 1.363 . S
C890 H867 0.950 . S
C890 C889 1.397 . S
C890 C891 1.334 . S
C891 H868 0.950 . S
C891 C890 1.334 . S
C891 C892 1.287 . S
C892 C891 1.287 . S
C892 C893 1.524 . S
C892 H911 0.913 . S
C893 H869 0.950 . S
C893 C892 1.524 . S
C893 C894 1.415 . S
C894 H870 0.950 . S
C894 C889 1.363 . S
C894 C893 1.415 . S
C895 H871 0.951 . S
C895 C896 1.366 . S
C895 C897 1.388 . S
C896 C895 1.366 . S
C896 C900 1.385 . S
C897 H872 0.951 . S
C897 C895 1.388 . S
C897 C898 1.366 . S
C898 C897 1.366 . S
C898 C899 1.414 . S
C898 C901 1.499 . S
C899 H873 0.950 . S
C899 C898 1.414 . S
C899 C900 1.374 . S
C900 H874 0.950 . S
C900 C896 1.385 . S
C900 C899 1.374 . S
C901 C898 1.499 . S
C901 C902 1.373 . S
C901 C903 1.389 . S
C902 H875 0.950 . S
C902 C888 1.377 . S
C902 C901 1.373 . S
C903 C887 1.377 . S
C903 C901 1.389 . S
C903 C904 1.524 . S
C904 C903 1.524 . S
C904 C905 1.397 . S
C904 C909 1.363 . S
C905 H876 0.950 . S
C905 C904 1.397 . S
C905 C906 1.334 . S
C906 H877 0.950 . S
C906 C905 1.334 . S
C906 C907 1.287 . S
C907 C906 1.287 . S
C907 C908 1.524 . S
C907 H910 0.999 . S
C908 H878 0.950 . S
C908 C907 1.524 . S
C908 C909 1.415 . S
C909 H879 0.950 . S
C909 C904 1.363 . S
C909 C908 1.415 . S
H910 C907 0.999 . S
H911 C892 0.913 . S
C131 C23 1.484 1_554 S
C146 C9 1.484 1_554 S
C181 C37 1.485 . S
C196 C51 1.485 . S
C231 C65 1.484 1_554 S
C246 C79 1.484 1_554 S
C281 C93 1.484 . S
C296 C107 1.484 . S
C331 C7 1.157 . S
C346 C49 1.157 . S
C381 C35 1.157 . S
C396 C21 1.157 . S
C431 C31 1.151 . S
C446 C17 1.152 . S
C481 C3 1.151 . S
C496 C45 1.151 . S
C531 C63 1.157 . S
C546 C105 1.156 . S
C581 C91 1.157 . S
C596 C77 1.156 . S
C631 C73 1.151 . S
C646 C87 1.152 . S
C681 C59 1.152 . S
C696 C101 1.151 . S
C731 C78 1.510 . S
C746 C8 1.510 . S
C781 C64 1.510 . S
C796 C22 1.510 . S
C831 C36 1.509 . S
C846 C106 1.509 . S
C881 C92 1.509 . S
C896 C50 1.509 . S
