# Generated by pormake.
# Topology uoc, (4)-cn, num edge types: 1
# Building blocks:
#     Node 0, Type 0, BuildingBlock: ICAMEG_clean_sbu_1, # of connection points: 4
#     Node 1, Type 0, BuildingBlock: ICAMEG_clean_sbu_1, # of connection points: 4
#     Node 2, Type 0, BuildingBlock: ICAMEG_clean_sbu_1, # of connection points: 4
#     Node 3, Type 0, BuildingBlock: ICAMEG_clean_sbu_1, # of connection points: 4
#     Node 4, Type 0, BuildingBlock: ICAMEG_clean_sbu_1, # of connection points: 4
#     Node 5, Type 0, BuildingBlock: ICAMEG_clean_sbu_1, # of connection points: 4
#     Node 6, Type 0, BuildingBlock: ICAMEG_clean_sbu_1, # of connection points: 4
#     Node 7, Type 0, BuildingBlock: ICAMEG_clean_sbu_1, # of connection points: 4
#     Edge 8, Type (0, 0), BuildingBlock: XIVTED_clean_linker_0, # of connection points: 2
#     Edge 9, Type (0, 0), BuildingBlock: XIVTED_clean_linker_0, # of connection points: 2
#     Edge 10, Type (0, 0), BuildingBlock: XIVTED_clean_linker_0, # of connection points: 2
#     Edge 11, Type (0, 0), BuildingBlock: XIVTED_clean_linker_0, # of connection points: 2
#     Edge 12, Type (0, 0), BuildingBlock: XIVTED_clean_linker_0, # of connection points: 2
#     Edge 13, Type (0, 0), BuildingBlock: XIVTED_clean_linker_0, # of connection points: 2
#     Edge 14, Type (0, 0), BuildingBlock: XIVTED_clean_linker_0, # of connection points: 2
#     Edge 15, Type (0, 0), BuildingBlock: XIVTED_clean_linker_0, # of connection points: 2
#     Edge 16, Type (0, 0), BuildingBlock: XIVTED_clean_linker_0, # of connection points: 2
#     Edge 17, Type (0, 0), BuildingBlock: XIVTED_clean_linker_0, # of connection points: 2
#     Edge 18, Type (0, 0), BuildingBlock: XIVTED_clean_linker_0, # of connection points: 2
#     Edge 19, Type (0, 0), BuildingBlock: XIVTED_clean_linker_0, # of connection points: 2
#     Edge 20, Type (0, 0), BuildingBlock: XIVTED_clean_linker_0, # of connection points: 2
#     Edge 21, Type (0, 0), BuildingBlock: XIVTED_clean_linker_0, # of connection points: 2
#     Edge 22, Type (0, 0), BuildingBlock: XIVTED_clean_linker_0, # of connection points: 2
#     Edge 23, Type (0, 0), BuildingBlock: XIVTED_clean_linker_0, # of connection points: 2
# Relax obj value: 0.093
# Max RMSD: 0.100
# Mean RMSD: 0.100
data_MOF--net-uoc--node1-ICAMEG_clean_sbu_1--edge1-XIVTED_clean_linker_0
_symmetry_space_group_name_H-M    P1
_symmetry_Int_Tables_number       1
_symmetry_cell_setting            triclinic
loop_
_symmetry_equiv_pos_as_xyz
'x, y, z'
_cell_length_a     28.583617
_cell_length_b     28.574019
_cell_length_c     59.127068
_cell_angle_alpha  90.012721
_cell_angle_beta   89.956359
_cell_angle_gamma 100.29655
loop_
_atom_site_label
_atom_site_type_symbol
_atom_site_fract_x
_atom_site_fract_y
_atom_site_fract_z
_atom_type_partial_charge
Co0 Co 0.15044 0.23798 0.12731 0.0
Co1 Co 0.0433 0.25327 0.10541 0.0
O2 O 0.09957 0.27473 0.12384 0.0
C3 C 0.12644 0.25666 0.17506 0.0
O4 O 0.08234 0.23706 0.17047 0.0
C5 C 0.03952 0.34002 0.07826 0.0
O6 O 0.04389 0.31583 0.05973 0.0
O7 O 0.08461 0.2463 0.07879 0.0
O8 O 0.14408 0.21634 0.09486 0.0
H9 H 0.94551 0.14893 0.04804 0.0
H10 H 0.16714 0.33998 0.14007 0.0
O11 O 0.1583 0.25958 0.15975 0.0
H12 H 0.28772 0.32589 0.08197 0.0
H13 H 0.30854 0.20949 0.15628 0.0
H14 H 0.1648 0.14211 0.113 0.0
H15 H 0.23068 0.25529 0.09429 0.0
H16 H 0.24431 0.25568 0.15072 0.0
O17 O 0.04221 0.32112 0.09761 0.0
H18 H 0.01546 0.17575 0.07219 0.0
H19 H 0.95097 0.28704 0.09859 0.0
H20 H 0.22831 0.09483 0.118 0.0
H21 H 0.22381 0.41144 0.1284 0.0
H22 H 0.30083 0.12853 0.13977 0.0
H23 H 0.28461 0.40464 0.09912 0.0
O24 O 0.10378 0.18077 0.13658 0.0
H25 H 0.9957 0.33636 0.17439 0.0
H26 H 0.95878 0.19266 0.12697 0.0
H27 H 0.91054 0.1996 0.16095 0.0
H28 H 0.9288 0.27198 0.18491 0.0
H29 H 0.04343 0.32761 0.14042 0.0
H30 H 0.88043 0.2616 0.07464 0.0
H31 H 0.87736 0.192 0.04915 0.0
O32 O 0.04229 0.18536 0.11362 0.0
C33 C 0.1207 0.22568 0.07749 0.0
C34 C 0.94642 0.1793 0.05907 0.0
C35 C 0.90991 0.24254 0.074 0.0
N36 N 0.98735 0.23294 0.08679 0.0
C37 C 0.98593 0.19465 0.0728 0.0
C38 C 0.94999 0.25685 0.08749 0.0
C39 C 0.9082 0.20349 0.0597 0.0
C40 C 0.19369 0.3367 0.12743 0.0
N41 N 0.19576 0.29349 0.11797 0.0
C42 C 0.2256 0.3773 0.12084 0.0
C43 C 0.25967 0.37347 0.10439 0.0
C44 C 0.26142 0.3293 0.09475 0.0
C45 C 0.22894 0.28947 0.10176 0.0
C46 C 0.27716 0.19446 0.14672 0.0
C47 C 0.19639 0.15712 0.12237 0.0
C48 C 0.24064 0.2204 0.14355 0.0
N49 N 0.20105 0.20174 0.13138 0.0
C50 C 0.23216 0.13013 0.1252 0.0
C51 C 0.27282 0.14904 0.13744 0.0
C52 C 0.0639 0.16294 0.12768 0.0
C53 C 0.98734 0.30467 0.16407 0.0
C54 C 0.96725 0.22401 0.13739 0.0
C55 C 0.93964 0.22788 0.15657 0.0
C56 C 0.94986 0.26851 0.16998 0.0
N57 N 0.00397 0.2596 0.13168 0.0
C58 C 0.01416 0.29956 0.14477 0.0
Co59 Co 0.74898 0.64335 0.38519 0.0
Co60 Co 0.75543 0.53412 0.40823 0.0
O61 O 0.78217 0.58993 0.39017 0.0
C62 C 0.76996 0.61849 0.33769 0.0
O63 O 0.7482 0.57486 0.34186 0.0
C64 C 0.85314 0.56195 0.42699 0.0
O65 O 0.84812 0.60674 0.42713 0.0
O66 O 0.74458 0.57556 0.43418 0.0
O67 O 0.72346 0.63877 0.417 0.0
H68 H 0.63552 0.4387 0.46012 0.0
H69 H 0.85179 0.65466 0.37473 0.0
O70 O 0.7741 0.64989 0.35325 0.0
H71 H 0.83889 0.77641 0.4324 0.0
H72 H 0.73344 0.80433 0.35466 0.0
H73 H 0.65341 0.66324 0.39655 0.0
H74 H 0.76718 0.72334 0.41836 0.0
H75 H 0.77469 0.73701 0.36189 0.0
O76 O 0.81965 0.52978 0.42011 0.0
H77 H 0.66952 0.50807 0.43679 0.0
H78 H 0.78581 0.4417 0.41868 0.0
H79 H 0.61096 0.7299 0.38984 0.0
H80 H 0.92441 0.70729 0.38815 0.0
H81 H 0.65103 0.8011 0.36876 0.0
H82 H 0.91821 0.76862 0.41724 0.0
O83 O 0.69087 0.59949 0.3746 0.0
H84 H 0.85102 0.48328 0.34437 0.0
H85 H 0.69774 0.45045 0.38473 0.0
H86 H 0.7106 0.40129 0.35184 0.0
H87 H 0.7878 0.41752 0.33143 0.0
H88 H 0.83636 0.5319 0.37721 0.0
H89 H 0.75331 0.37183 0.44197 0.0
H90 H 0.67752 0.36995 0.46282 0.0
O91 O 0.69044 0.53538 0.39654 0.0
C92 C 0.72749 0.61391 0.43464 0.0
C93 C 0.66851 0.43905 0.45107 0.0
C94 C 0.73466 0.40155 0.44091 0.0
N95 N 0.72946 0.47884 0.42629 0.0
C96 C 0.68788 0.47818 0.4378 0.0
C97 C 0.75297 0.44128 0.4278 0.0
C98 C 0.69212 0.40051 0.4526 0.0
C99 C 0.84879 0.68156 0.38723 0.0
N100 N 0.8053 0.68604 0.39568 0.0
C101 C 0.89004 0.71113 0.39483 0.0
C102 C 0.88654 0.74548 0.41118 0.0
C103 C 0.84205 0.74985 0.41971 0.0
C104 C 0.80158 0.7196 0.41174 0.0
C105 C 0.71564 0.77355 0.36391 0.0
C106 C 0.67118 0.69423 0.38749 0.0
C107 C 0.73878 0.73529 0.36802 0.0
N108 N 0.71661 0.69643 0.3798 0.0
C109 C 0.64692 0.73181 0.38368 0.0
C110 C 0.66941 0.77172 0.37183 0.0
C111 C 0.67087 0.55912 0.38228 0.0
C112 C 0.81723 0.47585 0.35312 0.0
C113 C 0.7312 0.45802 0.37584 0.0
C114 C 0.7384 0.4299 0.35728 0.0
C115 C 0.78174 0.43899 0.34585 0.0
N116 N 0.76615 0.49413 0.38286 0.0
C117 C 0.80876 0.50319 0.37176 0.0
Co118 Co 0.35588 0.25972 0.62649 0.0
Co119 Co 0.46407 0.24798 0.60362 0.0
O120 O 0.40709 0.22319 0.6215 0.0
C121 C 0.3782 0.22909 0.67291 0.0
O122 O 0.42346 0.23804 0.66753 0.0
C123 C 0.43337 0.15008 0.58501 0.0
O124 O 0.38869 0.15536 0.58558 0.0
O125 O 0.42384 0.26064 0.57758 0.0
O126 O 0.36259 0.2855 0.59475 0.0
H127 H 0.56425 0.36519 0.55214 0.0
H128 H 0.33842 0.15661 0.63664 0.0
O129 O 0.34685 0.2352 0.65842 0.0
H130 H 0.22024 0.17737 0.5785 0.0
H131 H 0.19696 0.28494 0.65605 0.0
H132 H 0.34252 0.35756 0.61531 0.0
H133 H 0.27658 0.24646 0.5929 0.0
H134 H 0.26101 0.23918 0.6491 0.0
O135 O 0.46616 0.18336 0.59151 0.0
H136 H 0.49368 0.3335 0.57516 0.0
H137 H 0.5549 0.214 0.59355 0.0
H138 H 0.2792 0.40448 0.62173 0.0
H139 H 0.28241 0.08656 0.62287 0.0
H140 H 0.20577 0.36816 0.64224 0.0
H141 H 0.22287 0.09672 0.59354 0.0
O142 O 0.40225 0.31526 0.63765 0.0
H143 H 0.51185 0.14782 0.66639 0.0
H144 H 0.54793 0.30317 0.62798 0.0
H145 H 0.59622 0.28757 0.6607 0.0
H146 H 0.57837 0.20932 0.68012 0.0
H147 H 0.46399 0.16528 0.6338 0.0
H148 H 0.62592 0.24418 0.57057 0.0
H149 H 0.631 0.32041 0.54974 0.0
O150 O 0.46538 0.31351 0.61537 0.0
C151 C 0.38686 0.27993 0.5771 0.0
C152 C 0.5625 0.33199 0.56118 0.0
C153 C 0.59708 0.26405 0.5715 0.0
N154 N 0.52025 0.27208 0.58578 0.0
C155 C 0.52268 0.31391 0.57428 0.0
C156 C 0.5567 0.24706 0.58443 0.0
C157 C 0.59992 0.30683 0.55983 0.0
C158 C 0.31231 0.16134 0.62404 0.0
N159 N 0.31065 0.20556 0.61566 0.0
C160 C 0.28082 0.12153 0.61624 0.0
C161 C 0.24747 0.12725 0.59975 0.0
C162 C 0.246 0.17249 0.59129 0.0
C163 C 0.2781 0.21146 0.59947 0.0
C164 C 0.22874 0.30113 0.64705 0.0
C165 C 0.31054 0.34141 0.62412 0.0
C166 C 0.26516 0.27542 0.6431 0.0
N167 N 0.30529 0.29557 0.63164 0.0
C168 C 0.27487 0.3682 0.62776 0.0
C169 C 0.2337 0.34781 0.63929 0.0
C170 C 0.44292 0.33392 0.62988 0.0
C171 C 0.52001 0.18204 0.65806 0.0
C172 C 0.53959 0.26929 0.63647 0.0
C173 C 0.56725 0.26052 0.65492 0.0
C174 C 0.55727 0.21659 0.66578 0.0
N175 N 0.50302 0.2353 0.62902 0.0
C176 C 0.49315 0.19207 0.63954 0.0
Co177 Co 0.75022 0.85402 0.88311 0.0
Co178 Co 0.74811 0.96526 0.90529 0.0
O179 O 0.71961 0.90938 0.88771 0.0
C180 C 0.73125 0.88042 0.83572 0.0
O181 O 0.75383 0.92356 0.84027 0.0
C182 C 0.65082 0.94043 0.92479 0.0
O183 O 0.6548 0.89536 0.92523 0.0
O184 O 0.75857 0.92421 0.9315 0.0
O185 O 0.77444 0.85783 0.91506 0.0
H186 H 0.87152 0.05952 0.9558 0.0
H187 H 0.64819 0.84746 0.87189 0.0
O188 O 0.72618 0.84846 0.85102 0.0
H189 H 0.65322 0.7246 0.92996 0.0
H190 H 0.75899 0.6908 0.85321 0.0
H191 H 0.84338 0.82939 0.89543 0.0
H192 H 0.72724 0.7746 0.91635 0.0
H193 H 0.72119 0.76076 0.85982 0.0
O194 O 0.68471 0.97168 0.91751 0.0
H195 H 0.83519 0.9901 0.93306 0.0
H196 H 0.72048 0.05913 0.91549 0.0
H197 H 0.88237 0.76005 0.88936 0.0
H198 H 0.57333 0.79795 0.88488 0.0
H199 H 0.84009 0.6901 0.86812 0.0
H200 H 0.57557 0.73608 0.91416 0.0
O201 O 0.81037 0.89521 0.87285 0.0
H202 H 0.65264 0.01542 0.8413 0.0
H203 H 0.80611 0.04819 0.88134 0.0
H204 H 0.79365 0.09641 0.84807 0.0
H205 H 0.71635 0.08017 0.82781 0.0
H206 H 0.66698 0.96771 0.87449 0.0
H207 H 0.75531 0.12909 0.93822 0.0
H208 H 0.83149 0.12966 0.95849 0.0
O209 O 0.81232 0.9619 0.89316 0.0
C210 C 0.77254 0.88419 0.93238 0.0
C211 C 0.83838 0.05975 0.947 0.0
C212 C 0.77311 0.09876 0.93716 0.0
N213 N 0.77591 0.02065 0.92286 0.0
C214 C 0.8177 0.02059 0.93405 0.0
C215 C 0.75347 0.05897 0.92438 0.0
C216 C 0.81587 0.09907 0.94852 0.0
C217 C 0.64947 0.82031 0.88449 0.0
N218 N 0.69204 0.8138 0.89327 0.0
C219 C 0.60696 0.79252 0.89184 0.0
C220 C 0.60823 0.75786 0.9083 0.0
C221 C 0.65179 0.75143 0.91718 0.0
C222 C 0.69358 0.77994 0.90945 0.0
C223 C 0.77774 0.72103 0.86253 0.0
C224 C 0.82465 0.79896 0.88629 0.0
C225 C 0.75655 0.76077 0.86629 0.0
N226 N 0.77992 0.79894 0.87816 0.0
C227 C 0.84696 0.75986 0.88285 0.0
C228 C 0.82324 0.72065 0.87091 0.0
C229 C 0.83133 0.93591 0.87972 0.0
C230 C 0.68652 0.02279 0.84995 0.0
C231 C 0.77271 0.04052 0.87247 0.0
C232 C 0.76568 0.06816 0.85372 0.0
C233 C 0.72228 0.05908 0.84238 0.0
N234 N 0.73758 0.00485 0.87975 0.0
C235 C 0.69483 0.99594 0.86878 0.0
Co236 Co 0.64944 0.76052 0.63078 0.0
Co237 Co 0.53381 0.75032 0.61144 0.0
O238 O 0.58972 0.78439 0.6273 0.0
C239 C 0.6242 0.77686 0.6786 0.0
O240 O 0.5822 0.75114 0.67452 0.0
C241 C 0.55096 0.84474 0.5889 0.0
O242 O 0.59625 0.84216 0.5872 0.0
O243 O 0.57327 0.73911 0.58466 0.0
O244 O 0.64545 0.73585 0.59897 0.0
H245 H 0.44247 0.61549 0.56618 0.0
H246 H 0.64568 0.86082 0.64214 0.0
O247 O 0.65509 0.78484 0.66284 0.0
H248 H 0.76533 0.86871 0.58148 0.0
H249 H 0.8181 0.77059 0.65755 0.0
H250 H 0.68403 0.67253 0.61752 0.0
H251 H 0.7244 0.79122 0.59602 0.0
H252 H 0.74246 0.79945 0.65241 0.0
O253 O 0.52195 0.81095 0.59786 0.0
H254 H 0.51207 0.65896 0.58666 0.0
H255 H 0.4365 0.77018 0.60201 0.0
H256 H 0.75912 0.64242 0.62214 0.0
H257 H 0.68601 0.93908 0.6282 0.0
H258 H 0.82684 0.69162 0.64228 0.0
H259 H 0.74623 0.94334 0.59761 0.0
O260 O 0.61529 0.69734 0.64158 0.0
H261 H 0.48152 0.84858 0.67391 0.0
H262 H 0.45664 0.69037 0.63801 0.0
H263 H 0.40958 0.70327 0.67169 0.0
H264 H 0.42186 0.78293 0.68986 0.0
H265 H 0.52817 0.83386 0.64037 0.0
H266 H 0.36627 0.72817 0.5815 0.0
H267 H 0.36891 0.65013 0.5635 0.0
O268 O 0.5432 0.68922 0.62518 0.0
C269 C 0.61568 0.73113 0.58268 0.0
C270 C 0.44084 0.64941 0.574 0.0
C271 C 0.3981 0.71269 0.58257 0.0
N272 N 0.47827 0.71691 0.59563 0.0
C273 C 0.48009 0.67412 0.58567 0.0
C274 C 0.43805 0.7364 0.59409 0.0
C275 C 0.3996 0.66889 0.57248 0.0
C276 C 0.67217 0.86241 0.62897 0.0
N277 N 0.68285 0.82153 0.61999 0.0
C278 C 0.69475 0.90681 0.62109 0.0
C279 C 0.72848 0.90917 0.6039 0.0
C280 C 0.73919 0.86731 0.59483 0.0
C281 C 0.71583 0.82354 0.60311 0.0
C282 C 0.78888 0.74885 0.64872 0.0
C283 C 0.7134 0.69421 0.62621 0.0
C284 C 0.74593 0.76495 0.6458 0.0
N285 N 0.70896 0.73779 0.63456 0.0
C286 C 0.7558 0.67694 0.62882 0.0
C287 C 0.79376 0.70455 0.64014 0.0
C288 C 0.57417 0.67354 0.63709 0.0
C289 C 0.4759 0.81369 0.66618 0.0
C290 C 0.46255 0.72491 0.64599 0.0
C291 C 0.4356 0.73212 0.66497 0.0
C292 C 0.44246 0.77683 0.67513 0.0
N293 N 0.49542 0.76115 0.63737 0.0
C294 C 0.50217 0.80515 0.64717 0.0
Co295 Co 0.2507 0.15144 0.87772 0.0
Co296 Co 0.25481 0.03848 0.89822 0.0
O297 O 0.28299 0.0967 0.88195 0.0
C298 C 0.27693 0.12685 0.8309 0.0
O299 O 0.26577 0.08177 0.83643 0.0
C300 C 0.35095 0.0652 0.91945 0.0
O301 O 0.3496 0.11067 0.91737 0.0
O302 O 0.23875 0.07649 0.92457 0.0
O303 O 0.22708 0.14591 0.90974 0.0
H304 H 0.1282 0.93563 0.94397 0.0
H305 H 0.35267 0.16114 0.8658 0.0
O306 O 0.27338 0.15902 0.84543 0.0
H307 H 0.3457 0.28121 0.92504 0.0
H308 H 0.23699 0.3146 0.84932 0.0
H309 H 0.15692 0.17325 0.89101 0.0
H310 H 0.27242 0.22972 0.91163 0.0
H311 H 0.277 0.24588 0.8551 0.0
O312 O 0.31675 0.03387 0.91256 0.0
H313 H 0.16456 0.00775 0.92307 0.0
H314 H 0.28571 0.94603 0.90827 0.0
H315 H 0.11575 0.24133 0.88577 0.0
H316 H 0.42681 0.21224 0.87856 0.0
H317 H 0.15583 0.31265 0.86478 0.0
H318 H 0.42359 0.27272 0.90843 0.0
O319 O 0.19124 0.10965 0.8672 0.0
H320 H 0.36329 0.99617 0.83763 0.0
H321 H 0.20343 0.95637 0.87139 0.0
H322 H 0.22339 0.91105 0.83836 0.0
H323 H 0.30393 0.93084 0.82127 0.0
H324 H 0.34146 0.04099 0.87047 0.0
H325 H 0.25087 0.87348 0.92917 0.0
H326 H 0.17146 0.86786 0.94712 0.0
O327 O 0.1919 0.03963 0.88426 0.0
C328 C 0.2263 0.11711 0.92631 0.0
C329 C 0.16276 0.93759 0.93616 0.0
C330 C 0.23164 0.90274 0.92789 0.0
N331 N 0.22705 0.981 0.91433 0.0
C332 C 0.18347 0.97828 0.92426 0.0
C333 C 0.25124 0.94398 0.91612 0.0
C334 C 0.18708 0.8996 0.93795 0.0
C335 C 0.35097 0.18768 0.87866 0.0
N336 N 0.30828 0.19257 0.88788 0.0
C337 C 0.39307 0.21637 0.88588 0.0
C338 C 0.39125 0.25025 0.90267 0.0
C339 C 0.34756 0.255 0.91201 0.0
C340 C 0.3062 0.22564 0.90439 0.0
C341 C 0.21918 0.28376 0.85852 0.0
C342 C 0.17469 0.20428 0.88197 0.0
C343 C 0.24161 0.24469 0.86181 0.0
N344 N 0.21941 0.20571 0.8735 0.0
C345 C 0.15116 0.24266 0.87901 0.0
C346 C 0.17365 0.28265 0.86721 0.0
C347 C 0.17204 0.06708 0.87206 0.0
C348 C 0.32807 0.98723 0.84491 0.0
C349 C 0.23824 0.96558 0.86387 0.0
C350 C 0.24951 0.93958 0.84526 0.0
C351 C 0.29472 0.95063 0.83571 0.0
N352 N 0.27103 0.00157 0.87273 0.0
C353 C 0.31554 0.01239 0.86355 0.0
Co354 Co 0.83891 0.74251 0.13183 0.0
Co355 Co 0.95076 0.73872 0.11015 0.0
O356 O 0.8939 0.71129 0.12733 0.0
C357 C 0.86586 0.72464 0.17939 0.0
O358 O 0.90908 0.74686 0.17474 0.0
C359 C 0.91947 0.64394 0.08929 0.0
O360 O 0.87524 0.65026 0.09089 0.0
O361 O 0.91143 0.75442 0.08427 0.0
O362 O 0.8424 0.76562 0.09972 0.0
H363 H 0.05188 0.86387 0.06293 0.0
H364 H 0.83173 0.64089 0.1442 0.0
O365 O 0.8338 0.71965 0.16414 0.0
H366 H 0.70861 0.64405 0.08612 0.0
H367 H 0.67666 0.75317 0.16236 0.0
H368 H 0.81384 0.83494 0.11836 0.0
H369 H 0.7592 0.71846 0.09888 0.0
H370 H 0.74634 0.71493 0.15588 0.0
O371 O 0.95339 0.67573 0.09614 0.0
H372 H 0.98085 0.82855 0.08487 0.0
H373 H 0.0416 0.7063 0.09854 0.0
H374 H 0.74477 0.87435 0.12428 0.0
H375 H 0.78163 0.56569 0.13207 0.0
H376 H 0.67552 0.83339 0.14643 0.0
H377 H 0.71963 0.56697 0.10278 0.0
O378 O 0.88044 0.80315 0.14132 0.0
H379 H 0.99564 0.63309 0.17133 0.0
H380 H 0.03487 0.79073 0.13523 0.0
H381 H 0.08205 0.7722 0.16788 0.0
H382 H 0.06255 0.6928 0.18613 0.0
H383 H 0.94911 0.6534 0.13881 0.0
H384 H 0.11306 0.74008 0.07657 0.0
H385 H 0.11861 0.81952 0.05867 0.0
O386 O 0.95036 0.80211 0.12394 0.0
C387 C 0.87071 0.76673 0.08292 0.0
C388 C 0.04994 0.82929 0.07071 0.0
C389 C 0.08425 0.75978 0.07833 0.0
N390 N 0.00724 0.7656 0.09311 0.0
C391 C 0.00989 0.80918 0.0832 0.0
C392 C 0.04363 0.74078 0.0907 0.0
C393 C 0.08735 0.80437 0.0683 0.0
C394 C 0.80449 0.64179 0.13161 0.0
N395 N 0.79826 0.68404 0.12234 0.0
C396 C 0.77638 0.59907 0.12474 0.0
C397 C 0.74166 0.5998 0.10828 0.0
C398 C 0.73549 0.64304 0.09891 0.0
C399 C 0.76432 0.68505 0.10616 0.0
C400 C 0.7066 0.77136 0.15266 0.0
C401 C 0.78378 0.81682 0.12793 0.0
C402 C 0.74621 0.74994 0.14899 0.0
N403 N 0.78404 0.77261 0.13666 0.0
C404 C 0.7448 0.83935 0.13127 0.0
C405 C 0.70598 0.81637 0.14371 0.0
C406 C 0.92288 0.82231 0.13604 0.0
C407 C 0.00447 0.66782 0.16354 0.0
C408 C 0.0259 0.75634 0.14323 0.0
C409 C 0.05289 0.74593 0.16163 0.0
C410 C 0.04197 0.70135 0.17185 0.0
N411 N 0.98911 0.72333 0.13522 0.0
C412 C 0.9783 0.67949 0.14509 0.0
Co413 Co 0.24646 0.35086 0.37887 0.0
Co414 Co 0.25339 0.46643 0.39792 0.0
O415 O 0.2207 0.40957 0.38224 0.0
C416 C 0.22944 0.37403 0.33081 0.0
O417 O 0.25463 0.41649 0.33441 0.0
C418 C 0.15939 0.44681 0.42082 0.0
O419 O 0.16308 0.40177 0.4224 0.0
O420 O 0.26615 0.42792 0.42479 0.0
O421 O 0.27126 0.35603 0.4106 0.0
H422 H 0.38661 0.56207 0.44259 0.0
H423 H 0.14551 0.35137 0.36766 0.0
O424 O 0.22196 0.34389 0.34689 0.0
H425 H 0.14165 0.23299 0.42862 0.0
H426 H 0.24145 0.18243 0.35258 0.0
H427 H 0.33599 0.31939 0.39214 0.0
H428 H 0.21815 0.27586 0.41386 0.0
H429 H 0.21012 0.2568 0.35755 0.0
O430 O 0.19235 0.47654 0.41169 0.0
H431 H 0.3448 0.4912 0.42241 0.0
H432 H 0.23058 0.56273 0.40718 0.0
H433 H 0.36857 0.2456 0.38769 0.0
H434 H 0.06821 0.30907 0.38182 0.0
H435 H 0.32115 0.17644 0.36778 0.0
H436 H 0.06598 0.24949 0.41256 0.0
O437 O 0.30885 0.38663 0.36789 0.0
H438 H 0.15223 0.51444 0.33563 0.0
H439 H 0.31086 0.5447 0.371 0.0
H440 H 0.29598 0.5906 0.33726 0.0
H441 H 0.2161 0.57561 0.31936 0.0
H442 H 0.16893 0.46902 0.36923 0.0
H443 H 0.2709 0.63417 0.42738 0.0
H444 H 0.3496 0.63421 0.44517 0.0
O445 O 0.3149 0.4588 0.38406 0.0
C446 C 0.27528 0.38594 0.42684 0.0
C447 C 0.35238 0.56253 0.43485 0.0
C448 C 0.2874 0.60297 0.42635 0.0
N449 N 0.28544 0.52291 0.41352 0.0
C450 C 0.32861 0.52256 0.42336 0.0
C451 C 0.26466 0.56234 0.41501 0.0
C452 C 0.33157 0.60298 0.43632 0.0
C453 C 0.14481 0.32517 0.38089 0.0
N454 N 0.18627 0.31592 0.38983 0.0
C455 C 0.10094 0.30147 0.3889 0.0
C456 C 0.09972 0.26809 0.40618 0.0
C457 C 0.14216 0.25884 0.41521 0.0
C458 C 0.18537 0.28329 0.40681 0.0
C459 C 0.26243 0.2123 0.3613 0.0
C460 C 0.31508 0.28939 0.38354 0.0
C461 C 0.24492 0.25454 0.36412 0.0
N462 N 0.27112 0.29232 0.37523 0.0
C463 C 0.33375 0.24773 0.38103 0.0
C464 C 0.30714 0.20895 0.36985 0.0
C465 C 0.33155 0.42833 0.37222 0.0
C466 C 0.18721 0.52124 0.34324 0.0
C467 C 0.27626 0.5376 0.36314 0.0
C468 C 0.26791 0.5639 0.34412 0.0
C469 C 0.22307 0.55552 0.33411 0.0
N470 N 0.241 0.5039 0.37194 0.0
C471 C 0.19687 0.49566 0.36229 0.0
H472 H 0.09099 0.24893 0.03525 0.0
H473 H 0.23537 0.07707 0.96808 0.0
H474 H 0.1845 0.16698 0.06809 0.0
H475 H 0.18032 0.19147 0.93583 0.0
H476 H 0.20949 0.1034 1.00471 0.0
H477 H 0.11609 0.22234 0.9985 0.0
C478 C 0.11677 0.22541 0.03479 0.0
C479 C 0.13569 0.2104 0.05491 0.0
C480 C 0.20312 0.12272 0.9896 0.0
C481 C 0.1642 0.17935 0.01278 0.0
C482 C 0.21774 0.10761 0.96864 0.0
C483 C 0.21018 0.13207 0.94873 0.0
C484 C 0.18012 0.16224 0.99074 0.0
C485 C 0.18716 0.17153 0.95065 0.0
C486 C 0.13114 0.21029 0.01377 0.0
C487 C 0.16899 0.17976 0.05312 0.0
N488 N 0.17281 0.1852 0.97121 0.0
N489 N 0.18194 0.16513 0.0325 0.0
H490 H 0.83353 0.69757 0.3248 0.0
H491 H 0.7889 0.65888 0.19269 0.0
H492 H 0.74616 0.57115 0.29777 0.0
H493 H 0.91463 0.74868 0.21895 0.0
H494 H 0.76782 0.63095 0.23116 0.0
H495 H 0.85911 0.72159 0.2863 0.0
C496 C 0.81982 0.67477 0.31078 0.0
C497 C 0.78759 0.63225 0.31455 0.0
C498 C 0.80014 0.65659 0.22848 0.0
C499 C 0.8163 0.65994 0.27038 0.0
C500 C 0.81213 0.6727 0.20654 0.0
C501 C 0.85361 0.70626 0.20256 0.0
C502 C 0.82931 0.67475 0.24671 0.0
C503 C 0.8824 0.72272 0.22119 0.0
C504 C 0.83457 0.68846 0.28882 0.0
C505 C 0.77115 0.60412 0.2957 0.0
N506 N 0.86949 0.70716 0.24246 0.0
N507 N 0.7853 0.61868 0.27444 0.0
H508 H 0.32397 0.34062 0.56974 0.0
H509 H 0.31744 0.30898 0.43574 0.0
H510 H 0.41338 0.25828 0.53414 0.0
H511 H 0.27187 0.42804 0.46869 0.0
H512 H 0.34546 0.28437 0.47207 0.0
H513 H 0.29753 0.36753 0.5334 0.0
C514 C 0.33808 0.32812 0.55431 0.0
C515 C 0.37105 0.29702 0.55508 0.0
C516 C 0.32943 0.31594 0.47135 0.0
C517 C 0.34038 0.32754 0.51333 0.0
C518 C 0.31318 0.33 0.4506 0.0
C519 C 0.29215 0.37079 0.44904 0.0
C520 C 0.3241 0.34228 0.49092 0.0
C521 C 0.2879 0.39647 0.469 0.0
C522 C 0.32304 0.3437 0.53356 0.0
C523 C 0.38807 0.28229 0.53444 0.0
N524 N 0.30343 0.38162 0.48912 0.0
N525 N 0.37231 0.29739 0.51446 0.0
H526 H 0.75354 0.93057 0.7964 0.0
H527 H 0.57781 0.74929 0.71836 0.0
H528 H 0.66759 0.80199 0.82215 0.0
H529 H 0.69955 0.84485 0.69181 0.0
H530 H 0.60178 0.77622 0.75667 0.0
H531 H 0.72563 0.90749 0.7581 0.0
C532 C 0.72858 0.89765 0.79404 0.0
C533 C 0.71306 0.86809 0.81254 0.0
C534 C 0.62313 0.79136 0.74244 0.0
C535 C 0.68071 0.84169 0.76875 0.0
C536 C 0.60938 0.77617 0.72055 0.0
C537 C 0.63681 0.79467 0.70181 0.0
C538 C 0.66423 0.82585 0.74565 0.0
C539 C 0.67746 0.82939 0.70574 0.0
C540 C 0.71283 0.88443 0.77216 0.0
C541 C 0.68074 0.82577 0.80841 0.0
N542 N 0.68985 0.84392 0.72719 0.0
N543 N 0.66556 0.81393 0.787 0.0
H544 H 0.25798 0.41712 0.2904 0.0
H545 H 0.07556 0.23834 0.21443 0.0
H546 H 0.16109 0.29822 0.3186 0.0
H547 H 0.20691 0.31794 0.18815 0.0
H548 H 0.09871 0.26864 0.25236 0.0
H549 H 0.23165 0.39008 0.25237 0.0
C550 C 0.23091 0.38557 0.28862 0.0
C551 C 0.21186 0.35981 0.30774 0.0
C552 C 0.12239 0.27946 0.23827 0.0
C553 C 0.1814 0.32889 0.26426 0.0
C554 C 0.10916 0.26231 0.2166 0.0
C555 C 0.13944 0.2754 0.19807 0.0
C556 C 0.16583 0.31062 0.2414 0.0
C557 C 0.18259 0.30661 0.20194 0.0
C558 C 0.2161 0.37004 0.26691 0.0
C559 C 0.17696 0.31906 0.30436 0.0
N560 N 0.19439 0.32329 0.22313 0.0
N561 N 0.16276 0.30495 0.28307 0.0
H562 H 0.57408 0.73448 0.54078 0.0
H563 H 0.74794 0.58675 0.47762 0.0
H564 H 0.69301 0.68933 0.57391 0.0
H565 H 0.66892 0.67891 0.4419 0.0
H566 H 0.72047 0.61527 0.5135 0.0
H567 H 0.60085 0.70585 0.5047 0.0
C568 C 0.60573 0.71856 0.54052 0.0
C569 C 0.63132 0.71451 0.5605 0.0
C570 C 0.70921 0.62924 0.49779 0.0
C571 C 0.66176 0.68109 0.51926 0.0
C572 C 0.72475 0.61285 0.47728 0.0
C573 C 0.71091 0.63049 0.45663 0.0
C574 C 0.67891 0.66295 0.49773 0.0
C575 C 0.68078 0.66442 0.45734 0.0
C576 C 0.62105 0.70234 0.5199 0.0
C577 C 0.67216 0.6935 0.55902 0.0
N578 N 0.66561 0.6793 0.47751 0.0
N579 N 0.68588 0.67737 0.53885 0.0
H580 H 0.29877 0.24342 0.69562 0.0
H581 H 0.32326 0.07802 0.80075 0.0
H582 H 0.42326 0.17882 0.70298 0.0
H583 H 0.26659 0.20738 0.80799 0.0
H584 H 0.3492 0.1026 0.76214 0.0
H585 H 0.27477 0.21836 0.73422 0.0
C586 C 0.32092 0.22373 0.70531 0.0
C587 C 0.36318 0.2133 0.69611 0.0
C588 C 0.33112 0.12548 0.77226 0.0
C589 C 0.33539 0.18386 0.74008 0.0
C590 C 0.31613 0.11145 0.79419 0.0
C591 C 0.29282 0.14077 0.80759 0.0
C592 C 0.32145 0.16841 0.76348 0.0
C593 C 0.28467 0.18383 0.79829 0.0
C594 C 0.3073 0.20968 0.72734 0.0
C595 C 0.39059 0.18784 0.70949 0.0
N596 N 0.29846 0.1961 0.77674 0.0
N597 N 0.376 0.17354 0.73075 0.0
H598 H 0.79818 0.81579 0.07454 0.0
H599 H 0.8244 0.81381 0.94022 0.0
H600 H 0.90868 0.75732 0.04072 0.0
H601 H 0.75493 0.9151 0.97519 0.0
H602 H 0.84841 0.78548 0.97668 0.0
H603 H 0.77469 0.845 0.03813 0.0
C604 C 0.81747 0.80891 0.05948 0.0
C605 C 0.85559 0.78398 0.0608 0.0
C606 C 0.82801 0.81397 0.97636 0.0
C607 C 0.82842 0.8172 0.01893 0.0
C608 C 0.8141 0.83013 0.95554 0.0
C609 C 0.78756 0.86705 0.95454 0.0
C610 C 0.81474 0.83421 0.99648 0.0
C611 C 0.77548 0.88674 0.97507 0.0
C612 C 0.8041 0.82583 0.0387 0.0
C613 C 0.87921 0.77642 0.04061 0.0
N614 N 0.78887 0.86988 0.99517 0.0
N615 N 0.86507 0.79268 0.02054 0.0
H616 H 0.97424 0.11784 0.11672 0.0
H617 H 0.0138 0.86191 0.14724 0.0
H618 H 0.10103 0.09541 0.15173 0.0
H619 H 0.87365 0.89583 0.13945 0.0
H620 H 0.04669 0.94654 0.15021 0.0
H621 H 0.9371 0.03674 0.1253 0.0
C622 C 0.99423 0.09616 0.12648 0.0
C623 C 0.04096 0.11382 0.13359 0.0
C624 C 0.00864 0.93548 0.14828 0.0
C625 C 0.99846 0.01995 0.14308 0.0
C626 C 0.98984 0.88717 0.14651 0.0
C627 C 0.94103 0.87192 0.14272 0.0
C628 C 0.97852 0.9688 0.14576 0.0
C629 C 0.9115 0.90611 0.14225 0.0
C630 C 0.97277 0.0497 0.13142 0.0
C631 C 0.06499 0.08339 0.14591 0.0
N632 N 0.93086 0.95313 0.14325 0.0
N633 N 0.04367 0.03766 0.15 0.0
H634 H 0.07313 0.39354 0.43294 0.0
H635 H 0.94163 0.61843 0.43005 0.0
H636 H 0.14557 0.53854 0.42428 0.0
H637 H 0.86917 0.47291 0.43631 0.0
H638 H 0.01782 0.59105 0.43374 0.0
H639 H -0.00095 0.42301 0.43989 0.0
C640 C 0.0736 0.43154 0.43278 0.0
C641 C 0.11545 0.46353 0.42772 0.0
C642 C 0.98516 0.5652 0.43456 0.0
C643 C 0.03094 0.49752 0.43551 0.0
C644 C 0.94171 0.58089 0.43256 0.0
C645 C 0.89908 0.54786 0.43253 0.0
C646 C 0.98581 0.51622 0.43656 0.0
C647 C 0.90123 0.49958 0.43584 0.0
C648 C 0.03131 0.44838 0.4367 0.0
C649 C 0.11401 0.51246 0.42779 0.0
N650 N 0.94381 0.4852 0.43749 0.0
N651 N 0.07241 0.5279 0.4314 0.0
H652 H 0.4042 0.39782 0.65563 0.0
H653 H 0.62962 0.60482 0.63737 0.0
H654 H 0.53309 0.38053 0.62088 0.0
H655 H 0.48936 0.62963 0.65417 0.0
H656 H 0.60111 0.51909 0.64182 0.0
H657 H 0.44108 0.47985 0.6647 0.0
C658 C 0.44036 0.41091 0.65018 0.0
C659 C 0.46536 0.3822 0.63732 0.0
C660 C 0.57681 0.54345 0.6449 0.0
C661 C 0.50776 0.47561 0.6478 0.0
C662 C 0.59318 0.59229 0.64253 0.0
C663 C 0.56142 0.62402 0.6449 0.0
C664 C 0.52855 0.52666 0.64981 0.0
C665 C 0.51455 0.60611 0.65159 0.0
C666 C 0.46138 0.45767 0.65538 0.0
C667 C 0.51223 0.40114 0.63077 0.0
N668 N 0.49931 0.55854 0.65356 0.0
N669 N 0.53174 0.44664 0.63596 0.0
H670 H 0.56201 0.88565 0.92966 0.0
H671 H 0.35578 0.97979 0.93851 0.0
H672 H 0.6367 0.03084 0.93246 0.0
H673 H 0.44379 0.11196 0.9184 0.0
H674 H 0.42671 0.94639 0.94576 0.0
H675 H 0.48705 0.91423 0.93358 0.0
C676 C 0.56266 0.92345 0.93165 0.0
C677 C 0.6056 0.95585 0.93053 0.0
C678 C 0.43088 0.98249 0.93957 0.0
C679 C 0.51989 0.98926 0.93541 0.0
C680 C 0.39025 0.00185 0.93567 0.0
C681 C 0.39397 0.04847 0.92744 0.0
C682 C 0.47573 0.00968 0.93482 0.0
C683 C 0.43938 0.07579 0.9246 0.0
C684 C 0.51972 0.93995 0.93402 0.0
C685 C 0.60436 0.00455 0.93297 0.0
N686 N 0.47855 0.05574 0.92801 0.0
N687 N 0.56225 0.01973 0.93503 0.0
H688 H 0.86739 0.55554 0.09685 0.0
H689 H 0.05314 0.4081 0.0448 0.0
H690 H 0.99803 0.62782 0.06675 0.0
H691 H 0.9831 0.37366 0.10893 0.0
H692 H 0.01926 0.48172 0.0436 0.0
H693 H 0.89444 0.47937 0.09128 0.0
C694 C 0.90114 0.5552 0.08854 0.0
C695 C 0.93074 0.59776 0.08235 0.0
C696 C 0.01138 0.45768 0.05781 0.0
C697 C 0.96142 0.51148 0.07584 0.0
C698 C 0.03068 0.41598 0.05854 0.0
C699 C 0.02135 0.38515 0.0771 0.0
C700 C 0.98139 0.46738 0.07536 0.0
C701 C 0.99176 0.39672 0.09443 0.0
C702 C 0.91664 0.51196 0.08554 0.0
C703 C 0.97442 0.59559 0.07187 0.0
N704 N 0.97254 0.4367 0.09305 0.0
N705 N 0.98859 0.55307 0.06896 0.0
H706 H 0.40056 0.37329 0.37008 0.0
H707 H 0.60815 0.6001 0.35676 0.0
H708 H 0.37541 0.51524 0.35733 0.0
H709 H 0.62266 0.46935 0.39054 0.0
H710 H 0.52617 0.56423 0.3468 0.0
H711 H 0.48621 0.40265 0.36625 0.0
C712 C 0.41297 0.41033 0.36593 0.0
C713 C 0.38112 0.44219 0.36457 0.0
C714 C 0.54782 0.54335 0.35609 0.0
C715 C 0.47843 0.47598 0.36034 0.0
C716 C 0.59448 0.56379 0.36182 0.0
C717 C 0.62241 0.53789 0.37462 0.0
C718 C 0.52933 0.49662 0.36302 0.0
C719 C 0.60277 0.49087 0.38066 0.0
C720 C 0.46177 0.42716 0.36391 0.0
C721 C 0.39897 0.48985 0.35912 0.0
N722 N 0.5575 0.47191 0.37489 0.0
N723 N 0.44651 0.5055 0.35747 0.0
H724 H 0.37695 0.06125 0.58361 0.0
H725 H 0.60241 0.93131 0.57598 0.0
H726 H 0.52117 0.13416 0.57327 0.0
H727 H 0.45871 0.85774 0.5873 0.0
H728 H 0.57171 0.00488 0.56963 0.0
H729 H 0.40438 0.98508 0.57951 0.0
C730 C 0.41416 0.06125 0.58011 0.0
C731 C 0.44691 0.10403 0.57913 0.0
C732 C 0.54686 0.97249 0.57328 0.0
C733 C 0.47862 0.01737 0.57464 0.0
C734 C 0.56442 0.93047 0.57686 0.0
C735 C 0.53321 0.88843 0.58245 0.0
C736 C 0.49778 0.97244 0.57538 0.0
C737 C 0.48423 0.88944 0.58332 0.0
C738 C 0.42989 0.01782 0.57788 0.0
C739 C 0.49477 0.102 0.57456 0.0
N740 N 0.46811 0.93081 0.58004 0.0
N741 N 0.50922 0.05947 0.57271 0.0
H742 H 0.89624 0.8879 0.8598 0.0
H743 H 0.10239 0.11797 0.86111 0.0
H744 H 0.87884 0.02737 0.88263 0.0
H745 H 0.12892 0.9744 0.86684 0.0
H746 H 0.01753 0.08593 0.85642 0.0
H747 H 0.97966 0.9206 0.85071 0.0
C748 C 0.90954 0.9254 0.86253 0.0
C749 C 0.88039 0.95483 0.87209 0.0
C750 C 0.04224 0.06154 0.8583 0.0
C751 C 0.97494 0.99234 0.8614 0.0
C752 C 0.09063 0.07978 0.86088 0.0
C753 C 0.1227 0.04885 0.8648 0.0
C754 C 0.02611 0.01214 0.8594 0.0
C755 C 0.10543 -0.0004 0.86426 0.0
C756 C 0.95701 0.94398 0.85734 0.0
C757 C 0.89962 0.0032 0.87529 0.0
N758 N 0.05825 0.98275 0.86187 0.0
N759 N 0.94558 0.02033 0.87002 0.0
loop_
_geom_bond_atom_site_label_1
_geom_bond_atom_site_label_2
_geom_bond_distance
_geom_bond_site_symmetry_2
_ccdc_geom_bond_type
Co0 O2 2.143 . S
Co0 O8 2.074 . S
Co0 O11 2.093 . S
Co0 O24 2.097 . S
Co0 N41 2.151 . S
Co0 N49 2.214 . S
Co1 O2 2.160 . S
Co1 O7 2.058 . S
Co1 O17 2.057 . S
Co1 O32 2.037 . S
Co1 N36 2.145 . S
Co1 N57 2.257 . S
O2 Co0 2.143 . S
O2 Co1 2.160 . S
C3 O4 1.278 . S
C3 O11 1.224 . S
O4 C3 1.278 . S
C5 O6 1.245 . S
C5 O17 1.232 . S
O6 C5 1.245 . S
O7 Co1 2.058 . S
O7 C33 1.269 . S
O8 Co0 2.074 . S
O8 C33 1.257 . S
H9 C34 0.930 . S
H10 C40 0.930 . S
O11 Co0 2.093 . S
O11 C3 1.224 . S
H12 C44 0.929 . S
H13 C46 0.930 . S
H14 C47 0.930 . S
H15 C45 0.929 . S
H16 C48 0.928 . S
O17 Co1 2.057 . S
O17 C5 1.232 . S
H18 C37 0.929 . S
H19 C38 0.929 . S
H20 C50 0.931 . S
H21 C42 0.929 . S
H22 C51 0.930 . S
H23 C43 0.931 . S
O24 Co0 2.097 . S
O24 C52 1.214 . S
H25 C53 0.929 . S
H26 C54 0.929 . S
H27 C55 0.930 . S
H28 C56 0.929 . S
H29 C58 0.930 . S
H30 C35 0.930 . S
H31 C39 0.930 . S
O32 Co1 2.037 . S
O32 C52 1.234 . S
C33 O7 1.269 . S
C33 O8 1.257 . S
C34 H9 0.930 . S
C34 C37 1.388 1_655 S
C34 C39 1.418 . S
C35 H30 0.930 . S
C35 C38 1.404 . S
C35 C39 1.353 . S
N36 Co1 2.145 . S
N36 C37 1.397 . S
N36 C38 1.334 1_455 S
C37 H18 0.929 . S
C37 C34 1.388 1_455 S
C37 N36 1.397 . S
C38 H19 0.929 . S
C38 C35 1.404 . S
C38 N36 1.334 1_655 S
C39 H31 0.930 . S
C39 C34 1.418 . S
C39 C35 1.353 . S
C40 H10 0.930 . S
C40 N41 1.330 . S
C40 C42 1.446 . S
N41 Co0 2.151 . S
N41 C40 1.330 . S
N41 C45 1.418 . S
C42 H21 0.929 . S
C42 C40 1.446 . S
C42 C43 1.332 . S
C43 H23 0.931 . S
C43 C42 1.332 . S
C43 C44 1.267 . S
C44 H12 0.929 . S
C44 C43 1.267 . S
C44 C45 1.251 . S
C45 H15 0.929 . S
C45 N41 1.418 . S
C45 C44 1.251 . S
C46 H13 0.930 . S
C46 C48 1.406 . S
C46 C51 1.261 . S
C47 H14 0.930 . S
C47 N49 1.325 . S
C47 C50 1.357 . S
C48 H16 0.928 . S
C48 C46 1.406 . S
C48 N49 1.261 . S
N49 Co0 2.214 . S
N49 C47 1.325 . S
N49 C48 1.261 . S
C50 H20 0.931 . S
C50 C47 1.357 . S
C50 C51 1.312 . S
C51 H22 0.930 . S
C51 C46 1.261 . S
C51 C50 1.312 . S
C52 O24 1.214 . S
C52 O32 1.234 . S
C53 H25 0.929 . S
C53 C56 1.391 1_455 S
C53 C58 1.391 . S
C54 H26 0.929 . S
C54 C55 1.390 . S
C54 N57 1.391 1_655 S
C55 H27 0.930 . S
C55 C54 1.390 . S
C55 C56 1.392 . S
C56 H28 0.929 . S
C56 C53 1.391 1_655 S
C56 C55 1.392 . S
N57 Co1 2.257 . S
N57 C54 1.391 1_455 S
N57 C58 1.388 . S
C58 H29 0.930 . S
C58 C53 1.391 . S
C58 N57 1.388 . S
Co59 O61 2.143 . S
Co59 O67 2.074 . S
Co59 O70 2.093 . S
Co59 O83 2.097 . S
Co59 N100 2.151 . S
Co59 N108 2.214 . S
Co60 O61 2.160 . S
Co60 O66 2.058 . S
Co60 O76 2.057 . S
Co60 O91 2.037 . S
Co60 N95 2.145 . S
Co60 N116 2.257 . S
O61 Co59 2.143 . S
O61 Co60 2.160 . S
C62 O63 1.278 . S
C62 O70 1.224 . S
O63 C62 1.278 . S
C64 O65 1.245 . S
C64 O76 1.232 . S
O65 C64 1.245 . S
O66 Co60 2.058 . S
O66 C92 1.269 . S
O67 Co59 2.074 . S
O67 C92 1.257 . S
H68 C93 0.930 . S
H69 C99 0.930 . S
O70 Co59 2.093 . S
O70 C62 1.224 . S
H71 C103 0.929 . S
H72 C105 0.930 . S
H73 C106 0.930 . S
H74 C104 0.929 . S
H75 C107 0.928 . S
O76 Co60 2.057 . S
O76 C64 1.232 . S
H77 C96 0.929 . S
H78 C97 0.929 . S
H79 C109 0.931 . S
H80 C101 0.929 . S
H81 C110 0.930 . S
H82 C102 0.931 . S
O83 Co59 2.097 . S
O83 C111 1.214 . S
H84 C112 0.929 . S
H85 C113 0.929 . S
H86 C114 0.930 . S
H87 C115 0.929 . S
H88 C117 0.930 . S
H89 C94 0.930 . S
H90 C98 0.930 . S
O91 Co60 2.037 . S
O91 C111 1.234 . S
C92 O66 1.269 . S
C92 O67 1.257 . S
C93 H68 0.930 . S
C93 C96 1.388 . S
C93 C98 1.418 . S
C94 H89 0.930 . S
C94 C97 1.404 . S
C94 C98 1.353 . S
N95 Co60 2.145 . S
N95 C96 1.397 . S
N95 C97 1.334 . S
C96 H77 0.929 . S
C96 C93 1.388 . S
C96 N95 1.397 . S
C97 H78 0.929 . S
C97 C94 1.404 . S
C97 N95 1.334 . S
C98 H90 0.930 . S
C98 C93 1.418 . S
C98 C94 1.353 . S
C99 H69 0.930 . S
C99 N100 1.330 . S
C99 C101 1.446 . S
N100 Co59 2.151 . S
N100 C99 1.330 . S
N100 C104 1.418 . S
C101 H80 0.929 . S
C101 C99 1.446 . S
C101 C102 1.332 . S
C102 H82 0.931 . S
C102 C101 1.332 . S
C102 C103 1.267 . S
C103 H71 0.929 . S
C103 C102 1.267 . S
C103 C104 1.251 . S
C104 H74 0.929 . S
C104 N100 1.418 . S
C104 C103 1.251 . S
C105 H72 0.930 . S
C105 C107 1.406 . S
C105 C110 1.261 . S
C106 H73 0.930 . S
C106 N108 1.325 . S
C106 C109 1.357 . S
C107 H75 0.928 . S
C107 C105 1.406 . S
C107 N108 1.261 . S
N108 Co59 2.214 . S
N108 C106 1.325 . S
N108 C107 1.261 . S
C109 H79 0.931 . S
C109 C106 1.357 . S
C109 C110 1.312 . S
C110 H81 0.930 . S
C110 C105 1.261 . S
C110 C109 1.312 . S
C111 O83 1.214 . S
C111 O91 1.234 . S
C112 H84 0.929 . S
C112 C115 1.391 . S
C112 C117 1.391 . S
C113 H85 0.929 . S
C113 C114 1.390 . S
C113 N116 1.391 . S
C114 H86 0.930 . S
C114 C113 1.390 . S
C114 C115 1.392 . S
C115 H87 0.929 . S
C115 C112 1.391 . S
C115 C114 1.392 . S
N116 Co60 2.257 . S
N116 C113 1.391 . S
N116 C117 1.388 . S
C117 H88 0.930 . S
C117 C112 1.391 . S
C117 N116 1.388 . S
Co118 O120 2.143 . S
Co118 O126 2.074 . S
Co118 O129 2.093 . S
Co118 O142 2.097 . S
Co118 N159 2.151 . S
Co118 N167 2.214 . S
Co119 O120 2.160 . S
Co119 O125 2.058 . S
Co119 O135 2.057 . S
Co119 O150 2.037 . S
Co119 N154 2.145 . S
Co119 N175 2.257 . S
O120 Co118 2.143 . S
O120 Co119 2.160 . S
C121 O122 1.278 . S
C121 O129 1.224 . S
O122 C121 1.278 . S
C123 O124 1.245 . S
C123 O135 1.232 . S
O124 C123 1.245 . S
O125 Co119 2.058 . S
O125 C151 1.269 . S
O126 Co118 2.074 . S
O126 C151 1.257 . S
H127 C152 0.930 . S
H128 C158 0.930 . S
O129 Co118 2.093 . S
O129 C121 1.224 . S
H130 C162 0.929 . S
H131 C164 0.930 . S
H132 C165 0.930 . S
H133 C163 0.929 . S
H134 C166 0.928 . S
O135 Co119 2.057 . S
O135 C123 1.232 . S
H136 C155 0.929 . S
H137 C156 0.929 . S
H138 C168 0.931 . S
H139 C160 0.929 . S
H140 C169 0.930 . S
H141 C161 0.931 . S
O142 Co118 2.097 . S
O142 C170 1.214 . S
H143 C171 0.929 . S
H144 C172 0.929 . S
H145 C173 0.930 . S
H146 C174 0.929 . S
H147 C176 0.930 . S
H148 C153 0.930 . S
H149 C157 0.930 . S
O150 Co119 2.037 . S
O150 C170 1.234 . S
C151 O125 1.269 . S
C151 O126 1.257 . S
C152 H127 0.930 . S
C152 C155 1.388 . S
C152 C157 1.418 . S
C153 H148 0.930 . S
C153 C156 1.404 . S
C153 C157 1.353 . S
N154 Co119 2.145 . S
N154 C155 1.397 . S
N154 C156 1.334 . S
C155 H136 0.929 . S
C155 C152 1.388 . S
C155 N154 1.397 . S
C156 H137 0.929 . S
C156 C153 1.404 . S
C156 N154 1.334 . S
C157 H149 0.930 . S
C157 C152 1.418 . S
C157 C153 1.353 . S
C158 H128 0.930 . S
C158 N159 1.330 . S
C158 C160 1.446 . S
N159 Co118 2.151 . S
N159 C158 1.330 . S
N159 C163 1.418 . S
C160 H139 0.929 . S
C160 C158 1.446 . S
C160 C161 1.332 . S
C161 H141 0.931 . S
C161 C160 1.332 . S
C161 C162 1.267 . S
C162 H130 0.929 . S
C162 C161 1.267 . S
C162 C163 1.251 . S
C163 H133 0.929 . S
C163 N159 1.418 . S
C163 C162 1.251 . S
C164 H131 0.930 . S
C164 C166 1.406 . S
C164 C169 1.261 . S
C165 H132 0.930 . S
C165 N167 1.325 . S
C165 C168 1.357 . S
C166 H134 0.928 . S
C166 C164 1.406 . S
C166 N167 1.261 . S
N167 Co118 2.214 . S
N167 C165 1.325 . S
N167 C166 1.261 . S
C168 H138 0.931 . S
C168 C165 1.357 . S
C168 C169 1.312 . S
C169 H140 0.930 . S
C169 C164 1.261 . S
C169 C168 1.312 . S
C170 O142 1.214 . S
C170 O150 1.234 . S
C171 H143 0.929 . S
C171 C174 1.391 . S
C171 C176 1.391 . S
C172 H144 0.929 . S
C172 C173 1.390 . S
C172 N175 1.391 . S
C173 H145 0.930 . S
C173 C172 1.390 . S
C173 C174 1.392 . S
C174 H146 0.929 . S
C174 C171 1.391 . S
C174 C173 1.392 . S
N175 Co119 2.257 . S
N175 C172 1.391 . S
N175 C176 1.388 . S
C176 H147 0.930 . S
C176 C171 1.391 . S
C176 N175 1.388 . S
Co177 O179 2.143 . S
Co177 O185 2.074 . S
Co177 O188 2.093 . S
Co177 O201 2.097 . S
Co177 N218 2.151 . S
Co177 N226 2.214 . S
Co178 O179 2.160 . S
Co178 O184 2.058 . S
Co178 O194 2.057 . S
Co178 O209 2.037 . S
Co178 N213 2.145 . S
Co178 N234 2.257 . S
O179 Co177 2.143 . S
O179 Co178 2.160 . S
C180 O181 1.278 . S
C180 O188 1.224 . S
O181 C180 1.278 . S
C182 O183 1.245 . S
C182 O194 1.232 . S
O183 C182 1.245 . S
O184 Co178 2.058 . S
O184 C210 1.269 . S
O185 Co177 2.074 . S
O185 C210 1.257 . S
H186 C211 0.930 . S
H187 C217 0.930 . S
O188 Co177 2.093 . S
O188 C180 1.224 . S
H189 C221 0.929 . S
H190 C223 0.930 . S
H191 C224 0.930 . S
H192 C222 0.929 . S
H193 C225 0.928 . S
O194 Co178 2.057 . S
O194 C182 1.232 . S
H195 C214 0.929 . S
H196 C215 0.929 . S
H197 C227 0.931 . S
H198 C219 0.929 . S
H199 C228 0.930 . S
H200 C220 0.931 . S
O201 Co177 2.097 . S
O201 C229 1.214 . S
H202 C230 0.929 . S
H203 C231 0.929 . S
H204 C232 0.930 . S
H205 C233 0.929 . S
H206 C235 0.930 . S
H207 C212 0.930 . S
H208 C216 0.930 . S
O209 Co178 2.037 . S
O209 C229 1.234 . S
C210 O184 1.269 . S
C210 O185 1.257 . S
C211 H186 0.930 . S
C211 C214 1.388 1_545 S
C211 C216 1.418 . S
C212 H207 0.930 . S
C212 C215 1.404 . S
C212 C216 1.353 . S
N213 Co178 2.145 . S
N213 C214 1.397 . S
N213 C215 1.334 1_565 S
C214 H195 0.929 . S
C214 C211 1.388 1_565 S
C214 N213 1.397 . S
C215 H196 0.929 . S
C215 C212 1.404 . S
C215 N213 1.334 1_545 S
C216 H208 0.930 . S
C216 C211 1.418 . S
C216 C212 1.353 . S
C217 H187 0.930 . S
C217 N218 1.330 . S
C217 C219 1.446 . S
N218 Co177 2.151 . S
N218 C217 1.330 . S
N218 C222 1.418 . S
C219 H198 0.929 . S
C219 C217 1.446 . S
C219 C220 1.332 . S
C220 H200 0.931 . S
C220 C219 1.332 . S
C220 C221 1.267 . S
C221 H189 0.929 . S
C221 C220 1.267 . S
C221 C222 1.251 . S
C222 H192 0.929 . S
C222 N218 1.418 . S
C222 C221 1.251 . S
C223 H190 0.930 . S
C223 C225 1.406 . S
C223 C228 1.261 . S
C224 H191 0.930 . S
C224 N226 1.325 . S
C224 C227 1.357 . S
C225 H193 0.928 . S
C225 C223 1.406 . S
C225 N226 1.261 . S
N226 Co177 2.214 . S
N226 C224 1.325 . S
N226 C225 1.261 . S
C227 H197 0.931 . S
C227 C224 1.357 . S
C227 C228 1.312 . S
C228 H199 0.930 . S
C228 C223 1.261 . S
C228 C227 1.312 . S
C229 O201 1.214 . S
C229 O209 1.234 . S
C230 H202 0.929 . S
C230 C233 1.391 1_565 S
C230 C235 1.391 . S
C231 H203 0.929 . S
C231 C232 1.390 . S
C231 N234 1.391 1_545 S
C232 H204 0.930 . S
C232 C231 1.390 . S
C232 C233 1.392 . S
C233 H205 0.929 . S
C233 C230 1.391 1_545 S
C233 C232 1.392 . S
N234 Co178 2.257 . S
N234 C231 1.391 1_565 S
N234 C235 1.388 . S
C235 H206 0.930 . S
C235 C230 1.391 . S
C235 N234 1.388 . S
Co236 O238 2.143 . S
Co236 O244 2.074 . S
Co236 O247 2.093 . S
Co236 O260 2.097 . S
Co236 N277 2.151 . S
Co236 N285 2.214 . S
Co237 O238 2.160 . S
Co237 O243 2.058 . S
Co237 O253 2.057 . S
Co237 O268 2.037 . S
Co237 N272 2.145 . S
Co237 N293 2.257 . S
O238 Co236 2.143 . S
O238 Co237 2.160 . S
C239 O240 1.278 . S
C239 O247 1.224 . S
O240 C239 1.278 . S
C241 O242 1.245 . S
C241 O253 1.232 . S
O242 C241 1.245 . S
O243 Co237 2.058 . S
O243 C269 1.269 . S
O244 Co236 2.074 . S
O244 C269 1.257 . S
H245 C270 0.930 . S
H246 C276 0.930 . S
O247 Co236 2.093 . S
O247 C239 1.224 . S
H248 C280 0.929 . S
H249 C282 0.930 . S
H250 C283 0.930 . S
H251 C281 0.929 . S
H252 C284 0.928 . S
O253 Co237 2.057 . S
O253 C241 1.232 . S
H254 C273 0.929 . S
H255 C274 0.929 . S
H256 C286 0.931 . S
H257 C278 0.929 . S
H258 C287 0.930 . S
H259 C279 0.931 . S
O260 Co236 2.097 . S
O260 C288 1.214 . S
H261 C289 0.929 . S
H262 C290 0.929 . S
H263 C291 0.930 . S
H264 C292 0.929 . S
H265 C294 0.930 . S
H266 C271 0.930 . S
H267 C275 0.930 . S
O268 Co237 2.037 . S
O268 C288 1.234 . S
C269 O243 1.269 . S
C269 O244 1.257 . S
C270 H245 0.930 . S
C270 C273 1.388 . S
C270 C275 1.418 . S
C271 H266 0.930 . S
C271 C274 1.404 . S
C271 C275 1.353 . S
N272 Co237 2.145 . S
N272 C273 1.397 . S
N272 C274 1.334 . S
C273 H254 0.929 . S
C273 C270 1.388 . S
C273 N272 1.397 . S
C274 H255 0.929 . S
C274 C271 1.404 . S
C274 N272 1.334 . S
C275 H267 0.930 . S
C275 C270 1.418 . S
C275 C271 1.353 . S
C276 H246 0.930 . S
C276 N277 1.330 . S
C276 C278 1.446 . S
N277 Co236 2.151 . S
N277 C276 1.330 . S
N277 C281 1.418 . S
C278 H257 0.929 . S
C278 C276 1.446 . S
C278 C279 1.332 . S
C279 H259 0.931 . S
C279 C278 1.332 . S
C279 C280 1.267 . S
C280 H248 0.929 . S
C280 C279 1.267 . S
C280 C281 1.251 . S
C281 H251 0.929 . S
C281 N277 1.418 . S
C281 C280 1.251 . S
C282 H249 0.930 . S
C282 C284 1.406 . S
C282 C287 1.261 . S
C283 H250 0.930 . S
C283 N285 1.325 . S
C283 C286 1.357 . S
C284 H252 0.928 . S
C284 C282 1.406 . S
C284 N285 1.261 . S
N285 Co236 2.214 . S
N285 C283 1.325 . S
N285 C284 1.261 . S
C286 H256 0.931 . S
C286 C283 1.357 . S
C286 C287 1.312 . S
C287 H258 0.930 . S
C287 C282 1.261 . S
C287 C286 1.312 . S
C288 O260 1.214 . S
C288 O268 1.234 . S
C289 H261 0.929 . S
C289 C292 1.391 . S
C289 C294 1.391 . S
C290 H262 0.929 . S
C290 C291 1.390 . S
C290 N293 1.391 . S
C291 H263 0.930 . S
C291 C290 1.390 . S
C291 C292 1.392 . S
C292 H264 0.929 . S
C292 C289 1.391 . S
C292 C291 1.392 . S
N293 Co237 2.257 . S
N293 C290 1.391 . S
N293 C294 1.388 . S
C294 H265 0.930 . S
C294 C289 1.391 . S
C294 N293 1.388 . S
Co295 O297 2.143 . S
Co295 O303 2.074 . S
Co295 O306 2.093 . S
Co295 O319 2.097 . S
Co295 N336 2.151 . S
Co295 N344 2.214 . S
Co296 O297 2.160 . S
Co296 O302 2.058 . S
Co296 O312 2.057 . S
Co296 O327 2.037 . S
Co296 N331 2.145 . S
Co296 N352 2.257 . S
O297 Co295 2.143 . S
O297 Co296 2.160 . S
C298 O299 1.278 . S
C298 O306 1.224 . S
O299 C298 1.278 . S
C300 O301 1.245 . S
C300 O312 1.232 . S
O301 C300 1.245 . S
O302 Co296 2.058 . S
O302 C328 1.269 . S
O303 Co295 2.074 . S
O303 C328 1.257 . S
H304 C329 0.930 . S
H305 C335 0.930 . S
O306 Co295 2.093 . S
O306 C298 1.224 . S
H307 C339 0.929 . S
H308 C341 0.930 . S
H309 C342 0.930 . S
H310 C340 0.929 . S
H311 C343 0.928 . S
O312 Co296 2.057 . S
O312 C300 1.232 . S
H313 C332 0.929 . S
H314 C333 0.929 . S
H315 C345 0.931 . S
H316 C337 0.929 . S
H317 C346 0.930 . S
H318 C338 0.931 . S
O319 Co295 2.097 . S
O319 C347 1.214 . S
H320 C348 0.929 . S
H321 C349 0.929 . S
H322 C350 0.930 . S
H323 C351 0.929 . S
H324 C353 0.930 . S
H325 C330 0.930 . S
H326 C334 0.930 . S
O327 Co296 2.037 . S
O327 C347 1.234 . S
C328 O302 1.269 . S
C328 O303 1.257 . S
C329 H304 0.930 . S
C329 C332 1.388 1_565 S
C329 C334 1.418 . S
C330 H325 0.930 . S
C330 C333 1.404 . S
C330 C334 1.353 . S
N331 Co296 2.145 . S
N331 C332 1.397 . S
N331 C333 1.334 1_545 S
C332 H313 0.929 . S
C332 C329 1.388 1_545 S
C332 N331 1.397 . S
C333 H314 0.929 . S
C333 C330 1.404 . S
C333 N331 1.334 1_565 S
C334 H326 0.930 . S
C334 C329 1.418 . S
C334 C330 1.353 . S
C335 H305 0.930 . S
C335 N336 1.330 . S
C335 C337 1.446 . S
N336 Co295 2.151 . S
N336 C335 1.330 . S
N336 C340 1.418 . S
C337 H316 0.929 . S
C337 C335 1.446 . S
C337 C338 1.332 . S
C338 H318 0.931 . S
C338 C337 1.332 . S
C338 C339 1.267 . S
C339 H307 0.929 . S
C339 C338 1.267 . S
C339 C340 1.251 . S
C340 H310 0.929 . S
C340 N336 1.418 . S
C340 C339 1.251 . S
C341 H308 0.930 . S
C341 C343 1.406 . S
C341 C346 1.261 . S
C342 H309 0.930 . S
C342 N344 1.325 . S
C342 C345 1.357 . S
C343 H311 0.928 . S
C343 C341 1.406 . S
C343 N344 1.261 . S
N344 Co295 2.214 . S
N344 C342 1.325 . S
N344 C343 1.261 . S
C345 H315 0.931 . S
C345 C342 1.357 . S
C345 C346 1.312 . S
C346 H317 0.930 . S
C346 C341 1.261 . S
C346 C345 1.312 . S
C347 O319 1.214 . S
C347 O327 1.234 . S
C348 H320 0.929 . S
C348 C351 1.391 1_545 S
C348 C353 1.391 . S
C349 H321 0.929 . S
C349 C350 1.390 . S
C349 N352 1.391 1_565 S
C350 H322 0.930 . S
C350 C349 1.390 . S
C350 C351 1.392 . S
C351 H323 0.929 . S
C351 C348 1.391 1_565 S
C351 C350 1.392 . S
N352 Co296 2.257 . S
N352 C349 1.391 1_545 S
N352 C353 1.388 . S
C353 H324 0.930 . S
C353 C348 1.391 . S
C353 N352 1.388 . S
Co354 O356 2.143 . S
Co354 O362 2.074 . S
Co354 O365 2.093 . S
Co354 O378 2.097 . S
Co354 N395 2.151 . S
Co354 N403 2.214 . S
Co355 O356 2.160 . S
Co355 O361 2.058 . S
Co355 O371 2.057 . S
Co355 O386 2.037 . S
Co355 N390 2.145 . S
Co355 N411 2.257 . S
O356 Co354 2.143 . S
O356 Co355 2.160 . S
C357 O358 1.278 . S
C357 O365 1.224 . S
O358 C357 1.278 . S
C359 O360 1.245 . S
C359 O371 1.232 . S
O360 C359 1.245 . S
O361 Co355 2.058 . S
O361 C387 1.269 . S
O362 Co354 2.074 . S
O362 C387 1.257 . S
H363 C388 0.930 . S
H364 C394 0.930 . S
O365 Co354 2.093 . S
O365 C357 1.224 . S
H366 C398 0.929 . S
H367 C400 0.930 . S
H368 C401 0.930 . S
H369 C399 0.929 . S
H370 C402 0.928 . S
O371 Co355 2.057 . S
O371 C359 1.232 . S
H372 C391 0.929 . S
H373 C392 0.929 . S
H374 C404 0.931 . S
H375 C396 0.929 . S
H376 C405 0.930 . S
H377 C397 0.931 . S
O378 Co354 2.097 . S
O378 C406 1.214 . S
H379 C407 0.929 . S
H380 C408 0.929 . S
H381 C409 0.930 . S
H382 C410 0.929 . S
H383 C412 0.930 . S
H384 C389 0.930 . S
H385 C393 0.930 . S
O386 Co355 2.037 . S
O386 C406 1.234 . S
C387 O361 1.269 . S
C387 O362 1.257 . S
C388 H363 0.930 . S
C388 C391 1.388 1_455 S
C388 C393 1.418 . S
C389 H384 0.930 . S
C389 C392 1.404 . S
C389 C393 1.353 . S
N390 Co355 2.145 . S
N390 C391 1.397 . S
N390 C392 1.334 1_655 S
C391 H372 0.929 . S
C391 C388 1.388 1_655 S
C391 N390 1.397 . S
C392 H373 0.929 . S
C392 C389 1.404 . S
C392 N390 1.334 1_455 S
C393 H385 0.930 . S
C393 C388 1.418 . S
C393 C389 1.353 . S
C394 H364 0.930 . S
C394 N395 1.330 . S
C394 C396 1.446 . S
N395 Co354 2.151 . S
N395 C394 1.330 . S
N395 C399 1.418 . S
C396 H375 0.929 . S
C396 C394 1.446 . S
C396 C397 1.332 . S
C397 H377 0.931 . S
C397 C396 1.332 . S
C397 C398 1.267 . S
C398 H366 0.929 . S
C398 C397 1.267 . S
C398 C399 1.251 . S
C399 H369 0.929 . S
C399 N395 1.418 . S
C399 C398 1.251 . S
C400 H367 0.930 . S
C400 C402 1.406 . S
C400 C405 1.261 . S
C401 H368 0.930 . S
C401 N403 1.325 . S
C401 C404 1.357 . S
C402 H370 0.928 . S
C402 C400 1.406 . S
C402 N403 1.261 . S
N403 Co354 2.214 . S
N403 C401 1.325 . S
N403 C402 1.261 . S
C404 H374 0.931 . S
C404 C401 1.357 . S
C404 C405 1.312 . S
C405 H376 0.930 . S
C405 C400 1.261 . S
C405 C404 1.312 . S
C406 O378 1.214 . S
C406 O386 1.234 . S
C407 H379 0.929 . S
C407 C410 1.391 1_655 S
C407 C412 1.391 . S
C408 H380 0.929 . S
C408 C409 1.390 . S
C408 N411 1.391 1_455 S
C409 H381 0.930 . S
C409 C408 1.390 . S
C409 C410 1.392 . S
C410 H382 0.929 . S
C410 C407 1.391 1_455 S
C410 C409 1.392 . S
N411 Co355 2.257 . S
N411 C408 1.391 1_655 S
N411 C412 1.388 . S
C412 H383 0.930 . S
C412 C407 1.391 . S
C412 N411 1.388 . S
Co413 O415 2.143 . S
Co413 O421 2.074 . S
Co413 O424 2.093 . S
Co413 O437 2.097 . S
Co413 N454 2.151 . S
Co413 N462 2.214 . S
Co414 O415 2.160 . S
Co414 O420 2.058 . S
Co414 O430 2.057 . S
Co414 O445 2.037 . S
Co414 N449 2.145 . S
Co414 N470 2.257 . S
O415 Co413 2.143 . S
O415 Co414 2.160 . S
C416 O417 1.278 . S
C416 O424 1.224 . S
O417 C416 1.278 . S
C418 O419 1.245 . S
C418 O430 1.232 . S
O419 C418 1.245 . S
O420 Co414 2.058 . S
O420 C446 1.269 . S
O421 Co413 2.074 . S
O421 C446 1.257 . S
H422 C447 0.930 . S
H423 C453 0.930 . S
O424 Co413 2.093 . S
O424 C416 1.224 . S
H425 C457 0.929 . S
H426 C459 0.930 . S
H427 C460 0.930 . S
H428 C458 0.929 . S
H429 C461 0.928 . S
O430 Co414 2.057 . S
O430 C418 1.232 . S
H431 C450 0.929 . S
H432 C451 0.929 . S
H433 C463 0.931 . S
H434 C455 0.929 . S
H435 C464 0.930 . S
H436 C456 0.931 . S
O437 Co413 2.097 . S
O437 C465 1.214 . S
H438 C466 0.929 . S
H439 C467 0.929 . S
H440 C468 0.930 . S
H441 C469 0.929 . S
H442 C471 0.930 . S
H443 C448 0.930 . S
H444 C452 0.930 . S
O445 Co414 2.037 . S
O445 C465 1.234 . S
C446 O420 1.269 . S
C446 O421 1.257 . S
C447 H422 0.930 . S
C447 C450 1.388 . S
C447 C452 1.418 . S
C448 H443 0.930 . S
C448 C451 1.404 . S
C448 C452 1.353 . S
N449 Co414 2.145 . S
N449 C450 1.397 . S
N449 C451 1.334 . S
C450 H431 0.929 . S
C450 C447 1.388 . S
C450 N449 1.397 . S
C451 H432 0.929 . S
C451 C448 1.404 . S
C451 N449 1.334 . S
C452 H444 0.930 . S
C452 C447 1.418 . S
C452 C448 1.353 . S
C453 H423 0.930 . S
C453 N454 1.330 . S
C453 C455 1.446 . S
N454 Co413 2.151 . S
N454 C453 1.330 . S
N454 C458 1.418 . S
C455 H434 0.929 . S
C455 C453 1.446 . S
C455 C456 1.332 . S
C456 H436 0.931 . S
C456 C455 1.332 . S
C456 C457 1.267 . S
C457 H425 0.929 . S
C457 C456 1.267 . S
C457 C458 1.251 . S
C458 H428 0.929 . S
C458 N454 1.418 . S
C458 C457 1.251 . S
C459 H426 0.930 . S
C459 C461 1.406 . S
C459 C464 1.261 . S
C460 H427 0.930 . S
C460 N462 1.325 . S
C460 C463 1.357 . S
C461 H429 0.928 . S
C461 C459 1.406 . S
C461 N462 1.261 . S
N462 Co413 2.214 . S
N462 C460 1.325 . S
N462 C461 1.261 . S
C463 H433 0.931 . S
C463 C460 1.357 . S
C463 C464 1.312 . S
C464 H435 0.930 . S
C464 C459 1.261 . S
C464 C463 1.312 . S
C465 O437 1.214 . S
C465 O445 1.234 . S
C466 H438 0.929 . S
C466 C469 1.391 . S
C466 C471 1.391 . S
C467 H439 0.929 . S
C467 C468 1.390 . S
C467 N470 1.391 . S
C468 H440 0.930 . S
C468 C467 1.390 . S
C468 C469 1.392 . S
C469 H441 0.929 . S
C469 C466 1.391 . S
C469 C468 1.392 . S
N470 Co414 2.257 . S
N470 C467 1.391 . S
N470 C471 1.388 . S
C471 H442 0.930 . S
C471 C466 1.391 . S
C471 N470 1.388 . S
H472 C478 0.930 . S
H473 C482 0.930 . S
H474 C487 0.929 . S
H475 C485 0.929 . S
H476 C480 0.929 . S
H477 C486 0.929 . S
C478 H472 0.930 . S
C478 C479 1.367 . S
C478 C486 1.378 . S
C479 C478 1.367 . S
C479 C487 1.433 . S
C480 H476 0.929 . S
C480 C482 1.378 . S
C480 C484 1.350 . S
C481 C484 1.463 1_554 S
C481 C486 1.350 . S
C481 N489 1.427 . S
C482 H473 0.930 . S
C482 C480 1.378 . S
C482 C483 1.367 . S
C483 C482 1.367 . S
C483 C485 1.433 . S
C484 C480 1.350 . S
C484 C481 1.463 1_556 S
C484 N488 1.427 . S
C485 H475 0.929 . S
C485 C483 1.433 . S
C485 N488 1.384 . S
C486 H477 0.929 . S
C486 C478 1.378 . S
C486 C481 1.350 . S
C487 H474 0.929 . S
C487 C479 1.433 . S
C487 N489 1.384 . S
N488 C484 1.427 . S
N488 C485 1.384 . S
N489 C481 1.427 . S
N489 C487 1.384 . S
H490 C496 0.930 . S
H491 C500 0.930 . S
H492 C505 0.929 . S
H493 C503 0.929 . S
H494 C498 0.929 . S
H495 C504 0.929 . S
C496 H490 0.930 . S
C496 C497 1.367 . S
C496 C504 1.378 . S
C497 C496 1.367 . S
C497 C505 1.433 . S
C498 H494 0.929 . S
C498 C500 1.378 . S
C498 C502 1.350 . S
C499 C502 1.463 . S
C499 C504 1.350 . S
C499 N507 1.427 . S
C500 H491 0.930 . S
C500 C498 1.378 . S
C500 C501 1.367 . S
C501 C500 1.367 . S
C501 C503 1.433 . S
C502 C498 1.350 . S
C502 C499 1.463 . S
C502 N506 1.427 . S
C503 H493 0.929 . S
C503 C501 1.433 . S
C503 N506 1.384 . S
C504 H495 0.929 . S
C504 C496 1.378 . S
C504 C499 1.350 . S
C505 H492 0.929 . S
C505 C497 1.433 . S
C505 N507 1.384 . S
N506 C502 1.427 . S
N506 C503 1.384 . S
N507 C499 1.427 . S
N507 C505 1.384 . S
H508 C514 0.930 . S
H509 C518 0.930 . S
H510 C523 0.929 . S
H511 C521 0.929 . S
H512 C516 0.929 . S
H513 C522 0.929 . S
C514 H508 0.930 . S
C514 C515 1.367 . S
C514 C522 1.378 . S
C515 C514 1.367 . S
C515 C523 1.433 . S
C516 H512 0.929 . S
C516 C518 1.378 . S
C516 C520 1.350 . S
C517 C520 1.463 . S
C517 C522 1.350 . S
C517 N525 1.427 . S
C518 H509 0.930 . S
C518 C516 1.378 . S
C518 C519 1.367 . S
C519 C518 1.367 . S
C519 C521 1.433 . S
C520 C516 1.350 . S
C520 C517 1.463 . S
C520 N524 1.427 . S
C521 H511 0.929 . S
C521 C519 1.433 . S
C521 N524 1.384 . S
C522 H513 0.929 . S
C522 C514 1.378 . S
C522 C517 1.350 . S
C523 H510 0.929 . S
C523 C515 1.433 . S
C523 N525 1.384 . S
N524 C520 1.427 . S
N524 C521 1.384 . S
N525 C517 1.427 . S
N525 C523 1.384 . S
H526 C532 0.930 . S
H527 C536 0.930 . S
H528 C541 0.929 . S
H529 C539 0.929 . S
H530 C534 0.929 . S
H531 C540 0.929 . S
C532 H526 0.930 . S
C532 C533 1.367 . S
C532 C540 1.378 . S
C533 C532 1.367 . S
C533 C541 1.433 . S
C534 H530 0.929 . S
C534 C536 1.378 . S
C534 C538 1.350 . S
C535 C538 1.463 . S
C535 C540 1.350 . S
C535 N543 1.427 . S
C536 H527 0.930 . S
C536 C534 1.378 . S
C536 C537 1.367 . S
C537 C536 1.367 . S
C537 C539 1.433 . S
C538 C534 1.350 . S
C538 C535 1.463 . S
C538 N542 1.427 . S
C539 H529 0.929 . S
C539 C537 1.433 . S
C539 N542 1.384 . S
C540 H531 0.929 . S
C540 C532 1.378 . S
C540 C535 1.350 . S
C541 H528 0.929 . S
C541 C533 1.433 . S
C541 N543 1.384 . S
N542 C538 1.427 . S
N542 C539 1.384 . S
N543 C535 1.427 . S
N543 C541 1.384 . S
H544 C550 0.930 . S
H545 C554 0.930 . S
H546 C559 0.929 . S
H547 C557 0.929 . S
H548 C552 0.929 . S
H549 C558 0.929 . S
C550 H544 0.930 . S
C550 C551 1.367 . S
C550 C558 1.378 . S
C551 C550 1.367 . S
C551 C559 1.433 . S
C552 H548 0.929 . S
C552 C554 1.378 . S
C552 C556 1.350 . S
C553 C556 1.463 . S
C553 C558 1.350 . S
C553 N561 1.427 . S
C554 H545 0.930 . S
C554 C552 1.378 . S
C554 C555 1.367 . S
C555 C554 1.367 . S
C555 C557 1.433 . S
C556 C552 1.350 . S
C556 C553 1.463 . S
C556 N560 1.427 . S
C557 H547 0.929 . S
C557 C555 1.433 . S
C557 N560 1.384 . S
C558 H549 0.929 . S
C558 C550 1.378 . S
C558 C553 1.350 . S
C559 H546 0.929 . S
C559 C551 1.433 . S
C559 N561 1.384 . S
N560 C556 1.427 . S
N560 C557 1.384 . S
N561 C553 1.427 . S
N561 C559 1.384 . S
H562 C568 0.930 . S
H563 C572 0.930 . S
H564 C577 0.929 . S
H565 C575 0.929 . S
H566 C570 0.929 . S
H567 C576 0.929 . S
C568 H562 0.930 . S
C568 C569 1.367 . S
C568 C576 1.378 . S
C569 C568 1.367 . S
C569 C577 1.433 . S
C570 H566 0.929 . S
C570 C572 1.378 . S
C570 C574 1.350 . S
C571 C574 1.463 . S
C571 C576 1.350 . S
C571 N579 1.427 . S
C572 H563 0.930 . S
C572 C570 1.378 . S
C572 C573 1.367 . S
C573 C572 1.367 . S
C573 C575 1.433 . S
C574 C570 1.350 . S
C574 C571 1.463 . S
C574 N578 1.427 . S
C575 H565 0.929 . S
C575 C573 1.433 . S
C575 N578 1.384 . S
C576 H567 0.929 . S
C576 C568 1.378 . S
C576 C571 1.350 . S
C577 H564 0.929 . S
C577 C569 1.433 . S
C577 N579 1.384 . S
N578 C574 1.427 . S
N578 C575 1.384 . S
N579 C571 1.427 . S
N579 C577 1.384 . S
H580 C586 0.930 . S
H581 C590 0.930 . S
H582 C595 0.929 . S
H583 C593 0.929 . S
H584 C588 0.929 . S
H585 C594 0.929 . S
C586 H580 0.930 . S
C586 C587 1.367 . S
C586 C594 1.378 . S
C587 C586 1.367 . S
C587 C595 1.433 . S
C588 H584 0.929 . S
C588 C590 1.378 . S
C588 C592 1.350 . S
C589 C592 1.463 . S
C589 C594 1.350 . S
C589 N597 1.427 . S
C590 H581 0.930 . S
C590 C588 1.378 . S
C590 C591 1.367 . S
C591 C590 1.367 . S
C591 C593 1.433 . S
C592 C588 1.350 . S
C592 C589 1.463 . S
C592 N596 1.427 . S
C593 H583 0.929 . S
C593 C591 1.433 . S
C593 N596 1.384 . S
C594 H585 0.929 . S
C594 C586 1.378 . S
C594 C589 1.350 . S
C595 H582 0.929 . S
C595 C587 1.433 . S
C595 N597 1.384 . S
N596 C592 1.427 . S
N596 C593 1.384 . S
N597 C589 1.427 . S
N597 C595 1.384 . S
H598 C604 0.930 . S
H599 C608 0.930 . S
H600 C613 0.929 . S
H601 C611 0.929 . S
H602 C606 0.929 . S
H603 C612 0.929 . S
C604 H598 0.930 . S
C604 C605 1.367 . S
C604 C612 1.378 . S
C605 C604 1.367 . S
C605 C613 1.433 . S
C606 H602 0.929 . S
C606 C608 1.378 . S
C606 C610 1.350 . S
C607 C610 1.463 1_554 S
C607 C612 1.350 . S
C607 N615 1.427 . S
C608 H599 0.930 . S
C608 C606 1.378 . S
C608 C609 1.367 . S
C609 C608 1.367 . S
C609 C611 1.433 . S
C610 C606 1.350 . S
C610 C607 1.463 1_556 S
C610 N614 1.427 . S
C611 H601 0.929 . S
C611 C609 1.433 . S
C611 N614 1.384 . S
C612 H603 0.929 . S
C612 C604 1.378 . S
C612 C607 1.350 . S
C613 H600 0.929 . S
C613 C605 1.433 . S
C613 N615 1.384 . S
N614 C610 1.427 . S
N614 C611 1.384 . S
N615 C607 1.427 . S
N615 C613 1.384 . S
H616 C622 0.930 . S
H617 C626 0.930 . S
H618 C631 0.929 . S
H619 C629 0.929 . S
H620 C624 0.929 . S
H621 C630 0.929 . S
C622 H616 0.930 . S
C622 C623 1.367 . S
C622 C630 1.378 . S
C623 C622 1.367 . S
C623 C631 1.433 . S
C624 H620 0.929 . S
C624 C626 1.378 . S
C624 C628 1.350 . S
C625 C628 1.463 1_445 S
C625 C630 1.350 . S
C625 N633 1.427 . S
C626 H617 0.930 . S
C626 C624 1.378 . S
C626 C627 1.367 . S
C627 C626 1.367 . S
C627 C629 1.433 . S
C628 C624 1.350 . S
C628 C625 1.463 1_665 S
C628 N632 1.427 . S
C629 H619 0.929 . S
C629 C627 1.433 . S
C629 N632 1.384 . S
C630 H621 0.929 . S
C630 C622 1.378 . S
C630 C625 1.350 . S
C631 H618 0.929 . S
C631 C623 1.433 . S
C631 N633 1.384 . S
N632 C628 1.427 . S
N632 C629 1.384 . S
N633 C625 1.427 . S
N633 C631 1.384 . S
H634 C640 0.930 . S
H635 C644 0.930 . S
H636 C649 0.929 . S
H637 C647 0.929 . S
H638 C642 0.929 1_455 S
H639 C648 0.929 1_655 S
C640 H634 0.930 . S
C640 C641 1.367 . S
C640 C648 1.378 . S
C641 C640 1.367 . S
C641 C649 1.433 . S
C642 H638 0.929 1_655 S
C642 C644 1.378 . S
C642 C646 1.350 . S
C643 C646 1.463 1_455 S
C643 C648 1.350 . S
C643 N651 1.427 . S
C644 H635 0.930 . S
C644 C642 1.378 . S
C644 C645 1.367 . S
C645 C644 1.367 . S
C645 C647 1.433 . S
C646 C642 1.350 . S
C646 C643 1.463 1_655 S
C646 N650 1.427 . S
C647 H637 0.929 . S
C647 C645 1.433 . S
C647 N650 1.384 . S
C648 H639 0.929 1_455 S
C648 C640 1.378 . S
C648 C643 1.350 . S
C649 H636 0.929 . S
C649 C641 1.433 . S
C649 N651 1.384 . S
N650 C646 1.427 . S
N650 C647 1.384 . S
N651 C643 1.427 . S
N651 C649 1.384 . S
H652 C658 0.930 . S
H653 C662 0.930 . S
H654 C667 0.929 . S
H655 C665 0.929 . S
H656 C660 0.929 . S
H657 C666 0.929 . S
C658 H652 0.930 . S
C658 C659 1.367 . S
C658 C666 1.378 . S
C659 C658 1.367 . S
C659 C667 1.433 . S
C660 H656 0.929 . S
C660 C662 1.378 . S
C660 C664 1.350 . S
C661 C664 1.463 . S
C661 C666 1.350 . S
C661 N669 1.427 . S
C662 H653 0.930 . S
C662 C660 1.378 . S
C662 C663 1.367 . S
C663 C662 1.367 . S
C663 C665 1.433 . S
C664 C660 1.350 . S
C664 C661 1.463 . S
C664 N668 1.427 . S
C665 H655 0.929 . S
C665 C663 1.433 . S
C665 N668 1.384 . S
C666 H657 0.929 . S
C666 C658 1.378 . S
C666 C661 1.350 . S
C667 H654 0.929 . S
C667 C659 1.433 . S
C667 N669 1.384 . S
N668 C664 1.427 . S
N668 C665 1.384 . S
N669 C661 1.427 . S
N669 C667 1.384 . S
H670 C676 0.930 . S
H671 C680 0.930 . S
H672 C685 0.929 . S
H673 C683 0.929 . S
H674 C678 0.929 . S
H675 C684 0.929 . S
C676 H670 0.930 . S
C676 C677 1.367 . S
C676 C684 1.378 . S
C677 C676 1.367 . S
C677 C685 1.433 . S
C678 H674 0.929 . S
C678 C680 1.378 . S
C678 C682 1.350 . S
C679 C682 1.463 1_565 S
C679 C684 1.350 . S
C679 N687 1.427 . S
C680 H671 0.930 . S
C680 C678 1.378 . S
C680 C681 1.367 . S
C681 C680 1.367 . S
C681 C683 1.433 . S
C682 C678 1.350 . S
C682 C679 1.463 1_545 S
C682 N686 1.427 . S
C683 H673 0.929 . S
C683 C681 1.433 . S
C683 N686 1.384 . S
C684 H675 0.929 . S
C684 C676 1.378 . S
C684 C679 1.350 . S
C685 H672 0.929 . S
C685 C677 1.433 . S
C685 N687 1.384 . S
N686 C682 1.427 . S
N686 C683 1.384 . S
N687 C679 1.427 . S
N687 C685 1.384 . S
H688 C694 0.930 . S
H689 C698 0.930 . S
H690 C703 0.929 . S
H691 C701 0.929 . S
H692 C696 0.929 . S
H693 C702 0.929 . S
C694 H688 0.930 . S
C694 C695 1.367 . S
C694 C702 1.378 . S
C695 C694 1.367 . S
C695 C703 1.433 . S
C696 H692 0.929 . S
C696 C698 1.378 . S
C696 C700 1.350 . S
C697 C700 1.463 1_655 S
C697 C702 1.350 . S
C697 N705 1.427 . S
C698 H689 0.930 . S
C698 C696 1.378 . S
C698 C699 1.367 . S
C699 C698 1.367 . S
C699 C701 1.433 . S
C700 C696 1.350 . S
C700 C697 1.463 1_455 S
C700 N704 1.427 . S
C701 H691 0.929 . S
C701 C699 1.433 . S
C701 N704 1.384 . S
C702 H693 0.929 . S
C702 C694 1.378 . S
C702 C697 1.350 . S
C703 H690 0.929 . S
C703 C695 1.433 . S
C703 N705 1.384 . S
N704 C700 1.427 . S
N704 C701 1.384 . S
N705 C697 1.427 . S
N705 C703 1.384 . S
H706 C712 0.930 . S
H707 C716 0.930 . S
H708 C721 0.929 . S
H709 C719 0.929 . S
H710 C714 0.929 . S
H711 C720 0.929 . S
C712 H706 0.930 . S
C712 C713 1.367 . S
C712 C720 1.378 . S
C713 C712 1.367 . S
C713 C721 1.433 . S
C714 H710 0.929 . S
C714 C716 1.378 . S
C714 C718 1.350 . S
C715 C718 1.463 . S
C715 C720 1.350 . S
C715 N723 1.427 . S
C716 H707 0.930 . S
C716 C714 1.378 . S
C716 C717 1.367 . S
C717 C716 1.367 . S
C717 C719 1.433 . S
C718 C714 1.350 . S
C718 C715 1.463 . S
C718 N722 1.427 . S
C719 H709 0.929 . S
C719 C717 1.433 . S
C719 N722 1.384 . S
C720 H711 0.929 . S
C720 C712 1.378 . S
C720 C715 1.350 . S
C721 H708 0.929 . S
C721 C713 1.433 . S
C721 N723 1.384 . S
N722 C718 1.427 . S
N722 C719 1.384 . S
N723 C715 1.427 . S
N723 C721 1.384 . S
H724 C730 0.930 . S
H725 C734 0.930 . S
H726 C739 0.929 . S
H727 C737 0.929 . S
H728 C732 0.929 1_545 S
H729 C738 0.929 1_565 S
C730 H724 0.930 . S
C730 C731 1.367 . S
C730 C738 1.378 . S
C731 C730 1.367 . S
C731 C739 1.433 . S
C732 H728 0.929 1_565 S
C732 C734 1.378 . S
C732 C736 1.350 . S
C733 C736 1.463 1_545 S
C733 C738 1.350 . S
C733 N741 1.427 . S
C734 H725 0.930 . S
C734 C732 1.378 . S
C734 C735 1.367 . S
C735 C734 1.367 . S
C735 C737 1.433 . S
C736 C732 1.350 . S
C736 C733 1.463 1_565 S
C736 N740 1.427 . S
C737 H727 0.929 . S
C737 C735 1.433 . S
C737 N740 1.384 . S
C738 H729 0.929 1_545 S
C738 C730 1.378 . S
C738 C733 1.350 . S
C739 H726 0.929 . S
C739 C731 1.433 . S
C739 N741 1.384 . S
N740 C736 1.427 . S
N740 C737 1.384 . S
N741 C733 1.427 . S
N741 C739 1.384 . S
H742 C748 0.930 . S
H743 C752 0.930 . S
H744 C757 0.929 . S
H745 C755 0.929 . S
H746 C750 0.929 . S
H747 C756 0.929 . S
C748 H742 0.930 . S
C748 C749 1.367 . S
C748 C756 1.378 . S
C749 C748 1.367 . S
C749 C757 1.433 . S
C750 H746 0.929 . S
C750 C752 1.378 . S
C750 C754 1.350 . S
C751 C754 1.463 1_665 S
C751 C756 1.350 . S
C751 N759 1.427 . S
C752 H743 0.930 . S
C752 C750 1.378 . S
C752 C753 1.367 . S
C753 C752 1.367 . S
C753 C755 1.433 . S
C754 C750 1.350 . S
C754 C751 1.463 1_445 S
C754 N758 1.427 . S
C755 H745 0.929 . S
C755 C753 1.433 . S
C755 N758 1.384 . S
C756 H747 0.929 . S
C756 C748 1.378 . S
C756 C751 1.350 . S
C757 H744 0.929 . S
C757 C749 1.433 . S
C757 N759 1.384 . S
N758 C754 1.427 . S
N758 C755 1.384 . S
N759 C751 1.427 . S
N759 C757 1.384 . S
C479 C33 1.292 . S
C483 C328 1.293 . S
C497 C62 1.410 . S
C501 C357 1.410 . S
C515 C151 1.290 . S
C519 C446 1.296 . S
C533 C180 1.403 . S
C537 C239 1.403 . S
C551 C416 1.403 . S
C555 C3 1.403 . S
C569 C269 1.290 . S
C573 C92 1.295 . S
C587 C121 1.407 . S
C591 C298 1.406 . S
C605 C387 1.290 . S
C609 C210 1.296 . S
C623 C52 1.648 . S
C627 C406 1.647 . S
C641 C418 1.632 . S
C645 C64 1.631 . S
C659 C170 1.643 . S
C663 C288 1.644 . S
C677 C182 1.628 . S
C681 C300 1.630 . S
C695 C359 1.630 . S
C699 C5 1.632 . S
C713 C465 1.649 . S
C717 C111 1.648 . S
C731 C123 1.632 . S
C735 C241 1.632 . S
C749 C229 1.648 . S
C753 C347 1.649 . S
