# Generated by pormake.
# Topology ecn, (8)-cn, num edge types: 1
# Building blocks:
#     Node 0, Type 0, BuildingBlock: EBIMEJ_clean_sbu_0, # of connection points: 8
#     Node 1, Type 0, BuildingBlock: EBIMEJ_clean_sbu_0, # of connection points: 8
#     Node 2, Type 0, BuildingBlock: EBIMEJ_clean_sbu_0, # of connection points: 8
#     Node 3, Type 0, BuildingBlock: EBIMEJ_clean_sbu_0, # of connection points: 8
#     Node 4, Type 0, BuildingBlock: EBIMEJ_clean_sbu_0, # of connection points: 8
#     Node 5, Type 0, BuildingBlock: EBIMEJ_clean_sbu_0, # of connection points: 8
#     Node 6, Type 0, BuildingBlock: EBIMEJ_clean_sbu_0, # of connection points: 8
#     Node 7, Type 0, BuildingBlock: EBIMEJ_clean_sbu_0, # of connection points: 8
#     Node 8, Type 0, BuildingBlock: EBIMEJ_clean_sbu_0, # of connection points: 8
#     Edge 9, Type (0, 0), None
#     Edge 10, Type (0, 0), None
#     Edge 11, Type (0, 0), None
#     Edge 12, Type (0, 0), None
#     Edge 13, Type (0, 0), None
#     Edge 14, Type (0, 0), None
#     Edge 15, Type (0, 0), None
#     Edge 16, Type (0, 0), None
#     Edge 17, Type (0, 0), None
#     Edge 18, Type (0, 0), None
#     Edge 19, Type (0, 0), None
#     Edge 20, Type (0, 0), None
#     Edge 21, Type (0, 0), None
#     Edge 22, Type (0, 0), None
#     Edge 23, Type (0, 0), None
#     Edge 24, Type (0, 0), None
#     Edge 25, Type (0, 0), None
#     Edge 26, Type (0, 0), None
#     Edge 27, Type (0, 0), None
#     Edge 28, Type (0, 0), None
#     Edge 29, Type (0, 0), None
#     Edge 30, Type (0, 0), None
#     Edge 31, Type (0, 0), None
#     Edge 32, Type (0, 0), None
#     Edge 33, Type (0, 0), None
#     Edge 34, Type (0, 0), None
#     Edge 35, Type (0, 0), None
#     Edge 36, Type (0, 0), None
#     Edge 37, Type (0, 0), None
#     Edge 38, Type (0, 0), None
#     Edge 39, Type (0, 0), None
#     Edge 40, Type (0, 0), None
#     Edge 41, Type (0, 0), None
#     Edge 42, Type (0, 0), None
#     Edge 43, Type (0, 0), None
#     Edge 44, Type (0, 0), None
# Relax obj value: 0.179
# Max RMSD: 0.233
# Mean RMSD: 0.233
data_MOF--net-ecn--node1-EBIMEJ_clean_sbu_0--edge1-none
_symmetry_space_group_name_H-M    P1
_symmetry_Int_Tables_number       1
_symmetry_cell_setting            triclinic
loop_
_symmetry_equiv_pos_as_xyz
'x, y, z'
_cell_length_a     28.662498
_cell_length_b     28.66315
_cell_length_c     7.6809069
_cell_angle_alpha  89.997823
_cell_angle_beta   90.007139
_cell_angle_gamma 120.00071
loop_
_atom_site_label
_atom_site_type_symbol
_atom_site_fract_x
_atom_site_fract_y
_atom_site_fract_z
_atom_type_partial_charge
Co0 Co 0.25352 0.35142 0.81532 0.0
Co1 Co 0.19689 0.25554 0.07285 0.0
Co2 Co 0.12886 0.29947 0.95027 0.0
H3 H 0.1933 0.32465 0.92302 0.0
O4 O 0.20607 0.32589 0.02542 0.0
H5 H 0.13398 0.22456 0.07674 0.0
O6 O 0.12023 0.22723 0.98073 0.0
Co7 Co 0.07548 0.18216 0.17787 0.0
O8 O 0.10988 0.13513 0.22131 0.0
O9 O 0.19115 0.18529 0.10414 0.0
O10 O 1.02912 0.21754 0.19409 0.0
O11 O 1.04854 0.27058 0.95567 0.0
O12 O 0.31532 0.37973 0.62999 0.0
O13 O 0.32614 0.41794 0.86834 0.0
O14 O 0.09834 0.23241 0.37865 0.0
O15 O 0.1853 0.26322 0.32493 0.0
C16 C 0.1826 0.40751 0.7957 0.0
C17 C 0.30618 0.29846 0.01891 0.0
C18 C 0.99933 0.08846 0.18275 0.0
C19 C 0.16184 0.27965 0.59852 0.0
C20 C 0.15547 0.14212 0.17244 0.0
C21 C 1.01863 0.24558 0.08834 0.0
C22 C 0.34749 0.41781 0.72555 0.0
C23 C 0.14719 0.25765 0.42414 0.0
O24 O 0.22417 0.40316 0.75837 0.0
O25 O 0.14363 0.37335 0.89158 0.0
O26 O 0.27172 0.28749 0.13602 0.0
O27 O 0.30128 0.31609 0.87027 0.0
O28 O 1.04353 0.10309 0.25626 0.0
O29 O 0.99831 0.12672 0.10692 0.0
O30 O 0.20963 0.2945 0.64503 0.0
O31 O 0.12836 0.28519 0.69374 0.0
Co32 Co 0.74621 0.92163 0.81531 0.0
Co33 Co 0.84209 0.96088 0.07288 0.0
Co34 Co 0.79817 0.84893 0.95031 0.0
H35 H 0.77298 0.88817 0.92303 0.0
O36 O 0.77174 0.89971 0.02543 0.0
H37 H 0.87307 0.92895 0.0768 0.0
O38 O 0.8704 0.91253 0.9808 0.0
Co39 Co 0.91548 0.91285 0.17796 0.0
O40 O 0.9625 0.99428 0.22151 0.0
O41 O 0.91234 1.02539 0.10423 0.0
O42 O 0.88009 0.83111 0.19418 0.0
O43 O 0.82706 0.7975 0.95573 0.0
O44 O 0.71788 0.95511 0.62999 0.0
O45 O 0.6797 0.92773 0.86838 0.0
O46 O 0.86524 0.88548 0.37876 0.0
O47 O 0.8344 0.9416 0.32495 0.0
C48 C 0.69013 0.79462 0.79565 0.0
C49 C 0.79916 1.02724 0.01889 0.0
C50 C 1.00918 0.9304 0.18272 0.0
C51 C 0.81798 0.90173 0.59856 0.0
C52 C 0.9555 1.03288 0.17264 0.0
C53 C 0.85205 0.79259 0.08842 0.0
C54 C 0.67982 0.94921 0.72559 0.0
C55 C 0.83998 0.90907 0.42419 0.0
O56 O 0.69447 0.84053 0.7583 0.0
O57 O 0.72429 0.78981 0.89158 0.0
O58 O 0.81014 1.00375 0.13601 0.0
O59 O 0.78154 1.00472 0.87024 0.0
O60 O 0.99456 0.95997 0.25631 0.0
O61 O 0.97091 0.89113 0.10689 0.0
O62 O 0.80312 0.93465 0.64502 0.0
O63 O 0.81245 0.8627 0.6938 0.0
Co64 Co 0.17599 0.8441 0.81528 0.0
Co65 Co 0.13674 0.90074 0.07278 0.0
Co66 Co 0.2487 0.96876 0.95026 0.0
H67 H 0.20945 0.90433 0.92298 0.0
O68 O 0.19791 0.89156 0.02539 0.0
H69 H 0.16869 0.96366 0.07669 0.0
O70 O 0.18511 0.9774 0.9807 0.0
Co71 Co 0.18479 1.02215 0.17785 0.0
O72 O 0.10336 0.98773 0.22152 0.0
O73 O 0.07224 0.90649 0.10407 0.0
O74 O 0.26653 0.06851 0.19407 0.0
O75 O 0.30014 0.04908 0.95568 0.0
O76 O 0.14252 0.7823 0.62994 0.0
O77 O 0.16987 0.77148 0.86839 0.0
O78 O 0.21217 0.99929 0.37865 0.0
O79 O 0.15602 0.91233 0.32486 0.0
C80 C 0.303 0.91503 0.79565 0.0
C81 C 0.07038 0.79145 0.01885 0.0
C82 C 0.16721 0.09828 0.1825 0.0
C83 C 0.1959 0.93578 0.59848 0.0
C84 C 0.06475 0.94215 0.17257 0.0
C85 C 0.30505 0.07899 0.08834 0.0
C86 C 0.14841 0.75013 0.72557 0.0
C87 C 0.18857 0.95044 0.42411 0.0
O88 O 0.25709 0.87346 0.75829 0.0
O89 O 0.30782 0.95399 0.89158 0.0
O90 O 0.09386 0.82592 0.13595 0.0
O91 O 0.0929 0.79633 0.87023 0.0
O92 O 0.13766 0.0541 0.25615 0.0
O93 O 0.20649 0.0993 0.10674 0.0
O94 O 0.16298 0.88799 0.64494 0.0
O95 O 0.23493 0.96927 0.69374 0.0
Co96 Co 0.92019 0.68476 0.14866 0.0
Co97 Co 0.86356 0.58887 0.40617 0.0
Co98 Co 0.79553 0.6328 0.28359 0.0
H99 H 0.85996 0.65799 0.25634 0.0
O100 O 0.87274 0.65923 0.35875 0.0
H101 H 0.80064 0.5579 0.41006 0.0
O102 O 0.78689 0.56057 0.31405 0.0
Co103 Co 0.74214 0.51549 0.51119 0.0
O104 O 0.77654 0.46846 0.55465 0.0
O105 O 0.85781 0.51862 0.43746 0.0
O106 O 0.69578 0.55087 0.52741 0.0
O107 O 0.7152 0.60391 0.289 0.0
O108 O 0.98196 0.71313 0.96321 0.0
O109 O 0.99286 0.7512 0.20187 0.0
O110 O 0.765 0.56575 0.71196 0.0
O111 O 0.85196 0.59655 0.65824 0.0
C112 C 0.84926 0.74083 0.12898 0.0
C113 C 0.97284 0.63179 0.35223 0.0
C114 C 0.66599 0.42179 0.51607 0.0
C115 C 0.82851 0.61299 0.93182 0.0
C116 C 0.82213 0.47545 0.50576 0.0
C117 C 0.68529 0.57891 0.42167 0.0
C118 C 1.01417 0.75113 0.05895 0.0
C119 C 0.81385 0.59099 0.75745 0.0
O120 O 0.89084 0.7365 0.09171 0.0
O121 O 0.81029 0.70668 0.2249 0.0
O122 O 0.93838 0.62082 0.46935 0.0
O123 O 0.96794 0.64942 0.20359 0.0
O124 O 0.7102 0.43642 0.58959 0.0
O125 O 0.66498 0.46005 0.44024 0.0
O126 O 0.8763 0.62787 0.9783 0.0
O127 O 0.79502 0.61852 0.02707 0.0
Co128 Co 0.41287 0.25496 0.14864 0.0
Co129 Co 0.50875 0.29421 0.4062 0.0
Co130 Co 0.46483 0.18226 0.28363 0.0
H131 H 0.43964 0.22151 0.25635 0.0
O132 O 0.4384 0.23304 0.35875 0.0
H133 H 0.53974 0.26228 0.41012 0.0
O134 O 0.53706 0.24586 0.31412 0.0
Co135 Co 0.58214 0.24618 0.51128 0.0
O136 O 0.62916 0.32761 0.55485 0.0
O137 O 0.57901 0.35872 0.43755 0.0
O138 O 0.54676 0.16444 0.5275 0.0
O139 O 0.49372 0.13083 0.28906 0.0
O140 O 0.38448 0.28836 0.96321 0.0
O141 O 0.34644 0.2612 0.20191 0.0
O142 O 0.5319 0.2188 0.71206 0.0
O143 O 0.50107 0.27493 0.65826 0.0
C144 C 0.3568 0.12796 0.12892 0.0
C145 C 0.46584 0.36057 0.35221 0.0
C146 C 0.67585 0.26374 0.51605 0.0
C147 C 0.48464 0.23505 0.93186 0.0
C148 C 0.62217 0.36621 0.50596 0.0
C149 C 0.51872 0.12592 0.42174 0.0
C150 C 0.3465 0.28257 0.05898 0.0
C151 C 0.50664 0.24239 0.7575 0.0
O152 O 0.36113 0.17387 0.09163 0.0
O153 O 0.39095 0.12314 0.2249 0.0
O154 O 0.47681 0.33708 0.46934 0.0
O155 O 0.44822 0.33806 0.20357 0.0
O156 O 0.66123 0.2933 0.58964 0.0
O157 O 0.63758 0.22447 0.4402 0.0
O158 O 0.46975 0.26796 0.97828 0.0
O159 O 0.47912 0.19604 0.02712 0.0
Co160 Co 0.84266 0.17743 0.14862 0.0
Co161 Co 0.80341 0.23408 0.40611 0.0
Co162 Co 0.91537 0.3021 0.28358 0.0
H163 H 0.87612 0.23766 0.25631 0.0
O164 O 0.86458 0.22489 0.35871 0.0
H165 H 0.83536 0.29699 0.41001 0.0
O166 O 0.85178 0.31074 0.31402 0.0
Co167 Co 0.85145 0.35549 0.51117 0.0
O168 O 0.77003 0.32107 0.55485 0.0
O169 O 0.73891 0.23983 0.43739 0.0
O170 O 0.9332 0.40185 0.52738 0.0
O171 O 0.96681 0.38242 0.28901 0.0
O172 O 0.80927 0.11566 0.96317 0.0
O173 O 0.83641 0.10476 0.20191 0.0
O174 O 0.87884 0.33263 0.71196 0.0
O175 O 0.82269 0.24567 0.65817 0.0
C176 C 0.96966 0.24837 0.12891 0.0
C177 C 0.73705 0.12479 0.35218 0.0
C178 C 0.83387 0.43162 0.51583 0.0
C179 C 0.86258 0.26911 0.93178 0.0
C180 C 0.73142 0.27549 0.50589 0.0
C181 C 0.97172 0.41233 0.42166 0.0
C182 C 0.81505 0.08345 0.05897 0.0
C183 C 0.85524 0.28378 0.75741 0.0
O184 O 0.92376 0.20679 0.09162 0.0
O185 O 0.97449 0.28733 0.22489 0.0
O186 O 0.76054 0.15926 0.46928 0.0
O187 O 0.75956 0.12967 0.20355 0.0
O188 O 0.80432 0.38744 0.58948 0.0
O189 O 0.87316 0.43263 0.44005 0.0
O190 O 0.82967 0.22132 0.9782 0.0
O191 O 0.90159 0.30261 0.02706 0.0
Co192 Co 0.58687 1.01809 0.48201 0.0
Co193 Co 0.53022 0.9222 0.7395 0.0
Co194 Co 0.4622 0.96613 0.61694 0.0
H195 H 0.52664 0.99132 0.58968 0.0
O196 O 0.53941 0.99255 0.69209 0.0
H197 H 0.46731 0.89123 0.74339 0.0
O198 O 0.45355 0.8939 0.64739 0.0
Co199 Co 0.40881 0.84883 0.84455 0.0
O200 O 0.44322 0.8018 0.88806 0.0
O201 O 0.52447 0.85194 0.77075 0.0
O202 O 0.36246 0.88421 0.86078 0.0
O203 O 0.38187 0.93725 0.62236 0.0
O204 O 0.64863 0.04647 0.29654 0.0
O205 O 0.65953 0.08453 0.53522 0.0
O206 O 0.43168 0.89909 0.04528 0.0
O207 O 0.51863 0.92988 0.99158 0.0
C208 C 0.51593 0.07417 0.46231 0.0
C209 C 0.63951 0.96511 0.68555 0.0
C210 C 0.33267 0.75512 0.84942 0.0
C211 C 0.49519 0.94633 0.26515 0.0
C212 C 0.4888 0.80878 0.83912 0.0
C213 C 0.35197 0.91224 0.75503 0.0
C214 C 0.68084 0.08447 0.39228 0.0
C215 C 0.48053 0.92433 0.09078 0.0
O216 O 0.55751 0.06984 0.42503 0.0
O217 O 0.47697 0.04002 0.55824 0.0
O218 O 0.60504 0.95413 0.80266 0.0
O219 O 0.63462 0.98276 0.53693 0.0
O220 O 0.37686 0.76976 0.92303 0.0
O221 O 0.33166 0.79338 0.77349 0.0
O222 O 0.54298 0.96121 0.31162 0.0
O223 O 0.46169 0.95185 0.36041 0.0
Co224 Co 0.07954 0.5883 0.48197 0.0
Co225 Co 0.17543 0.62755 0.73951 0.0
Co226 Co 0.1315 0.5156 0.61696 0.0
H227 H 0.10631 0.55485 0.58968 0.0
O228 O 0.10508 0.56638 0.69208 0.0
H229 H 0.20641 0.59561 0.74344 0.0
O230 O 0.20373 0.57919 0.64744 0.0
Co231 Co 0.24881 0.57952 0.84462 0.0
O232 O 0.29583 0.66095 0.88826 0.0
O233 O 0.24569 0.69206 0.77082 0.0
O234 O 0.21342 0.49778 0.86085 0.0
O235 O 0.16038 0.46416 0.62241 0.0
O236 O 1.05115 0.62169 0.29654 0.0
O237 O 1.01311 0.59453 0.53524 0.0
O238 O 0.19856 0.55213 0.04537 0.0
O239 O 0.16775 0.60828 0.99158 0.0
C240 C 1.02347 0.4613 0.46225 0.0
C241 C 0.13251 0.69392 0.68552 0.0
C242 C 0.34251 0.59708 0.84938 0.0
C243 C 0.1513 0.56839 0.26517 0.0
C244 C 0.28884 0.69955 0.8393 0.0
C245 C 0.18539 0.45926 0.7551 0.0
C246 C 1.01316 0.6159 0.39231 0.0
C247 C 0.17331 0.57573 0.09081 0.0
O248 O 1.0278 0.5072 0.42495 0.0
O249 O 1.05762 0.45648 0.55823 0.0
O250 O 0.1435 0.67044 0.80264 0.0
O251 O 0.11487 0.6714 0.53689 0.0
O252 O 0.32789 0.62663 0.92307 0.0
O253 O 0.30425 0.55783 0.77344 0.0
O254 O 0.13641 0.60129 0.31159 0.0
O255 O 0.14578 0.52938 0.36044 0.0
Co256 Co 0.50932 0.51076 0.48195 0.0
Co257 Co 0.47007 0.56741 0.73942 0.0
Co258 Co 0.58203 0.63543 0.61692 0.0
H259 H 0.54278 0.57099 0.58964 0.0
O260 O 0.53124 0.55822 0.69204 0.0
H261 H 0.50202 0.63032 0.74334 0.0
O262 O 0.51844 0.64408 0.64735 0.0
Co263 Co 0.51812 0.68882 0.84452 0.0
O264 O 0.43669 0.6544 0.88826 0.0
O265 O 0.40557 0.57318 0.77067 0.0
O266 O 0.59986 0.73517 0.86075 0.0
O267 O 0.63348 0.71575 0.62237 0.0
O268 O 0.47594 0.44899 0.2965 0.0
O269 O 0.50309 0.4381 0.53524 0.0
O270 O 0.54551 0.66595 0.04528 0.0
O271 O 0.48934 0.579 0.9915 0.0
C272 C 0.63632 0.58169 0.46224 0.0
C273 C 0.4037 0.45812 0.68548 0.0
C274 C 0.50053 0.76494 0.84918 0.0
C275 C 0.52925 0.60244 0.2651 0.0
C276 C 0.39809 0.60883 0.83923 0.0
C277 C 0.63838 0.74566 0.75502 0.0
C278 C 0.48172 0.41678 0.39229 0.0
C279 C 0.5219 0.6171 0.09073 0.0
O280 O 0.59042 0.54012 0.42494 0.0
O281 O 0.64115 0.62065 0.55823 0.0
O282 O 0.42718 0.4926 0.80258 0.0
O283 O 0.42622 0.46299 0.53688 0.0
O284 O 0.471 0.72077 0.92292 0.0
O285 O 0.5398 0.76595 0.77331 0.0
O286 O 0.49634 0.55464 0.31152 0.0
O287 O 0.56825 0.63593 0.36039 0.0
loop_
_geom_bond_atom_site_label_1
_geom_bond_atom_site_label_2
_geom_bond_distance
_geom_bond_site_symmetry_2
_ccdc_geom_bond_type
Co0 H3 2.400 1_556 S
Co0 O4 2.009 1_556 S
Co0 O12 2.115 . S
Co0 O13 2.315 1_556 S
Co0 O24 2.053 . S
Co0 O27 2.094 . S
Co0 O30 2.122 . S
Co1 O4 2.126 . S
Co1 H5 2.388 1_554 S
Co1 O6 2.053 1_554 S
Co1 O9 2.047 . S
Co1 O15 2.113 . S
Co1 O26 2.063 . S
Co2 H3 2.388 1_556 S
Co2 O4 2.053 1_556 S
Co2 O6 2.126 . S
Co2 O11 2.063 . S
Co2 O25 2.047 . S
Co2 O31 2.113 . S
H3 Co0 2.400 1_554 S
H3 Co2 2.388 1_554 S
H3 O4 0.760 . S
O4 Co0 2.009 1_554 S
O4 Co1 2.126 . S
O4 Co2 2.053 1_554 S
O4 H3 0.760 . S
H5 Co1 2.388 1_556 S
H5 O6 0.760 . S
H5 Co7 2.400 1_556 S
O6 Co1 2.053 1_556 S
O6 Co2 2.126 . S
O6 H5 0.760 . S
O6 Co7 2.009 1_556 S
Co7 H5 2.400 1_554 S
Co7 O6 2.009 1_554 S
Co7 O8 2.053 . S
Co7 O10 2.094 1_455 S
Co7 O14 2.122 . S
Co7 O28 2.115 1_455 S
Co7 O29 2.315 1_454 S
O8 Co7 2.053 . S
O8 C20 1.259 . S
O9 Co1 2.047 . S
O9 C20 1.257 . S
O10 Co7 2.094 1_655 S
O10 C21 1.253 . S
O11 Co2 2.063 . S
O11 C21 1.268 1_456 S
O12 Co0 2.115 . S
O12 C22 1.281 . S
O13 Co0 2.315 1_554 S
O13 C22 1.252 1_554 S
O14 Co7 2.122 . S
O14 C23 1.272 . S
O15 Co1 2.113 . S
O15 C23 1.245 . S
C16 O24 1.259 . S
C16 O25 1.257 . S
C17 O26 1.268 1_556 S
C17 O27 1.253 . S
C18 O28 1.281 . S
C18 O29 1.252 1_554 S
C19 O30 1.272 . S
C19 O31 1.245 . S
C20 O8 1.259 . S
C20 O9 1.257 . S
C21 O10 1.253 . S
C21 O11 1.268 1_654 S
C22 O12 1.281 . S
C22 O13 1.252 1_556 S
C23 O14 1.272 . S
C23 O15 1.245 . S
O24 Co0 2.053 . S
O24 C16 1.259 . S
O25 Co2 2.047 . S
O25 C16 1.257 . S
O26 Co1 2.063 . S
O26 C17 1.268 1_554 S
O27 Co0 2.094 . S
O27 C17 1.253 . S
O28 Co7 2.115 1_655 S
O28 C18 1.281 . S
O29 Co7 2.315 1_656 S
O29 C18 1.252 1_556 S
O30 Co0 2.122 . S
O30 C19 1.272 . S
O31 Co2 2.113 . S
O31 C19 1.245 . S
Co32 H35 2.400 1_556 S
Co32 O36 2.009 1_556 S
Co32 O44 2.115 . S
Co32 O45 2.315 1_556 S
Co32 O56 2.053 . S
Co32 O59 2.094 . S
Co32 O62 2.122 . S
Co33 O36 2.126 . S
Co33 H37 2.388 1_554 S
Co33 O38 2.053 1_554 S
Co33 O41 2.048 1_565 S
Co33 O47 2.113 . S
Co33 O58 2.063 . S
Co34 H35 2.388 1_556 S
Co34 O36 2.053 1_556 S
Co34 O38 2.126 . S
Co34 O43 2.063 . S
Co34 O57 2.047 . S
Co34 O63 2.113 . S
H35 Co32 2.400 1_554 S
H35 Co34 2.388 1_554 S
H35 O36 0.760 . S
O36 Co32 2.009 1_554 S
O36 Co33 2.126 . S
O36 Co34 2.053 1_554 S
O36 H35 0.760 . S
H37 Co33 2.388 1_556 S
H37 O38 0.760 . S
H37 Co39 2.400 1_556 S
O38 Co33 2.053 1_556 S
O38 Co34 2.126 . S
O38 H37 0.760 . S
O38 Co39 2.009 1_556 S
Co39 H37 2.400 1_554 S
Co39 O38 2.009 1_554 S
Co39 O40 2.053 . S
Co39 O42 2.094 . S
Co39 O46 2.122 . S
Co39 O60 2.115 . S
Co39 O61 2.315 1_554 S
O40 Co39 2.053 . S
O40 C52 1.259 . S
O41 Co33 2.048 1_545 S
O41 C52 1.259 1_545 S
O42 Co39 2.094 . S
O42 C53 1.253 . S
O43 Co34 2.063 . S
O43 C53 1.268 1_556 S
O44 Co32 2.115 . S
O44 C54 1.281 . S
O45 Co32 2.315 1_554 S
O45 C54 1.252 1_554 S
O46 Co39 2.122 . S
O46 C55 1.272 . S
O47 Co33 2.113 . S
O47 C55 1.245 . S
C48 O56 1.259 . S
C48 O57 1.257 . S
C49 O58 1.268 1_556 S
C49 O59 1.253 . S
C50 O60 1.281 . S
C50 O61 1.252 1_554 S
C51 O62 1.272 . S
C51 O63 1.245 . S
C52 O40 1.259 . S
C52 O41 1.259 1_565 S
C53 O42 1.253 . S
C53 O43 1.268 1_554 S
C54 O44 1.281 . S
C54 O45 1.252 1_556 S
C55 O46 1.272 . S
C55 O47 1.245 . S
O56 Co32 2.053 . S
O56 C48 1.259 . S
O57 Co34 2.047 . S
O57 C48 1.257 . S
O58 Co33 2.063 . S
O58 C49 1.268 1_554 S
O59 Co32 2.094 . S
O59 C49 1.253 . S
O60 Co39 2.115 . S
O60 C50 1.281 . S
O61 Co39 2.315 1_556 S
O61 C50 1.252 1_556 S
O62 Co32 2.122 . S
O62 C51 1.272 . S
O63 Co34 2.113 . S
O63 C51 1.245 . S
Co64 H67 2.400 1_556 S
Co64 O68 2.009 1_556 S
Co64 O76 2.115 . S
Co64 O77 2.315 1_556 S
Co64 O88 2.053 . S
Co64 O91 2.094 . S
Co64 O94 2.122 . S
Co65 O68 2.126 . S
Co65 H69 2.388 1_554 S
Co65 O70 2.053 1_554 S
Co65 O73 2.050 1_455 S
Co65 O79 2.113 . S
Co65 O90 2.063 . S
Co66 H67 2.388 1_556 S
Co66 O68 2.053 1_556 S
Co66 O70 2.126 . S
Co66 O75 2.063 . S
Co66 O89 2.047 . S
Co66 O95 2.113 . S
H67 Co64 2.400 1_554 S
H67 Co66 2.388 1_554 S
H67 O68 0.760 . S
O68 Co64 2.009 1_554 S
O68 Co65 2.126 . S
O68 Co66 2.053 1_554 S
O68 H67 0.760 . S
H69 Co65 2.388 1_556 S
H69 O70 0.760 . S
H69 Co71 2.400 1_556 S
O70 Co65 2.053 1_556 S
O70 Co66 2.126 . S
O70 H69 0.760 . S
O70 Co71 2.009 1_556 S
Co71 H69 2.400 1_554 S
Co71 O70 2.009 1_554 S
Co71 O72 2.053 . S
Co71 O74 2.094 1_565 S
Co71 O78 2.122 . S
Co71 O92 2.115 1_565 S
Co71 O93 2.315 1_564 S
O72 Co71 2.053 . S
O72 C84 1.259 . S
O73 Co65 2.050 1_655 S
O73 C84 1.256 1_655 S
O74 Co71 2.094 1_545 S
O74 C85 1.253 . S
O75 Co66 2.063 . S
O75 C85 1.268 1_566 S
O76 Co64 2.115 . S
O76 C86 1.281 . S
O77 Co64 2.315 1_554 S
O77 C86 1.252 1_554 S
O78 Co71 2.122 . S
O78 C87 1.272 . S
O79 Co65 2.113 . S
O79 C87 1.245 . S
C80 O88 1.259 . S
C80 O89 1.257 . S
C81 O90 1.268 1_556 S
C81 O91 1.253 . S
C82 O92 1.281 . S
C82 O93 1.252 1_554 S
C83 O94 1.272 . S
C83 O95 1.245 . S
C84 O72 1.259 . S
C84 O73 1.256 1_455 S
C85 O74 1.253 . S
C85 O75 1.268 1_544 S
C86 O76 1.281 . S
C86 O77 1.252 1_556 S
C87 O78 1.272 . S
C87 O79 1.245 . S
O88 Co64 2.053 . S
O88 C80 1.259 . S
O89 Co66 2.047 . S
O89 C80 1.257 . S
O90 Co65 2.063 . S
O90 C81 1.268 1_554 S
O91 Co64 2.094 . S
O91 C81 1.253 . S
O92 Co71 2.115 1_545 S
O92 C82 1.281 . S
O93 Co71 2.315 1_546 S
O93 C82 1.252 1_556 S
O94 Co64 2.122 . S
O94 C83 1.272 . S
O95 Co66 2.113 . S
O95 C83 1.245 . S
Co96 H99 2.400 . S
Co96 O100 2.009 . S
Co96 O108 2.115 . S
Co96 O109 2.315 . S
Co96 O120 2.053 . S
Co96 O123 2.094 . S
Co96 O126 2.122 1_554 S
Co97 O100 2.126 . S
Co97 H101 2.388 . S
Co97 O102 2.053 . S
Co97 O105 2.047 . S
Co97 O111 2.113 . S
Co97 O122 2.063 . S
Co98 H99 2.388 . S
Co98 O100 2.053 . S
Co98 O102 2.126 . S
Co98 O107 2.063 . S
Co98 O121 2.047 . S
Co98 O127 2.113 . S
H99 Co96 2.400 . S
H99 Co98 2.388 . S
H99 O100 0.760 . S
O100 Co96 2.009 . S
O100 Co97 2.126 . S
O100 Co98 2.053 . S
O100 H99 0.760 . S
H101 Co97 2.388 . S
H101 O102 0.760 . S
H101 Co103 2.400 . S
O102 Co97 2.053 . S
O102 Co98 2.126 . S
O102 H101 0.760 . S
O102 Co103 2.009 . S
Co103 H101 2.400 . S
Co103 O102 2.009 . S
Co103 O104 2.053 . S
Co103 O106 2.094 . S
Co103 O110 2.122 . S
Co103 O124 2.115 . S
Co103 O125 2.315 . S
O104 Co103 2.053 . S
O104 C116 1.259 . S
O105 Co97 2.047 . S
O105 C116 1.257 . S
O106 Co103 2.094 . S
O106 C117 1.253 . S
O107 Co98 2.063 . S
O107 C117 1.268 . S
O108 Co96 2.115 . S
O108 C118 1.281 . S
O109 Co96 2.315 . S
O109 C118 1.252 . S
O110 Co103 2.122 . S
O110 C119 1.272 . S
O111 Co97 2.113 . S
O111 C119 1.245 . S
C112 O120 1.259 . S
C112 O121 1.257 . S
C113 O122 1.268 . S
C113 O123 1.253 . S
C114 O124 1.281 . S
C114 O125 1.252 . S
C115 O126 1.272 . S
C115 O127 1.245 1_556 S
C116 O104 1.259 . S
C116 O105 1.257 . S
C117 O106 1.253 . S
C117 O107 1.268 . S
C118 O108 1.281 . S
C118 O109 1.252 . S
C119 O110 1.272 . S
C119 O111 1.245 . S
O120 Co96 2.053 . S
O120 C112 1.259 . S
O121 Co98 2.047 . S
O121 C112 1.257 . S
O122 Co97 2.063 . S
O122 C113 1.268 . S
O123 Co96 2.094 . S
O123 C113 1.253 . S
O124 Co103 2.115 . S
O124 C114 1.281 . S
O125 Co103 2.315 . S
O125 C114 1.252 . S
O126 Co96 2.122 1_556 S
O126 C115 1.272 . S
O127 Co98 2.113 . S
O127 C115 1.245 1_554 S
Co128 H131 2.400 . S
Co128 O132 2.009 . S
Co128 O140 2.115 . S
Co128 O141 2.315 . S
Co128 O152 2.053 . S
Co128 O155 2.094 . S
Co128 O158 2.122 1_554 S
Co129 O132 2.126 . S
Co129 H133 2.388 . S
Co129 O134 2.053 . S
Co129 O137 2.047 . S
Co129 O143 2.113 . S
Co129 O154 2.063 . S
Co130 H131 2.388 . S
Co130 O132 2.053 . S
Co130 O134 2.126 . S
Co130 O139 2.063 . S
Co130 O153 2.047 . S
Co130 O159 2.113 . S
H131 Co128 2.400 . S
H131 Co130 2.388 . S
H131 O132 0.760 . S
O132 Co128 2.009 . S
O132 Co129 2.126 . S
O132 Co130 2.053 . S
O132 H131 0.760 . S
H133 Co129 2.388 . S
H133 O134 0.760 . S
H133 Co135 2.400 . S
O134 Co129 2.053 . S
O134 Co130 2.126 . S
O134 H133 0.760 . S
O134 Co135 2.009 . S
Co135 H133 2.400 . S
Co135 O134 2.009 . S
Co135 O136 2.053 . S
Co135 O138 2.094 . S
Co135 O142 2.122 . S
Co135 O156 2.115 . S
Co135 O157 2.315 . S
O136 Co135 2.053 . S
O136 C148 1.259 . S
O137 Co129 2.047 . S
O137 C148 1.257 . S
O138 Co135 2.094 . S
O138 C149 1.253 . S
O139 Co130 2.063 . S
O139 C149 1.268 . S
O140 Co128 2.115 . S
O140 C150 1.281 . S
O141 Co128 2.315 . S
O141 C150 1.252 . S
O142 Co135 2.122 . S
O142 C151 1.272 . S
O143 Co129 2.113 . S
O143 C151 1.245 . S
C144 O152 1.259 . S
C144 O153 1.257 . S
C145 O154 1.268 . S
C145 O155 1.253 . S
C146 O156 1.281 . S
C146 O157 1.252 . S
C147 O158 1.272 . S
C147 O159 1.245 1_556 S
C148 O136 1.259 . S
C148 O137 1.257 . S
C149 O138 1.253 . S
C149 O139 1.268 . S
C150 O140 1.281 . S
C150 O141 1.252 . S
C151 O142 1.272 . S
C151 O143 1.245 . S
O152 Co128 2.053 . S
O152 C144 1.259 . S
O153 Co130 2.047 . S
O153 C144 1.257 . S
O154 Co129 2.063 . S
O154 C145 1.268 . S
O155 Co128 2.094 . S
O155 C145 1.253 . S
O156 Co135 2.115 . S
O156 C146 1.281 . S
O157 Co135 2.315 . S
O157 C146 1.252 . S
O158 Co128 2.122 1_556 S
O158 C147 1.272 . S
O159 Co130 2.113 . S
O159 C147 1.245 1_554 S
Co160 H163 2.400 . S
Co160 O164 2.009 . S
Co160 O172 2.115 . S
Co160 O173 2.315 . S
Co160 O184 2.053 . S
Co160 O187 2.094 . S
Co160 O190 2.122 1_554 S
Co161 O164 2.126 . S
Co161 H165 2.388 . S
Co161 O166 2.053 . S
Co161 O169 2.047 . S
Co161 O175 2.113 . S
Co161 O186 2.063 . S
Co162 H163 2.388 . S
Co162 O164 2.053 . S
Co162 O166 2.126 . S
Co162 O171 2.063 . S
Co162 O185 2.047 . S
Co162 O191 2.113 . S
H163 Co160 2.400 . S
H163 Co162 2.388 . S
H163 O164 0.760 . S
O164 Co160 2.009 . S
O164 Co161 2.126 . S
O164 Co162 2.053 . S
O164 H163 0.760 . S
H165 Co161 2.388 . S
H165 O166 0.760 . S
H165 Co167 2.400 . S
O166 Co161 2.053 . S
O166 Co162 2.126 . S
O166 H165 0.760 . S
O166 Co167 2.009 . S
Co167 H165 2.400 . S
Co167 O166 2.009 . S
Co167 O168 2.053 . S
Co167 O170 2.094 . S
Co167 O174 2.122 . S
Co167 O188 2.115 . S
Co167 O189 2.315 . S
O168 Co167 2.053 . S
O168 C180 1.259 . S
O169 Co161 2.047 . S
O169 C180 1.257 . S
O170 Co167 2.094 . S
O170 C181 1.253 . S
O171 Co162 2.063 . S
O171 C181 1.268 . S
O172 Co160 2.115 . S
O172 C182 1.281 . S
O173 Co160 2.315 . S
O173 C182 1.252 . S
O174 Co167 2.122 . S
O174 C183 1.272 . S
O175 Co161 2.113 . S
O175 C183 1.245 . S
C176 O184 1.259 . S
C176 O185 1.257 . S
C177 O186 1.268 . S
C177 O187 1.253 . S
C178 O188 1.281 . S
C178 O189 1.252 . S
C179 O190 1.272 . S
C179 O191 1.245 1_556 S
C180 O168 1.259 . S
C180 O169 1.257 . S
C181 O170 1.253 . S
C181 O171 1.268 . S
C182 O172 1.281 . S
C182 O173 1.252 . S
C183 O174 1.272 . S
C183 O175 1.245 . S
O184 Co160 2.053 . S
O184 C176 1.259 . S
O185 Co162 2.047 . S
O185 C176 1.257 . S
O186 Co161 2.063 . S
O186 C177 1.268 . S
O187 Co160 2.094 . S
O187 C177 1.253 . S
O188 Co167 2.115 . S
O188 C178 1.281 . S
O189 Co167 2.315 . S
O189 C178 1.252 . S
O190 Co160 2.122 1_556 S
O190 C179 1.272 . S
O191 Co162 2.113 . S
O191 C179 1.245 1_554 S
Co192 H195 2.400 . S
Co192 O196 2.009 . S
Co192 O204 2.115 1_565 S
Co192 O205 2.315 1_565 S
Co192 O216 2.053 1_565 S
Co192 O219 2.094 . S
Co192 O222 2.122 . S
Co193 O196 2.126 . S
Co193 H197 2.388 . S
Co193 O198 2.053 . S
Co193 O201 2.047 . S
Co193 O207 2.113 . S
Co193 O218 2.063 . S
Co194 H195 2.388 . S
Co194 O196 2.053 . S
Co194 O198 2.126 . S
Co194 O203 2.063 . S
Co194 O217 2.047 . S
Co194 O223 2.113 . S
H195 Co192 2.400 . S
H195 Co194 2.388 . S
H195 O196 0.760 . S
O196 Co192 2.009 . S
O196 Co193 2.126 . S
O196 Co194 2.053 . S
O196 H195 0.760 . S
H197 Co193 2.388 . S
H197 O198 0.760 . S
H197 Co199 2.400 . S
O198 Co193 2.053 . S
O198 Co194 2.126 . S
O198 H197 0.760 . S
O198 Co199 2.009 . S
Co199 H197 2.400 . S
Co199 O198 2.009 . S
Co199 O200 2.053 . S
Co199 O202 2.094 . S
Co199 O206 2.122 1_556 S
Co199 O220 2.115 . S
Co199 O221 2.315 . S
O200 Co199 2.053 . S
O200 C212 1.259 . S
O201 Co193 2.047 . S
O201 C212 1.257 . S
O202 Co199 2.094 . S
O202 C213 1.253 . S
O203 Co194 2.063 . S
O203 C213 1.268 . S
O204 Co192 2.115 1_545 S
O204 C214 1.281 . S
O205 Co192 2.315 1_545 S
O205 C214 1.252 . S
O206 Co199 2.122 1_554 S
O206 C215 1.272 . S
O207 Co193 2.113 . S
O207 C215 1.245 1_556 S
C208 O216 1.259 . S
C208 O217 1.257 1_545 S
C209 O218 1.268 . S
C209 O219 1.253 . S
C210 O220 1.281 . S
C210 O221 1.252 . S
C211 O222 1.272 . S
C211 O223 1.245 . S
C212 O200 1.259 . S
C212 O201 1.257 . S
C213 O202 1.253 . S
C213 O203 1.268 . S
C214 O204 1.281 . S
C214 O205 1.252 . S
C215 O206 1.272 . S
C215 O207 1.245 1_554 S
O216 Co192 2.053 1_545 S
O216 C208 1.259 . S
O217 Co194 2.047 . S
O217 C208 1.257 1_565 S
O218 Co193 2.063 . S
O218 C209 1.268 . S
O219 Co192 2.094 . S
O219 C209 1.253 . S
O220 Co199 2.115 . S
O220 C210 1.281 . S
O221 Co199 2.315 . S
O221 C210 1.252 . S
O222 Co192 2.122 . S
O222 C211 1.272 . S
O223 Co194 2.113 . S
O223 C211 1.245 . S
Co224 H227 2.400 . S
Co224 O228 2.009 . S
Co224 O236 2.115 1_455 S
Co224 O237 2.315 1_455 S
Co224 O248 2.053 1_455 S
Co224 O251 2.094 . S
Co224 O254 2.122 . S
Co225 O228 2.126 . S
Co225 H229 2.388 . S
Co225 O230 2.053 . S
Co225 O233 2.047 . S
Co225 O239 2.113 . S
Co225 O250 2.063 . S
Co226 H227 2.388 . S
Co226 O228 2.053 . S
Co226 O230 2.126 . S
Co226 O235 2.063 . S
Co226 O249 2.047 . S
Co226 O255 2.113 . S
H227 Co224 2.400 . S
H227 Co226 2.388 . S
H227 O228 0.760 . S
O228 Co224 2.009 . S
O228 Co225 2.126 . S
O228 Co226 2.053 . S
O228 H227 0.760 . S
H229 Co225 2.388 . S
H229 O230 0.760 . S
H229 Co231 2.400 . S
O230 Co225 2.053 . S
O230 Co226 2.126 . S
O230 H229 0.760 . S
O230 Co231 2.009 . S
Co231 H229 2.400 . S
Co231 O230 2.009 . S
Co231 O232 2.053 . S
Co231 O234 2.094 . S
Co231 O238 2.122 1_556 S
Co231 O252 2.115 . S
Co231 O253 2.315 . S
O232 Co231 2.053 . S
O232 C244 1.259 . S
O233 Co225 2.047 . S
O233 C244 1.257 . S
O234 Co231 2.094 . S
O234 C245 1.253 . S
O235 Co226 2.063 . S
O235 C245 1.268 . S
O236 Co224 2.115 1_655 S
O236 C246 1.281 . S
O237 Co224 2.315 1_655 S
O237 C246 1.252 . S
O238 Co231 2.122 1_554 S
O238 C247 1.272 . S
O239 Co225 2.113 . S
O239 C247 1.245 1_556 S
C240 O248 1.259 . S
C240 O249 1.257 1_655 S
C241 O250 1.268 . S
C241 O251 1.253 . S
C242 O252 1.281 . S
C242 O253 1.252 . S
C243 O254 1.272 . S
C243 O255 1.245 . S
C244 O232 1.259 . S
C244 O233 1.257 . S
C245 O234 1.253 . S
C245 O235 1.268 . S
C246 O236 1.281 . S
C246 O237 1.252 . S
C247 O238 1.272 . S
C247 O239 1.245 1_554 S
O248 Co224 2.053 1_655 S
O248 C240 1.259 . S
O249 Co226 2.047 . S
O249 C240 1.257 1_455 S
O250 Co225 2.063 . S
O250 C241 1.268 . S
O251 Co224 2.094 . S
O251 C241 1.253 . S
O252 Co231 2.115 . S
O252 C242 1.281 . S
O253 Co231 2.315 . S
O253 C242 1.252 . S
O254 Co224 2.122 . S
O254 C243 1.272 . S
O255 Co226 2.113 . S
O255 C243 1.245 . S
Co256 H259 2.400 . S
Co256 O260 2.009 . S
Co256 O268 2.115 . S
Co256 O269 2.315 . S
Co256 O280 2.053 . S
Co256 O283 2.094 . S
Co256 O286 2.122 . S
Co257 O260 2.126 . S
Co257 H261 2.388 . S
Co257 O262 2.053 . S
Co257 O265 2.047 . S
Co257 O271 2.113 . S
Co257 O282 2.063 . S
Co258 H259 2.388 . S
Co258 O260 2.053 . S
Co258 O262 2.126 . S
Co258 O267 2.063 . S
Co258 O281 2.047 . S
Co258 O287 2.113 . S
H259 Co256 2.400 . S
H259 Co258 2.388 . S
H259 O260 0.760 . S
O260 Co256 2.009 . S
O260 Co257 2.126 . S
O260 Co258 2.053 . S
O260 H259 0.760 . S
H261 Co257 2.388 . S
H261 O262 0.760 . S
H261 Co263 2.400 . S
O262 Co257 2.053 . S
O262 Co258 2.126 . S
O262 H261 0.760 . S
O262 Co263 2.009 . S
Co263 H261 2.400 . S
Co263 O262 2.009 . S
Co263 O264 2.053 . S
Co263 O266 2.094 . S
Co263 O270 2.122 1_556 S
Co263 O284 2.115 . S
Co263 O285 2.315 . S
O264 Co263 2.053 . S
O264 C276 1.259 . S
O265 Co257 2.047 . S
O265 C276 1.257 . S
O266 Co263 2.094 . S
O266 C277 1.253 . S
O267 Co258 2.063 . S
O267 C277 1.268 . S
O268 Co256 2.115 . S
O268 C278 1.281 . S
O269 Co256 2.315 . S
O269 C278 1.252 . S
O270 Co263 2.122 1_554 S
O270 C279 1.272 . S
O271 Co257 2.113 . S
O271 C279 1.245 1_556 S
C272 O280 1.259 . S
C272 O281 1.257 . S
C273 O282 1.268 . S
C273 O283 1.253 . S
C274 O284 1.281 . S
C274 O285 1.252 . S
C275 O286 1.272 . S
C275 O287 1.245 . S
C276 O264 1.259 . S
C276 O265 1.257 . S
C277 O266 1.253 . S
C277 O267 1.268 . S
C278 O268 1.281 . S
C278 O269 1.252 . S
C279 O270 1.272 . S
C279 O271 1.245 1_554 S
O280 Co256 2.053 . S
O280 C272 1.259 . S
O281 Co258 2.047 . S
O281 C272 1.257 . S
O282 Co257 2.063 . S
O282 C273 1.268 . S
O283 Co256 2.094 . S
O283 C273 1.253 . S
O284 Co263 2.115 . S
O284 C274 1.281 . S
O285 Co263 2.315 . S
O285 C274 1.252 . S
O286 Co256 2.122 . S
O286 C275 1.272 . S
O287 Co258 2.113 . S
O287 C275 1.245 . S
C17 C150 2.200 1_556 S
C182 C49 2.201 1_544 S
C81 C118 2.201 1_456 S
C53 C112 2.686 . S
C85 C144 2.687 . S
C21 C176 2.687 . S
C113 C246 2.200 . S
C278 C145 2.201 . S
C214 C177 2.200 . S
C149 C208 2.686 . S
C240 C181 2.686 . S
C272 C117 2.687 . S
C209 C54 2.200 . S
C241 C86 2.200 . S
C22 C273 2.200 . S
C16 C245 2.686 . S
C48 C277 2.687 . S
C213 C80 2.686 . S
C82 C20 1.724 . S
C18 C52 1.724 1_545 S
C50 C84 1.724 1_655 S
C178 C116 1.723 . S
C114 C148 1.724 . S
C146 C180 1.724 . S
C212 C274 1.724 . S
C244 C210 1.724 . S
C276 C242 1.724 . S
C19 C23 2.126 . S
C55 C51 2.126 . S
C83 C87 2.125 . S
C119 C115 2.125 . S
C147 C151 2.126 . S
C183 C179 2.125 . S
C211 C215 2.126 . S
C243 C247 2.126 . S
C275 C279 2.125 . S
