# Generated by pormake.
# Topology vby, (6)-cn, num edge types: 1
# Building blocks:
#     Node 0, Type 0, BuildingBlock: PAMTUU_clean_sbu_0, # of connection points: 6
#     Node 1, Type 0, BuildingBlock: PAMTUU_clean_sbu_0, # of connection points: 6
#     Node 2, Type 0, BuildingBlock: PAMTUU_clean_sbu_0, # of connection points: 6
#     Node 3, Type 0, BuildingBlock: PAMTUU_clean_sbu_0, # of connection points: 6
#     Node 4, Type 0, BuildingBlock: PAMTUU_clean_sbu_0, # of connection points: 6
#     Node 5, Type 0, BuildingBlock: PAMTUU_clean_sbu_0, # of connection points: 6
#     Node 6, Type 0, BuildingBlock: PAMTUU_clean_sbu_0, # of connection points: 6
#     Node 7, Type 0, BuildingBlock: PAMTUU_clean_sbu_0, # of connection points: 6
#     Edge 8, Type (0, 0), BuildingBlock: TEMPAE_clean_linker_10, # of connection points: 2
#     Edge 9, Type (0, 0), BuildingBlock: TEMPAE_clean_linker_10, # of connection points: 2
#     Edge 10, Type (0, 0), BuildingBlock: TEMPAE_clean_linker_10, # of connection points: 2
#     Edge 11, Type (0, 0), BuildingBlock: TEMPAE_clean_linker_10, # of connection points: 2
#     Edge 12, Type (0, 0), BuildingBlock: TEMPAE_clean_linker_10, # of connection points: 2
#     Edge 13, Type (0, 0), BuildingBlock: TEMPAE_clean_linker_10, # of connection points: 2
#     Edge 14, Type (0, 0), BuildingBlock: TEMPAE_clean_linker_10, # of connection points: 2
#     Edge 15, Type (0, 0), BuildingBlock: TEMPAE_clean_linker_10, # of connection points: 2
#     Edge 16, Type (0, 0), BuildingBlock: TEMPAE_clean_linker_10, # of connection points: 2
#     Edge 17, Type (0, 0), BuildingBlock: TEMPAE_clean_linker_10, # of connection points: 2
#     Edge 18, Type (0, 0), BuildingBlock: TEMPAE_clean_linker_10, # of connection points: 2
#     Edge 19, Type (0, 0), BuildingBlock: TEMPAE_clean_linker_10, # of connection points: 2
#     Edge 20, Type (0, 0), BuildingBlock: TEMPAE_clean_linker_10, # of connection points: 2
#     Edge 21, Type (0, 0), BuildingBlock: TEMPAE_clean_linker_10, # of connection points: 2
#     Edge 22, Type (0, 0), BuildingBlock: TEMPAE_clean_linker_10, # of connection points: 2
#     Edge 23, Type (0, 0), BuildingBlock: TEMPAE_clean_linker_10, # of connection points: 2
#     Edge 24, Type (0, 0), BuildingBlock: TEMPAE_clean_linker_10, # of connection points: 2
#     Edge 25, Type (0, 0), BuildingBlock: TEMPAE_clean_linker_10, # of connection points: 2
#     Edge 26, Type (0, 0), BuildingBlock: TEMPAE_clean_linker_10, # of connection points: 2
#     Edge 27, Type (0, 0), BuildingBlock: TEMPAE_clean_linker_10, # of connection points: 2
#     Edge 28, Type (0, 0), BuildingBlock: TEMPAE_clean_linker_10, # of connection points: 2
#     Edge 29, Type (0, 0), BuildingBlock: TEMPAE_clean_linker_10, # of connection points: 2
#     Edge 30, Type (0, 0), BuildingBlock: TEMPAE_clean_linker_10, # of connection points: 2
#     Edge 31, Type (0, 0), BuildingBlock: TEMPAE_clean_linker_10, # of connection points: 2
# Relax obj value: 0.142
# Max RMSD: 0.181
# Mean RMSD: 0.181
data_MOF--net-vby--node1-PAMTUU_clean_sbu_0--edge1-TEMPAE_clean_linker_10
_symmetry_space_group_name_H-M    P1
_symmetry_Int_Tables_number       1
_symmetry_cell_setting            triclinic
loop_
_symmetry_equiv_pos_as_xyz
'x, y, z'
_cell_length_a     15.465441
_cell_length_b     104.28729
_cell_length_c     30.416871
_cell_angle_alpha  90.071052
_cell_angle_beta   81.869529
_cell_angle_gamma 90.017645
loop_
_atom_site_label
_atom_site_type_symbol
_atom_site_fract_x
_atom_site_fract_y
_atom_site_fract_z
_atom_type_partial_charge
Tb0 Tb 0.07771 0.37644 0.01799 0.0
Tb1 Tb 0.08677 0.40814 0.01381 0.0
C2 C 0.08293 0.39178 0.93085 0.0
C3 C 0.11206 0.33996 0.02271 0.0
C4 C 0.17433 0.31485 0.03313 0.0
C5 C 0.14792 0.3187 -0.00716 0.0
C6 C 0.11708 0.33109 0.98776 0.0
C7 C 0.14128 0.33633 0.06263 0.0
C8 C 0.17268 0.32387 0.06769 0.0
C9 C 0.06722 0.35225 0.01757 0.0
O10 O 0.21616 0.38081 -1e-05 0.0
O11 O 0.21405 0.40153 0.02603 0.0
O12 O 0.03504 0.40277 0.08136 0.0
O13 O 0.10619 0.38348 0.08165 0.0
O14 O 0.06464 0.42541 0.98146 0.0
O15 O 0.13448 0.42518 0.03827 0.0
O16 O 0.95079 0.4036 0.00908 0.0
O17 O 0.94353 0.38286 0.03611 0.0
O18 O 0.0397 0.38315 0.95623 0.0
O19 O 0.12981 0.40039 0.94811 0.0
C20 C 0.25623 0.391 0.01275 0.0
O21 O 0.04321 0.35932 0.05263 0.0
O22 O 0.09537 0.35912 0.98268 0.0
C23 C 0.06728 0.39337 0.10279 0.0
C24 C 0.06958 0.44506 0.0224 0.0
C25 C 1.02988 0.4714 0.03517 0.0
C26 C 0.09779 0.46575 0.05461 0.0
C27 C 0.11736 0.45275 0.04825 0.0
C28 C 0.99891 0.4505 0.00465 0.0
C29 C 0.97905 0.46354 0.01115 0.0
C30 C 0.10413 0.43223 0.00861 0.0
C31 C 0.90608 0.39332 0.02359 0.0
H32 H 0.14986 0.31204 0.96534 0.0
H33 H 0.09449 0.33363 0.95676 0.0
H34 H 0.13765 0.34297 0.09025 0.0
H35 H 0.19255 0.32116 0.09913 0.0
H36 H 0.13921 0.4715 0.07274 0.0
H37 H 0.17315 0.44888 0.06166 0.0
H38 H 0.96121 0.44485 0.98427 0.0
H39 H 0.92547 0.46754 -0.00374 0.0
Tb40 Tb 0.98189 0.63134 0.00884 0.0
Tb41 Tb 0.98269 0.66239 0.02806 0.0
C42 C 0.99317 0.6513 0.93128 0.0
C43 C 0.99589 0.59458 0.00741 0.0
C44 C 1.01607 0.56817 0.02412 0.0
C45 C 0.05699 0.57372 0.98444 0.0
C46 C 0.04658 0.58677 0.9761 0.0
C47 C 0.95904 0.58918 0.04817 0.0
C48 C 0.969 0.57611 0.05639 0.0
C49 C 0.97034 0.60754 -0.00584 0.0
O50 O 0.11906 0.63723 -0.00353 0.0
O51 O 0.11001 0.65545 0.03943 0.0
O52 O 0.95035 0.65245 0.0915 0.0
O53 O 1.01653 0.63302 0.07529 0.0
O54 O 0.04292 0.68044 0.01908 0.0
O55 O 0.92315 0.67796 0.06432 0.0
O56 O 0.85689 0.65825 0.007 0.0
O57 O 0.84929 0.63774 0.03301 0.0
O58 O 0.95731 0.64062 0.94792 0.0
O59 O 1.02141 0.66014 0.95666 0.0
C60 C 0.15611 0.64633 0.01742 0.0
O61 O 0.91607 0.61398 0.02255 0.0
O62 O 1.02968 0.61492 0.97244 0.0
C63 C 0.98573 0.64184 0.10412 0.0
C64 C 0.9518 0.69864 0.03427 0.0
C65 C 0.8937 0.72325 0.01376 0.0
C66 C 0.92729 0.72103 0.05367 0.0
C67 C 0.9559 0.70886 0.06377 0.0
C68 C 0.91889 0.70072 -0.00583 0.0
C69 C 0.89023 0.71299 0.9839 0.0
C70 C 0.98252 0.68603 0.0468 0.0
C71 C 0.81113 0.64799 0.01973 0.0
H72 H 0.09309 0.56783 0.95878 0.0
H73 H 0.07463 0.59063 0.94419 0.0
H74 H 0.9192 0.5949 0.073 0.0
H75 H 0.93768 0.57214 0.08751 0.0
H76 H 0.93234 0.72876 0.07701 0.0
H77 H 0.98149 0.70742 0.09478 0.0
H78 H 0.9152 0.6929 0.97104 0.0
H79 H 0.86424 0.71439 0.95302 0.0
Tb80 Tb 0.09746 0.63205 0.51897 0.0
Tb81 Tb 0.09655 0.66309 0.50014 0.0
C82 C 0.08777 0.65199 0.59646 0.0
C83 C 0.07792 0.59529 0.52745 0.0
C84 C 0.05368 0.56871 0.5167 0.0
C85 C 0.04442 0.57422 0.5593 0.0
C86 C 0.05653 0.58736 0.56458 0.0
C87 C 0.08202 0.58996 0.48469 0.0
C88 C 0.06961 0.57677 0.47938 0.0
C89 C 0.10934 0.60838 0.53466 0.0
O90 O 0.96001 0.6378 0.53122 0.0
O91 O 0.96853 0.65627 0.48947 0.0
O92 O 0.12647 0.65316 0.43642 0.0
O93 O 0.06029 0.63376 0.4531 0.0
O94 O 0.0374 0.68119 0.50979 0.0
O95 O 0.15628 0.67865 0.46387 0.0
O96 O 0.22287 0.65887 0.52046 0.0
O97 O 0.23018 0.63831 0.4946 0.0
O98 O 0.12505 0.64148 0.57917 0.0
O99 O 0.05795 0.66077 0.5715 0.0
C100 C 0.92278 0.64702 0.51094 0.0
O101 O 0.15422 0.61425 0.50112 0.0
O102 O 0.05834 0.61617 0.55995 0.0
C103 C 0.09062 0.64254 0.42408 0.0
C104 C 0.13104 0.69922 0.49573 0.0
C105 C 0.18671 0.72383 0.51836 0.0
C106 C 0.17901 0.72075 0.47407 0.0
C107 C 0.15154 0.70858 0.46294 0.0
C108 C 0.13933 0.70214 0.54004 0.0
C109 C 0.16679 0.71438 0.55129 0.0
C110 C 0.09827 0.68678 0.48238 0.0
C111 C 0.2685 0.6486 0.50756 0.0
H112 H 1.03065 0.56828 0.58866 0.0
H113 H 0.05352 0.59123 0.59784 0.0
H114 H 0.09884 0.59585 0.45542 0.0
H115 H 0.07718 0.57278 0.44616 0.0
H116 H 0.19234 0.72784 0.44801 0.0
H117 H 0.14504 0.70653 0.42862 0.0
H118 H 0.12395 0.69501 0.56585 0.0
H119 H 0.17273 0.71644 0.58564 0.0
Tb120 Tb 1.00342 0.3768 0.52167 0.0
Tb121 Tb 0.99431 0.4084 0.52612 0.0
C122 C 0.99858 0.39199 0.60861 0.0
C123 C 0.96021 0.34067 0.51903 0.0
C124 C 0.88916 0.31581 0.51464 0.0
C125 C 0.88815 0.32202 0.5557 0.0
C126 C 0.92347 0.33427 0.55788 0.0
C127 C 0.95823 0.33468 0.47774 0.0
C128 C 0.92256 0.32238 0.47556 0.0
C129 C 1.01082 0.35258 0.52271 0.0
O130 O 0.86504 0.3813 0.53967 0.0
O131 O 0.86746 0.4019 0.51289 0.0
O132 O 0.04573 0.40317 0.4583 0.0
O133 O 0.97634 0.38373 0.45776 0.0
O134 O 1.00871 0.42526 0.5625 0.0
O135 O 0.95509 0.42579 0.50048 0.0
O136 O 0.13052 0.40388 0.5304 0.0
O137 O 0.13765 0.38315 0.50308 0.0
O138 O 0.04287 0.38352 0.58303 0.0
O139 O 0.95045 0.40042 0.59141 0.0
C140 C 0.82511 0.39141 0.52633 0.0
O141 O 1.03374 0.35947 0.48715 0.0
O142 O 0.9881 0.35969 0.55772 0.0
C143 C 1.01472 0.39366 0.43671 0.0
C144 C 1.01197 0.44549 0.5253 0.0
C145 C 0.03923 0.47211 0.51406 0.0
C146 C 0.03906 0.46408 0.47689 0.0
C147 C 1.02495 0.45087 0.48246 0.0
C148 C 1.01791 0.45342 0.56204 0.0
C149 C 1.0314 0.46658 0.55651 0.0
C150 C 0.97669 0.43242 0.53362 0.0
C151 C 0.17522 0.39361 0.51556 0.0
H152 H 0.86179 0.31726 0.58634 0.0
H153 H 0.92491 0.33854 0.59027 0.0
H154 H 0.98717 0.33926 0.44723 0.0
H155 H 0.92477 0.3178 0.44345 0.0
H156 H 0.04486 0.46812 0.4438 0.0
H157 H 1.01994 0.44501 0.45351 0.0
H158 H 1.00726 0.44955 0.59542 0.0
H159 H 1.03255 0.47252 0.58568 0.0
Tb160 Tb 0.57896 0.87506 0.01402 0.0
Tb161 Tb 0.5859 0.90658 0.02199 0.0
C162 C 0.58112 0.89286 0.9318 0.0
C163 C 0.62861 0.83932 -0.0021 0.0
C164 C 0.7079 0.81495 0.98343 0.0
C165 C 0.65694 0.82006 0.95286 0.0
C166 C 0.61746 0.83208 0.96013 0.0
C167 C 0.68296 0.8345 0.02737 0.0
C168 C 0.72219 0.82246 0.02018 0.0
C169 C 0.57396 0.85084 0.00919 0.0
O170 O 0.71165 0.87951 0.02503 0.0
O171 O 0.71818 0.90015 -0.00124 0.0
O172 O 0.61446 0.898 0.08312 0.0
O173 O 0.5256 0.88077 0.08125 0.0
O174 O 0.63946 0.92401 -0.00274 0.0
O175 O 0.55419 0.92323 0.06019 0.0
O176 O 0.44637 0.90205 0.03364 0.0
O177 O 0.44835 0.88129 0.00655 0.0
O178 O 0.61951 0.88299 0.94789 0.0
O179 O 0.54875 0.90231 0.9576 0.0
C180 C 0.7564 0.88979 0.01115 0.0
O181 O 0.58511 0.85719 0.04487 0.0
O182 O 0.56024 0.85846 0.97696 0.0
C183 C 0.56571 0.88902 0.10387 0.0
C184 C 0.56647 0.94342 0.0224 0.0
C185 C 0.53746 0.9699 0.0115 0.0
C186 C 0.51467 0.96404 0.05312 0.0
C187 C 0.52939 0.95095 0.05852 0.0
C188 C 0.5844 0.94912 0.9802 0.0
C189 C 0.56992 0.96222 0.97483 0.0
C190 C 0.60029 0.93054 0.03092 0.0
C191 C 0.40666 0.89187 0.02018 0.0
H192 H 0.64559 0.81461 0.92388 0.0
H193 H 0.57534 0.8355 0.93706 0.0
H194 H 0.6923 0.83976 0.05707 0.0
H195 H 0.76009 0.81878 0.04472 0.0
H196 H 0.49026 0.96971 0.0821 0.0
H197 H 0.51624 0.94688 0.09154 0.0
H198 H 0.61357 0.94361 0.9517 0.0
H199 H 0.58691 0.96643 0.94221 0.0
Tb200 Tb 0.48163 0.13024 -0.00289 0.0
Tb201 Tb 0.4889 0.16169 0.00561 0.0
C202 C 0.50065 0.14787 0.91594 0.0
C203 C 0.50293 0.09335 -0.00738 0.0
C204 C 0.53372 0.06672 -0.00248 0.0
C205 C 0.55468 0.07332 0.95716 0.0
C206 C 0.53921 0.08648 0.95473 0.0
C207 C 0.48684 0.08691 0.03358 0.0
C208 C 0.50246 0.07373 0.03602 0.0
C209 C 0.46748 0.10632 0.98712 0.0
O210 O 0.62115 0.13484 0.98485 0.0
O211 O 0.61867 0.15532 0.01424 0.0
O212 O 0.44719 0.15366 0.07154 0.0
O213 O 0.51974 0.13448 0.06143 0.0
O214 O 0.48674 0.17951 0.97405 0.0
O215 O 0.50531 0.17834 0.04292 0.0
O216 O 0.35576 0.15732 -0.00505 0.0
O217 O 0.34938 0.13662 0.02076 0.0
O218 O 0.45076 0.13903 0.93666 0.0
O219 O 0.54282 0.15585 0.93849 0.0
C220 C 0.66068 0.14487 -0.00044 0.0
O221 O 0.43264 0.11258 0.02243 0.0
O222 O 0.50941 0.11387 0.95717 0.0
C223 C 0.48601 0.1438 0.08736 0.0
C224 C 0.44262 0.1977 0.01932 0.0
C225 C 0.36972 0.22255 0.03139 0.0
C226 C 0.40671 0.21657 0.06571 0.0
C227 C 0.44328 0.20431 0.05962 0.0
C228 C 0.40178 0.20345 0.98586 0.0
C229 C 0.36566 0.21571 -0.00813 0.0
C230 C 0.49561 0.18592 0.00993 0.0
C231 C 0.311 0.14702 0.00879 0.0
H232 H 0.58009 0.06821 0.92706 0.0
H233 H 0.55132 0.09113 0.92261 0.0
H234 H 0.45783 0.09189 0.06332 0.0
H235 H 0.48519 0.06891 0.06756 0.0
H236 H 0.41131 0.22163 0.09642 0.0
H237 H 0.47545 0.20023 0.08576 0.0
H238 H 0.4007 0.19871 0.95423 0.0
H239 H 0.33647 0.22 0.96506 0.0
Tb240 Tb 0.57845 0.13122 0.4947 0.0
Tb241 Tb 0.57193 0.16313 0.49299 0.0
C242 C 0.55791 0.14756 0.58157 0.0
C243 C 0.55508 0.09437 0.50642 0.0
C244 C 0.52074 0.0682 0.52629 0.0
C245 C 0.53477 0.0769 0.56001 0.0
C246 C 0.55204 0.08985 0.55017 0.0
C247 C 0.53639 0.08583 0.47333 0.0
C248 C 0.51933 0.07292 0.4831 0.0
C249 C 0.59263 0.10704 0.49286 0.0
O250 O 0.44295 0.13577 0.48935 0.0
O251 O 0.43689 0.15713 0.51022 0.0
O252 O 0.53869 0.15584 0.43088 0.0
O253 O 0.62219 0.13777 0.4274 0.0
O254 O 0.53549 0.18078 0.52369 0.0
O255 O 0.5966 0.17988 0.45531 0.0
O256 O 0.71008 0.15831 0.47794 0.0
O257 O 0.70634 0.1378 0.50594 0.0
O258 O 0.52959 0.13745 0.56187 0.0
O259 O 0.59444 0.15739 0.55906 0.0
C260 C 0.39911 0.14637 0.5008 0.0
O261 O 0.55762 0.11365 0.46358 0.0
O262 O 0.62009 0.11435 0.5228 0.0
C263 C 0.58078 0.1466 0.40795 0.0
C264 C 0.61747 0.19911 0.49442 0.0
C265 C 0.69222 0.22359 0.50269 0.0
C266 C 0.69545 0.21774 0.46085 0.0
C267 C 0.65824 0.20568 0.45677 0.0
C268 C 0.6166 0.20476 0.53648 0.0
C269 C 0.6538 0.21687 0.54056 0.0
C270 C 0.56707 0.18732 0.48851 0.0
C271 C 0.74903 0.14822 0.49198 0.0
H272 H 0.53507 0.07362 0.59376 0.0
H273 H 0.56681 0.09616 0.57642 0.0
H274 H 0.53982 0.08899 0.43919 0.0
H275 H 0.51004 0.06651 0.45613 0.0
H276 H 0.72337 0.22272 0.43096 0.0
H277 H 0.65856 0.20169 0.42383 0.0
H278 H 0.58496 0.20002 0.56613 0.0
H279 H 0.65114 0.22106 0.57331 0.0
Tb280 Tb 0.48245 0.87662 0.52821 0.0
Tb281 Tb 0.47607 0.90821 0.52112 0.0
C282 C 0.47966 0.89422 0.61094 0.0
C283 C 0.43174 0.84079 0.5394 0.0
C284 C 0.35147 0.81637 0.55005 0.0
C285 C 0.38071 0.8226 0.58627 0.0
C286 C 0.42074 0.83465 0.58096 0.0
C287 C 0.39939 0.83478 0.50367 0.0
C288 C 0.35964 0.82275 0.50894 0.0
C289 C 0.48732 0.85237 0.53175 0.0
O290 O 0.35034 0.88113 0.51645 0.0
O291 O 0.34343 0.90174 0.54334 0.0
O292 O 0.44828 0.89977 0.45937 0.0
O293 O 0.53652 0.88249 0.46146 0.0
O294 O 0.42577 0.92572 0.54729 0.0
O295 O 0.50575 0.92487 0.48279 0.0
O296 O 0.61533 0.90353 0.50913 0.0
O297 O 0.6125 0.88287 0.53699 0.0
O298 O 0.44101 0.88446 0.59434 0.0
O299 O 0.5125 0.90372 0.58559 0.0
C300 C 0.30545 0.8914 0.53051 0.0
O301 O 0.48287 0.85891 0.49567 0.0
O302 O 0.49456 0.85985 0.56541 0.0
C303 C 0.49633 0.89067 0.43877 0.0
C304 C 0.49615 0.94515 0.52001 0.0
C305 C 0.52734 0.97158 0.53189 0.0
C306 C 0.52946 0.96636 0.48907 0.0
C307 C 0.51403 0.95332 0.48327 0.0
C308 C 0.49807 0.95017 0.5628 0.0
C309 C 0.51376 0.96325 0.56865 0.0
C310 C 0.46196 0.9322 0.51287 0.0
C311 C 0.65466 0.89337 0.52297 0.0
H312 H 0.37458 0.81803 0.61851 0.0
H313 H 0.44588 0.83895 0.60903 0.0
H314 H 0.40804 0.83911 0.47099 0.0
H315 H 0.33925 0.81817 0.48012 0.0
H316 H 0.53835 0.97247 0.46 0.0
H317 H 0.51153 0.94974 0.45 0.0
H318 H 0.48405 0.94411 0.59183 0.0
H319 H 0.51293 0.96691 0.60204 0.0
C320 C 0.38746 0.39913 0.04299 0.0
C321 C 0.35149 0.39068 0.01451 0.0
C322 C 0.47741 0.39935 0.04502 0.0
C323 C 0.53342 0.39105 0.01734 0.0
C324 C 0.49769 0.38245 0.98855 0.0
C325 C 0.40686 0.38227 0.98781 0.0
C326 C 0.51248 0.40849 0.07681 0.0
C327 C 0.55558 0.37358 0.9581 0.0
C328 C 0.772 0.40114 -0.00544 0.0
C329 C 0.81037 0.39309 0.02327 0.0
C330 C 0.68231 0.40037 -0.00844 0.0
C331 C 0.62939 0.39151 0.01854 0.0
C332 C 0.6676 0.38349 0.048 0.0
C333 C 0.75773 0.38429 0.0497 0.0
C334 C 0.64426 0.40898 0.95933 0.0
C335 C 0.61315 0.37412 0.07799 0.0
H336 H 0.34501 0.40557 0.06416 0.0
H337 H 0.37947 0.37575 0.96564 0.0
H338 H 0.54948 0.40311 0.09949 0.0
H339 H 0.5585 0.41536 0.05807 0.0
H340 H 0.4598 0.41401 0.09711 0.0
H341 H 0.51777 0.3675 0.93762 0.0
H342 H 0.60373 0.37928 0.93562 0.0
H343 H 0.59306 0.36726 0.97782 0.0
H344 H 0.81247 0.40784 0.97358 0.0
H345 H 0.78693 0.37805 0.07201 0.0
H346 H 0.59455 0.41542 0.97765 0.0
H347 H 0.61076 0.40313 0.93635 0.0
H348 H 0.69482 0.41496 0.93941 0.0
H349 H 0.5616 0.37934 0.10006 0.0
H350 H 0.65286 0.36853 0.09892 0.0
H351 H 0.57978 0.36733 0.05786 0.0
C352 C 0.30781 0.63929 0.9856 0.0
C353 C 0.25227 0.64626 0.01748 0.0
C354 C 0.39908 0.63955 0.98485 0.0
C355 C 0.43568 0.64678 0.01718 0.0
C356 C 0.37976 0.65368 0.04978 0.0
C357 C 0.28906 0.65341 0.04933 0.0
C358 C 0.45643 0.63217 0.94925 0.0
C359 C 0.41571 0.66133 0.08532 0.0
C360 C 0.66339 0.63813 0.04176 0.0
C361 C 0.71504 0.64783 0.01935 0.0
C362 C 0.57266 0.63768 0.04131 0.0
C363 C 0.53233 0.64705 0.01734 0.0
C364 C 0.58412 0.65682 -0.00562 0.0
C365 C 0.67466 0.65715 -0.00408 0.0
C366 C 0.51983 0.62723 0.06683 0.0
C367 C 0.54388 0.6669 0.96805 0.0
H368 H 0.28008 0.6338 0.96073 0.0
H369 H 0.24678 0.65875 0.07436 0.0
H370 H 0.5034 0.63878 0.92981 0.0
H371 H 0.49522 0.62494 0.96468 0.0
H372 H 0.41807 0.62719 0.92611 0.0
H373 H 0.36341 0.666 0.10869 0.0
H374 H 0.454 0.65498 0.10457 0.0
H375 H 0.46078 0.66884 0.06982 0.0
H376 H 0.69377 0.63091 0.06008 0.0
H377 H 0.71401 0.66462 0.97824 0.0
H378 H 0.48527 0.62148 0.04402 0.0
H379 H 0.46929 0.63154 0.09205 0.0
H380 H 0.56095 0.62069 0.08391 0.0
H381 H 0.50923 0.66226 0.94271 0.0
H382 H 0.59333 0.67364 0.95106 0.0
H383 H 0.49474 0.6725 0.99033 0.0
C384 C 0.77121 0.63985 0.54228 0.0
C385 C 0.82673 0.6469 0.51071 0.0
C386 C 0.68 0.64006 0.54285 0.0
C387 C 0.64352 0.64733 0.51064 0.0
C388 C 0.69945 0.6543 0.47832 0.0
C389 C 0.79006 0.65407 0.47895 0.0
C390 C 0.62257 0.6326 0.57815 0.0
C391 C 0.6636 0.66199 0.44291 0.0
C392 C 0.41616 0.63875 0.48543 0.0
C393 C 0.3645 0.64842 0.50802 0.0
C394 C 0.50681 0.63828 0.48605 0.0
C395 C 0.54697 0.64759 0.51038 0.0
C396 C 0.49515 0.65733 0.53352 0.0
C397 C 0.40471 0.65769 0.5318 0.0
C398 C 0.55975 0.62786 0.46032 0.0
C399 C 0.53524 0.66737 0.56023 0.0
H400 H 0.79889 0.63433 0.56706 0.0
H401 H 0.83237 0.65947 0.45415 0.0
H402 H 0.57549 0.63917 0.59776 0.0
H403 H 0.5839 0.6254 0.56243 0.0
H404 H 0.66087 0.62758 0.60117 0.0
H405 H 0.71594 0.6667 0.41969 0.0
H406 H 0.62542 0.65566 0.42347 0.0
H407 H 0.61844 0.66948 0.45855 0.0
H408 H 0.38584 0.63156 0.46684 0.0
H409 H 0.36532 0.66514 0.54964 0.0
H410 H 0.5942 0.62207 0.48302 0.0
H411 H 0.61037 0.6322 0.43526 0.0
H412 H 0.51872 0.62134 0.44301 0.0
H413 H 0.5698 0.66267 0.58546 0.0
H414 H 0.48572 0.67407 0.5774 0.0
H415 H 0.58443 0.673 0.53818 0.0
C416 C 0.69407 0.39948 0.49581 0.0
C417 C 0.72991 0.39106 0.52437 0.0
C418 C 0.60416 0.39967 0.49364 0.0
C419 C 0.54806 0.39138 0.52125 0.0
C420 C 0.58368 0.3828 0.55008 0.0
C421 C 0.67446 0.38265 0.55098 0.0
C422 C 0.5692 0.40878 0.46181 0.0
C423 C 0.52571 0.37395 0.58046 0.0
C424 C 0.30956 0.40147 0.54431 0.0
C425 C 0.271 0.39341 0.51566 0.0
C426 C 0.39931 0.40072 0.54714 0.0
C427 C 0.4521 0.39186 0.52008 0.0
C428 C 0.41372 0.38382 0.49065 0.0
C429 C 0.32353 0.38461 0.4891 0.0
C430 C 0.43755 0.40935 0.57933 0.0
C431 C 0.46804 0.37444 0.46057 0.0
H432 H 0.73657 0.40591 0.4747 0.0
H433 H 0.70175 0.37616 0.5732 0.0
H434 H 0.53212 0.40339 0.43915 0.0
H435 H 0.52328 0.41568 0.48053 0.0
H436 H 0.62195 0.41428 0.44149 0.0
H437 H 0.56346 0.36785 0.60088 0.0
H438 H 0.47763 0.37965 0.60299 0.0
H439 H 0.48816 0.36763 0.56069 0.0
H440 H 0.2692 0.40818 0.56538 0.0
H441 H 0.29417 0.37836 0.46683 0.0
H442 H 0.48731 0.41577 0.56098 0.0
H443 H 0.47101 0.40351 0.60231 0.0
H444 H 0.38711 0.41536 0.59927 0.0
H445 H 0.51961 0.37966 0.43851 0.0
H446 H 0.42822 0.36886 0.43961 0.0
H447 H 0.50137 0.36765 0.48063 0.0
C448 C 0.90396 0.89926 0.98635 0.0
C449 C 0.85219 0.89004 0.01125 0.0
C450 C 0.99424 0.9 0.9876 0.0
C451 C 1.03355 0.89146 0.01501 0.0
C452 C 0.98159 0.88217 0.04039 0.0
C453 C 0.89168 0.88149 0.0379 0.0
C454 C 0.04768 0.90986 0.95931 0.0
C455 C 1.02093 0.87298 0.07039 0.0
C456 C 0.27587 0.88432 0.98829 0.0
C457 C 0.31151 0.89224 0.01846 0.0
C458 C 0.18586 0.88415 0.98639 0.0
C459 C 0.12958 0.89193 0.01591 0.0
C460 C 0.16507 0.90003 0.04633 0.0
C461 C 0.25591 0.90019 0.04692 0.0
C462 C 0.15102 0.87559 0.95281 0.0
C463 C 0.10694 0.90834 0.07871 0.0
H464 H 0.87396 0.90588 0.96558 0.0
H465 H 0.85197 0.87443 0.0576 0.0
H466 H 0.08106 0.91631 0.98058 0.0
H467 H 0.09919 0.90502 0.93602 0.0
H468 H 1.0072 0.91578 0.93975 0.0
H469 H 0.97111 0.86663 0.08917 0.0
H470 H 0.07076 0.8669 0.05046 0.0
H471 H 0.05455 0.87841 0.09443 0.0
H472 H 0.31862 0.87828 0.96574 0.0
H473 H 0.28315 0.90629 0.07037 0.0
H474 H 0.11316 0.88135 0.93154 0.0
H475 H 0.10583 0.86837 0.97015 0.0
H476 H 0.2039 0.87048 0.93114 0.0
H477 H 0.06862 0.91496 0.06048 0.0
H478 H 0.14465 0.91409 0.10021 0.0
H479 H 0.05954 0.90225 0.10016 0.0
C480 C 0.16397 0.13724 0.03262 0.0
C481 C 0.21503 0.14679 0.00905 0.0
C482 C 0.07365 0.13647 0.03149 0.0
C483 C 1.03345 0.14536 0.00565 0.0
C484 C 0.08458 0.15503 0.98177 0.0
C485 C 0.17462 0.15568 0.98402 0.0
C486 C 1.02117 0.12619 0.05811 0.0
C487 C 0.04423 0.16462 0.95358 0.0
C488 C 0.81203 0.13695 0.9719 0.0
C489 C 0.75567 0.14442 0.00167 0.0
C490 C 0.9028 0.13715 0.97273 0.0
C491 C 0.93744 0.1448 0.00466 0.0
C492 C 0.88032 0.15206 0.03557 0.0
C493 C 0.79039 0.15186 0.03345 0.0
C494 C 0.96178 0.12937 0.93897 0.0
C495 C 0.9142 0.16012 0.07076 0.0
H496 H 0.19458 0.13035 0.05217 0.0
H497 H 0.21367 0.16302 0.96537 0.0
H498 H 0.96917 0.13065 0.08216 0.0
H499 H 0.98844 0.12 0.03577 0.0
H500 H 0.06222 0.12005 0.07667 0.0
H501 H 0.09334 0.17131 0.93605 0.0
H502 H 1.0112 0.15953 0.92854 0.0
H503 H 0.99374 0.17031 0.97464 0.0
H504 H 0.78544 0.13121 0.94724 0.0
H505 H 0.74696 0.15752 0.05702 0.0
H506 H 1.00086 0.12255 0.95605 0.0
H507 H 1.00846 0.13581 0.91857 0.0
H508 H 0.92465 0.12387 0.91653 0.0
H509 H 0.95283 0.15408 0.09087 0.0
H510 H 0.86074 0.16479 0.09341 0.0
H511 H 0.95845 0.16767 0.05484 0.0
C512 C 0.25126 0.15559 0.52629 0.0
C513 C 0.30334 0.14647 0.50102 0.0
C514 C 0.16091 0.15623 0.52519 0.0
C515 C 0.12198 0.14771 0.49746 0.0
C516 C 0.17431 0.13852 0.47173 0.0
C517 C 0.26424 0.13792 0.47418 0.0
C518 C 0.10705 0.16597 0.5539 0.0
C519 C 0.13543 0.12939 0.44129 0.0
C520 C 0.87976 0.14044 0.52345 0.0
C521 C 0.84421 0.1485 0.49372 0.0
C522 C 0.96974 0.14026 0.52545 0.0
C523 C 1.02605 0.14815 0.4964 0.0
C524 C 0.99069 0.15635 0.46633 0.0
C525 C 0.8999 0.15653 0.46568 0.0
C526 C 1.00452 0.13159 0.55865 0.0
C527 C 0.0489 0.16477 0.4344 0.0
H528 H 0.28109 0.1622 0.54722 0.0
H529 H 0.30434 0.13096 0.45415 0.0
H530 H 0.07379 0.17249 0.53289 0.0
H531 H 0.05542 0.16103 0.57681 0.0
H532 H 0.14719 0.17183 0.5739 0.0
H533 H 0.18551 0.1231 0.42236 0.0
H534 H 0.08559 0.12325 0.46089 0.0
H535 H 0.10192 0.13486 0.41738 0.0
H536 H 0.83698 0.13431 0.54562 0.0
H537 H 0.87277 0.16274 0.44253 0.0
H538 H 0.042 0.13729 0.58033 0.0
H539 H 0.05004 0.12445 0.54103 0.0
H540 H 0.95163 0.12638 0.57994 0.0
H541 H 0.08673 0.17138 0.453 0.0
H542 H 1.01131 0.17054 0.41296 0.0
H543 H 0.09673 0.15875 0.41286 0.0
C544 C 0.80538 0.90157 0.49567 0.0
C545 C 0.74991 0.8937 0.52443 0.0
C546 C 0.89629 0.90138 0.49596 0.0
C547 C 0.93202 0.89334 0.52636 0.0
C548 C 0.8759 0.88561 0.55613 0.0
C549 C 0.78578 0.88581 0.55453 0.0
C550 C 0.95423 0.90963 0.46332 0.0
C551 C 0.91104 0.87711 0.58968 0.0
C552 C 0.17009 0.883 0.50396 0.0
C553 C 0.20965 0.89162 0.53042 0.0
C554 C 0.08006 0.8836 0.5017 0.0
C555 C 1.02809 0.89291 0.52709 0.0
C556 C 0.06748 0.90152 0.55429 0.0
C557 C 0.15784 0.90085 0.55534 0.0
C558 C 0.04061 0.87433 0.47193 0.0
C559 C 1.01406 0.91141 0.58255 0.0
H560 H 0.77798 0.90764 0.47224 0.0
H561 H 0.74312 0.87982 0.57727 0.0
H562 H 0.99262 0.91632 0.48135 0.0
H563 H 1.00155 0.9035 0.44193 0.0
H564 H 0.91635 0.91531 0.44176 0.0
H565 H 0.85831 0.87201 0.61145 0.0
H566 H 0.95622 0.86988 0.57233 0.0
H567 H 0.94898 0.88291 0.61086 0.0
H568 H 0.2098 0.87592 0.48426 0.0
H569 H 0.18785 0.90752 0.57598 0.0
H570 H 1.00677 0.87969 0.44788 0.0
H571 H 0.99095 0.86828 0.49204 0.0
H572 H 0.09041 0.86797 0.45318 0.0
H573 H 0.98043 0.9178 0.56127 0.0
H574 H 0.0546 0.91739 0.60196 0.0
H575 H 0.96275 0.90658 0.60597 0.0
C576 C 0.09382 0.54697 0.01898 0.0
C577 C 1.01671 0.55403 0.03022 0.0
C578 C 0.09365 0.53353 0.02199 0.0
C579 C 1.0143 0.52698 0.03615 0.0
C580 C 0.9365 0.53407 0.04812 0.0
C581 C 0.93871 0.5475 0.04515 0.0
C582 C 0.17816 0.52631 0.00935 0.0
C583 C 0.85046 0.52745 0.06291 0.0
C584 C 1.00207 0.49231 -0.00114 0.0
C585 C 1.01766 0.48558 0.03691 0.0
C586 C 0.99889 0.50576 -0.00149 0.0
C587 C 1.01231 0.5127 0.03702 0.0
C588 C 1.02595 0.50599 0.07587 0.0
C589 C 1.02807 0.49252 0.07541 0.0
C590 C 0.98354 0.51256 0.95649 0.0
C591 C 0.04043 0.51304 0.11759 0.0
H592 H 0.15433 0.55198 0.00773 0.0
H593 H 0.87862 0.55289 0.05321 0.0
H594 H 0.19108 0.52004 0.03714 0.0
H595 H 0.17293 0.52002 0.98041 0.0
H596 H 0.23479 0.53284 0.00074 0.0
H597 H 0.79652 0.53437 0.0727 0.0
H598 H 0.83293 0.52135 0.0356 0.0
H599 H 0.8561 0.52106 0.09148 0.0
H600 H 0.99537 0.48708 0.96872 0.0
H601 H 0.03895 0.48741 0.10515 0.0
H602 H 0.042 0.5183 0.9435 0.0
H603 H 0.92789 0.51932 0.96359 0.0
H604 H 0.9696 0.50578 0.93019 0.0
H605 H 0.10017 0.51902 0.11089 0.0
H606 H 0.04771 0.50641 0.1454 0.0
H607 H 0.98496 0.5196 0.12822 0.0
C608 C 0.10238 0.49241 0.47831 0.0
C609 C 0.0405 0.48627 0.5094 0.0
C610 C 0.1054 0.50587 0.47542 0.0
C611 C 0.04438 0.5133 0.50392 0.0
C612 C 0.97994 0.5071 0.53424 0.0
C613 C 0.97904 0.49368 0.53671 0.0
C614 C 0.17547 0.51214 0.44293 0.0
C615 C 0.91311 0.51465 0.56487 0.0
C616 C 0.10087 0.54694 0.53772 0.0
C617 C 0.05319 0.55454 0.51167 0.0
C618 C 0.10061 0.53353 0.53444 0.0
C619 C 0.05108 0.52754 0.50449 0.0
C620 C 1.00419 0.53515 0.47737 0.0
C621 C 1.00614 0.5486 0.48113 0.0
C622 C 0.15207 0.52578 0.56371 0.0
C623 C 0.95015 0.5291 0.4453 0.0
H624 H 0.1499 0.48669 0.45716 0.0
H625 H 0.92999 0.48895 0.56018 0.0
H626 H 0.14589 0.51907 0.42176 0.0
H627 H 0.22035 0.51762 0.46134 0.0
H628 H 0.21434 0.50504 0.42119 0.0
H629 H 0.86397 0.50836 0.58445 0.0
H630 H 0.94633 0.52038 0.5883 0.0
H631 H 0.87855 0.52147 0.54547 0.0
H632 H 0.13886 0.5515 0.5607 0.0
H633 H 0.96917 0.55444 0.46098 0.0
H634 H 0.19694 0.51911 0.54321 0.0
H635 H 0.10688 0.51987 0.587 0.0
H636 H 0.19105 0.53192 0.58341 0.0
H637 H 0.99061 0.52233 0.42295 0.0
H638 H 0.92174 0.53634 0.42475 0.0
H639 H 0.89612 0.52347 0.46397 0.0
C640 C 0.46334 0.99112 0.0286 0.0
C641 C 0.53453 0.98409 0.0073 0.0
C642 C 0.46273 1.00458 0.02697 0.0
C643 C 0.53527 1.01115 0.00369 0.0
C644 C 0.60698 1.00411 0.98184 0.0
C645 C 0.60568 0.99067 0.98385 0.0
C646 C 0.38472 1.01176 0.05036 0.0
C647 C 0.68566 1.01077 0.95684 0.0
C648 C 0.504 0.0453 0.96575 0.0
C649 C 0.53726 0.05249 -0.00138 0.0
C650 C 0.50293 0.03186 0.96703 0.0
C651 C 0.5361 0.02542 0.002 0.0
C652 C 0.57029 0.0326 0.03517 0.0
C653 C 0.57018 0.04606 0.03317 0.0
C654 C 0.46545 0.02455 0.93119 0.0
C655 C 0.60682 0.02606 0.0728 0.0
H656 H 0.40798 0.98607 0.04652 0.0
H657 H 0.66162 0.98531 0.968 0.0
H658 H 0.40543 1.0182 0.07601 0.0
H659 H 0.3562 1.01789 0.02631 0.0
H660 H 0.33316 1.00522 0.06657 0.0
H661 H 0.7358 1.00389 0.94135 0.0
H662 H 0.66542 1.01694 0.9304 0.0
H663 H 0.71591 1.01711 0.97971 0.0
H664 H 0.47689 0.0502 0.93942 0.0
H665 H 0.59634 0.05157 0.05851 0.0
H666 H 0.40973 1.01856 0.94627 0.0
H667 H 0.51541 1.01796 0.91386 0.0
H668 H 0.44247 0.031 0.90622 0.0
H669 H 0.55567 0.02005 0.09205 0.0
H670 H 0.6315 0.03302 0.09576 0.0
H671 H 0.66109 0.01958 0.05934 0.0
C672 C 0.57126 0.04821 0.56114 0.0
C673 C 0.51505 0.05412 0.53485 0.0
C674 C 0.57376 0.0348 0.56539 0.0
C675 C 0.51931 0.02709 0.54252 0.0
C676 C 0.46022 0.033 0.51726 0.0
C677 C 0.45853 0.04642 0.5139 0.0
C678 C 0.63709 0.02887 0.59298 0.0
C679 C 0.40092 0.02513 0.4924 0.0
C680 C 0.58861 0.99319 0.50779 0.0
C681 C 0.53243 0.98574 0.53786 0.0
C682 C 0.58649 1.00664 0.50968 0.0
C683 C 0.5274 1.01284 0.54276 0.0
C684 C 0.47329 1.00541 0.57446 0.0
C685 C 0.47615 0.99196 0.57152 0.0
C686 C 0.64543 1.0142 0.47526 0.0
C687 C 0.41008 1.01167 0.61051 0.0
H688 H 0.61604 0.05402 0.57702 0.0
H689 H 0.41389 0.0509 0.49413 0.0
H690 H 0.60301 0.02183 0.61671 0.0
H691 H 0.68854 0.02359 0.57105 0.0
H692 H 0.66902 0.03617 0.61191 0.0
H693 H 0.35592 0.03119 0.47593 0.0
H694 H 0.44082 1.01925 0.46668 0.0
H695 H 0.36147 1.01843 0.51539 0.0
H696 H 0.63338 0.98848 0.48215 0.0
H697 H 0.43167 0.98634 0.59461 0.0
H698 H 0.68515 0.0211 0.49168 0.0
H699 H 0.60527 0.01985 0.45479 0.0
H700 H 0.69016 1.00794 0.45288 0.0
H701 H 0.44426 1.01892 0.6285 0.0
H702 H 0.3782 1.0046 0.63487 0.0
H703 H 0.35858 1.01677 0.59544 0.0
C704 C 0.27618 0.2983 0.0572 0.0
C705 C 0.20032 0.3013 0.039 0.0
C706 C 0.30396 0.28551 0.0597 0.0
C707 C 0.25426 0.27552 0.04393 0.0
C708 C 0.17588 0.27849 0.02711 0.0
C709 C 0.15001 0.29132 0.0248 0.0
C710 C 0.38805 0.28273 0.07772 0.0
C711 C 0.12057 0.26813 0.0103 0.0
C712 C 0.36532 0.24468 0.00027 0.0
C713 C 0.34078 0.23615 0.03543 0.0
C714 C 0.33921 0.25757 0.00311 0.0
C715 C 0.28679 0.26206 0.04201 0.0
C716 C 0.26257 0.25354 0.0779 0.0
C717 C 0.29021 0.24068 0.07426 0.0
C718 C 0.36703 0.26635 0.96421 0.0
C719 C 0.20616 0.25795 0.11975 0.0
H720 H 0.31537 0.30599 0.06809 0.0
H721 H 0.0904 0.29358 0.01148 0.0
H722 H 0.3772 0.27532 0.10406 0.0
H723 H 0.43697 0.27884 0.0508 0.0
H724 H 0.41572 0.29143 0.09158 0.0
H725 H 0.05862 0.27195 0.00098 0.0
H726 H 0.15765 0.26343 0.98072 0.0
H727 H 0.10467 0.26063 0.03599 0.0
H728 H 0.40585 0.24129 0.97053 0.0
H729 H 0.27089 0.23411 0.10147 0.0
H730 H 0.40161 0.27483 0.97523 0.0
H731 H 0.30862 0.26991 0.95063 0.0
H732 H 0.41065 0.26148 0.9371 0.0
H733 H 0.23636 0.26636 0.13399 0.0
H734 H 0.196 0.25029 0.14531 0.0
H735 H 0.14149 0.26105 0.11186 0.0
C736 C 0.82228 0.79822 0.99029 0.0
C737 C 0.73999 0.80147 0.97924 0.0
C738 C 0.84887 0.78537 -0.00853 0.0
C739 C 0.79198 0.77551 0.98116 0.0
C740 C 0.71062 0.77874 0.96794 0.0
C741 C 0.68549 0.79167 0.96728 0.0
C742 C 0.93626 0.78231 0.00565 0.0
C743 C 0.6482 0.76852 0.95658 0.0
C744 C 0.88546 0.74184 0.96187 0.0
C745 C 0.86274 0.7363 0.00394 0.0
C746 C 0.86172 0.75454 0.9536 0.0
C747 C 0.81417 0.76184 0.98821 0.0
C748 C 0.7891 0.75616 0.03034 0.0
C749 C 0.81346 0.74348 0.03762 0.0
C750 C 0.88919 0.76025 0.9082 0.0
C751 C 0.73789 0.76357 0.06808 0.0
H752 H 0.86536 0.80574 -0.00111 0.0
H753 H 0.62132 0.79404 0.95925 0.0
H754 H 0.92611 0.77725 0.03804 0.0
H755 H 0.97414 0.77581 0.98124 0.0
H756 H 0.97566 0.79107 0.00916 0.0
H757 H 0.59193 0.77263 0.94239 0.0
H758 H 0.68245 0.7616 0.93244 0.0
H759 H 0.62272 0.76307 0.98698 0.0
H760 H 0.92404 0.73638 0.9358 0.0
H761 H 0.79432 0.73918 0.06996 0.0
H762 H 0.93485 0.76834 0.91072 0.0
H763 H 0.83154 0.76418 0.89485 0.0
H764 H 0.92181 0.75312 0.88423 0.0
H765 H 0.77601 0.77204 0.07627 0.0
H766 H 0.72188 0.75766 0.09852 0.0
H767 H 0.67609 0.76717 0.05805 0.0
C768 C 0.28003 0.74335 0.50192 0.0
C769 C 0.2134 0.737 0.52969 0.0
C770 C 0.30068 0.75619 0.50944 0.0
C771 C 0.25402 0.76286 0.54586 0.0
C772 C 0.18893 0.75639 0.57505 0.0
C773 C 0.16927 0.74353 0.56659 0.0
C774 C 0.37086 0.76271 0.47761 0.0
C775 C 0.13825 0.76316 0.6144 0.0
C776 C 0.36127 0.79372 0.57689 0.0
C777 C 0.31892 0.80291 0.55381 0.0
C778 C 0.33805 0.78071 0.57638 0.0
C779 C 0.27135 0.77676 0.55192 0.0
C780 C 0.22585 0.78604 0.53014 0.0
C781 C 0.24994 0.799 0.5315 0.0
C782 C 0.38773 0.77111 0.60027 0.0
C783 C 0.15424 0.78223 0.50374 0.0
H784 H 0.31549 0.7383 0.47382 0.0
H785 H 0.11726 0.73873 0.588 0.0
H786 H 0.34202 0.77077 0.46082 0.0
H787 H 0.42142 0.76682 0.49599 0.0
H788 H 0.40307 0.75605 0.45182 0.0
H789 H 0.09451 0.75653 0.63577 0.0
H790 H 0.18367 0.76775 0.63482 0.0
H791 H 0.09797 0.77089 0.60263 0.0
H792 H 0.4153 0.7966 0.59381 0.0
H793 H 0.21586 0.80606 0.51422 0.0
H794 H 0.42865 0.76502 0.57563 0.0
H795 H 0.34183 0.76468 0.62114 0.0
H796 H 0.43087 0.77584 0.62169 0.0
H797 H 0.18214 0.77631 0.47484 0.0
H798 H 0.12122 0.79067 0.49133 0.0
H799 H 0.10461 0.77629 0.52435 0.0
C800 C 0.80727 0.29824 0.48182 0.0
C801 C 0.86019 0.30225 0.51304 0.0
C802 C 0.78017 0.2854 0.48016 0.0
C803 C 0.8072 0.27638 0.51023 0.0
C804 C 0.86109 0.28037 0.5416 0.0
C805 C 0.88681 0.29325 0.54265 0.0
C806 C 0.72231 0.28151 0.44639 0.0
C807 C 0.89184 0.27102 0.57397 0.0
C808 C 0.6745 0.24586 0.53373 0.0
C809 C 0.72416 0.23695 0.50625 0.0
C810 C 0.70091 0.25871 0.53544 0.0
C811 C 0.77889 0.26275 0.50905 0.0
C812 C 0.82994 0.25378 0.48167 0.0
C813 C 0.80196 0.24099 0.48061 0.0
C814 C 0.64472 0.26799 0.56505 0.0
C815 C 0.91382 0.25772 0.45329 0.0
H816 H 0.78613 0.30517 0.45907 0.0
H817 H 0.92901 0.29625 0.56633 0.0
H818 H 0.75449 0.27386 0.42455 0.0
H819 H 0.66006 0.27751 0.46351 0.0
H820 H 0.70716 0.28968 0.42535 0.0
H821 H 0.93378 0.27566 0.59618 0.0
H822 H 0.83482 0.26661 0.59475 0.0
H823 H 0.92932 0.26313 0.55562 0.0
H824 H 0.61361 0.24287 0.5531 0.0
H825 H 0.84111 0.23413 0.45966 0.0
H826 H 0.62237 0.27584 0.54476 0.0
H827 H 0.68343 0.27246 0.58905 0.0
H828 H 0.58651 0.26329 0.58388 0.0
H829 H 0.90036 0.26531 0.42966 0.0
H830 H 0.94631 0.24955 0.4341 0.0
H831 H 0.95978 0.26181 0.47447 0.0
C832 C 0.99857 0.4019 0.1763 0.0
C833 C 0.06074 0.39397 0.15164 0.0
C834 C 0.99048 0.40229 0.22282 0.0
C835 C 0.04689 0.39475 0.245 0.0
C836 C 0.1109 0.38692 0.22019 0.0
C837 C 0.11656 0.38655 0.1738 0.0
C838 C 0.9206 0.41061 0.24826 0.0
C839 C 0.17301 0.37888 0.24266 0.0
C840 C 0.07529 0.40333 0.36348 0.0
C841 C 1.02214 0.39414 0.38773 0.0
C842 C 0.08379 0.40368 0.31693 0.0
C843 C 0.03735 0.39472 0.29426 0.0
C844 C 0.98276 0.38553 0.31858 0.0
C845 C 0.97614 0.38532 0.365 0.0
C846 C 0.14325 0.41353 0.292 0.0
C847 C 0.93158 0.37589 0.29555 0.0
H848 H 0.95501 0.40761 0.15931 0.0
H849 H 0.1653 0.38049 0.15485 0.0
H850 H 0.87462 0.40456 0.27065 0.0
H851 H 0.95044 0.41752 0.26943 0.0
H852 H 0.88287 0.41604 0.22597 0.0
H853 H 0.22141 0.37373 0.21844 0.0
H854 H 0.20871 0.38503 0.26386 0.0
H855 H 0.13581 0.37171 0.26468 0.0
H856 H 0.11121 0.41016 0.38079 0.0
H857 H 0.93447 0.37824 0.38347 0.0
H858 H 0.10592 0.41955 0.27123 0.0
H859 H 0.19547 0.40865 0.26925 0.0
H860 H 0.17422 0.41989 0.31461 0.0
H861 H 0.88911 0.38093 0.27463 0.0
H862 H 0.89009 0.36963 0.3194 0.0
H863 H 0.97699 0.36975 0.27318 0.0
C864 C 0.05693 0.63159 0.16438 0.0
C865 C 0.99607 0.64032 0.15161 0.0
C866 C 0.07346 0.63095 0.20862 0.0
C867 C 1.02725 0.63913 0.241 0.0
C868 C 0.96354 0.64763 0.22858 0.0
C869 C 0.94918 0.64818 0.18405 0.0
C870 C 0.1425 0.62185 0.2204 0.0
C871 C 0.91198 0.65639 0.26216 0.0
C872 C 1.01956 0.63196 0.36427 0.0
C873 C 0.07959 0.6409 0.3767 0.0
C874 C 1.0029 0.63111 0.32009 0.0
C875 C 0.04811 0.63927 0.28742 0.0
C876 C 0.11085 0.64801 0.29951 0.0
C877 C 0.12539 0.64877 0.34399 0.0
C878 C 0.93488 0.62176 0.30867 0.0
C879 C 0.16131 0.65677 0.2656 0.0
H880 H 0.09393 0.62553 0.13952 0.0
H881 H 0.90171 0.65491 0.17456 0.0
H882 H 0.1969 0.6274 0.23135 0.0
H883 H 0.11514 0.61563 0.24851 0.0
H884 H 0.16943 0.61567 0.19196 0.0
H885 H 0.86105 0.66185 0.24778 0.0
H886 H 0.87998 0.65075 0.29084 0.0
H887 H 0.95665 0.66332 0.27511 0.0
H888 H 0.98342 0.62589 0.38934 0.0
H889 H 0.17221 0.65566 0.3532 0.0
H890 H 0.963 0.61547 0.28085 0.0
H891 H 0.87994 0.6271 0.29743 0.0
H892 H 0.90855 0.61565 0.33737 0.0
H893 H 0.19408 0.65109 0.23716 0.0
H894 H 0.21147 0.66246 0.27979 0.0
H895 H 0.11577 0.66349 0.25236 0.0
C896 C 0.95539 0.64555 0.85638 0.0
C897 C 1.00292 0.65321 0.88245 0.0
C898 C 0.96796 0.64653 0.80989 0.0
C899 C 1.03046 0.65528 0.7887 0.0
C900 C 0.0771 0.66328 0.81483 0.0
C901 C 0.06237 0.66221 0.86141 0.0
C902 C 0.91597 0.63794 0.78337 0.0
C903 C 0.14485 0.67263 0.79352 0.0
C904 C 0.12578 0.64596 0.67099 0.0
C905 C 0.07824 0.65374 0.64538 0.0
C906 C 0.11309 0.64672 0.71754 0.0
C907 C 0.05055 0.65538 0.73924 0.0
C908 C 1.004 0.66352 0.71359 0.0
C909 C 1.01877 0.66266 0.66694 0.0
C910 C 0.16495 0.63798 0.74354 0.0
C911 C 0.93628 0.6728 0.73545 0.0
H912 H 0.90868 0.63865 0.87231 0.0
H913 H 0.09957 0.66814 0.88126 0.0
H914 H 0.8833 0.64373 0.75993 0.0
H915 H 0.96049 0.63113 0.76329 0.0
H916 H 0.86554 0.63234 0.80489 0.0
H917 H 0.17125 0.67876 0.8184 0.0
H918 H 0.19977 0.66729 0.77434 0.0
H919 H 0.11657 0.67889 0.76977 0.0
H920 H 0.17247 0.63912 0.65468 0.0
H921 H 0.98157 0.66868 0.64745 0.0
H922 H 0.12035 0.6311 0.76316 0.0
H923 H 0.19761 0.64364 0.76737 0.0
H924 H 0.21537 0.63246 0.7217 0.0
H925 H 0.88128 0.6674 0.75426 0.0
H926 H 0.91001 0.67907 0.71095 0.0
H927 H 0.96455 0.67894 0.75962 0.0
C928 C 0.95936 0.40098 0.68538 0.0
C929 C 1.00981 0.39263 0.65602 0.0
C930 C 0.97107 0.40162 0.7303 0.0
C931 C 0.03508 0.39379 0.74592 0.0
C932 C 0.08693 0.38549 0.71627 0.0
C933 C 0.07344 0.38498 0.67178 0.0
C934 C 0.91427 0.41052 0.76115 0.0
C935 C 0.1561 0.37704 0.73165 0.0
C936 C 0.11822 0.40133 0.85478 0.0
C937 C 0.07157 0.39242 0.88345 0.0
C938 C 0.10595 0.40206 0.80997 0.0
C939 C 0.04538 0.39374 0.79369 0.0
C940 C 0.99747 0.38485 0.8226 0.0
C941 C 1.01134 0.38427 0.86704 0.0
C942 C 0.15852 0.41161 0.77992 0.0
C943 C 0.93216 0.37583 0.80647 0.0
H944 H 0.9103 0.40694 0.67337 0.0
H945 H 0.11333 0.37858 0.64926 0.0
H946 H 0.87449 0.40487 0.78755 0.0
H947 H 0.95556 0.41713 0.77779 0.0
H948 H 0.8696 0.41629 0.74348 0.0
H949 H 0.19338 0.37153 0.70394 0.0
H950 H 0.20267 0.38294 0.74762 0.0
H951 H 0.12525 0.37016 0.75692 0.0
H952 H 0.1646 0.40769 0.86727 0.0
H953 H 0.97446 0.37742 0.88899 0.0
H954 H 0.11425 0.4179 0.76395 0.0
H955 H 0.20059 0.40647 0.75297 0.0
H956 H 0.20064 0.4177 0.79808 0.0
H957 H 0.88301 0.38135 0.79105 0.0
H958 H 0.89752 0.36987 0.83368 0.0
H959 H 0.96595 0.36936 0.78058 0.0
C960 C 0.49546 0.88003 0.17678 0.0
C961 C 0.55611 0.88836 0.15298 0.0
C962 C 0.48431 0.87971 0.22344 0.0
C963 C 0.53542 0.88787 0.24675 0.0
C964 C 0.59774 0.89613 0.22286 0.0
C965 C 0.60713 0.8963 0.17634 0.0
C966 C 0.41694 0.87082 0.24783 0.0
C967 C 0.65386 0.90491 0.24646 0.0
C968 C 0.45477 0.89757 0.36583 0.0
C969 C 0.50458 0.88963 0.38976 0.0
C970 C 0.46274 0.89687 0.31937 0.0
C971 C 0.52235 0.88808 0.29617 0.0
C972 C 0.57206 0.87992 0.3201 0.0
C973 C 0.56242 0.88077 0.36664 0.0
C974 C 0.40829 0.9057 0.29504 0.0
C975 C 0.63663 0.87048 0.29649 0.0
H976 H 0.45573 0.87387 0.159 0.0
H977 H 0.65453 0.90272 0.15827 0.0
H978 H 0.44798 0.8644 0.27008 0.0
H979 H 0.36652 0.87649 0.26905 0.0
H980 H 0.38419 0.86484 0.22483 0.0
H981 H 0.70127 0.91045 0.22296 0.0
H982 H 0.6119 0.91178 0.2677 0.0
H983 H 0.69055 0.89926 0.26857 0.0
H984 H 0.40952 0.90439 0.38339 0.0
H985 H 0.60111 0.87459 0.38483 0.0
H986 H 0.37034 0.90004 0.27348 0.0
H987 H 0.45157 0.91224 0.27316 0.0
H988 H 0.36217 0.91158 0.31808 0.0
H989 H 0.60359 0.86408 0.27492 0.0
H990 H 0.66784 0.86448 0.32 0.0
H991 H 0.68852 0.8757 0.27467 0.0
C992 C 0.58372 0.14094 0.14464 0.0
C993 C 0.50057 0.14382 0.13416 0.0
C994 C 0.60077 0.14133 0.18872 0.0
C995 C 0.53202 0.14418 0.22325 0.0
C996 C 0.44731 0.14683 0.21279 0.0
C997 C 0.43303 0.14689 0.16815 0.0
C998 C 0.69267 0.13896 0.1982 0.0
C999 C 0.37173 0.14953 0.24874 0.0
C1000 C 0.55947 0.13398 0.34062 0.0
C1001 C 0.57557 0.14576 0.36003 0.0
C1002 C 0.54458 0.13332 0.29615 0.0
C1003 C 0.54911 0.14465 0.27022 0.0
C1004 C 0.56883 0.15649 0.28939 0.0
C1005 C 0.58004 0.15694 0.33435 0.0
C1006 C 0.52109 0.12058 0.27736 0.0
C1007 C 0.57747 0.16871 0.26251 0.0
H1008 H 0.6362 0.13874 0.11811 0.0
H1009 H 0.36873 0.14907 0.15985 0.0
H1010 H 0.71556 0.14729 0.21616 0.0
H1011 H 0.69398 0.13047 0.22001 0.0
H1012 H 0.73929 0.13733 0.1674 0.0
H1013 H 0.30901 0.15063 0.23527 0.0
H1014 H 0.36488 0.14163 0.2734 0.0
H1015 H 0.38428 0.15845 0.26668 0.0
H1016 H 0.55475 0.12537 0.36079 0.0
H1017 H 0.59268 0.16605 0.34948 0.0
H1018 H 0.56866 0.11808 0.24782 0.0
H1019 H 0.45587 0.12125 0.26628 0.0
H1020 H 0.51972 0.11269 0.30196 0.0
H1021 H 0.62478 0.16733 0.23186 0.0
H1022 H 0.59952 0.17691 0.28145 0.0
H1023 H 0.51372 0.17121 0.25208 0.0
C1024 C 0.43727 0.14583 0.84547 0.0
C1025 C 0.50912 0.14868 0.86711 0.0
C1026 C 0.44435 0.14613 0.79898 0.0
C1027 C 0.52613 0.14888 0.7735 0.0
C1028 C 0.59907 0.15173 0.79528 0.0
C1029 C 0.58925 0.15181 0.84195 0.0
C1030 C 0.36435 0.14346 0.77714 0.0
C1031 C 0.6879 0.15434 0.76931 0.0
C1032 C 0.55792 0.13658 0.6545 0.0
C1033 C 0.54956 0.14787 0.63053 0.0
C1034 C 0.55255 0.13683 0.70099 0.0
C1035 C 0.53543 0.14858 0.72407 0.0
C1036 C 0.52559 0.15997 0.69996 0.0
C1037 C 0.53428 0.15951 0.65339 0.0
C1038 C 0.56592 0.12454 0.72537 0.0
C1039 C 0.50447 0.17259 0.72336 0.0
H1040 H 0.37507 0.1435 0.86502 0.0
H1041 H 0.64499 0.15389 0.85875 0.0
H1042 H 0.35363 0.15142 0.75431 0.0
H1043 H 0.37413 0.13459 0.75692 0.0
H1044 H 0.30456 0.1423 0.80176 0.0
H1045 H 0.73811 0.15625 0.79125 0.0
H1046 H 0.7091 0.14599 0.7478 0.0
H1047 H 0.68465 0.16272 0.74721 0.0
H1048 H 0.57065 0.1276 0.63679 0.0
H1049 H 0.52722 0.16823 0.63485 0.0
H1050 H 0.5056 0.12207 0.74801 0.0
H1051 H 0.61878 0.12583 0.74616 0.0
H1052 H 0.58314 0.11636 0.70237 0.0
H1053 H 0.44293 0.17171 0.74683 0.0
H1054 H 0.49707 0.18052 0.6998 0.0
H1055 H 0.55679 0.1752 0.74319 0.0
C1056 C 0.55418 0.90228 0.67326 0.0
C1057 C 0.49237 0.8941 0.65831 0.0
C1058 C 0.57079 0.90189 0.7174 0.0
C1059 C 0.52364 0.89323 0.74759 0.0
C1060 C 0.46061 0.88501 0.73286 0.0
C1061 C 0.44617 0.88548 0.68829 0.0
C1062 C 0.63919 0.91071 0.73167 0.0
C1063 C 0.40817 0.87578 0.76425 0.0
C1064 C 0.61548 0.8847 0.85356 0.0
C1065 C 0.56876 0.89306 0.88438 0.0
C1066 C 0.60172 0.88467 0.80883 0.0
C1067 C 0.53883 0.89304 0.79484 0.0
C1068 C 0.49112 0.90142 0.8259 0.0
C1069 C 0.50708 0.90139 0.87014 0.0
C1070 C 0.65467 0.87572 0.77651 0.0
C1071 C 0.42276 0.91038 0.81245 0.0
H1072 H 0.59098 0.90887 0.65023 0.0
H1073 H 0.39839 0.87912 0.67699 0.0
H1074 H 0.60884 0.91721 0.75838 0.0
H1075 H 0.68963 0.90502 0.74548 0.0
H1076 H 0.6718 0.91664 0.70381 0.0
H1077 H 0.36157 0.87005 0.74762 0.0
H1078 H 0.4526 0.86911 0.77856 0.0
H1079 H 0.37091 0.88113 0.79231 0.0
H1080 H 0.66318 0.87824 0.86432 0.0
H1081 H 0.46986 0.90778 0.8938 0.0
H1082 H 0.69179 0.88131 0.74907 0.0
H1083 H 0.61059 0.86915 0.76144 0.0
H1084 H 0.70144 0.86987 0.79258 0.0
H1085 H 0.45316 0.91708 0.78644 0.0
H1086 H 0.38997 0.91609 0.84087 0.0
H1087 H 0.37243 0.90482 0.798 0.0
loop_
_geom_bond_atom_site_label_1
_geom_bond_atom_site_label_2
_geom_bond_distance
_geom_bond_site_symmetry_2
_ccdc_geom_bond_type
Tb0 C9 2.764 . S
Tb0 O10 2.325 . S
Tb0 O13 2.303 . S
Tb0 O17 2.322 1_455 S
Tb0 O18 2.349 1_554 S
Tb0 O21 2.415 . S
Tb0 O22 2.399 1_554 S
Tb1 O11 2.322 . S
Tb1 O12 2.349 . S
Tb1 O14 2.415 1_554 S
Tb1 O15 2.399 . S
Tb1 O16 2.325 1_455 S
Tb1 O19 2.303 1_554 S
Tb1 C30 2.764 1_455 S
C2 O18 1.261 . S
C2 O19 1.257 . S
C3 C6 1.358 1_554 S
C3 C7 1.332 . S
C3 C9 1.504 . S
C4 C5 1.373 . S
C4 C8 1.308 . S
C5 C4 1.373 . S
C5 C6 1.429 1_554 S
C5 H32 0.932 1_554 S
C6 C3 1.358 1_556 S
C6 C5 1.429 1_556 S
C6 H33 0.930 . S
C7 C3 1.332 . S
C7 C8 1.394 . S
C7 H34 0.932 . S
C8 C4 1.308 . S
C8 C7 1.394 . S
C8 H35 0.929 . S
C9 Tb0 2.764 . S
C9 C3 1.504 . S
C9 O21 1.239 . S
C9 O22 1.263 1_554 S
O10 Tb0 2.325 . S
O10 C20 1.236 . S
O11 Tb1 2.322 . S
O11 C20 1.257 . S
O12 Tb1 2.349 . S
O12 C23 1.261 . S
O13 Tb0 2.303 . S
O13 C23 1.257 . S
O14 Tb1 2.415 1_556 S
O14 C30 1.239 1_456 S
O15 Tb1 2.399 . S
O15 C30 1.263 1_455 S
O16 Tb1 2.325 1_655 S
O16 C31 1.236 . S
O17 Tb0 2.322 1_655 S
O17 C31 1.257 . S
O18 Tb0 2.349 1_556 S
O18 C2 1.261 . S
O19 Tb1 2.303 1_556 S
O19 C2 1.257 . S
C20 O10 1.236 . S
C20 O11 1.257 . S
O21 Tb0 2.415 . S
O21 C9 1.239 . S
O22 Tb0 2.399 1_556 S
O22 C9 1.263 1_556 S
C23 O12 1.261 . S
C23 O13 1.257 . S
C24 C27 1.358 . S
C24 C28 1.332 1_554 S
C24 C30 1.503 . S
C25 C26 1.373 . S
C25 C29 1.308 1_554 S
C26 C25 1.373 . S
C26 C27 1.429 . S
C26 H36 0.932 . S
C27 C24 1.358 . S
C27 C26 1.429 . S
C27 H37 0.930 . S
C28 C24 1.332 1_556 S
C28 C29 1.394 . S
C28 H38 0.932 . S
C29 C25 1.308 1_556 S
C29 C28 1.394 . S
C29 H39 0.929 . S
C30 Tb1 2.764 1_655 S
C30 O14 1.239 1_654 S
C30 O15 1.263 1_655 S
C30 C24 1.503 . S
C31 O16 1.236 . S
C31 O17 1.257 . S
H32 C5 0.932 1_556 S
H33 C6 0.930 . S
H34 C7 0.932 . S
H35 C8 0.929 . S
H36 C26 0.932 . S
H37 C27 0.930 . S
H38 C28 0.932 . S
H39 C29 0.929 . S
Tb40 C49 2.764 1_655 S
Tb40 O50 2.325 1_655 S
Tb40 O53 2.303 . S
Tb40 O57 2.322 . S
Tb40 O58 2.349 1_554 S
Tb40 O61 2.415 . S
Tb40 O62 2.399 1_554 S
Tb41 O51 2.322 1_655 S
Tb41 O52 2.349 . S
Tb41 O54 2.415 1_554 S
Tb41 O55 2.399 . S
Tb41 O56 2.325 . S
Tb41 O59 2.303 1_554 S
Tb41 C70 2.764 . S
C42 O58 1.261 . S
C42 O59 1.257 . S
C43 C46 1.359 . S
C43 C47 1.332 . S
C43 C49 1.504 . S
C44 C45 1.373 . S
C44 C48 1.308 . S
C45 C44 1.373 . S
C45 C46 1.430 . S
C45 H72 0.932 1_554 S
C46 C43 1.359 . S
C46 C45 1.430 . S
C46 H73 0.928 1_554 S
C47 C43 1.332 . S
C47 C48 1.394 . S
C47 H74 0.932 . S
C48 C44 1.308 . S
C48 C47 1.394 . S
C48 H75 0.929 . S
C49 Tb40 2.764 1_455 S
C49 C43 1.504 . S
C49 O61 1.239 1_455 S
C49 O62 1.263 1_454 S
O50 Tb40 2.325 1_455 S
O50 C60 1.236 . S
O51 Tb41 2.322 1_455 S
O51 C60 1.257 . S
O52 Tb41 2.349 . S
O52 C63 1.261 . S
O53 Tb40 2.303 . S
O53 C63 1.257 . S
O54 Tb41 2.415 1_556 S
O54 C70 1.239 1_556 S
O55 Tb41 2.399 . S
O55 C70 1.263 . S
O56 Tb41 2.325 . S
O56 C71 1.236 . S
O57 Tb40 2.322 . S
O57 C71 1.257 . S
O58 Tb40 2.349 1_556 S
O58 C42 1.261 . S
O59 Tb41 2.303 1_556 S
O59 C42 1.257 . S
C60 O50 1.236 . S
C60 O51 1.257 . S
O61 Tb40 2.415 . S
O61 C49 1.239 1_655 S
O62 Tb40 2.399 1_556 S
O62 C49 1.263 1_656 S
C63 O52 1.261 . S
C63 O53 1.257 . S
C64 C67 1.358 . S
C64 C68 1.332 1_554 S
C64 C70 1.504 . S
C65 C66 1.373 . S
C65 C69 1.308 1_554 S
C66 C65 1.373 . S
C66 C67 1.429 . S
C66 H76 0.932 . S
C67 C64 1.358 . S
C67 C66 1.429 . S
C67 H77 0.930 . S
C68 C64 1.332 1_556 S
C68 C69 1.394 . S
C68 H78 0.932 . S
C69 C65 1.308 1_556 S
C69 C68 1.394 . S
C69 H79 0.929 . S
C70 Tb41 2.764 . S
C70 O54 1.239 1_554 S
C70 O55 1.263 . S
C70 C64 1.504 . S
C71 O56 1.236 . S
C71 O57 1.257 . S
H72 C45 0.932 1_556 S
H73 C46 0.928 1_556 S
H74 C47 0.932 . S
H75 C48 0.929 . S
H76 C66 0.932 . S
H77 C67 0.930 . S
H78 C68 0.932 . S
H79 C69 0.929 . S
Tb80 C89 2.765 1_455 S
Tb80 O90 2.325 1_455 S
Tb80 O93 2.303 . S
Tb80 O97 2.322 . S
Tb80 O98 2.349 . S
Tb80 O101 2.415 . S
Tb80 O102 2.399 . S
Tb81 O91 2.322 1_455 S
Tb81 O92 2.349 . S
Tb81 O94 2.415 . S
Tb81 O95 2.399 . S
Tb81 O96 2.325 . S
Tb81 O99 2.303 . S
Tb81 C110 2.764 . S
C82 O98 1.261 . S
C82 O99 1.257 . S
C83 C86 1.358 . S
C83 C87 1.332 . S
C83 C89 1.503 . S
C84 C85 1.373 . S
C84 C88 1.308 . S
C85 C84 1.373 . S
C85 C86 1.429 . S
C85 H112 0.932 . S
C86 C83 1.358 . S
C86 C85 1.429 . S
C86 H113 0.930 . S
C87 C83 1.332 . S
C87 C88 1.394 . S
C87 H114 0.932 . S
C88 C84 1.308 . S
C88 C87 1.394 . S
C88 H115 0.929 . S
C89 Tb80 2.765 1_655 S
C89 C83 1.503 . S
C89 O101 1.239 1_655 S
C89 O102 1.263 1_655 S
O90 Tb80 2.325 1_655 S
O90 C100 1.236 . S
O91 Tb81 2.322 1_655 S
O91 C100 1.257 . S
O92 Tb81 2.349 . S
O92 C103 1.261 . S
O93 Tb80 2.303 . S
O93 C103 1.257 . S
O94 Tb81 2.415 . S
O94 C110 1.239 . S
O95 Tb81 2.399 . S
O95 C110 1.263 . S
O96 Tb81 2.325 . S
O96 C111 1.236 . S
O97 Tb80 2.322 . S
O97 C111 1.257 . S
O98 Tb80 2.349 . S
O98 C82 1.261 . S
O99 Tb81 2.303 . S
O99 C82 1.257 . S
C100 O90 1.236 . S
C100 O91 1.257 . S
O101 Tb80 2.415 . S
O101 C89 1.239 1_455 S
O102 Tb80 2.399 . S
O102 C89 1.263 1_455 S
C103 O92 1.261 . S
C103 O93 1.257 . S
C104 C107 1.358 . S
C104 C108 1.332 . S
C104 C110 1.504 . S
C105 C106 1.373 . S
C105 C109 1.308 . S
C106 C105 1.373 . S
C106 C107 1.429 . S
C106 H116 0.932 . S
C107 C104 1.358 . S
C107 C106 1.429 . S
C107 H117 0.930 . S
C108 C104 1.332 . S
C108 C109 1.394 . S
C108 H118 0.932 . S
C109 C105 1.308 . S
C109 C108 1.394 . S
C109 H119 0.929 . S
C110 Tb81 2.764 . S
C110 O94 1.239 . S
C110 O95 1.263 . S
C110 C104 1.504 . S
C111 O96 1.236 . S
C111 O97 1.257 . S
H112 C85 0.932 . S
H113 C86 0.930 . S
H114 C87 0.932 . S
H115 C88 0.929 . S
H116 C106 0.932 . S
H117 C107 0.930 . S
H118 C108 0.932 . S
H119 C109 0.929 . S
Tb120 C129 2.764 . S
Tb120 O130 2.325 . S
Tb120 O133 2.303 . S
Tb120 O137 2.322 1_655 S
Tb120 O138 2.349 . S
Tb120 O141 2.415 . S
Tb120 O142 2.399 . S
Tb121 O131 2.322 . S
Tb121 O132 2.349 . S
Tb121 O134 2.415 . S
Tb121 O135 2.399 . S
Tb121 O136 2.325 1_655 S
Tb121 O139 2.303 . S
Tb121 C150 2.763 . S
C122 O138 1.261 . S
C122 O139 1.257 . S
C123 C126 1.358 . S
C123 C127 1.332 . S
C123 C129 1.504 . S
C124 C125 1.373 . S
C124 C128 1.308 . S
C125 C124 1.373 . S
C125 C126 1.429 . S
C125 H152 0.932 . S
C126 C123 1.358 . S
C126 C125 1.429 . S
C126 H153 0.930 . S
C127 C123 1.332 . S
C127 C128 1.394 . S
C127 H154 0.932 . S
C128 C124 1.308 . S
C128 C127 1.394 . S
C128 H155 0.929 . S
C129 Tb120 2.764 . S
C129 C123 1.504 . S
C129 O141 1.239 . S
C129 O142 1.263 . S
O130 Tb120 2.325 . S
O130 C140 1.236 . S
O131 Tb121 2.322 . S
O131 C140 1.257 . S
O132 Tb121 2.349 . S
O132 C143 1.261 . S
O133 Tb120 2.303 . S
O133 C143 1.257 . S
O134 Tb121 2.415 . S
O134 C150 1.239 . S
O135 Tb121 2.399 . S
O135 C150 1.262 . S
O136 Tb121 2.325 1_455 S
O136 C151 1.236 . S
O137 Tb120 2.322 1_455 S
O137 C151 1.257 . S
O138 Tb120 2.349 . S
O138 C122 1.261 . S
O139 Tb121 2.303 . S
O139 C122 1.257 . S
C140 O130 1.236 . S
C140 O131 1.257 . S
O141 Tb120 2.415 . S
O141 C129 1.239 . S
O142 Tb120 2.399 . S
O142 C129 1.263 . S
C143 O132 1.261 . S
C143 O133 1.257 . S
C144 C147 1.358 . S
C144 C148 1.332 . S
C144 C150 1.504 1_455 S
C145 C146 1.373 . S
C145 C149 1.308 . S
C146 C145 1.373 . S
C146 C147 1.429 . S
C146 H156 0.932 . S
C147 C144 1.358 . S
C147 C146 1.429 . S
C147 H157 0.930 . S
C148 C144 1.332 . S
C148 C149 1.394 . S
C148 H158 0.932 . S
C149 C145 1.308 . S
C149 C148 1.394 . S
C149 H159 0.929 . S
C150 Tb121 2.763 . S
C150 O134 1.239 . S
C150 O135 1.262 . S
C150 C144 1.504 1_655 S
C151 O136 1.236 . S
C151 O137 1.257 . S
H152 C125 0.932 . S
H153 C126 0.930 . S
H154 C127 0.932 . S
H155 C128 0.929 . S
H156 C146 0.932 . S
H157 C147 0.930 . S
H158 C148 0.932 . S
H159 C149 0.929 . S
Tb160 C169 2.764 . S
Tb160 O170 2.325 . S
Tb160 O173 2.303 . S
Tb160 O177 2.322 . S
Tb160 O178 2.349 1_554 S
Tb160 O181 2.415 . S
Tb160 O182 2.399 1_554 S
Tb161 O171 2.322 . S
Tb161 O172 2.349 . S
Tb161 O174 2.415 1_554 S
Tb161 O175 2.399 . S
Tb161 O176 2.325 . S
Tb161 O179 2.303 1_554 S
Tb161 C190 2.764 . S
C162 O178 1.261 . S
C162 O179 1.257 . S
C163 C166 1.358 1_554 S
C163 C167 1.332 . S
C163 C169 1.504 . S
C164 C165 1.373 . S
C164 C168 1.308 . S
C165 C164 1.373 . S
C165 C166 1.429 1_554 S
C165 H192 0.932 1_554 S
C166 C163 1.358 1_556 S
C166 C165 1.429 1_556 S
C166 H193 0.930 . S
C167 C163 1.332 . S
C167 C168 1.394 . S
C167 H194 0.932 . S
C168 C164 1.308 . S
C168 C167 1.394 . S
C168 H195 0.929 . S
C169 Tb160 2.764 . S
C169 C163 1.504 . S
C169 O181 1.239 . S
C169 O182 1.263 1_554 S
O170 Tb160 2.325 . S
O170 C180 1.236 . S
O171 Tb161 2.322 . S
O171 C180 1.257 . S
O172 Tb161 2.349 . S
O172 C183 1.261 . S
O173 Tb160 2.303 . S
O173 C183 1.257 . S
O174 Tb161 2.415 1_556 S
O174 C190 1.239 1_556 S
O175 Tb161 2.399 . S
O175 C190 1.263 . S
O176 Tb161 2.325 . S
O176 C191 1.236 . S
O177 Tb160 2.322 . S
O177 C191 1.257 . S
O178 Tb160 2.349 1_556 S
O178 C162 1.261 . S
O179 Tb161 2.303 1_556 S
O179 C162 1.257 . S
C180 O170 1.236 . S
C180 O171 1.257 . S
O181 Tb160 2.415 . S
O181 C169 1.239 . S
O182 Tb160 2.399 1_556 S
O182 C169 1.263 1_556 S
C183 O172 1.261 . S
C183 O173 1.257 . S
C184 C187 1.358 . S
C184 C188 1.332 1_554 S
C184 C190 1.504 . S
C185 C186 1.373 . S
C185 C189 1.308 1_554 S
C186 C185 1.373 . S
C186 C187 1.429 . S
C186 H196 0.932 . S
C187 C184 1.358 . S
C187 C186 1.429 . S
C187 H197 0.930 . S
C188 C184 1.332 1_556 S
C188 C189 1.394 . S
C188 H198 0.932 . S
C189 C185 1.308 1_556 S
C189 C188 1.394 . S
C189 H199 0.929 . S
C190 Tb161 2.764 . S
C190 O174 1.239 1_554 S
C190 O175 1.263 . S
C190 C184 1.504 . S
C191 O176 1.236 . S
C191 O177 1.257 . S
H192 C165 0.932 1_556 S
H193 C166 0.930 . S
H194 C167 0.932 . S
H195 C168 0.929 . S
H196 C186 0.932 . S
H197 C187 0.930 . S
H198 C188 0.932 . S
H199 C189 0.929 . S
Tb200 C209 2.764 . S
Tb200 O210 2.325 . S
Tb200 O213 2.303 . S
Tb200 O217 2.322 . S
Tb200 O218 2.349 1_554 S
Tb200 O221 2.415 . S
Tb200 O222 2.399 1_554 S
Tb201 O211 2.322 . S
Tb201 O212 2.349 . S
Tb201 O214 2.415 1_554 S
Tb201 O215 2.399 . S
Tb201 O216 2.325 . S
Tb201 O219 2.303 1_554 S
Tb201 C230 2.764 . S
C202 O218 1.261 . S
C202 O219 1.257 . S
C203 C206 1.360 . S
C203 C207 1.332 . S
C203 C209 1.504 . S
C204 C205 1.373 . S
C204 C208 1.308 . S
C205 C204 1.373 . S
C205 C206 1.430 . S
C205 H232 0.932 1_554 S
C206 C203 1.360 . S
C206 C205 1.430 . S
C206 H233 0.927 1_554 S
C207 C203 1.332 . S
C207 C208 1.394 . S
C207 H234 0.932 . S
C208 C204 1.308 . S
C208 C207 1.394 . S
C208 H235 0.929 . S
C209 Tb200 2.764 . S
C209 C203 1.504 . S
C209 O221 1.239 . S
C209 O222 1.263 1_554 S
O210 Tb200 2.325 . S
O210 C220 1.236 . S
O211 Tb201 2.322 . S
O211 C220 1.257 . S
O212 Tb201 2.349 . S
O212 C223 1.261 . S
O213 Tb200 2.303 . S
O213 C223 1.257 . S
O214 Tb201 2.415 1_556 S
O214 C230 1.239 1_556 S
O215 Tb201 2.399 . S
O215 C230 1.263 . S
O216 Tb201 2.325 . S
O216 C231 1.236 . S
O217 Tb200 2.322 . S
O217 C231 1.257 . S
O218 Tb200 2.349 1_556 S
O218 C202 1.261 . S
O219 Tb201 2.303 1_556 S
O219 C202 1.257 . S
C220 O210 1.236 . S
C220 O211 1.257 . S
O221 Tb200 2.415 . S
O221 C209 1.239 . S
O222 Tb200 2.399 1_556 S
O222 C209 1.263 1_556 S
C223 O212 1.261 . S
C223 O213 1.257 . S
C224 C227 1.358 . S
C224 C228 1.332 1_554 S
C224 C230 1.504 . S
C225 C226 1.373 . S
C225 C229 1.308 1_554 S
C226 C225 1.373 . S
C226 C227 1.429 . S
C226 H236 0.932 . S
C227 C224 1.358 . S
C227 C226 1.429 . S
C227 H237 0.930 . S
C228 C224 1.332 1_556 S
C228 C229 1.394 . S
C228 H238 0.932 . S
C229 C225 1.308 1_556 S
C229 C228 1.394 . S
C229 H239 0.929 . S
C230 Tb201 2.764 . S
C230 O214 1.239 1_554 S
C230 O215 1.263 . S
C230 C224 1.504 . S
C231 O216 1.236 . S
C231 O217 1.257 . S
H232 C205 0.932 1_556 S
H233 C206 0.927 1_556 S
H234 C207 0.932 . S
H235 C208 0.929 . S
H236 C226 0.932 . S
H237 C227 0.930 . S
H238 C228 0.932 . S
H239 C229 0.929 . S
Tb240 C249 2.764 . S
Tb240 O250 2.325 . S
Tb240 O253 2.303 . S
Tb240 O257 2.322 . S
Tb240 O258 2.349 . S
Tb240 O261 2.415 . S
Tb240 O262 2.399 . S
Tb241 O251 2.322 . S
Tb241 O252 2.349 . S
Tb241 O254 2.415 . S
Tb241 O255 2.399 . S
Tb241 O256 2.325 . S
Tb241 O259 2.303 . S
Tb241 C270 2.764 . S
C242 O258 1.261 . S
C242 O259 1.257 . S
C243 C246 1.358 . S
C243 C247 1.332 . S
C243 C249 1.504 . S
C244 C245 1.373 . S
C244 C248 1.308 . S
C245 C244 1.373 . S
C245 C246 1.429 . S
C245 H272 0.932 . S
C246 C243 1.358 . S
C246 C245 1.429 . S
C246 H273 0.930 . S
C247 C243 1.332 . S
C247 C248 1.394 . S
C247 H274 0.932 . S
C248 C244 1.308 . S
C248 C247 1.394 . S
C248 H275 0.929 . S
C249 Tb240 2.764 . S
C249 C243 1.504 . S
C249 O261 1.239 . S
C249 O262 1.263 . S
O250 Tb240 2.325 . S
O250 C260 1.236 . S
O251 Tb241 2.322 . S
O251 C260 1.257 . S
O252 Tb241 2.349 . S
O252 C263 1.261 . S
O253 Tb240 2.303 . S
O253 C263 1.257 . S
O254 Tb241 2.415 . S
O254 C270 1.239 . S
O255 Tb241 2.399 . S
O255 C270 1.263 . S
O256 Tb241 2.325 . S
O256 C271 1.236 . S
O257 Tb240 2.322 . S
O257 C271 1.257 . S
O258 Tb240 2.349 . S
O258 C242 1.261 . S
O259 Tb241 2.303 . S
O259 C242 1.257 . S
C260 O250 1.236 . S
C260 O251 1.257 . S
O261 Tb240 2.415 . S
O261 C249 1.239 . S
O262 Tb240 2.399 . S
O262 C249 1.263 . S
C263 O252 1.261 . S
C263 O253 1.257 . S
C264 C267 1.358 . S
C264 C268 1.332 . S
C264 C270 1.504 . S
C265 C266 1.373 . S
C265 C269 1.308 . S
C266 C265 1.373 . S
C266 C267 1.429 . S
C266 H276 0.932 . S
C267 C264 1.358 . S
C267 C266 1.429 . S
C267 H277 0.930 . S
C268 C264 1.332 . S
C268 C269 1.394 . S
C268 H278 0.932 . S
C269 C265 1.308 . S
C269 C268 1.394 . S
C269 H279 0.929 . S
C270 Tb241 2.764 . S
C270 O254 1.239 . S
C270 O255 1.263 . S
C270 C264 1.504 . S
C271 O256 1.236 . S
C271 O257 1.257 . S
H272 C245 0.932 . S
H273 C246 0.930 . S
H274 C247 0.932 . S
H275 C248 0.929 . S
H276 C266 0.932 . S
H277 C267 0.930 . S
H278 C268 0.932 . S
H279 C269 0.929 . S
Tb280 C289 2.764 . S
Tb280 O290 2.325 . S
Tb280 O293 2.303 . S
Tb280 O297 2.322 . S
Tb280 O298 2.349 . S
Tb280 O301 2.415 . S
Tb280 O302 2.399 . S
Tb281 O291 2.322 . S
Tb281 O292 2.349 . S
Tb281 O294 2.415 . S
Tb281 O295 2.399 . S
Tb281 O296 2.325 . S
Tb281 O299 2.303 . S
Tb281 C310 2.764 . S
C282 O298 1.261 . S
C282 O299 1.257 . S
C283 C286 1.358 . S
C283 C287 1.332 . S
C283 C289 1.504 . S
C284 C285 1.373 . S
C284 C288 1.308 . S
C285 C284 1.373 . S
C285 C286 1.429 . S
C285 H312 0.932 . S
C286 C283 1.358 . S
C286 C285 1.429 . S
C286 H313 0.930 . S
C287 C283 1.332 . S
C287 C288 1.394 . S
C287 H314 0.932 . S
C288 C284 1.308 . S
C288 C287 1.394 . S
C288 H315 0.929 . S
C289 Tb280 2.764 . S
C289 C283 1.504 . S
C289 O301 1.239 . S
C289 O302 1.263 . S
O290 Tb280 2.325 . S
O290 C300 1.236 . S
O291 Tb281 2.322 . S
O291 C300 1.257 . S
O292 Tb281 2.349 . S
O292 C303 1.261 . S
O293 Tb280 2.303 . S
O293 C303 1.257 . S
O294 Tb281 2.415 . S
O294 C310 1.239 . S
O295 Tb281 2.399 . S
O295 C310 1.263 . S
O296 Tb281 2.325 . S
O296 C311 1.236 . S
O297 Tb280 2.322 . S
O297 C311 1.257 . S
O298 Tb280 2.349 . S
O298 C282 1.261 . S
O299 Tb281 2.303 . S
O299 C282 1.257 . S
C300 O290 1.236 . S
C300 O291 1.257 . S
O301 Tb280 2.415 . S
O301 C289 1.239 . S
O302 Tb280 2.399 . S
O302 C289 1.263 . S
C303 O292 1.261 . S
C303 O293 1.257 . S
C304 C307 1.358 . S
C304 C308 1.332 . S
C304 C310 1.504 . S
C305 C306 1.373 . S
C305 C309 1.308 . S
C306 C305 1.373 . S
C306 C307 1.429 . S
C306 H316 0.932 . S
C307 C304 1.358 . S
C307 C306 1.429 . S
C307 H317 0.930 . S
C308 C304 1.332 . S
C308 C309 1.394 . S
C308 H318 0.932 . S
C309 C305 1.308 . S
C309 C308 1.394 . S
C309 H319 0.929 . S
C310 Tb281 2.764 . S
C310 O294 1.239 . S
C310 O295 1.263 . S
C310 C304 1.504 . S
C311 O296 1.236 . S
C311 O297 1.257 . S
H312 C285 0.932 . S
H313 C286 0.930 . S
H314 C287 0.932 . S
H315 C288 0.929 . S
H316 C306 0.932 . S
H317 C307 0.930 . S
H318 C308 0.932 . S
H319 C309 0.929 . S
C320 C321 1.391 . S
C320 C322 1.394 . S
C320 H336 0.931 . S
C321 C320 1.391 . S
C321 C325 1.376 . S
C322 C320 1.394 . S
C322 C323 1.369 . S
C322 C326 1.531 . S
C323 C322 1.369 . S
C323 C324 1.410 . S
C323 C331 1.503 . S
C324 C323 1.410 . S
C324 C325 1.392 . S
C324 C327 1.511 1_554 S
C325 C321 1.376 . S
C325 C324 1.392 . S
C325 H337 0.929 1_554 S
C326 C322 1.531 . S
C326 H338 0.960 . S
C326 H339 0.962 . S
C326 H340 0.960 . S
C327 C324 1.511 1_556 S
C327 H341 0.961 . S
C327 H342 0.961 . S
C327 H343 0.961 . S
C328 C329 1.370 1_556 S
C328 C330 1.363 . S
C328 H344 0.931 . S
C329 C328 1.370 1_554 S
C329 C333 1.408 . S
C330 C328 1.363 . S
C330 C331 1.370 1_556 S
C330 C334 1.524 . S
C331 C323 1.503 . S
C331 C330 1.370 1_554 S
C331 C332 1.403 . S
C332 C331 1.403 . S
C332 C333 1.404 . S
C332 C335 1.539 . S
C333 C329 1.408 . S
C333 C332 1.404 . S
C333 H345 0.930 . S
C334 C330 1.524 . S
C334 H346 0.956 . S
C334 H347 0.961 . S
C334 H348 0.961 . S
C335 C332 1.539 . S
C335 H349 0.958 . S
C335 H350 0.961 . S
C335 H351 0.960 . S
H336 C320 0.931 . S
H337 C325 0.929 1_556 S
H338 C326 0.960 . S
H339 C326 0.962 . S
H340 C326 0.960 . S
H341 C327 0.961 . S
H342 C327 0.961 . S
H343 C327 0.961 . S
H344 C328 0.931 . S
H345 C333 0.930 . S
H346 C334 0.956 . S
H347 C334 0.961 . S
H348 C334 0.961 . S
H349 C335 0.958 . S
H350 C335 0.961 . S
H351 C335 0.960 . S
C352 C353 1.391 1_556 S
C352 C354 1.394 . S
C352 H368 0.931 . S
C353 C352 1.391 1_554 S
C353 C357 1.376 . S
C354 C352 1.394 . S
C354 C355 1.369 1_556 S
C354 C358 1.531 . S
C355 C354 1.369 1_554 S
C355 C356 1.410 . S
C355 C363 1.503 . S
C356 C355 1.410 . S
C356 C357 1.392 . S
C356 C359 1.511 . S
C357 C353 1.376 . S
C357 C356 1.392 . S
C357 H369 0.929 . S
C358 C354 1.531 . S
C358 H370 0.960 . S
C358 H371 0.962 . S
C358 H372 0.960 . S
C359 C356 1.511 . S
C359 H373 0.961 . S
C359 H374 0.961 . S
C359 H375 0.961 . S
C360 C361 1.370 . S
C360 C362 1.363 . S
C360 H376 0.931 . S
C361 C360 1.370 . S
C361 C365 1.404 1_554 S
C362 C360 1.363 . S
C362 C363 1.370 . S
C362 C366 1.524 . S
C363 C355 1.503 . S
C363 C362 1.370 . S
C363 C364 1.403 1_554 S
C364 C363 1.403 1_556 S
C364 C365 1.405 . S
C364 C367 1.539 . S
C365 C361 1.404 1_556 S
C365 C364 1.405 . S
C365 H377 0.932 . S
C366 C362 1.524 . S
C366 H378 0.956 . S
C366 H379 0.961 . S
C366 H380 0.961 . S
C367 C364 1.539 . S
C367 H381 0.958 . S
C367 H382 0.961 . S
C367 H383 0.960 . S
H368 C352 0.931 . S
H369 C357 0.929 . S
H370 C358 0.960 . S
H371 C358 0.962 . S
H372 C358 0.960 . S
H373 C359 0.961 . S
H374 C359 0.961 . S
H375 C359 0.961 . S
H376 C360 0.931 . S
H377 C365 0.932 . S
H378 C366 0.956 . S
H379 C366 0.961 . S
H380 C366 0.961 . S
H381 C367 0.958 . S
H382 C367 0.961 . S
H383 C367 0.960 . S
C384 C385 1.391 . S
C384 C386 1.394 . S
C384 H400 0.931 . S
C385 C384 1.391 . S
C385 C389 1.376 . S
C386 C384 1.394 . S
C386 C387 1.369 . S
C386 C390 1.531 . S
C387 C386 1.369 . S
C387 C388 1.410 . S
C387 C395 1.503 . S
C388 C387 1.410 . S
C388 C389 1.392 . S
C388 C391 1.511 . S
C389 C385 1.376 . S
C389 C388 1.392 . S
C389 H401 0.929 . S
C390 C386 1.531 . S
C390 H402 0.960 . S
C390 H403 0.962 . S
C390 H404 0.960 . S
C391 C388 1.511 . S
C391 H405 0.961 . S
C391 H406 0.961 . S
C391 H407 0.961 . S
C392 C393 1.370 . S
C392 C394 1.363 . S
C392 H408 0.931 . S
C393 C392 1.370 . S
C393 C397 1.408 . S
C394 C392 1.363 . S
C394 C395 1.370 . S
C394 C398 1.524 . S
C395 C387 1.503 . S
C395 C394 1.370 . S
C395 C396 1.403 . S
C396 C395 1.403 . S
C396 C397 1.404 . S
C396 C399 1.539 . S
C397 C393 1.408 . S
C397 C396 1.404 . S
C397 H409 0.930 . S
C398 C394 1.524 . S
C398 H410 0.956 . S
C398 H411 0.961 . S
C398 H412 0.961 . S
C399 C396 1.539 . S
C399 H413 0.958 . S
C399 H414 0.961 . S
C399 H415 0.960 . S
H400 C384 0.931 . S
H401 C389 0.929 . S
H402 C390 0.960 . S
H403 C390 0.962 . S
H404 C390 0.960 . S
H405 C391 0.961 . S
H406 C391 0.961 . S
H407 C391 0.961 . S
H408 C392 0.931 . S
H409 C397 0.930 . S
H410 C398 0.956 . S
H411 C398 0.961 . S
H412 C398 0.961 . S
H413 C399 0.958 . S
H414 C399 0.961 . S
H415 C399 0.960 . S
C416 C417 1.391 . S
C416 C418 1.394 . S
C416 H432 0.931 . S
C417 C416 1.391 . S
C417 C421 1.376 . S
C418 C416 1.394 . S
C418 C419 1.369 . S
C418 C422 1.531 . S
C419 C418 1.369 . S
C419 C420 1.410 . S
C419 C427 1.503 . S
C420 C419 1.410 . S
C420 C421 1.392 . S
C420 C423 1.511 . S
C421 C417 1.376 . S
C421 C420 1.392 . S
C421 H433 0.929 . S
C422 C418 1.531 . S
C422 H434 0.960 . S
C422 H435 0.962 . S
C422 H436 0.960 . S
C423 C420 1.511 . S
C423 H437 0.961 . S
C423 H438 0.961 . S
C423 H439 0.961 . S
C424 C425 1.370 . S
C424 C426 1.363 . S
C424 H440 0.931 . S
C425 C424 1.370 . S
C425 C429 1.408 . S
C426 C424 1.363 . S
C426 C427 1.370 . S
C426 C430 1.524 . S
C427 C419 1.503 . S
C427 C426 1.370 . S
C427 C428 1.403 . S
C428 C427 1.403 . S
C428 C429 1.404 . S
C428 C431 1.539 . S
C429 C425 1.408 . S
C429 C428 1.404 . S
C429 H441 0.930 . S
C430 C426 1.524 . S
C430 H442 0.956 . S
C430 H443 0.961 . S
C430 H444 0.961 . S
C431 C428 1.539 . S
C431 H445 0.958 . S
C431 H446 0.961 . S
C431 H447 0.960 . S
H432 C416 0.931 . S
H433 C421 0.929 . S
H434 C422 0.960 . S
H435 C422 0.962 . S
H436 C422 0.960 . S
H437 C423 0.961 . S
H438 C423 0.961 . S
H439 C423 0.961 . S
H440 C424 0.931 . S
H441 C429 0.930 . S
H442 C430 0.956 . S
H443 C430 0.961 . S
H444 C430 0.961 . S
H445 C431 0.958 . S
H446 C431 0.961 . S
H447 C431 0.960 . S
C448 C449 1.391 1_556 S
C448 C450 1.394 . S
C448 H464 0.931 . S
C449 C448 1.391 1_554 S
C449 C453 1.376 . S
C450 C448 1.394 . S
C450 C451 1.369 1_656 S
C450 C454 1.531 1_655 S
C451 C450 1.369 1_454 S
C451 C452 1.410 1_455 S
C451 C459 1.503 . S
C452 C451 1.410 1_655 S
C452 C453 1.392 . S
C452 C455 1.511 . S
C453 C449 1.376 . S
C453 C452 1.392 . S
C453 H465 0.929 . S
C454 C450 1.531 1_455 S
C454 H466 0.960 . S
C454 H467 0.962 . S
C454 H468 0.960 . S
C455 C452 1.511 . S
C455 H469 0.961 . S
C455 H470 0.961 1_655 S
C455 H471 0.961 . S
C456 C457 1.370 . S
C456 C458 1.363 . S
C456 H472 0.931 . S
C457 C456 1.370 . S
C457 C461 1.408 . S
C458 C456 1.363 . S
C458 C459 1.370 . S
C458 C462 1.524 . S
C459 C451 1.503 . S
C459 C458 1.370 . S
C459 C460 1.403 . S
C460 C459 1.403 . S
C460 C461 1.404 . S
C460 C463 1.539 . S
C461 C457 1.408 . S
C461 C460 1.404 . S
C461 H473 0.930 . S
C462 C458 1.524 . S
C462 H474 0.956 1_554 S
C462 H475 0.961 . S
C462 H476 0.961 . S
C463 C460 1.539 . S
C463 H477 0.958 1_554 S
C463 H478 0.961 . S
C463 H479 0.960 . S
H464 C448 0.931 . S
H465 C453 0.929 . S
H466 C454 0.960 . S
H467 C454 0.962 . S
H468 C454 0.960 . S
H469 C455 0.961 . S
H470 C455 0.961 1_455 S
H471 C455 0.961 . S
H472 C456 0.931 . S
H473 C461 0.930 . S
H474 C462 0.956 1_556 S
H475 C462 0.961 . S
H476 C462 0.961 . S
H477 C463 0.958 1_556 S
H478 C463 0.961 . S
H479 C463 0.960 . S
C480 C481 1.391 . S
C480 C482 1.394 . S
C480 H496 0.931 . S
C481 C480 1.391 . S
C481 C485 1.376 . S
C482 C480 1.394 . S
C482 C483 1.369 1_455 S
C482 C486 1.531 1_455 S
C483 C482 1.369 1_655 S
C483 C484 1.410 1_655 S
C483 C491 1.503 . S
C484 C483 1.410 1_455 S
C484 C485 1.392 . S
C484 C487 1.511 1_455 S
C485 C481 1.376 . S
C485 C484 1.392 . S
C485 H497 0.929 . S
C486 C482 1.531 1_655 S
C486 H498 0.960 . S
C486 H499 0.962 . S
C486 H500 0.960 1_655 S
C487 C484 1.511 1_655 S
C487 H501 0.961 . S
C487 H502 0.961 . S
C487 H503 0.961 . S
C488 C489 1.370 1_556 S
C488 C490 1.363 . S
C488 H504 0.931 . S
C489 C488 1.370 1_554 S
C489 C493 1.408 . S
C490 C488 1.363 . S
C490 C491 1.370 1_556 S
C490 C494 1.524 . S
C491 C483 1.503 . S
C491 C490 1.370 1_554 S
C491 C492 1.403 . S
C492 C491 1.403 . S
C492 C493 1.404 . S
C492 C495 1.539 . S
C493 C489 1.408 . S
C493 C492 1.404 . S
C493 H505 0.930 . S
C494 C490 1.524 . S
C494 H506 0.956 . S
C494 H507 0.961 . S
C494 H508 0.961 . S
C495 C492 1.539 . S
C495 H509 0.958 . S
C495 H510 0.961 . S
C495 H511 0.960 . S
H496 C480 0.931 . S
H497 C485 0.929 . S
H498 C486 0.960 . S
H499 C486 0.962 . S
H500 C486 0.960 1_455 S
H501 C487 0.961 . S
H502 C487 0.961 . S
H503 C487 0.961 . S
H504 C488 0.931 . S
H505 C493 0.930 . S
H506 C494 0.956 . S
H507 C494 0.961 . S
H508 C494 0.961 . S
H509 C495 0.958 . S
H510 C495 0.961 . S
H511 C495 0.960 . S
C512 C513 1.391 . S
C512 C514 1.394 . S
C512 H528 0.931 . S
C513 C512 1.391 . S
C513 C517 1.376 . S
C514 C512 1.394 . S
C514 C515 1.369 . S
C514 C518 1.531 . S
C515 C514 1.369 . S
C515 C516 1.410 . S
C515 C523 1.503 . S
C516 C515 1.410 . S
C516 C517 1.392 . S
C516 C519 1.511 . S
C517 C513 1.376 . S
C517 C516 1.392 . S
C517 H529 0.929 . S
C518 C514 1.531 . S
C518 H530 0.960 . S
C518 H531 0.962 . S
C518 H532 0.960 . S
C519 C516 1.511 . S
C519 H533 0.961 . S
C519 H534 0.961 . S
C519 H535 0.961 . S
C520 C521 1.370 . S
C520 C522 1.363 . S
C520 H536 0.931 . S
C521 C520 1.370 . S
C521 C525 1.408 . S
C522 C520 1.363 . S
C522 C523 1.370 1_655 S
C522 C526 1.524 . S
C523 C515 1.503 . S
C523 C522 1.370 1_455 S
C523 C524 1.403 1_455 S
C524 C523 1.403 1_655 S
C524 C525 1.404 . S
C524 C527 1.539 1_655 S
C525 C521 1.408 . S
C525 C524 1.404 . S
C525 H537 0.930 . S
C526 C522 1.524 . S
C526 H538 0.956 1_655 S
C526 H539 0.961 1_655 S
C526 H540 0.961 . S
C527 C524 1.539 1_455 S
C527 H541 0.958 . S
C527 H542 0.961 . S
C527 H543 0.960 . S
H528 C512 0.931 . S
H529 C517 0.929 . S
H530 C518 0.960 . S
H531 C518 0.962 . S
H532 C518 0.960 . S
H533 C519 0.961 . S
H534 C519 0.961 . S
H535 C519 0.961 . S
H536 C520 0.931 . S
H537 C525 0.930 . S
H538 C526 0.956 1_455 S
H539 C526 0.961 1_455 S
H540 C526 0.961 . S
H541 C527 0.958 . S
H542 C527 0.961 . S
H543 C527 0.960 . S
C544 C545 1.391 . S
C544 C546 1.394 . S
C544 H560 0.931 . S
C545 C544 1.391 . S
C545 C549 1.376 . S
C546 C544 1.394 . S
C546 C547 1.369 . S
C546 C550 1.531 . S
C547 C546 1.369 . S
C547 C548 1.410 . S
C547 C555 1.503 . S
C548 C547 1.410 . S
C548 C549 1.392 . S
C548 C551 1.511 . S
C549 C545 1.376 . S
C549 C548 1.392 . S
C549 H561 0.929 . S
C550 C546 1.531 . S
C550 H562 0.960 . S
C550 H563 0.962 . S
C550 H564 0.960 . S
C551 C548 1.511 . S
C551 H565 0.961 . S
C551 H566 0.961 . S
C551 H567 0.961 . S
C552 C553 1.370 . S
C552 C554 1.363 . S
C552 H568 0.931 . S
C553 C552 1.370 . S
C553 C557 1.408 . S
C554 C552 1.363 . S
C554 C555 1.370 1_455 S
C554 C558 1.524 1_455 S
C555 C547 1.503 . S
C555 C554 1.370 1_655 S
C555 C556 1.403 1_655 S
C556 C555 1.403 1_455 S
C556 C557 1.404 . S
C556 C559 1.539 . S
C557 C553 1.408 . S
C557 C556 1.404 . S
C557 H569 0.930 . S
C558 C554 1.524 1_655 S
C558 H570 0.956 . S
C558 H571 0.961 . S
C558 H572 0.961 . S
C559 C556 1.539 . S
C559 H573 0.958 . S
C559 H574 0.961 . S
C559 H575 0.960 1_455 S
H560 C544 0.931 . S
H561 C549 0.929 . S
H562 C550 0.960 . S
H563 C550 0.962 . S
H564 C550 0.960 . S
H565 C551 0.961 . S
H566 C551 0.961 . S
H567 C551 0.961 . S
H568 C552 0.931 . S
H569 C557 0.930 . S
H570 C558 0.956 . S
H571 C558 0.961 . S
H572 C558 0.961 . S
H573 C559 0.958 . S
H574 C559 0.961 . S
H575 C559 0.960 1_655 S
C576 C577 1.391 . S
C576 C578 1.394 . S
C576 H592 0.931 . S
C577 C576 1.391 . S
C577 C581 1.376 1_455 S
C578 C576 1.394 . S
C578 C579 1.369 . S
C578 C582 1.531 . S
C579 C578 1.369 . S
C579 C580 1.410 1_455 S
C579 C587 1.503 1_455 S
C580 C579 1.410 1_655 S
C580 C581 1.392 . S
C580 C583 1.511 . S
C581 C577 1.376 1_655 S
C581 C580 1.392 . S
C581 H593 0.929 . S
C582 C578 1.531 . S
C582 H594 0.960 . S
C582 H595 0.962 1_554 S
C582 H596 0.960 . S
C583 C580 1.511 . S
C583 H597 0.961 . S
C583 H598 0.961 . S
C583 H599 0.961 . S
C584 C585 1.370 1_556 S
C584 C586 1.363 . S
C584 H600 0.931 . S
C585 C584 1.370 1_554 S
C585 C589 1.408 . S
C586 C584 1.363 . S
C586 C587 1.370 1_556 S
C586 C590 1.524 . S
C587 C579 1.503 1_655 S
C587 C586 1.370 1_554 S
C587 C588 1.403 . S
C588 C587 1.403 . S
C588 C589 1.404 . S
C588 C591 1.539 . S
C589 C585 1.408 . S
C589 C588 1.404 . S
C589 H601 0.930 . S
C590 C586 1.524 . S
C590 H602 0.956 1_655 S
C590 H603 0.961 . S
C590 H604 0.961 . S
C591 C588 1.539 . S
C591 H605 0.958 1_655 S
C591 H606 0.961 . S
C591 H607 0.960 . S
H592 C576 0.931 . S
H593 C581 0.929 . S
H594 C582 0.960 . S
H595 C582 0.962 1_556 S
H596 C582 0.960 . S
H597 C583 0.961 . S
H598 C583 0.961 . S
H599 C583 0.961 . S
H600 C584 0.931 . S
H601 C589 0.930 . S
H602 C590 0.956 1_455 S
H603 C590 0.961 . S
H604 C590 0.961 . S
H605 C591 0.958 1_455 S
H606 C591 0.961 . S
H607 C591 0.960 . S
C608 C609 1.391 . S
C608 C610 1.394 . S
C608 H624 0.931 . S
C609 C608 1.391 . S
C609 C613 1.376 1_455 S
C610 C608 1.394 . S
C610 C611 1.369 . S
C610 C614 1.531 . S
C611 C610 1.369 . S
C611 C612 1.410 1_455 S
C611 C619 1.503 1_455 S
C612 C611 1.410 1_655 S
C612 C613 1.392 . S
C612 C615 1.511 . S
C613 C609 1.376 1_655 S
C613 C612 1.392 . S
C613 H625 0.929 . S
C614 C610 1.531 . S
C614 H626 0.960 . S
C614 H627 0.962 . S
C614 H628 0.960 . S
C615 C612 1.511 . S
C615 H629 0.961 . S
C615 H630 0.961 . S
C615 H631 0.961 . S
C616 C617 1.370 . S
C616 C618 1.363 . S
C616 H632 0.931 . S
C617 C616 1.370 . S
C617 C621 1.408 . S
C618 C616 1.363 . S
C618 C619 1.370 . S
C618 C622 1.524 1_655 S
C619 C611 1.503 1_655 S
C619 C618 1.370 . S
C619 C620 1.403 . S
C620 C619 1.403 . S
C620 C621 1.404 . S
C620 C623 1.539 . S
C621 C617 1.408 . S
C621 C620 1.404 . S
C621 H633 0.930 . S
C622 C618 1.524 1_455 S
C622 H634 0.956 . S
C622 H635 0.961 1_455 S
C622 H636 0.961 1_455 S
C623 C620 1.539 . S
C623 H637 0.958 . S
C623 H638 0.961 . S
C623 H639 0.960 . S
H624 C608 0.931 . S
H625 C613 0.929 . S
H626 C614 0.960 . S
H627 C614 0.962 . S
H628 C614 0.960 . S
H629 C615 0.961 . S
H630 C615 0.961 . S
H631 C615 0.961 . S
H632 C616 0.931 . S
H633 C621 0.930 . S
H634 C622 0.956 . S
H635 C622 0.961 1_655 S
H636 C622 0.961 1_655 S
H637 C623 0.958 . S
H638 C623 0.961 . S
H639 C623 0.960 . S
C640 C641 1.391 . S
C640 C642 1.394 . S
C640 H656 0.931 . S
C641 C640 1.391 . S
C641 C645 1.376 1_554 S
C642 C640 1.394 . S
C642 C643 1.369 . S
C642 C646 1.531 . S
C643 C642 1.369 . S
C643 C644 1.410 1_554 S
C643 C651 1.503 1_565 S
C644 C643 1.410 1_556 S
C644 C645 1.392 . S
C644 C647 1.511 . S
C645 C641 1.376 1_556 S
C645 C644 1.392 . S
C645 H657 0.929 . S
C646 C642 1.531 . S
C646 H658 0.960 1_565 S
C646 H659 0.962 1_565 S
C646 H660 0.960 . S
C647 C644 1.511 . S
C647 H661 0.961 . S
C647 H662 0.961 . S
C647 H663 0.961 . S
C648 C649 1.370 . S
C648 C650 1.363 . S
C648 H664 0.931 . S
C649 C648 1.370 . S
C649 C653 1.408 . S
C650 C648 1.363 . S
C650 C651 1.370 . S
C650 C654 1.524 1_554 S
C651 C643 1.503 1_545 S
C651 C650 1.370 . S
C651 C652 1.403 . S
C652 C651 1.403 . S
C652 C653 1.404 . S
C652 C655 1.539 1_545 S
C653 C649 1.408 . S
C653 C652 1.404 . S
C653 H665 0.930 . S
C654 C650 1.524 1_556 S
C654 H666 0.956 1_556 S
C654 H667 0.961 . S
C654 H668 0.961 . S
C655 C652 1.539 1_565 S
C655 H669 0.958 . S
C655 H670 0.987 . S
C655 H671 0.960 . S
H656 C640 0.931 . S
H657 C645 0.929 . S
H658 C646 0.960 1_545 S
H659 C646 0.962 1_545 S
H660 C646 0.960 . S
H661 C647 0.961 . S
H662 C647 0.961 . S
H663 C647 0.961 . S
H664 C648 0.931 . S
H665 C653 0.930 . S
H666 C654 0.956 1_554 S
H667 C654 0.961 . S
H668 C654 0.961 . S
H669 C655 0.958 . S
H670 C655 0.987 . S
H671 C655 0.960 . S
C672 C673 1.391 . S
C672 C674 1.394 . S
C672 H688 0.931 . S
C673 C672 1.391 . S
C673 C677 1.376 . S
C674 C672 1.394 . S
C674 C675 1.369 . S
C674 C678 1.531 . S
C675 C674 1.369 . S
C675 C676 1.410 . S
C675 C683 1.503 1_545 S
C676 C675 1.410 . S
C676 C677 1.392 . S
C676 C679 1.511 1_545 S
C677 C673 1.376 . S
C677 C676 1.392 . S
C677 H689 0.929 . S
C678 C674 1.531 . S
C678 H690 0.960 . S
C678 H691 0.962 . S
C678 H692 0.960 . S
C679 C676 1.511 1_565 S
C679 H693 0.961 . S
C679 H694 0.961 . S
C679 H695 0.961 . S
C680 C681 1.370 . S
C680 C682 1.363 . S
C680 H696 0.931 . S
C681 C680 1.370 . S
C681 C685 1.408 . S
C682 C680 1.363 . S
C682 C683 1.370 . S
C682 C686 1.524 . S
C683 C675 1.503 1_565 S
C683 C682 1.370 . S
C683 C684 1.403 . S
C684 C683 1.403 . S
C684 C685 1.404 . S
C684 C687 1.539 . S
C685 C681 1.408 . S
C685 C684 1.404 . S
C685 H697 0.930 . S
C686 C682 1.524 . S
C686 H698 0.933 1_565 S
C686 H699 0.961 . S
C686 H700 0.961 . S
C687 C684 1.539 . S
C687 H701 0.964 . S
C687 H702 0.961 . S
C687 H703 0.931 1_565 S
H688 C672 0.931 . S
H689 C677 0.929 . S
H690 C678 0.960 . S
H691 C678 0.962 . S
H692 C678 0.960 . S
H693 C679 0.961 . S
H694 C679 0.961 . S
H695 C679 0.961 . S
H696 C680 0.931 . S
H697 C685 0.930 . S
H698 C686 0.933 1_545 S
H699 C686 0.961 . S
H700 C686 0.961 . S
H701 C687 0.964 . S
H702 C687 0.961 . S
H703 C687 0.931 1_545 S
C704 C705 1.391 . S
C704 C706 1.394 . S
C704 H720 0.931 . S
C705 C704 1.391 . S
C705 C709 1.376 . S
C706 C704 1.394 . S
C706 C707 1.369 . S
C706 C710 1.531 . S
C707 C706 1.369 . S
C707 C708 1.410 . S
C707 C715 1.503 . S
C708 C707 1.410 . S
C708 C709 1.392 . S
C708 C711 1.511 1_554 S
C709 C705 1.376 . S
C709 C708 1.392 . S
C709 H721 0.929 . S
C710 C706 1.531 . S
C710 H722 0.960 . S
C710 H723 0.962 . S
C710 H724 0.960 . S
C711 C708 1.511 1_556 S
C711 H725 0.961 . S
C711 H726 0.961 . S
C711 H727 0.961 1_556 S
C712 C713 1.370 1_556 S
C712 C714 1.363 . S
C712 H728 0.931 . S
C713 C712 1.370 1_554 S
C713 C717 1.408 . S
C714 C712 1.363 . S
C714 C715 1.370 1_556 S
C714 C718 1.524 . S
C715 C707 1.503 . S
C715 C714 1.370 1_554 S
C715 C716 1.403 . S
C716 C715 1.403 . S
C716 C717 1.404 . S
C716 C719 1.539 . S
C717 C713 1.408 . S
C717 C716 1.404 . S
C717 H729 0.930 . S
C718 C714 1.524 . S
C718 H730 0.956 . S
C718 H731 0.961 . S
C718 H732 0.961 . S
C719 C716 1.539 . S
C719 H733 0.958 . S
C719 H734 0.961 . S
C719 H735 0.960 . S
H720 C704 0.931 . S
H721 C709 0.929 . S
H722 C710 0.960 . S
H723 C710 0.962 . S
H724 C710 0.960 . S
H725 C711 0.961 . S
H726 C711 0.961 . S
H727 C711 0.961 1_554 S
H728 C712 0.931 . S
H729 C717 0.930 . S
H730 C718 0.956 . S
H731 C718 0.961 . S
H732 C718 0.961 . S
H733 C719 0.958 . S
H734 C719 0.961 . S
H735 C719 0.960 . S
C736 C737 1.391 . S
C736 C738 1.394 . S
C736 H752 0.931 . S
C737 C736 1.391 . S
C737 C741 1.376 . S
C738 C736 1.394 . S
C738 C739 1.369 . S
C738 C742 1.531 . S
C739 C738 1.369 . S
C739 C740 1.410 . S
C739 C747 1.503 . S
C740 C739 1.410 . S
C740 C741 1.392 . S
C740 C743 1.511 . S
C741 C737 1.376 . S
C741 C740 1.392 . S
C741 H753 0.929 . S
C742 C738 1.531 . S
C742 H754 0.960 . S
C742 H755 0.962 . S
C742 H756 0.960 . S
C743 C740 1.511 . S
C743 H757 0.961 1_554 S
C743 H758 0.961 1_554 S
C743 H759 0.961 . S
C744 C745 1.370 1_556 S
C744 C746 1.363 . S
C744 H760 0.931 . S
C745 C744 1.370 1_554 S
C745 C749 1.408 . S
C746 C744 1.363 . S
C746 C747 1.370 1_556 S
C746 C750 1.524 . S
C747 C739 1.503 . S
C747 C746 1.370 1_554 S
C747 C748 1.403 . S
C748 C747 1.403 . S
C748 C749 1.404 . S
C748 C751 1.539 . S
C749 C745 1.408 . S
C749 C748 1.404 . S
C749 H761 0.930 . S
C750 C746 1.524 . S
C750 H762 0.956 . S
C750 H763 0.961 . S
C750 H764 0.961 . S
C751 C748 1.539 . S
C751 H765 0.958 . S
C751 H766 0.961 . S
C751 H767 0.960 . S
H752 C736 0.931 . S
H753 C741 0.929 . S
H754 C742 0.960 . S
H755 C742 0.962 . S
H756 C742 0.960 . S
H757 C743 0.961 1_556 S
H758 C743 0.961 1_556 S
H759 C743 0.961 . S
H760 C744 0.931 . S
H761 C749 0.930 . S
H762 C750 0.956 . S
H763 C750 0.961 . S
H764 C750 0.961 . S
H765 C751 0.958 . S
H766 C751 0.961 . S
H767 C751 0.960 . S
C768 C769 1.391 . S
C768 C770 1.394 . S
C768 H784 0.931 . S
C769 C768 1.391 . S
C769 C773 1.376 . S
C770 C768 1.394 . S
C770 C771 1.369 . S
C770 C774 1.531 . S
C771 C770 1.369 . S
C771 C772 1.410 . S
C771 C779 1.503 . S
C772 C771 1.410 . S
C772 C773 1.392 . S
C772 C775 1.511 . S
C773 C769 1.376 . S
C773 C772 1.392 . S
C773 H785 0.929 . S
C774 C770 1.531 . S
C774 H786 0.960 . S
C774 H787 0.962 . S
C774 H788 0.960 . S
C775 C772 1.511 . S
C775 H789 0.961 . S
C775 H790 0.961 . S
C775 H791 0.961 . S
C776 C777 1.370 . S
C776 C778 1.363 . S
C776 H792 0.931 . S
C777 C776 1.370 . S
C777 C781 1.408 . S
C778 C776 1.363 . S
C778 C779 1.370 . S
C778 C782 1.524 . S
C779 C771 1.503 . S
C779 C778 1.370 . S
C779 C780 1.403 . S
C780 C779 1.403 . S
C780 C781 1.404 . S
C780 C783 1.539 . S
C781 C777 1.408 . S
C781 C780 1.404 . S
C781 H793 0.930 . S
C782 C778 1.524 . S
C782 H794 0.956 . S
C782 H795 0.961 . S
C782 H796 0.961 . S
C783 C780 1.539 . S
C783 H797 0.958 . S
C783 H798 0.961 . S
C783 H799 0.960 . S
H784 C768 0.931 . S
H785 C773 0.929 . S
H786 C774 0.960 . S
H787 C774 0.962 . S
H788 C774 0.960 . S
H789 C775 0.961 . S
H790 C775 0.961 . S
H791 C775 0.961 . S
H792 C776 0.931 . S
H793 C781 0.930 . S
H794 C782 0.956 . S
H795 C782 0.961 . S
H796 C782 0.961 . S
H797 C783 0.958 . S
H798 C783 0.961 . S
H799 C783 0.960 . S
C800 C801 1.391 . S
C800 C802 1.394 . S
C800 H816 0.931 . S
C801 C800 1.391 . S
C801 C805 1.376 . S
C802 C800 1.394 . S
C802 C803 1.369 . S
C802 C806 1.531 . S
C803 C802 1.369 . S
C803 C804 1.410 . S
C803 C811 1.503 . S
C804 C803 1.410 . S
C804 C805 1.392 . S
C804 C807 1.511 . S
C805 C801 1.376 . S
C805 C804 1.392 . S
C805 H817 0.929 . S
C806 C802 1.531 . S
C806 H818 0.960 . S
C806 H819 0.962 . S
C806 H820 0.960 . S
C807 C804 1.511 . S
C807 H821 0.961 . S
C807 H822 0.961 . S
C807 H823 0.961 . S
C808 C809 1.370 . S
C808 C810 1.363 . S
C808 H824 0.931 . S
C809 C808 1.370 . S
C809 C813 1.408 . S
C810 C808 1.363 . S
C810 C811 1.370 . S
C810 C814 1.524 . S
C811 C803 1.503 . S
C811 C810 1.370 . S
C811 C812 1.403 . S
C812 C811 1.403 . S
C812 C813 1.404 . S
C812 C815 1.539 . S
C813 C809 1.408 . S
C813 C812 1.404 . S
C813 H825 0.930 . S
C814 C810 1.524 . S
C814 H826 0.956 . S
C814 H827 0.961 . S
C814 H828 0.961 . S
C815 C812 1.539 . S
C815 H829 0.958 . S
C815 H830 0.961 . S
C815 H831 0.960 . S
H816 C800 0.931 . S
H817 C805 0.929 . S
H818 C806 0.960 . S
H819 C806 0.962 . S
H820 C806 0.960 . S
H821 C807 0.961 . S
H822 C807 0.961 . S
H823 C807 0.961 . S
H824 C808 0.931 . S
H825 C813 0.930 . S
H826 C814 0.956 . S
H827 C814 0.961 . S
H828 C814 0.961 . S
H829 C815 0.958 . S
H830 C815 0.961 . S
H831 C815 0.960 . S
C832 C833 1.391 1_655 S
C832 C834 1.394 . S
C832 H848 0.931 . S
C833 C832 1.391 1_455 S
C833 C837 1.376 . S
C834 C832 1.394 . S
C834 C835 1.369 1_655 S
C834 C838 1.531 . S
C835 C834 1.369 1_455 S
C835 C836 1.410 . S
C835 C843 1.503 1_455 S
C836 C835 1.410 . S
C836 C837 1.392 . S
C836 C839 1.511 . S
C837 C833 1.376 . S
C837 C836 1.392 . S
C837 H849 0.929 . S
C838 C834 1.531 . S
C838 H850 0.960 . S
C838 H851 0.962 . S
C838 H852 0.960 . S
C839 C836 1.511 . S
C839 H853 0.961 . S
C839 H854 0.961 . S
C839 H855 0.961 . S
C840 C841 1.370 . S
C840 C842 1.363 . S
C840 H856 0.931 . S
C841 C840 1.370 . S
C841 C845 1.408 1_655 S
C842 C840 1.363 . S
C842 C843 1.370 . S
C842 C846 1.524 . S
C843 C835 1.503 1_655 S
C843 C842 1.370 . S
C843 C844 1.403 1_655 S
C844 C843 1.403 1_455 S
C844 C845 1.404 . S
C844 C847 1.539 . S
C845 C841 1.408 1_455 S
C845 C844 1.404 . S
C845 H857 0.930 . S
C846 C842 1.524 . S
C846 H858 0.956 . S
C846 H859 0.961 . S
C846 H860 0.961 . S
C847 C844 1.539 . S
C847 H861 0.958 . S
C847 H862 0.961 . S
C847 H863 0.960 . S
H848 C832 0.931 . S
H849 C837 0.929 . S
H850 C838 0.960 . S
H851 C838 0.962 . S
H852 C838 0.960 . S
H853 C839 0.961 . S
H854 C839 0.961 . S
H855 C839 0.961 . S
H856 C840 0.931 . S
H857 C845 0.930 . S
H858 C846 0.956 . S
H859 C846 0.961 . S
H860 C846 0.961 . S
H861 C847 0.958 . S
H862 C847 0.961 . S
H863 C847 0.960 . S
C864 C865 1.391 1_455 S
C864 C866 1.394 . S
C864 H880 0.931 . S
C865 C864 1.391 1_655 S
C865 C869 1.376 . S
C866 C864 1.394 . S
C866 C867 1.369 1_455 S
C866 C870 1.531 . S
C867 C866 1.369 1_655 S
C867 C868 1.410 . S
C867 C875 1.503 1_655 S
C868 C867 1.410 . S
C868 C869 1.392 . S
C868 C871 1.511 . S
C869 C865 1.376 . S
C869 C868 1.392 . S
C869 H881 0.929 . S
C870 C866 1.531 . S
C870 H882 0.960 . S
C870 H883 0.962 . S
C870 H884 0.960 . S
C871 C868 1.511 . S
C871 H885 0.961 . S
C871 H886 0.961 . S
C871 H887 0.961 . S
C872 C873 1.370 . S
C872 C874 1.363 . S
C872 H888 0.931 . S
C873 C872 1.370 . S
C873 C877 1.408 . S
C874 C872 1.363 . S
C874 C875 1.370 . S
C874 C878 1.524 1_455 S
C875 C867 1.503 1_455 S
C875 C874 1.370 . S
C875 C876 1.403 . S
C876 C875 1.403 . S
C876 C877 1.404 . S
C876 C879 1.539 . S
C877 C873 1.408 . S
C877 C876 1.404 . S
C877 H889 0.930 . S
C878 C874 1.524 1_655 S
C878 H890 0.956 1_655 S
C878 H891 0.961 . S
C878 H892 0.961 . S
C879 C876 1.539 . S
C879 H893 0.958 . S
C879 H894 0.961 . S
C879 H895 0.960 1_455 S
H880 C864 0.931 . S
H881 C869 0.929 . S
H882 C870 0.960 . S
H883 C870 0.962 . S
H884 C870 0.960 . S
H885 C871 0.961 . S
H886 C871 0.961 . S
H887 C871 0.961 . S
H888 C872 0.931 . S
H889 C877 0.930 . S
H890 C878 0.956 1_455 S
H891 C878 0.961 . S
H892 C878 0.961 . S
H893 C879 0.958 . S
H894 C879 0.961 . S
H895 C879 0.960 1_655 S
C896 C897 1.391 . S
C896 C898 1.394 . S
C896 H912 0.931 . S
C897 C896 1.391 . S
C897 C901 1.376 1_655 S
C898 C896 1.394 . S
C898 C899 1.369 1_655 S
C898 C902 1.531 . S
C899 C898 1.369 1_455 S
C899 C900 1.410 . S
C899 C907 1.503 . S
C900 C899 1.410 . S
C900 C901 1.392 . S
C900 C903 1.511 . S
C901 C897 1.376 1_455 S
C901 C900 1.392 . S
C901 H913 0.929 . S
C902 C898 1.531 . S
C902 H914 0.960 . S
C902 H915 0.962 . S
C902 H916 0.960 . S
C903 C900 1.511 . S
C903 H917 0.961 . S
C903 H918 0.961 . S
C903 H919 0.961 . S
C904 C905 1.370 1_655 S
C904 C906 1.363 . S
C904 H920 0.931 . S
C905 C904 1.370 1_455 S
C905 C909 1.408 . S
C906 C904 1.363 . S
C906 C907 1.370 1_655 S
C906 C910 1.524 . S
C907 C899 1.503 . S
C907 C906 1.370 1_455 S
C907 C908 1.403 . S
C908 C907 1.403 . S
C908 C909 1.404 . S
C908 C911 1.539 . S
C909 C905 1.408 . S
C909 C908 1.404 . S
C909 H921 0.930 . S
C910 C906 1.524 . S
C910 H922 0.956 . S
C910 H923 0.961 . S
C910 H924 0.961 . S
C911 C908 1.539 . S
C911 H925 0.958 . S
C911 H926 0.961 . S
C911 H927 0.960 . S
H912 C896 0.931 . S
H913 C901 0.929 . S
H914 C902 0.960 . S
H915 C902 0.962 . S
H916 C902 0.960 . S
H917 C903 0.961 . S
H918 C903 0.961 . S
H919 C903 0.961 . S
H920 C904 0.931 . S
H921 C909 0.930 . S
H922 C910 0.956 . S
H923 C910 0.961 . S
H924 C910 0.961 . S
H925 C911 0.958 . S
H926 C911 0.961 . S
H927 C911 0.960 . S
C928 C929 1.391 . S
C928 C930 1.394 . S
C928 H944 0.931 . S
C929 C928 1.391 . S
C929 C933 1.376 1_655 S
C930 C928 1.394 . S
C930 C931 1.369 . S
C930 C934 1.531 . S
C931 C930 1.369 . S
C931 C932 1.410 1_655 S
C931 C939 1.503 1_655 S
C932 C931 1.410 1_455 S
C932 C933 1.392 . S
C932 C935 1.511 . S
C933 C929 1.376 1_455 S
C933 C932 1.392 . S
C933 H945 0.929 . S
C934 C930 1.531 . S
C934 H946 0.960 . S
C934 H947 0.962 . S
C934 H948 0.960 . S
C935 C932 1.511 . S
C935 H949 0.961 . S
C935 H950 0.961 . S
C935 H951 0.961 . S
C936 C937 1.370 . S
C936 C938 1.363 . S
C936 H952 0.931 . S
C937 C936 1.370 . S
C937 C941 1.408 . S
C938 C936 1.363 . S
C938 C939 1.370 . S
C938 C942 1.524 . S
C939 C931 1.503 1_455 S
C939 C938 1.370 . S
C939 C940 1.403 . S
C940 C939 1.403 . S
C940 C941 1.404 . S
C940 C943 1.539 . S
C941 C937 1.408 . S
C941 C940 1.404 . S
C941 H953 0.930 . S
C942 C938 1.524 . S
C942 H954 0.956 1_455 S
C942 H955 0.961 . S
C942 H956 0.961 . S
C943 C940 1.539 . S
C943 H957 0.958 1_455 S
C943 H958 0.961 . S
C943 H959 0.960 . S
H944 C928 0.931 . S
H945 C933 0.929 . S
H946 C934 0.960 . S
H947 C934 0.962 . S
H948 C934 0.960 . S
H949 C935 0.961 . S
H950 C935 0.961 . S
H951 C935 0.961 . S
H952 C936 0.931 . S
H953 C941 0.930 . S
H954 C942 0.956 1_655 S
H955 C942 0.961 . S
H956 C942 0.961 . S
H957 C943 0.958 1_655 S
H958 C943 0.961 . S
H959 C943 0.960 . S
C960 C961 1.391 . S
C960 C962 1.394 . S
C960 H976 0.931 . S
C961 C960 1.391 . S
C961 C965 1.376 . S
C962 C960 1.394 . S
C962 C963 1.369 . S
C962 C966 1.531 . S
C963 C962 1.369 . S
C963 C964 1.410 . S
C963 C971 1.503 . S
C964 C963 1.410 . S
C964 C965 1.392 . S
C964 C967 1.511 . S
C965 C961 1.376 . S
C965 C964 1.392 . S
C965 H977 0.929 . S
C966 C962 1.531 . S
C966 H978 0.960 . S
C966 H979 0.962 . S
C966 H980 0.960 . S
C967 C964 1.511 . S
C967 H981 0.961 . S
C967 H982 0.961 . S
C967 H983 0.961 . S
C968 C969 1.370 . S
C968 C970 1.363 . S
C968 H984 0.931 . S
C969 C968 1.370 . S
C969 C973 1.408 . S
C970 C968 1.363 . S
C970 C971 1.370 . S
C970 C974 1.524 . S
C971 C963 1.503 . S
C971 C970 1.370 . S
C971 C972 1.403 . S
C972 C971 1.403 . S
C972 C973 1.404 . S
C972 C975 1.539 . S
C973 C969 1.408 . S
C973 C972 1.404 . S
C973 H985 0.930 . S
C974 C970 1.524 . S
C974 H986 0.956 . S
C974 H987 0.961 . S
C974 H988 0.961 . S
C975 C972 1.539 . S
C975 H989 0.958 . S
C975 H990 0.961 . S
C975 H991 0.960 . S
H976 C960 0.931 . S
H977 C965 0.929 . S
H978 C966 0.960 . S
H979 C966 0.962 . S
H980 C966 0.960 . S
H981 C967 0.961 . S
H982 C967 0.961 . S
H983 C967 0.961 . S
H984 C968 0.931 . S
H985 C973 0.930 . S
H986 C974 0.956 . S
H987 C974 0.961 . S
H988 C974 0.961 . S
H989 C975 0.958 . S
H990 C975 0.961 . S
H991 C975 0.960 . S
C992 C993 1.391 . S
C992 C994 1.394 . S
C992 H1008 0.931 . S
C993 C992 1.391 . S
C993 C997 1.376 . S
C994 C992 1.394 . S
C994 C995 1.369 . S
C994 C998 1.531 . S
C995 C994 1.369 . S
C995 C996 1.410 . S
C995 C1003 1.503 . S
C996 C995 1.410 . S
C996 C997 1.392 . S
C996 C999 1.511 . S
C997 C993 1.376 . S
C997 C996 1.392 . S
C997 H1009 0.929 . S
C998 C994 1.531 . S
C998 H1010 0.960 . S
C998 H1011 0.962 . S
C998 H1012 0.960 . S
C999 C996 1.511 . S
C999 H1013 0.961 . S
C999 H1014 0.961 . S
C999 H1015 0.961 . S
C1000 C1001 1.370 . S
C1000 C1002 1.363 . S
C1000 H1016 0.931 . S
C1001 C1000 1.370 . S
C1001 C1005 1.408 . S
C1002 C1000 1.363 . S
C1002 C1003 1.370 . S
C1002 C1006 1.524 . S
C1003 C995 1.503 . S
C1003 C1002 1.370 . S
C1003 C1004 1.403 . S
C1004 C1003 1.403 . S
C1004 C1005 1.404 . S
C1004 C1007 1.539 . S
C1005 C1001 1.408 . S
C1005 C1004 1.404 . S
C1005 H1017 0.930 . S
C1006 C1002 1.524 . S
C1006 H1018 0.956 . S
C1006 H1019 0.961 . S
C1006 H1020 0.961 . S
C1007 C1004 1.539 . S
C1007 H1021 0.958 . S
C1007 H1022 0.961 . S
C1007 H1023 0.960 . S
H1008 C992 0.931 . S
H1009 C997 0.929 . S
H1010 C998 0.960 . S
H1011 C998 0.962 . S
H1012 C998 0.960 . S
H1013 C999 0.961 . S
H1014 C999 0.961 . S
H1015 C999 0.961 . S
H1016 C1000 0.931 . S
H1017 C1005 0.930 . S
H1018 C1006 0.956 . S
H1019 C1006 0.961 . S
H1020 C1006 0.961 . S
H1021 C1007 0.958 . S
H1022 C1007 0.961 . S
H1023 C1007 0.960 . S
C1024 C1025 1.391 . S
C1024 C1026 1.394 . S
C1024 H1040 0.931 . S
C1025 C1024 1.391 . S
C1025 C1029 1.376 . S
C1026 C1024 1.394 . S
C1026 C1027 1.369 . S
C1026 C1030 1.531 . S
C1027 C1026 1.369 . S
C1027 C1028 1.410 . S
C1027 C1035 1.503 . S
C1028 C1027 1.410 . S
C1028 C1029 1.392 . S
C1028 C1031 1.511 . S
C1029 C1025 1.376 . S
C1029 C1028 1.392 . S
C1029 H1041 0.929 . S
C1030 C1026 1.531 . S
C1030 H1042 0.960 . S
C1030 H1043 0.962 . S
C1030 H1044 0.960 . S
C1031 C1028 1.511 . S
C1031 H1045 0.961 . S
C1031 H1046 0.961 . S
C1031 H1047 0.961 . S
C1032 C1033 1.370 . S
C1032 C1034 1.363 . S
C1032 H1048 0.931 . S
C1033 C1032 1.370 . S
C1033 C1037 1.408 . S
C1034 C1032 1.363 . S
C1034 C1035 1.370 . S
C1034 C1038 1.524 . S
C1035 C1027 1.503 . S
C1035 C1034 1.370 . S
C1035 C1036 1.403 . S
C1036 C1035 1.403 . S
C1036 C1037 1.404 . S
C1036 C1039 1.539 . S
C1037 C1033 1.408 . S
C1037 C1036 1.404 . S
C1037 H1049 0.930 . S
C1038 C1034 1.524 . S
C1038 H1050 0.956 . S
C1038 H1051 0.961 . S
C1038 H1052 0.961 . S
C1039 C1036 1.539 . S
C1039 H1053 0.958 . S
C1039 H1054 0.961 . S
C1039 H1055 0.960 . S
H1040 C1024 0.931 . S
H1041 C1029 0.929 . S
H1042 C1030 0.960 . S
H1043 C1030 0.962 . S
H1044 C1030 0.960 . S
H1045 C1031 0.961 . S
H1046 C1031 0.961 . S
H1047 C1031 0.961 . S
H1048 C1032 0.931 . S
H1049 C1037 0.930 . S
H1050 C1038 0.956 . S
H1051 C1038 0.961 . S
H1052 C1038 0.961 . S
H1053 C1039 0.958 . S
H1054 C1039 0.961 . S
H1055 C1039 0.960 . S
C1056 C1057 1.391 . S
C1056 C1058 1.394 . S
C1056 H1072 0.931 . S
C1057 C1056 1.391 . S
C1057 C1061 1.376 . S
C1058 C1056 1.394 . S
C1058 C1059 1.369 . S
C1058 C1062 1.531 . S
C1059 C1058 1.369 . S
C1059 C1060 1.410 . S
C1059 C1067 1.503 . S
C1060 C1059 1.410 . S
C1060 C1061 1.392 . S
C1060 C1063 1.511 . S
C1061 C1057 1.376 . S
C1061 C1060 1.392 . S
C1061 H1073 0.929 . S
C1062 C1058 1.531 . S
C1062 H1074 0.960 . S
C1062 H1075 0.962 . S
C1062 H1076 0.960 . S
C1063 C1060 1.511 . S
C1063 H1077 0.961 . S
C1063 H1078 0.961 . S
C1063 H1079 0.961 . S
C1064 C1065 1.370 . S
C1064 C1066 1.363 . S
C1064 H1080 0.931 . S
C1065 C1064 1.370 . S
C1065 C1069 1.408 . S
C1066 C1064 1.363 . S
C1066 C1067 1.370 . S
C1066 C1070 1.524 . S
C1067 C1059 1.503 . S
C1067 C1066 1.370 . S
C1067 C1068 1.403 . S
C1068 C1067 1.403 . S
C1068 C1069 1.404 . S
C1068 C1071 1.539 . S
C1069 C1065 1.408 . S
C1069 C1068 1.404 . S
C1069 H1081 0.930 . S
C1070 C1066 1.524 . S
C1070 H1082 0.956 . S
C1070 H1083 0.961 . S
C1070 H1084 0.961 . S
C1071 C1068 1.539 . S
C1071 H1085 0.958 . S
C1071 H1086 0.961 . S
C1071 H1087 0.960 . S
H1072 C1056 0.931 . S
H1073 C1061 0.929 . S
H1074 C1062 0.960 . S
H1075 C1062 0.962 . S
H1076 C1062 0.960 . S
H1077 C1063 0.961 . S
H1078 C1063 0.961 . S
H1079 C1063 0.961 . S
H1080 C1064 0.931 . S
H1081 C1069 0.930 . S
H1082 C1070 0.956 . S
H1083 C1070 0.961 . S
H1084 C1070 0.961 . S
H1085 C1071 0.958 . S
H1086 C1071 0.961 . S
H1087 C1071 0.960 . S
C321 C20 2.118 . S
C329 C31 2.107 . S
C353 C60 2.095 . S
C361 C71 2.117 . S
C385 C100 2.093 . S
C393 C111 2.118 . S
C417 C140 2.118 . S
C425 C151 2.107 . S
C449 C180 2.094 . S
C457 C191 2.117 . S
C481 C231 2.105 . S
C489 C220 2.112 . S
C513 C260 2.102 . S
C521 C271 2.113 . S
C545 C311 2.118 . S
C553 C300 2.107 . S
C577 C44 2.397 . S
C585 C25 2.393 . S
C609 C145 2.375 . S
C617 C84 2.401 . S
C641 C185 2.366 . S
C649 C204 2.404 . S
C673 C244 2.385 . S
C681 C305 2.394 . S
C705 C4 1.720 . S
C713 C225 1.728 . S
C737 C164 1.722 . S
C745 C65 1.727 . S
C769 C105 1.706 . S
C777 C284 1.733 . S
C801 C124 1.723 . S
C809 C265 1.727 . S
C833 C23 1.444 . S
C841 C143 1.420 . S
C865 C63 1.638 . S
C873 C103 1.657 . S
C897 C42 1.427 . S
C905 C82 1.429 . S
C929 C122 1.638 . S
C937 C2 1.658 . S
C961 C183 1.445 . S
C969 C303 1.423 . S
C993 C223 1.640 . S
C1001 C263 1.657 . S
C1025 C202 1.440 . S
C1033 C242 1.430 . S
C1057 C282 1.673 . S
C1065 C162 1.661 . S
