# Generated by pormake.
# Topology snz, (6)-cn, num edge types: 1
# Building blocks:
#     Node 0, Type 0, BuildingBlock: HISSIN_clean_sbu_0, # of connection points: 6
#     Node 1, Type 0, BuildingBlock: HISSIN_clean_sbu_0, # of connection points: 6
#     Node 2, Type 0, BuildingBlock: HISSIN_clean_sbu_0, # of connection points: 6
#     Node 3, Type 0, BuildingBlock: HISSIN_clean_sbu_0, # of connection points: 6
#     Node 4, Type 0, BuildingBlock: HISSIN_clean_sbu_0, # of connection points: 6
#     Node 5, Type 0, BuildingBlock: HISSIN_clean_sbu_0, # of connection points: 6
#     Node 6, Type 0, BuildingBlock: HISSIN_clean_sbu_0, # of connection points: 6
#     Node 7, Type 0, BuildingBlock: HISSIN_clean_sbu_0, # of connection points: 6
#     Node 8, Type 0, BuildingBlock: HISSIN_clean_sbu_0, # of connection points: 6
#     Edge 9, Type (0, 0), BuildingBlock: AJUNOK_clean_linker_0, # of connection points: 2
#     Edge 10, Type (0, 0), BuildingBlock: AJUNOK_clean_linker_0, # of connection points: 2
#     Edge 11, Type (0, 0), BuildingBlock: AJUNOK_clean_linker_0, # of connection points: 2
#     Edge 12, Type (0, 0), BuildingBlock: AJUNOK_clean_linker_0, # of connection points: 2
#     Edge 13, Type (0, 0), BuildingBlock: AJUNOK_clean_linker_0, # of connection points: 2
#     Edge 14, Type (0, 0), BuildingBlock: AJUNOK_clean_linker_0, # of connection points: 2
#     Edge 15, Type (0, 0), BuildingBlock: AJUNOK_clean_linker_0, # of connection points: 2
#     Edge 16, Type (0, 0), BuildingBlock: AJUNOK_clean_linker_0, # of connection points: 2
#     Edge 17, Type (0, 0), BuildingBlock: AJUNOK_clean_linker_0, # of connection points: 2
#     Edge 18, Type (0, 0), BuildingBlock: AJUNOK_clean_linker_0, # of connection points: 2
#     Edge 19, Type (0, 0), BuildingBlock: AJUNOK_clean_linker_0, # of connection points: 2
#     Edge 20, Type (0, 0), BuildingBlock: AJUNOK_clean_linker_0, # of connection points: 2
#     Edge 21, Type (0, 0), BuildingBlock: AJUNOK_clean_linker_0, # of connection points: 2
#     Edge 22, Type (0, 0), BuildingBlock: AJUNOK_clean_linker_0, # of connection points: 2
#     Edge 23, Type (0, 0), BuildingBlock: AJUNOK_clean_linker_0, # of connection points: 2
#     Edge 24, Type (0, 0), BuildingBlock: AJUNOK_clean_linker_0, # of connection points: 2
#     Edge 25, Type (0, 0), BuildingBlock: AJUNOK_clean_linker_0, # of connection points: 2
#     Edge 26, Type (0, 0), BuildingBlock: AJUNOK_clean_linker_0, # of connection points: 2
#     Edge 27, Type (0, 0), BuildingBlock: AJUNOK_clean_linker_0, # of connection points: 2
#     Edge 28, Type (0, 0), BuildingBlock: AJUNOK_clean_linker_0, # of connection points: 2
#     Edge 29, Type (0, 0), BuildingBlock: AJUNOK_clean_linker_0, # of connection points: 2
#     Edge 30, Type (0, 0), BuildingBlock: AJUNOK_clean_linker_0, # of connection points: 2
#     Edge 31, Type (0, 0), BuildingBlock: AJUNOK_clean_linker_0, # of connection points: 2
#     Edge 32, Type (0, 0), BuildingBlock: AJUNOK_clean_linker_0, # of connection points: 2
#     Edge 33, Type (0, 0), BuildingBlock: AJUNOK_clean_linker_0, # of connection points: 2
#     Edge 34, Type (0, 0), BuildingBlock: AJUNOK_clean_linker_0, # of connection points: 2
#     Edge 35, Type (0, 0), BuildingBlock: AJUNOK_clean_linker_0, # of connection points: 2
# Relax obj value: 0.578
# Max RMSD: 0.243
# Mean RMSD: 0.164
data_MOF--net-snz--node1-HISSIN_clean_sbu_0--edge1-AJUNOK_clean_linker_0
_symmetry_space_group_name_H-M    P1
_symmetry_Int_Tables_number       1
_symmetry_cell_setting            triclinic
loop_
_symmetry_equiv_pos_as_xyz
'x, y, z'
_cell_length_a     55.099541
_cell_length_b     41.783295
_cell_length_c     12.546371
_cell_angle_alpha  96.377026
_cell_angle_beta   98.496147
_cell_angle_gamma 120.99592
loop_
_atom_site_label
_atom_site_type_symbol
_atom_site_fract_x
_atom_site_fract_y
_atom_site_fract_z
_atom_type_partial_charge
Eu0 Eu 0.16241 0.50749 0.27801 0.0
Eu1 Eu 0.11003 0.51952 0.24719 0.0
C2 C 0.13546 0.51134 0.50595 0.0
C3 C 0.2109 0.467 0.36639 0.0
C4 C 0.18951 0.43401 0.39521 0.0
C5 C 0.24674 0.45131 0.43417 0.0
C6 C 0.19668 0.40991 0.44268 0.0
C7 C 0.23956 0.47529 0.3868 0.0
C8 C 0.22544 0.41801 0.46246 0.0
C9 C 0.20393 0.49258 0.31267 0.0
O10 O 0.14739 0.58213 0.28632 0.0
O11 O 0.18623 0.57504 0.30642 0.0
C12 C 0.17579 0.59781 0.30852 0.0
O13 O 0.15719 0.5122 1.0876 0.0
O14 O 0.08301 0.53391 0.3261 0.0
O15 O 0.07266 0.51676 0.14851 0.0
O16 O 0.11892 0.52033 1.06574 0.0
C17 C 0.13793 0.51605 1.01974 0.0
O18 O 0.12173 0.44482 0.21659 0.0
O19 O 0.08465 0.45491 0.18399 0.0
O20 O 0.11648 0.51524 0.43747 0.0
O21 O 0.1825 0.47666 0.22497 0.0
O22 O 0.20399 0.51948 0.37618 0.0
O23 O 0.15433 0.50694 0.4603 0.0
C24 C 0.06098 0.56023 0.2242 0.0
C25 C 0.07154 0.58397 0.14968 0.0
C26 C 1.03516 0.59026 0.27279 0.0
C27 C 0.06323 0.60988 0.13449 0.0
C28 C 0.04339 0.56424 0.28765 0.0
C29 C 0.04446 0.61266 0.19423 0.0
C30 C 0.0667 0.52983 0.23314 0.0
C31 C 0.09369 0.43134 0.17762 0.0
H32 H 0.16722 0.42681 0.38084 0.0
H33 H 0.26903 0.45858 0.44702 0.0
H34 H 0.17968 0.38511 0.46504 0.0
H35 H 0.25652 0.50035 0.36514 0.0
H36 H 0.08529 0.58152 1.10022 0.0
H37 H 1.0206 0.59181 0.31943 0.0
H38 H 0.07016 0.62614 1.07149 0.0
H39 H 1.03519 0.54629 0.34605 0.0
Eu40 Eu 0.66841 0.52562 1.09223 0.0
Eu41 Eu 0.6127 0.53049 1.06214 0.0
C42 C 0.64063 0.52925 0.8328 0.0
C43 C 0.74631 0.54823 1.07944 0.0
C44 C 0.75007 0.56796 0.99329 0.0
C45 C 0.79709 0.56612 0.10482 0.0
C46 C 0.77701 0.58645 0.96313 0.0
C47 C 0.77019 0.54766 0.13485 0.0
C48 C 0.80106 0.58597 1.01858 0.0
C49 C 0.71781 0.52762 0.11183 0.0
O50 O 0.59178 0.46647 1.05325 0.0
O51 O 0.63034 0.46014 1.05045 0.0
C52 C 0.6018 0.44409 1.04251 0.0
O53 O 0.65969 0.52176 0.27451 0.0
O54 O 0.56735 0.50542 0.9745 0.0
O55 O 0.5877 0.55417 0.11108 0.0
O56 O 0.62273 0.53213 0.25537 0.0
C57 C 0.64122 0.52697 0.32187 0.0
O58 O 0.68744 0.59145 0.13028 0.0
O59 O 0.64705 0.5949 1.09922 0.0
O60 O 0.62037 0.53062 0.87794 0.0
O61 O 0.71304 0.54714 0.1846 0.0
O62 O 0.69431 0.50438 1.0338 0.0
O63 O 0.66113 0.52818 0.90157 0.0
C64 C 0.5407 0.50318 0.10594 0.0
C65 C 0.54707 0.48595 0.18619 0.0
C66 C 0.49308 0.4787 0.14519 0.0
C67 C 0.52708 0.46623 0.24744 0.0
C68 C 0.51339 0.49894 1.08434 0.0
C69 C 0.50003 0.46276 0.22857 0.0
C70 C 0.56313 0.52558 1.04753 0.0
C71 C 0.67566 0.61237 0.12889 0.0
H72 H 0.7321 0.56881 0.94857 0.0
H73 H 0.81491 0.56506 0.14992 0.0
H74 H 0.77876 0.60051 0.89463 0.0
H75 H 0.768 0.53271 0.20155 0.0
H76 H 0.56773 0.48815 0.20273 0.0
H77 H 0.47243 0.47671 0.12995 0.0
H78 H 0.53289 0.45403 0.31065 0.0
H79 H 0.508 0.51178 1.02216 0.0
Eu80 Eu 0.60154 0.05985 0.85336 0.0
Eu81 Eu 0.66409 0.13719 0.91794 0.0
C82 C 0.6338 0.10374 0.13289 0.0
C83 C 0.53171 0.98755 0.91053 0.0
C84 C 0.53471 0.01633 0.99141 0.0
C85 C 0.49646 0.9395 0.99233 0.0
C86 C 0.51849 1.00676 1.07157 0.0
C87 C 0.51256 0.94911 0.91178 0.0
C88 C 0.49929 0.9682 1.07332 0.0
C89 C 0.55062 0.99773 0.83226 0.0
O90 O 0.66946 0.09 0.96975 0.0
O91 O 0.63089 0.03737 0.85118 0.0
C92 C 0.65576 0.05361 0.9235 0.0
O93 O 0.60848 0.06738 0.67045 0.0
O94 O 0.70995 0.18426 1.0083 0.0
O95 O 0.69984 0.16041 0.83551 0.0
O96 O 0.65149 0.12509 0.72084 0.0
C97 C 0.62998 0.09669 0.63886 0.0
O98 O 0.58892 0.10335 0.86571 0.0
O99 O 0.63274 0.16103 0.89734 0.0
O100 O 0.65545 0.13291 1.10037 0.0
O101 O 0.55424 0.0261 0.78738 0.0
O102 O 0.57515 1.00034 0.86669 0.0
O103 O 0.61246 0.07434 1.05176 0.0
C104 C 0.74877 0.18213 0.93065 0.0
C105 C 0.74899 0.15253 0.86434 0.0
C106 C 0.80284 0.2162 0.98238 0.0
C107 C 0.77534 0.15484 0.85643 0.0
C108 C 0.7764 0.21384 0.99039 0.0
C109 C 0.80311 0.1871 0.91318 0.0
C110 C 0.72077 0.1826 0.92273 0.0
C111 C 0.60331 0.14064 0.87716 0.0
H112 H 0.54983 0.04624 0.99318 0.0
H113 H 0.48198 0.90953 0.99199 0.0
H114 H 0.52077 0.02953 0.13126 0.0
H115 H 0.51038 0.92654 0.85152 0.0
H116 H 0.72862 0.12773 0.81489 0.0
H117 H 0.8232 0.24121 1.03088 0.0
H118 H 0.77384 0.13158 0.80196 0.0
H119 H 0.77771 0.23759 1.04147 0.0
Eu120 Eu 0.81648 0.86508 0.33338 0.0
Eu121 Eu 0.7637 0.87642 0.30358 0.0
C122 C 0.78832 0.86833 0.5613 0.0
C123 C 0.86417 0.82244 0.36235 0.0
C124 C 0.85468 0.80118 0.44322 0.0
C125 C 0.88773 0.78908 0.3141 0.0
C126 C 0.86255 0.77504 0.46194 0.0
C127 C 0.88006 0.81546 0.29609 0.0
C128 C 0.87973 0.76935 0.39923 0.0
C129 C 0.85904 0.85319 0.34894 0.0
O130 O 0.80424 0.93864 0.37695 0.0
O131 O 0.84195 0.9299 0.38373 0.0
C132 C 0.83267 0.95275 0.40369 0.0
O133 O 0.80985 0.86886 0.14257 0.0
O134 O 0.74379 0.90755 0.35548 0.0
O135 O 0.72158 0.86341 0.20701 0.0
O136 O 0.77266 0.87854 0.12276 0.0
C137 C 0.79109 0.87351 1.07557 0.0
O138 O 0.779 0.80286 0.2952 0.0
O139 O 0.73981 0.80903 0.26847 0.0
O140 O 0.76795 0.86964 0.49154 0.0
O141 O 0.84229 0.84803 0.25572 0.0
O142 O 0.85411 0.86846 0.43254 0.0
O143 O 0.8085 0.86643 0.51706 0.0
C144 C 0.71407 0.91542 0.21333 0.0
C145 C 0.73398 0.95499 0.22558 0.0
C146 C 0.67677 0.92178 1.10317 0.0
C147 C 0.72531 0.97765 0.17778 0.0
C148 C 0.68539 0.89925 0.15151 0.0
C149 C 0.69652 0.96145 0.11514 0.0
C150 C 0.722 0.89092 0.2689 0.0
C151 C 0.75059 0.78675 0.26823 0.0
H152 H 0.84214 0.80579 0.49474 0.0
H153 H 0.90084 0.78513 0.2642 0.0
H154 H 0.85655 0.76092 0.52966 0.0
H155 H 0.88735 0.83135 0.23258 0.0
H156 H 0.7562 0.9686 0.27354 0.0
H157 H 0.65449 0.90791 1.05565 0.0
H158 H 0.7411 1.0081 0.19244 0.0
H159 H 0.66943 0.86899 0.14123 0.0
Eu160 Eu 0.30687 0.85844 0.50204 0.0
Eu161 Eu 0.25925 0.86006 0.48439 0.0
C162 C 0.2809 0.85959 0.24476 0.0
C163 C 0.38183 0.88763 0.50379 0.0
C164 C 0.37719 0.9029 0.41448 0.0
C165 C 0.42999 0.90774 0.4756 0.0
C166 C 0.39835 0.91982 0.35535 0.0
C167 C 0.4086 0.89075 0.53556 0.0
C168 C 0.42468 0.92163 0.38335 0.0
C169 C 0.35761 0.86674 0.55661 0.0
O170 O 0.23654 0.79311 0.43809 0.0
O171 O 0.27751 0.7928 0.45237 0.0
C172 C 0.2489 0.77307 0.43052 0.0
O173 O 0.28727 0.85753 0.66502 0.0
O174 O 0.21549 0.84764 0.41238 0.0
O175 O 0.23382 0.87073 0.58676 0.0
O176 O 0.28378 0.85757 0.65563 0.0
C177 C 0.26979 0.85696 0.73359 0.0
O178 O 0.33008 0.92174 0.49176 0.0
O179 O 0.29375 0.92743 0.52717 0.0
O180 O 0.26264 0.86325 0.29699 0.0
O181 O 0.35048 0.88768 0.61203 0.0
O182 O 0.33473 0.83601 0.49163 0.0
O183 O 0.30051 0.85617 0.30916 0.0
C184 C 0.18123 0.83287 0.52687 0.0
C185 C 0.17474 0.80544 0.59216 0.0
C186 C 0.13129 0.81803 0.50622 0.0
C187 C 0.14682 0.78463 0.61429 0.0
C188 C 0.15901 0.83852 0.48354 0.0
C189 C 0.12469 0.79083 0.57237 0.0
C190 C 0.21097 0.85727 0.50617 0.0
C191 C 0.32143 0.94468 0.51956 0.0
H192 H 0.35672 0.90058 0.38751 0.0
H193 H 0.45004 0.90847 0.49819 0.0
H194 H 0.39373 0.93045 0.28515 0.0
H195 H 0.41258 0.87907 0.6041 0.0
H196 H 0.19136 0.80047 0.62737 0.0
H197 H 0.11494 0.8236 0.47205 0.0
H198 H 0.14284 0.76444 0.66695 0.0
H199 H 0.16324 0.85942 0.4331 0.0
Eu200 Eu 0.25513 0.2387 0.66072 0.0
Eu201 Eu 0.31622 0.31565 0.72518 0.0
C202 C 0.28841 0.27809 0.9393 0.0
C203 C 0.16968 0.19389 0.64743 0.0
C204 C 0.16775 0.22644 0.64859 0.0
C205 C 0.1184 0.1589 0.66516 0.0
C206 C 0.14183 0.22524 0.6577 0.0
C207 C 0.14422 0.16001 0.65462 0.0
C208 C 0.11657 0.19159 0.66831 0.0
C209 C 0.19907 0.19706 0.66586 0.0
O210 O 0.32963 0.27298 0.70475 0.0
O211 O 0.28669 0.21525 0.68383 0.0
C212 C 0.31597 0.23595 0.69804 0.0
O213 O 0.26302 0.24219 0.47715 0.0
O214 O 0.36297 0.35048 0.80215 0.0
O215 O 0.34298 0.37433 0.70586 0.0
O216 O 0.30529 0.30154 0.52678 0.0
C217 C 0.2844 0.27184 0.44511 0.0
O218 O 0.25123 0.28559 0.59699 0.0
O219 O 0.28576 0.33645 0.72911 0.0
O220 O 0.30874 0.30838 0.90711 0.0
O221 O 0.20926 0.18815 0.5864 0.0
O222 O 0.22003 0.22648 0.74123 0.0
O223 O 0.26814 0.2484 0.85756 0.0
C224 C 0.3882 0.38755 0.68103 0.0
C225 C 0.38589 0.3586 0.60307 0.0
C226 C 0.42684 0.43527 0.61024 0.0
C227 C 0.40401 0.36795 0.52923 0.0
C228 C 0.40885 0.42588 0.68437 0.0
C229 C 0.42448 0.40647 0.53117 0.0
C230 C 0.36732 0.37791 0.75134 0.0
C231 C 0.26252 0.32099 0.64843 0.0
H232 H 0.18687 0.25356 0.64762 0.0
H233 H 0.09985 0.13225 0.67258 0.0
H234 H 0.14216 0.25147 0.66175 0.0
H235 H 0.14465 0.13449 0.6574 0.0
H236 H 0.36979 0.32876 0.59827 0.0
H237 H 0.44221 0.46522 0.61323 0.0
H238 H 0.402 0.34508 0.47096 0.0
H239 H 0.41065 0.44859 0.74274 0.0
Eu240 Eu 0.46893 0.20673 0.68487 0.0
Eu241 Eu 0.4583 0.18521 0.8978 0.0
C242 C 0.41729 0.11583 0.67001 0.0
C243 C 0.45517 0.24471 0.44326 0.0
C244 C 0.42578 0.22174 0.44672 0.0
C245 C 0.44273 0.20997 0.25831 0.0
C246 C 0.40776 0.18737 0.36823 0.0
C247 C 0.46156 0.24343 0.33976 0.0
C248 C 0.41985 0.1785 0.28802 0.0
C249 C 0.4764 0.24738 0.53534 0.0
O250 O 0.49439 0.17408 0.87127 0.0
O251 O 0.50435 0.19171 0.71104 0.0
C252 C 0.51032 0.17941 0.79803 0.0
O253 O 0.50978 0.25456 0.81509 0.0
O254 O 0.43268 0.1536 1.00828 0.0
O255 O 0.47996 0.18329 1.05562 0.0
O256 O 0.48678 0.25247 0.94874 0.0
C257 C 0.50917 0.2728 0.90541 0.0
O258 O 0.42597 0.20445 0.69505 0.0
O259 O 0.42234 0.19878 0.87014 0.0
O260 O 0.42264 0.1281 0.77736 0.0
O261 O 0.47454 0.25806 0.63402 0.0
O262 O 0.47886 0.21767 0.52755 0.0
O263 O 0.4339 0.14053 0.61318 0.0
C264 C 0.45245 0.1198 1.08357 0.0
C265 C 0.47571 0.11989 0.14849 0.0
C266 C 0.42005 0.0559 0.10841 0.0
C267 C 0.46901 0.08961 0.20288 0.0
C268 C 0.42504 0.08486 1.05091 0.0
C269 C 0.43973 0.0674 0.21136 0.0
C270 C 0.45518 0.15609 1.06925 0.0
C271 C 0.41227 0.20323 0.77436 0.0
H272 H 0.41908 0.22499 0.52133 0.0
H273 H 0.45077 0.20592 0.18839 0.0
H274 H 0.38824 0.16519 0.3874 0.0
H275 H 0.48336 0.26294 0.33054 0.0
H276 H 0.49781 0.14471 0.16824 0.0
H277 H 0.39806 0.03107 1.09222 0.0
H278 H 0.48635 0.09259 0.26506 0.0
H279 H 0.40701 0.08147 0.99172 0.0
Eu280 Eu 0.96186 0.1731 0.89749 0.0
Eu281 Eu 0.95846 0.20896 0.69529 0.0
C282 C 1.00369 0.26855 0.9282 0.0
C283 C 0.92802 0.10655 1.07892 0.0
C284 C 0.89242 0.09971 1.01871 0.0
C285 C 0.89822 0.03046 0.17591 0.0
C286 C 0.85776 0.0587 1.03116 0.0
C287 C 0.93068 0.07289 0.15576 0.0
C288 C 0.85951 0.02042 0.10647 0.0
C289 C 0.95466 0.13926 1.06279 0.0
O290 O 0.9952 0.19749 0.68497 0.0
O291 O 1.003 0.18159 0.84919 0.0
C292 C 1.01067 0.1897 0.75618 0.0
O293 O 0.93759 0.11996 0.75501 0.0
O294 O 0.978 0.23831 0.56791 0.0
O295 O 0.93224 0.21434 0.55846 0.0
O296 O 0.92144 0.14485 0.63279 0.0
C297 C 0.91989 0.11472 0.66274 0.0
O298 O 0.91766 0.16919 0.86658 0.0
O299 O 0.93001 0.22019 0.78981 0.0
O300 O 0.98987 0.26436 0.827 0.0
O301 O 0.96459 0.13166 0.98212 0.0
O302 O 0.95465 0.17049 1.06337 0.0
O303 O 0.9973 0.23787 0.96936 0.0
C304 C 0.94401 0.19596 0.4027 0.0
C305 C 0.95376 0.17087 0.40819 0.0
C306 C 0.90546 0.1505 0.24254 0.0
C307 C 0.93861 0.13519 0.33614 0.0
C308 C 0.9203 0.18604 0.31695 0.0
C309 C 0.91417 0.12436 0.25252 0.0
C310 C 0.95238 0.22468 0.50331 0.0
C311 C 0.9122 0.19494 0.83984 0.0
H312 H 0.89183 0.11992 0.97388 0.0
H313 H 0.90018 1.00932 0.21238 0.0
H314 H 0.83716 0.05338 0.98672 0.0
H315 H 0.95193 0.0778 0.18779 0.0
H316 H 0.97146 0.17709 0.47494 0.0
H317 H 0.88595 0.14236 0.18203 0.0
H318 H 0.94501 0.11527 0.351 0.0
H319 H 0.91175 0.20425 0.31323 0.0
Eu320 Eu 0.94882 0.64433 0.71651 0.0
Eu321 Eu 0.97364 0.73076 0.85667 0.0
C322 C 0.93745 0.70323 0.61361 0.0
C323 C 0.93786 0.57013 0.49225 0.0
C324 C 0.96673 0.59608 0.48821 0.0
C325 C 0.92139 0.57407 0.30778 0.0
C326 C 0.97172 0.61694 0.40602 0.0
C327 C 0.91614 0.55444 0.3935 0.0
C328 C 0.94788 0.60952 0.32437 0.0
C329 C 0.92974 0.57716 0.5949 0.0
O330 O 0.92614 0.69267 0.86585 0.0
O331 O 0.92124 0.63446 0.84211 0.0
C332 C 0.91194 0.65652 0.87359 0.0
O333 O 0.98349 0.65657 0.86046 0.0
O334 O 0.96715 0.77822 0.88318 0.0
O335 O 1.00468 0.78271 0.98296 0.0
O336 O 0.98184 0.70033 0.98152 0.0
C337 C 0.98911 0.67538 0.96035 0.0
O338 O 0.98916 0.68346 0.6537 0.0
O339 O 1.01203 0.73853 0.79094 0.0
O340 O 0.96272 0.73013 0.67739 0.0
O341 O 0.95032 0.59275 0.6856 0.0
O342 O 0.91569 0.59446 0.58765 0.0
O343 O 0.92485 0.66827 0.62941 0.0
C344 C 0.97685 0.79753 1.07712 0.0
C345 C 0.94692 0.77225 1.06886 0.0
C346 C 0.98744 0.78277 0.25206 0.0
C347 C 0.93831 0.7466 0.13829 0.0
C348 C 0.99624 0.80727 0.17892 0.0
C349 C 0.95945 0.74887 0.22213 0.0
C350 C 0.98722 0.79522 0.97599 0.0
C351 C 1.01235 0.71774 0.70463 0.0
H352 H 0.98449 0.60642 0.55993 0.0
H353 H 0.90338 0.56483 0.23813 0.0
H354 H 0.99322 0.64232 0.41828 0.0
H355 H 0.8939 0.53232 0.39113 0.0
H356 H 0.93092 0.7663 0.99536 0.0
H357 H 1.00384 0.78691 0.32127 0.0
H358 H 0.91618 0.72209 0.11408 0.0
H359 H 1.0193 0.82841 0.19125 0.0
C360 C 0.15671 0.51039 0.83299 0.0
C361 C 0.13729 0.51518 0.8883 0.0
C362 C 0.156 0.50908 0.71487 0.0
C363 C 0.13575 0.51229 0.63714 0.0
H364 H 0.17309 0.50751 0.88196 0.0
H365 H 0.17198 0.50544 0.68414 0.0
S366 S 0.07916 0.5251 0.73022 0.0
N367 N 0.09646 0.52298 0.84589 0.0
N368 N 0.09521 0.52063 0.63342 0.0
C369 C 0.11619 0.51704 0.69129 0.0
C370 C 0.11691 0.51839 0.81151 0.0
C371 C 0.6611 0.52569 0.64967 0.0
C372 C 0.64053 0.52873 0.70189 0.0
C373 C 0.66125 0.52494 0.53229 0.0
C374 C 0.64091 0.52731 0.45249 0.0
H375 H 0.67775 0.52375 0.70065 0.0
H376 H 0.678 0.52257 0.50398 0.0
S377 S 0.58147 0.53534 0.53699 0.0
N378 N 0.59851 0.53375 0.65425 0.0
N379 N 0.59887 0.53271 0.44327 0.0
C380 C 0.6202 0.5303 0.50362 0.0
C381 C 0.61999 0.5309 0.62296 0.0
C382 C 0.60941 0.06948 0.41474 0.0
C383 C 0.63078 0.09873 0.50938 0.0
C384 C 0.61047 0.07142 0.29896 0.0
C385 C 0.63299 0.10282 0.26297 0.0
H386 H 0.59123 0.04407 0.42974 0.0
H387 H 0.59293 0.04725 0.23586 0.0
S388 S 0.69488 0.18871 0.47132 0.0
N389 N 0.67567 0.16146 0.5506 0.0
N390 N 0.67751 0.16484 0.34235 0.0
C391 C 0.65437 0.13235 0.35677 0.0
C392 C 0.65331 0.1304 0.47464 0.0
C393 C 0.81058 0.86974 0.7725 0.0
C394 C 0.78871 0.86942 0.69272 0.0
C395 C 0.81132 0.87112 0.89068 0.0
C396 C 0.79039 0.8726 0.94412 0.0
H397 H 0.82784 0.86894 0.74341 0.0
H398 H 0.82901 0.87111 0.9413 0.0
S399 S 0.72756 0.87212 0.78034 0.0
N400 N 0.74489 0.87052 0.68509 0.0
N401 N 0.74633 0.87322 0.89779 0.0
C402 C 0.76845 0.87235 0.86542 0.0
C403 C 0.76762 0.87078 0.74505 0.0
C404 C 0.29841 0.85862 0.93769 0.0
C405 C 0.27524 0.85748 0.86426 0.0
C406 C 0.30018 0.85922 1.05635 0.0
C407 C 0.27923 0.85903 0.11396 0.0
H408 H 0.31552 0.85904 0.90393 0.0
H409 H 0.31862 0.86002 1.10393 0.0
S410 S 0.21388 0.85569 0.96391 0.0
N411 N 0.23067 0.85579 0.86524 0.0
N412 N 0.23409 0.85721 1.07789 0.0
C413 C 0.25624 0.8579 1.04067 0.0
C414 C 0.25435 0.85707 0.92114 0.0
C415 C 0.26729 0.24374 0.10585 0.0
C416 C 0.2878 0.27676 1.06911 0.0
C417 C 0.26615 0.24206 0.22171 0.0
C418 C 0.28545 0.27322 0.31548 0.0
H419 H 0.25142 0.21813 1.04337 0.0
H420 H 0.24957 0.21537 0.2375 0.0
S421 S 0.34283 0.36826 0.27415 0.0
N422 N 0.32759 0.34255 0.14611 0.0
N423 N 0.3257 0.3396 0.3545 0.0
C424 C 0.30589 0.30647 0.27971 0.0
C425 C 0.30699 0.30817 0.16183 0.0
C426 C 0.45069 0.15246 0.34015 0.0
C427 C 0.42279 0.14537 0.29711 0.0
C428 C 0.45447 0.12293 0.35996 0.0
C429 C 0.43242 0.08514 0.30414 0.0
H430 H 0.47009 0.18068 0.35474 0.0
H431 H 0.47664 0.13058 0.39046 0.0
S432 S 0.3539 0.05075 0.24419 0.0
N433 N 0.37075 0.09758 0.25642 0.0
N434 N 0.37974 0.04146 0.26755 0.0
C435 C 0.40381 0.07741 0.28947 0.0
C436 C 0.39893 0.10772 0.28253 0.0
C437 C 0.872 0.06543 0.25633 0.0
C438 C 0.89435 0.08259 0.18721 0.0
C439 C 0.8479 0.02064 0.19 0.0
C440 C 0.84152 0.98996 1.07416 0.0
H441 H 0.87111 0.07936 0.33249 0.0
H442 H 0.83094 1.00715 0.23724 0.0
S443 S 0.88398 1.00412 0.84198 0.0
N444 N 0.90524 0.04777 0.92369 0.0
N445 N 0.85646 0.977 0.89752 0.0
C446 C 0.86207 1.00166 0.99113 0.0
C447 C 0.89085 0.04327 1.00699 0.0
C448 C 0.9753 0.67297 0.2726 0.0
C449 C 0.94876 0.64241 0.28443 0.0
C450 C 0.9785 0.70723 0.25595 0.0
C451 C 0.95544 0.71318 0.25189 0.0
H452 H 0.99416 0.67084 0.27755 0.0
H453 H 0.99932 0.72895 0.24388 0.0
S454 S 0.88072 0.64224 0.27473 0.0
N455 N 0.89839 0.62038 0.28884 0.0
N456 N 0.90465 0.68503 0.258 0.0
C457 C 0.9285 0.68279 0.26164 0.0
C458 C 0.92511 0.6475 0.2778 0.0
C459 C 0.26802 0.38499 0.64124 0.0
C460 C 0.25157 0.34477 0.60457 0.0
C461 C 0.25934 0.4081 0.59595 0.0
C462 C 0.23353 0.3923 0.5123 0.0
H463 H 0.28821 0.39901 0.70433 0.0
H464 H 0.27306 0.43881 0.62717 0.0
S465 S 0.18224 0.28856 0.38615 0.0
N466 N 0.20783 0.29026 0.47823 0.0
N467 N 0.19163 0.33337 0.39459 0.0
C468 C 0.21662 0.35207 0.47586 0.0
C469 C 0.22558 0.32852 0.52127 0.0
C470 C 0.68291 0.67993 0.16457 0.0
C471 C 0.69499 0.65688 0.16392 0.0
C472 C 0.70034 0.72099 0.19844 0.0
C473 C 0.73121 0.74213 0.23466 0.0
H474 H 0.65948 0.66611 0.13843 0.0
H475 H 0.68936 0.73628 0.19567 0.0
S476 S 0.7746 0.69662 0.2512 0.0
N477 N 0.74062 0.65983 0.20473 0.0
N478 N 0.77273 0.73496 0.26736 0.0
C479 C 0.74351 0.71926 0.23479 0.0
C480 C 0.72578 0.67763 0.20012 0.0
C481 C 0.45126 0.92918 0.11999 0.0
C482 C 0.48121 0.95748 0.15591 0.0
C483 C 0.43343 0.91791 0.19454 0.0
C484 C 0.44475 0.93437 0.30839 0.0
H485 H 0.44138 0.91578 1.03308 0.0
H486 H 0.41051 0.89585 0.16264 0.0
S487 S 0.52159 1.01006 0.44581 0.0
N488 N 0.5215 1.0019 0.31375 0.0
N489 N 0.48764 0.98088 0.45389 0.0
C490 C 0.47461 0.96279 0.34599 0.0
C491 C 0.49288 0.97443 0.26974 0.0
C492 C 0.58289 0.1801 0.79424 0.0
C493 C 0.58325 0.15682 0.86843 0.0
C494 C 0.55974 0.18716 0.77053 0.0
C495 C 0.53528 0.17141 0.81912 0.0
H496 H 0.60006 0.19189 0.75054 0.0
H497 H 0.56104 0.2051 0.71284 0.0
S498 S 0.52478 0.10771 1.0174 0.0
N499 N 0.55599 0.11808 0.98909 0.0
N500 N 0.51383 0.13068 0.94568 0.0
C501 C 0.53574 0.14846 0.89387 0.0
C502 C 0.55905 0.14136 0.91763 0.0
C503 C 1.02379 0.3404 0.98491 0.0
C504 C 1.02688 0.3093 0.99685 0.0
C505 C 0.04493 0.37865 1.04472 0.0
C506 C 0.07121 0.38898 0.11881 0.0
H507 H 1.00454 0.33515 0.92887 0.0
H508 H 0.0407 0.40062 1.03064 0.0
S509 S 0.09126 0.31921 0.17911 0.0
N510 N 0.05909 0.29227 1.09031 0.0
N511 N 0.09888 0.36352 0.19799 0.0
C512 C 0.07484 0.35824 0.13073 0.0
C513 C 0.05283 0.31892 1.07164 0.0
C514 C 0.87134 0.6033 0.93986 0.0
C515 C 0.88421 0.63981 0.91422 0.0
C516 C 0.84496 0.58651 0.97465 0.0
C517 C 0.82989 0.60522 0.98534 0.0
H518 H 0.88165 0.58728 0.93253 0.0
H519 H 0.836 0.55818 0.99134 0.0
S520 S 0.85481 0.70231 0.93582 0.0
N521 N 0.87968 0.69444 0.90523 0.0
N522 N 0.83115 0.66368 0.97404 0.0
C523 C 0.84284 0.6421 0.96259 0.0
C524 C 0.86961 0.65912 0.92648 0.0
C525 C 0.98662 0.62969 1.07218 0.0
C526 C 1.00301 0.66595 1.04868 0.0
C527 C 1.00034 0.61417 0.12925 0.0
C528 C 1.03095 0.63392 0.16116 0.0
H529 H 0.96313 0.61238 1.04094 0.0
H530 H 0.98693 0.58526 0.14046 0.0
S531 S 0.08337 0.73094 0.12425 0.0
N532 N 0.051 0.72231 1.06671 0.0
N533 N 0.07711 0.69287 0.17279 0.0
C534 C 0.04749 0.67116 0.14339 0.0
C535 C 1.03341 0.68721 1.08692 0.0
C536 C 0.58383 0.37255 0.96297 0.0
C537 C 0.57918 0.39985 1.01755 0.0
C538 C 0.56168 0.3323 0.93004 0.0
C539 C 0.53342 0.31598 0.95161 0.0
H540 H 0.60455 0.38243 0.94187 0.0
H541 H 0.56682 0.31365 0.88583 0.0
S542 S 0.50914 0.37349 1.09411 0.0
N543 N 0.54294 0.40585 1.09179 0.0
N544 N 0.5028 0.33184 1.03373 0.0
C545 C 0.52874 0.34273 1.00861 0.0
C546 C 0.55099 0.38375 1.04012 0.0
C547 C 0.8599 0.15972 0.87038 0.0
C548 C 0.88493 0.19391 0.86108 0.0
C549 C 0.83416 0.15786 0.88733 0.0
C550 C 0.83168 0.19021 0.89805 0.0
H551 H 0.85987 0.13364 0.86226 0.0
H552 H 0.81597 0.13053 0.89282 0.0
S553 S 0.89095 0.28737 0.88235 0.0
N554 N 0.90519 0.26128 0.8656 0.0
N555 N 0.85776 0.25806 0.89743 0.0
C556 C 0.85677 0.22473 0.89024 0.0
C557 C 0.88286 0.22646 0.87164 0.0
C558 C 0.64872 0.99999 1.01674 0.0
C559 C 0.6663 0.02979 0.96718 0.0
C560 C 0.65872 0.97856 1.06476 0.0
C561 C 0.68668 0.98546 1.06432 0.0
H562 H 0.62724 0.99373 1.02081 0.0
H563 H 0.64443 0.95666 1.104 0.0
S564 S 0.74053 0.05916 0.93819 0.0
N565 N 0.7128 0.06485 0.91902 0.0
N566 N 0.73114 0.02378 1.00342 0.0
C567 C 0.70429 1.01505 1.01337 0.0
C568 C 0.69425 0.03732 0.96643 0.0
C569 C 0.20002 0.70609 0.38083 0.0
C570 C 0.23081 0.7283 0.3981 0.0
C571 C 0.18312 0.66503 0.35211 0.0
C572 C 0.19552 0.64256 0.33832 0.0
H573 H 0.1886 0.72056 0.39001 0.0
H574 H 0.15974 0.65071 0.3412 0.0
S575 S 0.27512 0.68533 0.3694 0.0
N576 N 0.27274 0.72313 0.39546 0.0
N577 N 0.24149 0.64748 0.34302 0.0
C578 C 0.22628 0.66436 0.35451 0.0
C579 C 0.24356 0.70632 0.38361 0.0
C580 C 0.49146 0.45972 0.4177 0.0
C581 C 0.48047 0.44555 0.30289 0.0
C582 C 0.47336 0.44597 0.49059 0.0
C583 C 0.44353 0.4173 0.45178 0.0
H584 H 0.51411 0.48243 0.4514 0.0
H585 H 0.48277 0.45831 0.57823 0.0
S586 S 0.40482 0.36778 0.15851 0.0
N587 N 0.43858 0.39935 0.15361 0.0
N588 N 0.40434 0.37317 0.29051 0.0
C589 C 0.43255 0.40157 0.33716 0.0
C590 C 0.45103 0.4159 0.26273 0.0
C591 C 0.93704 0.74841 0.50128 0.0
C592 C 0.92133 0.71475 0.53951 0.0
C593 C 0.92301 0.7644 0.44892 0.0
C594 C 0.89272 0.74746 0.43333 0.0
H595 H 0.96056 0.76341 0.51586 0.0
H596 H 0.93631 0.79148 0.42655 0.0
S597 S 0.84103 0.65602 0.50326 0.0
N598 N 0.87342 0.66284 0.54832 0.0
N599 N 0.84696 0.69264 0.44751 0.0
C600 C 0.87646 0.71234 0.46401 0.0
C601 C 0.89078 0.69603 0.51769 0.0
C602 C 0.3945 0.04596 0.55331 0.0
C603 C 0.39147 0.0733 0.61783 0.0
C604 C 0.37192 1.00568 0.52058 0.0
C605 C 0.34415 0.98934 0.5475 0.0
H606 H 0.41507 0.05542 0.53128 0.0
H607 H 0.37665 0.9869 0.47452 0.0
S608 S 0.32342 0.04808 0.70847 0.0
N609 N 0.3571 0.07992 0.70336 0.0
N610 N 0.31544 1.00639 0.64009 0.0
C611 C 0.34052 0.01671 0.60835 0.0
C612 C 0.36371 0.05755 0.64362 0.0
C613 C 0.04977 0.1726 0.78914 0.0
C614 C 0.0374 0.19001 0.73069 0.0
C615 C 0.07455 0.1727 0.76749 0.0
C616 C 0.08917 0.19089 0.68738 0.0
H617 H 0.0401 0.15842 0.85253 0.0
H618 H 0.08269 0.15885 0.81607 0.0
S619 S 0.06587 0.24024 0.50797 0.0
N620 N 0.0421 0.22544 0.58577 0.0
N621 N 0.08816 0.22614 0.54714 0.0
C622 C 0.077 0.20835 0.62812 0.0
C623 C 0.05147 0.20773 0.64893 0.0
C624 C 0.38499 0.23237 0.68369 0.0
C625 C 0.38579 0.20819 0.753 0.0
C626 C 0.36167 0.23855 0.6624 0.0
C627 C 0.33667 0.22072 0.70696 0.0
H628 H 0.40334 0.24829 0.64831 0.0
H629 H 0.36377 0.25878 0.61166 0.0
S630 S 0.32619 0.15309 0.89175 0.0
N631 N 0.35794 0.16515 0.86473 0.0
N632 N 0.31464 0.1765 0.8246 0.0
C633 C 0.33665 0.1956 0.77465 0.0
C634 C 0.36082 0.18959 0.79765 0.0
C635 C 0.84742 0.02199 0.48792 0.0
C636 C 0.85526 0.99498 0.46377 0.0
C637 C 0.86818 0.06047 0.54892 0.0
C638 C 0.89794 0.07415 0.59199 0.0
H639 H 0.82493 1.01335 0.45987 0.0
H640 H 0.86062 0.07947 0.56466 0.0
S641 S 0.931 0.01697 0.55065 0.0
N642 N 0.89633 0.98688 0.48655 0.0
N643 N 0.93404 0.05733 0.60196 0.0
C644 C 0.90609 0.04772 0.568 0.0
C645 C 0.88527 1.00897 0.50418 0.0
C646 C 0.05721 0.77462 0.67205 0.0
C647 C 0.03994 0.73475 0.66387 0.0
C648 C 0.08402 0.79211 0.64067 0.0
C649 C 0.09536 0.77079 0.60147 0.0
H650 H 0.04995 0.79267 0.70322 0.0
H651 H 0.09633 0.82288 0.6496 0.0
S652 S 0.05884 0.66533 0.56278 0.0
N653 N 0.03636 0.67445 0.61245 0.0
N654 N 0.08645 0.70705 0.55364 0.0
C655 C 0.07824 0.73082 0.59205 0.0
C656 C 0.05069 0.71293 0.62283 0.0
loop_
_geom_bond_atom_site_label_1
_geom_bond_atom_site_label_2
_geom_bond_distance
_geom_bond_site_symmetry_2
_ccdc_geom_bond_type
Eu0 C9 2.828 . S
Eu0 O11 2.392 . S
Eu0 O13 2.418 1_554 S
Eu0 O18 2.373 . S
Eu0 O21 2.488 . S
Eu0 O22 2.471 . S
Eu0 O23 2.349 . S
Eu1 O10 2.373 . S
Eu1 O14 2.488 1_455 S
Eu1 O15 2.471 1_554 S
Eu1 O16 2.349 1_554 S
Eu1 O19 2.392 . S
Eu1 O20 2.418 . S
Eu1 C30 2.828 1_554 S
C2 O20 1.244 . S
C2 O23 1.265 . S
C3 C4 1.379 . S
C3 C7 1.373 . S
C3 C9 1.505 . S
C4 C3 1.379 . S
C4 C6 1.369 . S
C4 H32 0.930 . S
C5 C7 1.383 . S
C5 C8 1.382 . S
C5 H33 0.930 . S
C6 C4 1.369 . S
C6 C8 1.392 . S
C6 H34 0.930 . S
C7 C3 1.373 . S
C7 C5 1.383 . S
C7 H35 0.931 . S
C8 C5 1.382 . S
C8 C6 1.392 . S
C9 Eu0 2.828 . S
C9 C3 1.505 . S
C9 O21 1.249 . S
C9 O22 1.244 . S
O10 Eu1 2.373 . S
O10 C12 1.258 . S
O11 Eu0 2.392 . S
O11 C12 1.242 . S
C12 O10 1.258 . S
C12 O11 1.242 . S
O13 Eu0 2.418 1_556 S
O13 C17 1.244 . S
O14 Eu1 2.488 1_655 S
O14 C30 1.249 1_654 S
O15 Eu1 2.471 1_556 S
O15 C30 1.244 . S
O16 Eu1 2.349 1_556 S
O16 C17 1.265 . S
C17 O13 1.244 . S
C17 O16 1.265 . S
O18 Eu0 2.373 . S
O18 C31 1.258 1_554 S
O19 Eu1 2.392 . S
O19 C31 1.242 1_554 S
O20 Eu1 2.418 . S
O20 C2 1.244 . S
O21 Eu0 2.488 . S
O21 C9 1.249 . S
O22 Eu0 2.471 . S
O22 C9 1.244 . S
O23 Eu0 2.349 . S
O23 C2 1.265 . S
C24 C25 1.379 1_655 S
C24 C28 1.373 1_556 S
C24 C30 1.505 1_655 S
C25 C24 1.379 1_455 S
C25 C27 1.363 1_455 S
C25 H36 0.930 . S
C26 C28 1.383 . S
C26 C29 1.382 1_554 S
C26 H37 0.930 . S
C27 C25 1.363 1_655 S
C27 C29 1.399 . S
C27 H38 0.929 1_655 S
C28 C24 1.373 1_554 S
C28 C26 1.383 . S
C28 H39 0.931 . S
C29 C26 1.382 1_556 S
C29 C27 1.399 . S
C30 Eu1 2.828 1_556 S
C30 O14 1.249 1_456 S
C30 O15 1.244 . S
C30 C24 1.505 1_455 S
C31 O18 1.258 1_556 S
C31 O19 1.242 1_556 S
H32 C4 0.930 . S
H33 C5 0.930 . S
H34 C6 0.930 . S
H35 C7 0.931 . S
H36 C25 0.930 . S
H37 C26 0.930 . S
H38 C27 0.929 1_455 S
H39 C28 0.931 . S
Eu40 C49 2.828 . S
Eu40 O51 2.392 . S
Eu40 O53 2.418 . S
Eu40 O58 2.373 . S
Eu40 O61 2.488 . S
Eu40 O62 2.471 . S
Eu40 O63 2.349 . S
Eu41 O50 2.373 . S
Eu41 O54 2.488 . S
Eu41 O55 2.471 . S
Eu41 O56 2.349 . S
Eu41 O59 2.392 . S
Eu41 O60 2.418 1_554 S
Eu41 C70 2.828 . S
C42 O60 1.244 . S
C42 O63 1.265 1_556 S
C43 C44 1.379 . S
C43 C47 1.373 . S
C43 C49 1.505 . S
C44 C43 1.379 . S
C44 C46 1.369 . S
C44 H72 0.930 1_554 S
C45 C47 1.383 . S
C45 C48 1.382 . S
C45 H73 0.930 . S
C46 C44 1.369 . S
C46 C48 1.392 . S
C46 H74 0.930 1_554 S
C47 C43 1.373 . S
C47 C45 1.383 . S
C47 H75 0.931 . S
C48 C45 1.382 . S
C48 C46 1.392 . S
C49 Eu40 2.828 . S
C49 C43 1.505 . S
C49 O61 1.249 . S
C49 O62 1.244 . S
O50 Eu41 2.373 . S
O50 C52 1.258 . S
O51 Eu40 2.392 . S
O51 C52 1.242 . S
C52 O50 1.258 . S
C52 O51 1.242 . S
O53 Eu40 2.418 . S
O53 C57 1.244 . S
O54 Eu41 2.488 . S
O54 C70 1.249 . S
O55 Eu41 2.471 . S
O55 C70 1.244 . S
O56 Eu41 2.349 . S
O56 C57 1.265 . S
C57 O53 1.244 . S
C57 O56 1.265 . S
O58 Eu40 2.373 . S
O58 C71 1.258 . S
O59 Eu41 2.392 . S
O59 C71 1.242 . S
O60 Eu41 2.418 1_556 S
O60 C42 1.244 . S
O61 Eu40 2.488 . S
O61 C49 1.249 . S
O62 Eu40 2.471 . S
O62 C49 1.244 . S
O63 Eu40 2.349 . S
O63 C42 1.265 1_554 S
C64 C65 1.379 . S
C64 C68 1.373 . S
C64 C70 1.505 . S
C65 C64 1.379 . S
C65 C67 1.369 . S
C65 H76 0.930 . S
C66 C68 1.383 . S
C66 C69 1.382 . S
C66 H77 0.930 . S
C67 C65 1.369 . S
C67 C69 1.392 . S
C67 H78 0.930 . S
C68 C64 1.373 . S
C68 C66 1.383 . S
C68 H79 0.931 . S
C69 C66 1.382 . S
C69 C67 1.392 . S
C70 Eu41 2.828 . S
C70 O54 1.249 . S
C70 O55 1.244 . S
C70 C64 1.505 . S
C71 O58 1.258 . S
C71 O59 1.242 . S
H72 C44 0.930 1_556 S
H73 C45 0.930 . S
H74 C46 0.930 1_556 S
H75 C47 0.931 . S
H76 C65 0.930 . S
H77 C66 0.930 . S
H78 C67 0.930 . S
H79 C68 0.931 . S
Eu80 C89 2.828 . S
Eu80 O91 2.392 . S
Eu80 O93 2.418 1_554 S
Eu80 O98 2.373 . S
Eu80 O101 2.488 . S
Eu80 O102 2.471 . S
Eu80 O103 2.349 . S
Eu81 O90 2.373 . S
Eu81 O94 2.488 . S
Eu81 O95 2.471 . S
Eu81 O96 2.349 . S
Eu81 O99 2.392 . S
Eu81 O100 2.418 . S
Eu81 C110 2.828 . S
C82 O100 1.244 . S
C82 O103 1.265 . S
C83 C84 1.379 . S
C83 C87 1.373 . S
C83 C89 1.505 . S
C84 C83 1.379 . S
C84 C86 1.369 . S
C84 H112 0.930 . S
C85 C87 1.383 . S
C85 C88 1.382 . S
C85 H113 0.930 1_545 S
C86 C84 1.369 . S
C86 C88 1.392 . S
C86 H114 0.930 . S
C87 C83 1.373 . S
C87 C85 1.383 . S
C87 H115 0.931 1_554 S
C88 C85 1.382 . S
C88 C86 1.392 . S
C89 Eu80 2.828 . S
C89 C83 1.505 . S
C89 O101 1.249 . S
C89 O102 1.244 . S
O90 Eu81 2.373 . S
O90 C92 1.258 . S
O91 Eu80 2.392 . S
O91 C92 1.242 . S
C92 O90 1.258 . S
C92 O91 1.242 . S
O93 Eu80 2.418 1_556 S
O93 C97 1.244 . S
O94 Eu81 2.488 . S
O94 C110 1.249 . S
O95 Eu81 2.471 . S
O95 C110 1.244 . S
O96 Eu81 2.349 . S
O96 C97 1.265 1_554 S
C97 O93 1.244 . S
C97 O96 1.265 1_556 S
O98 Eu80 2.373 . S
O98 C111 1.258 . S
O99 Eu81 2.392 . S
O99 C111 1.242 . S
O100 Eu81 2.418 . S
O100 C82 1.244 . S
O101 Eu80 2.488 . S
O101 C89 1.249 . S
O102 Eu80 2.471 . S
O102 C89 1.244 . S
O103 Eu80 2.349 . S
O103 C82 1.265 . S
C104 C105 1.379 . S
C104 C108 1.373 . S
C104 C110 1.505 . S
C105 C104 1.379 . S
C105 C107 1.369 . S
C105 H116 0.930 . S
C106 C108 1.383 . S
C106 C109 1.382 . S
C106 H117 0.930 . S
C107 C105 1.369 . S
C107 C109 1.392 . S
C107 H118 0.930 . S
C108 C104 1.373 . S
C108 C106 1.383 . S
C108 H119 0.931 . S
C109 C106 1.382 . S
C109 C107 1.392 . S
C110 Eu81 2.828 . S
C110 O94 1.249 . S
C110 O95 1.244 . S
C110 C104 1.505 . S
C111 O98 1.258 . S
C111 O99 1.242 . S
H112 C84 0.930 . S
H113 C85 0.930 1_565 S
H114 C86 0.930 . S
H115 C87 0.931 1_556 S
H116 C105 0.930 . S
H117 C106 0.930 . S
H118 C107 0.930 . S
H119 C108 0.931 . S
Eu120 C129 2.828 . S
Eu120 O131 2.392 . S
Eu120 O133 2.418 . S
Eu120 O138 2.373 . S
Eu120 O141 2.488 . S
Eu120 O142 2.471 . S
Eu120 O143 2.349 . S
Eu121 O130 2.373 . S
Eu121 O134 2.488 . S
Eu121 O135 2.471 . S
Eu121 O136 2.349 . S
Eu121 O139 2.392 . S
Eu121 O140 2.418 . S
Eu121 C150 2.828 . S
C122 O140 1.244 . S
C122 O143 1.265 . S
C123 C124 1.379 . S
C123 C127 1.373 . S
C123 C129 1.505 . S
C124 C123 1.379 . S
C124 C126 1.369 . S
C124 H152 0.930 . S
C125 C127 1.383 . S
C125 C128 1.382 . S
C125 H153 0.930 . S
C126 C124 1.369 . S
C126 C128 1.392 . S
C126 H154 0.930 . S
C127 C123 1.373 . S
C127 C125 1.383 . S
C127 H155 0.931 . S
C128 C125 1.382 . S
C128 C126 1.392 . S
C129 Eu120 2.828 . S
C129 C123 1.505 . S
C129 O141 1.249 . S
C129 O142 1.244 . S
O130 Eu121 2.373 . S
O130 C132 1.258 . S
O131 Eu120 2.392 . S
O131 C132 1.242 . S
C132 O130 1.258 . S
C132 O131 1.242 . S
O133 Eu120 2.418 . S
O133 C137 1.244 . S
O134 Eu121 2.488 . S
O134 C150 1.249 . S
O135 Eu121 2.471 . S
O135 C150 1.244 . S
O136 Eu121 2.349 . S
O136 C137 1.265 . S
C137 O133 1.244 . S
C137 O136 1.265 . S
O138 Eu120 2.373 . S
O138 C151 1.258 . S
O139 Eu121 2.392 . S
O139 C151 1.242 . S
O140 Eu121 2.418 . S
O140 C122 1.244 . S
O141 Eu120 2.488 . S
O141 C129 1.249 . S
O142 Eu120 2.471 . S
O142 C129 1.244 . S
O143 Eu120 2.349 . S
O143 C122 1.265 . S
C144 C145 1.379 . S
C144 C148 1.373 . S
C144 C150 1.505 . S
C145 C144 1.379 . S
C145 C147 1.369 . S
C145 H156 0.930 . S
C146 C148 1.383 . S
C146 C149 1.382 1_565 S
C146 H157 0.930 . S
C147 C145 1.369 . S
C147 C149 1.392 1_565 S
C147 H158 0.930 1_565 S
C148 C144 1.373 . S
C148 C146 1.383 . S
C148 H159 0.931 . S
C149 C146 1.382 1_545 S
C149 C147 1.392 1_545 S
C150 Eu121 2.828 . S
C150 O134 1.249 . S
C150 O135 1.244 . S
C150 C144 1.505 . S
C151 O138 1.258 . S
C151 O139 1.242 . S
H152 C124 0.930 . S
H153 C125 0.930 . S
H154 C126 0.930 . S
H155 C127 0.931 . S
H156 C145 0.930 . S
H157 C146 0.930 . S
H158 C147 0.930 1_545 S
H159 C148 0.931 . S
Eu160 C169 2.828 . S
Eu160 O171 2.392 . S
Eu160 O173 2.418 . S
Eu160 O178 2.373 . S
Eu160 O181 2.488 . S
Eu160 O182 2.471 . S
Eu160 O183 2.349 . S
Eu161 O170 2.373 . S
Eu161 O174 2.488 . S
Eu161 O175 2.471 . S
Eu161 O176 2.349 . S
Eu161 O179 2.392 . S
Eu161 O180 2.418 . S
Eu161 C190 2.828 . S
C162 O180 1.244 . S
C162 O183 1.265 . S
C163 C164 1.379 . S
C163 C167 1.373 . S
C163 C169 1.505 . S
C164 C163 1.379 . S
C164 C166 1.369 . S
C164 H192 0.930 . S
C165 C167 1.383 . S
C165 C168 1.382 . S
C165 H193 0.930 . S
C166 C164 1.369 . S
C166 C168 1.392 . S
C166 H194 0.930 . S
C167 C163 1.373 . S
C167 C165 1.383 . S
C167 H195 0.931 . S
C168 C165 1.382 . S
C168 C166 1.392 . S
C169 Eu160 2.828 . S
C169 C163 1.505 . S
C169 O181 1.249 . S
C169 O182 1.244 . S
O170 Eu161 2.373 . S
O170 C172 1.258 . S
O171 Eu160 2.392 . S
O171 C172 1.242 . S
C172 O170 1.258 . S
C172 O171 1.242 . S
O173 Eu160 2.418 . S
O173 C177 1.244 . S
O174 Eu161 2.488 . S
O174 C190 1.249 . S
O175 Eu161 2.471 . S
O175 C190 1.244 . S
O176 Eu161 2.349 . S
O176 C177 1.265 . S
C177 O173 1.244 . S
C177 O176 1.265 . S
O178 Eu160 2.373 . S
O178 C191 1.258 . S
O179 Eu161 2.392 . S
O179 C191 1.242 . S
O180 Eu161 2.418 . S
O180 C162 1.244 . S
O181 Eu160 2.488 . S
O181 C169 1.249 . S
O182 Eu160 2.471 . S
O182 C169 1.244 . S
O183 Eu160 2.349 . S
O183 C162 1.265 . S
C184 C185 1.379 . S
C184 C188 1.373 . S
C184 C190 1.505 . S
C185 C184 1.379 . S
C185 C187 1.369 . S
C185 H196 0.930 . S
C186 C188 1.383 . S
C186 C189 1.382 . S
C186 H197 0.930 . S
C187 C185 1.369 . S
C187 C189 1.392 . S
C187 H198 0.930 . S
C188 C184 1.373 . S
C188 C186 1.383 . S
C188 H199 0.931 . S
C189 C186 1.382 . S
C189 C187 1.392 . S
C190 Eu161 2.828 . S
C190 O174 1.249 . S
C190 O175 1.244 . S
C190 C184 1.505 . S
C191 O178 1.258 . S
C191 O179 1.242 . S
H192 C164 0.930 . S
H193 C165 0.930 . S
H194 C166 0.930 . S
H195 C167 0.931 . S
H196 C185 0.930 . S
H197 C186 0.930 . S
H198 C187 0.930 . S
H199 C188 0.931 . S
Eu200 C209 2.828 . S
Eu200 O211 2.392 . S
Eu200 O213 2.418 . S
Eu200 O218 2.373 . S
Eu200 O221 2.488 . S
Eu200 O222 2.471 . S
Eu200 O223 2.349 . S
Eu201 O210 2.373 . S
Eu201 O214 2.488 . S
Eu201 O215 2.471 . S
Eu201 O216 2.349 . S
Eu201 O219 2.392 . S
Eu201 O220 2.418 . S
Eu201 C230 2.828 . S
C202 O220 1.244 . S
C202 O223 1.265 . S
C203 C204 1.379 . S
C203 C207 1.373 . S
C203 C209 1.505 . S
C204 C203 1.379 . S
C204 C206 1.369 . S
C204 H232 0.930 . S
C205 C207 1.383 . S
C205 C208 1.382 . S
C205 H233 0.930 . S
C206 C204 1.369 . S
C206 C208 1.392 . S
C206 H234 0.930 . S
C207 C203 1.373 . S
C207 C205 1.383 . S
C207 H235 0.931 . S
C208 C205 1.382 . S
C208 C206 1.392 . S
C209 Eu200 2.828 . S
C209 C203 1.505 . S
C209 O221 1.249 . S
C209 O222 1.244 . S
O210 Eu201 2.373 . S
O210 C212 1.258 . S
O211 Eu200 2.392 . S
O211 C212 1.242 . S
C212 O210 1.258 . S
C212 O211 1.242 . S
O213 Eu200 2.418 . S
O213 C217 1.244 . S
O214 Eu201 2.488 . S
O214 C230 1.249 . S
O215 Eu201 2.471 . S
O215 C230 1.244 . S
O216 Eu201 2.349 . S
O216 C217 1.265 . S
C217 O213 1.244 . S
C217 O216 1.265 . S
O218 Eu200 2.373 . S
O218 C231 1.258 . S
O219 Eu201 2.392 . S
O219 C231 1.242 . S
O220 Eu201 2.418 . S
O220 C202 1.244 . S
O221 Eu200 2.488 . S
O221 C209 1.249 . S
O222 Eu200 2.471 . S
O222 C209 1.244 . S
O223 Eu200 2.349 . S
O223 C202 1.265 . S
C224 C225 1.379 . S
C224 C228 1.373 . S
C224 C230 1.505 . S
C225 C224 1.379 . S
C225 C227 1.369 . S
C225 H236 0.930 . S
C226 C228 1.383 . S
C226 C229 1.382 . S
C226 H237 0.930 . S
C227 C225 1.369 . S
C227 C229 1.392 . S
C227 H238 0.930 . S
C228 C224 1.373 . S
C228 C226 1.383 . S
C228 H239 0.931 . S
C229 C226 1.382 . S
C229 C227 1.392 . S
C230 Eu201 2.828 . S
C230 O214 1.249 . S
C230 O215 1.244 . S
C230 C224 1.505 . S
C231 O218 1.258 . S
C231 O219 1.242 . S
H232 C204 0.930 . S
H233 C205 0.930 . S
H234 C206 0.930 . S
H235 C207 0.931 . S
H236 C225 0.930 . S
H237 C226 0.930 . S
H238 C227 0.930 . S
H239 C228 0.931 . S
Eu240 C249 2.828 . S
Eu240 O251 2.392 . S
Eu240 O253 2.418 . S
Eu240 O258 2.373 . S
Eu240 O261 2.488 . S
Eu240 O262 2.471 . S
Eu240 O263 2.349 . S
Eu241 O250 2.373 . S
Eu241 O254 2.488 . S
Eu241 O255 2.471 . S
Eu241 O256 2.349 . S
Eu241 O259 2.392 . S
Eu241 O260 2.418 . S
Eu241 C270 2.828 . S
C242 O260 1.244 . S
C242 O263 1.265 . S
C243 C244 1.379 . S
C243 C247 1.373 . S
C243 C249 1.505 . S
C244 C243 1.379 . S
C244 C246 1.369 . S
C244 H272 0.930 . S
C245 C247 1.383 . S
C245 C248 1.382 . S
C245 H273 0.930 . S
C246 C244 1.369 . S
C246 C248 1.392 . S
C246 H274 0.930 . S
C247 C243 1.373 . S
C247 C245 1.383 . S
C247 H275 0.931 . S
C248 C245 1.382 . S
C248 C246 1.392 . S
C249 Eu240 2.828 . S
C249 C243 1.505 . S
C249 O261 1.249 . S
C249 O262 1.244 . S
O250 Eu241 2.373 . S
O250 C252 1.258 . S
O251 Eu240 2.392 . S
O251 C252 1.242 . S
C252 O250 1.258 . S
C252 O251 1.242 . S
O253 Eu240 2.418 . S
O253 C257 1.244 . S
O254 Eu241 2.488 . S
O254 C270 1.249 . S
O255 Eu241 2.471 . S
O255 C270 1.244 . S
O256 Eu241 2.349 . S
O256 C257 1.265 . S
C257 O253 1.244 . S
C257 O256 1.265 . S
O258 Eu240 2.373 . S
O258 C271 1.258 . S
O259 Eu241 2.392 . S
O259 C271 1.242 . S
O260 Eu241 2.418 . S
O260 C242 1.244 . S
O261 Eu240 2.488 . S
O261 C249 1.249 . S
O262 Eu240 2.471 . S
O262 C249 1.244 . S
O263 Eu240 2.349 . S
O263 C242 1.265 . S
C264 C265 1.379 . S
C264 C268 1.373 . S
C264 C270 1.505 1_554 S
C265 C264 1.379 . S
C265 C267 1.369 . S
C265 H276 0.930 . S
C266 C268 1.383 . S
C266 C269 1.382 . S
C266 H277 0.930 . S
C267 C265 1.369 . S
C267 C269 1.392 . S
C267 H278 0.930 . S
C268 C264 1.373 . S
C268 C266 1.383 . S
C268 H279 0.931 . S
C269 C266 1.382 . S
C269 C267 1.392 . S
C270 Eu241 2.828 . S
C270 O254 1.249 . S
C270 O255 1.244 . S
C270 C264 1.505 1_556 S
C271 O258 1.258 . S
C271 O259 1.242 . S
H272 C244 0.930 . S
H273 C245 0.930 . S
H274 C246 0.930 . S
H275 C247 0.931 . S
H276 C265 0.930 . S
H277 C266 0.930 . S
H278 C267 0.930 . S
H279 C268 0.931 . S
Eu280 C289 2.828 . S
Eu280 O291 2.392 . S
Eu280 O293 2.418 . S
Eu280 O298 2.373 . S
Eu280 O301 2.488 . S
Eu280 O302 2.471 . S
Eu280 O303 2.349 . S
Eu281 O290 2.373 . S
Eu281 O294 2.488 . S
Eu281 O295 2.471 . S
Eu281 O296 2.349 . S
Eu281 O299 2.392 . S
Eu281 O300 2.418 . S
Eu281 C310 2.828 . S
C282 O300 1.244 . S
C282 O303 1.265 . S
C283 C284 1.379 . S
C283 C287 1.373 . S
C283 C289 1.505 1_554 S
C284 C283 1.379 . S
C284 C286 1.369 . S
C284 H312 0.930 . S
C285 C287 1.383 . S
C285 C288 1.382 . S
C285 H313 0.930 . S
C286 C284 1.369 . S
C286 C288 1.392 . S
C286 H314 0.930 . S
C287 C283 1.373 . S
C287 C285 1.383 . S
C287 H315 0.931 . S
C288 C285 1.382 . S
C288 C286 1.392 . S
C289 Eu280 2.828 . S
C289 C283 1.505 1_556 S
C289 O301 1.249 . S
C289 O302 1.244 . S
O290 Eu281 2.373 . S
O290 C292 1.258 . S
O291 Eu280 2.392 . S
O291 C292 1.242 . S
C292 O290 1.258 . S
C292 O291 1.242 . S
O293 Eu280 2.418 . S
O293 C297 1.244 . S
O294 Eu281 2.488 . S
O294 C310 1.249 . S
O295 Eu281 2.471 . S
O295 C310 1.244 . S
O296 Eu281 2.349 . S
O296 C297 1.265 . S
C297 O293 1.244 . S
C297 O296 1.265 . S
O298 Eu280 2.373 . S
O298 C311 1.258 . S
O299 Eu281 2.392 . S
O299 C311 1.242 . S
O300 Eu281 2.418 . S
O300 C282 1.244 . S
O301 Eu280 2.488 . S
O301 C289 1.249 . S
O302 Eu280 2.471 . S
O302 C289 1.244 . S
O303 Eu280 2.349 . S
O303 C282 1.265 . S
C304 C305 1.379 . S
C304 C308 1.373 . S
C304 C310 1.505 . S
C305 C304 1.379 . S
C305 C307 1.369 . S
C305 H316 0.930 . S
C306 C308 1.383 . S
C306 C309 1.382 . S
C306 H317 0.930 . S
C307 C305 1.369 . S
C307 C309 1.392 . S
C307 H318 0.930 . S
C308 C304 1.373 . S
C308 C306 1.383 . S
C308 H319 0.931 . S
C309 C306 1.382 . S
C309 C307 1.392 . S
C310 Eu281 2.828 . S
C310 O294 1.249 . S
C310 O295 1.244 . S
C310 C304 1.505 . S
C311 O298 1.258 . S
C311 O299 1.242 . S
H312 C284 0.930 . S
H313 C285 0.930 . S
H314 C286 0.930 . S
H315 C287 0.931 . S
H316 C305 0.930 . S
H317 C306 0.930 . S
H318 C307 0.930 . S
H319 C308 0.931 . S
Eu320 C329 2.828 . S
Eu320 O331 2.392 . S
Eu320 O333 2.418 . S
Eu320 O338 2.373 . S
Eu320 O341 2.488 . S
Eu320 O342 2.471 . S
Eu320 O343 2.349 . S
Eu321 O330 2.373 . S
Eu321 O334 2.488 . S
Eu321 O335 2.471 . S
Eu321 O336 2.349 . S
Eu321 O339 2.392 . S
Eu321 O340 2.418 . S
Eu321 C350 2.828 . S
C322 O340 1.244 . S
C322 O343 1.265 . S
C323 C324 1.379 . S
C323 C327 1.373 . S
C323 C329 1.505 . S
C324 C323 1.379 . S
C324 C326 1.369 . S
C324 H352 0.930 . S
C325 C327 1.383 . S
C325 C328 1.382 . S
C325 H353 0.930 . S
C326 C324 1.369 . S
C326 C328 1.392 . S
C326 H354 0.930 . S
C327 C323 1.373 . S
C327 C325 1.383 . S
C327 H355 0.931 . S
C328 C325 1.382 . S
C328 C326 1.392 . S
C329 Eu320 2.828 . S
C329 C323 1.505 . S
C329 O341 1.249 . S
C329 O342 1.244 . S
O330 Eu321 2.373 . S
O330 C332 1.258 . S
O331 Eu320 2.392 . S
O331 C332 1.242 . S
C332 O330 1.258 . S
C332 O331 1.242 . S
O333 Eu320 2.418 . S
O333 C337 1.244 . S
O334 Eu321 2.488 . S
O334 C350 1.249 . S
O335 Eu321 2.471 . S
O335 C350 1.244 . S
O336 Eu321 2.349 . S
O336 C337 1.265 . S
C337 O333 1.244 . S
C337 O336 1.265 . S
O338 Eu320 2.373 . S
O338 C351 1.258 . S
O339 Eu321 2.392 . S
O339 C351 1.242 . S
O340 Eu321 2.418 . S
O340 C322 1.244 . S
O341 Eu320 2.488 . S
O341 C329 1.249 . S
O342 Eu320 2.471 . S
O342 C329 1.244 . S
O343 Eu320 2.349 . S
O343 C322 1.265 . S
C344 C345 1.379 . S
C344 C348 1.373 . S
C344 C350 1.505 1_554 S
C345 C344 1.379 . S
C345 C347 1.369 . S
C345 H356 0.930 . S
C346 C348 1.383 . S
C346 C349 1.382 . S
C346 H357 0.930 . S
C347 C345 1.369 . S
C347 C349 1.392 . S
C347 H358 0.930 . S
C348 C344 1.373 . S
C348 C346 1.383 . S
C348 H359 0.931 . S
C349 C346 1.382 . S
C349 C347 1.392 . S
C350 Eu321 2.828 . S
C350 O334 1.249 . S
C350 O335 1.244 . S
C350 C344 1.505 1_556 S
C351 O338 1.258 . S
C351 O339 1.242 . S
H352 C324 0.930 . S
H353 C325 0.930 . S
H354 C326 0.930 . S
H355 C327 0.931 . S
H356 C345 0.930 . S
H357 C346 0.930 . S
H358 C347 0.930 . S
H359 C348 0.931 . S
C360 C361 1.369 . S
C360 C362 1.419 . S
C360 H364 0.930 . S
C361 C360 1.369 . S
C361 C370 1.429 . S
C362 C360 1.419 . S
C362 C363 1.363 . S
C362 H365 0.929 . S
C363 C362 1.363 . S
C363 C369 1.428 . S
H364 C360 0.930 . S
H365 C362 0.929 . S
S366 N367 1.613 . S
S366 N368 1.610 . S
N367 S366 1.613 . S
N367 C370 1.350 . S
N368 S366 1.610 . S
N368 C369 1.351 . S
C369 C363 1.428 . S
C369 N368 1.351 . S
C369 C370 1.434 . S
C370 C361 1.429 . S
C370 N367 1.350 . S
C370 C369 1.434 . S
C371 C372 1.369 . S
C371 C373 1.419 . S
C371 H375 0.930 . S
C372 C371 1.369 . S
C372 C381 1.429 . S
C373 C371 1.419 . S
C373 C374 1.363 . S
C373 H376 0.929 . S
C374 C373 1.363 . S
C374 C380 1.428 . S
H375 C371 0.930 . S
H376 C373 0.929 . S
S377 N378 1.613 . S
S377 N379 1.610 . S
N378 S377 1.613 . S
N378 C381 1.350 . S
N379 S377 1.610 . S
N379 C380 1.351 . S
C380 C374 1.428 . S
C380 N379 1.351 . S
C380 C381 1.434 . S
C381 C372 1.429 . S
C381 N378 1.350 . S
C381 C380 1.434 . S
C382 C383 1.369 . S
C382 C384 1.419 . S
C382 H386 0.930 . S
C383 C382 1.369 . S
C383 C392 1.429 . S
C384 C382 1.419 . S
C384 C385 1.363 . S
C384 H387 0.929 . S
C385 C384 1.363 . S
C385 C391 1.428 . S
H386 C382 0.930 . S
H387 C384 0.929 . S
S388 N389 1.613 . S
S388 N390 1.610 . S
N389 S388 1.613 . S
N389 C392 1.350 . S
N390 S388 1.610 . S
N390 C391 1.351 . S
C391 C385 1.428 . S
C391 N390 1.351 . S
C391 C392 1.434 . S
C392 C383 1.429 . S
C392 N389 1.350 . S
C392 C391 1.434 . S
C393 C394 1.369 . S
C393 C395 1.419 . S
C393 H397 0.930 . S
C394 C393 1.369 . S
C394 C403 1.429 . S
C395 C393 1.419 . S
C395 C396 1.363 . S
C395 H398 0.929 . S
C396 C395 1.363 . S
C396 C402 1.428 . S
H397 C393 0.930 . S
H398 C395 0.929 . S
S399 N400 1.613 . S
S399 N401 1.610 . S
N400 S399 1.613 . S
N400 C403 1.350 . S
N401 S399 1.610 . S
N401 C402 1.351 . S
C402 C396 1.428 . S
C402 N401 1.351 . S
C402 C403 1.434 . S
C403 C394 1.429 . S
C403 N400 1.350 . S
C403 C402 1.434 . S
C404 C405 1.369 . S
C404 C406 1.419 . S
C404 H408 0.930 . S
C405 C404 1.369 . S
C405 C414 1.429 . S
C406 C404 1.419 . S
C406 C407 1.363 . S
C406 H409 0.929 . S
C407 C406 1.363 . S
C407 C413 1.428 . S
H408 C404 0.930 . S
H409 C406 0.929 . S
S410 N411 1.613 . S
S410 N412 1.610 . S
N411 S410 1.613 . S
N411 C414 1.350 . S
N412 S410 1.610 . S
N412 C413 1.351 . S
C413 C407 1.428 . S
C413 N412 1.351 . S
C413 C414 1.434 . S
C414 C405 1.429 . S
C414 N411 1.350 . S
C414 C413 1.434 . S
C415 C416 1.369 . S
C415 C417 1.419 . S
C415 H419 0.930 . S
C416 C415 1.369 . S
C416 C425 1.429 . S
C417 C415 1.419 . S
C417 C418 1.363 . S
C417 H420 0.929 . S
C418 C417 1.363 . S
C418 C424 1.428 . S
H419 C415 0.930 . S
H420 C417 0.929 . S
S421 N422 1.613 . S
S421 N423 1.610 . S
N422 S421 1.613 . S
N422 C425 1.350 . S
N423 S421 1.610 . S
N423 C424 1.351 . S
C424 C418 1.428 . S
C424 N423 1.351 . S
C424 C425 1.434 . S
C425 C416 1.429 . S
C425 N422 1.350 . S
C425 C424 1.434 . S
C426 C427 1.369 . S
C426 C428 1.419 . S
C426 H430 0.930 . S
C427 C426 1.369 . S
C427 C436 1.429 . S
C428 C426 1.419 . S
C428 C429 1.363 . S
C428 H431 0.929 . S
C429 C428 1.363 . S
C429 C435 1.428 . S
H430 C426 0.930 . S
H431 C428 0.929 . S
S432 N433 1.613 . S
S432 N434 1.610 . S
N433 S432 1.613 . S
N433 C436 1.350 . S
N434 S432 1.610 . S
N434 C435 1.351 . S
C435 C429 1.428 . S
C435 N434 1.351 . S
C435 C436 1.434 . S
C436 C427 1.429 . S
C436 N433 1.350 . S
C436 C435 1.434 . S
C437 C438 1.369 . S
C437 C439 1.419 . S
C437 H441 0.930 . S
C438 C437 1.369 . S
C438 C447 1.429 . S
C439 C437 1.419 . S
C439 C440 1.363 . S
C439 H442 0.929 . S
C440 C439 1.363 . S
C440 C446 1.428 . S
H441 C437 0.930 . S
H442 C439 0.929 . S
S443 N444 1.613 . S
S443 N445 1.610 . S
N444 S443 1.613 . S
N444 C447 1.350 . S
N445 S443 1.610 . S
N445 C446 1.351 . S
C446 C440 1.428 . S
C446 N445 1.351 . S
C446 C447 1.434 . S
C447 C438 1.429 . S
C447 N444 1.350 . S
C447 C446 1.434 . S
C448 C449 1.369 . S
C448 C450 1.419 . S
C448 H452 0.930 . S
C449 C448 1.369 . S
C449 C458 1.429 . S
C450 C448 1.419 . S
C450 C451 1.363 . S
C450 H453 0.929 . S
C451 C450 1.363 . S
C451 C457 1.428 . S
H452 C448 0.930 . S
H453 C450 0.929 . S
S454 N455 1.613 . S
S454 N456 1.610 . S
N455 S454 1.613 . S
N455 C458 1.350 . S
N456 S454 1.610 . S
N456 C457 1.351 . S
C457 C451 1.428 . S
C457 N456 1.351 . S
C457 C458 1.434 . S
C458 C449 1.429 . S
C458 N455 1.350 . S
C458 C457 1.434 . S
C459 C460 1.369 . S
C459 C461 1.419 . S
C459 H463 0.930 . S
C460 C459 1.369 . S
C460 C469 1.429 . S
C461 C459 1.419 . S
C461 C462 1.363 . S
C461 H464 0.929 . S
C462 C461 1.363 . S
C462 C468 1.428 . S
H463 C459 0.930 . S
H464 C461 0.929 . S
S465 N466 1.613 . S
S465 N467 1.610 . S
N466 S465 1.613 . S
N466 C469 1.350 . S
N467 S465 1.610 . S
N467 C468 1.351 . S
C468 C462 1.428 . S
C468 N467 1.351 . S
C468 C469 1.434 . S
C469 C460 1.429 . S
C469 N466 1.350 . S
C469 C468 1.434 . S
C470 C471 1.369 . S
C470 C472 1.419 . S
C470 H474 0.930 . S
C471 C470 1.369 . S
C471 C480 1.429 . S
C472 C470 1.419 . S
C472 C473 1.363 . S
C472 H475 0.929 . S
C473 C472 1.363 . S
C473 C479 1.428 . S
H474 C470 0.930 . S
H475 C472 0.929 . S
S476 N477 1.613 1_556 S
S476 N478 1.610 1_556 S
N477 S476 1.613 1_554 S
N477 C480 1.350 . S
N478 S476 1.610 1_554 S
N478 C479 1.351 . S
C479 C473 1.428 . S
C479 N478 1.351 . S
C479 C480 1.434 . S
C480 C471 1.429 . S
C480 N477 1.350 . S
C480 C479 1.434 . S
C481 C482 1.369 1_565 S
C481 C483 1.419 . S
C481 H485 0.930 . S
C482 C481 1.369 1_545 S
C482 C491 1.429 . S
C483 C481 1.419 . S
C483 C484 1.363 . S
C483 H486 0.929 . S
C484 C483 1.363 . S
C484 C490 1.428 . S
H485 C481 0.930 . S
H486 C483 0.929 . S
S487 N488 1.613 . S
S487 N489 1.610 . S
N488 S487 1.613 . S
N488 C491 1.350 . S
N489 S487 1.610 . S
N489 C490 1.351 1_545 S
C490 C484 1.428 . S
C490 N489 1.351 1_565 S
C490 C491 1.434 1_565 S
C491 C482 1.429 . S
C491 N488 1.350 . S
C491 C490 1.434 1_545 S
C492 C493 1.369 . S
C492 C494 1.419 1_554 S
C492 H496 0.930 . S
C493 C492 1.369 . S
C493 C502 1.429 1_554 S
C494 C492 1.419 1_556 S
C494 C495 1.363 . S
C494 H497 0.929 . S
C495 C494 1.363 . S
C495 C501 1.428 . S
H496 C492 0.930 . S
H497 C494 0.929 . S
S498 N499 1.613 . S
S498 N500 1.610 . S
N499 S498 1.613 . S
N499 C502 1.350 . S
N500 S498 1.610 . S
N500 C501 1.351 . S
C501 C495 1.428 . S
C501 N500 1.351 . S
C501 C502 1.434 . S
C502 C493 1.429 1_556 S
C502 N499 1.350 . S
C502 C501 1.434 . S
C503 C504 1.369 . S
C503 C505 1.419 . S
C503 H507 0.930 . S
C504 C503 1.369 . S
C504 C513 1.429 . S
C505 C503 1.419 . S
C505 C506 1.363 1_655 S
C505 H508 0.929 . S
C506 C505 1.363 1_455 S
C506 C512 1.428 . S
H507 C503 0.930 . S
H508 C505 0.929 . S
S509 N510 1.613 1_455 S
S509 N511 1.610 1_556 S
N510 S509 1.613 1_655 S
N510 C513 1.350 . S
N511 S509 1.610 1_554 S
N511 C512 1.351 1_554 S
C512 C506 1.428 . S
C512 N511 1.351 1_556 S
C512 C513 1.434 1_455 S
C513 C504 1.429 . S
C513 N510 1.350 . S
C513 C512 1.434 1_655 S
C514 C515 1.369 . S
C514 C516 1.419 . S
C514 H518 0.930 . S
C515 C514 1.369 . S
C515 C524 1.429 . S
C516 C514 1.419 . S
C516 C517 1.363 1_556 S
C516 H519 0.929 1_556 S
C517 C516 1.363 1_554 S
C517 C523 1.428 1_554 S
H518 C514 0.930 . S
H519 C516 0.929 1_554 S
S520 N521 1.613 . S
S520 N522 1.610 . S
N521 S520 1.613 . S
N521 C524 1.350 . S
N522 S520 1.610 . S
N522 C523 1.351 . S
C523 C517 1.428 1_556 S
C523 N522 1.351 . S
C523 C524 1.434 . S
C524 C515 1.429 . S
C524 N521 1.350 . S
C524 C523 1.434 . S
C525 C526 1.369 . S
C525 C527 1.419 . S
C525 H529 0.930 . S
C526 C525 1.369 . S
C526 C535 1.429 . S
C527 C525 1.419 . S
C527 C528 1.363 . S
C527 H530 0.929 . S
C528 C527 1.363 . S
C528 C534 1.428 . S
H529 C525 0.930 . S
H530 C527 0.929 . S
S531 N532 1.613 1_455 S
S531 N533 1.610 . S
N532 S531 1.613 1_655 S
N532 C535 1.350 . S
N533 S531 1.610 . S
N533 C534 1.351 1_455 S
C534 C528 1.428 . S
C534 N533 1.351 1_655 S
C534 C535 1.434 . S
C535 C526 1.429 . S
C535 N532 1.350 . S
C535 C534 1.434 . S
C536 C537 1.369 . S
C536 C538 1.419 . S
C536 H540 0.930 . S
C537 C536 1.369 . S
C537 C546 1.429 . S
C538 C536 1.419 . S
C538 C539 1.363 . S
C538 H541 0.929 . S
C539 C538 1.363 . S
C539 C545 1.428 . S
H540 C536 0.930 . S
H541 C538 0.929 . S
S542 N543 1.613 . S
S542 N544 1.610 . S
N543 S542 1.613 . S
N543 C546 1.350 . S
N544 S542 1.610 . S
N544 C545 1.351 . S
C545 C539 1.428 . S
C545 N544 1.351 . S
C545 C546 1.434 . S
C546 C537 1.429 . S
C546 N543 1.350 . S
C546 C545 1.434 . S
C547 C548 1.369 . S
C547 C549 1.419 . S
C547 H551 0.930 . S
C548 C547 1.369 . S
C548 C557 1.429 . S
C549 C547 1.419 . S
C549 C550 1.363 1_556 S
C549 H552 0.929 . S
C550 C549 1.363 1_554 S
C550 C556 1.428 . S
H551 C547 0.930 . S
H552 C549 0.929 . S
S553 N554 1.613 1_554 S
S553 N555 1.610 . S
N554 S553 1.613 1_556 S
N554 C557 1.350 . S
N555 S553 1.610 . S
N555 C556 1.351 . S
C556 C550 1.428 . S
C556 N555 1.351 . S
C556 C557 1.434 1_554 S
C557 C548 1.429 . S
C557 N554 1.350 . S
C557 C556 1.434 1_556 S
C558 C559 1.369 . S
C558 C560 1.419 . S
C558 H562 0.930 . S
C559 C558 1.369 . S
C559 C568 1.429 . S
C560 C558 1.419 . S
C560 C561 1.363 . S
C560 H563 0.929 . S
C561 C560 1.363 . S
C561 C567 1.428 . S
H562 C558 0.930 . S
H563 C560 0.929 . S
S564 N565 1.613 1_556 S
S564 N566 1.610 1_556 S
N565 S564 1.613 1_554 S
N565 C568 1.350 . S
N566 S564 1.610 1_554 S
N566 C567 1.351 . S
C567 C561 1.428 . S
C567 N566 1.351 . S
C567 C568 1.434 . S
C568 C559 1.429 . S
C568 N565 1.350 . S
C568 C567 1.434 . S
C569 C570 1.369 . S
C569 C571 1.419 . S
C569 H573 0.930 . S
C570 C569 1.369 . S
C570 C579 1.429 . S
C571 C569 1.419 . S
C571 C572 1.363 . S
C571 H574 0.929 . S
C572 C571 1.363 . S
C572 C578 1.428 . S
H573 C569 0.930 . S
H574 C571 0.929 . S
S575 N576 1.613 1_556 S
S575 N577 1.610 1_556 S
N576 S575 1.613 1_554 S
N576 C579 1.350 . S
N577 S575 1.610 1_554 S
N577 C578 1.351 . S
C578 C572 1.428 . S
C578 N577 1.351 . S
C578 C579 1.434 . S
C579 C570 1.429 . S
C579 N576 1.350 . S
C579 C578 1.434 . S
C580 C581 1.369 . S
C580 C582 1.419 . S
C580 H584 0.930 . S
C581 C580 1.369 . S
C581 C590 1.429 . S
C582 C580 1.419 . S
C582 C583 1.363 . S
C582 H585 0.929 . S
C583 C582 1.363 . S
C583 C589 1.428 . S
H584 C580 0.930 . S
H585 C582 0.929 . S
S586 N587 1.613 . S
S586 N588 1.610 1_556 S
N587 S586 1.613 . S
N587 C590 1.346 1_556 S
N588 S586 1.610 1_554 S
N588 C589 1.351 . S
C589 C583 1.428 . S
C589 N588 1.351 . S
C589 C590 1.434 . S
C590 C581 1.429 . S
C590 N587 1.346 1_554 S
C590 C589 1.434 . S
C591 C592 1.369 . S
C591 C593 1.419 . S
C591 H595 0.930 . S
C592 C591 1.369 . S
C592 C601 1.429 . S
C593 C591 1.419 . S
C593 C594 1.363 . S
C593 H596 0.929 . S
C594 C593 1.363 . S
C594 C600 1.428 . S
H595 C591 0.930 . S
H596 C593 0.929 . S
S597 N598 1.613 . S
S597 N599 1.610 . S
N598 S597 1.613 . S
N598 C601 1.350 . S
N599 S597 1.610 . S
N599 C600 1.351 . S
C600 C594 1.428 . S
C600 N599 1.351 . S
C600 C601 1.434 . S
C601 C592 1.429 . S
C601 N598 1.350 . S
C601 C600 1.434 . S
C602 C603 1.369 . S
C602 C604 1.419 . S
C602 H606 0.930 . S
C603 C602 1.369 . S
C603 C612 1.429 . S
C604 C602 1.419 . S
C604 C605 1.363 1_545 S
C604 H607 0.929 . S
C605 C604 1.363 1_565 S
C605 C611 1.428 . S
H606 C602 0.930 . S
H607 C604 0.929 . S
S608 N609 1.613 1_565 S
S608 N610 1.610 . S
N609 S608 1.613 1_545 S
N609 C612 1.350 . S
N610 S608 1.610 . S
N610 C611 1.351 . S
C611 C605 1.428 . S
C611 N610 1.351 . S
C611 C612 1.434 1_565 S
C612 C603 1.429 . S
C612 N609 1.350 . S
C612 C611 1.434 1_545 S
C613 C614 1.369 . S
C613 C615 1.419 . S
C613 H617 0.930 . S
C614 C613 1.369 . S
C614 C623 1.429 1_655 S
C615 C613 1.419 . S
C615 C616 1.363 1_655 S
C615 H618 0.929 . S
C616 C615 1.363 1_455 S
C616 C622 1.428 . S
H617 C613 0.930 . S
H618 C615 0.929 . S
S619 N620 1.613 . S
S619 N621 1.610 . S
N620 S619 1.613 . S
N620 C623 1.350 . S
N621 S619 1.610 . S
N621 C622 1.351 . S
C622 C616 1.428 . S
C622 N621 1.351 . S
C622 C623 1.434 . S
C623 C614 1.429 1_455 S
C623 N620 1.350 . S
C623 C622 1.434 . S
C624 C625 1.369 . S
C624 C626 1.419 . S
C624 H628 0.930 . S
C625 C624 1.369 . S
C625 C634 1.429 . S
C626 C624 1.419 . S
C626 C627 1.363 . S
C626 H629 0.929 . S
C627 C626 1.363 . S
C627 C633 1.428 . S
H628 C624 0.930 . S
H629 C626 0.929 . S
S630 N631 1.613 . S
S630 N632 1.610 . S
N631 S630 1.613 . S
N631 C634 1.350 . S
N632 S630 1.610 . S
N632 C633 1.351 . S
C633 C627 1.428 . S
C633 N632 1.351 . S
C633 C634 1.434 . S
C634 C625 1.429 . S
C634 N631 1.350 . S
C634 C633 1.434 . S
C635 C636 1.369 1_545 S
C635 C637 1.419 . S
C635 H639 0.931 1_545 S
C636 C635 1.369 1_565 S
C636 C645 1.429 1_565 S
C637 C635 1.419 . S
C637 C638 1.363 . S
C637 H640 0.929 . S
C638 C637 1.363 . S
C638 C644 1.428 . S
H639 C635 0.931 1_565 S
H640 C637 0.929 . S
S641 N642 1.613 1_545 S
S641 N643 1.610 . S
N642 S641 1.613 1_565 S
N642 C645 1.350 1_565 S
N643 S641 1.610 . S
N643 C644 1.351 . S
C644 C638 1.428 . S
C644 N643 1.351 . S
C644 C645 1.434 . S
C645 C636 1.429 1_545 S
C645 N642 1.350 1_545 S
C645 C644 1.434 . S
C646 C647 1.369 . S
C646 C648 1.419 . S
C646 H650 0.930 . S
C647 C646 1.369 . S
C647 C656 1.429 . S
C648 C646 1.419 . S
C648 C649 1.363 1_655 S
C648 H651 0.918 . S
C649 C648 1.363 1_455 S
C649 C655 1.428 . S
H650 C646 0.930 . S
H651 C648 0.918 . S
S652 N653 1.613 1_455 S
S652 N654 1.610 . S
N653 S652 1.613 1_655 S
N653 C656 1.350 . S
N654 S652 1.610 . S
N654 C655 1.351 . S
C655 C649 1.428 . S
C655 N654 1.351 . S
C655 C656 1.434 1_455 S
C656 C647 1.429 . S
C656 N653 1.350 . S
C656 C655 1.434 1_655 S
C361 C17 3.637 . S
C363 C2 3.635 . S
C372 C42 3.718 . S
C374 C57 3.719 . S
C383 C97 3.753 . S
C385 C82 3.754 . S
C394 C122 3.635 . S
C396 C137 3.636 1_556 S
C405 C177 3.719 . S
C407 C162 3.718 1_556 S
C416 C202 3.753 . S
C418 C217 3.754 1_556 S
C427 C248 0.262 . S
C429 C269 0.274 . S
C438 C309 0.434 . S
C440 C288 0.416 . S
C449 C328 0.541 . S
C451 C349 0.565 . S
C460 C231 1.568 . S
C462 C8 1.557 . S
C471 C71 2.576 . S
C473 C151 2.606 . S
C482 C88 1.083 . S
C484 C168 1.120 . S
C493 C111 3.136 . S
C495 C252 3.207 . S
C504 C282 1.427 . S
C506 C31 1.384 . S
C515 C332 2.024 . S
C517 C48 1.887 . S
C526 C337 1.123 . S
C528 C29 1.032 . S
C537 C52 2.435 1_556 S
C539 C257 2.441 . S
C548 C311 2.936 . S
C550 C109 2.811 . S
C559 C92 1.568 . S
C561 C149 1.555 . S
C570 C172 2.575 . S
C572 C12 2.606 . S
C581 C69 1.120 . S
C583 C229 1.084 . S
C592 C322 1.117 . S
C594 C128 1.042 . S
C603 C242 2.439 . S
C605 C191 2.436 . S
C614 C292 2.940 . S
C616 C208 2.807 . S
C625 C271 3.205 . S
C627 C212 3.140 . S
C636 C132 1.378 . S
C638 C297 1.425 . S
C647 C351 2.026 . S
C649 C189 1.885 . S
