# Generated by pormake.
# Topology gis, (4)-cn, num edge types: 1
# Building blocks:
#     Node 0, Type 0, BuildingBlock: KUFVIS_clean_sbu_0, # of connection points: 4
#     Node 1, Type 0, BuildingBlock: KUFVIS_clean_sbu_0, # of connection points: 4
#     Node 2, Type 0, BuildingBlock: KUFVIS_clean_sbu_0, # of connection points: 4
#     Node 3, Type 0, BuildingBlock: KUFVIS_clean_sbu_0, # of connection points: 4
#     Node 4, Type 0, BuildingBlock: KUFVIS_clean_sbu_0, # of connection points: 4
#     Node 5, Type 0, BuildingBlock: KUFVIS_clean_sbu_0, # of connection points: 4
#     Node 6, Type 0, BuildingBlock: KUFVIS_clean_sbu_0, # of connection points: 4
#     Node 7, Type 0, BuildingBlock: KUFVIS_clean_sbu_0, # of connection points: 4
#     Node 8, Type 0, BuildingBlock: KUFVIS_clean_sbu_0, # of connection points: 4
#     Node 9, Type 0, BuildingBlock: KUFVIS_clean_sbu_0, # of connection points: 4
#     Node 10, Type 0, BuildingBlock: KUFVIS_clean_sbu_0, # of connection points: 4
#     Node 11, Type 0, BuildingBlock: KUFVIS_clean_sbu_0, # of connection points: 4
#     Node 12, Type 0, BuildingBlock: KUFVIS_clean_sbu_0, # of connection points: 4
#     Node 13, Type 0, BuildingBlock: KUFVIS_clean_sbu_0, # of connection points: 4
#     Node 14, Type 0, BuildingBlock: KUFVIS_clean_sbu_0, # of connection points: 4
#     Node 15, Type 0, BuildingBlock: KUFVIS_clean_sbu_0, # of connection points: 4
#     Edge 16, Type (0, 0), BuildingBlock: EZIPEK_clean_linker_0, # of connection points: 2
#     Edge 17, Type (0, 0), BuildingBlock: EZIPEK_clean_linker_0, # of connection points: 2
#     Edge 18, Type (0, 0), BuildingBlock: EZIPEK_clean_linker_0, # of connection points: 2
#     Edge 19, Type (0, 0), BuildingBlock: EZIPEK_clean_linker_0, # of connection points: 2
#     Edge 20, Type (0, 0), BuildingBlock: EZIPEK_clean_linker_0, # of connection points: 2
#     Edge 21, Type (0, 0), BuildingBlock: EZIPEK_clean_linker_0, # of connection points: 2
#     Edge 22, Type (0, 0), BuildingBlock: EZIPEK_clean_linker_0, # of connection points: 2
#     Edge 23, Type (0, 0), BuildingBlock: EZIPEK_clean_linker_0, # of connection points: 2
#     Edge 24, Type (0, 0), BuildingBlock: EZIPEK_clean_linker_0, # of connection points: 2
#     Edge 25, Type (0, 0), BuildingBlock: EZIPEK_clean_linker_0, # of connection points: 2
#     Edge 26, Type (0, 0), BuildingBlock: EZIPEK_clean_linker_0, # of connection points: 2
#     Edge 27, Type (0, 0), BuildingBlock: EZIPEK_clean_linker_0, # of connection points: 2
#     Edge 28, Type (0, 0), BuildingBlock: EZIPEK_clean_linker_0, # of connection points: 2
#     Edge 29, Type (0, 0), BuildingBlock: EZIPEK_clean_linker_0, # of connection points: 2
#     Edge 30, Type (0, 0), BuildingBlock: EZIPEK_clean_linker_0, # of connection points: 2
#     Edge 31, Type (0, 0), BuildingBlock: EZIPEK_clean_linker_0, # of connection points: 2
#     Edge 32, Type (0, 0), BuildingBlock: EZIPEK_clean_linker_0, # of connection points: 2
#     Edge 33, Type (0, 0), BuildingBlock: EZIPEK_clean_linker_0, # of connection points: 2
#     Edge 34, Type (0, 0), BuildingBlock: EZIPEK_clean_linker_0, # of connection points: 2
#     Edge 35, Type (0, 0), BuildingBlock: EZIPEK_clean_linker_0, # of connection points: 2
#     Edge 36, Type (0, 0), BuildingBlock: EZIPEK_clean_linker_0, # of connection points: 2
#     Edge 37, Type (0, 0), BuildingBlock: EZIPEK_clean_linker_0, # of connection points: 2
#     Edge 38, Type (0, 0), BuildingBlock: EZIPEK_clean_linker_0, # of connection points: 2
#     Edge 39, Type (0, 0), BuildingBlock: EZIPEK_clean_linker_0, # of connection points: 2
#     Edge 40, Type (0, 0), BuildingBlock: EZIPEK_clean_linker_0, # of connection points: 2
#     Edge 41, Type (0, 0), BuildingBlock: EZIPEK_clean_linker_0, # of connection points: 2
#     Edge 42, Type (0, 0), BuildingBlock: EZIPEK_clean_linker_0, # of connection points: 2
#     Edge 43, Type (0, 0), BuildingBlock: EZIPEK_clean_linker_0, # of connection points: 2
#     Edge 44, Type (0, 0), BuildingBlock: EZIPEK_clean_linker_0, # of connection points: 2
#     Edge 45, Type (0, 0), BuildingBlock: EZIPEK_clean_linker_0, # of connection points: 2
#     Edge 46, Type (0, 0), BuildingBlock: EZIPEK_clean_linker_0, # of connection points: 2
#     Edge 47, Type (0, 0), BuildingBlock: EZIPEK_clean_linker_0, # of connection points: 2
# Relax obj value: 0.089
# Max RMSD: 0.143
# Mean RMSD: 0.139
data_MOF--net-gis--node1-KUFVIS_clean_sbu_0--edge1-EZIPEK_clean_linker_0
_symmetry_space_group_name_H-M    P1
_symmetry_Int_Tables_number       1
_symmetry_cell_setting            triclinic
loop_
_symmetry_equiv_pos_as_xyz
'x, y, z'
_cell_length_a     36.705365
_cell_length_b     39.188759
_cell_length_c     28.05591
_cell_angle_alpha  90.660775
_cell_angle_beta   90.332564
_cell_angle_gamma 90.008164
loop_
_atom_site_label
_atom_site_type_symbol
_atom_site_fract_x
_atom_site_fract_y
_atom_site_fract_z
_atom_type_partial_charge
Mn0 Mn 0.14872 0.61053 0.10026 0.0
Mn1 Mn 0.12411 0.64772 0.20462 0.0
C2 C 0.08797 0.62388 0.11349 0.0
C3 C 0.15931 0.5606 0.05522 0.0
C4 C 0.15398 0.68811 0.12171 0.0
O5 O 0.19407 0.60329 0.14169 0.0
O6 O 0.17571 0.6312 0.20778 0.0
C7 C 0.1266 0.58456 0.26171 0.0
N8 N 0.10729 0.61099 0.24327 0.0
C9 C 0.05147 0.58899 0.27547 0.0
C10 C 0.07069 0.56106 0.29362 0.0
C11 C 0.1085 0.55898 0.287 0.0
C12 C 0.07101 0.61352 0.25017 0.0
H13 H 0.15559 0.58324 0.25758 0.0
C14 C 0.19962 0.61451 0.18397 0.0
O15 O 0.17343 0.58965 0.04311 0.0
O16 O 0.14057 0.56037 0.09415 0.0
N17 N 0.07525 0.66451 0.20895 0.0
C18 C 0.06261 0.69626 0.19864 0.0
C19 C 0.02588 0.70415 0.20736 0.0
C20 C 0.00282 0.6796 0.2272 0.0
C21 C 0.01723 0.64829 0.24136 0.0
C22 C 0.05416 0.6421 0.23265 0.0
H23 H 0.0803 0.71517 0.18323 0.0
O24 O 0.09994 0.61853 0.07078 0.0
O25 O 0.11184 0.62024 0.14782 0.0
O26 O 0.16093 0.6621 0.09496 0.0
O27 O 0.13985 0.68603 0.16345 0.0
C28 C 0.99668 0.62347 0.2652 0.0
C29 C 0.01379 0.59373 0.28212 0.0
H30 H 0.05681 0.54139 0.31336 0.0
H31 H 0.1237 0.53782 0.30156 0.0
H32 H 0.01506 0.72874 0.19811 0.0
H33 H 0.97424 0.68517 0.23212 0.0
H34 H 0.96791 0.62738 0.27172 0.0
H35 H 0.9979 0.57507 0.30118 0.0
Mn36 Mn 0.65708 0.89035 0.38133 0.0
Mn37 Mn 0.62643 0.86405 0.48746 0.0
C38 C 0.65898 0.83192 0.39643 0.0
C39 C 0.70439 0.90823 0.33032 0.0
C40 C 0.57667 0.88768 0.40786 0.0
O41 O 0.6612 0.93367 0.42122 0.0
O42 O 0.64109 0.91363 0.49136 0.0
C43 C 0.69031 0.87001 0.55209 0.0
N44 N 0.66284 0.85109 0.53266 0.0
C45 C 0.67222 0.8065 0.58986 0.0
C46 C 0.701 0.82537 0.61003 0.0
C47 C 0.71021 0.85719 0.59088 0.0
C48 C 0.65373 0.82045 0.55091 0.0
H49 H 0.69654 0.89479 0.53848 0.0
C50 C 0.65312 0.93775 0.46499 0.0
O51 O 0.67051 0.91539 0.32186 0.0
O52 O 0.71024 0.89072 0.36851 0.0
N53 N 0.61115 0.81761 0.48951 0.0
C54 C 0.58538 0.80136 0.46257 0.0
C55 C 0.5743 0.76842 0.47503 0.0
C56 C 0.58943 0.75278 0.51545 0.0
C57 C 0.61606 0.77005 0.54247 0.0
C58 C 0.62645 0.80258 0.52774 0.0
H59 H 0.57313 0.81365 0.43215 0.0
O60 O 0.6533 0.84425 0.35443 0.0
O61 O 0.65898 0.8547 0.43147 0.0
O62 O 0.6012 0.89517 0.37798 0.0
O63 O 0.58389 0.87584 0.44862 0.0
C64 C 0.63315 0.75611 0.58294 0.0
C65 C 0.6614 0.77423 0.60643 0.0
H66 H 0.71626 0.81565 0.64012 0.0
H67 H 0.73222 0.87203 0.60643 0.0
H68 H 0.55371 0.75549 0.45392 0.0
H69 H 0.58064 0.72746 0.52528 0.0
H70 H 0.62551 0.73108 0.59546 0.0
H71 H 0.67498 0.7629 0.63676 0.0
Mn72 Mn 0.36919 0.39435 0.5772 0.0
Mn73 Mn 0.38607 0.36999 0.68837 0.0
C74 C 0.43032 0.3772 0.59474 0.0
C75 C 0.36121 0.44456 0.53126 0.0
C76 C 0.33633 0.33144 0.61826 0.0
O77 O 0.32565 0.40887 0.61807 0.0
O78 O 0.35743 0.41257 0.68508 0.0
C79 C 0.43409 0.42777 0.71693 0.0
N80 N 0.42786 0.39369 0.71418 0.0
C81 C 0.49111 0.38421 0.75748 0.0
C82 C 0.49559 0.42048 0.75252 0.0
C83 C 0.46725 0.44093 0.73456 0.0
C84 C 0.45198 0.37142 0.7313 0.0
H85 H 0.41396 0.44538 0.70349 0.0
C86 C 0.32736 0.41551 0.66251 0.0
O87 O 0.34487 0.41614 0.52007 0.0
O88 O 0.38261 0.44349 0.56792 0.0
N89 N 0.41132 0.32715 0.70026 0.0
C90 C 0.40205 0.29486 0.68656 0.0
C91 C 0.41548 0.26579 0.71027 0.0
C92 C 0.4387 0.26747 0.75007 0.0
C93 C 0.45457 0.29824 0.76339 0.0
C94 C 0.43702 0.33212 0.73353 0.0
H95 H 0.38527 0.29086 0.65569 0.0
O96 O 0.41931 0.38092 0.55105 0.0
O97 O 0.40427 0.38036 0.62522 0.0
O98 O 0.34892 0.34482 0.57991 0.0
O99 O 0.34426 0.34368 0.65997 0.0
C100 C 0.49346 0.29707 0.79682 0.0
C101 C 0.52037 0.33243 0.8041 0.0
H102 H 0.51954 0.43442 0.76401 0.0
H103 H 0.47125 0.46829 0.73385 0.0
H104 H 0.40878 0.24086 0.69612 0.0
H105 H 0.44819 0.24407 0.76599 0.0
H106 H 0.50214 0.27325 0.81231 0.0
H107 H 0.54482 0.33015 0.82635 0.0
Mn108 Mn 0.85063 0.10504 0.9071 0.0
Mn109 Mn 0.87254 0.14018 0.80166 0.0
C110 C 0.91039 0.121 0.89428 0.0
C111 C 0.84115 0.05537 0.95071 0.0
C112 C 0.83831 0.18033 0.88328 0.0
O113 O 0.80603 0.09567 0.86577 0.0
O114 O 0.82433 0.11703 0.79562 0.0
C115 C 0.87693 0.08248 0.73241 0.0
N116 N 0.89445 0.10817 0.75636 0.0
C117 C 0.94452 0.10394 0.68942 0.0
C118 C 0.92365 0.07791 0.66923 0.0
C119 C 0.89122 0.06721 0.69075 0.0
C120 C 0.92676 0.11973 0.74109 0.0
H121 H 0.85075 0.07377 0.74445 0.0
C122 C 0.80108 0.10173 0.82173 0.0
O123 O 0.82633 0.08412 0.96371 0.0
O124 O 0.86032 0.05541 0.91216 0.0
N125 N 0.91785 0.16416 0.8052 0.0
C126 C 0.92385 0.1947 0.82755 0.0
C127 C 0.9576 0.21092 0.82644 0.0
C128 C 0.98653 0.19874 0.79927 0.0
C129 C 0.98156 0.17107 0.76558 0.0
C130 C 0.94246 0.15047 0.77585 0.0
H131 H 0.90316 0.20675 0.84885 0.0
O132 O 0.89846 0.1152 0.93677 0.0
O133 O 0.88742 0.11464 0.85899 0.0
O134 O 0.83649 0.15643 0.91398 0.0
O135 O 0.84977 0.17535 0.84114 0.0
C136 C 0.01121 0.14757 0.68582 0.0
C137 C 0.98407 0.11581 0.66225 0.0
H138 H 0.93255 0.0655 0.63665 0.0
H139 H 0.87582 0.04687 0.67367 0.0
H140 H 0.96146 0.23382 0.84786 0.0
H141 H 0.01106 0.21346 0.8036 0.0
H142 H 0.03576 0.1547 0.66638 0.0
H143 H 0.99212 0.1033 0.6294 0.0
Mn144 Mn 0.17415 0.39289 0.8563 0.0
Mn145 Mn 0.1496 0.3562 0.96016 0.0
C146 C 0.17636 0.33354 0.86135 0.0
C147 C 0.21571 0.41716 0.80442 0.0
C148 C 0.09451 0.37734 0.8855 0.0
O149 O 0.17368 0.43352 0.90164 0.0
O150 O 0.15435 0.40696 0.9671 0.0
C151 C 0.21905 0.37272 0.0096 0.0
N152 N 0.19327 0.34939 0.99639 0.0
C153 C 0.22343 0.30534 0.04071 0.0
C154 C 0.25016 0.32895 0.05501 0.0
C155 C 0.24807 0.36274 0.03911 0.0
C156 C 0.19544 0.31669 0.01069 0.0
H157 H 0.21745 0.39879 0.99787 0.0
C158 C 0.16397 0.43385 0.94499 0.0
O159 O 0.18119 0.42375 0.80137 0.0
O160 O 0.22661 0.39949 0.8407 0.0
N161 N 0.14389 0.30762 0.96345 0.0
C162 C 0.11522 0.2882 0.94846 0.0
C163 C 0.11351 0.25358 0.96051 0.0
C164 C 0.14033 0.23957 0.99021 0.0
C165 C 0.16843 0.26045 0.00784 0.0
C166 C 0.16904 0.29465 0.99374 0.0
H167 H 0.09315 0.29936 0.92926 0.0
O168 O 0.17674 0.34952 0.82137 0.0
O169 O 0.17748 0.35337 0.89962 0.0
O170 O 0.11772 0.3907 0.85736 0.0
O171 O 0.10339 0.36223 0.92417 0.0
C172 C 0.19582 0.24866 0.03897 0.0
C173 C 0.22351 0.27101 0.05502 0.0
H174 H 0.27245 0.32138 0.07807 0.0
H175 H 0.26864 0.38111 0.04986 0.0
H176 H 0.09102 0.23799 0.94803 0.0
H177 H 0.13876 0.21292 0.99982 0.0
H178 H 0.19606 0.22234 0.05035 0.0
H179 H 0.24468 0.26155 0.07844 0.0
Mn180 Mn 0.85511 0.87981 0.10103 0.0
Mn181 Mn 0.88208 0.85379 0.20653 0.0
C182 C 0.91816 0.86642 0.10758 0.0
C183 C 0.84291 0.93048 0.05982 0.0
C184 C 0.82989 0.81493 0.1388 0.0
O185 O 0.81316 0.88882 0.14875 0.0
O186 O 0.85294 0.89622 0.20644 0.0
C187 C 0.92932 0.91307 0.23035 0.0
N188 N 0.92485 0.87874 0.22671 0.0
C189 C 0.99288 0.87204 0.25618 0.0
C190 C 0.99459 0.90857 0.25223 0.0
C191 C 0.96329 0.92772 0.24162 0.0
C192 C 0.95215 0.85745 0.23683 0.0
H193 H 0.90695 0.92997 0.22233 0.0
C194 C 0.82017 0.89692 0.19194 0.0
O195 O 0.82643 0.90219 0.04841 0.0
O196 O 0.86491 0.9295 0.09581 0.0
N197 N 0.9094 0.81142 0.21534 0.0
C198 C 0.89648 0.77891 0.21076 0.0
C199 C 0.91296 0.75072 0.23298 0.0
C200 C 0.94449 0.75333 0.26107 0.0
C201 C 0.96246 0.78424 0.26611 0.0
C202 C 0.93992 0.81735 0.24046 0.0
H203 H 0.87259 0.77385 0.19032 0.0
O204 O 0.9031 0.87137 0.06641 0.0
O205 O 0.89493 0.86488 0.14189 0.0
O206 O 0.83961 0.83018 0.10074 0.0
O207 O 0.83924 0.826 0.18098 0.0
C208 C 0.00468 0.78471 0.29164 0.0
C209 C 0.02992 0.82137 0.29513 0.0
H210 H 0.01872 0.9236 0.25947 0.0
H211 H 0.96547 0.95528 0.24165 0.0
H212 H 0.9005 0.72584 0.22833 0.0
H213 H 0.95569 0.7308 0.27741 0.0
H214 H 0.01598 0.76136 0.30563 0.0
H215 H 0.05652 0.82016 0.31284 0.0
Mn216 Mn 0.36604 0.62898 0.3949 0.0
Mn217 Mn 0.3953 0.65701 0.29152 0.0
C218 C 0.42947 0.64248 0.392 0.0
C219 C 0.35421 0.57553 0.43249 0.0
C220 C 0.34326 0.69676 0.35849 0.0
O221 O 0.32424 0.62196 0.3456 0.0
O222 O 0.36305 0.61639 0.28701 0.0
C223 C 0.44033 0.59575 0.27229 0.0
N224 N 0.43684 0.6302 0.27263 0.0
C225 C 0.50556 0.63436 0.24594 0.0
C226 C 0.50586 0.59788 0.25218 0.0
C227 C 0.47391 0.57989 0.26303 0.0
C228 C 0.46489 0.65039 0.26206 0.0
H229 H 0.41742 0.57989 0.28154 0.0
C230 C 0.33036 0.61645 0.30154 0.0
O231 O 0.33687 0.60321 0.44457 0.0
O232 O 0.37671 0.57884 0.39782 0.0
N233 N 0.4253 0.69768 0.28444 0.0
C234 C 0.4166 0.73068 0.29476 0.0
C235 C 0.43471 0.7585 0.27381 0.0
C236 C 0.46295 0.75481 0.2409 0.0
C237 C 0.47786 0.72293 0.23177 0.0
C238 C 0.45405 0.69058 0.25683 0.0
H239 H 0.3964 0.7361 0.32094 0.0
O240 O 0.41352 0.63638 0.43201 0.0
O241 O 0.40687 0.64472 0.35657 0.0
O242 O 0.35018 0.67955 0.39643 0.0
O243 O 0.35409 0.68663 0.31663 0.0
C244 C 0.52034 0.7221 0.20811 0.0
C245 C 0.54607 0.68302 0.2069 0.0
H246 H 0.52954 0.58192 0.24696 0.0
H247 H 0.47534 0.55235 0.26525 0.0
H248 H 0.42775 0.7841 0.28488 0.0
H249 H 0.47629 0.77742 0.22768 0.0
H250 H 0.53772 0.70416 0.20432 0.0
H251 H 0.57651 0.67898 0.19073 0.0
Mn252 Mn 0.6277 0.10918 0.62199 0.0
Mn253 Mn 0.59046 0.14131 0.72293 0.0
C254 C 0.56571 0.12125 0.62482 0.0
C255 C 0.64453 0.06241 0.57454 0.0
C256 C 0.63231 0.18519 0.65346 0.0
O257 O 0.66739 0.0994 0.67081 0.0
O258 O 0.64014 0.12234 0.73523 0.0
C259 C 0.58275 0.0747 0.77066 0.0
N260 N 0.56748 0.10403 0.75429 0.0
C261 C 0.50764 0.08563 0.77746 0.0
C262 C 0.52278 0.05537 0.79491 0.0
C263 C 0.56049 0.04987 0.79143 0.0
C264 C 0.53118 0.10944 0.75713 0.0
H265 H 0.61166 0.07016 0.76766 0.0
C266 C 0.66702 0.10714 0.715 0.0
O267 O 0.65941 0.09215 0.5689 0.0
O268 O 0.62086 0.05957 0.60829 0.0
N269 N 0.54256 0.16024 0.7178 0.0
C270 C 0.5326 0.19173 0.70223 0.0
C271 C 0.4957 0.20111 0.70268 0.0
C272 C 0.46964 0.17863 0.72108 0.0
C273 C 0.4809 0.14739 0.74003 0.0
C274 C 0.51805 0.13936 0.73826 0.0
H275 H 0.55256 0.20931 0.68862 0.0
O276 O 0.58256 0.1189 0.58447 0.0
O277 O 0.58556 0.11621 0.66266 0.0
O278 O 0.64129 0.16061 0.6253 0.0
O279 O 0.61234 0.18093 0.69018 0.0
C280 C 0.45672 0.12386 0.76044 0.0
C281 C 0.47007 0.09295 0.77902 0.0
H282 H 0.5057 0.03611 0.81083 0.0
H283 H 0.57236 0.02649 0.80457 0.0
H284 H 0.4874 0.22552 0.68865 0.0
H285 H 0.44114 0.18576 0.72103 0.0
H286 H 0.42779 0.12922 0.76189 0.0
H287 H 0.45119 0.07496 0.79439 0.0
Mn288 Mn 0.87806 0.39653 0.90679 0.0
Mn289 Mn 0.89732 0.36578 0.79683 0.0
C290 C 0.93788 0.38298 0.88756 0.0
C291 C 0.86974 0.44389 0.95694 0.0
C292 C 0.86578 0.32161 0.87496 0.0
O293 O 0.83177 0.40762 0.86967 0.0
O294 O 0.84741 0.38616 0.79797 0.0
C295 C 0.90045 0.4332 0.75033 0.0
N296 N 0.91695 0.40342 0.76245 0.0
C297 C 0.97354 0.42167 0.72807 0.0
C298 C 0.95718 0.45266 0.71566 0.0
C299 C 0.92043 0.45841 0.72677 0.0
C300 C 0.95231 0.39768 0.75201 0.0
H301 H 0.87229 0.43761 0.75853 0.0
C302 C 0.82484 0.40098 0.82603 0.0
O303 O 0.85566 0.41444 0.96716 0.0
O304 O 0.88799 0.4458 0.91773 0.0
N305 N 0.94418 0.34531 0.78865 0.0
C306 C 0.95385 0.31223 0.79605 0.0
C307 C 0.98896 0.30122 0.78354 0.0
C308 C 0.0133 0.32405 0.76228 0.0
C309 C 0.00197 0.35731 0.75236 0.0
C310 C 0.96652 0.36667 0.76509 0.0
H311 H 0.93504 0.2945 0.81187 0.0
O312 O 0.92784 0.38558 0.93162 0.0
O313 O 0.91255 0.38883 0.85593 0.0
O314 O 0.86336 0.34547 0.90654 0.0
O315 O 0.8785 0.32613 0.83291 0.0
C316 C 0.0241 0.38121 0.72906 0.0
C317 C 0.00996 0.4135 0.71722 0.0
H318 H 0.97248 0.47209 0.69727 0.0
H319 H 0.90749 0.48219 0.71711 0.0
H320 H 0.99731 0.27534 0.79063 0.0
H321 H 0.04044 0.31578 0.75296 0.0
H322 H 0.05183 0.37482 0.71942 0.0
H323 H 0.02709 0.43159 0.69893 0.0
Mn324 Mn 0.32927 0.12737 0.63037 0.0
Mn325 Mn 0.35384 0.1561 0.52289 0.0
C326 C 0.32248 0.186 0.61711 0.0
C327 C 0.28364 0.10558 0.67927 0.0
C328 C 0.40856 0.13792 0.60054 0.0
O329 O 0.33582 0.08387 0.59128 0.0
O330 O 0.34221 0.10612 0.51819 0.0
C331 C 0.28596 0.14794 0.46668 0.0
N332 N 0.31404 0.16782 0.48243 0.0
C333 C 0.29799 0.21263 0.42831 0.0
C334 C 0.26878 0.19269 0.41147 0.0
C335 C 0.2626 0.1603 0.43098 0.0
C336 C 0.3202 0.19901 0.46401 0.0
H337 H 0.28176 0.12276 0.48097 0.0
C338 C 0.33872 0.08071 0.54628 0.0
O339 O 0.31786 0.10185 0.69019 0.0
O340 O 0.27661 0.11804 0.63767 0.0
N341 N 0.36607 0.20342 0.52105 0.0
C342 C 0.38949 0.22184 0.54893 0.0
C343 C 0.39696 0.25585 0.53736 0.0
C344 C 0.38001 0.27061 0.49753 0.0
C345 C 0.35447 0.2516 0.47092 0.0
C346 C 0.34791 0.21794 0.48455 0.0
H347 H 0.40207 0.21063 0.57994 0.0
O348 O 0.32105 0.17231 0.65844 0.0
O349 O 0.32514 0.16352 0.58177 0.0
O350 O 0.38578 0.13346 0.63452 0.0
O351 O 0.39811 0.14449 0.55849 0.0
C352 C 0.3339 0.26517 0.433 0.0
C353 C 0.30553 0.24575 0.41188 0.0
H354 H 0.25073 0.20211 0.38393 0.0
H355 H 0.24012 0.14479 0.41818 0.0
H356 H 0.41557 0.27058 0.55927 0.0
H357 H 0.3857 0.29695 0.48891 0.0
H358 H 0.33858 0.29103 0.42126 0.0
H359 H 0.28906 0.25688 0.38392 0.0
Mn360 Mn 0.64946 0.61495 0.41426 0.0
Mn361 Mn 0.62559 0.64921 0.30879 0.0
C362 C 0.58844 0.62823 0.40021 0.0
C363 C 0.66109 0.56762 0.46122 0.0
C364 C 0.66415 0.68899 0.38841 0.0
O365 O 0.69322 0.60532 0.37211 0.0
O366 O 0.67287 0.62496 0.30125 0.0
C367 C 0.61944 0.59493 0.23476 0.0
N368 N 0.60241 0.61934 0.26148 0.0
C369 C 0.55467 0.623 0.19074 0.0
C370 C 0.57487 0.5977 0.16805 0.0
C371 C 0.60584 0.5837 0.19006 0.0
C372 C 0.57136 0.6336 0.24582 0.0
H373 H 0.64487 0.58431 0.24683 0.0
C374 C 0.69676 0.61032 0.32753 0.0
O375 O 0.67544 0.59708 0.47139 0.0
O376 O 0.641 0.56537 0.4231 0.0
N377 N 0.58078 0.67338 0.3153 0.0
C378 C 0.57493 0.70149 0.34312 0.0
C379 C 0.54152 0.71826 0.34356 0.0
C380 C 0.51302 0.70931 0.31298 0.0
C381 C 0.51797 0.68469 0.27489 0.0
C382 C 0.55596 0.66209 0.28399 0.0
H383 H 0.59539 0.71066 0.36772 0.0
O384 O 0.60123 0.62467 0.44305 0.0
O385 O 0.61179 0.62262 0.36551 0.0
O386 O 0.6644 0.66596 0.42005 0.0
O387 O 0.65036 0.68368 0.34751 0.0
C388 C 0.49011 0.66967 0.19067 0.0
C389 C 0.51664 0.63903 0.16333 0.0
H390 H 0.56656 0.5884 0.13318 0.0
H391 H 0.62083 0.56413 0.17096 0.0
H392 H 0.53755 0.73899 0.36885 0.0
H393 H 0.48881 0.72407 0.31899 0.0
H394 H 0.46647 0.67941 0.17121 0.0
H395 H 0.50904 0.6298 0.12818 0.0
Mn396 Mn 0.13556 0.90487 0.10043 0.0
Mn397 Mn 0.11303 0.85811 0.19672 0.0
C398 C 0.07576 0.88635 0.10886 0.0
C399 C 0.1437 0.95823 0.06483 0.0
C400 C 0.15171 0.82817 0.1097 0.0
O401 O 0.17825 0.91276 0.14581 0.0
O402 O 0.15977 0.88203 0.20875 0.0
C403 C 0.10709 0.90836 0.27644 0.0
N404 N 0.09037 0.88464 0.24783 0.0
C405 C 0.0409 0.88029 0.31528 0.0
C406 C 0.06115 0.90446 0.34049 0.0
C407 C 0.09285 0.91849 0.321 0.0
C408 C 0.05875 0.87049 0.26093 0.0
H409 H 0.13259 0.91954 0.26595 0.0
C410 C 0.18193 0.90229 0.18841 0.0
O411 O 0.16007 0.93112 0.04869 0.0
O412 O 0.12379 0.95455 0.10244 0.0
N413 N 0.06803 0.83405 0.1877 0.0
C414 C 0.0621 0.80679 0.15827 0.0
C415 C 0.02847 0.79013 0.15619 0.0
C416 C -0.00045 0.7982 0.18651 0.0
C417 C 0.00424 0.82204 0.22555 0.0
C418 C 0.04334 0.84379 0.21993 0.0
H419 H 0.08284 0.79814 0.13399 0.0
O420 O 0.08838 0.89557 0.06791 0.0
O421 O 0.0983 0.88957 0.14527 0.0
O422 O 0.1532 0.85533 0.08487 0.0
O423 O 0.13768 0.82744 0.15106 0.0
C424 C 0.9745 0.83645 0.30925 0.0
C425 C 0.00146 0.86534 0.33938 0.0
H426 H 0.05212 0.91309 0.37525 0.0
H427 H 0.10764 0.93742 0.34179 0.0
H428 H 0.02477 0.76996 0.1299 0.0
H429 H 0.97528 0.78327 0.17994 0.0
H430 H 0.94994 0.82721 0.32688 0.0
H431 H 0.99325 0.87413 0.37439 0.0
Mn432 Mn 0.85309 0.61981 0.1416 0.0
Mn433 Mn 0.87297 0.64838 0.03313 0.0
C434 C 0.84269 0.67712 0.12731 0.0
C435 C 0.81454 0.60014 0.20027 0.0
C436 C 0.9306 0.63453 0.1073 0.0
O437 O 0.8515 0.57567 0.10354 0.0
O438 O 0.87235 0.59739 0.03537 0.0
C439 C 0.80671 0.622 0.9841 0.0
N440 N 0.83031 0.64808 0.9936 0.0
C441 C 0.80081 0.68374 0.93578 0.0
C442 C 0.7764 0.65718 0.92515 0.0
C443 C 0.77922 0.62625 0.94969 0.0
C444 C 0.82755 0.67805 0.97061 0.0
H445 H 0.80891 0.59806 0.00241 0.0
C446 C 0.86261 0.57219 0.06095 0.0
O447 O 0.84938 0.59477 0.20277 0.0
O448 O 0.80192 0.61436 0.16215 0.0
N449 N 0.87422 0.69643 0.02127 0.0
C450 C 0.89811 0.72035 0.03777 0.0
C451 C 0.89804 0.75311 0.01806 0.0
C452 C 0.87367 0.76097 0.98114 0.0
C453 C 0.84955 0.73591 0.96417 0.0
C454 C 0.85099 0.70364 0.98507 0.0
H455 H 0.9175 0.71425 0.06485 0.0
O456 O 0.85369 0.66597 0.1681 0.0
O457 O 0.84261 0.65443 0.09206 0.0
O458 O 0.90857 0.62131 0.13647 0.0
O459 O 0.91986 0.64934 0.06932 0.0
C460 C 0.82373 0.74187 0.92784 0.0
C461 C 0.79923 0.71586 0.91385 0.0
H462 H 0.75517 0.66036 0.89859 0.0
H463 H 0.76038 0.60566 0.94188 0.0
H464 H 0.91722 0.77206 0.03053 0.0
H465 H 0.8737 0.78632 0.96614 0.0
H466 H 0.82204 0.76658 0.91106 0.0
H467 H 0.779 0.72096 0.88658 0.0
Mn468 Mn 0.13123 0.12875 0.90343 0.0
Mn469 Mn 0.10271 0.14276 0.79403 0.0
C470 C 0.06779 0.14225 0.89507 0.0
C471 C 0.14315 0.08221 0.95376 0.0
C472 C 0.15654 0.18881 0.85139 0.0
O473 O 0.17281 0.11459 0.85744 0.0
O474 O 0.1319 0.10111 0.8041 0.0
C475 C 0.05573 0.08116 0.78361 0.0
N476 N 0.06026 0.11536 0.77925 0.0
C477 C 0.99274 0.11835 0.74597 0.0
C478 C 0.99091 0.08286 0.75817 0.0
C479 C 0.02198 0.06533 0.77431 0.0
C480 C 0.03353 0.1348 0.76202 0.0
H481 H 0.07784 0.06556 0.79652 0.0
C482 C 0.16505 0.10277 0.81619 0.0
O483 O 0.16016 0.11103 0.95969 0.0
O484 O 0.12066 0.08035 0.91843 0.0
N485 N 0.07476 0.18293 0.77619 0.0
C486 C 0.08435 0.21632 0.78027 0.0
C487 C 0.0678 0.24201 0.7528 0.0
C488 C 0.03939 0.23583 0.72029 0.0
C489 C 0.02328 0.20389 0.71751 0.0
C490 C 0.04585 0.17388 0.7497 0.0
H491 H 0.10411 0.22389 0.8063 0.0
O492 O 0.08331 0.14137 0.93659 0.0
O493 O 0.09074 0.13976 0.86059 0.0
O494 O 0.14799 0.17773 0.89286 0.0
O495 O 0.14541 0.17381 0.81234 0.0
C496 C 0.98116 0.20064 0.69212 0.0
C497 C 0.95584 0.16418 0.69654 0.0
H498 H 0.96687 0.0672 0.75368 0.0
H499 H 0.01974 0.0382 0.78055 0.0
H500 H 0.07628 0.26801 0.75837 0.0
H501 H 0.02721 0.25708 0.70174 0.0
H502 H 0.96962 0.22235 0.67398 0.0
H503 H 0.92918 0.16358 0.6789 0.0
Mn504 Mn 0.64994 0.40113 0.62578 0.0
Mn505 Mn 0.61532 0.3618 0.72132 0.0
C506 C 0.58785 0.38867 0.62659 0.0
C507 C 0.66413 0.45188 0.58773 0.0
C508 C 0.65719 0.32526 0.64174 0.0
O509 O 0.69113 0.40444 0.67562 0.0
O510 O 0.66216 0.38353 0.73949 0.0
C511 C 0.60482 0.4141 0.79743 0.0
N512 N 0.58945 0.39107 0.76653 0.0
C513 C 0.53298 0.39105 0.82431 0.0
C514 C 0.55214 0.41443 0.85234 0.0
C515 C 0.58669 0.42601 0.83861 0.0
C516 C 0.5557 0.37923 0.77401 0.0
H517 H 0.63215 0.42322 0.79154 0.0
C518 C 0.69011 0.39665 0.7198 0.0
O519 O 0.67957 0.42334 0.5752 0.0
O520 O 0.64347 0.45138 0.62496 0.0
N521 N 0.57039 0.33984 0.70563 0.0
C522 C 0.56604 0.3116 0.67749 0.0
C523 C 0.53193 0.29717 0.66904 0.0
C524 C 0.50056 0.30881 0.69162 0.0
C525 C 0.50249 0.33317 0.73048 0.0
C526 C 0.54305 0.35252 0.73154 0.0
H527 H 0.58863 0.30036 0.65884 0.0
O528 O 0.60469 0.39546 0.58751 0.0
O529 O 0.60756 0.39147 0.66587 0.0
O530 O 0.66202 0.35025 0.61382 0.0
O531 O 0.64197 0.32851 0.68218 0.0
C532 C 0.465 0.35057 0.80746 0.0
C533 C 0.49038 0.37865 0.84147 0.0
H534 H 0.54017 0.42424 0.8849 0.0
H535 H 0.60055 0.4443 0.86152 0.0
H536 H 0.52973 0.27633 0.64347 0.0
H537 H 0.47628 0.29606 0.67957 0.0
H538 H 0.4383 0.3428 0.82064 0.0
H539 H 0.47917 0.38849 0.87444 0.0
Mn540 Mn 0.34075 0.90277 0.37216 0.0
Mn541 Mn 0.3667 0.86795 0.47653 0.0
C542 C 0.33965 0.84317 0.37793 0.0
C543 C 0.29767 0.92438 0.32017 0.0
C544 C 0.42042 0.89373 0.40404 0.0
O545 O 0.3386 0.94323 0.41669 0.0
O546 O 0.35462 0.91832 0.48562 0.0
C547 C 0.29902 0.87308 0.53323 0.0
N548 N 0.3263 0.85387 0.51427 0.0
C549 C 0.30753 0.80477 0.55884 0.0
C550 C 0.27878 0.82393 0.57808 0.0
C551 C 0.27447 0.85822 0.56512 0.0
C552 C 0.33086 0.8209 0.52686 0.0
H553 H 0.2965 0.89963 0.52479 0.0
C554 C 0.34497 0.94451 0.46112 0.0
O555 O 0.33176 0.93246 0.31633 0.0
O556 O 0.28822 0.90656 0.35678 0.0
N557 N 0.37933 0.82071 0.47403 0.0
C558 C 0.40659 0.80518 0.44923 0.0
C559 C 0.41365 0.77046 0.45644 0.0
C560 C 0.39305 0.75217 0.48961 0.0
C561 C 0.36513 0.76878 0.51476 0.0
C562 C 0.35898 0.80332 0.50545 0.0
H563 H 0.42282 0.81918 0.42411 0.0
O564 O 0.34053 0.8593 0.33818 0.0
O565 O 0.33827 0.86329 0.41603 0.0
O566 O 0.3972 0.90417 0.37344 0.0
O567 O 0.41142 0.88 0.44301 0.0
C568 C 0.34278 0.75233 0.5481 0.0
C569 C 0.31388 0.77028 0.56995 0.0
H570 H 0.25993 0.81261 0.60291 0.0
H571 H 0.25261 0.8733 0.58022 0.0
H572 H 0.43519 0.75807 0.43676 0.0
H573 H 0.39869 0.72537 0.49517 0.0
H574 H 0.34701 0.72568 0.55631 0.0
H575 H 0.29643 0.75719 0.59482 0.0
C576 C 0.14163 0.77421 0.06186 0.0
C577 C 0.1648 0.79443 0.09101 0.0
C578 C 0.18924 0.74324 0.12845 0.0
C579 C 0.16269 0.72309 0.10421 0.0
N580 N 0.12384 0.7174 0.03468 0.0
N581 N 0.22324 0.79633 0.12808 0.0
C582 C 0.14226 0.73786 0.06629 0.0
C583 C 0.19273 0.77824 0.11682 0.0
N584 N 0.11869 0.79002 0.03083 0.0
N585 N 0.21054 0.72928 0.16316 0.0
H586 H 0.22676 0.82097 0.11499 0.0
H587 H 0.2461 0.78564 0.14426 0.0
H588 H 0.20952 0.70346 0.17163 0.0
H589 H 0.22777 0.74379 0.18503 0.0
H590 H 0.09758 0.77776 0.01258 0.0
H591 H 0.12125 0.816 0.02385 0.0
H592 H 0.11031 0.72644 0.00469 0.0
H593 H 0.1247 0.69087 0.0361 0.0
C594 C 0.48057 0.91743 0.43143 0.0
C595 C 0.46031 0.89855 0.39665 0.0
C596 C 0.51763 0.87614 0.3632 0.0
C597 C 0.53758 0.8952 0.39794 0.0
N598 N 0.53884 0.9396 0.45802 0.0
N599 N 0.45938 0.86428 0.32464 0.0
C600 C 0.51919 0.91781 0.42944 0.0
C601 C 0.47886 0.87969 0.36054 0.0
N602 N 0.46304 0.93348 0.46831 0.0
N603 N 0.53543 0.85285 0.33512 0.0
H604 H 0.43104 0.86483 0.32281 0.0
H605 H 0.47125 0.85295 0.2948 0.0
H606 H 0.56365 0.84987 0.33579 0.0
H607 H 0.52228 0.83502 0.31329 0.0
H608 H 0.47634 0.94353 0.49819 0.0
H609 H 0.43484 0.93474 0.47118 0.0
H610 H 0.52735 0.95982 0.47708 0.0
H611 H 0.56716 0.93921 0.45981 0.0
C612 C 0.30617 0.2792 0.57536 0.0
C613 C 0.31704 0.29715 0.61726 0.0
C614 C 0.32451 0.24407 0.65897 0.0
C615 C 0.31884 0.22467 0.61572 0.0
N616 N 0.27966 0.22572 0.54655 0.0
N617 N 0.30435 0.29462 0.70133 0.0
C618 C 0.30234 0.24261 0.57722 0.0
C619 C 0.3149 0.2789 0.66006 0.0
N620 N 0.2967 0.29697 0.53579 0.0
N621 N 0.34046 0.23059 0.69865 0.0
H622 H 0.29435 0.31957 0.7017 0.0
H623 H 0.30059 0.28134 0.73294 0.0
H624 H 0.35642 0.20865 0.6981 0.0
H625 H 0.34369 0.24451 0.7303 0.0
H626 H 0.28876 0.28525 0.50395 0.0
H627 H 0.2958 0.32358 0.53583 0.0
H628 H 0.26406 0.23803 0.52082 0.0
H629 H 0.27369 0.19989 0.55053 0.0
C630 C 0.0038 0.16502 0.90372 0.0
C631 C 0.02727 0.138 0.89016 0.0
C632 C 0.97368 0.10085 0.87641 0.0
C633 C 0.95022 0.12805 0.88921 0.0
N634 N 0.94382 0.18179 0.93145 0.0
N635 N 0.03397 0.07688 0.88356 0.0
C636 C 0.9656 0.15874 0.90835 0.0
C637 C 0.01207 0.10493 0.88199 0.0
N638 N 0.01792 0.19687 0.91161 0.0
N639 N 0.95929 0.07043 0.86101 0.0
H640 H 0.06209 0.07858 0.88511 0.0
H641 H 0.02423 0.05199 0.8857 0.0
H642 H 0.93141 0.06597 0.85756 0.0
H643 H 0.97493 0.04997 0.84898 0.0
H644 H 0.00199 0.21841 0.918 0.0
H645 H 0.04555 0.20227 0.9076 0.0
H646 H 0.95388 0.2027 0.95061 0.0
H647 H 0.91565 0.179 0.9335 0.0
C648 C 0.16203 0.27878 0.81695 0.0
C649 C 0.17659 0.29504 0.85885 0.0
C650 C 0.19443 0.23814 0.88749 0.0
C651 C 0.1756 0.22299 0.84826 0.0
N652 N 0.17019 0.23047 0.7635 0.0
N653 N 0.22522 0.28945 0.91655 0.0
C654 C 0.16935 0.24383 0.80854 0.0
C655 C 0.19852 0.2746 0.88944 0.0
N656 N 0.14052 0.29606 0.78555 0.0
N657 N 0.21018 0.21772 0.92076 0.0
H658 H 0.23039 0.3156 0.91596 0.0
H659 H 0.24411 0.27558 0.93626 0.0
H660 H 0.21083 0.19122 0.91677 0.0
H661 H 0.223 0.22706 0.95139 0.0
H662 H 0.13252 0.2859 0.75272 0.0
H663 H 0.12751 0.31892 0.79421 0.0
H664 H 0.16771 0.2454 0.73314 0.0
H665 H 0.17874 0.20551 0.7569 0.0
C666 C 0.97412 0.9018 0.1277 0.0
C667 C 0.95859 0.86991 0.11348 0.0
C668 C 0.0194 0.85153 0.08791 0.0
C669 C 0.03564 0.87971 0.11259 0.0
N670 N 0.02758 0.93354 0.15367 0.0
N671 N 0.96715 0.81367 0.08097 0.0
C672 C 0.01269 0.9052 0.13237 0.0
C673 C 0.98152 0.84463 0.09362 0.0
N674 N 0.95232 0.92976 0.1328 0.0
N675 N 0.04006 0.83138 0.05876 0.0
H676 H 0.94005 0.80748 0.08778 0.0
H677 H 0.98263 0.79318 0.0686 0.0
H678 H 0.06797 0.83484 0.05529 0.0
H679 H 0.02918 0.81276 0.03603 0.0
H680 H 0.96224 0.9546 0.13582 0.0
H681 H 0.92411 0.92832 0.13149 0.0
H682 H 0.01228 0.95207 0.17133 0.0
H683 H 0.05554 0.93789 0.15608 0.0
C684 C 0.32982 0.75397 0.32251 0.0
C685 C 0.32743 0.73259 0.36233 0.0
C686 C 0.31478 0.78518 0.4085 0.0
C687 C 0.33461 0.80463 0.37458 0.0
N688 N 0.36198 0.80284 0.29512 0.0
N689 N 0.30317 0.72893 0.44166 0.0
C690 C 0.34208 0.78777 0.33001 0.0
C691 C 0.31587 0.74844 0.40552 0.0
N692 N 0.32126 0.74204 0.27803 0.0
N693 N 0.29146 0.80119 0.43897 0.0
H694 H 0.29905 0.70272 0.43776 0.0
H695 H 0.29569 0.73908 0.47461 0.0
H696 H 0.28706 0.82744 0.43815 0.0
H697 H 0.27369 0.78807 0.46105 0.0
H698 H 0.32108 0.75767 0.24818 0.0
H699 H 0.30924 0.71813 0.27289 0.0
H700 H 0.36603 0.7914 0.26183 0.0
H701 H 0.37937 0.82339 0.30167 0.0
C702 C 0.51182 0.15584 0.60211 0.0
C703 C 0.52561 0.12672 0.62496 0.0
C704 C 0.46293 0.10528 0.6345 0.0
C705 C 0.44915 0.13362 0.60821 0.0
N706 N 0.46574 0.1782 0.55118 0.0
N707 N 0.51532 0.07036 0.6554 0.0
C708 C 0.47487 0.1568 0.58753 0.0
C709 C 0.50144 0.10057 0.63946 0.0
N710 N 0.53422 0.18306 0.59423 0.0
N711 N 0.43954 0.08175 0.65283 0.0
H712 H 0.54314 0.06606 0.65996 0.0
H713 H 0.49962 0.04872 0.6613 0.0
H714 H 0.41222 0.07985 0.64305 0.0
H715 H 0.44727 0.06412 0.67847 0.0
H716 H 0.52467 0.20678 0.58324 0.0
H717 H 0.56146 0.18337 0.60482 0.0
H718 H 0.48484 0.19281 0.53317 0.0
H719 H 0.4414 0.17805 0.53268 0.0
C720 C 0.85177 0.23356 0.93166 0.0
C721 C 0.83115 0.2172 0.89515 0.0
C722 C 0.82353 0.27268 0.85556 0.0
C723 C 0.85083 0.28699 0.88592 0.0
N724 N 0.89124 0.28089 0.95359 0.0
N725 N 0.79234 0.22195 0.82627 0.0
C726 C 0.86446 0.26765 0.92485 0.0
C727 C 0.81472 0.23741 0.85907 0.0
N728 N 0.85907 0.21665 0.97286 0.0
N729 N 0.80613 0.29285 0.82312 0.0
H730 H 0.78416 0.19669 0.82966 0.0
H731 H 0.78303 0.23326 0.79513 0.0
H732 H 0.81281 0.31836 0.818 0.0
H733 H 0.78344 0.28527 0.80333 0.0
H734 H 0.8716 0.22801 0.00241 0.0
H735 H 0.8486 0.19251 0.97965 0.0
H736 H 0.90572 0.26647 0.97824 0.0
H737 H 0.90088 0.30575 0.95074 0.0
C738 C 0.68941 0.74292 0.35517 0.0
C739 C 0.67895 0.72452 0.39629 0.0
C740 C 0.68315 0.77865 0.44071 0.0
C741 C 0.67538 0.7962 0.39822 0.0
N742 N 0.69605 0.79733 0.31633 0.0
N743 N 0.68124 0.72493 0.48263 0.0
C744 C 0.68614 0.77908 0.35535 0.0
C745 C 0.68045 0.74221 0.44083 0.0
N746 N 0.70484 0.72571 0.31769 0.0
N747 N 0.70057 0.79564 0.47657 0.0
H748 H 0.68295 0.69851 0.48454 0.0
H749 H 0.68152 0.73734 0.51558 0.0
H750 H 0.70786 0.82122 0.4731 0.0
H751 H 0.71204 0.7833 0.50576 0.0
H752 H 0.71518 0.73723 0.28743 0.0
H753 H 0.71058 0.69967 0.31916 0.0
H754 H 0.69797 0.78699 0.28211 0.0
H755 H 0.70458 0.82268 0.31902 0.0
C756 C 0.81107 0.72531 0.17366 0.0
C757 C 0.82089 0.71004 0.12897 0.0
C758 C 0.80686 0.76354 0.08979 0.0
C759 C 0.81197 0.78043 0.13446 0.0
N760 N 0.79246 0.77734 0.21582 0.0
N761 N 0.79107 0.70896 0.0534 0.0
C762 C 0.80521 0.76124 0.17587 0.0
C763 C 0.80829 0.72715 0.08828 0.0
N764 N 0.80497 0.70536 0.21238 0.0
N765 N 0.79865 0.7818 0.05015 0.0
H766 H 0.78752 0.68263 0.05624 0.0
H767 H 0.77673 0.72033 0.02563 0.0
H768 H 0.79218 0.8077 0.05196 0.0
H769 H 0.79674 0.77082 0.01628 0.0
H770 H 0.80185 0.7147 0.24696 0.0
H771 H 0.80062 0.67915 0.20898 0.0
H772 H 0.7866 0.76522 0.24764 0.0
H773 H 0.78468 0.80297 0.21532 0.0
C774 C 0.68231 0.27056 0.66541 0.0
C775 C 0.66683 0.28945 0.62835 0.0
C776 C 0.63897 0.23631 0.59793 0.0
C777 C 0.64553 0.22073 0.64319 0.0
N778 N 0.66657 0.23035 0.72504 0.0
N779 N 0.63447 0.28945 0.55388 0.0
C780 C 0.66573 0.23957 0.67833 0.0
C781 C 0.64701 0.27186 0.59227 0.0
N782 N 0.71053 0.2841 0.69107 0.0
N783 N 0.6241 0.21791 0.56103 0.0
H784 H 0.64262 0.31443 0.5473 0.0
H785 H 0.61551 0.27972 0.52955 0.0
H786 H 0.61542 0.19277 0.56389 0.0
H787 H 0.62234 0.22701 0.52637 0.0
H788 H 0.72415 0.27058 0.71759 0.0
H789 H 0.72215 0.30743 0.68176 0.0
H790 H 0.67936 0.24516 0.75136 0.0
H791 H 0.65049 0.21124 0.73911 0.0
C792 C 0.03622 0.41065 0.86853 0.0
C793 C 0.05477 0.37897 0.87342 0.0
C794 C 0.9964 0.34984 0.88348 0.0
C795 C 0.97747 0.38086 0.8768 0.0
N796 N 0.97902 0.43989 0.85319 0.0
N797 N 0.0496 0.31766 0.86559 0.0
C798 C 0.99729 0.41093 0.86568 0.0
C799 C 0.03414 0.3485 0.87485 0.0
N800 N 0.05531 0.44057 0.86967 0.0
N801 N 0.97845 0.321 0.89671 0.0
H802 H 0.07635 0.31491 0.85368 0.0
H803 H 0.07635 0.31491 0.85368 0.0
H804 H 0.95038 0.32035 0.90193 0.0
H805 H 0.99204 0.29797 0.9024 0.0
H806 H 0.04299 0.46444 0.87241 0.0
H807 H 0.08363 0.44171 0.87124 0.0
H808 H 0.99191 0.46134 0.83962 0.0
H809 H 0.95068 0.44146 0.85237 0.0
C810 C 0.52635 0.60687 0.37318 0.0
C811 C 0.54797 0.63318 0.39398 0.0
C812 C 0.49189 0.66646 0.40943 0.0
C813 C 0.47031 0.64034 0.38858 0.0
N814 N 0.46699 0.58015 0.37035 0.0
N815 N 0.54909 0.6826 0.44644 0.0
C816 C 0.48751 0.60897 0.37573 0.0
C817 C 0.53 0.6611 0.41695 0.0
N818 N 0.54266 0.57888 0.35309 0.0
N819 N 0.47607 0.69688 0.42141 0.0
H820 H 0.5774 0.6824 0.44946 0.0
H821 H 0.5362 0.69919 0.47019 0.0
H822 H 0.44842 0.7016 0.41582 0.0
H823 H 0.49086 0.7182 0.43274 0.0
H824 H 0.52838 0.56002 0.33439 0.0
H825 H 0.57072 0.57506 0.35291 0.0
H826 H 0.47801 0.55569 0.36815 0.0
H827 H 0.43873 0.58047 0.3711 0.0
C828 C 0.52397 0.4113 0.6365 0.0
C829 C 0.54723 0.38388 0.62361 0.0
C830 C 0.49366 0.35174 0.59328 0.0
C831 C 0.47032 0.37881 0.60701 0.0
N832 N 0.46611 0.43929 0.62277 0.0
N833 N 0.55501 0.3336 0.57404 0.0
C834 C 0.48624 0.41003 0.62348 0.0
C835 C 0.53229 0.35596 0.59682 0.0
N836 N 0.53821 0.43943 0.65911 0.0
N837 N 0.47892 0.32168 0.57738 0.0
H838 H 0.58321 0.33455 0.57789 0.0
H839 H 0.54599 0.31526 0.54955 0.0
H840 H 0.45088 0.31796 0.5745 0.0
H841 H 0.49417 0.29972 0.57091 0.0
H842 H 0.52258 0.45976 0.67154 0.0
H843 H 0.5657 0.44184 0.66803 0.0
H844 H 0.47715 0.46357 0.62749 0.0
H845 H 0.43849 0.43953 0.61451 0.0
C846 C 0.0306 0.65866 0.10716 0.0
C847 C 0.04802 0.62793 0.12036 0.0
C848 C 0.98794 0.60074 0.12881 0.0
C849 C 0.97067 0.63238 0.11768 0.0
N850 N 0.97812 0.69363 0.11497 0.0
N851 N 0.04336 0.57129 0.15237 0.0
C852 C 0.99255 0.66177 0.1119 0.0
C853 C 0.02667 0.59954 0.13426 0.0
N854 N 0.05046 0.68607 0.09292 0.0
N855 N 0.96802 0.57135 0.1313 0.0
H856 H 0.07157 0.56889 0.15512 0.0
H857 H 0.02925 0.55158 0.16866 0.0
H858 H 0.93983 0.57034 0.12798 0.0
H859 H 0.97971 0.54718 0.1329 0.0
H860 H 0.0383 0.7089 0.08243 0.0
H861 H 0.07878 0.68587 0.0926 0.0
H862 H 0.9516 0.69831 0.12653 0.0
H863 H 0.9516 0.69831 0.12653 0.0
C864 C 0.19522 0.51447 0.01234 0.0
C865 C 0.16119 0.52947 0.02414 0.0
C866 C 0.12917 0.48124 0.98554 0.0
C867 C 0.16313 0.46716 0.97132 0.0
N868 N 0.22845 0.47262 0.96511 0.0
N869 N 0.09602 0.53124 0.01257 0.0
C870 C 0.19614 0.48462 0.9826 0.0
C871 C 0.12823 0.51394 0.0082 0.0
N872 N 0.22656 0.52763 0.03165 0.0
N873 N 0.09768 0.46334 0.97763 0.0
H874 H 0.09419 0.55565 0.0275 0.0
H875 H 0.07165 0.52304 0.99713 0.0
H876 H 0.09672 0.44026 0.95885 0.0
H877 H 0.07274 0.47017 0.99244 0.0
H878 H 0.25183 0.51572 0.02905 0.0
H879 H 0.22697 0.54923 0.05371 0.0
H880 H 0.25277 0.48625 0.96722 0.0
H881 H 0.23067 0.44994 0.94556 0.0
C882 C 0.72975 0.92643 0.24834 0.0
C883 C 0.7351 0.91551 0.29631 0.0
C884 C 0.79479 0.89317 0.27524 0.0
C885 C 0.79057 0.90413 0.2273 0.0
N886 N 0.75829 0.94115 0.17329 0.0
N887 N 0.7815 0.90809 0.35663 0.0
C888 C 0.75916 0.92358 0.21508 0.0
C889 C 0.77051 0.90536 0.3102 0.0
N890 N 0.6974 0.94035 0.23442 0.0
N891 N 0.82028 0.86945 0.28769 0.0
H892 H 0.76577 0.92055 0.38237 0.0
H893 H 0.80808 0.90259 0.36748 0.0
H894 H 0.8361 0.85617 0.26312 0.0
H895 H 0.82195 0.85959 0.32202 0.0
H896 H 0.68997 0.94303 0.19875 0.0
H897 H 0.67843 0.95013 0.25832 0.0
H898 H 0.73764 0.95816 0.16433 0.0
H899 H 0.7802 0.94178 0.14989 0.0
C900 C 0.34767 0.5079 0.53134 0.0
C901 C 0.35504 0.47741 0.50514 0.0
C902 C 0.35223 0.51062 0.43119 0.0
C903 C 0.35097 0.54184 0.45792 0.0
N904 N 0.35535 0.5691 0.53573 0.0
N905 N 0.37024 0.45111 0.42966 0.0
C906 C 0.3505 0.54023 0.50865 0.0
C907 C 0.35866 0.47907 0.45488 0.0
N908 N 0.33702 0.50609 0.57784 0.0
N909 N 0.34642 0.51075 0.38307 0.0
H910 H 0.37619 0.4278 0.44541 0.0
H911 H 0.37739 0.45201 0.39381 0.0
H912 H 0.34098 0.53287 0.3642 0.0
H913 H 0.34318 0.48854 0.36272 0.0
H914 H 0.32793 0.52724 0.59723 0.0
H915 H 0.33328 0.48301 0.5953 0.0
H916 H 0.35907 0.56857 0.57257 0.0
H917 H 0.35982 0.59312 0.52148 0.0
C918 C 0.71264 0.13024 0.77322 0.0
C919 C 0.70094 0.10267 0.7439 0.0
C920 C 0.75515 0.07064 0.76934 0.0
C921 C 0.76399 0.09754 0.80169 0.0
N922 N 0.74274 0.14657 0.84622 0.0
N923 N 0.70776 0.04336 0.72132 0.0
C924 C 0.73965 0.12495 0.80797 0.0
C925 C 0.72124 0.07172 0.74392 0.0
N926 N 0.70101 0.1625 0.7643 0.0
N927 N 0.77899 0.0443 0.76305 0.0
H928 H 0.68248 0.04308 0.70416 0.0
H929 H 0.72004 0.01946 0.72329 0.0
H930 H 0.80258 0.04195 0.78373 0.0
H931 H 0.77605 0.02583 0.73631 0.0
H932 H 0.71083 0.18388 0.78278 0.0
H933 H 0.68662 0.16777 0.73323 0.0
H934 H 0.72353 0.16557 0.85332 0.0
H935 H 0.76235 0.14351 0.87285 0.0
C936 C 0.8999 0.49055 0.004 0.0
C937 C 0.86724 0.47411 0.9893 0.0
C938 C 0.83163 0.51869 0.03013 0.0
C939 C 0.86425 0.53743 0.03903 0.0
N940 N 0.9294 0.54295 0.02907 0.0
N941 N 0.80168 0.47422 0.98337 0.0
C942 C 0.89838 0.52385 0.02443 0.0
C943 C 0.83294 0.48834 1.00157 0.0
N944 N 0.93244 0.47378 0.9999 0.0
N945 N 0.79924 0.53013 0.04809 0.0
H946 H 0.80145 0.45226 0.96207 0.0
H947 H 0.77619 0.48569 0.98612 0.0
H948 H 0.7964 0.55329 0.06629 0.0
H949 H 0.7755 0.51558 0.04772 0.0
H950 H 0.95676 0.48294 0.01446 0.0
H951 H 0.93455 0.44895 0.98639 0.0
H952 H 0.95415 0.53603 0.01375 0.0
H953 H 0.93004 0.56702 0.04512 0.0
C954 C 0.19291 0.12121 0.73851 0.0
C955 C 0.1939 0.09961 0.77891 0.0
C956 C 0.25266 0.07701 0.75018 0.0
C957 C 0.25391 0.10308 0.71532 0.0
N958 N 0.22998 0.15821 0.69192 0.0
N959 N 0.22696 0.05812 0.82514 0.0
C960 C 0.2255 0.12761 0.71406 0.0
C961 C 0.22468 0.07803 0.78561 0.0
N962 N 0.16136 0.13548 0.72213 0.0
N963 N 0.27688 0.05061 0.74841 0.0
H964 H 0.20595 0.0564 0.84989 0.0
H965 H 0.25044 0.04479 0.83449 0.0
H966 H 0.29655 0.04825 0.72196 0.0
H967 H 0.27512 0.0294 0.77032 0.0
H968 H 0.16032 0.14965 0.69089 0.0
H969 H 0.13567 0.12929 0.73431 0.0
H970 H 0.21041 0.17747 0.693 0.0
H971 H 0.25482 0.16642 0.67864 0.0
C972 C 0.69682 0.52335 0.50657 0.0
C973 C 0.66306 0.53898 0.49506 0.0
C974 C 0.63056 0.49617 0.54095 0.0
C975 C 0.66437 0.48213 0.55626 0.0
N976 N 0.72989 0.4858 0.55986 0.0
N977 N 0.59894 0.54565 0.51148 0.0
C978 C 0.69765 0.49665 0.54075 0.0
C979 C 0.6303 0.527 0.5153 0.0
N980 N 0.7278 0.53321 0.48374 0.0
N981 N 0.59854 0.47925 0.54836 0.0
H982 H 0.59752 0.56884 0.49378 0.0
H983 H 0.57532 0.53998 0.53024 0.0
H984 H 0.59687 0.45592 0.56535 0.0
H985 H 0.57388 0.48656 0.53297 0.0
H986 H 0.75254 0.5204 0.48679 0.0
H987 H 0.7281 0.55271 0.45874 0.0
H988 H 0.75476 0.49766 0.55357 0.0
H989 H 0.73138 0.46672 0.58542 0.0
C990 C 0.24339 0.94847 0.27714 0.0
C991 C 0.27312 0.9255 0.27852 0.0
C992 C 0.24383 0.88875 0.21936 0.0
C993 C 0.2147 0.91218 0.21585 0.0
N994 N 0.18925 0.96741 0.23462 0.0
N995 N 0.30709 0.88051 0.23938 0.0
C996 C 0.21544 0.9433 0.24229 0.0
C997 C 0.27527 0.89807 0.24544 0.0
N998 N 0.24143 0.97439 0.30997 0.0
N999 N 0.24055 0.85664 0.20059 0.0
H1000 H 0.33124 0.88733 0.25664 0.0
H1001 H 0.31052 0.86186 0.21299 0.0
H1002 H 0.21678 0.84832 0.18382 0.0
H1003 H 0.25953 0.83735 0.20659 0.0
H1004 H 0.2186 0.98984 0.31435 0.0
H1005 H 0.26242 0.97936 0.33435 0.0
H1006 H 0.18993 0.9917 0.24999 0.0
H1007 H 0.16814 0.96388 0.20997 0.0
C1008 C 0.67806 0.00856 0.55254 0.0
C1009 C 0.65145 0.03344 0.5413 0.0
C1010 C 0.63046 0.99846 0.47321 0.0
C1011 C 0.6559 0.97277 0.48618 0.0
N1012 N 0.71272 0.95968 0.52451 0.0
N1013 N 0.60818 0.05639 0.48537 0.0
C1014 C 0.68234 0.97965 0.52195 0.0
C1015 C 0.62956 0.02977 0.49966 0.0
N1016 N 0.6988 0.01227 0.59286 0.0
N1017 N 0.60661 0.9926 0.43642 0.0
H1018 H 0.60663 0.07941 0.50429 0.0
H1019 H 0.59406 0.05692 0.45314 0.0
H1020 H 0.6081 0.97118 0.41416 0.0
H1021 H 0.58436 0.00808 0.42885 0.0
H1022 H 0.71568 0.99311 0.6059 0.0
H1023 H 0.69755 0.03393 0.61476 0.0
H1024 H 0.73453 0.9647 0.54744 0.0
H1025 H 0.71788 0.94049 0.49933 0.0
C1026 C 0.29575 0.44663 0.72892 0.0
C1027 C 0.29366 0.42257 0.69069 0.0
C1028 C 0.23427 0.40339 0.72064 0.0
C1029 C 0.24017 0.42263 0.76325 0.0
N1030 N 0.27641 0.46261 0.80878 0.0
N1031 N 0.26018 0.3764 0.65133 0.0
C1032 C 0.27081 0.44444 0.76752 0.0
C1033 C 0.26236 0.40109 0.68613 0.0
N1034 N 0.32123 0.47202 0.72758 0.0
N1035 N 0.20201 0.38661 0.71302 0.0
H1036 H 0.27696 0.37472 0.62187 0.0
H1037 H 0.24203 0.356 0.65265 0.0
H1038 H 0.18152 0.38455 0.73824 0.0
H1039 H 0.19424 0.37668 0.67988 0.0
H1040 H 0.32247 0.49205 0.75224 0.0
H1041 H 0.33873 0.47498 0.69871 0.0
H1042 H 0.30038 0.47585 0.8164 0.0
H1043 H 0.25767 0.46294 0.83662 0.0
C1044 C 0.87369 0.00967 0.9951 0.0
C1045 C 0.84015 0.02437 0.98071 0.0
C1046 C 0.80719 0.97808 0.02042 0.0
C1047 C 0.84092 0.96169 0.03017 0.0
N1048 N 0.90569 0.95809 0.01568 0.0
N1049 N 0.7748 0.0203 0.9736 0.0
C1050 C 0.874 0.97643 0.01437 0.0
C1051 C 0.80675 0.00803 0.99181 0.0
N1052 N 0.90532 0.02795 0.992 0.0
N1053 N 0.7758 0.96583 0.03977 0.0
H1054 H 0.77349 0.0421 0.95268 0.0
H1055 H 0.75007 0.00744 0.97608 0.0
H1056 H 0.77503 0.94393 0.06047 0.0
H1057 H 0.75105 0.97878 0.03836 0.0
H1058 H 0.92994 0.01976 0.00661 0.0
H1059 H 0.90628 0.05291 0.97962 0.0
H1060 H 0.9298 0.96639 1.00019 0.0
H1061 H 0.90702 0.93294 0.02724 0.0
C1062 C 0.26467 0.63335 0.19627 0.0
C1063 C 0.2363 0.61019 0.20659 0.0
C1064 C 0.27177 0.58743 0.2737 0.0
C1065 C 0.29939 0.61236 0.26625 0.0
N1066 N 0.32245 0.65896 0.21859 0.0
N1067 N 0.21943 0.55693 0.24112 0.0
C1068 C 0.29631 0.6348 0.22632 0.0
C1069 C 0.24173 0.58483 0.24135 0.0
N1070 N 0.26173 0.65313 0.15654 0.0
N1071 N 0.27374 0.56653 0.31223 0.0
H1072 H 0.19907 0.55343 0.21537 0.0
H1073 H 0.22358 0.53571 0.26246 0.0
H1074 H 0.29604 0.56605 0.33521 0.0
H1075 H 0.25233 0.55106 0.32306 0.0
H1076 H 0.28245 0.66832 0.14325 0.0
H1077 H 0.239 0.65249 0.13408 0.0
H1078 H 0.31955 0.67918 0.19523 0.0
H1079 H 0.34714 0.66015 0.23661 0.0
C1080 C 0.37284 0.0334 0.50519 0.0
C1081 C 0.33994 0.04554 0.52549 0.0
C1082 C 0.31033 0.99058 0.50599 0.0
C1083 C 0.34305 0.97907 0.48413 0.0
N1084 N 0.40091 0.99399 0.44965 0.0
N1085 N 0.27611 0.03774 0.54132 0.0
C1086 C 0.37305 1.00172 0.48001 0.0
C1087 C 0.30835 0.02454 0.52523 0.0
N1088 N 0.40433 0.05163 0.5112 0.0
N1089 N 0.28079 0.9694 0.50669 0.0
H1090 H 0.27377 0.06245 0.55521 0.0
H1091 H 0.25117 0.02528 0.53866 0.0
H1092 H 0.2797 0.94669 0.48706 0.0
H1093 H 0.25755 0.97391 0.52684 0.0
H1094 H 0.42987 0.04215 0.50189 0.0
H1095 H 0.40549 0.07487 0.52963 0.0
H1096 H 0.42168 0.01105 0.44157 0.0
H1097 H 0.40119 0.97203 0.42836 0.0
C1098 C 0.79296 0.61789 0.28101 0.0
C1099 C 0.79025 0.59511 0.24136 0.0
C1100 C 0.73207 0.57378 0.27111 0.0
C1101 C 0.73153 0.60098 0.30469 0.0
N1102 N 0.76117 0.64865 0.34369 0.0
N1103 N 0.75869 0.55019 0.19891 0.0
C1104 C 0.76228 0.62247 0.31105 0.0
C1105 C 0.7604 0.57234 0.23684 0.0
N1106 N 0.82442 0.63576 0.28928 0.0
N1107 N 0.7057 0.54923 0.27267 0.0
H1108 H 0.7801 0.54722 0.17488 0.0
H1109 H 0.73571 0.53579 0.1902 0.0
H1110 H 0.68527 0.54956 0.29841 0.0
H1111 H 0.70586 0.52719 0.25161 0.0
H1112 H 0.82935 0.65002 0.32016 0.0
H1113 H 0.84703 0.63438 0.26715 0.0
H1114 H 0.78031 0.66822 0.34552 0.0
H1115 H 0.73981 0.65201 0.36764 0.0
C1116 C 0.17847 0.0065 0.02629 0.0
C1117 C 0.14474 0.99132 0.03908 0.0
C1118 C 0.11236 0.04081 0.00702 0.0
C1119 C 0.14536 0.05341 0.98787 0.0
N1120 N 0.20975 0.04622 0.97473 0.0
N1121 N 0.07898 0.99115 0.03201 0.0
C1122 C 0.17853 0.03587 0.99653 0.0
C1123 C 0.11149 0.00778 0.02711 0.0
N1124 N 0.21037 0.99357 0.04374 0.0
N1125 N 0.0818 0.06076 0.00687 0.0
H1126 H 0.07682 0.96617 0.04399 0.0
H1127 H 0.05441 1.00075 0.01908 0.0
H1128 H 0.08161 0.08559 0.99389 0.0
H1129 H 0.05792 0.05415 0.02444 0.0
H1130 H 0.23548 1.0055 0.03949 0.0
H1131 H 0.21132 0.97264 0.06634 0.0
H1132 H 0.23383 0.03218 0.9753 0.0
H1133 H 0.21085 0.06762 0.95304 0.0
C1134 C 0.73313 0.37397 0.78234 0.0
C1135 C 0.72348 0.40057 0.75031 0.0
C1136 C 0.77835 0.43221 0.77592 0.0
C1137 C 0.78706 0.40562 0.80783 0.0
N1138 N 0.7649 0.35916 0.85485 0.0
N1139 N 0.73219 0.45908 0.72648 0.0
C1140 C 0.76173 0.37926 0.81561 0.0
C1141 C 0.74479 0.43097 0.74977 0.0
N1142 N 0.71703 0.34255 0.77901 0.0
N1143 N 0.80187 0.45892 0.77151 0.0
H1144 H 0.70695 0.45974 0.7093 0.0
H1145 H 0.745 0.48276 0.72794 0.0
H1146 H 0.82382 0.46245 0.79486 0.0
H1147 H 0.79993 0.47699 0.74469 0.0
H1148 H 0.72579 0.32168 0.79872 0.0
H1149 H 0.69803 0.33588 0.7529 0.0
H1150 H 0.74497 0.34164 0.86456 0.0
H1151 H 0.78567 0.36229 0.88002 0.0
loop_
_geom_bond_atom_site_label_1
_geom_bond_atom_site_label_2
_geom_bond_distance
_geom_bond_site_symmetry_2
_ccdc_geom_bond_type
Mn0 O5 2.095 . S
Mn0 O15 2.162 . S
Mn0 O16 2.297 . S
Mn0 O24 2.385 . S
Mn0 O25 2.209 . S
Mn0 O26 2.094 . S
Mn1 O6 2.121 . S
Mn1 N8 2.257 . S
Mn1 N17 2.282 . S
Mn1 O25 2.215 . S
Mn1 O27 2.117 . S
C2 O24 1.234 . S
C2 O25 1.283 . S
C3 O15 1.281 . S
C3 O16 1.236 . S
C4 O26 1.240 . S
C4 O27 1.264 . S
O5 Mn0 2.095 . S
O5 C14 1.250 . S
O6 Mn1 2.121 . S
O6 C14 1.258 . S
C7 N8 1.326 . S
C7 C11 1.460 . S
C7 H13 0.929 . S
N8 Mn1 2.257 . S
N8 C7 1.326 . S
N8 C12 1.362 . S
C9 C10 1.258 . S
C9 C12 1.431 . S
C9 C29 1.449 . S
C10 C9 1.258 . S
C10 C11 1.477 . S
C10 H30 0.931 . S
C11 C7 1.460 . S
C11 C10 1.477 . S
C11 H31 0.930 . S
C12 N8 1.362 . S
C12 C9 1.431 . S
C12 C22 1.476 . S
H13 C7 0.929 . S
C14 O5 1.250 . S
C14 O6 1.258 . S
O15 Mn0 2.162 . S
O15 C3 1.281 . S
O16 Mn0 2.297 . S
O16 C3 1.236 . S
N17 Mn1 2.282 . S
N17 C18 1.328 . S
N17 C22 1.318 . S
C18 N17 1.328 . S
C18 C19 1.457 . S
C18 H23 0.929 . S
C19 C18 1.457 . S
C19 C20 1.291 . S
C19 H32 0.931 . S
C20 C19 1.291 . S
C20 C21 1.373 . S
C20 H33 0.929 1_455 S
C21 C20 1.373 . S
C21 C22 1.396 . S
C21 C28 1.403 1_455 S
C22 C12 1.476 . S
C22 N17 1.318 . S
C22 C21 1.396 . S
H23 C18 0.929 . S
O24 Mn0 2.385 . S
O24 C2 1.234 . S
O25 Mn0 2.209 . S
O25 Mn1 2.215 . S
O25 C2 1.283 . S
O26 Mn0 2.094 . S
O26 C4 1.240 . S
O27 Mn1 2.117 . S
O27 C4 1.264 . S
C28 C21 1.403 1_655 S
C28 C29 1.399 1_655 S
C28 H34 0.929 . S
C29 C9 1.449 . S
C29 C28 1.399 1_455 S
C29 H35 0.930 1_455 S
H30 C10 0.931 . S
H31 C11 0.930 . S
H32 C19 0.931 . S
H33 C20 0.929 1_655 S
H34 C28 0.929 . S
H35 C29 0.930 1_655 S
Mn36 O41 2.095 . S
Mn36 O51 2.162 . S
Mn36 O52 2.297 . S
Mn36 O60 2.385 . S
Mn36 O61 2.209 . S
Mn36 O62 2.094 . S
Mn37 O42 2.121 . S
Mn37 N44 2.257 . S
Mn37 N53 2.282 . S
Mn37 O61 2.215 . S
Mn37 O63 2.117 . S
C38 O60 1.234 . S
C38 O61 1.283 . S
C39 O51 1.281 . S
C39 O52 1.236 . S
C40 O62 1.240 . S
C40 O63 1.264 . S
O41 Mn36 2.095 . S
O41 C50 1.250 . S
O42 Mn37 2.121 . S
O42 C50 1.258 . S
C43 N44 1.326 . S
C43 C47 1.460 . S
C43 H49 0.929 . S
N44 Mn37 2.257 . S
N44 C43 1.326 . S
N44 C48 1.362 . S
C45 C46 1.258 . S
C45 C48 1.431 . S
C45 C65 1.449 . S
C46 C45 1.258 . S
C46 C47 1.477 . S
C46 H66 0.931 . S
C47 C43 1.460 . S
C47 C46 1.477 . S
C47 H67 0.930 . S
C48 N44 1.362 . S
C48 C45 1.431 . S
C48 C58 1.476 . S
H49 C43 0.929 . S
C50 O41 1.250 . S
C50 O42 1.258 . S
O51 Mn36 2.162 . S
O51 C39 1.281 . S
O52 Mn36 2.297 . S
O52 C39 1.236 . S
N53 Mn37 2.282 . S
N53 C54 1.328 . S
N53 C58 1.318 . S
C54 N53 1.328 . S
C54 C55 1.457 . S
C54 H59 0.929 . S
C55 C54 1.457 . S
C55 C56 1.291 . S
C55 H68 0.931 . S
C56 C55 1.291 . S
C56 C57 1.373 . S
C56 H69 0.929 . S
C57 C56 1.373 . S
C57 C58 1.396 . S
C57 C64 1.403 . S
C58 C48 1.476 . S
C58 N53 1.318 . S
C58 C57 1.396 . S
H59 C54 0.929 . S
O60 Mn36 2.385 . S
O60 C38 1.234 . S
O61 Mn36 2.209 . S
O61 Mn37 2.215 . S
O61 C38 1.283 . S
O62 Mn36 2.094 . S
O62 C40 1.240 . S
O63 Mn37 2.117 . S
O63 C40 1.264 . S
C64 C57 1.403 . S
C64 C65 1.399 . S
C64 H70 0.929 . S
C65 C45 1.449 . S
C65 C64 1.399 . S
C65 H71 0.930 . S
H66 C46 0.931 . S
H67 C47 0.930 . S
H68 C55 0.931 . S
H69 C56 0.929 . S
H70 C64 0.929 . S
H71 C65 0.930 . S
Mn72 O77 2.095 . S
Mn72 O87 2.162 . S
Mn72 O88 2.297 . S
Mn72 O96 2.385 . S
Mn72 O97 2.209 . S
Mn72 O98 2.094 . S
Mn73 O78 2.121 . S
Mn73 N80 2.257 . S
Mn73 N89 2.282 . S
Mn73 O97 2.215 . S
Mn73 O99 2.117 . S
C74 O96 1.234 . S
C74 O97 1.283 . S
C75 O87 1.281 . S
C75 O88 1.236 . S
C76 O98 1.240 . S
C76 O99 1.264 . S
O77 Mn72 2.095 . S
O77 C86 1.250 . S
O78 Mn73 2.121 . S
O78 C86 1.258 . S
C79 N80 1.326 . S
C79 C83 1.460 . S
C79 H85 0.929 . S
N80 Mn73 2.257 . S
N80 C79 1.326 . S
N80 C84 1.362 . S
C81 C82 1.258 . S
C81 C84 1.431 . S
C81 C101 1.449 . S
C82 C81 1.258 . S
C82 C83 1.477 . S
C82 H102 0.931 . S
C83 C79 1.460 . S
C83 C82 1.477 . S
C83 H103 0.930 . S
C84 N80 1.362 . S
C84 C81 1.431 . S
C84 C94 1.476 . S
H85 C79 0.929 . S
C86 O77 1.250 . S
C86 O78 1.258 . S
O87 Mn72 2.162 . S
O87 C75 1.281 . S
O88 Mn72 2.297 . S
O88 C75 1.236 . S
N89 Mn73 2.282 . S
N89 C90 1.328 . S
N89 C94 1.318 . S
C90 N89 1.328 . S
C90 C91 1.457 . S
C90 H95 0.929 . S
C91 C90 1.457 . S
C91 C92 1.291 . S
C91 H104 0.931 . S
C92 C91 1.291 . S
C92 C93 1.373 . S
C92 H105 0.929 . S
C93 C92 1.373 . S
C93 C94 1.396 . S
C93 C100 1.403 . S
C94 C84 1.476 . S
C94 N89 1.318 . S
C94 C93 1.396 . S
H95 C90 0.929 . S
O96 Mn72 2.385 . S
O96 C74 1.234 . S
O97 Mn72 2.209 . S
O97 Mn73 2.215 . S
O97 C74 1.283 . S
O98 Mn72 2.094 . S
O98 C76 1.240 . S
O99 Mn73 2.117 . S
O99 C76 1.264 . S
C100 C93 1.403 . S
C100 C101 1.399 . S
C100 H106 0.929 . S
C101 C81 1.449 . S
C101 C100 1.399 . S
C101 H107 0.930 . S
H102 C82 0.931 . S
H103 C83 0.930 . S
H104 C91 0.931 . S
H105 C92 0.929 . S
H106 C100 0.929 . S
H107 C101 0.930 . S
Mn108 O113 2.095 . S
Mn108 O123 2.162 . S
Mn108 O124 2.297 . S
Mn108 O132 2.385 . S
Mn108 O133 2.209 . S
Mn108 O134 2.094 . S
Mn109 O114 2.121 . S
Mn109 N116 2.257 . S
Mn109 N125 2.282 . S
Mn109 O133 2.215 . S
Mn109 O135 2.117 . S
C110 O132 1.234 . S
C110 O133 1.283 . S
C111 O123 1.281 . S
C111 O124 1.236 . S
C112 O134 1.240 . S
C112 O135 1.264 . S
O113 Mn108 2.095 . S
O113 C122 1.250 . S
O114 Mn109 2.121 . S
O114 C122 1.258 . S
C115 N116 1.326 . S
C115 C119 1.460 . S
C115 H121 0.929 . S
N116 Mn109 2.257 . S
N116 C115 1.326 . S
N116 C120 1.362 . S
C117 C118 1.258 . S
C117 C120 1.431 . S
C117 C137 1.449 1_655 S
C118 C117 1.258 . S
C118 C119 1.477 . S
C118 H138 0.931 . S
C119 C115 1.460 . S
C119 C118 1.477 . S
C119 H139 0.930 . S
C120 N116 1.362 . S
C120 C117 1.431 . S
C120 C130 1.476 . S
H121 C115 0.929 . S
C122 O113 1.250 . S
C122 O114 1.258 . S
O123 Mn108 2.162 . S
O123 C111 1.281 . S
O124 Mn108 2.297 . S
O124 C111 1.236 . S
N125 Mn109 2.282 . S
N125 C126 1.328 . S
N125 C130 1.318 . S
C126 N125 1.328 . S
C126 C127 1.457 . S
C126 H131 0.929 . S
C127 C126 1.457 . S
C127 C128 1.291 1_655 S
C127 H140 0.931 . S
C128 C127 1.291 1_455 S
C128 C129 1.373 1_455 S
C128 H141 0.929 . S
C129 C128 1.373 1_655 S
C129 C130 1.396 . S
C129 C136 1.403 1_655 S
C130 C120 1.476 . S
C130 N125 1.318 . S
C130 C129 1.396 . S
H131 C126 0.929 . S
O132 Mn108 2.385 . S
O132 C110 1.234 . S
O133 Mn108 2.209 . S
O133 Mn109 2.215 . S
O133 C110 1.283 . S
O134 Mn108 2.094 . S
O134 C112 1.240 . S
O135 Mn109 2.117 . S
O135 C112 1.264 . S
C136 C129 1.403 1_455 S
C136 C137 1.399 . S
C136 H142 0.929 . S
C137 C117 1.449 1_455 S
C137 C136 1.399 . S
C137 H143 0.930 . S
H138 C118 0.931 . S
H139 C119 0.930 . S
H140 C127 0.931 . S
H141 C128 0.929 . S
H142 C136 0.929 . S
H143 C137 0.930 . S
Mn144 O149 2.095 . S
Mn144 O159 2.162 . S
Mn144 O160 2.297 . S
Mn144 O168 2.385 . S
Mn144 O169 2.209 . S
Mn144 O170 2.094 . S
Mn145 O150 2.121 . S
Mn145 N152 2.257 1_556 S
Mn145 N161 2.282 . S
Mn145 O169 2.215 . S
Mn145 O171 2.117 . S
C146 O168 1.234 . S
C146 O169 1.283 . S
C147 O159 1.281 . S
C147 O160 1.236 . S
C148 O170 1.240 . S
C148 O171 1.264 . S
O149 Mn144 2.095 . S
O149 C158 1.250 . S
O150 Mn145 2.121 . S
O150 C158 1.258 . S
C151 N152 1.326 . S
C151 C155 1.460 . S
C151 H157 0.929 . S
N152 Mn145 2.257 1_554 S
N152 C151 1.326 . S
N152 C156 1.362 . S
C153 C154 1.258 . S
C153 C156 1.431 . S
C153 C173 1.449 . S
C154 C153 1.258 . S
C154 C155 1.477 . S
C154 H174 0.931 . S
C155 C151 1.460 . S
C155 C154 1.477 . S
C155 H175 0.930 . S
C156 N152 1.362 . S
C156 C153 1.431 . S
C156 C166 1.476 . S
H157 C151 0.929 . S
C158 O149 1.250 . S
C158 O150 1.258 . S
O159 Mn144 2.162 . S
O159 C147 1.281 . S
O160 Mn144 2.297 . S
O160 C147 1.236 . S
N161 Mn145 2.282 . S
N161 C162 1.328 . S
N161 C166 1.318 1_556 S
C162 N161 1.328 . S
C162 C163 1.457 . S
C162 H167 0.929 . S
C163 C162 1.457 . S
C163 C164 1.291 . S
C163 H176 0.931 . S
C164 C163 1.291 . S
C164 C165 1.373 1_556 S
C164 H177 0.929 . S
C165 C164 1.373 1_554 S
C165 C166 1.396 . S
C165 C172 1.403 . S
C166 C156 1.476 . S
C166 N161 1.318 1_554 S
C166 C165 1.396 . S
H167 C162 0.929 . S
O168 Mn144 2.385 . S
O168 C146 1.234 . S
O169 Mn144 2.209 . S
O169 Mn145 2.215 . S
O169 C146 1.283 . S
O170 Mn144 2.094 . S
O170 C148 1.240 . S
O171 Mn145 2.117 . S
O171 C148 1.264 . S
C172 C165 1.403 . S
C172 C173 1.399 . S
C172 H178 0.929 . S
C173 C153 1.449 . S
C173 C172 1.399 . S
C173 H179 0.930 . S
H174 C154 0.931 . S
H175 C155 0.930 . S
H176 C163 0.931 . S
H177 C164 0.929 . S
H178 C172 0.929 . S
H179 C173 0.930 . S
Mn180 O185 2.095 . S
Mn180 O195 2.162 . S
Mn180 O196 2.297 . S
Mn180 O204 2.385 . S
Mn180 O205 2.209 . S
Mn180 O206 2.094 . S
Mn181 O186 2.121 . S
Mn181 N188 2.257 . S
Mn181 N197 2.282 . S
Mn181 O205 2.215 . S
Mn181 O207 2.117 . S
C182 O204 1.234 . S
C182 O205 1.283 . S
C183 O195 1.281 . S
C183 O196 1.236 . S
C184 O206 1.240 . S
C184 O207 1.264 . S
O185 Mn180 2.095 . S
O185 C194 1.250 . S
O186 Mn181 2.121 . S
O186 C194 1.258 . S
C187 N188 1.326 . S
C187 C191 1.460 . S
C187 H193 0.929 . S
N188 Mn181 2.257 . S
N188 C187 1.326 . S
N188 C192 1.362 . S
C189 C190 1.258 . S
C189 C192 1.431 . S
C189 C209 1.449 1_655 S
C190 C189 1.258 . S
C190 C191 1.477 . S
C190 H210 0.931 . S
C191 C187 1.460 . S
C191 C190 1.477 . S
C191 H211 0.930 . S
C192 N188 1.362 . S
C192 C189 1.431 . S
C192 C202 1.476 . S
H193 C187 0.929 . S
C194 O185 1.250 . S
C194 O186 1.258 . S
O195 Mn180 2.162 . S
O195 C183 1.281 . S
O196 Mn180 2.297 . S
O196 C183 1.236 . S
N197 Mn181 2.282 . S
N197 C198 1.328 . S
N197 C202 1.318 . S
C198 N197 1.328 . S
C198 C199 1.457 . S
C198 H203 0.929 . S
C199 C198 1.457 . S
C199 C200 1.291 1_655 S
C199 H212 0.931 . S
C200 C199 1.291 1_455 S
C200 C201 1.368 1_455 S
C200 H213 0.929 . S
C201 C200 1.368 1_655 S
C201 C202 1.410 . S
C201 C208 1.394 1_655 S
C202 C192 1.476 . S
C202 N197 1.318 . S
C202 C201 1.410 . S
H203 C198 0.929 . S
O204 Mn180 2.385 . S
O204 C182 1.234 . S
O205 Mn180 2.209 . S
O205 Mn181 2.215 . S
O205 C182 1.283 . S
O206 Mn180 2.094 . S
O206 C184 1.240 . S
O207 Mn181 2.117 . S
O207 C184 1.264 . S
C208 C201 1.394 1_455 S
C208 C209 1.399 . S
C208 H214 0.929 . S
C209 C189 1.449 1_455 S
C209 C208 1.399 . S
C209 H215 0.930 . S
H210 C190 0.931 . S
H211 C191 0.930 . S
H212 C199 0.931 . S
H213 C200 0.929 . S
H214 C208 0.929 . S
H215 C209 0.930 . S
Mn216 O221 2.095 . S
Mn216 O231 2.162 . S
Mn216 O232 2.297 . S
Mn216 O240 2.385 . S
Mn216 O241 2.209 . S
Mn216 O242 2.094 . S
Mn217 O222 2.121 . S
Mn217 N224 2.257 . S
Mn217 N233 2.282 . S
Mn217 O241 2.215 . S
Mn217 O243 2.117 . S
C218 O240 1.234 . S
C218 O241 1.283 . S
C219 O231 1.281 . S
C219 O232 1.236 . S
C220 O242 1.240 . S
C220 O243 1.264 . S
O221 Mn216 2.095 . S
O221 C230 1.250 . S
O222 Mn217 2.121 . S
O222 C230 1.258 . S
C223 N224 1.326 . S
C223 C227 1.460 . S
C223 H229 0.929 . S
N224 Mn217 2.257 . S
N224 C223 1.326 . S
N224 C228 1.362 . S
C225 C226 1.258 . S
C225 C228 1.431 . S
C225 C245 1.449 . S
C226 C225 1.258 . S
C226 C227 1.477 . S
C226 H246 0.931 . S
C227 C223 1.460 . S
C227 C226 1.477 . S
C227 H247 0.930 . S
C228 N224 1.362 . S
C228 C225 1.431 . S
C228 C238 1.476 . S
H229 C223 0.929 . S
C230 O221 1.250 . S
C230 O222 1.258 . S
O231 Mn216 2.162 . S
O231 C219 1.281 . S
O232 Mn216 2.297 . S
O232 C219 1.236 . S
N233 Mn217 2.282 . S
N233 C234 1.328 . S
N233 C238 1.318 . S
C234 N233 1.328 . S
C234 C235 1.457 . S
C234 H239 0.929 . S
C235 C234 1.457 . S
C235 C236 1.291 . S
C235 H248 0.931 . S
C236 C235 1.291 . S
C236 C237 1.373 . S
C236 H249 0.929 . S
C237 C236 1.373 . S
C237 C238 1.396 . S
C237 C244 1.403 . S
C238 C228 1.476 . S
C238 N233 1.318 . S
C238 C237 1.396 . S
H239 C234 0.929 . S
O240 Mn216 2.385 . S
O240 C218 1.234 . S
O241 Mn216 2.209 . S
O241 Mn217 2.215 . S
O241 C218 1.283 . S
O242 Mn216 2.094 . S
O242 C220 1.240 . S
O243 Mn217 2.117 . S
O243 C220 1.264 . S
C244 C237 1.403 . S
C244 C245 1.399 . S
C244 H250 0.929 . S
C245 C225 1.449 . S
C245 C244 1.399 . S
C245 H251 0.930 . S
H246 C226 0.931 . S
H247 C227 0.930 . S
H248 C235 0.931 . S
H249 C236 0.929 . S
H250 C244 0.929 . S
H251 C245 0.930 . S
Mn252 O257 2.095 . S
Mn252 O267 2.162 . S
Mn252 O268 2.297 . S
Mn252 O276 2.385 . S
Mn252 O277 2.209 . S
Mn252 O278 2.094 . S
Mn253 O258 2.121 . S
Mn253 N260 2.257 . S
Mn253 N269 2.282 . S
Mn253 O277 2.215 . S
Mn253 O279 2.117 . S
C254 O276 1.234 . S
C254 O277 1.283 . S
C255 O267 1.281 . S
C255 O268 1.236 . S
C256 O278 1.240 . S
C256 O279 1.264 . S
O257 Mn252 2.095 . S
O257 C266 1.250 . S
O258 Mn253 2.121 . S
O258 C266 1.258 . S
C259 N260 1.326 . S
C259 C263 1.460 . S
C259 H265 0.929 . S
N260 Mn253 2.257 . S
N260 C259 1.326 . S
N260 C264 1.362 . S
C261 C262 1.258 . S
C261 C264 1.431 . S
C261 C281 1.449 . S
C262 C261 1.258 . S
C262 C263 1.477 . S
C262 H282 0.931 . S
C263 C259 1.460 . S
C263 C262 1.477 . S
C263 H283 0.930 . S
C264 N260 1.362 . S
C264 C261 1.431 . S
C264 C274 1.476 . S
H265 C259 0.929 . S
C266 O257 1.250 . S
C266 O258 1.258 . S
O267 Mn252 2.162 . S
O267 C255 1.281 . S
O268 Mn252 2.297 . S
O268 C255 1.236 . S
N269 Mn253 2.282 . S
N269 C270 1.328 . S
N269 C274 1.318 . S
C270 N269 1.328 . S
C270 C271 1.457 . S
C270 H275 0.929 . S
C271 C270 1.457 . S
C271 C272 1.291 . S
C271 H284 0.931 . S
C272 C271 1.291 . S
C272 C273 1.373 . S
C272 H285 0.929 . S
C273 C272 1.373 . S
C273 C274 1.396 . S
C273 C280 1.403 . S
C274 C264 1.476 . S
C274 N269 1.318 . S
C274 C273 1.396 . S
H275 C270 0.929 . S
O276 Mn252 2.385 . S
O276 C254 1.234 . S
O277 Mn252 2.209 . S
O277 Mn253 2.215 . S
O277 C254 1.283 . S
O278 Mn252 2.094 . S
O278 C256 1.240 . S
O279 Mn253 2.117 . S
O279 C256 1.264 . S
C280 C273 1.403 . S
C280 C281 1.399 . S
C280 H286 0.929 . S
C281 C261 1.449 . S
C281 C280 1.399 . S
C281 H287 0.930 . S
H282 C262 0.931 . S
H283 C263 0.930 . S
H284 C271 0.931 . S
H285 C272 0.929 . S
H286 C280 0.929 . S
H287 C281 0.930 . S
Mn288 O293 2.095 . S
Mn288 O303 2.162 . S
Mn288 O304 2.297 . S
Mn288 O312 2.385 . S
Mn288 O313 2.209 . S
Mn288 O314 2.094 . S
Mn289 O294 2.121 . S
Mn289 N296 2.257 . S
Mn289 N305 2.282 . S
Mn289 O313 2.215 . S
Mn289 O315 2.117 . S
C290 O312 1.234 . S
C290 O313 1.283 . S
C291 O303 1.281 . S
C291 O304 1.236 . S
C292 O314 1.240 . S
C292 O315 1.264 . S
O293 Mn288 2.095 . S
O293 C302 1.250 . S
O294 Mn289 2.121 . S
O294 C302 1.258 . S
C295 N296 1.326 . S
C295 C299 1.460 . S
C295 H301 0.929 . S
N296 Mn289 2.257 . S
N296 C295 1.326 . S
N296 C300 1.362 . S
C297 C298 1.258 . S
C297 C300 1.431 . S
C297 C317 1.449 . S
C298 C297 1.258 . S
C298 C299 1.477 . S
C298 H318 0.931 . S
C299 C295 1.460 . S
C299 C298 1.477 . S
C299 H319 0.930 . S
C300 N296 1.362 . S
C300 C297 1.431 . S
C300 C310 1.476 . S
H301 C295 0.929 . S
C302 O293 1.250 . S
C302 O294 1.258 . S
O303 Mn288 2.162 . S
O303 C291 1.281 . S
O304 Mn288 2.297 . S
O304 C291 1.236 . S
N305 Mn289 2.282 . S
N305 C306 1.328 . S
N305 C310 1.318 . S
C306 N305 1.328 . S
C306 C307 1.457 . S
C306 H311 0.929 . S
C307 C306 1.457 . S
C307 C308 1.291 . S
C307 H320 0.931 . S
C308 C307 1.291 . S
C308 C309 1.373 . S
C308 H321 0.929 1_655 S
C309 C308 1.373 . S
C309 C310 1.396 . S
C309 C316 1.403 1_655 S
C310 C300 1.476 . S
C310 N305 1.318 . S
C310 C309 1.396 . S
H311 C306 0.929 . S
O312 Mn288 2.385 . S
O312 C290 1.234 . S
O313 Mn288 2.209 . S
O313 Mn289 2.215 . S
O313 C290 1.283 . S
O314 Mn288 2.094 . S
O314 C292 1.240 . S
O315 Mn289 2.117 . S
O315 C292 1.264 . S
C316 C309 1.403 1_455 S
C316 C317 1.399 1_455 S
C316 H322 0.929 . S
C317 C297 1.449 . S
C317 C316 1.399 1_655 S
C317 H323 0.930 1_655 S
H318 C298 0.931 . S
H319 C299 0.930 . S
H320 C307 0.931 . S
H321 C308 0.929 1_455 S
H322 C316 0.929 . S
H323 C317 0.930 1_455 S
Mn324 O329 2.095 . S
Mn324 O339 2.162 . S
Mn324 O340 2.297 . S
Mn324 O348 2.385 . S
Mn324 O349 2.209 . S
Mn324 O350 2.094 . S
Mn325 O330 2.121 . S
Mn325 N332 2.257 . S
Mn325 N341 2.282 . S
Mn325 O349 2.215 . S
Mn325 O351 2.117 . S
C326 O348 1.234 . S
C326 O349 1.283 . S
C327 O339 1.281 . S
C327 O340 1.236 . S
C328 O350 1.240 . S
C328 O351 1.264 . S
O329 Mn324 2.095 . S
O329 C338 1.250 . S
O330 Mn325 2.121 . S
O330 C338 1.258 . S
C331 N332 1.326 . S
C331 C335 1.460 . S
C331 H337 0.929 . S
N332 Mn325 2.257 . S
N332 C331 1.326 . S
N332 C336 1.362 . S
C333 C334 1.258 . S
C333 C336 1.431 . S
C333 C353 1.449 . S
C334 C333 1.258 . S
C334 C335 1.477 . S
C334 H354 0.931 . S
C335 C331 1.460 . S
C335 C334 1.477 . S
C335 H355 0.930 . S
C336 N332 1.362 . S
C336 C333 1.431 . S
C336 C346 1.476 . S
H337 C331 0.929 . S
C338 O329 1.250 . S
C338 O330 1.258 . S
O339 Mn324 2.162 . S
O339 C327 1.281 . S
O340 Mn324 2.297 . S
O340 C327 1.236 . S
N341 Mn325 2.282 . S
N341 C342 1.328 . S
N341 C346 1.318 . S
C342 N341 1.328 . S
C342 C343 1.457 . S
C342 H347 0.929 . S
C343 C342 1.457 . S
C343 C344 1.291 . S
C343 H356 0.931 . S
C344 C343 1.291 . S
C344 C345 1.373 . S
C344 H357 0.929 . S
C345 C344 1.373 . S
C345 C346 1.396 . S
C345 C352 1.403 . S
C346 C336 1.476 . S
C346 N341 1.318 . S
C346 C345 1.396 . S
H347 C342 0.929 . S
O348 Mn324 2.385 . S
O348 C326 1.234 . S
O349 Mn324 2.209 . S
O349 Mn325 2.215 . S
O349 C326 1.283 . S
O350 Mn324 2.094 . S
O350 C328 1.240 . S
O351 Mn325 2.117 . S
O351 C328 1.264 . S
C352 C345 1.403 . S
C352 C353 1.399 . S
C352 H358 0.929 . S
C353 C333 1.449 . S
C353 C352 1.399 . S
C353 H359 0.930 . S
H354 C334 0.931 . S
H355 C335 0.930 . S
H356 C343 0.931 . S
H357 C344 0.929 . S
H358 C352 0.929 . S
H359 C353 0.930 . S
Mn360 O365 2.095 . S
Mn360 O375 2.162 . S
Mn360 O376 2.297 . S
Mn360 O384 2.385 . S
Mn360 O385 2.209 . S
Mn360 O386 2.094 . S
Mn361 O366 2.121 . S
Mn361 N368 2.257 . S
Mn361 N377 2.282 . S
Mn361 O385 2.215 . S
Mn361 O387 2.117 . S
C362 O384 1.234 . S
C362 O385 1.283 . S
C363 O375 1.281 . S
C363 O376 1.236 . S
C364 O386 1.240 . S
C364 O387 1.264 . S
O365 Mn360 2.095 . S
O365 C374 1.250 . S
O366 Mn361 2.121 . S
O366 C374 1.258 . S
C367 N368 1.326 . S
C367 C371 1.460 . S
C367 H373 0.929 . S
N368 Mn361 2.257 . S
N368 C367 1.326 . S
N368 C372 1.362 . S
C369 C370 1.258 . S
C369 C372 1.431 . S
C369 C389 1.449 . S
C370 C369 1.258 . S
C370 C371 1.477 . S
C370 H390 0.931 . S
C371 C367 1.460 . S
C371 C370 1.477 . S
C371 H391 0.930 . S
C372 N368 1.362 . S
C372 C369 1.431 . S
C372 C382 1.476 . S
H373 C367 0.929 . S
C374 O365 1.250 . S
C374 O366 1.258 . S
O375 Mn360 2.162 . S
O375 C363 1.281 . S
O376 Mn360 2.297 . S
O376 C363 1.236 . S
N377 Mn361 2.282 . S
N377 C378 1.328 . S
N377 C382 1.318 . S
C378 N377 1.328 . S
C378 C379 1.457 . S
C378 H383 0.929 . S
C379 C378 1.457 . S
C379 C380 1.291 . S
C379 H392 0.931 . S
C380 C379 1.291 . S
C380 C381 1.373 . S
C380 H393 0.929 . S
C381 C380 1.373 . S
C381 C382 1.396 . S
C381 C388 1.403 . S
C382 C372 1.476 . S
C382 N377 1.318 . S
C382 C381 1.396 . S
H383 C378 0.929 . S
O384 Mn360 2.385 . S
O384 C362 1.234 . S
O385 Mn360 2.209 . S
O385 Mn361 2.215 . S
O385 C362 1.283 . S
O386 Mn360 2.094 . S
O386 C364 1.240 . S
O387 Mn361 2.117 . S
O387 C364 1.264 . S
C388 C381 1.403 . S
C388 C389 1.399 . S
C388 H394 0.929 . S
C389 C369 1.449 . S
C389 C388 1.399 . S
C389 H395 0.930 . S
H390 C370 0.931 . S
H391 C371 0.930 . S
H392 C379 0.931 . S
H393 C380 0.929 . S
H394 C388 0.929 . S
H395 C389 0.930 . S
Mn396 O401 2.095 . S
Mn396 O411 2.162 . S
Mn396 O412 2.297 . S
Mn396 O420 2.385 . S
Mn396 O421 2.209 . S
Mn396 O422 2.094 . S
Mn397 O402 2.121 . S
Mn397 N404 2.257 . S
Mn397 N413 2.282 . S
Mn397 O421 2.215 . S
Mn397 O423 2.117 . S
C398 O420 1.234 . S
C398 O421 1.283 . S
C399 O411 1.281 . S
C399 O412 1.236 . S
C400 O422 1.240 . S
C400 O423 1.264 . S
O401 Mn396 2.095 . S
O401 C410 1.250 . S
O402 Mn397 2.121 . S
O402 C410 1.258 . S
C403 N404 1.326 . S
C403 C407 1.460 . S
C403 H409 0.929 . S
N404 Mn397 2.257 . S
N404 C403 1.326 . S
N404 C408 1.362 . S
C405 C406 1.258 . S
C405 C408 1.431 . S
C405 C425 1.449 1_455 S
C406 C405 1.258 . S
C406 C407 1.477 . S
C406 H426 0.931 . S
C407 C403 1.460 . S
C407 C406 1.477 . S
C407 H427 0.930 . S
C408 N404 1.362 . S
C408 C405 1.431 . S
C408 C418 1.476 . S
H409 C403 0.929 . S
C410 O401 1.250 . S
C410 O402 1.258 . S
O411 Mn396 2.162 . S
O411 C399 1.281 . S
O412 Mn396 2.297 . S
O412 C399 1.236 . S
N413 Mn397 2.282 . S
N413 C414 1.328 . S
N413 C418 1.318 . S
C414 N413 1.328 . S
C414 C415 1.457 . S
C414 H419 0.929 . S
C415 C414 1.457 . S
C415 C416 1.291 1_455 S
C415 H428 0.931 . S
C416 C415 1.291 1_655 S
C416 C417 1.380 . S
C416 H429 0.929 . S
C417 C416 1.380 . S
C417 C418 1.368 1_655 S
C417 C424 1.422 . S
C418 C408 1.476 . S
C418 N413 1.318 . S
C418 C417 1.368 1_455 S
H419 C414 0.929 . S
O420 Mn396 2.385 . S
O420 C398 1.234 . S
O421 Mn396 2.209 . S
O421 Mn397 2.215 . S
O421 C398 1.283 . S
O422 Mn396 2.094 . S
O422 C400 1.240 . S
O423 Mn397 2.117 . S
O423 C400 1.264 . S
C424 C417 1.422 . S
C424 C425 1.399 . S
C424 H430 0.929 . S
C425 C405 1.449 1_655 S
C425 C424 1.399 . S
C425 H431 0.930 . S
H426 C406 0.931 . S
H427 C407 0.930 . S
H428 C415 0.931 . S
H429 C416 0.929 . S
H430 C424 0.929 . S
H431 C425 0.930 . S
Mn432 O437 2.095 . S
Mn432 O447 2.162 . S
Mn432 O448 2.297 . S
Mn432 O456 2.385 . S
Mn432 O457 2.209 . S
Mn432 O458 2.094 . S
Mn433 O438 2.121 . S
Mn433 N440 2.257 1_554 S
Mn433 N449 2.282 . S
Mn433 O457 2.215 . S
Mn433 O459 2.117 . S
C434 O456 1.234 . S
C434 O457 1.283 . S
C435 O447 1.281 . S
C435 O448 1.236 . S
C436 O458 1.240 . S
C436 O459 1.264 . S
O437 Mn432 2.095 . S
O437 C446 1.250 . S
O438 Mn433 2.121 . S
O438 C446 1.258 . S
C439 N440 1.326 . S
C439 C443 1.460 . S
C439 H445 0.929 . S
N440 Mn433 2.257 1_556 S
N440 C439 1.326 . S
N440 C444 1.362 . S
C441 C442 1.258 . S
C441 C444 1.431 . S
C441 C461 1.449 . S
C442 C441 1.258 . S
C442 C443 1.477 . S
C442 H462 0.931 . S
C443 C439 1.460 . S
C443 C442 1.477 . S
C443 H463 0.930 . S
C444 N440 1.362 . S
C444 C441 1.431 . S
C444 C454 1.476 . S
H445 C439 0.929 . S
C446 O437 1.250 . S
C446 O438 1.258 . S
O447 Mn432 2.162 . S
O447 C435 1.281 . S
O448 Mn432 2.297 . S
O448 C435 1.236 . S
N449 Mn433 2.282 . S
N449 C450 1.328 . S
N449 C454 1.318 1_554 S
C450 N449 1.328 . S
C450 C451 1.457 . S
C450 H455 0.929 . S
C451 C450 1.457 . S
C451 C452 1.291 . S
C451 H464 0.931 . S
C452 C451 1.291 . S
C452 C453 1.373 1_554 S
C452 H465 0.929 . S
C453 C452 1.373 1_556 S
C453 C454 1.396 . S
C453 C460 1.403 . S
C454 C444 1.476 . S
C454 N449 1.318 1_556 S
C454 C453 1.396 . S
H455 C450 0.929 . S
O456 Mn432 2.385 . S
O456 C434 1.234 . S
O457 Mn432 2.209 . S
O457 Mn433 2.215 . S
O457 C434 1.283 . S
O458 Mn432 2.094 . S
O458 C436 1.240 . S
O459 Mn433 2.117 . S
O459 C436 1.264 . S
C460 C453 1.403 . S
C460 C461 1.399 . S
C460 H466 0.929 . S
C461 C441 1.449 . S
C461 C460 1.399 . S
C461 H467 0.930 . S
H462 C442 0.931 . S
H463 C443 0.930 . S
H464 C451 0.931 . S
H465 C452 0.929 . S
H466 C460 0.929 . S
H467 C461 0.930 . S
Mn468 O473 2.095 . S
Mn468 O483 2.162 . S
Mn468 O484 2.297 . S
Mn468 O492 2.385 . S
Mn468 O493 2.209 . S
Mn468 O494 2.094 . S
Mn469 O474 2.121 . S
Mn469 N476 2.257 . S
Mn469 N485 2.282 . S
Mn469 O493 2.215 . S
Mn469 O495 2.117 . S
C470 O492 1.234 . S
C470 O493 1.283 . S
C471 O483 1.281 . S
C471 O484 1.236 . S
C472 O494 1.240 . S
C472 O495 1.264 . S
O473 Mn468 2.095 . S
O473 C482 1.250 . S
O474 Mn469 2.121 . S
O474 C482 1.258 . S
C475 N476 1.326 . S
C475 C479 1.460 . S
C475 H481 0.929 . S
N476 Mn469 2.257 . S
N476 C475 1.326 . S
N476 C480 1.362 . S
C477 C478 1.258 . S
C477 C480 1.431 . S
C477 C497 1.449 1_455 S
C478 C477 1.258 . S
C478 C479 1.477 . S
C478 H498 0.931 . S
C479 C475 1.460 . S
C479 C478 1.477 . S
C479 H499 0.930 . S
C480 N476 1.362 . S
C480 C477 1.431 . S
C480 C490 1.476 . S
H481 C475 0.929 . S
C482 O473 1.250 . S
C482 O474 1.258 . S
O483 Mn468 2.162 . S
O483 C471 1.281 . S
O484 Mn468 2.297 . S
O484 C471 1.236 . S
N485 Mn469 2.282 . S
N485 C486 1.328 . S
N485 C490 1.318 . S
C486 N485 1.328 . S
C486 C487 1.457 . S
C486 H491 0.929 . S
C487 C486 1.457 . S
C487 C488 1.291 1_455 S
C487 H500 0.931 . S
C488 C487 1.291 1_655 S
C488 C489 1.365 1_655 S
C488 H501 0.929 . S
C489 C488 1.365 1_455 S
C489 C490 1.419 . S
C489 C496 1.388 1_455 S
C490 C480 1.476 . S
C490 N485 1.318 . S
C490 C489 1.419 . S
H491 C486 0.929 . S
O492 Mn468 2.385 . S
O492 C470 1.234 . S
O493 Mn468 2.209 . S
O493 Mn469 2.215 . S
O493 C470 1.283 . S
O494 Mn468 2.094 . S
O494 C472 1.240 . S
O495 Mn469 2.117 . S
O495 C472 1.264 . S
C496 C489 1.388 1_655 S
C496 C497 1.399 . S
C496 H502 0.929 . S
C497 C477 1.449 1_655 S
C497 C496 1.399 . S
C497 H503 0.930 . S
H498 C478 0.931 . S
H499 C479 0.930 . S
H500 C487 0.931 . S
H501 C488 0.929 . S
H502 C496 0.929 . S
H503 C497 0.930 . S
Mn504 O509 2.095 . S
Mn504 O519 2.162 . S
Mn504 O520 2.297 . S
Mn504 O528 2.385 . S
Mn504 O529 2.209 . S
Mn504 O530 2.094 . S
Mn505 O510 2.121 . S
Mn505 N512 2.257 . S
Mn505 N521 2.282 . S
Mn505 O529 2.215 . S
Mn505 O531 2.117 . S
C506 O528 1.234 . S
C506 O529 1.283 . S
C507 O519 1.281 . S
C507 O520 1.236 . S
C508 O530 1.240 . S
C508 O531 1.264 . S
O509 Mn504 2.095 . S
O509 C518 1.250 . S
O510 Mn505 2.121 . S
O510 C518 1.258 . S
C511 N512 1.326 . S
C511 C515 1.460 . S
C511 H517 0.929 . S
N512 Mn505 2.257 . S
N512 C511 1.326 . S
N512 C516 1.362 . S
C513 C514 1.258 . S
C513 C516 1.431 . S
C513 C533 1.449 . S
C514 C513 1.258 . S
C514 C515 1.477 . S
C514 H534 0.931 . S
C515 C511 1.460 . S
C515 C514 1.477 . S
C515 H535 0.930 . S
C516 N512 1.362 . S
C516 C513 1.431 . S
C516 C526 1.476 . S
H517 C511 0.929 . S
C518 O509 1.250 . S
C518 O510 1.258 . S
O519 Mn504 2.162 . S
O519 C507 1.281 . S
O520 Mn504 2.297 . S
O520 C507 1.236 . S
N521 Mn505 2.282 . S
N521 C522 1.328 . S
N521 C526 1.318 . S
C522 N521 1.328 . S
C522 C523 1.457 . S
C522 H527 0.929 . S
C523 C522 1.457 . S
C523 C524 1.291 . S
C523 H536 0.931 . S
C524 C523 1.291 . S
C524 C525 1.373 . S
C524 H537 0.929 . S
C525 C524 1.373 . S
C525 C526 1.396 . S
C525 C532 1.403 . S
C526 C516 1.476 . S
C526 N521 1.318 . S
C526 C525 1.396 . S
H527 C522 0.929 . S
O528 Mn504 2.385 . S
O528 C506 1.234 . S
O529 Mn504 2.209 . S
O529 Mn505 2.215 . S
O529 C506 1.283 . S
O530 Mn504 2.094 . S
O530 C508 1.240 . S
O531 Mn505 2.117 . S
O531 C508 1.264 . S
C532 C525 1.403 . S
C532 C533 1.399 . S
C532 H538 0.929 . S
C533 C513 1.449 . S
C533 C532 1.399 . S
C533 H539 0.930 . S
H534 C514 0.931 . S
H535 C515 0.930 . S
H536 C523 0.931 . S
H537 C524 0.929 . S
H538 C532 0.929 . S
H539 C533 0.930 . S
Mn540 O545 2.095 . S
Mn540 O555 2.162 . S
Mn540 O556 2.297 . S
Mn540 O564 2.385 . S
Mn540 O565 2.209 . S
Mn540 O566 2.094 . S
Mn541 O546 2.121 . S
Mn541 N548 2.257 . S
Mn541 N557 2.282 . S
Mn541 O565 2.215 . S
Mn541 O567 2.117 . S
C542 O564 1.234 . S
C542 O565 1.283 . S
C543 O555 1.281 . S
C543 O556 1.236 . S
C544 O566 1.240 . S
C544 O567 1.264 . S
O545 Mn540 2.095 . S
O545 C554 1.250 . S
O546 Mn541 2.121 . S
O546 C554 1.258 . S
C547 N548 1.326 . S
C547 C551 1.460 . S
C547 H553 0.929 . S
N548 Mn541 2.257 . S
N548 C547 1.326 . S
N548 C552 1.362 . S
C549 C550 1.258 . S
C549 C552 1.431 . S
C549 C569 1.449 . S
C550 C549 1.258 . S
C550 C551 1.477 . S
C550 H570 0.931 . S
C551 C547 1.460 . S
C551 C550 1.477 . S
C551 H571 0.930 . S
C552 N548 1.362 . S
C552 C549 1.431 . S
C552 C562 1.476 . S
H553 C547 0.929 . S
C554 O545 1.250 . S
C554 O546 1.258 . S
O555 Mn540 2.162 . S
O555 C543 1.281 . S
O556 Mn540 2.297 . S
O556 C543 1.236 . S
N557 Mn541 2.282 . S
N557 C558 1.328 . S
N557 C562 1.318 . S
C558 N557 1.328 . S
C558 C559 1.457 . S
C558 H563 0.929 . S
C559 C558 1.457 . S
C559 C560 1.291 . S
C559 H572 0.931 . S
C560 C559 1.291 . S
C560 C561 1.373 . S
C560 H573 0.929 . S
C561 C560 1.373 . S
C561 C562 1.396 . S
C561 C568 1.403 . S
C562 C552 1.476 . S
C562 N557 1.318 . S
C562 C561 1.396 . S
H563 C558 0.929 . S
O564 Mn540 2.385 . S
O564 C542 1.234 . S
O565 Mn540 2.209 . S
O565 Mn541 2.215 . S
O565 C542 1.283 . S
O566 Mn540 2.094 . S
O566 C544 1.240 . S
O567 Mn541 2.117 . S
O567 C544 1.264 . S
C568 C561 1.403 . S
C568 C569 1.399 . S
C568 H574 0.929 . S
C569 C549 1.449 . S
C569 C568 1.399 . S
C569 H575 0.930 . S
H570 C550 0.931 . S
H571 C551 0.930 . S
H572 C559 0.931 . S
H573 C560 0.929 . S
H574 C568 0.929 . S
H575 C569 0.930 . S
C576 C577 1.363 . S
C576 C582 1.379 . S
C576 N584 1.356 . S
C577 C576 1.363 . S
C577 C583 1.363 . S
C578 C579 1.363 . S
C578 C583 1.379 . S
C578 N585 1.356 . S
C579 C578 1.363 . S
C579 C582 1.363 . S
N580 C582 1.356 . S
N580 H592 0.984 . S
N580 H593 0.985 . S
N581 C583 1.356 . S
N581 H586 0.984 . S
N581 H587 0.985 . S
C582 C576 1.379 . S
C582 C579 1.363 . S
C582 N580 1.356 . S
C583 C577 1.363 . S
C583 C578 1.379 . S
C583 N581 1.356 . S
N584 C576 1.356 . S
N584 H590 0.984 . S
N584 H591 0.984 . S
N585 C578 1.356 . S
N585 H588 0.984 . S
N585 H589 0.985 . S
H586 N581 0.984 . S
H587 N581 0.985 . S
H588 N585 0.984 . S
H589 N585 0.985 . S
H590 N584 0.984 . S
H591 N584 0.984 . S
H592 N580 0.984 . S
H593 N580 0.985 . S
C594 C595 1.363 . S
C594 C600 1.379 . S
C594 N602 1.356 . S
C595 C594 1.363 . S
C595 C601 1.363 . S
C596 C597 1.363 . S
C596 C601 1.379 . S
C596 N603 1.356 . S
C597 C596 1.363 . S
C597 C600 1.363 . S
N598 C600 1.356 . S
N598 H610 0.984 . S
N598 H611 0.985 . S
N599 C601 1.356 . S
N599 H604 0.984 . S
N599 H605 0.985 . S
C600 C594 1.379 . S
C600 C597 1.363 . S
C600 N598 1.356 . S
C601 C595 1.363 . S
C601 C596 1.379 . S
C601 N599 1.356 . S
N602 C594 1.356 . S
N602 H608 0.984 . S
N602 H609 0.984 . S
N603 C596 1.356 . S
N603 H606 0.984 . S
N603 H607 0.985 . S
H604 N599 0.984 . S
H605 N599 0.985 . S
H606 N603 0.984 . S
H607 N603 0.985 . S
H608 N602 0.984 . S
H609 N602 0.984 . S
H610 N598 0.984 . S
H611 N598 0.985 . S
C612 C613 1.363 . S
C612 C618 1.379 . S
C612 N620 1.356 . S
C613 C612 1.363 . S
C613 C619 1.363 . S
C614 C615 1.363 . S
C614 C619 1.379 . S
C614 N621 1.356 . S
C615 C614 1.363 . S
C615 C618 1.363 . S
N616 C618 1.356 . S
N616 H628 0.984 . S
N616 H629 0.985 . S
N617 C619 1.356 . S
N617 H622 0.984 . S
N617 H623 0.985 . S
C618 C612 1.379 . S
C618 C615 1.363 . S
C618 N616 1.356 . S
C619 C613 1.363 . S
C619 C614 1.379 . S
C619 N617 1.356 . S
N620 C612 1.356 . S
N620 H626 0.984 . S
N620 H627 0.984 . S
N621 C614 1.356 . S
N621 H624 0.984 . S
N621 H625 0.985 . S
H622 N617 0.984 . S
H623 N617 0.985 . S
H624 N621 0.984 . S
H625 N621 0.985 . S
H626 N620 0.984 . S
H627 N620 0.984 . S
H628 N616 0.984 . S
H629 N616 0.985 . S
C630 C631 1.363 . S
C630 C636 1.379 1_455 S
C630 N638 1.356 . S
C631 C630 1.363 . S
C631 C637 1.363 . S
C632 C633 1.363 . S
C632 C637 1.379 1_655 S
C632 N639 1.356 . S
C633 C632 1.363 . S
C633 C636 1.363 . S
N634 C636 1.356 . S
N634 H646 0.984 . S
N634 H647 0.985 . S
N635 C637 1.356 . S
N635 H640 0.984 . S
N635 H641 0.985 . S
C636 C630 1.379 1_655 S
C636 C633 1.363 . S
C636 N634 1.356 . S
C637 C631 1.363 . S
C637 C632 1.379 1_455 S
C637 N635 1.356 . S
N638 C630 1.356 . S
N638 H644 0.984 . S
N638 H645 0.984 . S
N639 C632 1.356 . S
N639 H642 0.984 . S
N639 H643 0.985 . S
H640 N635 0.984 . S
H641 N635 0.985 . S
H642 N639 0.984 . S
H643 N639 0.985 . S
H644 N638 0.984 . S
H645 N638 0.984 . S
H646 N634 0.984 . S
H647 N634 0.985 . S
C648 C649 1.363 . S
C648 C654 1.379 . S
C648 N656 1.356 . S
C649 C648 1.363 . S
C649 C655 1.363 . S
C650 C651 1.363 . S
C650 C655 1.379 . S
C650 N657 1.356 . S
C651 C650 1.363 . S
C651 C654 1.363 . S
N652 C654 1.356 . S
N652 H664 0.984 . S
N652 H665 0.985 . S
N653 C655 1.356 . S
N653 H658 0.984 . S
N653 H659 0.985 . S
C654 C648 1.379 . S
C654 C651 1.363 . S
C654 N652 1.356 . S
C655 C649 1.363 . S
C655 C650 1.379 . S
C655 N653 1.356 . S
N656 C648 1.356 . S
N656 H662 0.984 . S
N656 H663 0.984 . S
N657 C650 1.356 . S
N657 H660 0.984 . S
N657 H661 0.985 . S
H658 N653 0.984 . S
H659 N653 0.985 . S
H660 N657 0.984 . S
H661 N657 0.985 . S
H662 N656 0.984 . S
H663 N656 0.984 . S
H664 N652 0.984 . S
H665 N652 0.985 . S
C666 C667 1.363 . S
C666 C672 1.379 1_655 S
C666 N674 1.356 . S
C667 C666 1.363 . S
C667 C673 1.363 . S
C668 C669 1.363 . S
C668 C673 1.379 1_455 S
C668 N675 1.356 . S
C669 C668 1.363 . S
C669 C672 1.363 . S
N670 C672 1.356 . S
N670 H682 0.984 . S
N670 H683 0.985 . S
N671 C673 1.356 . S
N671 H676 0.984 . S
N671 H677 0.985 . S
C672 C666 1.379 1_455 S
C672 C669 1.363 . S
C672 N670 1.356 . S
C673 C667 1.363 . S
C673 C668 1.379 1_655 S
C673 N671 1.356 . S
N674 C666 1.356 . S
N674 H680 0.984 . S
N674 H681 0.984 . S
N675 C668 1.356 . S
N675 H678 0.984 . S
N675 H679 0.985 . S
H676 N671 0.984 . S
H677 N671 0.985 . S
H678 N675 0.984 . S
H679 N675 0.985 . S
H680 N674 0.984 . S
H681 N674 0.984 . S
H682 N670 0.984 . S
H683 N670 0.985 . S
C684 C685 1.363 . S
C684 C690 1.379 . S
C684 N692 1.356 . S
C685 C684 1.363 . S
C685 C691 1.363 . S
C686 C687 1.363 . S
C686 C691 1.379 . S
C686 N693 1.356 . S
C687 C686 1.363 . S
C687 C690 1.363 . S
N688 C690 1.356 . S
N688 H700 0.984 . S
N688 H701 0.985 . S
N689 C691 1.356 . S
N689 H694 0.984 . S
N689 H695 0.985 . S
C690 C684 1.379 . S
C690 C687 1.363 . S
C690 N688 1.356 . S
C691 C685 1.363 . S
C691 C686 1.379 . S
C691 N689 1.356 . S
N692 C684 1.356 . S
N692 H698 0.984 . S
N692 H699 0.984 . S
N693 C686 1.356 . S
N693 H696 0.984 . S
N693 H697 0.985 . S
H694 N689 0.984 . S
H695 N689 0.985 . S
H696 N693 0.984 . S
H697 N693 0.985 . S
H698 N692 0.984 . S
H699 N692 0.984 . S
H700 N688 0.984 . S
H701 N688 0.985 . S
C702 C703 1.363 . S
C702 C708 1.379 . S
C702 N710 1.356 . S
C703 C702 1.363 . S
C703 C709 1.363 . S
C704 C705 1.363 . S
C704 C709 1.379 . S
C704 N711 1.356 . S
C705 C704 1.363 . S
C705 C708 1.363 . S
N706 C708 1.356 . S
N706 H718 0.984 . S
N706 H719 0.985 . S
N707 C709 1.356 . S
N707 H712 0.984 . S
N707 H713 0.985 . S
C708 C702 1.379 . S
C708 C705 1.363 . S
C708 N706 1.356 . S
C709 C703 1.363 . S
C709 C704 1.379 . S
C709 N707 1.356 . S
N710 C702 1.356 . S
N710 H716 0.984 . S
N710 H717 0.984 . S
N711 C704 1.356 . S
N711 H714 0.984 . S
N711 H715 0.985 . S
H712 N707 0.984 . S
H713 N707 0.985 . S
H714 N711 0.984 . S
H715 N711 0.985 . S
H716 N710 0.984 . S
H717 N710 0.984 . S
H718 N706 0.984 . S
H719 N706 0.985 . S
C720 C721 1.363 . S
C720 C726 1.379 . S
C720 N728 1.356 . S
C721 C720 1.363 . S
C721 C727 1.363 . S
C722 C723 1.363 . S
C722 C727 1.379 . S
C722 N729 1.356 . S
C723 C722 1.363 . S
C723 C726 1.363 . S
N724 C726 1.356 . S
N724 H736 0.984 . S
N724 H737 0.985 . S
N725 C727 1.356 . S
N725 H730 0.984 . S
N725 H731 0.985 . S
C726 C720 1.379 . S
C726 C723 1.363 . S
C726 N724 1.356 . S
C727 C721 1.363 . S
C727 C722 1.379 . S
C727 N725 1.356 . S
N728 C720 1.356 . S
N728 H734 0.984 . S
N728 H735 0.984 . S
N729 C722 1.356 . S
N729 H732 0.984 . S
N729 H733 0.985 . S
H730 N725 0.984 . S
H731 N725 0.985 . S
H732 N729 0.984 . S
H733 N729 0.985 . S
H734 N728 0.984 . S
H735 N728 0.984 . S
H736 N724 0.984 . S
H737 N724 0.985 . S
C738 C739 1.363 . S
C738 C744 1.379 . S
C738 N746 1.356 . S
C739 C738 1.363 . S
C739 C745 1.363 . S
C740 C741 1.363 . S
C740 C745 1.379 . S
C740 N747 1.356 . S
C741 C740 1.363 . S
C741 C744 1.363 . S
N742 C744 1.356 . S
N742 H754 0.984 . S
N742 H755 0.985 . S
N743 C745 1.356 . S
N743 H748 0.984 . S
N743 H749 0.985 . S
C744 C738 1.379 . S
C744 C741 1.363 . S
C744 N742 1.356 . S
C745 C739 1.363 . S
C745 C740 1.379 . S
C745 N743 1.356 . S
N746 C738 1.356 . S
N746 H752 0.984 . S
N746 H753 0.984 . S
N747 C740 1.356 . S
N747 H750 0.984 . S
N747 H751 0.985 . S
H748 N743 0.984 . S
H749 N743 0.985 . S
H750 N747 0.984 . S
H751 N747 0.985 . S
H752 N746 0.984 . S
H753 N746 0.984 . S
H754 N742 0.984 . S
H755 N742 0.985 . S
C756 C757 1.363 . S
C756 C762 1.379 . S
C756 N764 1.356 . S
C757 C756 1.363 . S
C757 C763 1.363 . S
C758 C759 1.363 . S
C758 C763 1.379 . S
C758 N765 1.356 . S
C759 C758 1.363 . S
C759 C762 1.363 . S
N760 C762 1.356 . S
N760 H772 0.984 . S
N760 H773 0.985 . S
N761 C763 1.356 . S
N761 H766 0.984 . S
N761 H767 0.985 . S
C762 C756 1.379 . S
C762 C759 1.363 . S
C762 N760 1.356 . S
C763 C757 1.363 . S
C763 C758 1.379 . S
C763 N761 1.356 . S
N764 C756 1.356 . S
N764 H770 0.984 . S
N764 H771 0.984 . S
N765 C758 1.356 . S
N765 H768 0.984 . S
N765 H769 0.985 . S
H766 N761 0.984 . S
H767 N761 0.985 . S
H768 N765 0.984 . S
H769 N765 0.985 . S
H770 N764 0.984 . S
H771 N764 0.984 . S
H772 N760 0.984 . S
H773 N760 0.985 . S
C774 C775 1.363 . S
C774 C780 1.379 . S
C774 N782 1.356 . S
C775 C774 1.363 . S
C775 C781 1.363 . S
C776 C777 1.363 . S
C776 C781 1.379 . S
C776 N783 1.356 . S
C777 C776 1.363 . S
C777 C780 1.363 . S
N778 C780 1.356 . S
N778 H790 0.984 . S
N778 H791 0.985 . S
N779 C781 1.356 . S
N779 H784 0.984 . S
N779 H785 0.985 . S
C780 C774 1.379 . S
C780 C777 1.363 . S
C780 N778 1.356 . S
C781 C775 1.363 . S
C781 C776 1.379 . S
C781 N779 1.356 . S
N782 C774 1.356 . S
N782 H788 0.984 . S
N782 H789 0.984 . S
N783 C776 1.356 . S
N783 H786 0.984 . S
N783 H787 0.985 . S
H784 N779 0.984 . S
H785 N779 0.985 . S
H786 N783 0.984 . S
H787 N783 0.985 . S
H788 N782 0.984 . S
H789 N782 0.984 . S
H790 N778 0.984 . S
H791 N778 0.985 . S
C792 C793 1.363 . S
C792 C798 1.379 1_455 S
C792 N800 1.356 . S
C793 C792 1.363 . S
C793 C799 1.363 . S
C794 C795 1.363 . S
C794 C799 1.379 1_655 S
C794 N801 1.356 . S
C795 C794 1.363 . S
C795 C798 1.363 . S
N796 C798 1.356 . S
N796 H808 0.984 . S
N796 H809 0.985 . S
N797 C799 1.356 . S
N797 H802 0.984 . S
N797 H803 0.985 . S
C798 C792 1.379 1_655 S
C798 C795 1.363 . S
C798 N796 1.356 . S
C799 C793 1.363 . S
C799 C794 1.379 1_455 S
C799 N797 1.356 . S
N800 C792 1.356 . S
N800 H806 0.984 . S
N800 H807 0.984 . S
N801 C794 1.356 . S
N801 H804 0.984 . S
N801 H805 0.985 . S
H802 N797 0.984 . S
H803 N797 0.985 . S
H804 N801 0.984 . S
H805 N801 0.985 . S
H806 N800 0.984 . S
H807 N800 0.984 . S
H808 N796 0.984 . S
H809 N796 0.985 . S
C810 C811 1.363 . S
C810 C816 1.379 . S
C810 N818 1.356 . S
C811 C810 1.363 . S
C811 C817 1.363 . S
C812 C813 1.363 . S
C812 C817 1.379 . S
C812 N819 1.356 . S
C813 C812 1.363 . S
C813 C816 1.363 . S
N814 C816 1.356 . S
N814 H826 0.984 . S
N814 H827 0.985 . S
N815 C817 1.356 . S
N815 H820 0.984 . S
N815 H821 0.985 . S
C816 C810 1.379 . S
C816 C813 1.363 . S
C816 N814 1.356 . S
C817 C811 1.363 . S
C817 C812 1.379 . S
C817 N815 1.356 . S
N818 C810 1.356 . S
N818 H824 0.984 . S
N818 H825 0.984 . S
N819 C812 1.356 . S
N819 H822 0.984 . S
N819 H823 0.985 . S
H820 N815 0.984 . S
H821 N815 0.985 . S
H822 N819 0.984 . S
H823 N819 0.985 . S
H824 N818 0.984 . S
H825 N818 0.984 . S
H826 N814 0.984 . S
H827 N814 0.985 . S
C828 C829 1.363 . S
C828 C834 1.379 . S
C828 N836 1.356 . S
C829 C828 1.363 . S
C829 C835 1.363 . S
C830 C831 1.363 . S
C830 C835 1.379 . S
C830 N837 1.356 . S
C831 C830 1.363 . S
C831 C834 1.363 . S
N832 C834 1.356 . S
N832 H844 0.984 . S
N832 H845 0.985 . S
N833 C835 1.356 . S
N833 H838 0.984 . S
N833 H839 0.985 . S
C834 C828 1.379 . S
C834 C831 1.363 . S
C834 N832 1.356 . S
C835 C829 1.363 . S
C835 C830 1.379 . S
C835 N833 1.356 . S
N836 C828 1.356 . S
N836 H842 0.984 . S
N836 H843 0.984 . S
N837 C830 1.356 . S
N837 H840 0.984 . S
N837 H841 0.985 . S
H838 N833 0.984 . S
H839 N833 0.985 . S
H840 N837 0.984 . S
H841 N837 0.985 . S
H842 N836 0.984 . S
H843 N836 0.984 . S
H844 N832 0.984 . S
H845 N832 0.985 . S
C846 C847 1.363 . S
C846 C852 1.379 1_455 S
C846 N854 1.356 . S
C847 C846 1.363 . S
C847 C853 1.363 . S
C848 C849 1.363 . S
C848 C853 1.379 1_655 S
C848 N855 1.356 . S
C849 C848 1.363 . S
C849 C852 1.363 . S
N850 C852 1.356 . S
N850 H862 0.984 . S
N850 H863 0.985 . S
N851 C853 1.356 . S
N851 H856 0.984 . S
N851 H857 0.985 . S
C852 C846 1.379 1_655 S
C852 C849 1.363 . S
C852 N850 1.356 . S
C853 C847 1.363 . S
C853 C848 1.379 1_455 S
C853 N851 1.356 . S
N854 C846 1.356 . S
N854 H860 0.984 . S
N854 H861 0.984 . S
N855 C848 1.356 . S
N855 H858 0.984 . S
N855 H859 0.985 . S
H856 N851 0.984 . S
H857 N851 0.985 . S
H858 N855 0.984 . S
H859 N855 0.985 . S
H860 N854 0.984 . S
H861 N854 0.984 . S
H862 N850 0.984 . S
H863 N850 0.985 . S
C864 C865 1.363 . S
C864 C870 1.379 . S
C864 N872 1.356 . S
C865 C864 1.363 . S
C865 C871 1.363 1_554 S
C866 C867 1.363 . S
C866 C871 1.379 . S
C866 N873 1.356 . S
C867 C866 1.363 . S
C867 C870 1.363 1_556 S
N868 C870 1.356 . S
N868 H880 0.984 . S
N868 H881 0.985 1_554 S
N869 C871 1.356 . S
N869 H874 0.984 . S
N869 H875 0.985 . S
C870 C864 1.379 . S
C870 C867 1.363 1_554 S
C870 N868 1.356 . S
C871 C865 1.363 1_556 S
C871 C866 1.379 . S
C871 N869 1.356 . S
N872 C864 1.356 . S
N872 H878 0.984 . S
N872 H879 0.984 . S
N873 C866 1.356 . S
N873 H876 0.984 . S
N873 H877 0.985 . S
H874 N869 0.984 . S
H875 N869 0.985 . S
H876 N873 0.984 . S
H877 N873 0.985 . S
H878 N872 0.984 . S
H879 N872 0.984 . S
H880 N868 0.984 . S
H881 N868 0.985 1_556 S
C882 C883 1.363 . S
C882 C888 1.379 . S
C882 N890 1.356 . S
C883 C882 1.363 . S
C883 C889 1.363 . S
C884 C885 1.363 . S
C884 C889 1.379 . S
C884 N891 1.356 . S
C885 C884 1.363 . S
C885 C888 1.363 . S
N886 C888 1.356 . S
N886 H898 0.984 . S
N886 H899 0.985 . S
N887 C889 1.356 . S
N887 H892 0.984 . S
N887 H893 0.985 . S
C888 C882 1.379 . S
C888 C885 1.363 . S
C888 N886 1.356 . S
C889 C883 1.363 . S
C889 C884 1.379 . S
C889 N887 1.356 . S
N890 C882 1.356 . S
N890 H896 0.984 . S
N890 H897 0.984 . S
N891 C884 1.356 . S
N891 H894 0.984 . S
N891 H895 0.985 . S
H892 N887 0.984 . S
H893 N887 0.985 . S
H894 N891 0.984 . S
H895 N891 0.985 . S
H896 N890 0.984 . S
H897 N890 0.984 . S
H898 N886 0.984 . S
H899 N886 0.985 . S
C900 C901 1.363 . S
C900 C906 1.379 . S
C900 N908 1.356 . S
C901 C900 1.363 . S
C901 C907 1.363 . S
C902 C903 1.363 . S
C902 C907 1.379 . S
C902 N909 1.356 . S
C903 C902 1.363 . S
C903 C906 1.363 . S
N904 C906 1.356 . S
N904 H916 0.984 . S
N904 H917 0.985 . S
N905 C907 1.356 . S
N905 H910 0.984 . S
N905 H911 0.985 . S
C906 C900 1.379 . S
C906 C903 1.363 . S
C906 N904 1.356 . S
C907 C901 1.363 . S
C907 C902 1.379 . S
C907 N905 1.356 . S
N908 C900 1.356 . S
N908 H914 0.984 . S
N908 H915 0.984 . S
N909 C902 1.356 . S
N909 H912 0.984 . S
N909 H913 0.985 . S
H910 N905 0.984 . S
H911 N905 0.985 . S
H912 N909 0.984 . S
H913 N909 0.985 . S
H914 N908 0.984 . S
H915 N908 0.984 . S
H916 N904 0.984 . S
H917 N904 0.985 . S
C918 C919 1.363 . S
C918 C924 1.379 . S
C918 N926 1.356 . S
C919 C918 1.363 . S
C919 C925 1.363 . S
C920 C921 1.363 . S
C920 C925 1.379 . S
C920 N927 1.356 . S
C921 C920 1.363 . S
C921 C924 1.363 . S
N922 C924 1.356 . S
N922 H934 0.984 . S
N922 H935 0.985 . S
N923 C925 1.356 . S
N923 H928 0.984 . S
N923 H929 0.985 . S
C924 C918 1.379 . S
C924 C921 1.363 . S
C924 N922 1.356 . S
C925 C919 1.363 . S
C925 C920 1.379 . S
C925 N923 1.356 . S
N926 C918 1.356 . S
N926 H932 0.984 . S
N926 H933 0.984 . S
N927 C920 1.356 . S
N927 H930 0.984 . S
N927 H931 0.985 . S
H928 N923 0.984 . S
H929 N923 0.985 . S
H930 N927 0.984 . S
H931 N927 0.985 . S
H932 N926 0.984 . S
H933 N926 0.984 . S
H934 N922 0.984 . S
H935 N922 0.985 . S
C936 C937 1.363 . S
C936 C942 1.379 . S
C936 N944 1.356 . S
C937 C936 1.363 . S
C937 C943 1.363 1_556 S
C938 C939 1.363 . S
C938 C943 1.379 . S
C938 N945 1.356 . S
C939 C938 1.363 . S
C939 C942 1.363 1_554 S
N940 C942 1.356 . S
N940 H952 0.984 . S
N940 H953 0.985 1_556 S
N941 C943 1.356 . S
N941 H946 0.984 . S
N941 H947 0.985 . S
C942 C936 1.379 . S
C942 C939 1.363 1_556 S
C942 N940 1.356 . S
C943 C937 1.363 1_554 S
C943 C938 1.379 . S
C943 N941 1.356 . S
N944 C936 1.356 . S
N944 H950 0.984 . S
N944 H951 0.984 . S
N945 C938 1.356 . S
N945 H948 0.984 . S
N945 H949 0.985 . S
H946 N941 0.984 . S
H947 N941 0.985 . S
H948 N945 0.984 . S
H949 N945 0.985 . S
H950 N944 0.984 . S
H951 N944 0.984 . S
H952 N940 0.984 . S
H953 N940 0.985 1_554 S
C954 C955 1.363 . S
C954 C960 1.379 . S
C954 N962 1.356 . S
C955 C954 1.363 . S
C955 C961 1.363 . S
C956 C957 1.363 . S
C956 C961 1.379 . S
C956 N963 1.356 . S
C957 C956 1.363 . S
C957 C960 1.363 . S
N958 C960 1.356 . S
N958 H970 0.984 . S
N958 H971 0.985 . S
N959 C961 1.356 . S
N959 H964 0.984 . S
N959 H965 0.985 . S
C960 C954 1.379 . S
C960 C957 1.363 . S
C960 N958 1.356 . S
C961 C955 1.363 . S
C961 C956 1.379 . S
C961 N959 1.356 . S
N962 C954 1.356 . S
N962 H968 0.984 . S
N962 H969 0.984 . S
N963 C956 1.356 . S
N963 H966 0.984 . S
N963 H967 0.985 . S
H964 N959 0.984 . S
H965 N959 0.985 . S
H966 N963 0.984 . S
H967 N963 0.985 . S
H968 N962 0.984 . S
H969 N962 0.984 . S
H970 N958 0.984 . S
H971 N958 0.985 . S
C972 C973 1.363 . S
C972 C978 1.379 . S
C972 N980 1.356 . S
C973 C972 1.363 . S
C973 C979 1.363 . S
C974 C975 1.363 . S
C974 C979 1.379 . S
C974 N981 1.356 . S
C975 C974 1.363 . S
C975 C978 1.363 . S
N976 C978 1.356 . S
N976 H988 0.984 . S
N976 H989 0.985 . S
N977 C979 1.356 . S
N977 H982 0.984 . S
N977 H983 0.985 . S
C978 C972 1.379 . S
C978 C975 1.363 . S
C978 N976 1.356 . S
C979 C973 1.363 . S
C979 C974 1.379 . S
C979 N977 1.356 . S
N980 C972 1.356 . S
N980 H986 0.984 . S
N980 H987 0.984 . S
N981 C974 1.356 . S
N981 H984 0.984 . S
N981 H985 0.985 . S
H982 N977 0.984 . S
H983 N977 0.985 . S
H984 N981 0.984 . S
H985 N981 0.985 . S
H986 N980 0.984 . S
H987 N980 0.984 . S
H988 N976 0.984 . S
H989 N976 0.985 . S
C990 C991 1.363 . S
C990 C996 1.379 . S
C990 N998 1.356 . S
C991 C990 1.363 . S
C991 C997 1.363 . S
C992 C993 1.363 . S
C992 C997 1.379 . S
C992 N999 1.356 . S
C993 C992 1.363 . S
C993 C996 1.363 . S
N994 C996 1.356 . S
N994 H1006 0.984 . S
N994 H1007 0.985 . S
N995 C997 1.356 . S
N995 H1000 0.984 . S
N995 H1001 0.985 . S
C996 C990 1.379 . S
C996 C993 1.363 . S
C996 N994 1.356 . S
C997 C991 1.363 . S
C997 C992 1.379 . S
C997 N995 1.356 . S
N998 C990 1.356 . S
N998 H1004 0.984 . S
N998 H1005 0.984 . S
N999 C992 1.356 . S
N999 H1002 0.984 . S
N999 H1003 0.985 . S
H1000 N995 0.984 . S
H1001 N995 0.985 . S
H1002 N999 0.984 . S
H1003 N999 0.985 . S
H1004 N998 0.984 . S
H1005 N998 0.984 . S
H1006 N994 0.984 . S
H1007 N994 0.985 . S
C1008 C1009 1.363 . S
C1008 C1014 1.379 1_545 S
C1008 N1016 1.356 . S
C1009 C1008 1.363 . S
C1009 C1015 1.363 . S
C1010 C1011 1.363 . S
C1010 C1015 1.379 1_565 S
C1010 N1017 1.356 . S
C1011 C1010 1.363 . S
C1011 C1014 1.363 . S
N1012 C1014 1.356 . S
N1012 H1024 0.984 . S
N1012 H1025 0.985 . S
N1013 C1015 1.356 . S
N1013 H1018 0.984 . S
N1013 H1019 0.985 . S
C1014 C1008 1.379 1_565 S
C1014 C1011 1.363 . S
C1014 N1012 1.356 . S
C1015 C1009 1.363 . S
C1015 C1010 1.379 1_545 S
C1015 N1013 1.356 . S
N1016 C1008 1.356 . S
N1016 H1022 0.984 . S
N1016 H1023 0.984 . S
N1017 C1010 1.356 . S
N1017 H1020 0.984 . S
N1017 H1021 0.985 . S
H1018 N1013 0.984 . S
H1019 N1013 0.985 . S
H1020 N1017 0.984 . S
H1021 N1017 0.985 . S
H1022 N1016 0.984 . S
H1023 N1016 0.984 . S
H1024 N1012 0.984 . S
H1025 N1012 0.985 . S
C1026 C1027 1.363 . S
C1026 C1032 1.379 . S
C1026 N1034 1.356 . S
C1027 C1026 1.363 . S
C1027 C1033 1.363 . S
C1028 C1029 1.363 . S
C1028 C1033 1.379 . S
C1028 N1035 1.356 . S
C1029 C1028 1.363 . S
C1029 C1032 1.363 . S
N1030 C1032 1.356 . S
N1030 H1042 0.984 . S
N1030 H1043 0.985 . S
N1031 C1033 1.356 . S
N1031 H1036 0.984 . S
N1031 H1037 0.985 . S
C1032 C1026 1.379 . S
C1032 C1029 1.363 . S
C1032 N1030 1.356 . S
C1033 C1027 1.363 . S
C1033 C1028 1.379 . S
C1033 N1031 1.356 . S
N1034 C1026 1.356 . S
N1034 H1040 0.984 . S
N1034 H1041 0.984 . S
N1035 C1028 1.356 . S
N1035 H1038 0.984 . S
N1035 H1039 0.985 . S
H1036 N1031 0.984 . S
H1037 N1031 0.985 . S
H1038 N1035 0.984 . S
H1039 N1035 0.985 . S
H1040 N1034 0.984 . S
H1041 N1034 0.984 . S
H1042 N1030 0.984 . S
H1043 N1030 0.985 . S
C1044 C1045 1.363 1_554 S
C1044 C1050 1.379 1_545 S
C1044 N1052 1.356 . S
C1045 C1044 1.363 1_556 S
C1045 C1051 1.363 1_545 S
C1046 C1047 1.363 1_556 S
C1046 C1051 1.379 . S
C1046 N1053 1.356 . S
C1047 C1046 1.363 1_554 S
C1047 C1050 1.363 . S
N1048 C1050 1.356 . S
N1048 H1060 0.984 . S
N1048 H1061 0.985 . S
N1049 C1051 1.356 1_545 S
N1049 H1054 0.984 . S
N1049 H1055 0.985 1_545 S
C1050 C1044 1.379 1_565 S
C1050 C1047 1.363 . S
C1050 N1048 1.356 . S
C1051 C1045 1.363 1_565 S
C1051 C1046 1.379 . S
C1051 N1049 1.356 1_565 S
N1052 C1044 1.356 . S
N1052 H1058 0.984 . S
N1052 H1059 0.984 1_554 S
N1053 C1046 1.356 . S
N1053 H1056 0.984 . S
N1053 H1057 0.985 . S
H1054 N1049 0.984 . S
H1055 N1049 0.985 1_565 S
H1056 N1053 0.984 . S
H1057 N1053 0.985 . S
H1058 N1052 0.984 . S
H1059 N1052 0.984 1_556 S
H1060 N1048 0.984 . S
H1061 N1048 0.985 . S
C1062 C1063 1.363 . S
C1062 C1068 1.379 . S
C1062 N1070 1.356 . S
C1063 C1062 1.363 . S
C1063 C1069 1.363 . S
C1064 C1065 1.363 . S
C1064 C1069 1.379 . S
C1064 N1071 1.356 . S
C1065 C1064 1.363 . S
C1065 C1068 1.363 . S
N1066 C1068 1.356 . S
N1066 H1078 0.984 . S
N1066 H1079 0.985 . S
N1067 C1069 1.356 . S
N1067 H1072 0.984 . S
N1067 H1073 0.985 . S
C1068 C1062 1.379 . S
C1068 C1065 1.363 . S
C1068 N1066 1.356 . S
C1069 C1063 1.363 . S
C1069 C1064 1.379 . S
C1069 N1067 1.356 . S
N1070 C1062 1.356 . S
N1070 H1076 0.984 . S
N1070 H1077 0.984 . S
N1071 C1064 1.356 . S
N1071 H1074 0.984 . S
N1071 H1075 0.985 . S
H1072 N1067 0.984 . S
H1073 N1067 0.985 . S
H1074 N1071 0.984 . S
H1075 N1071 0.985 . S
H1076 N1070 0.984 . S
H1077 N1070 0.984 . S
H1078 N1066 0.984 . S
H1079 N1066 0.985 . S
C1080 C1081 1.363 . S
C1080 C1086 1.379 1_545 S
C1080 N1088 1.356 . S
C1081 C1080 1.363 . S
C1081 C1087 1.363 . S
C1082 C1083 1.363 . S
C1082 C1087 1.379 1_565 S
C1082 N1089 1.356 . S
C1083 C1082 1.363 . S
C1083 C1086 1.363 . S
N1084 C1086 1.356 . S
N1084 H1096 0.984 . S
N1084 H1097 0.985 . S
N1085 C1087 1.356 . S
N1085 H1090 0.984 . S
N1085 H1091 0.985 . S
C1086 C1080 1.379 1_565 S
C1086 C1083 1.363 . S
C1086 N1084 1.356 . S
C1087 C1081 1.363 . S
C1087 C1082 1.379 1_545 S
C1087 N1085 1.356 . S
N1088 C1080 1.356 . S
N1088 H1094 0.984 . S
N1088 H1095 0.984 . S
N1089 C1082 1.356 . S
N1089 H1092 0.984 . S
N1089 H1093 0.985 . S
H1090 N1085 0.984 . S
H1091 N1085 0.985 . S
H1092 N1089 0.984 . S
H1093 N1089 0.985 . S
H1094 N1088 0.984 . S
H1095 N1088 0.984 . S
H1096 N1084 0.984 . S
H1097 N1084 0.985 . S
C1098 C1099 1.363 . S
C1098 C1104 1.379 . S
C1098 N1106 1.356 . S
C1099 C1098 1.363 . S
C1099 C1105 1.363 . S
C1100 C1101 1.363 . S
C1100 C1105 1.379 . S
C1100 N1107 1.356 . S
C1101 C1100 1.363 . S
C1101 C1104 1.363 . S
N1102 C1104 1.356 . S
N1102 H1114 0.984 . S
N1102 H1115 0.985 . S
N1103 C1105 1.356 . S
N1103 H1108 0.984 . S
N1103 H1109 0.985 . S
C1104 C1098 1.379 . S
C1104 C1101 1.363 . S
C1104 N1102 1.356 . S
C1105 C1099 1.363 . S
C1105 C1100 1.379 . S
C1105 N1103 1.356 . S
N1106 C1098 1.356 . S
N1106 H1112 0.984 . S
N1106 H1113 0.984 . S
N1107 C1100 1.356 . S
N1107 H1110 0.984 . S
N1107 H1111 0.985 . S
H1108 N1103 0.984 . S
H1109 N1103 0.985 . S
H1110 N1107 0.984 . S
H1111 N1107 0.985 . S
H1112 N1106 0.984 . S
H1113 N1106 0.984 . S
H1114 N1102 0.984 . S
H1115 N1102 0.985 . S
C1116 C1117 1.363 1_556 S
C1116 C1122 1.379 1_565 S
C1116 N1124 1.356 . S
C1117 C1116 1.363 1_554 S
C1117 C1123 1.363 . S
C1118 C1119 1.363 1_554 S
C1118 C1123 1.379 1_545 S
C1118 N1125 1.356 . S
C1119 C1118 1.363 1_556 S
C1119 C1122 1.363 . S
N1120 C1122 1.356 . S
N1120 H1132 0.984 . S
N1120 H1133 0.985 . S
N1121 C1123 1.356 . S
N1121 H1126 0.984 . S
N1121 H1127 0.985 . S
C1122 C1116 1.379 1_545 S
C1122 C1119 1.363 . S
C1122 N1120 1.356 . S
C1123 C1117 1.363 . S
C1123 C1118 1.379 1_565 S
C1123 N1121 1.356 . S
N1124 C1116 1.356 . S
N1124 H1130 0.984 . S
N1124 H1131 0.984 1_556 S
N1125 C1118 1.356 . S
N1125 H1128 0.984 1_554 S
N1125 H1129 0.985 . S
H1126 N1121 0.984 . S
H1127 N1121 0.985 . S
H1128 N1125 0.984 1_556 S
H1129 N1125 0.985 . S
H1130 N1124 0.984 . S
H1131 N1124 0.984 1_554 S
H1132 N1120 0.984 . S
H1133 N1120 0.985 . S
C1134 C1135 1.363 . S
C1134 C1140 1.379 . S
C1134 N1142 1.356 . S
C1135 C1134 1.363 . S
C1135 C1141 1.363 . S
C1136 C1137 1.363 . S
C1136 C1141 1.379 . S
C1136 N1143 1.356 . S
C1137 C1136 1.363 . S
C1137 C1140 1.363 . S
N1138 C1140 1.356 . S
N1138 H1150 0.984 . S
N1138 H1151 0.985 . S
N1139 C1141 1.356 . S
N1139 H1144 0.984 . S
N1139 H1145 0.985 . S
C1140 C1134 1.379 . S
C1140 C1137 1.363 . S
C1140 N1138 1.356 . S
C1141 C1135 1.363 . S
C1141 C1136 1.379 . S
C1141 N1139 1.356 . S
N1142 C1134 1.356 . S
N1142 H1148 0.984 . S
N1142 H1149 0.984 . S
N1143 C1136 1.356 . S
N1143 H1146 0.984 . S
N1143 H1147 0.985 . S
H1144 N1139 0.984 . S
H1145 N1139 0.985 . S
H1146 N1143 0.984 . S
H1147 N1143 0.985 . S
H1148 N1142 0.984 . S
H1149 N1142 0.984 . S
H1150 N1138 0.984 . S
H1151 N1138 0.985 . S
C577 C400 1.328 . S
C579 C4 1.318 . S
C595 C544 1.328 . S
C597 C40 1.324 . S
C613 C76 1.446 . S
C615 C326 1.441 . S
C631 C470 1.448 . S
C633 C110 1.442 . S
C649 C146 1.386 . S
C651 C472 1.391 . S
C667 C182 1.400 . S
C669 C398 1.390 . S
C685 C220 1.471 . S
C687 C542 1.444 . S
C703 C254 1.444 . S
C705 C328 1.451 . S
C721 C112 1.356 . S
C723 C292 1.345 . S
C739 C364 1.355 . S
C741 C38 1.340 . S
C757 C434 1.379 . S
C759 C184 1.375 . S
C775 C508 1.366 . S
C777 C256 1.350 . S
C793 C148 1.420 . S
C795 C290 1.414 . S
C811 C362 1.485 . S
C813 C218 1.483 . S
C829 C506 1.450 . S
C831 C74 1.465 . S
C847 C2 1.407 . S
C849 C436 1.411 . S
C865 C3 1.306 . S
C867 C158 1.271 . S
C883 C39 1.349 . S
C885 C194 1.294 . S
C901 C75 1.391 . S
C903 C219 1.392 . S
C919 C266 1.283 . S
C921 C122 1.281 . S
C937 C291 1.286 . S
C939 C446 1.252 . S
C955 C482 1.349 . S
C957 C327 1.398 . S
C973 C363 1.330 . S
C975 C507 1.332 . S
C991 C543 1.323 . S
C993 C410 1.260 . S
C1009 C255 1.254 . S
C1011 C50 1.212 . S
C1027 C86 1.338 . S
C1029 C147 1.387 . S
C1045 C111 1.335 . S
C1047 C183 1.331 . S
C1063 C14 1.319 . S
C1065 C230 1.342 . S
C1081 C338 1.319 . S
C1083 C554 1.295 . S
C1099 C435 1.379 . S
C1101 C374 1.329 . S
C1117 C399 1.322 . S
C1119 C471 1.319 . S
C1135 C518 1.293 . S
C1137 C302 1.290 . S
