# Generated by pormake.
# Topology uoy, (4)-cn, num edge types: 1
# Building blocks:
#     Node 0, Type 0, BuildingBlock: UXUYUI_clean_sbu_0, # of connection points: 4
#     Node 1, Type 0, BuildingBlock: UXUYUI_clean_sbu_0, # of connection points: 4
#     Node 2, Type 0, BuildingBlock: UXUYUI_clean_sbu_0, # of connection points: 4
#     Node 3, Type 0, BuildingBlock: UXUYUI_clean_sbu_0, # of connection points: 4
#     Node 4, Type 0, BuildingBlock: UXUYUI_clean_sbu_0, # of connection points: 4
#     Node 5, Type 0, BuildingBlock: UXUYUI_clean_sbu_0, # of connection points: 4
#     Node 6, Type 0, BuildingBlock: UXUYUI_clean_sbu_0, # of connection points: 4
#     Node 7, Type 0, BuildingBlock: UXUYUI_clean_sbu_0, # of connection points: 4
#     Node 8, Type 0, BuildingBlock: UXUYUI_clean_sbu_0, # of connection points: 4
#     Node 9, Type 0, BuildingBlock: UXUYUI_clean_sbu_0, # of connection points: 4
#     Node 10, Type 0, BuildingBlock: UXUYUI_clean_sbu_0, # of connection points: 4
#     Node 11, Type 0, BuildingBlock: UXUYUI_clean_sbu_0, # of connection points: 4
#     Node 12, Type 0, BuildingBlock: UXUYUI_clean_sbu_0, # of connection points: 4
#     Node 13, Type 0, BuildingBlock: UXUYUI_clean_sbu_0, # of connection points: 4
#     Node 14, Type 0, BuildingBlock: UXUYUI_clean_sbu_0, # of connection points: 4
#     Node 15, Type 0, BuildingBlock: UXUYUI_clean_sbu_0, # of connection points: 4
#     Edge 16, Type (0, 0), BuildingBlock: EZIPEK_clean_linker_0, # of connection points: 2
#     Edge 17, Type (0, 0), BuildingBlock: EZIPEK_clean_linker_0, # of connection points: 2
#     Edge 18, Type (0, 0), BuildingBlock: EZIPEK_clean_linker_0, # of connection points: 2
#     Edge 19, Type (0, 0), BuildingBlock: EZIPEK_clean_linker_0, # of connection points: 2
#     Edge 20, Type (0, 0), BuildingBlock: EZIPEK_clean_linker_0, # of connection points: 2
#     Edge 21, Type (0, 0), BuildingBlock: EZIPEK_clean_linker_0, # of connection points: 2
#     Edge 22, Type (0, 0), BuildingBlock: EZIPEK_clean_linker_0, # of connection points: 2
#     Edge 23, Type (0, 0), BuildingBlock: EZIPEK_clean_linker_0, # of connection points: 2
#     Edge 24, Type (0, 0), BuildingBlock: EZIPEK_clean_linker_0, # of connection points: 2
#     Edge 25, Type (0, 0), BuildingBlock: EZIPEK_clean_linker_0, # of connection points: 2
#     Edge 26, Type (0, 0), BuildingBlock: EZIPEK_clean_linker_0, # of connection points: 2
#     Edge 27, Type (0, 0), BuildingBlock: EZIPEK_clean_linker_0, # of connection points: 2
#     Edge 28, Type (0, 0), BuildingBlock: EZIPEK_clean_linker_0, # of connection points: 2
#     Edge 29, Type (0, 0), BuildingBlock: EZIPEK_clean_linker_0, # of connection points: 2
#     Edge 30, Type (0, 0), BuildingBlock: EZIPEK_clean_linker_0, # of connection points: 2
#     Edge 31, Type (0, 0), BuildingBlock: EZIPEK_clean_linker_0, # of connection points: 2
#     Edge 32, Type (0, 0), BuildingBlock: EZIPEK_clean_linker_0, # of connection points: 2
#     Edge 33, Type (0, 0), BuildingBlock: EZIPEK_clean_linker_0, # of connection points: 2
#     Edge 34, Type (0, 0), BuildingBlock: EZIPEK_clean_linker_0, # of connection points: 2
#     Edge 35, Type (0, 0), BuildingBlock: EZIPEK_clean_linker_0, # of connection points: 2
#     Edge 36, Type (0, 0), BuildingBlock: EZIPEK_clean_linker_0, # of connection points: 2
#     Edge 37, Type (0, 0), BuildingBlock: EZIPEK_clean_linker_0, # of connection points: 2
#     Edge 38, Type (0, 0), BuildingBlock: EZIPEK_clean_linker_0, # of connection points: 2
#     Edge 39, Type (0, 0), BuildingBlock: EZIPEK_clean_linker_0, # of connection points: 2
#     Edge 40, Type (0, 0), BuildingBlock: EZIPEK_clean_linker_0, # of connection points: 2
#     Edge 41, Type (0, 0), BuildingBlock: EZIPEK_clean_linker_0, # of connection points: 2
#     Edge 42, Type (0, 0), BuildingBlock: EZIPEK_clean_linker_0, # of connection points: 2
#     Edge 43, Type (0, 0), BuildingBlock: EZIPEK_clean_linker_0, # of connection points: 2
#     Edge 44, Type (0, 0), BuildingBlock: EZIPEK_clean_linker_0, # of connection points: 2
#     Edge 45, Type (0, 0), BuildingBlock: EZIPEK_clean_linker_0, # of connection points: 2
#     Edge 46, Type (0, 0), BuildingBlock: EZIPEK_clean_linker_0, # of connection points: 2
#     Edge 47, Type (0, 0), BuildingBlock: EZIPEK_clean_linker_0, # of connection points: 2
# Relax obj value: 0.195
# Max RMSD: 0.201
# Mean RMSD: 0.200
data_MOF--net-uoy--node1-UXUYUI_clean_sbu_0--edge1-EZIPEK_clean_linker_0
_symmetry_space_group_name_H-M    P1
_symmetry_Int_Tables_number       1
_symmetry_cell_setting            triclinic
loop_
_symmetry_equiv_pos_as_xyz
'x, y, z'
_cell_length_a     32.73641
_cell_length_b     32.733154
_cell_length_c     127.64039
_cell_angle_alpha  89.999734
_cell_angle_beta   89.998138
_cell_angle_gamma 89.986967
loop_
_atom_site_label
_atom_site_type_symbol
_atom_site_fract_x
_atom_site_fract_y
_atom_site_fract_z
_atom_type_partial_charge
Li0 Li 0.28586 0.08878 0.18541 0.0
Li1 Li 0.24944 0.14119 0.19556 0.0
Li2 Li 0.21167 0.08682 0.18526 0.0
Li3 Li 0.24911 0.13979 0.17654 0.0
C4 C 0.26543 0.04832 0.20247 0.0
N5 N 0.30339 0.98299 0.21207 0.0
C6 C 0.28712 0.05413 0.21178 0.0
C7 C 0.26272 0.00932 0.19808 0.0
C8 C 0.30617 0.02068 0.21651 0.0
C9 C 0.28224 0.97668 0.20304 0.0
C10 C 0.32049 0.17317 0.18031 0.0
C11 C 0.33883 0.24082 0.17449 0.0
N12 N 0.36728 0.22435 0.16797 0.0
C13 C 0.35014 0.15693 0.17362 0.0
C14 C 0.31499 0.21546 0.18082 0.0
C15 C 0.37343 0.18331 0.16743 0.0
C16 C 0.34581 0.03314 0.17774 0.0
N17 N 0.33557 0.05906 0.18564 0.0
C18 C 0.40186 0.05262 0.19326 0.0
C19 C 0.36248 0.06883 0.19335 0.0
C20 C 0.41362 0.02682 0.18505 0.0
C21 C 0.38513 0.01657 0.17728 0.0
H22 H 0.324 0.02666 0.1716 0.0
H23 H 0.35374 0.09041 0.19937 0.0
C24 C 0.21422 0.17443 0.21381 0.0
N25 N 0.24971 0.16919 0.20843 0.0
C26 C 0.21501 0.18908 0.22408 0.0
C27 C 0.28873 0.19338 0.22293 0.0
C28 C 0.28649 0.17895 0.21267 0.0
C29 C 0.25276 0.19758 0.22879 0.0
H30 H 0.18553 0.16567 0.21025 0.0
H31 H 0.31416 0.17371 0.20824 0.0
C32 C 0.22629 0.072 0.16456 0.0
N33 N 0.17955 0.05615 0.14698 0.0
C34 C 0.19067 0.09437 0.16265 0.0
C35 C 0.23812 0.04156 0.1575 0.0
C36 C 0.16747 0.08592 0.15373 0.0
C37 C 0.21408 0.03399 0.14867 0.0
C38 C 0.1802 0.18224 0.18529 0.0
C39 C 0.14139 0.18209 0.18071 0.0
C40 C 0.1962 0.21873 0.18923 0.0
C41 C 0.11951 0.21863 0.18001 0.0
C42 C 0.17333 0.25461 0.18839 0.0
N43 N 0.13581 0.25383 0.18383 0.0
C44 C 0.13131 0.0752 0.19083 0.0
C45 C 0.15641 0.02152 0.18011 0.0
C46 C 0.09216 0.05856 0.19065 0.0
N47 N 0.16221 0.05694 0.18548 0.0
C48 C 0.1176 0.00373 0.17972 0.0
C49 C 0.08504 0.02277 0.18494 0.0
H50 H 0.13693 0.10333 0.19504 0.0
H51 H 0.18159 0.00772 0.17591 0.0
C52 C 0.27462 0.15424 0.15619 0.0
N53 N 0.25099 0.17108 0.16383 0.0
C54 C 0.27658 0.17199 0.14628 0.0
C55 C 0.23048 0.22475 0.15228 0.0
C56 C 0.2295 0.20603 0.1621 0.0
C57 C 0.25392 0.20732 0.14426 0.0
H58 H 0.2915 0.12652 0.15776 0.0
H59 H 0.21114 0.21924 0.16821 0.0
O60 O 0.24743 0.08078 0.19758 0.0
O61 O 0.29665 0.14777 0.18623 0.0
O62 O 0.24984 0.07982 0.1732 0.0
O63 O 0.20179 0.14662 0.18617 0.0
H64 H 0.28948 0.0842 0.21525 0.0
H65 H 0.24612 0.00447 0.19085 0.0
H66 H 0.32324 0.02471 0.22369 0.0
H67 H 0.28066 0.94634 0.1997 0.0
H68 H 0.33469 0.27359 0.17475 0.0
H69 H 0.35476 0.12429 0.17308 0.0
H70 H 0.29242 0.22858 0.18601 0.0
H71 H 0.39627 0.17114 0.16216 0.0
H72 H 0.42341 0.06126 0.19931 0.0
H73 H 0.39361 0.99689 0.17081 0.0
H74 H 0.18683 0.19194 0.22846 0.0
H75 H 0.31826 0.19959 0.22642 0.0
H76 H 0.18109 0.11811 0.16797 0.0
H77 H 0.26562 0.02396 0.15884 0.0
H78 H 0.13988 0.10307 0.15218 0.0
H79 H 0.2229 0.01051 0.14315 0.0
H80 H 0.12824 0.15405 0.17774 0.0
H81 H 0.22599 0.21941 0.19286 0.0
H82 H 0.08952 0.21899 0.17645 0.0
H83 H 0.18543 0.28309 0.19137 0.0
H84 H 0.06751 0.07381 0.19475 0.0
H85 H 0.11278 0.97603 0.17525 0.0
H86 H 0.295 0.15798 0.14021 0.0
H87 H 0.21277 0.25219 0.15089 0.0
Li88 Li 0.91567 0.79206 0.43483 0.0
Li89 Li 0.86164 0.75699 0.4441 0.0
Li90 Li 0.9111 0.71774 0.43535 0.0
Li91 Li 0.85956 0.75404 0.42508 0.0
C92 C 0.93107 0.77936 0.45563 0.0
N93 N 0.94957 0.82757 0.47277 0.0
C94 C 0.90979 0.81576 0.45739 0.0
C95 C 0.96173 0.76747 0.46261 0.0
C96 C 0.91958 0.83971 0.46609 0.0
C97 C 0.97065 0.79227 0.47123 0.0
C98 C 0.82195 0.8269 0.4347 0.0
C99 C 0.75021 0.83801 0.43143 0.0
N100 N 0.75343 0.87613 0.43559 0.0
C101 C 0.8246 0.86631 0.43887 0.0
C102 C 0.7845 0.8127 0.43089 0.0
C103 C 0.78958 0.89066 0.43929 0.0
C104 C 0.92786 0.8717 0.42841 0.0
N105 N 0.94592 0.84174 0.43416 0.0
C106 C 0.99744 0.88821 0.44003 0.0
C107 C 0.98057 0.84891 0.43976 0.0
C108 C 0.97827 0.91992 0.43449 0.0
C109 C 0.94354 0.9113 0.4285 0.0
H110 H 0.90035 0.86508 0.42404 0.0
H111 H 0.99428 0.82457 0.44428 0.0
C112 C 0.84747 0.73765 0.46499 0.0
N113 N 0.83053 0.75864 0.45687 0.0
C114 C 0.83147 0.74122 0.47506 0.0
C115 C 0.77909 0.78586 0.46819 0.0
C116 C 0.79616 0.78146 0.45823 0.0
C117 C 0.79762 0.76647 0.47674 0.0
H118 H 0.87456 0.71943 0.4637 0.0
H119 H 0.78268 0.79745 0.45173 0.0
C120 C 0.94898 0.73152 0.41779 0.0
N121 N 0.00729 0.68324 0.40826 0.0
C122 C 0.9382 0.70635 0.40939 0.0
C123 C 0.98941 0.73247 0.42129 0.0
C124 C 0.96815 0.68211 0.40468 0.0
C125 C 0.01844 0.70772 0.41638 0.0
C126 C 0.82567 0.68702 0.44115 0.0
C127 C 0.84103 0.65867 0.44833 0.0
C128 C 0.78358 0.69376 0.44054 0.0
C129 C 0.81395 0.63776 0.45487 0.0
C130 C 0.75752 0.67228 0.44723 0.0
N131 N 0.77311 0.64498 0.4542 0.0
C132 C 0.96995 0.65813 0.44213 0.0
C133 C 0.92324 0.63766 0.42892 0.0
C134 C 0.98617 0.6186 0.4426 0.0
N135 N 0.93889 0.66666 0.4354 0.0
C136 C 0.93863 0.59795 0.42908 0.0
C137 C 0.97005 0.58809 0.43607 0.0
H138 H 0.98138 0.6817 0.44729 0.0
H139 H 0.89807 0.64525 0.42378 0.0
C140 C 0.83523 0.78558 0.40583 0.0
N141 N 0.82954 0.75387 0.41254 0.0
C142 C 0.81567 0.7858 0.39612 0.0
C143 C 0.78445 0.72096 0.40053 0.0
C144 C 0.80473 0.72192 0.41015 0.0
C145 C 0.79024 0.75306 0.39342 0.0
H146 H 0.85544 0.81034 0.40798 0.0
H147 H 0.80122 0.69701 0.41564 0.0
O148 O 0.9219 0.75506 0.44722 0.0
O149 O 0.85608 0.80287 0.43407 0.0
O150 O 0.9199 0.75441 0.42273 0.0
O151 O 0.85177 0.70855 0.43487 0.0
H152 H 0.88586 0.82536 0.45214 0.0
H153 H 0.97843 0.73933 0.46139 0.0
H154 H 0.90329 0.86791 0.46753 0.0
H155 H 0.99432 0.78342 0.47669 0.0
H156 H 0.72102 0.82733 0.42856 0.0
H157 H 0.85338 0.87806 0.44175 0.0
H158 H 0.78177 0.78237 0.42765 0.0
H159 H 0.79118 0.92116 0.44253 0.0
H160 H 0.02435 0.89411 0.44473 0.0
H161 H 0.92819 0.93521 0.42414 0.0
H162 H 0.8464 0.72595 0.48154 0.0
H163 H 0.75287 0.80558 0.4693 0.0
H164 H 0.90695 0.70524 0.40663 0.0
H165 H 0.99809 0.75172 0.42782 0.0
H166 H 0.96025 0.66227 0.39822 0.0
H167 H 0.0498 0.70787 0.41905 0.0
H168 H 0.87353 0.65326 0.44896 0.0
H169 H 0.77119 0.71552 0.43502 0.0
H170 H 0.82542 0.61593 0.46051 0.0
H171 H 0.72489 0.67734 0.44689 0.0
H172 H 0.01041 0.61167 0.44809 0.0
H173 H 0.92555 0.57492 0.42399 0.0
H174 H 0.82064 0.81088 0.39074 0.0
H175 H 0.76501 0.69528 0.39858 0.0
Li176 Li 0.21388 0.41107 0.68449 0.0
Li177 Li 0.24873 0.35987 0.69506 0.0
Li178 Li 0.29133 0.4093 0.68528 0.0
Li179 Li 0.2542 0.35629 0.67662 0.0
C180 C 0.25317 0.45999 0.69992 0.0
N181 N 0.25942 0.54048 0.70621 0.0
C182 C 0.25388 0.46972 0.71057 0.0
C183 C 0.2558 0.49115 0.69245 0.0
C184 C 0.25698 0.51062 0.7136 0.0
C185 C 0.25892 0.53166 0.6958 0.0
C186 C 0.17809 0.32736 0.69041 0.0
C187 C 0.15778 0.26056 0.69643 0.0
N188 N 0.12736 0.2779 0.70217 0.0
C189 C 0.14643 0.34451 0.6963 0.0
C190 C 0.18365 0.28504 0.6904 0.0
C191 C 0.12117 0.31899 0.70221 0.0
C192 C 0.13726 0.42598 0.67615 0.0
N193 N 0.16367 0.44049 0.68349 0.0
C194 C 0.11231 0.48531 0.69025 0.0
C195 C 0.15201 0.46963 0.6905 0.0
C196 C 0.08449 0.47033 0.68285 0.0
C197 C 0.0973 0.4407 0.67565 0.0
H198 H 0.14671 0.40154 0.671 0.0
H199 H 0.17269 0.47955 0.69656 0.0
C200 C 0.26701 0.30071 0.711 0.0
N201 N 0.24395 0.33352 0.7082 0.0
C202 C 0.2637 0.28439 0.72109 0.0
C203 C 0.21285 0.33578 0.72509 0.0
C204 C 0.21739 0.35125 0.715 0.0
C205 C 0.23634 0.3022 0.72821 0.0
H206 H 0.28845 0.28774 0.70549 0.0
H207 H 0.2001 0.37781 0.7126 0.0
C208 C 0.26156 0.4166 0.66244 0.0
N209 N 0.27454 0.41594 0.64105 0.0
C210 C 0.30133 0.41665 0.65845 0.0
C211 C 0.22841 0.41649 0.65555 0.0
C212 C 0.30725 0.41624 0.64761 0.0
C213 C 0.2356 0.41609 0.64476 0.0
C214 C 0.32291 0.31958 0.68296 0.0
C215 C 0.36105 0.32888 0.67864 0.0
C216 C 0.30944 0.27907 0.68313 0.0
C217 C 0.38488 0.29747 0.67445 0.0
C218 C 0.33413 0.24855 0.67883 0.0
N219 N 0.37102 0.25831 0.67462 0.0
C220 C 0.36869 0.42447 0.69301 0.0
C221 C 0.34956 0.47104 0.67962 0.0
C222 C 0.40803 0.44069 0.69331 0.0
N223 N 0.34082 0.4391 0.68606 0.0
C224 C 0.38861 0.48829 0.67967 0.0
C225 C 0.41838 0.47239 0.68644 0.0
H226 H 0.36073 0.39907 0.69803 0.0
H227 H 0.32667 0.48217 0.67421 0.0
C228 C 0.21875 0.30406 0.66161 0.0
N229 N 0.2546 0.32179 0.66451 0.0
C230 C 0.21614 0.28222 0.65224 0.0
C231 C 0.28748 0.29686 0.64906 0.0
C232 C 0.28872 0.31831 0.65848 0.0
C233 C 0.25075 0.27903 0.64583 0.0
H234 H 0.19189 0.30787 0.66644 0.0
H235 H 0.31659 0.3334 0.66076 0.0
O236 O 0.25076 0.42003 0.69686 0.0
O237 O 0.20375 0.35187 0.68475 0.0
O238 O 0.25515 0.4167 0.67304 0.0
O239 O 0.29912 0.3499 0.68711 0.0
H240 H 0.25207 0.44589 0.71644 0.0
H241 H 0.25527 0.48422 0.68417 0.0
H242 H 0.2575 0.51863 0.72182 0.0
H243 H 0.26091 0.5561 0.69012 0.0
H244 H 0.16186 0.22777 0.69654 0.0
H245 H 0.14175 0.37721 0.69645 0.0
H246 H 0.20769 0.27125 0.68579 0.0
H247 H 0.09674 0.33188 0.70687 0.0
H248 H 0.10296 0.50785 0.69598 0.0
H249 H 0.07624 0.42825 0.66994 0.0
H250 H 0.2824 0.25858 0.72336 0.0
H251 H 0.19175 0.35026 0.73048 0.0
H252 H 0.32738 0.416 0.66365 0.0
H253 H 0.19747 0.4166 0.65848 0.0
H254 H 0.33787 0.4159 0.64442 0.0
H255 H 0.21021 0.41584 0.63934 0.0
H256 H 0.37191 0.36005 0.67837 0.0
H257 H 0.28013 0.27133 0.68648 0.0
H258 H 0.41433 0.30426 0.67102 0.0
H259 H 0.32396 0.21711 0.67885 0.0
H260 H 0.43049 0.42794 0.69861 0.0
H261 H 0.39591 0.51286 0.67431 0.0
H262 H 0.18733 0.2688 0.64988 0.0
H263 H 0.31459 0.29504 0.64421 0.0
Li264 Li 0.63673 0.74701 0.94597 0.0
Li265 Li 0.58405 0.71069 0.93611 0.0
Li266 Li 0.63845 0.74644 0.92659 0.0
Li267 Li 0.58527 0.78339 0.93535 0.0
C268 C 0.66344 0.6673 0.93234 0.0
N269 N 0.70304 0.60057 0.92379 0.0
C270 C 0.64378 0.64291 0.9249 0.0
C271 C 0.70318 0.65756 0.93548 0.0
C272 C 0.66432 0.60936 0.92066 0.0
C273 C 0.72271 0.62378 0.93105 0.0
C274 C 0.54839 0.72916 0.95383 0.0
C275 C 0.47969 0.70448 0.95637 0.0
N276 N 0.49184 0.68524 0.96528 0.0
C277 C 0.56013 0.70945 0.96306 0.0
C278 C 0.50779 0.727 0.95049 0.0
C279 C 0.5311 0.68731 0.96873 0.0
C280 C 0.67182 0.78189 0.96405 0.0
N281 N 0.66634 0.74659 0.95861 0.0
C282 C 0.69406 0.70728 0.97263 0.0
C283 C 0.67776 0.7098 0.96257 0.0
C284 C 0.69849 0.74298 0.97858 0.0
C285 C 0.6883 0.78081 0.97414 0.0
H286 H 0.66192 0.8106 0.96071 0.0
H287 H 0.67232 0.68227 0.9581 0.0
C288 C 0.52683 0.65078 0.92897 0.0
N289 N 0.55435 0.66078 0.93653 0.0
C290 C 0.51039 0.61137 0.92862 0.0
C291 C 0.54998 0.59403 0.944 0.0
C292 C 0.56588 0.63353 0.944 0.0
C293 C 0.52252 0.58253 0.93613 0.0
H294 H 0.51899 0.67279 0.92298 0.0
H295 H 0.58867 0.64208 0.94973 0.0
C296 C 0.68411 0.80827 0.93697 0.0
N297 N 0.76282 0.83763 0.93898 0.0
C298 C 0.69162 0.85024 0.93644 0.0
C299 C 0.71657 0.78125 0.93859 0.0
C300 C 0.73166 0.86448 0.93745 0.0
C301 C 0.75616 0.79668 0.93957 0.0
C302 C 0.55459 0.76722 0.91709 0.0
C303 C 0.57149 0.79116 0.90912 0.0
C304 C 0.51235 0.76739 0.91868 0.0
C305 C 0.5458 0.81524 0.90294 0.0
C306 C 0.48771 0.79195 0.91234 0.0
N307 N 0.5048 0.81519 0.90467 0.0
C308 C 0.65647 0.71718 0.90673 0.0
C309 C 0.70104 0.77072 0.91181 0.0
C310 C 0.67444 0.71542 0.89683 0.0
N311 N 0.67004 0.74434 0.91401 0.0
C312 C 0.71985 0.77006 0.902 0.0
C313 C 0.70622 0.74237 0.89441 0.0
H314 H 0.63062 0.69786 0.90847 0.0
H315 H 0.71046 0.79323 0.91746 0.0
C316 C 0.52472 0.84226 0.9411 0.0
N317 N 0.5568 0.83375 0.93469 0.0
C318 C 0.50802 0.88157 0.94127 0.0
C319 C 0.55707 0.90202 0.92809 0.0
C320 C 0.57301 0.86254 0.92824 0.0
C321 C 0.52468 0.91187 0.93478 0.0
H322 H 0.51303 0.81897 0.9463 0.0
H323 H 0.59913 0.85506 0.92341 0.0
O324 O 0.64373 0.70001 0.93673 0.0
O325 O 0.57653 0.75031 0.94805 0.0
O326 O 0.64497 0.79402 0.93623 0.0
O327 O 0.57929 0.74411 0.92338 0.0
H328 H 0.61311 0.64992 0.92235 0.0
H329 H 0.71876 0.67578 0.94132 0.0
H330 H 0.64946 0.59031 0.91488 0.0
H331 H 0.75348 0.61594 0.9334 0.0
H332 H 0.44824 0.70226 0.95383 0.0
H333 H 0.59132 0.71103 0.96581 0.0
H334 H 0.49817 0.74224 0.9434 0.0
H335 H 0.53981 0.67172 0.97586 0.0
H336 H 0.70157 0.67769 0.97591 0.0
H337 H 0.69135 0.80878 0.9786 0.0
H338 H 0.4894 0.60309 0.92241 0.0
H339 H 0.56007 0.57222 0.94984 0.0
H340 H 0.66675 0.87157 0.93529 0.0
H341 H 0.71125 0.74875 0.93906 0.0
H342 H 0.73795 0.89688 0.93704 0.0
H343 H 0.78157 0.77611 0.9408 0.0
H344 H 0.60412 0.79164 0.90782 0.0
H345 H 0.49876 0.74891 0.92477 0.0
H346 H 0.55849 0.83411 0.89679 0.0
H347 H 0.45499 0.79256 0.91352 0.0
H348 H 0.66302 0.69407 0.89105 0.0
H349 H 0.74408 0.79155 0.90025 0.0
H350 H 0.48309 0.88857 0.94656 0.0
H351 H 0.57063 0.92497 0.92306 0.0
Li352 Li 0.25187 0.35679 0.07231 0.0
Li353 Li 0.21739 0.41378 0.06373 0.0
Li354 Li 0.25491 0.36095 0.05354 0.0
Li355 Li 0.29299 0.41157 0.06345 0.0
C356 C 0.17857 0.32802 0.06679 0.0
N357 N 0.12457 0.27461 0.07624 0.0
C358 C 0.14367 0.3429 0.07183 0.0
C359 C 0.18571 0.28595 0.06645 0.0
C360 C 0.11679 0.31541 0.07658 0.0
C361 C 0.15816 0.25946 0.07132 0.0
C362 C 0.25348 0.44783 0.08264 0.0
C363 C 0.26806 0.51781 0.08728 0.0
N364 N 0.24939 0.51207 0.09668 0.0
C365 C 0.23491 0.44252 0.09242 0.0
C366 C 0.2706 0.48569 0.08011 0.0
C367 C 0.23296 0.47539 0.09938 0.0
C368 C 0.28171 0.2974 0.08646 0.0
N369 N 0.25006 0.32305 0.08437 0.0
C370 C 0.21839 0.30688 0.1007 0.0
C371 C 0.21854 0.32783 0.09119 0.0
C372 C 0.2511 0.28107 0.10314 0.0
C373 C 0.28279 0.27577 0.09588 0.0
H374 H 0.30667 0.2947 0.08096 0.0
H375 H 0.19413 0.3489 0.0894 0.0
C376 C 0.1455 0.44026 0.05488 0.0
N377 N 0.16857 0.44498 0.06365 0.0
C378 C 0.10606 0.45627 0.05445 0.0
C379 C 0.1154 0.483 0.07196 0.0
C380 C 0.15467 0.46636 0.07206 0.0
C381 C 0.09056 0.4772 0.06315 0.0
H382 H 0.15724 0.42257 0.04838 0.0
H383 H 0.17322 0.46921 0.079 0.0
C384 C 0.32409 0.3236 0.05805 0.0
N385 N 0.36957 0.26782 0.04673 0.0
C386 C 0.36005 0.33586 0.05305 0.0
C387 C 0.31161 0.28285 0.05743 0.0
C388 C 0.38255 0.30722 0.04734 0.0
C389 C 0.3349 0.25515 0.05162 0.0
C390 C 0.25801 0.45851 0.04685 0.0
C391 C 0.27187 0.46144 0.03651 0.0
C392 C 0.24633 0.49387 0.0522 0.0
C393 C 0.27476 0.49985 0.0318 0.0
C394 C 0.24961 0.53171 0.04721 0.0
N395 N 0.2637 0.53391 0.0372 0.0
C396 C 0.2269 0.30583 0.03767 0.0
C397 C 0.28696 0.34385 0.03399 0.0
C398 C 0.2278 0.28847 0.02765 0.0
N399 N 0.2562 0.33305 0.04057 0.0
C400 C 0.28919 0.32712 0.02398 0.0
C401 C 0.25918 0.29947 0.02073 0.0
H402 H 0.20247 0.29831 0.04303 0.0
H403 H 0.30939 0.36606 0.03647 0.0
C404 C 0.36339 0.44092 0.0733 0.0
N405 N 0.34341 0.44 0.06396 0.0
C406 C 0.40302 0.45647 0.0739 0.0
C407 C 0.40055 0.47021 0.05528 0.0
C408 C 0.36098 0.45439 0.05504 0.0
C409 C 0.42203 0.47075 0.06477 0.0
H410 H 0.34894 0.4284 0.08021 0.0
H411 H 0.34506 0.45196 0.04767 0.0
O412 O 0.20541 0.35445 0.06215 0.0
O413 O 0.25602 0.41575 0.07578 0.0
O414 O 0.30117 0.35137 0.06349 0.0
O415 O 0.2548 0.42103 0.05154 0.0
H416 H 0.13753 0.37531 0.07217 0.0
H417 H 0.2123 0.27388 0.0625 0.0
H418 H 0.08979 0.32653 0.08055 0.0
H419 H 0.16346 0.22684 0.07117 0.0
H420 H 0.28108 0.54728 0.08539 0.0
H421 H 0.2219 0.41344 0.0946 0.0
H422 H 0.28604 0.49026 0.07272 0.0
H423 H 0.21841 0.47173 0.10693 0.0
H424 H 0.19364 0.31156 0.1062 0.0
H425 H 0.30848 0.25607 0.09764 0.0
H426 H 0.08737 0.45128 0.04757 0.0
H427 H 0.10398 0.49895 0.0788 0.0
H428 H 0.37032 0.36719 0.0535 0.0
H429 H 0.28411 0.27279 0.06134 0.0
H430 H 0.41028 0.31635 0.04337 0.0
H431 H 0.32541 0.22359 0.05101 0.0
H432 H 0.28051 0.43437 0.03219 0.0
H433 H 0.23442 0.49218 0.06007 0.0
H434 H 0.28571 0.50257 0.02383 0.0
H435 H 0.24078 0.55932 0.05128 0.0
H436 H 0.20413 0.2673 0.02528 0.0
H437 H 0.31358 0.33628 0.01875 0.0
H438 H 0.4191 0.45636 0.08132 0.0
H439 H 0.41475 0.48073 0.04811 0.0
Li440 Li 0.63829 0.7443 0.32162 0.0
Li441 Li 0.58422 0.70997 0.31246 0.0
Li442 Li 0.63623 0.75027 0.30319 0.0
Li443 Li 0.58562 0.78669 0.31337 0.0
C444 C 0.67151 0.673 0.31522 0.0
N445 N 0.72839 0.61949 0.32346 0.0
C446 C 0.65928 0.63463 0.31888 0.0
C447 C 0.71272 0.68401 0.31569 0.0
C448 C 0.68849 0.60803 0.32302 0.0
C449 C 0.74099 0.65659 0.31991 0.0
C450 C 0.57591 0.73406 0.33515 0.0
C451 C 0.56855 0.75075 0.35347 0.0
N452 N 0.57289 0.71057 0.35594 0.0
C453 C 0.58022 0.69293 0.33789 0.0
C454 C 0.56993 0.76321 0.343 0.0
C455 C 0.5786 0.68166 0.34844 0.0
C456 C 0.68606 0.77975 0.33732 0.0
N457 N 0.67157 0.74311 0.33393 0.0
C458 C 0.69833 0.70968 0.3491 0.0
C459 C 0.67744 0.70836 0.33959 0.0
C460 C 0.71291 0.74715 0.3528 0.0
C461 C 0.70705 0.7825 0.34681 0.0
H462 H 0.68033 0.80704 0.33278 0.0
H463 H 0.66481 0.67976 0.33695 0.0
C464 C 0.56438 0.63497 0.30399 0.0
N465 N 0.55208 0.66215 0.31139 0.0
C466 C 0.54734 0.59599 0.30365 0.0
C467 C 0.50353 0.61458 0.31816 0.0
C468 C 0.52128 0.65339 0.31818 0.0
C469 C 0.51746 0.58523 0.311 0.0
H470 H 0.58893 0.64298 0.2987 0.0
H471 H 0.51185 0.67584 0.32391 0.0
C472 C 0.67211 0.81824 0.30808 0.0
N473 N 0.72668 0.86394 0.29646 0.0
C474 C 0.65801 0.84978 0.30164 0.0
C475 C 0.71397 0.8103 0.30872 0.0
C476 C 0.68609 0.87246 0.2958 0.0
C477 C 0.74107 0.83365 0.30275 0.0
C478 C 0.536 0.75071 0.29795 0.0
C479 C 0.52573 0.74879 0.28734 0.0
C480 C 0.50507 0.7521 0.3055 0.0
C481 C 0.48458 0.74843 0.28444 0.0
C482 C 0.46429 0.75167 0.30228 0.0
N483 N 0.45497 0.74986 0.29191 0.0
C484 C 0.69969 0.73341 0.28824 0.0
C485 C 0.64706 0.7791 0.28309 0.0
C486 C 0.71847 0.73721 0.27845 0.0
N487 N 0.66471 0.75434 0.29033 0.0
C488 C 0.66479 0.78389 0.27326 0.0
C489 C 0.70073 0.76266 0.27088 0.0
H490 H 0.71277 0.71359 0.29411 0.0
H491 H 0.6191 0.7951 0.28498 0.0
C492 C 0.56294 0.85989 0.32299 0.0
N493 N 0.55735 0.83738 0.31415 0.0
C494 C 0.54789 0.89972 0.3236 0.0
C495 C 0.52194 0.89268 0.30595 0.0
C496 C 0.53733 0.8529 0.30569 0.0
C497 C 0.52762 0.91654 0.31495 0.0
H498 H 0.58061 0.84751 0.32939 0.0
H499 H 0.53478 0.83514 0.29859 0.0
O500 O 0.64337 0.69937 0.31109 0.0
O501 O 0.57781 0.7457 0.32486 0.0
O502 O 0.64502 0.79481 0.31359 0.0
O503 O 0.57621 0.75093 0.30087 0.0
H504 H 0.62756 0.62555 0.31863 0.0
H505 H 0.72272 0.71356 0.31292 0.0
H506 H 0.67942 0.57833 0.32592 0.0
H507 H 0.77293 0.66483 0.32038 0.0
H508 H 0.56405 0.77303 0.35962 0.0
H509 H 0.58574 0.67001 0.33196 0.0
H510 H 0.56635 0.79512 0.34106 0.0
H511 H 0.58221 0.64997 0.35065 0.0
H512 H 0.70221 0.682 0.35364 0.0
H513 H 0.71789 0.81188 0.34955 0.0
H514 H 0.55855 0.57389 0.29802 0.0
H515 H 0.48035 0.60703 0.3239 0.0
H516 H 0.62571 0.8563 0.30104 0.0
H517 H 0.72538 0.78628 0.31375 0.0
H518 H 0.6756 0.89672 0.29072 0.0
H519 H 0.77354 0.82766 0.30312 0.0
H520 H 0.54935 0.74761 0.28141 0.0
H521 H 0.51234 0.75363 0.31375 0.0
H522 H 0.47618 0.74699 0.27625 0.0
H523 H 0.44004 0.75277 0.30803 0.0
H524 H 0.74623 0.72045 0.27677 0.0
H525 H 0.65051 0.80369 0.26752 0.0
H526 H 0.55311 0.91768 0.3306 0.0
H527 H 0.50681 0.90514 0.29911 0.0
Li528 Li 0.25332 0.13525 0.57293 0.0
Li529 Li 0.29062 0.08357 0.56316 0.0
Li530 Li 0.25514 0.13889 0.55419 0.0
Li531 Li 0.21673 0.08428 0.56267 0.0
C532 C 0.32624 0.16917 0.55863 0.0
N533 N 0.37391 0.22163 0.54688 0.0
C534 C 0.35968 0.15417 0.55301 0.0
C535 C 0.31717 0.21088 0.55832 0.0
C536 C 0.3834 0.18119 0.54712 0.0
C537 C 0.34157 0.23689 0.55231 0.0
C538 C 0.27169 0.04684 0.58081 0.0
C539 C 0.29423 0.97752 0.58354 0.0
N540 N 0.31497 0.9897 0.59223 0.0
C541 C 0.29305 0.05866 0.58979 0.0
C542 C 0.27205 0.00594 0.57768 0.0
C543 C 0.3148 0.02931 0.59545 0.0
C544 C 0.22594 0.14916 0.59329 0.0
N545 N 0.25157 0.16389 0.58581 0.0
C546 C 0.27503 0.21635 0.59731 0.0
C547 C 0.27592 0.19679 0.58759 0.0
C548 C 0.24898 0.20156 0.60516 0.0
C549 C 0.22403 0.16777 0.6031 0.0
H550 H 0.20731 0.12264 0.59165 0.0
H551 H 0.29629 0.2075 0.58153 0.0
C552 C 0.35003 0.02859 0.55489 0.0
N553 N 0.34016 0.0533 0.56307 0.0
C554 C 0.3894 0.01226 0.55411 0.0
C555 C 0.40702 0.0461 0.57034 0.0
C556 C 0.3676 0.06213 0.57075 0.0
C557 C 0.41837 0.02155 0.56184 0.0
H558 H 0.32796 0.02307 0.54875 0.0
H559 H 0.35938 0.08313 0.57693 0.0
C560 C 0.18301 0.16878 0.56914 0.0
N561 N 0.13709 0.21832 0.58213 0.0
C562 C 0.15063 0.15235 0.57491 0.0
C563 C 0.19187 0.21043 0.56993 0.0
C564 C 0.12777 0.17792 0.58143 0.0
C565 C 0.16838 0.23495 0.57657 0.0
C566 C 0.23422 0.05521 0.5441 0.0
C567 C 0.21096 0.0723 0.53603 0.0
C568 C 0.23429 0.0129 0.54555 0.0
C569 C 0.18786 0.04672 0.52958 0.0
C570 C 0.21072 0.98835 0.53895 0.0
N571 N 0.18818 0.00563 0.53116 0.0
C572 C 0.28163 0.15923 0.53409 0.0
C573 C 0.2266 0.19993 0.54026 0.0
C574 C 0.2776 0.17552 0.52405 0.0
N575 N 0.2557 0.17097 0.54186 0.0
C576 C 0.22151 0.21706 0.53033 0.0
C577 C 0.24644 0.20378 0.52206 0.0
H578 H 0.30368 0.13529 0.53555 0.0
H579 H 0.20577 0.20784 0.5465 0.0
C580 C 0.15714 0.02442 0.56852 0.0
N581 N 0.16648 0.05539 0.56184 0.0
C582 C 0.11769 0.008 0.56863 0.0
C583 C 0.09877 0.05509 0.55485 0.0
C584 C 0.13837 0.07072 0.55505 0.0
C585 C 0.08806 0.02385 0.56181 0.0
H586 H 0.1798 0.01353 0.57401 0.0
H587 H 0.14635 0.09619 0.55006 0.0
O588 O 0.30218 0.14314 0.56431 0.0
O589 O 0.25074 0.0752 0.57507 0.0
O590 O 0.20653 0.14406 0.56295 0.0
O591 O 0.25639 0.07977 0.55064 0.0
H592 H 0.36709 0.122 0.5531 0.0
H593 H 0.29126 0.22297 0.56257 0.0
H594 H 0.40928 0.16997 0.5427 0.0
H595 H 0.33475 0.2692 0.55195 0.0
H596 H 0.29497 0.94579 0.58118 0.0
H597 H 0.29328 0.09023 0.5923 0.0
H598 H 0.25562 0.9963 0.57076 0.0
H599 H 0.33166 0.03805 0.60239 0.0
H600 H 0.29468 0.24237 0.59875 0.0
H601 H 0.20373 0.15575 0.60905 0.0
H602 H 0.39755 0.99363 0.54741 0.0
H603 H 0.42897 0.05411 0.57635 0.0
H604 H 0.14352 0.12014 0.57449 0.0
H605 H 0.21697 0.22359 0.56558 0.0
H606 H 0.10277 0.16558 0.58598 0.0
H607 H 0.17511 0.26717 0.57732 0.0
H608 H 0.21022 0.10499 0.53484 0.0
H609 H 0.25219 0.99919 0.55174 0.0
H610 H 0.16954 0.05955 0.52334 0.0
H611 H 0.21033 0.95557 0.54001 0.0
H612 H 0.29687 0.16438 0.51777 0.0
H613 H 0.19687 0.23849 0.52894 0.0
H614 H 0.11003 0.98402 0.57414 0.0
H615 H 0.07636 0.06808 0.54957 0.0
Li616 Li 0.9088 0.79224 0.81371 0.0
Li617 Li 0.85353 0.75454 0.82226 0.0
Li618 Li 0.91118 0.71632 0.81352 0.0
Li619 Li 0.85931 0.75152 0.80351 0.0
C620 C 0.93998 0.75902 0.8337 0.0
N621 N 0.99455 0.76768 0.8501 0.0
C622 C 0.92879 0.78062 0.84271 0.0
C623 C 0.97878 0.74123 0.83314 0.0
C624 C 0.95685 0.78485 0.85088 0.0
C625 C 0.00597 0.74612 0.84148 0.0
C626 C 0.819 0.82541 0.81584 0.0
C627 C 0.74832 0.83749 0.82019 0.0
N628 N 0.75828 0.87543 0.8237 0.0
C629 C 0.82849 0.86465 0.81941 0.0
C630 C 0.77855 0.81182 0.81614 0.0
C631 C 0.79737 0.88944 0.82338 0.0
C632 C 0.94719 0.86012 0.80466 0.0
N633 N 0.93759 0.84263 0.81401 0.0
C634 C 0.95973 0.90211 0.82325 0.0
C635 C 0.94377 0.86258 0.82322 0.0
C636 C 0.96913 0.92103 0.8137 0.0
C637 C 0.96335 0.89955 0.80433 0.0
H638 H 0.94105 0.8439 0.79745 0.0
H639 H 0.93458 0.84864 0.8305 0.0
C640 C 0.80305 0.71747 0.83725 0.0
N641 N 0.81963 0.75377 0.8343 0.0
C642 C 0.78197 0.7143 0.84673 0.0
C643 C 0.79473 0.78612 0.84981 0.0
C644 C 0.81561 0.78788 0.8403 0.0
C645 C 0.77828 0.74884 0.85314 0.0
H646 H 0.80734 0.69071 0.83241 0.0
H647 H 0.82994 0.81609 0.83791 0.0
C648 C 0.95962 0.75427 0.79827 0.0
N649 N 0.03995 0.75371 0.79159 0.0
C650 C 0.96908 0.74388 0.78793 0.0
C651 C 0.991 0.76486 0.80517 0.0
C652 C 0.00988 0.74361 0.78471 0.0
C653 C 0.03141 0.76429 0.80166 0.0
C654 C 0.82552 0.68095 0.80775 0.0
C655 C 0.84099 0.65049 0.80119 0.0
C656 C 0.78334 0.68702 0.8084 0.0
C657 C 0.81397 0.62711 0.7952 0.0
C658 C 0.75733 0.66302 0.80228 0.0
N659 N 0.77305 0.63386 0.79585 0.0
C660 C 0.94176 0.64696 0.82359 0.0
C661 C 0.95849 0.65053 0.80552 0.0
C662 C 0.9581 0.60765 0.82427 0.0
N663 N 0.94197 0.66731 0.8143 0.0
C664 C 0.97503 0.61123 0.80584 0.0
C665 C 0.97421 0.58924 0.81526 0.0
H666 H 0.92749 0.66073 0.83037 0.0
H667 H 0.95697 0.66674 0.79817 0.0
C668 C 0.79654 0.76832 0.78831 0.0
N669 N 0.83163 0.74776 0.79052 0.0
C670 C 0.77827 0.76422 0.77846 0.0
C671 C 0.83269 0.71809 0.77346 0.0
C672 C 0.8498 0.72304 0.78336 0.0
C673 C 0.7967 0.73897 0.77095 0.0
H674 H 0.7829 0.78795 0.79415 0.0
H675 H 0.87755 0.70699 0.78538 0.0
O676 O 0.91253 0.7538 0.82571 0.0
O677 O 0.84913 0.80062 0.81199 0.0
O678 O 0.91976 0.75453 0.80153 0.0
O679 O 0.85155 0.70499 0.81344 0.0
H680 H 0.89894 0.79438 0.84335 0.0
H681 H 0.98783 0.72359 0.82636 0.0
H682 H 0.94863 0.80177 0.85785 0.0
H683 H 0.0361 0.73262 0.84111 0.0
H684 H 0.71694 0.82722 0.82054 0.0
H685 H 0.8595 0.8759 0.81912 0.0
H686 H 0.77064 0.78167 0.81337 0.0
H687 H 0.80431 0.91981 0.8262 0.0
H688 H 0.96359 0.91822 0.8306 0.0
H689 H 0.97017 0.9136 0.79685 0.0
H690 H 0.76966 0.6851 0.84917 0.0
H691 H 0.7925 0.81316 0.85467 0.0
H692 H 0.94519 0.73597 0.78243 0.0
H693 H 0.98424 0.77398 0.8131 0.0
H694 H 0.01764 0.73543 0.77675 0.0
H695 H 0.05597 0.77242 0.80694 0.0
H696 H 0.87352 0.64535 0.80059 0.0
H697 H 0.77083 0.71004 0.81356 0.0
H698 H 0.82555 0.6037 0.79001 0.0
H699 H 0.72463 0.66758 0.80265 0.0
H700 H 0.95687 0.5912 0.83163 0.0
H701 H 0.98697 0.59753 0.79874 0.0
H702 H 0.75035 0.78059 0.77669 0.0
H703 H 0.84739 0.69826 0.76781 0.0
Li704 Li 0.75374 0.64176 0.69531 0.0
Li705 Li 0.78912 0.58852 0.68531 0.0
Li706 Li 0.75019 0.64406 0.67601 0.0
Li707 Li 0.71408 0.58961 0.68504 0.0
C708 C 0.82406 0.68084 0.68732 0.0
N709 N 0.87449 0.74642 0.69166 0.0
C710 C 0.86302 0.67437 0.69148 0.0
C711 C 0.81111 0.72066 0.68517 0.0
C712 C 0.88795 0.70791 0.69369 0.0
C713 C 0.83694 0.75341 0.68747 0.0
C714 C 0.76338 0.54946 0.7033 0.0
C715 C 0.76904 0.47696 0.70635 0.0
N716 N 0.78951 0.48454 0.71541 0.0
C717 C 0.78395 0.55654 0.71272 0.0
C718 C 0.7554 0.50937 0.70014 0.0
C719 C 0.79712 0.52332 0.7187 0.0
C720 C 0.72042 0.68305 0.71283 0.0
N721 N 0.75568 0.67038 0.70821 0.0
C722 C 0.79435 0.68926 0.7233 0.0
C723 C 0.79224 0.67336 0.71319 0.0
C724 C 0.75842 0.7017 0.72832 0.0
C725 C 0.72112 0.69923 0.72297 0.0
H726 H 0.69162 0.67925 0.7088 0.0
H727 H 0.81948 0.66147 0.70954 0.0
C728 C 0.85205 0.54152 0.67592 0.0
N729 N 0.8387 0.55816 0.68507 0.0
C730 C 0.89108 0.52435 0.6753 0.0
C731 C 0.9016 0.54133 0.69354 0.0
C732 C 0.86247 0.55821 0.69381 0.0
C733 C 0.91635 0.52477 0.68417 0.0
H734 H 0.83304 0.543 0.669 0.0
H735 H 0.85187 0.57315 0.70084 0.0
C736 C 0.68252 0.68409 0.68456 0.0
N737 N 0.6371 0.75406 0.68116 0.0
C738 C 0.64474 0.68177 0.67949 0.0
C739 C 0.69675 0.72191 0.68809 0.0
C740 C 0.62236 0.71751 0.67779 0.0
C741 C 0.67348 0.75695 0.68625 0.0
C742 C 0.73881 0.55307 0.66683 0.0
C743 C 0.71653 0.56114 0.65772 0.0
C744 C 0.74767 0.51268 0.66955 0.0
C745 C 0.7025 0.52858 0.65163 0.0
C746 C 0.73314 0.48094 0.66325 0.0
N747 N 0.71097 0.48948 0.65451 0.0
C748 C 0.78403 0.69273 0.6599 0.0
C749 C 0.7132 0.67877 0.65825 0.0
C750 C 0.78409 0.7132 0.65031 0.0
N751 N 0.74886 0.67624 0.66368 0.0
C752 C 0.71192 0.69869 0.6486 0.0
C753 C 0.74775 0.71592 0.64455 0.0
H754 H 0.81225 0.68901 0.66419 0.0
H755 H 0.68612 0.66395 0.66123 0.0
C756 C 0.65108 0.53993 0.69345 0.0
N757 N 0.66401 0.56041 0.68479 0.0
C758 C 0.61177 0.52332 0.69377 0.0
C759 C 0.6001 0.54894 0.67624 0.0
C760 C 0.63952 0.56509 0.67627 0.0
C761 C 0.58584 0.52832 0.68512 0.0
H762 H 0.67066 0.53781 0.70024 0.0
H763 H 0.64994 0.58291 0.66967 0.0
O764 O 0.79929 0.64827 0.68509 0.0
O765 O 0.75041 0.58164 0.69731 0.0
O766 O 0.70477 0.64934 0.68633 0.0
O767 O 0.75257 0.58458 0.67293 0.0
H768 H 0.87383 0.64379 0.69307 0.0
H769 H 0.78171 0.72623 0.68161 0.0
H770 H 0.91804 0.70332 0.69699 0.0
H771 H 0.82723 0.78437 0.68587 0.0
H772 H 0.7632 0.44578 0.70397 0.0
H773 H 0.78997 0.58734 0.71535 0.0
H774 H 0.73846 0.50334 0.69305 0.0
H775 H 0.81337 0.52837 0.72597 0.0
H776 H 0.82347 0.6904 0.72732 0.0
H777 H 0.69289 0.70832 0.72673 0.0
H778 H 0.90193 0.51205 0.66793 0.0
H779 H 0.92071 0.54248 0.70047 0.0
H780 H 0.63289 0.65274 0.67685 0.0
H781 H 0.72522 0.72419 0.69233 0.0
H782 H 0.59324 0.71616 0.67379 0.0
H783 H 0.68424 0.78642 0.68891 0.0
H784 H 0.70984 0.59221 0.65542 0.0
H785 H 0.7659 0.50592 0.67639 0.0
H786 H 0.6849 0.5344 0.64462 0.0
H787 H 0.73963 0.44953 0.6653 0.0
H788 H 0.81229 0.72584 0.64728 0.0
H789 H 0.68357 0.6999 0.64424 0.0
H790 H 0.60128 0.5078 0.70076 0.0
H791 H 0.58048 0.55359 0.66951 0.0
Li792 Li 0.35773 0.2502 0.94553 0.0
Li793 Li 0.41097 0.28469 0.93558 0.0
Li794 Li 0.35618 0.24669 0.92697 0.0
Li795 Li 0.40725 0.20744 0.93589 0.0
C796 C 0.32767 0.32244 0.94095 0.0
N797 N 0.27823 0.3744 0.95236 0.0
C798 C 0.34501 0.35251 0.94733 0.0
C799 C 0.2852 0.31913 0.94027 0.0
C800 C 0.31949 0.37842 0.95306 0.0
C801 C 0.26072 0.34558 0.94614 0.0
C802 C 0.45755 0.24359 0.95097 0.0
C803 C 0.52937 0.23795 0.94701 0.0
N804 N 0.53774 0.23621 0.95744 0.0
C805 C 0.46683 0.24166 0.96164 0.0
C806 C 0.48902 0.24167 0.94358 0.0
C807 C 0.50758 0.23798 0.96476 0.0
C808 C 0.29552 0.23244 0.96075 0.0
N809 N 0.32958 0.25448 0.95843 0.0
C810 C 0.33032 0.28391 0.97553 0.0
C811 C 0.34721 0.27968 0.96558 0.0
C812 C 0.29537 0.26151 0.97814 0.0
C813 C 0.27771 0.23552 0.97068 0.0
H814 H 0.28264 0.21202 0.95499 0.0
H815 H 0.37473 0.29617 0.96356 0.0
C816 C 0.42835 0.36047 0.92731 0.0
N817 N 0.44125 0.33431 0.9349 0.0
C818 C 0.44298 0.40048 0.92697 0.0
C819 C 0.4846 0.38584 0.94216 0.0
C820 C 0.46893 0.34611 0.94226 0.0
C821 C 0.47099 0.41352 0.93454 0.0
H822 H 0.40517 0.35075 0.92181 0.0
H823 H 0.47755 0.3255 0.94848 0.0
C824 C 0.31633 0.17859 0.93286 0.0
N825 N 0.25336 0.13329 0.92433 0.0
C826 C 0.32405 0.13991 0.92865 0.0
C827 C 0.27655 0.19408 0.9328 0.0
C828 C 0.2918 0.1175 0.92437 0.0
C829 C 0.24515 0.17077 0.92842 0.0
C830 C 0.41855 0.23696 0.91342 0.0
C831 C 0.41444 0.1971 0.90964 0.0
C832 C 0.42469 0.26909 0.90639 0.0
C833 C 0.41634 0.19007 0.89885 0.0
C834 C 0.4265 0.2608 0.89566 0.0
N835 N 0.4223 0.22179 0.89215 0.0
C836 C 0.31174 0.28697 0.91132 0.0
C837 C 0.31674 0.21548 0.90856 0.0
C838 C 0.29209 0.29193 0.90169 0.0
N839 N 0.3238 0.2492 0.91453 0.0
C840 C 0.29686 0.21898 0.89895 0.0
C841 C 0.28481 0.2576 0.89541 0.0
H842 H 0.31854 0.31339 0.91609 0.0
H843 H 0.32787 0.18604 0.91103 0.0
C844 C 0.4197 0.12851 0.94297 0.0
N845 N 0.43583 0.15716 0.93647 0.0
C846 C 0.43538 0.08891 0.94307 0.0
C847 C 0.48543 0.1096 0.93016 0.0
C848 C 0.46858 0.14885 0.93026 0.0
C849 C 0.46816 0.07914 0.93649 0.0
H850 H 0.39366 0.13614 0.94781 0.0
H851 H 0.48078 0.17229 0.92518 0.0
O852 O 0.3521 0.2962 0.93545 0.0
O853 O 0.41772 0.2467 0.94784 0.0
O854 O 0.34749 0.20093 0.93712 0.0
O855 O 0.41675 0.24445 0.92395 0.0
H856 H 0.37781 0.35546 0.94799 0.0
H857 H 0.2713 0.2964 0.93527 0.0
H858 H 0.3325 0.40162 0.95809 0.0
H859 H 0.2278 0.34323 0.94573 0.0
H860 H 0.55403 0.23648 0.94138 0.0
H861 H 0.44277 0.24297 0.96745 0.0
H862 H 0.48249 0.24321 0.93529 0.0
H863 H 0.51523 0.23649 0.97299 0.0
H864 H 0.34468 0.30395 0.98119 0.0
H865 H 0.25084 0.21768 0.97256 0.0
H866 H 0.43165 0.4214 0.92107 0.0
H867 H 0.50588 0.39538 0.94819 0.0
H868 H 0.35465 0.1275 0.92856 0.0
H869 H 0.27005 0.22388 0.93604 0.0
H870 H 0.29736 0.08763 0.92103 0.0
H871 H 0.21426 0.18249 0.92828 0.0
H872 H 0.40908 0.17193 0.91495 0.0
H873 H 0.42809 0.30009 0.90917 0.0
H874 H 0.41291 0.15941 0.89581 0.0
H875 H 0.43116 0.28538 0.89012 0.0
H876 H 0.28336 0.32217 0.89907 0.0
H877 H 0.29205 0.19206 0.89417 0.0
H878 H 0.42158 0.06592 0.94804 0.0
H879 H 0.51085 0.10275 0.92502 0.0
Li880 Li 0.74695 0.86181 0.19561 0.0
Li881 Li 0.71154 0.91617 0.18571 0.0
Li882 Li 0.74808 0.85883 0.17622 0.0
Li883 Li 0.78661 0.91185 0.18524 0.0
C884 C 0.6678 0.83271 0.1882 0.0
N885 N 0.60043 0.78508 0.19281 0.0
C886 C 0.63532 0.84899 0.19396 0.0
C887 C 0.66568 0.79238 0.18464 0.0
C888 C 0.60164 0.82438 0.19625 0.0
C889 C 0.63147 0.76874 0.18709 0.0
C890 C 0.7455 0.95664 0.20323 0.0
C891 C 0.74499 0.03015 0.20443 0.0
N892 N 0.73356 0.02732 0.21465 0.0
C893 C 0.73388 0.95442 0.21375 0.0
C894 C 0.7512 0.99476 0.19853 0.0
C895 C 0.72795 0.99052 0.21939 0.0
C896 C 0.77797 0.81369 0.21251 0.0
N897 N 0.74473 0.83332 0.20854 0.0
C898 C 0.70702 0.82101 0.22422 0.0
C899 C 0.70976 0.83733 0.21417 0.0
C900 C 0.74084 0.80097 0.22852 0.0
C901 C 0.7766 0.7969 0.22258 0.0
H902 H 0.80594 0.81221 0.20803 0.0
H903 H 0.68457 0.8547 0.21104 0.0
C904 C 0.63955 0.93994 0.1763 0.0
N905 N 0.66202 0.94648 0.1851 0.0
C906 C 0.59953 0.9544 0.17562 0.0
C907 C 0.60698 0.98349 0.19294 0.0
C908 C 0.64673 0.96807 0.19333 0.0
C909 C 0.58282 0.9759 0.18409 0.0
H910 H 0.65221 0.92183 0.16999 0.0
H911 H 0.66441 0.97173 0.20039 0.0
C912 C 0.80991 0.81302 0.18567 0.0
N913 N 0.84101 0.73471 0.18454 0.0
C914 C 0.85119 0.80683 0.18338 0.0
C915 C 0.78448 0.77945 0.18743 0.0
C916 C 0.86632 0.76698 0.18283 0.0
C917 C 0.80077 0.74008 0.18682 0.0
C918 C 0.76276 0.94636 0.1664 0.0
C919 C 0.78795 0.93387 0.15816 0.0
C920 C 0.75215 0.98753 0.16737 0.0
C921 C 0.80316 0.96306 0.1512 0.0
C922 C 0.76795 0.01579 0.16024 0.0
N923 N 0.79298 0.00309 0.15238 0.0
C924 C 0.70934 0.82227 0.15913 0.0
C925 C 0.78124 0.81284 0.15958 0.0
C926 C 0.70704 0.80312 0.14939 0.0
N927 N 0.74607 0.82686 0.16396 0.0
C928 C 0.78032 0.79327 0.14988 0.0
C929 C 0.74294 0.78882 0.14467 0.0
H930 H 0.68207 0.83462 0.16273 0.0
H931 H 0.81015 0.81816 0.16343 0.0
C932 C 0.85156 0.9638 0.19226 0.0
N933 N 0.83808 0.93853 0.18453 0.0
C934 C 0.89155 0.97869 0.19205 0.0
C935 C 0.90307 0.94104 0.17601 0.0
C936 C 0.86297 0.92681 0.17654 0.0
C937 C 0.91767 0.96696 0.18389 0.0
H938 H 0.83195 0.9712 0.19878 0.0
H939 H 0.8521 0.90516 0.17079 0.0
O940 O 0.70066 0.85661 0.18567 0.0
O941 O 0.75095 0.92159 0.19758 0.0
O942 O 0.79455 0.85183 0.18608 0.0
O943 O 0.74747 0.91823 0.17327 0.0
H944 H 0.63622 0.8802 0.19673 0.0
H945 H 0.69002 0.77951 0.17995 0.0
H946 H 0.57642 0.83655 0.20076 0.0
H947 H 0.6295 0.73745 0.18441 0.0
H948 H 0.74931 0.05987 0.20089 0.0
H949 H 0.72939 0.92513 0.21751 0.0
H950 H 0.76062 0.99695 0.19044 0.0
H951 H 0.71888 0.98929 0.22754 0.0
H952 H 0.67927 0.82508 0.22873 0.0
H953 H 0.80332 0.78197 0.2258 0.0
H954 H 0.58139 0.94791 0.16872 0.0
H955 H 0.5946 0.99969 0.19962 0.0
H956 H 0.87125 0.83256 0.18199 0.0
H957 H 0.75264 0.7838 0.18933 0.0
H958 H 0.89819 0.7617 0.18103 0.0
H959 H 0.78144 0.71381 0.18817 0.0
H960 H 0.79585 0.902 0.15719 0.0
H961 H 0.73165 0.9975 0.17351 0.0
H962 H 0.82299 0.95388 0.14484 0.0
H963 H 0.76017 0.0478 0.16093 0.0
H964 H 0.67785 0.80026 0.14546 0.0
H965 H 0.8085 0.78283 0.14633 0.0
H966 H 0.90234 0.99827 0.1983 0.0
H967 H 0.92285 0.93105 0.16971 0.0
Li968 Li 0.09098 0.21791 0.43703 0.0
Li969 Li 0.14535 0.25373 0.44663 0.0
Li970 Li 0.08824 0.29246 0.43749 0.0
Li971 Li 0.13932 0.25641 0.42765 0.0
C972 C 0.05779 0.23285 0.45527 0.0
N973 N 0.00225 0.18627 0.46632 0.0
C974 C 0.07078 0.20925 0.46377 0.0
C975 C 0.01657 0.23308 0.45244 0.0
C976 C 0.04221 0.18586 0.46925 0.0
C977 C 0.98896 0.2092 0.45811 0.0
C978 C 0.17471 0.18554 0.43035 0.0
C979 C 0.24148 0.16919 0.42356 0.0
N980 N 0.2242 0.14203 0.41683 0.0
C981 C 0.15761 0.15727 0.42341 0.0
C982 C 0.21699 0.19138 0.43049 0.0
C983 C 0.18316 0.13562 0.41662 0.0
C984 C 0.03189 0.15798 0.43063 0.0
N985 N 0.06267 0.16711 0.43739 0.0
C986 C 0.06314 0.09875 0.44398 0.0
C987 C 0.07824 0.13859 0.44403 0.0
C988 C 0.03215 0.08824 0.43692 0.0
C989 C 0.01601 0.1183 0.43026 0.0
H990 H 0.02064 0.1811 0.42531 0.0
H991 H 0.10335 0.14655 0.44915 0.0
C992 C 0.1717 0.28243 0.46611 0.0
N993 N 0.17626 0.25167 0.45906 0.0
C994 C 0.18728 0.27826 0.47623 0.0
C995 C 0.21349 0.21168 0.47141 0.0
C996 C 0.19735 0.2171 0.46139 0.0
C997 C 0.20742 0.24206 0.479 0.0
H998 H 0.15403 0.30917 0.46403 0.0
H999 H 0.19966 0.19288 0.45566 0.0
C1000 C 0.06808 0.27969 0.41698 0.0
N1001 N 0.04629 0.32842 0.4002 0.0
C1002 C 0.08984 0.31545 0.41484 0.0
C1003 C 0.03527 0.26868 0.41058 0.0
C1004 C 0.07836 0.33969 0.40633 0.0
C1005 C 0.02472 0.29372 0.40213 0.0
C1006 C 0.18338 0.32447 0.43621 0.0
C1007 C 0.182 0.36308 0.43153 0.0
C1008 C 0.22067 0.30912 0.43982 0.0
C1009 C 0.21811 0.38535 0.43037 0.0
C1010 C 0.2561 0.33235 0.43852 0.0
N1011 N 0.2541 0.36965 0.43385 0.0
C1012 C 0.07888 0.37305 0.44343 0.0
C1013 C 0.02216 0.34898 0.43364 0.0
C1014 C 0.06312 0.41262 0.44344 0.0
N1015 N 0.05874 0.34243 0.43842 0.0
C1016 C 0.00515 0.38823 0.43349 0.0
C1017 C 0.02621 0.42053 0.4383 0.0
H1018 H 0.10791 0.36693 0.44715 0.0
H1019 H 0.00686 0.32411 0.42967 0.0
C1020 C 0.14933 0.23455 0.40676 0.0
N1021 N 0.16818 0.2559 0.41453 0.0
C1022 C 0.16654 0.2324 0.39679 0.0
C1023 C 0.22284 0.27365 0.40298 0.0
C1024 C 0.20453 0.27498 0.41285 0.0
C1025 C 0.20353 0.25236 0.39485 0.0
H1026 H 0.12081 0.21906 0.40833 0.0
H1027 H 0.21953 0.29115 0.41909 0.0
O1028 O 0.08543 0.25506 0.44963 0.0
O1029 O 0.15009 0.20795 0.43683 0.0
O1030 O 0.0786 0.25537 0.42529 0.0
O1031 O 0.14821 0.30252 0.43757 0.0
H1032 H 0.10264 0.2087 0.46603 0.0
H1033 H 0.00617 0.25114 0.44585 0.0
H1034 H 0.05182 0.16727 0.47581 0.0
H1035 H 0.957 0.20881 0.45597 0.0
H1036 H 0.27422 0.17362 0.42353 0.0
H1037 H 0.12494 0.15253 0.42314 0.0
H1038 H 0.23073 0.21303 0.43583 0.0
H1039 H 0.17032 0.11386 0.41116 0.0
H1040 H 0.07629 0.07607 0.44916 0.0
H1041 H 0.99215 0.11085 0.42471 0.0
H1042 H 0.18179 0.30194 0.48199 0.0
H1043 H 0.22854 0.18324 0.4734 0.0
H1044 H 0.11536 0.32436 0.41966 0.0
H1045 H 0.0181 0.24107 0.41212 0.0
H1046 H 0.09496 0.36745 0.40459 0.0
H1047 H 0.99937 0.28557 0.39712 0.0
H1048 H 0.15334 0.37583 0.42885 0.0
H1049 H 0.22237 0.27947 0.4435 0.0
H1050 H 0.2175 0.41518 0.42673 0.0
H1051 H 0.28518 0.32071 0.44122 0.0
H1052 H 0.07996 0.43701 0.44722 0.0
H1053 H 0.97656 0.3936 0.42945 0.0
H1054 H 0.15116 0.21549 0.39066 0.0
H1055 H 0.25166 0.28909 0.40167 0.0
Li1056 Li 0.71678 0.91313 0.56177 0.0
Li1057 Li 0.74951 0.86067 0.57175 0.0
Li1058 Li 0.79063 0.9098 0.56253 0.0
Li1059 Li 0.75334 0.85896 0.55296 0.0
C1060 C 0.75495 0.96068 0.57705 0.0
N1061 N 0.7606 0.042 0.58267 0.0
C1062 C 0.75909 0.9716 0.58758 0.0
C1063 C 0.75368 0.99114 0.56938 0.0
C1064 C 0.76189 0.01287 0.59027 0.0
C1065 C 0.75659 0.03207 0.57238 0.0
C1066 C 0.66752 0.84766 0.56678 0.0
C1067 C 0.60035 0.81756 0.56748 0.0
N1068 N 0.5938 0.83594 0.57689 0.0
C1069 C 0.66007 0.86638 0.57644 0.0
C1070 C 0.63742 0.82313 0.56224 0.0
C1071 C 0.62263 0.86003 0.58143 0.0
C1072 C 0.64528 0.93832 0.552 0.0
N1073 N 0.66759 0.94406 0.56087 0.0
C1074 C 0.61231 0.98001 0.56891 0.0
C1075 C 0.65216 0.96479 0.56922 0.0
C1076 C 0.58824 0.97314 0.56001 0.0
C1077 C 0.60517 0.95267 0.5514 0.0
H1078 H 0.65801 0.92075 0.54561 0.0
H1079 H 0.66985 0.96762 0.57633 0.0
C1080 C 0.7727 0.84434 0.59211 0.0
N1081 N 0.74812 0.83015 0.58434 0.0
C1082 C 0.77315 0.82516 0.60186 0.0
C1083 C 0.72314 0.77687 0.5954 0.0
C1084 C 0.72398 0.79675 0.58572 0.0
C1085 C 0.74777 0.79137 0.60357 0.0
H1086 H 0.79172 0.87082 0.59073 0.0
H1087 H 0.70511 0.78581 0.57936 0.0
C1088 C 0.77884 0.92545 0.54121 0.0
N1089 N 0.82532 0.93927 0.52349 0.0
C1090 C 0.8171 0.90692 0.54013 0.0
C1091 C 0.76418 0.95087 0.53327 0.0
C1092 C 0.84015 0.91432 0.53112 0.0
C1093 C 0.78814 0.9575 0.52437 0.0
C1094 C 0.80782 0.8091 0.56368 0.0
C1095 C 0.84819 0.79686 0.56536 0.0
C1096 C 0.77723 0.77955 0.56265 0.0
C1097 C 0.85729 0.75524 0.56602 0.0
C1098 C 0.78756 0.73824 0.56337 0.0
N1099 N 0.82704 0.72704 0.56503 0.0
C1100 C 0.87104 0.91855 0.56883 0.0
C1101 C 0.84932 0.97317 0.55794 0.0
C1102 C 0.91085 0.93366 0.56895 0.0
N1103 N 0.84148 0.93794 0.56324 0.0
C1104 C 0.8888 0.9895 0.55789 0.0
C1105 C 0.92004 0.96917 0.56331 0.0
H1106 H 0.86381 0.89071 0.57299 0.0
H1107 H 0.82528 0.98789 0.55352 0.0
C1108 C 0.72081 0.83014 0.53409 0.0
N1109 N 0.7543 0.82817 0.54037 0.0
C1110 C 0.72283 0.81593 0.52378 0.0
C1111 C 0.7931 0.79628 0.52682 0.0
C1112 C 0.78975 0.81081 0.53704 0.0
C1113 C 0.75972 0.7999 0.52002 0.0
H1114 H 0.69337 0.84498 0.53689 0.0
H1115 H 0.8163 0.81072 0.54207 0.0
O1116 O 0.75245 0.9203 0.57436 0.0
O1117 O 0.70371 0.85372 0.56164 0.0
O1118 O 0.75553 0.91875 0.54995 0.0
O1119 O 0.79861 0.84984 0.56309 0.0
H1120 H 0.76014 0.94836 0.59361 0.0
H1121 H 0.75034 0.98342 0.56119 0.0
H1122 H 0.76511 0.02175 0.59839 0.0
H1123 H 0.75564 0.05594 0.56652 0.0
H1124 H 0.57677 0.79865 0.56405 0.0
H1125 H 0.68287 0.88566 0.58006 0.0
H1126 H 0.64266 0.80862 0.55474 0.0
H1127 H 0.61646 0.87433 0.58891 0.0
H1128 H 0.59976 0.99532 0.57571 0.0
H1129 H 0.58708 0.94668 0.54446 0.0
H1130 H 0.79259 0.83681 0.60804 0.0
H1131 H 0.70345 0.75064 0.59652 0.0
H1132 H 0.82896 0.88704 0.54617 0.0
H1133 H 0.73456 0.96533 0.53398 0.0
H1134 H 0.86981 0.9002 0.53018 0.0
H1135 H 0.77716 0.97711 0.51816 0.0
H1136 H 0.87229 0.81929 0.56613 0.0
H1137 H 0.74585 0.78824 0.56129 0.0
H1138 H 0.88842 0.74536 0.56733 0.0
H1139 H 0.76418 0.71509 0.5626 0.0
H1140 H 0.93442 0.91746 0.57322 0.0
H1141 H 0.89518 0.01701 0.55347 0.0
H1142 H 0.6968 0.81958 0.51862 0.0
H1143 H 0.82211 0.78457 0.52405 0.0
Li1144 Li 0.14187 0.2519 0.82257 0.0
Li1145 Li 0.08886 0.21513 0.81358 0.0
Li1146 Li 0.13897 0.25702 0.80399 0.0
Li1147 Li 0.08725 0.29186 0.8143 0.0
C1148 C 0.17827 0.18161 0.81576 0.0
N1149 N 0.23897 0.13024 0.82303 0.0
C1150 C 0.16835 0.14282 0.81959 0.0
C1151 C 0.21907 0.19411 0.81555 0.0
C1152 C 0.19948 0.11733 0.82324 0.0
C1153 C 0.24931 0.16775 0.81929 0.0
C1154 C 0.07991 0.23959 0.83616 0.0
C1155 C 0.06921 0.25582 0.85439 0.0
N1156 N 0.07713 0.21628 0.85696 0.0
C1157 C 0.08789 0.19911 0.83899 0.0
C1158 C 0.07047 0.2682 0.84392 0.0
C1159 C 0.08638 0.18793 0.84954 0.0
C1160 C 0.18393 0.29061 0.83873 0.0
N1161 N 0.17496 0.25289 0.8349 0.0
C1162 C 0.20499 0.2211 0.84989 0.0
C1163 C 0.18512 0.21841 0.84025 0.0
C1164 C 0.21378 0.25962 0.85407 0.0
C1165 C 0.20343 0.29474 0.8484 0.0
H1166 H 0.17468 0.31754 0.83443 0.0
H1167 H 0.17634 0.18883 0.83733 0.0
C1168 C 0.0712 0.13882 0.80546 0.0
N1169 N 0.05853 0.16605 0.81281 0.0
C1170 C 0.05461 0.09962 0.80517 0.0
C1171 C 0.01082 0.11791 0.81972 0.0
C1172 C 0.02818 0.1569 0.8197 0.0
C1173 C 0.02477 0.08869 0.81252 0.0
H1174 H 0.09542 0.14712 0.8001 0.0
H1175 H 0.01851 0.17934 0.8254 0.0
C1176 C 0.17275 0.32744 0.8092 0.0
N1177 N 0.2262 0.37807 0.79863 0.0
C1178 C 0.15786 0.36024 0.80332 0.0
C1179 C 0.21482 0.32073 0.80984 0.0
C1180 C 0.18538 0.38541 0.79801 0.0
C1181 C 0.24135 0.34656 0.8044 0.0
C1182 C 0.03867 0.25338 0.799 0.0
C1183 C 0.02839 0.25066 0.7884 0.0
C1184 C 0.00779 0.25369 0.80657 0.0
C1185 C 0.98726 0.24841 0.78553 0.0
C1186 C 0.96704 0.25136 0.80339 0.0
N1187 N 0.9577 0.2488 0.79302 0.0
C1188 C 0.19746 0.23604 0.78817 0.0
C1189 C 0.15106 0.28967 0.78427 0.0
C1190 C 0.21426 0.2386 0.77812 0.0
N1191 N 0.16645 0.26143 0.791 0.0
C1192 C 0.16713 0.29353 0.77423 0.0
C1193 C 0.19881 0.26758 0.77107 0.0
H1194 H 0.20842 0.21321 0.79359 0.0
H1195 H 0.1257 0.30867 0.78668 0.0
C1196 C 0.06346 0.36466 0.82381 0.0
N1197 N 0.05748 0.34157 0.81509 0.0
C1198 C 0.04806 0.40437 0.82433 0.0
C1199 C 0.02056 0.39582 0.80687 0.0
C1200 C 0.03642 0.35622 0.8067 0.0
C1201 C 0.02691 0.4204 0.81572 0.0
H1202 H 0.08182 0.35286 0.83016 0.0
H1203 H 0.03353 0.33798 0.79968 0.0
O1204 O 0.14823 0.2069 0.8121 0.0
O1205 O 0.08151 0.25115 0.82587 0.0
O1206 O 0.14629 0.30203 0.81432 0.0
O1207 O 0.07885 0.25532 0.80189 0.0
H1208 H 0.13697 0.13259 0.81983 0.0
H1209 H 0.22729 0.22387 0.81256 0.0
H1210 H 0.19223 0.08732 0.82627 0.0
H1211 H 0.28099 0.17711 0.81922 0.0
H1212 H 0.062 0.27766 0.86047 0.0
H1213 H 0.09583 0.17668 0.83311 0.0
H1214 H 0.06405 0.2996 0.84189 0.0
H1215 H 0.09274 0.15676 0.85184 0.0
H1216 H 0.21219 0.19351 0.8542 0.0
H1217 H 0.2096 0.32487 0.85153 0.0
H1218 H 0.06584 0.07762 0.79952 0.0
H1219 H 0.98769 0.11021 0.82546 0.0
H1220 H 0.12539 0.36596 0.80278 0.0
H1221 H 0.22684 0.29589 0.81449 0.0
H1222 H 0.17427 0.41074 0.79336 0.0
H1223 H 0.27399 0.3416 0.80477 0.0
H1224 H 0.05198 0.25032 0.78246 0.0
H1225 H 0.0151 0.2558 0.81481 0.0
H1226 H 0.97885 0.24633 0.77736 0.0
H1227 H 0.94283 0.2516 0.80915 0.0
H1228 H 0.2385 0.21795 0.77581 0.0
H1229 H 0.15441 0.31587 0.76888 0.0
H1230 H 0.05377 0.42289 0.83121 0.0
H1231 H 0.00472 0.40767 0.80007 0.0
Li1232 Li 0.75529 0.64461 0.07218 0.0
Li1233 Li 0.79327 0.58949 0.06354 0.0
Li1234 Li 0.75249 0.63873 0.05343 0.0
Li1235 Li 0.71735 0.58696 0.06336 0.0
C1236 C 0.82698 0.67889 0.06557 0.0
N1237 N 0.87885 0.73889 0.07297 0.0
C1238 C 0.86643 0.66877 0.06887 0.0
C1239 C 0.81403 0.71955 0.06595 0.0
C1240 C 0.89217 0.69955 0.0726 0.0
C1241 C 0.84066 0.74942 0.06975 0.0
C1242 C 0.75898 0.56111 0.08413 0.0
C1243 C 0.74314 0.4991 0.09353 0.0
N1244 N 0.76538 0.51272 0.10182 0.0
C1245 C 0.78149 0.57453 0.09278 0.0
C1246 C 0.73944 0.52314 0.08453 0.0
C1247 C 0.78446 0.54961 0.10163 0.0
C1248 C 0.71639 0.69045 0.08769 0.0
N1249 N 0.7538 0.67818 0.08429 0.0
C1250 C 0.78575 0.70639 0.09947 0.0
C1251 C 0.78823 0.68592 0.08992 0.0
C1252 C 0.74746 0.71834 0.10326 0.0
C1253 C 0.71247 0.71074 0.09726 0.0
H1254 H 0.68949 0.68322 0.08314 0.0
H1255 H 0.81742 0.6747 0.08724 0.0
C1256 C 0.86257 0.55523 0.05442 0.0
N1257 N 0.84345 0.56063 0.06377 0.0
C1258 C 0.90215 0.53947 0.05407 0.0
C1259 C 0.90127 0.53437 0.07298 0.0
C1260 C 0.8617 0.55022 0.07296 0.0
C1261 C 0.92196 0.52954 0.06346 0.0
H1262 H 0.84752 0.56452 0.04726 0.0
H1263 H 0.8463 0.55572 0.08029 0.0
C1264 C 0.68216 0.67255 0.05761 0.0
N1265 N 0.63566 0.72525 0.04563 0.0
C1266 C 0.65255 0.65715 0.05078 0.0
C1267 C 0.68777 0.71473 0.05845 0.0
C1268 C 0.62945 0.68431 0.04476 0.0
C1269 C 0.66405 0.74088 0.0523 0.0
C1270 C 0.75662 0.5379 0.04856 0.0
C1271 C 0.74973 0.52663 0.03815 0.0
C1272 C 0.76485 0.5078 0.05602 0.0
C1273 C 0.75071 0.48532 0.03541 0.0
C1274 C 0.76563 0.46682 0.05298 0.0
N1275 N 0.75856 0.45651 0.04282 0.0
C1276 C 0.76608 0.70335 0.03849 0.0
C1277 C 0.72608 0.64665 0.03309 0.0
C1278 C 0.76106 0.72186 0.02869 0.0
N1279 N 0.7485 0.66648 0.04046 0.0
C1280 C 0.72038 0.66389 0.02324 0.0
C1281 C 0.73803 0.70181 0.02099 0.0
H1282 H 0.7838 0.71839 0.04449 0.0
H1283 H 0.71219 0.61758 0.03495 0.0
C1284 C 0.64691 0.55879 0.07322 0.0
N1285 N 0.66847 0.55625 0.06414 0.0
C1286 C 0.60758 0.54254 0.07383 0.0
C1287 C 0.61364 0.52087 0.05577 0.0
C1288 C 0.65289 0.53752 0.05551 0.0
C1289 C 0.59047 0.52401 0.06497 0.0
H1290 H 0.65976 0.57481 0.07986 0.0
H1291 H 0.67006 0.53721 0.04829 0.0
O1292 O 0.80137 0.64913 0.06191 0.0
O1293 O 0.75492 0.58552 0.07547 0.0
O1294 O 0.70591 0.64643 0.06333 0.0
O1295 O 0.75557 0.57828 0.05135 0.0
H1296 H 0.87709 0.63753 0.06857 0.0
H1297 H 0.7836 0.72788 0.06346 0.0
H1298 H 0.92274 0.69215 0.0752 0.0
H1299 H 0.83095 0.78097 0.07015 0.0
H1300 H 0.72823 0.46965 0.09392 0.0
H1301 H 0.79702 0.6036 0.09262 0.0
H1302 H 0.72149 0.51231 0.07799 0.0
H1303 H 0.80196 0.55959 0.10835 0.0
H1304 H 0.81317 0.71157 0.10403 0.0
H1305 H 0.6825 0.71951 0.10007 0.0
H1306 H 0.9176 0.53616 0.04661 0.0
H1307 H 0.91607 0.52714 0.08034 0.0
H1308 H 0.64786 0.62458 0.05003 0.0
H1309 H 0.71028 0.72712 0.06378 0.0
H1310 H 0.60668 0.67282 0.03937 0.0
H1311 H 0.66822 0.7736 0.05282 0.0
H1312 H 0.74359 0.54953 0.03224 0.0
H1313 H 0.77104 0.51595 0.06405 0.0
H1314 H 0.74528 0.47616 0.02738 0.0
H1315 H 0.77198 0.44324 0.05869 0.0
H1316 H 0.7748 0.75134 0.02714 0.0
H1317 H 0.70221 0.64794 0.01745 0.0
H1318 H 0.59015 0.5456 0.081 0.0
H1319 H 0.60091 0.50705 0.04879 0.0
Li1320 Li 0.35279 0.24932 0.32279 0.0
Li1321 Li 0.40612 0.28723 0.31379 0.0
Li1322 Li 0.35577 0.24488 0.30404 0.0
Li1323 Li 0.40992 0.21153 0.31384 0.0
C1324 C 0.31613 0.31827 0.31677 0.0
N1325 N 0.2559 0.3656 0.32588 0.0
C1326 C 0.32577 0.35641 0.32103 0.0
C1327 C 0.27572 0.30453 0.31699 0.0
C1328 C 0.29492 0.37982 0.32563 0.0
C1329 C 0.24576 0.32878 0.32169 0.0
C1330 C 0.44428 0.25537 0.33269 0.0
C1331 C 0.51497 0.245 0.33738 0.0
N1332 N 0.50854 0.26521 0.34654 0.0
C1333 C 0.43826 0.2754 0.34224 0.0
C1334 C 0.48285 0.23949 0.33031 0.0
C1335 C 0.47116 0.28034 0.3491 0.0
C1336 C 0.29704 0.2171 0.33762 0.0
N1337 N 0.32 0.25019 0.33502 0.0
C1338 C 0.3016 0.28398 0.35092 0.0
C1339 C 0.32243 0.28338 0.3414 0.0
C1340 C 0.27833 0.24999 0.35386 0.0
C1341 C 0.27562 0.21639 0.34708 0.0
H1342 H 0.29615 0.19091 0.33246 0.0
H1343 H 0.34134 0.30903 0.33919 0.0
C1344 C 0.44154 0.35553 0.30419 0.0
N1345 N 0.43401 0.33806 0.31366 0.0
C1346 C 0.45696 0.39521 0.30362 0.0
C1347 C 0.4567 0.3981 0.32256 0.0
C1348 C 0.44147 0.3583 0.32277 0.0
C1349 C 0.46406 0.41698 0.31289 0.0
H1350 H 0.43435 0.33907 0.29708 0.0
H1351 H 0.43378 0.34436 0.33016 0.0
C1352 C 0.32512 0.17285 0.30897 0.0
N1353 N 0.27423 0.12117 0.29789 0.0
C1354 C 0.34132 0.13948 0.30354 0.0
C1355 C 0.28296 0.1795 0.30891 0.0
C1356 C 0.31511 0.1138 0.29795 0.0
C1357 C 0.25776 0.15317 0.30321 0.0
C1358 C 0.45345 0.24902 0.29706 0.0
C1359 C 0.45761 0.2362 0.28666 0.0
C1360 C 0.48783 0.2625 0.30254 0.0
C1361 C 0.49627 0.23614 0.28203 0.0
C1362 C 0.52596 0.26206 0.29763 0.0
N1363 N 0.52937 0.24892 0.28756 0.0
C1364 C 0.29435 0.26336 0.28866 0.0
C1365 C 0.34192 0.21096 0.28462 0.0
C1366 C 0.27557 0.25861 0.27888 0.0
N1367 N 0.32689 0.2396 0.29128 0.0
C1368 C 0.32419 0.20519 0.27483 0.0
C1369 C 0.29072 0.22925 0.27188 0.0
H1370 H 0.28332 0.28619 0.29408 0.0
H1371 H 0.36796 0.19273 0.28692 0.0
C1372 C 0.44178 0.14237 0.32368 0.0
N1373 N 0.44177 0.16308 0.31444 0.0
C1374 C 0.45845 0.10317 0.32425 0.0
C1375 C 0.47568 0.10779 0.30585 0.0
C1376 C 0.45869 0.1469 0.30563 0.0
C1377 C 0.47485 0.08534 0.31519 0.0
H1378 H 0.4273 0.1557 0.33049 0.0
H1379 H 0.45703 0.16329 0.29832 0.0
O1380 O 0.34605 0.29463 0.31237 0.0
O1381 O 0.41212 0.24961 0.32597 0.0
O1382 O 0.35042 0.19895 0.31428 0.0
O1383 O 0.4157 0.2494 0.30169 0.0
H1384 H 0.35672 0.36781 0.32082 0.0
H1385 H 0.26763 0.27536 0.31363 0.0
H1386 H 0.30202 0.40929 0.32901 0.0
H1387 H 0.21443 0.31834 0.32199 0.0
H1388 H 0.54498 0.23302 0.3356 0.0
H1389 H 0.40859 0.28731 0.34433 0.0
H1390 H 0.488 0.22274 0.32314 0.0
H1391 H 0.46694 0.29612 0.35646 0.0
H1392 H 0.30426 0.31025 0.35603 0.0
H1393 H 0.25791 0.18971 0.34921 0.0
H1394 H 0.46221 0.40921 0.29605 0.0
H1395 H 0.4616 0.41443 0.32984 0.0
H1396 H 0.3738 0.13368 0.30353 0.0
H1397 H 0.26981 0.20475 0.31319 0.0
H1398 H 0.3273 0.08808 0.29365 0.0
H1399 H 0.2251 0.15816 0.30303 0.0
H1400 H 0.43132 0.22627 0.28222 0.0
H1401 H 0.48509 0.27388 0.31044 0.0
H1402 H 0.49993 0.22603 0.27401 0.0
H1403 H 0.55279 0.27237 0.30181 0.0
H1404 H 0.24979 0.27767 0.27678 0.0
H1405 H 0.3367 0.18246 0.26956 0.0
H1406 H 0.45723 0.08634 0.33155 0.0
H1407 H 0.48783 0.09453 0.29873 0.0
C1408 C 0.23054 0.22479 0.11537 0.0
C1409 C 0.25291 0.26123 0.11355 0.0
C1410 C 0.27803 0.26049 0.13163 0.0
C1411 C 0.25393 0.22546 0.13364 0.0
N1412 N 0.20321 0.17668 0.12805 0.0
N1413 N 0.29781 0.31446 0.12021 0.0
C1414 C 0.22917 0.20809 0.12566 0.0
C1415 C 0.27645 0.27918 0.12168 0.0
N1416 N 0.21161 0.20563 0.10717 0.0
N1417 N 0.30257 0.27648 0.13926 0.0
H1418 H 0.29836 0.33092 0.11321 0.0
H1419 H 0.29836 0.33092 0.11321 0.0
H1420 H 0.30541 0.26358 0.14671 0.0
H1421 H 0.32064 0.30233 0.13805 0.0
H1422 H 0.19849 0.17675 0.10768 0.0
H1423 H 0.21156 0.21735 0.09957 0.0
H1424 H 0.18111 0.16552 0.12294 0.0
H1425 H 0.20167 0.16343 0.13547 0.0
C1426 C 0.72955 0.76543 0.3819 0.0
C1427 C 0.77048 0.7519 0.383 0.0
C1428 C 0.77481 0.73901 0.36412 0.0
C1429 C 0.73295 0.74948 0.36317 0.0
N1430 N 0.66855 0.7673 0.37113 0.0
N1431 N 0.83082 0.72079 0.37565 0.0
C1432 C 0.70975 0.76128 0.37206 0.0
C1433 C 0.79282 0.73731 0.37424 0.0
N1434 N 0.71004 0.78316 0.39022 0.0
N1435 N 0.7975 0.73167 0.35532 0.0
H1436 H 0.8453 0.71967 0.38293 0.0
H1437 H 0.84684 0.70548 0.3698 0.0
H1438 H 0.78511 0.73203 0.34779 0.0
H1439 H 0.82911 0.72826 0.35537 0.0
H1440 H 0.68189 0.79777 0.38963 0.0
H1441 H 0.72336 0.786 0.39761 0.0
H1442 H 0.64912 0.77139 0.3775 0.0
H1443 H 0.65307 0.76524 0.36401 0.0
C1444 C 0.22733 0.25832 0.61711 0.0
C1445 C 0.24843 0.22092 0.61565 0.0
C1446 C 0.26607 0.21905 0.6343 0.0
C1447 C 0.24847 0.25833 0.63553 0.0
N1448 N 0.21735 0.31828 0.62794 0.0
N1449 N 0.29264 0.16802 0.62234 0.0
C1450 C 0.23034 0.27878 0.62689 0.0
C1451 C 0.26907 0.20183 0.62411 0.0
N1452 N 0.20357 0.27369 0.60922 0.0
N1453 N 0.27902 0.19785 0.64291 0.0
H1454 H 0.2954 0.15435 0.61499 0.0
H1455 H 0.31202 0.15538 0.62793 0.0
H1456 H 0.27744 0.20965 0.6505 0.0
H1457 H 0.28812 0.16739 0.64268 0.0
H1458 H 0.18393 0.29843 0.61018 0.0
H1459 H 0.2009 0.25968 0.60191 0.0
H1460 H 0.20824 0.33639 0.62165 0.0
H1461 H 0.21861 0.33419 0.63501 0.0
C1462 C 0.71862 0.75971 0.8651 0.0
C1463 C 0.75916 0.74567 0.86361 0.0
C1464 C 0.76317 0.72526 0.88205 0.0
C1465 C 0.72414 0.74282 0.88375 0.0
N1466 N 0.66671 0.78187 0.8774 0.0
N1467 N 0.82253 0.72038 0.87078 0.0
C1468 C 0.7023 0.76138 0.8754 0.0
C1469 C 0.78216 0.72981 0.87212 0.0
N1470 N 0.69548 0.7706 0.85663 0.0
N1471 N 0.78157 0.70335 0.88986 0.0
H1472 H 0.83746 0.72283 0.86358 0.0
H1473 H 0.8421 0.71316 0.87693 0.0
H1474 H 0.76864 0.69961 0.89727 0.0
H1475 H 0.80793 0.68608 0.88876 0.0
H1476 H 0.66435 0.77686 0.85706 0.0
H1477 H 0.70667 0.77019 0.84897 0.0
H1478 H 0.65173 0.79983 0.87187 0.0
H1479 H 0.65367 0.78367 0.88484 0.0
C1480 C 0.72731 0.7912 0.62253 0.0
C1481 C 0.74688 0.77144 0.61399 0.0
C1482 C 0.76467 0.71377 0.62538 0.0
C1483 C 0.7476 0.73506 0.63404 0.0
N1484 N 0.71363 0.79475 0.64101 0.0
N1485 N 0.78973 0.71703 0.60752 0.0
C1486 C 0.72937 0.77392 0.63265 0.0
C1487 C 0.76701 0.73346 0.61547 0.0
N1488 N 0.70624 0.82678 0.62129 0.0
N1489 N 0.77713 0.67415 0.62656 0.0
H1490 H 0.79206 0.73043 0.60013 0.0
H1491 H 0.80891 0.69193 0.60846 0.0
H1492 H 0.77588 0.65865 0.63369 0.0
H1493 H 0.78551 0.65545 0.62032 0.0
H1494 H 0.70209 0.84155 0.61413 0.0
H1495 H 0.70209 0.84155 0.61413 0.0
H1496 H 0.69998 0.82342 0.64024 0.0
H1497 H 0.71508 0.78388 0.64868 0.0
C1498 C 0.29235 0.26416 0.87596 0.0
C1499 C 0.26645 0.26202 0.88487 0.0
C1500 C 0.20591 0.26042 0.87359 0.0
C1501 C 0.2318 0.2629 0.86468 0.0
N1502 N 0.29845 0.27311 0.85713 0.0
N1503 N 0.19923 0.26409 0.89253 0.0
C1504 C 0.27473 0.26667 0.8658 0.0
C1505 C 0.22335 0.26205 0.88378 0.0
N1506 N 0.33382 0.26269 0.87724 0.0
N1507 N 0.16474 0.25545 0.87225 0.0
H1508 H 0.21101 0.26401 0.90012 0.0
H1509 H 0.16778 0.26851 0.89234 0.0
H1510 H 0.1507 0.25627 0.86492 0.0
H1511 H 0.14453 0.24853 0.87828 0.0
H1512 H 0.35452 0.25914 0.87113 0.0
H1513 H 0.3478 0.26302 0.88458 0.0
H1514 H 0.32935 0.28042 0.85742 0.0
H1515 H 0.28666 0.27378 0.84954 0.0
C1516 C 0.73984 0.71071 0.12267 0.0
C1517 C 0.74396 0.73665 0.11382 0.0
C1518 C 0.74757 0.79678 0.1252 0.0
C1519 C 0.74185 0.77099 0.13402 0.0
N1520 N 0.72672 0.70485 0.14133 0.0
N1521 N 0.74597 0.80407 0.10627 0.0
C1522 C 0.73621 0.72832 0.13281 0.0
C1523 C 0.74607 0.77966 0.11497 0.0
N1524 N 0.74055 0.6692 0.12139 0.0
N1525 N 0.75552 0.83743 0.12664 0.0
H1526 H 0.74601 0.79246 0.09866 0.0
H1527 H 0.74299 0.8357 0.10652 0.0
H1528 H 0.7554 0.85137 0.13399 0.0
H1529 H 0.7647 0.85703 0.12067 0.0
H1530 H 0.74256 0.64853 0.12756 0.0
H1531 H 0.74167 0.65514 0.11406 0.0
H1532 H 0.71781 0.67439 0.14086 0.0
H1533 H 0.72493 0.7166 0.14892 0.0
C1534 C 0.25559 0.22458 0.38236 0.0
C1535 C 0.22205 0.25096 0.38427 0.0
C1536 C 0.22219 0.27251 0.36589 0.0
C1537 C 0.25814 0.24921 0.36424 0.0
N1538 N 0.31287 0.20776 0.37114 0.0
N1539 N 0.17644 0.30418 0.37843 0.0
C1540 C 0.27588 0.22641 0.37254 0.0
C1541 C 0.20608 0.27605 0.37619 0.0
N1542 N 0.26733 0.19706 0.38984 0.0
N1543 N 0.20295 0.2904 0.35756 0.0
H1544 H 0.16366 0.30747 0.38587 0.0
H1545 H 0.16672 0.32642 0.37316 0.0
H1546 H 0.21404 0.28858 0.34991 0.0
H1547 H 0.17433 0.30414 0.35805 0.0
H1548 H 0.28859 0.17398 0.3885 0.0
H1549 H 0.25336 0.19505 0.39717 0.0
H1550 H 0.32953 0.19464 0.37722 0.0
H1551 H 0.32865 0.20817 0.36404 0.0
C1552 C 0.2658 0.24794 0.2432 0.0
C1553 C 0.25539 0.20766 0.24009 0.0
C1554 C 0.25601 0.18557 0.25843 0.0
C1555 C 0.2729 0.22378 0.26127 0.0
N1556 N 0.29624 0.29024 0.25691 0.0
N1557 N 0.24387 0.13678 0.24454 0.0
C1558 C 0.27777 0.25503 0.25377 0.0
C1559 C 0.25084 0.17614 0.24766 0.0
N1560 N 0.26381 0.27906 0.23608 0.0
N1561 N 0.2446 0.15862 0.26607 0.0
H1562 H 0.24001 0.12835 0.23673 0.0
H1563 H 0.24502 0.11191 0.24962 0.0
H1564 H 0.24762 0.16518 0.27403 0.0
H1565 H 0.22861 0.13176 0.26456 0.0
H1566 H 0.26696 0.30975 0.23804 0.0
H1567 H 0.25524 0.27442 0.22829 0.0
H1568 H 0.30441 0.31412 0.25193 0.0
H1569 H 0.30441 0.31412 0.25193 0.0
C1570 C 0.76103 0.74752 0.49334 0.0
C1571 C 0.78468 0.77606 0.48758 0.0
C1572 C 0.7851 0.82274 0.50256 0.0
C1573 C 0.76557 0.79231 0.50868 0.0
N1574 N 0.73739 0.72469 0.5104 0.0
N1575 N 0.82422 0.83831 0.48698 0.0
C1576 C 0.75396 0.75442 0.5042 0.0
C1577 C 0.79791 0.81312 0.49224 0.0
N1578 N 0.74484 0.71429 0.48835 0.0
N1579 N 0.79076 0.86108 0.50657 0.0
H1580 H 0.83425 0.83264 0.47936 0.0
H1581 H 0.83878 0.86317 0.49043 0.0
H1582 H 0.78198 0.86926 0.51414 0.0
H1583 H 0.80079 0.88579 0.50212 0.0
H1584 H 0.72404 0.6944 0.49182 0.0
H1585 H 0.74983 0.70829 0.48042 0.0
H1586 H 0.73237 0.69484 0.50791 0.0
H1587 H 0.73091 0.72922 0.51832 0.0
C1588 C 0.25516 0.30675 0.74719 0.0
C1589 C 0.23277 0.28709 0.73911 0.0
C1590 C 0.1926 0.24938 0.75208 0.0
C1591 C 0.21407 0.27004 0.76016 0.0
N1592 N 0.27065 0.31161 0.76577 0.0
N1593 N 0.18651 0.23428 0.7335 0.0
C1594 C 0.24712 0.29646 0.75781 0.0
C1595 C 0.20361 0.25644 0.74146 0.0
N1596 N 0.2829 0.33643 0.74467 0.0
N1597 N 0.16065 0.22429 0.7546 0.0
H1598 H 0.19336 0.2394 0.72563 0.0
H1599 H 0.1679 0.20891 0.73465 0.0
H1600 H 0.15302 0.21695 0.76231 0.0
H1601 H 0.14047 0.21209 0.74914 0.0
H1602 H 0.29677 0.35552 0.75012 0.0
H1603 H 0.2909 0.34333 0.73696 0.0
H1604 H 0.29752 0.32796 0.76462 0.0
H1605 H 0.26491 0.30527 0.77364 0.0
C1606 C 0.76115 0.71709 0.00263 0.0
C1607 C 0.73096 0.72034 0.01056 0.0
C1608 C 0.68038 0.74264 0.99768 0.0
C1609 C 0.71064 0.73982 0.98973 0.0
N1610 N 0.78141 0.73381 0.98484 0.0
N1611 N 0.66567 0.74582 0.01628 0.0
C1612 C 0.75165 0.73017 0.9923 0.0
C1613 C 0.69181 0.73644 0.00828 0.0
N1614 N 0.79809 0.69968 0.00486 0.0
N1615 N 0.64035 0.74886 0.99505 0.0
H1616 H 0.67329 0.74155 0.02414 0.0
H1617 H 0.6382 0.7613 0.0152 0.0
H1618 H 0.63051 0.75352 0.98737 0.0
H1619 H 0.61638 0.74634 0.00037 0.0
H1620 H 0.81954 0.69199 0.99917 0.0
H1621 H 0.80642 0.69049 0.01239 0.0
H1622 H 0.81247 0.73097 0.98644 0.0
H1623 H 0.77522 0.7433 0.9772 0.0
C1624 C 0.24228 0.30707 0.0017 0.0
C1625 C 0.26042 0.2838 0.00985 0.0
C1626 C 0.29537 0.2406 0.99701 0.0
C1627 C 0.27856 0.26492 0.98888 0.0
N1628 N 0.22963 0.31487 0.98305 0.0
N1629 N 0.29641 0.22369 0.01556 0.0
C1630 C 0.24969 0.29598 0.9911 0.0
C1631 C 0.28431 0.24881 0.00758 0.0
N1632 N 0.21956 0.34084 0.00414 0.0
N1633 N 0.32326 0.2109 0.99463 0.0
H1634 H 0.28914 0.22939 0.02338 0.0
H1635 H 0.31082 0.19571 0.01443 0.0
H1636 H 0.33063 0.20293 0.98694 0.0
H1637 H 0.34046 0.19528 0.00019 0.0
H1638 H 0.20954 0.36208 0.99865 0.0
H1639 H 0.21212 0.3488 0.01182 0.0
H1640 H 0.20551 0.33517 0.98408 0.0
H1641 H 0.23504 0.30783 0.9752 0.0
C1642 C 0.70747 0.74024 0.25219 0.0
C1643 C 0.719 0.76734 0.26035 0.0
C1644 C 0.75132 0.81327 0.2477 0.0
C1645 C 0.73889 0.78669 0.23951 0.0
N1646 N 0.71406 0.7211 0.23388 0.0
N1647 N 0.75955 0.8239 0.26642 0.0
C1648 C 0.71997 0.74877 0.24176 0.0
C1649 C 0.74364 0.80196 0.25826 0.0
N1650 N 0.683 0.70748 0.25438 0.0
N1651 N 0.76861 0.85017 0.24533 0.0
H1652 H 0.75402 0.81647 0.27424 0.0
H1653 H 0.78085 0.84723 0.2655 0.0
H1654 H 0.77586 0.85895 0.2377 0.0
H1655 H 0.77382 0.87308 0.25082 0.0
H1656 H 0.66941 0.68932 0.24867 0.0
H1657 H 0.67444 0.69956 0.26199 0.0
H1658 H 0.70385 0.69138 0.23509 0.0
H1659 H 0.7227 0.72683 0.22615 0.0
C1660 C 0.19118 0.20746 0.49593 0.0
C1661 C 0.21728 0.2336 0.49012 0.0
C1662 C 0.26018 0.24401 0.50565 0.0
C1663 C 0.23627 0.21482 0.51111 0.0
N1664 N 0.1835 0.16324 0.51099 0.0
N1665 N 0.27895 0.27343 0.48885 0.0
C1666 C 0.20295 0.19503 0.50613 0.0
C1667 C 0.25245 0.25109 0.49482 0.0
N1668 N 0.1545 0.19545 0.49182 0.0
N1669 N 0.28959 0.2655 0.51088 0.0
H1670 H 0.27384 0.2796 0.48094 0.0
H1671 H 0.30731 0.28341 0.4915 0.0
H1672 H 0.29623 0.26065 0.51878 0.0
H1673 H 0.30529 0.29012 0.50765 0.0
H1674 H 0.13221 0.18024 0.49614 0.0
H1675 H 0.14462 0.20383 0.48435 0.0
H1676 H 0.16225 0.14459 0.50725 0.0
H1677 H 0.19104 0.15305 0.51848 0.0
C1678 C 0.75166 0.68561 0.74744 0.0
C1679 C 0.76019 0.71449 0.73944 0.0
C1680 C 0.78711 0.76259 0.7524 0.0
C1681 C 0.7788 0.73359 0.76038 0.0
N1682 N 0.7445 0.67245 0.76607 0.0
N1683 N 0.77673 0.78329 0.73432 0.0
C1684 C 0.75805 0.69671 0.75807 0.0
C1685 C 0.7748 0.75404 0.74195 0.0
N1686 N 0.73955 0.64692 0.74485 0.0
N1687 N 0.80857 0.79725 0.75472 0.0
H1688 H 0.76804 0.77769 0.72659 0.0
H1689 H 0.78346 0.81383 0.7358 0.0
H1690 H 0.81725 0.80499 0.76233 0.0
H1691 H 0.81989 0.8172 0.74908 0.0
H1692 H 0.73767 0.62307 0.75022 0.0
H1693 H 0.73384 0.63774 0.73717 0.0
H1694 H 0.72579 0.6471 0.76496 0.0
H1695 H 0.74895 0.67983 0.77394 0.0
C1696 C 0.01506 0.02462 0.17706 0.0
C1697 C 0.04294 0.00641 0.18418 0.0
C1698 C 0.98977 0.95925 0.19019 0.0
C1699 C 0.96096 0.9802 0.18385 0.0
N1700 N 0.94432 0.03535 0.17209 0.0
N1701 N 0.05673 0.95967 0.19833 0.0
C1702 C 0.97311 0.01354 0.17748 0.0
C1703 C 0.03033 0.97448 0.19095 0.0
N1704 N 0.02895 0.05188 0.16976 0.0
N1705 N 0.97856 0.92424 0.19528 0.0
H1706 H 0.08697 0.96942 0.19895 0.0
H1707 H 0.04804 0.93983 0.2043 0.0
H1708 H 0.94897 0.91244 0.19502 0.0
H1709 H 0.99915 0.90508 0.19909 0.0
H1710 H 0.01113 0.06302 0.16364 0.0
H1711 H 0.05945 0.06095 0.16928 0.0
H1712 H 0.95045 0.06272 0.16825 0.0
H1713 H 0.91339 0.0277 0.17208 0.0
C1714 C 0.98302 0.47796 0.44522 0.0
C1715 C 0.01084 0.46312 0.43759 0.0
C1716 C 0.01472 0.53118 0.42957 0.0
C1717 C 0.98487 0.5453 0.43676 0.0
N1718 N 0.93624 0.53166 0.45052 0.0
N1719 N 0.04934 0.47319 0.4217 0.0
C1720 C 0.9678 0.51854 0.44435 0.0
C1721 C 0.02562 0.48909 0.42953 0.0
N1722 N 0.97199 0.45351 0.45344 0.0
N1723 N 0.03334 0.5583 0.42296 0.0
H1724 H 0.05854 0.44268 0.42151 0.0
H1725 H 0.05748 0.48927 0.41498 0.0
H1726 H 0.02559 0.5892 0.42266 0.0
H1727 H 0.05844 0.55105 0.41832 0.0
H1728 H 0.95564 0.46386 0.45991 0.0
H1729 H 0.98159 0.42324 0.45415 0.0
H1730 H 0.91931 0.51246 0.45535 0.0
H1731 H 0.92493 0.56145 0.45029 0.0
C1732 C 0.4905 0.46475 0.68019 0.0
C1733 C 0.4611 0.48726 0.68598 0.0
C1734 C 0.51295 0.53809 0.69063 0.0
C1735 C 0.54297 0.51386 0.68554 0.0
N1736 N 0.56219 0.4518 0.67666 0.0
N1737 N 0.44449 0.54203 0.69785 0.0
C1738 C 0.53225 0.4765 0.68064 0.0
C1739 C 0.47235 0.52307 0.69152 0.0
N1740 N 0.47824 0.43279 0.67404 0.0
N1741 N 0.52303 0.57599 0.69433 0.0
H1742 H 0.41424 0.53235 0.69852 0.0
H1743 H 0.45194 0.56548 0.70302 0.0
H1744 H 0.55259 0.58781 0.69396 0.0
H1745 H 0.50167 0.59701 0.69706 0.0
H1746 H 0.49733 0.41797 0.66874 0.0
H1747 H 0.44798 0.42293 0.67361 0.0
H1748 H 0.55698 0.42216 0.67403 0.0
H1749 H 0.59305 0.45973 0.67673 0.0
C1750 C 0.4655 0.00905 0.92862 0.0
C1751 C 0.48315 0.03645 0.93596 0.0
C1752 C 0.52907 0.98258 0.94224 0.0
C1753 C 0.50973 0.95457 0.93534 0.0
N1754 N 0.45703 0.93889 0.9228 0.0
N1755 N 0.52805 0.0493 0.95055 0.0
C1756 C 0.4772 0.96719 0.92876 0.0
C1757 C 0.51396 0.02321 0.943 0.0
N1758 N 0.43814 0.02336 0.92139 0.0
N1759 N 0.56246 0.97046 0.94789 0.0
H1760 H 0.51874 0.07972 0.95109 0.0
H1761 H 0.54695 0.04038 0.95669 0.0
H1762 H 0.57347 0.94056 0.94786 0.0
H1763 H 0.58094 0.9904 0.95211 0.0
H1764 H 0.42748 0.00625 0.91509 0.0
H1765 H 0.42791 0.05354 0.92125 0.0
H1766 H 0.43023 0.94496 0.9187 0.0
H1767 H 0.46557 0.90821 0.92248 0.0
C1768 C 0.01615 0.46195 0.06545 0.0
C1769 C 0.04741 0.49078 0.06327 0.0
C1770 C 0.99662 0.54551 0.06207 0.0
C1771 C 0.96516 0.51609 0.06336 0.0
N1772 N 0.94387 0.44584 0.06481 0.0
N1773 N 0.06789 0.55852 0.05808 0.0
C1774 C 0.97461 0.47412 0.06465 0.0
C1775 C 0.0378 0.5322 0.06118 0.0
N1776 N 0.02625 0.42327 0.06858 0.0
N1777 N 0.98722 0.58623 0.06203 0.0
H1778 H 0.09851 0.54995 0.0575 0.0
H1779 H 0.06223 0.5879 0.05531 0.0
H1780 H 0.95738 0.59719 0.0626 0.0
H1781 H 0.00909 0.6093 0.06228 0.0
H1782 H 0.00508 0.40224 0.07139 0.0
H1783 H 0.05635 0.41305 0.06915 0.0
H1784 H 0.94888 0.41444 0.06456 0.0
H1785 H 0.91304 0.45372 0.06435 0.0
C1786 C 0.52992 0.51203 0.31573 0.0
C1787 C 0.50319 0.54234 0.31168 0.0
C1788 C 0.44942 0.49106 0.30948 0.0
C1789 C 0.47756 0.46017 0.31248 0.0
N1790 N 0.54626 0.43998 0.31692 0.0
N1791 N 0.43973 0.56041 0.30329 0.0
C1792 C 0.51832 0.47029 0.31519 0.0
C1793 C 0.46348 0.5318 0.30817 0.0
N1794 N 0.56581 0.52326 0.3204 0.0
N1795 N 0.40901 0.48168 0.30823 0.0
H1796 H 0.44896 0.59063 0.30224 0.0
H1797 H 0.41236 0.55348 0.29953 0.0
H1798 H 0.39748 0.45219 0.30916 0.0
H1799 H 0.38634 0.5036 0.30715 0.0
H1800 H 0.58444 0.50297 0.32448 0.0
H1801 H 0.5753 0.55358 0.32103 0.0
H1802 H 0.57743 0.44536 0.31778 0.0
H1803 H 0.53886 0.409 0.31662 0.0
C1804 C 0.51525 0.95798 0.56457 0.0
C1805 C 0.5444 0.98478 0.56 0.0
C1806 C 0.49074 0.0352 0.55641 0.0
C1807 C 0.46145 0.00801 0.56076 0.0
N1808 N 0.44379 0.94198 0.56774 0.0
N1809 N 0.56029 0.04597 0.55036 0.0
C1810 C 0.47314 0.96886 0.56446 0.0
C1811 C 0.53221 0.02256 0.55555 0.0
N1812 N 0.5281 0.92252 0.5692 0.0
N1813 N 0.47892 0.07348 0.55334 0.0
H1814 H 0.59118 0.03834 0.5499 0.0
H1815 H 0.55288 0.07161 0.54593 0.0
H1816 H 0.44855 0.08313 0.55335 0.0
H1817 H 0.49918 0.09661 0.55129 0.0
H1818 H 0.50948 0.90379 0.57373 0.0
H1819 H 0.55836 0.91259 0.56899 0.0
H1820 H 0.44942 0.91147 0.56949 0.0
H1821 H 0.41285 0.94946 0.56809 0.0
C1822 C 0.03602 0.01513 0.81713 0.0
C1823 C 0.00998 0.04593 0.81303 0.0
C1824 C 0.95576 0.9954 0.81041 0.0
C1825 C 0.98323 0.96407 0.81351 0.0
N1826 N 0.05117 0.9428 0.81835 0.0
N1827 N 0.94742 0.06512 0.80436 0.0
C1828 C 0.02386 0.97356 0.81647 0.0
C1829 C 0.97043 0.03602 0.80929 0.0
N1830 N 0.0718 0.02577 0.82195 0.0
N1831 N 0.91537 0.98654 0.80888 0.0
H1832 H 0.95707 0.09528 0.80345 0.0
H1833 H 0.92029 0.05869 0.80044 0.0
H1834 H 0.90344 0.95714 0.80963 0.0
H1835 H 0.89306 0.00876 0.80773 0.0
H1836 H 0.08992 0.00516 0.82607 0.0
H1837 H 0.08172 0.05594 0.82262 0.0
H1838 H 0.08233 0.94766 0.8194 0.0
H1839 H 0.0433 0.91194 0.81799 0.0
C1840 C 0.52773 0.02559 0.17914 0.0
C1841 C 0.53921 0.98827 0.18396 0.0
C1842 C 0.46763 0.97402 0.18842 0.0
C1843 C 0.45661 0.01272 0.1843 0.0
N1844 N 0.47525 0.0769 0.17634 0.0
N1845 N 0.52179 0.92766 0.19373 0.0
C1846 C 0.48642 0.03891 0.17979 0.0
C1847 C 0.50957 0.96258 0.18873 0.0
N1848 N 0.55631 0.0479 0.17381 0.0
N1849 N 0.43781 0.94806 0.1919 0.0
H1850 H 0.55191 0.91728 0.1937 0.0
H1851 H 0.50275 0.90989 0.1984 0.0
H1852 H 0.40696 0.95603 0.19212 0.0
H1853 H 0.44294 0.91776 0.19396 0.0
H1854 H 0.54941 0.07297 0.16912 0.0
H1855 H 0.58713 0.03986 0.17352 0.0
H1856 H 0.4959 0.09945 0.17413 0.0
H1857 H 0.44502 0.08697 0.17619 0.0
C1858 C 0.02262 0.97736 0.42808 0.0
C1859 C 0.99316 0.96267 0.4353 0.0
C1860 C 0.98686 0.0311 0.44303 0.0
C1861 C 0.0181 0.04517 0.43623 0.0
N1862 N 0.06974 0.03141 0.42322 0.0
N1863 N 0.95072 0.97323 0.4505 0.0
C1864 C 0.03712 0.01819 0.429 0.0
C1865 C 0.97627 0.98892 0.44303 0.0
N1866 N 0.03593 0.9525 0.42017 0.0
N1867 N 0.96671 0.05836 0.4493 0.0
H1868 H 0.94155 0.94271 0.45061 0.0
H1869 H 0.94083 0.98952 0.45703 0.0
H1870 H 0.97428 0.08929 0.44965 0.0
H1871 H 0.94069 0.05116 0.4536 0.0
H1872 H 0.05369 0.96258 0.41392 0.0
H1873 H 0.02701 0.92203 0.41946 0.0
H1874 H 0.08798 0.01219 0.41872 0.0
H1875 H 0.08051 0.06139 0.42347 0.0
C1876 C 0.01127 0.45919 0.68791 0.0
C1877 C 0.04128 0.48398 0.683 0.0
C1878 C 0.98969 0.53629 0.67927 0.0
C1879 C 0.9592 0.51022 0.68351 0.0
N1880 N 0.93922 0.44478 0.69046 0.0
N1881 N 0.05881 0.54293 0.67262 0.0
C1882 C 0.9695 0.47101 0.68743 0.0
C1883 C 0.03041 0.52166 0.67828 0.0
N1884 N 0.02291 0.42501 0.6933 0.0
N1885 N 0.97997 0.5755 0.67653 0.0
H1886 H 0.08909 0.53342 0.67186 0.0
H1887 H 0.05177 0.56822 0.66802 0.0
H1888 H 0.95039 0.58721 0.67701 0.0
H1889 H 0.0016 0.59745 0.67453 0.0
H1890 H 0.00322 0.40814 0.69802 0.0
H1891 H 0.05315 0.41508 0.69373 0.0
H1892 H 0.94426 0.41423 0.69231 0.0
H1893 H 0.90834 0.45266 0.69033 0.0
C1894 C 0.51891 0.46945 0.92909 0.0
C1895 C 0.48408 0.4569 0.93486 0.0
C1896 C 0.4721 0.52751 0.94059 0.0
C1897 C 0.50853 0.5395 0.93543 0.0
N1898 N 0.56911 0.52234 0.92562 0.0
N1899 N 0.42936 0.47207 0.9469 0.0
C1900 C 0.53263 0.51058 0.92989 0.0
C1901 C 0.46111 0.48545 0.94083 0.0
N1902 N 0.53828 0.44216 0.92267 0.0
N1903 N 0.44769 0.55654 0.9451 0.0
H1904 H 0.41957 0.44175 0.94701 0.0
H1905 H 0.41422 0.49025 0.95234 0.0
H1906 H 0.45542 0.58745 0.94533 0.0
H1907 H 0.41856 0.55071 0.948 0.0
H1908 H 0.56094 0.45023 0.91734 0.0
H1909 H 0.52985 0.4115 0.92215 0.0
H1910 H 0.59047 0.50204 0.92256 0.0
H1911 H 0.57943 0.55249 0.92567 0.0
C1912 C 0.51556 0.53962 0.06411 0.0
C1913 C 0.54731 0.5103 0.06509 0.0
C1914 C 0.49699 0.45493 0.06516 0.0
C1915 C 0.46518 0.48442 0.06504 0.0
N1916 N 0.44337 0.55464 0.066 0.0
N1917 N 0.56885 0.44089 0.06811 0.0
C1918 C 0.47424 0.52677 0.06497 0.0
C1919 C 0.5382 0.46814 0.06606 0.0
N1920 N 0.52491 0.57952 0.06201 0.0
N1921 N 0.48784 0.41438 0.06407 0.0
H1922 H 0.59945 0.44947 0.0687 0.0
H1923 H 0.56373 0.41042 0.07004 0.0
H1924 H 0.45799 0.40345 0.06348 0.0
H1925 H 0.5098 0.3918 0.06293 0.0
H1926 H 0.50314 0.60143 0.06006 0.0
H1927 H 0.55482 0.59021 0.06138 0.0
H1928 H 0.44829 0.58573 0.06717 0.0
H1929 H 0.41268 0.54631 0.06653 0.0
C1930 C 0.53077 0.03288 0.3154 0.0
C1931 C 0.48848 0.04213 0.31529 0.0
C1932 C 0.47191 0.96912 0.31595 0.0
C1933 C 0.5141 0.95983 0.31512 0.0
N1934 N 0.58345 0.98227 0.31228 0.0
N1935 N 0.41853 0.01968 0.3137 0.0
C1936 C 0.54353 0.99156 0.31437 0.0
C1937 C 0.45891 0.01041 0.31508 0.0
N1938 N 0.55868 0.06351 0.31674 0.0
N1939 N 0.44439 0.93861 0.31788 0.0
H1940 H 0.40772 0.04956 0.31307 0.0
H1941 H 0.39612 0.99777 0.31231 0.0
H1942 H 0.45278 0.90797 0.31854 0.0
H1943 H 0.41385 0.94394 0.3197 0.0
H1944 H 0.58965 0.0583 0.31803 0.0
H1945 H 0.5504 0.09418 0.31742 0.0
H1946 H 0.60547 0.00416 0.31052 0.0
H1947 H 0.59399 0.95238 0.31142 0.0
C1948 C 0.98953 0.96793 0.55506 0.0
C1949 C 0.96284 0.98396 0.56281 0.0
C1950 C 0.01772 0.02764 0.56955 0.0
C1951 C 0.04513 0.00945 0.5623 0.0
N1952 N 0.05933 0.9592 0.549 0.0
N1953 N 0.95171 0.0251 0.5782 0.0
C1954 C 0.03163 0.97871 0.55527 0.0
C1955 C 0.97699 0.01276 0.57027 0.0
N1956 N 0.97434 0.94312 0.54736 0.0
N1957 N 0.03039 0.05991 0.57554 0.0
H1958 H 0.92131 0.01581 0.57878 0.0
H1959 H 0.96142 0.0423 0.58458 0.0
H1960 H 0.06026 0.07101 0.57542 0.0
H1961 H 0.01081 0.07759 0.58009 0.0
H1962 H 0.99103 0.93398 0.54083 0.0
H1963 H 0.94387 0.93387 0.54708 0.0
H1964 H 0.05247 0.93352 0.54453 0.0
H1965 H 0.09025 0.96689 0.54881 0.0
C1966 C 0.95827 0.51429 0.81585 0.0
C1967 C 0.98783 0.54601 0.81551 0.0
C1968 C 0.0427 0.49528 0.81441 0.0
C1969 C 0.01341 0.46368 0.81572 0.0
N1970 N 0.94422 0.44286 0.81935 0.0
N1971 N 0.05823 0.56741 0.81612 0.0
C1972 C 0.9714 0.47311 0.81691 0.0
C1973 C 0.03012 0.53671 0.81526 0.0
N1974 N 0.91771 0.5234 0.81478 0.0
N1975 N 0.08226 0.48569 0.81199 0.0
H1976 H 0.0501 0.59815 0.8167 0.0
H1977 H 0.08937 0.56227 0.81713 0.0
H1978 H 0.09269 0.45571 0.81127 0.0
H1979 H 0.10397 0.50734 0.80983 0.0
H1980 H 0.89513 0.50133 0.8138 0.0
H1981 H 0.90681 0.55318 0.81396 0.0
H1982 H 0.91399 0.44843 0.82145 0.0
H1983 H 0.95271 0.41229 0.82013 0.0
loop_
_geom_bond_atom_site_label_1
_geom_bond_atom_site_label_2
_geom_bond_distance
_geom_bond_site_symmetry_2
_ccdc_geom_bond_type
Li0 N17 1.990 . S
Li0 O60 1.956 . S
Li0 O61 1.970 . S
Li0 O62 1.961 . S
Li1 N25 1.990 . S
Li1 O60 1.970 . S
Li1 O61 1.956 . S
Li1 O63 1.961 . S
Li2 N47 1.990 . S
Li2 O60 1.961 . S
Li2 O62 1.956 . S
Li2 O63 1.970 . S
Li3 N53 1.990 . S
Li3 O61 1.961 . S
Li3 O62 1.970 . S
Li3 O63 1.956 . S
C4 C6 1.348 . S
C4 C7 1.356 . S
C4 O60 1.325 . S
N5 C8 1.314 . S
N5 C9 1.279 . S
C6 C4 1.348 . S
C6 C8 1.353 . S
C6 H64 0.929 . S
C7 C4 1.356 . S
C7 C9 1.358 . S
C7 H65 0.930 . S
C8 N5 1.314 . S
C8 C6 1.353 . S
C8 H66 0.930 . S
C9 N5 1.279 . S
C9 C7 1.358 . S
C9 H67 0.930 1_545 S
C10 C13 1.348 . S
C10 C14 1.356 . S
C10 O61 1.325 . S
C11 N12 1.279 . S
C11 C14 1.358 . S
C11 H68 0.930 . S
N12 C11 1.279 . S
N12 C15 1.314 . S
C13 C10 1.348 . S
C13 C15 1.353 . S
C13 H69 0.929 . S
C14 C10 1.356 . S
C14 C11 1.358 . S
C14 H70 0.930 . S
C15 N12 1.314 . S
C15 C13 1.353 . S
C15 H71 0.930 . S
C16 N17 1.314 . S
C16 C21 1.353 . S
C16 H22 0.930 . S
N17 Li0 1.990 . S
N17 C16 1.314 . S
N17 C19 1.279 . S
C18 C19 1.358 . S
C18 C20 1.356 . S
C18 H72 0.930 . S
C19 N17 1.279 . S
C19 C18 1.358 . S
C19 H23 0.930 . S
C20 C18 1.356 . S
C20 C21 1.348 . S
C21 C16 1.353 . S
C21 C20 1.348 . S
C21 H73 0.929 . S
H22 C16 0.930 . S
H23 C19 0.930 . S
C24 N25 1.314 . S
C24 C26 1.353 . S
C24 H30 0.930 . S
N25 Li1 1.990 . S
N25 C24 1.314 . S
N25 C28 1.279 . S
C26 C24 1.353 . S
C26 C29 1.348 . S
C26 H74 0.929 . S
C27 C28 1.358 . S
C27 C29 1.356 . S
C27 H75 0.930 . S
C28 N25 1.279 . S
C28 C27 1.358 . S
C28 H31 0.930 . S
C29 C26 1.348 . S
C29 C27 1.356 . S
H30 C24 0.930 . S
H31 C28 0.930 . S
C32 C34 1.348 . S
C32 C35 1.356 . S
C32 O62 1.325 . S
N33 C36 1.314 . S
N33 C37 1.279 . S
C34 C32 1.348 . S
C34 C36 1.353 . S
C34 H76 0.929 . S
C35 C32 1.356 . S
C35 C37 1.358 . S
C35 H77 0.930 . S
C36 N33 1.314 . S
C36 C34 1.353 . S
C36 H78 0.930 . S
C37 N33 1.279 . S
C37 C35 1.358 . S
C37 H79 0.928 1_545 S
C38 C39 1.348 . S
C38 C40 1.356 . S
C38 O63 1.325 . S
C39 C38 1.348 . S
C39 C41 1.353 . S
C39 H80 0.929 . S
C40 C38 1.356 . S
C40 C42 1.358 . S
C40 H81 0.930 . S
C41 C39 1.353 . S
C41 N43 1.314 . S
C41 H82 0.930 . S
C42 C40 1.358 . S
C42 N43 1.279 . S
C42 H83 0.930 . S
N43 C41 1.314 . S
N43 C42 1.279 . S
C44 C46 1.353 . S
C44 N47 1.314 . S
C44 H50 0.930 . S
C45 N47 1.279 . S
C45 C48 1.358 . S
C45 H51 0.930 . S
C46 C44 1.353 . S
C46 C49 1.348 . S
C46 H84 0.929 . S
N47 Li2 1.990 . S
N47 C44 1.314 . S
N47 C45 1.279 . S
C48 C45 1.358 . S
C48 C49 1.356 . S
C48 H85 0.930 . S
C49 C46 1.348 . S
C49 C48 1.356 . S
H50 C44 0.930 . S
H51 C45 0.930 . S
C52 N53 1.314 . S
C52 C54 1.353 . S
C52 H58 0.930 . S
N53 Li3 1.990 . S
N53 C52 1.314 . S
N53 C56 1.279 . S
C54 C52 1.353 . S
C54 C57 1.348 . S
C54 H86 0.929 . S
C55 C56 1.358 . S
C55 C57 1.356 . S
C55 H87 0.930 . S
C56 N53 1.279 . S
C56 C55 1.358 . S
C56 H59 0.930 . S
C57 C54 1.348 . S
C57 C55 1.356 . S
H58 C52 0.930 . S
H59 C56 0.930 . S
O60 Li0 1.956 . S
O60 Li1 1.970 . S
O60 Li2 1.961 . S
O60 C4 1.325 . S
O61 Li0 1.970 . S
O61 Li1 1.956 . S
O61 Li3 1.961 . S
O61 C10 1.325 . S
O62 Li0 1.961 . S
O62 Li2 1.956 . S
O62 Li3 1.970 . S
O62 C32 1.325 . S
O63 Li1 1.961 . S
O63 Li2 1.970 . S
O63 Li3 1.956 . S
O63 C38 1.325 . S
H64 C6 0.929 . S
H65 C7 0.930 . S
H66 C8 0.930 . S
H67 C9 0.930 1_565 S
H68 C11 0.930 . S
H69 C13 0.929 . S
H70 C14 0.930 . S
H71 C15 0.930 . S
H72 C18 0.930 . S
H73 C21 0.929 . S
H74 C26 0.929 . S
H75 C27 0.930 . S
H76 C34 0.929 . S
H77 C35 0.930 . S
H78 C36 0.930 . S
H79 C37 0.928 1_565 S
H80 C39 0.929 . S
H81 C40 0.930 . S
H82 C41 0.930 . S
H83 C42 0.930 . S
H84 C46 0.929 . S
H85 C48 0.930 . S
H86 C54 0.929 . S
H87 C55 0.930 . S
Li88 N105 1.990 . S
Li88 O148 1.956 . S
Li88 O149 1.970 . S
Li88 O150 1.961 . S
Li89 N113 1.990 . S
Li89 O148 1.970 . S
Li89 O149 1.956 . S
Li89 O151 1.961 . S
Li90 N135 1.990 . S
Li90 O148 1.961 . S
Li90 O150 1.956 . S
Li90 O151 1.970 . S
Li91 N141 1.990 . S
Li91 O149 1.961 . S
Li91 O150 1.970 . S
Li91 O151 1.956 . S
C92 C94 1.348 . S
C92 C95 1.356 . S
C92 O148 1.325 . S
N93 C96 1.314 . S
N93 C97 1.279 . S
C94 C92 1.348 . S
C94 C96 1.353 . S
C94 H152 0.929 . S
C95 C92 1.356 . S
C95 C97 1.358 . S
C95 H153 0.930 . S
C96 N93 1.314 . S
C96 C94 1.353 . S
C96 H154 0.930 . S
C97 N93 1.279 . S
C97 C95 1.358 . S
C97 H155 0.930 1_655 S
C98 C101 1.348 . S
C98 C102 1.356 . S
C98 O149 1.325 . S
C99 N100 1.279 . S
C99 C102 1.358 . S
C99 H156 0.930 . S
N100 C99 1.279 . S
N100 C103 1.314 . S
C101 C98 1.348 . S
C101 C103 1.353 . S
C101 H157 0.929 . S
C102 C98 1.356 . S
C102 C99 1.358 . S
C102 H158 0.930 . S
C103 N100 1.314 . S
C103 C101 1.353 . S
C103 H159 0.930 . S
C104 N105 1.314 . S
C104 C109 1.353 . S
C104 H110 0.930 . S
N105 Li88 1.990 . S
N105 C104 1.314 . S
N105 C107 1.279 . S
C106 C107 1.358 . S
C106 C108 1.356 . S
C106 H160 0.930 . S
C107 N105 1.279 . S
C107 C106 1.358 . S
C107 H111 0.930 . S
C108 C106 1.356 . S
C108 C109 1.348 . S
C109 C104 1.353 . S
C109 C108 1.348 . S
C109 H161 0.929 . S
H110 C104 0.930 . S
H111 C107 0.930 . S
C112 N113 1.314 . S
C112 C114 1.353 . S
C112 H118 0.930 . S
N113 Li89 1.990 . S
N113 C112 1.314 . S
N113 C116 1.279 . S
C114 C112 1.353 . S
C114 C117 1.348 . S
C114 H162 0.929 . S
C115 C116 1.358 . S
C115 C117 1.356 . S
C115 H163 0.930 . S
C116 N113 1.279 . S
C116 C115 1.358 . S
C116 H119 0.930 . S
C117 C114 1.348 . S
C117 C115 1.356 . S
H118 C112 0.930 . S
H119 C116 0.930 . S
C120 C122 1.348 . S
C120 C123 1.356 . S
C120 O150 1.325 . S
N121 C124 1.314 . S
N121 C125 1.279 . S
C122 C120 1.348 . S
C122 C124 1.353 . S
C122 H164 0.929 . S
C123 C120 1.356 . S
C123 C125 1.358 . S
C123 H165 0.930 . S
C124 N121 1.314 . S
C124 C122 1.353 . S
C124 H166 0.930 . S
C125 N121 1.279 . S
C125 C123 1.358 . S
C125 H167 0.927 1_655 S
C126 C127 1.348 . S
C126 C128 1.356 . S
C126 O151 1.325 . S
C127 C126 1.348 . S
C127 C129 1.353 . S
C127 H168 0.929 . S
C128 C126 1.356 . S
C128 C130 1.358 . S
C128 H169 0.930 . S
C129 C127 1.353 . S
C129 N131 1.314 . S
C129 H170 0.930 . S
C130 C128 1.358 . S
C130 N131 1.279 . S
C130 H171 0.930 . S
N131 C129 1.314 . S
N131 C130 1.279 . S
C132 C134 1.353 . S
C132 N135 1.314 . S
C132 H138 0.930 . S
C133 N135 1.279 . S
C133 C136 1.358 . S
C133 H139 0.930 . S
C134 C132 1.353 . S
C134 C137 1.348 . S
C134 H172 0.929 . S
N135 Li90 1.990 . S
N135 C132 1.314 . S
N135 C133 1.279 . S
C136 C133 1.358 . S
C136 C137 1.356 . S
C136 H173 0.930 . S
C137 C134 1.348 . S
C137 C136 1.356 . S
H138 C132 0.930 . S
H139 C133 0.930 . S
C140 N141 1.314 . S
C140 C142 1.353 . S
C140 H146 0.930 . S
N141 Li91 1.990 . S
N141 C140 1.314 . S
N141 C144 1.279 . S
C142 C140 1.353 . S
C142 C145 1.348 . S
C142 H174 0.929 . S
C143 C144 1.358 . S
C143 C145 1.356 . S
C143 H175 0.930 . S
C144 N141 1.279 . S
C144 C143 1.358 . S
C144 H147 0.930 . S
C145 C142 1.348 . S
C145 C143 1.356 . S
H146 C140 0.930 . S
H147 C144 0.930 . S
O148 Li88 1.956 . S
O148 Li89 1.970 . S
O148 Li90 1.961 . S
O148 C92 1.325 . S
O149 Li88 1.970 . S
O149 Li89 1.956 . S
O149 Li91 1.961 . S
O149 C98 1.325 . S
O150 Li88 1.961 . S
O150 Li90 1.956 . S
O150 Li91 1.970 . S
O150 C120 1.325 . S
O151 Li89 1.961 . S
O151 Li90 1.970 . S
O151 Li91 1.956 . S
O151 C126 1.325 . S
H152 C94 0.929 . S
H153 C95 0.930 . S
H154 C96 0.930 . S
H155 C97 0.930 1_455 S
H156 C99 0.930 . S
H157 C101 0.929 . S
H158 C102 0.930 . S
H159 C103 0.930 . S
H160 C106 0.930 . S
H161 C109 0.929 . S
H162 C114 0.929 . S
H163 C115 0.930 . S
H164 C122 0.929 . S
H165 C123 0.930 . S
H166 C124 0.930 . S
H167 C125 0.927 1_455 S
H168 C127 0.929 . S
H169 C128 0.930 . S
H170 C129 0.930 . S
H171 C130 0.930 . S
H172 C134 0.929 . S
H173 C136 0.930 . S
H174 C142 0.929 . S
H175 C143 0.930 . S
Li176 N193 1.990 . S
Li176 O236 1.956 . S
Li176 O237 1.970 . S
Li176 O238 1.961 . S
Li177 N201 1.990 . S
Li177 O236 1.970 . S
Li177 O237 1.956 . S
Li177 O239 1.961 . S
Li178 N223 1.990 . S
Li178 O236 1.961 . S
Li178 O238 1.956 . S
Li178 O239 1.970 . S
Li179 N229 1.990 . S
Li179 O237 1.961 . S
Li179 O238 1.970 . S
Li179 O239 1.956 . S
C180 C182 1.348 . S
C180 C183 1.356 . S
C180 O236 1.325 . S
N181 C184 1.314 . S
N181 C185 1.279 . S
C182 C180 1.348 . S
C182 C184 1.353 . S
C182 H240 0.929 . S
C183 C180 1.356 . S
C183 C185 1.358 . S
C183 H241 0.930 . S
C184 N181 1.314 . S
C184 C182 1.353 . S
C184 H242 0.930 . S
C185 N181 1.279 . S
C185 C183 1.358 . S
C185 H243 0.930 . S
C186 C189 1.348 . S
C186 C190 1.356 . S
C186 O237 1.325 . S
C187 N188 1.279 . S
C187 C190 1.358 . S
C187 H244 0.930 . S
N188 C187 1.279 . S
N188 C191 1.314 . S
C189 C186 1.348 . S
C189 C191 1.353 . S
C189 H245 0.929 . S
C190 C186 1.356 . S
C190 C187 1.358 . S
C190 H246 0.930 . S
C191 N188 1.314 . S
C191 C189 1.353 . S
C191 H247 0.930 . S
C192 N193 1.314 . S
C192 C197 1.353 . S
C192 H198 0.930 . S
N193 Li176 1.990 . S
N193 C192 1.314 . S
N193 C195 1.279 . S
C194 C195 1.358 . S
C194 C196 1.356 . S
C194 H248 0.930 . S
C195 N193 1.279 . S
C195 C194 1.358 . S
C195 H199 0.930 . S
C196 C194 1.356 . S
C196 C197 1.348 . S
C197 C192 1.353 . S
C197 C196 1.348 . S
C197 H249 0.929 . S
H198 C192 0.930 . S
H199 C195 0.930 . S
C200 N201 1.314 . S
C200 C202 1.353 . S
C200 H206 0.930 . S
N201 Li177 1.990 . S
N201 C200 1.314 . S
N201 C204 1.279 . S
C202 C200 1.353 . S
C202 C205 1.348 . S
C202 H250 0.929 . S
C203 C204 1.358 . S
C203 C205 1.356 . S
C203 H251 0.930 . S
C204 N201 1.279 . S
C204 C203 1.358 . S
C204 H207 0.930 . S
C205 C202 1.348 . S
C205 C203 1.356 . S
H206 C200 0.930 . S
H207 C204 0.930 . S
C208 C210 1.348 . S
C208 C211 1.356 . S
C208 O238 1.325 . S
N209 C212 1.314 . S
N209 C213 1.279 . S
C210 C208 1.348 . S
C210 C212 1.353 . S
C210 H252 0.929 . S
C211 C208 1.356 . S
C211 C213 1.358 . S
C211 H253 0.930 . S
C212 N209 1.314 . S
C212 C210 1.353 . S
C212 H254 0.930 . S
C213 N209 1.279 . S
C213 C211 1.358 . S
C213 H255 0.930 . S
C214 C215 1.348 . S
C214 C216 1.356 . S
C214 O239 1.325 . S
C215 C214 1.348 . S
C215 C217 1.353 . S
C215 H256 0.929 . S
C216 C214 1.356 . S
C216 C218 1.358 . S
C216 H257 0.930 . S
C217 C215 1.353 . S
C217 N219 1.314 . S
C217 H258 0.930 . S
C218 C216 1.358 . S
C218 N219 1.279 . S
C218 H259 0.930 . S
N219 C217 1.314 . S
N219 C218 1.279 . S
C220 C222 1.353 . S
C220 N223 1.314 . S
C220 H226 0.930 . S
C221 N223 1.279 . S
C221 C224 1.358 . S
C221 H227 0.930 . S
C222 C220 1.353 . S
C222 C225 1.348 . S
C222 H260 0.929 . S
N223 Li178 1.990 . S
N223 C220 1.314 . S
N223 C221 1.279 . S
C224 C221 1.358 . S
C224 C225 1.356 . S
C224 H261 0.930 . S
C225 C222 1.348 . S
C225 C224 1.356 . S
H226 C220 0.930 . S
H227 C221 0.930 . S
C228 N229 1.314 . S
C228 C230 1.353 . S
C228 H234 0.930 . S
N229 Li179 1.990 . S
N229 C228 1.314 . S
N229 C232 1.279 . S
C230 C228 1.353 . S
C230 C233 1.348 . S
C230 H262 0.929 . S
C231 C232 1.358 . S
C231 C233 1.356 . S
C231 H263 0.930 . S
C232 N229 1.279 . S
C232 C231 1.358 . S
C232 H235 0.930 . S
C233 C230 1.348 . S
C233 C231 1.356 . S
H234 C228 0.930 . S
H235 C232 0.930 . S
O236 Li176 1.956 . S
O236 Li177 1.970 . S
O236 Li178 1.961 . S
O236 C180 1.325 . S
O237 Li176 1.970 . S
O237 Li177 1.956 . S
O237 Li179 1.961 . S
O237 C186 1.325 . S
O238 Li176 1.961 . S
O238 Li178 1.956 . S
O238 Li179 1.970 . S
O238 C208 1.325 . S
O239 Li177 1.961 . S
O239 Li178 1.970 . S
O239 Li179 1.956 . S
O239 C214 1.325 . S
H240 C182 0.929 . S
H241 C183 0.930 . S
H242 C184 0.930 . S
H243 C185 0.930 . S
H244 C187 0.930 . S
H245 C189 0.929 . S
H246 C190 0.930 . S
H247 C191 0.930 . S
H248 C194 0.930 . S
H249 C197 0.929 . S
H250 C202 0.929 . S
H251 C203 0.930 . S
H252 C210 0.929 . S
H253 C211 0.930 . S
H254 C212 0.930 . S
H255 C213 0.930 . S
H256 C215 0.929 . S
H257 C216 0.930 . S
H258 C217 0.930 . S
H259 C218 0.930 . S
H260 C222 0.929 . S
H261 C224 0.930 . S
H262 C230 0.929 . S
H263 C231 0.930 . S
Li264 N281 1.990 . S
Li264 O324 1.956 . S
Li264 O325 1.970 . S
Li264 O326 1.961 . S
Li265 N289 1.990 . S
Li265 O324 1.970 . S
Li265 O325 1.956 . S
Li265 O327 1.961 . S
Li266 N311 1.990 . S
Li266 O324 1.961 . S
Li266 O326 1.956 . S
Li266 O327 1.970 . S
Li267 N317 1.990 . S
Li267 O325 1.961 . S
Li267 O326 1.970 . S
Li267 O327 1.956 . S
C268 C270 1.348 . S
C268 C271 1.356 . S
C268 O324 1.325 . S
N269 C272 1.314 . S
N269 C273 1.279 . S
C270 C268 1.348 . S
C270 C272 1.353 . S
C270 H328 0.929 . S
C271 C268 1.356 . S
C271 C273 1.358 . S
C271 H329 0.930 . S
C272 N269 1.314 . S
C272 C270 1.353 . S
C272 H330 0.930 . S
C273 N269 1.279 . S
C273 C271 1.358 . S
C273 H331 0.930 . S
C274 C277 1.348 . S
C274 C278 1.356 . S
C274 O325 1.325 . S
C275 N276 1.279 . S
C275 C278 1.358 . S
C275 H332 0.930 . S
N276 C275 1.279 . S
N276 C279 1.314 . S
C277 C274 1.348 . S
C277 C279 1.353 . S
C277 H333 0.929 . S
C278 C274 1.356 . S
C278 C275 1.358 . S
C278 H334 0.930 . S
C279 N276 1.314 . S
C279 C277 1.353 . S
C279 H335 0.930 . S
C280 N281 1.314 . S
C280 C285 1.353 . S
C280 H286 0.930 . S
N281 Li264 1.990 . S
N281 C280 1.314 . S
N281 C283 1.279 . S
C282 C283 1.358 . S
C282 C284 1.356 . S
C282 H336 0.930 . S
C283 N281 1.279 . S
C283 C282 1.358 . S
C283 H287 0.930 . S
C284 C282 1.356 . S
C284 C285 1.348 . S
C285 C280 1.353 . S
C285 C284 1.348 . S
C285 H337 0.929 . S
H286 C280 0.930 . S
H287 C283 0.930 . S
C288 N289 1.314 . S
C288 C290 1.353 . S
C288 H294 0.930 . S
N289 Li265 1.990 . S
N289 C288 1.314 . S
N289 C292 1.279 . S
C290 C288 1.353 . S
C290 C293 1.348 . S
C290 H338 0.929 . S
C291 C292 1.358 . S
C291 C293 1.356 . S
C291 H339 0.930 . S
C292 N289 1.279 . S
C292 C291 1.358 . S
C292 H295 0.930 . S
C293 C290 1.348 . S
C293 C291 1.356 . S
H294 C288 0.930 . S
H295 C292 0.930 . S
C296 C298 1.348 . S
C296 C299 1.356 . S
C296 O326 1.325 . S
N297 C300 1.314 . S
N297 C301 1.279 . S
C298 C296 1.348 . S
C298 C300 1.353 . S
C298 H340 0.929 . S
C299 C296 1.356 . S
C299 C301 1.358 . S
C299 H341 0.930 . S
C300 N297 1.314 . S
C300 C298 1.353 . S
C300 H342 0.930 . S
C301 N297 1.279 . S
C301 C299 1.358 . S
C301 H343 0.930 . S
C302 C303 1.348 . S
C302 C304 1.356 . S
C302 O327 1.325 . S
C303 C302 1.348 . S
C303 C305 1.353 . S
C303 H344 0.929 . S
C304 C302 1.356 . S
C304 C306 1.358 . S
C304 H345 0.930 . S
C305 C303 1.353 . S
C305 N307 1.314 . S
C305 H346 0.930 . S
C306 C304 1.358 . S
C306 N307 1.279 . S
C306 H347 0.930 . S
N307 C305 1.314 . S
N307 C306 1.279 . S
C308 C310 1.353 . S
C308 N311 1.314 . S
C308 H314 0.930 . S
C309 N311 1.279 . S
C309 C312 1.358 . S
C309 H315 0.930 . S
C310 C308 1.353 . S
C310 C313 1.348 . S
C310 H348 0.929 . S
N311 Li266 1.990 . S
N311 C308 1.314 . S
N311 C309 1.279 . S
C312 C309 1.358 . S
C312 C313 1.356 . S
C312 H349 0.930 . S
C313 C310 1.348 . S
C313 C312 1.356 . S
H314 C308 0.930 . S
H315 C309 0.930 . S
C316 N317 1.314 . S
C316 C318 1.353 . S
C316 H322 0.930 . S
N317 Li267 1.990 . S
N317 C316 1.314 . S
N317 C320 1.279 . S
C318 C316 1.353 . S
C318 C321 1.348 . S
C318 H350 0.929 . S
C319 C320 1.358 . S
C319 C321 1.356 . S
C319 H351 0.930 . S
C320 N317 1.279 . S
C320 C319 1.358 . S
C320 H323 0.930 . S
C321 C318 1.348 . S
C321 C319 1.356 . S
H322 C316 0.930 . S
H323 C320 0.930 . S
O324 Li264 1.956 . S
O324 Li265 1.970 . S
O324 Li266 1.961 . S
O324 C268 1.325 . S
O325 Li264 1.970 . S
O325 Li265 1.956 . S
O325 Li267 1.961 . S
O325 C274 1.325 . S
O326 Li264 1.961 . S
O326 Li266 1.956 . S
O326 Li267 1.970 . S
O326 C296 1.325 . S
O327 Li265 1.961 . S
O327 Li266 1.970 . S
O327 Li267 1.956 . S
O327 C302 1.325 . S
H328 C270 0.929 . S
H329 C271 0.930 . S
H330 C272 0.930 . S
H331 C273 0.930 . S
H332 C275 0.930 . S
H333 C277 0.929 . S
H334 C278 0.930 . S
H335 C279 0.930 . S
H336 C282 0.930 . S
H337 C285 0.929 . S
H338 C290 0.929 . S
H339 C291 0.930 . S
H340 C298 0.929 . S
H341 C299 0.930 . S
H342 C300 0.930 . S
H343 C301 0.930 . S
H344 C303 0.929 . S
H345 C304 0.930 . S
H346 C305 0.930 . S
H347 C306 0.930 . S
H348 C310 0.929 . S
H349 C312 0.930 . S
H350 C318 0.929 . S
H351 C319 0.930 . S
Li352 N369 1.990 . S
Li352 O412 1.956 . S
Li352 O413 1.970 . S
Li352 O414 1.961 . S
Li353 N377 1.990 . S
Li353 O412 1.970 . S
Li353 O413 1.956 . S
Li353 O415 1.961 . S
Li354 N399 1.990 . S
Li354 O412 1.961 . S
Li354 O414 1.956 . S
Li354 O415 1.970 . S
Li355 N405 1.990 . S
Li355 O413 1.961 . S
Li355 O414 1.970 . S
Li355 O415 1.956 . S
C356 C358 1.348 . S
C356 C359 1.356 . S
C356 O412 1.325 . S
N357 C360 1.314 . S
N357 C361 1.279 . S
C358 C356 1.348 . S
C358 C360 1.353 . S
C358 H416 0.929 . S
C359 C356 1.356 . S
C359 C361 1.358 . S
C359 H417 0.930 . S
C360 N357 1.314 . S
C360 C358 1.353 . S
C360 H418 0.930 . S
C361 N357 1.279 . S
C361 C359 1.358 . S
C361 H419 0.930 . S
C362 C365 1.348 . S
C362 C366 1.356 . S
C362 O413 1.325 . S
C363 N364 1.279 . S
C363 C366 1.358 . S
C363 H420 0.930 . S
N364 C363 1.279 . S
N364 C367 1.314 . S
C365 C362 1.348 . S
C365 C367 1.353 . S
C365 H421 0.929 . S
C366 C362 1.356 . S
C366 C363 1.358 . S
C366 H422 0.930 . S
C367 N364 1.314 . S
C367 C365 1.353 . S
C367 H423 0.930 . S
C368 N369 1.314 . S
C368 C373 1.353 . S
C368 H374 0.930 . S
N369 Li352 1.990 . S
N369 C368 1.314 . S
N369 C371 1.279 . S
C370 C371 1.358 . S
C370 C372 1.356 . S
C370 H424 0.930 . S
C371 N369 1.279 . S
C371 C370 1.358 . S
C371 H375 0.930 . S
C372 C370 1.356 . S
C372 C373 1.348 . S
C373 C368 1.353 . S
C373 C372 1.348 . S
C373 H425 0.929 . S
H374 C368 0.930 . S
H375 C371 0.930 . S
C376 N377 1.314 . S
C376 C378 1.353 . S
C376 H382 0.930 . S
N377 Li353 1.990 . S
N377 C376 1.314 . S
N377 C380 1.279 . S
C378 C376 1.353 . S
C378 C381 1.348 . S
C378 H426 0.929 . S
C379 C380 1.358 . S
C379 C381 1.356 . S
C379 H427 0.930 . S
C380 N377 1.279 . S
C380 C379 1.358 . S
C380 H383 0.930 . S
C381 C378 1.348 . S
C381 C379 1.356 . S
H382 C376 0.930 . S
H383 C380 0.930 . S
C384 C386 1.348 . S
C384 C387 1.356 . S
C384 O414 1.325 . S
N385 C388 1.314 . S
N385 C389 1.279 . S
C386 C384 1.348 . S
C386 C388 1.353 . S
C386 H428 0.929 . S
C387 C384 1.356 . S
C387 C389 1.358 . S
C387 H429 0.930 . S
C388 N385 1.314 . S
C388 C386 1.353 . S
C388 H430 0.930 . S
C389 N385 1.279 . S
C389 C387 1.358 . S
C389 H431 0.930 . S
C390 C391 1.348 . S
C390 C392 1.356 . S
C390 O415 1.325 . S
C391 C390 1.348 . S
C391 C393 1.353 . S
C391 H432 0.929 . S
C392 C390 1.356 . S
C392 C394 1.358 . S
C392 H433 0.930 . S
C393 C391 1.353 . S
C393 N395 1.314 . S
C393 H434 0.930 . S
C394 C392 1.358 . S
C394 N395 1.279 . S
C394 H435 0.930 . S
N395 C393 1.314 . S
N395 C394 1.279 . S
C396 C398 1.353 . S
C396 N399 1.314 . S
C396 H402 0.930 . S
C397 N399 1.279 . S
C397 C400 1.358 . S
C397 H403 0.930 . S
C398 C396 1.353 . S
C398 C401 1.348 . S
C398 H436 0.929 . S
N399 Li354 1.990 . S
N399 C396 1.314 . S
N399 C397 1.279 . S
C400 C397 1.358 . S
C400 C401 1.356 . S
C400 H437 0.930 . S
C401 C398 1.348 . S
C401 C400 1.356 . S
H402 C396 0.930 . S
H403 C397 0.930 . S
C404 N405 1.314 . S
C404 C406 1.353 . S
C404 H410 0.930 . S
N405 Li355 1.990 . S
N405 C404 1.314 . S
N405 C408 1.279 . S
C406 C404 1.353 . S
C406 C409 1.348 . S
C406 H438 0.929 . S
C407 C408 1.358 . S
C407 C409 1.356 . S
C407 H439 0.930 . S
C408 N405 1.279 . S
C408 C407 1.358 . S
C408 H411 0.930 . S
C409 C406 1.348 . S
C409 C407 1.356 . S
H410 C404 0.930 . S
H411 C408 0.930 . S
O412 Li352 1.956 . S
O412 Li353 1.970 . S
O412 Li354 1.961 . S
O412 C356 1.325 . S
O413 Li352 1.970 . S
O413 Li353 1.956 . S
O413 Li355 1.961 . S
O413 C362 1.325 . S
O414 Li352 1.961 . S
O414 Li354 1.956 . S
O414 Li355 1.970 . S
O414 C384 1.325 . S
O415 Li353 1.961 . S
O415 Li354 1.970 . S
O415 Li355 1.956 . S
O415 C390 1.325 . S
H416 C358 0.929 . S
H417 C359 0.930 . S
H418 C360 0.930 . S
H419 C361 0.930 . S
H420 C363 0.930 . S
H421 C365 0.929 . S
H422 C366 0.930 . S
H423 C367 0.930 . S
H424 C370 0.930 . S
H425 C373 0.929 . S
H426 C378 0.929 . S
H427 C379 0.930 . S
H428 C386 0.929 . S
H429 C387 0.930 . S
H430 C388 0.930 . S
H431 C389 0.930 . S
H432 C391 0.929 . S
H433 C392 0.930 . S
H434 C393 0.930 . S
H435 C394 0.930 . S
H436 C398 0.929 . S
H437 C400 0.930 . S
H438 C406 0.929 . S
H439 C407 0.930 . S
Li440 N457 1.990 . S
Li440 O500 1.956 . S
Li440 O501 1.970 . S
Li440 O502 1.961 . S
Li441 N465 1.990 . S
Li441 O500 1.970 . S
Li441 O501 1.956 . S
Li441 O503 1.961 . S
Li442 N487 1.990 . S
Li442 O500 1.961 . S
Li442 O502 1.956 . S
Li442 O503 1.970 . S
Li443 N493 1.990 . S
Li443 O501 1.961 . S
Li443 O502 1.970 . S
Li443 O503 1.956 . S
C444 C446 1.348 . S
C444 C447 1.356 . S
C444 O500 1.325 . S
N445 C448 1.314 . S
N445 C449 1.279 . S
C446 C444 1.348 . S
C446 C448 1.353 . S
C446 H504 0.929 . S
C447 C444 1.356 . S
C447 C449 1.358 . S
C447 H505 0.930 . S
C448 N445 1.314 . S
C448 C446 1.353 . S
C448 H506 0.930 . S
C449 N445 1.279 . S
C449 C447 1.358 . S
C449 H507 0.930 . S
C450 C453 1.348 . S
C450 C454 1.356 . S
C450 O501 1.325 . S
C451 N452 1.279 . S
C451 C454 1.358 . S
C451 H508 0.930 . S
N452 C451 1.279 . S
N452 C455 1.314 . S
C453 C450 1.348 . S
C453 C455 1.353 . S
C453 H509 0.929 . S
C454 C450 1.356 . S
C454 C451 1.358 . S
C454 H510 0.930 . S
C455 N452 1.314 . S
C455 C453 1.353 . S
C455 H511 0.930 . S
C456 N457 1.314 . S
C456 C461 1.353 . S
C456 H462 0.930 . S
N457 Li440 1.990 . S
N457 C456 1.314 . S
N457 C459 1.279 . S
C458 C459 1.358 . S
C458 C460 1.356 . S
C458 H512 0.930 . S
C459 N457 1.279 . S
C459 C458 1.358 . S
C459 H463 0.930 . S
C460 C458 1.356 . S
C460 C461 1.348 . S
C461 C456 1.353 . S
C461 C460 1.348 . S
C461 H513 0.929 . S
H462 C456 0.930 . S
H463 C459 0.930 . S
C464 N465 1.314 . S
C464 C466 1.353 . S
C464 H470 0.930 . S
N465 Li441 1.990 . S
N465 C464 1.314 . S
N465 C468 1.279 . S
C466 C464 1.353 . S
C466 C469 1.348 . S
C466 H514 0.929 . S
C467 C468 1.358 . S
C467 C469 1.356 . S
C467 H515 0.930 . S
C468 N465 1.279 . S
C468 C467 1.358 . S
C468 H471 0.930 . S
C469 C466 1.348 . S
C469 C467 1.356 . S
H470 C464 0.930 . S
H471 C468 0.930 . S
C472 C474 1.348 . S
C472 C475 1.356 . S
C472 O502 1.325 . S
N473 C476 1.314 . S
N473 C477 1.279 . S
C474 C472 1.348 . S
C474 C476 1.353 . S
C474 H516 0.929 . S
C475 C472 1.356 . S
C475 C477 1.358 . S
C475 H517 0.930 . S
C476 N473 1.314 . S
C476 C474 1.353 . S
C476 H518 0.930 . S
C477 N473 1.279 . S
C477 C475 1.358 . S
C477 H519 0.930 . S
C478 C479 1.348 . S
C478 C480 1.356 . S
C478 O503 1.325 . S
C479 C478 1.348 . S
C479 C481 1.353 . S
C479 H520 0.929 . S
C480 C478 1.356 . S
C480 C482 1.358 . S
C480 H521 0.930 . S
C481 C479 1.353 . S
C481 N483 1.314 . S
C481 H522 0.930 . S
C482 C480 1.358 . S
C482 N483 1.279 . S
C482 H523 0.930 . S
N483 C481 1.314 . S
N483 C482 1.279 . S
C484 C486 1.353 . S
C484 N487 1.314 . S
C484 H490 0.930 . S
C485 N487 1.279 . S
C485 C488 1.358 . S
C485 H491 0.930 . S
C486 C484 1.353 . S
C486 C489 1.348 . S
C486 H524 0.929 . S
N487 Li442 1.990 . S
N487 C484 1.314 . S
N487 C485 1.279 . S
C488 C485 1.358 . S
C488 C489 1.356 . S
C488 H525 0.930 . S
C489 C486 1.348 . S
C489 C488 1.356 . S
H490 C484 0.930 . S
H491 C485 0.930 . S
C492 N493 1.314 . S
C492 C494 1.353 . S
C492 H498 0.930 . S
N493 Li443 1.990 . S
N493 C492 1.314 . S
N493 C496 1.279 . S
C494 C492 1.353 . S
C494 C497 1.348 . S
C494 H526 0.929 . S
C495 C496 1.358 . S
C495 C497 1.356 . S
C495 H527 0.930 . S
C496 N493 1.279 . S
C496 C495 1.358 . S
C496 H499 0.930 . S
C497 C494 1.348 . S
C497 C495 1.356 . S
H498 C492 0.930 . S
H499 C496 0.930 . S
O500 Li440 1.956 . S
O500 Li441 1.970 . S
O500 Li442 1.961 . S
O500 C444 1.325 . S
O501 Li440 1.970 . S
O501 Li441 1.956 . S
O501 Li443 1.961 . S
O501 C450 1.325 . S
O502 Li440 1.961 . S
O502 Li442 1.956 . S
O502 Li443 1.970 . S
O502 C472 1.325 . S
O503 Li441 1.961 . S
O503 Li442 1.970 . S
O503 Li443 1.956 . S
O503 C478 1.325 . S
H504 C446 0.929 . S
H505 C447 0.930 . S
H506 C448 0.930 . S
H507 C449 0.930 . S
H508 C451 0.930 . S
H509 C453 0.929 . S
H510 C454 0.930 . S
H511 C455 0.930 . S
H512 C458 0.930 . S
H513 C461 0.929 . S
H514 C466 0.929 . S
H515 C467 0.930 . S
H516 C474 0.929 . S
H517 C475 0.930 . S
H518 C476 0.930 . S
H519 C477 0.930 . S
H520 C479 0.929 . S
H521 C480 0.930 . S
H522 C481 0.930 . S
H523 C482 0.930 . S
H524 C486 0.929 . S
H525 C488 0.930 . S
H526 C494 0.929 . S
H527 C495 0.930 . S
Li528 N545 1.990 . S
Li528 O588 1.956 . S
Li528 O589 1.970 . S
Li528 O590 1.961 . S
Li529 N553 1.990 . S
Li529 O588 1.970 . S
Li529 O589 1.956 . S
Li529 O591 1.961 . S
Li530 N575 1.990 . S
Li530 O588 1.961 . S
Li530 O590 1.956 . S
Li530 O591 1.970 . S
Li531 N581 1.990 . S
Li531 O589 1.961 . S
Li531 O590 1.970 . S
Li531 O591 1.956 . S
C532 C534 1.348 . S
C532 C535 1.356 . S
C532 O588 1.325 . S
N533 C536 1.314 . S
N533 C537 1.279 . S
C534 C532 1.348 . S
C534 C536 1.353 . S
C534 H592 0.929 . S
C535 C532 1.356 . S
C535 C537 1.358 . S
C535 H593 0.930 . S
C536 N533 1.314 . S
C536 C534 1.353 . S
C536 H594 0.930 . S
C537 N533 1.279 . S
C537 C535 1.358 . S
C537 H595 0.930 . S
C538 C541 1.348 . S
C538 C542 1.356 . S
C538 O589 1.325 . S
C539 N540 1.279 . S
C539 C542 1.358 . S
C539 H596 0.927 1_545 S
N540 C539 1.279 . S
N540 C543 1.314 . S
C541 C538 1.348 . S
C541 C543 1.353 . S
C541 H597 0.929 . S
C542 C538 1.356 . S
C542 C539 1.358 . S
C542 H598 0.930 . S
C543 N540 1.314 . S
C543 C541 1.353 . S
C543 H599 0.930 . S
C544 N545 1.314 . S
C544 C549 1.353 . S
C544 H550 0.930 . S
N545 Li528 1.990 . S
N545 C544 1.314 . S
N545 C547 1.279 . S
C546 C547 1.358 . S
C546 C548 1.356 . S
C546 H600 0.930 . S
C547 N545 1.279 . S
C547 C546 1.358 . S
C547 H551 0.930 . S
C548 C546 1.356 . S
C548 C549 1.348 . S
C549 C544 1.353 . S
C549 C548 1.348 . S
C549 H601 0.929 . S
H550 C544 0.930 . S
H551 C547 0.930 . S
C552 N553 1.314 . S
C552 C554 1.353 . S
C552 H558 0.930 . S
N553 Li529 1.990 . S
N553 C552 1.314 . S
N553 C556 1.279 . S
C554 C552 1.353 . S
C554 C557 1.348 . S
C554 H602 0.929 . S
C555 C556 1.358 . S
C555 C557 1.356 . S
C555 H603 0.930 . S
C556 N553 1.279 . S
C556 C555 1.358 . S
C556 H559 0.930 . S
C557 C554 1.348 . S
C557 C555 1.356 . S
H558 C552 0.930 . S
H559 C556 0.930 . S
C560 C562 1.348 . S
C560 C563 1.356 . S
C560 O590 1.325 . S
N561 C564 1.314 . S
N561 C565 1.279 . S
C562 C560 1.348 . S
C562 C564 1.353 . S
C562 H604 0.929 . S
C563 C560 1.356 . S
C563 C565 1.358 . S
C563 H605 0.930 . S
C564 N561 1.314 . S
C564 C562 1.353 . S
C564 H606 0.930 . S
C565 N561 1.279 . S
C565 C563 1.358 . S
C565 H607 0.930 . S
C566 C567 1.348 . S
C566 C568 1.356 . S
C566 O591 1.325 . S
C567 C566 1.348 . S
C567 C569 1.353 . S
C567 H608 0.929 . S
C568 C566 1.356 . S
C568 C570 1.358 . S
C568 H609 0.930 . S
C569 C567 1.353 . S
C569 N571 1.314 . S
C569 H610 0.930 . S
C570 C568 1.358 . S
C570 N571 1.279 . S
C570 H611 0.930 1_545 S
N571 C569 1.314 . S
N571 C570 1.279 . S
C572 C574 1.353 . S
C572 N575 1.314 . S
C572 H578 0.930 . S
C573 N575 1.279 . S
C573 C576 1.358 . S
C573 H579 0.930 . S
C574 C572 1.353 . S
C574 C577 1.348 . S
C574 H612 0.929 . S
N575 Li530 1.990 . S
N575 C572 1.314 . S
N575 C573 1.279 . S
C576 C573 1.358 . S
C576 C577 1.356 . S
C576 H613 0.930 . S
C577 C574 1.348 . S
C577 C576 1.356 . S
H578 C572 0.930 . S
H579 C573 0.930 . S
C580 N581 1.314 . S
C580 C582 1.353 . S
C580 H586 0.930 . S
N581 Li531 1.990 . S
N581 C580 1.314 . S
N581 C584 1.279 . S
C582 C580 1.353 . S
C582 C585 1.348 . S
C582 H614 0.929 . S
C583 C584 1.358 . S
C583 C585 1.356 . S
C583 H615 0.930 . S
C584 N581 1.279 . S
C584 C583 1.358 . S
C584 H587 0.930 . S
C585 C582 1.348 . S
C585 C583 1.356 . S
H586 C580 0.930 . S
H587 C584 0.930 . S
O588 Li528 1.956 . S
O588 Li529 1.970 . S
O588 Li530 1.961 . S
O588 C532 1.325 . S
O589 Li528 1.970 . S
O589 Li529 1.956 . S
O589 Li531 1.961 . S
O589 C538 1.325 . S
O590 Li528 1.961 . S
O590 Li530 1.956 . S
O590 Li531 1.970 . S
O590 C560 1.325 . S
O591 Li529 1.961 . S
O591 Li530 1.970 . S
O591 Li531 1.956 . S
O591 C566 1.325 . S
H592 C534 0.929 . S
H593 C535 0.930 . S
H594 C536 0.930 . S
H595 C537 0.930 . S
H596 C539 0.927 1_565 S
H597 C541 0.929 . S
H598 C542 0.930 . S
H599 C543 0.930 . S
H600 C546 0.930 . S
H601 C549 0.929 . S
H602 C554 0.929 . S
H603 C555 0.930 . S
H604 C562 0.929 . S
H605 C563 0.930 . S
H606 C564 0.930 . S
H607 C565 0.930 . S
H608 C567 0.929 . S
H609 C568 0.930 . S
H610 C569 0.930 . S
H611 C570 0.930 1_565 S
H612 C574 0.929 . S
H613 C576 0.930 . S
H614 C582 0.929 . S
H615 C583 0.930 . S
Li616 N633 1.990 . S
Li616 O676 1.956 . S
Li616 O677 1.970 . S
Li616 O678 1.961 . S
Li617 N641 1.990 . S
Li617 O676 1.970 . S
Li617 O677 1.956 . S
Li617 O679 1.961 . S
Li618 N663 1.990 . S
Li618 O676 1.961 . S
Li618 O678 1.956 . S
Li618 O679 1.970 . S
Li619 N669 1.990 . S
Li619 O677 1.961 . S
Li619 O678 1.970 . S
Li619 O679 1.956 . S
C620 C622 1.348 . S
C620 C623 1.356 . S
C620 O676 1.325 . S
N621 C624 1.314 . S
N621 C625 1.279 . S
C622 C620 1.348 . S
C622 C624 1.353 . S
C622 H680 0.929 . S
C623 C620 1.356 . S
C623 C625 1.358 . S
C623 H681 0.930 . S
C624 N621 1.314 . S
C624 C622 1.353 . S
C624 H682 0.930 . S
C625 N621 1.279 . S
C625 C623 1.358 . S
C625 H683 0.928 1_655 S
C626 C629 1.348 . S
C626 C630 1.356 . S
C626 O677 1.325 . S
C627 N628 1.279 . S
C627 C630 1.358 . S
C627 H684 0.930 . S
N628 C627 1.279 . S
N628 C631 1.314 . S
C629 C626 1.348 . S
C629 C631 1.353 . S
C629 H685 0.929 . S
C630 C626 1.356 . S
C630 C627 1.358 . S
C630 H686 0.930 . S
C631 N628 1.314 . S
C631 C629 1.353 . S
C631 H687 0.930 . S
C632 N633 1.314 . S
C632 C637 1.353 . S
C632 H638 0.930 . S
N633 Li616 1.990 . S
N633 C632 1.314 . S
N633 C635 1.279 . S
C634 C635 1.358 . S
C634 C636 1.356 . S
C634 H688 0.930 . S
C635 N633 1.279 . S
C635 C634 1.358 . S
C635 H639 0.930 . S
C636 C634 1.356 . S
C636 C637 1.348 . S
C637 C632 1.353 . S
C637 C636 1.348 . S
C637 H689 0.929 . S
H638 C632 0.930 . S
H639 C635 0.930 . S
C640 N641 1.314 . S
C640 C642 1.353 . S
C640 H646 0.930 . S
N641 Li617 1.990 . S
N641 C640 1.314 . S
N641 C644 1.279 . S
C642 C640 1.353 . S
C642 C645 1.348 . S
C642 H690 0.929 . S
C643 C644 1.358 . S
C643 C645 1.356 . S
C643 H691 0.930 . S
C644 N641 1.279 . S
C644 C643 1.358 . S
C644 H647 0.930 . S
C645 C642 1.348 . S
C645 C643 1.356 . S
H646 C640 0.930 . S
H647 C644 0.930 . S
C648 C650 1.348 . S
C648 C651 1.356 . S
C648 O678 1.325 . S
N649 C652 1.314 . S
N649 C653 1.279 . S
C650 C648 1.348 . S
C650 C652 1.353 . S
C650 H692 0.929 . S
C651 C648 1.356 . S
C651 C653 1.358 . S
C651 H693 0.930 . S
C652 N649 1.314 . S
C652 C650 1.353 . S
C652 H694 0.930 . S
C653 N649 1.279 . S
C653 C651 1.358 . S
C653 H695 0.930 1_655 S
C654 C655 1.348 . S
C654 C656 1.356 . S
C654 O679 1.325 . S
C655 C654 1.348 . S
C655 C657 1.353 . S
C655 H696 0.929 . S
C656 C654 1.356 . S
C656 C658 1.358 . S
C656 H697 0.930 . S
C657 C655 1.353 . S
C657 N659 1.314 . S
C657 H698 0.930 . S
C658 C656 1.358 . S
C658 N659 1.279 . S
C658 H699 0.930 . S
N659 C657 1.314 . S
N659 C658 1.279 . S
C660 C662 1.353 . S
C660 N663 1.314 . S
C660 H666 0.930 . S
C661 N663 1.279 . S
C661 C664 1.358 . S
C661 H667 0.930 . S
C662 C660 1.353 . S
C662 C665 1.348 . S
C662 H700 0.929 . S
N663 Li618 1.990 . S
N663 C660 1.314 . S
N663 C661 1.279 . S
C664 C661 1.358 . S
C664 C665 1.356 . S
C664 H701 0.930 . S
C665 C662 1.348 . S
C665 C664 1.356 . S
H666 C660 0.930 . S
H667 C661 0.930 . S
C668 N669 1.314 . S
C668 C670 1.353 . S
C668 H674 0.930 . S
N669 Li619 1.990 . S
N669 C668 1.314 . S
N669 C672 1.279 . S
C670 C668 1.353 . S
C670 C673 1.348 . S
C670 H702 0.929 . S
C671 C672 1.358 . S
C671 C673 1.356 . S
C671 H703 0.930 . S
C672 N669 1.279 . S
C672 C671 1.358 . S
C672 H675 0.930 . S
C673 C670 1.348 . S
C673 C671 1.356 . S
H674 C668 0.930 . S
H675 C672 0.930 . S
O676 Li616 1.956 . S
O676 Li617 1.970 . S
O676 Li618 1.961 . S
O676 C620 1.325 . S
O677 Li616 1.970 . S
O677 Li617 1.956 . S
O677 Li619 1.961 . S
O677 C626 1.325 . S
O678 Li616 1.961 . S
O678 Li618 1.956 . S
O678 Li619 1.970 . S
O678 C648 1.325 . S
O679 Li617 1.961 . S
O679 Li618 1.970 . S
O679 Li619 1.956 . S
O679 C654 1.325 . S
H680 C622 0.929 . S
H681 C623 0.930 . S
H682 C624 0.930 . S
H683 C625 0.928 1_455 S
H684 C627 0.930 . S
H685 C629 0.929 . S
H686 C630 0.930 . S
H687 C631 0.930 . S
H688 C634 0.930 . S
H689 C637 0.929 . S
H690 C642 0.929 . S
H691 C643 0.930 . S
H692 C650 0.929 . S
H693 C651 0.930 . S
H694 C652 0.930 . S
H695 C653 0.930 1_455 S
H696 C655 0.929 . S
H697 C656 0.930 . S
H698 C657 0.930 . S
H699 C658 0.930 . S
H700 C662 0.929 . S
H701 C664 0.930 . S
H702 C670 0.929 . S
H703 C671 0.930 . S
Li704 N721 1.990 . S
Li704 O764 1.956 . S
Li704 O765 1.970 . S
Li704 O766 1.961 . S
Li705 N729 1.990 . S
Li705 O764 1.970 . S
Li705 O765 1.956 . S
Li705 O767 1.961 . S
Li706 N751 1.990 . S
Li706 O764 1.961 . S
Li706 O766 1.956 . S
Li706 O767 1.970 . S
Li707 N757 1.990 . S
Li707 O765 1.961 . S
Li707 O766 1.970 . S
Li707 O767 1.956 . S
C708 C710 1.348 . S
C708 C711 1.356 . S
C708 O764 1.325 . S
N709 C712 1.314 . S
N709 C713 1.279 . S
C710 C708 1.348 . S
C710 C712 1.353 . S
C710 H768 0.929 . S
C711 C708 1.356 . S
C711 C713 1.358 . S
C711 H769 0.930 . S
C712 N709 1.314 . S
C712 C710 1.353 . S
C712 H770 0.930 . S
C713 N709 1.279 . S
C713 C711 1.358 . S
C713 H771 0.930 . S
C714 C717 1.348 . S
C714 C718 1.356 . S
C714 O765 1.325 . S
C715 N716 1.279 . S
C715 C718 1.358 . S
C715 H772 0.930 . S
N716 C715 1.279 . S
N716 C719 1.314 . S
C717 C714 1.348 . S
C717 C719 1.353 . S
C717 H773 0.929 . S
C718 C714 1.356 . S
C718 C715 1.358 . S
C718 H774 0.930 . S
C719 N716 1.314 . S
C719 C717 1.353 . S
C719 H775 0.930 . S
C720 N721 1.314 . S
C720 C725 1.353 . S
C720 H726 0.930 . S
N721 Li704 1.990 . S
N721 C720 1.314 . S
N721 C723 1.279 . S
C722 C723 1.358 . S
C722 C724 1.356 . S
C722 H776 0.930 . S
C723 N721 1.279 . S
C723 C722 1.358 . S
C723 H727 0.930 . S
C724 C722 1.356 . S
C724 C725 1.348 . S
C725 C720 1.353 . S
C725 C724 1.348 . S
C725 H777 0.929 . S
H726 C720 0.930 . S
H727 C723 0.930 . S
C728 N729 1.314 . S
C728 C730 1.353 . S
C728 H734 0.930 . S
N729 Li705 1.990 . S
N729 C728 1.314 . S
N729 C732 1.279 . S
C730 C728 1.353 . S
C730 C733 1.348 . S
C730 H778 0.929 . S
C731 C732 1.358 . S
C731 C733 1.356 . S
C731 H779 0.930 . S
C732 N729 1.279 . S
C732 C731 1.358 . S
C732 H735 0.930 . S
C733 C730 1.348 . S
C733 C731 1.356 . S
H734 C728 0.930 . S
H735 C732 0.930 . S
C736 C738 1.348 . S
C736 C739 1.356 . S
C736 O766 1.325 . S
N737 C740 1.314 . S
N737 C741 1.279 . S
C738 C736 1.348 . S
C738 C740 1.353 . S
C738 H780 0.929 . S
C739 C736 1.356 . S
C739 C741 1.358 . S
C739 H781 0.930 . S
C740 N737 1.314 . S
C740 C738 1.353 . S
C740 H782 0.930 . S
C741 N737 1.279 . S
C741 C739 1.358 . S
C741 H783 0.930 . S
C742 C743 1.348 . S
C742 C744 1.356 . S
C742 O767 1.325 . S
C743 C742 1.348 . S
C743 C745 1.353 . S
C743 H784 0.929 . S
C744 C742 1.356 . S
C744 C746 1.358 . S
C744 H785 0.930 . S
C745 C743 1.353 . S
C745 N747 1.314 . S
C745 H786 0.930 . S
C746 C744 1.358 . S
C746 N747 1.279 . S
C746 H787 0.930 . S
N747 C745 1.314 . S
N747 C746 1.279 . S
C748 C750 1.353 . S
C748 N751 1.314 . S
C748 H754 0.930 . S
C749 N751 1.279 . S
C749 C752 1.358 . S
C749 H755 0.930 . S
C750 C748 1.353 . S
C750 C753 1.348 . S
C750 H788 0.929 . S
N751 Li706 1.990 . S
N751 C748 1.314 . S
N751 C749 1.279 . S
C752 C749 1.358 . S
C752 C753 1.356 . S
C752 H789 0.930 . S
C753 C750 1.348 . S
C753 C752 1.356 . S
H754 C748 0.930 . S
H755 C749 0.930 . S
C756 N757 1.314 . S
C756 C758 1.353 . S
C756 H762 0.930 . S
N757 Li707 1.990 . S
N757 C756 1.314 . S
N757 C760 1.279 . S
C758 C756 1.353 . S
C758 C761 1.348 . S
C758 H790 0.929 . S
C759 C760 1.358 . S
C759 C761 1.356 . S
C759 H791 0.930 . S
C760 N757 1.279 . S
C760 C759 1.358 . S
C760 H763 0.930 . S
C761 C758 1.348 . S
C761 C759 1.356 . S
H762 C756 0.930 . S
H763 C760 0.930 . S
O764 Li704 1.956 . S
O764 Li705 1.970 . S
O764 Li706 1.961 . S
O764 C708 1.325 . S
O765 Li704 1.970 . S
O765 Li705 1.956 . S
O765 Li707 1.961 . S
O765 C714 1.325 . S
O766 Li704 1.961 . S
O766 Li706 1.956 . S
O766 Li707 1.970 . S
O766 C736 1.325 . S
O767 Li705 1.961 . S
O767 Li706 1.970 . S
O767 Li707 1.956 . S
O767 C742 1.325 . S
H768 C710 0.929 . S
H769 C711 0.930 . S
H770 C712 0.930 . S
H771 C713 0.930 . S
H772 C715 0.930 . S
H773 C717 0.929 . S
H774 C718 0.930 . S
H775 C719 0.930 . S
H776 C722 0.930 . S
H777 C725 0.929 . S
H778 C730 0.929 . S
H779 C731 0.930 . S
H780 C738 0.929 . S
H781 C739 0.930 . S
H782 C740 0.930 . S
H783 C741 0.930 . S
H784 C743 0.929 . S
H785 C744 0.930 . S
H786 C745 0.930 . S
H787 C746 0.930 . S
H788 C750 0.929 . S
H789 C752 0.930 . S
H790 C758 0.929 . S
H791 C759 0.930 . S
Li792 N809 1.990 . S
Li792 O852 1.956 . S
Li792 O853 1.970 . S
Li792 O854 1.961 . S
Li793 N817 1.990 . S
Li793 O852 1.970 . S
Li793 O853 1.956 . S
Li793 O855 1.961 . S
Li794 N839 1.990 . S
Li794 O852 1.961 . S
Li794 O854 1.956 . S
Li794 O855 1.970 . S
Li795 N845 1.990 . S
Li795 O853 1.961 . S
Li795 O854 1.970 . S
Li795 O855 1.956 . S
C796 C798 1.348 . S
C796 C799 1.356 . S
C796 O852 1.325 . S
N797 C800 1.314 . S
N797 C801 1.279 . S
C798 C796 1.348 . S
C798 C800 1.353 . S
C798 H856 0.929 . S
C799 C796 1.356 . S
C799 C801 1.358 . S
C799 H857 0.930 . S
C800 N797 1.314 . S
C800 C798 1.353 . S
C800 H858 0.930 . S
C801 N797 1.279 . S
C801 C799 1.358 . S
C801 H859 0.930 . S
C802 C805 1.348 . S
C802 C806 1.356 . S
C802 O853 1.325 . S
C803 N804 1.279 . S
C803 C806 1.358 . S
C803 H860 0.930 . S
N804 C803 1.279 . S
N804 C807 1.314 . S
C805 C802 1.348 . S
C805 C807 1.353 . S
C805 H861 0.929 . S
C806 C802 1.356 . S
C806 C803 1.358 . S
C806 H862 0.930 . S
C807 N804 1.314 . S
C807 C805 1.353 . S
C807 H863 0.930 . S
C808 N809 1.314 . S
C808 C813 1.353 . S
C808 H814 0.930 . S
N809 Li792 1.990 . S
N809 C808 1.314 . S
N809 C811 1.279 . S
C810 C811 1.358 . S
C810 C812 1.356 . S
C810 H864 0.930 . S
C811 N809 1.279 . S
C811 C810 1.358 . S
C811 H815 0.930 . S
C812 C810 1.356 . S
C812 C813 1.348 . S
C813 C808 1.353 . S
C813 C812 1.348 . S
C813 H865 0.929 . S
H814 C808 0.930 . S
H815 C811 0.930 . S
C816 N817 1.314 . S
C816 C818 1.353 . S
C816 H822 0.930 . S
N817 Li793 1.990 . S
N817 C816 1.314 . S
N817 C820 1.279 . S
C818 C816 1.353 . S
C818 C821 1.348 . S
C818 H866 0.929 . S
C819 C820 1.358 . S
C819 C821 1.356 . S
C819 H867 0.930 . S
C820 N817 1.279 . S
C820 C819 1.358 . S
C820 H823 0.930 . S
C821 C818 1.348 . S
C821 C819 1.356 . S
H822 C816 0.930 . S
H823 C820 0.930 . S
C824 C826 1.348 . S
C824 C827 1.356 . S
C824 O854 1.325 . S
N825 C828 1.314 . S
N825 C829 1.279 . S
C826 C824 1.348 . S
C826 C828 1.353 . S
C826 H868 0.929 . S
C827 C824 1.356 . S
C827 C829 1.358 . S
C827 H869 0.930 . S
C828 N825 1.314 . S
C828 C826 1.353 . S
C828 H870 0.930 . S
C829 N825 1.279 . S
C829 C827 1.358 . S
C829 H871 0.930 . S
C830 C831 1.348 . S
C830 C832 1.356 . S
C830 O855 1.325 . S
C831 C830 1.348 . S
C831 C833 1.353 . S
C831 H872 0.929 . S
C832 C830 1.356 . S
C832 C834 1.358 . S
C832 H873 0.930 . S
C833 C831 1.353 . S
C833 N835 1.314 . S
C833 H874 0.930 . S
C834 C832 1.358 . S
C834 N835 1.279 . S
C834 H875 0.930 . S
N835 C833 1.314 . S
N835 C834 1.279 . S
C836 C838 1.353 . S
C836 N839 1.314 . S
C836 H842 0.930 . S
C837 N839 1.279 . S
C837 C840 1.358 . S
C837 H843 0.930 . S
C838 C836 1.353 . S
C838 C841 1.348 . S
C838 H876 0.929 . S
N839 Li794 1.990 . S
N839 C836 1.314 . S
N839 C837 1.279 . S
C840 C837 1.358 . S
C840 C841 1.356 . S
C840 H877 0.930 . S
C841 C838 1.348 . S
C841 C840 1.356 . S
H842 C836 0.930 . S
H843 C837 0.930 . S
C844 N845 1.314 . S
C844 C846 1.353 . S
C844 H850 0.930 . S
N845 Li795 1.990 . S
N845 C844 1.314 . S
N845 C848 1.279 . S
C846 C844 1.353 . S
C846 C849 1.348 . S
C846 H878 0.929 . S
C847 C848 1.358 . S
C847 C849 1.356 . S
C847 H879 0.930 . S
C848 N845 1.279 . S
C848 C847 1.358 . S
C848 H851 0.930 . S
C849 C846 1.348 . S
C849 C847 1.356 . S
H850 C844 0.930 . S
H851 C848 0.930 . S
O852 Li792 1.956 . S
O852 Li793 1.970 . S
O852 Li794 1.961 . S
O852 C796 1.325 . S
O853 Li792 1.970 . S
O853 Li793 1.956 . S
O853 Li795 1.961 . S
O853 C802 1.325 . S
O854 Li792 1.961 . S
O854 Li794 1.956 . S
O854 Li795 1.970 . S
O854 C824 1.325 . S
O855 Li793 1.961 . S
O855 Li794 1.970 . S
O855 Li795 1.956 . S
O855 C830 1.325 . S
H856 C798 0.929 . S
H857 C799 0.930 . S
H858 C800 0.930 . S
H859 C801 0.930 . S
H860 C803 0.930 . S
H861 C805 0.929 . S
H862 C806 0.930 . S
H863 C807 0.930 . S
H864 C810 0.930 . S
H865 C813 0.929 . S
H866 C818 0.929 . S
H867 C819 0.930 . S
H868 C826 0.929 . S
H869 C827 0.930 . S
H870 C828 0.930 . S
H871 C829 0.930 . S
H872 C831 0.929 . S
H873 C832 0.930 . S
H874 C833 0.930 . S
H875 C834 0.930 . S
H876 C838 0.929 . S
H877 C840 0.930 . S
H878 C846 0.929 . S
H879 C847 0.930 . S
Li880 N897 1.990 . S
Li880 O940 1.956 . S
Li880 O941 1.970 . S
Li880 O942 1.961 . S
Li881 N905 1.990 . S
Li881 O940 1.970 . S
Li881 O941 1.956 . S
Li881 O943 1.961 . S
Li882 N927 1.990 . S
Li882 O940 1.961 . S
Li882 O942 1.956 . S
Li882 O943 1.970 . S
Li883 N933 1.990 . S
Li883 O941 1.961 . S
Li883 O942 1.970 . S
Li883 O943 1.956 . S
C884 C886 1.348 . S
C884 C887 1.356 . S
C884 O940 1.325 . S
N885 C888 1.314 . S
N885 C889 1.279 . S
C886 C884 1.348 . S
C886 C888 1.353 . S
C886 H944 0.929 . S
C887 C884 1.356 . S
C887 C889 1.358 . S
C887 H945 0.930 . S
C888 N885 1.314 . S
C888 C886 1.353 . S
C888 H946 0.930 . S
C889 N885 1.279 . S
C889 C887 1.358 . S
C889 H947 0.930 . S
C890 C893 1.348 . S
C890 C894 1.356 . S
C890 O941 1.325 . S
C891 N892 1.279 . S
C891 C894 1.358 . S
C891 H948 0.930 1_565 S
N892 C891 1.279 . S
N892 C895 1.314 . S
C893 C890 1.348 . S
C893 C895 1.353 . S
C893 H949 0.929 . S
C894 C890 1.356 . S
C894 C891 1.358 . S
C894 H950 0.930 . S
C895 N892 1.314 . S
C895 C893 1.353 . S
C895 H951 0.930 . S
C896 N897 1.314 . S
C896 C901 1.353 . S
C896 H902 0.930 . S
N897 Li880 1.990 . S
N897 C896 1.314 . S
N897 C899 1.279 . S
C898 C899 1.358 . S
C898 C900 1.356 . S
C898 H952 0.930 . S
C899 N897 1.279 . S
C899 C898 1.358 . S
C899 H903 0.930 . S
C900 C898 1.356 . S
C900 C901 1.348 . S
C901 C896 1.353 . S
C901 C900 1.348 . S
C901 H953 0.929 . S
H902 C896 0.930 . S
H903 C899 0.930 . S
C904 N905 1.314 . S
C904 C906 1.353 . S
C904 H910 0.930 . S
N905 Li881 1.990 . S
N905 C904 1.314 . S
N905 C908 1.279 . S
C906 C904 1.353 . S
C906 C909 1.348 . S
C906 H954 0.929 . S
C907 C908 1.358 . S
C907 C909 1.356 . S
C907 H955 0.930 . S
C908 N905 1.279 . S
C908 C907 1.358 . S
C908 H911 0.930 . S
C909 C906 1.348 . S
C909 C907 1.356 . S
H910 C904 0.930 . S
H911 C908 0.930 . S
C912 C914 1.348 . S
C912 C915 1.356 . S
C912 O942 1.325 . S
N913 C916 1.314 . S
N913 C917 1.279 . S
C914 C912 1.348 . S
C914 C916 1.353 . S
C914 H956 0.929 . S
C915 C912 1.356 . S
C915 C917 1.358 . S
C915 H957 0.930 . S
C916 N913 1.314 . S
C916 C914 1.353 . S
C916 H958 0.930 . S
C917 N913 1.279 . S
C917 C915 1.358 . S
C917 H959 0.930 . S
C918 C919 1.348 . S
C918 C920 1.356 . S
C918 O943 1.325 . S
C919 C918 1.348 . S
C919 C921 1.353 . S
C919 H960 0.929 . S
C920 C918 1.356 . S
C920 C922 1.358 . S
C920 H961 0.930 . S
C921 C919 1.353 . S
C921 N923 1.314 . S
C921 H962 0.930 . S
C922 C920 1.358 . S
C922 N923 1.279 . S
C922 H963 0.928 1_565 S
N923 C921 1.314 . S
N923 C922 1.279 . S
C924 C926 1.353 . S
C924 N927 1.314 . S
C924 H930 0.930 . S
C925 N927 1.279 . S
C925 C928 1.358 . S
C925 H931 0.930 . S
C926 C924 1.353 . S
C926 C929 1.348 . S
C926 H964 0.929 . S
N927 Li882 1.990 . S
N927 C924 1.314 . S
N927 C925 1.279 . S
C928 C925 1.358 . S
C928 C929 1.356 . S
C928 H965 0.930 . S
C929 C926 1.348 . S
C929 C928 1.356 . S
H930 C924 0.930 . S
H931 C925 0.930 . S
C932 N933 1.314 . S
C932 C934 1.353 . S
C932 H938 0.930 . S
N933 Li883 1.990 . S
N933 C932 1.314 . S
N933 C936 1.279 . S
C934 C932 1.353 . S
C934 C937 1.348 . S
C934 H966 0.929 . S
C935 C936 1.358 . S
C935 C937 1.356 . S
C935 H967 0.930 . S
C936 N933 1.279 . S
C936 C935 1.358 . S
C936 H939 0.930 . S
C937 C934 1.348 . S
C937 C935 1.356 . S
H938 C932 0.930 . S
H939 C936 0.930 . S
O940 Li880 1.956 . S
O940 Li881 1.970 . S
O940 Li882 1.961 . S
O940 C884 1.325 . S
O941 Li880 1.970 . S
O941 Li881 1.956 . S
O941 Li883 1.961 . S
O941 C890 1.325 . S
O942 Li880 1.961 . S
O942 Li882 1.956 . S
O942 Li883 1.970 . S
O942 C912 1.325 . S
O943 Li881 1.961 . S
O943 Li882 1.970 . S
O943 Li883 1.956 . S
O943 C918 1.325 . S
H944 C886 0.929 . S
H945 C887 0.930 . S
H946 C888 0.930 . S
H947 C889 0.930 . S
H948 C891 0.930 1_545 S
H949 C893 0.929 . S
H950 C894 0.930 . S
H951 C895 0.930 . S
H952 C898 0.930 . S
H953 C901 0.929 . S
H954 C906 0.929 . S
H955 C907 0.930 . S
H956 C914 0.929 . S
H957 C915 0.930 . S
H958 C916 0.930 . S
H959 C917 0.930 . S
H960 C919 0.929 . S
H961 C920 0.930 . S
H962 C921 0.930 . S
H963 C922 0.928 1_545 S
H964 C926 0.929 . S
H965 C928 0.930 . S
H966 C934 0.929 . S
H967 C935 0.930 . S
Li968 N985 1.990 . S
Li968 O1028 1.956 . S
Li968 O1029 1.970 . S
Li968 O1030 1.961 . S
Li969 N993 1.990 . S
Li969 O1028 1.970 . S
Li969 O1029 1.956 . S
Li969 O1031 1.961 . S
Li970 N1015 1.990 . S
Li970 O1028 1.961 . S
Li970 O1030 1.956 . S
Li970 O1031 1.970 . S
Li971 N1021 1.990 . S
Li971 O1029 1.961 . S
Li971 O1030 1.970 . S
Li971 O1031 1.956 . S
C972 C974 1.348 . S
C972 C975 1.356 . S
C972 O1028 1.325 . S
N973 C976 1.314 . S
N973 C977 1.279 . S
C974 C972 1.348 . S
C974 C976 1.353 . S
C974 H1032 0.929 . S
C975 C972 1.356 . S
C975 C977 1.358 . S
C975 H1033 0.930 . S
C976 N973 1.314 . S
C976 C974 1.353 . S
C976 H1034 0.930 . S
C977 N973 1.279 . S
C977 C975 1.358 . S
C977 H1035 0.930 1_455 S
C978 C981 1.348 . S
C978 C982 1.356 . S
C978 O1029 1.325 . S
C979 N980 1.279 . S
C979 C982 1.358 . S
C979 H1036 0.930 . S
N980 C979 1.279 . S
N980 C983 1.314 . S
C981 C978 1.348 . S
C981 C983 1.353 . S
C981 H1037 0.929 . S
C982 C978 1.356 . S
C982 C979 1.358 . S
C982 H1038 0.930 . S
C983 N980 1.314 . S
C983 C981 1.353 . S
C983 H1039 0.930 . S
C984 N985 1.314 . S
C984 C989 1.353 . S
C984 H990 0.930 . S
N985 Li968 1.990 . S
N985 C984 1.314 . S
N985 C987 1.279 . S
C986 C987 1.358 . S
C986 C988 1.356 . S
C986 H1040 0.930 . S
C987 N985 1.279 . S
C987 C986 1.358 . S
C987 H991 0.930 . S
C988 C986 1.356 . S
C988 C989 1.348 . S
C989 C984 1.353 . S
C989 C988 1.348 . S
C989 H1041 0.929 . S
H990 C984 0.930 . S
H991 C987 0.930 . S
C992 N993 1.314 . S
C992 C994 1.353 . S
C992 H998 0.930 . S
N993 Li969 1.990 . S
N993 C992 1.314 . S
N993 C996 1.279 . S
C994 C992 1.353 . S
C994 C997 1.348 . S
C994 H1042 0.929 . S
C995 C996 1.358 . S
C995 C997 1.356 . S
C995 H1043 0.930 . S
C996 N993 1.279 . S
C996 C995 1.358 . S
C996 H999 0.930 . S
C997 C994 1.348 . S
C997 C995 1.356 . S
H998 C992 0.930 . S
H999 C996 0.930 . S
C1000 C1002 1.348 . S
C1000 C1003 1.356 . S
C1000 O1030 1.325 . S
N1001 C1004 1.314 . S
N1001 C1005 1.279 . S
C1002 C1000 1.348 . S
C1002 C1004 1.353 . S
C1002 H1044 0.929 . S
C1003 C1000 1.356 . S
C1003 C1005 1.358 . S
C1003 H1045 0.930 . S
C1004 N1001 1.314 . S
C1004 C1002 1.353 . S
C1004 H1046 0.930 . S
C1005 N1001 1.279 . S
C1005 C1003 1.358 . S
C1005 H1047 0.928 1_455 S
C1006 C1007 1.348 . S
C1006 C1008 1.356 . S
C1006 O1031 1.325 . S
C1007 C1006 1.348 . S
C1007 C1009 1.353 . S
C1007 H1048 0.929 . S
C1008 C1006 1.356 . S
C1008 C1010 1.358 . S
C1008 H1049 0.930 . S
C1009 C1007 1.353 . S
C1009 N1011 1.314 . S
C1009 H1050 0.930 . S
C1010 C1008 1.358 . S
C1010 N1011 1.279 . S
C1010 H1051 0.930 . S
N1011 C1009 1.314 . S
N1011 C1010 1.279 . S
C1012 C1014 1.353 . S
C1012 N1015 1.314 . S
C1012 H1018 0.930 . S
C1013 N1015 1.279 . S
C1013 C1016 1.358 . S
C1013 H1019 0.930 . S
C1014 C1012 1.353 . S
C1014 C1017 1.348 . S
C1014 H1052 0.929 . S
N1015 Li970 1.990 . S
N1015 C1012 1.314 . S
N1015 C1013 1.279 . S
C1016 C1013 1.358 . S
C1016 C1017 1.356 . S
C1016 H1053 0.930 . S
C1017 C1014 1.348 . S
C1017 C1016 1.356 . S
H1018 C1012 0.930 . S
H1019 C1013 0.930 . S
C1020 N1021 1.314 . S
C1020 C1022 1.353 . S
C1020 H1026 0.930 . S
N1021 Li971 1.990 . S
N1021 C1020 1.314 . S
N1021 C1024 1.279 . S
C1022 C1020 1.353 . S
C1022 C1025 1.348 . S
C1022 H1054 0.929 . S
C1023 C1024 1.358 . S
C1023 C1025 1.356 . S
C1023 H1055 0.930 . S
C1024 N1021 1.279 . S
C1024 C1023 1.358 . S
C1024 H1027 0.930 . S
C1025 C1022 1.348 . S
C1025 C1023 1.356 . S
H1026 C1020 0.930 . S
H1027 C1024 0.930 . S
O1028 Li968 1.956 . S
O1028 Li969 1.970 . S
O1028 Li970 1.961 . S
O1028 C972 1.325 . S
O1029 Li968 1.970 . S
O1029 Li969 1.956 . S
O1029 Li971 1.961 . S
O1029 C978 1.325 . S
O1030 Li968 1.961 . S
O1030 Li970 1.956 . S
O1030 Li971 1.970 . S
O1030 C1000 1.325 . S
O1031 Li969 1.961 . S
O1031 Li970 1.970 . S
O1031 Li971 1.956 . S
O1031 C1006 1.325 . S
H1032 C974 0.929 . S
H1033 C975 0.930 . S
H1034 C976 0.930 . S
H1035 C977 0.930 1_655 S
H1036 C979 0.930 . S
H1037 C981 0.929 . S
H1038 C982 0.930 . S
H1039 C983 0.930 . S
H1040 C986 0.930 . S
H1041 C989 0.929 . S
H1042 C994 0.929 . S
H1043 C995 0.930 . S
H1044 C1002 0.929 . S
H1045 C1003 0.930 . S
H1046 C1004 0.930 . S
H1047 C1005 0.928 1_655 S
H1048 C1007 0.929 . S
H1049 C1008 0.930 . S
H1050 C1009 0.930 . S
H1051 C1010 0.930 . S
H1052 C1014 0.929 . S
H1053 C1016 0.930 . S
H1054 C1022 0.929 . S
H1055 C1023 0.930 . S
Li1056 N1073 1.990 . S
Li1056 O1116 1.956 . S
Li1056 O1117 1.970 . S
Li1056 O1118 1.961 . S
Li1057 N1081 1.990 . S
Li1057 O1116 1.970 . S
Li1057 O1117 1.956 . S
Li1057 O1119 1.961 . S
Li1058 N1103 1.990 . S
Li1058 O1116 1.961 . S
Li1058 O1118 1.956 . S
Li1058 O1119 1.970 . S
Li1059 N1109 1.990 . S
Li1059 O1117 1.961 . S
Li1059 O1118 1.970 . S
Li1059 O1119 1.956 . S
C1060 C1062 1.348 . S
C1060 C1063 1.356 . S
C1060 O1116 1.325 . S
N1061 C1064 1.314 . S
N1061 C1065 1.279 . S
C1062 C1060 1.348 . S
C1062 C1064 1.353 . S
C1062 H1120 0.929 . S
C1063 C1060 1.356 . S
C1063 C1065 1.358 . S
C1063 H1121 0.930 . S
C1064 N1061 1.314 . S
C1064 C1062 1.353 . S
C1064 H1122 0.930 . S
C1065 N1061 1.279 . S
C1065 C1063 1.358 . S
C1065 H1123 0.928 1_565 S
C1066 C1069 1.348 . S
C1066 C1070 1.356 . S
C1066 O1117 1.325 . S
C1067 N1068 1.279 . S
C1067 C1070 1.358 . S
C1067 H1124 0.930 . S
N1068 C1067 1.279 . S
N1068 C1071 1.314 . S
C1069 C1066 1.348 . S
C1069 C1071 1.353 . S
C1069 H1125 0.929 . S
C1070 C1066 1.356 . S
C1070 C1067 1.358 . S
C1070 H1126 0.930 . S
C1071 N1068 1.314 . S
C1071 C1069 1.353 . S
C1071 H1127 0.930 . S
C1072 N1073 1.314 . S
C1072 C1077 1.353 . S
C1072 H1078 0.930 . S
N1073 Li1056 1.990 . S
N1073 C1072 1.314 . S
N1073 C1075 1.279 . S
C1074 C1075 1.358 . S
C1074 C1076 1.356 . S
C1074 H1128 0.930 . S
C1075 N1073 1.279 . S
C1075 C1074 1.358 . S
C1075 H1079 0.930 . S
C1076 C1074 1.356 . S
C1076 C1077 1.348 . S
C1077 C1072 1.353 . S
C1077 C1076 1.348 . S
C1077 H1129 0.929 . S
H1078 C1072 0.930 . S
H1079 C1075 0.930 . S
C1080 N1081 1.314 . S
C1080 C1082 1.353 . S
C1080 H1086 0.930 . S
N1081 Li1057 1.990 . S
N1081 C1080 1.314 . S
N1081 C1084 1.279 . S
C1082 C1080 1.353 . S
C1082 C1085 1.348 . S
C1082 H1130 0.929 . S
C1083 C1084 1.358 . S
C1083 C1085 1.356 . S
C1083 H1131 0.930 . S
C1084 N1081 1.279 . S
C1084 C1083 1.358 . S
C1084 H1087 0.930 . S
C1085 C1082 1.348 . S
C1085 C1083 1.356 . S
H1086 C1080 0.930 . S
H1087 C1084 0.930 . S
C1088 C1090 1.348 . S
C1088 C1091 1.356 . S
C1088 O1118 1.325 . S
N1089 C1092 1.314 . S
N1089 C1093 1.279 . S
C1090 C1088 1.348 . S
C1090 C1092 1.353 . S
C1090 H1132 0.929 . S
C1091 C1088 1.356 . S
C1091 C1093 1.358 . S
C1091 H1133 0.930 . S
C1092 N1089 1.314 . S
C1092 C1090 1.353 . S
C1092 H1134 0.930 . S
C1093 N1089 1.279 . S
C1093 C1091 1.358 . S
C1093 H1135 0.930 1_565 S
C1094 C1095 1.348 . S
C1094 C1096 1.356 . S
C1094 O1119 1.325 . S
C1095 C1094 1.348 . S
C1095 C1097 1.353 . S
C1095 H1136 0.929 . S
C1096 C1094 1.356 . S
C1096 C1098 1.358 . S
C1096 H1137 0.930 . S
C1097 C1095 1.353 . S
C1097 N1099 1.314 . S
C1097 H1138 0.930 . S
C1098 C1096 1.358 . S
C1098 N1099 1.279 . S
C1098 H1139 0.930 . S
N1099 C1097 1.314 . S
N1099 C1098 1.279 . S
C1100 C1102 1.353 . S
C1100 N1103 1.314 . S
C1100 H1106 0.930 . S
C1101 N1103 1.279 . S
C1101 C1104 1.358 . S
C1101 H1107 0.930 . S
C1102 C1100 1.353 . S
C1102 C1105 1.348 . S
C1102 H1140 0.929 . S
N1103 Li1058 1.990 . S
N1103 C1100 1.314 . S
N1103 C1101 1.279 . S
C1104 C1101 1.358 . S
C1104 C1105 1.356 . S
C1104 H1141 0.930 . S
C1105 C1102 1.348 . S
C1105 C1104 1.356 . S
H1106 C1100 0.930 . S
H1107 C1101 0.930 . S
C1108 N1109 1.314 . S
C1108 C1110 1.353 . S
C1108 H1114 0.930 . S
N1109 Li1059 1.990 . S
N1109 C1108 1.314 . S
N1109 C1112 1.279 . S
C1110 C1108 1.353 . S
C1110 C1113 1.348 . S
C1110 H1142 0.929 . S
C1111 C1112 1.358 . S
C1111 C1113 1.356 . S
C1111 H1143 0.930 . S
C1112 N1109 1.279 . S
C1112 C1111 1.358 . S
C1112 H1115 0.930 . S
C1113 C1110 1.348 . S
C1113 C1111 1.356 . S
H1114 C1108 0.930 . S
H1115 C1112 0.930 . S
O1116 Li1056 1.956 . S
O1116 Li1057 1.970 . S
O1116 Li1058 1.961 . S
O1116 C1060 1.325 . S
O1117 Li1056 1.970 . S
O1117 Li1057 1.956 . S
O1117 Li1059 1.961 . S
O1117 C1066 1.325 . S
O1118 Li1056 1.961 . S
O1118 Li1058 1.956 . S
O1118 Li1059 1.970 . S
O1118 C1088 1.325 . S
O1119 Li1057 1.961 . S
O1119 Li1058 1.970 . S
O1119 Li1059 1.956 . S
O1119 C1094 1.325 . S
H1120 C1062 0.929 . S
H1121 C1063 0.930 . S
H1122 C1064 0.930 . S
H1123 C1065 0.928 1_545 S
H1124 C1067 0.930 . S
H1125 C1069 0.929 . S
H1126 C1070 0.930 . S
H1127 C1071 0.930 . S
H1128 C1074 0.930 . S
H1129 C1077 0.929 . S
H1130 C1082 0.929 . S
H1131 C1083 0.930 . S
H1132 C1090 0.929 . S
H1133 C1091 0.930 . S
H1134 C1092 0.930 . S
H1135 C1093 0.930 1_545 S
H1136 C1095 0.929 . S
H1137 C1096 0.930 . S
H1138 C1097 0.930 . S
H1139 C1098 0.930 . S
H1140 C1102 0.929 . S
H1141 C1104 0.930 . S
H1142 C1110 0.929 . S
H1143 C1111 0.930 . S
Li1144 N1161 1.990 . S
Li1144 O1204 1.956 . S
Li1144 O1205 1.970 . S
Li1144 O1206 1.961 . S
Li1145 N1169 1.990 . S
Li1145 O1204 1.970 . S
Li1145 O1205 1.956 . S
Li1145 O1207 1.961 . S
Li1146 N1191 1.990 . S
Li1146 O1204 1.961 . S
Li1146 O1206 1.956 . S
Li1146 O1207 1.970 . S
Li1147 N1197 1.990 . S
Li1147 O1205 1.961 . S
Li1147 O1206 1.970 . S
Li1147 O1207 1.956 . S
C1148 C1150 1.348 . S
C1148 C1151 1.356 . S
C1148 O1204 1.325 . S
N1149 C1152 1.314 . S
N1149 C1153 1.279 . S
C1150 C1148 1.348 . S
C1150 C1152 1.353 . S
C1150 H1208 0.929 . S
C1151 C1148 1.356 . S
C1151 C1153 1.358 . S
C1151 H1209 0.930 . S
C1152 N1149 1.314 . S
C1152 C1150 1.353 . S
C1152 H1210 0.930 . S
C1153 N1149 1.279 . S
C1153 C1151 1.358 . S
C1153 H1211 0.930 . S
C1154 C1157 1.348 . S
C1154 C1158 1.356 . S
C1154 O1205 1.325 . S
C1155 N1156 1.279 . S
C1155 C1158 1.358 . S
C1155 H1212 0.928 1_455 S
N1156 C1155 1.279 . S
N1156 C1159 1.314 . S
C1157 C1154 1.348 . S
C1157 C1159 1.353 . S
C1157 H1213 0.929 . S
C1158 C1154 1.356 . S
C1158 C1155 1.358 . S
C1158 H1214 0.930 . S
C1159 N1156 1.314 . S
C1159 C1157 1.353 . S
C1159 H1215 0.930 . S
C1160 N1161 1.314 . S
C1160 C1165 1.353 . S
C1160 H1166 0.930 . S
N1161 Li1144 1.990 . S
N1161 C1160 1.314 . S
N1161 C1163 1.279 . S
C1162 C1163 1.358 . S
C1162 C1164 1.356 . S
C1162 H1216 0.930 . S
C1163 N1161 1.279 . S
C1163 C1162 1.358 . S
C1163 H1167 0.930 . S
C1164 C1162 1.356 . S
C1164 C1165 1.348 . S
C1165 C1160 1.353 . S
C1165 C1164 1.348 . S
C1165 H1217 0.929 . S
H1166 C1160 0.930 . S
H1167 C1163 0.930 . S
C1168 N1169 1.314 . S
C1168 C1170 1.353 . S
C1168 H1174 0.930 . S
N1169 Li1145 1.990 . S
N1169 C1168 1.314 . S
N1169 C1172 1.279 . S
C1170 C1168 1.353 . S
C1170 C1173 1.348 . S
C1170 H1218 0.929 . S
C1171 C1172 1.358 . S
C1171 C1173 1.356 . S
C1171 H1219 0.930 . S
C1172 N1169 1.279 . S
C1172 C1171 1.358 . S
C1172 H1175 0.930 . S
C1173 C1170 1.348 . S
C1173 C1171 1.356 . S
H1174 C1168 0.930 . S
H1175 C1172 0.930 . S
C1176 C1178 1.348 . S
C1176 C1179 1.356 . S
C1176 O1206 1.325 . S
N1177 C1180 1.314 . S
N1177 C1181 1.279 . S
C1178 C1176 1.348 . S
C1178 C1180 1.353 . S
C1178 H1220 0.929 . S
C1179 C1176 1.356 . S
C1179 C1181 1.358 . S
C1179 H1221 0.930 . S
C1180 N1177 1.314 . S
C1180 C1178 1.353 . S
C1180 H1222 0.930 . S
C1181 N1177 1.279 . S
C1181 C1179 1.358 . S
C1181 H1223 0.930 . S
C1182 C1183 1.348 . S
C1182 C1184 1.356 . S
C1182 O1207 1.325 . S
C1183 C1182 1.348 . S
C1183 C1185 1.353 . S
C1183 H1224 0.929 . S
C1184 C1182 1.356 . S
C1184 C1186 1.358 . S
C1184 H1225 0.930 . S
C1185 C1183 1.353 . S
C1185 N1187 1.314 . S
C1185 H1226 0.930 . S
C1186 C1184 1.358 . S
C1186 N1187 1.279 . S
C1186 H1227 0.930 1_455 S
N1187 C1185 1.314 . S
N1187 C1186 1.279 . S
C1188 C1190 1.353 . S
C1188 N1191 1.314 . S
C1188 H1194 0.930 . S
C1189 N1191 1.279 . S
C1189 C1192 1.358 . S
C1189 H1195 0.930 . S
C1190 C1188 1.353 . S
C1190 C1193 1.348 . S
C1190 H1228 0.929 . S
N1191 Li1146 1.990 . S
N1191 C1188 1.314 . S
N1191 C1189 1.279 . S
C1192 C1189 1.358 . S
C1192 C1193 1.356 . S
C1192 H1229 0.930 . S
C1193 C1190 1.348 . S
C1193 C1192 1.356 . S
H1194 C1188 0.930 . S
H1195 C1189 0.930 . S
C1196 N1197 1.314 . S
C1196 C1198 1.353 . S
C1196 H1202 0.930 . S
N1197 Li1147 1.990 . S
N1197 C1196 1.314 . S
N1197 C1200 1.279 . S
C1198 C1196 1.353 . S
C1198 C1201 1.348 . S
C1198 H1230 0.929 . S
C1199 C1200 1.358 . S
C1199 C1201 1.356 . S
C1199 H1231 0.930 . S
C1200 N1197 1.279 . S
C1200 C1199 1.358 . S
C1200 H1203 0.930 . S
C1201 C1198 1.348 . S
C1201 C1199 1.356 . S
H1202 C1196 0.930 . S
H1203 C1200 0.930 . S
O1204 Li1144 1.956 . S
O1204 Li1145 1.970 . S
O1204 Li1146 1.961 . S
O1204 C1148 1.325 . S
O1205 Li1144 1.970 . S
O1205 Li1145 1.956 . S
O1205 Li1147 1.961 . S
O1205 C1154 1.325 . S
O1206 Li1144 1.961 . S
O1206 Li1146 1.956 . S
O1206 Li1147 1.970 . S
O1206 C1176 1.325 . S
O1207 Li1145 1.961 . S
O1207 Li1146 1.970 . S
O1207 Li1147 1.956 . S
O1207 C1182 1.325 . S
H1208 C1150 0.929 . S
H1209 C1151 0.930 . S
H1210 C1152 0.930 . S
H1211 C1153 0.930 . S
H1212 C1155 0.928 1_655 S
H1213 C1157 0.929 . S
H1214 C1158 0.930 . S
H1215 C1159 0.930 . S
H1216 C1162 0.930 . S
H1217 C1165 0.929 . S
H1218 C1170 0.929 . S
H1219 C1171 0.930 . S
H1220 C1178 0.929 . S
H1221 C1179 0.930 . S
H1222 C1180 0.930 . S
H1223 C1181 0.930 . S
H1224 C1183 0.929 . S
H1225 C1184 0.930 . S
H1226 C1185 0.930 . S
H1227 C1186 0.930 1_655 S
H1228 C1190 0.929 . S
H1229 C1192 0.930 . S
H1230 C1198 0.929 . S
H1231 C1199 0.930 . S
Li1232 N1249 1.990 . S
Li1232 O1292 1.956 . S
Li1232 O1293 1.970 . S
Li1232 O1294 1.961 . S
Li1233 N1257 1.990 . S
Li1233 O1292 1.970 . S
Li1233 O1293 1.956 . S
Li1233 O1295 1.961 . S
Li1234 N1279 1.990 . S
Li1234 O1292 1.961 . S
Li1234 O1294 1.956 . S
Li1234 O1295 1.970 . S
Li1235 N1285 1.990 . S
Li1235 O1293 1.961 . S
Li1235 O1294 1.970 . S
Li1235 O1295 1.956 . S
C1236 C1238 1.348 . S
C1236 C1239 1.356 . S
C1236 O1292 1.325 . S
N1237 C1240 1.314 . S
N1237 C1241 1.279 . S
C1238 C1236 1.348 . S
C1238 C1240 1.353 . S
C1238 H1296 0.929 . S
C1239 C1236 1.356 . S
C1239 C1241 1.358 . S
C1239 H1297 0.930 . S
C1240 N1237 1.314 . S
C1240 C1238 1.353 . S
C1240 H1298 0.930 . S
C1241 N1237 1.279 . S
C1241 C1239 1.358 . S
C1241 H1299 0.930 . S
C1242 C1245 1.348 . S
C1242 C1246 1.356 . S
C1242 O1293 1.325 . S
C1243 N1244 1.279 . S
C1243 C1246 1.358 . S
C1243 H1300 0.930 . S
N1244 C1243 1.279 . S
N1244 C1247 1.314 . S
C1245 C1242 1.348 . S
C1245 C1247 1.353 . S
C1245 H1301 0.929 . S
C1246 C1242 1.356 . S
C1246 C1243 1.358 . S
C1246 H1302 0.930 . S
C1247 N1244 1.314 . S
C1247 C1245 1.353 . S
C1247 H1303 0.930 . S
C1248 N1249 1.314 . S
C1248 C1253 1.353 . S
C1248 H1254 0.930 . S
N1249 Li1232 1.990 . S
N1249 C1248 1.314 . S
N1249 C1251 1.279 . S
C1250 C1251 1.358 . S
C1250 C1252 1.356 . S
C1250 H1304 0.930 . S
C1251 N1249 1.279 . S
C1251 C1250 1.358 . S
C1251 H1255 0.930 . S
C1252 C1250 1.356 . S
C1252 C1253 1.348 . S
C1253 C1248 1.353 . S
C1253 C1252 1.348 . S
C1253 H1305 0.929 . S
H1254 C1248 0.930 . S
H1255 C1251 0.930 . S
C1256 N1257 1.314 . S
C1256 C1258 1.353 . S
C1256 H1262 0.930 . S
N1257 Li1233 1.990 . S
N1257 C1256 1.314 . S
N1257 C1260 1.279 . S
C1258 C1256 1.353 . S
C1258 C1261 1.348 . S
C1258 H1306 0.929 . S
C1259 C1260 1.358 . S
C1259 C1261 1.356 . S
C1259 H1307 0.930 . S
C1260 N1257 1.279 . S
C1260 C1259 1.358 . S
C1260 H1263 0.930 . S
C1261 C1258 1.348 . S
C1261 C1259 1.356 . S
H1262 C1256 0.930 . S
H1263 C1260 0.930 . S
C1264 C1266 1.348 . S
C1264 C1267 1.356 . S
C1264 O1294 1.325 . S
N1265 C1268 1.314 . S
N1265 C1269 1.279 . S
C1266 C1264 1.348 . S
C1266 C1268 1.353 . S
C1266 H1308 0.929 . S
C1267 C1264 1.356 . S
C1267 C1269 1.358 . S
C1267 H1309 0.930 . S
C1268 N1265 1.314 . S
C1268 C1266 1.353 . S
C1268 H1310 0.930 . S
C1269 N1265 1.279 . S
C1269 C1267 1.358 . S
C1269 H1311 0.930 . S
C1270 C1271 1.348 . S
C1270 C1272 1.356 . S
C1270 O1295 1.325 . S
C1271 C1270 1.348 . S
C1271 C1273 1.353 . S
C1271 H1312 0.929 . S
C1272 C1270 1.356 . S
C1272 C1274 1.358 . S
C1272 H1313 0.930 . S
C1273 C1271 1.353 . S
C1273 N1275 1.314 . S
C1273 H1314 0.930 . S
C1274 C1272 1.358 . S
C1274 N1275 1.279 . S
C1274 H1315 0.930 . S
N1275 C1273 1.314 . S
N1275 C1274 1.279 . S
C1276 C1278 1.353 . S
C1276 N1279 1.314 . S
C1276 H1282 0.930 . S
C1277 N1279 1.279 . S
C1277 C1280 1.358 . S
C1277 H1283 0.930 . S
C1278 C1276 1.353 . S
C1278 C1281 1.348 . S
C1278 H1316 0.929 . S
N1279 Li1234 1.990 . S
N1279 C1276 1.314 . S
N1279 C1277 1.279 . S
C1280 C1277 1.358 . S
C1280 C1281 1.356 . S
C1280 H1317 0.930 . S
C1281 C1278 1.348 . S
C1281 C1280 1.356 . S
H1282 C1276 0.930 . S
H1283 C1277 0.930 . S
C1284 N1285 1.314 . S
C1284 C1286 1.353 . S
C1284 H1290 0.930 . S
N1285 Li1235 1.990 . S
N1285 C1284 1.314 . S
N1285 C1288 1.279 . S
C1286 C1284 1.353 . S
C1286 C1289 1.348 . S
C1286 H1318 0.929 . S
C1287 C1288 1.358 . S
C1287 C1289 1.356 . S
C1287 H1319 0.930 . S
C1288 N1285 1.279 . S
C1288 C1287 1.358 . S
C1288 H1291 0.930 . S
C1289 C1286 1.348 . S
C1289 C1287 1.356 . S
H1290 C1284 0.930 . S
H1291 C1288 0.930 . S
O1292 Li1232 1.956 . S
O1292 Li1233 1.970 . S
O1292 Li1234 1.961 . S
O1292 C1236 1.325 . S
O1293 Li1232 1.970 . S
O1293 Li1233 1.956 . S
O1293 Li1235 1.961 . S
O1293 C1242 1.325 . S
O1294 Li1232 1.961 . S
O1294 Li1234 1.956 . S
O1294 Li1235 1.970 . S
O1294 C1264 1.325 . S
O1295 Li1233 1.961 . S
O1295 Li1234 1.970 . S
O1295 Li1235 1.956 . S
O1295 C1270 1.325 . S
H1296 C1238 0.929 . S
H1297 C1239 0.930 . S
H1298 C1240 0.930 . S
H1299 C1241 0.930 . S
H1300 C1243 0.930 . S
H1301 C1245 0.929 . S
H1302 C1246 0.930 . S
H1303 C1247 0.930 . S
H1304 C1250 0.930 . S
H1305 C1253 0.929 . S
H1306 C1258 0.929 . S
H1307 C1259 0.930 . S
H1308 C1266 0.929 . S
H1309 C1267 0.930 . S
H1310 C1268 0.930 . S
H1311 C1269 0.930 . S
H1312 C1271 0.929 . S
H1313 C1272 0.930 . S
H1314 C1273 0.930 . S
H1315 C1274 0.930 . S
H1316 C1278 0.929 . S
H1317 C1280 0.930 . S
H1318 C1286 0.929 . S
H1319 C1287 0.930 . S
Li1320 N1337 1.990 . S
Li1320 O1380 1.956 . S
Li1320 O1381 1.970 . S
Li1320 O1382 1.961 . S
Li1321 N1345 1.990 . S
Li1321 O1380 1.970 . S
Li1321 O1381 1.956 . S
Li1321 O1383 1.961 . S
Li1322 N1367 1.990 . S
Li1322 O1380 1.961 . S
Li1322 O1382 1.956 . S
Li1322 O1383 1.970 . S
Li1323 N1373 1.990 . S
Li1323 O1381 1.961 . S
Li1323 O1382 1.970 . S
Li1323 O1383 1.956 . S
C1324 C1326 1.348 . S
C1324 C1327 1.356 . S
C1324 O1380 1.325 . S
N1325 C1328 1.314 . S
N1325 C1329 1.279 . S
C1326 C1324 1.348 . S
C1326 C1328 1.353 . S
C1326 H1384 0.929 . S
C1327 C1324 1.356 . S
C1327 C1329 1.358 . S
C1327 H1385 0.930 . S
C1328 N1325 1.314 . S
C1328 C1326 1.353 . S
C1328 H1386 0.930 . S
C1329 N1325 1.279 . S
C1329 C1327 1.358 . S
C1329 H1387 0.930 . S
C1330 C1333 1.348 . S
C1330 C1334 1.356 . S
C1330 O1381 1.325 . S
C1331 N1332 1.279 . S
C1331 C1334 1.358 . S
C1331 H1388 0.930 . S
N1332 C1331 1.279 . S
N1332 C1335 1.314 . S
C1333 C1330 1.348 . S
C1333 C1335 1.353 . S
C1333 H1389 0.929 . S
C1334 C1330 1.356 . S
C1334 C1331 1.358 . S
C1334 H1390 0.930 . S
C1335 N1332 1.314 . S
C1335 C1333 1.353 . S
C1335 H1391 0.930 . S
C1336 N1337 1.314 . S
C1336 C1341 1.353 . S
C1336 H1342 0.930 . S
N1337 Li1320 1.990 . S
N1337 C1336 1.314 . S
N1337 C1339 1.279 . S
C1338 C1339 1.358 . S
C1338 C1340 1.356 . S
C1338 H1392 0.930 . S
C1339 N1337 1.279 . S
C1339 C1338 1.358 . S
C1339 H1343 0.930 . S
C1340 C1338 1.356 . S
C1340 C1341 1.348 . S
C1341 C1336 1.353 . S
C1341 C1340 1.348 . S
C1341 H1393 0.929 . S
H1342 C1336 0.930 . S
H1343 C1339 0.930 . S
C1344 N1345 1.314 . S
C1344 C1346 1.353 . S
C1344 H1350 0.930 . S
N1345 Li1321 1.990 . S
N1345 C1344 1.314 . S
N1345 C1348 1.279 . S
C1346 C1344 1.353 . S
C1346 C1349 1.348 . S
C1346 H1394 0.929 . S
C1347 C1348 1.358 . S
C1347 C1349 1.356 . S
C1347 H1395 0.930 . S
C1348 N1345 1.279 . S
C1348 C1347 1.358 . S
C1348 H1351 0.930 . S
C1349 C1346 1.348 . S
C1349 C1347 1.356 . S
H1350 C1344 0.930 . S
H1351 C1348 0.930 . S
C1352 C1354 1.348 . S
C1352 C1355 1.356 . S
C1352 O1382 1.325 . S
N1353 C1356 1.314 . S
N1353 C1357 1.279 . S
C1354 C1352 1.348 . S
C1354 C1356 1.353 . S
C1354 H1396 0.929 . S
C1355 C1352 1.356 . S
C1355 C1357 1.358 . S
C1355 H1397 0.930 . S
C1356 N1353 1.314 . S
C1356 C1354 1.353 . S
C1356 H1398 0.930 . S
C1357 N1353 1.279 . S
C1357 C1355 1.358 . S
C1357 H1399 0.930 . S
C1358 C1359 1.348 . S
C1358 C1360 1.356 . S
C1358 O1383 1.325 . S
C1359 C1358 1.348 . S
C1359 C1361 1.353 . S
C1359 H1400 0.929 . S
C1360 C1358 1.356 . S
C1360 C1362 1.358 . S
C1360 H1401 0.930 . S
C1361 C1359 1.353 . S
C1361 N1363 1.314 . S
C1361 H1402 0.930 . S
C1362 C1360 1.358 . S
C1362 N1363 1.279 . S
C1362 H1403 0.930 . S
N1363 C1361 1.314 . S
N1363 C1362 1.279 . S
C1364 C1366 1.353 . S
C1364 N1367 1.314 . S
C1364 H1370 0.930 . S
C1365 N1367 1.279 . S
C1365 C1368 1.358 . S
C1365 H1371 0.930 . S
C1366 C1364 1.353 . S
C1366 C1369 1.348 . S
C1366 H1404 0.929 . S
N1367 Li1322 1.990 . S
N1367 C1364 1.314 . S
N1367 C1365 1.279 . S
C1368 C1365 1.358 . S
C1368 C1369 1.356 . S
C1368 H1405 0.930 . S
C1369 C1366 1.348 . S
C1369 C1368 1.356 . S
H1370 C1364 0.930 . S
H1371 C1365 0.930 . S
C1372 N1373 1.314 . S
C1372 C1374 1.353 . S
C1372 H1378 0.930 . S
N1373 Li1323 1.990 . S
N1373 C1372 1.314 . S
N1373 C1376 1.279 . S
C1374 C1372 1.353 . S
C1374 C1377 1.348 . S
C1374 H1406 0.929 . S
C1375 C1376 1.358 . S
C1375 C1377 1.356 . S
C1375 H1407 0.930 . S
C1376 N1373 1.279 . S
C1376 C1375 1.358 . S
C1376 H1379 0.930 . S
C1377 C1374 1.348 . S
C1377 C1375 1.356 . S
H1378 C1372 0.930 . S
H1379 C1376 0.930 . S
O1380 Li1320 1.956 . S
O1380 Li1321 1.970 . S
O1380 Li1322 1.961 . S
O1380 C1324 1.325 . S
O1381 Li1320 1.970 . S
O1381 Li1321 1.956 . S
O1381 Li1323 1.961 . S
O1381 C1330 1.325 . S
O1382 Li1320 1.961 . S
O1382 Li1322 1.956 . S
O1382 Li1323 1.970 . S
O1382 C1352 1.325 . S
O1383 Li1321 1.961 . S
O1383 Li1322 1.970 . S
O1383 Li1323 1.956 . S
O1383 C1358 1.325 . S
H1384 C1326 0.929 . S
H1385 C1327 0.930 . S
H1386 C1328 0.930 . S
H1387 C1329 0.930 . S
H1388 C1331 0.930 . S
H1389 C1333 0.929 . S
H1390 C1334 0.930 . S
H1391 C1335 0.930 . S
H1392 C1338 0.930 . S
H1393 C1341 0.929 . S
H1394 C1346 0.929 . S
H1395 C1347 0.930 . S
H1396 C1354 0.929 . S
H1397 C1355 0.930 . S
H1398 C1356 0.930 . S
H1399 C1357 0.930 . S
H1400 C1359 0.929 . S
H1401 C1360 0.930 . S
H1402 C1361 0.930 . S
H1403 C1362 0.930 . S
H1404 C1366 0.929 . S
H1405 C1368 0.930 . S
H1406 C1374 0.929 . S
H1407 C1375 0.930 . S
C1408 C1409 1.363 . S
C1408 C1414 1.379 . S
C1408 N1416 1.356 . S
C1409 C1408 1.363 . S
C1409 C1415 1.363 . S
C1410 C1411 1.363 . S
C1410 C1415 1.379 . S
C1410 N1417 1.356 . S
C1411 C1410 1.363 . S
C1411 C1414 1.363 . S
N1412 C1414 1.356 . S
N1412 H1424 0.984 . S
N1412 H1425 0.985 . S
N1413 C1415 1.356 . S
N1413 H1418 0.984 . S
N1413 H1419 0.985 . S
C1414 C1408 1.379 . S
C1414 C1411 1.363 . S
C1414 N1412 1.356 . S
C1415 C1409 1.363 . S
C1415 C1410 1.379 . S
C1415 N1413 1.356 . S
N1416 C1408 1.356 . S
N1416 H1422 0.984 . S
N1416 H1423 0.984 . S
N1417 C1410 1.356 . S
N1417 H1420 0.984 . S
N1417 H1421 0.985 . S
H1418 N1413 0.984 . S
H1419 N1413 0.985 . S
H1420 N1417 0.984 . S
H1421 N1417 0.985 . S
H1422 N1416 0.984 . S
H1423 N1416 0.984 . S
H1424 N1412 0.984 . S
H1425 N1412 0.985 . S
C1426 C1427 1.363 . S
C1426 C1432 1.379 . S
C1426 N1434 1.356 . S
C1427 C1426 1.363 . S
C1427 C1433 1.363 . S
C1428 C1429 1.363 . S
C1428 C1433 1.379 . S
C1428 N1435 1.356 . S
C1429 C1428 1.363 . S
C1429 C1432 1.363 . S
N1430 C1432 1.356 . S
N1430 H1442 0.984 . S
N1430 H1443 0.985 . S
N1431 C1433 1.356 . S
N1431 H1436 0.984 . S
N1431 H1437 0.985 . S
C1432 C1426 1.379 . S
C1432 C1429 1.363 . S
C1432 N1430 1.356 . S
C1433 C1427 1.363 . S
C1433 C1428 1.379 . S
C1433 N1431 1.356 . S
N1434 C1426 1.356 . S
N1434 H1440 0.984 . S
N1434 H1441 0.984 . S
N1435 C1428 1.356 . S
N1435 H1438 0.984 . S
N1435 H1439 0.985 . S
H1436 N1431 0.984 . S
H1437 N1431 0.985 . S
H1438 N1435 0.984 . S
H1439 N1435 0.985 . S
H1440 N1434 0.984 . S
H1441 N1434 0.984 . S
H1442 N1430 0.984 . S
H1443 N1430 0.985 . S
C1444 C1445 1.363 . S
C1444 C1450 1.379 . S
C1444 N1452 1.356 . S
C1445 C1444 1.363 . S
C1445 C1451 1.363 . S
C1446 C1447 1.363 . S
C1446 C1451 1.379 . S
C1446 N1453 1.356 . S
C1447 C1446 1.363 . S
C1447 C1450 1.363 . S
N1448 C1450 1.356 . S
N1448 H1460 0.984 . S
N1448 H1461 0.985 . S
N1449 C1451 1.356 . S
N1449 H1454 0.984 . S
N1449 H1455 0.985 . S
C1450 C1444 1.379 . S
C1450 C1447 1.363 . S
C1450 N1448 1.356 . S
C1451 C1445 1.363 . S
C1451 C1446 1.379 . S
C1451 N1449 1.356 . S
N1452 C1444 1.356 . S
N1452 H1458 0.984 . S
N1452 H1459 0.984 . S
N1453 C1446 1.356 . S
N1453 H1456 0.984 . S
N1453 H1457 0.985 . S
H1454 N1449 0.984 . S
H1455 N1449 0.985 . S
H1456 N1453 0.984 . S
H1457 N1453 0.985 . S
H1458 N1452 0.984 . S
H1459 N1452 0.984 . S
H1460 N1448 0.984 . S
H1461 N1448 0.985 . S
C1462 C1463 1.363 . S
C1462 C1468 1.379 . S
C1462 N1470 1.356 . S
C1463 C1462 1.363 . S
C1463 C1469 1.363 . S
C1464 C1465 1.363 . S
C1464 C1469 1.379 . S
C1464 N1471 1.356 . S
C1465 C1464 1.363 . S
C1465 C1468 1.363 . S
N1466 C1468 1.356 . S
N1466 H1478 0.984 . S
N1466 H1479 0.985 . S
N1467 C1469 1.356 . S
N1467 H1472 0.984 . S
N1467 H1473 0.985 . S
C1468 C1462 1.379 . S
C1468 C1465 1.363 . S
C1468 N1466 1.356 . S
C1469 C1463 1.363 . S
C1469 C1464 1.379 . S
C1469 N1467 1.356 . S
N1470 C1462 1.356 . S
N1470 H1476 0.984 . S
N1470 H1477 0.984 . S
N1471 C1464 1.356 . S
N1471 H1474 0.984 . S
N1471 H1475 0.985 . S
H1472 N1467 0.984 . S
H1473 N1467 0.985 . S
H1474 N1471 0.984 . S
H1475 N1471 0.985 . S
H1476 N1470 0.984 . S
H1477 N1470 0.984 . S
H1478 N1466 0.984 . S
H1479 N1466 0.985 . S
C1480 C1481 1.363 . S
C1480 C1486 1.379 . S
C1480 N1488 1.356 . S
C1481 C1480 1.363 . S
C1481 C1487 1.363 . S
C1482 C1483 1.363 . S
C1482 C1487 1.379 . S
C1482 N1489 1.356 . S
C1483 C1482 1.363 . S
C1483 C1486 1.363 . S
N1484 C1486 1.356 . S
N1484 H1496 0.984 . S
N1484 H1497 0.985 . S
N1485 C1487 1.356 . S
N1485 H1490 0.984 . S
N1485 H1491 0.985 . S
C1486 C1480 1.379 . S
C1486 C1483 1.363 . S
C1486 N1484 1.356 . S
C1487 C1481 1.363 . S
C1487 C1482 1.379 . S
C1487 N1485 1.356 . S
N1488 C1480 1.356 . S
N1488 H1494 0.984 . S
N1488 H1495 0.984 . S
N1489 C1482 1.356 . S
N1489 H1492 0.984 . S
N1489 H1493 0.985 . S
H1490 N1485 0.984 . S
H1491 N1485 0.985 . S
H1492 N1489 0.984 . S
H1493 N1489 0.985 . S
H1494 N1488 0.984 . S
H1495 N1488 0.984 . S
H1496 N1484 0.984 . S
H1497 N1484 0.985 . S
C1498 C1499 1.363 . S
C1498 C1504 1.379 . S
C1498 N1506 1.356 . S
C1499 C1498 1.363 . S
C1499 C1505 1.363 . S
C1500 C1501 1.363 . S
C1500 C1505 1.379 . S
C1500 N1507 1.356 . S
C1501 C1500 1.363 . S
C1501 C1504 1.363 . S
N1502 C1504 1.356 . S
N1502 H1514 0.984 . S
N1502 H1515 0.985 . S
N1503 C1505 1.356 . S
N1503 H1508 0.984 . S
N1503 H1509 0.985 . S
C1504 C1498 1.379 . S
C1504 C1501 1.363 . S
C1504 N1502 1.356 . S
C1505 C1499 1.363 . S
C1505 C1500 1.379 . S
C1505 N1503 1.356 . S
N1506 C1498 1.356 . S
N1506 H1512 0.984 . S
N1506 H1513 0.984 . S
N1507 C1500 1.356 . S
N1507 H1510 0.984 . S
N1507 H1511 0.985 . S
H1508 N1503 0.984 . S
H1509 N1503 0.985 . S
H1510 N1507 0.984 . S
H1511 N1507 0.985 . S
H1512 N1506 0.984 . S
H1513 N1506 0.984 . S
H1514 N1502 0.984 . S
H1515 N1502 0.985 . S
C1516 C1517 1.363 . S
C1516 C1522 1.379 . S
C1516 N1524 1.356 . S
C1517 C1516 1.363 . S
C1517 C1523 1.363 . S
C1518 C1519 1.363 . S
C1518 C1523 1.379 . S
C1518 N1525 1.356 . S
C1519 C1518 1.363 . S
C1519 C1522 1.363 . S
N1520 C1522 1.356 . S
N1520 H1532 0.984 . S
N1520 H1533 0.985 . S
N1521 C1523 1.356 . S
N1521 H1526 0.984 . S
N1521 H1527 0.985 . S
C1522 C1516 1.379 . S
C1522 C1519 1.363 . S
C1522 N1520 1.356 . S
C1523 C1517 1.363 . S
C1523 C1518 1.379 . S
C1523 N1521 1.356 . S
N1524 C1516 1.356 . S
N1524 H1530 0.984 . S
N1524 H1531 0.984 . S
N1525 C1518 1.356 . S
N1525 H1528 0.984 . S
N1525 H1529 0.985 . S
H1526 N1521 0.984 . S
H1527 N1521 0.985 . S
H1528 N1525 0.984 . S
H1529 N1525 0.985 . S
H1530 N1524 0.984 . S
H1531 N1524 0.984 . S
H1532 N1520 0.984 . S
H1533 N1520 0.985 . S
C1534 C1535 1.363 . S
C1534 C1540 1.379 . S
C1534 N1542 1.356 . S
C1535 C1534 1.363 . S
C1535 C1541 1.363 . S
C1536 C1537 1.363 . S
C1536 C1541 1.379 . S
C1536 N1543 1.356 . S
C1537 C1536 1.363 . S
C1537 C1540 1.363 . S
N1538 C1540 1.356 . S
N1538 H1550 0.984 . S
N1538 H1551 0.985 . S
N1539 C1541 1.356 . S
N1539 H1544 0.984 . S
N1539 H1545 0.985 . S
C1540 C1534 1.379 . S
C1540 C1537 1.363 . S
C1540 N1538 1.356 . S
C1541 C1535 1.363 . S
C1541 C1536 1.379 . S
C1541 N1539 1.356 . S
N1542 C1534 1.356 . S
N1542 H1548 0.984 . S
N1542 H1549 0.984 . S
N1543 C1536 1.356 . S
N1543 H1546 0.984 . S
N1543 H1547 0.985 . S
H1544 N1539 0.984 . S
H1545 N1539 0.985 . S
H1546 N1543 0.984 . S
H1547 N1543 0.985 . S
H1548 N1542 0.984 . S
H1549 N1542 0.984 . S
H1550 N1538 0.984 . S
H1551 N1538 0.985 . S
C1552 C1553 1.363 . S
C1552 C1558 1.379 . S
C1552 N1560 1.356 . S
C1553 C1552 1.363 . S
C1553 C1559 1.363 . S
C1554 C1555 1.363 . S
C1554 C1559 1.379 . S
C1554 N1561 1.356 . S
C1555 C1554 1.363 . S
C1555 C1558 1.363 . S
N1556 C1558 1.356 . S
N1556 H1568 0.984 . S
N1556 H1569 0.985 . S
N1557 C1559 1.356 . S
N1557 H1562 0.984 . S
N1557 H1563 0.985 . S
C1558 C1552 1.379 . S
C1558 C1555 1.363 . S
C1558 N1556 1.356 . S
C1559 C1553 1.363 . S
C1559 C1554 1.379 . S
C1559 N1557 1.356 . S
N1560 C1552 1.356 . S
N1560 H1566 0.984 . S
N1560 H1567 0.984 . S
N1561 C1554 1.356 . S
N1561 H1564 0.984 . S
N1561 H1565 0.985 . S
H1562 N1557 0.984 . S
H1563 N1557 0.985 . S
H1564 N1561 0.984 . S
H1565 N1561 0.985 . S
H1566 N1560 0.984 . S
H1567 N1560 0.984 . S
H1568 N1556 0.984 . S
H1569 N1556 0.985 . S
C1570 C1571 1.363 . S
C1570 C1576 1.379 . S
C1570 N1578 1.356 . S
C1571 C1570 1.363 . S
C1571 C1577 1.363 . S
C1572 C1573 1.363 . S
C1572 C1577 1.379 . S
C1572 N1579 1.356 . S
C1573 C1572 1.363 . S
C1573 C1576 1.363 . S
N1574 C1576 1.356 . S
N1574 H1586 0.984 . S
N1574 H1587 0.985 . S
N1575 C1577 1.356 . S
N1575 H1580 0.984 . S
N1575 H1581 0.985 . S
C1576 C1570 1.379 . S
C1576 C1573 1.363 . S
C1576 N1574 1.356 . S
C1577 C1571 1.363 . S
C1577 C1572 1.379 . S
C1577 N1575 1.356 . S
N1578 C1570 1.356 . S
N1578 H1584 0.984 . S
N1578 H1585 0.984 . S
N1579 C1572 1.356 . S
N1579 H1582 0.984 . S
N1579 H1583 0.985 . S
H1580 N1575 0.984 . S
H1581 N1575 0.985 . S
H1582 N1579 0.984 . S
H1583 N1579 0.985 . S
H1584 N1578 0.984 . S
H1585 N1578 0.984 . S
H1586 N1574 0.984 . S
H1587 N1574 0.985 . S
C1588 C1589 1.363 . S
C1588 C1594 1.379 . S
C1588 N1596 1.356 . S
C1589 C1588 1.363 . S
C1589 C1595 1.363 . S
C1590 C1591 1.363 . S
C1590 C1595 1.379 . S
C1590 N1597 1.356 . S
C1591 C1590 1.363 . S
C1591 C1594 1.363 . S
N1592 C1594 1.356 . S
N1592 H1604 0.984 . S
N1592 H1605 0.985 . S
N1593 C1595 1.356 . S
N1593 H1598 0.984 . S
N1593 H1599 0.985 . S
C1594 C1588 1.379 . S
C1594 C1591 1.363 . S
C1594 N1592 1.356 . S
C1595 C1589 1.363 . S
C1595 C1590 1.379 . S
C1595 N1593 1.356 . S
N1596 C1588 1.356 . S
N1596 H1602 0.984 . S
N1596 H1603 0.984 . S
N1597 C1590 1.356 . S
N1597 H1600 0.984 . S
N1597 H1601 0.985 . S
H1598 N1593 0.984 . S
H1599 N1593 0.985 . S
H1600 N1597 0.984 . S
H1601 N1597 0.985 . S
H1602 N1596 0.984 . S
H1603 N1596 0.984 . S
H1604 N1592 0.984 . S
H1605 N1592 0.985 . S
C1606 C1607 1.363 . S
C1606 C1612 1.379 1_554 S
C1606 N1614 1.356 . S
C1607 C1606 1.363 . S
C1607 C1613 1.363 . S
C1608 C1609 1.363 . S
C1608 C1613 1.379 1_556 S
C1608 N1615 1.356 . S
C1609 C1608 1.363 . S
C1609 C1612 1.363 . S
N1610 C1612 1.356 . S
N1610 H1622 0.984 . S
N1610 H1623 0.985 . S
N1611 C1613 1.356 . S
N1611 H1616 0.984 . S
N1611 H1617 0.985 . S
C1612 C1606 1.379 1_556 S
C1612 C1609 1.363 . S
C1612 N1610 1.356 . S
C1613 C1607 1.363 . S
C1613 C1608 1.379 1_554 S
C1613 N1611 1.356 . S
N1614 C1606 1.356 . S
N1614 H1620 0.984 . S
N1614 H1621 0.984 . S
N1615 C1608 1.356 . S
N1615 H1618 0.984 . S
N1615 H1619 0.985 . S
H1616 N1611 0.984 . S
H1617 N1611 0.985 . S
H1618 N1615 0.984 . S
H1619 N1615 0.985 . S
H1620 N1614 0.984 . S
H1621 N1614 0.984 . S
H1622 N1610 0.984 . S
H1623 N1610 0.985 . S
C1624 C1625 1.363 . S
C1624 C1630 1.379 1_554 S
C1624 N1632 1.356 . S
C1625 C1624 1.363 . S
C1625 C1631 1.363 . S
C1626 C1627 1.363 . S
C1626 C1631 1.379 1_556 S
C1626 N1633 1.356 . S
C1627 C1626 1.363 . S
C1627 C1630 1.363 . S
N1628 C1630 1.356 . S
N1628 H1640 0.984 . S
N1628 H1641 0.985 . S
N1629 C1631 1.356 . S
N1629 H1634 0.984 . S
N1629 H1635 0.985 . S
C1630 C1624 1.379 1_556 S
C1630 C1627 1.363 . S
C1630 N1628 1.356 . S
C1631 C1625 1.363 . S
C1631 C1626 1.379 1_554 S
C1631 N1629 1.356 . S
N1632 C1624 1.356 . S
N1632 H1638 0.984 . S
N1632 H1639 0.984 . S
N1633 C1626 1.356 . S
N1633 H1636 0.984 . S
N1633 H1637 0.985 . S
H1634 N1629 0.984 . S
H1635 N1629 0.985 . S
H1636 N1633 0.984 . S
H1637 N1633 0.985 . S
H1638 N1632 0.984 . S
H1639 N1632 0.984 . S
H1640 N1628 0.984 . S
H1641 N1628 0.985 . S
C1642 C1643 1.363 . S
C1642 C1648 1.379 . S
C1642 N1650 1.356 . S
C1643 C1642 1.363 . S
C1643 C1649 1.363 . S
C1644 C1645 1.363 . S
C1644 C1649 1.379 . S
C1644 N1651 1.356 . S
C1645 C1644 1.363 . S
C1645 C1648 1.363 . S
N1646 C1648 1.356 . S
N1646 H1658 0.984 . S
N1646 H1659 0.985 . S
N1647 C1649 1.356 . S
N1647 H1652 0.984 . S
N1647 H1653 0.985 . S
C1648 C1642 1.379 . S
C1648 C1645 1.363 . S
C1648 N1646 1.356 . S
C1649 C1643 1.363 . S
C1649 C1644 1.379 . S
C1649 N1647 1.356 . S
N1650 C1642 1.356 . S
N1650 H1656 0.984 . S
N1650 H1657 0.984 . S
N1651 C1644 1.356 . S
N1651 H1654 0.984 . S
N1651 H1655 0.985 . S
H1652 N1647 0.984 . S
H1653 N1647 0.985 . S
H1654 N1651 0.984 . S
H1655 N1651 0.985 . S
H1656 N1650 0.984 . S
H1657 N1650 0.984 . S
H1658 N1646 0.984 . S
H1659 N1646 0.985 . S
C1660 C1661 1.363 . S
C1660 C1666 1.379 . S
C1660 N1668 1.356 . S
C1661 C1660 1.363 . S
C1661 C1667 1.363 . S
C1662 C1663 1.363 . S
C1662 C1667 1.379 . S
C1662 N1669 1.356 . S
C1663 C1662 1.363 . S
C1663 C1666 1.363 . S
N1664 C1666 1.356 . S
N1664 H1676 0.984 . S
N1664 H1677 0.985 . S
N1665 C1667 1.356 . S
N1665 H1670 0.984 . S
N1665 H1671 0.985 . S
C1666 C1660 1.379 . S
C1666 C1663 1.363 . S
C1666 N1664 1.356 . S
C1667 C1661 1.363 . S
C1667 C1662 1.379 . S
C1667 N1665 1.356 . S
N1668 C1660 1.356 . S
N1668 H1674 0.984 . S
N1668 H1675 0.984 . S
N1669 C1662 1.356 . S
N1669 H1672 0.984 . S
N1669 H1673 0.985 . S
H1670 N1665 0.984 . S
H1671 N1665 0.985 . S
H1672 N1669 0.984 . S
H1673 N1669 0.985 . S
H1674 N1668 0.984 . S
H1675 N1668 0.984 . S
H1676 N1664 0.984 . S
H1677 N1664 0.985 . S
C1678 C1679 1.363 . S
C1678 C1684 1.379 . S
C1678 N1686 1.356 . S
C1679 C1678 1.363 . S
C1679 C1685 1.363 . S
C1680 C1681 1.363 . S
C1680 C1685 1.379 . S
C1680 N1687 1.356 . S
C1681 C1680 1.363 . S
C1681 C1684 1.363 . S
N1682 C1684 1.356 . S
N1682 H1694 0.984 . S
N1682 H1695 0.985 . S
N1683 C1685 1.356 . S
N1683 H1688 0.984 . S
N1683 H1689 0.985 . S
C1684 C1678 1.379 . S
C1684 C1681 1.363 . S
C1684 N1682 1.356 . S
C1685 C1679 1.363 . S
C1685 C1680 1.379 . S
C1685 N1683 1.356 . S
N1686 C1678 1.356 . S
N1686 H1692 0.984 . S
N1686 H1693 0.984 . S
N1687 C1680 1.356 . S
N1687 H1690 0.984 . S
N1687 H1691 0.985 . S
H1688 N1683 0.984 . S
H1689 N1683 0.985 . S
H1690 N1687 0.984 . S
H1691 N1687 0.985 . S
H1692 N1686 0.984 . S
H1693 N1686 0.984 . S
H1694 N1682 0.984 . S
H1695 N1682 0.985 . S
C1696 C1697 1.363 . S
C1696 C1702 1.379 1_455 S
C1696 N1704 1.356 . S
C1697 C1696 1.363 . S
C1697 C1703 1.363 1_545 S
C1698 C1699 1.363 . S
C1698 C1703 1.379 1_655 S
C1698 N1705 1.356 . S
C1699 C1698 1.363 . S
C1699 C1702 1.363 1_565 S
N1700 C1702 1.356 . S
N1700 H1712 0.984 . S
N1700 H1713 0.985 . S
N1701 C1703 1.356 . S
N1701 H1706 0.984 . S
N1701 H1707 0.985 . S
C1702 C1696 1.379 1_655 S
C1702 C1699 1.363 1_545 S
C1702 N1700 1.356 . S
C1703 C1697 1.363 1_565 S
C1703 C1698 1.379 1_455 S
C1703 N1701 1.356 . S
N1704 C1696 1.356 . S
N1704 H1710 0.984 . S
N1704 H1711 0.984 . S
N1705 C1698 1.356 . S
N1705 H1708 0.984 . S
N1705 H1709 0.985 . S
H1706 N1701 0.984 . S
H1707 N1701 0.985 . S
H1708 N1705 0.984 . S
H1709 N1705 0.985 . S
H1710 N1704 0.984 . S
H1711 N1704 0.984 . S
H1712 N1700 0.984 . S
H1713 N1700 0.985 . S
C1714 C1715 1.363 1_655 S
C1714 C1720 1.379 . S
C1714 N1722 1.356 . S
C1715 C1714 1.363 1_455 S
C1715 C1721 1.363 . S
C1716 C1717 1.363 1_455 S
C1716 C1721 1.379 . S
C1716 N1723 1.356 . S
C1717 C1716 1.363 1_655 S
C1717 C1720 1.363 . S
N1718 C1720 1.356 . S
N1718 H1730 0.984 . S
N1718 H1731 0.985 . S
N1719 C1721 1.356 . S
N1719 H1724 0.984 . S
N1719 H1725 0.985 . S
C1720 C1714 1.379 . S
C1720 C1717 1.363 . S
C1720 N1718 1.356 . S
C1721 C1715 1.363 . S
C1721 C1716 1.379 . S
C1721 N1719 1.356 . S
N1722 C1714 1.356 . S
N1722 H1728 0.984 . S
N1722 H1729 0.984 . S
N1723 C1716 1.356 . S
N1723 H1726 0.984 . S
N1723 H1727 0.985 . S
H1724 N1719 0.984 . S
H1725 N1719 0.985 . S
H1726 N1723 0.984 . S
H1727 N1723 0.985 . S
H1728 N1722 0.984 . S
H1729 N1722 0.984 . S
H1730 N1718 0.984 . S
H1731 N1718 0.985 . S
C1732 C1733 1.363 . S
C1732 C1738 1.379 . S
C1732 N1740 1.356 . S
C1733 C1732 1.363 . S
C1733 C1739 1.363 . S
C1734 C1735 1.363 . S
C1734 C1739 1.379 . S
C1734 N1741 1.356 . S
C1735 C1734 1.363 . S
C1735 C1738 1.363 . S
N1736 C1738 1.356 . S
N1736 H1748 0.984 . S
N1736 H1749 0.985 . S
N1737 C1739 1.356 . S
N1737 H1742 0.984 . S
N1737 H1743 0.985 . S
C1738 C1732 1.379 . S
C1738 C1735 1.363 . S
C1738 N1736 1.356 . S
C1739 C1733 1.363 . S
C1739 C1734 1.379 . S
C1739 N1737 1.356 . S
N1740 C1732 1.356 . S
N1740 H1746 0.984 . S
N1740 H1747 0.984 . S
N1741 C1734 1.356 . S
N1741 H1744 0.984 . S
N1741 H1745 0.985 . S
H1742 N1737 0.984 . S
H1743 N1737 0.985 . S
H1744 N1741 0.984 . S
H1745 N1741 0.985 . S
H1746 N1740 0.984 . S
H1747 N1740 0.984 . S
H1748 N1736 0.984 . S
H1749 N1736 0.985 . S
C1750 C1751 1.363 . S
C1750 C1756 1.379 1_545 S
C1750 N1758 1.356 . S
C1751 C1750 1.363 . S
C1751 C1757 1.363 . S
C1752 C1753 1.363 . S
C1752 C1757 1.379 1_565 S
C1752 N1759 1.356 . S
C1753 C1752 1.363 . S
C1753 C1756 1.363 . S
N1754 C1756 1.356 . S
N1754 H1766 0.984 . S
N1754 H1767 0.985 . S
N1755 C1757 1.356 . S
N1755 H1760 0.984 . S
N1755 H1761 0.985 . S
C1756 C1750 1.379 1_565 S
C1756 C1753 1.363 . S
C1756 N1754 1.356 . S
C1757 C1751 1.363 . S
C1757 C1752 1.379 1_545 S
C1757 N1755 1.356 . S
N1758 C1750 1.356 . S
N1758 H1764 0.984 . S
N1758 H1765 0.984 . S
N1759 C1752 1.356 . S
N1759 H1762 0.984 . S
N1759 H1763 0.985 . S
H1760 N1755 0.984 . S
H1761 N1755 0.985 . S
H1762 N1759 0.984 . S
H1763 N1759 0.985 . S
H1764 N1758 0.984 . S
H1765 N1758 0.984 . S
H1766 N1754 0.984 . S
H1767 N1754 0.985 . S
C1768 C1769 1.363 . S
C1768 C1774 1.379 1_455 S
C1768 N1776 1.356 . S
C1769 C1768 1.363 . S
C1769 C1775 1.363 . S
C1770 C1771 1.363 . S
C1770 C1775 1.379 1_655 S
C1770 N1777 1.356 . S
C1771 C1770 1.363 . S
C1771 C1774 1.363 . S
N1772 C1774 1.356 . S
N1772 H1784 0.984 . S
N1772 H1785 0.985 . S
N1773 C1775 1.356 . S
N1773 H1778 0.984 . S
N1773 H1779 0.985 . S
C1774 C1768 1.379 1_655 S
C1774 C1771 1.363 . S
C1774 N1772 1.356 . S
C1775 C1769 1.363 . S
C1775 C1770 1.379 1_455 S
C1775 N1773 1.356 . S
N1776 C1768 1.356 . S
N1776 H1782 0.984 . S
N1776 H1783 0.984 . S
N1777 C1770 1.356 . S
N1777 H1780 0.984 . S
N1777 H1781 0.985 . S
H1778 N1773 0.984 . S
H1779 N1773 0.985 . S
H1780 N1777 0.984 . S
H1781 N1777 0.985 . S
H1782 N1776 0.984 . S
H1783 N1776 0.984 . S
H1784 N1772 0.984 . S
H1785 N1772 0.985 . S
C1786 C1787 1.363 . S
C1786 C1792 1.379 . S
C1786 N1794 1.356 . S
C1787 C1786 1.363 . S
C1787 C1793 1.363 . S
C1788 C1789 1.363 . S
C1788 C1793 1.379 . S
C1788 N1795 1.356 . S
C1789 C1788 1.363 . S
C1789 C1792 1.363 . S
N1790 C1792 1.356 . S
N1790 H1802 0.984 . S
N1790 H1803 0.985 . S
N1791 C1793 1.356 . S
N1791 H1796 0.984 . S
N1791 H1797 0.985 . S
C1792 C1786 1.379 . S
C1792 C1789 1.363 . S
C1792 N1790 1.356 . S
C1793 C1787 1.363 . S
C1793 C1788 1.379 . S
C1793 N1791 1.356 . S
N1794 C1786 1.356 . S
N1794 H1800 0.984 . S
N1794 H1801 0.984 . S
N1795 C1788 1.356 . S
N1795 H1798 0.984 . S
N1795 H1799 0.985 . S
H1796 N1791 0.984 . S
H1797 N1791 0.985 . S
H1798 N1795 0.984 . S
H1799 N1795 0.985 . S
H1800 N1794 0.984 . S
H1801 N1794 0.984 . S
H1802 N1790 0.984 . S
H1803 N1790 0.985 . S
C1804 C1805 1.363 . S
C1804 C1810 1.379 . S
C1804 N1812 1.356 . S
C1805 C1804 1.363 . S
C1805 C1811 1.363 1_565 S
C1806 C1807 1.363 . S
C1806 C1811 1.379 . S
C1806 N1813 1.356 . S
C1807 C1806 1.363 . S
C1807 C1810 1.363 1_545 S
N1808 C1810 1.356 . S
N1808 H1820 0.984 . S
N1808 H1821 0.985 . S
N1809 C1811 1.356 . S
N1809 H1814 0.984 . S
N1809 H1815 0.985 . S
C1810 C1804 1.379 . S
C1810 C1807 1.363 1_565 S
C1810 N1808 1.356 . S
C1811 C1805 1.363 1_545 S
C1811 C1806 1.379 . S
C1811 N1809 1.356 . S
N1812 C1804 1.356 . S
N1812 H1818 0.984 . S
N1812 H1819 0.984 . S
N1813 C1806 1.356 . S
N1813 H1816 0.984 . S
N1813 H1817 0.985 . S
H1814 N1809 0.984 . S
H1815 N1809 0.985 . S
H1816 N1813 0.984 . S
H1817 N1813 0.985 . S
H1818 N1812 0.984 . S
H1819 N1812 0.984 . S
H1820 N1808 0.984 . S
H1821 N1808 0.985 . S
C1822 C1823 1.363 . S
C1822 C1828 1.379 1_545 S
C1822 N1830 1.356 . S
C1823 C1822 1.363 . S
C1823 C1829 1.363 1_455 S
C1824 C1825 1.363 . S
C1824 C1829 1.379 1_565 S
C1824 N1831 1.356 . S
C1825 C1824 1.363 . S
C1825 C1828 1.363 1_655 S
N1826 C1828 1.356 . S
N1826 H1838 0.984 . S
N1826 H1839 0.985 . S
N1827 C1829 1.356 . S
N1827 H1832 0.984 . S
N1827 H1833 0.985 . S
C1828 C1822 1.379 1_565 S
C1828 C1825 1.363 1_455 S
C1828 N1826 1.356 . S
C1829 C1823 1.363 1_655 S
C1829 C1824 1.379 1_545 S
C1829 N1827 1.356 . S
N1830 C1822 1.356 . S
N1830 H1836 0.984 . S
N1830 H1837 0.984 . S
N1831 C1824 1.356 . S
N1831 H1834 0.984 . S
N1831 H1835 0.985 . S
H1832 N1827 0.984 . S
H1833 N1827 0.985 . S
H1834 N1831 0.984 . S
H1835 N1831 0.985 . S
H1836 N1830 0.984 . S
H1837 N1830 0.984 . S
H1838 N1826 0.984 . S
H1839 N1826 0.985 . S
C1840 C1841 1.363 1_545 S
C1840 C1846 1.379 . S
C1840 N1848 1.356 . S
C1841 C1840 1.363 1_565 S
C1841 C1847 1.363 . S
C1842 C1843 1.363 1_565 S
C1842 C1847 1.379 . S
C1842 N1849 1.356 . S
C1843 C1842 1.363 1_545 S
C1843 C1846 1.363 . S
N1844 C1846 1.356 . S
N1844 H1856 0.984 . S
N1844 H1857 0.985 . S
N1845 C1847 1.356 . S
N1845 H1850 0.984 . S
N1845 H1851 0.985 . S
C1846 C1840 1.379 . S
C1846 C1843 1.363 . S
C1846 N1844 1.356 . S
C1847 C1841 1.363 . S
C1847 C1842 1.379 . S
C1847 N1845 1.356 . S
N1848 C1840 1.356 . S
N1848 H1854 0.984 . S
N1848 H1855 0.984 . S
N1849 C1842 1.356 . S
N1849 H1852 0.984 . S
N1849 H1853 0.985 . S
H1850 N1845 0.984 . S
H1851 N1845 0.985 . S
H1852 N1849 0.984 . S
H1853 N1849 0.985 . S
H1854 N1848 0.984 . S
H1855 N1848 0.984 . S
H1856 N1844 0.984 . S
H1857 N1844 0.985 . S
C1858 C1859 1.363 1_455 S
C1858 C1864 1.379 1_565 S
C1858 N1866 1.356 . S
C1859 C1858 1.363 1_655 S
C1859 C1865 1.363 . S
C1860 C1861 1.363 1_655 S
C1860 C1865 1.379 1_545 S
C1860 N1867 1.356 . S
C1861 C1860 1.363 1_455 S
C1861 C1864 1.363 . S
N1862 C1864 1.356 . S
N1862 H1874 0.984 . S
N1862 H1875 0.985 . S
N1863 C1865 1.356 . S
N1863 H1868 0.984 . S
N1863 H1869 0.985 . S
C1864 C1858 1.379 1_545 S
C1864 C1861 1.363 . S
C1864 N1862 1.356 . S
C1865 C1859 1.363 . S
C1865 C1860 1.379 1_565 S
C1865 N1863 1.356 . S
N1866 C1858 1.356 . S
N1866 H1872 0.984 . S
N1866 H1873 0.984 . S
N1867 C1860 1.356 . S
N1867 H1870 0.984 . S
N1867 H1871 0.985 . S
H1868 N1863 0.984 . S
H1869 N1863 0.985 . S
H1870 N1867 0.984 . S
H1871 N1867 0.985 . S
H1872 N1866 0.984 . S
H1873 N1866 0.984 . S
H1874 N1862 0.984 . S
H1875 N1862 0.985 . S
C1876 C1877 1.363 . S
C1876 C1882 1.379 1_455 S
C1876 N1884 1.356 . S
C1877 C1876 1.363 . S
C1877 C1883 1.363 . S
C1878 C1879 1.363 . S
C1878 C1883 1.379 1_655 S
C1878 N1885 1.356 . S
C1879 C1878 1.363 . S
C1879 C1882 1.363 . S
N1880 C1882 1.356 . S
N1880 H1892 0.984 . S
N1880 H1893 0.985 . S
N1881 C1883 1.356 . S
N1881 H1886 0.984 . S
N1881 H1887 0.985 . S
C1882 C1876 1.379 1_655 S
C1882 C1879 1.363 . S
C1882 N1880 1.356 . S
C1883 C1877 1.363 . S
C1883 C1878 1.379 1_455 S
C1883 N1881 1.356 . S
N1884 C1876 1.356 . S
N1884 H1890 0.984 . S
N1884 H1891 0.984 . S
N1885 C1878 1.356 . S
N1885 H1888 0.984 . S
N1885 H1889 0.985 . S
H1886 N1881 0.984 . S
H1887 N1881 0.985 . S
H1888 N1885 0.984 . S
H1889 N1885 0.985 . S
H1890 N1884 0.984 . S
H1891 N1884 0.984 . S
H1892 N1880 0.984 . S
H1893 N1880 0.985 . S
C1894 C1895 1.363 . S
C1894 C1900 1.379 . S
C1894 N1902 1.356 . S
C1895 C1894 1.363 . S
C1895 C1901 1.363 . S
C1896 C1897 1.363 . S
C1896 C1901 1.379 . S
C1896 N1903 1.356 . S
C1897 C1896 1.363 . S
C1897 C1900 1.363 . S
N1898 C1900 1.356 . S
N1898 H1910 0.984 . S
N1898 H1911 0.985 . S
N1899 C1901 1.356 . S
N1899 H1904 0.984 . S
N1899 H1905 0.985 . S
C1900 C1894 1.379 . S
C1900 C1897 1.363 . S
C1900 N1898 1.356 . S
C1901 C1895 1.363 . S
C1901 C1896 1.379 . S
C1901 N1899 1.356 . S
N1902 C1894 1.356 . S
N1902 H1908 0.984 . S
N1902 H1909 0.984 . S
N1903 C1896 1.356 . S
N1903 H1906 0.984 . S
N1903 H1907 0.985 . S
H1904 N1899 0.984 . S
H1905 N1899 0.985 . S
H1906 N1903 0.984 . S
H1907 N1903 0.985 . S
H1908 N1902 0.984 . S
H1909 N1902 0.984 . S
H1910 N1898 0.984 . S
H1911 N1898 0.985 . S
C1912 C1913 1.363 . S
C1912 C1918 1.379 . S
C1912 N1920 1.356 . S
C1913 C1912 1.363 . S
C1913 C1919 1.363 . S
C1914 C1915 1.363 . S
C1914 C1919 1.379 . S
C1914 N1921 1.356 . S
C1915 C1914 1.363 . S
C1915 C1918 1.363 . S
N1916 C1918 1.356 . S
N1916 H1928 0.984 . S
N1916 H1929 0.985 . S
N1917 C1919 1.356 . S
N1917 H1922 0.984 . S
N1917 H1923 0.985 . S
C1918 C1912 1.379 . S
C1918 C1915 1.363 . S
C1918 N1916 1.356 . S
C1919 C1913 1.363 . S
C1919 C1914 1.379 . S
C1919 N1917 1.356 . S
N1920 C1912 1.356 . S
N1920 H1926 0.984 . S
N1920 H1927 0.984 . S
N1921 C1914 1.356 . S
N1921 H1924 0.984 . S
N1921 H1925 0.985 . S
H1922 N1917 0.984 . S
H1923 N1917 0.985 . S
H1924 N1921 0.984 . S
H1925 N1921 0.985 . S
H1926 N1920 0.984 . S
H1927 N1920 0.984 . S
H1928 N1916 0.984 . S
H1929 N1916 0.985 . S
C1930 C1931 1.363 . S
C1930 C1936 1.379 1_545 S
C1930 N1938 1.356 . S
C1931 C1930 1.363 . S
C1931 C1937 1.363 . S
C1932 C1933 1.363 . S
C1932 C1937 1.379 1_565 S
C1932 N1939 1.356 . S
C1933 C1932 1.363 . S
C1933 C1936 1.363 . S
N1934 C1936 1.356 . S
N1934 H1946 0.984 . S
N1934 H1947 0.985 . S
N1935 C1937 1.356 . S
N1935 H1940 0.984 . S
N1935 H1941 0.985 . S
C1936 C1930 1.379 1_565 S
C1936 C1933 1.363 . S
C1936 N1934 1.356 . S
C1937 C1931 1.363 . S
C1937 C1932 1.379 1_545 S
C1937 N1935 1.356 . S
N1938 C1930 1.356 . S
N1938 H1944 0.984 . S
N1938 H1945 0.984 . S
N1939 C1932 1.356 . S
N1939 H1942 0.984 . S
N1939 H1943 0.985 . S
H1940 N1935 0.984 . S
H1941 N1935 0.985 . S
H1942 N1939 0.984 . S
H1943 N1939 0.985 . S
H1944 N1938 0.984 . S
H1945 N1938 0.984 . S
H1946 N1934 0.984 . S
H1947 N1934 0.985 . S
C1948 C1949 1.363 . S
C1948 C1954 1.379 1_655 S
C1948 N1956 1.356 . S
C1949 C1948 1.363 . S
C1949 C1955 1.363 1_565 S
C1950 C1951 1.363 . S
C1950 C1955 1.379 1_455 S
C1950 N1957 1.356 . S
C1951 C1950 1.363 . S
C1951 C1954 1.363 1_545 S
N1952 C1954 1.356 . S
N1952 H1964 0.984 . S
N1952 H1965 0.985 . S
N1953 C1955 1.356 . S
N1953 H1958 0.984 . S
N1953 H1959 0.985 . S
C1954 C1948 1.379 1_455 S
C1954 C1951 1.363 1_565 S
C1954 N1952 1.356 . S
C1955 C1949 1.363 1_545 S
C1955 C1950 1.379 1_655 S
C1955 N1953 1.356 . S
N1956 C1948 1.356 . S
N1956 H1962 0.984 . S
N1956 H1963 0.984 . S
N1957 C1950 1.356 . S
N1957 H1960 0.984 . S
N1957 H1961 0.985 . S
H1958 N1953 0.984 . S
H1959 N1953 0.985 . S
H1960 N1957 0.984 . S
H1961 N1957 0.985 . S
H1962 N1956 0.984 . S
H1963 N1956 0.984 . S
H1964 N1952 0.984 . S
H1965 N1952 0.985 . S
C1966 C1967 1.363 . S
C1966 C1972 1.379 . S
C1966 N1974 1.356 . S
C1967 C1966 1.363 . S
C1967 C1973 1.363 1_655 S
C1968 C1969 1.363 . S
C1968 C1973 1.379 . S
C1968 N1975 1.356 . S
C1969 C1968 1.363 . S
C1969 C1972 1.363 1_455 S
N1970 C1972 1.356 . S
N1970 H1982 0.984 . S
N1970 H1983 0.985 . S
N1971 C1973 1.356 . S
N1971 H1976 0.984 . S
N1971 H1977 0.985 . S
C1972 C1966 1.379 . S
C1972 C1969 1.363 1_655 S
C1972 N1970 1.356 . S
C1973 C1967 1.363 1_455 S
C1973 C1968 1.379 . S
C1973 N1971 1.356 . S
N1974 C1966 1.356 . S
N1974 H1980 0.984 . S
N1974 H1981 0.984 . S
N1975 C1968 1.356 . S
N1975 H1978 0.984 . S
N1975 H1979 0.985 . S
H1976 N1971 0.984 . S
H1977 N1971 0.985 . S
H1978 N1975 0.984 . S
H1979 N1975 0.985 . S
H1980 N1974 0.984 . S
H1981 N1974 0.984 . S
H1982 N1970 0.984 . S
H1983 N1970 0.985 . S
C1409 C372 1.491 . S
C1411 C57 1.491 . S
C1427 C145 1.491 . S
C1429 C460 1.491 . S
C1445 C548 1.491 . S
C1447 C233 1.491 . S
C1463 C645 1.491 . S
C1465 C313 1.491 . S
C1481 C1085 1.491 . S
C1483 C753 1.491 . S
C1499 C841 1.491 . S
C1501 C1164 1.491 . S
C1517 C1252 1.491 . S
C1519 C929 1.491 . S
C1535 C1025 1.491 . S
C1537 C1340 1.491 . S
C1553 C29 1.333 . S
C1555 C1369 1.333 . S
C1571 C117 1.333 . S
C1573 C1113 1.332 . S
C1589 C205 1.332 . S
C1591 C1193 1.332 . S
C1607 C1281 1.333 . S
C1609 C284 1.332 . S
C1625 C401 1.332 . S
C1627 C812 1.333 . S
C1643 C489 1.332 . S
C1645 C900 1.332 . S
C1661 C997 1.332 . S
C1663 C577 1.333 . S
C1679 C724 1.333 . S
C1681 C673 1.333 . S
C1697 C49 1.566 . S
C1699 C937 1.566 . S
C1715 C1017 1.566 . S
C1717 C137 1.566 . S
C1733 C225 1.566 . S
C1735 C761 1.566 . S
C1751 C849 1.566 . S
C1753 C321 1.566 . S
C1769 C381 1.566 . S
C1771 C1261 1.566 . S
C1787 C469 1.566 . S
C1789 C1349 1.566 . S
C1805 C1076 1.566 . S
C1807 C557 1.566 . S
C1823 C1173 1.566 . S
C1825 C636 1.566 . S
C1841 C909 1.747 . S
C1843 C20 1.747 . S
C1859 C108 1.747 . S
C1861 C988 1.747 . S
C1877 C196 1.747 . S
C1879 C733 1.747 . S
C1895 C821 1.747 . S
C1897 C293 1.747 . S
C1913 C1289 1.747 . S
C1915 C409 1.747 . S
C1931 C1377 1.747 . S
C1933 C497 1.747 . S
C1949 C1105 1.747 . S
C1951 C585 1.747 . S
C1967 C665 1.747 . S
C1969 C1201 1.747 . S
