# Generated by pormake.
# Topology uop, (4)-cn, num edge types: 1
# Building blocks:
#     Node 0, Type 0, BuildingBlock: MUDLON_clean_sbu_0, # of connection points: 4
#     Node 1, Type 0, BuildingBlock: MUDLON_clean_sbu_0, # of connection points: 4
#     Node 2, Type 0, BuildingBlock: MUDLON_clean_sbu_0, # of connection points: 4
#     Node 3, Type 0, BuildingBlock: MUDLON_clean_sbu_0, # of connection points: 4
#     Node 4, Type 0, BuildingBlock: MUDLON_clean_sbu_0, # of connection points: 4
#     Node 5, Type 0, BuildingBlock: MUDLON_clean_sbu_0, # of connection points: 4
#     Node 6, Type 0, BuildingBlock: MUDLON_clean_sbu_0, # of connection points: 4
#     Node 7, Type 0, BuildingBlock: MUDLON_clean_sbu_0, # of connection points: 4
#     Node 8, Type 0, BuildingBlock: MUDLON_clean_sbu_0, # of connection points: 4
#     Node 9, Type 0, BuildingBlock: MUDLON_clean_sbu_0, # of connection points: 4
#     Node 10, Type 0, BuildingBlock: MUDLON_clean_sbu_0, # of connection points: 4
#     Node 11, Type 0, BuildingBlock: MUDLON_clean_sbu_0, # of connection points: 4
#     Edge 12, Type (0, 0), BuildingBlock: EZIPEK_clean_linker_0, # of connection points: 2
#     Edge 13, Type (0, 0), BuildingBlock: EZIPEK_clean_linker_0, # of connection points: 2
#     Edge 14, Type (0, 0), BuildingBlock: EZIPEK_clean_linker_0, # of connection points: 2
#     Edge 15, Type (0, 0), BuildingBlock: EZIPEK_clean_linker_0, # of connection points: 2
#     Edge 16, Type (0, 0), BuildingBlock: EZIPEK_clean_linker_0, # of connection points: 2
#     Edge 17, Type (0, 0), BuildingBlock: EZIPEK_clean_linker_0, # of connection points: 2
#     Edge 18, Type (0, 0), BuildingBlock: EZIPEK_clean_linker_0, # of connection points: 2
#     Edge 19, Type (0, 0), BuildingBlock: EZIPEK_clean_linker_0, # of connection points: 2
#     Edge 20, Type (0, 0), BuildingBlock: EZIPEK_clean_linker_0, # of connection points: 2
#     Edge 21, Type (0, 0), BuildingBlock: EZIPEK_clean_linker_0, # of connection points: 2
#     Edge 22, Type (0, 0), BuildingBlock: EZIPEK_clean_linker_0, # of connection points: 2
#     Edge 23, Type (0, 0), BuildingBlock: EZIPEK_clean_linker_0, # of connection points: 2
#     Edge 24, Type (0, 0), BuildingBlock: EZIPEK_clean_linker_0, # of connection points: 2
#     Edge 25, Type (0, 0), BuildingBlock: EZIPEK_clean_linker_0, # of connection points: 2
#     Edge 26, Type (0, 0), BuildingBlock: EZIPEK_clean_linker_0, # of connection points: 2
#     Edge 27, Type (0, 0), BuildingBlock: EZIPEK_clean_linker_0, # of connection points: 2
#     Edge 28, Type (0, 0), BuildingBlock: EZIPEK_clean_linker_0, # of connection points: 2
#     Edge 29, Type (0, 0), BuildingBlock: EZIPEK_clean_linker_0, # of connection points: 2
#     Edge 30, Type (0, 0), BuildingBlock: EZIPEK_clean_linker_0, # of connection points: 2
#     Edge 31, Type (0, 0), BuildingBlock: EZIPEK_clean_linker_0, # of connection points: 2
#     Edge 32, Type (0, 0), BuildingBlock: EZIPEK_clean_linker_0, # of connection points: 2
#     Edge 33, Type (0, 0), BuildingBlock: EZIPEK_clean_linker_0, # of connection points: 2
#     Edge 34, Type (0, 0), BuildingBlock: EZIPEK_clean_linker_0, # of connection points: 2
#     Edge 35, Type (0, 0), BuildingBlock: EZIPEK_clean_linker_0, # of connection points: 2
# Relax obj value: 0.174
# Max RMSD: 0.296
# Mean RMSD: 0.296
data_MOF--net-uop--node1-MUDLON_clean_sbu_0--edge1-EZIPEK_clean_linker_0
_symmetry_space_group_name_H-M    P1
_symmetry_Int_Tables_number       1
_symmetry_cell_setting            triclinic
loop_
_symmetry_equiv_pos_as_xyz
'x, y, z'
_cell_length_a     25.280228
_cell_length_b     25.353817
_cell_length_c     35.527088
_cell_angle_alpha  89.930683
_cell_angle_beta   89.744432
_cell_angle_gamma 119.32735
loop_
_atom_site_label
_atom_site_type_symbol
_atom_site_fract_x
_atom_site_fract_y
_atom_site_fract_z
_atom_type_partial_charge
Mg0 Mg 0.27282 0.41769 0.20821 0.0
C1 C 0.25975 0.52131 0.18199 0.0
O2 O 0.25996 0.49546 0.15004 0.0
C3 C 0.27939 0.33692 0.26932 0.0
O4 O 0.25624 0.29633 0.24251 0.0
C5 C 0.14201 0.33431 0.19941 0.0
O6 O 0.14413 0.36 0.23186 0.0
O7 O 0.1912 0.34776 0.18217 0.0
O8 O 0.26343 0.49789 0.21283 0.0
O9 O 0.35515 0.44861 0.17539 0.0
C10 C 0.38692 0.42282 0.17932 0.0
O11 O 0.36349 0.37035 0.19659 0.0
O12 O 0.28879 0.39031 0.26332 0.0
Mg13 Mg 0.86427 0.26265 0.53294 0.0
C14 C 0.93723 0.38665 0.50786 0.0
O15 O 0.90757 0.38932 0.5376 0.0
C16 C 0.79835 0.12806 0.53017 0.0
O17 O 0.76191 0.13912 0.55108 0.0
C18 C 0.95684 0.29809 0.59302 0.0
O19 O 0.98829 0.30037 0.56293 0.0
O20 O 0.9011 0.28294 0.58961 0.0
O21 O 0.9284 0.33524 0.4969 0.0
O22 O 0.78141 0.26785 0.52653 0.0
C23 C 0.74597 0.2392 0.49957 0.0
O24 O 0.7581 0.20392 0.47846 0.0
O25 O 0.84763 0.1724 0.51818 0.0
Mg26 Mg 0.60481 0.85113 0.88722 0.0
C27 C 0.49629 0.74997 0.85253 0.0
O28 O 0.52335 0.78424 0.82313 0.0
C29 C 0.67836 0.93699 0.94557 0.0
O30 O 0.7101 0.96101 0.91475 0.0
C31 C 0.68402 0.81854 0.83508 0.0
O32 O 0.65159 0.82153 0.80723 0.0
O33 O 0.67649 0.83288 0.86813 0.0
O34 O 0.51993 0.76661 0.8849 0.0
O35 O 0.58719 0.91944 0.86263 0.0
C36 C 0.58341 0.93744 0.82988 0.0
O37 O 0.59575 0.91486 0.80001 0.0
O38 O 0.62971 0.88635 0.94373 0.0
Mg39 Mg 0.77103 0.61536 0.20494 0.0
C40 C 0.78389 0.51418 0.17298 0.0
O41 O 0.7779 0.53974 0.14232 0.0
C42 C 0.74808 0.68547 0.26488 0.0
O43 O 0.76029 0.72281 0.23637 0.0
C44 C 0.90116 0.69972 0.1954 0.0
O45 O 0.89909 0.67107 0.22666 0.0
O46 O 0.85189 0.68791 0.17913 0.0
O47 O 0.78363 0.5366 0.20494 0.0
O48 O 0.68648 0.58817 0.17592 0.0
C49 C 0.64569 0.53484 0.18459 0.0
O50 O 0.65934 0.5026 0.20743 0.0
O51 O 0.75371 0.63859 0.26079 0.0
Mg52 Mg 0.16247 0.74481 0.52458 0.0
C53 C 0.09464 0.6326 0.47248 0.0
O54 O 0.13616 0.66305 0.44687 0.0
C55 C 0.21041 0.87352 0.51707 0.0
O56 O 0.24707 0.86618 0.5399 0.0
C57 C 0.08825 0.73021 0.59097 0.0
O58 O 0.05552 0.73204 0.56291 0.0
O59 O 0.14067 0.73691 0.5842 0.0
O60 O 0.09401 0.65757 0.50331 0.0
O61 O 0.25224 0.75775 0.51124 0.0
C62 C 0.26963 0.71956 0.51831 0.0
O63 O 0.23347 0.66928 0.53636 0.0
O64 O 0.16388 0.82673 0.50476 0.0
Mg65 Mg 0.43017 0.16654 0.87214 0.0
C66 C 0.52665 0.28367 0.83646 0.0
O67 O 0.49014 0.26183 0.80758 0.0
C68 C 0.36642 0.08349 0.93534 0.0
O69 O 0.329 0.05766 0.90722 0.0
C70 C 0.33726 0.19095 0.82762 0.0
O71 O 0.3667 0.19089 0.7971 0.0
O72 O 0.35148 0.17795 0.85924 0.0
O73 O 0.51254 0.25459 0.86748 0.0
O74 O 0.4459 0.09868 0.84368 0.0
C75 C 0.501 0.1141 0.83634 0.0
O76 O 0.5425 0.17108 0.83981 0.0
O77 O 0.41495 0.13332 0.9298 0.0
Mg78 Mg 0.619 0.74629 0.47949 0.0
C79 C 0.56599 0.63334 0.52757 0.0
O80 O 0.53811 0.65954 0.54375 0.0
C81 C 0.68645 0.87711 0.48853 0.0
O82 O 0.65258 0.86812 0.45872 0.0
C83 C 0.64157 0.70025 0.40624 0.0
O84 O 0.61454 0.64912 0.42513 0.0
O85 O 0.64731 0.74834 0.42117 0.0
O86 O 0.60785 0.66271 0.50362 0.0
O87 O 0.53012 0.73822 0.4871 0.0
C88 C 0.50395 0.75944 0.46659 0.0
O89 O 0.53034 0.78932 0.43564 0.0
O90 O 0.6844 0.83151 0.50499 0.0
Mg91 Mg 0.86715 0.61302 0.7919 0.0
C92 C 0.75793 0.50377 0.82342 0.0
O93 O 0.78943 0.52552 0.85434 0.0
C94 C 0.96421 0.67567 0.73459 0.0
O95 O 0.98914 0.70924 0.76438 0.0
C96 C 0.81788 0.68753 0.83107 0.0
O97 O 0.79941 0.64369 0.85594 0.0
O98 O 0.85081 0.6886 0.80363 0.0
O99 O 0.77932 0.53066 0.79219 0.0
O100 O 0.92718 0.59521 0.82702 0.0
C101 C 0.93287 0.55207 0.81288 0.0
O102 O 0.90042 0.52415 0.78321 0.0
O103 O 0.91078 0.63082 0.73695 0.0
Mg104 Mg 0.27471 0.86324 0.13769 0.0
C105 C 0.26609 0.75149 0.17048 0.0
O106 O 0.2611 0.77829 0.20082 0.0
C107 C 0.30034 0.9559 0.07801 0.0
O108 O 0.29478 0.98364 0.10772 0.0
C109 C 0.14433 0.83221 0.13536 0.0
O110 O 0.15678 0.83784 0.09915 0.0
O111 O 0.18658 0.84455 0.15883 0.0
O112 O 0.27279 0.77673 0.13854 0.0
O113 O 0.35153 0.92576 0.17114 0.0
C114 C 0.39886 0.92154 0.16491 0.0
O115 O 0.39538 0.87903 0.14232 0.0
O116 O 0.29203 0.90242 0.08142 0.0
Mg117 Mg 0.41156 0.25481 0.47421 0.0
C118 C 0.47947 0.37998 0.50587 0.0
O119 O 0.52421 0.37409 0.49168 0.0
C120 C 0.3333 0.12374 0.47818 0.0
O121 O 0.37512 0.13162 0.45326 0.0
C122 C 0.3486 0.27763 0.41189 0.0
O123 O 0.31505 0.27395 0.44118 0.0
O124 O 0.39441 0.2702 0.4165 0.0
O125 O 0.42589 0.33504 0.50538 0.0
O126 O 0.49032 0.24208 0.48033 0.0
C127 C 0.53969 0.27083 0.46197 0.0
O128 O 0.54447 0.30968 0.43584 0.0
O129 O 0.33434 0.17012 0.49266 0.0
Mg130 Mg 0.17522 0.41523 0.79489 0.0
C131 C 0.27286 0.52671 0.82827 0.0
O132 O 0.23908 0.49892 0.85778 0.0
C133 C 0.07985 0.35536 0.7365 0.0
O134 O 0.04824 0.33071 0.76723 0.0
C135 C 0.1784 0.29504 0.81229 0.0
O136 O 0.12008 0.26566 0.80491 0.0
O137 O 0.20677 0.3526 0.81219 0.0
O138 O 0.25709 0.50253 0.79599 0.0
O139 O 0.10976 0.42804 0.82844 0.0
C140 C 0.10234 0.46975 0.81364 0.0
O141 O 0.13475 0.49784 0.78373 0.0
O142 O 0.13634 0.39257 0.73883 0.0
Mg143 Mg 0.76898 0.16914 0.14213 0.0
C144 C 0.79434 0.29171 0.16478 0.0
O145 O 0.81083 0.27386 0.19508 0.0
C146 C 0.75627 0.07769 0.08268 0.0
O147 O 0.77705 0.05841 0.11021 0.0
C148 C 0.8984 0.20073 0.14184 0.0
O149 O 0.88705 0.19691 0.1056 0.0
O150 O 0.85523 0.1866 0.16518 0.0
O151 O 0.77577 0.25721 0.13626 0.0
O152 O 0.68933 0.12025 0.17783 0.0
C153 C 0.65247 0.06511 0.17084 0.0
O154 O 0.66977 0.03458 0.1491 0.0
O155 O 0.75087 0.12452 0.08754 0.0
C156 C 0.21016 0.63853 0.16511 0.0
C157 C 0.26436 0.69252 0.17381 0.0
C158 C 0.31557 0.63407 0.18826 0.0
C159 C 0.26046 0.57994 0.18145 0.0
N160 N 0.15306 0.52891 0.16956 0.0
N161 N 0.36628 0.74257 0.19811 0.0
C162 C 0.20708 0.58168 0.1715 0.0
C163 C 0.31633 0.6905 0.18686 0.0
N164 N 0.16187 0.64177 0.15047 0.0
N165 N 0.36775 0.63166 0.19444 0.0
H166 H 0.36971 0.78508 0.19553 0.0
H167 H 0.40284 0.74354 0.21209 0.0
H168 H 0.36892 0.59117 0.19623 0.0
H169 H 0.41069 0.66965 0.19523 0.0
H170 H 0.12352 0.60477 0.13958 0.0
H171 H 0.1616 0.68248 0.14701 0.0
H172 H 0.11129 0.52692 0.166 0.0
H173 H 0.14927 0.48671 0.17479 0.0
C174 C 0.6834 0.2585 0.45236 0.0
C175 C 0.69366 0.2483 0.49031 0.0
C176 C 0.60871 0.26278 0.51005 0.0
C177 C 0.59276 0.26321 0.47173 0.0
N178 N 0.60831 0.24692 0.40649 0.0
N179 N 0.65666 0.22749 0.5545 0.0
C180 C 0.6282 0.25691 0.44284 0.0
C181 C 0.65366 0.24666 0.51901 0.0
N182 N 0.72735 0.27267 0.42557 0.0
N183 N 0.58342 0.28057 0.53788 0.0
H184 H 0.68696 0.21254 0.56197 0.0
H185 H 0.62456 0.22015 0.57532 0.0
H186 H 0.55324 0.29657 0.53262 0.0
H187 H 0.59798 0.28623 0.56573 0.0
H188 H 0.72372 0.28574 0.3983 0.0
H189 H 0.77023 0.27861 0.43165 0.0
H190 H 0.63015 0.2365 0.38519 0.0
H191 H 0.56658 0.24214 0.39844 0.0
C192 C 0.43523 0.63666 0.85686 0.0
C193 C 0.43864 0.69272 0.84752 0.0
C194 C 0.33587 0.63927 0.82134 0.0
C195 C 0.3307 0.58358 0.83341 0.0
N196 N 0.37227 0.52842 0.86575 0.0
N197 N 0.3894 0.74857 0.827 0.0
C198 C 0.37939 0.58209 0.85225 0.0
C199 C 0.38825 0.69437 0.83126 0.0
N200 N 0.48615 0.63528 0.8683 0.0
N201 N 0.29084 0.6395 0.80028 0.0
H202 H 0.42633 0.7898 0.83482 0.0
H203 H 0.35191 0.75251 0.81903 0.0
H204 H 0.25085 0.60026 0.79357 0.0
H205 H 0.29486 0.67798 0.78706 0.0
H206 H 0.48857 0.59564 0.87106 0.0
H207 H 0.52786 0.67409 0.87229 0.0
H208 H 0.40285 0.52531 0.88391 0.0
H209 H 0.33395 0.48678 0.86052 0.0
C210 C 0.84266 0.45837 0.1772 0.0
C211 C 0.78704 0.45758 0.17022 0.0
C212 C 0.73575 0.3477 0.16135 0.0
C213 C 0.79223 0.34905 0.16545 0.0
N214 N 0.90106 0.4061 0.17133 0.0
N215 N 0.68271 0.40379 0.14985 0.0
C216 C 0.8462 0.40454 0.17187 0.0
C217 C 0.73431 0.40298 0.16031 0.0
N218 N 0.892 0.51053 0.18901 0.0
N219 N 0.683 0.29351 0.16072 0.0
H220 H 0.67857 0.44268 0.15041 0.0
H221 H 0.64543 0.36684 0.13794 0.0
H222 H 0.6817 0.25186 0.16249 0.0
H223 H 0.64008 0.28963 0.16207 0.0
H224 H 0.93175 0.51251 0.19867 0.0
H225 H 0.892 0.55152 0.19149 0.0
H226 H 0.94259 0.4459 0.17182 0.0
H227 H 0.90538 0.36767 0.16716 0.0
C228 C 0.39338 0.7235 0.45495 0.0
C229 C 0.44448 0.75194 0.47891 0.0
C230 C 0.37978 0.75498 0.5297 0.0
C231 C 0.32984 0.73098 0.50477 0.0
N232 N 0.29119 0.70293 0.44173 0.0
N233 N 0.48915 0.80674 0.53617 0.0
C234 C 0.33735 0.71864 0.46675 0.0
C235 C 0.43849 0.77093 0.51557 0.0
N236 N 0.39732 0.6982 0.42182 0.0
N237 N 0.37109 0.7622 0.56693 0.0
H238 H 0.5331 0.8215 0.52624 0.0
H239 H 0.48806 0.82692 0.56146 0.0
H240 H 0.32915 0.75311 0.57801 0.0
H241 H 0.4043 0.77291 0.5873 0.0
H242 H 0.35985 0.67108 0.40525 0.0
H243 H 0.43707 0.69946 0.41247 0.0
H244 H 0.2962 0.69999 0.41282 0.0
H245 H 0.24919 0.69785 0.44948 0.0
C246 C 0.59506 0.39305 0.8521 0.0
C247 C 0.58527 0.3405 0.83225 0.0
C248 C 0.68945 0.39462 0.8074 0.0
C249 C 0.69792 0.44814 0.8253 0.0
N250 N 0.65599 0.50183 0.85893 0.0
N251 N 0.61926 0.2935 0.78602 0.0
C252 C 0.64999 0.4483 0.8462 0.0
C253 C 0.63119 0.34206 0.80823 0.0
N254 N 0.55179 0.39024 0.87655 0.0
N255 N 0.73786 0.39301 0.79124 0.0
H256 H 0.57833 0.25303 0.78676 0.0
H257 H 0.64831 0.29478 0.76474 0.0
H258 H 0.7813 0.43043 0.79007 0.0
H259 H 0.7364 0.35344 0.78183 0.0
H260 H 0.55915 0.42466 0.89531 0.0
H261 H 0.50928 0.35192 0.87976 0.0
H262 H 0.62057 0.50622 0.8707 0.0
H263 H 0.69516 0.54321 0.8547 0.0
C264 C 0.55011 0.4799 0.14741 0.0
C265 C 0.58107 0.51569 0.17895 0.0
C266 C 0.48552 0.50201 0.20526 0.0
C267 C 0.45363 0.45952 0.17641 0.0
N268 N 0.45371 0.40607 0.12048 0.0
N269 N 0.57907 0.55652 0.2399 0.0
C270 C 0.48545 0.4482 0.14738 0.0
C271 C 0.5491 0.52626 0.20818 0.0
N272 N 0.58275 0.47646 0.11766 0.0
N273 N 0.45518 0.51895 0.23017 0.0
H274 H 0.62601 0.5768 0.24279 0.0
H275 H 0.55722 0.55817 0.26442 0.0
H276 H 0.40816 0.4999 0.23097 0.0
H277 H 0.47697 0.55525 0.24854 0.0
H278 H 0.56349 0.45516 0.09239 0.0
H279 H 0.63011 0.49932 0.11723 0.0
H280 H 0.47365 0.39068 0.10085 0.0
H281 H 0.40646 0.38414 0.1189 0.0
C282 C 0.99298 0.54136 0.46407 0.0
C283 C 0.05608 0.56609 0.46971 0.0
C284 C 0.04126 0.4657 0.4866 0.0
C285 C 0.9777 0.44348 0.4873 0.0
N286 N 0.89151 0.45539 0.47187 0.0
N287 N 0.1422 0.55324 0.48397 0.0
C288 C 0.95312 0.47984 0.47405 0.0
C289 C 0.0809 0.5283 0.47936 0.0
N290 N 0.97178 0.57717 0.44916 0.0
N291 N 0.06367 0.42731 0.49355 0.0
H292 H 0.17274 0.59801 0.47705 0.0
H293 H 0.16309 0.53071 0.49592 0.0
H294 H 0.03628 0.3818 0.50025 0.0
H295 H 0.10896 0.43899 0.48994 0.0
H296 H 0.92674 0.56211 0.44217 0.0
H297 H 1.00068 0.62205 0.44129 0.0
H298 H 0.8695 0.48002 0.46627 0.0
H299 H 0.86168 0.40935 0.47612 0.0
C300 C 0.56621 0.07135 0.8582 0.0
C301 C 0.52091 0.06792 0.83325 0.0
C302 C 0.51521 0.97694 0.80488 0.0
C303 C 0.56567 0.98528 0.82689 0.0
N304 N 0.64897 0.05076 0.867 0.0
N305 N 0.45905 0.0231 0.7785 0.0
C306 C 0.59426 0.03585 0.85113 0.0
C307 C 0.49735 0.02236 0.80522 0.0
N308 N 0.58012 0.10574 0.89006 0.0
N309 N 0.48217 0.92449 0.78537 0.0
H310 H 0.44505 0.05555 0.77798 0.0
H311 H 0.44545 0.99475 0.75514 0.0
H312 H 0.49258 0.8895 0.78495 0.0
H313 H 0.44125 0.91346 0.77229 0.0
H314 H 0.60867 0.1049 0.91085 0.0
H315 H 0.55756 0.12913 0.89806 0.0
H316 H 0.67403 0.09029 0.88238 0.0
H317 H 0.67241 0.02738 0.86116 0.0
C318 C 0.48612 0.53323 0.50363 0.0
C319 C 0.53682 0.56649 0.52741 0.0
C320 C 0.53646 0.47278 0.54497 0.0
C321 C 0.49171 0.44119 0.51725 0.0
N322 N 0.4281 0.44255 0.46703 0.0
N323 N 0.61229 0.56982 0.56983 0.0
C324 C 0.46673 0.47136 0.49619 0.0
C325 C 0.56234 0.5367 0.54807 0.0
N326 N 0.45695 0.56095 0.48761 0.0
N327 N 0.55338 0.4412 0.56866 0.0
H328 H 0.63063 0.61628 0.57386 0.0
H329 H 0.63751 0.55213 0.58221 0.0
H330 H 0.53445 0.39427 0.5673 0.0
H331 H 0.5818 0.46034 0.59164 0.0
H332 H 0.41542 0.53746 0.47397 0.0
H333 H 0.47156 0.60697 0.49026 0.0
H334 H 0.41523 0.46459 0.44739 0.0
H335 H 0.41212 0.3973 0.46039 0.0
C336 C 0.03954 0.57431 0.82819 0.0
C337 C 0.97619 0.5332 0.82741 0.0
C338 C 0.99555 0.44731 0.82976 0.0
C339 C 0.05884 0.48845 0.82841 0.0
N340 N 0.14005 0.58873 0.84083 0.0
N341 N 0.8945 0.43315 0.84078 0.0
C342 C 0.08031 0.55125 0.83274 0.0
C343 C 0.95454 0.47045 0.83287 0.0
N344 N 0.06128 0.63459 0.82167 0.0
N345 N 0.97425 0.38671 0.82548 0.0
H346 H 0.86399 0.4495 0.8438 0.0
H347 H 0.87649 0.38776 0.84814 0.0
H348 H 1.00238 0.36753 0.82452 0.0
H349 H 0.92869 0.35569 0.82105 0.0
H350 H 0.10707 0.66503 0.81708 0.0
H351 H 0.03354 0.65391 0.81843 0.0
H352 H 0.15783 0.63435 0.84731 0.0
H353 H 0.17021 0.57226 0.84505 0.0
C354 C 0.48881 0.02442 0.15685 0.0
C355 C 0.4596 0.96897 0.17699 0.0
C356 C 0.55707 0.98609 0.20157 0.0
C357 C 0.58689 0.0391 0.17909 0.0
N358 N 0.58162 0.11657 0.1419 0.0
N359 N 0.46155 0.9055 0.22638 0.0
C360 C 0.55285 0.06129 0.15934 0.0
C361 C 0.49256 0.95276 0.20209 0.0
N362 N 0.45585 0.03943 0.13304 0.0
N363 N 0.59073 0.96679 0.22134 0.0
H364 H 0.41421 0.88214 0.22767 0.0
H365 H 0.48194 0.89298 0.24731 0.0
H366 H 0.6379 0.99225 0.22317 0.0
H367 H 0.57252 0.92507 0.23489 0.0
H368 H 0.47486 0.07402 0.11314 0.0
H369 H 0.40869 0.01535 0.13195 0.0
H370 H 0.5591 0.13841 0.1313 0.0
H371 H 0.6285 0.14316 0.13988 0.0
C372 C 0.2546 0.27161 0.32718 0.0
C373 C 0.29776 0.32132 0.30551 0.0
C374 C 0.37454 0.3437 0.3542 0.0
C375 C 0.3328 0.29099 0.37422 0.0
N376 N 0.23751 0.1977 0.37576 0.0
N377 N 0.40249 0.39652 0.29447 0.0
C378 C 0.27405 0.25286 0.35953 0.0
C379 C 0.35881 0.35516 0.31791 0.0
N380 N 0.19453 0.24389 0.31785 0.0
N381 N 0.4282 0.38426 0.37037 0.0
H382 H 0.39334 0.40534 0.26736 0.0
H383 H 0.44868 0.41773 0.30044 0.0
H384 H 0.44181 0.37781 0.39682 0.0
H385 H 0.45691 0.42684 0.35894 0.0
H386 H 0.16027 0.21167 0.33489 0.0
H387 H 0.17814 0.25716 0.29492 0.0
H388 H 0.19678 0.16534 0.364 0.0
H389 H 0.25073 0.18176 0.39897 0.0
C390 C 1.0141 0.278 0.64332 0.0
C391 C 0.98637 0.31171 0.63047 0.0
C392 C 1.01613 0.371 0.68875 0.0
C393 C 0.04888 0.34133 0.6997 0.0
N394 N 0.08595 0.27216 0.68582 0.0
N395 N 0.96946 0.39697 0.63785 0.0
C396 C 0.05008 0.29659 0.67642 0.0
C397 C 0.98934 0.35987 0.65243 0.0
N398 N 1.00358 0.22644 0.62491 0.0
N399 N 1.01014 0.4094 0.7132 0.0
H400 H 0.95039 0.39099 0.61118 0.0
H401 H 0.97664 0.43679 0.65074 0.0
H402 H 0.03091 0.42039 0.73949 0.0
H403 H 0.98109 0.42695 0.70862 0.0
H404 H 1.0173 0.19651 0.63506 0.0
H405 H 0.97595 0.21023 0.60126 0.0
H406 H 0.0941 0.24439 0.66792 0.0
H407 H 0.11142 0.28331 0.71046 0.0
C408 C 0.65984 0.99233 0.99797 0.0
C409 C 0.6972 0.97148 0.98118 0.0
C410 C 0.77649 0.02798 0.02758 0.0
C411 C 0.73641 0.04294 0.04701 0.0
N412 N 0.63522 0.02961 0.05417 0.0
N413 N 0.78709 0.9613 0.98311 0.0
C414 C 0.67677 0.02258 0.03315 0.0
C415 C 0.75445 0.98702 0.99687 0.0
N416 N 0.60951 0.98567 0.9796 0.0
N417 N 0.83637 0.05505 0.03732 0.0
H418 H 0.7722 0.93074 0.96079 0.0
H419 H 0.82605 0.96587 0.99597 0.0
H420 H 0.85485 0.08693 0.05878 0.0
H421 H 0.86895 0.05064 0.02171 0.0
H422 H 0.58462 1.00621 0.98847 0.0
H423 H 0.59579 0.96449 0.95353 0.0
H424 H 0.58938 0.00939 0.0473 0.0
H425 H 0.64485 0.05087 0.08025 0.0
C426 C 0.72459 0.69583 0.36992 0.0
C427 C 0.67217 0.70285 0.37004 0.0
C428 C 0.67039 0.70074 0.30104 0.0
C429 C 0.72401 0.69552 0.30083 0.0
N430 N 0.80974 0.70226 0.33436 0.0
N431 N 0.60184 0.7237 0.33648 0.0
C432 C 0.75324 0.69699 0.33512 0.0
C433 C 0.64746 0.70943 0.33579 0.0
N434 N 0.74686 0.68769 0.40313 0.0
N435 N 0.6391 0.69367 0.2684 0.0
H436 H 0.58219 0.72786 0.36138 0.0
H437 H 0.58666 0.73607 0.31262 0.0
H438 H 0.65328 0.68644 0.2423 0.0
H439 H 0.59607 0.68952 0.26749 0.0
H440 H 0.77978 0.67441 0.40471 0.0
H441 H 0.73015 0.69104 0.42939 0.0
H442 H 0.83628 0.7098 0.35819 0.0
H443 H 0.83284 0.70497 0.3094 0.0
C444 C 0.04807 0.76099 0.64614 0.0
C445 C 0.06248 0.71869 0.62957 0.0
C446 C 0.01904 0.65158 0.68429 0.0
C447 C 0.9984 0.69059 0.69861 0.0
N448 N 0.98677 0.77897 0.6915 0.0
N449 N 0.05533 0.62018 0.63016 0.0
C450 C 1.01145 0.7446 0.6792 0.0
C451 C 0.04665 0.66313 0.648 0.0
N452 N 0.07075 0.81746 0.6307 0.0
N453 N 1.01394 0.60457 0.70585 0.0
H454 H 0.07575 0.62692 0.60371 0.0
H455 H 0.03818 0.57618 0.64024 0.0
H456 H 0.99423 0.59494 0.73261 0.0
H457 H 0.03389 0.57843 0.69871 0.0
H458 H 0.06732 0.85256 0.64355 0.0
H459 H 0.09797 0.831 0.60658 0.0
H460 H 0.98893 0.81509 0.67627 0.0
H461 H 0.95965 0.76845 0.71558 0.0
C462 C 0.27904 1.00761 0.02475 0.0
C463 C 0.31732 0.9877 0.04116 0.0
C464 C 0.38767 0.02945 0.9875 0.0
C465 C 0.35181 0.05355 0.97275 0.0
N466 N 0.26939 0.07494 0.98025 0.0
N467 N 0.4129 0.98777 0.04155 0.0
C468 C 0.29914 0.04524 0.99222 0.0
C469 C 0.37299 1.00077 0.02346 0.0
N470 N 0.22235 0.98848 0.03937 0.0
N471 N 0.43424 0.03173 0.9665 0.0
H472 H 0.4037 0.96607 0.06762 0.0
H473 H 0.45711 1.00274 0.03219 0.0
H474 H 0.44666 0.05254 0.94015 0.0
H475 H 0.45754 0.00888 0.97378 0.0
H476 H 0.18984 0.99601 0.0263 0.0
H477 H 0.20558 0.96013 0.06283 0.0
H478 H 0.23464 0.07597 0.99549 0.0
H479 H 0.2831 0.10331 0.9567 0.0
C480 C 0.9833 0.20397 0.1803 0.0
C481 C 0.96202 0.23272 0.15503 0.0
C482 C 0.06319 0.32213 0.15282 0.0
C483 C 0.0825 0.29646 0.18142 0.0
N484 N 0.06074 0.21513 0.22483 0.0
N485 N 0.9781 0.32408 0.12356 0.0
C486 C 0.04244 0.2379 0.1959 0.0
C487 C 1.00107 0.29298 0.14271 0.0
N488 N 0.94772 0.14387 0.18844 0.0
N489 N 0.104 0.37467 0.1354 0.0
H490 H 0.9323 0.30578 0.11699 0.0
H491 H 1.00312 0.37023 0.11773 0.0
H492 H 0.1497 0.39843 0.14256 0.0
H493 H 0.09368 0.39184 0.11159 0.0
H494 H 0.96279 0.11871 0.20366 0.0
H495 H 0.90439 0.11775 0.17732 0.0
H496 H 0.03157 0.17599 0.23965 0.0
H497 H 0.1048 0.2373 0.23543 0.0
C498 C 0.78202 0.04684 0.48272 0.0
C499 C 0.78045 0.06432 0.52054 0.0
C500 C 0.72204 0.95741 0.53913 0.0
C501 C 0.72587 0.94013 0.50166 0.0
N502 N 0.77644 0.96844 0.44138 0.0
N503 N 0.7664 0.03596 0.58622 0.0
C504 C 0.76159 0.98498 0.47467 0.0
C505 C 0.75609 0.01944 0.54925 0.0
N506 N 0.79874 0.08789 0.45397 0.0
N507 N 0.68321 0.91578 0.56454 0.0
H508 H 0.79329 0.08079 0.59463 0.0
H509 H 0.7542 1.00474 0.60816 0.0
H510 H 0.65614 0.87007 0.55837 0.0
H511 H 0.67392 0.92769 0.59082 0.0
H512 H 0.79403 0.07552 0.4257 0.0
H513 H 0.8116 0.13326 0.45782 0.0
H514 H 0.80695 0.99966 0.4221 0.0
H515 H 0.76363 0.92357 0.43509 0.0
C516 C 0.72543 0.69512 0.81604 0.0
C517 C 0.78627 0.72367 0.82884 0.0
C518 C 0.78332 0.81812 0.8386 0.0
C519 C 0.72038 0.78735 0.8301 0.0
N520 N 0.62905 0.69356 0.81652 0.0
N521 N 0.87297 0.81067 0.85449 0.0
C522 C 0.69081 0.72516 0.82005 0.0
C523 C 0.81538 0.78492 0.84053 0.0
N524 N 0.70097 0.63956 0.79931 0.0
N525 N 0.81258 0.87933 0.84393 0.0
H526 H 0.89801 0.78799 0.85527 0.0
H527 H 0.89458 0.85286 0.86737 0.0
H528 H 0.79039 0.9048 0.84248 0.0
H529 H 0.85939 0.90562 0.84668 0.0
H530 H 0.65925 0.61939 0.7857 0.0
H531 H 0.72472 0.61588 0.79588 0.0
H532 H 0.60445 0.64667 0.81401 0.0
H533 H 0.60138 0.71312 0.8194 0.0
C534 C 1.00013 0.79644 0.1896 0.0
C535 C 0.96043 0.73707 0.1766 0.0
C536 C 0.04145 0.73994 0.1371 0.0
C537 C 0.08034 0.80066 0.14839 0.0
N538 N 0.09451 0.89045 0.18024 0.0
N539 N 0.93897 0.65606 0.13314 0.0
C540 C 0.05903 0.83005 0.17321 0.0
C541 C 0.97967 0.71024 0.14861 0.0
N542 N 0.98187 0.82012 0.21812 0.0
N543 N 0.06438 0.7091 0.11752 0.0
H544 H 0.89377 0.63178 0.1417 0.0
H545 H 0.94861 0.63758 0.10969 0.0
H546 H 0.10966 0.72826 0.10919 0.0
H547 H 0.04004 0.66274 0.11256 0.0
H548 H 1.01084 0.86012 0.23196 0.0
H549 H 0.93809 0.79783 0.22946 0.0
H550 H 0.0795 0.91605 0.19508 0.0
H551 H 0.13771 0.91629 0.16856 0.0
C552 C 0.24196 0.97946 0.53586 0.0
C553 C 0.22518 0.93613 0.50667 0.0
C554 C 0.25795 0.01796 0.46027 0.0
C555 C 0.28742 0.06105 0.48916 0.0
N556 N 0.31083 0.08178 0.55536 0.0
N557 N 0.22038 0.91474 0.44001 0.0
C558 C 0.27941 0.04184 0.52735 0.0
C559 C 0.23281 0.95527 0.46848 0.0
N560 N 0.22206 0.96075 0.57178 0.0
N561 N 0.25385 0.03713 0.42499 0.0
H562 H 0.20244 0.86849 0.44439 0.0
H563 H 0.23221 0.92772 0.41204 0.0
H564 H 0.27058 0.08276 0.41847 0.0
H565 H 0.22826 1.00771 0.4036 0.0
H566 H 0.22823 0.99053 0.59367 0.0
H567 H 0.19362 0.91532 0.57863 0.0
H568 H 0.31188 0.06833 0.58295 0.0
H569 H 0.33996 0.12769 0.55078 0.0
C570 C 0.25437 0.27962 0.84914 0.0
C571 C 0.21317 0.26227 0.81865 0.0
C572 C 0.24504 0.18895 0.79911 0.0
C573 C 0.2926 0.21331 0.82586 0.0
N574 N 0.35007 0.29208 0.87109 0.0
N575 N 0.17772 0.2075 0.76008 0.0
C576 C 0.29919 0.26121 0.84968 0.0
C577 C 0.21031 0.21844 0.7925 0.0
N578 N 0.25008 0.31283 0.87807 0.0
N579 N 0.2321 0.1369 0.7805 0.0
H580 H 0.15368 0.22964 0.75296 0.0
H581 H 0.17959 0.18086 0.73836 0.0
H582 H 0.25569 0.11336 0.78517 0.0
H583 H 0.19411 0.11389 0.76347 0.0
H584 H 0.27538 0.32189 0.90266 0.0
H585 H 0.21657 0.32549 0.87932 0.0
H586 H 0.3596 0.33122 0.88586 0.0
H587 H 0.38608 0.28304 0.87088 0.0
loop_
_geom_bond_atom_site_label_1
_geom_bond_atom_site_label_2
_geom_bond_distance
_geom_bond_site_symmetry_2
_ccdc_geom_bond_type
Mg0 O7 2.141 . S
Mg0 O8 2.048 . S
Mg0 O9 2.048 . S
Mg0 O12 2.141 . S
C1 O2 1.313 . S
C1 O8 1.195 . S
O2 C1 1.313 . S
C3 O4 1.245 . S
C3 O12 1.289 . S
O4 C3 1.245 . S
C5 O6 1.245 . S
C5 O7 1.289 . S
O6 C5 1.245 . S
O7 Mg0 2.141 . S
O7 C5 1.289 . S
O8 Mg0 2.048 . S
O8 C1 1.195 . S
O9 Mg0 2.048 . S
O9 C10 1.195 . S
C10 O9 1.195 . S
C10 O11 1.313 . S
O11 C10 1.313 . S
O12 Mg0 2.141 . S
O12 C3 1.289 . S
Mg13 O20 2.141 . S
Mg13 O21 2.048 . S
Mg13 O22 2.048 . S
Mg13 O25 2.141 . S
C14 O15 1.313 . S
C14 O21 1.195 . S
O15 C14 1.313 . S
C16 O17 1.245 . S
C16 O25 1.289 . S
O17 C16 1.245 . S
C18 O19 1.245 . S
C18 O20 1.289 . S
O19 C18 1.245 . S
O20 Mg13 2.141 . S
O20 C18 1.289 . S
O21 Mg13 2.048 . S
O21 C14 1.195 . S
O22 Mg13 2.048 . S
O22 C23 1.195 . S
C23 O22 1.195 . S
C23 O24 1.313 . S
O24 C23 1.313 . S
O25 Mg13 2.141 . S
O25 C16 1.289 . S
Mg26 O33 2.141 . S
Mg26 O34 2.048 . S
Mg26 O35 2.048 . S
Mg26 O38 2.141 . S
C27 O28 1.313 . S
C27 O34 1.195 . S
O28 C27 1.313 . S
C29 O30 1.245 . S
C29 O38 1.289 . S
O30 C29 1.245 . S
C31 O32 1.245 . S
C31 O33 1.289 . S
O32 C31 1.245 . S
O33 Mg26 2.141 . S
O33 C31 1.289 . S
O34 Mg26 2.048 . S
O34 C27 1.195 . S
O35 Mg26 2.048 . S
O35 C36 1.195 . S
C36 O35 1.195 . S
C36 O37 1.313 . S
O37 C36 1.313 . S
O38 Mg26 2.141 . S
O38 C29 1.289 . S
Mg39 O46 2.141 . S
Mg39 O47 2.048 . S
Mg39 O48 2.048 . S
Mg39 O51 2.141 . S
C40 O41 1.313 . S
C40 O47 1.195 . S
O41 C40 1.313 . S
C42 O43 1.245 . S
C42 O51 1.289 . S
O43 C42 1.245 . S
C44 O45 1.245 . S
C44 O46 1.289 . S
O45 C44 1.245 . S
O46 Mg39 2.141 . S
O46 C44 1.289 . S
O47 Mg39 2.048 . S
O47 C40 1.195 . S
O48 Mg39 2.048 . S
O48 C49 1.195 . S
C49 O48 1.195 . S
C49 O50 1.313 . S
O50 C49 1.313 . S
O51 Mg39 2.141 . S
O51 C42 1.289 . S
Mg52 O59 2.141 . S
Mg52 O60 2.048 . S
Mg52 O61 2.048 . S
Mg52 O64 2.141 . S
C53 O54 1.313 . S
C53 O60 1.195 . S
O54 C53 1.313 . S
C55 O56 1.245 . S
C55 O64 1.289 . S
O56 C55 1.245 . S
C57 O58 1.245 . S
C57 O59 1.289 . S
O58 C57 1.245 . S
O59 Mg52 2.141 . S
O59 C57 1.289 . S
O60 Mg52 2.048 . S
O60 C53 1.195 . S
O61 Mg52 2.048 . S
O61 C62 1.195 . S
C62 O61 1.195 . S
C62 O63 1.313 . S
O63 C62 1.313 . S
O64 Mg52 2.141 . S
O64 C55 1.289 . S
Mg65 O72 2.141 . S
Mg65 O73 2.048 . S
Mg65 O74 2.048 . S
Mg65 O77 2.141 . S
C66 O67 1.313 . S
C66 O73 1.195 . S
O67 C66 1.313 . S
C68 O69 1.245 . S
C68 O77 1.289 . S
O69 C68 1.245 . S
C70 O71 1.245 . S
C70 O72 1.289 . S
O71 C70 1.245 . S
O72 Mg65 2.141 . S
O72 C70 1.289 . S
O73 Mg65 2.048 . S
O73 C66 1.195 . S
O74 Mg65 2.048 . S
O74 C75 1.195 . S
C75 O74 1.195 . S
C75 O76 1.313 . S
O76 C75 1.313 . S
O77 Mg65 2.141 . S
O77 C68 1.289 . S
Mg78 O85 2.141 . S
Mg78 O86 2.048 . S
Mg78 O87 2.048 . S
Mg78 O90 2.141 . S
C79 O80 1.313 . S
C79 O86 1.195 . S
O80 C79 1.313 . S
C81 O82 1.245 . S
C81 O90 1.289 . S
O82 C81 1.245 . S
C83 O84 1.245 . S
C83 O85 1.289 . S
O84 C83 1.245 . S
O85 Mg78 2.141 . S
O85 C83 1.289 . S
O86 Mg78 2.048 . S
O86 C79 1.195 . S
O87 Mg78 2.048 . S
O87 C88 1.195 . S
C88 O87 1.195 . S
C88 O89 1.313 . S
O89 C88 1.313 . S
O90 Mg78 2.141 . S
O90 C81 1.289 . S
Mg91 O98 2.141 . S
Mg91 O99 2.048 . S
Mg91 O100 2.048 . S
Mg91 O103 2.141 . S
C92 O93 1.313 . S
C92 O99 1.195 . S
O93 C92 1.313 . S
C94 O95 1.245 . S
C94 O103 1.289 . S
O95 C94 1.245 . S
C96 O97 1.245 . S
C96 O98 1.289 . S
O97 C96 1.245 . S
O98 Mg91 2.141 . S
O98 C96 1.289 . S
O99 Mg91 2.048 . S
O99 C92 1.195 . S
O100 Mg91 2.048 . S
O100 C101 1.195 . S
C101 O100 1.195 . S
C101 O102 1.313 . S
O102 C101 1.313 . S
O103 Mg91 2.141 . S
O103 C94 1.289 . S
Mg104 O111 2.141 . S
Mg104 O112 2.048 . S
Mg104 O113 2.048 . S
Mg104 O116 2.141 . S
C105 O106 1.313 . S
C105 O112 1.195 . S
O106 C105 1.313 . S
C107 O108 1.245 . S
C107 O116 1.289 . S
O108 C107 1.245 . S
C109 O110 1.245 . S
C109 O111 1.289 . S
O110 C109 1.245 . S
O111 Mg104 2.141 . S
O111 C109 1.289 . S
O112 Mg104 2.048 . S
O112 C105 1.195 . S
O113 Mg104 2.048 . S
O113 C114 1.195 . S
C114 O113 1.195 . S
C114 O115 1.313 . S
O115 C114 1.313 . S
O116 Mg104 2.141 . S
O116 C107 1.289 . S
Mg117 O124 2.141 . S
Mg117 O125 2.048 . S
Mg117 O126 2.048 . S
Mg117 O129 2.141 . S
C118 O119 1.313 . S
C118 O125 1.195 . S
O119 C118 1.313 . S
C120 O121 1.245 . S
C120 O129 1.289 . S
O121 C120 1.245 . S
C122 O123 1.245 . S
C122 O124 1.289 . S
O123 C122 1.245 . S
O124 Mg117 2.141 . S
O124 C122 1.289 . S
O125 Mg117 2.048 . S
O125 C118 1.195 . S
O126 Mg117 2.048 . S
O126 C127 1.195 . S
C127 O126 1.195 . S
C127 O128 1.313 . S
O128 C127 1.313 . S
O129 Mg117 2.141 . S
O129 C120 1.289 . S
Mg130 O137 2.141 . S
Mg130 O138 2.048 . S
Mg130 O139 2.048 . S
Mg130 O142 2.141 . S
C131 O132 1.313 . S
C131 O138 1.195 . S
O132 C131 1.313 . S
C133 O134 1.245 . S
C133 O142 1.289 . S
O134 C133 1.245 . S
C135 O136 1.245 . S
C135 O137 1.289 . S
O136 C135 1.245 . S
O137 Mg130 2.141 . S
O137 C135 1.289 . S
O138 Mg130 2.048 . S
O138 C131 1.195 . S
O139 Mg130 2.048 . S
O139 C140 1.195 . S
C140 O139 1.195 . S
C140 O141 1.313 . S
O141 C140 1.313 . S
O142 Mg130 2.141 . S
O142 C133 1.289 . S
Mg143 O150 2.141 . S
Mg143 O151 2.048 . S
Mg143 O152 2.048 . S
Mg143 O155 2.141 . S
C144 O145 1.313 . S
C144 O151 1.195 . S
O145 C144 1.313 . S
C146 O147 1.245 . S
C146 O155 1.289 . S
O147 C146 1.245 . S
C148 O149 1.245 . S
C148 O150 1.289 . S
O149 C148 1.245 . S
O150 Mg143 2.141 . S
O150 C148 1.289 . S
O151 Mg143 2.048 . S
O151 C144 1.195 . S
O152 Mg143 2.048 . S
O152 C153 1.195 . S
C153 O152 1.195 . S
C153 O154 1.313 . S
O154 C153 1.313 . S
O155 Mg143 2.141 . S
O155 C146 1.289 . S
C156 C157 1.363 . S
C156 C162 1.379 . S
C156 N164 1.356 . S
C157 C156 1.363 . S
C157 C163 1.363 . S
C158 C159 1.363 . S
C158 C163 1.379 . S
C158 N165 1.356 . S
C159 C158 1.363 . S
C159 C162 1.363 . S
N160 C162 1.356 . S
N160 H172 0.984 . S
N160 H173 0.985 . S
N161 C163 1.356 . S
N161 H166 0.984 . S
N161 H167 0.985 . S
C162 C156 1.379 . S
C162 C159 1.363 . S
C162 N160 1.356 . S
C163 C157 1.363 . S
C163 C158 1.379 . S
C163 N161 1.356 . S
N164 C156 1.356 . S
N164 H170 0.984 . S
N164 H171 0.984 . S
N165 C158 1.356 . S
N165 H168 0.984 . S
N165 H169 0.985 . S
H166 N161 0.984 . S
H167 N161 0.985 . S
H168 N165 0.984 . S
H169 N165 0.985 . S
H170 N164 0.984 . S
H171 N164 0.984 . S
H172 N160 0.984 . S
H173 N160 0.985 . S
C174 C175 1.363 . S
C174 C180 1.379 . S
C174 N182 1.356 . S
C175 C174 1.363 . S
C175 C181 1.363 . S
C176 C177 1.363 . S
C176 C181 1.379 . S
C176 N183 1.356 . S
C177 C176 1.363 . S
C177 C180 1.363 . S
N178 C180 1.356 . S
N178 H190 0.984 . S
N178 H191 0.985 . S
N179 C181 1.356 . S
N179 H184 0.984 . S
N179 H185 0.985 . S
C180 C174 1.379 . S
C180 C177 1.363 . S
C180 N178 1.356 . S
C181 C175 1.363 . S
C181 C176 1.379 . S
C181 N179 1.356 . S
N182 C174 1.356 . S
N182 H188 0.984 . S
N182 H189 0.984 . S
N183 C176 1.356 . S
N183 H186 0.984 . S
N183 H187 0.985 . S
H184 N179 0.984 . S
H185 N179 0.985 . S
H186 N183 0.984 . S
H187 N183 0.985 . S
H188 N182 0.984 . S
H189 N182 0.984 . S
H190 N178 0.984 . S
H191 N178 0.985 . S
C192 C193 1.363 . S
C192 C198 1.379 . S
C192 N200 1.356 . S
C193 C192 1.363 . S
C193 C199 1.363 . S
C194 C195 1.363 . S
C194 C199 1.379 . S
C194 N201 1.356 . S
C195 C194 1.363 . S
C195 C198 1.363 . S
N196 C198 1.356 . S
N196 H208 0.984 . S
N196 H209 0.985 . S
N197 C199 1.356 . S
N197 H202 0.984 . S
N197 H203 0.985 . S
C198 C192 1.379 . S
C198 C195 1.363 . S
C198 N196 1.356 . S
C199 C193 1.363 . S
C199 C194 1.379 . S
C199 N197 1.356 . S
N200 C192 1.356 . S
N200 H206 0.984 . S
N200 H207 0.984 . S
N201 C194 1.356 . S
N201 H204 0.984 . S
N201 H205 0.985 . S
H202 N197 0.984 . S
H203 N197 0.985 . S
H204 N201 0.984 . S
H205 N201 0.985 . S
H206 N200 0.984 . S
H207 N200 0.984 . S
H208 N196 0.984 . S
H209 N196 0.985 . S
C210 C211 1.363 . S
C210 C216 1.379 . S
C210 N218 1.356 . S
C211 C210 1.363 . S
C211 C217 1.363 . S
C212 C213 1.363 . S
C212 C217 1.379 . S
C212 N219 1.356 . S
C213 C212 1.363 . S
C213 C216 1.363 . S
N214 C216 1.356 . S
N214 H226 0.984 . S
N214 H227 0.985 . S
N215 C217 1.356 . S
N215 H220 0.984 . S
N215 H221 0.985 . S
C216 C210 1.379 . S
C216 C213 1.363 . S
C216 N214 1.356 . S
C217 C211 1.363 . S
C217 C212 1.379 . S
C217 N215 1.356 . S
N218 C210 1.356 . S
N218 H224 0.984 . S
N218 H225 0.984 . S
N219 C212 1.356 . S
N219 H222 0.984 . S
N219 H223 0.985 . S
H220 N215 0.984 . S
H221 N215 0.985 . S
H222 N219 0.984 . S
H223 N219 0.985 . S
H224 N218 0.984 . S
H225 N218 0.984 . S
H226 N214 0.984 . S
H227 N214 0.985 . S
C228 C229 1.363 . S
C228 C234 1.379 . S
C228 N236 1.356 . S
C229 C228 1.363 . S
C229 C235 1.363 . S
C230 C231 1.363 . S
C230 C235 1.379 . S
C230 N237 1.356 . S
C231 C230 1.363 . S
C231 C234 1.363 . S
N232 C234 1.356 . S
N232 H244 0.984 . S
N232 H245 0.985 . S
N233 C235 1.356 . S
N233 H238 0.984 . S
N233 H239 0.985 . S
C234 C228 1.379 . S
C234 C231 1.363 . S
C234 N232 1.356 . S
C235 C229 1.363 . S
C235 C230 1.379 . S
C235 N233 1.356 . S
N236 C228 1.356 . S
N236 H242 0.984 . S
N236 H243 0.984 . S
N237 C230 1.356 . S
N237 H240 0.984 . S
N237 H241 0.985 . S
H238 N233 0.984 . S
H239 N233 0.985 . S
H240 N237 0.984 . S
H241 N237 0.985 . S
H242 N236 0.984 . S
H243 N236 0.984 . S
H244 N232 0.984 . S
H245 N232 0.985 . S
C246 C247 1.363 . S
C246 C252 1.379 . S
C246 N254 1.356 . S
C247 C246 1.363 . S
C247 C253 1.363 . S
C248 C249 1.363 . S
C248 C253 1.379 . S
C248 N255 1.356 . S
C249 C248 1.363 . S
C249 C252 1.363 . S
N250 C252 1.356 . S
N250 H262 0.984 . S
N250 H263 0.985 . S
N251 C253 1.356 . S
N251 H256 0.984 . S
N251 H257 0.985 . S
C252 C246 1.379 . S
C252 C249 1.363 . S
C252 N250 1.356 . S
C253 C247 1.363 . S
C253 C248 1.379 . S
C253 N251 1.356 . S
N254 C246 1.356 . S
N254 H260 0.984 . S
N254 H261 0.984 . S
N255 C248 1.356 . S
N255 H258 0.984 . S
N255 H259 0.985 . S
H256 N251 0.984 . S
H257 N251 0.985 . S
H258 N255 0.984 . S
H259 N255 0.985 . S
H260 N254 0.984 . S
H261 N254 0.984 . S
H262 N250 0.984 . S
H263 N250 0.985 . S
C264 C265 1.363 . S
C264 C270 1.379 . S
C264 N272 1.356 . S
C265 C264 1.363 . S
C265 C271 1.363 . S
C266 C267 1.363 . S
C266 C271 1.379 . S
C266 N273 1.356 . S
C267 C266 1.363 . S
C267 C270 1.363 . S
N268 C270 1.356 . S
N268 H280 0.984 . S
N268 H281 0.985 . S
N269 C271 1.356 . S
N269 H274 0.984 . S
N269 H275 0.985 . S
C270 C264 1.379 . S
C270 C267 1.363 . S
C270 N268 1.356 . S
C271 C265 1.363 . S
C271 C266 1.379 . S
C271 N269 1.356 . S
N272 C264 1.356 . S
N272 H278 0.984 . S
N272 H279 0.984 . S
N273 C266 1.356 . S
N273 H276 0.984 . S
N273 H277 0.985 . S
H274 N269 0.984 . S
H275 N269 0.985 . S
H276 N273 0.984 . S
H277 N273 0.985 . S
H278 N272 0.984 . S
H279 N272 0.984 . S
H280 N268 0.984 . S
H281 N268 0.985 . S
C282 C283 1.373 . S
C282 C288 1.375 1_455 S
C282 N290 1.353 . S
C283 C282 1.373 . S
C283 C289 1.363 . S
C284 C285 1.373 . S
C284 C289 1.375 1_655 S
C284 N291 1.353 . S
C285 C284 1.373 . S
C285 C288 1.363 . S
N286 C288 1.356 . S
N286 H298 0.984 . S
N286 H299 0.985 . S
N287 C289 1.356 . S
N287 H292 0.984 . S
N287 H293 0.985 . S
C288 C282 1.375 1_655 S
C288 C285 1.363 . S
C288 N286 1.356 . S
C289 C283 1.363 . S
C289 C284 1.375 1_455 S
C289 N287 1.356 . S
N290 C282 1.353 . S
N290 H296 0.984 1_455 S
N290 H297 0.984 . S
N291 C284 1.353 . S
N291 H294 0.984 . S
N291 H295 0.985 1_655 S
H292 N287 0.984 . S
H293 N287 0.985 . S
H294 N291 0.984 . S
H295 N291 0.985 1_455 S
H296 N290 0.984 1_655 S
H297 N290 0.984 . S
H298 N286 0.984 . S
H299 N286 0.985 . S
C300 C301 1.363 . S
C300 C306 1.363 1_545 S
C300 N308 1.356 . S
C301 C300 1.363 . S
C301 C307 1.373 . S
C302 C303 1.363 . S
C302 C307 1.363 1_565 S
C302 N309 1.356 . S
C303 C302 1.363 . S
C303 C306 1.373 . S
N304 C306 1.366 . S
N304 H316 0.984 1_565 S
N304 H317 0.985 . S
N305 C307 1.366 . S
N305 H310 0.984 . S
N305 H311 0.985 1_545 S
C306 C300 1.363 1_565 S
C306 C303 1.373 . S
C306 N304 1.366 . S
C307 C301 1.373 . S
C307 C302 1.363 1_545 S
C307 N305 1.366 . S
N308 C300 1.356 . S
N308 H314 0.984 . S
N308 H315 0.984 . S
N309 C302 1.356 . S
N309 H312 0.984 . S
N309 H313 0.985 . S
H310 N305 0.984 . S
H311 N305 0.985 1_565 S
H312 N309 0.984 . S
H313 N309 0.985 . S
H314 N308 0.984 . S
H315 N308 0.984 . S
H316 N304 0.984 1_545 S
H317 N304 0.985 . S
C318 C319 1.363 . S
C318 C324 1.379 . S
C318 N326 1.356 . S
C319 C318 1.363 . S
C319 C325 1.363 . S
C320 C321 1.363 . S
C320 C325 1.379 . S
C320 N327 1.356 . S
C321 C320 1.363 . S
C321 C324 1.363 . S
N322 C324 1.356 . S
N322 H334 0.984 . S
N322 H335 0.985 . S
N323 C325 1.356 . S
N323 H328 0.984 . S
N323 H329 0.985 . S
C324 C318 1.379 . S
C324 C321 1.363 . S
C324 N322 1.356 . S
C325 C319 1.363 . S
C325 C320 1.379 . S
C325 N323 1.356 . S
N326 C318 1.356 . S
N326 H332 0.984 . S
N326 H333 0.984 . S
N327 C320 1.356 . S
N327 H330 0.984 . S
N327 H331 0.985 . S
H328 N323 0.984 . S
H329 N323 0.985 . S
H330 N327 0.984 . S
H331 N327 0.985 . S
H332 N326 0.984 . S
H333 N326 0.984 . S
H334 N322 0.984 . S
H335 N322 0.985 . S
C336 C337 1.363 . S
C336 C342 1.363 1_655 S
C336 N344 1.356 . S
C337 C336 1.363 . S
C337 C343 1.373 . S
C338 C339 1.363 . S
C338 C343 1.363 1_455 S
C338 N345 1.356 . S
C339 C338 1.363 . S
C339 C342 1.373 . S
N340 C342 1.366 . S
N340 H352 0.984 1_455 S
N340 H353 0.985 . S
N341 C343 1.366 . S
N341 H346 0.984 . S
N341 H347 0.985 1_655 S
C342 C336 1.363 1_455 S
C342 C339 1.373 . S
C342 N340 1.366 . S
C343 C337 1.373 . S
C343 C338 1.363 1_655 S
C343 N341 1.366 . S
N344 C336 1.356 . S
N344 H350 0.984 . S
N344 H351 0.984 . S
N345 C338 1.356 . S
N345 H348 0.984 . S
N345 H349 0.985 . S
H346 N341 0.984 . S
H347 N341 0.985 1_455 S
H348 N345 0.984 . S
H349 N345 0.985 . S
H350 N344 0.984 . S
H351 N344 0.984 . S
H352 N340 0.984 1_655 S
H353 N340 0.985 . S
C354 C355 1.363 . S
C354 C360 1.375 1_565 S
C354 N362 1.356 . S
C355 C354 1.363 . S
C355 C361 1.373 . S
C356 C357 1.363 . S
C356 C361 1.375 1_545 S
C356 N363 1.356 . S
C357 C356 1.363 . S
C357 C360 1.373 . S
N358 C360 1.353 . S
N358 H370 0.984 1_545 S
N358 H371 0.985 . S
N359 C361 1.353 . S
N359 H364 0.984 . S
N359 H365 0.985 1_565 S
C360 C354 1.375 1_545 S
C360 C357 1.373 . S
C360 N358 1.353 . S
C361 C355 1.373 . S
C361 C356 1.375 1_565 S
C361 N359 1.353 . S
N362 C354 1.356 . S
N362 H368 0.984 . S
N362 H369 0.984 . S
N363 C356 1.356 . S
N363 H366 0.984 . S
N363 H367 0.985 . S
H364 N359 0.984 . S
H365 N359 0.985 1_545 S
H366 N363 0.984 . S
H367 N363 0.985 . S
H368 N362 0.984 . S
H369 N362 0.984 . S
H370 N358 0.984 1_565 S
H371 N358 0.985 . S
C372 C373 1.363 . S
C372 C378 1.379 . S
C372 N380 1.356 . S
C373 C372 1.363 . S
C373 C379 1.363 . S
C374 C375 1.363 . S
C374 C379 1.379 . S
C374 N381 1.356 . S
C375 C374 1.363 . S
C375 C378 1.363 . S
N376 C378 1.356 . S
N376 H388 0.984 . S
N376 H389 0.985 . S
N377 C379 1.356 . S
N377 H382 0.984 . S
N377 H383 0.985 . S
C378 C372 1.379 . S
C378 C375 1.363 . S
C378 N376 1.356 . S
C379 C373 1.363 . S
C379 C374 1.379 . S
C379 N377 1.356 . S
N380 C372 1.356 . S
N380 H386 0.984 . S
N380 H387 0.984 . S
N381 C374 1.356 . S
N381 H384 0.984 . S
N381 H385 0.985 . S
H382 N377 0.984 . S
H383 N377 0.985 . S
H384 N381 0.984 . S
H385 N381 0.985 . S
H386 N380 0.984 . S
H387 N380 0.984 . S
H388 N376 0.984 . S
H389 N376 0.985 . S
C390 C391 1.363 1_455 S
C390 C396 1.379 . S
C390 N398 1.356 . S
C391 C390 1.363 1_655 S
C391 C397 1.363 . S
C392 C393 1.363 1_655 S
C392 C397 1.379 . S
C392 N399 1.356 . S
C393 C392 1.363 1_455 S
C393 C396 1.363 . S
N394 C396 1.356 . S
N394 H406 0.984 . S
N394 H407 0.985 . S
N395 C397 1.356 . S
N395 H400 0.984 . S
N395 H401 0.985 . S
C396 C390 1.379 . S
C396 C393 1.363 . S
C396 N394 1.356 . S
C397 C391 1.363 . S
C397 C392 1.379 . S
C397 N395 1.356 . S
N398 C390 1.356 . S
N398 H404 0.984 . S
N398 H405 0.984 . S
N399 C392 1.356 . S
N399 H402 0.984 . S
N399 H403 0.985 . S
H400 N395 0.984 . S
H401 N395 0.985 . S
H402 N399 0.984 . S
H403 N399 0.985 . S
H404 N398 0.984 . S
H405 N398 0.984 . S
H406 N394 0.984 . S
H407 N394 0.985 . S
C408 C409 1.363 . S
C408 C414 1.379 1_556 S
C408 N416 1.356 . S
C409 C408 1.363 . S
C409 C415 1.363 1_565 S
C410 C411 1.363 . S
C410 C415 1.379 1_554 S
C410 N417 1.356 . S
C411 C410 1.363 . S
C411 C414 1.363 1_545 S
N412 C414 1.356 . S
N412 H424 0.984 . S
N412 H425 0.985 . S
N413 C415 1.356 . S
N413 H418 0.984 . S
N413 H419 0.985 . S
C414 C408 1.379 1_554 S
C414 C411 1.363 1_565 S
C414 N412 1.356 . S
C415 C409 1.363 1_545 S
C415 C410 1.379 1_556 S
C415 N413 1.356 . S
N416 C408 1.356 . S
N416 H422 0.984 . S
N416 H423 0.984 . S
N417 C410 1.356 . S
N417 H420 0.984 . S
N417 H421 0.985 . S
H418 N413 0.984 . S
H419 N413 0.985 . S
H420 N417 0.984 . S
H421 N417 0.985 . S
H422 N416 0.984 . S
H423 N416 0.984 . S
H424 N412 0.984 . S
H425 N412 0.985 . S
C426 C427 1.363 . S
C426 C432 1.379 . S
C426 N434 1.356 . S
C427 C426 1.363 . S
C427 C433 1.363 . S
C428 C429 1.363 . S
C428 C433 1.379 . S
C428 N435 1.356 . S
C429 C428 1.363 . S
C429 C432 1.363 . S
N430 C432 1.356 . S
N430 H442 0.984 . S
N430 H443 0.985 . S
N431 C433 1.356 . S
N431 H436 0.984 . S
N431 H437 0.985 . S
C432 C426 1.379 . S
C432 C429 1.363 . S
C432 N430 1.356 . S
C433 C427 1.363 . S
C433 C428 1.379 . S
C433 N431 1.356 . S
N434 C426 1.356 . S
N434 H440 0.984 . S
N434 H441 0.984 . S
N435 C428 1.356 . S
N435 H438 0.984 . S
N435 H439 0.985 . S
H436 N431 0.984 . S
H437 N431 0.985 . S
H438 N435 0.984 . S
H439 N435 0.985 . S
H440 N434 0.984 . S
H441 N434 0.984 . S
H442 N430 0.984 . S
H443 N430 0.985 . S
C444 C445 1.363 . S
C444 C450 1.379 . S
C444 N452 1.356 . S
C445 C444 1.363 . S
C445 C451 1.363 1_455 S
C446 C447 1.363 . S
C446 C451 1.379 . S
C446 N453 1.356 . S
C447 C446 1.363 . S
C447 C450 1.363 1_655 S
N448 C450 1.356 . S
N448 H460 0.984 . S
N448 H461 0.985 . S
N449 C451 1.356 . S
N449 H454 0.984 . S
N449 H455 0.985 . S
C450 C444 1.379 . S
C450 C447 1.363 1_455 S
C450 N448 1.356 . S
C451 C445 1.363 1_655 S
C451 C446 1.379 . S
C451 N449 1.356 . S
N452 C444 1.356 . S
N452 H458 0.984 . S
N452 H459 0.984 . S
N453 C446 1.356 . S
N453 H456 0.984 . S
N453 H457 0.985 . S
H454 N449 0.984 . S
H455 N449 0.985 . S
H456 N453 0.984 . S
H457 N453 0.985 . S
H458 N452 0.984 . S
H459 N452 0.984 . S
H460 N448 0.984 . S
H461 N448 0.985 . S
C462 C463 1.363 1_545 S
C462 C468 1.379 1_554 S
C462 N470 1.356 . S
C463 C462 1.363 1_565 S
C463 C469 1.363 . S
C464 C465 1.363 1_565 S
C464 C469 1.379 1_556 S
C464 N471 1.356 . S
C465 C464 1.363 1_545 S
C465 C468 1.363 . S
N466 C468 1.356 . S
N466 H478 0.984 . S
N466 H479 0.985 . S
N467 C469 1.356 . S
N467 H472 0.984 . S
N467 H473 0.985 . S
C468 C462 1.379 1_556 S
C468 C465 1.363 . S
C468 N466 1.356 . S
C469 C463 1.363 . S
C469 C464 1.379 1_554 S
C469 N467 1.356 . S
N470 C462 1.356 . S
N470 H476 0.984 . S
N470 H477 0.984 . S
N471 C464 1.356 . S
N471 H474 0.984 . S
N471 H475 0.985 . S
H472 N467 0.984 . S
H473 N467 0.985 . S
H474 N471 0.984 . S
H475 N471 0.985 . S
H476 N470 0.984 . S
H477 N470 0.984 . S
H478 N466 0.984 . S
H479 N466 0.985 . S
C480 C481 1.363 . S
C480 C486 1.379 1_655 S
C480 N488 1.356 . S
C481 C480 1.363 . S
C481 C487 1.363 . S
C482 C483 1.363 . S
C482 C487 1.379 1_455 S
C482 N489 1.356 . S
C483 C482 1.363 . S
C483 C486 1.363 . S
N484 C486 1.356 . S
N484 H496 0.984 . S
N484 H497 0.985 . S
N485 C487 1.356 . S
N485 H490 0.984 . S
N485 H491 0.985 . S
C486 C480 1.379 1_455 S
C486 C483 1.363 . S
C486 N484 1.356 . S
C487 C481 1.363 . S
C487 C482 1.379 1_655 S
C487 N485 1.356 . S
N488 C480 1.356 . S
N488 H494 0.984 . S
N488 H495 0.984 . S
N489 C482 1.356 . S
N489 H492 0.984 . S
N489 H493 0.985 . S
H490 N485 0.984 . S
H491 N485 0.985 . S
H492 N489 0.984 . S
H493 N489 0.985 . S
H494 N488 0.984 . S
H495 N488 0.984 . S
H496 N484 0.984 . S
H497 N484 0.985 . S
C498 C499 1.363 . S
C498 C504 1.379 1_545 S
C498 N506 1.356 . S
C499 C498 1.363 . S
C499 C505 1.363 . S
C500 C501 1.363 . S
C500 C505 1.379 1_565 S
C500 N507 1.356 . S
C501 C500 1.363 . S
C501 C504 1.363 . S
N502 C504 1.356 . S
N502 H514 0.984 . S
N502 H515 0.985 . S
N503 C505 1.356 . S
N503 H508 0.984 . S
N503 H509 0.985 . S
C504 C498 1.379 1_565 S
C504 C501 1.363 . S
C504 N502 1.356 . S
C505 C499 1.363 . S
C505 C500 1.379 1_545 S
C505 N503 1.356 . S
N506 C498 1.356 . S
N506 H512 0.984 . S
N506 H513 0.984 . S
N507 C500 1.356 . S
N507 H510 0.984 . S
N507 H511 0.985 . S
H508 N503 0.984 . S
H509 N503 0.985 . S
H510 N507 0.984 . S
H511 N507 0.985 . S
H512 N506 0.984 . S
H513 N506 0.984 . S
H514 N502 0.984 . S
H515 N502 0.985 . S
C516 C517 1.363 . S
C516 C522 1.379 . S
C516 N524 1.356 . S
C517 C516 1.363 . S
C517 C523 1.363 . S
C518 C519 1.363 . S
C518 C523 1.379 . S
C518 N525 1.356 . S
C519 C518 1.363 . S
C519 C522 1.363 . S
N520 C522 1.356 . S
N520 H532 0.984 . S
N520 H533 0.985 . S
N521 C523 1.356 . S
N521 H526 0.984 . S
N521 H527 0.985 . S
C522 C516 1.379 . S
C522 C519 1.363 . S
C522 N520 1.356 . S
C523 C517 1.363 . S
C523 C518 1.379 . S
C523 N521 1.356 . S
N524 C516 1.356 . S
N524 H530 0.984 . S
N524 H531 0.984 . S
N525 C518 1.356 . S
N525 H528 0.984 . S
N525 H529 0.985 . S
H526 N521 0.984 . S
H527 N521 0.985 . S
H528 N525 0.984 . S
H529 N525 0.985 . S
H530 N524 0.984 . S
H531 N524 0.984 . S
H532 N520 0.984 . S
H533 N520 0.985 . S
C534 C535 1.363 . S
C534 C540 1.379 1_655 S
C534 N542 1.356 . S
C535 C534 1.363 . S
C535 C541 1.363 . S
C536 C537 1.363 . S
C536 C541 1.379 1_455 S
C536 N543 1.356 . S
C537 C536 1.363 . S
C537 C540 1.363 . S
N538 C540 1.356 . S
N538 H550 0.984 . S
N538 H551 0.985 . S
N539 C541 1.356 . S
N539 H544 0.984 . S
N539 H545 0.985 . S
C540 C534 1.379 1_455 S
C540 C537 1.363 . S
C540 N538 1.356 . S
C541 C535 1.363 . S
C541 C536 1.379 1_655 S
C541 N539 1.356 . S
N542 C534 1.356 . S
N542 H548 0.984 . S
N542 H549 0.984 . S
N543 C536 1.356 . S
N543 H546 0.984 . S
N543 H547 0.985 . S
H544 N539 0.984 . S
H545 N539 0.985 . S
H546 N543 0.984 . S
H547 N543 0.985 . S
H548 N542 0.984 . S
H549 N542 0.984 . S
H550 N538 0.984 . S
H551 N538 0.985 . S
C552 C553 1.363 . S
C552 C558 1.379 1_565 S
C552 N560 1.356 . S
C553 C552 1.363 . S
C553 C559 1.363 . S
C554 C555 1.363 . S
C554 C559 1.379 1_545 S
C554 N561 1.356 . S
C555 C554 1.363 . S
C555 C558 1.363 . S
N556 C558 1.356 . S
N556 H568 0.984 . S
N556 H569 0.985 . S
N557 C559 1.356 . S
N557 H562 0.984 . S
N557 H563 0.985 . S
C558 C552 1.379 1_545 S
C558 C555 1.363 . S
C558 N556 1.356 . S
C559 C553 1.363 . S
C559 C554 1.379 1_565 S
C559 N557 1.356 . S
N560 C552 1.356 . S
N560 H566 0.984 . S
N560 H567 0.984 . S
N561 C554 1.356 . S
N561 H564 0.984 . S
N561 H565 0.985 . S
H562 N557 0.984 . S
H563 N557 0.985 . S
H564 N561 0.984 . S
H565 N561 0.985 . S
H566 N560 0.984 . S
H567 N560 0.984 . S
H568 N556 0.984 . S
H569 N556 0.985 . S
C570 C571 1.363 . S
C570 C576 1.379 . S
C570 N578 1.356 . S
C571 C570 1.363 . S
C571 C577 1.363 . S
C572 C573 1.363 . S
C572 C577 1.379 . S
C572 N579 1.356 . S
C573 C572 1.363 . S
C573 C576 1.363 . S
N574 C576 1.356 . S
N574 H586 0.984 . S
N574 H587 0.985 . S
N575 C577 1.356 . S
N575 H580 0.984 . S
N575 H581 0.985 . S
C576 C570 1.379 . S
C576 C573 1.363 . S
C576 N574 1.356 . S
C577 C571 1.363 . S
C577 C572 1.379 . S
C577 N575 1.356 . S
N578 C570 1.356 . S
N578 H584 0.984 . S
N578 H585 0.984 . S
N579 C572 1.356 . S
N579 H582 0.984 . S
N579 H583 0.985 . S
H580 N575 0.984 . S
H581 N575 0.985 . S
H582 N579 0.984 . S
H583 N579 0.985 . S
H584 N578 0.984 . S
H585 N578 0.984 . S
H586 N574 0.984 . S
H587 N574 0.985 . S
C157 C105 2.532 . S
C159 C1 2.532 . S
C175 C23 2.365 . S
C177 C127 2.365 . S
C193 C27 2.532 . S
C195 C131 2.532 . S
C211 C40 2.532 . S
C213 C144 2.532 . S
C229 C88 2.365 . S
C231 C62 2.365 . S
C247 C66 2.532 . S
C249 C92 2.532 . S
C265 C49 1.406 . S
C267 C10 1.406 . S
C283 C53 1.429 . S
C285 C14 1.429 . S
C301 C75 1.406 . S
C303 C36 1.406 . S
C319 C79 1.429 . S
C321 C118 1.429 . S
C337 C101 1.406 . S
C339 C140 1.406 . S
C355 C114 1.406 . S
C357 C153 1.406 . S
C373 C3 2.182 . S
C375 C122 1.982 . S
C391 C18 1.982 . S
C393 C133 2.182 . S
C409 C29 2.182 . S
C411 C146 2.182 . S
C427 C83 1.982 . S
C429 C42 2.182 . S
C445 C57 1.982 . S
C447 C94 2.182 . S
C463 C107 2.182 . S
C465 C68 2.182 . S
C481 C148 1.357 . S
C483 C5 1.357 . S
C499 C16 1.408 . S
C501 C81 1.408 . S
C517 C96 1.357 . S
C519 C31 1.357 . S
C535 C44 1.357 . S
C537 C109 1.357 . S
C553 C55 1.408 . S
C555 C120 1.408 . S
C571 C135 1.357 . S
C573 C70 1.357 . S
