# Generated by pormake.
# Topology uol, (4)-cn, num edge types: 1
# Building blocks:
#     Node 0, Type 0, BuildingBlock: QUQFOY_clean_sbu_3, # of connection points: 4
#     Node 1, Type 0, BuildingBlock: QUQFOY_clean_sbu_3, # of connection points: 4
#     Node 2, Type 0, BuildingBlock: QUQFOY_clean_sbu_3, # of connection points: 4
#     Node 3, Type 0, BuildingBlock: QUQFOY_clean_sbu_3, # of connection points: 4
#     Node 4, Type 0, BuildingBlock: QUQFOY_clean_sbu_3, # of connection points: 4
#     Node 5, Type 0, BuildingBlock: QUQFOY_clean_sbu_3, # of connection points: 4
#     Node 6, Type 0, BuildingBlock: QUQFOY_clean_sbu_3, # of connection points: 4
#     Node 7, Type 0, BuildingBlock: QUQFOY_clean_sbu_3, # of connection points: 4
#     Node 8, Type 0, BuildingBlock: QUQFOY_clean_sbu_3, # of connection points: 4
#     Node 9, Type 0, BuildingBlock: QUQFOY_clean_sbu_3, # of connection points: 4
#     Node 10, Type 0, BuildingBlock: QUQFOY_clean_sbu_3, # of connection points: 4
#     Node 11, Type 0, BuildingBlock: QUQFOY_clean_sbu_3, # of connection points: 4
#     Edge 12, Type (0, 0), BuildingBlock: CIFDUS_clean_linker_0, # of connection points: 2
#     Edge 13, Type (0, 0), BuildingBlock: CIFDUS_clean_linker_0, # of connection points: 2
#     Edge 14, Type (0, 0), BuildingBlock: CIFDUS_clean_linker_0, # of connection points: 2
#     Edge 15, Type (0, 0), BuildingBlock: CIFDUS_clean_linker_0, # of connection points: 2
#     Edge 16, Type (0, 0), BuildingBlock: CIFDUS_clean_linker_0, # of connection points: 2
#     Edge 17, Type (0, 0), BuildingBlock: CIFDUS_clean_linker_0, # of connection points: 2
#     Edge 18, Type (0, 0), BuildingBlock: CIFDUS_clean_linker_0, # of connection points: 2
#     Edge 19, Type (0, 0), BuildingBlock: CIFDUS_clean_linker_0, # of connection points: 2
#     Edge 20, Type (0, 0), BuildingBlock: CIFDUS_clean_linker_0, # of connection points: 2
#     Edge 21, Type (0, 0), BuildingBlock: CIFDUS_clean_linker_0, # of connection points: 2
#     Edge 22, Type (0, 0), BuildingBlock: CIFDUS_clean_linker_0, # of connection points: 2
#     Edge 23, Type (0, 0), BuildingBlock: CIFDUS_clean_linker_0, # of connection points: 2
#     Edge 24, Type (0, 0), BuildingBlock: CIFDUS_clean_linker_0, # of connection points: 2
#     Edge 25, Type (0, 0), BuildingBlock: CIFDUS_clean_linker_0, # of connection points: 2
#     Edge 26, Type (0, 0), BuildingBlock: CIFDUS_clean_linker_0, # of connection points: 2
#     Edge 27, Type (0, 0), BuildingBlock: CIFDUS_clean_linker_0, # of connection points: 2
#     Edge 28, Type (0, 0), BuildingBlock: CIFDUS_clean_linker_0, # of connection points: 2
#     Edge 29, Type (0, 0), BuildingBlock: CIFDUS_clean_linker_0, # of connection points: 2
#     Edge 30, Type (0, 0), BuildingBlock: CIFDUS_clean_linker_0, # of connection points: 2
#     Edge 31, Type (0, 0), BuildingBlock: CIFDUS_clean_linker_0, # of connection points: 2
#     Edge 32, Type (0, 0), BuildingBlock: CIFDUS_clean_linker_0, # of connection points: 2
#     Edge 33, Type (0, 0), BuildingBlock: CIFDUS_clean_linker_0, # of connection points: 2
#     Edge 34, Type (0, 0), BuildingBlock: CIFDUS_clean_linker_0, # of connection points: 2
#     Edge 35, Type (0, 0), BuildingBlock: CIFDUS_clean_linker_0, # of connection points: 2
# Relax obj value: 0.116
# Max RMSD: 0.172
# Mean RMSD: 0.172
data_MOF--net-uol--node1-QUQFOY_clean_sbu_3--edge1-CIFDUS_clean_linker_0
_symmetry_space_group_name_H-M    P1
_symmetry_Int_Tables_number       1
_symmetry_cell_setting            triclinic
loop_
_symmetry_equiv_pos_as_xyz
'x, y, z'
_cell_length_a     30.281486
_cell_length_b     30.420007
_cell_length_c     60.012741
_cell_angle_alpha  90.157396
_cell_angle_beta   90.079373
_cell_angle_gamma 119.32213
loop_
_atom_site_label
_atom_site_type_symbol
_atom_site_fract_x
_atom_site_fract_y
_atom_site_fract_z
_atom_type_partial_charge
C0 C 0.08968 0.24974 0.02553 0.0
O1 O 0.05019 0.21004 0.03163 0.0
Cd2 Cd 0.02154 0.19658 0.06975 0.0
O3 O 0.11132 0.2873 0.03877 0.0
Cd4 Cd 0.09759 0.31458 0.07627 0.0
C5 C 0.13532 0.23702 0.09835 0.0
O6 O 0.00609 0.26087 0.08377 0.0
O7 O 0.0555 0.30008 0.11173 0.0
O8 O 0.08541 0.3827 0.06315 0.0
C9 C 0.01105 0.27142 0.10449 0.0
O10 O 0.09267 0.20288 0.09098 0.0
C11 C 0.12599 0.41843 0.07112 0.0
O12 O 0.14977 0.28365 0.09529 0.0
O13 O 0.1558 0.40656 0.08106 0.0
C14 C 0.81992 0.10585 0.19889 0.0
O15 O 0.81961 0.06652 0.20616 0.0
Cd16 Cd 0.79441 0.03446 0.2434 0.0
O17 O 0.80091 0.12781 0.21038 0.0
Cd18 Cd 0.75207 0.11483 0.2456 0.0
C19 C 0.85937 0.14634 0.27405 0.0
O20 O 0.71241 0.02254 0.25014 0.0
O21 O 0.70813 0.0653 0.278 0.0
O22 O 0.69108 0.12467 0.22272 0.0
C23 C 0.69793 0.02284 0.26998 0.0
O24 O 0.85122 0.10279 0.26797 0.0
C25 C 0.68528 0.15366 0.23621 0.0
O26 O 0.83083 0.16361 0.26733 0.0
O27 O 0.71242 0.16675 0.25374 0.0
C28 C 0.68793 0.83383 0.36244 0.0
O29 O 0.72841 0.83499 0.369 0.0
Cd30 Cd 0.74121 0.80643 0.40455 0.0
O31 O 0.64799 0.81337 0.37436 0.0
Cd32 Cd 0.61901 0.76523 0.41005 0.0
C33 C 0.6986 0.86783 0.44035 0.0
O34 O 0.67225 0.72477 0.40995 0.0
O35 O 0.62991 0.71625 0.43983 0.0
O36 O 0.54133 0.70547 0.39066 0.0
C37 C 0.66155 0.70778 0.42963 0.0
O38 O 0.73334 0.85961 0.43292 0.0
C39 C 0.51161 0.70387 0.40594 0.0
O40 O 0.65295 0.84193 0.43352 0.0
O41 O 0.5317 0.73253 0.42269 0.0
C42 C 0.80362 0.65574 0.52762 0.0
O43 O 0.84594 0.69592 0.52947 0.0
Cd44 Cd 0.88789 0.72291 0.56503 0.0
O45 O 0.78712 0.62364 0.54339 0.0
Cd46 Cd 0.81449 0.60548 0.57992 0.0
C47 C 0.7804 0.68881 0.59809 0.0
O48 O 0.90687 0.66258 0.5804 0.0
O49 O 0.87039 0.63072 0.6118 0.0
O50 O 0.80776 0.52956 0.56295 0.0
C51 C 0.91067 0.6595 0.6014 0.0
O52 O 0.82079 0.72033 0.58817 0.0
C53 C 0.7828 0.50016 0.57873 0.0
O54 O 0.76608 0.6417 0.59796 0.0
O55 O 0.77045 0.51921 0.59483 0.0
C56 C 0.09741 0.81399 0.69971 0.0
O57 O 0.09129 0.85161 0.70389 0.0
Cd58 Cd 0.11914 0.89902 0.7385 0.0
O59 O 0.12405 0.803 0.71259 0.0
Cd60 Cd 0.17983 0.83623 0.74587 0.0
C61 C 0.07533 0.8003 0.77668 0.0
O62 O 0.20621 0.92709 0.74463 0.0
O63 O 0.22209 0.89872 0.77477 0.0
O64 O 0.24314 0.82908 0.72365 0.0
C65 C 0.22396 0.93574 0.76437 0.0
O66 O 0.07553 0.83893 0.76836 0.0
C67 C 0.25522 0.80737 0.73859 0.0
O68 O 0.10679 0.78638 0.7703 0.0
O69 O 0.23119 0.79764 0.75689 0.0
C70 C 0.26743 0.12681 0.86244 0.0
O71 O 0.22689 0.12896 0.86486 0.0
Cd72 Cd 0.20522 0.14815 0.90098 0.0
O73 O 0.30088 0.14302 0.87781 0.0
Cd74 Cd 0.32102 0.18869 0.91415 0.0
C75 C 0.23866 0.07534 0.93467 0.0
O76 O 0.26623 0.22847 0.91519 0.0
O77 O 0.29905 0.22155 0.94619 0.0
O78 O 0.39621 0.25475 0.89602 0.0
C79 C 0.2721 0.23649 0.93611 0.0
O80 O 0.20657 0.08477 0.92515 0.0
C81 C 0.42708 0.25913 0.91133 0.0
O82 O 0.2861 0.1062 0.93325 0.0
O83 O 0.40912 0.22917 0.92776 0.0
C84 C 0.70569 0.84456 0.76644 0.0
O85 O 0.74393 0.87619 0.75545 0.0
Cd86 Cd 0.74468 0.91185 0.71957 0.0
O87 O 0.661 0.82909 0.75896 0.0
Cd88 Cd 0.62209 0.84483 0.72521 0.0
C89 C 0.67851 0.80003 0.69041 0.0
O90 O 0.68121 0.9355 0.71903 0.0
O91 O 0.62599 0.89624 0.69331 0.0
O92 O 0.55683 0.84314 0.74972 0.0
C93 C 0.66298 0.93709 0.70018 0.0
O94 O 0.71801 0.84272 0.69324 0.0
C95 C 0.51989 0.81405 0.7373 0.0
O96 O 0.63828 0.78729 0.70162 0.0
O97 O 0.53035 0.79766 0.71973 0.0
C98 C 0.81035 0.67418 0.94059 0.0
O99 O 0.80347 0.71201 0.93912 0.0
Cd100 Cd 0.78353 0.73418 0.90332 0.0
O101 O 0.79686 0.64237 0.92467 0.0
Cd102 Cd 0.74988 0.62173 0.88873 0.0
C103 C 0.86232 0.70777 0.86969 0.0
O104 O 0.70682 0.67305 0.8862 0.0
O105 O 0.72747 0.6499 0.8556 0.0
O106 O 0.68257 0.54609 0.90572 0.0
C107 C 0.70671 0.67248 0.86496 0.0
O108 O 0.84975 0.73758 0.87919 0.0
C109 C 0.67988 0.51591 0.89045 0.0
O110 O 0.83402 0.66001 0.87103 0.0
O111 O 0.71105 0.53452 0.87441 0.0
C112 C 0.12721 0.84253 0.10553 0.0
O113 O 0.09177 0.85151 0.10026 0.0
Cd114 Cd 0.04828 0.82822 0.06475 0.0
O115 O 0.13778 0.81491 0.09312 0.0
Cd116 Cd 0.10411 0.76149 0.05916 0.0
C117 C 0.1497 0.86641 0.02814 0.0
O118 O 0.01449 0.74122 0.05753 0.0
O119 O 0.04701 0.72905 0.02763 0.0
O120 O 0.0846 0.68493 0.07855 0.0
C121 C 0.00862 0.72633 0.03736 0.0
O122 O 0.11194 0.86903 0.03597 0.0
C123 C 0.11434 0.67456 0.06774 0.0
O124 O 0.16029 0.83272 0.03469 0.0
O125 O 0.14248 0.70645 0.05325 0.0
C126 C 0.2456 0.12242 0.27438 0.0
O127 O 0.20437 0.0887 0.26581 0.0
Cd128 Cd 0.19346 0.04896 0.22993 0.0
O129 O 0.28755 0.13762 0.2642 0.0
Cd130 Cd 0.31948 0.11821 0.22917 0.0
C131 C 0.25285 0.15469 0.196 0.0
O132 O 0.2584 0.02801 0.22705 0.0
O133 O 0.30902 0.05815 0.19931 0.0
O134 O 0.38984 0.12618 0.25199 0.0
C135 C 0.27139 0.02059 0.20794 0.0
O136 O 0.21425 0.11353 0.20179 0.0
C137 C 0.42409 0.1523 0.23797 0.0
O138 O 0.29629 0.16944 0.2048 0.0
O139 O 0.40993 0.16407 0.22009 0.0
C140 C 0.12809 0.29256 0.43651 0.0
O141 O 0.13441 0.25437 0.43478 0.0
Cd142 Cd 0.16246 0.23286 0.40073 0.0
O143 O 0.14303 0.32554 0.42111 0.0
Cd144 Cd 0.19173 0.34744 0.38568 0.0
C145 C 0.08807 0.2533 0.36181 0.0
O146 O 0.23934 0.30097 0.38801 0.0
O147 O 0.23425 0.3303 0.35594 0.0
O148 O 0.25112 0.42668 0.40313 0.0
C149 C 0.25013 0.30595 0.36736 0.0
O150 O 0.10144 0.22559 0.37256 0.0
C151 C 0.25353 0.45439 0.38687 0.0
O152 O 0.11192 0.30122 0.3642 0.0
O153 O 0.22473 0.43265 0.37028 0.0
C154 C 0.84687 0.12721 0.60929 0.0
O155 O 0.88938 0.13045 0.60485 0.0
Cd156 Cd 0.93024 0.15369 0.56905 0.0
O157 O 0.82553 0.14249 0.59534 0.0
Cd158 Cd 0.84435 0.18737 0.55866 0.0
C159 C 0.82665 0.07953 0.53456 0.0
O160 O 0.9379 0.23131 0.5576 0.0
O161 O 0.89864 0.2279 0.52705 0.0
O162 O 0.82776 0.24989 0.57663 0.0
C163 C 0.94033 0.24161 0.53695 0.0
O164 O 0.86932 0.09143 0.54347 0.0
C165 C 0.79904 0.25059 0.56136 0.0
O166 O 0.80529 0.10624 0.53793 0.0
O167 O 0.78914 0.21993 0.54523 0.0
H168 H 0.18897 0.64913 0.0612 0.0
H169 H 0.03241 0.58835 0.08022 0.0
H170 H 0.02254 0.50422 0.08255 0.0
H171 H 0.05695 0.4472 0.07827 0.0
H172 H 0.21479 0.50602 0.06292 0.0
H173 H 0.22594 0.59162 0.06014 0.0
C174 C 0.15291 0.6174 0.06595 0.0
C175 C 0.11141 0.6249 0.07041 0.0
C176 C 0.14771 0.56885 0.06785 0.0
C177 C 0.06498 0.58364 0.0768 0.0
C178 C 0.05918 0.53542 0.07806 0.0
C179 C 0.09382 0.47885 0.07433 0.0
C180 C 0.13483 0.47057 0.07047 0.0
C181 C 0.10007 0.52755 0.07346 0.0
C182 C 0.18268 0.51175 0.06586 0.0
C183 C 0.18894 0.56053 0.06423 0.0
H184 H 0.63055 0.16842 0.26796 0.0
H185 H 0.6472 0.16442 0.19677 0.0
H186 H 0.57065 0.17105 0.19105 0.0
H187 H 0.49385 0.16775 0.20634 0.0
H188 H 0.47226 0.16159 0.27751 0.0
H189 H 0.55588 0.1696 0.28328 0.0
C190 C 0.61798 0.17018 0.25122 0.0
C191 C 0.64443 0.16616 0.2328 0.0
C192 C 0.57268 0.17157 0.24809 0.0
C193 C 0.62735 0.1675 0.21118 0.0
C194 C 0.58353 0.17109 0.20792 0.0
C195 C 0.50794 0.16917 0.22311 0.0
C196 C 0.47707 0.16412 0.24148 0.0
C197 C 0.55508 0.17163 0.22625 0.0
C198 C 0.49537 0.16526 0.26311 0.0
C199 C 0.5431 0.16975 0.26641 0.0
H200 H 0.45299 0.65701 0.36971 0.0
H201 H 0.44854 0.66491 0.4414 0.0
H202 H 0.36428 0.5908 0.44171 0.0
H203 H 0.29744 0.51722 0.42198 0.0
H204 H 0.29999 0.51067 0.35024 0.0
H205 H 0.37886 0.59125 0.34951 0.0
C206 C 0.43309 0.64302 0.38534 0.0
C207 C 0.45723 0.66584 0.40552 0.0
C208 C 0.38447 0.60049 0.38539 0.0
C209 C 0.43083 0.64789 0.42564 0.0
C210 C 0.38274 0.60533 0.42585 0.0
C211 C 0.31471 0.53408 0.40618 0.0
C212 C 0.29342 0.50784 0.38622 0.0
C213 C 0.35999 0.58034 0.40589 0.0
C214 C 0.3157 0.53022 0.36583 0.0
C215 C 0.36103 0.57608 0.36541 0.0
H216 H 0.77178 0.43925 0.54356 0.0
H217 H 0.77492 0.44433 0.61538 0.0
H218 H 0.77604 0.36451 0.61655 0.0
H219 H 0.78598 0.29849 0.59695 0.0
H220 H 0.77812 0.29097 0.52518 0.0
H221 H 0.76825 0.36602 0.52416 0.0
C222 C 0.77179 0.42234 0.55945 0.0
C223 C 0.77388 0.44784 0.57934 0.0
C224 C 0.77191 0.3762 0.55999 0.0
C225 C 0.77327 0.42536 0.59984 0.0
C226 C 0.77424 0.37989 0.60051 0.0
C227 C 0.78116 0.31281 0.58113 0.0
C228 C 0.78337 0.28964 0.56116 0.0
C229 C 0.77504 0.35574 0.58068 0.0
C230 C 0.77651 0.30814 0.54078 0.0
C231 C 0.7712 0.35126 0.54018 0.0
H232 H 0.44462 0.79069 0.70743 0.0
H233 H 0.47947 0.81676 0.77754 0.0
H234 H 0.39696 0.8105 0.78454 0.0
H235 H 0.31855 0.80577 0.77014 0.0
H236 H 0.28848 0.78903 0.69947 0.0
H237 H 0.36513 0.78301 0.69323 0.0
C238 C 0.43373 0.79408 0.72429 0.0
C239 C 0.4679 0.80401 0.74196 0.0
C240 C 0.38722 0.79249 0.72803 0.0
C241 C 0.45373 0.80915 0.76368 0.0
C242 C 0.40665 0.80568 0.76767 0.0
C243 C 0.3284 0.7999 0.75344 0.0
C244 C 0.29799 0.79769 0.73528 0.0
C245 C 0.37359 0.79854 0.7499 0.0
C246 C 0.31147 0.79092 0.71368 0.0
C247 C 0.35528 0.78755 0.71011 0.0
H248 H 0.48438 0.3064 0.87513 0.0
H249 H 0.48798 0.30602 0.94697 0.0
H250 H 0.5692 0.38425 0.9469 0.0
H251 H 0.63433 0.45744 0.92643 0.0
H252 H 0.63337 0.45567 0.85459 0.0
H253 H 0.55636 0.37333 0.85458 0.0
C254 C 0.50344 0.32306 0.89074 0.0
C255 C 0.48001 0.30087 0.91103 0.0
C256 C 0.55038 0.36779 0.89056 0.0
C257 C 0.50529 0.3224 0.93114 0.0
C258 C 0.55158 0.3673 0.93111 0.0
C259 C 0.61766 0.43857 0.91079 0.0
C260 C 0.63904 0.46275 0.89054 0.0
C261 C 0.57374 0.39105 0.91094 0.0
C262 C 0.61757 0.43774 0.87039 0.0
C263 C 0.57337 0.39083 0.87038 0.0
H264 H 0.20878 0.11602 0.15703 0.0
H265 H 0.28203 0.25561 0.1938 0.0
H266 H 0.2572 0.29674 0.16492 0.0
H267 H 0.20501 0.28885 0.13136 0.0
H268 H 0.13301 0.1474 0.09546 0.0
H269 H 0.16777 0.11143 0.12158 0.0
C270 C 0.21995 0.15571 0.15851 0.0
C271 C 0.24645 0.18275 0.17749 0.0
C272 C 0.20556 0.17862 0.14202 0.0
C273 C 0.26149 0.23421 0.17924 0.0
C274 C 0.24705 0.25752 0.16281 0.0
C275 C 0.19803 0.25061 0.12901 0.0
C276 C 0.16571 0.22058 0.11171 0.0
C277 C 0.21774 0.22962 0.1444 0.0
C278 C 0.15702 0.17107 0.10884 0.0
C279 C 0.17682 0.15035 0.12378 0.0
H280 H 0.91454 0.11255 0.29586 0.0
H281 H 0.89946 0.24551 0.28783 0.0
H282 H -0.0305 0.29135 0.31423 0.0
H283 H 0.03518 0.29281 0.33984 0.0
H284 H 0.04558 0.1568 0.3473 0.0
H285 H -0.02276 0.11334 0.32087 0.0
C286 C 0.92647 0.15166 0.29972 0.0
C287 C 0.90184 0.17555 0.28975 0.0
C288 C 0.96601 0.17732 0.31492 0.0
C289 C 0.91778 0.22615 0.29523 0.0
C290 C 0.95783 0.25236 0.31033 0.0
C291 C 0.0224 0.2537 0.33566 0.0
C292 C 0.04561 0.22827 0.3457 0.0
C293 C -0.01773 0.22825 0.32033 0.0
C294 C 0.02843 0.17747 0.34008 0.0
C295 C -0.01069 0.1524 0.32485 0.0
H296 H 0.74104 0.04456 0.50819 0.0
H297 H 0.86177 0.01439 0.52658 0.0
H298 H 0.83197 0.94662 0.49955 0.0
H299 H 0.77511 0.89825 0.4696 0.0
H300 H 0.65203 0.92368 0.45082 0.0
H301 H 0.67909 -0.00937 0.47912 0.0
C302 C 0.76048 0.02284 0.5064 0.0
C303 C 0.80402 0.03525 0.51933 0.0
C304 C 0.74302 -0.01677 0.49065 0.0
C305 C 0.82852 0.00636 0.51682 0.0
C306 C 0.81156 0.96741 0.50131 0.0
C307 C 0.75414 0.91845 0.47163 0.0
C308 C 0.71216 0.90663 0.45792 0.0
C309 C 0.7695 0.95611 0.48792 0.0
C310 C 0.6847 0.93233 0.46112 0.0
C311 C 0.70023 0.97062 0.47727 0.0
H312 H 0.7165 0.64755 0.63388 0.0
H313 H 0.7812 0.77645 0.5901 0.0
H314 H 0.74945 0.81958 0.61375 0.0
H315 H 0.71404 0.82589 0.64916 0.0
H316 H 0.64875 0.69927 0.69379 0.0
H317 H 0.66923 0.6497 0.66748 0.0
C318 C 0.7226 0.68457 0.62932 0.0
C319 C 0.7521 0.70914 0.6105 0.0
C320 C 0.70464 0.7098 0.64326 0.0
C321 C 0.75951 0.75707 0.60473 0.0
C322 C 0.74136 0.78186 0.61823 0.0
C323 C 0.70347 0.78707 0.65291 0.0
C324 C 0.68062 0.76626 0.67334 0.0
C325 C 0.71565 0.75941 0.63791 0.0
C326 C 0.66641 0.71587 0.67805 0.0
C327 C 0.67845 0.68778 0.66309 0.0
H328 H 0.89829 0.66028 0.84176 0.0
H329 H 0.93158 0.80697 0.8666 0.0
H330 H 0.00164 0.84744 0.8409 0.0
H331 H 0.0492 0.84258 0.80938 0.0
H332 H 0.02061 0.69817 0.7843 0.0
H333 H 0.95339 0.65542 0.81216 0.0
C334 C 0.92131 0.70102 0.84173 0.0
C335 C 0.90888 0.73038 0.85591 0.0
C336 C 0.96216 0.72457 0.82675 0.0
C337 C 0.93952 0.7832 0.85574 0.0
C338 C -0.02023 0.80661 0.84101 0.0
C339 C 0.02844 0.80169 0.81012 0.0
C340 C 0.03903 0.77344 0.7947 0.0
C341 C -0.00942 0.7778 0.82611 0.0
C342 C 0.0128 0.72059 0.79604 0.0
C343 C -0.02568 0.69626 0.81188 0.0
H344 H 0.10966 0.88129 -0.00851 0.0
H345 H 0.25254 0.92976 0.02446 0.0
H346 H 0.29504 -0.0023 -0.00305 0.0
H347 H 0.28859 0.04846 0.96574 0.0
H348 H 0.14342 -0.00379 0.93357 0.0
H349 H 0.10505 0.92448 0.95835 0.0
C350 C 0.15031 0.90629 -0.0076 0.0
C351 C 0.17803 0.90111 0.00991 0.0
C352 C 0.17395 0.94487 0.97676 0.0
C353 C 0.23063 0.93317 0.01096 0.0
C354 C 0.25472 0.97213 -0.00465 0.0
C355 C 0.2488 0.02093 0.96396 0.0
C356 C 0.21886 0.02849 0.94804 0.0
C357 C 0.22643 -0.02079 0.97849 0.0
C358 C 0.16735 -0.00787 0.94588 0.0
C359 C 0.14519 0.95086 0.96004 0.0
H360 H 0.18745 0.31124 0.01338 0.0
H361 H 0.04687 0.1872 -0.01037 0.0
H362 H 0.09025 0.17799 0.95711 0.0
H363 H 0.17035 0.19757 0.93823 0.0
H364 H 0.31139 0.31542 0.96455 0.0
H365 H 0.2659 0.33542 -0.0071 0.0
C366 C 0.16603 0.2829 0.00086 0.0
C367 C 0.114 0.24979 0.00404 0.0
C368 C 0.19156 0.27662 0.98262 0.0
C369 C 0.08701 0.21299 -0.01231 0.0
C370 C 0.11183 0.20763 0.96909 0.0
C371 C 0.19075 0.22866 0.94976 0.0
C372 C 0.24393 0.25559 0.94921 0.0
C373 C 0.1644 0.23816 0.96674 0.0
C374 C 0.27035 0.29474 0.96458 0.0
C375 C 0.24438 0.30586 0.98088 0.0
H376 H 0.86612 0.20442 0.18711 0.0
H377 H 0.83347 0.05765 0.16329 0.0
H378 H 0.88426 0.09575 0.12995 0.0
H379 H 0.94493 0.17178 0.10936 0.0
H380 H -0.015 0.31851 0.13573 0.0
H381 H 0.92402 0.27982 0.16601 0.0
C382 C 0.86943 0.18072 0.17443 0.0
C383 C 0.84603 0.12831 0.17765 0.0
C384 C 0.90024 0.20306 0.15575 0.0
C385 C 0.8513 0.09814 0.16123 0.0
C386 C 0.88034 0.1199 0.14217 0.0
C387 C 0.93922 0.19504 0.12148 0.0
C388 C -0.03137 0.24777 0.12028 0.0
C389 C 0.90592 0.17243 0.13947 0.0
C390 C 0.96226 0.27779 0.13634 0.0
C391 C 0.92765 0.25569 0.15368 0.0
H392 H 0.73634 0.95931 0.27365 0.0
H393 H 0.62364 -0.00842 0.30082 0.0
H394 H 0.60571 0.93032 0.33059 0.0
H395 H 0.62929 0.8753 0.35132 0.0
H396 H 0.7489 0.8505 0.32645 0.0
H397 H 0.7569 0.90069 0.29342 0.0
C398 C 0.70695 0.95179 0.28577 0.0
C399 C 0.68086 -0.02072 0.285 0.0
C400 C 0.69873 0.91843 0.30348 0.0
C401 C 0.64382 0.97041 0.30108 0.0
C402 C 0.63382 0.93567 0.31816 0.0
C403 C 0.65648 0.88018 0.33847 0.0
C404 C 0.68853 0.85933 0.34135 0.0
C405 C 0.66212 0.9106 0.31991 0.0
C406 C 0.72401 0.86646 0.32469 0.0
C407 C 0.7286 0.89514 0.30579 0.0
H408 H 0.83089 0.69882 0.48647 0.0
H409 H 0.7008 0.60023 0.52598 0.0
H410 H 0.64449 0.60345 0.49775 0.0
H411 H 0.63283 0.64315 0.46427 0.0
H412 H 0.76196 0.73872 0.42377 0.0
H413 H 0.81792 0.72732 0.44974 0.0
C414 C 0.79018 0.6773 0.48869 0.0
C415 C 0.77016 0.64994 0.50847 0.0
C416 C 0.75785 0.67911 0.47229 0.0
C417 C 0.7173 0.62168 0.51096 0.0
C418 C 0.685 0.62374 0.49487 0.0
C419 C 0.67311 0.66056 0.46091 0.0
C420 C 0.69337 0.69218 0.44233 0.0
C421 C 0.70493 0.65363 0.47584 0.0
C422 C 0.74548 0.71418 0.43798 0.0
C423 C 0.77754 0.70796 0.45291 0.0
H424 H 0.07213 0.83787 0.65954 0.0
H425 H 0.05966 0.71283 0.69811 0.0
H426 H 0.00423 0.65371 0.66982 0.0
H427 H 0.95232 0.63708 0.63607 0.0
H428 H -0.03178 0.76113 0.59594 0.0
H429 H 0.02992 0.82124 0.62259 0.0
C430 C 0.05772 0.79772 0.66155 0.0
C431 C 0.06939 0.77968 0.68102 0.0
C432 C 0.02655 0.76383 0.64495 0.0
C433 C 0.05117 0.72764 0.6833 0.0
C434 C 0.01932 0.69377 0.66717 0.0
C435 C -0.02965 0.6773 0.63293 0.0
C436 C 0.95593 0.69485 0.61419 0.0
C437 C 0.00586 0.71136 0.64819 0.0
C438 C -0.02071 0.74689 0.61017 0.0
C439 C 0.01411 0.7812 0.62553 0.0
H440 H 0.21539 0.10277 0.82284 0.0
H441 H 0.33248 0.0896 0.85836 0.0
H442 H 0.33322 0.03341 0.82959 0.0
H443 H 0.29349 -0.02014 0.79686 0.0
H444 H 0.17858 -0.00596 0.7603 0.0
H445 H 0.18461 0.05847 0.78669 0.0
C446 C 0.24161 0.08822 0.8241 0.0
C447 C 0.27326 0.09986 0.84296 0.0
C448 C 0.24207 0.05589 0.80735 0.0
C449 C 0.30751 0.08121 0.84414 0.0
C450 C 0.30786 0.04882 0.82771 0.0
C451 C 0.27062 -0.00205 0.79442 0.0
C452 C 0.23542 -0.0179 0.77683 0.0
C453 C 0.27429 0.03475 0.80962 0.0
C454 C 0.20616 0.00589 0.77368 0.0
C455 C 0.20928 0.04236 0.78889 0.0
H456 H 0.63458 0.77945 0.79603 0.0
H457 H 0.79568 0.86047 0.78353 0.0
H458 H 0.81008 0.81807 0.81464 0.0
H459 H 0.77683 0.75199 0.84293 0.0
H460 H 0.61683 0.67027 0.85629 0.0
H461 H 0.60202 0.71933 0.82761 0.0
C462 C 0.67287 0.78827 0.80028 0.0
C463 C 0.71386 0.82274 0.78716 0.0
C464 C 0.6811 0.76358 0.81836 0.0
C465 C 0.76328 0.83398 0.79312 0.0
C466 C 0.77167 0.80967 0.81095 0.0
C467 C 0.73887 0.74585 0.83986 0.0
C468 C 0.69793 0.70798 0.8516 0.0
C469 C 0.73085 0.77364 0.82331 0.0
C470 C 0.64886 0.69978 0.84754 0.0
C471 C 0.64046 0.72748 0.83103 0.0
H472 H 0.83261 0.72413 0.98064 0.0
H473 H 0.85584 0.61621 0.9428 0.0
H474 H 0.91637 0.61991 0.97049 0.0
H475 H -0.03036 0.66052 0.00322 0.0
H476 H 0.94516 0.76577 0.04222 0.0
H477 H 0.87791 0.75606 0.01649 0.0
C478 C 0.85034 0.70085 0.97864 0.0
C479 C 0.84011 0.67048 0.95946 0.0
C480 C 0.88519 0.70295 -0.00524 0.0
C481 C 0.86299 0.64007 0.9573 0.0
C482 C 0.89789 0.64232 0.9731 0.0
C483 C 0.94895 0.68068 0.00626 0.0
C484 C 0.96251 0.71415 0.02439 0.0
C485 C 0.91032 0.67464 -0.00847 0.0
C486 C 0.9352 0.73968 0.02836 0.0
C487 C 0.89703 0.73438 0.01358 0.0
H488 H 0.09898 0.86607 0.14488 0.0
H489 H 0.2282 0.87727 0.10973 0.0
H490 H 0.28446 0.93036 0.13945 0.0
H491 H 0.29759 -0.01949 0.17356 0.0
H492 H 0.16824 0.96486 0.21012 0.0
H493 H 0.1113 0.90604 0.18198 0.0
C494 C 0.13939 0.87964 0.14392 0.0
C495 C 0.15955 0.86837 0.12504 0.0
C496 C 0.17146 0.90944 0.16128 0.0
C497 C 0.21183 0.88548 0.12411 0.0
C498 C 0.24404 0.91602 0.14104 0.0
C499 C 0.25688 0.9634 0.17555 0.0
C500 C 0.23715 -0.02252 0.19369 0.0
C501 C 0.2244 0.9292 0.15944 0.0
C502 C 0.18438 0.95472 0.19627 0.0
C503 C 0.15179 0.92133 0.1801 0.0
H504 H 0.31868 0.21077 0.29249 0.0
H505 H 0.1686 0.08681 0.30457 0.0
H506 H 0.16114 0.12947 0.33763 0.0
H507 H 0.19248 0.20669 0.36015 0.0
H508 H 0.33857 0.33378 0.34599 0.0
H509 H 0.35314 0.28506 0.31718 0.0
C510 C 0.2847 0.1927 0.30257 0.0
C511 C 0.24407 0.14588 0.29588 0.0
C512 C 0.2801 0.21806 0.32131 0.0
C513 C 0.20024 0.1231 0.30914 0.0
C514 C 0.19594 0.14742 0.32811 0.0
C515 C 0.22824 0.22282 0.3513 0.0
C516 C 0.26501 0.27309 0.35542 0.0
C517 C 0.235 0.19549 0.33399 0.0
C518 C 0.31041 0.29464 0.34335 0.0
C519 C 0.31837 0.26701 0.32671 0.0
H520 H 0.11634 0.25184 0.4781 0.0
H521 H 0.07312 0.34124 0.43726 0.0
H522 H 0.01462 0.3377 0.46598 0.0
H523 H -0.03112 0.30137 0.5008 0.0
H524 H 0.01393 0.21538 0.54275 0.0
H525 H 0.07914 0.22606 0.51574 0.0
C526 C 0.09459 0.27109 0.47565 0.0
C527 C 0.09858 0.29616 0.45542 0.0
C528 C 0.06129 0.26943 0.49241 0.0
C529 C 0.07074 0.32159 0.45262 0.0
C530 C 0.03707 0.31943 0.46901 0.0
C531 C -0.00619 0.28597 0.50423 0.0
C532 C -0.01344 0.25741 0.52359 0.0
C533 C 0.03111 0.29239 0.48869 0.0
C534 C 0.0191 0.2378 0.52799 0.0
C535 C 0.05602 0.2435 0.51245 0.0
H536 H 0.76432 0.00234 0.69795 0.0
H537 H 0.62189 0.96507 0.66668 0.0
H538 H 0.66638 0.02557 0.63697 0.0
H539 H 0.74578 0.08215 0.61779 0.0
H540 H 0.88835 0.11371 0.64733 0.0
H541 H 0.84404 0.06283 0.67975 0.0
C542 C 0.74309 0.00834 0.68489 0.0
C543 C 0.68994 -0.02054 0.68452 0.0
C544 C 0.76903 0.04177 0.66736 0.0
C545 C 0.66288 -0.01306 0.66729 0.0
C546 C 0.68828 0.02137 0.65025 0.0
C547 C 0.76722 0.07862 0.63149 0.0
C548 C 0.82031 0.10162 0.63008 0.0
C549 C 0.74139 0.04798 0.64978 0.0
C550 C 0.84744 0.09618 0.64791 0.0
C551 C 0.82212 0.06705 0.66647 0.0
loop_
_geom_bond_atom_site_label_1
_geom_bond_atom_site_label_2
_geom_bond_distance
_geom_bond_site_symmetry_2
_ccdc_geom_bond_type
C0 O1 1.306 . S
C0 O3 1.160 . S
O1 C0 1.306 . S
O1 Cd2 2.228 . S
Cd2 O1 2.228 . S
Cd2 O6 2.273 . S
Cd2 O10 2.277 . S
O3 C0 1.160 . S
O3 Cd4 2.203 . S
Cd4 O3 2.203 . S
Cd4 O6 2.411 . S
Cd4 O7 2.333 . S
Cd4 O8 2.352 . S
Cd4 O12 2.277 . S
Cd4 O13 2.356 . S
C5 O10 1.209 . S
C5 O12 1.226 . S
O6 Cd2 2.273 . S
O6 Cd4 2.411 . S
O6 C9 1.320 . S
O7 Cd4 2.333 . S
O7 C9 1.214 . S
O8 Cd4 2.352 . S
O8 C11 1.258 . S
C9 O6 1.320 . S
C9 O7 1.214 . S
O10 Cd2 2.277 . S
O10 C5 1.209 . S
C11 O8 1.258 . S
C11 O13 1.282 . S
O12 Cd4 2.277 . S
O12 C5 1.226 . S
O13 Cd4 2.356 . S
O13 C11 1.282 . S
C14 O15 1.306 . S
C14 O17 1.160 . S
O15 C14 1.306 . S
O15 Cd16 2.228 . S
Cd16 O15 2.228 . S
Cd16 O20 2.273 . S
Cd16 O24 2.277 . S
O17 C14 1.160 . S
O17 Cd18 2.203 . S
Cd18 O17 2.203 . S
Cd18 O20 2.411 . S
Cd18 O21 2.333 . S
Cd18 O22 2.352 . S
Cd18 O26 2.277 . S
Cd18 O27 2.356 . S
C19 O24 1.209 . S
C19 O26 1.226 . S
O20 Cd16 2.273 . S
O20 Cd18 2.411 . S
O20 C23 1.320 . S
O21 Cd18 2.333 . S
O21 C23 1.214 . S
O22 Cd18 2.352 . S
O22 C25 1.258 . S
C23 O20 1.320 . S
C23 O21 1.214 . S
O24 Cd16 2.277 . S
O24 C19 1.209 . S
C25 O22 1.258 . S
C25 O27 1.282 . S
O26 Cd18 2.277 . S
O26 C19 1.226 . S
O27 Cd18 2.356 . S
O27 C25 1.282 . S
C28 O29 1.306 . S
C28 O31 1.160 . S
O29 C28 1.306 . S
O29 Cd30 2.228 . S
Cd30 O29 2.228 . S
Cd30 O34 2.273 . S
Cd30 O38 2.277 . S
O31 C28 1.160 . S
O31 Cd32 2.203 . S
Cd32 O31 2.203 . S
Cd32 O34 2.411 . S
Cd32 O35 2.333 . S
Cd32 O36 2.352 . S
Cd32 O40 2.277 . S
Cd32 O41 2.356 . S
C33 O38 1.209 . S
C33 O40 1.226 . S
O34 Cd30 2.273 . S
O34 Cd32 2.411 . S
O34 C37 1.320 . S
O35 Cd32 2.333 . S
O35 C37 1.214 . S
O36 Cd32 2.352 . S
O36 C39 1.258 . S
C37 O34 1.320 . S
C37 O35 1.214 . S
O38 Cd30 2.277 . S
O38 C33 1.209 . S
C39 O36 1.258 . S
C39 O41 1.282 . S
O40 Cd32 2.277 . S
O40 C33 1.226 . S
O41 Cd32 2.356 . S
O41 C39 1.282 . S
C42 O43 1.306 . S
C42 O45 1.160 . S
O43 C42 1.306 . S
O43 Cd44 2.228 . S
Cd44 O43 2.228 . S
Cd44 O48 2.273 . S
Cd44 O52 2.277 . S
O45 C42 1.160 . S
O45 Cd46 2.203 . S
Cd46 O45 2.203 . S
Cd46 O48 2.411 . S
Cd46 O49 2.333 . S
Cd46 O50 2.352 . S
Cd46 O54 2.277 . S
Cd46 O55 2.356 . S
C47 O52 1.209 . S
C47 O54 1.226 . S
O48 Cd44 2.273 . S
O48 Cd46 2.411 . S
O48 C51 1.320 . S
O49 Cd46 2.333 . S
O49 C51 1.214 . S
O50 Cd46 2.352 . S
O50 C53 1.258 . S
C51 O48 1.320 . S
C51 O49 1.214 . S
O52 Cd44 2.277 . S
O52 C47 1.209 . S
C53 O50 1.258 . S
C53 O55 1.282 . S
O54 Cd46 2.277 . S
O54 C47 1.226 . S
O55 Cd46 2.356 . S
O55 C53 1.282 . S
C56 O57 1.306 . S
C56 O59 1.160 . S
O57 C56 1.306 . S
O57 Cd58 2.228 . S
Cd58 O57 2.228 . S
Cd58 O62 2.273 . S
Cd58 O66 2.277 . S
O59 C56 1.160 . S
O59 Cd60 2.203 . S
Cd60 O59 2.203 . S
Cd60 O62 2.411 . S
Cd60 O63 2.333 . S
Cd60 O64 2.352 . S
Cd60 O68 2.277 . S
Cd60 O69 2.356 . S
C61 O66 1.209 . S
C61 O68 1.226 . S
O62 Cd58 2.273 . S
O62 Cd60 2.411 . S
O62 C65 1.320 . S
O63 Cd60 2.333 . S
O63 C65 1.214 . S
O64 Cd60 2.352 . S
O64 C67 1.258 . S
C65 O62 1.320 . S
C65 O63 1.214 . S
O66 Cd58 2.277 . S
O66 C61 1.209 . S
C67 O64 1.258 . S
C67 O69 1.282 . S
O68 Cd60 2.277 . S
O68 C61 1.226 . S
O69 Cd60 2.356 . S
O69 C67 1.282 . S
C70 O71 1.306 . S
C70 O73 1.160 . S
O71 C70 1.306 . S
O71 Cd72 2.228 . S
Cd72 O71 2.228 . S
Cd72 O76 2.273 . S
Cd72 O80 2.277 . S
O73 C70 1.160 . S
O73 Cd74 2.203 . S
Cd74 O73 2.203 . S
Cd74 O76 2.411 . S
Cd74 O77 2.333 . S
Cd74 O78 2.352 . S
Cd74 O82 2.277 . S
Cd74 O83 2.356 . S
C75 O80 1.209 . S
C75 O82 1.226 . S
O76 Cd72 2.273 . S
O76 Cd74 2.411 . S
O76 C79 1.320 . S
O77 Cd74 2.333 . S
O77 C79 1.214 . S
O78 Cd74 2.352 . S
O78 C81 1.258 . S
C79 O76 1.320 . S
C79 O77 1.214 . S
O80 Cd72 2.277 . S
O80 C75 1.209 . S
C81 O78 1.258 . S
C81 O83 1.282 . S
O82 Cd74 2.277 . S
O82 C75 1.226 . S
O83 Cd74 2.356 . S
O83 C81 1.282 . S
C84 O85 1.306 . S
C84 O87 1.160 . S
O85 C84 1.306 . S
O85 Cd86 2.228 . S
Cd86 O85 2.228 . S
Cd86 O90 2.273 . S
Cd86 O94 2.277 . S
O87 C84 1.160 . S
O87 Cd88 2.203 . S
Cd88 O87 2.203 . S
Cd88 O90 2.411 . S
Cd88 O91 2.333 . S
Cd88 O92 2.352 . S
Cd88 O96 2.277 . S
Cd88 O97 2.356 . S
C89 O94 1.209 . S
C89 O96 1.226 . S
O90 Cd86 2.273 . S
O90 Cd88 2.411 . S
O90 C93 1.320 . S
O91 Cd88 2.333 . S
O91 C93 1.214 . S
O92 Cd88 2.352 . S
O92 C95 1.258 . S
C93 O90 1.320 . S
C93 O91 1.214 . S
O94 Cd86 2.277 . S
O94 C89 1.209 . S
C95 O92 1.258 . S
C95 O97 1.282 . S
O96 Cd88 2.277 . S
O96 C89 1.226 . S
O97 Cd88 2.356 . S
O97 C95 1.282 . S
C98 O99 1.306 . S
C98 O101 1.160 . S
O99 C98 1.306 . S
O99 Cd100 2.228 . S
Cd100 O99 2.228 . S
Cd100 O104 2.273 . S
Cd100 O108 2.277 . S
O101 C98 1.160 . S
O101 Cd102 2.203 . S
Cd102 O101 2.203 . S
Cd102 O104 2.411 . S
Cd102 O105 2.333 . S
Cd102 O106 2.352 . S
Cd102 O110 2.277 . S
Cd102 O111 2.356 . S
C103 O108 1.209 . S
C103 O110 1.226 . S
O104 Cd100 2.273 . S
O104 Cd102 2.411 . S
O104 C107 1.320 . S
O105 Cd102 2.333 . S
O105 C107 1.214 . S
O106 Cd102 2.352 . S
O106 C109 1.258 . S
C107 O104 1.320 . S
C107 O105 1.214 . S
O108 Cd100 2.277 . S
O108 C103 1.209 . S
C109 O106 1.258 . S
C109 O111 1.282 . S
O110 Cd102 2.277 . S
O110 C103 1.226 . S
O111 Cd102 2.356 . S
O111 C109 1.282 . S
C112 O113 1.306 . S
C112 O115 1.160 . S
O113 C112 1.306 . S
O113 Cd114 2.228 . S
Cd114 O113 2.228 . S
Cd114 O118 2.273 . S
Cd114 O122 2.277 . S
O115 C112 1.160 . S
O115 Cd116 2.203 . S
Cd116 O115 2.203 . S
Cd116 O118 2.411 . S
Cd116 O119 2.333 . S
Cd116 O120 2.352 . S
Cd116 O124 2.277 . S
Cd116 O125 2.356 . S
C117 O122 1.209 . S
C117 O124 1.226 . S
O118 Cd114 2.273 . S
O118 Cd116 2.411 . S
O118 C121 1.320 . S
O119 Cd116 2.333 . S
O119 C121 1.214 . S
O120 Cd116 2.352 . S
O120 C123 1.258 . S
C121 O118 1.320 . S
C121 O119 1.214 . S
O122 Cd114 2.277 . S
O122 C117 1.209 . S
C123 O120 1.258 . S
C123 O125 1.282 . S
O124 Cd116 2.277 . S
O124 C117 1.226 . S
O125 Cd116 2.356 . S
O125 C123 1.282 . S
C126 O127 1.306 . S
C126 O129 1.160 . S
O127 C126 1.306 . S
O127 Cd128 2.228 . S
Cd128 O127 2.228 . S
Cd128 O132 2.273 . S
Cd128 O136 2.277 . S
O129 C126 1.160 . S
O129 Cd130 2.203 . S
Cd130 O129 2.203 . S
Cd130 O132 2.411 . S
Cd130 O133 2.333 . S
Cd130 O134 2.352 . S
Cd130 O138 2.277 . S
Cd130 O139 2.356 . S
C131 O136 1.209 . S
C131 O138 1.226 . S
O132 Cd128 2.273 . S
O132 Cd130 2.411 . S
O132 C135 1.320 . S
O133 Cd130 2.333 . S
O133 C135 1.214 . S
O134 Cd130 2.352 . S
O134 C137 1.258 . S
C135 O132 1.320 . S
C135 O133 1.214 . S
O136 Cd128 2.277 . S
O136 C131 1.209 . S
C137 O134 1.258 . S
C137 O139 1.282 . S
O138 Cd130 2.277 . S
O138 C131 1.226 . S
O139 Cd130 2.356 . S
O139 C137 1.282 . S
C140 O141 1.306 . S
C140 O143 1.160 . S
O141 C140 1.306 . S
O141 Cd142 2.228 . S
Cd142 O141 2.228 . S
Cd142 O146 2.273 . S
Cd142 O150 2.277 . S
O143 C140 1.160 . S
O143 Cd144 2.203 . S
Cd144 O143 2.203 . S
Cd144 O146 2.411 . S
Cd144 O147 2.333 . S
Cd144 O148 2.352 . S
Cd144 O152 2.277 . S
Cd144 O153 2.356 . S
C145 O150 1.209 . S
C145 O152 1.226 . S
O146 Cd142 2.273 . S
O146 Cd144 2.411 . S
O146 C149 1.320 . S
O147 Cd144 2.333 . S
O147 C149 1.214 . S
O148 Cd144 2.352 . S
O148 C151 1.258 . S
C149 O146 1.320 . S
C149 O147 1.214 . S
O150 Cd142 2.277 . S
O150 C145 1.209 . S
C151 O148 1.258 . S
C151 O153 1.282 . S
O152 Cd144 2.277 . S
O152 C145 1.226 . S
O153 Cd144 2.356 . S
O153 C151 1.282 . S
C154 O155 1.306 . S
C154 O157 1.160 . S
O155 C154 1.306 . S
O155 Cd156 2.228 . S
Cd156 O155 2.228 . S
Cd156 O160 2.273 . S
Cd156 O164 2.277 . S
O157 C154 1.160 . S
O157 Cd158 2.203 . S
Cd158 O157 2.203 . S
Cd158 O160 2.411 . S
Cd158 O161 2.333 . S
Cd158 O162 2.352 . S
Cd158 O166 2.277 . S
Cd158 O167 2.356 . S
C159 O164 1.209 . S
C159 O166 1.226 . S
O160 Cd156 2.273 . S
O160 Cd158 2.411 . S
O160 C163 1.320 . S
O161 Cd158 2.333 . S
O161 C163 1.214 . S
O162 Cd158 2.352 . S
O162 C165 1.258 . S
C163 O160 1.320 . S
C163 O161 1.214 . S
O164 Cd156 2.277 . S
O164 C159 1.209 . S
C165 O162 1.258 . S
C165 O167 1.282 . S
O166 Cd158 2.277 . S
O166 C159 1.226 . S
O167 Cd158 2.356 . S
O167 C165 1.282 . S
H168 C174 0.930 . S
H169 C177 0.930 . S
H170 C178 0.930 . S
H171 C179 0.930 . S
H172 C182 0.930 . S
H173 C183 0.930 . S
C174 H168 0.930 . S
C174 C175 1.355 . S
C174 C176 1.415 . S
C175 C174 1.355 . S
C175 C177 1.419 . S
C176 C174 1.415 . S
C176 C181 1.425 . S
C176 C183 1.409 . S
C177 H169 0.930 . S
C177 C175 1.419 . S
C177 C178 1.362 . S
C178 H170 0.930 . S
C178 C177 1.362 . S
C178 C181 1.409 . S
C179 H171 0.930 . S
C179 C180 1.355 . S
C179 C181 1.415 . S
C180 C179 1.355 . S
C180 C182 1.419 . S
C181 C176 1.425 . S
C181 C178 1.409 . S
C181 C179 1.415 . S
C182 H172 0.930 . S
C182 C180 1.419 . S
C182 C183 1.362 . S
C183 H173 0.930 . S
C183 C176 1.409 . S
C183 C182 1.362 . S
H184 C190 0.930 . S
H185 C193 0.930 . S
H186 C194 0.930 . S
H187 C195 0.930 . S
H188 C198 0.930 . S
H189 C199 0.930 . S
C190 H184 0.930 . S
C190 C191 1.355 . S
C190 C192 1.415 . S
C191 C190 1.355 . S
C191 C193 1.419 . S
C192 C190 1.415 . S
C192 C197 1.425 . S
C192 C199 1.409 . S
C193 H185 0.930 . S
C193 C191 1.419 . S
C193 C194 1.362 . S
C194 H186 0.930 . S
C194 C193 1.362 . S
C194 C197 1.409 . S
C195 H187 0.930 . S
C195 C196 1.355 . S
C195 C197 1.415 . S
C196 C195 1.355 . S
C196 C198 1.419 . S
C197 C192 1.425 . S
C197 C194 1.409 . S
C197 C195 1.415 . S
C198 H188 0.930 . S
C198 C196 1.419 . S
C198 C199 1.362 . S
C199 H189 0.930 . S
C199 C192 1.409 . S
C199 C198 1.362 . S
H200 C206 0.930 . S
H201 C209 0.930 . S
H202 C210 0.930 . S
H203 C211 0.930 . S
H204 C214 0.930 . S
H205 C215 0.930 . S
C206 H200 0.930 . S
C206 C207 1.355 . S
C206 C208 1.415 . S
C207 C206 1.355 . S
C207 C209 1.419 . S
C208 C206 1.415 . S
C208 C213 1.425 . S
C208 C215 1.409 . S
C209 H201 0.930 . S
C209 C207 1.419 . S
C209 C210 1.362 . S
C210 H202 0.930 . S
C210 C209 1.362 . S
C210 C213 1.409 . S
C211 H203 0.930 . S
C211 C212 1.355 . S
C211 C213 1.415 . S
C212 C211 1.355 . S
C212 C214 1.419 . S
C213 C208 1.425 . S
C213 C210 1.409 . S
C213 C211 1.415 . S
C214 H204 0.930 . S
C214 C212 1.419 . S
C214 C215 1.362 . S
C215 H205 0.930 . S
C215 C208 1.409 . S
C215 C214 1.362 . S
H216 C222 0.930 . S
H217 C225 0.930 . S
H218 C226 0.930 . S
H219 C227 0.930 . S
H220 C230 0.930 . S
H221 C231 0.930 . S
C222 H216 0.930 . S
C222 C223 1.355 . S
C222 C224 1.415 . S
C223 C222 1.355 . S
C223 C225 1.419 . S
C224 C222 1.415 . S
C224 C229 1.425 . S
C224 C231 1.409 . S
C225 H217 0.930 . S
C225 C223 1.419 . S
C225 C226 1.362 . S
C226 H218 0.930 . S
C226 C225 1.362 . S
C226 C229 1.409 . S
C227 H219 0.930 . S
C227 C228 1.355 . S
C227 C229 1.415 . S
C228 C227 1.355 . S
C228 C230 1.419 . S
C229 C224 1.425 . S
C229 C226 1.409 . S
C229 C227 1.415 . S
C230 H220 0.930 . S
C230 C228 1.419 . S
C230 C231 1.362 . S
C231 H221 0.930 . S
C231 C224 1.409 . S
C231 C230 1.362 . S
H232 C238 0.930 . S
H233 C241 0.930 . S
H234 C242 0.930 . S
H235 C243 0.930 . S
H236 C246 0.930 . S
H237 C247 0.930 . S
C238 H232 0.930 . S
C238 C239 1.355 . S
C238 C240 1.415 . S
C239 C238 1.355 . S
C239 C241 1.419 . S
C240 C238 1.415 . S
C240 C245 1.425 . S
C240 C247 1.409 . S
C241 H233 0.930 . S
C241 C239 1.419 . S
C241 C242 1.362 . S
C242 H234 0.930 . S
C242 C241 1.362 . S
C242 C245 1.409 . S
C243 H235 0.930 . S
C243 C244 1.355 . S
C243 C245 1.415 . S
C244 C243 1.355 . S
C244 C246 1.419 . S
C245 C240 1.425 . S
C245 C242 1.409 . S
C245 C243 1.415 . S
C246 H236 0.930 . S
C246 C244 1.419 . S
C246 C247 1.362 . S
C247 H237 0.930 . S
C247 C240 1.409 . S
C247 C246 1.362 . S
H248 C254 0.930 . S
H249 C257 0.930 . S
H250 C258 0.930 . S
H251 C259 0.930 . S
H252 C262 0.930 . S
H253 C263 0.930 . S
C254 H248 0.930 . S
C254 C255 1.355 . S
C254 C256 1.415 . S
C255 C254 1.355 . S
C255 C257 1.419 . S
C256 C254 1.415 . S
C256 C261 1.425 . S
C256 C263 1.409 . S
C257 H249 0.930 . S
C257 C255 1.419 . S
C257 C258 1.362 . S
C258 H250 0.930 . S
C258 C257 1.362 . S
C258 C261 1.409 . S
C259 H251 0.930 . S
C259 C260 1.355 . S
C259 C261 1.415 . S
C260 C259 1.355 . S
C260 C262 1.419 . S
C261 C256 1.425 . S
C261 C258 1.409 . S
C261 C259 1.415 . S
C262 H252 0.930 . S
C262 C260 1.419 . S
C262 C263 1.362 . S
C263 H253 0.930 . S
C263 C256 1.409 . S
C263 C262 1.362 . S
H264 C270 0.930 . S
H265 C273 0.930 . S
H266 C274 0.930 . S
H267 C275 0.930 . S
H268 C278 0.930 . S
H269 C279 0.930 . S
C270 H264 0.930 . S
C270 C271 1.355 . S
C270 C272 1.415 . S
C271 C270 1.355 . S
C271 C273 1.419 . S
C272 C270 1.415 . S
C272 C277 1.425 . S
C272 C279 1.409 . S
C273 H265 0.930 . S
C273 C271 1.419 . S
C273 C274 1.362 . S
C274 H266 0.930 . S
C274 C273 1.362 . S
C274 C277 1.409 . S
C275 H267 0.930 . S
C275 C276 1.355 . S
C275 C277 1.415 . S
C276 C275 1.355 . S
C276 C278 1.419 . S
C277 C272 1.425 . S
C277 C274 1.409 . S
C277 C275 1.415 . S
C278 H268 0.930 . S
C278 C276 1.419 . S
C278 C279 1.362 . S
C279 H269 0.930 . S
C279 C272 1.409 . S
C279 C278 1.362 . S
H280 C286 0.930 . S
H281 C289 0.930 . S
H282 C290 0.930 . S
H283 C291 0.930 . S
H284 C294 0.930 . S
H285 C295 0.930 . S
C286 H280 0.930 . S
C286 C287 1.355 . S
C286 C288 1.415 1_655 S
C287 C286 1.355 . S
C287 C289 1.419 . S
C288 C286 1.415 1_455 S
C288 C293 1.425 1_455 S
C288 C295 1.409 . S
C289 H281 0.930 . S
C289 C287 1.419 . S
C289 C290 1.362 . S
C290 H282 0.930 . S
C290 C289 1.362 . S
C290 C293 1.409 . S
C291 H283 0.930 . S
C291 C292 1.355 . S
C291 C293 1.415 1_455 S
C292 C291 1.355 . S
C292 C294 1.419 . S
C293 C288 1.425 1_655 S
C293 C290 1.409 . S
C293 C291 1.415 1_655 S
C294 H284 0.930 . S
C294 C292 1.419 . S
C294 C295 1.362 . S
C295 H285 0.930 . S
C295 C288 1.409 . S
C295 C294 1.362 . S
H296 C302 0.930 . S
H297 C305 0.930 . S
H298 C306 0.930 . S
H299 C307 0.930 . S
H300 C310 0.930 . S
H301 C311 0.930 . S
C302 H296 0.930 . S
C302 C303 1.355 . S
C302 C304 1.415 . S
C303 C302 1.355 . S
C303 C305 1.419 . S
C304 C302 1.415 . S
C304 C309 1.425 1_545 S
C304 C311 1.409 . S
C305 H297 0.930 . S
C305 C303 1.419 . S
C305 C306 1.362 1_545 S
C306 H298 0.930 . S
C306 C305 1.362 1_565 S
C306 C309 1.409 . S
C307 H299 0.930 . S
C307 C308 1.355 . S
C307 C309 1.415 . S
C308 C307 1.355 . S
C308 C310 1.419 . S
C309 C304 1.425 1_565 S
C309 C306 1.409 . S
C309 C307 1.415 . S
C310 H300 0.930 . S
C310 C308 1.419 . S
C310 C311 1.362 1_565 S
C311 H301 0.930 . S
C311 C304 1.409 . S
C311 C310 1.362 1_545 S
H312 C318 0.930 . S
H313 C321 0.930 . S
H314 C322 0.930 . S
H315 C323 0.930 . S
H316 C326 0.930 . S
H317 C327 0.930 . S
C318 H312 0.930 . S
C318 C319 1.355 . S
C318 C320 1.415 . S
C319 C318 1.355 . S
C319 C321 1.419 . S
C320 C318 1.415 . S
C320 C325 1.425 . S
C320 C327 1.409 . S
C321 H313 0.930 . S
C321 C319 1.419 . S
C321 C322 1.362 . S
C322 H314 0.930 . S
C322 C321 1.362 . S
C322 C325 1.409 . S
C323 H315 0.930 . S
C323 C324 1.355 . S
C323 C325 1.415 . S
C324 C323 1.355 . S
C324 C326 1.419 . S
C325 C320 1.425 . S
C325 C322 1.409 . S
C325 C323 1.415 . S
C326 H316 0.930 . S
C326 C324 1.419 . S
C326 C327 1.362 . S
C327 H317 0.930 . S
C327 C320 1.409 . S
C327 C326 1.362 . S
H328 C334 0.930 . S
H329 C337 0.930 . S
H330 C338 0.930 . S
H331 C339 0.930 . S
H332 C342 0.930 . S
H333 C343 0.930 . S
C334 H328 0.930 . S
C334 C335 1.355 . S
C334 C336 1.415 . S
C335 C334 1.355 . S
C335 C337 1.419 . S
C336 C334 1.415 . S
C336 C341 1.425 1_655 S
C336 C343 1.409 . S
C337 H329 0.930 . S
C337 C335 1.419 . S
C337 C338 1.362 1_655 S
C338 H330 0.930 . S
C338 C337 1.362 1_455 S
C338 C341 1.409 . S
C339 H331 0.930 . S
C339 C340 1.355 . S
C339 C341 1.415 . S
C340 C339 1.355 . S
C340 C342 1.419 . S
C341 C336 1.425 1_455 S
C341 C338 1.409 . S
C341 C339 1.415 . S
C342 H332 0.930 . S
C342 C340 1.419 . S
C342 C343 1.362 1_455 S
C343 H333 0.930 . S
C343 C336 1.409 . S
C343 C342 1.362 1_655 S
H344 C350 0.930 . S
H345 C353 0.930 . S
H346 C354 0.930 1_545 S
H347 C355 0.930 . S
H348 C358 0.930 . S
H349 C359 0.930 1_565 S
C350 H344 0.930 . S
C350 C351 1.355 . S
C350 C352 1.415 1_554 S
C351 C350 1.355 . S
C351 C353 1.419 . S
C352 C350 1.415 1_556 S
C352 C357 1.425 1_566 S
C352 C359 1.409 1_565 S
C353 H345 0.930 . S
C353 C351 1.419 . S
C353 C354 1.362 . S
C354 H346 0.930 1_565 S
C354 C353 1.362 . S
C354 C357 1.409 1_565 S
C355 H347 0.930 . S
C355 C356 1.355 . S
C355 C357 1.415 1_556 S
C356 C355 1.355 . S
C356 C358 1.419 . S
C357 C352 1.425 1_544 S
C357 C354 1.409 1_545 S
C357 C355 1.415 1_554 S
C358 H348 0.930 . S
C358 C356 1.419 . S
C358 C359 1.362 . S
C359 H349 0.930 1_545 S
C359 C352 1.409 1_545 S
C359 C358 1.362 . S
H360 C366 0.930 . S
H361 C369 0.930 . S
H362 C370 0.930 1_556 S
H363 C371 0.930 . S
H364 C374 0.930 . S
H365 C375 0.930 . S
C366 H360 0.930 . S
C366 C367 1.355 . S
C366 C368 1.415 . S
C367 C366 1.355 . S
C367 C369 1.419 . S
C368 C366 1.415 . S
C368 C373 1.425 . S
C368 C375 1.409 . S
C369 H361 0.930 . S
C369 C367 1.419 . S
C369 C370 1.362 . S
C370 H362 0.930 1_554 S
C370 C369 1.362 . S
C370 C373 1.409 . S
C371 H363 0.930 . S
C371 C372 1.355 . S
C371 C373 1.415 1_556 S
C372 C371 1.355 . S
C372 C374 1.419 . S
C373 C368 1.425 . S
C373 C370 1.409 . S
C373 C371 1.415 1_554 S
C374 H364 0.930 . S
C374 C372 1.419 . S
C374 C375 1.362 1_556 S
C375 H365 0.930 . S
C375 C368 1.409 . S
C375 C374 1.362 1_554 S
H376 C382 0.930 . S
H377 C385 0.930 . S
H378 C386 0.930 . S
H379 C387 0.930 . S
H380 C390 0.930 . S
H381 C391 0.930 . S
C382 H376 0.930 . S
C382 C383 1.355 . S
C382 C384 1.415 . S
C383 C382 1.355 . S
C383 C385 1.419 . S
C384 C382 1.415 . S
C384 C389 1.425 . S
C384 C391 1.409 1_655 S
C385 H377 0.930 . S
C385 C383 1.419 . S
C385 C386 1.362 . S
C386 H378 0.930 . S
C386 C385 1.362 . S
C386 C389 1.409 . S
C387 H379 0.930 . S
C387 C388 1.355 1_655 S
C387 C389 1.415 . S
C388 C387 1.355 1_455 S
C388 C390 1.419 . S
C389 C384 1.425 . S
C389 C386 1.409 . S
C389 C387 1.415 . S
C390 H380 0.930 . S
C390 C388 1.419 . S
C390 C391 1.362 . S
C391 H381 0.930 . S
C391 C384 1.409 1_455 S
C391 C390 1.362 . S
H392 C398 0.930 . S
H393 C401 0.930 . S
H394 C402 0.930 . S
H395 C403 0.930 . S
H396 C406 0.930 . S
H397 C407 0.930 1_545 S
C398 H392 0.930 . S
C398 C399 1.355 1_545 S
C398 C400 1.415 1_545 S
C399 C398 1.355 1_565 S
C399 C401 1.428 . S
C400 C398 1.415 1_565 S
C400 C405 1.425 . S
C400 C407 1.409 . S
C401 H393 0.930 . S
C401 C399 1.428 . S
C401 C402 1.362 . S
C402 H394 0.930 . S
C402 C401 1.362 . S
C402 C405 1.409 . S
C403 H395 0.930 . S
C403 C404 1.355 . S
C403 C405 1.415 . S
C404 C403 1.355 . S
C404 C406 1.419 . S
C405 C400 1.425 . S
C405 C402 1.409 . S
C405 C403 1.415 . S
C406 H396 0.930 . S
C406 C404 1.419 . S
C406 C407 1.362 . S
C407 H397 0.930 1_565 S
C407 C400 1.409 . S
C407 C406 1.362 . S
H408 C414 0.930 . S
H409 C417 0.930 . S
H410 C418 0.930 . S
H411 C419 0.930 . S
H412 C422 0.930 . S
H413 C423 0.930 . S
C414 H408 0.930 . S
C414 C415 1.355 . S
C414 C416 1.415 . S
C415 C414 1.355 . S
C415 C417 1.419 . S
C416 C414 1.415 . S
C416 C421 1.425 . S
C416 C423 1.409 . S
C417 H409 0.930 . S
C417 C415 1.419 . S
C417 C418 1.362 . S
C418 H410 0.930 . S
C418 C417 1.362 . S
C418 C421 1.409 . S
C419 H411 0.930 . S
C419 C420 1.355 . S
C419 C421 1.415 . S
C420 C419 1.355 . S
C420 C422 1.419 . S
C421 C416 1.425 . S
C421 C418 1.409 . S
C421 C419 1.415 . S
C422 H412 0.930 . S
C422 C420 1.419 . S
C422 C423 1.362 . S
C423 H413 0.930 . S
C423 C416 1.409 . S
C423 C422 1.362 . S
H424 C430 0.930 . S
H425 C433 0.930 . S
H426 C434 0.930 . S
H427 C435 0.930 . S
H428 C438 0.930 . S
H429 C439 0.930 . S
C430 H424 0.930 . S
C430 C431 1.355 . S
C430 C432 1.415 . S
C431 C430 1.355 . S
C431 C433 1.419 . S
C432 C430 1.415 . S
C432 C437 1.425 . S
C432 C439 1.409 1_455 S
C433 H425 0.930 . S
C433 C431 1.419 . S
C433 C434 1.362 . S
C434 H426 0.930 . S
C434 C433 1.362 . S
C434 C437 1.409 . S
C435 H427 0.930 . S
C435 C436 1.355 1_455 S
C435 C437 1.415 . S
C436 C435 1.355 1_655 S
C436 C438 1.419 . S
C437 C432 1.425 . S
C437 C434 1.409 . S
C437 C435 1.415 . S
C438 H428 0.930 . S
C438 C436 1.419 . S
C438 C439 1.362 . S
C439 H429 0.930 . S
C439 C432 1.409 1_655 S
C439 C438 1.362 . S
H440 C446 0.930 . S
H441 C449 0.930 . S
H442 C450 0.930 . S
H443 C451 0.930 1_565 S
H444 C454 0.930 . S
H445 C455 0.930 . S
C446 H440 0.930 . S
C446 C447 1.355 . S
C446 C448 1.415 . S
C447 C446 1.355 . S
C447 C449 1.419 . S
C448 C446 1.415 . S
C448 C453 1.425 . S
C448 C455 1.409 . S
C449 H441 0.930 . S
C449 C447 1.419 . S
C449 C450 1.362 . S
C450 H442 0.930 . S
C450 C449 1.362 . S
C450 C453 1.409 . S
C451 H443 0.930 1_545 S
C451 C452 1.355 1_545 S
C451 C453 1.415 . S
C452 C451 1.355 1_565 S
C452 C454 1.418 1_565 S
C453 C448 1.425 . S
C453 C450 1.409 . S
C453 C451 1.415 . S
C454 H444 0.930 . S
C454 C452 1.418 1_545 S
C454 C455 1.362 . S
C455 H445 0.930 . S
C455 C448 1.409 . S
C455 C454 1.362 . S
H456 C462 0.930 . S
H457 C465 0.930 . S
H458 C466 0.930 . S
H459 C467 0.930 . S
H460 C470 0.930 . S
H461 C471 0.930 . S
C462 H456 0.930 . S
C462 C463 1.355 . S
C462 C464 1.415 . S
C463 C462 1.355 . S
C463 C465 1.419 . S
C464 C462 1.415 . S
C464 C469 1.425 . S
C464 C471 1.409 . S
C465 H457 0.930 . S
C465 C463 1.419 . S
C465 C466 1.362 . S
C466 H458 0.930 . S
C466 C465 1.362 . S
C466 C469 1.409 . S
C467 H459 0.930 . S
C467 C468 1.355 . S
C467 C469 1.415 . S
C468 C467 1.355 . S
C468 C470 1.419 . S
C469 C464 1.425 . S
C469 C466 1.409 . S
C469 C467 1.415 . S
C470 H460 0.930 . S
C470 C468 1.419 . S
C470 C471 1.362 . S
C471 H461 0.930 . S
C471 C464 1.409 . S
C471 C470 1.362 . S
H472 C478 0.930 . S
H473 C481 0.930 . S
H474 C482 0.930 . S
H475 C483 0.917 1_456 S
H476 C486 0.930 . S
H477 C487 0.930 . S
C478 H472 0.930 . S
C478 C479 1.355 . S
C478 C480 1.415 . S
C479 C478 1.355 . S
C479 C481 1.419 . S
C480 C478 1.415 . S
C480 C485 1.425 . S
C480 C487 1.409 1_556 S
C481 H473 0.930 . S
C481 C479 1.419 . S
C481 C482 1.362 . S
C482 H474 0.930 . S
C482 C481 1.362 . S
C482 C485 1.409 . S
C483 H475 0.917 1_654 S
C483 C484 1.403 . S
C483 C485 1.381 1_554 S
C484 C483 1.403 . S
C484 C486 1.418 . S
C485 C480 1.425 . S
C485 C482 1.409 . S
C485 C483 1.381 1_556 S
C486 H476 0.930 . S
C486 C484 1.418 . S
C486 C487 1.362 . S
C487 H477 0.930 . S
C487 C480 1.409 1_554 S
C487 C486 1.362 . S
H488 C494 0.930 . S
H489 C497 0.930 . S
H490 C498 0.930 . S
H491 C499 0.930 . S
H492 C502 0.930 . S
H493 C503 0.930 . S
C494 H488 0.930 . S
C494 C495 1.355 . S
C494 C496 1.415 . S
C495 C494 1.355 . S
C495 C497 1.419 . S
C496 C494 1.415 . S
C496 C501 1.425 . S
C496 C503 1.409 1_565 S
C497 H489 0.930 . S
C497 C495 1.419 . S
C497 C498 1.362 . S
C498 H490 0.930 . S
C498 C497 1.362 . S
C498 C501 1.409 . S
C499 H491 0.930 . S
C499 C500 1.355 1_565 S
C499 C501 1.415 . S
C500 C499 1.355 1_545 S
C500 C502 1.419 . S
C501 C496 1.425 . S
C501 C498 1.409 . S
C501 C499 1.415 . S
C502 H492 0.930 . S
C502 C500 1.419 . S
C502 C503 1.362 . S
C503 H493 0.930 . S
C503 C496 1.409 1_545 S
C503 C502 1.362 . S
H504 C510 0.930 . S
H505 C513 0.930 . S
H506 C514 0.930 . S
H507 C515 0.930 . S
H508 C518 0.930 . S
H509 C519 0.930 . S
C510 H504 0.930 . S
C510 C511 1.355 . S
C510 C512 1.415 . S
C511 C510 1.355 . S
C511 C513 1.419 . S
C512 C510 1.415 . S
C512 C517 1.425 . S
C512 C519 1.409 . S
C513 H505 0.930 . S
C513 C511 1.419 . S
C513 C514 1.362 . S
C514 H506 0.930 . S
C514 C513 1.362 . S
C514 C517 1.409 . S
C515 H507 0.930 . S
C515 C516 1.355 . S
C515 C517 1.415 . S
C516 C515 1.355 . S
C516 C518 1.419 . S
C517 C512 1.425 . S
C517 C514 1.409 . S
C517 C515 1.415 . S
C518 H508 0.930 . S
C518 C516 1.419 . S
C518 C519 1.362 . S
C519 H509 0.930 . S
C519 C512 1.409 . S
C519 C518 1.362 . S
H520 C526 0.930 . S
H521 C529 0.930 . S
H522 C530 0.930 . S
H523 C531 0.930 . S
H524 C534 0.930 1_655 S
H525 C535 0.930 . S
C526 H520 0.930 . S
C526 C527 1.355 . S
C526 C528 1.415 . S
C527 C526 1.355 . S
C527 C529 1.419 . S
C528 C526 1.415 . S
C528 C533 1.425 . S
C528 C535 1.409 . S
C529 H521 0.930 . S
C529 C527 1.419 . S
C529 C530 1.362 . S
C530 H522 0.930 . S
C530 C529 1.362 . S
C530 C533 1.409 . S
C531 H523 0.930 . S
C531 C532 1.355 1_455 S
C531 C533 1.415 . S
C532 C531 1.355 1_655 S
C532 C534 1.419 1_655 S
C533 C528 1.425 . S
C533 C530 1.409 . S
C533 C531 1.415 . S
C534 H524 0.930 1_455 S
C534 C532 1.419 1_455 S
C534 C535 1.362 . S
C535 H525 0.930 . S
C535 C528 1.409 . S
C535 C534 1.362 . S
H536 C542 0.930 . S
H537 C545 0.930 . S
H538 C546 0.930 . S
H539 C547 0.930 . S
H540 C550 0.930 . S
H541 C551 0.930 . S
C542 H536 0.930 . S
C542 C543 1.350 1_565 S
C542 C544 1.415 1_565 S
C543 C542 1.350 1_545 S
C543 C545 1.430 . S
C544 C542 1.415 1_545 S
C544 C549 1.425 . S
C544 C551 1.409 . S
C545 H537 0.930 . S
C545 C543 1.430 . S
C545 C546 1.362 . S
C546 H538 0.930 . S
C546 C545 1.362 . S
C546 C549 1.409 . S
C547 H539 0.930 . S
C547 C548 1.355 . S
C547 C549 1.415 . S
C548 C547 1.355 . S
C548 C550 1.419 . S
C549 C544 1.425 . S
C549 C546 1.409 . S
C549 C547 1.415 . S
C550 H540 0.930 . S
C550 C548 1.419 . S
C550 C551 1.362 . S
C551 H541 0.930 . S
C551 C544 1.409 . S
C551 C550 1.362 . S
C175 C123 1.313 . S
C180 C11 1.315 . S
C191 C25 1.332 . S
C196 C137 1.334 . S
C207 C39 1.323 . S
C212 C151 1.320 . S
C223 C53 1.317 . S
C228 C165 1.319 . S
C239 C95 1.333 . S
C244 C67 1.331 . S
C255 C81 1.327 . S
C260 C109 1.324 . S
C271 C131 1.056 . S
C276 C5 1.037 . S
C287 C19 1.062 . S
C292 C145 1.047 . S
C303 C159 1.048 . S
C308 C33 1.045 . S
C319 C47 1.060 . S
C324 C89 1.034 . S
C335 C103 1.052 . S
C340 C61 1.040 . S
C351 C117 1.071 . S
C356 C75 1.028 . S
C367 C0 1.467 . S
C372 C79 1.419 . S
C383 C14 1.467 . S
C388 C9 1.415 . S
C399 C23 1.457 1_565 S
C404 C28 1.420 . S
C415 C42 1.421 . S
C420 C37 1.462 . S
C431 C56 1.457 . S
C436 C51 1.421 . S
C447 C70 1.420 . S
C452 C65 1.465 . S
C463 C84 1.428 . S
C468 C107 1.463 . S
C479 C98 1.420 . S
C484 C121 1.466 1_655 S
C495 C112 1.451 . S
C500 C135 1.426 . S
C511 C126 1.428 . S
C516 C149 1.463 . S
C527 C140 1.427 . S
C532 C163 1.452 . S
C543 C93 1.458 1_545 S
C548 C154 1.425 . S
