# Generated by pormake.
# Topology qtz-e, (6)-cn, num edge types: 1
# Building blocks:
#     Node 0, Type 0, BuildingBlock: CUKXOW_clean_sbu_0, # of connection points: 6
#     Node 1, Type 0, BuildingBlock: CUKXOW_clean_sbu_0, # of connection points: 6
#     Node 2, Type 0, BuildingBlock: CUKXOW_clean_sbu_0, # of connection points: 6
#     Node 3, Type 0, BuildingBlock: CUKXOW_clean_sbu_0, # of connection points: 6
#     Node 4, Type 0, BuildingBlock: CUKXOW_clean_sbu_0, # of connection points: 6
#     Node 5, Type 0, BuildingBlock: CUKXOW_clean_sbu_0, # of connection points: 6
#     Edge 6, Type (0, 0), BuildingBlock: FUNLAD_clean_linker_0, # of connection points: 2
#     Edge 7, Type (0, 0), BuildingBlock: FUNLAD_clean_linker_0, # of connection points: 2
#     Edge 8, Type (0, 0), BuildingBlock: FUNLAD_clean_linker_0, # of connection points: 2
#     Edge 9, Type (0, 0), BuildingBlock: FUNLAD_clean_linker_0, # of connection points: 2
#     Edge 10, Type (0, 0), BuildingBlock: FUNLAD_clean_linker_0, # of connection points: 2
#     Edge 11, Type (0, 0), BuildingBlock: FUNLAD_clean_linker_0, # of connection points: 2
#     Edge 12, Type (0, 0), BuildingBlock: FUNLAD_clean_linker_0, # of connection points: 2
#     Edge 13, Type (0, 0), BuildingBlock: FUNLAD_clean_linker_0, # of connection points: 2
#     Edge 14, Type (0, 0), BuildingBlock: FUNLAD_clean_linker_0, # of connection points: 2
#     Edge 15, Type (0, 0), BuildingBlock: FUNLAD_clean_linker_0, # of connection points: 2
#     Edge 16, Type (0, 0), BuildingBlock: FUNLAD_clean_linker_0, # of connection points: 2
#     Edge 17, Type (0, 0), BuildingBlock: FUNLAD_clean_linker_0, # of connection points: 2
#     Edge 18, Type (0, 0), BuildingBlock: FUNLAD_clean_linker_0, # of connection points: 2
#     Edge 19, Type (0, 0), BuildingBlock: FUNLAD_clean_linker_0, # of connection points: 2
#     Edge 20, Type (0, 0), BuildingBlock: FUNLAD_clean_linker_0, # of connection points: 2
#     Edge 21, Type (0, 0), BuildingBlock: FUNLAD_clean_linker_0, # of connection points: 2
#     Edge 22, Type (0, 0), BuildingBlock: FUNLAD_clean_linker_0, # of connection points: 2
#     Edge 23, Type (0, 0), BuildingBlock: FUNLAD_clean_linker_0, # of connection points: 2
# Relax obj value: 0.119
# Max RMSD: 0.164
# Mean RMSD: 0.164
data_MOF--net-qtz-e--node1-CUKXOW_clean_sbu_0--edge1-FUNLAD_clean_linker_0
_symmetry_space_group_name_H-M    P1
_symmetry_Int_Tables_number       1
_symmetry_cell_setting            triclinic
loop_
_symmetry_equiv_pos_as_xyz
'x, y, z'
_cell_length_a     30.558706
_cell_length_b     30.51351
_cell_length_c     43.607174
_cell_angle_alpha  89.684863
_cell_angle_beta   90.147319
_cell_angle_gamma 119.88883
loop_
_atom_site_label
_atom_site_type_symbol
_atom_site_fract_x
_atom_site_fract_y
_atom_site_fract_z
_atom_type_partial_charge
Tb0 Tb 0.16014 0.36517 0.0411 0.0
C1 C 0.27628 0.40401 0.04501 0.0
Tb2 Tb 0.23508 0.44555 0.99441 0.0
O3 O 0.17347 0.30627 0.02114 0.0
O4 O 0.18245 0.36763 0.99534 0.0
O5 O 0.23424 0.38925 0.0608 0.0
C6 C 0.28746 0.49917 0.94575 0.0
O7 O 0.28151 0.41877 1.01599 0.0
C8 C 0.22727 0.47931 0.04833 0.0
C9 C 0.11752 0.40598 0.98857 0.0
O10 O 0.28418 0.45707 0.95504 0.0
O11 O 0.26119 0.5109 0.96383 0.0
O12 O 0.26788 0.50123 0.0317 0.0
O13 O 0.19333 0.44365 0.03329 0.0
O14 O 0.16278 0.4296 0.9753 0.0
O15 O 0.10828 0.38103 1.01515 0.0
C16 C 0.10489 0.32694 0.09159 0.0
O17 O 0.09134 0.30743 0.06429 0.0
O18 O 0.14897 0.36726 0.09012 0.0
C19 C 0.18877 0.33014 0.99506 0.0
Tb20 Tb 0.78946 0.17088 0.37614 0.0
C21 C 0.87367 0.28475 0.37583 0.0
Tb22 Tb 0.78181 0.24257 0.32884 0.0
O23 O 0.8545 0.17588 0.35156 0.0
O24 O 0.79857 0.18341 0.3284 0.0
O25 O 0.85034 0.2426 0.39234 0.0
C26 C 0.7916 0.30502 0.28271 0.0
O27 O 0.85646 0.29084 0.34901 0.0
C28 C 0.72968 0.22564 0.37958 0.0
C29 C 0.69816 0.12916 0.32828 0.0
O30 O 0.81024 0.27498 0.28318 0.0
O31 O 0.76821 0.30034 0.30834 0.0
O32 O 0.71572 0.23515 0.35343 0.0
O33 O 0.77254 0.22997 0.37662 0.0
O34 O 0.72274 0.17111 0.31173 0.0
O35 O 0.71504 0.12271 0.3552 0.0
C36 C 0.77218 0.11343 0.42609 0.0
O37 O 0.79215 0.10901 0.40082 0.0
O38 O 0.76171 0.14936 0.42287 0.0
C39 C 0.84094 0.18652 0.32549 0.0
Tb40 Tb 0.60882 0.78163 0.70359 0.0
C41 C 0.59184 0.87449 0.70721 0.0
Tb42 Tb 0.53197 0.78871 0.66039 0.0
O43 O 0.6717 0.84678 0.68024 0.0
O44 O 0.60522 0.79881 0.65709 0.0
O45 O 0.60141 0.84308 0.72307 0.0
C46 C 0.47924 0.79437 0.6133 0.0
O47 O 0.57342 0.8647 0.67896 0.0
C48 C 0.50124 0.75842 0.71677 0.0
C49 C 0.54659 0.69289 0.65653 0.0
O50 O 0.52697 0.82524 0.61813 0.0
O51 O 0.46143 0.76051 0.63493 0.0
O52 O 0.48513 0.78289 0.70011 0.0
O53 O 0.52964 0.74903 0.70075 0.0
O54 O 0.52661 0.71889 0.64417 0.0
O55 O 0.57795 0.70897 0.68041 0.0
C56 C 0.64888 0.75857 0.75093 0.0
O57 O 0.66391 0.76257 0.7226 0.0
O58 O 0.61168 0.76752 0.75235 0.0
C59 C 0.64665 0.83906 0.65479 0.0
Tb60 Tb 0.80551 0.6132 0.04177 0.0
C61 C 0.69127 0.5815 0.04452 0.0
Tb62 Tb 0.73391 0.53917 0.99288 0.0
O63 O 0.79772 0.67452 0.02069 0.0
O64 O 0.79254 0.61502 0.99439 0.0
O65 O 0.73377 0.59898 0.06042 0.0
C66 C 0.6727 0.49458 0.94515 0.0
O67 O 0.68486 0.5612 1.01678 0.0
C68 C 0.75178 0.49811 0.04076 0.0
C69 C 0.84695 0.56858 0.99061 0.0
O70 O 0.6797 0.4714 0.96801 0.0
O71 O 0.6995 0.54295 0.94943 0.0
O72 O 0.74113 0.47747 1.01382 0.0
O73 O 0.74741 0.53694 0.04025 0.0
O74 O 0.80541 0.55395 0.9742 0.0
O75 O 0.85318 0.58851 0.01848 0.0
C76 C 0.86712 0.65323 0.08979 0.0
O77 O 0.86883 0.67755 0.06486 0.0
O78 O 0.83118 0.6068 0.08747 0.0
C79 C 0.78819 0.65384 0.99368 0.0
Tb80 Tb 0.17996 0.81535 0.37491 0.0
C81 C 0.10027 0.69993 0.37894 0.0
Tb82 Tb 0.18342 0.74013 0.32917 0.0
O83 O 0.10767 0.80198 0.35563 0.0
O84 O 0.15978 0.79433 0.3288 0.0
O85 O 0.12838 0.74169 0.3948 0.0
C86 C 0.19076 0.68953 0.28174 0.0
O87 O 0.10951 0.69481 0.34987 0.0
C88 C 0.22143 0.74366 0.38376 0.0
C89 C 0.26421 0.85674 0.32344 0.0
O90 O 0.15217 0.69545 0.28725 0.0
O91 O 0.22459 0.71195 0.30284 0.0
O92 O 0.20006 0.7032 0.36713 0.0
O93 O 0.22361 0.7799 0.3687 0.0
O94 O 0.24244 0.81137 0.31057 0.0
O95 O 0.24791 0.8666 0.34935 0.0
C96 C 0.19928 0.87558 0.42298 0.0
O97 O 0.19102 0.88582 0.39526 0.0
O98 O 0.19619 0.83163 0.42345 0.0
C99 C 0.11596 0.78801 0.32916 0.0
Tb100 Tb 0.35626 0.17238 0.71413 0.0
C101 C 0.40485 0.10305 0.71475 0.0
Tb102 Tb 0.4325 0.18661 0.66324 0.0
O103 O 0.29676 0.10337 0.69266 0.0
O104 O 0.35425 0.16013 0.66643 0.0
O105 O 0.38636 0.12586 0.73192 0.0
C106 C 0.48092 0.17826 0.6145 0.0
O107 O 0.42023 0.11712 0.68604 0.0
C108 C 0.46925 0.24327 0.71232 0.0
C109 C 0.3858 0.25745 0.66233 0.0
O110 O 0.43353 0.14865 0.6208 0.0
O111 O 0.50103 0.21206 0.63582 0.0
O112 O 0.48972 0.25705 0.68537 0.0
O113 O 0.43392 0.19848 0.71091 0.0
O114 O 0.40722 0.23686 0.64576 0.0
O115 O 0.36608 0.24019 0.69 0.0
C116 C 0.31749 0.18986 0.76422 0.0
O117 O 0.35814 0.22264 0.75015 0.0
O118 O 0.29776 0.14711 0.74971 0.0
C119 C 0.3177 0.11571 0.66572 0.0
C120 C 0.16099 0.64371 0.2318 0.0
C121 C 0.19681 0.6629 0.25545 0.0
C122 C 0.16844 0.62013 0.20647 0.0
C123 C 0.21176 0.61496 0.20458 0.0
C124 C 0.24722 0.63411 0.22846 0.0
C125 C 0.23984 0.65774 0.2536 0.0
C126 C 0.22292 0.59212 0.17777 0.0
C127 C 0.1883 0.56235 0.15696 0.0
C128 C 0.20027 0.54059 0.12991 0.0
C129 C 0.16048 0.49936 0.11489 0.0
C130 C 0.16947 0.47901 0.08866 0.0
C131 C 0.21855 0.49939 0.07689 0.0
H132 H 0.2812 0.5938 0.12811 0.0
C133 C 0.25853 0.54044 0.0918 0.0
C134 C 0.24955 0.56108 0.11798 0.0
H135 H 0.29664 0.55714 0.08294 0.0
H136 H 0.12769 0.64767 0.23262 0.0
H137 H 0.14075 0.60726 0.18829 0.0
H138 H 0.28103 0.63103 0.22762 0.0
H139 H 0.26815 0.6723 0.27152 0.0
H140 H 0.26126 0.59906 0.17591 0.0
H141 H 0.14907 0.55182 0.16015 0.0
H142 H 0.12214 0.48305 0.12331 0.0
H143 H 0.13775 0.44786 0.07729 0.0
C144 C 0.55741 0.21359 0.58119 0.0
C145 C 0.5069 0.17667 0.58639 0.0
C146 C 0.58145 0.21431 0.5538 0.0
C147 C 0.55555 0.17766 0.53105 0.0
C148 C 0.50504 0.14054 0.53649 0.0
C149 C 0.48097 0.13994 0.5639 0.0
C150 C 0.57886 0.17862 0.50085 0.0
C151 C 0.62915 0.20265 0.49595 0.0
C152 C 0.65302 0.20618 0.46557 0.0
C153 C 0.70428 0.21998 0.46477 0.0
C154 C 0.72907 0.22609 0.43685 0.0
C155 C 0.70313 0.21841 0.40902 0.0
H156 H 0.58816 0.18992 0.43695 0.0
C157 C 0.65205 0.20504 0.4096 0.0
C158 C 0.62716 0.199 0.43756 0.0
H159 H 0.63137 0.19945 0.3884 0.0
H160 H 0.57811 0.2427 0.59804 0.0
H161 H 0.61976 0.24462 0.55035 0.0
H162 H 0.48395 0.11209 0.51936 0.0
H163 H 0.44186 0.1112 0.56727 0.0
H164 H 0.55332 0.15768 0.48229 0.0
H165 H 0.6546 0.21972 0.51519 0.0
H166 H 0.72543 0.22643 0.48585 0.0
H167 H 0.76882 0.2376 0.43706 0.0
C168 C 0.31659 0.57384 0.91101 0.0
C169 C 0.31642 0.52913 0.91893 0.0
C170 C 0.34365 0.60224 0.88546 0.0
C171 C 0.37149 0.58658 0.86736 0.0
C172 C 0.37097 0.54161 0.87538 0.0
C173 C 0.34383 0.51322 0.90092 0.0
C174 C 0.39967 0.61445 0.83932 0.0
C175 C 0.41223 0.66254 0.83255 0.0
C176 C 0.43779 0.68835 0.80351 0.0
C177 C 0.42989 0.72686 0.79179 0.0
C178 C 0.45123 0.75034 0.76381 0.0
C179 C 0.48143 0.73618 0.74721 0.0
H180 H 0.47817 0.64739 0.79605 0.0
C181 C 0.491 0.69908 0.75939 0.0
C182 C 0.46957 0.6755 0.78731 0.0
H183 H 0.51432 0.68757 0.74707 0.0
H184 H 0.29541 0.58673 0.92442 0.0
H185 H 0.3415 0.63564 0.87983 0.0
H186 H 0.39164 0.52831 0.8618 0.0
H187 H 0.34418 0.47875 0.90648 0.0
H188 H 0.40982 0.59373 0.82342 0.0
H189 H 0.40186 0.68359 0.84799 0.0
H190 H 0.40611 0.73798 0.80397 0.0
H191 H 0.44362 0.77915 0.755 0.0
C192 C 0.81745 0.33738 0.22909 0.0
C193 C 0.79219 0.33571 0.25628 0.0
C194 C 0.81497 0.36393 0.20344 0.0
C195 C 0.7866 0.38888 0.20446 0.0
C196 C 0.76265 0.38815 0.23209 0.0
C197 C 0.76534 0.36186 0.25767 0.0
C198 C 0.7806 0.41601 0.17763 0.0
C199 C 0.7903 0.40967 0.14828 0.0
C200 C 0.78092 0.43414 0.12121 0.0
C201 C 0.78376 0.41727 0.09171 0.0
C202 C 0.77438 0.43811 0.06558 0.0
C203 C 0.7621 0.47647 0.06833 0.0
H204 H 0.76729 0.48845 0.14572 0.0
C205 C 0.75923 0.49357 0.09764 0.0
C206 C 0.76905 0.47314 0.12379 0.0
H207 H 0.7489 0.5225 0.10043 0.0
H208 H 0.83874 0.31779 0.22754 0.0
H209 H 0.83545 0.36469 0.18309 0.0
H210 H 0.74091 0.40727 0.23377 0.0
H211 H 0.74555 0.36126 0.27839 0.0
H212 H 0.76464 0.43993 0.18252 0.0
H213 H 0.80345 0.38337 0.14336 0.0
H214 H 0.79296 0.38753 0.08882 0.0
H215 H 0.77682 0.42421 0.0432 0.0
C216 C 0.3976 0.76265 0.58566 0.0
C217 C 0.44976 0.79633 0.58707 0.0
C218 C 0.3695 0.76306 0.56046 0.0
C219 C 0.39321 0.79682 0.53587 0.0
C220 C 0.44523 0.83145 0.53779 0.0
C221 C 0.47331 0.83117 0.56312 0.0
C222 C 0.36511 0.79709 0.50797 0.0
C223 C 0.3215 0.75669 0.49882 0.0
C224 C 0.29501 0.755 0.46979 0.0
C225 C 0.26161 0.70759 0.45712 0.0
C226 C 0.23717 0.70397 0.42935 0.0
C227 C 0.24528 0.74773 0.41381 0.0
H228 H 0.32599 0.83608 0.46399 0.0
C229 C 0.27746 0.7952 0.42676 0.0
C230 C 0.30195 0.79888 0.45458 0.0
H231 H 0.28428 0.82955 0.41519 0.0
H232 H 0.37842 0.73585 0.60406 0.0
H233 H 0.32926 0.73707 0.56059 0.0
H234 H 0.46442 0.85825 0.51938 0.0
H235 H 0.51349 0.85773 0.56375 0.0
H236 H 0.38304 0.83056 0.49352 0.0
H237 H 0.30603 0.72175 0.51189 0.0
H238 H 0.25505 0.67315 0.46846 0.0
H239 H 0.21222 0.66688 0.41994 0.0
C240 C 0.62249 0.41755 0.91358 0.0
C241 C 0.64424 0.46997 0.91706 0.0
C242 C 0.59948 0.39437 0.88599 0.0
C243 C 0.59712 0.42316 0.8613 0.0
C244 C 0.61836 0.47561 0.86507 0.0
C245 C 0.64163 0.49882 0.89268 0.0
C246 C 0.57578 0.40035 0.83085 0.0
C247 C 0.54326 0.35061 0.8269 0.0
C248 C 0.52402 0.32574 0.79665 0.0
C249 C 0.48417 0.27551 0.79657 0.0
C250 C 0.46645 0.24906 0.76916 0.0
C251 C 0.48788 0.27227 0.74101 0.0
H252 H 0.57714 0.38723 0.76719 0.0
C253 C 0.52752 0.32254 0.74079 0.0
C254 C 0.54563 0.34908 0.76835 0.0
H255 H 0.54491 0.34116 0.71937 0.0
H256 H 0.62458 0.39452 0.9319 0.0
H257 H 0.58533 0.35423 0.88396 0.0
H258 H 0.61754 0.49884 0.84645 0.0
H259 H 0.65847 0.53944 0.89472 0.0
H260 H 0.58701 0.42587 0.81134 0.0
H261 H 0.52911 0.32624 0.84693 0.0
H262 H 0.46694 0.25627 0.81789 0.0
H263 H 0.43622 0.21012 0.77011 0.0
C264 C 0.35461 0.39865 0.04726 0.0
C265 C 0.32141 0.41153 0.0613 0.0
C266 C 0.402 0.4144 0.06006 0.0
C267 C 0.41729 0.44477 0.08634 0.0
C268 C 0.38304 0.45528 0.10137 0.0
C269 C 0.33495 0.43803 0.08912 0.0
C270 C 0.47122 0.47158 0.09432 0.0
C271 C 0.49756 0.52231 0.09272 0.0
C272 C 0.55132 0.5478 0.08435 0.0
C273 C 0.56597 0.57356 0.0562 0.0
C274 C 0.61307 0.58718 0.04374 0.0
C275 C 0.64663 0.57687 0.05989 0.0
H276 H 0.57508 0.52005 0.12306 0.0
C277 C 0.63377 0.55527 0.08933 0.0
C278 C 0.58594 0.54005 0.10134 0.0
H279 H 0.65913 0.54665 0.102 0.0
H280 H 0.34471 0.37826 0.02577 0.0
H281 H 0.42816 0.40628 0.04809 0.0
H282 H 0.39438 0.47883 0.12162 0.0
H283 H 0.30987 0.44869 0.10011 0.0
H284 H 0.49111 0.45034 0.09338 0.0
H285 H 0.47762 0.5432 0.08946 0.0
H286 H 0.53949 0.57948 0.04273 0.0
H287 H 0.62244 0.60377 0.02099 0.0
C288 C 0.0787 0.64104 0.42283 0.0
C289 C 0.06391 0.6544 0.39545 0.0
C290 C 0.05009 0.59225 0.43475 0.0
C291 C 0.00572 0.55708 0.41985 0.0
C292 C -0.0115 0.57205 0.39421 0.0
C293 C 0.01796 0.62024 0.38169 0.0
C294 C 0.98179 0.50286 0.42699 0.0
C295 C 0.00811 0.47886 0.4228 0.0
C296 C 0.98129 0.42532 0.41399 0.0
C297 C 0.94299 0.38869 0.43254 0.0
C298 C 0.91045 0.34075 0.42079 0.0
C299 C 0.91502 0.32968 0.39013 0.0
H300 H 0.01803 0.44073 0.36971 0.0
C301 C 0.95522 0.36532 0.37226 0.0
C302 C -0.01122 0.41265 0.38436 0.0
H303 H 0.95924 0.35741 0.34856 0.0
H304 H 0.11442 0.66682 0.43356 0.0
H305 H 0.06395 0.5811 0.45448 0.0
H306 H 0.95448 0.54511 0.38234 0.0
H307 H 0.00617 0.62996 0.36049 0.0
H308 H 0.94076 0.48123 0.42757 0.0
H309 H 0.04836 0.50074 0.41797 0.0
H310 H 0.93668 0.39805 0.45542 0.0
H311 H 0.87932 0.31384 0.43486 0.0
C312 C 0.40897 0.02393 0.7147 0.0
C313 C 0.41836 0.06833 0.72957 0.0
C314 C 0.42903 -0.00493 0.7264 0.0
C315 C 0.46027 0.01143 0.75236 0.0
C316 C 0.46801 0.05475 0.76799 0.0
C317 C 0.4464 0.08266 0.75689 0.0
C318 C 0.48953 0.98653 0.75991 0.0
C319 C 0.54007 0.01231 0.75724 0.0
C320 C 0.56654 0.98492 0.74887 0.0
C321 C 0.59068 -0.00476 0.72028 0.0
C322 C 0.60261 0.9608 0.70731 0.0
C323 C 0.59205 0.91664 0.72333 0.0
H324 H 0.54112 0.93441 0.78806 0.0
C325 C 0.57311 0.90924 0.75338 0.0
C326 C 0.55977 0.94291 0.76596 0.0
H327 H 0.5643 0.87517 0.76606 0.0
H328 H 0.38756 0.01254 0.69353 0.0
H329 H 0.42307 0.96187 0.71397 0.0
H330 H 0.49223 0.06791 0.78799 0.0
H331 H 0.45442 0.11722 0.76847 0.0
H332 H 0.4696 0.94541 0.75971 0.0
H333 H 0.55935 0.05293 0.75324 0.0
H334 H 0.59594 0.02742 0.70675 0.0
H335 H 0.61727 0.96715 0.68413 0.0
C336 C 0.48509 0.61634 0.62765 0.0
C337 C 0.5304 0.6422 0.64427 0.0
C338 C 0.46633 0.56607 0.61924 0.0
C339 C 0.49294 0.54111 0.62701 0.0
C340 C 0.53981 0.56791 0.64175 0.0
C341 C 0.55817 0.61792 0.65065 0.0
C342 C 0.47118 0.48634 0.62224 0.0
C343 C 0.42216 0.45343 0.62782 0.0
C344 C 0.40439 0.39917 0.63243 0.0
C345 C 0.37282 0.374 0.65742 0.0
C346 C 0.3642 0.32631 0.66633 0.0
C347 C 0.38647 0.30289 0.64999 0.0
H348 H 0.44646 0.39219 0.59466 0.0
C349 C 0.41406 0.32621 0.6232 0.0
C350 C 0.42305 0.37401 0.61454 0.0
H351 H 0.43113 0.3089 0.60978 0.0
H352 H 0.46294 0.63416 0.62224 0.0
H353 H 0.43055 0.54646 0.60729 0.0
H354 H 0.56106 0.54936 0.64777 0.0
H355 H 0.59349 0.63713 0.66312 0.0
H356 H 0.49742 0.47241 0.61917 0.0
H357 H 0.39703 0.46736 0.63445 0.0
H358 H 0.35767 0.39266 0.67134 0.0
H359 H 0.34221 0.30904 0.68682 0.0
C360 C 0.02769 0.38623 0.98593 0.0
C361 C 0.07718 0.41238 0.97442 0.0
C362 C -0.00787 0.39938 0.97628 0.0
C363 C 0.0059 0.43936 0.95549 0.0
C364 C 0.05395 0.46259 0.94204 0.0
C365 C 0.08924 0.44901 0.9513 0.0
C366 C 0.97201 0.46027 0.95125 0.0
C367 C -0.01007 0.51038 0.95308 0.0
C368 C 0.95603 0.53077 0.95887 0.0
C369 C 0.96944 0.56807 0.98132 0.0
C370 C 0.93459 0.58197 0.99104 0.0
C371 C 0.88628 0.5595 0.97789 0.0
H372 H 0.89814 0.48234 0.92662 0.0
C373 C 0.87438 0.52496 0.95376 0.0
C374 C 0.90889 0.51048 0.94443 0.0
H375 H 0.83754 0.50719 0.943 0.0
H376 H 0.01706 0.35735 1.00344 0.0
H377 H 0.955 0.38075 0.98671 0.0
H378 H 0.06497 0.49284 0.92543 0.0
H379 H 0.12684 0.4695 0.94162 0.0
H380 H 0.93157 0.43422 0.95235 0.0
H381 H 0.03026 0.53594 0.95575 0.0
H382 H 0.00584 0.58436 0.99258 0.0
H383 H 0.94496 0.60909 1.00944 0.0
C384 C 0.33712 0.88337 0.28808 0.0
C385 C 0.31155 0.89646 0.30971 0.0
C386 C 0.38625 0.91831 0.27937 0.0
C387 C 0.4103 0.96701 0.29189 0.0
C388 C 0.38322 0.98167 0.31113 0.0
C389 C 0.33426 0.94647 0.32025 0.0
C390 C 0.46502 0.00087 0.28832 0.0
C391 C 0.49723 0.98327 0.29214 0.0
C392 C 0.55126 0.0178 0.29799 0.0
C393 C 0.57783 0.0641 0.28243 0.0
C394 C 0.62656 0.09937 0.2915 0.0
C395 C 0.64942 0.08909 0.31644 0.0
H396 H 0.55536 0.97016 0.33352 0.0
C397 C 0.62387 0.04152 0.3308 0.0
C398 C 0.57525 0.00593 0.3214 0.0
H399 H 0.64075 0.0323 0.34982 0.0
H400 H 0.32051 0.84529 0.2792 0.0
H401 H 0.40622 0.90659 0.26396 0.0
H402 H 0.40116 0.01931 0.3208 0.0
H403 H 0.3152 0.95783 0.3366 0.0
H404 H 0.4791 0.04136 0.28809 0.0
H405 H 0.48262 0.94312 0.29611 0.0
H406 H 0.56044 0.0736 0.26382 0.0
H407 H 0.6454 0.13547 0.27969 0.0
C408 C 0.32688 0.24662 0.80745 0.0
C409 C 0.29932 0.19933 0.79331 0.0
C410 C 0.31097 0.25599 0.83536 0.0
C411 C 0.26681 0.21829 0.84965 0.0
C412 C 0.23985 0.17061 0.83579 0.0
C413 C 0.25582 0.16124 0.80774 0.0
C414 C 0.24847 0.22787 0.87901 0.0
C415 C 0.25603 0.27398 0.88622 0.0
C416 C 0.23698 0.28544 0.91456 0.0
C417 C 0.22842 0.32648 0.91389 0.0
C418 C 0.21206 0.3401 0.94002 0.0
C419 C 0.20495 0.31374 0.96772 0.0
H420 H 0.23645 0.22711 0.94367 0.0
C421 C 0.21332 0.27251 0.96864 0.0
C422 C 0.2292 0.25834 0.9422 0.0
H423 H 0.20807 0.25163 0.98977 0.0
H424 H 0.36109 0.27637 0.79706 0.0
H425 H 0.3338 0.29261 0.84584 0.0
H426 H 0.20602 0.14079 0.84647 0.0
H427 H 0.23425 0.12426 0.79742 0.0
H428 H 0.22565 0.19582 0.8939 0.0
H429 H 0.2745 0.30459 0.86968 0.0
H430 H 0.23413 0.34802 0.89297 0.0
H431 H 0.20489 0.3714 0.93846 0.0
C432 C 0.91785 0.20546 0.29509 0.0
C433 C 0.86793 0.19574 0.29607 0.0
C434 C 0.94343 0.21534 0.26707 0.0
C435 C 0.91943 0.21582 0.23949 0.0
C436 C 0.86898 0.20454 0.24057 0.0
C437 C 0.84354 0.19471 0.26853 0.0
C438 C 0.94543 0.22772 0.20922 0.0
C439 C -0.00416 0.25654 0.20611 0.0
C440 C 0.02219 0.27282 0.17602 0.0
C441 C 0.07022 0.31609 0.17529 0.0
C442 C 0.09663 0.33341 0.14777 0.0
C443 C 0.07586 0.30756 0.12028 0.0
H444 H 0.96508 0.21224 0.14812 0.0
C445 C 0.02809 0.26387 0.12079 0.0
C446 C 0.00142 0.24651 0.14845 0.0
H447 H 0.01146 0.2431 0.09989 0.0
H448 H 0.93725 0.2058 0.316 0.0
H449 H 0.9817 0.2221 0.26718 0.0
H450 H 0.84933 0.20404 0.21973 0.0
H451 H 0.80464 0.18623 0.26854 0.0
H452 H 0.92177 0.21562 0.1889 0.0
H453 H 0.01892 0.27227 0.22645 0.0
H454 H 0.08731 0.337 0.1961 0.0
H455 H 0.13347 0.36721 0.14809 0.0
C456 C 0.70894 0.91651 0.62603 0.0
C457 C 0.66554 0.86852 0.62618 0.0
C458 C 0.72599 0.94413 0.59864 0.0
C459 C 0.69996 0.9239 0.57094 0.0
C460 C 0.65729 0.87541 0.57115 0.0
C461 C 0.64001 0.84817 0.5985 0.0
C462 C 0.71604 0.95207 0.54144 0.0
C463 C 0.73784 0.0027 0.53972 0.0
C464 C 0.74784 0.03042 0.51015 0.0
C465 C 0.74443 0.07455 0.50915 0.0
C466 C 0.75202 0.10104 0.48168 0.0
C467 C 0.7643 0.08456 0.45473 0.0
H468 H 0.76467 0.98077 0.48336 0.0
C469 C 0.76902 0.04114 0.4557 0.0
C470 C 0.76061 0.01405 0.48319 0.0
H471 H 0.7788 0.02794 0.43523 0.0
H472 H 0.72946 0.9328 0.64707 0.0
H473 H 0.75976 0.98092 0.59916 0.0
H474 H 0.63673 0.85884 0.55015 0.0
H475 H 0.60673 0.81094 0.59791 0.0
H476 H 0.70514 0.9301 0.52045 0.0
H477 H 0.74402 0.02427 0.56061 0.0
H478 H 0.73495 0.08812 0.52958 0.0
H479 H 0.74848 0.13465 0.48162 0.0
C480 C 0.64794 0.74023 0.80662 0.0
C481 C 0.67038 0.74635 0.77771 0.0
C482 C 0.66795 0.72911 0.83236 0.0
C483 C 0.71136 0.72443 0.82978 0.0
C484 C 0.73331 0.72988 0.80068 0.0
C485 C 0.7131 0.74086 0.77487 0.0
C486 C 0.73329 0.71161 0.85654 0.0
C487 C 0.72541 0.7195 0.88595 0.0
C488 C 0.74465 0.70415 0.91298 0.0
C489 C 0.74455 0.7244 0.94188 0.0
C490 C 0.75965 0.70891 0.96817 0.0
C491 C 0.77481 0.67259 0.96604 0.0
H492 H 0.76004 0.65034 0.88954 0.0
C493 C 0.77589 0.653 0.9372 0.0
C494 C 0.76052 0.66812 0.91099 0.0
H495 H 0.78797 0.62529 0.93492 0.0
H496 H 0.61453 0.74366 0.80937 0.0
H497 H 0.64855 0.7233 0.85399 0.0
H498 H 0.76634 0.72583 0.79792 0.0
H499 H 0.73095 0.7452 0.75276 0.0
H500 H 0.75784 0.6964 0.85149 0.0
H501 H 0.7046 0.73894 0.89074 0.0
H502 H 0.73225 0.75194 0.94419 0.0
H503 H 0.75852 0.7246 0.99018 0.0
C504 C 0.09959 0.76771 0.27367 0.0
C505 C 0.0816 0.77123 0.30262 0.0
C506 C 0.06757 0.75188 0.24827 0.0
C507 C 0.01678 0.7392 0.25131 0.0
C508 C -0.00133 0.74208 0.28039 0.0
C509 C 0.03093 0.75842 0.30581 0.0
C510 C 0.98146 0.72046 0.2249 0.0
C511 C -0.00355 0.73469 0.19571 0.0
C512 C 0.96184 0.71383 0.16907 0.0
C513 C 0.97208 0.74319 0.1423 0.0
C514 C 0.94106 0.72384 0.11648 0.0
C515 C 0.8998 0.67444 0.11687 0.0
H516 H 0.9123 0.63997 0.18919 0.0
C517 C 0.88983 0.64483 0.14347 0.0
C518 C 0.92046 0.66429 0.16934 0.0
H519 H 0.85839 0.60644 0.14428 0.0
H520 H 0.13854 0.77728 0.27062 0.0
H521 H 0.08251 0.74861 0.22645 0.0
H522 H 0.95955 0.73194 0.2834 0.0
H523 H 0.01615 0.76056 0.32796 0.0
H524 H 0.94173 0.69537 0.22986 0.0
H525 H 0.03517 0.76374 0.19109 0.0
H526 H 0.00407 0.78125 0.1414 0.0
H527 H 0.94961 0.74732 0.09617 0.0
C528 C 0.31816 0.10558 0.60901 0.0
C529 C 0.29901 0.08447 0.63795 0.0
C530 C 0.30168 0.07568 0.58271 0.0
C531 C 0.26505 0.02407 0.58484 0.0
C532 C 0.24571 0.00326 0.61387 0.0
C533 C 0.26234 0.0332 0.64016 0.0
C534 C 0.24805 -0.00991 0.55778 0.0
C535 C 0.25305 0.00635 0.52849 0.0
C536 C 0.23812 0.97174 0.50176 0.0
C537 C 0.22712 0.9869 0.47364 0.0
C538 C 0.21405 0.95561 0.4479 0.0
C539 C 0.2121 0.90877 0.44985 0.0
H540 H 0.24687 0.91265 0.52421 0.0
C541 C 0.22363 0.89381 0.47779 0.0
C542 C 0.23676 0.92499 0.50342 0.0
H543 H 0.22314 0.85815 0.47978 0.0
H544 H 0.34619 0.14521 0.60668 0.0
H545 H 0.3187 0.09307 0.56101 0.0
H546 H 0.21778 0.96359 0.61626 0.0
H547 H 0.24701 0.01604 0.66225 0.0
H548 H 0.22947 0.94979 0.56246 0.0
H549 H 0.26712 0.04609 0.52368 0.0
H550 H 0.22852 0.02298 0.4716 0.0
H551 H 0.20565 0.96811 0.42651 0.0
loop_
_geom_bond_atom_site_label_1
_geom_bond_atom_site_label_2
_geom_bond_distance
_geom_bond_site_symmetry_2
_ccdc_geom_bond_type
Tb0 O3 2.453 1_554 S
Tb0 O4 2.596 1_554 S
Tb0 O5 2.374 . S
Tb0 O13 2.343 . S
Tb0 O15 2.353 1_554 S
Tb0 O17 2.427 . S
Tb0 O18 2.513 . S
C1 O5 1.251 . S
C1 O7 1.263 . S
Tb2 O4 2.343 . S
Tb2 O7 2.353 1_556 S
Tb2 O10 2.427 . S
Tb2 O11 2.513 . S
Tb2 O12 2.453 1_556 S
Tb2 O13 2.596 1_556 S
Tb2 O14 2.374 . S
O3 Tb0 2.453 1_556 S
O3 C19 1.245 . S
O4 Tb0 2.596 1_556 S
O4 Tb2 2.343 . S
O4 C19 1.259 . S
O5 Tb0 2.374 . S
O5 C1 1.251 . S
C6 O10 1.275 . S
C6 O11 1.246 . S
O7 C1 1.263 . S
O7 Tb2 2.353 1_554 S
C8 O12 1.245 . S
C8 O13 1.259 . S
C9 O14 1.250 . S
C9 O15 1.263 . S
O10 Tb2 2.427 . S
O10 C6 1.275 . S
O11 Tb2 2.513 . S
O11 C6 1.246 . S
O12 Tb2 2.453 1_554 S
O12 C8 1.245 . S
O13 Tb0 2.343 . S
O13 Tb2 2.596 1_554 S
O13 C8 1.259 . S
O14 Tb2 2.374 . S
O14 C9 1.250 . S
O15 Tb0 2.353 1_556 S
O15 C9 1.263 . S
C16 O17 1.275 . S
C16 O18 1.246 . S
O17 Tb0 2.427 . S
O17 C16 1.275 . S
O18 Tb0 2.513 . S
O18 C16 1.246 . S
C19 O3 1.245 . S
C19 O4 1.259 . S
Tb20 O23 2.453 . S
Tb20 O24 2.596 . S
Tb20 O25 2.374 . S
Tb20 O33 2.343 . S
Tb20 O35 2.353 . S
Tb20 O37 2.427 . S
Tb20 O38 2.513 . S
C21 O25 1.251 . S
C21 O27 1.263 . S
Tb22 O24 2.343 . S
Tb22 O27 2.353 . S
Tb22 O30 2.427 . S
Tb22 O31 2.513 . S
Tb22 O32 2.453 . S
Tb22 O33 2.596 . S
Tb22 O34 2.374 . S
O23 Tb20 2.453 . S
O23 C39 1.245 . S
O24 Tb20 2.596 . S
O24 Tb22 2.343 . S
O24 C39 1.259 . S
O25 Tb20 2.374 . S
O25 C21 1.251 . S
C26 O30 1.275 . S
C26 O31 1.246 . S
O27 C21 1.263 . S
O27 Tb22 2.353 . S
C28 O32 1.245 . S
C28 O33 1.259 . S
C29 O34 1.250 . S
C29 O35 1.263 . S
O30 Tb22 2.427 . S
O30 C26 1.275 . S
O31 Tb22 2.513 . S
O31 C26 1.246 . S
O32 Tb22 2.453 . S
O32 C28 1.245 . S
O33 Tb20 2.343 . S
O33 Tb22 2.596 . S
O33 C28 1.259 . S
O34 Tb22 2.374 . S
O34 C29 1.250 . S
O35 Tb20 2.353 . S
O35 C29 1.263 . S
C36 O37 1.275 . S
C36 O38 1.246 . S
O37 Tb20 2.427 . S
O37 C36 1.275 . S
O38 Tb20 2.513 . S
O38 C36 1.246 . S
C39 O23 1.245 . S
C39 O24 1.259 . S
Tb40 O43 2.453 . S
Tb40 O44 2.596 . S
Tb40 O45 2.374 . S
Tb40 O53 2.343 . S
Tb40 O55 2.353 . S
Tb40 O57 2.427 . S
Tb40 O58 2.513 . S
C41 O45 1.251 . S
C41 O47 1.263 . S
Tb42 O44 2.343 . S
Tb42 O47 2.353 . S
Tb42 O50 2.427 . S
Tb42 O51 2.513 . S
Tb42 O52 2.453 . S
Tb42 O53 2.596 . S
Tb42 O54 2.374 . S
O43 Tb40 2.453 . S
O43 C59 1.245 . S
O44 Tb40 2.596 . S
O44 Tb42 2.343 . S
O44 C59 1.259 . S
O45 Tb40 2.374 . S
O45 C41 1.251 . S
C46 O50 1.275 . S
C46 O51 1.246 . S
O47 C41 1.263 . S
O47 Tb42 2.353 . S
C48 O52 1.245 . S
C48 O53 1.259 . S
C49 O54 1.250 . S
C49 O55 1.263 . S
O50 Tb42 2.427 . S
O50 C46 1.275 . S
O51 Tb42 2.513 . S
O51 C46 1.246 . S
O52 Tb42 2.453 . S
O52 C48 1.245 . S
O53 Tb40 2.343 . S
O53 Tb42 2.596 . S
O53 C48 1.259 . S
O54 Tb42 2.374 . S
O54 C49 1.250 . S
O55 Tb40 2.353 . S
O55 C49 1.263 . S
C56 O57 1.275 . S
C56 O58 1.246 . S
O57 Tb40 2.427 . S
O57 C56 1.275 . S
O58 Tb40 2.513 . S
O58 C56 1.246 . S
C59 O43 1.245 . S
C59 O44 1.259 . S
Tb60 O63 2.453 1_554 S
Tb60 O64 2.596 1_554 S
Tb60 O65 2.374 . S
Tb60 O73 2.343 . S
Tb60 O75 2.353 1_554 S
Tb60 O77 2.427 . S
Tb60 O78 2.513 . S
C61 O65 1.251 . S
C61 O67 1.263 . S
Tb62 O64 2.343 . S
Tb62 O67 2.353 1_556 S
Tb62 O70 2.427 . S
Tb62 O71 2.513 . S
Tb62 O72 2.453 1_556 S
Tb62 O73 2.596 1_556 S
Tb62 O74 2.374 . S
O63 Tb60 2.453 1_556 S
O63 C79 1.245 . S
O64 Tb60 2.596 1_556 S
O64 Tb62 2.343 . S
O64 C79 1.259 . S
O65 Tb60 2.374 . S
O65 C61 1.251 . S
C66 O70 1.275 . S
C66 O71 1.246 . S
O67 C61 1.263 . S
O67 Tb62 2.353 1_554 S
C68 O72 1.245 . S
C68 O73 1.259 . S
C69 O74 1.250 . S
C69 O75 1.263 . S
O70 Tb62 2.427 . S
O70 C66 1.275 . S
O71 Tb62 2.513 . S
O71 C66 1.246 . S
O72 Tb62 2.453 1_554 S
O72 C68 1.245 . S
O73 Tb60 2.343 . S
O73 Tb62 2.596 1_554 S
O73 C68 1.259 . S
O74 Tb62 2.374 . S
O74 C69 1.250 . S
O75 Tb60 2.353 1_556 S
O75 C69 1.263 . S
C76 O77 1.275 . S
C76 O78 1.246 . S
O77 Tb60 2.427 . S
O77 C76 1.275 . S
O78 Tb60 2.513 . S
O78 C76 1.246 . S
C79 O63 1.245 . S
C79 O64 1.259 . S
Tb80 O83 2.453 . S
Tb80 O84 2.596 . S
Tb80 O85 2.374 . S
Tb80 O93 2.343 . S
Tb80 O95 2.353 . S
Tb80 O97 2.427 . S
Tb80 O98 2.513 . S
C81 O85 1.251 . S
C81 O87 1.263 . S
Tb82 O84 2.343 . S
Tb82 O87 2.353 . S
Tb82 O90 2.427 . S
Tb82 O91 2.513 . S
Tb82 O92 2.453 . S
Tb82 O93 2.596 . S
Tb82 O94 2.374 . S
O83 Tb80 2.453 . S
O83 C99 1.245 . S
O84 Tb80 2.596 . S
O84 Tb82 2.343 . S
O84 C99 1.259 . S
O85 Tb80 2.374 . S
O85 C81 1.251 . S
C86 O90 1.275 . S
C86 O91 1.246 . S
O87 C81 1.263 . S
O87 Tb82 2.353 . S
C88 O92 1.245 . S
C88 O93 1.259 . S
C89 O94 1.250 . S
C89 O95 1.263 . S
O90 Tb82 2.427 . S
O90 C86 1.275 . S
O91 Tb82 2.513 . S
O91 C86 1.246 . S
O92 Tb82 2.453 . S
O92 C88 1.245 . S
O93 Tb80 2.343 . S
O93 Tb82 2.596 . S
O93 C88 1.259 . S
O94 Tb82 2.374 . S
O94 C89 1.250 . S
O95 Tb80 2.353 . S
O95 C89 1.263 . S
C96 O97 1.275 . S
C96 O98 1.246 . S
O97 Tb80 2.427 . S
O97 C96 1.275 . S
O98 Tb80 2.513 . S
O98 C96 1.246 . S
C99 O83 1.245 . S
C99 O84 1.259 . S
Tb100 O103 2.453 . S
Tb100 O104 2.596 . S
Tb100 O105 2.374 . S
Tb100 O113 2.343 . S
Tb100 O115 2.353 . S
Tb100 O117 2.427 . S
Tb100 O118 2.513 . S
C101 O105 1.251 . S
C101 O107 1.263 . S
Tb102 O104 2.343 . S
Tb102 O107 2.353 . S
Tb102 O110 2.427 . S
Tb102 O111 2.513 . S
Tb102 O112 2.453 . S
Tb102 O113 2.596 . S
Tb102 O114 2.374 . S
O103 Tb100 2.453 . S
O103 C119 1.245 . S
O104 Tb100 2.596 . S
O104 Tb102 2.343 . S
O104 C119 1.259 . S
O105 Tb100 2.374 . S
O105 C101 1.251 . S
C106 O110 1.275 . S
C106 O111 1.246 . S
O107 C101 1.263 . S
O107 Tb102 2.353 . S
C108 O112 1.245 . S
C108 O113 1.259 . S
C109 O114 1.250 . S
C109 O115 1.263 . S
O110 Tb102 2.427 . S
O110 C106 1.275 . S
O111 Tb102 2.513 . S
O111 C106 1.246 . S
O112 Tb102 2.453 . S
O112 C108 1.245 . S
O113 Tb100 2.343 . S
O113 Tb102 2.596 . S
O113 C108 1.259 . S
O114 Tb102 2.374 . S
O114 C109 1.250 . S
O115 Tb100 2.353 . S
O115 C109 1.263 . S
C116 O117 1.275 . S
C116 O118 1.246 . S
O117 Tb100 2.427 . S
O117 C116 1.275 . S
O118 Tb100 2.513 . S
O118 C116 1.246 . S
C119 O103 1.245 . S
C119 O104 1.259 . S
C120 C121 1.386 . S
C120 C122 1.383 . S
C120 H136 0.951 . S
C121 C120 1.386 . S
C121 C125 1.383 . S
C122 C120 1.383 . S
C122 C123 1.402 . S
C122 H137 0.951 . S
C123 C122 1.402 . S
C123 C124 1.375 . S
C123 C126 1.481 . S
C124 C123 1.375 . S
C124 C125 1.367 . S
C124 H138 0.951 . S
C125 C121 1.383 . S
C125 C124 1.367 . S
C125 H139 0.950 . S
C126 C123 1.481 . S
C126 C127 1.297 . S
C126 H140 0.950 . S
C127 C126 1.297 . S
C127 C128 1.479 . S
C127 H141 0.950 . S
C128 C127 1.479 . S
C128 C129 1.375 . S
C128 C134 1.404 . S
C129 C128 1.375 . S
C129 C130 1.369 . S
C129 H142 0.950 . S
C130 C129 1.369 . S
C130 C131 1.392 . S
C130 H143 0.951 . S
C131 C130 1.392 . S
C131 C133 1.384 . S
H132 C134 0.949 . S
C133 C131 1.384 . S
C133 C134 1.385 . S
C133 H135 0.950 . S
C134 C128 1.404 . S
C134 H132 0.949 . S
C134 C133 1.385 . S
H135 C133 0.950 . S
H136 C120 0.951 . S
H137 C122 0.951 . S
H138 C124 0.951 . S
H139 C125 0.950 . S
H140 C126 0.950 . S
H141 C127 0.950 . S
H142 C129 0.950 . S
H143 C130 0.951 . S
C144 C145 1.386 . S
C144 C146 1.383 . S
C144 H160 0.951 . S
C145 C144 1.386 . S
C145 C149 1.383 . S
C146 C144 1.383 . S
C146 C147 1.402 . S
C146 H161 0.951 . S
C147 C146 1.402 . S
C147 C148 1.375 . S
C147 C150 1.481 . S
C148 C147 1.375 . S
C148 C149 1.367 . S
C148 H162 0.951 . S
C149 C145 1.383 . S
C149 C148 1.367 . S
C149 H163 0.950 . S
C150 C147 1.481 . S
C150 C151 1.297 . S
C150 H164 0.950 . S
C151 C150 1.297 . S
C151 C152 1.479 . S
C151 H165 0.950 . S
C152 C151 1.479 . S
C152 C153 1.375 . S
C152 C158 1.404 . S
C153 C152 1.375 . S
C153 C154 1.369 . S
C153 H166 0.950 . S
C154 C153 1.369 . S
C154 C155 1.392 . S
C154 H167 0.951 . S
C155 C154 1.392 . S
C155 C157 1.384 . S
H156 C158 0.949 . S
C157 C155 1.384 . S
C157 C158 1.385 . S
C157 H159 0.950 . S
C158 C152 1.404 . S
C158 H156 0.949 . S
C158 C157 1.385 . S
H159 C157 0.950 . S
H160 C144 0.951 . S
H161 C146 0.951 . S
H162 C148 0.951 . S
H163 C149 0.950 . S
H164 C150 0.950 . S
H165 C151 0.950 . S
H166 C153 0.950 . S
H167 C154 0.951 . S
C168 C169 1.386 . S
C168 C170 1.383 . S
C168 H184 0.951 . S
C169 C168 1.386 . S
C169 C173 1.383 . S
C170 C168 1.383 . S
C170 C171 1.402 . S
C170 H185 0.951 . S
C171 C170 1.402 . S
C171 C172 1.375 . S
C171 C174 1.481 . S
C172 C171 1.375 . S
C172 C173 1.367 . S
C172 H186 0.951 . S
C173 C169 1.383 . S
C173 C172 1.367 . S
C173 H187 0.950 . S
C174 C171 1.481 . S
C174 C175 1.297 . S
C174 H188 0.950 . S
C175 C174 1.297 . S
C175 C176 1.479 . S
C175 H189 0.950 . S
C176 C175 1.479 . S
C176 C177 1.375 . S
C176 C182 1.404 . S
C177 C176 1.375 . S
C177 C178 1.369 . S
C177 H190 0.950 . S
C178 C177 1.369 . S
C178 C179 1.392 . S
C178 H191 0.951 . S
C179 C178 1.392 . S
C179 C181 1.384 . S
H180 C182 0.949 . S
C181 C179 1.384 . S
C181 C182 1.385 . S
C181 H183 0.950 . S
C182 C176 1.404 . S
C182 H180 0.949 . S
C182 C181 1.385 . S
H183 C181 0.950 . S
H184 C168 0.951 . S
H185 C170 0.951 . S
H186 C172 0.951 . S
H187 C173 0.950 . S
H188 C174 0.950 . S
H189 C175 0.950 . S
H190 C177 0.950 . S
H191 C178 0.951 . S
C192 C193 1.386 . S
C192 C194 1.383 . S
C192 H208 0.951 . S
C193 C192 1.386 . S
C193 C197 1.383 . S
C194 C192 1.383 . S
C194 C195 1.402 . S
C194 H209 0.951 . S
C195 C194 1.402 . S
C195 C196 1.375 . S
C195 C198 1.481 . S
C196 C195 1.375 . S
C196 C197 1.367 . S
C196 H210 0.951 . S
C197 C193 1.383 . S
C197 C196 1.367 . S
C197 H211 0.950 . S
C198 C195 1.481 . S
C198 C199 1.297 . S
C198 H212 0.950 . S
C199 C198 1.297 . S
C199 C200 1.479 . S
C199 H213 0.950 . S
C200 C199 1.479 . S
C200 C201 1.375 . S
C200 C206 1.404 . S
C201 C200 1.375 . S
C201 C202 1.369 . S
C201 H214 0.950 . S
C202 C201 1.369 . S
C202 C203 1.392 . S
C202 H215 0.951 . S
C203 C202 1.392 . S
C203 C205 1.384 . S
H204 C206 0.949 . S
C205 C203 1.384 . S
C205 C206 1.385 . S
C205 H207 0.950 . S
C206 C200 1.404 . S
C206 H204 0.949 . S
C206 C205 1.385 . S
H207 C205 0.950 . S
H208 C192 0.951 . S
H209 C194 0.951 . S
H210 C196 0.951 . S
H211 C197 0.950 . S
H212 C198 0.950 . S
H213 C199 0.950 . S
H214 C201 0.950 . S
H215 C202 0.951 . S
C216 C217 1.386 . S
C216 C218 1.383 . S
C216 H232 0.951 . S
C217 C216 1.386 . S
C217 C221 1.383 . S
C218 C216 1.383 . S
C218 C219 1.402 . S
C218 H233 0.951 . S
C219 C218 1.402 . S
C219 C220 1.375 . S
C219 C222 1.481 . S
C220 C219 1.375 . S
C220 C221 1.367 . S
C220 H234 0.951 . S
C221 C217 1.383 . S
C221 C220 1.367 . S
C221 H235 0.950 . S
C222 C219 1.481 . S
C222 C223 1.297 . S
C222 H236 0.950 . S
C223 C222 1.297 . S
C223 C224 1.479 . S
C223 H237 0.950 . S
C224 C223 1.479 . S
C224 C225 1.375 . S
C224 C230 1.404 . S
C225 C224 1.375 . S
C225 C226 1.369 . S
C225 H238 0.950 . S
C226 C225 1.369 . S
C226 C227 1.392 . S
C226 H239 0.951 . S
C227 C226 1.392 . S
C227 C229 1.384 . S
H228 C230 0.949 . S
C229 C227 1.384 . S
C229 C230 1.385 . S
C229 H231 0.950 . S
C230 C224 1.404 . S
C230 H228 0.949 . S
C230 C229 1.385 . S
H231 C229 0.950 . S
H232 C216 0.951 . S
H233 C218 0.951 . S
H234 C220 0.951 . S
H235 C221 0.950 . S
H236 C222 0.950 . S
H237 C223 0.950 . S
H238 C225 0.950 . S
H239 C226 0.951 . S
C240 C241 1.386 . S
C240 C242 1.383 . S
C240 H256 0.951 . S
C241 C240 1.386 . S
C241 C245 1.383 . S
C242 C240 1.383 . S
C242 C243 1.402 . S
C242 H257 0.951 . S
C243 C242 1.402 . S
C243 C244 1.375 . S
C243 C246 1.481 . S
C244 C243 1.375 . S
C244 C245 1.367 . S
C244 H258 0.951 . S
C245 C241 1.383 . S
C245 C244 1.367 . S
C245 H259 0.950 . S
C246 C243 1.481 . S
C246 C247 1.297 . S
C246 H260 0.950 . S
C247 C246 1.297 . S
C247 C248 1.479 . S
C247 H261 0.950 . S
C248 C247 1.479 . S
C248 C249 1.375 . S
C248 C254 1.404 . S
C249 C248 1.375 . S
C249 C250 1.369 . S
C249 H262 0.950 . S
C250 C249 1.369 . S
C250 C251 1.392 . S
C250 H263 0.951 . S
C251 C250 1.392 . S
C251 C253 1.384 . S
H252 C254 0.949 . S
C253 C251 1.384 . S
C253 C254 1.385 . S
C253 H255 0.950 . S
C254 C248 1.404 . S
C254 H252 0.949 . S
C254 C253 1.385 . S
H255 C253 0.950 . S
H256 C240 0.951 . S
H257 C242 0.951 . S
H258 C244 0.951 . S
H259 C245 0.950 . S
H260 C246 0.950 . S
H261 C247 0.950 . S
H262 C249 0.950 . S
H263 C250 0.951 . S
C264 C265 1.386 . S
C264 C266 1.383 . S
C264 H280 0.951 . S
C265 C264 1.386 . S
C265 C269 1.383 . S
C266 C264 1.383 . S
C266 C267 1.402 . S
C266 H281 0.951 . S
C267 C266 1.402 . S
C267 C268 1.375 . S
C267 C270 1.481 . S
C268 C267 1.375 . S
C268 C269 1.367 . S
C268 H282 0.951 . S
C269 C265 1.383 . S
C269 C268 1.367 . S
C269 H283 0.950 . S
C270 C267 1.481 . S
C270 C271 1.297 . S
C270 H284 0.950 . S
C271 C270 1.297 . S
C271 C272 1.479 . S
C271 H285 0.950 . S
C272 C271 1.479 . S
C272 C273 1.375 . S
C272 C278 1.404 . S
C273 C272 1.375 . S
C273 C274 1.369 . S
C273 H286 0.950 . S
C274 C273 1.369 . S
C274 C275 1.392 . S
C274 H287 0.951 . S
C275 C274 1.392 . S
C275 C277 1.384 . S
H276 C278 0.949 . S
C277 C275 1.384 . S
C277 C278 1.385 . S
C277 H279 0.950 . S
C278 C272 1.404 . S
C278 H276 0.949 . S
C278 C277 1.385 . S
H279 C277 0.950 . S
H280 C264 0.951 . S
H281 C266 0.951 . S
H282 C268 0.951 . S
H283 C269 0.950 . S
H284 C270 0.950 . S
H285 C271 0.950 . S
H286 C273 0.950 . S
H287 C274 0.951 . S
C288 C289 1.386 . S
C288 C290 1.383 . S
C288 H304 0.951 . S
C289 C288 1.386 . S
C289 C293 1.383 . S
C290 C288 1.383 . S
C290 C291 1.402 . S
C290 H305 0.951 . S
C291 C290 1.402 . S
C291 C292 1.375 . S
C291 C294 1.481 1_455 S
C292 C291 1.375 . S
C292 C293 1.367 . S
C292 H306 0.951 . S
C293 C289 1.383 . S
C293 C292 1.367 . S
C293 H307 0.950 . S
C294 C291 1.481 1_655 S
C294 C295 1.297 . S
C294 H308 0.950 . S
C295 C294 1.297 . S
C295 C296 1.479 . S
C295 H309 0.950 . S
C296 C295 1.479 . S
C296 C297 1.375 . S
C296 C302 1.404 . S
C297 C296 1.375 . S
C297 C298 1.369 . S
C297 H310 0.950 . S
C298 C297 1.369 . S
C298 C299 1.392 . S
C298 H311 0.951 . S
C299 C298 1.392 . S
C299 C301 1.384 . S
H300 C302 0.949 . S
C301 C299 1.384 . S
C301 C302 1.385 . S
C301 H303 0.950 . S
C302 C296 1.404 . S
C302 H300 0.949 . S
C302 C301 1.385 . S
H303 C301 0.950 . S
H304 C288 0.951 . S
H305 C290 0.951 . S
H306 C292 0.951 . S
H307 C293 0.950 . S
H308 C294 0.950 . S
H309 C295 0.950 . S
H310 C297 0.950 . S
H311 C298 0.951 . S
C312 C313 1.386 . S
C312 C314 1.383 . S
C312 H328 0.951 . S
C313 C312 1.386 . S
C313 C317 1.383 . S
C314 C312 1.383 . S
C314 C315 1.402 . S
C314 H329 0.951 . S
C315 C314 1.402 . S
C315 C316 1.375 . S
C315 C318 1.481 . S
C316 C315 1.375 . S
C316 C317 1.367 . S
C316 H330 0.951 . S
C317 C313 1.383 . S
C317 C316 1.367 . S
C317 H331 0.950 . S
C318 C315 1.481 . S
C318 C319 1.297 . S
C318 H332 0.950 . S
C319 C318 1.297 . S
C319 C320 1.479 1_545 S
C319 H333 0.950 . S
C320 C319 1.479 1_565 S
C320 C321 1.375 . S
C320 C326 1.404 . S
C321 C320 1.375 . S
C321 C322 1.369 . S
C321 H334 0.950 . S
C322 C321 1.369 . S
C322 C323 1.392 . S
C322 H335 0.951 . S
C323 C322 1.392 . S
C323 C325 1.384 . S
H324 C326 0.949 . S
C325 C323 1.384 . S
C325 C326 1.385 . S
C325 H327 0.950 . S
C326 C320 1.404 . S
C326 H324 0.949 . S
C326 C325 1.385 . S
H327 C325 0.950 . S
H328 C312 0.951 . S
H329 C314 0.951 . S
H330 C316 0.951 . S
H331 C317 0.950 . S
H332 C318 0.950 . S
H333 C319 0.950 . S
H334 C321 0.950 . S
H335 C322 0.951 . S
C336 C337 1.386 . S
C336 C338 1.383 . S
C336 H352 0.951 . S
C337 C336 1.386 . S
C337 C341 1.383 . S
C338 C336 1.383 . S
C338 C339 1.402 . S
C338 H353 0.951 . S
C339 C338 1.402 . S
C339 C340 1.375 . S
C339 C342 1.481 . S
C340 C339 1.375 . S
C340 C341 1.367 . S
C340 H354 0.951 . S
C341 C337 1.383 . S
C341 C340 1.367 . S
C341 H355 0.950 . S
C342 C339 1.481 . S
C342 C343 1.297 . S
C342 H356 0.950 . S
C343 C342 1.297 . S
C343 C344 1.479 . S
C343 H357 0.950 . S
C344 C343 1.479 . S
C344 C345 1.375 . S
C344 C350 1.404 . S
C345 C344 1.375 . S
C345 C346 1.369 . S
C345 H358 0.950 . S
C346 C345 1.369 . S
C346 C347 1.392 . S
C346 H359 0.951 . S
C347 C346 1.392 . S
C347 C349 1.384 . S
H348 C350 0.949 . S
C349 C347 1.384 . S
C349 C350 1.385 . S
C349 H351 0.950 . S
C350 C344 1.404 . S
C350 H348 0.949 . S
C350 C349 1.385 . S
H351 C349 0.950 . S
H352 C336 0.951 . S
H353 C338 0.951 . S
H354 C340 0.951 . S
H355 C341 0.950 . S
H356 C342 0.950 . S
H357 C343 0.950 . S
H358 C345 0.950 . S
H359 C346 0.951 . S
C360 C361 1.386 1_554 S
C360 C362 1.383 . S
C360 H376 0.951 . S
C361 C360 1.386 1_556 S
C361 C365 1.383 . S
C362 C360 1.383 . S
C362 C363 1.402 1_554 S
C362 H377 0.951 . S
C363 C362 1.402 1_556 S
C363 C364 1.375 . S
C363 C366 1.481 . S
C364 C363 1.375 . S
C364 C365 1.367 . S
C364 H378 0.951 . S
C365 C361 1.383 . S
C365 C364 1.367 . S
C365 H379 0.950 . S
C366 C363 1.481 . S
C366 C367 1.276 1_556 S
C366 H380 0.950 . S
C367 C366 1.276 1_554 S
C367 C368 1.477 1_454 S
C367 H381 0.978 . S
C368 C367 1.477 1_656 S
C368 C369 1.375 1_556 S
C368 C374 1.404 . S
C369 C368 1.375 1_554 S
C369 C370 1.369 . S
C369 H382 0.950 . S
C370 C369 1.369 . S
C370 C371 1.392 1_554 S
C370 H383 0.951 . S
C371 C370 1.392 1_556 S
C371 C373 1.384 . S
H372 C374 0.949 . S
C373 C371 1.384 . S
C373 C374 1.385 . S
C373 H375 0.950 . S
C374 C368 1.404 . S
C374 H372 0.949 . S
C374 C373 1.385 . S
H375 C373 0.950 . S
H376 C360 0.951 . S
H377 C362 0.951 . S
H378 C364 0.951 . S
H379 C365 0.950 . S
H380 C366 0.950 . S
H381 C367 0.978 . S
H382 C369 0.950 . S
H383 C370 0.951 . S
C384 C385 1.386 . S
C384 C386 1.383 . S
C384 H400 0.951 . S
C385 C384 1.386 . S
C385 C389 1.383 . S
C386 C384 1.383 . S
C386 C387 1.402 . S
C386 H401 0.951 . S
C387 C386 1.402 . S
C387 C388 1.375 . S
C387 C390 1.481 1_565 S
C388 C387 1.375 . S
C388 C389 1.367 . S
C388 H402 0.951 1_565 S
C389 C385 1.383 . S
C389 C388 1.367 . S
C389 H403 0.950 . S
C390 C387 1.481 1_545 S
C390 C391 1.297 . S
C390 H404 0.950 . S
C391 C390 1.297 . S
C391 C392 1.479 . S
C391 H405 0.950 1_545 S
C392 C391 1.479 . S
C392 C393 1.375 . S
C392 C398 1.404 . S
C393 C392 1.375 . S
C393 C394 1.369 . S
C393 H406 0.950 . S
C394 C393 1.369 . S
C394 C395 1.392 . S
C394 H407 0.951 . S
C395 C394 1.392 . S
C395 C397 1.384 . S
H396 C398 0.949 . S
C397 C395 1.384 . S
C397 C398 1.385 . S
C397 H399 0.950 . S
C398 C392 1.404 . S
C398 H396 0.949 . S
C398 C397 1.385 . S
H399 C397 0.950 . S
H400 C384 0.951 . S
H401 C386 0.951 . S
H402 C388 0.951 1_545 S
H403 C389 0.950 . S
H404 C390 0.950 . S
H405 C391 0.950 1_565 S
H406 C393 0.950 . S
H407 C394 0.951 . S
C408 C409 1.386 . S
C408 C410 1.383 . S
C408 H424 0.951 . S
C409 C408 1.386 . S
C409 C413 1.383 . S
C410 C408 1.383 . S
C410 C411 1.402 . S
C410 H425 0.951 . S
C411 C410 1.402 . S
C411 C412 1.375 . S
C411 C414 1.481 . S
C412 C411 1.375 . S
C412 C413 1.367 . S
C412 H426 0.951 . S
C413 C409 1.383 . S
C413 C412 1.367 . S
C413 H427 0.950 . S
C414 C411 1.481 . S
C414 C415 1.297 . S
C414 H428 0.950 . S
C415 C414 1.297 . S
C415 C416 1.479 . S
C415 H429 0.950 . S
C416 C415 1.479 . S
C416 C417 1.375 . S
C416 C422 1.404 . S
C417 C416 1.375 . S
C417 C418 1.369 . S
C417 H430 0.950 . S
C418 C417 1.369 . S
C418 C419 1.392 . S
C418 H431 0.951 . S
C419 C418 1.392 . S
C419 C421 1.384 . S
H420 C422 0.949 . S
C421 C419 1.384 . S
C421 C422 1.385 . S
C421 H423 0.950 . S
C422 C416 1.404 . S
C422 H420 0.949 . S
C422 C421 1.385 . S
H423 C421 0.950 . S
H424 C408 0.951 . S
H425 C410 0.951 . S
H426 C412 0.951 . S
H427 C413 0.950 . S
H428 C414 0.950 . S
H429 C415 0.950 . S
H430 C417 0.950 . S
H431 C418 0.951 . S
C432 C433 1.386 . S
C432 C434 1.383 . S
C432 H448 0.951 . S
C433 C432 1.386 . S
C433 C437 1.383 . S
C434 C432 1.383 . S
C434 C435 1.402 . S
C434 H449 0.951 . S
C435 C434 1.402 . S
C435 C436 1.375 . S
C435 C438 1.481 . S
C436 C435 1.375 . S
C436 C437 1.367 . S
C436 H450 0.951 . S
C437 C433 1.383 . S
C437 C436 1.367 . S
C437 H451 0.950 . S
C438 C435 1.481 . S
C438 C439 1.297 1_655 S
C438 H452 0.950 . S
C439 C438 1.297 1_455 S
C439 C440 1.479 . S
C439 H453 0.950 . S
C440 C439 1.479 . S
C440 C441 1.375 . S
C440 C446 1.404 . S
C441 C440 1.375 . S
C441 C442 1.369 . S
C441 H454 0.950 . S
C442 C441 1.369 . S
C442 C443 1.392 . S
C442 H455 0.951 . S
C443 C442 1.392 . S
C443 C445 1.384 . S
H444 C446 0.949 . S
C445 C443 1.384 . S
C445 C446 1.385 . S
C445 H447 0.950 . S
C446 C440 1.404 . S
C446 H444 0.949 . S
C446 C445 1.385 . S
H447 C445 0.950 . S
H448 C432 0.951 . S
H449 C434 0.951 . S
H450 C436 0.951 . S
H451 C437 0.950 . S
H452 C438 0.950 . S
H453 C439 0.950 . S
H454 C441 0.950 . S
H455 C442 0.951 . S
C456 C457 1.386 . S
C456 C458 1.383 . S
C456 H472 0.951 . S
C457 C456 1.386 . S
C457 C461 1.383 . S
C458 C456 1.383 . S
C458 C459 1.402 . S
C458 H473 0.951 . S
C459 C458 1.402 . S
C459 C460 1.375 . S
C459 C462 1.481 . S
C460 C459 1.375 . S
C460 C461 1.367 . S
C460 H474 0.951 . S
C461 C457 1.383 . S
C461 C460 1.367 . S
C461 H475 0.950 . S
C462 C459 1.481 . S
C462 C463 1.297 . S
C462 H476 0.950 . S
C463 C462 1.297 . S
C463 C464 1.479 1_565 S
C463 H477 0.950 . S
C464 C463 1.479 1_545 S
C464 C465 1.375 . S
C464 C470 1.404 . S
C465 C464 1.375 . S
C465 C466 1.369 . S
C465 H478 0.950 . S
C466 C465 1.369 . S
C466 C467 1.392 . S
C466 H479 0.951 . S
C467 C466 1.392 . S
C467 C469 1.384 . S
H468 C470 0.949 . S
C469 C467 1.384 . S
C469 C470 1.385 . S
C469 H471 0.950 . S
C470 C464 1.404 . S
C470 H468 0.949 . S
C470 C469 1.385 . S
H471 C469 0.950 . S
H472 C456 0.951 . S
H473 C458 0.951 . S
H474 C460 0.951 . S
H475 C461 0.950 . S
H476 C462 0.950 . S
H477 C463 0.950 . S
H478 C465 0.950 . S
H479 C466 0.951 . S
C480 C481 1.386 . S
C480 C482 1.383 . S
C480 H496 0.951 . S
C481 C480 1.386 . S
C481 C485 1.383 . S
C482 C480 1.383 . S
C482 C483 1.402 . S
C482 H497 0.951 . S
C483 C482 1.402 . S
C483 C484 1.375 . S
C483 C486 1.481 . S
C484 C483 1.375 . S
C484 C485 1.367 . S
C484 H498 0.951 . S
C485 C481 1.383 . S
C485 C484 1.367 . S
C485 H499 0.950 . S
C486 C483 1.481 . S
C486 C487 1.297 . S
C486 H500 0.950 . S
C487 C486 1.297 . S
C487 C488 1.479 . S
C487 H501 0.950 . S
C488 C487 1.479 . S
C488 C489 1.375 . S
C488 C494 1.404 . S
C489 C488 1.375 . S
C489 C490 1.369 . S
C489 H502 0.950 . S
C490 C489 1.369 . S
C490 C491 1.392 . S
C490 H503 0.951 . S
C491 C490 1.392 . S
C491 C493 1.384 . S
H492 C494 0.949 . S
C493 C491 1.384 . S
C493 C494 1.385 . S
C493 H495 0.950 . S
C494 C488 1.404 . S
C494 H492 0.949 . S
C494 C493 1.385 . S
H495 C493 0.950 . S
H496 C480 0.951 . S
H497 C482 0.951 . S
H498 C484 0.951 . S
H499 C485 0.950 . S
H500 C486 0.950 . S
H501 C487 0.950 . S
H502 C489 0.950 . S
H503 C490 0.951 . S
C504 C505 1.386 . S
C504 C506 1.383 . S
C504 H520 0.951 . S
C505 C504 1.386 . S
C505 C509 1.383 . S
C506 C504 1.383 . S
C506 C507 1.402 . S
C506 H521 0.951 . S
C507 C506 1.402 . S
C507 C508 1.375 . S
C507 C510 1.481 1_455 S
C508 C507 1.375 . S
C508 C509 1.367 . S
C508 H522 0.951 1_455 S
C509 C505 1.383 . S
C509 C508 1.367 . S
C509 H523 0.950 . S
C510 C507 1.481 1_655 S
C510 C511 1.298 . S
C510 H524 0.950 . S
C511 C510 1.298 . S
C511 C512 1.483 . S
C511 H525 0.946 1_655 S
C512 C511 1.483 . S
C512 C513 1.375 . S
C512 C518 1.404 . S
C513 C512 1.375 . S
C513 C514 1.369 . S
C513 H526 0.950 1_655 S
C514 C513 1.369 . S
C514 C515 1.392 . S
C514 H527 0.951 . S
C515 C514 1.392 . S
C515 C517 1.384 . S
H516 C518 0.949 . S
C517 C515 1.384 . S
C517 C518 1.385 . S
C517 H519 0.950 . S
C518 C512 1.404 . S
C518 H516 0.949 . S
C518 C517 1.385 . S
H519 C517 0.950 . S
H520 C504 0.951 . S
H521 C506 0.951 . S
H522 C508 0.951 1_655 S
H523 C509 0.950 . S
H524 C510 0.950 . S
H525 C511 0.946 1_455 S
H526 C513 0.950 1_455 S
H527 C514 0.951 . S
C528 C529 1.386 . S
C528 C530 1.383 . S
C528 H544 0.951 . S
C529 C528 1.386 . S
C529 C533 1.383 . S
C530 C528 1.383 . S
C530 C531 1.402 . S
C530 H545 0.951 . S
C531 C530 1.402 . S
C531 C532 1.375 . S
C531 C534 1.481 1_545 S
C532 C531 1.375 . S
C532 C533 1.367 . S
C532 H546 0.951 1_545 S
C533 C529 1.383 . S
C533 C532 1.367 . S
C533 H547 0.950 . S
C534 C531 1.481 1_565 S
C534 C535 1.297 1_565 S
C534 H548 0.950 . S
C535 C534 1.297 1_545 S
C535 C536 1.479 1_545 S
C535 H549 0.950 . S
C536 C535 1.479 1_565 S
C536 C537 1.375 . S
C536 C542 1.404 . S
C537 C536 1.375 . S
C537 C538 1.369 . S
C537 H550 0.950 1_565 S
C538 C537 1.369 . S
C538 C539 1.392 . S
C538 H551 0.951 . S
C539 C538 1.392 . S
C539 C541 1.384 . S
H540 C542 0.949 . S
C541 C539 1.384 . S
C541 C542 1.385 . S
C541 H543 0.950 . S
C542 C536 1.404 . S
C542 H540 0.949 . S
C542 C541 1.385 . S
H543 C541 0.950 . S
H544 C528 0.951 . S
H545 C530 0.951 . S
H546 C532 0.951 1_565 S
H547 C533 0.950 . S
H548 C534 0.950 . S
H549 C535 0.950 . S
H550 C537 0.950 1_545 S
H551 C538 0.951 . S
C121 C86 1.360 . S
C131 C8 1.272 . S
C145 C106 1.372 . S
C155 C28 1.367 . S
C169 C6 1.344 . S
C179 C48 1.306 . S
C193 C26 1.352 . S
C203 C68 1.255 . S
C217 C46 1.362 . S
C227 C88 1.352 . S
C241 C66 1.383 . S
C251 C108 1.366 . S
C265 C1 0.696 . S
C275 C61 0.662 . S
C289 C81 0.713 . S
C299 C21 0.518 . S
C313 C101 0.587 . S
C323 C41 0.774 . S
C337 C49 0.684 . S
C347 C109 0.680 . S
C361 C9 0.641 . S
C371 C69 0.736 . S
C385 C89 0.709 . S
C395 C29 0.622 . S
C409 C116 1.520 . S
C419 C19 1.513 . S
C433 C39 1.495 . S
C443 C16 1.535 . S
C457 C59 1.526 . S
C467 C36 1.496 . S
C481 C56 1.511 . S
C491 C79 1.536 . S
C505 C99 1.511 . S
C515 C76 1.518 . S
C529 C119 1.514 . S
C539 C96 1.514 . S
