# Generated by pormake.
# Topology wni, (7)-cn, num edge types: 1
# Building blocks:
#     Node 0, Type 0, BuildingBlock: NUHQUE_clean_sbu_2, # of connection points: 7
#     Node 1, Type 0, BuildingBlock: NUHQUE_clean_sbu_2, # of connection points: 7
#     Node 2, Type 0, BuildingBlock: NUHQUE_clean_sbu_2, # of connection points: 7
#     Node 3, Type 0, BuildingBlock: NUHQUE_clean_sbu_2, # of connection points: 7
#     Node 4, Type 0, BuildingBlock: NUHQUE_clean_sbu_2, # of connection points: 7
#     Node 5, Type 0, BuildingBlock: NUHQUE_clean_sbu_2, # of connection points: 7
#     Edge 6, Type (0, 0), BuildingBlock: XIVTED_clean_linker_0, # of connection points: 2
#     Edge 7, Type (0, 0), BuildingBlock: XIVTED_clean_linker_0, # of connection points: 2
#     Edge 8, Type (0, 0), BuildingBlock: XIVTED_clean_linker_0, # of connection points: 2
#     Edge 9, Type (0, 0), BuildingBlock: XIVTED_clean_linker_0, # of connection points: 2
#     Edge 10, Type (0, 0), BuildingBlock: XIVTED_clean_linker_0, # of connection points: 2
#     Edge 11, Type (0, 0), BuildingBlock: XIVTED_clean_linker_0, # of connection points: 2
#     Edge 12, Type (0, 0), BuildingBlock: XIVTED_clean_linker_0, # of connection points: 2
#     Edge 13, Type (0, 0), BuildingBlock: XIVTED_clean_linker_0, # of connection points: 2
#     Edge 14, Type (0, 0), BuildingBlock: XIVTED_clean_linker_0, # of connection points: 2
#     Edge 15, Type (0, 0), BuildingBlock: XIVTED_clean_linker_0, # of connection points: 2
#     Edge 16, Type (0, 0), BuildingBlock: XIVTED_clean_linker_0, # of connection points: 2
#     Edge 17, Type (0, 0), BuildingBlock: XIVTED_clean_linker_0, # of connection points: 2
#     Edge 18, Type (0, 0), BuildingBlock: XIVTED_clean_linker_0, # of connection points: 2
#     Edge 19, Type (0, 0), BuildingBlock: XIVTED_clean_linker_0, # of connection points: 2
#     Edge 20, Type (0, 0), BuildingBlock: XIVTED_clean_linker_0, # of connection points: 2
#     Edge 21, Type (0, 0), BuildingBlock: XIVTED_clean_linker_0, # of connection points: 2
#     Edge 22, Type (0, 0), BuildingBlock: XIVTED_clean_linker_0, # of connection points: 2
#     Edge 23, Type (0, 0), BuildingBlock: XIVTED_clean_linker_0, # of connection points: 2
#     Edge 24, Type (0, 0), BuildingBlock: XIVTED_clean_linker_0, # of connection points: 2
#     Edge 25, Type (0, 0), BuildingBlock: XIVTED_clean_linker_0, # of connection points: 2
#     Edge 26, Type (0, 0), BuildingBlock: XIVTED_clean_linker_0, # of connection points: 2
# Relax obj value: 0.270
# Max RMSD: 0.304
# Mean RMSD: 0.304
data_MOF--net-wni--node1-NUHQUE_clean_sbu_2--edge1-XIVTED_clean_linker_0
_symmetry_space_group_name_H-M    P1
_symmetry_Int_Tables_number       1
_symmetry_cell_setting            triclinic
loop_
_symmetry_equiv_pos_as_xyz
'x, y, z'
_cell_length_a     35.734216
_cell_length_b     35.999903
_cell_length_c     30.97173
_cell_angle_alpha  89.87951
_cell_angle_beta   89.464062
_cell_angle_gamma 120.7432
loop_
_atom_site_label
_atom_site_type_symbol
_atom_site_fract_x
_atom_site_fract_y
_atom_site_fract_z
_atom_type_partial_charge
O0 O 0.30567 0.51437 0.01441 0.0
Tb1 Tb 0.28065 0.48062 0.07559 0.0
Eu2 Eu 0.18282 0.40484 0.12388 0.0
C3 C 0.31705 0.55512 0.00953 0.0
O4 O 0.30749 0.57423 0.04012 0.0
C5 C 0.23992 0.38271 0.06735 0.0
O6 O 0.13235 0.36653 0.17577 0.0
C7 C 0.14399 0.41071 0.05605 0.0
C8 C 0.14194 0.37169 0.21711 0.0
O9 O 0.18244 0.39811 0.22846 0.0
C10 C 0.23225 0.50492 0.14527 0.0
C11 C 0.11312 0.42338 0.04133 0.0
C12 C 0.09915 0.41438 -0.00144 0.0
C13 C 0.06857 0.42421 0.98287 0.0
C14 C 0.05252 0.44391 0.01029 0.0
C15 C 0.06649 0.45374 0.05324 0.0
C16 C 0.09674 0.44296 0.06886 0.0
O17 O 0.24673 0.41717 0.0458 0.0
O18 O 0.22362 0.37579 0.10673 0.0
O19 O 0.35101 0.51568 0.08228 0.0
O20 O 0.3128 0.46391 0.12591 0.0
C21 C 0.35237 0.49337 0.1145 0.0
O22 O 0.21371 0.46588 0.16221 0.0
O23 O 0.25171 0.51437 0.10708 0.0
O24 O 0.12801 0.37573 0.08021 0.0
O25 O 0.18253 0.44171 0.06816 0.0
H26 H 0.11142 0.39872 0.97768 0.0
H27 H 0.02865 0.45127 -0.00184 0.0
H28 H 0.10759 0.44987 0.10199 0.0
O29 O 0.55528 0.83794 0.68214 0.0
Tb30 Tb 0.57756 0.8392 0.74752 0.0
Eu31 Eu 0.65462 0.78244 0.7838 0.0
C32 C 0.55026 0.87002 0.66937 0.0
O33 O 0.56436 0.90398 0.69427 0.0
C34 C 0.67785 0.86672 0.75005 0.0
O35 O 0.68256 0.76062 0.83632 0.0
C36 C 0.63577 0.73267 0.71729 0.0
C37 C 0.68096 0.76921 0.87732 0.0
O38 O 0.66263 0.79149 0.88848 0.0
C39 C 0.55335 0.75676 0.80559 0.0
C40 C 0.61321 0.68846 0.70065 0.0
C41 C 0.61298 0.6838 0.65583 0.0
C42 C 0.59653 0.643 0.63737 0.0
C43 C 0.57855 0.60649 0.66438 0.0
C44 C 0.5791 0.61035 0.70961 0.0
C45 C 0.59629 0.65179 0.72774 0.0
O46 O 0.63672 0.84036 0.7592 0.0
O47 O 0.70174 0.8512 0.76256 0.0
O48 O 0.59451 0.90135 0.77661 0.0
O49 O 0.53279 0.84545 0.79062 0.0
C50 C 0.55746 0.88676 0.79705 0.0
O51 O 0.59344 0.77139 0.82022 0.0
O52 O 0.54379 0.7726 0.77138 0.0
O53 O 0.66992 0.74408 0.74142 0.0
O54 O 0.61221 0.74937 0.72941 0.0
H55 H 0.627 0.71234 0.63528 0.0
H56 H 0.56566 0.57491 0.65005 0.0
H57 H 0.59814 0.65577 0.76247 0.0
O58 O 0.23824 0.73726 0.36012 0.0
Tb59 Tb 0.22412 0.75696 0.42129 0.0
Eu60 Eu 0.23827 0.84889 0.46682 0.0
C61 C 0.20568 0.71359 0.33424 0.0
O62 O 0.16662 0.70583 0.3449 0.0
C63 C 0.15979 0.78902 0.41125 0.0
O64 O 0.24607 0.89794 0.51677 0.0
C65 C 0.28221 0.88906 0.3978 0.0
C66 C 0.2421 0.88914 0.55839 0.0
O67 O 0.23055 0.84987 0.57129 0.0
C68 C 0.29769 0.81008 0.48847 0.0
C69 C 0.32585 0.91958 0.38068 0.0
C70 C 0.32967 0.92932 0.33652 0.0
C71 C 0.37019 0.95836 0.31791 0.0
C72 C 0.40707 0.97753 0.34404 0.0
C73 C 0.40396 0.96912 0.38873 0.0
C74 C 0.36294 0.93939 0.40697 0.0
O75 O 0.18959 0.7849 0.39028 0.0
O76 O 0.16779 0.80491 0.45047 0.0
O77 O 0.19345 0.68729 0.42995 0.0
O78 O 0.17528 0.72175 0.47252 0.0
C79 C 0.16835 0.6836 0.46224 0.0
O80 O 0.27386 0.82449 0.50584 0.0
O81 O 0.28829 0.79064 0.45078 0.0
O82 O 0.26427 0.90456 0.42369 0.0
O83 O 0.2744 0.85059 0.40914 0.0
H84 H 0.30091 0.91398 0.31653 0.0
H85 H 0.43842 0.99986 0.32947 0.0
H86 H 0.35961 0.93239 0.44131 0.0
O87 O 0.51444 0.2895 0.96294 0.0
Tb88 Tb 0.46599 0.26389 0.91282 0.0
Eu89 Eu 0.38997 0.16912 0.8683 0.0
C90 C 0.5055 0.297 0.00205 0.0
O91 O 0.46515 0.28495 0.01261 0.0
C92 C 0.36883 0.22577 0.92438 0.0
O93 O 0.3501 0.11776 0.81938 0.0
C94 C 0.39675 0.13215 0.93735 0.0
C95 C 0.35381 0.12641 0.77773 0.0
O96 O 0.37923 0.16649 0.76448 0.0
C97 C 0.49031 0.21604 0.84312 0.0
C98 C 0.40977 0.1015 0.95122 0.0
C99 C 0.40427 0.08927 0.99487 0.0
C100 C 0.41472 0.05885 0.00956 0.0
C101 C 0.43037 0.04052 0.97991 0.0
C102 C 0.43613 0.05253 0.9362 0.0
C103 C 0.42623 0.08349 0.92178 0.0
O104 O 0.40279 0.23018 0.94501 0.0
O105 O 0.36179 0.21069 0.88487 0.0
O106 O 0.48384 0.33146 0.91063 0.0
O107 O 0.46145 0.29428 0.85323 0.0
C108 C 0.47544 0.3323 0.87007 0.0
O109 O 0.45068 0.1968 0.82752 0.0
O110 O 0.49999 0.23559 0.88075 0.0
O111 O 0.36094 0.11617 0.91473 0.0
O112 O 0.42789 0.16996 0.92328 0.0
H113 H 0.39198 0.10366 0.01741 0.0
H114 H 0.43753 0.01614 0.99067 0.0
H115 H 0.43018 0.09263 0.88793 0.0
O116 O 0.73158 0.21753 0.63785 0.0
Tb117 Tb 0.75612 0.19845 0.58312 0.0
Eu118 Eu 0.86001 0.23059 0.53503 0.0
C119 C 0.71363 0.19089 0.67081 0.0
O120 O 0.71474 0.15499 0.67179 0.0
C121 C 0.80234 0.14757 0.58894 0.0
O122 O 0.91172 0.24815 0.48326 0.0
C123 C 0.89613 0.27716 0.60283 0.0
C124 C 0.90213 0.24197 0.44196 0.0
O125 O 0.86113 0.22314 0.43056 0.0
C126 C 0.80057 0.271 0.5122 0.0
C127 C 0.92541 0.32157 0.61758 0.0
C128 C 0.93798 0.32725 0.6609 0.0
C129 C 0.9674 0.36842 0.67664 0.0
C130 C 0.98334 0.40422 0.64889 0.0
C131 C 0.97086 0.39942 0.60545 0.0
C132 C 0.94208 0.35765 0.58959 0.0
O133 O 0.79576 0.17505 0.61051 0.0
O134 O 0.82337 0.15943 0.55176 0.0
O135 O 0.68888 0.14476 0.58313 0.0
O136 O 0.72456 0.16318 0.52397 0.0
C137 C 0.68711 0.13654 0.54222 0.0
O138 O 0.82406 0.25535 0.49639 0.0
O139 O 0.78212 0.26062 0.55083 0.0
O140 O 0.91385 0.2594 0.57984 0.0
O141 O 0.85734 0.26733 0.5896 0.0
H142 H 0.92577 0.29931 0.68213 0.0
H143 H 1.0062 0.43608 0.66113 0.0
H144 H 0.93264 0.35325 0.55599 0.0
O145 O 0.80611 0.51556 0.3105 0.0
Tb146 Tb 0.81665 0.54976 0.24989 0.0
Eu147 Eu 0.79945 0.62149 0.19861 0.0
C148 C 0.77324 0.47609 0.3168 0.0
O149 O 0.74224 0.45846 0.28807 0.0
C150 C 0.87651 0.64755 0.25958 0.0
O151 O 0.79117 0.65989 0.14576 0.0
C152 C 0.74932 0.61476 0.26312 0.0
C153 C 0.79388 0.65265 0.10456 0.0
O154 O 0.8051 0.62445 0.09342 0.0
C155 C 0.7474 0.52192 0.17867 0.0
C156 C 0.70371 0.59757 0.27606 0.0
C157 C 0.69519 0.60253 0.31921 0.0
C158 C 0.65259 0.58814 0.33357 0.0
C159 C 0.61835 0.56777 0.30434 0.0
C160 C 0.62612 0.56225 0.26099 0.0
C161 C 0.66919 0.57766 0.24667 0.0
O162 O 0.84723 0.61277 0.28047 0.0
O163 O 0.86934 0.65398 0.21946 0.0
O164 O 0.85292 0.51664 0.24245 0.0
O165 O 0.86444 0.56597 0.19719 0.0
C166 C 0.87539 0.53789 0.20858 0.0
O167 O 0.77121 0.56014 0.16045 0.0
O168 O 0.75329 0.51521 0.21914 0.0
O169 O 0.76663 0.64769 0.23614 0.0
O170 O 0.76152 0.58664 0.25575 0.0
H171 H 0.72197 0.61793 0.34162 0.0
H172 H 0.58553 0.55795 0.31488 0.0
H173 H 0.67579 0.57426 0.21313 0.0
H174 H 0.54786 0.48774 0.27186 0.0
H175 H 0.43472 0.55265 0.08931 0.0
H176 H 0.61856 0.59498 0.1838 0.0
H177 H 0.36306 0.44818 0.1802 0.0
H178 H 0.50278 0.56351 0.11841 0.0
H179 H 0.48098 0.4665 0.23243 0.0
C180 C 0.54938 0.50627 0.24359 0.0
C181 C 0.58866 0.5434 0.23124 0.0
C182 C 0.47226 0.5381 0.13197 0.0
C183 C 0.51214 0.51977 0.18642 0.0
C184 C 0.43335 0.53198 0.1155 0.0
C185 C 0.39324 0.49971 0.1327 0.0
C186 C 0.4712 0.51181 0.16605 0.0
C187 C 0.39335 0.47365 0.16631 0.0
C188 C 0.51117 0.49429 0.22126 0.0
C189 C 0.58898 0.56611 0.1943 0.0
N190 N 0.43179 0.4804 0.18206 0.0
N191 N 0.55114 0.55429 0.17354 0.0
H192 H 0.59891 0.9753 0.80143 0.0
H193 H 0.39366 0.96755 0.91752 0.0
H194 H 0.48001 0.8586 0.83766 0.0
H195 H 0.5127 0.08717 0.88996 0.0
H196 H 0.4235 0.92808 0.88139 0.0
H197 H 0.56806 0.01797 0.82957 0.0
C198 C 0.56656 0.95875 0.81574 0.0
C199 C 0.54199 0.91345 0.81753 0.0
C200 C 0.44312 0.96299 0.88267 0.0
C201 C 0.50636 0.96167 0.84883 0.0
C202 C 0.42588 0.98547 0.90295 0.0
C203 C 0.45083 0.03047 0.90649 0.0
C204 C 0.48594 0.98563 0.86622 0.0
C205 C 0.49248 0.05239 0.88748 0.0
C206 C 0.54886 0.98303 0.83144 0.0
C207 C 0.50011 0.89348 0.83583 0.0
N208 N 0.50904 0.02966 0.86847 0.0
N209 N 0.48364 0.91769 0.85067 0.0
H210 H 0.11132 0.66853 0.52936 0.0
H211 H 1.0103 0.41149 0.52598 0.0
H212 H 0.14985 0.60346 0.43825 0.0
H213 H 0.97712 0.47688 0.6219 0.0
H214 H 0.05464 0.48058 0.48779 0.0
H215 H 0.05659 0.59797 0.55961 0.0
C216 C 0.10826 0.6394 0.51581 0.0
C217 C 0.13533 0.64177 0.48158 0.0
C218 C 0.03726 0.47974 0.51694 0.0
C219 C 0.07272 0.56105 0.51555 0.0
C220 C 1.01159 0.44021 0.53845 0.0
C221 C 0.9904 0.43857 0.57735 0.0
C222 C 0.04168 0.51782 0.53448 0.0
C223 C 0.99348 0.47687 0.5923 0.0
C224 C 0.07695 0.59913 0.53291 0.0
C225 C 0.12983 0.60307 0.46491 0.0
N226 N 0.01897 0.51493 0.57112 0.0
N227 N 0.09928 0.56437 0.4821 0.0
H228 H 0.53282 0.58808 0.78689 0.0
H229 H 0.48407 0.34619 0.783 0.0
H230 H 0.59177 0.54262 0.69489 0.0
H231 H 0.48946 0.40821 0.90368 0.0
H232 H 0.50826 0.4149 0.74522 0.0
H233 H 0.50414 0.51956 0.82713 0.0
C234 C 0.53988 0.56395 0.7752 0.0
C235 C 0.56398 0.5709 0.73684 0.0
C236 C 0.50381 0.4133 0.77996 0.0
C237 C 0.53042 0.4925 0.78189 0.0
C238 C 0.48977 0.37414 0.8014 0.0
C239 C 0.48509 0.3718 0.8464 0.0
C240 C 0.51248 0.45007 0.80367 0.0
C241 C 0.49301 0.40894 0.86888 0.0
C242 C 0.52329 0.52486 0.798 0.0
C243 C 0.57206 0.53832 0.72331 0.0
N244 N 0.50632 0.44669 0.84727 0.0
N245 N 0.55493 0.5005 0.74546 0.0
H246 H 0.46858 0.05373 0.38095 0.0
H247 H 0.61345 0.06845 0.57698 0.0
H248 H 0.43062 0.93916 0.45757 0.0
H249 H 0.6686 0.13669 0.45705 0.0
H250 H 0.54303 0.02449 0.54118 0.0
H251 H 0.53826 0.09017 0.41726 0.0
C252 C 0.4749 0.03603 0.40528 0.0
C253 C 0.44396 0.99274 0.41525 0.0
C254 C 0.57074 0.04873 0.52271 0.0
C255 C 0.5237 0.03518 0.45796 0.0
C256 C 0.6108 0.07376 0.54298 0.0
C257 C 0.6467 0.10619 0.5198 0.0
C258 C 0.56649 0.0572 0.47939 0.0
C259 C 0.64173 0.11192 0.47595 0.0
C260 C 0.51475 0.05701 0.42602 0.0
C261 C 0.45351 0.9724 0.44861 0.0
N262 N 0.60213 0.08813 0.45732 0.0
N263 N 0.49268 0.99385 0.46887 0.0
H264 H 0.03522 0.43127 0.13634 0.0
H265 H 0.92452 0.57708 0.13563 0.0
H266 H 0.05356 0.52054 0.03379 0.0
H267 H 0.90158 0.4827 0.23419 0.0
H268 H 0.97785 0.56242 0.10125 0.0
H269 H 0.99349 0.45648 0.17713 0.0
C270 C 0.03114 0.45671 0.12275 0.0
C271 C 0.04739 0.47339 0.08137 0.0
C272 C 0.96128 0.54508 0.13052 0.0
C273 C 0.99903 0.50192 0.12744 0.0
C274 C 0.93084 0.55341 0.15003 0.0
C275 C 0.90845 0.53082 0.18752 0.0
C276 C 0.96933 0.51399 0.14876 0.0
C277 C 0.91794 0.50063 0.2051 0.0
C278 C 1.00697 0.47085 0.14585 0.0
C279 C 0.04085 0.50616 0.06524 0.0
N280 N 0.94749 0.49299 0.18551 0.0
N281 N 0.01687 0.51904 0.08808 0.0
H282 H 0.31471 0.24865 0.88558 0.0
H283 H 0.25372 0.32232 0.10634 0.0
H284 H 0.36141 0.23766 0.01017 0.0
H285 H 0.25169 0.37462 0.98146 0.0
H286 H 0.27856 0.27743 0.07144 0.0
H287 H 0.2765 0.28124 0.92057 0.0
C288 C 0.31637 0.25249 0.92032 0.0
C289 C 0.34148 0.24076 0.94499 0.0
C290 C 0.27228 0.2985 0.05173 0.0
C291 C 0.2979 0.27771 0.98508 0.0
C292 C 0.25796 0.32395 0.07157 0.0
C293 C 0.25098 0.35245 0.04679 0.0
C294 C 0.27903 0.30118 0.00677 0.0
C295 C 0.2571 0.35338 0.00185 0.0
C296 C 0.29479 0.27126 0.9402 0.0
C297 C 0.34271 0.24662 0.98989 0.0
N298 N 0.27082 0.32818 0.98328 0.0
N299 N 0.32133 0.26475 0.00848 0.0
H300 H 0.8407 0.09804 0.59459 0.0
H301 H 0.63338 0.89902 0.7086 0.0
H302 H 0.72221 0.09731 0.62378 0.0
H303 H 0.7633 0.92562 0.73121 0.0
H304 H 0.66306 0.96545 0.66588 0.0
H305 H 0.81043 0.02776 0.6323 0.0
C306 C 0.80818 0.08279 0.60843 0.0
C307 C 0.78396 0.10346 0.60658 0.0
C308 C 0.68515 0.95692 0.68041 0.0
C309 C 0.74929 0.02373 0.64912 0.0
C310 C 0.66809 0.91922 0.70523 0.0
C311 C 0.69566 0.90736 0.72465 0.0
C312 C 0.73037 0.9827 0.67409 0.0
C313 C 0.74075 0.93386 0.71736 0.0
C314 C 0.79111 0.04304 0.63016 0.0
C315 C 0.74211 0.08266 0.62515 0.0
N316 N 0.75676 0.97031 0.69261 0.0
N317 N 0.72607 0.04397 0.64553 0.0
H318 H 0.95534 0.70602 0.22268 0.0
H319 H 0.08162 0.77019 0.44793 0.0
H320 H 0.89173 0.65648 0.34608 0.0
H321 H 0.14367 0.77928 0.32497 0.0
H322 H 1.012 0.74287 0.41078 0.0
H323 H 0.02509 0.74791 0.25985 0.0
C324 C 0.95594 0.70452 0.25758 0.0
C325 C 0.91781 0.67746 0.2813 0.0
C326 C 0.04102 0.75128 0.39199 0.0
C327 C 0.99717 0.72516 0.3239 0.0
C328 C 0.08071 0.767 0.41313 0.0
C329 C 0.11836 0.77665 0.38955 0.0
C330 C 0.03921 0.74578 0.34696 0.0
C331 C 0.11534 0.77181 0.34449 0.0
C332 C 0.99571 0.7282 0.27874 0.0
C333 C 0.92045 0.67659 0.32649 0.0
N334 N 0.07649 0.75664 0.32469 0.0
N335 N 0.95944 0.69993 0.34631 0.0
H336 H 0.89373 0.234 0.35394 0.0
H337 H 0.15054 0.37532 0.30519 0.0
H338 H 0.99073 0.28705 0.45349 0.0
H339 H 0.05384 0.3187 0.20564 0.0
H340 H 0.09265 0.34192 0.35984 0.0
H341 H 0.95186 0.26332 0.29932 0.0
C342 C 0.92724 0.25165 0.36439 0.0
C343 C 0.93724 0.25805 0.40851 0.0
C344 C 0.08406 0.33664 0.32606 0.0
C345 C 1.00421 0.29198 0.34585 0.0
C346 C 0.11716 0.3557 0.29475 0.0
C347 C 0.10716 0.3499 0.25061 0.0
C348 C 0.04043 0.31157 0.31332 0.0
C349 C 0.0632 0.32411 0.23921 0.0
C350 C 0.96048 0.26843 0.3331 0.0
C351 C 0.98138 0.28125 0.41993 0.0
N352 N 0.03153 0.30605 0.2703 0.0
N353 N 1.01314 0.29745 0.38886 0.0
H354 H 0.72146 0.72276 0.86497 0.0
H355 H 0.76193 0.70685 0.11674 0.0
H356 H 0.68287 0.77995 0.96526 0.0
H357 H 0.79521 0.64522 0.01649 0.0
H358 H 0.736 0.73678 0.06165 0.0
H359 H 0.7513 0.69669 0.91986 0.0
C360 C 0.71927 0.72991 0.89854 0.0
C361 C 0.69953 0.75359 0.91046 0.0
C362 C 0.74915 0.71687 0.05167 0.0
C363 C 0.73378 0.72372 0.97366 0.0
C364 C 0.76411 0.69983 0.08313 0.0
C365 C 0.78077 0.67338 0.07129 0.0
C366 C 0.75085 0.70747 0.00794 0.0
C367 C 0.7826 0.66537 0.02719 0.0
C368 C 0.73637 0.71498 0.92991 0.0
C369 C 0.69775 0.76182 0.95452 0.0
N370 N 0.76774 0.68224 -0.00281 0.0
N371 N 0.7146 0.74688 0.98449 0.0
H372 H 0.30536 0.03909 0.79355 0.0
H373 H 0.27433 0.97542 0.543 0.0
H374 H 0.35378 0.13263 0.68941 0.0
H375 H 0.2371 0.88248 0.64684 0.0
H376 H 0.29787 0.03294 0.59625 0.0
H377 H 0.27451 0.98103 0.74047 0.0
C378 C 0.30926 0.04748 0.75954 0.0
C379 C 0.33237 0.0909 0.74599 0.0
C380 C 0.28437 0.99994 0.60742 0.0
C381 C 0.29715 0.0244 0.6849 0.0
C382 C 0.27079 0.967 0.57699 0.0
C383 C 0.2538 0.92396 0.59039 0.0
C384 C 0.2809 0.98989 0.65168 0.0
C385 C 0.25009 0.91515 0.63494 0.0
C386 C 0.2917 0.01426 0.72921 0.0
C387 C 0.33635 0.09969 0.70142 0.0
N388 N 0.26364 0.94779 0.66393 0.0
N389 N 0.31907 0.06678 0.67254 0.0
H390 H 0.37171 0.53769 0.96336 0.0
H391 H 0.47328 0.74854 0.81509 0.0
H392 H 0.33238 0.63231 0.97619 0.0
H393 H 0.54905 0.69316 0.85776 0.0
H394 H 0.41289 0.69718 0.86158 0.0
H395 H 0.42815 0.58535 0.91129 0.0
C396 C 0.37442 0.56814 0.95466 0.0
C397 C 0.34731 0.58112 0.97412 0.0
C398 C 0.44271 0.69626 0.86058 0.0
C399 C 0.41166 0.63551 0.91461 0.0
C400 C 0.4771 0.72535 0.83397 0.0
C401 C 0.51629 0.72513 0.83267 0.0
C402 C 0.44715 0.6661 0.88532 0.0
C403 C 0.5195 0.69457 0.85807 0.0
C404 C 0.40687 0.59541 0.92528 0.0
C405 C 0.35266 0.62115 0.962 0.0
N406 N 0.48524 0.66604 0.88318 0.0
N407 N 0.38417 0.64693 0.93288 0.0
H408 H 0.34281 0.76745 0.48044 0.0
H409 H 0.53176 0.92944 0.63768 0.0
H410 H 0.34493 0.87438 0.54555 0.0
H411 H 0.50212 0.79833 0.6189 0.0
H412 H 0.4737 0.91634 0.58822 0.0
H413 H 0.41019 0.78429 0.51761 0.0
C414 C 0.3575 0.79448 0.50242 0.0
C415 C 0.33806 0.81927 0.51035 0.0
C416 C 0.48019 0.89056 0.5946 0.0
C417 C 0.41516 0.83914 0.5519 0.0
C418 C 0.5135 0.89804 0.62266 0.0
C419 C 0.52135 0.86467 0.63305 0.0
C420 C 0.45457 0.84949 0.57654 0.0
C421 C 0.49691 0.82484 0.6121 0.0
C422 C 0.39582 0.80402 0.52353 0.0
C423 C 0.35845 0.85403 0.53896 0.0
N424 N 0.46421 0.81817 0.58509 0.0
N425 N 0.39593 0.86299 0.55857 0.0
H426 H 0.16629 0.49256 0.19887 0.0
H427 H 0.28152 0.72516 0.29814 0.0
H428 H 0.28874 0.59269 0.14514 0.0
H429 H 0.14161 0.64552 0.29044 0.0
H430 H 0.28833 0.67695 0.24676 0.0
H431 H 0.15977 0.54728 0.23905 0.0
C432 C 0.19188 0.52613 0.19565 0.0
C433 C 0.22824 0.53821 0.1689 0.0
C434 C 0.25624 0.67058 0.25595 0.0
C435 C 0.2211 0.60085 0.21499 0.0
C436 C 0.25231 0.69794 0.28524 0.0
C437 C 0.21094 0.68912 0.29884 0.0
C438 C 0.21856 0.63381 0.24108 0.0
C439 C 0.17415 0.65351 0.28103 0.0
C440 C 0.18796 0.55733 0.21829 0.0
C441 C 0.26021 0.58218 0.16548 0.0
N442 N 0.17883 0.62676 0.25363 0.0
N443 N 0.25622 0.61203 0.1888 0.0
H444 H 0.50126 0.31277 0.08821 0.0
H445 H 0.74066 0.51512 0.09109 0.0
H446 H 0.592 0.34508 0.98185 0.0
H447 H 0.67543 0.44815 0.20898 0.0
H448 H 0.68259 0.45675 0.0497 0.0
H449 H 0.56137 0.3653 0.13303 0.0
C450 C 0.53381 0.33055 0.07443 0.0
C451 C 0.54161 0.32466 0.0312 0.0
C452 C 0.68113 0.45473 0.08463 0.0
C453 C 0.60995 0.38502 0.08184 0.0
C454 C 0.71411 0.48811 0.10826 0.0
C455 C 0.71282 0.48641 0.1535 0.0
C456 C 0.64617 0.41979 0.10637 0.0
C457 C 0.67771 0.45057 0.1741 0.0
C458 C 0.56801 0.36041 0.1 0.0
C459 C 0.58443 0.34851 0.01499 0.0
N460 N 0.64545 0.41877 0.15035 0.0
N461 N 0.61686 0.37802 0.04015 0.0
H462 H 0.71644 0.26618 0.69197 0.0
H463 H 0.4803 0.14971 0.79283 0.0
H464 H 0.64552 0.12894 0.71812 0.0
H465 H 0.57754 0.27522 0.83914 0.0
H466 H 0.53754 0.14422 0.75442 0.0
H467 H 0.6633 0.27333 0.73679 0.0
C468 C 0.69 0.2377 0.70749 0.0
C469 C 0.68535 0.19694 0.70144 0.0
C470 C 0.54625 0.17292 0.77304 0.0
C471 C 0.6243 0.20474 0.75135 0.0
C472 C 0.51368 0.17622 0.79462 0.0
C473 C 0.52437 0.21301 0.81902 0.0
C474 C 0.58956 0.20712 0.77501 0.0
C475 C 0.56813 0.24628 0.82071 0.0
C476 C 0.65985 0.24182 0.73297 0.0
C477 C 0.65048 0.16102 0.72214 0.0
N478 N 0.59922 0.2428 0.79853 0.0
N479 N 0.62087 0.16565 0.74564 0.0
H480 H 0.73133 0.28335 0.51133 0.0
H481 H 0.84575 0.49043 0.3593 0.0
H482 H 0.85821 0.32966 0.45378 0.0
H483 H 0.70742 0.40028 0.35189 0.0
H484 H 0.85198 0.44137 0.40933 0.0
H485 H 0.72328 0.33535 0.46676 0.0
C486 C 0.75755 0.30465 0.48951 0.0
C487 C 0.79547 0.30229 0.48603 0.0
C488 C 0.82025 0.43262 0.39701 0.0
C489 C 0.78675 0.3619 0.43604 0.0
C490 C 0.81653 0.46067 0.36877 0.0
C491 C 0.77595 0.44929 0.35133 0.0
C492 C 0.78305 0.39334 0.40857 0.0
C493 C 0.73929 0.41013 0.3645 0.0
C494 C 0.75283 0.33404 0.4641 0.0
C495 C 0.82837 0.33032 0.45715 0.0
N496 N 0.74367 0.38346 0.39251 0.0
N497 N 0.82342 0.35929 0.43347 0.0
H498 H 0.05099 0.4149 0.70498 0.0
H499 H 0.98456 0.38452 0.95485 0.0
H500 H 0.91853 0.33508 0.75057 0.0
H501 H 0.11696 0.43928 0.90902 0.0
H502 H 0.95947 0.36856 0.88026 0.0
H503 H 0.07571 0.42661 0.77966 0.0
C504 C 0.02712 0.39991 0.73081 0.0
C505 C 0.98265 0.37423 0.72173 0.0
C506 C 0.99398 0.3839 0.88653 0.0
C507 C 1.01063 0.38736 0.80717 0.0
C508 C 1.00832 0.39326 0.92901 0.0
C509 C 0.05289 0.41342 0.93799 0.0
C510 C 0.0245 0.39518 0.85277 0.0
C511 C 0.08229 0.42349 0.90345 0.0
C512 C 0.04125 0.40638 0.77338 0.0
C513 C 0.95312 0.35498 0.75628 0.0
N514 N 0.06758 0.41451 0.86231 0.0
N515 N 0.96762 0.3622 0.79757 0.0
H516 H 0.66797 0.69451 0.58682 0.0
H517 H 0.58484 0.53375 0.38722 0.0
H518 H 0.53943 0.58097 0.58156 0.0
H519 H 0.6999 0.66103 0.38188 0.0
H520 H 0.5689 0.54922 0.45955 0.0
H521 H 0.68084 0.68246 0.51219 0.0
C522 C 0.6421 0.66747 0.56976 0.0
C523 C 0.60252 0.63866 0.59058 0.0
C524 C 0.59759 0.57378 0.44251 0.0
C525 C 0.61764 0.62401 0.50539 0.0
C526 C 0.60671 0.56499 0.40121 0.0
C527 C 0.64378 0.59615 0.37842 0.0
C528 C 0.62587 0.6139 0.46132 0.0
C529 C 0.67133 0.6358 0.39847 0.0
C530 C 0.64967 0.66039 0.52722 0.0
C531 C 0.57065 0.60364 0.56701 0.0
N532 N 0.66183 0.64352 0.43879 0.0
N533 N 0.57903 0.5971 0.52576 0.0
H534 H 0.46952 0.04594 0.05988 0.0
H535 H 0.31678 0.97624 0.27057 0.0
H536 H 0.3461 0.04066 0.06378 0.0
H537 H 0.43283 0.96797 0.25985 0.0
H538 H 0.32687 1.00062 0.19534 0.0
H539 H 0.45735 0.01949 0.13416 0.0
C540 C 0.43978 0.03911 0.07638 0.0
C541 C 0.40865 0.04527 0.05552 0.0
C542 C 0.35002 0.99332 0.20943 0.0
C543 C 0.39461 0.01524 0.1408 0.0
C544 C 0.34411 0.97909 0.25224 0.0
C545 C 0.37412 0.97023 0.27154 0.0
C546 C 0.38627 0.9988 0.18581 0.0
C547 C 0.40928 0.97509 0.24647 0.0
C548 C 0.43288 0.02409 0.11884 0.0
C549 C 0.37111 0.03671 0.07876 0.0
N550 N 0.41446 0.98919 0.20498 0.0
N551 N 0.36508 0.02201 0.12017 0.0
loop_
_geom_bond_atom_site_label_1
_geom_bond_atom_site_label_2
_geom_bond_distance
_geom_bond_site_symmetry_2
_ccdc_geom_bond_type
O0 Tb1 2.292 1_556 S
O0 C3 1.255 . S
Tb1 O0 2.292 1_554 S
Tb1 O17 2.326 . S
Tb1 O19 2.500 . S
Tb1 O20 2.473 . S
Tb1 O23 2.324 . S
Eu2 O6 2.292 . S
Eu2 C7 2.852 . S
Eu2 O18 2.324 . S
Eu2 O22 2.326 . S
Eu2 O24 2.500 . S
Eu2 O25 2.473 . S
C3 O0 1.255 . S
C3 O4 1.247 . S
O4 C3 1.247 . S
C5 O17 1.242 . S
C5 O18 1.258 . S
O6 Eu2 2.292 . S
O6 C8 1.255 . S
C7 Eu2 2.852 . S
C7 C11 1.503 . S
C7 O24 1.273 . S
C7 O25 1.257 . S
C8 O6 1.255 . S
C8 O9 1.247 . S
O9 C8 1.247 . S
C10 O22 1.242 . S
C10 O23 1.258 . S
C11 C7 1.503 . S
C11 C12 1.379 . S
C11 C16 1.392 . S
C12 C11 1.379 . S
C12 C13 1.404 1_554 S
C12 H26 0.929 1_554 S
C13 C12 1.404 1_556 S
C13 C14 1.389 . S
C14 C13 1.389 . S
C14 C15 1.399 1_556 S
C14 H27 0.931 . S
C15 C14 1.399 1_554 S
C15 C16 1.390 . S
C16 C11 1.392 . S
C16 C15 1.390 . S
C16 H28 0.929 . S
O17 Tb1 2.326 . S
O17 C5 1.242 . S
O18 Eu2 2.324 . S
O18 C5 1.258 . S
O19 Tb1 2.500 . S
O19 C21 1.273 . S
O20 Tb1 2.473 . S
O20 C21 1.257 . S
C21 O19 1.273 . S
C21 O20 1.257 . S
O22 Eu2 2.326 . S
O22 C10 1.242 . S
O23 Tb1 2.324 . S
O23 C10 1.258 . S
O24 Eu2 2.500 . S
O24 C7 1.273 . S
O25 Eu2 2.473 . S
O25 C7 1.257 . S
H26 C12 0.929 1_556 S
H27 C14 0.931 . S
H28 C16 0.929 . S
O29 Tb30 2.292 . S
O29 C32 1.255 . S
Tb30 O29 2.292 . S
Tb30 O46 2.326 . S
Tb30 O48 2.500 . S
Tb30 O49 2.473 . S
Tb30 O52 2.324 . S
Eu31 O35 2.292 . S
Eu31 C36 2.852 . S
Eu31 O47 2.324 . S
Eu31 O51 2.326 . S
Eu31 O53 2.500 . S
Eu31 O54 2.473 . S
C32 O29 1.255 . S
C32 O33 1.247 . S
O33 C32 1.247 . S
C34 O46 1.242 . S
C34 O47 1.258 . S
O35 Eu31 2.292 . S
O35 C37 1.255 . S
C36 Eu31 2.852 . S
C36 C40 1.503 . S
C36 O53 1.273 . S
C36 O54 1.257 . S
C37 O35 1.255 . S
C37 O38 1.247 . S
O38 C37 1.247 . S
C39 O51 1.242 . S
C39 O52 1.258 . S
C40 C36 1.503 . S
C40 C41 1.379 . S
C40 C45 1.392 . S
C41 C40 1.379 . S
C41 C42 1.404 . S
C41 H55 0.929 . S
C42 C41 1.404 . S
C42 C43 1.389 . S
C43 C42 1.389 . S
C43 C44 1.399 . S
C43 H56 0.931 . S
C44 C43 1.399 . S
C44 C45 1.390 . S
C45 C40 1.392 . S
C45 C44 1.390 . S
C45 H57 0.929 . S
O46 Tb30 2.326 . S
O46 C34 1.242 . S
O47 Eu31 2.324 . S
O47 C34 1.258 . S
O48 Tb30 2.500 . S
O48 C50 1.273 . S
O49 Tb30 2.473 . S
O49 C50 1.257 . S
C50 O48 1.273 . S
C50 O49 1.257 . S
O51 Eu31 2.326 . S
O51 C39 1.242 . S
O52 Tb30 2.324 . S
O52 C39 1.258 . S
O53 Eu31 2.500 . S
O53 C36 1.273 . S
O54 Eu31 2.473 . S
O54 C36 1.257 . S
H55 C41 0.929 . S
H56 C43 0.931 . S
H57 C45 0.929 . S
O58 Tb59 2.292 . S
O58 C61 1.255 . S
Tb59 O58 2.292 . S
Tb59 O75 2.326 . S
Tb59 O77 2.500 . S
Tb59 O78 2.473 . S
Tb59 O81 2.324 . S
Eu60 O64 2.292 . S
Eu60 C65 2.852 . S
Eu60 O76 2.324 . S
Eu60 O80 2.326 . S
Eu60 O82 2.500 . S
Eu60 O83 2.473 . S
C61 O58 1.255 . S
C61 O62 1.247 . S
O62 C61 1.247 . S
C63 O75 1.242 . S
C63 O76 1.258 . S
O64 Eu60 2.292 . S
O64 C66 1.255 . S
C65 Eu60 2.852 . S
C65 C69 1.503 . S
C65 O82 1.273 . S
C65 O83 1.257 . S
C66 O64 1.255 . S
C66 O67 1.247 . S
O67 C66 1.247 . S
C68 O80 1.242 . S
C68 O81 1.258 . S
C69 C65 1.503 . S
C69 C70 1.379 . S
C69 C74 1.392 . S
C70 C69 1.379 . S
C70 C71 1.404 . S
C70 H84 0.929 . S
C71 C70 1.404 . S
C71 C72 1.389 . S
C72 C71 1.389 . S
C72 C73 1.399 . S
C72 H85 0.931 . S
C73 C72 1.399 . S
C73 C74 1.390 . S
C74 C69 1.392 . S
C74 C73 1.390 . S
C74 H86 0.929 . S
O75 Tb59 2.326 . S
O75 C63 1.242 . S
O76 Eu60 2.324 . S
O76 C63 1.258 . S
O77 Tb59 2.500 . S
O77 C79 1.273 . S
O78 Tb59 2.473 . S
O78 C79 1.257 . S
C79 O77 1.273 . S
C79 O78 1.257 . S
O80 Eu60 2.326 . S
O80 C68 1.242 . S
O81 Tb59 2.324 . S
O81 C68 1.258 . S
O82 Eu60 2.500 . S
O82 C65 1.273 . S
O83 Eu60 2.473 . S
O83 C65 1.257 . S
H84 C70 0.929 . S
H85 C72 0.931 . S
H86 C74 0.929 . S
O87 Tb88 2.292 1_554 S
O87 C90 1.255 . S
Tb88 O87 2.292 1_556 S
Tb88 O104 2.326 . S
Tb88 O106 2.500 . S
Tb88 O107 2.473 . S
Tb88 O110 2.324 . S
Eu89 O93 2.292 . S
Eu89 C94 2.852 . S
Eu89 O105 2.324 . S
Eu89 O109 2.326 . S
Eu89 O111 2.500 . S
Eu89 O112 2.473 . S
C90 O87 1.255 . S
C90 O91 1.247 . S
O91 C90 1.247 . S
C92 O104 1.242 . S
C92 O105 1.258 . S
O93 Eu89 2.292 . S
O93 C95 1.255 . S
C94 Eu89 2.852 . S
C94 C98 1.503 . S
C94 O111 1.273 . S
C94 O112 1.257 . S
C95 O93 1.255 . S
C95 O96 1.247 . S
O96 C95 1.247 . S
C97 O109 1.242 . S
C97 O110 1.258 . S
C98 C94 1.503 . S
C98 C99 1.379 . S
C98 C103 1.392 . S
C99 C98 1.379 . S
C99 C100 1.404 1_556 S
C99 H113 0.929 1_556 S
C100 C99 1.404 1_554 S
C100 C101 1.389 . S
C101 C100 1.389 . S
C101 C102 1.399 1_554 S
C101 H114 0.931 . S
C102 C101 1.399 1_556 S
C102 C103 1.390 . S
C103 C98 1.392 . S
C103 C102 1.390 . S
C103 H115 0.929 . S
O104 Tb88 2.326 . S
O104 C92 1.242 . S
O105 Eu89 2.324 . S
O105 C92 1.258 . S
O106 Tb88 2.500 . S
O106 C108 1.273 . S
O107 Tb88 2.473 . S
O107 C108 1.257 . S
C108 O106 1.273 . S
C108 O107 1.257 . S
O109 Eu89 2.326 . S
O109 C97 1.242 . S
O110 Tb88 2.324 . S
O110 C97 1.258 . S
O111 Eu89 2.500 . S
O111 C94 1.273 . S
O112 Eu89 2.473 . S
O112 C94 1.257 . S
H113 C99 0.929 1_554 S
H114 C101 0.931 . S
H115 C103 0.929 . S
O116 Tb117 2.292 . S
O116 C119 1.255 . S
Tb117 O116 2.292 . S
Tb117 O133 2.326 . S
Tb117 O135 2.500 . S
Tb117 O136 2.473 . S
Tb117 O139 2.324 . S
Eu118 O122 2.292 . S
Eu118 C123 2.852 . S
Eu118 O134 2.324 . S
Eu118 O138 2.326 . S
Eu118 O140 2.500 . S
Eu118 O141 2.473 . S
C119 O116 1.255 . S
C119 O120 1.247 . S
O120 C119 1.247 . S
C121 O133 1.242 . S
C121 O134 1.258 . S
O122 Eu118 2.292 . S
O122 C124 1.255 . S
C123 Eu118 2.852 . S
C123 C127 1.503 . S
C123 O140 1.273 . S
C123 O141 1.257 . S
C124 O122 1.255 . S
C124 O125 1.247 . S
O125 C124 1.247 . S
C126 O138 1.242 . S
C126 O139 1.258 . S
C127 C123 1.503 . S
C127 C128 1.379 . S
C127 C132 1.392 . S
C128 C127 1.379 . S
C128 C129 1.404 . S
C128 H142 0.929 . S
C129 C128 1.404 . S
C129 C130 1.389 . S
C130 C129 1.389 . S
C130 C131 1.399 . S
C130 H143 0.931 . S
C131 C130 1.399 . S
C131 C132 1.390 . S
C132 C127 1.392 . S
C132 C131 1.390 . S
C132 H144 0.929 . S
O133 Tb117 2.326 . S
O133 C121 1.242 . S
O134 Eu118 2.324 . S
O134 C121 1.258 . S
O135 Tb117 2.500 . S
O135 C137 1.273 . S
O136 Tb117 2.473 . S
O136 C137 1.257 . S
C137 O135 1.273 . S
C137 O136 1.257 . S
O138 Eu118 2.326 . S
O138 C126 1.242 . S
O139 Tb117 2.324 . S
O139 C126 1.258 . S
O140 Eu118 2.500 . S
O140 C123 1.273 . S
O141 Eu118 2.473 . S
O141 C123 1.257 . S
H142 C128 0.929 . S
H143 C130 0.931 . S
H144 C132 0.929 . S
O145 Tb146 2.292 . S
O145 C148 1.255 . S
Tb146 O145 2.292 . S
Tb146 O162 2.326 . S
Tb146 O164 2.500 . S
Tb146 O165 2.473 . S
Tb146 O168 2.324 . S
Eu147 O151 2.292 . S
Eu147 C152 2.852 . S
Eu147 O163 2.324 . S
Eu147 O167 2.326 . S
Eu147 O169 2.500 . S
Eu147 O170 2.473 . S
C148 O145 1.255 . S
C148 O149 1.247 . S
O149 C148 1.247 . S
C150 O162 1.242 . S
C150 O163 1.258 . S
O151 Eu147 2.292 . S
O151 C153 1.255 . S
C152 Eu147 2.852 . S
C152 C156 1.503 . S
C152 O169 1.273 . S
C152 O170 1.257 . S
C153 O151 1.255 . S
C153 O154 1.247 . S
O154 C153 1.247 . S
C155 O167 1.242 . S
C155 O168 1.258 . S
C156 C152 1.503 . S
C156 C157 1.379 . S
C156 C161 1.392 . S
C157 C156 1.379 . S
C157 C158 1.404 . S
C157 H171 0.929 . S
C158 C157 1.404 . S
C158 C159 1.389 . S
C159 C158 1.389 . S
C159 C160 1.399 . S
C159 H172 0.931 . S
C160 C159 1.399 . S
C160 C161 1.390 . S
C161 C156 1.392 . S
C161 C160 1.390 . S
C161 H173 0.929 . S
O162 Tb146 2.326 . S
O162 C150 1.242 . S
O163 Eu147 2.324 . S
O163 C150 1.258 . S
O164 Tb146 2.500 . S
O164 C166 1.273 . S
O165 Tb146 2.473 . S
O165 C166 1.257 . S
C166 O164 1.273 . S
C166 O165 1.257 . S
O167 Eu147 2.326 . S
O167 C155 1.242 . S
O168 Tb146 2.324 . S
O168 C155 1.258 . S
O169 Eu147 2.500 . S
O169 C152 1.273 . S
O170 Eu147 2.473 . S
O170 C152 1.257 . S
H171 C157 0.929 . S
H172 C159 0.931 . S
H173 C161 0.929 . S
H174 C180 0.930 . S
H175 C184 0.930 . S
H176 C189 0.929 . S
H177 C187 0.929 . S
H178 C182 0.929 . S
H179 C188 0.929 . S
C180 H174 0.930 . S
C180 C181 1.367 . S
C180 C188 1.378 . S
C181 C180 1.367 . S
C181 C189 1.433 . S
C182 H178 0.929 . S
C182 C184 1.378 . S
C182 C186 1.350 . S
C183 C186 1.463 . S
C183 C188 1.350 . S
C183 N191 1.427 . S
C184 H175 0.930 . S
C184 C182 1.378 . S
C184 C185 1.367 . S
C185 C184 1.367 . S
C185 C187 1.433 . S
C186 C182 1.350 . S
C186 C183 1.463 . S
C186 N190 1.427 . S
C187 H177 0.929 . S
C187 C185 1.433 . S
C187 N190 1.384 . S
C188 H179 0.929 . S
C188 C180 1.378 . S
C188 C183 1.350 . S
C189 H176 0.929 . S
C189 C181 1.433 . S
C189 N191 1.384 . S
N190 C186 1.427 . S
N190 C187 1.384 . S
N191 C183 1.427 . S
N191 C189 1.384 . S
H192 C198 0.930 . S
H193 C202 0.930 . S
H194 C207 0.929 . S
H195 C205 0.929 1_545 S
H196 C200 0.929 . S
H197 C206 0.929 . S
C198 H192 0.930 . S
C198 C199 1.367 . S
C198 C206 1.378 . S
C199 C198 1.367 . S
C199 C207 1.433 . S
C200 H196 0.929 . S
C200 C202 1.378 . S
C200 C204 1.350 . S
C201 C204 1.463 . S
C201 C206 1.350 . S
C201 N209 1.427 . S
C202 H193 0.930 . S
C202 C200 1.378 . S
C202 C203 1.367 . S
C203 C202 1.367 . S
C203 C205 1.433 . S
C204 C200 1.350 . S
C204 C201 1.463 . S
C204 N208 1.427 . S
C205 H195 0.929 1_565 S
C205 C203 1.433 . S
C205 N208 1.384 . S
C206 H197 0.929 . S
C206 C198 1.378 . S
C206 C201 1.350 . S
C207 H194 0.929 . S
C207 C199 1.433 . S
C207 N209 1.384 . S
N208 C204 1.427 . S
N208 C205 1.384 . S
N209 C201 1.427 . S
N209 C207 1.384 . S
H210 C216 0.930 . S
H211 C220 0.930 . S
H212 C225 0.929 . S
H213 C223 0.942 . S
H214 C218 0.929 . S
H215 C224 0.929 . S
C216 H210 0.930 . S
C216 C217 1.367 . S
C216 C224 1.378 . S
C217 C216 1.367 . S
C217 C225 1.433 . S
C218 H214 0.929 . S
C218 C220 1.378 . S
C218 C222 1.350 . S
C219 C222 1.463 . S
C219 C224 1.350 . S
C219 N227 1.427 . S
C220 H211 0.930 . S
C220 C218 1.378 . S
C220 C221 1.367 . S
C221 C220 1.367 . S
C221 C223 1.433 . S
C222 C218 1.350 . S
C222 C219 1.463 . S
C222 N226 1.427 . S
C223 H213 0.942 . S
C223 C221 1.433 . S
C223 N226 1.384 . S
C224 H215 0.929 . S
C224 C216 1.378 . S
C224 C219 1.350 . S
C225 H212 0.929 . S
C225 C217 1.433 . S
C225 N227 1.384 . S
N226 C222 1.427 . S
N226 C223 1.384 . S
N227 C219 1.427 . S
N227 C225 1.384 . S
H228 C234 0.930 . S
H229 C238 0.930 . S
H230 C243 0.929 . S
H231 C241 0.929 . S
H232 C236 0.929 . S
H233 C242 0.929 . S
C234 H228 0.930 . S
C234 C235 1.367 . S
C234 C242 1.378 . S
C235 C234 1.367 . S
C235 C243 1.433 . S
C236 H232 0.929 . S
C236 C238 1.378 . S
C236 C240 1.350 . S
C237 C240 1.463 . S
C237 C242 1.350 . S
C237 N245 1.427 . S
C238 H229 0.930 . S
C238 C236 1.378 . S
C238 C239 1.367 . S
C239 C238 1.367 . S
C239 C241 1.433 . S
C240 C236 1.350 . S
C240 C237 1.463 . S
C240 N244 1.427 . S
C241 H231 0.929 . S
C241 C239 1.433 . S
C241 N244 1.384 . S
C242 H233 0.929 . S
C242 C234 1.378 . S
C242 C237 1.350 . S
C243 H230 0.929 . S
C243 C235 1.433 . S
C243 N245 1.384 . S
N244 C240 1.427 . S
N244 C241 1.384 . S
N245 C237 1.427 . S
N245 C243 1.384 . S
H246 C252 0.930 . S
H247 C256 0.930 . S
H248 C261 0.929 1_565 S
H249 C259 0.929 . S
H250 C254 0.929 . S
H251 C260 0.929 . S
C252 H246 0.930 . S
C252 C253 1.367 . S
C252 C260 1.378 . S
C253 C252 1.367 . S
C253 C261 1.433 . S
C254 H250 0.929 . S
C254 C256 1.378 . S
C254 C258 1.350 . S
C255 C258 1.463 . S
C255 C260 1.350 . S
C255 N263 1.427 . S
C256 H247 0.930 . S
C256 C254 1.378 . S
C256 C257 1.367 . S
C257 C256 1.367 . S
C257 C259 1.433 . S
C258 C254 1.350 . S
C258 C255 1.463 . S
C258 N262 1.427 . S
C259 H249 0.929 . S
C259 C257 1.433 . S
C259 N262 1.384 . S
C260 H251 0.929 . S
C260 C252 1.378 . S
C260 C255 1.350 . S
C261 H248 0.929 1_545 S
C261 C253 1.433 . S
C261 N263 1.384 . S
N262 C258 1.427 . S
N262 C259 1.384 . S
N263 C255 1.427 . S
N263 C261 1.384 . S
H264 C270 0.930 . S
H265 C274 0.930 . S
H266 C279 0.929 1_455 S
H267 C277 0.929 . S
H268 C272 0.929 . S
H269 C278 0.929 . S
C270 H264 0.930 . S
C270 C271 1.367 . S
C270 C278 1.378 . S
C271 C270 1.367 . S
C271 C279 1.433 . S
C272 H268 0.929 . S
C272 C274 1.378 . S
C272 C276 1.350 . S
C273 C276 1.463 . S
C273 C278 1.350 . S
C273 N281 1.427 . S
C274 H265 0.930 . S
C274 C272 1.378 . S
C274 C275 1.367 . S
C275 C274 1.367 . S
C275 C277 1.433 . S
C276 C272 1.350 . S
C276 C273 1.463 . S
C276 N280 1.427 . S
C277 H267 0.929 . S
C277 C275 1.433 . S
C277 N280 1.384 . S
C278 H269 0.929 . S
C278 C270 1.378 . S
C278 C273 1.350 . S
C279 H266 0.929 1_655 S
C279 C271 1.433 . S
C279 N281 1.384 . S
N280 C276 1.427 . S
N280 C277 1.384 . S
N281 C273 1.427 . S
N281 C279 1.384 . S
H282 C288 0.930 . S
H283 C292 0.930 . S
H284 C297 0.936 . S
H285 C295 0.936 . S
H286 C290 0.929 . S
H287 C296 0.929 . S
C288 H282 0.930 . S
C288 C289 1.367 . S
C288 C296 1.378 . S
C289 C288 1.367 . S
C289 C297 1.423 1_556 S
C290 H286 0.929 . S
C290 C292 1.378 . S
C290 C294 1.350 . S
C291 C294 1.463 1_556 S
C291 C296 1.350 . S
C291 N299 1.427 1_556 S
C292 H283 0.930 . S
C292 C290 1.378 . S
C292 C293 1.367 . S
C293 C292 1.367 . S
C293 C295 1.423 1_554 S
C294 C290 1.350 . S
C294 C291 1.463 1_554 S
C294 N298 1.427 1_554 S
C295 H285 0.936 . S
C295 C293 1.423 1_556 S
C295 N298 1.388 . S
C296 H287 0.929 . S
C296 C288 1.378 . S
C296 C291 1.350 . S
C297 H284 0.936 . S
C297 C289 1.423 1_554 S
C297 N299 1.388 . S
N298 C294 1.427 1_556 S
N298 C295 1.388 . S
N299 C291 1.427 1_554 S
N299 C297 1.388 . S
H300 C306 0.930 . S
H301 C310 0.930 . S
H302 C315 0.929 . S
H303 C313 0.929 . S
H304 C308 0.929 . S
H305 C314 0.929 . S
C306 H300 0.930 . S
C306 C307 1.367 . S
C306 C314 1.378 . S
C307 C306 1.367 . S
C307 C315 1.433 . S
C308 H304 0.929 . S
C308 C310 1.378 . S
C308 C312 1.350 . S
C309 C312 1.463 1_545 S
C309 C314 1.350 . S
C309 N317 1.427 . S
C310 H301 0.930 . S
C310 C308 1.378 . S
C310 C311 1.367 . S
C311 C310 1.367 . S
C311 C313 1.433 . S
C312 C308 1.350 . S
C312 C309 1.463 1_565 S
C312 N316 1.427 . S
C313 H303 0.929 . S
C313 C311 1.433 . S
C313 N316 1.384 . S
C314 H305 0.929 . S
C314 C306 1.378 . S
C314 C309 1.350 . S
C315 H302 0.929 . S
C315 C307 1.433 . S
C315 N317 1.384 . S
N316 C312 1.427 . S
N316 C313 1.384 . S
N317 C309 1.427 . S
N317 C315 1.384 . S
H318 C324 0.930 . S
H319 C328 0.930 . S
H320 C333 0.929 . S
H321 C331 0.929 . S
H322 C326 0.929 . S
H323 C332 0.929 . S
C324 H318 0.930 . S
C324 C325 1.367 . S
C324 C332 1.378 . S
C325 C324 1.367 . S
C325 C333 1.433 . S
C326 H322 0.929 . S
C326 C328 1.378 . S
C326 C330 1.350 . S
C327 C330 1.463 1_655 S
C327 C332 1.350 . S
C327 N335 1.427 . S
C328 H319 0.930 . S
C328 C326 1.378 . S
C328 C329 1.367 . S
C329 C328 1.367 . S
C329 C331 1.433 . S
C330 C326 1.350 . S
C330 C327 1.463 1_455 S
C330 N334 1.427 . S
C331 H321 0.929 . S
C331 C329 1.433 . S
C331 N334 1.384 . S
C332 H323 0.929 . S
C332 C324 1.378 . S
C332 C327 1.350 . S
C333 H320 0.929 . S
C333 C325 1.433 . S
C333 N335 1.384 . S
N334 C330 1.427 . S
N334 C331 1.384 . S
N335 C327 1.427 . S
N335 C333 1.384 . S
H336 C342 0.930 . S
H337 C346 0.930 . S
H338 C351 0.929 . S
H339 C349 0.929 . S
H340 C344 0.929 . S
H341 C350 0.929 . S
C342 H336 0.930 . S
C342 C343 1.367 . S
C342 C350 1.378 . S
C343 C342 1.367 . S
C343 C351 1.433 . S
C344 H340 0.929 . S
C344 C346 1.378 . S
C344 C348 1.350 . S
C345 C348 1.463 1_655 S
C345 C350 1.350 . S
C345 N353 1.427 . S
C346 H337 0.930 . S
C346 C344 1.378 . S
C346 C347 1.367 . S
C347 C346 1.367 . S
C347 C349 1.433 . S
C348 C344 1.350 . S
C348 C345 1.463 1_455 S
C348 N352 1.427 . S
C349 H339 0.929 . S
C349 C347 1.433 . S
C349 N352 1.384 . S
C350 H341 0.929 . S
C350 C342 1.378 . S
C350 C345 1.350 . S
C351 H338 0.929 . S
C351 C343 1.433 . S
C351 N353 1.384 . S
N352 C348 1.427 . S
N352 C349 1.384 . S
N353 C345 1.427 . S
N353 C351 1.384 . S
H354 C360 0.930 . S
H355 C364 0.930 . S
H356 C369 0.929 . S
H357 C367 0.929 . S
H358 C362 0.929 . S
H359 C368 0.929 . S
C360 H354 0.930 . S
C360 C361 1.367 . S
C360 C368 1.378 . S
C361 C360 1.367 . S
C361 C369 1.433 . S
C362 H358 0.929 . S
C362 C364 1.378 . S
C362 C366 1.350 . S
C363 C366 1.463 1_556 S
C363 C368 1.350 . S
C363 N371 1.427 1_556 S
C364 H355 0.930 . S
C364 C362 1.378 . S
C364 C365 1.367 . S
C365 C364 1.367 . S
C365 C367 1.433 . S
C366 C362 1.350 . S
C366 C363 1.463 1_554 S
C366 N370 1.427 1_554 S
C367 H357 0.929 . S
C367 C365 1.433 . S
C367 N370 1.384 1_554 S
C368 H359 0.929 . S
C368 C360 1.378 . S
C368 C363 1.350 . S
C369 H356 0.929 . S
C369 C361 1.433 . S
C369 N371 1.384 1_556 S
N370 C366 1.427 1_556 S
N370 C367 1.384 1_556 S
N371 C363 1.427 1_554 S
N371 C369 1.384 1_554 S
H372 C378 0.930 . S
H373 C382 0.930 . S
H374 C387 0.929 . S
H375 C385 0.929 . S
H376 C380 0.929 1_545 S
H377 C386 0.929 1_565 S
C378 H372 0.930 . S
C378 C379 1.367 . S
C378 C386 1.378 . S
C379 C378 1.367 . S
C379 C387 1.433 . S
C380 H376 0.929 1_565 S
C380 C382 1.378 . S
C380 C384 1.350 . S
C381 C384 1.463 1_545 S
C381 C386 1.350 . S
C381 N389 1.427 . S
C382 H373 0.930 . S
C382 C380 1.378 . S
C382 C383 1.367 . S
C383 C382 1.367 . S
C383 C385 1.433 . S
C384 C380 1.350 . S
C384 C381 1.463 1_565 S
C384 N388 1.427 . S
C385 H375 0.929 . S
C385 C383 1.433 . S
C385 N388 1.384 . S
C386 H377 0.929 1_545 S
C386 C378 1.378 . S
C386 C381 1.350 . S
C387 H374 0.929 . S
C387 C379 1.433 . S
C387 N389 1.384 . S
N388 C384 1.427 . S
N388 C385 1.384 . S
N389 C381 1.427 . S
N389 C387 1.384 . S
H390 C396 0.930 . S
H391 C400 0.930 . S
H392 C405 0.929 . S
H393 C403 0.929 . S
H394 C398 0.929 . S
H395 C404 0.929 . S
C396 H390 0.930 . S
C396 C397 1.367 . S
C396 C404 1.378 . S
C397 C396 1.367 . S
C397 C405 1.433 . S
C398 H394 0.929 . S
C398 C400 1.378 . S
C398 C402 1.350 . S
C399 C402 1.463 . S
C399 C404 1.350 . S
C399 N407 1.427 . S
C400 H391 0.930 . S
C400 C398 1.378 . S
C400 C401 1.367 . S
C401 C400 1.367 . S
C401 C403 1.433 . S
C402 C398 1.350 . S
C402 C399 1.463 . S
C402 N406 1.427 . S
C403 H393 0.929 . S
C403 C401 1.433 . S
C403 N406 1.384 . S
C404 H395 0.929 . S
C404 C396 1.378 . S
C404 C399 1.350 . S
C405 H392 0.929 . S
C405 C397 1.433 . S
C405 N407 1.384 . S
N406 C402 1.427 . S
N406 C403 1.384 . S
N407 C399 1.427 . S
N407 C405 1.384 . S
H408 C414 0.930 . S
H409 C418 0.930 . S
H410 C423 0.929 . S
H411 C421 0.929 . S
H412 C416 0.929 . S
H413 C422 0.929 . S
C414 H408 0.930 . S
C414 C415 1.367 . S
C414 C422 1.378 . S
C415 C414 1.367 . S
C415 C423 1.433 . S
C416 H412 0.929 . S
C416 C418 1.378 . S
C416 C420 1.350 . S
C417 C420 1.463 . S
C417 C422 1.350 . S
C417 N425 1.427 . S
C418 H409 0.930 . S
C418 C416 1.378 . S
C418 C419 1.367 . S
C419 C418 1.367 . S
C419 C421 1.433 . S
C420 C416 1.350 . S
C420 C417 1.463 . S
C420 N424 1.427 . S
C421 H411 0.929 . S
C421 C419 1.433 . S
C421 N424 1.384 . S
C422 H413 0.929 . S
C422 C414 1.378 . S
C422 C417 1.350 . S
C423 H410 0.929 . S
C423 C415 1.433 . S
C423 N425 1.384 . S
N424 C420 1.427 . S
N424 C421 1.384 . S
N425 C417 1.427 . S
N425 C423 1.384 . S
H426 C432 0.930 . S
H427 C436 0.930 . S
H428 C441 0.929 . S
H429 C439 0.929 . S
H430 C434 0.929 . S
H431 C440 0.929 . S
C432 H426 0.930 . S
C432 C433 1.367 . S
C432 C440 1.378 . S
C433 C432 1.367 . S
C433 C441 1.433 . S
C434 H430 0.929 . S
C434 C436 1.378 . S
C434 C438 1.350 . S
C435 C438 1.463 . S
C435 C440 1.350 . S
C435 N443 1.427 . S
C436 H427 0.930 . S
C436 C434 1.378 . S
C436 C437 1.367 . S
C437 C436 1.367 . S
C437 C439 1.433 . S
C438 C434 1.350 . S
C438 C435 1.463 . S
C438 N442 1.427 . S
C439 H429 0.929 . S
C439 C437 1.433 . S
C439 N442 1.384 . S
C440 H431 0.929 . S
C440 C432 1.378 . S
C440 C435 1.350 . S
C441 H428 0.929 . S
C441 C433 1.433 . S
C441 N443 1.384 . S
N442 C438 1.427 . S
N442 C439 1.384 . S
N443 C435 1.427 . S
N443 C441 1.384 . S
H444 C450 0.930 . S
H445 C454 0.930 . S
H446 C459 0.929 . S
H447 C457 0.929 . S
H448 C452 0.929 . S
H449 C458 0.929 . S
C450 H444 0.930 . S
C450 C451 1.367 . S
C450 C458 1.378 . S
C451 C450 1.367 . S
C451 C459 1.433 . S
C452 H448 0.929 . S
C452 C454 1.378 . S
C452 C456 1.350 . S
C453 C456 1.463 . S
C453 C458 1.350 . S
C453 N461 1.427 . S
C454 H445 0.930 . S
C454 C452 1.378 . S
C454 C455 1.367 . S
C455 C454 1.367 . S
C455 C457 1.433 . S
C456 C452 1.350 . S
C456 C453 1.463 . S
C456 N460 1.427 . S
C457 H447 0.929 . S
C457 C455 1.433 . S
C457 N460 1.384 . S
C458 H449 0.929 . S
C458 C450 1.378 . S
C458 C453 1.350 . S
C459 H446 0.929 . S
C459 C451 1.433 . S
C459 N461 1.384 . S
N460 C456 1.427 . S
N460 C457 1.384 . S
N461 C453 1.427 . S
N461 C459 1.384 . S
H462 C468 0.930 . S
H463 C472 0.930 . S
H464 C477 0.929 . S
H465 C475 0.929 . S
H466 C470 0.929 . S
H467 C476 0.929 . S
C468 H462 0.930 . S
C468 C469 1.367 . S
C468 C476 1.378 . S
C469 C468 1.367 . S
C469 C477 1.433 . S
C470 H466 0.929 . S
C470 C472 1.378 . S
C470 C474 1.350 . S
C471 C474 1.463 . S
C471 C476 1.350 . S
C471 N479 1.427 . S
C472 H463 0.930 . S
C472 C470 1.378 . S
C472 C473 1.367 . S
C473 C472 1.367 . S
C473 C475 1.433 . S
C474 C470 1.350 . S
C474 C471 1.463 . S
C474 N478 1.427 . S
C475 H465 0.929 . S
C475 C473 1.433 . S
C475 N478 1.384 . S
C476 H467 0.929 . S
C476 C468 1.378 . S
C476 C471 1.350 . S
C477 H464 0.929 . S
C477 C469 1.433 . S
C477 N479 1.384 . S
N478 C474 1.427 . S
N478 C475 1.384 . S
N479 C471 1.427 . S
N479 C477 1.384 . S
H480 C486 0.930 . S
H481 C490 0.930 . S
H482 C495 0.929 . S
H483 C493 0.929 . S
H484 C488 0.929 . S
H485 C494 0.929 . S
C486 H480 0.930 . S
C486 C487 1.367 . S
C486 C494 1.378 . S
C487 C486 1.367 . S
C487 C495 1.433 . S
C488 H484 0.929 . S
C488 C490 1.378 . S
C488 C492 1.350 . S
C489 C492 1.463 . S
C489 C494 1.350 . S
C489 N497 1.427 . S
C490 H481 0.930 . S
C490 C488 1.378 . S
C490 C491 1.367 . S
C491 C490 1.367 . S
C491 C493 1.433 . S
C492 C488 1.350 . S
C492 C489 1.463 . S
C492 N496 1.427 . S
C493 H483 0.929 . S
C493 C491 1.433 . S
C493 N496 1.384 . S
C494 H485 0.929 . S
C494 C486 1.378 . S
C494 C489 1.350 . S
C495 H482 0.929 . S
C495 C487 1.433 . S
C495 N497 1.384 . S
N496 C492 1.427 . S
N496 C493 1.384 . S
N497 C489 1.427 . S
N497 C495 1.384 . S
H498 C504 0.930 1_455 S
H499 C508 0.930 1_655 S
H500 C513 0.929 . S
H501 C511 0.929 . S
H502 C506 0.929 . S
H503 C512 0.929 . S
C504 H498 0.930 1_655 S
C504 C505 1.367 . S
C504 C512 1.378 1_655 S
C505 C504 1.367 . S
C505 C513 1.433 . S
C506 H502 0.929 . S
C506 C508 1.378 1_655 S
C506 C510 1.350 1_655 S
C507 C510 1.463 1_655 S
C507 C512 1.350 1_655 S
C507 N515 1.427 . S
C508 H499 0.930 1_455 S
C508 C506 1.378 1_455 S
C508 C509 1.367 . S
C509 C508 1.367 . S
C509 C511 1.433 . S
C510 C506 1.350 1_455 S
C510 C507 1.463 1_455 S
C510 N514 1.427 . S
C511 H501 0.929 . S
C511 C509 1.433 . S
C511 N514 1.384 . S
C512 H503 0.929 . S
C512 C504 1.378 1_455 S
C512 C507 1.350 1_455 S
C513 H500 0.929 . S
C513 C505 1.433 . S
C513 N515 1.384 . S
N514 C510 1.427 . S
N514 C511 1.384 . S
N515 C507 1.427 . S
N515 C513 1.384 . S
H516 C522 0.930 . S
H517 C526 0.930 . S
H518 C531 0.929 . S
H519 C529 0.929 . S
H520 C524 0.929 . S
H521 C530 0.929 . S
C522 H516 0.930 . S
C522 C523 1.367 . S
C522 C530 1.378 . S
C523 C522 1.367 . S
C523 C531 1.433 . S
C524 H520 0.929 . S
C524 C526 1.378 . S
C524 C528 1.350 . S
C525 C528 1.463 . S
C525 C530 1.350 . S
C525 N533 1.427 . S
C526 H517 0.930 . S
C526 C524 1.378 . S
C526 C527 1.367 . S
C527 C526 1.367 . S
C527 C529 1.433 . S
C528 C524 1.350 . S
C528 C525 1.463 . S
C528 N532 1.427 . S
C529 H519 0.929 . S
C529 C527 1.433 . S
C529 N532 1.384 . S
C530 H521 0.929 . S
C530 C522 1.378 . S
C530 C525 1.350 . S
C531 H518 0.929 . S
C531 C523 1.433 . S
C531 N533 1.384 . S
N532 C528 1.427 . S
N532 C529 1.384 . S
N533 C525 1.427 . S
N533 C531 1.384 . S
H534 C540 0.930 . S
H535 C544 0.930 . S
H536 C549 0.929 . S
H537 C547 0.929 . S
H538 C542 0.929 1_545 S
H539 C548 0.929 1_565 S
C540 H534 0.930 . S
C540 C541 1.367 . S
C540 C548 1.378 . S
C541 C540 1.367 . S
C541 C549 1.433 . S
C542 H538 0.929 1_565 S
C542 C544 1.378 . S
C542 C546 1.350 . S
C543 C546 1.463 1_545 S
C543 C548 1.350 . S
C543 N551 1.427 . S
C544 H535 0.930 . S
C544 C542 1.378 . S
C544 C545 1.367 . S
C545 C544 1.367 . S
C545 C547 1.433 . S
C546 C542 1.350 . S
C546 C543 1.463 1_565 S
C546 N550 1.427 . S
C547 H537 0.929 . S
C547 C545 1.433 . S
C547 N550 1.384 . S
C548 H539 0.929 1_545 S
C548 C540 1.378 . S
C548 C543 1.350 . S
C549 H536 0.929 . S
C549 C541 1.433 . S
C549 N551 1.384 . S
N550 C546 1.427 . S
N550 C547 1.384 . S
N551 C543 1.427 . S
N551 C549 1.384 . S
C181 C160 1.523 . S
C185 C21 1.481 . S
C199 C50 1.488 . S
C203 C102 1.528 1_565 S
C217 C79 1.495 . S
C221 C131 1.526 1_455 S
C235 C44 1.521 . S
C239 C108 1.486 . S
C253 C73 1.529 1_545 S
C257 C137 1.490 . S
C271 C15 1.527 1_655 S
C275 C166 1.495 . S
C289 C92 2.476 . S
C293 C5 2.476 . S
C307 C121 2.480 . S
C311 C34 2.479 . S
C325 C150 2.475 . S
C329 C63 2.475 . S
C343 C124 2.020 . S
C347 C8 2.023 . S
C361 C37 2.016 . S
C365 C153 2.019 . S
C379 C95 2.016 . S
C383 C66 2.018 . S
C397 C3 1.130 . S
C401 C39 1.153 . S
C415 C68 1.153 . S
C419 C32 1.133 . S
C433 C10 1.169 . S
C437 C61 1.114 . S
C451 C90 1.130 . S
C455 C155 1.165 . S
C469 C119 1.113 . S
C473 C97 1.167 . S
C487 C126 1.153 . S
C491 C148 1.131 . S
C505 C129 1.432 . S
C509 C13 1.432 . S
C523 C42 1.439 . S
C527 C158 1.447 . S
C541 C100 1.443 . S
C545 C71 1.436 . S
