# Generated by pormake.
# Topology umf, (4)-cn, num edge types: 1
# Building blocks:
#     Node 0, Type 0, BuildingBlock: ESEHIV_clean_sbu_0, # of connection points: 4
#     Node 1, Type 0, BuildingBlock: ESEHIV_clean_sbu_0, # of connection points: 4
#     Node 2, Type 0, BuildingBlock: ESEHIV_clean_sbu_0, # of connection points: 4
#     Node 3, Type 0, BuildingBlock: ESEHIV_clean_sbu_0, # of connection points: 4
#     Node 4, Type 0, BuildingBlock: ESEHIV_clean_sbu_0, # of connection points: 4
#     Node 5, Type 0, BuildingBlock: ESEHIV_clean_sbu_0, # of connection points: 4
#     Node 6, Type 0, BuildingBlock: ESEHIV_clean_sbu_0, # of connection points: 4
#     Node 7, Type 0, BuildingBlock: ESEHIV_clean_sbu_0, # of connection points: 4
#     Edge 8, Type (0, 0), BuildingBlock: TEMPAE_clean_linker_10, # of connection points: 2
#     Edge 9, Type (0, 0), BuildingBlock: TEMPAE_clean_linker_10, # of connection points: 2
#     Edge 10, Type (0, 0), BuildingBlock: TEMPAE_clean_linker_10, # of connection points: 2
#     Edge 11, Type (0, 0), BuildingBlock: TEMPAE_clean_linker_10, # of connection points: 2
#     Edge 12, Type (0, 0), BuildingBlock: TEMPAE_clean_linker_10, # of connection points: 2
#     Edge 13, Type (0, 0), BuildingBlock: TEMPAE_clean_linker_10, # of connection points: 2
#     Edge 14, Type (0, 0), BuildingBlock: TEMPAE_clean_linker_10, # of connection points: 2
#     Edge 15, Type (0, 0), BuildingBlock: TEMPAE_clean_linker_10, # of connection points: 2
#     Edge 16, Type (0, 0), BuildingBlock: TEMPAE_clean_linker_10, # of connection points: 2
#     Edge 17, Type (0, 0), BuildingBlock: TEMPAE_clean_linker_10, # of connection points: 2
#     Edge 18, Type (0, 0), BuildingBlock: TEMPAE_clean_linker_10, # of connection points: 2
#     Edge 19, Type (0, 0), BuildingBlock: TEMPAE_clean_linker_10, # of connection points: 2
#     Edge 20, Type (0, 0), BuildingBlock: TEMPAE_clean_linker_10, # of connection points: 2
#     Edge 21, Type (0, 0), BuildingBlock: TEMPAE_clean_linker_10, # of connection points: 2
#     Edge 22, Type (0, 0), BuildingBlock: TEMPAE_clean_linker_10, # of connection points: 2
#     Edge 23, Type (0, 0), BuildingBlock: TEMPAE_clean_linker_10, # of connection points: 2
# Relax obj value: 0.065
# Max RMSD: 0.103
# Mean RMSD: 0.103
data_MOF--net-umf--node1-ESEHIV_clean_sbu_0--edge1-TEMPAE_clean_linker_10
_symmetry_space_group_name_H-M    P1
_symmetry_Int_Tables_number       1
_symmetry_cell_setting            triclinic
loop_
_symmetry_equiv_pos_as_xyz
'x, y, z'
_cell_length_a     34.173151
_cell_length_b     34.12603
_cell_length_c     52.100774
_cell_angle_alpha  90.091977
_cell_angle_beta   89.902401
_cell_angle_gamma 90.303161
loop_
_atom_site_label
_atom_site_type_symbol
_atom_site_fract_x
_atom_site_fract_y
_atom_site_fract_z
_atom_type_partial_charge
Cu0 Cu 0.07918 0.26661 0.16138 0.0
N1 N 0.0444 0.22475 0.16285 0.0
N2 N 0.02263 0.16365 0.16824 0.0
C3 C 0.05291 0.18867 0.17136 0.0
C4 C 0.99388 0.18496 0.15739 0.0
C5 C 1.00743 0.22278 0.15413 0.0
O6 O 0.12251 0.25163 0.184 0.0
C7 C 0.0936 0.24697 0.1092 0.0
O8 O 0.09568 0.21123 0.11841 0.0
H9 H 0.08144 0.18054 0.17854 0.0
H10 H 0.99189 0.24688 0.14545 0.0
N11 N 0.05333 0.31017 0.1746 0.0
N12 N 0.03421 0.37161 0.18208 0.0
C13 C 0.0587 0.34823 0.16868 0.0
C14 C 0.02464 0.30942 0.19228 0.0
C15 C 1.01274 0.34724 0.19692 0.0
C16 C 0.13499 0.27282 0.20249 0.0
O17 O 0.12391 0.30954 0.20398 0.0
H18 H 0.07991 0.35845 0.15473 0.0
H19 H 0.01332 0.28312 0.20124 0.0
O20 O 0.09067 0.27553 0.12492 0.0
H21 H 0.96537 0.17391 0.15185 0.0
H22 H 0.99054 0.35614 0.21054 0.0
Cu23 Cu 0.7883 1.01144 0.67895 0.0
N24 N 0.82443 0.97043 0.68189 0.0
N25 N 0.88093 0.93733 0.68243 0.0
C26 C 0.86382 0.97297 0.68315 0.0
C27 C 0.85104 0.9114 0.68091 0.0
C28 C 0.81634 0.93187 0.6806 0.0
O29 O 0.80734 0.05598 0.69989 0.0
C30 C 0.80775 0.02148 0.62565 0.0
O31 O 0.84424 0.02052 0.63342 0.0
H32 H 0.87974 1.00039 0.68339 0.0
H33 H 0.78723 0.91957 0.67882 0.0
N34 N 0.7399 0.99483 0.69265 0.0
N35 N 0.67588 0.9812 0.69785 0.0
C36 C 0.70398 0.995 0.68172 0.0
C37 C 0.73437 0.9803 0.71634 0.0
C38 C 0.69519 0.97188 0.71961 0.0
C39 C 0.83814 0.07637 0.6957 0.0
O40 O 0.8576 0.07102 0.67426 0.0
H41 H 0.69855 1.00551 0.66247 0.0
H42 H 0.75738 0.97603 0.73028 0.0
O43 O 0.7802 0.02072 0.64218 0.0
H44 H 0.85398 0.87989 0.67977 0.0
H45 H 0.68214 0.95924 0.73664 0.0
Cu46 Cu 0.98136 0.77159 0.17103 0.0
N47 N 0.01736 0.81201 0.17443 0.0
N48 N 0.04 0.87294 0.17905 0.0
C49 C 1.00819 0.84945 0.17943 0.0
C50 C 0.07044 0.84926 0.17357 0.0
C51 C 0.05632 0.81152 0.17079 0.0
O52 O 0.93541 0.78923 0.1903 0.0
C53 C 0.96084 0.78884 0.11915 0.0
O54 O 0.94485 0.82048 0.1289 0.0
H55 H 0.97847 0.85947 0.18214 0.0
H56 H 0.07304 0.78574 0.16587 0.0
N57 N 1.00265 0.72677 0.18567 0.0
N58 N 0.01883 0.66432 0.19263 0.0
C59 C 0.99867 0.68945 0.17765 0.0
C60 C 0.0261 0.72539 0.20633 0.0
C61 C 0.03613 0.68695 0.21069 0.0
C62 C 0.91929 0.76981 0.20837 0.0
O63 O 0.92879 0.73292 0.21167 0.0
H64 H 0.98097 0.681 0.16133 0.0
H65 H 0.03545 0.75068 0.21731 0.0
O66 O 0.97501 0.76324 0.13421 0.0
H67 H 0.10058 0.8586 0.17137 0.0
H68 H 0.05524 0.67666 0.22575 0.0
Cu69 Cu 0.27132 0.948 0.67021 0.0
N70 N 0.23277 0.91024 0.66365 0.0
N71 N 0.16994 0.89139 0.66517 0.0
C72 C 0.19531 0.92053 0.65946 0.0
C73 C 0.19236 0.86129 0.67304 0.0
C74 C 0.23109 0.87304 0.67218 0.0
O75 O 0.25512 0.96286 0.70495 0.0
C76 C 0.26657 0.97319 0.62023 0.0
O77 O 0.26868 0.93495 0.61764 0.0
H78 H 0.1866 0.95036 0.65542 0.0
H79 H 0.25562 0.85716 0.67999 0.0
N80 N 0.32274 0.92794 0.66939 0.0
N81 N 0.38845 0.9245 0.67109 0.0
C82 C 0.35639 0.94682 0.67555 0.0
C83 C 0.33393 0.89271 0.66051 0.0
C84 C 0.37416 0.89043 0.66163 0.0
C85 C 0.26213 0.93775 0.72251 0.0
O86 O 0.28811 0.91042 0.71784 0.0
H87 H 0.35724 0.9764 0.68304 0.0
H88 H 0.31428 0.87054 0.65305 0.0
O89 O 0.26729 0.98755 0.6429 0.0
H90 H 0.18142 0.83386 0.68068 0.0
H91 H 0.39155 0.86589 0.65518 0.0
Cu92 Cu 1.00905 0.79237 0.87622 0.0
N93 N 0.96791 0.82832 0.87323 0.0
N94 N 0.93459 0.88474 0.8729 0.0
C95 C 0.97026 0.86778 0.87212 0.0
C96 C 0.90883 0.85466 0.87427 0.0
C97 C 0.92944 0.82001 0.87446 0.0
O98 O 0.05351 0.81175 0.85543 0.0
C99 C 0.01796 0.81176 0.92957 0.0
O100 O 0.01594 0.84827 0.92182 0.0
H101 H 0.99757 0.88386 0.87199 0.0
H102 H 0.91731 0.79079 0.87614 0.0
N103 N 0.99281 0.74387 0.86243 0.0
N104 N 0.97727 0.68013 0.85765 0.0
C105 C 0.99059 0.70833 0.87389 0.0
C106 C 0.9807 0.7379 0.83821 0.0
C107 C 0.97114 0.69888 0.83519 0.0
C108 C 0.07373 0.84262 0.85981 0.0
O109 O 0.06819 0.86186 0.88133 0.0
H110 H 0.99809 0.70343 0.89379 0.0
H111 H 0.97904 0.76047 0.8237 0.0
O112 O 0.01833 0.78424 0.91298 0.0
H113 H 0.87735 0.85744 0.87544 0.0
H114 H 0.96098 0.68534 0.81762 0.0
Cu115 Cu 0.26917 0.08117 0.39033 0.0
N116 N 0.22781 0.04568 0.3871 0.0
N117 N 0.16791 0.02142 0.38027 0.0
C118 C 0.19211 0.05245 0.37729 0.0
C119 C 0.18944 0.99385 0.39218 0.0
C120 C 0.22638 1.00891 0.39634 0.0
O121 O 0.25979 0.12489 0.3668 0.0
C122 C 0.29182 0.06889 0.44148 0.0
O123 O 0.30953 0.03914 0.43058 0.0
H124 H 0.18339 0.08014 0.3692 0.0
H125 H 0.25023 0.99451 0.40608 0.0
N126 N 0.31417 0.0563 0.37829 0.0
N127 N 0.3765 0.04094 0.37032 0.0
C128 C 0.35196 0.06568 0.38259 0.0
C129 C 0.31484 0.02487 0.3627 0.0
C130 C 0.35317 0.01528 0.35779 0.0
C131 C 0.23031 0.14759 0.36687 0.0
O132 O 0.20589 0.1465 0.38637 0.0
H133 H 0.36116 0.09026 0.39431 0.0
H134 H 0.28916 1.00994 0.35543 0.0
O135 O 0.27338 0.09308 0.42728 0.0
H136 H 0.17904 0.96521 0.39803 0.0
H137 H 0.36304 0.9909 0.3462 0.0
Cu138 Cu 0.94359 0.27484 0.88564 0.0
N139 N 0.9058 0.23667 0.89295 0.0
N140 N 0.88712 0.17367 0.8917 0.0
C141 C 0.91612 0.19922 0.89738 0.0
C142 C 0.85706 0.19597 0.88366 0.0
C143 C 0.8687 0.23478 0.88434 0.0
O144 O 0.95762 0.25791 0.85089 0.0
C145 C 0.96972 0.27415 0.93534 0.0
O146 O 0.93208 0.28089 0.93791 0.0
H147 H 0.94594 0.19061 0.90139 0.0
H148 H 0.85291 0.2591 0.87617 0.0
N149 N 0.92398 0.32655 0.88635 0.0
N150 N 0.92147 0.39246 0.88571 0.0
C151 C 0.9436 0.36023 0.88124 0.0
C152 C 0.88834 0.33788 0.89432 0.0
C153 C 0.88662 0.3782 0.89383 0.0
C154 C 0.93237 0.26486 0.83343 0.0
O155 O 0.90525 0.29106 0.83811 0.0
H156 H 0.97389 0.36102 0.87517 0.0
H157 H 0.86539 0.31825 0.90068 0.0
O158 O 0.98346 0.27051 0.91264 0.0
H159 H 0.82979 0.18487 0.8759 0.0
H160 H 0.86148 0.39559 0.89912 0.0
Cu161 Cu 0.77466 0.98205 0.38358 0.0
N162 N 0.81689 0.01628 0.38 0.0
N163 N 0.87769 0.0387 0.37408 0.0
C164 C 0.85357 1.00735 0.37279 0.0
C165 C 0.85515 0.06863 0.38224 0.0
C166 C 0.81762 0.05467 0.38583 0.0
O167 O 0.78337 0.93673 0.36108 0.0
C168 C 0.79528 0.96699 0.43582 0.0
O169 O 0.83074 0.96215 0.42666 0.0
H170 H 0.86285 0.97812 0.3678 0.0
H171 H 0.79277 0.07108 0.39281 0.0
N172 N 0.73064 1.0078 0.37131 0.0
N173 N 0.66904 0.02791 0.36616 0.0
C174 C 0.69355 1.00513 0.37991 0.0
C175 C 0.72968 0.03294 0.35149 0.0
C176 C 0.69177 0.04543 0.34826 0.0
C177 C 0.81121 0.91221 0.36291 0.0
O178 O 0.83361 0.91292 0.38336 0.0
H179 H 0.68486 0.98701 0.39598 0.0
H180 H 0.75481 0.0413 0.34005 0.0
O181 O 0.76704 0.97277 0.42035 0.0
H182 H 0.86514 0.09828 0.38581 0.0
H183 H 0.68164 0.06514 0.33347 0.0
C184 C 0.99638 0.43261 0.18655 0.0
C185 C 0.03194 0.41378 0.18141 0.0
C186 C 0.99398 0.47362 0.18723 0.0
C187 C 0.02802 0.49643 0.18278 0.0
C188 C 0.06387 0.47765 0.17709 0.0
C189 C 0.06537 0.43653 0.1764 0.0
C190 C 0.95512 0.49253 0.19311 0.0
C191 C 0.10086 0.50098 0.17239 0.0
C192 C 0.01544 0.60411 0.16612 0.0
C193 C 0.02142 0.62226 0.19002 0.0
C194 C 0.01771 0.56322 0.16342 0.0
C195 C 0.02635 0.53987 0.18509 0.0
C196 C 0.03266 0.55796 0.20921 0.0
C197 C 0.03 0.59884 0.21138 0.0
C198 C 1.01075 0.54497 0.13739 0.0
C199 C 0.0419 0.53407 0.23279 0.0
H200 H 0.97033 0.41519 0.19001 0.0
H201 H 0.09299 0.42217 0.17268 0.0
H202 H 0.95725 0.50952 0.21123 0.0
H203 H 0.94732 0.51343 0.17768 0.0
H204 H 0.9311 0.47067 0.1951 0.0
H205 H 0.12595 0.48203 0.16709 0.0
H206 H 0.09617 0.52255 0.15681 0.0
H207 H 0.10865 0.51774 0.18993 0.0
H208 H 1.00938 0.62188 0.14942 0.0
H209 H 0.03409 0.61239 0.22999 0.0
H210 H 0.9857 0.52421 0.1384 0.0
H211 H 0.03677 0.52791 0.13141 0.0
H212 H 1.00451 0.56722 0.12242 0.0
H213 H 0.01734 0.51366 0.23699 0.0
H214 H 0.04709 0.55269 0.24998 0.0
H215 H 0.06829 0.516 0.22934 0.0
C216 C 0.44224 0.97386 0.67414 0.0
C217 C 0.42943 0.93467 0.67477 0.0
C218 C 0.48216 0.98373 0.67711 0.0
C219 C 0.51018 0.95378 0.68092 0.0
C220 C 0.49741 0.91423 0.68165 0.0
C221 C 0.45743 0.90522 0.67859 0.0
C222 C 0.49438 0.02626 0.67615 0.0
C223 C 0.52601 0.88128 0.68587 0.0
C224 C 0.61939 0.97154 0.66829 0.0
C225 C 0.63414 0.97671 0.69324 0.0
C226 C 0.57911 0.96499 0.66392 0.0
C227 C 0.55268 0.96359 0.68494 0.0
C228 C 0.56726 0.96978 0.71007 0.0
C229 C 0.60755 0.97628 0.71388 0.0
C230 C 0.56495 0.95859 0.6368 0.0
C231 C 0.54034 0.96877 0.73308 0.0
H232 H 0.42115 0.99689 0.67091 0.0
H233 H 0.44804 0.87491 0.67954 0.0
H234 H 0.5086 0.03476 0.69447 0.0
H235 H 0.51625 0.03075 0.66065 0.0
H236 H 0.46923 0.04607 0.67274 0.0
H237 H 0.51162 0.85202 0.6854 0.0
H238 H 0.54915 0.88208 0.67091 0.0
H239 H 0.54065 0.885 0.70471 0.0
H240 H 0.63946 0.97153 0.65219 0.0
H241 H 0.61823 0.98103 0.73318 0.0
H242 H 0.54078 0.97907 0.63238 0.0
H243 H 0.55313 0.9284 0.6348 0.0
H244 H 0.58863 0.96281 0.62242 0.0
H245 H 0.51627 0.9901 0.73059 0.0
H246 H 0.55591 0.9756 0.75125 0.0
H247 H 0.52675 0.93929 0.73481 0.0
C248 C 0.91276 0.46256 0.89721 0.0
C249 C 0.93241 0.4335 0.88309 0.0
C250 C 0.92153 0.50263 0.8941 0.0
C251 C 0.95089 0.51441 0.87646 0.0
C252 C 0.97159 0.48528 0.8626 0.0
C253 C 0.96214 0.4453 0.86606 0.0
C254 C 0.89874 0.53248 0.90937 0.0
C255 C 1.00313 0.4964 0.84362 0.0
C256 C 0.94314 0.61736 0.84829 0.0
C257 C 0.97063 0.63876 0.86275 0.0
C258 C 0.93676 0.57708 0.85243 0.0
C259 C 0.95832 0.55722 0.87158 0.0
C260 C 0.98606 0.57856 0.88634 0.0
C261 C 0.9918 0.61898 0.88181 0.0
C262 C 0.90662 0.5558 0.83638 0.0
C263 C 1.00977 0.55863 0.90689 0.0
H264 H 0.89036 0.45405 0.91084 0.0
H265 H 0.97741 0.42337 0.85492 0.0
H266 H 0.91906 0.55165 0.92031 0.0
H267 H 0.88201 0.55154 0.89615 0.0
H268 H 0.87791 0.5186 0.92304 0.0
H269 H 0.01814 0.47037 0.8355 0.0
H270 H 0.99014 0.51332 0.82762 0.0
H271 H 0.02525 0.51556 0.85296 0.0
H272 H 0.92607 0.63223 0.83383 0.0
H273 H 0.01336 0.63494 0.89294 0.0
H274 H 0.8834 0.5435 0.84895 0.0
H275 H 0.92041 0.53086 0.82617 0.0
H276 H 0.89274 0.57523 0.82197 0.0
H277 H 0.98998 0.54577 0.92157 0.0
H278 H 0.03041 0.5791 0.91656 0.0
H279 H 0.02672 0.53417 0.89839 0.0
C280 C 0.43976 0.0265 0.34961 0.0
C281 C 0.4187 0.04121 0.37062 0.0
C282 C 0.48076 0.02532 0.34982 0.0
C283 C 0.50134 0.03919 0.3716 0.0
C284 C 0.48035 0.05445 0.3928 0.0
C285 C 0.43926 0.05533 0.39204 0.0
C286 C 0.50206 1.00908 0.32674 0.0
C287 C 0.50129 0.06939 0.41638 0.0
C288 C 0.60484 1.00094 0.37945 0.0
C289 C 0.62721 0.03168 0.36909 0.0
C290 C 0.5639 1.00343 0.38106 0.0
C291 C 0.54484 0.03748 0.37205 0.0
C292 C 0.56728 0.06902 0.3622 0.0
C293 C 0.60816 0.06575 0.36087 0.0
C294 C 0.54096 0.96915 0.39168 0.0
C295 C 0.54805 0.10588 0.35251 0.0
H296 H 0.42413 0.01614 0.33284 0.0
H297 H 0.42318 0.0663 0.40845 0.0
H298 H 0.52233 0.03155 0.31885 0.0
H299 H 0.52002 0.98359 0.3325 0.0
H300 H 0.48171 0.99965 0.31129 0.0
H301 H 0.48074 0.08099 0.43105 0.0
H302 H 0.51855 0.04542 0.42511 0.0
H303 H 0.5222 0.09299 0.41102 0.0
H304 H 0.61918 0.97437 0.38561 0.0
H305 H 0.62522 0.08993 0.35329 0.0
H306 H 0.52236 0.95629 0.37636 0.0
H307 H 0.52116 0.9791 0.40724 0.0
H308 H 0.56026 0.94585 0.39934 0.0
H309 H 0.52917 0.09878 0.33581 0.0
H310 H 0.56976 0.12847 0.34656 0.0
H311 H 0.52893 0.11849 0.3676 0.0
C312 C 0.97537 0.26516 0.98271 0.0
C313 C 0.99412 0.27019 0.95891 0.0
C314 C 0.9966 0.26223 1.00564 0.0
C315 C 0.03795 0.26478 1.00511 0.0
C316 C 0.05729 0.26983 0.98118 0.0
C317 C 0.03516 0.27221 0.95831 0.0
C318 C 0.97457 0.25627 0.03052 0.0
C319 C 0.10127 0.27306 0.9798 0.0
C320 C 0.07896 0.29013 0.07112 0.0
C321 C 0.08683 0.25282 0.08114 0.0
C322 C 0.0659 0.29484 0.04565 0.0
C323 C 0.06021 0.26146 0.0298 0.0
C324 C 0.07061 0.22406 0.03928 0.0
C325 C 0.08389 0.22023 0.0647 0.0
C326 C 0.05575 0.33534 0.03629 0.0
C327 C 0.06493 0.18758 1.02325 0.0
H328 H 0.94372 0.26325 0.98349 0.0
H329 H 0.04992 0.27626 0.94007 0.0
H330 H 0.98438 0.2289 0.03994 0.0
H331 H 0.98088 0.28082 0.0439 0.0
H332 H 0.94241 0.25445 0.02764 0.0
H333 H 0.11196 0.27695 0.95981 0.0
H334 H 0.11142 0.29829 0.99153 0.0
H335 H 0.11482 0.24638 0.98796 0.0
H336 H 0.08131 0.31559 0.0835 0.0
H337 H 0.09008 0.19124 0.07207 0.0
H338 H 0.02347 0.33829 0.03529 0.0
H339 H 0.06748 0.34019 1.01667 0.0
H340 H 0.06734 0.35859 0.04919 0.0
H341 H 0.03317 0.18132 1.0213 0.0
H342 H 0.07914 0.1616 0.03196 0.0
H343 H 0.07688 0.19188 1.00365 0.0
C344 C 0.76842 0.9934 0.58937 0.0
C345 C 0.79924 0.01745 0.59784 0.0
C346 C 0.7638 0.98444 0.56313 0.0
C347 C 0.78986 1.00092 0.54484 0.0
C348 C 0.81969 0.02695 0.55326 0.0
C349 C 0.82447 0.03427 0.57966 0.0
C350 C 0.73236 0.95568 0.55516 0.0
C351 C 0.84732 0.04626 0.53445 0.0
C352 C 0.81321 0.95113 0.48114 0.0
C353 C 0.78983 0.972 0.4639 0.0
C354 C 0.81188 0.95886 0.50766 0.0
C355 C 0.78769 0.98929 0.51714 0.0
C356 C 0.76342 1.00996 0.49982 0.0
C357 C 0.76432 1.00063 0.47347 0.0
C358 C 0.83727 0.93516 0.52546 0.0
C359 C 0.73811 0.04336 0.50888 0.0
H360 H 0.74919 0.97987 0.60339 0.0
H361 H 0.84829 0.05291 0.58613 0.0
H362 H 0.71419 0.96815 0.53961 0.0
H363 H 0.7462 0.92876 0.54746 0.0
H364 H 0.71295 0.94736 0.57141 0.0
H365 H 0.86607 0.06886 0.54373 0.0
H366 H 0.86654 0.02385 0.52564 0.0
H367 H 0.83061 0.06022 0.5187 0.0
H368 H 0.83293 0.92895 0.47382 0.0
H369 H 0.74662 0.01727 0.46016 0.0
H370 H 0.81971 0.92403 0.54186 0.0
H371 H 0.86082 0.95403 0.53344 0.0
H372 H 0.85103 0.90988 0.51554 0.0
H373 H 0.71933 0.03391 0.52513 0.0
H374 H 0.71912 0.05487 0.49337 0.0
H375 H 0.75701 0.06758 0.51599 0.0
C376 C 0.9999 0.76529 0.08138 0.0
C377 C 0.96762 0.78599 0.091 0.0
C378 C 1.00961 0.76635 0.05511 0.0
C379 C 0.98589 0.78776 0.03786 0.0
C380 C 0.95224 0.8072 0.04734 0.0
C381 C 0.94387 0.80657 0.0738 0.0
C382 C 0.04625 0.74603 0.04601 0.0
C383 C 0.92552 0.82948 0.0296 0.0
C384 C 0.02699 0.83015 0.97571 0.0
C385 C 0.01393 0.80298 0.95737 0.0
C386 C 0.01951 0.82462 1.00202 0.0
C387 C 0.99729 0.79173 1.01021 0.0
C388 C 0.98466 0.76377 0.9918 0.0
C389 C 0.99361 0.76945 0.96565 0.0
C390 C 0.03461 0.85455 1.02099 0.0
C391 C 0.96014 0.72882 0.99955 0.0
H392 H 0.01869 0.74967 0.09457 0.0
H393 H 0.91883 0.82251 0.08108 0.0
H394 H 0.03943 0.72591 0.02988 0.0
H395 H 0.06743 0.76814 0.03872 0.0
H396 H 0.06049 0.72902 0.06154 0.0
H397 H 0.89873 0.83993 0.03953 0.0
H398 H 0.94127 0.85524 1.02162 0.0
H399 H 0.9167 0.81068 1.01318 0.0
H400 H 0.04278 0.85606 0.96943 0.0
H401 H 0.98299 0.74859 0.95154 0.0
H402 H 0.05075 0.83981 0.03668 0.0
H403 H 1.00968 0.87028 0.02986 0.0
H404 H 0.05433 0.87646 1.01185 0.0
H405 H 0.97493 0.71209 1.01494 0.0
H406 H 0.95424 0.70878 0.98317 0.0
H407 H 0.93176 0.739 1.00744 0.0
C408 C 0.25656 0.08397 0.48294 0.0
C409 C 0.28971 0.06993 0.47001 0.0
C410 C 0.25101 0.07653 0.50938 0.0
C411 C 0.27937 0.05476 0.52314 0.0
C412 C 0.31437 0.04366 0.51054 0.0
C413 C 0.31898 0.05119 0.48422 0.0
C414 C 0.21345 0.08928 0.52202 0.0
C415 C 0.34571 0.02085 0.52432 0.0
C416 C 0.27913 0.03612 0.59568 0.0
C417 C 0.2645 0.99763 0.59662 0.0
C418 C 0.28222 0.05631 0.57206 0.0
C419 C 0.27018 0.03764 0.54898 0.0
C420 C 0.25309 0.99979 0.55025 0.0
C421 C 0.25062 0.98036 0.5739 0.0
C422 C 0.30033 0.09669 0.57166 0.0
C423 C 0.23939 0.97869 0.52635 0.0
H424 H 0.23374 0.0984 0.47211 0.0
H425 H 0.3449 0.04063 0.47444 0.0
H426 H 0.19358 0.06363 0.52397 0.0
H427 H 0.21909 0.10087 0.54158 0.0
H428 H 0.19822 0.11205 0.51062 0.0
H429 H 0.37313 0.0189 0.51291 0.0
H430 H 0.35255 0.03458 0.5431 0.0
H431 H 0.33497 0.99066 0.52813 0.0
H432 H 0.28991 0.04969 0.61313 0.0
H433 H 0.23872 0.95086 0.57446 0.0
H434 H 0.28358 0.11646 0.55891 0.0
H435 H 0.33053 0.09485 0.5639 0.0
H436 H 0.30176 0.10984 0.59116 0.0
H437 H 0.21965 0.99769 0.51504 0.0
H438 H 0.22368 0.95094 0.53083 0.0
H439 H 0.26496 0.97168 0.51404 0.0
C440 C 0.17328 0.27853 0.24346 0.0
C441 C 0.15574 0.25475 0.22464 0.0
C442 C 0.18833 0.26246 0.26625 0.0
C443 C 0.18536 0.22158 0.27065 0.0
C444 C 0.16876 0.19725 0.25138 0.0
C445 C 0.15444 0.21405 0.22858 0.0
C446 C 0.20625 0.28945 0.28603 0.0
C447 C 0.16463 0.15359 0.25529 0.0
C448 C 0.2469 0.17282 0.32272 0.0
C449 C 0.22013 0.16974 0.34314 0.0
C450 C 0.23629 0.19021 0.29924 0.0
C451 C 0.1978 0.20455 0.29586 0.0
C452 C 0.17087 0.20214 0.31654 0.0
C453 C 0.18239 0.18503 0.33989 0.0
C454 C 0.26609 0.19259 0.27787 0.0
C455 C 0.12946 0.21675 0.31378 0.0
H456 H 0.17451 0.30997 0.24062 0.0
H457 H 0.14066 0.1954 0.21433 0.0
H458 H 0.18781 0.28964 0.30357 0.0
H459 H 0.23561 0.27877 0.29166 0.0
H460 H 0.20916 0.32001 0.27893 0.0
H461 H 0.15249 0.13851 0.23812 0.0
H462 H 0.19347 0.14062 0.25988 0.0
H463 H 0.14499 0.14774 0.27185 0.0
H464 H 0.27612 0.16112 0.32495 0.0
H465 H 0.16131 0.18257 0.35538 0.0
H466 H 0.26919 0.22331 0.27121 0.0
H467 H 0.256 0.17491 0.26124 0.0
H468 H 0.29528 0.18181 0.2839 0.0
H469 H 0.12966 0.24816 0.30833 0.0
H470 H 0.11223 0.21331 0.33174 0.0
H471 H 0.11441 0.20042 0.29819 0.0
C472 C 0.93782 0.19832 0.81254 0.0
C473 C 0.92638 0.23774 0.81129 0.0
C474 C 0.9254 0.17093 0.79385 0.0
C475 C 0.90112 0.18324 0.77332 0.0
C476 C 0.89076 0.22329 0.77154 0.0
C477 C 0.90339 0.24987 0.79049 0.0
C478 C 0.93695 0.12853 0.79668 0.0
C479 C 0.86501 0.2379 0.75009 0.0
C480 C 0.89016 0.12266 0.71195 0.0
C481 C 0.8539 0.1038 0.71566 0.0
C482 C 0.90626 0.14766 0.73075 0.0
C483 C 0.88566 0.15444 0.75394 0.0
C484 C 0.8492 0.13528 0.75794 0.0
C485 C 0.83383 0.11022 0.73883 0.0
C486 C 0.94532 0.16707 0.72571 0.0
C487 C 0.8261 0.14171 0.78229 0.0
H488 H 0.95485 0.18842 0.8288 0.0
H489 H 0.89418 0.28018 0.78943 0.0
H490 H 0.91062 0.11053 0.80096 0.0
H491 H 0.9496 0.11741 0.77846 0.0
H492 H 0.95851 0.12419 0.81235 0.0
H493 H 0.86067 0.27011 0.75091 0.0
H494 H 0.87799 0.23031 0.73121 0.0
H495 H 0.83595 0.22332 0.75117 0.0
H496 H 0.90624 0.11776 0.6943 0.0
H497 H 0.80596 0.09573 0.74206 0.0
H498 H 0.96599 0.16024 0.74147 0.0
H499 H 0.9418 0.19936 0.7253 0.0
H500 H 0.9585 0.15754 0.70724 0.0
H501 H 0.84449 0.13541 0.7993 0.0
H502 H 0.79941 0.12303 0.78318 0.0
H503 H 0.8172 0.17287 0.78361 0.0
C504 C 0.79751 0.88454 0.31893 0.0
C505 C 0.82226 0.8877 0.34035 0.0
C506 C 0.80941 0.86455 0.29657 0.0
C507 C 0.8472 0.84773 0.29539 0.0
C508 C 0.87201 0.85022 0.31711 0.0
C509 C 0.85917 0.86987 0.33931 0.0
C510 C 0.78182 0.86208 0.27403 0.0
C511 C 0.91266 0.83308 0.31667 0.0
C512 C 0.87474 0.7688 0.24677 0.0
C513 C 0.89599 0.79033 0.22846 0.0
C514 C 0.85718 0.7873 0.26801 0.0
C515 C 0.86144 0.82832 0.27133 0.0
C516 C 0.88165 0.85041 0.25241 0.0
C517 C 0.89837 0.83123 0.23115 0.0
C518 C 0.83538 0.76268 0.28743 0.0
C519 C 0.88729 0.89412 0.25526 0.0
H520 H 0.76894 0.89817 0.31949 0.0
H521 H 0.8787 0.87232 0.3556 0.0
H522 H 0.79445 0.87814 0.25745 0.0
H523 H 0.77793 0.8311 0.26802 0.0
H524 H 0.75264 0.87459 0.27849 0.0
H525 H 0.92813 0.83694 0.33525 0.0
H526 H 0.91117 0.80134 0.31214 0.0
H527 H 0.93028 0.84731 0.30135 0.0
H528 H 0.87261 0.73722 0.24486 0.0
H529 H 0.91494 0.84817 0.21725 0.0
H530 H 0.8062 0.77546 0.29142 0.0
H531 H 0.85175 0.76243 0.3058 0.0
H532 H 0.83137 0.73193 0.28086 0.0
H533 H 0.85867 0.90865 0.25816 0.0
H534 H 0.90192 0.90737 0.23828 0.0
H535 H 0.90536 0.90035 0.27248 0.0
C536 C 0.24721 0.90903 0.76553 0.0
C537 C 0.23508 0.93194 0.74468 0.0
C538 C 0.22066 0.89634 0.78446 0.0
C539 C 0.18064 0.90659 0.78262 0.0
C540 C 0.16834 0.93087 0.76207 0.0
C541 C 0.19569 0.94333 0.7434 0.0
C542 C 0.23525 0.87056 0.80591 0.0
C543 C 0.12597 0.94231 0.75918 0.0
C544 C 0.10781 0.83873 0.81677 0.0
C545 C 0.10118 0.85866 0.83997 0.0
C546 C 0.13288 0.85432 0.79776 0.0
C547 C 0.15184 0.89088 0.8019 0.0
C548 C 0.14486 0.91135 0.82513 0.0
C549 C 0.11984 0.89501 0.84383 0.0
C550 C 0.13952 0.83137 0.77336 0.0
C551 C 0.16403 0.95053 0.83029 0.0
H552 H 0.27749 0.89986 0.76662 0.0
H553 H 0.18579 0.9603 0.7271 0.0
H554 H 0.22747 0.88346 0.82479 0.0
H555 H 0.22086 0.84139 0.80476 0.0
H556 H 0.26745 0.86641 0.80518 0.0
H557 H 0.12173 0.9643 0.74375 0.0
H558 H 0.10818 0.91597 0.75449 0.0
H559 H 0.11457 0.95443 0.77748 0.0
H560 H 0.09346 0.81079 0.81343 0.0
H561 H 0.11478 0.91098 0.86151 0.0
H562 H 0.17074 0.82284 0.77198 0.0
H563 H 0.13296 0.84979 0.7564 0.0
H564 H 0.12118 0.80443 0.77244 0.0
H565 H 0.19629 0.94715 0.83076 0.0
H566 H 0.15436 0.96358 0.84878 0.0
H567 H 0.15719 0.97127 0.81456 0.0
C568 C 1.00167 0.0965 0.15722 0.0
C569 C 0.02305 0.12211 0.17295 0.0
C570 C 1.00454 0.05579 0.16017 0.0
C571 C 0.02927 0.04038 0.17941 0.0
C572 C 0.04996 0.06607 0.19592 0.0
C573 C 0.04664 0.10666 0.19245 0.0
C574 C 0.98208 0.02927 0.14215 0.0
C575 C 0.07628 0.0507 0.21682 0.0
C576 C 1.01184 0.93375 0.19643 0.0
C577 C 0.04005 0.91498 0.18126 0.0
C578 C 1.00883 0.9747 0.19676 0.0
C579 C 0.03459 0.99735 0.18145 0.0
C580 C 0.06409 0.97866 0.16684 0.0
C581 C 0.06654 0.93765 0.16699 0.0
C582 C 0.97727 0.99361 0.21281 0.0
C583 C 0.09206 1.00187 0.15024 0.0
H584 H 0.98377 0.10824 0.14195 0.0
H585 H 0.06275 0.12639 0.20491 0.0
H586 H 1.00284 1.01165 0.13056 0.0
H587 H 0.96366 1.00845 0.15325 0.0
H588 H 0.96295 0.04591 0.12888 0.0
H589 H 0.08884 0.0746 0.22881 0.0
H590 H 0.05977 0.0303 0.22944 0.0
H591 H 0.10068 0.03389 0.20817 0.0
H592 H 0.99174 0.91631 0.20782 0.0
H593 H 0.08813 0.92327 0.15506 0.0
H594 H 0.95575 1.00809 0.20009 0.0
H595 H 0.9901 0.01663 0.22533 0.0
H596 H 0.96147 0.97204 0.22503 0.0
H597 H 0.07557 0.01682 0.13479 0.0
H598 H 0.11475 0.98309 0.14124 0.0
H599 H 0.10684 0.02492 0.16177 0.0
C600 C 0.10801 0.87851 0.68843 0.0
C601 C 0.12806 0.89534 0.66763 0.0
C602 C 0.06763 0.88448 0.69191 0.0
C603 C 0.0467 0.90753 0.67403 0.0
C604 C 0.0668 0.92425 0.65286 0.0
C605 C 0.10721 0.91813 0.65002 0.0
C606 C 0.04753 0.86665 0.71496 0.0
C607 C 0.04564 0.94883 0.63326 0.0
C608 C 0.93612 0.89583 0.66819 0.0
C609 C 0.92239 0.92903 0.6813 0.0
C610 C 0.97638 0.88819 0.66602 0.0
C611 C 1.00378 0.91424 0.67733 0.0
C612 C 0.99015 0.94742 0.691 0.0
C613 C 0.94969 0.95447 0.69273 0.0
C614 C 0.98963 0.85262 0.65116 0.0
C615 C 0.01834 0.97574 0.70355 0.0
H616 H 0.12413 0.86162 0.70242 0.0
H617 H 0.12267 0.93114 0.63396 0.0
H618 H 0.03537 0.89019 0.72727 0.0
H619 H 0.02265 0.84796 0.7087 0.0
H620 H 0.06771 0.84864 0.7267 0.0
H621 H 0.0654 0.9593 0.61774 0.0
H622 H 0.0215 0.93157 0.6245 0.0
H623 H 0.03231 0.97465 0.64276 0.0
H624 H 0.91539 0.87627 0.65899 0.0
H625 H 0.93938 0.97989 0.70317 0.0
H626 H 1.00854 0.83405 0.66337 0.0
H627 H 1.00742 0.86194 0.63438 0.0
H628 H 0.96466 0.83459 0.64417 0.0
H629 H 0.03793 0.95988 0.71689 0.0
H630 H 1.00306 0.99919 0.71439 0.0
H631 H 0.03715 0.98962 0.68872 0.0
C632 C 0.91418 0.11088 0.90663 0.0
C633 C 0.89133 0.13178 0.88909 0.0
C634 C 0.92057 0.07047 0.90362 0.0
C635 C 0.90406 0.05046 0.88234 0.0
C636 C 0.88096 0.07145 0.86452 0.0
C637 C 0.87474 0.1118 0.86817 0.0
C638 C 0.94521 0.04925 0.92314 0.0
C639 C 0.86334 0.05145 0.84137 0.0
C640 C 0.95144 0.95382 0.86307 0.0
C641 C 0.92612 0.92619 0.8743 0.0
C642 C 0.94423 0.99427 0.86508 0.0
C643 C 0.91104 1.00757 0.87884 0.0
C644 C 0.88513 0.97984 0.88996 0.0
C645 C 0.89292 0.93959 0.88751 0.0
C646 C 0.97241 0.02282 0.85273 0.0
C647 C 0.84953 0.99273 0.90489 0.0
H648 H 0.92703 0.12628 0.92277 0.0
H649 H 0.85783 0.12797 0.85421 0.0
H650 H 0.92812 0.02487 0.93178 0.0
H651 H 0.9711 0.03616 0.9136 0.0
H652 H 0.95551 0.06893 0.93876 0.0
H653 H 0.84517 0.07163 0.82974 0.0
H654 H 0.88697 0.03965 0.829 0.0
H655 H 0.84491 0.02627 0.8475 0.0
H656 H 0.97686 0.94376 0.85256 0.0
H657 H 0.87346 0.91861 0.89656 0.0
H658 H 0.98605 0.0416 0.86767 0.0
H659 H 0.9565 0.04246 0.83943 0.0
H660 H 0.99599 1.00778 0.84188 0.0
H661 H 0.85873 1.01042 0.92174 0.0
H662 H 0.83167 0.96754 0.91176 0.0
H663 H 0.83087 1.01167 0.89277 0.0
C664 C 0.94338 0.064 0.38487 0.0
C665 C 0.91953 0.03847 0.37064 0.0
C666 C 0.98426 0.06123 0.38382 0.0
C667 C 1.00171 0.03223 0.36813 0.0
C668 C 0.9779 1.00747 0.35287 0.0
C669 C 0.93708 1.01092 0.3543 0.0
C670 C 1.00872 0.08822 0.40036 0.0
C671 C 0.99547 0.97641 0.33576 0.0
C672 C 0.11055 0.04446 0.35596 0.0
C673 C 0.12647 0.02067 0.37522 0.0
C674 C 0.06993 0.04751 0.35276 0.0
C675 C 0.04467 0.0262 0.3692 0.0
C676 C 0.06053 1.00082 0.38792 0.0
C677 C 0.10124 0.99837 0.39069 0.0
C678 C 0.05408 0.07464 0.33246 0.0
C679 C 0.0345 0.97755 0.4058 0.0
H680 H 0.93011 0.08508 0.39772 0.0
H681 H 0.91882 0.9916 0.3429 0.0
H682 H 0.02412 0.07088 0.4152 0.0
H683 H 0.03139 0.10311 0.38858 0.0
H684 H 0.9908 0.11088 0.41013 0.0
H685 H 0.97312 0.96167 0.3236 0.0
H686 H 0.0182 0.98946 0.32313 0.0
H687 H 1.01001 0.95391 0.34772 0.0
H688 H 0.1299 0.06123 0.34364 0.0
H689 H 0.11319 0.98025 0.40577 0.0
H690 H 0.03861 0.0994 0.34176 0.0
H691 H 0.03245 0.05899 0.32027 0.0
H692 H 0.07756 0.08676 0.31995 0.0
H693 H 0.01785 0.99785 0.41834 0.0
H694 H 0.05139 0.95727 0.41817 0.0
H695 H 1.01286 0.9602 0.39465 0.0
loop_
_geom_bond_atom_site_label_1
_geom_bond_atom_site_label_2
_geom_bond_distance
_geom_bond_site_symmetry_2
_ccdc_geom_bond_type
Cu0 N1 1.999 . S
Cu0 O6 1.974 . S
Cu0 N11 1.985 . S
Cu0 O20 1.959 . S
N1 Cu0 1.999 . S
N1 C3 1.263 . S
N1 C5 1.389 . S
N2 C3 1.358 . S
N2 C4 1.400 . S
C3 N1 1.263 . S
C3 N2 1.358 . S
C3 H9 0.930 . S
C4 N2 1.400 . S
C4 C5 1.351 . S
C4 H21 0.930 1_455 S
C5 N1 1.389 . S
C5 C4 1.351 . S
C5 H10 0.930 1_455 S
O6 Cu0 1.974 . S
O6 C16 1.282 . S
C7 O8 1.261 . S
C7 O20 1.251 . S
O8 C7 1.261 . S
H9 C3 0.930 . S
H10 C5 0.930 1_655 S
N11 Cu0 1.985 . S
N11 C13 1.335 . S
N11 C14 1.390 . S
N12 C13 1.345 . S
N12 C15 1.336 . S
C13 N11 1.335 . S
C13 N12 1.345 . S
C13 H18 0.930 . S
C14 N11 1.390 . S
C14 C15 1.346 . S
C14 H19 0.930 . S
C15 N12 1.336 . S
C15 C14 1.346 . S
C15 H22 0.929 . S
C16 O6 1.282 . S
C16 O17 1.216 . S
O17 C16 1.216 . S
H18 C13 0.930 . S
H19 C14 0.930 . S
O20 Cu0 1.959 . S
O20 C7 1.251 . S
H21 C4 0.930 1_655 S
H22 C15 0.929 . S
Cu23 N24 1.999 . S
Cu23 O29 1.974 . S
Cu23 N34 1.985 . S
Cu23 O43 1.959 . S
N24 Cu23 1.999 . S
N24 C26 1.263 . S
N24 C28 1.389 . S
N25 C26 1.358 . S
N25 C27 1.400 . S
C26 N24 1.263 . S
C26 N25 1.358 . S
C26 H32 0.930 . S
C27 N25 1.400 . S
C27 C28 1.351 . S
C27 H44 0.930 1_545 S
C28 N24 1.389 . S
C28 C27 1.351 . S
C28 H33 0.930 1_545 S
O29 Cu23 1.974 . S
O29 C39 1.282 . S
C30 O31 1.261 . S
C30 O43 1.251 . S
O31 C30 1.261 . S
H32 C26 0.930 . S
H33 C28 0.930 1_565 S
N34 Cu23 1.985 . S
N34 C36 1.335 . S
N34 C37 1.390 . S
N35 C36 1.345 . S
N35 C38 1.336 . S
C36 N34 1.335 . S
C36 N35 1.345 . S
C36 H41 0.930 . S
C37 N34 1.390 . S
C37 C38 1.346 . S
C37 H42 0.930 . S
C38 N35 1.336 . S
C38 C37 1.346 . S
C38 H45 0.929 . S
C39 O29 1.282 . S
C39 O40 1.216 . S
O40 C39 1.216 . S
H41 C36 0.930 . S
H42 C37 0.930 . S
O43 Cu23 1.959 . S
O43 C30 1.251 . S
H44 C27 0.930 1_565 S
H45 C38 0.929 . S
Cu46 N47 1.999 . S
Cu46 O52 1.974 . S
Cu46 N57 1.985 . S
Cu46 O66 1.959 . S
N47 Cu46 1.999 . S
N47 C49 1.263 . S
N47 C51 1.389 . S
N48 C49 1.358 . S
N48 C50 1.400 . S
C49 N47 1.263 . S
C49 N48 1.358 . S
C49 H55 0.930 . S
C50 N48 1.400 . S
C50 C51 1.351 . S
C50 H67 0.930 1_655 S
C51 N47 1.389 . S
C51 C50 1.351 . S
C51 H56 0.930 1_655 S
O52 Cu46 1.974 . S
O52 C62 1.282 . S
C53 O54 1.261 . S
C53 O66 1.251 . S
O54 C53 1.261 . S
H55 C49 0.930 . S
H56 C51 0.930 1_455 S
N57 Cu46 1.985 . S
N57 C59 1.335 . S
N57 C60 1.390 . S
N58 C59 1.345 . S
N58 C61 1.336 . S
C59 N57 1.335 . S
C59 N58 1.345 . S
C59 H64 0.930 . S
C60 N57 1.390 . S
C60 C61 1.346 . S
C60 H65 0.930 . S
C61 N58 1.336 . S
C61 C60 1.346 . S
C61 H68 0.929 . S
C62 O52 1.282 . S
C62 O63 1.216 . S
O63 C62 1.216 . S
H64 C59 0.930 . S
H65 C60 0.930 . S
O66 Cu46 1.959 . S
O66 C53 1.251 . S
H67 C50 0.930 1_455 S
H68 C61 0.929 . S
Cu69 N70 1.999 . S
Cu69 O75 1.974 . S
Cu69 N80 1.985 . S
Cu69 O89 1.959 . S
N70 Cu69 1.999 . S
N70 C72 1.263 . S
N70 C74 1.389 . S
N71 C72 1.358 . S
N71 C73 1.400 . S
C72 N70 1.263 . S
C72 N71 1.358 . S
C72 H78 0.930 . S
C73 N71 1.400 . S
C73 C74 1.351 . S
C73 H90 0.930 1_565 S
C74 N70 1.389 . S
C74 C73 1.351 . S
C74 H79 0.930 1_565 S
O75 Cu69 1.974 . S
O75 C85 1.282 . S
C76 O77 1.261 . S
C76 O89 1.251 . S
O77 C76 1.261 . S
H78 C72 0.930 . S
H79 C74 0.930 1_545 S
N80 Cu69 1.985 . S
N80 C82 1.335 . S
N80 C83 1.390 . S
N81 C82 1.345 . S
N81 C84 1.336 . S
C82 N80 1.335 . S
C82 N81 1.345 . S
C82 H87 0.930 . S
C83 N80 1.390 . S
C83 C84 1.346 . S
C83 H88 0.930 . S
C84 N81 1.336 . S
C84 C83 1.346 . S
C84 H91 0.929 . S
C85 O75 1.282 . S
C85 O86 1.216 . S
O86 C85 1.216 . S
H87 C82 0.930 . S
H88 C83 0.930 . S
O89 Cu69 1.959 . S
O89 C76 1.251 . S
H90 C73 0.930 1_545 S
H91 C84 0.929 . S
Cu92 N93 1.999 . S
Cu92 O98 1.974 . S
Cu92 N103 1.985 . S
Cu92 O112 1.959 . S
N93 Cu92 1.999 . S
N93 C95 1.263 . S
N93 C97 1.389 . S
N94 C95 1.358 . S
N94 C96 1.400 . S
C95 N93 1.263 . S
C95 N94 1.358 . S
C95 H101 0.930 . S
C96 N94 1.400 . S
C96 C97 1.351 . S
C96 H113 0.930 1_455 S
C97 N93 1.389 . S
C97 C96 1.351 . S
C97 H102 0.930 1_455 S
O98 Cu92 1.974 . S
O98 C108 1.282 . S
C99 O100 1.261 . S
C99 O112 1.251 . S
O100 C99 1.261 . S
H101 C95 0.930 . S
H102 C97 0.930 1_655 S
N103 Cu92 1.985 . S
N103 C105 1.335 . S
N103 C106 1.390 . S
N104 C105 1.345 . S
N104 C107 1.336 . S
C105 N103 1.335 . S
C105 N104 1.345 . S
C105 H110 0.930 . S
C106 N103 1.390 . S
C106 C107 1.346 . S
C106 H111 0.930 . S
C107 N104 1.336 . S
C107 C106 1.346 . S
C107 H114 0.929 . S
C108 O98 1.282 . S
C108 O109 1.216 . S
O109 C108 1.216 . S
H110 C105 0.930 . S
H111 C106 0.930 . S
O112 Cu92 1.959 . S
O112 C99 1.251 . S
H113 C96 0.930 1_655 S
H114 C107 0.929 . S
Cu115 N116 1.999 . S
Cu115 O121 1.974 . S
Cu115 N126 1.985 . S
Cu115 O135 1.959 . S
N116 Cu115 1.999 . S
N116 C118 1.263 . S
N116 C120 1.389 . S
N117 C118 1.358 . S
N117 C119 1.400 . S
C118 N116 1.263 . S
C118 N117 1.358 . S
C118 H124 0.930 . S
C119 N117 1.400 . S
C119 C120 1.351 . S
C119 H136 0.930 1_545 S
C120 N116 1.389 . S
C120 C119 1.351 . S
C120 H125 0.930 1_545 S
O121 Cu115 1.974 . S
O121 C131 1.282 . S
C122 O123 1.261 . S
C122 O135 1.251 . S
O123 C122 1.261 . S
H124 C118 0.930 . S
H125 C120 0.930 1_565 S
N126 Cu115 1.985 . S
N126 C128 1.335 . S
N126 C129 1.390 . S
N127 C128 1.345 . S
N127 C130 1.336 . S
C128 N126 1.335 . S
C128 N127 1.345 . S
C128 H133 0.930 . S
C129 N126 1.390 . S
C129 C130 1.346 . S
C129 H134 0.930 . S
C130 N127 1.336 . S
C130 C129 1.346 . S
C130 H137 0.929 . S
C131 O121 1.282 . S
C131 O132 1.216 . S
O132 C131 1.216 . S
H133 C128 0.930 . S
H134 C129 0.930 . S
O135 Cu115 1.959 . S
O135 C122 1.251 . S
H136 C119 0.930 1_565 S
H137 C130 0.929 . S
Cu138 N139 1.999 . S
Cu138 O144 1.974 . S
Cu138 N149 1.985 . S
Cu138 O158 1.959 . S
N139 Cu138 1.999 . S
N139 C141 1.263 . S
N139 C143 1.389 . S
N140 C141 1.358 . S
N140 C142 1.400 . S
C141 N139 1.263 . S
C141 N140 1.358 . S
C141 H147 0.930 . S
C142 N140 1.400 . S
C142 C143 1.351 . S
C142 H159 0.930 1_655 S
C143 N139 1.389 . S
C143 C142 1.351 . S
C143 H148 0.930 1_655 S
O144 Cu138 1.974 . S
O144 C154 1.282 . S
C145 O146 1.261 . S
C145 O158 1.251 . S
O146 C145 1.261 . S
H147 C141 0.930 . S
H148 C143 0.930 1_455 S
N149 Cu138 1.985 . S
N149 C151 1.335 . S
N149 C152 1.390 . S
N150 C151 1.345 . S
N150 C153 1.336 . S
C151 N149 1.335 . S
C151 N150 1.345 . S
C151 H156 0.930 . S
C152 N149 1.390 . S
C152 C153 1.346 . S
C152 H157 0.930 . S
C153 N150 1.336 . S
C153 C152 1.346 . S
C153 H160 0.929 . S
C154 O144 1.282 . S
C154 O155 1.216 . S
O155 C154 1.216 . S
H156 C151 0.930 . S
H157 C152 0.930 . S
O158 Cu138 1.959 . S
O158 C145 1.251 . S
H159 C142 0.930 1_455 S
H160 C153 0.929 . S
Cu161 N162 1.999 . S
Cu161 O167 1.974 . S
Cu161 N172 1.985 . S
Cu161 O181 1.959 . S
N162 Cu161 1.999 . S
N162 C164 1.263 . S
N162 C166 1.389 . S
N163 C164 1.358 . S
N163 C165 1.400 . S
C164 N162 1.263 . S
C164 N163 1.358 . S
C164 H170 0.930 . S
C165 N163 1.400 . S
C165 C166 1.351 . S
C165 H182 0.930 1_565 S
C166 N162 1.389 . S
C166 C165 1.351 . S
C166 H171 0.930 1_565 S
O167 Cu161 1.974 . S
O167 C177 1.282 . S
C168 O169 1.261 . S
C168 O181 1.251 . S
O169 C168 1.261 . S
H170 C164 0.930 . S
H171 C166 0.930 1_545 S
N172 Cu161 1.985 . S
N172 C174 1.335 . S
N172 C175 1.390 . S
N173 C174 1.345 . S
N173 C176 1.336 . S
C174 N172 1.335 . S
C174 N173 1.345 . S
C174 H179 0.930 . S
C175 N172 1.390 . S
C175 C176 1.346 . S
C175 H180 0.930 . S
C176 N173 1.336 . S
C176 C175 1.346 . S
C176 H183 0.929 . S
C177 O167 1.282 . S
C177 O178 1.216 . S
O178 C177 1.216 . S
H179 C174 0.930 . S
H180 C175 0.930 . S
O181 Cu161 1.959 . S
O181 C168 1.251 . S
H182 C165 0.930 1_545 S
H183 C176 0.929 . S
C184 C185 1.391 . S
C184 C186 1.394 1_455 S
C184 H200 0.931 1_455 S
C185 C184 1.391 . S
C185 C189 1.376 . S
C186 C184 1.394 1_655 S
C186 C187 1.369 1_655 S
C186 C190 1.531 . S
C187 C186 1.369 1_455 S
C187 C188 1.410 . S
C187 C195 1.503 1_455 S
C188 C187 1.410 . S
C188 C189 1.392 . S
C188 C191 1.511 . S
C189 C185 1.376 . S
C189 C188 1.392 . S
C189 H201 0.929 . S
C190 C186 1.531 . S
C190 H202 0.960 . S
C190 H203 0.962 . S
C190 H204 0.960 . S
C191 C188 1.511 . S
C191 H205 0.961 . S
C191 H206 0.961 . S
C191 H207 0.961 . S
C192 C193 1.370 . S
C192 C194 1.363 . S
C192 H208 0.931 . S
C193 C192 1.370 . S
C193 C197 1.408 . S
C194 C192 1.363 . S
C194 C195 1.370 . S
C194 C198 1.524 1_655 S
C195 C187 1.503 1_655 S
C195 C194 1.370 . S
C195 C196 1.403 . S
C196 C195 1.403 . S
C196 C197 1.404 . S
C196 C199 1.539 . S
C197 C193 1.408 . S
C197 C196 1.404 . S
C197 H209 0.930 . S
C198 C194 1.524 1_455 S
C198 H210 0.956 1_455 S
C198 H211 0.961 . S
C198 H212 0.961 . S
C199 C196 1.539 . S
C199 H213 0.958 . S
C199 H214 0.961 . S
C199 H215 0.960 . S
H200 C184 0.931 1_655 S
H201 C189 0.929 . S
H202 C190 0.960 . S
H203 C190 0.962 . S
H204 C190 0.960 . S
H205 C191 0.961 . S
H206 C191 0.961 . S
H207 C191 0.961 . S
H208 C192 0.931 . S
H209 C197 0.930 . S
H210 C198 0.956 1_655 S
H211 C198 0.961 . S
H212 C198 0.961 . S
H213 C199 0.958 . S
H214 C199 0.961 . S
H215 C199 0.960 . S
C216 C217 1.391 . S
C216 C218 1.394 1_565 S
C216 H232 0.931 1_565 S
C217 C216 1.391 . S
C217 C221 1.376 . S
C218 C216 1.394 1_545 S
C218 C219 1.369 1_545 S
C218 C222 1.531 . S
C219 C218 1.369 1_565 S
C219 C220 1.410 . S
C219 C227 1.503 1_565 S
C220 C219 1.410 . S
C220 C221 1.392 . S
C220 C223 1.511 . S
C221 C217 1.376 . S
C221 C220 1.392 . S
C221 H233 0.929 . S
C222 C218 1.531 . S
C222 H234 0.960 . S
C222 H235 0.962 . S
C222 H236 0.960 . S
C223 C220 1.511 . S
C223 H237 0.961 . S
C223 H238 0.961 . S
C223 H239 0.961 . S
C224 C225 1.370 . S
C224 C226 1.363 . S
C224 H240 0.931 . S
C225 C224 1.370 . S
C225 C229 1.408 . S
C226 C224 1.363 . S
C226 C227 1.370 . S
C226 C230 1.524 . S
C227 C219 1.503 1_545 S
C227 C226 1.370 . S
C227 C228 1.403 . S
C228 C227 1.403 . S
C228 C229 1.404 . S
C228 C231 1.539 . S
C229 C225 1.408 . S
C229 C228 1.404 . S
C229 H241 0.930 . S
C230 C226 1.524 . S
C230 H242 0.956 . S
C230 H243 0.960 1_545 S
C230 H244 0.961 . S
C231 C228 1.539 . S
C231 H245 0.958 . S
C231 H246 0.961 . S
C231 H247 0.960 1_545 S
H232 C216 0.931 1_545 S
H233 C221 0.929 . S
H234 C222 0.960 . S
H235 C222 0.962 . S
H236 C222 0.960 . S
H237 C223 0.961 . S
H238 C223 0.961 . S
H239 C223 0.961 . S
H240 C224 0.931 . S
H241 C229 0.930 . S
H242 C230 0.956 . S
H243 C230 0.960 1_565 S
H244 C230 0.961 . S
H245 C231 0.958 . S
H246 C231 0.961 . S
H247 C231 0.960 1_565 S
C248 C249 1.391 . S
C248 C250 1.394 . S
C248 H264 0.931 . S
C249 C248 1.391 . S
C249 C253 1.376 . S
C250 C248 1.394 . S
C250 C251 1.369 . S
C250 C254 1.531 . S
C251 C250 1.369 . S
C251 C252 1.410 1_655 S
C251 C259 1.503 1_655 S
C252 C251 1.410 1_455 S
C252 C253 1.392 1_455 S
C252 C255 1.511 . S
C253 C249 1.376 . S
C253 C252 1.392 1_655 S
C253 H265 0.929 1_655 S
C254 C250 1.531 . S
C254 H266 0.960 . S
C254 H267 0.962 . S
C254 H268 0.960 . S
C255 C252 1.511 . S
C255 H269 0.961 . S
C255 H270 0.961 . S
C255 H271 0.961 . S
C256 C257 1.370 . S
C256 C258 1.371 . S
C256 H272 0.931 . S
C257 C256 1.370 . S
C257 C261 1.408 . S
C258 C256 1.371 . S
C258 C259 1.376 . S
C258 C262 1.511 1_455 S
C259 C251 1.503 1_455 S
C259 C258 1.376 . S
C259 C260 1.403 . S
C260 C259 1.403 . S
C260 C261 1.404 . S
C260 C263 1.539 . S
C261 C257 1.408 . S
C261 C260 1.404 . S
C261 H273 0.930 . S
C262 C258 1.511 1_655 S
C262 H274 0.956 . S
C262 H275 0.961 . S
C262 H276 0.961 . S
C263 C260 1.539 . S
C263 H277 0.958 . S
C263 H278 0.961 . S
C263 H279 0.960 . S
H264 C248 0.931 . S
H265 C253 0.929 1_455 S
H266 C254 0.960 . S
H267 C254 0.962 . S
H268 C254 0.960 . S
H269 C255 0.961 . S
H270 C255 0.961 . S
H271 C255 0.961 . S
H272 C256 0.931 . S
H273 C261 0.930 . S
H274 C262 0.956 . S
H275 C262 0.961 . S
H276 C262 0.961 . S
H277 C263 0.958 . S
H278 C263 0.961 . S
H279 C263 0.960 . S
C280 C281 1.391 . S
C280 C282 1.394 . S
C280 H296 0.931 . S
C281 C280 1.391 . S
C281 C285 1.376 . S
C282 C280 1.394 . S
C282 C283 1.369 . S
C282 C286 1.531 . S
C283 C282 1.369 . S
C283 C284 1.410 . S
C283 C291 1.503 1_545 S
C284 C283 1.410 . S
C284 C285 1.392 . S
C284 C287 1.511 . S
C285 C281 1.376 . S
C285 C284 1.392 . S
C285 H297 0.929 . S
C286 C282 1.531 . S
C286 H298 0.960 . S
C286 H299 0.962 1_545 S
C286 H300 0.960 . S
C287 C284 1.511 . S
C287 H301 0.961 . S
C287 H302 0.961 . S
C287 H303 0.961 . S
C288 C289 1.370 . S
C288 C290 1.363 . S
C288 H304 0.931 . S
C289 C288 1.370 . S
C289 C293 1.435 . S
C290 C288 1.363 . S
C290 C291 1.370 . S
C290 C294 1.524 . S
C291 C283 1.503 1_565 S
C291 C290 1.370 . S
C291 C292 1.403 1_565 S
C292 C291 1.403 1_545 S
C292 C293 1.392 1_545 S
C292 C295 1.539 . S
C293 C289 1.435 . S
C293 C292 1.392 1_565 S
C293 H305 0.917 1_565 S
C294 C290 1.524 . S
C294 H306 0.956 . S
C294 H307 0.961 . S
C294 H308 0.961 . S
C295 C292 1.539 . S
C295 H309 0.958 . S
C295 H310 0.961 . S
C295 H311 0.960 . S
H296 C280 0.931 . S
H297 C285 0.929 . S
H298 C286 0.960 . S
H299 C286 0.962 1_565 S
H300 C286 0.960 . S
H301 C287 0.961 . S
H302 C287 0.961 . S
H303 C287 0.961 . S
H304 C288 0.931 . S
H305 C293 0.917 1_545 S
H306 C294 0.956 . S
H307 C294 0.961 . S
H308 C294 0.961 . S
H309 C295 0.958 . S
H310 C295 0.961 . S
H311 C295 0.960 . S
C312 C313 1.391 . S
C312 C314 1.394 . S
C312 H328 0.931 . S
C313 C312 1.391 . S
C313 C317 1.376 1_655 S
C314 C312 1.394 . S
C314 C315 1.369 . S
C314 C318 1.531 . S
C315 C314 1.369 . S
C315 C316 1.410 1_655 S
C315 C323 1.503 1_656 S
C316 C315 1.410 1_455 S
C316 C317 1.392 . S
C316 C319 1.511 . S
C317 C313 1.376 1_455 S
C317 C316 1.392 . S
C317 H329 0.929 . S
C318 C314 1.531 . S
C318 H330 0.960 1_556 S
C318 H331 0.962 1_556 S
C318 H332 0.960 . S
C319 C316 1.511 . S
C319 H333 0.961 . S
C319 H334 0.961 . S
C319 H335 0.961 . S
C320 C321 1.370 . S
C320 C322 1.363 1_455 S
C320 H336 0.931 1_455 S
C321 C320 1.370 . S
C321 C325 1.408 . S
C322 C320 1.363 1_655 S
C322 C323 1.370 1_655 S
C322 C326 1.524 . S
C323 C315 1.503 1_454 S
C323 C322 1.370 1_455 S
C323 C324 1.403 . S
C324 C323 1.403 . S
C324 C325 1.404 . S
C324 C327 1.539 . S
C325 C321 1.408 . S
C325 C324 1.404 . S
C325 H337 0.930 . S
C326 C322 1.524 . S
C326 H338 0.956 . S
C326 H339 0.961 . S
C326 H340 0.961 . S
C327 C324 1.539 . S
C327 H341 0.958 . S
C327 H342 0.961 . S
C327 H343 0.960 1_554 S
H328 C312 0.931 . S
H329 C317 0.929 . S
H330 C318 0.960 1_554 S
H331 C318 0.962 1_554 S
H332 C318 0.960 . S
H333 C319 0.961 . S
H334 C319 0.961 . S
H335 C319 0.961 . S
H336 C320 0.931 1_655 S
H337 C325 0.930 . S
H338 C326 0.956 . S
H339 C326 0.961 . S
H340 C326 0.961 . S
H341 C327 0.958 . S
H342 C327 0.961 . S
H343 C327 0.960 1_556 S
C344 C345 1.391 . S
C344 C346 1.394 . S
C344 H360 0.931 . S
C345 C344 1.391 . S
C345 C349 1.376 . S
C346 C344 1.394 . S
C346 C347 1.369 . S
C346 C350 1.531 . S
C347 C346 1.369 . S
C347 C348 1.410 . S
C347 C355 1.498 1_545 S
C348 C347 1.410 . S
C348 C349 1.392 . S
C348 C351 1.511 . S
C349 C345 1.376 . S
C349 C348 1.392 . S
C349 H361 0.929 . S
C350 C346 1.531 . S
C350 H362 0.960 . S
C350 H363 0.962 1_545 S
C350 H364 0.960 . S
C351 C348 1.511 . S
C351 H365 0.961 . S
C351 H366 0.961 . S
C351 H367 0.961 . S
C352 C353 1.370 . S
C352 C354 1.363 . S
C352 H368 0.931 . S
C353 C352 1.370 . S
C353 C357 1.408 1_565 S
C354 C352 1.363 . S
C354 C355 1.386 . S
C354 C358 1.524 . S
C355 C347 1.498 1_565 S
C355 C354 1.386 . S
C355 C356 1.393 1_565 S
C356 C355 1.393 1_545 S
C356 C357 1.404 . S
C356 C359 1.539 . S
C357 C353 1.408 1_545 S
C357 C356 1.404 . S
C357 H369 0.930 . S
C358 C354 1.524 . S
C358 H370 0.956 . S
C358 H371 0.961 . S
C358 H372 0.961 . S
C359 C356 1.539 . S
C359 H373 0.958 . S
C359 H374 0.961 . S
C359 H375 0.960 . S
H360 C344 0.931 . S
H361 C349 0.929 . S
H362 C350 0.960 . S
H363 C350 0.962 1_565 S
H364 C350 0.960 . S
H365 C351 0.961 . S
H366 C351 0.961 . S
H367 C351 0.961 . S
H368 C352 0.931 . S
H369 C357 0.930 . S
H370 C358 0.956 . S
H371 C358 0.961 . S
H372 C358 0.961 . S
H373 C359 0.958 . S
H374 C359 0.961 . S
H375 C359 0.960 . S
C376 C377 1.391 . S
C376 C378 1.394 1_655 S
C376 H392 0.931 1_655 S
C377 C376 1.391 . S
C377 C381 1.376 . S
C378 C376 1.394 1_455 S
C378 C379 1.369 1_455 S
C378 C382 1.531 . S
C379 C378 1.369 1_655 S
C379 C380 1.410 . S
C379 C387 1.503 1_654 S
C380 C379 1.410 . S
C380 C381 1.392 . S
C380 C383 1.500 1_554 S
C381 C377 1.376 . S
C381 C380 1.392 . S
C381 H393 0.929 . S
C382 C378 1.531 . S
C382 H394 0.960 . S
C382 H395 0.962 . S
C382 H396 0.960 . S
C383 C380 1.500 1_556 S
C383 H397 0.954 1_556 S
C383 H398 0.974 . S
C383 H399 0.967 . S
C384 C385 1.370 . S
C384 C386 1.363 . S
C384 H400 0.931 . S
C385 C384 1.370 . S
C385 C389 1.408 . S
C386 C384 1.363 . S
C386 C387 1.370 . S
C386 C390 1.524 . S
C387 C379 1.503 1_456 S
C387 C386 1.370 . S
C387 C388 1.403 1_455 S
C388 C387 1.403 1_655 S
C388 C389 1.404 1_655 S
C388 C391 1.539 . S
C389 C385 1.408 . S
C389 C388 1.404 1_455 S
C389 H401 0.930 1_455 S
C390 C386 1.524 . S
C390 H402 0.956 1_556 S
C390 H403 0.961 1_556 S
C390 H404 0.961 . S
C391 C388 1.539 . S
C391 H405 0.958 . S
C391 H406 0.961 . S
C391 H407 0.960 . S
H392 C376 0.931 1_455 S
H393 C381 0.929 . S
H394 C382 0.960 . S
H395 C382 0.962 . S
H396 C382 0.960 . S
H397 C383 0.954 1_554 S
H398 C383 0.974 . S
H399 C383 0.967 . S
H400 C384 0.931 . S
H401 C389 0.930 1_655 S
H402 C390 0.956 1_554 S
H403 C390 0.961 1_554 S
H404 C390 0.961 . S
H405 C391 0.958 . S
H406 C391 0.961 . S
H407 C391 0.960 . S
C408 C409 1.391 . S
C408 C410 1.392 1_545 S
C408 H424 0.931 . S
C409 C408 1.391 . S
C409 C413 1.376 . S
C410 C408 1.392 1_565 S
C410 C411 1.369 . S
C410 C414 1.532 . S
C411 C410 1.369 . S
C411 C412 1.410 1_565 S
C411 C419 1.503 . S
C412 C411 1.410 1_545 S
C412 C413 1.392 . S
C412 C415 1.511 . S
C413 C409 1.376 . S
C413 C412 1.392 . S
C413 H425 0.929 . S
C414 C410 1.532 . S
C414 H426 0.960 . S
C414 H427 0.962 1_565 S
C414 H428 0.960 . S
C415 C412 1.511 . S
C415 H429 0.961 . S
C415 H430 0.961 . S
C415 H431 0.961 1_545 S
C416 C417 1.370 1_545 S
C416 C418 1.363 . S
C416 H432 0.931 . S
C417 C416 1.370 1_565 S
C417 C421 1.408 . S
C418 C416 1.363 . S
C418 C419 1.370 1_545 S
C418 C422 1.524 . S
C419 C411 1.503 . S
C419 C418 1.370 1_565 S
C419 C420 1.403 . S
C420 C419 1.403 . S
C420 C421 1.404 . S
C420 C423 1.539 . S
C421 C417 1.408 . S
C421 C420 1.404 . S
C421 H433 0.930 . S
C422 C418 1.524 . S
C422 H434 0.956 . S
C422 H435 0.961 . S
C422 H436 0.961 . S
C423 C420 1.539 . S
C423 H437 0.958 . S
C423 H438 0.961 . S
C423 H439 0.960 . S
H424 C408 0.931 . S
H425 C413 0.929 . S
H426 C414 0.960 . S
H427 C414 0.962 1_545 S
H428 C414 0.960 . S
H429 C415 0.961 . S
H430 C415 0.961 . S
H431 C415 0.961 1_565 S
H432 C416 0.931 . S
H433 C421 0.930 . S
H434 C422 0.956 . S
H435 C422 0.961 . S
H436 C422 0.961 . S
H437 C423 0.958 . S
H438 C423 0.961 . S
H439 C423 0.960 . S
C440 C441 1.391 . S
C440 C442 1.394 . S
C440 H456 0.931 . S
C441 C440 1.391 . S
C441 C445 1.376 . S
C442 C440 1.394 . S
C442 C443 1.369 . S
C442 C446 1.531 . S
C443 C442 1.369 . S
C443 C444 1.410 . S
C443 C451 1.503 . S
C444 C443 1.410 . S
C444 C445 1.392 . S
C444 C447 1.511 . S
C445 C441 1.376 . S
C445 C444 1.392 . S
C445 H457 0.929 . S
C446 C442 1.531 . S
C446 H458 0.960 . S
C446 H459 0.962 . S
C446 H460 0.960 . S
C447 C444 1.511 . S
C447 H461 0.961 . S
C447 H462 0.961 . S
C447 H463 0.961 . S
C448 C449 1.370 . S
C448 C450 1.363 . S
C448 H464 0.931 . S
C449 C448 1.370 . S
C449 C453 1.408 . S
C450 C448 1.363 . S
C450 C451 1.370 . S
C450 C454 1.524 . S
C451 C443 1.503 . S
C451 C450 1.370 . S
C451 C452 1.403 . S
C452 C451 1.403 . S
C452 C453 1.404 . S
C452 C455 1.539 . S
C453 C449 1.408 . S
C453 C452 1.404 . S
C453 H465 0.930 . S
C454 C450 1.524 . S
C454 H466 0.956 . S
C454 H467 0.961 . S
C454 H468 0.961 . S
C455 C452 1.539 . S
C455 H469 0.958 . S
C455 H470 0.961 . S
C455 H471 0.960 . S
H456 C440 0.931 . S
H457 C445 0.929 . S
H458 C446 0.960 . S
H459 C446 0.962 . S
H460 C446 0.960 . S
H461 C447 0.961 . S
H462 C447 0.961 . S
H463 C447 0.961 . S
H464 C448 0.931 . S
H465 C453 0.930 . S
H466 C454 0.956 . S
H467 C454 0.961 . S
H468 C454 0.961 . S
H469 C455 0.958 . S
H470 C455 0.961 . S
H471 C455 0.960 . S
C472 C473 1.391 . S
C472 C474 1.394 . S
C472 H488 0.931 . S
C473 C472 1.391 . S
C473 C477 1.376 . S
C474 C472 1.394 . S
C474 C475 1.369 . S
C474 C478 1.531 . S
C475 C474 1.369 . S
C475 C476 1.410 . S
C475 C483 1.503 . S
C476 C475 1.410 . S
C476 C477 1.392 . S
C476 C479 1.511 . S
C477 C473 1.376 . S
C477 C476 1.392 . S
C477 H489 0.929 . S
C478 C474 1.531 . S
C478 H490 0.960 . S
C478 H491 0.962 . S
C478 H492 0.960 . S
C479 C476 1.511 . S
C479 H493 0.961 . S
C479 H494 0.961 . S
C479 H495 0.961 . S
C480 C481 1.370 . S
C480 C482 1.363 . S
C480 H496 0.931 . S
C481 C480 1.370 . S
C481 C485 1.408 . S
C482 C480 1.363 . S
C482 C483 1.370 . S
C482 C486 1.524 . S
C483 C475 1.503 . S
C483 C482 1.370 . S
C483 C484 1.403 . S
C484 C483 1.403 . S
C484 C485 1.404 . S
C484 C487 1.539 . S
C485 C481 1.408 . S
C485 C484 1.404 . S
C485 H497 0.930 . S
C486 C482 1.524 . S
C486 H498 0.956 . S
C486 H499 0.961 . S
C486 H500 0.961 . S
C487 C484 1.539 . S
C487 H501 0.958 . S
C487 H502 0.961 . S
C487 H503 0.960 . S
H488 C472 0.931 . S
H489 C477 0.929 . S
H490 C478 0.960 . S
H491 C478 0.962 . S
H492 C478 0.960 . S
H493 C479 0.961 . S
H494 C479 0.961 . S
H495 C479 0.961 . S
H496 C480 0.931 . S
H497 C485 0.930 . S
H498 C486 0.956 . S
H499 C486 0.961 . S
H500 C486 0.961 . S
H501 C487 0.958 . S
H502 C487 0.961 . S
H503 C487 0.960 . S
C504 C505 1.391 . S
C504 C506 1.394 . S
C504 H520 0.931 . S
C505 C504 1.391 . S
C505 C509 1.376 . S
C506 C504 1.394 . S
C506 C507 1.369 . S
C506 C510 1.531 . S
C507 C506 1.369 . S
C507 C508 1.410 . S
C507 C515 1.503 . S
C508 C507 1.410 . S
C508 C509 1.392 . S
C508 C511 1.511 . S
C509 C505 1.376 . S
C509 C508 1.392 . S
C509 H521 0.929 . S
C510 C506 1.531 . S
C510 H522 0.960 . S
C510 H523 0.962 . S
C510 H524 0.960 . S
C511 C508 1.511 . S
C511 H525 0.961 . S
C511 H526 0.961 . S
C511 H527 0.961 . S
C512 C513 1.370 . S
C512 C514 1.363 . S
C512 H528 0.931 . S
C513 C512 1.370 . S
C513 C517 1.408 . S
C514 C512 1.363 . S
C514 C515 1.370 . S
C514 C518 1.524 . S
C515 C507 1.503 . S
C515 C514 1.370 . S
C515 C516 1.403 . S
C516 C515 1.403 . S
C516 C517 1.404 . S
C516 C519 1.539 . S
C517 C513 1.408 . S
C517 C516 1.404 . S
C517 H529 0.930 . S
C518 C514 1.524 . S
C518 H530 0.956 . S
C518 H531 0.961 . S
C518 H532 0.961 . S
C519 C516 1.539 . S
C519 H533 0.958 . S
C519 H534 0.961 . S
C519 H535 0.960 . S
H520 C504 0.931 . S
H521 C509 0.929 . S
H522 C510 0.960 . S
H523 C510 0.962 . S
H524 C510 0.960 . S
H525 C511 0.961 . S
H526 C511 0.961 . S
H527 C511 0.961 . S
H528 C512 0.931 . S
H529 C517 0.930 . S
H530 C518 0.956 . S
H531 C518 0.961 . S
H532 C518 0.961 . S
H533 C519 0.958 . S
H534 C519 0.961 . S
H535 C519 0.960 . S
C536 C537 1.391 . S
C536 C538 1.394 . S
C536 H552 0.931 . S
C537 C536 1.391 . S
C537 C541 1.376 . S
C538 C536 1.394 . S
C538 C539 1.369 . S
C538 C542 1.531 . S
C539 C538 1.369 . S
C539 C540 1.410 . S
C539 C547 1.503 . S
C540 C539 1.410 . S
C540 C541 1.392 . S
C540 C543 1.511 . S
C541 C537 1.376 . S
C541 C540 1.392 . S
C541 H553 0.929 . S
C542 C538 1.531 . S
C542 H554 0.960 . S
C542 H555 0.962 . S
C542 H556 0.960 . S
C543 C540 1.511 . S
C543 H557 0.961 . S
C543 H558 0.961 . S
C543 H559 0.961 . S
C544 C545 1.370 . S
C544 C546 1.363 . S
C544 H560 0.931 . S
C545 C544 1.370 . S
C545 C549 1.408 . S
C546 C544 1.363 . S
C546 C547 1.370 . S
C546 C550 1.524 . S
C547 C539 1.503 . S
C547 C546 1.370 . S
C547 C548 1.403 . S
C548 C547 1.403 . S
C548 C549 1.404 . S
C548 C551 1.539 . S
C549 C545 1.408 . S
C549 C548 1.404 . S
C549 H561 0.930 . S
C550 C546 1.524 . S
C550 H562 0.956 . S
C550 H563 0.961 . S
C550 H564 0.961 . S
C551 C548 1.539 . S
C551 H565 0.958 . S
C551 H566 0.961 . S
C551 H567 0.960 . S
H552 C536 0.931 . S
H553 C541 0.929 . S
H554 C542 0.960 . S
H555 C542 0.962 . S
H556 C542 0.960 . S
H557 C543 0.961 . S
H558 C543 0.961 . S
H559 C543 0.961 . S
H560 C544 0.931 . S
H561 C549 0.930 . S
H562 C550 0.956 . S
H563 C550 0.961 . S
H564 C550 0.961 . S
H565 C551 0.958 . S
H566 C551 0.961 . S
H567 C551 0.960 . S
C568 C569 1.391 . S
C568 C570 1.394 1_455 S
C568 H584 0.931 . S
C569 C568 1.391 . S
C569 C573 1.376 . S
C570 C568 1.394 1_655 S
C570 C571 1.369 1_655 S
C570 C574 1.531 . S
C571 C570 1.369 1_455 S
C571 C572 1.410 . S
C571 C579 1.503 1_445 S
C572 C571 1.410 . S
C572 C573 1.392 . S
C572 C575 1.511 1_545 S
C573 C569 1.376 . S
C573 C572 1.392 . S
C573 H585 0.929 . S
C574 C570 1.531 . S
C574 H586 0.960 . S
C574 H587 0.962 . S
C574 H588 0.960 . S
C575 C572 1.511 1_565 S
C575 H589 0.961 1_565 S
C575 H590 0.961 . S
C575 H591 0.961 . S
C576 C577 1.370 . S
C576 C578 1.363 . S
C576 H592 0.931 . S
C577 C576 1.370 . S
C577 C581 1.408 . S
C578 C576 1.363 . S
C578 C579 1.370 . S
C578 C582 1.524 1_565 S
C579 C571 1.503 1_665 S
C579 C578 1.370 . S
C579 C580 1.403 1_655 S
C580 C579 1.403 1_455 S
C580 C581 1.404 1_455 S
C580 C583 1.539 . S
C581 C577 1.408 . S
C581 C580 1.404 1_655 S
C581 H593 0.930 . S
C582 C578 1.524 1_545 S
C582 H594 0.956 . S
C582 H595 0.961 . S
C582 H596 0.961 1_545 S
C583 C580 1.539 . S
C583 H597 0.958 . S
C583 H598 0.961 . S
C583 H599 0.960 . S
H584 C568 0.931 . S
H585 C573 0.929 . S
H586 C574 0.960 . S
H587 C574 0.962 . S
H588 C574 0.960 . S
H589 C575 0.961 1_545 S
H590 C575 0.961 . S
H591 C575 0.961 . S
H592 C576 0.931 . S
H593 C581 0.930 . S
H594 C582 0.956 . S
H595 C582 0.961 . S
H596 C582 0.961 1_565 S
H597 C583 0.958 . S
H598 C583 0.961 . S
H599 C583 0.960 . S
C600 C601 1.391 . S
C600 C602 1.394 . S
C600 H616 0.931 . S
C601 C600 1.391 . S
C601 C605 1.376 . S
C602 C600 1.394 . S
C602 C603 1.369 . S
C602 C606 1.531 1_455 S
C603 C602 1.369 . S
C603 C604 1.410 1_565 S
C603 C611 1.503 1_465 S
C604 C603 1.410 1_545 S
C604 C605 1.392 1_545 S
C604 C607 1.511 . S
C605 C601 1.376 . S
C605 C604 1.392 1_565 S
C605 H617 0.929 1_565 S
C606 C602 1.531 1_655 S
C606 H618 0.960 . S
C606 H619 0.962 . S
C606 H620 0.960 1_655 S
C607 C604 1.511 . S
C607 H621 0.961 . S
C607 H622 0.961 . S
C607 H623 0.961 . S
C608 C609 1.370 . S
C608 C610 1.363 . S
C608 H624 0.931 . S
C609 C608 1.370 . S
C609 C613 1.408 . S
C610 C608 1.363 . S
C610 C611 1.370 . S
C610 C614 1.524 1_545 S
C611 C603 1.503 1_645 S
C611 C610 1.370 . S
C611 C612 1.403 . S
C612 C611 1.403 . S
C612 C613 1.404 . S
C612 C615 1.539 . S
C613 C609 1.408 . S
C613 C612 1.404 . S
C613 H625 0.930 . S
C614 C610 1.524 1_565 S
C614 H626 0.956 . S
C614 H627 0.966 . S
C614 H628 0.961 . S
C615 C612 1.539 . S
C615 H629 0.958 . S
C615 H630 0.961 . S
C615 H631 0.960 1_655 S
H616 C600 0.931 . S
H617 C605 0.929 1_545 S
H618 C606 0.960 . S
H619 C606 0.962 . S
H620 C606 0.960 1_455 S
H621 C607 0.961 . S
H622 C607 0.961 . S
H623 C607 0.961 . S
H624 C608 0.931 . S
H625 C613 0.930 . S
H626 C614 0.956 . S
H627 C614 0.966 . S
H628 C614 0.961 . S
H629 C615 0.958 . S
H630 C615 0.961 . S
H631 C615 0.960 1_455 S
C632 C633 1.391 . S
C632 C634 1.394 1_655 S
C632 H648 0.931 1_655 S
C633 C632 1.391 . S
C633 C637 1.376 . S
C634 C632 1.394 1_455 S
C634 C635 1.369 1_455 S
C634 C638 1.531 . S
C635 C634 1.369 1_655 S
C635 C636 1.410 . S
C635 C643 1.503 1_645 S
C636 C635 1.410 . S
C636 C637 1.392 . S
C636 C639 1.511 1_545 S
C637 C633 1.376 . S
C637 C636 1.392 . S
C637 H649 0.929 . S
C638 C634 1.531 . S
C638 H650 0.960 . S
C638 H651 0.962 . S
C638 H652 0.960 . S
C639 C636 1.511 1_565 S
C639 H653 0.961 . S
C639 H654 0.961 . S
C639 H655 0.961 . S
C640 C641 1.370 . S
C640 C642 1.363 . S
C640 H656 0.931 . S
C641 C640 1.370 . S
C641 C645 1.408 . S
C642 C640 1.363 . S
C642 C643 1.370 . S
C642 C646 1.524 . S
C643 C635 1.503 1_465 S
C643 C642 1.370 . S
C643 C644 1.403 . S
C644 C643 1.403 . S
C644 C645 1.404 . S
C644 C647 1.539 1_455 S
C645 C641 1.408 . S
C645 C644 1.404 . S
C645 H657 0.930 . S
C646 C642 1.524 . S
C646 H658 0.956 1_565 S
C646 H659 0.961 1_565 S
C646 H660 0.961 . S
C647 C644 1.539 1_655 S
C647 H661 0.962 . S
C647 H662 0.961 . S
C647 H663 0.960 . S
H648 C632 0.931 1_455 S
H649 C637 0.929 . S
H650 C638 0.960 . S
H651 C638 0.962 . S
H652 C638 0.960 . S
H653 C639 0.961 . S
H654 C639 0.961 . S
H655 C639 0.961 . S
H656 C640 0.931 . S
H657 C645 0.930 . S
H658 C646 0.956 1_545 S
H659 C646 0.961 1_545 S
H660 C646 0.961 . S
H661 C647 0.962 . S
H662 C647 0.961 . S
H663 C647 0.960 . S
C664 C665 1.391 . S
C664 C666 1.389 1_565 S
C664 H680 0.931 . S
C665 C664 1.391 . S
C665 C669 1.376 . S
C666 C664 1.389 1_545 S
C666 C667 1.364 1_545 S
C666 C670 1.541 . S
C667 C666 1.364 1_565 S
C667 C668 1.410 . S
C667 C675 1.503 1_665 S
C668 C667 1.410 . S
C668 C669 1.392 . S
C668 C671 1.511 1_655 S
C669 C665 1.376 . S
C669 C668 1.392 . S
C669 H681 0.929 . S
C670 C666 1.541 . S
C670 H682 0.960 . S
C670 H683 0.962 . S
C670 H684 0.960 . S
C671 C668 1.511 1_455 S
C671 H685 0.961 1_455 S
C671 H686 0.961 . S
C671 H687 0.961 . S
C672 C673 1.370 . S
C672 C674 1.363 . S
C672 H688 0.931 . S
C673 C672 1.370 . S
C673 C677 1.408 . S
C674 C672 1.363 . S
C674 C675 1.370 . S
C674 C678 1.524 1_455 S
C675 C667 1.503 1_445 S
C675 C674 1.370 . S
C675 C676 1.403 1_545 S
C676 C675 1.403 1_565 S
C676 C677 1.404 1_565 S
C676 C679 1.539 . S
C677 C673 1.408 . S
C677 C676 1.404 1_545 S
C677 H689 0.930 . S
C678 C674 1.524 1_655 S
C678 H690 0.956 . S
C678 H691 0.961 . S
C678 H692 0.961 1_655 S
C679 C676 1.539 . S
C679 H693 0.958 . S
C679 H694 0.961 . S
C679 H695 0.960 . S
H680 C664 0.931 . S
H681 C669 0.929 . S
H682 C670 0.960 . S
H683 C670 0.962 . S
H684 C670 0.960 . S
H685 C671 0.961 1_655 S
H686 C671 0.961 . S
H687 C671 0.961 . S
H688 C672 0.931 . S
H689 C677 0.930 . S
H690 C678 0.956 . S
H691 C678 0.961 . S
H692 C678 0.961 1_455 S
H693 C679 0.958 . S
H694 C679 0.961 . S
H695 C679 0.960 . S
C185 N12 1.685 . S
C193 N58 1.702 . S
C217 N81 1.686 . S
C225 N35 1.701 . S
C249 N150 1.715 . S
C257 N104 1.717 . S
C281 N127 1.711 . S
C289 N173 1.707 . S
C313 C145 1.637 . S
C321 C7 1.649 . S
C345 C30 1.651 . S
C353 C168 1.655 . S
C377 C53 1.662 . S
C385 C99 1.660 . S
C409 C122 1.655 . S
C417 C76 1.656 . S
C441 C16 1.676 . S
C449 C131 1.655 . S
C473 C154 1.638 . S
C481 C39 1.667 . S
C505 C177 1.673 . S
C513 C62 1.661 . S
C537 C85 1.675 . S
C545 C108 1.659 . S
C569 N2 1.379 . S
C577 N48 1.342 . S
C601 N71 1.351 . S
C609 N25 1.376 . S
C633 N140 1.363 . S
C641 N94 1.346 . S
C665 N163 1.382 . S
C673 N117 1.341 . S
