# Generated by pormake.
# Topology umr, (4)-cn, num edge types: 1
# Building blocks:
#     Node 0, Type 0, BuildingBlock: NAHDIM_clean_sbu_0, # of connection points: 4
#     Node 1, Type 0, BuildingBlock: NAHDIM_clean_sbu_0, # of connection points: 4
#     Node 2, Type 0, BuildingBlock: NAHDIM_clean_sbu_0, # of connection points: 4
#     Node 3, Type 0, BuildingBlock: NAHDIM_clean_sbu_0, # of connection points: 4
#     Node 4, Type 0, BuildingBlock: NAHDIM_clean_sbu_0, # of connection points: 4
#     Node 5, Type 0, BuildingBlock: NAHDIM_clean_sbu_0, # of connection points: 4
#     Node 6, Type 0, BuildingBlock: NAHDIM_clean_sbu_0, # of connection points: 4
#     Node 7, Type 0, BuildingBlock: NAHDIM_clean_sbu_0, # of connection points: 4
#     Node 8, Type 0, BuildingBlock: NAHDIM_clean_sbu_0, # of connection points: 4
#     Node 9, Type 0, BuildingBlock: NAHDIM_clean_sbu_0, # of connection points: 4
#     Node 10, Type 0, BuildingBlock: NAHDIM_clean_sbu_0, # of connection points: 4
#     Node 11, Type 0, BuildingBlock: NAHDIM_clean_sbu_0, # of connection points: 4
#     Node 12, Type 0, BuildingBlock: NAHDIM_clean_sbu_0, # of connection points: 4
#     Node 13, Type 0, BuildingBlock: NAHDIM_clean_sbu_0, # of connection points: 4
#     Node 14, Type 0, BuildingBlock: NAHDIM_clean_sbu_0, # of connection points: 4
#     Node 15, Type 0, BuildingBlock: NAHDIM_clean_sbu_0, # of connection points: 4
#     Node 16, Type 0, BuildingBlock: NAHDIM_clean_sbu_0, # of connection points: 4
#     Node 17, Type 0, BuildingBlock: NAHDIM_clean_sbu_0, # of connection points: 4
#     Node 18, Type 0, BuildingBlock: NAHDIM_clean_sbu_0, # of connection points: 4
#     Node 19, Type 0, BuildingBlock: NAHDIM_clean_sbu_0, # of connection points: 4
#     Node 20, Type 0, BuildingBlock: NAHDIM_clean_sbu_0, # of connection points: 4
#     Node 21, Type 0, BuildingBlock: NAHDIM_clean_sbu_0, # of connection points: 4
#     Node 22, Type 0, BuildingBlock: NAHDIM_clean_sbu_0, # of connection points: 4
#     Node 23, Type 0, BuildingBlock: NAHDIM_clean_sbu_0, # of connection points: 4
#     Node 24, Type 0, BuildingBlock: NAHDIM_clean_sbu_0, # of connection points: 4
#     Node 25, Type 0, BuildingBlock: NAHDIM_clean_sbu_0, # of connection points: 4
#     Node 26, Type 0, BuildingBlock: NAHDIM_clean_sbu_0, # of connection points: 4
#     Node 27, Type 0, BuildingBlock: NAHDIM_clean_sbu_0, # of connection points: 4
#     Node 28, Type 0, BuildingBlock: NAHDIM_clean_sbu_0, # of connection points: 4
#     Node 29, Type 0, BuildingBlock: NAHDIM_clean_sbu_0, # of connection points: 4
#     Node 30, Type 0, BuildingBlock: NAHDIM_clean_sbu_0, # of connection points: 4
#     Node 31, Type 0, BuildingBlock: NAHDIM_clean_sbu_0, # of connection points: 4
#     Edge 32, Type (0, 0), BuildingBlock: OJICUG_clean_linker_0, # of connection points: 2
#     Edge 33, Type (0, 0), BuildingBlock: OJICUG_clean_linker_0, # of connection points: 2
#     Edge 34, Type (0, 0), BuildingBlock: OJICUG_clean_linker_0, # of connection points: 2
#     Edge 35, Type (0, 0), BuildingBlock: OJICUG_clean_linker_0, # of connection points: 2
#     Edge 36, Type (0, 0), BuildingBlock: OJICUG_clean_linker_0, # of connection points: 2
#     Edge 37, Type (0, 0), BuildingBlock: OJICUG_clean_linker_0, # of connection points: 2
#     Edge 38, Type (0, 0), BuildingBlock: OJICUG_clean_linker_0, # of connection points: 2
#     Edge 39, Type (0, 0), BuildingBlock: OJICUG_clean_linker_0, # of connection points: 2
#     Edge 40, Type (0, 0), BuildingBlock: OJICUG_clean_linker_0, # of connection points: 2
#     Edge 41, Type (0, 0), BuildingBlock: OJICUG_clean_linker_0, # of connection points: 2
#     Edge 42, Type (0, 0), BuildingBlock: OJICUG_clean_linker_0, # of connection points: 2
#     Edge 43, Type (0, 0), BuildingBlock: OJICUG_clean_linker_0, # of connection points: 2
#     Edge 44, Type (0, 0), BuildingBlock: OJICUG_clean_linker_0, # of connection points: 2
#     Edge 45, Type (0, 0), BuildingBlock: OJICUG_clean_linker_0, # of connection points: 2
#     Edge 46, Type (0, 0), BuildingBlock: OJICUG_clean_linker_0, # of connection points: 2
#     Edge 47, Type (0, 0), BuildingBlock: OJICUG_clean_linker_0, # of connection points: 2
#     Edge 48, Type (0, 0), BuildingBlock: OJICUG_clean_linker_0, # of connection points: 2
#     Edge 49, Type (0, 0), BuildingBlock: OJICUG_clean_linker_0, # of connection points: 2
#     Edge 50, Type (0, 0), BuildingBlock: OJICUG_clean_linker_0, # of connection points: 2
#     Edge 51, Type (0, 0), BuildingBlock: OJICUG_clean_linker_0, # of connection points: 2
#     Edge 52, Type (0, 0), BuildingBlock: OJICUG_clean_linker_0, # of connection points: 2
#     Edge 53, Type (0, 0), BuildingBlock: OJICUG_clean_linker_0, # of connection points: 2
#     Edge 54, Type (0, 0), BuildingBlock: OJICUG_clean_linker_0, # of connection points: 2
#     Edge 55, Type (0, 0), BuildingBlock: OJICUG_clean_linker_0, # of connection points: 2
#     Edge 56, Type (0, 0), BuildingBlock: OJICUG_clean_linker_0, # of connection points: 2
#     Edge 57, Type (0, 0), BuildingBlock: OJICUG_clean_linker_0, # of connection points: 2
#     Edge 58, Type (0, 0), BuildingBlock: OJICUG_clean_linker_0, # of connection points: 2
#     Edge 59, Type (0, 0), BuildingBlock: OJICUG_clean_linker_0, # of connection points: 2
#     Edge 60, Type (0, 0), BuildingBlock: OJICUG_clean_linker_0, # of connection points: 2
#     Edge 61, Type (0, 0), BuildingBlock: OJICUG_clean_linker_0, # of connection points: 2
#     Edge 62, Type (0, 0), BuildingBlock: OJICUG_clean_linker_0, # of connection points: 2
#     Edge 63, Type (0, 0), BuildingBlock: OJICUG_clean_linker_0, # of connection points: 2
#     Edge 64, Type (0, 0), BuildingBlock: OJICUG_clean_linker_0, # of connection points: 2
#     Edge 65, Type (0, 0), BuildingBlock: OJICUG_clean_linker_0, # of connection points: 2
#     Edge 66, Type (0, 0), BuildingBlock: OJICUG_clean_linker_0, # of connection points: 2
#     Edge 67, Type (0, 0), BuildingBlock: OJICUG_clean_linker_0, # of connection points: 2
#     Edge 68, Type (0, 0), BuildingBlock: OJICUG_clean_linker_0, # of connection points: 2
#     Edge 69, Type (0, 0), BuildingBlock: OJICUG_clean_linker_0, # of connection points: 2
#     Edge 70, Type (0, 0), BuildingBlock: OJICUG_clean_linker_0, # of connection points: 2
#     Edge 71, Type (0, 0), BuildingBlock: OJICUG_clean_linker_0, # of connection points: 2
#     Edge 72, Type (0, 0), BuildingBlock: OJICUG_clean_linker_0, # of connection points: 2
#     Edge 73, Type (0, 0), BuildingBlock: OJICUG_clean_linker_0, # of connection points: 2
#     Edge 74, Type (0, 0), BuildingBlock: OJICUG_clean_linker_0, # of connection points: 2
#     Edge 75, Type (0, 0), BuildingBlock: OJICUG_clean_linker_0, # of connection points: 2
#     Edge 76, Type (0, 0), BuildingBlock: OJICUG_clean_linker_0, # of connection points: 2
#     Edge 77, Type (0, 0), BuildingBlock: OJICUG_clean_linker_0, # of connection points: 2
#     Edge 78, Type (0, 0), BuildingBlock: OJICUG_clean_linker_0, # of connection points: 2
#     Edge 79, Type (0, 0), BuildingBlock: OJICUG_clean_linker_0, # of connection points: 2
#     Edge 80, Type (0, 0), BuildingBlock: OJICUG_clean_linker_0, # of connection points: 2
#     Edge 81, Type (0, 0), BuildingBlock: OJICUG_clean_linker_0, # of connection points: 2
#     Edge 82, Type (0, 0), BuildingBlock: OJICUG_clean_linker_0, # of connection points: 2
#     Edge 83, Type (0, 0), BuildingBlock: OJICUG_clean_linker_0, # of connection points: 2
#     Edge 84, Type (0, 0), BuildingBlock: OJICUG_clean_linker_0, # of connection points: 2
#     Edge 85, Type (0, 0), BuildingBlock: OJICUG_clean_linker_0, # of connection points: 2
#     Edge 86, Type (0, 0), BuildingBlock: OJICUG_clean_linker_0, # of connection points: 2
#     Edge 87, Type (0, 0), BuildingBlock: OJICUG_clean_linker_0, # of connection points: 2
#     Edge 88, Type (0, 0), BuildingBlock: OJICUG_clean_linker_0, # of connection points: 2
#     Edge 89, Type (0, 0), BuildingBlock: OJICUG_clean_linker_0, # of connection points: 2
#     Edge 90, Type (0, 0), BuildingBlock: OJICUG_clean_linker_0, # of connection points: 2
#     Edge 91, Type (0, 0), BuildingBlock: OJICUG_clean_linker_0, # of connection points: 2
#     Edge 92, Type (0, 0), BuildingBlock: OJICUG_clean_linker_0, # of connection points: 2
#     Edge 93, Type (0, 0), BuildingBlock: OJICUG_clean_linker_0, # of connection points: 2
#     Edge 94, Type (0, 0), BuildingBlock: OJICUG_clean_linker_0, # of connection points: 2
#     Edge 95, Type (0, 0), BuildingBlock: OJICUG_clean_linker_0, # of connection points: 2
# Relax obj value: 0.121
# Max RMSD: 0.119
# Mean RMSD: 0.119
data_MOF--net-umr--node1-NAHDIM_clean_sbu_0--edge1-OJICUG_clean_linker_0
_symmetry_space_group_name_H-M    P1
_symmetry_Int_Tables_number       1
_symmetry_cell_setting            triclinic
loop_
_symmetry_equiv_pos_as_xyz
'x, y, z'
_cell_length_a     65.166709
_cell_length_b     65.232518
_cell_length_c     17.49268
_cell_angle_alpha  89.958151
_cell_angle_beta   90.099763
_cell_angle_gamma 89.995105
loop_
_atom_site_label
_atom_site_type_symbol
_atom_site_fract_x
_atom_site_fract_y
_atom_site_fract_z
_atom_type_partial_charge
C0 C 0.12343 0.32155 0.0385 0.0
O1 O 0.1161 0.30308 0.02603 0.0
O2 O 0.15075 0.28807 0.90178 0.0
Zn3 Zn 0.16009 0.30079 2e-05 0.0
O4 O 0.15787 0.27856 0.0794 0.0
C5 C 0.20214 0.31264 0.03802 0.0
O6 O 0.1959 0.31184 0.10934 0.0
O7 O 0.14248 0.32474 0.02907 0.0
C8 C 0.15086 0.28085 0.14655 0.0
O9 O 0.14559 0.29922 0.17013 0.0
C10 C 0.1602 0.27157 0.88593 0.0
O11 O 0.1745 0.26502 0.93305 0.0
O12 O 0.18944 0.30904 0.98458 0.0
C13 C 0.92808 0.87158 0.35582 0.0
O14 O 0.94781 0.86766 0.35103 0.0
O15 O 0.9639 0.91161 0.27615 0.0
Zn16 Zn 0.94343 0.91211 0.36178 0.0
O17 O 0.95868 0.90707 0.45997 0.0
C18 C 0.92067 0.94605 0.30324 0.0
O19 O 0.91733 0.9329 0.24778 0.0
O20 O 0.92208 0.89011 0.35541 0.0
C21 C 0.97616 0.89838 0.46041 0.0
O22 O 0.98493 0.89348 0.39541 0.0
C23 C 0.96092 0.9067 0.20683 0.0
O24 O 0.94272 0.90029 0.18503 0.0
O25 O 0.93073 0.94023 0.3617 0.0
C26 C 0.36886 0.67382 0.51947 0.0
O27 O 0.37458 0.693 0.51064 0.0
O28 O 0.33281 0.70694 0.40154 0.0
Zn29 Zn 0.33098 0.69363 0.50541 0.0
O30 O 0.33858 0.71315 0.58993 0.0
C31 C 0.29085 0.67945 0.46373 0.0
O32 O 0.29967 0.67708 0.39684 0.0
O33 O 0.34988 0.66949 0.5156 0.0
C34 C 0.32919 0.72984 0.60292 0.0
O35 O 0.3141 0.73539 0.55749 0.0
C36 C 0.34309 0.72295 0.38597 0.0
O37 O 0.35455 0.73133 0.43928 0.0
O38 O 0.30159 0.68544 0.52017 0.0
C39 C 0.56276 0.11753 0.85649 0.0
O40 O 0.54361 0.1231 0.8451 0.0
O41 O 0.53233 0.09418 0.70307 0.0
Zn42 Zn 0.54573 0.08153 0.79618 0.0
O43 O 0.52416 0.07781 0.87726 0.0
C44 C 0.54134 0.04385 0.72744 0.0
O45 O 0.52321 0.05247 0.72051 0.0
O46 O 0.56824 0.09958 0.83702 0.0
C47 C 0.52686 0.08149 0.94782 0.0
O48 O 0.54508 0.08711 0.97226 0.0
C49 C 0.51316 0.09788 0.70202 0.0
O50 O 0.50264 0.09633 0.76569 0.0
O51 O 0.55539 0.0535 0.76293 0.0
C52 C 0.1284 0.6818 0.52679 0.0
O53 O 0.12263 0.7011 0.52603 0.0
O54 O 0.16385 0.71439 0.6613 0.0
Zn55 Zn 0.16609 0.70127 0.55742 0.0
O56 O 0.15987 0.72103 0.47202 0.0
C57 C 0.20288 0.6853 0.48553 0.0
O58 O 0.19123 0.68396 0.42434 0.0
O59 O 0.14688 0.67752 0.54378 0.0
C60 C 0.16926 0.73774 0.45928 0.0
O61 O 0.184 0.74352 0.50583 0.0
C62 C 0.15329 0.7302 0.67686 0.0
O63 O 0.14173 0.73844 0.62344 0.0
O64 O 0.19518 0.69184 0.5475 0.0
C65 C 0.57385 0.88056 0.64324 0.0
O66 O 0.5546 0.87515 0.65299 0.0
O67 O 0.54035 0.91433 0.75431 0.0
Zn68 Zn 0.55401 0.91818 0.65226 0.0
O69 O 0.53427 0.91141 0.56646 0.0
C70 C 0.54705 0.96003 0.62832 0.0
O71 O 0.52999 0.95191 0.60223 0.0
O72 O 0.57834 0.89952 0.64335 0.0
C73 C 0.54017 0.90469 0.50192 0.0
O74 O 0.55985 0.9018 0.48978 0.0
C75 C 0.52098 0.91573 0.76072 0.0
O76 O 0.50973 0.91799 0.69893 0.0
O77 O 0.56145 0.94817 0.6496 0.0
C78 C 0.36135 0.31597 0.86143 0.0
O79 O 0.36531 0.2967 0.8454 0.0
O80 O 0.32841 0.27875 0.9709 0.0
Zn81 Zn 0.32274 0.29801 0.88344 0.0
O82 O 0.32451 0.2832 0.78283 0.0
C83 C 0.28843 0.31305 0.96667 0.0
O84 O 0.30205 0.31261 0.02213 0.0
O85 O 0.34331 0.32086 0.8819 0.0
C86 C 0.31592 0.26602 0.77098 0.0
O87 O 0.30505 0.25757 0.82578 0.0
C88 C 0.33837 0.26202 0.96804 0.0
O89 O 0.34709 0.25644 0.90369 0.0
O90 O 0.29404 0.30841 0.89927 0.0
C91 C 0.91533 0.10675 0.13857 0.0
O92 O 0.93496 0.11092 0.14557 0.0
O93 O 0.95228 0.07313 0.23694 0.0
Zn94 Zn 0.93121 0.06663 0.15669 0.0
O95 O 0.94655 0.06539 0.05721 0.0
C96 C 0.91661 0.03268 0.24746 0.0
O97 O 0.91915 0.04582 0.30353 0.0
O98 O 0.9094 0.08829 0.14567 0.0
C99 C 0.96298 0.07564 0.04832 0.0
O100 O 0.96984 0.08703 0.10472 0.0
C101 C 0.95024 0.08228 0.30042 0.0
O102 O 0.93211 0.08907 0.32124 0.0
O103 O 0.91969 0.03856 0.17908 0.0
C104 C 0.86581 0.66403 0.97457 0.0
O105 O 0.86992 0.68322 0.99158 0.0
O106 O 0.82893 0.69577 0.07102 0.0
Zn107 Zn 0.82651 0.68145 0.96969 0.0
O108 O 0.83134 0.7014 0.88285 0.0
C109 C 0.78584 0.67096 0.9098 0.0
O110 O 0.79314 0.67657 0.84302 0.0
O111 O 0.84725 0.65881 0.96382 0.0
C112 C 0.84046 0.69592 0.82193 0.0
O113 O 0.84639 0.67678 0.81454 0.0
C114 C 0.83514 0.71408 0.07925 0.0
O115 O 0.84151 0.72437 0.01922 0.0
O116 O 0.79764 0.67087 0.96762 0.0
C117 C 0.05549 0.11286 0.62172 0.0
O118 O 0.03603 0.11768 0.6297 0.0
O119 O 0.02474 0.08082 0.75568 0.0
Zn120 Zn 0.03833 0.07455 0.65597 0.0
O121 O 0.01622 0.07772 0.57666 0.0
C122 C 0.03898 0.03093 0.63067 0.0
O123 O 0.02465 0.03559 0.58072 0.0
O124 O 0.06098 0.0944 0.63263 0.0
C125 C 0.01951 0.07982 0.50565 0.0
O126 O 0.03845 0.07938 0.48009 0.0
C127 C 0.00857 0.07032 0.76672 0.0
O128 O 0.00267 0.0573 0.71381 0.0
O129 O 0.04822 0.04531 0.66549 0.0
C130 C 0.62571 0.31949 0.51082 0.0
O131 O 0.62018 0.30013 0.51214 0.0
O132 O 0.66095 0.2865 0.64226 0.0
Zn133 Zn 0.66342 0.30019 0.53926 0.0
O134 O 0.65683 0.28096 0.45247 0.0
C135 C 0.70227 0.3159 0.58815 0.0
O136 O 0.69224 0.31806 0.65273 0.0
O137 O 0.64422 0.32406 0.52636 0.0
C138 C 0.66157 0.26216 0.44603 0.0
O139 O 0.67211 0.25318 0.50069 0.0
C140 C 0.64864 0.27228 0.66099 0.0
O141 O 0.63502 0.26578 0.61114 0.0
O142 O 0.69277 0.30925 0.52964 0.0
C143 C 0.43089 0.87982 0.12062 0.0
O144 O 0.45035 0.87619 0.10677 0.0
O145 O 0.46718 0.90947 0.25291 0.0
Zn146 Zn 0.4487 0.91714 0.16481 0.0
O147 O 0.46428 0.91772 0.06565 0.0
C148 C 0.43303 0.9498 0.25621 0.0
O149 O 0.43386 0.93545 0.30884 0.0
O150 O 0.42584 0.89687 0.15028 0.0
C151 C 0.4828 0.92334 0.05717 0.0
O152 O 0.49317 0.93017 0.11637 0.0
C153 C 0.4831 0.89823 0.2506 0.0
O154 O 0.48821 0.88923 0.18624 0.0
O155 O 0.43782 0.94532 0.18777 0.0
C156 C 0.86741 0.3188 0.53265 0.0
O157 O 0.87233 0.29931 0.52758 0.0
O158 O 0.83086 0.28726 0.41165 0.0
Zn159 Zn 0.82874 0.30068 0.515 0.0
O160 O 0.83463 0.28099 0.60128 0.0
C161 C 0.79064 0.31487 0.58478 0.0
O162 O 0.801 0.31432 0.64926 0.0
O163 O 0.84869 0.32392 0.52571 0.0
C164 C 0.82369 0.2654 0.61636 0.0
O165 O 0.80788 0.26115 0.57246 0.0
C166 C 0.83939 0.27013 0.39827 0.0
O167 O 0.84884 0.26046 0.45403 0.0
O168 O 0.79966 0.31042 0.52272 0.0
C169 C 0.41985 0.1153 0.31955 0.0
O170 O 0.43902 0.12114 0.32783 0.0
O171 O 0.46007 0.08464 0.22283 0.0
Zn172 Zn 0.44043 0.07777 0.30706 0.0
O173 O 0.45512 0.08159 0.40775 0.0
C174 C 0.43014 0.03497 0.34259 0.0
O175 O 0.43239 0.04027 0.41455 0.0
O176 O 0.41609 0.09652 0.30648 0.0
C177 C 0.47227 0.09089 0.41137 0.0
O178 O 0.48094 0.09747 0.34827 0.0
C179 C 0.4585 0.07688 0.15656 0.0
O180 O 0.44253 0.06541 0.14011 0.0
O181 O 0.43215 0.04844 0.29073 0.0
C182 C 0.6268 0.67605 0.08177 0.0
O183 O 0.62322 0.69527 0.09967 0.0
O184 O 0.66055 0.71214 0.95769 0.0
Zn185 Zn 0.66557 0.69316 0.0467 0.0
O186 O 0.66538 0.70854 0.14647 0.0
C187 C 0.69909 0.67607 0.96319 0.0
O188 O 0.68609 0.67829 0.9063 0.0
O189 O 0.64415 0.67122 0.05412 0.0
C190 C 0.67245 0.72652 0.15558 0.0
O191 O 0.68098 0.73602 0.09749 0.0
C192 C 0.64995 0.72848 0.95826 0.0
O193 O 0.63994 0.73364 0.02047 0.0
O194 O 0.69341 0.68072 0.03051 0.0
C195 C 0.0661 0.88236 0.91963 0.0
O196 O 0.04696 0.87603 0.91849 0.0
O197 O 0.03581 0.89862 0.74935 0.0
Zn198 Zn 0.04628 0.91396 0.8415 0.0
O199 O 0.02365 0.91509 0.91941 0.0
C200 C 0.03884 0.94964 0.75929 0.0
O201 O 0.02238 0.93854 0.74638 0.0
O202 O 0.0705 0.89928 0.88742 0.0
C203 C 0.02688 0.91782 0.99021 0.0
O204 O 0.04568 0.92135 0.01415 0.0
C205 C 0.01779 0.89116 0.74831 0.0
O206 O 0.0073 0.89023 0.81224 0.0
O207 O 0.05258 0.94264 0.80409 0.0
C208 C 0.63432 0.81889 0.57033 0.0
O209 O 0.62867 0.79966 0.56256 0.0
O210 O 0.66797 0.78523 0.45658 0.0
Zn211 Zn 0.67248 0.79936 0.55749 0.0
O212 O 0.66766 0.77972 0.64518 0.0
C213 C 0.7137 0.8095 0.61295 0.0
O214 O 0.70627 0.80616 0.6816 0.0
O215 O 0.65331 0.82324 0.56777 0.0
C216 C 0.6603 0.78561 0.7088 0.0
O217 O 0.65619 0.80513 0.719 0.0
C218 C 0.66715 0.76582 0.45084 0.0
O219 O 0.66775 0.75457 0.51308 0.0
O220 O 0.70187 0.80829 0.55538 0.0
C221 C 0.4253 0.37676 0.83171 0.0
O222 O 0.44445 0.37084 0.82375 0.0
O223 O 0.46668 0.40673 0.7602 0.0
Zn224 Zn 0.44558 0.41484 0.83813 0.0
O225 O 0.45899 0.41421 0.94143 0.0
C226 C 0.45436 0.45523 0.81395 0.0
O227 O 0.47186 0.44683 0.83447 0.0
O228 O 0.42143 0.39578 0.8373 0.0
C229 C 0.47432 0.40274 0.95537 0.0
O230 O 0.48101 0.39027 0.90203 0.0
C231 C 0.46459 0.4126 0.69143 0.0
O232 O 0.44757 0.42194 0.67103 0.0
O233 O 0.43832 0.44412 0.8135 0.0
C234 C 0.8596 0.17092 0.04384 0.0
O235 O 0.86568 0.19011 0.04674 0.0
O236 O 0.82511 0.20553 0.91377 0.0
Zn237 Zn 0.82244 0.19155 0.01623 0.0
O238 O 0.8295 0.21038 0.10357 0.0
C239 C 0.78319 0.17674 0.96784 0.0
O240 O 0.79308 0.17441 0.90304 0.0
O241 O 0.84102 0.16711 0.0268 0.0
C242 C 0.82295 0.22853 0.11294 0.0
O243 O 0.81055 0.23657 0.06175 0.0
C244 C 0.83687 0.22042 0.8974 0.0
O245 O 0.84968 0.22736 0.94937 0.0
O246 O 0.79291 0.18317 0.02618 0.0
C247 C 0.07283 0.6196 0.41487 0.0
O248 O 0.05332 0.62402 0.40571 0.0
O249 O 0.04272 0.58618 0.27968 0.0
Zn250 Zn 0.05682 0.58066 0.38013 0.0
O251 O 0.03619 0.58237 0.46556 0.0
C252 C 0.07609 0.54596 0.31198 0.0
O253 O 0.07868 0.55929 0.25647 0.0
O254 O 0.07882 0.60133 0.40316 0.0
C255 C 0.01901 0.5915 0.45945 0.0
O256 O 0.01377 0.59987 0.39396 0.0
C257 C 0.02941 0.57297 0.25946 0.0
O258 O 0.0256 0.55743 0.30513 0.0
O259 O 0.06808 0.55195 0.37433 0.0
C260 C 0.61881 0.17326 0.00626 0.0
O261 O 0.61338 0.19253 0.01479 0.0
O262 O 0.65286 0.20363 0.14673 0.0
Zn263 Zn 0.65642 0.19166 0.04128 0.0
O264 O 0.65091 0.21235 0.95811 0.0
C265 C 0.69477 0.17796 0.9732 0.0
O266 O 0.68424 0.17771 0.90908 0.0
O267 O 0.63729 0.16822 0.02005 0.0
C268 C 0.66254 0.22729 0.94122 0.0
O269 O 0.67921 0.23048 0.98185 0.0
C270 C 0.64528 0.22125 0.15927 0.0
O271 O 0.63763 0.23178 0.10187 0.0
O272 O 0.68579 0.18276 0.035 0.0
C273 C 0.06975 0.38619 0.1423 0.0
O274 O 0.04995 0.3827 0.14703 0.0
O275 O 0.0341 0.42126 0.2385 0.0
Zn276 Zn 0.05517 0.42681 0.15791 0.0
O277 O 0.0399 0.42754 0.05785 0.0
C278 C 0.07222 0.45973 0.24675 0.0
O279 O 0.07 0.44631 0.30214 0.0
O280 O 0.07626 0.40444 0.14983 0.0
C281 C 0.02313 0.41772 0.05052 0.0
O282 O 0.01574 0.40755 0.10912 0.0
C283 C 0.03586 0.411 0.29975 0.0
O284 O 0.05361 0.40276 0.31787 0.0
O285 O 0.06775 0.45449 0.17872 0.0
C286 C 0.87243 0.80641 0.43873 0.0
O287 O 0.87679 0.78731 0.42141 0.0
O288 O 0.84051 0.76942 0.57174 0.0
Zn289 Zn 0.83496 0.7876 0.48073 0.0
O290 O 0.83597 0.77157 0.38279 0.0
C291 C 0.80063 0.80411 0.56112 0.0
O292 O 0.81359 0.80296 0.61859 0.0
O293 O 0.85529 0.81045 0.4698 0.0
C294 C 0.82722 0.75444 0.37184 0.0
O295 O 0.81639 0.74619 0.42716 0.0
C296 C 0.85029 0.75258 0.5703 0.0
O297 O 0.85916 0.74672 0.50657 0.0
O298 O 0.80661 0.79898 0.49467 0.0
C299 C 0.42907 0.61406 0.61547 0.0
O300 O 0.44869 0.61838 0.60893 0.0
O301 O 0.46469 0.58698 0.75191 0.0
Zn302 Zn 0.44776 0.57787 0.66156 0.0
O303 O 0.46542 0.57801 0.56798 0.0
C304 C 0.45595 0.53809 0.69737 0.0
O305 O 0.47394 0.5468 0.68749 0.0
O306 O 0.42392 0.59659 0.64136 0.0
C307 C 0.45949 0.56994 0.50582 0.0
O308 O 0.44142 0.56103 0.50289 0.0
C309 C 0.48329 0.59256 0.74504 0.0
O310 O 0.49095 0.59528 0.67638 0.0
O311 O 0.4399 0.54871 0.68546 0.0
C312 C 0.35458 0.17374 0.36812 0.0
O313 O 0.35915 0.19315 0.37875 0.0
O314 O 0.32003 0.20667 0.47237 0.0
Zn315 Zn 0.31653 0.19248 0.37103 0.0
O316 O 0.32284 0.21185 0.28416 0.0
C317 C 0.27551 0.20087 0.36365 0.0
O318 O 0.28458 0.21874 0.3558 0.0
O319 O 0.3358 0.16858 0.36452 0.0
C320 C 0.32988 0.20566 0.22051 0.0
O321 O 0.3332 0.18599 0.21031 0.0
C322 C 0.32501 0.2254 0.47943 0.0
O323 O 0.32967 0.2361 0.41823 0.0
O324 O 0.28662 0.18489 0.36765 0.0
C325 C 0.56669 0.61375 0.1515 0.0
O326 O 0.54728 0.61874 0.15959 0.0
O327 O 0.53028 0.57984 0.24549 0.0
Zn328 Zn 0.54929 0.57399 0.15851 0.0
O329 O 0.53236 0.57534 0.06228 0.0
C330 C 0.56379 0.53174 0.13136 0.0
O331 O 0.56099 0.53547 0.05826 0.0
O332 O 0.5717 0.59494 0.15225 0.0
C333 C 0.53868 0.5836 0.00084 0.0
O334 O 0.55768 0.5902 0.99678 0.0
C335 C 0.51407 0.56901 0.24649 0.0
O336 O 0.51088 0.55584 0.19091 0.0
O337 O 0.56043 0.54585 0.1797 0.0
C338 C 0.12834 0.82952 0.04752 0.0
O339 O 0.12319 0.81058 0.06455 0.0
O340 O 0.16467 0.79708 0.16028 0.0
Zn341 Zn 0.16654 0.81032 0.05614 0.0
O342 O 0.15904 0.79063 0.97192 0.0
C343 C 0.20663 0.82469 0.09789 0.0
O344 O 0.19781 0.82692 0.16483 0.0
O345 O 0.14726 0.83414 0.04474 0.0
C346 C 0.16865 0.77411 0.95818 0.0
O347 O 0.18405 0.76879 0.00256 0.0
C348 C 0.15486 0.78074 0.17508 0.0
O349 O 0.14401 0.77195 0.12088 0.0
O350 O 0.1959 0.81873 0.04134 0.0
C351 C 0.92948 0.37774 0.61878 0.0
O352 O 0.94884 0.37215 0.62123 0.0
O353 O 0.96237 0.40866 0.75545 0.0
Zn354 Zn 0.94862 0.41496 0.6557 0.0
O355 O 0.97015 0.41069 0.57551 0.0
C356 C 0.95092 0.45853 0.63154 0.0
O357 O 0.96497 0.45303 0.5819 0.0
O358 O 0.92488 0.39621 0.63427 0.0
C359 C 0.96666 0.41062 0.50419 0.0
O360 O 0.94786 0.41356 0.47928 0.0
C361 C 0.97913 0.41837 0.76421 0.0
O362 O 0.98567 0.43022 0.7086 0.0
O363 O 0.94041 0.44473 0.66459 0.0
C364 C 0.36996 0.82089 0.02457 0.0
O365 O 0.37514 0.8015 0.01826 0.0
O366 O 0.33337 0.78929 0.90081 0.0
Zn367 Zn 0.33135 0.80265 0.00436 0.0
O368 O 0.33754 0.78298 0.09001 0.0
C369 C 0.29463 0.81888 0.07658 0.0
O370 O 0.30616 0.81976 0.13819 0.0
O371 O 0.35123 0.82587 0.01653 0.0
C372 C 0.32803 0.76636 0.10311 0.0
O373 O 0.31314 0.76069 0.05701 0.0
C374 C 0.34367 0.77325 0.88583 0.0
O375 O 0.3549 0.76482 0.93979 0.0
O376 O 0.3024 0.81258 0.01437 0.0
C377 C 0.93235 0.60823 0.91025 0.0
O378 O 0.9514 0.61442 0.91842 0.0
O379 O 0.97102 0.58651 0.78291 0.0
Zn380 Zn 0.95365 0.57291 0.8627 0.0
O381 O 0.97025 0.56921 0.95912 0.0
C382 C 0.95958 0.53683 0.77901 0.0
O383 O 0.97777 0.54544 0.77504 0.0
O384 O 0.92898 0.59025 0.88545 0.0
C385 C 0.98588 0.58032 0.9726 0.0
O386 O 0.99151 0.59409 0.92198 0.0
C387 C 0.96391 0.58973 0.71636 0.0
O388 O 0.9443 0.58658 0.70331 0.0
O389 O 0.94567 0.54542 0.8186 0.0
C390 C 0.11363 0.17484 0.52813 0.0
O391 O 0.10811 0.19421 0.52863 0.0
O392 O 0.14054 0.21381 0.41718 0.0
Zn393 Zn 0.15102 0.1943 0.49718 0.0
O394 O 0.15342 0.20965 0.59627 0.0
C395 C 0.19036 0.2023 0.45141 0.0
O396 O 0.18204 0.22041 0.46244 0.0
O397 O 0.13214 0.17036 0.51266 0.0
C398 C 0.14396 0.22637 0.60872 0.0
O399 O 0.13168 0.23383 0.55599 0.0
C400 C 0.14492 0.21091 0.34733 0.0
O401 O 0.15365 0.19359 0.32721 0.0
O402 O 0.17967 0.18641 0.46515 0.0
C403 C 0.56974 0.37907 0.38271 0.0
O404 O 0.55046 0.37404 0.37104 0.0
O405 O 0.53778 0.40612 0.24434 0.0
Zn406 Zn 0.55308 0.41671 0.33586 0.0
O407 O 0.53195 0.41865 0.41924 0.0
C408 C 0.5688 0.4485 0.23978 0.0
O409 O 0.56957 0.43324 0.19089 0.0
O410 O 0.5754 0.39733 0.36864 0.0
C411 C 0.5343 0.41286 0.48803 0.0
O412 O 0.55229 0.40615 0.51093 0.0
C413 C 0.52149 0.41614 0.22996 0.0
O414 O 0.51653 0.43154 0.27465 0.0
O415 O 0.56339 0.44489 0.30836 0.0
C416 C 0.25976 0.31753 0.06053 0.0
C417 C 0.2664 0.31582 0.98432 0.0
H418 H 0.23423 0.31794 0.13744 0.0
C419 C 0.25166 0.31499 0.92573 0.0
H420 H 0.27073 0.31827 0.10704 0.0
C421 C 0.23076 0.31482 0.94317 0.0
C422 C 0.22412 0.31543 0.01962 0.0
H423 H 0.25624 0.31378 0.86641 0.0
H424 H 0.21984 0.31351 0.89669 0.0
C425 C 0.23883 0.31732 0.07801 0.0
C426 C 0.91856 0.98205 0.35225 0.0
C427 C 0.91603 0.96804 0.292 0.0
H428 H 0.92033 0.01353 0.38567 0.0
C429 C 0.91107 0.97551 0.21885 0.0
H430 H 0.92223 0.97676 0.40938 0.0
C431 C 0.91017 -0.00341 0.20505 0.0
C432 C 0.91398 0.01062 0.26432 0.0
H433 H 0.90894 0.96512 0.17122 0.0
H434 H 0.90731 0.00189 0.14729 0.0
C435 C 0.91742 0.00313 0.33864 0.0
C436 C 0.23454 0.67651 0.41113 0.0
C437 C 0.22517 0.68125 0.4812 0.0
H438 H 0.26272 0.67202 0.35067 0.0
C439 C 0.23751 0.68337 0.54673 0.0
H440 H 0.22546 0.67466 0.35969 0.0
C441 C 0.25882 0.68185 0.54161 0.0
C442 C 0.26828 0.67816 0.47086 0.0
H443 H 0.23078 0.68686 0.60179 0.0
H444 H 0.26789 0.68426 0.59278 0.0
C445 C 0.2559 0.67497 0.40601 0.0
C446 C 0.5616 0.01111 0.71668 0.0
C447 C 0.54464 0.02316 0.69547 0.0
H448 H 0.57584 0.98147 0.7115 0.0
C449 C 0.52996 0.01494 0.64527 0.0
H450 H 0.57322 0.01711 0.75494 0.0
C451 C 0.53151 0.99477 0.6201 0.0
C452 C 0.54775 0.98225 0.64474 0.0
H453 H 0.51689 0.02393 0.62673 0.0
H454 H 0.51952 0.98879 0.58343 0.0
C455 C 0.56313 0.99075 0.69158 0.0
C456 C 0.72862 0.67201 0.87298 0.0
C457 C 0.72086 0.67123 0.94791 0.0
H458 H 0.75534 0.67242 0.80188 0.0
C459 C 0.73448 0.66769 0.00876 0.0
H460 H 0.7185 0.67462 0.82476 0.0
C461 C 0.75555 0.66627 0.99557 0.0
C462 C 0.76347 0.66856 0.92129 0.0
H463 H 0.72896 0.66679 0.06705 0.0
H464 H 0.76567 0.66438 0.04427 0.0
C465 C 0.74975 0.67075 0.85981 0.0
C466 C 0.02797 0.97472 0.65989 0.0
C467 C 0.04083 0.96985 0.72186 0.0
H468 H 0.01767 -0.00242 0.58142 0.0
C469 C 0.05474 0.98466 0.74858 0.0
H470 H 0.0173 0.96354 0.63715 0.0
C471 C 0.05491 0.00436 0.71656 0.0
C472 C 0.04131 0.00947 0.65685 0.0
H473 H 0.06491 0.98129 0.79599 0.0
H474 H 0.06518 0.01575 0.74034 0.0
C475 C 0.02828 0.99424 0.62755 0.0
C476 C 0.73599 0.32144 0.65408 0.0
C477 C 0.72482 0.31848 0.58613 0.0
H478 H 0.76562 0.32268 0.7071 0.0
C479 C 0.73552 0.31636 0.51699 0.0
H480 H 0.7282 0.32319 0.70832 0.0
C481 C 0.75694 0.31615 0.51628 0.0
C482 C 0.76814 0.31795 0.58477 0.0
H483 H 0.72738 0.31421 0.46356 0.0
H484 H 0.76467 0.31382 0.46222 0.0
C485 C 0.75745 0.32112 0.65344 0.0
C486 C 0.42817 0.97702 0.35561 0.0
C487 C 0.4294 0.97141 0.27812 0.0
H488 H 0.42737 0.00154 0.43695 0.0
C489 C 0.42882 0.98684 0.22212 0.0
H490 H 0.42851 0.9655 0.4002 0.0
C491 C 0.4281 0.00746 0.24319 0.0
C492 C 0.42803 0.01314 0.32077 0.0
H493 H 0.4296 0.98304 0.16193 0.0
H494 H 0.42835 0.01897 0.1985 0.0
C495 C 0.42754 -0.00231 0.37673 0.0
C496 C 0.74399 0.8121 0.52604 0.0
C497 C 0.73608 0.81137 0.60076 0.0
H498 H 0.77059 0.81046 0.45495 0.0
C499 C 0.74981 0.81051 0.6627 0.0
H500 H 0.73387 0.81291 0.47696 0.0
C501 C 0.77095 0.80921 0.64995 0.0
C502 C 0.77872 0.80861 0.57504 0.0
H503 H 0.74421 0.81005 0.72094 0.0
H504 H 0.78109 0.80775 0.69877 0.0
C505 C 0.76507 0.81066 0.51333 0.0
C506 C 0.4727 0.48728 0.77906 0.0
C507 C 0.4541 0.47659 0.78579 0.0
H508 H 0.48782 0.51477 0.74552 0.0
C509 C 0.4358 0.48629 0.76296 0.0
H510 H 0.48711 0.4803 0.79584 0.0
C511 C 0.43621 0.50634 0.7339 0.0
C512 C 0.45493 0.51687 0.72674 0.0
H513 H 0.42123 0.4784 0.76729 0.0
H514 H 0.42192 0.51352 0.71681 0.0
C515 C 0.47312 0.50709 0.74974 0.0
C516 C 0.72785 0.17149 0.90423 0.0
C517 C 0.7173 0.1751 0.97286 0.0
H518 H 0.75701 0.16896 0.84886 0.0
C519 C 0.72862 0.1774 0.04085 0.0
H520 H 0.71959 0.16956 0.85094 0.0
C521 C 0.75003 0.17711 0.03966 0.0
C522 C 0.76061 0.17445 0.9705 0.0
H523 H 0.72097 0.18009 0.09486 0.0
H524 H 0.75827 0.17958 0.09269 0.0
C525 C 0.74931 0.17112 0.90308 0.0
C526 C 0.07562 0.48849 0.34056 0.0
C527 C 0.07667 0.48144 0.26472 0.0
H528 H 0.07469 0.51447 0.41517 0.0
C529 C 0.08006 0.49569 0.2058 0.0
H530 H 0.0731 0.47791 0.38736 0.0
C531 C 0.08118 0.51664 0.22188 0.0
C532 C 0.07869 0.52379 0.29711 0.0
H533 H 0.0811 0.49073 0.14685 0.0
H534 H 0.08294 0.52727 0.17474 0.0
C535 C 0.07651 0.50946 0.35656 0.0
C536 C 0.24169 0.21831 0.37269 0.0
C537 C 0.25317 0.20014 0.37778 0.0
H538 H 0.21303 0.23314 0.39177 0.0
C539 C 0.2434 0.18208 0.40245 0.0
H540 H 0.24866 0.23246 0.35333 0.0
C541 C 0.22273 0.18247 0.42467 0.0
C542 C 0.21163 0.20095 0.42285 0.0
H543 H 0.25186 0.16783 0.40693 0.0
H544 H 0.21566 0.16851 0.4454 0.0
C545 C 0.22123 0.21872 0.3951 0.0
C546 C 0.56965 0.4863 0.26422 0.0
C547 C 0.57073 0.4699 0.21243 0.0
H548 H 0.56687 0.51866 0.27931 0.0
C549 C 0.57168 0.47418 0.13367 0.0
H550 H 0.56902 0.48354 0.32524 0.0
C551 C 0.57031 0.49438 0.10713 0.0
C552 C 0.56809 0.51069 0.15885 0.0
H553 H 0.57257 0.4619 0.09219 0.0
H554 H 0.57026 0.49711 0.04605 0.0
C555 C 0.5684 0.50646 0.23775 0.0
C556 C 0.26292 0.82763 0.15082 0.0
C557 C 0.27234 0.82302 0.08072 0.0
H558 H 0.23472 0.83199 0.2112 0.0
C559 C 0.26003 0.82103 0.01503 0.0
H560 H 0.27198 0.82937 0.20239 0.0
C561 C 0.23871 0.82252 0.02004 0.0
C562 C 0.22921 0.82607 0.09082 0.0
H563 H 0.26679 0.81764 0.95994 0.0
H564 H 0.22967 0.8202 0.96876 0.0
C565 C 0.24156 0.82916 0.15582 0.0
C566 C 0.93708 0.48569 0.71934 0.0
C567 C 0.95086 0.47972 0.66157 0.0
H568 H 0.92895 0.50861 0.80194 0.0
C569 C 0.96631 0.49344 0.63899 0.0
H570 H 0.92499 0.47546 0.73795 0.0
C571 C 0.96876 0.51214 0.67635 0.0
C572 C 0.95564 0.51771 0.73644 0.0
H573 H 0.97715 0.48941 0.59461 0.0
H574 H 0.98122 0.52209 0.65895 0.0
C575 C 0.93938 0.50461 0.75616 0.0
C576 C 0.16561 0.24128 0.8014 0.0
C577 C 0.1555 0.25991 0.81574 0.0
H578 H 0.16983 0.21607 0.72522 0.0
C579 C 0.14115 0.26722 0.76226 0.0
H580 H 0.17671 0.23517 0.84156 0.0
C581 C 0.1372 0.25623 0.69524 0.0
C582 C 0.1475 0.2377 0.68063 0.0
H583 H 0.13309 0.28152 0.77179 0.0
H584 H 0.1262 0.26233 0.65471 0.0
C585 C 0.16164 0.23029 0.73467 0.0
C586 C 0.99023 0.90945 0.02019 0.0
C587 C 0.00987 0.91539 0.04532 0.0
H588 H 0.95938 0.90187 0.05144 0.0
C589 C 0.01327 0.91828 0.12382 0.0
H590 H 0.98712 0.90701 0.96002 0.0
C591 C -0.00261 0.9153 0.17609 0.0
C592 C 0.97775 0.9093 0.15108 0.0
H593 H 0.02822 0.92278 0.14507 0.0
H594 H 0.00055 0.91769 0.23625 0.0
C595 C 0.97434 0.9064 0.07256 0.0
C596 C 0.32611 0.72559 0.25752 0.0
C597 C 0.34048 0.73308 0.31077 0.0
H598 H 0.31089 0.73018 0.15025 0.0
C599 C 0.3515 0.75096 0.29307 0.0
H600 H 0.31736 0.71183 0.26931 0.0
C601 C 0.34781 0.76144 0.22472 0.0
C602 C 0.33295 0.75433 0.17262 0.0
H603 H 0.36272 0.7571 0.33263 0.0
H604 H 0.35632 0.77539 0.21358 0.0
C605 C 0.32236 0.73612 0.18925 0.0
C606 C 0.51317 0.10167 0.55967 0.0
C607 C 0.50226 0.09885 0.62805 0.0
H608 H 0.51218 0.10146 0.43738 0.0
C609 C 0.48114 0.09456 0.62455 0.0
H610 H 0.52946 0.10497 0.56057 0.0
C611 C 0.47134 0.09216 0.55411 0.0
C612 C 0.48239 0.09432 0.48578 0.0
H613 H 0.4723 0.0922 0.6762 0.0
H614 H 0.45516 0.08835 0.55324 0.0
C615 C 0.50328 0.09959 0.48917 0.0
C616 C 0.17404 0.74367 0.87313 0.0
C617 C 0.16345 0.76189 0.88947 0.0
H618 H 0.17902 0.71927 0.7937 0.0
C619 C 0.14845 0.76885 0.83758 0.0
H620 H 0.18561 0.73782 0.91199 0.0
C621 C 0.1447 0.75824 0.76954 0.0
C622 C 0.15579 0.74039 0.75201 0.0
H623 H 0.13994 0.7828 0.84853 0.0
H624 H 0.13343 0.7643 0.72997 0.0
C625 C 0.17023 0.73301 0.80525 0.0
C626 C 0.5141 0.92268 0.97417 0.0
C627 C 0.49269 0.92126 0.9816 0.0
H628 H 0.5399 0.92169 0.89864 0.0
C629 C 0.48075 0.91739 0.91616 0.0
H630 H 0.52373 0.9255 0.02361 0.0
C631 C 0.48998 0.91531 0.84462 0.0
C632 C 0.51138 0.91679 0.83709 0.0
H633 H 0.46421 0.91616 0.91999 0.0
H634 H 0.48033 0.91259 0.79519 0.0
C635 C 0.52337 0.92034 0.90267 0.0
C636 C 0.34463 0.22761 0.0276 0.0
C637 C 0.33799 0.24801 0.03453 0.0
H638 H 0.3472 0.19816 0.0809 0.0
C639 C 0.32969 0.25461 0.10444 0.0
H640 H 0.35108 0.22205 0.97448 0.0
C641 C 0.32751 0.24096 0.16536 0.0
C642 C 0.33347 0.22037 0.15761 0.0
H643 H 0.32449 0.27026 0.11178 0.0
H644 H 0.32071 0.24647 0.21795 0.0
C645 C 0.34233 0.2139 0.08849 0.0
C646 C 0.98215 0.08585 0.48071 0.0
C647 C 0.00199 0.08193 0.45255 0.0
H648 H 0.95021 0.08938 0.45448 0.0
C649 C 0.00477 0.07944 0.3736 0.0
H650 H 0.97955 0.08799 0.54133 0.0
C651 C 0.98797 0.0801 0.3241 0.0
C652 C 0.96806 0.0835 0.35242 0.0
H653 H 0.01985 0.07646 0.35017 0.0
H654 H 0.99055 0.07764 0.26362 0.0
C655 C 0.96536 0.08677 0.43102 0.0
C656 C 0.84166 0.74392 0.16589 0.0
C657 C 0.83382 0.72409 0.15493 0.0
H658 H 0.84577 0.76902 0.24291 0.0
C659 C 0.82404 0.71417 0.21633 0.0
H660 H 0.84929 0.75197 0.11983 0.0
C661 C 0.82188 0.724 0.28682 0.0
C662 C 0.82957 0.7439 0.29755 0.0
H663 H 0.81778 0.69889 0.20974 0.0
H664 H 0.81415 0.716 0.33278 0.0
C665 C 0.83962 0.75369 0.23649 0.0
C666 C 0.96767 0.06187 0.91625 0.0
C667 C 0.97443 0.07464 0.97574 0.0
H668 H 0.97315 0.05054 0.80364 0.0
C669 C 0.99236 0.0863 0.96554 0.0
H670 H 0.9539 0.05271 0.92229 0.0
C671 C 0.00341 0.0851 0.89735 0.0
C672 C -0.00326 0.07216 0.8382 0.0
H673 H -0.00205 0.09633 0.01031 0.0
H674 H 0.01723 0.09417 0.89128 0.0
C675 C 0.97872 0.06064 0.84822 0.0
C676 C 0.63793 0.24586 0.7572 0.0
C677 C 0.65109 0.2619 0.73581 0.0
H678 H 0.6311 0.22246 0.83902 0.0
C679 C 0.66737 0.26725 0.78492 0.0
H680 H 0.62522 0.24139 0.72088 0.0
C681 C 0.67081 0.25635 0.85256 0.0
C682 C 0.65801 0.23991 0.8728 0.0
H683 H 0.6778 0.27957 0.77029 0.0
H684 H 0.68374 0.26057 0.8882 0.0
C685 C 0.64132 0.23501 0.82502 0.0
C686 C 0.49085 0.90607 0.38756 0.0
C687 C 0.4971 0.89776 0.31722 0.0
H688 H 0.49948 0.91465 0.5011 0.0
C689 C 0.5173 0.8905 0.30976 0.0
H690 H 0.47536 0.91173 0.39529 0.0
C691 C 0.53121 0.89235 0.37035 0.0
C692 C 0.52513 0.90131 0.43978 0.0
H693 H 0.5226 0.88404 0.2563 0.0
H694 H 0.54682 0.88709 0.36223 0.0
C695 C 0.50468 0.90776 0.44826 0.0
C696 C 0.82063 0.25965 0.19669 0.0
C697 C 0.82843 0.23991 0.18332 0.0
H698 H 0.8181 0.28475 0.2747 0.0
C699 C 0.84099 0.23076 0.2393 0.0
H700 H 0.811 0.26717 0.15466 0.0
C701 C 0.84506 0.24082 0.30818 0.0
C702 C 0.83671 0.26028 0.32261 0.0
H703 H 0.84736 0.2156 0.2307 0.0
H704 H 0.8544 0.23314 0.35072 0.0
C705 C 0.82474 0.26974 0.26555 0.0
C706 C 0.49443 0.08739 0.12553 0.0
C707 C 0.47563 0.07889 0.10189 0.0
H708 H 0.52542 0.09463 0.09576 0.0
C709 C 0.47378 0.07139 0.02699 0.0
H710 H 0.49641 0.09323 0.18302 0.0
C711 C 0.49042 0.07224 0.97689 0.0
C712 C 0.50931 0.08045 0.00096 0.0
H713 H 0.45951 0.06473 0.00712 0.0
H714 H 0.48852 0.06631 0.91949 0.0
C715 C 0.51113 0.08807 0.07569 0.0
C716 C 0.66074 0.7365 0.82432 0.0
C717 C 0.65106 0.74266 0.89233 0.0
H718 H 0.67119 0.74518 0.71304 0.0
C719 C 0.64371 0.76284 0.89828 0.0
H720 H 0.66655 0.72104 0.81781 0.0
C721 C 0.64654 0.77674 0.83835 0.0
C722 C 0.65664 0.77071 0.77105 0.0
H723 H 0.63623 0.76807 0.94995 0.0
H724 H 0.64099 0.79228 0.84516 0.0
C725 C 0.66343 0.75035 0.76424 0.0
C726 C 0.97545 0.89346 0.60183 0.0
C727 C 0.98665 0.89413 0.5334 0.0
H728 H 0.97651 0.89125 0.72359 0.0
C729 C 0.008 0.89124 0.53564 0.0
H730 H 0.95893 0.89534 0.60162 0.0
C731 C 0.01813 0.88904 0.60562 0.0
C732 C 0.00702 0.88934 0.67438 0.0
H733 H 0.01699 0.89155 0.48363 0.0
H734 H 0.03471 0.88786 0.60604 0.0
C735 C 0.98552 0.89089 0.67162 0.0
C736 C 0.67246 0.76744 0.30915 0.0
C737 C 0.66748 0.75599 0.37471 0.0
H738 H 0.67819 0.76706 0.18863 0.0
C739 C 0.66383 0.73487 0.36734 0.0
H740 H 0.67546 0.78374 0.31298 0.0
C741 C 0.66527 0.72535 0.29603 0.0
C742 C 0.67065 0.73671 0.23074 0.0
H743 H 0.65995 0.72564 0.41674 0.0
H744 H 0.66243 0.70902 0.29232 0.0
C745 C 0.67416 0.75787 0.23797 0.0
C746 C 0.50129 0.40413 0.66309 0.0
C747 C 0.48213 0.41153 0.6382 0.0
H748 H 0.53285 0.39892 0.63549 0.0
C749 C 0.48027 0.41917 0.56345 0.0
H750 H 0.50325 0.39821 0.72051 0.0
C751 C 0.49723 0.41966 0.51492 0.0
C752 C 0.51646 0.41254 0.54011 0.0
H753 H 0.46575 0.42505 0.54258 0.0
H754 H 0.49527 0.42573 0.45772 0.0
C755 C 0.51829 0.40465 0.61454 0.0
C756 C 0.81604 0.23574 0.70302 0.0
C757 C 0.82805 0.25299 0.68551 0.0
H758 H 0.8095 0.21185 0.78312 0.0
C759 C 0.84379 0.25874 0.73632 0.0
H760 H 0.80385 0.23084 0.66504 0.0
C761 C 0.84702 0.24788 0.80425 0.0
C762 C 0.83464 0.23097 0.82275 0.0
H763 H 0.85338 0.27193 0.72449 0.0
H764 H 0.85898 0.25298 0.84287 0.0
C765 C 0.81931 0.22484 0.77078 0.0
C766 C 0.02347 0.59044 0.1337 0.0
C767 C 0.01837 0.5749 0.18594 0.0
H768 H 0.0173 0.60426 0.02512 0.0
C769 C 0.00263 0.56105 0.16716 0.0
H770 H 0.03556 0.60132 0.14641 0.0
C771 C 0.99213 0.56276 0.0978 0.0
C772 C -0.00279 0.57829 0.04552 0.0
H773 H -0.00167 0.54889 0.20615 0.0
H774 H 0.98003 0.55188 0.08522 0.0
C775 C 0.01303 0.59208 0.0641 0.0
C776 C 0.6447 0.26084 0.31737 0.0
C777 C 0.65595 0.25095 0.37539 0.0
H778 H 0.63235 0.2592 0.20419 0.0
C779 C 0.6623 0.23061 0.36385 0.0
H780 H 0.63942 0.27647 0.32453 0.0
C781 C 0.65815 0.22065 0.29467 0.0
C782 C 0.64759 0.23085 0.23557 0.0
H783 H 0.67088 0.22251 0.4075 0.0
H784 H 0.66374 0.20516 0.28682 0.0
C785 C 0.64058 0.25092 0.2483 0.0
C786 C 0.98146 0.41423 0.37325 0.0
C787 C 0.98402 0.40903 0.45048 0.0
H788 H 0.9959 0.41896 0.26513 0.0
C789 C 0.00361 0.40328 0.47694 0.0
H790 H 0.96658 0.41869 0.35117 0.0
C791 C 0.02042 0.40328 0.4275 0.0
C792 C 0.01799 0.40926 0.35099 0.0
H793 H 0.00603 0.39908 0.5362 0.0
H794 H 0.03539 0.39918 0.44977 0.0
C795 C -0.0017 0.41445 0.3241 0.0
C796 C 0.85457 0.70484 0.69291 0.0
C797 C 0.84402 0.71079 0.75936 0.0
H798 H 0.86505 0.71341 0.58145 0.0
C799 C 0.83665 0.73098 0.76484 0.0
H800 H 0.86056 0.68944 0.68703 0.0
C801 C 0.83926 0.74473 0.70434 0.0
C802 C 0.84934 0.73863 0.63704 0.0
H803 H 0.82855 0.7361 0.81538 0.0
H804 H 0.83301 0.76005 0.70984 0.0
C805 C 0.85723 0.71862 0.63245 0.0
C806 C 0.53139 0.59474 0.86638 0.0
C807 C 0.52439 0.58666 0.93608 0.0
H808 H 0.52384 0.60321 0.75148 0.0
C809 C 0.50348 0.58183 0.94388 0.0
H810 H 0.54739 0.59876 0.85872 0.0
C811 C 0.48995 0.5846 0.88278 0.0
C812 C 0.49705 0.59213 0.81232 0.0
H813 H 0.49754 0.57576 0.99708 0.0
H814 H 0.47403 0.58029 0.89028 0.0
C815 C 0.51787 0.5974 0.80504 0.0
C816 C 0.33047 0.25571 0.56491 0.0
C817 C 0.32362 0.23547 0.55498 0.0
H818 H 0.33347 0.28121 0.64093 0.0
C819 C 0.31451 0.22524 0.61708 0.0
H820 H 0.33755 0.264 0.51822 0.0
C821 C 0.31198 0.23517 0.68718 0.0
C822 C 0.31866 0.25547 0.6969 0.0
H823 H 0.30899 0.20966 0.61126 0.0
H824 H 0.30477 0.22692 0.73368 0.0
C825 C 0.3281 0.26557 0.63523 0.0
C826 C 0.49135 0.58171 0.43955 0.0
C827 C 0.47301 0.57036 0.4382 0.0
H828 H 0.51862 0.59036 0.37976 0.0
C829 C 0.46792 0.55922 0.37222 0.0
H830 H 0.49566 0.59056 0.48945 0.0
C831 C 0.48113 0.55906 0.30945 0.0
C832 C 0.49962 0.57015 0.31126 0.0
H833 H 0.45388 0.55035 0.36939 0.0
H834 H 0.47691 0.55008 0.2598 0.0
C835 C 0.50449 0.58167 0.37661 0.0
C836 C 0.17486 0.76803 0.37328 0.0
C837 C 0.16446 0.74968 0.38944 0.0
H838 H 0.17988 0.79234 0.29325 0.0
C839 C 0.14995 0.74232 0.33647 0.0
H840 H 0.18607 0.77416 0.41295 0.0
C841 C 0.14644 0.7527 0.26778 0.0
C842 C 0.15728 0.77072 0.25058 0.0
H843 H 0.14159 0.72826 0.3472 0.0
H844 H 0.1355 0.74635 0.22757 0.0
C845 C 0.17128 0.77847 0.30466 0.0
C846 C 0.00911 0.42846 0.84465 0.0
C847 C 0.99067 0.41747 0.83675 0.0
H848 H 0.03381 0.43719 0.91829 0.0
C849 C 0.98315 0.40629 0.8993 0.0
H850 H 0.01533 0.43723 0.79746 0.0
C851 C 0.99376 0.40632 0.96873 0.0
C852 C 0.01208 0.41752 0.97684 0.0
H853 H 0.96898 0.39769 0.89495 0.0
H854 H 0.98751 0.39766 0.01612 0.0
C855 C 0.01971 0.42847 0.91396 0.0
C856 C 0.35234 0.74521 0.7934 0.0
C857 C 0.34136 0.76316 0.81045 0.0
H858 H 0.35725 0.72071 0.71432 0.0
C859 C 0.32729 0.77078 0.75634 0.0
H860 H 0.36335 0.73898 0.83362 0.0
C861 C 0.32371 0.76026 0.688 0.0
C862 C 0.33419 0.74194 0.6721 0.0
H863 H 0.3186 0.78461 0.76753 0.0
H864 H 0.31242 0.76628 0.64841 0.0
C865 C 0.34883 0.73474 0.72491 0.0
C866 C 0.97085 0.59715 0.57829 0.0
C867 C 0.97823 0.59265 0.65191 0.0
H868 H 0.97804 0.60045 0.45944 0.0
C869 C -0.00069 0.58891 0.66215 0.0
H870 H 0.95469 0.60008 0.56866 0.0
C871 C 0.01256 0.58877 0.59965 0.0
C872 C 0.00509 0.59266 0.52574 0.0
H873 H 0.0055 0.58532 0.7181 0.0
H874 H 0.02863 0.58536 0.60921 0.0
C875 C 0.9842 0.59731 0.51579 0.0
C876 C 0.14001 0.26493 0.27044 0.0
C877 C 0.14819 0.26278 0.19664 0.0
H878 H 0.13221 0.25015 0.37561 0.0
C879 C 0.15373 0.24314 0.17081 0.0
H880 H 0.13542 0.27981 0.2918 0.0
C881 C 0.15178 0.22611 0.21864 0.0
C882 C 0.14424 0.22835 0.29334 0.0
H883 H 0.15991 0.24092 0.11396 0.0
H884 H 0.15672 0.2113 0.19767 0.0
C885 C 0.13804 0.24788 0.31829 0.0
C886 C 0.515 0.3967 0.10866 0.0
C887 C 0.50879 0.41148 0.1622 0.0
H888 H 0.5089 0.38225 0.00114 0.0
C889 C 0.49056 0.42244 0.14924 0.0
H890 H 0.52896 0.38797 0.1172 0.0
C891 C 0.47907 0.41915 0.08309 0.0
C892 C 0.48558 0.40485 0.02829 0.0
H893 H 0.48527 0.43385 0.18961 0.0
H894 H 0.4653 0.42816 0.07427 0.0
C895 C 0.5035 0.39342 0.04223 0.0
C896 C 0.11769 0.35775 0.08148 0.0
C897 C 0.10989 0.33804 0.06684 0.0
H898 H 0.11118 0.38842 0.11756 0.0
C899 C 0.08902 0.33413 0.08042 0.0
H900 H 0.13374 0.36122 0.07201 0.0
C901 C 0.07614 0.34966 0.10687 0.0
C902 C 0.08383 0.36946 0.12023 0.0
H903 H 0.08256 0.31908 0.07019 0.0
H904 H 0.06007 0.34617 0.11573 0.0
C905 C 0.10479 0.37331 0.10792 0.0
C906 C 0.88024 0.84365 0.42015 0.0
C907 C 0.88661 0.82309 0.41701 0.0
H908 H 0.88818 0.87507 0.40177 0.0
C909 C 0.90644 0.81856 0.39046 0.0
H910 H 0.86498 0.84762 0.43968 0.0
C911 C 0.91976 0.83431 0.3688 0.0
C912 C 0.91344 0.85487 0.37255 0.0
H913 H 0.91177 0.80286 0.38701 0.0
H914 H 0.93506 0.83035 0.34976 0.0
C915 C 0.89348 0.85937 0.39776 0.0
C916 C 0.40512 0.663 0.54151 0.0
C917 C 0.38415 0.65806 0.54067 0.0
H918 H 0.43565 0.65306 0.56595 0.0
C919 C 0.37799 0.63837 0.564 0.0
H920 H 0.41039 0.67803 0.52392 0.0
C921 C 0.39253 0.62403 0.58877 0.0
C922 C 0.41349 0.62909 0.59024 0.0
H923 H 0.36192 0.63413 0.56428 0.0
H924 H 0.38734 0.60902 0.60677 0.0
C925 C 0.41962 0.64868 0.56585 0.0
C926 C 0.58405 0.16446 0.9557 0.0
C927 C 0.60427 0.15843 0.97222 0.0
H928 H 0.55521 0.15639 0.90595 0.0
C929 C 0.61071 0.13863 0.95134 0.0
H930 H 0.57859 0.1796 0.97091 0.0
C931 C 0.59728 0.12531 0.91353 0.0
C932 C 0.57715 0.13151 0.89603 0.0
H933 H 0.62623 0.13355 0.963 0.0
H934 H 0.60271 0.1102 0.89774 0.0
C935 C 0.57065 0.15116 0.9181 0.0
C936 C 0.10762 0.63042 0.46148 0.0
C937 C 0.08721 0.63541 0.44319 0.0
H938 H 0.13662 0.64111 0.5032 0.0
C939 C 0.08038 0.65561 0.4545 0.0
H940 H 0.11332 0.61496 0.45382 0.0
C941 C 0.09369 0.67055 0.48293 0.0
C942 C 0.11411 0.66562 0.50093 0.0
H943 H 0.06473 0.65996 0.44129 0.0
H944 H 0.08795 0.686 0.49033 0.0
C945 C 0.12094 0.64537 0.49023 0.0
C946 C 0.62476 0.85548 0.59624 0.0
C947 C 0.61895 0.83484 0.58799 0.0
H948 H 0.61506 0.88617 0.62049 0.0
C949 C 0.59832 0.8294 0.59904 0.0
H950 H 0.64056 0.86015 0.5883 0.0
C951 C 0.58379 0.84424 0.618 0.0
C952 C 0.58953 0.86489 0.62602 0.0
H953 H 0.59334 0.81363 0.59346 0.0
H954 H 0.568 0.8395 0.62586 0.0
C955 C 0.61017 0.87038 0.61492 0.0
C956 C 0.38856 0.3673 0.85565 0.0
C957 C 0.40873 0.36138 0.83771 0.0
H958 H 0.35775 0.35757 0.87781 0.0
C959 C 0.41312 0.34048 0.8275 0.0
H960 H 0.38471 0.38329 0.86407 0.0
C961 C 0.3977 0.32579 0.83528 0.0
C962 C 0.37757 0.33165 0.85377 0.0
H963 H 0.42849 0.3354 0.81364 0.0
H964 H 0.40163 0.30981 0.82705 0.0
C965 C 0.37314 0.35256 0.8638 0.0
C966 C 0.8669 0.13395 0.07346 0.0
C967 C 0.8738 0.15429 0.06652 0.0
H968 H 0.87453 0.10297 0.10259 0.0
C969 C 0.8943 0.15884 0.08471 0.0
H970 H 0.85115 0.12997 0.06029 0.0
C971 C 0.90764 0.14343 0.10915 0.0
C972 C 0.90079 0.1231 0.11615 0.0
H973 H 0.90011 0.17436 0.08028 0.0
H974 H 0.92337 0.14749 0.12229 0.0
C975 C 0.88026 0.11851 0.09818 0.0
C976 C 0.8786 0.6293 0.93599 0.0
C977 C 0.88268 0.6493 0.96179 0.0
H978 H 0.89111 0.60061 0.89923 0.0
C979 C 0.90314 0.65544 0.97231 0.0
H980 H 0.86299 0.62412 0.92724 0.0
C981 C 0.91922 0.64201 0.95618 0.0
C982 C 0.91519 0.62214 0.92912 0.0
H983 H 0.90681 0.67073 0.9922 0.0
H984 H 0.93482 0.64732 0.96431 0.0
C985 C 0.89472 0.61585 0.91977 0.0
C986 C 0.10499 0.13824 0.55846 0.0
C987 C 0.09877 0.15875 0.54994 0.0
H988 H 0.09622 0.10762 0.5884 0.0
C989 C 0.07825 0.16397 0.56501 0.0
H990 H 0.12071 0.13374 0.54749 0.0
C991 C 0.06427 0.14905 0.58845 0.0
C992 C 0.07049 0.12857 0.59761 0.0
H993 H 0.07296 0.17963 0.55906 0.0
H994 H 0.04858 0.15363 0.59963 0.0
C995 C 0.09098 0.1233 0.58222 0.0
C996 C 0.60435 0.36968 0.43546 0.0
C997 C 0.58412 0.36407 0.41669 0.0
H998 H 0.63335 0.36006 0.48093 0.0
C999 C 0.57752 0.34401 0.43229 0.0
H1000 H 0.60986 0.38507 0.42464 0.0
C1001 C 0.59091 0.32975 0.46475 0.0
C1002 C 0.61122 0.33521 0.4825 0.0
H1003 H 0.56201 0.33921 0.419 0.0
H1004 H 0.58537 0.31434 0.475 0.0
C1005 C 0.61776 0.35539 0.46817 0.0
C1006 C 0.40637 0.83103 0.04809 0.0
C1007 C 0.38546 0.83627 0.04713 0.0
H1008 H 0.43705 0.84064 0.07227 0.0
C1009 C 0.37953 0.85595 0.07121 0.0
H1010 H 0.41143 0.81598 0.03002 0.0
C1011 C 0.39423 0.87004 0.09635 0.0
C1012 C 0.41515 0.86478 0.09713 0.0
H1013 H 0.36352 0.86039 0.07159 0.0
H1014 H 0.38922 0.8851 0.11453 0.0
C1015 C 0.42105 0.84516 0.07251 0.0
C1016 C 0.91884 0.34241 0.58049 0.0
C1017 C 0.9135 0.36285 0.59598 0.0
H1018 H 0.90855 0.31257 0.54793 0.0
C1019 C 0.89288 0.36888 0.58844 0.0
H1020 H 0.9346 0.33727 0.58547 0.0
C1021 C 0.8779 0.35469 0.56647 0.0
C1022 C 0.88326 0.33419 0.55185 0.0
H1023 H 0.88828 0.38455 0.59962 0.0
H1024 H 0.86212 0.35974 0.56183 0.0
C1025 C 0.9039 0.32824 0.55876 0.0
C1026 C 0.36656 0.13799 0.33963 0.0
C1027 C 0.3711 0.15858 0.35606 0.0
H1028 H 0.37842 0.10811 0.31462 0.0
C1029 C 0.39172 0.16481 0.35914 0.0
H1030 H 0.35081 0.13274 0.33656 0.0
C1031 C 0.40748 0.15077 0.34635 0.0
C1032 C 0.40299 0.13017 0.33017 0.0
H1033 H 0.39576 0.18058 0.37142 0.0
H1034 H 0.4232 0.15611 0.34953 0.0
C1035 C 0.38237 0.12391 0.32677 0.0
C1036 C 0.59157 0.66561 0.12291 0.0
C1037 C 0.61134 0.6601 0.09844 0.0
H1038 H 0.56196 0.65528 0.15906 0.0
C1039 C 0.61639 0.63922 0.09249 0.0
H1040 H 0.58721 0.68157 0.12821 0.0
C1041 C 0.60199 0.62417 0.11095 0.0
C1042 C 0.58219 0.62968 0.13511 0.0
H1043 H 0.63153 0.63448 0.07416 0.0
H1044 H 0.60634 0.6082 0.10554 0.0
C1045 C 0.57711 0.65055 0.14076 0.0
C1046 C 0.1028 0.87573 0.95645 0.0
C1047 C 0.08207 0.86974 0.95703 0.0
H1048 H 0.13376 0.86779 0.98544 0.0
C1049 C 0.07665 0.85122 0.99269 0.0
H1050 H 0.10744 0.88998 0.92984 0.0
C1051 C 0.09165 0.83859 0.02463 0.0
C1052 C 0.11245 0.84417 0.02175 0.0
H1053 H 0.06081 0.84623 0.99481 0.0
H1054 H 0.08694 0.82419 0.05002 0.0
C1055 C 0.11786 0.86306 0.98859 0.0
loop_
_geom_bond_atom_site_label_1
_geom_bond_atom_site_label_2
_geom_bond_distance
_geom_bond_site_symmetry_2
_ccdc_geom_bond_type
C0 O1 1.160 . S
C0 O7 1.185 . S
O1 C0 1.160 . S
O2 Zn3 1.899 1_556 S
O2 C10 1.284 . S
Zn3 O2 1.899 1_554 S
Zn3 O4 2.032 . S
Zn3 O7 2.086 . S
Zn3 O12 1.977 . S
O4 Zn3 2.032 . S
O4 C8 1.278 . S
C5 O6 1.203 1_554 S
C5 O12 1.267 . S
O6 C5 1.203 1_556 S
O7 C0 1.185 . S
O7 Zn3 2.086 . S
C8 O4 1.278 . S
C8 O9 1.211 . S
O9 C8 1.211 . S
C10 O2 1.284 . S
C10 O11 1.273 . S
O11 C10 1.273 . S
O12 Zn3 1.977 . S
O12 C5 1.267 . S
C13 O14 1.160 . S
C13 O20 1.185 . S
O14 C13 1.160 . S
O15 Zn16 1.899 . S
O15 C23 1.284 . S
Zn16 O15 1.899 . S
Zn16 O17 2.032 . S
Zn16 O20 2.086 . S
Zn16 O25 1.977 . S
O17 Zn16 2.032 . S
O17 C21 1.278 . S
C18 O19 1.203 . S
C18 O25 1.267 . S
O19 C18 1.203 . S
O20 C13 1.185 . S
O20 Zn16 2.086 . S
C21 O17 1.278 . S
C21 O22 1.211 . S
O22 C21 1.211 . S
C23 O15 1.284 . S
C23 O24 1.273 . S
O24 C23 1.273 . S
O25 Zn16 1.977 . S
O25 C18 1.267 . S
C26 O27 1.160 . S
C26 O33 1.185 . S
O27 C26 1.160 . S
O28 Zn29 1.899 . S
O28 C36 1.284 . S
Zn29 O28 1.899 . S
Zn29 O30 2.032 . S
Zn29 O33 2.086 . S
Zn29 O38 1.977 . S
O30 Zn29 2.032 . S
O30 C34 1.278 . S
C31 O32 1.203 . S
C31 O38 1.267 . S
O32 C31 1.203 . S
O33 C26 1.185 . S
O33 Zn29 2.086 . S
C34 O30 1.278 . S
C34 O35 1.211 . S
O35 C34 1.211 . S
C36 O28 1.284 . S
C36 O37 1.273 . S
O37 C36 1.273 . S
O38 Zn29 1.977 . S
O38 C31 1.267 . S
C39 O40 1.160 . S
C39 O46 1.185 . S
O40 C39 1.160 . S
O41 Zn42 1.899 . S
O41 C49 1.284 . S
Zn42 O41 1.899 . S
Zn42 O43 2.032 . S
Zn42 O46 2.086 . S
Zn42 O51 1.977 . S
O43 Zn42 2.032 . S
O43 C47 1.278 . S
C44 O45 1.203 . S
C44 O51 1.267 . S
O45 C44 1.203 . S
O46 C39 1.185 . S
O46 Zn42 2.086 . S
C47 O43 1.278 . S
C47 O48 1.211 . S
O48 C47 1.211 . S
C49 O41 1.284 . S
C49 O50 1.273 . S
O50 C49 1.273 . S
O51 Zn42 1.977 . S
O51 C44 1.267 . S
C52 O53 1.160 . S
C52 O59 1.185 . S
O53 C52 1.160 . S
O54 Zn55 1.899 . S
O54 C62 1.284 . S
Zn55 O54 1.899 . S
Zn55 O56 2.032 . S
Zn55 O59 2.086 . S
Zn55 O64 1.977 . S
O56 Zn55 2.032 . S
O56 C60 1.278 . S
C57 O58 1.203 . S
C57 O64 1.267 . S
O58 C57 1.203 . S
O59 C52 1.185 . S
O59 Zn55 2.086 . S
C60 O56 1.278 . S
C60 O61 1.211 . S
O61 C60 1.211 . S
C62 O54 1.284 . S
C62 O63 1.273 . S
O63 C62 1.273 . S
O64 Zn55 1.977 . S
O64 C57 1.267 . S
C65 O66 1.160 . S
C65 O72 1.185 . S
O66 C65 1.160 . S
O67 Zn68 1.899 . S
O67 C75 1.284 . S
Zn68 O67 1.899 . S
Zn68 O69 2.032 . S
Zn68 O72 2.086 . S
Zn68 O77 1.977 . S
O69 Zn68 2.032 . S
O69 C73 1.278 . S
C70 O71 1.203 . S
C70 O77 1.267 . S
O71 C70 1.203 . S
O72 C65 1.185 . S
O72 Zn68 2.086 . S
C73 O69 1.278 . S
C73 O74 1.211 . S
O74 C73 1.211 . S
C75 O67 1.284 . S
C75 O76 1.273 . S
O76 C75 1.273 . S
O77 Zn68 1.977 . S
O77 C70 1.267 . S
C78 O79 1.160 . S
C78 O85 1.185 . S
O79 C78 1.160 . S
O80 Zn81 1.899 1_554 S
O80 C88 1.284 . S
Zn81 O80 1.899 1_556 S
Zn81 O82 2.032 . S
Zn81 O85 2.086 . S
Zn81 O90 1.977 . S
O82 Zn81 2.032 . S
O82 C86 1.278 . S
C83 O84 1.203 1_556 S
C83 O90 1.267 . S
O84 C83 1.203 1_554 S
O85 C78 1.185 . S
O85 Zn81 2.086 . S
C86 O82 1.278 . S
C86 O87 1.211 . S
O87 C86 1.211 . S
C88 O80 1.284 . S
C88 O89 1.273 . S
O89 C88 1.273 . S
O90 Zn81 1.977 . S
O90 C83 1.267 . S
C91 O92 1.160 . S
C91 O98 1.185 . S
O92 C91 1.160 . S
O93 Zn94 1.899 . S
O93 C101 1.284 . S
Zn94 O93 1.899 . S
Zn94 O95 2.032 . S
Zn94 O98 2.086 . S
Zn94 O103 1.977 . S
O95 Zn94 2.032 . S
O95 C99 1.278 . S
C96 O97 1.203 . S
C96 O103 1.267 . S
O97 C96 1.203 . S
O98 C91 1.185 . S
O98 Zn94 2.086 . S
C99 O95 1.278 . S
C99 O100 1.211 . S
O100 C99 1.211 . S
C101 O93 1.284 . S
C101 O102 1.273 . S
O102 C101 1.273 . S
O103 Zn94 1.977 . S
O103 C96 1.267 . S
C104 O105 1.160 . S
C104 O111 1.185 . S
O105 C104 1.160 . S
O106 Zn107 1.899 1_554 S
O106 C114 1.284 . S
Zn107 O106 1.899 1_556 S
Zn107 O108 2.032 . S
Zn107 O111 2.086 . S
Zn107 O116 1.977 . S
O108 Zn107 2.032 . S
O108 C112 1.278 . S
C109 O110 1.203 1_556 S
C109 O116 1.267 . S
O110 C109 1.203 1_554 S
O111 C104 1.185 . S
O111 Zn107 2.086 . S
C112 O108 1.278 . S
C112 O113 1.211 . S
O113 C112 1.211 . S
C114 O106 1.284 . S
C114 O115 1.273 . S
O115 C114 1.273 . S
O116 Zn107 1.977 . S
O116 C109 1.267 . S
C117 O118 1.160 . S
C117 O124 1.185 . S
O118 C117 1.160 . S
O119 Zn120 1.899 . S
O119 C127 1.284 . S
Zn120 O119 1.899 . S
Zn120 O121 2.032 . S
Zn120 O124 2.086 . S
Zn120 O129 1.977 . S
O121 Zn120 2.032 . S
O121 C125 1.278 . S
C122 O123 1.203 . S
C122 O129 1.267 . S
O123 C122 1.203 . S
O124 C117 1.185 . S
O124 Zn120 2.086 . S
C125 O121 1.278 . S
C125 O126 1.211 . S
O126 C125 1.211 . S
C127 O119 1.284 . S
C127 O128 1.273 . S
O128 C127 1.273 . S
O129 Zn120 1.977 . S
O129 C122 1.267 . S
C130 O131 1.160 . S
C130 O137 1.185 . S
O131 C130 1.160 . S
O132 Zn133 1.899 . S
O132 C140 1.284 . S
Zn133 O132 1.899 . S
Zn133 O134 2.032 . S
Zn133 O137 2.086 . S
Zn133 O142 1.977 . S
O134 Zn133 2.032 . S
O134 C138 1.278 . S
C135 O136 1.203 . S
C135 O142 1.267 . S
O136 C135 1.203 . S
O137 C130 1.185 . S
O137 Zn133 2.086 . S
C138 O134 1.278 . S
C138 O139 1.211 . S
O139 C138 1.211 . S
C140 O132 1.284 . S
C140 O141 1.273 . S
O141 C140 1.273 . S
O142 Zn133 1.977 . S
O142 C135 1.267 . S
C143 O144 1.160 . S
C143 O150 1.185 . S
O144 C143 1.160 . S
O145 Zn146 1.899 . S
O145 C153 1.284 . S
Zn146 O145 1.899 . S
Zn146 O147 2.032 . S
Zn146 O150 2.086 . S
Zn146 O155 1.977 . S
O147 Zn146 2.032 . S
O147 C151 1.278 . S
C148 O149 1.203 . S
C148 O155 1.267 . S
O149 C148 1.203 . S
O150 C143 1.185 . S
O150 Zn146 2.086 . S
C151 O147 1.278 . S
C151 O152 1.211 . S
O152 C151 1.211 . S
C153 O145 1.284 . S
C153 O154 1.273 . S
O154 C153 1.273 . S
O155 Zn146 1.977 . S
O155 C148 1.267 . S
C156 O157 1.160 . S
C156 O163 1.185 . S
O157 C156 1.160 . S
O158 Zn159 1.899 . S
O158 C166 1.284 . S
Zn159 O158 1.899 . S
Zn159 O160 2.032 . S
Zn159 O163 2.086 . S
Zn159 O168 1.977 . S
O160 Zn159 2.032 . S
O160 C164 1.278 . S
C161 O162 1.203 . S
C161 O168 1.267 . S
O162 C161 1.203 . S
O163 C156 1.185 . S
O163 Zn159 2.086 . S
C164 O160 1.278 . S
C164 O165 1.211 . S
O165 C164 1.211 . S
C166 O158 1.284 . S
C166 O167 1.273 . S
O167 C166 1.273 . S
O168 Zn159 1.977 . S
O168 C161 1.267 . S
C169 O170 1.160 . S
C169 O176 1.185 . S
O170 C169 1.160 . S
O171 Zn172 1.899 . S
O171 C179 1.284 . S
Zn172 O171 1.899 . S
Zn172 O173 2.032 . S
Zn172 O176 2.086 . S
Zn172 O181 1.977 . S
O173 Zn172 2.032 . S
O173 C177 1.278 . S
C174 O175 1.203 . S
C174 O181 1.267 . S
O175 C174 1.203 . S
O176 C169 1.185 . S
O176 Zn172 2.086 . S
C177 O173 1.278 . S
C177 O178 1.211 . S
O178 C177 1.211 . S
C179 O171 1.284 . S
C179 O180 1.273 . S
O180 C179 1.273 . S
O181 Zn172 1.977 . S
O181 C174 1.267 . S
C182 O183 1.160 . S
C182 O189 1.185 . S
O183 C182 1.160 . S
O184 Zn185 1.899 1_556 S
O184 C192 1.284 . S
Zn185 O184 1.899 1_554 S
Zn185 O186 2.032 . S
Zn185 O189 2.086 . S
Zn185 O194 1.977 . S
O186 Zn185 2.032 . S
O186 C190 1.278 . S
C187 O188 1.203 1_554 S
C187 O194 1.267 . S
O188 C187 1.203 1_556 S
O189 C182 1.185 . S
O189 Zn185 2.086 . S
C190 O186 1.278 . S
C190 O191 1.211 . S
O191 C190 1.211 . S
C192 O184 1.284 . S
C192 O193 1.273 . S
O193 C192 1.273 . S
O194 Zn185 1.977 . S
O194 C187 1.267 . S
C195 O196 1.160 . S
C195 O202 1.185 . S
O196 C195 1.160 . S
O197 Zn198 1.899 . S
O197 C205 1.284 . S
Zn198 O197 1.899 . S
Zn198 O199 2.032 . S
Zn198 O202 2.086 . S
Zn198 O207 1.977 . S
O199 Zn198 2.032 . S
O199 C203 1.278 . S
C200 O201 1.203 . S
C200 O207 1.267 . S
O201 C200 1.203 . S
O202 C195 1.185 . S
O202 Zn198 2.086 . S
C203 O199 1.278 . S
C203 O204 1.211 . S
O204 C203 1.211 . S
C205 O197 1.284 . S
C205 O206 1.273 . S
O206 C205 1.273 . S
O207 Zn198 1.977 . S
O207 C200 1.267 . S
C208 O209 1.160 . S
C208 O215 1.185 . S
O209 C208 1.160 . S
O210 Zn211 1.899 . S
O210 C218 1.284 . S
Zn211 O210 1.899 . S
Zn211 O212 2.032 . S
Zn211 O215 2.086 . S
Zn211 O220 1.977 . S
O212 Zn211 2.032 . S
O212 C216 1.278 . S
C213 O214 1.203 . S
C213 O220 1.267 . S
O214 C213 1.203 . S
O215 C208 1.185 . S
O215 Zn211 2.086 . S
C216 O212 1.278 . S
C216 O217 1.211 . S
O217 C216 1.211 . S
C218 O210 1.284 . S
C218 O219 1.273 . S
O219 C218 1.273 . S
O220 Zn211 1.977 . S
O220 C213 1.267 . S
C221 O222 1.160 . S
C221 O228 1.185 . S
O222 C221 1.160 . S
O223 Zn224 1.899 . S
O223 C231 1.284 . S
Zn224 O223 1.899 . S
Zn224 O225 2.032 . S
Zn224 O228 2.086 . S
Zn224 O233 1.977 . S
O225 Zn224 2.032 . S
O225 C229 1.278 . S
C226 O227 1.203 . S
C226 O233 1.267 . S
O227 C226 1.203 . S
O228 C221 1.185 . S
O228 Zn224 2.086 . S
C229 O225 1.278 . S
C229 O230 1.211 . S
O230 C229 1.211 . S
C231 O223 1.284 . S
C231 O232 1.273 . S
O232 C231 1.273 . S
O233 Zn224 1.977 . S
O233 C226 1.267 . S
C234 O235 1.160 . S
C234 O241 1.185 . S
O235 C234 1.160 . S
O236 Zn237 1.899 1_556 S
O236 C244 1.284 . S
Zn237 O236 1.899 1_554 S
Zn237 O238 2.032 . S
Zn237 O241 2.086 . S
Zn237 O246 1.977 . S
O238 Zn237 2.032 . S
O238 C242 1.278 . S
C239 O240 1.203 1_554 S
C239 O246 1.267 . S
O240 C239 1.203 1_556 S
O241 C234 1.185 . S
O241 Zn237 2.086 . S
C242 O238 1.278 . S
C242 O243 1.211 . S
O243 C242 1.211 . S
C244 O236 1.284 . S
C244 O245 1.273 . S
O245 C244 1.273 . S
O246 Zn237 1.977 . S
O246 C239 1.267 . S
C247 O248 1.160 . S
C247 O254 1.185 . S
O248 C247 1.160 . S
O249 Zn250 1.899 . S
O249 C257 1.284 . S
Zn250 O249 1.899 . S
Zn250 O251 2.032 . S
Zn250 O254 2.086 . S
Zn250 O259 1.977 . S
O251 Zn250 2.032 . S
O251 C255 1.278 . S
C252 O253 1.203 . S
C252 O259 1.267 . S
O253 C252 1.203 . S
O254 C247 1.185 . S
O254 Zn250 2.086 . S
C255 O251 1.278 . S
C255 O256 1.211 . S
O256 C255 1.211 . S
C257 O249 1.284 . S
C257 O258 1.273 . S
O258 C257 1.273 . S
O259 Zn250 1.977 . S
O259 C252 1.267 . S
C260 O261 1.160 . S
C260 O267 1.185 . S
O261 C260 1.160 . S
O262 Zn263 1.899 1_554 S
O262 C270 1.284 . S
Zn263 O262 1.899 1_556 S
Zn263 O264 2.032 . S
Zn263 O267 2.086 . S
Zn263 O272 1.977 . S
O264 Zn263 2.032 . S
O264 C268 1.278 . S
C265 O266 1.203 1_556 S
C265 O272 1.267 . S
O266 C265 1.203 1_554 S
O267 C260 1.185 . S
O267 Zn263 2.086 . S
C268 O264 1.278 . S
C268 O269 1.211 . S
O269 C268 1.211 . S
C270 O262 1.284 . S
C270 O271 1.273 . S
O271 C270 1.273 . S
O272 Zn263 1.977 . S
O272 C265 1.267 . S
C273 O274 1.160 . S
C273 O280 1.185 . S
O274 C273 1.160 . S
O275 Zn276 1.899 . S
O275 C283 1.284 . S
Zn276 O275 1.899 . S
Zn276 O277 2.032 . S
Zn276 O280 2.086 . S
Zn276 O285 1.977 . S
O277 Zn276 2.032 . S
O277 C281 1.278 . S
C278 O279 1.203 . S
C278 O285 1.267 . S
O279 C278 1.203 . S
O280 C273 1.185 . S
O280 Zn276 2.086 . S
C281 O277 1.278 . S
C281 O282 1.211 . S
O282 C281 1.211 . S
C283 O275 1.284 . S
C283 O284 1.273 . S
O284 C283 1.273 . S
O285 Zn276 1.977 . S
O285 C278 1.267 . S
C286 O287 1.160 . S
C286 O293 1.185 . S
O287 C286 1.160 . S
O288 Zn289 1.899 . S
O288 C296 1.284 . S
Zn289 O288 1.899 . S
Zn289 O290 2.032 . S
Zn289 O293 2.086 . S
Zn289 O298 1.977 . S
O290 Zn289 2.032 . S
O290 C294 1.278 . S
C291 O292 1.203 . S
C291 O298 1.267 . S
O292 C291 1.203 . S
O293 C286 1.185 . S
O293 Zn289 2.086 . S
C294 O290 1.278 . S
C294 O295 1.211 . S
O295 C294 1.211 . S
C296 O288 1.284 . S
C296 O297 1.273 . S
O297 C296 1.273 . S
O298 Zn289 1.977 . S
O298 C291 1.267 . S
C299 O300 1.160 . S
C299 O306 1.185 . S
O300 C299 1.160 . S
O301 Zn302 1.899 . S
O301 C309 1.284 . S
Zn302 O301 1.899 . S
Zn302 O303 2.032 . S
Zn302 O306 2.086 . S
Zn302 O311 1.977 . S
O303 Zn302 2.032 . S
O303 C307 1.278 . S
C304 O305 1.203 . S
C304 O311 1.267 . S
O305 C304 1.203 . S
O306 C299 1.185 . S
O306 Zn302 2.086 . S
C307 O303 1.278 . S
C307 O308 1.211 . S
O308 C307 1.211 . S
C309 O301 1.284 . S
C309 O310 1.273 . S
O310 C309 1.273 . S
O311 Zn302 1.977 . S
O311 C304 1.267 . S
C312 O313 1.160 . S
C312 O319 1.185 . S
O313 C312 1.160 . S
O314 Zn315 1.899 . S
O314 C322 1.284 . S
Zn315 O314 1.899 . S
Zn315 O316 2.032 . S
Zn315 O319 2.086 . S
Zn315 O324 1.977 . S
O316 Zn315 2.032 . S
O316 C320 1.278 . S
C317 O318 1.203 . S
C317 O324 1.267 . S
O318 C317 1.203 . S
O319 C312 1.185 . S
O319 Zn315 2.086 . S
C320 O316 1.278 . S
C320 O321 1.211 . S
O321 C320 1.211 . S
C322 O314 1.284 . S
C322 O323 1.273 . S
O323 C322 1.273 . S
O324 Zn315 1.977 . S
O324 C317 1.267 . S
C325 O326 1.160 . S
C325 O332 1.185 . S
O326 C325 1.160 . S
O327 Zn328 1.899 . S
O327 C335 1.284 . S
Zn328 O327 1.899 . S
Zn328 O329 2.032 . S
Zn328 O332 2.086 . S
Zn328 O337 1.977 . S
O329 Zn328 2.032 . S
O329 C333 1.278 . S
C330 O331 1.203 . S
C330 O337 1.267 . S
O331 C330 1.203 . S
O332 C325 1.185 . S
O332 Zn328 2.086 . S
C333 O329 1.278 . S
C333 O334 1.211 . S
O334 C333 1.211 . S
C335 O327 1.284 . S
C335 O336 1.273 . S
O336 C335 1.273 . S
O337 Zn328 1.977 . S
O337 C330 1.267 . S
C338 O339 1.160 . S
C338 O345 1.185 . S
O339 C338 1.160 . S
O340 Zn341 1.899 1_554 S
O340 C348 1.284 . S
Zn341 O340 1.899 1_556 S
Zn341 O342 2.032 . S
Zn341 O345 2.086 . S
Zn341 O350 1.977 . S
O342 Zn341 2.032 . S
O342 C346 1.278 . S
C343 O344 1.203 1_556 S
C343 O350 1.267 . S
O344 C343 1.203 1_554 S
O345 C338 1.185 . S
O345 Zn341 2.086 . S
C346 O342 1.278 . S
C346 O347 1.211 . S
O347 C346 1.211 . S
C348 O340 1.284 . S
C348 O349 1.273 . S
O349 C348 1.273 . S
O350 Zn341 1.977 . S
O350 C343 1.267 . S
C351 O352 1.160 . S
C351 O358 1.185 . S
O352 C351 1.160 . S
O353 Zn354 1.899 . S
O353 C361 1.284 . S
Zn354 O353 1.899 . S
Zn354 O355 2.032 . S
Zn354 O358 2.086 . S
Zn354 O363 1.977 . S
O355 Zn354 2.032 . S
O355 C359 1.278 . S
C356 O357 1.203 . S
C356 O363 1.267 . S
O357 C356 1.203 . S
O358 C351 1.185 . S
O358 Zn354 2.086 . S
C359 O355 1.278 . S
C359 O360 1.211 . S
O360 C359 1.211 . S
C361 O353 1.284 . S
C361 O362 1.273 . S
O362 C361 1.273 . S
O363 Zn354 1.977 . S
O363 C356 1.267 . S
C364 O365 1.160 . S
C364 O371 1.185 . S
O365 C364 1.160 . S
O366 Zn367 1.899 1_556 S
O366 C374 1.284 . S
Zn367 O366 1.899 1_554 S
Zn367 O368 2.032 . S
Zn367 O371 2.086 . S
Zn367 O376 1.977 . S
O368 Zn367 2.032 . S
O368 C372 1.278 . S
C369 O370 1.203 1_554 S
C369 O376 1.267 . S
O370 C369 1.203 1_556 S
O371 C364 1.185 . S
O371 Zn367 2.086 . S
C372 O368 1.278 . S
C372 O373 1.211 . S
O373 C372 1.211 . S
C374 O366 1.284 . S
C374 O375 1.273 . S
O375 C374 1.273 . S
O376 Zn367 1.977 . S
O376 C369 1.267 . S
C377 O378 1.160 . S
C377 O384 1.185 . S
O378 C377 1.160 . S
O379 Zn380 1.899 . S
O379 C387 1.284 . S
Zn380 O379 1.899 . S
Zn380 O381 2.032 . S
Zn380 O384 2.086 . S
Zn380 O389 1.977 . S
O381 Zn380 2.032 . S
O381 C385 1.278 . S
C382 O383 1.203 . S
C382 O389 1.267 . S
O383 C382 1.203 . S
O384 C377 1.185 . S
O384 Zn380 2.086 . S
C385 O381 1.278 . S
C385 O386 1.211 . S
O386 C385 1.211 . S
C387 O379 1.284 . S
C387 O388 1.273 . S
O388 C387 1.273 . S
O389 Zn380 1.977 . S
O389 C382 1.267 . S
C390 O391 1.160 . S
C390 O397 1.185 . S
O391 C390 1.160 . S
O392 Zn393 1.899 . S
O392 C400 1.284 . S
Zn393 O392 1.899 . S
Zn393 O394 2.032 . S
Zn393 O397 2.086 . S
Zn393 O402 1.977 . S
O394 Zn393 2.032 . S
O394 C398 1.278 . S
C395 O396 1.203 . S
C395 O402 1.267 . S
O396 C395 1.203 . S
O397 C390 1.185 . S
O397 Zn393 2.086 . S
C398 O394 1.278 . S
C398 O399 1.211 . S
O399 C398 1.211 . S
C400 O392 1.284 . S
C400 O401 1.273 . S
O401 C400 1.273 . S
O402 Zn393 1.977 . S
O402 C395 1.267 . S
C403 O404 1.160 . S
C403 O410 1.185 . S
O404 C403 1.160 . S
O405 Zn406 1.899 . S
O405 C413 1.284 . S
Zn406 O405 1.899 . S
Zn406 O407 2.032 . S
Zn406 O410 2.086 . S
Zn406 O415 1.977 . S
O407 Zn406 2.032 . S
O407 C411 1.278 . S
C408 O409 1.203 . S
C408 O415 1.267 . S
O409 C408 1.203 . S
O410 C403 1.185 . S
O410 Zn406 2.086 . S
C411 O407 1.278 . S
C411 O412 1.211 . S
O412 C411 1.211 . S
C413 O405 1.284 . S
C413 O414 1.273 . S
O414 C413 1.273 . S
O415 Zn406 1.977 . S
O415 C408 1.267 . S
C416 C417 1.387 . S
C416 H420 0.950 . S
C416 C425 1.390 1_556 S
C417 C416 1.387 . S
C417 C419 1.387 . S
H418 C425 0.950 . S
C419 C417 1.387 . S
C419 C421 1.390 1_556 S
C419 H423 0.950 . S
H420 C416 0.950 . S
C421 C419 1.390 1_554 S
C421 C422 1.387 . S
C421 H424 0.950 . S
C422 C421 1.387 . S
C422 C425 1.387 . S
H423 C419 0.950 . S
H424 C421 0.950 . S
C425 C416 1.390 1_554 S
C425 H418 0.950 . S
C425 C422 1.387 . S
C426 C427 1.387 . S
C426 H430 0.950 . S
C426 C435 1.390 1_565 S
C427 C426 1.387 . S
C427 C429 1.387 . S
H428 C435 0.950 . S
C429 C427 1.387 . S
C429 C431 1.390 1_565 S
C429 H433 0.950 . S
H430 C426 0.950 . S
C431 C429 1.390 1_545 S
C431 C432 1.387 . S
C431 H434 0.950 . S
C432 C431 1.387 . S
C432 C435 1.387 . S
H433 C429 0.950 . S
H434 C431 0.950 . S
C435 C426 1.390 1_545 S
C435 H428 0.950 . S
C435 C432 1.387 . S
C436 C437 1.387 . S
C436 H440 0.950 . S
C436 C445 1.390 . S
C437 C436 1.387 . S
C437 C439 1.387 . S
H438 C445 0.950 . S
C439 C437 1.387 . S
C439 C441 1.390 . S
C439 H443 0.950 . S
H440 C436 0.950 . S
C441 C439 1.390 . S
C441 C442 1.387 . S
C441 H444 0.950 . S
C442 C441 1.387 . S
C442 C445 1.387 . S
H443 C439 0.950 . S
H444 C441 0.950 . S
C445 C436 1.390 . S
C445 H438 0.950 . S
C445 C442 1.387 . S
C446 C447 1.387 . S
C446 H450 0.950 . S
C446 C455 1.390 1_545 S
C447 C446 1.387 . S
C447 C449 1.387 . S
H448 C455 0.950 . S
C449 C447 1.387 . S
C449 C451 1.390 1_545 S
C449 H453 0.950 . S
H450 C446 0.950 . S
C451 C449 1.390 1_565 S
C451 C452 1.387 . S
C451 H454 0.950 . S
C452 C451 1.387 . S
C452 C455 1.387 . S
H453 C449 0.950 . S
H454 C451 0.950 . S
C455 C446 1.390 1_565 S
C455 H448 0.950 . S
C455 C452 1.387 . S
C456 C457 1.387 . S
C456 H460 0.950 . S
C456 C465 1.390 1_554 S
C457 C456 1.387 . S
C457 C459 1.387 . S
H458 C465 0.950 . S
C459 C457 1.387 . S
C459 C461 1.390 1_554 S
C459 H463 0.950 . S
H460 C456 0.950 . S
C461 C459 1.390 1_556 S
C461 C462 1.387 . S
C461 H464 0.950 . S
C462 C461 1.387 . S
C462 C465 1.387 . S
H463 C459 0.950 . S
H464 C461 0.950 . S
C465 C456 1.390 1_556 S
C465 H458 0.950 . S
C465 C462 1.387 . S
C466 C467 1.387 . S
C466 H470 0.950 . S
C466 C475 1.390 1_565 S
C467 C466 1.387 . S
C467 C469 1.387 . S
H468 C475 0.950 . S
C469 C467 1.387 . S
C469 C471 1.390 1_565 S
C469 H473 0.950 . S
H470 C466 0.950 . S
C471 C469 1.390 1_545 S
C471 C472 1.387 . S
C471 H474 0.950 . S
C472 C471 1.387 . S
C472 C475 1.387 . S
H473 C469 0.950 . S
H474 C471 0.950 . S
C475 C466 1.390 1_545 S
C475 H468 0.950 . S
C475 C472 1.387 . S
C476 C477 1.387 . S
C476 H480 0.950 . S
C476 C485 1.390 . S
C477 C476 1.387 . S
C477 C479 1.387 . S
H478 C485 0.950 . S
C479 C477 1.387 . S
C479 C481 1.390 . S
C479 H483 0.950 . S
H480 C476 0.950 . S
C481 C479 1.390 . S
C481 C482 1.387 . S
C481 H484 0.950 . S
C482 C481 1.387 . S
C482 C485 1.387 . S
H483 C479 0.950 . S
H484 C481 0.950 . S
C485 C476 1.390 . S
C485 H478 0.950 . S
C485 C482 1.387 . S
C486 C487 1.387 . S
C486 H490 0.950 . S
C486 C495 1.390 1_565 S
C487 C486 1.387 . S
C487 C489 1.387 . S
H488 C495 0.950 . S
C489 C487 1.387 . S
C489 C491 1.390 1_565 S
C489 H493 0.950 . S
H490 C486 0.950 . S
C491 C489 1.390 1_545 S
C491 C492 1.387 . S
C491 H494 0.950 . S
C492 C491 1.387 . S
C492 C495 1.387 . S
H493 C489 0.950 . S
H494 C491 0.950 . S
C495 C486 1.390 1_545 S
C495 H488 0.950 . S
C495 C492 1.387 . S
C496 C497 1.387 . S
C496 H500 0.950 . S
C496 C505 1.390 . S
C497 C496 1.387 . S
C497 C499 1.387 . S
H498 C505 0.950 . S
C499 C497 1.387 . S
C499 C501 1.390 . S
C499 H503 0.950 . S
H500 C496 0.950 . S
C501 C499 1.390 . S
C501 C502 1.387 . S
C501 H504 0.950 . S
C502 C501 1.387 . S
C502 C505 1.387 . S
H503 C499 0.950 . S
H504 C501 0.950 . S
C505 C496 1.390 . S
C505 H498 0.950 . S
C505 C502 1.387 . S
C506 C507 1.387 . S
C506 H510 0.950 . S
C506 C515 1.390 . S
C507 C506 1.387 . S
C507 C509 1.387 . S
H508 C515 0.950 . S
C509 C507 1.387 . S
C509 C511 1.390 . S
C509 H513 0.950 . S
H510 C506 0.950 . S
C511 C509 1.390 . S
C511 C512 1.387 . S
C511 H514 0.950 . S
C512 C511 1.387 . S
C512 C515 1.387 . S
H513 C509 0.950 . S
H514 C511 0.950 . S
C515 C506 1.390 . S
C515 H508 0.950 . S
C515 C512 1.387 . S
C516 C517 1.387 . S
C516 H520 0.950 . S
C516 C525 1.390 1_556 S
C517 C516 1.387 . S
C517 C519 1.387 . S
H518 C525 0.950 . S
C519 C517 1.387 . S
C519 C521 1.390 1_556 S
C519 H523 0.950 . S
H520 C516 0.950 . S
C521 C519 1.390 1_554 S
C521 C522 1.387 . S
C521 H524 0.950 . S
C522 C521 1.387 . S
C522 C525 1.387 . S
H523 C519 0.950 . S
H524 C521 0.950 . S
C525 C516 1.390 1_554 S
C525 H518 0.950 . S
C525 C522 1.387 . S
C526 C527 1.387 . S
C526 H530 0.950 . S
C526 C535 1.390 . S
C527 C526 1.387 . S
C527 C529 1.387 . S
H528 C535 0.950 . S
C529 C527 1.387 . S
C529 C531 1.390 . S
C529 H533 0.950 . S
H530 C526 0.950 . S
C531 C529 1.390 . S
C531 C532 1.387 . S
C531 H534 0.950 . S
C532 C531 1.387 . S
C532 C535 1.387 . S
H533 C529 0.950 . S
H534 C531 0.950 . S
C535 C526 1.390 . S
C535 H528 0.950 . S
C535 C532 1.387 . S
C536 C537 1.387 . S
C536 H540 0.950 . S
C536 C545 1.390 . S
C537 C536 1.387 . S
C537 C539 1.387 . S
H538 C545 0.950 . S
C539 C537 1.387 . S
C539 C541 1.390 . S
C539 H543 0.950 . S
H540 C536 0.950 . S
C541 C539 1.390 . S
C541 C542 1.387 . S
C541 H544 0.950 . S
C542 C541 1.387 . S
C542 C545 1.387 . S
H543 C539 0.950 . S
H544 C541 0.950 . S
C545 C536 1.390 . S
C545 H538 0.950 . S
C545 C542 1.387 . S
C546 C547 1.387 . S
C546 H550 0.950 . S
C546 C555 1.390 . S
C547 C546 1.387 . S
C547 C549 1.387 . S
H548 C555 0.950 . S
C549 C547 1.387 . S
C549 C551 1.390 . S
C549 H553 0.950 . S
H550 C546 0.950 . S
C551 C549 1.390 . S
C551 C552 1.387 . S
C551 H554 0.950 . S
C552 C551 1.387 . S
C552 C555 1.387 . S
H553 C549 0.950 . S
H554 C551 0.950 . S
C555 C546 1.390 . S
C555 H548 0.950 . S
C555 C552 1.387 . S
C556 C557 1.387 . S
C556 H560 0.950 . S
C556 C565 1.390 1_554 S
C557 C556 1.387 . S
C557 C559 1.387 . S
H558 C565 0.950 . S
C559 C557 1.387 . S
C559 C561 1.390 1_554 S
C559 H563 0.950 . S
H560 C556 0.950 . S
C561 C559 1.390 1_556 S
C561 C562 1.387 . S
C561 H564 0.950 . S
C562 C561 1.387 . S
C562 C565 1.387 . S
H563 C559 0.950 . S
H564 C561 0.950 . S
C565 C556 1.390 1_556 S
C565 H558 0.950 . S
C565 C562 1.387 . S
C566 C567 1.387 . S
C566 H570 0.950 . S
C566 C575 1.390 . S
C567 C566 1.387 . S
C567 C569 1.387 . S
H568 C575 0.950 . S
C569 C567 1.387 . S
C569 C571 1.390 . S
C569 H573 0.950 . S
H570 C566 0.950 . S
C571 C569 1.390 . S
C571 C572 1.387 . S
C571 H574 0.950 . S
C572 C571 1.387 . S
C572 C575 1.387 . S
H573 C569 0.950 . S
H574 C571 0.950 . S
C575 C566 1.390 . S
C575 H568 0.950 . S
C575 C572 1.387 . S
C576 C577 1.387 . S
C576 H580 0.950 . S
C576 C585 1.390 . S
C577 C576 1.387 . S
C577 C579 1.387 . S
H578 C585 0.950 . S
C579 C577 1.387 . S
C579 C581 1.390 . S
C579 H583 0.950 . S
H580 C576 0.950 . S
C581 C579 1.390 . S
C581 C582 1.387 . S
C581 H584 0.950 . S
C582 C581 1.387 . S
C582 C585 1.387 . S
H583 C579 0.950 . S
H584 C581 0.950 . S
C585 C576 1.390 . S
C585 H578 0.950 . S
C585 C582 1.387 . S
C586 C587 1.387 1_554 S
C586 H590 0.950 1_554 S
C586 C595 1.390 1_455 S
C587 C586 1.387 1_556 S
C587 C589 1.387 1_556 S
H588 C595 0.950 . S
C589 C587 1.387 1_554 S
C589 C591 1.390 1_455 S
C589 H593 0.950 . S
H590 C586 0.950 1_556 S
C591 C589 1.390 1_655 S
C591 C592 1.387 . S
C591 H594 0.950 . S
C592 C591 1.387 . S
C592 C595 1.387 . S
H593 C589 0.950 . S
H594 C591 0.950 . S
C595 C586 1.390 1_655 S
C595 H588 0.950 . S
C595 C592 1.387 . S
C596 C597 1.387 . S
C596 H600 0.950 . S
C596 C605 1.390 . S
C597 C596 1.387 . S
C597 C599 1.387 . S
H598 C605 0.950 . S
C599 C597 1.387 . S
C599 C601 1.390 . S
C599 H603 0.950 . S
H600 C596 0.950 . S
C601 C599 1.390 . S
C601 C602 1.387 . S
C601 H604 0.950 . S
C602 C601 1.387 . S
C602 C605 1.387 . S
H603 C599 0.950 . S
H604 C601 0.950 . S
C605 C596 1.390 . S
C605 H598 0.950 . S
C605 C602 1.387 . S
C606 C607 1.387 . S
C606 H610 0.950 . S
C606 C615 1.390 . S
C607 C606 1.387 . S
C607 C609 1.387 . S
H608 C615 0.950 . S
C609 C607 1.387 . S
C609 C611 1.390 . S
C609 H613 0.950 . S
H610 C606 0.950 . S
C611 C609 1.390 . S
C611 C612 1.387 . S
C611 H614 0.950 . S
C612 C611 1.387 . S
C612 C615 1.387 . S
H613 C609 0.950 . S
H614 C611 0.950 . S
C615 C606 1.390 . S
C615 H608 0.950 . S
C615 C612 1.387 . S
C616 C617 1.387 . S
C616 H620 0.950 . S
C616 C625 1.390 . S
C617 C616 1.387 . S
C617 C619 1.387 . S
H618 C625 0.950 . S
C619 C617 1.387 . S
C619 C621 1.390 . S
C619 H623 0.950 . S
H620 C616 0.950 . S
C621 C619 1.390 . S
C621 C622 1.387 . S
C621 H624 0.950 . S
C622 C621 1.387 . S
C622 C625 1.387 . S
H623 C619 0.950 . S
H624 C621 0.950 . S
C625 C616 1.390 . S
C625 H618 0.950 . S
C625 C622 1.387 . S
C626 C627 1.387 1_556 S
C626 H630 0.950 1_556 S
C626 C635 1.390 . S
C627 C626 1.387 1_554 S
C627 C629 1.387 1_554 S
H628 C635 0.950 . S
C629 C627 1.387 1_556 S
C629 C631 1.390 . S
C629 H633 0.950 . S
H630 C626 0.950 1_554 S
C631 C629 1.390 . S
C631 C632 1.387 . S
C631 H634 0.950 . S
C632 C631 1.387 . S
C632 C635 1.387 . S
H633 C629 0.950 . S
H634 C631 0.950 . S
C635 C626 1.390 . S
C635 H628 0.950 . S
C635 C632 1.387 . S
C636 C637 1.387 . S
C636 H640 0.950 . S
C636 C645 1.390 . S
C637 C636 1.387 . S
C637 C639 1.387 . S
H638 C645 0.950 . S
C639 C637 1.387 . S
C639 C641 1.390 . S
C639 H643 0.950 . S
H640 C636 0.950 . S
C641 C639 1.390 . S
C641 C642 1.387 . S
C641 H644 0.950 . S
C642 C641 1.387 . S
C642 C645 1.387 . S
H643 C639 0.950 . S
H644 C641 0.950 . S
C645 C636 1.390 . S
C645 H638 0.950 . S
C645 C642 1.387 . S
C646 C647 1.387 . S
C646 H650 0.950 . S
C646 C655 1.390 1_455 S
C647 C646 1.387 . S
C647 C649 1.387 . S
H648 C655 0.950 . S
C649 C647 1.387 . S
C649 C651 1.390 1_455 S
C649 H653 0.950 . S
H650 C646 0.950 . S
C651 C649 1.390 1_655 S
C651 C652 1.387 . S
C651 H654 0.950 . S
C652 C651 1.387 . S
C652 C655 1.387 . S
H653 C649 0.950 . S
H654 C651 0.950 . S
C655 C646 1.390 1_655 S
C655 H648 0.950 . S
C655 C652 1.387 . S
C656 C657 1.387 . S
C656 H660 0.950 . S
C656 C665 1.390 . S
C657 C656 1.387 . S
C657 C659 1.387 . S
H658 C665 0.950 . S
C659 C657 1.387 . S
C659 C661 1.390 . S
C659 H663 0.950 . S
H660 C656 0.950 . S
C661 C659 1.390 . S
C661 C662 1.387 . S
C661 H664 0.950 . S
C662 C661 1.387 . S
C662 C665 1.387 . S
H663 C659 0.950 . S
H664 C661 0.950 . S
C665 C656 1.390 . S
C665 H658 0.950 . S
C665 C662 1.387 . S
C666 C667 1.387 1_556 S
C666 H670 0.950 1_556 S
C666 C675 1.390 1_655 S
C667 C666 1.387 1_554 S
C667 C669 1.387 1_554 S
H668 C675 0.950 . S
C669 C667 1.387 1_556 S
C669 C671 1.390 1_655 S
C669 H673 0.950 . S
H670 C666 0.950 1_554 S
C671 C669 1.390 1_455 S
C671 C672 1.387 . S
C671 H674 0.950 . S
C672 C671 1.387 . S
C672 C675 1.387 . S
H673 C669 0.950 . S
H674 C671 0.950 . S
C675 C666 1.390 1_455 S
C675 H668 0.950 . S
C675 C672 1.387 . S
C676 C677 1.387 . S
C676 H680 0.950 . S
C676 C685 1.390 . S
C677 C676 1.387 . S
C677 C679 1.387 . S
H678 C685 0.950 . S
C679 C677 1.387 . S
C679 C681 1.390 . S
C679 H683 0.950 . S
H680 C676 0.950 . S
C681 C679 1.390 . S
C681 C682 1.387 . S
C681 H684 0.950 . S
C682 C681 1.387 . S
C682 C685 1.387 . S
H683 C679 0.950 . S
H684 C681 0.950 . S
C685 C676 1.390 . S
C685 H678 0.950 . S
C685 C682 1.387 . S
C686 C687 1.387 . S
C686 H690 0.950 . S
C686 C695 1.390 . S
C687 C686 1.387 . S
C687 C689 1.387 . S
H688 C695 0.950 . S
C689 C687 1.387 . S
C689 C691 1.390 . S
C689 H693 0.950 . S
H690 C686 0.950 . S
C691 C689 1.390 . S
C691 C692 1.387 . S
C691 H694 0.950 . S
C692 C691 1.387 . S
C692 C695 1.387 . S
H693 C689 0.950 . S
H694 C691 0.950 . S
C695 C686 1.390 . S
C695 H688 0.950 . S
C695 C692 1.387 . S
C696 C697 1.387 . S
C696 H700 0.950 . S
C696 C705 1.390 . S
C697 C696 1.387 . S
C697 C699 1.387 . S
H698 C705 0.950 . S
C699 C697 1.387 . S
C699 C701 1.390 . S
C699 H703 0.950 . S
H700 C696 0.950 . S
C701 C699 1.390 . S
C701 C702 1.387 . S
C701 H704 0.950 . S
C702 C701 1.387 . S
C702 C705 1.387 . S
H703 C699 0.950 . S
H704 C701 0.950 . S
C705 C696 1.390 . S
C705 H698 0.950 . S
C705 C702 1.387 . S
C706 C707 1.387 . S
C706 H710 0.950 . S
C706 C715 1.390 . S
C707 C706 1.387 . S
C707 C709 1.387 . S
H708 C715 0.950 . S
C709 C707 1.387 . S
C709 C711 1.390 . S
C709 H713 0.950 . S
H710 C706 0.950 . S
C711 C709 1.390 . S
C711 C712 1.387 1_554 S
C711 H714 0.950 1_554 S
C712 C711 1.387 1_556 S
C712 C715 1.387 1_556 S
H713 C709 0.950 . S
H714 C711 0.950 1_556 S
C715 C706 1.390 . S
C715 H708 0.950 . S
C715 C712 1.387 1_554 S
C716 C717 1.387 . S
C716 H720 0.950 . S
C716 C725 1.390 . S
C717 C716 1.387 . S
C717 C719 1.387 . S
H718 C725 0.950 . S
C719 C717 1.387 . S
C719 C721 1.390 . S
C719 H723 0.950 . S
H720 C716 0.950 . S
C721 C719 1.390 . S
C721 C722 1.387 . S
C721 H724 0.950 . S
C722 C721 1.387 . S
C722 C725 1.387 . S
H723 C719 0.950 . S
H724 C721 0.950 . S
C725 C716 1.390 . S
C725 H718 0.950 . S
C725 C722 1.387 . S
C726 C727 1.387 . S
C726 H730 0.950 . S
C726 C735 1.390 1_655 S
C727 C726 1.387 . S
C727 C729 1.387 . S
H728 C735 0.950 . S
C729 C727 1.387 . S
C729 C731 1.390 1_655 S
C729 H733 0.950 . S
H730 C726 0.950 . S
C731 C729 1.390 1_455 S
C731 C732 1.387 . S
C731 H734 0.950 . S
C732 C731 1.387 . S
C732 C735 1.387 . S
H733 C729 0.950 . S
H734 C731 0.950 . S
C735 C726 1.390 1_455 S
C735 H728 0.950 . S
C735 C732 1.387 . S
C736 C737 1.387 . S
C736 H740 0.950 . S
C736 C745 1.390 . S
C737 C736 1.387 . S
C737 C739 1.387 . S
H738 C745 0.950 . S
C739 C737 1.387 . S
C739 C741 1.390 . S
C739 H743 0.950 . S
H740 C736 0.950 . S
C741 C739 1.390 . S
C741 C742 1.387 . S
C741 H744 0.950 . S
C742 C741 1.387 . S
C742 C745 1.387 . S
H743 C739 0.950 . S
H744 C741 0.950 . S
C745 C736 1.390 . S
C745 H738 0.950 . S
C745 C742 1.387 . S
C746 C747 1.387 . S
C746 H750 0.950 . S
C746 C755 1.390 . S
C747 C746 1.387 . S
C747 C749 1.387 . S
H748 C755 0.950 . S
C749 C747 1.387 . S
C749 C751 1.390 . S
C749 H753 0.950 . S
H750 C746 0.950 . S
C751 C749 1.390 . S
C751 C752 1.387 . S
C751 H754 0.950 . S
C752 C751 1.387 . S
C752 C755 1.387 . S
H753 C749 0.950 . S
H754 C751 0.950 . S
C755 C746 1.390 . S
C755 H748 0.950 . S
C755 C752 1.387 . S
C756 C757 1.387 . S
C756 H760 0.950 . S
C756 C765 1.390 . S
C757 C756 1.387 . S
C757 C759 1.387 . S
H758 C765 0.950 . S
C759 C757 1.387 . S
C759 C761 1.390 . S
C759 H763 0.950 . S
H760 C756 0.950 . S
C761 C759 1.390 . S
C761 C762 1.387 . S
C761 H764 0.950 . S
C762 C761 1.387 . S
C762 C765 1.387 . S
H763 C759 0.950 . S
H764 C761 0.950 . S
C765 C756 1.390 . S
C765 H758 0.950 . S
C765 C762 1.387 . S
C766 C767 1.387 . S
C766 H770 0.950 . S
C766 C775 1.390 1_455 S
C767 C766 1.387 . S
C767 C769 1.387 . S
H768 C775 0.950 . S
C769 C767 1.387 . S
C769 C771 1.390 1_455 S
C769 H773 0.950 . S
H770 C766 0.950 . S
C771 C769 1.390 1_655 S
C771 C772 1.387 1_554 S
C771 H774 0.950 1_554 S
C772 C771 1.387 1_556 S
C772 C775 1.387 1_556 S
H773 C769 0.950 . S
H774 C771 0.950 1_556 S
C775 C766 1.390 1_655 S
C775 H768 0.950 . S
C775 C772 1.387 1_554 S
C776 C777 1.387 . S
C776 H780 0.950 . S
C776 C785 1.390 . S
C777 C776 1.387 . S
C777 C779 1.387 . S
H778 C785 0.950 . S
C779 C777 1.387 . S
C779 C781 1.390 . S
C779 H783 0.950 . S
H780 C776 0.950 . S
C781 C779 1.390 . S
C781 C782 1.387 . S
C781 H784 0.950 . S
C782 C781 1.387 . S
C782 C785 1.387 . S
H783 C779 0.950 . S
H784 C781 0.950 . S
C785 C776 1.390 . S
C785 H778 0.950 . S
C785 C782 1.387 . S
C786 C787 1.387 . S
C786 H790 0.950 . S
C786 C795 1.390 1_655 S
C787 C786 1.387 . S
C787 C789 1.387 . S
H788 C795 0.950 . S
C789 C787 1.387 . S
C789 C791 1.390 1_655 S
C789 H793 0.950 . S
H790 C786 0.950 . S
C791 C789 1.390 1_455 S
C791 C792 1.387 . S
C791 H794 0.950 . S
C792 C791 1.387 . S
C792 C795 1.387 . S
H793 C789 0.950 . S
H794 C791 0.950 . S
C795 C786 1.390 1_455 S
C795 H788 0.950 . S
C795 C792 1.387 . S
C796 C797 1.387 . S
C796 H800 0.950 . S
C796 C805 1.390 . S
C797 C796 1.387 . S
C797 C799 1.387 . S
H798 C805 0.950 . S
C799 C797 1.387 . S
C799 C801 1.390 . S
C799 H803 0.950 . S
H800 C796 0.950 . S
C801 C799 1.390 . S
C801 C802 1.387 . S
C801 H804 0.950 . S
C802 C801 1.387 . S
C802 C805 1.387 . S
H803 C799 0.950 . S
H804 C801 0.950 . S
C805 C796 1.390 . S
C805 H798 0.950 . S
C805 C802 1.387 . S
C806 C807 1.387 1_556 S
C806 H810 0.950 . S
C806 C815 1.390 . S
C807 C806 1.387 1_554 S
C807 C809 1.387 . S
H808 C815 0.950 . S
C809 C807 1.387 . S
C809 C811 1.390 1_554 S
C809 H813 0.950 . S
H810 C806 0.950 . S
C811 C809 1.390 1_556 S
C811 C812 1.387 . S
C811 H814 0.950 . S
C812 C811 1.387 . S
C812 C815 1.387 . S
H813 C809 0.950 . S
H814 C811 0.950 . S
C815 C806 1.390 . S
C815 H808 0.950 . S
C815 C812 1.387 . S
C816 C817 1.387 . S
C816 H820 0.950 . S
C816 C825 1.390 . S
C817 C816 1.387 . S
C817 C819 1.387 . S
H818 C825 0.950 . S
C819 C817 1.387 . S
C819 C821 1.390 . S
C819 H823 0.950 . S
H820 C816 0.950 . S
C821 C819 1.390 . S
C821 C822 1.387 . S
C821 H824 0.950 . S
C822 C821 1.387 . S
C822 C825 1.387 . S
H823 C819 0.950 . S
H824 C821 0.950 . S
C825 C816 1.390 . S
C825 H818 0.950 . S
C825 C822 1.387 . S
C826 C827 1.387 . S
C826 H830 0.950 . S
C826 C835 1.390 . S
C827 C826 1.387 . S
C827 C829 1.387 . S
H828 C835 0.950 . S
C829 C827 1.387 . S
C829 C831 1.390 . S
C829 H833 0.950 . S
H830 C826 0.950 . S
C831 C829 1.390 . S
C831 C832 1.387 . S
C831 H834 0.950 . S
C832 C831 1.387 . S
C832 C835 1.387 . S
H833 C829 0.950 . S
H834 C831 0.950 . S
C835 C826 1.390 . S
C835 H828 0.950 . S
C835 C832 1.387 . S
C836 C837 1.387 . S
C836 H840 0.950 . S
C836 C845 1.390 . S
C837 C836 1.387 . S
C837 C839 1.387 . S
H838 C845 0.950 . S
C839 C837 1.387 . S
C839 C841 1.390 . S
C839 H843 0.950 . S
H840 C836 0.950 . S
C841 C839 1.390 . S
C841 C842 1.387 . S
C841 H844 0.950 . S
C842 C841 1.387 . S
C842 C845 1.387 . S
H843 C839 0.950 . S
H844 C841 0.950 . S
C845 C836 1.390 . S
C845 H838 0.950 . S
C845 C842 1.387 . S
C846 C847 1.387 . S
C846 H850 0.950 . S
C846 C855 1.390 1_655 S
C847 C846 1.387 . S
C847 C849 1.387 . S
H848 C855 0.950 1_554 S
C849 C847 1.387 . S
C849 C851 1.390 1_655 S
C849 H853 0.950 . S
H850 C846 0.950 . S
C851 C849 1.390 1_455 S
C851 C852 1.387 1_556 S
C851 H854 0.950 . S
C852 C851 1.387 1_554 S
C852 C855 1.387 1_554 S
H853 C849 0.950 . S
H854 C851 0.950 . S
C855 C846 1.390 1_455 S
C855 H848 0.950 1_556 S
C855 C852 1.387 1_556 S
C856 C857 1.387 . S
C856 H860 0.950 . S
C856 C865 1.390 . S
C857 C856 1.387 . S
C857 C859 1.387 . S
H858 C865 0.950 . S
C859 C857 1.387 . S
C859 C861 1.390 . S
C859 H863 0.950 . S
H860 C856 0.950 . S
C861 C859 1.390 . S
C861 C862 1.387 . S
C861 H864 0.950 . S
C862 C861 1.387 . S
C862 C865 1.387 . S
H863 C859 0.950 . S
H864 C861 0.950 . S
C865 C856 1.390 . S
C865 H858 0.950 . S
C865 C862 1.387 . S
C866 C867 1.387 . S
C866 H870 0.950 . S
C866 C875 1.390 1_655 S
C867 C866 1.387 . S
C867 C869 1.387 . S
H868 C875 0.950 . S
C869 C867 1.387 . S
C869 C871 1.390 1_655 S
C869 H873 0.950 . S
H870 C866 0.950 . S
C871 C869 1.390 1_455 S
C871 C872 1.387 . S
C871 H874 0.950 . S
C872 C871 1.387 . S
C872 C875 1.387 . S
H873 C869 0.950 . S
H874 C871 0.950 . S
C875 C866 1.390 1_455 S
C875 H868 0.950 . S
C875 C872 1.387 . S
C876 C877 1.387 . S
C876 H880 0.950 . S
C876 C885 1.390 . S
C877 C876 1.387 . S
C877 C879 1.387 . S
H878 C885 0.950 . S
C879 C877 1.387 . S
C879 C881 1.390 . S
C879 H883 0.950 . S
H880 C876 0.950 . S
C881 C879 1.390 . S
C881 C882 1.387 . S
C881 H884 0.950 . S
C882 C881 1.387 . S
C882 C885 1.387 . S
H883 C879 0.950 . S
H884 C881 0.950 . S
C885 C876 1.390 . S
C885 H878 0.950 . S
C885 C882 1.387 . S
C886 C887 1.387 . S
C886 H890 0.950 . S
C886 C895 1.390 . S
C887 C886 1.387 . S
C887 C889 1.387 . S
H888 C895 0.950 . S
C889 C887 1.387 . S
C889 C891 1.390 . S
C889 H893 0.950 . S
H890 C886 0.950 . S
C891 C889 1.390 . S
C891 C892 1.387 1_554 S
C891 H894 0.950 1_554 S
C892 C891 1.387 1_556 S
C892 C895 1.387 1_556 S
H893 C889 0.950 . S
H894 C891 0.950 1_556 S
C895 C886 1.390 . S
C895 H888 0.950 . S
C895 C892 1.387 1_554 S
C896 C897 1.387 . S
C896 H900 0.950 1_554 S
C896 C905 1.390 . S
C897 C896 1.387 . S
C897 C899 1.387 . S
H898 C905 0.950 . S
C899 C897 1.387 . S
C899 C901 1.390 . S
C899 H903 0.950 . S
H900 C896 0.950 1_556 S
C901 C899 1.390 . S
C901 C902 1.387 . S
C901 H904 0.950 . S
C902 C901 1.387 . S
C902 C905 1.387 . S
H903 C899 0.950 . S
H904 C901 0.950 . S
C905 C896 1.390 . S
C905 H898 0.950 . S
C905 C902 1.387 . S
C906 C907 1.387 . S
C906 H910 0.950 . S
C906 C915 1.390 . S
C907 C906 1.387 . S
C907 C909 1.387 . S
H908 C915 0.950 . S
C909 C907 1.387 . S
C909 C911 1.390 . S
C909 H913 0.950 . S
H910 C906 0.950 . S
C911 C909 1.390 . S
C911 C912 1.387 . S
C911 H914 0.950 . S
C912 C911 1.387 . S
C912 C915 1.387 . S
H913 C909 0.950 . S
H914 C911 0.950 . S
C915 C906 1.390 . S
C915 H908 0.950 . S
C915 C912 1.387 . S
C916 C917 1.387 . S
C916 H920 0.950 . S
C916 C925 1.390 . S
C917 C916 1.387 . S
C917 C919 1.387 . S
H918 C925 0.950 . S
C919 C917 1.387 . S
C919 C921 1.390 . S
C919 H923 0.950 . S
H920 C916 0.950 . S
C921 C919 1.390 . S
C921 C922 1.387 . S
C921 H924 0.950 . S
C922 C921 1.387 . S
C922 C925 1.387 . S
H923 C919 0.950 . S
H924 C921 0.950 . S
C925 C916 1.390 . S
C925 H918 0.950 . S
C925 C922 1.387 . S
C926 C927 1.387 . S
C926 H930 0.950 . S
C926 C935 1.390 . S
C927 C926 1.387 . S
C927 C929 1.387 . S
H928 C935 0.950 . S
C929 C927 1.387 . S
C929 C931 1.390 . S
C929 H933 0.950 1_556 S
H930 C926 0.950 . S
C931 C929 1.390 . S
C931 C932 1.387 . S
C931 H934 0.950 . S
C932 C931 1.387 . S
C932 C935 1.387 . S
H933 C929 0.950 1_554 S
H934 C931 0.950 . S
C935 C926 1.390 . S
C935 H928 0.950 . S
C935 C932 1.387 . S
C936 C937 1.387 . S
C936 H940 0.950 . S
C936 C945 1.390 . S
C937 C936 1.387 . S
C937 C939 1.387 . S
H938 C945 0.950 . S
C939 C937 1.387 . S
C939 C941 1.390 . S
C939 H943 0.950 . S
H940 C936 0.950 . S
C941 C939 1.390 . S
C941 C942 1.387 . S
C941 H944 0.950 . S
C942 C941 1.387 . S
C942 C945 1.387 . S
H943 C939 0.950 . S
H944 C941 0.950 . S
C945 C936 1.390 . S
C945 H938 0.950 . S
C945 C942 1.387 . S
C946 C947 1.387 . S
C946 H950 0.950 . S
C946 C955 1.390 . S
C947 C946 1.387 . S
C947 C949 1.387 . S
H948 C955 0.950 . S
C949 C947 1.387 . S
C949 C951 1.390 . S
C949 H953 0.950 . S
H950 C946 0.950 . S
C951 C949 1.390 . S
C951 C952 1.387 . S
C951 H954 0.950 . S
C952 C951 1.387 . S
C952 C955 1.387 . S
H953 C949 0.950 . S
H954 C951 0.950 . S
C955 C946 1.390 . S
C955 H948 0.950 . S
C955 C952 1.387 . S
C956 C957 1.387 . S
C956 H960 0.950 . S
C956 C965 1.390 . S
C957 C956 1.387 . S
C957 C959 1.387 . S
H958 C965 0.950 . S
C959 C957 1.387 . S
C959 C961 1.390 . S
C959 H963 0.950 . S
H960 C956 0.950 . S
C961 C959 1.390 . S
C961 C962 1.387 . S
C961 H964 0.950 . S
C962 C961 1.387 . S
C962 C965 1.387 . S
H963 C959 0.950 . S
H964 C961 0.950 . S
C965 C956 1.390 . S
C965 H958 0.950 . S
C965 C962 1.387 . S
C966 C967 1.387 . S
C966 H970 0.950 1_554 S
C966 C975 1.390 . S
C967 C966 1.387 . S
C967 C969 1.387 . S
H968 C975 0.950 . S
C969 C967 1.387 . S
C969 C971 1.390 . S
C969 H973 0.950 . S
H970 C966 0.950 1_556 S
C971 C969 1.390 . S
C971 C972 1.387 . S
C971 H974 0.950 . S
C972 C971 1.387 . S
C972 C975 1.387 . S
H973 C969 0.950 . S
H974 C971 0.950 . S
C975 C966 1.390 . S
C975 H968 0.950 . S
C975 C972 1.387 . S
C976 C977 1.387 . S
C976 H980 0.950 1_556 S
C976 C985 1.390 . S
C977 C976 1.387 . S
C977 C979 1.387 . S
H978 C985 0.950 . S
C979 C977 1.387 . S
C979 C981 1.390 . S
C979 H983 0.950 . S
H980 C976 0.950 1_554 S
C981 C979 1.390 . S
C981 C982 1.387 . S
C981 H984 0.950 . S
C982 C981 1.387 . S
C982 C985 1.387 . S
H983 C979 0.950 . S
H984 C981 0.950 . S
C985 C976 1.390 . S
C985 H978 0.950 . S
C985 C982 1.387 . S
C986 C987 1.387 . S
C986 H990 0.950 . S
C986 C995 1.390 . S
C987 C986 1.387 . S
C987 C989 1.387 . S
H988 C995 0.950 . S
C989 C987 1.387 . S
C989 C991 1.390 . S
C989 H993 0.950 . S
H990 C986 0.950 . S
C991 C989 1.390 . S
C991 C992 1.387 . S
C991 H994 0.950 . S
C992 C991 1.387 . S
C992 C995 1.387 . S
H993 C989 0.950 . S
H994 C991 0.950 . S
C995 C986 1.390 . S
C995 H988 0.950 . S
C995 C992 1.387 . S
C996 C997 1.387 . S
C996 H1000 0.950 . S
C996 C1005 1.390 . S
C997 C996 1.387 . S
C997 C999 1.387 . S
H998 C1005 0.950 . S
C999 C997 1.387 . S
C999 C1001 1.390 . S
C999 H1003 0.950 . S
H1000 C996 0.950 . S
C1001 C999 1.390 . S
C1001 C1002 1.387 . S
C1001 H1004 0.950 . S
C1002 C1001 1.387 . S
C1002 C1005 1.387 . S
H1003 C999 0.950 . S
H1004 C1001 0.950 . S
C1005 C996 1.390 . S
C1005 H998 0.950 . S
C1005 C1002 1.387 . S
C1006 C1007 1.387 . S
C1006 H1010 0.950 . S
C1006 C1015 1.390 . S
C1007 C1006 1.387 . S
C1007 C1009 1.387 . S
H1008 C1015 0.950 . S
C1009 C1007 1.387 . S
C1009 C1011 1.390 . S
C1009 H1013 0.950 . S
H1010 C1006 0.950 . S
C1011 C1009 1.390 . S
C1011 C1012 1.387 . S
C1011 H1014 0.950 . S
C1012 C1011 1.387 . S
C1012 C1015 1.387 . S
H1013 C1009 0.950 . S
H1014 C1011 0.950 . S
C1015 C1006 1.390 . S
C1015 H1008 0.950 . S
C1015 C1012 1.387 . S
C1016 C1017 1.387 . S
C1016 H1020 0.950 . S
C1016 C1025 1.390 . S
C1017 C1016 1.387 . S
C1017 C1019 1.387 . S
H1018 C1025 0.950 . S
C1019 C1017 1.387 . S
C1019 C1021 1.390 . S
C1019 H1023 0.950 . S
H1020 C1016 0.950 . S
C1021 C1019 1.390 . S
C1021 C1022 1.387 . S
C1021 H1024 0.950 . S
C1022 C1021 1.387 . S
C1022 C1025 1.387 . S
H1023 C1019 0.950 . S
H1024 C1021 0.950 . S
C1025 C1016 1.390 . S
C1025 H1018 0.950 . S
C1025 C1022 1.387 . S
C1026 C1027 1.387 . S
C1026 H1030 0.950 . S
C1026 C1035 1.390 . S
C1027 C1026 1.387 . S
C1027 C1029 1.387 . S
H1028 C1035 0.950 . S
C1029 C1027 1.387 . S
C1029 C1031 1.390 . S
C1029 H1033 0.950 . S
H1030 C1026 0.950 . S
C1031 C1029 1.390 . S
C1031 C1032 1.387 . S
C1031 H1034 0.950 . S
C1032 C1031 1.387 . S
C1032 C1035 1.387 . S
H1033 C1029 0.950 . S
H1034 C1031 0.950 . S
C1035 C1026 1.390 . S
C1035 H1028 0.950 . S
C1035 C1032 1.387 . S
C1036 C1037 1.387 . S
C1036 H1040 0.950 . S
C1036 C1045 1.390 . S
C1037 C1036 1.387 . S
C1037 C1039 1.387 . S
H1038 C1045 0.950 . S
C1039 C1037 1.387 . S
C1039 C1041 1.390 . S
C1039 H1043 0.950 . S
H1040 C1036 0.950 . S
C1041 C1039 1.390 . S
C1041 C1042 1.387 . S
C1041 H1044 0.950 . S
C1042 C1041 1.387 . S
C1042 C1045 1.387 . S
H1043 C1039 0.950 . S
H1044 C1041 0.950 . S
C1045 C1036 1.390 . S
C1045 H1038 0.950 . S
C1045 C1042 1.387 . S
C1046 C1047 1.387 . S
C1046 H1050 0.950 . S
C1046 C1055 1.390 . S
C1047 C1046 1.387 . S
C1047 C1049 1.387 . S
H1048 C1055 0.950 1_554 S
C1049 C1047 1.387 . S
C1049 C1051 1.390 . S
C1049 H1053 0.950 . S
H1050 C1046 0.950 . S
C1051 C1049 1.390 . S
C1051 C1052 1.387 . S
C1051 H1054 0.950 . S
C1052 C1051 1.387 . S
C1052 C1055 1.387 . S
H1053 C1049 0.950 . S
H1054 C1051 0.950 . S
C1055 C1046 1.390 . S
C1055 H1048 0.950 1_556 S
C1055 C1052 1.387 . S
C417 C83 1.335 . S
C422 C5 1.335 . S
C427 C18 1.333 . S
C432 C96 1.333 . S
C437 C57 1.335 . S
C442 C31 1.335 . S
C447 C44 1.333 . S
C452 C70 1.333 . S
C457 C187 1.333 . S
C462 C109 1.333 . S
C467 C200 1.333 . S
C472 C122 1.333 . S
C477 C135 1.333 . S
C482 C161 1.333 . S
C487 C148 1.333 . S
C492 C174 1.333 . S
C497 C213 1.333 . S
C502 C291 1.333 . S
C507 C226 1.335 . S
C512 C304 1.335 . S
C517 C265 1.335 . S
C522 C239 1.335 . S
C527 C278 1.333 . S
C532 C252 1.333 . S
C537 C317 1.333 . S
C542 C395 1.333 . S
C547 C408 1.335 . S
C552 C330 1.335 . S
C557 C369 1.333 . S
C562 C343 1.333 . S
C567 C356 1.335 . S
C572 C382 1.335 . S
C577 C10 1.390 . S
C582 C398 1.400 . S
C587 C203 1.398 . S
C592 C23 1.390 . S
C597 C36 1.391 . S
C602 C372 1.397 . S
C607 C49 1.392 . S
C612 C177 1.399 . S
C617 C346 1.398 . S
C622 C62 1.392 . S
C627 C151 1.398 . S
C632 C75 1.392 . S
C637 C88 1.391 . S
C642 C320 1.399 . S
C647 C125 1.398 . S
C652 C101 1.390 . S
C657 C114 1.392 . S
C662 C294 1.399 . S
C667 C99 1.399 . S
C672 C127 1.392 . S
C677 C140 1.392 . S
C682 C268 1.398 . S
C687 C153 1.391 . S
C692 C73 1.399 . S
C697 C242 1.399 . S
C702 C166 1.390 . S
C707 C179 1.390 . S
C712 C47 1.398 . S
C717 C192 1.391 . S
C722 C216 1.399 . S
C727 C21 1.399 . S
C732 C205 1.392 . S
C737 C218 1.391 . S
C742 C190 1.397 . S
C747 C231 1.392 . S
C752 C411 1.399 . S
C757 C164 1.399 . S
C762 C244 1.392 . S
C767 C257 1.392 . S
C772 C385 1.399 . S
C777 C138 1.399 . S
C782 C270 1.389 . S
C787 C359 1.399 . S
C792 C283 1.392 . S
C797 C112 1.399 . S
C802 C296 1.391 . S
C807 C333 1.399 . S
C812 C309 1.391 . S
C817 C322 1.392 . S
C822 C86 1.397 . S
C827 C307 1.399 . S
C832 C335 1.391 . S
C837 C60 1.399 . S
C842 C348 1.390 . S
C847 C361 1.392 . S
C852 C281 1.399 . S
C857 C374 1.391 . S
C862 C34 1.397 . S
C867 C387 1.390 . S
C872 C255 1.398 . S
C877 C8 1.398 . S
C882 C400 1.390 . S
C887 C413 1.390 . S
C892 C229 1.398 . S
C897 C0 1.293 . S
C902 C273 1.291 . S
C907 C286 1.292 . S
C912 C13 1.293 . S
C917 C26 1.292 . S
C922 C299 1.293 . S
C927 C260 1.291 . S
C932 C39 1.293 . S
C937 C247 1.291 . S
C942 C52 1.293 . S
C947 C208 1.293 . S
C952 C65 1.291 . S
C957 C221 1.293 . S
C962 C78 1.292 . S
C967 C234 1.293 . S
C972 C91 1.291 . S
C977 C104 1.291 . S
C982 C377 1.293 . S
C987 C390 1.291 . S
C992 C117 1.293 . S
C997 C403 1.293 . S
C1002 C130 1.292 . S
C1007 C364 1.293 . S
C1012 C143 1.291 . S
C1017 C351 1.291 . S
C1022 C156 1.293 . S
C1027 C312 1.292 . S
C1032 C169 1.292 . S
C1037 C182 1.293 . S
C1042 C325 1.291 . S
C1047 C195 1.293 . S
C1052 C338 1.291 . S
