# Generated by pormake.
# Topology wkb, (5)-cn, num edge types: 1
# Building blocks:
#     Node 0, Type 0, BuildingBlock: XOMCOT_clean_sbu_0, # of connection points: 5
#     Node 1, Type 0, BuildingBlock: XOMCOT_clean_sbu_0, # of connection points: 5
#     Node 2, Type 0, BuildingBlock: XOMCOT_clean_sbu_0, # of connection points: 5
#     Node 3, Type 0, BuildingBlock: XOMCOT_clean_sbu_0, # of connection points: 5
#     Node 4, Type 0, BuildingBlock: XOMCOT_clean_sbu_0, # of connection points: 5
#     Node 5, Type 0, BuildingBlock: XOMCOT_clean_sbu_0, # of connection points: 5
#     Node 6, Type 0, BuildingBlock: XOMCOT_clean_sbu_0, # of connection points: 5
#     Node 7, Type 0, BuildingBlock: XOMCOT_clean_sbu_0, # of connection points: 5
#     Node 8, Type 0, BuildingBlock: XOMCOT_clean_sbu_0, # of connection points: 5
#     Node 9, Type 0, BuildingBlock: XOMCOT_clean_sbu_0, # of connection points: 5
#     Node 10, Type 0, BuildingBlock: XOMCOT_clean_sbu_0, # of connection points: 5
#     Node 11, Type 0, BuildingBlock: XOMCOT_clean_sbu_0, # of connection points: 5
#     Edge 12, Type (0, 0), BuildingBlock: UVAHIK_clean_linker_0, # of connection points: 2
#     Edge 13, Type (0, 0), BuildingBlock: UVAHIK_clean_linker_0, # of connection points: 2
#     Edge 14, Type (0, 0), BuildingBlock: UVAHIK_clean_linker_0, # of connection points: 2
#     Edge 15, Type (0, 0), BuildingBlock: UVAHIK_clean_linker_0, # of connection points: 2
#     Edge 16, Type (0, 0), BuildingBlock: UVAHIK_clean_linker_0, # of connection points: 2
#     Edge 17, Type (0, 0), BuildingBlock: UVAHIK_clean_linker_0, # of connection points: 2
#     Edge 18, Type (0, 0), BuildingBlock: UVAHIK_clean_linker_0, # of connection points: 2
#     Edge 19, Type (0, 0), BuildingBlock: UVAHIK_clean_linker_0, # of connection points: 2
#     Edge 20, Type (0, 0), BuildingBlock: UVAHIK_clean_linker_0, # of connection points: 2
#     Edge 21, Type (0, 0), BuildingBlock: UVAHIK_clean_linker_0, # of connection points: 2
#     Edge 22, Type (0, 0), BuildingBlock: UVAHIK_clean_linker_0, # of connection points: 2
#     Edge 23, Type (0, 0), BuildingBlock: UVAHIK_clean_linker_0, # of connection points: 2
#     Edge 24, Type (0, 0), BuildingBlock: UVAHIK_clean_linker_0, # of connection points: 2
#     Edge 25, Type (0, 0), BuildingBlock: UVAHIK_clean_linker_0, # of connection points: 2
#     Edge 26, Type (0, 0), BuildingBlock: UVAHIK_clean_linker_0, # of connection points: 2
#     Edge 27, Type (0, 0), BuildingBlock: UVAHIK_clean_linker_0, # of connection points: 2
#     Edge 28, Type (0, 0), BuildingBlock: UVAHIK_clean_linker_0, # of connection points: 2
#     Edge 29, Type (0, 0), BuildingBlock: UVAHIK_clean_linker_0, # of connection points: 2
#     Edge 30, Type (0, 0), BuildingBlock: UVAHIK_clean_linker_0, # of connection points: 2
#     Edge 31, Type (0, 0), BuildingBlock: UVAHIK_clean_linker_0, # of connection points: 2
#     Edge 32, Type (0, 0), BuildingBlock: UVAHIK_clean_linker_0, # of connection points: 2
#     Edge 33, Type (0, 0), BuildingBlock: UVAHIK_clean_linker_0, # of connection points: 2
#     Edge 34, Type (0, 0), BuildingBlock: UVAHIK_clean_linker_0, # of connection points: 2
#     Edge 35, Type (0, 0), BuildingBlock: UVAHIK_clean_linker_0, # of connection points: 2
#     Edge 36, Type (0, 0), BuildingBlock: UVAHIK_clean_linker_0, # of connection points: 2
#     Edge 37, Type (0, 0), BuildingBlock: UVAHIK_clean_linker_0, # of connection points: 2
#     Edge 38, Type (0, 0), BuildingBlock: UVAHIK_clean_linker_0, # of connection points: 2
#     Edge 39, Type (0, 0), BuildingBlock: UVAHIK_clean_linker_0, # of connection points: 2
#     Edge 40, Type (0, 0), BuildingBlock: UVAHIK_clean_linker_0, # of connection points: 2
#     Edge 41, Type (0, 0), BuildingBlock: UVAHIK_clean_linker_0, # of connection points: 2
# Relax obj value: 0.098
# Max RMSD: 0.139
# Mean RMSD: 0.139
data_MOF--net-wkb--node1-XOMCOT_clean_sbu_0--edge1-UVAHIK_clean_linker_0
_symmetry_space_group_name_H-M    P1
_symmetry_Int_Tables_number       1
_symmetry_cell_setting            triclinic
loop_
_symmetry_equiv_pos_as_xyz
'x, y, z'
_cell_length_a     59.094399
_cell_length_b     59.172745
_cell_length_c     45.193907
_cell_angle_alpha  89.984799
_cell_angle_beta   90.022989
_cell_angle_gamma 120.05931
loop_
_atom_site_label
_atom_site_type_symbol
_atom_site_fract_x
_atom_site_fract_y
_atom_site_fract_z
_atom_type_partial_charge
Co0 Co 0.05491 0.32955 0.08012 0.0
C1 C 0.03763 0.32781 0.0166 0.0
C2 C 1.02075 0.28988 0.03627 0.0
C3 C 1.01208 0.28705 0.00765 0.0
N4 N 0.03668 0.31551 0.04234 0.0
N5 N 1.0227 0.31085 0.99523 0.0
H6 H 0.04903 0.34866 0.01323 0.0
H7 H 1.0159 0.27383 0.05117 0.0
C8 C 0.10041 0.34226 0.03988 0.0
O9 O 0.0944 0.35662 0.02317 0.0
N10 N 0.07282 0.34253 0.11741 0.0
C11 C 0.07105 0.35939 0.13599 0.0
C12 C 0.08777 0.36418 0.15947 0.0
C13 C 0.09004 0.33682 0.13003 0.0
N14 N 0.09959 0.34992 0.15567 0.0
C15 C 0.0451 0.37022 0.06369 0.0
C16 C 0.09549 0.41132 0.07133 0.0
C17 C 0.07527 0.4168 0.06632 0.0
C18 C 0.0499 0.39578 0.06188 0.0
C19 C 0.08986 0.38535 0.07276 0.0
N20 N 0.06486 0.36516 0.06902 0.0
H21 H 1.02518 0.35431 0.0619 0.0
H22 H 0.10534 0.38147 0.07854 0.0
H23 H 0.05875 0.36787 0.13248 0.0
H24 H 0.09585 0.32376 0.12037 0.0
O25 O 1.02216 0.32041 0.09907 0.0
O26 O 0.03915 0.29451 0.09598 0.0
O27 O 0.08731 0.33136 0.06322 0.0
C28 C 1.0201 0.29793 0.10488 0.0
H29 H 0.99966 0.26873 0.99647 0.0
H30 H 0.09088 0.37701 0.178 0.0
H31 H 0.11537 0.42691 0.07497 0.0
H32 H 0.03354 0.39895 0.05864 0.0
Co33 Co 0.73893 0.04311 0.2475 0.0
C34 C 0.73168 0.0323 0.18308 0.0
C35 C 0.73188 1.00076 0.20627 0.0
C36 C 0.72939 0.99521 0.17657 0.0
N37 N 0.73346 0.02412 0.21051 0.0
N38 N 0.72928 1.015 0.162 0.0
H39 H 0.73273 0.05077 0.17858 0.0
H40 H 0.73269 0.98834 0.22319 0.0
C41 C 0.78022 0.0995 0.23376 0.0
O42 O 0.77367 0.10819 0.25706 0.0
N43 N 0.7443 0.0616 0.2846 0.0
C44 C 0.72632 0.06391 0.30056 0.0
C45 C 0.73814 0.07825 0.32561 0.0
C46 C 0.76647 0.07345 0.30087 0.0
N47 N 0.76349 0.08453 0.32564 0.0
C48 C 0.68651 0.02878 0.23461 0.0
C49 C 0.69271 0.07808 0.23 0.0
C50 C 0.66733 0.05645 0.23057 0.0
C51 C 0.66447 0.03149 0.23195 0.0
C52 C 0.71429 0.07448 0.23259 0.0
N53 N 0.71104 0.05009 0.23623 0.0
H54 H 0.68375 1.00936 0.23647 0.0
H55 H 0.73323 0.0915 0.23251 0.0
H56 H 0.70602 0.05582 0.29448 0.0
H57 H 0.78476 0.07524 0.29368 0.0
O58 O 0.71771 1.01114 0.26892 0.0
O59 O 0.76043 0.02919 0.26227 0.0
O60 O 0.76755 0.07526 0.22674 0.0
C61 C 0.73899 1.01037 0.27372 0.0
H62 H 0.72767 0.97785 0.16642 0.0
H63 H 0.72874 0.08373 0.3424 0.0
H64 H 0.69589 0.09772 0.22814 0.0
H65 H 0.6453 1.01413 0.23241 0.0
Co66 Co 0.70798 0.72749 0.41506 0.0
C67 C 0.71156 0.72052 0.35049 0.0
C68 C 0.73632 0.71035 0.37485 0.0
C69 C 0.73844 0.70635 0.34533 0.0
N70 N 0.71957 0.71941 0.37824 0.0
N71 N 0.72282 0.71263 0.3299 0.0
H72 H 0.69736 0.72644 0.34559 0.0
H73 H 0.74634 0.7065 0.39237 0.0
C74 C 0.69399 0.76921 0.40013 0.0
O75 O 0.67937 0.76361 0.42388 0.0
N76 N 0.69667 0.73514 0.45212 0.0
C77 C 0.67683 0.71817 0.46942 0.0
C78 C 0.67618 0.73099 0.49453 0.0
C79 C 0.70844 0.75779 0.46748 0.0
N80 N 0.69593 0.75596 0.49318 0.0
C81 C 0.66841 0.67496 0.406 0.0
C82 C 0.62607 0.68229 0.39965 0.0
C83 C 0.62163 0.65672 0.40141 0.0
C84 C 0.64335 0.65328 0.4039 0.0
C85 C 0.65158 0.70353 0.40169 0.0
N86 N 0.67236 0.69976 0.406 0.0
H87 H 0.68474 0.67172 0.40845 0.0
H88 H 0.65407 0.72265 0.40036 0.0
H89 H 0.66371 0.69783 0.46428 0.0
H90 H 0.72545 0.77538 0.45963 0.0
O91 O 0.71894 0.70693 0.43752 0.0
O92 O 0.74413 0.749 0.42756 0.0
O93 O 0.70465 0.75569 0.39307 0.0
C94 C 0.74152 0.72807 0.44031 0.0
H95 H 0.75084 0.69957 0.33603 0.0
H96 H 0.66181 0.7227 0.51204 0.0
H97 H 0.60994 0.68591 0.39697 0.0
H98 H 0.64102 0.63396 0.40539 0.0
Co99 Co 0.99793 0.70263 0.58039 0.0
C100 C 1.00867 0.70677 0.51574 0.0
C101 C 0.0374 0.74098 0.53857 0.0
C102 C 0.04272 0.74443 0.50884 0.0
N103 N 1.01603 0.7173 0.54311 0.0
N104 N 1.02469 0.723 0.49448 0.0
H105 H 0.99153 0.68799 0.51138 0.0
H106 H 0.0484 0.75532 0.55531 0.0
C107 C 0.94164 0.68963 0.56967 0.0
O108 O 0.93316 0.674 0.59266 0.0
N109 N 0.98029 0.6885 0.61778 0.0
C110 C 0.97711 0.66707 0.63198 0.0
C111 C 0.96341 0.66404 0.65773 0.0
C112 C 0.96968 0.69893 0.63582 0.0
N113 N 0.95852 0.68395 0.65997 0.0
C114 C 1.01027 0.66381 0.56387 0.0
C115 C 0.96005 0.62183 0.56036 0.0
C116 C 0.98108 0.61715 0.55982 0.0
C117 C 1.00649 0.6387 0.56049 0.0
C118 C 0.96471 0.64733 0.56368 0.0
N119 N 0.98957 0.66786 0.5669 0.0
H120 H 0.03003 0.68001 0.56536 0.0
H121 H 0.94812 0.64994 0.56478 0.0
H122 H 0.98406 0.65435 0.62419 0.0
H123 H 0.96871 0.71624 0.63035 0.0
O124 O 0.03048 0.71196 0.59985 0.0
O125 O 1.01308 0.73746 0.59729 0.0
O126 O 0.96566 0.70063 0.56174 0.0
C127 C 0.03205 0.73402 0.60658 0.0
H128 H 0.05867 0.7615 0.49853 0.0
H129 H 0.95734 0.64825 0.67345 0.0
H130 H 0.94007 0.60584 0.55903 0.0
H131 H 1.02342 0.63619 0.56003 0.0
Co132 Co 0.31116 0.99138 0.74646 0.0
C133 C 0.32692 1.00859 0.68271 0.0
C134 C 0.29743 1.01623 0.69905 0.0
C135 C 0.30205 0.02371 0.67 0.0
N136 N 0.31316 1.00694 0.7075 0.0
N137 N 0.32062 0.01898 0.65956 0.0
H138 H 0.34047 1.00147 0.68103 0.0
H139 H 0.28259 1.01666 0.71256 0.0
C140 C 0.27853 0.94492 0.70836 0.0
O141 O 0.29862 0.95218 0.69067 0.0
N142 N 0.30782 0.97578 0.78494 0.0
C143 C 0.32704 0.97906 0.80358 0.0
C144 C 0.31582 0.96354 0.82813 0.0
C145 C 0.28528 0.95884 0.79851 0.0
N146 N 0.28959 0.95093 0.82488 0.0
C147 C 0.36204 1.00202 0.7311 0.0
C148 C 0.35434 0.95259 0.74143 0.0
C149 C 0.37993 0.97347 0.7376 0.0
C150 C 0.38345 0.9982 0.73133 0.0
C151 C 0.33326 0.95726 0.74089 0.0
N152 N 0.33732 0.98185 0.73608 0.0
H153 H 0.36549 0.02161 0.72811 0.0
H154 H 0.31398 0.94151 0.74654 0.0
H155 H 0.34772 0.99155 0.79941 0.0
H156 H 0.26613 0.952 0.78896 0.0
O157 O 0.33477 0.02527 0.7628 0.0
O158 O 0.2917 1.00742 0.76143 0.0
O159 O 0.28077 0.9577 0.73196 0.0
C160 C 0.31432 0.02721 0.76869 0.0
H161 H 0.29146 0.03088 0.65723 0.0
H162 H 0.32614 0.96175 0.84696 0.0
H163 H 0.35079 0.93324 0.74676 0.0
H164 H 0.4028 1.01483 0.72787 0.0
Co165 Co 0.3465 0.30855 0.9165 0.0
C166 C 0.34503 0.31844 0.8523 0.0
C167 C 0.30992 0.3119 0.87374 0.0
C168 C 0.308 0.31577 0.84414 0.0
N169 N 0.33325 0.31373 0.87908 0.0
N170 N 0.33012 0.32003 0.83049 0.0
H171 H 0.36412 0.32057 0.84896 0.0
H172 H 0.29475 0.30747 0.88978 0.0
C173 C 0.36051 0.26632 0.90307 0.0
O174 O 0.37525 0.27192 0.92672 0.0
N175 N 0.35919 0.30317 0.95393 0.0
C176 C 0.37924 0.32105 0.9703 0.0
C177 C 0.38136 0.30907 0.99545 0.0
C178 C 0.34858 0.28096 0.97005 0.0
N179 N 0.36223 0.28376 0.99513 0.0
C180 C 0.38493 0.36036 0.90198 0.0
C181 C 0.42822 0.35415 0.90163 0.0
C182 C 0.43193 0.37946 0.90001 0.0
C183 C 0.40977 0.38228 0.89928 0.0
C184 C 0.40292 0.33266 0.9041 0.0
N185 N 0.38166 0.33597 0.90543 0.0
H186 H 0.36819 0.36312 0.90238 0.0
H187 H 0.40094 0.31378 0.90619 0.0
H188 H 0.39156 0.34136 0.96441 0.0
H189 H 0.33212 0.26275 0.96258 0.0
O190 O 0.33607 0.33043 0.93694 0.0
O191 O 0.31097 0.28767 0.93134 0.0
O192 O 0.34963 0.27965 0.89615 0.0
C193 C 0.3138 0.30947 0.94188 0.0
H194 H 0.2911 0.31472 0.83354 0.0
H195 H 0.39599 0.31834 0.01255 0.0
H196 H 0.44476 0.351 0.90168 0.0
H197 H 0.41156 0.40139 0.89814 0.0
Co198 Co 0.70891 0.9902 0.76035 0.0
C199 C 0.7115 1.00166 0.82454 0.0
C200 C 0.74291 0.03351 0.80131 0.0
C201 C 0.745 0.03975 0.83078 0.0
N202 N 0.72187 1.00957 0.79721 0.0
N203 N 0.72521 0.01983 0.84551 0.0
H204 H 0.69414 0.98306 0.82881 0.0
H205 H 0.75624 0.0459 0.78444 0.0
C206 C 0.69474 0.93425 0.77445 0.0
O207 O 0.67869 0.92527 0.75182 0.0
N208 N 0.69624 0.97137 0.72335 0.0
C209 C 0.67592 0.96868 0.70712 0.0
C210 C 0.67367 0.95424 0.68229 0.0
C211 C 0.7068 0.95956 0.70749 0.0
N212 N 0.6929 0.94822 0.68267 0.0
C213 C 0.66977 1.00354 0.77102 0.0
C214 C 0.62745 0.95404 0.77864 0.0
C215 C 0.62303 0.97516 0.77649 0.0
C216 C 0.64477 1.00027 0.77349 0.0
C217 C 0.65291 0.95821 0.77621 0.0
N218 N 0.67364 0.98264 0.77105 0.0
H219 H 0.68608 0.02306 0.76816 0.0
H220 H 0.65538 0.9416 0.77805 0.0
H221 H 0.6635 0.97657 0.71288 0.0
H222 H 0.72339 0.95806 0.71496 0.0
O223 O 0.7195 0.02197 0.73844 0.0
O224 O 0.74458 1.00461 0.74605 0.0
O225 O 0.70604 0.95848 0.78149 0.0
C226 C 0.74179 0.02312 0.73413 0.0
H227 H 0.76038 0.05753 0.84054 0.0
H228 H 0.65885 0.94854 0.66534 0.0
H229 H 0.61133 0.93436 0.78188 0.0
H230 H 0.64249 1.01728 0.7718 0.0
Co231 Co 0.74411 0.70866 0.92859 0.0
C232 C 0.73516 0.71216 0.99261 0.0
C233 C 0.73754 0.74472 0.969 0.0
C234 C 0.73308 0.74711 0.9983 0.0
N235 N 0.73877 0.72273 0.96524 0.0
N236 N 0.73143 0.72661 0.01323 0.0
H237 H 0.73485 0.69406 0.99718 0.0
H238 H 0.73975 0.75845 0.95197 0.0
C239 C 0.78409 0.69207 0.94284 0.0
O240 O 0.77623 0.67594 0.92029 0.0
N241 N 0.74929 0.69497 0.89177 0.0
C242 C 0.73125 0.67431 0.87626 0.0
C243 C 0.74312 0.6709 0.85182 0.0
C244 C 0.77154 0.70466 0.87573 0.0
N245 N 0.76851 0.68983 0.85167 0.0
C246 C 0.6912 0.67172 0.94038 0.0
C247 C 0.69547 0.6275 0.94518 0.0
C248 C 0.67052 0.62464 0.94245 0.0
C249 C 0.6686 0.64728 0.94149 0.0
C250 C 0.7177 0.65247 0.94416 0.0
N251 N 0.71543 0.67413 0.93989 0.0
H252 H 0.68915 0.6888 0.93864 0.0
H253 H 0.73634 0.65378 0.94574 0.0
H254 H 0.71093 0.6623 0.88235 0.0
H255 H 0.78998 0.72113 0.88268 0.0
O256 O 0.72359 0.71993 0.90656 0.0
O257 O 0.76632 0.74393 0.91352 0.0
O258 O 0.77229 0.70455 0.94976 0.0
C259 C 0.74516 0.74164 0.90163 0.0
H260 H 0.73159 0.76307 0.00788 0.0
H261 H 0.73384 0.65543 0.83562 0.0
H262 H 0.69794 0.61059 0.94657 0.0
H263 H 0.64974 0.64615 0.94063 0.0
Co264 Co 0.05554 0.72701 0.09356 0.0
C265 C 0.04307 0.71864 0.15748 0.0
C266 C 1.01018 0.71435 0.13275 0.0
C267 C 1.00341 0.71012 0.16211 0.0
N268 N 0.03514 0.71983 0.12972 0.0
N269 N 1.02401 0.7127 0.17779 0.0
H270 H 0.06229 0.72168 0.16253 0.0
H271 H 0.99737 0.71331 0.11514 0.0
C272 C 0.1115 0.76718 0.11022 0.0
O273 O 0.12085 0.76055 0.0876 0.0
N274 N 0.0755 0.73382 0.05722 0.0
C275 C 0.07914 0.7165 0.04157 0.0
C276 C 0.09491 0.72908 0.01771 0.0
C277 C 0.08808 0.75643 0.04179 0.0
N278 N 0.10069 0.7542 0.01799 0.0
C279 C 0.04033 0.67376 0.10161 0.0
C280 C 0.08908 0.67941 0.11088 0.0
C281 C 0.06777 0.65432 0.10583 0.0
C282 C 0.04298 0.65164 0.10241 0.0
C283 C 0.08554 0.70112 0.10996 0.0
N284 N 0.06161 0.69827 0.10365 0.0
H285 H 1.02109 0.67115 0.09821 0.0
H286 H 0.10233 0.71993 0.11341 0.0
H287 H 0.07115 0.69614 0.04712 0.0
H288 H 0.08929 0.77449 0.04886 0.0
O289 O 1.02426 0.70742 0.07019 0.0
O290 O 0.04272 0.74968 0.07978 0.0
O291 O 0.08703 0.7545 0.11629 0.0
C292 C 1.02408 0.72913 0.06674 0.0
H293 H 0.98472 0.70584 0.17112 0.0
H294 H 0.10181 0.72046 1.00151 0.0
H295 H 0.10856 0.68243 0.11414 0.0
H296 H 1.02577 0.63258 0.09958 0.0
Co297 Co 0.34003 0.04345 0.26034 0.0
C298 C 0.33979 0.03264 0.32444 0.0
C299 C 0.30521 1.00267 0.30344 0.0
C300 C 0.30396 0.99707 0.33304 0.0
N301 N 0.32776 0.02497 0.29785 0.0
N302 N 0.32575 1.01581 0.34644 0.0
H303 H 0.35846 0.05023 0.32744 0.0
H304 H 0.29018 0.99116 0.28754 0.0
C305 C 0.35552 0.09992 0.27447 0.0
O306 O 0.36972 0.10875 0.25041 0.0
N307 N 0.35181 0.06156 0.2228 0.0
C308 C 0.371 0.06312 0.20531 0.0
C309 C 0.37241 0.07702 0.18024 0.0
C310 C 0.34103 0.07343 0.2075 0.0
N311 N 0.35372 0.08373 0.18177 0.0
C312 C 0.37787 0.02905 0.27304 0.0
C313 C 0.42216 0.07783 0.27075 0.0
C314 C 0.42499 0.05567 0.27146 0.0
C315 C 0.4024 0.03112 0.27389 0.0
C316 C 0.3971 0.07487 0.27009 0.0
N317 N 0.3753 0.0506 0.26985 0.0
H318 H 0.36073 1.00982 0.27374 0.0
H319 H 0.39569 0.09211 0.2682 0.0
H320 H 0.38324 0.05485 0.21039 0.0
H321 H 0.3247 0.07514 0.21556 0.0
O322 O 0.32882 1.0113 0.2393 0.0
O323 O 0.30403 0.029 0.24702 0.0
O324 O 0.34426 0.07567 0.28137 0.0
C325 C 0.30652 1.01017 0.2354 0.0
H326 H 0.28772 0.9806 0.34375 0.0
H327 H 0.38668 0.08244 0.1627 0.0
H328 H 0.43908 0.09721 0.26906 0.0
H329 H 0.4036 1.01349 0.27544 0.0
Co330 Co 0.31045 0.32848 0.43054 0.0
C331 C 0.32617 0.32662 0.49416 0.0
C332 C 0.29622 0.28969 0.47783 0.0
C333 C 0.30084 0.28671 0.50686 0.0
N334 N 0.31223 0.31466 0.46941 0.0
N335 N 0.31969 0.3099 0.51728 0.0
H336 H 0.33996 0.34723 0.49584 0.0
H337 H 0.28122 0.27455 0.46431 0.0
C338 C 0.27763 0.34183 0.46886 0.0
O339 O 0.29764 0.35445 0.48672 0.0
N340 N 0.30744 0.34113 0.39215 0.0
C341 C 0.32691 0.35762 0.37411 0.0
C342 C 0.31603 0.36244 0.34962 0.0
C343 C 0.28508 0.33568 0.37825 0.0
N344 N 0.28976 0.34855 0.35228 0.0
C345 C 0.36133 0.36866 0.44604 0.0
C346 C 0.35344 0.41037 0.43658 0.0
C347 C 0.37906 0.41513 0.44014 0.0
C348 C 0.38268 0.39391 0.44599 0.0
C349 C 0.33242 0.3846 0.43694 0.0
N350 N 0.33657 0.36408 0.44131 0.0
H351 H 0.36483 0.35252 0.4487 0.0
H352 H 0.31312 0.38108 0.43143 0.0
H353 H 0.34753 0.36589 0.37869 0.0
H354 H 0.26578 0.32302 0.38726 0.0
O355 O 0.33403 0.31816 0.41418 0.0
O356 O 0.29093 0.2931 0.41531 0.0
O357 O 0.28 0.3317 0.44499 0.0
C358 C 0.31351 0.29583 0.40815 0.0
H359 H 0.29009 0.26897 0.51964 0.0
H360 H 0.32657 0.37508 0.33122 0.0
H361 H 0.34983 0.42619 0.43157 0.0
H362 H 0.40208 0.39668 0.44922 0.0
Co363 Co 0.99712 0.30578 0.5942 0.0
C364 C 1.00496 0.31211 0.65916 0.0
C365 C 0.04088 0.32209 0.63703 0.0
C366 C 0.04582 0.32639 0.66678 0.0
N367 N 1.0152 0.31305 0.6321 0.0
N368 N 1.0233 0.32023 0.68073 0.0
H369 H 0.9847 0.30641 0.66285 0.0
H370 H 0.05547 0.32596 0.62042 0.0
C371 C 0.94064 0.26362 0.60669 0.0
O372 O 0.93233 0.26913 0.5823 0.0
N373 N 0.97967 0.29879 0.55617 0.0
C374 C 0.97771 0.31601 0.53838 0.0
C375 C 0.96468 0.3033 0.51297 0.0
C376 C 0.96888 0.27619 0.54078 0.0
N377 N 0.95891 0.27819 0.51463 0.0
C378 C 1.01002 0.35784 0.60527 0.0
C379 C 0.96046 0.35144 0.60323 0.0
C380 C 0.98212 0.37682 0.60307 0.0
C381 C 1.0071 0.37978 0.60538 0.0
C382 C 0.96428 0.3299 0.60326 0.0
N383 N 0.98892 0.33328 0.60278 0.0
H384 H 0.02956 0.36071 0.60593 0.0
H385 H 0.94736 0.3109 0.60226 0.0
H386 H 0.98513 0.33638 0.54346 0.0
H387 H 0.9677 0.25845 0.54903 0.0
O388 O 0.0296 0.32715 0.57375 0.0
O389 O 1.01247 0.2848 0.58215 0.0
O390 O 0.96466 0.2771 0.61459 0.0
C391 C 0.03133 0.30623 0.57074 0.0
H392 H 0.06463 0.33348 0.67732 0.0
H393 H 0.95917 0.31175 0.49509 0.0
H394 H 0.94076 0.34821 0.60176 0.0
H395 H 1.02439 0.39898 0.6063 0.0
C396 C 0.24714 0.32499 0.32673 0.0
C397 C 0.27073 0.34819 0.33208 0.0
C398 C 0.22873 0.32462 0.30694 0.0
C399 C 0.2212 0.36441 0.24709 0.0
H400 H 0.14733 0.31703 0.26077 0.0
C401 C 0.13789 0.37219 0.18868 0.0
C402 C 0.11879 0.34929 0.17476 0.0
C403 C 0.15662 0.37167 0.20716 0.0
C404 C 0.16792 0.33024 0.25663 0.0
H405 H 0.29332 0.38933 0.32161 0.0
H406 H 0.26089 0.38917 0.28823 0.0
H407 H 0.17942 0.31728 0.29491 0.0
H408 H 0.10403 0.30786 0.16951 0.0
H409 H 0.13643 0.30677 0.20265 0.0
H410 H 0.2093 0.37807 0.20949 0.0
C411 C 0.25682 0.3709 0.29823 0.0
C412 C 0.18641 0.33032 0.27607 0.0
C413 C 0.27544 0.3711 0.31753 0.0
C414 C 0.11865 0.32579 0.17985 0.0
C415 C 0.13704 0.32515 0.19888 0.0
C416 C 0.20267 0.36469 0.22805 0.0
C417 C 0.2332 0.34762 0.29246 0.0
C418 C 0.21338 0.34739 0.27161 0.0
C419 C 0.15626 0.34812 0.21258 0.0
C420 C 0.17587 0.34758 0.23261 0.0
H421 H 0.24319 0.30701 0.33744 0.0
H422 H 0.21115 0.30616 0.30276 0.0
H423 H 0.24168 0.37742 0.24232 0.0
H424 H 0.13852 0.39057 0.18493 0.0
H425 H 0.17118 0.38962 0.21756 0.0
C426 C 0.78098 0.121 0.36157 0.0
C427 C 0.78376 0.10206 0.34574 0.0
C428 C 0.80115 0.13911 0.37956 0.0
C429 C 0.86139 0.15243 0.4191 0.0
H430 H 0.8758 0.22395 0.41616 0.0
C431 C 0.9272 0.23163 0.50445 0.0
C432 C 0.9428 0.25742 0.49433 0.0
C433 C 0.90963 0.21202 0.48536 0.0
C434 C 0.87228 0.20415 0.41705 0.0
H435 H 0.80987 0.08697 0.33734 0.0
H436 H 0.84528 0.11886 0.36854 0.0
H437 H 0.8416 0.19103 0.38505 0.0
H438 H 0.95317 0.28244 0.45577 0.0
H439 H 0.9227 0.24831 0.42247 0.0
H440 H 0.89232 0.16573 0.45102 0.0
C441 C 0.82734 0.11956 0.36704 0.0
C442 C 0.85239 0.18517 0.39947 0.0
C443 C 0.80712 0.10142 0.34893 0.0
C444 C 0.94112 0.26291 0.4644 0.0
C445 C 0.92361 0.24333 0.44533 0.0
C446 C 0.8813 0.17145 0.4368 0.0
C447 C 0.82471 0.13885 0.38227 0.0
C448 C 0.84652 0.15904 0.40043 0.0
C449 C 0.90727 0.21774 0.45569 0.0
C450 C 0.8869 0.19754 0.43608 0.0
H451 H 0.76348 0.12238 0.35951 0.0
H452 H 0.79829 0.15343 0.39132 0.0
H453 H 0.85729 0.13246 0.42048 0.0
H454 H 0.92772 0.22676 0.52742 0.0
H455 H 0.89717 0.19262 0.49419 0.0
C456 C 0.71127 0.80254 0.50368 0.0
C457 C 0.70074 0.77666 0.5136 0.0
C458 C 0.71335 0.82207 0.52289 0.0
C459 C 0.68331 0.82941 0.59104 0.0
H460 H 0.74007 0.90121 0.58849 0.0
C461 C 0.67437 0.91179 0.64668 0.0
C462 C 0.69592 0.93077 0.66278 0.0
C463 C 0.67672 0.89388 0.62871 0.0
C464 C 0.72418 0.88119 0.58963 0.0
H465 H 0.68565 0.7514 0.55191 0.0
H466 H 0.68945 0.78538 0.58543 0.0
H467 H 0.74209 0.86824 0.55771 0.0
H468 H 0.73713 0.94609 0.67176 0.0
H469 H 0.74113 0.91451 0.64057 0.0
H470 H 0.66547 0.84215 0.62302 0.0
C471 C 0.69552 0.79051 0.56264 0.0
C472 C 0.72521 0.86235 0.57179 0.0
C473 C 0.69337 0.77101 0.54344 0.0
C474 C 0.72006 0.93161 0.65994 0.0
C475 C 0.72242 0.91366 0.64184 0.0
C476 C 0.68226 0.84819 0.60876 0.0
C477 C 0.705 0.81618 0.55247 0.0
C478 C 0.70471 0.83623 0.57218 0.0
C479 C 0.70066 0.89436 0.6263 0.0
C480 C 0.70254 0.87437 0.6081 0.0
H481 H 0.71686 0.80751 0.48076 0.0
H482 H 0.7205 0.84155 0.51421 0.0
H483 H 0.667 0.80959 0.59168 0.0
H484 H 0.6554 0.91024 0.64846 0.0
H485 H 0.65965 0.87956 0.61671 0.0
C486 C 0.9215 0.66459 0.6951 0.0
C487 C 0.942 0.68674 0.68148 0.0
C488 C 0.90459 0.66696 0.71478 0.0
C489 C 0.88064 0.71176 0.73685 0.0
H490 H 0.85222 0.66406 0.80322 0.0
C491 C 0.811 0.71568 0.82592 0.0
C492 C 0.78878 0.69148 0.83246 0.0
C493 C 0.83105 0.71696 0.80813 0.0
C494 C 0.85992 0.67745 0.78471 0.0
H495 H 0.96107 0.72889 0.67838 0.0
H496 H 0.93177 0.73314 0.71321 0.0
H497 H 0.88539 0.66328 0.77201 0.0
H498 H 0.7704 0.64968 0.82571 0.0
H499 H 0.80525 0.65189 0.79489 0.0
H500 H 0.85511 0.72599 0.74998 0.0
C501 C 0.92847 0.71383 0.70821 0.0
C502 C 0.87888 0.67696 0.76671 0.0
C503 C 0.94534 0.71142 0.68831 0.0
C504 C 0.78705 0.66864 0.8208 0.0
C505 C 0.80717 0.66989 0.80341 0.0
C506 C 0.8618 0.71241 0.7551 0.0
C507 C 0.90778 0.69159 0.72162 0.0
C508 C 0.88915 0.69374 0.74217 0.0
C509 C 0.82945 0.69402 0.79698 0.0
C510 C 0.85089 0.69491 0.77889 0.0
H511 H 0.91798 0.64524 0.68991 0.0
H512 H 0.88857 0.64931 0.72406 0.0
H513 H 0.88786 0.7248 0.71801 0.0
H514 H 0.81281 0.73359 0.8345 0.0
H515 H 0.84803 0.73583 0.80359 0.0
C516 C 0.24573 0.9304 0.84797 0.0
C517 C 0.27023 0.93215 0.84478 0.0
C518 C 0.22681 0.91186 0.86697 0.0
C519 C 0.20552 0.8479 0.89948 0.0
H520 H 0.17063 0.86693 0.95879 0.0
C521 C 0.14121 0.77441 0.98851 0.0
C522 C 0.11897 0.77473 0.99883 0.0
C523 C 0.15906 0.79406 0.96983 0.0
C524 C 0.1798 0.86112 0.94205 0.0
H525 H 0.29401 0.91572 0.85879 0.0
H526 H 0.26081 0.88299 0.89155 0.0
H527 H 0.20263 0.90035 0.92571 0.0
H528 H 0.098 0.79597 0.99779 0.0
H529 H 0.12872 0.83003 0.96418 0.0
H530 H 0.18243 0.8087 0.91485 0.0
C531 C 0.25635 0.89613 0.87954 0.0
C532 C 0.19825 0.88035 0.9232 0.0
C533 C 0.27541 0.91496 0.86098 0.0
C534 C 0.11505 0.79532 0.99022 0.0
C535 C 0.13275 0.81487 0.97106 0.0
C536 C 0.18683 0.82864 0.91793 0.0
C537 C 0.23185 0.89436 0.88271 0.0
C538 C 0.21153 0.87396 0.902 0.0
C539 C 0.15499 0.81445 0.96048 0.0
C540 C 0.17395 0.83498 0.93982 0.0
H541 H 0.2413 0.94353 0.83592 0.0
H542 H 0.20806 0.91085 0.86891 0.0
H543 H 0.21514 0.84235 0.883 0.0
H544 H 0.14507 0.75912 0.99531 0.0
H545 H 0.17625 0.79335 0.96302 0.0
C546 C 0.38051 0.26587 0.03151 0.0
C547 C 0.35907 0.26336 0.01524 0.0
C548 C 0.37804 0.24551 0.04943 0.0
C549 C 0.33005 0.18497 0.08772 0.0
H550 H 0.38681 0.16994 0.0858 0.0
C551 C 0.34031 0.11661 0.17208 0.0
C552 C 0.35024 0.10083 0.16181 0.0
C553 C 0.33922 0.13491 0.15339 0.0
C554 C 0.37064 0.17365 0.08641 0.0
H555 H 0.3179 0.23754 0.006 0.0
H556 H 0.31366 0.20183 0.03705 0.0
H557 H 0.38913 0.20484 0.05517 0.0
H558 H 0.36552 0.09109 0.12333 0.0
H559 H 0.36355 0.12288 0.09074 0.0
H560 H 0.31148 0.15351 0.11884 0.0
C561 C 0.3324 0.21969 0.03597 0.0
C562 C 0.37214 0.19393 0.06911 0.0
C563 C 0.33489 0.24009 0.01794 0.0
C564 C 0.35821 0.10322 0.13211 0.0
C565 C 0.3571 0.12148 0.11343 0.0
C566 C 0.32859 0.16468 0.10514 0.0
C567 C 0.35405 0.22203 0.05162 0.0
C568 C 0.35196 0.19998 0.06967 0.0
C569 C 0.34802 0.13789 0.12397 0.0
C570 C 0.34893 0.15883 0.10477 0.0
H571 H 0.3995 0.28331 0.02984 0.0
H572 H 0.39502 0.24815 0.06152 0.0
H573 H 0.31424 0.18919 0.08881 0.0
H574 H 0.33433 0.11559 0.1949 0.0
H575 H 0.33238 0.1474 0.16235 0.0
C576 C 0.0959 0.46119 0.09022 0.0
C577 C 0.07989 0.44396 0.06796 0.0
C578 C 0.09799 0.48568 0.09375 0.0
C579 C 0.08507 0.534 0.05589 0.0
H580 H 0.08098 0.5556 0.13579 0.0
C581 C 0.05797 0.61302 0.07969 0.0
C582 C 0.0714 0.63129 0.10224 0.0
C583 C 0.06151 0.59161 0.07552 0.0
C584 C 0.08251 0.55006 0.11336 0.0
H585 H 0.05445 0.43955 0.03115 0.0
H586 H 0.05773 0.48193 0.03755 0.0
H587 H 0.08324 0.51599 0.12791 0.0
H588 H 0.09911 0.64125 0.13819 0.0
H589 H 0.10539 0.60374 0.13082 0.0
H590 H 0.08382 0.56778 0.04134 0.0
C591 C 0.06885 0.47667 0.05221 0.0
C592 C 0.08385 0.52734 0.10882 0.0
C593 C 0.06675 0.45221 0.04871 0.0
C594 C 0.08854 0.6276 0.12055 0.0
C595 C 0.09198 0.60601 0.11646 0.0
C596 C 0.08367 0.55664 0.06043 0.0
C597 C 0.08418 0.49358 0.07506 0.0
C598 C 0.08478 0.51881 0.08 0.0
C599 C 0.07858 0.58782 0.09379 0.0
C600 C 0.08198 0.56475 0.0892 0.0
H601 H 0.10609 0.4554 0.10565 0.0
H602 H 0.11023 0.49832 0.11134 0.0
H603 H 0.08628 0.52833 0.03343 0.0
H604 H 0.04493 0.61544 0.06487 0.0
H605 H 0.05061 0.57783 0.0581 0.0
C606 C 0.45322 0.03989 0.24886 0.0
C607 C 0.45093 0.05769 0.26745 0.0
C608 C 0.4773 0.04135 0.24471 0.0
C609 C 0.54869 0.08534 0.25122 0.0
H610 H 0.54946 0.02022 0.24836 0.0
C611 C 0.64389 0.07914 0.24958 0.0
C612 C 0.64396 0.05974 0.23164 0.0
C613 C 0.62107 0.08049 0.25313 0.0
C614 C 0.54956 0.03858 0.24872 0.0
H615 H 0.47239 0.09131 0.29595 0.0
H616 H 0.51469 0.09379 0.28884 0.0
H617 H 0.50852 0.01947 0.25727 0.0
H618 H 0.62044 0.02749 0.20208 0.0
H619 H 0.58069 0.02985 0.20824 0.0
H620 H 0.58993 0.10439 0.24283 0.0
C621 C 0.49773 0.07879 0.27731 0.0
C622 C 0.52607 0.03816 0.25388 0.0
C623 C 0.47352 0.07734 0.28144 0.0
C624 C 0.62094 0.04236 0.21648 0.0
C625 C 0.59815 0.0437 0.22005 0.0
C626 C 0.57229 0.08576 0.24612 0.0
C627 C 0.49984 0.06065 0.25905 0.0
C628 C 0.52525 0.06149 0.2549 0.0
C629 C 0.59779 0.06244 0.23887 0.0
C630 C 0.57293 0.06234 0.24453 0.0
H631 H 0.43638 0.02494 0.23709 0.0
H632 H 0.47828 0.02747 0.22992 0.0
H633 H 0.54871 0.10365 0.2516 0.0
H634 H 0.66117 0.09263 0.2619 0.0
H635 H 0.62141 0.09503 0.26797 0.0
C636 C 0.57483 0.63427 0.41877 0.0
C637 C 0.59465 0.63373 0.40206 0.0
C638 C 0.55029 0.61174 0.42194 0.0
C639 C 0.5201 0.54025 0.41958 0.0
H640 H 0.45413 0.53952 0.41718 0.0
C641 C 0.42303 0.44381 0.41769 0.0
C642 C 0.40221 0.44143 0.43505 0.0
C643 C 0.44544 0.46803 0.4135 0.0
C644 C 0.47241 0.53947 0.41827 0.0
H645 H 0.60358 0.60944 0.37409 0.0
H646 H 0.56095 0.57027 0.37966 0.0
H647 H 0.49513 0.5806 0.4094 0.0
H648 H 0.38826 0.46286 0.46079 0.0
H649 H 0.42785 0.50551 0.45373 0.0
H650 H 0.49773 0.49941 0.42869 0.0
C651 C 0.56453 0.58795 0.39083 0.0
C652 C 0.49589 0.56298 0.41375 0.0
C653 C 0.58898 0.61042 0.38763 0.0
C654 C 0.40401 0.46409 0.44736 0.0
C655 C 0.42665 0.48849 0.44325 0.0
C656 C 0.49677 0.51689 0.42419 0.0
C657 C 0.54507 0.58817 0.40853 0.0
C658 C 0.51998 0.56355 0.41397 0.0
C659 C 0.4478 0.49064 0.42661 0.0
C660 C 0.47257 0.51607 0.4232 0.0
H661 H 0.5786 0.6518 0.43044 0.0
H662 H 0.53578 0.61253 0.43585 0.0
H663 H 0.53834 0.5401 0.42066 0.0
H664 H 0.42197 0.42685 0.40719 0.0
H665 H 0.46097 0.46901 0.39985 0.0
C666 C 0.95728 0.57114 0.57918 0.0
C667 C 0.97671 0.59008 0.56074 0.0
C668 C 0.95479 0.54648 0.58244 0.0
C669 C 0.9739 0.50122 0.54868 0.0
H670 H 0.96441 0.47328 0.62824 0.0
C671 C 0.99607 0.41994 0.57893 0.0
C672 C 0.97907 0.40005 0.59833 0.0
C673 C 0.99334 0.4417 0.57376 0.0
C674 C 0.96668 0.4806 0.60583 0.0
H675 H 1.00807 0.59747 0.53036 0.0
H676 H 1.00405 0.55469 0.53639 0.0
H677 H 0.96379 0.51367 0.61963 0.0
H678 H 0.94578 0.3875 0.6275 0.0
H679 H 0.94092 0.42568 0.61836 0.0
H680 H 0.97728 0.46842 0.53498 0.0
C681 C 0.99057 0.5588 0.5482 0.0
C682 C 0.96631 0.50377 0.60087 0.0
C683 C 0.99306 0.58346 0.54496 0.0
C684 C 0.95914 0.40244 0.61238 0.0
C685 C 0.95648 0.42438 0.6073 0.0
C686 C 0.97432 0.47812 0.55365 0.0
C687 C 0.97165 0.54012 0.56732 0.0
C688 C 0.97026 0.51455 0.57228 0.0
C689 C 0.97352 0.44422 0.58784 0.0
C690 C 0.97109 0.46772 0.58235 0.0
H691 H 0.94453 0.57564 0.59195 0.0
H692 H 0.9398 0.53247 0.59705 0.0
H693 H 0.97651 0.50869 0.52631 0.0
H694 H 1.01137 0.41855 0.56735 0.0
H695 H 1.007 0.45674 0.55894 0.0
C696 C 0.42416 0.98922 0.75969 0.0
C697 C 0.40317 0.97046 0.74276 0.0
C698 C 0.44664 0.98754 0.76391 0.0
C699 C 0.47365 0.94303 0.76007 0.0
H700 H 0.53954 1.00832 0.75655 0.0
C701 C 0.57603 0.95055 0.75969 0.0
C702 C 0.59604 0.97122 0.77592 0.0
C703 C 0.55149 0.94853 0.75652 0.0
C704 C 0.52132 0.98994 0.75796 0.0
H705 H 0.38905 0.93463 0.7178 0.0
H706 H 0.42873 0.93177 0.72492 0.0
H707 H 0.49886 1.00825 0.7485 0.0
H708 H 0.60527 1.005 0.80303 0.0
H709 H 0.56264 1.00152 0.79745 0.0
H710 H 0.49645 0.92478 0.7693 0.0
C711 C 0.42761 0.94777 0.73505 0.0
C712 C 0.49794 0.98988 0.75333 0.0
C713 C 0.40491 0.94941 0.73091 0.0
C714 C 0.59054 0.98916 0.78987 0.0
C715 C 0.56608 0.98717 0.78665 0.0
C716 C 0.49717 0.94308 0.76462 0.0
C717 C 0.44892 0.96708 0.75126 0.0
C718 C 0.47375 0.96651 0.75471 0.0
C719 C 0.54642 0.96717 0.76943 0.0
C720 C 0.52127 0.96661 0.76399 0.0
H721 H 0.42318 1.00529 0.76984 0.0
H722 H 0.46228 1.00235 0.77723 0.0
H723 H 0.45539 0.9247 0.76148 0.0
H724 H 0.57965 0.93653 0.74839 0.0
H725 H 0.53684 0.93297 0.74297 0.0
C726 C 0.46462 0.4252 0.88427 0.0
C727 C 0.45855 0.40293 0.9012 0.0
C728 C 0.48849 0.44828 0.88798 0.0
C729 C 0.55538 0.47613 0.91895 0.0
H730 H 0.55149 0.53956 0.92266 0.0
C731 C 0.64313 0.57659 0.95466 0.0
C732 C 0.64675 0.5985 0.93855 0.0
C733 C 0.62068 0.55213 0.95037 0.0
C734 C 0.55302 0.52209 0.92138 0.0
H735 H 0.47326 0.38733 0.93472 0.0
H736 H 0.51498 0.4276 0.94109 0.0
H737 H 0.51203 0.49803 0.91341 0.0
H738 H 0.63007 0.61153 0.90438 0.0
H739 H 0.59122 0.56923 0.89701 0.0
H740 H 0.5965 0.50038 0.92696 0.0
C741 C 0.50133 0.42713 0.92476 0.0
C742 C 0.53037 0.49825 0.91601 0.0
C743 C 0.47741 0.40401 0.92106 0.0
C744 C 0.62762 0.59528 0.91779 0.0
C745 C 0.60531 0.57096 0.9135 0.0
C746 C 0.57813 0.50007 0.9243 0.0
C747 C 0.50692 0.44971 0.90872 0.0
C748 C 0.53126 0.47498 0.9145 0.0
C749 C 0.60143 0.54909 0.92983 0.0
C750 C 0.57724 0.52338 0.92534 0.0
H751 H 0.45072 0.42491 0.86842 0.0
H752 H 0.49241 0.46514 0.87478 0.0
H753 H 0.55677 0.45858 0.91776 0.0
H754 H 0.65743 0.5784 0.9709 0.0
H755 H 0.61821 0.53572 0.96348 0.0
C756 C 0.04122 0.34064 0.72926 0.0
C757 C 1.02011 0.32228 0.71211 0.0
C758 C 0.03902 0.34149 0.75995 0.0
C759 C 1.02629 0.34693 0.82376 0.0
H760 H 0.99351 0.28035 0.8645 0.0
C761 C 0.04099 0.33601 0.94898 0.0
C762 C 1.01991 0.31609 0.96469 0.0
C763 C 0.03912 0.33868 0.91839 0.0
C764 C 1.00236 0.29915 0.85355 0.0
H765 H 0.97982 0.29094 0.7138 0.0
H766 H 0.97582 0.29256 0.76756 0.0
H767 H 0.99302 0.28136 0.81073 0.0
H768 H 0.9798 0.28463 0.96112 0.0
H769 H 0.97634 0.28948 0.90807 0.0
H770 H 0.03601 0.36469 0.8667 0.0
C771 C 0.99422 0.30612 0.75717 0.0
C772 C 1.00205 0.29971 0.82264 0.0
C773 C 0.9964 0.30534 0.72635 0.0
C774 C 0.99653 0.29982 0.94949 0.0
C775 C 0.9946 0.30257 0.91906 0.0
C776 C 1.02658 0.34637 0.85474 0.0
C777 C 1.01564 0.32399 0.77438 0.0
C778 C 1.01424 0.32358 0.80732 0.0
C779 C 1.01607 0.32157 0.90294 0.0
C780 C 1.0148 0.32246 0.87003 0.0
H781 H 0.05962 0.35427 0.71898 0.0
H782 H 0.05599 0.35535 0.77245 0.0
H783 H 0.03558 0.36567 0.81268 0.0
H784 H 0.05931 0.34869 0.96007 0.0
H785 H 0.05611 0.35342 0.90668 0.0
C786 C 0.73214 0.04144 0.8943 0.0
C787 C 0.72059 0.01852 0.8771 0.0
C788 C 0.72956 0.04033 0.92504 0.0
C789 C 0.71456 0.9947 0.98791 0.0
H790 H 0.71733 0.05211 0.03227 0.0
C791 C 0.73958 1.00718 0.1116 0.0
C792 C 0.72754 1.0169 0.1304 0.0
C793 C 0.73664 1.00721 0.08097 0.0
C794 C 0.71618 0.03571 0.02034 0.0
H795 H 0.69615 0.97637 0.87921 0.0
H796 H 0.69078 0.97448 0.93275 0.0
H797 H 0.7135 0.05133 0.97866 0.0
H798 H 0.70323 0.03461 0.13193 0.0
H799 H 0.69738 0.03411 0.0782 0.0
H800 H 0.71633 0.9786 0.02956 0.0
C801 C 0.70255 0.99336 0.92242 0.0
C802 C 0.71436 0.03543 0.98944 0.0
C803 C 0.70537 0.99446 0.89155 0.0
C804 C 0.71286 0.02718 0.11787 0.0
C805 C 0.70957 0.02688 0.0871 0.0
C806 C 0.71604 0.9948 0.01878 0.0
C807 C 0.715 1.01628 0.93965 0.0
C808 C 0.7141 1.01521 0.97271 0.0
C809 C 0.72121 1.0166 0.06823 0.0
C810 C 0.71749 1.0156 0.03544 0.0
H811 H 0.74352 0.06043 0.88414 0.0
H812 H 0.73974 0.05841 0.93735 0.0
H813 H 0.71463 0.97887 0.97597 0.0
H814 H 0.7514 0.99957 0.12066 0.0
H815 H 0.74663 0.99991 0.0673 0.0
C816 C 0.7145 0.73302 0.06066 0.0
C817 C 0.72685 0.72181 0.04463 0.0
C818 C 0.71163 0.73014 0.09132 0.0
C819 C 0.71093 0.69047 0.15447 0.0
H820 H 0.73048 0.75335 0.19966 0.0
C821 C 0.72567 0.6952 0.28108 0.0
C822 C 0.71946 0.71128 0.29811 0.0
C823 C 0.72427 0.69509 0.25023 0.0
C824 C 0.72447 0.73548 0.18747 0.0
H825 H 0.74506 0.69796 0.04851 0.0
H826 H 0.73974 0.69266 0.10222 0.0
H827 H 0.73239 0.75533 0.14588 0.0
H828 H 0.70601 0.73925 0.29565 0.0
H829 H 0.70274 0.73844 0.24182 0.0
H830 H 0.70279 0.67052 0.19601 0.0
C831 C 0.73233 0.70374 0.09083 0.0
C832 C 0.72569 0.73665 0.15657 0.0
C833 C 0.73536 0.70675 0.06005 0.0
C834 C 0.7109 0.72658 0.28338 0.0
C835 C 0.70934 0.72635 0.25241 0.0
C836 C 0.70948 0.68923 0.18541 0.0
C837 C 0.72083 0.71579 0.10685 0.0
C838 C 0.71908 0.71421 0.13971 0.0
C839 C 0.71636 0.71085 0.2354 0.0
C840 C 0.71643 0.71177 0.20236 0.0
H841 H 0.70704 0.74414 0.04957 0.0
H842 H 0.70219 0.7392 0.10291 0.0
H843 H 0.70538 0.67278 0.14209 0.0
H844 H 0.73184 0.68272 0.2915 0.0
H845 H 0.7301 0.68309 0.23802 0.0
C846 C 0.03048 0.74054 0.44388 0.0
C847 C 1.02307 0.71918 0.46288 0.0
C848 C 0.0309 0.73763 0.41329 0.0
C849 C 1.00727 0.6884 0.35284 0.0
H850 H 0.06136 0.74671 0.3088 0.0
C851 C 1.00194 0.69708 0.22627 0.0
C852 C 1.02511 0.71005 0.20955 0.0
C853 C 1.00272 0.69599 0.2571 0.0
C854 C 0.04634 0.73002 0.32065 0.0
H855 H 1.00983 0.67787 0.46472 0.0
H856 H 1.01104 0.67271 0.41102 0.0
H857 H 0.06079 0.74872 0.36236 0.0
H858 H 0.06744 0.7312 0.21266 0.0
H859 H 0.06884 0.72846 0.26632 0.0
H860 H 0.99331 0.66939 0.31108 0.0
C861 C 1.01616 0.69171 0.41978 0.0
C862 C 0.04573 0.73136 0.3515 0.0
C863 C 1.01545 0.6946 0.45053 0.0
C864 C 0.04917 0.72102 0.2246 0.0
C865 C 0.04995 0.71972 0.25554 0.0
C866 C 1.00804 0.68694 0.32195 0.0
C867 C 1.02424 0.71331 0.40075 0.0
C868 C 1.02587 0.71083 0.36802 0.0
C869 C 1.02672 0.70753 0.27227 0.0
C870 C 0.0273 0.70795 0.30535 0.0
H871 H 0.03596 0.7596 0.45274 0.0
H872 H 0.03642 0.75455 0.39946 0.0
H873 H 0.99163 0.67221 0.36469 0.0
H874 H 0.98299 0.68787 0.21567 0.0
H875 H 0.98438 0.68669 0.26904 0.0
C876 C 0.34032 1.00776 0.6174 0.0
C877 C 0.32961 0.02236 0.62923 0.0
C878 C 0.34657 1.00946 0.58723 0.0
C879 C 0.33999 1.00219 0.52063 0.0
H880 H 0.35691 0.06413 0.47495 0.0
C881 C 0.31706 0.99612 0.39662 0.0
C882 C 0.33193 1.01747 0.37773 0.0
C883 C 0.3218 0.99793 0.42701 0.0
C884 C 0.35265 0.04673 0.48722 0.0
H885 H 0.31885 0.05153 0.61862 0.0
H886 H 0.32822 0.05339 0.56647 0.0
H887 H 0.35825 0.06638 0.52855 0.0
H888 H 0.36445 0.05735 0.37673 0.0
H889 H 0.37337 0.0601 0.4295 0.0
H890 H 0.33528 0.98277 0.47933 0.0
C891 C 0.33233 0.04092 0.58028 0.0
C892 C 0.35298 0.0479 0.51816 0.0
C893 C 0.32643 0.03948 0.61035 0.0
C894 C 0.35243 0.04043 0.39025 0.0
C895 C 0.35742 0.04212 0.42076 0.0
C896 C 0.34013 1.00114 0.48971 0.0
C897 C 0.3421 0.02564 0.56808 0.0
C898 C 0.34576 0.02543 0.53534 0.0
C899 C 0.34192 0.02099 0.43966 0.0
C900 C 0.34556 0.02314 0.47251 0.0
H901 H 0.3431 0.99438 0.63112 0.0
H902 H 0.35452 0.99773 0.57887 0.0
H903 H 0.33423 0.98439 0.53286 0.0
H904 H 0.30142 0.97785 0.38821 0.0
H905 H 0.30907 0.98132 0.44065 0.0
C906 C 0.33999 0.34085 0.55932 0.0
C907 C 0.32883 0.31546 0.54757 0.0
C908 C 0.34656 0.34546 0.5894 0.0
C909 C 0.35349 0.31352 0.65818 0.0
H910 H 0.33722 0.36176 0.69756 0.0
C911 C 0.35592 0.32179 0.78603 0.0
C912 C 0.33575 0.32445 0.79912 0.0
C913 C 0.36025 0.32481 0.7554 0.0
C914 C 0.34168 0.34803 0.68702 0.0
H915 H 0.31748 0.27539 0.55827 0.0
H916 H 0.32748 0.28304 0.61033 0.0
H917 H 0.33508 0.35863 0.64405 0.0
H918 H 0.30523 0.33373 0.78969 0.0
H919 H 0.31172 0.33745 0.73697 0.0
H920 H 0.35817 0.30152 0.70125 0.0
C921 C 0.33168 0.29962 0.59647 0.0
C922 C 0.34091 0.34656 0.65611 0.0
C923 C 0.32544 0.2951 0.56647 0.0
C924 C 0.32058 0.33091 0.78073 0.0
C925 C 0.32467 0.33358 0.75022 0.0
C926 C 0.35383 0.31467 0.68911 0.0
C927 C 0.34198 0.32478 0.60856 0.0
C928 C 0.34617 0.32882 0.64123 0.0
C929 C 0.34441 0.33038 0.73698 0.0
C930 C 0.34728 0.33148 0.70404 0.0
H931 H 0.34293 0.35707 0.54559 0.0
H932 H 0.35489 0.3652 0.59769 0.0
H933 H 0.35835 0.30009 0.64761 0.0
H934 H 0.3681 0.31686 0.79922 0.0
H935 H 0.37593 0.32259 0.74618 0.0
C936 C 0.26905 0.28882 0.96487 0.0
C937 C 0.29193 0.31122 0.95533 0.0
C938 C 0.24787 0.29084 0.97562 0.0
C939 C 0.21636 0.32909 0.96654 0.0
H940 H 0.1874 0.30743 0.04521 0.0
C941 C 0.14201 0.35587 0.01229 0.0
C942 C 0.12236 0.33832 0.03146 0.0
C943 C 0.16245 0.35182 1.00386 0.0
C944 C 0.19486 0.31317 0.02296 0.0
H945 H 0.31067 0.35323 0.94976 0.0
H946 H 0.27355 0.35652 0.96773 0.0
H947 H 0.22282 0.3004 0.02884 0.0
H948 H 0.10859 0.30264 0.05669 0.0
H949 H 0.14349 0.29487 0.041 0.0
H950 H 0.1882 0.3411 0.95991 0.0
C951 C 0.27211 0.33753 0.96719 0.0
C952 C 0.21523 0.30921 0.01371 0.0
C953 C 0.29337 0.33562 0.95707 0.0
C954 C 0.12358 0.31663 0.04205 0.0
C955 C 0.14374 0.31227 0.03315 0.0
C956 C 0.1957 0.33257 0.9755 0.0
C957 C 0.24912 0.31518 0.97633 0.0
C958 C 0.22637 0.3175 0.98559 0.0
C959 C 0.16347 0.32978 0.01387 0.0
C960 C 0.18489 0.32505 1.00402 0.0
H961 H 0.26744 0.26978 0.96375 0.0
H962 H 0.23027 0.27334 0.98255 0.0
H963 H 0.22451 0.3354 0.9446 0.0
H964 H 0.14173 0.37291 1.00401 0.0
H965 H 0.17756 0.36615 0.98963 0.0
C966 C 0.99079 0.25069 0.11723 0.0
C967 C 0.99617 0.27664 0.11849 0.0
C968 C 0.967 0.23034 0.12779 0.0
C969 C 0.89959 0.21545 0.14641 0.0
H970 H 0.89551 0.15584 0.18717 0.0
C971 C 0.8122 0.14514 0.21853 0.0
C972 C 0.80284 0.11822 0.21586 0.0
C973 C 0.83481 0.16319 0.20369 0.0
C974 C 0.89633 0.17221 0.17546 0.0
H975 H 0.98136 0.30178 0.13274 0.0
H976 H 0.94038 0.26653 0.15206 0.0
H977 H 0.9376 0.19018 0.16852 0.0
H978 H 0.80958 0.08908 0.19511 0.0
H979 H 0.84955 0.12085 0.16942 0.0
H980 H 0.85845 0.19783 0.15431 0.0
C981 C 0.95406 0.26167 0.1421 0.0
C982 C 0.92043 0.1919 0.16475 0.0
C983 C 0.97768 0.28194 0.13128 0.0
C984 C 0.81629 0.1097 0.19751 0.0
C985 C 0.83921 0.12784 0.18298 0.0
C986 C 0.8756 0.19593 0.15738 0.0
C987 C 0.94819 0.23555 0.14006 0.0
C988 C 0.92243 0.21395 0.15041 0.0
C989 C 0.84877 0.15477 0.18614 0.0
C990 C 0.87378 0.17426 0.1723 0.0
H991 H 1.00461 0.24601 0.10729 0.0
H992 H 0.96309 0.21048 0.12558 0.0
H993 H 0.9002 0.23176 0.13481 0.0
H994 H 0.80225 0.15234 0.23243 0.0
H995 H 0.84184 0.18382 0.20672 0.0
C996 C 0.72026 0.80438 0.36301 0.0
C997 C 0.69862 0.79199 0.38209 0.0
C998 C 0.72597 0.82762 0.34856 0.0
C999 C 0.69648 0.86679 0.32524 0.0
H1000 H 0.7662 0.92672 0.33338 0.0
C1001 C 0.7151 0.96977 0.3036 0.0
C1002 C 0.73775 0.98736 0.28812 0.0
C1003 C 0.71198 0.9462 0.31403 0.0
C1004 C 0.74674 0.9101 0.33052 0.0
H1005 H 0.66546 0.79368 0.40006 0.0
H1006 H 0.67513 0.83375 0.3746 0.0
H1007 H 0.75715 0.88391 0.35121 0.0
H1008 H 0.77537 0.9945 0.27226 0.0
H1009 H 0.76981 0.95296 0.29022 0.0
H1010 H 0.6859 0.89266 0.30466 0.0
C1011 C 0.68777 0.82566 0.37086 0.0
C1012 C 0.74158 0.8856 0.3407 0.0
C1013 C 0.6823 0.80275 0.38556 0.0
C1014 C 0.75775 0.98135 0.28428 0.0
C1015 C 0.75455 0.95756 0.29455 0.0
C1016 C 0.70165 0.89114 0.31492 0.0
C1017 C 0.70985 0.83857 0.35256 0.0
C1018 C 0.71625 0.86383 0.33872 0.0
C1019 C 0.73132 0.93944 0.30896 0.0
C1020 C 0.72667 0.91325 0.31805 0.0
H1021 H 0.73326 0.79661 0.35998 0.0
H1022 H 0.74302 0.8371 0.33442 0.0
H1023 H 0.67688 0.85026 0.32298 0.0
H1024 H 0.69944 0.97397 0.30716 0.0
H1025 H 0.69418 0.93309 0.32578 0.0
C1026 C 0.78955 0.74717 0.44998 0.0
C1027 C 0.7636 0.72722 0.45452 0.0
C1028 C 0.81038 0.74458 0.46081 0.0
C1029 C 0.82486 0.69324 0.48504 0.0
H1030 H 0.88741 0.75072 0.51931 0.0
C1031 C 0.89585 0.67785 0.55719 0.0
C1032 C 0.92284 0.69416 0.55271 0.0
C1033 C 0.87789 0.68266 0.54259 0.0
C1034 C 0.8702 0.73459 0.50941 0.0
H1035 H 0.73903 0.68958 0.47516 0.0
H1036 H 0.77507 0.68539 0.49467 0.0
H1037 H 0.85307 0.75831 0.50002 0.0
H1038 H 0.95215 0.72827 0.52915 0.0
H1039 H 0.92054 0.73687 0.50377 0.0
H1040 H 0.84162 0.6694 0.49512 0.0
C1041 C 0.77953 0.70268 0.48201 0.0
C1042 C 0.85052 0.73891 0.49838 0.0
C1043 C 0.75883 0.70518 0.47105 0.0
C1044 C 0.93147 0.7153 0.53299 0.0
C1045 C 0.91343 0.72032 0.51862 0.0
C1046 C 0.84437 0.68891 0.49622 0.0
C1047 C 0.80558 0.72203 0.47648 0.0
C1048 C 0.82739 0.71816 0.48655 0.0
C1049 C 0.88645 0.70405 0.52336 0.0
C1050 C 0.86704 0.70941 0.50897 0.0
H1051 H 0.7938 0.76434 0.43719 0.0
H1052 H 0.83019 0.75982 0.45605 0.0
H1053 H 0.80767 0.67695 0.47533 0.0
H1054 H 0.88851 0.66139 0.57219 0.0
H1055 H 0.85724 0.66994 0.54692 0.0
C1056 C 0.22973 0.92022 0.71201 0.0
C1057 C 0.2528 0.92246 0.70034 0.0
C1058 C 0.20528 0.89991 0.70309 0.0
C1059 C 0.17383 0.85 0.6434 0.0
H1060 H 0.11468 0.82053 0.69713 0.0
C1061 C 0.07878 0.7535 0.62115 0.0
C1062 C 0.05585 0.75511 0.62069 0.0
C1063 C 0.1021 0.77414 0.63199 0.0
C1064 C 0.13104 0.82876 0.68191 0.0
H1065 H 0.26841 0.90467 0.67102 0.0
H1066 H 0.22595 0.86851 0.65657 0.0
H1067 H 0.15719 0.85536 0.7143 0.0
H1068 H 0.03911 0.77922 0.63214 0.0
H1069 H 0.08008 0.81525 0.65215 0.0
H1070 H 0.14774 0.82246 0.61152 0.0
C1071 C 0.22653 0.88296 0.6717 0.0
C1072 C 0.1554 0.8488 0.69162 0.0
C1073 C 0.25096 0.90358 0.68018 0.0
C1074 C 0.05651 0.77749 0.63223 0.0
C1075 C 0.07984 0.79801 0.64369 0.0
C1076 C 0.14966 0.82966 0.63395 0.0
C1077 C 0.20329 0.88102 0.68268 0.0
C1078 C 0.1772 0.85968 0.6725 0.0
C1079 C 0.1029 0.79664 0.64313 0.0
C1080 C 0.1281 0.81884 0.65312 0.0
H1081 H 0.23052 0.93462 0.72743 0.0
H1082 H 0.18797 0.89945 0.71172 0.0
H1083 H 0.1898 0.85823 0.6277 0.0
H1084 H 0.07895 0.73657 0.6123 0.0
H1085 H 0.11961 0.77259 0.63152 0.0
C1086 C 0.33401 0.23133 0.86598 0.0
C1087 C 0.35587 0.24368 0.88477 0.0
C1088 C 0.32853 0.20854 0.85074 0.0
C1089 C 0.35858 0.17144 0.82314 0.0
H1090 H 0.29003 0.11011 0.83276 0.0
C1091 C 0.34101 0.06963 0.79463 0.0
C1092 C 0.31712 0.05133 0.78184 0.0
C1093 C 0.34459 0.09323 0.80562 0.0
C1094 C 0.30913 0.12712 0.82938 0.0
H1095 H 0.3896 0.24235 0.90151 0.0
H1096 H 0.38034 0.203 0.87445 0.0
H1097 H 0.29869 0.15194 0.85319 0.0
H1098 H 0.27808 0.04318 0.77071 0.0
H1099 H 0.28448 0.08482 0.78933 0.0
H1100 H 0.36913 0.14701 0.79917 0.0
C1101 C 0.36735 0.21081 0.87168 0.0
C1102 C 0.31407 0.15106 0.84114 0.0
C1103 C 0.37257 0.23328 0.88726 0.0
C1104 C 0.29667 0.05691 0.78063 0.0
C1105 C 0.30035 0.08074 0.79137 0.0
C1106 C 0.35357 0.14766 0.8111 0.0
C1107 C 0.34511 0.19802 0.85359 0.0
C1108 C 0.339 0.17331 0.83861 0.0
C1109 C 0.32449 0.09933 0.80373 0.0
C1110 C 0.32897 0.12503 0.81461 0.0
H1111 H 0.32072 0.23883 0.8637 0.0
H1112 H 0.31133 0.1991 0.83679 0.0
H1113 H 0.37786 0.1884 0.82052 0.0
H1114 H 0.35707 0.06577 0.79614 0.0
H1115 H 0.3632 0.10667 0.8157 0.0
C1116 C 0.72281 0.75792 0.86848 0.0
C1117 C 0.74462 0.76326 0.88589 0.0
C1118 C 0.72055 0.77818 0.85576 0.0
C1119 C 0.74004 0.8467 0.86602 0.0
H1120 H 0.71404 0.84042 0.78591 0.0
C1121 C 0.72267 0.92546 0.80936 0.0
C1122 C 0.70074 0.91611 0.79069 0.0
C1123 C 0.72991 0.90822 0.82162 0.0
C1124 C 0.72104 0.84238 0.80844 0.0
H1125 H 0.7814 0.794 0.90335 0.0
H1126 H 0.77731 0.82971 0.88118 0.0
H1127 H 0.72443 0.80814 0.80473 0.0
H1128 H 0.66841 0.88117 0.77165 0.0
H1129 H 0.68056 0.85127 0.79347 0.0
H1130 H 0.73596 0.88062 0.86995 0.0
C1131 C 0.76202 0.80973 0.8774 0.0
C1132 C 0.72713 0.82394 0.81914 0.0
C1133 C 0.76446 0.78933 0.88984 0.0
C1134 C 0.6856 0.8891 0.78563 0.0
C1135 C 0.69271 0.87194 0.79797 0.0
C1136 C 0.73377 0.86515 0.85533 0.0
C1137 C 0.73991 0.80433 0.86039 0.0
C1138 C 0.73626 0.8256 0.8482 0.0
C1139 C 0.71531 0.88129 0.81552 0.0
C1140 C 0.7237 0.86289 0.82658 0.0
H1141 H 0.70718 0.73802 0.86506 0.0
H1142 H 0.70316 0.77337 0.84305 0.0
H1143 H 0.74684 0.84837 0.8886 0.0
H1144 H 0.7348 0.94618 0.81363 0.0
H1145 H 0.74745 0.9161 0.83499 0.0
C1146 C 0.81791 0.67992 0.9544 0.0
C1147 C 0.80782 0.69666 0.95907 0.0
C1148 C 0.84187 0.68556 0.96656 0.0
C1149 C 0.89168 0.72512 0.02285 0.0
H1150 H 0.9362 0.71133 0.97186 0.0
C1151 C 0.99698 0.74999 0.0558 0.0
C1152 C 1.00203 0.7294 0.05158 0.0
C1153 C 0.97443 0.74862 0.04382 0.0
C1154 C 0.92397 0.71522 0.9864 0.0
H1155 H 0.81457 0.73201 0.98122 0.0
H1156 H 0.85679 0.74207 1.00233 0.0
H1157 H 0.89414 0.70353 0.95361 0.0
H1158 H 0.98792 0.69163 0.03086 0.0
H1159 H 0.94897 0.68941 0.00972 0.0
H1160 H 0.92176 0.73677 0.05568 0.0
C1161 C 0.84598 0.72444 0.98936 0.0
C1162 C 0.89979 0.71065 0.97601 0.0
C1163 C 0.8218 0.71869 0.97726 0.0
C1164 C 0.9846 0.70784 0.03445 0.0
C1165 C 0.96232 0.70661 0.02224 0.0
C1166 C 0.91603 0.72984 0.03323 0.0
C1167 C 0.85656 0.70822 0.98355 0.0
C1168 C 0.88307 0.71498 0.99429 0.0
C1169 C 0.95678 0.72681 0.02707 0.0
C1170 C 0.9322 0.72444 0.01528 0.0
H1171 H 0.80753 0.6626 0.94082 0.0
H1172 H 0.84903 0.67222 0.96232 0.0
H1173 H 0.87926 0.72858 0.03755 0.0
H1174 H 1.01 0.76679 0.06907 0.0
H1175 H 0.97075 0.76456 0.04774 0.0
C1176 C 0.1567 0.80117 0.12493 0.0
C1177 C 0.12955 0.79029 0.12801 0.0
C1178 C 0.17399 0.82433 0.13941 0.0
C1179 C 0.17936 0.88429 0.16897 0.0
H1180 H 0.24245 0.89237 0.20523 0.0
C1181 C 0.2585 0.98053 0.22573 0.0
C1182 C 0.28459 0.98694 0.22139 0.0
C1183 C 0.23794 0.95659 0.21556 0.0
C1184 C 0.22506 0.89055 0.19494 0.0
H1185 H 0.09923 0.795 0.14921 0.0
H1186 H 0.12963 0.83578 0.17446 0.0
H1187 H 0.20946 0.84978 0.18686 0.0
H1188 H 0.30966 0.97412 0.20154 0.0
H1189 H 0.27413 0.93302 0.18327 0.0
H1190 H 0.19536 0.92532 0.17644 0.0
C1191 C 0.13742 0.82626 0.16074 0.0
C1192 C 0.20611 0.86609 0.18454 0.0
C1193 C 0.12006 0.80284 0.14648 0.0
C1194 C 0.28975 0.96962 0.20554 0.0
C1195 C 0.26935 0.94591 0.19528 0.0
C1196 C 0.19846 0.9089 0.17927 0.0
C1197 C 0.16457 0.83733 0.15716 0.0
C1198 C 0.18327 0.86276 0.17094 0.0
C1199 C 0.24319 0.93874 0.20082 0.0
C1200 C 0.2218 0.91241 0.19181 0.0
H1201 H 0.16469 0.79204 0.11089 0.0
H1202 H 0.19479 0.83249 0.13597 0.0
H1203 H 0.16201 0.88233 0.1584 0.0
H1204 H 0.25397 0.99349 0.238 0.0
H1205 H 0.21801 0.95167 0.2202 0.0
C1206 C 0.29554 0.24846 0.39619 0.0
C1207 C 0.31616 0.27441 0.39502 0.0
C1208 C 0.29897 0.22816 0.38549 0.0
C1209 C 0.35167 0.2137 0.36574 0.0
H1210 H 0.29606 0.15452 0.32435 0.0
C1211 C 0.36878 0.14532 0.2903 0.0
C1212 C 0.35164 0.11831 0.29299 0.0
C1213 C 0.36414 0.16299 0.30582 0.0
C1214 C 0.31165 0.17078 0.33621 0.0
H1215 H 0.35619 0.29963 0.38084 0.0
H1216 H 0.36191 0.26459 0.36128 0.0
H1217 H 0.28811 0.18826 0.34438 0.0
H1218 H 0.31637 0.08858 0.31442 0.0
H1219 H 0.30799 0.11967 0.34124 0.0
H1220 H 0.37545 0.19665 0.3565 0.0
C1221 C 0.34334 0.25961 0.37132 0.0
C1222 C 0.30711 0.19011 0.34774 0.0
C1223 C 0.34 0.27978 0.3823 0.0
C1224 C 0.32998 0.10929 0.312 0.0
C1225 C 0.32509 0.12704 0.32717 0.0
C1226 C 0.35627 0.19458 0.35392 0.0
C1227 C 0.32304 0.23347 0.37316 0.0
C1228 C 0.3272 0.21203 0.3623 0.0
C1229 C 0.34204 0.15405 0.32404 0.0
C1230 C 0.33641 0.17309 0.33874 0.0
H1231 H 0.27698 0.24375 0.40607 0.0
H1232 H 0.28297 0.20828 0.38753 0.0
H1233 H 0.36742 0.22989 0.37749 0.0
H1234 H 0.38567 0.15288 0.27588 0.0
H1235 H 0.37742 0.18371 0.30283 0.0
C1236 C 0.07803 0.33232 0.55582 0.0
C1237 C 0.05509 0.30785 0.55791 0.0
C1238 C 0.10118 0.33432 0.5455 0.0
C1239 C 0.12953 0.30757 0.4976 0.0
H1240 H 0.18879 0.33748 0.55115 0.0
C1241 C 0.22881 0.31695 0.46563 0.0
C1242 C 0.25176 0.33804 0.47718 0.0
C1243 C 0.20426 0.31221 0.47501 0.0
C1244 C 0.17266 0.32953 0.53565 0.0
H1245 H 0.0382 0.26636 0.55006 0.0
H1246 H 0.07893 0.27007 0.53083 0.0
H1247 H 0.14669 0.3308 0.56785 0.0
H1248 H 0.26707 0.37127 0.50674 0.0
H1249 H 0.22441 0.36394 0.52196 0.0
H1250 H 0.15555 0.30748 0.46481 0.0
C1251 C 0.07879 0.28754 0.53769 0.0
C1252 C 0.14848 0.32544 0.54541 0.0
C1253 C 0.05562 0.28543 0.54871 0.0
C1254 C 0.2497 0.35472 0.49766 0.0
C1255 C 0.22517 0.35031 0.50659 0.0
C1256 C 0.15389 0.31216 0.48756 0.0
C1257 C 0.1018 0.31199 0.53645 0.0
C1258 C 0.12678 0.31454 0.52645 0.0
C1259 C 0.20205 0.32874 0.49577 0.0
C1260 C 0.17588 0.32337 0.50641 0.0
H1261 H 0.0783 0.34995 0.56287 0.0
H1262 H 0.11869 0.35337 0.54458 0.0
H1263 H 0.11305 0.29937 0.48254 0.0
H1264 H 0.22978 0.3036 0.44999 0.0
H1265 H 0.18707 0.29517 0.46646 0.0
C1266 C 0.89489 0.2299 0.61973 0.0
C1267 C 0.92189 0.24075 0.62433 0.0
C1268 C 0.87697 0.20702 0.63421 0.0
C1269 C 0.86979 0.14728 0.66639 0.0
H1270 H 0.80641 0.14073 0.69996 0.0
C1271 C 0.78967 0.0524 0.72378 0.0
C1272 C 0.7636 0.04618 0.71968 0.0
C1273 C 0.81027 0.07608 0.71318 0.0
C1274 C 0.82383 0.14207 0.69036 0.0
H1275 H 0.95125 0.23625 0.64818 0.0
H1276 H 0.91972 0.19583 0.67334 0.0
H1277 H 0.84014 0.18279 0.68113 0.0
H1278 H 0.73861 0.05913 0.69994 0.0
H1279 H 0.77425 0.09978 0.68069 0.0
H1280 H 0.85314 0.10634 0.67485 0.0
C1281 C 0.91256 0.20522 0.65849 0.0
C1282 C 0.84323 0.16626 0.67975 0.0
C1283 C 0.93056 0.22842 0.64426 0.0
C1284 C 0.75851 0.06349 0.7037 0.0
C1285 C 0.77899 0.08694 0.69291 0.0
C1286 C 0.85023 0.12294 0.67681 0.0
C1287 C 0.88558 0.19422 0.65343 0.0
C1288 C 0.86625 0.16906 0.66725 0.0
C1289 C 0.80517 0.0939 0.69812 0.0
C1290 C 0.82679 0.11994 0.68846 0.0
H1291 H 0.88754 0.2389 0.60456 0.0
H1292 H 0.85633 0.1989 0.62966 0.0
H1293 H 0.88726 0.14884 0.65664 0.0
H1294 H 0.79417 0.03948 0.73619 0.0
H1295 H 0.83016 0.08081 0.71771 0.0
loop_
_geom_bond_atom_site_label_1
_geom_bond_atom_site_label_2
_geom_bond_distance
_geom_bond_site_symmetry_2
_ccdc_geom_bond_type
Co0 N4 2.148 . S
Co0 N10 2.128 . S
Co0 N20 2.194 . S
Co0 O25 2.351 . S
Co0 O26 2.155 . S
Co0 O27 2.096 . S
C1 N4 1.301 1_556 S
C1 N5 1.328 . S
C1 H6 0.930 1_556 S
C2 C3 1.333 . S
C2 N4 1.317 1_556 S
C2 H7 0.930 . S
C3 C2 1.333 . S
C3 N5 1.350 . S
C3 H29 0.931 . S
N4 Co0 2.148 . S
N4 C1 1.301 1_554 S
N4 C2 1.317 1_554 S
N5 C1 1.328 . S
N5 C3 1.350 . S
H6 C1 0.930 1_554 S
H7 C2 0.930 . S
C8 O9 1.224 . S
C8 O27 1.247 . S
O9 C8 1.224 . S
N10 Co0 2.128 . S
N10 C11 1.355 . S
N10 C13 1.311 . S
C11 N10 1.355 . S
C11 C12 1.363 . S
C11 H23 0.929 . S
C12 C11 1.363 . S
C12 N14 1.375 . S
C12 H30 0.931 . S
C13 N10 1.311 . S
C13 N14 1.347 . S
C13 H24 0.929 . S
N14 C12 1.375 . S
N14 C13 1.347 . S
C15 C18 1.365 . S
C15 N20 1.328 . S
C15 H21 0.929 . S
C16 C17 1.362 . S
C16 C19 1.378 . S
C16 H31 0.929 . S
C17 C16 1.362 . S
C17 C18 1.366 . S
C18 C15 1.365 . S
C18 C17 1.366 . S
C18 H32 0.930 . S
C19 C16 1.378 . S
C19 N20 1.315 . S
C19 H22 0.930 . S
N20 Co0 2.194 . S
N20 C15 1.328 . S
N20 C19 1.315 . S
H21 C15 0.929 . S
H22 C19 0.930 . S
H23 C11 0.929 . S
H24 C13 0.929 . S
O25 Co0 2.351 . S
O25 C28 1.244 . S
O26 Co0 2.155 . S
O26 C28 1.240 . S
O27 Co0 2.096 . S
O27 C8 1.247 . S
C28 O25 1.244 . S
C28 O26 1.240 . S
H29 C3 0.931 . S
H30 C12 0.931 . S
H31 C16 0.929 . S
H32 C18 0.930 . S
Co33 N37 2.148 . S
Co33 N43 2.128 . S
Co33 N53 2.194 . S
Co33 O58 2.351 . S
Co33 O59 2.155 . S
Co33 O60 2.096 . S
C34 N37 1.301 . S
C34 N38 1.328 . S
C34 H39 0.930 . S
C35 C36 1.333 . S
C35 N37 1.317 . S
C35 H40 0.930 . S
C36 C35 1.333 . S
C36 N38 1.350 . S
C36 H62 0.931 . S
N37 Co33 2.148 . S
N37 C34 1.301 . S
N37 C35 1.317 . S
N38 C34 1.328 . S
N38 C36 1.350 . S
H39 C34 0.930 . S
H40 C35 0.930 . S
C41 O42 1.224 . S
C41 O60 1.247 . S
O42 C41 1.224 . S
N43 Co33 2.128 . S
N43 C44 1.355 . S
N43 C46 1.311 . S
C44 N43 1.355 . S
C44 C45 1.363 . S
C44 H56 0.929 . S
C45 C44 1.363 . S
C45 N47 1.375 . S
C45 H63 0.931 . S
C46 N43 1.311 . S
C46 N47 1.347 . S
C46 H57 0.929 . S
N47 C45 1.375 . S
N47 C46 1.347 . S
C48 C51 1.365 . S
C48 N53 1.328 . S
C48 H54 0.929 . S
C49 C50 1.362 . S
C49 C52 1.378 . S
C49 H64 0.929 . S
C50 C49 1.362 . S
C50 C51 1.366 . S
C51 C48 1.365 . S
C51 C50 1.366 . S
C51 H65 0.930 . S
C52 C49 1.378 . S
C52 N53 1.315 . S
C52 H55 0.930 . S
N53 Co33 2.194 . S
N53 C48 1.328 . S
N53 C52 1.315 . S
H54 C48 0.929 . S
H55 C52 0.930 . S
H56 C44 0.929 . S
H57 C46 0.929 . S
O58 Co33 2.351 . S
O58 C61 1.244 . S
O59 Co33 2.155 . S
O59 C61 1.240 . S
O60 Co33 2.096 . S
O60 C41 1.247 . S
C61 O58 1.244 . S
C61 O59 1.240 . S
H62 C36 0.931 . S
H63 C45 0.931 . S
H64 C49 0.929 . S
H65 C51 0.930 . S
Co66 N70 2.148 . S
Co66 N76 2.128 . S
Co66 N86 2.194 . S
Co66 O91 2.351 . S
Co66 O92 2.155 . S
Co66 O93 2.096 . S
C67 N70 1.301 . S
C67 N71 1.328 . S
C67 H72 0.930 . S
C68 C69 1.333 . S
C68 N70 1.317 . S
C68 H73 0.930 . S
C69 C68 1.333 . S
C69 N71 1.350 . S
C69 H95 0.931 . S
N70 Co66 2.148 . S
N70 C67 1.301 . S
N70 C68 1.317 . S
N71 C67 1.328 . S
N71 C69 1.350 . S
H72 C67 0.930 . S
H73 C68 0.930 . S
C74 O75 1.224 . S
C74 O93 1.247 . S
O75 C74 1.224 . S
N76 Co66 2.128 . S
N76 C77 1.355 . S
N76 C79 1.311 . S
C77 N76 1.355 . S
C77 C78 1.363 . S
C77 H89 0.929 . S
C78 C77 1.363 . S
C78 N80 1.375 . S
C78 H96 0.931 . S
C79 N76 1.311 . S
C79 N80 1.347 . S
C79 H90 0.929 . S
N80 C78 1.375 . S
N80 C79 1.347 . S
C81 C84 1.365 . S
C81 N86 1.328 . S
C81 H87 0.929 . S
C82 C83 1.362 . S
C82 C85 1.378 . S
C82 H97 0.929 . S
C83 C82 1.362 . S
C83 C84 1.366 . S
C84 C81 1.365 . S
C84 C83 1.366 . S
C84 H98 0.930 . S
C85 C82 1.378 . S
C85 N86 1.315 . S
C85 H88 0.930 . S
N86 Co66 2.194 . S
N86 C81 1.328 . S
N86 C85 1.315 . S
H87 C81 0.929 . S
H88 C85 0.930 . S
H89 C77 0.929 . S
H90 C79 0.929 . S
O91 Co66 2.351 . S
O91 C94 1.244 . S
O92 Co66 2.155 . S
O92 C94 1.240 . S
O93 Co66 2.096 . S
O93 C74 1.247 . S
C94 O91 1.244 . S
C94 O92 1.240 . S
H95 C69 0.931 . S
H96 C78 0.931 . S
H97 C82 0.929 . S
H98 C84 0.930 . S
Co99 N103 2.148 . S
Co99 N109 2.128 . S
Co99 N119 2.194 . S
Co99 O124 2.351 . S
Co99 O125 2.155 . S
Co99 O126 2.096 . S
C100 N103 1.301 . S
C100 N104 1.328 . S
C100 H105 0.930 . S
C101 C102 1.333 . S
C101 N103 1.317 . S
C101 H106 0.930 . S
C102 C101 1.333 . S
C102 N104 1.350 . S
C102 H128 0.931 . S
N103 Co99 2.148 . S
N103 C100 1.301 . S
N103 C101 1.317 . S
N104 C100 1.328 . S
N104 C102 1.350 . S
H105 C100 0.930 . S
H106 C101 0.930 . S
C107 O108 1.224 . S
C107 O126 1.247 . S
O108 C107 1.224 . S
N109 Co99 2.128 . S
N109 C110 1.355 . S
N109 C112 1.311 . S
C110 N109 1.355 . S
C110 C111 1.363 . S
C110 H122 0.929 . S
C111 C110 1.363 . S
C111 N113 1.375 . S
C111 H129 0.931 . S
C112 N109 1.311 . S
C112 N113 1.347 . S
C112 H123 0.929 . S
N113 C111 1.375 . S
N113 C112 1.347 . S
C114 C117 1.365 . S
C114 N119 1.328 . S
C114 H120 0.929 . S
C115 C116 1.362 . S
C115 C118 1.378 . S
C115 H130 0.929 . S
C116 C115 1.362 . S
C116 C117 1.366 . S
C117 C114 1.365 . S
C117 C116 1.366 . S
C117 H131 0.930 . S
C118 C115 1.378 . S
C118 N119 1.315 . S
C118 H121 0.930 . S
N119 Co99 2.194 . S
N119 C114 1.328 . S
N119 C118 1.315 . S
H120 C114 0.929 . S
H121 C118 0.930 . S
H122 C110 0.929 . S
H123 C112 0.929 . S
O124 Co99 2.351 . S
O124 C127 1.244 . S
O125 Co99 2.155 . S
O125 C127 1.240 . S
O126 Co99 2.096 . S
O126 C107 1.247 . S
C127 O124 1.244 . S
C127 O125 1.240 . S
H128 C102 0.931 . S
H129 C111 0.931 . S
H130 C115 0.929 . S
H131 C117 0.930 . S
Co132 N136 2.148 . S
Co132 N142 2.128 . S
Co132 N152 2.194 . S
Co132 O157 2.351 . S
Co132 O158 2.155 . S
Co132 O159 2.096 . S
C133 N136 1.301 . S
C133 N137 1.328 . S
C133 H138 0.930 . S
C134 C135 1.333 . S
C134 N136 1.317 . S
C134 H139 0.930 . S
C135 C134 1.333 . S
C135 N137 1.350 . S
C135 H161 0.931 . S
N136 Co132 2.148 . S
N136 C133 1.301 . S
N136 C134 1.317 . S
N137 C133 1.328 . S
N137 C135 1.350 . S
H138 C133 0.930 . S
H139 C134 0.930 . S
C140 O141 1.224 . S
C140 O159 1.247 . S
O141 C140 1.224 . S
N142 Co132 2.128 . S
N142 C143 1.355 . S
N142 C145 1.311 . S
C143 N142 1.355 . S
C143 C144 1.363 . S
C143 H155 0.929 . S
C144 C143 1.363 . S
C144 N146 1.375 . S
C144 H162 0.931 . S
C145 N142 1.311 . S
C145 N146 1.347 . S
C145 H156 0.929 . S
N146 C144 1.375 . S
N146 C145 1.347 . S
C147 C150 1.365 . S
C147 N152 1.328 . S
C147 H153 0.929 . S
C148 C149 1.362 . S
C148 C151 1.378 . S
C148 H163 0.929 . S
C149 C148 1.362 . S
C149 C150 1.366 . S
C150 C147 1.365 . S
C150 C149 1.366 . S
C150 H164 0.930 . S
C151 C148 1.378 . S
C151 N152 1.315 . S
C151 H154 0.930 . S
N152 Co132 2.194 . S
N152 C147 1.328 . S
N152 C151 1.315 . S
H153 C147 0.929 . S
H154 C151 0.930 . S
H155 C143 0.929 . S
H156 C145 0.929 . S
O157 Co132 2.351 . S
O157 C160 1.244 . S
O158 Co132 2.155 . S
O158 C160 1.240 . S
O159 Co132 2.096 . S
O159 C140 1.247 . S
C160 O157 1.244 . S
C160 O158 1.240 . S
H161 C135 0.931 . S
H162 C144 0.931 . S
H163 C148 0.929 . S
H164 C150 0.930 . S
Co165 N169 2.148 . S
Co165 N175 2.128 . S
Co165 N185 2.194 . S
Co165 O190 2.351 . S
Co165 O191 2.155 . S
Co165 O192 2.096 . S
C166 N169 1.301 . S
C166 N170 1.328 . S
C166 H171 0.930 . S
C167 C168 1.333 . S
C167 N169 1.317 . S
C167 H172 0.930 . S
C168 C167 1.333 . S
C168 N170 1.350 . S
C168 H194 0.931 . S
N169 Co165 2.148 . S
N169 C166 1.301 . S
N169 C167 1.317 . S
N170 C166 1.328 . S
N170 C168 1.350 . S
H171 C166 0.930 . S
H172 C167 0.930 . S
C173 O174 1.224 . S
C173 O192 1.247 . S
O174 C173 1.224 . S
N175 Co165 2.128 . S
N175 C176 1.355 . S
N175 C178 1.311 . S
C176 N175 1.355 . S
C176 C177 1.363 . S
C176 H188 0.929 . S
C177 C176 1.363 . S
C177 N179 1.375 . S
C177 H195 0.931 . S
C178 N175 1.311 . S
C178 N179 1.347 . S
C178 H189 0.929 . S
N179 C177 1.375 . S
N179 C178 1.347 . S
C180 C183 1.365 . S
C180 N185 1.328 . S
C180 H186 0.929 . S
C181 C182 1.362 . S
C181 C184 1.378 . S
C181 H196 0.929 . S
C182 C181 1.362 . S
C182 C183 1.366 . S
C183 C180 1.365 . S
C183 C182 1.366 . S
C183 H197 0.930 . S
C184 C181 1.378 . S
C184 N185 1.315 . S
C184 H187 0.930 . S
N185 Co165 2.194 . S
N185 C180 1.328 . S
N185 C184 1.315 . S
H186 C180 0.929 . S
H187 C184 0.930 . S
H188 C176 0.929 . S
H189 C178 0.929 . S
O190 Co165 2.351 . S
O190 C193 1.244 . S
O191 Co165 2.155 . S
O191 C193 1.240 . S
O192 Co165 2.096 . S
O192 C173 1.247 . S
C193 O190 1.244 . S
C193 O191 1.240 . S
H194 C168 0.931 . S
H195 C177 0.931 . S
H196 C181 0.929 . S
H197 C183 0.930 . S
Co198 N202 2.148 . S
Co198 N208 2.128 . S
Co198 N218 2.194 . S
Co198 O223 2.351 . S
Co198 O224 2.155 . S
Co198 O225 2.096 . S
C199 N202 1.301 . S
C199 N203 1.328 . S
C199 H204 0.930 . S
C200 C201 1.333 . S
C200 N202 1.317 . S
C200 H205 0.930 . S
C201 C200 1.333 . S
C201 N203 1.350 . S
C201 H227 0.931 . S
N202 Co198 2.148 . S
N202 C199 1.301 . S
N202 C200 1.317 . S
N203 C199 1.328 . S
N203 C201 1.350 . S
H204 C199 0.930 . S
H205 C200 0.930 . S
C206 O207 1.224 . S
C206 O225 1.247 . S
O207 C206 1.224 . S
N208 Co198 2.128 . S
N208 C209 1.355 . S
N208 C211 1.311 . S
C209 N208 1.355 . S
C209 C210 1.363 . S
C209 H221 0.929 . S
C210 C209 1.363 . S
C210 N212 1.375 . S
C210 H228 0.931 . S
C211 N208 1.311 . S
C211 N212 1.347 . S
C211 H222 0.929 . S
N212 C210 1.375 . S
N212 C211 1.347 . S
C213 C216 1.365 . S
C213 N218 1.328 . S
C213 H219 0.929 . S
C214 C215 1.362 . S
C214 C217 1.378 . S
C214 H229 0.929 . S
C215 C214 1.362 . S
C215 C216 1.366 . S
C216 C213 1.365 . S
C216 C215 1.366 . S
C216 H230 0.930 . S
C217 C214 1.378 . S
C217 N218 1.315 . S
C217 H220 0.930 . S
N218 Co198 2.194 . S
N218 C213 1.328 . S
N218 C217 1.315 . S
H219 C213 0.929 . S
H220 C217 0.930 . S
H221 C209 0.929 . S
H222 C211 0.929 . S
O223 Co198 2.351 . S
O223 C226 1.244 . S
O224 Co198 2.155 . S
O224 C226 1.240 . S
O225 Co198 2.096 . S
O225 C206 1.247 . S
C226 O223 1.244 . S
C226 O224 1.240 . S
H227 C201 0.931 . S
H228 C210 0.931 . S
H229 C214 0.929 . S
H230 C216 0.930 . S
Co231 N235 2.148 . S
Co231 N241 2.128 . S
Co231 N251 2.194 . S
Co231 O256 2.351 . S
Co231 O257 2.155 . S
Co231 O258 2.096 . S
C232 N235 1.307 . S
C232 N236 1.314 1_556 S
C232 H237 0.938 . S
C233 C234 1.333 . S
C233 N235 1.317 1_554 S
C233 H238 0.930 . S
C234 C233 1.333 . S
C234 N236 1.350 . S
C234 H260 0.931 . S
N235 Co231 2.148 . S
N235 C232 1.307 . S
N235 C233 1.317 1_556 S
N236 C232 1.314 1_554 S
N236 C234 1.350 . S
H237 C232 0.938 . S
H238 C233 0.930 . S
C239 O240 1.224 . S
C239 O258 1.247 . S
O240 C239 1.224 . S
N241 Co231 2.128 . S
N241 C242 1.355 . S
N241 C244 1.311 . S
C242 N241 1.355 . S
C242 C243 1.363 . S
C242 H254 0.929 . S
C243 C242 1.363 . S
C243 N245 1.375 . S
C243 H261 0.931 . S
C244 N241 1.311 . S
C244 N245 1.347 . S
C244 H255 0.929 . S
N245 C243 1.375 . S
N245 C244 1.347 . S
C246 C249 1.365 . S
C246 N251 1.328 . S
C246 H252 0.929 . S
C247 C248 1.362 . S
C247 C250 1.378 . S
C247 H262 0.929 . S
C248 C247 1.362 . S
C248 C249 1.366 . S
C249 C246 1.365 . S
C249 C248 1.366 . S
C249 H263 0.930 . S
C250 C247 1.378 . S
C250 N251 1.315 . S
C250 H253 0.930 . S
N251 Co231 2.194 . S
N251 C246 1.328 . S
N251 C250 1.315 . S
H252 C246 0.929 . S
H253 C250 0.930 . S
H254 C242 0.929 . S
H255 C244 0.929 . S
O256 Co231 2.351 . S
O256 C259 1.244 . S
O257 Co231 2.155 . S
O257 C259 1.240 . S
O258 Co231 2.096 . S
O258 C239 1.247 . S
C259 O256 1.244 . S
C259 O257 1.240 . S
H260 C234 0.931 . S
H261 C243 0.931 . S
H262 C247 0.929 . S
H263 C249 0.930 . S
Co264 N268 2.148 . S
Co264 N274 2.128 . S
Co264 N284 2.194 . S
Co264 O289 2.351 . S
Co264 O290 2.155 . S
Co264 O291 2.096 . S
C265 N268 1.301 . S
C265 N269 1.328 . S
C265 H270 0.930 . S
C266 C267 1.333 . S
C266 N268 1.317 . S
C266 H271 0.930 . S
C267 C266 1.333 . S
C267 N269 1.350 . S
C267 H293 0.931 . S
N268 Co264 2.148 . S
N268 C265 1.301 . S
N268 C266 1.317 . S
N269 C265 1.328 . S
N269 C267 1.350 . S
H270 C265 0.930 . S
H271 C266 0.930 . S
C272 O273 1.224 . S
C272 O291 1.247 . S
O273 C272 1.224 . S
N274 Co264 2.128 . S
N274 C275 1.355 . S
N274 C277 1.311 . S
C275 N274 1.355 . S
C275 C276 1.363 . S
C275 H287 0.929 . S
C276 C275 1.363 . S
C276 N278 1.375 . S
C276 H294 0.931 . S
C277 N274 1.311 . S
C277 N278 1.347 . S
C277 H288 0.929 . S
N278 C276 1.375 . S
N278 C277 1.347 . S
C279 C282 1.365 . S
C279 N284 1.328 . S
C279 H285 0.929 . S
C280 C281 1.362 . S
C280 C283 1.378 . S
C280 H295 0.929 . S
C281 C280 1.362 . S
C281 C282 1.366 . S
C282 C279 1.365 . S
C282 C281 1.366 . S
C282 H296 0.930 . S
C283 C280 1.378 . S
C283 N284 1.315 . S
C283 H286 0.930 . S
N284 Co264 2.194 . S
N284 C279 1.328 . S
N284 C283 1.315 . S
H285 C279 0.929 . S
H286 C283 0.930 . S
H287 C275 0.929 . S
H288 C277 0.929 . S
O289 Co264 2.351 . S
O289 C292 1.244 . S
O290 Co264 2.155 . S
O290 C292 1.240 . S
O291 Co264 2.096 . S
O291 C272 1.247 . S
C292 O289 1.244 . S
C292 O290 1.240 . S
H293 C267 0.931 . S
H294 C276 0.931 . S
H295 C280 0.929 . S
H296 C282 0.930 . S
Co297 N301 2.148 . S
Co297 N307 2.128 . S
Co297 N317 2.194 . S
Co297 O322 2.351 . S
Co297 O323 2.155 . S
Co297 O324 2.096 . S
C298 N301 1.301 . S
C298 N302 1.328 . S
C298 H303 0.930 . S
C299 C300 1.333 . S
C299 N301 1.317 . S
C299 H304 0.930 . S
C300 C299 1.333 . S
C300 N302 1.350 . S
C300 H326 0.931 . S
N301 Co297 2.148 . S
N301 C298 1.301 . S
N301 C299 1.317 . S
N302 C298 1.328 . S
N302 C300 1.350 . S
H303 C298 0.930 . S
H304 C299 0.930 . S
C305 O306 1.224 . S
C305 O324 1.247 . S
O306 C305 1.224 . S
N307 Co297 2.128 . S
N307 C308 1.355 . S
N307 C310 1.311 . S
C308 N307 1.355 . S
C308 C309 1.363 . S
C308 H320 0.929 . S
C309 C308 1.363 . S
C309 N311 1.375 . S
C309 H327 0.931 . S
C310 N307 1.311 . S
C310 N311 1.347 . S
C310 H321 0.929 . S
N311 C309 1.375 . S
N311 C310 1.347 . S
C312 C315 1.365 . S
C312 N317 1.328 . S
C312 H318 0.929 . S
C313 C314 1.362 . S
C313 C316 1.378 . S
C313 H328 0.929 . S
C314 C313 1.362 . S
C314 C315 1.366 . S
C315 C312 1.365 . S
C315 C314 1.366 . S
C315 H329 0.930 . S
C316 C313 1.378 . S
C316 N317 1.315 . S
C316 H319 0.930 . S
N317 Co297 2.194 . S
N317 C312 1.328 . S
N317 C316 1.315 . S
H318 C312 0.929 . S
H319 C316 0.930 . S
H320 C308 0.929 . S
H321 C310 0.929 . S
O322 Co297 2.351 . S
O322 C325 1.244 . S
O323 Co297 2.155 . S
O323 C325 1.240 . S
O324 Co297 2.096 . S
O324 C305 1.247 . S
C325 O322 1.244 . S
C325 O323 1.240 . S
H326 C300 0.931 . S
H327 C309 0.931 . S
H328 C313 0.929 . S
H329 C315 0.930 . S
Co330 N334 2.148 . S
Co330 N340 2.128 . S
Co330 N350 2.194 . S
Co330 O355 2.351 . S
Co330 O356 2.155 . S
Co330 O357 2.096 . S
C331 N334 1.301 . S
C331 N335 1.328 . S
C331 H336 0.930 . S
C332 C333 1.333 . S
C332 N334 1.317 . S
C332 H337 0.930 . S
C333 C332 1.333 . S
C333 N335 1.350 . S
C333 H359 0.931 . S
N334 Co330 2.148 . S
N334 C331 1.301 . S
N334 C332 1.317 . S
N335 C331 1.328 . S
N335 C333 1.350 . S
H336 C331 0.930 . S
H337 C332 0.930 . S
C338 O339 1.224 . S
C338 O357 1.247 . S
O339 C338 1.224 . S
N340 Co330 2.128 . S
N340 C341 1.355 . S
N340 C343 1.311 . S
C341 N340 1.355 . S
C341 C342 1.363 . S
C341 H353 0.929 . S
C342 C341 1.363 . S
C342 N344 1.375 . S
C342 H360 0.931 . S
C343 N340 1.311 . S
C343 N344 1.347 . S
C343 H354 0.929 . S
N344 C342 1.375 . S
N344 C343 1.347 . S
C345 C348 1.365 . S
C345 N350 1.328 . S
C345 H351 0.929 . S
C346 C347 1.362 . S
C346 C349 1.378 . S
C346 H361 0.929 . S
C347 C346 1.362 . S
C347 C348 1.366 . S
C348 C345 1.365 . S
C348 C347 1.366 . S
C348 H362 0.930 . S
C349 C346 1.378 . S
C349 N350 1.315 . S
C349 H352 0.930 . S
N350 Co330 2.194 . S
N350 C345 1.328 . S
N350 C349 1.315 . S
H351 C345 0.929 . S
H352 C349 0.930 . S
H353 C341 0.929 . S
H354 C343 0.929 . S
O355 Co330 2.351 . S
O355 C358 1.244 . S
O356 Co330 2.155 . S
O356 C358 1.240 . S
O357 Co330 2.096 . S
O357 C338 1.247 . S
C358 O355 1.244 . S
C358 O356 1.240 . S
H359 C333 0.931 . S
H360 C342 0.931 . S
H361 C346 0.929 . S
H362 C348 0.930 . S
Co363 N367 2.148 . S
Co363 N373 2.128 . S
Co363 N383 2.194 . S
Co363 O388 2.351 . S
Co363 O389 2.155 . S
Co363 O390 2.096 . S
C364 N367 1.301 . S
C364 N368 1.328 . S
C364 H369 0.930 . S
C365 C366 1.333 . S
C365 N367 1.317 . S
C365 H370 0.930 . S
C366 C365 1.333 . S
C366 N368 1.350 . S
C366 H392 0.931 . S
N367 Co363 2.148 . S
N367 C364 1.301 . S
N367 C365 1.317 . S
N368 C364 1.328 . S
N368 C366 1.350 . S
H369 C364 0.930 . S
H370 C365 0.930 . S
C371 O372 1.224 . S
C371 O390 1.247 . S
O372 C371 1.224 . S
N373 Co363 2.128 . S
N373 C374 1.355 . S
N373 C376 1.311 . S
C374 N373 1.355 . S
C374 C375 1.363 . S
C374 H386 0.929 . S
C375 C374 1.363 . S
C375 N377 1.375 . S
C375 H393 0.931 . S
C376 N373 1.311 . S
C376 N377 1.347 . S
C376 H387 0.929 . S
N377 C375 1.375 . S
N377 C376 1.347 . S
C378 C381 1.365 . S
C378 N383 1.328 . S
C378 H384 0.929 . S
C379 C380 1.362 . S
C379 C382 1.378 . S
C379 H394 0.929 . S
C380 C379 1.362 . S
C380 C381 1.366 . S
C381 C378 1.365 . S
C381 C380 1.366 . S
C381 H395 0.930 . S
C382 C379 1.378 . S
C382 N383 1.315 . S
C382 H385 0.930 . S
N383 Co363 2.194 . S
N383 C378 1.328 . S
N383 C382 1.315 . S
H384 C378 0.929 . S
H385 C382 0.930 . S
H386 C374 0.929 . S
H387 C376 0.929 . S
O388 Co363 2.351 . S
O388 C391 1.244 . S
O389 Co363 2.155 . S
O389 C391 1.240 . S
O390 Co363 2.096 . S
O390 C371 1.247 . S
C391 O388 1.244 . S
C391 O389 1.240 . S
H392 C366 0.931 . S
H393 C375 0.931 . S
H394 C379 0.929 . S
H395 C381 0.930 . S
C396 C397 1.349 . S
C396 C398 1.327 . S
C396 H421 0.950 . S
C397 C396 1.349 . S
C397 C413 1.349 . S
C398 C396 1.327 . S
C398 C417 1.429 . S
C398 H422 0.950 . S
C399 C416 1.574 . S
C399 C418 1.368 . S
C399 H423 0.949 . S
H400 C404 0.949 . S
C401 C402 1.349 . S
C401 C403 1.327 . S
C401 H424 0.950 . S
C402 C401 1.349 . S
C402 C414 1.349 . S
C403 C401 1.327 . S
C403 C419 1.429 . S
C403 H425 0.950 . S
C404 H400 0.949 . S
C404 C412 1.574 . S
C404 C420 1.368 . S
H405 C413 0.950 . S
H406 C411 0.950 . S
H407 C412 0.949 . S
H408 C414 0.950 . S
H409 C415 0.950 . S
H410 C416 0.949 . S
C411 H406 0.950 . S
C411 C413 1.327 . S
C411 C417 1.429 . S
C412 C404 1.574 . S
C412 H407 0.949 . S
C412 C418 1.368 . S
C413 C397 1.349 . S
C413 H405 0.950 . S
C413 C411 1.327 . S
C414 C402 1.349 . S
C414 H408 0.950 . S
C414 C415 1.327 . S
C415 H409 0.950 . S
C415 C414 1.327 . S
C415 C419 1.429 . S
C416 C399 1.574 . S
C416 H410 0.949 . S
C416 C420 1.368 . S
C417 C398 1.429 . S
C417 C411 1.429 . S
C417 C418 1.523 . S
C418 C399 1.368 . S
C418 C412 1.368 . S
C418 C417 1.523 . S
C419 C403 1.429 . S
C419 C415 1.429 . S
C419 C420 1.523 . S
C420 C404 1.368 . S
C420 C416 1.368 . S
C420 C419 1.523 . S
H421 C396 0.950 . S
H422 C398 0.950 . S
H423 C399 0.949 . S
H424 C401 0.950 . S
H425 C403 0.950 . S
C426 C427 1.349 . S
C426 C428 1.327 . S
C426 H451 0.950 . S
C427 C426 1.349 . S
C427 C443 1.349 . S
C428 C426 1.327 . S
C428 C447 1.429 . S
C428 H452 0.950 . S
C429 C446 1.574 . S
C429 C448 1.368 . S
C429 H453 0.949 . S
H430 C434 0.949 . S
C431 C432 1.349 . S
C431 C433 1.327 . S
C431 H454 0.950 . S
C432 C431 1.349 . S
C432 C444 1.349 . S
C433 C431 1.327 . S
C433 C449 1.429 . S
C433 H455 0.950 . S
C434 H430 0.949 . S
C434 C442 1.574 . S
C434 C450 1.368 . S
H435 C443 0.950 . S
H436 C441 0.950 . S
H437 C442 0.949 . S
H438 C444 0.950 . S
H439 C445 0.950 . S
H440 C446 0.949 . S
C441 H436 0.950 . S
C441 C443 1.327 . S
C441 C447 1.429 . S
C442 C434 1.574 . S
C442 H437 0.949 . S
C442 C448 1.368 . S
C443 C427 1.349 . S
C443 H435 0.950 . S
C443 C441 1.327 . S
C444 C432 1.349 . S
C444 H438 0.950 . S
C444 C445 1.327 . S
C445 H439 0.950 . S
C445 C444 1.327 . S
C445 C449 1.429 . S
C446 C429 1.574 . S
C446 H440 0.949 . S
C446 C450 1.368 . S
C447 C428 1.429 . S
C447 C441 1.429 . S
C447 C448 1.523 . S
C448 C429 1.368 . S
C448 C442 1.368 . S
C448 C447 1.523 . S
C449 C433 1.429 . S
C449 C445 1.429 . S
C449 C450 1.523 . S
C450 C434 1.368 . S
C450 C446 1.368 . S
C450 C449 1.523 . S
H451 C426 0.950 . S
H452 C428 0.950 . S
H453 C429 0.949 . S
H454 C431 0.950 . S
H455 C433 0.950 . S
C456 C457 1.349 . S
C456 C458 1.327 . S
C456 H481 0.950 . S
C457 C456 1.349 . S
C457 C473 1.349 . S
C458 C456 1.327 . S
C458 C477 1.429 . S
C458 H482 0.950 . S
C459 C476 1.574 . S
C459 C478 1.368 . S
C459 H483 0.949 . S
H460 C464 0.949 . S
C461 C462 1.349 . S
C461 C463 1.327 . S
C461 H484 0.950 . S
C462 C461 1.349 . S
C462 C474 1.349 . S
C463 C461 1.327 . S
C463 C479 1.429 . S
C463 H485 0.950 . S
C464 H460 0.949 . S
C464 C472 1.574 . S
C464 C480 1.368 . S
H465 C473 0.950 . S
H466 C471 0.950 . S
H467 C472 0.949 . S
H468 C474 0.950 . S
H469 C475 0.950 . S
H470 C476 0.949 . S
C471 H466 0.950 . S
C471 C473 1.327 . S
C471 C477 1.429 . S
C472 C464 1.574 . S
C472 H467 0.949 . S
C472 C478 1.368 . S
C473 C457 1.349 . S
C473 H465 0.950 . S
C473 C471 1.327 . S
C474 C462 1.349 . S
C474 H468 0.950 . S
C474 C475 1.327 . S
C475 H469 0.950 . S
C475 C474 1.327 . S
C475 C479 1.429 . S
C476 C459 1.574 . S
C476 H470 0.949 . S
C476 C480 1.368 . S
C477 C458 1.429 . S
C477 C471 1.429 . S
C477 C478 1.523 . S
C478 C459 1.368 . S
C478 C472 1.368 . S
C478 C477 1.523 . S
C479 C463 1.429 . S
C479 C475 1.429 . S
C479 C480 1.523 . S
C480 C464 1.368 . S
C480 C476 1.368 . S
C480 C479 1.523 . S
H481 C456 0.950 . S
H482 C458 0.950 . S
H483 C459 0.949 . S
H484 C461 0.950 . S
H485 C463 0.950 . S
C486 C487 1.349 . S
C486 C488 1.327 . S
C486 H511 0.950 . S
C487 C486 1.349 . S
C487 C503 1.349 . S
C488 C486 1.327 . S
C488 C507 1.429 . S
C488 H512 0.950 . S
C489 C506 1.574 . S
C489 C508 1.368 . S
C489 H513 0.949 . S
H490 C494 0.949 . S
C491 C492 1.349 . S
C491 C493 1.327 . S
C491 H514 0.950 . S
C492 C491 1.349 . S
C492 C504 1.349 . S
C493 C491 1.327 . S
C493 C509 1.429 . S
C493 H515 0.950 . S
C494 H490 0.949 . S
C494 C502 1.574 . S
C494 C510 1.368 . S
H495 C503 0.950 . S
H496 C501 0.950 . S
H497 C502 0.949 . S
H498 C504 0.950 . S
H499 C505 0.950 . S
H500 C506 0.949 . S
C501 H496 0.950 . S
C501 C503 1.327 . S
C501 C507 1.429 . S
C502 C494 1.574 . S
C502 H497 0.949 . S
C502 C508 1.368 . S
C503 C487 1.349 . S
C503 H495 0.950 . S
C503 C501 1.327 . S
C504 C492 1.349 . S
C504 H498 0.950 . S
C504 C505 1.327 . S
C505 H499 0.950 . S
C505 C504 1.327 . S
C505 C509 1.429 . S
C506 C489 1.574 . S
C506 H500 0.949 . S
C506 C510 1.368 . S
C507 C488 1.429 . S
C507 C501 1.429 . S
C507 C508 1.523 . S
C508 C489 1.368 . S
C508 C502 1.368 . S
C508 C507 1.523 . S
C509 C493 1.429 . S
C509 C505 1.429 . S
C509 C510 1.523 . S
C510 C494 1.368 . S
C510 C506 1.368 . S
C510 C509 1.523 . S
H511 C486 0.950 . S
H512 C488 0.950 . S
H513 C489 0.949 . S
H514 C491 0.950 . S
H515 C493 0.950 . S
C516 C517 1.349 . S
C516 C518 1.327 . S
C516 H541 0.950 . S
C517 C516 1.349 . S
C517 C533 1.349 . S
C518 C516 1.327 . S
C518 C537 1.429 . S
C518 H542 0.950 . S
C519 C536 1.574 . S
C519 C538 1.368 . S
C519 H543 0.949 . S
H520 C524 0.949 . S
C521 C522 1.349 1_556 S
C521 C523 1.327 . S
C521 H544 0.950 . S
C522 C521 1.349 1_554 S
C522 C534 1.349 . S
C523 C521 1.327 . S
C523 C539 1.429 . S
C523 H545 0.950 . S
C524 H520 0.949 . S
C524 C532 1.574 . S
C524 C540 1.368 . S
H525 C533 0.950 . S
H526 C531 0.950 . S
H527 C532 0.949 . S
H528 C534 0.950 . S
H529 C535 0.950 . S
H530 C536 0.949 . S
C531 H526 0.950 . S
C531 C533 1.327 . S
C531 C537 1.429 . S
C532 C524 1.574 . S
C532 H527 0.949 . S
C532 C538 1.368 . S
C533 C517 1.349 . S
C533 H525 0.950 . S
C533 C531 1.327 . S
C534 C522 1.349 . S
C534 H528 0.950 . S
C534 C535 1.327 1_554 S
C535 H529 0.950 . S
C535 C534 1.327 1_556 S
C535 C539 1.429 . S
C536 C519 1.574 . S
C536 H530 0.949 . S
C536 C540 1.368 . S
C537 C518 1.429 . S
C537 C531 1.429 . S
C537 C538 1.523 . S
C538 C519 1.368 . S
C538 C532 1.368 . S
C538 C537 1.523 . S
C539 C523 1.429 . S
C539 C535 1.429 . S
C539 C540 1.523 . S
C540 C524 1.368 . S
C540 C536 1.368 . S
C540 C539 1.523 . S
H541 C516 0.950 . S
H542 C518 0.950 . S
H543 C519 0.949 . S
H544 C521 0.950 . S
H545 C523 0.950 . S
C546 C547 1.349 . S
C546 C548 1.327 1_556 S
C546 H571 0.950 . S
C547 C546 1.349 . S
C547 C563 1.349 1_556 S
C548 C546 1.327 1_554 S
C548 C567 1.429 . S
C548 H572 0.951 . S
C549 C566 1.574 . S
C549 C568 1.368 . S
C549 H573 0.949 . S
H550 C554 0.949 . S
C551 C552 1.349 . S
C551 C553 1.327 . S
C551 H574 0.950 . S
C552 C551 1.349 . S
C552 C564 1.349 . S
C553 C551 1.327 . S
C553 C569 1.429 . S
C553 H575 0.950 . S
C554 H550 0.949 . S
C554 C562 1.574 . S
C554 C570 1.368 . S
H555 C563 0.950 . S
H556 C561 0.950 . S
H557 C562 0.949 . S
H558 C564 0.950 . S
H559 C565 0.950 . S
H560 C566 0.949 . S
C561 H556 0.950 . S
C561 C563 1.327 . S
C561 C567 1.429 . S
C562 C554 1.574 . S
C562 H557 0.949 . S
C562 C568 1.368 . S
C563 C547 1.349 1_554 S
C563 H555 0.950 . S
C563 C561 1.327 . S
C564 C552 1.349 . S
C564 H558 0.950 . S
C564 C565 1.327 . S
C565 H559 0.950 . S
C565 C564 1.327 . S
C565 C569 1.429 . S
C566 C549 1.574 . S
C566 H560 0.949 . S
C566 C570 1.368 . S
C567 C548 1.429 . S
C567 C561 1.429 . S
C567 C568 1.523 . S
C568 C549 1.368 . S
C568 C562 1.368 . S
C568 C567 1.523 . S
C569 C553 1.429 . S
C569 C565 1.429 . S
C569 C570 1.523 . S
C570 C554 1.368 . S
C570 C566 1.368 . S
C570 C569 1.523 . S
H571 C546 0.950 . S
H572 C548 0.951 . S
H573 C549 0.949 . S
H574 C551 0.950 . S
H575 C553 0.950 . S
C576 C577 1.349 . S
C576 C578 1.327 . S
C576 H601 0.950 . S
C577 C576 1.349 . S
C577 C593 1.349 . S
C578 C576 1.327 . S
C578 C597 1.429 . S
C578 H602 0.950 . S
C579 C596 1.574 . S
C579 C598 1.368 . S
C579 H603 0.949 . S
H580 C584 0.949 . S
C581 C582 1.349 . S
C581 C583 1.327 . S
C581 H604 0.950 . S
C582 C581 1.349 . S
C582 C594 1.349 . S
C583 C581 1.327 . S
C583 C599 1.429 . S
C583 H605 0.950 . S
C584 H580 0.949 . S
C584 C592 1.574 . S
C584 C600 1.368 . S
H585 C593 0.950 . S
H586 C591 0.950 . S
H587 C592 0.949 . S
H588 C594 0.950 . S
H589 C595 0.950 . S
H590 C596 0.949 . S
C591 H586 0.950 . S
C591 C593 1.327 . S
C591 C597 1.429 . S
C592 C584 1.574 . S
C592 H587 0.949 . S
C592 C598 1.368 . S
C593 C577 1.349 . S
C593 H585 0.950 . S
C593 C591 1.327 . S
C594 C582 1.349 . S
C594 H588 0.950 . S
C594 C595 1.327 . S
C595 H589 0.950 . S
C595 C594 1.327 . S
C595 C599 1.429 . S
C596 C579 1.574 . S
C596 H590 0.949 . S
C596 C600 1.368 . S
C597 C578 1.429 . S
C597 C591 1.429 . S
C597 C598 1.523 . S
C598 C579 1.368 . S
C598 C592 1.368 . S
C598 C597 1.523 . S
C599 C583 1.429 . S
C599 C595 1.429 . S
C599 C600 1.523 . S
C600 C584 1.368 . S
C600 C596 1.368 . S
C600 C599 1.523 . S
H601 C576 0.950 . S
H602 C578 0.950 . S
H603 C579 0.949 . S
H604 C581 0.950 . S
H605 C583 0.950 . S
C606 C607 1.349 . S
C606 C608 1.327 . S
C606 H631 0.950 . S
C607 C606 1.349 . S
C607 C623 1.349 . S
C608 C606 1.327 . S
C608 C627 1.429 . S
C608 H632 0.950 . S
C609 C626 1.574 . S
C609 C628 1.368 . S
C609 H633 0.949 . S
H610 C614 0.949 . S
C611 C612 1.349 . S
C611 C613 1.327 . S
C611 H634 0.950 . S
C612 C611 1.349 . S
C612 C624 1.349 . S
C613 C611 1.327 . S
C613 C629 1.429 . S
C613 H635 0.950 . S
C614 H610 0.949 . S
C614 C622 1.574 . S
C614 C630 1.368 . S
H615 C623 0.950 . S
H616 C621 0.950 . S
H617 C622 0.949 . S
H618 C624 0.950 . S
H619 C625 0.950 . S
H620 C626 0.949 . S
C621 H616 0.950 . S
C621 C623 1.327 . S
C621 C627 1.429 . S
C622 C614 1.574 . S
C622 H617 0.949 . S
C622 C628 1.368 . S
C623 C607 1.349 . S
C623 H615 0.950 . S
C623 C621 1.327 . S
C624 C612 1.349 . S
C624 H618 0.950 . S
C624 C625 1.327 . S
C625 H619 0.950 . S
C625 C624 1.327 . S
C625 C629 1.429 . S
C626 C609 1.574 . S
C626 H620 0.949 . S
C626 C630 1.368 . S
C627 C608 1.429 . S
C627 C621 1.429 . S
C627 C628 1.523 . S
C628 C609 1.368 . S
C628 C622 1.368 . S
C628 C627 1.523 . S
C629 C613 1.429 . S
C629 C625 1.429 . S
C629 C630 1.523 . S
C630 C614 1.368 . S
C630 C626 1.368 . S
C630 C629 1.523 . S
H631 C606 0.950 . S
H632 C608 0.950 . S
H633 C609 0.949 . S
H634 C611 0.950 . S
H635 C613 0.950 . S
C636 C637 1.349 . S
C636 C638 1.327 . S
C636 H661 0.950 . S
C637 C636 1.349 . S
C637 C653 1.349 . S
C638 C636 1.327 . S
C638 C657 1.429 . S
C638 H662 0.950 . S
C639 C656 1.574 . S
C639 C658 1.368 . S
C639 H663 0.949 . S
H640 C644 0.949 . S
C641 C642 1.349 . S
C641 C643 1.327 . S
C641 H664 0.950 . S
C642 C641 1.349 . S
C642 C654 1.349 . S
C643 C641 1.327 . S
C643 C659 1.429 . S
C643 H665 0.950 . S
C644 H640 0.949 . S
C644 C652 1.574 . S
C644 C660 1.368 . S
H645 C653 0.950 . S
H646 C651 0.950 . S
H647 C652 0.949 . S
H648 C654 0.950 . S
H649 C655 0.950 . S
H650 C656 0.949 . S
C651 H646 0.950 . S
C651 C653 1.327 . S
C651 C657 1.429 . S
C652 C644 1.574 . S
C652 H647 0.949 . S
C652 C658 1.368 . S
C653 C637 1.349 . S
C653 H645 0.950 . S
C653 C651 1.327 . S
C654 C642 1.349 . S
C654 H648 0.950 . S
C654 C655 1.327 . S
C655 H649 0.950 . S
C655 C654 1.327 . S
C655 C659 1.429 . S
C656 C639 1.574 . S
C656 H650 0.949 . S
C656 C660 1.368 . S
C657 C638 1.429 . S
C657 C651 1.429 . S
C657 C658 1.523 . S
C658 C639 1.368 . S
C658 C652 1.368 . S
C658 C657 1.523 . S
C659 C643 1.429 . S
C659 C655 1.429 . S
C659 C660 1.523 . S
C660 C644 1.368 . S
C660 C656 1.368 . S
C660 C659 1.523 . S
H661 C636 0.950 . S
H662 C638 0.950 . S
H663 C639 0.949 . S
H664 C641 0.950 . S
H665 C643 0.950 . S
C666 C667 1.349 . S
C666 C668 1.327 . S
C666 H691 0.950 . S
C667 C666 1.349 . S
C667 C683 1.349 . S
C668 C666 1.327 . S
C668 C687 1.429 . S
C668 H692 0.950 . S
C669 C686 1.574 . S
C669 C688 1.368 . S
C669 H693 0.949 . S
H670 C674 0.949 . S
C671 C672 1.349 . S
C671 C673 1.327 . S
C671 H694 0.950 . S
C672 C671 1.349 . S
C672 C684 1.349 . S
C673 C671 1.327 . S
C673 C689 1.429 . S
C673 H695 0.950 . S
C674 H670 0.949 . S
C674 C682 1.574 . S
C674 C690 1.368 . S
H675 C683 0.950 . S
H676 C681 0.950 . S
H677 C682 0.949 . S
H678 C684 0.950 . S
H679 C685 0.950 . S
H680 C686 0.949 . S
C681 H676 0.950 . S
C681 C683 1.327 . S
C681 C687 1.429 . S
C682 C674 1.574 . S
C682 H677 0.949 . S
C682 C688 1.368 . S
C683 C667 1.349 . S
C683 H675 0.950 . S
C683 C681 1.327 . S
C684 C672 1.349 . S
C684 H678 0.950 . S
C684 C685 1.327 . S
C685 H679 0.950 . S
C685 C684 1.327 . S
C685 C689 1.429 . S
C686 C669 1.574 . S
C686 H680 0.949 . S
C686 C690 1.368 . S
C687 C668 1.429 . S
C687 C681 1.429 . S
C687 C688 1.523 . S
C688 C669 1.368 . S
C688 C682 1.368 . S
C688 C687 1.523 . S
C689 C673 1.429 . S
C689 C685 1.429 . S
C689 C690 1.523 . S
C690 C674 1.368 . S
C690 C686 1.368 . S
C690 C689 1.523 . S
H691 C666 0.950 . S
H692 C668 0.950 . S
H693 C669 0.949 . S
H694 C671 0.950 . S
H695 C673 0.950 . S
C696 C697 1.349 . S
C696 C698 1.327 . S
C696 H721 0.950 . S
C697 C696 1.349 . S
C697 C713 1.349 . S
C698 C696 1.327 . S
C698 C717 1.429 . S
C698 H722 0.950 . S
C699 C716 1.574 . S
C699 C718 1.368 . S
C699 H723 0.949 . S
H700 C704 0.949 . S
C701 C702 1.349 . S
C701 C703 1.327 . S
C701 H724 0.950 . S
C702 C701 1.349 . S
C702 C714 1.349 . S
C703 C701 1.327 . S
C703 C719 1.429 . S
C703 H725 0.950 . S
C704 H700 0.949 . S
C704 C712 1.574 . S
C704 C720 1.368 . S
H705 C713 0.950 . S
H706 C711 0.950 . S
H707 C712 0.949 . S
H708 C714 0.950 . S
H709 C715 0.950 . S
H710 C716 0.949 . S
C711 H706 0.950 . S
C711 C713 1.327 . S
C711 C717 1.429 . S
C712 C704 1.574 . S
C712 H707 0.949 . S
C712 C718 1.368 . S
C713 C697 1.349 . S
C713 H705 0.950 . S
C713 C711 1.327 . S
C714 C702 1.349 . S
C714 H708 0.950 . S
C714 C715 1.327 . S
C715 H709 0.950 . S
C715 C714 1.327 . S
C715 C719 1.429 . S
C716 C699 1.574 . S
C716 H710 0.949 . S
C716 C720 1.368 . S
C717 C698 1.429 . S
C717 C711 1.429 . S
C717 C718 1.523 . S
C718 C699 1.368 . S
C718 C712 1.368 . S
C718 C717 1.523 . S
C719 C703 1.429 . S
C719 C715 1.429 . S
C719 C720 1.523 . S
C720 C704 1.368 . S
C720 C716 1.368 . S
C720 C719 1.523 . S
H721 C696 0.950 . S
H722 C698 0.950 . S
H723 C699 0.949 . S
H724 C701 0.950 . S
H725 C703 0.950 . S
C726 C727 1.349 . S
C726 C728 1.327 . S
C726 H751 0.950 . S
C727 C726 1.349 . S
C727 C743 1.349 . S
C728 C726 1.327 . S
C728 C747 1.429 . S
C728 H752 0.950 . S
C729 C746 1.574 . S
C729 C748 1.368 . S
C729 H753 0.949 . S
H730 C734 0.949 . S
C731 C732 1.349 . S
C731 C733 1.327 . S
C731 H754 0.950 . S
C732 C731 1.349 . S
C732 C744 1.349 . S
C733 C731 1.327 . S
C733 C749 1.429 . S
C733 H755 0.950 . S
C734 H730 0.949 . S
C734 C742 1.574 . S
C734 C750 1.368 . S
H735 C743 0.950 . S
H736 C741 0.950 . S
H737 C742 0.949 . S
H738 C744 0.950 . S
H739 C745 0.950 . S
H740 C746 0.949 . S
C741 H736 0.950 . S
C741 C743 1.327 . S
C741 C747 1.429 . S
C742 C734 1.574 . S
C742 H737 0.949 . S
C742 C748 1.368 . S
C743 C727 1.349 . S
C743 H735 0.950 . S
C743 C741 1.327 . S
C744 C732 1.349 . S
C744 H738 0.950 . S
C744 C745 1.327 . S
C745 H739 0.950 . S
C745 C744 1.327 . S
C745 C749 1.429 . S
C746 C729 1.574 . S
C746 H740 0.949 . S
C746 C750 1.368 . S
C747 C728 1.429 . S
C747 C741 1.429 . S
C747 C748 1.523 . S
C748 C729 1.368 . S
C748 C742 1.368 . S
C748 C747 1.523 . S
C749 C733 1.429 . S
C749 C745 1.429 . S
C749 C750 1.523 . S
C750 C734 1.368 . S
C750 C746 1.368 . S
C750 C749 1.523 . S
H751 C726 0.950 . S
H752 C728 0.950 . S
H753 C729 0.949 . S
H754 C731 0.950 . S
H755 C733 0.950 . S
C756 C757 1.349 . S
C756 C758 1.327 . S
C756 H781 0.950 . S
C757 C756 1.349 . S
C757 C773 1.349 . S
C758 C756 1.327 . S
C758 C777 1.429 . S
C758 H782 0.950 . S
C759 C776 1.574 1_655 S
C759 C778 1.368 . S
C759 H783 0.949 . S
H760 C764 0.949 . S
C761 C762 1.349 . S
C761 C763 1.327 . S
C761 H784 0.950 . S
C762 C761 1.349 . S
C762 C774 1.349 . S
C763 C761 1.327 . S
C763 C779 1.429 . S
C763 H785 0.950 . S
C764 H760 0.949 . S
C764 C772 1.574 1_455 S
C764 C780 1.368 . S
H765 C773 0.950 . S
H766 C771 0.950 . S
H767 C772 0.949 . S
H768 C774 0.950 . S
H769 C775 0.950 . S
H770 C776 0.949 . S
C771 H766 0.950 . S
C771 C773 1.327 . S
C771 C777 1.429 . S
C772 C764 1.574 1_655 S
C772 H767 0.949 . S
C772 C778 1.368 . S
C773 C757 1.349 . S
C773 H765 0.950 . S
C773 C771 1.327 . S
C774 C762 1.349 . S
C774 H768 0.950 . S
C774 C775 1.327 . S
C775 H769 0.950 . S
C775 C774 1.327 . S
C775 C779 1.429 . S
C776 C759 1.574 1_455 S
C776 H770 0.949 . S
C776 C780 1.368 . S
C777 C758 1.429 . S
C777 C771 1.429 . S
C777 C778 1.523 . S
C778 C759 1.368 . S
C778 C772 1.368 . S
C778 C777 1.523 . S
C779 C763 1.429 . S
C779 C775 1.429 . S
C779 C780 1.523 . S
C780 C764 1.368 . S
C780 C776 1.368 . S
C780 C779 1.523 . S
H781 C756 0.950 . S
H782 C758 0.950 . S
H783 C759 0.949 . S
H784 C761 0.950 . S
H785 C763 0.950 . S
C786 C787 1.349 . S
C786 C788 1.327 1_565 S
C786 H811 0.950 1_565 S
C787 C786 1.349 . S
C787 C803 1.349 . S
C788 C786 1.327 1_545 S
C788 C807 1.429 1_545 S
C788 H812 0.950 . S
C789 C806 1.574 1_556 S
C789 C808 1.368 . S
C789 H813 0.949 . S
H790 C794 0.949 . S
C791 C792 1.349 . S
C791 C793 1.327 1_545 S
C791 H814 0.950 1_545 S
C792 C791 1.349 . S
C792 C804 1.349 . S
C793 C791 1.327 1_565 S
C793 C809 1.429 1_565 S
C793 H815 0.950 . S
C794 H790 0.949 . S
C794 C802 1.574 1_554 S
C794 C810 1.368 . S
H795 C803 0.950 . S
H796 C801 0.950 . S
H797 C802 0.949 . S
H798 C804 0.950 . S
H799 C805 0.950 . S
H800 C806 0.949 . S
C801 H796 0.950 . S
C801 C803 1.327 . S
C801 C807 1.429 . S
C802 C794 1.574 1_556 S
C802 H797 0.949 . S
C802 C808 1.368 1_545 S
C803 C787 1.349 . S
C803 H795 0.950 . S
C803 C801 1.327 . S
C804 C792 1.349 . S
C804 H798 0.950 . S
C804 C805 1.327 . S
C805 H799 0.950 . S
C805 C804 1.327 . S
C805 C809 1.429 . S
C806 C789 1.574 1_554 S
C806 H800 0.949 . S
C806 C810 1.368 1_565 S
C807 C788 1.429 1_565 S
C807 C801 1.429 . S
C807 C808 1.523 . S
C808 C789 1.368 . S
C808 C802 1.368 1_565 S
C808 C807 1.523 . S
C809 C793 1.429 1_545 S
C809 C805 1.429 . S
C809 C810 1.523 . S
C810 C794 1.368 . S
C810 C806 1.368 1_545 S
C810 C809 1.523 . S
H811 C786 0.950 1_545 S
H812 C788 0.950 . S
H813 C789 0.949 . S
H814 C791 0.950 1_565 S
H815 C793 0.950 . S
C816 C817 1.349 . S
C816 C818 1.327 . S
C816 H841 0.950 . S
C817 C816 1.349 . S
C817 C833 1.349 . S
C818 C816 1.327 . S
C818 C837 1.429 . S
C818 H842 0.950 . S
C819 C836 1.574 . S
C819 C838 1.368 . S
C819 H843 0.949 . S
H820 C824 0.949 . S
C821 C822 1.349 . S
C821 C823 1.327 . S
C821 H844 0.950 . S
C822 C821 1.349 . S
C822 C834 1.349 . S
C823 C821 1.327 . S
C823 C839 1.429 . S
C823 H845 0.950 . S
C824 H820 0.949 . S
C824 C832 1.574 . S
C824 C840 1.368 . S
H825 C833 0.950 . S
H826 C831 0.950 . S
H827 C832 0.949 . S
H828 C834 0.950 . S
H829 C835 0.950 . S
H830 C836 0.949 . S
C831 H826 0.950 . S
C831 C833 1.327 . S
C831 C837 1.429 . S
C832 C824 1.574 . S
C832 H827 0.949 . S
C832 C838 1.368 . S
C833 C817 1.349 . S
C833 H825 0.950 . S
C833 C831 1.327 . S
C834 C822 1.349 . S
C834 H828 0.950 . S
C834 C835 1.327 . S
C835 H829 0.950 . S
C835 C834 1.327 . S
C835 C839 1.429 . S
C836 C819 1.574 . S
C836 H830 0.949 . S
C836 C840 1.368 . S
C837 C818 1.429 . S
C837 C831 1.429 . S
C837 C838 1.523 . S
C838 C819 1.368 . S
C838 C832 1.368 . S
C838 C837 1.523 . S
C839 C823 1.429 . S
C839 C835 1.429 . S
C839 C840 1.523 . S
C840 C824 1.368 . S
C840 C836 1.368 . S
C840 C839 1.523 . S
H841 C816 0.950 . S
H842 C818 0.950 . S
H843 C819 0.949 . S
H844 C821 0.950 . S
H845 C823 0.950 . S
C846 C847 1.349 . S
C846 C848 1.327 1_655 S
C846 H871 0.950 1_655 S
C847 C846 1.349 . S
C847 C863 1.349 . S
C848 C846 1.327 1_455 S
C848 C867 1.429 1_455 S
C848 H872 0.950 . S
C849 C866 1.574 . S
C849 C868 1.368 . S
C849 H873 0.949 . S
H850 C854 0.949 . S
C851 C852 1.349 . S
C851 C853 1.327 1_455 S
C851 H874 0.950 1_455 S
C852 C851 1.349 . S
C852 C864 1.349 . S
C853 C851 1.327 1_655 S
C853 C869 1.429 1_655 S
C853 H875 0.950 . S
C854 H850 0.949 . S
C854 C862 1.574 . S
C854 C870 1.368 . S
H855 C863 0.950 . S
H856 C861 0.950 . S
H857 C862 0.949 . S
H858 C864 0.950 . S
H859 C865 0.950 . S
H860 C866 0.949 . S
C861 H856 0.950 . S
C861 C863 1.327 . S
C861 C867 1.429 . S
C862 C854 1.574 . S
C862 H857 0.949 . S
C862 C868 1.368 1_455 S
C863 C847 1.349 . S
C863 H855 0.950 . S
C863 C861 1.327 . S
C864 C852 1.349 . S
C864 H858 0.950 . S
C864 C865 1.327 . S
C865 H859 0.950 . S
C865 C864 1.327 . S
C865 C869 1.429 . S
C866 C849 1.574 . S
C866 H860 0.949 . S
C866 C870 1.368 1_655 S
C867 C848 1.429 1_655 S
C867 C861 1.429 . S
C867 C868 1.523 . S
C868 C849 1.368 . S
C868 C862 1.368 1_655 S
C868 C867 1.523 . S
C869 C853 1.429 1_455 S
C869 C865 1.429 . S
C869 C870 1.523 . S
C870 C854 1.368 . S
C870 C866 1.368 1_455 S
C870 C869 1.523 . S
H871 C846 0.950 1_455 S
H872 C848 0.950 . S
H873 C849 0.949 . S
H874 C851 0.950 1_655 S
H875 C853 0.950 . S
C876 C877 1.349 . S
C876 C878 1.327 . S
C876 H901 0.950 . S
C877 C876 1.349 . S
C877 C893 1.349 . S
C878 C876 1.327 . S
C878 C897 1.429 . S
C878 H902 0.950 1_565 S
C879 C896 1.574 . S
C879 C898 1.368 . S
C879 H903 0.949 . S
H880 C884 0.949 . S
C881 C882 1.349 . S
C881 C883 1.327 . S
C881 H904 0.950 . S
C882 C881 1.349 . S
C882 C894 1.349 . S
C883 C881 1.327 . S
C883 C899 1.429 . S
C883 H905 0.950 1_545 S
C884 H880 0.949 . S
C884 C892 1.574 . S
C884 C900 1.368 . S
H885 C893 0.950 . S
H886 C891 0.950 . S
H887 C892 0.949 . S
H888 C894 0.950 . S
H889 C895 0.950 . S
H890 C896 0.949 . S
C891 H886 0.950 . S
C891 C893 1.327 . S
C891 C897 1.429 . S
C892 C884 1.574 . S
C892 H887 0.949 . S
C892 C898 1.368 1_545 S
C893 C877 1.349 . S
C893 H885 0.950 . S
C893 C891 1.327 . S
C894 C882 1.349 . S
C894 H888 0.950 . S
C894 C895 1.327 . S
C895 H889 0.950 . S
C895 C894 1.327 . S
C895 C899 1.429 . S
C896 C879 1.574 . S
C896 H890 0.949 . S
C896 C900 1.368 1_565 S
C897 C878 1.429 . S
C897 C891 1.429 . S
C897 C898 1.523 . S
C898 C879 1.368 . S
C898 C892 1.368 1_565 S
C898 C897 1.523 . S
C899 C883 1.429 . S
C899 C895 1.429 . S
C899 C900 1.523 . S
C900 C884 1.368 . S
C900 C896 1.368 1_545 S
C900 C899 1.523 . S
H901 C876 0.950 . S
H902 C878 0.950 1_545 S
H903 C879 0.949 . S
H904 C881 0.950 . S
H905 C883 0.950 1_565 S
C906 C907 1.349 . S
C906 C908 1.327 . S
C906 H931 0.950 . S
C907 C906 1.349 . S
C907 C923 1.349 . S
C908 C906 1.327 . S
C908 C927 1.429 . S
C908 H932 0.950 . S
C909 C926 1.574 . S
C909 C928 1.368 . S
C909 H933 0.949 . S
H910 C914 0.949 . S
C911 C912 1.349 . S
C911 C913 1.327 . S
C911 H934 0.950 . S
C912 C911 1.349 . S
C912 C924 1.349 . S
C913 C911 1.327 . S
C913 C929 1.429 . S
C913 H935 0.950 . S
C914 H910 0.949 . S
C914 C922 1.574 . S
C914 C930 1.368 . S
H915 C923 0.950 . S
H916 C921 0.950 . S
H917 C922 0.949 . S
H918 C924 0.950 . S
H919 C925 0.950 . S
H920 C926 0.949 . S
C921 H916 0.950 . S
C921 C923 1.327 . S
C921 C927 1.429 . S
C922 C914 1.574 . S
C922 H917 0.949 . S
C922 C928 1.368 . S
C923 C907 1.349 . S
C923 H915 0.950 . S
C923 C921 1.327 . S
C924 C912 1.349 . S
C924 H918 0.950 . S
C924 C925 1.327 . S
C925 H919 0.950 . S
C925 C924 1.327 . S
C925 C929 1.429 . S
C926 C909 1.574 . S
C926 H920 0.949 . S
C926 C930 1.368 . S
C927 C908 1.429 . S
C927 C921 1.429 . S
C927 C928 1.523 . S
C928 C909 1.368 . S
C928 C922 1.368 . S
C928 C927 1.523 . S
C929 C913 1.429 . S
C929 C925 1.429 . S
C929 C930 1.523 . S
C930 C914 1.368 . S
C930 C926 1.368 . S
C930 C929 1.523 . S
H931 C906 0.950 . S
H932 C908 0.950 . S
H933 C909 0.949 . S
H934 C911 0.950 . S
H935 C913 0.950 . S
C936 C937 1.349 . S
C936 C938 1.327 . S
C936 H961 0.950 . S
C937 C936 1.349 . S
C937 C953 1.349 . S
C938 C936 1.327 . S
C938 C957 1.429 . S
C938 H962 0.950 . S
C939 C956 1.574 . S
C939 C958 1.368 . S
C939 H963 0.949 . S
H940 C944 0.912 1_554 S
C941 C942 1.349 1_556 S
C941 C943 1.327 . S
C941 H964 0.950 . S
C942 C941 1.349 1_554 S
C942 C954 1.349 . S
C943 C941 1.327 . S
C943 C959 1.429 . S
C943 H965 0.950 . S
C944 H940 0.912 1_556 S
C944 C952 1.590 . S
C944 C960 1.394 . S
H945 C953 0.950 . S
H946 C951 0.950 . S
H947 C952 0.949 . S
H948 C954 0.950 . S
H949 C955 0.950 . S
H950 C956 0.949 . S
C951 H946 0.950 . S
C951 C953 1.327 . S
C951 C957 1.429 . S
C952 C944 1.590 . S
C952 H947 0.949 . S
C952 C958 1.368 . S
C953 C937 1.349 . S
C953 H945 0.950 . S
C953 C951 1.327 . S
C954 C942 1.349 . S
C954 H948 0.950 . S
C954 C955 1.327 . S
C955 H949 0.950 . S
C955 C954 1.327 . S
C955 C959 1.429 1_554 S
C956 C939 1.574 . S
C956 H950 0.949 . S
C956 C960 1.368 . S
C957 C938 1.429 . S
C957 C951 1.429 . S
C957 C958 1.523 . S
C958 C939 1.368 . S
C958 C952 1.368 . S
C958 C957 1.523 . S
C959 C943 1.429 . S
C959 C955 1.429 1_556 S
C959 C960 1.523 . S
C960 C944 1.394 . S
C960 C956 1.368 . S
C960 C959 1.523 . S
H961 C936 0.950 . S
H962 C938 0.950 . S
H963 C939 0.949 . S
H964 C941 0.950 . S
H965 C943 0.950 . S
C966 C967 1.349 . S
C966 C968 1.327 . S
C966 H991 0.950 1_655 S
C967 C966 1.349 . S
C967 C983 1.349 . S
C968 C966 1.327 . S
C968 C987 1.429 . S
C968 H992 0.950 . S
C969 C986 1.574 . S
C969 C988 1.368 . S
C969 H993 0.949 . S
H970 C974 0.949 . S
C971 C972 1.349 . S
C971 C973 1.327 . S
C971 H994 0.950 . S
C972 C971 1.349 . S
C972 C984 1.349 . S
C973 C971 1.327 . S
C973 C989 1.429 . S
C973 H995 0.950 . S
C974 H970 0.949 . S
C974 C982 1.574 . S
C974 C990 1.368 . S
H975 C983 0.950 . S
H976 C981 0.950 . S
H977 C982 0.949 . S
H978 C984 0.950 . S
H979 C985 0.950 . S
H980 C986 0.949 . S
C981 H976 0.950 . S
C981 C983 1.327 . S
C981 C987 1.429 . S
C982 C974 1.574 . S
C982 H977 0.949 . S
C982 C988 1.368 . S
C983 C967 1.349 . S
C983 H975 0.950 . S
C983 C981 1.327 . S
C984 C972 1.349 . S
C984 H978 0.950 . S
C984 C985 1.327 . S
C985 H979 0.950 . S
C985 C984 1.327 . S
C985 C989 1.429 . S
C986 C969 1.574 . S
C986 H980 0.949 . S
C986 C990 1.368 . S
C987 C968 1.429 . S
C987 C981 1.429 . S
C987 C988 1.523 . S
C988 C969 1.368 . S
C988 C982 1.368 . S
C988 C987 1.523 . S
C989 C973 1.429 . S
C989 C985 1.429 . S
C989 C990 1.523 . S
C990 C974 1.368 . S
C990 C986 1.368 . S
C990 C989 1.523 . S
H991 C966 0.950 1_455 S
H992 C968 0.950 . S
H993 C969 0.949 . S
H994 C971 0.950 . S
H995 C973 0.950 . S
C996 C997 1.349 . S
C996 C998 1.327 . S
C996 H1021 0.950 . S
C997 C996 1.349 . S
C997 C1013 1.349 . S
C998 C996 1.327 . S
C998 C1017 1.429 . S
C998 H1022 0.950 . S
C999 C1016 1.574 . S
C999 C1018 1.368 . S
C999 H1023 0.949 . S
H1000 C1004 0.949 . S
C1001 C1002 1.349 . S
C1001 C1003 1.327 . S
C1001 H1024 0.950 . S
C1002 C1001 1.349 . S
C1002 C1014 1.349 . S
C1003 C1001 1.327 . S
C1003 C1019 1.429 . S
C1003 H1025 0.950 . S
C1004 H1000 0.949 . S
C1004 C1012 1.574 . S
C1004 C1020 1.368 . S
H1005 C1013 0.950 . S
H1006 C1011 0.950 . S
H1007 C1012 0.949 . S
H1008 C1014 0.950 1_545 S
H1009 C1015 0.950 . S
H1010 C1016 0.949 . S
C1011 H1006 0.950 . S
C1011 C1013 1.327 . S
C1011 C1017 1.429 . S
C1012 C1004 1.574 . S
C1012 H1007 0.949 . S
C1012 C1018 1.368 . S
C1013 C997 1.349 . S
C1013 H1005 0.950 . S
C1013 C1011 1.327 . S
C1014 C1002 1.349 . S
C1014 H1008 0.950 1_565 S
C1014 C1015 1.327 . S
C1015 H1009 0.950 . S
C1015 C1014 1.327 . S
C1015 C1019 1.429 . S
C1016 C999 1.574 . S
C1016 H1010 0.949 . S
C1016 C1020 1.368 . S
C1017 C998 1.429 . S
C1017 C1011 1.429 . S
C1017 C1018 1.523 . S
C1018 C999 1.368 . S
C1018 C1012 1.368 . S
C1018 C1017 1.523 . S
C1019 C1003 1.429 . S
C1019 C1015 1.429 . S
C1019 C1020 1.523 . S
C1020 C1004 1.368 . S
C1020 C1016 1.368 . S
C1020 C1019 1.523 . S
H1021 C996 0.950 . S
H1022 C998 0.950 . S
H1023 C999 0.949 . S
H1024 C1001 0.950 . S
H1025 C1003 0.950 . S
C1026 C1027 1.349 . S
C1026 C1028 1.327 . S
C1026 H1051 0.950 . S
C1027 C1026 1.349 . S
C1027 C1043 1.349 . S
C1028 C1026 1.327 . S
C1028 C1047 1.429 . S
C1028 H1052 0.950 . S
C1029 C1046 1.574 . S
C1029 C1048 1.368 . S
C1029 H1053 0.949 . S
H1030 C1034 0.949 . S
C1031 C1032 1.349 . S
C1031 C1033 1.327 . S
C1031 H1054 0.950 . S
C1032 C1031 1.349 . S
C1032 C1044 1.349 . S
C1033 C1031 1.327 . S
C1033 C1049 1.429 . S
C1033 H1055 0.950 . S
C1034 H1030 0.949 . S
C1034 C1042 1.574 . S
C1034 C1050 1.368 . S
H1035 C1043 0.950 . S
H1036 C1041 0.950 . S
H1037 C1042 0.949 . S
H1038 C1044 0.950 . S
H1039 C1045 0.950 . S
H1040 C1046 0.949 . S
C1041 H1036 0.950 . S
C1041 C1043 1.327 . S
C1041 C1047 1.429 . S
C1042 C1034 1.574 . S
C1042 H1037 0.949 . S
C1042 C1048 1.368 . S
C1043 C1027 1.349 . S
C1043 H1035 0.950 . S
C1043 C1041 1.327 . S
C1044 C1032 1.349 . S
C1044 H1038 0.950 . S
C1044 C1045 1.327 . S
C1045 H1039 0.950 . S
C1045 C1044 1.327 . S
C1045 C1049 1.429 . S
C1046 C1029 1.574 . S
C1046 H1040 0.949 . S
C1046 C1050 1.368 . S
C1047 C1028 1.429 . S
C1047 C1041 1.429 . S
C1047 C1048 1.523 . S
C1048 C1029 1.368 . S
C1048 C1042 1.368 . S
C1048 C1047 1.523 . S
C1049 C1033 1.429 . S
C1049 C1045 1.429 . S
C1049 C1050 1.523 . S
C1050 C1034 1.368 . S
C1050 C1046 1.368 . S
C1050 C1049 1.523 . S
H1051 C1026 0.950 . S
H1052 C1028 0.950 . S
H1053 C1029 0.949 . S
H1054 C1031 0.950 . S
H1055 C1033 0.950 . S
C1056 C1057 1.349 . S
C1056 C1058 1.327 . S
C1056 H1081 0.950 . S
C1057 C1056 1.349 . S
C1057 C1073 1.349 . S
C1058 C1056 1.327 . S
C1058 C1077 1.429 . S
C1058 H1082 0.950 . S
C1059 C1076 1.574 . S
C1059 C1078 1.368 . S
C1059 H1083 0.949 . S
H1060 C1064 0.949 . S
C1061 C1062 1.349 . S
C1061 C1063 1.327 . S
C1061 H1084 0.950 . S
C1062 C1061 1.349 . S
C1062 C1074 1.349 . S
C1063 C1061 1.327 . S
C1063 C1079 1.429 . S
C1063 H1085 0.950 . S
C1064 H1060 0.949 . S
C1064 C1072 1.574 . S
C1064 C1080 1.368 . S
H1065 C1073 0.950 . S
H1066 C1071 0.950 . S
H1067 C1072 0.949 . S
H1068 C1074 0.950 1_655 S
H1069 C1075 0.950 . S
H1070 C1076 0.949 . S
C1071 H1066 0.950 . S
C1071 C1073 1.327 . S
C1071 C1077 1.429 . S
C1072 C1064 1.574 . S
C1072 H1067 0.949 . S
C1072 C1078 1.368 . S
C1073 C1057 1.349 . S
C1073 H1065 0.950 . S
C1073 C1071 1.327 . S
C1074 C1062 1.349 . S
C1074 H1068 0.950 1_455 S
C1074 C1075 1.327 . S
C1075 H1069 0.950 . S
C1075 C1074 1.327 . S
C1075 C1079 1.429 . S
C1076 C1059 1.574 . S
C1076 H1070 0.949 . S
C1076 C1080 1.368 . S
C1077 C1058 1.429 . S
C1077 C1071 1.429 . S
C1077 C1078 1.523 . S
C1078 C1059 1.368 . S
C1078 C1072 1.368 . S
C1078 C1077 1.523 . S
C1079 C1063 1.429 . S
C1079 C1075 1.429 . S
C1079 C1080 1.523 . S
C1080 C1064 1.368 . S
C1080 C1076 1.368 . S
C1080 C1079 1.523 . S
H1081 C1056 0.950 . S
H1082 C1058 0.950 . S
H1083 C1059 0.949 . S
H1084 C1061 0.950 . S
H1085 C1063 0.950 . S
C1086 C1087 1.349 . S
C1086 C1088 1.327 . S
C1086 H1111 0.950 . S
C1087 C1086 1.349 . S
C1087 C1103 1.349 . S
C1088 C1086 1.327 . S
C1088 C1107 1.429 . S
C1088 H1112 0.950 . S
C1089 C1106 1.574 . S
C1089 C1108 1.368 . S
C1089 H1113 0.949 . S
H1090 C1094 0.949 . S
C1091 C1092 1.349 . S
C1091 C1093 1.327 . S
C1091 H1114 0.950 . S
C1092 C1091 1.349 . S
C1092 C1104 1.349 . S
C1093 C1091 1.327 . S
C1093 C1109 1.429 . S
C1093 H1115 0.950 . S
C1094 H1090 0.949 . S
C1094 C1102 1.574 . S
C1094 C1110 1.368 . S
H1095 C1103 0.950 . S
H1096 C1101 0.950 . S
H1097 C1102 0.949 . S
H1098 C1104 0.950 1_565 S
H1099 C1105 0.950 . S
H1100 C1106 0.949 . S
C1101 H1096 0.950 . S
C1101 C1103 1.327 . S
C1101 C1107 1.429 . S
C1102 C1094 1.574 . S
C1102 H1097 0.949 . S
C1102 C1108 1.368 . S
C1103 C1087 1.349 . S
C1103 H1095 0.950 . S
C1103 C1101 1.327 . S
C1104 C1092 1.349 . S
C1104 H1098 0.950 1_545 S
C1104 C1105 1.327 . S
C1105 H1099 0.950 . S
C1105 C1104 1.327 . S
C1105 C1109 1.429 . S
C1106 C1089 1.574 . S
C1106 H1100 0.949 . S
C1106 C1110 1.368 . S
C1107 C1088 1.429 . S
C1107 C1101 1.429 . S
C1107 C1108 1.523 . S
C1108 C1089 1.368 . S
C1108 C1102 1.368 . S
C1108 C1107 1.523 . S
C1109 C1093 1.429 . S
C1109 C1105 1.429 . S
C1109 C1110 1.523 . S
C1110 C1094 1.368 . S
C1110 C1106 1.368 . S
C1110 C1109 1.523 . S
H1111 C1086 0.950 . S
H1112 C1088 0.950 . S
H1113 C1089 0.949 . S
H1114 C1091 0.950 . S
H1115 C1093 0.950 . S
C1116 C1117 1.349 . S
C1116 C1118 1.327 . S
C1116 H1141 0.950 . S
C1117 C1116 1.349 . S
C1117 C1133 1.349 . S
C1118 C1116 1.327 . S
C1118 C1137 1.429 . S
C1118 H1142 0.950 . S
C1119 C1136 1.574 . S
C1119 C1138 1.368 . S
C1119 H1143 0.949 . S
H1120 C1124 0.949 . S
C1121 C1122 1.349 . S
C1121 C1123 1.327 . S
C1121 H1144 0.950 . S
C1122 C1121 1.349 . S
C1122 C1134 1.349 . S
C1123 C1121 1.327 . S
C1123 C1139 1.429 . S
C1123 H1145 0.950 . S
C1124 H1120 0.949 . S
C1124 C1132 1.574 . S
C1124 C1140 1.368 . S
H1125 C1133 0.950 . S
H1126 C1131 0.950 . S
H1127 C1132 0.949 . S
H1128 C1134 0.950 . S
H1129 C1135 0.950 . S
H1130 C1136 0.949 . S
C1131 H1126 0.950 . S
C1131 C1133 1.327 . S
C1131 C1137 1.429 . S
C1132 C1124 1.574 . S
C1132 H1127 0.949 . S
C1132 C1138 1.368 . S
C1133 C1117 1.349 . S
C1133 H1125 0.950 . S
C1133 C1131 1.327 . S
C1134 C1122 1.349 . S
C1134 H1128 0.950 . S
C1134 C1135 1.327 . S
C1135 H1129 0.950 . S
C1135 C1134 1.327 . S
C1135 C1139 1.429 . S
C1136 C1119 1.574 . S
C1136 H1130 0.949 . S
C1136 C1140 1.368 . S
C1137 C1118 1.429 . S
C1137 C1131 1.429 . S
C1137 C1138 1.523 . S
C1138 C1119 1.368 . S
C1138 C1132 1.368 . S
C1138 C1137 1.523 . S
C1139 C1123 1.429 . S
C1139 C1135 1.429 . S
C1139 C1140 1.523 . S
C1140 C1124 1.368 . S
C1140 C1136 1.368 . S
C1140 C1139 1.523 . S
H1141 C1116 0.950 . S
H1142 C1118 0.950 . S
H1143 C1119 0.949 . S
H1144 C1121 0.950 . S
H1145 C1123 0.950 . S
C1146 C1147 1.349 . S
C1146 C1148 1.327 . S
C1146 H1171 0.950 . S
C1147 C1146 1.349 . S
C1147 C1163 1.349 1_556 S
C1148 C1146 1.327 . S
C1148 C1167 1.429 1_556 S
C1148 H1172 0.950 . S
C1149 C1166 1.574 . S
C1149 C1168 1.368 . S
C1149 H1173 0.949 . S
H1150 C1154 0.949 . S
C1151 C1152 1.349 . S
C1151 C1153 1.327 . S
C1151 H1174 0.950 . S
C1152 C1151 1.349 . S
C1152 C1164 1.349 . S
C1153 C1151 1.327 . S
C1153 C1169 1.429 . S
C1153 H1175 0.950 . S
C1154 H1150 0.949 . S
C1154 C1162 1.574 . S
C1154 C1170 1.368 . S
H1155 C1163 0.950 . S
H1156 C1161 0.950 . S
H1157 C1162 0.949 1_556 S
H1158 C1164 0.950 . S
H1159 C1165 0.950 . S
H1160 C1166 0.949 . S
C1161 H1156 0.950 . S
C1161 C1163 1.327 . S
C1161 C1167 1.429 . S
C1162 C1154 1.574 . S
C1162 H1157 0.949 1_554 S
C1162 C1168 1.368 . S
C1163 C1147 1.349 1_554 S
C1163 H1155 0.950 . S
C1163 C1161 1.327 . S
C1164 C1152 1.349 . S
C1164 H1158 0.950 . S
C1164 C1165 1.327 . S
C1165 H1159 0.950 . S
C1165 C1164 1.327 . S
C1165 C1169 1.429 . S
C1166 C1149 1.574 . S
C1166 H1160 0.949 . S
C1166 C1170 1.368 . S
C1167 C1148 1.429 1_554 S
C1167 C1161 1.429 . S
C1167 C1168 1.523 . S
C1168 C1149 1.368 . S
C1168 C1162 1.368 . S
C1168 C1167 1.523 . S
C1169 C1153 1.429 . S
C1169 C1165 1.429 . S
C1169 C1170 1.523 . S
C1170 C1154 1.368 . S
C1170 C1166 1.368 . S
C1170 C1169 1.523 . S
H1171 C1146 0.950 . S
H1172 C1148 0.950 . S
H1173 C1149 0.949 . S
H1174 C1151 0.950 . S
H1175 C1153 0.950 . S
C1176 C1177 1.349 . S
C1176 C1178 1.327 . S
C1176 H1201 0.950 . S
C1177 C1176 1.349 . S
C1177 C1193 1.349 . S
C1178 C1176 1.327 . S
C1178 C1197 1.429 . S
C1178 H1202 0.950 . S
C1179 C1196 1.574 . S
C1179 C1198 1.368 . S
C1179 H1203 0.949 . S
H1180 C1184 0.949 . S
C1181 C1182 1.349 . S
C1181 C1183 1.327 . S
C1181 H1204 0.950 1_565 S
C1182 C1181 1.349 . S
C1182 C1194 1.349 . S
C1183 C1181 1.327 . S
C1183 C1199 1.429 . S
C1183 H1205 0.950 . S
C1184 H1180 0.949 . S
C1184 C1192 1.574 . S
C1184 C1200 1.368 . S
H1185 C1193 0.950 . S
H1186 C1191 0.950 . S
H1187 C1192 0.949 . S
H1188 C1194 0.950 . S
H1189 C1195 0.950 . S
H1190 C1196 0.949 . S
C1191 H1186 0.950 . S
C1191 C1193 1.327 . S
C1191 C1197 1.429 . S
C1192 C1184 1.574 . S
C1192 H1187 0.949 . S
C1192 C1198 1.368 . S
C1193 C1177 1.349 . S
C1193 H1185 0.950 . S
C1193 C1191 1.327 . S
C1194 C1182 1.349 . S
C1194 H1188 0.950 . S
C1194 C1195 1.327 . S
C1195 H1189 0.950 . S
C1195 C1194 1.327 . S
C1195 C1199 1.429 . S
C1196 C1179 1.574 . S
C1196 H1190 0.949 . S
C1196 C1200 1.368 . S
C1197 C1178 1.429 . S
C1197 C1191 1.429 . S
C1197 C1198 1.523 . S
C1198 C1179 1.368 . S
C1198 C1192 1.368 . S
C1198 C1197 1.523 . S
C1199 C1183 1.429 . S
C1199 C1195 1.429 . S
C1199 C1200 1.523 . S
C1200 C1184 1.368 . S
C1200 C1196 1.368 . S
C1200 C1199 1.523 . S
H1201 C1176 0.950 . S
H1202 C1178 0.950 . S
H1203 C1179 0.949 . S
H1204 C1181 0.950 1_545 S
H1205 C1183 0.950 . S
C1206 C1207 1.349 . S
C1206 C1208 1.327 . S
C1206 H1231 0.950 . S
C1207 C1206 1.349 . S
C1207 C1223 1.349 . S
C1208 C1206 1.327 . S
C1208 C1227 1.429 . S
C1208 H1232 0.950 . S
C1209 C1226 1.574 . S
C1209 C1228 1.368 . S
C1209 H1233 0.949 . S
H1210 C1214 0.949 . S
C1211 C1212 1.349 . S
C1211 C1213 1.327 . S
C1211 H1234 0.950 . S
C1212 C1211 1.349 . S
C1212 C1224 1.349 . S
C1213 C1211 1.327 . S
C1213 C1229 1.429 . S
C1213 H1235 0.950 . S
C1214 H1210 0.949 . S
C1214 C1222 1.574 . S
C1214 C1230 1.368 . S
H1215 C1223 0.950 . S
H1216 C1221 0.950 . S
H1217 C1222 0.949 . S
H1218 C1224 0.950 . S
H1219 C1225 0.950 . S
H1220 C1226 0.949 . S
C1221 H1216 0.950 . S
C1221 C1223 1.327 . S
C1221 C1227 1.429 . S
C1222 C1214 1.574 . S
C1222 H1217 0.949 . S
C1222 C1228 1.368 . S
C1223 C1207 1.349 . S
C1223 H1215 0.950 . S
C1223 C1221 1.327 . S
C1224 C1212 1.349 . S
C1224 H1218 0.950 . S
C1224 C1225 1.327 . S
C1225 H1219 0.950 . S
C1225 C1224 1.327 . S
C1225 C1229 1.429 . S
C1226 C1209 1.574 . S
C1226 H1220 0.949 . S
C1226 C1230 1.368 . S
C1227 C1208 1.429 . S
C1227 C1221 1.429 . S
C1227 C1228 1.523 . S
C1228 C1209 1.368 . S
C1228 C1222 1.368 . S
C1228 C1227 1.523 . S
C1229 C1213 1.429 . S
C1229 C1225 1.429 . S
C1229 C1230 1.523 . S
C1230 C1214 1.368 . S
C1230 C1226 1.368 . S
C1230 C1229 1.523 . S
H1231 C1206 0.950 . S
H1232 C1208 0.950 . S
H1233 C1209 0.949 . S
H1234 C1211 0.950 . S
H1235 C1213 0.950 . S
C1236 C1237 1.349 . S
C1236 C1238 1.327 . S
C1236 H1261 0.950 . S
C1237 C1236 1.349 . S
C1237 C1253 1.349 . S
C1238 C1236 1.327 . S
C1238 C1257 1.429 . S
C1238 H1262 0.950 . S
C1239 C1256 1.574 . S
C1239 C1258 1.368 . S
C1239 H1263 0.949 . S
H1240 C1244 0.949 . S
C1241 C1242 1.349 . S
C1241 C1243 1.327 . S
C1241 H1264 0.950 . S
C1242 C1241 1.349 . S
C1242 C1254 1.349 . S
C1243 C1241 1.327 . S
C1243 C1259 1.429 . S
C1243 H1265 0.950 . S
C1244 H1240 0.949 . S
C1244 C1252 1.574 . S
C1244 C1260 1.368 . S
H1245 C1253 0.950 1_655 S
H1246 C1251 0.950 . S
H1247 C1252 0.949 . S
H1248 C1254 0.950 . S
H1249 C1255 0.950 . S
H1250 C1256 0.949 . S
C1251 H1246 0.950 . S
C1251 C1253 1.327 . S
C1251 C1257 1.429 . S
C1252 C1244 1.574 . S
C1252 H1247 0.949 . S
C1252 C1258 1.368 . S
C1253 C1237 1.349 . S
C1253 H1245 0.950 1_455 S
C1253 C1251 1.327 . S
C1254 C1242 1.349 . S
C1254 H1248 0.950 . S
C1254 C1255 1.327 . S
C1255 H1249 0.950 . S
C1255 C1254 1.327 . S
C1255 C1259 1.429 . S
C1256 C1239 1.574 . S
C1256 H1250 0.949 . S
C1256 C1260 1.368 . S
C1257 C1238 1.429 . S
C1257 C1251 1.429 . S
C1257 C1258 1.523 . S
C1258 C1239 1.368 . S
C1258 C1252 1.368 . S
C1258 C1257 1.523 . S
C1259 C1243 1.429 . S
C1259 C1255 1.429 . S
C1259 C1260 1.523 . S
C1260 C1244 1.368 . S
C1260 C1256 1.368 . S
C1260 C1259 1.523 . S
H1261 C1236 0.950 . S
H1262 C1238 0.950 . S
H1263 C1239 0.949 . S
H1264 C1241 0.950 . S
H1265 C1243 0.950 . S
C1266 C1267 1.349 . S
C1266 C1268 1.327 . S
C1266 H1291 0.950 . S
C1267 C1266 1.349 . S
C1267 C1283 1.349 . S
C1268 C1266 1.327 . S
C1268 C1287 1.429 . S
C1268 H1292 0.950 . S
C1269 C1286 1.574 . S
C1269 C1288 1.368 . S
C1269 H1293 0.949 . S
H1270 C1274 0.949 . S
C1271 C1272 1.349 . S
C1271 C1273 1.327 . S
C1271 H1294 0.950 1_545 S
C1272 C1271 1.349 . S
C1272 C1284 1.349 . S
C1273 C1271 1.327 . S
C1273 C1289 1.429 . S
C1273 H1295 0.950 . S
C1274 H1270 0.949 . S
C1274 C1282 1.574 . S
C1274 C1290 1.368 . S
H1275 C1283 0.950 . S
H1276 C1281 0.950 . S
H1277 C1282 0.949 . S
H1278 C1284 0.950 . S
H1279 C1285 0.950 . S
H1280 C1286 0.949 . S
C1281 H1276 0.950 . S
C1281 C1283 1.327 . S
C1281 C1287 1.429 . S
C1282 C1274 1.574 . S
C1282 H1277 0.949 . S
C1282 C1288 1.368 . S
C1283 C1267 1.349 . S
C1283 H1275 0.950 . S
C1283 C1281 1.327 . S
C1284 C1272 1.349 . S
C1284 H1278 0.950 . S
C1284 C1285 1.327 . S
C1285 H1279 0.950 . S
C1285 C1284 1.327 . S
C1285 C1289 1.429 . S
C1286 C1269 1.574 . S
C1286 H1280 0.949 . S
C1286 C1290 1.368 . S
C1287 C1268 1.429 . S
C1287 C1281 1.429 . S
C1287 C1288 1.523 . S
C1288 C1269 1.368 . S
C1288 C1282 1.368 . S
C1288 C1287 1.523 . S
C1289 C1273 1.429 . S
C1289 C1285 1.429 . S
C1289 C1290 1.523 . S
C1290 C1274 1.368 . S
C1290 C1286 1.368 . S
C1290 C1289 1.523 . S
H1291 C1266 0.950 . S
H1292 C1268 0.950 . S
H1293 C1269 0.949 . S
H1294 C1271 0.950 1_565 S
H1295 C1273 0.950 . S
C397 N344 0.929 . S
C402 N14 0.929 . S
C427 N47 0.929 . S
C432 N377 0.929 . S
C457 N80 0.929 . S
C462 N212 0.929 . S
C487 N113 0.929 . S
C492 N245 0.929 . S
C517 N146 0.929 . S
C522 N278 0.929 . S
C547 N179 0.929 . S
C552 N311 0.929 . S
C577 C17 1.470 . S
C582 C281 1.470 . S
C607 C314 1.470 . S
C612 C50 1.470 . S
C637 C83 1.470 . S
C642 C347 1.470 . S
C667 C116 1.470 . S
C672 C380 1.470 . S
C697 C149 1.470 . S
C702 C215 1.470 . S
C727 C182 1.470 . S
C732 C248 1.470 . S
C757 N368 1.108 . S
C762 N5 1.108 . S
C787 N203 1.108 . S
C792 N38 1.108 . S
C817 N236 1.108 . S
C822 N71 1.108 . S
C847 N104 1.108 . S
C852 N269 1.108 . S
C877 N137 1.108 . S
C882 N302 1.108 . S
C907 N335 1.108 . S
C912 N170 1.108 . S
C937 C193 2.071 . S
C942 C8 2.079 . S
C967 C28 2.071 1_655 S
C972 C41 2.079 . S
C997 C74 2.079 . S
C1002 C61 2.071 1_565 S
C1027 C94 2.071 . S
C1032 C107 2.079 . S
C1057 C140 2.079 . S
C1062 C127 2.071 1_455 S
C1087 C173 2.079 . S
C1092 C160 2.071 1_545 S
C1117 C259 2.071 . S
C1122 C206 2.079 . S
C1147 C239 2.079 . S
C1152 C292 2.071 1_655 S
C1177 C272 2.079 . S
C1182 C325 2.071 1_565 S
C1207 C358 2.071 . S
C1212 C305 2.079 . S
C1237 C391 2.071 1_455 S
C1242 C338 2.079 . S
C1267 C371 2.079 . S
C1272 C226 2.071 1_545 S
