# Generated by pormake.
# Topology cbo, (4)-cn, num edge types: 1
# Building blocks:
#     Node 0, Type 0, BuildingBlock: NAHDIM_clean_sbu_0, # of connection points: 4
#     Node 1, Type 0, BuildingBlock: NAHDIM_clean_sbu_0, # of connection points: 4
#     Node 2, Type 0, BuildingBlock: NAHDIM_clean_sbu_0, # of connection points: 4
#     Node 3, Type 0, BuildingBlock: NAHDIM_clean_sbu_0, # of connection points: 4
#     Node 4, Type 0, BuildingBlock: NAHDIM_clean_sbu_0, # of connection points: 4
#     Node 5, Type 0, BuildingBlock: NAHDIM_clean_sbu_0, # of connection points: 4
#     Node 6, Type 0, BuildingBlock: NAHDIM_clean_sbu_0, # of connection points: 4
#     Node 7, Type 0, BuildingBlock: NAHDIM_clean_sbu_0, # of connection points: 4
#     Node 8, Type 0, BuildingBlock: NAHDIM_clean_sbu_0, # of connection points: 4
#     Node 9, Type 0, BuildingBlock: NAHDIM_clean_sbu_0, # of connection points: 4
#     Node 10, Type 0, BuildingBlock: NAHDIM_clean_sbu_0, # of connection points: 4
#     Node 11, Type 0, BuildingBlock: NAHDIM_clean_sbu_0, # of connection points: 4
#     Node 12, Type 0, BuildingBlock: NAHDIM_clean_sbu_0, # of connection points: 4
#     Node 13, Type 0, BuildingBlock: NAHDIM_clean_sbu_0, # of connection points: 4
#     Node 14, Type 0, BuildingBlock: NAHDIM_clean_sbu_0, # of connection points: 4
#     Node 15, Type 0, BuildingBlock: NAHDIM_clean_sbu_0, # of connection points: 4
#     Node 16, Type 0, BuildingBlock: NAHDIM_clean_sbu_0, # of connection points: 4
#     Node 17, Type 0, BuildingBlock: NAHDIM_clean_sbu_0, # of connection points: 4
#     Node 18, Type 0, BuildingBlock: NAHDIM_clean_sbu_0, # of connection points: 4
#     Node 19, Type 0, BuildingBlock: NAHDIM_clean_sbu_0, # of connection points: 4
#     Node 20, Type 0, BuildingBlock: NAHDIM_clean_sbu_0, # of connection points: 4
#     Node 21, Type 0, BuildingBlock: NAHDIM_clean_sbu_0, # of connection points: 4
#     Node 22, Type 0, BuildingBlock: NAHDIM_clean_sbu_0, # of connection points: 4
#     Node 23, Type 0, BuildingBlock: NAHDIM_clean_sbu_0, # of connection points: 4
#     Edge 24, Type (0, 0), None
#     Edge 25, Type (0, 0), None
#     Edge 26, Type (0, 0), None
#     Edge 27, Type (0, 0), None
#     Edge 28, Type (0, 0), None
#     Edge 29, Type (0, 0), None
#     Edge 30, Type (0, 0), None
#     Edge 31, Type (0, 0), None
#     Edge 32, Type (0, 0), None
#     Edge 33, Type (0, 0), None
#     Edge 34, Type (0, 0), None
#     Edge 35, Type (0, 0), None
#     Edge 36, Type (0, 0), None
#     Edge 37, Type (0, 0), None
#     Edge 38, Type (0, 0), None
#     Edge 39, Type (0, 0), None
#     Edge 40, Type (0, 0), None
#     Edge 41, Type (0, 0), None
#     Edge 42, Type (0, 0), None
#     Edge 43, Type (0, 0), None
#     Edge 44, Type (0, 0), None
#     Edge 45, Type (0, 0), None
#     Edge 46, Type (0, 0), None
#     Edge 47, Type (0, 0), None
#     Edge 48, Type (0, 0), None
#     Edge 49, Type (0, 0), None
#     Edge 50, Type (0, 0), None
#     Edge 51, Type (0, 0), None
#     Edge 52, Type (0, 0), None
#     Edge 53, Type (0, 0), None
#     Edge 54, Type (0, 0), None
#     Edge 55, Type (0, 0), None
#     Edge 56, Type (0, 0), None
#     Edge 57, Type (0, 0), None
#     Edge 58, Type (0, 0), None
#     Edge 59, Type (0, 0), None
#     Edge 60, Type (0, 0), None
#     Edge 61, Type (0, 0), None
#     Edge 62, Type (0, 0), None
#     Edge 63, Type (0, 0), None
#     Edge 64, Type (0, 0), None
#     Edge 65, Type (0, 0), None
#     Edge 66, Type (0, 0), None
#     Edge 67, Type (0, 0), None
#     Edge 68, Type (0, 0), None
#     Edge 69, Type (0, 0), None
#     Edge 70, Type (0, 0), None
#     Edge 71, Type (0, 0), None
# Relax obj value: 0.269
# Max RMSD: 0.288
# Mean RMSD: 0.266
data_MOF--net-cbo--node1-NAHDIM_clean_sbu_0--edge1-none
_symmetry_space_group_name_H-M    P1
_symmetry_Int_Tables_number       1
_symmetry_cell_setting            triclinic
loop_
_symmetry_equiv_pos_as_xyz
'x, y, z'
_cell_length_a     24.113106
_cell_length_b     22.741142
_cell_length_c     22.756708
_cell_angle_alpha  89.999996
_cell_angle_beta   89.999996
_cell_angle_gamma 90.000001
loop_
_atom_site_label
_atom_site_type_symbol
_atom_site_fract_x
_atom_site_fract_y
_atom_site_fract_z
_atom_type_partial_charge
C0 C 0.9604 0.06859 0.27018 0.0
O1 O -0.00901 0.04059 0.23152 0.0
O2 O 0.06234 0.21504 0.24383 0.0
Zn3 Zn 0.0583 0.14061 0.29072 0.0
O4 O 0.08919 0.15625 0.3712 0.0
C5 C 0.15668 0.07671 0.25811 0.0
O6 O 0.17627 0.09929 0.30699 0.0
O7 O 0.98033 0.11179 0.29851 0.0
C8 C 0.06916 0.19823 0.40128 0.0
O9 O 0.02858 0.23004 0.37959 0.0
C10 C 0.05312 0.21128 0.18903 0.0
O11 O 0.03354 0.1619 0.16743 0.0
O12 O 0.10598 0.08412 0.24513 0.0
C13 C 0.51894 0.90151 0.77018 0.0
O14 O 0.48835 0.9295 0.73152 0.0
O15 O 0.41701 0.75505 0.74383 0.0
Zn16 Zn 0.42105 0.82949 0.79072 0.0
O17 O 0.39015 0.81384 0.8712 0.0
C18 C 0.32266 0.89339 0.75811 0.0
O19 O 0.30308 0.87081 0.80699 0.0
O20 O 0.49901 0.85831 0.79851 0.0
C21 C 0.41018 0.77186 0.90128 0.0
O22 O 0.45076 0.74005 0.87959 0.0
C23 C 0.42622 0.75882 0.68903 0.0
O24 O 0.4458 0.80819 0.66743 0.0
O25 O 0.37336 0.88598 0.74513 0.0
C26 C 0.4604 0.40151 0.73427 0.0
O27 O 0.49099 0.4295 0.77293 0.0
O28 O 0.56234 0.25505 0.76062 0.0
Zn29 Zn 0.5583 0.32949 0.71373 0.0
O30 O 0.58919 0.31384 0.63325 0.0
C31 C 0.65668 0.39339 0.74634 0.0
O32 O 0.67627 0.37081 0.69746 0.0
O33 O 0.48033 0.35831 0.70594 0.0
C34 C 0.56916 0.27186 0.60317 0.0
O35 O 0.52858 0.24005 0.62486 0.0
C36 C 0.55312 0.25882 0.81542 0.0
O37 O 0.53354 0.30819 0.83702 0.0
O38 O 0.60598 0.38598 0.75932 0.0
C39 C 0.01894 0.56859 0.23427 0.0
O40 O 0.98835 0.54059 0.27293 0.0
O41 O 0.91701 0.71504 0.26062 0.0
Zn42 Zn 0.92105 0.64061 0.21373 0.0
O43 O 0.89015 0.65625 0.13325 0.0
C44 C 0.82266 0.57671 0.24634 0.0
O45 O 0.80308 0.59929 0.19746 0.0
O46 O -0.00099 0.61179 0.20594 0.0
C47 C 0.91018 0.69823 0.10317 0.0
O48 O 0.95076 0.73004 0.12486 0.0
C49 C 0.92622 0.71128 0.31542 0.0
O50 O 0.9458 0.6619 0.33702 0.0
O51 O 0.87336 0.58412 0.25932 0.0
C52 C 0.38679 0.0978 0.23779 0.0
O53 O 0.34675 0.09989 0.27682 0.0
O54 O 0.27182 0.13643 0.10576 0.0
Zn55 Zn 0.29983 0.06842 0.15375 0.0
O56 O 0.30553 -0.00376 0.10348 0.0
C57 C 0.19525 0.0581 0.21201 0.0
O58 O 0.17743 0.05265 0.15774 0.0
O59 O 0.37596 0.08613 0.1844 0.0
C60 C 0.28278 0.94723 0.11472 0.0
O61 O 0.2511 0.94161 0.16129 0.0
C62 C 0.27467 0.1874 0.12838 0.0
O63 O 0.29951 0.19419 0.17927 0.0
O64 O 0.24702 0.06075 0.2217 0.0
C65 C 0.09256 0.87229 0.73779 0.0
O66 O 0.13259 0.8702 0.77682 0.0
O67 O 0.20752 0.83366 0.60576 0.0
Zn68 Zn 0.17951 0.90168 0.65375 0.0
O69 O 0.17382 0.97385 0.60348 0.0
C70 C 0.28409 0.91199 0.71201 0.0
O71 O 0.30191 0.91744 0.65774 0.0
O72 O 0.10338 0.88396 0.6844 0.0
C73 C 0.19656 0.02286 0.61472 0.0
O74 O 0.22824 0.02848 0.66129 0.0
C75 C 0.20467 0.78269 0.62838 0.0
O76 O 0.17983 0.7759 0.67927 0.0
O77 O 0.23233 0.90934 0.7217 0.0
C78 C 0.88679 0.37229 0.76666 0.0
O79 O 0.84675 0.3702 0.72764 0.0
O80 O 0.77182 0.33366 0.8987 0.0
Zn81 Zn 0.79983 0.40168 0.8507 0.0
O82 O 0.80553 0.47385 0.90097 0.0
C83 C 0.69525 0.41199 0.79244 0.0
O84 O 0.67743 0.41744 0.84672 0.0
O85 O 0.87596 0.38396 0.82005 0.0
C86 C 0.78278 0.52286 0.88973 0.0
O87 O 0.7511 0.52848 0.84316 0.0
C88 C 0.77467 0.28269 0.87608 0.0
O89 O 0.79951 0.2759 0.82518 0.0
O90 O 0.74702 0.40934 0.78275 0.0
C91 C 0.59256 0.5978 0.26666 0.0
O92 O 0.63259 0.59989 0.22764 0.0
O93 O 0.70752 0.63643 0.3987 0.0
Zn94 Zn 0.67951 0.56842 0.3507 0.0
O95 O 0.67382 0.49624 0.40097 0.0
C96 C 0.78409 0.5581 0.29244 0.0
O97 O 0.80191 0.55265 0.34672 0.0
O98 O 0.60338 0.58613 0.32005 0.0
C99 C 0.69656 0.44723 0.38973 0.0
O100 O 0.72824 0.44161 0.34316 0.0
C101 C 0.70467 0.6874 0.37608 0.0
O102 O 0.67983 0.69419 0.32518 0.0
O103 O 0.73233 0.56075 0.28275 0.0
C104 C 0.14214 0.25434 0.9207 0.0
O105 O 0.18146 0.2157 0.93075 0.0
O106 O 0.20998 0.22607 0.06027 0.0
Zn107 Zn 0.14403 0.27875 0.04735 0.0
O108 O 0.15915 0.36039 0.07652 0.0
C109 C 0.07887 0.25409 0.1495 0.0
O110 O 0.10865 0.29704 0.17166 0.0
O111 O 0.12143 0.2836 0.96285 0.0
C112 C 0.19153 0.39548 0.04997 0.0
O113 O 0.21666 0.37867 1.00162 0.0
C114 C 0.24035 0.23508 0.10499 0.0
O115 O 0.23245 0.28241 0.13692 0.0
O116 O 0.08363 0.24143 0.09536 0.0
C117 C 0.64214 0.21575 0.08375 0.0
O118 O 0.68146 0.25439 0.0737 0.0
O119 O 0.70998 0.24403 0.94418 0.0
Zn120 Zn 0.64403 0.19134 0.9571 0.0
O121 O 0.65915 0.1097 0.92793 0.0
C122 C 0.57887 0.216 0.85495 0.0
O123 O 0.60865 0.17305 0.83279 0.0
O124 O 0.62143 0.18649 0.04161 0.0
C125 C 0.69153 0.07461 0.95448 0.0
O126 O 0.71666 0.09143 0.00283 0.0
C127 C 0.74035 0.23501 0.89946 0.0
O128 O 0.73245 0.18768 0.86753 0.0
O129 O 0.58363 0.22866 0.90909 0.0
C130 C 0.8372 0.75434 0.58375 0.0
O131 O 0.79788 0.7157 0.5737 0.0
O132 O 0.76937 0.72607 0.44418 0.0
Zn133 Zn 0.83531 0.77875 0.4571 0.0
O134 O 0.8202 0.86039 0.42793 0.0
C135 C 0.90048 0.75409 0.35495 0.0
O136 O 0.87069 0.79704 0.33279 0.0
O137 O 0.85791 0.7836 0.54161 0.0
C138 C 0.78781 0.89548 0.45448 0.0
O139 O 0.76268 0.87867 0.50283 0.0
C140 C 0.73899 0.73508 0.39946 0.0
O141 O 0.7469 0.78241 0.36753 0.0
O142 O 0.89571 0.74143 0.40909 0.0
C143 C 0.3372 0.71575 0.4207 0.0
O144 O 0.29788 0.75439 0.43075 0.0
O145 O 0.26937 0.74403 0.56027 0.0
Zn146 Zn 0.33531 0.69134 0.54735 0.0
O147 O 0.3202 0.6097 0.57652 0.0
C148 C 0.40048 0.716 0.6495 0.0
O149 O 0.37069 0.67305 0.67166 0.0
O150 O 0.35791 0.68649 0.46285 0.0
C151 C 0.28781 0.57461 0.54997 0.0
O152 O 0.26268 0.59143 0.50162 0.0
C153 C 0.23899 0.73501 0.60499 0.0
O154 O 0.2469 0.68768 0.63692 0.0
O155 O 0.39571 0.72866 0.59536 0.0
C156 C 0.03549 0.85878 0.75465 0.0
O157 O 0.02397 0.83936 0.80759 0.0
O158 O 0.91279 0.77913 0.79341 0.0
Zn159 Zn 0.91885 0.83863 0.72902 0.0
O160 O 0.89072 0.80776 0.65185 0.0
C161 C 0.82014 0.90784 0.74331 0.0
O162 O 0.80237 0.87496 0.69983 0.0
O163 O -0.00262 0.86332 0.71649 0.0
C164 C 0.85543 0.76709 0.64372 0.0
O165 O 0.83293 0.74006 0.68878 0.0
C166 C 0.92193 0.72425 0.79572 0.0
O167 O 0.9409 0.69627 0.74943 0.0
O168 O 0.87076 0.90492 0.75862 0.0
C169 C 0.44386 0.11131 0.25465 0.0
O170 O 0.45537 0.13073 0.30759 0.0
O171 O 0.56656 0.19096 0.29341 0.0
Zn172 Zn 0.56049 0.13146 0.22902 0.0
O173 O 0.58863 0.16233 0.15185 0.0
C174 C 0.65921 0.06225 0.24331 0.0
O175 O 0.67698 0.09513 0.19983 0.0
O176 O 0.48196 0.10677 0.21649 0.0
C177 C 0.62391 0.203 0.14372 0.0
O178 O 0.64641 0.23004 0.18878 0.0
C179 C 0.55741 0.24584 0.29572 0.0
O180 O 0.53844 0.27382 0.24943 0.0
O181 O 0.60859 0.06517 0.25862 0.0
C182 C 0.53549 0.61131 0.24981 0.0
O183 O 0.52397 0.63073 0.19686 0.0
O184 O 0.41279 0.69096 0.21104 0.0
Zn185 Zn 0.41885 0.63146 0.27543 0.0
O186 O 0.39072 0.66233 0.3526 0.0
C187 C 0.32014 0.56225 0.26115 0.0
O188 O 0.30237 0.59513 0.30462 0.0
O189 O 0.49738 0.60677 0.28796 0.0
C190 C 0.35543 0.703 0.36073 0.0
O191 O 0.33293 0.73004 0.31568 0.0
C192 C 0.42193 0.74584 0.20873 0.0
O193 O 0.4409 0.77382 0.25503 0.0
O194 O 0.37076 0.56517 0.24583 0.0
C195 C 0.94386 0.35878 0.74981 0.0
O196 O 0.95537 0.33936 0.69686 0.0
O197 O 0.06656 0.27913 0.71104 0.0
Zn198 Zn 0.06049 0.33863 0.77543 0.0
O199 O 0.08863 0.30776 0.8526 0.0
C200 C 0.15921 0.40784 0.76115 0.0
O201 O 0.17698 0.37496 0.80462 0.0
O202 O 0.98196 0.36332 0.78796 0.0
C203 C 0.12391 0.26709 0.86073 0.0
O204 O 0.14641 0.24006 0.81568 0.0
C205 C 0.05741 0.22425 0.70874 0.0
O206 O 0.03844 0.19627 0.75503 0.0
O207 O 0.10859 0.40492 0.74583 0.0
C208 C 0.69954 0.01521 0.93135 0.0
O209 O 0.73092 0.97721 0.95929 0.0
O210 O 0.72895 0.91849 0.7786 0.0
Zn211 Zn 0.67841 0.91989 0.84861 0.0
O212 O 0.60234 0.89578 0.82373 0.0
C213 C 0.68212 0.81315 0.92003 0.0
O214 O 0.62961 0.80759 0.90586 0.0
O215 O 0.67475 0.00021 0.88448 0.0
C216 C 0.57529 0.92123 0.78325 0.0
O217 O 0.59713 0.96604 0.75517 0.0
C218 C 0.77966 0.93237 0.78458 0.0
O219 O 0.79672 0.95442 0.83477 0.0
O220 O 0.70889 0.85862 0.90399 0.0
C221 C 0.7798 0.95489 0.43135 0.0
O222 O 0.74843 -0.00712 0.45929 0.0
O223 O 0.75039 0.0516 0.2786 0.0
Zn224 Zn 0.80093 0.0502 0.34861 0.0
O225 O 0.877 0.07432 0.32373 0.0
C226 C 0.79723 0.15694 0.42003 0.0
O227 O 0.84973 0.1625 0.40586 0.0
O228 O 0.80459 0.96988 0.38448 0.0
C229 C 0.90405 0.04886 0.28325 0.0
O230 O 0.88221 0.00405 0.25517 0.0
C231 C 0.69968 0.03772 0.28458 0.0
O232 O 0.68262 0.01567 0.33477 0.0
O233 O 0.77046 0.11147 0.40399 0.0
C234 C 0.19954 0.45489 0.0731 0.0
O235 O 0.23092 0.49288 0.04516 0.0
O236 O 0.22895 0.5516 0.22585 0.0
Zn237 Zn 0.17841 0.5502 0.15584 0.0
O238 O 0.10234 0.57432 0.18072 0.0
C239 C 0.18212 0.65694 0.08442 0.0
O240 O 0.12961 0.6625 0.09859 0.0
O241 O 0.17475 0.46988 0.11997 0.0
C242 C 0.07529 0.54886 0.2212 0.0
O243 O 0.09713 0.50405 0.24928 0.0
C244 C 0.27966 0.53772 0.21987 0.0
O245 O 0.29672 0.51567 0.16968 0.0
O246 O 0.20889 0.61147 0.10046 0.0
C247 C 0.2798 0.51521 0.5731 0.0
O248 O 0.24843 0.47721 0.54516 0.0
O249 O 0.25039 0.41849 0.72585 0.0
Zn250 Zn 0.30093 0.41989 0.65584 0.0
O251 O 0.377 0.39578 0.68072 0.0
C252 C 0.29723 0.31315 0.58442 0.0
O253 O 0.34973 0.30759 0.59859 0.0
O254 O 0.30459 0.50021 0.61997 0.0
C255 C 0.40405 0.42123 0.7212 0.0
O256 O 0.38221 0.46604 0.74928 0.0
C257 C 0.19968 0.43237 0.71987 0.0
O258 O 0.18262 0.45442 0.66968 0.0
O259 O 0.27046 0.35862 0.60046 0.0
C260 C 0.88813 0.71113 0.04463 0.0
O261 O 0.90928 0.75403 0.01318 0.0
O262 O 0.7656 0.76523 0.94361 0.0
Zn263 Zn 0.8179 0.69659 0.94345 0.0
O264 O 0.78146 0.6251 0.90898 0.0
C265 C 0.89884 0.69213 0.84583 0.0
O266 O 0.88907 0.6355 0.8418 0.0
O267 O 0.84846 0.68075 0.02409 0.0
C268 C 0.79885 0.57462 0.92384 0.0
O269 O 0.83746 0.57004 0.96427 0.0
C270 C 0.71313 0.76191 0.94119 0.0
O271 O 0.6888 0.71038 0.94475 0.0
O272 O 0.87696 0.7221 0.88691 0.0
C273 C 0.38813 0.75896 0.95982 0.0
O274 O 0.40928 0.71606 0.99127 0.0
O275 O 0.2656 0.70487 0.06084 0.0
Zn276 Zn 0.3179 0.7735 0.06101 0.0
O277 O 0.28146 0.84499 0.09547 0.0
C278 C 0.39884 0.77796 0.15862 0.0
O279 O 0.38907 0.8346 0.16265 0.0
O280 O 0.34846 0.78934 0.98037 0.0
C281 C 0.29885 0.89547 0.08061 0.0
O282 O 0.33746 0.90005 0.04018 0.0
C283 C 0.21313 0.70818 0.06326 0.0
O284 O 0.1888 0.75971 0.0597 0.0
O285 O 0.37696 0.74799 0.11754 0.0
C286 C 0.09121 0.21113 0.45982 0.0
O287 O 0.07007 0.25403 0.49127 0.0
O288 O 0.21374 0.26523 0.56084 0.0
Zn289 Zn 0.16144 0.19659 0.56101 0.0
O290 O 0.19789 0.1251 0.59547 0.0
C291 C 0.0805 0.19213 0.65862 0.0
O292 O 0.09027 0.1355 0.66265 0.0
O293 O 0.13088 0.18075 0.48037 0.0
C294 C 0.18049 0.07462 0.58061 0.0
O295 O 0.14188 0.07004 0.54018 0.0
C296 C 0.26621 0.26191 0.56326 0.0
O297 O 0.29055 0.21038 0.5597 0.0
O298 O 0.10238 0.2221 0.61754 0.0
C299 C 0.59121 0.25896 0.54463 0.0
O300 O 0.57007 0.21606 0.51318 0.0
O301 O 0.71374 0.20487 0.44361 0.0
Zn302 Zn 0.66144 0.2735 0.44345 0.0
O303 O 0.69789 0.34499 0.40898 0.0
C304 C 0.5805 0.27796 0.34583 0.0
O305 O 0.59027 0.3346 0.3418 0.0
O306 O 0.63088 0.28934 0.52409 0.0
C307 C 0.68049 0.39547 0.42384 0.0
O308 O 0.64188 0.40005 0.46427 0.0
C309 C 0.76621 0.20818 0.44119 0.0
O310 O 0.79055 0.25971 0.44475 0.0
O311 O 0.60238 0.24799 0.38691 0.0
loop_
_geom_bond_atom_site_label_1
_geom_bond_atom_site_label_2
_geom_bond_distance
_geom_bond_site_symmetry_2
_ccdc_geom_bond_type
C0 O1 1.160 . S
C0 O7 1.185 1_655 S
O1 C0 1.160 . S
O2 Zn3 1.899 . S
O2 C10 1.284 . S
Zn3 O2 1.899 . S
Zn3 O4 2.032 . S
Zn3 O7 2.086 . S
Zn3 O12 1.977 . S
O4 Zn3 2.032 . S
O4 C8 1.278 . S
C5 O6 1.203 . S
C5 O12 1.267 . S
O6 C5 1.203 . S
O7 C0 1.185 1_455 S
O7 Zn3 2.086 . S
C8 O4 1.278 . S
C8 O9 1.211 . S
O9 C8 1.211 . S
C10 O2 1.284 . S
C10 O11 1.273 . S
O11 C10 1.273 . S
O12 Zn3 1.977 . S
O12 C5 1.267 . S
C13 O14 1.160 . S
C13 O20 1.185 . S
O14 C13 1.160 . S
O15 Zn16 1.899 . S
O15 C23 1.284 . S
Zn16 O15 1.899 . S
Zn16 O17 2.032 . S
Zn16 O20 2.086 . S
Zn16 O25 1.977 . S
O17 Zn16 2.032 . S
O17 C21 1.278 . S
C18 O19 1.203 . S
C18 O25 1.267 . S
O19 C18 1.203 . S
O20 C13 1.185 . S
O20 Zn16 2.086 . S
C21 O17 1.278 . S
C21 O22 1.211 . S
O22 C21 1.211 . S
C23 O15 1.284 . S
C23 O24 1.273 . S
O24 C23 1.273 . S
O25 Zn16 1.977 . S
O25 C18 1.267 . S
C26 O27 1.160 . S
C26 O33 1.185 . S
O27 C26 1.160 . S
O28 Zn29 1.899 . S
O28 C36 1.284 . S
Zn29 O28 1.899 . S
Zn29 O30 2.032 . S
Zn29 O33 2.086 . S
Zn29 O38 1.977 . S
O30 Zn29 2.032 . S
O30 C34 1.278 . S
C31 O32 1.203 . S
C31 O38 1.267 . S
O32 C31 1.203 . S
O33 C26 1.185 . S
O33 Zn29 2.086 . S
C34 O30 1.278 . S
C34 O35 1.211 . S
O35 C34 1.211 . S
C36 O28 1.284 . S
C36 O37 1.273 . S
O37 C36 1.273 . S
O38 Zn29 1.977 . S
O38 C31 1.267 . S
C39 O40 1.160 . S
C39 O46 1.185 1_455 S
O40 C39 1.160 . S
O41 Zn42 1.899 . S
O41 C49 1.284 . S
Zn42 O41 1.899 . S
Zn42 O43 2.032 . S
Zn42 O46 2.086 . S
Zn42 O51 1.977 . S
O43 Zn42 2.032 . S
O43 C47 1.278 . S
C44 O45 1.203 . S
C44 O51 1.267 . S
O45 C44 1.203 . S
O46 C39 1.185 1_655 S
O46 Zn42 2.086 . S
C47 O43 1.278 . S
C47 O48 1.211 . S
O48 C47 1.211 . S
C49 O41 1.284 . S
C49 O50 1.273 . S
O50 C49 1.273 . S
O51 Zn42 1.977 . S
O51 C44 1.267 . S
C52 O53 1.160 . S
C52 O59 1.185 . S
O53 C52 1.160 . S
O54 Zn55 1.899 . S
O54 C62 1.284 . S
Zn55 O54 1.899 . S
Zn55 O56 2.032 . S
Zn55 O59 2.086 . S
Zn55 O64 1.977 . S
O56 Zn55 2.032 . S
O56 C60 1.278 1_545 S
C57 O58 1.203 . S
C57 O64 1.267 . S
O58 C57 1.203 . S
O59 C52 1.185 . S
O59 Zn55 2.086 . S
C60 O56 1.278 1_565 S
C60 O61 1.211 . S
O61 C60 1.211 . S
C62 O54 1.284 . S
C62 O63 1.273 . S
O63 C62 1.273 . S
O64 Zn55 1.977 . S
O64 C57 1.267 . S
C65 O66 1.160 . S
C65 O72 1.185 . S
O66 C65 1.160 . S
O67 Zn68 1.899 . S
O67 C75 1.284 . S
Zn68 O67 1.899 . S
Zn68 O69 2.032 . S
Zn68 O72 2.086 . S
Zn68 O77 1.977 . S
O69 Zn68 2.032 . S
O69 C73 1.278 1_565 S
C70 O71 1.203 . S
C70 O77 1.267 . S
O71 C70 1.203 . S
O72 C65 1.185 . S
O72 Zn68 2.086 . S
C73 O69 1.278 1_545 S
C73 O74 1.211 . S
O74 C73 1.211 . S
C75 O67 1.284 . S
C75 O76 1.273 . S
O76 C75 1.273 . S
O77 Zn68 1.977 . S
O77 C70 1.267 . S
C78 O79 1.160 . S
C78 O85 1.185 . S
O79 C78 1.160 . S
O80 Zn81 1.899 . S
O80 C88 1.284 . S
Zn81 O80 1.899 . S
Zn81 O82 2.032 . S
Zn81 O85 2.086 . S
Zn81 O90 1.977 . S
O82 Zn81 2.032 . S
O82 C86 1.278 . S
C83 O84 1.203 . S
C83 O90 1.267 . S
O84 C83 1.203 . S
O85 C78 1.185 . S
O85 Zn81 2.086 . S
C86 O82 1.278 . S
C86 O87 1.211 . S
O87 C86 1.211 . S
C88 O80 1.284 . S
C88 O89 1.273 . S
O89 C88 1.273 . S
O90 Zn81 1.977 . S
O90 C83 1.267 . S
C91 O92 1.160 . S
C91 O98 1.185 . S
O92 C91 1.160 . S
O93 Zn94 1.899 . S
O93 C101 1.284 . S
Zn94 O93 1.899 . S
Zn94 O95 2.032 . S
Zn94 O98 2.086 . S
Zn94 O103 1.977 . S
O95 Zn94 2.032 . S
O95 C99 1.278 . S
C96 O97 1.203 . S
C96 O103 1.267 . S
O97 C96 1.203 . S
O98 C91 1.185 . S
O98 Zn94 2.086 . S
C99 O95 1.278 . S
C99 O100 1.211 . S
O100 C99 1.211 . S
C101 O93 1.284 . S
C101 O102 1.273 . S
O102 C101 1.273 . S
O103 Zn94 1.977 . S
O103 C96 1.267 . S
C104 O105 1.160 . S
C104 O111 1.185 1_556 S
O105 C104 1.160 . S
O106 Zn107 1.899 . S
O106 C114 1.284 . S
Zn107 O106 1.899 . S
Zn107 O108 2.032 . S
Zn107 O111 2.086 . S
Zn107 O116 1.977 . S
O108 Zn107 2.032 . S
O108 C112 1.278 . S
C109 O110 1.203 . S
C109 O116 1.267 . S
O110 C109 1.203 . S
O111 C104 1.185 1_554 S
O111 Zn107 2.086 . S
C112 O108 1.278 . S
C112 O113 1.211 . S
O113 C112 1.211 . S
C114 O106 1.284 . S
C114 O115 1.273 . S
O115 C114 1.273 . S
O116 Zn107 1.977 . S
O116 C109 1.267 . S
C117 O118 1.160 . S
C117 O124 1.185 1_554 S
O118 C117 1.160 . S
O119 Zn120 1.899 . S
O119 C127 1.284 . S
Zn120 O119 1.899 . S
Zn120 O121 2.032 . S
Zn120 O124 2.086 . S
Zn120 O129 1.977 . S
O121 Zn120 2.032 . S
O121 C125 1.278 . S
C122 O123 1.203 . S
C122 O129 1.267 . S
O123 C122 1.203 . S
O124 C117 1.185 1_556 S
O124 Zn120 2.086 . S
C125 O121 1.278 . S
C125 O126 1.211 . S
O126 C125 1.211 . S
C127 O119 1.284 . S
C127 O128 1.273 . S
O128 C127 1.273 . S
O129 Zn120 1.977 . S
O129 C122 1.267 . S
C130 O131 1.160 . S
C130 O137 1.185 . S
O131 C130 1.160 . S
O132 Zn133 1.899 . S
O132 C140 1.284 . S
Zn133 O132 1.899 . S
Zn133 O134 2.032 . S
Zn133 O137 2.086 . S
Zn133 O142 1.977 . S
O134 Zn133 2.032 . S
O134 C138 1.278 . S
C135 O136 1.203 . S
C135 O142 1.267 . S
O136 C135 1.203 . S
O137 C130 1.185 . S
O137 Zn133 2.086 . S
C138 O134 1.278 . S
C138 O139 1.211 . S
O139 C138 1.211 . S
C140 O132 1.284 . S
C140 O141 1.273 . S
O141 C140 1.273 . S
O142 Zn133 1.977 . S
O142 C135 1.267 . S
C143 O144 1.160 . S
C143 O150 1.185 . S
O144 C143 1.160 . S
O145 Zn146 1.899 . S
O145 C153 1.284 . S
Zn146 O145 1.899 . S
Zn146 O147 2.032 . S
Zn146 O150 2.086 . S
Zn146 O155 1.977 . S
O147 Zn146 2.032 . S
O147 C151 1.278 . S
C148 O149 1.203 . S
C148 O155 1.267 . S
O149 C148 1.203 . S
O150 C143 1.185 . S
O150 Zn146 2.086 . S
C151 O147 1.278 . S
C151 O152 1.211 . S
O152 C151 1.211 . S
C153 O145 1.284 . S
C153 O154 1.273 . S
O154 C153 1.273 . S
O155 Zn146 1.977 . S
O155 C148 1.267 . S
C156 O157 1.160 . S
C156 O163 1.185 1_455 S
O157 C156 1.160 . S
O158 Zn159 1.899 . S
O158 C166 1.284 . S
Zn159 O158 1.899 . S
Zn159 O160 2.032 . S
Zn159 O163 2.086 . S
Zn159 O168 1.977 . S
O160 Zn159 2.032 . S
O160 C164 1.278 . S
C161 O162 1.203 . S
C161 O168 1.267 . S
O162 C161 1.203 . S
O163 C156 1.185 1_655 S
O163 Zn159 2.086 . S
C164 O160 1.278 . S
C164 O165 1.211 . S
O165 C164 1.211 . S
C166 O158 1.284 . S
C166 O167 1.273 . S
O167 C166 1.273 . S
O168 Zn159 1.977 . S
O168 C161 1.267 . S
C169 O170 1.160 . S
C169 O176 1.185 . S
O170 C169 1.160 . S
O171 Zn172 1.899 . S
O171 C179 1.284 . S
Zn172 O171 1.899 . S
Zn172 O173 2.032 . S
Zn172 O176 2.086 . S
Zn172 O181 1.977 . S
O173 Zn172 2.032 . S
O173 C177 1.278 . S
C174 O175 1.203 . S
C174 O181 1.267 . S
O175 C174 1.203 . S
O176 C169 1.185 . S
O176 Zn172 2.086 . S
C177 O173 1.278 . S
C177 O178 1.211 . S
O178 C177 1.211 . S
C179 O171 1.284 . S
C179 O180 1.273 . S
O180 C179 1.273 . S
O181 Zn172 1.977 . S
O181 C174 1.267 . S
C182 O183 1.160 . S
C182 O189 1.185 . S
O183 C182 1.160 . S
O184 Zn185 1.899 . S
O184 C192 1.284 . S
Zn185 O184 1.899 . S
Zn185 O186 2.032 . S
Zn185 O189 2.086 . S
Zn185 O194 1.977 . S
O186 Zn185 2.032 . S
O186 C190 1.278 . S
C187 O188 1.203 . S
C187 O194 1.267 . S
O188 C187 1.203 . S
O189 C182 1.185 . S
O189 Zn185 2.086 . S
C190 O186 1.278 . S
C190 O191 1.211 . S
O191 C190 1.211 . S
C192 O184 1.284 . S
C192 O193 1.273 . S
O193 C192 1.273 . S
O194 Zn185 1.977 . S
O194 C187 1.267 . S
C195 O196 1.160 . S
C195 O202 1.185 1_655 S
O196 C195 1.160 . S
O197 Zn198 1.899 . S
O197 C205 1.284 . S
Zn198 O197 1.899 . S
Zn198 O199 2.032 . S
Zn198 O202 2.086 . S
Zn198 O207 1.977 . S
O199 Zn198 2.032 . S
O199 C203 1.278 . S
C200 O201 1.203 . S
C200 O207 1.267 . S
O201 C200 1.203 . S
O202 C195 1.185 1_455 S
O202 Zn198 2.086 . S
C203 O199 1.278 . S
C203 O204 1.211 . S
O204 C203 1.211 . S
C205 O197 1.284 . S
C205 O206 1.273 . S
O206 C205 1.273 . S
O207 Zn198 1.977 . S
O207 C200 1.267 . S
C208 O209 1.160 . S
C208 O215 1.185 1_545 S
O209 C208 1.160 . S
O210 Zn211 1.899 . S
O210 C218 1.284 . S
Zn211 O210 1.899 . S
Zn211 O212 2.032 . S
Zn211 O215 2.086 . S
Zn211 O220 1.977 . S
O212 Zn211 2.032 . S
O212 C216 1.278 . S
C213 O214 1.203 . S
C213 O220 1.267 . S
O214 C213 1.203 . S
O215 C208 1.185 1_565 S
O215 Zn211 2.086 . S
C216 O212 1.278 . S
C216 O217 1.211 . S
O217 C216 1.211 . S
C218 O210 1.284 . S
C218 O219 1.273 . S
O219 C218 1.273 . S
O220 Zn211 1.977 . S
O220 C213 1.267 . S
C221 O222 1.160 . S
C221 O228 1.185 1_565 S
O222 C221 1.160 . S
O223 Zn224 1.899 . S
O223 C231 1.284 . S
Zn224 O223 1.899 . S
Zn224 O225 2.032 . S
Zn224 O228 2.086 . S
Zn224 O233 1.977 . S
O225 Zn224 2.032 . S
O225 C229 1.278 . S
C226 O227 1.203 . S
C226 O233 1.267 . S
O227 C226 1.203 . S
O228 C221 1.185 1_545 S
O228 Zn224 2.086 . S
C229 O225 1.278 . S
C229 O230 1.211 . S
O230 C229 1.211 . S
C231 O223 1.284 . S
C231 O232 1.273 . S
O232 C231 1.273 . S
O233 Zn224 1.977 . S
O233 C226 1.267 . S
C234 O235 1.160 . S
C234 O241 1.185 . S
O235 C234 1.160 . S
O236 Zn237 1.899 . S
O236 C244 1.284 . S
Zn237 O236 1.899 . S
Zn237 O238 2.032 . S
Zn237 O241 2.086 . S
Zn237 O246 1.977 . S
O238 Zn237 2.032 . S
O238 C242 1.278 . S
C239 O240 1.203 . S
C239 O246 1.267 . S
O240 C239 1.203 . S
O241 C234 1.185 . S
O241 Zn237 2.086 . S
C242 O238 1.278 . S
C242 O243 1.211 . S
O243 C242 1.211 . S
C244 O236 1.284 . S
C244 O245 1.273 . S
O245 C244 1.273 . S
O246 Zn237 1.977 . S
O246 C239 1.267 . S
C247 O248 1.160 . S
C247 O254 1.185 . S
O248 C247 1.160 . S
O249 Zn250 1.899 . S
O249 C257 1.284 . S
Zn250 O249 1.899 . S
Zn250 O251 2.032 . S
Zn250 O254 2.086 . S
Zn250 O259 1.977 . S
O251 Zn250 2.032 . S
O251 C255 1.278 . S
C252 O253 1.203 . S
C252 O259 1.267 . S
O253 C252 1.203 . S
O254 C247 1.185 . S
O254 Zn250 2.086 . S
C255 O251 1.278 . S
C255 O256 1.211 . S
O256 C255 1.211 . S
C257 O249 1.284 . S
C257 O258 1.273 . S
O258 C257 1.273 . S
O259 Zn250 1.977 . S
O259 C252 1.267 . S
C260 O261 1.160 . S
C260 O267 1.185 1_554 S
O261 C260 1.160 . S
O262 Zn263 1.899 . S
O262 C270 1.284 . S
Zn263 O262 1.899 . S
Zn263 O264 2.032 . S
Zn263 O267 2.086 . S
Zn263 O272 1.977 . S
O264 Zn263 2.032 . S
O264 C268 1.278 . S
C265 O266 1.203 . S
C265 O272 1.267 . S
O266 C265 1.203 . S
O267 C260 1.185 1_556 S
O267 Zn263 2.086 . S
C268 O264 1.278 . S
C268 O269 1.211 . S
O269 C268 1.211 . S
C270 O262 1.284 . S
C270 O271 1.273 . S
O271 C270 1.273 . S
O272 Zn263 1.977 . S
O272 C265 1.267 . S
C273 O274 1.160 . S
C273 O280 1.185 1_556 S
O274 C273 1.160 . S
O275 Zn276 1.899 . S
O275 C283 1.284 . S
Zn276 O275 1.899 . S
Zn276 O277 2.032 . S
Zn276 O280 2.086 . S
Zn276 O285 1.977 . S
O277 Zn276 2.032 . S
O277 C281 1.278 . S
C278 O279 1.203 . S
C278 O285 1.267 . S
O279 C278 1.203 . S
O280 C273 1.185 1_554 S
O280 Zn276 2.086 . S
C281 O277 1.278 . S
C281 O282 1.211 . S
O282 C281 1.211 . S
C283 O275 1.284 . S
C283 O284 1.273 . S
O284 C283 1.273 . S
O285 Zn276 1.977 . S
O285 C278 1.267 . S
C286 O287 1.160 . S
C286 O293 1.185 . S
O287 C286 1.160 . S
O288 Zn289 1.899 . S
O288 C296 1.284 . S
Zn289 O288 1.899 . S
Zn289 O290 2.032 . S
Zn289 O293 2.086 . S
Zn289 O298 1.977 . S
O290 Zn289 2.032 . S
O290 C294 1.278 . S
C291 O292 1.203 . S
C291 O298 1.267 . S
O292 C291 1.203 . S
O293 C286 1.185 . S
O293 Zn289 2.086 . S
C294 O290 1.278 . S
C294 O295 1.211 . S
O295 C294 1.211 . S
C296 O288 1.284 . S
C296 O297 1.273 . S
O297 C296 1.273 . S
O298 Zn289 1.977 . S
O298 C291 1.267 . S
C299 O300 1.160 . S
C299 O306 1.185 . S
O300 C299 1.160 . S
O301 Zn302 1.899 . S
O301 C309 1.284 . S
Zn302 O301 1.899 . S
Zn302 O303 2.032 . S
Zn302 O306 2.086 . S
Zn302 O311 1.977 . S
O303 Zn302 2.032 . S
O303 C307 1.278 . S
C304 O305 1.203 . S
C304 O311 1.267 . S
O305 C304 1.203 . S
O306 C299 1.185 . S
O306 Zn302 2.086 . S
C307 O303 1.278 . S
C307 O308 1.211 . S
O308 C307 1.211 . S
C309 O301 1.284 . S
C309 O310 1.273 . S
O310 C309 1.273 . S
O311 Zn302 1.977 . S
O311 C304 1.267 . S
C109 C10 1.564 . S
C23 C148 1.564 . S
C36 C122 1.564 . S
C49 C135 1.564 . S
C57 C5 1.024 . S
C18 C70 1.024 . S
C83 C31 1.024 . S
C44 C96 1.024 . S
C62 C114 1.740 . S
C88 C127 1.740 . S
C140 C101 1.740 . S
C75 C153 1.740 . S
C265 C166 1.381 . S
C179 C304 1.381 . S
C192 C278 1.381 . S
C291 C205 1.381 . S
C218 C161 1.374 . S
C174 C231 1.374 . S
C187 C244 1.374 . S
C257 C200 1.374 . S
C270 C213 1.500 . S
C239 C283 1.500 . S
C252 C296 1.500 . S
C309 C226 1.500 . S
C286 C8 1.280 . S
C273 C21 1.280 . S
C299 C34 1.280 . S
C47 C260 1.280 . S
C52 C169 1.219 . S
C156 C65 1.219 . S
C195 C78 1.219 . S
C182 C91 1.219 . S
C112 C234 1.202 . S
C208 C125 1.202 . S
C221 C138 1.202 . S
C247 C151 1.202 . S
C130 C164 1.166 . S
C117 C177 1.166 . S
C190 C143 1.166 . S
C104 C203 1.166 . S
C216 C13 1.225 . S
C229 C0 1.225 . S
C242 C39 1.225 . S
C255 C26 1.225 . S
C268 C86 1.204 . S
C281 C60 1.204 . S
C73 C294 1.204 . S
C307 C99 1.204 . S
