# Generated by pormake.
# Topology rac, (4)-cn, num edge types: 1
# Building blocks:
#     Node 0, Type 0, BuildingBlock: NAHDIM_clean_sbu_0, # of connection points: 4
#     Node 1, Type 0, BuildingBlock: NAHDIM_clean_sbu_0, # of connection points: 4
#     Node 2, Type 0, BuildingBlock: NAHDIM_clean_sbu_0, # of connection points: 4
#     Node 3, Type 0, BuildingBlock: NAHDIM_clean_sbu_0, # of connection points: 4
#     Node 4, Type 0, BuildingBlock: NAHDIM_clean_sbu_0, # of connection points: 4
#     Node 5, Type 0, BuildingBlock: NAHDIM_clean_sbu_0, # of connection points: 4
#     Node 6, Type 0, BuildingBlock: NAHDIM_clean_sbu_0, # of connection points: 4
#     Node 7, Type 0, BuildingBlock: NAHDIM_clean_sbu_0, # of connection points: 4
#     Edge 8, Type (0, 0), BuildingBlock: FUNLAD_clean_linker_1, # of connection points: 2
#     Edge 9, Type (0, 0), BuildingBlock: FUNLAD_clean_linker_1, # of connection points: 2
#     Edge 10, Type (0, 0), BuildingBlock: FUNLAD_clean_linker_1, # of connection points: 2
#     Edge 11, Type (0, 0), BuildingBlock: FUNLAD_clean_linker_1, # of connection points: 2
#     Edge 12, Type (0, 0), BuildingBlock: FUNLAD_clean_linker_1, # of connection points: 2
#     Edge 13, Type (0, 0), BuildingBlock: FUNLAD_clean_linker_1, # of connection points: 2
#     Edge 14, Type (0, 0), BuildingBlock: FUNLAD_clean_linker_1, # of connection points: 2
#     Edge 15, Type (0, 0), BuildingBlock: FUNLAD_clean_linker_1, # of connection points: 2
#     Edge 16, Type (0, 0), BuildingBlock: FUNLAD_clean_linker_1, # of connection points: 2
#     Edge 17, Type (0, 0), BuildingBlock: FUNLAD_clean_linker_1, # of connection points: 2
#     Edge 18, Type (0, 0), BuildingBlock: FUNLAD_clean_linker_1, # of connection points: 2
#     Edge 19, Type (0, 0), BuildingBlock: FUNLAD_clean_linker_1, # of connection points: 2
#     Edge 20, Type (0, 0), BuildingBlock: FUNLAD_clean_linker_1, # of connection points: 2
#     Edge 21, Type (0, 0), BuildingBlock: FUNLAD_clean_linker_1, # of connection points: 2
#     Edge 22, Type (0, 0), BuildingBlock: FUNLAD_clean_linker_1, # of connection points: 2
#     Edge 23, Type (0, 0), BuildingBlock: FUNLAD_clean_linker_1, # of connection points: 2
# Relax obj value: 0.227
# Max RMSD: 0.117
# Mean RMSD: 0.117
data_MOF--net-rac--node1-NAHDIM_clean_sbu_0--edge1-FUNLAD_clean_linker_1
_symmetry_space_group_name_H-M    P1
_symmetry_Int_Tables_number       1
_symmetry_cell_setting            triclinic
loop_
_symmetry_equiv_pos_as_xyz
'x, y, z'
_cell_length_a     41.372929
_cell_length_b     21.636382
_cell_length_c     43.430205
_cell_angle_alpha  89.990193
_cell_angle_beta   90.016649
_cell_angle_gamma 89.965345
loop_
_atom_site_label
_atom_site_type_symbol
_atom_site_fract_x
_atom_site_fract_y
_atom_site_fract_z
_atom_type_partial_charge
C0 C 0.44292 0.32879 0.04258 0.0
O1 O 0.43037 0.35285 0.06766 0.0
O2 O 0.41189 0.23184 0.10404 0.0
Zn3 Zn 0.39673 0.24316 0.0599 0.0
O4 O 0.3635 0.31095 0.05887 0.0
C5 C 0.36619 0.12187 0.05938 0.0
O6 O 0.37847 0.11716 0.08718 0.0
O7 O 0.43328 0.27585 0.03374 0.0
C8 C 0.33336 0.30027 0.05987 0.0
O9 O 0.32282 0.24328 0.06258 0.0
C10 C 0.39227 0.24257 0.12591 0.0
O11 O 0.36225 0.25735 0.11947 0.0
O12 O 0.3737 0.16798 0.04273 0.0
C13 C 0.06954 0.66938 0.06497 0.0
O14 O 0.07682 0.65171 0.09309 0.0
O15 O 0.10761 0.77002 0.12252 0.0
Zn16 Zn 0.12162 0.74291 0.08031 0.0
O17 O 0.14685 0.6658 0.08746 0.0
C18 C 0.15681 0.85882 0.06603 0.0
O19 O 0.13531 0.8872 0.08322 0.0
O20 O 0.08458 0.71508 0.05339 0.0
C21 C 0.16102 0.64201 0.06449 0.0
O22 O 0.15878 0.66875 0.0374 0.0
C23 C 0.1306 0.78105 0.14114 0.0
O24 O 0.16046 0.78049 0.13094 0.0
O25 O 0.15387 0.80137 0.06078 0.0
C26 C 0.44134 0.18107 0.43013 0.0
O27 O 0.44327 0.18855 0.4002 0.0
O28 O 0.39296 0.2661 0.37726 0.0
Zn29 Zn 0.37963 0.23546 0.41934 0.0
O30 O 0.35364 0.15919 0.41157 0.0
C31 C 0.34729 0.35247 0.43789 0.0
O32 O 0.36908 0.38124 0.42121 0.0
O33 O 0.41722 0.20337 0.44455 0.0
C34 C 0.3232 0.16047 0.40825 0.0
O35 O 0.30775 0.21349 0.40909 0.0
C36 C 0.37174 0.28961 0.35961 0.0
O37 O 0.34246 0.29934 0.3701 0.0
O38 O 0.34923 0.29432 0.44148 0.0
C39 C 0.05131 0.81045 0.45255 0.0
O40 O 0.05851 0.82816 0.42442 0.0
O41 O 0.08398 0.70968 0.39382 0.0
Zn42 Zn 0.10119 0.73166 0.43604 0.0
O43 O 0.1291 0.80625 0.42929 0.0
C44 C 0.13692 0.61463 0.44224 0.0
O45 O 0.12048 0.59715 0.41787 0.0
O46 O 0.06564 0.76347 0.46374 0.0
C47 C 0.1597 0.80405 0.42796 0.0
O48 O 0.17477 0.75103 0.43135 0.0
C49 C 0.10463 0.70824 0.37219 0.0
O50 O 0.13546 0.71318 0.37895 0.0
O51 O 0.13051 0.66625 0.45481 0.0
C52 C 0.58035 0.68135 0.94256 0.0
O53 O 0.5961 0.65536 0.91969 0.0
O54 O 0.61982 0.76382 0.88205 0.0
Zn55 Zn 0.62762 0.76592 0.92791 0.0
O56 O 0.6616 0.70249 0.9368 0.0
C57 C 0.64338 0.89708 0.92463 0.0
O58 O 0.6237 0.89713 0.90093 0.0
O59 O 0.58828 0.73565 0.95089 0.0
C60 C 0.69102 0.71533 0.94207 0.0
O61 O 0.7008 0.77294 0.94146 0.0
C62 C 0.64421 0.76993 0.86454 0.0
O63 O 0.67275 0.78008 0.87671 0.0
O64 O 0.64611 0.84853 0.94092 0.0
C65 C 0.93136 0.30272 0.98291 0.0
O66 O 0.90906 0.27395 0.99889 0.0
O67 O 0.89908 0.27982 0.8846 0.0
Zn68 Zn 0.89061 0.27397 0.93021 0.0
O69 O 0.85589 0.33525 0.93968 0.0
C70 C 0.84539 0.181 0.92664 0.0
O71 O 0.83591 0.2219 0.90614 0.0
O72 O 0.92969 0.3031 0.9537 0.0
C73 C 0.83643 0.33027 0.96216 0.0
O74 O 0.83864 0.28299 0.98097 0.0
C75 C 0.89727 0.33279 0.87199 0.0
O76 O 0.8914 0.38155 0.88907 0.0
O77 O 0.87176 0.19034 0.94101 0.0
C78 C 0.54653 0.82389 0.55563 0.0
O79 O 0.54358 0.81295 0.58521 0.0
O80 O 0.5938 0.74031 0.60865 0.0
Zn81 Zn 0.60689 0.76001 0.56463 0.0
O82 O 0.64118 0.82556 0.56635 0.0
C83 C 0.63391 0.63658 0.55679 0.0
O84 O 0.61994 0.62544 0.58337 0.0
O85 O 0.5704 0.8011 0.54102 0.0
C86 C 0.67117 0.81305 0.56598 0.0
O87 O 0.68088 0.75527 0.56509 0.0
C88 C 0.61552 0.73745 0.6293 0.0
O89 O 0.64598 0.74322 0.62139 0.0
O90 O 0.62837 0.6875 0.54319 0.0
C91 C 0.92961 0.18083 0.55446 0.0
O92 O 0.9251 0.1642 0.58325 0.0
O93 O 0.90078 0.29181 0.61315 0.0
Zn94 Zn 0.88094 0.25929 0.57413 0.0
O95 O 0.85664 0.18362 0.58644 0.0
C96 C 0.8435 0.37336 0.5608 0.0
O97 O 0.86569 0.40332 0.57646 0.0
O98 O 0.91429 0.22739 0.54408 0.0
C99 C 0.84211 0.15543 0.56496 0.0
O100 O 0.84331 0.17757 0.5368 0.0
C101 C 0.88108 0.30428 0.63467 0.0
O102 O 0.84988 0.30089 0.6292 0.0
O103 O 0.8467 0.31575 0.55611 0.0
H104 H 0.32246 0.10226 0.03212 0.0
C105 C 0.33749 0.08507 0.0508 0.0
H106 H 0.34184 0.02133 0.08708 0.0
H107 H 0.19697 0.98386 0.11978 0.0
H108 H 0.2189 0.02874 0.16623 0.0
H109 H 0.27438 0.07018 0.16736 0.0
H110 H 0.30842 0.0658 0.12224 0.0
C111 C 0.32703 0.03749 0.06804 0.0
C112 C 0.29295 0.01479 0.06616 0.0
C113 C 0.27281 0.01984 0.09255 0.0
C114 C 0.24034 0.99821 0.09154 0.0
C115 C 0.22145 0.00116 0.11877 0.0
C116 C 0.23377 0.02667 0.14575 0.0
C117 C 0.26502 0.04982 0.14641 0.0
C118 C 0.28439 0.04665 0.12025 0.0
H119 H 0.20743 0.85911 0.05049 0.0
C120 C 0.18784 0.88875 0.05829 0.0
H121 H 0.17438 0.97828 0.07215 0.0
H122 H 0.32555 0.99085 0.01252 0.0
H123 H 0.30237 0.95363 0.96472 0.0
H124 H 0.24428 0.92896 0.96112 0.0
H125 H 0.20926 0.93954 0.0056 0.0
C126 C 0.19373 0.94885 0.0637 0.0
C127 C 0.22747 0.97368 0.0638 0.0
C128 C 0.24718 0.97106 0.03705 0.0
C129 C 0.28024 0.98937 0.03855 0.0
C130 C 0.29994 0.98102 0.01222 0.0
C131 C 0.28699 0.95917 0.98469 0.0
C132 C 0.25433 0.94498 0.98271 0.0
C133 C 0.23455 0.95077 0.00849 0.0
H134 H 0.18319 0.60545 0.46712 0.0
C135 C 0.16717 0.58253 0.4509 0.0
H136 H 0.16164 0.50911 0.41958 0.0
H137 H 0.30559 0.46955 0.38311 0.0
H138 H 0.28191 0.50664 0.33569 0.0
H139 H 0.22626 0.54739 0.33462 0.0
H140 H 0.1938 0.5503 0.38089 0.0
C141 C 0.17722 0.53092 0.43654 0.0
C142 C 0.21155 0.50953 0.43833 0.0
C143 C 0.23066 0.50985 0.41118 0.0
C144 C 0.26317 0.48832 0.41201 0.0
C145 C 0.2811 0.48689 0.38417 0.0
C146 C 0.26777 0.50788 0.35665 0.0
C147 C 0.23643 0.53066 0.35604 0.0
C148 C 0.218 0.53178 0.38284 0.0
H149 H 0.29727 0.35452 0.45524 0.0
C150 C 0.31672 0.38341 0.44651 0.0
H151 H 0.32979 0.47177 0.43053 0.0
H152 H 0.18119 0.49723 0.49406 0.0
H153 H 0.20595 0.46656 0.54231 0.0
H154 H 0.2638 0.43929 0.54473 0.0
H155 H 0.29705 0.44109 0.49873 0.0
C156 C 0.31074 0.44316 0.44019 0.0
C157 C 0.27699 0.46802 0.44018 0.0
C158 C 0.25826 0.46982 0.46757 0.0
C159 C 0.22527 0.48889 0.46649 0.0
C160 C 0.20665 0.48601 0.49379 0.0
C161 C 0.22052 0.46805 0.52162 0.0
C162 C 0.25306 0.45244 0.52296 0.0
C163 C 0.27182 0.45324 0.49634 0.0
H164 H 0.66359 0.98868 0.91347 0.0
C165 C 0.66652 0.94857 0.92829 0.0
H166 H 0.69732 0.90225 0.95949 0.0
H167 H 0.82257 0.0239 0.90186 0.0
H168 H 0.82861 0.91678 0.88677 0.0
H169 H 0.78541 0.84107 0.89709 0.0
H170 H 0.73587 0.87221 0.9224 0.0
C171 C 0.69322 0.94363 0.94585 0.0
C172 C 0.7204 0.98845 0.94267 0.0
C173 C 0.74968 0.96917 0.92855 0.0
C174 C 0.77476 0.01274 0.92283 0.0
C175 C 0.80303 0.99268 0.90739 0.0
C176 C 0.80677 0.93129 0.89844 0.0
C177 C 0.78245 0.88867 0.90424 0.0
C178 C 0.75414 0.90717 0.91893 0.0
H179 H 0.83203 0.09563 0.95202 0.0
C180 C 0.82408 0.12862 0.93473 0.0
H181 H 0.78601 0.15776 0.90575 0.0
H182 H 0.66932 0.03872 0.97385 0.0
H183 H 0.66361 0.14565 0.98986 0.0
H184 H 0.70682 0.22144 0.97959 0.0
H185 H 0.75607 0.19074 0.9534 0.0
C186 C 0.79449 0.12325 0.92206 0.0
C187 C 0.77066 0.07538 0.9316 0.0
C188 C 0.74196 0.09402 0.94689 0.0
C189 C 0.71689 0.05049 0.95258 0.0
C190 C 0.68878 0.07022 0.96836 0.0
C191 C 0.68528 0.13137 0.97784 0.0
C192 C 0.70961 0.17403 0.97207 0.0
C193 C 0.7377 0.15583 0.95688 0.0
H194 H 0.67777 0.61931 0.52929 0.0
C195 C 0.66238 0.60008 0.54717 0.0
H196 H 0.65758 0.53236 0.58163 0.0
H197 H 0.79033 0.45242 0.50076 0.0
H198 H 0.75549 0.4433 0.45607 0.0
H199 H 0.69759 0.46981 0.45936 0.0
H200 H 0.67438 0.50713 0.50715 0.0
C201 C 0.67251 0.55043 0.56312 0.0
C202 C 0.70666 0.52821 0.5612 0.0
C203 C 0.71946 0.50344 0.5335 0.0
C204 C 0.75246 0.48465 0.5321 0.0
C205 C 0.76511 0.46431 0.50356 0.0
C206 C 0.74543 0.45935 0.47764 0.0
C207 C 0.71287 0.47454 0.47946 0.0
C208 C 0.6999 0.49631 0.507 0.0
H209 H 0.79249 0.37225 0.54633 0.0
C210 C 0.81205 0.4024 0.55364 0.0
H211 H 0.82522 0.49254 0.56681 0.0
H212 H 0.69084 0.57791 0.61744 0.0
H213 H 0.72484 0.58212 0.66265 0.0
H214 H 0.7805 0.54138 0.66145 0.0
H215 H 0.80261 0.49718 0.61487 0.0
C216 C 0.80594 0.46254 0.55875 0.0
C217 C 0.77211 0.48699 0.55891 0.0
C218 C 0.7592 0.51135 0.58667 0.0
C219 C 0.72669 0.53282 0.58767 0.0
C220 C 0.71497 0.55909 0.61545 0.0
C221 C 0.7343 0.56214 0.64165 0.0
C222 C 0.76564 0.53936 0.64094 0.0
C223 C 0.77807 0.51423 0.61391 0.0
H224 H 0.42813 0.22702 0.16306 0.0
C225 C 0.40343 0.24106 0.15817 0.0
H226 H 0.35959 0.27513 0.17642 0.0
H227 H 0.40937 0.15711 0.30606 0.0
H228 H 0.40396 0.05734 0.28125 0.0
H229 H 0.39413 0.0498 0.22536 0.0
H230 H 0.38975 0.14201 0.19394 0.0
C231 C 0.38387 0.25858 0.18127 0.0
C232 C 0.39489 0.26188 0.21378 0.0
C233 C 0.3979 0.20737 0.23167 0.0
C234 C 0.40333 0.21177 0.26395 0.0
C235 C 0.40537 0.15663 0.28146 0.0
C236 C 0.40227 0.09897 0.26751 0.0
C237 C 0.39675 0.09473 0.23604 0.0
C238 C 0.3944 0.1481 0.21824 0.0
H239 H 0.35851 0.31713 0.3126 0.0
C240 C 0.3779 0.29763 0.32646 0.0
H241 H 0.42321 0.25261 0.32577 0.0
H242 H 0.394 0.3748 0.18544 0.0
H243 H 0.40148 0.47463 0.20998 0.0
H244 H 0.4118 0.48204 0.26583 0.0
H245 H 0.41447 0.38958 0.29751 0.0
C246 C 0.40434 0.27506 0.31243 0.0
C247 C 0.40527 0.27064 0.27823 0.0
C248 C 0.40469 0.32488 0.25994 0.0
C249 C 0.39919 0.32051 0.22772 0.0
C250 C 0.39799 0.37552 0.21007 0.0
C251 C 0.40237 0.43307 0.22384 0.0
C252 C 0.40815 0.43725 0.25528 0.0
C253 C 0.4094 0.38392 0.27323 0.0
H254 H 0.06825 0.70735 0.33474 0.0
C255 C 0.09394 0.71005 0.33981 0.0
H256 H 0.14067 0.72683 0.32219 0.0
H257 H 0.07705 0.65776 0.18894 0.0
H258 H 0.07024 0.55409 0.20902 0.0
H259 H 0.07918 0.53182 0.26408 0.0
H260 H 0.09497 0.61323 0.29939 0.0
C261 C 0.11515 0.72093 0.31703 0.0
C262 C 0.10475 0.73504 0.28507 0.0
C263 C 0.09489 0.68713 0.26493 0.0
C264 C 0.08989 0.69999 0.23314 0.0
C265 C 0.08105 0.65086 0.2133 0.0
C266 C 0.07708 0.59102 0.22452 0.0
C267 C 0.0821 0.57849 0.25552 0.0
C268 C 0.09106 0.62571 0.27557 0.0
H269 H 0.14605 0.79356 0.18903 0.0
C270 C 0.12508 0.78502 0.17454 0.0
H271 H 0.07586 0.75923 0.17365 0.0
H272 H 0.12014 0.8385 0.31831 0.0
H273 H 0.1249 0.94309 0.29862 0.0
H274 H 0.11473 0.96575 0.24376 0.0
H275 H 0.10013 0.88365 0.2082 0.0
C276 C 0.09666 0.77095 0.18777 0.0
C277 C 0.09509 0.7606 0.22165 0.0
C278 C 0.10242 0.80933 0.2423 0.0
C279 C 0.10766 0.79641 0.27398 0.0
C280 C 0.11593 0.8457 0.29397 0.0
C281 C 0.11861 0.90599 0.283 0.0
C282 C 0.11293 0.91873 0.25212 0.0
C283 C 0.10482 0.87118 0.23192 0.0
H284 H 0.6634 0.76855 0.81737 0.0
C285 C 0.64146 0.76329 0.83092 0.0
H286 H 0.59118 0.74523 0.82945 0.0
H287 H 0.59479 0.83961 0.689 0.0
H288 H 0.56629 0.92412 0.71343 0.0
H289 H 0.55825 0.92595 0.7697 0.0
H290 H 0.57902 0.84322 0.80191 0.0
C291 C 0.61361 0.74945 0.81662 0.0
C292 C 0.61298 0.74207 0.78259 0.0
C293 C 0.59949 0.78925 0.76399 0.0
C294 C 0.60354 0.78742 0.73146 0.0
C295 C 0.59164 0.83738 0.71367 0.0
C296 C 0.57537 0.88653 0.72744 0.0
C297 C 0.57088 0.88762 0.75912 0.0
C298 C 0.58291 0.83986 0.77733 0.0
H299 H 0.58113 0.72648 0.668 0.0
C300 C 0.60646 0.73232 0.66203 0.0
H301 H 0.65411 0.74332 0.67858 0.0
H302 H 0.63698 0.63938 0.81141 0.0
H303 H 0.66406 0.55262 0.78706 0.0
H304 H 0.6712 0.54918 0.73066 0.0
H305 H 0.65119 0.6323 0.6983 0.0
C306 C 0.62868 0.73857 0.68438 0.0
C307 C 0.62033 0.73728 0.71766 0.0
C308 C 0.63206 0.68824 0.7362 0.0
C309 C 0.62822 0.69045 0.76869 0.0
C310 C 0.63988 0.64057 0.78666 0.0
C311 C 0.65529 0.59034 0.77296 0.0
C312 C 0.65928 0.58838 0.74121 0.0
C313 C 0.64779 0.63653 0.72292 0.0
H314 H 0.91851 0.30283 0.67092 0.0
C315 C 0.89308 0.31172 0.66641 0.0
H316 H 0.84723 0.32972 0.68552 0.0
H317 H 0.86575 0.20363 0.8129 0.0
H318 H 0.82724 0.13566 0.78824 0.0
H319 H 0.81432 0.147 0.73309 0.0
H320 H 0.83954 0.22697 0.70242 0.0
C321 C 0.87283 0.32267 0.68996 0.0
C322 C 0.88298 0.3139 0.72254 0.0
C323 C 0.86863 0.26571 0.74 0.0
C324 C 0.87674 0.25808 0.77158 0.0
C325 C 0.86109 0.21095 0.78868 0.0
C326 C 0.83882 0.17154 0.77483 0.0
C327 C 0.8315 0.178 0.74381 0.0
C328 C 0.84612 0.22438 0.72649 0.0
H329 H 0.88967 0.38335 0.82868 0.0
C330 C 0.8977 0.33953 0.83827 0.0
H331 H 0.91313 0.24869 0.8287 0.0
H332 H 0.91361 0.41327 0.69639 0.0
H333 H 0.95513 0.47653 0.72001 0.0
H334 H 0.97306 0.45667 0.77329 0.0
H335 H 0.94898 0.37431 0.80348 0.0
C336 C 0.90564 0.29297 0.81929 0.0
C337 C 0.8997 0.29788 0.78553 0.0
C338 C 0.91534 0.34392 0.76764 0.0
C339 C 0.90629 0.35315 0.73636 0.0
C340 C 0.92057 0.4024 0.71976 0.0
C341 C 0.9443 0.43936 0.73312 0.0
C342 C 0.95431 0.42834 0.76315 0.0
C343 C 0.9401 0.38124 0.78031 0.0
H344 H 0.47504 0.34499 0.00254 0.0
C345 C 0.46565 0.3652 0.02363 0.0
H346 H 0.46305 0.44493 0.05161 0.0
H347 H 0.59383 0.51197 0.97033 0.0
H348 H 0.61894 0.42489 0.99599 0.0
H349 H 0.58696 0.35549 0.02916 0.0
H350 H 0.52963 0.37261 0.03671 0.0
C351 C 0.4734 0.4237 0.03119 0.0
C352 C 0.4929 0.46416 0.01061 0.0
C353 C 0.52644 0.45354 0.00653 0.0
C354 C 0.54493 0.49396 0.98762 0.0
C355 C 0.57849 0.48255 0.98418 0.0
C356 C 0.59329 0.43284 0.9989 0.0
C357 C 0.57528 0.39375 0.01756 0.0
C358 C 0.5423 0.40393 0.02154 0.0
H359 H 0.54575 0.66587 0.98074 0.0
C360 C 0.55648 0.64524 0.96034 0.0
H361 H 0.56118 0.56491 0.93309 0.0
H362 H 0.42913 0.49772 0.01367 0.0
H363 H 0.40389 0.58449 0.98778 0.0
H364 H 0.43574 0.65335 0.95421 0.0
H365 H 0.49305 0.63616 0.94654 0.0
C366 C 0.54962 0.58626 0.95288 0.0
C367 C 0.52995 0.54536 0.97311 0.0
C368 C 0.49637 0.5558 0.97708 0.0
C369 C 0.47791 0.51548 0.99608 0.0
C370 C 0.44439 0.52696 0.99964 0.0
C371 C 0.42954 0.5765 0.98481 0.0
C372 C 0.44747 0.61529 0.96593 0.0
C373 C 0.48045 0.60512 0.9619 0.0
H374 H 0.04426 0.64388 0.02179 0.0
C375 C 0.04804 0.63094 0.0457 0.0
H376 H 0.04065 0.5633 0.08001 0.0
H377 H 0.92803 0.4759 0.98078 0.0
H378 H 0.9024 0.57494 0.99022 0.0
H379 H 0.92969 0.6548 0.02132 0.0
H380 H 0.98282 0.63629 0.04298 0.0
C381 C 0.0357 0.5776 0.05648 0.0
C382 C 0.0195 0.53157 0.03621 0.0
C383 C 0.98835 0.54321 0.02386 0.0
C384 C 0.9724 0.49676 0.00632 0.0
C385 C 0.94126 0.50946 0.99428 0.0
C386 C 0.92622 0.56609 0.99957 0.0
C387 C 0.9416 0.61106 0.01706 0.0
C388 C 0.97221 0.59993 0.02923 0.0
H389 H 0.9568 0.33898 0.02382 0.0
C390 C 0.95468 0.34306 0.99895 0.0
H391 H 0.96626 0.39667 0.95978 0.0
H392 H 0.07993 0.49551 0.05492 0.0
H393 H 0.10545 0.39648 0.0453 0.0
H394 H 0.07727 0.31552 0.01566 0.0
H395 H 0.0234 0.33331 0.9953 0.0
C396 C 0.96985 0.38954 0.98431 0.0
C397 C 0.98731 0.43841 0.00173 0.0
C398 C 0.01862 0.42711 0.01365 0.0
C399 C 0.03476 0.47376 0.03085 0.0
C400 C 0.0663 0.46151 0.04207 0.0
C401 C 0.08131 0.40491 0.03662 0.0
C402 C 0.06546 0.35935 0.01991 0.0
C403 C 0.03451 0.37009 0.00845 0.0
H404 H 0.50426 0.88583 0.55449 0.0
C405 C 0.525 0.87007 0.54127 0.0
H406 H 0.5531 0.8843 0.50121 0.0
H407 H 0.43571 0.02495 0.43515 0.0
H408 H 0.43155 0.92523 0.41008 0.0
H409 H 0.46477 0.83707 0.42734 0.0
H410 H 0.50225 0.84809 0.47 0.0
C411 C 0.53231 0.89867 0.51471 0.0
C412 C 0.5131 0.95264 0.50372 0.0
C413 C 0.49186 0.9459 0.47838 0.0
C414 C 0.4731 0.99709 0.46812 0.0
C415 C 0.45117 0.98823 0.44345 0.0
C416 C 0.44838 0.93106 0.42894 0.0
C417 C 0.46706 0.8814 0.43868 0.0
C418 C 0.4885 0.88838 0.46316 0.0
H419 H 0.4847 0.12208 0.43199 0.0
C420 C 0.46382 0.13745 0.44513 0.0
H421 H 0.43579 0.12291 0.48521 0.0
H422 H 0.55335 0.98291 0.55156 0.0
H423 H 0.55754 0.08267 0.57664 0.0
H424 H 0.52445 0.17094 0.55927 0.0
H425 H 0.48706 0.15999 0.51651 0.0
C426 C 0.45683 0.10926 0.47188 0.0
C427 C 0.47617 0.05543 0.48284 0.0
C428 C 0.49742 0.06217 0.50818 0.0
C429 C 0.51614 0.01094 0.51847 0.0
C430 C 0.53798 0.01972 0.54321 0.0
C431 C 0.54077 0.07689 0.55772 0.0
C432 C 0.52217 0.12662 0.54792 0.0
C433 C 0.50078 0.11968 0.52339 0.0
H434 H 0.95134 0.15485 0.50965 0.0
C435 C 0.94864 0.14107 0.53358 0.0
H436 H 0.95634 0.07098 0.56665 0.0
H437 H 0.96434 0.8495 0.47384 0.0
H438 H 0.91164 0.83234 0.49679 0.0
H439 H 0.88741 0.90993 0.53141 0.0
H440 H 0.91535 0.00563 0.5428 0.0
C441 C 0.9603 0.08618 0.5431 0.0
C442 C 0.97494 0.04065 0.52151 0.0
C443 C 0.95839 0.98455 0.51529 0.0
C444 C 0.97258 0.93934 0.49569 0.0
C445 C 0.95503 0.88474 0.48911 0.0
C446 C 0.92467 0.87444 0.502 0.0
C447 C 0.91098 0.91818 0.52143 0.0
C448 C 0.92741 0.9728 0.52793 0.0
H449 H 0.027 0.83659 0.4961 0.0
C450 C 0.03055 0.84968 0.47218 0.0
H451 H 0.02323 0.91811 0.4382 0.0
H452 H 0.01406 0.14133 0.53019 0.0
H453 H 0.06666 0.15855 0.50723 0.0
H454 H 0.09101 0.08082 0.47277 0.0
H455 H 0.06301 0.98528 0.46122 0.0
C456 C 0.01862 0.90371 0.46176 0.0
C457 C 0.00349 0.94999 0.48266 0.0
C458 C 0.01995 0.00625 0.48874 0.0
C459 C 0.00577 0.05144 0.50836 0.0
C460 C 0.02331 0.10608 0.51491 0.0
C461 C 0.05365 0.11643 0.50201 0.0
C462 C 0.06737 0.07266 0.48263 0.0
C463 C 0.05093 0.01806 0.4761 0.0
H464 H 0.17907 0.56242 0.09092 0.0
C465 C 0.18023 0.58572 0.06876 0.0
H466 H 0.20091 0.58629 0.0243 0.0
H467 H 0.29618 0.40812 0.11198 0.0
H468 H 0.3064 0.50028 0.14224 0.0
H469 H 0.27869 0.59834 0.13012 0.0
H470 H 0.23993 0.60417 0.08843 0.0
C471 C 0.19993 0.56417 0.04675 0.0
C472 C 0.21963 0.5078 0.05185 0.0
C473 C 0.2438 0.50671 0.07506 0.0
C474 C 0.26147 0.4516 0.0806 0.0
C475 C 0.28346 0.44991 0.10562 0.0
C476 C 0.28934 0.50232 0.12335 0.0
C477 C 0.27363 0.5574 0.11664 0.0
C478 C 0.25116 0.55991 0.09278 0.0
H479 H 0.32049 0.39787 0.05333 0.0
C480 C 0.31073 0.35232 0.05839 0.0
H481 H 0.26874 0.30027 0.06815 0.0
H482 H 0.17386 0.4936 0.00674 0.0
H483 H 0.16526 0.4025 0.97529 0.0
H484 H 0.19893 0.3094 0.98228 0.0
H485 H 0.24102 0.30649 0.02111 0.0
C486 C 0.27896 0.34561 0.06357 0.0
C487 C 0.25693 0.39956 0.06121 0.0
C488 C 0.23271 0.40052 0.03814 0.0
C489 C 0.21382 0.45461 0.03363 0.0
C490 C 0.18931 0.45408 0.01083 0.0
C491 C 0.18407 0.40205 0.99263 0.0
C492 C 0.20299 0.34961 0.99659 0.0
C493 C 0.22708 0.34859 0.01901 0.0
H494 H 0.31945 0.05915 0.40743 0.0
C495 C 0.30553 0.10181 0.40687 0.0
H496 H 0.25866 0.14113 0.40671 0.0
H497 H 0.1969 0.88598 0.3621 0.0
H498 H 0.19257 0.94598 0.31505 0.0
H499 H 0.21756 0.04924 0.31116 0.0
H500 H 0.24701 0.0931 0.35434 0.0
C501 C 0.27319 0.09932 0.40763 0.0
C502 C 0.25654 0.03902 0.4106 0.0
C503 C 0.23915 0.01463 0.38529 0.0
C504 C 0.22452 0.95548 0.38764 0.0
C505 C 0.20792 0.93131 0.36178 0.0
C506 C 0.20542 0.9651 0.33457 0.0
C507 C 0.21952 0.02321 0.33237 0.0
C508 C 0.23632 0.04785 0.35732 0.0
H509 H 0.16415 0.90427 0.42078 0.0
C510 C 0.17768 0.86124 0.42223 0.0
H511 H 0.224 0.81983 0.42118 0.0
H512 H 0.28512 0.07572 0.4647 0.0
H513 H 0.28924 0.01587 0.51169 0.0
H514 H 0.26526 0.91174 0.51518 0.0
H515 H 0.23682 0.86713 0.47169 0.0
C516 C 0.20986 0.86194 0.41898 0.0
C517 C 0.22705 0.92148 0.41545 0.0
C518 C 0.24443 0.94586 0.44076 0.0
C519 C 0.2588 0.00521 0.43852 0.0
C520 C 0.27464 0.02994 0.46471 0.0
C521 C 0.27697 0.99628 0.49196 0.0
C522 C 0.26342 0.93771 0.49394 0.0
C523 C 0.24719 0.91265 0.46877 0.0
H524 H 0.74011 0.67759 0.94755 0.0
C525 C 0.71458 0.66566 0.94717 0.0
H526 H 0.68001 0.5939 0.94949 0.0
H527 H 0.77742 0.39296 0.89939 0.0
H528 H 0.7379 0.39799 0.85821 0.0
H529 H 0.69433 0.47589 0.85907 0.0
H530 H 0.68987 0.54878 0.90121 0.0
C531 C 0.70542 0.60653 0.95043 0.0
C532 C 0.7298 0.55641 0.95157 0.0
C533 C 0.7319 0.51416 0.92673 0.0
C534 C 0.75727 0.47004 0.92596 0.0
C535 C 0.75886 0.42809 0.90094 0.0
C536 C 0.73629 0.43035 0.87716 0.0
C537 C 0.71174 0.47414 0.87767 0.0
C538 C 0.70946 0.51571 0.90206 0.0
H539 H 0.79312 0.36907 0.98472 0.0
C540 C 0.81061 0.37609 0.96638 0.0
H541 H 0.82479 0.43155 0.92867 0.0
H542 H 0.72906 0.62346 0.00508 0.0
H543 H 0.76918 0.61995 0.04586 0.0
H544 H 0.81568 0.54877 0.04263 0.0
H545 H 0.82196 0.4799 0.99903 0.0
C546 C 0.80802 0.42518 0.94767 0.0
C547 C 0.7805 0.46864 0.94993 0.0
C548 C 0.77795 0.50984 0.97519 0.0
C549 C 0.75205 0.55285 0.97636 0.0
C550 C 0.74904 0.59162 0.00247 0.0
C551 C 0.77177 0.58978 0.02613 0.0
C552 C 0.79788 0.54956 0.02437 0.0
C553 C 0.80109 0.50999 0.99925 0.0
H554 H 0.68553 0.9103 0.56187 0.0
C555 C 0.69459 0.86382 0.56596 0.0
H556 H 0.73565 0.80843 0.57472 0.0
H557 H 0.83223 0.99906 0.51354 0.0
H558 H 0.8411 0.90648 0.48324 0.0
H559 H 0.80778 0.81342 0.49144 0.0
H560 H 0.76566 0.81214 0.5302 0.0
C561 C 0.72626 0.85472 0.57092 0.0
C562 C 0.74922 0.90733 0.56893 0.0
C563 C 0.77358 0.90716 0.54599 0.0
C564 C 0.79229 0.9612 0.54081 0.0
C565 C 0.81682 0.95969 0.51804 0.0
C566 C 0.82225 0.90678 0.50052 0.0
C567 C 0.80353 0.85437 0.50518 0.0
C568 C 0.77941 0.85429 0.52755 0.0
H569 H 0.8263 0.07881 0.59475 0.0
C570 C 0.8241 0.09873 0.57186 0.0
H571 H 0.80259 0.09146 0.52794 0.0
H572 H 0.71089 0.9171 0.62013 0.0
H573 H 0.7006 0.01036 0.64963 0.0
H574 H 0.7276 0.10836 0.63617 0.0
H575 H 0.76573 0.11312 0.594 0.0
C576 C 0.80444 0.07262 0.55108 0.0
C577 C 0.78614 0.01543 0.55816 0.0
C578 C 0.76235 0.01499 0.58173 0.0
C579 C 0.74496 0.95991 0.588 0.0
C580 C 0.72332 0.95887 0.61327 0.0
C581 C 0.71741 0.01188 0.63055 0.0
C582 C 0.73273 0.06693 0.62307 0.0
C583 C 0.75488 0.06882 0.59893 0.0
loop_
_geom_bond_atom_site_label_1
_geom_bond_atom_site_label_2
_geom_bond_distance
_geom_bond_site_symmetry_2
_ccdc_geom_bond_type
C0 O1 1.160 . S
C0 O7 1.185 . S
O1 C0 1.160 . S
O2 Zn3 1.899 . S
O2 C10 1.284 . S
Zn3 O2 1.899 . S
Zn3 O4 2.032 . S
Zn3 O7 2.086 . S
Zn3 O12 1.977 . S
O4 Zn3 2.032 . S
O4 C8 1.278 . S
C5 O6 1.203 . S
C5 O12 1.267 . S
O6 C5 1.203 . S
O7 C0 1.185 . S
O7 Zn3 2.086 . S
C8 O4 1.278 . S
C8 O9 1.211 . S
O9 C8 1.211 . S
C10 O2 1.284 . S
C10 O11 1.273 . S
O11 C10 1.273 . S
O12 Zn3 1.977 . S
O12 C5 1.267 . S
C13 O14 1.160 . S
C13 O20 1.185 . S
O14 C13 1.160 . S
O15 Zn16 1.899 . S
O15 C23 1.284 . S
Zn16 O15 1.899 . S
Zn16 O17 2.032 . S
Zn16 O20 2.086 . S
Zn16 O25 1.977 . S
O17 Zn16 2.032 . S
O17 C21 1.278 . S
C18 O19 1.203 . S
C18 O25 1.267 . S
O19 C18 1.203 . S
O20 C13 1.185 . S
O20 Zn16 2.086 . S
C21 O17 1.278 . S
C21 O22 1.211 . S
O22 C21 1.211 . S
C23 O15 1.284 . S
C23 O24 1.273 . S
O24 C23 1.273 . S
O25 Zn16 1.977 . S
O25 C18 1.267 . S
C26 O27 1.160 . S
C26 O33 1.185 . S
O27 C26 1.160 . S
O28 Zn29 1.899 . S
O28 C36 1.284 . S
Zn29 O28 1.899 . S
Zn29 O30 2.032 . S
Zn29 O33 2.086 . S
Zn29 O38 1.977 . S
O30 Zn29 2.032 . S
O30 C34 1.278 . S
C31 O32 1.203 . S
C31 O38 1.267 . S
O32 C31 1.203 . S
O33 C26 1.185 . S
O33 Zn29 2.086 . S
C34 O30 1.278 . S
C34 O35 1.211 . S
O35 C34 1.211 . S
C36 O28 1.284 . S
C36 O37 1.273 . S
O37 C36 1.273 . S
O38 Zn29 1.977 . S
O38 C31 1.267 . S
C39 O40 1.160 . S
C39 O46 1.185 . S
O40 C39 1.160 . S
O41 Zn42 1.899 . S
O41 C49 1.284 . S
Zn42 O41 1.899 . S
Zn42 O43 2.032 . S
Zn42 O46 2.086 . S
Zn42 O51 1.977 . S
O43 Zn42 2.032 . S
O43 C47 1.278 . S
C44 O45 1.203 . S
C44 O51 1.267 . S
O45 C44 1.203 . S
O46 C39 1.185 . S
O46 Zn42 2.086 . S
C47 O43 1.278 . S
C47 O48 1.211 . S
O48 C47 1.211 . S
C49 O41 1.284 . S
C49 O50 1.273 . S
O50 C49 1.273 . S
O51 Zn42 1.977 . S
O51 C44 1.267 . S
C52 O53 1.160 . S
C52 O59 1.185 . S
O53 C52 1.160 . S
O54 Zn55 1.899 . S
O54 C62 1.284 . S
Zn55 O54 1.899 . S
Zn55 O56 2.032 . S
Zn55 O59 2.086 . S
Zn55 O64 1.977 . S
O56 Zn55 2.032 . S
O56 C60 1.278 . S
C57 O58 1.203 . S
C57 O64 1.267 . S
O58 C57 1.203 . S
O59 C52 1.185 . S
O59 Zn55 2.086 . S
C60 O56 1.278 . S
C60 O61 1.211 . S
O61 C60 1.211 . S
C62 O54 1.284 . S
C62 O63 1.273 . S
O63 C62 1.273 . S
O64 Zn55 1.977 . S
O64 C57 1.267 . S
C65 O66 1.160 . S
C65 O72 1.185 . S
O66 C65 1.160 . S
O67 Zn68 1.899 . S
O67 C75 1.284 . S
Zn68 O67 1.899 . S
Zn68 O69 2.032 . S
Zn68 O72 2.086 . S
Zn68 O77 1.977 . S
O69 Zn68 2.032 . S
O69 C73 1.278 . S
C70 O71 1.203 . S
C70 O77 1.267 . S
O71 C70 1.203 . S
O72 C65 1.185 . S
O72 Zn68 2.086 . S
C73 O69 1.278 . S
C73 O74 1.211 . S
O74 C73 1.211 . S
C75 O67 1.284 . S
C75 O76 1.273 . S
O76 C75 1.273 . S
O77 Zn68 1.977 . S
O77 C70 1.267 . S
C78 O79 1.160 . S
C78 O85 1.185 . S
O79 C78 1.160 . S
O80 Zn81 1.899 . S
O80 C88 1.284 . S
Zn81 O80 1.899 . S
Zn81 O82 2.032 . S
Zn81 O85 2.086 . S
Zn81 O90 1.977 . S
O82 Zn81 2.032 . S
O82 C86 1.278 . S
C83 O84 1.203 . S
C83 O90 1.267 . S
O84 C83 1.203 . S
O85 C78 1.185 . S
O85 Zn81 2.086 . S
C86 O82 1.278 . S
C86 O87 1.211 . S
O87 C86 1.211 . S
C88 O80 1.284 . S
C88 O89 1.273 . S
O89 C88 1.273 . S
O90 Zn81 1.977 . S
O90 C83 1.267 . S
C91 O92 1.160 . S
C91 O98 1.185 . S
O92 C91 1.160 . S
O93 Zn94 1.899 . S
O93 C101 1.284 . S
Zn94 O93 1.899 . S
Zn94 O95 2.032 . S
Zn94 O98 2.086 . S
Zn94 O103 1.977 . S
O95 Zn94 2.032 . S
O95 C99 1.278 . S
C96 O97 1.203 . S
C96 O103 1.267 . S
O97 C96 1.203 . S
O98 C91 1.185 . S
O98 Zn94 2.086 . S
C99 O95 1.278 . S
C99 O100 1.211 . S
O100 C99 1.211 . S
C101 O93 1.284 . S
C101 O102 1.273 . S
O102 C101 1.273 . S
O103 Zn94 1.977 . S
O103 C96 1.267 . S
H104 C105 0.951 . S
C105 H104 0.951 . S
C105 C111 1.265 . S
H106 C111 0.950 . S
H107 C115 0.949 . S
H108 C116 0.950 . S
H109 C117 0.951 . S
H110 C118 0.944 1_545 S
C111 C105 1.265 . S
C111 H106 0.950 . S
C111 C112 1.478 . S
C112 C111 1.478 . S
C112 C113 1.397 1_545 S
C112 C129 1.394 . S
C113 C112 1.397 1_565 S
C113 C114 1.438 . S
C113 C118 1.429 . S
C114 C113 1.438 . S
C114 C115 1.428 . S
C114 C127 1.394 . S
C115 H107 0.949 . S
C115 C114 1.428 . S
C115 C116 1.345 . S
C116 H108 0.950 . S
C116 C115 1.345 . S
C116 C117 1.424 . S
C117 H109 0.951 . S
C117 C116 1.424 . S
C117 C118 1.347 . S
C118 H110 0.944 1_565 S
C118 C113 1.429 . S
C118 C117 1.347 . S
H119 C120 0.951 . S
C120 H119 0.951 . S
C120 C126 1.265 . S
H121 C126 0.950 . S
H122 C130 0.948 1_556 S
H123 C131 0.950 . S
H124 C132 0.951 . S
H125 C133 0.946 1_565 S
C126 C120 1.265 . S
C126 H121 0.950 . S
C126 C127 1.478 . S
C127 C114 1.394 . S
C127 C126 1.478 . S
C127 C128 1.397 1_565 S
C128 C127 1.397 1_545 S
C128 C129 1.438 . S
C128 C133 1.429 . S
C129 C112 1.394 . S
C129 C128 1.438 . S
C129 C130 1.448 . S
C130 H122 0.948 1_554 S
C130 C129 1.448 . S
C130 C131 1.326 1_554 S
C131 H123 0.950 . S
C131 C130 1.326 1_556 S
C131 C132 1.424 . S
C132 H124 0.951 . S
C132 C131 1.424 . S
C132 C133 1.347 1_556 S
C133 H125 0.946 1_545 S
C133 C128 1.429 . S
C133 C132 1.347 1_554 S
H134 C135 0.951 . S
C135 H134 0.951 . S
C135 C141 1.265 . S
H136 C141 0.950 . S
H137 C145 0.949 . S
H138 C146 0.950 . S
H139 C147 0.951 . S
H140 C148 0.951 . S
C141 C135 1.265 . S
C141 H136 0.950 . S
C141 C142 1.478 . S
C142 C141 1.478 . S
C142 C143 1.397 . S
C142 C159 1.394 . S
C143 C142 1.397 . S
C143 C144 1.438 . S
C143 C148 1.429 . S
C144 C143 1.438 . S
C144 C145 1.428 . S
C144 C157 1.394 . S
C145 H137 0.949 . S
C145 C144 1.428 . S
C145 C146 1.345 . S
C146 H138 0.950 . S
C146 C145 1.345 . S
C146 C147 1.424 . S
C147 H139 0.951 . S
C147 C146 1.424 . S
C147 C148 1.347 . S
C148 H140 0.951 . S
C148 C143 1.429 . S
C148 C147 1.347 . S
H149 C150 0.951 . S
C150 H149 0.951 . S
C150 C156 1.265 . S
H151 C156 0.950 . S
H152 C160 0.949 . S
H153 C161 0.950 . S
H154 C162 0.951 . S
H155 C163 0.951 . S
C156 C150 1.265 . S
C156 H151 0.950 . S
C156 C157 1.478 . S
C157 C144 1.394 . S
C157 C156 1.478 . S
C157 C158 1.397 . S
C158 C157 1.397 . S
C158 C159 1.438 . S
C158 C163 1.429 . S
C159 C142 1.394 . S
C159 C158 1.438 . S
C159 C160 1.428 . S
C160 H152 0.949 . S
C160 C159 1.428 . S
C160 C161 1.345 . S
C161 H153 0.950 . S
C161 C160 1.345 . S
C161 C162 1.424 . S
C162 H154 0.951 . S
C162 C161 1.424 . S
C162 C163 1.347 . S
C163 H155 0.951 . S
C163 C158 1.429 . S
C163 C162 1.347 . S
H164 C165 0.951 . S
C165 H164 0.951 . S
C165 C171 1.265 . S
H166 C171 0.950 . S
H167 C175 0.949 1_545 S
H168 C176 0.950 . S
H169 C177 0.951 . S
H170 C178 0.951 . S
C171 C165 1.265 . S
C171 H166 0.950 . S
C171 C172 1.478 . S
C172 C171 1.478 . S
C172 C173 1.397 . S
C172 C189 1.394 1_565 S
C173 C172 1.397 . S
C173 C174 1.438 . S
C173 C178 1.429 . S
C174 C173 1.438 . S
C174 C175 1.428 . S
C174 C187 1.394 1_565 S
C175 H167 0.949 1_565 S
C175 C174 1.428 . S
C175 C176 1.345 . S
C176 H168 0.950 . S
C176 C175 1.345 . S
C176 C177 1.424 . S
C177 H169 0.951 . S
C177 C176 1.424 . S
C177 C178 1.347 . S
C178 H170 0.951 . S
C178 C173 1.429 . S
C178 C177 1.347 . S
H179 C180 0.951 . S
C180 H179 0.951 . S
C180 C186 1.265 . S
H181 C186 0.950 . S
H182 C190 0.949 1_565 S
H183 C191 0.950 . S
H184 C192 0.951 . S
H185 C193 0.951 . S
C186 C180 1.265 . S
C186 H181 0.950 . S
C186 C187 1.478 . S
C187 C174 1.394 1_545 S
C187 C186 1.478 . S
C187 C188 1.397 . S
C188 C187 1.397 . S
C188 C189 1.438 . S
C188 C193 1.429 . S
C189 C172 1.394 1_545 S
C189 C188 1.438 . S
C189 C190 1.428 . S
C190 H182 0.949 1_545 S
C190 C189 1.428 . S
C190 C191 1.345 . S
C191 H183 0.950 . S
C191 C190 1.345 . S
C191 C192 1.424 . S
C192 H184 0.951 . S
C192 C191 1.424 . S
C192 C193 1.347 . S
C193 H185 0.951 . S
C193 C188 1.429 . S
C193 C192 1.347 . S
H194 C195 0.951 . S
C195 H194 0.951 . S
C195 C201 1.265 . S
H196 C201 0.950 . S
H197 C205 0.949 . S
H198 C206 0.950 . S
H199 C207 0.951 . S
H200 C208 0.951 . S
C201 C195 1.265 . S
C201 H196 0.950 . S
C201 C202 1.478 . S
C202 C201 1.478 . S
C202 C203 1.397 . S
C202 C219 1.394 . S
C203 C202 1.397 . S
C203 C204 1.438 . S
C203 C208 1.429 . S
C204 C203 1.438 . S
C204 C205 1.428 . S
C204 C217 1.394 . S
C205 H197 0.949 . S
C205 C204 1.428 . S
C205 C206 1.345 . S
C206 H198 0.950 . S
C206 C205 1.345 . S
C206 C207 1.424 . S
C207 H199 0.951 . S
C207 C206 1.424 . S
C207 C208 1.347 . S
C208 H200 0.951 . S
C208 C203 1.429 . S
C208 C207 1.347 . S
H209 C210 0.951 . S
C210 H209 0.951 . S
C210 C216 1.265 . S
H211 C216 0.950 . S
H212 C220 0.949 . S
H213 C221 0.950 . S
H214 C222 0.951 . S
H215 C223 0.951 . S
C216 C210 1.265 . S
C216 H211 0.950 . S
C216 C217 1.478 . S
C217 C204 1.394 . S
C217 C216 1.478 . S
C217 C218 1.397 . S
C218 C217 1.397 . S
C218 C219 1.438 . S
C218 C223 1.429 . S
C219 C202 1.394 . S
C219 C218 1.438 . S
C219 C220 1.428 . S
C220 H212 0.949 . S
C220 C219 1.428 . S
C220 C221 1.345 . S
C221 H213 0.950 . S
C221 C220 1.345 . S
C221 C222 1.424 . S
C222 H214 0.951 . S
C222 C221 1.424 . S
C222 C223 1.347 . S
C223 H215 0.951 . S
C223 C218 1.429 . S
C223 C222 1.347 . S
H224 C225 0.951 . S
C225 H224 0.951 . S
C225 C231 1.265 . S
H226 C231 0.950 . S
H227 C235 0.949 . S
H228 C236 0.950 . S
H229 C237 0.951 . S
H230 C238 0.951 . S
C231 C225 1.265 . S
C231 H226 0.950 . S
C231 C232 1.478 . S
C232 C231 1.478 . S
C232 C233 1.397 . S
C232 C249 1.394 . S
C233 C232 1.397 . S
C233 C234 1.438 . S
C233 C238 1.429 . S
C234 C233 1.438 . S
C234 C235 1.428 . S
C234 C247 1.394 . S
C235 H227 0.949 . S
C235 C234 1.428 . S
C235 C236 1.345 . S
C236 H228 0.950 . S
C236 C235 1.345 . S
C236 C237 1.424 . S
C237 H229 0.951 . S
C237 C236 1.424 . S
C237 C238 1.347 . S
C238 H230 0.951 . S
C238 C233 1.429 . S
C238 C237 1.347 . S
H239 C240 0.951 . S
C240 H239 0.951 . S
C240 C246 1.265 . S
H241 C246 0.950 . S
H242 C250 0.949 . S
H243 C251 0.950 . S
H244 C252 0.951 . S
H245 C253 0.951 . S
C246 C240 1.265 . S
C246 H241 0.950 . S
C246 C247 1.478 . S
C247 C234 1.394 . S
C247 C246 1.478 . S
C247 C248 1.397 . S
C248 C247 1.397 . S
C248 C249 1.438 . S
C248 C253 1.429 . S
C249 C232 1.394 . S
C249 C248 1.438 . S
C249 C250 1.428 . S
C250 H242 0.949 . S
C250 C249 1.428 . S
C250 C251 1.345 . S
C251 H243 0.950 . S
C251 C250 1.345 . S
C251 C252 1.424 . S
C252 H244 0.951 . S
C252 C251 1.424 . S
C252 C253 1.347 . S
C253 H245 0.951 . S
C253 C248 1.429 . S
C253 C252 1.347 . S
H254 C255 0.951 . S
C255 H254 0.951 . S
C255 C261 1.265 . S
H256 C261 0.950 . S
H257 C265 0.949 . S
H258 C266 0.950 . S
H259 C267 0.951 . S
H260 C268 0.951 . S
C261 C255 1.265 . S
C261 H256 0.950 . S
C261 C262 1.478 . S
C262 C261 1.478 . S
C262 C263 1.397 . S
C262 C279 1.394 . S
C263 C262 1.397 . S
C263 C264 1.438 . S
C263 C268 1.429 . S
C264 C263 1.438 . S
C264 C265 1.428 . S
C264 C277 1.394 . S
C265 H257 0.949 . S
C265 C264 1.428 . S
C265 C266 1.345 . S
C266 H258 0.950 . S
C266 C265 1.345 . S
C266 C267 1.424 . S
C267 H259 0.951 . S
C267 C266 1.424 . S
C267 C268 1.347 . S
C268 H260 0.951 . S
C268 C263 1.429 . S
C268 C267 1.347 . S
H269 C270 0.951 . S
C270 H269 0.951 . S
C270 C276 1.265 . S
H271 C276 0.950 . S
H272 C280 0.949 . S
H273 C281 0.950 . S
H274 C282 0.951 . S
H275 C283 0.951 . S
C276 C270 1.265 . S
C276 H271 0.950 . S
C276 C277 1.478 . S
C277 C264 1.394 . S
C277 C276 1.478 . S
C277 C278 1.397 . S
C278 C277 1.397 . S
C278 C279 1.438 . S
C278 C283 1.429 . S
C279 C262 1.394 . S
C279 C278 1.438 . S
C279 C280 1.428 . S
C280 H272 0.949 . S
C280 C279 1.428 . S
C280 C281 1.345 . S
C281 H273 0.950 . S
C281 C280 1.345 . S
C281 C282 1.424 . S
C282 H274 0.951 . S
C282 C281 1.424 . S
C282 C283 1.347 . S
C283 H275 0.951 . S
C283 C278 1.429 . S
C283 C282 1.347 . S
H284 C285 0.951 . S
C285 H284 0.951 . S
C285 C291 1.265 . S
H286 C291 0.950 . S
H287 C295 0.949 . S
H288 C296 0.950 . S
H289 C297 0.951 . S
H290 C298 0.951 . S
C291 C285 1.265 . S
C291 H286 0.950 . S
C291 C292 1.478 . S
C292 C291 1.478 . S
C292 C293 1.397 . S
C292 C309 1.394 . S
C293 C292 1.397 . S
C293 C294 1.438 . S
C293 C298 1.429 . S
C294 C293 1.438 . S
C294 C295 1.428 . S
C294 C307 1.394 . S
C295 H287 0.949 . S
C295 C294 1.428 . S
C295 C296 1.345 . S
C296 H288 0.950 . S
C296 C295 1.345 . S
C296 C297 1.424 . S
C297 H289 0.951 . S
C297 C296 1.424 . S
C297 C298 1.347 . S
C298 H290 0.951 . S
C298 C293 1.429 . S
C298 C297 1.347 . S
H299 C300 0.951 . S
C300 H299 0.951 . S
C300 C306 1.265 . S
H301 C306 0.950 . S
H302 C310 0.949 . S
H303 C311 0.950 . S
H304 C312 0.951 . S
H305 C313 0.951 . S
C306 C300 1.265 . S
C306 H301 0.950 . S
C306 C307 1.478 . S
C307 C294 1.394 . S
C307 C306 1.478 . S
C307 C308 1.397 . S
C308 C307 1.397 . S
C308 C309 1.438 . S
C308 C313 1.429 . S
C309 C292 1.394 . S
C309 C308 1.438 . S
C309 C310 1.428 . S
C310 H302 0.949 . S
C310 C309 1.428 . S
C310 C311 1.345 . S
C311 H303 0.950 . S
C311 C310 1.345 . S
C311 C312 1.424 . S
C312 H304 0.951 . S
C312 C311 1.424 . S
C312 C313 1.347 . S
C313 H305 0.951 . S
C313 C308 1.429 . S
C313 C312 1.347 . S
H314 C315 0.951 . S
C315 H314 0.951 . S
C315 C321 1.265 . S
H316 C321 0.950 . S
H317 C325 0.949 . S
H318 C326 0.950 . S
H319 C327 0.951 . S
H320 C328 0.951 . S
C321 C315 1.265 . S
C321 H316 0.950 . S
C321 C322 1.478 . S
C322 C321 1.478 . S
C322 C323 1.397 . S
C322 C339 1.394 . S
C323 C322 1.397 . S
C323 C324 1.438 . S
C323 C328 1.429 . S
C324 C323 1.438 . S
C324 C325 1.428 . S
C324 C337 1.394 . S
C325 H317 0.949 . S
C325 C324 1.428 . S
C325 C326 1.345 . S
C326 H318 0.950 . S
C326 C325 1.345 . S
C326 C327 1.424 . S
C327 H319 0.951 . S
C327 C326 1.424 . S
C327 C328 1.347 . S
C328 H320 0.951 . S
C328 C323 1.429 . S
C328 C327 1.347 . S
H329 C330 0.951 . S
C330 H329 0.951 . S
C330 C336 1.265 . S
H331 C336 0.950 . S
H332 C340 0.949 . S
H333 C341 0.950 . S
H334 C342 0.951 . S
H335 C343 0.951 . S
C336 C330 1.265 . S
C336 H331 0.950 . S
C336 C337 1.478 . S
C337 C324 1.394 . S
C337 C336 1.478 . S
C337 C338 1.397 . S
C338 C337 1.397 . S
C338 C339 1.438 . S
C338 C343 1.429 . S
C339 C322 1.394 . S
C339 C338 1.438 . S
C339 C340 1.428 . S
C340 H332 0.949 . S
C340 C339 1.428 . S
C340 C341 1.345 . S
C341 H333 0.950 . S
C341 C340 1.345 . S
C341 C342 1.424 . S
C342 H334 0.951 . S
C342 C341 1.424 . S
C342 C343 1.347 . S
C343 H335 0.951 . S
C343 C338 1.429 . S
C343 C342 1.347 . S
H344 C345 0.951 . S
C345 H344 0.951 . S
C345 C351 1.265 . S
H346 C351 0.950 . S
H347 C355 0.949 . S
H348 C356 0.950 . S
H349 C357 0.951 . S
H350 C358 0.951 . S
C351 C345 1.265 . S
C351 H346 0.950 . S
C351 C352 1.478 . S
C352 C351 1.478 . S
C352 C353 1.397 1_554 S
C352 C369 1.394 . S
C353 C352 1.397 1_556 S
C353 C354 1.438 . S
C353 C358 1.429 . S
C354 C353 1.438 . S
C354 C355 1.428 . S
C354 C367 1.394 . S
C355 H347 0.949 . S
C355 C354 1.428 . S
C355 C356 1.345 . S
C356 H348 0.950 . S
C356 C355 1.345 . S
C356 C357 1.424 . S
C357 H349 0.951 . S
C357 C356 1.424 . S
C357 C358 1.347 . S
C358 H350 0.951 . S
C358 C353 1.429 . S
C358 C357 1.347 . S
H359 C360 0.951 . S
C360 H359 0.951 . S
C360 C366 1.265 . S
H361 C366 0.950 . S
H362 C370 0.949 . S
H363 C371 0.950 . S
H364 C372 0.951 . S
H365 C373 0.951 . S
C366 C360 1.265 . S
C366 H361 0.950 . S
C366 C367 1.478 . S
C367 C354 1.394 . S
C367 C366 1.478 . S
C367 C368 1.397 1_556 S
C368 C367 1.397 1_554 S
C368 C369 1.438 . S
C368 C373 1.429 . S
C369 C352 1.394 . S
C369 C368 1.438 . S
C369 C370 1.428 . S
C370 H362 0.949 . S
C370 C369 1.428 . S
C370 C371 1.345 . S
C371 H363 0.950 . S
C371 C370 1.345 . S
C371 C372 1.424 . S
C372 H364 0.951 . S
C372 C371 1.424 . S
C372 C373 1.347 . S
C373 H365 0.951 . S
C373 C368 1.429 . S
C373 C372 1.347 . S
H374 C375 0.951 . S
C375 H374 0.951 . S
C375 C381 1.265 . S
H376 C381 0.950 . S
H377 C385 0.949 . S
H378 C386 0.950 . S
H379 C387 0.951 . S
H380 C388 0.951 . S
C381 C375 1.265 . S
C381 H376 0.950 . S
C381 C382 1.478 . S
C382 C381 1.478 . S
C382 C383 1.403 1_554 S
C382 C399 1.394 . S
C383 C382 1.403 1_556 S
C383 C384 1.431 1_455 S
C383 C388 1.429 . S
C384 C383 1.431 1_655 S
C384 C385 1.428 . S
C384 C397 1.394 . S
C385 H377 0.949 . S
C385 C384 1.428 . S
C385 C386 1.345 . S
C386 H378 0.950 . S
C386 C385 1.345 . S
C386 C387 1.424 . S
C387 H379 0.951 . S
C387 C386 1.424 . S
C387 C388 1.347 1_655 S
C388 H380 0.951 . S
C388 C383 1.429 . S
C388 C387 1.347 1_455 S
H389 C390 0.951 . S
C390 H389 0.951 . S
C390 C396 1.265 . S
H391 C396 0.950 . S
H392 C400 0.949 . S
H393 C401 0.950 . S
H394 C402 0.951 . S
H395 C403 0.951 . S
C396 C390 1.265 . S
C396 H391 0.950 . S
C396 C397 1.478 . S
C397 C384 1.394 . S
C397 C396 1.478 . S
C397 C398 1.403 1_556 S
C398 C397 1.403 1_554 S
C398 C399 1.431 1_655 S
C398 C403 1.429 . S
C399 C382 1.394 . S
C399 C398 1.431 1_455 S
C399 C400 1.428 . S
C400 H392 0.949 . S
C400 C399 1.428 . S
C400 C401 1.345 . S
C401 H393 0.950 . S
C401 C400 1.345 . S
C401 C402 1.424 . S
C402 H394 0.951 . S
C402 C401 1.424 . S
C402 C403 1.347 1_455 S
C403 H395 0.951 . S
C403 C398 1.429 . S
C403 C402 1.347 1_655 S
H404 C405 0.951 . S
C405 H404 0.951 . S
C405 C411 1.265 . S
H406 C411 0.950 . S
H407 C415 0.949 . S
H408 C416 0.950 . S
H409 C417 0.951 . S
H410 C418 0.951 . S
C411 C405 1.265 . S
C411 H406 0.950 . S
C411 C412 1.478 . S
C412 C411 1.478 . S
C412 C413 1.397 . S
C412 C429 1.394 . S
C413 C412 1.397 . S
C413 C414 1.438 1_565 S
C413 C418 1.429 . S
C414 C413 1.438 1_545 S
C414 C415 1.428 . S
C414 C427 1.394 . S
C415 H407 0.949 . S
C415 C414 1.428 . S
C415 C416 1.345 1_545 S
C416 H408 0.950 . S
C416 C415 1.345 1_565 S
C416 C417 1.424 . S
C417 H409 0.951 . S
C417 C416 1.424 . S
C417 C418 1.347 . S
C418 H410 0.951 . S
C418 C413 1.429 . S
C418 C417 1.347 . S
H419 C420 0.951 . S
C420 H419 0.951 . S
C420 C426 1.265 . S
H421 C426 0.950 . S
H422 C430 0.949 . S
H423 C431 0.950 . S
H424 C432 0.951 . S
H425 C433 0.951 . S
C426 C420 1.265 . S
C426 H421 0.950 . S
C426 C427 1.478 . S
C427 C414 1.394 . S
C427 C426 1.478 . S
C427 C428 1.397 . S
C428 C427 1.397 . S
C428 C429 1.438 1_545 S
C428 C433 1.429 . S
C429 C412 1.394 . S
C429 C428 1.438 1_565 S
C429 C430 1.428 . S
C430 H422 0.949 . S
C430 C429 1.428 . S
C430 C431 1.345 1_565 S
C431 H423 0.950 . S
C431 C430 1.345 1_545 S
C431 C432 1.424 . S
C432 H424 0.951 . S
C432 C431 1.424 . S
C432 C433 1.347 . S
C433 H425 0.951 . S
C433 C428 1.429 . S
C433 C432 1.347 . S
H434 C435 0.951 . S
C435 H434 0.951 . S
C435 C441 1.265 . S
H436 C441 0.950 . S
H437 C445 0.949 . S
H438 C446 0.950 . S
H439 C447 0.951 1_545 S
H440 C448 0.965 . S
C441 C435 1.265 . S
C441 H436 0.950 . S
C441 C442 1.478 . S
C442 C441 1.478 . S
C442 C443 1.397 1_655 S
C442 C459 1.394 . S
C443 C442 1.397 1_455 S
C443 C444 1.438 1_545 S
C443 C448 1.429 . S
C444 C443 1.438 1_565 S
C444 C445 1.428 . S
C444 C457 1.394 . S
C445 H437 0.949 . S
C445 C444 1.428 . S
C445 C446 1.345 . S
C446 H438 0.950 . S
C446 C445 1.345 . S
C446 C447 1.424 . S
C447 H439 0.951 1_565 S
C447 C446 1.424 . S
C447 C448 1.347 1_565 S
C448 H440 0.965 . S
C448 C443 1.429 . S
C448 C447 1.347 1_545 S
H449 C450 0.951 . S
C450 H449 0.951 . S
C450 C456 1.265 . S
H451 C456 0.950 . S
H452 C460 0.949 . S
H453 C461 0.950 . S
H454 C462 0.951 1_565 S
H455 C463 0.965 . S
C456 C450 1.265 . S
C456 H451 0.950 . S
C456 C457 1.478 . S
C457 C444 1.394 . S
C457 C456 1.478 . S
C457 C458 1.397 1_455 S
C458 C457 1.397 1_655 S
C458 C459 1.438 1_565 S
C458 C463 1.429 . S
C459 C442 1.394 . S
C459 C458 1.438 1_545 S
C459 C460 1.428 . S
C460 H452 0.949 . S
C460 C459 1.428 . S
C460 C461 1.345 . S
C461 H453 0.950 . S
C461 C460 1.345 . S
C461 C462 1.424 . S
C462 H454 0.951 1_545 S
C462 C461 1.424 . S
C462 C463 1.347 1_545 S
C463 H455 0.965 . S
C463 C458 1.429 . S
C463 C462 1.347 1_565 S
H464 C465 0.951 . S
C465 H464 0.951 . S
C465 C471 1.265 . S
H466 C471 0.950 . S
H467 C475 0.949 . S
H468 C476 0.950 . S
H469 C477 0.951 . S
H470 C478 0.951 . S
C471 C465 1.265 . S
C471 H466 0.950 . S
C471 C472 1.478 . S
C472 C471 1.478 . S
C472 C473 1.397 . S
C472 C489 1.394 . S
C473 C472 1.397 . S
C473 C474 1.438 . S
C473 C478 1.429 . S
C474 C473 1.438 . S
C474 C475 1.428 . S
C474 C487 1.394 . S
C475 H467 0.949 . S
C475 C474 1.428 . S
C475 C476 1.345 . S
C476 H468 0.950 . S
C476 C475 1.345 . S
C476 C477 1.424 . S
C477 H469 0.951 . S
C477 C476 1.424 . S
C477 C478 1.347 . S
C478 H470 0.951 . S
C478 C473 1.429 . S
C478 C477 1.347 . S
H479 C480 0.951 . S
C480 H479 0.951 . S
C480 C486 1.265 . S
H481 C486 0.950 . S
H482 C490 0.949 . S
H483 C491 0.950 . S
H484 C492 0.951 . S
H485 C493 0.951 . S
C486 C480 1.265 . S
C486 H481 0.950 . S
C486 C487 1.478 . S
C487 C474 1.394 . S
C487 C486 1.478 . S
C487 C488 1.397 . S
C488 C487 1.397 . S
C488 C489 1.438 . S
C488 C493 1.429 . S
C489 C472 1.394 . S
C489 C488 1.438 . S
C489 C490 1.428 . S
C490 H482 0.949 . S
C490 C489 1.428 . S
C490 C491 1.345 1_554 S
C491 H483 0.950 . S
C491 C490 1.345 1_556 S
C491 C492 1.424 . S
C492 H484 0.951 . S
C492 C491 1.424 . S
C492 C493 1.347 1_556 S
C493 H485 0.951 . S
C493 C488 1.429 . S
C493 C492 1.347 1_554 S
H494 C495 0.951 . S
C495 H494 0.951 . S
C495 C501 1.265 . S
H496 C501 0.950 . S
H497 C505 0.949 . S
H498 C506 0.950 . S
H499 C507 0.951 . S
H500 C508 0.951 . S
C501 C495 1.265 . S
C501 H496 0.950 . S
C501 C502 1.478 . S
C502 C501 1.478 . S
C502 C503 1.397 . S
C502 C519 1.394 . S
C503 C502 1.397 . S
C503 C504 1.438 1_545 S
C503 C508 1.429 . S
C504 C503 1.438 1_565 S
C504 C505 1.428 . S
C504 C517 1.394 . S
C505 H497 0.949 . S
C505 C504 1.428 . S
C505 C506 1.345 . S
C506 H498 0.950 . S
C506 C505 1.345 . S
C506 C507 1.424 1_565 S
C507 H499 0.951 . S
C507 C506 1.424 1_545 S
C507 C508 1.347 . S
C508 H500 0.951 . S
C508 C503 1.429 . S
C508 C507 1.347 . S
H509 C510 0.951 . S
C510 H509 0.951 . S
C510 C516 1.265 . S
H511 C516 0.950 . S
H512 C520 0.949 . S
H513 C521 0.950 . S
H514 C522 0.951 . S
H515 C523 0.951 . S
C516 C510 1.265 . S
C516 H511 0.950 . S
C516 C517 1.478 . S
C517 C504 1.394 . S
C517 C516 1.478 . S
C517 C518 1.397 . S
C518 C517 1.397 . S
C518 C519 1.438 1_565 S
C518 C523 1.429 . S
C519 C502 1.394 . S
C519 C518 1.438 1_545 S
C519 C520 1.428 . S
C520 H512 0.949 . S
C520 C519 1.428 . S
C520 C521 1.345 . S
C521 H513 0.950 . S
C521 C520 1.345 . S
C521 C522 1.424 1_545 S
C522 H514 0.951 . S
C522 C521 1.424 1_565 S
C522 C523 1.347 . S
C523 H515 0.951 . S
C523 C518 1.429 . S
C523 C522 1.347 . S
H524 C525 0.951 . S
C525 H524 0.951 . S
C525 C531 1.265 . S
H526 C531 0.950 . S
H527 C535 0.949 . S
H528 C536 0.950 . S
H529 C537 0.951 . S
H530 C538 0.951 . S
C531 C525 1.265 . S
C531 H526 0.950 . S
C531 C532 1.478 . S
C532 C531 1.478 . S
C532 C533 1.397 . S
C532 C549 1.394 . S
C533 C532 1.397 . S
C533 C534 1.438 . S
C533 C538 1.429 . S
C534 C533 1.438 . S
C534 C535 1.428 . S
C534 C547 1.394 . S
C535 H527 0.949 . S
C535 C534 1.428 . S
C535 C536 1.345 . S
C536 H528 0.950 . S
C536 C535 1.345 . S
C536 C537 1.424 . S
C537 H529 0.951 . S
C537 C536 1.424 . S
C537 C538 1.347 . S
C538 H530 0.951 . S
C538 C533 1.429 . S
C538 C537 1.347 . S
H539 C540 0.951 . S
C540 H539 0.951 . S
C540 C546 1.265 . S
H541 C546 0.950 . S
H542 C550 0.949 . S
H543 C551 0.950 . S
H544 C552 0.951 . S
H545 C553 0.951 . S
C546 C540 1.265 . S
C546 H541 0.950 . S
C546 C547 1.478 . S
C547 C534 1.394 . S
C547 C546 1.478 . S
C547 C548 1.397 . S
C548 C547 1.397 . S
C548 C549 1.438 . S
C548 C553 1.429 . S
C549 C532 1.394 . S
C549 C548 1.438 . S
C549 C550 1.428 . S
C550 H542 0.949 . S
C550 C549 1.428 . S
C550 C551 1.345 1_556 S
C551 H543 0.950 . S
C551 C550 1.345 1_554 S
C551 C552 1.424 . S
C552 H544 0.951 . S
C552 C551 1.424 . S
C552 C553 1.347 1_554 S
C553 H545 0.951 . S
C553 C548 1.429 . S
C553 C552 1.347 1_556 S
H554 C555 0.951 . S
C555 H554 0.951 . S
C555 C561 1.265 . S
H556 C561 0.950 . S
H557 C565 0.949 . S
H558 C566 0.950 . S
H559 C567 0.951 . S
H560 C568 0.951 . S
C561 C555 1.265 . S
C561 H556 0.950 . S
C561 C562 1.478 . S
C562 C561 1.478 . S
C562 C563 1.397 . S
C562 C579 1.394 . S
C563 C562 1.397 . S
C563 C564 1.438 1_565 S
C563 C568 1.429 . S
C564 C563 1.438 1_545 S
C564 C565 1.428 . S
C564 C577 1.394 . S
C565 H557 0.949 . S
C565 C564 1.428 . S
C565 C566 1.345 1_545 S
C566 H558 0.950 . S
C566 C565 1.345 1_565 S
C566 C567 1.424 . S
C567 H559 0.951 . S
C567 C566 1.424 . S
C567 C568 1.347 . S
C568 H560 0.951 . S
C568 C563 1.429 . S
C568 C567 1.347 . S
H569 C570 0.951 . S
C570 H569 0.951 . S
C570 C576 1.265 . S
H571 C576 0.950 . S
H572 C580 0.949 . S
H573 C581 0.950 . S
H574 C582 0.951 . S
H575 C583 0.951 . S
C576 C570 1.265 . S
C576 H571 0.950 . S
C576 C577 1.478 . S
C577 C564 1.394 . S
C577 C576 1.478 . S
C577 C578 1.397 . S
C578 C577 1.397 . S
C578 C579 1.438 1_545 S
C578 C583 1.429 . S
C579 C562 1.394 . S
C579 C578 1.438 1_565 S
C579 C580 1.428 . S
C580 H572 0.949 . S
C580 C579 1.428 . S
C580 C581 1.345 1_565 S
C581 H573 0.950 . S
C581 C580 1.345 1_545 S
C581 C582 1.424 . S
C582 H574 0.951 . S
C582 C581 1.424 . S
C582 C583 1.347 . S
C583 H575 0.951 . S
C583 C578 1.429 . S
C583 C582 1.347 . S
C105 C5 1.257 . S
C120 C18 1.271 . S
C135 C44 1.283 . S
C150 C31 1.248 . S
C165 C57 1.303 . S
C180 C70 1.379 . S
C195 C83 1.258 . S
C210 C96 1.270 . S
C225 C10 1.506 . S
C240 C36 1.439 . S
C255 C49 1.507 . S
C270 C23 1.440 . S
C285 C62 1.441 . S
C300 C88 1.508 . S
C315 C101 1.510 . S
C330 C75 1.442 . S
C345 C0 1.445 . S
C360 C52 1.445 . S
C375 C13 1.442 . S
C390 C65 1.442 . S
C405 C78 1.442 . S
C420 C26 1.442 . S
C435 C91 1.457 . S
C450 C39 1.457 . S
C465 C21 0.721 . S
C480 C8 0.721 . S
C495 C34 0.722 . S
C510 C47 0.717 . S
C525 C60 0.565 . S
C540 C73 0.567 . S
C555 C86 0.722 . S
C570 C99 0.719 . S
