# Generated by pormake.
# Topology acs-h, (5)-cn, num edge types: 1
# Building blocks:
#     Node 0, Type 0, BuildingBlock: XOMCOT_clean_sbu_0, # of connection points: 5
#     Node 1, Type 0, BuildingBlock: XOMCOT_clean_sbu_0, # of connection points: 5
#     Node 2, Type 0, BuildingBlock: XOMCOT_clean_sbu_0, # of connection points: 5
#     Node 3, Type 0, BuildingBlock: XOMCOT_clean_sbu_0, # of connection points: 5
#     Node 4, Type 0, BuildingBlock: XOMCOT_clean_sbu_0, # of connection points: 5
#     Node 5, Type 0, BuildingBlock: XOMCOT_clean_sbu_0, # of connection points: 5
#     Node 6, Type 0, BuildingBlock: XOMCOT_clean_sbu_0, # of connection points: 5
#     Node 7, Type 0, BuildingBlock: XOMCOT_clean_sbu_0, # of connection points: 5
#     Node 8, Type 0, BuildingBlock: XOMCOT_clean_sbu_0, # of connection points: 5
#     Node 9, Type 0, BuildingBlock: XOMCOT_clean_sbu_0, # of connection points: 5
#     Node 10, Type 0, BuildingBlock: XOMCOT_clean_sbu_0, # of connection points: 5
#     Node 11, Type 0, BuildingBlock: XOMCOT_clean_sbu_0, # of connection points: 5
#     Edge 12, Type (0, 0), BuildingBlock: AJUNOK_clean_linker_0, # of connection points: 2
#     Edge 13, Type (0, 0), BuildingBlock: AJUNOK_clean_linker_0, # of connection points: 2
#     Edge 14, Type (0, 0), BuildingBlock: AJUNOK_clean_linker_0, # of connection points: 2
#     Edge 15, Type (0, 0), BuildingBlock: AJUNOK_clean_linker_0, # of connection points: 2
#     Edge 16, Type (0, 0), BuildingBlock: AJUNOK_clean_linker_0, # of connection points: 2
#     Edge 17, Type (0, 0), BuildingBlock: AJUNOK_clean_linker_0, # of connection points: 2
#     Edge 18, Type (0, 0), BuildingBlock: AJUNOK_clean_linker_0, # of connection points: 2
#     Edge 19, Type (0, 0), BuildingBlock: AJUNOK_clean_linker_0, # of connection points: 2
#     Edge 20, Type (0, 0), BuildingBlock: AJUNOK_clean_linker_0, # of connection points: 2
#     Edge 21, Type (0, 0), BuildingBlock: AJUNOK_clean_linker_0, # of connection points: 2
#     Edge 22, Type (0, 0), BuildingBlock: AJUNOK_clean_linker_0, # of connection points: 2
#     Edge 23, Type (0, 0), BuildingBlock: AJUNOK_clean_linker_0, # of connection points: 2
#     Edge 24, Type (0, 0), BuildingBlock: AJUNOK_clean_linker_0, # of connection points: 2
#     Edge 25, Type (0, 0), BuildingBlock: AJUNOK_clean_linker_0, # of connection points: 2
#     Edge 26, Type (0, 0), BuildingBlock: AJUNOK_clean_linker_0, # of connection points: 2
#     Edge 27, Type (0, 0), BuildingBlock: AJUNOK_clean_linker_0, # of connection points: 2
#     Edge 28, Type (0, 0), BuildingBlock: AJUNOK_clean_linker_0, # of connection points: 2
#     Edge 29, Type (0, 0), BuildingBlock: AJUNOK_clean_linker_0, # of connection points: 2
#     Edge 30, Type (0, 0), BuildingBlock: AJUNOK_clean_linker_0, # of connection points: 2
#     Edge 31, Type (0, 0), BuildingBlock: AJUNOK_clean_linker_0, # of connection points: 2
#     Edge 32, Type (0, 0), BuildingBlock: AJUNOK_clean_linker_0, # of connection points: 2
#     Edge 33, Type (0, 0), BuildingBlock: AJUNOK_clean_linker_0, # of connection points: 2
#     Edge 34, Type (0, 0), BuildingBlock: AJUNOK_clean_linker_0, # of connection points: 2
#     Edge 35, Type (0, 0), BuildingBlock: AJUNOK_clean_linker_0, # of connection points: 2
#     Edge 36, Type (0, 0), BuildingBlock: AJUNOK_clean_linker_0, # of connection points: 2
#     Edge 37, Type (0, 0), BuildingBlock: AJUNOK_clean_linker_0, # of connection points: 2
#     Edge 38, Type (0, 0), BuildingBlock: AJUNOK_clean_linker_0, # of connection points: 2
#     Edge 39, Type (0, 0), BuildingBlock: AJUNOK_clean_linker_0, # of connection points: 2
#     Edge 40, Type (0, 0), BuildingBlock: AJUNOK_clean_linker_0, # of connection points: 2
#     Edge 41, Type (0, 0), BuildingBlock: AJUNOK_clean_linker_0, # of connection points: 2
# Relax obj value: 0.882
# Max RMSD: 0.275
# Mean RMSD: 0.275
data_MOF--net-acs-h--node1-XOMCOT_clean_sbu_0--edge1-AJUNOK_clean_linker_0
_symmetry_space_group_name_H-M    P1
_symmetry_Int_Tables_number       1
_symmetry_cell_setting            triclinic
loop_
_symmetry_equiv_pos_as_xyz
'x, y, z'
_cell_length_a     37.681941
_cell_length_b     37.641208
_cell_length_c     30.834001
_cell_angle_alpha  90.103471
_cell_angle_beta   89.960248
_cell_angle_gamma 119.97235
loop_
_atom_site_label
_atom_site_type_symbol
_atom_site_fract_x
_atom_site_fract_y
_atom_site_fract_z
_atom_type_partial_charge
Co0 Co 0.48482 0.1605 0.09422 0.0
C1 C 0.57212 0.18283 0.08642 0.0
C2 C 0.5396 0.15772 0.02714 0.0
C3 C 0.57911 0.16585 0.02181 0.0
N4 N 0.53483 0.16755 0.068 0.0
N5 N 0.5997 0.18203 0.05902 0.0
H6 H 0.57957 0.19563 0.11865 0.0
H7 H 0.51658 0.14639 0.0021 0.0
C8 C 0.5242 0.17327 0.18031 0.0
O9 O 0.53554 0.21219 0.176 0.0
N10 N 0.43492 0.15308 0.11992 0.0
C11 C 0.39589 0.12562 0.109 0.0
C12 C 0.36977 0.13008 0.13699 0.0
C13 C 0.4321 0.17424 0.15361 0.0
N14 N 0.39284 0.16087 0.16446 0.0
C15 C 0.44666 0.09305 0.03502 0.0
C16 C 0.44928 0.03683 0.09038 0.0
C17 C 0.4475 0.03002 0.04563 0.0
C18 C 0.44289 0.05698 0.018 0.0
C19 C 0.45354 0.07352 0.10579 0.0
N20 N 0.45701 0.10297 0.07747 0.0
H21 H 0.44626 0.11514 0.01304 0.0
H22 H 0.45675 0.07885 0.1402 0.0
H23 H 0.38685 0.10356 0.08292 0.0
H24 H 0.45817 0.1984 0.17052 0.0
O25 O 0.47572 0.18532 0.04277 0.0
O26 O 0.50986 0.21868 0.10145 0.0
O27 O 0.50199 0.14746 0.15129 0.0
C28 C 0.49715 0.22011 0.06294 0.0
H29 H 0.59143 0.16013 0.99266 0.0
H30 H 0.33664 0.11216 0.13738 0.0
H31 H 0.45086 0.01563 0.11295 0.0
H32 H 0.44078 0.05263 0.98318 0.0
Co33 Co 0.82808 0.32916 0.11245 0.0
C34 C 0.81399 0.39287 0.06781 0.0
C35 C 0.75898 0.34347 0.09416 0.0
C36 C 0.75003 0.37138 0.07656 0.0
N37 N 0.79933 0.35653 0.08885 0.0
N38 N 0.78464 0.40253 0.06033 0.0
H39 H 0.8456 0.4133 0.05954 0.0
H40 H 0.73727 0.31687 0.11215 0.0
C41 C 0.86698 0.40829 0.16342 0.0
O42 O 0.87849 0.42846 0.12691 0.0
N43 N 0.85494 0.30156 0.13602 0.0
C44 C 0.86992 0.28108 0.11377 0.0
C45 C 0.87288 0.25404 0.14167 0.0
C46 C 0.84981 0.28754 0.17685 0.0
N47 N 0.86018 0.25828 0.18125 0.0
C48 C 0.87072 0.36348 0.03383 0.0
C49 C 0.94404 0.41865 0.07263 0.0
C50 C 0.93566 0.42554 0.0302 0.0
C51 C 0.90036 0.39564 0.00937 0.0
C52 C 0.91371 0.38548 0.09557 0.0
N53 N 0.87589 0.36239 0.07748 0.0
H54 H 0.84149 0.34288 0.01904 0.0
H55 H 0.91871 0.38171 0.12937 0.0
H56 H 0.87394 0.28236 0.07896 0.0
H57 H 0.83329 0.29433 0.2012 0.0
O58 O 0.79935 0.28509 0.07171 0.0
O59 O 0.77731 0.28751 0.13765 0.0
O60 O 0.84794 0.36898 0.16354 0.0
C61 C 0.77033 0.26863 0.10047 0.0
H62 H 0.72123 0.37098 0.07962 0.0
H63 H 0.87967 0.23027 0.13261 0.0
H64 H 0.97192 0.44065 0.08898 0.0
H65 H 0.89365 0.39962 0.97615 0.0
Co66 Co 0.67158 0.49564 0.11049 0.0
C67 C 0.61692 0.41788 0.05744 0.0
C68 C 0.66741 0.41733 0.08811 0.0
C69 C 0.64484 0.38091 0.06675 0.0
N70 N 0.65045 0.44135 0.08245 0.0
N71 N 0.61286 0.38101 0.04776 0.0
H72 H 0.59361 0.42533 0.0493 0.0
H73 H 0.69331 0.42422 0.10856 0.0
C74 C 0.59774 0.44093 0.16259 0.0
O75 O 0.57798 0.42964 0.12573 0.0
N76 N 0.69392 0.54819 0.13858 0.0
C77 C 0.71066 0.58524 0.1194 0.0
C78 C 0.73442 0.61479 0.1496 0.0
C79 C 0.70692 0.55556 0.17992 0.0
N80 N 0.73166 0.5959 0.18758 0.0
C81 C 0.62408 0.50164 0.04138 0.0
C82 C 0.56873 0.50768 0.09565 0.0
C83 C 0.55787 0.49522 0.05264 0.0
C84 C 0.58731 0.4958 0.02434 0.0
C85 C 0.60585 0.5133 0.11111 0.0
N86 N 0.62986 0.50456 0.08509 0.0
H87 H 0.64538 0.49851 0.0204 0.0
H88 H 0.61299 0.52 0.14514 0.0
H89 H 0.70906 0.59007 0.08506 0.0
H90 H 0.7026 0.53163 0.20239 0.0
O91 O 0.71235 0.51943 0.06525 0.0
O92 O 0.72 0.49431 0.12722 0.0
O93 O 0.63605 0.46766 0.1634 0.0
C94 C 0.73466 0.50975 0.08921 0.0
H95 H 0.64917 0.35461 0.06886 0.0
H96 H 0.75493 0.64703 0.14323 0.0
H97 H 0.54739 0.50938 0.11794 0.0
H98 H 0.58061 0.48852 0.99025 0.0
Co99 Co 0.82888 0.5119 0.39068 0.0
C100 C 0.82331 0.43146 0.40694 0.0
C101 C 0.78878 0.44349 0.45396 0.0
C102 C 0.78414 0.40555 0.46221 0.0
N103 N 0.81292 0.45966 0.41879 0.0
N104 N 0.80593 0.39798 0.43265 0.0
H105 H 0.84246 0.43461 0.37947 0.0
H106 H 0.77458 0.45759 0.47213 0.0
C107 C 0.86978 0.50937 0.30585 0.0
O108 O 0.88425 0.54845 0.29784 0.0
N109 N 0.84411 0.56366 0.36325 0.0
C110 C 0.86418 0.60148 0.38112 0.0
C111 C 0.85795 0.62805 0.3555 0.0
C112 C 0.82581 0.56767 0.32762 0.0
N113 N 0.83409 0.60642 0.32193 0.0
C114 C 0.8775 0.5294 0.46556 0.0
C115 C 0.94728 0.54388 0.42135 0.0
C116 C 0.9416 0.53003 0.46426 0.0
C117 C 0.9078 0.5258 0.48747 0.0
C118 C 0.91604 0.54691 0.40073 0.0
N119 N 0.8801 0.53532 0.42182 0.0
H120 H 0.84954 0.52193 0.48253 0.0
H121 H 0.91955 0.55493 0.36703 0.0
H122 H 0.87929 0.60854 0.41233 0.0
H123 H 0.80443 0.54214 0.30775 0.0
O124 O 0.79613 0.52272 0.43158 0.0
O125 O 0.77458 0.48989 0.36874 0.0
O126 O 0.85032 0.49316 0.34082 0.0
C127 C 0.76635 0.50348 0.40383 0.0
H128 H 0.76394 0.38416 0.48635 0.0
H129 H 0.86761 0.65979 0.36254 0.0
H130 H 0.97356 0.54836 0.40268 0.0
H131 H 0.9031 0.51618 0.52109 0.0
Co132 Co 0.48584 0.3098 0.39459 0.0
C133 C 0.566 0.38309 0.41195 0.0
C134 C 0.55606 0.33452 0.45512 0.0
C135 C 0.59385 0.36778 0.46372 0.0
N136 N 0.53886 0.34371 0.42189 0.0
N137 N 0.6003 0.39833 0.43633 0.0
H138 H 0.56042 0.40042 0.38776 0.0
H139 H 0.5425 0.30593 0.4723 0.0
C140 C 0.49348 0.34962 0.306 0.0
O141 O 0.45399 0.32816 0.29847 0.0
N142 N 0.43312 0.27601 0.36742 0.0
C143 C 0.39621 0.27223 0.37601 0.0
C144 C 0.36819 0.24567 0.34589 0.0
C145 C 0.42673 0.25077 0.33374 0.0
N146 N 0.38781 0.2323 0.31993 0.0
C147 C 0.47392 0.35026 0.46524 0.0
C148 C 0.46589 0.40673 0.41526 0.0
C149 C 0.47838 0.4161 0.4585 0.0
C150 C 0.47991 0.38638 0.48437 0.0
C151 C 0.46028 0.37029 0.39751 0.0
N152 N 0.46795 0.34453 0.4216 0.0
H153 H 0.47913 0.32929 0.48441 0.0
H154 H 0.45274 0.36459 0.36377 0.0
H155 H 0.39018 0.28843 0.40131 0.0
H156 H 0.45076 0.24813 0.31741 0.0
O157 O 0.47046 0.26771 0.43901 0.0
O158 O 0.50205 0.27141 0.37701 0.0
O159 O 0.50849 0.34649 0.34193 0.0
C160 C 0.48645 0.25205 0.41302 0.0
H161 H 0.61565 0.36868 0.48717 0.0
H162 H 0.33657 0.23799 0.34234 0.0
H163 H 0.46377 0.4287 0.39437 0.0
H164 H 0.48854 0.39229 0.51825 0.0
Co165 Co 0.67918 0.17322 0.37724 0.0
C166 C 0.6085 0.17781 0.41595 0.0
C167 C 0.66139 0.2374 0.41006 0.0
C168 C 0.63 0.2416 0.4269 0.0
N169 N 0.64822 0.19717 0.40312 0.0
N170 N 0.59683 0.20413 0.43051 0.0
H171 H 0.58794 0.14523 0.41462 0.0
H172 H 0.69095 0.26278 0.40151 0.0
C173 C 0.60274 0.13368 0.31896 0.0
O174 O 0.57875 0.1098 0.34968 0.0
N175 N 0.70996 0.15029 0.35185 0.0
C176 C 0.72981 0.13444 0.37372 0.0
C177 C 0.76008 0.13588 0.34737 0.0
C178 C 0.72766 0.16029 0.31257 0.0
N179 N 0.7585 0.15211 0.30902 0.0
C180 C 0.64194 0.12609 0.45233 0.0
C181 C 0.59436 0.05282 0.4092 0.0
C182 C 0.58309 0.05831 0.45096 0.0
C183 C 0.60925 0.09415 0.47392 0.0
C184 C 0.6275 0.08581 0.38888 0.0
N185 N 0.6469 0.12304 0.40899 0.0
H186 H 0.65975 0.15516 0.46876 0.0
H187 H 0.63402 0.08298 0.35529 0.0
H188 H 0.72597 0.12719 0.40794 0.0
H189 H 0.72226 0.17879 0.28955 0.0
O190 O 0.72273 0.20229 0.41921 0.0
O191 O 0.71863 0.22577 0.3547 0.0
O192 O 0.64147 0.15602 0.32483 0.0
C193 C 0.7385 0.23201 0.39098 0.0
H194 H 0.63046 0.27024 0.4326 0.0
H195 H 0.78434 0.13018 0.3573 0.0
H196 H 0.57554 0.02488 0.39111 0.0
H197 H 0.60202 0.09941 0.50646 0.0
Co198 Co 0.49754 0.82931 0.87234 0.0
C199 C 0.41674 0.80828 0.91575 0.0
C200 C 0.41531 0.75657 0.88526 0.0
C201 C 0.37749 0.74428 0.90235 0.0
N202 N 0.44068 0.79698 0.8935 0.0
N203 N 0.37833 0.77678 0.92124 0.0
H204 H 0.42603 0.83887 0.9268 0.0
H205 H 0.42222 0.73695 0.86583 0.0
C206 C 0.45836 0.87212 0.82695 0.0
O207 O 0.44788 0.87982 0.86473 0.0
N208 N 0.55271 0.85914 0.85041 0.0
C209 C 0.58697 0.87125 0.87397 0.0
C210 C 0.61631 0.87074 0.8476 0.0
C211 C 0.56217 0.85313 0.81002 0.0
N212 N 0.6003 0.85867 0.80756 0.0
C213 C 0.50061 0.86457 0.95502 0.0
C214 C 0.52275 0.94174 0.92384 0.0
C215 C 0.50565 0.93017 0.96527 0.0
C216 C 0.49752 0.89246 0.98226 0.0
C217 C 0.52573 0.91296 0.89795 0.0
N218 N 0.50968 0.8736 0.9122 0.0
H219 H 0.49083 0.83401 0.96681 0.0
H220 H 0.5362 0.9208 0.86484 0.0
H221 H 0.58839 0.87375 0.90896 0.0
H222 H 0.53912 0.83723 0.78529 0.0
O223 O 0.51279 0.79794 0.90928 0.0
O224 O 0.49067 0.78148 0.84165 0.0
O225 O 0.4789 0.85343 0.82451 0.0
C226 C 0.50267 0.77208 0.87728 0.0
H227 H 0.35028 0.71464 0.89764 0.0
H228 H 0.64463 0.87291 0.85854 0.0
H229 H 0.53036 0.9713 0.91043 0.0
H230 H 0.48514 0.88318 0.01463 0.0
Co231 Co 0.15366 0.66778 0.8908 0.0
C232 C 0.19038 0.61627 0.90796 0.0
C233 C 0.16348 0.62253 0.96645 0.0
C234 C 0.18092 0.59877 0.97491 0.0
N235 N 0.16839 0.63276 0.92401 0.0
N236 N 0.19822 0.5951 0.93818 0.0
H237 H 0.20095 0.6203 0.87472 0.0
H238 H 0.14954 0.63205 0.99074 0.0
C239 C 0.11315 0.5869 0.84643 0.0
O240 O 0.10182 0.57088 0.88529 0.0
N241 N 0.14106 0.70312 0.85742 0.0
C242 C 0.12796 0.72812 0.87279 0.0
C243 C 0.13275 0.75565 0.8407 0.0
C244 C 0.1532 0.71527 0.81644 0.0
N245 N 0.14847 0.74728 0.80545 0.0
C246 C 0.09445 0.64555 0.95931 0.0
C247 C 0.02915 0.59202 0.90845 0.0
C248 C 0.02751 0.58588 0.95333 0.0
C249 C 0.05881 0.61567 0.9793 0.0
C250 C 0.06559 0.62222 0.89024 0.0
N251 N 0.09933 0.64331 0.91588 0.0
H252 H 0.11959 0.66752 0.97899 0.0
H253 H 0.06801 0.62502 0.85535 0.0
H254 H 0.11882 0.72848 0.90597 0.0
H255 H 0.16903 0.70374 0.79668 0.0
O256 O 0.18369 0.71153 0.93219 0.0
O257 O 0.20956 0.69923 0.87286 0.0
O258 O 0.13345 0.626 0.84203 0.0
C259 C 0.21528 0.72118 0.9075 0.0
H260 H 0.1804 0.58507 0.00587 0.0
H261 H 0.12799 0.78162 0.84397 0.0
H262 H 0.00449 0.57089 0.88749 0.0
H263 H 0.05797 0.61319 0.01432 0.0
Co264 Co 0.33233 0.48696 0.89305 0.0
C265 C 0.39799 0.57281 0.8929 0.0
C266 C 0.39736 0.54469 0.95347 0.0
C267 C 0.42988 0.5841 0.95347 0.0
N268 N 0.37756 0.53746 0.91524 0.0
N269 N 0.43037 0.60186 0.91533 0.0
H270 H 0.3884 0.57723 0.86132 0.0
H271 H 0.38908 0.5235 0.98003 0.0
C272 C 0.36229 0.50123 0.80364 0.0
O273 O 0.32732 0.49842 0.79264 0.0
N274 N 0.28763 0.43619 0.86984 0.0
C275 C 0.28385 0.39849 0.8692 0.0
C276 C 0.25014 0.37251 0.84466 0.0
C277 C 0.25587 0.43223 0.84605 0.0
N278 N 0.23277 0.39398 0.83032 0.0
C279 C 0.34115 0.4465 0.96732 0.0
C280 C 0.40548 0.43944 0.93415 0.0
C281 C 0.39934 0.43743 0.97893 0.0
C282 C 0.36516 0.43823 0.99544 0.0
C283 C 0.38174 0.44894 0.90758 0.0
N284 N 0.35242 0.45602 0.92492 0.0
H285 H 0.31687 0.45035 0.98085 0.0
H286 H 0.38919 0.45286 0.87363 0.0
H287 H 0.30473 0.39027 0.88386 0.0
H288 H 0.25097 0.45732 0.83769 0.0
O289 O 0.29606 0.48985 0.93599 0.0
O290 O 0.30806 0.51788 0.87073 0.0
O291 O 0.3676 0.49315 0.84222 0.0
C292 C 0.28973 0.51182 0.90785 0.0
H293 H 0.45121 0.59864 0.97992 0.0
H294 H 0.24006 0.34084 0.83673 0.0
H295 H 0.43137 0.43841 0.92022 0.0
H296 H 0.35945 0.4364 0.03003 0.0
Co297 Co 0.14583 0.48903 0.61724 0.0
C298 C 0.191 0.57459 0.58324 0.0
C299 C 0.12642 0.55129 0.58808 0.0
C300 C 0.14491 0.59204 0.57728 0.0
N301 N 0.15528 0.54022 0.59195 0.0
N302 N 0.18552 0.6067 0.5749 0.0
H303 H 0.22072 0.57705 0.58528 0.0
H304 H 0.09438 0.53202 0.59583 0.0
C305 C 0.09826 0.48283 0.7002 0.0
O306 O 0.08493 0.44359 0.70567 0.0
N307 N 0.13584 0.43817 0.64267 0.0
C308 C 0.11801 0.40038 0.62477 0.0
C309 C 0.12165 0.37411 0.65338 0.0
C310 C 0.15062 0.43468 0.68103 0.0
N311 N 0.14173 0.39598 0.68874 0.0
C312 C 0.10219 0.46548 0.53862 0.0
C313 C 0.02789 0.44663 0.57526 0.0
C314 C 0.03618 0.46013 0.5322 0.0
C315 C 0.07195 0.46529 0.51263 0.0
C316 C 0.05885 0.44663 0.59994 0.0
N317 N 0.09679 0.46077 0.58241 0.0
H318 H 0.13194 0.47549 0.52453 0.0
H319 H 0.0535 0.43991 0.63389 0.0
H320 H 0.10444 0.39269 0.59279 0.0
H321 H 0.16814 0.4602 0.70278 0.0
O322 O 0.185 0.48669 0.57817 0.0
O323 O 0.19952 0.5164 0.64275 0.0
O324 O 0.11786 0.50127 0.666 0.0
C325 C 0.21242 0.50712 0.60782 0.0
H326 H 0.13009 0.6103 0.5752 0.0
H327 H 0.111 0.34184 0.64845 0.0
H328 H -0.0001 0.44103 0.59112 0.0
H329 H 0.07857 0.47412 0.47888 0.0
Co330 Co 0.50416 0.65721 0.60925 0.0
C331 C 0.41608 0.61547 0.58579 0.0
C332 C 0.44421 0.58176 0.56319 0.0
C333 C 0.40266 0.55785 0.55762 0.0
N334 N 0.45312 0.61846 0.58026 0.0
N335 N 0.38504 0.57887 0.5725 0.0
H336 H 0.41129 0.63807 0.60231 0.0
H337 H 0.46536 0.5706 0.55961 0.0
C338 C 0.49655 0.60966 0.69285 0.0
O339 O 0.5322 0.63671 0.70896 0.0
N340 N 0.55431 0.69528 0.63866 0.0
C341 C 0.59188 0.71625 0.62054 0.0
C342 C 0.61697 0.74856 0.64735 0.0
C343 C 0.55701 0.71529 0.67589 0.0
N344 N 0.59491 0.74737 0.6822 0.0
C345 C 0.53494 0.63932 0.53329 0.0
C346 C 0.54916 0.58165 0.57265 0.0
C347 C 0.54239 0.57963 0.5278 0.0
C348 C 0.53966 0.61148 0.50761 0.0
C349 C 0.5449 0.61047 0.59703 0.0
N350 N 0.53314 0.63533 0.57733 0.0
H351 H 0.5271 0.66017 0.51778 0.0
H352 H 0.54685 0.60974 0.63182 0.0
H353 H 0.59964 0.71066 0.58845 0.0
H354 H 0.531 0.70853 0.69633 0.0
O355 O 0.51211 0.70074 0.57033 0.0
O356 O 0.47819 0.68574 0.63261 0.0
O357 O 0.48582 0.61407 0.65506 0.0
C358 C 0.49058 0.70832 0.59793 0.0
H359 H 0.3864 0.52595 0.54781 0.0
H360 H 0.64808 0.77241 0.64065 0.0
H361 H 0.55271 0.55829 0.5893 0.0
H362 H 0.53593 0.6117 0.47279 0.0
Co363 Co 0.34106 0.84749 0.59493 0.0
C364 C 0.38956 0.80796 0.57027 0.0
C365 C 0.42401 0.8731 0.56355 0.0
C366 C 0.45022 0.85804 0.55806 0.0
N367 N 0.38571 0.84173 0.5709 0.0
N368 N 0.42845 0.81711 0.5627 0.0
H369 H 0.36547 0.77754 0.5787 0.0
H370 H 0.43325 0.90507 0.56652 0.0
C371 C 0.3796 0.89614 0.67794 0.0
O372 O 0.35069 0.9052 0.68512 0.0
N373 N 0.29707 0.85315 0.61959 0.0
C374 C 0.27199 0.86347 0.59881 0.0
C375 C 0.23883 0.85415 0.62527 0.0
C376 C 0.27866 0.83722 0.65775 0.0
N377 N 0.24376 0.83826 0.6623 0.0
C378 C 0.36239 0.8917 0.51635 0.0
C379 C 0.4053 0.96745 0.5562 0.0
C380 C 0.41735 0.96168 0.515 0.0
C381 C 0.39269 0.92465 0.49318 0.0
C382 C 0.37501 0.93355 0.57823 0.0
N383 N 0.35803 0.89566 0.55969 0.0
H384 H 0.34769 0.86163 0.50156 0.0
H385 H 0.36897 0.93707 0.61158 0.0
H386 H 0.27608 0.8744 0.56576 0.0
H387 H 0.28948 0.82316 0.6809 0.0
O388 O 0.30174 0.8059 0.5561 0.0
O389 O 0.31886 0.79495 0.62158 0.0
O390 O 0.38047 0.87884 0.64279 0.0
C391 C 0.29726 0.77997 0.58658 0.0
H392 H 0.48327 0.87608 0.55566 0.0
H393 H 0.21244 0.8571 0.61732 0.0
H394 H 0.42256 0.99639 0.57317 0.0
H395 H 0.40049 0.91934 0.46092 0.0
C396 C 0.60364 0.17922 0.25975 0.0
C397 C 0.58374 0.14074 0.2803 0.0
C398 C 0.58393 0.18932 0.22765 0.0
C399 C 0.54378 0.16116 0.21427 0.0
H400 H 0.63414 0.20243 0.26967 0.0
H401 H 0.60038 0.21954 0.2132 0.0
S402 S 0.47888 0.05559 0.25606 0.0
N403 N 0.52198 0.07376 0.28383 0.0
N404 N 0.48526 0.09272 0.22287 0.0
C405 C 0.52401 0.12208 0.23332 0.0
C406 C 0.54388 0.11191 0.26651 0.0
C407 C 0.84487 0.41544 0.23798 0.0
C408 C 0.87294 0.43214 0.20362 0.0
C409 C 0.84527 0.44037 0.27211 0.0
C410 C 0.8737 0.48282 0.27295 0.0
H411 H 0.821 0.38351 0.23731 0.0
H412 H 0.82176 0.42661 0.29677 0.0
S413 S 0.9585 0.53959 0.19495 0.0
N414 N 0.93358 0.49234 0.17574 0.0
N415 N 0.93397 0.53908 0.23952 0.0
C416 C 0.90372 0.49914 0.24043 0.0
C417 C 0.90346 0.4738 0.2059 0.0
C418 C 0.58814 0.40907 0.23587 0.0
C419 C 0.57371 0.42377 0.20248 0.0
C420 C 0.56236 0.3863 0.27029 0.0
C421 C 0.5213 0.37737 0.27214 0.0
H422 H 0.61874 0.41333 0.2342 0.0
H423 H 0.57413 0.37406 0.29453 0.0
S424 S 0.47062 0.41327 0.19479 0.0
N425 N 0.51719 0.43105 0.17509 0.0
N426 N 0.46879 0.38821 0.23939 0.0
C427 C 0.50726 0.39361 0.23985 0.0
C428 C 0.53347 0.41683 0.2051 0.0
C429 C 0.41825 0.90068 0.79202 0.0
C430 C 0.44411 0.88381 0.78751 0.0
C431 C 0.39973 0.90733 0.75607 0.0
C432 C 0.40649 0.8977 0.71396 0.0
H433 H 0.41064 0.90725 0.82381 0.0
H434 H 0.37836 0.91818 0.76172 0.0
S435 S 0.47705 0.85928 0.68369 0.0
N436 N 0.47928 0.86208 0.73713 0.0
N437 N 0.4452 0.87526 0.6693 0.0
C438 C 0.4349 0.88388 0.70862 0.0
C439 C 0.45348 0.87673 0.74541 0.0
C440 C 0.11704 0.55111 0.73234 0.0
C441 C 0.09592 0.50799 0.73611 0.0
C442 C 0.12114 0.57631 0.76767 0.0
C443 C 0.10419 0.55954 0.80831 0.0
H444 H 0.13207 0.56584 0.70229 0.0
H445 H 0.13897 0.60923 0.76334 0.0
S446 S 0.04098 0.44849 0.83394 0.0
N447 N 0.05435 0.44964 0.78276 0.0
N448 N 0.0617 0.49688 0.84909 0.0
C449 C 0.08082 0.51646 0.8119 0.0
C450 C 0.07675 0.49074 0.77586 0.0
C451 C 0.42445 0.55351 0.70385 0.0
C452 C 0.46483 0.57637 0.72002 0.0
C453 C 0.39181 0.52731 0.73054 0.0
C454 C 0.39812 0.52221 0.77437 0.0
H455 H 0.41732 0.55734 0.67076 0.0
H456 H 0.36116 0.51228 0.71705 0.0
S457 S 0.49858 0.56998 0.83129 0.0
N458 N 0.50978 0.58876 0.78165 0.0
N459 N 0.44855 0.53863 0.83176 0.0
C460 C 0.43874 0.54212 0.79017 0.0
C461 C 0.47205 0.56941 0.76302 0.0
C462 C 0.49382 0.00066 0.04356 0.0
C463 C 0.4585 0.00032 0.02774 0.0
C464 C 0.50889 0.97744 0.02363 0.0
C465 C 0.48933 0.9536 0.98707 0.0
H466 H 0.51091 0.02024 0.07052 0.0
H467 H 0.53647 0.97893 0.03613 0.0
S468 S 0.39391 0.93843 0.9356 0.0
N469 N 0.40272 0.97126 0.97544 0.0
N470 N 0.43161 0.92807 0.93754 0.0
C471 C 0.45335 0.95171 0.97179 0.0
C472 C 0.4378 0.97505 0.9922 0.0
C473 C 0.97894 0.47195 0.9712 0.0
C474 C 0.95879 0.46649 0.01088 0.0
C475 C -0.00049 0.51062 0.95181 0.0
C476 C 2e-05 0.54483 0.97126 0.0
H477 H 0.9793 0.44636 0.95549 0.0
H478 H 0.0163 0.51402 0.92211 0.0
S479 S 0.94681 0.54467 0.07226 0.0
N480 N 0.93714 0.49696 0.0671 0.0
N481 N 0.97581 0.56987 0.03037 0.0
C482 C 0.97858 0.53927 0.01009 0.0
C483 C 0.95788 0.49997 0.02996 0.0
C484 C 0.4541 0.4834 0.02926 0.0
C485 C 0.43417 0.44575 0.00694 0.0
C486 C 0.49394 0.49898 0.04504 0.0
C487 C 0.51496 0.47738 0.03874 0.0
H488 H 0.43999 0.50234 0.03175 0.0
H489 H 0.50907 0.5289 0.06037 0.0
S490 S 0.47333 0.37413 0.98949 0.0
N491 N 0.43621 0.38507 0.98402 0.0
N492 N 0.511 0.41389 0.01458 0.0
C493 C 0.49416 0.43825 0.01954 0.0
C494 C 0.4537 0.4225 0.00343 0.0
C495 C 0.96961 0.45488 0.51179 0.0
C496 C 0.01258 0.47722 0.5117 0.0
C497 C 0.94695 0.47263 0.49699 0.0
C498 C 0.96655 0.51338 0.48197 0.0
H499 H 0.95347 0.4236 0.52359 0.0
H500 H 0.91382 0.45417 0.49684 0.0
S501 S 0.07824 0.58571 0.47764 0.0
N502 N 0.07389 0.54284 0.49698 0.0
N503 N 0.03095 0.57588 0.46892 0.0
C504 C 0.00939 0.53607 0.48176 0.0
C505 C 0.03251 0.51807 0.49675 0.0
C506 C 0.53338 0.47875 0.49457 0.0
C507 C 0.49447 0.45821 0.4749 0.0
C508 C 0.54992 0.51903 0.50966 0.0
C509 C 0.52827 0.54021 0.50514 0.0
H510 H 0.55118 0.46355 0.49831 0.0
H511 H 0.57948 0.53347 0.52565 0.0
S512 S 0.42473 0.49947 0.45678 0.0
N513 N 0.43453 0.46151 0.4522 0.0
N514 N 0.46558 0.5374 0.48 0.0
C515 C 0.4896 0.52016 0.48477 0.0
C516 C 0.47269 0.4791 0.46978 0.0
C517 C 0.50754 0.02295 0.44056 0.0
C518 C 0.54119 0.03126 0.46721 0.0
C519 C 0.46744 0.00167 0.45654 0.0
C520 C 0.45975 0.98859 0.49986 0.0
H521 H 0.51228 0.03376 0.40736 0.0
H522 H 0.4423 0.9954 0.43494 0.0
S523 S 0.5372 0.00047 0.5819 0.0
N524 N 0.56418 0.02304 0.53804 0.0
N525 N 0.489 0.98383 0.56863 0.0
C526 C 0.49319 0.99654 0.52674 0.0
C527 C 0.53387 0.01767 0.51027 0.0
C528 C 0.3863 0.23362 0.24113 0.0
C529 C 0.37476 0.2108 0.27971 0.0
C530 C 0.38903 0.21602 0.20217 0.0
C531 C 0.37964 0.17498 0.2007 0.0
H532 H 0.39698 0.26619 0.24208 0.0
H533 H 0.40122 0.23518 0.17369 0.0
S534 S 0.3452 0.10181 0.2921 0.0
N535 N 0.35189 0.14495 0.31375 0.0
N536 N 0.35581 0.1113 0.23994 0.0
C537 C 0.36494 0.15102 0.23821 0.0
C538 C 0.36274 0.16912 0.27798 0.0
C539 C 0.78922 0.16066 0.23708 0.0
C540 C 0.79212 0.17404 0.28005 0.0
C541 C 0.81533 0.1873 0.20503 0.0
C542 C 0.84433 0.22825 0.21513 0.0
H543 H 0.7647 0.13057 0.22777 0.0
H544 H 0.81011 0.17709 0.1716 0.0
S545 S 0.86553 0.27662 0.32369 0.0
N546 N 0.82791 0.22922 0.33185 0.0
N547 N 0.87653 0.27965 0.27146 0.0
C548 C 0.84935 0.24082 0.25859 0.0
C549 C 0.82325 0.21361 0.29115 0.0
C550 C 0.82778 0.62923 0.24968 0.0
C551 C 0.81262 0.61782 0.29197 0.0
C552 C 0.80178 0.62648 0.21569 0.0
C553 C 0.75984 0.61154 0.22316 0.0
H554 H 0.8589 0.63683 0.24234 0.0
H555 H 0.81355 0.63217 0.18285 0.0
S556 S 0.70686 0.58273 0.32912 0.0
N557 N 0.75467 0.59549 0.3404 0.0
N558 N 0.70548 0.58944 0.27631 0.0
C559 C 0.74528 0.6033 0.26587 0.0
C560 C 0.77181 0.60665 0.3004 0.0
C561 C 0.61605 0.84593 0.73385 0.0
C562 C 0.60997 0.83532 0.77796 0.0
C563 C 0.61445 0.81802 0.70255 0.0
C564 C 0.60567 0.77843 0.71456 0.0
H565 H 0.61964 0.87501 0.72343 0.0
H566 H 0.6171 0.82623 0.66858 0.0
S567 S 0.58893 0.73634 0.82569 0.0
N568 N 0.59687 0.78336 0.83213 0.0
N569 N 0.59275 0.73064 0.77306 0.0
C570 C 0.60126 0.76814 0.75858 0.0
C571 C 0.60371 0.7967 0.79041 0.0
C572 C 0.15711 0.75794 0.72674 0.0
C573 C 0.16781 0.77354 0.76908 0.0
C574 C 0.18034 0.78086 0.69105 0.0
C575 C 0.21528 0.81953 0.69703 0.0
H576 H 0.13163 0.72727 0.72155 0.0
H577 H 0.17259 0.76736 0.65896 0.0
S578 S 0.25613 0.87363 0.80111 0.0
N579 N 0.21492 0.83015 0.81483 0.0
N580 N 0.25927 0.87261 0.74771 0.0
C581 C 0.22562 0.83579 0.73897 0.0
C582 C 0.20164 0.81292 0.77511 0.0
C583 C 0.15045 0.3968 0.76719 0.0
C584 C 0.15511 0.38346 0.72614 0.0
C585 C 0.17326 0.39634 0.80261 0.0
C586 C 0.20153 0.38261 0.79807 0.0
H587 H 0.13126 0.41048 0.77103 0.0
H588 H 0.17112 0.40962 0.833 0.0
S589 S 0.22174 0.3406 0.69827 0.0
N590 N 0.18692 0.35267 0.68359 0.0
N591 N 0.23025 0.35191 0.7504 0.0
C592 C 0.20377 0.36577 0.75813 0.0
C593 C 0.18038 0.36618 0.722 0.0
C594 C 0.50971 0.29088 0.06317 0.0
C595 C 0.51418 0.26027 0.04191 0.0
C596 C 0.53993 0.33232 0.05976 0.0
C597 C 0.57597 0.34408 0.03594 0.0
H598 H 0.48518 0.28237 0.0864 0.0
H599 H 0.5375 0.35439 0.08025 0.0
S600 S 0.59859 0.27647 0.96833 0.0
N601 N 0.55379 0.24515 0.99073 0.0
N602 N 0.61127 0.32296 0.98545 0.0
C603 C 0.57818 0.31438 0.01034 0.0
C604 C 0.54702 0.27235 0.01307 0.0
C605 C 0.69822 0.21768 0.11984 0.0
C606 C 0.728 0.23832 0.08769 0.0
C607 C 0.65635 0.19765 0.10982 0.0
C608 C 0.64271 0.19799 0.06739 0.0
H609 H 0.70726 0.21871 0.15338 0.0
H610 H 0.63447 0.18298 0.1358 0.0
S611 S 0.70861 0.24699 0.97119 0.0
N612 N 0.74107 0.25606 0.01122 0.0
N613 N 0.66265 0.22012 0.99284 0.0
C614 C 0.67227 0.21697 0.03458 0.0
C615 C 0.71487 0.23665 0.04463 0.0
C616 C 0.80658 0.47047 0.08965 0.0
C617 C 0.79025 0.44272 0.05487 0.0
C618 C 0.79391 0.49916 0.09718 0.0
C619 C 0.76521 0.50112 0.06962 0.0
H620 H 0.82419 0.46588 0.11451 0.0
H621 H 0.80212 0.51572 0.12769 0.0
S622 S 0.72335 0.44281 0.96752 0.0
N623 N 0.75125 0.42438 0.98828 0.0
N624 N 0.72896 0.47976 0.00071 0.0
C625 C 0.75518 0.47895 0.03042 0.0
C626 C 0.76718 0.44902 0.02355 0.0
C627 C 0.70893 0.47907 0.4565 0.0
C628 C 0.72346 0.49048 0.414 0.0
C629 C 0.66728 0.45184 0.46421 0.0
C630 C 0.63901 0.43544 0.42973 0.0
H631 H 0.73016 0.48777 0.4834 0.0
H632 H 0.6577 0.4411 0.49701 0.0
S633 S 0.6613 0.4667 0.31409 0.0
N634 N 0.70611 0.49159 0.33854 0.0
N635 N 0.62794 0.44033 0.3525 0.0
C636 C 0.65263 0.4517 0.38792 0.0
C637 C 0.69497 0.47935 0.38023 0.0
C638 C 0.54528 0.21308 0.46965 0.0
C639 C 0.55586 0.19694 0.43403 0.0
C640 C 0.51419 0.22309 0.46608 0.0
C641 C 0.49514 0.21955 0.4259 0.0
H642 H 0.564 0.22198 0.49864 0.0
H643 H 0.50964 0.23912 0.49275 0.0
S644 S 0.50292 0.16688 0.32798 0.0
N645 N 0.53729 0.16763 0.36178 0.0
N646 N 0.48043 0.18851 0.3543 0.0
C647 C 0.50022 0.19662 0.39304 0.0
C648 C 0.5308 0.18525 0.39711 0.0
C649 C 0.80008 0.34579 0.38025 0.0
C650 C 0.80203 0.35858 0.42352 0.0
C651 C 0.78451 0.30441 0.37007 0.0
C652 C 0.76998 0.27433 0.40272 0.0
H653 H 0.80687 0.36704 0.35376 0.0
H654 H 0.78011 0.29561 0.33616 0.0
S655 S 0.78049 0.29368 0.52125 0.0
N656 N 0.79779 0.33945 0.4994 0.0
N657 N 0.76727 0.26123 0.48022 0.0
C658 C 0.77733 0.28738 0.44616 0.0
C659 C 0.79348 0.32968 0.45657 0.0
C660 C 0.47163 0.67431 0.93738 0.0
C661 C 0.456 0.64458 0.90426 0.0
C662 C 0.49071 0.71612 0.92793 0.0
C663 C 0.49444 0.72993 0.88497 0.0
H664 H 0.46682 0.66541 0.97114 0.0
H665 H 0.49966 0.73744 0.95484 0.0
S666 S 0.46769 0.66562 0.78586 0.0
N667 N 0.45277 0.63255 0.82632 0.0
N668 N 0.48723 0.71134 0.80861 0.0
C669 C 0.48249 0.70098 0.8513 0.0
C670 C 0.4635 0.65824 0.86092 0.0
C671 C 0.27268 0.74002 0.95757 0.0
C672 C 0.25714 0.7501 0.92116 0.0
C673 C 0.31468 0.75392 0.96103 0.0
C674 C 0.34204 0.77892 0.92876 0.0
H675 H 0.25195 0.71717 0.9804 0.0
H676 H 0.32523 0.74142 0.98626 0.0
S677 S 0.31699 0.82007 0.83192 0.0
N678 N 0.27237 0.79088 0.85576 0.0
N679 N 0.35161 0.81824 0.86322 0.0
C680 C 0.32738 0.79369 0.89562 0.0
C681 C 0.28465 0.77881 0.89151 0.0
C682 C 0.22005 0.55619 0.89115 0.0
C683 C 0.22022 0.57311 0.932 0.0
C684 C 0.24199 0.53569 0.8839 0.0
C685 C 0.26429 0.53056 0.9174 0.0
H686 H 0.2028 0.55876 0.86449 0.0
H687 H 0.24147 0.52375 0.85176 0.0
S688 S 0.27696 0.5706 0.02951 0.0
N689 N 0.24687 0.58497 0.00583 0.0
N690 N 0.28637 0.5447 0.99242 0.0
C691 C 0.26447 0.54672 0.95846 0.0
C692 C 0.24285 0.5684 0.96572 0.0
C693 C 0.31283 0.53826 0.5502 0.0
C694 C 0.3422 0.56153 0.58182 0.0
C695 C 0.27081 0.51988 0.55911 0.0
C696 C 0.25676 0.52375 0.60019 0.0
H697 H 0.32257 0.5347 0.51822 0.0
H698 H 0.24927 0.50302 0.53342 0.0
S699 S 0.32183 0.57786 0.69564 0.0
N700 N 0.3547 0.58493 0.65661 0.0
N701 N 0.27597 0.55055 0.67371 0.0
C702 C 0.28602 0.546 0.63252 0.0
C703 C 0.3287 0.56489 0.62326 0.0
C704 C 0.43075 0.76383 0.60629 0.0
C705 C 0.44489 0.79064 0.57071 0.0
C706 C 0.44667 0.73824 0.61535 0.0
C707 C 0.47715 0.73826 0.58897 0.0
H708 H 0.40748 0.76296 0.62762 0.0
H709 H 0.43439 0.71783 0.64292 0.0
S710 S 0.52502 0.80371 0.49238 0.0
N711 N 0.49142 0.8166 0.50948 0.0
N712 N 0.52155 0.76812 0.5262 0.0
C713 C 0.49198 0.76536 0.55355 0.0
C714 C 0.47585 0.79171 0.54454 0.0
C715 C 0.23884 0.71929 0.55085 0.0
C716 C 0.27072 0.73532 0.58148 0.0
C717 C 0.21179 0.67694 0.54789 0.0
C718 C 0.21621 0.64935 0.57492 0.0
H719 H 0.23401 0.7396 0.52996 0.0
H720 H 0.18681 0.66561 0.52482 0.0
S721 S 0.29602 0.67577 0.65908 0.0
N722 N 0.30631 0.72019 0.63812 0.0
N723 N 0.25527 0.64096 0.63278 0.0
C724 C 0.24872 0.66496 0.60477 0.0
C725 C 0.27602 0.70791 0.608 0.0
loop_
_geom_bond_atom_site_label_1
_geom_bond_atom_site_label_2
_geom_bond_distance
_geom_bond_site_symmetry_2
_ccdc_geom_bond_type
Co0 N4 2.148 . S
Co0 N10 2.128 . S
Co0 N20 2.194 . S
Co0 O25 2.351 . S
Co0 O26 2.155 . S
Co0 O27 2.096 . S
C1 N4 1.301 . S
C1 N5 1.328 . S
C1 H6 0.929 1_554 S
C2 C3 1.333 . S
C2 N4 1.317 . S
C2 H7 0.930 . S
C3 C2 1.333 . S
C3 N5 1.350 . S
C3 H29 0.931 . S
N4 Co0 2.148 . S
N4 C1 1.301 . S
N4 C2 1.317 . S
N5 C1 1.328 . S
N5 C3 1.350 . S
H6 C1 0.929 1_556 S
H7 C2 0.930 . S
C8 O9 1.224 . S
C8 O27 1.247 . S
O9 C8 1.224 . S
N10 Co0 2.128 . S
N10 C11 1.355 . S
N10 C13 1.311 . S
C11 N10 1.355 . S
C11 C12 1.363 . S
C11 H23 0.929 . S
C12 C11 1.363 . S
C12 N14 1.375 . S
C12 H30 0.931 . S
C13 N10 1.311 . S
C13 N14 1.347 . S
C13 H24 0.929 . S
N14 C12 1.375 . S
N14 C13 1.347 . S
C15 C18 1.365 1_554 S
C15 N20 1.328 . S
C15 H21 0.929 1_554 S
C16 C17 1.362 . S
C16 C19 1.378 . S
C16 H31 0.929 . S
C17 C16 1.362 . S
C17 C18 1.366 1_554 S
C18 C15 1.365 1_556 S
C18 C17 1.366 1_556 S
C18 H32 0.930 . S
C19 C16 1.378 . S
C19 N20 1.315 . S
C19 H22 0.930 . S
N20 Co0 2.194 . S
N20 C15 1.328 . S
N20 C19 1.315 . S
H21 C15 0.929 1_556 S
H22 C19 0.930 . S
H23 C11 0.929 . S
H24 C13 0.929 . S
O25 Co0 2.351 . S
O25 C28 1.244 . S
O26 Co0 2.155 . S
O26 C28 1.240 . S
O27 Co0 2.096 . S
O27 C8 1.247 . S
C28 O25 1.244 . S
C28 O26 1.240 . S
H29 C3 0.931 . S
H30 C12 0.931 . S
H31 C16 0.929 . S
H32 C18 0.930 . S
Co33 N37 2.148 . S
Co33 N43 2.128 . S
Co33 N53 2.194 . S
Co33 O58 2.351 . S
Co33 O59 2.155 . S
Co33 O60 2.096 . S
C34 N37 1.301 . S
C34 N38 1.328 . S
C34 H39 0.928 1_554 S
C35 C36 1.333 . S
C35 N37 1.317 . S
C35 H40 0.930 . S
C36 C35 1.333 . S
C36 N38 1.350 . S
C36 H62 0.931 . S
N37 Co33 2.148 . S
N37 C34 1.301 . S
N37 C35 1.317 . S
N38 C34 1.328 . S
N38 C36 1.350 . S
H39 C34 0.928 1_556 S
H40 C35 0.930 . S
C41 O42 1.224 . S
C41 O60 1.247 . S
O42 C41 1.224 . S
N43 Co33 2.128 . S
N43 C44 1.355 . S
N43 C46 1.311 . S
C44 N43 1.355 . S
C44 C45 1.363 . S
C44 H56 0.929 . S
C45 C44 1.363 . S
C45 N47 1.375 . S
C45 H63 0.931 . S
C46 N43 1.311 . S
C46 N47 1.347 . S
C46 H57 0.929 . S
N47 C45 1.375 . S
N47 C46 1.347 . S
C48 C51 1.365 1_554 S
C48 N53 1.328 . S
C48 H54 0.929 1_554 S
C49 C50 1.362 . S
C49 C52 1.378 . S
C49 H64 0.929 . S
C50 C49 1.362 . S
C50 C51 1.366 1_554 S
C51 C48 1.365 1_556 S
C51 C50 1.366 1_556 S
C51 H65 0.930 . S
C52 C49 1.378 . S
C52 N53 1.315 . S
C52 H55 0.930 . S
N53 Co33 2.194 . S
N53 C48 1.328 . S
N53 C52 1.315 . S
H54 C48 0.929 1_556 S
H55 C52 0.930 . S
H56 C44 0.929 . S
H57 C46 0.929 . S
O58 Co33 2.351 . S
O58 C61 1.244 . S
O59 Co33 2.155 . S
O59 C61 1.240 . S
O60 Co33 2.096 . S
O60 C41 1.247 . S
C61 O58 1.244 . S
C61 O59 1.240 . S
H62 C36 0.931 . S
H63 C45 0.931 . S
H64 C49 0.929 . S
H65 C51 0.930 . S
Co66 N70 2.148 . S
Co66 N76 2.128 . S
Co66 N86 2.194 . S
Co66 O91 2.351 . S
Co66 O92 2.155 . S
Co66 O93 2.096 . S
C67 N70 1.301 . S
C67 N71 1.328 . S
C67 H72 0.929 1_554 S
C68 C69 1.333 . S
C68 N70 1.317 . S
C68 H73 0.930 . S
C69 C68 1.333 . S
C69 N71 1.350 . S
C69 H95 0.931 . S
N70 Co66 2.148 . S
N70 C67 1.301 . S
N70 C68 1.317 . S
N71 C67 1.328 . S
N71 C69 1.350 . S
H72 C67 0.929 1_556 S
H73 C68 0.930 . S
C74 O75 1.224 . S
C74 O93 1.247 . S
O75 C74 1.224 . S
N76 Co66 2.128 . S
N76 C77 1.355 . S
N76 C79 1.311 . S
C77 N76 1.355 . S
C77 C78 1.363 . S
C77 H89 0.929 . S
C78 C77 1.363 . S
C78 N80 1.375 . S
C78 H96 0.931 . S
C79 N76 1.311 . S
C79 N80 1.347 . S
C79 H90 0.929 . S
N80 C78 1.375 . S
N80 C79 1.347 . S
C81 C84 1.365 1_554 S
C81 N86 1.328 . S
C81 H87 0.929 1_554 S
C82 C83 1.362 . S
C82 C85 1.378 . S
C82 H97 0.929 . S
C83 C82 1.362 . S
C83 C84 1.366 1_554 S
C84 C81 1.365 1_556 S
C84 C83 1.366 1_556 S
C84 H98 0.930 . S
C85 C82 1.378 . S
C85 N86 1.315 . S
C85 H88 0.930 . S
N86 Co66 2.194 . S
N86 C81 1.328 . S
N86 C85 1.315 . S
H87 C81 0.929 1_556 S
H88 C85 0.930 . S
H89 C77 0.929 . S
H90 C79 0.929 . S
O91 Co66 2.351 . S
O91 C94 1.244 . S
O92 Co66 2.155 . S
O92 C94 1.240 . S
O93 Co66 2.096 . S
O93 C74 1.247 . S
C94 O91 1.244 . S
C94 O92 1.240 . S
H95 C69 0.931 . S
H96 C78 0.931 . S
H97 C82 0.929 . S
H98 C84 0.930 . S
Co99 N103 2.148 . S
Co99 N109 2.128 . S
Co99 N119 2.194 . S
Co99 O124 2.351 . S
Co99 O125 2.155 . S
Co99 O126 2.096 . S
C100 N103 1.301 . S
C100 N104 1.328 . S
C100 H105 0.930 . S
C101 C102 1.333 . S
C101 N103 1.317 . S
C101 H106 0.930 . S
C102 C101 1.333 . S
C102 N104 1.350 . S
C102 H128 0.931 . S
N103 Co99 2.148 . S
N103 C100 1.301 . S
N103 C101 1.317 . S
N104 C100 1.328 . S
N104 C102 1.350 . S
H105 C100 0.930 . S
H106 C101 0.930 . S
C107 O108 1.224 . S
C107 O126 1.247 . S
O108 C107 1.224 . S
N109 Co99 2.128 . S
N109 C110 1.355 . S
N109 C112 1.311 . S
C110 N109 1.355 . S
C110 C111 1.363 . S
C110 H122 0.929 . S
C111 C110 1.363 . S
C111 N113 1.375 . S
C111 H129 0.931 . S
C112 N109 1.311 . S
C112 N113 1.347 . S
C112 H123 0.929 . S
N113 C111 1.375 . S
N113 C112 1.347 . S
C114 C117 1.365 . S
C114 N119 1.328 . S
C114 H120 0.929 . S
C115 C116 1.362 . S
C115 C118 1.378 . S
C115 H130 0.929 . S
C116 C115 1.362 . S
C116 C117 1.366 . S
C117 C114 1.365 . S
C117 C116 1.366 . S
C117 H131 0.930 . S
C118 C115 1.378 . S
C118 N119 1.315 . S
C118 H121 0.930 . S
N119 Co99 2.194 . S
N119 C114 1.328 . S
N119 C118 1.315 . S
H120 C114 0.929 . S
H121 C118 0.930 . S
H122 C110 0.929 . S
H123 C112 0.929 . S
O124 Co99 2.351 . S
O124 C127 1.244 . S
O125 Co99 2.155 . S
O125 C127 1.240 . S
O126 Co99 2.096 . S
O126 C107 1.247 . S
C127 O124 1.244 . S
C127 O125 1.240 . S
H128 C102 0.931 . S
H129 C111 0.931 . S
H130 C115 0.929 . S
H131 C117 0.930 . S
Co132 N136 2.148 . S
Co132 N142 2.128 . S
Co132 N152 2.194 . S
Co132 O157 2.351 . S
Co132 O158 2.155 . S
Co132 O159 2.096 . S
C133 N136 1.301 . S
C133 N137 1.328 . S
C133 H138 0.930 . S
C134 C135 1.333 . S
C134 N136 1.317 . S
C134 H139 0.930 . S
C135 C134 1.333 . S
C135 N137 1.350 . S
C135 H161 0.931 . S
N136 Co132 2.148 . S
N136 C133 1.301 . S
N136 C134 1.317 . S
N137 C133 1.328 . S
N137 C135 1.350 . S
H138 C133 0.930 . S
H139 C134 0.930 . S
C140 O141 1.224 . S
C140 O159 1.247 . S
O141 C140 1.224 . S
N142 Co132 2.128 . S
N142 C143 1.355 . S
N142 C145 1.311 . S
C143 N142 1.355 . S
C143 C144 1.363 . S
C143 H155 0.929 . S
C144 C143 1.363 . S
C144 N146 1.375 . S
C144 H162 0.931 . S
C145 N142 1.311 . S
C145 N146 1.347 . S
C145 H156 0.929 . S
N146 C144 1.375 . S
N146 C145 1.347 . S
C147 C150 1.365 . S
C147 N152 1.328 . S
C147 H153 0.929 . S
C148 C149 1.362 . S
C148 C151 1.378 . S
C148 H163 0.929 . S
C149 C148 1.362 . S
C149 C150 1.366 . S
C150 C147 1.365 . S
C150 C149 1.366 . S
C150 H164 0.930 . S
C151 C148 1.378 . S
C151 N152 1.315 . S
C151 H154 0.930 . S
N152 Co132 2.194 . S
N152 C147 1.328 . S
N152 C151 1.315 . S
H153 C147 0.929 . S
H154 C151 0.930 . S
H155 C143 0.929 . S
H156 C145 0.929 . S
O157 Co132 2.351 . S
O157 C160 1.244 . S
O158 Co132 2.155 . S
O158 C160 1.240 . S
O159 Co132 2.096 . S
O159 C140 1.247 . S
C160 O157 1.244 . S
C160 O158 1.240 . S
H161 C135 0.931 . S
H162 C144 0.931 . S
H163 C148 0.929 . S
H164 C150 0.930 . S
Co165 N169 2.148 . S
Co165 N175 2.128 . S
Co165 N185 2.194 . S
Co165 O190 2.351 . S
Co165 O191 2.155 . S
Co165 O192 2.096 . S
C166 N169 1.301 . S
C166 N170 1.328 . S
C166 H171 0.930 . S
C167 C168 1.333 . S
C167 N169 1.317 . S
C167 H172 0.930 . S
C168 C167 1.333 . S
C168 N170 1.350 . S
C168 H194 0.931 . S
N169 Co165 2.148 . S
N169 C166 1.301 . S
N169 C167 1.317 . S
N170 C166 1.328 . S
N170 C168 1.350 . S
H171 C166 0.930 . S
H172 C167 0.930 . S
C173 O174 1.224 . S
C173 O192 1.247 . S
O174 C173 1.224 . S
N175 Co165 2.128 . S
N175 C176 1.355 . S
N175 C178 1.311 . S
C176 N175 1.355 . S
C176 C177 1.363 . S
C176 H188 0.929 . S
C177 C176 1.363 . S
C177 N179 1.375 . S
C177 H195 0.931 . S
C178 N175 1.311 . S
C178 N179 1.347 . S
C178 H189 0.929 . S
N179 C177 1.375 . S
N179 C178 1.347 . S
C180 C183 1.365 . S
C180 N185 1.328 . S
C180 H186 0.929 . S
C181 C182 1.362 . S
C181 C184 1.378 . S
C181 H196 0.929 . S
C182 C181 1.362 . S
C182 C183 1.366 . S
C183 C180 1.365 . S
C183 C182 1.366 . S
C183 H197 0.930 . S
C184 C181 1.378 . S
C184 N185 1.315 . S
C184 H187 0.930 . S
N185 Co165 2.194 . S
N185 C180 1.328 . S
N185 C184 1.315 . S
H186 C180 0.929 . S
H187 C184 0.930 . S
H188 C176 0.929 . S
H189 C178 0.929 . S
O190 Co165 2.351 . S
O190 C193 1.244 . S
O191 Co165 2.155 . S
O191 C193 1.240 . S
O192 Co165 2.096 . S
O192 C173 1.247 . S
C193 O190 1.244 . S
C193 O191 1.240 . S
H194 C168 0.931 . S
H195 C177 0.931 . S
H196 C181 0.929 . S
H197 C183 0.930 . S
Co198 N202 2.148 . S
Co198 N208 2.128 . S
Co198 N218 2.194 . S
Co198 O223 2.351 . S
Co198 O224 2.155 . S
Co198 O225 2.096 . S
C199 N202 1.301 . S
C199 N203 1.328 . S
C199 H204 0.929 1_556 S
C200 C201 1.333 . S
C200 N202 1.317 . S
C200 H205 0.930 . S
C201 C200 1.333 . S
C201 N203 1.350 . S
C201 H227 0.931 . S
N202 Co198 2.148 . S
N202 C199 1.301 . S
N202 C200 1.317 . S
N203 C199 1.328 . S
N203 C201 1.350 . S
H204 C199 0.929 1_554 S
H205 C200 0.930 . S
C206 O207 1.224 . S
C206 O225 1.247 . S
O207 C206 1.224 . S
N208 Co198 2.128 . S
N208 C209 1.355 . S
N208 C211 1.311 . S
C209 N208 1.355 . S
C209 C210 1.363 . S
C209 H221 0.929 . S
C210 C209 1.363 . S
C210 N212 1.375 . S
C210 H228 0.931 . S
C211 N208 1.311 . S
C211 N212 1.347 . S
C211 H222 0.929 . S
N212 C210 1.375 . S
N212 C211 1.347 . S
C213 C216 1.365 1_556 S
C213 N218 1.328 . S
C213 H219 0.929 1_556 S
C214 C215 1.362 . S
C214 C217 1.378 . S
C214 H229 0.929 . S
C215 C214 1.362 . S
C215 C216 1.366 1_556 S
C216 C213 1.365 1_554 S
C216 C215 1.366 1_554 S
C216 H230 0.930 . S
C217 C214 1.378 . S
C217 N218 1.315 . S
C217 H220 0.930 . S
N218 Co198 2.194 . S
N218 C213 1.328 . S
N218 C217 1.315 . S
H219 C213 0.929 1_554 S
H220 C217 0.930 . S
H221 C209 0.929 . S
H222 C211 0.929 . S
O223 Co198 2.351 . S
O223 C226 1.244 . S
O224 Co198 2.155 . S
O224 C226 1.240 . S
O225 Co198 2.096 . S
O225 C206 1.247 . S
C226 O223 1.244 . S
C226 O224 1.240 . S
H227 C201 0.931 . S
H228 C210 0.931 . S
H229 C214 0.929 . S
H230 C216 0.930 . S
Co231 N235 2.148 . S
Co231 N241 2.128 . S
Co231 N251 2.194 . S
Co231 O256 2.351 . S
Co231 O257 2.155 . S
Co231 O258 2.096 . S
C232 N235 1.301 . S
C232 N236 1.328 . S
C232 H237 0.928 1_556 S
C233 C234 1.333 . S
C233 N235 1.317 . S
C233 H238 0.930 . S
C234 C233 1.333 . S
C234 N236 1.350 . S
C234 H260 0.931 . S
N235 Co231 2.148 . S
N235 C232 1.301 . S
N235 C233 1.317 . S
N236 C232 1.328 . S
N236 C234 1.350 . S
H237 C232 0.928 1_554 S
H238 C233 0.930 . S
C239 O240 1.224 . S
C239 O258 1.247 . S
O240 C239 1.224 . S
N241 Co231 2.128 . S
N241 C242 1.355 . S
N241 C244 1.311 . S
C242 N241 1.355 . S
C242 C243 1.363 . S
C242 H254 0.929 . S
C243 C242 1.363 . S
C243 N245 1.375 . S
C243 H261 0.931 . S
C244 N241 1.311 . S
C244 N245 1.347 . S
C244 H255 0.929 . S
N245 C243 1.375 . S
N245 C244 1.347 . S
C246 C249 1.365 1_556 S
C246 N251 1.328 . S
C246 H252 0.929 1_556 S
C247 C248 1.362 . S
C247 C250 1.378 . S
C247 H262 0.929 . S
C248 C247 1.362 . S
C248 C249 1.366 1_556 S
C249 C246 1.365 1_554 S
C249 C248 1.366 1_554 S
C249 H263 0.930 . S
C250 C247 1.378 . S
C250 N251 1.315 . S
C250 H253 0.930 . S
N251 Co231 2.194 . S
N251 C246 1.328 . S
N251 C250 1.315 . S
H252 C246 0.929 1_554 S
H253 C250 0.930 . S
H254 C242 0.929 . S
H255 C244 0.929 . S
O256 Co231 2.351 . S
O256 C259 1.244 . S
O257 Co231 2.155 . S
O257 C259 1.240 . S
O258 Co231 2.096 . S
O258 C239 1.247 . S
C259 O256 1.244 . S
C259 O257 1.240 . S
H260 C234 0.931 . S
H261 C243 0.931 . S
H262 C247 0.929 . S
H263 C249 0.930 . S
Co264 N268 2.148 . S
Co264 N274 2.128 . S
Co264 N284 2.194 . S
Co264 O289 2.351 . S
Co264 O290 2.155 . S
Co264 O291 2.096 . S
C265 N268 1.301 . S
C265 N269 1.328 . S
C265 H270 0.929 1_556 S
C266 C267 1.333 . S
C266 N268 1.317 . S
C266 H271 0.930 . S
C267 C266 1.333 . S
C267 N269 1.350 . S
C267 H293 0.931 . S
N268 Co264 2.148 . S
N268 C265 1.301 . S
N268 C266 1.317 . S
N269 C265 1.328 . S
N269 C267 1.350 . S
H270 C265 0.929 1_554 S
H271 C266 0.930 . S
C272 O273 1.224 . S
C272 O291 1.247 . S
O273 C272 1.224 . S
N274 Co264 2.128 . S
N274 C275 1.355 . S
N274 C277 1.311 . S
C275 N274 1.355 . S
C275 C276 1.363 . S
C275 H287 0.929 . S
C276 C275 1.363 . S
C276 N278 1.375 . S
C276 H294 0.931 . S
C277 N274 1.311 . S
C277 N278 1.347 . S
C277 H288 0.929 . S
N278 C276 1.375 . S
N278 C277 1.347 . S
C279 C282 1.365 1_556 S
C279 N284 1.328 . S
C279 H285 0.929 1_556 S
C280 C281 1.362 . S
C280 C283 1.378 . S
C280 H295 0.929 . S
C281 C280 1.362 . S
C281 C282 1.366 1_556 S
C282 C279 1.365 1_554 S
C282 C281 1.366 1_554 S
C282 H296 0.930 . S
C283 C280 1.378 . S
C283 N284 1.315 . S
C283 H286 0.930 . S
N284 Co264 2.194 . S
N284 C279 1.328 . S
N284 C283 1.315 . S
H285 C279 0.929 1_554 S
H286 C283 0.930 . S
H287 C275 0.929 . S
H288 C277 0.929 . S
O289 Co264 2.351 . S
O289 C292 1.244 . S
O290 Co264 2.155 . S
O290 C292 1.240 . S
O291 Co264 2.096 . S
O291 C272 1.247 . S
C292 O289 1.244 . S
C292 O290 1.240 . S
H293 C267 0.931 . S
H294 C276 0.931 . S
H295 C280 0.929 . S
H296 C282 0.930 . S
Co297 N301 2.148 . S
Co297 N307 2.128 . S
Co297 N317 2.194 . S
Co297 O322 2.351 . S
Co297 O323 2.155 . S
Co297 O324 2.096 . S
C298 N301 1.301 . S
C298 N302 1.328 . S
C298 H303 0.930 . S
C299 C300 1.333 . S
C299 N301 1.317 . S
C299 H304 0.930 . S
C300 C299 1.333 . S
C300 N302 1.350 . S
C300 H326 0.931 . S
N301 Co297 2.148 . S
N301 C298 1.301 . S
N301 C299 1.317 . S
N302 C298 1.328 . S
N302 C300 1.350 . S
H303 C298 0.930 . S
H304 C299 0.930 . S
C305 O306 1.224 . S
C305 O324 1.247 . S
O306 C305 1.224 . S
N307 Co297 2.128 . S
N307 C308 1.355 . S
N307 C310 1.311 . S
C308 N307 1.355 . S
C308 C309 1.363 . S
C308 H320 0.929 . S
C309 C308 1.363 . S
C309 N311 1.375 . S
C309 H327 0.931 . S
C310 N307 1.311 . S
C310 N311 1.347 . S
C310 H321 0.929 . S
N311 C309 1.375 . S
N311 C310 1.347 . S
C312 C315 1.365 . S
C312 N317 1.328 . S
C312 H318 0.929 . S
C313 C314 1.362 . S
C313 C316 1.378 . S
C313 H328 0.929 . S
C314 C313 1.362 . S
C314 C315 1.366 . S
C315 C312 1.365 . S
C315 C314 1.366 . S
C315 H329 0.930 . S
C316 C313 1.378 . S
C316 N317 1.315 . S
C316 H319 0.930 . S
N317 Co297 2.194 . S
N317 C312 1.328 . S
N317 C316 1.315 . S
H318 C312 0.929 . S
H319 C316 0.930 . S
H320 C308 0.929 . S
H321 C310 0.929 . S
O322 Co297 2.351 . S
O322 C325 1.244 . S
O323 Co297 2.155 . S
O323 C325 1.240 . S
O324 Co297 2.096 . S
O324 C305 1.247 . S
C325 O322 1.244 . S
C325 O323 1.240 . S
H326 C300 0.931 . S
H327 C309 0.931 . S
H328 C313 0.929 . S
H329 C315 0.930 . S
Co330 N334 2.148 . S
Co330 N340 2.128 . S
Co330 N350 2.194 . S
Co330 O355 2.351 . S
Co330 O356 2.155 . S
Co330 O357 2.096 . S
C331 N334 1.301 . S
C331 N335 1.328 . S
C331 H336 0.930 . S
C332 C333 1.333 . S
C332 N334 1.317 . S
C332 H337 0.930 . S
C333 C332 1.333 . S
C333 N335 1.350 . S
C333 H359 0.931 . S
N334 Co330 2.148 . S
N334 C331 1.301 . S
N334 C332 1.317 . S
N335 C331 1.328 . S
N335 C333 1.350 . S
H336 C331 0.930 . S
H337 C332 0.930 . S
C338 O339 1.224 . S
C338 O357 1.247 . S
O339 C338 1.224 . S
N340 Co330 2.128 . S
N340 C341 1.355 . S
N340 C343 1.311 . S
C341 N340 1.355 . S
C341 C342 1.363 . S
C341 H353 0.929 . S
C342 C341 1.363 . S
C342 N344 1.375 . S
C342 H360 0.931 . S
C343 N340 1.311 . S
C343 N344 1.347 . S
C343 H354 0.929 . S
N344 C342 1.375 . S
N344 C343 1.347 . S
C345 C348 1.365 . S
C345 N350 1.328 . S
C345 H351 0.929 . S
C346 C347 1.362 . S
C346 C349 1.378 . S
C346 H361 0.929 . S
C347 C346 1.362 . S
C347 C348 1.366 . S
C348 C345 1.365 . S
C348 C347 1.366 . S
C348 H362 0.930 . S
C349 C346 1.378 . S
C349 N350 1.315 . S
C349 H352 0.930 . S
N350 Co330 2.194 . S
N350 C345 1.328 . S
N350 C349 1.315 . S
H351 C345 0.929 . S
H352 C349 0.930 . S
H353 C341 0.929 . S
H354 C343 0.929 . S
O355 Co330 2.351 . S
O355 C358 1.244 . S
O356 Co330 2.155 . S
O356 C358 1.240 . S
O357 Co330 2.096 . S
O357 C338 1.247 . S
C358 O355 1.244 . S
C358 O356 1.240 . S
H359 C333 0.931 . S
H360 C342 0.931 . S
H361 C346 0.929 . S
H362 C348 0.930 . S
Co363 N367 2.148 . S
Co363 N373 2.128 . S
Co363 N383 2.194 . S
Co363 O388 2.351 . S
Co363 O389 2.155 . S
Co363 O390 2.096 . S
C364 N367 1.301 . S
C364 N368 1.328 . S
C364 H369 0.930 . S
C365 C366 1.333 . S
C365 N367 1.317 . S
C365 H370 0.930 . S
C366 C365 1.333 . S
C366 N368 1.350 . S
C366 H392 0.931 . S
N367 Co363 2.148 . S
N367 C364 1.301 . S
N367 C365 1.317 . S
N368 C364 1.328 . S
N368 C366 1.350 . S
H369 C364 0.930 . S
H370 C365 0.930 . S
C371 O372 1.224 . S
C371 O390 1.247 . S
O372 C371 1.224 . S
N373 Co363 2.128 . S
N373 C374 1.355 . S
N373 C376 1.311 . S
C374 N373 1.355 . S
C374 C375 1.363 . S
C374 H386 0.929 . S
C375 C374 1.363 . S
C375 N377 1.375 . S
C375 H393 0.931 . S
C376 N373 1.311 . S
C376 N377 1.347 . S
C376 H387 0.929 . S
N377 C375 1.375 . S
N377 C376 1.347 . S
C378 C381 1.365 . S
C378 N383 1.328 . S
C378 H384 0.929 . S
C379 C380 1.362 . S
C379 C382 1.378 . S
C379 H394 0.929 . S
C380 C379 1.362 . S
C380 C381 1.366 . S
C381 C378 1.365 . S
C381 C380 1.366 . S
C381 H395 0.930 . S
C382 C379 1.378 . S
C382 N383 1.315 . S
C382 H385 0.930 . S
N383 Co363 2.194 . S
N383 C378 1.328 . S
N383 C382 1.315 . S
H384 C378 0.929 . S
H385 C382 0.930 . S
H386 C374 0.929 . S
H387 C376 0.929 . S
O388 Co363 2.351 . S
O388 C391 1.244 . S
O389 Co363 2.155 . S
O389 C391 1.240 . S
O390 Co363 2.096 . S
O390 C371 1.247 . S
C391 O388 1.244 . S
C391 O389 1.240 . S
H392 C366 0.931 . S
H393 C375 0.931 . S
H394 C379 0.929 . S
H395 C381 0.930 . S
C396 C397 1.369 . S
C396 C398 1.419 . S
C396 H400 0.930 . S
C397 C396 1.369 . S
C397 C406 1.429 . S
C398 C396 1.419 . S
C398 C399 1.363 . S
C398 H401 0.929 . S
C399 C398 1.363 . S
C399 C405 1.428 . S
H400 C396 0.930 . S
H401 C398 0.929 . S
S402 N403 1.613 . S
S402 N404 1.610 . S
N403 S402 1.613 . S
N403 C406 1.350 . S
N404 S402 1.610 . S
N404 C405 1.351 . S
C405 C399 1.428 . S
C405 N404 1.351 . S
C405 C406 1.434 . S
C406 C397 1.429 . S
C406 N403 1.350 . S
C406 C405 1.434 . S
C407 C408 1.369 . S
C407 C409 1.419 . S
C407 H411 0.930 . S
C408 C407 1.369 . S
C408 C417 1.429 . S
C409 C407 1.419 . S
C409 C410 1.363 . S
C409 H412 0.929 . S
C410 C409 1.363 . S
C410 C416 1.428 . S
H411 C407 0.930 . S
H412 C409 0.929 . S
S413 N414 1.613 . S
S413 N415 1.610 . S
N414 S413 1.613 . S
N414 C417 1.350 . S
N415 S413 1.610 . S
N415 C416 1.351 . S
C416 C410 1.428 . S
C416 N415 1.351 . S
C416 C417 1.434 . S
C417 C408 1.429 . S
C417 N414 1.350 . S
C417 C416 1.434 . S
C418 C419 1.369 . S
C418 C420 1.419 . S
C418 H422 0.930 . S
C419 C418 1.369 . S
C419 C428 1.429 . S
C420 C418 1.419 . S
C420 C421 1.363 . S
C420 H423 0.929 . S
C421 C420 1.363 . S
C421 C427 1.428 . S
H422 C418 0.930 . S
H423 C420 0.929 . S
S424 N425 1.613 . S
S424 N426 1.610 . S
N425 S424 1.613 . S
N425 C428 1.350 . S
N426 S424 1.610 . S
N426 C427 1.351 . S
C427 C421 1.428 . S
C427 N426 1.351 . S
C427 C428 1.434 . S
C428 C419 1.429 . S
C428 N425 1.350 . S
C428 C427 1.434 . S
C429 C430 1.369 . S
C429 C431 1.419 . S
C429 H433 0.930 . S
C430 C429 1.369 . S
C430 C439 1.429 . S
C431 C429 1.419 . S
C431 C432 1.363 . S
C431 H434 0.929 . S
C432 C431 1.363 . S
C432 C438 1.428 . S
H433 C429 0.930 . S
H434 C431 0.929 . S
S435 N436 1.613 . S
S435 N437 1.610 . S
N436 S435 1.613 . S
N436 C439 1.350 . S
N437 S435 1.610 . S
N437 C438 1.351 . S
C438 C432 1.428 . S
C438 N437 1.351 . S
C438 C439 1.434 . S
C439 C430 1.429 . S
C439 N436 1.350 . S
C439 C438 1.434 . S
C440 C441 1.369 . S
C440 C442 1.419 . S
C440 H444 0.930 . S
C441 C440 1.369 . S
C441 C450 1.429 . S
C442 C440 1.419 . S
C442 C443 1.363 . S
C442 H445 0.929 . S
C443 C442 1.363 . S
C443 C449 1.428 . S
H444 C440 0.930 . S
H445 C442 0.929 . S
S446 N447 1.613 . S
S446 N448 1.610 . S
N447 S446 1.613 . S
N447 C450 1.350 . S
N448 S446 1.610 . S
N448 C449 1.351 . S
C449 C443 1.428 . S
C449 N448 1.351 . S
C449 C450 1.434 . S
C450 C441 1.429 . S
C450 N447 1.350 . S
C450 C449 1.434 . S
C451 C452 1.369 . S
C451 C453 1.419 . S
C451 H455 0.930 . S
C452 C451 1.369 . S
C452 C461 1.429 . S
C453 C451 1.419 . S
C453 C454 1.363 . S
C453 H456 0.929 . S
C454 C453 1.363 . S
C454 C460 1.428 . S
H455 C451 0.930 . S
H456 C453 0.929 . S
S457 N458 1.613 . S
S457 N459 1.610 . S
N458 S457 1.613 . S
N458 C461 1.350 . S
N459 S457 1.610 . S
N459 C460 1.351 . S
C460 C454 1.428 . S
C460 N459 1.351 . S
C460 C461 1.434 . S
C461 C452 1.429 . S
C461 N458 1.350 . S
C461 C460 1.434 . S
C462 C463 1.369 1_554 S
C462 C464 1.419 . S
C462 H466 0.930 . S
C463 C462 1.369 1_556 S
C463 C472 1.429 1_545 S
C464 C462 1.419 . S
C464 C465 1.363 1_545 S
C464 H467 0.929 . S
C465 C464 1.363 1_565 S
C465 C471 1.428 1_554 S
H466 C462 0.930 . S
H467 C464 0.929 . S
S468 N469 1.613 . S
S468 N470 1.610 . S
N469 S468 1.613 . S
N469 C472 1.350 . S
N470 S468 1.610 . S
N470 C471 1.351 . S
C471 C465 1.428 1_556 S
C471 N470 1.351 . S
C471 C472 1.434 . S
C472 C463 1.429 1_565 S
C472 N469 1.350 . S
C472 C471 1.434 . S
C473 C474 1.369 . S
C473 C475 1.419 1_655 S
C473 H477 0.930 . S
C474 C473 1.369 . S
C474 C483 1.429 1_556 S
C475 C473 1.419 1_455 S
C475 C476 1.363 1_556 S
C475 H478 0.929 . S
C476 C475 1.363 1_554 S
C476 C482 1.430 . S
H477 C473 0.930 . S
H478 C475 0.929 . S
S479 N480 1.613 . S
S479 N481 1.610 . S
N480 S479 1.613 . S
N480 C483 1.350 . S
N481 S479 1.610 . S
N481 C482 1.344 1_655 S
C482 C476 1.430 . S
C482 N481 1.344 1_455 S
C482 C483 1.440 1_455 S
C483 C474 1.429 1_554 S
C483 N480 1.350 . S
C483 C482 1.440 1_655 S
C484 C485 1.369 . S
C484 C486 1.419 . S
C484 H488 0.930 . S
C485 C484 1.369 . S
C485 C494 1.429 1_554 S
C486 C484 1.419 . S
C486 C487 1.363 1_554 S
C486 H489 0.929 . S
C487 C486 1.363 1_556 S
C487 C493 1.428 . S
H488 C484 0.930 . S
H489 C486 0.929 . S
S490 N491 1.613 . S
S490 N492 1.610 . S
N491 S490 1.613 . S
N491 C494 1.350 . S
N492 S490 1.610 . S
N492 C493 1.351 . S
C493 C487 1.428 . S
C493 N492 1.351 . S
C493 C494 1.434 . S
C494 C485 1.429 1_556 S
C494 N491 1.350 . S
C494 C493 1.434 . S
C495 C496 1.369 1_655 S
C495 C497 1.419 . S
C495 H499 0.930 . S
C496 C495 1.369 1_455 S
C496 C505 1.429 . S
C497 C495 1.419 . S
C497 C498 1.363 . S
C497 H500 0.929 . S
C498 C497 1.363 . S
C498 C504 1.428 1_655 S
H499 C495 0.930 . S
H500 C497 0.929 . S
S501 N502 1.613 . S
S501 N503 1.610 . S
N502 S501 1.613 . S
N502 C505 1.350 . S
N503 S501 1.610 . S
N503 C504 1.351 . S
C504 C498 1.428 1_455 S
C504 N503 1.351 . S
C504 C505 1.434 . S
C505 C496 1.429 . S
C505 N502 1.350 . S
C505 C504 1.434 . S
C506 C507 1.369 . S
C506 C508 1.419 . S
C506 H510 0.930 . S
C507 C506 1.369 . S
C507 C516 1.429 . S
C508 C506 1.419 . S
C508 C509 1.363 . S
C508 H511 0.929 . S
C509 C508 1.363 . S
C509 C515 1.428 . S
H510 C506 0.930 . S
H511 C508 0.929 . S
S512 N513 1.613 . S
S512 N514 1.610 . S
N513 S512 1.613 . S
N513 C516 1.350 . S
N514 S512 1.610 . S
N514 C515 1.351 . S
C515 C509 1.428 . S
C515 N514 1.351 . S
C515 C516 1.434 . S
C516 C507 1.429 . S
C516 N513 1.350 . S
C516 C515 1.434 . S
C517 C518 1.369 . S
C517 C519 1.419 . S
C517 H521 0.930 . S
C518 C517 1.369 . S
C518 C527 1.429 1_545 S
C519 C517 1.419 . S
C519 C520 1.363 1_545 S
C519 H522 0.929 . S
C520 C519 1.363 1_565 S
C520 C526 1.428 . S
H521 C517 0.930 . S
H522 C519 0.929 . S
S523 N524 1.613 . S
S523 N525 1.610 . S
N524 S523 1.613 . S
N524 C527 1.350 . S
N525 S523 1.610 . S
N525 C526 1.351 . S
C526 C520 1.428 . S
C526 N525 1.351 . S
C526 C527 1.434 . S
C527 C518 1.429 1_565 S
C527 N524 1.350 . S
C527 C526 1.434 . S
C528 C529 1.369 . S
C528 C530 1.419 . S
C528 H532 0.930 . S
C529 C528 1.369 . S
C529 C538 1.429 . S
C530 C528 1.419 . S
C530 C531 1.363 . S
C530 H533 0.929 . S
C531 C530 1.363 . S
C531 C537 1.428 . S
H532 C528 0.930 . S
H533 C530 0.929 . S
S534 N535 1.613 . S
S534 N536 1.610 . S
N535 S534 1.613 . S
N535 C538 1.350 . S
N536 S534 1.610 . S
N536 C537 1.351 . S
C537 C531 1.428 . S
C537 N536 1.351 . S
C537 C538 1.434 . S
C538 C529 1.429 . S
C538 N535 1.350 . S
C538 C537 1.434 . S
C539 C540 1.369 . S
C539 C541 1.419 . S
C539 H543 0.930 . S
C540 C539 1.369 . S
C540 C549 1.429 . S
C541 C539 1.419 . S
C541 C542 1.363 . S
C541 H544 0.929 . S
C542 C541 1.363 . S
C542 C548 1.428 . S
H543 C539 0.930 . S
H544 C541 0.929 . S
S545 N546 1.613 . S
S545 N547 1.610 . S
N546 S545 1.613 . S
N546 C549 1.350 . S
N547 S545 1.610 . S
N547 C548 1.351 . S
C548 C542 1.428 . S
C548 N547 1.351 . S
C548 C549 1.434 . S
C549 C540 1.429 . S
C549 N546 1.350 . S
C549 C548 1.434 . S
C550 C551 1.369 . S
C550 C552 1.419 . S
C550 H554 0.930 . S
C551 C550 1.369 . S
C551 C560 1.429 . S
C552 C550 1.419 . S
C552 C553 1.363 . S
C552 H555 0.929 . S
C553 C552 1.363 . S
C553 C559 1.428 . S
H554 C550 0.930 . S
H555 C552 0.929 . S
S556 N557 1.613 . S
S556 N558 1.610 . S
N557 S556 1.613 . S
N557 C560 1.350 . S
N558 S556 1.610 . S
N558 C559 1.351 . S
C559 C553 1.428 . S
C559 N558 1.351 . S
C559 C560 1.434 . S
C560 C551 1.429 . S
C560 N557 1.350 . S
C560 C559 1.434 . S
C561 C562 1.369 . S
C561 C563 1.419 . S
C561 H565 0.930 . S
C562 C561 1.369 . S
C562 C571 1.429 . S
C563 C561 1.419 . S
C563 C564 1.363 . S
C563 H566 0.929 . S
C564 C563 1.363 . S
C564 C570 1.428 . S
H565 C561 0.930 . S
H566 C563 0.929 . S
S567 N568 1.613 . S
S567 N569 1.610 . S
N568 S567 1.613 . S
N568 C571 1.350 . S
N569 S567 1.610 . S
N569 C570 1.351 . S
C570 C564 1.428 . S
C570 N569 1.351 . S
C570 C571 1.434 . S
C571 C562 1.429 . S
C571 N568 1.350 . S
C571 C570 1.434 . S
C572 C573 1.369 . S
C572 C574 1.419 . S
C572 H576 0.930 . S
C573 C572 1.369 . S
C573 C582 1.429 . S
C574 C572 1.419 . S
C574 C575 1.363 . S
C574 H577 0.929 . S
C575 C574 1.363 . S
C575 C581 1.428 . S
H576 C572 0.930 . S
H577 C574 0.929 . S
S578 N579 1.613 . S
S578 N580 1.610 . S
N579 S578 1.613 . S
N579 C582 1.350 . S
N580 S578 1.610 . S
N580 C581 1.351 . S
C581 C575 1.428 . S
C581 N580 1.351 . S
C581 C582 1.434 . S
C582 C573 1.429 . S
C582 N579 1.350 . S
C582 C581 1.434 . S
C583 C584 1.369 . S
C583 C585 1.419 . S
C583 H587 0.930 . S
C584 C583 1.369 . S
C584 C593 1.429 . S
C585 C583 1.419 . S
C585 C586 1.363 . S
C585 H588 0.929 . S
C586 C585 1.363 . S
C586 C592 1.428 . S
H587 C583 0.930 . S
H588 C585 0.929 . S
S589 N590 1.613 . S
S589 N591 1.610 . S
N590 S589 1.613 . S
N590 C593 1.350 . S
N591 S589 1.610 . S
N591 C592 1.351 . S
C592 C586 1.428 . S
C592 N591 1.351 . S
C592 C593 1.434 . S
C593 C584 1.429 . S
C593 N590 1.350 . S
C593 C592 1.434 . S
C594 C595 1.369 . S
C594 C596 1.419 . S
C594 H598 0.930 . S
C595 C594 1.369 . S
C595 C604 1.429 . S
C596 C594 1.419 . S
C596 C597 1.353 1_554 S
C596 H599 0.929 . S
C597 C596 1.353 1_556 S
C597 C603 1.430 . S
H598 C594 0.930 . S
H599 C596 0.929 . S
S600 N601 1.613 1_556 S
S600 N602 1.610 . S
N601 S600 1.613 1_554 S
N601 C604 1.350 . S
N602 S600 1.610 . S
N602 C603 1.351 . S
C603 C597 1.430 . S
C603 N602 1.351 . S
C603 C604 1.434 1_556 S
C604 C595 1.429 . S
C604 N601 1.350 . S
C604 C603 1.434 1_554 S
C605 C606 1.369 . S
C605 C607 1.419 . S
C605 H609 0.930 . S
C606 C605 1.369 . S
C606 C615 1.429 1_554 S
C607 C605 1.419 . S
C607 C608 1.363 1_554 S
C607 H610 0.929 . S
C608 C607 1.363 1_556 S
C608 C614 1.428 . S
H609 C605 0.930 . S
H610 C607 0.929 . S
S611 N612 1.613 . S
S611 N613 1.610 . S
N612 S611 1.613 . S
N612 C615 1.350 . S
N613 S611 1.610 . S
N613 C614 1.351 . S
C614 C608 1.428 . S
C614 N613 1.351 . S
C614 C615 1.434 . S
C615 C606 1.429 1_556 S
C615 N612 1.350 . S
C615 C614 1.434 . S
C616 C617 1.369 1_554 S
C616 C618 1.419 . S
C616 H620 0.930 . S
C617 C616 1.369 1_556 S
C617 C626 1.429 . S
C618 C616 1.419 . S
C618 C619 1.363 . S
C618 H621 0.929 . S
C619 C618 1.363 . S
C619 C625 1.428 . S
H620 C616 0.930 . S
H621 C618 0.929 . S
S622 N623 1.613 . S
S622 N624 1.610 1_556 S
N623 S622 1.613 . S
N623 C626 1.350 . S
N624 S622 1.610 1_554 S
N624 C625 1.351 . S
C625 C619 1.428 . S
C625 N624 1.351 . S
C625 C626 1.434 1_554 S
C626 C617 1.429 . S
C626 N623 1.350 . S
C626 C625 1.434 1_556 S
C627 C628 1.369 . S
C627 C629 1.419 . S
C627 H631 0.930 . S
C628 C627 1.369 . S
C628 C637 1.429 . S
C629 C627 1.419 . S
C629 C630 1.363 . S
C629 H632 0.929 . S
C630 C629 1.363 . S
C630 C636 1.428 . S
H631 C627 0.930 . S
H632 C629 0.929 . S
S633 N634 1.613 . S
S633 N635 1.610 . S
N634 S633 1.613 . S
N634 C637 1.350 . S
N635 S633 1.610 . S
N635 C636 1.351 . S
C636 C630 1.428 . S
C636 N635 1.351 . S
C636 C637 1.434 . S
C637 C628 1.429 . S
C637 N634 1.350 . S
C637 C636 1.434 . S
C638 C639 1.369 . S
C638 C640 1.419 . S
C638 H642 0.930 . S
C639 C638 1.369 . S
C639 C648 1.429 . S
C640 C638 1.419 . S
C640 C641 1.363 . S
C640 H643 0.929 . S
C641 C640 1.363 . S
C641 C647 1.428 . S
H642 C638 0.930 . S
H643 C640 0.929 . S
S644 N645 1.613 . S
S644 N646 1.610 . S
N645 S644 1.613 . S
N645 C648 1.350 . S
N646 S644 1.610 . S
N646 C647 1.351 . S
C647 C641 1.428 . S
C647 N646 1.351 . S
C647 C648 1.434 . S
C648 C639 1.429 . S
C648 N645 1.350 . S
C648 C647 1.434 . S
C649 C650 1.369 . S
C649 C651 1.419 . S
C649 H653 0.930 . S
C650 C649 1.369 . S
C650 C659 1.429 . S
C651 C649 1.419 . S
C651 C652 1.363 . S
C651 H654 0.929 . S
C652 C651 1.363 . S
C652 C658 1.428 . S
H653 C649 0.930 . S
H654 C651 0.929 . S
S655 N656 1.613 . S
S655 N657 1.610 . S
N656 S655 1.613 . S
N656 C659 1.350 . S
N657 S655 1.610 . S
N657 C658 1.351 . S
C658 C652 1.428 . S
C658 N657 1.351 . S
C658 C659 1.434 . S
C659 C650 1.429 . S
C659 N656 1.350 . S
C659 C658 1.434 . S
C660 C661 1.371 . S
C660 C662 1.419 . S
C660 H664 0.930 . S
C661 C660 1.371 . S
C661 C670 1.426 1_554 S
C662 C660 1.419 . S
C662 C663 1.363 1_554 S
C662 H665 0.929 . S
C663 C662 1.363 1_556 S
C663 C669 1.428 . S
H664 C660 0.930 . S
H665 C662 0.929 . S
S666 N667 1.613 . S
S666 N668 1.610 . S
N667 S666 1.613 . S
N667 C670 1.350 . S
N668 S666 1.610 . S
N668 C669 1.351 . S
C669 C663 1.428 . S
C669 N668 1.351 . S
C669 C670 1.434 . S
C670 C661 1.426 1_556 S
C670 N667 1.350 . S
C670 C669 1.434 . S
C671 C672 1.369 1_554 S
C671 C673 1.419 . S
C671 H675 0.930 . S
C672 C671 1.369 1_556 S
C672 C681 1.429 . S
C673 C671 1.419 . S
C673 C674 1.366 . S
C673 H676 0.929 . S
C674 C673 1.366 . S
C674 C680 1.422 1_554 S
H675 C671 0.930 . S
H676 C673 0.929 . S
S677 N678 1.613 . S
S677 N679 1.610 . S
N678 S677 1.613 . S
N678 C681 1.350 . S
N679 S677 1.610 . S
N679 C680 1.351 . S
C680 C674 1.422 1_556 S
C680 N679 1.351 . S
C680 C681 1.434 . S
C681 C672 1.429 . S
C681 N678 1.350 . S
C681 C680 1.434 . S
C682 C683 1.369 1_556 S
C682 C684 1.419 . S
C682 H686 0.930 . S
C683 C682 1.369 1_554 S
C683 C692 1.429 . S
C684 C682 1.419 . S
C684 C685 1.363 . S
C684 H687 0.929 . S
C685 C684 1.363 . S
C685 C691 1.428 1_556 S
H686 C682 0.930 . S
H687 C684 0.929 . S
S688 N689 1.613 . S
S688 N690 1.610 . S
N689 S688 1.613 . S
N689 C692 1.350 . S
N690 S688 1.610 . S
N690 C691 1.351 . S
C691 C685 1.428 1_554 S
C691 N690 1.351 . S
C691 C692 1.434 . S
C692 C683 1.429 . S
C692 N689 1.350 . S
C692 C691 1.434 . S
C693 C694 1.369 . S
C693 C695 1.419 . S
C693 H697 0.930 . S
C694 C693 1.369 . S
C694 C703 1.429 . S
C695 C693 1.419 . S
C695 C696 1.363 . S
C695 H698 0.929 . S
C696 C695 1.363 . S
C696 C702 1.428 . S
H697 C693 0.930 . S
H698 C695 0.929 . S
S699 N700 1.613 . S
S699 N701 1.610 . S
N700 S699 1.613 . S
N700 C703 1.350 . S
N701 S699 1.610 . S
N701 C702 1.351 . S
C702 C696 1.428 . S
C702 N701 1.351 . S
C702 C703 1.434 . S
C703 C694 1.429 . S
C703 N700 1.350 . S
C703 C702 1.434 . S
C704 C705 1.369 . S
C704 C706 1.419 . S
C704 H708 0.930 . S
C705 C704 1.369 . S
C705 C714 1.429 . S
C706 C704 1.419 . S
C706 C707 1.363 . S
C706 H709 0.929 . S
C707 C706 1.363 . S
C707 C713 1.428 . S
H708 C704 0.930 . S
H709 C706 0.929 . S
S710 N711 1.613 . S
S710 N712 1.610 . S
N711 S710 1.613 . S
N711 C714 1.350 . S
N712 S710 1.610 . S
N712 C713 1.351 . S
C713 C707 1.428 . S
C713 N712 1.351 . S
C713 C714 1.434 . S
C714 C705 1.429 . S
C714 N711 1.350 . S
C714 C713 1.434 . S
C715 C716 1.369 . S
C715 C717 1.419 . S
C715 H719 0.930 . S
C716 C715 1.369 . S
C716 C725 1.429 . S
C717 C715 1.419 . S
C717 C718 1.363 . S
C717 H720 0.929 . S
C718 C717 1.363 . S
C718 C724 1.428 . S
H719 C715 0.930 . S
H720 C717 0.929 . S
S721 N722 1.613 . S
S721 N723 1.610 . S
N722 S721 1.613 . S
N722 C725 1.350 . S
N723 S721 1.610 . S
N723 C724 1.351 . S
C724 C718 1.428 . S
C724 N723 1.351 . S
C724 C725 1.434 . S
C725 C716 1.429 . S
C725 N722 1.350 . S
C725 C724 1.434 . S
C397 C173 1.736 . S
C399 C8 1.733 . S
C408 C41 1.736 . S
C410 C107 1.733 . S
C419 C74 1.736 . S
C421 C140 1.733 . S
C430 C206 1.734 . S
C432 C371 1.734 . S
C441 C305 1.733 . S
C443 C239 1.735 . S
C452 C338 1.736 . S
C454 C272 1.732 . S
C463 C17 2.497 1_556 S
C465 C215 2.488 1_554 S
C474 C50 2.487 1_556 S
C476 C248 2.495 1_554 S
C485 C281 2.497 1_554 S
C487 C83 2.488 1_556 S
C496 C314 2.487 . S
C498 C116 2.496 . S
C507 C149 2.494 . S
C509 C347 2.489 . S
C518 C182 2.497 . S
C520 C380 2.488 . S
C529 N146 1.934 . S
C531 N14 1.939 . S
C540 N179 1.932 . S
C542 N47 1.936 . S
C551 N113 1.932 . S
C553 N80 1.937 . S
C562 N212 1.933 . S
C564 N344 1.938 . S
C573 N245 1.933 . S
C575 N377 1.938 . S
C584 N311 1.938 . S
C586 N278 1.940 . S
C595 C28 0.800 . S
C597 N71 0.753 1_556 S
C606 C61 0.805 . S
C608 N5 0.778 1_556 S
C617 N38 0.778 1_556 S
C619 C94 0.804 . S
C628 C127 0.810 . S
C630 N137 0.756 . S
C639 N170 0.750 . S
C641 C160 0.805 . S
C650 N104 0.782 . S
C652 C193 0.806 . S
C661 N269 0.748 1_554 S
C663 C226 0.805 . S
C672 C259 0.806 . S
C674 N203 0.749 1_554 S
C683 N236 0.783 1_554 S
C685 C292 0.809 . S
C694 N335 0.751 . S
C696 C325 0.807 . S
C705 N368 0.781 . S
C707 C358 0.806 . S
C716 C391 0.800 . S
C718 N302 0.762 . S
