# Generated by pormake.
# Topology snk, (6)-cn, num edge types: 1
# Building blocks:
#     Node 0, Type 0, BuildingBlock: GEDQOX_clean_sbu_0, # of connection points: 6
#     Node 1, Type 0, BuildingBlock: GEDQOX_clean_sbu_0, # of connection points: 6
#     Node 2, Type 0, BuildingBlock: GEDQOX_clean_sbu_0, # of connection points: 6
#     Node 3, Type 0, BuildingBlock: GEDQOX_clean_sbu_0, # of connection points: 6
#     Node 4, Type 0, BuildingBlock: GEDQOX_clean_sbu_0, # of connection points: 6
#     Node 5, Type 0, BuildingBlock: GEDQOX_clean_sbu_0, # of connection points: 6
#     Node 6, Type 0, BuildingBlock: GEDQOX_clean_sbu_0, # of connection points: 6
#     Node 7, Type 0, BuildingBlock: GEDQOX_clean_sbu_0, # of connection points: 6
#     Edge 8, Type (0, 0), BuildingBlock: XIVTED_clean_linker_0, # of connection points: 2
#     Edge 9, Type (0, 0), BuildingBlock: XIVTED_clean_linker_0, # of connection points: 2
#     Edge 10, Type (0, 0), BuildingBlock: XIVTED_clean_linker_0, # of connection points: 2
#     Edge 11, Type (0, 0), BuildingBlock: XIVTED_clean_linker_0, # of connection points: 2
#     Edge 12, Type (0, 0), BuildingBlock: XIVTED_clean_linker_0, # of connection points: 2
#     Edge 13, Type (0, 0), BuildingBlock: XIVTED_clean_linker_0, # of connection points: 2
#     Edge 14, Type (0, 0), BuildingBlock: XIVTED_clean_linker_0, # of connection points: 2
#     Edge 15, Type (0, 0), BuildingBlock: XIVTED_clean_linker_0, # of connection points: 2
#     Edge 16, Type (0, 0), BuildingBlock: XIVTED_clean_linker_0, # of connection points: 2
#     Edge 17, Type (0, 0), BuildingBlock: XIVTED_clean_linker_0, # of connection points: 2
#     Edge 18, Type (0, 0), BuildingBlock: XIVTED_clean_linker_0, # of connection points: 2
#     Edge 19, Type (0, 0), BuildingBlock: XIVTED_clean_linker_0, # of connection points: 2
#     Edge 20, Type (0, 0), BuildingBlock: XIVTED_clean_linker_0, # of connection points: 2
#     Edge 21, Type (0, 0), BuildingBlock: XIVTED_clean_linker_0, # of connection points: 2
#     Edge 22, Type (0, 0), BuildingBlock: XIVTED_clean_linker_0, # of connection points: 2
#     Edge 23, Type (0, 0), BuildingBlock: XIVTED_clean_linker_0, # of connection points: 2
#     Edge 24, Type (0, 0), BuildingBlock: XIVTED_clean_linker_0, # of connection points: 2
#     Edge 25, Type (0, 0), BuildingBlock: XIVTED_clean_linker_0, # of connection points: 2
#     Edge 26, Type (0, 0), BuildingBlock: XIVTED_clean_linker_0, # of connection points: 2
#     Edge 27, Type (0, 0), BuildingBlock: XIVTED_clean_linker_0, # of connection points: 2
#     Edge 28, Type (0, 0), BuildingBlock: XIVTED_clean_linker_0, # of connection points: 2
#     Edge 29, Type (0, 0), BuildingBlock: XIVTED_clean_linker_0, # of connection points: 2
#     Edge 30, Type (0, 0), BuildingBlock: XIVTED_clean_linker_0, # of connection points: 2
#     Edge 31, Type (0, 0), BuildingBlock: XIVTED_clean_linker_0, # of connection points: 2
# Relax obj value: 0.116
# Max RMSD: 0.184
# Mean RMSD: 0.184
data_MOF--net-snk--node1-GEDQOX_clean_sbu_0--edge1-XIVTED_clean_linker_0
_symmetry_space_group_name_H-M    P1
_symmetry_Int_Tables_number       1
_symmetry_cell_setting            triclinic
loop_
_symmetry_equiv_pos_as_xyz
'x, y, z'
_cell_length_a     56.741887
_cell_length_b     56.840319
_cell_length_c     15.696907
_cell_angle_alpha  89.809982
_cell_angle_beta   90.061379
_cell_angle_gamma 89.948738
loop_
_atom_site_label
_atom_site_type_symbol
_atom_site_fract_x
_atom_site_fract_y
_atom_site_fract_z
_atom_type_partial_charge
Nd0 Nd 0.03121 0.03977 0.51729 0.0
Nd1 Nd 1.001 0.99117 0.51614 0.0
C2 C 0.04599 0.08387 0.50568 0.0
C3 C 0.06707 0.0975 0.47841 0.0
C4 C 0.06555 0.11318 0.40917 0.0
C5 C 0.085 0.12689 0.385 0.0
C6 C 0.10647 0.12533 0.4298 0.0
C7 C 0.10788 0.10961 0.49925 0.0
C8 C 0.0885 0.09588 0.5231 0.0
C9 C 0.0603 1.00005 0.51816 0.0
C10 C 0.02017 1.01252 0.33916 0.0
C11 C 0.98467 0.94766 0.5353 0.0
C12 C 0.96344 0.93347 0.55593 0.0
C13 C 0.95328 0.9193 0.49265 0.0
C14 C 0.93437 0.90439 0.51172 0.0
C15 C 0.92519 0.90311 0.59487 0.0
C16 C 0.93534 0.91733 0.65831 0.0
C17 C 0.95424 0.93235 0.63911 0.0
C18 C 0.97523 0.0318 0.49036 0.0
C19 C 0.01489 0.01667 0.69871 0.0
O20 O 0.03342 0.07366 0.44616 0.0
O21 O 0.0479 0.07105 0.57496 0.0
O22 O 0.06842 0.02139 0.52035 0.0
O23 O 0.03838 1.00147 0.51328 0.0
O24 O 0.02161 0.03316 0.3775 0.0
O25 O 0.01746 0.99267 0.38253 0.0
O26 O 0.99467 0.95963 0.59652 0.0
O27 O 0.98516 0.9587 0.462 0.0
O28 O 0.96885 1.01119 0.46351 0.0
O29 O 0.99289 0.02986 0.5389 0.0
O30 O 1.00859 0.99723 0.65839 0.0
O31 O 0.02109 0.03618 0.65818 0.0
H32 H 0.04922 0.11494 0.37386 0.0
H33 H 0.08324 0.13855 0.33068 0.0
H34 H 0.12389 0.10818 0.53653 0.0
H35 H 0.09032 0.08416 0.57727 0.0
H36 H 0.96023 0.91944 0.42839 0.0
H37 H 0.92728 0.89346 0.46148 0.0
H38 H 0.92858 0.91699 0.72279 0.0
H39 H 0.96176 0.94287 0.68969 0.0
Nd40 Nd 0.24021 0.77877 0.78055 0.0
Nd41 Nd 0.285 0.75068 0.77041 0.0
C42 C 0.19779 0.79823 0.76364 0.0
C43 C 0.18555 0.81893 0.72624 0.0
C44 C 0.16478 0.8156 0.67918 0.0
C45 C 0.15178 0.83491 0.64917 0.0
C46 C 0.15918 0.8581 0.66585 0.0
C47 C 0.18032 0.86134 0.71161 0.0
C48 C 0.19335 0.84201 0.74132 0.0
C49 C 0.28036 0.80551 0.80314 0.0
C50 C 0.26464 0.76965 0.59472 0.0
C51 C 0.32781 0.73194 0.78578 0.0
C52 C 0.34105 0.71223 0.82495 0.0
C53 C 0.36503 0.71519 0.84392 0.0
C54 C 0.37866 0.6962 0.87282 0.0
C55 C 0.36861 0.67374 0.88322 0.0
C56 C 0.34432 0.67105 0.86673 0.0
C57 C 0.33069 0.69008 0.83793 0.0
C58 C 0.24476 0.72401 0.74731 0.0
C59 C 0.2603 0.75936 0.95625 0.0
O60 O 0.20593 0.78227 0.71161 0.0
O61 O 0.21179 0.80192 0.82832 0.0
O62 O 0.26058 0.80921 0.84159 0.0
O63 O 0.27819 0.78929 0.74899 0.0
O64 O 0.2447 0.77214 0.63684 0.0
O65 O 0.28463 0.76601 0.63561 0.0
O66 O 0.31992 0.74852 0.83575 0.0
O67 O 0.31302 0.72671 0.72494 0.0
O68 O 0.26455 0.72032 0.70877 0.0
O69 O 0.24701 0.74012 0.80182 0.0
O70 O 0.28026 0.7567 0.91438 0.0
O71 O 0.24038 0.76329 0.91518 0.0
H72 H 0.15837 0.79799 0.66673 0.0
H73 H 0.13588 0.83162 0.61297 0.0
H74 H 0.18651 0.87885 0.72676 0.0
H75 H 0.20928 0.84518 0.77759 0.0
H76 H 0.37342 0.7321 0.83399 0.0
H77 H 0.39729 0.69896 0.88388 0.0
H78 H 0.33585 0.65414 0.8753 0.0
H79 H 0.31218 0.68737 0.82404 0.0
Nd80 Nd 0.49757 0.99099 1.01554 0.0
Nd81 Nd 0.52992 0.03813 1.01213 0.0
C82 C 0.48232 0.94704 1.00576 0.0
C83 C 0.46227 0.93339 0.97179 0.0
C84 C 0.46476 0.90913 0.95872 0.0
C85 C 0.44554 0.89554 0.93207 0.0
C86 C 0.42333 0.90596 0.91814 0.0
C87 C 0.4211 0.93046 0.92937 0.0
C88 C 0.44036 0.94404 0.95583 0.0
C89 C 0.46995 0.03154 1.01264 0.0
C90 C 0.50911 0.0181 0.83612 0.0
C91 C 0.5493 0.08035 0.03016 0.0
C92 C 0.56969 0.09274 0.0686 0.0
C93 C 0.56582 0.11323 0.11627 0.0
C94 C 0.58482 0.12639 0.14751 0.0
C95 C 0.60823 0.11943 0.13151 0.0
C96 C 0.61202 0.09857 0.08509 0.0
C97 C 0.593 0.08538 0.0541 0.0
C98 C 0.55303 0.99608 0.98694 0.0
C99 C 0.51641 1.01295 0.19656 0.0
O100 O 0.49691 0.9563 0.95029 0.0
O101 O 0.47778 0.96102 0.06996 0.0
O102 O 0.46115 1.01046 1.01489 0.0
O103 O 0.49192 0.02965 1.00963 0.0
O104 O 0.50637 0.99755 0.87482 0.0
O105 O 0.51319 0.03774 0.87894 0.0
O106 O 0.53309 0.07215 0.08154 0.0
O107 O 0.55341 0.06645 0.96554 0.0
O108 O 0.56002 0.016 0.95538 0.0
O109 O 0.53605 0.99929 0.03736 0.0
O110 O 0.52518 0.03141 0.15572 0.0
O111 O 0.50731 0.99453 0.15682 0.0
H112 H 0.48151 0.90056 0.97087 0.0
H113 H 0.44791 0.87674 0.92503 0.0
H114 H 0.4044 0.93917 0.91801 0.0
H115 H 0.43807 0.96278 0.96508 0.0
H116 H 0.54803 0.1193 0.12826 0.0
H117 H 0.58111 0.14206 0.18414 0.0
H118 H 0.62972 0.09273 0.07045 0.0
H119 H 0.59659 0.06969 1.01736 0.0
Nd120 Nd 0.29053 0.25008 0.28372 0.0
Nd121 Nd 0.24258 0.28093 0.27915 0.0
C122 C 0.33353 0.23233 0.26606 0.0
C123 C 0.3461 0.2119 0.22933 0.0
C124 C 0.36702 0.21558 0.18362 0.0
C125 C 0.38005 0.19651 0.15253 0.0
C126 C 0.3725 0.17323 0.16672 0.0
C127 C 0.35127 0.16964 0.21149 0.0
C128 C 0.33821 0.18874 0.24228 0.0
C129 C 0.24937 0.22508 0.30582 0.0
C130 C 0.26555 0.2632 0.09876 0.0
C131 C 0.19849 0.29589 0.28932 0.0
C132 C 0.18514 0.31623 0.32313 0.0
C133 C 0.16396 0.31242 0.36708 0.0
C134 C 0.1506 0.33143 0.39695 0.0
C135 C 0.15809 0.35477 0.38324 0.0
C136 C 0.1795 0.35847 0.3398 0.0
C137 C 0.1929 0.33944 0.31038 0.0
C138 C 0.2823 0.30976 0.28421 0.0
C139 C 0.2691 0.2696 0.45921 0.0
O140 O 0.32443 0.24761 0.21284 0.0
O141 O 0.32013 0.22849 0.33248 0.0
O142 O 0.26966 0.21861 0.33593 0.0
O143 O 0.25179 0.24263 0.25704 0.0
O144 O 0.28423 0.25513 0.14027 0.0
O145 O 0.24663 0.27154 0.13783 0.0
O146 O 0.2079 0.28146 0.3452 0.0
O147 O 0.21212 0.29979 0.22336 0.0
O148 O 0.26092 0.31785 0.28151 0.0
O149 O 0.28112 0.28777 0.28608 0.0
O150 O 0.24863 0.27157 0.41951 0.0
O151 O 0.28908 0.26628 0.41735 0.0
H152 H 0.37346 0.23328 0.17273 0.0
H153 H 0.39604 0.20006 0.11719 0.0
H154 H 0.34498 0.15202 0.22471 0.0
H155 H 0.32213 0.18534 0.27734 0.0
H156 H 0.15765 0.29467 0.37794 0.0
H157 H 0.13446 0.32779 0.43127 0.0
H158 H 0.18576 0.37611 0.32683 0.0
H159 H 0.2092 0.34294 0.27682 0.0
Nd160 Nd 0.73977 0.27895 0.28195 0.0
Nd161 Nd 0.78832 0.2485 0.28049 0.0
C162 C 0.69639 0.29592 0.26349 0.0
C163 C 0.68337 0.31659 0.23073 0.0
C164 C 0.65924 0.31452 0.21285 0.0
C165 C 0.64609 0.33415 0.1869 0.0
C166 C 0.65679 0.35638 0.17833 0.0
C167 C 0.68118 0.35824 0.1946 0.0
C168 C 0.69433 0.33855 0.2205 0.0
C169 C 0.78054 0.30428 0.30723 0.0
C170 C 0.76557 0.26607 0.09871 0.0
C171 C 0.83279 0.23432 0.29058 0.0
C172 C 0.84703 0.21436 0.32267 0.0
C173 C 0.87149 0.21695 0.3318 0.0
C174 C 0.88557 0.19783 0.35662 0.0
C175 C 0.87549 0.17563 0.3727 0.0
C176 C 0.85082 0.1733 0.36533 0.0
C177 C 0.83675 0.19245 0.34061 0.0
C178 C 0.74859 0.21956 0.28246 0.0
C179 C 0.76092 0.25932 0.45893 0.0
O180 O 0.70645 0.28216 0.20763 0.0
O181 O 0.70931 0.29907 0.33157 0.0
O182 O 0.76 0.31056 0.33535 0.0
O183 O 0.7786 0.28679 0.25825 0.0
O184 O 0.74651 0.27364 0.13891 0.0
O185 O 0.78457 0.25828 0.13911 0.0
O186 O 0.82294 0.24807 0.34731 0.0
O187 O 0.81903 0.23002 0.22534 0.0
O188 O 0.76999 0.21144 0.2808 0.0
O189 O 0.74987 0.2415 0.28523 0.0
O190 O 0.7816 0.25749 0.4206 0.0
O191 O 0.74108 0.26243 0.41567 0.0
H192 H 0.65043 0.29775 0.22061 0.0
H193 H 0.62737 0.33202 0.17609 0.0
H194 H 0.69013 0.37494 0.1875 0.0
H195 H 0.71297 0.34053 0.23362 0.0
H196 H 0.87979 0.2337 0.31801 0.0
H197 H 0.90446 0.20031 0.36061 0.0
H198 H 0.84234 0.15662 0.37846 0.0
H199 H 0.81789 0.19007 0.33433 0.0
Nd200 Nd 0.78916 0.74561 0.77421 0.0
Nd201 Nd 0.74376 0.77888 0.77298 0.0
C202 C 0.83303 0.7298 0.76349 0.0
C203 C 0.84679 0.70963 0.73144 0.0
C204 C 0.87128 0.71177 0.72221 0.0
C205 C 0.88494 0.69247 0.6971 0.0
C206 C 0.87439 0.67053 0.68081 0.0
C207 C 0.84968 0.66865 0.68822 0.0
C208 C 0.83603 0.688 0.71326 0.0
C209 C 0.74853 0.71843 0.78334 0.0
C210 C 0.76092 0.75734 0.59398 0.0
C211 C 0.70624 0.80471 0.80406 0.0
C212 C 0.68561 0.81954 0.8255 0.0
C213 C 0.66738 0.82321 0.76638 0.0
C214 C 0.64945 0.83956 0.78317 0.0
C215 C 0.64923 0.85232 0.85997 0.0
C216 C 0.66695 0.8478 0.92053 0.0
C217 C 0.685 0.83172 0.90326 0.0
C218 C 0.786 0.79975 0.73088 0.0
C219 C 0.76661 0.76096 0.95382 0.0
O220 O 0.82356 0.74389 0.70669 0.0
O221 O 0.8192 0.72576 0.82871 0.0
O222 O 0.76962 0.70958 0.78095 0.0
O223 O 0.7501 0.74042 0.77864 0.0
O224 O 0.78105 0.75188 0.63228 0.0
O225 O 0.7422 0.76495 0.63632 0.0
O226 O 0.70543 0.78677 0.75149 0.0
O227 O 0.72679 0.80848 0.83954 0.0
O228 O 0.76599 0.80493 0.69577 0.0
O229 O 0.78321 0.7847 0.78948 0.0
O230 O 0.74711 0.76611 0.9116 0.0
O231 O 0.78663 0.75638 0.91425 0.0
H232 H 0.87992 0.72831 0.73613 0.0
H233 H 0.90387 0.69457 0.69308 0.0
H234 H 0.84087 0.65218 0.67493 0.0
H235 H 0.81712 0.686 0.71958 0.0
H236 H 0.66746 0.81411 0.70585 0.0
H237 H 0.63595 0.84251 0.73548 0.0
H238 H 0.66746 0.85745 0.97989 0.0
H239 H 0.69882 0.82923 0.95012 0.0
Nd240 Nd 0.5274 0.5379 0.0325 0.0
Nd241 Nd 0.4998 0.49308 1.02195 0.0
C242 C 0.54625 0.58054 1.01659 0.0
C243 C 0.5666 0.59338 0.97982 0.0
C244 C 0.56275 0.61469 0.93654 0.0
C245 C 0.58175 0.62828 0.90776 0.0
C246 C 0.60515 0.62093 0.92188 0.0
C247 C 0.60892 0.59926 0.96372 0.0
C248 C 0.58989 0.58564 0.99224 0.0
C249 C 0.55465 0.49798 0.05508 0.0
C250 C 0.51863 0.5135 0.84652 0.0
C251 C 0.48108 0.45041 0.03816 0.0
C252 C 0.46116 0.43746 0.07753 0.0
C253 C 0.46562 0.41653 0.12245 0.0
C254 C 0.44701 0.4028 0.15369 0.0
C255 C 0.42341 0.40962 0.1404 0.0
C256 C 0.41904 0.43093 0.09693 0.0
C257 C 0.43767 0.44469 0.06598 0.0
C258 C 0.47257 0.53294 0.99825 0.0
C259 C 0.5083 0.5176 0.20787 0.0
O260 O 0.53034 0.57231 0.96428 0.0
O261 O 0.55038 0.56638 0.08059 0.0
O262 O 0.55814 0.51767 0.09402 0.0
O263 O 0.53838 0.50014 1.0008 0.0
O264 O 0.52089 0.53343 0.88857 0.0
O265 O 0.51521 0.49352 0.88752 0.0
O266 O 0.49766 0.45834 0.0883 0.0
O267 O 0.47623 0.46486 0.97569 0.0
O268 O 0.46926 0.5132 0.95943 0.0
O269 O 0.4887 0.53089 0.05323 0.0
O270 O 0.50598 0.49767 0.16596 0.0
O271 O 0.51189 0.53754 0.16679 0.0
H272 H 0.54496 0.62106 0.92626 0.0
H273 H 0.57807 0.64461 0.87459 0.0
H274 H 0.62661 0.59308 0.9768 0.0
H275 H 0.59345 0.56931 0.0256 0.0
H276 H 0.48356 0.41054 0.1321 0.0
H277 H 0.45116 0.38677 0.18803 0.0
H278 H 0.40118 0.43669 0.08439 0.0
H279 H 0.43363 0.46071 0.03139 0.0
Nd280 Nd 0.99989 0.48695 0.53636 0.0
Nd281 Nd 0.03036 0.53549 0.53121 0.0
C282 C 0.98346 0.44342 0.52068 0.0
C283 C 0.96338 0.42991 0.48631 0.0
C284 C 0.96592 0.40567 0.47264 0.0
C285 C 0.94674 0.39209 0.44564 0.0
C286 C 0.92453 0.40247 0.43182 0.0
C287 C 0.92224 0.42697 0.4436 0.0
C288 C 0.94147 0.44054 0.47057 0.0
C289 C 0.97449 0.52778 0.55871 0.0
C290 C 1.01239 0.51223 0.35127 0.0
C291 C 0.04469 0.5798 0.53965 0.0
C292 C 0.06479 0.59365 0.57228 0.0
C293 C 0.06231 0.61797 0.58408 0.0
C294 C 0.08157 0.63167 0.60988 0.0
C295 C 0.10378 0.62131 0.62422 0.0
C296 C 0.106 0.59676 0.61416 0.0
C297 C 0.08671 0.58308 0.58856 0.0
C298 C 0.05926 0.49574 0.53542 0.0
C299 C 0.01952 0.50884 0.71168 0.0
O300 O 0.99788 0.45308 0.46584 0.0
O301 O 0.97922 0.4569 0.58632 0.0
O302 O 0.96814 0.5074 0.58821 0.0
O303 O 0.99207 0.52559 0.50998 0.0
O304 O 1.00473 0.49341 0.39282 0.0
O305 O 0.02044 0.53126 0.39025 0.0
O306 O 0.03061 0.57023 0.59617 0.0
O307 O 0.04904 0.56593 0.47494 0.0
O308 O 0.06746 0.51704 0.5316 0.0
O309 O 0.03731 0.4972 0.53909 0.0
O310 O 0.02143 0.5293 0.67184 0.0
O311 O 0.01629 0.48885 0.67002 0.0
H312 H 0.98268 0.39711 0.48464 0.0
H313 H 0.94918 0.37331 0.43829 0.0
H314 H 0.90554 0.43567 0.43232 0.0
H315 H 0.93915 0.45926 0.48033 0.0
H316 H 0.04555 0.62648 0.5717 0.0
H317 H 0.07919 0.65049 0.61603 0.0
H318 H 0.1227 0.58809 0.62587 0.0
H319 H 0.089 0.5643 0.58032 0.0
H320 H 0.15328 0.11288 0.43226 0.0
H321 H 0.20367 0.23564 0.25662 0.0
H322 H 0.10755 0.1712 0.36962 0.0
H323 H 0.24542 0.1828 0.38446 0.0
H324 H 0.16822 0.21149 0.28225 0.0
H325 H 0.18726 0.1373 0.39898 0.0
C326 C 0.1503 0.13087 0.41199 0.0
C327 C 0.12734 0.13995 0.40497 0.0
C328 C 0.18519 0.20525 0.30449 0.0
C329 C 0.16657 0.16814 0.36492 0.0
C330 C 0.20538 0.21899 0.28978 0.0
C331 C 0.22751 0.21121 0.31846 0.0
C332 C 0.18729 0.18352 0.34721 0.0
C333 C 0.22875 0.18952 0.36122 0.0
C334 C 0.1698 0.14482 0.39248 0.0
C335 C 0.12483 0.16329 0.37564 0.0
N336 N 0.20902 0.17647 0.37394 0.0
N337 N 0.14417 0.17658 0.35692 0.0
H338 H 0.04448 0.95482 0.5411 0.0
H339 H 0.17435 0.90129 0.60696 0.0
H340 H 0.10807 0.9961 0.52845 0.0
H341 H 0.11073 0.86232 0.66027 0.0
H342 H 0.15033 0.93524 0.56681 0.0
H343 H 0.06836 0.91977 0.57252 0.0
C344 C 0.06347 0.95646 0.54442 0.0
C345 C 0.07433 0.97838 0.53236 0.0
C346 C 0.14161 0.91924 0.58712 0.0
C347 C 0.10178 0.93842 0.56822 0.0
C348 C 0.15535 0.89982 0.61059 0.0
C349 C 0.14468 0.87876 0.63764 0.0
C350 C 0.11691 0.91776 0.59023 0.0
C351 C 0.11987 0.87797 0.63897 0.0
C352 C 0.0771 0.93648 0.56258 0.0
C353 C 0.099 0.97954 0.53747 0.0
N354 N 0.10689 0.89713 0.61585 0.0
N355 N 0.11186 0.95989 0.55503 0.0
H356 H 0.28446 0.84319 0.90757 0.0
H357 H 0.42092 0.86788 0.80941 0.0
H358 H 0.32444 0.80161 0.72947 0.0
H359 H 0.37793 0.91012 0.97633 0.0
H360 H 0.38648 0.84328 0.77849 0.0
H361 H 0.31898 0.86764 0.9323 0.0
C362 C 0.30055 0.83923 0.87337 0.0
C363 C 0.30153 0.82036 0.8161 0.0
C364 C 0.3846 0.85799 0.82161 0.0
C365 C 0.34145 0.84842 0.84454 0.0
C366 C 0.40429 0.87201 0.83967 0.0
C367 C 0.40242 0.89122 0.8956 0.0
C368 C 0.36284 0.86309 0.86004 0.0
C369 C 0.38027 0.89579 0.93191 0.0
C370 C 0.32031 0.85325 0.88756 0.0
C371 C 0.32291 0.81605 0.77391 0.0
N372 N 0.36148 0.88184 0.91373 0.0
N373 N 0.34207 0.82996 0.78906 0.0
H374 H 0.48641 0.07654 0.03644 0.0
H375 H 0.35705 0.13097 0.10181 0.0
H376 H 0.4223 0.03624 1.01875 0.0
H377 H 0.4209 0.16867 0.16241 0.0
H378 H 0.38082 0.09729 0.05828 0.0
H379 H 0.46291 0.11175 0.06852 0.0
C380 C 0.4674 0.07516 0.03871 0.0
C381 C 0.45628 0.05345 0.02535 0.0
C382 C 0.38965 0.11295 0.08091 0.0
C383 C 0.42927 0.09355 0.06185 0.0
C384 C 0.37605 0.13221 0.10634 0.0
C385 C 0.38687 0.1528 0.13651 0.0
C386 C 0.41436 0.11415 0.08521 0.0
C387 C 0.41168 0.15336 0.13881 0.0
C388 C 0.45399 0.09522 0.05724 0.0
C389 C 0.43158 0.05262 0.02891 0.0
N390 N 0.42453 0.13436 0.11379 0.0
N391 N 0.41894 0.07232 0.04692 0.0
H392 H 0.88593 0.8944 0.49812 0.0
H393 H 0.82831 0.80021 0.81895 0.0
H394 H 0.91853 0.87503 0.73677 0.0
H395 H 0.79363 0.82882 0.59701 0.0
H396 H 0.86308 0.82463 0.78622 0.0
H397 H 0.85348 0.86773 0.52958 0.0
C398 C 0.88636 0.88444 0.55704 0.0
C399 C 0.9051 0.88702 0.61472 0.0
C400 C 0.84785 0.82546 0.74468 0.0
C401 C 0.86762 0.85635 0.65183 0.0
C402 C 0.82809 0.81147 0.76316 0.0
C403 C 0.80803 0.81262 0.71091 0.0
C404 C 0.84752 0.84048 0.67313 0.0
C405 C 0.80864 0.82749 0.63941 0.0
C406 C 0.8677 0.86925 0.57526 0.0
C407 C 0.90436 0.87383 0.69077 0.0
N408 N 0.82797 0.84079 0.62281 0.0
N409 N 0.88598 0.85905 0.70706 0.0
H410 H 0.93615 0.03587 0.39229 0.0
H411 H 0.91537 0.17361 0.47413 0.0
H412 H 0.98251 0.07705 0.5504 0.0
H413 H 0.87057 0.13001 0.31832 0.0
H414 H 0.94037 0.13927 0.50342 0.0
H415 H 0.91234 0.07073 0.36534 0.0
C416 C 0.94134 0.05232 0.42149 0.0
C417 C 0.96132 0.0535 0.47403 0.0
C418 C 0.92504 0.13725 0.46299 0.0
C419 C 0.93391 0.09385 0.4432 0.0
C420 C 0.91077 0.15688 0.44587 0.0
C421 C 0.89068 0.15482 0.39371 0.0
C422 C 0.91928 0.11532 0.42754 0.0
C423 C 0.88556 0.13253 0.35995 0.0
C424 C 0.92768 0.07229 0.40602 0.0
C425 C 0.96719 0.07536 0.50971 0.0
N426 N 0.89973 0.11379 0.3773 0.0
N427 N 0.95352 0.0947 0.49374 0.0
H428 H 0.70307 0.23491 0.2597 0.0
H429 H 0.65143 0.10471 0.19232 0.0
H430 H 0.74511 0.17184 0.27484 0.0
H431 H 0.61164 0.16781 0.13837 0.0
H432 H 0.68489 0.12903 0.23456 0.0
H433 H 0.66829 0.2107 0.22824 0.0
C434 C 0.70493 0.21597 0.25696 0.0
C435 C 0.727 0.20535 0.26954 0.0
C436 C 0.66881 0.13757 0.21369 0.0
C437 C 0.68736 0.17753 0.23365 0.0
C438 C 0.64968 0.12366 0.18901 0.0
C439 C 0.62855 0.1341 0.16111 0.0
C440 C 0.66696 0.16223 0.21088 0.0
C441 C 0.62736 0.15885 0.16025 0.0
C442 C 0.68511 0.20215 0.23879 0.0
C443 C 0.72843 0.18074 0.26534 0.0
N444 N 0.64626 0.17202 0.18446 0.0
N445 N 0.70895 0.16769 0.24766 0.0
H446 H 0.63484 0.88639 0.74786 0.0
H447 H 0.54918 0.95371 0.07216 0.0
H448 H 0.62414 0.86228 1.00579 0.0
H449 H 0.58249 0.98662 0.85571 0.0
H450 H 0.57036 0.91693 0.03912 0.0
H451 H 0.60901 0.91991 0.77613 0.0
C452 C 0.62677 0.88794 0.8101 0.0
C453 C 0.63175 0.8715 0.87459 0.0
C454 C 0.57291 0.93222 0.99885 0.0
C455 C 0.6022 0.91004 0.90765 0.0
C456 C 0.56081 0.95313 1.01751 0.0
C457 C 0.56428 0.97325 0.96698 0.0
C458 C 0.58817 0.93141 0.92831 0.0
C459 C 0.57947 0.97158 0.89677 0.0
C460 C 0.61217 0.9072 0.82642 0.0
C461 C 0.62098 0.87466 0.95447 0.0
N462 N 0.59078 0.95108 0.87947 0.0
N463 N 0.60673 0.89356 0.96881 0.0
H464 H 0.60886 0.66935 0.92534 0.0
H465 H 0.74419 0.67087 0.78106 0.0
H466 H 0.64817 0.60711 0.85751 0.0
H467 H 0.7034 0.73417 0.81478 0.0
H468 H 0.70899 0.64746 0.80933 0.0
H469 H 0.64277 0.69347 0.88517 0.0
C470 C 0.62449 0.6607 0.90127 0.0
C471 C 0.62551 0.63601 0.89514 0.0
C472 C 0.70761 0.66645 0.81017 0.0
C473 C 0.66472 0.66372 0.85016 0.0
C474 C 0.72774 0.67985 0.79399 0.0
C475 C 0.72671 0.7045 0.79556 0.0
C476 C 0.68619 0.67772 0.82889 0.0
C477 C 0.70493 0.7152 0.81274 0.0
C478 C 0.64393 0.67454 0.87878 0.0
C479 C 0.64654 0.62597 0.86487 0.0
N480 N 0.68554 0.70174 0.82924 0.0
N481 N 0.66524 0.63981 0.84388 0.0
H482 H 0.66062 0.4012 0.24192 0.0
H483 H 0.55105 0.4544 0.9791 0.0
H484 H 0.61982 0.36012 0.06423 0.0
H485 H 0.5922 0.4934 0.16141 0.0
H486 H 0.57622 0.41982 1.00548 0.0
H487 H 0.63628 0.43537 0.20848 0.0
C488 C 0.6467 0.39936 0.19516 0.0
C489 C 0.6424 0.37761 0.15587 0.0
C490 C 0.57975 0.43598 0.0395 0.0
C491 C 0.61398 0.41691 0.11797 0.0
C492 C 0.56541 0.4557 1.02436 0.0
C493 C 0.56958 0.47682 0.06794 0.0
C494 C 0.59838 0.43743 0.09861 0.0
C495 C 0.58835 0.47751 0.12622 0.0
C496 C 0.63264 0.41891 0.17652 0.0
C497 C 0.62369 0.37639 0.097 0.0
N498 N 0.60199 0.45818 0.13976 0.0
N499 N 0.6102 0.39571 0.07992 0.0
H500 H 0.92232 0.36416 0.32388 0.0
H501 H 0.7847 0.34243 0.40861 0.0
H502 H 0.87899 0.40673 0.48857 0.0
H503 H 0.82577 0.29747 0.24503 0.0
H504 H 0.81957 0.36596 0.43669 0.0
H505 H 0.88792 0.33953 0.29249 0.0
C506 C 0.90563 0.36835 0.3536 0.0
C507 C 0.90366 0.38769 0.40896 0.0
C508 C 0.82111 0.35099 0.39457 0.0
C509 C 0.86412 0.35955 0.37274 0.0
C510 C 0.80113 0.33749 0.37844 0.0
C511 C 0.80227 0.31799 0.32408 0.0
C512 C 0.84265 0.34508 0.35619 0.0
C513 C 0.82411 0.31242 0.28718 0.0
C514 C 0.88597 0.3543 0.3353 0.0
C515 C 0.88143 0.39234 0.4445 0.0
N516 N 0.84347 0.32594 0.30382 0.0
N517 N 0.86267 0.3784 0.42593 0.0
H518 H 0.86867 0.62506 0.73597 0.0
H519 H 0.98228 0.57273 0.49624 0.0
H520 H 0.91406 0.66792 0.57894 0.0
H521 H 0.9355 0.53245 0.65645 0.0
H522 H 0.95811 0.60798 0.52378 0.0
H523 H 0.89317 0.59102 0.70448 0.0
C524 C 0.88366 0.62732 0.6941 0.0
C525 C 0.88914 0.6495 0.65985 0.0
C526 C 0.95319 0.5914 0.55278 0.0
C527 C 0.91777 0.61032 0.62428 0.0
C528 C 0.96697 0.57132 0.53708 0.0
C529 C 0.96084 0.54962 0.57386 0.0
C530 C 0.93319 0.58968 0.60557 0.0
C531 C 0.94087 0.54876 0.62649 0.0
C532 C 0.89782 0.60783 0.6766 0.0
C533 C 0.90922 0.65126 0.60751 0.0
N534 N 0.92783 0.5684 0.64057 0.0
N535 N 0.92277 0.63196 0.59128 0.0
H536 H 0.28544 0.35745 0.28437 0.0
H537 H 0.42073 0.36114 0.14118 0.0
H538 H 0.32798 0.29503 0.25836 0.0
H539 H 0.38032 0.42296 0.20562 0.0
H540 H 0.38744 0.33659 0.18426 0.0
H541 H 0.3202 0.38158 0.25604 0.0
C542 C 0.30218 0.34882 0.27322 0.0
C543 C 0.30383 0.3242 0.27351 0.0
C544 C 0.3859 0.35553 0.18935 0.0
C545 C 0.34379 0.35177 0.24002 0.0
C546 C 0.405 0.36962 0.16518 0.0
C547 C 0.40348 0.39431 0.1694 0.0
C548 C 0.36496 0.36609 0.21768 0.0
C549 C 0.38232 0.40411 0.19967 0.0
C550 C 0.32205 0.36262 0.25696 0.0
C551 C 0.32596 0.31396 0.25865 0.0
N552 N 0.36395 0.39002 0.22222 0.0
N553 N 0.34505 0.32778 0.24191 0.0
H554 H 0.43517 0.53665 0.8914 0.0
H555 H 0.40567 0.67145 0.99759 0.0
H556 H 0.4749 0.57667 0.07494 0.0
H557 H 0.36617 0.62866 0.82143 0.0
H558 H 0.43107 0.63754 0.02872 0.0
H559 H 0.40975 0.57054 0.86725 0.0
C560 C 0.43852 0.55261 0.92692 0.0
C561 C 0.45717 0.55378 0.98553 0.0
C562 C 0.41678 0.63558 0.98356 0.0
C563 C 0.42796 0.593 0.95778 0.0
C564 C 0.4023 0.65497 0.9654 0.0
C565 C 0.38362 0.65303 0.90671 0.0
C566 C 0.41269 0.61403 0.94253 0.0
C567 C 0.38003 0.63106 0.86801 0.0
C568 C 0.42395 0.57202 0.91305 0.0
C569 C 0.46067 0.575 0.02939 0.0
N570 N 0.39441 0.61256 0.88636 0.0
N571 N 0.44621 0.59381 1.01455 0.0
H572 H 0.20074 0.72806 0.82106 0.0
H573 H 0.14919 0.61686 0.56642 0.0
H574 H 0.24048 0.6863 0.64281 0.0
H575 H 0.10626 0.65981 0.73114 0.0
H576 H 0.18307 0.6415 0.59967 0.0
H577 H 0.16613 0.70298 0.79426 0.0
C578 C 0.2022 0.71359 0.77662 0.0
C579 C 0.22353 0.70921 0.73432 0.0
C580 C 0.16627 0.64558 0.62883 0.0
C581 C 0.18414 0.68052 0.70325 0.0
C582 C 0.14688 0.63134 0.6103 0.0
C583 C 0.12472 0.63612 0.64614 0.0
C584 C 0.1637 0.66487 0.68388 0.0
C585 C 0.12289 0.65554 0.70125 0.0
C586 C 0.18246 0.69931 0.76122 0.0
C587 C 0.22442 0.69032 0.67703 0.0
N588 N 0.14209 0.66916 0.71847 0.0
N589 N 0.2051 0.67673 0.66334 0.0
H590 H 0.17319 0.3972 0.44788 0.0
H591 H 0.04352 0.45039 0.51612 0.0
H592 H 0.10962 0.35908 0.38678 0.0
H593 H 0.107 0.49189 0.52486 0.0
H594 H 0.06737 0.41543 0.48412 0.0
H595 H 0.14918 0.43081 0.49047 0.0
C596 C 0.1542 0.39585 0.44298 0.0
C597 C 0.14354 0.37515 0.41291 0.0
C598 C 0.07608 0.43217 0.49335 0.0
C599 C 0.11579 0.41371 0.46336 0.0
C600 C 0.06247 0.45209 0.51179 0.0
C601 C 0.0733 0.47406 0.52262 0.0
C602 C 0.10072 0.43422 0.48642 0.0
C603 C 0.09794 0.47529 0.51669 0.0
C604 C 0.14048 0.41507 0.4679 0.0
C605 C 0.11874 0.37445 0.4103 0.0
N606 N 0.11079 0.4557 0.49892 0.0
N607 N 0.10576 0.39341 0.43495 0.0
H608 H 0.02579 0.05283 0.80741 0.0
H609 H 1.01258 0.97499 0.23196 0.0
H610 H 1.00553 0.97959 0.80611 0.0
H611 H 0.02853 0.04927 0.23053 0.0
H612 H 1.01135 0.97575 0.07594 0.0
H613 H 0.02787 0.0514 0.96261 0.0
C614 C 0.0217 0.03645 0.8396 0.0
C615 C 0.01543 0.01632 0.79326 0.0
C616 C 0.01517 0.99186 0.10991 0.0
C617 C 0.01793 0.01453 0.97161 0.0
C618 C 0.01596 0.99142 0.19901 0.0
C619 C 0.02061 1.0121 0.24469 0.0
C620 C 0.01912 1.01312 0.06613 0.0
C621 C 0.02479 0.03288 0.19834 0.0
C622 C 0.02293 0.03564 0.92842 0.0
C623 C 1.01039 0.9956 0.83891 0.0
N624 N 0.02391 0.03285 0.11188 0.0
N625 N 1.01178 0.99523 0.92542 0.0
H626 H 0.22673 0.77726 0.49025 0.0
H627 H 0.29807 0.75132 0.06096 0.0
H628 H 0.30113 0.76133 0.4839 0.0
H629 H 0.22378 0.76778 0.06689 0.0
H630 H 0.29936 0.75438 0.21579 0.0
H631 H 0.22538 0.77409 0.33541 0.0
C632 C 0.24285 0.77324 0.45634 0.0
C633 C 0.2641 0.76955 0.50038 0.0
C634 C 0.28275 0.75725 0.18334 0.0
C635 C 0.26258 0.76569 0.32258 0.0
C636 C 0.28196 0.75542 0.09477 0.0
C637 C 0.26076 0.75931 0.05061 0.0
C638 C 0.26221 0.76304 0.22845 0.0
C639 C 0.2405 0.7646 0.09813 0.0
C640 C 0.24202 0.77136 0.36778 0.0
C641 C 0.28437 0.76437 0.45276 0.0
N642 N 0.24175 0.76638 0.18442 0.0
N643 N 0.28309 0.76253 0.36651 0.0
H644 H 0.52032 0.05475 0.72837 0.0
H645 H 0.5021 0.97799 0.30574 0.0
H646 H 0.49781 0.98219 0.72816 0.0
H647 H 0.52969 0.0488 0.30336 0.0
H648 H 0.4996 0.97975 0.46064 0.0
H649 H 0.52243 0.05367 0.57255 0.0
C650 C 0.51565 0.03866 0.69571 0.0
C651 C 0.50892 0.01853 0.74167 0.0
C652 C 0.50627 0.99489 0.42631 0.0
C653 C 0.51146 0.01712 0.56341 0.0
C654 C 0.50775 0.99389 0.33765 0.0
C655 C 0.51614 1.01326 0.29107 0.0
C656 C 0.51313 0.01545 0.46913 0.0
C657 C 0.52317 0.03338 0.33639 0.0
C658 C 0.51697 0.03802 0.60674 0.0
C659 C 0.50317 0.99815 0.69572 0.0
N660 N 0.52144 0.03397 0.42279 0.0
N661 N 0.50461 0.99797 0.60939 0.0
H662 H 0.30195 0.24998 0.9943 0.0
H663 H 0.2325 0.28079 0.56446 0.0
H664 H 0.23083 0.27711 0.98743 0.0
H665 H 0.30546 0.25913 0.56937 0.0
H666 H 0.23164 0.27906 0.71933 0.0
H667 H 0.30338 0.25222 0.83908 0.0
C668 C 0.28657 0.25631 0.96032 0.0
C669 C 0.26621 0.26336 1.00435 0.0
C670 C 0.24788 0.27476 0.68673 0.0
C671 C 0.26785 0.26607 0.82618 0.0
C672 C 0.24842 0.27575 0.59805 0.0
C673 C 0.2691 0.27004 0.55355 0.0
C674 C 0.26814 0.2679 0.73178 0.0
C675 C 0.28915 0.26372 0.60091 0.0
C676 C 0.28746 0.25766 0.87155 0.0
C677 C 0.2469 0.27147 0.95651 0.0
N678 N 0.28814 0.26272 0.68748 0.0
N679 N 0.24821 0.2726 0.87014 0.0
H680 H 0.80128 0.25341 0.9902 0.0
H681 H 0.72371 0.26874 0.56613 0.0
H682 H 0.72908 0.27756 0.99121 0.0
H683 H 0.79738 0.24958 0.56742 0.0
H684 H 0.72467 0.27059 0.72202 0.0
H685 H 0.79969 0.25101 0.83516 0.0
C686 C 0.78511 0.25832 0.95797 0.0
C687 C 0.7653 0.26573 1.00419 0.0
C688 C 0.74059 0.26593 0.68805 0.0
C689 C 0.76331 0.26284 0.82605 0.0
C690 C 0.74003 0.26476 0.59904 0.0
C691 C 0.7605 0.25904 0.55337 0.0
C692 C 0.76175 0.26128 0.73171 0.0
C693 C 0.78116 0.25415 0.59963 0.0
C694 C 0.7842 0.2569 0.86925 0.0
C695 C 0.74483 0.27181 0.95849 0.0
N696 N 0.78125 0.25542 0.68599 0.0
N697 N 0.74436 0.27017 0.87208 0.0
H698 H 0.72476 0.7699 0.4853 0.0
H699 H 0.80179 0.74804 0.06472 0.0
H700 H 0.79578 0.74249 0.48668 0.0
H701 H 0.72929 0.7712 0.05847 0.0
H702 H 0.79968 0.746 0.21988 0.0
H703 H 0.72566 0.7702 0.32923 0.0
C704 C 0.74047 0.7638 0.45302 0.0
C705 C 0.76024 0.75623 0.49954 0.0
C706 C 0.78421 0.75151 0.18461 0.0
C707 C 0.76144 0.7567 0.3209 0.0
C708 C 0.78542 0.75273 0.09585 0.0
C709 C 0.76571 0.75983 0.0482 0.0
C710 C 0.76315 0.75749 0.2264 0.0
C711 C 0.74496 0.76563 0.09239 0.0
C712 C 0.74099 0.76403 0.36386 0.0
C713 C 0.78011 0.74856 0.45394 0.0
N714 N 0.74424 0.76437 0.1789 0.0
N715 N 0.78022 0.74909 0.36746 0.0
H716 H 0.52561 0.55144 0.74178 0.0
H717 H 0.50101 0.47975 0.31272 0.0
H718 H 0.51093 0.47694 0.73598 0.0
H719 H 0.51603 0.55419 0.31833 0.0
H720 H 0.50408 0.47851 0.46765 0.0
H721 H 0.52243 0.55271 0.58687 0.0
C722 C 0.52186 0.53529 0.70798 0.0
C723 C 0.51853 0.51403 0.75218 0.0
C724 C 0.50663 0.49514 0.4351 0.0
C725 C 0.51466 0.51544 0.57431 0.0
C726 C 0.5048 0.4959 0.34648 0.0
C727 C 0.50828 0.51713 0.30222 0.0
C728 C 0.51202 0.51575 0.48013 0.0
C729 C 0.51317 0.53744 0.34966 0.0
C730 C 0.51998 0.53606 0.61937 0.0
C731 C 0.51368 0.49371 0.7047 0.0
N732 N 0.51496 0.53623 0.43598 0.0
N733 N 0.51183 0.49494 0.6184 0.0
H734 H 0.0303 0.54545 0.81713 0.0
H735 H 0.99971 0.47575 0.24661 0.0
H736 H 1.00925 0.47247 0.82183 0.0
H737 H 0.02574 0.54713 0.23999 0.0
H738 H 1.00213 0.47438 0.09143 0.0
H739 H 0.02832 0.54629 0.97195 0.0
C740 C 0.02535 0.52952 0.85065 0.0
C741 C 0.01989 0.50884 0.80608 0.0
C742 C 1.00727 0.49034 0.12394 0.0
C743 C 0.01743 0.50977 0.98428 0.0
C744 C 1.00582 0.4912 0.21269 0.0
C745 C 1.01252 0.51161 0.25681 0.0
C746 C 0.01545 0.51004 0.07866 0.0
C747 C 0.02036 0.53101 0.20903 0.0
C748 C 0.0242 0.53005 0.93931 0.0
C749 C 1.01366 0.48878 0.85339 0.0
N750 N 0.02161 0.52973 0.12269 0.0
N751 N 1.01251 0.48978 0.93993 0.0
loop_
_geom_bond_atom_site_label_1
_geom_bond_atom_site_label_2
_geom_bond_distance
_geom_bond_site_symmetry_2
_ccdc_geom_bond_type
Nd0 C2 2.836 . S
Nd0 O20 2.500 . S
Nd0 O21 2.492 . S
Nd0 O22 2.487 1_545 S
Nd0 O23 2.682 1_545 S
Nd0 O24 2.410 . S
Nd0 O29 2.414 1_455 S
Nd0 O31 2.424 . S
Nd1 C11 2.836 . S
Nd1 O23 2.414 1_655 S
Nd1 O25 2.424 . S
Nd1 O26 2.500 . S
Nd1 O27 2.492 . S
Nd1 O28 2.487 1_565 S
Nd1 O29 2.682 1_565 S
Nd1 O30 2.410 . S
C2 Nd0 2.836 . S
C2 C3 1.498 . S
C2 O20 1.258 . S
C2 O21 1.239 . S
C3 C2 1.498 . S
C3 C4 1.366 . S
C3 C8 1.407 . S
C4 C3 1.366 . S
C4 C5 1.392 . S
C4 H32 0.930 . S
C5 C4 1.392 . S
C5 C6 1.398 . S
C5 H33 0.929 . S
C6 C5 1.398 . S
C6 C7 1.352 . S
C7 C6 1.352 . S
C7 C8 1.384 . S
C7 H34 0.930 . S
C8 C3 1.407 . S
C8 C7 1.384 . S
C8 H35 0.929 . S
C9 O22 1.241 . S
C9 O23 1.273 . S
C10 O24 1.251 . S
C10 O25 1.268 1_445 S
C11 Nd1 2.836 . S
C11 C12 1.498 . S
C11 O26 1.258 . S
C11 O27 1.239 . S
C12 C11 1.498 . S
C12 C13 1.366 . S
C12 C17 1.407 . S
C13 C12 1.366 . S
C13 C14 1.392 . S
C13 H36 0.930 . S
C14 C13 1.392 . S
C14 C15 1.398 . S
C14 H37 0.929 . S
C15 C14 1.398 . S
C15 C16 1.352 . S
C16 C15 1.352 . S
C16 C17 1.384 . S
C16 H38 0.930 . S
C17 C12 1.407 . S
C17 C16 1.384 . S
C17 H39 0.929 . S
C18 O28 1.241 . S
C18 O29 1.273 . S
C19 O30 1.251 . S
C19 O31 1.268 1_665 S
O20 Nd0 2.500 . S
O20 C2 1.258 . S
O21 Nd0 2.492 . S
O21 C2 1.239 . S
O22 Nd0 2.487 1_565 S
O22 C9 1.241 . S
O23 Nd0 2.682 1_565 S
O23 Nd1 2.414 1_455 S
O23 C9 1.273 . S
O24 Nd0 2.410 . S
O24 C10 1.251 . S
O25 Nd1 2.424 . S
O25 C10 1.268 1_665 S
O26 Nd1 2.500 . S
O26 C11 1.258 . S
O27 Nd1 2.492 . S
O27 C11 1.239 . S
O28 Nd1 2.487 1_545 S
O28 C18 1.241 . S
O29 Nd0 2.414 1_655 S
O29 Nd1 2.682 1_545 S
O29 C18 1.273 . S
O30 Nd1 2.410 . S
O30 C19 1.251 . S
O31 Nd0 2.424 . S
O31 C19 1.268 1_445 S
H32 C4 0.930 . S
H33 C5 0.929 . S
H34 C7 0.930 . S
H35 C8 0.929 . S
H36 C13 0.930 . S
H37 C14 0.929 . S
H38 C16 0.930 . S
H39 C17 0.929 . S
Nd40 C42 2.836 . S
Nd40 O60 2.500 . S
Nd40 O61 2.492 . S
Nd40 O62 2.487 . S
Nd40 O63 2.682 . S
Nd40 O64 2.410 . S
Nd40 O69 2.414 . S
Nd40 O71 2.424 . S
Nd41 C51 2.836 . S
Nd41 O63 2.414 . S
Nd41 O65 2.424 . S
Nd41 O66 2.500 . S
Nd41 O67 2.492 . S
Nd41 O68 2.487 . S
Nd41 O69 2.682 . S
Nd41 O70 2.410 . S
C42 Nd40 2.836 . S
C42 C43 1.498 . S
C42 O60 1.258 . S
C42 O61 1.239 . S
C43 C42 1.498 . S
C43 C44 1.366 . S
C43 C48 1.407 . S
C44 C43 1.366 . S
C44 C45 1.392 . S
C44 H72 0.930 . S
C45 C44 1.392 . S
C45 C46 1.398 . S
C45 H73 0.929 . S
C46 C45 1.398 . S
C46 C47 1.352 . S
C47 C46 1.352 . S
C47 C48 1.384 . S
C47 H74 0.930 . S
C48 C43 1.407 . S
C48 C47 1.384 . S
C48 H75 0.929 . S
C49 O62 1.241 . S
C49 O63 1.273 . S
C50 O64 1.251 . S
C50 O65 1.268 . S
C51 Nd41 2.836 . S
C51 C52 1.498 . S
C51 O66 1.258 . S
C51 O67 1.239 . S
C52 C51 1.498 . S
C52 C53 1.366 . S
C52 C57 1.407 . S
C53 C52 1.366 . S
C53 C54 1.392 . S
C53 H76 0.930 . S
C54 C53 1.392 . S
C54 C55 1.398 . S
C54 H77 0.929 1_556 S
C55 C54 1.398 . S
C55 C56 1.352 . S
C56 C55 1.352 . S
C56 C57 1.384 . S
C56 H78 0.930 . S
C57 C52 1.407 . S
C57 C56 1.384 . S
C57 H79 0.929 . S
C58 O68 1.241 . S
C58 O69 1.273 . S
C59 O70 1.251 . S
C59 O71 1.268 . S
O60 Nd40 2.500 . S
O60 C42 1.258 . S
O61 Nd40 2.492 . S
O61 C42 1.239 . S
O62 Nd40 2.487 . S
O62 C49 1.241 . S
O63 Nd40 2.682 . S
O63 Nd41 2.414 . S
O63 C49 1.273 . S
O64 Nd40 2.410 . S
O64 C50 1.251 . S
O65 Nd41 2.424 . S
O65 C50 1.268 . S
O66 Nd41 2.500 . S
O66 C51 1.258 . S
O67 Nd41 2.492 . S
O67 C51 1.239 . S
O68 Nd41 2.487 . S
O68 C58 1.241 . S
O69 Nd40 2.414 . S
O69 Nd41 2.682 . S
O69 C58 1.273 . S
O70 Nd41 2.410 . S
O70 C59 1.251 . S
O71 Nd40 2.424 . S
O71 C59 1.268 . S
H72 C44 0.930 . S
H73 C45 0.929 . S
H74 C47 0.930 . S
H75 C48 0.929 . S
H76 C53 0.930 . S
H77 C54 0.929 1_554 S
H78 C56 0.930 . S
H79 C57 0.929 . S
Nd80 C82 2.836 1_554 S
Nd80 O100 2.500 1_554 S
Nd80 O101 2.492 1_554 S
Nd80 O102 2.487 1_565 S
Nd80 O103 2.682 1_565 S
Nd80 O104 2.410 1_554 S
Nd80 O109 2.414 1_554 S
Nd80 O111 2.424 . S
Nd81 C91 2.836 1_556 S
Nd81 O103 2.414 1_556 S
Nd81 O105 2.424 . S
Nd81 O106 2.500 1_556 S
Nd81 O107 2.492 1_556 S
Nd81 O108 2.487 1_545 S
Nd81 O109 2.682 1_545 S
Nd81 O110 2.410 1_556 S
C82 Nd80 2.836 1_556 S
C82 C83 1.498 . S
C82 O100 1.258 . S
C82 O101 1.239 . S
C83 C82 1.498 . S
C83 C84 1.366 . S
C83 C88 1.407 . S
C84 C83 1.366 . S
C84 C85 1.392 . S
C84 H112 0.930 . S
C85 C84 1.392 . S
C85 C86 1.398 . S
C85 H113 0.929 . S
C86 C85 1.398 . S
C86 C87 1.352 . S
C87 C86 1.352 . S
C87 C88 1.384 . S
C87 H114 0.930 . S
C88 C83 1.407 . S
C88 C87 1.384 . S
C88 H115 0.929 . S
C89 O102 1.241 . S
C89 O103 1.273 . S
C90 O104 1.251 . S
C90 O105 1.268 1_565 S
C91 Nd81 2.836 1_554 S
C91 C92 1.498 . S
C91 O106 1.258 . S
C91 O107 1.239 . S
C92 C91 1.498 . S
C92 C93 1.366 . S
C92 C97 1.407 . S
C93 C92 1.366 . S
C93 C94 1.392 . S
C93 H116 0.930 . S
C94 C93 1.392 . S
C94 C95 1.398 . S
C94 H117 0.929 . S
C95 C94 1.398 . S
C95 C96 1.352 . S
C96 C95 1.352 . S
C96 C97 1.384 . S
C96 H118 0.930 . S
C97 C92 1.407 . S
C97 C96 1.384 . S
C97 H119 0.929 . S
C98 O108 1.241 . S
C98 O109 1.273 . S
C99 O110 1.251 . S
C99 O111 1.268 1_545 S
O100 Nd80 2.500 1_556 S
O100 C82 1.258 . S
O101 Nd80 2.492 1_556 S
O101 C82 1.239 . S
O102 Nd80 2.487 1_545 S
O102 C89 1.241 . S
O103 Nd80 2.682 1_545 S
O103 Nd81 2.414 1_554 S
O103 C89 1.273 . S
O104 Nd80 2.410 1_556 S
O104 C90 1.251 . S
O105 Nd81 2.424 . S
O105 C90 1.268 1_545 S
O106 Nd81 2.500 1_554 S
O106 C91 1.258 . S
O107 Nd81 2.492 1_554 S
O107 C91 1.239 . S
O108 Nd81 2.487 1_565 S
O108 C98 1.241 . S
O109 Nd80 2.414 1_556 S
O109 Nd81 2.682 1_565 S
O109 C98 1.273 . S
O110 Nd81 2.410 1_554 S
O110 C99 1.251 . S
O111 Nd80 2.424 . S
O111 C99 1.268 1_565 S
H112 C84 0.930 . S
H113 C85 0.929 . S
H114 C87 0.930 . S
H115 C88 0.929 . S
H116 C93 0.930 . S
H117 C94 0.929 . S
H118 C96 0.930 . S
H119 C97 0.929 . S
Nd120 C122 2.836 . S
Nd120 O140 2.500 . S
Nd120 O141 2.492 . S
Nd120 O142 2.487 . S
Nd120 O143 2.682 . S
Nd120 O144 2.410 . S
Nd120 O149 2.414 . S
Nd120 O151 2.424 . S
Nd121 C131 2.836 . S
Nd121 O143 2.414 . S
Nd121 O145 2.424 . S
Nd121 O146 2.500 . S
Nd121 O147 2.492 . S
Nd121 O148 2.487 . S
Nd121 O149 2.682 . S
Nd121 O150 2.410 . S
C122 Nd120 2.836 . S
C122 C123 1.498 . S
C122 O140 1.258 . S
C122 O141 1.239 . S
C123 C122 1.498 . S
C123 C124 1.366 . S
C123 C128 1.407 . S
C124 C123 1.366 . S
C124 C125 1.392 . S
C124 H152 0.930 . S
C125 C124 1.392 . S
C125 C126 1.398 . S
C125 H153 0.929 1_554 S
C126 C125 1.398 . S
C126 C127 1.352 . S
C127 C126 1.352 . S
C127 C128 1.384 . S
C127 H154 0.930 . S
C128 C123 1.407 . S
C128 C127 1.384 . S
C128 H155 0.929 . S
C129 O142 1.241 . S
C129 O143 1.273 . S
C130 O144 1.251 . S
C130 O145 1.268 . S
C131 Nd121 2.836 . S
C131 C132 1.498 . S
C131 O146 1.258 . S
C131 O147 1.239 . S
C132 C131 1.498 . S
C132 C133 1.366 . S
C132 C137 1.407 . S
C133 C132 1.366 . S
C133 C134 1.392 . S
C133 H156 0.930 . S
C134 C133 1.392 . S
C134 C135 1.398 . S
C134 H157 0.929 . S
C135 C134 1.398 . S
C135 C136 1.352 . S
C136 C135 1.352 . S
C136 C137 1.384 . S
C136 H158 0.930 . S
C137 C132 1.407 . S
C137 C136 1.384 . S
C137 H159 0.929 . S
C138 O148 1.241 . S
C138 O149 1.273 . S
C139 O150 1.251 . S
C139 O151 1.268 . S
O140 Nd120 2.500 . S
O140 C122 1.258 . S
O141 Nd120 2.492 . S
O141 C122 1.239 . S
O142 Nd120 2.487 . S
O142 C129 1.241 . S
O143 Nd120 2.682 . S
O143 Nd121 2.414 . S
O143 C129 1.273 . S
O144 Nd120 2.410 . S
O144 C130 1.251 . S
O145 Nd121 2.424 . S
O145 C130 1.268 . S
O146 Nd121 2.500 . S
O146 C131 1.258 . S
O147 Nd121 2.492 . S
O147 C131 1.239 . S
O148 Nd121 2.487 . S
O148 C138 1.241 . S
O149 Nd120 2.414 . S
O149 Nd121 2.682 . S
O149 C138 1.273 . S
O150 Nd121 2.410 . S
O150 C139 1.251 . S
O151 Nd120 2.424 . S
O151 C139 1.268 . S
H152 C124 0.930 . S
H153 C125 0.929 1_556 S
H154 C127 0.930 . S
H155 C128 0.929 . S
H156 C133 0.930 . S
H157 C134 0.929 . S
H158 C136 0.930 . S
H159 C137 0.929 . S
Nd160 C162 2.836 . S
Nd160 O180 2.500 . S
Nd160 O181 2.492 . S
Nd160 O182 2.487 . S
Nd160 O183 2.682 . S
Nd160 O184 2.410 . S
Nd160 O189 2.414 . S
Nd160 O191 2.424 . S
Nd161 C171 2.836 . S
Nd161 O183 2.414 . S
Nd161 O185 2.424 . S
Nd161 O186 2.500 . S
Nd161 O187 2.492 . S
Nd161 O188 2.487 . S
Nd161 O189 2.682 . S
Nd161 O190 2.410 . S
C162 Nd160 2.836 . S
C162 C163 1.498 . S
C162 O180 1.258 . S
C162 O181 1.239 . S
C163 C162 1.498 . S
C163 C164 1.366 . S
C163 C168 1.407 . S
C164 C163 1.366 . S
C164 C165 1.392 . S
C164 H192 0.930 . S
C165 C164 1.392 . S
C165 C166 1.398 . S
C165 H193 0.929 1_554 S
C166 C165 1.398 . S
C166 C167 1.352 . S
C167 C166 1.352 . S
C167 C168 1.384 . S
C167 H194 0.930 . S
C168 C163 1.407 . S
C168 C167 1.384 . S
C168 H195 0.929 . S
C169 O182 1.241 . S
C169 O183 1.273 . S
C170 O184 1.251 . S
C170 O185 1.268 . S
C171 Nd161 2.836 . S
C171 C172 1.498 . S
C171 O186 1.258 . S
C171 O187 1.239 . S
C172 C171 1.498 . S
C172 C173 1.366 . S
C172 C177 1.407 . S
C173 C172 1.366 . S
C173 C174 1.392 . S
C173 H196 0.930 . S
C174 C173 1.392 . S
C174 C175 1.398 . S
C174 H197 0.929 . S
C175 C174 1.398 . S
C175 C176 1.352 . S
C176 C175 1.352 . S
C176 C177 1.384 . S
C176 H198 0.930 . S
C177 C172 1.407 . S
C177 C176 1.384 . S
C177 H199 0.929 . S
C178 O188 1.241 . S
C178 O189 1.273 . S
C179 O190 1.251 . S
C179 O191 1.268 . S
O180 Nd160 2.500 . S
O180 C162 1.258 . S
O181 Nd160 2.492 . S
O181 C162 1.239 . S
O182 Nd160 2.487 . S
O182 C169 1.241 . S
O183 Nd160 2.682 . S
O183 Nd161 2.414 . S
O183 C169 1.273 . S
O184 Nd160 2.410 . S
O184 C170 1.251 . S
O185 Nd161 2.424 . S
O185 C170 1.268 . S
O186 Nd161 2.500 . S
O186 C171 1.258 . S
O187 Nd161 2.492 . S
O187 C171 1.239 . S
O188 Nd161 2.487 . S
O188 C178 1.241 . S
O189 Nd160 2.414 . S
O189 Nd161 2.682 . S
O189 C178 1.273 . S
O190 Nd161 2.410 . S
O190 C179 1.251 . S
O191 Nd160 2.424 . S
O191 C179 1.268 . S
H192 C164 0.930 . S
H193 C165 0.929 1_556 S
H194 C167 0.930 . S
H195 C168 0.929 . S
H196 C173 0.930 . S
H197 C174 0.929 . S
H198 C176 0.930 . S
H199 C177 0.929 . S
Nd200 C202 2.836 . S
Nd200 O220 2.500 . S
Nd200 O221 2.492 . S
Nd200 O222 2.487 . S
Nd200 O223 2.682 . S
Nd200 O224 2.410 . S
Nd200 O229 2.414 . S
Nd200 O231 2.424 . S
Nd201 C211 2.836 . S
Nd201 O223 2.414 . S
Nd201 O225 2.424 . S
Nd201 O226 2.500 . S
Nd201 O227 2.492 . S
Nd201 O228 2.487 . S
Nd201 O229 2.682 . S
Nd201 O230 2.410 . S
C202 Nd200 2.836 . S
C202 C203 1.498 . S
C202 O220 1.258 . S
C202 O221 1.239 . S
C203 C202 1.498 . S
C203 C204 1.366 . S
C203 C208 1.407 . S
C204 C203 1.366 . S
C204 C205 1.392 . S
C204 H232 0.930 . S
C205 C204 1.392 . S
C205 C206 1.398 . S
C205 H233 0.929 . S
C206 C205 1.398 . S
C206 C207 1.352 . S
C207 C206 1.352 . S
C207 C208 1.384 . S
C207 H234 0.930 . S
C208 C203 1.407 . S
C208 C207 1.384 . S
C208 H235 0.929 . S
C209 O222 1.241 . S
C209 O223 1.273 . S
C210 O224 1.251 . S
C210 O225 1.268 . S
C211 Nd201 2.836 . S
C211 C212 1.498 . S
C211 O226 1.258 . S
C211 O227 1.239 . S
C212 C211 1.498 . S
C212 C213 1.366 . S
C212 C217 1.407 . S
C213 C212 1.366 . S
C213 C214 1.392 . S
C213 H236 0.930 . S
C214 C213 1.392 . S
C214 C215 1.398 . S
C214 H237 0.929 1_556 S
C215 C214 1.398 . S
C215 C216 1.352 . S
C216 C215 1.352 . S
C216 C217 1.384 . S
C216 H238 0.930 . S
C217 C212 1.407 . S
C217 C216 1.384 . S
C217 H239 0.929 . S
C218 O228 1.241 . S
C218 O229 1.273 . S
C219 O230 1.251 . S
C219 O231 1.268 . S
O220 Nd200 2.500 . S
O220 C202 1.258 . S
O221 Nd200 2.492 . S
O221 C202 1.239 . S
O222 Nd200 2.487 . S
O222 C209 1.241 . S
O223 Nd200 2.682 . S
O223 Nd201 2.414 . S
O223 C209 1.273 . S
O224 Nd200 2.410 . S
O224 C210 1.251 . S
O225 Nd201 2.424 . S
O225 C210 1.268 . S
O226 Nd201 2.500 . S
O226 C211 1.258 . S
O227 Nd201 2.492 . S
O227 C211 1.239 . S
O228 Nd201 2.487 . S
O228 C218 1.241 . S
O229 Nd200 2.414 . S
O229 Nd201 2.682 . S
O229 C218 1.273 . S
O230 Nd201 2.410 . S
O230 C219 1.251 . S
O231 Nd200 2.424 . S
O231 C219 1.268 . S
H232 C204 0.930 . S
H233 C205 0.929 . S
H234 C207 0.930 . S
H235 C208 0.929 . S
H236 C213 0.930 . S
H237 C214 0.929 1_554 S
H238 C216 0.930 . S
H239 C217 0.929 . S
Nd240 C242 2.836 1_554 S
Nd240 O260 2.500 1_554 S
Nd240 O261 2.492 1_554 S
Nd240 O262 2.487 . S
Nd240 O263 2.682 . S
Nd240 O264 2.410 1_554 S
Nd240 O269 2.414 1_554 S
Nd240 O271 2.424 . S
Nd241 C251 2.836 1_556 S
Nd241 O263 2.414 1_556 S
Nd241 O265 2.424 . S
Nd241 O266 2.500 1_556 S
Nd241 O267 2.492 1_556 S
Nd241 O268 2.487 . S
Nd241 O269 2.682 . S
Nd241 O270 2.410 1_556 S
C242 Nd240 2.836 1_556 S
C242 C243 1.498 . S
C242 O260 1.258 . S
C242 O261 1.239 . S
C243 C242 1.498 . S
C243 C244 1.366 . S
C243 C248 1.407 . S
C244 C243 1.366 . S
C244 C245 1.392 . S
C244 H272 0.930 . S
C245 C244 1.392 . S
C245 C246 1.398 . S
C245 H273 0.929 . S
C246 C245 1.398 . S
C246 C247 1.352 . S
C247 C246 1.352 . S
C247 C248 1.384 . S
C247 H274 0.930 . S
C248 C243 1.407 . S
C248 C247 1.384 . S
C248 H275 0.929 . S
C249 O262 1.241 . S
C249 O263 1.273 . S
C250 O264 1.251 . S
C250 O265 1.268 . S
C251 Nd241 2.836 1_554 S
C251 C252 1.498 . S
C251 O266 1.258 . S
C251 O267 1.239 . S
C252 C251 1.498 . S
C252 C253 1.366 . S
C252 C257 1.407 . S
C253 C252 1.366 . S
C253 C254 1.392 . S
C253 H276 0.930 . S
C254 C253 1.392 . S
C254 C255 1.398 . S
C254 H277 0.929 . S
C255 C254 1.398 . S
C255 C256 1.352 . S
C256 C255 1.352 . S
C256 C257 1.384 . S
C256 H278 0.930 . S
C257 C252 1.407 . S
C257 C256 1.384 . S
C257 H279 0.929 . S
C258 O268 1.241 . S
C258 O269 1.273 . S
C259 O270 1.251 . S
C259 O271 1.268 . S
O260 Nd240 2.500 1_556 S
O260 C242 1.258 . S
O261 Nd240 2.492 1_556 S
O261 C242 1.239 . S
O262 Nd240 2.487 . S
O262 C249 1.241 . S
O263 Nd240 2.682 . S
O263 Nd241 2.414 1_554 S
O263 C249 1.273 . S
O264 Nd240 2.410 1_556 S
O264 C250 1.251 . S
O265 Nd241 2.424 . S
O265 C250 1.268 . S
O266 Nd241 2.500 1_554 S
O266 C251 1.258 . S
O267 Nd241 2.492 1_554 S
O267 C251 1.239 . S
O268 Nd241 2.487 . S
O268 C258 1.241 . S
O269 Nd240 2.414 1_556 S
O269 Nd241 2.682 . S
O269 C258 1.273 . S
O270 Nd241 2.410 1_554 S
O270 C259 1.251 . S
O271 Nd240 2.424 . S
O271 C259 1.268 . S
H272 C244 0.930 . S
H273 C245 0.929 . S
H274 C247 0.930 . S
H275 C248 0.929 . S
H276 C253 0.930 . S
H277 C254 0.929 . S
H278 C256 0.930 . S
H279 C257 0.929 . S
Nd280 C282 2.836 . S
Nd280 O300 2.500 . S
Nd280 O301 2.492 . S
Nd280 O302 2.487 . S
Nd280 O303 2.682 . S
Nd280 O304 2.410 . S
Nd280 O309 2.414 1_655 S
Nd280 O311 2.424 . S
Nd281 C291 2.836 . S
Nd281 O303 2.414 1_455 S
Nd281 O305 2.424 . S
Nd281 O306 2.500 . S
Nd281 O307 2.492 . S
Nd281 O308 2.487 . S
Nd281 O309 2.682 . S
Nd281 O310 2.410 . S
C282 Nd280 2.836 . S
C282 C283 1.498 . S
C282 O300 1.258 . S
C282 O301 1.239 . S
C283 C282 1.498 . S
C283 C284 1.366 . S
C283 C288 1.407 . S
C284 C283 1.366 . S
C284 C285 1.392 . S
C284 H312 0.930 . S
C285 C284 1.392 . S
C285 C286 1.398 . S
C285 H313 0.929 . S
C286 C285 1.398 . S
C286 C287 1.352 . S
C287 C286 1.352 . S
C287 C288 1.384 . S
C287 H314 0.930 . S
C288 C283 1.407 . S
C288 C287 1.384 . S
C288 H315 0.929 . S
C289 O302 1.241 . S
C289 O303 1.273 . S
C290 O304 1.251 . S
C290 O305 1.268 1_655 S
C291 Nd281 2.836 . S
C291 C292 1.498 . S
C291 O306 1.258 . S
C291 O307 1.239 . S
C292 C291 1.498 . S
C292 C293 1.366 . S
C292 C297 1.407 . S
C293 C292 1.366 . S
C293 C294 1.392 . S
C293 H316 0.930 . S
C294 C293 1.392 . S
C294 C295 1.398 . S
C294 H317 0.929 . S
C295 C294 1.398 . S
C295 C296 1.352 . S
C296 C295 1.352 . S
C296 C297 1.384 . S
C296 H318 0.930 . S
C297 C292 1.407 . S
C297 C296 1.384 . S
C297 H319 0.929 . S
C298 O308 1.241 . S
C298 O309 1.273 . S
C299 O310 1.251 . S
C299 O311 1.268 1_455 S
O300 Nd280 2.500 . S
O300 C282 1.258 . S
O301 Nd280 2.492 . S
O301 C282 1.239 . S
O302 Nd280 2.487 . S
O302 C289 1.241 . S
O303 Nd280 2.682 . S
O303 Nd281 2.414 1_655 S
O303 C289 1.273 . S
O304 Nd280 2.410 . S
O304 C290 1.251 . S
O305 Nd281 2.424 . S
O305 C290 1.268 1_455 S
O306 Nd281 2.500 . S
O306 C291 1.258 . S
O307 Nd281 2.492 . S
O307 C291 1.239 . S
O308 Nd281 2.487 . S
O308 C298 1.241 . S
O309 Nd280 2.414 1_455 S
O309 Nd281 2.682 . S
O309 C298 1.273 . S
O310 Nd281 2.410 . S
O310 C299 1.251 . S
O311 Nd280 2.424 . S
O311 C299 1.268 1_655 S
H312 C284 0.930 . S
H313 C285 0.929 . S
H314 C287 0.930 . S
H315 C288 0.929 . S
H316 C293 0.930 . S
H317 C294 0.929 . S
H318 C296 0.930 . S
H319 C297 0.929 . S
H320 C326 0.930 . S
H321 C330 0.930 . S
H322 C335 0.929 . S
H323 C333 0.929 . S
H324 C328 0.929 . S
H325 C334 0.929 . S
C326 H320 0.930 . S
C326 C327 1.367 . S
C326 C334 1.378 . S
C327 C326 1.367 . S
C327 C335 1.433 . S
C328 H324 0.929 . S
C328 C330 1.378 . S
C328 C332 1.350 . S
C329 C332 1.463 . S
C329 C334 1.350 . S
C329 N337 1.427 . S
C330 H321 0.930 . S
C330 C328 1.378 . S
C330 C331 1.367 . S
C331 C330 1.367 . S
C331 C333 1.433 . S
C332 C328 1.350 . S
C332 C329 1.463 . S
C332 N336 1.427 . S
C333 H323 0.929 . S
C333 C331 1.433 . S
C333 N336 1.384 . S
C334 H325 0.929 . S
C334 C326 1.378 . S
C334 C329 1.350 . S
C335 H322 0.929 . S
C335 C327 1.433 . S
C335 N337 1.384 . S
N336 C332 1.427 . S
N336 C333 1.384 . S
N337 C329 1.427 . S
N337 C335 1.384 . S
H338 C344 0.930 . S
H339 C348 0.930 . S
H340 C353 0.929 . S
H341 C351 0.929 . S
H342 C346 0.929 . S
H343 C352 0.929 . S
C344 H338 0.930 . S
C344 C345 1.367 . S
C344 C352 1.378 . S
C345 C344 1.367 . S
C345 C353 1.433 . S
C346 H342 0.929 . S
C346 C348 1.378 . S
C346 C350 1.350 . S
C347 C350 1.463 . S
C347 C352 1.350 . S
C347 N355 1.427 . S
C348 H339 0.930 . S
C348 C346 1.378 . S
C348 C349 1.367 . S
C349 C348 1.367 . S
C349 C351 1.433 . S
C350 C346 1.350 . S
C350 C347 1.463 . S
C350 N354 1.427 . S
C351 H341 0.929 . S
C351 C349 1.433 . S
C351 N354 1.384 . S
C352 H343 0.929 . S
C352 C344 1.378 . S
C352 C347 1.350 . S
C353 H340 0.929 . S
C353 C345 1.433 . S
C353 N355 1.384 . S
N354 C350 1.427 . S
N354 C351 1.384 . S
N355 C347 1.427 . S
N355 C353 1.384 . S
H356 C362 0.930 . S
H357 C366 0.930 . S
H358 C371 0.929 . S
H359 C369 0.929 . S
H360 C364 0.929 . S
H361 C370 0.929 . S
C362 H356 0.930 . S
C362 C363 1.367 . S
C362 C370 1.378 . S
C363 C362 1.367 . S
C363 C371 1.433 . S
C364 H360 0.929 . S
C364 C366 1.378 . S
C364 C368 1.350 . S
C365 C368 1.463 . S
C365 C370 1.350 . S
C365 N373 1.427 . S
C366 H357 0.930 . S
C366 C364 1.378 . S
C366 C367 1.367 . S
C367 C366 1.367 . S
C367 C369 1.433 . S
C368 C364 1.350 . S
C368 C365 1.463 . S
C368 N372 1.427 . S
C369 H359 0.929 . S
C369 C367 1.433 . S
C369 N372 1.384 . S
C370 H361 0.929 . S
C370 C362 1.378 . S
C370 C365 1.350 . S
C371 H358 0.929 . S
C371 C363 1.433 . S
C371 N373 1.384 . S
N372 C368 1.427 . S
N372 C369 1.384 . S
N373 C365 1.427 . S
N373 C371 1.384 . S
H374 C380 0.930 . S
H375 C384 0.930 . S
H376 C389 0.929 . S
H377 C387 0.929 . S
H378 C382 0.929 . S
H379 C388 0.929 . S
C380 H374 0.930 . S
C380 C381 1.367 . S
C380 C388 1.378 . S
C381 C380 1.367 . S
C381 C389 1.433 1_554 S
C382 H378 0.929 . S
C382 C384 1.378 . S
C382 C386 1.350 1_556 S
C383 C386 1.463 . S
C383 C388 1.350 . S
C383 N391 1.427 1_554 S
C384 H375 0.930 . S
C384 C382 1.378 . S
C384 C385 1.367 1_556 S
C385 C384 1.367 1_554 S
C385 C387 1.433 . S
C386 C382 1.350 1_554 S
C386 C383 1.463 . S
C386 N390 1.427 . S
C387 H377 0.929 . S
C387 C385 1.433 . S
C387 N390 1.384 . S
C388 H379 0.929 . S
C388 C380 1.378 . S
C388 C383 1.350 . S
C389 H376 0.929 . S
C389 C381 1.433 1_556 S
C389 N391 1.384 . S
N390 C386 1.427 . S
N390 C387 1.384 . S
N391 C383 1.427 1_556 S
N391 C389 1.384 . S
H392 C398 0.930 . S
H393 C402 0.930 . S
H394 C407 0.929 . S
H395 C405 0.929 . S
H396 C400 0.929 . S
H397 C406 0.929 . S
C398 H392 0.930 . S
C398 C399 1.367 . S
C398 C406 1.378 . S
C399 C398 1.367 . S
C399 C407 1.433 . S
C400 H396 0.929 . S
C400 C402 1.378 . S
C400 C404 1.350 . S
C401 C404 1.463 . S
C401 C406 1.350 . S
C401 N409 1.427 . S
C402 H393 0.930 . S
C402 C400 1.378 . S
C402 C403 1.367 . S
C403 C402 1.367 . S
C403 C405 1.433 . S
C404 C400 1.350 . S
C404 C401 1.463 . S
C404 N408 1.427 . S
C405 H395 0.929 . S
C405 C403 1.433 . S
C405 N408 1.384 . S
C406 H397 0.929 . S
C406 C398 1.378 . S
C406 C401 1.350 . S
C407 H394 0.929 . S
C407 C399 1.433 . S
C407 N409 1.384 . S
N408 C404 1.427 . S
N408 C405 1.384 . S
N409 C401 1.427 . S
N409 C407 1.384 . S
H410 C416 0.930 . S
H411 C420 0.930 . S
H412 C425 0.929 . S
H413 C423 0.929 . S
H414 C418 0.929 . S
H415 C424 0.929 . S
C416 H410 0.930 . S
C416 C417 1.367 . S
C416 C424 1.378 . S
C417 C416 1.367 . S
C417 C425 1.433 . S
C418 H414 0.929 . S
C418 C420 1.378 . S
C418 C422 1.350 . S
C419 C422 1.463 . S
C419 C424 1.350 . S
C419 N427 1.427 . S
C420 H411 0.930 . S
C420 C418 1.378 . S
C420 C421 1.367 . S
C421 C420 1.367 . S
C421 C423 1.433 . S
C422 C418 1.350 . S
C422 C419 1.463 . S
C422 N426 1.427 . S
C423 H413 0.929 . S
C423 C421 1.433 . S
C423 N426 1.384 . S
C424 H415 0.929 . S
C424 C416 1.378 . S
C424 C419 1.350 . S
C425 H412 0.929 . S
C425 C417 1.433 . S
C425 N427 1.384 . S
N426 C422 1.427 . S
N426 C423 1.384 . S
N427 C419 1.427 . S
N427 C425 1.384 . S
H428 C434 0.930 . S
H429 C438 0.930 . S
H430 C443 0.929 . S
H431 C441 0.929 . S
H432 C436 0.929 . S
H433 C442 0.929 . S
C434 H428 0.930 . S
C434 C435 1.367 . S
C434 C442 1.378 . S
C435 C434 1.367 . S
C435 C443 1.433 . S
C436 H432 0.929 . S
C436 C438 1.378 . S
C436 C440 1.350 . S
C437 C440 1.463 . S
C437 C442 1.350 . S
C437 N445 1.427 . S
C438 H429 0.930 . S
C438 C436 1.378 . S
C438 C439 1.367 . S
C439 C438 1.367 . S
C439 C441 1.433 . S
C440 C436 1.350 . S
C440 C437 1.463 . S
C440 N444 1.427 . S
C441 H431 0.929 . S
C441 C439 1.433 . S
C441 N444 1.384 . S
C442 H433 0.929 . S
C442 C434 1.378 . S
C442 C437 1.350 . S
C443 H430 0.929 . S
C443 C435 1.433 . S
C443 N445 1.384 . S
N444 C440 1.427 . S
N444 C441 1.384 . S
N445 C437 1.427 . S
N445 C443 1.384 . S
H446 C452 0.930 . S
H447 C456 0.930 . S
H448 C461 0.929 . S
H449 C459 0.929 . S
H450 C454 0.929 . S
H451 C460 0.929 . S
C452 H446 0.930 . S
C452 C453 1.367 . S
C452 C460 1.378 . S
C453 C452 1.367 . S
C453 C461 1.433 1_556 S
C454 H450 0.929 . S
C454 C456 1.378 . S
C454 C458 1.350 1_554 S
C455 C458 1.463 . S
C455 C460 1.350 . S
C455 N463 1.427 1_556 S
C456 H447 0.930 . S
C456 C454 1.378 . S
C456 C457 1.367 1_554 S
C457 C456 1.367 1_556 S
C457 C459 1.433 . S
C458 C454 1.350 1_556 S
C458 C455 1.463 . S
C458 N462 1.427 . S
C459 H449 0.929 . S
C459 C457 1.433 . S
C459 N462 1.384 . S
C460 H451 0.929 . S
C460 C452 1.378 . S
C460 C455 1.350 . S
C461 H448 0.929 . S
C461 C453 1.433 1_554 S
C461 N463 1.384 . S
N462 C458 1.427 . S
N462 C459 1.384 . S
N463 C455 1.427 1_554 S
N463 C461 1.384 . S
H464 C470 0.930 . S
H465 C474 0.930 . S
H466 C479 0.929 . S
H467 C477 0.929 . S
H468 C472 0.929 . S
H469 C478 0.929 . S
C470 H464 0.930 . S
C470 C471 1.367 . S
C470 C478 1.378 . S
C471 C470 1.367 . S
C471 C479 1.433 . S
C472 H468 0.929 . S
C472 C474 1.378 . S
C472 C476 1.350 . S
C473 C476 1.463 . S
C473 C478 1.350 . S
C473 N481 1.427 . S
C474 H465 0.930 . S
C474 C472 1.378 . S
C474 C475 1.367 . S
C475 C474 1.367 . S
C475 C477 1.433 . S
C476 C472 1.350 . S
C476 C473 1.463 . S
C476 N480 1.427 . S
C477 H467 0.929 . S
C477 C475 1.433 . S
C477 N480 1.384 . S
C478 H469 0.929 . S
C478 C470 1.378 . S
C478 C473 1.350 . S
C479 H466 0.929 . S
C479 C471 1.433 . S
C479 N481 1.384 . S
N480 C476 1.427 . S
N480 C477 1.384 . S
N481 C473 1.427 . S
N481 C479 1.384 . S
H482 C488 0.930 . S
H483 C492 0.930 . S
H484 C497 0.929 . S
H485 C495 0.929 . S
H486 C490 0.929 . S
H487 C496 0.929 . S
C488 H482 0.930 . S
C488 C489 1.367 . S
C488 C496 1.378 . S
C489 C488 1.367 . S
C489 C497 1.433 1_554 S
C490 H486 0.929 . S
C490 C492 1.378 . S
C490 C494 1.350 1_556 S
C491 C494 1.463 . S
C491 C496 1.350 . S
C491 N499 1.427 1_554 S
C492 H483 0.930 . S
C492 C490 1.378 . S
C492 C493 1.367 1_556 S
C493 C492 1.367 1_554 S
C493 C495 1.433 . S
C494 C490 1.350 1_554 S
C494 C491 1.463 . S
C494 N498 1.427 . S
C495 H485 0.929 . S
C495 C493 1.433 . S
C495 N498 1.384 . S
C496 H487 0.929 . S
C496 C488 1.378 . S
C496 C491 1.350 . S
C497 H484 0.929 . S
C497 C489 1.433 1_556 S
C497 N499 1.384 . S
N498 C494 1.427 . S
N498 C495 1.384 . S
N499 C491 1.427 1_556 S
N499 C497 1.384 . S
H500 C506 0.930 . S
H501 C510 0.930 . S
H502 C515 0.929 . S
H503 C513 0.929 . S
H504 C508 0.929 . S
H505 C514 0.929 . S
C506 H500 0.930 . S
C506 C507 1.367 . S
C506 C514 1.378 . S
C507 C506 1.367 . S
C507 C515 1.433 . S
C508 H504 0.929 . S
C508 C510 1.378 . S
C508 C512 1.350 . S
C509 C512 1.463 . S
C509 C514 1.350 . S
C509 N517 1.427 . S
C510 H501 0.930 . S
C510 C508 1.378 . S
C510 C511 1.367 . S
C511 C510 1.367 . S
C511 C513 1.433 . S
C512 C508 1.350 . S
C512 C509 1.463 . S
C512 N516 1.427 . S
C513 H503 0.929 . S
C513 C511 1.433 . S
C513 N516 1.384 . S
C514 H505 0.929 . S
C514 C506 1.378 . S
C514 C509 1.350 . S
C515 H502 0.929 . S
C515 C507 1.433 . S
C515 N517 1.384 . S
N516 C512 1.427 . S
N516 C513 1.384 . S
N517 C509 1.427 . S
N517 C515 1.384 . S
H518 C524 0.930 . S
H519 C528 0.930 . S
H520 C533 0.929 . S
H521 C531 0.929 . S
H522 C526 0.929 . S
H523 C532 0.929 . S
C524 H518 0.930 . S
C524 C525 1.367 . S
C524 C532 1.378 . S
C525 C524 1.367 . S
C525 C533 1.433 . S
C526 H522 0.929 . S
C526 C528 1.378 . S
C526 C530 1.350 . S
C527 C530 1.463 . S
C527 C532 1.350 . S
C527 N535 1.427 . S
C528 H519 0.930 . S
C528 C526 1.378 . S
C528 C529 1.367 . S
C529 C528 1.367 . S
C529 C531 1.433 . S
C530 C526 1.350 . S
C530 C527 1.463 . S
C530 N534 1.427 . S
C531 H521 0.929 . S
C531 C529 1.433 . S
C531 N534 1.384 . S
C532 H523 0.929 . S
C532 C524 1.378 . S
C532 C527 1.350 . S
C533 H520 0.929 . S
C533 C525 1.433 . S
C533 N535 1.384 . S
N534 C530 1.427 . S
N534 C531 1.384 . S
N535 C527 1.427 . S
N535 C533 1.384 . S
H536 C542 0.930 . S
H537 C546 0.930 . S
H538 C551 0.929 . S
H539 C549 0.929 . S
H540 C544 0.929 . S
H541 C550 0.929 . S
C542 H536 0.930 . S
C542 C543 1.367 . S
C542 C550 1.378 . S
C543 C542 1.367 . S
C543 C551 1.433 . S
C544 H540 0.929 . S
C544 C546 1.378 . S
C544 C548 1.350 . S
C545 C548 1.463 . S
C545 C550 1.350 . S
C545 N553 1.427 . S
C546 H537 0.930 . S
C546 C544 1.378 . S
C546 C547 1.367 . S
C547 C546 1.367 . S
C547 C549 1.433 . S
C548 C544 1.350 . S
C548 C545 1.463 . S
C548 N552 1.427 . S
C549 H539 0.929 . S
C549 C547 1.433 . S
C549 N552 1.384 . S
C550 H541 0.929 . S
C550 C542 1.378 . S
C550 C545 1.350 . S
C551 H538 0.929 . S
C551 C543 1.433 . S
C551 N553 1.384 . S
N552 C548 1.427 . S
N552 C549 1.384 . S
N553 C545 1.427 . S
N553 C551 1.384 . S
H554 C560 0.930 . S
H555 C564 0.930 . S
H556 C569 0.929 . S
H557 C567 0.929 . S
H558 C562 0.929 . S
H559 C568 0.929 . S
C560 H554 0.930 . S
C560 C561 1.367 . S
C560 C568 1.378 . S
C561 C560 1.367 . S
C561 C569 1.433 1_556 S
C562 H558 0.929 . S
C562 C564 1.378 . S
C562 C566 1.350 1_554 S
C563 C566 1.463 . S
C563 C568 1.350 . S
C563 N571 1.427 1_556 S
C564 H555 0.930 . S
C564 C562 1.378 . S
C564 C565 1.367 1_554 S
C565 C564 1.367 1_556 S
C565 C567 1.433 . S
C566 C562 1.350 1_556 S
C566 C563 1.463 . S
C566 N570 1.427 . S
C567 H557 0.929 . S
C567 C565 1.433 . S
C567 N570 1.384 . S
C568 H559 0.929 . S
C568 C560 1.378 . S
C568 C563 1.350 . S
C569 H556 0.929 . S
C569 C561 1.433 1_554 S
C569 N571 1.384 . S
N570 C566 1.427 . S
N570 C567 1.384 . S
N571 C563 1.427 1_554 S
N571 C569 1.384 . S
H572 C578 0.930 . S
H573 C582 0.930 . S
H574 C587 0.929 . S
H575 C585 0.929 . S
H576 C580 0.929 . S
H577 C586 0.929 . S
C578 H572 0.930 . S
C578 C579 1.367 . S
C578 C586 1.378 . S
C579 C578 1.367 . S
C579 C587 1.433 . S
C580 H576 0.929 . S
C580 C582 1.378 . S
C580 C584 1.350 . S
C581 C584 1.463 . S
C581 C586 1.350 . S
C581 N589 1.427 . S
C582 H573 0.930 . S
C582 C580 1.378 . S
C582 C583 1.367 . S
C583 C582 1.367 . S
C583 C585 1.433 . S
C584 C580 1.350 . S
C584 C581 1.463 . S
C584 N588 1.427 . S
C585 H575 0.929 . S
C585 C583 1.433 . S
C585 N588 1.384 . S
C586 H577 0.929 . S
C586 C578 1.378 . S
C586 C581 1.350 . S
C587 H574 0.929 . S
C587 C579 1.433 . S
C587 N589 1.384 . S
N588 C584 1.427 . S
N588 C585 1.384 . S
N589 C581 1.427 . S
N589 C587 1.384 . S
H590 C596 0.930 . S
H591 C600 0.930 . S
H592 C605 0.929 . S
H593 C603 0.929 . S
H594 C598 0.929 . S
H595 C604 0.929 . S
C596 H590 0.930 . S
C596 C597 1.367 . S
C596 C604 1.378 . S
C597 C596 1.367 . S
C597 C605 1.433 . S
C598 H594 0.929 . S
C598 C600 1.378 . S
C598 C602 1.350 . S
C599 C602 1.463 . S
C599 C604 1.350 . S
C599 N607 1.427 . S
C600 H591 0.930 . S
C600 C598 1.378 . S
C600 C601 1.367 . S
C601 C600 1.367 . S
C601 C603 1.433 . S
C602 C598 1.350 . S
C602 C599 1.463 . S
C602 N606 1.427 . S
C603 H593 0.929 . S
C603 C601 1.433 . S
C603 N606 1.384 . S
C604 H595 0.929 . S
C604 C596 1.378 . S
C604 C599 1.350 . S
C605 H592 0.929 . S
C605 C597 1.433 . S
C605 N607 1.384 . S
N606 C602 1.427 . S
N606 C603 1.384 . S
N607 C599 1.427 . S
N607 C605 1.384 . S
H608 C614 0.930 . S
H609 C618 0.930 . S
H610 C623 0.929 . S
H611 C621 0.929 . S
H612 C616 0.929 . S
H613 C622 0.929 . S
C614 H608 0.930 . S
C614 C615 1.367 1_545 S
C614 C622 1.378 . S
C615 C614 1.367 1_565 S
C615 C623 1.433 1_655 S
C616 H612 0.929 . S
C616 C618 1.378 . S
C616 C620 1.329 1_565 S
C617 C620 1.461 1_666 S
C617 C622 1.335 1_565 S
C617 N625 1.444 1_655 S
C618 H609 0.930 . S
C618 C616 1.378 . S
C618 C619 1.367 1_565 S
C619 C618 1.367 1_545 S
C619 C621 1.433 1_455 S
C620 C616 1.329 1_545 S
C620 C617 1.461 1_444 S
C620 N624 1.453 1_455 S
C621 H611 0.929 . S
C621 C619 1.433 1_655 S
C621 N624 1.384 . S
C622 H613 0.929 . S
C622 C614 1.378 . S
C622 C617 1.335 1_545 S
C623 H610 0.929 . S
C623 C615 1.433 1_455 S
C623 N625 1.384 . S
N624 C620 1.453 1_655 S
N624 C621 1.384 . S
N625 C617 1.444 1_455 S
N625 C623 1.384 . S
H626 C632 0.930 . S
H627 C636 0.930 . S
H628 C641 0.929 . S
H629 C639 0.929 . S
H630 C634 0.929 . S
H631 C640 0.929 . S
C632 H626 0.930 . S
C632 C633 1.367 . S
C632 C640 1.378 . S
C633 C632 1.367 . S
C633 C641 1.433 . S
C634 H630 0.929 . S
C634 C636 1.378 . S
C634 C638 1.350 . S
C635 C638 1.463 . S
C635 C640 1.350 . S
C635 N643 1.427 . S
C636 H627 0.930 . S
C636 C634 1.378 . S
C636 C637 1.367 . S
C637 C636 1.367 . S
C637 C639 1.433 . S
C638 C634 1.350 . S
C638 C635 1.463 . S
C638 N642 1.427 . S
C639 H629 0.929 . S
C639 C637 1.433 . S
C639 N642 1.384 . S
C640 H631 0.929 . S
C640 C632 1.378 . S
C640 C635 1.350 . S
C641 H628 0.929 . S
C641 C633 1.433 . S
C641 N643 1.384 . S
N642 C638 1.427 . S
N642 C639 1.384 . S
N643 C635 1.427 . S
N643 C641 1.384 . S
H644 C650 0.930 . S
H645 C654 0.930 . S
H646 C659 0.929 . S
H647 C657 0.929 . S
H648 C652 0.929 . S
H649 C658 0.929 . S
C650 H644 0.930 . S
C650 C651 1.367 1_545 S
C650 C658 1.378 . S
C651 C650 1.367 1_565 S
C651 C659 1.433 . S
C652 H648 0.929 . S
C652 C654 1.378 . S
C652 C656 1.328 1_565 S
C653 C656 1.461 1_565 S
C653 C658 1.336 1_565 S
C653 N661 1.444 . S
C654 H645 0.930 . S
C654 C652 1.378 . S
C654 C655 1.367 1_565 S
C655 C654 1.367 1_545 S
C655 C657 1.433 . S
C656 C652 1.328 1_545 S
C656 C653 1.461 1_545 S
C656 N660 1.453 . S
C657 H647 0.929 . S
C657 C655 1.433 . S
C657 N660 1.384 . S
C658 H649 0.929 . S
C658 C650 1.378 . S
C658 C653 1.336 1_545 S
C659 H646 0.929 . S
C659 C651 1.433 . S
C659 N661 1.384 . S
N660 C656 1.453 . S
N660 C657 1.384 . S
N661 C653 1.444 . S
N661 C659 1.384 . S
H662 C668 0.930 . S
H663 C672 0.930 . S
H664 C677 0.929 . S
H665 C675 0.929 . S
H666 C670 0.929 . S
H667 C676 0.929 . S
C668 H662 0.930 . S
C668 C669 1.367 . S
C668 C676 1.378 . S
C669 C668 1.367 . S
C669 C677 1.433 . S
C670 H666 0.929 . S
C670 C672 1.378 . S
C670 C674 1.350 . S
C671 C674 1.463 . S
C671 C676 1.350 . S
C671 N679 1.427 . S
C672 H663 0.930 . S
C672 C670 1.378 . S
C672 C673 1.367 . S
C673 C672 1.367 . S
C673 C675 1.433 . S
C674 C670 1.350 . S
C674 C671 1.463 . S
C674 N678 1.427 . S
C675 H665 0.929 . S
C675 C673 1.433 . S
C675 N678 1.384 . S
C676 H667 0.929 . S
C676 C668 1.378 . S
C676 C671 1.350 . S
C677 H664 0.929 . S
C677 C669 1.433 . S
C677 N679 1.384 . S
N678 C674 1.427 . S
N678 C675 1.384 . S
N679 C671 1.427 . S
N679 C677 1.384 . S
H680 C686 0.930 . S
H681 C690 0.930 . S
H682 C695 0.929 . S
H683 C693 0.929 . S
H684 C688 0.929 . S
H685 C694 0.929 . S
C686 H680 0.930 . S
C686 C687 1.367 . S
C686 C694 1.378 . S
C687 C686 1.367 . S
C687 C695 1.433 . S
C688 H684 0.929 . S
C688 C690 1.378 . S
C688 C692 1.350 . S
C689 C692 1.463 . S
C689 C694 1.350 . S
C689 N697 1.427 . S
C690 H681 0.930 . S
C690 C688 1.378 . S
C690 C691 1.367 . S
C691 C690 1.367 . S
C691 C693 1.433 . S
C692 C688 1.350 . S
C692 C689 1.463 . S
C692 N696 1.427 . S
C693 H683 0.929 . S
C693 C691 1.433 . S
C693 N696 1.384 . S
C694 H685 0.929 . S
C694 C686 1.378 . S
C694 C689 1.350 . S
C695 H682 0.929 . S
C695 C687 1.433 . S
C695 N697 1.384 . S
N696 C692 1.427 . S
N696 C693 1.384 . S
N697 C689 1.427 . S
N697 C695 1.384 . S
H698 C704 0.930 . S
H699 C708 0.930 . S
H700 C713 0.929 . S
H701 C711 0.929 . S
H702 C706 0.929 . S
H703 C712 0.929 . S
C704 H698 0.930 . S
C704 C705 1.367 . S
C704 C712 1.378 . S
C705 C704 1.367 . S
C705 C713 1.433 . S
C706 H702 0.929 . S
C706 C708 1.378 . S
C706 C710 1.350 . S
C707 C710 1.463 . S
C707 C712 1.350 . S
C707 N715 1.427 . S
C708 H699 0.930 . S
C708 C706 1.378 . S
C708 C709 1.367 . S
C709 C708 1.367 . S
C709 C711 1.433 . S
C710 C706 1.350 . S
C710 C707 1.463 . S
C710 N714 1.427 . S
C711 H701 0.929 . S
C711 C709 1.433 . S
C711 N714 1.384 . S
C712 H703 0.929 . S
C712 C704 1.378 . S
C712 C707 1.350 . S
C713 H700 0.929 . S
C713 C705 1.433 . S
C713 N715 1.384 . S
N714 C710 1.427 . S
N714 C711 1.384 . S
N715 C707 1.427 . S
N715 C713 1.384 . S
H716 C722 0.930 . S
H717 C726 0.930 . S
H718 C731 0.929 . S
H719 C729 0.929 . S
H720 C724 0.929 . S
H721 C730 0.929 . S
C722 H716 0.930 . S
C722 C723 1.367 . S
C722 C730 1.378 . S
C723 C722 1.367 . S
C723 C731 1.433 . S
C724 H720 0.929 . S
C724 C726 1.378 . S
C724 C728 1.350 . S
C725 C728 1.463 . S
C725 C730 1.350 . S
C725 N733 1.427 . S
C726 H717 0.930 . S
C726 C724 1.378 . S
C726 C727 1.367 . S
C727 C726 1.367 . S
C727 C729 1.433 . S
C728 C724 1.350 . S
C728 C725 1.463 . S
C728 N732 1.427 . S
C729 H719 0.929 . S
C729 C727 1.433 . S
C729 N732 1.384 . S
C730 H721 0.929 . S
C730 C722 1.378 . S
C730 C725 1.350 . S
C731 H718 0.929 . S
C731 C723 1.433 . S
C731 N733 1.384 . S
N732 C728 1.427 . S
N732 C729 1.384 . S
N733 C725 1.427 . S
N733 C731 1.384 . S
H734 C740 0.930 . S
H735 C744 0.930 . S
H736 C749 0.929 . S
H737 C747 0.929 . S
H738 C742 0.929 . S
H739 C748 0.929 . S
C740 H734 0.930 . S
C740 C741 1.367 1_655 S
C740 C748 1.378 . S
C741 C740 1.367 1_455 S
C741 C749 1.433 . S
C742 H738 0.929 . S
C742 C744 1.378 . S
C742 C746 1.350 1_455 S
C743 C746 1.463 1_456 S
C743 C748 1.350 1_455 S
C743 N751 1.427 . S
C744 H735 0.930 . S
C744 C742 1.378 . S
C744 C745 1.367 1_455 S
C745 C744 1.367 1_655 S
C745 C747 1.433 . S
C746 C742 1.350 1_655 S
C746 C743 1.463 1_654 S
C746 N750 1.427 . S
C747 H737 0.929 . S
C747 C745 1.433 . S
C747 N750 1.384 . S
C748 H739 0.929 . S
C748 C740 1.378 . S
C748 C743 1.350 1_655 S
C749 H736 0.929 . S
C749 C741 1.433 . S
C749 N751 1.384 . S
N750 C746 1.427 . S
N750 C747 1.384 . S
N751 C743 1.427 . S
N751 C749 1.384 . S
C327 C6 1.672 . S
C331 C129 1.673 . S
C345 C9 1.678 . S
C349 C46 1.670 . S
C363 C49 1.670 . S
C367 C86 1.675 . S
C381 C89 1.678 . S
C385 C126 1.668 . S
C399 C15 1.661 . S
C403 C218 1.672 . S
C417 C18 1.668 . S
C421 C175 1.671 . S
C435 C178 1.676 . S
C439 C95 1.670 . S
C453 C215 1.661 . S
C457 C98 1.672 . S
C471 C246 1.670 . S
C475 C209 1.667 . S
C489 C166 1.663 . S
C493 C249 1.677 . S
C507 C286 1.673 . S
C511 C169 1.672 . S
C525 C206 1.661 . S
C529 C289 1.676 . S
C543 C138 1.666 . S
C547 C255 1.666 . S
C561 C258 1.672 . S
C565 C55 1.674 . S
C579 C58 1.672 . S
C583 C295 1.659 . S
C597 C135 1.668 . S
C601 C298 1.677 . S
C615 C19 2.133 . S
C619 C10 2.133 . S
C633 C50 2.135 . S
C637 C59 2.135 1_554 S
C651 C90 2.130 . S
C655 C99 2.130 . S
C669 C130 2.134 1_556 S
C673 C139 2.134 . S
C687 C170 2.132 1_556 S
C691 C179 2.132 . S
C705 C210 2.133 . S
C709 C219 2.133 1_554 S
C723 C250 2.139 . S
C727 C259 2.139 . S
C741 C299 2.136 . S
C745 C290 2.136 . S
