# Generated by pormake.
# Topology noo, (5)-cn, num edge types: 1
# Building blocks:
#     Node 0, Type 0, BuildingBlock: XOMCOT_clean_sbu_0, # of connection points: 5
#     Node 1, Type 0, BuildingBlock: XOMCOT_clean_sbu_0, # of connection points: 5
#     Node 2, Type 0, BuildingBlock: XOMCOT_clean_sbu_0, # of connection points: 5
#     Node 3, Type 0, BuildingBlock: XOMCOT_clean_sbu_0, # of connection points: 5
#     Node 4, Type 0, BuildingBlock: XOMCOT_clean_sbu_0, # of connection points: 5
#     Node 5, Type 0, BuildingBlock: XOMCOT_clean_sbu_0, # of connection points: 5
#     Node 6, Type 0, BuildingBlock: XOMCOT_clean_sbu_0, # of connection points: 5
#     Node 7, Type 0, BuildingBlock: XOMCOT_clean_sbu_0, # of connection points: 5
#     Edge 8, Type (0, 0), BuildingBlock: EZIPEK_clean_linker_0, # of connection points: 2
#     Edge 9, Type (0, 0), BuildingBlock: EZIPEK_clean_linker_0, # of connection points: 2
#     Edge 10, Type (0, 0), BuildingBlock: EZIPEK_clean_linker_0, # of connection points: 2
#     Edge 11, Type (0, 0), BuildingBlock: EZIPEK_clean_linker_0, # of connection points: 2
#     Edge 12, Type (0, 0), BuildingBlock: EZIPEK_clean_linker_0, # of connection points: 2
#     Edge 13, Type (0, 0), BuildingBlock: EZIPEK_clean_linker_0, # of connection points: 2
#     Edge 14, Type (0, 0), BuildingBlock: EZIPEK_clean_linker_0, # of connection points: 2
#     Edge 15, Type (0, 0), BuildingBlock: EZIPEK_clean_linker_0, # of connection points: 2
#     Edge 16, Type (0, 0), BuildingBlock: EZIPEK_clean_linker_0, # of connection points: 2
#     Edge 17, Type (0, 0), BuildingBlock: EZIPEK_clean_linker_0, # of connection points: 2
#     Edge 18, Type (0, 0), BuildingBlock: EZIPEK_clean_linker_0, # of connection points: 2
#     Edge 19, Type (0, 0), BuildingBlock: EZIPEK_clean_linker_0, # of connection points: 2
#     Edge 20, Type (0, 0), BuildingBlock: EZIPEK_clean_linker_0, # of connection points: 2
#     Edge 21, Type (0, 0), BuildingBlock: EZIPEK_clean_linker_0, # of connection points: 2
#     Edge 22, Type (0, 0), BuildingBlock: EZIPEK_clean_linker_0, # of connection points: 2
#     Edge 23, Type (0, 0), BuildingBlock: EZIPEK_clean_linker_0, # of connection points: 2
#     Edge 24, Type (0, 0), BuildingBlock: EZIPEK_clean_linker_0, # of connection points: 2
#     Edge 25, Type (0, 0), BuildingBlock: EZIPEK_clean_linker_0, # of connection points: 2
#     Edge 26, Type (0, 0), BuildingBlock: EZIPEK_clean_linker_0, # of connection points: 2
#     Edge 27, Type (0, 0), BuildingBlock: EZIPEK_clean_linker_0, # of connection points: 2
# Relax obj value: 0.062
# Max RMSD: 0.103
# Mean RMSD: 0.103
data_MOF--net-noo--node1-XOMCOT_clean_sbu_0--edge1-EZIPEK_clean_linker_0
_symmetry_space_group_name_H-M    P1
_symmetry_Int_Tables_number       1
_symmetry_cell_setting            triclinic
loop_
_symmetry_equiv_pos_as_xyz
'x, y, z'
_cell_length_a     29.404936
_cell_length_b     29.421236
_cell_length_c     22.857587
_cell_angle_alpha  90.25805
_cell_angle_beta   89.67544
_cell_angle_gamma 89.992457
loop_
_atom_site_label
_atom_site_type_symbol
_atom_site_fract_x
_atom_site_fract_y
_atom_site_fract_z
_atom_type_partial_charge
Co0 Co 0.44305 0.24172 0.0575 0.0
C1 C 0.47388 0.14693 0.06658 0.0
C2 C 0.52602 0.19331 0.09442 0.0
C3 C 0.54194 0.14947 0.10062 0.0
N4 N 0.48338 0.19152 0.07314 0.0
N5 N 0.50912 0.12073 0.08279 0.0
H6 H 0.44163 0.13377 0.05158 0.0
H7 H 0.54391 0.22419 0.10582 0.0
C8 C 0.50796 0.31236 1.00243 0.0
O9 O 0.47744 0.32912 0.96674 0.0
N10 N 0.40129 0.29154 0.04176 0.0
C11 C 0.35836 0.28679 0.02198 0.0
C12 C 0.33861 0.32887 0.01726 0.0
C13 C 0.40641 0.3368 0.05072 0.0
N14 N 0.36889 0.36023 0.03489 0.0
C15 C 0.39654 0.19021 0.97056 0.0
C16 C 0.45521 0.20538 0.87806 0.0
C17 C 0.4154 0.18027 0.86878 0.0
C18 C 0.38673 0.17152 0.91617 0.0
C19 C 0.46444 0.22257 0.93404 0.0
N20 N 0.43395 0.21704 0.97887 0.0
H21 H 0.37335 0.18303 1.00591 0.0
H22 H 0.49628 0.23962 0.9407 0.0
H23 H 0.3418 0.25498 0.01233 0.0
H24 H 0.4368 0.35249 0.06779 0.0
O25 O 0.39515 0.20952 0.0983 0.0
O26 O 0.4426 0.258 0.13962 0.0
O27 O 0.49848 0.27885 0.03563 0.0
C28 C 0.40973 0.22884 0.14577 0.0
H29 H 0.57466 0.13935 0.11768 0.0
H30 H 0.30474 0.33611 1.00145 0.0
H31 H 0.47873 0.21174 0.84239 0.0
H32 H 0.35611 0.15149 0.91069 0.0
Co33 Co 0.81037 0.44186 0.05102 0.0
C34 C 0.90361 0.48204 0.05597 0.0
C35 C 0.85404 0.52639 0.09447 0.0
C36 C 0.89602 0.54672 0.09904 0.0
N37 N 0.85839 0.48631 0.06583 0.0
N38 N 0.92699 0.51857 0.07497 0.0
H39 H 0.91995 0.45238 0.03789 0.0
H40 H 0.8228 0.53954 0.11262 0.0
C41 C 0.77304 0.53128 0.01065 0.0
O42 O 0.81152 0.53906 0.9829 0.0
N43 N 0.76319 0.39742 0.03671 0.0
C44 C 0.7699 0.35468 0.01697 0.0
C45 C 0.72828 0.33456 1.00757 0.0
C46 C 0.71756 0.40292 0.03887 0.0
N47 N 0.69561 0.36493 0.02125 0.0
C48 C 0.86827 0.40928 0.9594 0.0
C49 C 0.8168 0.438 0.86595 0.0
C50 C 0.8571 0.41385 0.85543 0.0
C51 C 0.88287 0.39941 0.90279 0.0
C52 C 0.80338 0.44735 0.92373 0.0
N53 N 0.82993 0.43442 0.96975 0.0
H54 H 0.88725 0.39489 0.9949 0.0
H55 H 0.77084 0.46333 0.93112 0.0
H56 H 0.80284 0.33949 0.00886 0.0
H57 H 0.70069 0.43401 0.05218 0.0
O58 O 0.84806 0.39573 0.08673 0.0
O59 O 0.79858 0.43887 0.1345 0.0
O60 O 0.76563 0.49231 0.03309 0.0
C61 C 0.82998 0.40777 0.1364 0.0
H62 H 0.90362 0.57861 0.12067 0.0
H63 H 0.72231 0.3005 0.99119 0.0
H64 H 0.79528 0.44816 0.83 0.0
H65 H 0.91333 0.37928 0.89605 0.0
Co66 Co 0.61296 0.81576 0.0845 0.0
C67 C 0.56688 0.90631 0.08088 0.0
C68 C 0.52555 0.85639 0.1234 0.0
C69 C 0.50208 0.89691 0.12291 0.0
N70 N 0.56573 0.86178 0.09534 0.0
N71 N 0.5286 0.92838 0.09712 0.0
H72 H 0.59569 0.92343 0.06192 0.0
H73 H 0.51414 0.82534 0.1436 0.0
C74 C 0.5269 0.77276 0.04154 0.0
O75 O 0.51817 0.81006 0.01224 0.0
N76 N 0.66012 0.77042 0.07368 0.0
C77 C 0.70503 0.77883 0.06774 0.0
C78 C 0.72727 0.73857 0.05628 0.0
C79 C 0.65555 0.72518 0.06474 0.0
N80 N 0.69611 0.70512 0.05438 0.0
C81 C 0.64445 0.87145 0.991 0.0
C82 C 0.6196 0.81503 0.89981 0.0
C83 C 0.64086 0.85653 0.88775 0.0
C84 C 0.65368 0.88468 0.93391 0.0
C85 C 0.61083 0.80311 0.95799 0.0
N86 N 0.62123 0.83229 1.00274 0.0
H87 H 0.65725 0.89256 0.02577 0.0
H88 H 0.5971 0.76986 0.96677 0.0
H89 H 0.72057 0.81207 0.07017 0.0
H90 H 0.62351 0.70714 0.06515 0.0
O91 O 0.65652 0.857 0.11928 0.0
O92 O 0.61509 0.80722 0.16871 0.0
O93 O 0.56503 0.7682 0.06724 0.0
C94 C 0.64567 0.83918 0.16926 0.0
H95 H 0.46907 0.90337 0.14245 0.0
H96 H 0.7634 0.73417 0.04877 0.0
H97 H 0.6109 0.79177 0.86476 0.0
H98 H 0.6717 0.91619 0.92586 0.0
Co99 Co 0.23892 0.60911 0.07486 0.0
C100 C 0.14617 0.57199 0.06232 0.0
C101 C 0.19105 0.52447 0.10375 0.0
C102 C 0.14796 0.50611 0.10284 0.0
N103 N 0.18974 0.56577 0.07858 0.0
N104 N 0.11997 0.53621 0.07716 0.0
H105 H 0.13345 0.60289 0.04273 0.0
H106 H 0.22079 0.50961 0.12369 0.0
C107 C 0.31063 0.54591 0.02169 0.0
O108 O 0.32031 0.57502 0.97997 0.0
N109 N 0.28867 0.65369 0.07234 0.0
C110 C 0.28351 0.69936 0.077 0.0
C111 C 0.3251 0.72016 0.07332 0.0
C112 C 0.33434 0.6477 0.06826 0.0
N113 N 0.35679 0.68771 0.06752 0.0
C114 C 0.21615 0.65996 0.97398 0.0
C115 C 0.20899 0.58794 0.89656 0.0
C116 C 0.19872 0.63199 0.87767 0.0
C117 C 0.20222 0.66811 0.91709 0.0
C118 C 0.22226 0.58116 0.95463 0.0
N119 N 0.2271 0.61724 0.99205 0.0
H120 H 0.21613 0.68808 1.00407 0.0
H121 H 0.22743 0.54687 0.9699 0.0
H122 H 0.2517 0.71713 0.08308 0.0
H123 H 0.35149 0.61541 0.06731 0.0
O124 O 0.19852 0.6556 0.10443 0.0
O125 O 0.24059 0.6105 0.15959 0.0
O126 O 0.2816 0.55603 0.06146 0.0
C127 C 0.21095 0.64337 0.15645 0.0
H128 H 0.1374 0.47428 0.12224 0.0
H129 H 0.33173 0.75635 0.07461 0.0
H130 H 0.20584 0.55917 0.86713 0.0
H131 H 0.19365 0.70243 0.90407 0.0
Co132 Co 0.94651 0.31136 0.42958 0.0
C133 C 0.98338 0.40456 0.43924 0.0
C134 C 0.03478 0.35685 0.41228 0.0
C135 C 0.05443 0.39915 0.41705 0.0
N136 N 0.99028 0.36031 0.42622 0.0
N137 N 1.0219 0.42905 0.43315 0.0
H138 H 0.95067 0.41877 0.45136 0.0
H139 H 0.05183 0.32592 0.39888 0.0
C140 C 1.01147 0.24322 0.48783 0.0
O141 O 0.98464 0.23621 0.53309 0.0
N142 N 0.90203 0.26162 0.43294 0.0
C143 C 0.8565 0.2654 0.42533 0.0
C144 C 0.83607 0.22416 0.43571 0.0
C145 C 0.90838 0.21716 0.4457 0.0
N146 N 0.86882 0.19421 0.44883 0.0
C147 C 0.89159 0.33543 0.52773 0.0
C148 C 0.96062 0.34719 0.60788 0.0
C149 C 0.9155 0.35533 0.62503 0.0
C150 C 0.88088 0.34953 0.58428 0.0
C151 C 0.96991 0.33305 0.55037 0.0
N152 N 0.93535 0.3259 0.51159 0.0
H153 H 0.86455 0.33384 0.49638 0.0
H154 H 1.00488 0.32878 0.53671 0.0
H155 H 0.8387 0.29616 0.41374 0.0
H156 H 0.94063 0.20105 0.45242 0.0
O157 O 0.90138 0.35105 0.39547 0.0
O158 O 0.94794 0.30631 0.34481 0.0
O159 O 0.99906 0.26897 0.44604 0.0
C160 C 0.91518 0.3361 0.34478 0.0
H161 H 0.08944 0.40777 0.40726 0.0
H162 H 0.80006 0.21664 0.43394 0.0
H163 H 0.98826 0.3523 0.63832 0.0
H164 H 0.8458 0.3566 0.5959 0.0
Co165 Co 0.74446 0.94571 0.46512 0.0
C166 C 0.65035 0.97952 0.45041 0.0
C167 C 0.69897 0.03343 0.44077 0.0
C168 C 0.65596 0.05167 0.43702 0.0
N169 N 0.69548 0.98818 0.44975 0.0
N170 N 0.62573 1.01771 0.44335 0.0
H171 H 0.63555 0.9462 0.45596 0.0
H172 H 0.73038 0.05229 0.43722 0.0
C173 C 0.8222 1.01066 0.50544 0.0
O174 O 0.84538 0.98148 0.53672 0.0
N175 N 0.79251 0.90245 0.4815 0.0
C176 C 0.78688 0.86367 0.51202 0.0
C177 C 0.82837 0.84289 0.51858 0.0
C178 C 0.83727 0.90378 0.46788 0.0
N179 N 0.85997 0.86844 0.49148 0.0
C180 C 0.68585 0.91083 0.55362 0.0
C181 C 0.72759 0.94982 0.64929 0.0
C182 C 0.69222 0.91876 0.65782 0.0
C183 C 0.67052 0.90002 0.60946 0.0
C184 C 0.74172 0.9601 0.59233 0.0
N185 N 0.72186 0.93957 0.54518 0.0
H186 H 0.66953 0.89426 0.51734 0.0
H187 H 0.76901 0.98376 0.58714 0.0
H188 H 0.75494 0.85158 0.52951 0.0
H189 H 0.85335 0.93064 0.44327 0.0
O190 O 0.70994 0.89742 0.42861 0.0
O191 O 0.75826 0.94255 0.38228 0.0
O192 O 0.78434 1.00013 0.48197 0.0
C193 C 0.72834 0.91009 0.37962 0.0
H194 H 0.6474 0.08699 0.42982 0.0
H195 H 0.83522 0.81226 0.54308 0.0
H196 H 0.74474 0.96511 0.68629 0.0
H197 H 0.64296 0.87592 0.61489 0.0
Co198 Co 0.10922 0.74191 0.45739 0.0
C199 C 0.07587 0.64746 0.45405 0.0
C200 C 1.02351 0.6945 0.42937 0.0
C201 C 1.00614 0.65102 0.42618 0.0
N202 N 0.06725 0.69211 0.44662 0.0
N203 N 0.03911 0.62185 0.44193 0.0
H204 H 0.10853 0.63381 0.46657 0.0
H205 H 1.00578 0.72551 0.41845 0.0
C206 C 0.0473 0.81672 0.50931 0.0
O207 O 0.07883 0.83509 0.5423 0.0
N208 N 0.15245 0.79138 0.4685 0.0
C209 C 0.19526 0.78646 0.48853 0.0
C210 C 0.21573 0.8283 0.49179 0.0
C211 C 0.14818 0.83643 0.45769 0.0
N212 N 0.18602 0.85968 0.47302 0.0
C213 C 0.15603 0.69208 0.54504 0.0
C214 C 0.10111 0.71401 0.63928 0.0
C215 C 0.13959 0.68687 0.64795 0.0
C216 C 0.16645 0.67496 0.59987 0.0
C217 C 0.09118 0.72965 0.58298 0.0
N218 N 0.11978 0.72047 0.53699 0.0
H219 H 0.17782 0.68237 0.50913 0.0
H220 H 0.06023 0.74837 0.57709 0.0
H221 H 0.21104 0.75469 0.50004 0.0
H222 H 0.11791 0.85219 0.4405 0.0
O223 O 0.15577 0.70738 0.41684 0.0
O224 O 0.10755 0.75446 0.37432 0.0
O225 O 0.05534 0.78104 0.47911 0.0
C226 C 0.1404 0.72512 0.36902 0.0
H227 H 0.97231 0.64139 0.41238 0.0
H228 H 0.24947 0.83545 0.50818 0.0
H229 H 0.07902 0.72295 0.67564 0.0
H230 H 0.19603 0.65339 0.60498 0.0
Co231 Co 0.31504 0.11004 0.43926 0.0
C232 C 0.40762 0.07095 0.44814 0.0
C233 C 0.36219 1.02689 0.40124 0.0
C234 C 0.40471 1.00714 0.40176 0.0
N235 N 0.36417 0.06689 0.43009 0.0
N236 N 0.43303 0.03505 0.43096 0.0
H237 H 0.42082 0.10035 0.47108 0.0
H238 H 0.33226 1.01365 0.3798 0.0
C239 C 0.24372 0.0456 0.49026 0.0
O240 O 0.2336 0.07423 0.53268 0.0
N241 N 0.26516 0.15411 0.44763 0.0
C242 C 0.26991 0.19985 0.45084 0.0
C243 C 0.228 0.2198 0.45746 0.0
C244 C 0.21951 0.14745 0.44939 0.0
N245 N 0.19652 0.18681 0.4569 0.0
C246 C 0.34351 0.15682 0.54159 0.0
C247 C 0.34612 0.08331 0.61627 0.0
C248 C 0.35869 0.1264 0.637 0.0
C249 C 0.35787 0.16317 0.59875 0.0
C250 C 0.33267 0.07829 0.55782 0.0
N251 N 0.32955 0.11528 0.52197 0.0
H252 H 0.34531 0.1854 0.51268 0.0
H253 H 0.32579 0.0446 0.54117 0.0
H254 H 0.30156 0.21826 0.44767 0.0
H255 H 0.20283 0.1151 0.4444 0.0
O256 O 0.35436 0.15775 0.41069 0.0
O257 O 0.31053 0.11468 0.35474 0.0
O258 O 0.27303 0.05626 0.45119 0.0
C259 C 0.34032 0.14737 0.3586 0.0
H260 H 0.41463 0.97579 0.38026 0.0
H261 H 0.22102 0.25574 0.46245 0.0
H262 H 0.3473 0.05397 0.64465 0.0
H263 H 0.36837 0.19671 0.61308 0.0
C264 C 0.52432 0.9984 0.03742 0.0
C265 C 0.52035 0.97668 0.0926 0.0
C266 C 0.49944 0.04959 0.13751 0.0
C267 C 0.5104 0.07193 0.08483 0.0
N268 N 0.53557 0.06922 0.98487 0.0
N269 N 0.51198 0.98351 0.19748 0.0
C270 C 0.52348 0.04674 0.03469 0.0
C271 C 0.5095 1.00267 0.14331 0.0
N272 N 0.527 0.9727 0.98763 0.0
N273 N 0.47892 0.07327 0.18177 0.0
H274 H 0.52372 0.9506 0.20444 0.0
H275 H 0.50697 1.0018 0.23603 0.0
H276 H 0.47269 0.10813 0.17946 0.0
H277 H 0.4637 0.05724 0.21738 0.0
H278 H 0.52632 0.98634 0.94569 0.0
H279 H 0.52532 0.93729 0.98819 0.0
H280 H 0.54986 0.05323 0.94842 0.0
H281 H 0.53393 0.10456 0.98163 0.0
C282 C 0.99984 0.52734 0.02134 0.0
C283 C 0.97568 0.52404 0.07504 0.0
C284 C 0.04624 0.53616 0.12894 0.0
C285 C 0.0711 0.53396 0.07582 0.0
N286 N 0.07307 0.52353 0.97158 0.0
N287 N 0.9767 0.51657 0.17983 0.0
C288 C 0.04827 0.52859 0.02187 0.0
C289 C 0.99909 0.52624 0.1289 0.0
N290 N 0.97629 0.53072 0.97024 0.0
N291 N 0.06749 0.54927 0.17916 0.0
H292 H 0.94263 0.50685 0.18102 0.0
H293 H 0.99294 0.51374 0.21999 0.0
H294 H 0.10207 0.55701 0.18068 0.0
H295 H 0.04976 0.55719 0.21742 0.0
H296 H 0.99157 0.53728 0.92996 0.0
H297 H 0.94083 0.53074 0.96894 0.0
H298 H 0.05883 0.51524 0.93133 0.0
H299 H 0.10854 0.52454 0.97106 0.0
C300 C 1.01792 0.50116 0.48936 0.0
C301 C 1.02637 0.47779 0.43599 0.0
C302 C 0.0495 0.54917 0.38984 0.0
C303 C 0.03648 0.57306 0.441 0.0
N304 N 1.00537 0.57373 0.53825 0.0
N305 N 0.04217 0.48027 0.33254 0.0
C306 C 1.01971 0.54954 0.4905 0.0
C307 C 0.04023 0.50198 0.38543 0.0
N308 N 1.01015 0.47689 0.53922 0.0
N309 N 0.07125 0.5717 0.34578 0.0
H310 H 0.03251 0.44647 0.32687 0.0
H311 H 0.04922 0.49672 0.29334 0.0
H312 H 0.07729 0.60656 0.34736 0.0
H313 H 0.08702 0.55525 0.31071 0.0
H314 H 1.00762 0.49152 0.58065 0.0
H315 H 1.00993 0.44144 0.53977 0.0
H316 H 0.98853 0.55928 0.57377 0.0
H317 H 1.00811 0.60906 0.54065 0.0
C318 C 0.55631 0.03093 0.38643 0.0
C319 C 0.57701 1.02142 0.44063 0.0
C320 C 0.50206 1.01854 0.48835 0.0
C321 C 0.4817 0.03072 0.43467 0.0
N322 N 0.48917 0.05587 0.33529 0.0
N323 N 0.57168 1.01147 0.5447 0.0
C324 C 0.50879 0.03889 0.38443 0.0
C325 C 0.55041 1.01654 0.49216 0.0
N326 N 0.58206 0.03056 0.3365 0.0
N327 N 0.47489 1.00809 0.53502 0.0
H328 H 0.607 1.01019 0.54838 0.0
H329 H 0.55483 1.01159 0.58485 0.0
H330 H 0.43948 1.00983 0.53303 0.0
H331 H 0.48695 0.9951 0.57425 0.0
H332 H 0.56856 0.033 0.29464 0.0
H333 H 0.61692 1.0242 0.33669 0.0
H334 H 0.50804 0.06962 0.30102 0.0
H335 H 0.45415 0.06006 0.33117 0.0
C336 C 0.33475 0.47225 0.97223 0.0
C337 C 0.33276 0.50019 0.02325 0.0
C338 C 0.35868 0.43555 0.08241 0.0
C339 C 0.36257 0.40877 0.03115 0.0
N340 N 0.3672 0.40506 0.92646 0.0
N341 N 0.35549 0.51133 0.12387 0.0
C342 C 0.35495 0.42847 0.97577 0.0
C343 C 0.34869 0.48273 0.07748 0.0
N344 N 0.3145 0.48564 0.92146 0.0
N345 N 0.36236 0.41551 0.13591 0.0
H346 H 0.35042 0.54632 0.12143 0.0
H347 H 0.37083 0.50109 0.1626 0.0
H348 H 0.36943 0.38101 0.14086 0.0
H349 H 0.35481 0.43226 0.17503 0.0
H350 H 0.31095 0.46424 0.88533 0.0
H351 H 0.29707 0.51616 0.91685 0.0
H352 H 0.36641 0.41919 0.88476 0.0
H353 H 0.38276 0.3732 0.92819 0.0
C354 C 0.58243 0.3361 0.95474 0.0
C355 C 0.55472 0.332 1.0057 0.0
C356 C 0.62047 0.35155 0.06705 0.0
C357 C 0.64726 0.35769 0.0162 0.0
N358 N 0.6522 0.3658 0.91205 0.0
N359 N 0.54495 0.34695 0.10915 0.0
C360 C 0.62758 0.3532 0.96012 0.0
C361 C 0.57305 0.34313 0.06154 0.0
N362 N 0.56693 0.32107 0.90183 0.0
N363 N 0.64082 0.35171 0.1206 0.0
H364 H 0.50989 0.3423 0.10688 0.0
H365 H 0.55568 0.35924 0.14959 0.0
H366 H 0.67551 0.35774 0.12596 0.0
H367 H 0.62419 0.34223 0.15901 0.0
H368 H 0.58746 0.31859 0.86468 0.0
H369 H 0.53465 0.30734 0.89581 0.0
H370 H 0.63857 0.36764 0.87017 0.0
H371 H 0.68522 0.37858 0.91517 0.0
C372 C 0.71609 0.64437 0.98399 0.0
C373 C 0.70525 0.65793 0.04185 0.0
C374 C 0.72651 0.58265 0.0785 0.0
C375 C 0.74087 0.57003 0.02072 0.0
N376 N 0.73592 0.58294 0.91713 0.0
N377 N 0.69005 0.63875 0.14182 0.0
C378 C 0.73135 0.59918 0.97298 0.0
C379 C 0.70689 0.62639 0.0882 0.0
N380 N 0.71274 0.67539 0.93994 0.0
N381 N 0.73399 0.55443 0.12484 0.0
H382 H 0.67815 0.67139 0.151 0.0
H383 H 0.68482 0.6162 0.17614 0.0
H384 H 0.74405 0.52076 0.121 0.0
H385 H 0.73155 0.56467 0.16836 0.0
H386 H 0.72496 0.66992 0.89768 0.0
H387 H 0.69908 0.70777 0.94658 0.0
H388 H 0.7264 0.60092 0.88007 0.0
H389 H 0.74529 0.54938 0.90817 0.0
C390 C 0.433 0.69917 0.10838 0.0
C391 C 0.40456 0.69596 0.05912 0.0
C392 C 0.46549 0.72565 0.99673 0.0
C393 C 0.49043 0.73772 0.04747 0.0
N394 N 0.49935 0.73281 0.15301 0.0
N395 N 0.39262 0.70342 0.95602 0.0
C396 C 0.47531 0.72252 0.10367 0.0
C397 C 0.42085 0.70771 1.00294 0.0
N398 N 0.41884 0.6803 0.15984 0.0
N399 N 0.48499 0.73086 0.94277 0.0
H400 H 0.36048 0.68857 0.95942 0.0
H401 H 0.40003 0.71626 0.91469 0.0
H402 H 0.51827 0.74249 0.93737 0.0
H403 H 0.47019 0.71955 0.9041 0.0
H404 H 0.43937 0.67702 0.19652 0.0
H405 H 0.38735 0.66426 0.16413 0.0
H406 H 0.48653 0.72889 0.1952 0.0
H407 H 0.53175 0.74678 0.15286 0.0
C408 C 0.84587 0.08927 0.53792 0.0
C409 C 0.84085 0.05649 0.4926 0.0
C410 C 0.85704 0.11477 0.41864 0.0
C411 C 0.86241 0.1472 0.46377 0.0
N412 N 0.86913 0.16576 0.56566 0.0
N413 N 0.85051 0.03546 0.39104 0.0
C414 C 0.85934 0.1344 0.52331 0.0
C415 C 0.84908 0.06854 0.43323 0.0
N416 N 0.83531 0.07796 0.59434 0.0
N417 N 0.85857 0.12873 0.36173 0.0
H418 H 0.84527 1.00119 0.40003 0.0
H419 H 0.86062 0.04115 0.34799 0.0
H420 H 0.86653 0.16204 0.35 0.0
H421 H 0.84955 0.10829 0.32637 0.0
H422 H 0.8333 0.10137 0.62851 0.0
H423 H 0.82583 0.04525 0.60673 0.0
H424 H 0.87216 0.158 0.60983 0.0
H425 H 0.87722 0.19943 0.55596 0.0
C426 C 0.97483 0.84659 0.5563 0.0
C427 C 1.00101 0.83703 0.50525 0.0
C428 C 0.93373 0.85053 0.4443 0.0
C429 C 0.90847 0.862 0.49494 0.0
N430 N 0.90757 0.88314 0.59655 0.0
N431 N 1.0082 0.84245 0.4 0.0
C432 C 0.93 0.864 0.55016 0.0
C433 C 0.9813 0.84291 0.44896 0.0
N434 N 0.99128 0.83639 0.61048 0.0
N435 N 0.91191 0.84487 0.39222 0.0
H436 H 0.04341 0.83875 0.40161 0.0
H437 H 0.99626 0.8506 0.35853 0.0
H438 H 0.87701 0.84994 0.38762 0.0
H439 H 0.92766 0.83155 0.35497 0.0
H440 H 0.97153 0.83817 0.64839 0.0
H441 H 1.0232 0.82212 0.61732 0.0
H442 H 0.92292 0.8895 0.63674 0.0
H443 H 0.87505 0.89697 0.59278 0.0
C444 C 0.21928 0.97164 0.53795 0.0
C445 C 0.22202 0.99966 0.48738 0.0
C446 C 0.19707 0.935 0.42672 0.0
C447 C 0.19237 0.90821 0.47753 0.0
N448 N 0.1859 0.90457 0.58206 0.0
N449 N 0.20086 1.0108 0.38628 0.0
C450 C 0.19906 0.92791 0.53335 0.0
C451 C 0.20699 0.98219 0.43248 0.0
N452 N 0.23886 0.98487 0.58938 0.0
N453 N 0.19405 0.91496 0.37292 0.0
H454 H 0.20572 0.04581 0.38929 0.0
H455 H 0.18622 1.00053 0.34699 0.0
H456 H 0.1868 0.8805 0.3675 0.0
H457 H 0.20221 0.93166 0.33416 0.0
H458 H 0.2418 0.96339 0.62529 0.0
H459 H 0.25644 1.01524 0.5948 0.0
H460 H 0.18598 0.91876 0.62391 0.0
H461 H 0.1703 0.87276 0.57958 0.0
C462 C 0.08899 0.22552 0.53021 0.0
C463 C 0.05722 0.22131 0.48367 0.0
C464 C 0.11773 0.19043 0.42008 0.0
C465 C 0.14855 0.19321 0.46707 0.0
N466 N 0.16172 0.20205 0.56986 0.0
N467 N 0.03918 0.18858 0.38932 0.0
C468 C 0.13337 0.20692 0.52321 0.0
C469 C 0.07095 0.20025 0.4301 0.0
N470 N 0.07832 0.25004 0.57934 0.0
N471 N 0.13364 0.18038 0.3653 0.0
H472 H 1.0045 0.19396 0.39549 0.0
H473 H 0.04667 0.16938 0.3521 0.0
H474 H 0.16771 0.17274 0.35692 0.0
H475 H 0.1139 0.18296 0.32776 0.0
H476 H 0.10203 0.25837 0.61131 0.0
H477 H 0.04704 0.26577 0.58616 0.0
H478 H 0.1514 0.20723 0.61305 0.0
H479 H 0.19435 0.1884 0.56554 0.0
C480 C 0.42303 0.19826 0.24714 0.0
C481 C 0.39228 0.21432 0.20402 0.0
C482 C 0.32754 0.19284 0.26702 0.0
C483 C 0.35812 0.17168 0.30627 0.0
N484 N 0.43503 0.15168 0.33235 0.0
N485 N 0.31534 0.2285 0.17288 0.0
C486 C 0.40586 0.17447 0.29652 0.0
C487 C 0.34453 0.21202 0.21404 0.0
N488 N 0.4689 0.20469 0.24085 0.0
N489 N 0.28257 0.19678 0.28195 0.0
H490 H 0.32615 0.2478 0.13726 0.0
H491 H 0.28054 0.22207 0.17292 0.0
H492 H 0.26906 0.18418 0.32088 0.0
H493 H 0.25916 0.21587 0.25854 0.0
H494 H 0.49189 0.20132 0.27501 0.0
H495 H 0.48463 0.21596 0.20289 0.0
H496 H 0.46961 0.14772 0.32409 0.0
H497 H 0.42448 0.1332 0.36844 0.0
C498 C 0.86964 0.41881 0.23264 0.0
C499 C 0.84765 0.38928 0.19238 0.0
C500 C 0.86894 0.32371 0.25317 0.0
C501 C 0.89448 0.35313 0.28984 0.0
N502 N 0.92898 0.4264 0.30452 0.0
N503 N 0.82819 0.31314 0.16199 0.0
C504 C 0.89735 0.40008 0.27698 0.0
C505 C 0.84802 0.34151 0.2019 0.0
N506 N 0.8644 0.46485 0.22901 0.0
N507 N 0.86331 0.27918 0.26839 0.0
H508 H 0.80882 0.32496 0.12716 0.0
H509 H 0.83231 0.278 0.16198 0.0
H510 H 0.87932 0.26459 0.30425 0.0
H511 H 0.8407 0.25722 0.24771 0.0
H512 H 0.87557 0.48724 0.26132 0.0
H513 H 0.8453 0.48077 0.19707 0.0
H514 H 0.93615 0.45985 0.2929 0.0
H515 H 0.95222 0.41285 0.3337 0.0
C516 C 0.71491 0.845 0.31011 0.0
C517 C 0.71123 0.89213 0.32324 0.0
C518 C 0.65991 0.90218 0.24042 0.0
C519 C 0.66647 0.85611 0.22414 0.0
N520 N 0.70498 0.7847 0.23829 0.0
N521 N 0.68702 0.96737 0.29408 0.0
C522 C 0.69518 0.82764 0.25769 0.0
C523 C 0.68619 0.9213 0.28603 0.0
N524 N 0.73729 0.81691 0.34775 0.0
N525 N 0.62624 0.92701 0.21488 0.0
H526 H 0.70366 0.98343 0.32842 0.0
H527 H 0.67424 0.99015 0.26352 0.0
H528 H 0.60442 0.91318 0.18402 0.0
H529 H 0.61634 0.95921 0.22922 0.0
H530 H 0.73654 0.78161 0.34461 0.0
H531 H 0.75506 0.82892 0.38405 0.0
H532 H 0.72952 0.76397 0.25711 0.0
H533 H 0.69081 0.77074 0.20054 0.0
C534 C 0.12732 0.68847 0.2711 0.0
C535 C 0.1575 0.70939 0.31129 0.0
C536 C 0.22285 0.68723 0.25008 0.0
C537 C 0.19259 0.66673 0.20937 0.0
N538 N 0.11541 0.65488 0.17603 0.0
N539 N 0.23214 0.73782 0.3335 0.0
C540 C 0.1447 0.66989 0.21811 0.0
C541 C 0.20482 0.7112 0.29929 0.0
N542 N 0.08227 0.68357 0.28501 0.0
N543 N 0.26884 0.68431 0.24149 0.0
H544 H 0.21965 0.757 0.36855 0.0
H545 H 0.26616 0.74452 0.32424 0.0
H546 H 0.28368 0.67158 0.20332 0.0
H547 H 0.29264 0.69285 0.27323 0.0
H548 H 0.05996 0.66285 0.26183 0.0
H549 H 0.06737 0.6971 0.3225 0.0
H550 H 0.08091 0.66284 0.17556 0.0
H551 H 0.12555 0.63638 0.13956 0.0
C552 C 0.69248 0.8529 0.80039 0.0
C553 C 0.65239 0.87013 0.82724 0.0
C554 C 0.64091 0.92243 0.74549 0.0
C555 C 0.67939 0.90322 0.71708 0.0
N556 N 0.73784 0.84572 0.71197 0.0
N557 N 0.58467 0.91612 0.82323 0.0
C558 C 0.70408 0.86714 0.74297 0.0
C559 C 0.62545 0.90345 0.79911 0.0
N560 N 0.72029 0.82419 0.83064 0.0
N561 N 0.61991 0.95946 0.72176 0.0
H562 H 0.5725 0.90298 0.86265 0.0
H563 H 0.56122 0.93685 0.80229 0.0
H564 H 0.63006 0.97378 0.6821 0.0
H565 H 0.59466 0.9781 0.74309 0.0
H566 H 0.75263 0.81479 0.8163 0.0
H567 H 0.71249 0.81211 0.87233 0.0
H568 H 0.75341 0.81583 0.72559 0.0
H569 H 0.74822 0.85588 0.67032 0.0
C570 C 0.19543 0.68864 0.73 0.0
C571 C 0.15369 0.6723 0.70722 0.0
C572 C 0.14073 0.62867 0.79688 0.0
C573 C 0.18451 0.64165 0.81684 0.0
N574 N 0.25765 0.67534 0.79651 0.0
N575 N 0.09066 0.61996 0.71369 0.0
C576 C 0.21316 0.66895 0.78144 0.0
C577 C 0.12742 0.64029 0.73911 0.0
N578 N 0.21727 0.72425 0.70379 0.0
N579 N 0.11118 0.60695 0.8337 0.0
H580 H 0.08006 0.62736 0.67132 0.0
H581 H 0.07314 0.59297 0.73266 0.0
H582 H 0.11954 0.5979 0.87636 0.0
H583 H 0.07716 0.60119 0.82356 0.0
H584 H 0.2454 0.74042 0.72199 0.0
H585 H 0.20464 0.74075 0.66699 0.0
H586 H 0.28124 0.69129 0.76932 0.0
H587 H 0.27208 0.66064 0.83349 0.0
C588 C 0.41401 0.11948 0.72069 0.0
C589 C 0.3716 0.13479 0.6988 0.0
C590 C 0.36129 0.18336 0.78486 0.0
C591 C 0.40158 0.16518 0.80938 0.0
N592 N 0.46156 0.10919 0.80598 0.0
N593 N 0.29983 0.1722 0.71648 0.0
C594 C 0.42664 0.13118 0.77888 0.0
C595 C 0.34362 0.16381 0.73308 0.0
N596 N 0.44304 0.0955 0.6853 0.0
N597 N 0.34093 0.22062 0.80959 0.0
H598 H 0.28542 0.15762 0.67922 0.0
H599 H 0.27654 0.18966 0.74275 0.0
H600 H 0.35373 0.23719 0.84642 0.0
H601 H 0.31411 0.23792 0.79007 0.0
H602 H 0.47638 0.08786 0.69686 0.0
H603 H 0.43506 0.08621 0.64249 0.0
H604 H 0.47796 0.08097 0.78801 0.0
H605 H 0.47154 0.11662 0.84868 0.0
C606 C 0.88226 0.3388 0.7236 0.0
C607 C 0.90347 0.37023 0.6853 0.0
C608 C 0.89579 0.43039 0.75943 0.0
C609 C 0.871 0.39992 0.79546 0.0
N610 N 0.8344 0.32735 0.80897 0.0
N611 N 0.92525 0.44721 0.66252 0.0
C612 C 0.86246 0.3547 0.77669 0.0
C613 C 0.90897 0.41642 0.70208 0.0
N614 N 0.88212 0.29352 0.70976 0.0
N615 N 0.90771 0.47223 0.78064 0.0
H616 H 0.93581 0.43814 0.62043 0.0
H617 H 0.92533 0.48217 0.66979 0.0
H618 H 0.89766 0.484 0.82186 0.0
H619 H 0.93013 0.49401 0.75924 0.0
H620 H 0.87146 0.26827 0.73851 0.0
H621 H 0.8965 0.28063 0.67128 0.0
H622 H 0.82288 0.29579 0.79457 0.0
H623 H 0.81934 0.33778 0.84823 0.0
loop_
_geom_bond_atom_site_label_1
_geom_bond_atom_site_label_2
_geom_bond_distance
_geom_bond_site_symmetry_2
_ccdc_geom_bond_type
Co0 N4 2.148 . S
Co0 N10 2.128 . S
Co0 N20 2.194 1_554 S
Co0 O25 2.351 . S
Co0 O26 2.155 . S
Co0 O27 2.096 . S
C1 N4 1.301 . S
C1 N5 1.328 . S
C1 H6 0.930 . S
C2 C3 1.333 . S
C2 N4 1.317 . S
C2 H7 0.930 . S
C3 C2 1.333 . S
C3 N5 1.350 . S
C3 H29 0.931 . S
N4 Co0 2.148 . S
N4 C1 1.301 . S
N4 C2 1.317 . S
N5 C1 1.328 . S
N5 C3 1.350 . S
H6 C1 0.930 . S
H7 C2 0.930 . S
C8 O9 1.224 1_554 S
C8 O27 1.247 . S
O9 C8 1.224 1_556 S
N10 Co0 2.128 . S
N10 C11 1.355 . S
N10 C13 1.311 . S
C11 N10 1.355 . S
C11 C12 1.363 . S
C11 H23 0.929 . S
C12 C11 1.363 . S
C12 N14 1.375 . S
C12 H30 0.931 . S
C13 N10 1.311 . S
C13 N14 1.347 . S
C13 H24 0.929 . S
N14 C12 1.375 . S
N14 C13 1.347 . S
C15 C18 1.365 . S
C15 N20 1.328 . S
C15 H21 0.929 1_556 S
C16 C17 1.362 . S
C16 C19 1.378 . S
C16 H31 0.929 . S
C17 C16 1.362 . S
C17 C18 1.366 . S
C18 C15 1.365 . S
C18 C17 1.366 . S
C18 H32 0.930 . S
C19 C16 1.378 . S
C19 N20 1.315 . S
C19 H22 0.930 . S
N20 Co0 2.194 1_556 S
N20 C15 1.328 . S
N20 C19 1.315 . S
H21 C15 0.929 1_554 S
H22 C19 0.930 . S
H23 C11 0.929 . S
H24 C13 0.929 . S
O25 Co0 2.351 . S
O25 C28 1.244 . S
O26 Co0 2.155 . S
O26 C28 1.240 . S
O27 Co0 2.096 . S
O27 C8 1.247 . S
C28 O25 1.244 . S
C28 O26 1.240 . S
H29 C3 0.931 . S
H30 C12 0.931 . S
H31 C16 0.929 . S
H32 C18 0.930 . S
Co33 N37 2.148 . S
Co33 N43 2.128 . S
Co33 N53 2.194 1_554 S
Co33 O58 2.351 . S
Co33 O59 2.155 . S
Co33 O60 2.096 . S
C34 N37 1.301 . S
C34 N38 1.328 . S
C34 H39 0.930 . S
C35 C36 1.333 . S
C35 N37 1.317 . S
C35 H40 0.930 . S
C36 C35 1.333 . S
C36 N38 1.350 . S
C36 H62 0.931 . S
N37 Co33 2.148 . S
N37 C34 1.301 . S
N37 C35 1.317 . S
N38 C34 1.328 . S
N38 C36 1.350 . S
H39 C34 0.930 . S
H40 C35 0.930 . S
C41 O42 1.224 1_554 S
C41 O60 1.247 . S
O42 C41 1.224 1_556 S
N43 Co33 2.128 . S
N43 C44 1.355 . S
N43 C46 1.311 . S
C44 N43 1.355 . S
C44 C45 1.363 . S
C44 H56 0.929 . S
C45 C44 1.363 . S
C45 N47 1.375 . S
C45 H63 0.931 . S
C46 N43 1.311 . S
C46 N47 1.347 . S
C46 H57 0.929 . S
N47 C45 1.375 . S
N47 C46 1.347 . S
C48 C51 1.365 . S
C48 N53 1.328 . S
C48 H54 0.929 1_556 S
C49 C50 1.362 . S
C49 C52 1.378 . S
C49 H64 0.929 . S
C50 C49 1.362 . S
C50 C51 1.366 . S
C51 C48 1.365 . S
C51 C50 1.366 . S
C51 H65 0.930 . S
C52 C49 1.378 . S
C52 N53 1.315 . S
C52 H55 0.930 . S
N53 Co33 2.194 1_556 S
N53 C48 1.328 . S
N53 C52 1.315 . S
H54 C48 0.929 1_554 S
H55 C52 0.930 . S
H56 C44 0.929 . S
H57 C46 0.929 . S
O58 Co33 2.351 . S
O58 C61 1.244 . S
O59 Co33 2.155 . S
O59 C61 1.240 . S
O60 Co33 2.096 . S
O60 C41 1.247 . S
C61 O58 1.244 . S
C61 O59 1.240 . S
H62 C36 0.931 . S
H63 C45 0.931 . S
H64 C49 0.929 . S
H65 C51 0.930 . S
Co66 N70 2.148 . S
Co66 N76 2.128 . S
Co66 N86 2.194 1_554 S
Co66 O91 2.351 . S
Co66 O92 2.155 . S
Co66 O93 2.096 . S
C67 N70 1.301 . S
C67 N71 1.328 . S
C67 H72 0.930 . S
C68 C69 1.333 . S
C68 N70 1.317 . S
C68 H73 0.930 . S
C69 C68 1.333 . S
C69 N71 1.350 . S
C69 H95 0.931 . S
N70 Co66 2.148 . S
N70 C67 1.301 . S
N70 C68 1.317 . S
N71 C67 1.328 . S
N71 C69 1.350 . S
H72 C67 0.930 . S
H73 C68 0.930 . S
C74 O75 1.224 1_554 S
C74 O93 1.247 . S
O75 C74 1.224 1_556 S
N76 Co66 2.128 . S
N76 C77 1.355 . S
N76 C79 1.311 . S
C77 N76 1.355 . S
C77 C78 1.363 . S
C77 H89 0.929 . S
C78 C77 1.363 . S
C78 N80 1.375 . S
C78 H96 0.931 . S
C79 N76 1.311 . S
C79 N80 1.347 . S
C79 H90 0.929 . S
N80 C78 1.375 . S
N80 C79 1.347 . S
C81 C84 1.365 . S
C81 N86 1.328 . S
C81 H87 0.929 1_556 S
C82 C83 1.362 . S
C82 C85 1.378 . S
C82 H97 0.929 . S
C83 C82 1.362 . S
C83 C84 1.366 . S
C84 C81 1.365 . S
C84 C83 1.366 . S
C84 H98 0.930 . S
C85 C82 1.378 . S
C85 N86 1.315 . S
C85 H88 0.930 . S
N86 Co66 2.194 1_556 S
N86 C81 1.328 . S
N86 C85 1.315 . S
H87 C81 0.929 1_554 S
H88 C85 0.930 . S
H89 C77 0.929 . S
H90 C79 0.929 . S
O91 Co66 2.351 . S
O91 C94 1.244 . S
O92 Co66 2.155 . S
O92 C94 1.240 . S
O93 Co66 2.096 . S
O93 C74 1.247 . S
C94 O91 1.244 . S
C94 O92 1.240 . S
H95 C69 0.931 . S
H96 C78 0.931 . S
H97 C82 0.929 . S
H98 C84 0.930 . S
Co99 N103 2.148 . S
Co99 N109 2.128 . S
Co99 N119 2.194 1_554 S
Co99 O124 2.351 . S
Co99 O125 2.155 . S
Co99 O126 2.096 . S
C100 N103 1.301 . S
C100 N104 1.328 . S
C100 H105 0.930 . S
C101 C102 1.333 . S
C101 N103 1.317 . S
C101 H106 0.930 . S
C102 C101 1.333 . S
C102 N104 1.350 . S
C102 H128 0.931 . S
N103 Co99 2.148 . S
N103 C100 1.301 . S
N103 C101 1.317 . S
N104 C100 1.328 . S
N104 C102 1.350 . S
H105 C100 0.930 . S
H106 C101 0.930 . S
C107 O108 1.224 1_554 S
C107 O126 1.247 . S
O108 C107 1.224 1_556 S
N109 Co99 2.128 . S
N109 C110 1.355 . S
N109 C112 1.311 . S
C110 N109 1.355 . S
C110 C111 1.363 . S
C110 H122 0.929 . S
C111 C110 1.363 . S
C111 N113 1.375 . S
C111 H129 0.931 . S
C112 N109 1.311 . S
C112 N113 1.347 . S
C112 H123 0.929 . S
N113 C111 1.375 . S
N113 C112 1.347 . S
C114 C117 1.365 . S
C114 N119 1.328 . S
C114 H120 0.929 1_556 S
C115 C116 1.362 . S
C115 C118 1.378 . S
C115 H130 0.929 . S
C116 C115 1.362 . S
C116 C117 1.366 . S
C117 C114 1.365 . S
C117 C116 1.366 . S
C117 H131 0.930 . S
C118 C115 1.378 . S
C118 N119 1.315 . S
C118 H121 0.930 . S
N119 Co99 2.194 1_556 S
N119 C114 1.328 . S
N119 C118 1.315 . S
H120 C114 0.929 1_554 S
H121 C118 0.930 . S
H122 C110 0.929 . S
H123 C112 0.929 . S
O124 Co99 2.351 . S
O124 C127 1.244 . S
O125 Co99 2.155 . S
O125 C127 1.240 . S
O126 Co99 2.096 . S
O126 C107 1.247 . S
C127 O124 1.244 . S
C127 O125 1.240 . S
H128 C102 0.931 . S
H129 C111 0.931 . S
H130 C115 0.929 . S
H131 C117 0.930 . S
Co132 N136 2.148 . S
Co132 N142 2.128 . S
Co132 N152 2.194 . S
Co132 O157 2.351 . S
Co132 O158 2.155 . S
Co132 O159 2.096 . S
C133 N136 1.301 . S
C133 N137 1.328 . S
C133 H138 0.930 . S
C134 C135 1.333 . S
C134 N136 1.317 1_455 S
C134 H139 0.930 . S
C135 C134 1.333 . S
C135 N137 1.350 1_455 S
C135 H161 0.931 . S
N136 Co132 2.148 . S
N136 C133 1.301 . S
N136 C134 1.317 1_655 S
N137 C133 1.328 . S
N137 C135 1.350 1_655 S
H138 C133 0.930 . S
H139 C134 0.930 . S
C140 O141 1.224 . S
C140 O159 1.247 . S
O141 C140 1.224 . S
N142 Co132 2.128 . S
N142 C143 1.355 . S
N142 C145 1.311 . S
C143 N142 1.355 . S
C143 C144 1.363 . S
C143 H155 0.929 . S
C144 C143 1.363 . S
C144 N146 1.375 . S
C144 H162 0.931 . S
C145 N142 1.311 . S
C145 N146 1.347 . S
C145 H156 0.929 . S
N146 C144 1.375 . S
N146 C145 1.347 . S
C147 C150 1.365 . S
C147 N152 1.328 . S
C147 H153 0.929 . S
C148 C149 1.362 . S
C148 C151 1.378 . S
C148 H163 0.929 . S
C149 C148 1.362 . S
C149 C150 1.366 . S
C150 C147 1.365 . S
C150 C149 1.366 . S
C150 H164 0.930 . S
C151 C148 1.378 . S
C151 N152 1.315 . S
C151 H154 0.930 . S
N152 Co132 2.194 . S
N152 C147 1.328 . S
N152 C151 1.315 . S
H153 C147 0.929 . S
H154 C151 0.930 . S
H155 C143 0.929 . S
H156 C145 0.929 . S
O157 Co132 2.351 . S
O157 C160 1.244 . S
O158 Co132 2.155 . S
O158 C160 1.240 . S
O159 Co132 2.096 . S
O159 C140 1.247 . S
C160 O157 1.244 . S
C160 O158 1.240 . S
H161 C135 0.931 . S
H162 C144 0.931 . S
H163 C148 0.929 . S
H164 C150 0.930 . S
Co165 N169 2.148 . S
Co165 N175 2.128 . S
Co165 N185 2.194 . S
Co165 O190 2.351 . S
Co165 O191 2.155 . S
Co165 O192 2.096 . S
C166 N169 1.301 . S
C166 N170 1.328 . S
C166 H171 0.930 . S
C167 C168 1.333 . S
C167 N169 1.317 1_545 S
C167 H172 0.930 . S
C168 C167 1.333 . S
C168 N170 1.350 1_545 S
C168 H194 0.931 . S
N169 Co165 2.148 . S
N169 C166 1.301 . S
N169 C167 1.317 1_565 S
N170 C166 1.328 . S
N170 C168 1.350 1_565 S
H171 C166 0.930 . S
H172 C167 0.930 . S
C173 O174 1.224 . S
C173 O192 1.247 . S
O174 C173 1.224 . S
N175 Co165 2.128 . S
N175 C176 1.355 . S
N175 C178 1.311 . S
C176 N175 1.355 . S
C176 C177 1.363 . S
C176 H188 0.929 . S
C177 C176 1.363 . S
C177 N179 1.375 . S
C177 H195 0.931 . S
C178 N175 1.311 . S
C178 N179 1.347 . S
C178 H189 0.929 . S
N179 C177 1.375 . S
N179 C178 1.347 . S
C180 C183 1.365 . S
C180 N185 1.328 . S
C180 H186 0.929 . S
C181 C182 1.362 . S
C181 C184 1.378 . S
C181 H196 0.929 . S
C182 C181 1.362 . S
C182 C183 1.366 . S
C183 C180 1.365 . S
C183 C182 1.366 . S
C183 H197 0.930 . S
C184 C181 1.378 . S
C184 N185 1.315 . S
C184 H187 0.930 . S
N185 Co165 2.194 . S
N185 C180 1.328 . S
N185 C184 1.315 . S
H186 C180 0.929 . S
H187 C184 0.930 . S
H188 C176 0.929 . S
H189 C178 0.929 . S
O190 Co165 2.351 . S
O190 C193 1.244 . S
O191 Co165 2.155 . S
O191 C193 1.240 . S
O192 Co165 2.096 . S
O192 C173 1.247 . S
C193 O190 1.244 . S
C193 O191 1.240 . S
H194 C168 0.931 . S
H195 C177 0.931 . S
H196 C181 0.929 . S
H197 C183 0.930 . S
Co198 N202 2.148 . S
Co198 N208 2.128 . S
Co198 N218 2.194 . S
Co198 O223 2.351 . S
Co198 O224 2.155 . S
Co198 O225 2.096 . S
C199 N202 1.301 . S
C199 N203 1.328 . S
C199 H204 0.930 . S
C200 C201 1.333 . S
C200 N202 1.317 1_655 S
C200 H205 0.930 . S
C201 C200 1.333 . S
C201 N203 1.350 1_655 S
C201 H227 0.931 . S
N202 Co198 2.148 . S
N202 C199 1.301 . S
N202 C200 1.317 1_455 S
N203 C199 1.328 . S
N203 C201 1.350 1_455 S
H204 C199 0.930 . S
H205 C200 0.930 . S
C206 O207 1.224 . S
C206 O225 1.247 . S
O207 C206 1.224 . S
N208 Co198 2.128 . S
N208 C209 1.355 . S
N208 C211 1.311 . S
C209 N208 1.355 . S
C209 C210 1.363 . S
C209 H221 0.929 . S
C210 C209 1.363 . S
C210 N212 1.375 . S
C210 H228 0.931 . S
C211 N208 1.311 . S
C211 N212 1.347 . S
C211 H222 0.929 . S
N212 C210 1.375 . S
N212 C211 1.347 . S
C213 C216 1.365 . S
C213 N218 1.328 . S
C213 H219 0.929 . S
C214 C215 1.362 . S
C214 C217 1.378 . S
C214 H229 0.929 . S
C215 C214 1.362 . S
C215 C216 1.366 . S
C216 C213 1.365 . S
C216 C215 1.366 . S
C216 H230 0.930 . S
C217 C214 1.378 . S
C217 N218 1.315 . S
C217 H220 0.930 . S
N218 Co198 2.194 . S
N218 C213 1.328 . S
N218 C217 1.315 . S
H219 C213 0.929 . S
H220 C217 0.930 . S
H221 C209 0.929 . S
H222 C211 0.929 . S
O223 Co198 2.351 . S
O223 C226 1.244 . S
O224 Co198 2.155 . S
O224 C226 1.240 . S
O225 Co198 2.096 . S
O225 C206 1.247 . S
C226 O223 1.244 . S
C226 O224 1.240 . S
H227 C201 0.931 . S
H228 C210 0.931 . S
H229 C214 0.929 . S
H230 C216 0.930 . S
Co231 N235 2.148 . S
Co231 N241 2.128 . S
Co231 N251 2.194 . S
Co231 O256 2.351 . S
Co231 O257 2.155 . S
Co231 O258 2.096 . S
C232 N235 1.301 . S
C232 N236 1.328 . S
C232 H237 0.930 . S
C233 C234 1.333 . S
C233 N235 1.317 1_565 S
C233 H238 0.930 . S
C234 C233 1.333 . S
C234 N236 1.350 1_565 S
C234 H260 0.931 . S
N235 Co231 2.148 . S
N235 C232 1.301 . S
N235 C233 1.317 1_545 S
N236 C232 1.328 . S
N236 C234 1.350 1_545 S
H237 C232 0.930 . S
H238 C233 0.930 . S
C239 O240 1.224 . S
C239 O258 1.247 . S
O240 C239 1.224 . S
N241 Co231 2.128 . S
N241 C242 1.355 . S
N241 C244 1.311 . S
C242 N241 1.355 . S
C242 C243 1.363 . S
C242 H254 0.929 . S
C243 C242 1.363 . S
C243 N245 1.375 . S
C243 H261 0.931 . S
C244 N241 1.311 . S
C244 N245 1.347 . S
C244 H255 0.929 . S
N245 C243 1.375 . S
N245 C244 1.347 . S
C246 C249 1.365 . S
C246 N251 1.328 . S
C246 H252 0.929 . S
C247 C248 1.362 . S
C247 C250 1.378 . S
C247 H262 0.929 . S
C248 C247 1.362 . S
C248 C249 1.366 . S
C249 C246 1.365 . S
C249 C248 1.366 . S
C249 H263 0.930 . S
C250 C247 1.378 . S
C250 N251 1.315 . S
C250 H253 0.930 . S
N251 Co231 2.194 . S
N251 C246 1.328 . S
N251 C250 1.315 . S
H252 C246 0.929 . S
H253 C250 0.930 . S
H254 C242 0.929 . S
H255 C244 0.929 . S
O256 Co231 2.351 . S
O256 C259 1.244 . S
O257 Co231 2.155 . S
O257 C259 1.240 . S
O258 Co231 2.096 . S
O258 C239 1.247 . S
C259 O256 1.244 . S
C259 O257 1.240 . S
H260 C234 0.931 . S
H261 C243 0.931 . S
H262 C247 0.929 . S
H263 C249 0.930 . S
C264 C265 1.363 . S
C264 C270 1.379 1_565 S
C264 N272 1.356 1_554 S
C265 C264 1.363 . S
C265 C271 1.363 . S
C266 C267 1.363 . S
C266 C271 1.379 1_545 S
C266 N273 1.356 . S
C267 C266 1.363 . S
C267 C270 1.363 . S
N268 C270 1.356 1_556 S
N268 H280 0.984 . S
N268 H281 0.985 . S
N269 C271 1.356 . S
N269 H274 0.984 . S
N269 H275 0.985 . S
C270 C264 1.379 1_545 S
C270 C267 1.363 . S
C270 N268 1.356 1_554 S
C271 C265 1.363 . S
C271 C266 1.379 1_565 S
C271 N269 1.356 . S
N272 C264 1.356 1_556 S
N272 H278 0.984 . S
N272 H279 0.984 . S
N273 C266 1.356 . S
N273 H276 0.984 . S
N273 H277 0.985 . S
H274 N269 0.984 . S
H275 N269 0.985 . S
H276 N273 0.984 . S
H277 N273 0.985 . S
H278 N272 0.984 . S
H279 N272 0.984 . S
H280 N268 0.984 . S
H281 N268 0.985 . S
C282 C283 1.363 . S
C282 C288 1.379 1_655 S
C282 N290 1.356 1_554 S
C283 C282 1.363 . S
C283 C289 1.363 . S
C284 C285 1.363 . S
C284 C289 1.379 1_455 S
C284 N291 1.356 . S
C285 C284 1.363 . S
C285 C288 1.363 . S
N286 C288 1.356 1_556 S
N286 H298 0.984 . S
N286 H299 0.985 . S
N287 C289 1.356 . S
N287 H292 0.984 . S
N287 H293 0.985 . S
C288 C282 1.379 1_455 S
C288 C285 1.363 . S
C288 N286 1.356 1_554 S
C289 C283 1.363 . S
C289 C284 1.379 1_655 S
C289 N287 1.356 . S
N290 C282 1.356 1_556 S
N290 H296 0.984 . S
N290 H297 0.984 . S
N291 C284 1.356 . S
N291 H294 0.984 . S
N291 H295 0.985 . S
H292 N287 0.984 . S
H293 N287 0.985 . S
H294 N291 0.984 . S
H295 N291 0.985 . S
H296 N290 0.984 . S
H297 N290 0.984 . S
H298 N286 0.984 . S
H299 N286 0.985 . S
C300 C301 1.363 . S
C300 C306 1.379 . S
C300 N308 1.356 . S
C301 C300 1.363 . S
C301 C307 1.363 1_655 S
C302 C303 1.363 . S
C302 C307 1.379 . S
C302 N309 1.356 . S
C303 C302 1.363 . S
C303 C306 1.363 1_455 S
N304 C306 1.356 . S
N304 H316 0.984 . S
N304 H317 0.985 . S
N305 C307 1.356 . S
N305 H310 0.984 . S
N305 H311 0.985 . S
C306 C300 1.379 . S
C306 C303 1.363 1_655 S
C306 N304 1.356 . S
C307 C301 1.363 1_455 S
C307 C302 1.379 . S
C307 N305 1.356 . S
N308 C300 1.356 . S
N308 H314 0.984 . S
N308 H315 0.984 . S
N309 C302 1.356 . S
N309 H312 0.984 . S
N309 H313 0.985 . S
H310 N305 0.984 . S
H311 N305 0.985 . S
H312 N309 0.984 . S
H313 N309 0.985 . S
H314 N308 0.984 . S
H315 N308 0.984 . S
H316 N304 0.984 . S
H317 N304 0.985 . S
C318 C319 1.363 1_545 S
C318 C324 1.379 . S
C318 N326 1.356 . S
C319 C318 1.363 1_565 S
C319 C325 1.363 . S
C320 C321 1.363 1_565 S
C320 C325 1.379 . S
C320 N327 1.356 . S
C321 C320 1.363 1_545 S
C321 C324 1.363 . S
N322 C324 1.356 . S
N322 H334 0.984 . S
N322 H335 0.985 . S
N323 C325 1.356 . S
N323 H328 0.984 . S
N323 H329 0.985 . S
C324 C318 1.379 . S
C324 C321 1.363 . S
C324 N322 1.356 . S
C325 C319 1.363 . S
C325 C320 1.379 . S
C325 N323 1.356 . S
N326 C318 1.356 . S
N326 H332 0.984 . S
N326 H333 0.984 . S
N327 C320 1.356 . S
N327 H330 0.984 . S
N327 H331 0.985 . S
H328 N323 0.984 . S
H329 N323 0.985 . S
H330 N327 0.984 . S
H331 N327 0.985 . S
H332 N326 0.984 . S
H333 N326 0.984 . S
H334 N322 0.984 . S
H335 N322 0.985 . S
C336 C337 1.363 . S
C336 C342 1.379 . S
C336 N344 1.356 1_554 S
C337 C336 1.363 . S
C337 C343 1.363 . S
C338 C339 1.363 . S
C338 C343 1.379 . S
C338 N345 1.356 . S
C339 C338 1.363 . S
C339 C342 1.363 . S
N340 C342 1.356 1_556 S
N340 H352 0.984 . S
N340 H353 0.985 . S
N341 C343 1.356 . S
N341 H346 0.984 . S
N341 H347 0.985 . S
C342 C336 1.379 . S
C342 C339 1.363 . S
C342 N340 1.356 1_554 S
C343 C337 1.363 . S
C343 C338 1.379 . S
C343 N341 1.356 . S
N344 C336 1.356 1_556 S
N344 H350 0.984 . S
N344 H351 0.984 . S
N345 C338 1.356 . S
N345 H348 0.984 . S
N345 H349 0.985 . S
H346 N341 0.984 . S
H347 N341 0.985 . S
H348 N345 0.984 . S
H349 N345 0.985 . S
H350 N344 0.984 . S
H351 N344 0.984 . S
H352 N340 0.984 . S
H353 N340 0.985 . S
C354 C355 1.363 . S
C354 C360 1.379 . S
C354 N362 1.356 1_554 S
C355 C354 1.363 . S
C355 C361 1.363 . S
C356 C357 1.363 . S
C356 C361 1.379 . S
C356 N363 1.356 . S
C357 C356 1.363 . S
C357 C360 1.363 . S
N358 C360 1.356 1_556 S
N358 H370 0.984 . S
N358 H371 0.985 . S
N359 C361 1.356 . S
N359 H364 0.984 . S
N359 H365 0.985 . S
C360 C354 1.379 . S
C360 C357 1.363 . S
C360 N358 1.356 1_554 S
C361 C355 1.363 . S
C361 C356 1.379 . S
C361 N359 1.356 . S
N362 C354 1.356 1_556 S
N362 H368 0.984 . S
N362 H369 0.984 . S
N363 C356 1.356 . S
N363 H366 0.984 . S
N363 H367 0.985 . S
H364 N359 0.984 . S
H365 N359 0.985 . S
H366 N363 0.984 . S
H367 N363 0.985 . S
H368 N362 0.984 . S
H369 N362 0.984 . S
H370 N358 0.984 . S
H371 N358 0.985 . S
C372 C373 1.363 . S
C372 C378 1.379 . S
C372 N380 1.356 1_554 S
C373 C372 1.363 . S
C373 C379 1.363 . S
C374 C375 1.363 . S
C374 C379 1.379 . S
C374 N381 1.356 . S
C375 C374 1.363 . S
C375 C378 1.363 . S
N376 C378 1.356 1_556 S
N376 H388 0.984 . S
N376 H389 0.985 . S
N377 C379 1.356 . S
N377 H382 0.984 . S
N377 H383 0.985 . S
C378 C372 1.379 . S
C378 C375 1.363 . S
C378 N376 1.356 1_554 S
C379 C373 1.363 . S
C379 C374 1.379 . S
C379 N377 1.356 . S
N380 C372 1.356 1_556 S
N380 H386 0.984 . S
N380 H387 0.984 . S
N381 C374 1.356 . S
N381 H384 0.984 . S
N381 H385 0.985 . S
H382 N377 0.984 . S
H383 N377 0.985 . S
H384 N381 0.984 . S
H385 N381 0.985 . S
H386 N380 0.984 . S
H387 N380 0.984 . S
H388 N376 0.984 . S
H389 N376 0.985 . S
C390 C391 1.363 . S
C390 C396 1.379 . S
C390 N398 1.356 . S
C391 C390 1.363 . S
C391 C397 1.363 . S
C392 C393 1.363 . S
C392 C397 1.379 . S
C392 N399 1.356 1_554 S
C393 C392 1.363 . S
C393 C396 1.363 . S
N394 C396 1.356 . S
N394 H406 0.984 . S
N394 H407 0.985 . S
N395 C397 1.356 1_556 S
N395 H400 0.984 . S
N395 H401 0.985 . S
C396 C390 1.379 . S
C396 C393 1.363 . S
C396 N394 1.356 . S
C397 C391 1.363 . S
C397 C392 1.379 . S
C397 N395 1.356 1_554 S
N398 C390 1.356 . S
N398 H404 0.984 . S
N398 H405 0.984 . S
N399 C392 1.356 1_556 S
N399 H402 0.984 . S
N399 H403 0.985 . S
H400 N395 0.984 . S
H401 N395 0.985 . S
H402 N399 0.984 . S
H403 N399 0.985 . S
H404 N398 0.984 . S
H405 N398 0.984 . S
H406 N394 0.984 . S
H407 N394 0.985 . S
C408 C409 1.363 . S
C408 C414 1.379 . S
C408 N416 1.356 . S
C409 C408 1.363 . S
C409 C415 1.363 . S
C410 C411 1.363 . S
C410 C415 1.379 . S
C410 N417 1.356 . S
C411 C410 1.363 . S
C411 C414 1.363 . S
N412 C414 1.356 . S
N412 H424 0.984 . S
N412 H425 0.985 . S
N413 C415 1.356 . S
N413 H418 0.984 1_545 S
N413 H419 0.985 . S
C414 C408 1.379 . S
C414 C411 1.363 . S
C414 N412 1.356 . S
C415 C409 1.363 . S
C415 C410 1.379 . S
C415 N413 1.356 . S
N416 C408 1.356 . S
N416 H422 0.984 . S
N416 H423 0.984 . S
N417 C410 1.356 . S
N417 H420 0.984 . S
N417 H421 0.985 . S
H418 N413 0.984 1_565 S
H419 N413 0.985 . S
H420 N417 0.984 . S
H421 N417 0.985 . S
H422 N416 0.984 . S
H423 N416 0.984 . S
H424 N412 0.984 . S
H425 N412 0.985 . S
C426 C427 1.363 . S
C426 C432 1.379 . S
C426 N434 1.356 . S
C427 C426 1.363 . S
C427 C433 1.363 . S
C428 C429 1.363 . S
C428 C433 1.379 . S
C428 N435 1.356 . S
C429 C428 1.363 . S
C429 C432 1.363 . S
N430 C432 1.356 . S
N430 H442 0.984 . S
N430 H443 0.985 . S
N431 C433 1.356 . S
N431 H436 0.984 1_655 S
N431 H437 0.985 . S
C432 C426 1.379 . S
C432 C429 1.363 . S
C432 N430 1.356 . S
C433 C427 1.363 . S
C433 C428 1.379 . S
C433 N431 1.356 . S
N434 C426 1.356 . S
N434 H440 0.984 . S
N434 H441 0.984 . S
N435 C428 1.356 . S
N435 H438 0.984 . S
N435 H439 0.985 . S
H436 N431 0.984 1_455 S
H437 N431 0.985 . S
H438 N435 0.984 . S
H439 N435 0.985 . S
H440 N434 0.984 . S
H441 N434 0.984 . S
H442 N430 0.984 . S
H443 N430 0.985 . S
C444 C445 1.363 . S
C444 C450 1.379 . S
C444 N452 1.356 . S
C445 C444 1.363 . S
C445 C451 1.363 . S
C446 C447 1.363 . S
C446 C451 1.379 . S
C446 N453 1.356 . S
C447 C446 1.363 . S
C447 C450 1.363 . S
N448 C450 1.356 . S
N448 H460 0.984 . S
N448 H461 0.985 . S
N449 C451 1.356 . S
N449 H454 0.984 1_565 S
N449 H455 0.985 . S
C450 C444 1.379 . S
C450 C447 1.363 . S
C450 N448 1.356 . S
C451 C445 1.363 . S
C451 C446 1.379 . S
C451 N449 1.356 . S
N452 C444 1.356 . S
N452 H458 0.984 . S
N452 H459 0.984 . S
N453 C446 1.356 . S
N453 H456 0.984 . S
N453 H457 0.985 . S
H454 N449 0.984 1_545 S
H455 N449 0.985 . S
H456 N453 0.984 . S
H457 N453 0.985 . S
H458 N452 0.984 . S
H459 N452 0.984 . S
H460 N448 0.984 . S
H461 N448 0.985 . S
C462 C463 1.363 . S
C462 C468 1.379 . S
C462 N470 1.356 . S
C463 C462 1.363 . S
C463 C469 1.363 . S
C464 C465 1.363 . S
C464 C469 1.379 . S
C464 N471 1.356 . S
C465 C464 1.363 . S
C465 C468 1.363 . S
N466 C468 1.356 . S
N466 H478 0.984 . S
N466 H479 0.985 . S
N467 C469 1.356 . S
N467 H472 0.984 . S
N467 H473 0.985 . S
C468 C462 1.379 . S
C468 C465 1.363 . S
C468 N466 1.356 . S
C469 C463 1.363 . S
C469 C464 1.379 . S
C469 N467 1.356 . S
N470 C462 1.356 . S
N470 H476 0.984 . S
N470 H477 0.984 . S
N471 C464 1.356 . S
N471 H474 0.984 . S
N471 H475 0.985 . S
H472 N467 0.984 . S
H473 N467 0.985 . S
H474 N471 0.984 . S
H475 N471 0.985 . S
H476 N470 0.984 . S
H477 N470 0.984 . S
H478 N466 0.984 . S
H479 N466 0.985 . S
C480 C481 1.363 . S
C480 C486 1.379 . S
C480 N488 1.356 . S
C481 C480 1.363 . S
C481 C487 1.363 . S
C482 C483 1.363 . S
C482 C487 1.379 . S
C482 N489 1.356 . S
C483 C482 1.363 . S
C483 C486 1.363 . S
N484 C486 1.356 . S
N484 H496 0.984 . S
N484 H497 0.985 . S
N485 C487 1.356 . S
N485 H490 0.984 . S
N485 H491 0.985 . S
C486 C480 1.379 . S
C486 C483 1.363 . S
C486 N484 1.356 . S
C487 C481 1.363 . S
C487 C482 1.379 . S
C487 N485 1.356 . S
N488 C480 1.356 . S
N488 H494 0.984 . S
N488 H495 0.984 . S
N489 C482 1.356 . S
N489 H492 0.984 . S
N489 H493 0.985 . S
H490 N485 0.984 . S
H491 N485 0.985 . S
H492 N489 0.984 . S
H493 N489 0.985 . S
H494 N488 0.984 . S
H495 N488 0.984 . S
H496 N484 0.984 . S
H497 N484 0.985 . S
C498 C499 1.363 . S
C498 C504 1.379 . S
C498 N506 1.356 . S
C499 C498 1.363 . S
C499 C505 1.363 . S
C500 C501 1.363 . S
C500 C505 1.379 . S
C500 N507 1.356 . S
C501 C500 1.363 . S
C501 C504 1.363 . S
N502 C504 1.356 . S
N502 H514 0.984 . S
N502 H515 0.985 . S
N503 C505 1.356 . S
N503 H508 0.984 . S
N503 H509 0.985 . S
C504 C498 1.379 . S
C504 C501 1.363 . S
C504 N502 1.356 . S
C505 C499 1.363 . S
C505 C500 1.379 . S
C505 N503 1.356 . S
N506 C498 1.356 . S
N506 H512 0.984 . S
N506 H513 0.984 . S
N507 C500 1.356 . S
N507 H510 0.984 . S
N507 H511 0.985 . S
H508 N503 0.984 . S
H509 N503 0.985 . S
H510 N507 0.984 . S
H511 N507 0.985 . S
H512 N506 0.984 . S
H513 N506 0.984 . S
H514 N502 0.984 . S
H515 N502 0.985 . S
C516 C517 1.363 . S
C516 C522 1.379 . S
C516 N524 1.356 . S
C517 C516 1.363 . S
C517 C523 1.363 . S
C518 C519 1.363 . S
C518 C523 1.379 . S
C518 N525 1.356 . S
C519 C518 1.363 . S
C519 C522 1.363 . S
N520 C522 1.356 . S
N520 H532 0.984 . S
N520 H533 0.985 . S
N521 C523 1.356 . S
N521 H526 0.984 . S
N521 H527 0.985 . S
C522 C516 1.379 . S
C522 C519 1.363 . S
C522 N520 1.356 . S
C523 C517 1.363 . S
C523 C518 1.379 . S
C523 N521 1.356 . S
N524 C516 1.356 . S
N524 H530 0.984 . S
N524 H531 0.984 . S
N525 C518 1.356 . S
N525 H528 0.984 . S
N525 H529 0.985 . S
H526 N521 0.984 . S
H527 N521 0.985 . S
H528 N525 0.984 . S
H529 N525 0.985 . S
H530 N524 0.984 . S
H531 N524 0.984 . S
H532 N520 0.984 . S
H533 N520 0.985 . S
C534 C535 1.363 . S
C534 C540 1.379 . S
C534 N542 1.356 . S
C535 C534 1.363 . S
C535 C541 1.363 . S
C536 C537 1.363 . S
C536 C541 1.379 . S
C536 N543 1.356 . S
C537 C536 1.363 . S
C537 C540 1.363 . S
N538 C540 1.356 . S
N538 H550 0.984 . S
N538 H551 0.985 . S
N539 C541 1.356 . S
N539 H544 0.984 . S
N539 H545 0.985 . S
C540 C534 1.379 . S
C540 C537 1.363 . S
C540 N538 1.356 . S
C541 C535 1.363 . S
C541 C536 1.379 . S
C541 N539 1.356 . S
N542 C534 1.356 . S
N542 H548 0.984 . S
N542 H549 0.984 . S
N543 C536 1.356 . S
N543 H546 0.984 . S
N543 H547 0.985 . S
H544 N539 0.984 . S
H545 N539 0.985 . S
H546 N543 0.984 . S
H547 N543 0.985 . S
H548 N542 0.984 . S
H549 N542 0.984 . S
H550 N538 0.984 . S
H551 N538 0.985 . S
C552 C553 1.363 . S
C552 C558 1.379 . S
C552 N560 1.356 . S
C553 C552 1.363 . S
C553 C559 1.363 . S
C554 C555 1.363 . S
C554 C559 1.379 . S
C554 N561 1.356 . S
C555 C554 1.363 . S
C555 C558 1.363 . S
N556 C558 1.356 . S
N556 H568 0.984 . S
N556 H569 0.985 . S
N557 C559 1.356 . S
N557 H562 0.984 . S
N557 H563 0.985 . S
C558 C552 1.379 . S
C558 C555 1.363 . S
C558 N556 1.356 . S
C559 C553 1.363 . S
C559 C554 1.379 . S
C559 N557 1.356 . S
N560 C552 1.356 . S
N560 H566 0.984 . S
N560 H567 0.984 . S
N561 C554 1.356 . S
N561 H564 0.984 . S
N561 H565 0.985 . S
H562 N557 0.984 . S
H563 N557 0.985 . S
H564 N561 0.984 . S
H565 N561 0.985 . S
H566 N560 0.984 . S
H567 N560 0.984 . S
H568 N556 0.984 . S
H569 N556 0.985 . S
C570 C571 1.363 . S
C570 C576 1.379 . S
C570 N578 1.356 . S
C571 C570 1.363 . S
C571 C577 1.363 . S
C572 C573 1.363 . S
C572 C577 1.379 . S
C572 N579 1.356 . S
C573 C572 1.363 . S
C573 C576 1.363 . S
N574 C576 1.356 . S
N574 H586 0.984 . S
N574 H587 0.985 . S
N575 C577 1.356 . S
N575 H580 0.984 . S
N575 H581 0.985 . S
C576 C570 1.379 . S
C576 C573 1.363 . S
C576 N574 1.356 . S
C577 C571 1.363 . S
C577 C572 1.379 . S
C577 N575 1.356 . S
N578 C570 1.356 . S
N578 H584 0.984 . S
N578 H585 0.984 . S
N579 C572 1.356 . S
N579 H582 0.984 . S
N579 H583 0.985 . S
H580 N575 0.984 . S
H581 N575 0.985 . S
H582 N579 0.984 . S
H583 N579 0.985 . S
H584 N578 0.984 . S
H585 N578 0.984 . S
H586 N574 0.984 . S
H587 N574 0.985 . S
C588 C589 1.363 . S
C588 C594 1.379 . S
C588 N596 1.356 . S
C589 C588 1.363 . S
C589 C595 1.363 . S
C590 C591 1.363 . S
C590 C595 1.379 . S
C590 N597 1.356 . S
C591 C590 1.363 . S
C591 C594 1.363 . S
N592 C594 1.356 . S
N592 H604 0.984 . S
N592 H605 0.985 . S
N593 C595 1.356 . S
N593 H598 0.984 . S
N593 H599 0.985 . S
C594 C588 1.379 . S
C594 C591 1.363 . S
C594 N592 1.356 . S
C595 C589 1.363 . S
C595 C590 1.379 . S
C595 N593 1.356 . S
N596 C588 1.356 . S
N596 H602 0.984 . S
N596 H603 0.984 . S
N597 C590 1.356 . S
N597 H600 0.984 . S
N597 H601 0.985 . S
H598 N593 0.984 . S
H599 N593 0.985 . S
H600 N597 0.984 . S
H601 N597 0.985 . S
H602 N596 0.984 . S
H603 N596 0.984 . S
H604 N592 0.984 . S
H605 N592 0.985 . S
C606 C607 1.363 . S
C606 C612 1.379 . S
C606 N614 1.356 . S
C607 C606 1.363 . S
C607 C613 1.363 . S
C608 C609 1.363 . S
C608 C613 1.379 . S
C608 N615 1.356 . S
C609 C608 1.363 . S
C609 C612 1.363 . S
N610 C612 1.356 . S
N610 H622 0.984 . S
N610 H623 0.985 . S
N611 C613 1.356 . S
N611 H616 0.984 . S
N611 H617 0.985 . S
C612 C606 1.379 . S
C612 C609 1.363 . S
C612 N610 1.356 . S
C613 C607 1.363 . S
C613 C608 1.379 . S
C613 N611 1.356 . S
N614 C606 1.356 . S
N614 H620 0.984 . S
N614 H621 0.984 . S
N615 C608 1.356 . S
N615 H618 0.984 . S
N615 H619 0.985 . S
H616 N611 0.984 . S
H617 N611 0.985 . S
H618 N615 0.984 . S
H619 N615 0.985 . S
H620 N614 0.984 . S
H621 N614 0.984 . S
H622 N610 0.984 . S
H623 N610 0.985 . S
C265 N71 1.551 . S
C267 N5 1.551 . S
C283 N38 1.551 . S
C285 N104 1.551 . S
C301 N137 1.551 . S
C303 N203 1.551 . S
C319 N170 1.551 . S
C321 N236 1.551 . S
C337 C107 1.596 . S
C339 N14 1.530 . S
C355 C8 1.596 . S
C357 N47 1.530 . S
C373 N80 1.530 . S
C375 C41 1.596 . S
C391 N113 1.530 . S
C393 C74 1.596 . S
C409 C173 1.596 1_545 S
C411 N146 1.530 . S
C427 C206 1.596 1_655 S
C429 N179 1.530 . S
C445 C239 1.596 1_565 S
C447 N212 1.530 . S
C463 C140 1.596 1_455 S
C465 N245 1.530 . S
C481 C28 1.405 . S
C483 C259 1.405 . S
C499 C61 1.405 . S
C501 C160 1.405 . S
C517 C193 1.405 . S
C519 C94 1.405 . S
C535 C226 1.405 . S
C537 C127 1.405 . S
C553 C83 1.489 . S
C555 C182 1.489 . S
C571 C215 1.489 . S
C573 C116 1.489 . S
C589 C248 1.489 . S
C591 C17 1.489 . S
C607 C149 1.489 . S
C609 C50 1.489 . S
