# Generated by pormake.
# Topology unw, (4)-cn, num edge types: 1
# Building blocks:
#     Node 0, Type 0, BuildingBlock: ESEHIV_clean_sbu_0, # of connection points: 4
#     Node 1, Type 0, BuildingBlock: ESEHIV_clean_sbu_0, # of connection points: 4
#     Node 2, Type 0, BuildingBlock: ESEHIV_clean_sbu_0, # of connection points: 4
#     Node 3, Type 0, BuildingBlock: ESEHIV_clean_sbu_0, # of connection points: 4
#     Node 4, Type 0, BuildingBlock: ESEHIV_clean_sbu_0, # of connection points: 4
#     Node 5, Type 0, BuildingBlock: ESEHIV_clean_sbu_0, # of connection points: 4
#     Node 6, Type 0, BuildingBlock: ESEHIV_clean_sbu_0, # of connection points: 4
#     Node 7, Type 0, BuildingBlock: ESEHIV_clean_sbu_0, # of connection points: 4
#     Node 8, Type 0, BuildingBlock: ESEHIV_clean_sbu_0, # of connection points: 4
#     Node 9, Type 0, BuildingBlock: ESEHIV_clean_sbu_0, # of connection points: 4
#     Node 10, Type 0, BuildingBlock: ESEHIV_clean_sbu_0, # of connection points: 4
#     Node 11, Type 0, BuildingBlock: ESEHIV_clean_sbu_0, # of connection points: 4
#     Node 12, Type 0, BuildingBlock: ESEHIV_clean_sbu_0, # of connection points: 4
#     Node 13, Type 0, BuildingBlock: ESEHIV_clean_sbu_0, # of connection points: 4
#     Node 14, Type 0, BuildingBlock: ESEHIV_clean_sbu_0, # of connection points: 4
#     Node 15, Type 0, BuildingBlock: ESEHIV_clean_sbu_0, # of connection points: 4
#     Node 16, Type 0, BuildingBlock: ESEHIV_clean_sbu_0, # of connection points: 4
#     Node 17, Type 0, BuildingBlock: ESEHIV_clean_sbu_0, # of connection points: 4
#     Node 18, Type 0, BuildingBlock: ESEHIV_clean_sbu_0, # of connection points: 4
#     Node 19, Type 0, BuildingBlock: ESEHIV_clean_sbu_0, # of connection points: 4
#     Node 20, Type 0, BuildingBlock: ESEHIV_clean_sbu_0, # of connection points: 4
#     Node 21, Type 0, BuildingBlock: ESEHIV_clean_sbu_0, # of connection points: 4
#     Node 22, Type 0, BuildingBlock: ESEHIV_clean_sbu_0, # of connection points: 4
#     Node 23, Type 0, BuildingBlock: ESEHIV_clean_sbu_0, # of connection points: 4
#     Edge 24, Type (0, 0), None
#     Edge 25, Type (0, 0), None
#     Edge 26, Type (0, 0), None
#     Edge 27, Type (0, 0), None
#     Edge 28, Type (0, 0), None
#     Edge 29, Type (0, 0), None
#     Edge 30, Type (0, 0), None
#     Edge 31, Type (0, 0), None
#     Edge 32, Type (0, 0), None
#     Edge 33, Type (0, 0), None
#     Edge 34, Type (0, 0), None
#     Edge 35, Type (0, 0), None
#     Edge 36, Type (0, 0), None
#     Edge 37, Type (0, 0), None
#     Edge 38, Type (0, 0), None
#     Edge 39, Type (0, 0), None
#     Edge 40, Type (0, 0), None
#     Edge 41, Type (0, 0), None
#     Edge 42, Type (0, 0), None
#     Edge 43, Type (0, 0), None
#     Edge 44, Type (0, 0), None
#     Edge 45, Type (0, 0), None
#     Edge 46, Type (0, 0), None
#     Edge 47, Type (0, 0), None
#     Edge 48, Type (0, 0), None
#     Edge 49, Type (0, 0), None
#     Edge 50, Type (0, 0), None
#     Edge 51, Type (0, 0), None
#     Edge 52, Type (0, 0), None
#     Edge 53, Type (0, 0), None
#     Edge 54, Type (0, 0), None
#     Edge 55, Type (0, 0), None
#     Edge 56, Type (0, 0), None
#     Edge 57, Type (0, 0), None
#     Edge 58, Type (0, 0), None
#     Edge 59, Type (0, 0), None
#     Edge 60, Type (0, 0), None
#     Edge 61, Type (0, 0), None
#     Edge 62, Type (0, 0), None
#     Edge 63, Type (0, 0), None
#     Edge 64, Type (0, 0), None
#     Edge 65, Type (0, 0), None
#     Edge 66, Type (0, 0), None
#     Edge 67, Type (0, 0), None
#     Edge 68, Type (0, 0), None
#     Edge 69, Type (0, 0), None
#     Edge 70, Type (0, 0), None
#     Edge 71, Type (0, 0), None
# Relax obj value: 0.387
# Max RMSD: 0.226
# Mean RMSD: 0.210
data_MOF--net-unw--node1-ESEHIV_clean_sbu_0--edge1-none
_symmetry_space_group_name_H-M    P1
_symmetry_Int_Tables_number       1
_symmetry_cell_setting            triclinic
loop_
_symmetry_equiv_pos_as_xyz
'x, y, z'
_cell_length_a     23.01414
_cell_length_b     24.902455
_cell_length_c     23.695837
_cell_angle_alpha  92.670512
_cell_angle_beta   90.501536
_cell_angle_gamma 94.255096
loop_
_atom_site_label
_atom_site_type_symbol
_atom_site_fract_x
_atom_site_fract_y
_atom_site_fract_z
_atom_type_partial_charge
Cu0 Cu 0.19273 0.44421 0.36943 0.0
N1 N 0.17511 0.44647 0.44603 0.0
N2 N 0.16385 0.37285 0.49726 0.0
C3 C 0.13922 0.4039 0.46021 0.0
C4 C 0.21279 0.40263 0.51451 0.0
C5 C 0.21935 0.44794 0.48346 0.0
O6 O 0.13279 0.39199 0.33643 0.0
C7 C 0.28698 0.40998 0.31232 0.0
O8 O 0.2489 0.40923 0.27054 0.0
H9 H 0.10273 0.38845 0.434 0.0
H10 H 0.26004 0.47201 0.47917 0.0
N11 N 0.19919 0.50848 0.33193 0.0
N12 N 0.26202 0.56243 0.28465 0.0
C13 C 0.24836 0.54195 0.33511 0.0
C14 C 0.18016 0.51003 0.27814 0.0
C15 C 0.21891 0.54278 0.24885 0.0
C16 C 0.13912 0.3416 0.33644 0.0
O17 O 0.19125 0.32478 0.34332 0.0
H18 H 0.27768 0.5451 0.37131 0.0
H19 H 0.14542 0.48317 0.25944 0.0
O20 O 0.27036 0.42043 0.36222 0.0
H21 H 0.24687 0.38847 0.54005 0.0
H22 H 0.21675 0.54987 0.20415 0.0
Cu23 Cu 0.73026 0.18949 0.3574 0.0
N24 N 0.76693 0.20436 0.28988 0.0
N25 N 0.79002 0.24847 0.21259 0.0
C26 C 0.77216 0.25272 0.26651 0.0
C27 C 0.79682 0.19559 0.20181 0.0
C28 C 0.78212 0.1684 0.24959 0.0
O29 O 0.64684 0.19216 0.33667 0.0
C30 C 0.80559 0.26845 0.42887 0.0
O31 O 0.8093 0.30659 0.46919 0.0
H32 H 0.76177 0.28996 0.28818 0.0
H33 H 0.7804 0.12527 0.25402 0.0
N34 N 0.74247 0.11829 0.37884 0.0
N35 N 0.7767 0.04244 0.4101 0.0
C36 C 0.78788 0.09628 0.40405 0.0
C37 C 0.70215 0.07678 0.36906 0.0
C38 C 0.72287 0.03031 0.3881 0.0
C39 C 0.62207 0.23347 0.32062 0.0
O40 O 0.65055 0.2812 0.32519 0.0
H41 H 0.82794 0.1189 0.41744 0.0
H42 H 0.66032 0.0801 0.34888 0.0
O43 O 0.75539 0.24471 0.41657 0.0
H44 H 0.81095 0.17783 0.16213 0.0
H45 H 0.70012 0.99068 0.3853 0.0
Cu46 Cu 0.87761 0.62048 0.25113 0.0
N47 N 0.91458 0.62445 0.32183 0.0
N48 N 0.94296 0.68366 0.39257 0.0
C49 C 0.9499 0.66812 0.33806 0.0
C50 C 0.90475 0.6457 0.41268 0.0
C51 C 0.88756 0.60915 0.36917 0.0
O52 O 0.9077 0.68714 0.21575 0.0
C53 C 0.75642 0.62361 0.22934 0.0
O54 O 0.77206 0.62146 0.17608 0.0
H55 H 0.97123 0.69425 0.30838 0.0
H56 H 0.85 0.58037 0.36971 0.0
N57 N 0.89324 0.55741 0.20831 0.0
N58 N 0.88215 0.47913 0.1569 0.0
C59 C 0.855 0.52003 0.18238 0.0
C60 C 0.94616 0.53941 0.19874 0.0
C61 C 0.93953 0.49121 0.16723 0.0
C62 C 0.90016 0.73429 0.23734 0.0
O63 O 0.86182 0.73936 0.27754 0.0
H64 H 0.80821 0.52207 0.18325 0.0
H65 H 0.98677 0.55967 0.21427 0.0
O66 O 0.7952 0.62108 0.26731 0.0
H67 H 0.8829 0.64966 0.45277 0.0
H68 H 0.97421 0.46669 0.15355 0.0
Cu69 Cu 0.33975 0.92262 0.30797 0.0
N70 N 0.27288 0.92869 0.26195 0.0
N71 N 0.17582 0.92852 0.24892 0.0
C72 C 0.22192 0.9433 0.28347 0.0
C73 C 0.19862 0.90436 0.20295 0.0
C74 C 0.25844 0.90479 0.21094 0.0
O75 O 0.32838 0.97114 0.37573 0.0
C76 C 0.35166 0.81483 0.28279 0.0
O77 O 0.36559 0.8354 0.23433 0.0
H78 H 0.21773 0.95818 0.32677 0.0
H79 H 0.2882 0.88486 0.18346 0.0
N80 N 0.41252 0.9366 0.27099 0.0
N81 N 0.49652 0.91608 0.22947 0.0
C82 C 0.45963 0.90651 0.27277 0.0
C83 C 0.42146 0.9672 0.22609 0.0
C84 C 0.47285 0.95471 0.20052 0.0
C85 C 0.3146 1.01951 0.36921 0.0
O86 O 0.31627 0.03794 0.3181 0.0
H87 H 0.46339 0.87419 0.30125 0.0
H88 H 0.39023 0.99328 0.21007 0.0
O89 O 0.33676 0.84592 0.32372 0.0
H90 H 0.17368 0.88466 0.16789 0.0
H91 H 0.48924 0.97032 0.16142 0.0
Cu92 Cu 0.23562 0.61099 0.77204 0.0
N93 N 0.24368 0.63522 0.6987 0.0
N94 N 0.24558 0.71211 0.65341 0.0
C95 C 0.27211 0.68351 0.6915 0.0
C96 C 0.20088 0.67926 0.63197 0.0
C97 C 0.19983 0.63168 0.66012 0.0
O98 O 0.15119 0.61776 0.78463 0.0
C99 C 0.34251 0.66093 0.81123 0.0
O100 O 0.36318 0.62422 0.77693 0.0
H101 H 0.30532 0.70141 0.72031 0.0
H102 H 0.16389 0.60107 0.65927 0.0
N103 N 0.26239 0.54129 0.77993 0.0
N104 N 0.31212 0.47574 0.8151 0.0
C105 C 0.2841 0.52075 0.82726 0.0
C106 C 0.27708 0.50755 0.73712 0.0
C107 C 0.30768 0.46717 0.7586 0.0
C108 C 0.12855 0.66243 0.7759 0.0
O109 O 0.16328 0.70617 0.77055 0.0
H110 H 0.28268 0.54019 0.86898 0.0
H111 H 0.26895 0.51361 0.69293 0.0
O112 O 0.28745 0.661 0.81831 0.0
H113 H 0.16764 0.69095 0.60333 0.0
H114 H 0.32624 0.43477 0.73452 0.0
Cu115 Cu 0.2888 0.06063 0.80592 0.0
N116 N 0.24257 0.08995 0.75224 0.0
N117 N 0.16487 0.12414 0.71541 0.0
C118 C 0.1951 0.11686 0.76303 0.0
C119 C 0.19451 0.10146 0.6728 0.0
C120 C 0.24228 0.07975 0.69588 0.0
O121 O 0.2818 0.98334 0.7866 0.0
C122 C 0.25786 0.11439 0.91673 0.0
O123 O 0.23259 0.10717 0.96562 0.0
H124 H 0.18301 0.13101 0.80487 0.0
H125 H 0.27403 0.05728 0.6734 0.0
N126 N 0.36727 0.08862 0.8053 0.0
N127 N 0.44128 0.15138 0.79718 0.0
C128 C 0.39224 0.12699 0.77269 0.0
C129 C 0.40338 0.08719 0.85011 0.0
C130 C 0.44891 0.12574 0.8453 0.0
C131 C 0.23287 0.95986 0.77021 0.0
O132 O 0.18609 0.98696 0.77129 0.0
H133 H 0.37142 0.14083 0.73543 0.0
H134 H 0.39426 0.06329 0.8864 0.0
O135 O 0.25624 0.07406 0.88091 0.0
H136 H 0.18381 0.1024 0.62831 0.0
H137 H 0.48329 0.136 0.87631 0.0
Cu138 Cu 0.80258 0.40895 0.79211 0.0
N139 N 0.73105 0.40422 0.75177 0.0
N140 N 0.6351 0.3865 0.7344 0.0
C141 C 0.67995 0.38117 0.77038 0.0
C142 C 0.65876 0.41535 0.69227 0.0
C143 C 0.71787 0.42513 0.70238 0.0
O144 O 0.79104 0.45345 0.86272 0.0
C145 C 0.83721 0.3094 0.75286 0.0
O146 O 0.84038 0.33573 0.70613 0.0
H147 H 0.67464 0.36668 0.81216 0.0
H148 H 0.74847 0.44766 0.67655 0.0
N149 N 0.86878 0.4386 0.7542 0.0
N150 N 0.95862 0.439 0.71798 0.0
C151 C 0.92162 0.4181 0.75647 0.0
C152 C 0.87358 0.47533 0.71418 0.0
C153 C 0.92898 0.47559 0.69163 0.0
C154 C 0.76587 0.49763 0.86087 0.0
O155 O 0.74922 0.51333 0.81146 0.0
H156 H 0.9313 0.38585 0.78327 0.0
H157 H 0.83856 0.49837 0.70031 0.0
O158 O 0.81981 0.33308 0.79797 0.0
H159 H 0.63474 0.42938 0.65702 0.0
H160 H 0.94488 0.4988 0.65674 0.0
Cu161 Cu 0.72071 0.92982 0.85199 0.0
N162 N 0.69435 0.93136 0.92618 0.0
N163 N 0.67218 0.86586 0.98547 0.0
C164 C 0.65528 0.89125 0.93993 0.0
C165 C 0.71853 0.89715 1.00656 0.0
C166 C 0.7323 0.93724 0.9698 0.0
O167 O 0.66296 0.8842 0.80662 0.0
C168 C 0.81474 0.88767 0.80299 0.0
O169 O 0.78124 0.8929 0.75862 0.0
H170 H 0.62314 0.87289 0.91033 0.0
H171 H 0.77399 0.96026 0.96862 0.0
N172 N 0.73215 0.99703 0.82087 0.0
N173 N 0.78073 0.05974 0.77148 0.0
C174 C 0.78461 1.0226 0.81077 0.0
C175 C 0.69384 1.01948 0.78774 0.0
C176 C 0.72361 0.05833 0.75735 0.0
C177 C 0.65104 0.8339 0.81283 0.0
O178 O 0.6842 0.80787 0.84585 0.0
H179 H 0.82527 1.01074 0.82787 0.0
H180 H 0.64841 1.00544 0.78253 0.0
O181 O 0.79597 0.90046 0.85144 0.0
H182 H 0.74757 0.8853 0.03919 0.0
H183 H 0.70503 0.08191 0.72541 0.0
Cu184 Cu 0.2644 0.19924 0.48107 0.0
N185 N 0.19708 0.23566 0.46825 0.0
N186 N 0.16221 0.31631 0.48711 0.0
C187 C 0.2042 0.28933 0.46162 0.0
C188 C 0.12519 0.27873 0.50895 0.0
C189 C 0.14704 0.22887 0.49754 0.0
O190 O 0.27082 0.21279 0.56417 0.0
C191 C 0.31586 0.23228 0.37978 0.0
O192 O 0.26306 0.21928 0.35972 0.0
H193 H 0.24417 0.30912 0.44654 0.0
H194 H 0.13236 0.19185 0.51691 0.0
N195 N 0.2635 0.12379 0.4612 0.0
N196 N 0.29478 0.05092 0.41306 0.0
C197 C 0.27896 0.10213 0.41037 0.0
C198 C 0.2694 0.08397 0.49714 0.0
C199 C 0.28822 0.03906 0.46765 0.0
C200 C 0.26661 0.26043 0.58602 0.0
O201 O 0.28096 0.30182 0.55575 0.0
H202 H 0.28239 0.12439 0.37246 0.0
H203 H 0.26495 0.08858 0.54249 0.0
O204 O 0.32575 0.23105 0.43306 0.0
H205 H 0.08881 0.28712 0.53574 0.0
H206 H 0.29885 1.0017 0.48547 0.0
Cu207 Cu 0.97645 0.26162 0.36828 0.0
N208 N 0.95412 0.25561 0.29306 0.0
N209 N 0.96575 0.2675 0.20128 0.0
C210 C 0.97957 0.23769 0.24508 0.0
C211 C 0.93091 0.30441 0.22228 0.0
C212 C 0.92327 0.2965 0.278 0.0
O213 O 0.043 0.3149 0.3677 0.0
C214 C 0.85936 0.25463 0.39987 0.0
O215 O 0.85955 0.20991 0.36841 0.0
H216 H 1.01046 0.20698 0.24304 0.0
H217 H 0.90196 0.3231 0.30716 0.0
N218 N 0.99442 0.20151 0.40715 0.0
N219 N 0.99079 0.15457 0.48532 0.0
C220 C 0.989 0.20339 0.46362 0.0
C221 C 1.00099 0.1495 0.39216 0.0
C222 C 0.9991 0.12024 0.44075 0.0
C223 C 0.08808 0.30275 0.34015 0.0
O224 O 0.09165 0.25296 0.32051 0.0
H225 H 0.97919 0.23955 0.48759 0.0
H226 H 1.00257 0.13339 0.34906 0.0
O227 O 0.90678 0.28471 0.40677 0.0
H228 H 0.91335 0.33599 0.19918 0.0
H229 H 0.99922 0.07691 0.44243 0.0
Cu230 Cu 0.84256 0.85048 0.46867 0.0
N231 N 0.90422 0.81507 0.43688 0.0
N232 N 0.94275 0.73852 0.40961 0.0
C233 C 0.89612 0.76795 0.40662 0.0
C234 C 0.98187 0.76702 0.44356 0.0
C235 C 0.95773 0.81432 0.46063 0.0
O236 O 0.85216 0.83434 0.54914 0.0
C237 C 0.76939 0.82989 0.37501 0.0
O238 O 0.81616 0.85171 0.35116 0.0
H239 H 0.85432 0.75211 0.38941 0.0
H240 H 0.97485 0.84274 0.49364 0.0
N241 N 0.84546 0.92618 0.45809 0.0
N242 N 0.81347 1.00509 0.43271 0.0
C243 C 0.80024 0.9517 0.43784 0.0
C244 C 0.88865 0.96549 0.46689 0.0
C245 C 0.86903 1.01427 0.45121 0.0
C246 C 0.86382 0.78796 0.56611 0.0
O247 O 0.85645 0.74522 0.53153 0.0
H248 H 0.75832 0.9313 0.42692 0.0
H249 H 0.9314 0.95923 0.48345 0.0
O250 O 0.77072 0.82236 0.42815 0.0
H251 H 1.02207 0.75263 0.45883 0.0
H252 H 0.89354 0.05302 0.45303 0.0
Cu253 Cu 0.03793 0.84224 0.2899 0.0
N254 N 0.07935 0.7828 0.27841 0.0
N255 N 0.1348 0.72873 0.23013 0.0
C256 C 0.10826 0.77468 0.23045 0.0
C257 C 0.12232 0.70672 0.28011 0.0
C258 C 0.08739 0.74042 0.30997 0.0
O259 O 0.95722 0.81376 0.27105 0.0
C260 C 0.11881 0.92758 0.26477 0.0
O261 O 0.10632 0.95108 0.31342 0.0
H262 H 0.11118 0.80297 0.19723 0.0
H263 H 0.07025 0.73513 0.35185 0.0
N264 N 0.04754 0.86745 0.36571 0.0
N265 N 0.09452 0.89591 0.44574 0.0
C266 C 0.09355 0.86123 0.40019 0.0
C267 C 1.01891 0.90728 0.39069 0.0
C268 C 0.04827 0.92539 0.43978 0.0
C269 C 0.94641 0.77823 0.23063 0.0
O270 O 0.98604 0.77127 0.19204 0.0
H271 H 0.1284 0.83585 0.38947 0.0
H272 H 0.98214 0.92492 0.37208 0.0
O273 O 0.08086 0.89334 0.24128 0.0
H274 H 0.13906 0.67037 0.29496 0.0
H275 H 0.03835 0.95931 0.4673 0.0
Cu276 Cu 0.2414 0.87137 0.61712 0.0
N277 N 0.32313 0.88462 0.61576 0.0
N278 N 0.40211 0.88243 0.67122 0.0
C279 C 0.35287 0.90672 0.66152 0.0
C280 C 0.40697 0.84759 0.62648 0.0
C281 C 0.35863 0.8496 0.59188 0.0
O282 O 0.21444 0.91173 0.68378 0.0
C283 C 0.25594 0.76616 0.64889 0.0
O284 O 0.29855 0.79172 0.67871 0.0
H285 H 0.33431 0.9332 0.6925 0.0
H286 H 0.34517 0.81996 0.5586 0.0
N287 N 0.2048 0.89843 0.55445 0.0
N288 N 0.14111 0.90772 0.48455 0.0
C289 C 0.1682 0.87246 0.5154 0.0
C290 C 0.20014 0.95136 0.54764 0.0
C291 C 0.1607 0.95726 0.5047 0.0
C292 C 0.23248 0.91 0.73473 0.0
O293 O 0.26611 0.87241 0.74885 0.0
H294 H 0.15837 0.82923 0.51252 0.0
H295 H 0.22137 0.98342 0.57451 0.0
O296 O 0.22295 0.79333 0.61965 0.0
H297 H 0.43815 0.81715 0.62345 0.0
H298 H 0.14586 0.99479 0.49084 0.0
Cu299 Cu 0.14097 0.31477 0.70601 0.0
N300 N 0.10193 0.24718 0.70811 0.0
N301 N 0.12211 0.16127 0.71009 0.0
C302 C 0.12603 0.20981 0.7378 0.0
C303 C 0.09055 0.16724 0.66288 0.0
C304 C 0.07783 0.22044 0.66194 0.0
O305 O 0.19857 0.30727 0.6438 0.0
C306 C 0.17461 0.32523 0.82866 0.0
O307 O 0.12217 0.31036 0.84617 0.0
H308 H 0.15753 0.22054 0.77134 0.0
H309 H 0.06226 0.23979 0.62541 0.0
N310 N 0.08899 0.36866 0.69449 0.0
N311 N 1.01315 0.42014 0.70218 0.0
C312 C 0.03826 0.37667 0.72105 0.0
C313 C 0.09581 0.4084 0.65788 0.0
C314 C 0.04912 0.44015 0.6624 0.0
C315 C 0.23304 0.26884 0.63864 0.0
O316 O 0.23366 0.23294 0.67732 0.0
H317 H 1.02012 0.3509 0.75299 0.0
H318 H 0.1323 0.41384 0.6297 0.0
O319 O 0.18511 0.32979 0.77606 0.0
H320 H 0.08499 0.13781 0.62781 0.0
H321 H 0.04216 0.4749 0.63813 0.0
Cu322 Cu 0.85904 0.17059 0.66348 0.0
N323 N 0.8049 0.19516 0.61463 0.0
N324 N 0.71286 0.21661 0.61504 0.0
C325 C 0.74901 0.17698 0.61924 0.0
C326 C 0.74699 0.26074 0.60262 0.0
C327 C 0.80396 0.24718 0.60179 0.0
O328 O 0.81367 0.11693 0.70515 0.0
C329 C 0.84587 0.25156 0.74883 0.0
O330 O 0.80478 0.21799 0.76788 0.0
H331 H 0.73625 0.13934 0.63823 0.0
H332 H 0.84192 0.27556 0.60295 0.0
N333 N 0.91907 0.14555 0.6187 0.0
N334 N 0.97196 0.14135 0.54002 0.0
C335 C 0.94176 0.17279 0.57532 0.0
C336 C 0.9359 0.09504 0.61082 0.0
C337 C 0.96871 0.09229 0.5621 0.0
C338 C 0.82494 0.08969 0.74737 0.0
O339 O 0.8784 0.09127 0.76765 0.0
H340 H 0.93128 0.21332 0.56709 0.0
H341 H 0.9213 0.06154 0.6359 0.0
O342 O 0.88027 0.23499 0.71085 0.0
H343 H 0.73307 0.30136 0.60361 0.0
H344 H 0.98522 0.05642 0.54259 0.0
Cu345 Cu 0.91875 0.73586 0.7283 0.0
N346 N 0.92543 0.80558 0.76044 0.0
N347 N 0.86595 0.86459 0.79676 0.0
C348 C 0.87869 0.83351 0.75165 0.0
C349 C 0.90755 0.85812 0.83573 0.0
C350 C 0.94473 0.82177 0.81289 0.0
O351 O 0.89175 0.74018 0.64802 0.0
C352 C 0.8613 0.70414 0.82615 0.0
O353 O 0.91417 0.71149 0.84771 0.0
H354 H 0.84766 0.82282 0.71767 0.0
H355 H 0.97758 0.80265 0.83604 0.0
N356 N 0.98322 0.69359 0.74124 0.0
N357 N 0.06995 0.66394 0.76578 0.0
C358 C 0.04037 0.70736 0.75302 0.0
C359 C 0.97704 0.63984 0.74702 0.0
C360 C 1.02997 0.62154 0.76202 0.0
C361 C 0.89434 0.78399 0.6211 0.0
O362 O 0.92555 0.82669 0.64194 0.0
H363 H 0.05973 0.74833 0.75275 0.0
H364 H 0.93623 0.61557 0.74166 0.0
O365 O 0.85377 0.70646 0.77289 0.0
H366 H 0.90804 0.87446 0.87891 0.0
H367 H 0.03843 0.58012 0.76893 0.0
Cu368 Cu 0.4129 0.27738 0.23655 0.0
N369 N 0.40996 0.34856 0.26198 0.0
N370 N 0.34185 0.39625 0.30205 0.0
C371 C 0.35693 0.36702 0.25637 0.0
C372 C 0.38807 0.399 0.33757 0.0
C373 C 0.43052 0.36983 0.31235 0.0
O374 O 0.38806 0.26904 0.15398 0.0
C375 C 0.36308 0.24657 0.34025 0.0
O376 O 0.41489 0.26299 0.36062 0.0
H377 H 0.32504 0.34923 0.22582 0.0
H378 H 0.46881 0.35762 0.33358 0.0
N379 N 0.48299 0.24555 0.25481 0.0
N380 N 0.56779 0.2276 0.29587 0.0
C381 C 0.53432 0.26658 0.27816 0.0
C382 C 0.48482 0.1918 0.25786 0.0
C383 C 0.53656 0.18064 0.28295 0.0
C384 C 0.37395 0.30596 0.12086 0.0
O385 O 0.37996 0.35681 0.13832 0.0
H386 H 0.54589 0.30941 0.28409 0.0
H387 H 0.44941 0.16265 0.24505 0.0
O388 O 0.35391 0.24452 0.28664 0.0
H389 H 0.38903 0.41635 0.38036 0.0
H390 H 0.54985 0.14098 0.29159 0.0
Cu391 Cu 0.47861 0.77886 0.84475 0.0
N392 N 0.44947 0.83405 0.80343 0.0
N393 N 0.42406 0.87542 0.7261 0.0
C394 C 0.43593 0.82826 0.74782 0.0
C395 C 0.42836 0.91228 0.76971 0.0
C396 C 0.44511 0.88675 0.81734 0.0
O397 O 0.56385 0.78228 0.83502 0.0
C398 C 0.38113 0.70742 0.8319 0.0
O399 O 0.35874 0.74689 0.86097 0.0
H400 H 0.43533 0.79021 0.72375 0.0
H401 H 0.4546 0.90562 0.8587 0.0
N402 N 0.4641 0.78212 0.92301 0.0
N403 N 0.4434 0.75003 1.00789 0.0
C404 C 0.45674 0.73778 0.95371 0.0
C405 C 0.4558 0.82396 0.9595 0.0
C406 C 0.44279 0.80421 1.01204 0.0
C407 C 0.59109 0.8118 0.79953 0.0
O408 O 0.56173 0.83474 0.76086 0.0
H409 H 0.45938 0.69724 0.93597 0.0
H410 H 0.45795 0.86571 0.94866 0.0
O411 O 0.43482 0.71238 0.81804 0.0
H412 H 0.42017 0.95436 0.76723 0.0
H413 H 0.43274 0.82775 0.04976 0.0
Cu414 Cu 0.30679 0.31992 0.94992 0.0
N415 N 0.32048 0.24982 0.92218 0.0
N416 N 0.28616 0.16326 0.90714 0.0
C417 C 0.29298 0.20603 0.94451 0.0
C418 C 0.30837 0.18149 0.85882 0.0
C419 C 0.33178 0.23369 0.8686 0.0
O420 O 0.32513 0.32531 1.03348 0.0
C421 C 0.22625 0.32578 0.86565 0.0
O422 O 0.27585 0.32524 0.8392 0.0
H423 H 0.27323 0.20721 0.98583 0.0
H424 H 0.34898 0.25975 0.83657 0.0
N425 N 0.347 0.37834 0.91387 0.0
N426 N 0.3423 0.44467 0.85288 0.0
C427 C 0.31923 0.42207 0.8992 0.0
C428 C 0.39113 0.37532 0.87712 0.0
C429 C 0.38794 0.41573 0.83923 0.0
C430 C 0.35497 0.29291 0.06101 0.0
O431 O 0.37362 0.25003 1.03486 0.0
H432 H 0.27708 0.43096 0.91562 0.0
H433 H 0.41811 0.34163 0.87277 0.0
O434 O 0.22629 0.32443 0.9199 0.0
H435 H 0.30089 0.16197 0.8179 0.0
H436 H 0.41302 0.4196 0.80102 0.0
Cu437 Cu 0.58188 0.26608 0.79048 0.0
N438 N 0.61457 0.23282 0.72752 0.0
N439 N 0.66212 0.21747 0.6475 0.0
C440 C 0.65445 0.25279 0.69133 0.0
C441 C 0.6263 0.1736 0.65665 0.0
C442 C 0.59702 0.18323 0.70583 0.0
O443 O 0.51725 0.21511 0.81047 0.0
C444 C 0.57682 0.3767 0.7438 0.0
O445 O 0.54034 0.40907 0.72298 0.0
H446 H 0.68 0.29064 0.69861 0.0
H447 H 0.56635 0.15504 0.72526 0.0
N448 N 0.62835 0.27136 0.85627 0.0
N449 N 0.6998 0.28341 0.92082 0.0
C450 C 0.68634 0.28024 0.86507 0.0
C451 C 0.60533 0.26766 0.90824 0.0
C452 C 0.64928 0.27518 0.94822 0.0
C453 C 0.47462 0.1949 0.77966 0.0
O454 O 0.46547 0.21405 0.72987 0.0
H455 H 0.71762 0.28604 0.83172 0.0
H456 H 0.55921 0.26161 0.91648 0.0
O457 O 0.55499 0.3358 0.76968 0.0
H458 H 0.62498 0.13585 0.63193 0.0
H459 H 0.64429 0.27765 0.99362 0.0
Cu460 Cu 0.76254 0.68089 0.9748 0.0
N461 N 0.70363 0.72777 0.9693 0.0
N462 N 0.67022 0.80903 0.98455 0.0
C463 C 0.71741 0.78037 0.98155 0.0
C464 C 0.62444 0.77361 0.97095 0.0
C465 C 0.64518 0.72278 0.96265 0.0
O466 O 0.80071 0.70147 0.04813 0.0
C467 C 0.81166 0.6975 0.86457 0.0
O468 O 0.75809 0.69297 0.84449 0.0
H469 H 0.76178 0.79729 0.98803 0.0
H470 H 0.61957 0.68518 0.95327 0.0
N471 N 0.746 0.60531 0.96227 0.0
N472 N 0.75834 0.52971 0.90849 0.0
C473 C 0.74 0.58031 0.91025 0.0
C474 C 0.76714 0.56797 0.99481 0.0
C475 C 0.77441 0.52138 0.96203 0.0
C476 C 0.79086 0.72875 0.09412 0.0
O477 O 0.83467 0.7385 0.12977 0.0
H478 H 0.72836 0.6007 0.87304 0.0
H479 H 0.78291 0.57612 1.03773 0.0
O480 O 0.82105 0.69759 0.91774 0.0
H481 H 0.57989 0.7839 0.96658 0.0
H482 H 0.79425 0.48597 0.97563 0.0
Cu483 Cu 0.67238 0.77984 0.22227 0.0
N484 N 0.6454 0.70901 0.23932 0.0
N485 N 0.70382 0.64143 0.24384 0.0
C486 C 0.67266 0.6707 0.21014 0.0
C487 C 0.68637 0.65402 0.29655 0.0
C488 C 0.64876 0.69433 0.29327 0.0
O489 O 0.73161 0.77181 0.16135 0.0
C490 C 0.71744 0.81425 0.33919 0.0
O491 O 0.66614 0.80559 0.36208 0.0
H492 H 0.68003 0.67175 0.16572 0.0
H493 H 0.633 0.71686 0.32905 0.0
N494 N 0.61292 0.82644 0.20535 0.0
N495 N 0.54174 0.88408 0.20984 0.0
C496 C 0.57294 0.84977 0.23876 0.0
C497 C 0.60595 0.84671 0.15422 0.0
C498 C 0.56249 0.882 0.15677 0.0
C499 C 0.73334 0.74724 0.11246 0.0
O500 O 0.6849 0.72737 0.08738 0.0
H501 H 0.56779 0.84273 0.28321 0.0
H502 H 0.63156 0.83704 0.11755 0.0
O503 O 0.72353 0.8094 0.2856 0.0
H504 H 0.70539 0.64076 0.335 0.0
H505 H 0.54738 0.90422 0.12205 0.0
Cu506 Cu 0.34214 0.6762 0.1929 0.0
N507 N 0.27024 0.69786 0.17456 0.0
N508 N 0.17943 0.71568 0.19301 0.0
C509 C 0.22409 0.68752 0.20731 0.0
C510 C 0.19734 0.74366 0.14797 0.0
C511 C 0.25388 0.73237 0.13653 0.0
O512 O 0.31964 0.60522 0.2202 0.0
C513 C 0.34621 0.75603 0.28441 0.0
O514 O 0.29822 0.73299 0.30466 0.0
H515 H 0.22569 0.66493 0.24497 0.0
H516 H 0.28221 0.7512 0.10584 0.0
N517 N 0.38682 0.6787 0.12698 0.0
N518 N 0.42773 0.71307 0.04988 0.0
C519 C 0.40264 0.72407 0.1 0.0
C520 C 0.40294 0.63778 0.09288 0.0
C521 C 0.42826 0.65888 0.04515 0.0
C522 C 0.30902 0.59608 0.2718 0.0
O523 O 0.33716 0.62565 0.31207 0.0
H524 H 0.39324 0.76398 0.11563 0.0
H525 H 0.39467 0.59554 0.10104 0.0
O526 O 0.37535 0.73059 0.24772 0.0
H527 H 0.17352 0.77363 0.12803 0.0
H528 H 0.44387 0.63602 1.00918 0.0
Cu529 Cu 0.86539 0.32443 0.07744 0.0
N530 N 0.93248 0.28735 0.06683 0.0
N531 N 0.97666 0.25913 0.1432 0.0
C532 C 0.9715 0.30025 0.10862 0.0
C533 C 0.95114 0.21583 0.11406 0.0
C534 C 0.92462 0.23322 0.06653 0.0
O535 O 0.889 0.39677 0.11124 0.0
C536 C 0.80202 0.28907 0.17718 0.0
O537 O 0.79948 0.33951 0.19517 0.0
H538 H 0.97966 0.34176 0.12403 0.0
H539 H 0.8893 0.21026 0.04388 0.0
N540 N 0.82247 0.32463 1.01087 0.0
N541 N 0.75335 0.30315 0.94585 0.0
C542 C 0.77316 0.29372 0.99781 0.0
C543 C 0.83344 0.35496 0.96613 0.0
C544 C 0.7903 0.34188 0.92607 0.0
C545 C 0.85724 0.43385 0.12886 0.0
O546 O 0.80041 0.42714 0.1219 0.0
H547 H 0.75201 0.26554 1.02591 0.0
H548 H 0.86932 0.38533 0.96358 0.0
O549 O 0.82265 0.27809 0.12884 0.0
H550 H 0.9398 0.17745 0.13234 0.0
H551 H 0.784 0.36123 0.88736 0.0
loop_
_geom_bond_atom_site_label_1
_geom_bond_atom_site_label_2
_geom_bond_distance
_geom_bond_site_symmetry_2
_ccdc_geom_bond_type
Cu0 N1 1.999 . S
Cu0 O6 1.974 . S
Cu0 N11 1.985 . S
Cu0 O20 1.959 . S
N1 Cu0 1.999 . S
N1 C3 1.263 . S
N1 C5 1.389 . S
N2 C3 1.358 . S
N2 C4 1.400 . S
C3 N1 1.263 . S
C3 N2 1.358 . S
C3 H9 0.930 . S
C4 N2 1.400 . S
C4 C5 1.351 . S
C4 H21 0.930 . S
C5 N1 1.389 . S
C5 C4 1.351 . S
C5 H10 0.930 . S
O6 Cu0 1.974 . S
O6 C16 1.282 . S
C7 O8 1.261 . S
C7 O20 1.251 . S
O8 C7 1.261 . S
H9 C3 0.930 . S
H10 C5 0.930 . S
N11 Cu0 1.985 . S
N11 C13 1.335 . S
N11 C14 1.390 . S
N12 C13 1.345 . S
N12 C15 1.336 . S
C13 N11 1.335 . S
C13 N12 1.345 . S
C13 H18 0.930 . S
C14 N11 1.390 . S
C14 C15 1.346 . S
C14 H19 0.930 . S
C15 N12 1.336 . S
C15 C14 1.346 . S
C15 H22 0.929 . S
C16 O6 1.282 . S
C16 O17 1.216 . S
O17 C16 1.216 . S
H18 C13 0.930 . S
H19 C14 0.930 . S
O20 Cu0 1.959 . S
O20 C7 1.251 . S
H21 C4 0.930 . S
H22 C15 0.929 . S
Cu23 N24 1.999 . S
Cu23 O29 1.974 . S
Cu23 N34 1.985 . S
Cu23 O43 1.959 . S
N24 Cu23 1.999 . S
N24 C26 1.263 . S
N24 C28 1.389 . S
N25 C26 1.358 . S
N25 C27 1.400 . S
C26 N24 1.263 . S
C26 N25 1.358 . S
C26 H32 0.930 . S
C27 N25 1.400 . S
C27 C28 1.351 . S
C27 H44 0.930 . S
C28 N24 1.389 . S
C28 C27 1.351 . S
C28 H33 0.930 . S
O29 Cu23 1.974 . S
O29 C39 1.282 . S
C30 O31 1.261 . S
C30 O43 1.251 . S
O31 C30 1.261 . S
H32 C26 0.930 . S
H33 C28 0.930 . S
N34 Cu23 1.985 . S
N34 C36 1.335 . S
N34 C37 1.390 . S
N35 C36 1.345 1_565 S
N35 C38 1.336 1_565 S
C36 N34 1.335 . S
C36 N35 1.345 1_545 S
C36 H41 0.930 . S
C37 N34 1.390 . S
C37 C38 1.346 . S
C37 H42 0.930 . S
C38 N35 1.336 1_545 S
C38 C37 1.346 . S
C38 H45 0.929 . S
C39 O29 1.282 . S
C39 O40 1.216 . S
O40 C39 1.216 . S
H41 C36 0.930 . S
H42 C37 0.930 . S
O43 Cu23 1.959 . S
O43 C30 1.251 . S
H44 C27 0.930 . S
H45 C38 0.929 . S
Cu46 N47 1.999 . S
Cu46 O52 1.974 . S
Cu46 N57 1.985 . S
Cu46 O66 1.959 . S
N47 Cu46 1.999 . S
N47 C49 1.263 . S
N47 C51 1.389 . S
N48 C49 1.358 . S
N48 C50 1.400 . S
C49 N47 1.263 . S
C49 N48 1.358 . S
C49 H55 0.930 . S
C50 N48 1.400 . S
C50 C51 1.351 . S
C50 H67 0.930 . S
C51 N47 1.389 . S
C51 C50 1.351 . S
C51 H56 0.930 . S
O52 Cu46 1.974 . S
O52 C62 1.282 . S
C53 O54 1.261 . S
C53 O66 1.251 . S
O54 C53 1.261 . S
H55 C49 0.930 . S
H56 C51 0.930 . S
N57 Cu46 1.985 . S
N57 C59 1.335 . S
N57 C60 1.390 . S
N58 C59 1.345 . S
N58 C61 1.336 . S
C59 N57 1.335 . S
C59 N58 1.345 . S
C59 H64 0.930 . S
C60 N57 1.390 . S
C60 C61 1.346 . S
C60 H65 0.930 1_655 S
C61 N58 1.336 . S
C61 C60 1.346 . S
C61 H68 0.929 1_655 S
C62 O52 1.282 . S
C62 O63 1.216 . S
O63 C62 1.216 . S
H64 C59 0.930 . S
H65 C60 0.930 1_455 S
O66 Cu46 1.959 . S
O66 C53 1.251 . S
H67 C50 0.930 . S
H68 C61 0.929 1_455 S
Cu69 N70 1.999 . S
Cu69 O75 1.974 . S
Cu69 N80 1.985 . S
Cu69 O89 1.959 . S
N70 Cu69 1.999 . S
N70 C72 1.263 . S
N70 C74 1.389 . S
N71 C72 1.358 . S
N71 C73 1.400 . S
C72 N70 1.263 . S
C72 N71 1.358 . S
C72 H78 0.930 . S
C73 N71 1.400 . S
C73 C74 1.351 . S
C73 H90 0.930 . S
C74 N70 1.389 . S
C74 C73 1.351 . S
C74 H79 0.930 . S
O75 Cu69 1.974 . S
O75 C85 1.282 . S
C76 O77 1.261 . S
C76 O89 1.251 . S
O77 C76 1.261 . S
H78 C72 0.930 . S
H79 C74 0.930 . S
N80 Cu69 1.985 . S
N80 C82 1.335 . S
N80 C83 1.390 . S
N81 C82 1.345 . S
N81 C84 1.336 . S
C82 N80 1.335 . S
C82 N81 1.345 . S
C82 H87 0.930 . S
C83 N80 1.390 . S
C83 C84 1.346 . S
C83 H88 0.930 . S
C84 N81 1.336 . S
C84 C83 1.346 . S
C84 H91 0.929 . S
C85 O75 1.282 . S
C85 O86 1.216 . S
O86 C85 1.216 . S
H87 C82 0.930 . S
H88 C83 0.930 . S
O89 Cu69 1.959 . S
O89 C76 1.251 . S
H90 C73 0.930 . S
H91 C84 0.929 . S
Cu92 N93 1.999 . S
Cu92 O98 1.974 . S
Cu92 N103 1.985 . S
Cu92 O112 1.959 . S
N93 Cu92 1.999 . S
N93 C95 1.263 . S
N93 C97 1.389 . S
N94 C95 1.358 . S
N94 C96 1.400 . S
C95 N93 1.263 . S
C95 N94 1.358 . S
C95 H101 0.930 . S
C96 N94 1.400 . S
C96 C97 1.351 . S
C96 H113 0.930 . S
C97 N93 1.389 . S
C97 C96 1.351 . S
C97 H102 0.930 . S
O98 Cu92 1.974 . S
O98 C108 1.282 . S
C99 O100 1.261 . S
C99 O112 1.251 . S
O100 C99 1.261 . S
H101 C95 0.930 . S
H102 C97 0.930 . S
N103 Cu92 1.985 . S
N103 C105 1.335 . S
N103 C106 1.390 . S
N104 C105 1.345 . S
N104 C107 1.336 . S
C105 N103 1.335 . S
C105 N104 1.345 . S
C105 H110 0.930 . S
C106 N103 1.390 . S
C106 C107 1.346 . S
C106 H111 0.930 . S
C107 N104 1.336 . S
C107 C106 1.346 . S
C107 H114 0.929 . S
C108 O98 1.282 . S
C108 O109 1.216 . S
O109 C108 1.216 . S
H110 C105 0.930 . S
H111 C106 0.930 . S
O112 Cu92 1.959 . S
O112 C99 1.251 . S
H113 C96 0.930 . S
H114 C107 0.929 . S
Cu115 N116 1.999 . S
Cu115 O121 1.974 . S
Cu115 N126 1.985 . S
Cu115 O135 1.959 . S
N116 Cu115 1.999 . S
N116 C118 1.263 . S
N116 C120 1.389 . S
N117 C118 1.358 . S
N117 C119 1.400 . S
C118 N116 1.263 . S
C118 N117 1.358 . S
C118 H124 0.930 . S
C119 N117 1.400 . S
C119 C120 1.351 . S
C119 H136 0.930 . S
C120 N116 1.389 . S
C120 C119 1.351 . S
C120 H125 0.930 . S
O121 Cu115 1.974 . S
O121 C131 1.282 1_545 S
C122 O123 1.261 . S
C122 O135 1.251 . S
O123 C122 1.261 . S
H124 C118 0.930 . S
H125 C120 0.930 . S
N126 Cu115 1.985 . S
N126 C128 1.335 . S
N126 C129 1.390 . S
N127 C128 1.345 . S
N127 C130 1.336 . S
C128 N126 1.335 . S
C128 N127 1.345 . S
C128 H133 0.930 . S
C129 N126 1.390 . S
C129 C130 1.346 . S
C129 H134 0.930 . S
C130 N127 1.336 . S
C130 C129 1.346 . S
C130 H137 0.929 . S
C131 O121 1.282 1_565 S
C131 O132 1.216 . S
O132 C131 1.216 . S
H133 C128 0.930 . S
H134 C129 0.930 . S
O135 Cu115 1.959 . S
O135 C122 1.251 . S
H136 C119 0.930 . S
H137 C130 0.929 . S
Cu138 N139 1.999 . S
Cu138 O144 1.974 . S
Cu138 N149 1.985 . S
Cu138 O158 1.959 . S
N139 Cu138 1.999 . S
N139 C141 1.263 . S
N139 C143 1.389 . S
N140 C141 1.358 . S
N140 C142 1.400 . S
C141 N139 1.263 . S
C141 N140 1.358 . S
C141 H147 0.930 . S
C142 N140 1.400 . S
C142 C143 1.351 . S
C142 H159 0.930 . S
C143 N139 1.389 . S
C143 C142 1.351 . S
C143 H148 0.930 . S
O144 Cu138 1.974 . S
O144 C154 1.282 . S
C145 O146 1.261 . S
C145 O158 1.251 . S
O146 C145 1.261 . S
H147 C141 0.930 . S
H148 C143 0.930 . S
N149 Cu138 1.985 . S
N149 C151 1.335 . S
N149 C152 1.390 . S
N150 C151 1.345 . S
N150 C153 1.336 . S
C151 N149 1.335 . S
C151 N150 1.345 . S
C151 H156 0.930 . S
C152 N149 1.390 . S
C152 C153 1.346 . S
C152 H157 0.930 . S
C153 N150 1.336 . S
C153 C152 1.346 . S
C153 H160 0.929 . S
C154 O144 1.282 . S
C154 O155 1.216 . S
O155 C154 1.216 . S
H156 C151 0.930 . S
H157 C152 0.930 . S
O158 Cu138 1.959 . S
O158 C145 1.251 . S
H159 C142 0.930 . S
H160 C153 0.929 . S
Cu161 N162 1.999 . S
Cu161 O167 1.974 . S
Cu161 N172 1.985 . S
Cu161 O181 1.959 . S
N162 Cu161 1.999 . S
N162 C164 1.263 . S
N162 C166 1.389 . S
N163 C164 1.358 . S
N163 C165 1.400 . S
C164 N162 1.263 . S
C164 N163 1.358 . S
C164 H170 0.930 . S
C165 N163 1.400 . S
C165 C166 1.351 . S
C165 H182 0.930 . S
C166 N162 1.389 . S
C166 C165 1.351 . S
C166 H171 0.930 . S
O167 Cu161 1.974 . S
O167 C177 1.282 . S
C168 O169 1.261 . S
C168 O181 1.251 . S
O169 C168 1.261 . S
H170 C164 0.930 . S
H171 C166 0.930 . S
N172 Cu161 1.985 . S
N172 C174 1.335 1_565 S
N172 C175 1.390 . S
N173 C174 1.345 . S
N173 C176 1.336 . S
C174 N172 1.335 1_545 S
C174 N173 1.345 . S
C174 H179 0.930 . S
C175 N172 1.390 . S
C175 C176 1.346 1_565 S
C175 H180 0.930 . S
C176 N173 1.336 . S
C176 C175 1.346 1_545 S
C176 H183 0.929 . S
C177 O167 1.282 . S
C177 O178 1.216 . S
O178 C177 1.216 . S
H179 C174 0.930 . S
H180 C175 0.930 . S
O181 Cu161 1.959 . S
O181 C168 1.251 . S
H182 C165 0.930 . S
H183 C176 0.929 . S
Cu184 N185 1.999 . S
Cu184 O190 1.974 . S
Cu184 N195 1.985 . S
Cu184 O204 1.959 . S
N185 Cu184 1.999 . S
N185 C187 1.263 . S
N185 C189 1.389 . S
N186 C187 1.358 . S
N186 C188 1.400 . S
C187 N185 1.263 . S
C187 N186 1.358 . S
C187 H193 0.930 . S
C188 N186 1.400 . S
C188 C189 1.351 . S
C188 H205 0.930 . S
C189 N185 1.389 . S
C189 C188 1.351 . S
C189 H194 0.930 . S
O190 Cu184 1.974 . S
O190 C200 1.282 . S
C191 O192 1.261 . S
C191 O204 1.251 . S
O192 C191 1.261 . S
H193 C187 0.930 . S
H194 C189 0.930 . S
N195 Cu184 1.985 . S
N195 C197 1.335 . S
N195 C198 1.390 . S
N196 C197 1.345 1_565 S
N196 C199 1.336 . S
C197 N195 1.335 . S
C197 N196 1.345 1_545 S
C197 H202 0.930 . S
C198 N195 1.390 . S
C198 C199 1.346 1_545 S
C198 H203 0.930 . S
C199 N196 1.336 . S
C199 C198 1.346 1_565 S
C199 H206 0.929 . S
C200 O190 1.282 . S
C200 O201 1.216 . S
O201 C200 1.216 . S
H202 C197 0.930 . S
H203 C198 0.930 . S
O204 Cu184 1.959 . S
O204 C191 1.251 . S
H205 C188 0.930 . S
H206 C199 0.929 . S
Cu207 N208 1.999 . S
Cu207 O213 1.974 . S
Cu207 N218 1.985 . S
Cu207 O227 1.959 . S
N208 Cu207 1.999 . S
N208 C210 1.263 . S
N208 C212 1.389 . S
N209 C210 1.358 . S
N209 C211 1.400 . S
C210 N208 1.263 . S
C210 N209 1.358 . S
C210 H216 0.930 . S
C211 N209 1.400 . S
C211 C212 1.351 . S
C211 H228 0.930 . S
C212 N208 1.389 . S
C212 C211 1.351 . S
C212 H217 0.930 . S
O213 Cu207 1.974 . S
O213 C223 1.282 1_655 S
C214 O215 1.261 . S
C214 O227 1.251 . S
O215 C214 1.261 . S
H216 C210 0.930 . S
H217 C212 0.930 . S
N218 Cu207 1.985 . S
N218 C220 1.335 . S
N218 C221 1.390 . S
N219 C220 1.345 . S
N219 C222 1.336 . S
C220 N218 1.335 . S
C220 N219 1.345 . S
C220 H225 0.930 . S
C221 N218 1.390 . S
C221 C222 1.346 . S
C221 H226 0.930 . S
C222 N219 1.336 . S
C222 C221 1.346 . S
C222 H229 0.929 . S
C223 O213 1.282 1_455 S
C223 O224 1.216 . S
O224 C223 1.216 . S
H225 C220 0.930 . S
H226 C221 0.930 . S
O227 Cu207 1.959 . S
O227 C214 1.251 . S
H228 C211 0.930 . S
H229 C222 0.929 . S
Cu230 N231 1.999 . S
Cu230 O236 1.974 . S
Cu230 N241 1.985 . S
Cu230 O250 1.959 . S
N231 Cu230 1.999 . S
N231 C233 1.263 . S
N231 C235 1.389 . S
N232 C233 1.358 . S
N232 C234 1.400 . S
C233 N231 1.263 . S
C233 N232 1.358 . S
C233 H239 0.930 . S
C234 N232 1.400 . S
C234 C235 1.351 . S
C234 H251 0.930 . S
C235 N231 1.389 . S
C235 C234 1.351 . S
C235 H240 0.930 . S
O236 Cu230 1.974 . S
O236 C246 1.282 . S
C237 O238 1.261 . S
C237 O250 1.251 . S
O238 C237 1.261 . S
H239 C233 0.930 . S
H240 C235 0.930 . S
N241 Cu230 1.985 . S
N241 C243 1.335 . S
N241 C244 1.390 . S
N242 C243 1.345 . S
N242 C245 1.336 . S
C243 N241 1.335 . S
C243 N242 1.345 . S
C243 H248 0.930 . S
C244 N241 1.390 . S
C244 C245 1.346 . S
C244 H249 0.930 . S
C245 N242 1.336 . S
C245 C244 1.346 . S
C245 H252 0.929 1_565 S
C246 O236 1.282 . S
C246 O247 1.216 . S
O247 C246 1.216 . S
H248 C243 0.930 . S
H249 C244 0.930 . S
O250 Cu230 1.959 . S
O250 C237 1.251 . S
H251 C234 0.930 . S
H252 C245 0.929 1_545 S
Cu253 N254 1.999 . S
Cu253 O259 1.974 . S
Cu253 N264 1.985 . S
Cu253 O273 1.959 . S
N254 Cu253 1.999 . S
N254 C256 1.263 . S
N254 C258 1.389 . S
N255 C256 1.358 . S
N255 C257 1.400 . S
C256 N254 1.263 . S
C256 N255 1.358 . S
C256 H262 0.930 1_455 S
C257 N255 1.400 . S
C257 C258 1.351 . S
C257 H274 0.930 . S
C258 N254 1.389 . S
C258 C257 1.351 . S
C258 H263 0.930 . S
O259 Cu253 1.974 . S
O259 C269 1.282 1_455 S
C260 O261 1.261 . S
C260 O273 1.251 . S
O261 C260 1.261 . S
H262 C256 0.930 1_655 S
H263 C258 0.930 . S
N264 Cu253 1.985 . S
N264 C266 1.335 . S
N264 C267 1.390 . S
N265 C266 1.345 . S
N265 C268 1.336 . S
C266 N264 1.335 . S
C266 N265 1.345 . S
C266 H271 0.930 . S
C267 N264 1.390 . S
C267 C268 1.346 . S
C267 H272 0.930 . S
C268 N265 1.336 . S
C268 C267 1.346 . S
C268 H275 0.929 . S
C269 O259 1.282 1_655 S
C269 O270 1.216 . S
O270 C269 1.216 . S
H271 C266 0.930 . S
H272 C267 0.930 . S
O273 Cu253 1.959 . S
O273 C260 1.251 . S
H274 C257 0.930 . S
H275 C268 0.929 . S
Cu276 N277 1.999 . S
Cu276 O282 1.974 . S
Cu276 N287 1.985 . S
Cu276 O296 1.959 . S
N277 Cu276 1.999 . S
N277 C279 1.263 . S
N277 C281 1.389 . S
N278 C279 1.358 . S
N278 C280 1.400 . S
C279 N277 1.263 . S
C279 N278 1.358 . S
C279 H285 0.930 . S
C280 N278 1.400 . S
C280 C281 1.351 . S
C280 H297 0.930 . S
C281 N277 1.389 . S
C281 C280 1.351 . S
C281 H286 0.930 . S
O282 Cu276 1.974 . S
O282 C292 1.282 . S
C283 O284 1.261 . S
C283 O296 1.251 . S
O284 C283 1.261 . S
H285 C279 0.930 . S
H286 C281 0.930 . S
N287 Cu276 1.985 . S
N287 C289 1.335 . S
N287 C290 1.390 . S
N288 C289 1.345 . S
N288 C291 1.336 . S
C289 N287 1.335 . S
C289 N288 1.345 . S
C289 H294 0.930 . S
C290 N287 1.390 . S
C290 C291 1.346 . S
C290 H295 0.925 1_565 S
C291 N288 1.336 . S
C291 C290 1.346 . S
C291 H298 0.929 1_565 S
C292 O282 1.282 . S
C292 O293 1.216 . S
O293 C292 1.216 . S
H294 C289 0.930 . S
H295 C290 0.925 1_545 S
O296 Cu276 1.959 . S
O296 C283 1.251 . S
H297 C280 0.930 . S
H298 C291 0.929 1_545 S
Cu299 N300 1.999 . S
Cu299 O305 1.974 . S
Cu299 N310 1.985 . S
Cu299 O319 1.959 . S
N300 Cu299 1.999 . S
N300 C302 1.263 . S
N300 C304 1.389 . S
N301 C302 1.358 . S
N301 C303 1.400 . S
C302 N300 1.263 . S
C302 N301 1.358 . S
C302 H308 0.930 . S
C303 N301 1.400 . S
C303 C304 1.351 . S
C303 H320 0.930 . S
C304 N300 1.389 . S
C304 C303 1.351 . S
C304 H309 0.930 . S
O305 Cu299 1.974 . S
O305 C315 1.282 . S
C306 O307 1.261 . S
C306 O319 1.251 . S
O307 C306 1.261 . S
H308 C302 0.930 . S
H309 C304 0.930 . S
N310 Cu299 1.985 . S
N310 C312 1.335 . S
N310 C313 1.390 . S
N311 C312 1.345 1_655 S
N311 C314 1.336 . S
C312 N310 1.335 . S
C312 N311 1.345 1_455 S
C312 H317 0.930 1_455 S
C313 N310 1.390 . S
C313 C314 1.346 1_455 S
C313 H318 0.930 . S
C314 N311 1.336 . S
C314 C313 1.346 1_655 S
C314 H321 0.929 . S
C315 O305 1.282 . S
C315 O316 1.216 . S
O316 C315 1.216 . S
H317 C312 0.930 1_655 S
H318 C313 0.930 . S
O319 Cu299 1.959 . S
O319 C306 1.251 . S
H320 C303 0.930 . S
H321 C314 0.929 . S
Cu322 N323 1.999 . S
Cu322 O328 1.974 . S
Cu322 N333 1.985 . S
Cu322 O342 1.959 . S
N323 Cu322 1.999 . S
N323 C325 1.263 . S
N323 C327 1.389 . S
N324 C325 1.358 . S
N324 C326 1.400 . S
C325 N323 1.263 . S
C325 N324 1.358 . S
C325 H331 0.930 . S
C326 N324 1.400 . S
C326 C327 1.351 . S
C326 H343 0.930 . S
C327 N323 1.389 . S
C327 C326 1.351 . S
C327 H332 0.930 . S
O328 Cu322 1.974 . S
O328 C338 1.282 . S
C329 O330 1.261 . S
C329 O342 1.251 . S
O330 C329 1.261 . S
H331 C325 0.930 . S
H332 C327 0.930 . S
N333 Cu322 1.985 . S
N333 C335 1.335 . S
N333 C336 1.390 . S
N334 C335 1.345 . S
N334 C337 1.336 . S
C335 N333 1.335 . S
C335 N334 1.345 . S
C335 H340 0.930 . S
C336 N333 1.390 . S
C336 C337 1.346 . S
C336 H341 0.930 . S
C337 N334 1.336 . S
C337 C336 1.346 . S
C337 H344 0.929 . S
C338 O328 1.282 . S
C338 O339 1.216 . S
O339 C338 1.216 . S
H340 C335 0.930 . S
H341 C336 0.930 . S
O342 Cu322 1.959 . S
O342 C329 1.251 . S
H343 C326 0.930 . S
H344 C337 0.929 . S
Cu345 N346 1.999 . S
Cu345 O351 1.974 . S
Cu345 N356 1.985 . S
Cu345 O365 1.959 . S
N346 Cu345 1.999 . S
N346 C348 1.263 . S
N346 C350 1.389 . S
N347 C348 1.358 . S
N347 C349 1.400 . S
C348 N346 1.263 . S
C348 N347 1.358 . S
C348 H354 0.930 . S
C349 N347 1.400 . S
C349 C350 1.351 . S
C349 H366 0.930 . S
C350 N346 1.389 . S
C350 C349 1.351 . S
C350 H355 0.930 . S
O351 Cu345 1.974 . S
O351 C361 1.282 . S
C352 O353 1.261 . S
C352 O365 1.251 . S
O353 C352 1.261 . S
H354 C348 0.930 . S
H355 C350 0.930 . S
N356 Cu345 1.985 . S
N356 C358 1.335 . S
N356 C359 1.390 . S
N357 C358 1.345 1_455 S
N357 C360 1.336 . S
C358 N356 1.335 . S
C358 N357 1.345 1_655 S
C358 H363 0.930 1_655 S
C359 N356 1.390 . S
C359 C360 1.346 1_655 S
C359 H364 0.930 . S
C360 N357 1.336 . S
C360 C359 1.346 1_455 S
C360 H367 0.929 . S
C361 O351 1.282 . S
C361 O362 1.216 . S
O362 C361 1.216 . S
H363 C358 0.930 1_455 S
H364 C359 0.930 . S
O365 Cu345 1.959 . S
O365 C352 1.251 . S
H366 C349 0.930 . S
H367 C360 0.929 . S
Cu368 N369 1.999 . S
Cu368 O374 1.974 . S
Cu368 N379 1.985 . S
Cu368 O388 1.959 . S
N369 Cu368 1.999 . S
N369 C371 1.263 . S
N369 C373 1.389 . S
N370 C371 1.358 . S
N370 C372 1.400 . S
C371 N369 1.263 . S
C371 N370 1.358 . S
C371 H377 0.930 . S
C372 N370 1.400 . S
C372 C373 1.351 . S
C372 H389 0.930 . S
C373 N369 1.389 . S
C373 C372 1.351 . S
C373 H378 0.930 . S
O374 Cu368 1.974 . S
O374 C384 1.282 . S
C375 O376 1.261 . S
C375 O388 1.251 . S
O376 C375 1.261 . S
H377 C371 0.930 . S
H378 C373 0.930 . S
N379 Cu368 1.985 . S
N379 C381 1.335 . S
N379 C382 1.390 . S
N380 C381 1.345 . S
N380 C383 1.336 . S
C381 N379 1.335 . S
C381 N380 1.345 . S
C381 H386 0.930 . S
C382 N379 1.390 . S
C382 C383 1.346 . S
C382 H387 0.930 . S
C383 N380 1.336 . S
C383 C382 1.346 . S
C383 H390 0.929 . S
C384 O374 1.282 . S
C384 O385 1.216 . S
O385 C384 1.216 . S
H386 C381 0.930 . S
H387 C382 0.930 . S
O388 Cu368 1.959 . S
O388 C375 1.251 . S
H389 C372 0.930 . S
H390 C383 0.929 . S
Cu391 N392 1.999 . S
Cu391 O397 1.974 . S
Cu391 N402 1.985 . S
Cu391 O411 1.959 . S
N392 Cu391 1.999 . S
N392 C394 1.263 . S
N392 C396 1.389 . S
N393 C394 1.358 . S
N393 C395 1.400 . S
C394 N392 1.263 . S
C394 N393 1.358 . S
C394 H400 0.930 . S
C395 N393 1.400 . S
C395 C396 1.351 . S
C395 H412 0.930 . S
C396 N392 1.389 . S
C396 C395 1.351 . S
C396 H401 0.930 . S
O397 Cu391 1.974 . S
O397 C407 1.282 . S
C398 O399 1.261 . S
C398 O411 1.251 . S
O399 C398 1.261 . S
H400 C394 0.930 . S
H401 C396 0.930 . S
N402 Cu391 1.985 . S
N402 C404 1.335 . S
N402 C405 1.390 . S
N403 C404 1.345 . S
N403 C406 1.336 . S
C404 N402 1.335 . S
C404 N403 1.345 . S
C404 H409 0.930 . S
C405 N402 1.390 . S
C405 C406 1.346 . S
C405 H410 0.930 . S
C406 N403 1.336 . S
C406 C405 1.346 . S
C406 H413 0.929 1_556 S
C407 O397 1.282 . S
C407 O408 1.216 . S
O408 C407 1.216 . S
H409 C404 0.930 . S
H410 C405 0.930 . S
O411 Cu391 1.959 . S
O411 C398 1.251 . S
H412 C395 0.930 . S
H413 C406 0.929 1_554 S
Cu414 N415 1.999 . S
Cu414 O420 1.974 . S
Cu414 N425 1.985 . S
Cu414 O434 1.959 . S
N415 Cu414 1.999 . S
N415 C417 1.263 . S
N415 C419 1.389 . S
N416 C417 1.358 . S
N416 C418 1.400 . S
C417 N415 1.263 . S
C417 N416 1.358 . S
C417 H423 0.930 . S
C418 N416 1.400 . S
C418 C419 1.351 . S
C418 H435 0.930 . S
C419 N415 1.389 . S
C419 C418 1.351 . S
C419 H424 0.930 . S
O420 Cu414 1.974 . S
O420 C430 1.282 . S
C421 O422 1.261 . S
C421 O434 1.251 . S
O422 C421 1.261 . S
H423 C417 0.930 . S
H424 C419 0.930 . S
N425 Cu414 1.985 . S
N425 C427 1.335 . S
N425 C428 1.390 . S
N426 C427 1.345 . S
N426 C429 1.336 . S
C427 N425 1.335 . S
C427 N426 1.345 . S
C427 H432 0.930 . S
C428 N425 1.390 . S
C428 C429 1.346 . S
C428 H433 0.930 . S
C429 N426 1.336 . S
C429 C428 1.346 . S
C429 H436 0.929 . S
C430 O420 1.282 . S
C430 O431 1.216 . S
O431 C430 1.216 . S
H432 C427 0.930 . S
H433 C428 0.930 . S
O434 Cu414 1.959 . S
O434 C421 1.251 . S
H435 C418 0.930 . S
H436 C429 0.929 . S
Cu437 N438 1.999 . S
Cu437 O443 1.974 . S
Cu437 N448 1.985 . S
Cu437 O457 1.959 . S
N438 Cu437 1.999 . S
N438 C440 1.263 . S
N438 C442 1.389 . S
N439 C440 1.358 . S
N439 C441 1.400 . S
C440 N438 1.263 . S
C440 N439 1.358 . S
C440 H446 0.930 . S
C441 N439 1.400 . S
C441 C442 1.351 . S
C441 H458 0.930 . S
C442 N438 1.389 . S
C442 C441 1.351 . S
C442 H447 0.930 . S
O443 Cu437 1.974 . S
O443 C453 1.282 . S
C444 O445 1.261 . S
C444 O457 1.251 . S
O445 C444 1.261 . S
H446 C440 0.930 . S
H447 C442 0.930 . S
N448 Cu437 1.985 . S
N448 C450 1.335 . S
N448 C451 1.390 . S
N449 C450 1.345 1_554 S
N449 C452 1.336 . S
C450 N448 1.335 . S
C450 N449 1.345 1_556 S
C450 H455 0.930 . S
C451 N448 1.390 . S
C451 C452 1.346 1_556 S
C451 H456 0.930 . S
C452 N449 1.336 . S
C452 C451 1.346 1_554 S
C452 H459 0.929 . S
C453 O443 1.282 . S
C453 O454 1.216 . S
O454 C453 1.216 . S
H455 C450 0.930 . S
H456 C451 0.930 . S
O457 Cu437 1.959 . S
O457 C444 1.251 . S
H458 C441 0.930 . S
H459 C452 0.929 . S
Cu460 N461 1.999 . S
Cu460 O466 1.974 . S
Cu460 N471 1.985 . S
Cu460 O480 1.959 . S
N461 Cu460 1.999 . S
N461 C463 1.263 . S
N461 C465 1.389 . S
N462 C463 1.358 . S
N462 C464 1.400 . S
C463 N461 1.263 . S
C463 N462 1.358 . S
C463 H469 0.930 . S
C464 N462 1.400 . S
C464 C465 1.351 . S
C464 H481 0.930 . S
C465 N461 1.389 . S
C465 C464 1.351 . S
C465 H470 0.930 . S
O466 Cu460 1.974 . S
O466 C476 1.282 . S
C467 O468 1.261 . S
C467 O480 1.251 . S
O468 C467 1.261 . S
H469 C463 0.930 . S
H470 C465 0.930 . S
N471 Cu460 1.985 . S
N471 C473 1.335 . S
N471 C474 1.390 . S
N472 C473 1.345 . S
N472 C475 1.336 . S
C473 N471 1.335 . S
C473 N472 1.345 . S
C473 H478 0.930 . S
C474 N471 1.390 . S
C474 C475 1.346 . S
C474 H479 0.930 . S
C475 N472 1.336 . S
C475 C474 1.346 . S
C475 H482 0.929 . S
C476 O466 1.282 . S
C476 O477 1.216 . S
O477 C476 1.216 . S
H478 C473 0.930 . S
H479 C474 0.930 . S
O480 Cu460 1.959 . S
O480 C467 1.251 . S
H481 C464 0.930 . S
H482 C475 0.929 . S
Cu483 N484 1.999 . S
Cu483 O489 1.974 . S
Cu483 N494 1.985 . S
Cu483 O503 1.959 . S
N484 Cu483 1.999 . S
N484 C486 1.263 . S
N484 C488 1.389 . S
N485 C486 1.358 . S
N485 C487 1.400 . S
C486 N484 1.263 . S
C486 N485 1.358 . S
C486 H492 0.930 . S
C487 N485 1.400 . S
C487 C488 1.351 . S
C487 H504 0.930 . S
C488 N484 1.389 . S
C488 C487 1.351 . S
C488 H493 0.930 . S
O489 Cu483 1.974 . S
O489 C499 1.282 . S
C490 O491 1.261 . S
C490 O503 1.251 . S
O491 C490 1.261 . S
H492 C486 0.930 . S
H493 C488 0.930 . S
N494 Cu483 1.985 . S
N494 C496 1.335 . S
N494 C497 1.390 . S
N495 C496 1.345 . S
N495 C498 1.336 . S
C496 N494 1.335 . S
C496 N495 1.345 . S
C496 H501 0.930 . S
C497 N494 1.390 . S
C497 C498 1.346 . S
C497 H502 0.930 . S
C498 N495 1.336 . S
C498 C497 1.346 . S
C498 H505 0.929 . S
C499 O489 1.282 . S
C499 O500 1.216 . S
O500 C499 1.216 . S
H501 C496 0.930 . S
H502 C497 0.930 . S
O503 Cu483 1.959 . S
O503 C490 1.251 . S
H504 C487 0.930 . S
H505 C498 0.929 . S
Cu506 N507 1.999 . S
Cu506 O512 1.974 . S
Cu506 N517 1.985 . S
Cu506 O526 1.959 . S
N507 Cu506 1.999 . S
N507 C509 1.263 . S
N507 C511 1.389 . S
N508 C509 1.358 . S
N508 C510 1.400 . S
C509 N507 1.263 . S
C509 N508 1.358 . S
C509 H515 0.930 . S
C510 N508 1.400 . S
C510 C511 1.351 . S
C510 H527 0.930 . S
C511 N507 1.389 . S
C511 C510 1.351 . S
C511 H516 0.930 . S
O512 Cu506 1.974 . S
O512 C522 1.282 . S
C513 O514 1.261 . S
C513 O526 1.251 . S
O514 C513 1.261 . S
H515 C509 0.930 . S
H516 C511 0.930 . S
N517 Cu506 1.985 . S
N517 C519 1.335 1_554 S
N517 C520 1.390 . S
N518 C519 1.345 . S
N518 C521 1.336 . S
C519 N517 1.335 1_556 S
C519 N518 1.345 . S
C519 H524 0.930 . S
C520 N517 1.390 . S
C520 C521 1.346 1_554 S
C520 H525 0.930 . S
C521 N518 1.336 . S
C521 C520 1.346 1_556 S
C521 H528 0.929 . S
C522 O512 1.282 . S
C522 O523 1.216 . S
O523 C522 1.216 . S
H524 C519 0.930 . S
H525 C520 0.930 . S
O526 Cu506 1.959 . S
O526 C513 1.251 . S
H527 C510 0.930 . S
H528 C521 0.929 . S
Cu529 N530 1.999 . S
Cu529 O535 1.974 . S
Cu529 N540 1.985 . S
Cu529 O549 1.959 . S
N530 Cu529 1.999 . S
N530 C532 1.263 . S
N530 C534 1.389 . S
N531 C532 1.358 . S
N531 C533 1.400 . S
C532 N530 1.263 . S
C532 N531 1.358 . S
C532 H538 0.930 . S
C533 N531 1.400 . S
C533 C534 1.351 . S
C533 H550 0.930 . S
C534 N530 1.389 . S
C534 C533 1.351 . S
C534 H539 0.930 . S
O535 Cu529 1.974 . S
O535 C545 1.282 . S
C536 O537 1.261 . S
C536 O549 1.251 . S
O537 C536 1.261 . S
H538 C532 0.930 . S
H539 C534 0.930 . S
N540 Cu529 1.985 . S
N540 C542 1.335 1_554 S
N540 C543 1.390 . S
N541 C542 1.345 . S
N541 C544 1.336 . S
C542 N540 1.335 1_556 S
C542 N541 1.345 . S
C542 H547 0.930 . S
C543 N540 1.390 . S
C543 C544 1.346 1_554 S
C543 H548 0.930 . S
C544 N541 1.336 . S
C544 C543 1.346 1_556 S
C544 H551 0.929 . S
C545 O535 1.282 . S
C545 O546 1.216 . S
O546 C545 1.216 . S
H547 C542 0.930 . S
H548 C543 0.930 . S
O549 Cu529 1.959 . S
O549 C536 1.251 . S
H550 C533 0.930 . S
H551 C544 0.929 . S
C522 N12 2.699 . S
C39 N380 2.519 . S
C545 N58 2.950 . S
N495 N81 2.540 . S
N426 N104 2.757 . S
C453 N127 4.133 . S
N472 C154 3.465 . S
C177 C407 3.164 . S
C315 C200 3.185 . S
N334 N219 3.299 . S
C246 C361 3.202 . S
N265 N288 3.415 . S
N173 C338 2.828 . S
N357 C108 2.643 . S
C131 C292 3.218 . S
N311 N150 2.768 . S
N242 N35 2.887 . S
C62 C269 3.529 . S
C85 N196 3.171 . S
C16 C223 3.213 . S
C476 C499 2.957 1_556 S
N518 N403 3.209 . S
C430 C384 3.150 1_556 S
N541 N449 3.575 1_556 S
N2 N186 1.197 . S
C214 C30 2.309 . S
N48 N232 1.276 . S
N71 C260 1.643 . S
N94 C283 1.679 . S
N117 N301 1.506 . S
C329 C145 2.420 . S
N347 C168 1.847 . S
C191 C375 2.703 . S
N209 N531 1.546 . S
C490 C237 2.566 . S
N508 N255 1.268 . S
N393 N278 1.748 . S
C421 C306 2.576 . S
N324 N439 1.437 . S
C352 C467 2.599 . S
C7 N370 1.875 . S
C398 C99 2.297 . S
N416 C122 1.577 . S
C444 N140 1.771 . S
N462 N163 1.365 . S
N485 C53 1.933 . S
C76 C513 2.337 . S
C536 N25 1.963 . S
