# Generated by pormake.
# Topology sxg, (6)-cn, num edge types: 1
# Building blocks:
#     Node 0, Type 0, BuildingBlock: UKALOJ_clean_sbu_0, # of connection points: 6
#     Node 1, Type 0, BuildingBlock: UKALOJ_clean_sbu_0, # of connection points: 6
#     Node 2, Type 0, BuildingBlock: UKALOJ_clean_sbu_0, # of connection points: 6
#     Node 3, Type 0, BuildingBlock: UKALOJ_clean_sbu_0, # of connection points: 6
#     Node 4, Type 0, BuildingBlock: UKALOJ_clean_sbu_0, # of connection points: 6
#     Node 5, Type 0, BuildingBlock: UKALOJ_clean_sbu_0, # of connection points: 6
#     Node 6, Type 0, BuildingBlock: UKALOJ_clean_sbu_0, # of connection points: 6
#     Node 7, Type 0, BuildingBlock: UKALOJ_clean_sbu_0, # of connection points: 6
#     Node 8, Type 0, BuildingBlock: UKALOJ_clean_sbu_0, # of connection points: 6
#     Node 9, Type 0, BuildingBlock: UKALOJ_clean_sbu_0, # of connection points: 6
#     Node 10, Type 0, BuildingBlock: UKALOJ_clean_sbu_0, # of connection points: 6
#     Node 11, Type 0, BuildingBlock: UKALOJ_clean_sbu_0, # of connection points: 6
#     Node 12, Type 0, BuildingBlock: UKALOJ_clean_sbu_0, # of connection points: 6
#     Node 13, Type 0, BuildingBlock: UKALOJ_clean_sbu_0, # of connection points: 6
#     Node 14, Type 0, BuildingBlock: UKALOJ_clean_sbu_0, # of connection points: 6
#     Node 15, Type 0, BuildingBlock: UKALOJ_clean_sbu_0, # of connection points: 6
#     Node 16, Type 0, BuildingBlock: UKALOJ_clean_sbu_0, # of connection points: 6
#     Node 17, Type 0, BuildingBlock: UKALOJ_clean_sbu_0, # of connection points: 6
#     Node 18, Type 0, BuildingBlock: UKALOJ_clean_sbu_0, # of connection points: 6
#     Node 19, Type 0, BuildingBlock: UKALOJ_clean_sbu_0, # of connection points: 6
#     Node 20, Type 0, BuildingBlock: UKALOJ_clean_sbu_0, # of connection points: 6
#     Node 21, Type 0, BuildingBlock: UKALOJ_clean_sbu_0, # of connection points: 6
#     Node 22, Type 0, BuildingBlock: UKALOJ_clean_sbu_0, # of connection points: 6
#     Node 23, Type 0, BuildingBlock: UKALOJ_clean_sbu_0, # of connection points: 6
#     Edge 24, Type (0, 0), BuildingBlock: XIVTED_clean_linker_0, # of connection points: 2
#     Edge 25, Type (0, 0), BuildingBlock: XIVTED_clean_linker_0, # of connection points: 2
#     Edge 26, Type (0, 0), BuildingBlock: XIVTED_clean_linker_0, # of connection points: 2
#     Edge 27, Type (0, 0), BuildingBlock: XIVTED_clean_linker_0, # of connection points: 2
#     Edge 28, Type (0, 0), BuildingBlock: XIVTED_clean_linker_0, # of connection points: 2
#     Edge 29, Type (0, 0), BuildingBlock: XIVTED_clean_linker_0, # of connection points: 2
#     Edge 30, Type (0, 0), BuildingBlock: XIVTED_clean_linker_0, # of connection points: 2
#     Edge 31, Type (0, 0), BuildingBlock: XIVTED_clean_linker_0, # of connection points: 2
#     Edge 32, Type (0, 0), BuildingBlock: XIVTED_clean_linker_0, # of connection points: 2
#     Edge 33, Type (0, 0), BuildingBlock: XIVTED_clean_linker_0, # of connection points: 2
#     Edge 34, Type (0, 0), BuildingBlock: XIVTED_clean_linker_0, # of connection points: 2
#     Edge 35, Type (0, 0), BuildingBlock: XIVTED_clean_linker_0, # of connection points: 2
#     Edge 36, Type (0, 0), BuildingBlock: XIVTED_clean_linker_0, # of connection points: 2
#     Edge 37, Type (0, 0), BuildingBlock: XIVTED_clean_linker_0, # of connection points: 2
#     Edge 38, Type (0, 0), BuildingBlock: XIVTED_clean_linker_0, # of connection points: 2
#     Edge 39, Type (0, 0), BuildingBlock: XIVTED_clean_linker_0, # of connection points: 2
#     Edge 40, Type (0, 0), BuildingBlock: XIVTED_clean_linker_0, # of connection points: 2
#     Edge 41, Type (0, 0), BuildingBlock: XIVTED_clean_linker_0, # of connection points: 2
#     Edge 42, Type (0, 0), BuildingBlock: XIVTED_clean_linker_0, # of connection points: 2
#     Edge 43, Type (0, 0), BuildingBlock: XIVTED_clean_linker_0, # of connection points: 2
#     Edge 44, Type (0, 0), BuildingBlock: XIVTED_clean_linker_0, # of connection points: 2
#     Edge 45, Type (0, 0), BuildingBlock: XIVTED_clean_linker_0, # of connection points: 2
#     Edge 46, Type (0, 0), BuildingBlock: XIVTED_clean_linker_0, # of connection points: 2
#     Edge 47, Type (0, 0), BuildingBlock: XIVTED_clean_linker_0, # of connection points: 2
#     Edge 48, Type (0, 0), BuildingBlock: XIVTED_clean_linker_0, # of connection points: 2
#     Edge 49, Type (0, 0), BuildingBlock: XIVTED_clean_linker_0, # of connection points: 2
#     Edge 50, Type (0, 0), BuildingBlock: XIVTED_clean_linker_0, # of connection points: 2
#     Edge 51, Type (0, 0), BuildingBlock: XIVTED_clean_linker_0, # of connection points: 2
#     Edge 52, Type (0, 0), BuildingBlock: XIVTED_clean_linker_0, # of connection points: 2
#     Edge 53, Type (0, 0), BuildingBlock: XIVTED_clean_linker_0, # of connection points: 2
#     Edge 54, Type (0, 0), BuildingBlock: XIVTED_clean_linker_0, # of connection points: 2
#     Edge 55, Type (0, 0), BuildingBlock: XIVTED_clean_linker_0, # of connection points: 2
#     Edge 56, Type (0, 0), BuildingBlock: XIVTED_clean_linker_0, # of connection points: 2
#     Edge 57, Type (0, 0), BuildingBlock: XIVTED_clean_linker_0, # of connection points: 2
#     Edge 58, Type (0, 0), BuildingBlock: XIVTED_clean_linker_0, # of connection points: 2
#     Edge 59, Type (0, 0), BuildingBlock: XIVTED_clean_linker_0, # of connection points: 2
#     Edge 60, Type (0, 0), BuildingBlock: XIVTED_clean_linker_0, # of connection points: 2
#     Edge 61, Type (0, 0), BuildingBlock: XIVTED_clean_linker_0, # of connection points: 2
#     Edge 62, Type (0, 0), BuildingBlock: XIVTED_clean_linker_0, # of connection points: 2
#     Edge 63, Type (0, 0), BuildingBlock: XIVTED_clean_linker_0, # of connection points: 2
#     Edge 64, Type (0, 0), BuildingBlock: XIVTED_clean_linker_0, # of connection points: 2
#     Edge 65, Type (0, 0), BuildingBlock: XIVTED_clean_linker_0, # of connection points: 2
#     Edge 66, Type (0, 0), BuildingBlock: XIVTED_clean_linker_0, # of connection points: 2
#     Edge 67, Type (0, 0), BuildingBlock: XIVTED_clean_linker_0, # of connection points: 2
#     Edge 68, Type (0, 0), BuildingBlock: XIVTED_clean_linker_0, # of connection points: 2
#     Edge 69, Type (0, 0), BuildingBlock: XIVTED_clean_linker_0, # of connection points: 2
#     Edge 70, Type (0, 0), BuildingBlock: XIVTED_clean_linker_0, # of connection points: 2
#     Edge 71, Type (0, 0), BuildingBlock: XIVTED_clean_linker_0, # of connection points: 2
#     Edge 72, Type (0, 0), BuildingBlock: XIVTED_clean_linker_0, # of connection points: 2
#     Edge 73, Type (0, 0), BuildingBlock: XIVTED_clean_linker_0, # of connection points: 2
#     Edge 74, Type (0, 0), BuildingBlock: XIVTED_clean_linker_0, # of connection points: 2
#     Edge 75, Type (0, 0), BuildingBlock: XIVTED_clean_linker_0, # of connection points: 2
#     Edge 76, Type (0, 0), BuildingBlock: XIVTED_clean_linker_0, # of connection points: 2
#     Edge 77, Type (0, 0), BuildingBlock: XIVTED_clean_linker_0, # of connection points: 2
#     Edge 78, Type (0, 0), BuildingBlock: XIVTED_clean_linker_0, # of connection points: 2
#     Edge 79, Type (0, 0), BuildingBlock: XIVTED_clean_linker_0, # of connection points: 2
#     Edge 80, Type (0, 0), BuildingBlock: XIVTED_clean_linker_0, # of connection points: 2
#     Edge 81, Type (0, 0), BuildingBlock: XIVTED_clean_linker_0, # of connection points: 2
#     Edge 82, Type (0, 0), BuildingBlock: XIVTED_clean_linker_0, # of connection points: 2
#     Edge 83, Type (0, 0), BuildingBlock: XIVTED_clean_linker_0, # of connection points: 2
#     Edge 84, Type (0, 0), BuildingBlock: XIVTED_clean_linker_0, # of connection points: 2
#     Edge 85, Type (0, 0), BuildingBlock: XIVTED_clean_linker_0, # of connection points: 2
#     Edge 86, Type (0, 0), BuildingBlock: XIVTED_clean_linker_0, # of connection points: 2
#     Edge 87, Type (0, 0), BuildingBlock: XIVTED_clean_linker_0, # of connection points: 2
#     Edge 88, Type (0, 0), BuildingBlock: XIVTED_clean_linker_0, # of connection points: 2
#     Edge 89, Type (0, 0), BuildingBlock: XIVTED_clean_linker_0, # of connection points: 2
#     Edge 90, Type (0, 0), BuildingBlock: XIVTED_clean_linker_0, # of connection points: 2
#     Edge 91, Type (0, 0), BuildingBlock: XIVTED_clean_linker_0, # of connection points: 2
#     Edge 92, Type (0, 0), BuildingBlock: XIVTED_clean_linker_0, # of connection points: 2
#     Edge 93, Type (0, 0), BuildingBlock: XIVTED_clean_linker_0, # of connection points: 2
#     Edge 94, Type (0, 0), BuildingBlock: XIVTED_clean_linker_0, # of connection points: 2
#     Edge 95, Type (0, 0), BuildingBlock: XIVTED_clean_linker_0, # of connection points: 2
# Relax obj value: 0.294
# Max RMSD: 0.283
# Mean RMSD: 0.283
data_MOF--net-sxg--node1-UKALOJ_clean_sbu_0--edge1-XIVTED_clean_linker_0
_symmetry_space_group_name_H-M    P1
_symmetry_Int_Tables_number       1
_symmetry_cell_setting            triclinic
loop_
_symmetry_equiv_pos_as_xyz
'x, y, z'
_cell_length_a     48.137988
_cell_length_b     48.105669
_cell_length_c     48.151571
_cell_angle_alpha  89.977269
_cell_angle_beta   90.002225
_cell_angle_gamma 89.990823
loop_
_atom_site_label
_atom_site_type_symbol
_atom_site_fract_x
_atom_site_fract_y
_atom_site_fract_z
_atom_type_partial_charge
Zn0 Zn 0.01454 0.26548 0.19472 0.0
O1 O 0.98505 0.26161 0.22631 0.0
C2 C 0.004 0.3271 0.19293 0.0
Zn3 Zn 0.04245 0.28997 0.2221 0.0
C4 C 0.98878 0.27418 0.24917 0.0
O5 O 0.01123 0.2875 0.25322 0.0
C6 C 0.06757 0.28089 0.1667 0.0
O7 O 0.05994 0.2528 0.23612 0.0
O8 O 0.03386 0.2276 0.20831 0.0
N9 N 0.06632 0.31291 0.24837 0.0
C10 C 0.09379 0.31811 0.24912 0.0
C11 C 0.0742 0.34677 0.27653 0.0
N12 N 0.05423 0.33052 0.26568 0.0
N13 N 0.09927 0.33962 0.26633 0.0
C14 C 0.96392 0.25106 0.15781 0.0
C15 C 0.98212 0.22335 0.12857 0.0
N16 N 0.9896 0.24476 0.16714 0.0
N17 N 0.00065 0.22712 0.14918 0.0
N18 N 0.95886 0.23825 0.13333 0.0
H19 H 0.95306 0.28004 0.19085 0.0
H20 H 0.92506 0.26026 0.1773 0.0
H21 H 0.93899 0.2881 0.15687 0.0
C22 C 0.94447 0.27121 0.17156 0.0
C23 C 0.1152 0.301 0.23437 0.0
H24 H 0.10801 0.27922 0.23216 0.0
H25 H 0.1352 0.3014 0.24584 0.0
H26 H 0.1187 0.30959 0.21335 0.0
O27 O 0.07277 0.29227 0.18996 0.0
O28 O 0.04435 0.26899 0.16312 0.0
C29 C 0.0528 0.22914 0.22679 0.0
O30 O 0.99588 0.30424 0.18251 0.0
O31 O 0.02481 0.32703 0.20895 0.0
Zn32 Zn 0.48135 0.73024 0.69617 0.0
O33 O 0.51164 0.73564 0.72686 0.0
C34 C 0.49442 0.66904 0.69389 0.0
Zn35 Zn 0.455 0.70451 0.72374 0.0
C36 C 0.5092 0.72206 0.74933 0.0
O37 O 0.48751 0.70754 0.75349 0.0
C38 C 0.42742 0.71299 0.66965 0.0
O39 O 0.4372 0.74139 0.73872 0.0
O40 O 0.46094 0.7673 0.70948 0.0
N41 N 0.43284 0.6809 0.75089 0.0
C42 C 0.40541 0.67609 0.75334 0.0
C43 C 0.42633 0.64617 0.77835 0.0
N44 N 0.44579 0.66253 0.76673 0.0
N45 N 0.40075 0.65405 0.77013 0.0
C46 C 0.53073 0.74553 0.65943 0.0
C47 C 0.51034 0.76365 0.62467 0.0
N48 N 0.50436 0.75089 0.66711 0.0
N49 N 0.49184 0.76258 0.6456 0.0
N50 N 0.53486 0.75265 0.63259 0.0
H51 H 0.55331 0.75079 0.69729 0.0
H52 H 0.57396 0.73723 0.66942 0.0
H53 H 0.54893 0.7154 0.68711 0.0
C54 C 0.55311 0.73654 0.6792 0.0
C55 C 0.3833 0.69393 0.74057 0.0
H56 H 0.39052 0.71571 0.73867 0.0
H57 H 0.36405 0.69328 0.75323 0.0
H58 H 0.37842 0.68619 0.7195 0.0
O59 O 0.42306 0.70167 0.69311 0.0
O60 O 0.4505 0.72494 0.66538 0.0
C61 C 0.44289 0.7652 0.72877 0.0
O62 O 0.50182 0.69252 0.68431 0.0
O63 O 0.47323 0.66778 0.70942 0.0
Zn64 Zn 0.53864 0.20486 0.76461 0.0
O65 O 0.55804 0.24109 0.74979 0.0
C66 C 0.56496 0.2124 0.8191 0.0
Zn67 Zn 0.51216 0.23113 0.79161 0.0
C68 C 0.55219 0.26504 0.75932 0.0
O69 O 0.53352 0.26746 0.77794 0.0
C70 C 0.49794 0.17051 0.79457 0.0
O71 O 0.48231 0.23687 0.7608 0.0
O72 O 0.50682 0.20894 0.7343 0.0
N73 N 0.48988 0.25316 0.82012 0.0
C74 C 0.4637 0.24857 0.82883 0.0
C75 C 0.48509 0.26895 0.86167 0.0
N76 N 0.50302 0.26628 0.84039 0.0
N77 N 0.46032 0.25762 0.85516 0.0
C78 C 0.58777 0.17426 0.73642 0.0
C79 C 0.56633 0.14514 0.71094 0.0
N80 N 0.5605 0.18028 0.73804 0.0
N81 N 0.54725 0.16237 0.72192 0.0
N82 N 0.59196 0.15195 0.71988 0.0
H83 H 0.60383 0.21328 0.7514 0.0
H84 H 0.62976 0.18976 0.7376 0.0
H85 H 0.61425 0.18335 0.77096 0.0
C86 C 0.61023 0.19122 0.74975 0.0
C87 C 0.44072 0.23841 0.81037 0.0
H88 H 0.44023 0.25119 0.79121 0.0
H89 H 0.42018 0.24009 0.82068 0.0
H90 H 0.4444 0.21669 0.80403 0.0
O91 O 0.49086 0.19413 0.80402 0.0
O92 O 0.51895 0.16889 0.77883 0.0
C93 C 0.48515 0.22356 0.73822 0.0
O94 O 0.56967 0.20087 0.79585 0.0
O95 O 0.54232 0.22534 0.8226 0.0
Zn96 Zn 0.95391 0.78676 0.26431 0.0
O97 O 0.93574 0.74971 0.25046 0.0
C98 C 0.92917 0.77689 0.32001 0.0
Zn99 Zn 0.98163 0.76131 0.29114 0.0
C100 C 0.94232 0.72589 0.25974 0.0
O101 O 0.96139 0.7239 0.278 0.0
C102 C 0.99394 0.82288 0.29263 0.0
O103 O 0.01042 0.75734 0.25866 0.0
O104 O 0.9844 0.78443 0.23259 0.0
N105 N 0.0063 0.73961 0.31835 0.0
C106 C 0.03183 0.74539 0.32835 0.0
C107 C 0.01251 0.71784 0.35698 0.0
N108 N 0.99459 0.72198 0.33592 0.0
N109 N 0.03607 0.73247 0.35295 0.0
C110 C 0.91002 0.8292 0.24518 0.0
C111 C 0.90667 0.82176 0.20165 0.0
N112 N 0.92818 0.80886 0.23888 0.0
N113 N 0.92618 0.80432 0.21179 0.0
N114 N 0.89618 0.83739 0.22232 0.0
H115 H 0.88893 0.83182 0.28415 0.0
H116 H 0.90148 0.8645 0.2714 0.0
H117 H 0.92535 0.83978 0.28623 0.0
C118 C 0.9065 0.84206 0.27336 0.0
C119 C 0.05202 0.76486 0.31486 0.0
H120 H 0.04391 0.77361 0.29527 0.0
H121 H 0.07127 0.75335 0.30964 0.0
H122 H 0.05762 0.78167 0.32958 0.0
O123 O 0.00142 0.79963 0.30279 0.0
O124 O 0.9727 0.82375 0.27713 0.0
C125 C 0.00662 0.77051 0.23608 0.0
O126 O 0.92394 0.78818 0.29674 0.0
O127 O 0.95247 0.76517 0.32359 0.0
Zn128 Zn 0.2256 0.04027 0.2869 0.0
O129 O 0.23962 0.05822 0.24981 0.0
C130 C 0.17026 0.0659 0.2772 0.0
Zn131 Zn 0.19842 0.01298 0.26139 0.0
C132 C 0.23028 0.05188 0.22597 0.0
O133 O 0.21162 0.03318 0.2239 0.0
C134 C 0.19717 0.00036 0.32301 0.0
O135 O 0.23056 0.98382 0.25706 0.0
O136 O 0.25683 0.00934 0.28438 0.0
N137 N 0.17071 0.98862 0.2399 0.0
C138 C 0.16059 0.96311 0.24566 0.0
C139 C 0.13184 0.98277 0.21847 0.0
N140 N 0.15305 0.00055 0.22252 0.0
N141 N 0.13583 0.95909 0.23294 0.0
C142 C 0.24577 0.08376 0.32926 0.0
C143 C 0.2894 0.08593 0.32189 0.0
N144 N 0.2516 0.06553 0.30886 0.0
N145 N 0.27874 0.0668 0.30435 0.0
N146 N 0.269 0.09692 0.33753 0.0
H147 H 0.20727 0.10573 0.33182 0.0
H148 H 0.21973 0.09298 0.36452 0.0
H149 H 0.20441 0.06935 0.33988 0.0
C150 C 0.21767 0.08795 0.34212 0.0
C151 C 0.17422 0.94269 0.2648 0.0
H152 H 0.1938 0.95074 0.27357 0.0
H153 H 0.17952 0.92363 0.25301 0.0
H154 H 0.15959 0.93678 0.28158 0.0
O155 O 0.18687 0.99311 0.29978 0.0
O156 O 0.2127 0.0216 0.32395 0.0
C157 C 0.25317 0.98729 0.27024 0.0
O158 O 0.19362 0.07078 0.28844 0.0
O159 O 0.16632 0.04261 0.26553 0.0
Zn160 Zn 0.29318 0.97934 0.7622 0.0
O161 O 0.26222 0.00969 0.75883 0.0
C162 C 0.29422 0.98848 0.82395 0.0
Zn163 Zn 0.26498 0.95127 0.78556 0.0
C164 C 0.23916 0.00597 0.77104 0.0
O165 O 0.23454 0.98312 0.78348 0.0
C166 C 0.32009 0.92526 0.77656 0.0
O167 O 0.25114 0.93496 0.74775 0.0
O168 O 0.27974 0.96133 0.72374 0.0
N169 N 0.23788 0.92741 0.80753 0.0
C170 C 0.23664 0.89984 0.81213 0.0
C171 C 0.20959 0.9193 0.84121 0.0
N172 N 0.22075 0.93943 0.82536 0.0
N173 N 0.21937 0.89419 0.83355 0.0
C174 C 0.33151 0.02947 0.74976 0.0
C175 C 0.36041 0.01146 0.72158 0.0
N176 N 0.32152 0.00428 0.74251 0.0
N177 N 0.33927 0.99337 0.72458 0.0
N178 N 0.35622 0.0343 0.73729 0.0
H179 H 0.2983 0.0404 0.7785 0.0
H180 H 0.31328 0.06867 0.76021 0.0
H181 H 0.33264 0.0528 0.78779 0.0
C182 C 0.31809 0.0486 0.77042 0.0
C183 C 0.25094 0.87855 0.79451 0.0
H184 H 0.253 0.88612 0.77285 0.0
H185 H 0.23922 0.85868 0.7947 0.0
H186 H 0.27202 0.87463 0.80274 0.0
O187 O 0.29661 0.92016 0.78755 0.0
O188 O 0.32415 0.94874 0.7653 0.0
C189 C 0.26093 0.94265 0.72447 0.0
O190 O 0.30527 0.9967 0.80144 0.0
O191 O 0.27784 0.96793 0.82328 0.0
Zn192 Zn 0.70008 0.48041 0.73032 0.0
O193 O 0.73156 0.51015 0.73567 0.0
C194 C 0.70026 0.49203 0.66864 0.0
Zn195 Zn 0.72861 0.45341 0.70599 0.0
C196 C 0.75465 0.5071 0.72322 0.0
O197 O 0.75914 0.48513 0.7092 0.0
C198 C 0.6735 0.42688 0.71389 0.0
O199 O 0.74178 0.43615 0.74355 0.0
O200 O 0.71226 0.46062 0.76833 0.0
N201 N 0.7558 0.4286 0.68497 0.0
C202 C 0.75098 0.41026 0.66441 0.0
C203 C 0.79451 0.40954 0.67259 0.0
N204 N 0.78288 0.42822 0.68999 0.0
N205 N 0.77479 0.39792 0.65653 0.0
C206 C 0.66114 0.52994 0.74409 0.0
C207 C 0.63144 0.51028 0.77021 0.0
N208 N 0.67123 0.50456 0.75051 0.0
N209 N 0.65295 0.49263 0.76723 0.0
N210 N 0.63584 0.53387 0.7557 0.0
H211 H 0.69537 0.54235 0.71744 0.0
H212 H 0.67993 0.56954 0.73702 0.0
H213 H 0.66139 0.55577 0.70779 0.0
C214 C 0.67534 0.55028 0.72528 0.0
C215 C 0.72329 0.40527 0.65091 0.0
H216 H 0.71316 0.38722 0.66102 0.0
H217 H 0.72597 0.40031 0.62857 0.0
H218 H 0.70943 0.42346 0.6528 0.0
O219 O 0.6974 0.42221 0.70375 0.0
O220 O 0.66871 0.45022 0.72514 0.0
C221 C 0.73136 0.4423 0.76698 0.0
O222 O 0.68942 0.49966 0.69149 0.0
O223 O 0.71634 0.47121 0.66849 0.0
Zn224 Zn 0.76287 0.54037 0.20244 0.0
O225 O 0.74883 0.55615 0.24022 0.0
C226 C 0.81719 0.56772 0.2107 0.0
Zn227 Zn 0.79168 0.51283 0.22553 0.0
C228 C 0.75919 0.54896 0.2634 0.0
O229 O 0.77859 0.53088 0.26402 0.0
C230 C 0.7925 0.50348 0.16404 0.0
O231 O 0.7615 0.48183 0.22945 0.0
O232 O 0.73324 0.50771 0.2047 0.0
N233 N 0.82145 0.48915 0.24446 0.0
C234 C 0.83073 0.46373 0.23721 0.0
C235 C 0.86336 0.48385 0.25923 0.0
N236 N 0.84163 0.50145 0.25851 0.0
N237 N 0.85729 0.46014 0.24559 0.0
C238 C 0.73274 0.59114 0.17682 0.0
C239 C 0.70718 0.57139 0.14662 0.0
N240 N 0.7351 0.56352 0.18064 0.0
N241 N 0.71889 0.5513 0.16212 0.0
N242 N 0.7157 0.59667 0.15518 0.0
H243 H 0.74742 0.60449 0.21691 0.0
H244 H 0.73328 0.63192 0.19535 0.0
H245 H 0.76691 0.61739 0.18797 0.0
C246 C 0.74573 0.6125 0.19539 0.0
C247 C 0.81287 0.4415 0.22458 0.0
H248 H 0.79259 0.44082 0.23536 0.0
H249 H 0.82268 0.42073 0.2266 0.0
H250 H 0.80902 0.44587 0.20239 0.0
O251 O 0.80333 0.49503 0.18657 0.0
O252 O 0.77621 0.52412 0.16472 0.0
C253 C 0.73832 0.48501 0.21726 0.0
O254 O 0.79343 0.57249 0.20023 0.0
O255 O 0.82188 0.54419 0.22157 0.0
Zn256 Zn 0.26768 0.20044 0.01185 0.0
O257 O 0.26355 0.23182 0.98194 0.0
C258 C 0.32912 0.19969 0.00188 0.0
Zn259 Zn 0.2912 0.22809 0.04021 0.0
C260 C 0.27574 0.25487 0.98605 0.0
O261 O 0.28862 0.25887 0.00875 0.0
C262 C 0.28267 0.17299 0.06585 0.0
O263 O 0.25377 0.24184 0.05682 0.0
O264 O 0.22941 0.21333 0.03069 0.0
N265 N 0.31336 0.25505 0.06394 0.0
C266 C 0.31754 0.25672 0.09152 0.0
C267 C 0.34703 0.28334 0.07206 0.0
N268 N 0.33145 0.27189 0.0519 0.0
N269 N 0.33894 0.27402 0.09719 0.0
C270 C 0.25529 0.16179 0.96228 0.0
C271 C 0.23018 0.13092 0.98158 0.0
N272 N 0.24808 0.17155 0.98753 0.0
N273 N 0.23215 0.15248 -0.00069 0.0
N274 N 0.2449 0.136 0.95831 0.0
H275 H 0.26396 0.20046 0.94146 0.0
H276 H 0.26599 0.17025 0.91956 0.0
H277 H 0.29304 0.17739 0.94423 0.0
C278 C 0.27041 0.17841 0.94065 0.0
C279 C 0.29952 0.24277 0.11274 0.0
H280 H 0.27795 0.24076 0.10494 0.0
H281 H 0.29949 0.25472 0.13245 0.0
H282 H 0.30754 0.22163 0.11697 0.0
O283 O 0.2935 0.19648 0.07123 0.0
O284 O 0.27165 0.16913 0.04225 0.0
C285 C 0.23041 0.23211 0.04938 0.0
O286 O 0.30648 0.18919 0.99327 0.0
O287 O 0.32867 0.21519 0.0231 0.0
Zn288 Zn 0.75867 0.29202 0.98144 0.0
O289 O 0.75382 0.26099 0.01139 0.0
C290 C 0.82002 0.29389 0.99327 0.0
Zn291 Zn 0.78357 0.26418 0.95455 0.0
C292 C 0.76684 0.2382 0.00853 0.0
O293 O 0.78106 0.23392 0.98666 0.0
C294 C 0.77464 0.3188 0.92773 0.0
O295 O 0.74641 0.24969 0.93735 0.0
O296 O 0.7212 0.27894 0.96173 0.0
N297 N 0.80553 0.2372 0.93035 0.0
C298 C 0.82607 0.24232 0.91209 0.0
C299 C 0.81921 0.19852 0.9121 0.0
N300 N 0.80132 0.20996 0.93043 0.0
N301 N 0.83476 0.21853 0.90026 0.0
C302 C 0.7439 0.3293 0.03072 0.0
C303 C 0.72322 0.36259 0.01026 0.0
N304 N 0.73807 0.32075 0.00475 0.0
N305 N 0.72477 0.3413 0.99221 0.0
N306 N 0.73547 0.35582 0.03452 0.0
H307 H 0.74143 0.2915 0.05398 0.0
H308 H 0.75365 0.32064 0.07387 0.0
H309 H 0.77595 0.3038 0.04873 0.0
C310 C 0.75449 0.31048 0.05322 0.0
C311 C 0.83872 0.27033 0.90664 0.0
H312 H 0.8283 0.27987 0.88844 0.0
H313 H 0.86115 0.26826 0.9017 0.0
H314 H 0.83642 0.28441 0.92459 0.0
O315 O 0.78518 0.2951 0.92287 0.0
O316 O 0.76344 0.3232 0.95111 0.0
C317 C 0.7228 0.25969 0.94362 0.0
O318 O 0.79683 0.30379 0.00113 0.0
O319 O 0.82062 0.27789 0.97239 0.0
Zn320 Zn 0.73218 0.69598 0.47925 0.0
O321 O 0.73677 0.72742 0.50887 0.0
C322 C 0.6708 0.69448 0.49065 0.0
Zn323 Zn 0.70754 0.72351 0.45166 0.0
C324 C 0.72408 0.75029 0.50534 0.0
O325 O 0.71049 0.75437 0.48306 0.0
C326 C 0.71577 0.66821 0.42625 0.0
O327 O 0.74436 0.73764 0.43378 0.0
O328 O 0.76971 0.70941 0.45925 0.0
N329 N 0.68432 0.74998 0.42829 0.0
C330 C 0.67903 0.7509 0.40085 0.0
C331 C 0.64991 0.77758 0.42079 0.0
N332 N 0.66645 0.76685 0.44061 0.0
N333 N 0.65716 0.76775 0.39561 0.0
C334 C 0.74771 0.65812 0.52886 0.0
C335 C 0.77523 0.62943 0.50951 0.0
N336 N 0.75345 0.66807 0.5033 0.0
N337 N 0.771 0.65047 0.49154 0.0
N338 N 0.76075 0.63359 0.53312 0.0
H339 H 0.71927 0.69109 0.5411 0.0
H340 H 0.73868 0.67594 0.56857 0.0
H341 H 0.71066 0.65654 0.55361 0.0
C342 C 0.72775 0.67126 0.54888 0.0
C343 C 0.69636 0.7367 0.37924 0.0
H344 H 0.71821 0.73495 0.38628 0.0
H345 H 0.69556 0.74832 0.35934 0.0
H346 H 0.68831 0.71548 0.37562 0.0
O347 O 0.70467 0.69164 0.42115 0.0
O348 O 0.72783 0.66447 0.44934 0.0
C349 C 0.76803 0.72807 0.44049 0.0
O350 O 0.69367 0.68402 0.49872 0.0
O351 O 0.67078 0.71028 0.46966 0.0
Zn352 Zn 0.20331 0.76718 0.53954 0.0
O353 O 0.23987 0.75442 0.55938 0.0
C354 C 0.21118 0.82325 0.56326 0.0
Zn355 Zn 0.2285 0.79372 0.51112 0.0
C356 C 0.26372 0.76302 0.55198 0.0
O357 O 0.26571 0.78019 0.53186 0.0
C358 C 0.16752 0.79474 0.49808 0.0
O359 O 0.2326 0.76138 0.48203 0.0
O360 O 0.20805 0.73482 0.50997 0.0
N361 N 0.25039 0.82135 0.48682 0.0
C362 C 0.24458 0.8317 0.46141 0.0
C363 C 0.27172 0.86035 0.48123 0.0
N364 N 0.26775 0.83895 0.49884 0.0
N365 N 0.25721 0.85657 0.45757 0.0
C366 C 0.1738 0.74181 0.59102 0.0
C367 C 0.14521 0.71406 0.57179 0.0
N368 N 0.17948 0.74168 0.56362 0.0
N369 N 0.16188 0.72418 0.55177 0.0
N370 N 0.15203 0.72496 0.59666 0.0
H371 H 0.21249 0.75918 0.60534 0.0
H372 H 0.18999 0.74613 0.63252 0.0
H373 H 0.18201 0.77824 0.61513 0.0
C374 C 0.19064 0.75711 0.61226 0.0
C375 C 0.2255 0.81815 0.44092 0.0
H376 H 0.217 0.79835 0.44877 0.0
H377 H 0.23725 0.81322 0.42176 0.0
H378 H 0.20852 0.83269 0.43533 0.0
O379 O 0.19055 0.80556 0.49099 0.0
O380 O 0.1668 0.77907 0.5192 0.0
C381 C 0.22093 0.73823 0.48714 0.0
O382 O 0.19904 0.80038 0.56841 0.0
O383 O 0.22433 0.82595 0.54059 0.0
Zn384 Zn 0.95431 0.7062 0.77122 0.0
O385 O 0.93499 0.74237 0.7565 0.0
C386 C 0.92774 0.7145 0.82597 0.0
Zn387 Zn 0.98053 0.73301 0.79826 0.0
C388 C 0.94044 0.76655 0.76567 0.0
O389 O 0.95895 0.7695 0.78442 0.0
C390 C 0.99498 0.67187 0.80063 0.0
O391 O 0.0101 0.73867 0.76661 0.0
O392 O 0.9858 0.71017 0.74052 0.0
N393 N 0.00372 0.75523 0.82654 0.0
C394 C 0.02942 0.75013 0.83657 0.0
C395 C 0.00862 0.77541 0.86621 0.0
N396 N 0.99106 0.77143 0.84479 0.0
N397 N 0.03288 0.76208 0.86177 0.0
C398 C 0.9046 0.67589 0.74346 0.0
C399 C 0.92563 0.64685 0.71754 0.0
N400 N 0.93192 0.6817 0.74491 0.0
N401 N 0.94492 0.66384 0.72854 0.0
N402 N 0.90011 0.65376 0.72673 0.0
H403 H 0.889 0.71488 0.75901 0.0
H404 H 0.86278 0.69184 0.74499 0.0
H405 H 0.87836 0.68478 0.7782 0.0
C406 C 0.88237 0.69291 0.75709 0.0
C407 C 0.05047 0.73188 0.82266 0.0
H408 H 0.04297 0.72358 0.80269 0.0
H409 H 0.06937 0.74421 0.81812 0.0
H410 H 0.05642 0.71467 0.8368 0.0
O411 O 0.00175 0.69549 0.81033 0.0
O412 O 0.97386 0.67012 0.78509 0.0
C413 C 0.00726 0.72518 0.7441 0.0
O414 O 0.92364 0.70256 0.80278 0.0
O415 O 0.95026 0.72765 0.8298 0.0
Zn416 Zn 0.51651 0.2692 0.29202 0.0
O417 O 0.48588 0.26464 0.26141 0.0
C418 C 0.51074 0.33145 0.28737 0.0
Zn419 Zn 0.54467 0.28855 0.26103 0.0
C420 C 0.48926 0.2753 0.23751 0.0
O421 O 0.51225 0.28683 0.23145 0.0
C422 C 0.57182 0.28168 0.31624 0.0
O423 O 0.55751 0.24874 0.25003 0.0
O424 O 0.53233 0.22841 0.28226 0.0
N425 N 0.5708 0.30526 0.23211 0.0
C426 C 0.5908 0.32455 0.23531 0.0
C427 C 0.58973 0.31391 0.19233 0.0
N428 N 0.57008 0.29868 0.20538 0.0
N429 N 0.60308 0.33004 0.21083 0.0
C430 C 0.46642 0.26367 0.33217 0.0
C431 C 0.48286 0.23657 0.36302 0.0
N432 N 0.49098 0.25406 0.32261 0.0
N433 N 0.501 0.23701 0.34173 0.0
N434 N 0.46112 0.25347 0.35781 0.0
H435 H 0.44886 0.27745 0.29324 0.0
H436 H 0.4251 0.27777 0.32206 0.0
H437 H 0.45175 0.30377 0.31934 0.0
C438 C 0.44692 0.2816 0.31571 0.0
C439 C 0.59755 0.33931 0.26196 0.0
H440 H 0.61574 0.3291 0.27172 0.0
H441 H 0.6032 0.36128 0.2578 0.0
H442 H 0.58006 0.33893 0.27676 0.0
O443 O 0.57672 0.28949 0.29152 0.0
O444 O 0.54762 0.27343 0.3225 0.0
C445 C 0.5497 0.22672 0.26231 0.0
O446 O 0.50115 0.31036 0.30011 0.0
O447 O 0.53102 0.32827 0.27097 0.0
Zn448 Zn 0.4536 0.79007 0.22828 0.0
O449 O 0.43396 0.75348 0.24156 0.0
C450 C 0.42766 0.7844 0.17339 0.0
Zn451 Zn 0.47989 0.76359 0.20119 0.0
C452 C 0.43904 0.72956 0.23159 0.0
O453 O 0.45746 0.72696 0.21272 0.0
C454 C 0.49593 0.82437 0.20215 0.0
O455 O 0.50896 0.7556 0.23238 0.0
O456 O 0.48517 0.78447 0.25866 0.0
N457 N 0.50223 0.74272 0.17138 0.0
C458 C 0.52678 0.74977 0.15988 0.0
C459 C 0.50544 0.72464 0.13046 0.0
N460 N 0.48917 0.72675 0.15316 0.0
N461 N 0.52902 0.7393 0.13396 0.0
C462 C 0.40396 0.81919 0.25688 0.0
C463 C 0.42467 0.84845 0.28279 0.0
N464 N 0.43134 0.81363 0.25547 0.0
N465 N 0.44415 0.8316 0.27188 0.0
N466 N 0.39924 0.84131 0.27351 0.0
H467 H 0.3885 0.78005 0.24148 0.0
H468 H 0.36218 0.80316 0.25517 0.0
H469 H 0.37791 0.80994 0.222 0.0
C470 C 0.38186 0.80202 0.2432 0.0
C471 C 0.54926 0.76556 0.17448 0.0
H472 H 0.54706 0.76384 0.1973 0.0
H473 H 0.56993 0.75755 0.16811 0.0
H474 H 0.54826 0.78772 0.16855 0.0
O475 O 0.50244 0.80081 0.19214 0.0
O476 O 0.47375 0.82659 0.21607 0.0
C477 C 0.50631 0.76898 0.25498 0.0
O478 O 0.42285 0.79534 0.1969 0.0
O479 O 0.45033 0.7715 0.16975 0.0
Zn480 Zn 0.04196 0.20564 0.73571 0.0
O481 O 0.05956 0.24318 0.74803 0.0
C482 C 0.06686 0.21213 0.6798 0.0
Zn483 Zn 0.01378 0.22864 0.70741 0.0
C484 C 0.05239 0.26634 0.73758 0.0
O485 O 0.03337 0.26698 0.71914 0.0
C486 C 0.00293 0.16734 0.70847 0.0
O487 O 0.98439 0.23391 0.73884 0.0
O488 O 0.01096 0.20963 0.7669 0.0
N489 N 0.98951 0.24821 0.67854 0.0
C490 C 0.96464 0.2407 0.66807 0.0
C491 C 0.98344 0.26812 0.63889 0.0
N492 N 0.00099 0.26555 0.66053 0.0
N493 N 0.96061 0.2524 0.64287 0.0
C494 C 0.09359 0.17913 0.76334 0.0
C495 C 0.07463 0.14933 0.78997 0.0
N496 N 0.066 0.18366 0.76261 0.0
N497 N 0.05429 0.16539 0.7795 0.0
N498 N 0.09955 0.15728 0.77998 0.0
H499 H 0.1071 0.21899 0.74802 0.0
H500 H 0.13469 0.19669 0.76057 0.0
H501 H 0.11818 0.18981 0.72779 0.0
C502 C 0.11463 0.19726 0.74922 0.0
C503 C 0.9435 0.22363 0.68334 0.0
H504 H 0.94529 0.22677 0.70602 0.0
H505 H 0.9222 0.2293 0.67658 0.0
H506 H 0.94669 0.20133 0.67893 0.0
O507 O 0.99458 0.18972 0.69719 0.0
O508 O 0.02396 0.1681 0.72421 0.0
C509 C 0.98836 0.22256 0.76233 0.0
O510 O 0.07234 0.20188 0.70352 0.0
O511 O 0.04347 0.22355 0.67591 0.0
Zn512 Zn 0.76288 0.95052 0.70229 0.0
O513 O 0.74915 0.93259 0.73927 0.0
C514 C 0.81823 0.92481 0.71003 0.0
Zn515 Zn 0.79053 0.978 0.72679 0.0
C516 C 0.75924 0.93891 0.76281 0.0
O517 O 0.77808 0.95751 0.76438 0.0
C518 C 0.79109 0.99024 0.66565 0.0
O519 O 0.75912 0.00738 0.73238 0.0
O520 O 0.73209 0.98207 0.70574 0.0
N521 N 0.81925 0.00187 0.74711 0.0
C522 C 0.82902 0.02729 0.74045 0.0
C523 C 0.85966 0.00758 0.76552 0.0
N524 N 0.83818 0.98982 0.76302 0.0
N525 N 0.85467 0.03113 0.75118 0.0
C526 C 0.73475 0.89977 0.67447 0.0
C527 C 0.70869 0.9197 0.64478 0.0
N528 N 0.73611 0.92729 0.6793 0.0
N529 N 0.71959 0.93961 0.66109 0.0
N530 N 0.71805 0.89446 0.65253 0.0
H531 H 0.75014 0.88545 0.71398 0.0
H532 H 0.73663 0.85841 0.69157 0.0
H533 H 0.76972 0.87418 0.68442 0.0
C534 C 0.74849 0.87818 0.69222 0.0
C535 C 0.81263 0.04914 0.72534 0.0
H536 H 0.79036 0.04778 0.73077 0.0
H537 H 0.82028 0.07021 0.73078 0.0
H538 H 0.81472 0.0464 0.70266 0.0
O539 O 0.80142 -0.00183 0.6886 0.0
O540 O 0.77575 0.96888 0.66532 0.0
C541 C 0.73618 0.00407 0.7198 0.0
O542 O 0.79471 0.91953 0.69923 0.0
O543 O 0.82201 0.9482 0.72151 0.0
Zn544 Zn 0.69821 0.01115 0.23683 0.0
O545 O 0.73071 0.98239 0.24113 0.0
C546 C 0.69416 0.99619 0.17622 0.0
Zn547 Zn 0.72345 0.03842 0.20936 0.0
C548 C 0.75298 0.98652 0.22757 0.0
O549 O 0.75553 0.00846 0.21306 0.0
C550 C 0.66806 0.06284 0.219 0.0
O551 O 0.73836 0.05901 0.24479 0.0
O552 O 0.71293 0.03314 0.27255 0.0
N553 N 0.74823 0.06135 0.18397 0.0
C554 C 0.74863 0.08863 0.17771 0.0
C555 C 0.77556 0.06813 0.1492 0.0
N556 N 0.76521 0.0487 0.16643 0.0
N557 N 0.76535 0.0934 0.15566 0.0
C558 C 0.66133 0.96209 0.25629 0.0
C559 C 0.63333 0.98288 0.2834 0.0
N560 N 0.67161 0.98779 0.26067 0.0
N561 N 0.65444 0.00044 0.27804 0.0
N562 N 0.63701 0.95861 0.26989 0.0
H563 H 0.69394 0.94806 0.22853 0.0
H564 H 0.67697 0.92132 0.24778 0.0
H565 H 0.65883 0.9373 0.21951 0.0
C566 C 0.67362 0.94125 0.23673 0.0
C567 C 0.73391 0.11056 0.1942 0.0
H568 H 0.73223 0.10431 0.21628 0.0
H569 H 0.74507 0.1307 0.19275 0.0
H570 H 0.71262 0.1134 0.18594 0.0
O571 O 0.69052 0.06768 0.206 0.0
O572 O 0.66574 0.04044 0.2327 0.0
C573 C 0.73047 0.05272 0.26918 0.0
O574 O 0.68507 0.98941 0.20008 0.0
O575 O 0.70941 0.01752 0.17397 0.0
Zn576 Zn 0.29547 0.51565 0.26543 0.0
O577 O 0.26524 0.48592 0.2561 0.0
C578 C 0.29184 0.4999 0.32599 0.0
Zn579 Zn 0.2666 0.54202 0.29021 0.0
C580 C 0.24175 0.48871 0.26778 0.0
O581 O 0.23691 0.51013 0.28254 0.0
C582 C 0.32162 0.56825 0.28711 0.0
O583 O 0.25543 0.56214 0.25308 0.0
O584 O 0.28528 0.53787 0.2284 0.0
N585 N 0.23706 0.56373 0.31205 0.0
C586 C 0.2355 0.59026 0.32099 0.0
C587 C 0.20391 0.56746 0.34193 0.0
N588 N 0.21706 0.54976 0.32476 0.0
N589 N 0.215 0.5931 0.33998 0.0
C590 C 0.33853 0.46976 0.25303 0.0
C591 C 0.36714 0.49124 0.22706 0.0
N592 N 0.32642 0.49393 0.24569 0.0
N593 N 0.34413 0.50709 0.22922 0.0
N594 N 0.36431 0.46784 0.24217 0.0
H595 H 0.30178 0.44894 0.268 0.0
H596 H 0.33156 0.42663 0.2623 0.0
H597 H 0.33073 0.44934 0.29171 0.0
C598 C 0.32468 0.44739 0.26965 0.0
C599 C 0.2557 0.61257 0.31306 0.0
H600 H 0.26289 0.60947 0.29141 0.0
H601 H 0.24636 0.6335 0.31447 0.0
H602 H 0.27367 0.61181 0.32747 0.0
O603 O 0.29768 0.57273 0.29727 0.0
O604 O 0.32603 0.54561 0.27445 0.0
C605 C 0.26661 0.55663 0.22979 0.0
O606 O 0.30335 0.49354 0.30309 0.0
O607 O 0.2769 0.52154 0.32724 0.0
Zn608 Zn 0.229 0.45465 0.78915 0.0
O609 O 0.24156 0.43744 0.75122 0.0
C610 C 0.17358 0.42851 0.78154 0.0
Zn611 Zn 0.20037 0.48182 0.76509 0.0
C612 C 0.23109 0.4439 0.72788 0.0
O613 O 0.21212 0.46236 0.72682 0.0
C614 C 0.20138 0.49339 0.82691 0.0
O615 O 0.23195 0.51139 0.75981 0.0
O616 O 0.25971 0.48596 0.78574 0.0
N617 N 0.17159 0.50629 0.74527 0.0
C618 C 0.16206 0.53195 0.75142 0.0
C619 C 0.1318 0.51257 0.72571 0.0
N620 N 0.15297 0.49453 0.72883 0.0
N621 N 0.13683 0.53625 0.73981 0.0
C622 C 0.25163 0.41075 0.82988 0.0
C623 C 0.29478 0.40882 0.82008 0.0
N624 N 0.25627 0.42935 0.8095 0.0
N625 N 0.28313 0.42824 0.80349 0.0
N626 N 0.2753 0.39752 0.83663 0.0
H627 H 0.21373 0.38811 0.83439 0.0
H628 H 0.22757 0.40113 0.86637 0.0
H629 H 0.21057 0.42446 0.84253 0.0
C630 C 0.22428 0.40611 0.84411 0.0
C631 C 0.17659 0.5522 0.77008 0.0
H632 H 0.19621 0.54382 0.77847 0.0
H633 H 0.18188 0.57111 0.75804 0.0
H634 H 0.16252 0.55849 0.78719 0.0
O635 O 0.19014 0.50086 0.80417 0.0
O636 O 0.21743 0.47253 0.82695 0.0
C637 C 0.25514 0.50811 0.77201 0.0
O638 O 0.19747 0.4238 0.79172 0.0
O639 O 0.16887 0.4518 0.77017 0.0
Zn640 Zn 0.72476 0.79261 0.97907 0.0
O641 O 0.72856 0.76164 0.00939 0.0
C642 C 0.66264 0.79166 0.98695 0.0
Zn643 Zn 0.70259 0.76342 0.95099 0.0
C644 C 0.71672 0.73834 0.00588 0.0
O645 O 0.7044 0.73327 0.98308 0.0
C646 C 0.71097 0.81876 0.92477 0.0
O647 O 0.74108 0.75017 0.93611 0.0
O648 O 0.76418 0.78034 0.96158 0.0
N649 N 0.68189 0.73577 0.92655 0.0
C650 C 0.67815 0.73452 0.89887 0.0
C651 C 0.64874 0.70715 0.91738 0.0
N652 N 0.66386 0.71844 0.93799 0.0
N653 N 0.65706 0.71706 0.89255 0.0
C654 C 0.73523 0.83081 0.03001 0.0
C655 C 0.76249 0.86109 0.01277 0.0
N656 N 0.74285 0.82165 0.0046 0.0
N657 N 0.76014 0.84032 0.99416 0.0
N658 N 0.747 0.85574 0.03548 0.0
H659 H 0.70701 0.7968 0.03988 0.0
H660 H 0.72457 0.81163 0.06871 0.0
H661 H 0.69686 0.83072 0.05279 0.0
C662 C 0.71459 0.81659 0.04859 0.0
C663 C 0.69633 0.74896 0.87814 0.0
H664 H 0.7177 0.75127 0.88641 0.0
H665 H 0.69692 0.73715 0.85834 0.0
H666 H 0.68802 0.76995 0.87384 0.0
O667 O 0.70094 0.79485 0.91963 0.0
O668 O 0.7213 0.82351 0.94852 0.0
C669 C 0.76405 0.76077 0.94366 0.0
O670 O 0.68467 0.80325 0.99574 0.0
O671 O 0.66417 0.77552 0.96629 0.0
Zn672 Zn 0.2328 0.70124 0.01287 0.0
O673 O 0.23806 0.73174 0.98238 0.0
C674 C 0.17147 0.69967 0.00023 0.0
Zn675 Zn 0.20762 0.72955 0.03927 0.0
C676 C 0.22498 0.75453 0.98482 0.0
O677 O 0.21086 0.75921 0.00667 0.0
C678 C 0.21593 0.67528 0.0669 0.0
O679 O 0.24457 0.7444 0.05708 0.0
O680 O 0.27 0.715 0.03305 0.0
N681 N 0.18399 0.7567 0.06154 0.0
C682 C 0.1787 0.75844 0.08894 0.0
C683 C 0.14838 0.783 0.06809 0.0
N684 N 0.16537 0.7723 0.04865 0.0
N685 N 0.15606 0.77442 0.09361 0.0
C686 C 0.2487 0.66122 0.96488 0.0
C687 C 0.27527 0.63281 0.98587 0.0
N688 N 0.25424 0.67214 0.99009 0.0
N689 N 0.27121 0.65467 0.00285 0.0
N690 N 0.26121 0.63619 0.96187 0.0
H691 H 0.22157 0.69447 0.95092 0.0
H692 H 0.24125 0.67812 0.92445 0.0
H693 H 0.21231 0.65977 0.93919 0.0
C694 C 0.22966 0.67419 0.94393 0.0
C695 C 0.19674 0.74595 0.11104 0.0
H696 H 0.21864 0.74498 0.10401 0.0
H697 H 0.19542 0.75831 0.13046 0.0
H698 H 0.18978 0.72453 0.11558 0.0
O699 O 0.20469 0.69883 0.07108 0.0
O700 O 0.22783 0.67071 0.04386 0.0
C701 C 0.26825 0.73434 0.05109 0.0
O702 O 0.19463 0.68925 0.99295 0.0
O703 O 0.17073 0.71557 0.02114 0.0
Zn704 Zn 0.25912 0.29296 0.51383 0.0
O705 O 0.25511 0.2611 0.48433 0.0
C706 C 0.3204 0.29453 0.50232 0.0
Zn707 Zn 0.28365 0.26567 0.5418 0.0
C708 C 0.26714 0.23799 0.48861 0.0
O709 O 0.28023 0.23413 0.51123 0.0
C710 C 0.27516 0.32137 0.56669 0.0
O711 O 0.24707 0.25199 0.56025 0.0
O712 O 0.22151 0.2792 0.53392 0.0
N713 N 0.30692 0.23958 0.56544 0.0
C714 C 0.31208 0.23883 0.59289 0.0
C715 C 0.34122 0.21194 0.57327 0.0
N716 N 0.3248 0.22256 0.55332 0.0
N717 N 0.33388 0.22197 0.59835 0.0
C718 C 0.2436 0.33069 0.46397 0.0
C719 C 0.21551 0.35901 0.48306 0.0
N720 N 0.23771 0.32061 0.48945 0.0
N721 N 0.21983 0.338 0.50104 0.0
N722 N 0.23027 0.35504 0.45959 0.0
H723 H 0.27204 0.29782 0.45166 0.0
H724 H 0.25425 0.31456 0.42388 0.0
H725 H 0.28175 0.33274 0.44107 0.0
C726 C 0.26424 0.3181 0.44429 0.0
C727 C 0.29473 0.25329 0.61432 0.0
H728 H 0.27287 0.25491 0.60728 0.0
H729 H 0.29554 0.24194 0.63438 0.0
H730 H 0.30272 0.27458 0.61764 0.0
O731 O 0.28677 0.29818 0.57183 0.0
O732 O 0.2629 0.32472 0.54362 0.0
C733 C 0.22334 0.26111 0.55324 0.0
O734 O 0.29759 0.30529 0.49448 0.0
O735 O 0.32036 0.27842 0.52309 0.0
Zn736 Zn 0.79349 0.23272 0.45023 0.0
O737 O 0.75628 0.24496 0.43185 0.0
C738 C 0.78756 0.17701 0.42476 0.0
Zn739 Zn 0.76975 0.20431 0.47773 0.0
C740 C 0.73297 0.23439 0.43829 0.0
O741 O 0.73181 0.21588 0.45725 0.0
C742 C 0.83074 0.20559 0.49019 0.0
O743 O 0.76354 0.23566 0.50709 0.0
O744 O 0.78864 0.26371 0.48131 0.0
N745 N 0.7501 0.17506 0.50162 0.0
C746 C 0.75711 0.16501 0.52683 0.0
C747 C 0.73134 0.13478 0.5074 0.0
N748 N 0.73379 0.15637 0.48974 0.0
N749 N 0.74614 0.13944 0.5307 0.0
C750 C 0.82067 0.26138 0.39945 0.0
C751 C 0.84976 0.28816 0.41927 0.0
N752 N 0.81582 0.26003 0.42694 0.0
N753 N 0.83366 0.27699 0.43919 0.0
N754 N 0.84226 0.27853 0.39408 0.0
H755 H 0.78149 0.24512 0.38513 0.0
H756 H 0.8037 0.25893 0.35809 0.0
H757 H 0.81145 0.22605 0.37407 0.0
C758 C 0.80324 0.24716 0.37792 0.0
C759 C 0.77293 0.18101 0.54841 0.0
H760 H 0.76874 0.20354 0.5466 0.0
H761 H 0.76703 0.17397 0.56955 0.0
H762 H 0.79548 0.17766 0.54579 0.0
O763 O 0.80813 0.19429 0.49779 0.0
O764 O 0.83068 0.22128 0.46908 0.0
C765 C 0.77506 0.25914 0.5035 0.0
O766 O 0.79796 0.20076 0.41962 0.0
O767 O 0.77578 0.173 0.44796 0.0
H768 H 0.11675 0.3678 0.31137 0.0
H769 H 0.24021 0.4448 0.23166 0.0
H770 H 0.13587 0.35268 0.22521 0.0
H771 H 0.19748 0.48022 0.30211 0.0
H772 H 0.20795 0.40542 0.23267 0.0
H773 H 0.15315 0.40348 0.31245 0.0
C774 C 0.1291 0.37147 0.29293 0.0
C775 C 0.1237 0.35671 0.2684 0.0
C776 C 0.20566 0.4219 0.24782 0.0
C777 C 0.1649 0.39758 0.2693 0.0
C778 C 0.22395 0.44438 0.24721 0.0
C779 C 0.2213 0.46593 0.26665 0.0
C780 C 0.18495 0.42078 0.26831 0.0
C781 C 0.20003 0.46423 0.28651 0.0
C782 C 0.14965 0.3919 0.29348 0.0
C783 C 0.13997 0.36255 0.24489 0.0
N784 N 0.18274 0.44195 0.28692 0.0
N785 N 0.1598 0.38257 0.24591 0.0
H786 H 0.2564 0.55369 0.73821 0.0
H787 H 0.38536 0.62435 0.81506 0.0
H788 H 0.30013 0.51453 0.80607 0.0
H789 H 0.3619 0.64292 0.73066 0.0
H790 H 0.3481 0.58952 0.81699 0.0
H791 H 0.28949 0.59219 0.7398 0.0
C792 C 0.27303 0.55314 0.75337 0.0
C793 C 0.27574 0.53076 0.77184 0.0
C794 C 0.35085 0.60171 0.79828 0.0
C795 C 0.31322 0.57491 0.77409 0.0
C796 C 0.37191 0.62163 0.79725 0.0
C797 C 0.37626 0.63718 0.77298 0.0
C798 C 0.33408 0.59737 0.77484 0.0
C799 C 0.35863 0.63252 0.75023 0.0
C800 C 0.29183 0.57513 0.7543 0.0
C801 C 0.29752 0.53123 0.79121 0.0
N802 N 0.33835 0.61302 0.75171 0.0
N803 N 0.31542 0.55303 0.7919 0.0
H804 H 0.60741 0.12166 0.67536 0.0
H805 H 0.73379 0.04884 0.75451 0.0
H806 H 0.62932 0.13935 0.76034 0.0
H807 H 0.69183 0.01091 0.68491 0.0
H808 H 0.70067 0.08729 0.75285 0.0
H809 H 0.64387 0.08592 0.67418 0.0
C810 C 0.62035 0.11851 0.69349 0.0
C811 C 0.61587 0.13415 0.71767 0.0
C812 C 0.69869 0.0705 0.738 0.0
C813 C 0.65712 0.0933 0.71667 0.0
C814 C 0.71753 0.04854 0.73896 0.0
C815 C 0.71537 0.02654 0.71998 0.0
C816 C 0.67779 0.07065 0.71768 0.0
C817 C 0.69402 0.02731 0.70014 0.0
C818 C 0.64094 0.09807 0.69288 0.0
C819 C 0.63279 0.12891 0.74084 0.0
N820 N 0.67608 0.0491 0.69942 0.0
N821 N 0.65265 0.10895 0.73975 0.0
H822 H 0.84881 0.83685 0.25175 0.0
H823 H 0.80135 0.98669 0.19762 0.0
H824 H 0.89342 0.88255 0.18919 0.0
H825 H 0.75399 0.93698 0.2554 0.0
H826 H 0.83555 0.94929 0.19437 0.0
H827 H 0.81347 0.87334 0.25283 0.0
C828 C 0.85096 0.85468 0.23818 0.0
C829 C 0.874 0.85714 0.22064 0.0
C830 C 0.8177 0.94661 0.20778 0.0
C831 C 0.83393 0.8989 0.22163 0.0
C832 C 0.79824 0.96801 0.20979 0.0
C833 C 0.77482 0.965 0.22691 0.0
C834 C 0.81373 0.92206 0.22305 0.0
C835 C 0.77177 0.94026 0.24203 0.0
C836 C 0.83087 0.87545 0.23874 0.0
C837 C 0.87584 0.88016 0.20299 0.0
N838 N 0.791 0.91976 0.23974 0.0
N839 N 0.85614 0.9004 0.20409 0.0
H840 H 0.29501 0.1883 0.48858 0.0
H841 H 0.24101 0.14518 0.33759 0.0
H842 H 0.24083 0.23927 0.43835 0.0
H843 H 0.30212 0.09802 0.38273 0.0
H844 H 0.241 0.1801 0.37448 0.0
H845 H 0.29758 0.1546 0.45067 0.0
C846 C 0.2835 0.19232 0.46966 0.0
C847 C 0.26756 0.21659 0.46667 0.0
C848 C 0.25456 0.16224 0.37637 0.0
C849 C 0.27064 0.17825 0.42319 0.0
C850 C 0.2545 0.14239 0.35537 0.0
C851 C 0.27133 0.11878 0.35755 0.0
C852 C 0.27152 0.15833 0.39978 0.0
C853 C 0.28888 0.11608 0.38055 0.0
C854 C 0.28513 0.17315 0.44798 0.0
C855 C 0.25327 0.22081 0.44163 0.0
N856 N 0.28835 0.13554 0.40102 0.0
N857 N 0.25514 0.20182 0.42089 0.0
H858 H 0.17496 0.87662 0.86279 0.0
H859 H 0.25921 0.75592 0.93961 0.0
H860 H 0.2608 0.85764 0.84566 0.0
H861 H 0.18844 0.79718 0.97619 0.0
H862 H 0.25581 0.78693 0.89951 0.0
H863 H 0.17498 0.84054 0.89888 0.0
C864 C 0.19352 0.86433 0.86606 0.0
C865 C 0.21766 0.86971 0.85064 0.0
C866 C 0.24108 0.78919 0.91637 0.0
C867 C 0.21802 0.82891 0.89193 0.0
C868 C 0.24306 0.7716 0.93927 0.0
C869 C 0.22428 0.77423 0.96139 0.0
C870 C 0.21995 0.80926 0.9154 0.0
C871 C 0.20358 0.79472 0.95975 0.0
C872 C 0.1936 0.84397 0.88672 0.0
C873 C 0.24137 0.85356 0.856 0.0
N874 N 0.2019 0.81143 0.93707 0.0
N875 N 0.24096 0.83396 0.87624 0.0
H876 H 0.74698 0.25635 0.55266 0.0
H877 H 0.80903 0.39891 0.6122 0.0
H878 H 0.80264 0.30896 0.50588 0.0
H879 H 0.74824 0.34888 0.65456 0.0
H880 H 0.8101 0.36459 0.5743 0.0
H881 H 0.74917 0.28911 0.59112 0.0
C882 C 0.75952 0.27491 0.55039 0.0
C883 C 0.77456 0.27998 0.52597 0.0
C884 C 0.79662 0.36105 0.59195 0.0
C885 C 0.77741 0.3175 0.57013 0.0
C886 C 0.79623 0.38046 0.61354 0.0
C887 C 0.77828 0.37664 0.63607 0.0
C888 C 0.77904 0.33772 0.59323 0.0
C889 C 0.76196 0.3526 0.63716 0.0
C890 C 0.76086 0.29358 0.57243 0.0
C891 C 0.79058 0.30432 0.52428 0.0
N892 N 0.7626 0.3341 0.61595 0.0
N893 N 0.79163 0.32218 0.54612 0.0
H894 H 0.75549 0.63585 0.14581 0.0
H895 H 0.68229 0.69346 0.01144 0.0
H896 H 0.67166 0.61257 0.12438 0.0
H897 H 0.74792 0.73813 0.0532 0.0
H898 H 0.67928 0.66184 0.05118 0.0
H899 H 0.7537 0.67281 0.11176 0.0
C900 C 0.73621 0.63918 0.13489 0.0
C901 C 0.7133 0.62153 0.13872 0.0
C902 C 0.69424 0.67865 0.05163 0.0
C903 C 0.71191 0.66285 0.098 0.0
C904 C 0.69619 0.69648 0.02887 0.0
C905 C 0.71559 0.71825 0.02894 0.0
C906 C 0.71208 0.68241 0.07437 0.0
C907 C 0.73279 0.7215 0.05222 0.0
C908 C 0.73542 0.66008 0.11494 0.0
C909 C 0.68963 0.62593 0.12227 0.0
N910 N 0.73079 0.70363 0.07393 0.0
N911 N 0.68964 0.64594 0.10234 0.0
H912 H 0.34931 0.23405 0.13603 0.0
H913 H 0.48313 0.30875 0.19205 0.0
H914 H 0.36879 0.31858 0.11333 0.0
H915 H 0.4419 0.24411 0.23867 0.0
H916 H 0.44304 0.31107 0.16088 0.0
H917 H 0.38354 0.23632 0.17284 0.0
C918 C 0.35984 0.25354 0.13944 0.0
C919 C 0.35544 0.27652 0.12199 0.0
C920 C 0.44278 0.29648 0.17801 0.0
C921 C 0.3963 0.27849 0.16309 0.0
C922 C 0.46574 0.29491 0.19559 0.0
C923 C 0.46591 0.27601 0.21778 0.0
C924 C 0.42009 0.2787 0.18242 0.0
C925 C 0.44266 0.25886 0.2217 0.0
C926 C 0.37987 0.25462 0.16026 0.0
C927 C 0.37136 0.30054 0.12651 0.0
N928 N 0.42076 0.26045 0.20402 0.0
N929 N 0.39138 0.3008 0.1464 0.0
H930 H 0.88053 0.18621 0.9022 0.0
H931 H 0.93823 0.24881 0.75922 0.0
H932 H 0.83571 0.24393 0.85066 0.0
H933 H 0.98686 0.19525 0.81234 0.0
H934 H 0.89974 0.24537 0.79176 0.0
H935 H 0.91867 0.18614 0.86811 0.0
C936 C 0.8787 0.19852 0.88345 0.0
C937 C 0.85539 0.21534 0.87911 0.0
C938 C 0.91883 0.23441 0.7964 0.0
C939 C 0.89848 0.21573 0.8405 0.0
C940 C 0.9409 0.23648 0.77785 0.0
C941 C 0.96586 0.22239 0.78312 0.0
C942 C 0.92164 0.21809 0.82042 0.0
C943 C 0.96803 0.20659 0.80755 0.0
C944 C 0.90042 0.1987 0.86418 0.0
C945 C 0.85369 0.23106 0.85473 0.0
N946 N 0.94615 0.20482 0.82531 0.0
N947 N 0.87504 0.23102 0.83639 0.0
H948 H 0.51438 0.80502 0.29803 0.0
H949 H 0.64482 0.72618 0.3593 0.0
H950 H 0.55024 0.73305 0.25819 0.0
H951 H 0.62737 0.81197 0.37845 0.0
H952 H 0.60974 0.72741 0.32314 0.0
H953 H 0.55391 0.80642 0.32984 0.0
C954 C 0.53043 0.78934 0.29615 0.0
C955 C 0.52893 0.76872 0.2756 0.0
C956 C 0.61399 0.74617 0.33481 0.0
C957 C 0.57425 0.77041 0.31171 0.0
C958 C 0.63448 0.74566 0.3552 0.0
C959 C 0.63976 0.76934 0.37138 0.0
C960 C 0.59806 0.77028 0.33107 0.0
C961 C 0.62413 0.79341 0.36618 0.0
C962 C 0.55311 0.79035 0.31411 0.0
C963 C 0.55051 0.7492 0.27384 0.0
N964 N 0.60378 0.79321 0.34664 0.0
N965 N 0.57223 0.75043 0.29179 0.0
H966 H 0.12385 0.68013 0.61496 0.0
H967 H 0.05089 0.7614 0.73996 0.0
H968 H 0.13899 0.76665 0.63264 0.0
H969 H 0.01492 0.68903 0.70101 0.0
H970 H 0.08879 0.76008 0.70609 0.0
H971 H 0.08925 0.67924 0.6524 0.0
C972 C 0.12038 0.69872 0.62715 0.0
C973 C 0.13495 0.72325 0.62114 0.0
C974 C 0.07255 0.74454 0.70497 0.0
C975 C 0.09533 0.72255 0.6636 0.0
C976 C 0.05092 0.7453 0.72423 0.0
C977 C 0.0296 0.72545 0.72311 0.0
C978 C 0.07309 0.72354 0.68475 0.0
C979 C 0.03077 0.70493 0.70242 0.0
C980 C 0.10058 0.69826 0.64833 0.0
C981 C 0.12933 0.74695 0.63723 0.0
N982 N 0.05223 0.70443 0.6841 0.0
N983 N 0.10997 0.74601 0.6577 0.0
H984 H 0.88469 0.62429 0.68167 0.0
H985 H 0.75638 0.55188 0.75807 0.0
H986 H 0.86193 0.64135 0.76657 0.0
H987 H 0.79944 0.51426 0.68897 0.0
H988 H 0.78972 0.59021 0.75728 0.0
H989 H 0.84776 0.58915 0.67959 0.0
C990 C 0.87149 0.62113 0.6996 0.0
C991 C 0.87592 0.63639 0.72403 0.0
C992 C 0.79186 0.57352 0.74233 0.0
C993 C 0.83405 0.59619 0.72198 0.0
C994 C 0.7729 0.55164 0.74279 0.0
C995 C 0.77532 0.52973 0.72373 0.0
C996 C 0.81314 0.57371 0.72242 0.0
C997 C 0.79701 0.53058 0.70426 0.0
C998 C 0.8506 0.60103 0.69847 0.0
C999 C 0.85858 0.63116 0.7469 0.0
N1000 N 0.81506 0.55229 0.70403 0.0
N1001 N 0.83844 0.61151 0.74531 0.0
H1002 H 0.60147 0.37488 0.17731 0.0
H1003 H 0.74196 0.43458 0.24309 0.0
H1004 H 0.65376 0.32957 0.23389 0.0
H1005 H 0.6901 0.48182 0.18711 0.0
H1006 H 0.71121 0.39487 0.23738 0.0
H1007 H 0.63578 0.41281 0.17664 0.0
C1008 C 0.62056 0.37278 0.18902 0.0
C1009 C 0.62501 0.34946 0.20579 0.0
C1010 C 0.70651 0.4139 0.22632 0.0
C1011 C 0.66376 0.39244 0.20575 0.0
C1012 C 0.72403 0.43666 0.22966 0.0
C1013 C 0.71857 0.46161 0.21563 0.0
C1014 C 0.68324 0.41604 0.20884 0.0
C1015 C 0.695 0.46303 0.1985 0.0
C1016 C 0.63994 0.39441 0.18892 0.0
C1017 C 0.64973 0.34749 0.22091 0.0
N1018 N 0.67816 0.44054 0.19559 0.0
N1019 N 0.6681 0.36884 0.22076 0.0
H1020 H 0.38228 0.87118 0.3178 0.0
H1021 H 0.25672 0.94233 0.23584 0.0
H1022 H 0.36292 0.85384 0.23213 0.0
H1023 H 0.29671 0.98099 0.3062 0.0
H1024 H 0.29027 0.90429 0.23836 0.0
H1025 H 0.34522 0.90636 0.31825 0.0
C1026 C 0.36978 0.87427 0.29936 0.0
C1027 C 0.37511 0.85886 0.27522 0.0
C1028 C 0.29171 0.92115 0.2532 0.0
C1029 C 0.3332 0.89903 0.27539 0.0
C1030 C 0.27263 0.94287 0.25174 0.0
C1031 C 0.27413 0.96497 0.27066 0.0
C1032 C 0.31218 0.92133 0.27395 0.0
C1033 C 0.29504 0.9645 0.29099 0.0
C1034 C 0.34884 0.89437 0.29956 0.0
C1035 C 0.35876 0.86404 0.25163 0.0
N1036 N 0.31324 0.94294 0.29217 0.0
N1037 N 0.33855 0.88365 0.25233 0.0
H1038 H 0.19569 0.01147 0.80714 0.0
H1039 H 0.13575 0.14699 0.73769 0.0
H1040 H 0.23751 0.05319 0.73963 0.0
H1041 H 0.1174 0.12576 0.82277 0.0
H1042 H 0.172 0.11214 0.73707 0.0
H1043 H 0.16446 0.05137 0.81165 0.0
C1044 C 0.19813 0.02891 0.79311 0.0
C1045 C 0.21903 0.02895 0.7728 0.0
C1046 C 0.16051 0.11552 0.75612 0.0
C1047 C 0.18364 0.07458 0.77802 0.0
C1048 C 0.14005 0.13593 0.75669 0.0
C1049 C 0.12403 0.14011 0.7807 0.0
C1050 C 0.16444 0.09847 0.77937 0.0
C1051 C 0.12952 0.12343 0.80399 0.0
C1052 C 0.18053 0.05176 0.79592 0.0
C1053 C 0.22157 0.05225 0.75546 0.0
N1054 N 0.14907 0.10308 0.80267 0.0
N1055 N 0.20393 0.07407 0.75834 0.0
H1056 H 0.67405 0.87716 0.62247 0.0
H1057 H 0.75761 0.75289 0.55098 0.0
H1058 H 0.75947 0.85773 0.64115 0.0
H1059 H 0.68814 0.79385 0.51163 0.0
H1060 H 0.75418 0.78555 0.5897 0.0
H1061 H 0.67423 0.84033 0.58713 0.0
C1062 C 0.69255 0.86465 0.61968 0.0
C1063 C 0.71648 0.87001 0.63541 0.0
C1064 C 0.73974 0.78739 0.57254 0.0
C1065 C 0.71701 0.82836 0.59503 0.0
C1066 C 0.74173 0.76884 0.55042 0.0
C1067 C 0.72332 0.77089 0.52794 0.0
C1068 C 0.71896 0.80785 0.57235 0.0
C1069 C 0.70298 0.7918 0.5284 0.0
C1070 C 0.69271 0.84386 0.59946 0.0
C1071 C 0.74014 0.85362 0.63064 0.0
N1072 N 0.70127 0.80945 0.55034 0.0
N1073 N 0.7398 0.83357 0.61087 0.0
H1074 H 0.73133 0.23562 0.05266 0.0
H1075 H 0.81042 0.11005 0.12694 0.0
H1076 H 0.80238 0.19453 0.01643 0.0
H1077 H 0.72452 0.13017 0.14233 0.0
H1078 H 0.812 0.14692 0.09169 0.0
H1079 H 0.73253 0.20251 0.09115 0.0
C1080 C 0.74714 0.21959 0.05277 0.0
C1081 C 0.76665 0.21764 0.03122 0.0
C1082 C 0.79298 0.1435 0.10322 0.0
C1083 C 0.76837 0.18008 0.07535 0.0
C1084 C 0.79214 0.12267 0.12337 0.0
C1085 C 0.76757 0.11753 0.13817 0.0
C1086 C 0.76905 0.15928 0.09789 0.0
C1087 C 0.74425 0.1341 0.13246 0.0
C1088 C 0.74782 0.20075 0.07474 0.0
C1089 C 0.78676 0.19656 0.03248 0.0
N1090 N 0.74557 0.15422 0.11277 0.0
N1091 N 0.78717 0.17861 0.05427 0.0
H1092 H 0.20932 0.6831 0.49433 0.0
H1093 H 0.20453 0.64813 0.33244 0.0
H1094 H 0.23023 0.74352 0.4314 0.0
H1095 H 0.21915 0.58591 0.39511 0.0
H1096 H 0.2059 0.68418 0.36865 0.0
H1097 H 0.20543 0.64756 0.45817 0.0
C1098 C 0.21323 0.68884 0.47293 0.0
C1099 C 0.22033 0.71621 0.46585 0.0
C1100 C 0.20881 0.66261 0.37441 0.0
C1101 C 0.21536 0.67589 0.42445 0.0
C1102 C 0.20815 0.64217 0.35381 0.0
C1103 C 0.21251 0.61426 0.36086 0.0
C1104 C 0.21322 0.65486 0.4022 0.0
C1105 C 0.21589 0.60729 0.38893 0.0
C1106 C 0.21097 0.66859 0.45234 0.0
C1107 C 0.22502 0.72257 0.43777 0.0
N1108 N 0.21627 0.62747 0.40861 0.0
N1109 N 0.22228 0.70257 0.41804 0.0
H1110 H 0.30448 0.30401 0.9856 0.0
H1111 H 0.2483 0.34877 0.83593 0.0
H1112 H 0.24916 0.25384 0.9359 0.0
H1113 H 0.30954 0.39578 0.88095 0.0
H1114 H 0.24945 0.31304 0.87205 0.0
H1115 H 0.30706 0.33777 0.94773 0.0
C1116 C 0.29275 0.30016 0.96679 0.0
C1117 C 0.27645 0.27613 0.96396 0.0
C1118 C 0.26282 0.33102 0.87406 0.0
C1119 C 0.27953 0.31453 0.92051 0.0
C1120 C 0.26213 0.35131 0.85348 0.0
C1121 C 0.27863 0.37511 0.85589 0.0
C1122 C 0.28007 0.33471 0.8973 0.0
C1123 C 0.29656 0.37756 0.87861 0.0
C1124 C 0.29438 0.31936 0.94513 0.0
C1125 C 0.2619 0.2721 0.93905 0.0
N1126 N 0.29662 0.35769 0.89871 0.0
N1127 N 0.26376 0.29113 0.91832 0.0
H1128 H 0.55383 0.75707 0.75224 0.0
H1129 H 0.62884 0.67241 0.8739 0.0
H1130 H 0.51777 0.68477 0.79129 0.0
H1131 H 0.64556 0.7586 0.8559 0.0
H1132 H 0.59383 0.67224 0.8368 0.0
H1133 H 0.59331 0.75385 0.78406 0.0
C1134 C 0.55418 0.74058 0.76756 0.0
C1135 C 0.53237 0.72133 0.76935 0.0
C1136 C 0.60567 0.69099 0.84067 0.0
C1137 C 0.57764 0.71725 0.80536 0.0
C1138 C 0.62572 0.69102 0.86162 0.0
C1139 C 0.64071 0.7153 0.86759 0.0
C1140 C 0.60061 0.71546 0.82561 0.0
C1141 C 0.63556 0.73906 0.85142 0.0
C1142 C 0.57672 0.73872 0.78564 0.0
C1143 C 0.53398 0.70027 0.78947 0.0
N1144 N 0.61589 0.73855 0.83125 0.0
N1145 N 0.55629 0.69873 0.80667 0.0
H1146 H 0.01174 0.80609 0.19199 0.0
H1147 H 0.14591 0.73326 0.13109 0.0
H1148 H 0.05268 0.73751 0.23294 0.0
H1149 H 0.12346 0.81727 0.10933 0.0
H1150 H 0.11106 0.73358 0.16737 0.0
H1151 H 0.05061 0.80904 0.15934 0.0
C1152 C 0.02878 0.7915 0.19397 0.0
C1153 C 0.02891 0.77138 0.21508 0.0
C1154 C 0.11413 0.7522 0.1551 0.0
C1155 C 0.07339 0.77481 0.17801 0.0
C1156 C 0.13452 0.75225 0.13462 0.0
C1157 C 0.13843 0.77571 0.11772 0.0
C1158 C 0.09687 0.77546 0.15824 0.0
C1159 C 0.12136 0.79894 0.12219 0.0
C1160 C 0.05105 0.7934 0.17552 0.0
C1161 C 0.05168 0.75326 0.21691 0.0
N1162 N 0.10113 0.79817 0.14188 0.0
N1163 N 0.07294 0.75532 0.19851 0.0
H1164 H 0.47745 0.18705 0.69546 0.0
H1165 H 0.346 0.26384 0.63436 0.0
H1166 H 0.44048 0.25846 0.73529 0.0
H1167 H 0.3638 0.17797 0.61588 0.0
H1168 H 0.38103 0.26306 0.67051 0.0
H1169 H 0.43766 0.18474 0.66396 0.0
C1170 C 0.46108 0.20239 0.69742 0.0
C1171 C 0.46233 0.22312 0.71787 0.0
C1172 C 0.37687 0.24417 0.659 0.0
C1173 C 0.41679 0.22041 0.68215 0.0
C1174 C 0.35639 0.24443 0.63862 0.0
C1175 C 0.35122 0.2206 0.62262 0.0
C1176 C 0.39293 0.22018 0.66289 0.0
C1177 C 0.36695 0.19664 0.62801 0.0
C1178 C 0.43827 0.20086 0.67965 0.0
C1179 C 0.44038 0.24221 0.71974 0.0
N1180 N 0.38733 0.19709 0.64752 0.0
N1181 N 0.41857 0.2405 0.70198 0.0
H1182 H 0.87164 0.323 0.37668 0.0
H1183 H 0.94329 0.24054 0.25194 0.0
H1184 H 0.85443 0.23716 0.35758 0.0
H1185 H 0.9826 0.31005 0.29283 0.0
H1186 H 0.90482 0.24359 0.28487 0.0
H1187 H 0.90688 0.32335 0.33973 0.0
C1188 C 0.87472 0.30452 0.36422 0.0
C1189 C 0.85939 0.28032 0.36968 0.0
C1190 C 0.92191 0.25813 0.28664 0.0
C1191 C 0.89963 0.2804 0.3279 0.0
C1192 C 0.94388 0.25636 0.26793 0.0
C1193 C 0.96629 0.27488 0.26988 0.0
C1194 C 0.92215 0.27879 0.30719 0.0
C1195 C 0.96588 0.29514 0.29085 0.0
C1196 C 0.89488 0.30466 0.34337 0.0
C1197 C 0.86456 0.25669 0.35337 0.0
N1198 N 0.94406 0.29663 0.30869 0.0
N1199 N 0.88423 0.25734 0.33325 0.0
H1200 H 0.12011 0.06358 0.25033 0.0
H1201 H 0.09281 0.22665 0.26674 0.0
H1202 H 0.17247 0.11908 0.29748 0.0
H1203 H 0.04571 0.17446 0.21101 0.0
H1204 H 0.11824 0.18602 0.28266 0.0
H1205 H 0.08873 0.10235 0.24062 0.0
C1206 C 0.12483 0.08381 0.25902 0.0
C1207 C 0.1491 0.08809 0.27466 0.0
C1208 C 0.10228 0.18335 0.26704 0.0
C1209 C 0.11332 0.13257 0.26339 0.0
C1210 C 0.08769 0.20659 0.25788 0.0
C1211 C 0.06717 0.20404 0.2373 0.0
C1212 C 0.09646 0.1572 0.25557 0.0
C1213 C 0.06144 0.17743 0.2268 0.0
C1214 C 0.10694 0.10595 0.25333 0.0
C1215 C 0.15408 0.11476 0.28532 0.0
N1216 N 0.07613 0.15503 0.23595 0.0
N1217 N 0.13646 0.13599 0.27933 0.0
H1218 H 0.36883 0.92777 0.74759 0.0
H1219 H 0.40345 0.76682 0.76947 0.0
H1220 H 0.32065 0.87296 0.79975 0.0
H1221 H 0.4475 0.81966 0.71186 0.0
H1222 H 0.37638 0.80676 0.7847 0.0
H1223 H 0.40135 0.88995 0.73875 0.0
C1224 C 0.36518 0.90786 0.75745 0.0
C1225 C 0.34164 0.90344 0.77414 0.0
C1226 C 0.39205 0.80969 0.76884 0.0
C1227 C 0.37885 0.85993 0.76387 0.0
C1228 C 0.40757 0.78687 0.76009 0.0
C1229 C 0.4277 0.78983 0.73917 0.0
C1230 C 0.39658 0.83577 0.7566 0.0
C1231 C 0.43213 0.81638 0.72794 0.0
C1232 C 0.38376 0.88622 0.75227 0.0
C1233 C 0.33818 0.87721 0.78638 0.0
N1234 N 0.41658 0.83831 0.7367 0.0
N1235 N 0.35645 0.85639 0.78083 0.0
H1236 H 0.62152 0.42945 0.73679 0.0
H1237 H 0.59479 0.26607 0.72185 0.0
H1238 H 0.67767 0.37315 0.69526 0.0
H1239 H 0.54503 0.31992 0.77355 0.0
H1240 H 0.62178 0.30622 0.70684 0.0
H1241 H 0.58965 0.39081 0.7449 0.0
C1242 C 0.62701 0.40905 0.72903 0.0
C1243 C 0.65244 0.40453 0.71545 0.0
C1244 C 0.60488 0.3093 0.72137 0.0
C1245 C 0.61606 0.36015 0.72488 0.0
C1246 C 0.58942 0.28637 0.72996 0.0
C1247 C 0.56769 0.28959 0.74917 0.0
C1248 C 0.59863 0.33574 0.73198 0.0
C1249 C 0.56168 0.31644 0.75885 0.0
C1250 C 0.60882 0.38697 0.73378 0.0
C1251 C 0.65836 0.37763 0.70584 0.0
N1252 N 0.57715 0.33848 0.75023 0.0
N1253 N 0.6404 0.35644 0.71091 0.0
H1254 H 0.8163 0.62037 0.18834 0.0
H1255 H 0.94828 0.67126 0.2758 0.0
H1256 H 0.86648 0.56568 0.23873 0.0
H1257 H 0.90113 0.72428 0.22086 0.0
H1258 H 0.92026 0.6316 0.26049 0.0
H1259 H 0.84901 0.65806 0.1977 0.0
C1260 C 0.83425 0.61622 0.20121 0.0
C1261 C 0.83839 0.5899 0.21304 0.0
C1262 C 0.9162 0.6519 0.25166 0.0
C1263 C 0.87596 0.63297 0.22395 0.0
C1264 C 0.93219 0.67454 0.26042 0.0
C1265 C 0.92695 0.70117 0.24977 0.0
C1266 C 0.89478 0.65598 0.2322 0.0
C1267 C 0.90585 0.70418 0.22981 0.0
C1268 C 0.85298 0.63775 0.20654 0.0
C1269 C 0.86231 0.58566 0.22927 0.0
N1270 N 0.89047 0.68193 0.22182 0.0
N1271 N 0.88002 0.60702 0.23445 0.0
H1272 H 0.27126 0.09098 0.22451 0.0
H1273 H 0.25341 0.12435 0.06291 0.0
H1274 H 0.21391 0.04714 0.17126 0.0
H1275 H 0.30472 0.17241 0.11856 0.0
H1276 H 0.24312 0.09228 0.1008 0.0
H1277 H 0.2875 0.11746 0.18466 0.0
C1278 C 0.2621 0.08681 0.20439 0.0
C1279 C 0.24098 0.06689 0.20131 0.0
C1280 C 0.25679 0.10972 0.10468 0.0
C1281 C 0.25964 0.09736 0.15538 0.0
C1282 C 0.26282 0.12803 0.08301 0.0
C1283 C 0.27971 0.15142 0.08762 0.0
C1284 C 0.26775 0.11475 0.13121 0.0
C1285 C 0.2913 0.15497 0.11411 0.0
C1286 C 0.27145 0.10199 0.1816 0.0
C1287 C 0.23012 0.06236 0.17464 0.0
N1288 N 0.28494 0.13696 0.13493 0.0
N1289 N 0.23948 0.0776 0.15271 0.0
H1290 H 0.27964 0.94922 0.67077 0.0
H1291 H 0.18254 0.82739 0.61241 0.0
H1292 H 0.21873 0.90516 0.71975 0.0
H1293 H 0.24452 0.86929 0.56297 0.0
H1294 H 0.19179 0.85973 0.65035 0.0
H1295 H 0.26375 0.92386 0.62955 0.0
C1296 C 0.26282 0.9344 0.67283 0.0
C1297 C 0.25069 0.92915 0.69881 0.0
C1298 C 0.20322 0.86201 0.63112 0.0
C1299 C 0.23241 0.90011 0.65183 0.0
C1300 C 0.19795 0.84349 0.60945 0.0
C1301 C 0.21312 0.84525 0.58466 0.0
C1302 C 0.2239 0.88243 0.62804 0.0
C1303 C 0.23245 0.86698 0.5818 0.0
C1304 C 0.25375 0.91994 0.64931 0.0
C1305 C 0.2289 0.90977 0.70023 0.0
N1306 N 0.23752 0.8845 0.60335 0.0
N1307 N 0.2206 0.89588 0.67715 0.0
H1308 H 0.77179 0.40274 0.76965 0.0
H1309 H 0.74949 0.36971 0.93071 0.0
H1310 H 0.71315 0.44708 0.8211 0.0
H1311 H 0.79488 0.31657 0.87448 0.0
H1312 H 0.74159 0.40242 0.89273 0.0
H1313 H 0.78576 0.37537 0.80973 0.0
C1314 C 0.7619 0.40687 0.78944 0.0
C1315 C 0.74103 0.42714 0.79193 0.0
C1316 C 0.75348 0.38372 0.88878 0.0
C1317 C 0.75708 0.39565 0.83807 0.0
C1318 C 0.75812 0.36505 0.91047 0.0
C1319 C 0.77278 0.34022 0.90575 0.0
C1320 C 0.76365 0.37761 0.86218 0.0
C1321 C 0.78344 0.33537 0.87909 0.0
C1322 C 0.76993 0.39115 0.81234 0.0
C1323 C 0.7292 0.43159 0.81819 0.0
N1324 N 0.77854 0.35382 0.85828 0.0
N1325 N 0.7373 0.41584 0.84025 0.0
H1326 H 0.71607 0.58532 0.26827 0.0
H1327 H 0.74632 0.62033 0.42743 0.0
H1328 H 0.77916 0.54385 0.31678 0.0
H1329 H 0.68906 0.66628 0.37588 0.0
H1330 H 0.75378 0.58775 0.38933 0.0
H1331 H 0.70159 0.61072 0.30943 0.0
C1332 C 0.72682 0.5814 0.28765 0.0
C1333 C 0.7491 0.56259 0.28899 0.0
C1334 C 0.73943 0.60484 0.38642 0.0
C1335 C 0.73255 0.59184 0.33635 0.0
C1336 C 0.73504 0.62343 0.4082 0.0
C1337 C 0.71736 0.64641 0.40467 0.0
C1338 C 0.72601 0.60919 0.36093 0.0
C1339 C 0.70327 0.64923 0.37935 0.0
C1340 C 0.71848 0.59595 0.31118 0.0
C1341 C 0.762 0.55826 0.31476 0.0
N1342 N 0.70807 0.63097 0.35837 0.0
N1343 N 0.75367 0.57296 0.33741 0.0
H1344 H 0.22647 0.27484 0.08621 0.0
H1345 H 0.06608 0.24955 0.11938 0.0
H1346 H 0.17652 0.21354 0.04382 0.0
H1347 H 0.11841 0.30668 0.16454 0.0
H1348 H 0.10434 0.24054 0.08739 0.0
H1349 H 0.18547 0.29059 0.11104 0.0
C1350 C 0.20682 0.26471 0.08201 0.0
C1351 C 0.205 0.24259 0.06307 0.0
C1352 C 0.10738 0.25521 0.10417 0.0
C1353 C 0.15778 0.26064 0.09165 0.0
C1354 C 0.08551 0.26049 0.12242 0.0
C1355 C 0.08921 0.27856 0.14504 0.0
C1356 C 0.13314 0.26813 0.10853 0.0
C1357 C 0.11479 0.29219 0.14779 0.0
C1358 C 0.18336 0.2738 0.09622 0.0
C1359 C 0.17889 0.23053 0.05835 0.0
N1360 N 0.13585 0.2865 0.1299 0.0
N1361 N 0.1563 0.23959 0.07273 0.0
H1362 H 0.66866 0.27707 0.94922 0.0
H1363 H 0.61609 0.18689 0.82017 0.0
H1364 H 0.72016 0.21866 0.90463 0.0
H1365 H 0.56293 0.24109 0.86794 0.0
H1366 H 0.65344 0.19512 0.85352 0.0
H1367 H 0.6286 0.2614 0.92209 0.0
C1368 C 0.67151 0.26084 0.93389 0.0
C1369 C 0.69785 0.24937 0.92901 0.0
C1370 C 0.6335 0.20501 0.85683 0.0
C1371 C 0.65221 0.23139 0.89788 0.0
C1372 C 0.61218 0.20032 0.83775 0.0
C1373 C 0.58649 0.21366 0.84096 0.0
C1374 C 0.62913 0.22329 0.8792 0.0
C1375 C 0.58248 0.23054 0.86445 0.0
C1376 C 0.64865 0.25188 0.91842 0.0
C1377 C 0.70031 0.2283 0.90896 0.0
N1378 N 0.60366 0.23511 0.88248 0.0
N1379 N 0.67785 0.22016 0.89402 0.0
H1380 H 0.77022 0.76849 0.40093 0.0
H1381 H 0.93229 0.75007 0.37013 0.0
H1382 H 0.82258 0.71152 0.44642 0.0
H1383 H 0.87613 0.79754 0.31874 0.0
H1384 H 0.89415 0.74083 0.40235 0.0
H1385 H 0.81048 0.78406 0.37478 0.0
C1386 C 0.79024 0.75929 0.40554 0.0
C1387 C 0.79295 0.73844 0.4258 0.0
C1388 C 0.89027 0.75351 0.38416 0.0
C1389 C 0.83934 0.7563 0.39569 0.0
C1390 C 0.91206 0.75892 0.36579 0.0
C1391 C 0.90739 0.77452 0.34155 0.0
C1392 C 0.86364 0.76382 0.3783 0.0
C1393 C 0.88073 0.78541 0.33708 0.0
C1394 C 0.81326 0.76824 0.39054 0.0
C1395 C 0.8195 0.72751 0.4309 0.0
N1396 N 0.85986 0.7797 0.35517 0.0
N1397 N 0.84169 0.73647 0.41581 0.0
H1398 H 0.42871 0.74147 0.62047 0.0
H1399 H 0.26556 0.72538 0.59437 0.0
H1400 H 0.37477 0.69073 0.67104 0.0
H1401 H 0.31858 0.77749 0.54415 0.0
H1402 H 0.30608 0.7097 0.62022 0.0
H1403 H 0.38974 0.75133 0.58962 0.0
C1404 C 0.40875 0.73209 0.62496 0.0
C1405 C 0.40497 0.7155 0.64871 0.0
C1406 C 0.30894 0.72447 0.60349 0.0
C1407 C 0.36009 0.72703 0.61346 0.0
C1408 C 0.28576 0.73351 0.58868 0.0
C1409 C 0.2886 0.75296 0.56708 0.0
C1410 C 0.33531 0.73494 0.59681 0.0
C1411 C 0.31538 0.76258 0.56068 0.0
C1412 C 0.38645 0.73787 0.60734 0.0
C1413 C 0.37862 0.70393 0.6533 0.0
N1414 N 0.33768 0.75357 0.57557 0.0
N1415 N 0.35716 0.7101 0.63599 0.0
H1416 H 0.86799 0.92871 0.73708 0.0
H1417 H 0.89959 0.766 0.72636 0.0
H1418 H 0.81796 0.8712 0.68985 0.0
H1419 H 0.94552 0.82195 0.77934 0.0
H1420 H 0.87273 0.80518 0.70897 0.0
H1421 H 0.90003 0.89105 0.74808 0.0
C1422 C 0.86386 0.90823 0.72869 0.0
C1423 C 0.8399 0.90307 0.7128 0.0
C1424 C 0.88874 0.80896 0.7243 0.0
C1425 C 0.87656 0.8597 0.72564 0.0
C1426 C 0.90414 0.78656 0.73431 0.0
C1427 C 0.9248 0.79063 0.75452 0.0
C1428 C 0.89393 0.83576 0.73451 0.0
C1429 C 0.92973 0.81781 0.76388 0.0
C1430 C 0.88216 0.88669 0.73514 0.0
C1431 C 0.83585 0.87611 0.70247 0.0
N1432 N 0.91432 0.83933 0.75387 0.0
N1433 N 0.85385 0.8554 0.70927 0.0
H1434 H 0.66218 0.11029 0.18798 0.0
H1435 H 0.54688 0.17549 0.28818 0.0
H1436 H 0.62392 0.0643 0.25478 0.0
H1437 H 0.5808 0.21695 0.21622 0.0
H1438 H 0.57189 0.13308 0.2746 0.0
H1439 H 0.62948 0.14819 0.19605 0.0
C1440 C 0.64677 0.10807 0.2042 0.0
C1441 C 0.64605 0.08424 0.22093 0.0
C1442 C 0.57359 0.15143 0.26168 0.0
C1443 C 0.60856 0.12768 0.2305 0.0
C1444 C 0.55929 0.1756 0.26942 0.0
C1445 C 0.562 0.19991 0.25353 0.0
C1446 C 0.59067 0.1517 0.23795 0.0
C1447 C 0.57834 0.19886 0.22937 0.0
C1448 C 0.62804 0.12971 0.20881 0.0
C1449 C 0.62532 0.08236 0.24143 0.0
N1450 N 0.59217 0.1753 0.22248 0.0
N1451 N 0.60762 0.10393 0.24587 0.0
H1452 H 0.39674 0.72966 0.2693 0.0
H1453 H 0.37374 0.56523 0.26477 0.0
H1454 H 0.44614 0.67412 0.21907 0.0
H1455 H 0.31756 0.62242 0.305 0.0
H1456 H 0.4045 0.60398 0.25377 0.0
H1457 H 0.37116 0.68992 0.28734 0.0
C1458 C 0.40227 0.70908 0.26205 0.0
C1459 C 0.42357 0.70527 0.24246 0.0
C1460 C 0.38559 0.60801 0.26527 0.0
C1461 C 0.39427 0.65951 0.26329 0.0
C1462 C 0.36805 0.58586 0.27176 0.0
C1463 C 0.34277 0.59056 0.28562 0.0
C1464 C 0.37788 0.63513 0.27271 0.0
C1465 C 0.33667 0.61776 0.29418 0.0
C1466 C 0.38763 0.68637 0.27244 0.0
C1467 C 0.42979 0.67806 0.23399 0.0
N1468 N 0.35395 0.63904 0.28734 0.0
N1469 N 0.41515 0.65621 0.24442 0.0
H1470 H 0.04493 0.32019 0.71939 0.0
H1471 H 0.17614 0.37626 0.80401 0.0
H1472 H 0.09307 0.27059 0.77663 0.0
H1473 H 0.12324 0.42967 0.75504 0.0
H1474 H 0.14396 0.33799 0.79618 0.0
H1475 H 0.07163 0.36124 0.73361 0.0
C1476 C 0.06095 0.31796 0.73503 0.0
C1477 C 0.06689 0.29187 0.74666 0.0
C1478 C 0.1392 0.35815 0.78737 0.0
C1479 C 0.09746 0.33859 0.76296 0.0
C1480 C 0.15757 0.38007 0.79194 0.0
C1481 C 0.1525 0.4062 0.7801 0.0
C1482 C 0.11567 0.36225 0.77056 0.0
C1483 C 0.12805 0.40983 0.76453 0.0
C1484 C 0.07614 0.34137 0.74317 0.0
C1485 C 0.08783 0.2902 0.76692 0.0
N1486 N 0.11069 0.38802 0.75996 0.0
N1487 N 0.10241 0.31315 0.77426 0.0
H1488 H 0.74028 0.86737 0.92664 0.0
H1489 H 0.71875 0.89939 0.76529 0.0
H1490 H 0.6879 0.81872 0.87252 0.0
H1491 H 0.77669 0.9442 0.81708 0.0
H1492 H 0.70358 0.87304 0.80563 0.0
H1493 H 0.74958 0.8992 0.88831 0.0
C1494 C 0.73046 0.8635 0.90677 0.0
C1495 C 0.71359 0.84001 0.90269 0.0
C1496 C 0.71952 0.8887 0.80827 0.0
C1497 C 0.72438 0.87639 0.85863 0.0
C1498 C 0.72825 0.90381 0.7852 0.0
C1499 C 0.74921 0.92397 0.78774 0.0
C1500 C 0.73182 0.89365 0.8342 0.0
C1501 C 0.76057 0.92879 0.81414 0.0
C1502 C 0.73592 0.88166 0.88485 0.0
C1503 C 0.70143 0.83619 0.87651 0.0
N1504 N 0.75182 0.91362 0.83634 0.0
N1505 N 0.70722 0.85407 0.85543 0.0
H1506 H 0.71931 0.04536 0.32472 0.0
H1507 H 0.80863 0.17769 0.37155 0.0
H1508 H 0.76743 0.09581 0.26824 0.0
H1509 H 0.76118 0.12686 0.4282 0.0
H1510 H 0.79752 0.14523 0.33414 0.0
H1511 H 0.73747 0.07272 0.36353 0.0
C1512 C 0.73374 0.06211 0.32047 0.0
C1513 C 0.74169 0.06838 0.29315 0.0
C1514 C 0.78974 0.14106 0.35482 0.0
C1515 C 0.76262 0.09976 0.33746 0.0
C1516 C 0.79612 0.15962 0.37622 0.0
C1517 C 0.78544 0.15535 0.40298 0.0
C1518 C 0.77251 0.11808 0.36022 0.0
C1519 C 0.76969 0.13121 0.40785 0.0
C1520 C 0.74416 0.07769 0.34264 0.0
C1521 C 0.76058 0.09026 0.28893 0.0
N1522 N 0.76346 0.11369 0.38664 0.0
N1523 N 0.77027 0.10522 0.31079 0.0
H1524 H 0.1913 0.67586 0.11847 0.0
H1525 H 0.28452 0.55037 0.17589 0.0
H1526 H 0.24686 0.62765 0.06719 0.0
H1527 H 0.22782 0.59796 0.22657 0.0
H1528 H 0.26908 0.57668 0.13517 0.0
H1529 H 0.20187 0.64527 0.15759 0.0
C1530 C 0.20556 0.65877 0.11536 0.0
C1531 C 0.21851 0.65465 0.0896 0.0
C1532 C 0.25995 0.58127 0.1552 0.0
C1533 C 0.23079 0.61949 0.13432 0.0
C1534 C 0.26882 0.5663 0.17847 0.0
C1535 C 0.25756 0.57202 0.20473 0.0
C1536 C 0.23971 0.60215 0.15823 0.0
C1537 C 0.23718 0.59285 0.20678 0.0
C1538 C 0.2116 0.64127 0.13771 0.0
C1539 C 0.23647 0.63177 0.0867 0.0
N1540 N 0.22901 0.60718 0.1839 0.0
N1541 N 0.24228 0.61525 0.10884 0.0
H1542 H 0.27332 0.40636 0.72399 0.0
H1543 H 0.2441 0.36894 0.56503 0.0
H1544 H 0.21098 0.44761 0.67437 0.0
H1545 H 0.30116 0.32379 0.61748 0.0
H1546 H 0.23591 0.40168 0.60285 0.0
H1547 H 0.28744 0.37968 0.6835 0.0
C1548 C 0.26263 0.40993 0.70452 0.0
C1549 C 0.24072 0.42914 0.70267 0.0
C1550 C 0.25037 0.38472 0.60603 0.0
C1551 C 0.2569 0.39842 0.65602 0.0
C1552 C 0.25518 0.36604 0.5844 0.0
C1553 C 0.27308 0.34326 0.5882 0.0
C1554 C 0.26357 0.38069 0.63169 0.0
C1555 C 0.28685 0.3407 0.61374 0.0
C1556 C 0.27076 0.39464 0.68136 0.0
C1557 C 0.22788 0.43296 0.67678 0.0
N1558 N 0.28165 0.35905 0.63456 0.0
N1559 N 0.23605 0.41758 0.65449 0.0
H1560 H 0.87874 0.68557 0.82726 0.0
H1561 H 0.77199 0.71044 0.91954 0.0
H1562 H 0.92552 0.74715 0.87257 0.0
H1563 H 0.81499 0.7867 0.9388 0.0
H1564 H 0.81259 0.69406 0.89471 0.0
H1565 H 0.83956 0.69335 0.85789 0.0
C1566 C 0.88092 0.70043 0.84397 0.0
C1567 C 0.9054 0.71587 0.8471 0.0
C1568 C 0.81324 0.71458 0.90382 0.0
C1569 C 0.86058 0.72452 0.88328 0.0
C1570 C 0.79003 0.72386 0.91836 0.0
C1571 C 0.78992 0.75021 0.93087 0.0
C1572 C 0.8365 0.732 0.90114 0.0
C1573 C 0.81413 0.76634 0.92927 0.0
C1574 C 0.85851 0.70471 0.86184 0.0
C1575 C 0.90704 0.73473 0.86934 0.0
N1576 N 0.83637 0.75709 0.91438 0.0
N1577 N 0.88484 0.73875 0.88636 0.0
H1578 H 0.3227 0.71814 0.04467 0.0
H1579 H 0.37624 0.80948 0.17283 0.0
H1580 H 0.27062 0.77451 0.09113 0.0
H1581 H 0.4293 0.75584 0.12436 0.0
H1582 H 0.33828 0.80024 0.14041 0.0
H1583 H 0.36289 0.73444 0.07125 0.0
C1584 C 0.31973 0.73403 0.06032 0.0
C1585 C 0.2932 0.74481 0.06578 0.0
C1586 C 0.35832 0.7907 0.13673 0.0
C1587 C 0.33908 0.76355 0.09631 0.0
C1588 C 0.38002 0.79599 0.15527 0.0
C1589 C 0.4059 0.78308 0.15165 0.0
C1590 C 0.36248 0.77227 0.11444 0.0
C1591 C 0.40966 0.76611 0.12817 0.0
C1592 C 0.34269 0.74337 0.07548 0.0
C1593 C 0.29062 0.76546 0.08626 0.0
N1594 N 0.38812 0.76095 0.11068 0.0
N1595 N 0.3132 0.77401 0.10086 0.0
H1596 H 0.1687 0.27749 0.5476 0.0
H1597 H 0.11865 0.18795 0.67857 0.0
H1598 H 0.2216 0.22146 0.59361 0.0
H1599 H 0.06402 0.24076 0.63088 0.0
H1600 H 0.15567 0.19707 0.64509 0.0
H1601 H 0.12908 0.26179 0.57554 0.0
C1602 C 0.17196 0.26179 0.5634 0.0
C1603 C 0.19856 0.25097 0.56838 0.0
C1604 C 0.13551 0.20649 0.64183 0.0
C1605 C 0.15345 0.23295 0.60041 0.0
C1606 C 0.11436 0.20129 0.661 0.0
C1607 C 0.08831 0.21393 0.65783 0.0
C1608 C 0.13062 0.22457 0.61938 0.0
C1609 C 0.08384 0.23069 0.63431 0.0
C1610 C 0.14936 0.25281 0.57933 0.0
C1611 C 0.20154 0.23058 0.58911 0.0
N1612 N 0.10485 0.23576 0.61617 0.0
N1613 N 0.17935 0.2224 0.60441 0.0
H1614 H 0.62577 0.29896 0.31088 0.0
H1615 H 0.67854 0.21804 0.4458 0.0
H1616 H 0.56997 0.25814 0.36801 0.0
H1617 H 0.73033 0.27157 0.39572 0.0
H1618 H 0.63818 0.23262 0.41824 0.0
H1619 H 0.66414 0.28976 0.3426 0.0
C1620 C 0.6215 0.28838 0.33025 0.0
C1621 C 0.5946 0.27929 0.33672 0.0
C1622 C 0.65839 0.24127 0.41347 0.0
C1623 C 0.6386 0.2682 0.37304 0.0
C1624 C 0.68142 0.23291 0.42915 0.0
C1625 C 0.70789 0.24347 0.423 0.0
C1626 C 0.66197 0.26014 0.39144 0.0
C1627 C 0.71038 0.26275 0.40122 0.0
C1628 C 0.64346 0.28304 0.34837 0.0
C1629 C 0.59038 0.26554 0.36215 0.0
N1630 N 0.6878 0.27031 0.38618 0.0
N1631 N 0.6122 0.26017 0.37926 0.0
H1632 H 0.90284 0.24466 0.13878 0.0
H1633 H 0.87305 0.27705 0.98171 0.0
H1634 H 0.96994 0.25041 0.07977 0.0
H1635 H 0.82286 0.31187 0.04732 0.0
H1636 H 0.90853 0.26506 0.01599 0.0
H1637 H 0.87145 0.26497 0.10426 0.0
C1638 C 0.91102 0.25044 0.11869 0.0
C1639 C 0.93917 0.24655 0.11238 0.0
C1640 C 0.88991 0.27571 0.02277 0.0
C1641 C 0.90332 0.26894 0.07258 0.0
C1642 C 0.86972 0.28276 0.00321 0.0
C1643 C 0.84456 0.29487 0.01173 0.0
C1644 C 0.88465 0.28036 0.05104 0.0
C1645 C 0.84154 0.30195 0.03986 0.0
C1646 C 0.89312 0.26197 0.099 0.0
C1647 C 0.94836 0.25311 0.08547 0.0
N1648 N 0.86104 0.29397 0.05864 0.0
N1649 N 0.93048 0.26395 0.06651 0.0
H1650 H 0.6213 0.72044 0.48146 0.0
H1651 H 0.56234 0.70308 0.63439 0.0
H1652 H 0.66422 0.67016 0.54213 0.0
H1653 H 0.55228 0.77762 0.58561 0.0
H1654 H 0.59338 0.68442 0.59884 0.0
H1655 H 0.58727 0.73304 0.51664 0.0
C1656 C 0.62327 0.71145 0.502 0.0
C1657 C 0.64613 0.69466 0.50899 0.0
C1658 C 0.58463 0.70499 0.59615 0.0
C1659 C 0.60721 0.70934 0.5494 0.0
C1660 C 0.56735 0.71595 0.61668 0.0
C1661 C 0.55559 0.74256 0.61352 0.0
C1662 C 0.58941 0.7203 0.57187 0.0
C1663 C 0.56136 0.75733 0.58909 0.0
C1664 C 0.60396 0.71897 0.52214 0.0
C1665 C 0.64725 0.68349 0.53593 0.0
N1666 N 0.57776 0.74597 0.56915 0.0
N1667 N 0.62821 0.69129 0.55532 0.0
H1668 H 0.33977 0.16928 0.95444 0.0
H1669 H 0.44304 0.28603 0.90013 0.0
H1670 H 0.37438 0.23325 0.00695 0.0
H1671 H 0.43436 0.20745 0.858 0.0
H1672 H 0.41444 0.26801 0.93819 0.0
H1673 H 0.3727 0.18249 0.91791 0.0
C1674 C 0.35454 0.18574 0.95849 0.0
C1675 C 0.35374 0.20066 0.98352 0.0
C1676 C 0.4186 0.25481 0.92046 0.0
C1677 C 0.39106 0.21607 0.94185 0.0
C1678 C 0.43461 0.26521 0.89868 0.0
C1679 C 0.44034 0.2486 0.87549 0.0
C1680 C 0.40822 0.22754 0.91906 0.0
C1681 C 0.42948 0.22145 0.87486 0.0
C1682 C 0.37327 0.19331 0.93762 0.0
C1683 C 0.3739 0.22134 0.98788 0.0
N1684 N 0.41382 0.2118 0.89627 0.0
N1685 N 0.39132 0.22881 0.96705 0.0
H1686 H 0.11439 0.77668 0.50778 0.0
H1687 H 0.09225 0.73946 0.34979 0.0
H1688 H 0.16709 0.80926 0.44307 0.0
H1689 H 0.02276 0.74445 0.40606 0.0
H1690 H 0.1219 0.76038 0.38543 0.0
H1691 H 0.08096 0.76216 0.47233 0.0
C1692 C 0.11867 0.78144 0.4862 0.0
C1693 C 0.14388 0.79393 0.4784 0.0
C1694 C 0.1001 0.75701 0.38987 0.0
C1695 C 0.10621 0.77645 0.43781 0.0
C1696 C 0.08319 0.74514 0.36952 0.0
C1697 C 0.05485 0.7409 0.37469 0.0
C1698 C 0.08872 0.76406 0.4158 0.0
C1699 C 0.04451 0.74742 0.40121 0.0
C1700 C 0.09967 0.77292 0.46599 0.0
C1701 C 0.14822 0.79951 0.45011 0.0
N1702 N 0.06143 0.75867 0.42079 0.0
N1703 N 0.1299 0.7902 0.43079 0.0
H1704 H 0.08241 0.97218 0.24397 0.0
H1705 H 0.04841 0.82414 0.3091 0.0
H1706 H 0.13908 0.90284 0.2405 0.0
H1707 H 0.9841 0.87597 0.27431 0.0
H1708 H 0.08299 0.85838 0.29503 0.0
H1709 H 0.04676 0.94136 0.26322 0.0
C1710 C 0.08733 0.95045 0.24713 0.0
C1711 C 0.11404 0.94022 0.2412 0.0
C1712 C 0.06125 0.86238 0.29083 0.0
C1713 C 0.07365 0.90518 0.26396 0.0
C1714 C 0.04141 0.84296 0.29915 0.0
C1715 C 0.01331 0.84681 0.29244 0.0
C1716 C 0.05287 0.88611 0.27617 0.0
C1717 C 0.00557 0.87194 0.27967 0.0
C1718 C 0.06707 0.93299 0.25834 0.0
C1719 C 0.11925 0.9119 0.24577 0.0
N1720 N 0.02528 0.89056 0.2717 0.0
N1721 N 0.09934 0.89541 0.25717 0.0
H1722 H 0.44398 0.16974 0.8132 0.0
H1723 H 0.40936 0.0211 0.74906 0.0
H1724 H 0.50731 0.117 0.77782 0.0
H1725 H 0.35245 0.09024 0.74608 0.0
H1726 H 0.44474 0.05178 0.76898 0.0
H1727 H 0.40899 0.13514 0.80064 0.0
C1728 C 0.45067 0.1507 0.80334 0.0
C1729 C 0.47855 0.14668 0.7958 0.0
C1730 C 0.42441 0.06013 0.76412 0.0
C1731 C 0.43867 0.10702 0.78164 0.0
C1732 C 0.40434 0.04276 0.75252 0.0
C1733 C 0.37772 0.05302 0.74639 0.0
C1734 C 0.41773 0.08788 0.76991 0.0
C1735 C 0.37227 0.08122 0.75142 0.0
C1736 C 0.43063 0.13107 0.796 0.0
C1737 C 0.48599 0.1212 0.78363 0.0
N1738 N 0.39205 0.09765 0.76311 0.0
N1739 N 0.46611 0.10243 0.77663 0.0
H1740 H 0.58303 0.52028 0.74266 0.0
H1741 H 0.54884 0.6682 0.6768 0.0
H1742 H 0.63898 0.59009 0.7477 0.0
H1743 H 0.48483 0.61569 0.7113 0.0
H1744 H 0.58367 0.63404 0.69097 0.0
H1745 H 0.54781 0.55072 0.72209 0.0
C1746 C 0.58789 0.54203 0.73954 0.0
C1747 C 0.61427 0.55251 0.74638 0.0
C1748 C 0.56193 0.62991 0.69505 0.0
C1749 C 0.57439 0.58712 0.72208 0.0
C1750 C 0.54198 0.64927 0.68675 0.0
C1751 C 0.51389 0.64521 0.69352 0.0
C1752 C 0.55364 0.60604 0.70959 0.0
C1753 C 0.50628 0.6199 0.70599 0.0
C1754 C 0.5679 0.55926 0.72756 0.0
C1755 C 0.61943 0.58085 0.74177 0.0
N1756 N 0.52608 0.60138 0.71389 0.0
N1757 N 0.59976 0.59713 0.72965 0.0
H1758 H 0.01128 0.37552 0.22141 0.0
H1759 H 0.85995 0.43544 0.19463 0.0
H1760 H 0.95459 0.3349 0.16501 0.0
H1761 H 0.90287 0.44253 0.27294 0.0
H1762 H 0.89715 0.40552 0.1774 0.0
H1763 H 0.97536 0.40939 0.23238 0.0
C1764 C 0.99151 0.37404 0.21076 0.0
C1765 C 0.98574 0.35184 0.19269 0.0
C1766 C 0.8982 0.4134 0.19845 0.0
C1767 C 0.9445 0.39056 0.20549 0.0
C1768 C 0.87672 0.43004 0.20855 0.0
C1769 C 0.87769 0.44054 0.23581 0.0
C1770 C 0.92127 0.40804 0.21533 0.0
C1771 C 0.90105 0.4344 0.25207 0.0
C1772 C 0.97093 0.39325 0.21734 0.0
C1773 C 0.95976 0.35131 0.17942 0.0
N1774 N 0.92196 0.41861 0.24157 0.0
N1775 N 0.9399 0.37023 0.18633 0.0
H1776 H 0.21362 0.09382 0.93886 0.0
H1777 H 0.32598 0.03498 0.83427 0.0
H1778 H 0.29601 0.12876 0.93489 0.0
H1779 H 0.26099 0.98421 0.86957 0.0
H1780 H 0.31524 0.07127 0.8684 0.0
H1781 H 0.22925 0.05538 0.90932 0.0
C1782 C 0.23483 0.09365 0.93135 0.0
C1783 C 0.25318 0.11507 0.93856 0.0
C1784 C 0.3037 0.05195 0.86887 0.0
C1785 C 0.27139 0.07108 0.90521 0.0
C1786 C 0.3099 0.03121 0.8495 0.0
C1787 C 0.29409 0.0067 0.8487 0.0
C1788 C 0.2813 0.04823 0.8872 0.0
C1789 C 0.27363 0.00282 0.86917 0.0
C1790 C 0.24382 0.07165 0.91475 0.0
C1791 C 0.28069 0.11356 0.92877 0.0
N1792 N 0.26745 0.02359 0.8872 0.0
N1793 N 0.28891 0.09206 0.91242 0.0
H1794 H 0.78617 0.35719 0.05972 0.0
H1795 H 0.76227 0.51046 0.11666 0.0
H1796 H 0.70901 0.40205 0.05171 0.0
H1797 H 0.82125 0.45471 0.15502 0.0
H1798 H 0.75006 0.47409 0.08377 0.0
H1799 H 0.80463 0.39484 0.08829 0.0
C1800 C 0.77275 0.37451 0.06469 0.0
C1801 C 0.7455 0.37598 0.05421 0.0
C1802 C 0.76591 0.46994 0.09919 0.0
C1803 C 0.76735 0.41997 0.08521 0.0
C1804 C 0.77321 0.49081 0.11781 0.0
C1805 C 0.79229 0.48539 0.13922 0.0
C1806 C 0.778 0.44357 0.10172 0.0
C1807 C 0.80594 0.45957 0.13931 0.0
C1808 C 0.78355 0.39624 0.08055 0.0
C1809 C 0.72985 0.39988 0.05986 0.0
N1810 N 0.79824 0.4394 0.12107 0.0
N1811 N 0.74102 0.42099 0.07489 0.0
H1812 H 0.75597 0.6373 0.58934 0.0
H1813 H 0.7171 0.48058 0.6155 0.0
H1814 H 0.74744 0.58058 0.52059 0.0
H1815 H 0.68577 0.54696 0.66691 0.0
H1816 H 0.73112 0.51507 0.58078 0.0
H1817 H 0.73524 0.60237 0.61998 0.0
C1818 C 0.74954 0.6176 0.58068 0.0
C1819 C 0.75268 0.61209 0.55229 0.0
C1820 C 0.7207 0.52196 0.59949 0.0
C1821 C 0.72978 0.57182 0.58722 0.0
C1822 C 0.71248 0.50231 0.61921 0.0
C1823 C 0.70052 0.51092 0.64441 0.0
C1824 C 0.71742 0.55034 0.60533 0.0
C1825 C 0.69507 0.53934 0.64803 0.0
C1826 C 0.73778 0.59767 0.59813 0.0
C1827 C 0.74529 0.58563 0.54238 0.0
N1828 N 0.70413 0.5581 0.62902 0.0
N1829 N 0.73416 0.56642 0.55983 0.0
H1830 H 0.24659 0.91003 0.47105 0.0
H1831 H 0.18056 0.94586 0.32391 0.0
H1832 H 0.24916 0.85383 0.40135 0.0
H1833 H 0.2162 0.00949 0.37596 0.0
H1834 H 0.19482 0.91082 0.35763 0.0
H1835 H 0.22746 0.9461 0.44063 0.0
C1836 C 0.24325 0.90528 0.44933 0.0
C1837 C 0.24889 0.87856 0.43891 0.0
C1838 C 0.19917 0.93251 0.36179 0.0
C1839 C 0.22625 0.91949 0.4043 0.0
C1840 C 0.19074 0.95262 0.34267 0.0
C1841 C 0.19759 0.98068 0.34673 0.0
C1842 C 0.21408 0.94057 0.38546 0.0
C1843 C 0.21069 0.98807 0.37177 0.0
C1844 C 0.23211 0.92579 0.4321 0.0
C1845 C 0.24408 0.87362 0.41059 0.0
N1846 N 0.21873 0.9681 0.39011 0.0
N1847 N 0.23276 0.89379 0.39434 0.0
H1848 H 0.02025 0.74722 0.91438 0.0
H1849 H 0.17135 0.68745 0.9447 0.0
H1850 H 0.08938 0.75794 0.85848 0.0
H1851 H 0.1176 0.71464 0.01101 0.0
H1852 H 0.13654 0.70227 0.91102 0.0
H1853 H 0.05194 0.72727 0.9489 0.0
C1854 C 0.04212 0.74554 0.90942 0.0
C1855 C 0.05208 0.75369 0.88322 0.0
C1856 C 0.13223 0.70457 0.93298 0.0
C1857 C 0.08815 0.73012 0.92224 0.0
C1858 C 0.15195 0.69572 0.95229 0.0
C1859 C 0.14761 0.70002 0.98079 0.0
C1860 C 0.10776 0.71739 0.94223 0.0
C1861 C 0.12191 0.71106 0.98924 0.0
C1862 C 0.06008 0.73392 0.92901 0.0
C1863 C 0.0806 0.75095 0.8779 0.0
N1864 N 0.10302 0.71958 0.97003 0.0
N1865 N 0.09759 0.73911 0.89711 0.0
H1866 H 0.43813 0.30504 0.36541 0.0
H1867 H 0.36787 0.26431 0.50831 0.0
H1868 H 0.43919 0.22165 0.39835 0.0
H1869 H 0.32943 0.32501 0.45451 0.0
H1870 H 0.40308 0.25597 0.47302 0.0
H1871 H 0.4053 0.31854 0.4016 0.0
C1872 C 0.43086 0.28928 0.3796 0.0
C1873 C 0.44054 0.26172 0.37798 0.0
C1874 C 0.3871 0.27133 0.4691 0.0
C1875 C 0.40463 0.2778 0.42079 0.0
C1876 C 0.36711 0.27639 0.48934 0.0
C1877 C 0.34527 0.29511 0.48421 0.0
C1878 C 0.38565 0.28539 0.44367 0.0
C1879 C 0.34562 0.31014 0.45919 0.0
C1880 C 0.41251 0.29723 0.40062 0.0
C1881 C 0.43188 0.24293 0.39851 0.0
N1882 N 0.36542 0.30482 0.43969 0.0
N1883 N 0.41453 0.25132 0.41912 0.0
H1884 H 0.6499 0.82331 0.03287 0.0
H1885 H 0.55079 0.7074 0.09326 0.0
H1886 H 0.61883 0.75611 0.9822 0.0
H1887 H 0.54625 0.79186 0.12259 0.0
H1888 H 0.57993 0.72334 0.0544 0.0
H1889 H 0.61508 0.8117 0.06823 0.0
C1890 C 0.63542 0.80657 0.02889 0.0
C1891 C 0.63753 0.79053 0.00465 0.0
C1892 C 0.57274 0.73829 0.0696 0.0
C1893 C 0.59839 0.77665 0.04522 0.0
C1894 C 0.55636 0.72916 0.09178 0.0
C1895 C 0.54729 0.74806 0.11195 0.0
C1896 C 0.58008 0.76651 0.0677 0.0
C1897 C 0.55433 0.77625 0.1087 0.0
C1898 C 0.61568 0.79986 0.04911 0.0
C1899 C 0.61811 0.76904 0.00058 0.0
N1900 N 0.57058 0.78458 0.08721 0.0
N1901 N 0.59976 0.76236 0.02091 0.0
H1902 H 0.84275 0.1713 0.53452 0.0
H1903 H 0.93948 0.28582 0.60323 0.0
H1904 H 0.87288 0.24321 0.4901 0.0
H1905 H 0.9399 0.20085 0.6317 0.0
H1906 H 0.91068 0.27166 0.56368 0.0
H1907 H 0.87535 0.18188 0.57227 0.0
C1908 C 0.85645 0.18901 0.53251 0.0
C1909 C 0.85471 0.20664 0.50935 0.0
C1910 C 0.91687 0.25619 0.57882 0.0
C1911 C 0.89152 0.21909 0.55244 0.0
C1912 C 0.93305 0.26433 0.60144 0.0
C1913 C 0.94125 0.24476 0.62138 0.0
C1914 C 0.9088 0.22825 0.57612 0.0
C1915 C 0.9329 0.21697 0.61778 0.0
C1916 C 0.875 0.19506 0.55403 0.0
C1917 C 0.87335 0.22906 0.50759 0.0
N1918 N 0.91698 0.20957 0.59569 0.0
N1919 N 0.89059 0.23493 0.52907 0.0
H1920 H 0.86273 0.05466 0.70028 0.0
H1921 H 0.00636 0.1235 0.74404 0.0
H1922 H 0.89615 0.05081 0.78327 0.0
H1923 H 0.95807 0.15449 0.67509 0.0
H1924 H 0.97048 0.08911 0.75321 0.0
H1925 H 0.90053 0.08557 0.68681 0.0
C1926 C 0.87747 0.061 0.71596 0.0
C1927 C 0.87556 0.05109 0.74338 0.0
C1928 C 0.96783 0.1033 0.73594 0.0
C1929 C 0.92 0.08496 0.72743 0.0
C1930 C 0.98847 0.12277 0.73041 0.0
C1931 C 0.98494 0.14242 0.70909 0.0
C1932 C 0.94359 0.10315 0.71985 0.0
C1933 C 0.96131 0.14025 0.69216 0.0
C1934 C 0.89937 0.07824 0.70805 0.0
C1935 C 0.89657 0.05845 0.76214 0.0
N1936 N 0.94134 0.12111 0.69805 0.0
N1937 N 0.91795 0.07492 0.75382 0.0
H1938 H 0.58555 0.97237 0.25257 0.0
H1939 H 0.55184 0.81735 0.20498 0.0
H1940 H 0.63856 0.90216 0.26921 0.0
H1941 H 0.4884 0.88043 0.20981 0.0
H1942 H 0.5859 0.85065 0.22127 0.0
H1943 H 0.55081 0.94088 0.23268 0.0
C1944 C 0.58967 0.95024 0.25235 0.0
C1945 C 0.61509 0.93981 0.26218 0.0
C1946 C 0.56465 0.85742 0.21829 0.0
C1947 C 0.57591 0.90387 0.23882 0.0
C1948 C 0.54523 0.83854 0.20819 0.0
C1949 C 0.51727 0.84623 0.20514 0.0
C1950 C 0.55614 0.88431 0.2256 0.0
C1951 C 0.50981 0.87374 0.21146 0.0
C1952 C 0.57 0.93236 0.24076 0.0
C1953 C 0.61957 0.91107 0.2612 0.0
N1954 N 0.52913 0.8918 0.22151 0.0
N1955 N 0.60028 0.89411 0.24947 0.0
H1956 H 0.51489 0.37235 0.24848 0.0
H1957 H 0.37724 0.45145 0.29456 0.0
H1958 H 0.46902 0.34965 0.32213 0.0
H1959 H 0.40433 0.4459 0.20948 0.0
H1960 H 0.4156 0.42144 0.30853 0.0
H1961 H 0.48055 0.40824 0.23864 0.0
C1962 C 0.49795 0.37529 0.263 0.0
C1963 C 0.49451 0.35751 0.28593 0.0
C1964 C 0.41299 0.42655 0.28677 0.0
C1965 C 0.45502 0.39848 0.27447 0.0
C1966 C 0.39073 0.44319 0.27867 0.0
C1967 C 0.3867 0.44986 0.25055 0.0
C1968 C 0.43189 0.41719 0.26674 0.0
C1969 C 0.40636 0.44057 0.23122 0.0
C1970 C 0.47819 0.3956 0.25712 0.0
C1971 C 0.47213 0.36244 0.30392 0.0
N1972 N 0.42811 0.42459 0.23965 0.0
N1973 N 0.45304 0.38235 0.29767 0.0
H1974 H 0.14132 0.59253 0.74482 0.0
H1975 H 0.98492 0.61718 0.7886 0.0
H1976 H 0.08425 0.52425 0.75501 0.0
H1977 H 0.05084 0.67358 0.81096 0.0
H1978 H 0.01982 0.58277 0.77502 0.0
H1979 H 0.10701 0.62367 0.76582 0.0
C1980 C 0.12169 0.58407 0.75167 0.0
C1981 C 0.11587 0.55567 0.74876 0.0
C1982 C 0.0266 0.60252 0.78342 0.0
C1983 C 0.07628 0.59119 0.77215 0.0
C1984 C 0.00671 0.62208 0.79141 0.0
C1985 C 0.01493 0.64847 0.80081 0.0
C1986 C 0.05487 0.60962 0.78435 0.0
C1987 C 0.04346 0.65366 0.80388 0.0
C1988 C 0.10209 0.60182 0.76361 0.0
C1989 C 0.08955 0.54602 0.75689 0.0
N1990 N 0.06241 0.63465 0.79513 0.0
N1991 N 0.0707 0.56374 0.76821 0.0
H1992 H 0.74176 0.84913 0.09144 0.0
H1993 H 0.70385 0.00664 0.12118 0.0
H1994 H 0.73284 0.90903 0.02549 0.0
H1995 H 0.68408 0.94023 0.178 0.0
H1996 H 0.71482 0.97203 0.08561 0.0
H1997 H 0.7226 0.88305 0.12412 0.0
C1998 C 0.73543 0.86928 0.08379 0.0
C1999 C 0.73826 0.87607 0.05563 0.0
C2000 C 0.70756 0.96506 0.10573 0.0
C2001 C 0.71709 0.91529 0.09295 0.0
C2002 C 0.70108 0.98481 0.12598 0.0
C2003 C 0.69307 0.97636 0.15273 0.0
C2004 C 0.7065 0.93667 0.11244 0.0
C2005 C 0.69001 0.94778 0.15777 0.0
C2006 C 0.72461 0.8887 0.10244 0.0
C2007 C 0.73097 0.90301 0.04706 0.0
N2008 N 0.69722 0.92896 0.13801 0.0
N2009 N 0.72074 0.92166 0.06563 0.0
H2010 H 0.18367 0.54742 0.82925 0.0
H2011 H 0.24943 0.58314 0.97603 0.0
H2012 H 0.22166 0.48344 0.87925 0.0
H2013 H 0.25522 0.63801 0.90544 0.0
H2014 H 0.23042 0.54691 0.94565 0.0
H2015 H 0.19804 0.58203 0.86334 0.0
C2016 C 0.1944 0.54049 0.84766 0.0
C2017 C 0.20192 0.51251 0.85101 0.0
C2018 C 0.23574 0.56699 0.93695 0.0
C2019 C 0.21842 0.55207 0.89015 0.0
C2020 C 0.2468 0.58756 0.95414 0.0
C2021 C 0.25322 0.61398 0.94341 0.0
C2022 C 0.2307 0.57301 0.90893 0.0
C2023 C 0.24939 0.61852 0.91489 0.0
C2024 C 0.20286 0.56034 0.86698 0.0
C2025 C 0.21566 0.50482 0.87563 0.0
N2026 N 0.23805 0.59837 0.89869 0.0
N2027 N 0.22369 0.52456 0.8942 0.0
H2028 H 0.23271 0.35166 0.40332 0.0
H2029 H 0.28165 0.50845 0.38141 0.0
H2030 H 0.24527 0.40755 0.47206 0.0
H2031 H 0.2932 0.44369 0.32062 0.0
H2032 H 0.26661 0.47311 0.41502 0.0
H2033 H 0.25179 0.38685 0.37191 0.0
C2034 C 0.23965 0.37129 0.41177 0.0
C2035 C 0.23801 0.37654 0.44031 0.0
C2036 C 0.27306 0.46665 0.39447 0.0
C2037 C 0.25931 0.41711 0.40462 0.0
C2038 C 0.28186 0.48675 0.37539 0.0
C2039 C 0.28939 0.47897 0.34832 0.0
C2040 C 0.27119 0.43871 0.38615 0.0
C2041 C 0.28865 0.45062 0.34143 0.0
C2042 C 0.25047 0.3914 0.39389 0.0
C2043 C 0.24623 0.40277 0.45012 0.0
N2044 N 0.2794 0.43161 0.36007 0.0
N2045 N 0.2566 0.4221 0.43232 0.0
H2046 H 0.71317 0.09879 0.55065 0.0
H2047 H 0.82401 0.03606 0.65529 0.0
H2048 H 0.79691 0.13034 0.55423 0.0
H2049 H 0.75631 0.98809 0.62118 0.0
H2050 H 0.81402 0.07289 0.62141 0.0
H2051 H 0.72716 0.06023 0.5809 0.0
C2052 C 0.73433 0.09788 0.55823 0.0
C2053 C 0.75356 0.11841 0.55071 0.0
C2054 C 0.80166 0.05408 0.62119 0.0
C2055 C 0.76989 0.07429 0.5849 0.0
C2056 C 0.80738 0.03306 0.64046 0.0
C2057 C 0.79072 0.00914 0.6414 0.0
C2058 C 0.7789 0.05123 0.60315 0.0
C2059 C 0.76967 0.00619 0.62138 0.0
C2060 C 0.74238 0.07582 0.57526 0.0
C2061 C 0.78096 0.11594 0.5606 0.0
N2062 N 0.76404 0.02719 0.60344 0.0
N2063 N 0.78826 0.09439 0.57734 0.0
loop_
_geom_bond_atom_site_label_1
_geom_bond_atom_site_label_2
_geom_bond_distance
_geom_bond_site_symmetry_2
_ccdc_geom_bond_type
Zn0 O1 2.055 1_455 S
Zn0 O8 2.046 . S
Zn0 N16 2.036 1_455 S
Zn0 O28 2.053 . S
Zn0 O30 2.066 . S
O1 Zn0 2.055 1_655 S
O1 C4 1.259 1_655 S
C2 O30 1.256 . S
C2 O31 1.244 . S
Zn3 O5 2.046 . S
Zn3 O7 2.055 . S
Zn3 N9 2.036 . S
Zn3 O27 2.066 . S
Zn3 O31 2.053 . S
C4 O1 1.259 1_455 S
C4 O5 1.254 . S
O5 Zn3 2.046 . S
O5 C4 1.254 . S
C6 O27 1.256 . S
C6 O28 1.244 . S
O7 Zn3 2.055 . S
O7 C29 1.259 . S
O8 Zn0 2.046 . S
O8 C29 1.254 . S
N9 Zn3 2.036 . S
N9 C10 1.298 . S
N9 N12 1.398 . S
C10 N9 1.298 . S
C10 N13 1.367 . S
C10 C23 1.481 . S
C11 N12 1.299 . S
C11 N13 1.379 . S
N12 N9 1.398 . S
N12 C11 1.299 . S
N13 C10 1.367 . S
N13 C11 1.379 . S
C14 N16 1.298 . S
C14 N18 1.367 . S
C14 C22 1.481 . S
C15 N17 1.299 1_655 S
C15 N18 1.379 . S
N16 Zn0 2.036 1_655 S
N16 C14 1.298 . S
N16 N17 1.398 1_655 S
N17 C15 1.299 1_455 S
N17 N16 1.398 1_455 S
N18 C14 1.367 . S
N18 C15 1.379 . S
H19 C22 0.980 . S
H20 C22 0.981 . S
H21 C22 0.981 . S
C22 C14 1.481 . S
C22 H19 0.980 . S
C22 H20 0.981 . S
C22 H21 0.981 . S
C23 C10 1.481 . S
C23 H24 0.980 . S
C23 H25 0.981 . S
C23 H26 0.981 . S
H24 C23 0.980 . S
H25 C23 0.981 . S
H26 C23 0.981 . S
O27 Zn3 2.066 . S
O27 C6 1.256 . S
O28 Zn0 2.053 . S
O28 C6 1.244 . S
C29 O7 1.259 . S
C29 O8 1.254 . S
O30 Zn0 2.066 . S
O30 C2 1.256 . S
O31 C2 1.244 . S
O31 Zn3 2.053 . S
Zn32 O33 2.055 . S
Zn32 O40 2.046 . S
Zn32 N48 2.036 . S
Zn32 O60 2.053 . S
Zn32 O62 2.066 . S
O33 Zn32 2.055 . S
O33 C36 1.259 . S
C34 O62 1.256 . S
C34 O63 1.244 . S
Zn35 O37 2.046 . S
Zn35 O39 2.055 . S
Zn35 N41 2.036 . S
Zn35 O59 2.066 . S
Zn35 O63 2.053 . S
C36 O33 1.259 . S
C36 O37 1.254 . S
O37 Zn35 2.046 . S
O37 C36 1.254 . S
C38 O59 1.256 . S
C38 O60 1.244 . S
O39 Zn35 2.055 . S
O39 C61 1.259 . S
O40 Zn32 2.046 . S
O40 C61 1.254 . S
N41 Zn35 2.036 . S
N41 C42 1.298 . S
N41 N44 1.398 . S
C42 N41 1.298 . S
C42 N45 1.367 . S
C42 C55 1.481 . S
C43 N44 1.299 . S
C43 N45 1.379 . S
N44 N41 1.398 . S
N44 C43 1.299 . S
N45 C42 1.367 . S
N45 C43 1.379 . S
C46 N48 1.298 . S
C46 N50 1.367 . S
C46 C54 1.481 . S
C47 N49 1.299 . S
C47 N50 1.379 . S
N48 Zn32 2.036 . S
N48 C46 1.298 . S
N48 N49 1.398 . S
N49 C47 1.299 . S
N49 N48 1.398 . S
N50 C46 1.367 . S
N50 C47 1.379 . S
H51 C54 0.980 . S
H52 C54 0.981 . S
H53 C54 0.981 . S
C54 C46 1.481 . S
C54 H51 0.980 . S
C54 H52 0.981 . S
C54 H53 0.981 . S
C55 C42 1.481 . S
C55 H56 0.980 . S
C55 H57 0.981 . S
C55 H58 0.981 . S
H56 C55 0.980 . S
H57 C55 0.981 . S
H58 C55 0.981 . S
O59 Zn35 2.066 . S
O59 C38 1.256 . S
O60 Zn32 2.053 . S
O60 C38 1.244 . S
C61 O39 1.259 . S
C61 O40 1.254 . S
O62 Zn32 2.066 . S
O62 C34 1.256 . S
O63 C34 1.244 . S
O63 Zn35 2.053 . S
Zn64 O65 2.055 . S
Zn64 O72 2.046 . S
Zn64 N80 2.036 . S
Zn64 O92 2.053 . S
Zn64 O94 2.066 . S
O65 Zn64 2.055 . S
O65 C68 1.259 . S
C66 O94 1.256 . S
C66 O95 1.244 . S
Zn67 O69 2.046 . S
Zn67 O71 2.055 . S
Zn67 N73 2.036 . S
Zn67 O91 2.066 . S
Zn67 O95 2.053 . S
C68 O65 1.259 . S
C68 O69 1.254 . S
O69 Zn67 2.046 . S
O69 C68 1.254 . S
C70 O91 1.256 . S
C70 O92 1.244 . S
O71 Zn67 2.055 . S
O71 C93 1.259 . S
O72 Zn64 2.046 . S
O72 C93 1.254 . S
N73 Zn67 2.036 . S
N73 C74 1.298 . S
N73 N76 1.398 . S
C74 N73 1.298 . S
C74 N77 1.367 . S
C74 C87 1.481 . S
C75 N76 1.299 . S
C75 N77 1.379 . S
N76 N73 1.398 . S
N76 C75 1.299 . S
N77 C74 1.367 . S
N77 C75 1.379 . S
C78 N80 1.298 . S
C78 N82 1.367 . S
C78 C86 1.481 . S
C79 N81 1.299 . S
C79 N82 1.379 . S
N80 Zn64 2.036 . S
N80 C78 1.298 . S
N80 N81 1.398 . S
N81 C79 1.299 . S
N81 N80 1.398 . S
N82 C78 1.367 . S
N82 C79 1.379 . S
H83 C86 0.980 . S
H84 C86 0.981 . S
H85 C86 0.981 . S
C86 C78 1.481 . S
C86 H83 0.980 . S
C86 H84 0.981 . S
C86 H85 0.981 . S
C87 C74 1.481 . S
C87 H88 0.980 . S
C87 H89 0.981 . S
C87 H90 0.981 . S
H88 C87 0.980 . S
H89 C87 0.981 . S
H90 C87 0.981 . S
O91 Zn67 2.066 . S
O91 C70 1.256 . S
O92 Zn64 2.053 . S
O92 C70 1.244 . S
C93 O71 1.259 . S
C93 O72 1.254 . S
O94 Zn64 2.066 . S
O94 C66 1.256 . S
O95 C66 1.244 . S
O95 Zn67 2.053 . S
Zn96 O97 2.055 . S
Zn96 O104 2.046 . S
Zn96 N112 2.036 . S
Zn96 O124 2.053 . S
Zn96 O126 2.066 . S
O97 Zn96 2.055 . S
O97 C100 1.259 . S
C98 O126 1.256 . S
C98 O127 1.244 . S
Zn99 O101 2.046 . S
Zn99 O103 2.055 1_655 S
Zn99 N105 2.036 1_655 S
Zn99 O123 2.066 . S
Zn99 O127 2.053 . S
C100 O97 1.259 . S
C100 O101 1.254 . S
O101 Zn99 2.046 . S
O101 C100 1.254 . S
C102 O123 1.256 . S
C102 O124 1.244 . S
O103 Zn99 2.055 1_455 S
O103 C125 1.259 1_455 S
O104 Zn96 2.046 . S
O104 C125 1.254 . S
N105 Zn99 2.036 1_455 S
N105 C106 1.298 . S
N105 N108 1.398 1_455 S
C106 N105 1.298 . S
C106 N109 1.367 . S
C106 C119 1.481 . S
C107 N108 1.299 1_455 S
C107 N109 1.379 . S
N108 N105 1.398 1_655 S
N108 C107 1.299 1_655 S
N109 C106 1.367 . S
N109 C107 1.379 . S
C110 N112 1.298 . S
C110 N114 1.367 . S
C110 C118 1.481 . S
C111 N113 1.299 . S
C111 N114 1.379 . S
N112 Zn96 2.036 . S
N112 C110 1.298 . S
N112 N113 1.398 . S
N113 C111 1.299 . S
N113 N112 1.398 . S
N114 C110 1.367 . S
N114 C111 1.379 . S
H115 C118 0.980 . S
H116 C118 0.981 . S
H117 C118 0.981 . S
C118 C110 1.481 . S
C118 H115 0.980 . S
C118 H116 0.981 . S
C118 H117 0.981 . S
C119 C106 1.481 . S
C119 H120 0.980 . S
C119 H121 0.981 . S
C119 H122 0.981 . S
H120 C119 0.980 . S
H121 C119 0.981 . S
H122 C119 0.981 . S
O123 Zn99 2.066 . S
O123 C102 1.256 . S
O124 Zn96 2.053 . S
O124 C102 1.244 . S
C125 O103 1.259 1_655 S
C125 O104 1.254 . S
O126 Zn96 2.066 . S
O126 C98 1.256 . S
O127 C98 1.244 . S
O127 Zn99 2.053 . S
Zn128 O129 2.055 . S
Zn128 O136 2.046 . S
Zn128 N144 2.036 . S
Zn128 O156 2.053 . S
Zn128 O158 2.066 . S
O129 Zn128 2.055 . S
O129 C132 1.259 . S
C130 O158 1.256 . S
C130 O159 1.244 . S
Zn131 O133 2.046 . S
Zn131 O135 2.055 1_545 S
Zn131 N137 2.036 1_545 S
Zn131 O155 2.066 . S
Zn131 O159 2.053 . S
C132 O129 1.259 . S
C132 O133 1.254 . S
O133 Zn131 2.046 . S
O133 C132 1.254 . S
C134 O155 1.256 . S
C134 O156 1.244 . S
O135 Zn131 2.055 1_565 S
O135 C157 1.259 1_565 S
O136 Zn128 2.046 . S
O136 C157 1.254 . S
N137 Zn131 2.036 1_565 S
N137 C138 1.298 . S
N137 N140 1.398 1_565 S
C138 N137 1.298 . S
C138 N141 1.367 . S
C138 C151 1.481 . S
C139 N140 1.299 1_565 S
C139 N141 1.379 . S
N140 N137 1.398 1_545 S
N140 C139 1.299 1_545 S
N141 C138 1.367 . S
N141 C139 1.379 . S
C142 N144 1.298 . S
C142 N146 1.367 . S
C142 C150 1.481 . S
C143 N145 1.299 . S
C143 N146 1.379 . S
N144 Zn128 2.036 . S
N144 C142 1.298 . S
N144 N145 1.398 . S
N145 C143 1.299 . S
N145 N144 1.398 . S
N146 C142 1.367 . S
N146 C143 1.379 . S
H147 C150 0.980 . S
H148 C150 0.981 . S
H149 C150 0.981 . S
C150 C142 1.481 . S
C150 H147 0.980 . S
C150 H148 0.981 . S
C150 H149 0.981 . S
C151 C138 1.481 . S
C151 H152 0.980 . S
C151 H153 0.981 . S
C151 H154 0.981 . S
H152 C151 0.980 . S
H153 C151 0.981 . S
H154 C151 0.981 . S
O155 Zn131 2.066 . S
O155 C134 1.256 . S
O156 Zn128 2.053 . S
O156 C134 1.244 . S
C157 O135 1.259 1_545 S
C157 O136 1.254 . S
O158 Zn128 2.066 . S
O158 C130 1.256 . S
O159 C130 1.244 . S
O159 Zn131 2.053 . S
Zn160 O161 2.055 1_565 S
Zn160 O168 2.046 . S
Zn160 N176 2.036 1_565 S
Zn160 O188 2.053 . S
Zn160 O190 2.066 . S
O161 Zn160 2.055 1_545 S
O161 C164 1.259 1_545 S
C162 O190 1.256 . S
C162 O191 1.244 . S
Zn163 O165 2.046 . S
Zn163 O167 2.055 . S
Zn163 N169 2.036 . S
Zn163 O187 2.066 . S
Zn163 O191 2.053 . S
C164 O161 1.259 1_565 S
C164 O165 1.254 . S
O165 Zn163 2.046 . S
O165 C164 1.254 . S
C166 O187 1.256 . S
C166 O188 1.244 . S
O167 Zn163 2.055 . S
O167 C189 1.259 . S
O168 Zn160 2.046 . S
O168 C189 1.254 . S
N169 Zn163 2.036 . S
N169 C170 1.298 . S
N169 N172 1.398 . S
C170 N169 1.298 . S
C170 N173 1.367 . S
C170 C183 1.481 . S
C171 N172 1.299 . S
C171 N173 1.379 . S
N172 N169 1.398 . S
N172 C171 1.299 . S
N173 C170 1.367 . S
N173 C171 1.379 . S
C174 N176 1.298 . S
C174 N178 1.367 . S
C174 C182 1.481 . S
C175 N177 1.299 1_545 S
C175 N178 1.379 . S
N176 Zn160 2.036 1_545 S
N176 C174 1.298 . S
N176 N177 1.398 1_545 S
N177 C175 1.299 1_565 S
N177 N176 1.398 1_565 S
N178 C174 1.367 . S
N178 C175 1.379 . S
H179 C182 0.980 . S
H180 C182 0.981 . S
H181 C182 0.981 . S
C182 C174 1.481 . S
C182 H179 0.980 . S
C182 H180 0.981 . S
C182 H181 0.981 . S
C183 C170 1.481 . S
C183 H184 0.980 . S
C183 H185 0.981 . S
C183 H186 0.981 . S
H184 C183 0.980 . S
H185 C183 0.981 . S
H186 C183 0.981 . S
O187 Zn163 2.066 . S
O187 C166 1.256 . S
O188 Zn160 2.053 . S
O188 C166 1.244 . S
C189 O167 1.259 . S
C189 O168 1.254 . S
O190 Zn160 2.066 . S
O190 C162 1.256 . S
O191 C162 1.244 . S
O191 Zn163 2.053 . S
Zn192 O193 2.055 . S
Zn192 O200 2.046 . S
Zn192 N208 2.036 . S
Zn192 O220 2.053 . S
Zn192 O222 2.066 . S
O193 Zn192 2.055 . S
O193 C196 1.259 . S
C194 O222 1.256 . S
C194 O223 1.244 . S
Zn195 O197 2.046 . S
Zn195 O199 2.055 . S
Zn195 N201 2.036 . S
Zn195 O219 2.066 . S
Zn195 O223 2.053 . S
C196 O193 1.259 . S
C196 O197 1.254 . S
O197 Zn195 2.046 . S
O197 C196 1.254 . S
C198 O219 1.256 . S
C198 O220 1.244 . S
O199 Zn195 2.055 . S
O199 C221 1.259 . S
O200 Zn192 2.046 . S
O200 C221 1.254 . S
N201 Zn195 2.036 . S
N201 C202 1.298 . S
N201 N204 1.398 . S
C202 N201 1.298 . S
C202 N205 1.367 . S
C202 C215 1.481 . S
C203 N204 1.299 . S
C203 N205 1.379 . S
N204 N201 1.398 . S
N204 C203 1.299 . S
N205 C202 1.367 . S
N205 C203 1.379 . S
C206 N208 1.298 . S
C206 N210 1.367 . S
C206 C214 1.481 . S
C207 N209 1.299 . S
C207 N210 1.379 . S
N208 Zn192 2.036 . S
N208 C206 1.298 . S
N208 N209 1.398 . S
N209 C207 1.299 . S
N209 N208 1.398 . S
N210 C206 1.367 . S
N210 C207 1.379 . S
H211 C214 0.980 . S
H212 C214 0.981 . S
H213 C214 0.981 . S
C214 C206 1.481 . S
C214 H211 0.980 . S
C214 H212 0.981 . S
C214 H213 0.981 . S
C215 C202 1.481 . S
C215 H216 0.980 . S
C215 H217 0.981 . S
C215 H218 0.981 . S
H216 C215 0.980 . S
H217 C215 0.981 . S
H218 C215 0.981 . S
O219 Zn195 2.066 . S
O219 C198 1.256 . S
O220 Zn192 2.053 . S
O220 C198 1.244 . S
C221 O199 1.259 . S
C221 O200 1.254 . S
O222 Zn192 2.066 . S
O222 C194 1.256 . S
O223 C194 1.244 . S
O223 Zn195 2.053 . S
Zn224 O225 2.055 . S
Zn224 O232 2.046 . S
Zn224 N240 2.036 . S
Zn224 O252 2.053 . S
Zn224 O254 2.066 . S
O225 Zn224 2.055 . S
O225 C228 1.259 . S
C226 O254 1.256 . S
C226 O255 1.244 . S
Zn227 O229 2.046 . S
Zn227 O231 2.055 . S
Zn227 N233 2.036 . S
Zn227 O251 2.066 . S
Zn227 O255 2.053 . S
C228 O225 1.259 . S
C228 O229 1.254 . S
O229 Zn227 2.046 . S
O229 C228 1.254 . S
C230 O251 1.256 . S
C230 O252 1.244 . S
O231 Zn227 2.055 . S
O231 C253 1.259 . S
O232 Zn224 2.046 . S
O232 C253 1.254 . S
N233 Zn227 2.036 . S
N233 C234 1.298 . S
N233 N236 1.398 . S
C234 N233 1.298 . S
C234 N237 1.367 . S
C234 C247 1.481 . S
C235 N236 1.299 . S
C235 N237 1.379 . S
N236 N233 1.398 . S
N236 C235 1.299 . S
N237 C234 1.367 . S
N237 C235 1.379 . S
C238 N240 1.298 . S
C238 N242 1.367 . S
C238 C246 1.481 . S
C239 N241 1.299 . S
C239 N242 1.379 . S
N240 Zn224 2.036 . S
N240 C238 1.298 . S
N240 N241 1.398 . S
N241 C239 1.299 . S
N241 N240 1.398 . S
N242 C238 1.367 . S
N242 C239 1.379 . S
H243 C246 0.980 . S
H244 C246 0.981 . S
H245 C246 0.981 . S
C246 C238 1.481 . S
C246 H243 0.980 . S
C246 H244 0.981 . S
C246 H245 0.981 . S
C247 C234 1.481 . S
C247 H248 0.980 . S
C247 H249 0.981 . S
C247 H250 0.981 . S
H248 C247 0.980 . S
H249 C247 0.981 . S
H250 C247 0.981 . S
O251 Zn227 2.066 . S
O251 C230 1.256 . S
O252 Zn224 2.053 . S
O252 C230 1.244 . S
C253 O231 1.259 . S
C253 O232 1.254 . S
O254 Zn224 2.066 . S
O254 C226 1.256 . S
O255 C226 1.244 . S
O255 Zn227 2.053 . S
Zn256 O257 2.055 1_554 S
Zn256 O264 2.046 . S
Zn256 N272 2.036 1_554 S
Zn256 O284 2.053 . S
Zn256 O286 2.066 . S
O257 Zn256 2.055 1_556 S
O257 C260 1.259 1_556 S
C258 O286 1.256 . S
C258 O287 1.244 . S
Zn259 O261 2.046 . S
Zn259 O263 2.055 . S
Zn259 N265 2.036 . S
Zn259 O283 2.066 . S
Zn259 O287 2.053 . S
C260 O257 1.259 1_554 S
C260 O261 1.254 . S
O261 Zn259 2.046 . S
O261 C260 1.254 . S
C262 O283 1.256 . S
C262 O284 1.244 . S
O263 Zn259 2.055 . S
O263 C285 1.259 . S
O264 Zn256 2.046 . S
O264 C285 1.254 . S
N265 Zn259 2.036 . S
N265 C266 1.298 . S
N265 N268 1.398 . S
C266 N265 1.298 . S
C266 N269 1.367 . S
C266 C279 1.481 . S
C267 N268 1.299 . S
C267 N269 1.379 . S
N268 N265 1.398 . S
N268 C267 1.299 . S
N269 C266 1.367 . S
N269 C267 1.379 . S
C270 N272 1.298 . S
C270 N274 1.367 . S
C270 C278 1.481 . S
C271 N273 1.299 1_556 S
C271 N274 1.379 . S
N272 Zn256 2.036 1_556 S
N272 C270 1.298 . S
N272 N273 1.398 1_556 S
N273 C271 1.299 1_554 S
N273 N272 1.398 1_554 S
N274 C270 1.367 . S
N274 C271 1.379 . S
H275 C278 0.980 . S
H276 C278 0.981 . S
H277 C278 0.981 . S
C278 C270 1.481 . S
C278 H275 0.980 . S
C278 H276 0.981 . S
C278 H277 0.981 . S
C279 C266 1.481 . S
C279 H280 0.980 . S
C279 H281 0.981 . S
C279 H282 0.981 . S
H280 C279 0.980 . S
H281 C279 0.981 . S
H282 C279 0.981 . S
O283 Zn259 2.066 . S
O283 C262 1.256 . S
O284 Zn256 2.053 . S
O284 C262 1.244 . S
C285 O263 1.259 . S
C285 O264 1.254 . S
O286 Zn256 2.066 . S
O286 C258 1.256 . S
O287 C258 1.244 . S
O287 Zn259 2.053 . S
Zn288 O289 2.055 1_556 S
Zn288 O296 2.046 . S
Zn288 N304 2.036 1_556 S
Zn288 O316 2.053 . S
Zn288 O318 2.066 . S
O289 Zn288 2.055 1_554 S
O289 C292 1.259 1_554 S
C290 O318 1.256 . S
C290 O319 1.244 . S
Zn291 O293 2.046 . S
Zn291 O295 2.055 . S
Zn291 N297 2.036 . S
Zn291 O315 2.066 . S
Zn291 O319 2.053 . S
C292 O289 1.259 1_556 S
C292 O293 1.254 . S
O293 Zn291 2.046 . S
O293 C292 1.254 . S
C294 O315 1.256 . S
C294 O316 1.244 . S
O295 Zn291 2.055 . S
O295 C317 1.259 . S
O296 Zn288 2.046 . S
O296 C317 1.254 . S
N297 Zn291 2.036 . S
N297 C298 1.298 . S
N297 N300 1.398 . S
C298 N297 1.298 . S
C298 N301 1.367 . S
C298 C311 1.481 . S
C299 N300 1.299 . S
C299 N301 1.379 . S
N300 N297 1.398 . S
N300 C299 1.299 . S
N301 C298 1.367 . S
N301 C299 1.379 . S
C302 N304 1.298 . S
C302 N306 1.367 . S
C302 C310 1.481 . S
C303 N305 1.299 1_554 S
C303 N306 1.379 . S
N304 Zn288 2.036 1_554 S
N304 C302 1.298 . S
N304 N305 1.398 1_554 S
N305 C303 1.299 1_556 S
N305 N304 1.398 1_556 S
N306 C302 1.367 . S
N306 C303 1.379 . S
H307 C310 0.980 . S
H308 C310 0.981 . S
H309 C310 0.981 . S
C310 C302 1.481 . S
C310 H307 0.980 . S
C310 H308 0.981 . S
C310 H309 0.981 . S
C311 C298 1.481 . S
C311 H312 0.980 . S
C311 H313 0.981 . S
C311 H314 0.981 . S
H312 C311 0.980 . S
H313 C311 0.981 . S
H314 C311 0.981 . S
O315 Zn291 2.066 . S
O315 C294 1.256 . S
O316 Zn288 2.053 . S
O316 C294 1.244 . S
C317 O295 1.259 . S
C317 O296 1.254 . S
O318 Zn288 2.066 . S
O318 C290 1.256 . S
O319 C290 1.244 . S
O319 Zn291 2.053 . S
Zn320 O321 2.055 . S
Zn320 O328 2.046 . S
Zn320 N336 2.036 . S
Zn320 O348 2.053 . S
Zn320 O350 2.066 . S
O321 Zn320 2.055 . S
O321 C324 1.259 . S
C322 O350 1.256 . S
C322 O351 1.244 . S
Zn323 O325 2.046 . S
Zn323 O327 2.055 . S
Zn323 N329 2.036 . S
Zn323 O347 2.066 . S
Zn323 O351 2.053 . S
C324 O321 1.259 . S
C324 O325 1.254 . S
O325 Zn323 2.046 . S
O325 C324 1.254 . S
C326 O347 1.256 . S
C326 O348 1.244 . S
O327 Zn323 2.055 . S
O327 C349 1.259 . S
O328 Zn320 2.046 . S
O328 C349 1.254 . S
N329 Zn323 2.036 . S
N329 C330 1.298 . S
N329 N332 1.398 . S
C330 N329 1.298 . S
C330 N333 1.367 . S
C330 C343 1.481 . S
C331 N332 1.299 . S
C331 N333 1.379 . S
N332 N329 1.398 . S
N332 C331 1.299 . S
N333 C330 1.367 . S
N333 C331 1.379 . S
C334 N336 1.298 . S
C334 N338 1.367 . S
C334 C342 1.481 . S
C335 N337 1.299 . S
C335 N338 1.379 . S
N336 Zn320 2.036 . S
N336 C334 1.298 . S
N336 N337 1.398 . S
N337 C335 1.299 . S
N337 N336 1.398 . S
N338 C334 1.367 . S
N338 C335 1.379 . S
H339 C342 0.980 . S
H340 C342 0.981 . S
H341 C342 0.981 . S
C342 C334 1.481 . S
C342 H339 0.980 . S
C342 H340 0.981 . S
C342 H341 0.981 . S
C343 C330 1.481 . S
C343 H344 0.980 . S
C343 H345 0.981 . S
C343 H346 0.981 . S
H344 C343 0.980 . S
H345 C343 0.981 . S
H346 C343 0.981 . S
O347 Zn323 2.066 . S
O347 C326 1.256 . S
O348 Zn320 2.053 . S
O348 C326 1.244 . S
C349 O327 1.259 . S
C349 O328 1.254 . S
O350 Zn320 2.066 . S
O350 C322 1.256 . S
O351 C322 1.244 . S
O351 Zn323 2.053 . S
Zn352 O353 2.055 . S
Zn352 O360 2.046 . S
Zn352 N368 2.036 . S
Zn352 O380 2.053 . S
Zn352 O382 2.066 . S
O353 Zn352 2.055 . S
O353 C356 1.259 . S
C354 O382 1.256 . S
C354 O383 1.244 . S
Zn355 O357 2.046 . S
Zn355 O359 2.055 . S
Zn355 N361 2.036 . S
Zn355 O379 2.066 . S
Zn355 O383 2.053 . S
C356 O353 1.259 . S
C356 O357 1.254 . S
O357 Zn355 2.046 . S
O357 C356 1.254 . S
C358 O379 1.256 . S
C358 O380 1.244 . S
O359 Zn355 2.055 . S
O359 C381 1.259 . S
O360 Zn352 2.046 . S
O360 C381 1.254 . S
N361 Zn355 2.036 . S
N361 C362 1.298 . S
N361 N364 1.398 . S
C362 N361 1.298 . S
C362 N365 1.367 . S
C362 C375 1.481 . S
C363 N364 1.299 . S
C363 N365 1.379 . S
N364 N361 1.398 . S
N364 C363 1.299 . S
N365 C362 1.367 . S
N365 C363 1.379 . S
C366 N368 1.298 . S
C366 N370 1.367 . S
C366 C374 1.481 . S
C367 N369 1.299 . S
C367 N370 1.379 . S
N368 Zn352 2.036 . S
N368 C366 1.298 . S
N368 N369 1.398 . S
N369 C367 1.299 . S
N369 N368 1.398 . S
N370 C366 1.367 . S
N370 C367 1.379 . S
H371 C374 0.980 . S
H372 C374 0.981 . S
H373 C374 0.981 . S
C374 C366 1.481 . S
C374 H371 0.980 . S
C374 H372 0.981 . S
C374 H373 0.981 . S
C375 C362 1.481 . S
C375 H376 0.980 . S
C375 H377 0.981 . S
C375 H378 0.981 . S
H376 C375 0.980 . S
H377 C375 0.981 . S
H378 C375 0.981 . S
O379 Zn355 2.066 . S
O379 C358 1.256 . S
O380 Zn352 2.053 . S
O380 C358 1.244 . S
C381 O359 1.259 . S
C381 O360 1.254 . S
O382 Zn352 2.066 . S
O382 C354 1.256 . S
O383 C354 1.244 . S
O383 Zn355 2.053 . S
Zn384 O385 2.055 . S
Zn384 O392 2.046 . S
Zn384 N400 2.036 . S
Zn384 O412 2.053 . S
Zn384 O414 2.066 . S
O385 Zn384 2.055 . S
O385 C388 1.259 . S
C386 O414 1.256 . S
C386 O415 1.244 . S
Zn387 O389 2.046 . S
Zn387 O391 2.055 1_655 S
Zn387 N393 2.036 1_655 S
Zn387 O411 2.066 . S
Zn387 O415 2.053 . S
C388 O385 1.259 . S
C388 O389 1.254 . S
O389 Zn387 2.046 . S
O389 C388 1.254 . S
C390 O411 1.256 . S
C390 O412 1.244 . S
O391 Zn387 2.055 1_455 S
O391 C413 1.259 1_455 S
O392 Zn384 2.046 . S
O392 C413 1.254 . S
N393 Zn387 2.036 1_455 S
N393 C394 1.298 . S
N393 N396 1.398 1_455 S
C394 N393 1.298 . S
C394 N397 1.367 . S
C394 C407 1.481 . S
C395 N396 1.299 1_455 S
C395 N397 1.379 . S
N396 N393 1.398 1_655 S
N396 C395 1.299 1_655 S
N397 C394 1.367 . S
N397 C395 1.379 . S
C398 N400 1.298 . S
C398 N402 1.367 . S
C398 C406 1.481 . S
C399 N401 1.299 . S
C399 N402 1.379 . S
N400 Zn384 2.036 . S
N400 C398 1.298 . S
N400 N401 1.398 . S
N401 C399 1.299 . S
N401 N400 1.398 . S
N402 C398 1.367 . S
N402 C399 1.379 . S
H403 C406 0.980 . S
H404 C406 0.981 . S
H405 C406 0.981 . S
C406 C398 1.481 . S
C406 H403 0.980 . S
C406 H404 0.981 . S
C406 H405 0.981 . S
C407 C394 1.481 . S
C407 H408 0.980 . S
C407 H409 0.981 . S
C407 H410 0.981 . S
H408 C407 0.980 . S
H409 C407 0.981 . S
H410 C407 0.981 . S
O411 Zn387 2.066 . S
O411 C390 1.256 . S
O412 Zn384 2.053 . S
O412 C390 1.244 . S
C413 O391 1.259 1_655 S
C413 O392 1.254 . S
O414 Zn384 2.066 . S
O414 C386 1.256 . S
O415 C386 1.244 . S
O415 Zn387 2.053 . S
Zn416 O417 2.055 . S
Zn416 O424 2.046 . S
Zn416 N432 2.036 . S
Zn416 O444 2.053 . S
Zn416 O446 2.066 . S
O417 Zn416 2.055 . S
O417 C420 1.259 . S
C418 O446 1.256 . S
C418 O447 1.244 . S
Zn419 O421 2.046 . S
Zn419 O423 2.055 . S
Zn419 N425 2.036 . S
Zn419 O443 2.066 . S
Zn419 O447 2.053 . S
C420 O417 1.259 . S
C420 O421 1.254 . S
O421 Zn419 2.046 . S
O421 C420 1.254 . S
C422 O443 1.256 . S
C422 O444 1.244 . S
O423 Zn419 2.055 . S
O423 C445 1.259 . S
O424 Zn416 2.046 . S
O424 C445 1.254 . S
N425 Zn419 2.036 . S
N425 C426 1.298 . S
N425 N428 1.398 . S
C426 N425 1.298 . S
C426 N429 1.367 . S
C426 C439 1.481 . S
C427 N428 1.299 . S
C427 N429 1.379 . S
N428 N425 1.398 . S
N428 C427 1.299 . S
N429 C426 1.367 . S
N429 C427 1.379 . S
C430 N432 1.298 . S
C430 N434 1.367 . S
C430 C438 1.481 . S
C431 N433 1.299 . S
C431 N434 1.379 . S
N432 Zn416 2.036 . S
N432 C430 1.298 . S
N432 N433 1.398 . S
N433 C431 1.299 . S
N433 N432 1.398 . S
N434 C430 1.367 . S
N434 C431 1.379 . S
H435 C438 0.980 . S
H436 C438 0.981 . S
H437 C438 0.981 . S
C438 C430 1.481 . S
C438 H435 0.980 . S
C438 H436 0.981 . S
C438 H437 0.981 . S
C439 C426 1.481 . S
C439 H440 0.980 . S
C439 H441 0.981 . S
C439 H442 0.981 . S
H440 C439 0.980 . S
H441 C439 0.981 . S
H442 C439 0.981 . S
O443 Zn419 2.066 . S
O443 C422 1.256 . S
O444 Zn416 2.053 . S
O444 C422 1.244 . S
C445 O423 1.259 . S
C445 O424 1.254 . S
O446 Zn416 2.066 . S
O446 C418 1.256 . S
O447 C418 1.244 . S
O447 Zn419 2.053 . S
Zn448 O449 2.055 . S
Zn448 O456 2.046 . S
Zn448 N464 2.036 . S
Zn448 O476 2.053 . S
Zn448 O478 2.066 . S
O449 Zn448 2.055 . S
O449 C452 1.259 . S
C450 O478 1.256 . S
C450 O479 1.244 . S
Zn451 O453 2.046 . S
Zn451 O455 2.055 . S
Zn451 N457 2.036 . S
Zn451 O475 2.066 . S
Zn451 O479 2.053 . S
C452 O449 1.259 . S
C452 O453 1.254 . S
O453 Zn451 2.046 . S
O453 C452 1.254 . S
C454 O475 1.256 . S
C454 O476 1.244 . S
O455 Zn451 2.055 . S
O455 C477 1.259 . S
O456 Zn448 2.046 . S
O456 C477 1.254 . S
N457 Zn451 2.036 . S
N457 C458 1.298 . S
N457 N460 1.398 . S
C458 N457 1.298 . S
C458 N461 1.367 . S
C458 C471 1.481 . S
C459 N460 1.299 . S
C459 N461 1.379 . S
N460 N457 1.398 . S
N460 C459 1.299 . S
N461 C458 1.367 . S
N461 C459 1.379 . S
C462 N464 1.298 . S
C462 N466 1.367 . S
C462 C470 1.481 . S
C463 N465 1.299 . S
C463 N466 1.379 . S
N464 Zn448 2.036 . S
N464 C462 1.298 . S
N464 N465 1.398 . S
N465 C463 1.299 . S
N465 N464 1.398 . S
N466 C462 1.367 . S
N466 C463 1.379 . S
H467 C470 0.980 . S
H468 C470 0.981 . S
H469 C470 0.981 . S
C470 C462 1.481 . S
C470 H467 0.980 . S
C470 H468 0.981 . S
C470 H469 0.981 . S
C471 C458 1.481 . S
C471 H472 0.980 . S
C471 H473 0.981 . S
C471 H474 0.981 . S
H472 C471 0.980 . S
H473 C471 0.981 . S
H474 C471 0.981 . S
O475 Zn451 2.066 . S
O475 C454 1.256 . S
O476 Zn448 2.053 . S
O476 C454 1.244 . S
C477 O455 1.259 . S
C477 O456 1.254 . S
O478 Zn448 2.066 . S
O478 C450 1.256 . S
O479 C450 1.244 . S
O479 Zn451 2.053 . S
Zn480 O481 2.055 . S
Zn480 O488 2.046 . S
Zn480 N496 2.036 . S
Zn480 O508 2.053 . S
Zn480 O510 2.066 . S
O481 Zn480 2.055 . S
O481 C484 1.259 . S
C482 O510 1.256 . S
C482 O511 1.244 . S
Zn483 O485 2.046 . S
Zn483 O487 2.055 1_455 S
Zn483 N489 2.036 1_455 S
Zn483 O507 2.066 . S
Zn483 O511 2.053 . S
C484 O481 1.259 . S
C484 O485 1.254 . S
O485 Zn483 2.046 . S
O485 C484 1.254 . S
C486 O507 1.256 . S
C486 O508 1.244 . S
O487 Zn483 2.055 1_655 S
O487 C509 1.259 1_655 S
O488 Zn480 2.046 . S
O488 C509 1.254 . S
N489 Zn483 2.036 1_655 S
N489 C490 1.298 . S
N489 N492 1.398 1_655 S
C490 N489 1.298 . S
C490 N493 1.367 . S
C490 C503 1.481 . S
C491 N492 1.299 1_655 S
C491 N493 1.379 . S
N492 N489 1.398 1_455 S
N492 C491 1.299 1_455 S
N493 C490 1.367 . S
N493 C491 1.379 . S
C494 N496 1.298 . S
C494 N498 1.367 . S
C494 C502 1.481 . S
C495 N497 1.299 . S
C495 N498 1.379 . S
N496 Zn480 2.036 . S
N496 C494 1.298 . S
N496 N497 1.398 . S
N497 C495 1.299 . S
N497 N496 1.398 . S
N498 C494 1.367 . S
N498 C495 1.379 . S
H499 C502 0.980 . S
H500 C502 0.981 . S
H501 C502 0.981 . S
C502 C494 1.481 . S
C502 H499 0.980 . S
C502 H500 0.981 . S
C502 H501 0.981 . S
C503 C490 1.481 . S
C503 H504 0.980 . S
C503 H505 0.981 . S
C503 H506 0.981 . S
H504 C503 0.980 . S
H505 C503 0.981 . S
H506 C503 0.981 . S
O507 Zn483 2.066 . S
O507 C486 1.256 . S
O508 Zn480 2.053 . S
O508 C486 1.244 . S
C509 O487 1.259 1_455 S
C509 O488 1.254 . S
O510 Zn480 2.066 . S
O510 C482 1.256 . S
O511 C482 1.244 . S
O511 Zn483 2.053 . S
Zn512 O513 2.055 . S
Zn512 O520 2.046 . S
Zn512 N528 2.036 . S
Zn512 O540 2.053 . S
Zn512 O542 2.066 . S
O513 Zn512 2.055 . S
O513 C516 1.259 . S
C514 O542 1.256 . S
C514 O543 1.244 . S
Zn515 O517 2.046 . S
Zn515 O519 2.055 1_565 S
Zn515 N521 2.036 1_565 S
Zn515 O539 2.066 . S
Zn515 O543 2.053 . S
C516 O513 1.259 . S
C516 O517 1.254 . S
O517 Zn515 2.046 . S
O517 C516 1.254 . S
C518 O539 1.256 . S
C518 O540 1.244 . S
O519 Zn515 2.055 1_545 S
O519 C541 1.259 1_545 S
O520 Zn512 2.046 . S
O520 C541 1.254 . S
N521 Zn515 2.036 1_545 S
N521 C522 1.298 . S
N521 N524 1.398 1_545 S
C522 N521 1.298 . S
C522 N525 1.367 . S
C522 C535 1.481 . S
C523 N524 1.299 1_545 S
C523 N525 1.379 . S
N524 N521 1.398 1_565 S
N524 C523 1.299 1_565 S
N525 C522 1.367 . S
N525 C523 1.379 . S
C526 N528 1.298 . S
C526 N530 1.367 . S
C526 C534 1.481 . S
C527 N529 1.299 . S
C527 N530 1.379 . S
N528 Zn512 2.036 . S
N528 C526 1.298 . S
N528 N529 1.398 . S
N529 C527 1.299 . S
N529 N528 1.398 . S
N530 C526 1.367 . S
N530 C527 1.379 . S
H531 C534 0.980 . S
H532 C534 0.981 . S
H533 C534 0.981 . S
C534 C526 1.481 . S
C534 H531 0.980 . S
C534 H532 0.981 . S
C534 H533 0.981 . S
C535 C522 1.481 . S
C535 H536 0.980 . S
C535 H537 0.981 . S
C535 H538 0.981 . S
H536 C535 0.980 . S
H537 C535 0.981 . S
H538 C535 0.981 . S
O539 Zn515 2.066 . S
O539 C518 1.256 . S
O540 Zn512 2.053 . S
O540 C518 1.244 . S
C541 O519 1.259 1_565 S
C541 O520 1.254 . S
O542 Zn512 2.066 . S
O542 C514 1.256 . S
O543 C514 1.244 . S
O543 Zn515 2.053 . S
Zn544 O545 2.055 1_545 S
Zn544 O552 2.046 . S
Zn544 N560 2.036 1_545 S
Zn544 O572 2.053 . S
Zn544 O574 2.066 . S
O545 Zn544 2.055 1_565 S
O545 C548 1.259 1_565 S
C546 O574 1.256 . S
C546 O575 1.244 . S
Zn547 O549 2.046 . S
Zn547 O551 2.055 . S
Zn547 N553 2.036 . S
Zn547 O571 2.066 . S
Zn547 O575 2.053 . S
C548 O545 1.259 1_545 S
C548 O549 1.254 . S
O549 Zn547 2.046 . S
O549 C548 1.254 . S
C550 O571 1.256 . S
C550 O572 1.244 . S
O551 Zn547 2.055 . S
O551 C573 1.259 . S
O552 Zn544 2.046 . S
O552 C573 1.254 . S
N553 Zn547 2.036 . S
N553 C554 1.298 . S
N553 N556 1.398 . S
C554 N553 1.298 . S
C554 N557 1.367 . S
C554 C567 1.481 . S
C555 N556 1.299 . S
C555 N557 1.379 . S
N556 N553 1.398 . S
N556 C555 1.299 . S
N557 C554 1.367 . S
N557 C555 1.379 . S
C558 N560 1.298 . S
C558 N562 1.367 . S
C558 C566 1.481 . S
C559 N561 1.299 1_565 S
C559 N562 1.379 . S
N560 Zn544 2.036 1_565 S
N560 C558 1.298 . S
N560 N561 1.398 1_565 S
N561 C559 1.299 1_545 S
N561 N560 1.398 1_545 S
N562 C558 1.367 . S
N562 C559 1.379 . S
H563 C566 0.980 . S
H564 C566 0.981 . S
H565 C566 0.981 . S
C566 C558 1.481 . S
C566 H563 0.980 . S
C566 H564 0.981 . S
C566 H565 0.981 . S
C567 C554 1.481 . S
C567 H568 0.980 . S
C567 H569 0.981 . S
C567 H570 0.981 . S
H568 C567 0.980 . S
H569 C567 0.981 . S
H570 C567 0.981 . S
O571 Zn547 2.066 . S
O571 C550 1.256 . S
O572 Zn544 2.053 . S
O572 C550 1.244 . S
C573 O551 1.259 . S
C573 O552 1.254 . S
O574 Zn544 2.066 . S
O574 C546 1.256 . S
O575 C546 1.244 . S
O575 Zn547 2.053 . S
Zn576 O577 2.055 . S
Zn576 O584 2.046 . S
Zn576 N592 2.036 . S
Zn576 O604 2.053 . S
Zn576 O606 2.066 . S
O577 Zn576 2.055 . S
O577 C580 1.259 . S
C578 O606 1.256 . S
C578 O607 1.244 . S
Zn579 O581 2.046 . S
Zn579 O583 2.055 . S
Zn579 N585 2.036 . S
Zn579 O603 2.066 . S
Zn579 O607 2.053 . S
C580 O577 1.259 . S
C580 O581 1.254 . S
O581 Zn579 2.046 . S
O581 C580 1.254 . S
C582 O603 1.256 . S
C582 O604 1.244 . S
O583 Zn579 2.055 . S
O583 C605 1.259 . S
O584 Zn576 2.046 . S
O584 C605 1.254 . S
N585 Zn579 2.036 . S
N585 C586 1.298 . S
N585 N588 1.398 . S
C586 N585 1.298 . S
C586 N589 1.367 . S
C586 C599 1.481 . S
C587 N588 1.299 . S
C587 N589 1.379 . S
N588 N585 1.398 . S
N588 C587 1.299 . S
N589 C586 1.367 . S
N589 C587 1.379 . S
C590 N592 1.298 . S
C590 N594 1.367 . S
C590 C598 1.481 . S
C591 N593 1.299 . S
C591 N594 1.379 . S
N592 Zn576 2.036 . S
N592 C590 1.298 . S
N592 N593 1.398 . S
N593 C591 1.299 . S
N593 N592 1.398 . S
N594 C590 1.367 . S
N594 C591 1.379 . S
H595 C598 0.980 . S
H596 C598 0.981 . S
H597 C598 0.981 . S
C598 C590 1.481 . S
C598 H595 0.980 . S
C598 H596 0.981 . S
C598 H597 0.981 . S
C599 C586 1.481 . S
C599 H600 0.980 . S
C599 H601 0.981 . S
C599 H602 0.981 . S
H600 C599 0.980 . S
H601 C599 0.981 . S
H602 C599 0.981 . S
O603 Zn579 2.066 . S
O603 C582 1.256 . S
O604 Zn576 2.053 . S
O604 C582 1.244 . S
C605 O583 1.259 . S
C605 O584 1.254 . S
O606 Zn576 2.066 . S
O606 C578 1.256 . S
O607 C578 1.244 . S
O607 Zn579 2.053 . S
Zn608 O609 2.055 . S
Zn608 O616 2.046 . S
Zn608 N624 2.036 . S
Zn608 O636 2.053 . S
Zn608 O638 2.066 . S
O609 Zn608 2.055 . S
O609 C612 1.259 . S
C610 O638 1.256 . S
C610 O639 1.244 . S
Zn611 O613 2.046 . S
Zn611 O615 2.055 . S
Zn611 N617 2.036 . S
Zn611 O635 2.066 . S
Zn611 O639 2.053 . S
C612 O609 1.259 . S
C612 O613 1.254 . S
O613 Zn611 2.046 . S
O613 C612 1.254 . S
C614 O635 1.256 . S
C614 O636 1.244 . S
O615 Zn611 2.055 . S
O615 C637 1.259 . S
O616 Zn608 2.046 . S
O616 C637 1.254 . S
N617 Zn611 2.036 . S
N617 C618 1.298 . S
N617 N620 1.398 . S
C618 N617 1.298 . S
C618 N621 1.367 . S
C618 C631 1.481 . S
C619 N620 1.299 . S
C619 N621 1.379 . S
N620 N617 1.398 . S
N620 C619 1.299 . S
N621 C618 1.367 . S
N621 C619 1.379 . S
C622 N624 1.298 . S
C622 N626 1.367 . S
C622 C630 1.481 . S
C623 N625 1.299 . S
C623 N626 1.379 . S
N624 Zn608 2.036 . S
N624 C622 1.298 . S
N624 N625 1.398 . S
N625 C623 1.299 . S
N625 N624 1.398 . S
N626 C622 1.367 . S
N626 C623 1.379 . S
H627 C630 0.980 . S
H628 C630 0.981 . S
H629 C630 0.981 . S
C630 C622 1.481 . S
C630 H627 0.980 . S
C630 H628 0.981 . S
C630 H629 0.981 . S
C631 C618 1.481 . S
C631 H632 0.980 . S
C631 H633 0.981 . S
C631 H634 0.981 . S
H632 C631 0.980 . S
H633 C631 0.981 . S
H634 C631 0.981 . S
O635 Zn611 2.066 . S
O635 C614 1.256 . S
O636 Zn608 2.053 . S
O636 C614 1.244 . S
C637 O615 1.259 . S
C637 O616 1.254 . S
O638 Zn608 2.066 . S
O638 C610 1.256 . S
O639 C610 1.244 . S
O639 Zn611 2.053 . S
Zn640 O641 2.055 1_556 S
Zn640 O648 2.046 . S
Zn640 N656 2.036 1_556 S
Zn640 O668 2.053 . S
Zn640 O670 2.066 . S
O641 Zn640 2.055 1_554 S
O641 C644 1.259 1_554 S
C642 O670 1.256 . S
C642 O671 1.244 . S
Zn643 O645 2.046 . S
Zn643 O647 2.055 . S
Zn643 N649 2.036 . S
Zn643 O667 2.066 . S
Zn643 O671 2.053 . S
C644 O641 1.259 1_556 S
C644 O645 1.254 . S
O645 Zn643 2.046 . S
O645 C644 1.254 . S
C646 O667 1.256 . S
C646 O668 1.244 . S
O647 Zn643 2.055 . S
O647 C669 1.259 . S
O648 Zn640 2.046 . S
O648 C669 1.254 . S
N649 Zn643 2.036 . S
N649 C650 1.298 . S
N649 N652 1.398 . S
C650 N649 1.298 . S
C650 N653 1.367 . S
C650 C663 1.481 . S
C651 N652 1.299 . S
C651 N653 1.379 . S
N652 N649 1.398 . S
N652 C651 1.299 . S
N653 C650 1.367 . S
N653 C651 1.379 . S
C654 N656 1.298 . S
C654 N658 1.367 . S
C654 C662 1.481 . S
C655 N657 1.299 1_554 S
C655 N658 1.379 . S
N656 Zn640 2.036 1_554 S
N656 C654 1.298 . S
N656 N657 1.398 1_554 S
N657 C655 1.299 1_556 S
N657 N656 1.398 1_556 S
N658 C654 1.367 . S
N658 C655 1.379 . S
H659 C662 0.980 . S
H660 C662 0.981 . S
H661 C662 0.981 . S
C662 C654 1.481 . S
C662 H659 0.980 . S
C662 H660 0.981 . S
C662 H661 0.981 . S
C663 C650 1.481 . S
C663 H664 0.980 . S
C663 H665 0.981 . S
C663 H666 0.981 . S
H664 C663 0.980 . S
H665 C663 0.981 . S
H666 C663 0.981 . S
O667 Zn643 2.066 . S
O667 C646 1.256 . S
O668 Zn640 2.053 . S
O668 C646 1.244 . S
C669 O647 1.259 . S
C669 O648 1.254 . S
O670 Zn640 2.066 . S
O670 C642 1.256 . S
O671 C642 1.244 . S
O671 Zn643 2.053 . S
Zn672 O673 2.055 1_554 S
Zn672 O680 2.046 . S
Zn672 N688 2.036 1_554 S
Zn672 O700 2.053 . S
Zn672 O702 2.066 . S
O673 Zn672 2.055 1_556 S
O673 C676 1.259 1_556 S
C674 O702 1.256 . S
C674 O703 1.244 . S
Zn675 O677 2.046 . S
Zn675 O679 2.055 . S
Zn675 N681 2.036 . S
Zn675 O699 2.066 . S
Zn675 O703 2.053 . S
C676 O673 1.259 1_554 S
C676 O677 1.254 . S
O677 Zn675 2.046 . S
O677 C676 1.254 . S
C678 O699 1.256 . S
C678 O700 1.244 . S
O679 Zn675 2.055 . S
O679 C701 1.259 . S
O680 Zn672 2.046 . S
O680 C701 1.254 . S
N681 Zn675 2.036 . S
N681 C682 1.298 . S
N681 N684 1.398 . S
C682 N681 1.298 . S
C682 N685 1.367 . S
C682 C695 1.481 . S
C683 N684 1.299 . S
C683 N685 1.379 . S
N684 N681 1.398 . S
N684 C683 1.299 . S
N685 C682 1.367 . S
N685 C683 1.379 . S
C686 N688 1.298 . S
C686 N690 1.367 . S
C686 C694 1.481 . S
C687 N689 1.299 1_556 S
C687 N690 1.379 . S
N688 Zn672 2.036 1_556 S
N688 C686 1.298 . S
N688 N689 1.398 1_556 S
N689 C687 1.299 1_554 S
N689 N688 1.398 1_554 S
N690 C686 1.367 . S
N690 C687 1.379 . S
H691 C694 0.980 . S
H692 C694 0.981 . S
H693 C694 0.981 . S
C694 C686 1.481 . S
C694 H691 0.980 . S
C694 H692 0.981 . S
C694 H693 0.981 . S
C695 C682 1.481 . S
C695 H696 0.980 . S
C695 H697 0.981 . S
C695 H698 0.981 . S
H696 C695 0.980 . S
H697 C695 0.981 . S
H698 C695 0.981 . S
O699 Zn675 2.066 . S
O699 C678 1.256 . S
O700 Zn672 2.053 . S
O700 C678 1.244 . S
C701 O679 1.259 . S
C701 O680 1.254 . S
O702 Zn672 2.066 . S
O702 C674 1.256 . S
O703 C674 1.244 . S
O703 Zn675 2.053 . S
Zn704 O705 2.055 . S
Zn704 O712 2.046 . S
Zn704 N720 2.036 . S
Zn704 O732 2.053 . S
Zn704 O734 2.066 . S
O705 Zn704 2.055 . S
O705 C708 1.259 . S
C706 O734 1.256 . S
C706 O735 1.244 . S
Zn707 O709 2.046 . S
Zn707 O711 2.055 . S
Zn707 N713 2.036 . S
Zn707 O731 2.066 . S
Zn707 O735 2.053 . S
C708 O705 1.259 . S
C708 O709 1.254 . S
O709 Zn707 2.046 . S
O709 C708 1.254 . S
C710 O731 1.256 . S
C710 O732 1.244 . S
O711 Zn707 2.055 . S
O711 C733 1.259 . S
O712 Zn704 2.046 . S
O712 C733 1.254 . S
N713 Zn707 2.036 . S
N713 C714 1.298 . S
N713 N716 1.398 . S
C714 N713 1.298 . S
C714 N717 1.367 . S
C714 C727 1.481 . S
C715 N716 1.299 . S
C715 N717 1.379 . S
N716 N713 1.398 . S
N716 C715 1.299 . S
N717 C714 1.367 . S
N717 C715 1.379 . S
C718 N720 1.298 . S
C718 N722 1.367 . S
C718 C726 1.481 . S
C719 N721 1.299 . S
C719 N722 1.379 . S
N720 Zn704 2.036 . S
N720 C718 1.298 . S
N720 N721 1.398 . S
N721 C719 1.299 . S
N721 N720 1.398 . S
N722 C718 1.367 . S
N722 C719 1.379 . S
H723 C726 0.980 . S
H724 C726 0.981 . S
H725 C726 0.981 . S
C726 C718 1.481 . S
C726 H723 0.980 . S
C726 H724 0.981 . S
C726 H725 0.981 . S
C727 C714 1.481 . S
C727 H728 0.980 . S
C727 H729 0.981 . S
C727 H730 0.981 . S
H728 C727 0.980 . S
H729 C727 0.981 . S
H730 C727 0.981 . S
O731 Zn707 2.066 . S
O731 C710 1.256 . S
O732 Zn704 2.053 . S
O732 C710 1.244 . S
C733 O711 1.259 . S
C733 O712 1.254 . S
O734 Zn704 2.066 . S
O734 C706 1.256 . S
O735 C706 1.244 . S
O735 Zn707 2.053 . S
Zn736 O737 2.055 . S
Zn736 O744 2.046 . S
Zn736 N752 2.036 . S
Zn736 O764 2.053 . S
Zn736 O766 2.066 . S
O737 Zn736 2.055 . S
O737 C740 1.259 . S
C738 O766 1.256 . S
C738 O767 1.244 . S
Zn739 O741 2.046 . S
Zn739 O743 2.055 . S
Zn739 N745 2.036 . S
Zn739 O763 2.066 . S
Zn739 O767 2.053 . S
C740 O737 1.259 . S
C740 O741 1.254 . S
O741 Zn739 2.046 . S
O741 C740 1.254 . S
C742 O763 1.256 . S
C742 O764 1.244 . S
O743 Zn739 2.055 . S
O743 C765 1.259 . S
O744 Zn736 2.046 . S
O744 C765 1.254 . S
N745 Zn739 2.036 . S
N745 C746 1.298 . S
N745 N748 1.398 . S
C746 N745 1.298 . S
C746 N749 1.367 . S
C746 C759 1.481 . S
C747 N748 1.299 . S
C747 N749 1.379 . S
N748 N745 1.398 . S
N748 C747 1.299 . S
N749 C746 1.367 . S
N749 C747 1.379 . S
C750 N752 1.298 . S
C750 N754 1.367 . S
C750 C758 1.481 . S
C751 N753 1.299 . S
C751 N754 1.379 . S
N752 Zn736 2.036 . S
N752 C750 1.298 . S
N752 N753 1.398 . S
N753 C751 1.299 . S
N753 N752 1.398 . S
N754 C750 1.367 . S
N754 C751 1.379 . S
H755 C758 0.980 . S
H756 C758 0.981 . S
H757 C758 0.981 . S
C758 C750 1.481 . S
C758 H755 0.980 . S
C758 H756 0.981 . S
C758 H757 0.981 . S
C759 C746 1.481 . S
C759 H760 0.980 . S
C759 H761 0.981 . S
C759 H762 0.981 . S
H760 C759 0.980 . S
H761 C759 0.981 . S
H762 C759 0.981 . S
O763 Zn739 2.066 . S
O763 C742 1.256 . S
O764 Zn736 2.053 . S
O764 C742 1.244 . S
C765 O743 1.259 . S
C765 O744 1.254 . S
O766 Zn736 2.066 . S
O766 C738 1.256 . S
O767 C738 1.244 . S
O767 Zn739 2.053 . S
H768 C774 0.930 . S
H769 C778 0.930 . S
H770 C783 0.929 . S
H771 C781 0.929 . S
H772 C776 0.929 . S
H773 C782 0.929 . S
C774 H768 0.930 . S
C774 C775 1.367 . S
C774 C782 1.378 . S
C775 C774 1.367 . S
C775 C783 1.433 . S
C776 H772 0.929 . S
C776 C778 1.378 . S
C776 C780 1.350 . S
C777 C780 1.463 . S
C777 C782 1.350 . S
C777 N785 1.427 . S
C778 H769 0.930 . S
C778 C776 1.378 . S
C778 C779 1.367 . S
C779 C778 1.367 . S
C779 C781 1.433 . S
C780 C776 1.350 . S
C780 C777 1.463 . S
C780 N784 1.427 . S
C781 H771 0.929 . S
C781 C779 1.433 . S
C781 N784 1.384 . S
C782 H773 0.929 . S
C782 C774 1.378 . S
C782 C777 1.350 . S
C783 H770 0.929 . S
C783 C775 1.433 . S
C783 N785 1.384 . S
N784 C780 1.427 . S
N784 C781 1.384 . S
N785 C777 1.427 . S
N785 C783 1.384 . S
H786 C792 0.930 . S
H787 C796 0.930 . S
H788 C801 0.929 . S
H789 C799 0.929 . S
H790 C794 0.929 . S
H791 C800 0.929 . S
C792 H786 0.930 . S
C792 C793 1.367 . S
C792 C800 1.378 . S
C793 C792 1.367 . S
C793 C801 1.433 . S
C794 H790 0.929 . S
C794 C796 1.378 . S
C794 C798 1.350 . S
C795 C798 1.463 . S
C795 C800 1.350 . S
C795 N803 1.427 . S
C796 H787 0.930 . S
C796 C794 1.378 . S
C796 C797 1.367 . S
C797 C796 1.367 . S
C797 C799 1.433 . S
C798 C794 1.350 . S
C798 C795 1.463 . S
C798 N802 1.427 . S
C799 H789 0.929 . S
C799 C797 1.433 . S
C799 N802 1.384 . S
C800 H791 0.929 . S
C800 C792 1.378 . S
C800 C795 1.350 . S
C801 H788 0.929 . S
C801 C793 1.433 . S
C801 N803 1.384 . S
N802 C798 1.427 . S
N802 C799 1.384 . S
N803 C795 1.427 . S
N803 C801 1.384 . S
H804 C810 0.930 . S
H805 C814 0.930 . S
H806 C819 0.929 . S
H807 C817 0.929 . S
H808 C812 0.929 . S
H809 C818 0.929 . S
C810 H804 0.930 . S
C810 C811 1.367 . S
C810 C818 1.378 . S
C811 C810 1.367 . S
C811 C819 1.433 . S
C812 H808 0.929 . S
C812 C814 1.378 . S
C812 C816 1.350 . S
C813 C816 1.463 . S
C813 C818 1.350 . S
C813 N821 1.427 . S
C814 H805 0.930 . S
C814 C812 1.378 . S
C814 C815 1.367 . S
C815 C814 1.367 . S
C815 C817 1.433 . S
C816 C812 1.350 . S
C816 C813 1.463 . S
C816 N820 1.427 . S
C817 H807 0.929 . S
C817 C815 1.433 . S
C817 N820 1.384 . S
C818 H809 0.929 . S
C818 C810 1.378 . S
C818 C813 1.350 . S
C819 H806 0.929 . S
C819 C811 1.433 . S
C819 N821 1.384 . S
N820 C816 1.427 . S
N820 C817 1.384 . S
N821 C813 1.427 . S
N821 C819 1.384 . S
H822 C828 0.930 . S
H823 C832 0.909 1_545 S
H824 C837 0.929 . S
H825 C835 0.929 . S
H826 C830 0.929 . S
H827 C836 0.929 . S
C828 H822 0.930 . S
C828 C829 1.367 . S
C828 C836 1.378 . S
C829 C828 1.367 . S
C829 C837 1.433 . S
C830 H826 0.929 . S
C830 C832 1.378 . S
C830 C834 1.350 . S
C831 C834 1.463 . S
C831 C836 1.350 . S
C831 N839 1.427 . S
C832 H823 0.909 1_565 S
C832 C830 1.378 . S
C832 C833 1.367 . S
C833 C832 1.367 . S
C833 C835 1.433 . S
C834 C830 1.350 . S
C834 C831 1.463 . S
C834 N838 1.427 . S
C835 H825 0.929 . S
C835 C833 1.433 . S
C835 N838 1.384 . S
C836 H827 0.929 . S
C836 C828 1.378 . S
C836 C831 1.350 . S
C837 H824 0.929 . S
C837 C829 1.433 . S
C837 N839 1.384 . S
N838 C834 1.427 . S
N838 C835 1.384 . S
N839 C831 1.427 . S
N839 C837 1.384 . S
H840 C846 0.930 . S
H841 C850 0.930 . S
H842 C855 0.929 . S
H843 C853 0.929 . S
H844 C848 0.929 . S
H845 C854 0.929 . S
C846 H840 0.930 . S
C846 C847 1.367 . S
C846 C854 1.378 . S
C847 C846 1.367 . S
C847 C855 1.433 . S
C848 H844 0.929 . S
C848 C850 1.378 . S
C848 C852 1.350 . S
C849 C852 1.463 . S
C849 C854 1.350 . S
C849 N857 1.427 . S
C850 H841 0.930 . S
C850 C848 1.378 . S
C850 C851 1.367 . S
C851 C850 1.367 . S
C851 C853 1.433 . S
C852 C848 1.350 . S
C852 C849 1.463 . S
C852 N856 1.427 . S
C853 H843 0.929 . S
C853 C851 1.433 . S
C853 N856 1.384 . S
C854 H845 0.929 . S
C854 C846 1.378 . S
C854 C849 1.350 . S
C855 H842 0.929 . S
C855 C847 1.433 . S
C855 N857 1.384 . S
N856 C852 1.427 . S
N856 C853 1.384 . S
N857 C849 1.427 . S
N857 C855 1.384 . S
H858 C864 0.930 . S
H859 C868 0.930 . S
H860 C873 0.929 . S
H861 C871 0.929 1_554 S
H862 C866 0.929 . S
H863 C872 0.929 . S
C864 H858 0.930 . S
C864 C865 1.367 . S
C864 C872 1.378 . S
C865 C864 1.367 . S
C865 C873 1.433 . S
C866 H862 0.929 . S
C866 C868 1.378 . S
C866 C870 1.350 . S
C867 C870 1.463 . S
C867 C872 1.350 . S
C867 N875 1.427 . S
C868 H859 0.930 . S
C868 C866 1.378 . S
C868 C869 1.367 . S
C869 C868 1.367 . S
C869 C871 1.433 . S
C870 C866 1.350 . S
C870 C867 1.463 . S
C870 N874 1.427 . S
C871 H861 0.929 1_556 S
C871 C869 1.433 . S
C871 N874 1.384 . S
C872 H863 0.929 . S
C872 C864 1.378 . S
C872 C867 1.350 . S
C873 H860 0.929 . S
C873 C865 1.433 . S
C873 N875 1.384 . S
N874 C870 1.427 . S
N874 C871 1.384 . S
N875 C867 1.427 . S
N875 C873 1.384 . S
H876 C882 0.930 . S
H877 C886 0.930 . S
H878 C891 0.929 . S
H879 C889 0.929 . S
H880 C884 0.929 . S
H881 C890 0.929 . S
C882 H876 0.930 . S
C882 C883 1.367 . S
C882 C890 1.378 . S
C883 C882 1.367 . S
C883 C891 1.433 . S
C884 H880 0.929 . S
C884 C886 1.378 . S
C884 C888 1.350 . S
C885 C888 1.463 . S
C885 C890 1.350 . S
C885 N893 1.427 . S
C886 H877 0.930 . S
C886 C884 1.378 . S
C886 C887 1.367 . S
C887 C886 1.367 . S
C887 C889 1.433 . S
C888 C884 1.350 . S
C888 C885 1.463 . S
C888 N892 1.427 . S
C889 H879 0.929 . S
C889 C887 1.433 . S
C889 N892 1.384 . S
C890 H881 0.929 . S
C890 C882 1.378 . S
C890 C885 1.350 . S
C891 H878 0.929 . S
C891 C883 1.433 . S
C891 N893 1.384 . S
N892 C888 1.427 . S
N892 C889 1.384 . S
N893 C885 1.427 . S
N893 C891 1.384 . S
H894 C900 0.930 . S
H895 C904 0.930 . S
H896 C909 0.929 . S
H897 C907 0.929 . S
H898 C902 0.929 . S
H899 C908 0.929 . S
C900 H894 0.930 . S
C900 C901 1.367 . S
C900 C908 1.378 . S
C901 C900 1.367 . S
C901 C909 1.433 . S
C902 H898 0.929 . S
C902 C904 1.378 . S
C902 C906 1.350 . S
C903 C906 1.463 . S
C903 C908 1.350 . S
C903 N911 1.427 . S
C904 H895 0.930 . S
C904 C902 1.378 . S
C904 C905 1.367 . S
C905 C904 1.367 . S
C905 C907 1.433 . S
C906 C902 1.350 . S
C906 C903 1.463 . S
C906 N910 1.427 . S
C907 H897 0.929 . S
C907 C905 1.433 . S
C907 N910 1.384 . S
C908 H899 0.929 . S
C908 C900 1.378 . S
C908 C903 1.350 . S
C909 H896 0.929 . S
C909 C901 1.433 . S
C909 N911 1.384 . S
N910 C906 1.427 . S
N910 C907 1.384 . S
N911 C903 1.427 . S
N911 C909 1.384 . S
H912 C918 0.930 . S
H913 C922 0.930 . S
H914 C927 0.929 . S
H915 C925 0.929 . S
H916 C920 0.929 . S
H917 C926 0.929 . S
C918 H912 0.930 . S
C918 C919 1.367 . S
C918 C926 1.378 . S
C919 C918 1.367 . S
C919 C927 1.433 . S
C920 H916 0.929 . S
C920 C922 1.378 . S
C920 C924 1.350 . S
C921 C924 1.463 . S
C921 C926 1.350 . S
C921 N929 1.427 . S
C922 H913 0.930 . S
C922 C920 1.378 . S
C922 C923 1.367 . S
C923 C922 1.367 . S
C923 C925 1.433 . S
C924 C920 1.350 . S
C924 C921 1.463 . S
C924 N928 1.427 . S
C925 H915 0.929 . S
C925 C923 1.433 . S
C925 N928 1.384 . S
C926 H917 0.929 . S
C926 C918 1.378 . S
C926 C921 1.350 . S
C927 H914 0.929 . S
C927 C919 1.433 . S
C927 N929 1.384 . S
N928 C924 1.427 . S
N928 C925 1.384 . S
N929 C921 1.427 . S
N929 C927 1.384 . S
H930 C936 0.930 . S
H931 C940 0.930 . S
H932 C945 0.929 . S
H933 C943 0.929 1_455 S
H934 C938 0.929 . S
H935 C944 0.929 . S
C936 H930 0.930 . S
C936 C937 1.367 . S
C936 C944 1.378 . S
C937 C936 1.367 . S
C937 C945 1.433 . S
C938 H934 0.929 . S
C938 C940 1.378 . S
C938 C942 1.350 . S
C939 C942 1.463 . S
C939 C944 1.350 . S
C939 N947 1.427 . S
C940 H931 0.930 . S
C940 C938 1.378 . S
C940 C941 1.367 . S
C941 C940 1.367 . S
C941 C943 1.433 . S
C942 C938 1.350 . S
C942 C939 1.463 . S
C942 N946 1.427 . S
C943 H933 0.929 1_655 S
C943 C941 1.433 . S
C943 N946 1.384 . S
C944 H935 0.929 . S
C944 C936 1.378 . S
C944 C939 1.350 . S
C945 H932 0.929 . S
C945 C937 1.433 . S
C945 N947 1.384 . S
N946 C942 1.427 . S
N946 C943 1.384 . S
N947 C939 1.427 . S
N947 C945 1.384 . S
H948 C954 0.930 . S
H949 C958 0.930 . S
H950 C963 0.929 . S
H951 C961 0.929 . S
H952 C956 0.929 . S
H953 C962 0.929 . S
C954 H948 0.930 . S
C954 C955 1.367 . S
C954 C962 1.378 . S
C955 C954 1.367 . S
C955 C963 1.433 . S
C956 H952 0.929 . S
C956 C958 1.378 . S
C956 C960 1.350 . S
C957 C960 1.463 . S
C957 C962 1.350 . S
C957 N965 1.427 . S
C958 H949 0.930 . S
C958 C956 1.378 . S
C958 C959 1.367 . S
C959 C958 1.367 . S
C959 C961 1.433 . S
C960 C956 1.350 . S
C960 C957 1.463 . S
C960 N964 1.427 . S
C961 H951 0.929 . S
C961 C959 1.433 . S
C961 N964 1.384 . S
C962 H953 0.929 . S
C962 C954 1.378 . S
C962 C957 1.350 . S
C963 H950 0.929 . S
C963 C955 1.433 . S
C963 N965 1.384 . S
N964 C960 1.427 . S
N964 C961 1.384 . S
N965 C957 1.427 . S
N965 C963 1.384 . S
H966 C972 0.930 . S
H967 C976 0.930 . S
H968 C981 0.929 . S
H969 C979 0.929 . S
H970 C974 0.929 . S
H971 C980 0.929 . S
C972 H966 0.930 . S
C972 C973 1.367 . S
C972 C980 1.378 . S
C973 C972 1.367 . S
C973 C981 1.433 . S
C974 H970 0.929 . S
C974 C976 1.378 . S
C974 C978 1.350 . S
C975 C978 1.463 . S
C975 C980 1.350 . S
C975 N983 1.427 . S
C976 H967 0.930 . S
C976 C974 1.378 . S
C976 C977 1.367 . S
C977 C976 1.367 . S
C977 C979 1.433 . S
C978 C974 1.350 . S
C978 C975 1.463 . S
C978 N982 1.427 . S
C979 H969 0.929 . S
C979 C977 1.433 . S
C979 N982 1.384 . S
C980 H971 0.929 . S
C980 C972 1.378 . S
C980 C975 1.350 . S
C981 H968 0.929 . S
C981 C973 1.433 . S
C981 N983 1.384 . S
N982 C978 1.427 . S
N982 C979 1.384 . S
N983 C975 1.427 . S
N983 C981 1.384 . S
H984 C990 0.930 . S
H985 C994 0.930 . S
H986 C999 0.929 . S
H987 C997 0.929 . S
H988 C992 0.929 . S
H989 C998 0.929 . S
C990 H984 0.930 . S
C990 C991 1.367 . S
C990 C998 1.378 . S
C991 C990 1.367 . S
C991 C999 1.433 . S
C992 H988 0.929 . S
C992 C994 1.378 . S
C992 C996 1.350 . S
C993 C996 1.463 . S
C993 C998 1.350 . S
C993 N1001 1.427 . S
C994 H985 0.930 . S
C994 C992 1.378 . S
C994 C995 1.367 . S
C995 C994 1.367 . S
C995 C997 1.433 . S
C996 C992 1.350 . S
C996 C993 1.463 . S
C996 N1000 1.427 . S
C997 H987 0.929 . S
C997 C995 1.433 . S
C997 N1000 1.384 . S
C998 H989 0.929 . S
C998 C990 1.378 . S
C998 C993 1.350 . S
C999 H986 0.929 . S
C999 C991 1.433 . S
C999 N1001 1.384 . S
N1000 C996 1.427 . S
N1000 C997 1.384 . S
N1001 C993 1.427 . S
N1001 C999 1.384 . S
H1002 C1008 0.930 . S
H1003 C1012 0.930 . S
H1004 C1017 0.929 . S
H1005 C1015 0.929 . S
H1006 C1010 0.929 . S
H1007 C1016 0.929 . S
C1008 H1002 0.930 . S
C1008 C1009 1.367 . S
C1008 C1016 1.378 . S
C1009 C1008 1.367 . S
C1009 C1017 1.433 . S
C1010 H1006 0.929 . S
C1010 C1012 1.378 . S
C1010 C1014 1.350 . S
C1011 C1014 1.463 . S
C1011 C1016 1.350 . S
C1011 N1019 1.427 . S
C1012 H1003 0.930 . S
C1012 C1010 1.378 . S
C1012 C1013 1.367 . S
C1013 C1012 1.367 . S
C1013 C1015 1.433 . S
C1014 C1010 1.350 . S
C1014 C1011 1.463 . S
C1014 N1018 1.427 . S
C1015 H1005 0.929 . S
C1015 C1013 1.433 . S
C1015 N1018 1.384 . S
C1016 H1007 0.929 . S
C1016 C1008 1.378 . S
C1016 C1011 1.350 . S
C1017 H1004 0.929 . S
C1017 C1009 1.433 . S
C1017 N1019 1.384 . S
N1018 C1014 1.427 . S
N1018 C1015 1.384 . S
N1019 C1011 1.427 . S
N1019 C1017 1.384 . S
H1020 C1026 0.930 . S
H1021 C1030 0.930 . S
H1022 C1035 0.929 . S
H1023 C1033 0.929 . S
H1024 C1028 0.929 . S
H1025 C1034 0.929 . S
C1026 H1020 0.930 . S
C1026 C1027 1.367 . S
C1026 C1034 1.378 . S
C1027 C1026 1.367 . S
C1027 C1035 1.433 . S
C1028 H1024 0.929 . S
C1028 C1030 1.378 . S
C1028 C1032 1.350 . S
C1029 C1032 1.463 . S
C1029 C1034 1.350 . S
C1029 N1037 1.427 . S
C1030 H1021 0.930 . S
C1030 C1028 1.378 . S
C1030 C1031 1.367 . S
C1031 C1030 1.367 . S
C1031 C1033 1.433 . S
C1032 C1028 1.350 . S
C1032 C1029 1.463 . S
C1032 N1036 1.427 . S
C1033 H1023 0.929 . S
C1033 C1031 1.433 . S
C1033 N1036 1.384 . S
C1034 H1025 0.929 . S
C1034 C1026 1.378 . S
C1034 C1029 1.350 . S
C1035 H1022 0.929 . S
C1035 C1027 1.433 . S
C1035 N1037 1.384 . S
N1036 C1032 1.427 . S
N1036 C1033 1.384 . S
N1037 C1029 1.427 . S
N1037 C1035 1.384 . S
H1038 C1044 0.930 . S
H1039 C1048 0.930 . S
H1040 C1053 0.929 . S
H1041 C1051 0.929 . S
H1042 C1046 0.929 . S
H1043 C1052 0.929 . S
C1044 H1038 0.930 . S
C1044 C1045 1.367 . S
C1044 C1052 1.378 . S
C1045 C1044 1.367 . S
C1045 C1053 1.433 . S
C1046 H1042 0.929 . S
C1046 C1048 1.378 . S
C1046 C1050 1.350 . S
C1047 C1050 1.463 . S
C1047 C1052 1.350 . S
C1047 N1055 1.427 . S
C1048 H1039 0.930 . S
C1048 C1046 1.378 . S
C1048 C1049 1.367 . S
C1049 C1048 1.367 . S
C1049 C1051 1.433 . S
C1050 C1046 1.350 . S
C1050 C1047 1.463 . S
C1050 N1054 1.427 . S
C1051 H1041 0.929 . S
C1051 C1049 1.433 . S
C1051 N1054 1.384 . S
C1052 H1043 0.929 . S
C1052 C1044 1.378 . S
C1052 C1047 1.350 . S
C1053 H1040 0.929 . S
C1053 C1045 1.433 . S
C1053 N1055 1.384 . S
N1054 C1050 1.427 . S
N1054 C1051 1.384 . S
N1055 C1047 1.427 . S
N1055 C1053 1.384 . S
H1056 C1062 0.930 . S
H1057 C1066 0.930 . S
H1058 C1071 0.929 . S
H1059 C1069 0.929 . S
H1060 C1064 0.929 . S
H1061 C1070 0.929 . S
C1062 H1056 0.930 . S
C1062 C1063 1.367 . S
C1062 C1070 1.378 . S
C1063 C1062 1.367 . S
C1063 C1071 1.433 . S
C1064 H1060 0.929 . S
C1064 C1066 1.378 . S
C1064 C1068 1.350 . S
C1065 C1068 1.463 . S
C1065 C1070 1.350 . S
C1065 N1073 1.427 . S
C1066 H1057 0.930 . S
C1066 C1064 1.378 . S
C1066 C1067 1.367 . S
C1067 C1066 1.367 . S
C1067 C1069 1.433 . S
C1068 C1064 1.350 . S
C1068 C1065 1.463 . S
C1068 N1072 1.427 . S
C1069 H1059 0.929 . S
C1069 C1067 1.433 . S
C1069 N1072 1.384 . S
C1070 H1061 0.929 . S
C1070 C1062 1.378 . S
C1070 C1065 1.350 . S
C1071 H1058 0.929 . S
C1071 C1063 1.433 . S
C1071 N1073 1.384 . S
N1072 C1068 1.427 . S
N1072 C1069 1.384 . S
N1073 C1065 1.427 . S
N1073 C1071 1.384 . S
H1074 C1080 0.930 . S
H1075 C1084 0.930 . S
H1076 C1089 0.929 . S
H1077 C1087 0.929 . S
H1078 C1082 0.929 . S
H1079 C1088 0.929 . S
C1080 H1074 0.930 . S
C1080 C1081 1.367 . S
C1080 C1088 1.378 . S
C1081 C1080 1.367 . S
C1081 C1089 1.433 . S
C1082 H1078 0.929 . S
C1082 C1084 1.378 . S
C1082 C1086 1.350 . S
C1083 C1086 1.463 . S
C1083 C1088 1.350 . S
C1083 N1091 1.427 . S
C1084 H1075 0.930 . S
C1084 C1082 1.378 . S
C1084 C1085 1.367 . S
C1085 C1084 1.367 . S
C1085 C1087 1.433 . S
C1086 C1082 1.350 . S
C1086 C1083 1.463 . S
C1086 N1090 1.427 . S
C1087 H1077 0.929 . S
C1087 C1085 1.433 . S
C1087 N1090 1.384 . S
C1088 H1079 0.929 . S
C1088 C1080 1.378 . S
C1088 C1083 1.350 . S
C1089 H1076 0.929 . S
C1089 C1081 1.433 . S
C1089 N1091 1.384 . S
N1090 C1086 1.427 . S
N1090 C1087 1.384 . S
N1091 C1083 1.427 . S
N1091 C1089 1.384 . S
H1092 C1098 0.930 . S
H1093 C1102 0.930 . S
H1094 C1107 0.929 . S
H1095 C1105 0.929 . S
H1096 C1100 0.929 . S
H1097 C1106 0.929 . S
C1098 H1092 0.930 . S
C1098 C1099 1.367 . S
C1098 C1106 1.378 . S
C1099 C1098 1.367 . S
C1099 C1107 1.433 . S
C1100 H1096 0.929 . S
C1100 C1102 1.378 . S
C1100 C1104 1.350 . S
C1101 C1104 1.463 . S
C1101 C1106 1.350 . S
C1101 N1109 1.427 . S
C1102 H1093 0.930 . S
C1102 C1100 1.378 . S
C1102 C1103 1.367 . S
C1103 C1102 1.367 . S
C1103 C1105 1.433 . S
C1104 C1100 1.350 . S
C1104 C1101 1.463 . S
C1104 N1108 1.427 . S
C1105 H1095 0.929 . S
C1105 C1103 1.433 . S
C1105 N1108 1.384 . S
C1106 H1097 0.929 . S
C1106 C1098 1.378 . S
C1106 C1101 1.350 . S
C1107 H1094 0.929 . S
C1107 C1099 1.433 . S
C1107 N1109 1.384 . S
N1108 C1104 1.427 . S
N1108 C1105 1.384 . S
N1109 C1101 1.427 . S
N1109 C1107 1.384 . S
H1110 C1116 0.930 1_554 S
H1111 C1120 0.930 . S
H1112 C1125 0.929 . S
H1113 C1123 0.929 . S
H1114 C1118 0.929 . S
H1115 C1124 0.929 . S
C1116 H1110 0.930 1_556 S
C1116 C1117 1.367 . S
C1116 C1124 1.378 . S
C1117 C1116 1.367 . S
C1117 C1125 1.433 . S
C1118 H1114 0.929 . S
C1118 C1120 1.378 . S
C1118 C1122 1.350 . S
C1119 C1122 1.463 . S
C1119 C1124 1.350 . S
C1119 N1127 1.427 . S
C1120 H1111 0.930 . S
C1120 C1118 1.378 . S
C1120 C1121 1.367 . S
C1121 C1120 1.367 . S
C1121 C1123 1.433 . S
C1122 C1118 1.350 . S
C1122 C1119 1.463 . S
C1122 N1126 1.427 . S
C1123 H1113 0.929 . S
C1123 C1121 1.433 . S
C1123 N1126 1.384 . S
C1124 H1115 0.929 . S
C1124 C1116 1.378 . S
C1124 C1119 1.350 . S
C1125 H1112 0.929 . S
C1125 C1117 1.433 . S
C1125 N1127 1.384 . S
N1126 C1122 1.427 . S
N1126 C1123 1.384 . S
N1127 C1119 1.427 . S
N1127 C1125 1.384 . S
H1128 C1134 0.930 . S
H1129 C1138 0.930 . S
H1130 C1143 0.929 . S
H1131 C1141 0.929 . S
H1132 C1136 0.929 . S
H1133 C1142 0.929 . S
C1134 H1128 0.930 . S
C1134 C1135 1.367 . S
C1134 C1142 1.378 . S
C1135 C1134 1.367 . S
C1135 C1143 1.433 . S
C1136 H1132 0.929 . S
C1136 C1138 1.378 . S
C1136 C1140 1.350 . S
C1137 C1140 1.463 . S
C1137 C1142 1.350 . S
C1137 N1145 1.427 . S
C1138 H1129 0.930 . S
C1138 C1136 1.378 . S
C1138 C1139 1.367 . S
C1139 C1138 1.367 . S
C1139 C1141 1.433 . S
C1140 C1136 1.350 . S
C1140 C1137 1.463 . S
C1140 N1144 1.427 . S
C1141 H1131 0.929 . S
C1141 C1139 1.433 . S
C1141 N1144 1.384 . S
C1142 H1133 0.929 . S
C1142 C1134 1.378 . S
C1142 C1137 1.350 . S
C1143 H1130 0.929 . S
C1143 C1135 1.433 . S
C1143 N1145 1.384 . S
N1144 C1140 1.427 . S
N1144 C1141 1.384 . S
N1145 C1137 1.427 . S
N1145 C1143 1.384 . S
H1146 C1152 0.930 . S
H1147 C1156 0.930 . S
H1148 C1161 0.929 . S
H1149 C1159 0.929 . S
H1150 C1154 0.929 . S
H1151 C1160 0.929 . S
C1152 H1146 0.930 . S
C1152 C1153 1.367 . S
C1152 C1160 1.378 . S
C1153 C1152 1.367 . S
C1153 C1161 1.433 . S
C1154 H1150 0.929 . S
C1154 C1156 1.378 . S
C1154 C1158 1.350 . S
C1155 C1158 1.463 . S
C1155 C1160 1.350 . S
C1155 N1163 1.427 . S
C1156 H1147 0.930 . S
C1156 C1154 1.378 . S
C1156 C1157 1.367 . S
C1157 C1156 1.367 . S
C1157 C1159 1.433 . S
C1158 C1154 1.350 . S
C1158 C1155 1.463 . S
C1158 N1162 1.427 . S
C1159 H1149 0.929 . S
C1159 C1157 1.433 . S
C1159 N1162 1.384 . S
C1160 H1151 0.929 . S
C1160 C1152 1.378 . S
C1160 C1155 1.350 . S
C1161 H1148 0.929 . S
C1161 C1153 1.433 . S
C1161 N1163 1.384 . S
N1162 C1158 1.427 . S
N1162 C1159 1.384 . S
N1163 C1155 1.427 . S
N1163 C1161 1.384 . S
H1164 C1170 0.930 . S
H1165 C1174 0.930 . S
H1166 C1179 0.929 . S
H1167 C1177 0.929 . S
H1168 C1172 0.929 . S
H1169 C1178 0.929 . S
C1170 H1164 0.930 . S
C1170 C1171 1.367 . S
C1170 C1178 1.378 . S
C1171 C1170 1.367 . S
C1171 C1179 1.433 . S
C1172 H1168 0.929 . S
C1172 C1174 1.378 . S
C1172 C1176 1.350 . S
C1173 C1176 1.463 . S
C1173 C1178 1.350 . S
C1173 N1181 1.427 . S
C1174 H1165 0.930 . S
C1174 C1172 1.378 . S
C1174 C1175 1.367 . S
C1175 C1174 1.367 . S
C1175 C1177 1.433 . S
C1176 C1172 1.350 . S
C1176 C1173 1.463 . S
C1176 N1180 1.427 . S
C1177 H1167 0.929 . S
C1177 C1175 1.433 . S
C1177 N1180 1.384 . S
C1178 H1169 0.929 . S
C1178 C1170 1.378 . S
C1178 C1173 1.350 . S
C1179 H1166 0.929 . S
C1179 C1171 1.433 . S
C1179 N1181 1.384 . S
N1180 C1176 1.427 . S
N1180 C1177 1.384 . S
N1181 C1173 1.427 . S
N1181 C1179 1.384 . S
H1182 C1188 0.930 . S
H1183 C1192 0.930 . S
H1184 C1197 0.929 . S
H1185 C1195 0.929 . S
H1186 C1190 0.929 . S
H1187 C1196 0.929 . S
C1188 H1182 0.930 . S
C1188 C1189 1.367 . S
C1188 C1196 1.378 . S
C1189 C1188 1.367 . S
C1189 C1197 1.433 . S
C1190 H1186 0.929 . S
C1190 C1192 1.378 . S
C1190 C1194 1.350 . S
C1191 C1194 1.463 . S
C1191 C1196 1.350 . S
C1191 N1199 1.427 . S
C1192 H1183 0.930 . S
C1192 C1190 1.378 . S
C1192 C1193 1.367 . S
C1193 C1192 1.367 . S
C1193 C1195 1.433 . S
C1194 C1190 1.350 . S
C1194 C1191 1.463 . S
C1194 N1198 1.427 . S
C1195 H1185 0.929 . S
C1195 C1193 1.433 . S
C1195 N1198 1.384 . S
C1196 H1187 0.929 . S
C1196 C1188 1.378 . S
C1196 C1191 1.350 . S
C1197 H1184 0.929 . S
C1197 C1189 1.433 . S
C1197 N1199 1.384 . S
N1198 C1194 1.427 . S
N1198 C1195 1.384 . S
N1199 C1191 1.427 . S
N1199 C1197 1.384 . S
H1200 C1206 0.930 . S
H1201 C1210 0.930 . S
H1202 C1215 0.929 . S
H1203 C1213 0.929 . S
H1204 C1208 0.929 . S
H1205 C1214 0.929 . S
C1206 H1200 0.930 . S
C1206 C1207 1.367 . S
C1206 C1214 1.378 . S
C1207 C1206 1.367 . S
C1207 C1215 1.433 . S
C1208 H1204 0.929 . S
C1208 C1210 1.378 . S
C1208 C1212 1.350 . S
C1209 C1212 1.463 . S
C1209 C1214 1.350 . S
C1209 N1217 1.427 . S
C1210 H1201 0.930 . S
C1210 C1208 1.378 . S
C1210 C1211 1.367 . S
C1211 C1210 1.367 . S
C1211 C1213 1.433 . S
C1212 C1208 1.350 . S
C1212 C1209 1.463 . S
C1212 N1216 1.427 . S
C1213 H1203 0.929 . S
C1213 C1211 1.433 . S
C1213 N1216 1.384 . S
C1214 H1205 0.929 . S
C1214 C1206 1.378 . S
C1214 C1209 1.350 . S
C1215 H1202 0.929 . S
C1215 C1207 1.433 . S
C1215 N1217 1.384 . S
N1216 C1212 1.427 . S
N1216 C1213 1.384 . S
N1217 C1209 1.427 . S
N1217 C1215 1.384 . S
H1218 C1224 0.930 . S
H1219 C1228 0.930 . S
H1220 C1233 0.929 . S
H1221 C1231 0.929 . S
H1222 C1226 0.929 . S
H1223 C1232 0.929 . S
C1224 H1218 0.930 . S
C1224 C1225 1.367 . S
C1224 C1232 1.378 . S
C1225 C1224 1.367 . S
C1225 C1233 1.433 . S
C1226 H1222 0.929 . S
C1226 C1228 1.378 . S
C1226 C1230 1.350 . S
C1227 C1230 1.463 . S
C1227 C1232 1.350 . S
C1227 N1235 1.427 . S
C1228 H1219 0.930 . S
C1228 C1226 1.378 . S
C1228 C1229 1.367 . S
C1229 C1228 1.367 . S
C1229 C1231 1.433 . S
C1230 C1226 1.350 . S
C1230 C1227 1.463 . S
C1230 N1234 1.427 . S
C1231 H1221 0.929 . S
C1231 C1229 1.433 . S
C1231 N1234 1.384 . S
C1232 H1223 0.929 . S
C1232 C1224 1.378 . S
C1232 C1227 1.350 . S
C1233 H1220 0.929 . S
C1233 C1225 1.433 . S
C1233 N1235 1.384 . S
N1234 C1230 1.427 . S
N1234 C1231 1.384 . S
N1235 C1227 1.427 . S
N1235 C1233 1.384 . S
H1236 C1242 0.930 . S
H1237 C1246 0.930 . S
H1238 C1251 0.929 . S
H1239 C1249 0.929 . S
H1240 C1244 0.929 . S
H1241 C1250 0.929 . S
C1242 H1236 0.930 . S
C1242 C1243 1.367 . S
C1242 C1250 1.378 . S
C1243 C1242 1.367 . S
C1243 C1251 1.433 . S
C1244 H1240 0.929 . S
C1244 C1246 1.378 . S
C1244 C1248 1.350 . S
C1245 C1248 1.463 . S
C1245 C1250 1.350 . S
C1245 N1253 1.427 . S
C1246 H1237 0.930 . S
C1246 C1244 1.378 . S
C1246 C1247 1.367 . S
C1247 C1246 1.367 . S
C1247 C1249 1.433 . S
C1248 C1244 1.350 . S
C1248 C1245 1.463 . S
C1248 N1252 1.427 . S
C1249 H1239 0.929 . S
C1249 C1247 1.433 . S
C1249 N1252 1.384 . S
C1250 H1241 0.929 . S
C1250 C1242 1.378 . S
C1250 C1245 1.350 . S
C1251 H1238 0.929 . S
C1251 C1243 1.433 . S
C1251 N1253 1.384 . S
N1252 C1248 1.427 . S
N1252 C1249 1.384 . S
N1253 C1245 1.427 . S
N1253 C1251 1.384 . S
H1254 C1260 0.930 . S
H1255 C1264 0.930 . S
H1256 C1269 0.929 . S
H1257 C1267 0.929 . S
H1258 C1262 0.929 . S
H1259 C1268 0.929 . S
C1260 H1254 0.930 . S
C1260 C1261 1.367 . S
C1260 C1268 1.378 . S
C1261 C1260 1.367 . S
C1261 C1269 1.433 . S
C1262 H1258 0.929 . S
C1262 C1264 1.378 . S
C1262 C1266 1.350 . S
C1263 C1266 1.463 . S
C1263 C1268 1.350 . S
C1263 N1271 1.427 . S
C1264 H1255 0.930 . S
C1264 C1262 1.378 . S
C1264 C1265 1.367 . S
C1265 C1264 1.367 . S
C1265 C1267 1.433 . S
C1266 C1262 1.350 . S
C1266 C1263 1.463 . S
C1266 N1270 1.427 . S
C1267 H1257 0.929 . S
C1267 C1265 1.433 . S
C1267 N1270 1.384 . S
C1268 H1259 0.929 . S
C1268 C1260 1.378 . S
C1268 C1263 1.350 . S
C1269 H1256 0.929 . S
C1269 C1261 1.433 . S
C1269 N1271 1.384 . S
N1270 C1266 1.427 . S
N1270 C1267 1.384 . S
N1271 C1263 1.427 . S
N1271 C1269 1.384 . S
H1272 C1278 0.930 . S
H1273 C1282 0.930 . S
H1274 C1287 0.929 . S
H1275 C1285 0.929 . S
H1276 C1280 0.929 . S
H1277 C1286 0.929 . S
C1278 H1272 0.930 . S
C1278 C1279 1.367 . S
C1278 C1286 1.378 . S
C1279 C1278 1.367 . S
C1279 C1287 1.433 . S
C1280 H1276 0.929 . S
C1280 C1282 1.378 . S
C1280 C1284 1.350 . S
C1281 C1284 1.463 . S
C1281 C1286 1.350 . S
C1281 N1289 1.427 . S
C1282 H1273 0.930 . S
C1282 C1280 1.378 . S
C1282 C1283 1.367 . S
C1283 C1282 1.367 . S
C1283 C1285 1.433 . S
C1284 C1280 1.350 . S
C1284 C1281 1.463 . S
C1284 N1288 1.427 . S
C1285 H1275 0.929 . S
C1285 C1283 1.433 . S
C1285 N1288 1.384 . S
C1286 H1277 0.929 . S
C1286 C1278 1.378 . S
C1286 C1281 1.350 . S
C1287 H1274 0.929 . S
C1287 C1279 1.433 . S
C1287 N1289 1.384 . S
N1288 C1284 1.427 . S
N1288 C1285 1.384 . S
N1289 C1281 1.427 . S
N1289 C1287 1.384 . S
H1290 C1296 0.930 . S
H1291 C1300 0.930 . S
H1292 C1305 0.929 . S
H1293 C1303 0.929 . S
H1294 C1298 0.929 . S
H1295 C1304 0.929 . S
C1296 H1290 0.930 . S
C1296 C1297 1.367 . S
C1296 C1304 1.378 . S
C1297 C1296 1.367 . S
C1297 C1305 1.433 . S
C1298 H1294 0.929 . S
C1298 C1300 1.378 . S
C1298 C1302 1.350 . S
C1299 C1302 1.463 . S
C1299 C1304 1.350 . S
C1299 N1307 1.427 . S
C1300 H1291 0.930 . S
C1300 C1298 1.378 . S
C1300 C1301 1.367 . S
C1301 C1300 1.367 . S
C1301 C1303 1.433 . S
C1302 C1298 1.350 . S
C1302 C1299 1.463 . S
C1302 N1306 1.427 . S
C1303 H1293 0.929 . S
C1303 C1301 1.433 . S
C1303 N1306 1.384 . S
C1304 H1295 0.929 . S
C1304 C1296 1.378 . S
C1304 C1299 1.350 . S
C1305 H1292 0.929 . S
C1305 C1297 1.433 . S
C1305 N1307 1.384 . S
N1306 C1302 1.427 . S
N1306 C1303 1.384 . S
N1307 C1299 1.427 . S
N1307 C1305 1.384 . S
H1308 C1314 0.930 . S
H1309 C1318 0.930 . S
H1310 C1323 0.929 . S
H1311 C1321 0.929 . S
H1312 C1316 0.929 . S
H1313 C1322 0.929 . S
C1314 H1308 0.930 . S
C1314 C1315 1.367 . S
C1314 C1322 1.378 . S
C1315 C1314 1.367 . S
C1315 C1323 1.433 . S
C1316 H1312 0.929 . S
C1316 C1318 1.378 . S
C1316 C1320 1.350 . S
C1317 C1320 1.463 . S
C1317 C1322 1.350 . S
C1317 N1325 1.427 . S
C1318 H1309 0.930 . S
C1318 C1316 1.378 . S
C1318 C1319 1.367 . S
C1319 C1318 1.367 . S
C1319 C1321 1.433 . S
C1320 C1316 1.350 . S
C1320 C1317 1.463 . S
C1320 N1324 1.427 . S
C1321 H1311 0.929 . S
C1321 C1319 1.433 . S
C1321 N1324 1.384 . S
C1322 H1313 0.929 . S
C1322 C1314 1.378 . S
C1322 C1317 1.350 . S
C1323 H1310 0.929 . S
C1323 C1315 1.433 . S
C1323 N1325 1.384 . S
N1324 C1320 1.427 . S
N1324 C1321 1.384 . S
N1325 C1317 1.427 . S
N1325 C1323 1.384 . S
H1326 C1332 0.930 . S
H1327 C1336 0.930 . S
H1328 C1341 0.929 . S
H1329 C1339 0.929 . S
H1330 C1334 0.929 . S
H1331 C1340 0.929 . S
C1332 H1326 0.930 . S
C1332 C1333 1.367 . S
C1332 C1340 1.378 . S
C1333 C1332 1.367 . S
C1333 C1341 1.433 . S
C1334 H1330 0.929 . S
C1334 C1336 1.378 . S
C1334 C1338 1.350 . S
C1335 C1338 1.463 . S
C1335 C1340 1.350 . S
C1335 N1343 1.427 . S
C1336 H1327 0.930 . S
C1336 C1334 1.378 . S
C1336 C1337 1.367 . S
C1337 C1336 1.367 . S
C1337 C1339 1.433 . S
C1338 C1334 1.350 . S
C1338 C1335 1.463 . S
C1338 N1342 1.427 . S
C1339 H1329 0.929 . S
C1339 C1337 1.433 . S
C1339 N1342 1.384 . S
C1340 H1331 0.929 . S
C1340 C1332 1.378 . S
C1340 C1335 1.350 . S
C1341 H1328 0.929 . S
C1341 C1333 1.433 . S
C1341 N1343 1.384 . S
N1342 C1338 1.427 . S
N1342 C1339 1.384 . S
N1343 C1335 1.427 . S
N1343 C1341 1.384 . S
H1344 C1350 0.930 . S
H1345 C1354 0.930 . S
H1346 C1359 0.929 . S
H1347 C1357 0.929 . S
H1348 C1352 0.929 . S
H1349 C1358 0.929 . S
C1350 H1344 0.930 . S
C1350 C1351 1.367 . S
C1350 C1358 1.378 . S
C1351 C1350 1.367 . S
C1351 C1359 1.433 . S
C1352 H1348 0.929 . S
C1352 C1354 1.378 . S
C1352 C1356 1.350 . S
C1353 C1356 1.463 . S
C1353 C1358 1.350 . S
C1353 N1361 1.427 . S
C1354 H1345 0.930 . S
C1354 C1352 1.378 . S
C1354 C1355 1.367 . S
C1355 C1354 1.367 . S
C1355 C1357 1.433 . S
C1356 C1352 1.350 . S
C1356 C1353 1.463 . S
C1356 N1360 1.427 . S
C1357 H1347 0.929 . S
C1357 C1355 1.433 . S
C1357 N1360 1.384 . S
C1358 H1349 0.929 . S
C1358 C1350 1.378 . S
C1358 C1353 1.350 . S
C1359 H1346 0.929 . S
C1359 C1351 1.433 . S
C1359 N1361 1.384 . S
N1360 C1356 1.427 . S
N1360 C1357 1.384 . S
N1361 C1353 1.427 . S
N1361 C1359 1.384 . S
H1362 C1368 0.930 . S
H1363 C1372 0.930 . S
H1364 C1377 0.929 . S
H1365 C1375 0.929 . S
H1366 C1370 0.929 . S
H1367 C1376 0.929 . S
C1368 H1362 0.930 . S
C1368 C1369 1.367 . S
C1368 C1376 1.378 . S
C1369 C1368 1.367 . S
C1369 C1377 1.433 . S
C1370 H1366 0.929 . S
C1370 C1372 1.378 . S
C1370 C1374 1.350 . S
C1371 C1374 1.463 . S
C1371 C1376 1.350 . S
C1371 N1379 1.427 . S
C1372 H1363 0.930 . S
C1372 C1370 1.378 . S
C1372 C1373 1.367 . S
C1373 C1372 1.367 . S
C1373 C1375 1.433 . S
C1374 C1370 1.350 . S
C1374 C1371 1.463 . S
C1374 N1378 1.427 . S
C1375 H1365 0.929 . S
C1375 C1373 1.433 . S
C1375 N1378 1.384 . S
C1376 H1367 0.929 . S
C1376 C1368 1.378 . S
C1376 C1371 1.350 . S
C1377 H1364 0.929 . S
C1377 C1369 1.433 . S
C1377 N1379 1.384 . S
N1378 C1374 1.427 . S
N1378 C1375 1.384 . S
N1379 C1371 1.427 . S
N1379 C1377 1.384 . S
H1380 C1386 0.930 . S
H1381 C1390 0.930 . S
H1382 C1395 0.929 . S
H1383 C1393 0.929 . S
H1384 C1388 0.929 . S
H1385 C1394 0.929 . S
C1386 H1380 0.930 . S
C1386 C1387 1.367 . S
C1386 C1394 1.378 . S
C1387 C1386 1.367 . S
C1387 C1395 1.433 . S
C1388 H1384 0.929 . S
C1388 C1390 1.378 . S
C1388 C1392 1.350 . S
C1389 C1392 1.463 . S
C1389 C1394 1.350 . S
C1389 N1397 1.427 . S
C1390 H1381 0.930 . S
C1390 C1388 1.378 . S
C1390 C1391 1.367 . S
C1391 C1390 1.367 . S
C1391 C1393 1.433 . S
C1392 C1388 1.350 . S
C1392 C1389 1.463 . S
C1392 N1396 1.427 . S
C1393 H1383 0.929 . S
C1393 C1391 1.433 . S
C1393 N1396 1.384 . S
C1394 H1385 0.929 . S
C1394 C1386 1.378 . S
C1394 C1389 1.350 . S
C1395 H1382 0.929 . S
C1395 C1387 1.433 . S
C1395 N1397 1.384 . S
N1396 C1392 1.427 . S
N1396 C1393 1.384 . S
N1397 C1389 1.427 . S
N1397 C1395 1.384 . S
H1398 C1404 0.930 . S
H1399 C1408 0.930 . S
H1400 C1413 0.929 . S
H1401 C1411 0.929 . S
H1402 C1406 0.929 . S
H1403 C1412 0.929 . S
C1404 H1398 0.930 . S
C1404 C1405 1.367 . S
C1404 C1412 1.378 . S
C1405 C1404 1.367 . S
C1405 C1413 1.433 . S
C1406 H1402 0.929 . S
C1406 C1408 1.378 . S
C1406 C1410 1.350 . S
C1407 C1410 1.463 . S
C1407 C1412 1.350 . S
C1407 N1415 1.427 . S
C1408 H1399 0.930 . S
C1408 C1406 1.378 . S
C1408 C1409 1.367 . S
C1409 C1408 1.367 . S
C1409 C1411 1.433 . S
C1410 C1406 1.350 . S
C1410 C1407 1.463 . S
C1410 N1414 1.427 . S
C1411 H1401 0.929 . S
C1411 C1409 1.433 . S
C1411 N1414 1.384 . S
C1412 H1403 0.929 . S
C1412 C1404 1.378 . S
C1412 C1407 1.350 . S
C1413 H1400 0.929 . S
C1413 C1405 1.433 . S
C1413 N1415 1.384 . S
N1414 C1410 1.427 . S
N1414 C1411 1.384 . S
N1415 C1407 1.427 . S
N1415 C1413 1.384 . S
H1416 C1422 0.930 . S
H1417 C1426 0.930 . S
H1418 C1431 0.929 . S
H1419 C1429 0.929 . S
H1420 C1424 0.929 . S
H1421 C1430 0.929 . S
C1422 H1416 0.930 . S
C1422 C1423 1.367 . S
C1422 C1430 1.378 . S
C1423 C1422 1.367 . S
C1423 C1431 1.433 . S
C1424 H1420 0.929 . S
C1424 C1426 1.378 . S
C1424 C1428 1.350 . S
C1425 C1428 1.463 . S
C1425 C1430 1.350 . S
C1425 N1433 1.427 . S
C1426 H1417 0.930 . S
C1426 C1424 1.378 . S
C1426 C1427 1.367 . S
C1427 C1426 1.367 . S
C1427 C1429 1.433 . S
C1428 C1424 1.350 . S
C1428 C1425 1.463 . S
C1428 N1432 1.427 . S
C1429 H1419 0.929 . S
C1429 C1427 1.433 . S
C1429 N1432 1.384 . S
C1430 H1421 0.929 . S
C1430 C1422 1.378 . S
C1430 C1425 1.350 . S
C1431 H1418 0.929 . S
C1431 C1423 1.433 . S
C1431 N1433 1.384 . S
N1432 C1428 1.427 . S
N1432 C1429 1.384 . S
N1433 C1425 1.427 . S
N1433 C1431 1.384 . S
H1434 C1440 0.930 . S
H1435 C1444 0.930 . S
H1436 C1449 0.929 . S
H1437 C1447 0.929 . S
H1438 C1442 0.929 . S
H1439 C1448 0.929 . S
C1440 H1434 0.930 . S
C1440 C1441 1.367 . S
C1440 C1448 1.378 . S
C1441 C1440 1.367 . S
C1441 C1449 1.433 . S
C1442 H1438 0.929 . S
C1442 C1444 1.378 . S
C1442 C1446 1.350 . S
C1443 C1446 1.463 . S
C1443 C1448 1.350 . S
C1443 N1451 1.427 . S
C1444 H1435 0.930 . S
C1444 C1442 1.378 . S
C1444 C1445 1.367 . S
C1445 C1444 1.367 . S
C1445 C1447 1.433 . S
C1446 C1442 1.350 . S
C1446 C1443 1.463 . S
C1446 N1450 1.427 . S
C1447 H1437 0.929 . S
C1447 C1445 1.433 . S
C1447 N1450 1.384 . S
C1448 H1439 0.929 . S
C1448 C1440 1.378 . S
C1448 C1443 1.350 . S
C1449 H1436 0.929 . S
C1449 C1441 1.433 . S
C1449 N1451 1.384 . S
N1450 C1446 1.427 . S
N1450 C1447 1.384 . S
N1451 C1443 1.427 . S
N1451 C1449 1.384 . S
H1452 C1458 0.930 . S
H1453 C1462 0.930 . S
H1454 C1467 0.929 . S
H1455 C1465 0.929 . S
H1456 C1460 0.929 . S
H1457 C1466 0.929 . S
C1458 H1452 0.930 . S
C1458 C1459 1.367 . S
C1458 C1466 1.378 . S
C1459 C1458 1.367 . S
C1459 C1467 1.433 . S
C1460 H1456 0.929 . S
C1460 C1462 1.378 . S
C1460 C1464 1.350 . S
C1461 C1464 1.463 . S
C1461 C1466 1.350 . S
C1461 N1469 1.427 . S
C1462 H1453 0.930 . S
C1462 C1460 1.378 . S
C1462 C1463 1.367 . S
C1463 C1462 1.367 . S
C1463 C1465 1.433 . S
C1464 C1460 1.350 . S
C1464 C1461 1.463 . S
C1464 N1468 1.427 . S
C1465 H1455 0.929 . S
C1465 C1463 1.433 . S
C1465 N1468 1.384 . S
C1466 H1457 0.929 . S
C1466 C1458 1.378 . S
C1466 C1461 1.350 . S
C1467 H1454 0.929 . S
C1467 C1459 1.433 . S
C1467 N1469 1.384 . S
N1468 C1464 1.427 . S
N1468 C1465 1.384 . S
N1469 C1461 1.427 . S
N1469 C1467 1.384 . S
H1470 C1476 0.930 . S
H1471 C1480 0.930 . S
H1472 C1485 0.929 . S
H1473 C1483 0.929 . S
H1474 C1478 0.929 . S
H1475 C1484 0.929 . S
C1476 H1470 0.930 . S
C1476 C1477 1.367 . S
C1476 C1484 1.378 . S
C1477 C1476 1.367 . S
C1477 C1485 1.433 . S
C1478 H1474 0.929 . S
C1478 C1480 1.378 . S
C1478 C1482 1.350 . S
C1479 C1482 1.463 . S
C1479 C1484 1.350 . S
C1479 N1487 1.427 . S
C1480 H1471 0.930 . S
C1480 C1478 1.378 . S
C1480 C1481 1.367 . S
C1481 C1480 1.367 . S
C1481 C1483 1.433 . S
C1482 C1478 1.350 . S
C1482 C1479 1.463 . S
C1482 N1486 1.427 . S
C1483 H1473 0.929 . S
C1483 C1481 1.433 . S
C1483 N1486 1.384 . S
C1484 H1475 0.929 . S
C1484 C1476 1.378 . S
C1484 C1479 1.350 . S
C1485 H1472 0.929 . S
C1485 C1477 1.433 . S
C1485 N1487 1.384 . S
N1486 C1482 1.427 . S
N1486 C1483 1.384 . S
N1487 C1479 1.427 . S
N1487 C1485 1.384 . S
H1488 C1494 0.930 . S
H1489 C1498 0.930 . S
H1490 C1503 0.929 . S
H1491 C1501 0.929 . S
H1492 C1496 0.929 . S
H1493 C1502 0.929 . S
C1494 H1488 0.930 . S
C1494 C1495 1.367 . S
C1494 C1502 1.378 . S
C1495 C1494 1.367 . S
C1495 C1503 1.433 . S
C1496 H1492 0.929 . S
C1496 C1498 1.378 . S
C1496 C1500 1.350 . S
C1497 C1500 1.463 . S
C1497 C1502 1.350 . S
C1497 N1505 1.427 . S
C1498 H1489 0.930 . S
C1498 C1496 1.378 . S
C1498 C1499 1.367 . S
C1499 C1498 1.367 . S
C1499 C1501 1.433 . S
C1500 C1496 1.350 . S
C1500 C1497 1.463 . S
C1500 N1504 1.427 . S
C1501 H1491 0.929 . S
C1501 C1499 1.433 . S
C1501 N1504 1.384 . S
C1502 H1493 0.929 . S
C1502 C1494 1.378 . S
C1502 C1497 1.350 . S
C1503 H1490 0.929 . S
C1503 C1495 1.433 . S
C1503 N1505 1.384 . S
N1504 C1500 1.427 . S
N1504 C1501 1.384 . S
N1505 C1497 1.427 . S
N1505 C1503 1.384 . S
H1506 C1512 0.930 . S
H1507 C1516 0.930 . S
H1508 C1521 0.929 . S
H1509 C1519 0.929 . S
H1510 C1514 0.929 . S
H1511 C1520 0.929 . S
C1512 H1506 0.930 . S
C1512 C1513 1.367 . S
C1512 C1520 1.378 . S
C1513 C1512 1.367 . S
C1513 C1521 1.433 . S
C1514 H1510 0.929 . S
C1514 C1516 1.378 . S
C1514 C1518 1.350 . S
C1515 C1518 1.463 . S
C1515 C1520 1.350 . S
C1515 N1523 1.427 . S
C1516 H1507 0.930 . S
C1516 C1514 1.378 . S
C1516 C1517 1.367 . S
C1517 C1516 1.367 . S
C1517 C1519 1.433 . S
C1518 C1514 1.350 . S
C1518 C1515 1.463 . S
C1518 N1522 1.427 . S
C1519 H1509 0.929 . S
C1519 C1517 1.433 . S
C1519 N1522 1.384 . S
C1520 H1511 0.929 . S
C1520 C1512 1.378 . S
C1520 C1515 1.350 . S
C1521 H1508 0.929 . S
C1521 C1513 1.433 . S
C1521 N1523 1.384 . S
N1522 C1518 1.427 . S
N1522 C1519 1.384 . S
N1523 C1515 1.427 . S
N1523 C1521 1.384 . S
H1524 C1530 0.930 . S
H1525 C1534 0.930 . S
H1526 C1539 0.929 . S
H1527 C1537 0.929 . S
H1528 C1532 0.929 . S
H1529 C1538 0.929 . S
C1530 H1524 0.930 . S
C1530 C1531 1.367 . S
C1530 C1538 1.378 . S
C1531 C1530 1.367 . S
C1531 C1539 1.433 . S
C1532 H1528 0.929 . S
C1532 C1534 1.378 . S
C1532 C1536 1.350 . S
C1533 C1536 1.463 . S
C1533 C1538 1.350 . S
C1533 N1541 1.427 . S
C1534 H1525 0.930 . S
C1534 C1532 1.378 . S
C1534 C1535 1.367 . S
C1535 C1534 1.367 . S
C1535 C1537 1.433 . S
C1536 C1532 1.350 . S
C1536 C1533 1.463 . S
C1536 N1540 1.427 . S
C1537 H1527 0.929 . S
C1537 C1535 1.433 . S
C1537 N1540 1.384 . S
C1538 H1529 0.929 . S
C1538 C1530 1.378 . S
C1538 C1533 1.350 . S
C1539 H1526 0.929 . S
C1539 C1531 1.433 . S
C1539 N1541 1.384 . S
N1540 C1536 1.427 . S
N1540 C1537 1.384 . S
N1541 C1533 1.427 . S
N1541 C1539 1.384 . S
H1542 C1548 0.930 . S
H1543 C1552 0.930 . S
H1544 C1557 0.929 . S
H1545 C1555 0.929 . S
H1546 C1550 0.929 . S
H1547 C1556 0.929 . S
C1548 H1542 0.930 . S
C1548 C1549 1.367 . S
C1548 C1556 1.378 . S
C1549 C1548 1.367 . S
C1549 C1557 1.433 . S
C1550 H1546 0.929 . S
C1550 C1552 1.378 . S
C1550 C1554 1.350 . S
C1551 C1554 1.463 . S
C1551 C1556 1.350 . S
C1551 N1559 1.427 . S
C1552 H1543 0.930 . S
C1552 C1550 1.378 . S
C1552 C1553 1.367 . S
C1553 C1552 1.367 . S
C1553 C1555 1.433 . S
C1554 C1550 1.350 . S
C1554 C1551 1.463 . S
C1554 N1558 1.427 . S
C1555 H1545 0.929 . S
C1555 C1553 1.433 . S
C1555 N1558 1.384 . S
C1556 H1547 0.929 . S
C1556 C1548 1.378 . S
C1556 C1551 1.350 . S
C1557 H1544 0.929 . S
C1557 C1549 1.433 . S
C1557 N1559 1.384 . S
N1558 C1554 1.427 . S
N1558 C1555 1.384 . S
N1559 C1551 1.427 . S
N1559 C1557 1.384 . S
H1560 C1566 0.930 . S
H1561 C1570 0.930 . S
H1562 C1575 0.929 . S
H1563 C1573 0.929 . S
H1564 C1568 0.929 . S
H1565 C1574 0.929 . S
C1566 H1560 0.930 . S
C1566 C1567 1.367 . S
C1566 C1574 1.378 . S
C1567 C1566 1.367 . S
C1567 C1575 1.433 . S
C1568 H1564 0.929 . S
C1568 C1570 1.378 . S
C1568 C1572 1.350 . S
C1569 C1572 1.463 . S
C1569 C1574 1.350 . S
C1569 N1577 1.427 . S
C1570 H1561 0.930 . S
C1570 C1568 1.378 . S
C1570 C1571 1.367 . S
C1571 C1570 1.367 . S
C1571 C1573 1.433 . S
C1572 C1568 1.350 . S
C1572 C1569 1.463 . S
C1572 N1576 1.427 . S
C1573 H1563 0.929 . S
C1573 C1571 1.433 . S
C1573 N1576 1.384 . S
C1574 H1565 0.929 . S
C1574 C1566 1.378 . S
C1574 C1569 1.350 . S
C1575 H1562 0.929 . S
C1575 C1567 1.433 . S
C1575 N1577 1.384 . S
N1576 C1572 1.427 . S
N1576 C1573 1.384 . S
N1577 C1569 1.427 . S
N1577 C1575 1.384 . S
H1578 C1584 0.930 . S
H1579 C1588 0.930 . S
H1580 C1593 0.929 . S
H1581 C1591 0.929 . S
H1582 C1586 0.929 . S
H1583 C1592 0.929 . S
C1584 H1578 0.930 . S
C1584 C1585 1.367 . S
C1584 C1592 1.378 . S
C1585 C1584 1.367 . S
C1585 C1593 1.433 . S
C1586 H1582 0.929 . S
C1586 C1588 1.378 . S
C1586 C1590 1.350 . S
C1587 C1590 1.463 . S
C1587 C1592 1.350 . S
C1587 N1595 1.427 . S
C1588 H1579 0.930 . S
C1588 C1586 1.378 . S
C1588 C1589 1.367 . S
C1589 C1588 1.367 . S
C1589 C1591 1.433 . S
C1590 C1586 1.350 . S
C1590 C1587 1.463 . S
C1590 N1594 1.427 . S
C1591 H1581 0.929 . S
C1591 C1589 1.433 . S
C1591 N1594 1.384 . S
C1592 H1583 0.929 . S
C1592 C1584 1.378 . S
C1592 C1587 1.350 . S
C1593 H1580 0.929 . S
C1593 C1585 1.433 . S
C1593 N1595 1.384 . S
N1594 C1590 1.427 . S
N1594 C1591 1.384 . S
N1595 C1587 1.427 . S
N1595 C1593 1.384 . S
H1596 C1602 0.930 . S
H1597 C1606 0.930 . S
H1598 C1611 0.929 . S
H1599 C1609 0.929 . S
H1600 C1604 0.929 . S
H1601 C1610 0.929 . S
C1602 H1596 0.930 . S
C1602 C1603 1.367 . S
C1602 C1610 1.378 . S
C1603 C1602 1.367 . S
C1603 C1611 1.433 . S
C1604 H1600 0.929 . S
C1604 C1606 1.378 . S
C1604 C1608 1.350 . S
C1605 C1608 1.463 . S
C1605 C1610 1.350 . S
C1605 N1613 1.427 . S
C1606 H1597 0.930 . S
C1606 C1604 1.378 . S
C1606 C1607 1.367 . S
C1607 C1606 1.367 . S
C1607 C1609 1.433 . S
C1608 C1604 1.350 . S
C1608 C1605 1.463 . S
C1608 N1612 1.427 . S
C1609 H1599 0.929 . S
C1609 C1607 1.433 . S
C1609 N1612 1.384 . S
C1610 H1601 0.929 . S
C1610 C1602 1.378 . S
C1610 C1605 1.350 . S
C1611 H1598 0.929 . S
C1611 C1603 1.433 . S
C1611 N1613 1.384 . S
N1612 C1608 1.427 . S
N1612 C1609 1.384 . S
N1613 C1605 1.427 . S
N1613 C1611 1.384 . S
H1614 C1620 0.930 . S
H1615 C1624 0.930 . S
H1616 C1629 0.929 . S
H1617 C1627 0.929 . S
H1618 C1622 0.929 . S
H1619 C1628 0.929 . S
C1620 H1614 0.930 . S
C1620 C1621 1.367 . S
C1620 C1628 1.378 . S
C1621 C1620 1.367 . S
C1621 C1629 1.433 . S
C1622 H1618 0.929 . S
C1622 C1624 1.378 . S
C1622 C1626 1.350 . S
C1623 C1626 1.463 . S
C1623 C1628 1.350 . S
C1623 N1631 1.427 . S
C1624 H1615 0.930 . S
C1624 C1622 1.378 . S
C1624 C1625 1.367 . S
C1625 C1624 1.367 . S
C1625 C1627 1.433 . S
C1626 C1622 1.350 . S
C1626 C1623 1.463 . S
C1626 N1630 1.427 . S
C1627 H1617 0.929 . S
C1627 C1625 1.433 . S
C1627 N1630 1.384 . S
C1628 H1619 0.929 . S
C1628 C1620 1.378 . S
C1628 C1623 1.350 . S
C1629 H1616 0.929 . S
C1629 C1621 1.433 . S
C1629 N1631 1.384 . S
N1630 C1626 1.427 . S
N1630 C1627 1.384 . S
N1631 C1623 1.427 . S
N1631 C1629 1.384 . S
H1632 C1638 0.930 . S
H1633 C1642 0.930 1_556 S
H1634 C1647 0.929 . S
H1635 C1645 0.929 . S
H1636 C1640 0.929 . S
H1637 C1646 0.929 . S
C1638 H1632 0.930 . S
C1638 C1639 1.367 . S
C1638 C1646 1.378 . S
C1639 C1638 1.367 . S
C1639 C1647 1.433 . S
C1640 H1636 0.929 . S
C1640 C1642 1.378 . S
C1640 C1644 1.350 . S
C1641 C1644 1.463 . S
C1641 C1646 1.350 . S
C1641 N1649 1.427 . S
C1642 H1633 0.930 1_554 S
C1642 C1640 1.378 . S
C1642 C1643 1.367 . S
C1643 C1642 1.367 . S
C1643 C1645 1.433 . S
C1644 C1640 1.350 . S
C1644 C1641 1.463 . S
C1644 N1648 1.427 . S
C1645 H1635 0.929 . S
C1645 C1643 1.433 . S
C1645 N1648 1.384 . S
C1646 H1637 0.929 . S
C1646 C1638 1.378 . S
C1646 C1641 1.350 . S
C1647 H1634 0.929 . S
C1647 C1639 1.433 . S
C1647 N1649 1.384 . S
N1648 C1644 1.427 . S
N1648 C1645 1.384 . S
N1649 C1641 1.427 . S
N1649 C1647 1.384 . S
H1650 C1656 0.930 . S
H1651 C1660 0.930 . S
H1652 C1665 0.929 . S
H1653 C1663 0.929 . S
H1654 C1658 0.929 . S
H1655 C1664 0.929 . S
C1656 H1650 0.930 . S
C1656 C1657 1.367 . S
C1656 C1664 1.378 . S
C1657 C1656 1.367 . S
C1657 C1665 1.433 . S
C1658 H1654 0.929 . S
C1658 C1660 1.378 . S
C1658 C1662 1.350 . S
C1659 C1662 1.463 . S
C1659 C1664 1.350 . S
C1659 N1667 1.427 . S
C1660 H1651 0.930 . S
C1660 C1658 1.378 . S
C1660 C1661 1.367 . S
C1661 C1660 1.367 . S
C1661 C1663 1.433 . S
C1662 C1658 1.350 . S
C1662 C1659 1.463 . S
C1662 N1666 1.427 . S
C1663 H1653 0.929 . S
C1663 C1661 1.433 . S
C1663 N1666 1.384 . S
C1664 H1655 0.929 . S
C1664 C1656 1.378 . S
C1664 C1659 1.350 . S
C1665 H1652 0.929 . S
C1665 C1657 1.433 . S
C1665 N1667 1.384 . S
N1666 C1662 1.427 . S
N1666 C1663 1.384 . S
N1667 C1659 1.427 . S
N1667 C1665 1.384 . S
H1668 C1674 0.930 . S
H1669 C1678 0.930 . S
H1670 C1683 0.929 1_554 S
H1671 C1681 0.929 . S
H1672 C1676 0.929 . S
H1673 C1682 0.929 . S
C1674 H1668 0.930 . S
C1674 C1675 1.367 . S
C1674 C1682 1.378 . S
C1675 C1674 1.367 . S
C1675 C1683 1.433 . S
C1676 H1672 0.929 . S
C1676 C1678 1.378 . S
C1676 C1680 1.350 . S
C1677 C1680 1.463 . S
C1677 C1682 1.350 . S
C1677 N1685 1.427 . S
C1678 H1669 0.930 . S
C1678 C1676 1.378 . S
C1678 C1679 1.367 . S
C1679 C1678 1.367 . S
C1679 C1681 1.433 . S
C1680 C1676 1.350 . S
C1680 C1677 1.463 . S
C1680 N1684 1.427 . S
C1681 H1671 0.929 . S
C1681 C1679 1.433 . S
C1681 N1684 1.384 . S
C1682 H1673 0.929 . S
C1682 C1674 1.378 . S
C1682 C1677 1.350 . S
C1683 H1670 0.929 1_556 S
C1683 C1675 1.433 . S
C1683 N1685 1.384 . S
N1684 C1680 1.427 . S
N1684 C1681 1.384 . S
N1685 C1677 1.427 . S
N1685 C1683 1.384 . S
H1686 C1692 0.930 . S
H1687 C1696 0.930 . S
H1688 C1701 0.929 . S
H1689 C1699 0.929 . S
H1690 C1694 0.929 . S
H1691 C1700 0.929 . S
C1692 H1686 0.930 . S
C1692 C1693 1.367 . S
C1692 C1700 1.378 . S
C1693 C1692 1.367 . S
C1693 C1701 1.433 . S
C1694 H1690 0.929 . S
C1694 C1696 1.378 . S
C1694 C1698 1.350 . S
C1695 C1698 1.463 . S
C1695 C1700 1.350 . S
C1695 N1703 1.427 . S
C1696 H1687 0.930 . S
C1696 C1694 1.378 . S
C1696 C1697 1.367 . S
C1697 C1696 1.367 . S
C1697 C1699 1.433 . S
C1698 C1694 1.350 . S
C1698 C1695 1.463 . S
C1698 N1702 1.427 . S
C1699 H1689 0.929 . S
C1699 C1697 1.433 . S
C1699 N1702 1.384 . S
C1700 H1691 0.929 . S
C1700 C1692 1.378 . S
C1700 C1695 1.350 . S
C1701 H1688 0.929 . S
C1701 C1693 1.433 . S
C1701 N1703 1.384 . S
N1702 C1698 1.427 . S
N1702 C1699 1.384 . S
N1703 C1695 1.427 . S
N1703 C1701 1.384 . S
H1704 C1710 0.930 . S
H1705 C1714 0.930 . S
H1706 C1719 0.929 . S
H1707 C1717 0.929 1_655 S
H1708 C1712 0.929 . S
H1709 C1718 0.929 . S
C1710 H1704 0.930 . S
C1710 C1711 1.367 . S
C1710 C1718 1.378 . S
C1711 C1710 1.367 . S
C1711 C1719 1.433 . S
C1712 H1708 0.929 . S
C1712 C1714 1.378 . S
C1712 C1716 1.350 . S
C1713 C1716 1.463 . S
C1713 C1718 1.350 . S
C1713 N1721 1.427 . S
C1714 H1705 0.930 . S
C1714 C1712 1.378 . S
C1714 C1715 1.367 . S
C1715 C1714 1.367 . S
C1715 C1717 1.433 . S
C1716 C1712 1.350 . S
C1716 C1713 1.463 . S
C1716 N1720 1.427 . S
C1717 H1707 0.929 1_455 S
C1717 C1715 1.433 . S
C1717 N1720 1.384 . S
C1718 H1709 0.929 . S
C1718 C1710 1.378 . S
C1718 C1713 1.350 . S
C1719 H1706 0.929 . S
C1719 C1711 1.433 . S
C1719 N1721 1.384 . S
N1720 C1716 1.427 . S
N1720 C1717 1.384 . S
N1721 C1713 1.427 . S
N1721 C1719 1.384 . S
H1722 C1728 0.930 . S
H1723 C1732 0.930 . S
H1724 C1737 0.929 . S
H1725 C1735 0.929 . S
H1726 C1730 0.929 . S
H1727 C1736 0.929 . S
C1728 H1722 0.930 . S
C1728 C1729 1.367 . S
C1728 C1736 1.378 . S
C1729 C1728 1.367 . S
C1729 C1737 1.433 . S
C1730 H1726 0.929 . S
C1730 C1732 1.378 . S
C1730 C1734 1.350 . S
C1731 C1734 1.463 . S
C1731 C1736 1.350 . S
C1731 N1739 1.427 . S
C1732 H1723 0.930 . S
C1732 C1730 1.378 . S
C1732 C1733 1.367 . S
C1733 C1732 1.367 . S
C1733 C1735 1.433 . S
C1734 C1730 1.350 . S
C1734 C1731 1.463 . S
C1734 N1738 1.427 . S
C1735 H1725 0.929 . S
C1735 C1733 1.433 . S
C1735 N1738 1.384 . S
C1736 H1727 0.929 . S
C1736 C1728 1.378 . S
C1736 C1731 1.350 . S
C1737 H1724 0.929 . S
C1737 C1729 1.433 . S
C1737 N1739 1.384 . S
N1738 C1734 1.427 . S
N1738 C1735 1.384 . S
N1739 C1731 1.427 . S
N1739 C1737 1.384 . S
H1740 C1746 0.930 . S
H1741 C1750 0.930 . S
H1742 C1755 0.929 . S
H1743 C1753 0.929 . S
H1744 C1748 0.929 . S
H1745 C1754 0.929 . S
C1746 H1740 0.930 . S
C1746 C1747 1.367 . S
C1746 C1754 1.378 . S
C1747 C1746 1.367 . S
C1747 C1755 1.433 . S
C1748 H1744 0.929 . S
C1748 C1750 1.378 . S
C1748 C1752 1.350 . S
C1749 C1752 1.463 . S
C1749 C1754 1.350 . S
C1749 N1757 1.427 . S
C1750 H1741 0.930 . S
C1750 C1748 1.378 . S
C1750 C1751 1.367 . S
C1751 C1750 1.367 . S
C1751 C1753 1.433 . S
C1752 C1748 1.350 . S
C1752 C1749 1.463 . S
C1752 N1756 1.427 . S
C1753 H1743 0.929 . S
C1753 C1751 1.433 . S
C1753 N1756 1.384 . S
C1754 H1745 0.929 . S
C1754 C1746 1.378 . S
C1754 C1749 1.350 . S
C1755 H1742 0.929 . S
C1755 C1747 1.433 . S
C1755 N1757 1.384 . S
N1756 C1752 1.427 . S
N1756 C1753 1.384 . S
N1757 C1749 1.427 . S
N1757 C1755 1.384 . S
H1758 C1764 0.930 . S
H1759 C1768 0.930 . S
H1760 C1773 0.929 . S
H1761 C1771 0.929 . S
H1762 C1766 0.929 . S
H1763 C1772 0.929 . S
C1764 H1758 0.930 . S
C1764 C1765 1.367 . S
C1764 C1772 1.378 . S
C1765 C1764 1.367 . S
C1765 C1773 1.433 . S
C1766 H1762 0.929 . S
C1766 C1768 1.378 . S
C1766 C1770 1.350 . S
C1767 C1770 1.463 . S
C1767 C1772 1.350 . S
C1767 N1775 1.427 . S
C1768 H1759 0.930 . S
C1768 C1766 1.378 . S
C1768 C1769 1.367 . S
C1769 C1768 1.367 . S
C1769 C1771 1.433 . S
C1770 C1766 1.350 . S
C1770 C1767 1.463 . S
C1770 N1774 1.427 . S
C1771 H1761 0.929 . S
C1771 C1769 1.433 . S
C1771 N1774 1.384 . S
C1772 H1763 0.929 . S
C1772 C1764 1.378 . S
C1772 C1767 1.350 . S
C1773 H1760 0.929 . S
C1773 C1765 1.433 . S
C1773 N1775 1.384 . S
N1774 C1770 1.427 . S
N1774 C1771 1.384 . S
N1775 C1767 1.427 . S
N1775 C1773 1.384 . S
H1776 C1782 0.930 . S
H1777 C1786 0.930 . S
H1778 C1791 0.929 . S
H1779 C1789 0.929 . S
H1780 C1784 0.929 . S
H1781 C1790 0.929 . S
C1782 H1776 0.930 . S
C1782 C1783 1.367 . S
C1782 C1790 1.378 . S
C1783 C1782 1.367 . S
C1783 C1791 1.433 . S
C1784 H1780 0.929 . S
C1784 C1786 1.378 . S
C1784 C1788 1.350 . S
C1785 C1788 1.463 . S
C1785 C1790 1.350 . S
C1785 N1793 1.427 . S
C1786 H1777 0.930 . S
C1786 C1784 1.378 . S
C1786 C1787 1.367 . S
C1787 C1786 1.367 . S
C1787 C1789 1.433 . S
C1788 C1784 1.350 . S
C1788 C1785 1.463 . S
C1788 N1792 1.427 . S
C1789 H1779 0.929 . S
C1789 C1787 1.433 . S
C1789 N1792 1.384 . S
C1790 H1781 0.929 . S
C1790 C1782 1.378 . S
C1790 C1785 1.350 . S
C1791 H1778 0.929 . S
C1791 C1783 1.433 . S
C1791 N1793 1.384 . S
N1792 C1788 1.427 . S
N1792 C1789 1.384 . S
N1793 C1785 1.427 . S
N1793 C1791 1.384 . S
H1794 C1800 0.930 . S
H1795 C1804 0.930 . S
H1796 C1809 0.929 . S
H1797 C1807 0.929 . S
H1798 C1802 0.929 . S
H1799 C1808 0.929 . S
C1800 H1794 0.930 . S
C1800 C1801 1.367 . S
C1800 C1808 1.378 . S
C1801 C1800 1.367 . S
C1801 C1809 1.433 . S
C1802 H1798 0.929 . S
C1802 C1804 1.378 . S
C1802 C1806 1.350 . S
C1803 C1806 1.463 . S
C1803 C1808 1.350 . S
C1803 N1811 1.427 . S
C1804 H1795 0.930 . S
C1804 C1802 1.378 . S
C1804 C1805 1.367 . S
C1805 C1804 1.367 . S
C1805 C1807 1.433 . S
C1806 C1802 1.350 . S
C1806 C1803 1.463 . S
C1806 N1810 1.427 . S
C1807 H1797 0.929 . S
C1807 C1805 1.433 . S
C1807 N1810 1.384 . S
C1808 H1799 0.929 . S
C1808 C1800 1.378 . S
C1808 C1803 1.350 . S
C1809 H1796 0.929 . S
C1809 C1801 1.433 . S
C1809 N1811 1.384 . S
N1810 C1806 1.427 . S
N1810 C1807 1.384 . S
N1811 C1803 1.427 . S
N1811 C1809 1.384 . S
H1812 C1818 0.930 . S
H1813 C1822 0.930 . S
H1814 C1827 0.929 . S
H1815 C1825 0.929 . S
H1816 C1820 0.929 . S
H1817 C1826 0.929 . S
C1818 H1812 0.930 . S
C1818 C1819 1.367 . S
C1818 C1826 1.378 . S
C1819 C1818 1.367 . S
C1819 C1827 1.433 . S
C1820 H1816 0.929 . S
C1820 C1822 1.378 . S
C1820 C1824 1.350 . S
C1821 C1824 1.463 . S
C1821 C1826 1.350 . S
C1821 N1829 1.427 . S
C1822 H1813 0.930 . S
C1822 C1820 1.378 . S
C1822 C1823 1.367 . S
C1823 C1822 1.367 . S
C1823 C1825 1.433 . S
C1824 C1820 1.350 . S
C1824 C1821 1.463 . S
C1824 N1828 1.427 . S
C1825 H1815 0.929 . S
C1825 C1823 1.433 . S
C1825 N1828 1.384 . S
C1826 H1817 0.929 . S
C1826 C1818 1.378 . S
C1826 C1821 1.350 . S
C1827 H1814 0.929 . S
C1827 C1819 1.433 . S
C1827 N1829 1.384 . S
N1828 C1824 1.427 . S
N1828 C1825 1.384 . S
N1829 C1821 1.427 . S
N1829 C1827 1.384 . S
H1830 C1836 0.930 . S
H1831 C1840 0.930 . S
H1832 C1845 0.929 . S
H1833 C1843 0.929 1_545 S
H1834 C1838 0.929 . S
H1835 C1844 0.929 . S
C1836 H1830 0.930 . S
C1836 C1837 1.367 . S
C1836 C1844 1.378 . S
C1837 C1836 1.367 . S
C1837 C1845 1.433 . S
C1838 H1834 0.929 . S
C1838 C1840 1.378 . S
C1838 C1842 1.350 . S
C1839 C1842 1.463 . S
C1839 C1844 1.350 . S
C1839 N1847 1.427 . S
C1840 H1831 0.930 . S
C1840 C1838 1.378 . S
C1840 C1841 1.367 . S
C1841 C1840 1.367 . S
C1841 C1843 1.433 . S
C1842 C1838 1.350 . S
C1842 C1839 1.463 . S
C1842 N1846 1.427 . S
C1843 H1833 0.929 1_565 S
C1843 C1841 1.433 . S
C1843 N1846 1.384 . S
C1844 H1835 0.929 . S
C1844 C1836 1.378 . S
C1844 C1839 1.350 . S
C1845 H1832 0.929 . S
C1845 C1837 1.433 . S
C1845 N1847 1.384 . S
N1846 C1842 1.427 . S
N1846 C1843 1.384 . S
N1847 C1839 1.427 . S
N1847 C1845 1.384 . S
H1848 C1854 0.930 . S
H1849 C1858 0.930 . S
H1850 C1863 0.929 . S
H1851 C1861 0.936 . S
H1852 C1856 0.929 . S
H1853 C1862 0.929 . S
C1854 H1848 0.930 . S
C1854 C1855 1.367 . S
C1854 C1862 1.378 . S
C1855 C1854 1.367 . S
C1855 C1863 1.433 . S
C1856 H1852 0.929 . S
C1856 C1858 1.378 . S
C1856 C1860 1.350 . S
C1857 C1860 1.463 . S
C1857 C1862 1.350 . S
C1857 N1865 1.427 . S
C1858 H1849 0.930 . S
C1858 C1856 1.378 . S
C1858 C1859 1.367 . S
C1859 C1858 1.367 . S
C1859 C1861 1.433 . S
C1860 C1856 1.350 . S
C1860 C1857 1.463 . S
C1860 N1864 1.427 . S
C1861 H1851 0.936 . S
C1861 C1859 1.433 . S
C1861 N1864 1.384 . S
C1862 H1853 0.929 . S
C1862 C1854 1.378 . S
C1862 C1857 1.350 . S
C1863 H1850 0.929 . S
C1863 C1855 1.433 . S
C1863 N1865 1.384 . S
N1864 C1860 1.427 . S
N1864 C1861 1.384 . S
N1865 C1857 1.427 . S
N1865 C1863 1.384 . S
H1866 C1872 0.930 . S
H1867 C1876 0.930 . S
H1868 C1881 0.929 . S
H1869 C1879 0.929 . S
H1870 C1874 0.929 . S
H1871 C1880 0.929 . S
C1872 H1866 0.930 . S
C1872 C1873 1.367 . S
C1872 C1880 1.378 . S
C1873 C1872 1.367 . S
C1873 C1881 1.433 . S
C1874 H1870 0.929 . S
C1874 C1876 1.378 . S
C1874 C1878 1.350 . S
C1875 C1878 1.463 . S
C1875 C1880 1.350 . S
C1875 N1883 1.427 . S
C1876 H1867 0.930 . S
C1876 C1874 1.378 . S
C1876 C1877 1.367 . S
C1877 C1876 1.367 . S
C1877 C1879 1.433 . S
C1878 C1874 1.350 . S
C1878 C1875 1.463 . S
C1878 N1882 1.427 . S
C1879 H1869 0.929 . S
C1879 C1877 1.433 . S
C1879 N1882 1.384 . S
C1880 H1871 0.929 . S
C1880 C1872 1.378 . S
C1880 C1875 1.350 . S
C1881 H1868 0.929 . S
C1881 C1873 1.433 . S
C1881 N1883 1.384 . S
N1882 C1878 1.427 . S
N1882 C1879 1.384 . S
N1883 C1875 1.427 . S
N1883 C1881 1.384 . S
H1884 C1890 0.930 . S
H1885 C1894 0.930 . S
H1886 C1899 0.929 . S
H1887 C1897 0.929 . S
H1888 C1892 0.929 . S
H1889 C1898 0.929 . S
C1890 H1884 0.930 . S
C1890 C1891 1.367 . S
C1890 C1898 1.378 . S
C1891 C1890 1.367 . S
C1891 C1899 1.433 . S
C1892 H1888 0.929 . S
C1892 C1894 1.378 . S
C1892 C1896 1.350 . S
C1893 C1896 1.463 . S
C1893 C1898 1.350 . S
C1893 N1901 1.427 . S
C1894 H1885 0.930 . S
C1894 C1892 1.378 . S
C1894 C1895 1.367 . S
C1895 C1894 1.367 . S
C1895 C1897 1.433 . S
C1896 C1892 1.350 . S
C1896 C1893 1.463 . S
C1896 N1900 1.427 . S
C1897 H1887 0.929 . S
C1897 C1895 1.433 . S
C1897 N1900 1.384 . S
C1898 H1889 0.929 . S
C1898 C1890 1.378 . S
C1898 C1893 1.350 . S
C1899 H1886 0.929 . S
C1899 C1891 1.433 . S
C1899 N1901 1.384 . S
N1900 C1896 1.427 . S
N1900 C1897 1.384 . S
N1901 C1893 1.427 . S
N1901 C1899 1.384 . S
H1902 C1908 0.930 . S
H1903 C1912 0.930 . S
H1904 C1917 0.929 . S
H1905 C1915 0.929 . S
H1906 C1910 0.929 . S
H1907 C1916 0.929 . S
C1908 H1902 0.930 . S
C1908 C1909 1.367 . S
C1908 C1916 1.378 . S
C1909 C1908 1.367 . S
C1909 C1917 1.433 . S
C1910 H1906 0.929 . S
C1910 C1912 1.378 . S
C1910 C1914 1.350 . S
C1911 C1914 1.463 . S
C1911 C1916 1.350 . S
C1911 N1919 1.427 . S
C1912 H1903 0.930 . S
C1912 C1910 1.378 . S
C1912 C1913 1.367 . S
C1913 C1912 1.367 . S
C1913 C1915 1.433 . S
C1914 C1910 1.350 . S
C1914 C1911 1.463 . S
C1914 N1918 1.427 . S
C1915 H1905 0.929 . S
C1915 C1913 1.433 . S
C1915 N1918 1.384 . S
C1916 H1907 0.929 . S
C1916 C1908 1.378 . S
C1916 C1911 1.350 . S
C1917 H1904 0.929 . S
C1917 C1909 1.433 . S
C1917 N1919 1.384 . S
N1918 C1914 1.427 . S
N1918 C1915 1.384 . S
N1919 C1911 1.427 . S
N1919 C1917 1.384 . S
H1920 C1926 0.930 . S
H1921 C1930 0.930 . S
H1922 C1935 0.929 . S
H1923 C1933 0.929 . S
H1924 C1928 0.929 . S
H1925 C1934 0.929 . S
C1926 H1920 0.930 . S
C1926 C1927 1.367 . S
C1926 C1934 1.378 . S
C1927 C1926 1.367 . S
C1927 C1935 1.433 . S
C1928 H1924 0.929 . S
C1928 C1930 1.378 . S
C1928 C1932 1.350 . S
C1929 C1932 1.463 . S
C1929 C1934 1.350 . S
C1929 N1937 1.427 . S
C1930 H1921 0.930 . S
C1930 C1928 1.378 . S
C1930 C1931 1.367 . S
C1931 C1930 1.367 . S
C1931 C1933 1.433 . S
C1932 C1928 1.350 . S
C1932 C1929 1.463 . S
C1932 N1936 1.427 . S
C1933 H1923 0.929 . S
C1933 C1931 1.433 . S
C1933 N1936 1.384 . S
C1934 H1925 0.929 . S
C1934 C1926 1.378 . S
C1934 C1929 1.350 . S
C1935 H1922 0.929 . S
C1935 C1927 1.433 . S
C1935 N1937 1.384 . S
N1936 C1932 1.427 . S
N1936 C1933 1.384 . S
N1937 C1929 1.427 . S
N1937 C1935 1.384 . S
H1938 C1944 0.930 . S
H1939 C1948 0.930 . S
H1940 C1953 0.929 . S
H1941 C1951 0.929 . S
H1942 C1946 0.929 . S
H1943 C1952 0.929 . S
C1944 H1938 0.930 . S
C1944 C1945 1.367 . S
C1944 C1952 1.378 . S
C1945 C1944 1.367 . S
C1945 C1953 1.433 . S
C1946 H1942 0.929 . S
C1946 C1948 1.378 . S
C1946 C1950 1.350 . S
C1947 C1950 1.463 . S
C1947 C1952 1.350 . S
C1947 N1955 1.427 . S
C1948 H1939 0.930 . S
C1948 C1946 1.378 . S
C1948 C1949 1.367 . S
C1949 C1948 1.367 . S
C1949 C1951 1.433 . S
C1950 C1946 1.350 . S
C1950 C1947 1.463 . S
C1950 N1954 1.427 . S
C1951 H1941 0.929 . S
C1951 C1949 1.433 . S
C1951 N1954 1.384 . S
C1952 H1943 0.929 . S
C1952 C1944 1.378 . S
C1952 C1947 1.350 . S
C1953 H1940 0.929 . S
C1953 C1945 1.433 . S
C1953 N1955 1.384 . S
N1954 C1950 1.427 . S
N1954 C1951 1.384 . S
N1955 C1947 1.427 . S
N1955 C1953 1.384 . S
H1956 C1962 0.930 . S
H1957 C1966 0.930 . S
H1958 C1971 0.929 . S
H1959 C1969 0.929 . S
H1960 C1964 0.929 . S
H1961 C1970 0.929 . S
C1962 H1956 0.930 . S
C1962 C1963 1.367 . S
C1962 C1970 1.378 . S
C1963 C1962 1.367 . S
C1963 C1971 1.433 . S
C1964 H1960 0.929 . S
C1964 C1966 1.378 . S
C1964 C1968 1.350 . S
C1965 C1968 1.463 . S
C1965 C1970 1.350 . S
C1965 N1973 1.427 . S
C1966 H1957 0.930 . S
C1966 C1964 1.378 . S
C1966 C1967 1.367 . S
C1967 C1966 1.367 . S
C1967 C1969 1.433 . S
C1968 C1964 1.350 . S
C1968 C1965 1.463 . S
C1968 N1972 1.427 . S
C1969 H1959 0.929 . S
C1969 C1967 1.433 . S
C1969 N1972 1.384 . S
C1970 H1961 0.929 . S
C1970 C1962 1.378 . S
C1970 C1965 1.350 . S
C1971 H1958 0.929 . S
C1971 C1963 1.433 . S
C1971 N1973 1.384 . S
N1972 C1968 1.427 . S
N1972 C1969 1.384 . S
N1973 C1965 1.427 . S
N1973 C1971 1.384 . S
H1974 C1980 0.930 . S
H1975 C1984 0.930 1_655 S
H1976 C1989 0.929 . S
H1977 C1987 0.929 . S
H1978 C1982 0.929 . S
H1979 C1988 0.929 . S
C1980 H1974 0.930 . S
C1980 C1981 1.367 . S
C1980 C1988 1.378 . S
C1981 C1980 1.367 . S
C1981 C1989 1.433 . S
C1982 H1978 0.929 . S
C1982 C1984 1.378 . S
C1982 C1986 1.350 . S
C1983 C1986 1.463 . S
C1983 C1988 1.350 . S
C1983 N1991 1.427 . S
C1984 H1975 0.930 1_455 S
C1984 C1982 1.378 . S
C1984 C1985 1.367 . S
C1985 C1984 1.367 . S
C1985 C1987 1.433 . S
C1986 C1982 1.350 . S
C1986 C1983 1.463 . S
C1986 N1990 1.427 . S
C1987 H1977 0.929 . S
C1987 C1985 1.433 . S
C1987 N1990 1.384 . S
C1988 H1979 0.929 . S
C1988 C1980 1.378 . S
C1988 C1983 1.350 . S
C1989 H1976 0.929 . S
C1989 C1981 1.433 . S
C1989 N1991 1.384 . S
N1990 C1986 1.427 . S
N1990 C1987 1.384 . S
N1991 C1983 1.427 . S
N1991 C1989 1.384 . S
H1992 C1998 0.930 . S
H1993 C2002 0.930 1_545 S
H1994 C2007 0.929 . S
H1995 C2005 0.929 . S
H1996 C2000 0.929 . S
H1997 C2006 0.929 . S
C1998 H1992 0.930 . S
C1998 C1999 1.367 . S
C1998 C2006 1.378 . S
C1999 C1998 1.367 . S
C1999 C2007 1.433 . S
C2000 H1996 0.929 . S
C2000 C2002 1.378 . S
C2000 C2004 1.350 . S
C2001 C2004 1.463 . S
C2001 C2006 1.350 . S
C2001 N2009 1.427 . S
C2002 H1993 0.930 1_565 S
C2002 C2000 1.378 . S
C2002 C2003 1.367 . S
C2003 C2002 1.367 . S
C2003 C2005 1.433 . S
C2004 C2000 1.350 . S
C2004 C2001 1.463 . S
C2004 N2008 1.427 . S
C2005 H1995 0.929 . S
C2005 C2003 1.433 . S
C2005 N2008 1.384 . S
C2006 H1997 0.929 . S
C2006 C1998 1.378 . S
C2006 C2001 1.350 . S
C2007 H1994 0.929 . S
C2007 C1999 1.433 . S
C2007 N2009 1.384 . S
N2008 C2004 1.427 . S
N2008 C2005 1.384 . S
N2009 C2001 1.427 . S
N2009 C2007 1.384 . S
H2010 C2016 0.930 . S
H2011 C2020 0.930 . S
H2012 C2025 0.929 . S
H2013 C2023 0.929 . S
H2014 C2018 0.929 . S
H2015 C2024 0.929 . S
C2016 H2010 0.930 . S
C2016 C2017 1.367 . S
C2016 C2024 1.378 . S
C2017 C2016 1.367 . S
C2017 C2025 1.433 . S
C2018 H2014 0.929 . S
C2018 C2020 1.378 . S
C2018 C2022 1.350 . S
C2019 C2022 1.463 . S
C2019 C2024 1.350 . S
C2019 N2027 1.427 . S
C2020 H2011 0.930 . S
C2020 C2018 1.378 . S
C2020 C2021 1.367 . S
C2021 C2020 1.367 . S
C2021 C2023 1.433 . S
C2022 C2018 1.350 . S
C2022 C2019 1.463 . S
C2022 N2026 1.427 . S
C2023 H2013 0.929 . S
C2023 C2021 1.433 . S
C2023 N2026 1.384 . S
C2024 H2015 0.929 . S
C2024 C2016 1.378 . S
C2024 C2019 1.350 . S
C2025 H2012 0.929 . S
C2025 C2017 1.433 . S
C2025 N2027 1.384 . S
N2026 C2022 1.427 . S
N2026 C2023 1.384 . S
N2027 C2019 1.427 . S
N2027 C2025 1.384 . S
H2028 C2034 0.930 . S
H2029 C2038 0.930 . S
H2030 C2043 0.929 . S
H2031 C2041 0.929 . S
H2032 C2036 0.929 . S
H2033 C2042 0.929 . S
C2034 H2028 0.930 . S
C2034 C2035 1.367 . S
C2034 C2042 1.378 . S
C2035 C2034 1.367 . S
C2035 C2043 1.433 . S
C2036 H2032 0.929 . S
C2036 C2038 1.378 . S
C2036 C2040 1.350 . S
C2037 C2040 1.463 . S
C2037 C2042 1.350 . S
C2037 N2045 1.427 . S
C2038 H2029 0.930 . S
C2038 C2036 1.378 . S
C2038 C2039 1.367 . S
C2039 C2038 1.367 . S
C2039 C2041 1.433 . S
C2040 C2036 1.350 . S
C2040 C2037 1.463 . S
C2040 N2044 1.427 . S
C2041 H2031 0.929 . S
C2041 C2039 1.433 . S
C2041 N2044 1.384 . S
C2042 H2033 0.929 . S
C2042 C2034 1.378 . S
C2042 C2037 1.350 . S
C2043 H2030 0.929 . S
C2043 C2035 1.433 . S
C2043 N2045 1.384 . S
N2044 C2040 1.427 . S
N2044 C2041 1.384 . S
N2045 C2037 1.427 . S
N2045 C2043 1.384 . S
H2046 C2052 0.930 . S
H2047 C2056 0.930 . S
H2048 C2061 0.929 . S
H2049 C2059 0.929 1_565 S
H2050 C2054 0.929 . S
H2051 C2060 0.929 . S
C2052 H2046 0.930 . S
C2052 C2053 1.367 . S
C2052 C2060 1.378 . S
C2053 C2052 1.367 . S
C2053 C2061 1.433 . S
C2054 H2050 0.929 . S
C2054 C2056 1.378 . S
C2054 C2058 1.350 . S
C2055 C2058 1.463 . S
C2055 C2060 1.350 . S
C2055 N2063 1.427 . S
C2056 H2047 0.930 . S
C2056 C2054 1.378 . S
C2056 C2057 1.367 . S
C2057 C2056 1.367 . S
C2057 C2059 1.433 . S
C2058 C2054 1.350 . S
C2058 C2055 1.463 . S
C2058 N2062 1.427 . S
C2059 H2049 0.929 1_545 S
C2059 C2057 1.433 . S
C2059 N2062 1.384 . S
C2060 H2051 0.929 . S
C2060 C2052 1.378 . S
C2060 C2055 1.350 . S
C2061 H2048 0.929 . S
C2061 C2053 1.433 . S
C2061 N2063 1.384 . S
N2062 C2058 1.427 . S
N2062 C2059 1.384 . S
N2063 C2055 1.427 . S
N2063 C2061 1.384 . S
C775 N13 1.145 . S
C779 C580 1.211 . S
C793 C637 1.209 . S
C797 N45 1.129 . S
C811 N82 1.141 . S
C815 C541 1.210 1_545 S
C829 N114 1.148 . S
C833 C548 1.212 1_565 S
C847 C708 1.213 . S
C851 N146 1.149 . S
C865 N173 1.127 . S
C869 C676 1.209 1_556 S
C883 C765 1.210 . S
C887 N205 1.124 . S
C901 N242 1.127 . S
C905 C644 1.212 1_554 S
C919 N269 1.127 . S
C923 C420 1.212 . S
C937 N301 1.124 . S
C941 C509 1.210 1_655 S
C955 C477 1.213 . S
C959 N333 1.133 . S
C973 N370 1.140 . S
C977 C413 1.210 1_455 S
C991 N402 1.133 . S
C995 C196 1.209 . S
C1009 N429 1.125 . S
C1013 C253 1.209 . S
C1027 N466 1.139 . S
C1031 C157 1.210 1_565 S
C1045 C164 1.212 1_545 S
C1049 N498 1.128 . S
C1063 N530 1.145 . S
C1067 C324 1.211 . S
C1081 C292 1.209 1_554 S
C1085 N557 1.134 . S
C1099 C381 1.212 . S
C1103 N589 1.148 . S
C1117 C260 1.213 1_556 S
C1121 N626 1.148 . S
C1135 C36 1.211 . S
C1139 N653 1.144 . S
C1153 C125 1.213 1_455 S
C1157 N685 1.132 . S
C1171 C93 1.212 . S
C1175 N717 1.127 . S
C1189 N754 1.145 . S
C1193 C4 1.211 1_655 S
C1207 C130 1.742 . S
C1211 C29 1.768 . S
C1225 C166 1.746 . S
C1229 C61 1.770 . S
C1243 C198 1.744 . S
C1247 C68 1.769 . S
C1261 C226 1.742 . S
C1265 C100 1.768 . S
C1279 C132 1.772 . S
C1283 C262 1.749 . S
C1297 C189 1.773 . S
C1301 C354 1.748 . S
C1315 C221 1.774 . S
C1319 C294 1.752 . S
C1333 C228 1.771 . S
C1337 C326 1.747 . S
C1351 C285 1.768 . S
C1355 C6 1.743 . S
C1369 C317 1.775 . S
C1373 C66 1.751 . S
C1387 C349 1.768 . S
C1391 C98 1.742 . S
C1405 C38 1.743 . S
C1409 C356 1.769 . S
C1423 C514 1.743 . S
C1427 C388 1.768 . S
C1441 C550 1.752 . S
C1445 C445 1.775 . S
C1459 C452 1.769 . S
C1463 C582 1.745 . S
C1477 C484 1.768 . S
C1481 C610 1.742 . S
C1495 C646 1.742 . S
C1499 C516 1.768 . S
C1513 C573 1.768 . S
C1517 C738 1.742 . S
C1531 C678 1.744 . S
C1535 C605 1.770 . S
C1549 C612 1.775 . S
C1553 C710 1.752 . S
C1567 C386 1.742 . S
C1571 C669 1.768 . S
C1585 C701 1.775 . S
C1589 C450 1.751 . S
C1603 C733 1.772 . S
C1607 C482 1.746 . S
C1621 C422 1.742 . S
C1625 C740 1.769 . S
C1639 N18 1.534 . S
C1643 C290 1.556 1_554 S
C1657 C322 1.551 . S
C1661 N50 1.528 . S
C1675 C258 1.555 1_556 S
C1679 N77 1.528 . S
C1693 C358 1.557 . S
C1697 N109 1.535 . S
C1711 N141 1.522 . S
C1715 C102 1.550 1_455 S
C1729 C70 1.549 . S
C1733 N178 1.522 . S
C1747 N210 1.521 . S
C1751 C34 1.549 . S
C1765 C2 1.545 1_655 S
C1769 N237 1.520 . S
C1783 N274 1.534 . S
C1787 C162 1.559 1_545 S
C1801 N306 1.530 . S
C1805 C230 1.553 . S
C1819 N338 1.532 . S
C1823 C194 1.555 . S
C1837 N365 1.520 . S
C1841 C134 1.548 1_565 S
C1855 N397 1.518 . S
C1859 C674 1.545 1_556 S
C1873 N434 1.527 . S
C1877 C706 1.550 . S
C1891 C642 1.557 1_554 S
C1895 N461 1.531 . S
C1909 C742 1.556 . S
C1913 N493 1.530 . S
C1927 N525 1.518 . S
C1931 C486 1.544 1_655 S
C1945 N562 1.520 . S
C1949 C454 1.548 . S
C1963 C418 1.548 . S
C1967 N594 1.524 . S
C1981 N621 1.530 . S
C1985 C390 1.553 1_455 S
C1999 N658 1.532 . S
C2003 C546 1.555 1_565 S
C2017 C614 1.548 . S
C2021 N690 1.520 . S
C2035 N722 1.535 . S
C2039 C578 1.559 . S
C2053 N749 1.523 . S
C2057 C518 1.551 1_545 S
