# Generated by pormake.
# Topology uka, (4)-cn, num edge types: 1
# Building blocks:
#     Node 0, Type 0, BuildingBlock: AZAVOO_clean_sbu_0, # of connection points: 4
#     Node 1, Type 0, BuildingBlock: AZAVOO_clean_sbu_0, # of connection points: 4
#     Node 2, Type 0, BuildingBlock: AZAVOO_clean_sbu_0, # of connection points: 4
#     Node 3, Type 0, BuildingBlock: AZAVOO_clean_sbu_0, # of connection points: 4
#     Node 4, Type 0, BuildingBlock: AZAVOO_clean_sbu_0, # of connection points: 4
#     Node 5, Type 0, BuildingBlock: AZAVOO_clean_sbu_0, # of connection points: 4
#     Node 6, Type 0, BuildingBlock: AZAVOO_clean_sbu_0, # of connection points: 4
#     Node 7, Type 0, BuildingBlock: AZAVOO_clean_sbu_0, # of connection points: 4
#     Node 8, Type 0, BuildingBlock: AZAVOO_clean_sbu_0, # of connection points: 4
#     Node 9, Type 0, BuildingBlock: AZAVOO_clean_sbu_0, # of connection points: 4
#     Node 10, Type 0, BuildingBlock: AZAVOO_clean_sbu_0, # of connection points: 4
#     Node 11, Type 0, BuildingBlock: AZAVOO_clean_sbu_0, # of connection points: 4
#     Node 12, Type 0, BuildingBlock: AZAVOO_clean_sbu_0, # of connection points: 4
#     Node 13, Type 0, BuildingBlock: AZAVOO_clean_sbu_0, # of connection points: 4
#     Node 14, Type 0, BuildingBlock: AZAVOO_clean_sbu_0, # of connection points: 4
#     Node 15, Type 0, BuildingBlock: AZAVOO_clean_sbu_0, # of connection points: 4
#     Node 16, Type 0, BuildingBlock: AZAVOO_clean_sbu_0, # of connection points: 4
#     Node 17, Type 0, BuildingBlock: AZAVOO_clean_sbu_0, # of connection points: 4
#     Node 18, Type 0, BuildingBlock: AZAVOO_clean_sbu_0, # of connection points: 4
#     Node 19, Type 0, BuildingBlock: AZAVOO_clean_sbu_0, # of connection points: 4
#     Node 20, Type 0, BuildingBlock: AZAVOO_clean_sbu_0, # of connection points: 4
#     Node 21, Type 0, BuildingBlock: AZAVOO_clean_sbu_0, # of connection points: 4
#     Node 22, Type 0, BuildingBlock: AZAVOO_clean_sbu_0, # of connection points: 4
#     Node 23, Type 0, BuildingBlock: AZAVOO_clean_sbu_0, # of connection points: 4
#     Node 24, Type 0, BuildingBlock: AZAVOO_clean_sbu_0, # of connection points: 4
#     Node 25, Type 0, BuildingBlock: AZAVOO_clean_sbu_0, # of connection points: 4
#     Node 26, Type 0, BuildingBlock: AZAVOO_clean_sbu_0, # of connection points: 4
#     Node 27, Type 0, BuildingBlock: AZAVOO_clean_sbu_0, # of connection points: 4
#     Node 28, Type 0, BuildingBlock: AZAVOO_clean_sbu_0, # of connection points: 4
#     Node 29, Type 0, BuildingBlock: AZAVOO_clean_sbu_0, # of connection points: 4
#     Node 30, Type 0, BuildingBlock: AZAVOO_clean_sbu_0, # of connection points: 4
#     Node 31, Type 0, BuildingBlock: AZAVOO_clean_sbu_0, # of connection points: 4
#     Edge 32, Type (0, 0), None
#     Edge 33, Type (0, 0), None
#     Edge 34, Type (0, 0), None
#     Edge 35, Type (0, 0), None
#     Edge 36, Type (0, 0), None
#     Edge 37, Type (0, 0), None
#     Edge 38, Type (0, 0), None
#     Edge 39, Type (0, 0), None
#     Edge 40, Type (0, 0), None
#     Edge 41, Type (0, 0), None
#     Edge 42, Type (0, 0), None
#     Edge 43, Type (0, 0), None
#     Edge 44, Type (0, 0), None
#     Edge 45, Type (0, 0), None
#     Edge 46, Type (0, 0), None
#     Edge 47, Type (0, 0), None
#     Edge 48, Type (0, 0), None
#     Edge 49, Type (0, 0), None
#     Edge 50, Type (0, 0), None
#     Edge 51, Type (0, 0), None
#     Edge 52, Type (0, 0), None
#     Edge 53, Type (0, 0), None
#     Edge 54, Type (0, 0), None
#     Edge 55, Type (0, 0), None
#     Edge 56, Type (0, 0), None
#     Edge 57, Type (0, 0), None
#     Edge 58, Type (0, 0), None
#     Edge 59, Type (0, 0), None
#     Edge 60, Type (0, 0), None
#     Edge 61, Type (0, 0), None
#     Edge 62, Type (0, 0), None
#     Edge 63, Type (0, 0), None
#     Edge 64, Type (0, 0), None
#     Edge 65, Type (0, 0), None
#     Edge 66, Type (0, 0), None
#     Edge 67, Type (0, 0), None
#     Edge 68, Type (0, 0), None
#     Edge 69, Type (0, 0), None
#     Edge 70, Type (0, 0), None
#     Edge 71, Type (0, 0), None
#     Edge 72, Type (0, 0), None
#     Edge 73, Type (0, 0), None
#     Edge 74, Type (0, 0), None
#     Edge 75, Type (0, 0), None
#     Edge 76, Type (0, 0), None
#     Edge 77, Type (0, 0), None
#     Edge 78, Type (0, 0), None
#     Edge 79, Type (0, 0), None
#     Edge 80, Type (0, 0), None
#     Edge 81, Type (0, 0), None
#     Edge 82, Type (0, 0), None
#     Edge 83, Type (0, 0), None
#     Edge 84, Type (0, 0), None
#     Edge 85, Type (0, 0), None
#     Edge 86, Type (0, 0), None
#     Edge 87, Type (0, 0), None
#     Edge 88, Type (0, 0), None
#     Edge 89, Type (0, 0), None
#     Edge 90, Type (0, 0), None
#     Edge 91, Type (0, 0), None
#     Edge 92, Type (0, 0), None
#     Edge 93, Type (0, 0), None
#     Edge 94, Type (0, 0), None
#     Edge 95, Type (0, 0), None
# Relax obj value: 0.253
# Max RMSD: 0.284
# Mean RMSD: 0.249
data_MOF--net-uka--node1-AZAVOO_clean_sbu_0--edge1-none
_symmetry_space_group_name_H-M    P1
_symmetry_Int_Tables_number       1
_symmetry_cell_setting            triclinic
loop_
_symmetry_equiv_pos_as_xyz
'x, y, z'
_cell_length_a     30.036467
_cell_length_b     26.598823
_cell_length_c     19.424025
_cell_angle_alpha  90.013137
_cell_angle_beta   90.009886
_cell_angle_gamma 89.983422
loop_
_atom_site_label
_atom_site_type_symbol
_atom_site_fract_x
_atom_site_fract_y
_atom_site_fract_z
_atom_type_partial_charge
Mg0 Mg 0.08496 0.23656 0.24595 0.0
O1 O 0.07954 0.16471 0.3116 0.0
O2 O 0.02864 0.12412 0.2531 0.0
Mg3 Mg -0.02479 0.1827 0.23706 0.0
C4 C 0.05402 0.12701 0.30506 0.0
C5 C 0.18924 0.2453 0.24452 0.0
O6 O 0.18092 0.28381 0.28474 0.0
O7 O 0.06676 0.20643 0.14262 0.0
O8 O -0.00261 0.19289 0.12385 0.0
O9 O 0.07316 0.27407 0.34654 0.0
O10 O 0.01897 0.24922 0.27695 0.0
C11 C 0.03067 0.22111 0.11453 0.0
C12 C 0.03097 0.26795 0.33528 0.0
O13 O 0.15737 0.21923 0.22187 0.0
Mg14 Mg -0.02921 0.82217 0.50177 0.0
O15 O 0.91412 0.82315 0.58079 0.0
O16 O 0.94278 0.86543 0.66962 0.0
Mg17 Mg 0.01316 0.89295 0.65032 0.0
C18 C 0.91102 0.84137 0.64123 0.0
C19 C 0.89436 0.77537 0.37534 0.0
O20 O 0.88049 0.80628 0.32723 0.0
O21 O -0.04126 0.90379 0.47343 0.0
O22 O -0.01091 0.94423 0.56316 0.0
O23 O -0.00341 0.75385 0.55042 0.0
O24 O 0.02149 0.82907 0.57924 0.0
C25 C -0.02975 0.94416 0.50426 0.0
C26 C 0.02142 0.78123 0.5898 0.0
O27 O 0.92158 0.7915 0.42064 0.0
Mg28 Mg 0.32902 0.70369 0.74598 0.0
O29 O 0.3344 0.7755 0.81173 0.0
O30 O 0.38509 0.81611 0.75295 0.0
Mg31 Mg 0.43868 0.75769 0.73725 0.0
C32 C 0.35986 0.81324 0.80505 0.0
C33 C 0.22476 0.69494 0.74443 0.0
O34 O 0.23309 0.65629 0.78436 0.0
O35 O 0.34728 0.73385 0.64271 0.0
O36 O 0.41668 0.74727 0.62397 0.0
O37 O 0.34082 0.66618 0.84652 0.0
O38 O 0.39503 0.69101 0.77698 0.0
C39 C 0.38335 0.71913 0.6146 0.0
C40 C 0.38301 0.67229 0.83529 0.0
O41 O 0.25662 0.72109 0.72196 0.0
Mg42 Mg 0.44311 0.11815 0.00195 0.0
O43 O 0.49973 0.11709 0.08101 0.0
O44 O 0.47109 0.07478 0.16978 0.0
Mg45 Mg 0.40076 0.04719 0.15026 0.0
C46 C 0.50285 0.09886 0.14143 0.0
C47 C 0.51952 0.16505 0.87577 0.0
O48 O 0.53284 0.13383 0.82766 0.0
O49 O 0.45528 0.03658 0.97327 0.0
O50 O 0.42494 -0.00389 0.06295 0.0
O51 O 0.41728 0.18636 0.05082 0.0
O52 O 0.39234 0.11108 0.07929 0.0
C53 C 0.44379 -0.0038 0.00407 0.0
C54 C 0.39242 0.15891 0.09002 0.0
O55 O 0.49227 0.14952 0.92138 0.0
Mg56 Mg 0.08505 0.70362 0.24118 0.0
O57 O 0.07948 0.7755 0.1756 0.0
O58 O 0.0285 0.81614 0.23391 0.0
Mg59 Mg -0.02472 0.75742 0.25012 0.0
C60 C 0.05396 0.81323 0.18206 0.0
C61 C 0.18931 0.69493 0.24265 0.0
O62 O 0.18101 0.65625 0.20275 0.0
O63 O 0.06704 0.73357 0.34467 0.0
O64 O -0.00229 0.74764 0.36322 0.0
O65 O 0.07324 0.66623 0.14054 0.0
O66 O 0.01906 0.69087 0.21033 0.0
C67 C 0.03086 0.71922 0.37273 0.0
C68 C 0.03105 0.67224 0.15192 0.0
O69 O 0.15744 0.7211 0.26506 0.0
Mg70 Mg 0.44313 0.82215 0.48549 0.0
O71 O 0.49974 0.82318 0.40641 0.0
O72 O 0.47104 0.86546 0.31762 0.0
Mg73 Mg 0.40068 0.89303 0.33707 0.0
C74 C 0.50282 0.8414 0.34599 0.0
C75 C 0.51963 0.77532 0.61178 0.0
O76 O 0.53327 0.80633 0.65993 0.0
O77 O 0.45522 0.90373 0.51398 0.0
O78 O 0.42486 0.94419 0.42427 0.0
O79 O 0.4173 0.75388 0.4367 0.0
O80 O 0.39239 0.82916 0.40809 0.0
C81 C 0.44373 0.94411 0.48316 0.0
C82 C 0.39246 0.78133 0.39742 0.0
O83 O 0.49237 0.79122 0.56639 0.0
Mg84 Mg 0.32893 0.23668 0.74102 0.0
O85 O 0.33447 0.16481 0.67542 0.0
O86 O 0.38521 0.1241 0.73404 0.0
Mg87 Mg 0.43858 0.18266 0.75006 0.0
C88 C 0.3599 0.12702 0.68204 0.0
C89 C 0.22468 0.24544 0.74268 0.0
O90 O 0.23299 0.28435 0.70325 0.0
O91 O 0.34688 0.20683 0.84458 0.0
O92 O 0.41622 0.19262 0.86314 0.0
O93 O 0.3408 0.27398 0.64041 0.0
O94 O 0.39496 0.24942 0.71031 0.0
C95 C 0.3831 0.22109 0.87266 0.0
C96 C 0.38299 0.26801 0.65187 0.0
O97 O 0.25655 0.21909 0.76473 0.0
Mg98 Mg -0.0292 0.11811 0.98553 0.0
O99 O 0.91417 0.1171 0.90642 0.0
O100 O 0.94286 0.07481 0.81762 0.0
Mg101 Mg 0.01322 0.04725 0.83705 0.0
C102 C 0.91108 0.09887 0.84598 0.0
C103 C 0.89435 0.16496 0.11193 0.0
O104 O 0.88056 0.13405 0.16008 0.0
O105 O -0.04125 0.03651 0.01392 0.0
O106 O -0.01092 -0.00397 0.92421 0.0
O107 O -0.00337 0.1864 0.93681 0.0
O108 O 0.02152 0.11114 0.9081 0.0
C109 C -0.02977 -0.00387 0.98309 0.0
C110 C 0.02147 0.15897 0.89748 0.0
O111 O 0.92158 0.14887 0.06661 0.0
Mg112 Mg 0.83277 0.76195 0.75899 0.0
O113 O 0.86539 0.70051 0.68912 0.0
O114 O 0.82776 0.70447 0.58966 0.0
Mg115 Mg 0.79647 0.78226 0.58175 0.0
C116 C 0.85716 0.68441 0.62821 0.0
C117 C 0.86912 0.69815 0.90031 0.0
O118 O 0.86452 0.69386 0.96712 0.0
O119 O 0.76493 0.72635 0.75203 0.0
O120 O 0.73963 0.76303 0.65638 0.0
O121 O 0.89109 0.8093 0.74897 0.0
O122 O 0.8387 0.80565 0.66914 0.0
C123 C 0.73315 0.7407 0.71361 0.0
C124 C 0.87758 0.82127 0.68805 0.0
O125 O 0.84336 0.72812 0.86801 0.0
Mg126 Mg -0.03875 0.11498 0.48122 0.0
O127 O 0.02568 0.12947 0.41702 0.0
O128 O 0.02091 0.05851 0.35966 0.0
Mg129 Mg 0.95028 0.04767 0.31874 0.0
C130 C 0.03904 0.10118 0.36781 0.0
C131 C 0.01088 0.16832 0.62237 0.0
O132 O 0.007 0.17153 0.68928 0.0
O133 O -0.02177 0.03231 0.49905 0.0
O134 O 0.94722 -0.00772 0.40884 0.0
O135 O 0.92643 0.18297 0.43783 0.0
O136 O 0.92866 0.1092 0.38712 0.0
C137 C -0.03585 -0.00763 0.4693 0.0
C138 C 0.91537 0.15507 0.38622 0.0
O139 O -0.01563 0.13927 0.59011 0.0
Mg140 Mg 0.58115 0.17831 0.25909 0.0
O141 O 0.5486 0.23976 0.18918 0.0
O142 O 0.58616 0.23567 0.0897 0.0
Mg143 Mg 0.61739 0.15784 0.08187 0.0
C144 C 0.55683 0.25582 0.12827 0.0
C145 C 0.54482 0.24217 0.40032 0.0
O146 O 0.5494 0.24649 0.46713 0.0
O147 O 0.64901 0.21383 0.25209 0.0
O148 O 0.67429 0.1772 0.15639 0.0
O149 O 0.5228 0.13101 0.24913 0.0
O150 O 0.57517 0.13455 0.16931 0.0
C151 C 0.68077 0.19954 0.21363 0.0
C152 C 0.5363 0.11897 0.18824 0.0
O153 O 0.57061 0.21221 0.36806 0.0
Mg154 Mg 0.45276 0.82533 0.98119 0.0
O155 O 0.38834 0.81083 0.91696 0.0
O156 O 0.39312 0.88174 0.8595 0.0
Mg157 Mg 0.46376 0.89254 0.81866 0.0
C158 C 0.37498 0.83909 0.86773 0.0
C159 C 0.40311 0.77202 0.12234 0.0
O160 O 0.40698 0.76887 0.18926 0.0
O161 O 0.43584 0.90805 -0.00109 0.0
O162 O 0.46682 0.94803 0.90868 0.0
O163 O 0.48753 0.7573 0.93782 0.0
O164 O 0.48534 0.83106 0.88711 0.0
C165 C 0.4499 0.94797 0.96913 0.0
C166 C 0.49858 0.78518 0.8862 0.0
O167 O 0.4296 0.80108 0.09008 0.0
Mg168 Mg 0.83282 0.17837 0.72828 0.0
O169 O 0.86549 0.23972 0.79828 0.0
O170 O 0.82787 0.23566 0.89772 0.0
Mg171 Mg 0.79656 0.1579 0.90548 0.0
C172 C 0.85728 0.25573 0.85924 0.0
C173 C 0.86914 0.2422 0.58699 0.0
O174 O 0.86452 0.24649 0.52018 0.0
O175 O 0.76497 0.21401 0.73531 0.0
O176 O 0.73971 0.1772 0.83085 0.0
O177 O 0.89114 0.13096 0.73824 0.0
O178 O 0.83876 0.13459 0.81804 0.0
C179 C 0.73321 0.19959 0.77367 0.0
C180 C 0.87764 0.11897 0.79914 0.0
O181 O 0.84339 0.21224 0.61929 0.0
Mg182 Mg 0.45278 0.11493 0.50606 0.0
O183 O 0.38832 0.12945 0.57016 0.0
O184 O 0.39309 0.05851 0.62754 0.0
Mg185 Mg 0.4637 0.04771 0.66859 0.0
C186 C 0.37494 0.10117 0.61934 0.0
C187 C 0.40313 0.16828 0.36495 0.0
O188 O 0.407 0.17148 0.29803 0.0
O189 O 0.43582 0.03226 0.48829 0.0
O190 O 0.4668 -0.00775 0.57854 0.0
O191 O 0.48754 0.18293 0.54946 0.0
O192 O 0.48533 0.10919 0.6002 0.0
C193 C 0.44987 -0.00768 0.51809 0.0
C194 C 0.49858 0.15506 0.6011 0.0
O195 O 0.42964 0.13921 0.39717 0.0
Mg196 Mg 0.58109 0.76192 0.22833 0.0
O197 O 0.54848 0.70054 0.29833 0.0
O198 O 0.58608 0.70467 0.39781 0.0
Mg199 Mg 0.6174 0.78243 0.40553 0.0
C200 C 0.5567 0.68455 0.35931 0.0
C201 C 0.54479 0.69808 0.08702 0.0
O202 O 0.5494 0.69377 0.02021 0.0
O203 O 0.64896 0.72637 0.23532 0.0
O204 O 0.67428 0.76303 0.33098 0.0
O205 O 0.52275 0.80928 0.23827 0.0
O206 O 0.57515 0.8057 0.31809 0.0
C207 C 0.68074 0.74068 0.27375 0.0
C208 C 0.53627 0.8213 0.29917 0.0
O209 O 0.57055 0.72805 0.11932 0.0
Mg210 Mg -0.0388 0.82529 0.00604 0.0
O211 O 0.0257 0.8108 0.0701 0.0
O212 O 0.02092 0.88176 0.12741 0.0
Mg213 Mg 0.95035 0.89258 0.16855 0.0
C214 C 0.03907 0.83909 0.11929 0.0
C215 C 0.01085 0.77194 0.86491 0.0
O216 O 0.00698 0.76874 0.79799 0.0
O217 O -0.02187 0.90796 0.98823 0.0
O218 O 0.94721 0.94802 0.0785 0.0
O219 O 0.92647 0.7573 0.04951 0.0
O220 O 0.92864 0.83109 0.10016 0.0
C221 C -0.0359 0.94792 0.01803 0.0
C222 C 0.9154 0.78522 0.1011 0.0
O223 O -0.01567 0.80099 0.89715 0.0
Mg224 Mg 0.58507 0.73664 0.74614 0.0
O225 O 0.57918 0.66467 0.81138 0.0
O226 O 0.52784 0.6241 0.75362 0.0
Mg227 Mg 0.47515 0.68333 0.73637 0.0
C228 C 0.55357 0.62701 0.80515 0.0
C229 C 0.68926 0.74545 0.74469 0.0
O230 O 0.68081 0.7845 0.78384 0.0
O231 O 0.56743 0.707 0.6423 0.0
O232 O 0.49817 0.69253 0.62353 0.0
O233 O 0.57321 0.77372 0.8469 0.0
O234 O 0.51906 0.74958 0.77668 0.0
C235 C 0.53118 0.72115 0.61425 0.0
C236 C 0.53102 0.76794 0.83528 0.0
O237 O 0.65748 0.71891 0.72279 0.0
Mg238 Mg 0.47085 0.32214 0.00188 0.0
O239 O 0.41421 0.32317 0.08093 0.0
O240 O 0.44288 0.36544 0.16975 0.0
Mg241 Mg 0.51322 0.39302 0.15031 0.0
C242 C 0.41111 0.34138 0.14137 0.0
C243 C 0.39448 0.27527 0.8755 0.0
O244 O 0.38096 0.30634 0.82734 0.0
O245 O 0.45872 0.40371 0.97336 0.0
O246 O 0.48905 0.44418 0.06309 0.0
O247 O 0.49663 0.25388 0.05061 0.0
O248 O 0.52159 0.32912 0.07929 0.0
C249 C 0.4702 0.44409 0.00419 0.0
C250 C 0.52149 0.28128 0.0899 0.0
O251 O 0.4217 0.29107 0.921 0.0
Mg252 Mg 0.82893 0.20364 0.246 0.0
O253 O 0.83462 0.27559 0.31143 0.0
O254 O 0.88587 0.31615 0.25355 0.0
Mg255 Mg 0.93882 0.25714 0.23677 0.0
C256 C 0.86022 0.31325 0.30517 0.0
C257 C 0.7247 0.19492 0.24466 0.0
O258 O 0.73307 0.15626 0.28454 0.0
O259 O 0.84679 0.23349 0.1424 0.0
O260 O 0.91611 0.24764 0.12376 0.0
O261 O 0.84075 0.16637 0.34669 0.0
O262 O 0.89492 0.19083 0.27681 0.0
C263 C 0.883 0.21918 0.11438 0.0
C264 C 0.88294 0.17229 0.33526 0.0
O265 O 0.75652 0.22115 0.22224 0.0
Mg266 Mg 0.94319 0.61813 0.50179 0.0
O267 O -0.00017 0.61709 0.58087 0.0
O268 O -0.02884 0.57483 0.66966 0.0
Mg269 Mg 0.90079 0.54729 0.65024 0.0
C270 C 0.00293 0.59887 0.6413 0.0
C271 C 0.01957 0.66501 0.3754 0.0
O272 O 0.03325 0.63402 0.32723 0.0
O273 O 0.95527 0.53654 0.47332 0.0
O274 O 0.92494 0.4961 0.56304 0.0
O275 O 0.91737 0.68642 0.55055 0.0
O276 O 0.89247 0.61116 0.57921 0.0
C277 C 0.94378 0.49617 0.50415 0.0
C278 C 0.89253 0.659 0.58983 0.0
O279 O -0.00765 0.64904 0.4208 0.0
Mg280 Mg 0.58512 0.20354 0.74111 0.0
O281 O 0.5791 0.27554 0.67597 0.0
O282 O 0.52763 0.31619 0.73343 0.0
Mg283 Mg 0.47516 0.25682 0.75094 0.0
C284 C 0.55348 0.31322 0.68206 0.0
C285 C 0.68933 0.1948 0.74253 0.0
O286 O 0.68091 0.15567 0.70353 0.0
O287 O 0.56764 0.23301 0.8451 0.0
O288 O 0.49842 0.24794 0.86366 0.0
O289 O 0.57322 0.16657 0.64031 0.0
O290 O 0.51909 0.19056 0.71067 0.0
C291 C 0.5313 0.21913 0.87307 0.0
C292 C 0.53104 0.17228 0.65202 0.0
O293 O 0.65753 0.22137 0.76434 0.0
Mg294 Mg 0.94321 0.32217 0.98573 0.0
O295 O -0.00015 0.32312 0.90663 0.0
O296 O -0.02888 0.36533 0.81779 0.0
Mg297 Mg 0.90072 0.39283 0.83705 0.0
C298 C 0.00291 0.34131 0.84617 0.0
C299 C 0.01967 0.27542 0.11232 0.0
O300 O 0.03388 0.30612 0.16046 0.0
O301 O 0.95515 0.40382 0.01385 0.0
O302 O 0.9248 0.44422 0.9241 0.0
O303 O 0.91741 0.25377 0.93715 0.0
O304 O 0.89255 0.329 0.90819 0.0
C305 C 0.94366 0.44417 0.98299 0.0
C306 C 0.8926 0.28115 0.89771 0.0
O307 O -0.00754 0.29194 0.06723 0.0
Mg308 Mg 0.82895 0.7367 0.24131 0.0
O309 O 0.83459 0.66476 0.17586 0.0
O310 O 0.88576 0.62417 0.23392 0.0
Mg311 Mg 0.93883 0.68305 0.2505 0.0
C312 C 0.86018 0.62707 0.1822 0.0
C313 C 0.72465 0.74532 0.24265 0.0
O314 O 0.7329 0.78389 0.20254 0.0
O315 O 0.84688 0.70681 0.34486 0.0
O316 O 0.91623 0.69272 0.36352 0.0
O317 O 0.84079 0.77399 0.14064 0.0
O318 O 0.89495 0.74943 0.21049 0.0
C319 C 0.88307 0.72115 0.37289 0.0
C320 C 0.88298 0.76801 0.15205 0.0
O321 O 0.75655 0.71925 0.2652 0.0
Mg322 Mg 0.4708 0.61808 0.48573 0.0
O323 O 0.41416 0.61711 0.4066 0.0
O324 O 0.44291 0.57491 0.31775 0.0
Mg325 Mg 0.5133 0.5474 0.33709 0.0
C326 C 0.41112 0.59893 0.34612 0.0
C327 C 0.39429 0.6648 0.61226 0.0
O328 O 0.38002 0.63407 0.66029 0.0
O329 O 0.45884 0.53645 0.51384 0.0
O330 O 0.48918 0.49603 0.42409 0.0
O331 O 0.49657 0.68648 0.43719 0.0
O332 O 0.52147 0.61126 0.40823 0.0
C333 C 0.47032 0.49609 0.48297 0.0
C334 C 0.52139 0.65911 0.39775 0.0
O335 O 0.42151 0.6483 0.56718 0.0
Mg336 Mg 0.33284 0.26198 0.25911 0.0
O337 O 0.36535 0.20047 0.18925 0.0
O338 O 0.32773 0.20445 0.08977 0.0
Mg339 Mg 0.29657 0.28231 0.08184 0.0
C340 C 0.35705 0.18432 0.12839 0.0
C341 C 0.36918 0.19811 0.40037 0.0
O342 O 0.36458 0.1938 0.46718 0.0
O343 O 0.26494 0.22655 0.25214 0.0
O344 O 0.23965 0.26297 0.15628 0.0
O345 O 0.39121 0.30924 0.24908 0.0
O346 O 0.3388 0.30567 0.16929 0.0
C347 C 0.23318 0.24068 0.21355 0.0
C348 C 0.37768 0.32125 0.18819 0.0
O349 O 0.34342 0.22809 0.36809 0.0
Mg350 Mg 0.46125 0.61492 0.98129 0.0
O351 O 0.52578 0.62934 0.9173 0.0
O352 O 0.5209 0.5584 0.86003 0.0
Mg353 Mg 0.45036 0.54766 0.81873 0.0
C354 C 0.53905 0.60106 0.86803 0.0
C355 C 0.51085 0.66827 0.12243 0.0
O356 O 0.50699 0.67147 0.18935 0.0
O357 O 0.47815 0.53224 -0.00095 0.0
O358 O 0.44718 0.49223 0.90878 0.0
O359 O 0.42651 0.68294 0.93786 0.0
O360 O 0.42867 0.60916 0.88715 0.0
C361 C 0.46409 0.4923 0.96925 0.0
C362 C 0.41541 0.65503 0.88627 0.0
O363 O 0.48436 0.63919 0.09019 0.0
Mg364 Mg 0.08119 0.67832 0.75902 0.0
O365 O 0.04858 0.73977 0.6891 0.0
O366 O 0.08606 0.73559 0.58951 0.0
Mg367 Mg 0.11742 0.65784 0.58174 0.0
C368 C 0.05679 0.75579 0.62815 0.0
C369 C 0.04484 0.74216 0.90032 0.0
O370 O 0.04945 0.74646 0.96713 0.0
O371 O 0.14907 0.71381 0.75203 0.0
O372 O 0.17432 0.67729 0.65621 0.0
O373 O 0.02286 0.631 0.74902 0.0
O374 O 0.07525 0.63455 0.66923 0.0
C375 C 0.18081 0.69962 0.71345 0.0
C376 C 0.03637 0.61897 0.68813 0.0
O377 O 0.07062 0.71221 0.86802 0.0
Mg378 Mg 0.95271 0.32532 0.48127 0.0
O379 O 0.88818 0.31087 0.41727 0.0
O380 O 0.89303 0.38182 0.36006 0.0
Mg381 Mg -0.03645 0.39253 0.31871 0.0
C382 C 0.87487 0.33916 0.36805 0.0
C383 C 0.90309 0.27202 0.6224 0.0
O384 O 0.90695 0.26886 0.68933 0.0
O385 O 0.93583 0.40802 0.49902 0.0
O386 O -0.03323 0.448 0.40874 0.0
O387 O -0.01253 0.2573 0.43782 0.0
O388 O -0.01471 0.33107 0.38714 0.0
C389 C 0.94988 0.44794 0.46921 0.0
C390 C -0.00144 0.2852 0.38625 0.0
O391 O 0.92959 0.30108 0.59016 0.0
Mg392 Mg 0.33286 0.67832 0.22825 0.0
O393 O 0.36543 0.73978 0.29813 0.0
O394 O 0.32772 0.73591 0.39752 0.0
Mg395 Mg 0.29659 0.65806 0.40552 0.0
C396 C 0.3571 0.75596 0.35897 0.0
C397 C 0.36917 0.74217 0.08694 0.0
O398 O 0.36455 0.74646 0.02013 0.0
O399 O 0.26498 0.71384 0.23521 0.0
O400 O 0.2397 0.67731 0.33096 0.0
O401 O 0.39121 0.631 0.23835 0.0
O402 O 0.3388 0.63465 0.31811 0.0
C403 C 0.23322 0.69962 0.27371 0.0
C404 C 0.37769 0.61904 0.29925 0.0
O405 O 0.34345 0.71219 0.11924 0.0
Mg406 Mg 0.9527 0.61496 0.00601 0.0
O407 O 0.88823 0.62946 0.07015 0.0
O408 O 0.89307 0.55851 0.12741 0.0
Mg409 Mg -0.03634 0.54768 0.16849 0.0
C410 C 0.87492 0.60118 0.11937 0.0
C411 C 0.90307 0.66832 0.8649 0.0
O412 O 0.90695 0.67152 0.79799 0.0
O413 O 0.93571 0.53232 0.98818 0.0
O414 O -0.03326 0.49229 0.07837 0.0
O415 O -0.01247 0.68293 0.04939 0.0
O416 O -0.0147 0.60917 0.10011 0.0
C417 C 0.94978 0.49238 0.01793 0.0
C418 C -0.00138 0.65501 0.10096 0.0
O419 O 0.92957 0.63925 0.89714 0.0
Mg420 Mg 0.08117 0.26189 0.72834 0.0
O421 O 0.04859 0.20044 0.7982 0.0
O422 O 0.08617 0.20447 0.89773 0.0
Mg423 Mg 0.11745 0.28225 0.90562 0.0
C424 C 0.05684 0.18436 0.85911 0.0
C425 C 0.04485 0.1981 0.58698 0.0
O426 O 0.04946 0.1938 0.52017 0.0
O427 O 0.14904 0.22632 0.73529 0.0
O428 O 0.17431 0.26296 0.83101 0.0
O429 O 0.02283 0.30923 0.7384 0.0
O430 O 0.07524 0.3056 0.8182 0.0
C431 C 0.18079 0.24062 0.77378 0.0
C432 C 0.03635 0.3212 0.79932 0.0
O433 O 0.07061 0.22806 0.6193 0.0
Mg434 Mg 0.46126 0.32531 0.50593 0.0
O435 O 0.52583 0.31089 0.56986 0.0
O436 O 0.52094 0.38186 0.62702 0.0
Mg437 Mg 0.45044 0.39262 0.66846 0.0
C438 C 0.5391 0.33918 0.61911 0.0
C439 C 0.51083 0.27192 0.36487 0.0
O440 O 0.50695 0.26866 0.29796 0.0
O441 O 0.47821 0.40794 0.4881 0.0
O442 O 0.44724 0.44799 0.57834 0.0
O443 O 0.42651 0.25733 0.54937 0.0
O444 O 0.42872 0.3311 0.60011 0.0
C445 C 0.46416 0.44789 0.51788 0.0
C446 C 0.41543 0.28524 0.60096 0.0
O447 O 0.48431 0.301 0.39706 0.0
loop_
_geom_bond_atom_site_label_1
_geom_bond_atom_site_label_2
_geom_bond_distance
_geom_bond_site_symmetry_2
_ccdc_geom_bond_type
Mg0 O1 2.028 . S
Mg0 O7 1.986 . S
Mg0 O9 2.114 . S
Mg0 O10 2.251 . S
Mg0 O13 2.010 . S
O1 Mg0 2.028 . S
O1 C4 1.250 . S
O2 Mg3 2.041 . S
O2 C4 1.248 . S
Mg3 O2 2.041 . S
Mg3 O8 2.041 . S
Mg3 O10 2.096 . S
C4 O1 1.250 . S
C4 O2 1.248 . S
C5 O6 1.264 . S
C5 O13 1.249 . S
O6 C5 1.264 . S
O7 Mg0 1.986 . S
O7 C11 1.246 . S
O8 Mg3 2.041 . S
O8 C11 1.259 . S
O9 Mg0 2.114 . S
O9 C12 1.252 . S
O10 Mg0 2.251 . S
O10 Mg3 2.096 . S
O10 C12 1.273 . S
C11 O7 1.246 . S
C11 O8 1.259 . S
C12 O9 1.252 . S
C12 O10 1.273 . S
O13 Mg0 2.010 . S
O13 C5 1.249 . S
Mg14 O15 2.028 1_455 S
Mg14 O21 1.986 . S
Mg14 O23 2.114 . S
Mg14 O24 2.251 . S
Mg14 O27 2.010 1_455 S
O15 Mg14 2.028 1_655 S
O15 C18 1.250 . S
O16 Mg17 2.028 1_655 S
O16 C18 1.248 . S
Mg17 O16 2.028 1_455 S
Mg17 O22 2.032 . S
Mg17 O24 2.079 . S
C18 O15 1.250 . S
C18 O16 1.248 . S
C19 O20 1.264 1_655 S
C19 O27 1.249 . S
O20 C19 1.264 1_455 S
O21 Mg14 1.986 . S
O21 C25 1.246 . S
O22 Mg17 2.032 . S
O22 C25 1.259 . S
O23 Mg14 2.114 . S
O23 C26 1.252 . S
O24 Mg14 2.251 . S
O24 Mg17 2.079 . S
O24 C26 1.273 . S
C25 O21 1.246 . S
C25 O22 1.259 . S
C26 O23 1.252 . S
C26 O24 1.273 . S
O27 Mg14 2.010 1_655 S
O27 C19 1.249 . S
Mg28 O29 2.028 . S
Mg28 O35 1.986 . S
Mg28 O37 2.114 . S
Mg28 O38 2.251 . S
Mg28 O41 2.010 . S
O29 Mg28 2.028 . S
O29 C32 1.250 . S
O30 Mg31 2.028 . S
O30 C32 1.248 . S
Mg31 O30 2.028 . S
Mg31 O36 2.032 . S
Mg31 O38 2.079 . S
C32 O29 1.250 . S
C32 O30 1.248 . S
C33 O34 1.264 . S
C33 O41 1.249 . S
O34 C33 1.264 . S
O35 Mg28 1.986 . S
O35 C39 1.246 . S
O36 Mg31 2.032 . S
O36 C39 1.259 . S
O37 Mg28 2.114 . S
O37 C40 1.252 . S
O38 Mg28 2.251 . S
O38 Mg31 2.079 . S
O38 C40 1.273 . S
C39 O35 1.246 . S
C39 O36 1.259 . S
C40 O37 1.252 . S
C40 O38 1.273 . S
O41 Mg28 2.010 . S
O41 C33 1.249 . S
Mg42 O43 2.028 . S
Mg42 O49 1.984 1_554 S
Mg42 O51 2.114 . S
Mg42 O52 2.251 . S
Mg42 O55 2.010 1_554 S
O43 Mg42 2.028 . S
O43 C46 1.250 . S
O44 Mg45 2.028 . S
O44 C46 1.248 . S
Mg45 O44 2.028 . S
Mg45 O50 2.032 . S
Mg45 O52 2.079 . S
C46 O43 1.250 . S
C46 O44 1.248 . S
C47 O48 1.264 . S
C47 O55 1.249 . S
O48 C47 1.264 . S
O49 Mg42 1.984 1_556 S
O49 C53 1.236 1_556 S
O50 Mg45 2.032 . S
O50 C53 1.259 . S
O51 Mg42 2.114 . S
O51 C54 1.252 . S
O52 Mg42 2.251 . S
O52 Mg45 2.079 . S
O52 C54 1.273 . S
C53 O49 1.236 1_554 S
C53 O50 1.259 . S
C54 O51 1.252 . S
C54 O52 1.273 . S
O55 Mg42 2.010 1_556 S
O55 C47 1.249 . S
Mg56 O57 2.028 . S
Mg56 O63 1.986 . S
Mg56 O65 2.114 . S
Mg56 O66 2.251 . S
Mg56 O69 2.010 . S
O57 Mg56 2.028 . S
O57 C60 1.250 . S
O58 Mg59 2.041 . S
O58 C60 1.248 . S
Mg59 O58 2.041 . S
Mg59 O64 2.041 . S
Mg59 O66 2.096 . S
C60 O57 1.250 . S
C60 O58 1.248 . S
C61 O62 1.264 . S
C61 O69 1.249 . S
O62 C61 1.264 . S
O63 Mg56 1.986 . S
O63 C67 1.246 . S
O64 Mg59 2.041 . S
O64 C67 1.259 . S
O65 Mg56 2.114 . S
O65 C68 1.252 . S
O66 Mg56 2.251 . S
O66 Mg59 2.096 . S
O66 C68 1.273 . S
C67 O63 1.246 . S
C67 O64 1.259 . S
C68 O65 1.252 . S
C68 O66 1.273 . S
O69 Mg56 2.010 . S
O69 C61 1.249 . S
Mg70 O71 2.028 . S
Mg70 O77 1.986 . S
Mg70 O79 2.114 . S
Mg70 O80 2.251 . S
Mg70 O83 2.010 . S
O71 Mg70 2.028 . S
O71 C74 1.250 . S
O72 Mg73 2.028 . S
O72 C74 1.248 . S
Mg73 O72 2.028 . S
Mg73 O78 2.032 . S
Mg73 O80 2.079 . S
C74 O71 1.250 . S
C74 O72 1.248 . S
C75 O76 1.264 . S
C75 O83 1.249 . S
O76 C75 1.264 . S
O77 Mg70 1.986 . S
O77 C81 1.246 . S
O78 Mg73 2.032 . S
O78 C81 1.259 . S
O79 Mg70 2.114 . S
O79 C82 1.252 . S
O80 Mg70 2.251 . S
O80 Mg73 2.079 . S
O80 C82 1.273 . S
C81 O77 1.246 . S
C81 O78 1.259 . S
C82 O79 1.252 . S
C82 O80 1.273 . S
O83 Mg70 2.010 . S
O83 C75 1.249 . S
Mg84 O85 2.028 . S
Mg84 O91 1.986 . S
Mg84 O93 2.114 . S
Mg84 O94 2.251 . S
Mg84 O97 2.010 . S
O85 Mg84 2.028 . S
O85 C88 1.250 . S
O86 Mg87 2.028 . S
O86 C88 1.248 . S
Mg87 O86 2.028 . S
Mg87 O92 2.032 . S
Mg87 O94 2.079 . S
C88 O85 1.250 . S
C88 O86 1.248 . S
C89 O90 1.264 . S
C89 O97 1.249 . S
O90 C89 1.264 . S
O91 Mg84 1.986 . S
O91 C95 1.246 . S
O92 Mg87 2.032 . S
O92 C95 1.259 . S
O93 Mg84 2.114 . S
O93 C96 1.252 . S
O94 Mg84 2.251 . S
O94 Mg87 2.079 . S
O94 C96 1.273 . S
C95 O91 1.246 . S
C95 O92 1.259 . S
C96 O93 1.252 . S
C96 O94 1.273 . S
O97 Mg84 2.010 . S
O97 C89 1.249 . S
Mg98 O99 2.028 1_455 S
Mg98 O105 1.986 1_556 S
Mg98 O107 2.114 . S
Mg98 O108 2.251 . S
Mg98 O111 2.010 1_456 S
O99 Mg98 2.028 1_655 S
O99 C102 1.250 . S
O100 Mg101 2.028 1_655 S
O100 C102 1.248 . S
Mg101 O100 2.028 1_455 S
Mg101 O106 2.032 . S
Mg101 O108 2.079 . S
C102 O99 1.250 . S
C102 O100 1.248 . S
C103 O104 1.264 1_655 S
C103 O111 1.249 . S
O104 C103 1.264 1_455 S
O105 Mg98 1.986 1_554 S
O105 C109 1.246 1_554 S
O106 Mg101 2.032 . S
O106 C109 1.259 . S
O107 Mg98 2.114 . S
O107 C110 1.252 . S
O108 Mg98 2.251 . S
O108 Mg101 2.079 . S
O108 C110 1.273 . S
C109 O105 1.246 1_556 S
C109 O106 1.259 . S
C110 O107 1.252 . S
C110 O108 1.273 . S
O111 Mg98 2.010 1_654 S
O111 C103 1.249 . S
Mg112 O113 2.028 . S
Mg112 O119 1.986 . S
Mg112 O121 2.114 . S
Mg112 O122 2.251 . S
Mg112 O125 2.010 . S
O113 Mg112 2.028 . S
O113 C116 1.250 . S
O114 Mg115 2.028 . S
O114 C116 1.248 . S
Mg115 O114 2.028 . S
Mg115 O120 2.032 . S
Mg115 O122 2.079 . S
C116 O113 1.250 . S
C116 O114 1.248 . S
C117 O118 1.264 . S
C117 O125 1.249 . S
O118 C117 1.264 . S
O119 Mg112 1.986 . S
O119 C123 1.246 . S
O120 Mg115 2.032 . S
O120 C123 1.259 . S
O121 Mg112 2.114 . S
O121 C124 1.252 . S
O122 Mg112 2.251 . S
O122 Mg115 2.079 . S
O122 C124 1.273 . S
C123 O119 1.246 . S
C123 O120 1.259 . S
C124 O121 1.252 . S
C124 O122 1.273 . S
O125 Mg112 2.010 . S
O125 C117 1.249 . S
Mg126 O127 2.028 . S
Mg126 O133 1.986 . S
Mg126 O135 2.114 1_455 S
Mg126 O136 2.251 1_455 S
Mg126 O139 2.010 . S
O127 Mg126 2.028 . S
O127 C130 1.250 . S
O128 Mg129 2.028 1_455 S
O128 C130 1.248 . S
Mg129 O128 2.028 1_655 S
Mg129 O134 2.032 1_655 S
Mg129 O136 2.079 . S
C130 O127 1.250 . S
C130 O128 1.248 . S
C131 O132 1.264 . S
C131 O139 1.249 . S
O132 C131 1.264 . S
O133 Mg126 1.986 . S
O133 C137 1.246 . S
O134 Mg129 2.032 1_455 S
O134 C137 1.259 . S
O135 Mg126 2.114 1_655 S
O135 C138 1.252 . S
O136 Mg126 2.251 1_655 S
O136 Mg129 2.079 . S
O136 C138 1.273 . S
C137 O133 1.246 . S
C137 O134 1.259 . S
C138 O135 1.252 . S
C138 O136 1.273 . S
O139 Mg126 2.010 . S
O139 C131 1.249 . S
Mg140 O141 2.028 . S
Mg140 O147 1.986 . S
Mg140 O149 2.114 . S
Mg140 O150 2.251 . S
Mg140 O153 2.010 . S
O141 Mg140 2.028 . S
O141 C144 1.250 . S
O142 Mg143 2.028 . S
O142 C144 1.248 . S
Mg143 O142 2.028 . S
Mg143 O148 2.032 . S
Mg143 O150 2.079 . S
C144 O141 1.250 . S
C144 O142 1.248 . S
C145 O146 1.264 . S
C145 O153 1.249 . S
O146 C145 1.264 . S
O147 Mg140 1.986 . S
O147 C151 1.246 . S
O148 Mg143 2.032 . S
O148 C151 1.259 . S
O149 Mg140 2.114 . S
O149 C152 1.252 . S
O150 Mg140 2.251 . S
O150 Mg143 2.079 . S
O150 C152 1.273 . S
C151 O147 1.246 . S
C151 O148 1.259 . S
C152 O149 1.252 . S
C152 O150 1.273 . S
O153 Mg140 2.010 . S
O153 C145 1.249 . S
Mg154 O155 2.028 . S
Mg154 O161 1.986 . S
Mg154 O163 2.114 . S
Mg154 O164 2.251 . S
Mg154 O167 2.010 1_556 S
O155 Mg154 2.028 . S
O155 C158 1.250 . S
O156 Mg157 2.028 . S
O156 C158 1.248 . S
Mg157 O156 2.028 . S
Mg157 O162 2.032 . S
Mg157 O164 2.079 . S
C158 O155 1.250 . S
C158 O156 1.248 . S
C159 O160 1.264 . S
C159 O167 1.249 . S
O160 C159 1.264 . S
O161 Mg154 1.986 . S
O161 C165 1.246 . S
O162 Mg157 2.032 . S
O162 C165 1.259 . S
O163 Mg154 2.114 . S
O163 C166 1.252 . S
O164 Mg154 2.251 . S
O164 Mg157 2.079 . S
O164 C166 1.273 . S
C165 O161 1.246 . S
C165 O162 1.259 . S
C166 O163 1.252 . S
C166 O164 1.273 . S
O167 Mg154 2.010 1_554 S
O167 C159 1.249 . S
Mg168 O169 2.028 . S
Mg168 O175 1.986 . S
Mg168 O177 2.114 . S
Mg168 O178 2.251 . S
Mg168 O181 2.010 . S
O169 Mg168 2.028 . S
O169 C172 1.250 . S
O170 Mg171 2.028 . S
O170 C172 1.248 . S
Mg171 O170 2.028 . S
Mg171 O176 2.032 . S
Mg171 O178 2.079 . S
C172 O169 1.250 . S
C172 O170 1.248 . S
C173 O174 1.264 . S
C173 O181 1.249 . S
O174 C173 1.264 . S
O175 Mg168 1.986 . S
O175 C179 1.246 . S
O176 Mg171 2.032 . S
O176 C179 1.259 . S
O177 Mg168 2.114 . S
O177 C180 1.252 . S
O178 Mg168 2.251 . S
O178 Mg171 2.079 . S
O178 C180 1.273 . S
C179 O175 1.246 . S
C179 O176 1.259 . S
C180 O177 1.252 . S
C180 O178 1.273 . S
O181 Mg168 2.010 . S
O181 C173 1.249 . S
Mg182 O183 2.028 . S
Mg182 O189 1.986 . S
Mg182 O191 2.114 . S
Mg182 O192 2.251 . S
Mg182 O195 2.010 . S
O183 Mg182 2.028 . S
O183 C186 1.250 . S
O184 Mg185 2.028 . S
O184 C186 1.248 . S
Mg185 O184 2.028 . S
Mg185 O190 2.032 . S
Mg185 O192 2.079 . S
C186 O183 1.250 . S
C186 O184 1.248 . S
C187 O188 1.264 . S
C187 O195 1.249 . S
O188 C187 1.264 . S
O189 Mg182 1.986 . S
O189 C193 1.246 . S
O190 Mg185 2.032 . S
O190 C193 1.259 . S
O191 Mg182 2.114 . S
O191 C194 1.252 . S
O192 Mg182 2.251 . S
O192 Mg185 2.079 . S
O192 C194 1.273 . S
C193 O189 1.246 . S
C193 O190 1.259 . S
C194 O191 1.252 . S
C194 O192 1.273 . S
O195 Mg182 2.010 . S
O195 C187 1.249 . S
Mg196 O197 2.028 . S
Mg196 O203 1.986 . S
Mg196 O205 2.114 . S
Mg196 O206 2.251 . S
Mg196 O209 2.010 . S
O197 Mg196 2.028 . S
O197 C200 1.250 . S
O198 Mg199 2.028 . S
O198 C200 1.248 . S
Mg199 O198 2.028 . S
Mg199 O204 2.032 . S
Mg199 O206 2.079 . S
C200 O197 1.250 . S
C200 O198 1.248 . S
C201 O202 1.264 . S
C201 O209 1.249 . S
O202 C201 1.264 . S
O203 Mg196 1.986 . S
O203 C207 1.246 . S
O204 Mg199 2.032 . S
O204 C207 1.259 . S
O205 Mg196 2.114 . S
O205 C208 1.252 . S
O206 Mg196 2.251 . S
O206 Mg199 2.079 . S
O206 C208 1.273 . S
C207 O203 1.246 . S
C207 O204 1.259 . S
C208 O205 1.252 . S
C208 O206 1.273 . S
O209 Mg196 2.010 . S
O209 C201 1.249 . S
Mg210 O211 2.028 . S
Mg210 O217 1.986 . S
Mg210 O219 2.114 1_455 S
Mg210 O220 2.251 1_455 S
Mg210 O223 2.010 1_554 S
O211 Mg210 2.028 . S
O211 C214 1.250 . S
O212 Mg213 2.028 1_455 S
O212 C214 1.248 . S
Mg213 O212 2.028 1_655 S
Mg213 O218 2.032 1_655 S
Mg213 O220 2.079 . S
C214 O211 1.250 . S
C214 O212 1.248 . S
C215 O216 1.264 . S
C215 O223 1.249 . S
O216 C215 1.264 . S
O217 Mg210 1.986 . S
O217 C221 1.246 . S
O218 Mg213 2.032 1_455 S
O218 C221 1.259 . S
O219 Mg210 2.114 1_655 S
O219 C222 1.252 . S
O220 Mg210 2.251 1_655 S
O220 Mg213 2.079 . S
O220 C222 1.273 . S
C221 O217 1.246 . S
C221 O218 1.259 . S
C222 O219 1.252 . S
C222 O220 1.273 . S
O223 Mg210 2.010 1_556 S
O223 C215 1.249 . S
Mg224 O225 2.028 . S
Mg224 O231 1.986 . S
Mg224 O233 2.114 . S
Mg224 O234 2.251 . S
Mg224 O237 2.010 . S
O225 Mg224 2.028 . S
O225 C228 1.250 . S
O226 Mg227 2.028 . S
O226 C228 1.248 . S
Mg227 O226 2.028 . S
Mg227 O232 2.032 . S
Mg227 O234 2.079 . S
C228 O225 1.250 . S
C228 O226 1.248 . S
C229 O230 1.264 . S
C229 O237 1.249 . S
O230 C229 1.264 . S
O231 Mg224 1.986 . S
O231 C235 1.246 . S
O232 Mg227 2.032 . S
O232 C235 1.259 . S
O233 Mg224 2.114 . S
O233 C236 1.252 . S
O234 Mg224 2.251 . S
O234 Mg227 2.079 . S
O234 C236 1.273 . S
C235 O231 1.246 . S
C235 O232 1.259 . S
C236 O233 1.252 . S
C236 O234 1.273 . S
O237 Mg224 2.010 . S
O237 C229 1.249 . S
Mg238 O239 2.028 . S
Mg238 O245 1.984 1_554 S
Mg238 O247 2.114 . S
Mg238 O248 2.251 . S
Mg238 O251 2.010 1_554 S
O239 Mg238 2.028 . S
O239 C242 1.250 . S
O240 Mg241 2.028 . S
O240 C242 1.248 . S
Mg241 O240 2.028 . S
Mg241 O246 2.032 . S
Mg241 O248 2.079 . S
C242 O239 1.250 . S
C242 O240 1.248 . S
C243 O244 1.264 . S
C243 O251 1.249 . S
O244 C243 1.264 . S
O245 Mg238 1.984 1_556 S
O245 C249 1.236 1_556 S
O246 Mg241 2.032 . S
O246 C249 1.259 . S
O247 Mg238 2.114 . S
O247 C250 1.252 . S
O248 Mg238 2.251 . S
O248 Mg241 2.079 . S
O248 C250 1.273 . S
C249 O245 1.236 1_554 S
C249 O246 1.259 . S
C250 O247 1.252 . S
C250 O248 1.273 . S
O251 Mg238 2.010 1_556 S
O251 C243 1.249 . S
Mg252 O253 2.028 . S
Mg252 O259 1.986 . S
Mg252 O261 2.114 . S
Mg252 O262 2.251 . S
Mg252 O265 2.010 . S
O253 Mg252 2.028 . S
O253 C256 1.250 . S
O254 Mg255 2.041 . S
O254 C256 1.248 . S
Mg255 O254 2.041 . S
Mg255 O260 2.041 . S
Mg255 O262 2.096 . S
C256 O253 1.250 . S
C256 O254 1.248 . S
C257 O258 1.264 . S
C257 O265 1.249 . S
O258 C257 1.264 . S
O259 Mg252 1.986 . S
O259 C263 1.246 . S
O260 Mg255 2.041 . S
O260 C263 1.259 . S
O261 Mg252 2.114 . S
O261 C264 1.252 . S
O262 Mg252 2.251 . S
O262 Mg255 2.096 . S
O262 C264 1.273 . S
C263 O259 1.246 . S
C263 O260 1.259 . S
C264 O261 1.252 . S
C264 O262 1.273 . S
O265 Mg252 2.010 . S
O265 C257 1.249 . S
Mg266 O267 2.028 1_655 S
Mg266 O273 1.986 . S
Mg266 O275 2.114 . S
Mg266 O276 2.251 . S
Mg266 O279 2.010 1_655 S
O267 Mg266 2.028 1_455 S
O267 C270 1.250 . S
O268 Mg269 2.028 1_455 S
O268 C270 1.248 . S
Mg269 O268 2.028 1_655 S
Mg269 O274 2.032 . S
Mg269 O276 2.079 . S
C270 O267 1.250 . S
C270 O268 1.248 . S
C271 O272 1.264 1_455 S
C271 O279 1.249 . S
O272 C271 1.264 1_655 S
O273 Mg266 1.986 . S
O273 C277 1.246 . S
O274 Mg269 2.032 . S
O274 C277 1.259 . S
O275 Mg266 2.114 . S
O275 C278 1.252 . S
O276 Mg266 2.251 . S
O276 Mg269 2.079 . S
O276 C278 1.273 . S
C277 O273 1.246 . S
C277 O274 1.259 . S
C278 O275 1.252 . S
C278 O276 1.273 . S
O279 Mg266 2.010 1_455 S
O279 C271 1.249 . S
Mg280 O281 2.028 . S
Mg280 O287 1.986 . S
Mg280 O289 2.114 . S
Mg280 O290 2.251 . S
Mg280 O293 2.010 . S
O281 Mg280 2.028 . S
O281 C284 1.250 . S
O282 Mg283 2.028 . S
O282 C284 1.248 . S
Mg283 O282 2.028 . S
Mg283 O288 2.032 . S
Mg283 O290 2.079 . S
C284 O281 1.250 . S
C284 O282 1.248 . S
C285 O286 1.264 . S
C285 O293 1.249 . S
O286 C285 1.264 . S
O287 Mg280 1.986 . S
O287 C291 1.246 . S
O288 Mg283 2.032 . S
O288 C291 1.259 . S
O289 Mg280 2.114 . S
O289 C292 1.252 . S
O290 Mg280 2.251 . S
O290 Mg283 2.079 . S
O290 C292 1.273 . S
C291 O287 1.246 . S
C291 O288 1.259 . S
C292 O289 1.252 . S
C292 O290 1.273 . S
O293 Mg280 2.010 . S
O293 C285 1.249 . S
Mg294 O295 2.028 1_655 S
Mg294 O301 1.986 1_556 S
Mg294 O303 2.114 . S
Mg294 O304 2.251 . S
Mg294 O307 2.010 1_656 S
O295 Mg294 2.028 1_455 S
O295 C298 1.250 . S
O296 Mg297 2.028 1_455 S
O296 C298 1.248 . S
Mg297 O296 2.028 1_655 S
Mg297 O302 2.032 . S
Mg297 O304 2.079 . S
C298 O295 1.250 . S
C298 O296 1.248 . S
C299 O300 1.264 1_455 S
C299 O307 1.249 . S
O300 C299 1.264 1_655 S
O301 Mg294 1.986 1_554 S
O301 C305 1.246 1_554 S
O302 Mg297 2.032 . S
O302 C305 1.259 . S
O303 Mg294 2.114 . S
O303 C306 1.252 . S
O304 Mg294 2.251 . S
O304 Mg297 2.079 . S
O304 C306 1.273 . S
C305 O301 1.246 1_556 S
C305 O302 1.259 . S
C306 O303 1.252 . S
C306 O304 1.273 . S
O307 Mg294 2.010 1_454 S
O307 C299 1.249 . S
Mg308 O309 2.028 . S
Mg308 O315 1.986 . S
Mg308 O317 2.114 . S
Mg308 O318 2.251 . S
Mg308 O321 2.010 . S
O309 Mg308 2.028 . S
O309 C312 1.250 . S
O310 Mg311 2.041 . S
O310 C312 1.248 . S
Mg311 O310 2.041 . S
Mg311 O316 2.041 . S
Mg311 O318 2.096 . S
C312 O309 1.250 . S
C312 O310 1.248 . S
C313 O314 1.264 . S
C313 O321 1.249 . S
O314 C313 1.264 . S
O315 Mg308 1.986 . S
O315 C319 1.246 . S
O316 Mg311 2.041 . S
O316 C319 1.259 . S
O317 Mg308 2.114 . S
O317 C320 1.252 . S
O318 Mg308 2.251 . S
O318 Mg311 2.096 . S
O318 C320 1.273 . S
C319 O315 1.246 . S
C319 O316 1.259 . S
C320 O317 1.252 . S
C320 O318 1.273 . S
O321 Mg308 2.010 . S
O321 C313 1.249 . S
Mg322 O323 2.028 . S
Mg322 O329 1.986 . S
Mg322 O331 2.114 . S
Mg322 O332 2.251 . S
Mg322 O335 2.010 . S
O323 Mg322 2.028 . S
O323 C326 1.250 . S
O324 Mg325 2.028 . S
O324 C326 1.248 . S
Mg325 O324 2.028 . S
Mg325 O330 2.032 . S
Mg325 O332 2.079 . S
C326 O323 1.250 . S
C326 O324 1.248 . S
C327 O328 1.264 . S
C327 O335 1.249 . S
O328 C327 1.264 . S
O329 Mg322 1.986 . S
O329 C333 1.246 . S
O330 Mg325 2.032 . S
O330 C333 1.259 . S
O331 Mg322 2.114 . S
O331 C334 1.252 . S
O332 Mg322 2.251 . S
O332 Mg325 2.079 . S
O332 C334 1.273 . S
C333 O329 1.246 . S
C333 O330 1.259 . S
C334 O331 1.252 . S
C334 O332 1.273 . S
O335 Mg322 2.010 . S
O335 C327 1.249 . S
Mg336 O337 2.028 . S
Mg336 O343 1.986 . S
Mg336 O345 2.114 . S
Mg336 O346 2.251 . S
Mg336 O349 2.010 . S
O337 Mg336 2.028 . S
O337 C340 1.250 . S
O338 Mg339 2.028 . S
O338 C340 1.248 . S
Mg339 O338 2.028 . S
Mg339 O344 2.032 . S
Mg339 O346 2.079 . S
C340 O337 1.250 . S
C340 O338 1.248 . S
C341 O342 1.264 . S
C341 O349 1.249 . S
O342 C341 1.264 . S
O343 Mg336 1.986 . S
O343 C347 1.246 . S
O344 Mg339 2.032 . S
O344 C347 1.259 . S
O345 Mg336 2.114 . S
O345 C348 1.252 . S
O346 Mg336 2.251 . S
O346 Mg339 2.079 . S
O346 C348 1.273 . S
C347 O343 1.246 . S
C347 O344 1.259 . S
C348 O345 1.252 . S
C348 O346 1.273 . S
O349 Mg336 2.010 . S
O349 C341 1.249 . S
Mg350 O351 2.028 . S
Mg350 O357 1.986 . S
Mg350 O359 2.114 . S
Mg350 O360 2.251 . S
Mg350 O363 2.010 1_556 S
O351 Mg350 2.028 . S
O351 C354 1.250 . S
O352 Mg353 2.028 . S
O352 C354 1.248 . S
Mg353 O352 2.028 . S
Mg353 O358 2.032 . S
Mg353 O360 2.079 . S
C354 O351 1.250 . S
C354 O352 1.248 . S
C355 O356 1.264 . S
C355 O363 1.249 . S
O356 C355 1.264 . S
O357 Mg350 1.986 . S
O357 C361 1.246 . S
O358 Mg353 2.032 . S
O358 C361 1.259 . S
O359 Mg350 2.114 . S
O359 C362 1.252 . S
O360 Mg350 2.251 . S
O360 Mg353 2.079 . S
O360 C362 1.273 . S
C361 O357 1.246 . S
C361 O358 1.259 . S
C362 O359 1.252 . S
C362 O360 1.273 . S
O363 Mg350 2.010 1_554 S
O363 C355 1.249 . S
Mg364 O365 2.028 . S
Mg364 O371 1.986 . S
Mg364 O373 2.114 . S
Mg364 O374 2.251 . S
Mg364 O377 2.010 . S
O365 Mg364 2.028 . S
O365 C368 1.250 . S
O366 Mg367 2.028 . S
O366 C368 1.248 . S
Mg367 O366 2.028 . S
Mg367 O372 2.032 . S
Mg367 O374 2.079 . S
C368 O365 1.250 . S
C368 O366 1.248 . S
C369 O370 1.264 . S
C369 O377 1.249 . S
O370 C369 1.264 . S
O371 Mg364 1.986 . S
O371 C375 1.246 . S
O372 Mg367 2.032 . S
O372 C375 1.259 . S
O373 Mg364 2.114 . S
O373 C376 1.252 . S
O374 Mg364 2.251 . S
O374 Mg367 2.079 . S
O374 C376 1.273 . S
C375 O371 1.246 . S
C375 O372 1.259 . S
C376 O373 1.252 . S
C376 O374 1.273 . S
O377 Mg364 2.010 . S
O377 C369 1.249 . S
Mg378 O379 2.028 . S
Mg378 O385 1.986 . S
Mg378 O387 2.114 1_655 S
Mg378 O388 2.251 1_655 S
Mg378 O391 2.010 . S
O379 Mg378 2.028 . S
O379 C382 1.250 . S
O380 Mg381 2.028 1_655 S
O380 C382 1.248 . S
Mg381 O380 2.028 1_455 S
Mg381 O386 2.032 1_455 S
Mg381 O388 2.079 . S
C382 O379 1.250 . S
C382 O380 1.248 . S
C383 O384 1.264 . S
C383 O391 1.249 . S
O384 C383 1.264 . S
O385 Mg378 1.986 . S
O385 C389 1.246 . S
O386 Mg381 2.032 1_655 S
O386 C389 1.259 . S
O387 Mg378 2.114 1_455 S
O387 C390 1.252 . S
O388 Mg378 2.251 1_455 S
O388 Mg381 2.079 . S
O388 C390 1.273 . S
C389 O385 1.246 . S
C389 O386 1.259 . S
C390 O387 1.252 . S
C390 O388 1.273 . S
O391 Mg378 2.010 . S
O391 C383 1.249 . S
Mg392 O393 2.028 . S
Mg392 O399 1.986 . S
Mg392 O401 2.114 . S
Mg392 O402 2.251 . S
Mg392 O405 2.010 . S
O393 Mg392 2.028 . S
O393 C396 1.250 . S
O394 Mg395 2.028 . S
O394 C396 1.248 . S
Mg395 O394 2.028 . S
Mg395 O400 2.032 . S
Mg395 O402 2.079 . S
C396 O393 1.250 . S
C396 O394 1.248 . S
C397 O398 1.264 . S
C397 O405 1.249 . S
O398 C397 1.264 . S
O399 Mg392 1.986 . S
O399 C403 1.246 . S
O400 Mg395 2.032 . S
O400 C403 1.259 . S
O401 Mg392 2.114 . S
O401 C404 1.252 . S
O402 Mg392 2.251 . S
O402 Mg395 2.079 . S
O402 C404 1.273 . S
C403 O399 1.246 . S
C403 O400 1.259 . S
C404 O401 1.252 . S
C404 O402 1.273 . S
O405 Mg392 2.010 . S
O405 C397 1.249 . S
Mg406 O407 2.028 . S
Mg406 O413 1.986 . S
Mg406 O415 2.114 1_655 S
Mg406 O416 2.251 1_655 S
Mg406 O419 2.010 1_554 S
O407 Mg406 2.028 . S
O407 C410 1.250 . S
O408 Mg409 2.028 1_655 S
O408 C410 1.248 . S
Mg409 O408 2.028 1_455 S
Mg409 O414 2.032 1_455 S
Mg409 O416 2.079 . S
C410 O407 1.250 . S
C410 O408 1.248 . S
C411 O412 1.264 . S
C411 O419 1.249 . S
O412 C411 1.264 . S
O413 Mg406 1.986 . S
O413 C417 1.246 . S
O414 Mg409 2.032 1_655 S
O414 C417 1.259 . S
O415 Mg406 2.114 1_455 S
O415 C418 1.252 . S
O416 Mg406 2.251 1_455 S
O416 Mg409 2.079 . S
O416 C418 1.273 . S
C417 O413 1.246 . S
C417 O414 1.259 . S
C418 O415 1.252 . S
C418 O416 1.273 . S
O419 Mg406 2.010 1_556 S
O419 C411 1.249 . S
Mg420 O421 2.028 . S
Mg420 O427 1.986 . S
Mg420 O429 2.114 . S
Mg420 O430 2.251 . S
Mg420 O433 2.010 . S
O421 Mg420 2.028 . S
O421 C424 1.250 . S
O422 Mg423 2.028 . S
O422 C424 1.248 . S
Mg423 O422 2.028 . S
Mg423 O428 2.032 . S
Mg423 O430 2.079 . S
C424 O421 1.250 . S
C424 O422 1.248 . S
C425 O426 1.264 . S
C425 O433 1.249 . S
O426 C425 1.264 . S
O427 Mg420 1.986 . S
O427 C431 1.246 . S
O428 Mg423 2.032 . S
O428 C431 1.259 . S
O429 Mg420 2.114 . S
O429 C432 1.252 . S
O430 Mg420 2.251 . S
O430 Mg423 2.079 . S
O430 C432 1.273 . S
C431 O427 1.246 . S
C431 O428 1.259 . S
C432 O429 1.252 . S
C432 O430 1.273 . S
O433 Mg420 2.010 . S
O433 C425 1.249 . S
Mg434 O435 2.028 . S
Mg434 O441 1.986 . S
Mg434 O443 2.114 . S
Mg434 O444 2.251 . S
Mg434 O447 2.010 . S
O435 Mg434 2.028 . S
O435 C438 1.250 . S
O436 Mg437 2.028 . S
O436 C438 1.248 . S
Mg437 O436 2.028 . S
Mg437 O442 2.032 . S
Mg437 O444 2.079 . S
C438 O435 1.250 . S
C438 O436 1.248 . S
C439 O440 1.264 . S
C439 O447 1.249 . S
O440 C439 1.264 . S
O441 Mg434 1.986 . S
O441 C445 1.246 . S
O442 Mg437 2.032 . S
O442 C445 1.259 . S
O443 Mg434 2.114 . S
O443 C446 1.252 . S
O444 Mg434 2.251 . S
O444 Mg437 2.079 . S
O444 C446 1.273 . S
C445 O441 1.246 . S
C445 O442 1.259 . S
C446 O443 1.252 . S
C446 O444 1.273 . S
O447 Mg434 2.010 . S
O447 C439 1.249 . S
C130 C4 1.286 . S
C26 C368 1.349 . S
C158 C32 1.286 . S
C340 C54 1.349 . S
C60 C214 1.286 . S
C396 C82 1.349 . S
C88 C186 1.286 . S
C424 C110 1.349 . S
C18 C124 1.336 . S
C138 C264 1.248 . S
C46 C152 1.336 . S
C166 C236 1.249 . S
C180 C102 1.336 . S
C292 C194 1.248 . S
C208 C74 1.336 . S
C320 C222 1.248 . S
C354 C228 1.286 . S
C144 C250 1.349 . S
C256 C382 1.286 . S
C116 C278 1.349 . S
C438 C284 1.286 . S
C306 C172 1.348 . S
C410 C312 1.286 . S
C200 C334 1.349 . S
C242 C348 1.336 . S
C362 C40 1.248 . S
C376 C270 1.336 . S
C390 C12 1.248 . S
C326 C404 1.336 . S
C418 C68 1.248 . S
C432 C298 1.336 . S
C446 C96 1.248 . S
C347 C5 1.078 . S
C25 C137 1.933 1_565 S
C33 C375 1.078 . S
C53 C165 1.933 1_544 S
C61 C403 1.078 . S
C81 C193 1.933 1_565 S
C431 C89 1.077 . S
C109 C221 1.933 1_546 S
C123 C229 1.078 . S
C151 C257 1.078 . S
C285 C179 1.078 . S
C313 C207 1.078 . S
C249 C361 1.933 1_554 S
C389 C277 1.933 . S
C305 C417 1.933 1_556 S
C445 C333 1.933 . S
C299 C11 1.810 . S
C319 C19 1.809 . S
C39 C327 1.810 . S
C291 C47 1.809 . S
C271 C67 1.809 . S
C235 C75 1.810 . S
C95 C243 1.809 . S
C263 C103 1.809 . S
C411 C117 2.062 . S
C425 C131 2.061 . S
C439 C145 2.062 . S
C159 C397 2.061 . S
C383 C173 2.061 . S
C341 C187 2.062 . S
C355 C201 2.061 . S
C369 C215 2.062 . S
