# Generated by pormake.
# Topology ukd, (4)-cn, num edge types: 1
# Building blocks:
#     Node 0, Type 0, BuildingBlock: TATPOV_clean_sbu_0, # of connection points: 4
#     Node 1, Type 0, BuildingBlock: TATPOV_clean_sbu_0, # of connection points: 4
#     Node 2, Type 0, BuildingBlock: TATPOV_clean_sbu_0, # of connection points: 4
#     Node 3, Type 0, BuildingBlock: TATPOV_clean_sbu_0, # of connection points: 4
#     Node 4, Type 0, BuildingBlock: TATPOV_clean_sbu_0, # of connection points: 4
#     Node 5, Type 0, BuildingBlock: TATPOV_clean_sbu_0, # of connection points: 4
#     Node 6, Type 0, BuildingBlock: TATPOV_clean_sbu_0, # of connection points: 4
#     Node 7, Type 0, BuildingBlock: TATPOV_clean_sbu_0, # of connection points: 4
#     Node 8, Type 0, BuildingBlock: TATPOV_clean_sbu_0, # of connection points: 4
#     Node 9, Type 0, BuildingBlock: TATPOV_clean_sbu_0, # of connection points: 4
#     Node 10, Type 0, BuildingBlock: TATPOV_clean_sbu_0, # of connection points: 4
#     Node 11, Type 0, BuildingBlock: TATPOV_clean_sbu_0, # of connection points: 4
#     Node 12, Type 0, BuildingBlock: TATPOV_clean_sbu_0, # of connection points: 4
#     Node 13, Type 0, BuildingBlock: TATPOV_clean_sbu_0, # of connection points: 4
#     Node 14, Type 0, BuildingBlock: TATPOV_clean_sbu_0, # of connection points: 4
#     Node 15, Type 0, BuildingBlock: TATPOV_clean_sbu_0, # of connection points: 4
#     Node 16, Type 0, BuildingBlock: TATPOV_clean_sbu_0, # of connection points: 4
#     Node 17, Type 0, BuildingBlock: TATPOV_clean_sbu_0, # of connection points: 4
#     Node 18, Type 0, BuildingBlock: TATPOV_clean_sbu_0, # of connection points: 4
#     Node 19, Type 0, BuildingBlock: TATPOV_clean_sbu_0, # of connection points: 4
#     Node 20, Type 0, BuildingBlock: TATPOV_clean_sbu_0, # of connection points: 4
#     Node 21, Type 0, BuildingBlock: TATPOV_clean_sbu_0, # of connection points: 4
#     Node 22, Type 0, BuildingBlock: TATPOV_clean_sbu_0, # of connection points: 4
#     Node 23, Type 0, BuildingBlock: TATPOV_clean_sbu_0, # of connection points: 4
#     Node 24, Type 0, BuildingBlock: TATPOV_clean_sbu_0, # of connection points: 4
#     Node 25, Type 0, BuildingBlock: TATPOV_clean_sbu_0, # of connection points: 4
#     Node 26, Type 0, BuildingBlock: TATPOV_clean_sbu_0, # of connection points: 4
#     Node 27, Type 0, BuildingBlock: TATPOV_clean_sbu_0, # of connection points: 4
#     Node 28, Type 0, BuildingBlock: TATPOV_clean_sbu_0, # of connection points: 4
#     Node 29, Type 0, BuildingBlock: TATPOV_clean_sbu_0, # of connection points: 4
#     Node 30, Type 0, BuildingBlock: TATPOV_clean_sbu_0, # of connection points: 4
#     Node 31, Type 0, BuildingBlock: TATPOV_clean_sbu_0, # of connection points: 4
#     Edge 32, Type (0, 0), BuildingBlock: ZUJKAS_clean_linker_0, # of connection points: 2
#     Edge 33, Type (0, 0), BuildingBlock: ZUJKAS_clean_linker_0, # of connection points: 2
#     Edge 34, Type (0, 0), BuildingBlock: ZUJKAS_clean_linker_0, # of connection points: 2
#     Edge 35, Type (0, 0), BuildingBlock: ZUJKAS_clean_linker_0, # of connection points: 2
#     Edge 36, Type (0, 0), BuildingBlock: ZUJKAS_clean_linker_0, # of connection points: 2
#     Edge 37, Type (0, 0), BuildingBlock: ZUJKAS_clean_linker_0, # of connection points: 2
#     Edge 38, Type (0, 0), BuildingBlock: ZUJKAS_clean_linker_0, # of connection points: 2
#     Edge 39, Type (0, 0), BuildingBlock: ZUJKAS_clean_linker_0, # of connection points: 2
#     Edge 40, Type (0, 0), BuildingBlock: ZUJKAS_clean_linker_0, # of connection points: 2
#     Edge 41, Type (0, 0), BuildingBlock: ZUJKAS_clean_linker_0, # of connection points: 2
#     Edge 42, Type (0, 0), BuildingBlock: ZUJKAS_clean_linker_0, # of connection points: 2
#     Edge 43, Type (0, 0), BuildingBlock: ZUJKAS_clean_linker_0, # of connection points: 2
#     Edge 44, Type (0, 0), BuildingBlock: ZUJKAS_clean_linker_0, # of connection points: 2
#     Edge 45, Type (0, 0), BuildingBlock: ZUJKAS_clean_linker_0, # of connection points: 2
#     Edge 46, Type (0, 0), BuildingBlock: ZUJKAS_clean_linker_0, # of connection points: 2
#     Edge 47, Type (0, 0), BuildingBlock: ZUJKAS_clean_linker_0, # of connection points: 2
#     Edge 48, Type (0, 0), BuildingBlock: ZUJKAS_clean_linker_0, # of connection points: 2
#     Edge 49, Type (0, 0), BuildingBlock: ZUJKAS_clean_linker_0, # of connection points: 2
#     Edge 50, Type (0, 0), BuildingBlock: ZUJKAS_clean_linker_0, # of connection points: 2
#     Edge 51, Type (0, 0), BuildingBlock: ZUJKAS_clean_linker_0, # of connection points: 2
#     Edge 52, Type (0, 0), BuildingBlock: ZUJKAS_clean_linker_0, # of connection points: 2
#     Edge 53, Type (0, 0), BuildingBlock: ZUJKAS_clean_linker_0, # of connection points: 2
#     Edge 54, Type (0, 0), BuildingBlock: ZUJKAS_clean_linker_0, # of connection points: 2
#     Edge 55, Type (0, 0), BuildingBlock: ZUJKAS_clean_linker_0, # of connection points: 2
#     Edge 56, Type (0, 0), BuildingBlock: ZUJKAS_clean_linker_0, # of connection points: 2
#     Edge 57, Type (0, 0), BuildingBlock: ZUJKAS_clean_linker_0, # of connection points: 2
#     Edge 58, Type (0, 0), BuildingBlock: ZUJKAS_clean_linker_0, # of connection points: 2
#     Edge 59, Type (0, 0), BuildingBlock: ZUJKAS_clean_linker_0, # of connection points: 2
#     Edge 60, Type (0, 0), BuildingBlock: ZUJKAS_clean_linker_0, # of connection points: 2
#     Edge 61, Type (0, 0), BuildingBlock: ZUJKAS_clean_linker_0, # of connection points: 2
#     Edge 62, Type (0, 0), BuildingBlock: ZUJKAS_clean_linker_0, # of connection points: 2
#     Edge 63, Type (0, 0), BuildingBlock: ZUJKAS_clean_linker_0, # of connection points: 2
#     Edge 64, Type (0, 0), BuildingBlock: ZUJKAS_clean_linker_0, # of connection points: 2
#     Edge 65, Type (0, 0), BuildingBlock: ZUJKAS_clean_linker_0, # of connection points: 2
#     Edge 66, Type (0, 0), BuildingBlock: ZUJKAS_clean_linker_0, # of connection points: 2
#     Edge 67, Type (0, 0), BuildingBlock: ZUJKAS_clean_linker_0, # of connection points: 2
#     Edge 68, Type (0, 0), BuildingBlock: ZUJKAS_clean_linker_0, # of connection points: 2
#     Edge 69, Type (0, 0), BuildingBlock: ZUJKAS_clean_linker_0, # of connection points: 2
#     Edge 70, Type (0, 0), BuildingBlock: ZUJKAS_clean_linker_0, # of connection points: 2
#     Edge 71, Type (0, 0), BuildingBlock: ZUJKAS_clean_linker_0, # of connection points: 2
#     Edge 72, Type (0, 0), BuildingBlock: ZUJKAS_clean_linker_0, # of connection points: 2
#     Edge 73, Type (0, 0), BuildingBlock: ZUJKAS_clean_linker_0, # of connection points: 2
#     Edge 74, Type (0, 0), BuildingBlock: ZUJKAS_clean_linker_0, # of connection points: 2
#     Edge 75, Type (0, 0), BuildingBlock: ZUJKAS_clean_linker_0, # of connection points: 2
#     Edge 76, Type (0, 0), BuildingBlock: ZUJKAS_clean_linker_0, # of connection points: 2
#     Edge 77, Type (0, 0), BuildingBlock: ZUJKAS_clean_linker_0, # of connection points: 2
#     Edge 78, Type (0, 0), BuildingBlock: ZUJKAS_clean_linker_0, # of connection points: 2
#     Edge 79, Type (0, 0), BuildingBlock: ZUJKAS_clean_linker_0, # of connection points: 2
#     Edge 80, Type (0, 0), BuildingBlock: ZUJKAS_clean_linker_0, # of connection points: 2
#     Edge 81, Type (0, 0), BuildingBlock: ZUJKAS_clean_linker_0, # of connection points: 2
#     Edge 82, Type (0, 0), BuildingBlock: ZUJKAS_clean_linker_0, # of connection points: 2
#     Edge 83, Type (0, 0), BuildingBlock: ZUJKAS_clean_linker_0, # of connection points: 2
#     Edge 84, Type (0, 0), BuildingBlock: ZUJKAS_clean_linker_0, # of connection points: 2
#     Edge 85, Type (0, 0), BuildingBlock: ZUJKAS_clean_linker_0, # of connection points: 2
#     Edge 86, Type (0, 0), BuildingBlock: ZUJKAS_clean_linker_0, # of connection points: 2
#     Edge 87, Type (0, 0), BuildingBlock: ZUJKAS_clean_linker_0, # of connection points: 2
#     Edge 88, Type (0, 0), BuildingBlock: ZUJKAS_clean_linker_0, # of connection points: 2
#     Edge 89, Type (0, 0), BuildingBlock: ZUJKAS_clean_linker_0, # of connection points: 2
#     Edge 90, Type (0, 0), BuildingBlock: ZUJKAS_clean_linker_0, # of connection points: 2
#     Edge 91, Type (0, 0), BuildingBlock: ZUJKAS_clean_linker_0, # of connection points: 2
#     Edge 92, Type (0, 0), BuildingBlock: ZUJKAS_clean_linker_0, # of connection points: 2
#     Edge 93, Type (0, 0), BuildingBlock: ZUJKAS_clean_linker_0, # of connection points: 2
#     Edge 94, Type (0, 0), BuildingBlock: ZUJKAS_clean_linker_0, # of connection points: 2
#     Edge 95, Type (0, 0), BuildingBlock: ZUJKAS_clean_linker_0, # of connection points: 2
# Relax obj value: 0.129
# Max RMSD: 0.183
# Mean RMSD: 0.176
data_MOF--net-ukd--node1-TATPOV_clean_sbu_0--edge1-ZUJKAS_clean_linker_0
_symmetry_space_group_name_H-M    P1
_symmetry_Int_Tables_number       1
_symmetry_cell_setting            triclinic
loop_
_symmetry_equiv_pos_as_xyz
'x, y, z'
_cell_length_a     55.979748
_cell_length_b     55.115032
_cell_length_c     99.528676
_cell_angle_alpha  90.032658
_cell_angle_beta   89.999225
_cell_angle_gamma 90.016873
loop_
_atom_site_label
_atom_site_type_symbol
_atom_site_fract_x
_atom_site_fract_y
_atom_site_fract_z
_atom_type_partial_charge
Zn0 Zn 0.13722 0.21454 0.32065 0.0
Zn1 Zn 0.18111 0.20652 0.33134 0.0
O2 O 0.16144 0.17666 0.3369 0.0
O3 O 0.12627 0.18173 0.32742 0.0
O4 O 0.21344 0.19929 0.33917 0.0
O5 O 0.1525 0.21789 0.30233 0.0
O6 O 0.18785 0.21112 0.31127 0.0
C7 C 0.14033 0.16912 0.33453 0.0
C8 C 0.15245 0.25079 0.3401 0.0
O9 O 0.17139 0.23805 0.34053 0.0
O10 O 0.13512 0.24435 0.3327 0.0
C11 C 0.21663 0.1994 0.35182 0.0
O12 O 0.19858 0.20467 0.35974 0.0
C13 C 0.17492 0.21579 0.30106 0.0
Zn14 Zn 0.07728 0.00707 0.62542 0.0
Zn15 Zn 0.06967 0.00383 0.59856 0.0
O16 O 0.03712 -0.00105 0.60762 0.0
O17 O 0.04201 0.00313 0.62942 0.0
O18 O 0.06065 -0.00144 0.57923 0.0
O19 O 0.09085 0.04038 0.62177 0.0
O20 O 0.08518 0.03765 0.5999 0.0
C21 C 0.02851 -0.00077 0.61945 0.0
C22 C 0.10306 0.96784 0.61232 0.0
O23 O 0.09329 0.97646 0.60183 0.0
O24 O 0.09884 0.97727 0.62371 0.0
C25 C 0.05134 0.97794 0.5768 0.0
O26 O 0.04927 0.96222 0.58665 0.0
C27 C 0.09263 0.04943 0.61011 0.0
Zn28 Zn 0.36329 0.77416 0.81918 0.0
Zn29 Zn 0.31978 0.78683 0.82906 0.0
O30 O 0.34117 0.81596 0.8337 0.0
O31 O 0.37666 0.80603 0.82593 0.0
O32 O 0.28787 0.79688 0.83647 0.0
O33 O 0.34838 0.77138 0.80069 0.0
O34 O 0.31324 0.78097 0.80911 0.0
C35 C 0.36316 0.82096 0.83193 0.0
C36 C 0.34478 0.74096 0.83916 0.0
O37 O 0.32716 0.75554 0.83925 0.0
O38 O 0.36254 0.74496 0.83158 0.0
C39 C 0.28401 0.79644 0.84906 0.0
O40 O 0.30107 0.78912 0.85716 0.0
C41 C 0.32618 0.77488 0.79913 0.0
Zn42 Zn 0.42145 0.9917 0.12743 0.0
Zn43 Zn 0.42835 0.99448 0.10044 0.0
O44 O 0.46058 0.00236 0.10911 0.0
O45 O 0.4563 -0.00055 0.131 0.0
O46 O 0.43628 -0.00068 0.08099 0.0
O47 O 0.41094 0.95699 0.12424 0.0
O48 O 0.41568 0.95971 0.1023 0.0
C49 C 0.46933 0.00376 0.12088 0.0
C50 C 0.39232 0.02803 0.11396 0.0
O51 O 0.40282 0.02001 0.10354 0.0
O52 O 0.39722 0.01927 0.12542 0.0
C53 C 0.44434 0.02024 0.07802 0.0
O54 O 0.44607 0.0367 0.08753 0.0
C55 C 0.40959 0.94754 0.11264 0.0
Zn56 Zn 0.14234 0.78667 0.17248 0.0
Zn57 Zn 0.18553 0.7945 0.16062 0.0
O58 O 0.16699 0.82588 0.15704 0.0
O59 O 0.13232 0.82071 0.16706 0.0
O60 O 0.21741 0.8012 0.15207 0.0
O61 O 0.15936 0.78083 0.19011 0.0
O62 O 0.19399 0.78729 0.18024 0.0
C63 C 0.14638 0.83381 0.16021 0.0
C64 C 0.15378 0.75287 0.15102 0.0
O65 O 0.173 0.76514 0.15034 0.0
O66 O 0.13783 0.75843 0.15953 0.0
C67 C 0.22037 0.79999 0.13942 0.0
O68 O 0.20224 0.79389 0.13174 0.0
C69 C 0.18193 0.78207 0.1907 0.0
Zn70 Zn 0.42165 0.00469 0.3638 0.0
Zn71 Zn 0.42716 0.00329 0.3909 0.0
O72 O 0.46013 0.99634 0.38283 0.0
O73 O 0.45708 -0.00088 0.36086 0.0
O74 O 0.43455 -0.00018 0.41054 0.0
O75 O 0.40885 0.03874 0.36635 0.0
O76 O 0.41325 0.03746 0.38835 0.0
C77 C 0.46964 0.99538 0.37123 0.0
C78 C 0.39343 0.96754 0.3772 0.0
O79 O 0.40263 0.97669 0.38773 0.0
O80 O 0.399 0.97575 0.36572 0.0
C81 C 0.44288 0.9793 0.41405 0.0
O82 O 0.44499 0.96213 0.40496 0.0
C83 C 0.40676 0.04872 0.37778 0.0
Zn84 Zn 0.35777 0.22225 0.66962 0.0
Zn85 Zn 0.31577 0.21163 0.65752 0.0
O86 O 0.33584 0.18073 0.65494 0.0
O87 O 0.36933 0.18813 0.66581 0.0
O88 O 0.28448 0.20278 0.64884 0.0
O89 O 0.34029 0.2296 0.68681 0.0
O90 O 0.30626 0.22051 0.67692 0.0
C91 C 0.35642 0.17394 0.65892 0.0
C92 C 0.34646 0.25308 0.64684 0.0
O93 O 0.32755 0.24029 0.64634 0.0
O94 O 0.36215 0.24889 0.65573 0.0
C95 C 0.28286 0.20045 0.63616 0.0
O96 O 0.30189 0.20417 0.62871 0.0
C97 C 0.31779 0.22742 0.68729 0.0
Zn98 Zn 0.07703 0.99167 0.86237 0.0
Zn99 Zn 0.07 0.99137 0.88933 0.0
O100 O 0.03688 0.99526 0.88087 0.0
O101 O 0.0418 0.99748 0.859 0.0
O102 O 0.06159 0.99447 0.90886 0.0
O103 O 0.08986 0.95751 0.86473 0.0
O104 O 0.086 0.95823 0.88678 0.0
C105 C 0.02818 0.99786 0.86915 0.0
C106 C 0.10309 0.02915 0.87647 0.0
O107 O 0.09289 0.01983 0.88666 0.0
O108 O 0.09936 0.02047 0.86486 0.0
C109 C 0.05077 0.01406 0.91183 0.0
O110 O 0.04697 0.03015 0.90233 0.0
C111 C 0.09253 0.94738 0.87607 0.0
Zn112 Zn 0.84017 0.78862 0.66065 0.0
Zn113 Zn 0.80055 0.80485 0.64855 0.0
O114 O 0.82505 0.83295 0.64643 0.0
O115 O 0.85762 0.81908 0.65615 0.0
O116 O 0.77031 0.81817 0.6402 0.0
O117 O 0.82245 0.78496 0.67812 0.0
O118 O 0.78986 0.79752 0.66791 0.0
C119 C 0.84686 0.83567 0.64981 0.0
C120 C 0.82497 0.75852 0.63859 0.0
O121 O 0.8079 0.77375 0.63765 0.0
O122 O 0.8409 0.76115 0.64749 0.0
C123 C 0.77067 0.83358 0.63069 0.0
O124 O 0.79132 0.84057 0.62576 0.0
C125 C 0.80036 0.78981 0.67844 0.0
Zn126 Zn 0.96334 0.04853 0.43736 0.0
Zn127 Zn 0.94417 0.01308 0.42285 0.0
O128 O 0.92236 0.04278 0.42002 0.0
O129 O 0.93836 0.0725 0.43171 0.0
O130 O 0.92551 0.98754 0.41281 0.0
O131 O 0.95887 0.02992 0.45428 0.0
O132 O 0.94754 -0.00134 0.44205 0.0
C133 C 0.92224 0.06483 0.42388 0.0
C134 C 0.99393 0.03042 0.41589 0.0
O135 O 0.97592 0.01741 0.41277 0.0
O136 O 0.99329 0.04405 0.42614 0.0
C137 C 0.928 0.96472 0.41403 0.0
O138 O 0.9449 0.9562 0.42188 0.0
C139 C 0.95269 0.00792 0.45344 0.0
Zn140 Zn 0.66503 0.21534 0.15961 0.0
Zn141 Zn 0.7042 0.19515 0.14959 0.0
O142 O 0.67759 0.17032 0.14528 0.0
O143 O 0.64472 0.18915 0.15151 0.0
O144 O 0.73396 0.17792 0.14334 0.0
O145 O 0.67732 0.21277 0.1785 0.0
O146 O 0.71136 0.20083 0.16967 0.0
C147 C 0.65489 0.17098 0.14624 0.0
C148 C 0.68997 0.2457 0.14059 0.0
O149 O 0.70312 0.22712 0.13874 0.0
O150 O 0.67331 0.24531 0.14918 0.0
C151 C 0.74057 0.17686 0.13114 0.0
O152 O 0.72776 0.18787 0.12191 0.0
C153 C 0.69909 0.20717 0.17988 0.0
Zn154 Zn 0.53751 0.94237 0.93747 0.0
Zn155 Zn 0.55008 0.98116 0.92323 0.0
O156 O 0.57602 0.95524 0.91963 0.0
O157 O 0.56707 0.9241 0.93248 0.0
O158 O 0.56391 0.0102 0.91376 0.0
O159 O 0.53685 0.96149 0.95448 0.0
O160 O 0.54536 0.99404 0.94259 0.0
C161 C 0.58068 0.934 0.92396 0.0
C162 C 0.50434 0.95547 0.91584 0.0
O163 O 0.51875 0.97291 0.91359 0.0
O164 O 0.50845 0.94066 0.92531 0.0
C165 C 0.57185 0.00857 0.90183 0.0
O166 O 0.56916 0.98806 0.89526 0.0
C167 C 0.54055 0.98409 0.95383 0.0
Zn168 Zn 0.84224 0.20327 0.84123 0.0
Zn169 Zn 0.79954 0.18851 0.84971 0.0
O170 O 0.82155 0.15861 0.85209 0.0
O171 O 0.85538 0.16965 0.84261 0.0
O172 O 0.76754 0.17528 0.85529 0.0
O173 O 0.82797 0.2145 0.82372 0.0
O174 O 0.79348 0.19951 0.83032 0.0
C175 C 0.84273 0.15363 0.84828 0.0
C176 C 0.82468 0.22969 0.86425 0.0
O177 O 0.80571 0.21744 0.86227 0.0
O178 O 0.84313 0.22589 0.8572 0.0
C179 C 0.76498 0.16495 0.8666 0.0
O180 O 0.78325 0.16405 0.87488 0.0
C181 C 0.80617 0.21003 0.82143 0.0
Zn182 Zn 0.53505 0.05162 0.5595 0.0
Zn183 Zn 0.55063 0.01169 0.57168 0.0
O184 O 0.57626 0.03788 0.57533 0.0
O185 O 0.56368 0.07089 0.56517 0.0
O186 O 0.56587 0.98204 0.57998 0.0
O187 O 0.53489 0.03515 0.54171 0.0
O188 O 0.54442 0.00108 0.55194 0.0
C189 C 0.57908 0.06017 0.57232 0.0
C190 C 0.50411 0.03433 0.581 0.0
O191 O 0.52018 0.01821 0.58264 0.0
O192 O 0.50607 0.04983 0.57165 0.0
C193 C 0.5763 0.98395 0.59128 0.0
O194 O 0.57533 0.00474 0.59772 0.0
C195 C 0.53891 0.01259 0.54126 0.0
Zn196 Zn 0.66134 0.78583 0.33209 0.0
Zn197 Zn 0.6999 0.80109 0.34487 0.0
O198 O 0.67474 0.82797 0.34851 0.0
O199 O 0.64177 0.81272 0.33992 0.0
O200 O 0.72996 0.81409 0.35354 0.0
O201 O 0.67707 0.78936 0.31413 0.0
O202 O 0.71033 0.79715 0.32508 0.0
C203 C 0.65235 0.82941 0.34631 0.0
C204 C 0.67956 0.75108 0.35102 0.0
O205 O 0.69388 0.76811 0.35426 0.0
O206 O 0.66462 0.75405 0.34163 0.0
C207 C 0.72963 0.82645 0.36433 0.0
O208 O 0.70913 0.83036 0.37037 0.0
C209 C 0.69936 0.79314 0.31407 0.0
Zn210 Zn 0.97631 0.94959 0.06035 0.0
Zn211 Zn 0.95391 0.98629 0.07144 0.0
O212 O 0.93201 0.95708 0.07555 0.0
O213 O 0.95249 0.92603 0.06783 0.0
O214 O 0.93476 0.01422 0.07883 0.0
O215 O 0.97183 0.96267 0.04191 0.0
O216 O 0.95834 0.99603 0.05142 0.0
C217 C 0.93433 0.93427 0.07387 0.0
C218 C 0.0041 0.97354 0.0807 0.0
O219 O 0.98477 0.98519 0.08274 0.0
O220 O 0.00558 0.95849 0.07112 0.0
C221 C 0.92865 0.01512 0.09112 0.0
O222 O 0.93597 0.99799 0.09932 0.0
C223 C 0.96461 0.98432 0.04094 0.0
Zn224 Zn 0.63483 0.71551 0.81604 0.0
Zn225 Zn 0.67756 0.70353 0.82732 0.0
O226 O 0.6569 0.67328 0.83046 0.0
O227 O 0.62287 0.68162 0.82036 0.0
O228 O 0.70919 0.6945 0.83549 0.0
O229 O 0.65186 0.722 0.79849 0.0
O230 O 0.68605 0.71161 0.80779 0.0
C231 C 0.63587 0.66707 0.82697 0.0
C232 C 0.6491 0.74661 0.83816 0.0
O233 O 0.66749 0.73306 0.8382 0.0
O234 O 0.63233 0.7427 0.82987 0.0
C235 C 0.71205 0.69408 0.84816 0.0
O236 O 0.69394 0.69949 0.856 0.0
C237 C 0.67423 0.71891 0.79763 0.0
Zn238 Zn 0.57769 0.50207 0.13076 0.0
Zn239 Zn 0.56987 0.50201 0.10387 0.0
O240 O 0.53785 0.49347 0.11264 0.0
O241 O 0.54288 0.49445 0.13454 0.0
O242 O 0.56114 0.49977 0.08436 0.0
O243 O 0.58869 0.53686 0.12874 0.0
O244 O 0.58329 0.53634 0.1068 0.0
C245 C 0.52949 0.49111 0.12445 0.0
C246 C 0.60587 0.46669 0.11582 0.0
O247 O 0.59511 0.47576 0.10576 0.0
O248 O 0.60147 0.47447 0.12757 0.0
C249 C 0.55223 0.47962 0.08063 0.0
O250 O 0.55015 0.46202 0.08945 0.0
C251 C 0.58992 0.54738 0.11743 0.0
Zn252 Zn 0.85375 0.28998 0.31904 0.0
Zn253 Zn 0.81093 0.29797 0.3311 0.0
O254 O 0.82965 0.32936 0.33458 0.0
O255 O 0.86427 0.32375 0.32456 0.0
O256 O 0.77924 0.30455 0.3399 0.0
O257 O 0.83657 0.28431 0.30148 0.0
O258 O 0.80205 0.29028 0.31156 0.0
C259 C 0.85038 0.33703 0.33142 0.0
C260 C 0.84258 0.25618 0.34047 0.0
O261 O 0.82357 0.26871 0.34139 0.0
O262 O 0.85828 0.26151 0.33178 0.0
C263 C 0.77743 0.30554 0.35262 0.0
O264 O 0.79656 0.30207 0.36002 0.0
C265 C 0.81398 0.28514 0.30103 0.0
Zn266 Zn 0.92203 0.49039 0.63321 0.0
Zn267 Zn 0.92874 0.49089 0.6061 0.0
O268 O 0.96154 0.49731 0.61458 0.0
O269 O 0.95738 0.49594 0.63653 0.0
O270 O 0.93638 0.49351 0.58643 0.0
O271 O 0.90924 0.45625 0.6308 0.0
O272 O 0.91409 0.45713 0.60882 0.0
C273 C 0.97051 0.49882 0.62629 0.0
C274 C 0.89497 0.52751 0.61903 0.0
O275 O 0.90473 0.51808 0.60874 0.0
O276 O 0.89965 0.51941 0.63066 0.0
C277 C 0.94893 0.51167 0.58291 0.0
O278 O 0.95552 0.52754 0.59204 0.0
C279 C 0.9073 0.4461 0.61941 0.0
Zn280 Zn 0.64471 0.27232 0.68281 0.0
Zn281 Zn 0.68527 0.28568 0.66969 0.0
O282 O 0.66244 0.31413 0.66629 0.0
O283 O 0.62981 0.30444 0.67745 0.0
O284 O 0.71557 0.29607 0.6605 0.0
O285 O 0.66346 0.27 0.70005 0.0
O286 O 0.69602 0.28089 0.68921 0.0
C287 C 0.64129 0.31918 0.67012 0.0
C288 C 0.65896 0.23942 0.66146 0.0
O289 O 0.6761 0.25436 0.66002 0.0
O290 O 0.64319 0.24303 0.67039 0.0
C291 C 0.71853 0.2948 0.64786 0.0
O292 O 0.70117 0.28638 0.6403 0.0
C293 C 0.68561 0.27466 0.70005 0.0
Zn294 Zn 0.92024 0.50478 0.86106 0.0
Zn295 Zn 0.92832 0.50468 0.88804 0.0
O296 O 0.96063 0.4979 0.87925 0.0
O297 O 0.95542 0.49864 0.85736 0.0
O298 O 0.93698 0.50166 0.90754 0.0
O299 O 0.90779 0.53896 0.86354 0.0
O300 O 0.91344 0.53842 0.88546 0.0
C301 C 0.969 0.49589 0.86742 0.0
C302 C 0.89405 0.46775 0.87568 0.0
O303 O 0.90452 0.47725 0.88572 0.0
O304 O 0.89771 0.476 0.86396 0.0
C305 C 0.94576 0.48123 0.91087 0.0
O306 O 0.94782 0.46423 0.90168 0.0
C307 C 0.90622 0.54927 0.8749 0.0
Zn308 Zn 0.8597 0.71169 0.1764 0.0
Zn309 Zn 0.81669 0.70315 0.16475 0.0
O310 O 0.83609 0.67215 0.16105 0.0
O311 O 0.87004 0.67751 0.17183 0.0
O312 O 0.78467 0.69537 0.15661 0.0
O313 O 0.84311 0.71859 0.194 0.0
O314 O 0.80851 0.7108 0.1844 0.0
C315 C 0.85652 0.66435 0.16468 0.0
C316 C 0.84754 0.74488 0.15471 0.0
O317 O 0.82812 0.73289 0.15441 0.0
O318 O 0.86397 0.73905 0.16287 0.0
C319 C 0.78082 0.69663 0.14404 0.0
O320 O 0.79816 0.70359 0.13602 0.0
C321 C 0.82059 0.7169 0.19472 0.0
Zn322 Zn 0.56451 0.48654 0.36436 0.0
Zn323 Zn 0.55746 0.48962 0.39126 0.0
O324 O 0.52464 0.49446 0.38259 0.0
O325 O 0.52908 0.49022 0.36075 0.0
O326 O 0.54922 0.4943 0.41071 0.0
O327 O 0.57847 0.45332 0.3678 0.0
O328 O 0.57309 0.45596 0.38969 0.0
C329 C 0.51578 0.49406 0.37081 0.0
C330 C 0.59051 0.52577 0.37731 0.0
O331 O 0.58099 0.51706 0.38786 0.0
O332 O 0.586 0.51645 0.36593 0.0
C333 C 0.54157 0.51526 0.41391 0.0
O334 O 0.54022 0.53211 0.40461 0.0
C335 C 0.58051 0.44427 0.37945 0.0
Zn336 Zn 0.3294 0.28156 0.16201 0.0
Zn337 Zn 0.29187 0.30095 0.14987 0.0
O338 O 0.3192 0.32581 0.14694 0.0
O339 O 0.35114 0.30717 0.15464 0.0
O340 O 0.26298 0.31714 0.14154 0.0
O341 O 0.31408 0.28518 0.1801 0.0
O342 O 0.28125 0.29607 0.16956 0.0
C343 C 0.3417 0.32523 0.14888 0.0
C344 C 0.30795 0.25002 0.14237 0.0
O345 O 0.29514 0.26847 0.1396 0.0
O346 O 0.32314 0.25092 0.15177 0.0
C347 C 0.26472 0.33231 0.13196 0.0
O348 O 0.28589 0.33719 0.12695 0.0
C349 C 0.2921 0.29047 0.18039 0.0
Zn350 Zn 0.47015 0.54918 0.93071 0.0
Zn351 Zn 0.4504 0.50951 0.92065 0.0
O352 O 0.4251 0.53617 0.9176 0.0
O353 O 0.44213 0.56943 0.92516 0.0
O354 O 0.43307 0.47989 0.91381 0.0
O355 O 0.47106 0.5349 0.94905 0.0
O356 O 0.45817 0.5005 0.94044 0.0
C357 C 0.42453 0.55899 0.91966 0.0
C358 C 0.49712 0.52847 0.90884 0.0
O359 O 0.47961 0.51371 0.90818 0.0
O360 O 0.49774 0.54449 0.91797 0.0
C361 C 0.42482 0.47949 0.90191 0.0
O362 O 0.42904 0.498 0.89394 0.0
C363 C 0.46553 0.51281 0.95048 0.0
Zn364 Zn 0.16528 0.70975 0.6617 0.0
Zn365 Zn 0.20317 0.69208 0.64888 0.0
O366 O 0.1771 0.66573 0.6464 0.0
O367 O 0.14485 0.68241 0.65504 0.0
O368 O 0.23263 0.67741 0.64035 0.0
O369 O 0.18199 0.70776 0.67948 0.0
O370 O 0.21445 0.69752 0.66838 0.0
C371 C 0.15481 0.66494 0.64899 0.0
C372 C 0.18394 0.74196 0.64145 0.0
O373 O 0.1978 0.72431 0.63865 0.0
O374 O 0.1691 0.74027 0.651 0.0
C375 C 0.23186 0.66165 0.63102 0.0
O376 O 0.21103 0.65499 0.62618 0.0
C377 C 0.20413 0.70312 0.67938 0.0
Zn378 Zn 0.02668 0.45287 0.43117 0.0
Zn379 Zn 0.04533 0.49147 0.41988 0.0
O380 O 0.06947 0.46407 0.41568 0.0
O381 O 0.05208 0.43132 0.42362 0.0
O382 O 0.06233 0.52084 0.41254 0.0
O383 O 0.03073 0.46633 0.44958 0.0
O384 O 0.04 0.50099 0.43987 0.0
C385 C 0.06928 0.44116 0.41744 0.0
C386 C 0.99624 0.47468 0.41108 0.0
O387 O 0.0144 0.48803 0.40883 0.0
O388 O 0.99652 0.45942 0.4206 0.0
C389 C 0.07051 0.52126 0.40063 0.0
O390 O 0.0665 0.50267 0.39267 0.0
C391 C 0.03549 0.48868 0.45041 0.0
Zn392 Zn 0.33851 0.70998 0.33143 0.0
Zn393 Zn 0.29726 0.6941 0.34188 0.0
O394 O 0.32059 0.66525 0.34421 0.0
O395 O 0.35432 0.67833 0.33546 0.0
O396 O 0.26626 0.68007 0.3487 0.0
O397 O 0.32258 0.71581 0.31358 0.0
O398 O 0.2888 0.70305 0.32242 0.0
C399 C 0.34246 0.66177 0.3412 0.0
C400 C 0.3217 0.73881 0.35376 0.0
O401 O 0.30401 0.72423 0.35368 0.0
O402 O 0.33862 0.73615 0.34545 0.0
C403 C 0.25944 0.68072 0.36088 0.0
O404 O 0.27284 0.69172 0.36985 0.0
C405 C 0.30047 0.71141 0.31245 0.0
Zn406 Zn 0.0237 0.55103 0.0584 0.0
Zn407 Zn 0.04434 0.51294 0.0702 0.0
O408 O 0.06779 0.5415 0.073 0.0
O409 O 0.05105 0.57288 0.0631 0.0
O410 O 0.06251 0.48493 0.0784 0.0
O411 O 0.02387 0.53422 0.04075 0.0
O412 O 0.03827 0.50153 0.05057 0.0
C413 C 0.06815 0.56385 0.06973 0.0
C414 C 0.9965 0.53121 0.08066 0.0
O415 O 0.01415 0.51675 0.0818 0.0
O416 O 0.99612 0.5468 0.07131 0.0
C417 C 0.07396 0.48814 0.0893 0.0
O418 O 0.0725 0.50924 0.09539 0.0
C419 C 0.03067 0.51239 0.04009 0.0
Zn420 Zn 0.16342 0.28324 0.82935 0.0
Zn421 Zn 0.20243 0.3025 0.8402 0.0
O422 O 0.17614 0.32779 0.84422 0.0
O423 O 0.14326 0.3097 0.83734 0.0
O424 O 0.23216 0.31878 0.84733 0.0
O425 O 0.17693 0.28622 0.81074 0.0
O426 O 0.21065 0.29773 0.82014 0.0
C427 C 0.15349 0.32757 0.84288 0.0
C428 C 0.18637 0.25191 0.84855 0.0
O429 O 0.19983 0.27016 0.85068 0.0
O430 O 0.17022 0.25278 0.83966 0.0
C431 C 0.23844 0.31828 0.85961 0.0
O432 O 0.22532 0.30625 0.86829 0.0
C433 C 0.19876 0.29185 0.8097 0.0
Zn434 Zn 0.48862 0.45403 0.56402 0.0
Zn435 Zn 0.46407 0.48992 0.57579 0.0
O436 O 0.44058 0.46133 0.57529 0.0
O437 O 0.45952 0.43229 0.56449 0.0
O438 O 0.4439 0.51668 0.58379 0.0
O439 O 0.49562 0.47485 0.54821 0.0
O440 O 0.47412 0.50406 0.55729 0.0
C441 C 0.44101 0.43993 0.57046 0.0
C442 C 0.50861 0.46921 0.58939 0.0
O443 O 0.49112 0.48404 0.58956 0.0
O444 O 0.51139 0.45481 0.5796 0.0
C445 C 0.43012 0.51221 0.59364 0.0
O446 O 0.43024 0.49039 0.59895 0.0
C447 C 0.48695 0.496 0.54768 0.0
H448 H 0.07442 0.3924 0.42039 0.0
H449 H 0.10061 0.3656 0.4079 0.0
H450 H 0.13283 0.42724 0.38826 0.0
H451 H 0.10592 0.45445 0.40056 0.0
H452 H 0.11879 0.39515 0.37046 0.0
H453 H 0.16882 0.34542 0.40911 0.0
H454 H 0.13774 0.34437 0.41328 0.0
H455 H 0.15304 0.3732 0.41285 0.0
C456 C 0.08737 0.4004 0.41362 0.0
C457 C 0.08794 0.42558 0.4114 0.0
C458 C 0.10259 0.385 0.40659 0.0
C459 C 0.11903 0.39438 0.3973 0.0
C460 C 0.12043 0.41962 0.39547 0.0
H461 H 0.18801 0.27372 0.35417 0.0
H462 H 0.18504 0.31161 0.36694 0.0
C463 C 0.10505 0.43513 0.40251 0.0
C464 C 0.13196 0.37743 0.3883 0.0
H465 H 0.15937 0.32219 0.38859 0.0
C466 C 0.12826 0.37953 0.3744 0.0
C467 C 0.14486 0.35731 0.39333 0.0
C468 C 0.15156 0.35515 0.40796 0.0
C469 C 0.13507 0.36094 0.36558 0.0
C470 C 0.14518 0.33945 0.37087 0.0
C471 C 0.15102 0.33839 0.38457 0.0
C472 C 0.14753 0.31713 0.36267 0.0
C473 C 0.13063 0.36425 0.35074 0.0
C474 C 0.12734 0.30743 0.35624 0.0
C475 C 0.12898 0.28594 0.34891 0.0
C476 C 0.15079 0.27344 0.34802 0.0
C477 C 0.17095 0.28294 0.35465 0.0
C478 C 0.16931 0.30461 0.36192 0.0
H479 H 0.13175 0.38371 0.34789 0.0
H480 H 0.14365 0.35384 0.3446 0.0
H481 H 0.11235 0.35787 0.34828 0.0
H482 H 0.11015 0.31632 0.35706 0.0
H483 H 0.11307 0.27902 0.34404 0.0
H484 H -0.00067 0.01151 0.64044 0.0
H485 H 0.9602 0.99399 0.64572 0.0
H486 H 0.96306 0.95176 0.60922 0.0
H487 H 0.00121 0.9704 0.6035 0.0
H488 H 0.91852 0.96317 0.61446 0.0
H489 H 0.96041 0.92782 0.66122 0.0
H490 H 0.95871 0.96025 0.66035 0.0
H491 H 0.97732 0.94387 0.64869 0.0
C492 C 0.9913 -0.00112 0.63343 0.0
C493 C 0.00344 0.992 0.62168 0.0
C494 C 0.96904 0.98876 0.63649 0.0
C495 C 0.95907 0.97089 0.62811 0.0
C496 C 0.97042 0.96537 0.6159 0.0
H497 H 0.89459 0.8394 0.64649 0.0
H498 H 0.91784 0.87539 0.64132 0.0
C499 C 0.9923 0.97599 0.61265 0.0
C500 C 0.93842 0.95595 0.63254 0.0
H501 H 0.92179 0.91485 0.6564 0.0
C502 C 0.91907 0.95276 0.62369 0.0
C503 C 0.93923 0.94228 0.64459 0.0
C504 C 0.96009 0.94351 0.65421 0.0
C505 C 0.90131 0.93528 0.62617 0.0
C506 C 0.90256 0.92122 0.63803 0.0
C507 C 0.92095 0.92564 0.6473 0.0
C508 C 0.88738 0.89953 0.64027 0.0
C509 C 0.88229 0.93097 0.61569 0.0
C510 C 0.86235 0.90096 0.64116 0.0
C511 C 0.84884 0.88008 0.6439 0.0
C512 C 0.86029 0.85772 0.64608 0.0
C513 C 0.88526 0.85642 0.64502 0.0
C514 C 0.89859 0.87701 0.64206 0.0
H515 H 0.88651 0.94016 0.60605 0.0
H516 H 0.88005 0.91127 0.61374 0.0
H517 H 0.865 0.93817 0.61941 0.0
H518 H 0.85333 0.91821 0.64004 0.0
H519 H 0.8296 0.88156 0.64471 0.0
H520 H 0.41905 0.60787 0.92188 0.0
H521 H 0.39116 0.63337 0.9098 0.0
H522 H 0.35656 0.56987 0.89348 0.0
H523 H 0.38529 0.54397 0.90526 0.0
H524 H 0.36815 0.59857 0.87422 0.0
H525 H 0.32425 0.65583 0.91186 0.0
H526 H 0.35568 0.65701 0.91507 0.0
H527 H 0.33997 0.62848 0.91652 0.0
C528 C 0.4052 0.5992 0.91599 0.0
C529 C 0.4046 0.57386 0.91442 0.0
C530 C 0.38896 0.61388 0.9092 0.0
C531 C 0.37143 0.60361 0.90088 0.0
C532 C 0.36982 0.57821 0.89993 0.0
H533 H 0.30782 0.72334 0.85444 0.0
H534 H 0.30785 0.68687 0.86855 0.0
C535 C 0.38626 0.56344 0.90666 0.0
C536 C 0.35789 0.61957 0.8916 0.0
H537 H 0.33369 0.67629 0.8902 0.0
C538 C 0.35992 0.61521 0.87775 0.0
C539 C 0.34649 0.64103 0.89607 0.0
C540 C 0.34125 0.64564 0.91071 0.0
C541 C 0.35332 0.63288 0.86834 0.0
C542 C 0.34521 0.65573 0.87294 0.0
C543 C 0.34061 0.65904 0.88668 0.0
C544 C 0.34438 0.67711 0.86394 0.0
C545 C 0.35609 0.62722 0.85359 0.0
C546 C 0.36502 0.68394 0.85689 0.0
C547 C 0.36505 0.70458 0.84882 0.0
C548 C 0.34453 0.71912 0.84779 0.0
C549 C 0.32392 0.71249 0.85501 0.0
C550 C 0.32386 0.69164 0.86304 0.0
H551 H 0.35302 0.60762 0.85163 0.0
H552 H 0.34349 0.63795 0.84735 0.0
H553 H 0.37462 0.63148 0.85041 0.0
H554 H 0.38133 0.6735 0.85779 0.0
H555 H 0.3813 0.70928 0.84351 0.0
H556 H 0.49756 0.0006 0.14328 0.0
H557 H 0.53526 0.02193 0.14735 0.0
H558 H 0.53334 0.05058 0.10703 0.0
H559 H 0.49639 0.02848 0.1027 0.0
H560 H 0.57858 0.0417 0.11468 0.0
H561 H 0.53105 0.09341 0.1545 0.0
H562 H 0.53269 0.06139 0.15756 0.0
H563 H 0.51582 0.07262 0.14348 0.0
C564 C 0.50544 0.01108 0.13522 0.0
C565 C 0.49382 0.0132 0.12275 0.0
C566 C 0.52691 0.02334 0.13757 0.0
C567 C 0.53672 0.03843 0.12762 0.0
C568 C 0.52602 0.03917 0.11488 0.0
H569 H 0.60856 0.17242 0.13841 0.0
H570 H 0.58247 0.13831 0.1332 0.0
C571 C 0.50483 0.02656 0.11244 0.0
C572 C 0.55659 0.05531 0.13077 0.0
H573 H 0.571 0.10372 0.15054 0.0
C574 C 0.57705 0.05519 0.12257 0.0
C575 C 0.55437 0.07311 0.14095 0.0
C576 C 0.53223 0.07537 0.14955 0.0
C577 C 0.59506 0.07277 0.12408 0.0
C578 C 0.59277 0.09051 0.13427 0.0
C579 C 0.57272 0.09008 0.14273 0.0
C580 C 0.6098 0.11093 0.13585 0.0
C581 C 0.61579 0.07283 0.11439 0.0
C582 C 0.63405 0.10696 0.13875 0.0
C583 C 0.64918 0.12659 0.14152 0.0
C584 C 0.6401 0.15037 0.14172 0.0
C585 C 0.61601 0.15428 0.13844 0.0
C586 C 0.60108 0.13479 0.13547 0.0
H587 H 0.61198 0.0618 0.10529 0.0
H588 H 0.62025 0.0916 0.11121 0.0
H589 H 0.6317 0.06499 0.11941 0.0
H590 H 0.64108 0.08869 0.13936 0.0
H591 H 0.66766 0.12309 0.1441 0.0
H592 H 0.18178 0.73864 0.12983 0.0
H593 H 0.17388 0.7058 0.11384 0.0
H594 H 0.10949 0.68751 0.13535 0.0
H595 H 0.11695 0.72039 0.15123 0.0
H596 H 0.16714 0.65526 0.11735 0.0
H597 H 0.08635 0.69998 0.0969 0.0
H598 H 0.10773 0.71576 0.1073 0.0
H599 H 0.08537 0.69663 0.11483 0.0
C600 C 0.16597 0.72759 0.13118 0.0
C601 C 0.14983 0.73232 0.14172 0.0
C602 C 0.16153 0.70881 0.12205 0.0
C603 C 0.14092 0.69455 0.12331 0.0
C604 C 0.12526 0.69867 0.13407 0.0
H605 H 0.09413 0.55857 0.09273 0.0
H606 H 0.11703 0.5902 0.10411 0.0
C607 C 0.12959 0.71744 0.14315 0.0
C608 C 0.13521 0.67574 0.1132 0.0
H609 H 0.09123 0.65802 0.09171 0.0
C610 C 0.15071 0.65592 0.11159 0.0
C611 C 0.11406 0.67697 0.1055 0.0
C612 C 0.09754 0.6986 0.10609 0.0
C613 C 0.14495 0.63666 0.10291 0.0
C614 C 0.12295 0.63713 0.09591 0.0
C615 C 0.10806 0.65753 0.09711 0.0
C616 C 0.11396 0.61631 0.08793 0.0
C617 C 0.16244 0.61604 0.10137 0.0
C618 C 0.10494 0.62021 0.07495 0.0
C619 C 0.09134 0.60238 0.06858 0.0
C620 C 0.08679 0.58018 0.07501 0.0
C621 C 0.09752 0.57546 0.0875 0.0
C622 C 0.11076 0.59351 0.09399 0.0
H623 H 0.18104 0.62222 0.10325 0.0
H624 H 0.15824 0.60178 0.10888 0.0
H625 H 0.1615 0.60788 0.09119 0.0
H626 H 0.10722 0.63763 0.07006 0.0
H627 H 0.0834 0.60642 0.05891 0.0
H628 H 0.49568 0.969 0.38908 0.0
H629 H 0.53401 0.94945 0.38518 0.0
H630 H 0.53906 0.98442 0.34647 0.0
H631 H 0.49985 0.00295 0.35004 0.0
H632 H 0.54562 0.93982 0.34321 0.0
H633 H 0.60263 0.96455 0.38604 0.0
H634 H 0.57506 0.95278 0.39238 0.0
H635 H 0.57506 0.98033 0.38256 0.0
C636 C 0.50521 0.973 0.37987 0.0
C637 C 0.49469 0.98735 0.36982 0.0
C638 C 0.52733 0.96199 0.3777 0.0
C639 C 0.53975 0.96568 0.3656 0.0
C640 C 0.52989 0.98129 0.3559 0.0
H641 H 0.66859 0.87542 0.35191 0.0
H642 H 0.64402 0.9116 0.35628 0.0
C643 C 0.50748 0.99186 0.35794 0.0
C644 C 0.5608 0.95034 0.36228 0.0
H645 H 0.61089 0.92473 0.37585 0.0
C646 C 0.56017 0.93706 0.35024 0.0
C647 C 0.58016 0.94685 0.37125 0.0
C648 C 0.58337 0.96215 0.38369 0.0
C649 C 0.57728 0.91929 0.34739 0.0
C650 C 0.59505 0.91396 0.35705 0.0
C651 C 0.59686 0.92841 0.36861 0.0
C652 C 0.6104 0.89222 0.35569 0.0
C653 C 0.57577 0.90598 0.33415 0.0
C654 C 0.59969 0.86932 0.35449 0.0
C655 C 0.61352 0.84888 0.35186 0.0
C656 C 0.63845 0.85079 0.35065 0.0
C657 C 0.64939 0.87346 0.35274 0.0
C658 C 0.63541 0.8941 0.35521 0.0
H659 H 0.56722 0.9174 0.32631 0.0
H660 H 0.59371 0.90039 0.33054 0.0
H661 H 0.56462 0.88949 0.33542 0.0
H662 H 0.58048 0.86735 0.35525 0.0
H663 H 0.60459 0.83159 0.35055 0.0
H664 H 0.31989 0.26364 0.6244 0.0
H665 H 0.32849 0.29445 0.60728 0.0
H666 H 0.39039 0.31736 0.62974 0.0
H667 H 0.38225 0.28661 0.64671 0.0
H668 H 0.33374 0.34547 0.60885 0.0
H669 H 0.41738 0.30098 0.59257 0.0
H670 H 0.39535 0.28575 0.60278 0.0
H671 H 0.41681 0.30587 0.61038 0.0
C672 C 0.33529 0.2753 0.6257 0.0
C673 C 0.35056 0.27249 0.63684 0.0
C674 C 0.34014 0.29288 0.61593 0.0
C675 C 0.36032 0.3078 0.61714 0.0
C676 C 0.37502 0.30562 0.62848 0.0
H677 H 0.40845 0.44291 0.59073 0.0
H678 H 0.38333 0.41023 0.59911 0.0
C679 C 0.37029 0.28807 0.63819 0.0
C680 C 0.36657 0.32551 0.60655 0.0
H681 H 0.41347 0.34326 0.58715 0.0
C682 C 0.35098 0.34485 0.60388 0.0
C683 C 0.38873 0.32426 0.59979 0.0
C684 C 0.40541 0.30295 0.60141 0.0
C685 C 0.35779 0.36395 0.59535 0.0
C686 C 0.38096 0.36386 0.58964 0.0
C687 C 0.39577 0.34359 0.59159 0.0
C688 C 0.39149 0.38536 0.58287 0.0
C689 C 0.3402 0.38412 0.59272 0.0
C690 C 0.40429 0.38256 0.57082 0.0
C691 C 0.41926 0.40105 0.56621 0.0
C692 C 0.42145 0.4228 0.57348 0.0
C693 C 0.40704 0.42641 0.58487 0.0
C694 C 0.39245 0.40774 0.58962 0.0
H695 H 0.32158 0.37716 0.59289 0.0
H696 H 0.34177 0.39794 0.60079 0.0
H697 H 0.3435 0.39301 0.58289 0.0
H698 H 0.40384 0.36549 0.56542 0.0
H699 H 0.43003 0.39784 0.55734 0.0
H700 H 0.00591 0.01618 0.84699 0.0
H701 H 0.96543 0.03229 0.84564 0.0
H702 H 0.95163 0.00845 0.88619 0.0
H703 H 0.99256 0.99312 0.88782 0.0
H704 H 0.92014 0.01527 0.84836 0.0
H705 H 0.94122 0.08038 0.88958 0.0
H706 H 0.96382 0.06165 0.88194 0.0
H707 H 0.94323 0.04881 0.89384 0.0
C708 C 0.99419 0.01404 0.85557 0.0
C709 C 0.00257 0.00376 0.86759 0.0
C710 C 0.971 0.02321 0.85477 0.0
C711 C 0.95569 0.02208 0.86593 0.0
C712 C 0.96337 0.01012 0.87759 0.0
H713 H 0.83181 0.12115 0.86824 0.0
H714 H 0.85357 0.08357 0.87363 0.0
C715 C 0.98672 0.00126 0.87847 0.0
C716 C 0.9327 0.03541 0.86553 0.0
H717 H 0.90533 0.0859 0.87813 0.0
C718 C 0.91665 0.03042 0.85504 0.0
C719 C 0.92809 0.05514 0.8743 0.0
C720 C 0.94502 0.06202 0.8855 0.0
C721 C 0.89699 0.04556 0.85256 0.0
C722 C 0.89335 0.0661 0.86078 0.0
C723 C 0.9082 0.07 0.8719 0.0
C724 C 0.87749 0.08614 0.85661 0.0
C725 C 0.88094 0.0402 0.84076 0.0
C726 C 0.88375 0.09979 0.84528 0.0
C727 C 0.87178 0.12128 0.84235 0.0
C728 C 0.85315 0.12945 0.85065 0.0
C729 C 0.84605 0.11517 0.86165 0.0
C730 C 0.8584 0.09376 0.86473 0.0
H731 H 0.88142 0.02065 0.83804 0.0
H732 H 0.8622 0.04552 0.84294 0.0
H733 H 0.88715 0.05076 0.83193 0.0
H734 H 0.89873 0.09445 0.83904 0.0
H735 H 0.87755 0.13186 0.83377 0.0
H736 H 0.87817 0.55781 0.63858 0.0
H737 H 0.85541 0.59504 0.6356 0.0
H738 H 0.8523 0.5823 0.59285 0.0
H739 H 0.87587 0.54531 0.59571 0.0
H740 H 0.86654 0.62611 0.59726 0.0
H741 H 0.78748 0.61226 0.62899 0.0
H742 H 0.81348 0.60558 0.63878 0.0
H743 H 0.80669 0.58741 0.62417 0.0
C744 C 0.87231 0.56267 0.62857 0.0
C745 C 0.87894 0.54865 0.61738 0.0
C746 C 0.85902 0.58387 0.62688 0.0
C747 C 0.85165 0.59127 0.61402 0.0
C748 C 0.85759 0.57687 0.60288 0.0
H749 H 0.78816 0.73557 0.62536 0.0
H750 H 0.78983 0.69547 0.61451 0.0
C751 C 0.87113 0.55577 0.60454 0.0
C752 C 0.84061 0.61553 0.6122 0.0
H753 H 0.80207 0.65454 0.62759 0.0
C754 C 0.85194 0.63213 0.6036 0.0
C755 C 0.82104 0.62341 0.62008 0.0
C756 C 0.80633 0.60607 0.62838 0.0
C757 C 0.84606 0.65684 0.60386 0.0
C758 C 0.82891 0.6652 0.61321 0.0
C759 C 0.81563 0.64825 0.62062 0.0
C760 C 0.82792 0.691 0.61735 0.0
C761 C 0.85923 0.67393 0.59463 0.0
C762 C 0.84876 0.70186 0.62236 0.0
C763 C 0.84783 0.72448 0.62854 0.0
C764 C 0.826 0.73675 0.62995 0.0
C765 C 0.80525 0.72655 0.62433 0.0
C766 C 0.80617 0.70366 0.61817 0.0
H767 H 0.8633 0.66494 0.5849 0.0
H768 H 0.84877 0.69067 0.59265 0.0
H769 H 0.87651 0.67907 0.5993 0.0
H770 H 0.86563 0.69225 0.62219 0.0
H771 H 0.86414 0.73189 0.63272 0.0
H772 H 0.16034 0.14406 0.35543 0.0
H773 H 0.14224 0.11084 0.3682 0.0
H774 H 0.08218 0.11032 0.34111 0.0
H775 H 0.09995 0.14361 0.32834 0.0
H776 H 0.09444 0.11965 0.37947 0.0
H777 H 0.09836 0.03646 0.348 0.0
H778 H 0.11935 0.06121 0.3462 0.0
H779 H 0.08968 0.06394 0.33954 0.0
C780 C 0.14356 0.1365 0.35199 0.0
C781 C 0.13146 0.14662 0.34095 0.0
C782 C 0.13329 0.11749 0.35928 0.0
C783 C 0.11102 0.108 0.3555 0.0
C784 C 0.09957 0.11713 0.34404 0.0
H785 H 0.99363 0.02987 0.38851 0.0
H786 H 0.02551 0.0449 0.37384 0.0
C787 C 0.10967 0.1363 0.33684 0.0
C788 C 0.09795 0.09153 0.36463 0.0
H789 H 0.0718 0.03568 0.36673 0.0
C790 C 0.08981 0.10113 0.37682 0.0
C791 C 0.09168 0.0676 0.36097 0.0
C792 C 0.10032 0.05652 0.348 0.0
C793 C 0.07469 0.08782 0.38527 0.0
C794 C 0.06827 0.0638 0.38165 0.0
C795 C 0.07691 0.05397 0.36955 0.0
C796 C 0.05123 0.04954 0.3899 0.0
C797 C 0.06469 0.10024 0.39758 0.0
C798 C 0.0556 0.0457 0.40362 0.0
C799 C 0.03727 0.03768 0.41203 0.0
C800 C 0.01455 0.03254 0.40676 0.0
C801 C 0.01102 0.03366 0.3928 0.0
C802 C 0.02921 0.04229 0.38443 0.0
H803 H 0.06637 0.1203 0.39695 0.0
H804 H 0.04554 0.09569 0.39903 0.0
H805 H 0.07473 0.09418 0.40659 0.0
H806 H 0.0727 0.05044 0.40798 0.0
H807 H 0.04049 0.03669 0.42275 0.0
H808 H 0.61981 0.44575 0.09208 0.0
H809 H 0.64541 0.41012 0.0891 0.0
H810 H 0.65546 0.40591 0.132 0.0
H811 H 0.63035 0.44163 0.13507 0.0
H812 H 0.69776 0.39707 0.11671 0.0
H813 H 0.62007 0.3424 0.09879 0.0
H814 H 0.62742 0.36969 0.08982 0.0
H815 H 0.6161 0.37161 0.10665 0.0
C816 C 0.62766 0.43738 0.10088 0.0
C817 C 0.6228 0.44637 0.11384 0.0
C818 C 0.64225 0.41701 0.09914 0.0
C819 C 0.65206 0.40524 0.11034 0.0
C820 C 0.64805 0.41477 0.12322 0.0
H821 H 0.69235 0.29007 0.15151 0.0
H822 H 0.69116 0.32886 0.13989 0.0
C823 C 0.63358 0.43513 0.12496 0.0
C824 C 0.66501 0.38195 0.10902 0.0
H825 H 0.65433 0.32142 0.10521 0.0
C826 C 0.68852 0.38055 0.11385 0.0
C827 C 0.65305 0.36046 0.10507 0.0
C828 C 0.62774 0.3609 0.09984 0.0
C829 C 0.69958 0.35806 0.11599 0.0
C830 C 0.68665 0.33653 0.1134 0.0
C831 C 0.66418 0.33798 0.10721 0.0
C832 C 0.69312 0.31333 0.11993 0.0
C833 C 0.72443 0.35749 0.12182 0.0
C834 C 0.69495 0.29162 0.11257 0.0
C835 C 0.69586 0.26924 0.11928 0.0
C836 C 0.69427 0.2685 0.13335 0.0
C837 C 0.69363 0.29026 0.14064 0.0
C838 C 0.69318 0.31244 0.134 0.0
H839 H 0.73499 0.37339 0.11839 0.0
H840 H 0.72326 0.35839 0.13294 0.0
H841 H 0.73401 0.3406 0.11898 0.0
H842 H 0.69454 0.29194 0.10169 0.0
H843 H 0.69614 0.2526 0.11349 0.0
H844 H 0.48826 0.98341 0.89474 0.0
H845 H 0.45627 0.97325 0.87883 0.0
H846 H 0.44302 0.90673 0.90042 0.0
H847 H 0.47388 0.91707 0.91646 0.0
H848 H 0.45476 0.93767 0.862 0.0
H849 H 0.37622 0.92675 0.89427 0.0
H850 H 0.40295 0.94164 0.9002 0.0
H851 H 0.39978 0.90909 0.90145 0.0
C852 C 0.47811 0.9669 0.89624 0.0
C853 C 0.48363 0.95108 0.90689 0.0
C854 C 0.45985 0.96112 0.88715 0.0
C855 C 0.44681 0.93946 0.88857 0.0
C856 C 0.45211 0.92396 0.89934 0.0
H857 H 0.41018 0.83138 0.83577 0.0
H858 H 0.42722 0.86602 0.84739 0.0
C859 C 0.47006 0.92981 0.90846 0.0
C860 C 0.42973 0.93123 0.87809 0.0
H861 H 0.37833 0.8986 0.87489 0.0
C862 C 0.43771 0.92974 0.86474 0.0
C863 C 0.40704 0.92163 0.88143 0.0
C864 C 0.39595 0.92518 0.89511 0.0
C865 C 0.42485 0.91663 0.85506 0.0
C866 C 0.40399 0.90391 0.85897 0.0
C867 C 0.39468 0.90768 0.87191 0.0
C868 C 0.39343 0.88435 0.85055 0.0
C869 C 0.4342 0.91601 0.84085 0.0
C870 C 0.36859 0.88258 0.84872 0.0
C871 C 0.35867 0.86227 0.84236 0.0
C872 C 0.37344 0.84346 0.83764 0.0
C873 C 0.3983 0.84565 0.83914 0.0
C874 C 0.40813 0.86568 0.84567 0.0
H875 H 0.44254 0.93365 0.83817 0.0
H876 H 0.44828 0.90192 0.84003 0.0
H877 H 0.41985 0.91197 0.83348 0.0
H878 H 0.35684 0.89662 0.85249 0.0
H879 H 0.33944 0.86111 0.84134 0.0
H880 H 0.88631 0.44284 0.89904 0.0
H881 H 0.86772 0.40295 0.90149 0.0
H882 H 0.84977 0.40292 0.85937 0.0
H883 H 0.86856 0.44269 0.85673 0.0
H884 H 0.82082 0.38073 0.8943 0.0
H885 H 0.89893 0.34659 0.86545 0.0
H886 H 0.89808 0.37659 0.8727 0.0
H887 H 0.88238 0.37034 0.85733 0.0
C888 C 0.87801 0.43459 0.89033 0.0
C889 C 0.87932 0.44574 0.87762 0.0
C890 C 0.86728 0.41186 0.89179 0.0
C891 C 0.85767 0.39998 0.88058 0.0
C892 C 0.85731 0.41182 0.86811 0.0
H893 H 0.78976 0.26364 0.8666 0.0
H894 H 0.79574 0.30529 0.87435 0.0
C895 C 0.86811 0.4345 0.86662 0.0
C896 C 0.85112 0.37407 0.88148 0.0
H897 H 0.86842 0.31848 0.87024 0.0
C898 C 0.83121 0.367 0.88912 0.0
C899 C 0.86509 0.35628 0.87496 0.0
C900 C 0.88744 0.36271 0.86724 0.0
C901 C 0.82448 0.34244 0.89005 0.0
C902 C 0.83794 0.32476 0.88304 0.0
C903 C 0.85814 0.33197 0.87568 0.0
C904 C 0.83115 0.29878 0.88236 0.0
C905 C 0.8032 0.33568 0.89854 0.0
C906 C 0.84859 0.28099 0.88479 0.0
C907 C 0.84544 0.25741 0.88003 0.0
C908 C 0.82457 0.25111 0.87306 0.0
C909 C 0.8059 0.26804 0.87209 0.0
C910 C 0.80929 0.29186 0.87657 0.0
H911 H 0.79997 0.34935 0.90655 0.0
H912 H 0.78706 0.33502 0.89208 0.0
H913 H 0.8056 0.31761 0.90327 0.0
H914 H 0.86556 0.2859 0.88928 0.0
H915 H 0.86006 0.24462 0.88089 0.0
H916 H 0.34409 0.14767 0.63674 0.0
H917 H 0.36554 0.11316 0.62726 0.0
H918 H 0.41236 0.11219 0.66172 0.0
H919 H 0.39165 0.14752 0.67091 0.0
H920 H 0.43731 0.1141 0.64028 0.0
H921 H 0.37065 0.04204 0.63203 0.0
H922 H 0.36061 0.06973 0.62451 0.0
H923 H 0.36451 0.06808 0.64248 0.0
C924 C 0.35856 0.13971 0.64245 0.0
C925 C 0.36633 0.1504 0.6545 0.0
C926 C 0.37072 0.11978 0.63708 0.0
C927 C 0.39044 0.10977 0.64383 0.0
C928 C 0.39719 0.11953 0.65632 0.0
H929 H 0.5023 0.01867 0.60712 0.0
H930 H 0.4732 0.03126 0.62423 0.0
C931 C 0.38537 0.13974 0.66155 0.0
C932 C 0.40614 0.0919 0.63696 0.0
H933 H 0.40557 0.04109 0.61723 0.0
C934 C 0.43045 0.09777 0.63558 0.0
C935 C 0.39728 0.07055 0.63077 0.0
C936 C 0.37187 0.06213 0.63266 0.0
C937 C 0.44573 0.08381 0.62756 0.0
C938 C 0.43649 0.06343 0.6207 0.0
C939 C 0.41253 0.05679 0.62252 0.0
C940 C 0.45089 0.05109 0.61031 0.0
C941 C 0.47136 0.09176 0.6258 0.0
C942 C 0.44736 0.05736 0.59682 0.0
C943 C 0.46396 0.05046 0.5871 0.0
C944 C 0.4843 0.03698 0.5907 0.0
C945 C 0.48678 0.02901 0.60405 0.0
C946 C 0.47021 0.03617 0.61383 0.0
H947 H 0.47534 0.10891 0.63122 0.0
H948 H 0.48347 0.07742 0.62965 0.0
H949 H 0.47539 0.09437 0.61497 0.0
H950 H 0.43257 0.06894 0.59395 0.0
H951 H 0.46148 0.0567 0.57688 0.0
H952 H 0.68742 0.74062 0.37771 0.0
H953 H 0.6829 0.70055 0.38851 0.0
H954 H 0.66925 0.66829 0.34976 0.0
H955 H 0.67325 0.70779 0.33911 0.0
H956 H 0.63847 0.6734 0.38553 0.0
H957 H 0.71597 0.6201 0.36801 0.0
H958 H 0.71628 0.65288 0.36899 0.0
H959 H 0.70298 0.63784 0.35477 0.0
C960 C 0.68399 0.7248 0.37154 0.0
C961 C 0.68051 0.7272 0.35762 0.0
C962 C 0.68143 0.70202 0.37769 0.0
C963 C 0.6761 0.68146 0.36988 0.0
C964 C 0.67383 0.68382 0.35593 0.0
H965 H 0.61137 0.55108 0.35683 0.0
H966 H 0.63559 0.58777 0.35848 0.0
C967 C 0.6759 0.70644 0.34987 0.0
C968 C 0.66949 0.65801 0.37605 0.0
H969 H 0.67915 0.59745 0.37169 0.0
C970 C 0.6477 0.65673 0.38297 0.0
C971 C 0.68163 0.6364 0.37266 0.0
C972 C 0.70565 0.63685 0.36581 0.0
C973 C 0.63647 0.63434 0.38529 0.0
C974 C 0.64766 0.61278 0.38078 0.0
C975 C 0.6705 0.61401 0.37501 0.0
C976 C 0.6346 0.58944 0.38021 0.0
C977 C 0.61183 0.63412 0.39145 0.0
C978 C 0.62635 0.57798 0.39189 0.0
C979 C 0.61228 0.55707 0.39098 0.0
C980 C 0.60641 0.54716 0.37835 0.0
C981 C 0.61545 0.55826 0.3667 0.0
C982 C 0.62939 0.57918 0.36763 0.0
H983 H 0.60429 0.65266 0.39253 0.0
H984 H 0.5994 0.6231 0.38525 0.0
H985 H 0.61272 0.62579 0.40159 0.0
H986 H 0.63051 0.58538 0.4017 0.0
H987 H 0.60578 0.54884 0.40016 0.0
H988 H 0.16799 0.86257 0.14139 0.0
H989 H 0.15075 0.89772 0.12996 0.0
H990 H 0.08849 0.89339 0.15534 0.0
H991 H 0.10549 0.85824 0.16682 0.0
H992 H 0.10587 0.89017 0.11679 0.0
H993 H 0.10179 0.96781 0.15225 0.0
H994 H 0.1229 0.94318 0.15408 0.0
H995 H 0.0923 0.93912 0.159 0.0
C996 C 0.1509 0.86946 0.14479 0.0
C997 C 0.13798 0.85742 0.15491 0.0
C998 C 0.14113 0.8896 0.13827 0.0
C999 C 0.11848 0.89828 0.14191 0.0
C1000 C 0.1062 0.88726 0.15256 0.0
H1001 H 0.00052 0.97216 0.10791 0.0
H1002 H 0.03207 0.95886 0.12328 0.0
C1003 C 0.11586 0.86701 0.15902 0.0
C1004 C 0.10587 0.91571 0.13312 0.0
H1005 H 0.07692 0.97024 0.13273 0.0
C1006 C 0.09992 0.9079 0.12016 0.0
C1007 C 0.09785 0.93857 0.13768 0.0
C1008 C 0.10416 0.94784 0.15148 0.0
C1009 C 0.08521 0.9218 0.11179 0.0
C1010 C 0.07697 0.94471 0.11633 0.0
C1011 C 0.08345 0.95285 0.12921 0.0
C1012 C 0.05994 0.95916 0.10819 0.0
C1013 C 0.07752 0.91101 0.09851 0.0
C1014 C 0.06551 0.96544 0.09489 0.0
C1015 C 0.04742 0.9724 0.08604 0.0
C1016 C 0.02371 0.97414 0.09053 0.0
C1017 C 0.01872 0.97105 0.10425 0.0
C1018 C 0.03673 0.9634 0.11302 0.0
H1019 H 0.08054 0.8911 0.09812 0.0
H1020 H 0.05829 0.9145 0.09658 0.0
H1021 H 0.08806 0.91936 0.09028 0.0
H1022 H 0.08346 0.963 0.09106 0.0
H1023 H 0.05167 0.97486 0.07551 0.0
H1024 H 0.68171 0.7603 0.85725 0.0
H1025 H 0.67801 0.7933 0.87362 0.0
H1026 H 0.60915 0.81198 0.85722 0.0
H1027 H 0.61252 0.77906 0.8409 0.0
H1028 H 0.66979 0.84497 0.86952 0.0
H1029 H 0.59721 0.79936 0.89782 0.0
H1030 H 0.61617 0.78344 0.88608 0.0
H1031 H 0.59166 0.80151 0.88008 0.0
C1032 C 0.66578 0.77145 0.85711 0.0
C1033 C 0.64729 0.76691 0.84784 0.0
C1034 C 0.66377 0.79032 0.86643 0.0
C1035 C 0.64322 0.80482 0.86668 0.0
C1036 C 0.62502 0.80072 0.85727 0.0
H1037 H 0.59984 0.93953 0.89893 0.0
H1038 H 0.62152 0.90864 0.88629 0.0
C1039 C 0.62699 0.78192 0.84795 0.0
C1040 C 0.64027 0.82386 0.877 0.0
H1041 H 0.60314 0.84135 0.90228 0.0
C1042 C 0.65544 0.84414 0.87683 0.0
C1043 C 0.62186 0.82241 0.88666 0.0
C1044 C 0.60592 0.80041 0.8878 0.0
C1045 C 0.65185 0.86367 0.88569 0.0
C1046 C 0.63242 0.86289 0.89477 0.0
C1047 C 0.61802 0.84203 0.89531 0.0
C1048 C 0.62518 0.88395 0.9031 0.0
C1049 C 0.66875 0.88496 0.88517 0.0
C1050 C 0.62062 0.88072 0.91685 0.0
C1051 C 0.6078 0.89814 0.92402 0.0
C1052 C 0.59949 0.91919 0.91758 0.0
C1053 C 0.60612 0.92353 0.90418 0.0
C1054 C 0.61865 0.9059 0.89694 0.0
H1055 H 0.68666 0.87935 0.88149 0.0
H1056 H 0.66165 0.89868 0.87806 0.0
H1057 H 0.67076 0.89359 0.89518 0.0
H1058 H 0.62553 0.86395 0.92181 0.0
H1059 H 0.6031 0.89442 0.93437 0.0
H1060 H 0.50139 0.49411 0.14691 0.0
H1061 H 0.46359 0.47294 0.15094 0.0
H1062 H 0.46541 0.4444 0.11058 0.0
H1063 H 0.50239 0.46647 0.10627 0.0
H1064 H 0.42058 0.45313 0.11791 0.0
H1065 H 0.46656 0.40187 0.1584 0.0
H1066 H 0.46499 0.4339 0.16142 0.0
H1067 H 0.48222 0.42251 0.1475 0.0
C1068 C 0.49346 0.48367 0.13883 0.0
C1069 C 0.50502 0.48164 0.12635 0.0
C1070 C 0.47196 0.47148 0.14117 0.0
C1071 C 0.46207 0.45645 0.1312 0.0
C1072 C 0.47277 0.45573 0.11846 0.0
H1073 H 0.3887 0.32332 0.14252 0.0
H1074 H 0.41541 0.35706 0.13762 0.0
C1075 C 0.49396 0.46834 0.11602 0.0
C1076 C 0.44198 0.43977 0.13429 0.0
H1077 H 0.42649 0.39208 0.15432 0.0
C1078 C 0.42177 0.43984 0.12591 0.0
C1079 C 0.44373 0.42221 0.14463 0.0
C1080 C 0.46561 0.41988 0.15342 0.0
C1081 C 0.40357 0.42244 0.12736 0.0
C1082 C 0.40536 0.40497 0.13772 0.0
C1083 C 0.42515 0.40549 0.14637 0.0
C1084 C 0.3881 0.38472 0.13929 0.0
C1085 C 0.38324 0.42225 0.11741 0.0
C1086 C 0.36366 0.38894 0.14155 0.0
C1087 C 0.34817 0.36949 0.1441 0.0
C1088 C 0.35706 0.34566 0.14475 0.0
C1089 C 0.38139 0.34151 0.1422 0.0
C1090 C 0.39667 0.36079 0.13941 0.0
H1091 H 0.38762 0.43275 0.1082 0.0
H1092 H 0.37855 0.40343 0.11443 0.0
H1093 H 0.36728 0.43066 0.1221 0.0
H1094 H 0.3567 0.40725 0.14178 0.0
H1095 H 0.32951 0.37317 0.14612 0.0
H1096 H 0.89653 0.05974 0.40072 0.0
H1097 H 0.87659 0.09212 0.38823 0.0
H1098 H 0.88974 0.1418 0.42089 0.0
H1099 H 0.91036 0.10975 0.43328 0.0
H1100 H 0.83951 0.12553 0.39189 0.0
H1101 H 0.9283 0.17053 0.38997 0.0
H1102 H 0.92442 0.13996 0.39601 0.0
H1103 H 0.91729 0.16533 0.40666 0.0
C1104 C 0.89468 0.0774 0.40538 0.0
C1105 C 0.90543 0.08236 0.41785 0.0
C1106 C 0.88328 0.09588 0.39823 0.0
C1107 C 0.88229 0.11947 0.40351 0.0
C1108 C 0.89088 0.12384 0.41652 0.0
H1109 H 0.81718 0.24417 0.36303 0.0
H1110 H 0.82499 0.21067 0.37856 0.0
C1111 C 0.90257 0.10549 0.4236 0.0
C1112 C 0.87489 0.1399 0.39481 0.0
H1113 H 0.89622 0.19127 0.37995 0.0
C1114 C 0.85182 0.13999 0.3893 0.0
C1115 C 0.89121 0.15845 0.39127 0.0
C1116 C 0.91676 0.15854 0.39617 0.0
C1117 C 0.8446 0.15823 0.38031 0.0
C1118 C 0.86082 0.17699 0.37698 0.0
C1119 C 0.8838 0.17692 0.38258 0.0
C1120 C 0.85493 0.19643 0.36728 0.0
C1121 C 0.82003 0.15683 0.37414 0.0
C1122 C 0.86941 0.19978 0.35592 0.0
C1123 C 0.86527 0.21907 0.34718 0.0
C1124 C 0.84647 0.23539 0.34959 0.0
C1125 C 0.83173 0.23182 0.36086 0.0
C1126 C 0.83604 0.21259 0.36969 0.0
H1127 H 0.81225 0.13835 0.37505 0.0
H1128 H 0.808 0.16968 0.37942 0.0
H1129 H 0.82052 0.16193 0.36335 0.0
H1130 H 0.88413 0.18754 0.3539 0.0
H1131 H 0.87688 0.22123 0.33855 0.0
H1132 H 0.1068 0.66315 0.64551 0.0
H1133 H 0.08202 0.6275 0.64171 0.0
H1134 H 0.14487 0.58223 0.64101 0.0
H1135 H 0.17007 0.61829 0.64438 0.0
H1136 H 0.11245 0.56805 0.6222 0.0
H1137 H 0.06697 0.57942 0.67092 0.0
H1138 H 0.06453 0.60665 0.66121 0.0
H1139 H 0.09353 0.59623 0.66658 0.0
C1140 C 0.11541 0.64564 0.64449 0.0
C1141 C 0.14035 0.64345 0.64544 0.0
C1142 C 0.10121 0.62525 0.6424 0.0
C1143 C 0.11153 0.60212 0.64153 0.0
C1144 C 0.13653 0.5999 0.64184 0.0
H1145 H -0.00055 0.49293 0.64821 0.0
H1146 H 0.03856 0.51154 0.652 0.0
C1147 C 0.15088 0.62048 0.64374 0.0
C1148 C 0.09587 0.58051 0.64048 0.0
H1149 H 0.04558 0.55618 0.65421 0.0
C1150 C 0.09807 0.5651 0.62932 0.0
C1151 C 0.07763 0.57609 0.65 0.0
C1152 C 0.07571 0.59032 0.66293 0.0
C1153 C 0.08134 0.54657 0.6269 0.0
C1154 C 0.06153 0.54398 0.63566 0.0
C1155 C 0.06046 0.55826 0.64733 0.0
C1156 C 0.04052 0.52852 0.6324 0.0
C1157 C 0.08507 0.53017 0.61495 0.0
C1158 C 0.02885 0.53116 0.61999 0.0
C1159 C 0.0068 0.52006 0.61771 0.0
C1160 C 0.99557 0.50671 0.62794 0.0
C1161 C 0.00762 0.50323 0.64017 0.0
C1162 C 0.02998 0.51386 0.64233 0.0
H1163 H 0.10442 0.5274 0.61301 0.0
H1164 H 0.07651 0.51219 0.61641 0.0
H1165 H 0.07735 0.53886 0.60588 0.0
H1166 H 0.03604 0.54297 0.6123 0.0
H1167 H 0.99788 0.52327 0.60821 0.0
H1168 H 0.60485 0.04875 0.59481 0.0
H1169 H 0.627 0.07737 0.6089 0.0
H1170 H 0.61807 0.13298 0.57889 0.0
H1171 H 0.59553 0.10472 0.56485 0.0
H1172 H 0.66696 0.11265 0.60637 0.0
H1173 H 0.57677 0.15376 0.61199 0.0
H1174 H 0.58131 0.12419 0.60466 0.0
H1175 H 0.58723 0.15104 0.59499 0.0
C1176 C 0.60826 0.06683 0.591 0.0
C1177 C 0.59799 0.07468 0.57886 0.0
C1178 C 0.62096 0.08314 0.59907 0.0
C1179 C 0.62369 0.10735 0.59502 0.0
C1180 C 0.61582 0.11442 0.58224 0.0
H1181 H 0.68437 0.22999 0.6385 0.0
H1182 H 0.67836 0.19646 0.62273 0.0
C1183 C 0.60294 0.09825 0.57424 0.0
C1184 C 0.63092 0.12596 0.6049 0.0
H1185 H 0.6086 0.17361 0.62279 0.0
C1186 C 0.65431 0.12605 0.60998 0.0
C1187 C 0.61414 0.14305 0.60974 0.0
C1188 C 0.58839 0.14299 0.60518 0.0
C1189 C 0.66144 0.14312 0.6197 0.0
C1190 C 0.64474 0.16055 0.62428 0.0
C1191 C 0.62137 0.16027 0.61923 0.0
C1192 C 0.65066 0.17915 0.63448 0.0
C1193 C 0.68653 0.14208 0.62518 0.0
C1194 C 0.63701 0.1806 0.64628 0.0
C1195 C 0.64012 0.19988 0.65519 0.0
C1196 C 0.65699 0.21812 0.65248 0.0
C1197 C 0.67125 0.2162 0.64089 0.0
C1198 C 0.66799 0.19694 0.63191 0.0
H1199 H 0.69504 0.12421 0.62322 0.0
H1200 H 0.6975 0.15626 0.62023 0.0
H1201 H 0.68669 0.14559 0.63616 0.0
H1202 H 0.62348 0.16708 0.64843 0.0
H1203 H 0.62897 0.20071 0.66407 0.0
H1204 H 0.16664 0.37537 0.84473 0.0
H1205 H 0.14032 0.41007 0.84919 0.0
H1206 H 0.08133 0.36103 0.85571 0.0
H1207 H 0.10716 0.32662 0.85071 0.0
H1208 H 0.06974 0.39502 0.83839 0.0
H1209 H 0.11184 0.43842 0.88284 0.0
H1210 H 0.13134 0.43493 0.86865 0.0
H1211 H 0.12006 0.4085 0.87712 0.0
C1212 C 0.14814 0.37207 0.84733 0.0
C1213 C 0.13886 0.34836 0.84729 0.0
C1214 C 0.13315 0.39189 0.84995 0.0
C1215 C 0.10886 0.38817 0.85287 0.0
C1216 C 0.09996 0.36437 0.85341 0.0
H1217 H 0.99713 0.47306 0.88582 0.0
H1218 H 0.03399 0.45089 0.88148 0.0
C1219 C 0.11474 0.34471 0.85056 0.0
C1220 C 0.09199 0.40877 0.85431 0.0
H1221 H 0.07868 0.45865 0.87326 0.0
C1222 C 0.07174 0.40899 0.84599 0.0
C1223 C 0.09464 0.42697 0.86423 0.0
C1224 C 0.11552 0.42717 0.87381 0.0
C1225 C 0.05357 0.42618 0.84765 0.0
C1226 C 0.05619 0.44448 0.85754 0.0
C1227 C 0.07684 0.4448 0.86558 0.0
C1228 C 0.0365 0.46164 0.86061 0.0
C1229 C 0.03118 0.4236 0.83929 0.0
C1230 C 0.02627 0.47609 0.85051 0.0
C1231 C 0.00482 0.48837 0.85287 0.0
C1232 C 0.99367 0.48697 0.8655 0.0
C1233 C 0.0052 0.47443 0.87595 0.0
C1234 C 0.02634 0.46175 0.8735 0.0
H1235 H 0.02972 0.40529 0.83467 0.0
H1236 H 0.01495 0.42682 0.84544 0.0
H1237 H 0.03153 0.43709 0.83102 0.0
H1238 H 0.03423 0.4769 0.8406 0.0
H1239 H 0.99652 0.4982 0.84469 0.0
H1240 H 0.89416 0.94459 0.08874 0.0
H1241 H 0.86936 0.91564 0.10121 0.0
H1242 H 0.91154 0.85648 0.08563 0.0
H1243 H 0.93574 0.88493 0.07289 0.0
H1244 H 0.86449 0.84471 0.08704 0.0
H1245 H 0.89571 0.88537 0.1352 0.0
H1246 H 0.87975 0.90527 0.12409 0.0
H1247 H 0.90849 0.89368 0.11923 0.0
C1248 C 0.89787 0.92537 0.0878 0.0
C1249 C 0.91715 0.9171 0.07998 0.0
C1250 C 0.88377 0.90888 0.09499 0.0
C1251 C 0.88896 0.88396 0.09458 0.0
C1252 C 0.90727 0.87563 0.08615 0.0
H1253 H 0.88866 0.77004 0.15013 0.0
H1254 H 0.89438 0.8049 0.13542 0.0
C1255 C 0.92118 0.89199 0.0789 0.0
C1256 C 0.87694 0.86642 0.1036 0.0
H1257 H 0.87353 0.84954 0.13653 0.0
C1258 C 0.86608 0.84589 0.09788 0.0
C1259 C 0.87927 0.86799 0.11774 0.0
C1260 C 0.89157 0.88913 0.12448 0.0
C1261 C 0.85867 0.82628 0.10585 0.0
C1262 C 0.86169 0.82756 0.11994 0.0
C1263 C 0.87128 0.84866 0.12571 0.0
C1264 C 0.85759 0.80635 0.12877 0.0
C1265 C 0.84908 0.80381 0.09905 0.0
C1266 C 0.83497 0.79558 0.12993 0.0
C1267 C 0.83168 0.77539 0.13824 0.0
C1268 C 0.85092 0.76588 0.14567 0.0
C1269 C 0.87347 0.7769 0.14457 0.0
C1270 C 0.87676 0.79688 0.13618 0.0
H1271 H 0.8524 0.80397 0.08805 0.0
H1272 H 0.85732 0.78722 0.10337 0.0
H1273 H 0.82951 0.80273 0.10068 0.0
H1274 H 0.81983 0.80288 0.1245 0.0
H1275 H 0.81404 0.76743 0.13897 0.0
H1276 H 0.48848 0.52271 0.38683 0.0
H1277 H 0.44993 0.54042 0.38143 0.0
H1278 H 0.44689 0.4979 0.34501 0.0
H1279 H 0.48648 0.48135 0.34999 0.0
H1280 H 0.43923 0.54053 0.33873 0.0
H1281 H 0.38167 0.52592 0.3825 0.0
H1282 H 0.40889 0.53893 0.38855 0.0
H1283 H 0.40936 0.50955 0.38047 0.0
C1284 C 0.47933 0.51666 0.37784 0.0
C1285 C 0.49054 0.50082 0.36877 0.0
C1286 C 0.45705 0.52661 0.37482 0.0
C1287 C 0.44512 0.52028 0.3629 0.0
C1288 C 0.45565 0.5031 0.35428 0.0
H1289 H 0.32205 0.61783 0.3477 0.0
H1290 H 0.34295 0.57924 0.35176 0.0
C1291 C 0.47827 0.49365 0.35712 0.0
C1292 C 0.42409 0.53466 0.35843 0.0
H1293 H 0.37545 0.56503 0.37053 0.0
C1294 C 0.42491 0.54522 0.34559 0.0
C1295 C 0.40487 0.54056 0.36711 0.0
C1296 C 0.40106 0.52784 0.38035 0.0
C1297 C 0.40854 0.56309 0.34174 0.0
C1298 C 0.39146 0.57136 0.35115 0.0
C1299 C 0.38903 0.5592 0.36346 0.0
C1300 C 0.3783 0.59434 0.34899 0.0
C1301 C 0.41034 0.57357 0.32777 0.0
C1302 C 0.39127 0.61565 0.34652 0.0
C1303 C 0.37951 0.63742 0.34409 0.0
C1304 C 0.35445 0.63857 0.34435 0.0
C1305 C 0.34138 0.61744 0.34737 0.0
C1306 C 0.35326 0.59543 0.34967 0.0
H1307 H 0.41701 0.55978 0.32054 0.0
H1308 H 0.39282 0.58042 0.32417 0.0
H1309 H 0.4233 0.58881 0.32781 0.0
H1310 H 0.41062 0.61543 0.34643 0.0
H1311 H 0.39014 0.65342 0.34204 0.0
H1312 H 0.37652 0.04997 0.09091 0.0
H1313 H 0.351 0.08587 0.08907 0.0
H1314 H 0.34437 0.08828 0.13222 0.0
H1315 H 0.3694 0.05222 0.13417 0.0
H1316 H 0.3012 0.09836 0.11835 0.0
H1317 H 0.37776 0.15281 0.09882 0.0
H1318 H 0.3693 0.12605 0.08964 0.0
H1319 H 0.38202 0.12318 0.10612 0.0
C1320 C 0.36943 0.05799 0.10001 0.0
C1321 C 0.37523 0.0484 0.11271 0.0
C1322 C 0.35489 0.07853 0.09892 0.0
C1323 C 0.34611 0.0899 0.11051 0.0
C1324 C 0.351 0.07975 0.12314 0.0
H1325 H 0.30949 0.20546 0.15323 0.0
H1326 H 0.31107 0.16671 0.14159 0.0
C1327 C 0.3654 0.05919 0.12424 0.0
C1328 C 0.33334 0.11338 0.10983 0.0
H1329 H 0.34407 0.17392 0.10605 0.0
C1330 C 0.3103 0.11486 0.11533 0.0
C1331 C 0.34511 0.13486 0.1057 0.0
C1332 C 0.36995 0.13436 0.09979 0.0
C1333 C 0.2996 0.13739 0.1179 0.0
C1334 C 0.31241 0.15886 0.11502 0.0
C1335 C 0.33432 0.15737 0.10825 0.0
C1336 C 0.30651 0.18204 0.12173 0.0
C1337 C 0.27534 0.13805 0.12446 0.0
C1338 C 0.30324 0.20361 0.11442 0.0
C1339 C 0.30212 0.22598 0.12114 0.0
C1340 C 0.305 0.2269 0.13516 0.0
C1341 C 0.30734 0.20521 0.14241 0.0
C1342 C 0.30798 0.18303 0.13577 0.0
H1343 H 0.2645 0.12203 0.12149 0.0
H1344 H 0.27757 0.13754 0.13553 0.0
H1345 H 0.26547 0.15484 0.12177 0.0
H1346 H 0.30244 0.2032 0.10355 0.0
H1347 H 0.30044 0.24254 0.11536 0.0
H1348 H 0.54223 0.54616 0.9109 0.0
H1349 H 0.56866 0.5574 0.89244 0.0
H1350 H 0.51981 0.52513 0.86411 0.0
H1351 H 0.49313 0.51365 0.88264 0.0
H1352 H 0.59015 0.53233 0.8679 0.0
H1353 H 0.5195 0.60154 0.85813 0.0
H1354 H 0.52087 0.58514 0.8738 0.0
H1355 H 0.51103 0.57007 0.85881 0.0
C1356 C 0.53743 0.5408 0.90078 0.0
C1357 C 0.51546 0.52935 0.89818 0.0
C1358 C 0.55261 0.54713 0.89025 0.0
C1359 C 0.54602 0.54232 0.87694 0.0
C1360 C 0.52512 0.52902 0.87435 0.0
H1361 H 0.59874 0.64196 0.8159 0.0
H1362 H 0.57864 0.60629 0.82512 0.0
C1363 C 0.50995 0.52244 0.88494 0.0
C1364 C 0.55896 0.5549 0.86602 0.0
H1365 H 0.55605 0.60663 0.84738 0.0
C1366 C 0.58262 0.5483 0.86315 0.0
C1367 C 0.54902 0.57568 0.85987 0.0
C1368 C 0.52376 0.58374 0.86278 0.0
C1369 C 0.5969 0.56249 0.85458 0.0
C1370 C 0.58745 0.58422 0.84916 0.0
C1371 C 0.56337 0.59002 0.85151 0.0
C1372 C 0.60244 0.60255 0.84215 0.0
C1373 C 0.62199 0.55414 0.8516 0.0
C1374 C 0.62292 0.61202 0.84842 0.0
C1375 C 0.63468 0.63217 0.84303 0.0
C1376 C 0.62581 0.64363 0.83146 0.0
C1377 C 0.60589 0.63361 0.82489 0.0
C1378 C 0.59442 0.61318 0.83014 0.0
H1379 H 0.62316 0.53401 0.85175 0.0
H1380 H 0.62826 0.56074 0.84166 0.0
H1381 H 0.63421 0.56113 0.85948 0.0
H1382 H 0.62909 0.60473 0.8579 0.0
H1383 H 0.64988 0.63961 0.84837 0.0
H1384 H 0.19197 0.74999 0.61451 0.0
H1385 H 0.18907 0.78936 0.60276 0.0
H1386 H 0.17666 0.8251 0.64069 0.0
H1387 H 0.17902 0.78634 0.65226 0.0
H1388 H 0.1456 0.81897 0.60524 0.0
H1389 H 0.22597 0.86941 0.62125 0.0
H1390 H 0.2247 0.83661 0.62083 0.0
H1391 H 0.21245 0.85305 0.63486 0.0
C1392 C 0.18911 0.7664 0.62028 0.0
C1393 C 0.18553 0.76523 0.63424 0.0
C1394 C 0.18749 0.78877 0.6136 0.0
C1395 C 0.18302 0.81012 0.62091 0.0
C1396 C 0.18058 0.80893 0.6349 0.0
H1397 H 0.1243 0.94271 0.63273 0.0
H1398 H 0.14745 0.90534 0.63109 0.0
C1399 C 0.18171 0.78673 0.64148 0.0
C1400 C 0.17755 0.83337 0.61421 0.0
H1401 H 0.19015 0.8936 0.61745 0.0
C1402 C 0.15568 0.83531 0.60742 0.0
C1403 C 0.1908 0.85455 0.6171 0.0
C1404 C 0.21492 0.85331 0.6238 0.0
C1405 C 0.14544 0.85808 0.6048 0.0
C1406 C 0.15772 0.87931 0.60888 0.0
C1407 C 0.18067 0.8773 0.61445 0.0
C1408 C 0.14563 0.90317 0.60939 0.0
C1409 C 0.12066 0.85914 0.59885 0.0
C1410 C 0.13733 0.91461 0.59771 0.0
C1411 C 0.12387 0.93593 0.59863 0.0
C1412 C 0.11867 0.94624 0.61125 0.0
C1413 C 0.12787 0.93522 0.62287 0.0
C1414 C 0.14119 0.9139 0.62194 0.0
H1415 H 0.11235 0.84089 0.59799 0.0
H1416 H 0.10887 0.87081 0.60508 0.0
H1417 H 0.12159 0.86717 0.58864 0.0
H1418 H 0.14089 0.90683 0.58792 0.0
H1419 H 0.11723 0.94408 0.58946 0.0
H1420 H 0.99711 0.47746 0.38377 0.0
H1421 H 0.96504 0.46474 0.36864 0.0
H1422 H 0.91709 0.45833 0.40243 0.0
H1423 H 0.94951 0.46973 0.4176 0.0
H1424 H 0.92048 0.41741 0.39013 0.0
H1425 H 0.90486 0.48695 0.35118 0.0
H1426 H 0.93595 0.4795 0.35237 0.0
H1427 H 0.92108 0.49347 0.36645 0.0
C1428 C 0.97946 0.47423 0.38787 0.0
C1429 C 0.97574 0.47437 0.40182 0.0
C1430 C 0.96106 0.46707 0.37921 0.0
C1431 C 0.93854 0.46062 0.38436 0.0
C1432 C 0.93429 0.46314 0.3982 0.0
H1433 H 0.82842 0.36692 0.34964 0.0
H1434 H 0.84639 0.40117 0.36161 0.0
C1435 C 0.95279 0.46969 0.40687 0.0
C1436 C 0.92122 0.44696 0.37594 0.0
H1437 H 0.89334 0.44571 0.34537 0.0
C1438 C 0.91412 0.42393 0.38049 0.0
C1439 C 0.91308 0.45526 0.36327 0.0
C1440 C 0.91896 0.48026 0.35811 0.0
C1441 C 0.89996 0.40865 0.37258 0.0
C1442 C 0.89255 0.41657 0.35975 0.0
C1443 C 0.89906 0.43977 0.35525 0.0
C1444 C 0.8797 0.3999 0.35064 0.0
C1445 C 0.89389 0.38363 0.37776 0.0
C1446 C 0.8922 0.38857 0.34018 0.0
C1447 C 0.88208 0.36894 0.33336 0.0
C1448 C 0.85925 0.36035 0.3369 0.0
C1449 C 0.84608 0.37297 0.34672 0.0
C1450 C 0.85627 0.39257 0.35355 0.0
H1451 H 0.90369 0.37913 0.38714 0.0
H1452 H 0.87445 0.38261 0.37988 0.0
H1453 H 0.89811 0.36967 0.37006 0.0
H1454 H 0.91034 0.39396 0.33784 0.0
H1455 H 0.89262 0.35979 0.32578 0.0
H1456 H 0.36077 0.76423 0.36136 0.0
H1457 H 0.36194 0.80334 0.37247 0.0
H1458 H 0.28544 0.80132 0.3777 0.0
H1459 H 0.2841 0.76179 0.36623 0.0
H1460 H 0.29932 0.84231 0.36564 0.0
H1461 H 0.35672 0.82977 0.40975 0.0
H1462 H 0.37112 0.81597 0.39563 0.0
H1463 H 0.34269 0.80444 0.40134 0.0
C1464 C 0.34421 0.77177 0.36514 0.0
C1465 C 0.32232 0.76004 0.36282 0.0
C1466 C 0.34494 0.79407 0.37166 0.0
C1467 C 0.32383 0.80516 0.37613 0.0
C1468 C 0.30197 0.79296 0.37445 0.0
H1469 H 0.37259 0.94951 0.4 0.0
H1470 H 0.34824 0.91284 0.40211 0.0
C1471 C 0.30123 0.7704 0.36794 0.0
C1472 C 0.32485 0.83082 0.38056 0.0
H1473 H 0.3618 0.86887 0.39775 0.0
C1474 C 0.31241 0.84818 0.37298 0.0
C1475 C 0.34136 0.83865 0.3904 0.0
C1476 C 0.35348 0.82113 0.39983 0.0
C1477 C 0.31815 0.87292 0.37388 0.0
C1478 C 0.33723 0.88027 0.38228 0.0
C1479 C 0.34761 0.86326 0.39101 0.0
C1480 C 0.34885 0.90435 0.38088 0.0
C1481 C 0.30434 0.89072 0.36539 0.0
C1482 C 0.3572 0.9119 0.36824 0.0
C1483 C 0.37091 0.93293 0.36698 0.0
C1484 C 0.37702 0.9466 0.37839 0.0
C1485 C 0.36826 0.93932 0.39102 0.0
C1486 C 0.35429 0.9184 0.39224 0.0
H1487 H 0.28544 0.88488 0.36433 0.0
H1488 H 0.30474 0.90927 0.36974 0.0
H1489 H 0.3122 0.89129 0.35516 0.0
H1490 H 0.354 0.90099 0.35937 0.0
H1491 H 0.37751 0.93791 0.35713 0.0
H1492 H 0.95219 0.55097 0.07828 0.0
H1493 H 0.92472 0.56099 0.09648 0.0
H1494 H 0.97046 0.52422 0.12474 0.0
H1495 H 0.99823 0.51403 0.1065 0.0
H1496 H 0.90058 0.53376 0.11926 0.0
H1497 H 0.972 0.59933 0.13386 0.0
H1498 H 0.9717 0.58493 0.11758 0.0
H1499 H 0.9798 0.5678 0.13221 0.0
C1500 C 0.95614 0.54445 0.08831 0.0
C1501 C 0.97757 0.53207 0.09101 0.0
C1502 C 0.94034 0.55007 0.09868 0.0
C1503 C 0.94574 0.54356 0.11194 0.0
C1504 C 0.96609 0.52944 0.11454 0.0
H1505 H 0.89107 0.63583 0.17578 0.0
H1506 H 0.91038 0.60056 0.16561 0.0
C1507 C 0.98189 0.52362 0.10412 0.0
C1508 C 0.93215 0.55503 0.12297 0.0
H1509 H 0.93483 0.60371 0.14401 0.0
C1510 C 0.90811 0.54875 0.12492 0.0
C1511 C 0.9421 0.57453 0.13031 0.0
C1512 C 0.96777 0.58226 0.12842 0.0
C1513 C 0.89349 0.56206 0.13373 0.0
C1514 C 0.90305 0.58258 0.1404 0.0
C1515 C 0.92744 0.58799 0.13893 0.0
C1516 C 0.888 0.60026 0.14786 0.0
C1517 C 0.86794 0.55411 0.13565 0.0
C1518 C 0.86846 0.61143 0.1415 0.0
C1519 C 0.85711 0.63134 0.14743 0.0
C1520 C 0.86552 0.64085 0.15964 0.0
C1521 C 0.88432 0.629 0.1663 0.0
C1522 C 0.89534 0.6088 0.16051 0.0
H1523 H 0.86622 0.53413 0.1345 0.0
H1524 H 0.86101 0.55938 0.14569 0.0
H1525 H 0.85663 0.56267 0.12782 0.0
H1526 H 0.86286 0.60574 0.13158 0.0
H1527 H 0.84279 0.64022 0.14201 0.0
H1528 H 0.1929 0.24537 0.87566 0.0
H1529 H 0.19015 0.20644 0.88782 0.0
H1530 H 0.18368 0.16866 0.85001 0.0
H1531 H 0.1859 0.20707 0.83802 0.0
H1532 H 0.14824 0.17706 0.88456 0.0
H1533 H 0.22904 0.12475 0.87172 0.0
H1534 H 0.22814 0.15755 0.87123 0.0
H1535 H 0.21712 0.13999 0.85728 0.0
C1536 C 0.19159 0.22861 0.87002 0.0
C1537 C 0.18951 0.22905 0.85595 0.0
C1538 C 0.19002 0.20648 0.87693 0.0
C1539 C 0.18708 0.18467 0.86979 0.0
C1540 C 0.18648 0.18518 0.85571 0.0
H1541 H 0.12649 0.05421 0.85683 0.0
H1542 H 0.15034 0.09093 0.85927 0.0
C1543 C 0.18754 0.20714 0.84887 0.0
C1544 C 0.18064 0.16175 0.87661 0.0
H1545 H 0.19222 0.10118 0.87431 0.0
C1546 C 0.15818 0.16046 0.88282 0.0
C1547 C 0.19371 0.14022 0.87434 0.0
C1548 C 0.21847 0.14071 0.8684 0.0
C1549 C 0.14723 0.13801 0.88536 0.0
C1550 C 0.15937 0.11641 0.88179 0.0
C1551 C 0.18285 0.11776 0.8769 0.0
C1552 C 0.14667 0.0929 0.88089 0.0
C1553 C 0.12194 0.13763 0.89062 0.0
C1554 C 0.137 0.08159 0.89228 0.0
C1555 C 0.12312 0.0606 0.89091 0.0
C1556 C 0.11884 0.05054 0.87812 0.0
C1557 C 0.1293 0.0615 0.86681 0.0
C1558 C 0.14306 0.08245 0.8682 0.0
H1559 H 0.1141 0.1561 0.89132 0.0
H1560 H 0.11039 0.12638 0.88401 0.0
H1561 H 0.12173 0.12943 0.9008 0.0
H1562 H 0.13987 0.08919 0.90219 0.0
H1563 H 0.11548 0.05249 0.89983 0.0
H1564 H 0.49764 0.47438 0.61602 0.0
H1565 H 0.52157 0.4594 0.63498 0.0
H1566 H 0.57915 0.44224 0.60779 0.0
H1567 H 0.55537 0.45682 0.58894 0.0
H1568 H 0.53524 0.40967 0.63368 0.0
H1569 H 0.61435 0.46831 0.64131 0.0
H1570 H 0.58719 0.47904 0.63348 0.0
H1571 H 0.6085 0.46172 0.62395 0.0
C1572 C 0.51575 0.46828 0.6142 0.0
C1573 C 0.52466 0.46659 0.60104 0.0
C1574 C 0.52936 0.4597 0.62501 0.0
C1575 C 0.5522 0.44991 0.62279 0.0
C1576 C 0.56178 0.45013 0.60978 0.0
H1577 H 0.65338 0.34736 0.6486 0.0
H1578 H 0.63119 0.38186 0.63953 0.0
C1579 C 0.5481 0.45831 0.59899 0.0
C1580 C 0.56422 0.43528 0.63325 0.0
H1581 H 0.61827 0.42658 0.64835 0.0
C1582 C 0.55317 0.4136 0.63721 0.0
C1583 C 0.58768 0.44039 0.63764 0.0
C1584 C 0.60007 0.46375 0.63398 0.0
C1585 C 0.56554 0.39603 0.64464 0.0
C1586 C 0.58941 0.40069 0.64862 0.0
C1587 C 0.60001 0.42301 0.64528 0.0
C1588 C 0.60424 0.38175 0.65514 0.0
C1589 C 0.55344 0.372 0.64729 0.0
C1590 C 0.59692 0.37071 0.66716 0.0
C1591 C 0.60929 0.35068 0.67221 0.0
C1592 C 0.62957 0.34171 0.6655 0.0
C1593 C 0.63778 0.35379 0.65396 0.0
C1594 C 0.62514 0.37355 0.64879 0.0
H1595 H 0.53748 0.36933 0.64081 0.0
H1596 H 0.56591 0.35666 0.64555 0.0
H1597 H 0.54743 0.37135 0.6579 0.0
H1598 H 0.58124 0.37716 0.67244 0.0
H1599 H 0.60277 0.342 0.68125 0.0
H1600 H 0.2436 0.29176 0.18421 0.0
H1601 H 0.22183 0.28129 0.20477 0.0
H1602 H 0.2886 0.27124 0.22564 0.0
H1603 H 0.31044 0.2819 0.20531 0.0
H1604 H 0.22608 0.23637 0.21787 0.0
H1605 H 0.24984 0.31204 0.25209 0.0
H1606 H 0.25355 0.31391 0.23409 0.0
H1607 H 0.27525 0.29822 0.24418 0.0
C1608 C 0.25363 0.28784 0.19326 0.0
C1609 C 0.27876 0.28763 0.19312 0.0
C1610 C 0.24117 0.28178 0.20497 0.0
C1611 C 0.25363 0.2757 0.21673 0.0
C1612 C 0.27865 0.2763 0.21673 0.0
H1613 H 0.22265 0.21728 0.29511 0.0
H1614 H 0.24108 0.2305 0.27407 0.0
C1615 C 0.29111 0.28228 0.20507 0.0
C1616 C 0.2407 0.26679 0.2287 0.0
H1617 H 0.23329 0.27661 0.26228 0.0
C1618 C 0.22739 0.24529 0.22756 0.0
C1619 C 0.24263 0.27841 0.24132 0.0
C1620 C 0.25591 0.30205 0.24301 0.0
C1621 C 0.21651 0.2347 0.23882 0.0
C1622 C 0.21876 0.24613 0.25147 0.0
C1623 C 0.23178 0.26781 0.25257 0.0
C1624 C 0.20757 0.2361 0.26371 0.0
C1625 C 0.2033 0.21101 0.23717 0.0
C1626 C 0.18264 0.23463 0.26476 0.0
C1627 C 0.17204 0.22706 0.27674 0.0
C1628 C 0.1862 0.22096 0.28792 0.0
C1629 C 0.21122 0.2218 0.2867 0.0
C1630 C 0.22179 0.22941 0.2747 0.0
H1631 H 0.20813 0.20171 0.22765 0.0
H1632 H 0.20708 0.1986 0.2457 0.0
H1633 H 0.1838 0.21461 0.23701 0.0
H1634 H 0.17136 0.24008 0.25645 0.0
H1635 H 0.15273 0.22669 0.27735 0.0
H1636 H 0.02698 0.93718 0.56929 0.0
H1637 H 0.00824 0.92881 0.54757 0.0
H1638 H 0.0341 0.99724 0.53242 0.0
H1639 H 0.05301 0.00573 0.55405 0.0
H1640 H 0.97291 0.95671 0.53561 0.0
H1641 H 0.05164 0.94966 0.50236 0.0
H1642 H 0.05376 0.94706 0.52042 0.0
H1643 H 0.05273 0.97647 0.51257 0.0
C1644 C 0.02896 0.95033 0.56128 0.0
C1645 C 0.04149 0.97216 0.56339 0.0
C1646 C 0.01824 0.94547 0.54889 0.0
C1647 C 0.02009 0.96221 0.53835 0.0
C1648 C 0.03292 0.98382 0.54035 0.0
H1649 H 0.94281 0.0223 0.47876 0.0
H1650 H 0.95494 0.00219 0.4994 0.0
C1651 C 0.04357 0.98874 0.55274 0.0
C1652 C 0.00703 0.9583 0.52561 0.0
H1653 H 0.01448 0.96147 0.49169 0.0
C1654 C 0.98199 0.95712 0.52599 0.0
C1655 C 0.01888 0.9582 0.51307 0.0
C1656 C 0.04576 0.95764 0.51206 0.0
C1657 C 0.96845 0.95825 0.51414 0.0
C1658 C 0.98031 0.9609 0.50169 0.0
C1659 C 0.00535 0.95965 0.50125 0.0
C1660 C 0.96772 0.96964 0.48955 0.0
C1661 C 0.94158 0.95779 0.51512 0.0
C1662 C 0.9703 0.95778 0.47713 0.0
C1663 C 0.96319 0.9693 0.46524 0.0
C1664 C 0.95397 0.99299 0.46567 0.0
C1665 C 0.94989 0.00403 0.47817 0.0
C1666 C 0.95665 0.99245 0.48999 0.0
H1667 H 0.93566 0.94669 0.52382 0.0
H1668 H 0.93492 0.97654 0.51669 0.0
H1669 H 0.93335 0.95042 0.50582 0.0
H1670 H 0.97903 0.94027 0.47658 0.0
H1671 H 0.9667 0.96052 0.4557 0.0
H1672 H 0.25275 0.70064 0.68251 0.0
H1673 H 0.27576 0.71065 0.70271 0.0
H1674 H 0.21031 0.72385 0.72436 0.0
H1675 H 0.18723 0.71362 0.70441 0.0
H1676 H 0.27456 0.75537 0.71592 0.0
H1677 H 0.24773 0.68119 0.75032 0.0
H1678 H 0.24316 0.67962 0.73238 0.0
H1679 H 0.22273 0.69639 0.7428 0.0
C1680 C 0.24325 0.70523 0.69165 0.0
C1681 C 0.21815 0.70633 0.69185 0.0
C1682 C 0.25643 0.71102 0.70315 0.0
C1683 C 0.24471 0.71773 0.71505 0.0
C1684 C 0.21969 0.71825 0.71536 0.0
H1685 H 0.27867 0.77627 0.79273 0.0
H1686 H 0.26003 0.76347 0.77168 0.0
C1687 C 0.20652 0.71251 0.7039 0.0
C1688 C 0.25847 0.72592 0.72689 0.0
H1689 H 0.26592 0.71595 0.76045 0.0
C1690 C 0.27294 0.7466 0.72563 0.0
C1691 C 0.25621 0.71446 0.73953 0.0
C1692 C 0.2418 0.69155 0.74134 0.0
C1693 C 0.2846 0.75663 0.73681 0.0
C1694 C 0.28186 0.74549 0.7495 0.0
C1695 C 0.26778 0.72454 0.7507 0.0
C1696 C 0.29339 0.75522 0.76171 0.0
C1697 C 0.29912 0.77948 0.73507 0.0
C1698 C 0.31832 0.75506 0.76297 0.0
C1699 C 0.32906 0.76237 0.77498 0.0
C1700 C 0.315 0.76985 0.78595 0.0
C1701 C 0.29003 0.77065 0.78448 0.0
C1702 C 0.27932 0.76329 0.77248 0.0
H1703 H 0.29521 0.78866 0.72538 0.0
H1704 H 0.29563 0.7924 0.74341 0.0
H1705 H 0.3184 0.77482 0.73524 0.0
H1706 H 0.32944 0.74857 0.75482 0.0
H1707 H 0.34833 0.76148 0.77577 0.0
H1708 H 0.46778 0.06091 0.0695 0.0
H1709 H 0.4852 0.06833 0.04732 0.0
H1710 H 0.45887 -0.00095 0.03364 0.0
H1711 H 0.44135 0.99148 0.05571 0.0
H1712 H 0.52007 0.03915 0.03541 0.0
H1713 H 0.44007 0.04528 0.00304 0.0
H1714 H 0.43878 0.04919 0.02106 0.0
H1715 H 0.43904 0.01923 0.01384 0.0
C1716 C 0.46539 0.04739 0.06171 0.0
C1717 C 0.45321 0.02556 0.06436 0.0
C1718 C 0.47535 0.0517 0.04906 0.0
C1719 C 0.473 0.03442 0.03881 0.0
C1720 C 0.46042 0.01286 0.04134 0.0
H1721 H 0.54722 0.96938 0.97948 0.0
H1722 H 0.53459 0.99018 -0.00015 0.0
C1723 C 0.45058 0.00847 0.05399 0.0
C1724 C 0.48553 0.03756 0.02586 0.0
H1725 H 0.47664 0.0321 0.99214 0.0
C1726 C 0.51059 0.03827 0.02591 0.0
C1727 C 0.47316 0.03698 0.01349 0.0
C1728 C 0.44626 0.0379 0.01283 0.0
C1729 C 0.5236 0.03598 0.01394 0.0
C1730 C 0.51118 0.03266 0.00172 0.0
C1731 C 0.48617 0.03441 0.00154 0.0
C1732 C 0.52314 0.02286 0.98965 0.0
C1733 C 0.55051 0.03583 0.01455 0.0
C1734 C 0.52121 0.03449 0.97715 0.0
C1735 C 0.52858 0.02259 0.96542 0.0
C1736 C 0.5374 -0.00126 0.96609 0.0
C1737 C 0.54042 0.98773 0.97868 0.0
C1738 C 0.5334 -0.00031 0.99035 0.0
H1739 H 0.55709 0.04696 0.0231 0.0
H1740 H 0.55681 0.01695 0.01612 0.0
H1741 H 0.55847 0.04279 0.00509 0.0
H1742 H 0.51308 0.05227 0.97642 0.0
H1743 H 0.52594 0.0314 0.95581 0.0
H1744 H 0.32037 0.72747 0.28902 0.0
H1745 H 0.29976 0.73934 0.26842 0.0
H1746 H 0.23216 0.72017 0.28627 0.0
H1747 H 0.25258 0.70836 0.30702 0.0
H1748 H 0.26865 0.71111 0.25166 0.0
H1749 H 0.22364 0.79162 0.27389 0.0
H1750 H 0.24866 0.77678 0.28186 0.0
H1751 H 0.21939 0.76353 0.28275 0.0
C1752 C 0.30113 0.72569 0.28858 0.0
C1753 C 0.2881 0.71711 0.2997 0.0
C1754 C 0.2894 0.73247 0.2768 0.0
C1755 C 0.26447 0.73096 0.27594 0.0
C1756 C 0.25141 0.72184 0.28686 0.0
H1757 H 0.16178 0.76811 0.21449 0.0
H1758 H 0.18224 0.7558 0.23504 0.0
C1759 C 0.26313 0.71498 0.29866 0.0
C1760 C 0.25217 0.73904 0.2636 0.0
H1761 H 0.21349 0.78158 0.2515 0.0
C1762 C 0.25662 0.72653 0.25158 0.0
C1763 C 0.23655 0.75918 0.26361 0.0
C1764 C 0.23185 0.77374 0.27618 0.0
C1765 C 0.2455 0.73342 0.23955 0.0
C1766 C 0.22993 0.75363 0.23954 0.0
C1767 C 0.22548 0.76612 0.25157 0.0
C1768 C 0.21776 0.76188 0.22717 0.0
C1769 C 0.25008 0.71866 0.22703 0.0
C1770 C 0.23099 0.76989 0.21605 0.0
C1771 C 0.21936 0.77691 0.20426 0.0
C1772 C 0.19429 0.77619 0.20343 0.0
C1773 C 0.1811 0.76883 0.21476 0.0
C1774 C 0.19275 0.76178 0.22652 0.0
H1775 H 0.25745 0.70046 0.22944 0.0
H1776 H 0.23343 0.71629 0.22112 0.0
H1777 H 0.26328 0.72828 0.22065 0.0
H1778 H 0.2503 0.7706 0.21648 0.0
H1779 H 0.23004 0.78263 0.19575 0.0
H1780 H 0.44196 0.01096 0.43521 0.0
H1781 H 0.45998 0.00543 0.45737 0.0
H1782 H 0.48231 0.93328 0.44629 0.0
H1783 H 0.46446 0.93864 0.42404 0.0
H1784 H 0.45209 0.96793 0.47747 0.0
H1785 H 0.5449 0.96948 0.45716 0.0
H1786 H 0.51969 0.98011 0.44751 0.0
H1787 H 0.52415 0.94819 0.44996 0.0
C1788 C 0.45053 0.99384 0.4375 0.0
C1789 C 0.45195 0.97533 0.42783 0.0
C1790 C 0.46077 0.99069 0.45017 0.0
C1791 C 0.47267 0.96905 0.45337 0.0
C1792 C 0.47344 0.95021 0.44393 0.0
H1793 H 0.52608 0.96506 0.53711 0.0
H1794 H 0.51238 0.94723 0.51577 0.0
C1795 C 0.46316 0.95331 0.43125 0.0
C1796 C 0.48508 0.96693 0.46642 0.0
H1797 H 0.54052 0.97001 0.48058 0.0
C1798 C 0.47142 0.96784 0.47822 0.0
C1799 C 0.5103 0.96682 0.46726 0.0
C1800 C 0.52575 0.96622 0.45484 0.0
C1801 C 0.48233 0.97004 0.49085 0.0
C1802 C 0.50754 0.97118 0.49164 0.0
C1803 C 0.52122 0.96887 0.4799 0.0
C1804 C 0.51953 0.97948 0.50404 0.0
C1805 C 0.46682 0.9729 0.50315 0.0
C1806 C 0.52903 0.00299 0.50431 0.0
C1807 C 0.53671 0.01313 0.51636 0.0
C1808 C 0.53523 -0.00012 0.52838 0.0
C1809 C 0.52742 0.97564 0.52797 0.0
C1810 C 0.51948 0.96551 0.51584 0.0
H1811 H 0.44751 0.97374 0.50062 0.0
H1812 H 0.46973 0.9573 0.51 0.0
H1813 H 0.47175 0.98969 0.50867 0.0
H1814 H 0.52926 0.01402 0.4953 0.0
H1815 H 0.54287 0.03177 0.51635 0.0
H1816 H 0.24648 0.29644 0.80407 0.0
H1817 H 0.26643 0.28783 0.7827 0.0
H1818 H 0.1983 0.27257 0.76433 0.0
H1819 H 0.17819 0.28135 0.78552 0.0
H1820 H 0.26377 0.24264 0.7695 0.0
H1821 H 0.23078 0.317 0.73679 0.0
H1822 H 0.22916 0.31835 0.7549 0.0
H1823 H 0.20774 0.3008 0.74558 0.0
C1824 C 0.2357 0.2917 0.79542 0.0
C1825 C 0.21074 0.28955 0.79651 0.0
C1826 C 0.24713 0.28673 0.78324 0.0
C1827 C 0.2338 0.27978 0.77193 0.0
C1828 C 0.20887 0.27832 0.77288 0.0
H1829 H 0.26946 0.22708 0.69198 0.0
H1830 H 0.24879 0.23895 0.71268 0.0
C1831 C 0.19742 0.28323 0.78503 0.0
C1832 C 0.24602 0.27216 0.75945 0.0
H1833 H 0.25091 0.28441 0.72595 0.0
C1834 C 0.26111 0.25186 0.75999 0.0
C1835 C 0.24227 0.28409 0.74706 0.0
C1836 C 0.22677 0.3064 0.74601 0.0
C1837 C 0.27237 0.24296 0.74841 0.0
C1838 C 0.26874 0.25497 0.73603 0.0
C1839 C 0.25357 0.27522 0.73547 0.0
C1840 C 0.28116 0.24726 0.72363 0.0
C1841 C 0.28767 0.22051 0.74948 0.0
C1842 C 0.30615 0.24818 0.72295 0.0
C1843 C 0.31798 0.24139 0.71121 0.0
C1844 C 0.30504 0.2337 0.69985 0.0
C1845 C 0.27996 0.23282 0.70056 0.0
C1846 C 0.26812 0.23964 0.71235 0.0
H1847 H 0.2834 0.20984 0.75865 0.0
H1848 H 0.28537 0.20865 0.74055 0.0
H1849 H 0.30674 0.22594 0.75006 0.0
H1850 H 0.31651 0.25445 0.73147 0.0
H1851 H 0.33729 0.24243 0.71101 0.0
H1852 H 0.02207 0.05112 0.92021 0.0
H1853 H 0.00444 0.05686 0.94247 0.0
H1854 H 0.0399 0.99222 0.9565 0.0
H1855 H 0.05764 0.98629 0.93428 0.0
H1856 H 0.9742 0.02297 0.95564 0.0
H1857 H 0.05499 0.0437 0.98566 0.0
H1858 H 0.05416 0.04653 0.96757 0.0
H1859 H 0.05834 0.0173 0.97525 0.0
C1860 C 0.02635 0.03826 0.92807 0.0
C1861 C 0.04128 0.01823 0.92549 0.0
C1862 C 0.01624 0.04159 0.94077 0.0
C1863 C 0.02114 0.02516 0.95114 0.0
C1864 C 0.03628 0.00535 0.94867 0.0
H1865 H 0.95893 0.96253 0.01681 0.0
H1866 H 0.96818 0.97937 0.9948 0.0
C1867 C 0.04628 0.00191 0.93595 0.0
C1868 C 0.00919 0.02757 0.96431 0.0
H1869 H 0.02079 0.02904 -0.00209 0.0
C1870 C 0.98429 0.02483 0.96489 0.0
C1871 C 0.02233 0.0305 0.97632 0.0
C1872 C 0.04892 0.03493 0.9762 0.0
C1873 C 0.97243 0.02294 0.97726 0.0
C1874 C 0.9859 0.02364 0.98926 0.0
C1875 C 0.0105 0.02839 0.98868 0.0
C1876 C 0.9758 0.01548 0.00221 0.0
C1877 C 0.94575 0.01917 0.97738 0.0
C1878 C 0.97664 0.03034 0.01367 0.0
C1879 C 0.97116 0.02073 0.02633 0.0
C1880 C 0.96538 0.99603 0.02765 0.0
C1881 C 0.96339 0.98161 0.01607 0.0
C1882 C 0.9685 0.99126 0.00347 0.0
H1883 H 0.93729 0.0271 0.96829 0.0
H1884 H 0.94189 -0.00058 0.97741 0.0
H1885 H 0.9375 0.02735 0.98646 0.0
H1886 H 0.98249 0.04902 0.01288 0.0
H1887 H 0.97299 0.03216 0.03513 0.0
H1888 H 0.81759 0.77436 0.70262 0.0
H1889 H 0.79479 0.76339 0.7226 0.0
H1890 H 0.72944 0.78361 0.7026 0.0
H1891 H 0.75209 0.79443 0.68242 0.0
H1892 H 0.76335 0.79148 0.73849 0.0
H1893 H 0.71766 0.7129 0.71459 0.0
H1894 H 0.74345 0.72737 0.70721 0.0
H1895 H 0.71456 0.74135 0.70595 0.0
C1896 C 0.79838 0.7766 0.70245 0.0
C1897 C 0.78664 0.7851 0.69087 0.0
C1898 C 0.78539 0.77033 0.71389 0.0
C1899 C 0.76044 0.77232 0.71397 0.0
C1900 C 0.74867 0.78153 0.70262 0.0
H1901 H 0.65454 0.73515 0.77416 0.0
H1902 H 0.67542 0.74829 0.75388 0.0
C1903 C 0.76166 0.78784 0.69114 0.0
C1904 C 0.74686 0.76443 0.72593 0.0
H1905 H 0.70665 0.7223 0.73691 0.0
C1906 C 0.75093 0.77637 0.73817 0.0
C1907 C 0.73074 0.74468 0.72543 0.0
C1908 C 0.72641 0.73065 0.71263 0.0
C1909 C 0.73913 0.7692 0.74994 0.0
C1910 C 0.7232 0.7493 0.74947 0.0
C1911 C 0.71895 0.73751 0.73721 0.0
C1912 C 0.7107 0.74049 0.7616 0.0
C1913 C 0.74354 0.78319 0.76274 0.0
C1914 C 0.72365 0.73121 0.77252 0.0
C1915 C 0.71178 0.72366 0.78414 0.0
C1916 C 0.68675 0.72517 0.785 0.0
C1917 C 0.67382 0.73381 0.77386 0.0
C1918 C 0.68571 0.74135 0.76226 0.0
H1919 H 0.75142 0.80133 0.76072 0.0
H1920 H 0.7267 0.78563 0.76849 0.0
H1921 H 0.75624 0.77292 0.76914 0.0
H1922 H 0.74294 0.72996 0.77208 0.0
H1923 H 0.72228 0.71698 0.79251 0.0
H1924 H 0.67781 0.21893 0.20371 0.0
H1925 H 0.69748 0.2307 0.22462 0.0
H1926 H 0.76618 0.21535 0.20697 0.0
H1927 H 0.74671 0.20369 0.18591 0.0
H1928 H 0.73066 0.2056 0.24188 0.0
H1929 H 0.76924 0.28808 0.21811 0.0
H1930 H 0.74536 0.27086 0.2105 0.0
H1931 H 0.77555 0.25994 0.20969 0.0
C1932 C 0.6971 0.21775 0.2043 0.0
C1933 C 0.71072 0.21063 0.19308 0.0
C1934 C 0.70828 0.22447 0.21626 0.0
C1935 C 0.73324 0.22431 0.21721 0.0
C1936 C 0.74687 0.21597 0.20632 0.0
H1937 H 0.83406 0.27195 0.27711 0.0
H1938 H 0.81373 0.25739 0.25699 0.0
C1939 C 0.73571 0.20918 0.19433 0.0
C1940 C 0.74498 0.23394 0.22939 0.0
H1941 H 0.78038 0.28013 0.24057 0.0
C1942 C 0.74151 0.2219 0.24164 0.0
C1943 C 0.75897 0.25529 0.22898 0.0
C1944 C 0.76241 0.26947 0.21615 0.0
C1945 C 0.75216 0.23039 0.25351 0.0
C1946 C 0.76621 0.25173 0.25309 0.0
C1947 C 0.76957 0.2638 0.24083 0.0
C1948 C 0.77818 0.26147 0.26519 0.0
C1949 C 0.74876 0.21615 0.26631 0.0
C1950 C 0.76485 0.26918 0.27635 0.0
C1951 C 0.77642 0.27752 0.28791 0.0
C1952 C 0.80152 0.27841 0.28846 0.0
C1953 C 0.81473 0.27144 0.27706 0.0
C1954 C 0.80315 0.26308 0.26555 0.0
H1955 H 0.74248 0.19738 0.26429 0.0
H1956 H 0.76567 0.21522 0.27213 0.0
H1957 H 0.73516 0.22531 0.27264 0.0
H1958 H 0.74552 0.26858 0.27614 0.0
H1959 H 0.76571 0.28287 0.29648 0.0
H1960 H 0.75936 0.20641 0.81378 0.0
H1961 H 0.74145 0.22034 0.79273 0.0
H1962 H 0.81027 0.24536 0.7791 0.0
H1963 H 0.82844 0.23141 0.80004 0.0
H1964 H 0.74323 0.26969 0.78214 0.0
H1965 H 0.78478 0.20134 0.74819 0.0
H1966 H 0.78302 0.1971 0.76615 0.0
H1967 H 0.80462 0.21761 0.75918 0.0
C1968 C 0.77074 0.21473 0.80628 0.0
C1969 C 0.79535 0.21772 0.80857 0.0
C1970 C 0.76045 0.22273 0.79429 0.0
C1971 C 0.77461 0.23366 0.78437 0.0
C1972 C 0.79915 0.23667 0.78659 0.0
H1973 H 0.7337 0.28141 0.7038 0.0
H1974 H 0.75659 0.27448 0.72442 0.0
C1975 C 0.80946 0.22874 0.79858 0.0
C1976 C 0.76353 0.24227 0.7718 0.0
H1977 H 0.76029 0.23098 0.73816 0.0
C1978 C 0.74698 0.26132 0.77251 0.0
C1979 C 0.76875 0.23143 0.75927 0.0
C1980 C 0.78613 0.21062 0.75807 0.0
C1981 C 0.73521 0.26967 0.76097 0.0
C1982 C 0.73978 0.25826 0.7485 0.0
C1983 C 0.75685 0.23967 0.74774 0.0
C1984 C 0.72588 0.26415 0.73631 0.0
C1985 C 0.71803 0.29064 0.76224 0.0
C1986 C 0.70109 0.26055 0.7362 0.0
C1987 C 0.68798 0.2645 0.72449 0.0
C1988 C 0.69946 0.27192 0.71261 0.0
C1989 C 0.72431 0.27574 0.71279 0.0
C1990 C 0.73742 0.27179 0.72454 0.0
H1991 H 0.72216 0.302 0.77117 0.0
H1992 H 0.71843 0.3023 0.75315 0.0
H1993 H 0.69963 0.28347 0.76346 0.0
H1994 H 0.69192 0.2541 0.74509 0.0
H1995 H 0.66891 0.26127 0.72471 0.0
H1996 H 0.74793 0.79277 0.31043 0.0
H1997 H 0.76952 0.78175 0.28992 0.0
H1998 H 0.70277 0.77554 0.26858 0.0
H1999 H 0.68103 0.78633 0.28896 0.0
H2000 H 0.73245 0.73395 0.26726 0.0
H2001 H 0.7817 0.81837 0.25427 0.0
H2002 H 0.78461 0.80835 0.27138 0.0
H2003 H 0.75605 0.81825 0.26529 0.0
C2004 C 0.73787 0.78955 0.30131 0.0
C2005 C 0.71275 0.79029 0.30135 0.0
C2006 C 0.75024 0.78332 0.2896 0.0
C2007 C 0.7377 0.77793 0.27776 0.0
C2008 C 0.71273 0.77965 0.27763 0.0
H2009 H 0.77245 0.71996 0.19927 0.0
H2010 H 0.75248 0.73399 0.21968 0.0
C2011 C 0.70036 0.78585 0.2893 0.0
C2012 C 0.75031 0.76847 0.26582 0.0
H2013 H 0.79111 0.78313 0.24171 0.0
C2014 C 0.74523 0.7447 0.26163 0.0
C2015 C 0.76704 0.78253 0.2586 0.0
C2016 C 0.77261 0.80837 0.26251 0.0
C2017 C 0.75661 0.73449 0.25043 0.0
C2018 C 0.77317 0.74863 0.24311 0.0
C2019 C 0.77838 0.77236 0.24736 0.0
C2020 C 0.78516 0.73924 0.23094 0.0
C2021 C 0.75116 0.70853 0.2467 0.0
C2022 C 0.81014 0.73779 0.23047 0.0
C2023 C 0.82162 0.72993 0.21881 0.0
C2024 C 0.8083 0.72346 0.20736 0.0
C2025 C 0.78323 0.72464 0.20793 0.0
C2026 C 0.77177 0.73257 0.2196 0.0
H2027 H 0.74332 0.69835 0.25527 0.0
H2028 H 0.73801 0.7083 0.23836 0.0
H2029 H 0.76751 0.69894 0.24328 0.0
H2030 H 0.82077 0.74291 0.23912 0.0
H2031 H 0.84095 0.72927 0.21872 0.0
H2032 H 0.55559 0.51123 0.05956 0.0
H2033 H 0.53836 0.50662 0.03712 0.0
H2034 H 0.51088 0.43624 0.04798 0.0
H2035 H 0.52803 0.44062 0.07048 0.0
H2036 H 0.54551 0.4661 0.01752 0.0
H2037 H 0.45178 0.47829 0.03529 0.0
H2038 H 0.47704 0.48814 0.04518 0.0
H2039 H 0.47043 0.45643 0.0437 0.0
C2040 C 0.54601 0.49471 0.05717 0.0
C2041 C 0.54306 0.47636 0.06682 0.0
C2042 C 0.53624 0.49208 0.04434 0.0
C2043 C 0.52325 0.47117 0.04099 0.0
C2044 C 0.52071 0.45257 0.05046 0.0
H2045 H 0.47322 0.46476 0.95652 0.0
H2046 H 0.48469 0.44812 0.97855 0.0
C2047 C 0.53057 0.45512 0.06328 0.0
C2048 C 0.51176 0.46949 0.02767 0.0
H2049 H 0.45813 0.47743 0.01199 0.0
C2050 C 0.52636 0.46801 0.01626 0.0
C2051 C 0.48678 0.47201 0.02617 0.0
C2052 C 0.47046 0.47392 0.03819 0.0
C2053 C 0.51672 0.47029 0.00331 0.0
C2054 C 0.49188 0.47409 0.00183 0.0
C2055 C 0.47713 0.47426 0.01322 0.0
C2056 C 0.48182 0.48249 0.98894 0.0
C2057 C 0.5333 0.47035 0.99136 0.0
C2058 C 0.47573 0.50702 0.98769 0.0
C2059 C 0.4694 0.5165 0.97525 0.0
C2060 C 0.46883 0.50158 0.9638 0.0
C2061 C 0.47352 0.47664 0.96519 0.0
C2062 C 0.48014 0.46715 0.97771 0.0
H2063 H 0.55235 0.46862 0.99433 0.0
H2064 H 0.52874 0.45499 0.98461 0.0
H2065 H 0.53105 0.48739 0.98555 0.0
H2066 H 0.47692 0.5191 0.99626 0.0
H2067 H 0.46565 0.53574 0.97452 0.0
H2068 H 0.05844 0.47636 0.47327 0.0
H2069 H 0.04628 0.48726 0.49612 0.0
H2070 H 0.99292 0.53572 0.48003 0.0
H2071 H 0.00613 0.52587 0.45716 0.0
H2072 H 0.00947 0.55204 0.50395 0.0
H2073 H 0.98547 0.45479 0.5078 0.0
H2074 H 0.01678 0.4591 0.50491 0.0
H2075 H 0.99549 0.4683 0.49232 0.0
C2076 C 0.04478 0.49006 0.47468 0.0
C2077 C 0.03313 0.5003 0.46358 0.0
C2078 C 0.03765 0.49606 0.48769 0.0
C2079 C 0.01811 0.51159 0.48973 0.0
C2080 C 0.00789 0.52351 0.47866 0.0
H2081 H 0.9288 0.49275 0.56024 0.0
H2082 H 0.94381 0.49578 0.53721 0.0
C2083 C 0.01549 0.51799 0.46562 0.0
C2084 C 0.00669 0.51311 0.50314 0.0
H2085 H 0.98232 0.47795 0.52776 0.0
C2086 C 0.00343 0.53589 0.50916 0.0
C2087 C 0.99812 0.49206 0.50973 0.0
C2088 C 0.99888 0.46723 0.5033 0.0
C2089 C 0.99239 0.53813 0.52179 0.0
C2090 C 0.98514 0.51691 0.52872 0.0
C2091 C 0.98802 0.49422 0.52253 0.0
C2092 C 0.97475 0.51746 0.54244 0.0
C2093 C 0.98817 0.56321 0.52738 0.0
C2094 C 0.987 0.52877 0.55304 0.0
C2095 C 0.97816 0.52748 0.56614 0.0
C2096 C 0.95728 0.51425 0.56894 0.0
C2097 C 0.94498 0.50298 0.55836 0.0
C2098 C 0.95354 0.50474 0.54521 0.0
H2099 H 0.98689 0.5769 0.51922 0.0
H2100 H 0.97156 0.56397 0.53346 0.0
H2101 H 0.00346 0.56838 0.53388 0.0
H2102 H 0.00379 0.53798 0.55128 0.0
H2103 H 0.98815 0.53611 0.57415 0.0
H2104 H 0.03444 0.53261 0.01551 0.0
H2105 H 0.02371 0.51452 0.99403 0.0
H2106 H 0.01073 0.44592 0.01355 0.0
H2107 H 0.02165 0.4641 0.03534 0.0
H2108 H 0.03962 0.47132 0.97934 0.0
H2109 H 0.94503 0.46866 -0.003 0.0
H2110 H 0.96737 0.4863 0.00569 0.0
H2111 H 0.96776 0.45384 0.00683 0.0
C2112 C 0.02976 0.51354 0.01522 0.0
C2113 C 0.02858 0.4998 0.02708 0.0
C2114 C 0.02375 0.50321 0.00294 0.0
C2115 C 0.0162 0.47901 0.00226 0.0
C2116 C 0.0164 0.4647 0.01394 0.0
H2117 H 0.96814 0.44069 0.92043 0.0
H2118 H 0.98493 0.4344 0.94287 0.0
C2119 C 0.02272 0.47503 0.02632 0.0
C2120 C 0.00575 0.4703 0.98952 0.0
H2121 H 0.95172 0.46551 0.97385 0.0
C2122 C 0.02047 0.46927 0.97813 0.0
C2123 C 0.98072 0.46798 0.98805 0.0
C2124 C 0.96414 0.4693 -1e-05 0.0
C2125 C 0.01069 0.46756 0.96518 0.0
C2126 C 0.98559 0.46674 0.96368 0.0
C2127 C 0.97096 0.46617 0.97511 0.0
C2128 C 0.97418 0.46954 0.9504 0.0
C2129 C 0.02711 0.46841 0.95317 0.0
C2130 C 0.96215 0.49118 0.94735 0.0
C2131 C 0.95255 0.49488 0.93457 0.0
C2132 C 0.95473 0.47691 0.92463 0.0
C2133 C 0.96624 0.45495 0.92785 0.0
C2134 C 0.9759 0.45131 0.94064 0.0
H2135 H 0.046 0.47171 0.95606 0.0
H2136 H 0.02617 0.45089 0.9477 0.0
H2137 H 0.02138 0.48293 0.94614 0.0
H2138 H 0.96067 0.50546 0.9548 0.0
H2139 H 0.94373 0.51194 0.93244 0.0
H2140 H 0.53577 0.48321 0.43458 0.0
H2141 H 0.52158 0.49191 0.4573 0.0
H2142 H 0.51492 0.56773 0.44734 0.0
H2143 H 0.52907 0.55923 0.42452 0.0
H2144 H 0.53964 0.55713 0.47226 0.0
H2145 H 0.4521 0.51082 0.46848 0.0
H2146 H 0.47647 0.49263 0.46244 0.0
H2147 H 0.46894 0.52036 0.45391 0.0
C2148 C 0.53127 0.50173 0.4372 0.0
C2149 C 0.53347 0.52051 0.42774 0.0
C2150 C 0.52301 0.50664 0.45014 0.0
C2151 C 0.51685 0.53039 0.45388 0.0
C2152 C 0.51937 0.54926 0.44457 0.0
H2153 H 0.45737 0.52911 0.53554 0.0
H2154 H 0.46269 0.54671 0.513 0.0
C2155 C 0.52747 0.54435 0.43156 0.0
C2156 C 0.50873 0.53531 0.46774 0.0
H2157 H 0.468 0.51606 0.49082 0.0
C2158 C 0.52367 0.54868 0.47629 0.0
C2159 C 0.48761 0.52479 0.47287 0.0
C2160 C 0.4702 0.51155 0.46392 0.0
C2161 C 0.51918 0.5498 0.49015 0.0
C2162 C 0.49942 0.53705 0.49548 0.0
C2163 C 0.48325 0.52571 0.48673 0.0
C2164 C 0.49777 0.53114 0.50994 0.0
C2165 C 0.53627 0.56356 0.49904 0.0
C2166 C 0.51584 0.51695 0.51569 0.0
C2167 C 0.51272 0.50674 0.52835 0.0
C2168 C 0.49149 0.51057 0.53554 0.0
C2169 C 0.47396 0.52604 0.5302 0.0
C2170 C 0.47696 0.53604 0.51736 0.0
H2171 H 0.5445 0.57898 0.49353 0.0
H2172 H 0.52719 0.57061 0.50816 0.0
H2173 H 0.55089 0.55125 0.50223 0.0
H2174 H 0.53179 0.51248 0.51005 0.0
H2175 H 0.52655 0.49495 0.53226 0.0
H2176 H 0.22844 0.19402 0.37836 0.0
H2177 H 0.26575 0.17793 0.38759 0.0
H2178 H 0.29438 0.17134 0.34752 0.0
H2179 H 0.25741 0.18761 0.33824 0.0
H2180 H 0.28221 0.13258 0.38206 0.0
H2181 H 0.35093 0.1996 0.36774 0.0
H2182 H 0.3194 0.20665 0.36776 0.0
H2183 H 0.3327 0.19125 0.35366 0.0
C2184 C 0.24285 0.18956 0.37153 0.0
C2185 C 0.23991 0.19197 0.35755 0.0
C2186 C 0.26417 0.18043 0.37683 0.0
C2187 C 0.28299 0.1738 0.36827 0.0
C2188 C 0.28035 0.17692 0.35435 0.0
H2189 H 0.39452 0.0788 0.3572 0.0
H2190 H 0.36722 0.1131 0.35803 0.0
C2191 C 0.25907 0.18599 0.34904 0.0
C2192 C 0.30412 0.16075 0.37357 0.0
H2193 H 0.36489 0.15831 0.37119 0.0
C2194 C 0.30034 0.13847 0.38003 0.0
C2195 C 0.32773 0.16854 0.37094 0.0
C2196 C 0.33294 0.19296 0.36477 0.0
C2197 C 0.31941 0.12281 0.38291 0.0
C2198 C 0.34293 0.12989 0.37945 0.0
C2199 C 0.34685 0.15291 0.37382 0.0
C2200 C 0.36286 0.11224 0.37963 0.0
C2201 C 0.314 0.09806 0.38867 0.0
C2202 C 0.37035 0.10105 0.39158 0.0
C2203 C 0.38594 0.08119 0.39114 0.0
C2204 C 0.39427 0.07234 0.37872 0.0
C2205 C 0.38821 0.08491 0.36691 0.0
C2206 C 0.37267 0.10464 0.36737 0.0
H2207 H 0.29453 0.09413 0.38887 0.0
H2208 H 0.32303 0.08368 0.38273 0.0
H2209 H 0.32078 0.0971 0.39913 0.0
H2210 H 0.3633 0.10695 0.40117 0.0
H2211 H 0.39042 0.07203 0.40042 0.0
H2212 H 0.11151 0.06919 0.58705 0.0
H2213 H 0.1396 0.10332 0.58569 0.0
H2214 H 0.13183 0.11548 0.62828 0.0
H2215 H 0.10365 0.08198 0.62969 0.0
H2216 H 0.13637 0.15873 0.61331 0.0
H2217 H 0.20686 0.09088 0.60072 0.0
H2218 H 0.18165 0.09291 0.58959 0.0
H2219 H 0.1776 0.08186 0.60641 0.0
C2220 C 0.11535 0.07953 0.59605 0.0
C2221 C 0.10569 0.07261 0.60852 0.0
C2222 C 0.1315 0.09892 0.59527 0.0
C2223 C 0.13815 0.11157 0.60694 0.0
C2224 C 0.12704 0.10589 0.61916 0.0
H2225 H 0.24051 0.19089 0.64874 0.0
H2226 H 0.20442 0.17364 0.6389 0.0
C2227 C 0.111 0.08661 0.61995 0.0
C2228 C 0.15846 0.1288 0.60704 0.0
H2229 H 0.21941 0.12981 0.60655 0.0
C2230 C 0.15452 0.1526 0.61156 0.0
C2231 C 0.18213 0.12076 0.60473 0.0
C2232 C 0.1875 0.0952 0.60017 0.0
C2233 C 0.17369 0.16816 0.6145 0.0
C2234 C 0.19734 0.15952 0.61308 0.0
C2235 C 0.20124 0.13634 0.60767 0.0
C2236 C 0.21816 0.17286 0.61857 0.0
C2237 C 0.16842 0.19346 0.61946 0.0
C2238 C 0.23804 0.17793 0.61045 0.0
C2239 C 0.25886 0.18761 0.61609 0.0
C2240 C 0.26023 0.19216 0.62998 0.0
C2241 C 0.24006 0.18763 0.63801 0.0
C2242 C 0.21929 0.17799 0.63237 0.0
H2243 H 0.15099 0.20006 0.61557 0.0
H2244 H 0.16735 0.19328 0.63059 0.0
H2245 H 0.18262 0.20641 0.61642 0.0
H2246 H 0.23762 0.17386 0.5998 0.0
H2247 H 0.27406 0.1909 0.60961 0.0
H2248 H 0.24569 0.81397 0.83511 0.0
H2249 H 0.20912 0.8316 0.84426 0.0
H2250 H 0.23345 0.81644 0.88449 0.0
H2251 H 0.27032 0.79897 0.87544 0.0
H2252 H 0.17305 0.81249 0.86204 0.0
H2253 H 0.22293 0.89065 0.88394 0.0
H2254 H 0.23621 0.87056 0.87173 0.0
H2255 H 0.23238 0.86073 0.88878 0.0
C2256 C 0.24324 0.81421 0.8459 0.0
C2257 C 0.26106 0.80533 0.85456 0.0
C2258 C 0.22228 0.8242 0.85111 0.0
C2259 C 0.21875 0.82555 0.86504 0.0
C2260 C 0.23602 0.81584 0.87371 0.0
H2261 H 0.11193 0.92516 0.89822 0.0
H2262 H 0.1393 0.89044 0.8983 0.0
C2263 C 0.25704 0.80585 0.86851 0.0
C2264 C 0.19763 0.83857 0.87033 0.0
H2265 H 0.18126 0.89212 0.88482 0.0
C2266 C 0.17478 0.82972 0.86722 0.0
C2267 C 0.19998 0.86091 0.87719 0.0
C2268 C 0.22414 0.87146 0.88057 0.0
C2269 C 0.15421 0.8432 0.87026 0.0
C2270 C 0.15666 0.86629 0.87632 0.0
C2271 C 0.17942 0.87439 0.88019 0.0
C2272 C 0.13666 0.88386 0.87691 0.0
C2273 C 0.13011 0.83286 0.86665 0.0
C2274 C 0.12575 0.89134 0.86493 0.0
C2275 C 0.11023 0.9111 0.86484 0.0
C2276 C 0.10541 0.92397 0.87674 0.0
C2277 C 0.11525 0.91562 0.88889 0.0
C2278 C 0.1309 0.8958 0.88896 0.0
H2279 H 0.13035 0.81271 0.86701 0.0
H2280 H 0.11592 0.83961 0.87349 0.0
H2281 H 0.12552 0.83826 0.85622 0.0
H2282 H 0.13032 0.88282 0.85546 0.0
H2283 H 0.1029 0.91699 0.85532 0.0
H2284 H 0.2607 0.81497 0.15244 0.0
H2285 H 0.29741 0.83059 0.14245 0.0
H2286 H 0.2695 0.81651 0.10282 0.0
H2287 H 0.23242 0.8011 0.11273 0.0
H2288 H 0.33158 0.81068 0.1239 0.0
H2289 H 0.28222 0.8902 0.10318 0.0
H2290 H 0.26917 0.87037 0.11558 0.0
H2291 H 0.27191 0.86051 0.09846 0.0
C2292 C 0.26239 0.81496 0.1416 0.0
C2293 C 0.24348 0.80711 0.13338 0.0
C2294 C 0.28345 0.82379 0.13591 0.0
C2295 C 0.28602 0.82496 0.12191 0.0
C2296 C 0.2677 0.81605 0.11366 0.0
H2297 H 0.39163 0.92637 0.0898 0.0
H2298 H 0.3654 0.89081 0.08873 0.0
C2299 C 0.24656 0.80723 0.11934 0.0
C2300 C 0.30711 0.83741 0.11618 0.0
H2301 H 0.32379 0.8912 0.10212 0.0
C2302 C 0.32993 0.82808 0.11889 0.0
C2303 C 0.30488 0.85997 0.10953 0.0
C2304 C 0.28079 0.87104 0.10654 0.0
C2305 C 0.3506 0.84138 0.1158 0.0
C2306 C 0.34829 0.86477 0.11011 0.0
C2307 C 0.32555 0.87326 0.10648 0.0
C2308 C 0.36833 0.88235 0.1099 0.0
C2309 C 0.37466 0.8306 0.11908 0.0
C2310 C 0.3792 0.88897 0.12206 0.0
C2311 C 0.39407 0.90922 0.12271 0.0
C2312 C 0.39826 0.92342 0.11122 0.0
C2313 C 0.38876 0.9158 0.09883 0.0
C2314 C 0.37376 0.8955 0.0982 0.0
H2315 H 0.37423 0.8105 0.11818 0.0
H2316 H 0.38885 0.83779 0.11238 0.0
H2317 H 0.37936 0.83507 0.12962 0.0
H2318 H 0.37488 0.87952 0.13128 0.0
H2319 H 0.40119 0.91452 0.1324 0.0
H2320 H 0.72472 0.81969 0.6363 0.0
H2321 H 0.68773 0.83938 0.629 0.0
H2322 H 0.72886 0.89287 0.60741 0.0
H2323 H 0.76574 0.8729 0.61428 0.0
H2324 H 0.67179 0.88329 0.63436 0.0
H2325 H 0.68091 0.87512 0.57934 0.0
H2326 H 0.69971 0.85847 0.59082 0.0
H2327 H 0.70676 0.8894 0.58644 0.0
C2328 C 0.72586 0.83547 0.62985 0.0
C2329 C 0.74818 0.84466 0.62581 0.0
C2330 C 0.7047 0.84671 0.62569 0.0
C2331 C 0.70545 0.86736 0.61744 0.0
C2332 C 0.72774 0.87655 0.61343 0.0
H2333 H 0.60867 0.98611 0.61172 0.0
H2334 H 0.63726 0.95512 0.61844 0.0
C2335 C 0.74886 0.86519 0.61745 0.0
C2336 C 0.68312 0.88031 0.61373 0.0
H2337 H 0.6542 0.90642 0.58725 0.0
C2338 C 0.66775 0.88803 0.62403 0.0
C2339 C 0.67746 0.88605 0.60024 0.0
C2340 C 0.69196 0.87657 0.58858 0.0
C2341 C 0.64762 0.90239 0.62128 0.0
C2342 C 0.64315 0.90987 0.60791 0.0
C2343 C 0.65778 0.90105 0.59753 0.0
C2344 C 0.62435 0.92791 0.60451 0.0
C2345 C 0.63143 0.9094 0.63277 0.0
C2346 C 0.60777 0.92321 0.59424 0.0
C2347 C 0.59162 0.94115 0.59017 0.0
C2348 C 0.59171 0.96412 0.59634 0.0
C2349 C 0.60792 0.96855 0.60685 0.0
C2350 C 0.62422 0.95074 0.61079 0.0
H2351 H 0.63191 0.89556 0.64088 0.0
H2352 H 0.63767 0.92681 0.63714 0.0
H2353 H 0.61266 0.91164 0.62939 0.0
H2354 H 0.6076 0.90579 0.58919 0.0
H2355 H 0.57936 0.93717 0.58204 0.0
H2356 H 0.88832 0.97705 0.39961 0.0
H2357 H 0.8575 0.95013 0.39079 0.0
H2358 H 0.89699 0.88798 0.4049 0.0
H2359 H 0.92777 0.9149 0.41409 0.0
H2360 H 0.85841 0.91396 0.37227 0.0
H2361 H 0.83213 0.87753 0.42217 0.0
H2362 H 0.85159 0.90341 0.42033 0.0
H2363 H 0.86302 0.87324 0.41794 0.0
C2364 C 0.89057 0.95765 0.40081 0.0
C2365 C 0.91044 0.94815 0.40768 0.0
C2366 C 0.87291 0.94228 0.39574 0.0
C2367 C 0.8747 0.91707 0.3974 0.0
C2368 C 0.89495 0.90741 0.40379 0.0
H2369 H 0.77544 0.81949 0.35541 0.0
H2370 H 0.81181 0.83945 0.36341 0.0
C2371 C 0.91261 0.92282 0.40895 0.0
C2372 C 0.85504 0.90116 0.39261 0.0
H2373 H 0.81221 0.86142 0.40327 0.0
C2374 C 0.84838 0.90236 0.37902 0.0
C2375 C 0.84179 0.88627 0.40148 0.0
C2376 C 0.84729 0.88512 0.41632 0.0
C2377 C 0.82866 0.88935 0.3741 0.0
C2378 C 0.81555 0.87428 0.38295 0.0
C2379 C 0.8224 0.87283 0.39649 0.0
C2380 C 0.79385 0.86099 0.37853 0.0
C2381 C 0.82151 0.89264 0.35959 0.0
C2382 C 0.7718 0.86574 0.38472 0.0
C2383 C 0.75103 0.85414 0.38028 0.0
C2384 C 0.75189 0.83756 0.36956 0.0
C2385 C 0.77411 0.83234 0.36361 0.0
C2386 C 0.79491 0.84384 0.36811 0.0
H2387 H 0.8296 0.9092 0.35514 0.0
H2388 H 0.82773 0.87679 0.35367 0.0
H2389 H 0.80179 0.89388 0.35857 0.0
H2390 H 0.77057 0.87883 0.39281 0.0
H2391 H 0.73425 0.85856 0.38511 0.0
H2392 H 0.76894 0.14949 0.14757 0.0
H2393 H 0.80307 0.12435 0.1412 0.0
H2394 H 0.79454 0.14611 0.09988 0.0
H2395 H 0.76039 0.17145 0.10614 0.0
H2396 H 0.80169 0.08552 0.12239 0.0
H2397 H 0.86655 0.15683 0.10737 0.0
H2398 H 0.84059 0.16323 0.11756 0.0
H2399 H 0.83754 0.15913 0.09974 0.0
C2400 C 0.77442 0.14914 0.13714 0.0
C2401 C 0.76191 0.1625 0.12736 0.0
C2402 C 0.79393 0.13474 0.13353 0.0
C2403 C 0.80148 0.13359 0.12011 0.0
C2404 C 0.78924 0.14708 0.11033 0.0
H2405 H 0.90638 0.05011 0.07617 0.0
H2406 H 0.87621 0.07915 0.08368 0.0
C2407 C 0.76965 0.16144 0.11392 0.0
C2408 C 0.82131 0.11721 0.11625 0.0
H2409 H 0.87724 0.11607 0.10257 0.0
C2410 C 0.81828 0.09217 0.11814 0.0
C2411 C 0.84284 0.12599 0.11065 0.0
C2412 C 0.84727 0.15278 0.10879 0.0
C2413 C 0.83604 0.07558 0.11432 0.0
C2414 C 0.85765 0.08434 0.10874 0.0
C2415 C 0.8607 0.10941 0.10689 0.0
C2416 C 0.87701 0.06767 0.10446 0.0
C2417 C 0.83118 0.0488 0.11592 0.0
C2418 C 0.88793 0.05199 0.11371 0.0
C2419 C 0.9051 0.03525 0.10944 0.0
C2420 C 0.91185 0.03406 0.09585 0.0
C2421 C 0.90155 0.05047 0.0867 0.0
C2422 C 0.8843 0.06711 0.09097 0.0
H2423 H 0.81178 0.04498 0.11698 0.0
H2424 H 0.83812 0.03839 0.10719 0.0
H2425 H 0.84027 0.04213 0.12511 0.0
H2426 H 0.88297 0.05251 0.12423 0.0
H2427 H 0.91283 0.02304 0.11677 0.0
H2428 H 0.58399 0.05168 0.91366 0.0
H2429 H 0.6133 0.0812 0.90576 0.0
H2430 H 0.62336 0.03955 0.86951 0.0
H2431 H 0.59429 0.00966 0.87742 0.0
H2432 H 0.66521 0.04908 0.88252 0.0
H2433 H 0.61294 0.13384 0.87708 0.0
H2434 H 0.60914 0.11966 0.89317 0.0
H2435 H 0.59906 0.10433 0.87825 0.0
C2436 C 0.59208 0.049 0.90389 0.0
C2437 C 0.58689 0.02822 0.8962 0.0
C2438 C 0.60874 0.06601 0.89935 0.0
C2439 C 0.62035 0.06271 0.88699 0.0
C2440 C 0.61452 0.04249 0.87906 0.0
H2441 H 0.72451 0.1615 0.85124 0.0
H2442 H 0.68874 0.13735 0.85589 0.0
C2443 C 0.59788 0.02544 0.88359 0.0
C2444 C 0.64033 0.07887 0.88304 0.0
H2445 H 0.65556 0.13814 0.87777 0.0
C2446 C 0.66304 0.06852 0.88136 0.0
C2447 C 0.63745 0.10421 0.88142 0.0
C2448 C 0.61328 0.11616 0.88244 0.0
C2449 C 0.68307 0.08287 0.87848 0.0
C2450 C 0.68039 0.10832 0.87749 0.0
C2451 C 0.65758 0.11865 0.87874 0.0
C2452 C 0.7012 0.12438 0.87516 0.0
C2453 C 0.70694 0.07065 0.87648 0.0
C2454 C 0.71973 0.12558 0.88463 0.0
C2455 C 0.74018 0.13931 0.88201 0.0
C2456 C 0.74244 0.15219 0.86989 0.0
C2457 C 0.7234 0.1517 0.86065 0.0
C2458 C 0.70293 0.13795 0.86329 0.0
H2459 H 0.7049 0.05103 0.87418 0.0
H2460 H 0.7171 0.07936 0.8682 0.0
H2461 H 0.71761 0.07233 0.88583 0.0
H2462 H 0.71852 0.11555 0.89396 0.0
H2463 H 0.75442 0.13941 0.88938 0.0
H2464 H 0.72344 0.68845 0.87474 0.0
H2465 H 0.761 0.67331 0.88415 0.0
H2466 H 0.79032 0.66726 0.84422 0.0
H2467 H 0.75309 0.68257 0.83475 0.0
H2468 H 0.77931 0.62847 0.87882 0.0
H2469 H 0.84541 0.69823 0.86458 0.0
H2470 H 0.81362 0.70395 0.86451 0.0
H2471 H 0.82764 0.68902 0.85047 0.0
C2472 C 0.73802 0.68424 0.86797 0.0
C2473 C 0.73524 0.68661 0.85399 0.0
C2474 C 0.75948 0.67567 0.87338 0.0
C2475 C 0.7786 0.66958 0.86491 0.0
C2476 C 0.77604 0.67247 0.85097 0.0
H2477 H 0.89345 0.57905 0.85431 0.0
H2478 H 0.86512 0.61248 0.8551 0.0
C2479 C 0.75462 0.68098 0.84556 0.0
C2480 C 0.80016 0.65747 0.87034 0.0
H2481 H 0.86101 0.65763 0.86822 0.0
C2482 C 0.79722 0.63511 0.87685 0.0
C2483 C 0.82346 0.66625 0.8678 0.0
C2484 C 0.82774 0.69082 0.86158 0.0
C2485 C 0.81688 0.62031 0.87985 0.0
C2486 C 0.84013 0.62836 0.87646 0.0
C2487 C 0.84317 0.65148 0.8708 0.0
C2488 C 0.86074 0.61154 0.87669 0.0
C2489 C 0.81243 0.5954 0.88566 0.0
C2490 C 0.86859 0.60067 0.88866 0.0
C2491 C 0.88479 0.58132 0.88825 0.0
C2492 C 0.89335 0.57266 0.87584 0.0
C2493 C 0.88696 0.58502 0.86402 0.0
C2494 C 0.87083 0.60425 0.86445 0.0
H2495 H 0.79313 0.59069 0.88585 0.0
H2496 H 0.82204 0.58136 0.87976 0.0
H2497 H 0.81922 0.59478 0.89613 0.0
H2498 H 0.86131 0.60636 0.89824 0.0
H2499 H 0.8895 0.5723 0.89754 0.0
H2500 H 0.74199 0.67991 0.15783 0.0
H2501 H 0.70503 0.66343 0.14857 0.0
H2502 H 0.72958 0.67928 0.10845 0.0
H2503 H 0.76691 0.69556 0.11763 0.0
H2504 H 0.66913 0.68315 0.13118 0.0
H2505 H 0.71809 0.60544 0.10818 0.0
H2506 H 0.73177 0.62508 0.12047 0.0
H2507 H 0.72759 0.63544 0.10354 0.0
C2508 C 0.73952 0.68009 0.14704 0.0
C2509 C 0.75755 0.68875 0.13846 0.0
C2510 C 0.71831 0.67076 0.14177 0.0
C2511 C 0.71472 0.66987 0.12783 0.0
C2512 C 0.73218 0.6795 0.11924 0.0
H2513 H 0.60746 0.57047 0.09508 0.0
H2514 H 0.63412 0.60576 0.09476 0.0
C2515 C 0.75347 0.68882 0.12451 0.0
C2516 C 0.69341 0.65724 0.12246 0.0
H2517 H 0.67644 0.60412 0.10768 0.0
C2518 C 0.67066 0.66607 0.12583 0.0
C2519 C 0.69548 0.63508 0.11538 0.0
C2520 C 0.71949 0.62451 0.11172 0.0
C2521 C 0.64996 0.65271 0.12287 0.0
C2522 C 0.65216 0.62976 0.11663 0.0
C2523 C 0.67478 0.62174 0.11246 0.0
C2524 C 0.63215 0.61214 0.11619 0.0
C2525 C 0.626 0.663 0.12681 0.0
C2526 C 0.62173 0.60443 0.12827 0.0
C2527 C 0.60661 0.58433 0.12849 0.0
C2528 C 0.60171 0.57138 0.11663 0.0
C2529 C 0.61086 0.58007 0.10438 0.0
C2530 C 0.62611 0.60021 0.10418 0.0
H2531 H 0.62625 0.68315 0.1265 0.0
H2532 H 0.61156 0.65632 0.12011 0.0
H2533 H 0.62181 0.65749 0.13727 0.0
H2534 H 0.62652 0.61293 0.13771 0.0
H2535 H 0.5998 0.57818 0.13809 0.0
H2536 H 0.7681 0.3127 0.37935 0.0
H2537 H 0.73068 0.32669 0.38946 0.0
H2538 H 0.69748 0.32731 0.35036 0.0
H2539 H 0.73457 0.31312 0.34021 0.0
H2540 H 0.70997 0.37 0.38342 0.0
H2541 H 0.64567 0.29633 0.37321 0.0
H2542 H 0.67762 0.2919 0.37234 0.0
H2543 H 0.6617 0.30475 0.35832 0.0
C2544 C 0.75271 0.31541 0.37293 0.0
C2545 C 0.75435 0.31191 0.35896 0.0
C2546 C 0.73134 0.32334 0.37874 0.0
C2547 C 0.71118 0.32764 0.3707 0.0
C2548 C 0.7126 0.32349 0.35681 0.0
H2549 H 0.59289 0.41235 0.35979 0.0
H2550 H 0.62227 0.37996 0.36124 0.0
C2551 C 0.73393 0.31563 0.351 0.0
C2552 C 0.68963 0.33938 0.37641 0.0
H2553 H 0.62874 0.33672 0.37586 0.0
C2554 C 0.6922 0.36249 0.38214 0.0
C2555 C 0.66652 0.32945 0.37477 0.0
C2556 C 0.66272 0.30412 0.36945 0.0
C2557 C 0.67223 0.37685 0.38516 0.0
C2558 C 0.64907 0.3676 0.3826 0.0
C2559 C 0.6465 0.34378 0.37779 0.0
C2560 C 0.62791 0.38372 0.38265 0.0
C2561 C 0.67616 0.4025 0.39003 0.0
C2562 C 0.62044 0.39581 0.39435 0.0
C2563 C 0.60362 0.41457 0.39354 0.0
C2564 C 0.59408 0.42141 0.38102 0.0
C2565 C 0.60013 0.40779 0.36956 0.0
C2566 C 0.61686 0.38915 0.37038 0.0
H2567 H 0.69528 0.40788 0.38967 0.0
H2568 H 0.66572 0.41551 0.38386 0.0
H2569 H 0.66998 0.40409 0.40058 0.0
H2570 H 0.62847 0.39156 0.40396 0.0
H2571 H 0.5992 0.4246 0.40256 0.0
H2572 H 0.89725 0.41499 0.63987 0.0
H2573 H 0.87031 0.38041 0.63934 0.0
H2574 H 0.86161 0.38904 0.59655 0.0
H2575 H 0.88855 0.42413 0.59701 0.0
H2576 H 0.81947 0.38993 0.61 0.0
H2577 H 0.87102 0.31057 0.6271 0.0
H2578 H 0.87585 0.33589 0.63807 0.0
H2579 H 0.88522 0.33771 0.62078 0.0
C2580 C 0.89011 0.40923 0.63027 0.0
C2581 C 0.89486 0.42247 0.6185 0.0
C2582 C 0.87486 0.38924 0.62996 0.0
C2583 C 0.86415 0.38193 0.61788 0.0
C2584 C 0.86987 0.39426 0.60596 0.0
H2585 H 0.73029 0.2968 0.62112 0.0
H2586 H 0.76661 0.31395 0.61115 0.0
C2587 C 0.88527 0.41428 0.60625 0.0
C2588 C 0.84431 0.36414 0.61829 0.0
H2589 H 0.82838 0.31015 0.63247 0.0
C2590 C 0.82146 0.37216 0.61453 0.0
C2591 C 0.84696 0.34097 0.62419 0.0
C2592 C 0.87116 0.3307 0.62762 0.0
C2593 C 0.80099 0.35857 0.61761 0.0
C2594 C 0.80354 0.33623 0.62445 0.0
C2595 C 0.82649 0.32739 0.62732 0.0
C2596 C 0.78264 0.3235 0.63021 0.0
C2597 C 0.77673 0.36906 0.61444 0.0
C2598 C 0.78001 0.32257 0.64421 0.0
C2599 C 0.75939 0.3128 0.64993 0.0
C2600 C 0.74099 0.30369 0.64174 0.0
C2601 C 0.74404 0.30384 0.6277 0.0
C2602 C 0.76475 0.31365 0.62198 0.0
H2603 H 0.77784 0.3881 0.61084 0.0
H2604 H 0.76809 0.35802 0.60648 0.0
H2605 H 0.76507 0.36853 0.62346 0.0
H2606 H 0.79363 0.3301 0.65073 0.0
H2607 H 0.75771 0.31283 0.66077 0.0
H2608 H 0.10814 0.4932 0.10862 0.0
H2609 H 0.13793 0.46347 0.1156 0.0
H2610 H 0.10692 0.41058 0.08881 0.0
H2611 H 0.07749 0.44059 0.08139 0.0
H2612 H 0.1354 0.42027 0.12741 0.0
H2613 H 0.17537 0.40954 0.07672 0.0
H2614 H 0.15384 0.43288 0.08051 0.0
H2615 H 0.14415 0.40226 0.07738 0.0
C2616 C 0.10756 0.47522 0.10423 0.0
C2617 C 0.09058 0.46933 0.09434 0.0
C2618 C 0.12462 0.45822 0.10825 0.0
C2619 C 0.12501 0.43493 0.10253 0.0
C2620 C 0.10742 0.42864 0.09308 0.0
H2621 H 0.21766 0.32221 0.13709 0.0
H2622 H 0.18262 0.34512 0.12965 0.0
C2623 C 0.0905 0.44576 0.08892 0.0
C2624 C 0.14411 0.41756 0.10639 0.0
H2625 H 0.19055 0.3843 0.09388 0.0
C2626 C 0.14742 0.41234 0.12008 0.0
C2627 C 0.16 0.40747 0.09683 0.0
C2628 C 0.15837 0.41347 0.08206 0.0
C2629 C 0.16633 0.39761 0.12449 0.0
C2630 C 0.18196 0.38718 0.1149 0.0
C2631 C 0.17844 0.39213 0.10121 0.0
C2632 C 0.20294 0.37232 0.11889 0.0
C2633 C 0.1699 0.39421 0.1394 0.0
C2634 C 0.22595 0.37935 0.11485 0.0
C2635 C 0.24595 0.36604 0.11887 0.0
C2636 C 0.24336 0.34548 0.12708 0.0
C2637 C 0.22026 0.33812 0.13088 0.0
C2638 C 0.20022 0.3513 0.12671 0.0
H2639 H 0.16056 0.40845 0.14532 0.0
H2640 H 0.1625 0.37637 0.14245 0.0
H2641 H 0.18916 0.3946 0.14206 0.0
H2642 H 0.2285 0.39545 0.10877 0.0
H2643 H 0.26347 0.37221 0.11576 0.0
H2644 H 0.40466 0.47295 0.87714 0.0
H2645 H 0.37536 0.44223 0.87052 0.0
H2646 H 0.37915 0.41046 0.91003 0.0
H2647 H 0.40842 0.44114 0.91679 0.0
H2648 H 0.37814 0.38913 0.87146 0.0
H2649 H 0.30722 0.4278 0.9043 0.0
H2650 H 0.33369 0.44463 0.89973 0.0
H2651 H 0.33533 0.42124 0.91224 0.0
C2652 C 0.39943 0.45933 0.88441 0.0
C2653 C 0.40876 0.45963 0.89753 0.0
C2654 C 0.38271 0.44178 0.88059 0.0
C2655 C 0.37489 0.42432 0.88985 0.0
C2656 C 0.38474 0.42402 0.90281 0.0
H2657 H 0.25805 0.31976 0.88482 0.0
H2658 H 0.29256 0.34348 0.89229 0.0
C2659 C 0.40153 0.4415 0.90662 0.0
C2660 C 0.35584 0.40697 0.88604 0.0
H2661 H 0.29752 0.39254 0.8921 0.0
C2662 C 0.36052 0.38979 0.87598 0.0
C2663 C 0.33293 0.40788 0.89201 0.0
C2664 C 0.3268 0.42646 0.90261 0.0
C2665 C 0.34285 0.37337 0.87174 0.0
C2666 C 0.31975 0.37462 0.8775 0.0
C2667 C 0.31523 0.39159 0.88771 0.0
C2668 C 0.29972 0.35915 0.87277 0.0
C2669 C 0.34919 0.35468 0.86125 0.0
C2670 C 0.2922 0.36017 0.85933 0.0
C2671 C 0.27256 0.34658 0.85502 0.0
C2672 C 0.25985 0.33189 0.8641 0.0
C2673 C 0.26744 0.33086 0.87756 0.0
C2674 C 0.28717 0.3444 0.88185 0.0
H2675 H 0.36873 0.35118 0.86099 0.0
H2676 H 0.33978 0.33726 0.86311 0.0
H2677 H 0.34382 0.36149 0.8512 0.0
H2678 H 0.3012 0.37189 0.85222 0.0
H2679 H 0.26711 0.34793 0.8446 0.0
H2680 H 0.42672 0.55989 0.58605 0.0
H2681 H 0.39628 0.58936 0.59281 0.0
H2682 H 0.36316 0.53532 0.618 0.0
H2683 H 0.39377 0.50603 0.6116 0.0
H2684 H 0.34915 0.58746 0.58863 0.0
H2685 H 0.3657 0.59208 0.64332 0.0
H2686 H 0.38658 0.57824 0.63183 0.0
H2687 H 0.3611 0.56145 0.63781 0.0
C2688 C 0.41314 0.55439 0.59317 0.0
C2689 C 0.41274 0.53063 0.59833 0.0
C2690 C 0.39574 0.57124 0.59701 0.0
C2691 C 0.37763 0.56469 0.60608 0.0
C2692 C 0.3773 0.54102 0.61128 0.0
H2693 H 0.23596 0.62268 0.61419 0.0
H2694 H 0.27237 0.60136 0.60767 0.0
C2695 C 0.39476 0.52423 0.60754 0.0
C2696 C 0.35821 0.58201 0.60945 0.0
H2697 H 0.32752 0.60662 0.63578 0.0
C2698 C 0.3446 0.59189 0.59893 0.0
C2699 C 0.3525 0.58815 0.62288 0.0
C2700 C 0.36741 0.57963 0.63459 0.0
C2701 C 0.32488 0.60693 0.6015 0.0
C2702 C 0.31822 0.61173 0.61496 0.0
C2703 C 0.33241 0.60267 0.62546 0.0
C2704 C 0.29622 0.62545 0.61842 0.0
C2705 C 0.31146 0.61757 0.58975 0.0
C2706 C 0.29741 0.64582 0.62687 0.0
C2707 C 0.27655 0.65787 0.63078 0.0
C2708 C 0.25407 0.64977 0.62631 0.0
C2709 C 0.25297 0.62954 0.61772 0.0
C2710 C 0.27382 0.6174 0.6139 0.0
H2711 H 0.32302 0.61891 0.5807 0.0
H2712 H 0.29619 0.60558 0.58721 0.0
H2713 H 0.30442 0.6359 0.59214 0.0
H2714 H 0.31449 0.65228 0.63054 0.0
H2715 H 0.27803 0.67339 0.63741 0.0
H2716 H 0.09131 0.52768 0.37599 0.0
H2717 H 0.12066 0.55852 0.3696 0.0
H2718 H 0.11528 0.59078 0.40894 0.0
H2719 H 0.08597 0.56004 0.41547 0.0
H2720 H 0.11785 0.61221 0.37064 0.0
H2721 H 0.18745 0.57247 0.40395 0.0
H2722 H 0.16113 0.55583 0.39893 0.0
H2723 H 0.15904 0.57893 0.41159 0.0
C2724 C 0.09618 0.54145 0.38326 0.0
C2725 C 0.08644 0.54126 0.39629 0.0
C2726 C 0.11293 0.55907 0.37957 0.0
C2727 C 0.12032 0.57668 0.38886 0.0
C2728 C 0.10999 0.57712 0.4017 0.0
H2729 H 0.23867 0.67955 0.3858 0.0
H2730 H 0.20328 0.65662 0.39269 0.0
C2731 C 0.09319 0.55958 0.40538 0.0
C2732 C 0.13958 0.59392 0.3853 0.0
H2733 H 0.19776 0.60783 0.39206 0.0
C2734 C 0.13532 0.61135 0.37532 0.0
C2735 C 0.16228 0.59275 0.39149 0.0
C2736 C 0.16795 0.57391 0.40203 0.0
C2737 C 0.15321 0.62776 0.37139 0.0
C2738 C 0.17611 0.62625 0.37738 0.0
C2739 C 0.18021 0.60901 0.3875 0.0
C2740 C 0.19642 0.64162 0.37296 0.0
C2741 C 0.14731 0.64672 0.36098 0.0
C2742 C 0.20434 0.64079 0.35959 0.0
C2743 C 0.22447 0.65395 0.35561 0.0
C2744 C 0.23729 0.66798 0.36497 0.0
C2745 C 0.22921 0.66894 0.37834 0.0
C2746 C 0.20899 0.65585 0.3823 0.0
H2747 H 0.12782 0.65043 0.3606 0.0
H2748 H 0.15686 0.664 0.36302 0.0
H2749 H 0.15284 0.64004 0.35093 0.0
H2750 H 0.19533 0.62946 0.35229 0.0
H2751 H 0.23027 0.65266 0.34526 0.0
loop_
_geom_bond_atom_site_label_1
_geom_bond_atom_site_label_2
_geom_bond_distance
_geom_bond_site_symmetry_2
_ccdc_geom_bond_type
Zn0 O3 2.031 . S
Zn0 O5 2.049 . S
Zn0 O10 2.067 . S
Zn1 O2 1.962 . S
Zn1 O4 1.986 . S
Zn1 O6 1.996 . S
Zn1 O9 1.943 . S
O2 Zn1 1.962 . S
O2 C7 1.254 . S
O3 Zn0 2.031 . S
O3 C7 1.269 . S
O4 Zn1 1.986 . S
O4 C11 1.262 . S
O5 Zn0 2.049 . S
O5 C13 1.260 . S
O6 Zn1 1.996 . S
O6 C13 1.257 . S
C7 O2 1.254 . S
C7 O3 1.269 . S
C8 O9 1.249 . S
C8 O10 1.270 . S
O9 Zn1 1.943 . S
O9 C8 1.249 . S
O10 Zn0 2.067 . S
O10 C8 1.270 . S
C11 O4 1.262 . S
C11 O12 1.232 . S
O12 C11 1.232 . S
C13 O5 1.260 . S
C13 O6 1.257 . S
Zn14 O17 2.031 . S
Zn14 O19 2.049 . S
Zn14 O24 2.067 . S
Zn15 O16 1.962 . S
Zn15 O18 1.986 . S
Zn15 O20 1.996 . S
Zn15 O23 1.943 . S
O16 Zn15 1.962 . S
O16 C21 1.254 . S
O17 Zn14 2.031 . S
O17 C21 1.269 . S
O18 Zn15 1.986 . S
O18 C25 1.262 . S
O19 Zn14 2.049 . S
O19 C27 1.260 1_565 S
O20 Zn15 1.996 . S
O20 C27 1.257 1_565 S
C21 O16 1.254 . S
C21 O17 1.269 . S
C22 O23 1.249 . S
C22 O24 1.270 . S
O23 Zn15 1.943 . S
O23 C22 1.249 . S
O24 Zn14 2.067 . S
O24 C22 1.270 . S
C25 O18 1.262 . S
C25 O26 1.232 . S
O26 C25 1.232 . S
C27 O19 1.260 1_545 S
C27 O20 1.257 1_545 S
Zn28 O31 2.031 . S
Zn28 O33 2.049 . S
Zn28 O38 2.067 . S
Zn29 O30 1.962 . S
Zn29 O32 1.986 . S
Zn29 O34 1.996 . S
Zn29 O37 1.943 . S
O30 Zn29 1.962 . S
O30 C35 1.254 . S
O31 Zn28 2.031 . S
O31 C35 1.269 . S
O32 Zn29 1.986 . S
O32 C39 1.262 . S
O33 Zn28 2.049 . S
O33 C41 1.260 . S
O34 Zn29 1.996 . S
O34 C41 1.257 . S
C35 O30 1.254 . S
C35 O31 1.269 . S
C36 O37 1.249 . S
C36 O38 1.270 . S
O37 Zn29 1.943 . S
O37 C36 1.249 . S
O38 Zn28 2.067 . S
O38 C36 1.270 . S
C39 O32 1.262 . S
C39 O40 1.232 . S
O40 C39 1.232 . S
C41 O33 1.260 . S
C41 O34 1.257 . S
Zn42 O45 2.031 . S
Zn42 O47 2.049 . S
Zn42 O52 2.067 . S
Zn43 O44 1.962 . S
Zn43 O46 1.986 . S
Zn43 O48 1.996 . S
Zn43 O51 1.943 . S
O44 Zn43 1.962 . S
O44 C49 1.254 . S
O45 Zn42 2.031 . S
O45 C49 1.269 . S
O46 Zn43 1.986 . S
O46 C53 1.262 . S
O47 Zn42 2.049 . S
O47 C55 1.260 1_545 S
O48 Zn43 1.996 . S
O48 C55 1.257 1_545 S
C49 O44 1.254 . S
C49 O45 1.269 . S
C50 O51 1.249 . S
C50 O52 1.270 . S
O51 Zn43 1.943 . S
O51 C50 1.249 . S
O52 Zn42 2.067 . S
O52 C50 1.270 . S
C53 O46 1.262 . S
C53 O54 1.232 . S
O54 C53 1.232 . S
C55 O47 1.260 1_565 S
C55 O48 1.257 1_565 S
Zn56 O59 2.031 . S
Zn56 O61 2.049 . S
Zn56 O66 2.067 . S
Zn57 O58 1.962 . S
Zn57 O60 1.986 . S
Zn57 O62 1.996 . S
Zn57 O65 1.943 . S
O58 Zn57 1.962 . S
O58 C63 1.254 . S
O59 Zn56 2.031 . S
O59 C63 1.269 . S
O60 Zn57 1.986 . S
O60 C67 1.262 . S
O61 Zn56 2.049 . S
O61 C69 1.260 . S
O62 Zn57 1.996 . S
O62 C69 1.257 . S
C63 O58 1.254 . S
C63 O59 1.269 . S
C64 O65 1.249 . S
C64 O66 1.270 . S
O65 Zn57 1.943 . S
O65 C64 1.249 . S
O66 Zn56 2.067 . S
O66 C64 1.270 . S
C67 O60 1.262 . S
C67 O68 1.232 . S
O68 C67 1.232 . S
C69 O61 1.260 . S
C69 O62 1.257 . S
Zn70 O73 2.031 . S
Zn70 O75 2.049 . S
Zn70 O80 2.067 . S
Zn71 O72 1.962 . S
Zn71 O74 1.986 . S
Zn71 O76 1.996 . S
Zn71 O79 1.943 . S
O72 Zn71 1.962 . S
O72 C77 1.254 . S
O73 Zn70 2.031 . S
O73 C77 1.269 . S
O74 Zn71 1.986 . S
O74 C81 1.262 . S
O75 Zn70 2.049 . S
O75 C83 1.260 1_565 S
O76 Zn71 1.996 . S
O76 C83 1.257 1_565 S
C77 O72 1.254 . S
C77 O73 1.269 . S
C78 O79 1.249 . S
C78 O80 1.270 . S
O79 Zn71 1.943 . S
O79 C78 1.249 . S
O80 Zn70 2.067 . S
O80 C78 1.270 . S
C81 O74 1.262 . S
C81 O82 1.232 . S
O82 C81 1.232 . S
C83 O75 1.260 1_545 S
C83 O76 1.257 1_545 S
Zn84 O87 2.031 . S
Zn84 O89 2.049 . S
Zn84 O94 2.067 . S
Zn85 O86 1.962 . S
Zn85 O88 1.986 . S
Zn85 O90 1.996 . S
Zn85 O93 1.943 . S
O86 Zn85 1.962 . S
O86 C91 1.254 . S
O87 Zn84 2.031 . S
O87 C91 1.269 . S
O88 Zn85 1.986 . S
O88 C95 1.262 . S
O89 Zn84 2.049 . S
O89 C97 1.260 . S
O90 Zn85 1.996 . S
O90 C97 1.257 . S
C91 O86 1.254 . S
C91 O87 1.269 . S
C92 O93 1.249 . S
C92 O94 1.270 . S
O93 Zn85 1.943 . S
O93 C92 1.249 . S
O94 Zn84 2.067 . S
O94 C92 1.270 . S
C95 O88 1.262 . S
C95 O96 1.232 . S
O96 C95 1.232 . S
C97 O89 1.260 . S
C97 O90 1.257 . S
Zn98 O101 2.031 . S
Zn98 O103 2.049 . S
Zn98 O108 2.067 . S
Zn99 O100 1.962 . S
Zn99 O102 1.986 . S
Zn99 O104 1.996 . S
Zn99 O107 1.943 . S
O100 Zn99 1.962 . S
O100 C105 1.254 . S
O101 Zn98 2.031 . S
O101 C105 1.269 . S
O102 Zn99 1.986 . S
O102 C109 1.262 . S
O103 Zn98 2.049 . S
O103 C111 1.260 1_545 S
O104 Zn99 1.996 . S
O104 C111 1.257 1_545 S
C105 O100 1.254 . S
C105 O101 1.269 . S
C106 O107 1.249 . S
C106 O108 1.270 . S
O107 Zn99 1.943 . S
O107 C106 1.249 . S
O108 Zn98 2.067 . S
O108 C106 1.270 . S
C109 O102 1.262 . S
C109 O110 1.232 . S
O110 C109 1.232 . S
C111 O103 1.260 1_565 S
C111 O104 1.257 1_565 S
Zn112 O115 2.031 . S
Zn112 O117 2.049 . S
Zn112 O122 2.067 . S
Zn113 O114 1.962 . S
Zn113 O116 1.986 . S
Zn113 O118 1.996 . S
Zn113 O121 1.943 . S
O114 Zn113 1.962 . S
O114 C119 1.254 . S
O115 Zn112 2.031 . S
O115 C119 1.269 . S
O116 Zn113 1.986 . S
O116 C123 1.262 . S
O117 Zn112 2.049 . S
O117 C125 1.260 . S
O118 Zn113 1.996 . S
O118 C125 1.257 . S
C119 O114 1.254 . S
C119 O115 1.269 . S
C120 O121 1.249 . S
C120 O122 1.270 . S
O121 Zn113 1.943 . S
O121 C120 1.249 . S
O122 Zn112 2.067 . S
O122 C120 1.270 . S
C123 O116 1.262 . S
C123 O124 1.232 . S
O124 C123 1.232 . S
C125 O117 1.260 . S
C125 O118 1.257 . S
Zn126 O129 2.031 . S
Zn126 O131 2.049 . S
Zn126 O136 2.067 . S
Zn127 O128 1.962 . S
Zn127 O130 1.986 1_545 S
Zn127 O132 1.996 . S
Zn127 O135 1.943 . S
O128 Zn127 1.962 . S
O128 C133 1.254 . S
O129 Zn126 2.031 . S
O129 C133 1.269 . S
O130 Zn127 1.986 1_565 S
O130 C137 1.262 . S
O131 Zn126 2.049 . S
O131 C139 1.260 . S
O132 Zn127 1.996 . S
O132 C139 1.257 . S
C133 O128 1.254 . S
C133 O129 1.269 . S
C134 O135 1.249 . S
C134 O136 1.270 . S
O135 Zn127 1.943 . S
O135 C134 1.249 . S
O136 Zn126 2.067 . S
O136 C134 1.270 . S
C137 O130 1.262 . S
C137 O138 1.232 1_565 S
O138 C137 1.232 1_545 S
C139 O131 1.260 . S
C139 O132 1.257 . S
Zn140 O143 2.031 . S
Zn140 O145 2.049 . S
Zn140 O150 2.067 . S
Zn141 O142 1.962 . S
Zn141 O144 1.986 . S
Zn141 O146 1.996 . S
Zn141 O149 1.943 . S
O142 Zn141 1.962 . S
O142 C147 1.254 . S
O143 Zn140 2.031 . S
O143 C147 1.269 . S
O144 Zn141 1.986 . S
O144 C151 1.262 . S
O145 Zn140 2.049 . S
O145 C153 1.260 . S
O146 Zn141 1.996 . S
O146 C153 1.257 . S
C147 O142 1.254 . S
C147 O143 1.269 . S
C148 O149 1.249 . S
C148 O150 1.270 . S
O149 Zn141 1.943 . S
O149 C148 1.249 . S
O150 Zn140 2.067 . S
O150 C148 1.270 . S
C151 O144 1.262 . S
C151 O152 1.232 . S
O152 C151 1.232 . S
C153 O145 1.260 . S
C153 O146 1.257 . S
Zn154 O157 2.031 . S
Zn154 O159 2.049 . S
Zn154 O164 2.067 . S
Zn155 O156 1.962 . S
Zn155 O158 1.986 1_565 S
Zn155 O160 1.996 . S
Zn155 O163 1.943 . S
O156 Zn155 1.962 . S
O156 C161 1.254 . S
O157 Zn154 2.031 . S
O157 C161 1.269 . S
O158 Zn155 1.986 1_545 S
O158 C165 1.262 . S
O159 Zn154 2.049 . S
O159 C167 1.260 . S
O160 Zn155 1.996 . S
O160 C167 1.257 . S
C161 O156 1.254 . S
C161 O157 1.269 . S
C162 O163 1.249 . S
C162 O164 1.270 . S
O163 Zn155 1.943 . S
O163 C162 1.249 . S
O164 Zn154 2.067 . S
O164 C162 1.270 . S
C165 O158 1.262 . S
C165 O166 1.232 1_545 S
O166 C165 1.232 1_565 S
C167 O159 1.260 . S
C167 O160 1.257 . S
Zn168 O171 2.031 . S
Zn168 O173 2.049 . S
Zn168 O178 2.067 . S
Zn169 O170 1.962 . S
Zn169 O172 1.986 . S
Zn169 O174 1.996 . S
Zn169 O177 1.943 . S
O170 Zn169 1.962 . S
O170 C175 1.254 . S
O171 Zn168 2.031 . S
O171 C175 1.269 . S
O172 Zn169 1.986 . S
O172 C179 1.262 . S
O173 Zn168 2.049 . S
O173 C181 1.260 . S
O174 Zn169 1.996 . S
O174 C181 1.257 . S
C175 O170 1.254 . S
C175 O171 1.269 . S
C176 O177 1.249 . S
C176 O178 1.270 . S
O177 Zn169 1.943 . S
O177 C176 1.249 . S
O178 Zn168 2.067 . S
O178 C176 1.270 . S
C179 O172 1.262 . S
C179 O180 1.232 . S
O180 C179 1.232 . S
C181 O173 1.260 . S
C181 O174 1.257 . S
Zn182 O185 2.031 . S
Zn182 O187 2.049 . S
Zn182 O192 2.067 . S
Zn183 O184 1.962 . S
Zn183 O186 1.986 1_545 S
Zn183 O188 1.996 . S
Zn183 O191 1.943 . S
O184 Zn183 1.962 . S
O184 C189 1.254 . S
O185 Zn182 2.031 . S
O185 C189 1.269 . S
O186 Zn183 1.986 1_565 S
O186 C193 1.262 . S
O187 Zn182 2.049 . S
O187 C195 1.260 . S
O188 Zn183 1.996 . S
O188 C195 1.257 . S
C189 O184 1.254 . S
C189 O185 1.269 . S
C190 O191 1.249 . S
C190 O192 1.270 . S
O191 Zn183 1.943 . S
O191 C190 1.249 . S
O192 Zn182 2.067 . S
O192 C190 1.270 . S
C193 O186 1.262 . S
C193 O194 1.232 1_565 S
O194 C193 1.232 1_545 S
C195 O187 1.260 . S
C195 O188 1.257 . S
Zn196 O199 2.031 . S
Zn196 O201 2.049 . S
Zn196 O206 2.067 . S
Zn197 O198 1.962 . S
Zn197 O200 1.986 . S
Zn197 O202 1.996 . S
Zn197 O205 1.943 . S
O198 Zn197 1.962 . S
O198 C203 1.254 . S
O199 Zn196 2.031 . S
O199 C203 1.269 . S
O200 Zn197 1.986 . S
O200 C207 1.262 . S
O201 Zn196 2.049 . S
O201 C209 1.260 . S
O202 Zn197 1.996 . S
O202 C209 1.257 . S
C203 O198 1.254 . S
C203 O199 1.269 . S
C204 O205 1.249 . S
C204 O206 1.270 . S
O205 Zn197 1.943 . S
O205 C204 1.249 . S
O206 Zn196 2.067 . S
O206 C204 1.270 . S
C207 O200 1.262 . S
C207 O208 1.232 . S
O208 C207 1.232 . S
C209 O201 1.260 . S
C209 O202 1.257 . S
Zn210 O213 2.031 . S
Zn210 O215 2.049 . S
Zn210 O220 2.067 . S
Zn211 O212 1.962 . S
Zn211 O214 1.986 1_565 S
Zn211 O216 1.996 . S
Zn211 O219 1.943 . S
O212 Zn211 1.962 . S
O212 C217 1.254 . S
O213 Zn210 2.031 . S
O213 C217 1.269 . S
O214 Zn211 1.986 1_545 S
O214 C221 1.262 . S
O215 Zn210 2.049 . S
O215 C223 1.260 . S
O216 Zn211 1.996 . S
O216 C223 1.257 . S
C217 O212 1.254 . S
C217 O213 1.269 . S
C218 O219 1.249 . S
C218 O220 1.270 . S
O219 Zn211 1.943 . S
O219 C218 1.249 . S
O220 Zn210 2.067 . S
O220 C218 1.270 . S
C221 O214 1.262 . S
C221 O222 1.232 1_545 S
O222 C221 1.232 1_565 S
C223 O215 1.260 . S
C223 O216 1.257 . S
Zn224 O227 2.031 . S
Zn224 O229 2.049 . S
Zn224 O234 2.067 . S
Zn225 O226 1.962 . S
Zn225 O228 1.986 . S
Zn225 O230 1.996 . S
Zn225 O233 1.943 . S
O226 Zn225 1.962 . S
O226 C231 1.254 . S
O227 Zn224 2.031 . S
O227 C231 1.269 . S
O228 Zn225 1.986 . S
O228 C235 1.262 . S
O229 Zn224 2.049 . S
O229 C237 1.260 . S
O230 Zn225 1.996 . S
O230 C237 1.257 . S
C231 O226 1.254 . S
C231 O227 1.269 . S
C232 O233 1.249 . S
C232 O234 1.270 . S
O233 Zn225 1.943 . S
O233 C232 1.249 . S
O234 Zn224 2.067 . S
O234 C232 1.270 . S
C235 O228 1.262 . S
C235 O236 1.232 . S
O236 C235 1.232 . S
C237 O229 1.260 . S
C237 O230 1.257 . S
Zn238 O241 2.031 . S
Zn238 O243 2.049 . S
Zn238 O248 2.067 . S
Zn239 O240 1.962 . S
Zn239 O242 1.986 . S
Zn239 O244 1.996 . S
Zn239 O247 1.943 . S
O240 Zn239 1.962 . S
O240 C245 1.254 . S
O241 Zn238 2.031 . S
O241 C245 1.269 . S
O242 Zn239 1.986 . S
O242 C249 1.262 . S
O243 Zn238 2.049 . S
O243 C251 1.260 . S
O244 Zn239 1.996 . S
O244 C251 1.257 . S
C245 O240 1.254 . S
C245 O241 1.269 . S
C246 O247 1.249 . S
C246 O248 1.270 . S
O247 Zn239 1.943 . S
O247 C246 1.249 . S
O248 Zn238 2.067 . S
O248 C246 1.270 . S
C249 O242 1.262 . S
C249 O250 1.232 . S
O250 C249 1.232 . S
C251 O243 1.260 . S
C251 O244 1.257 . S
Zn252 O255 2.031 . S
Zn252 O257 2.049 . S
Zn252 O262 2.067 . S
Zn253 O254 1.962 . S
Zn253 O256 1.986 . S
Zn253 O258 1.996 . S
Zn253 O261 1.943 . S
O254 Zn253 1.962 . S
O254 C259 1.254 . S
O255 Zn252 2.031 . S
O255 C259 1.269 . S
O256 Zn253 1.986 . S
O256 C263 1.262 . S
O257 Zn252 2.049 . S
O257 C265 1.260 . S
O258 Zn253 1.996 . S
O258 C265 1.257 . S
C259 O254 1.254 . S
C259 O255 1.269 . S
C260 O261 1.249 . S
C260 O262 1.270 . S
O261 Zn253 1.943 . S
O261 C260 1.249 . S
O262 Zn252 2.067 . S
O262 C260 1.270 . S
C263 O256 1.262 . S
C263 O264 1.232 . S
O264 C263 1.232 . S
C265 O257 1.260 . S
C265 O258 1.257 . S
Zn266 O269 2.031 . S
Zn266 O271 2.049 . S
Zn266 O276 2.067 . S
Zn267 O268 1.962 . S
Zn267 O270 1.986 . S
Zn267 O272 1.996 . S
Zn267 O275 1.943 . S
O268 Zn267 1.962 . S
O268 C273 1.254 . S
O269 Zn266 2.031 . S
O269 C273 1.269 . S
O270 Zn267 1.986 . S
O270 C277 1.262 . S
O271 Zn266 2.049 . S
O271 C279 1.260 . S
O272 Zn267 1.996 . S
O272 C279 1.257 . S
C273 O268 1.254 . S
C273 O269 1.269 . S
C274 O275 1.249 . S
C274 O276 1.270 . S
O275 Zn267 1.943 . S
O275 C274 1.249 . S
O276 Zn266 2.067 . S
O276 C274 1.270 . S
C277 O270 1.262 . S
C277 O278 1.232 . S
O278 C277 1.232 . S
C279 O271 1.260 . S
C279 O272 1.257 . S
Zn280 O283 2.031 . S
Zn280 O285 2.049 . S
Zn280 O290 2.067 . S
Zn281 O282 1.962 . S
Zn281 O284 1.986 . S
Zn281 O286 1.996 . S
Zn281 O289 1.943 . S
O282 Zn281 1.962 . S
O282 C287 1.254 . S
O283 Zn280 2.031 . S
O283 C287 1.269 . S
O284 Zn281 1.986 . S
O284 C291 1.262 . S
O285 Zn280 2.049 . S
O285 C293 1.260 . S
O286 Zn281 1.996 . S
O286 C293 1.257 . S
C287 O282 1.254 . S
C287 O283 1.269 . S
C288 O289 1.249 . S
C288 O290 1.270 . S
O289 Zn281 1.943 . S
O289 C288 1.249 . S
O290 Zn280 2.067 . S
O290 C288 1.270 . S
C291 O284 1.262 . S
C291 O292 1.232 . S
O292 C291 1.232 . S
C293 O285 1.260 . S
C293 O286 1.257 . S
Zn294 O297 2.031 . S
Zn294 O299 2.049 . S
Zn294 O304 2.067 . S
Zn295 O296 1.962 . S
Zn295 O298 1.986 . S
Zn295 O300 1.996 . S
Zn295 O303 1.943 . S
O296 Zn295 1.962 . S
O296 C301 1.254 . S
O297 Zn294 2.031 . S
O297 C301 1.269 . S
O298 Zn295 1.986 . S
O298 C305 1.262 . S
O299 Zn294 2.049 . S
O299 C307 1.260 . S
O300 Zn295 1.996 . S
O300 C307 1.257 . S
C301 O296 1.254 . S
C301 O297 1.269 . S
C302 O303 1.249 . S
C302 O304 1.270 . S
O303 Zn295 1.943 . S
O303 C302 1.249 . S
O304 Zn294 2.067 . S
O304 C302 1.270 . S
C305 O298 1.262 . S
C305 O306 1.232 . S
O306 C305 1.232 . S
C307 O299 1.260 . S
C307 O300 1.257 . S
Zn308 O311 2.031 . S
Zn308 O313 2.049 . S
Zn308 O318 2.067 . S
Zn309 O310 1.962 . S
Zn309 O312 1.986 . S
Zn309 O314 1.996 . S
Zn309 O317 1.943 . S
O310 Zn309 1.962 . S
O310 C315 1.254 . S
O311 Zn308 2.031 . S
O311 C315 1.269 . S
O312 Zn309 1.986 . S
O312 C319 1.262 . S
O313 Zn308 2.049 . S
O313 C321 1.260 . S
O314 Zn309 1.996 . S
O314 C321 1.257 . S
C315 O310 1.254 . S
C315 O311 1.269 . S
C316 O317 1.249 . S
C316 O318 1.270 . S
O317 Zn309 1.943 . S
O317 C316 1.249 . S
O318 Zn308 2.067 . S
O318 C316 1.270 . S
C319 O312 1.262 . S
C319 O320 1.232 . S
O320 C319 1.232 . S
C321 O313 1.260 . S
C321 O314 1.257 . S
Zn322 O325 2.031 . S
Zn322 O327 2.049 . S
Zn322 O332 2.067 . S
Zn323 O324 1.962 . S
Zn323 O326 1.986 . S
Zn323 O328 1.996 . S
Zn323 O331 1.943 . S
O324 Zn323 1.962 . S
O324 C329 1.254 . S
O325 Zn322 2.031 . S
O325 C329 1.269 . S
O326 Zn323 1.986 . S
O326 C333 1.262 . S
O327 Zn322 2.049 . S
O327 C335 1.260 . S
O328 Zn323 1.996 . S
O328 C335 1.257 . S
C329 O324 1.254 . S
C329 O325 1.269 . S
C330 O331 1.249 . S
C330 O332 1.270 . S
O331 Zn323 1.943 . S
O331 C330 1.249 . S
O332 Zn322 2.067 . S
O332 C330 1.270 . S
C333 O326 1.262 . S
C333 O334 1.232 . S
O334 C333 1.232 . S
C335 O327 1.260 . S
C335 O328 1.257 . S
Zn336 O339 2.031 . S
Zn336 O341 2.049 . S
Zn336 O346 2.067 . S
Zn337 O338 1.962 . S
Zn337 O340 1.986 . S
Zn337 O342 1.996 . S
Zn337 O345 1.943 . S
O338 Zn337 1.962 . S
O338 C343 1.254 . S
O339 Zn336 2.031 . S
O339 C343 1.269 . S
O340 Zn337 1.986 . S
O340 C347 1.262 . S
O341 Zn336 2.049 . S
O341 C349 1.260 . S
O342 Zn337 1.996 . S
O342 C349 1.257 . S
C343 O338 1.254 . S
C343 O339 1.269 . S
C344 O345 1.249 . S
C344 O346 1.270 . S
O345 Zn337 1.943 . S
O345 C344 1.249 . S
O346 Zn336 2.067 . S
O346 C344 1.270 . S
C347 O340 1.262 . S
C347 O348 1.232 . S
O348 C347 1.232 . S
C349 O341 1.260 . S
C349 O342 1.257 . S
Zn350 O353 2.031 . S
Zn350 O355 2.049 . S
Zn350 O360 2.067 . S
Zn351 O352 1.962 . S
Zn351 O354 1.986 . S
Zn351 O356 1.996 . S
Zn351 O359 1.943 . S
O352 Zn351 1.962 . S
O352 C357 1.254 . S
O353 Zn350 2.031 . S
O353 C357 1.269 . S
O354 Zn351 1.986 . S
O354 C361 1.262 . S
O355 Zn350 2.049 . S
O355 C363 1.260 . S
O356 Zn351 1.996 . S
O356 C363 1.257 . S
C357 O352 1.254 . S
C357 O353 1.269 . S
C358 O359 1.249 . S
C358 O360 1.270 . S
O359 Zn351 1.943 . S
O359 C358 1.249 . S
O360 Zn350 2.067 . S
O360 C358 1.270 . S
C361 O354 1.262 . S
C361 O362 1.232 . S
O362 C361 1.232 . S
C363 O355 1.260 . S
C363 O356 1.257 . S
Zn364 O367 2.031 . S
Zn364 O369 2.049 . S
Zn364 O374 2.067 . S
Zn365 O366 1.962 . S
Zn365 O368 1.986 . S
Zn365 O370 1.996 . S
Zn365 O373 1.943 . S
O366 Zn365 1.962 . S
O366 C371 1.254 . S
O367 Zn364 2.031 . S
O367 C371 1.269 . S
O368 Zn365 1.986 . S
O368 C375 1.262 . S
O369 Zn364 2.049 . S
O369 C377 1.260 . S
O370 Zn365 1.996 . S
O370 C377 1.257 . S
C371 O366 1.254 . S
C371 O367 1.269 . S
C372 O373 1.249 . S
C372 O374 1.270 . S
O373 Zn365 1.943 . S
O373 C372 1.249 . S
O374 Zn364 2.067 . S
O374 C372 1.270 . S
C375 O368 1.262 . S
C375 O376 1.232 . S
O376 C375 1.232 . S
C377 O369 1.260 . S
C377 O370 1.257 . S
Zn378 O381 2.031 . S
Zn378 O383 2.049 . S
Zn378 O388 2.067 . S
Zn379 O380 1.962 . S
Zn379 O382 1.986 . S
Zn379 O384 1.996 . S
Zn379 O387 1.943 . S
O380 Zn379 1.962 . S
O380 C385 1.254 . S
O381 Zn378 2.031 . S
O381 C385 1.269 . S
O382 Zn379 1.986 . S
O382 C389 1.262 . S
O383 Zn378 2.049 . S
O383 C391 1.260 . S
O384 Zn379 1.996 . S
O384 C391 1.257 . S
C385 O380 1.254 . S
C385 O381 1.269 . S
C386 O387 1.249 . S
C386 O388 1.270 . S
O387 Zn379 1.943 . S
O387 C386 1.249 . S
O388 Zn378 2.067 . S
O388 C386 1.270 . S
C389 O382 1.262 . S
C389 O390 1.232 . S
O390 C389 1.232 . S
C391 O383 1.260 . S
C391 O384 1.257 . S
Zn392 O395 2.031 . S
Zn392 O397 2.049 . S
Zn392 O402 2.067 . S
Zn393 O394 1.962 . S
Zn393 O396 1.986 . S
Zn393 O398 1.996 . S
Zn393 O401 1.943 . S
O394 Zn393 1.962 . S
O394 C399 1.254 . S
O395 Zn392 2.031 . S
O395 C399 1.269 . S
O396 Zn393 1.986 . S
O396 C403 1.262 . S
O397 Zn392 2.049 . S
O397 C405 1.260 . S
O398 Zn393 1.996 . S
O398 C405 1.257 . S
C399 O394 1.254 . S
C399 O395 1.269 . S
C400 O401 1.249 . S
C400 O402 1.270 . S
O401 Zn393 1.943 . S
O401 C400 1.249 . S
O402 Zn392 2.067 . S
O402 C400 1.270 . S
C403 O396 1.262 . S
C403 O404 1.232 . S
O404 C403 1.232 . S
C405 O397 1.260 . S
C405 O398 1.257 . S
Zn406 O409 2.031 . S
Zn406 O411 2.049 . S
Zn406 O416 2.067 . S
Zn407 O408 1.962 . S
Zn407 O410 1.986 . S
Zn407 O412 1.996 . S
Zn407 O415 1.943 . S
O408 Zn407 1.962 . S
O408 C413 1.254 . S
O409 Zn406 2.031 . S
O409 C413 1.269 . S
O410 Zn407 1.986 . S
O410 C417 1.262 . S
O411 Zn406 2.049 . S
O411 C419 1.260 . S
O412 Zn407 1.996 . S
O412 C419 1.257 . S
C413 O408 1.254 . S
C413 O409 1.269 . S
C414 O415 1.249 . S
C414 O416 1.270 . S
O415 Zn407 1.943 . S
O415 C414 1.249 . S
O416 Zn406 2.067 . S
O416 C414 1.270 . S
C417 O410 1.262 . S
C417 O418 1.232 . S
O418 C417 1.232 . S
C419 O411 1.260 . S
C419 O412 1.257 . S
Zn420 O423 2.031 . S
Zn420 O425 2.049 . S
Zn420 O430 2.067 . S
Zn421 O422 1.962 . S
Zn421 O424 1.986 . S
Zn421 O426 1.996 . S
Zn421 O429 1.943 . S
O422 Zn421 1.962 . S
O422 C427 1.254 . S
O423 Zn420 2.031 . S
O423 C427 1.269 . S
O424 Zn421 1.986 . S
O424 C431 1.262 . S
O425 Zn420 2.049 . S
O425 C433 1.260 . S
O426 Zn421 1.996 . S
O426 C433 1.257 . S
C427 O422 1.254 . S
C427 O423 1.269 . S
C428 O429 1.249 . S
C428 O430 1.270 . S
O429 Zn421 1.943 . S
O429 C428 1.249 . S
O430 Zn420 2.067 . S
O430 C428 1.270 . S
C431 O424 1.262 . S
C431 O432 1.232 . S
O432 C431 1.232 . S
C433 O425 1.260 . S
C433 O426 1.257 . S
Zn434 O437 2.031 . S
Zn434 O439 2.049 . S
Zn434 O444 2.067 . S
Zn435 O436 1.962 . S
Zn435 O438 1.986 . S
Zn435 O440 1.996 . S
Zn435 O443 1.943 . S
O436 Zn435 1.962 . S
O436 C441 1.254 . S
O437 Zn434 2.031 . S
O437 C441 1.269 . S
O438 Zn435 1.986 . S
O438 C445 1.262 . S
O439 Zn434 2.049 . S
O439 C447 1.260 . S
O440 Zn435 1.996 . S
O440 C447 1.257 . S
C441 O436 1.254 . S
C441 O437 1.269 . S
C442 O443 1.249 . S
C442 O444 1.270 . S
O443 Zn435 1.943 . S
O443 C442 1.249 . S
O444 Zn434 2.067 . S
O444 C442 1.270 . S
C445 O438 1.262 . S
C445 O446 1.232 . S
O446 C445 1.232 . S
C447 O439 1.260 . S
C447 O440 1.257 . S
H448 C456 0.929 . S
H449 C458 0.930 . S
H450 C460 0.930 . S
H451 C463 0.929 . S
H452 C466 0.930 . S
H453 C468 0.960 . S
H454 C468 0.960 . S
H455 C468 0.960 . S
C456 H448 0.929 . S
C456 C457 1.377 . S
C456 C458 1.384 . S
C457 C456 1.377 . S
C457 C463 1.390 . S
C458 H449 0.930 . S
C458 C456 1.384 . S
C458 C459 1.372 . S
C459 C458 1.372 . S
C459 C460 1.400 . S
C459 C464 1.490 . S
C460 H450 0.930 . S
C460 C459 1.400 . S
C460 C463 1.386 . S
H461 C477 0.930 . S
H462 C478 0.931 . S
C463 H451 0.929 . S
C463 C457 1.390 . S
C463 C460 1.386 . S
C464 C459 1.490 . S
C464 C466 1.395 . S
C464 C467 1.403 . S
H465 C471 0.930 . S
C466 H452 0.930 . S
C466 C464 1.395 . S
C466 C469 1.403 . S
C467 C464 1.403 . S
C467 C468 1.524 . S
C467 C471 1.400 . S
C468 H453 0.960 . S
C468 H454 0.960 . S
C468 H455 0.960 . S
C468 C467 1.524 . S
C469 C466 1.403 . S
C469 C470 1.392 . S
C469 C473 1.495 . S
C470 C469 1.392 . S
C470 C471 1.385 . S
C470 C472 1.478 . S
C471 H465 0.930 . S
C471 C467 1.400 . S
C471 C470 1.385 . S
C472 C470 1.478 . S
C472 C474 1.381 . S
C472 C478 1.383 . S
C473 C469 1.495 . S
C473 H479 0.959 . S
C473 H480 0.961 . S
C473 H481 0.960 . S
C474 C472 1.381 . S
C474 C475 1.394 . S
C474 H482 0.930 . S
C475 C474 1.394 . S
C475 C476 1.383 . S
C475 H483 0.929 . S
C476 C475 1.383 . S
C476 C477 1.377 . S
C477 H461 0.930 . S
C477 C476 1.377 . S
C477 C478 1.379 . S
C478 H462 0.931 . S
C478 C472 1.383 . S
C478 C477 1.379 . S
H479 C473 0.959 . S
H480 C473 0.961 . S
H481 C473 0.960 . S
H482 C474 0.930 . S
H483 C475 0.929 . S
H484 C492 0.929 . S
H485 C494 0.930 . S
H486 C496 0.930 . S
H487 C499 0.929 . S
H488 C502 0.930 . S
H489 C504 0.960 . S
H490 C504 0.960 . S
H491 C504 0.960 . S
C492 H484 0.929 . S
C492 C493 1.377 . S
C492 C494 1.384 . S
C493 C492 1.377 . S
C493 C499 1.390 . S
C494 H485 0.930 . S
C494 C492 1.384 . S
C494 C495 1.372 . S
C495 C494 1.372 . S
C495 C496 1.400 . S
C495 C500 1.490 . S
C496 H486 0.930 . S
C496 C495 1.400 . S
C496 C499 1.386 . S
H497 C513 0.930 . S
H498 C514 0.931 . S
C499 H487 0.929 . S
C499 C493 1.390 . S
C499 C496 1.386 . S
C500 C495 1.490 . S
C500 C502 1.395 . S
C500 C503 1.403 . S
H501 C507 0.930 . S
C502 H488 0.930 . S
C502 C500 1.395 . S
C502 C505 1.403 . S
C503 C500 1.403 . S
C503 C504 1.524 . S
C503 C507 1.400 . S
C504 H489 0.960 . S
C504 H490 0.960 . S
C504 H491 0.960 . S
C504 C503 1.524 . S
C505 C502 1.403 . S
C505 C506 1.392 . S
C505 C509 1.495 . S
C506 C505 1.392 . S
C506 C507 1.385 . S
C506 C508 1.478 . S
C507 H501 0.930 . S
C507 C503 1.400 . S
C507 C506 1.385 . S
C508 C506 1.478 . S
C508 C510 1.381 . S
C508 C514 1.383 . S
C509 C505 1.495 . S
C509 H515 0.959 . S
C509 H516 0.961 . S
C509 H517 0.960 . S
C510 C508 1.381 . S
C510 C511 1.394 . S
C510 H518 0.930 . S
C511 C510 1.394 . S
C511 C512 1.383 . S
C511 H519 0.929 . S
C512 C511 1.383 . S
C512 C513 1.377 . S
C513 H497 0.930 . S
C513 C512 1.377 . S
C513 C514 1.379 . S
C514 H498 0.931 . S
C514 C508 1.383 . S
C514 C513 1.379 . S
H515 C509 0.959 . S
H516 C509 0.961 . S
H517 C509 0.960 . S
H518 C510 0.930 . S
H519 C511 0.929 . S
H520 C528 0.929 . S
H521 C530 0.930 . S
H522 C532 0.930 . S
H523 C535 0.929 . S
H524 C538 0.930 . S
H525 C540 0.960 . S
H526 C540 0.960 . S
H527 C540 0.960 . S
C528 H520 0.929 . S
C528 C529 1.377 . S
C528 C530 1.384 . S
C529 C528 1.377 . S
C529 C535 1.390 . S
C530 H521 0.930 . S
C530 C528 1.384 . S
C530 C531 1.372 . S
C531 C530 1.372 . S
C531 C532 1.400 . S
C531 C536 1.490 . S
C532 H522 0.930 . S
C532 C531 1.400 . S
C532 C535 1.386 . S
H533 C549 0.930 . S
H534 C550 0.931 . S
C535 H523 0.929 . S
C535 C529 1.390 . S
C535 C532 1.386 . S
C536 C531 1.490 . S
C536 C538 1.395 . S
C536 C539 1.403 . S
H537 C543 0.930 . S
C538 H524 0.930 . S
C538 C536 1.395 . S
C538 C541 1.403 . S
C539 C536 1.403 . S
C539 C540 1.524 . S
C539 C543 1.400 . S
C540 H525 0.960 . S
C540 H526 0.960 . S
C540 H527 0.960 . S
C540 C539 1.524 . S
C541 C538 1.403 . S
C541 C542 1.392 . S
C541 C545 1.495 . S
C542 C541 1.392 . S
C542 C543 1.385 . S
C542 C544 1.478 . S
C543 H537 0.930 . S
C543 C539 1.400 . S
C543 C542 1.385 . S
C544 C542 1.478 . S
C544 C546 1.381 . S
C544 C550 1.383 . S
C545 C541 1.495 . S
C545 H551 0.959 . S
C545 H552 0.961 . S
C545 H553 0.960 . S
C546 C544 1.381 . S
C546 C547 1.394 . S
C546 H554 0.930 . S
C547 C546 1.394 . S
C547 C548 1.383 . S
C547 H555 0.929 . S
C548 C547 1.383 . S
C548 C549 1.377 . S
C549 H533 0.930 . S
C549 C548 1.377 . S
C549 C550 1.379 . S
C550 H534 0.931 . S
C550 C544 1.383 . S
C550 C549 1.379 . S
H551 C545 0.959 . S
H552 C545 0.961 . S
H553 C545 0.960 . S
H554 C546 0.930 . S
H555 C547 0.929 . S
H556 C564 0.929 . S
H557 C566 0.930 . S
H558 C568 0.930 . S
H559 C571 0.929 . S
H560 C574 0.930 . S
H561 C576 0.960 . S
H562 C576 0.960 . S
H563 C576 0.960 . S
C564 H556 0.929 . S
C564 C565 1.377 . S
C564 C566 1.384 . S
C565 C564 1.377 . S
C565 C571 1.390 . S
C566 H557 0.930 . S
C566 C564 1.384 . S
C566 C567 1.372 . S
C567 C566 1.372 . S
C567 C568 1.400 . S
C567 C572 1.490 . S
C568 H558 0.930 . S
C568 C567 1.400 . S
C568 C571 1.386 . S
H569 C585 0.930 . S
H570 C586 0.931 . S
C571 H559 0.929 . S
C571 C565 1.390 . S
C571 C568 1.386 . S
C572 C567 1.490 . S
C572 C574 1.395 . S
C572 C575 1.403 . S
H573 C579 0.930 . S
C574 H560 0.930 . S
C574 C572 1.395 . S
C574 C577 1.403 . S
C575 C572 1.403 . S
C575 C576 1.524 . S
C575 C579 1.400 . S
C576 H561 0.960 . S
C576 H562 0.960 . S
C576 H563 0.960 . S
C576 C575 1.524 . S
C577 C574 1.403 . S
C577 C578 1.392 . S
C577 C581 1.495 . S
C578 C577 1.392 . S
C578 C579 1.385 . S
C578 C580 1.478 . S
C579 H573 0.930 . S
C579 C575 1.400 . S
C579 C578 1.385 . S
C580 C578 1.478 . S
C580 C582 1.381 . S
C580 C586 1.383 . S
C581 C577 1.495 . S
C581 H587 0.959 . S
C581 H588 0.961 . S
C581 H589 0.960 . S
C582 C580 1.381 . S
C582 C583 1.394 . S
C582 H590 0.930 . S
C583 C582 1.394 . S
C583 C584 1.383 . S
C583 H591 0.929 . S
C584 C583 1.383 . S
C584 C585 1.377 . S
C585 H569 0.930 . S
C585 C584 1.377 . S
C585 C586 1.379 . S
C586 H570 0.931 . S
C586 C580 1.383 . S
C586 C585 1.379 . S
H587 C581 0.959 . S
H588 C581 0.961 . S
H589 C581 0.960 . S
H590 C582 0.930 . S
H591 C583 0.929 . S
H592 C600 0.929 . S
H593 C602 0.930 . S
H594 C604 0.930 . S
H595 C607 0.929 . S
H596 C610 0.930 . S
H597 C612 0.960 . S
H598 C612 0.960 . S
H599 C612 0.960 . S
C600 H592 0.929 . S
C600 C601 1.377 . S
C600 C602 1.384 . S
C601 C600 1.377 . S
C601 C607 1.390 . S
C602 H593 0.930 . S
C602 C600 1.384 . S
C602 C603 1.372 . S
C603 C602 1.372 . S
C603 C604 1.400 . S
C603 C608 1.490 . S
C604 H594 0.930 . S
C604 C603 1.400 . S
C604 C607 1.386 . S
H605 C621 0.930 . S
H606 C622 0.931 . S
C607 H595 0.929 . S
C607 C601 1.390 . S
C607 C604 1.386 . S
C608 C603 1.490 . S
C608 C610 1.395 . S
C608 C611 1.403 . S
H609 C615 0.930 . S
C610 H596 0.930 . S
C610 C608 1.395 . S
C610 C613 1.403 . S
C611 C608 1.403 . S
C611 C612 1.524 . S
C611 C615 1.400 . S
C612 H597 0.960 . S
C612 H598 0.960 . S
C612 H599 0.960 . S
C612 C611 1.524 . S
C613 C610 1.403 . S
C613 C614 1.392 . S
C613 C617 1.495 . S
C614 C613 1.392 . S
C614 C615 1.385 . S
C614 C616 1.478 . S
C615 H609 0.930 . S
C615 C611 1.400 . S
C615 C614 1.385 . S
C616 C614 1.478 . S
C616 C618 1.381 . S
C616 C622 1.383 . S
C617 C613 1.495 . S
C617 H623 0.959 . S
C617 H624 0.961 . S
C617 H625 0.960 . S
C618 C616 1.381 . S
C618 C619 1.394 . S
C618 H626 0.930 . S
C619 C618 1.394 . S
C619 C620 1.383 . S
C619 H627 0.929 . S
C620 C619 1.383 . S
C620 C621 1.377 . S
C621 H605 0.930 . S
C621 C620 1.377 . S
C621 C622 1.379 . S
C622 H606 0.931 . S
C622 C616 1.383 . S
C622 C621 1.379 . S
H623 C617 0.959 . S
H624 C617 0.961 . S
H625 C617 0.960 . S
H626 C618 0.930 . S
H627 C619 0.929 . S
H628 C636 0.929 . S
H629 C638 0.930 . S
H630 C640 0.930 . S
H631 C643 0.929 . S
H632 C646 0.930 . S
H633 C648 0.960 . S
H634 C648 0.960 . S
H635 C648 0.960 . S
C636 H628 0.929 . S
C636 C637 1.377 . S
C636 C638 1.384 . S
C637 C636 1.377 . S
C637 C643 1.390 . S
C638 H629 0.930 . S
C638 C636 1.384 . S
C638 C639 1.372 . S
C639 C638 1.372 . S
C639 C640 1.400 . S
C639 C644 1.490 . S
C640 H630 0.930 . S
C640 C639 1.400 . S
C640 C643 1.386 . S
H641 C657 0.930 . S
H642 C658 0.931 . S
C643 H631 0.929 . S
C643 C637 1.390 . S
C643 C640 1.386 . S
C644 C639 1.490 . S
C644 C646 1.395 . S
C644 C647 1.403 . S
H645 C651 0.930 . S
C646 H632 0.930 . S
C646 C644 1.395 . S
C646 C649 1.403 . S
C647 C644 1.403 . S
C647 C648 1.524 . S
C647 C651 1.400 . S
C648 H633 0.960 . S
C648 H634 0.960 . S
C648 H635 0.960 . S
C648 C647 1.524 . S
C649 C646 1.403 . S
C649 C650 1.392 . S
C649 C653 1.495 . S
C650 C649 1.392 . S
C650 C651 1.385 . S
C650 C652 1.478 . S
C651 H645 0.930 . S
C651 C647 1.400 . S
C651 C650 1.385 . S
C652 C650 1.478 . S
C652 C654 1.381 . S
C652 C658 1.383 . S
C653 C649 1.495 . S
C653 H659 0.959 . S
C653 H660 0.961 . S
C653 H661 0.960 . S
C654 C652 1.381 . S
C654 C655 1.394 . S
C654 H662 0.930 . S
C655 C654 1.394 . S
C655 C656 1.383 . S
C655 H663 0.929 . S
C656 C655 1.383 . S
C656 C657 1.377 . S
C657 H641 0.930 . S
C657 C656 1.377 . S
C657 C658 1.379 . S
C658 H642 0.931 . S
C658 C652 1.383 . S
C658 C657 1.379 . S
H659 C653 0.959 . S
H660 C653 0.961 . S
H661 C653 0.960 . S
H662 C654 0.930 . S
H663 C655 0.929 . S
H664 C672 0.929 . S
H665 C674 0.930 . S
H666 C676 0.930 . S
H667 C679 0.929 . S
H668 C682 0.930 . S
H669 C684 0.960 . S
H670 C684 0.960 . S
H671 C684 0.960 . S
C672 H664 0.929 . S
C672 C673 1.377 . S
C672 C674 1.384 . S
C673 C672 1.377 . S
C673 C679 1.390 . S
C674 H665 0.930 . S
C674 C672 1.384 . S
C674 C675 1.372 . S
C675 C674 1.372 . S
C675 C676 1.400 . S
C675 C680 1.490 . S
C676 H666 0.930 . S
C676 C675 1.400 . S
C676 C679 1.386 . S
H677 C693 0.930 . S
H678 C694 0.931 . S
C679 H667 0.929 . S
C679 C673 1.390 . S
C679 C676 1.386 . S
C680 C675 1.490 . S
C680 C682 1.395 . S
C680 C683 1.403 . S
H681 C687 0.930 . S
C682 H668 0.930 . S
C682 C680 1.395 . S
C682 C685 1.403 . S
C683 C680 1.403 . S
C683 C684 1.524 . S
C683 C687 1.400 . S
C684 H669 0.960 . S
C684 H670 0.960 . S
C684 H671 0.960 . S
C684 C683 1.524 . S
C685 C682 1.403 . S
C685 C686 1.392 . S
C685 C689 1.495 . S
C686 C685 1.392 . S
C686 C687 1.385 . S
C686 C688 1.478 . S
C687 H681 0.930 . S
C687 C683 1.400 . S
C687 C686 1.385 . S
C688 C686 1.478 . S
C688 C690 1.381 . S
C688 C694 1.383 . S
C689 C685 1.495 . S
C689 H695 0.959 . S
C689 H696 0.961 . S
C689 H697 0.960 . S
C690 C688 1.381 . S
C690 C691 1.394 . S
C690 H698 0.930 . S
C691 C690 1.394 . S
C691 C692 1.383 . S
C691 H699 0.929 . S
C692 C691 1.383 . S
C692 C693 1.377 . S
C693 H677 0.930 . S
C693 C692 1.377 . S
C693 C694 1.379 . S
C694 H678 0.931 . S
C694 C688 1.383 . S
C694 C693 1.379 . S
H695 C689 0.959 . S
H696 C689 0.961 . S
H697 C689 0.960 . S
H698 C690 0.930 . S
H699 C691 0.929 . S
H700 C708 0.929 1_455 S
H701 C710 0.930 . S
H702 C712 0.930 . S
H703 C715 0.929 . S
H704 C718 0.930 . S
H705 C720 0.960 . S
H706 C720 0.960 . S
H707 C720 0.960 . S
C708 H700 0.929 1_655 S
C708 C709 1.377 . S
C708 C710 1.384 . S
C709 C708 1.377 . S
C709 C715 1.390 . S
C710 H701 0.930 . S
C710 C708 1.384 . S
C710 C711 1.372 . S
C711 C710 1.372 . S
C711 C712 1.400 . S
C711 C716 1.490 . S
C712 H702 0.930 . S
C712 C711 1.400 . S
C712 C715 1.386 . S
H713 C729 0.930 . S
H714 C730 0.931 . S
C715 H703 0.929 . S
C715 C709 1.390 . S
C715 C712 1.386 . S
C716 C711 1.490 . S
C716 C718 1.395 . S
C716 C719 1.403 . S
H717 C723 0.930 . S
C718 H704 0.930 . S
C718 C716 1.395 . S
C718 C721 1.403 . S
C719 C716 1.403 . S
C719 C720 1.524 . S
C719 C723 1.400 . S
C720 H705 0.960 . S
C720 H706 0.960 . S
C720 H707 0.960 . S
C720 C719 1.524 . S
C721 C718 1.403 . S
C721 C722 1.392 . S
C721 C725 1.495 . S
C722 C721 1.392 . S
C722 C723 1.385 . S
C722 C724 1.478 . S
C723 H717 0.930 . S
C723 C719 1.400 . S
C723 C722 1.385 . S
C724 C722 1.478 . S
C724 C726 1.381 . S
C724 C730 1.383 . S
C725 C721 1.495 . S
C725 H731 0.959 . S
C725 H732 0.961 . S
C725 H733 0.960 . S
C726 C724 1.381 . S
C726 C727 1.394 . S
C726 H734 0.930 . S
C727 C726 1.394 . S
C727 C728 1.383 . S
C727 H735 0.929 . S
C728 C727 1.383 . S
C728 C729 1.377 . S
C729 H713 0.930 . S
C729 C728 1.377 . S
C729 C730 1.379 . S
C730 H714 0.931 . S
C730 C724 1.383 . S
C730 C729 1.379 . S
H731 C725 0.959 . S
H732 C725 0.961 . S
H733 C725 0.960 . S
H734 C726 0.930 . S
H735 C727 0.929 . S
H736 C744 0.929 . S
H737 C746 0.930 . S
H738 C748 0.930 . S
H739 C751 0.929 . S
H740 C754 0.930 . S
H741 C756 0.960 . S
H742 C756 0.960 . S
H743 C756 0.960 . S
C744 H736 0.929 . S
C744 C745 1.377 . S
C744 C746 1.384 . S
C745 C744 1.377 . S
C745 C751 1.390 . S
C746 H737 0.930 . S
C746 C744 1.384 . S
C746 C747 1.372 . S
C747 C746 1.372 . S
C747 C748 1.400 . S
C747 C752 1.490 . S
C748 H738 0.930 . S
C748 C747 1.400 . S
C748 C751 1.386 . S
H749 C765 0.930 . S
H750 C766 0.931 . S
C751 H739 0.929 . S
C751 C745 1.390 . S
C751 C748 1.386 . S
C752 C747 1.490 . S
C752 C754 1.395 . S
C752 C755 1.403 . S
H753 C759 0.930 . S
C754 H740 0.930 . S
C754 C752 1.395 . S
C754 C757 1.403 . S
C755 C752 1.403 . S
C755 C756 1.524 . S
C755 C759 1.400 . S
C756 H741 0.960 . S
C756 H742 0.960 . S
C756 H743 0.960 . S
C756 C755 1.524 . S
C757 C754 1.403 . S
C757 C758 1.392 . S
C757 C761 1.495 . S
C758 C757 1.392 . S
C758 C759 1.385 . S
C758 C760 1.478 . S
C759 H753 0.930 . S
C759 C755 1.400 . S
C759 C758 1.385 . S
C760 C758 1.478 . S
C760 C762 1.381 . S
C760 C766 1.383 . S
C761 C757 1.495 . S
C761 H767 0.959 . S
C761 H768 0.961 . S
C761 H769 0.960 . S
C762 C760 1.381 . S
C762 C763 1.394 . S
C762 H770 0.930 . S
C763 C762 1.394 . S
C763 C764 1.383 . S
C763 H771 0.929 . S
C764 C763 1.383 . S
C764 C765 1.377 . S
C765 H749 0.930 . S
C765 C764 1.377 . S
C765 C766 1.379 . S
C766 H750 0.931 . S
C766 C760 1.383 . S
C766 C765 1.379 . S
H767 C761 0.959 . S
H768 C761 0.961 . S
H769 C761 0.960 . S
H770 C762 0.930 . S
H771 C763 0.929 . S
H772 C780 0.929 . S
H773 C782 0.930 . S
H774 C784 0.930 . S
H775 C787 0.929 . S
H776 C790 0.930 . S
H777 C792 0.960 . S
H778 C792 0.960 . S
H779 C792 0.960 . S
C780 H772 0.929 . S
C780 C781 1.377 . S
C780 C782 1.384 . S
C781 C780 1.377 . S
C781 C787 1.390 . S
C782 H773 0.930 . S
C782 C780 1.384 . S
C782 C783 1.372 . S
C783 C782 1.372 . S
C783 C784 1.400 . S
C783 C788 1.490 . S
C784 H774 0.930 . S
C784 C783 1.400 . S
C784 C787 1.386 . S
H785 C801 0.930 . S
H786 C802 0.931 . S
C787 H775 0.929 . S
C787 C781 1.390 . S
C787 C784 1.386 . S
C788 C783 1.490 . S
C788 C790 1.395 . S
C788 C791 1.403 . S
H789 C795 0.930 . S
C790 H776 0.930 . S
C790 C788 1.395 . S
C790 C793 1.403 . S
C791 C788 1.403 . S
C791 C792 1.524 . S
C791 C795 1.400 . S
C792 H777 0.960 . S
C792 H778 0.960 . S
C792 H779 0.960 . S
C792 C791 1.524 . S
C793 C790 1.403 . S
C793 C794 1.392 . S
C793 C797 1.495 . S
C794 C793 1.392 . S
C794 C795 1.385 . S
C794 C796 1.478 . S
C795 H789 0.930 . S
C795 C791 1.400 . S
C795 C794 1.385 . S
C796 C794 1.478 . S
C796 C798 1.381 . S
C796 C802 1.383 . S
C797 C793 1.495 . S
C797 H803 0.959 . S
C797 H804 0.961 . S
C797 H805 0.960 . S
C798 C796 1.381 . S
C798 C799 1.394 . S
C798 H806 0.930 . S
C799 C798 1.394 . S
C799 C800 1.383 1_455 S
C799 H807 0.929 . S
C800 C799 1.383 1_655 S
C800 C801 1.377 . S
C801 H785 0.930 . S
C801 C800 1.377 . S
C801 C802 1.379 1_655 S
C802 H786 0.931 . S
C802 C796 1.383 . S
C802 C801 1.379 1_455 S
H803 C797 0.959 . S
H804 C797 0.961 . S
H805 C797 0.960 . S
H806 C798 0.930 . S
H807 C799 0.929 . S
H808 C816 0.929 . S
H809 C818 0.930 . S
H810 C820 0.930 . S
H811 C823 0.929 . S
H812 C826 0.930 . S
H813 C828 0.960 . S
H814 C828 0.960 . S
H815 C828 0.960 . S
C816 H808 0.929 . S
C816 C817 1.377 . S
C816 C818 1.384 . S
C817 C816 1.377 . S
C817 C823 1.390 . S
C818 H809 0.930 . S
C818 C816 1.384 . S
C818 C819 1.372 . S
C819 C818 1.372 . S
C819 C820 1.400 . S
C819 C824 1.490 . S
C820 H810 0.930 . S
C820 C819 1.400 . S
C820 C823 1.386 . S
H821 C837 0.930 . S
H822 C838 0.931 . S
C823 H811 0.929 . S
C823 C817 1.390 . S
C823 C820 1.386 . S
C824 C819 1.490 . S
C824 C826 1.395 . S
C824 C827 1.403 . S
H825 C831 0.930 . S
C826 H812 0.930 . S
C826 C824 1.395 . S
C826 C829 1.403 . S
C827 C824 1.403 . S
C827 C828 1.524 . S
C827 C831 1.400 . S
C828 H813 0.960 . S
C828 H814 0.960 . S
C828 H815 0.960 . S
C828 C827 1.524 . S
C829 C826 1.403 . S
C829 C830 1.392 . S
C829 C833 1.495 . S
C830 C829 1.392 . S
C830 C831 1.385 . S
C830 C832 1.478 . S
C831 H825 0.930 . S
C831 C827 1.400 . S
C831 C830 1.385 . S
C832 C830 1.478 . S
C832 C834 1.381 . S
C832 C838 1.383 . S
C833 C829 1.495 . S
C833 H839 0.959 . S
C833 H840 0.961 . S
C833 H841 0.960 . S
C834 C832 1.381 . S
C834 C835 1.394 . S
C834 H842 0.930 . S
C835 C834 1.394 . S
C835 C836 1.383 . S
C835 H843 0.929 . S
C836 C835 1.383 . S
C836 C837 1.377 . S
C837 H821 0.930 . S
C837 C836 1.377 . S
C837 C838 1.379 . S
C838 H822 0.931 . S
C838 C832 1.383 . S
C838 C837 1.379 . S
H839 C833 0.959 . S
H840 C833 0.961 . S
H841 C833 0.960 . S
H842 C834 0.930 . S
H843 C835 0.929 . S
H844 C852 0.929 . S
H845 C854 0.930 . S
H846 C856 0.930 . S
H847 C859 0.929 . S
H848 C862 0.930 . S
H849 C864 0.960 . S
H850 C864 0.960 . S
H851 C864 0.960 . S
C852 H844 0.929 . S
C852 C853 1.377 . S
C852 C854 1.384 . S
C853 C852 1.377 . S
C853 C859 1.390 . S
C854 H845 0.930 . S
C854 C852 1.384 . S
C854 C855 1.372 . S
C855 C854 1.372 . S
C855 C856 1.400 . S
C855 C860 1.490 . S
C856 H846 0.930 . S
C856 C855 1.400 . S
C856 C859 1.386 . S
H857 C873 0.930 . S
H858 C874 0.931 . S
C859 H847 0.929 . S
C859 C853 1.390 . S
C859 C856 1.386 . S
C860 C855 1.490 . S
C860 C862 1.395 . S
C860 C863 1.403 . S
H861 C867 0.930 . S
C862 H848 0.930 . S
C862 C860 1.395 . S
C862 C865 1.403 . S
C863 C860 1.403 . S
C863 C864 1.524 . S
C863 C867 1.400 . S
C864 H849 0.960 . S
C864 H850 0.960 . S
C864 H851 0.960 . S
C864 C863 1.524 . S
C865 C862 1.403 . S
C865 C866 1.392 . S
C865 C869 1.495 . S
C866 C865 1.392 . S
C866 C867 1.385 . S
C866 C868 1.478 . S
C867 H861 0.930 . S
C867 C863 1.400 . S
C867 C866 1.385 . S
C868 C866 1.478 . S
C868 C870 1.381 . S
C868 C874 1.383 . S
C869 C865 1.495 . S
C869 H875 0.959 . S
C869 H876 0.961 . S
C869 H877 0.960 . S
C870 C868 1.381 . S
C870 C871 1.394 . S
C870 H878 0.930 . S
C871 C870 1.394 . S
C871 C872 1.383 . S
C871 H879 0.929 . S
C872 C871 1.383 . S
C872 C873 1.377 . S
C873 H857 0.930 . S
C873 C872 1.377 . S
C873 C874 1.379 . S
C874 H858 0.931 . S
C874 C868 1.383 . S
C874 C873 1.379 . S
H875 C869 0.959 . S
H876 C869 0.961 . S
H877 C869 0.960 . S
H878 C870 0.930 . S
H879 C871 0.929 . S
H880 C888 0.929 . S
H881 C890 0.930 . S
H882 C892 0.930 . S
H883 C895 0.929 . S
H884 C898 0.930 . S
H885 C900 0.960 . S
H886 C900 0.960 . S
H887 C900 0.960 . S
C888 H880 0.929 . S
C888 C889 1.377 . S
C888 C890 1.384 . S
C889 C888 1.377 . S
C889 C895 1.390 . S
C890 H881 0.930 . S
C890 C888 1.384 . S
C890 C891 1.372 . S
C891 C890 1.372 . S
C891 C892 1.400 . S
C891 C896 1.490 . S
C892 H882 0.930 . S
C892 C891 1.400 . S
C892 C895 1.386 . S
H893 C909 0.930 . S
H894 C910 0.931 . S
C895 H883 0.929 . S
C895 C889 1.390 . S
C895 C892 1.386 . S
C896 C891 1.490 . S
C896 C898 1.395 . S
C896 C899 1.403 . S
H897 C903 0.930 . S
C898 H884 0.930 . S
C898 C896 1.395 . S
C898 C901 1.403 . S
C899 C896 1.403 . S
C899 C900 1.524 . S
C899 C903 1.400 . S
C900 H885 0.960 . S
C900 H886 0.960 . S
C900 H887 0.960 . S
C900 C899 1.524 . S
C901 C898 1.403 . S
C901 C902 1.392 . S
C901 C905 1.495 . S
C902 C901 1.392 . S
C902 C903 1.385 . S
C902 C904 1.478 . S
C903 H897 0.930 . S
C903 C899 1.400 . S
C903 C902 1.385 . S
C904 C902 1.478 . S
C904 C906 1.381 . S
C904 C910 1.383 . S
C905 C901 1.495 . S
C905 H911 0.959 . S
C905 H912 0.961 . S
C905 H913 0.960 . S
C906 C904 1.381 . S
C906 C907 1.394 . S
C906 H914 0.930 . S
C907 C906 1.394 . S
C907 C908 1.383 . S
C907 H915 0.929 . S
C908 C907 1.383 . S
C908 C909 1.377 . S
C909 H893 0.930 . S
C909 C908 1.377 . S
C909 C910 1.379 . S
C910 H894 0.931 . S
C910 C904 1.383 . S
C910 C909 1.379 . S
H911 C905 0.959 . S
H912 C905 0.961 . S
H913 C905 0.960 . S
H914 C906 0.930 . S
H915 C907 0.929 . S
H916 C924 0.929 . S
H917 C926 0.930 . S
H918 C928 0.930 . S
H919 C931 0.929 . S
H920 C934 0.930 . S
H921 C936 0.960 . S
H922 C936 0.960 . S
H923 C936 0.960 . S
C924 H916 0.929 . S
C924 C925 1.377 . S
C924 C926 1.384 . S
C925 C924 1.377 . S
C925 C931 1.390 . S
C926 H917 0.930 . S
C926 C924 1.384 . S
C926 C927 1.372 . S
C927 C926 1.372 . S
C927 C928 1.400 . S
C927 C932 1.490 . S
C928 H918 0.930 . S
C928 C927 1.400 . S
C928 C931 1.386 . S
H929 C945 0.930 . S
H930 C946 0.931 . S
C931 H919 0.929 . S
C931 C925 1.390 . S
C931 C928 1.386 . S
C932 C927 1.490 . S
C932 C934 1.395 . S
C932 C935 1.403 . S
H933 C939 0.930 . S
C934 H920 0.930 . S
C934 C932 1.395 . S
C934 C937 1.403 . S
C935 C932 1.403 . S
C935 C936 1.524 . S
C935 C939 1.400 . S
C936 H921 0.960 . S
C936 H922 0.960 . S
C936 H923 0.960 . S
C936 C935 1.524 . S
C937 C934 1.403 . S
C937 C938 1.392 . S
C937 C941 1.495 . S
C938 C937 1.392 . S
C938 C939 1.385 . S
C938 C940 1.478 . S
C939 H933 0.930 . S
C939 C935 1.400 . S
C939 C938 1.385 . S
C940 C938 1.478 . S
C940 C942 1.381 . S
C940 C946 1.383 . S
C941 C937 1.495 . S
C941 H947 0.959 . S
C941 H948 0.961 . S
C941 H949 0.960 . S
C942 C940 1.381 . S
C942 C943 1.394 . S
C942 H950 0.930 . S
C943 C942 1.394 . S
C943 C944 1.383 . S
C943 H951 0.929 . S
C944 C943 1.383 . S
C944 C945 1.377 . S
C945 H929 0.930 . S
C945 C944 1.377 . S
C945 C946 1.379 . S
C946 H930 0.931 . S
C946 C940 1.383 . S
C946 C945 1.379 . S
H947 C941 0.959 . S
H948 C941 0.961 . S
H949 C941 0.960 . S
H950 C942 0.930 . S
H951 C943 0.929 . S
H952 C960 0.929 . S
H953 C962 0.930 . S
H954 C964 0.930 . S
H955 C967 0.929 . S
H956 C970 0.930 . S
H957 C972 0.960 . S
H958 C972 0.960 . S
H959 C972 0.960 . S
C960 H952 0.929 . S
C960 C961 1.377 . S
C960 C962 1.384 . S
C961 C960 1.377 . S
C961 C967 1.390 . S
C962 H953 0.930 . S
C962 C960 1.384 . S
C962 C963 1.372 . S
C963 C962 1.372 . S
C963 C964 1.400 . S
C963 C968 1.490 . S
C964 H954 0.930 . S
C964 C963 1.400 . S
C964 C967 1.386 . S
H965 C981 0.930 . S
H966 C982 0.931 . S
C967 H955 0.929 . S
C967 C961 1.390 . S
C967 C964 1.386 . S
C968 C963 1.490 . S
C968 C970 1.395 . S
C968 C971 1.403 . S
H969 C975 0.930 . S
C970 H956 0.930 . S
C970 C968 1.395 . S
C970 C973 1.403 . S
C971 C968 1.403 . S
C971 C972 1.524 . S
C971 C975 1.400 . S
C972 H957 0.960 . S
C972 H958 0.960 . S
C972 H959 0.960 . S
C972 C971 1.524 . S
C973 C970 1.403 . S
C973 C974 1.392 . S
C973 C977 1.495 . S
C974 C973 1.392 . S
C974 C975 1.385 . S
C974 C976 1.478 . S
C975 H969 0.930 . S
C975 C971 1.400 . S
C975 C974 1.385 . S
C976 C974 1.478 . S
C976 C978 1.381 . S
C976 C982 1.383 . S
C977 C973 1.495 . S
C977 H983 0.959 . S
C977 H984 0.961 . S
C977 H985 0.960 . S
C978 C976 1.381 . S
C978 C979 1.394 . S
C978 H986 0.930 . S
C979 C978 1.394 . S
C979 C980 1.383 . S
C979 H987 0.929 . S
C980 C979 1.383 . S
C980 C981 1.377 . S
C981 H965 0.930 . S
C981 C980 1.377 . S
C981 C982 1.379 . S
C982 H966 0.931 . S
C982 C976 1.383 . S
C982 C981 1.379 . S
H983 C977 0.959 . S
H984 C977 0.961 . S
H985 C977 0.960 . S
H986 C978 0.930 . S
H987 C979 0.929 . S
H988 C996 0.929 . S
H989 C998 0.930 . S
H990 C1000 0.930 . S
H991 C1003 0.929 . S
H992 C1006 0.930 . S
H993 C1008 0.960 . S
H994 C1008 0.960 . S
H995 C1008 0.960 . S
C996 H988 0.929 . S
C996 C997 1.377 . S
C996 C998 1.384 . S
C997 C996 1.377 . S
C997 C1003 1.390 . S
C998 H989 0.930 . S
C998 C996 1.384 . S
C998 C999 1.372 . S
C999 C998 1.372 . S
C999 C1000 1.400 . S
C999 C1004 1.490 . S
C1000 H990 0.930 . S
C1000 C999 1.400 . S
C1000 C1003 1.386 . S
H1001 C1017 0.930 . S
H1002 C1018 0.931 . S
C1003 H991 0.929 . S
C1003 C997 1.390 . S
C1003 C1000 1.386 . S
C1004 C999 1.490 . S
C1004 C1006 1.395 . S
C1004 C1007 1.403 . S
H1005 C1011 0.930 . S
C1006 H992 0.930 . S
C1006 C1004 1.395 . S
C1006 C1009 1.403 . S
C1007 C1004 1.403 . S
C1007 C1008 1.524 . S
C1007 C1011 1.400 . S
C1008 H993 0.960 . S
C1008 H994 0.960 . S
C1008 H995 0.960 . S
C1008 C1007 1.524 . S
C1009 C1006 1.403 . S
C1009 C1010 1.392 . S
C1009 C1013 1.495 . S
C1010 C1009 1.392 . S
C1010 C1011 1.385 . S
C1010 C1012 1.478 . S
C1011 H1005 0.930 . S
C1011 C1007 1.400 . S
C1011 C1010 1.385 . S
C1012 C1010 1.478 . S
C1012 C1014 1.381 . S
C1012 C1018 1.383 . S
C1013 C1009 1.495 . S
C1013 H1019 0.959 . S
C1013 H1020 0.961 . S
C1013 H1021 0.960 . S
C1014 C1012 1.381 . S
C1014 C1015 1.394 . S
C1014 H1022 0.930 . S
C1015 C1014 1.394 . S
C1015 C1016 1.360 1_455 S
C1015 H1023 0.929 . S
C1016 C1015 1.360 1_655 S
C1016 C1017 1.379 . S
C1017 H1001 0.930 . S
C1017 C1016 1.379 . S
C1017 C1018 1.379 1_655 S
C1018 H1002 0.931 . S
C1018 C1012 1.383 . S
C1018 C1017 1.379 1_455 S
H1019 C1013 0.959 . S
H1020 C1013 0.961 . S
H1021 C1013 0.960 . S
H1022 C1014 0.930 . S
H1023 C1015 0.929 . S
H1024 C1032 0.929 . S
H1025 C1034 0.930 . S
H1026 C1036 0.930 . S
H1027 C1039 0.929 . S
H1028 C1042 0.930 . S
H1029 C1044 0.960 . S
H1030 C1044 0.960 . S
H1031 C1044 0.960 . S
C1032 H1024 0.929 . S
C1032 C1033 1.377 . S
C1032 C1034 1.384 . S
C1033 C1032 1.377 . S
C1033 C1039 1.390 . S
C1034 H1025 0.930 . S
C1034 C1032 1.384 . S
C1034 C1035 1.372 . S
C1035 C1034 1.372 . S
C1035 C1036 1.400 . S
C1035 C1040 1.490 . S
C1036 H1026 0.930 . S
C1036 C1035 1.400 . S
C1036 C1039 1.386 . S
H1037 C1053 0.930 . S
H1038 C1054 0.931 . S
C1039 H1027 0.929 . S
C1039 C1033 1.390 . S
C1039 C1036 1.386 . S
C1040 C1035 1.490 . S
C1040 C1042 1.395 . S
C1040 C1043 1.403 . S
H1041 C1047 0.930 . S
C1042 H1028 0.930 . S
C1042 C1040 1.395 . S
C1042 C1045 1.403 . S
C1043 C1040 1.403 . S
C1043 C1044 1.524 . S
C1043 C1047 1.400 . S
C1044 H1029 0.960 . S
C1044 H1030 0.960 . S
C1044 H1031 0.960 . S
C1044 C1043 1.524 . S
C1045 C1042 1.403 . S
C1045 C1046 1.392 . S
C1045 C1049 1.495 . S
C1046 C1045 1.392 . S
C1046 C1047 1.385 . S
C1046 C1048 1.478 . S
C1047 H1041 0.930 . S
C1047 C1043 1.400 . S
C1047 C1046 1.385 . S
C1048 C1046 1.478 . S
C1048 C1050 1.381 . S
C1048 C1054 1.383 . S
C1049 C1045 1.495 . S
C1049 H1055 0.959 . S
C1049 H1056 0.961 . S
C1049 H1057 0.960 . S
C1050 C1048 1.381 . S
C1050 C1051 1.394 . S
C1050 H1058 0.930 . S
C1051 C1050 1.394 . S
C1051 C1052 1.383 . S
C1051 H1059 0.929 . S
C1052 C1051 1.383 . S
C1052 C1053 1.377 . S
C1053 H1037 0.930 . S
C1053 C1052 1.377 . S
C1053 C1054 1.379 . S
C1054 H1038 0.931 . S
C1054 C1048 1.383 . S
C1054 C1053 1.379 . S
H1055 C1049 0.959 . S
H1056 C1049 0.961 . S
H1057 C1049 0.960 . S
H1058 C1050 0.930 . S
H1059 C1051 0.929 . S
H1060 C1068 0.929 . S
H1061 C1070 0.930 . S
H1062 C1072 0.930 . S
H1063 C1075 0.929 . S
H1064 C1078 0.930 . S
H1065 C1080 0.960 . S
H1066 C1080 0.960 . S
H1067 C1080 0.960 . S
C1068 H1060 0.929 . S
C1068 C1069 1.377 . S
C1068 C1070 1.384 . S
C1069 C1068 1.377 . S
C1069 C1075 1.390 . S
C1070 H1061 0.930 . S
C1070 C1068 1.384 . S
C1070 C1071 1.372 . S
C1071 C1070 1.372 . S
C1071 C1072 1.400 . S
C1071 C1076 1.490 . S
C1072 H1062 0.930 . S
C1072 C1071 1.400 . S
C1072 C1075 1.386 . S
H1073 C1089 0.930 . S
H1074 C1090 0.931 . S
C1075 H1063 0.929 . S
C1075 C1069 1.390 . S
C1075 C1072 1.386 . S
C1076 C1071 1.490 . S
C1076 C1078 1.395 . S
C1076 C1079 1.403 . S
H1077 C1083 0.930 . S
C1078 H1064 0.930 . S
C1078 C1076 1.395 . S
C1078 C1081 1.403 . S
C1079 C1076 1.403 . S
C1079 C1080 1.524 . S
C1079 C1083 1.400 . S
C1080 H1065 0.960 . S
C1080 H1066 0.960 . S
C1080 H1067 0.960 . S
C1080 C1079 1.524 . S
C1081 C1078 1.403 . S
C1081 C1082 1.392 . S
C1081 C1085 1.495 . S
C1082 C1081 1.392 . S
C1082 C1083 1.385 . S
C1082 C1084 1.478 . S
C1083 H1077 0.930 . S
C1083 C1079 1.400 . S
C1083 C1082 1.385 . S
C1084 C1082 1.478 . S
C1084 C1086 1.381 . S
C1084 C1090 1.383 . S
C1085 C1081 1.495 . S
C1085 H1091 0.959 . S
C1085 H1092 0.961 . S
C1085 H1093 0.960 . S
C1086 C1084 1.381 . S
C1086 C1087 1.394 . S
C1086 H1094 0.930 . S
C1087 C1086 1.394 . S
C1087 C1088 1.383 . S
C1087 H1095 0.929 . S
C1088 C1087 1.383 . S
C1088 C1089 1.377 . S
C1089 H1073 0.930 . S
C1089 C1088 1.377 . S
C1089 C1090 1.379 . S
C1090 H1074 0.931 . S
C1090 C1084 1.383 . S
C1090 C1089 1.379 . S
H1091 C1085 0.959 . S
H1092 C1085 0.961 . S
H1093 C1085 0.960 . S
H1094 C1086 0.930 . S
H1095 C1087 0.929 . S
H1096 C1104 0.929 . S
H1097 C1106 0.930 . S
H1098 C1108 0.930 . S
H1099 C1111 0.929 . S
H1100 C1114 0.930 . S
H1101 C1116 0.960 . S
H1102 C1116 0.960 . S
H1103 C1116 0.960 . S
C1104 H1096 0.929 . S
C1104 C1105 1.377 . S
C1104 C1106 1.384 . S
C1105 C1104 1.377 . S
C1105 C1111 1.390 . S
C1106 H1097 0.930 . S
C1106 C1104 1.384 . S
C1106 C1107 1.372 . S
C1107 C1106 1.372 . S
C1107 C1108 1.400 . S
C1107 C1112 1.490 . S
C1108 H1098 0.930 . S
C1108 C1107 1.400 . S
C1108 C1111 1.386 . S
H1109 C1125 0.930 . S
H1110 C1126 0.931 . S
C1111 H1099 0.929 . S
C1111 C1105 1.390 . S
C1111 C1108 1.386 . S
C1112 C1107 1.490 . S
C1112 C1114 1.395 . S
C1112 C1115 1.403 . S
H1113 C1119 0.930 . S
C1114 H1100 0.930 . S
C1114 C1112 1.395 . S
C1114 C1117 1.403 . S
C1115 C1112 1.403 . S
C1115 C1116 1.524 . S
C1115 C1119 1.400 . S
C1116 H1101 0.960 . S
C1116 H1102 0.960 . S
C1116 H1103 0.960 . S
C1116 C1115 1.524 . S
C1117 C1114 1.403 . S
C1117 C1118 1.392 . S
C1117 C1121 1.495 . S
C1118 C1117 1.392 . S
C1118 C1119 1.385 . S
C1118 C1120 1.478 . S
C1119 H1113 0.930 . S
C1119 C1115 1.400 . S
C1119 C1118 1.385 . S
C1120 C1118 1.478 . S
C1120 C1122 1.381 . S
C1120 C1126 1.383 . S
C1121 C1117 1.495 . S
C1121 H1127 0.959 . S
C1121 H1128 0.961 . S
C1121 H1129 0.960 . S
C1122 C1120 1.381 . S
C1122 C1123 1.394 . S
C1122 H1130 0.930 . S
C1123 C1122 1.394 . S
C1123 C1124 1.383 . S
C1123 H1131 0.929 . S
C1124 C1123 1.383 . S
C1124 C1125 1.377 . S
C1125 H1109 0.930 . S
C1125 C1124 1.377 . S
C1125 C1126 1.379 . S
C1126 H1110 0.931 . S
C1126 C1120 1.383 . S
C1126 C1125 1.379 . S
H1127 C1121 0.959 . S
H1128 C1121 0.961 . S
H1129 C1121 0.960 . S
H1130 C1122 0.930 . S
H1131 C1123 0.929 . S
H1132 C1140 0.929 . S
H1133 C1142 0.930 . S
H1134 C1144 0.930 . S
H1135 C1147 0.929 . S
H1136 C1150 0.930 . S
H1137 C1152 0.960 . S
H1138 C1152 0.960 . S
H1139 C1152 0.960 . S
C1140 H1132 0.929 . S
C1140 C1141 1.377 . S
C1140 C1142 1.384 . S
C1141 C1140 1.377 . S
C1141 C1147 1.390 . S
C1142 H1133 0.930 . S
C1142 C1140 1.384 . S
C1142 C1143 1.372 . S
C1143 C1142 1.372 . S
C1143 C1144 1.400 . S
C1143 C1148 1.490 . S
C1144 H1134 0.930 . S
C1144 C1143 1.400 . S
C1144 C1147 1.386 . S
H1145 C1161 0.930 . S
H1146 C1162 0.931 . S
C1147 H1135 0.929 . S
C1147 C1141 1.390 . S
C1147 C1144 1.386 . S
C1148 C1143 1.490 . S
C1148 C1150 1.395 . S
C1148 C1151 1.403 . S
H1149 C1155 0.930 . S
C1150 H1136 0.930 . S
C1150 C1148 1.395 . S
C1150 C1153 1.403 . S
C1151 C1148 1.403 . S
C1151 C1152 1.524 . S
C1151 C1155 1.400 . S
C1152 H1137 0.960 . S
C1152 H1138 0.960 . S
C1152 H1139 0.960 . S
C1152 C1151 1.524 . S
C1153 C1150 1.403 . S
C1153 C1154 1.392 . S
C1153 C1157 1.495 . S
C1154 C1153 1.392 . S
C1154 C1155 1.385 . S
C1154 C1156 1.478 . S
C1155 H1149 0.930 . S
C1155 C1151 1.400 . S
C1155 C1154 1.385 . S
C1156 C1154 1.478 . S
C1156 C1158 1.381 . S
C1156 C1162 1.383 . S
C1157 C1153 1.495 . S
C1157 H1163 0.959 . S
C1157 H1164 0.961 . S
C1157 H1165 0.960 . S
C1158 C1156 1.381 . S
C1158 C1159 1.394 . S
C1158 H1166 0.930 . S
C1159 C1158 1.394 . S
C1159 C1160 1.383 . S
C1159 H1167 0.929 . S
C1160 C1159 1.383 . S
C1160 C1161 1.377 . S
C1161 H1145 0.930 . S
C1161 C1160 1.377 . S
C1161 C1162 1.379 . S
C1162 H1146 0.931 . S
C1162 C1156 1.383 . S
C1162 C1161 1.379 . S
H1163 C1157 0.959 . S
H1164 C1157 0.961 . S
H1165 C1157 0.960 . S
H1166 C1158 0.930 . S
H1167 C1159 0.929 . S
H1168 C1176 0.929 . S
H1169 C1178 0.930 . S
H1170 C1180 0.930 . S
H1171 C1183 0.929 . S
H1172 C1186 0.930 . S
H1173 C1188 0.960 . S
H1174 C1188 0.960 . S
H1175 C1188 0.960 . S
C1176 H1168 0.929 . S
C1176 C1177 1.377 . S
C1176 C1178 1.384 . S
C1177 C1176 1.377 . S
C1177 C1183 1.390 . S
C1178 H1169 0.930 . S
C1178 C1176 1.384 . S
C1178 C1179 1.372 . S
C1179 C1178 1.372 . S
C1179 C1180 1.400 . S
C1179 C1184 1.490 . S
C1180 H1170 0.930 . S
C1180 C1179 1.400 . S
C1180 C1183 1.386 . S
H1181 C1197 0.930 . S
H1182 C1198 0.931 . S
C1183 H1171 0.929 . S
C1183 C1177 1.390 . S
C1183 C1180 1.386 . S
C1184 C1179 1.490 . S
C1184 C1186 1.395 . S
C1184 C1187 1.403 . S
H1185 C1191 0.930 . S
C1186 H1172 0.930 . S
C1186 C1184 1.395 . S
C1186 C1189 1.403 . S
C1187 C1184 1.403 . S
C1187 C1188 1.524 . S
C1187 C1191 1.400 . S
C1188 H1173 0.960 . S
C1188 H1174 0.960 . S
C1188 H1175 0.960 . S
C1188 C1187 1.524 . S
C1189 C1186 1.403 . S
C1189 C1190 1.392 . S
C1189 C1193 1.495 . S
C1190 C1189 1.392 . S
C1190 C1191 1.385 . S
C1190 C1192 1.478 . S
C1191 H1185 0.930 . S
C1191 C1187 1.400 . S
C1191 C1190 1.385 . S
C1192 C1190 1.478 . S
C1192 C1194 1.381 . S
C1192 C1198 1.383 . S
C1193 C1189 1.495 . S
C1193 H1199 0.959 . S
C1193 H1200 0.961 . S
C1193 H1201 0.960 . S
C1194 C1192 1.381 . S
C1194 C1195 1.394 . S
C1194 H1202 0.930 . S
C1195 C1194 1.394 . S
C1195 C1196 1.383 . S
C1195 H1203 0.929 . S
C1196 C1195 1.383 . S
C1196 C1197 1.377 . S
C1197 H1181 0.930 . S
C1197 C1196 1.377 . S
C1197 C1198 1.379 . S
C1198 H1182 0.931 . S
C1198 C1192 1.383 . S
C1198 C1197 1.379 . S
H1199 C1193 0.959 . S
H1200 C1193 0.961 . S
H1201 C1193 0.960 . S
H1202 C1194 0.930 . S
H1203 C1195 0.929 . S
H1204 C1212 0.929 . S
H1205 C1214 0.930 . S
H1206 C1216 0.930 . S
H1207 C1219 0.929 . S
H1208 C1222 0.930 . S
H1209 C1224 0.960 . S
H1210 C1224 0.960 . S
H1211 C1224 0.960 . S
C1212 H1204 0.929 . S
C1212 C1213 1.377 . S
C1212 C1214 1.384 . S
C1213 C1212 1.377 . S
C1213 C1219 1.390 . S
C1214 H1205 0.930 . S
C1214 C1212 1.384 . S
C1214 C1215 1.372 . S
C1215 C1214 1.372 . S
C1215 C1216 1.400 . S
C1215 C1220 1.490 . S
C1216 H1206 0.930 . S
C1216 C1215 1.400 . S
C1216 C1219 1.386 . S
H1217 C1233 0.930 1_655 S
H1218 C1234 0.931 . S
C1219 H1207 0.929 . S
C1219 C1213 1.390 . S
C1219 C1216 1.386 . S
C1220 C1215 1.490 . S
C1220 C1222 1.395 . S
C1220 C1223 1.403 . S
H1221 C1227 0.930 . S
C1222 H1208 0.930 . S
C1222 C1220 1.395 . S
C1222 C1225 1.403 . S
C1223 C1220 1.403 . S
C1223 C1224 1.524 . S
C1223 C1227 1.400 . S
C1224 H1209 0.960 . S
C1224 H1210 0.960 . S
C1224 H1211 0.960 . S
C1224 C1223 1.524 . S
C1225 C1222 1.403 . S
C1225 C1226 1.392 . S
C1225 C1229 1.495 . S
C1226 C1225 1.392 . S
C1226 C1227 1.385 . S
C1226 C1228 1.478 . S
C1227 H1221 0.930 . S
C1227 C1223 1.400 . S
C1227 C1226 1.385 . S
C1228 C1226 1.478 . S
C1228 C1230 1.381 . S
C1228 C1234 1.383 . S
C1229 C1225 1.495 . S
C1229 H1235 0.959 . S
C1229 H1236 0.961 . S
C1229 H1237 0.960 . S
C1230 C1228 1.381 . S
C1230 C1231 1.394 . S
C1230 H1238 0.930 . S
C1231 C1230 1.394 . S
C1231 C1232 1.383 . S
C1231 H1239 0.929 . S
C1232 C1231 1.383 . S
C1232 C1233 1.377 . S
C1233 H1217 0.930 1_455 S
C1233 C1232 1.377 . S
C1233 C1234 1.379 . S
C1234 H1218 0.931 . S
C1234 C1228 1.383 . S
C1234 C1233 1.379 . S
H1235 C1229 0.959 . S
H1236 C1229 0.961 . S
H1237 C1229 0.960 . S
H1238 C1230 0.930 . S
H1239 C1231 0.929 . S
H1240 C1248 0.929 . S
H1241 C1250 0.930 . S
H1242 C1252 0.930 . S
H1243 C1255 0.929 . S
H1244 C1258 0.930 . S
H1245 C1260 0.960 . S
H1246 C1260 0.960 . S
H1247 C1260 0.960 . S
C1248 H1240 0.929 . S
C1248 C1249 1.377 . S
C1248 C1250 1.384 . S
C1249 C1248 1.377 . S
C1249 C1255 1.390 . S
C1250 H1241 0.930 . S
C1250 C1248 1.384 . S
C1250 C1251 1.372 . S
C1251 C1250 1.372 . S
C1251 C1252 1.400 . S
C1251 C1256 1.490 . S
C1252 H1242 0.930 . S
C1252 C1251 1.400 . S
C1252 C1255 1.386 . S
H1253 C1269 0.930 . S
H1254 C1270 0.931 . S
C1255 H1243 0.929 . S
C1255 C1249 1.390 . S
C1255 C1252 1.386 . S
C1256 C1251 1.490 . S
C1256 C1258 1.395 . S
C1256 C1259 1.403 . S
H1257 C1263 0.930 . S
C1258 H1244 0.930 . S
C1258 C1256 1.395 . S
C1258 C1261 1.403 . S
C1259 C1256 1.403 . S
C1259 C1260 1.524 . S
C1259 C1263 1.400 . S
C1260 H1245 0.960 . S
C1260 H1246 0.960 . S
C1260 H1247 0.960 . S
C1260 C1259 1.524 . S
C1261 C1258 1.403 . S
C1261 C1262 1.392 . S
C1261 C1265 1.495 . S
C1262 C1261 1.392 . S
C1262 C1263 1.385 . S
C1262 C1264 1.478 . S
C1263 H1257 0.930 . S
C1263 C1259 1.400 . S
C1263 C1262 1.385 . S
C1264 C1262 1.478 . S
C1264 C1266 1.381 . S
C1264 C1270 1.383 . S
C1265 C1261 1.495 . S
C1265 H1271 0.959 . S
C1265 H1272 0.961 . S
C1265 H1273 0.960 . S
C1266 C1264 1.381 . S
C1266 C1267 1.394 . S
C1266 H1274 0.930 . S
C1267 C1266 1.394 . S
C1267 C1268 1.383 . S
C1267 H1275 0.929 . S
C1268 C1267 1.383 . S
C1268 C1269 1.377 . S
C1269 H1253 0.930 . S
C1269 C1268 1.377 . S
C1269 C1270 1.379 . S
C1270 H1254 0.931 . S
C1270 C1264 1.383 . S
C1270 C1269 1.379 . S
H1271 C1265 0.959 . S
H1272 C1265 0.961 . S
H1273 C1265 0.960 . S
H1274 C1266 0.930 . S
H1275 C1267 0.929 . S
H1276 C1284 0.929 . S
H1277 C1286 0.930 . S
H1278 C1288 0.930 . S
H1279 C1291 0.929 . S
H1280 C1294 0.930 . S
H1281 C1296 0.960 . S
H1282 C1296 0.960 . S
H1283 C1296 0.960 . S
C1284 H1276 0.929 . S
C1284 C1285 1.377 . S
C1284 C1286 1.384 . S
C1285 C1284 1.377 . S
C1285 C1291 1.390 . S
C1286 H1277 0.930 . S
C1286 C1284 1.384 . S
C1286 C1287 1.372 . S
C1287 C1286 1.372 . S
C1287 C1288 1.400 . S
C1287 C1292 1.490 . S
C1288 H1278 0.930 . S
C1288 C1287 1.400 . S
C1288 C1291 1.386 . S
H1289 C1305 0.930 . S
H1290 C1306 0.931 . S
C1291 H1279 0.929 . S
C1291 C1285 1.390 . S
C1291 C1288 1.386 . S
C1292 C1287 1.490 . S
C1292 C1294 1.395 . S
C1292 C1295 1.403 . S
H1293 C1299 0.930 . S
C1294 H1280 0.930 . S
C1294 C1292 1.395 . S
C1294 C1297 1.403 . S
C1295 C1292 1.403 . S
C1295 C1296 1.524 . S
C1295 C1299 1.400 . S
C1296 H1281 0.960 . S
C1296 H1282 0.960 . S
C1296 H1283 0.960 . S
C1296 C1295 1.524 . S
C1297 C1294 1.403 . S
C1297 C1298 1.392 . S
C1297 C1301 1.495 . S
C1298 C1297 1.392 . S
C1298 C1299 1.385 . S
C1298 C1300 1.478 . S
C1299 H1293 0.930 . S
C1299 C1295 1.400 . S
C1299 C1298 1.385 . S
C1300 C1298 1.478 . S
C1300 C1302 1.381 . S
C1300 C1306 1.383 . S
C1301 C1297 1.495 . S
C1301 H1307 0.959 . S
C1301 H1308 0.961 . S
C1301 H1309 0.960 . S
C1302 C1300 1.381 . S
C1302 C1303 1.394 . S
C1302 H1310 0.930 . S
C1303 C1302 1.394 . S
C1303 C1304 1.383 . S
C1303 H1311 0.929 . S
C1304 C1303 1.383 . S
C1304 C1305 1.377 . S
C1305 H1289 0.930 . S
C1305 C1304 1.377 . S
C1305 C1306 1.379 . S
C1306 H1290 0.931 . S
C1306 C1300 1.383 . S
C1306 C1305 1.379 . S
H1307 C1301 0.959 . S
H1308 C1301 0.961 . S
H1309 C1301 0.960 . S
H1310 C1302 0.930 . S
H1311 C1303 0.929 . S
H1312 C1320 0.929 . S
H1313 C1322 0.930 . S
H1314 C1324 0.930 . S
H1315 C1327 0.929 . S
H1316 C1330 0.930 . S
H1317 C1332 0.960 . S
H1318 C1332 0.960 . S
H1319 C1332 0.960 . S
C1320 H1312 0.929 . S
C1320 C1321 1.377 . S
C1320 C1322 1.384 . S
C1321 C1320 1.377 . S
C1321 C1327 1.390 . S
C1322 H1313 0.930 . S
C1322 C1320 1.384 . S
C1322 C1323 1.372 . S
C1323 C1322 1.372 . S
C1323 C1324 1.400 . S
C1323 C1328 1.490 . S
C1324 H1314 0.930 . S
C1324 C1323 1.400 . S
C1324 C1327 1.386 . S
H1325 C1341 0.930 . S
H1326 C1342 0.931 . S
C1327 H1315 0.929 . S
C1327 C1321 1.390 . S
C1327 C1324 1.386 . S
C1328 C1323 1.490 . S
C1328 C1330 1.395 . S
C1328 C1331 1.403 . S
H1329 C1335 0.930 . S
C1330 H1316 0.930 . S
C1330 C1328 1.395 . S
C1330 C1333 1.403 . S
C1331 C1328 1.403 . S
C1331 C1332 1.524 . S
C1331 C1335 1.400 . S
C1332 H1317 0.960 . S
C1332 H1318 0.960 . S
C1332 H1319 0.960 . S
C1332 C1331 1.524 . S
C1333 C1330 1.403 . S
C1333 C1334 1.392 . S
C1333 C1337 1.495 . S
C1334 C1333 1.392 . S
C1334 C1335 1.385 . S
C1334 C1336 1.478 . S
C1335 H1329 0.930 . S
C1335 C1331 1.400 . S
C1335 C1334 1.385 . S
C1336 C1334 1.478 . S
C1336 C1338 1.381 . S
C1336 C1342 1.383 . S
C1337 C1333 1.495 . S
C1337 H1343 0.959 . S
C1337 H1344 0.961 . S
C1337 H1345 0.960 . S
C1338 C1336 1.381 . S
C1338 C1339 1.394 . S
C1338 H1346 0.930 . S
C1339 C1338 1.394 . S
C1339 C1340 1.383 . S
C1339 H1347 0.929 . S
C1340 C1339 1.383 . S
C1340 C1341 1.377 . S
C1341 H1325 0.930 . S
C1341 C1340 1.377 . S
C1341 C1342 1.379 . S
C1342 H1326 0.931 . S
C1342 C1336 1.383 . S
C1342 C1341 1.379 . S
H1343 C1337 0.959 . S
H1344 C1337 0.961 . S
H1345 C1337 0.960 . S
H1346 C1338 0.930 . S
H1347 C1339 0.929 . S
H1348 C1356 0.929 . S
H1349 C1358 0.930 . S
H1350 C1360 0.930 . S
H1351 C1363 0.929 . S
H1352 C1366 0.930 . S
H1353 C1368 0.960 . S
H1354 C1368 0.960 . S
H1355 C1368 0.960 . S
C1356 H1348 0.929 . S
C1356 C1357 1.377 . S
C1356 C1358 1.384 . S
C1357 C1356 1.377 . S
C1357 C1363 1.390 . S
C1358 H1349 0.930 . S
C1358 C1356 1.384 . S
C1358 C1359 1.372 . S
C1359 C1358 1.372 . S
C1359 C1360 1.400 . S
C1359 C1364 1.490 . S
C1360 H1350 0.930 . S
C1360 C1359 1.400 . S
C1360 C1363 1.386 . S
H1361 C1377 0.930 . S
H1362 C1378 0.931 . S
C1363 H1351 0.929 . S
C1363 C1357 1.390 . S
C1363 C1360 1.386 . S
C1364 C1359 1.490 . S
C1364 C1366 1.395 . S
C1364 C1367 1.403 . S
H1365 C1371 0.930 . S
C1366 H1352 0.930 . S
C1366 C1364 1.395 . S
C1366 C1369 1.403 . S
C1367 C1364 1.403 . S
C1367 C1368 1.524 . S
C1367 C1371 1.400 . S
C1368 H1353 0.960 . S
C1368 H1354 0.960 . S
C1368 H1355 0.960 . S
C1368 C1367 1.524 . S
C1369 C1366 1.403 . S
C1369 C1370 1.392 . S
C1369 C1373 1.495 . S
C1370 C1369 1.392 . S
C1370 C1371 1.385 . S
C1370 C1372 1.478 . S
C1371 H1365 0.930 . S
C1371 C1367 1.400 . S
C1371 C1370 1.385 . S
C1372 C1370 1.478 . S
C1372 C1374 1.381 . S
C1372 C1378 1.383 . S
C1373 C1369 1.495 . S
C1373 H1379 0.959 . S
C1373 H1380 0.961 . S
C1373 H1381 0.960 . S
C1374 C1372 1.381 . S
C1374 C1375 1.394 . S
C1374 H1382 0.930 . S
C1375 C1374 1.394 . S
C1375 C1376 1.383 . S
C1375 H1383 0.929 . S
C1376 C1375 1.383 . S
C1376 C1377 1.377 . S
C1377 H1361 0.930 . S
C1377 C1376 1.377 . S
C1377 C1378 1.379 . S
C1378 H1362 0.931 . S
C1378 C1372 1.383 . S
C1378 C1377 1.379 . S
H1379 C1373 0.959 . S
H1380 C1373 0.961 . S
H1381 C1373 0.960 . S
H1382 C1374 0.930 . S
H1383 C1375 0.929 . S
H1384 C1392 0.929 . S
H1385 C1394 0.930 . S
H1386 C1396 0.930 . S
H1387 C1399 0.929 . S
H1388 C1402 0.930 . S
H1389 C1404 0.960 . S
H1390 C1404 0.960 . S
H1391 C1404 0.960 . S
C1392 H1384 0.929 . S
C1392 C1393 1.377 . S
C1392 C1394 1.384 . S
C1393 C1392 1.377 . S
C1393 C1399 1.390 . S
C1394 H1385 0.930 . S
C1394 C1392 1.384 . S
C1394 C1395 1.372 . S
C1395 C1394 1.372 . S
C1395 C1396 1.400 . S
C1395 C1400 1.490 . S
C1396 H1386 0.930 . S
C1396 C1395 1.400 . S
C1396 C1399 1.386 . S
H1397 C1413 0.930 . S
H1398 C1414 0.931 . S
C1399 H1387 0.929 . S
C1399 C1393 1.390 . S
C1399 C1396 1.386 . S
C1400 C1395 1.490 . S
C1400 C1402 1.395 . S
C1400 C1403 1.403 . S
H1401 C1407 0.930 . S
C1402 H1388 0.930 . S
C1402 C1400 1.395 . S
C1402 C1405 1.403 . S
C1403 C1400 1.403 . S
C1403 C1404 1.524 . S
C1403 C1407 1.400 . S
C1404 H1389 0.960 . S
C1404 H1390 0.960 . S
C1404 H1391 0.960 . S
C1404 C1403 1.524 . S
C1405 C1402 1.403 . S
C1405 C1406 1.392 . S
C1405 C1409 1.495 . S
C1406 C1405 1.392 . S
C1406 C1407 1.385 . S
C1406 C1408 1.478 . S
C1407 H1401 0.930 . S
C1407 C1403 1.400 . S
C1407 C1406 1.385 . S
C1408 C1406 1.478 . S
C1408 C1410 1.381 . S
C1408 C1414 1.383 . S
C1409 C1405 1.495 . S
C1409 H1415 0.959 . S
C1409 H1416 0.961 . S
C1409 H1417 0.960 . S
C1410 C1408 1.381 . S
C1410 C1411 1.394 . S
C1410 H1418 0.930 . S
C1411 C1410 1.394 . S
C1411 C1412 1.383 . S
C1411 H1419 0.929 . S
C1412 C1411 1.383 . S
C1412 C1413 1.377 . S
C1413 H1397 0.930 . S
C1413 C1412 1.377 . S
C1413 C1414 1.379 . S
C1414 H1398 0.931 . S
C1414 C1408 1.383 . S
C1414 C1413 1.379 . S
H1415 C1409 0.959 . S
H1416 C1409 0.961 . S
H1417 C1409 0.960 . S
H1418 C1410 0.930 . S
H1419 C1411 0.929 . S
H1420 C1428 0.929 . S
H1421 C1430 0.930 . S
H1422 C1432 0.930 . S
H1423 C1435 0.929 . S
H1424 C1438 0.930 . S
H1425 C1440 0.960 . S
H1426 C1440 0.960 . S
H1427 C1440 0.960 . S
C1428 H1420 0.929 . S
C1428 C1429 1.377 . S
C1428 C1430 1.384 1_455 S
C1429 C1428 1.377 . S
C1429 C1435 1.390 1_455 S
C1430 H1421 0.930 . S
C1430 C1428 1.384 1_655 S
C1430 C1431 1.372 . S
C1431 C1430 1.372 . S
C1431 C1432 1.400 . S
C1431 C1436 1.490 . S
C1432 H1422 0.930 . S
C1432 C1431 1.400 . S
C1432 C1435 1.386 . S
H1433 C1449 0.930 . S
H1434 C1450 0.931 . S
C1435 H1423 0.929 . S
C1435 C1429 1.390 1_655 S
C1435 C1432 1.386 . S
C1436 C1431 1.490 . S
C1436 C1438 1.395 . S
C1436 C1439 1.403 . S
H1437 C1443 0.930 . S
C1438 H1424 0.930 . S
C1438 C1436 1.395 . S
C1438 C1441 1.403 . S
C1439 C1436 1.403 . S
C1439 C1440 1.524 . S
C1439 C1443 1.400 . S
C1440 H1425 0.960 . S
C1440 H1426 0.960 . S
C1440 H1427 0.960 . S
C1440 C1439 1.524 . S
C1441 C1438 1.403 . S
C1441 C1442 1.392 . S
C1441 C1445 1.495 . S
C1442 C1441 1.392 . S
C1442 C1443 1.385 . S
C1442 C1444 1.478 . S
C1443 H1437 0.930 . S
C1443 C1439 1.400 . S
C1443 C1442 1.385 . S
C1444 C1442 1.478 . S
C1444 C1446 1.381 . S
C1444 C1450 1.383 . S
C1445 C1441 1.495 . S
C1445 H1451 0.959 . S
C1445 H1452 0.961 . S
C1445 H1453 0.960 . S
C1446 C1444 1.381 . S
C1446 C1447 1.394 . S
C1446 H1454 0.930 . S
C1447 C1446 1.394 . S
C1447 C1448 1.383 . S
C1447 H1455 0.929 . S
C1448 C1447 1.383 . S
C1448 C1449 1.377 . S
C1449 H1433 0.930 . S
C1449 C1448 1.377 . S
C1449 C1450 1.379 . S
C1450 H1434 0.931 . S
C1450 C1444 1.383 . S
C1450 C1449 1.379 . S
H1451 C1445 0.959 . S
H1452 C1445 0.961 . S
H1453 C1445 0.960 . S
H1454 C1446 0.930 . S
H1455 C1447 0.929 . S
H1456 C1464 0.929 . S
H1457 C1466 0.930 . S
H1458 C1468 0.930 . S
H1459 C1471 0.929 . S
H1460 C1474 0.930 . S
H1461 C1476 0.960 . S
H1462 C1476 0.960 . S
H1463 C1476 0.960 . S
C1464 H1456 0.929 . S
C1464 C1465 1.377 . S
C1464 C1466 1.384 . S
C1465 C1464 1.377 . S
C1465 C1471 1.390 . S
C1466 H1457 0.930 . S
C1466 C1464 1.384 . S
C1466 C1467 1.372 . S
C1467 C1466 1.372 . S
C1467 C1468 1.400 . S
C1467 C1472 1.490 . S
C1468 H1458 0.930 . S
C1468 C1467 1.400 . S
C1468 C1471 1.386 . S
H1469 C1485 0.930 . S
H1470 C1486 0.931 . S
C1471 H1459 0.929 . S
C1471 C1465 1.390 . S
C1471 C1468 1.386 . S
C1472 C1467 1.490 . S
C1472 C1474 1.395 . S
C1472 C1475 1.403 . S
H1473 C1479 0.930 . S
C1474 H1460 0.930 . S
C1474 C1472 1.395 . S
C1474 C1477 1.403 . S
C1475 C1472 1.403 . S
C1475 C1476 1.524 . S
C1475 C1479 1.400 . S
C1476 H1461 0.960 . S
C1476 H1462 0.960 . S
C1476 H1463 0.960 . S
C1476 C1475 1.524 . S
C1477 C1474 1.403 . S
C1477 C1478 1.392 . S
C1477 C1481 1.495 . S
C1478 C1477 1.392 . S
C1478 C1479 1.385 . S
C1478 C1480 1.478 . S
C1479 H1473 0.930 . S
C1479 C1475 1.400 . S
C1479 C1478 1.385 . S
C1480 C1478 1.478 . S
C1480 C1482 1.381 . S
C1480 C1486 1.383 . S
C1481 C1477 1.495 . S
C1481 H1487 0.959 . S
C1481 H1488 0.961 . S
C1481 H1489 0.960 . S
C1482 C1480 1.381 . S
C1482 C1483 1.394 . S
C1482 H1490 0.930 . S
C1483 C1482 1.394 . S
C1483 C1484 1.383 . S
C1483 H1491 0.929 . S
C1484 C1483 1.383 . S
C1484 C1485 1.377 . S
C1485 H1469 0.930 . S
C1485 C1484 1.377 . S
C1485 C1486 1.379 . S
C1486 H1470 0.931 . S
C1486 C1480 1.383 . S
C1486 C1485 1.379 . S
H1487 C1481 0.959 . S
H1488 C1481 0.961 . S
H1489 C1481 0.960 . S
H1490 C1482 0.930 . S
H1491 C1483 0.929 . S
H1492 C1500 0.929 . S
H1493 C1502 0.930 . S
H1494 C1504 0.930 . S
H1495 C1507 0.943 . S
H1496 C1510 0.930 . S
H1497 C1512 0.960 . S
H1498 C1512 0.960 . S
H1499 C1512 0.960 . S
C1500 H1492 0.929 . S
C1500 C1501 1.377 1_655 S
C1500 C1502 1.384 . S
C1501 C1500 1.377 1_455 S
C1501 C1507 1.390 . S
C1502 H1493 0.930 . S
C1502 C1500 1.384 . S
C1502 C1503 1.372 . S
C1503 C1502 1.372 . S
C1503 C1504 1.400 . S
C1503 C1508 1.490 . S
C1504 H1494 0.930 . S
C1504 C1503 1.400 . S
C1504 C1507 1.372 1_655 S
H1505 C1521 0.930 . S
H1506 C1522 0.931 . S
C1507 H1495 0.943 . S
C1507 C1501 1.390 . S
C1507 C1504 1.372 1_455 S
C1508 C1503 1.490 . S
C1508 C1510 1.395 . S
C1508 C1511 1.403 . S
H1509 C1515 0.930 . S
C1510 H1496 0.930 . S
C1510 C1508 1.395 . S
C1510 C1513 1.403 . S
C1511 C1508 1.403 . S
C1511 C1512 1.524 . S
C1511 C1515 1.400 . S
C1512 H1497 0.960 . S
C1512 H1498 0.960 . S
C1512 H1499 0.960 . S
C1512 C1511 1.524 . S
C1513 C1510 1.403 . S
C1513 C1514 1.392 . S
C1513 C1517 1.495 . S
C1514 C1513 1.392 . S
C1514 C1515 1.385 . S
C1514 C1516 1.478 . S
C1515 H1509 0.930 . S
C1515 C1511 1.400 . S
C1515 C1514 1.385 . S
C1516 C1514 1.478 . S
C1516 C1518 1.381 . S
C1516 C1522 1.383 . S
C1517 C1513 1.495 . S
C1517 H1523 0.959 . S
C1517 H1524 0.961 . S
C1517 H1525 0.960 . S
C1518 C1516 1.381 . S
C1518 C1519 1.394 . S
C1518 H1526 0.930 . S
C1519 C1518 1.394 . S
C1519 C1520 1.383 . S
C1519 H1527 0.929 . S
C1520 C1519 1.383 . S
C1520 C1521 1.377 . S
C1521 H1505 0.930 . S
C1521 C1520 1.377 . S
C1521 C1522 1.379 . S
C1522 H1506 0.931 . S
C1522 C1516 1.383 . S
C1522 C1521 1.379 . S
H1523 C1517 0.959 . S
H1524 C1517 0.961 . S
H1525 C1517 0.960 . S
H1526 C1518 0.930 . S
H1527 C1519 0.929 . S
H1528 C1536 0.929 . S
H1529 C1538 0.930 . S
H1530 C1540 0.930 . S
H1531 C1543 0.929 . S
H1532 C1546 0.930 . S
H1533 C1548 0.960 . S
H1534 C1548 0.960 . S
H1535 C1548 0.960 . S
C1536 H1528 0.929 . S
C1536 C1537 1.377 . S
C1536 C1538 1.384 . S
C1537 C1536 1.377 . S
C1537 C1543 1.390 . S
C1538 H1529 0.930 . S
C1538 C1536 1.384 . S
C1538 C1539 1.372 . S
C1539 C1538 1.372 . S
C1539 C1540 1.400 . S
C1539 C1544 1.490 . S
C1540 H1530 0.930 . S
C1540 C1539 1.400 . S
C1540 C1543 1.386 . S
H1541 C1557 0.930 . S
H1542 C1558 0.931 . S
C1543 H1531 0.929 . S
C1543 C1537 1.390 . S
C1543 C1540 1.386 . S
C1544 C1539 1.490 . S
C1544 C1546 1.395 . S
C1544 C1547 1.403 . S
H1545 C1551 0.930 . S
C1546 H1532 0.930 . S
C1546 C1544 1.395 . S
C1546 C1549 1.403 . S
C1547 C1544 1.403 . S
C1547 C1548 1.524 . S
C1547 C1551 1.400 . S
C1548 H1533 0.960 . S
C1548 H1534 0.960 . S
C1548 H1535 0.960 . S
C1548 C1547 1.524 . S
C1549 C1546 1.403 . S
C1549 C1550 1.392 . S
C1549 C1553 1.495 . S
C1550 C1549 1.392 . S
C1550 C1551 1.385 . S
C1550 C1552 1.478 . S
C1551 H1545 0.930 . S
C1551 C1547 1.400 . S
C1551 C1550 1.385 . S
C1552 C1550 1.478 . S
C1552 C1554 1.381 . S
C1552 C1558 1.383 . S
C1553 C1549 1.495 . S
C1553 H1559 0.959 . S
C1553 H1560 0.961 . S
C1553 H1561 0.960 . S
C1554 C1552 1.381 . S
C1554 C1555 1.394 . S
C1554 H1562 0.930 . S
C1555 C1554 1.394 . S
C1555 C1556 1.383 . S
C1555 H1563 0.929 . S
C1556 C1555 1.383 . S
C1556 C1557 1.377 . S
C1557 H1541 0.930 . S
C1557 C1556 1.377 . S
C1557 C1558 1.379 . S
C1558 H1542 0.931 . S
C1558 C1552 1.383 . S
C1558 C1557 1.379 . S
H1559 C1553 0.959 . S
H1560 C1553 0.961 . S
H1561 C1553 0.960 . S
H1562 C1554 0.930 . S
H1563 C1555 0.929 . S
H1564 C1572 0.929 . S
H1565 C1574 0.930 . S
H1566 C1576 0.930 . S
H1567 C1579 0.929 . S
H1568 C1582 0.930 . S
H1569 C1584 0.960 . S
H1570 C1584 0.960 . S
H1571 C1584 0.960 . S
C1572 H1564 0.929 . S
C1572 C1573 1.377 . S
C1572 C1574 1.384 . S
C1573 C1572 1.377 . S
C1573 C1579 1.390 . S
C1574 H1565 0.930 . S
C1574 C1572 1.384 . S
C1574 C1575 1.372 . S
C1575 C1574 1.372 . S
C1575 C1576 1.400 . S
C1575 C1580 1.490 . S
C1576 H1566 0.930 . S
C1576 C1575 1.400 . S
C1576 C1579 1.386 . S
H1577 C1593 0.930 . S
H1578 C1594 0.931 . S
C1579 H1567 0.929 . S
C1579 C1573 1.390 . S
C1579 C1576 1.386 . S
C1580 C1575 1.490 . S
C1580 C1582 1.395 . S
C1580 C1583 1.403 . S
H1581 C1587 0.930 . S
C1582 H1568 0.930 . S
C1582 C1580 1.395 . S
C1582 C1585 1.403 . S
C1583 C1580 1.403 . S
C1583 C1584 1.524 . S
C1583 C1587 1.400 . S
C1584 H1569 0.960 . S
C1584 H1570 0.960 . S
C1584 H1571 0.960 . S
C1584 C1583 1.524 . S
C1585 C1582 1.403 . S
C1585 C1586 1.392 . S
C1585 C1589 1.495 . S
C1586 C1585 1.392 . S
C1586 C1587 1.385 . S
C1586 C1588 1.478 . S
C1587 H1581 0.930 . S
C1587 C1583 1.400 . S
C1587 C1586 1.385 . S
C1588 C1586 1.478 . S
C1588 C1590 1.381 . S
C1588 C1594 1.383 . S
C1589 C1585 1.495 . S
C1589 H1595 0.959 . S
C1589 H1596 0.961 . S
C1589 H1597 0.960 . S
C1590 C1588 1.381 . S
C1590 C1591 1.394 . S
C1590 H1598 0.930 . S
C1591 C1590 1.394 . S
C1591 C1592 1.383 . S
C1591 H1599 0.929 . S
C1592 C1591 1.383 . S
C1592 C1593 1.377 . S
C1593 H1577 0.930 . S
C1593 C1592 1.377 . S
C1593 C1594 1.379 . S
C1594 H1578 0.931 . S
C1594 C1588 1.383 . S
C1594 C1593 1.379 . S
H1595 C1589 0.959 . S
H1596 C1589 0.961 . S
H1597 C1589 0.960 . S
H1598 C1590 0.930 . S
H1599 C1591 0.929 . S
H1600 C1608 0.929 . S
H1601 C1610 0.930 . S
H1602 C1612 0.930 . S
H1603 C1615 0.929 . S
H1604 C1618 0.930 . S
H1605 C1620 0.960 . S
H1606 C1620 0.960 . S
H1607 C1620 0.960 . S
C1608 H1600 0.929 . S
C1608 C1609 1.377 . S
C1608 C1610 1.384 . S
C1609 C1608 1.377 . S
C1609 C1615 1.390 . S
C1610 H1601 0.930 . S
C1610 C1608 1.384 . S
C1610 C1611 1.372 . S
C1611 C1610 1.372 . S
C1611 C1612 1.400 . S
C1611 C1616 1.490 . S
C1612 H1602 0.930 . S
C1612 C1611 1.400 . S
C1612 C1615 1.386 . S
H1613 C1629 0.930 . S
H1614 C1630 0.931 . S
C1615 H1603 0.929 . S
C1615 C1609 1.390 . S
C1615 C1612 1.386 . S
C1616 C1611 1.490 . S
C1616 C1618 1.395 . S
C1616 C1619 1.403 . S
H1617 C1623 0.930 . S
C1618 H1604 0.930 . S
C1618 C1616 1.395 . S
C1618 C1621 1.403 . S
C1619 C1616 1.403 . S
C1619 C1620 1.524 . S
C1619 C1623 1.400 . S
C1620 H1605 0.960 . S
C1620 H1606 0.960 . S
C1620 H1607 0.960 . S
C1620 C1619 1.524 . S
C1621 C1618 1.403 . S
C1621 C1622 1.392 . S
C1621 C1625 1.495 . S
C1622 C1621 1.392 . S
C1622 C1623 1.385 . S
C1622 C1624 1.478 . S
C1623 H1617 0.930 . S
C1623 C1619 1.400 . S
C1623 C1622 1.385 . S
C1624 C1622 1.478 . S
C1624 C1626 1.381 . S
C1624 C1630 1.383 . S
C1625 C1621 1.495 . S
C1625 H1631 0.959 . S
C1625 H1632 0.961 . S
C1625 H1633 0.960 . S
C1626 C1624 1.381 . S
C1626 C1627 1.394 . S
C1626 H1634 0.930 . S
C1627 C1626 1.394 . S
C1627 C1628 1.383 . S
C1627 H1635 0.929 . S
C1628 C1627 1.383 . S
C1628 C1629 1.377 . S
C1629 H1613 0.930 . S
C1629 C1628 1.377 . S
C1629 C1630 1.379 . S
C1630 H1614 0.931 . S
C1630 C1624 1.383 . S
C1630 C1629 1.379 . S
H1631 C1625 0.959 . S
H1632 C1625 0.961 . S
H1633 C1625 0.960 . S
H1634 C1626 0.930 . S
H1635 C1627 0.929 . S
H1636 C1644 0.929 . S
H1637 C1646 0.930 . S
H1638 C1648 0.930 . S
H1639 C1651 0.929 . S
H1640 C1654 0.930 . S
H1641 C1656 0.960 . S
H1642 C1656 0.960 1_565 S
H1643 C1656 0.960 . S
C1644 H1636 0.929 . S
C1644 C1645 1.377 . S
C1644 C1646 1.384 . S
C1645 C1644 1.377 . S
C1645 C1651 1.390 1_565 S
C1646 H1637 0.930 . S
C1646 C1644 1.384 . S
C1646 C1647 1.372 . S
C1647 C1646 1.372 . S
C1647 C1648 1.400 1_565 S
C1647 C1652 1.490 . S
C1648 H1638 0.930 . S
C1648 C1647 1.400 1_545 S
C1648 C1651 1.386 . S
H1649 C1665 0.930 . S
H1650 C1666 0.931 . S
C1651 H1639 0.929 . S
C1651 C1645 1.390 1_545 S
C1651 C1648 1.386 . S
C1652 C1647 1.490 . S
C1652 C1654 1.395 1_455 S
C1652 C1655 1.403 1_565 S
H1653 C1659 0.930 . S
C1654 H1640 0.930 . S
C1654 C1652 1.395 1_655 S
C1654 C1657 1.403 . S
C1655 C1652 1.403 1_545 S
C1655 C1656 1.524 . S
C1655 C1659 1.400 . S
C1656 H1641 0.960 . S
C1656 H1642 0.960 1_545 S
C1656 H1643 0.960 . S
C1656 C1655 1.524 . S
C1657 C1654 1.403 . S
C1657 C1658 1.392 1_565 S
C1657 C1661 1.495 . S
C1658 C1657 1.392 1_545 S
C1658 C1659 1.385 1_655 S
C1658 C1660 1.478 . S
C1659 H1653 0.930 . S
C1659 C1655 1.400 . S
C1659 C1658 1.385 1_455 S
C1660 C1658 1.478 . S
C1660 C1662 1.381 1_545 S
C1660 C1666 1.383 . S
C1661 C1657 1.495 . S
C1661 H1667 0.959 . S
C1661 H1668 0.961 . S
C1661 H1669 0.960 . S
C1662 C1660 1.381 1_565 S
C1662 C1663 1.394 . S
C1662 H1670 0.930 . S
C1663 C1662 1.394 . S
C1663 C1664 1.383 1_565 S
C1663 H1671 0.929 . S
C1664 C1663 1.383 1_545 S
C1664 C1665 1.377 . S
C1665 H1649 0.930 . S
C1665 C1664 1.377 . S
C1665 C1666 1.379 . S
C1666 H1650 0.931 . S
C1666 C1660 1.383 . S
C1666 C1665 1.379 . S
H1667 C1661 0.959 . S
H1668 C1661 0.961 . S
H1669 C1661 0.960 . S
H1670 C1662 0.930 . S
H1671 C1663 0.929 . S
H1672 C1680 0.929 . S
H1673 C1682 0.930 . S
H1674 C1684 0.930 . S
H1675 C1687 0.929 . S
H1676 C1690 0.930 . S
H1677 C1692 0.960 . S
H1678 C1692 0.960 . S
H1679 C1692 0.960 . S
C1680 H1672 0.929 . S
C1680 C1681 1.377 . S
C1680 C1682 1.384 . S
C1681 C1680 1.377 . S
C1681 C1687 1.390 . S
C1682 H1673 0.930 . S
C1682 C1680 1.384 . S
C1682 C1683 1.372 . S
C1683 C1682 1.372 . S
C1683 C1684 1.400 . S
C1683 C1688 1.490 . S
C1684 H1674 0.930 . S
C1684 C1683 1.400 . S
C1684 C1687 1.386 . S
H1685 C1701 0.930 . S
H1686 C1702 0.931 . S
C1687 H1675 0.929 . S
C1687 C1681 1.390 . S
C1687 C1684 1.386 . S
C1688 C1683 1.490 . S
C1688 C1690 1.395 . S
C1688 C1691 1.403 . S
H1689 C1695 0.930 . S
C1690 H1676 0.930 . S
C1690 C1688 1.395 . S
C1690 C1693 1.403 . S
C1691 C1688 1.403 . S
C1691 C1692 1.524 . S
C1691 C1695 1.400 . S
C1692 H1677 0.960 . S
C1692 H1678 0.960 . S
C1692 H1679 0.960 . S
C1692 C1691 1.524 . S
C1693 C1690 1.403 . S
C1693 C1694 1.392 . S
C1693 C1697 1.495 . S
C1694 C1693 1.392 . S
C1694 C1695 1.385 . S
C1694 C1696 1.478 . S
C1695 H1689 0.930 . S
C1695 C1691 1.400 . S
C1695 C1694 1.385 . S
C1696 C1694 1.478 . S
C1696 C1698 1.381 . S
C1696 C1702 1.383 . S
C1697 C1693 1.495 . S
C1697 H1703 0.959 . S
C1697 H1704 0.961 . S
C1697 H1705 0.960 . S
C1698 C1696 1.381 . S
C1698 C1699 1.394 . S
C1698 H1706 0.930 . S
C1699 C1698 1.394 . S
C1699 C1700 1.383 . S
C1699 H1707 0.929 . S
C1700 C1699 1.383 . S
C1700 C1701 1.377 . S
C1701 H1685 0.930 . S
C1701 C1700 1.377 . S
C1701 C1702 1.379 . S
C1702 H1686 0.931 . S
C1702 C1696 1.383 . S
C1702 C1701 1.379 . S
H1703 C1697 0.959 . S
H1704 C1697 0.961 . S
H1705 C1697 0.960 . S
H1706 C1698 0.930 . S
H1707 C1699 0.929 . S
H1708 C1716 0.929 . S
H1709 C1718 0.930 . S
H1710 C1720 0.930 . S
H1711 C1723 0.949 . S
H1712 C1726 0.930 . S
H1713 C1728 0.960 . S
H1714 C1728 0.960 . S
H1715 C1728 0.960 . S
C1716 H1708 0.929 . S
C1716 C1717 1.377 . S
C1716 C1718 1.384 . S
C1717 C1716 1.377 . S
C1717 C1723 1.366 1_545 S
C1718 H1709 0.930 . S
C1718 C1716 1.384 . S
C1718 C1719 1.372 . S
C1719 C1718 1.372 . S
C1719 C1720 1.400 1_545 S
C1719 C1724 1.490 . S
C1720 H1710 0.930 . S
C1720 C1719 1.400 1_565 S
C1720 C1723 1.391 . S
H1721 C1737 0.930 . S
H1722 C1738 0.931 . S
C1723 H1711 0.949 . S
C1723 C1717 1.366 1_565 S
C1723 C1720 1.391 . S
C1724 C1719 1.490 . S
C1724 C1726 1.395 . S
C1724 C1727 1.403 1_545 S
H1725 C1731 0.930 . S
C1726 H1712 0.930 . S
C1726 C1724 1.395 . S
C1726 C1729 1.403 1_554 S
C1727 C1724 1.403 1_565 S
C1727 C1728 1.524 . S
C1727 C1731 1.400 1_554 S
C1728 H1713 0.960 . S
C1728 H1714 0.960 . S
C1728 H1715 0.960 . S
C1728 C1727 1.524 . S
C1729 C1726 1.403 1_556 S
C1729 C1730 1.391 1_545 S
C1729 C1733 1.495 . S
C1730 C1729 1.391 1_565 S
C1730 C1731 1.387 . S
C1730 C1732 1.478 . S
C1731 H1725 0.930 . S
C1731 C1727 1.400 1_556 S
C1731 C1730 1.387 . S
C1732 C1730 1.478 . S
C1732 C1734 1.381 1_565 S
C1732 C1738 1.383 . S
C1733 C1729 1.495 . S
C1733 H1739 0.959 . S
C1733 H1740 0.961 . S
C1733 H1741 0.960 . S
C1734 C1732 1.381 1_545 S
C1734 C1735 1.394 . S
C1734 H1742 0.930 . S
C1735 C1734 1.394 . S
C1735 C1736 1.383 1_545 S
C1735 H1743 0.929 . S
C1736 C1735 1.383 1_565 S
C1736 C1737 1.377 . S
C1737 H1721 0.930 . S
C1737 C1736 1.377 . S
C1737 C1738 1.379 . S
C1738 H1722 0.931 . S
C1738 C1732 1.383 . S
C1738 C1737 1.379 . S
H1739 C1733 0.959 . S
H1740 C1733 0.961 . S
H1741 C1733 0.960 . S
H1742 C1734 0.930 . S
H1743 C1735 0.929 . S
H1744 C1752 0.929 . S
H1745 C1754 0.930 . S
H1746 C1756 0.930 . S
H1747 C1759 0.929 . S
H1748 C1762 0.930 . S
H1749 C1764 0.960 . S
H1750 C1764 0.960 . S
H1751 C1764 0.960 . S
C1752 H1744 0.929 . S
C1752 C1753 1.377 . S
C1752 C1754 1.384 . S
C1753 C1752 1.377 . S
C1753 C1759 1.390 . S
C1754 H1745 0.930 . S
C1754 C1752 1.384 . S
C1754 C1755 1.372 . S
C1755 C1754 1.372 . S
C1755 C1756 1.400 . S
C1755 C1760 1.490 . S
C1756 H1746 0.930 . S
C1756 C1755 1.400 . S
C1756 C1759 1.386 . S
H1757 C1773 0.930 . S
H1758 C1774 0.931 . S
C1759 H1747 0.929 . S
C1759 C1753 1.390 . S
C1759 C1756 1.386 . S
C1760 C1755 1.490 . S
C1760 C1762 1.395 . S
C1760 C1763 1.403 . S
H1761 C1767 0.930 . S
C1762 H1748 0.930 . S
C1762 C1760 1.395 . S
C1762 C1765 1.403 . S
C1763 C1760 1.403 . S
C1763 C1764 1.524 . S
C1763 C1767 1.400 . S
C1764 H1749 0.960 . S
C1764 H1750 0.960 . S
C1764 H1751 0.960 . S
C1764 C1763 1.524 . S
C1765 C1762 1.403 . S
C1765 C1766 1.392 . S
C1765 C1769 1.495 . S
C1766 C1765 1.392 . S
C1766 C1767 1.385 . S
C1766 C1768 1.478 . S
C1767 H1761 0.930 . S
C1767 C1763 1.400 . S
C1767 C1766 1.385 . S
C1768 C1766 1.478 . S
C1768 C1770 1.381 . S
C1768 C1774 1.383 . S
C1769 C1765 1.495 . S
C1769 H1775 0.959 . S
C1769 H1776 0.961 . S
C1769 H1777 0.960 . S
C1770 C1768 1.381 . S
C1770 C1771 1.394 . S
C1770 H1778 0.930 . S
C1771 C1770 1.394 . S
C1771 C1772 1.383 . S
C1771 H1779 0.929 . S
C1772 C1771 1.383 . S
C1772 C1773 1.377 . S
C1773 H1757 0.930 . S
C1773 C1772 1.377 . S
C1773 C1774 1.379 . S
C1774 H1758 0.931 . S
C1774 C1768 1.383 . S
C1774 C1773 1.379 . S
H1775 C1769 0.959 . S
H1776 C1769 0.961 . S
H1777 C1769 0.960 . S
H1778 C1770 0.930 . S
H1779 C1771 0.929 . S
H1780 C1788 0.929 1_545 S
H1781 C1790 0.930 . S
H1782 C1792 0.930 . S
H1783 C1795 0.929 . S
H1784 C1798 0.930 . S
H1785 C1800 0.960 . S
H1786 C1800 0.960 . S
H1787 C1800 0.960 . S
C1788 H1780 0.929 1_565 S
C1788 C1789 1.377 . S
C1788 C1790 1.384 1_565 S
C1789 C1788 1.377 . S
C1789 C1795 1.390 . S
C1790 H1781 0.930 . S
C1790 C1788 1.384 1_545 S
C1790 C1791 1.372 1_545 S
C1791 C1790 1.372 1_565 S
C1791 C1792 1.400 . S
C1791 C1796 1.490 . S
C1792 H1782 0.930 . S
C1792 C1791 1.400 . S
C1792 C1795 1.386 . S
H1793 C1809 0.926 1_565 S
H1794 C1810 0.931 1_565 S
C1795 H1783 0.929 . S
C1795 C1789 1.390 . S
C1795 C1792 1.386 . S
C1796 C1791 1.490 . S
C1796 C1798 1.395 1_565 S
C1796 C1799 1.403 . S
H1797 C1803 0.930 . S
C1798 H1784 0.930 . S
C1798 C1796 1.395 1_545 S
C1798 C1801 1.403 . S
C1799 C1796 1.403 . S
C1799 C1800 1.524 . S
C1799 C1803 1.400 . S
C1800 H1785 0.960 . S
C1800 H1786 0.960 . S
C1800 H1787 0.960 . S
C1800 C1799 1.524 . S
C1801 C1798 1.403 . S
C1801 C1802 1.392 . S
C1801 C1805 1.495 . S
C1802 C1801 1.392 . S
C1802 C1803 1.385 1_545 S
C1802 C1804 1.478 . S
C1803 H1797 0.930 . S
C1803 C1799 1.400 . S
C1803 C1802 1.385 1_565 S
C1804 C1802 1.478 . S
C1804 C1806 1.381 . S
C1804 C1810 1.383 . S
C1805 C1801 1.495 . S
C1805 H1811 0.959 . S
C1805 H1812 0.961 . S
C1805 H1813 0.960 . S
C1806 C1804 1.381 . S
C1806 C1807 1.394 . S
C1806 H1814 0.930 . S
C1807 C1806 1.394 . S
C1807 C1808 1.383 . S
C1807 H1815 0.929 . S
C1808 C1807 1.383 . S
C1808 C1809 1.377 . S
C1809 H1793 0.926 1_545 S
C1809 C1808 1.377 . S
C1809 C1810 1.379 . S
C1810 H1794 0.931 1_545 S
C1810 C1804 1.383 . S
C1810 C1809 1.379 . S
H1811 C1805 0.959 . S
H1812 C1805 0.961 . S
H1813 C1805 0.960 . S
H1814 C1806 0.930 . S
H1815 C1807 0.929 . S
H1816 C1824 0.929 . S
H1817 C1826 0.930 . S
H1818 C1828 0.930 . S
H1819 C1831 0.929 . S
H1820 C1834 0.930 . S
H1821 C1836 0.960 . S
H1822 C1836 0.960 . S
H1823 C1836 0.960 . S
C1824 H1816 0.929 . S
C1824 C1825 1.377 . S
C1824 C1826 1.384 . S
C1825 C1824 1.377 . S
C1825 C1831 1.390 . S
C1826 H1817 0.930 . S
C1826 C1824 1.384 . S
C1826 C1827 1.372 . S
C1827 C1826 1.372 . S
C1827 C1828 1.400 . S
C1827 C1832 1.490 . S
C1828 H1818 0.930 . S
C1828 C1827 1.400 . S
C1828 C1831 1.386 . S
H1829 C1845 0.930 . S
H1830 C1846 0.931 . S
C1831 H1819 0.929 . S
C1831 C1825 1.390 . S
C1831 C1828 1.386 . S
C1832 C1827 1.490 . S
C1832 C1834 1.395 . S
C1832 C1835 1.403 . S
H1833 C1839 0.930 . S
C1834 H1820 0.930 . S
C1834 C1832 1.395 . S
C1834 C1837 1.403 . S
C1835 C1832 1.403 . S
C1835 C1836 1.524 . S
C1835 C1839 1.400 . S
C1836 H1821 0.960 . S
C1836 H1822 0.960 . S
C1836 H1823 0.960 . S
C1836 C1835 1.524 . S
C1837 C1834 1.403 . S
C1837 C1838 1.392 . S
C1837 C1841 1.495 . S
C1838 C1837 1.392 . S
C1838 C1839 1.385 . S
C1838 C1840 1.478 . S
C1839 H1833 0.930 . S
C1839 C1835 1.400 . S
C1839 C1838 1.385 . S
C1840 C1838 1.478 . S
C1840 C1842 1.381 . S
C1840 C1846 1.383 . S
C1841 C1837 1.495 . S
C1841 H1847 0.959 . S
C1841 H1848 0.961 . S
C1841 H1849 0.960 . S
C1842 C1840 1.381 . S
C1842 C1843 1.394 . S
C1842 H1850 0.930 . S
C1843 C1842 1.394 . S
C1843 C1844 1.383 . S
C1843 H1851 0.929 . S
C1844 C1843 1.383 . S
C1844 C1845 1.377 . S
C1845 H1829 0.930 . S
C1845 C1844 1.377 . S
C1845 C1846 1.379 . S
C1846 H1830 0.931 . S
C1846 C1840 1.383 . S
C1846 C1845 1.379 . S
H1847 C1841 0.959 . S
H1848 C1841 0.961 . S
H1849 C1841 0.960 . S
H1850 C1842 0.930 . S
H1851 C1843 0.929 . S
H1852 C1860 0.929 . S
H1853 C1862 0.930 . S
H1854 C1864 0.928 1_665 S
H1855 C1867 0.937 . S
H1856 C1870 0.948 . S
H1857 C1872 0.960 1_655 S
H1858 C1872 0.960 . S
H1859 C1872 0.960 1_655 S
C1860 H1852 0.929 . S
C1860 C1861 1.377 . S
C1860 C1862 1.384 . S
C1861 C1860 1.377 . S
C1861 C1867 1.390 . S
C1862 H1853 0.930 . S
C1862 C1860 1.384 . S
C1862 C1863 1.372 . S
C1863 C1862 1.372 . S
C1863 C1864 1.400 . S
C1863 C1868 1.490 . S
C1864 H1854 0.928 1_445 S
C1864 C1863 1.400 . S
C1864 C1867 1.386 . S
H1865 C1881 0.930 . S
H1866 C1882 0.931 . S
C1867 H1855 0.937 . S
C1867 C1861 1.390 . S
C1867 C1864 1.386 . S
C1868 C1863 1.490 . S
C1868 C1870 1.430 . S
C1868 C1871 1.403 1_545 S
H1869 C1875 0.930 . S
C1870 H1856 0.948 . S
C1870 C1868 1.430 . S
C1870 C1873 1.362 1_556 S
C1871 C1868 1.403 1_565 S
C1871 C1872 1.524 . S
C1871 C1875 1.400 1_456 S
C1872 H1857 0.960 1_455 S
C1872 H1858 0.960 . S
C1872 H1859 0.960 1_455 S
C1872 C1871 1.524 . S
C1873 C1870 1.362 1_554 S
C1873 C1874 1.376 1_445 S
C1873 C1877 1.495 . S
C1874 C1873 1.376 1_665 S
C1874 C1875 1.392 . S
C1874 C1876 1.479 . S
C1875 H1869 0.930 . S
C1875 C1871 1.400 1_654 S
C1875 C1874 1.392 . S
C1876 C1874 1.479 . S
C1876 C1878 1.381 . S
C1876 C1882 1.383 . S
C1877 C1873 1.495 . S
C1877 H1883 0.961 . S
C1877 H1884 0.956 1_455 S
C1877 H1885 0.963 . S
C1878 C1876 1.381 . S
C1878 C1879 1.394 . S
C1878 H1886 0.929 1_665 S
C1879 C1878 1.394 . S
C1879 C1880 1.383 . S
C1879 H1887 0.935 . S
C1880 C1879 1.383 . S
C1880 C1881 1.377 . S
C1881 H1865 0.930 . S
C1881 C1880 1.377 . S
C1881 C1882 1.379 . S
C1882 H1866 0.931 . S
C1882 C1876 1.383 . S
C1882 C1881 1.379 . S
H1883 C1877 0.961 . S
H1884 C1877 0.956 1_655 S
H1885 C1877 0.963 . S
H1886 C1878 0.929 1_445 S
H1887 C1879 0.935 . S
H1888 C1896 0.929 . S
H1889 C1898 0.930 . S
H1890 C1900 0.930 . S
H1891 C1903 0.929 . S
H1892 C1906 0.930 . S
H1893 C1908 0.960 . S
H1894 C1908 0.960 . S
H1895 C1908 0.960 . S
C1896 H1888 0.929 . S
C1896 C1897 1.377 . S
C1896 C1898 1.384 . S
C1897 C1896 1.377 . S
C1897 C1903 1.390 . S
C1898 H1889 0.930 . S
C1898 C1896 1.384 . S
C1898 C1899 1.372 . S
C1899 C1898 1.372 . S
C1899 C1900 1.400 . S
C1899 C1904 1.490 . S
C1900 H1890 0.930 . S
C1900 C1899 1.400 . S
C1900 C1903 1.386 . S
H1901 C1917 0.930 . S
H1902 C1918 0.931 . S
C1903 H1891 0.929 . S
C1903 C1897 1.390 . S
C1903 C1900 1.386 . S
C1904 C1899 1.490 . S
C1904 C1906 1.395 . S
C1904 C1907 1.403 . S
H1905 C1911 0.930 . S
C1906 H1892 0.930 . S
C1906 C1904 1.395 . S
C1906 C1909 1.403 . S
C1907 C1904 1.403 . S
C1907 C1908 1.524 . S
C1907 C1911 1.400 . S
C1908 H1893 0.960 . S
C1908 H1894 0.960 . S
C1908 H1895 0.960 . S
C1908 C1907 1.524 . S
C1909 C1906 1.403 . S
C1909 C1910 1.392 . S
C1909 C1913 1.495 . S
C1910 C1909 1.392 . S
C1910 C1911 1.385 . S
C1910 C1912 1.478 . S
C1911 H1905 0.930 . S
C1911 C1907 1.400 . S
C1911 C1910 1.385 . S
C1912 C1910 1.478 . S
C1912 C1914 1.381 . S
C1912 C1918 1.383 . S
C1913 C1909 1.495 . S
C1913 H1919 0.959 . S
C1913 H1920 0.961 . S
C1913 H1921 0.960 . S
C1914 C1912 1.381 . S
C1914 C1915 1.394 . S
C1914 H1922 0.930 . S
C1915 C1914 1.394 . S
C1915 C1916 1.383 . S
C1915 H1923 0.929 . S
C1916 C1915 1.383 . S
C1916 C1917 1.377 . S
C1917 H1901 0.930 . S
C1917 C1916 1.377 . S
C1917 C1918 1.379 . S
C1918 H1902 0.931 . S
C1918 C1912 1.383 . S
C1918 C1917 1.379 . S
H1919 C1913 0.959 . S
H1920 C1913 0.961 . S
H1921 C1913 0.960 . S
H1922 C1914 0.930 . S
H1923 C1915 0.929 . S
H1924 C1932 0.929 . S
H1925 C1934 0.930 . S
H1926 C1936 0.930 . S
H1927 C1939 0.929 . S
H1928 C1942 0.930 . S
H1929 C1944 0.960 . S
H1930 C1944 0.960 . S
H1931 C1944 0.960 . S
C1932 H1924 0.929 . S
C1932 C1933 1.377 . S
C1932 C1934 1.384 . S
C1933 C1932 1.377 . S
C1933 C1939 1.390 . S
C1934 H1925 0.930 . S
C1934 C1932 1.384 . S
C1934 C1935 1.372 . S
C1935 C1934 1.372 . S
C1935 C1936 1.400 . S
C1935 C1940 1.490 . S
C1936 H1926 0.930 . S
C1936 C1935 1.400 . S
C1936 C1939 1.386 . S
H1937 C1953 0.930 . S
H1938 C1954 0.931 . S
C1939 H1927 0.929 . S
C1939 C1933 1.390 . S
C1939 C1936 1.386 . S
C1940 C1935 1.490 . S
C1940 C1942 1.395 . S
C1940 C1943 1.403 . S
H1941 C1947 0.930 . S
C1942 H1928 0.930 . S
C1942 C1940 1.395 . S
C1942 C1945 1.403 . S
C1943 C1940 1.403 . S
C1943 C1944 1.524 . S
C1943 C1947 1.400 . S
C1944 H1929 0.960 . S
C1944 H1930 0.960 . S
C1944 H1931 0.960 . S
C1944 C1943 1.524 . S
C1945 C1942 1.403 . S
C1945 C1946 1.392 . S
C1945 C1949 1.495 . S
C1946 C1945 1.392 . S
C1946 C1947 1.385 . S
C1946 C1948 1.478 . S
C1947 H1941 0.930 . S
C1947 C1943 1.400 . S
C1947 C1946 1.385 . S
C1948 C1946 1.478 . S
C1948 C1950 1.381 . S
C1948 C1954 1.383 . S
C1949 C1945 1.495 . S
C1949 H1955 0.959 . S
C1949 H1956 0.961 . S
C1949 H1957 0.960 . S
C1950 C1948 1.381 . S
C1950 C1951 1.394 . S
C1950 H1958 0.930 . S
C1951 C1950 1.394 . S
C1951 C1952 1.383 . S
C1951 H1959 0.929 . S
C1952 C1951 1.383 . S
C1952 C1953 1.377 . S
C1953 H1937 0.930 . S
C1953 C1952 1.377 . S
C1953 C1954 1.379 . S
C1954 H1938 0.931 . S
C1954 C1948 1.383 . S
C1954 C1953 1.379 . S
H1955 C1949 0.959 . S
H1956 C1949 0.961 . S
H1957 C1949 0.960 . S
H1958 C1950 0.930 . S
H1959 C1951 0.929 . S
H1960 C1968 0.929 . S
H1961 C1970 0.930 . S
H1962 C1972 0.930 . S
H1963 C1975 0.929 . S
H1964 C1978 0.930 . S
H1965 C1980 0.960 . S
H1966 C1980 0.960 . S
H1967 C1980 0.960 . S
C1968 H1960 0.929 . S
C1968 C1969 1.377 . S
C1968 C1970 1.384 . S
C1969 C1968 1.377 . S
C1969 C1975 1.390 . S
C1970 H1961 0.930 . S
C1970 C1968 1.384 . S
C1970 C1971 1.372 . S
C1971 C1970 1.372 . S
C1971 C1972 1.400 . S
C1971 C1976 1.490 . S
C1972 H1962 0.930 . S
C1972 C1971 1.400 . S
C1972 C1975 1.386 . S
H1973 C1989 0.930 . S
H1974 C1990 0.931 . S
C1975 H1963 0.929 . S
C1975 C1969 1.390 . S
C1975 C1972 1.386 . S
C1976 C1971 1.490 . S
C1976 C1978 1.395 . S
C1976 C1979 1.403 . S
H1977 C1983 0.930 . S
C1978 H1964 0.930 . S
C1978 C1976 1.395 . S
C1978 C1981 1.403 . S
C1979 C1976 1.403 . S
C1979 C1980 1.524 . S
C1979 C1983 1.400 . S
C1980 H1965 0.960 . S
C1980 H1966 0.960 . S
C1980 H1967 0.960 . S
C1980 C1979 1.524 . S
C1981 C1978 1.403 . S
C1981 C1982 1.392 . S
C1981 C1985 1.495 . S
C1982 C1981 1.392 . S
C1982 C1983 1.385 . S
C1982 C1984 1.478 . S
C1983 H1977 0.930 . S
C1983 C1979 1.400 . S
C1983 C1982 1.385 . S
C1984 C1982 1.478 . S
C1984 C1986 1.381 . S
C1984 C1990 1.383 . S
C1985 C1981 1.495 . S
C1985 H1991 0.959 . S
C1985 H1992 0.961 . S
C1985 H1993 0.960 . S
C1986 C1984 1.381 . S
C1986 C1987 1.394 . S
C1986 H1994 0.930 . S
C1987 C1986 1.394 . S
C1987 C1988 1.383 . S
C1987 H1995 0.929 . S
C1988 C1987 1.383 . S
C1988 C1989 1.377 . S
C1989 H1973 0.930 . S
C1989 C1988 1.377 . S
C1989 C1990 1.379 . S
C1990 H1974 0.931 . S
C1990 C1984 1.383 . S
C1990 C1989 1.379 . S
H1991 C1985 0.959 . S
H1992 C1985 0.961 . S
H1993 C1985 0.960 . S
H1994 C1986 0.930 . S
H1995 C1987 0.929 . S
H1996 C2004 0.929 . S
H1997 C2006 0.930 . S
H1998 C2008 0.930 . S
H1999 C2011 0.929 . S
H2000 C2014 0.930 . S
H2001 C2016 0.960 . S
H2002 C2016 0.960 . S
H2003 C2016 0.960 . S
C2004 H1996 0.929 . S
C2004 C2005 1.377 . S
C2004 C2006 1.384 . S
C2005 C2004 1.377 . S
C2005 C2011 1.390 . S
C2006 H1997 0.930 . S
C2006 C2004 1.384 . S
C2006 C2007 1.372 . S
C2007 C2006 1.372 . S
C2007 C2008 1.400 . S
C2007 C2012 1.490 . S
C2008 H1998 0.930 . S
C2008 C2007 1.400 . S
C2008 C2011 1.386 . S
H2009 C2025 0.930 . S
H2010 C2026 0.931 . S
C2011 H1999 0.929 . S
C2011 C2005 1.390 . S
C2011 C2008 1.386 . S
C2012 C2007 1.490 . S
C2012 C2014 1.395 . S
C2012 C2015 1.403 . S
H2013 C2019 0.930 . S
C2014 H2000 0.930 . S
C2014 C2012 1.395 . S
C2014 C2017 1.403 . S
C2015 C2012 1.403 . S
C2015 C2016 1.524 . S
C2015 C2019 1.400 . S
C2016 H2001 0.960 . S
C2016 H2002 0.960 . S
C2016 H2003 0.960 . S
C2016 C2015 1.524 . S
C2017 C2014 1.403 . S
C2017 C2018 1.392 . S
C2017 C2021 1.495 . S
C2018 C2017 1.392 . S
C2018 C2019 1.385 . S
C2018 C2020 1.478 . S
C2019 H2013 0.930 . S
C2019 C2015 1.400 . S
C2019 C2018 1.385 . S
C2020 C2018 1.478 . S
C2020 C2022 1.381 . S
C2020 C2026 1.383 . S
C2021 C2017 1.495 . S
C2021 H2027 0.959 . S
C2021 H2028 0.961 . S
C2021 H2029 0.960 . S
C2022 C2020 1.381 . S
C2022 C2023 1.394 . S
C2022 H2030 0.930 . S
C2023 C2022 1.394 . S
C2023 C2024 1.383 . S
C2023 H2031 0.929 . S
C2024 C2023 1.383 . S
C2024 C2025 1.377 . S
C2025 H2009 0.930 . S
C2025 C2024 1.377 . S
C2025 C2026 1.379 . S
C2026 H2010 0.931 . S
C2026 C2020 1.383 . S
C2026 C2025 1.379 . S
H2027 C2021 0.959 . S
H2028 C2021 0.961 . S
H2029 C2021 0.960 . S
H2030 C2022 0.930 . S
H2031 C2023 0.929 . S
H2032 C2040 0.929 . S
H2033 C2042 0.930 . S
H2034 C2044 0.930 . S
H2035 C2047 0.929 . S
H2036 C2050 0.923 1_554 S
H2037 C2052 0.960 . S
H2038 C2052 0.960 . S
H2039 C2052 0.960 . S
C2040 H2032 0.929 . S
C2040 C2041 1.377 . S
C2040 C2042 1.384 . S
C2041 C2040 1.377 . S
C2041 C2047 1.390 . S
C2042 H2033 0.930 . S
C2042 C2040 1.384 . S
C2042 C2043 1.372 . S
C2043 C2042 1.372 . S
C2043 C2044 1.400 . S
C2043 C2048 1.490 . S
C2044 H2034 0.930 . S
C2044 C2043 1.400 . S
C2044 C2047 1.386 . S
H2045 C2061 0.930 . S
H2046 C2062 0.931 . S
C2047 H2035 0.929 . S
C2047 C2041 1.390 . S
C2047 C2044 1.386 . S
C2048 C2043 1.490 . S
C2048 C2050 1.370 1_554 S
C2048 C2051 1.403 . S
H2049 C2055 0.930 . S
C2050 H2036 0.923 1_556 S
C2050 C2048 1.370 1_556 S
C2050 C2053 1.436 . S
C2051 C2048 1.403 . S
C2051 C2052 1.524 . S
C2051 C2055 1.400 1_554 S
C2052 H2037 0.960 . S
C2052 H2038 0.960 . S
C2052 H2039 0.960 . S
C2052 C2051 1.524 . S
C2053 C2050 1.436 . S
C2053 C2054 1.392 . S
C2053 C2057 1.495 . S
C2054 C2053 1.392 . S
C2054 C2055 1.385 . S
C2054 C2056 1.478 . S
C2055 H2049 0.930 . S
C2055 C2051 1.400 1_556 S
C2055 C2054 1.385 . S
C2056 C2054 1.478 . S
C2056 C2058 1.381 . S
C2056 C2062 1.383 . S
C2057 C2053 1.495 . S
C2057 H2063 0.959 . S
C2057 H2064 0.961 . S
C2057 H2065 0.960 . S
C2058 C2056 1.381 . S
C2058 C2059 1.394 . S
C2058 H2066 0.930 . S
C2059 C2058 1.394 . S
C2059 C2060 1.383 . S
C2059 H2067 0.929 . S
C2060 C2059 1.383 . S
C2060 C2061 1.377 . S
C2061 H2045 0.930 . S
C2061 C2060 1.377 . S
C2061 C2062 1.379 . S
C2062 H2046 0.931 . S
C2062 C2056 1.383 . S
C2062 C2061 1.379 . S
H2063 C2057 0.959 . S
H2064 C2057 0.961 . S
H2065 C2057 0.960 . S
H2066 C2058 0.930 . S
H2067 C2059 0.929 . S
H2068 C2076 0.929 . S
H2069 C2078 0.930 . S
H2070 C2080 0.930 1_655 S
H2071 C2083 0.928 1_655 S
H2072 C2086 0.930 . S
H2073 C2088 0.960 . S
H2074 C2088 0.960 . S
H2075 C2088 0.960 . S
C2076 H2068 0.929 . S
C2076 C2077 1.377 . S
C2076 C2078 1.384 . S
C2077 C2076 1.377 . S
C2077 C2083 1.390 . S
C2078 H2069 0.930 . S
C2078 C2076 1.384 . S
C2078 C2079 1.372 . S
C2079 C2078 1.372 . S
C2079 C2080 1.400 . S
C2079 C2084 1.490 . S
C2080 H2070 0.930 1_455 S
C2080 C2079 1.400 . S
C2080 C2083 1.386 . S
H2081 C2097 0.930 . S
H2082 C2098 0.931 . S
C2083 H2071 0.928 1_455 S
C2083 C2077 1.390 . S
C2083 C2080 1.386 . S
C2084 C2079 1.490 . S
C2084 C2086 1.395 . S
C2084 C2087 1.403 1_455 S
H2085 C2091 0.930 . S
C2086 H2072 0.930 . S
C2086 C2084 1.395 . S
C2086 C2089 1.403 . S
C2087 C2084 1.403 1_655 S
C2087 C2088 1.524 . S
C2087 C2091 1.400 . S
C2088 H2073 0.960 . S
C2088 H2074 0.960 . S
C2088 H2075 0.960 . S
C2088 C2087 1.524 . S
C2089 C2086 1.403 . S
C2089 C2090 1.392 1_455 S
C2089 C2093 1.495 . S
C2090 C2089 1.392 1_655 S
C2090 C2091 1.385 . S
C2090 C2092 1.478 . S
C2091 H2085 0.930 . S
C2091 C2087 1.400 . S
C2091 C2090 1.385 . S
C2092 C2090 1.478 . S
C2092 C2094 1.372 1_655 S
C2092 C2098 1.383 . S
C2093 C2089 1.495 . S
C2093 H2099 0.959 . S
C2093 H2100 0.961 . S
C2093 H2101 0.960 . S
C2094 C2092 1.372 1_455 S
C2094 C2095 1.388 1_455 S
C2094 H2102 0.946 . S
C2095 C2094 1.388 1_655 S
C2095 C2096 1.383 . S
C2095 H2103 0.911 1_655 S
C2096 C2095 1.383 . S
C2096 C2097 1.377 . S
C2097 H2081 0.930 . S
C2097 C2096 1.377 . S
C2097 C2098 1.379 . S
C2098 H2082 0.931 . S
C2098 C2092 1.383 . S
C2098 C2097 1.379 . S
H2099 C2093 0.959 . S
H2100 C2093 0.961 . S
H2101 C2093 0.960 . S
H2102 C2094 0.946 . S
H2103 C2095 0.911 1_455 S
H2104 C2112 0.929 . S
H2105 C2114 0.930 . S
H2106 C2116 0.930 . S
H2107 C2119 0.929 . S
H2108 C2122 0.930 . S
H2109 C2124 0.960 . S
H2110 C2124 0.960 . S
H2111 C2124 0.960 . S
C2112 H2104 0.929 . S
C2112 C2113 1.377 . S
C2112 C2114 1.384 . S
C2113 C2112 1.377 . S
C2113 C2119 1.390 . S
C2114 H2105 0.930 . S
C2114 C2112 1.384 . S
C2114 C2115 1.372 . S
C2115 C2114 1.372 . S
C2115 C2116 1.400 . S
C2115 C2120 1.490 . S
C2116 H2106 0.930 . S
C2116 C2115 1.400 . S
C2116 C2119 1.386 . S
H2117 C2133 0.930 . S
H2118 C2134 0.931 . S
C2119 H2107 0.929 . S
C2119 C2113 1.390 . S
C2119 C2116 1.386 . S
C2120 C2115 1.490 . S
C2120 C2122 1.395 . S
C2120 C2123 1.403 1_455 S
H2121 C2127 0.950 . S
C2122 H2108 0.930 . S
C2122 C2120 1.395 . S
C2122 C2125 1.403 1_554 S
C2123 C2120 1.403 1_655 S
C2123 C2124 1.524 . S
C2123 C2127 1.324 1_554 S
C2124 H2109 0.960 . S
C2124 H2110 0.960 . S
C2124 H2111 0.960 . S
C2124 C2123 1.524 . S
C2125 C2122 1.403 1_556 S
C2125 C2126 1.392 1_455 S
C2125 C2129 1.495 . S
C2126 C2125 1.392 1_655 S
C2126 C2127 1.446 . S
C2126 C2128 1.478 . S
C2127 H2121 0.950 . S
C2127 C2123 1.324 1_556 S
C2127 C2126 1.446 . S
C2128 C2126 1.478 . S
C2128 C2130 1.381 . S
C2128 C2134 1.383 . S
C2129 C2125 1.495 . S
C2129 H2135 0.959 . S
C2129 H2136 0.961 . S
C2129 H2137 0.960 . S
C2130 C2128 1.381 . S
C2130 C2131 1.394 . S
C2130 H2138 0.930 . S
C2131 C2130 1.394 . S
C2131 C2132 1.383 . S
C2131 H2139 0.929 . S
C2132 C2131 1.383 . S
C2132 C2133 1.377 . S
C2133 H2117 0.930 . S
C2133 C2132 1.377 . S
C2133 C2134 1.379 . S
C2134 H2118 0.931 . S
C2134 C2128 1.383 . S
C2134 C2133 1.379 . S
H2135 C2129 0.959 . S
H2136 C2129 0.961 . S
H2137 C2129 0.960 . S
H2138 C2130 0.930 . S
H2139 C2131 0.929 . S
H2140 C2148 0.929 . S
H2141 C2150 0.930 . S
H2142 C2152 0.930 . S
H2143 C2155 0.929 . S
H2144 C2158 0.930 . S
H2145 C2160 0.960 . S
H2146 C2160 0.960 . S
H2147 C2160 0.960 . S
C2148 H2140 0.929 . S
C2148 C2149 1.377 . S
C2148 C2150 1.384 . S
C2149 C2148 1.377 . S
C2149 C2155 1.390 . S
C2150 H2141 0.930 . S
C2150 C2148 1.384 . S
C2150 C2151 1.372 . S
C2151 C2150 1.372 . S
C2151 C2152 1.400 . S
C2151 C2156 1.490 . S
C2152 H2142 0.930 . S
C2152 C2151 1.400 . S
C2152 C2155 1.386 . S
H2153 C2169 0.930 . S
H2154 C2170 0.931 . S
C2155 H2143 0.929 . S
C2155 C2149 1.390 . S
C2155 C2152 1.386 . S
C2156 C2151 1.490 . S
C2156 C2158 1.395 . S
C2156 C2159 1.403 . S
H2157 C2163 0.930 . S
C2158 H2144 0.930 . S
C2158 C2156 1.395 . S
C2158 C2161 1.403 . S
C2159 C2156 1.403 . S
C2159 C2160 1.524 . S
C2159 C2163 1.400 . S
C2160 H2145 0.960 . S
C2160 H2146 0.960 . S
C2160 H2147 0.960 . S
C2160 C2159 1.524 . S
C2161 C2158 1.403 . S
C2161 C2162 1.392 . S
C2161 C2165 1.495 . S
C2162 C2161 1.392 . S
C2162 C2163 1.385 . S
C2162 C2164 1.478 . S
C2163 H2157 0.930 . S
C2163 C2159 1.400 . S
C2163 C2162 1.385 . S
C2164 C2162 1.478 . S
C2164 C2166 1.381 . S
C2164 C2170 1.383 . S
C2165 C2161 1.495 . S
C2165 H2171 0.959 . S
C2165 H2172 0.961 . S
C2165 H2173 0.960 . S
C2166 C2164 1.381 . S
C2166 C2167 1.394 . S
C2166 H2174 0.930 . S
C2167 C2166 1.394 . S
C2167 C2168 1.383 . S
C2167 H2175 0.929 . S
C2168 C2167 1.383 . S
C2168 C2169 1.377 . S
C2169 H2153 0.930 . S
C2169 C2168 1.377 . S
C2169 C2170 1.379 . S
C2170 H2154 0.931 . S
C2170 C2164 1.383 . S
C2170 C2169 1.379 . S
H2171 C2165 0.959 . S
H2172 C2165 0.961 . S
H2173 C2165 0.960 . S
H2174 C2166 0.930 . S
H2175 C2167 0.929 . S
H2176 C2184 0.929 . S
H2177 C2186 0.930 . S
H2178 C2188 0.930 . S
H2179 C2191 0.929 . S
H2180 C2194 0.930 . S
H2181 C2196 0.960 . S
H2182 C2196 0.960 . S
H2183 C2196 0.960 . S
C2184 H2176 0.929 . S
C2184 C2185 1.377 . S
C2184 C2186 1.384 . S
C2185 C2184 1.377 . S
C2185 C2191 1.390 . S
C2186 H2177 0.930 . S
C2186 C2184 1.384 . S
C2186 C2187 1.372 . S
C2187 C2186 1.372 . S
C2187 C2188 1.400 . S
C2187 C2192 1.490 . S
C2188 H2178 0.930 . S
C2188 C2187 1.400 . S
C2188 C2191 1.386 . S
H2189 C2205 0.930 . S
H2190 C2206 0.931 . S
C2191 H2179 0.929 . S
C2191 C2185 1.390 . S
C2191 C2188 1.386 . S
C2192 C2187 1.490 . S
C2192 C2194 1.395 . S
C2192 C2195 1.403 . S
H2193 C2199 0.930 . S
C2194 H2180 0.930 . S
C2194 C2192 1.395 . S
C2194 C2197 1.403 . S
C2195 C2192 1.403 . S
C2195 C2196 1.524 . S
C2195 C2199 1.400 . S
C2196 H2181 0.960 . S
C2196 H2182 0.960 . S
C2196 H2183 0.960 . S
C2196 C2195 1.524 . S
C2197 C2194 1.403 . S
C2197 C2198 1.392 . S
C2197 C2201 1.495 . S
C2198 C2197 1.392 . S
C2198 C2199 1.385 . S
C2198 C2200 1.478 . S
C2199 H2193 0.930 . S
C2199 C2195 1.400 . S
C2199 C2198 1.385 . S
C2200 C2198 1.478 . S
C2200 C2202 1.381 . S
C2200 C2206 1.383 . S
C2201 C2197 1.495 . S
C2201 H2207 0.959 . S
C2201 H2208 0.961 . S
C2201 H2209 0.960 . S
C2202 C2200 1.381 . S
C2202 C2203 1.394 . S
C2202 H2210 0.930 . S
C2203 C2202 1.394 . S
C2203 C2204 1.383 . S
C2203 H2211 0.929 . S
C2204 C2203 1.383 . S
C2204 C2205 1.377 . S
C2205 H2189 0.930 . S
C2205 C2204 1.377 . S
C2205 C2206 1.379 . S
C2206 H2190 0.931 . S
C2206 C2200 1.383 . S
C2206 C2205 1.379 . S
H2207 C2201 0.959 . S
H2208 C2201 0.961 . S
H2209 C2201 0.960 . S
H2210 C2202 0.930 . S
H2211 C2203 0.929 . S
H2212 C2220 0.929 . S
H2213 C2222 0.930 . S
H2214 C2224 0.930 . S
H2215 C2227 0.929 1_565 S
H2216 C2230 0.930 . S
H2217 C2232 0.960 . S
H2218 C2232 0.960 . S
H2219 C2232 0.960 . S
C2220 H2212 0.929 . S
C2220 C2221 1.377 . S
C2220 C2222 1.384 . S
C2221 C2220 1.377 . S
C2221 C2227 1.390 . S
C2222 H2213 0.930 . S
C2222 C2220 1.384 . S
C2222 C2223 1.372 . S
C2223 C2222 1.372 . S
C2223 C2224 1.400 . S
C2223 C2228 1.490 . S
C2224 H2214 0.930 . S
C2224 C2223 1.400 . S
C2224 C2227 1.386 . S
H2225 C2241 0.930 . S
H2226 C2242 0.931 . S
C2227 H2215 0.929 1_545 S
C2227 C2221 1.390 . S
C2227 C2224 1.386 . S
C2228 C2223 1.490 . S
C2228 C2230 1.395 . S
C2228 C2231 1.403 . S
H2229 C2235 0.930 . S
C2230 H2216 0.930 . S
C2230 C2228 1.395 . S
C2230 C2233 1.403 . S
C2231 C2228 1.403 . S
C2231 C2232 1.524 . S
C2231 C2235 1.400 . S
C2232 H2217 0.960 . S
C2232 H2218 0.960 . S
C2232 H2219 0.960 . S
C2232 C2231 1.524 . S
C2233 C2230 1.403 . S
C2233 C2234 1.392 . S
C2233 C2237 1.495 . S
C2234 C2233 1.392 . S
C2234 C2235 1.385 . S
C2234 C2236 1.478 . S
C2235 H2229 0.930 . S
C2235 C2231 1.400 . S
C2235 C2234 1.385 . S
C2236 C2234 1.478 . S
C2236 C2238 1.381 . S
C2236 C2242 1.383 . S
C2237 C2233 1.495 . S
C2237 H2243 0.959 . S
C2237 H2244 0.961 . S
C2237 H2245 0.960 . S
C2238 C2236 1.381 . S
C2238 C2239 1.394 . S
C2238 H2246 0.930 . S
C2239 C2238 1.394 . S
C2239 C2240 1.383 . S
C2239 H2247 0.929 . S
C2240 C2239 1.383 . S
C2240 C2241 1.377 . S
C2241 H2225 0.930 . S
C2241 C2240 1.377 . S
C2241 C2242 1.379 . S
C2242 H2226 0.931 . S
C2242 C2236 1.383 . S
C2242 C2241 1.379 . S
H2243 C2237 0.959 . S
H2244 C2237 0.961 . S
H2245 C2237 0.960 . S
H2246 C2238 0.930 . S
H2247 C2239 0.929 . S
H2248 C2256 0.929 . S
H2249 C2258 0.930 . S
H2250 C2260 0.930 . S
H2251 C2263 0.929 . S
H2252 C2266 0.930 . S
H2253 C2268 0.960 . S
H2254 C2268 0.960 . S
H2255 C2268 0.960 . S
C2256 H2248 0.929 . S
C2256 C2257 1.377 . S
C2256 C2258 1.384 . S
C2257 C2256 1.377 . S
C2257 C2263 1.390 . S
C2258 H2249 0.930 . S
C2258 C2256 1.384 . S
C2258 C2259 1.372 . S
C2259 C2258 1.372 . S
C2259 C2260 1.400 . S
C2259 C2264 1.490 . S
C2260 H2250 0.930 . S
C2260 C2259 1.400 . S
C2260 C2263 1.386 . S
H2261 C2277 0.930 . S
H2262 C2278 0.931 . S
C2263 H2251 0.929 . S
C2263 C2257 1.390 . S
C2263 C2260 1.386 . S
C2264 C2259 1.490 . S
C2264 C2266 1.395 . S
C2264 C2267 1.403 . S
H2265 C2271 0.930 . S
C2266 H2252 0.930 . S
C2266 C2264 1.395 . S
C2266 C2269 1.403 . S
C2267 C2264 1.403 . S
C2267 C2268 1.524 . S
C2267 C2271 1.400 . S
C2268 H2253 0.960 . S
C2268 H2254 0.960 . S
C2268 H2255 0.960 . S
C2268 C2267 1.524 . S
C2269 C2266 1.403 . S
C2269 C2270 1.392 . S
C2269 C2273 1.495 . S
C2270 C2269 1.392 . S
C2270 C2271 1.385 . S
C2270 C2272 1.478 . S
C2271 H2265 0.930 . S
C2271 C2267 1.400 . S
C2271 C2270 1.385 . S
C2272 C2270 1.478 . S
C2272 C2274 1.381 . S
C2272 C2278 1.383 . S
C2273 C2269 1.495 . S
C2273 H2279 0.959 . S
C2273 H2280 0.961 . S
C2273 H2281 0.960 . S
C2274 C2272 1.381 . S
C2274 C2275 1.394 . S
C2274 H2282 0.930 . S
C2275 C2274 1.394 . S
C2275 C2276 1.383 . S
C2275 H2283 0.929 . S
C2276 C2275 1.383 . S
C2276 C2277 1.377 . S
C2277 H2261 0.930 . S
C2277 C2276 1.377 . S
C2277 C2278 1.379 . S
C2278 H2262 0.931 . S
C2278 C2272 1.383 . S
C2278 C2277 1.379 . S
H2279 C2273 0.959 . S
H2280 C2273 0.961 . S
H2281 C2273 0.960 . S
H2282 C2274 0.930 . S
H2283 C2275 0.929 . S
H2284 C2292 0.929 . S
H2285 C2294 0.930 . S
H2286 C2296 0.930 . S
H2287 C2299 0.929 . S
H2288 C2302 0.930 . S
H2289 C2304 0.960 . S
H2290 C2304 0.960 . S
H2291 C2304 0.960 . S
C2292 H2284 0.929 . S
C2292 C2293 1.377 . S
C2292 C2294 1.384 . S
C2293 C2292 1.377 . S
C2293 C2299 1.390 . S
C2294 H2285 0.930 . S
C2294 C2292 1.384 . S
C2294 C2295 1.372 . S
C2295 C2294 1.372 . S
C2295 C2296 1.400 . S
C2295 C2300 1.490 . S
C2296 H2286 0.930 . S
C2296 C2295 1.400 . S
C2296 C2299 1.386 . S
H2297 C2313 0.930 . S
H2298 C2314 0.931 . S
C2299 H2287 0.929 . S
C2299 C2293 1.390 . S
C2299 C2296 1.386 . S
C2300 C2295 1.490 . S
C2300 C2302 1.395 . S
C2300 C2303 1.403 . S
H2301 C2307 0.930 . S
C2302 H2288 0.930 . S
C2302 C2300 1.395 . S
C2302 C2305 1.403 . S
C2303 C2300 1.403 . S
C2303 C2304 1.524 . S
C2303 C2307 1.400 . S
C2304 H2289 0.960 . S
C2304 H2290 0.960 . S
C2304 H2291 0.960 . S
C2304 C2303 1.524 . S
C2305 C2302 1.403 . S
C2305 C2306 1.392 . S
C2305 C2309 1.495 . S
C2306 C2305 1.392 . S
C2306 C2307 1.385 . S
C2306 C2308 1.478 . S
C2307 H2301 0.930 . S
C2307 C2303 1.400 . S
C2307 C2306 1.385 . S
C2308 C2306 1.478 . S
C2308 C2310 1.381 . S
C2308 C2314 1.383 . S
C2309 C2305 1.495 . S
C2309 H2315 0.959 . S
C2309 H2316 0.961 . S
C2309 H2317 0.960 . S
C2310 C2308 1.381 . S
C2310 C2311 1.394 . S
C2310 H2318 0.930 . S
C2311 C2310 1.394 . S
C2311 C2312 1.383 . S
C2311 H2319 0.929 . S
C2312 C2311 1.383 . S
C2312 C2313 1.377 . S
C2313 H2297 0.930 . S
C2313 C2312 1.377 . S
C2313 C2314 1.379 . S
C2314 H2298 0.931 . S
C2314 C2308 1.383 . S
C2314 C2313 1.379 . S
H2315 C2309 0.959 . S
H2316 C2309 0.961 . S
H2317 C2309 0.960 . S
H2318 C2310 0.930 . S
H2319 C2311 0.929 . S
H2320 C2328 0.929 . S
H2321 C2330 0.930 . S
H2322 C2332 0.930 . S
H2323 C2335 0.929 . S
H2324 C2338 0.930 . S
H2325 C2340 0.960 . S
H2326 C2340 0.960 . S
H2327 C2340 0.960 . S
C2328 H2320 0.929 . S
C2328 C2329 1.377 . S
C2328 C2330 1.384 . S
C2329 C2328 1.377 . S
C2329 C2335 1.390 . S
C2330 H2321 0.930 . S
C2330 C2328 1.384 . S
C2330 C2331 1.372 . S
C2331 C2330 1.372 . S
C2331 C2332 1.400 . S
C2331 C2336 1.490 . S
C2332 H2322 0.930 . S
C2332 C2331 1.400 . S
C2332 C2335 1.386 . S
H2333 C2349 0.930 . S
H2334 C2350 0.931 . S
C2335 H2323 0.929 . S
C2335 C2329 1.390 . S
C2335 C2332 1.386 . S
C2336 C2331 1.490 . S
C2336 C2338 1.395 . S
C2336 C2339 1.403 . S
H2337 C2343 0.930 . S
C2338 H2324 0.930 . S
C2338 C2336 1.395 . S
C2338 C2341 1.403 . S
C2339 C2336 1.403 . S
C2339 C2340 1.524 . S
C2339 C2343 1.400 . S
C2340 H2325 0.960 . S
C2340 H2326 0.960 . S
C2340 H2327 0.960 . S
C2340 C2339 1.524 . S
C2341 C2338 1.403 . S
C2341 C2342 1.392 . S
C2341 C2345 1.495 . S
C2342 C2341 1.392 . S
C2342 C2343 1.385 . S
C2342 C2344 1.478 . S
C2343 H2337 0.930 . S
C2343 C2339 1.400 . S
C2343 C2342 1.385 . S
C2344 C2342 1.478 . S
C2344 C2346 1.381 . S
C2344 C2350 1.383 . S
C2345 C2341 1.495 . S
C2345 H2351 0.959 . S
C2345 H2352 0.961 . S
C2345 H2353 0.960 . S
C2346 C2344 1.381 . S
C2346 C2347 1.394 . S
C2346 H2354 0.930 . S
C2347 C2346 1.394 . S
C2347 C2348 1.383 . S
C2347 H2355 0.929 . S
C2348 C2347 1.383 . S
C2348 C2349 1.377 . S
C2349 H2333 0.930 . S
C2349 C2348 1.377 . S
C2349 C2350 1.379 . S
C2350 H2334 0.931 . S
C2350 C2344 1.383 . S
C2350 C2349 1.379 . S
H2351 C2345 0.959 . S
H2352 C2345 0.961 . S
H2353 C2345 0.960 . S
H2354 C2346 0.930 . S
H2355 C2347 0.929 . S
H2356 C2364 0.929 . S
H2357 C2366 0.930 . S
H2358 C2368 0.930 . S
H2359 C2371 0.929 . S
H2360 C2374 0.930 . S
H2361 C2376 0.960 . S
H2362 C2376 0.960 . S
H2363 C2376 0.960 . S
C2364 H2356 0.929 . S
C2364 C2365 1.377 . S
C2364 C2366 1.384 . S
C2365 C2364 1.377 . S
C2365 C2371 1.390 . S
C2366 H2357 0.930 . S
C2366 C2364 1.384 . S
C2366 C2367 1.372 . S
C2367 C2366 1.372 . S
C2367 C2368 1.400 . S
C2367 C2372 1.490 . S
C2368 H2358 0.930 . S
C2368 C2367 1.400 . S
C2368 C2371 1.386 . S
H2369 C2385 0.930 . S
H2370 C2386 0.931 . S
C2371 H2359 0.929 . S
C2371 C2365 1.390 . S
C2371 C2368 1.386 . S
C2372 C2367 1.490 . S
C2372 C2374 1.395 . S
C2372 C2375 1.403 . S
H2373 C2379 0.930 . S
C2374 H2360 0.930 . S
C2374 C2372 1.395 . S
C2374 C2377 1.403 . S
C2375 C2372 1.403 . S
C2375 C2376 1.524 . S
C2375 C2379 1.400 . S
C2376 H2361 0.960 . S
C2376 H2362 0.960 . S
C2376 H2363 0.960 . S
C2376 C2375 1.524 . S
C2377 C2374 1.403 . S
C2377 C2378 1.392 . S
C2377 C2381 1.495 . S
C2378 C2377 1.392 . S
C2378 C2379 1.385 . S
C2378 C2380 1.478 . S
C2379 H2373 0.930 . S
C2379 C2375 1.400 . S
C2379 C2378 1.385 . S
C2380 C2378 1.478 . S
C2380 C2382 1.381 . S
C2380 C2386 1.383 . S
C2381 C2377 1.495 . S
C2381 H2387 0.959 . S
C2381 H2388 0.961 . S
C2381 H2389 0.960 . S
C2382 C2380 1.381 . S
C2382 C2383 1.394 . S
C2382 H2390 0.930 . S
C2383 C2382 1.394 . S
C2383 C2384 1.383 . S
C2383 H2391 0.929 . S
C2384 C2383 1.383 . S
C2384 C2385 1.377 . S
C2385 H2369 0.930 . S
C2385 C2384 1.377 . S
C2385 C2386 1.379 . S
C2386 H2370 0.931 . S
C2386 C2380 1.383 . S
C2386 C2385 1.379 . S
H2387 C2381 0.959 . S
H2388 C2381 0.961 . S
H2389 C2381 0.960 . S
H2390 C2382 0.930 . S
H2391 C2383 0.929 . S
H2392 C2400 0.929 . S
H2393 C2402 0.930 . S
H2394 C2404 0.930 . S
H2395 C2407 0.929 . S
H2396 C2410 0.930 . S
H2397 C2412 0.960 . S
H2398 C2412 0.960 . S
H2399 C2412 0.960 . S
C2400 H2392 0.929 . S
C2400 C2401 1.377 . S
C2400 C2402 1.384 . S
C2401 C2400 1.377 . S
C2401 C2407 1.390 . S
C2402 H2393 0.930 . S
C2402 C2400 1.384 . S
C2402 C2403 1.372 . S
C2403 C2402 1.372 . S
C2403 C2404 1.400 . S
C2403 C2408 1.490 . S
C2404 H2394 0.930 . S
C2404 C2403 1.400 . S
C2404 C2407 1.386 . S
H2405 C2421 0.930 . S
H2406 C2422 0.931 . S
C2407 H2395 0.929 . S
C2407 C2401 1.390 . S
C2407 C2404 1.386 . S
C2408 C2403 1.490 . S
C2408 C2410 1.395 . S
C2408 C2411 1.403 . S
H2409 C2415 0.930 . S
C2410 H2396 0.930 . S
C2410 C2408 1.395 . S
C2410 C2413 1.403 . S
C2411 C2408 1.403 . S
C2411 C2412 1.524 . S
C2411 C2415 1.400 . S
C2412 H2397 0.960 . S
C2412 H2398 0.960 . S
C2412 H2399 0.960 . S
C2412 C2411 1.524 . S
C2413 C2410 1.403 . S
C2413 C2414 1.392 . S
C2413 C2417 1.495 . S
C2414 C2413 1.392 . S
C2414 C2415 1.385 . S
C2414 C2416 1.478 . S
C2415 H2409 0.930 . S
C2415 C2411 1.400 . S
C2415 C2414 1.385 . S
C2416 C2414 1.478 . S
C2416 C2418 1.381 . S
C2416 C2422 1.383 . S
C2417 C2413 1.495 . S
C2417 H2423 0.959 . S
C2417 H2424 0.961 . S
C2417 H2425 0.960 . S
C2418 C2416 1.381 . S
C2418 C2419 1.394 . S
C2418 H2426 0.930 . S
C2419 C2418 1.394 . S
C2419 C2420 1.383 . S
C2419 H2427 0.929 . S
C2420 C2419 1.383 . S
C2420 C2421 1.377 . S
C2421 H2405 0.930 . S
C2421 C2420 1.377 . S
C2421 C2422 1.379 . S
C2422 H2406 0.931 . S
C2422 C2416 1.383 . S
C2422 C2421 1.379 . S
H2423 C2417 0.959 . S
H2424 C2417 0.961 . S
H2425 C2417 0.960 . S
H2426 C2418 0.930 . S
H2427 C2419 0.929 . S
H2428 C2436 0.929 . S
H2429 C2438 0.930 . S
H2430 C2440 0.930 . S
H2431 C2443 0.929 . S
H2432 C2446 0.930 . S
H2433 C2448 0.960 . S
H2434 C2448 0.960 . S
H2435 C2448 0.960 . S
C2436 H2428 0.929 . S
C2436 C2437 1.377 . S
C2436 C2438 1.384 . S
C2437 C2436 1.377 . S
C2437 C2443 1.390 . S
C2438 H2429 0.930 . S
C2438 C2436 1.384 . S
C2438 C2439 1.372 . S
C2439 C2438 1.372 . S
C2439 C2440 1.400 . S
C2439 C2444 1.490 . S
C2440 H2430 0.930 . S
C2440 C2439 1.400 . S
C2440 C2443 1.386 . S
H2441 C2457 0.930 . S
H2442 C2458 0.931 . S
C2443 H2431 0.929 . S
C2443 C2437 1.390 . S
C2443 C2440 1.386 . S
C2444 C2439 1.490 . S
C2444 C2446 1.395 . S
C2444 C2447 1.403 . S
H2445 C2451 0.930 . S
C2446 H2432 0.930 . S
C2446 C2444 1.395 . S
C2446 C2449 1.403 . S
C2447 C2444 1.403 . S
C2447 C2448 1.524 . S
C2447 C2451 1.400 . S
C2448 H2433 0.960 . S
C2448 H2434 0.960 . S
C2448 H2435 0.960 . S
C2448 C2447 1.524 . S
C2449 C2446 1.403 . S
C2449 C2450 1.392 . S
C2449 C2453 1.495 . S
C2450 C2449 1.392 . S
C2450 C2451 1.385 . S
C2450 C2452 1.478 . S
C2451 H2445 0.930 . S
C2451 C2447 1.400 . S
C2451 C2450 1.385 . S
C2452 C2450 1.478 . S
C2452 C2454 1.381 . S
C2452 C2458 1.383 . S
C2453 C2449 1.495 . S
C2453 H2459 0.959 . S
C2453 H2460 0.961 . S
C2453 H2461 0.960 . S
C2454 C2452 1.381 . S
C2454 C2455 1.394 . S
C2454 H2462 0.930 . S
C2455 C2454 1.394 . S
C2455 C2456 1.383 . S
C2455 H2463 0.929 . S
C2456 C2455 1.383 . S
C2456 C2457 1.377 . S
C2457 H2441 0.930 . S
C2457 C2456 1.377 . S
C2457 C2458 1.379 . S
C2458 H2442 0.931 . S
C2458 C2452 1.383 . S
C2458 C2457 1.379 . S
H2459 C2453 0.959 . S
H2460 C2453 0.961 . S
H2461 C2453 0.960 . S
H2462 C2454 0.930 . S
H2463 C2455 0.929 . S
H2464 C2472 0.929 . S
H2465 C2474 0.930 . S
H2466 C2476 0.930 . S
H2467 C2479 0.929 . S
H2468 C2482 0.930 . S
H2469 C2484 0.960 . S
H2470 C2484 0.960 . S
H2471 C2484 0.960 . S
C2472 H2464 0.929 . S
C2472 C2473 1.377 . S
C2472 C2474 1.384 . S
C2473 C2472 1.377 . S
C2473 C2479 1.390 . S
C2474 H2465 0.930 . S
C2474 C2472 1.384 . S
C2474 C2475 1.372 . S
C2475 C2474 1.372 . S
C2475 C2476 1.400 . S
C2475 C2480 1.490 . S
C2476 H2466 0.930 . S
C2476 C2475 1.400 . S
C2476 C2479 1.386 . S
H2477 C2493 0.930 . S
H2478 C2494 0.931 . S
C2479 H2467 0.929 . S
C2479 C2473 1.390 . S
C2479 C2476 1.386 . S
C2480 C2475 1.490 . S
C2480 C2482 1.395 . S
C2480 C2483 1.403 . S
H2481 C2487 0.930 . S
C2482 H2468 0.930 . S
C2482 C2480 1.395 . S
C2482 C2485 1.403 . S
C2483 C2480 1.403 . S
C2483 C2484 1.524 . S
C2483 C2487 1.400 . S
C2484 H2469 0.960 . S
C2484 H2470 0.960 . S
C2484 H2471 0.960 . S
C2484 C2483 1.524 . S
C2485 C2482 1.403 . S
C2485 C2486 1.392 . S
C2485 C2489 1.495 . S
C2486 C2485 1.392 . S
C2486 C2487 1.385 . S
C2486 C2488 1.478 . S
C2487 H2481 0.930 . S
C2487 C2483 1.400 . S
C2487 C2486 1.385 . S
C2488 C2486 1.478 . S
C2488 C2490 1.381 . S
C2488 C2494 1.383 . S
C2489 C2485 1.495 . S
C2489 H2495 0.959 . S
C2489 H2496 0.961 . S
C2489 H2497 0.960 . S
C2490 C2488 1.381 . S
C2490 C2491 1.394 . S
C2490 H2498 0.930 . S
C2491 C2490 1.394 . S
C2491 C2492 1.383 . S
C2491 H2499 0.929 . S
C2492 C2491 1.383 . S
C2492 C2493 1.377 . S
C2493 H2477 0.930 . S
C2493 C2492 1.377 . S
C2493 C2494 1.379 . S
C2494 H2478 0.931 . S
C2494 C2488 1.383 . S
C2494 C2493 1.379 . S
H2495 C2489 0.959 . S
H2496 C2489 0.961 . S
H2497 C2489 0.960 . S
H2498 C2490 0.930 . S
H2499 C2491 0.929 . S
H2500 C2508 0.929 . S
H2501 C2510 0.930 . S
H2502 C2512 0.930 . S
H2503 C2515 0.929 . S
H2504 C2518 0.930 . S
H2505 C2520 0.960 . S
H2506 C2520 0.960 . S
H2507 C2520 0.960 . S
C2508 H2500 0.929 . S
C2508 C2509 1.377 . S
C2508 C2510 1.384 . S
C2509 C2508 1.377 . S
C2509 C2515 1.390 . S
C2510 H2501 0.930 . S
C2510 C2508 1.384 . S
C2510 C2511 1.372 . S
C2511 C2510 1.372 . S
C2511 C2512 1.400 . S
C2511 C2516 1.490 . S
C2512 H2502 0.930 . S
C2512 C2511 1.400 . S
C2512 C2515 1.386 . S
H2513 C2529 0.930 . S
H2514 C2530 0.931 . S
C2515 H2503 0.929 . S
C2515 C2509 1.390 . S
C2515 C2512 1.386 . S
C2516 C2511 1.490 . S
C2516 C2518 1.395 . S
C2516 C2519 1.403 . S
H2517 C2523 0.930 . S
C2518 H2504 0.930 . S
C2518 C2516 1.395 . S
C2518 C2521 1.403 . S
C2519 C2516 1.403 . S
C2519 C2520 1.524 . S
C2519 C2523 1.400 . S
C2520 H2505 0.960 . S
C2520 H2506 0.960 . S
C2520 H2507 0.960 . S
C2520 C2519 1.524 . S
C2521 C2518 1.403 . S
C2521 C2522 1.392 . S
C2521 C2525 1.495 . S
C2522 C2521 1.392 . S
C2522 C2523 1.385 . S
C2522 C2524 1.478 . S
C2523 H2517 0.930 . S
C2523 C2519 1.400 . S
C2523 C2522 1.385 . S
C2524 C2522 1.478 . S
C2524 C2526 1.381 . S
C2524 C2530 1.383 . S
C2525 C2521 1.495 . S
C2525 H2531 0.959 . S
C2525 H2532 0.961 . S
C2525 H2533 0.960 . S
C2526 C2524 1.381 . S
C2526 C2527 1.394 . S
C2526 H2534 0.930 . S
C2527 C2526 1.394 . S
C2527 C2528 1.383 . S
C2527 H2535 0.929 . S
C2528 C2527 1.383 . S
C2528 C2529 1.377 . S
C2529 H2513 0.930 . S
C2529 C2528 1.377 . S
C2529 C2530 1.379 . S
C2530 H2514 0.931 . S
C2530 C2524 1.383 . S
C2530 C2529 1.379 . S
H2531 C2525 0.959 . S
H2532 C2525 0.961 . S
H2533 C2525 0.960 . S
H2534 C2526 0.930 . S
H2535 C2527 0.929 . S
H2536 C2544 0.929 . S
H2537 C2546 0.930 . S
H2538 C2548 0.930 . S
H2539 C2551 0.929 . S
H2540 C2554 0.930 . S
H2541 C2556 0.960 . S
H2542 C2556 0.960 . S
H2543 C2556 0.960 . S
C2544 H2536 0.929 . S
C2544 C2545 1.377 . S
C2544 C2546 1.384 . S
C2545 C2544 1.377 . S
C2545 C2551 1.390 . S
C2546 H2537 0.930 . S
C2546 C2544 1.384 . S
C2546 C2547 1.372 . S
C2547 C2546 1.372 . S
C2547 C2548 1.400 . S
C2547 C2552 1.490 . S
C2548 H2538 0.930 . S
C2548 C2547 1.400 . S
C2548 C2551 1.386 . S
H2549 C2565 0.930 . S
H2550 C2566 0.931 . S
C2551 H2539 0.929 . S
C2551 C2545 1.390 . S
C2551 C2548 1.386 . S
C2552 C2547 1.490 . S
C2552 C2554 1.395 . S
C2552 C2555 1.403 . S
H2553 C2559 0.930 . S
C2554 H2540 0.930 . S
C2554 C2552 1.395 . S
C2554 C2557 1.403 . S
C2555 C2552 1.403 . S
C2555 C2556 1.524 . S
C2555 C2559 1.400 . S
C2556 H2541 0.960 . S
C2556 H2542 0.960 . S
C2556 H2543 0.960 . S
C2556 C2555 1.524 . S
C2557 C2554 1.403 . S
C2557 C2558 1.392 . S
C2557 C2561 1.495 . S
C2558 C2557 1.392 . S
C2558 C2559 1.385 . S
C2558 C2560 1.478 . S
C2559 H2553 0.930 . S
C2559 C2555 1.400 . S
C2559 C2558 1.385 . S
C2560 C2558 1.478 . S
C2560 C2562 1.381 . S
C2560 C2566 1.383 . S
C2561 C2557 1.495 . S
C2561 H2567 0.959 . S
C2561 H2568 0.961 . S
C2561 H2569 0.960 . S
C2562 C2560 1.381 . S
C2562 C2563 1.394 . S
C2562 H2570 0.930 . S
C2563 C2562 1.394 . S
C2563 C2564 1.383 . S
C2563 H2571 0.929 . S
C2564 C2563 1.383 . S
C2564 C2565 1.377 . S
C2565 H2549 0.930 . S
C2565 C2564 1.377 . S
C2565 C2566 1.379 . S
C2566 H2550 0.931 . S
C2566 C2560 1.383 . S
C2566 C2565 1.379 . S
H2567 C2561 0.959 . S
H2568 C2561 0.961 . S
H2569 C2561 0.960 . S
H2570 C2562 0.930 . S
H2571 C2563 0.929 . S
H2572 C2580 0.929 . S
H2573 C2582 0.930 . S
H2574 C2584 0.930 . S
H2575 C2587 0.929 . S
H2576 C2590 0.930 . S
H2577 C2592 0.960 . S
H2578 C2592 0.960 . S
H2579 C2592 0.960 . S
C2580 H2572 0.929 . S
C2580 C2581 1.377 . S
C2580 C2582 1.384 . S
C2581 C2580 1.377 . S
C2581 C2587 1.390 . S
C2582 H2573 0.930 . S
C2582 C2580 1.384 . S
C2582 C2583 1.372 . S
C2583 C2582 1.372 . S
C2583 C2584 1.400 . S
C2583 C2588 1.490 . S
C2584 H2574 0.930 . S
C2584 C2583 1.400 . S
C2584 C2587 1.386 . S
H2585 C2601 0.930 . S
H2586 C2602 0.931 . S
C2587 H2575 0.929 . S
C2587 C2581 1.390 . S
C2587 C2584 1.386 . S
C2588 C2583 1.490 . S
C2588 C2590 1.395 . S
C2588 C2591 1.403 . S
H2589 C2595 0.930 . S
C2590 H2576 0.930 . S
C2590 C2588 1.395 . S
C2590 C2593 1.403 . S
C2591 C2588 1.403 . S
C2591 C2592 1.524 . S
C2591 C2595 1.400 . S
C2592 H2577 0.960 . S
C2592 H2578 0.960 . S
C2592 H2579 0.960 . S
C2592 C2591 1.524 . S
C2593 C2590 1.403 . S
C2593 C2594 1.392 . S
C2593 C2597 1.495 . S
C2594 C2593 1.392 . S
C2594 C2595 1.385 . S
C2594 C2596 1.478 . S
C2595 H2589 0.930 . S
C2595 C2591 1.400 . S
C2595 C2594 1.385 . S
C2596 C2594 1.478 . S
C2596 C2598 1.381 . S
C2596 C2602 1.383 . S
C2597 C2593 1.495 . S
C2597 H2603 0.959 . S
C2597 H2604 0.961 . S
C2597 H2605 0.960 . S
C2598 C2596 1.381 . S
C2598 C2599 1.394 . S
C2598 H2606 0.930 . S
C2599 C2598 1.394 . S
C2599 C2600 1.383 . S
C2599 H2607 0.929 . S
C2600 C2599 1.383 . S
C2600 C2601 1.377 . S
C2601 H2585 0.930 . S
C2601 C2600 1.377 . S
C2601 C2602 1.379 . S
C2602 H2586 0.931 . S
C2602 C2596 1.383 . S
C2602 C2601 1.379 . S
H2603 C2597 0.959 . S
H2604 C2597 0.961 . S
H2605 C2597 0.960 . S
H2606 C2598 0.930 . S
H2607 C2599 0.929 . S
H2608 C2616 0.929 . S
H2609 C2618 0.930 . S
H2610 C2620 0.930 . S
H2611 C2623 0.929 . S
H2612 C2626 0.930 . S
H2613 C2628 0.960 . S
H2614 C2628 0.960 . S
H2615 C2628 0.960 . S
C2616 H2608 0.929 . S
C2616 C2617 1.377 . S
C2616 C2618 1.384 . S
C2617 C2616 1.377 . S
C2617 C2623 1.390 . S
C2618 H2609 0.930 . S
C2618 C2616 1.384 . S
C2618 C2619 1.372 . S
C2619 C2618 1.372 . S
C2619 C2620 1.400 . S
C2619 C2624 1.490 . S
C2620 H2610 0.930 . S
C2620 C2619 1.400 . S
C2620 C2623 1.386 . S
H2621 C2637 0.930 . S
H2622 C2638 0.931 . S
C2623 H2611 0.929 . S
C2623 C2617 1.390 . S
C2623 C2620 1.386 . S
C2624 C2619 1.490 . S
C2624 C2626 1.395 . S
C2624 C2627 1.403 . S
H2625 C2631 0.930 . S
C2626 H2612 0.930 . S
C2626 C2624 1.395 . S
C2626 C2629 1.403 . S
C2627 C2624 1.403 . S
C2627 C2628 1.524 . S
C2627 C2631 1.400 . S
C2628 H2613 0.960 . S
C2628 H2614 0.960 . S
C2628 H2615 0.960 . S
C2628 C2627 1.524 . S
C2629 C2626 1.403 . S
C2629 C2630 1.392 . S
C2629 C2633 1.495 . S
C2630 C2629 1.392 . S
C2630 C2631 1.385 . S
C2630 C2632 1.478 . S
C2631 H2625 0.930 . S
C2631 C2627 1.400 . S
C2631 C2630 1.385 . S
C2632 C2630 1.478 . S
C2632 C2634 1.381 . S
C2632 C2638 1.383 . S
C2633 C2629 1.495 . S
C2633 H2639 0.959 . S
C2633 H2640 0.961 . S
C2633 H2641 0.960 . S
C2634 C2632 1.381 . S
C2634 C2635 1.394 . S
C2634 H2642 0.930 . S
C2635 C2634 1.394 . S
C2635 C2636 1.383 . S
C2635 H2643 0.929 . S
C2636 C2635 1.383 . S
C2636 C2637 1.377 . S
C2637 H2621 0.930 . S
C2637 C2636 1.377 . S
C2637 C2638 1.379 . S
C2638 H2622 0.931 . S
C2638 C2632 1.383 . S
C2638 C2637 1.379 . S
H2639 C2633 0.959 . S
H2640 C2633 0.961 . S
H2641 C2633 0.960 . S
H2642 C2634 0.930 . S
H2643 C2635 0.929 . S
H2644 C2652 0.929 . S
H2645 C2654 0.930 . S
H2646 C2656 0.930 . S
H2647 C2659 0.929 . S
H2648 C2662 0.930 . S
H2649 C2664 0.960 . S
H2650 C2664 0.960 . S
H2651 C2664 0.960 . S
C2652 H2644 0.929 . S
C2652 C2653 1.377 . S
C2652 C2654 1.384 . S
C2653 C2652 1.377 . S
C2653 C2659 1.390 . S
C2654 H2645 0.930 . S
C2654 C2652 1.384 . S
C2654 C2655 1.372 . S
C2655 C2654 1.372 . S
C2655 C2656 1.400 . S
C2655 C2660 1.490 . S
C2656 H2646 0.930 . S
C2656 C2655 1.400 . S
C2656 C2659 1.386 . S
H2657 C2673 0.930 . S
H2658 C2674 0.931 . S
C2659 H2647 0.929 . S
C2659 C2653 1.390 . S
C2659 C2656 1.386 . S
C2660 C2655 1.490 . S
C2660 C2662 1.395 . S
C2660 C2663 1.403 . S
H2661 C2667 0.930 . S
C2662 H2648 0.930 . S
C2662 C2660 1.395 . S
C2662 C2665 1.403 . S
C2663 C2660 1.403 . S
C2663 C2664 1.524 . S
C2663 C2667 1.400 . S
C2664 H2649 0.960 . S
C2664 H2650 0.960 . S
C2664 H2651 0.960 . S
C2664 C2663 1.524 . S
C2665 C2662 1.403 . S
C2665 C2666 1.392 . S
C2665 C2669 1.495 . S
C2666 C2665 1.392 . S
C2666 C2667 1.385 . S
C2666 C2668 1.478 . S
C2667 H2661 0.930 . S
C2667 C2663 1.400 . S
C2667 C2666 1.385 . S
C2668 C2666 1.478 . S
C2668 C2670 1.381 . S
C2668 C2674 1.383 . S
C2669 C2665 1.495 . S
C2669 H2675 0.959 . S
C2669 H2676 0.961 . S
C2669 H2677 0.960 . S
C2670 C2668 1.381 . S
C2670 C2671 1.394 . S
C2670 H2678 0.930 . S
C2671 C2670 1.394 . S
C2671 C2672 1.383 . S
C2671 H2679 0.929 . S
C2672 C2671 1.383 . S
C2672 C2673 1.377 . S
C2673 H2657 0.930 . S
C2673 C2672 1.377 . S
C2673 C2674 1.379 . S
C2674 H2658 0.931 . S
C2674 C2668 1.383 . S
C2674 C2673 1.379 . S
H2675 C2669 0.959 . S
H2676 C2669 0.961 . S
H2677 C2669 0.960 . S
H2678 C2670 0.930 . S
H2679 C2671 0.929 . S
H2680 C2688 0.929 . S
H2681 C2690 0.930 . S
H2682 C2692 0.930 . S
H2683 C2695 0.929 . S
H2684 C2698 0.930 . S
H2685 C2700 0.960 . S
H2686 C2700 0.960 . S
H2687 C2700 0.960 . S
C2688 H2680 0.929 . S
C2688 C2689 1.377 . S
C2688 C2690 1.384 . S
C2689 C2688 1.377 . S
C2689 C2695 1.390 . S
C2690 H2681 0.930 . S
C2690 C2688 1.384 . S
C2690 C2691 1.372 . S
C2691 C2690 1.372 . S
C2691 C2692 1.400 . S
C2691 C2696 1.490 . S
C2692 H2682 0.930 . S
C2692 C2691 1.400 . S
C2692 C2695 1.386 . S
H2693 C2709 0.930 . S
H2694 C2710 0.931 . S
C2695 H2683 0.929 . S
C2695 C2689 1.390 . S
C2695 C2692 1.386 . S
C2696 C2691 1.490 . S
C2696 C2698 1.395 . S
C2696 C2699 1.403 . S
H2697 C2703 0.930 . S
C2698 H2684 0.930 . S
C2698 C2696 1.395 . S
C2698 C2701 1.403 . S
C2699 C2696 1.403 . S
C2699 C2700 1.524 . S
C2699 C2703 1.400 . S
C2700 H2685 0.960 . S
C2700 H2686 0.960 . S
C2700 H2687 0.960 . S
C2700 C2699 1.524 . S
C2701 C2698 1.403 . S
C2701 C2702 1.392 . S
C2701 C2705 1.495 . S
C2702 C2701 1.392 . S
C2702 C2703 1.385 . S
C2702 C2704 1.478 . S
C2703 H2697 0.930 . S
C2703 C2699 1.400 . S
C2703 C2702 1.385 . S
C2704 C2702 1.478 . S
C2704 C2706 1.381 . S
C2704 C2710 1.383 . S
C2705 C2701 1.495 . S
C2705 H2711 0.959 . S
C2705 H2712 0.961 . S
C2705 H2713 0.960 . S
C2706 C2704 1.381 . S
C2706 C2707 1.394 . S
C2706 H2714 0.930 . S
C2707 C2706 1.394 . S
C2707 C2708 1.383 . S
C2707 H2715 0.929 . S
C2708 C2707 1.383 . S
C2708 C2709 1.377 . S
C2709 H2693 0.930 . S
C2709 C2708 1.377 . S
C2709 C2710 1.379 . S
C2710 H2694 0.931 . S
C2710 C2704 1.383 . S
C2710 C2709 1.379 . S
H2711 C2705 0.959 . S
H2712 C2705 0.961 . S
H2713 C2705 0.960 . S
H2714 C2706 0.930 . S
H2715 C2707 0.929 . S
H2716 C2724 0.929 . S
H2717 C2726 0.930 . S
H2718 C2728 0.930 . S
H2719 C2731 0.929 . S
H2720 C2734 0.930 . S
H2721 C2736 0.960 . S
H2722 C2736 0.960 . S
H2723 C2736 0.960 . S
C2724 H2716 0.929 . S
C2724 C2725 1.377 . S
C2724 C2726 1.384 . S
C2725 C2724 1.377 . S
C2725 C2731 1.390 . S
C2726 H2717 0.930 . S
C2726 C2724 1.384 . S
C2726 C2727 1.372 . S
C2727 C2726 1.372 . S
C2727 C2728 1.400 . S
C2727 C2732 1.490 . S
C2728 H2718 0.930 . S
C2728 C2727 1.400 . S
C2728 C2731 1.386 . S
H2729 C2745 0.930 . S
H2730 C2746 0.931 . S
C2731 H2719 0.929 . S
C2731 C2725 1.390 . S
C2731 C2728 1.386 . S
C2732 C2727 1.490 . S
C2732 C2734 1.395 . S
C2732 C2735 1.403 . S
H2733 C2739 0.930 . S
C2734 H2720 0.930 . S
C2734 C2732 1.395 . S
C2734 C2737 1.403 . S
C2735 C2732 1.403 . S
C2735 C2736 1.524 . S
C2735 C2739 1.400 . S
C2736 H2721 0.960 . S
C2736 H2722 0.960 . S
C2736 H2723 0.960 . S
C2736 C2735 1.524 . S
C2737 C2734 1.403 . S
C2737 C2738 1.392 . S
C2737 C2741 1.495 . S
C2738 C2737 1.392 . S
C2738 C2739 1.385 . S
C2738 C2740 1.478 . S
C2739 H2733 0.930 . S
C2739 C2735 1.400 . S
C2739 C2738 1.385 . S
C2740 C2738 1.478 . S
C2740 C2742 1.381 . S
C2740 C2746 1.383 . S
C2741 C2737 1.495 . S
C2741 H2747 0.959 . S
C2741 H2748 0.961 . S
C2741 H2749 0.960 . S
C2742 C2740 1.381 . S
C2742 C2743 1.394 . S
C2742 H2750 0.930 . S
C2743 C2742 1.394 . S
C2743 C2744 1.383 . S
C2743 H2751 0.929 . S
C2744 C2743 1.383 . S
C2744 C2745 1.377 . S
C2745 H2729 0.930 . S
C2745 C2744 1.377 . S
C2745 C2746 1.379 . S
C2746 H2730 0.931 . S
C2746 C2740 1.383 . S
C2746 C2745 1.379 . S
H2747 C2741 0.959 . S
H2748 C2741 0.961 . S
H2749 C2741 0.960 . S
H2750 C2742 0.930 . S
H2751 C2743 0.929 . S
C457 C385 1.253 . S
C476 C8 1.172 . S
C493 C21 1.097 1_655 S
C512 C119 1.109 . S
C529 C357 1.253 . S
C548 C36 1.187 . S
C565 C49 1.099 . S
C584 C147 1.108 . S
C601 C64 1.195 . S
C620 C413 1.254 . S
C637 C77 1.101 . S
C656 C203 1.100 . S
C673 C92 1.191 . S
C692 C441 1.252 . S
C709 C105 1.095 1_655 S
C728 C175 1.104 . S
C745 C274 1.125 . S
C764 C120 1.108 . S
C781 C7 1.065 . S
C800 C134 0.974 . S
C817 C246 1.139 . S
C836 C148 1.115 . S
C853 C162 1.027 . S
C872 C35 1.054 . S
C889 C302 1.135 . S
C908 C176 1.160 . S
C925 C91 1.065 . S
C944 C190 0.984 . S
C961 C204 1.129 . S
C980 C330 1.121 . S
C997 C63 1.065 . S
C1016 C218 1.001 . S
C1033 C232 1.194 . S
C1052 C161 1.253 . S
C1069 C245 1.100 . S
C1088 C343 1.108 . S
C1105 C133 1.255 . S
C1124 C260 1.229 . S
C1141 C371 1.105 . S
C1160 C273 1.111 1_455 S
C1177 C189 1.254 . S
C1196 C288 1.226 . S
C1213 C427 1.107 . S
C1232 C301 1.091 1_455 S
C1249 C217 1.255 . S
C1268 C316 1.220 . S
C1285 C329 1.099 . S
C1304 C399 1.100 . S
C1321 C50 1.139 . S
C1340 C344 1.122 . S
C1357 C358 1.013 . S
C1376 C231 1.065 . S
C1393 C372 1.132 . S
C1412 C22 1.147 . S
C1429 C386 1.023 . S
C1448 C259 1.061 . S
C1465 C400 1.117 . S
C1484 C78 1.095 . S
C1501 C414 1.011 . S
C1520 C315 1.069 . S
C1537 C428 1.127 . S
C1556 C106 1.167 . S
C1573 C442 1.029 . S
C1592 C287 1.055 . S
C1609 C349 1.385 . S
C1628 C13 1.388 . S
C1645 C25 1.503 . S
C1664 C139 1.437 . S
C1681 C377 1.381 . S
C1700 C41 1.348 . S
C1717 C53 1.505 . S
C1736 C167 1.451 . S
C1753 C405 1.371 . S
C1772 C69 1.373 . S
C1789 C81 1.497 . S
C1808 C195 1.378 . S
C1825 C433 1.382 . S
C1844 C97 1.353 . S
C1861 C109 1.503 . S
C1880 C223 1.447 . S
C1897 C125 1.370 . S
C1916 C237 1.357 . S
C1933 C153 1.377 . S
C1952 C265 1.403 . S
C1969 C181 1.377 . S
C1988 C293 1.337 . S
C2005 C209 1.382 . S
C2024 C321 1.408 . S
C2041 C249 1.501 . S
C2060 C363 1.411 . S
C2077 C391 1.412 . S
C2096 C277 1.486 . S
C2113 C419 1.410 . S
C2132 C305 1.481 . S
C2149 C333 1.501 . S
C2168 C447 1.416 . S
C2185 C11 1.107 . S
C2204 C83 1.065 . S
C2221 C27 1.075 . S
C2240 C95 1.115 . S
C2257 C39 1.100 . S
C2276 C111 1.089 . S
C2293 C67 1.100 . S
C2312 C55 1.091 . S
C2329 C123 1.125 . S
C2348 C193 1.141 . S
C2365 C137 1.123 . S
C2384 C207 1.102 . S
C2401 C151 1.123 . S
C2420 C221 1.099 . S
C2437 C165 1.129 . S
C2456 C179 1.091 . S
C2473 C235 1.107 . S
C2492 C307 1.055 . S
C2509 C319 1.097 . S
C2528 C251 1.054 . S
C2545 C263 1.105 . S
C2564 C335 1.039 . S
C2581 C279 1.059 . S
C2600 C291 1.075 . S
C2617 C417 1.122 . S
C2636 C347 1.107 . S
C2653 C361 1.125 . S
C2672 C431 1.148 . S
C2689 C445 1.130 . S
C2708 C375 1.132 . S
C2725 C389 1.124 . S
C2744 C403 1.147 . S
