# Generated by pormake.
# Topology ukf, (4)-cn, num edge types: 1
# Building blocks:
#     Node 0, Type 0, BuildingBlock: AZAVOO_clean_sbu_0, # of connection points: 4
#     Node 1, Type 0, BuildingBlock: AZAVOO_clean_sbu_0, # of connection points: 4
#     Node 2, Type 0, BuildingBlock: AZAVOO_clean_sbu_0, # of connection points: 4
#     Node 3, Type 0, BuildingBlock: AZAVOO_clean_sbu_0, # of connection points: 4
#     Node 4, Type 0, BuildingBlock: AZAVOO_clean_sbu_0, # of connection points: 4
#     Node 5, Type 0, BuildingBlock: AZAVOO_clean_sbu_0, # of connection points: 4
#     Node 6, Type 0, BuildingBlock: AZAVOO_clean_sbu_0, # of connection points: 4
#     Node 7, Type 0, BuildingBlock: AZAVOO_clean_sbu_0, # of connection points: 4
#     Node 8, Type 0, BuildingBlock: AZAVOO_clean_sbu_0, # of connection points: 4
#     Node 9, Type 0, BuildingBlock: AZAVOO_clean_sbu_0, # of connection points: 4
#     Node 10, Type 0, BuildingBlock: AZAVOO_clean_sbu_0, # of connection points: 4
#     Node 11, Type 0, BuildingBlock: AZAVOO_clean_sbu_0, # of connection points: 4
#     Edge 12, Type (0, 0), BuildingBlock: KIFKEQ_clean_linker_1, # of connection points: 2
#     Edge 13, Type (0, 0), BuildingBlock: KIFKEQ_clean_linker_1, # of connection points: 2
#     Edge 14, Type (0, 0), BuildingBlock: KIFKEQ_clean_linker_1, # of connection points: 2
#     Edge 15, Type (0, 0), BuildingBlock: KIFKEQ_clean_linker_1, # of connection points: 2
#     Edge 16, Type (0, 0), BuildingBlock: KIFKEQ_clean_linker_1, # of connection points: 2
#     Edge 17, Type (0, 0), BuildingBlock: KIFKEQ_clean_linker_1, # of connection points: 2
#     Edge 18, Type (0, 0), BuildingBlock: KIFKEQ_clean_linker_1, # of connection points: 2
#     Edge 19, Type (0, 0), BuildingBlock: KIFKEQ_clean_linker_1, # of connection points: 2
#     Edge 20, Type (0, 0), BuildingBlock: KIFKEQ_clean_linker_1, # of connection points: 2
#     Edge 21, Type (0, 0), BuildingBlock: KIFKEQ_clean_linker_1, # of connection points: 2
#     Edge 22, Type (0, 0), BuildingBlock: KIFKEQ_clean_linker_1, # of connection points: 2
#     Edge 23, Type (0, 0), BuildingBlock: KIFKEQ_clean_linker_1, # of connection points: 2
#     Edge 24, Type (0, 0), BuildingBlock: KIFKEQ_clean_linker_1, # of connection points: 2
#     Edge 25, Type (0, 0), BuildingBlock: KIFKEQ_clean_linker_1, # of connection points: 2
#     Edge 26, Type (0, 0), BuildingBlock: KIFKEQ_clean_linker_1, # of connection points: 2
#     Edge 27, Type (0, 0), BuildingBlock: KIFKEQ_clean_linker_1, # of connection points: 2
#     Edge 28, Type (0, 0), BuildingBlock: KIFKEQ_clean_linker_1, # of connection points: 2
#     Edge 29, Type (0, 0), BuildingBlock: KIFKEQ_clean_linker_1, # of connection points: 2
#     Edge 30, Type (0, 0), BuildingBlock: KIFKEQ_clean_linker_1, # of connection points: 2
#     Edge 31, Type (0, 0), BuildingBlock: KIFKEQ_clean_linker_1, # of connection points: 2
#     Edge 32, Type (0, 0), BuildingBlock: KIFKEQ_clean_linker_1, # of connection points: 2
#     Edge 33, Type (0, 0), BuildingBlock: KIFKEQ_clean_linker_1, # of connection points: 2
#     Edge 34, Type (0, 0), BuildingBlock: KIFKEQ_clean_linker_1, # of connection points: 2
#     Edge 35, Type (0, 0), BuildingBlock: KIFKEQ_clean_linker_1, # of connection points: 2
# Relax obj value: 0.209
# Max RMSD: 0.201
# Mean RMSD: 0.201
data_MOF--net-ukf--node1-AZAVOO_clean_sbu_0--edge1-KIFKEQ_clean_linker_1
_symmetry_space_group_name_H-M    P1
_symmetry_Int_Tables_number       1
_symmetry_cell_setting            triclinic
loop_
_symmetry_equiv_pos_as_xyz
'x, y, z'
_cell_length_a     32.526744
_cell_length_b     32.568002
_cell_length_c     64.600353
_cell_angle_alpha  89.779286
_cell_angle_beta   90.112544
_cell_angle_gamma 120.03472
loop_
_atom_site_label
_atom_site_type_symbol
_atom_site_fract_x
_atom_site_fract_y
_atom_site_fract_z
_atom_type_partial_charge
Mg0 Mg 0.40145 0.26376 0.04986 0.0
O1 O 0.47543 0.27886 0.03985 0.0
O2 O 0.52868 0.35059 0.05161 0.0
Mg3 Mg 0.48881 0.38049 0.0695 0.0
C4 C 0.51822 0.3128 0.04164 0.0
C5 C 0.33035 0.16893 0.03146 0.0
O6 O 0.31105 0.19549 0.02825 0.0
O7 O 0.41534 0.24901 0.08298 0.0
O8 O 0.46608 0.32209 0.09428 0.0
O9 O 0.39751 0.29936 0.02085 0.0
O10 O 0.42551 0.33553 0.05088 0.0
C11 C 0.44073 0.27739 0.09731 0.0
C12 C 0.41845 0.33816 0.03145 0.0
O13 O 0.36999 0.18678 0.04078 0.0
Mg14 Mg 0.12165 0.38181 0.38261 0.0
O15 O 0.17359 0.45974 0.37502 0.0
O16 O 0.13898 0.50249 0.38224 0.0
Mg17 Mg 0.06759 0.45205 0.39775 0.0
C18 C 0.17382 0.49903 0.37526 0.0
C19 C 0.1689 0.3312 0.36399 0.0
O20 O 0.12551 0.30914 0.35651 0.0
O21 O 0.14042 0.39668 0.41678 0.0
O22 O 0.10543 0.43859 0.425 0.0
O23 O 0.08936 0.37528 0.35143 0.0
O24 O 0.06436 0.39296 0.38013 0.0
C25 C 0.12975 0.41904 0.42995 0.0
C26 C 0.06207 0.38821 0.36032 0.0
O27 O 0.18027 0.36487 0.3767 0.0
Mg28 Mg 0.71927 0.11154 0.71489 0.0
O29 O 0.69944 0.16707 0.70551 0.0
O30 O 0.62504 0.14311 0.7153 0.0
Mg31 Mg 0.59888 0.07294 0.73293 0.0
C32 C 0.66358 0.17301 0.70634 0.0
C33 C 0.81747 0.15515 0.69334 0.0
O34 O 0.79471 0.11395 0.68396 0.0
O35 O 0.72942 0.13662 0.74837 0.0
O36 O 0.65466 0.11038 0.75857 0.0
O37 O 0.68675 0.07482 0.68509 0.0
O38 O 0.64822 0.05921 0.71494 0.0
C39 C 0.69925 0.13145 0.76225 0.0
C40 C 0.64725 0.05286 0.69527 0.0
O41 O 0.79615 0.16487 0.70724 0.0
Mg42 Mg 0.59066 0.74514 0.06301 0.0
O43 O 0.51671 0.72686 0.05168 0.0
O44 O 0.46517 0.65304 0.06189 0.0
Mg45 Mg 0.50625 0.62551 0.08081 0.0
C46 C 0.47469 0.69122 0.05234 0.0
C47 C 0.65924 0.83927 0.04485 0.0
O48 O 0.67928 0.81301 0.04316 0.0
O49 O 0.57291 0.75667 0.09592 0.0
O50 O 0.52406 0.68184 0.10598 0.0
O51 O 0.59891 0.71259 0.03416 0.0
O52 O 0.57119 0.67414 0.06385 0.0
C53 C 0.5472 0.72635 0.10969 0.0
C54 C 0.58024 0.67328 0.04453 0.0
O55 O 0.61915 0.82175 0.05376 0.0
Mg56 Mg 0.85836 0.58346 0.37347 0.0
O57 O 0.80178 0.50761 0.3649 0.0
O58 O 0.82817 0.45872 0.37417 0.0
Mg59 Mg 0.90072 0.50352 0.38974 0.0
C60 C 0.7967 0.46615 0.36596 0.0
C61 C 0.82399 0.64829 0.35746 0.0
O62 O 0.86921 0.66967 0.35246 0.0
O63 O 0.83682 0.56847 0.40753 0.0
O64 O 0.86624 0.52187 0.41654 0.0
O65 O 0.89231 0.58874 0.34277 0.0
O66 O 0.91079 0.5654 0.37187 0.0
C67 C 0.84472 0.54446 0.42105 0.0
C68 C 0.91557 0.57154 0.35216 0.0
O69 O 0.80614 0.60901 0.3671 0.0
Mg70 Mg 0.24202 0.86683 0.72033 0.0
O71 O 0.2611 0.81032 0.71206 0.0
O72 O 0.33575 0.83453 0.72156 0.0
Mg73 Mg 0.36277 0.90567 0.73821 0.0
C74 C 0.29679 0.80416 0.71307 0.0
C75 C 0.15636 0.79465 0.69465 0.0
O76 O 0.19198 0.80441 0.68217 0.0
O77 O 0.23185 0.843 0.7542 0.0
O78 O 0.30703 0.86977 0.76397 0.0
O79 O 0.27419 0.90213 0.69021 0.0
O80 O 0.31341 0.91886 0.71991 0.0
C81 C 0.26261 0.849 0.76799 0.0
C82 C 0.31396 0.92429 0.70017 0.0
O83 O 0.165 0.81445 0.7123 0.0
Mg84 Mg 0.73341 0.55935 0.61406 0.0
O85 O 0.7114 0.48427 0.6251 0.0
O86 O 0.63995 0.43435 0.61197 0.0
Mg87 Mg 0.61692 0.47777 0.59199 0.0
C88 C 0.67576 0.44257 0.62311 0.0
C89 C 0.82415 0.62256 0.63741 0.0
O90 O 0.79709 0.64116 0.64086 0.0
O91 O 0.75099 0.54402 0.58165 0.0
O92 O 0.67791 0.4977 0.56903 0.0
O93 O 0.69462 0.5668 0.64119 0.0
O94 O 0.66319 0.54096 0.61026 0.0
C95 C 0.72302 0.52041 0.56683 0.0
C96 C 0.65793 0.54969 0.62914 0.0
O97 O 0.80831 0.58606 0.62599 0.0
Mg98 Mg 0.14159 0.73743 0.9619 0.0
O99 O 0.20238 0.72413 0.97086 0.0
O100 O 0.185 0.65355 0.95812 0.0
Mg101 Mg 0.11364 0.62203 0.94123 0.0
C102 C 0.21219 0.69108 0.96832 0.0
C103 C 0.16386 0.8315 0.98055 0.0
O104 O 0.11815 0.80407 0.98394 0.0
O105 O 0.16765 0.75332 0.92842 0.0
O106 O 0.14532 0.6808 0.91646 0.0
O107 O 0.10411 0.70079 0.99114 0.0
O108 O 0.09536 0.66535 0.96089 0.0
C109 C 0.16354 0.72545 0.91368 0.0
C110 C 0.08669 0.66217 0.98043 0.0
O111 O 0.1861 0.81451 0.97104 0.0
Mg112 Mg 0.39468 0.13784 0.28977 0.0
O113 O 0.47179 0.1902 0.29845 0.0
O114 O 0.51745 0.16138 0.28759 0.0
Mg115 Mg 0.46884 0.09098 0.2711 0.0
C116 C 0.5123 0.19323 0.29675 0.0
C117 C 0.38147 0.21056 0.31564 0.0
O118 O 0.40418 0.19898 0.32917 0.0
O119 O 0.40969 0.16233 0.25615 0.0
O120 O 0.45246 0.13005 0.24537 0.0
O121 O 0.38725 0.10004 0.31957 0.0
O122 O 0.40851 0.08237 0.28981 0.0
C123 C 0.43184 0.15409 0.24194 0.0
C124 C 0.40196 0.0756 0.30946 0.0
O125 O 0.37382 0.19272 0.29761 0.0
Mg126 Mg 0.2459 0.42128 0.6239 0.0
O127 O 0.25807 0.49424 0.63419 0.0
O128 O 0.3271 0.54873 0.62028 0.0
Mg129 Mg 0.35968 0.51184 0.60218 0.0
C130 C 0.29041 0.53744 0.63135 0.0
C131 C 0.156 0.38377 0.65214 0.0
O132 O 0.18894 0.4058 0.66626 0.0
O133 O 0.22779 0.43307 0.59091 0.0
O134 O 0.2995 0.48439 0.57829 0.0
O135 O 0.28539 0.41859 0.65212 0.0
O136 O 0.31826 0.44969 0.62187 0.0
C137 C 0.25475 0.45758 0.57598 0.0
C138 C 0.32324 0.44236 0.64102 0.0
O139 O 0.1683 0.38507 0.63338 0.0
Mg140 Mg 0.84188 0.24944 0.95321 0.0
O141 O 0.78648 0.2692 0.96309 0.0
O142 O 0.80801 0.34093 0.95027 0.0
Mg143 Mg 0.876 0.36565 0.93127 0.0
C144 C 0.77983 0.30442 0.96091 0.0
C145 C 0.81749 0.15966 0.97541 0.0
O146 O 0.86356 0.18751 0.97757 0.0
O147 O 0.81091 0.23222 0.92053 0.0
O148 O 0.83637 0.3051 0.90793 0.0
O149 O 0.88426 0.28702 0.98115 0.0
O150 O 0.89314 0.3202 0.95024 0.0
C151 C 0.81482 0.26007 0.9057 0.0
C152 C 0.90431 0.32446 0.96955 0.0
O153 O 0.79456 0.17439 0.96477 0.0
Mg154 Mg 0.57375 0.84287 0.30461 0.0
O155 O 0.49644 0.78578 0.31144 0.0
O156 O 0.44995 0.81448 0.30107 0.0
Mg157 Mg 0.49667 0.8865 0.28551 0.0
C158 C 0.45561 0.78213 0.30953 0.0
C159 C 0.63952 0.81196 0.32173 0.0
O160 O 0.65919 0.85744 0.32582 0.0
O161 O 0.56337 0.8222 0.27047 0.0
O162 O 0.51812 0.85198 0.25981 0.0
O163 O 0.57556 0.8766 0.33503 0.0
O164 O 0.55545 0.89506 0.30508 0.0
C165 C 0.54114 0.83044 0.25621 0.0
C166 C 0.55948 0.89989 0.32484 0.0
O167 O 0.59998 0.79175 0.31227 0.0
H168 H 0.12571 0.87787 1.0008 0.0
H169 H 0.25845 0.897 0.97713 0.0
H170 H 0.16657 0.95917 0.01333 0.0
H171 H 0.29921 0.97878 0.98943 0.0
H172 H 0.36149 0.10509 0.03456 0.0
H173 H 0.32155 0.02331 0.02227 0.0
H174 H 0.20588 0.03963 0.99903 0.0
H175 H 0.24525 0.12092 0.01156 0.0
C176 C 0.16359 0.89947 0.9982 0.0
C177 C 0.18884 0.88102 0.98795 0.0
C178 C 0.18694 0.94614 0.00529 0.0
C179 C 0.23606 0.97538 1.00232 0.0
C180 C 0.2614 0.95691 0.99213 0.0
C181 C 0.238 0.91019 0.98499 0.0
C182 C 0.32751 0.09118 0.02686 0.0
C183 C 0.30646 0.11942 0.02408 0.0
C184 C 0.3048 0.04446 0.01971 0.0
C185 C 0.26057 0.02507 0.00972 0.0
C186 C 0.23964 0.05339 0.00693 0.0
C187 C 0.26234 0.10005 0.01402 0.0
H188 H 0.15533 0.26398 0.33569 0.0
H189 H 0.26161 0.36852 0.37634 0.0
H190 H 0.2123 0.24201 0.32363 0.0
H191 H 0.31917 0.34668 0.36397 0.0
H192 H 0.37949 0.24319 0.35439 0.0
H193 H 0.33187 0.27758 0.3659 0.0
H194 H 0.28528 0.27512 0.30302 0.0
H195 H 0.3321 0.24006 0.29154 0.0
C196 C 0.19094 0.28243 0.34202 0.0
C197 C 0.20392 0.31797 0.35699 0.0
C198 C 0.22375 0.2701 0.33495 0.0
C199 C 0.27036 0.29296 0.3427 0.0
C200 C 0.28343 0.32838 0.35777 0.0
C201 C 0.25053 0.3409 0.36482 0.0
C202 C 0.35966 0.25065 0.34297 0.0
C203 C 0.35896 0.23819 0.3221 0.0
C204 C 0.33254 0.27053 0.34956 0.0
C205 C 0.30428 0.27832 0.33541 0.0
C206 C 0.30593 0.26856 0.31435 0.0
C207 C 0.33296 0.2487 0.30777 0.0
H208 H 0.87391 0.24421 0.70904 0.0
H209 H 0.87288 0.14511 0.66443 0.0
H210 H 0.95498 0.30208 0.69892 0.0
H211 H 0.95405 0.20257 0.65461 0.0
H212 H 0.08001 0.33203 0.62682 0.0
H213 H -0.00212 0.27873 0.63685 0.0
H214 H 0.03561 0.31423 0.70109 0.0
H215 H 0.11779 0.3683 0.69105 0.0
C216 C 0.89101 0.23469 0.69714 0.0
C217 C 0.86691 0.19006 0.68752 0.0
C218 C 0.93753 0.26779 0.69141 0.0
C219 C 0.96087 0.25699 0.67591 0.0
C220 C 0.93678 0.21229 0.66637 0.0
C221 C 0.89034 0.17921 0.6721 0.0
C222 C 0.07079 0.3288 0.64308 0.0
C223 C 0.10553 0.35423 0.65815 0.0
C224 C 0.02375 0.29798 0.64883 0.0
C225 C 0.01032 0.29189 0.66978 0.0
C226 C 0.04476 0.31838 0.68481 0.0
C227 C 0.09189 0.34922 0.67906 0.0
H228 H 0.626 0.9018 0.04364 0.0
H229 H 0.74375 0.8845 0.02455 0.0
H230 H 0.6635 0.97989 0.02706 0.0
H231 H 0.78045 0.96163 0.00775 0.0
H232 H 0.85756 0.12094 0.99979 0.0
H233 H 0.81851 0.04465 0.01733 0.0
H234 H 0.68357 0.01573 0.99203 0.0
H235 H 0.72267 0.09296 0.97468 0.0
C236 C 0.65984 0.91465 0.03594 0.0
C237 C 0.682 0.88707 0.03547 0.0
C238 C 0.68111 0.95917 0.02633 0.0
C239 C 0.72494 0.97689 0.01614 0.0
C240 C 0.74701 0.94927 0.01574 0.0
C241 C 0.72584 0.90493 0.02531 0.0
C242 C 0.81956 0.0984 0.99792 0.0
C243 C 0.79323 0.1129 0.98576 0.0
C244 C 0.79721 0.05456 0.00793 0.0
C245 C 0.74801 0.02409 0.00598 0.0
C246 C 0.72149 0.03868 0.99397 0.0
C247 C 0.74392 0.0827 0.98392 0.0
H248 H 0.72524 0.84733 0.34076 0.0
H249 H 0.60952 0.71753 0.31603 0.0
H250 H 0.76765 0.80592 0.34959 0.0
H251 H 0.65262 0.67603 0.32475 0.0
H252 H 0.72864 0.61258 0.36394 0.0
H253 H 0.68198 0.6505 0.35551 0.0
H254 H 0.80731 0.77081 0.3301 0.0
H255 H 0.85386 0.73351 0.33865 0.0
C256 C 0.70879 0.80991 0.3372 0.0
C257 C 0.6641 0.78578 0.32758 0.0
C258 C 0.73326 0.78625 0.34218 0.0
C259 C 0.71365 0.73785 0.3377 0.0
C260 C 0.66848 0.71331 0.32848 0.0
C261 C 0.64396 0.73711 0.3234 0.0
C262 C 0.74615 0.64711 0.35654 0.0
C263 C 0.79501 0.67017 0.35208 0.0
C264 C 0.71939 0.66865 0.35162 0.0
C265 C 0.74108 0.71373 0.34228 0.0
C266 C 0.78975 0.73639 0.3376 0.0
C267 C 0.81638 0.71486 0.34241 0.0
H268 H 0.89004 0.59398 0.63348 0.0
H269 H 0.8666 0.69998 0.66243 0.0
H270 H 0.96946 0.63088 0.64869 0.0
H271 H 0.94588 0.73712 0.67723 0.0
H272 H 0.07431 0.77022 0.71572 0.0
H273 H -0.00692 0.72423 0.70292 0.0
H274 H 0.04554 0.70427 0.64463 0.0
H275 H 0.1266 0.74935 0.65754 0.0
C276 C 0.9018 0.6251 0.64307 0.0
C277 C 0.87206 0.64411 0.64671 0.0
C278 C 0.94732 0.64631 0.65172 0.0
C279 C 0.96391 0.68686 0.66421 0.0
C280 C 0.93392 0.70549 0.66797 0.0
C281 C 0.88856 0.68437 0.65933 0.0
C282 C 0.06848 0.75564 0.70025 0.0
C283 C 0.10693 0.76379 0.68758 0.0
C284 C 0.02196 0.7295 0.69288 0.0
C285 C 0.0129 0.71094 0.6727 0.0
C286 C 0.05127 0.71772 0.66031 0.0
C287 C 0.09778 0.74385 0.66767 0.0
H288 H 0.7579 0.37531 0.96292 0.0
H289 H 0.71075 0.23246 0.98418 0.0
H290 H 0.69442 0.37593 0.9826 0.0
H291 H 0.6477 0.23351 0.00408 0.0
H292 H 0.61215 0.38071 0.03873 0.0
H293 H 0.67414 0.37738 0.01906 0.0
H294 H 0.57335 0.235 0.99952 0.0
H295 H 0.51126 0.23791 0.01945 0.0
C296 C 0.73396 0.34397 0.97171 0.0
C297 C 0.73958 0.30387 0.97196 0.0
C298 C 0.69777 0.34448 0.98313 0.0
C299 C 0.66622 0.30489 0.99502 0.0
C300 C 0.6712 0.26445 0.99496 0.0
C301 C 0.70751 0.26396 0.9836 0.0
C302 C 0.60315 0.3485 0.03039 0.0
C303 C 0.55659 0.30958 0.03069 0.0
C304 C 0.63867 0.34678 0.01895 0.0
C305 C 0.6286 0.30607 0.00759 0.0
C306 C 0.58233 0.26677 0.00822 0.0
C307 C 0.54671 0.26853 0.01961 0.0
H308 H 0.17452 0.57314 0.35521 0.0
H309 H 0.26604 0.51989 0.37483 0.0
H310 H 0.24149 0.64024 0.33844 0.0
H311 H 0.33392 0.58853 0.35938 0.0
H312 H 0.44026 0.69202 0.31361 0.0
H313 H 0.37173 0.62369 0.32898 0.0
H314 H 0.31 0.71138 0.34272 0.0
H315 H 0.377 0.7784 0.32606 0.0
C316 C 0.20927 0.57638 0.35625 0.0
C317 C 0.21513 0.54138 0.36632 0.0
C318 C 0.24788 0.61503 0.34672 0.0
C319 C 0.29359 0.62025 0.34744 0.0
C320 C 0.29934 0.58547 0.35796 0.0
C321 C 0.26048 0.54624 0.36704 0.0
C322 C 0.41176 0.69638 0.31981 0.0
C323 C 0.41377 0.74036 0.31852 0.0
C324 C 0.37255 0.65732 0.32883 0.0
C325 C 0.33495 0.66163 0.33729 0.0
C326 C 0.33742 0.706 0.33604 0.0
C327 C 0.37604 0.74468 0.32656 0.0
H328 H 0.74012 0.24492 0.68648 0.0
H329 H 0.59266 0.19447 0.70098 0.0
H330 H 0.74308 0.3095 0.6663 0.0
H331 H 0.59606 0.25991 0.68106 0.0
H332 H 0.74417 0.44629 0.64909 0.0
H333 H 0.74107 0.3825 0.67001 0.0
H334 H 0.60261 0.28527 0.64498 0.0
H335 H 0.60518 0.34927 0.62431 0.0
C336 C 0.70841 0.24782 0.68556 0.0
C337 C 0.6661 0.21435 0.69537 0.0
C338 C 0.71021 0.28506 0.67403 0.0
C339 C 0.66978 0.28983 0.672 0.0
C340 C 0.62766 0.25685 0.68207 0.0
C341 C 0.62584 0.21956 0.69365 0.0
C342 C 0.71309 0.4113 0.64795 0.0
C343 C 0.67492 0.40302 0.63497 0.0
C344 C 0.7114 0.37465 0.65992 0.0
C345 C 0.67153 0.32879 0.65923 0.0
C346 C 0.63354 0.32036 0.64612 0.0
C347 C 0.63522 0.35701 0.63412 0.0
H348 H 0.24061 0.62492 0.96924 0.0
H349 H 0.27823 0.76396 0.9922 0.0
H350 H 0.30457 0.62663 0.9895 0.0
H351 H 0.34191 0.76521 0.01271 0.0
H352 H 0.38247 0.62044 0.04711 0.0
H353 H 0.32107 0.62246 0.02626 0.0
H354 H 0.41882 0.7682 0.0097 0.0
H355 H 0.48025 0.76657 0.03079 0.0
C356 C 0.26267 0.65604 0.97848 0.0
C357 C 0.25405 0.69425 0.9791 0.0
C358 C 0.29912 0.6568 0.99025 0.0
C359 C 0.32799 0.69582 1.0029 0.0
C360 C 0.32044 0.73471 1.00304 0.0
C361 C 0.28383 0.73391 0.99131 0.0
C362 C 0.3909 0.65307 0.03916 0.0
C363 C 0.43643 0.69331 0.04064 0.0
C364 C 0.35576 0.65408 0.02705 0.0
C365 C 0.36518 0.69537 0.01617 0.0
C366 C 0.41034 0.73593 0.01799 0.0
C367 C 0.44559 0.7349 0.03004 0.0
H368 H 0.60488 0.21326 0.29655 0.0
H369 H 0.51461 0.2656 0.31911 0.0
H370 H 0.67297 0.2791 0.31337 0.0
H371 H 0.58247 0.33069 0.33626 0.0
H372 H 0.72363 0.46823 0.34577 0.0
H373 H 0.65567 0.403 0.32872 0.0
H374 H 0.70446 0.30728 0.34774 0.0
H375 H 0.77313 0.37272 0.36443 0.0
C376 C 0.59948 0.23874 0.30508 0.0
C377 C 0.55418 0.23406 0.30642 0.0
C378 C 0.63851 0.27632 0.31487 0.0
C379 C 0.63319 0.31012 0.32624 0.0
C380 C 0.58797 0.30564 0.32744 0.0
C381 C 0.54897 0.26812 0.31765 0.0
C382 C 0.71987 0.43327 0.34641 0.0
C383 C 0.75398 0.42584 0.3565 0.0
C384 C 0.68071 0.39578 0.33669 0.0
C385 C 0.67461 0.34988 0.33681 0.0
C386 C 0.70844 0.34232 0.34708 0.0
C387 C 0.74765 0.37983 0.3568 0.0
H388 H 0.35408 0.63254 0.63023 0.0
H389 H 0.22122 0.52917 0.65825 0.0
H390 H 0.3539 0.69472 0.65079 0.0
H391 H 0.22148 0.59182 0.67905 0.0
H392 H 0.36798 0.7837 0.70702 0.0
H393 H 0.36411 0.71801 0.68746 0.0
H394 H 0.21509 0.66428 0.67561 0.0
H395 H 0.2186 0.72953 0.69538 0.0
C396 C 0.32465 0.623 0.64069 0.0
C397 C 0.28771 0.57567 0.64259 0.0
C398 C 0.32482 0.6587 0.65263 0.0
C399 C 0.28801 0.64812 0.66674 0.0
C400 C 0.25029 0.6011 0.66825 0.0
C401 C 0.25019 0.56521 0.65634 0.0
C402 C 0.33425 0.75766 0.70045 0.0
C403 C 0.29368 0.7621 0.70273 0.0
C404 C 0.33213 0.72021 0.68909 0.0
C405 C 0.28939 0.68622 0.67982 0.0
C406 C 0.24847 0.68974 0.68265 0.0
C407 C 0.2506 0.72731 0.69393 0.0
H408 H 0.47505 0.32779 0.13306 0.0
H409 H 0.40428 0.18457 0.10932 0.0
H410 H 0.47236 0.2975 0.16784 0.0
H411 H 0.40174 0.15438 0.14431 0.0
H412 H 0.45858 0.12884 0.20627 0.0
H413 H 0.46025 0.15787 0.17125 0.0
H414 H 0.40952 0.24875 0.19431 0.0
H415 H 0.40773 0.2198 0.22942 0.0
C416 C 0.45903 0.28983 0.13521 0.0
C417 C 0.43988 0.2586 0.11835 0.0
C418 C 0.45723 0.27252 0.15519 0.0
C419 C 0.4367 0.22362 0.15879 0.0
C420 C 0.41802 0.19231 0.14195 0.0
C421 C 0.41933 0.20959 0.12195 0.0
C422 C 0.44782 0.15507 0.20392 0.0
C423 C 0.43311 0.17207 0.22069 0.0
C424 C 0.44849 0.17141 0.18382 0.0
C425 C 0.435 0.20551 0.18006 0.0
C426 C 0.42046 0.22269 0.19679 0.0
C427 C 0.41926 0.20595 0.21688 0.0
H428 H 0.1976 0.40074 0.44521 0.0
H429 H 0.09885 0.44589 0.46389 0.0
H430 H 0.22598 0.40942 0.48084 0.0
H431 H 0.1273 0.4544 0.49947 0.0
H432 H 0.16074 0.41377 0.56441 0.0
H433 H 0.12886 0.40296 0.52922 0.0
H434 H 0.27144 0.47931 0.50481 0.0
H435 H 0.30335 0.49033 0.53969 0.0
C436 C 0.18179 0.41229 0.4569 0.0
C437 C 0.14612 0.42284 0.45166 0.0
C438 C 0.1982 0.41746 0.47727 0.0
C439 C 0.17891 0.43272 0.49289 0.0
C440 C 0.14257 0.44229 0.48777 0.0
C441 C 0.12655 0.4377 0.46736 0.0
C442 C 0.18525 0.42845 0.55155 0.0
C443 C 0.2346 0.45289 0.55492 0.0
C444 C 0.16699 0.42233 0.53142 0.0
C445 C 0.19773 0.43997 0.5143 0.0
C446 C 0.24693 0.46477 0.5177 0.0
C447 C 0.26514 0.47137 0.53774 0.0
H448 H 0.75455 0.16708 0.89507 0.0
H449 H 0.833 0.30843 0.86917 0.0
H450 H 0.72643 0.13522 0.86039 0.0
H451 H 0.80502 0.27649 0.83474 0.0
H452 H 0.79011 0.19366 0.77484 0.0
H453 H 0.81719 0.22369 0.80977 0.0
H454 H 0.67361 0.14038 0.83246 0.0
H455 H 0.64631 0.11034 0.79762 0.0
C456 C 0.76569 0.19133 0.88204 0.0
C457 C 0.79602 0.2403 0.88493 0.0
C458 C 0.74948 0.17311 0.86222 0.0
C459 C 0.7638 0.2034 0.84489 0.0
C460 C 0.79389 0.25227 0.84779 0.0
C461 C 0.8096 0.27054 0.86757 0.0
C462 C 0.76431 0.18168 0.78727 0.0
C463 C 0.71603 0.14971 0.7834 0.0
C464 C 0.7798 0.19903 0.80724 0.0
C465 C 0.74746 0.18433 0.8238 0.0
C466 C 0.69934 0.15199 0.82001 0.0
C467 C 0.68373 0.13508 0.80001 0.0
H468 H 0.51202 0.67181 0.14445 0.0
H469 H 0.57923 0.8173 0.12325 0.0
H470 H 0.51162 0.69772 0.17968 0.0
H471 H 0.57863 0.8431 0.15872 0.0
H472 H 0.51528 0.8581 0.22087 0.0
H473 H 0.51738 0.83394 0.1854 0.0
H474 H 0.5724 0.7453 0.20712 0.0
H475 H 0.57043 0.76943 0.24272 0.0
C476 C 0.52655 0.70933 0.14725 0.0
C477 C 0.54564 0.74249 0.13096 0.0
C478 C 0.52662 0.72415 0.1675 0.0
C479 C 0.54529 0.7724 0.17195 0.0
C480 C 0.5638 0.80561 0.15569 0.0
C481 C 0.56425 0.79085 0.13541 0.0
C482 C 0.52781 0.83341 0.21814 0.0
C483 C 0.54256 0.81557 0.23468 0.0
C484 C 0.52931 0.81989 0.19778 0.0
C485 C 0.54505 0.78779 0.19351 0.0
C486 C 0.55975 0.76985 0.21 0.0
C487 C 0.5588 0.78382 0.23037 0.0
H488 H 0.81648 0.5572 0.55527 0.0
H489 H 0.67357 0.48805 0.53074 0.0
H490 H 0.84753 0.56436 0.5201 0.0
H491 H 0.70467 0.4955 0.49593 0.0
H492 H 0.78111 0.56925 0.43572 0.0
H493 H 0.75347 0.56365 0.47132 0.0
H494 H 0.84464 0.50989 0.49096 0.0
H495 H 0.87228 0.51527 0.45543 0.0
C496 C 0.79171 0.5433 0.54247 0.0
C497 C 0.74253 0.5221 0.54589 0.0
C498 C 0.80949 0.54736 0.52236 0.0
C499 C 0.77848 0.5309 0.50529 0.0
C500 C 0.72942 0.50915 0.50875 0.0
C501 C 0.71165 0.50456 0.52878 0.0
C502 C 0.79541 0.55641 0.44762 0.0
C503 C 0.82871 0.54248 0.44269 0.0
C504 C 0.77943 0.55301 0.46798 0.0
C505 C 0.79686 0.53621 0.48387 0.0
C506 C 0.83086 0.52324 0.47904 0.0
C507 C 0.84639 0.52605 0.45866 0.0
H508 H 0.14173 0.67586 0.87748 0.0
H509 H 0.21841 0.81851 0.90171 0.0
H510 H 0.16435 0.70689 0.84245 0.0
H511 H 0.24114 0.84944 0.86647 0.0
H512 H 0.31733 0.87375 0.80284 0.0
H513 H 0.29274 0.84514 0.83807 0.0
H514 H 0.14828 0.75726 0.81719 0.0
H515 H 0.17273 0.78597 0.78176 0.0
C516 C 0.16354 0.71385 0.87537 0.0
C517 C 0.17839 0.74471 0.89245 0.0
C518 C 0.17612 0.73159 0.85525 0.0
C519 C 0.20432 0.78054 0.85173 0.0
C520 C 0.21953 0.81148 0.86876 0.0
C521 C 0.20642 0.79378 0.88891 0.0
C522 C 0.28026 0.84837 0.8057 0.0
C523 C 0.247 0.83201 0.78943 0.0
C524 C 0.26619 0.83228 0.82594 0.0
C525 C 0.21865 0.79902 0.83036 0.0
C526 C 0.18526 0.7827 0.81417 0.0
C527 C 0.19922 0.79928 0.79392 0.0
H528 H 0.5271 0.63906 0.00949 0.0
H529 H 0.59722 0.60485 0.05765 0.0
H530 H 0.48901 0.55665 0.99704 0.0
H531 H 0.56101 0.52371 0.04489 0.0
H532 H 0.50739 0.38635 0.0163 0.0
H533 H 0.55351 0.4724 0.01137 0.0
H534 H 0.42661 0.48098 0.02059 0.0
H535 H 0.38086 0.39499 0.02596 0.0
C536 C 0.53561 0.61429 0.01687 0.0
C537 C 0.5649 0.62773 0.03444 0.0
C538 C 0.5139 0.56744 0.00981 0.0
C539 C 0.52258 0.53425 0.0199 0.0
C540 C 0.55443 0.54888 0.03662 0.0
C541 C 0.57489 0.59507 0.044 0.0
C542 C 0.48917 0.40653 0.01636 0.0
C543 C 0.4409 0.38466 0.02147 0.0
C544 C 0.51544 0.45556 0.01353 0.0
C545 C 0.4935 0.48305 0.01568 0.0
C546 C 0.44412 0.46038 0.0186 0.0
C547 C 0.41799 0.41136 0.0217 0.0
H548 H 0.00899 0.60046 0.35232 0.0
H549 H 0.87383 0.49294 0.32841 0.0
H550 H 0.04361 0.55117 0.34388 0.0
H551 H 0.90801 0.44263 0.32047 0.0
H552 H 0.97112 0.36596 0.36567 0.0
H553 H 0.93456 0.41063 0.35273 0.0
H554 H 0.06037 0.49955 0.31679 0.0
H555 H 0.09637 0.45339 0.3293 0.0
C556 C 0.98744 0.56721 0.34431 0.0
C557 C 0.93913 0.55041 0.34079 0.0
C558 C 0.00716 0.53903 0.33944 0.0
C559 C 0.97836 0.49312 0.33156 0.0
C560 C 0.93092 0.47805 0.32639 0.0
C561 C 0.91147 0.50679 0.33084 0.0
C562 C -0.01004 0.39365 0.35427 0.0
C563 C 0.0362 0.40629 0.34834 0.0
C564 C 0.96905 0.41906 0.34678 0.0
C565 C -0.00532 0.4584 0.33372 0.0
C566 C 0.03981 0.46904 0.32667 0.0
C567 C 0.06027 0.44267 0.33377 0.0
H568 H 0.57741 0.96179 0.6991 0.0
H569 H 0.61292 0.0946 0.66974 0.0
H570 H 0.49359 0.93093 0.69095 0.0
H571 H 0.52859 0.06441 0.66222 0.0
H572 H 0.38674 0.01319 0.70589 0.0
H573 H 0.469 0.04413 0.69499 0.0
H574 H 0.42743 0.91497 0.66127 0.0
H575 H 0.34447 0.88476 0.6716 0.0
C576 C 0.56733 0.98349 0.69008 0.0
C577 C 0.60121 0.03013 0.68477 0.0
C578 C 0.51951 0.96593 0.6854 0.0
C579 C 0.50484 -0.00464 0.67594 0.0
C580 C 0.53922 0.04098 0.66933 0.0
C581 C 0.5873 0.0581 0.67353 0.0
C582 C 0.39498 0.99246 0.69538 0.0
C583 C 0.35966 0.94705 0.68935 0.0
C584 C 0.44187 0.01011 0.6891 0.0
C585 C 0.45432 0.98193 0.67722 0.0
C586 C 0.41847 0.93747 0.67022 0.0
C587 C 0.37121 0.92035 0.67605 0.0
H588 H 0.62078 0.5259 0.66851 0.0
H589 H 0.58886 0.54901 0.60605 0.0
H590 H 0.53943 0.50403 0.67917 0.0
H591 H 0.50931 0.52859 0.61669 0.0
H592 H 0.38993 0.53487 0.64063 0.0
H593 H 0.47521 0.56695 0.64422 0.0
H594 H 0.45043 0.42954 0.66375 0.0
H595 H 0.36438 0.39732 0.66022 0.0
C596 C 0.59665 0.52689 0.65721 0.0
C597 C 0.61081 0.53899 0.63647 0.0
C598 C 0.5504 0.51437 0.66327 0.0
C599 C 0.51867 0.51529 0.64876 0.0
C600 C 0.53343 0.52831 0.62821 0.0
C601 C 0.57882 0.53967 0.62211 0.0
C602 C 0.40261 0.51199 0.64643 0.0
C603 C 0.37108 0.46363 0.64983 0.0
C604 C 0.45128 0.53037 0.64859 0.0
C605 C 0.46908 0.50047 0.654 0.0
C606 C 0.43733 0.45325 0.6597 0.0
C607 C 0.38829 0.43484 0.65764 0.0
H608 H -0.0062 0.60797 0.99052 0.0
H609 H 0.12785 0.61107 0.99088 0.0
H610 H 0.95208 0.52173 0.99556 0.0
H611 H 0.08638 0.52498 0.99553 0.0
H612 H 0.9833 0.39379 0.9517 0.0
H613 H 0.03163 0.47555 0.96321 0.0
H614 H 0.94352 0.44427 0.0175 0.0
H615 H 0.89571 0.36113 0.00622 0.0
C616 C 0.01428 0.59035 0.99267 0.0
C617 C 0.06371 0.6155 0.99027 0.0
C618 C -0.00944 0.54121 0.99558 0.0
C619 C 0.01619 0.51702 0.99578 0.0
C620 C 0.06601 0.54302 0.99543 0.0
C621 C 0.08964 0.59207 0.99272 0.0
C622 C 0.97499 0.40412 0.96633 0.0
C623 C 0.93608 0.37158 0.97812 0.0
C624 C 0.00275 0.45068 0.97299 0.0
C625 C -0.00862 0.46583 0.99131 0.0
C626 C 0.95308 0.43304 1.00344 0.0
C627 C 0.92596 0.3858 0.99702 0.0
H628 H 0.59791 -0.00568 0.32968 0.0
H629 H 0.47157 0.85992 0.34118 0.0
H630 H 0.55276 0.03509 0.33475 0.0
H631 H 0.42587 0.90044 0.34564 0.0
H632 H 0.38382 0.98916 0.29734 0.0
H633 H 0.41864 0.94357 0.31112 0.0
H634 H 0.49081 0.04948 0.35829 0.0
H635 H 0.45413 0.09447 0.34485 0.0
C636 C 0.56101 0.9739 0.33435 0.0
C637 C 0.53803 0.92432 0.33522 0.0
C638 C 0.53519 -0.00289 0.33725 0.0
C639 C 0.48592 0.97075 0.3405 0.0
C640 C 0.4639 0.92142 0.34327 0.0
C641 C 0.48996 0.89833 0.34077 0.0
C642 C 0.40588 0.00183 0.31106 0.0
C643 C 0.4164 0.04502 0.32011 0.0
C644 C 0.42549 0.97568 0.31903 0.0
C645 C 0.45703 -0.00704 0.33585 0.0
C646 C 0.46611 0.0353 0.34547 0.0
C647 C 0.44524 0.06088 0.33782 0.0
loop_
_geom_bond_atom_site_label_1
_geom_bond_atom_site_label_2
_geom_bond_distance
_geom_bond_site_symmetry_2
_ccdc_geom_bond_type
Mg0 O1 2.028 . S
Mg0 O7 1.986 . S
Mg0 O9 2.114 . S
Mg0 O10 2.251 . S
Mg0 O13 2.010 . S
O1 Mg0 2.028 . S
O1 C4 1.250 . S
O2 Mg3 2.028 . S
O2 C4 1.248 . S
Mg3 O2 2.028 . S
Mg3 O8 2.032 . S
Mg3 O10 2.079 . S
C4 O1 1.250 . S
C4 O2 1.248 . S
C5 O6 1.264 . S
C5 O13 1.249 . S
O6 C5 1.264 . S
O7 Mg0 1.986 . S
O7 C11 1.246 . S
O8 Mg3 2.032 . S
O8 C11 1.259 . S
O9 Mg0 2.114 . S
O9 C12 1.252 . S
O10 Mg0 2.251 . S
O10 Mg3 2.079 . S
O10 C12 1.273 . S
C11 O7 1.246 . S
C11 O8 1.259 . S
C12 O9 1.252 . S
C12 O10 1.273 . S
O13 Mg0 2.010 . S
O13 C5 1.249 . S
Mg14 O15 2.028 . S
Mg14 O21 1.986 . S
Mg14 O23 2.114 . S
Mg14 O24 2.251 . S
Mg14 O27 2.010 . S
O15 Mg14 2.028 . S
O15 C18 1.250 . S
O16 Mg17 2.028 . S
O16 C18 1.248 . S
Mg17 O16 2.028 . S
Mg17 O22 2.032 . S
Mg17 O24 2.079 . S
C18 O15 1.250 . S
C18 O16 1.248 . S
C19 O20 1.264 . S
C19 O27 1.249 . S
O20 C19 1.264 . S
O21 Mg14 1.986 . S
O21 C25 1.246 . S
O22 Mg17 2.032 . S
O22 C25 1.259 . S
O23 Mg14 2.114 . S
O23 C26 1.252 . S
O24 Mg14 2.251 . S
O24 Mg17 2.079 . S
O24 C26 1.273 . S
C25 O21 1.246 . S
C25 O22 1.259 . S
C26 O23 1.252 . S
C26 O24 1.273 . S
O27 Mg14 2.010 . S
O27 C19 1.249 . S
Mg28 O29 2.028 . S
Mg28 O35 1.986 . S
Mg28 O37 2.114 . S
Mg28 O38 2.251 . S
Mg28 O41 2.010 . S
O29 Mg28 2.028 . S
O29 C32 1.250 . S
O30 Mg31 2.028 . S
O30 C32 1.248 . S
Mg31 O30 2.028 . S
Mg31 O36 2.032 . S
Mg31 O38 2.079 . S
C32 O29 1.250 . S
C32 O30 1.248 . S
C33 O34 1.264 . S
C33 O41 1.249 . S
O34 C33 1.264 . S
O35 Mg28 1.986 . S
O35 C39 1.246 . S
O36 Mg31 2.032 . S
O36 C39 1.259 . S
O37 Mg28 2.114 . S
O37 C40 1.252 . S
O38 Mg28 2.251 . S
O38 Mg31 2.079 . S
O38 C40 1.273 . S
C39 O35 1.246 . S
C39 O36 1.259 . S
C40 O37 1.252 . S
C40 O38 1.273 . S
O41 Mg28 2.010 . S
O41 C33 1.249 . S
Mg42 O43 2.028 . S
Mg42 O49 1.986 . S
Mg42 O51 2.114 . S
Mg42 O52 2.251 . S
Mg42 O55 2.010 . S
O43 Mg42 2.028 . S
O43 C46 1.250 . S
O44 Mg45 2.028 . S
O44 C46 1.248 . S
Mg45 O44 2.028 . S
Mg45 O50 2.032 . S
Mg45 O52 2.079 . S
C46 O43 1.250 . S
C46 O44 1.248 . S
C47 O48 1.264 . S
C47 O55 1.249 . S
O48 C47 1.264 . S
O49 Mg42 1.986 . S
O49 C53 1.246 . S
O50 Mg45 2.032 . S
O50 C53 1.259 . S
O51 Mg42 2.114 . S
O51 C54 1.252 . S
O52 Mg42 2.251 . S
O52 Mg45 2.079 . S
O52 C54 1.273 . S
C53 O49 1.246 . S
C53 O50 1.259 . S
C54 O51 1.252 . S
C54 O52 1.273 . S
O55 Mg42 2.010 . S
O55 C47 1.249 . S
Mg56 O57 2.028 . S
Mg56 O63 1.986 . S
Mg56 O65 2.114 . S
Mg56 O66 2.251 . S
Mg56 O69 2.010 . S
O57 Mg56 2.028 . S
O57 C60 1.250 . S
O58 Mg59 2.028 . S
O58 C60 1.248 . S
Mg59 O58 2.028 . S
Mg59 O64 2.032 . S
Mg59 O66 2.079 . S
C60 O57 1.250 . S
C60 O58 1.248 . S
C61 O62 1.264 . S
C61 O69 1.249 . S
O62 C61 1.264 . S
O63 Mg56 1.986 . S
O63 C67 1.246 . S
O64 Mg59 2.032 . S
O64 C67 1.259 . S
O65 Mg56 2.114 . S
O65 C68 1.252 . S
O66 Mg56 2.251 . S
O66 Mg59 2.079 . S
O66 C68 1.273 . S
C67 O63 1.246 . S
C67 O64 1.259 . S
C68 O65 1.252 . S
C68 O66 1.273 . S
O69 Mg56 2.010 . S
O69 C61 1.249 . S
Mg70 O71 2.028 . S
Mg70 O77 1.986 . S
Mg70 O79 2.114 . S
Mg70 O80 2.251 . S
Mg70 O83 2.010 . S
O71 Mg70 2.028 . S
O71 C74 1.250 . S
O72 Mg73 2.028 . S
O72 C74 1.248 . S
Mg73 O72 2.028 . S
Mg73 O78 2.032 . S
Mg73 O80 2.079 . S
C74 O71 1.250 . S
C74 O72 1.248 . S
C75 O76 1.264 . S
C75 O83 1.249 . S
O76 C75 1.264 . S
O77 Mg70 1.986 . S
O77 C81 1.246 . S
O78 Mg73 2.032 . S
O78 C81 1.259 . S
O79 Mg70 2.114 . S
O79 C82 1.252 . S
O80 Mg70 2.251 . S
O80 Mg73 2.079 . S
O80 C82 1.273 . S
C81 O77 1.246 . S
C81 O78 1.259 . S
C82 O79 1.252 . S
C82 O80 1.273 . S
O83 Mg70 2.010 . S
O83 C75 1.249 . S
Mg84 O85 2.028 . S
Mg84 O91 1.986 . S
Mg84 O93 2.114 . S
Mg84 O94 2.251 . S
Mg84 O97 2.010 . S
O85 Mg84 2.028 . S
O85 C88 1.250 . S
O86 Mg87 2.028 . S
O86 C88 1.248 . S
Mg87 O86 2.028 . S
Mg87 O92 2.032 . S
Mg87 O94 2.079 . S
C88 O85 1.250 . S
C88 O86 1.248 . S
C89 O90 1.264 . S
C89 O97 1.249 . S
O90 C89 1.264 . S
O91 Mg84 1.986 . S
O91 C95 1.246 . S
O92 Mg87 2.032 . S
O92 C95 1.259 . S
O93 Mg84 2.114 . S
O93 C96 1.252 . S
O94 Mg84 2.251 . S
O94 Mg87 2.079 . S
O94 C96 1.273 . S
C95 O91 1.246 . S
C95 O92 1.259 . S
C96 O93 1.252 . S
C96 O94 1.273 . S
O97 Mg84 2.010 . S
O97 C89 1.249 . S
Mg98 O99 2.028 . S
Mg98 O105 1.986 . S
Mg98 O107 2.114 . S
Mg98 O108 2.251 . S
Mg98 O111 2.010 . S
O99 Mg98 2.028 . S
O99 C102 1.250 . S
O100 Mg101 2.028 . S
O100 C102 1.248 . S
Mg101 O100 2.028 . S
Mg101 O106 2.032 . S
Mg101 O108 2.079 . S
C102 O99 1.250 . S
C102 O100 1.248 . S
C103 O104 1.264 . S
C103 O111 1.249 . S
O104 C103 1.264 . S
O105 Mg98 1.986 . S
O105 C109 1.246 . S
O106 Mg101 2.032 . S
O106 C109 1.259 . S
O107 Mg98 2.114 . S
O107 C110 1.252 . S
O108 Mg98 2.251 . S
O108 Mg101 2.079 . S
O108 C110 1.273 . S
C109 O105 1.246 . S
C109 O106 1.259 . S
C110 O107 1.252 . S
C110 O108 1.273 . S
O111 Mg98 2.010 . S
O111 C103 1.249 . S
Mg112 O113 2.028 . S
Mg112 O119 1.986 . S
Mg112 O121 2.114 . S
Mg112 O122 2.251 . S
Mg112 O125 2.010 . S
O113 Mg112 2.028 . S
O113 C116 1.250 . S
O114 Mg115 2.028 . S
O114 C116 1.248 . S
Mg115 O114 2.028 . S
Mg115 O120 2.032 . S
Mg115 O122 2.079 . S
C116 O113 1.250 . S
C116 O114 1.248 . S
C117 O118 1.264 . S
C117 O125 1.249 . S
O118 C117 1.264 . S
O119 Mg112 1.986 . S
O119 C123 1.246 . S
O120 Mg115 2.032 . S
O120 C123 1.259 . S
O121 Mg112 2.114 . S
O121 C124 1.252 . S
O122 Mg112 2.251 . S
O122 Mg115 2.079 . S
O122 C124 1.273 . S
C123 O119 1.246 . S
C123 O120 1.259 . S
C124 O121 1.252 . S
C124 O122 1.273 . S
O125 Mg112 2.010 . S
O125 C117 1.249 . S
Mg126 O127 2.028 . S
Mg126 O133 1.986 . S
Mg126 O135 2.114 . S
Mg126 O136 2.251 . S
Mg126 O139 2.010 . S
O127 Mg126 2.028 . S
O127 C130 1.250 . S
O128 Mg129 2.028 . S
O128 C130 1.248 . S
Mg129 O128 2.028 . S
Mg129 O134 2.032 . S
Mg129 O136 2.079 . S
C130 O127 1.250 . S
C130 O128 1.248 . S
C131 O132 1.264 . S
C131 O139 1.249 . S
O132 C131 1.264 . S
O133 Mg126 1.986 . S
O133 C137 1.246 . S
O134 Mg129 2.032 . S
O134 C137 1.259 . S
O135 Mg126 2.114 . S
O135 C138 1.252 . S
O136 Mg126 2.251 . S
O136 Mg129 2.079 . S
O136 C138 1.273 . S
C137 O133 1.246 . S
C137 O134 1.259 . S
C138 O135 1.252 . S
C138 O136 1.273 . S
O139 Mg126 2.010 . S
O139 C131 1.249 . S
Mg140 O141 2.028 . S
Mg140 O147 1.986 . S
Mg140 O149 2.114 . S
Mg140 O150 2.251 . S
Mg140 O153 2.010 . S
O141 Mg140 2.028 . S
O141 C144 1.250 . S
O142 Mg143 2.028 . S
O142 C144 1.248 . S
Mg143 O142 2.028 . S
Mg143 O148 2.032 . S
Mg143 O150 2.079 . S
C144 O141 1.250 . S
C144 O142 1.248 . S
C145 O146 1.264 . S
C145 O153 1.249 . S
O146 C145 1.264 . S
O147 Mg140 1.986 . S
O147 C151 1.246 . S
O148 Mg143 2.032 . S
O148 C151 1.259 . S
O149 Mg140 2.114 . S
O149 C152 1.252 . S
O150 Mg140 2.251 . S
O150 Mg143 2.079 . S
O150 C152 1.273 . S
C151 O147 1.246 . S
C151 O148 1.259 . S
C152 O149 1.252 . S
C152 O150 1.273 . S
O153 Mg140 2.010 . S
O153 C145 1.249 . S
Mg154 O155 2.028 . S
Mg154 O161 1.986 . S
Mg154 O163 2.114 . S
Mg154 O164 2.251 . S
Mg154 O167 2.010 . S
O155 Mg154 2.028 . S
O155 C158 1.250 . S
O156 Mg157 2.028 . S
O156 C158 1.248 . S
Mg157 O156 2.028 . S
Mg157 O162 2.032 . S
Mg157 O164 2.079 . S
C158 O155 1.250 . S
C158 O156 1.248 . S
C159 O160 1.264 . S
C159 O167 1.249 . S
O160 C159 1.264 . S
O161 Mg154 1.986 . S
O161 C165 1.246 . S
O162 Mg157 2.032 . S
O162 C165 1.259 . S
O163 Mg154 2.114 . S
O163 C166 1.252 . S
O164 Mg154 2.251 . S
O164 Mg157 2.079 . S
O164 C166 1.273 . S
C165 O161 1.246 . S
C165 O162 1.259 . S
C166 O163 1.252 . S
C166 O164 1.273 . S
O167 Mg154 2.010 . S
O167 C159 1.249 . S
H168 C176 0.950 . S
H169 C181 0.950 . S
H170 C178 0.950 . S
H171 C180 0.950 . S
H172 C182 0.950 . S
H173 C184 0.950 . S
H174 C186 0.950 . S
H175 C187 0.950 . S
C176 H168 0.950 . S
C176 C177 1.386 . S
C176 C178 1.391 . S
C177 C176 1.386 . S
C177 C181 1.393 . S
C178 H170 0.950 . S
C178 C176 1.391 . S
C178 C179 1.400 . S
C179 C178 1.400 . S
C179 C180 1.398 1_556 S
C179 C185 1.491 1_566 S
C180 H171 0.950 . S
C180 C179 1.398 1_554 S
C180 C181 1.391 1_554 S
C181 H169 0.950 . S
C181 C177 1.393 . S
C181 C180 1.391 1_556 S
C182 H172 0.950 . S
C182 C183 1.386 . S
C182 C184 1.391 . S
C183 C182 1.386 . S
C183 C187 1.393 . S
C184 H173 0.950 . S
C184 C182 1.391 . S
C184 C185 1.400 . S
C185 C179 1.491 1_544 S
C185 C184 1.400 . S
C185 C186 1.398 1_554 S
C186 H174 0.950 . S
C186 C185 1.398 1_556 S
C186 C187 1.391 1_556 S
C187 H175 0.950 . S
C187 C183 1.393 . S
C187 C186 1.391 1_554 S
H188 C196 0.950 . S
H189 C201 0.950 . S
H190 C198 0.950 . S
H191 C200 0.950 . S
H192 C202 0.950 . S
H193 C204 0.950 . S
H194 C206 0.950 . S
H195 C207 0.950 . S
C196 H188 0.950 . S
C196 C197 1.386 . S
C196 C198 1.391 . S
C197 C196 1.386 . S
C197 C201 1.393 . S
C198 H190 0.950 . S
C198 C196 1.391 . S
C198 C199 1.400 . S
C199 C198 1.400 . S
C199 C200 1.398 . S
C199 C205 1.491 . S
C200 H191 0.950 . S
C200 C199 1.398 . S
C200 C201 1.391 . S
C201 H189 0.950 . S
C201 C197 1.393 . S
C201 C200 1.391 . S
C202 H192 0.950 . S
C202 C203 1.386 . S
C202 C204 1.391 . S
C203 C202 1.386 . S
C203 C207 1.393 . S
C204 H193 0.950 . S
C204 C202 1.391 . S
C204 C205 1.400 . S
C205 C199 1.491 . S
C205 C204 1.400 . S
C205 C206 1.398 . S
C206 H194 0.950 . S
C206 C205 1.398 . S
C206 C207 1.391 . S
C207 H195 0.950 . S
C207 C203 1.393 . S
C207 C206 1.391 . S
H208 C216 0.950 . S
H209 C221 0.950 . S
H210 C218 0.950 . S
H211 C220 0.950 . S
H212 C222 0.950 . S
H213 C224 0.950 . S
H214 C226 0.950 . S
H215 C227 0.950 . S
C216 H208 0.950 . S
C216 C217 1.386 . S
C216 C218 1.391 . S
C217 C216 1.386 . S
C217 C221 1.393 . S
C218 H210 0.950 . S
C218 C216 1.391 . S
C218 C219 1.400 . S
C219 C218 1.400 . S
C219 C220 1.398 . S
C219 C225 1.491 1_655 S
C220 H211 0.950 . S
C220 C219 1.398 . S
C220 C221 1.391 . S
C221 H209 0.950 . S
C221 C217 1.393 . S
C221 C220 1.391 . S
C222 H212 0.950 . S
C222 C223 1.386 . S
C222 C224 1.391 . S
C223 C222 1.386 . S
C223 C227 1.393 . S
C224 H213 0.950 . S
C224 C222 1.391 . S
C224 C225 1.400 . S
C225 C219 1.491 1_455 S
C225 C224 1.400 . S
C225 C226 1.398 . S
C226 H214 0.950 . S
C226 C225 1.398 . S
C226 C227 1.391 . S
C227 H215 0.950 . S
C227 C223 1.393 . S
C227 C226 1.391 . S
H228 C236 0.950 . S
H229 C241 0.950 . S
H230 C238 0.953 . S
H231 C240 0.950 . S
H232 C242 0.950 . S
H233 C244 0.953 . S
H234 C246 0.950 . S
H235 C247 0.950 . S
C236 H228 0.950 . S
C236 C237 1.386 . S
C236 C238 1.389 1_554 S
C237 C236 1.386 . S
C237 C241 1.393 . S
C238 H230 0.953 . S
C238 C236 1.389 1_556 S
C238 C239 1.399 1_556 S
C239 C238 1.399 1_554 S
C239 C240 1.398 . S
C239 C245 1.491 1_564 S
C240 H231 0.950 . S
C240 C239 1.398 . S
C240 C241 1.391 . S
C241 H229 0.950 . S
C241 C237 1.393 . S
C241 C240 1.391 . S
C242 H232 0.950 . S
C242 C243 1.386 . S
C242 C244 1.389 1_556 S
C243 C242 1.386 . S
C243 C247 1.393 . S
C244 H233 0.953 . S
C244 C242 1.389 1_554 S
C244 C245 1.399 1_554 S
C245 C239 1.491 1_546 S
C245 C244 1.399 1_556 S
C245 C246 1.398 . S
C246 H234 0.950 . S
C246 C245 1.398 . S
C246 C247 1.391 . S
C247 H235 0.950 . S
C247 C243 1.393 . S
C247 C246 1.391 . S
H248 C256 0.950 . S
H249 C261 0.950 . S
H250 C258 0.950 . S
H251 C260 0.950 . S
H252 C262 0.950 . S
H253 C264 0.950 . S
H254 C266 0.950 . S
H255 C267 0.950 . S
C256 H248 0.950 . S
C256 C257 1.386 . S
C256 C258 1.391 . S
C257 C256 1.386 . S
C257 C261 1.393 . S
C258 H250 0.950 . S
C258 C256 1.391 . S
C258 C259 1.400 . S
C259 C258 1.400 . S
C259 C260 1.398 . S
C259 C265 1.491 . S
C260 H251 0.950 . S
C260 C259 1.398 . S
C260 C261 1.391 . S
C261 H249 0.950 . S
C261 C257 1.393 . S
C261 C260 1.391 . S
C262 H252 0.950 . S
C262 C263 1.386 . S
C262 C264 1.391 . S
C263 C262 1.386 . S
C263 C267 1.393 . S
C264 H253 0.950 . S
C264 C262 1.391 . S
C264 C265 1.400 . S
C265 C259 1.491 . S
C265 C264 1.400 . S
C265 C266 1.398 . S
C266 H254 0.950 . S
C266 C265 1.398 . S
C266 C267 1.391 . S
C267 H255 0.950 . S
C267 C263 1.393 . S
C267 C266 1.391 . S
H268 C276 0.950 . S
H269 C281 0.950 . S
H270 C278 0.950 . S
H271 C280 0.950 . S
H272 C282 0.950 . S
H273 C284 0.950 . S
H274 C286 0.950 . S
H275 C287 0.950 . S
C276 H268 0.950 . S
C276 C277 1.386 . S
C276 C278 1.391 . S
C277 C276 1.386 . S
C277 C281 1.393 . S
C278 H270 0.950 . S
C278 C276 1.391 . S
C278 C279 1.400 . S
C279 C278 1.400 . S
C279 C280 1.398 . S
C279 C285 1.491 1_655 S
C280 H271 0.950 . S
C280 C279 1.398 . S
C280 C281 1.391 . S
C281 H269 0.950 . S
C281 C277 1.393 . S
C281 C280 1.391 . S
C282 H272 0.950 . S
C282 C283 1.386 . S
C282 C284 1.391 . S
C283 C282 1.386 . S
C283 C287 1.393 . S
C284 H273 0.950 . S
C284 C282 1.391 . S
C284 C285 1.400 . S
C285 C279 1.491 1_455 S
C285 C284 1.400 . S
C285 C286 1.398 . S
C286 H274 0.950 . S
C286 C285 1.398 . S
C286 C287 1.391 . S
C287 H275 0.950 . S
C287 C283 1.393 . S
C287 C286 1.391 . S
H288 C296 0.950 . S
H289 C301 0.950 1_554 S
H290 C298 0.950 . S
H291 C300 0.950 . S
H292 C302 0.950 . S
H293 C304 0.950 . S
H294 C306 0.950 . S
H295 C307 0.950 1_556 S
C296 H288 0.950 . S
C296 C297 1.386 . S
C296 C298 1.391 . S
C297 C296 1.386 . S
C297 C301 1.393 . S
C298 H290 0.950 . S
C298 C296 1.391 . S
C298 C299 1.400 . S
C299 C298 1.400 . S
C299 C300 1.398 1_556 S
C299 C305 1.491 1_556 S
C300 H291 0.950 . S
C300 C299 1.398 1_554 S
C300 C301 1.391 1_554 S
C301 H289 0.950 1_556 S
C301 C297 1.393 . S
C301 C300 1.391 1_556 S
C302 H292 0.950 . S
C302 C303 1.386 . S
C302 C304 1.391 . S
C303 C302 1.386 . S
C303 C307 1.393 . S
C304 H293 0.950 . S
C304 C302 1.391 . S
C304 C305 1.400 . S
C305 C299 1.491 1_554 S
C305 C304 1.400 . S
C305 C306 1.398 1_554 S
C306 H294 0.950 . S
C306 C305 1.398 1_556 S
C306 C307 1.391 1_556 S
C307 H295 0.950 1_554 S
C307 C303 1.393 . S
C307 C306 1.391 1_554 S
H308 C316 0.950 . S
H309 C321 0.950 . S
H310 C318 0.950 . S
H311 C320 0.950 . S
H312 C322 0.950 . S
H313 C324 0.950 . S
H314 C326 0.950 . S
H315 C327 0.950 . S
C316 H308 0.950 . S
C316 C317 1.386 . S
C316 C318 1.391 . S
C317 C316 1.386 . S
C317 C321 1.393 . S
C318 H310 0.950 . S
C318 C316 1.391 . S
C318 C319 1.400 . S
C319 C318 1.400 . S
C319 C320 1.398 . S
C319 C325 1.491 . S
C320 H311 0.950 . S
C320 C319 1.398 . S
C320 C321 1.391 . S
C321 H309 0.950 . S
C321 C317 1.393 . S
C321 C320 1.391 . S
C322 H312 0.950 . S
C322 C323 1.386 . S
C322 C324 1.391 . S
C323 C322 1.386 . S
C323 C327 1.393 . S
C324 H313 0.950 . S
C324 C322 1.391 . S
C324 C325 1.400 . S
C325 C319 1.491 . S
C325 C324 1.400 . S
C325 C326 1.398 . S
C326 H314 0.950 . S
C326 C325 1.398 . S
C326 C327 1.391 . S
C327 H315 0.950 . S
C327 C323 1.393 . S
C327 C326 1.391 . S
H328 C336 0.950 . S
H329 C341 0.950 . S
H330 C338 0.950 . S
H331 C340 0.950 . S
H332 C342 0.950 . S
H333 C344 0.950 . S
H334 C346 0.950 . S
H335 C347 0.950 . S
C336 H328 0.950 . S
C336 C337 1.386 . S
C336 C338 1.391 . S
C337 C336 1.386 . S
C337 C341 1.393 . S
C338 H330 0.950 . S
C338 C336 1.391 . S
C338 C339 1.400 . S
C339 C338 1.400 . S
C339 C340 1.398 . S
C339 C345 1.491 . S
C340 H331 0.950 . S
C340 C339 1.398 . S
C340 C341 1.391 . S
C341 H329 0.950 . S
C341 C337 1.393 . S
C341 C340 1.391 . S
C342 H332 0.950 . S
C342 C343 1.386 . S
C342 C344 1.391 . S
C343 C342 1.386 . S
C343 C347 1.393 . S
C344 H333 0.950 . S
C344 C342 1.391 . S
C344 C345 1.400 . S
C345 C339 1.491 . S
C345 C344 1.400 . S
C345 C346 1.398 . S
C346 H334 0.950 . S
C346 C345 1.398 . S
C346 C347 1.391 . S
C347 H335 0.950 . S
C347 C343 1.393 . S
C347 C346 1.391 . S
H348 C356 0.950 . S
H349 C361 0.950 1_554 S
H350 C358 0.950 . S
H351 C360 0.950 . S
H352 C362 0.950 . S
H353 C364 0.950 . S
H354 C366 0.950 . S
H355 C367 0.950 1_556 S
C356 H348 0.950 . S
C356 C357 1.386 . S
C356 C358 1.391 . S
C357 C356 1.386 . S
C357 C361 1.393 . S
C358 H350 0.950 . S
C358 C356 1.391 . S
C358 C359 1.400 . S
C359 C358 1.400 . S
C359 C360 1.398 1_556 S
C359 C365 1.491 1_556 S
C360 H351 0.950 . S
C360 C359 1.398 1_554 S
C360 C361 1.391 1_554 S
C361 H349 0.950 1_556 S
C361 C357 1.393 . S
C361 C360 1.391 1_556 S
C362 H352 0.950 . S
C362 C363 1.386 . S
C362 C364 1.391 . S
C363 C362 1.386 . S
C363 C367 1.393 . S
C364 H353 0.950 . S
C364 C362 1.391 . S
C364 C365 1.400 . S
C365 C359 1.491 1_554 S
C365 C364 1.400 . S
C365 C366 1.398 1_554 S
C366 H354 0.950 . S
C366 C365 1.398 1_556 S
C366 C367 1.391 1_556 S
C367 H355 0.950 1_554 S
C367 C363 1.393 . S
C367 C366 1.391 1_554 S
H368 C376 0.950 . S
H369 C381 0.950 . S
H370 C378 0.950 . S
H371 C380 0.950 . S
H372 C382 0.950 . S
H373 C384 0.950 . S
H374 C386 0.950 . S
H375 C387 0.950 . S
C376 H368 0.950 . S
C376 C377 1.386 . S
C376 C378 1.391 . S
C377 C376 1.386 . S
C377 C381 1.393 . S
C378 H370 0.950 . S
C378 C376 1.391 . S
C378 C379 1.400 . S
C379 C378 1.400 . S
C379 C380 1.398 . S
C379 C385 1.491 . S
C380 H371 0.950 . S
C380 C379 1.398 . S
C380 C381 1.391 . S
C381 H369 0.950 . S
C381 C377 1.393 . S
C381 C380 1.391 . S
C382 H372 0.950 . S
C382 C383 1.386 . S
C382 C384 1.391 . S
C383 C382 1.386 . S
C383 C387 1.393 . S
C384 H373 0.950 . S
C384 C382 1.391 . S
C384 C385 1.400 . S
C385 C379 1.491 . S
C385 C384 1.400 . S
C385 C386 1.398 . S
C386 H374 0.950 . S
C386 C385 1.398 . S
C386 C387 1.391 . S
C387 H375 0.950 . S
C387 C383 1.393 . S
C387 C386 1.391 . S
H388 C396 0.950 . S
H389 C401 0.950 . S
H390 C398 0.950 . S
H391 C400 0.950 . S
H392 C402 0.950 . S
H393 C404 0.950 . S
H394 C406 0.950 . S
H395 C407 0.950 . S
C396 H388 0.950 . S
C396 C397 1.386 . S
C396 C398 1.391 . S
C397 C396 1.386 . S
C397 C401 1.393 . S
C398 H390 0.950 . S
C398 C396 1.391 . S
C398 C399 1.400 . S
C399 C398 1.400 . S
C399 C400 1.398 . S
C399 C405 1.491 . S
C400 H391 0.950 . S
C400 C399 1.398 . S
C400 C401 1.391 . S
C401 H389 0.950 . S
C401 C397 1.393 . S
C401 C400 1.391 . S
C402 H392 0.950 . S
C402 C403 1.386 . S
C402 C404 1.391 . S
C403 C402 1.386 . S
C403 C407 1.393 . S
C404 H393 0.950 . S
C404 C402 1.391 . S
C404 C405 1.400 . S
C405 C399 1.491 . S
C405 C404 1.400 . S
C405 C406 1.398 . S
C406 H394 0.950 . S
C406 C405 1.398 . S
C406 C407 1.391 . S
C407 H395 0.950 . S
C407 C403 1.393 . S
C407 C406 1.391 . S
H408 C416 0.950 . S
H409 C421 0.950 . S
H410 C418 0.950 . S
H411 C420 0.950 . S
H412 C422 0.950 . S
H413 C424 0.950 . S
H414 C426 0.950 . S
H415 C427 0.950 . S
C416 H408 0.950 . S
C416 C417 1.386 . S
C416 C418 1.391 . S
C417 C416 1.386 . S
C417 C421 1.393 . S
C418 H410 0.950 . S
C418 C416 1.391 . S
C418 C419 1.400 . S
C419 C418 1.400 . S
C419 C420 1.398 . S
C419 C425 1.491 . S
C420 H411 0.950 . S
C420 C419 1.398 . S
C420 C421 1.391 . S
C421 H409 0.950 . S
C421 C417 1.393 . S
C421 C420 1.391 . S
C422 H412 0.950 . S
C422 C423 1.386 . S
C422 C424 1.391 . S
C423 C422 1.386 . S
C423 C427 1.393 . S
C424 H413 0.950 . S
C424 C422 1.391 . S
C424 C425 1.400 . S
C425 C419 1.491 . S
C425 C424 1.400 . S
C425 C426 1.398 . S
C426 H414 0.950 . S
C426 C425 1.398 . S
C426 C427 1.391 . S
C427 H415 0.950 . S
C427 C423 1.393 . S
C427 C426 1.391 . S
H428 C436 0.950 . S
H429 C441 0.950 . S
H430 C438 0.950 . S
H431 C440 0.950 . S
H432 C442 0.950 . S
H433 C444 0.950 . S
H434 C446 0.950 . S
H435 C447 0.950 . S
C436 H428 0.950 . S
C436 C437 1.386 . S
C436 C438 1.391 . S
C437 C436 1.386 . S
C437 C441 1.393 . S
C438 H430 0.950 . S
C438 C436 1.391 . S
C438 C439 1.400 . S
C439 C438 1.400 . S
C439 C440 1.398 . S
C439 C445 1.491 . S
C440 H431 0.950 . S
C440 C439 1.398 . S
C440 C441 1.391 . S
C441 H429 0.950 . S
C441 C437 1.393 . S
C441 C440 1.391 . S
C442 H432 0.950 . S
C442 C443 1.386 . S
C442 C444 1.391 . S
C443 C442 1.386 . S
C443 C447 1.393 . S
C444 H433 0.950 . S
C444 C442 1.391 . S
C444 C445 1.400 . S
C445 C439 1.491 . S
C445 C444 1.400 . S
C445 C446 1.398 . S
C446 H434 0.950 . S
C446 C445 1.398 . S
C446 C447 1.391 . S
C447 H435 0.950 . S
C447 C443 1.393 . S
C447 C446 1.391 . S
H448 C456 0.950 . S
H449 C461 0.950 . S
H450 C458 0.950 . S
H451 C460 0.950 . S
H452 C462 0.950 . S
H453 C464 0.950 . S
H454 C466 0.950 . S
H455 C467 0.950 . S
C456 H448 0.950 . S
C456 C457 1.386 . S
C456 C458 1.391 . S
C457 C456 1.386 . S
C457 C461 1.393 . S
C458 H450 0.950 . S
C458 C456 1.391 . S
C458 C459 1.400 . S
C459 C458 1.400 . S
C459 C460 1.398 . S
C459 C465 1.491 . S
C460 H451 0.950 . S
C460 C459 1.398 . S
C460 C461 1.391 . S
C461 H449 0.950 . S
C461 C457 1.393 . S
C461 C460 1.391 . S
C462 H452 0.950 . S
C462 C463 1.386 . S
C462 C464 1.391 . S
C463 C462 1.386 . S
C463 C467 1.393 . S
C464 H453 0.950 . S
C464 C462 1.391 . S
C464 C465 1.400 . S
C465 C459 1.491 . S
C465 C464 1.400 . S
C465 C466 1.398 . S
C466 H454 0.950 . S
C466 C465 1.398 . S
C466 C467 1.391 . S
C467 H455 0.950 . S
C467 C463 1.393 . S
C467 C466 1.391 . S
H468 C476 0.950 . S
H469 C481 0.950 . S
H470 C478 0.950 . S
H471 C480 0.950 . S
H472 C482 0.950 . S
H473 C484 0.950 . S
H474 C486 0.950 . S
H475 C487 0.950 . S
C476 H468 0.950 . S
C476 C477 1.386 . S
C476 C478 1.391 . S
C477 C476 1.386 . S
C477 C481 1.393 . S
C478 H470 0.950 . S
C478 C476 1.391 . S
C478 C479 1.400 . S
C479 C478 1.400 . S
C479 C480 1.398 . S
C479 C485 1.491 . S
C480 H471 0.950 . S
C480 C479 1.398 . S
C480 C481 1.391 . S
C481 H469 0.950 . S
C481 C477 1.393 . S
C481 C480 1.391 . S
C482 H472 0.950 . S
C482 C483 1.386 . S
C482 C484 1.391 . S
C483 C482 1.386 . S
C483 C487 1.393 . S
C484 H473 0.950 . S
C484 C482 1.391 . S
C484 C485 1.400 . S
C485 C479 1.491 . S
C485 C484 1.400 . S
C485 C486 1.398 . S
C486 H474 0.950 . S
C486 C485 1.398 . S
C486 C487 1.391 . S
C487 H475 0.950 . S
C487 C483 1.393 . S
C487 C486 1.391 . S
H488 C496 0.950 . S
H489 C501 0.950 . S
H490 C498 0.950 . S
H491 C500 0.950 . S
H492 C502 0.950 . S
H493 C504 0.950 . S
H494 C506 0.950 . S
H495 C507 0.950 . S
C496 H488 0.950 . S
C496 C497 1.386 . S
C496 C498 1.391 . S
C497 C496 1.386 . S
C497 C501 1.393 . S
C498 H490 0.950 . S
C498 C496 1.391 . S
C498 C499 1.400 . S
C499 C498 1.400 . S
C499 C500 1.398 . S
C499 C505 1.491 . S
C500 H491 0.950 . S
C500 C499 1.398 . S
C500 C501 1.391 . S
C501 H489 0.950 . S
C501 C497 1.393 . S
C501 C500 1.391 . S
C502 H492 0.950 . S
C502 C503 1.386 . S
C502 C504 1.391 . S
C503 C502 1.386 . S
C503 C507 1.393 . S
C504 H493 0.950 . S
C504 C502 1.391 . S
C504 C505 1.400 . S
C505 C499 1.491 . S
C505 C504 1.400 . S
C505 C506 1.398 . S
C506 H494 0.950 . S
C506 C505 1.398 . S
C506 C507 1.391 . S
C507 H495 0.950 . S
C507 C503 1.393 . S
C507 C506 1.391 . S
H508 C516 0.950 . S
H509 C521 0.950 . S
H510 C518 0.950 . S
H511 C520 0.950 . S
H512 C522 0.950 . S
H513 C524 0.950 . S
H514 C526 0.950 . S
H515 C527 0.950 . S
C516 H508 0.950 . S
C516 C517 1.386 . S
C516 C518 1.391 . S
C517 C516 1.386 . S
C517 C521 1.393 . S
C518 H510 0.950 . S
C518 C516 1.391 . S
C518 C519 1.400 . S
C519 C518 1.400 . S
C519 C520 1.398 . S
C519 C525 1.491 . S
C520 H511 0.950 . S
C520 C519 1.398 . S
C520 C521 1.391 . S
C521 H509 0.950 . S
C521 C517 1.393 . S
C521 C520 1.391 . S
C522 H512 0.950 . S
C522 C523 1.386 . S
C522 C524 1.391 . S
C523 C522 1.386 . S
C523 C527 1.393 . S
C524 H513 0.950 . S
C524 C522 1.391 . S
C524 C525 1.400 . S
C525 C519 1.491 . S
C525 C524 1.400 . S
C525 C526 1.398 . S
C526 H514 0.950 . S
C526 C525 1.398 . S
C526 C527 1.391 . S
C527 H515 0.950 . S
C527 C523 1.393 . S
C527 C526 1.391 . S
H528 C536 0.950 . S
H529 C541 0.950 . S
H530 C538 0.950 . S
H531 C540 0.950 . S
H532 C542 0.950 . S
H533 C544 0.950 . S
H534 C546 0.950 . S
H535 C547 0.950 . S
C536 H528 0.950 . S
C536 C537 1.386 . S
C536 C538 1.391 . S
C537 C536 1.386 . S
C537 C541 1.393 . S
C538 H530 0.950 . S
C538 C536 1.391 . S
C538 C539 1.400 . S
C539 C538 1.400 . S
C539 C540 1.398 . S
C539 C545 1.491 . S
C540 H531 0.950 . S
C540 C539 1.398 . S
C540 C541 1.391 . S
C541 H529 0.950 . S
C541 C537 1.393 . S
C541 C540 1.391 . S
C542 H532 0.950 . S
C542 C543 1.386 . S
C542 C544 1.391 . S
C543 C542 1.386 . S
C543 C547 1.393 . S
C544 H533 0.950 . S
C544 C542 1.391 . S
C544 C545 1.400 . S
C545 C539 1.491 . S
C545 C544 1.400 . S
C545 C546 1.398 . S
C546 H534 0.950 . S
C546 C545 1.398 . S
C546 C547 1.391 . S
C547 H535 0.950 . S
C547 C543 1.393 . S
C547 C546 1.391 . S
H548 C556 0.949 . S
H549 C561 0.950 . S
H550 C558 0.950 . S
H551 C560 0.950 . S
H552 C562 0.949 . S
H553 C564 0.950 . S
H554 C566 0.950 . S
H555 C567 0.950 . S
C556 H548 0.949 . S
C556 C557 1.386 . S
C556 C558 1.391 1_655 S
C557 C556 1.386 . S
C557 C561 1.393 . S
C558 H550 0.950 . S
C558 C556 1.391 1_455 S
C558 C559 1.400 1_455 S
C559 C558 1.400 1_655 S
C559 C560 1.398 . S
C559 C565 1.491 1_655 S
C560 H551 0.950 . S
C560 C559 1.398 . S
C560 C561 1.391 . S
C561 H549 0.950 . S
C561 C557 1.393 . S
C561 C560 1.391 . S
C562 H552 0.949 . S
C562 C563 1.386 . S
C562 C564 1.391 1_455 S
C563 C562 1.386 . S
C563 C567 1.393 . S
C564 H553 0.950 . S
C564 C562 1.391 1_655 S
C564 C565 1.400 1_655 S
C565 C559 1.491 1_455 S
C565 C564 1.400 1_455 S
C565 C566 1.398 . S
C566 H554 0.950 . S
C566 C565 1.398 . S
C566 C567 1.391 . S
C567 H555 0.950 . S
C567 C563 1.393 . S
C567 C566 1.391 . S
H568 C576 0.950 . S
H569 C581 0.950 . S
H570 C578 0.950 . S
H571 C580 0.950 . S
H572 C582 0.950 . S
H573 C584 0.950 . S
H574 C586 0.950 . S
H575 C587 0.950 . S
C576 H568 0.950 . S
C576 C577 1.386 . S
C576 C578 1.391 1_545 S
C577 C576 1.386 . S
C577 C581 1.393 . S
C578 H570 0.950 . S
C578 C576 1.391 1_565 S
C578 C579 1.400 1_565 S
C579 C578 1.400 1_545 S
C579 C580 1.398 . S
C579 C585 1.491 1_545 S
C580 H571 0.950 . S
C580 C579 1.398 . S
C580 C581 1.391 . S
C581 H569 0.950 . S
C581 C577 1.393 . S
C581 C580 1.391 . S
C582 H572 0.950 . S
C582 C583 1.386 . S
C582 C584 1.391 1_565 S
C583 C582 1.386 . S
C583 C587 1.393 . S
C584 H573 0.950 . S
C584 C582 1.391 1_545 S
C584 C585 1.400 1_545 S
C585 C579 1.491 1_565 S
C585 C584 1.400 1_565 S
C585 C586 1.398 . S
C586 H574 0.950 . S
C586 C585 1.398 . S
C586 C587 1.391 . S
C587 H575 0.950 . S
C587 C583 1.393 . S
C587 C586 1.391 . S
H588 C596 0.950 . S
H589 C601 0.950 . S
H590 C598 0.950 . S
H591 C600 0.950 . S
H592 C602 0.950 . S
H593 C604 0.950 . S
H594 C606 0.950 . S
H595 C607 0.950 . S
C596 H588 0.950 . S
C596 C597 1.386 . S
C596 C598 1.391 . S
C597 C596 1.386 . S
C597 C601 1.393 . S
C598 H590 0.950 . S
C598 C596 1.391 . S
C598 C599 1.400 . S
C599 C598 1.400 . S
C599 C600 1.398 . S
C599 C605 1.491 . S
C600 H591 0.950 . S
C600 C599 1.398 . S
C600 C601 1.391 . S
C601 H589 0.950 . S
C601 C597 1.393 . S
C601 C600 1.391 . S
C602 H592 0.950 . S
C602 C603 1.386 . S
C602 C604 1.391 . S
C603 C602 1.386 . S
C603 C607 1.393 . S
C604 H593 0.950 . S
C604 C602 1.391 . S
C604 C605 1.400 . S
C605 C599 1.491 . S
C605 C604 1.400 . S
C605 C606 1.398 . S
C606 H594 0.950 . S
C606 C605 1.398 . S
C606 C607 1.391 . S
C607 H595 0.950 . S
C607 C603 1.393 . S
C607 C606 1.391 . S
H608 C616 0.950 . S
H609 C621 0.950 . S
H610 C618 0.950 . S
H611 C620 0.950 . S
H612 C622 0.950 . S
H613 C624 0.950 . S
H614 C626 0.950 . S
H615 C627 0.950 . S
C616 H608 0.950 . S
C616 C617 1.386 . S
C616 C618 1.391 1_455 S
C617 C616 1.386 . S
C617 C621 1.393 . S
C618 H610 0.950 . S
C618 C616 1.391 1_655 S
C618 C619 1.400 1_655 S
C619 C618 1.400 1_455 S
C619 C620 1.398 . S
C619 C625 1.491 1_455 S
C620 H611 0.950 . S
C620 C619 1.398 . S
C620 C621 1.391 . S
C621 H609 0.950 . S
C621 C617 1.393 . S
C621 C620 1.391 . S
C622 H612 0.950 . S
C622 C623 1.386 . S
C622 C624 1.391 1_655 S
C623 C622 1.386 . S
C623 C627 1.393 . S
C624 H613 0.950 . S
C624 C622 1.391 1_455 S
C624 C625 1.400 1_455 S
C625 C619 1.491 1_655 S
C625 C624 1.400 1_655 S
C625 C626 1.398 . S
C626 H614 0.950 . S
C626 C625 1.398 . S
C626 C627 1.391 . S
C627 H615 0.950 . S
C627 C623 1.393 . S
C627 C626 1.391 . S
H628 C636 0.949 . S
H629 C641 0.950 . S
H630 C638 0.950 . S
H631 C640 0.950 . S
H632 C642 0.949 . S
H633 C644 0.950 . S
H634 C646 0.950 . S
H635 C647 0.950 . S
C636 H628 0.949 . S
C636 C637 1.386 . S
C636 C638 1.391 1_565 S
C637 C636 1.386 . S
C637 C641 1.393 . S
C638 H630 0.950 . S
C638 C636 1.391 1_545 S
C638 C639 1.400 1_545 S
C639 C638 1.400 1_565 S
C639 C640 1.398 . S
C639 C645 1.491 1_565 S
C640 H631 0.950 . S
C640 C639 1.398 . S
C640 C641 1.391 . S
C641 H629 0.950 . S
C641 C637 1.393 . S
C641 C640 1.391 . S
C642 H632 0.949 . S
C642 C643 1.386 . S
C642 C644 1.391 1_545 S
C643 C642 1.386 . S
C643 C647 1.393 . S
C644 H633 0.950 . S
C644 C642 1.391 1_565 S
C644 C645 1.400 1_565 S
C645 C639 1.491 1_545 S
C645 C644 1.400 1_545 S
C645 C646 1.398 . S
C646 H634 0.950 . S
C646 C645 1.398 . S
C646 C647 1.391 . S
C647 H635 0.950 . S
C647 C643 1.393 . S
C647 C646 1.391 . S
C177 C103 1.133 . S
C183 C5 1.144 . S
C197 C19 1.147 . S
C203 C117 1.106 . S
C217 C33 1.102 . S
C223 C131 1.144 . S
C237 C47 1.114 . S
C243 C145 1.102 . S
C257 C159 1.138 . S
C263 C61 1.139 . S
C277 C89 1.104 . S
C283 C75 1.145 . S
C297 C144 1.304 . S
C303 C4 1.290 . S
C317 C18 1.289 . S
C323 C158 1.292 . S
C337 C32 1.291 . S
C343 C88 1.304 . S
C357 C102 1.304 . S
C363 C46 1.291 . S
C377 C116 1.295 . S
C383 C60 1.288 . S
C397 C130 1.302 . S
C403 C74 1.288 . S
C417 C11 1.585 . S
C423 C123 1.577 . S
C437 C25 1.572 . S
C443 C137 1.585 . S
C457 C151 1.578 . S
C463 C39 1.585 . S
C477 C53 1.574 . S
C483 C165 1.573 . S
C497 C95 1.573 . S
C503 C67 1.585 . S
C517 C109 1.578 . S
C523 C81 1.570 . S
C537 C54 1.188 . S
C543 C12 1.176 . S
C557 C68 1.175 . S
C563 C26 1.187 . S
C577 C40 1.165 . S
C583 C82 1.174 . S
C597 C96 1.190 . S
C603 C138 1.180 . S
C617 C110 1.180 . S
C623 C152 1.190 . S
C637 C166 1.175 . S
C643 C124 1.187 . S
