# Generated by pormake.
# Topology ukj, (4)-cn, num edge types: 1
# Building blocks:
#     Node 0, Type 0, BuildingBlock: ESEHIV_clean_sbu_0, # of connection points: 4
#     Node 1, Type 0, BuildingBlock: ESEHIV_clean_sbu_0, # of connection points: 4
#     Node 2, Type 0, BuildingBlock: ESEHIV_clean_sbu_0, # of connection points: 4
#     Node 3, Type 0, BuildingBlock: ESEHIV_clean_sbu_0, # of connection points: 4
#     Node 4, Type 0, BuildingBlock: ESEHIV_clean_sbu_0, # of connection points: 4
#     Node 5, Type 0, BuildingBlock: ESEHIV_clean_sbu_0, # of connection points: 4
#     Node 6, Type 0, BuildingBlock: ESEHIV_clean_sbu_0, # of connection points: 4
#     Node 7, Type 0, BuildingBlock: ESEHIV_clean_sbu_0, # of connection points: 4
#     Node 8, Type 0, BuildingBlock: ESEHIV_clean_sbu_0, # of connection points: 4
#     Node 9, Type 0, BuildingBlock: ESEHIV_clean_sbu_0, # of connection points: 4
#     Node 10, Type 0, BuildingBlock: ESEHIV_clean_sbu_0, # of connection points: 4
#     Node 11, Type 0, BuildingBlock: ESEHIV_clean_sbu_0, # of connection points: 4
#     Node 12, Type 0, BuildingBlock: ESEHIV_clean_sbu_0, # of connection points: 4
#     Node 13, Type 0, BuildingBlock: ESEHIV_clean_sbu_0, # of connection points: 4
#     Node 14, Type 0, BuildingBlock: ESEHIV_clean_sbu_0, # of connection points: 4
#     Node 15, Type 0, BuildingBlock: ESEHIV_clean_sbu_0, # of connection points: 4
#     Node 16, Type 0, BuildingBlock: ESEHIV_clean_sbu_0, # of connection points: 4
#     Node 17, Type 0, BuildingBlock: ESEHIV_clean_sbu_0, # of connection points: 4
#     Node 18, Type 0, BuildingBlock: ESEHIV_clean_sbu_0, # of connection points: 4
#     Node 19, Type 0, BuildingBlock: ESEHIV_clean_sbu_0, # of connection points: 4
#     Node 20, Type 0, BuildingBlock: ESEHIV_clean_sbu_0, # of connection points: 4
#     Node 21, Type 0, BuildingBlock: ESEHIV_clean_sbu_0, # of connection points: 4
#     Node 22, Type 0, BuildingBlock: ESEHIV_clean_sbu_0, # of connection points: 4
#     Node 23, Type 0, BuildingBlock: ESEHIV_clean_sbu_0, # of connection points: 4
#     Node 24, Type 0, BuildingBlock: ESEHIV_clean_sbu_0, # of connection points: 4
#     Node 25, Type 0, BuildingBlock: ESEHIV_clean_sbu_0, # of connection points: 4
#     Node 26, Type 0, BuildingBlock: ESEHIV_clean_sbu_0, # of connection points: 4
#     Node 27, Type 0, BuildingBlock: ESEHIV_clean_sbu_0, # of connection points: 4
#     Node 28, Type 0, BuildingBlock: ESEHIV_clean_sbu_0, # of connection points: 4
#     Node 29, Type 0, BuildingBlock: ESEHIV_clean_sbu_0, # of connection points: 4
#     Node 30, Type 0, BuildingBlock: ESEHIV_clean_sbu_0, # of connection points: 4
#     Node 31, Type 0, BuildingBlock: ESEHIV_clean_sbu_0, # of connection points: 4
#     Edge 32, Type (0, 0), BuildingBlock: OJICUG_clean_linker_0, # of connection points: 2
#     Edge 33, Type (0, 0), BuildingBlock: OJICUG_clean_linker_0, # of connection points: 2
#     Edge 34, Type (0, 0), BuildingBlock: OJICUG_clean_linker_0, # of connection points: 2
#     Edge 35, Type (0, 0), BuildingBlock: OJICUG_clean_linker_0, # of connection points: 2
#     Edge 36, Type (0, 0), BuildingBlock: OJICUG_clean_linker_0, # of connection points: 2
#     Edge 37, Type (0, 0), BuildingBlock: OJICUG_clean_linker_0, # of connection points: 2
#     Edge 38, Type (0, 0), BuildingBlock: OJICUG_clean_linker_0, # of connection points: 2
#     Edge 39, Type (0, 0), BuildingBlock: OJICUG_clean_linker_0, # of connection points: 2
#     Edge 40, Type (0, 0), BuildingBlock: OJICUG_clean_linker_0, # of connection points: 2
#     Edge 41, Type (0, 0), BuildingBlock: OJICUG_clean_linker_0, # of connection points: 2
#     Edge 42, Type (0, 0), BuildingBlock: OJICUG_clean_linker_0, # of connection points: 2
#     Edge 43, Type (0, 0), BuildingBlock: OJICUG_clean_linker_0, # of connection points: 2
#     Edge 44, Type (0, 0), BuildingBlock: OJICUG_clean_linker_0, # of connection points: 2
#     Edge 45, Type (0, 0), BuildingBlock: OJICUG_clean_linker_0, # of connection points: 2
#     Edge 46, Type (0, 0), BuildingBlock: OJICUG_clean_linker_0, # of connection points: 2
#     Edge 47, Type (0, 0), BuildingBlock: OJICUG_clean_linker_0, # of connection points: 2
#     Edge 48, Type (0, 0), BuildingBlock: OJICUG_clean_linker_0, # of connection points: 2
#     Edge 49, Type (0, 0), BuildingBlock: OJICUG_clean_linker_0, # of connection points: 2
#     Edge 50, Type (0, 0), BuildingBlock: OJICUG_clean_linker_0, # of connection points: 2
#     Edge 51, Type (0, 0), BuildingBlock: OJICUG_clean_linker_0, # of connection points: 2
#     Edge 52, Type (0, 0), BuildingBlock: OJICUG_clean_linker_0, # of connection points: 2
#     Edge 53, Type (0, 0), BuildingBlock: OJICUG_clean_linker_0, # of connection points: 2
#     Edge 54, Type (0, 0), BuildingBlock: OJICUG_clean_linker_0, # of connection points: 2
#     Edge 55, Type (0, 0), BuildingBlock: OJICUG_clean_linker_0, # of connection points: 2
#     Edge 56, Type (0, 0), BuildingBlock: OJICUG_clean_linker_0, # of connection points: 2
#     Edge 57, Type (0, 0), BuildingBlock: OJICUG_clean_linker_0, # of connection points: 2
#     Edge 58, Type (0, 0), BuildingBlock: OJICUG_clean_linker_0, # of connection points: 2
#     Edge 59, Type (0, 0), BuildingBlock: OJICUG_clean_linker_0, # of connection points: 2
#     Edge 60, Type (0, 0), BuildingBlock: OJICUG_clean_linker_0, # of connection points: 2
#     Edge 61, Type (0, 0), BuildingBlock: OJICUG_clean_linker_0, # of connection points: 2
#     Edge 62, Type (0, 0), BuildingBlock: OJICUG_clean_linker_0, # of connection points: 2
#     Edge 63, Type (0, 0), BuildingBlock: OJICUG_clean_linker_0, # of connection points: 2
#     Edge 64, Type (0, 0), BuildingBlock: OJICUG_clean_linker_0, # of connection points: 2
#     Edge 65, Type (0, 0), BuildingBlock: OJICUG_clean_linker_0, # of connection points: 2
#     Edge 66, Type (0, 0), BuildingBlock: OJICUG_clean_linker_0, # of connection points: 2
#     Edge 67, Type (0, 0), BuildingBlock: OJICUG_clean_linker_0, # of connection points: 2
#     Edge 68, Type (0, 0), BuildingBlock: OJICUG_clean_linker_0, # of connection points: 2
#     Edge 69, Type (0, 0), BuildingBlock: OJICUG_clean_linker_0, # of connection points: 2
#     Edge 70, Type (0, 0), BuildingBlock: OJICUG_clean_linker_0, # of connection points: 2
#     Edge 71, Type (0, 0), BuildingBlock: OJICUG_clean_linker_0, # of connection points: 2
#     Edge 72, Type (0, 0), BuildingBlock: OJICUG_clean_linker_0, # of connection points: 2
#     Edge 73, Type (0, 0), BuildingBlock: OJICUG_clean_linker_0, # of connection points: 2
#     Edge 74, Type (0, 0), BuildingBlock: OJICUG_clean_linker_0, # of connection points: 2
#     Edge 75, Type (0, 0), BuildingBlock: OJICUG_clean_linker_0, # of connection points: 2
#     Edge 76, Type (0, 0), BuildingBlock: OJICUG_clean_linker_0, # of connection points: 2
#     Edge 77, Type (0, 0), BuildingBlock: OJICUG_clean_linker_0, # of connection points: 2
#     Edge 78, Type (0, 0), BuildingBlock: OJICUG_clean_linker_0, # of connection points: 2
#     Edge 79, Type (0, 0), BuildingBlock: OJICUG_clean_linker_0, # of connection points: 2
#     Edge 80, Type (0, 0), BuildingBlock: OJICUG_clean_linker_0, # of connection points: 2
#     Edge 81, Type (0, 0), BuildingBlock: OJICUG_clean_linker_0, # of connection points: 2
#     Edge 82, Type (0, 0), BuildingBlock: OJICUG_clean_linker_0, # of connection points: 2
#     Edge 83, Type (0, 0), BuildingBlock: OJICUG_clean_linker_0, # of connection points: 2
#     Edge 84, Type (0, 0), BuildingBlock: OJICUG_clean_linker_0, # of connection points: 2
#     Edge 85, Type (0, 0), BuildingBlock: OJICUG_clean_linker_0, # of connection points: 2
#     Edge 86, Type (0, 0), BuildingBlock: OJICUG_clean_linker_0, # of connection points: 2
#     Edge 87, Type (0, 0), BuildingBlock: OJICUG_clean_linker_0, # of connection points: 2
#     Edge 88, Type (0, 0), BuildingBlock: OJICUG_clean_linker_0, # of connection points: 2
#     Edge 89, Type (0, 0), BuildingBlock: OJICUG_clean_linker_0, # of connection points: 2
#     Edge 90, Type (0, 0), BuildingBlock: OJICUG_clean_linker_0, # of connection points: 2
#     Edge 91, Type (0, 0), BuildingBlock: OJICUG_clean_linker_0, # of connection points: 2
#     Edge 92, Type (0, 0), BuildingBlock: OJICUG_clean_linker_0, # of connection points: 2
#     Edge 93, Type (0, 0), BuildingBlock: OJICUG_clean_linker_0, # of connection points: 2
#     Edge 94, Type (0, 0), BuildingBlock: OJICUG_clean_linker_0, # of connection points: 2
#     Edge 95, Type (0, 0), BuildingBlock: OJICUG_clean_linker_0, # of connection points: 2
# Relax obj value: 0.004
# Max RMSD: 0.105
# Mean RMSD: 0.105
data_MOF--net-ukj--node1-ESEHIV_clean_sbu_0--edge1-OJICUG_clean_linker_0
_symmetry_space_group_name_H-M    P1
_symmetry_Int_Tables_number       1
_symmetry_cell_setting            triclinic
loop_
_symmetry_equiv_pos_as_xyz
'x, y, z'
_cell_length_a     30.054566
_cell_length_b     53.60583
_cell_length_c     39.978865
_cell_angle_alpha  90.002619
_cell_angle_beta   89.995341
_cell_angle_gamma 90.007405
loop_
_atom_site_label
_atom_site_type_symbol
_atom_site_fract_x
_atom_site_fract_y
_atom_site_fract_z
_atom_type_partial_charge
Cu0 Cu 0.1991 0.34416 0.27767 0.0
N1 N 0.26033 0.34086 0.28291 0.0
N2 N 0.33113 0.35336 0.28686 0.0
C3 C 0.28804 0.36042 0.28613 0.0
C4 C 0.33033 0.32823 0.284 0.0
C5 C 0.28656 0.32058 0.2815 0.0
O6 O 0.18149 0.36706 0.31274 0.0
C7 C 0.15637 0.36424 0.21843 0.0
O8 O 0.11952 0.36611 0.23593 0.0
H9 H 0.27663 0.37956 0.28649 0.0
H10 H 0.27483 0.30168 0.27803 0.0
N11 N 0.16966 0.31371 0.28353 0.0
N12 N 0.11517 0.28521 0.28326 0.0
C13 C 0.1299 0.30712 0.27067 0.0
C14 C 0.18064 0.29531 0.30485 0.0
C15 C 0.14723 0.27768 0.30467 0.0
C16 C 0.14582 0.36594 0.32984 0.0
O17 O 0.1135 0.35101 0.32047 0.0
H18 H 0.1111 0.31883 0.25382 0.0
H19 H 0.21011 0.29518 0.32038 0.0
O20 O 0.1916 0.35628 0.23234 0.0
H21 H 0.35924 0.31621 0.28336 0.0
H22 H 0.14638 0.26087 0.31963 0.0
Cu23 Cu 0.113 0.92995 0.27774 0.0
N24 N 0.05165 0.93257 0.28288 0.0
N25 N 0.98144 0.91903 0.28646 0.0
C26 C 1.02479 0.91258 0.28515 0.0
C27 C 0.98111 0.94422 0.28511 0.0
C28 C 1.02456 0.95253 0.28272 0.0
O29 O 0.13118 0.90722 0.31286 0.0
C30 C 0.15631 0.9101 0.21854 0.0
O31 O 0.19315 0.9084 0.23608 0.0
H32 H 0.03709 0.89361 0.28552 0.0
H33 H 0.03544 0.97167 0.28016 0.0
N34 N 0.14171 0.96063 0.28351 0.0
N35 N 0.19591 0.9893 0.28318 0.0
C36 C 0.18133 0.96737 0.27056 0.0
C37 C 0.13063 0.97895 0.30492 0.0
C38 C 0.16387 0.99669 0.3047 0.0
C39 C 0.16659 0.90877 0.3302 0.0
O40 O 0.19844 0.92408 0.32104 0.0
H41 H 0.20023 0.95573 0.25368 0.0
H42 H 0.1013 0.97892 0.32059 0.0
O43 O 0.12092 0.91787 0.23243 0.0
H44 H 0.95161 0.95579 0.2847 0.0
H45 H 0.16466 0.01345 0.31976 0.0
Cu46 Cu 0.19928 0.93052 1.01512 0.0
N47 N 0.26053 0.93371 1.00988 0.0
N48 N 0.33126 0.92109 1.00593 0.0
C49 C 0.28813 0.9141 1.00666 0.0
C50 C 0.33062 0.94622 1.00878 0.0
C51 C 0.28689 0.95395 1.01128 0.0
O52 O 0.18152 0.90772 0.97997 0.0
C53 C 0.15644 0.91038 0.07429 0.0
O54 O 0.11961 0.90856 0.05677 0.0
H55 H 0.27661 0.89498 1.0063 0.0
H56 H 0.27528 0.97287 1.01475 0.0
N57 N 0.16998 0.96103 1.00939 0.0
N58 N 0.11552 0.98954 1.0097 0.0
C59 C 0.1302 0.9676 0.02223 0.0
C60 C 0.18103 0.97947 0.98815 0.0
C61 C 0.14764 0.9971 0.98836 0.0
C62 C 0.14588 0.90897 0.96285 0.0
O63 O 0.11367 0.92394 0.97227 0.0
H64 H 0.11133 0.95585 0.039 0.0
H65 H 0.21052 0.97961 0.97264 0.0
O66 O 0.19171 0.91833 0.06041 0.0
H67 H 0.35959 0.95819 1.00941 0.0
H68 H 0.14683 0.01394 0.97345 0.0
Cu69 Cu 0.11311 0.34462 1.01496 0.0
N70 N 0.05175 0.34203 1.00979 0.0
N71 N 0.98158 0.35562 1.00618 0.0
C72 C 1.02495 0.36204 1.00749 0.0
C73 C 0.98119 0.33042 1.00756 0.0
C74 C 1.02461 0.32209 1.00997 0.0
O75 O 0.13136 0.36733 0.97984 0.0
C76 C 0.1564 0.36445 0.07417 0.0
O77 O 0.19326 0.36614 0.05665 0.0
H78 H 0.03729 0.381 1.0071 0.0
H79 H 0.03544 0.30295 1.01257 0.0
N80 N 0.14178 0.31392 1.00922 0.0
N81 N 0.19599 0.28525 1.00953 0.0
C82 C 0.18143 0.30719 0.02212 0.0
C83 C 0.13065 0.29558 0.98786 0.0
C84 C 0.16389 0.27784 0.98806 0.0
C85 C 0.16667 0.36569 0.9624 0.0
O86 O 0.19842 0.35028 0.97146 0.0
H87 H 0.20037 0.31886 0.03895 0.0
H88 H 0.10129 0.29559 0.97222 0.0
O89 O 0.12101 0.35671 0.06026 0.0
H90 H 0.95166 0.31887 1.00799 0.0
H91 H 0.16465 0.26106 0.97303 0.0
Cu92 Cu 0.86269 0.68037 0.76598 0.0
N93 N 0.80149 0.68376 0.76077 0.0
N94 N 0.73067 0.67131 0.75684 0.0
C95 C 0.77375 0.66423 0.75744 0.0
C96 C 0.7315 0.69643 0.7599 0.0
C97 C 0.7753 0.70405 0.76238 0.0
O98 O 0.88022 0.65762 0.73071 0.0
C99 C 0.90536 0.65999 0.82505 0.0
O100 O 0.94223 0.6582 0.80756 0.0
H101 H 0.78512 0.64508 0.75693 0.0
H102 H 0.78706 0.72293 0.76599 0.0
N103 N 0.89227 0.71079 0.76035 0.0
N104 N 0.94689 0.73921 0.76093 0.0
C105 C 0.93202 0.71727 0.77334 0.0
C106 C 0.88148 0.72927 0.7391 0.0
C107 C 0.91493 0.74687 0.73952 0.0
C108 C 0.91594 0.65876 0.71368 0.0
O109 O 0.94832 0.67357 0.72326 0.0
H110 H 0.95018 0.70577 0.79082 0.0
H111 H 0.85224 0.72939 0.72333 0.0
O112 O 0.87015 0.66802 0.81118 0.0
H113 H 0.7026 0.70845 0.7607 0.0
H114 H 0.91648 0.7634 0.72403 0.0
Cu115 Cu 0.94914 0.09463 0.76513 0.0
N116 N 1.0105 0.09207 0.76004 0.0
N117 N 0.08068 0.10563 0.75633 0.0
C118 C 0.03732 0.11206 0.75754 0.0
C119 C 0.08107 0.08045 0.75798 0.0
C120 C 0.03764 0.07212 0.76045 0.0
O121 O 0.93092 0.11733 0.72999 0.0
C122 C 0.90562 0.11439 0.82429 0.0
O123 O 0.86881 0.11604 0.8067 0.0
H124 H 1.02498 0.13102 0.75695 0.0
H125 H 1.0268 0.053 0.76324 0.0
N126 N 0.9206 0.06391 0.75932 0.0
N127 N 0.86661 0.03511 0.75964 0.0
C128 C 0.88099 0.05709 0.77221 0.0
C129 C 0.93187 0.04558 0.73797 0.0
C130 C 0.89877 0.02776 0.73818 0.0
C131 C 0.89545 0.11582 0.71272 0.0
O132 O 0.86356 0.10056 0.72194 0.0
H133 H 0.86198 0.06871 0.78905 0.0
H134 H 0.96126 0.04565 0.72236 0.0
O135 O 0.94108 0.10669 0.81044 0.0
H136 H 0.11059 0.0689 0.75856 0.0
H137 H 0.89814 1.01097 0.72317 0.0
Cu138 Cu 0.86213 0.09416 0.02772 0.0
N139 N 0.80087 0.09092 0.0329 0.0
N140 N 0.7301 0.10348 0.0368 0.0
C141 C 0.77321 0.1105 0.03606 0.0
C142 C 0.73083 0.07834 0.03401 0.0
C143 C 0.77458 0.07065 0.03155 0.0
O144 O 0.87975 0.11701 0.06285 0.0
C145 C 0.90506 0.11425 0.96856 0.0
O146 O 0.94185 0.11611 0.98613 0.0
H147 H 0.78467 0.12964 0.03639 0.0
H148 H 0.78626 0.05174 0.02814 0.0
N149 N 0.89148 0.06368 0.03354 0.0
N150 N 0.94599 0.03519 0.03328 0.0
C151 C 0.93126 0.05711 1.02071 0.0
C152 C 0.88047 0.04527 0.05483 0.0
C153 C 0.91388 0.02765 0.05466 0.0
C154 C 0.91531 0.11575 0.08006 0.0
O155 O 0.94751 0.10073 0.07076 0.0
H156 H 0.95011 0.06884 1.0039 0.0
H157 H 0.85099 0.04513 0.07034 0.0
O158 O 0.86977 0.10631 0.98241 0.0
H159 H 0.70189 0.06634 0.03341 0.0
H160 H 0.91472 1.01083 0.06961 0.0
Cu161 Cu 0.9482 0.67983 0.02839 0.0
N162 N 1.00954 0.6825 0.03357 0.0
N163 N 0.07976 0.66899 0.03716 0.0
C164 C 0.03641 0.66253 0.03592 0.0
C165 C 0.08008 0.69418 0.03568 0.0
C166 C 0.03663 0.70247 0.03328 0.0
O167 O 0.93002 0.65716 0.06357 0.0
C168 C 0.90511 0.65975 0.96926 0.0
O169 O 0.86824 0.65802 0.98676 0.0
H170 H 1.02412 0.64355 0.03638 0.0
H171 H 1.02574 0.72159 0.03061 0.0
N172 N 0.91937 0.71049 0.034 0.0
N173 N 0.86506 0.73909 0.03353 0.0
C174 C 0.87968 0.71712 1.02107 0.0
C175 C 0.93045 0.72892 0.05524 0.0
C176 C 0.89715 0.74662 0.05493 0.0
C177 C 0.89452 0.65863 0.08082 0.0
O178 O 0.86257 0.67383 0.07155 0.0
H179 H 0.86078 0.70538 1.00431 0.0
H180 H 0.95983 0.72901 0.07084 0.0
O181 O 0.94042 0.66762 0.98314 0.0
H182 H 0.10958 0.70576 0.03516 0.0
H183 H 0.89634 0.76345 0.06984 0.0
Cu184 Cu 0.19934 0.84475 0.77781 0.0
N185 N 0.26067 0.84207 0.78303 0.0
N186 N 0.33091 0.85554 0.78663 0.0
C187 C 0.2876 0.86204 0.78507 0.0
C188 C 0.33114 0.83034 0.78568 0.0
C189 C 0.28767 0.82207 0.78328 0.0
O190 O 0.18119 0.86757 0.81284 0.0
C191 C 0.15616 0.86458 0.71858 0.0
O192 O 0.11933 0.86636 0.73611 0.0
H193 H 0.27538 0.88103 0.78514 0.0
H194 H 0.27671 0.80292 0.78104 0.0
N195 N 0.17046 0.81415 0.78369 0.0
N196 N 0.11601 0.78562 0.78338 0.0
C197 C 0.13084 0.80747 0.77069 0.0
C198 C 0.18125 0.79587 0.80525 0.0
C199 C 0.1479 0.77819 0.80498 0.0
C200 C 0.14573 0.86609 0.83014 0.0
O201 O 0.11382 0.85082 0.82097 0.0
H202 H 0.11266 0.81883 0.75303 0.0
H203 H 0.21032 0.79596 0.82119 0.0
O204 O 0.19151 0.85677 0.73247 0.0
H205 H 0.36059 0.81872 0.78558 0.0
H206 H 0.1463 0.76179 0.82074 0.0
Cu207 Cu 0.11305 0.43029 0.77754 0.0
N208 N 0.05182 0.43357 0.78277 0.0
N209 N 0.98103 0.42108 0.78675 0.0
C210 C 1.02412 0.41402 0.78605 0.0
C211 C 0.98181 0.44621 0.78381 0.0
C212 C 1.02559 0.45386 0.78129 0.0
O213 O 0.13067 0.40742 0.81264 0.0
C214 C 0.15587 0.41026 0.7183 0.0
O215 O 0.19271 0.40841 0.73582 0.0
H216 H 0.03552 0.39488 0.78647 0.0
H217 H 0.03731 0.47275 0.77777 0.0
N218 N 0.14244 0.46075 0.78342 0.0
N219 N 0.19696 0.48923 0.78327 0.0
C220 C 0.18224 0.46734 0.77061 0.0
C221 C 0.13143 0.47912 0.80477 0.0
C222 C 0.16486 0.49674 0.80467 0.0
C223 C 0.16639 0.40854 0.82968 0.0
O224 O 0.19874 0.42341 0.82018 0.0
H225 H 0.20109 0.45565 0.75376 0.0
H226 H 0.10195 0.47922 0.82028 0.0
O227 O 0.12061 0.41817 0.73221 0.0
H228 H 0.95291 0.45823 0.78314 0.0
H229 H 0.16571 0.51352 0.81968 0.0
Cu230 Cu 0.19941 0.43021 0.51491 0.0
N231 N 0.26077 0.43279 0.50977 0.0
N232 N 0.33095 0.4192 0.50619 0.0
C233 C 0.28758 0.41278 0.50753 0.0
C234 C 0.33134 0.4444 0.50749 0.0
C235 C 0.28791 0.45274 0.50988 0.0
O236 O 0.18117 0.40752 0.47977 0.0
C237 C 0.15607 0.41028 0.57405 0.0
O238 O 0.11924 0.4086 0.55649 0.0
H239 H 0.27524 0.39382 0.5072 0.0
H240 H 0.27707 0.47188 0.51239 0.0
N241 N 0.17075 0.46091 0.50923 0.0
N242 N 0.1166 0.48962 0.50977 0.0
C243 C 0.1312 0.46767 0.5223 0.0
C244 C 0.18176 0.47925 0.48782 0.0
C245 C 0.14856 0.49701 0.48816 0.0
C246 C 0.1458 0.40912 0.46239 0.0
O247 O 0.11402 0.42449 0.47149 0.0
H248 H 0.11237 0.45602 0.53922 0.0
H249 H 0.21102 0.47922 0.47207 0.0
O250 O 0.19146 0.41807 0.56019 0.0
H251 H 0.36086 0.45596 0.50787 0.0
H252 H 0.14772 0.51379 0.47314 0.0
Cu253 Cu 0.11326 0.84418 0.51514 0.0
N254 N 0.05201 0.84093 0.50988 0.0
N255 N 0.98125 0.85348 0.50589 0.0
C256 C 1.02436 0.86051 0.50669 0.0
C257 C 0.98197 0.82835 0.50867 0.0
C258 C 1.02573 0.82066 0.5112 0.0
O259 O 0.13094 0.86702 0.48 0.0
C260 C 0.15606 0.86431 0.57432 0.0
O261 O 0.19289 0.86613 0.5568 0.0
H262 H 0.03581 0.87965 0.50639 0.0
H263 H 0.0374 0.80175 0.5146 0.0
N264 N 0.14265 0.81371 0.50936 0.0
N265 N 0.19716 0.78522 0.50966 0.0
C266 C 0.18242 0.80713 0.52223 0.0
C267 C 0.13168 0.7953 0.48806 0.0
C268 C 0.16509 0.77768 0.48826 0.0
C269 C 0.16656 0.86581 0.46286 0.0
O270 O 0.1988 0.85084 0.47223 0.0
H271 H 0.20124 0.81886 0.53906 0.0
H272 H 0.10223 0.79516 0.47252 0.0
O273 O 0.12079 0.85637 0.56043 0.0
H274 H 0.95304 0.81634 0.50922 0.0
H275 H 0.16596 0.76086 0.47331 0.0
Cu276 Cu 0.86205 0.18038 0.26502 0.0
N277 N 0.8008 0.18362 0.25984 0.0
N278 N 0.73002 0.17108 0.25591 0.0
C279 C 0.77312 0.16404 0.25665 0.0
C280 C 0.73077 0.19621 0.25874 0.0
C281 C 0.77453 0.20389 0.26122 0.0
O282 O 0.87968 0.15753 0.22988 0.0
C283 C 0.90501 0.1603 0.32417 0.0
O284 O 0.94179 0.15847 0.30658 0.0
H285 H 0.78456 0.14491 0.25629 0.0
H286 H 0.78623 0.2228 0.26465 0.0
N287 N 0.89138 0.21087 0.25919 0.0
N288 N 0.94581 0.2394 0.25948 0.0
C289 C 0.9311 0.21749 0.27207 0.0
C290 C 0.88039 0.22925 0.23784 0.0
C291 C 0.91376 0.2469 0.23804 0.0
C292 C 0.91525 0.15879 0.21269 0.0
O293 O 0.94745 0.17382 0.22201 0.0
H294 H 0.94992 0.20579 0.28894 0.0
H295 H 0.85095 0.22934 0.22229 0.0
O296 O 0.8697 0.16823 0.31033 0.0
H297 H 0.70185 0.20822 0.25934 0.0
H298 H 0.91461 0.2637 0.22306 0.0
Cu299 Cu 0.94828 0.59446 0.26583 0.0
N300 N 1.00963 0.59184 0.26061 0.0
N301 N 0.07982 0.60539 0.25694 0.0
C302 C 0.03647 0.61183 0.25825 0.0
C303 C 0.08017 0.5802 0.25838 0.0
C304 C 0.03674 0.57188 0.26083 0.0
O305 O 0.93004 0.61722 0.23078 0.0
C306 C 0.90515 0.61431 0.3251 0.0
O307 O 0.86825 0.616 0.30763 0.0
H308 H 1.02416 0.6308 0.25783 0.0
H309 H 1.02587 0.55275 0.26348 0.0
N310 N 0.91957 0.56379 0.26003 0.0
N311 N 0.86533 0.53513 0.26024 0.0
C312 C 0.87988 0.55706 0.27288 0.0
C313 C 0.93072 0.54546 0.23865 0.0
C314 C 0.89746 0.52773 0.23879 0.0
C315 C 0.89455 0.61574 0.21352 0.0
O316 O 0.86264 0.60048 0.22273 0.0
H317 H 0.86092 0.56871 0.28971 0.0
H318 H 0.96011 0.54548 0.22305 0.0
O319 O 0.94048 0.60652 0.31115 0.0
H320 H 0.10968 0.56863 0.25882 0.0
H321 H 0.89671 0.51096 0.22374 0.0
Cu322 Cu 0.86314 0.59423 0.52865 0.0
N323 N 0.80192 0.59092 0.53401 0.0
N324 N 0.73111 0.60341 0.53791 0.0
C325 C 0.7742 0.61048 0.53706 0.0
C326 C 0.73193 0.57826 0.53532 0.0
C327 C 0.77571 0.57061 0.53285 0.0
O328 O 0.88085 0.61715 0.56369 0.0
C329 C 0.90563 0.61435 0.46934 0.0
O330 O 0.94253 0.61626 0.48678 0.0
H331 H 0.78558 0.62963 0.53721 0.0
H332 H 0.78745 0.5517 0.52956 0.0
N333 N 0.89268 0.5638 0.5344 0.0
N334 N 0.94732 0.53539 0.53399 0.0
C335 C 0.93241 0.55726 0.52142 0.0
C336 C 0.8819 0.5454 0.55578 0.0
C337 C 0.91539 0.52782 0.55551 0.0
C338 C 0.9163 0.61581 0.58101 0.0
O339 O 0.94836 0.60063 0.57188 0.0
H340 H 0.95108 0.56899 0.50451 0.0
H341 H 0.85254 0.54525 0.57141 0.0
O342 O 0.87046 0.60637 0.48332 0.0
H343 H 0.70304 0.56622 0.53484 0.0
H344 H 0.91641 0.51103 0.5705 0.0
Cu345 Cu 0.9491 0.17991 0.52757 0.0
N346 N 1.01048 0.18247 0.53266 0.0
N347 N 0.08065 0.16889 0.53631 0.0
C348 C 0.03728 0.16247 0.53508 0.0
C349 C 0.08106 0.19408 0.53476 0.0
C350 C 0.03764 0.20241 0.53234 0.0
O351 O 0.93089 0.15721 0.56272 0.0
C352 C 0.9056 0.16011 0.46843 0.0
O353 O 0.8688 0.15844 0.48603 0.0
H354 H 1.02493 0.14351 0.53559 0.0
H355 H 1.02681 0.22154 0.52963 0.0
N356 N 0.92052 0.21062 0.53338 0.0
N357 N 0.86643 0.23936 0.53308 0.0
C358 C 0.88087 0.21739 0.5205 0.0
C359 C 0.93175 0.22897 0.5547 0.0
C360 C 0.89859 0.24675 0.5545 0.0
C361 C 0.89543 0.15872 0.58001 0.0
O362 O 0.86353 0.17397 0.5708 0.0
H363 H 0.86187 0.20574 0.50369 0.0
H364 H 0.96116 0.22894 0.57029 0.0
O365 O 0.94105 0.16784 0.48227 0.0
H366 H 0.11059 0.20562 0.53425 0.0
H367 H 0.89792 0.26355 0.5695 0.0
Cu368 Cu 0.69915 0.34457 0.7779 0.0
N369 N 0.76049 0.34196 0.78306 0.0
N370 N 0.8307 0.3555 0.78664 0.0
C371 C 0.78735 0.36195 0.78526 0.0
C372 C 0.83102 0.3303 0.7854 0.0
C373 C 0.78758 0.32199 0.78302 0.0
O374 O 0.68095 0.36734 0.81297 0.0
C375 C 0.65588 0.36439 0.71868 0.0
O376 O 0.61902 0.3661 0.73621 0.0
H377 H 0.77507 0.38092 0.78554 0.0
H378 H 0.77669 0.30285 0.78055 0.0
N379 N 0.67046 0.31389 0.78371 0.0
N380 N 0.61632 0.28519 0.7833 0.0
C381 C 0.63092 0.3071 0.77067 0.0
C382 C 0.68145 0.29562 0.80522 0.0
C383 C 0.64825 0.27786 0.80495 0.0
C384 C 0.64563 0.36574 0.83041 0.0
O385 O 0.61385 0.35033 0.82139 0.0
H386 H 0.61211 0.3187 0.75368 0.0
H387 H 0.7107 0.29569 0.82097 0.0
O388 O 0.69125 0.35663 0.73258 0.0
H389 H 0.86051 0.31872 0.78507 0.0
H390 H 0.6474 0.26112 0.82006 0.0
Cu391 Cu 0.61346 0.9301 0.7775 0.0
N392 N 0.55224 0.93344 0.78273 0.0
N393 N 0.4814 0.92101 0.78668 0.0
C394 C 0.52448 0.91392 0.7861 0.0
C395 C 0.48225 0.94612 0.78356 0.0
C396 C 0.52605 0.95373 0.78106 0.0
O397 O 0.631 0.90718 0.81258 0.0
C398 C 0.6562 0.91008 0.71822 0.0
O399 O 0.69306 0.90821 0.7357 0.0
H400 H 0.53584 0.89477 0.78667 0.0
H401 H 0.53782 0.9726 0.77738 0.0
N402 N 0.64292 0.96054 0.78338 0.0
N403 N 0.69743 0.98903 0.78319 0.0
C404 C 0.68275 0.96711 0.77061 0.0
C405 C 0.63184 0.97896 0.80463 0.0
C406 C 0.66525 0.99659 0.8045 0.0
C407 C 0.66663 0.90832 0.82972 0.0
O408 O 0.69896 0.92324 0.82037 0.0
H409 H 0.70164 0.95538 0.75383 0.0
H410 H 0.60229 0.97912 0.82007 0.0
O411 O 0.62096 0.91799 0.73216 0.0
H412 H 0.45337 0.95815 0.78272 0.0
H413 H 0.66603 0.01343 0.81941 0.0
Cu414 Cu 0.69947 0.93013 0.51481 0.0
N415 N 0.76084 0.93272 0.50967 0.0
N416 N 0.83102 0.91914 0.5061 0.0
C417 C 0.78765 0.91272 0.50735 0.0
C418 C 0.83141 0.94434 0.50755 0.0
C419 C 0.78798 0.95267 0.50993 0.0
O420 O 0.68126 0.90744 0.47964 0.0
C421 C 0.65617 0.91019 0.57396 0.0
O422 O 0.61931 0.90851 0.55643 0.0
H423 H 0.77532 0.89375 0.50691 0.0
H424 H 0.77714 0.9718 0.51257 0.0
N425 N 0.6708 0.96082 0.50911 0.0
N426 N 0.6166 0.9895 0.50951 0.0
C427 C 0.63115 0.96754 0.52204 0.0
C428 C 0.68192 0.9792 0.4878 0.0
C429 C 0.64869 0.99694 0.48806 0.0
C430 C 0.64586 0.90901 0.4623 0.0
O431 O 0.61403 0.92433 0.47146 0.0
H432 H 0.61222 0.95585 0.53885 0.0
H433 H 0.71129 0.97921 0.47216 0.0
O434 O 0.69154 0.91798 0.56008 0.0
H435 H 0.86093 0.95589 0.50804 0.0
H436 H 0.64793 0.01374 0.47308 0.0
Cu437 Cu 0.61313 0.34419 0.5152 0.0
N438 N 0.55188 0.34094 0.50995 0.0
N439 N 0.48112 0.35351 0.50599 0.0
C440 C 0.52424 0.36052 0.50671 0.0
C441 C 0.48183 0.32838 0.50887 0.0
C442 C 0.52558 0.32068 0.51138 0.0
O443 O 0.63082 0.36703 0.48008 0.0
C444 C 0.65589 0.36428 0.57443 0.0
O445 O 0.69274 0.36612 0.55693 0.0
H446 H 0.53571 0.37966 0.50633 0.0
H447 H 0.53723 0.30177 0.51487 0.0
N448 N 0.64252 0.31371 0.50942 0.0
N449 N 0.69705 0.28524 0.50964 0.0
C450 C 0.68234 0.30716 0.5222 0.0
C451 C 0.63146 0.29527 0.48818 0.0
C452 C 0.66489 0.27766 0.48834 0.0
C453 C 0.66647 0.36583 0.46296 0.0
O454 O 0.69873 0.35089 0.47238 0.0
H455 H 0.70123 0.31891 0.53896 0.0
H456 H 0.60194 0.29511 0.47272 0.0
O457 O 0.62064 0.35635 0.56051 0.0
H458 H 0.45289 0.31638 0.50952 0.0
H459 H 0.66569 0.26082 0.47342 0.0
Cu460 Cu 0.36211 0.68035 0.26547 0.0
N461 N 0.30085 0.68358 0.26033 0.0
N462 N 0.23008 0.67103 0.25647 0.0
C463 C 0.27318 0.664 0.25718 0.0
C464 C 0.23082 0.69616 0.25927 0.0
C465 C 0.27458 0.70385 0.26171 0.0
O466 O 0.37971 0.6575 0.23032 0.0
C467 C 0.40515 0.66029 0.32459 0.0
O468 O 0.44193 0.65847 0.307 0.0
H469 H 0.28463 0.64486 0.25684 0.0
H470 H 0.28627 0.72276 0.26511 0.0
N471 N 0.39141 0.71084 0.25959 0.0
N472 N 0.44585 0.73937 0.25979 0.0
C473 C 0.43117 0.71746 0.27242 0.0
C474 C 0.38038 0.72921 0.23824 0.0
C475 C 0.41376 0.74686 0.23838 0.0
C476 C 0.4153 0.65874 0.21314 0.0
O477 O 0.44752 0.67374 0.22248 0.0
H478 H 0.45002 0.70578 0.28927 0.0
H479 H 0.35092 0.72929 0.22272 0.0
O480 O 0.36983 0.6682 0.31077 0.0
H481 H 0.2019 0.70817 0.25989 0.0
H482 H 0.41458 0.76365 0.22338 0.0
Cu483 Cu 0.44816 0.09457 0.26494 0.0
N484 N 0.50951 0.09194 0.25974 0.0
N485 N 0.57971 0.10547 0.25615 0.0
C486 C 0.53637 0.11193 0.25745 0.0
C487 C 0.58004 0.08028 0.25752 0.0
C488 C 0.53659 0.07197 0.25992 0.0
O489 O 0.42996 0.11733 0.22985 0.0
C490 C 0.40502 0.11441 0.32421 0.0
O491 O 0.36811 0.11611 0.30675 0.0
H492 H 0.52408 0.1309 0.25708 0.0
H493 H 0.5257 0.05284 0.26251 0.0
N494 N 0.41941 0.06391 0.25916 0.0
N495 N 0.36519 0.03524 0.25949 0.0
C496 C 0.37978 0.05718 0.2721 0.0
C497 C 0.43049 0.04558 0.23776 0.0
C498 C 0.39725 0.02784 0.23799 0.0
C499 C 0.39449 0.11584 0.21257 0.0
O500 O 0.36258 0.10058 0.22176 0.0
H501 H 0.36088 0.06883 0.28897 0.0
H502 H 0.45984 0.04559 0.22211 0.0
O503 O 0.44035 0.10665 0.31025 0.0
H504 H 0.60954 0.0687 0.25795 0.0
H505 H 0.39645 1.01107 0.22294 0.0
Cu506 Cu 0.36288 0.09397 0.52771 0.0
N507 N 0.30164 0.09068 0.53301 0.0
N508 N 0.23086 0.10322 0.53694 0.0
C509 C 0.27397 0.11026 0.53614 0.0
C510 C 0.23161 0.07808 0.53422 0.0
C511 C 0.27538 0.0704 0.53173 0.0
O512 O 0.38054 0.11684 0.5628 0.0
C513 C 0.40545 0.11416 0.46846 0.0
O514 O 0.44233 0.11604 0.48591 0.0
H515 H 0.28541 0.1294 0.53639 0.0
H516 H 0.28706 0.05149 0.52836 0.0
N517 N 0.39239 0.06353 0.53344 0.0
N518 N 0.44705 0.03513 0.53315 0.0
C519 C 0.43221 0.05703 0.52061 0.0
C520 C 0.38146 0.04508 0.5547 0.0
C521 C 0.41496 0.02751 0.5545 0.0
C522 C 0.41613 0.11562 0.57998 0.0
O523 O 0.44835 0.10061 0.57066 0.0
H524 H 0.45101 0.06881 0.50383 0.0
H525 H 0.35198 0.04488 0.57021 0.0
O526 O 0.37027 0.10616 0.4824 0.0
H527 H 0.20269 0.06607 0.53367 0.0
H528 H 0.41588 1.01068 0.56942 0.0
Cu529 Cu 0.44916 0.67988 0.52801 0.0
N530 N 0.51053 0.68247 0.53318 0.0
N531 N 0.58072 0.66895 0.53697 0.0
C532 C 0.53737 0.66249 0.53567 0.0
C533 C 0.58107 0.69413 0.53538 0.0
C534 C 0.53764 0.70243 0.53287 0.0
O535 O 0.4309 0.65717 0.56313 0.0
C536 C 0.40576 0.66007 0.46886 0.0
O537 O 0.36897 0.65837 0.48645 0.0
H538 H 0.52506 0.64352 0.53621 0.0
H539 H 0.52677 0.72155 0.53012 0.0
N540 N 0.42053 0.71058 0.53379 0.0
N541 N 0.36643 0.73931 0.53342 0.0
C542 C 0.38093 0.71736 0.52084 0.0
C543 C 0.43167 0.72891 0.55518 0.0
C544 C 0.3985 0.74668 0.55494 0.0
C545 C 0.39541 0.65869 0.58039 0.0
O546 O 0.36353 0.67395 0.57115 0.0
H547 H 0.36201 0.70572 0.50396 0.0
H548 H 0.46101 0.72887 0.57084 0.0
O549 O 0.4412 0.66782 0.4827 0.0
H550 H 0.61058 0.7057 0.53489 0.0
H551 H 0.39776 0.76346 0.56997 0.0
Cu552 Cu 0.69912 0.84415 0.27753 0.0
N553 N 0.76035 0.8409 0.28277 0.0
N554 N 0.83114 0.85342 0.28671 0.0
C555 C 0.78804 0.86047 0.28598 0.0
C556 C 0.83037 0.82829 0.28386 0.0
C557 C 0.78661 0.82062 0.28136 0.0
O558 O 0.68148 0.86707 0.31258 0.0
C559 C 0.65629 0.86414 0.21828 0.0
O560 O 0.61946 0.86601 0.2358 0.0
H561 H 0.77661 0.87961 0.28634 0.0
H562 H 0.7749 0.80172 0.2779 0.0
N563 N 0.66974 0.81369 0.28346 0.0
N564 N 0.61527 0.78518 0.28328 0.0
C565 C 0.62998 0.80708 0.27064 0.0
C566 C 0.68077 0.79532 0.30481 0.0
C567 C 0.64737 0.77768 0.30468 0.0
C568 C 0.64583 0.86592 0.3297 0.0
O569 O 0.61355 0.85097 0.32035 0.0
H570 H 0.61113 0.81877 0.25378 0.0
H571 H 0.71025 0.79522 0.32032 0.0
O572 O 0.69155 0.85623 0.23219 0.0
H573 H 0.85929 0.81628 0.28324 0.0
H574 H 0.64655 0.76089 0.31968 0.0
Cu575 Cu 0.61302 0.42989 0.27779 0.0
N576 N 0.55166 0.43249 0.28292 0.0
N577 N 0.48146 0.41895 0.28652 0.0
C578 C 0.52481 0.4125 0.28522 0.0
C579 C 0.48112 0.44414 0.28514 0.0
C580 C 0.52456 0.45245 0.28274 0.0
O581 O 0.6312 0.40715 0.31289 0.0
C582 C 0.6564 0.41011 0.21858 0.0
O583 O 0.69324 0.40842 0.23613 0.0
H584 H 0.53711 0.39353 0.28561 0.0
H585 H 0.53544 0.47158 0.28015 0.0
N586 N 0.64169 0.46057 0.28363 0.0
N587 N 0.69589 0.48925 0.28344 0.0
C588 C 0.68135 0.46733 0.27077 0.0
C589 C 0.63054 0.47887 0.30505 0.0
C590 C 0.66378 0.49661 0.30492 0.0
C591 C 0.66659 0.40871 0.33025 0.0
O592 O 0.69843 0.42403 0.32111 0.0
H593 H 0.70031 0.4557 0.25391 0.0
H594 H 0.60117 0.47883 0.32067 0.0
O595 O 0.62099 0.41784 0.23247 0.0
H596 H 0.45162 0.45571 0.28472 0.0
H597 H 0.66453 0.51336 0.32001 0.0
Cu598 Cu 0.69937 0.43057 1.01515 0.0
N599 N 0.76061 0.43383 1.00989 0.0
N600 N 0.83138 0.42129 1.00591 0.0
C601 C 0.78827 0.41426 1.00667 0.0
C602 C 0.83065 0.44642 1.00876 0.0
C603 C 0.78689 0.4541 1.01127 0.0
O604 O 0.68169 0.40773 0.98002 0.0
C605 C 0.6566 0.41041 0.07433 0.0
O606 O 0.61978 0.40855 0.0568 0.0
H607 H 0.77682 0.39512 1.00632 0.0
H608 H 0.77521 0.47301 1.01473 0.0
N609 N 0.66997 0.46104 1.00938 0.0
N610 N 0.61546 0.48952 1.00975 0.0
C611 C 0.63021 0.4676 0.02227 0.0
C612 C 0.68093 0.47946 0.9881 0.0
C613 C 0.64751 0.49708 0.98834 0.0
C614 C 0.64598 0.40886 0.96298 0.0
O615 O 0.61367 0.42376 0.97245 0.0
H616 H 0.61142 0.45586 0.0391 0.0
H617 H 0.71037 0.47962 0.97255 0.0
O618 O 0.69184 0.41839 0.06045 0.0
H619 H 0.85958 0.45843 1.00937 0.0
H620 H 0.64663 0.51391 0.97342 0.0
Cu621 Cu 0.6128 0.84423 1.01488 0.0
N622 N 0.55143 0.84166 1.00974 0.0
N623 N 0.48128 0.85528 1.00616 0.0
C624 C 0.52466 0.86168 1.00747 0.0
C625 C 0.48085 0.83009 1.00752 0.0
C626 C 0.52426 0.82172 1.0099 0.0
O627 O 0.63106 0.86688 0.9797 0.0
C628 C 0.65612 0.86417 0.07401 0.0
O629 O 0.69296 0.86584 0.05647 0.0
H630 H 0.53703 0.88064 1.0071 0.0
H631 H 0.53506 0.80258 1.01247 0.0
N632 N 0.64146 0.81352 1.00924 0.0
N633 N 0.69567 0.78485 1.00971 0.0
C634 C 0.6811 0.80682 0.0222 0.0
C635 C 0.63037 0.79513 0.98793 0.0
C636 C 0.6636 0.77739 0.98824 0.0
C637 C 0.66645 0.86527 0.96234 0.0
O638 O 0.69824 0.84993 0.9715 0.0
H639 H 0.7 0.81852 0.03901 0.0
H640 H 0.60103 0.79511 0.97228 0.0
O641 O 0.62073 0.85638 0.06015 0.0
H642 H 0.4513 0.81855 1.00793 0.0
H643 H 0.66438 0.76058 0.97327 0.0
Cu644 Cu 0.36297 0.18047 0.76478 0.0
N645 N 0.30175 0.18376 0.75946 0.0
N646 N 0.23096 0.17125 0.75553 0.0
C647 C 0.27405 0.16419 0.7564 0.0
C648 C 0.23175 0.1964 0.75815 0.0
C649 C 0.27552 0.20406 0.76063 0.0
O650 O 0.38063 0.15756 0.72973 0.0
C651 C 0.40555 0.16036 0.82406 0.0
O652 O 0.44243 0.15848 0.8066 0.0
H653 H 0.28545 0.14505 0.75623 0.0
H654 H 0.28724 0.22298 0.76392 0.0
N655 N 0.39246 0.21091 0.75897 0.0
N656 N 0.44705 0.23935 0.75929 0.0
C657 C 0.43218 0.21748 0.77192 0.0
C658 C 0.38164 0.22927 0.73756 0.0
C659 C 0.4151 0.24687 0.73777 0.0
C660 C 0.41619 0.15881 0.71251 0.0
O661 O 0.44836 0.17387 0.72177 0.0
H662 H 0.45088 0.20578 0.78885 0.0
H663 H 0.35227 0.22939 0.72193 0.0
O664 O 0.37036 0.16833 0.81011 0.0
H665 H 0.20285 0.20842 0.75861 0.0
H666 H 0.4161 0.26364 0.72274 0.0
Cu667 Cu 0.44885 0.59466 0.76556 0.0
N668 N 0.51023 0.59211 0.76051 0.0
N669 N 0.58041 0.60569 0.75699 0.0
C670 C 0.53706 0.61213 0.75842 0.0
C671 C 0.58077 0.58049 0.75808 0.0
C672 C 0.53734 0.57216 0.76043 0.0
O673 O 0.43069 0.61738 0.73044 0.0
C674 C 0.40528 0.61437 0.82473 0.0
O675 O 0.36847 0.61601 0.80716 0.0
H676 H 0.52475 0.63109 0.75823 0.0
H677 H 0.52648 0.553 0.76276 0.0
N678 N 0.42032 0.56395 0.75965 0.0
N679 N 0.36627 0.53519 0.75986 0.0
C680 C 0.38076 0.5571 0.77259 0.0
C681 C 0.43145 0.54572 0.7381 0.0
C682 C 0.39831 0.52792 0.73825 0.0
C683 C 0.39523 0.61588 0.71314 0.0
O684 O 0.36332 0.60063 0.72236 0.0
H685 H 0.36184 0.56866 0.78956 0.0
H686 H 0.46074 0.54586 0.72239 0.0
O687 O 0.44075 0.60669 0.81087 0.0
H688 H 0.61028 0.56893 0.75831 0.0
H689 H 0.39756 0.51121 0.72308 0.0
Cu690 Cu 0.36208 0.59411 0.02819 0.0
N691 N 0.30084 0.59086 0.03346 0.0
N692 N 0.23007 0.6034 0.03743 0.0
C693 C 0.27318 0.61044 0.03662 0.0
C694 C 0.23082 0.57826 0.03468 0.0
C695 C 0.27458 0.57058 0.03217 0.0
O696 O 0.37976 0.61698 0.0633 0.0
C697 C 0.40489 0.61422 0.969 0.0
O698 O 0.44169 0.6161 0.98655 0.0
H699 H 0.28462 0.62958 0.03691 0.0
H700 H 0.28626 0.55167 0.02878 0.0
N701 N 0.39148 0.56364 0.03399 0.0
N702 N 0.446 0.53516 0.03364 0.0
C703 C 0.43122 0.55707 1.02108 0.0
C704 C 0.38055 0.54524 0.05532 0.0
C705 C 0.41397 0.52762 0.05509 0.0
C706 C 0.41531 0.6157 0.08051 0.0
O707 O 0.44748 0.60065 0.07123 0.0
H708 H 0.44999 0.56879 1.00422 0.0
H709 H 0.35113 0.5451 0.07089 0.0
O710 O 0.36963 0.60626 0.98288 0.0
H711 H 0.2019 0.56624 0.03414 0.0
H712 H 0.41487 0.51081 0.07005 0.0
Cu713 Cu 0.44833 0.18007 0.02756 0.0
N714 N 0.50969 0.18269 0.03276 0.0
N715 N 0.57987 0.16913 0.0364 0.0
C716 C 0.53651 0.16269 0.03511 0.0
C717 C 0.58024 0.19432 0.03496 0.0
C718 C 0.53681 0.20264 0.03253 0.0
O719 O 0.43009 0.15734 0.06266 0.0
C720 C 0.40518 0.16021 0.96831 0.0
O721 O 0.36828 0.15851 0.98578 0.0
H722 H 0.52419 0.14373 0.03553 0.0
H723 H 0.52596 0.22177 0.02988 0.0
N724 N 0.41961 0.21075 0.0333 0.0
N725 N 0.36538 0.2394 0.033 0.0
C726 C 0.37993 0.21745 1.02042 0.0
C727 C 0.43074 0.22911 0.05464 0.0
C728 C 0.39749 0.24684 0.05443 0.0
C729 C 0.39459 0.15882 0.07992 0.0
O730 O 0.36269 0.17407 0.07069 0.0
H731 H 0.36099 0.20577 1.00361 0.0
H732 H 0.46013 0.22912 0.07025 0.0
O733 O 0.44052 0.16798 0.98225 0.0
H734 H 0.60976 0.20589 0.03449 0.0
H735 H 0.39673 0.26363 0.06944 0.0
C736 C 0.19663 0.36866 0.16379 0.0
C737 C 0.15627 0.36812 0.18169 0.0
H738 H 0.22841 0.3683 0.11582 0.0
C739 C 0.1161 0.36909 0.16382 0.0
H740 H 0.22822 0.36813 0.17682 0.0
C741 C 0.11626 0.36903 0.12882 0.0
C742 C 0.1566 0.36825 0.11092 0.0
H743 H 0.08447 0.36875 0.1768 0.0
H744 H 0.08466 0.36879 0.1158 0.0
C745 C 0.19679 0.36885 0.12879 0.0
C746 C 0.1161 0.90551 0.12887 0.0
C747 C 0.1563 0.90646 0.11102 0.0
H748 H 0.0846 0.90583 0.17688 0.0
C749 C 0.19663 0.90589 0.12894 0.0
H750 H 0.08449 0.90588 0.11588 0.0
C751 C 0.19675 0.90569 0.16394 0.0
C752 C 0.15654 0.90632 0.18179 0.0
H753 H 0.22824 0.90641 0.11593 0.0
H754 H 0.22836 0.90621 0.17693 0.0
C755 C 0.11622 0.90556 0.16387 0.0
C756 C 0.94557 0.65508 0.87966 0.0
C757 C 0.90542 0.65601 0.86176 0.0
H758 H 0.97694 0.65545 0.92771 0.0
C759 C 0.86504 0.65538 0.87962 0.0
H760 H 0.97722 0.65549 0.86671 0.0
C761 C 0.86482 0.6552 0.91462 0.0
C762 C 0.90499 0.65588 0.93252 0.0
H763 H 0.83347 0.65587 0.86657 0.0
H764 H 0.83318 0.6557 0.92757 0.0
C765 C 0.94536 0.65515 0.91466 0.0
C766 C 0.86502 0.11864 0.91383 0.0
C767 C 0.90531 0.11811 0.93182 0.0
H768 H 0.83344 0.11825 0.86578 0.0
C769 C 0.94555 0.11907 0.91403 0.0
H770 H 0.83338 0.11811 0.92678 0.0
C771 C 0.94554 0.11899 0.87903 0.0
C772 C 0.90527 0.11819 0.86104 0.0
H773 H 0.97713 0.11874 0.92708 0.0
H774 H 0.97719 0.11873 0.86608 0.0
C775 C 0.86501 0.1188 0.87883 0.0
C776 C 0.11574 0.86903 0.66397 0.0
C777 C 0.15595 0.86836 0.68182 0.0
H778 H 0.08426 0.86835 0.61596 0.0
C779 C 0.19627 0.86906 0.6639 0.0
H780 H 0.08413 0.86855 0.67697 0.0
C781 C 0.1964 0.86912 0.6289 0.0
C782 C 0.1562 0.86822 0.61105 0.0
H783 H 0.22789 0.86876 0.67691 0.0
H784 H 0.22802 0.86871 0.61591 0.0
C785 C 0.11587 0.86883 0.62897 0.0
C786 C 0.19613 0.40563 0.62871 0.0
C787 C 0.15582 0.40643 0.61078 0.0
H788 H 0.22784 0.40585 0.67671 0.0
C789 C 0.1156 0.40577 0.62862 0.0
H790 H 0.22775 0.40593 0.61571 0.0
C791 C 0.1157 0.40589 0.66363 0.0
C792 C 0.15603 0.40642 0.68156 0.0
H793 H 0.08399 0.40632 0.61562 0.0
H794 H 0.08409 0.40638 0.67662 0.0
C795 C 0.19623 0.40551 0.66371 0.0
C796 C 0.94551 0.15549 0.37868 0.0
C797 C 0.90526 0.15643 0.3609 0.0
H798 H 0.97717 0.15582 0.42662 0.0
C799 C 0.86499 0.15588 0.3789 0.0
H800 H 0.97709 0.15584 0.36563 0.0
C801 C 0.86498 0.1557 0.4139 0.0
C802 C 0.90525 0.15633 0.43168 0.0
H803 H 0.83334 0.15639 0.36596 0.0
H804 H 0.83341 0.15623 0.42696 0.0
C805 C 0.94551 0.15556 0.41368 0.0
C806 C 0.94546 0.61898 0.37966 0.0
C807 C 0.90507 0.61817 0.36183 0.0
H808 H 0.97741 0.61878 0.42757 0.0
C809 C 0.86493 0.61882 0.37978 0.0
H810 H 0.97702 0.61869 0.36657 0.0
C811 C 0.8652 0.61871 0.41478 0.0
C812 C 0.90562 0.61819 0.4326 0.0
H813 H 0.83327 0.61826 0.36686 0.0
H814 H 0.83365 0.61821 0.42786 0.0
C815 C 0.94573 0.61911 0.41465 0.0
C816 C 0.69617 0.36908 0.62903 0.0
C817 C 0.65599 0.36815 0.61117 0.0
H818 H 0.72762 0.36871 0.67706 0.0
C819 C 0.61564 0.3687 0.62907 0.0
H820 H 0.7278 0.36873 0.61606 0.0
C821 C 0.61548 0.36885 0.66407 0.0
C822 C 0.65568 0.36821 0.68194 0.0
H823 H 0.58404 0.3682 0.61605 0.0
H824 H 0.58386 0.36832 0.67705 0.0
C825 C 0.69602 0.36899 0.66403 0.0
C826 C 0.69647 0.90536 0.66359 0.0
C827 C 0.65629 0.90626 0.68147 0.0
H828 H 0.72791 0.9058 0.61556 0.0
C829 C 0.61594 0.90574 0.66357 0.0
H830 H 0.7281 0.90569 0.67656 0.0
C831 C 0.61578 0.90564 0.62857 0.0
C832 C 0.65597 0.90631 0.61069 0.0
H833 H 0.58435 0.90623 0.6766 0.0
H834 H 0.58416 0.9062 0.6156 0.0
C835 C 0.69631 0.90551 0.62859 0.0
C836 C 0.36515 0.65582 0.37933 0.0
C837 C 0.40542 0.6564 0.36133 0.0
H838 H 0.33358 0.65614 0.42739 0.0
C839 C 0.44568 0.65549 0.3791 0.0
H840 H 0.3335 0.65631 0.36639 0.0
C841 C 0.44568 0.65555 0.4141 0.0
C842 C 0.40542 0.65629 0.43211 0.0
H843 H 0.47726 0.65587 0.36604 0.0
H844 H 0.47734 0.65584 0.42704 0.0
C845 C 0.36515 0.65563 0.41433 0.0
C846 C 0.44556 0.11905 0.41379 0.0
C847 C 0.40544 0.11807 0.43173 0.0
H848 H 0.47687 0.11874 0.36571 0.0
C849 C 0.36504 0.11862 0.4139 0.0
H850 H 0.47723 0.1187 0.42671 0.0
C851 C 0.36478 0.11881 0.3789 0.0
C852 C 0.40492 0.11821 0.36096 0.0
H853 H 0.33348 0.11808 0.42698 0.0
H854 H 0.33312 0.11827 0.36597 0.0
C855 C 0.44531 0.11899 0.37879 0.0
C856 C 0.61594 0.8689 0.16369 0.0
C857 C 0.65614 0.86798 0.18153 0.0
H858 H 0.58443 0.86851 0.11569 0.0
C859 C 0.69647 0.86852 0.1636 0.0
H860 H 0.58433 0.86856 0.17669 0.0
C861 C 0.69658 0.86865 0.1286 0.0
C862 C 0.65637 0.86801 0.11076 0.0
H863 H 0.72808 0.86802 0.1766 0.0
H864 H 0.72819 0.86811 0.1156 0.0
C865 C 0.61605 0.86879 0.12869 0.0
C866 C 0.61625 0.40551 0.12889 0.0
C867 C 0.65645 0.4065 0.11106 0.0
H868 H 0.58473 0.40579 0.17689 0.0
C869 C 0.69678 0.40596 0.12899 0.0
H870 H 0.58464 0.40585 0.1159 0.0
C871 C 0.69689 0.40576 0.16399 0.0
C872 C 0.65666 0.40634 0.18183 0.0
H873 H 0.72839 0.40651 0.11599 0.0
H874 H 0.72849 0.40631 0.17699 0.0
C875 C 0.61635 0.40555 0.16389 0.0
C876 C 0.44569 0.15553 0.87872 0.0
C877 C 0.40556 0.15648 0.86079 0.0
H878 H 0.47702 0.15588 0.92678 0.0
C879 C 0.36516 0.15594 0.87864 0.0
H880 H 0.47735 0.15588 0.86579 0.0
C881 C 0.36492 0.15577 0.91364 0.0
C882 C 0.40507 0.1564 0.93156 0.0
H883 H 0.3336 0.15645 0.86557 0.0
H884 H 0.33326 0.15631 0.92657 0.0
C885 C 0.44545 0.15561 0.91372 0.0
C886 C 0.44525 0.61899 0.87945 0.0
C887 C 0.40496 0.61816 0.86149 0.0
H888 H 0.4769 0.61877 0.92747 0.0
C889 C 0.36472 0.61874 0.8793 0.0
H890 H 0.47689 0.61877 0.86648 0.0
C891 C 0.36477 0.61857 0.9143 0.0
C892 C 0.40508 0.61808 0.93226 0.0
H893 H 0.33314 0.61816 0.86627 0.0
H894 H 0.33314 0.61802 0.92727 0.0
C895 C 0.4453 0.61908 0.91445 0.0
C896 C 1.01192 0.24646 0.29535 0.0
C897 C 0.98837 0.25114 0.2656 0.0
H898 H 0.07013 0.25373 0.32448 0.0
C899 C 1.00751 0.26716 0.24171 0.0
H900 H 0.99802 0.23453 0.31452 0.0
C901 C 0.04905 0.27817 0.2474 0.0
C902 C 0.0726 0.27348 0.27714 0.0
H903 H 0.99084 0.27089 0.21826 0.0
H904 H 0.06295 0.2901 0.22823 0.0
C905 C 0.05345 0.25747 0.30104 0.0
C906 C 0.26198 0.99648 0.2473 0.0
C907 C 0.23843 1.0011 0.27707 0.0
H908 H 0.32019 1.00381 0.21818 0.0
C909 C 0.25758 0.01706 0.30102 0.0
H910 H 0.24808 0.98459 0.22809 0.0
C911 C 0.29912 0.02808 0.29537 0.0
C912 C 0.32267 0.02346 0.2656 0.0
H913 H 0.24091 0.02074 0.32449 0.0
H914 H 0.31302 0.03997 0.31458 0.0
C915 C 0.30352 1.0075 0.24165 0.0
C916 C 0.04926 0.99649 0.04546 0.0
C917 C 0.07292 1.00124 1.01578 0.0
H918 H 0.99093 1.00367 0.0745 0.0
C919 C 0.05383 0.01728 0.99189 0.0
H920 H 0.06311 0.98454 0.06462 0.0
C921 C 1.01225 0.02825 0.99753 0.0
C922 C 0.9886 0.0235 0.02721 0.0
H923 H 0.07059 0.02107 0.96849 0.0
H924 H 0.9984 0.0402 0.97837 0.0
C925 C 1.00768 1.00746 0.0511 0.0
C926 C 0.30374 0.26715 0.0509 0.0
C927 C 0.32282 0.25116 0.02694 0.0
H928 H 0.24833 0.29006 0.0645 0.0
C929 C 0.29918 0.2465 0.99723 0.0
H930 H 0.32048 0.27087 0.07432 0.0
C931 C 0.25761 0.25749 0.99163 0.0
C932 C 0.23853 0.27348 1.01558 0.0
H933 H 0.31303 0.23459 0.97803 0.0
H934 H 0.24088 0.25377 0.96821 0.0
C935 C 0.26217 0.27815 0.04529 0.0
C936 C 0.99512 0.77671 0.76186 0.0
C937 C 0.98947 0.75095 0.76698 0.0
H938 H 0.03925 0.80795 0.7634 0.0
C939 C 1.02637 0.7368 0.77747 0.0
H940 H 0.96738 0.78825 0.75425 0.0
C941 C 0.06776 0.74812 0.78267 0.0
C942 C 0.07341 0.77388 0.77749 0.0
H943 H 1.02362 0.71687 0.78111 0.0
H944 H 0.09551 0.7366 0.7903 0.0
C945 C 0.0365 0.78802 0.76703 0.0
C946 C 0.75903 0.0168 0.80108 0.0
C947 C 0.74001 1.00077 0.77716 0.0
H948 H 0.8143 0.03982 0.81464 0.0
C949 C 0.76369 0.99608 0.74747 0.0
H950 H 0.74226 0.02053 0.82449 0.0
C951 C 0.8052 1.00715 0.74184 0.0
C952 C 0.82418 0.02322 0.76574 0.0
H953 H 0.7499 0.98412 0.72829 0.0
H954 H 0.82196 1.00343 0.71842 0.0
C955 C 0.80053 0.02786 0.79545 0.0
C956 C 0.75731 0.75702 0.99201 0.0
C957 C 0.7382 0.77308 1.01586 0.0
H958 H 0.81275 0.73408 0.97856 0.0
C959 C 0.7618 0.77783 0.04556 0.0
H960 H 0.7406 0.75323 0.96859 0.0
C961 C 0.80336 0.76686 0.05125 0.0
C962 C 0.82249 0.75081 0.0274 0.0
H963 H 0.74793 0.7898 0.0647 0.0
H964 H 0.82008 0.77066 0.07466 0.0
C965 C 0.79888 0.74605 0.9977 0.0
C966 C 0.30026 0.52785 0.79572 0.0
C967 C 0.32381 0.52332 0.76593 0.0
H968 H 0.24204 0.52046 0.82478 0.0
C969 C 0.30469 0.5074 0.74191 0.0
H970 H 0.31415 0.5397 0.81499 0.0
C971 C 0.26315 0.49636 0.74751 0.0
C972 C 0.23958 0.50094 0.77728 0.0
H973 H 0.32137 0.50377 0.71844 0.0
H974 H 0.24925 0.48451 0.72825 0.0
C975 C 0.25872 0.51683 0.80131 0.0
C976 C 1.01335 0.52843 0.49799 0.0
C977 C 0.98993 0.52373 0.52779 0.0
H978 H 0.07145 0.52116 0.46869 0.0
C979 C 1.00923 0.50775 0.55165 0.0
H980 H 0.99934 0.54034 0.47885 0.0
C981 C 0.05075 0.49677 0.54586 0.0
C982 C 0.07415 0.50143 0.51604 0.0
H983 H 0.99267 0.50402 0.57515 0.0
H984 H 0.06475 0.48486 0.565 0.0
C985 C 0.05489 0.51744 0.49219 0.0
C986 C 0.30486 0.76717 0.55117 0.0
C987 C 0.32396 0.75115 0.52728 0.0
H988 H 0.24945 0.79013 0.56466 0.0
C989 C 0.30041 0.7465 0.49752 0.0
H990 H 0.32154 0.77089 0.57462 0.0
C991 C 0.25889 0.75752 0.49184 0.0
C992 C 0.23976 0.77352 0.51576 0.0
H993 H 0.31428 0.73457 0.47834 0.0
H994 H 0.24221 0.75379 0.4684 0.0
C995 C 0.26333 0.7782 0.54549 0.0
C996 C 0.7991 0.52797 0.29594 0.0
C997 C 0.82276 0.52336 0.26622 0.0
H998 H 0.74076 0.52063 0.32491 0.0
C999 C 0.80369 0.50743 0.24219 0.0
H1000 H 0.81294 0.53983 0.3152 0.0
C1001 C 0.76211 0.49643 0.24773 0.0
C1002 C 0.73845 0.50103 0.27745 0.0
H1003 H 0.82045 0.50377 0.21876 0.0
H1004 H 0.74827 0.48457 0.22847 0.0
C1005 C 0.75752 0.51696 0.30148 0.0
C1006 C 0.76339 0.27828 0.54531 0.0
C1007 C 0.73968 0.27355 0.51565 0.0
H1008 H 0.82174 0.27101 0.57431 0.0
C1009 C 0.75871 0.25752 0.49173 0.0
H1010 H 0.74959 0.29023 0.56449 0.0
C1011 C 0.80025 0.24651 0.49732 0.0
C1012 C 0.82394 0.2512 0.527 0.0
H1013 H 0.74192 0.25376 0.46833 0.0
H1014 H 0.81404 0.23455 0.47814 0.0
C1015 C 0.80495 0.26726 0.55091 0.0
C1016 C 0.50896 0.26693 0.7415 0.0
C1017 C 0.48964 0.25103 0.76545 0.0
H1018 H 0.56449 0.28979 0.72804 0.0
C1019 C 0.51305 0.24642 0.79527 0.0
H1020 H 0.49241 0.2706 0.71798 0.0
C1021 C 0.55458 0.25742 0.80102 0.0
C1022 C 0.57386 0.27336 0.77709 0.0
H1023 H 0.49902 0.23456 0.81447 0.0
H1024 H 0.57112 0.25377 0.82454 0.0
C1025 C 0.55048 0.27793 0.74724 0.0
C1026 C 0.50886 1.00749 0.55099 0.0
C1027 C 0.48972 0.0235 0.52709 0.0
H1028 H 0.56431 0.9846 0.5645 0.0
C1029 C 0.51337 0.02827 0.49741 0.0
H1030 H 0.49212 1.0037 0.57439 0.0
C1031 C 0.55496 0.01731 0.49176 0.0
C1032 C 0.57407 1.00127 0.51563 0.0
H1033 H 0.49948 0.04021 0.47825 0.0
H1034 H 0.5717 0.02109 0.46835 0.0
C1035 C 0.55045 0.99654 0.54534 0.0
C1036 C 0.54909 0.7781 0.24751 0.0
C1037 C 0.57269 0.77344 0.27723 0.0
H1038 H 0.49081 0.7708 0.21846 0.0
C1039 C 0.55359 0.75746 0.30119 0.0
H1040 H 0.56296 0.79 0.2283 0.0
C1041 C 0.51204 0.74645 0.29557 0.0
C1042 C 0.48843 0.75111 0.26584 0.0
H1043 H 0.57031 0.75375 0.32462 0.0
H1044 H 0.49817 0.73455 0.31477 0.0
C1045 C 0.50753 0.76709 0.24189 0.0
C1046 C 0.55369 0.51724 0.99204 0.0
C1047 C 0.57287 0.50121 1.0159 0.0
H1048 H 0.4982 0.54014 0.97861 0.0
C1049 C 0.54933 0.49647 0.04563 0.0
H1050 H 0.57036 0.52101 0.9686 0.0
C1051 C 0.50777 0.50744 0.05135 0.0
C1052 C 0.48858 0.52347 0.02749 0.0
H1053 H 0.56325 0.48453 0.06477 0.0
H1054 H 0.4911 0.50367 0.07479 0.0
C1055 C 0.51213 0.5282 0.99776 0.0
C1056 C 0.18491 0.392 0.4125 0.0
C1057 C 0.14469 0.39733 0.42893 0.0
H1058 H 0.21664 0.3787 0.36821 0.0
C1059 C 0.10435 0.39281 0.41218 0.0
H1060 H 0.2166 0.39556 0.42451 0.0
C1061 C 0.10437 0.38273 0.37977 0.0
C1062 C 0.14474 0.37775 0.36329 0.0
H1063 H 0.07288 0.3969 0.42419 0.0
H1064 H 0.0729 0.37901 0.36754 0.0
C1065 C 0.18494 0.38262 0.37999 0.0
C1066 C 0.20803 0.89246 0.3804 0.0
C1067 C 0.16768 0.89702 0.36367 0.0
H1068 H 0.23948 0.87868 0.42504 0.0
C1069 C 0.12747 0.89179 0.38016 0.0
H1070 H 0.2395 0.89648 0.36834 0.0
C1071 C 0.12744 0.88246 0.4127 0.0
C1072 C 0.16764 0.87756 0.42938 0.0
H1073 H 0.09577 0.89538 0.36818 0.0
H1074 H 0.09574 0.87862 0.42453 0.0
C1075 C 0.20801 0.88244 0.41284 0.0
C1076 C 0.18489 0.88304 0.8801 0.0
C1077 C 0.14467 0.87784 0.86362 0.0
H1078 H 0.21666 0.89617 0.92448 0.0
C1079 C 0.10433 0.88241 0.88037 0.0
H1080 H 0.21658 0.87944 0.86811 0.0
C1081 C 0.10437 0.8924 0.91282 0.0
C1082 C 0.14476 0.89725 0.92935 0.0
H1083 H 0.07285 0.87841 0.86832 0.0
H1084 H 0.07292 0.89617 0.92505 0.0
C1085 C 0.18494 0.89234 0.91265 0.0
C1086 C 0.12737 0.39209 0.88 0.0
C1087 C 0.16753 0.39683 0.86318 0.0
H1088 H 0.0958 0.37932 0.92464 0.0
C1089 C 0.20793 0.39182 0.87959 0.0
H1090 H 0.09564 0.39604 0.86826 0.0
C1091 C 0.20801 0.38183 0.91204 0.0
C1092 C 0.16771 0.37743 0.92891 0.0
H1093 H 0.23937 0.39546 0.86727 0.0
H1094 H 0.23951 0.37771 0.924 0.0
C1095 C 0.12746 0.38279 0.91255 0.0
C1096 C 0.87693 0.64237 0.66332 0.0
C1097 C 0.91708 0.64709 0.68016 0.0
H1098 H 0.84537 0.62957 0.61868 0.0
C1099 C 0.95749 0.64208 0.66376 0.0
H1100 H 0.8452 0.64633 0.67504 0.0
C1101 C 0.95759 0.63207 0.63131 0.0
C1102 C 0.91729 0.62765 0.61444 0.0
H1103 H 0.98893 0.6457 0.67608 0.0
H1104 H 0.98909 0.62793 0.61938 0.0
C1105 C 0.87704 0.63305 0.63078 0.0
C1106 C 0.85397 0.13226 0.6626 0.0
C1107 C 0.89433 0.12755 0.67923 0.0
H1108 H 0.82249 0.14616 0.61802 0.0
C1109 C 0.93454 0.13262 0.66263 0.0
H1110 H 0.8225 0.12837 0.67474 0.0
C1111 C 0.93453 0.14193 0.63009 0.0
C1112 C 0.89432 0.14699 0.6135 0.0
H1113 H 0.96624 0.1289 0.67453 0.0
H1114 H 0.96623 0.14565 0.61817 0.0
C1115 C 0.85396 0.14228 0.63015 0.0
C1116 C 0.9567 0.14229 0.1626 0.0
C1117 C 0.91633 0.14702 0.17922 0.0
H1118 H 0.98819 0.12837 0.11805 0.0
C1119 C 0.87613 0.14195 0.16263 0.0
H1120 H 0.98816 0.14617 0.17474 0.0
C1121 C 0.87614 0.13261 0.1301 0.0
C1122 C 0.91636 0.12753 0.11353 0.0
H1123 H 0.84442 0.14568 0.17453 0.0
H1124 H 0.84445 0.12888 0.11818 0.0
C1125 C 0.95671 0.13226 0.13017 0.0
C1126 C 0.93362 0.64192 0.13094 0.0
C1127 C 0.89341 0.64692 0.11433 0.0
H1128 H 0.96533 0.62894 0.17541 0.0
C1129 C 0.85305 0.64217 0.13094 0.0
H1130 H 0.96532 0.64568 0.11905 0.0
C1131 C 0.85306 0.63215 0.16339 0.0
C1132 C 0.89342 0.62749 0.18005 0.0
H1133 H 0.82158 0.646 0.11879 0.0
H1134 H 0.82159 0.62822 0.1755 0.0
C1135 C 0.93362 0.63262 0.16348 0.0
C1136 C 0.6044 0.39208 0.91311 0.0
C1137 C 0.64481 0.3971 0.92951 0.0
H1138 H 0.5728 0.37789 0.86875 0.0
C1139 C 0.68497 0.3923 0.91271 0.0
H1140 H 0.57296 0.39576 0.92542 0.0
C1141 C 0.68485 0.38294 0.88019 0.0
C1142 C 0.6446 0.37756 0.86385 0.0
H1143 H 0.7167 0.39626 0.92443 0.0
H1144 H 0.71652 0.37942 0.86812 0.0
C1145 C 0.6043 0.38202 0.88069 0.0
C1146 C 0.62741 0.88232 0.91238 0.0
C1147 C 0.6676 0.87703 0.92887 0.0
H1148 H 0.59574 0.89556 0.86803 0.0
C1149 C 0.70797 0.88154 0.91213 0.0
H1150 H 0.5957 0.87876 0.92437 0.0
C1151 C 0.708 0.89158 0.87971 0.0
C1152 C 0.66765 0.89653 0.86318 0.0
H1153 H 0.73942 0.87748 0.92418 0.0
H1154 H 0.73949 0.8953 0.8675 0.0
C1155 C 0.62743 0.89166 0.87985 0.0
C1156 C 0.68495 0.89198 0.41235 0.0
C1157 C 0.64474 0.89724 0.42883 0.0
H1158 H 0.71666 0.87875 0.36801 0.0
C1159 C 0.60439 0.8927 0.4121 0.0
H1160 H 0.71665 0.89557 0.42433 0.0
C1161 C 0.60439 0.88264 0.37968 0.0
C1162 C 0.64476 0.87772 0.36315 0.0
H1163 H 0.57292 0.89674 0.42415 0.0
H1164 H 0.57292 0.87889 0.36747 0.0
C1165 C 0.68496 0.88263 0.37983 0.0
C1166 C 0.70795 0.38246 0.41296 0.0
C1167 C 0.66757 0.37756 0.42947 0.0
H1168 H 0.73947 0.39649 0.36848 0.0
C1169 C 0.62738 0.38241 0.41274 0.0
H1170 H 0.73941 0.37874 0.4252 0.0
C1171 C 0.62743 0.39171 0.38019 0.0
C1172 C 0.66766 0.39696 0.36373 0.0
H1173 H 0.59567 0.37854 0.42455 0.0
H1174 H 0.59575 0.39527 0.36818 0.0
C1175 C 0.70799 0.39246 0.38051 0.0
C1176 C 0.45673 0.64222 0.16306 0.0
C1177 C 0.41636 0.64697 0.17967 0.0
H1178 H 0.48821 0.62827 0.11851 0.0
C1179 C 0.37616 0.64193 0.16306 0.0
H1180 H 0.4882 0.64608 0.1752 0.0
C1181 C 0.37616 0.63259 0.13053 0.0
C1182 C 0.41638 0.62749 0.11397 0.0
H1183 H 0.34446 0.64568 0.17495 0.0
H1184 H 0.34447 0.62889 0.11861 0.0
C1185 C 0.45673 0.63219 0.13062 0.0
C1186 C 0.43362 0.13268 0.16253 0.0
C1187 C 0.39341 0.1276 0.17909 0.0
H1188 H 0.46536 0.14574 0.11811 0.0
C1189 C 0.35305 0.13231 0.16245 0.0
H1190 H 0.46531 0.12896 0.17445 0.0
C1191 C 0.35308 0.14235 0.13001 0.0
C1192 C 0.39346 0.14707 0.1134 0.0
H1193 H 0.32158 0.12841 0.17456 0.0
H1194 H 0.32162 0.14623 0.11786 0.0
C1195 C 0.43365 0.14201 0.13 0.0
C1196 C 0.37702 0.14186 0.66254 0.0
C1197 C 0.41724 0.14698 0.67908 0.0
H1198 H 0.3453 0.12872 0.61815 0.0
C1199 C 0.45759 0.14227 0.66243 0.0
H1200 H 0.34533 0.14557 0.67446 0.0
C1201 C 0.45758 0.1322 0.63002 0.0
C1202 C 0.41721 0.12742 0.61342 0.0
H1203 H 0.48907 0.1462 0.67452 0.0
H1204 H 0.48904 0.12832 0.61788 0.0
C1205 C 0.37701 0.13248 0.63003 0.0
C1206 C 0.43439 0.63259 0.66304 0.0
C1207 C 0.39417 0.62758 0.67964 0.0
H1208 H 0.46615 0.64555 0.61858 0.0
C1209 C 0.35382 0.63231 0.66299 0.0
H1210 H 0.46608 0.62885 0.67496 0.0
C1211 C 0.35387 0.64231 0.63053 0.0
C1212 C 0.39425 0.64697 0.61389 0.0
H1213 H 0.32234 0.62847 0.67513 0.0
H1214 H 0.32242 0.64621 0.61839 0.0
C1215 C 0.43443 0.64188 0.63049 0.0
C1216 C 0.36626 0.39384 0.30121 0.0
C1217 C 0.36952 0.36959 0.2879 0.0
H1218 H 0.39924 0.42844 0.31148 0.0
C1219 C 0.41056 0.3618 0.27467 0.0
H1220 H 0.33545 0.40038 0.31212 0.0
C1221 C 0.44715 0.37791 0.27438 0.0
C1222 C 0.44374 0.40225 0.28733 0.0
H1223 H 0.41423 0.34346 0.26374 0.0
H1224 H 0.47783 0.3714 0.26325 0.0
C1225 C 0.40286 0.40998 0.30086 0.0
C1226 C 0.86623 0.89391 0.30108 0.0
C1227 C 0.86952 0.86966 0.28776 0.0
H1228 H 0.89919 0.92851 0.31138 0.0
C1229 C 0.91056 0.86188 0.27454 0.0
H1230 H 0.83541 0.90044 0.31198 0.0
C1231 C 0.94714 0.87799 0.27427 0.0
C1232 C 0.94372 0.90233 0.28724 0.0
H1233 H 0.91425 0.84354 0.26361 0.0
H1234 H 0.97784 0.8715 0.26315 0.0
C1235 C 0.90283 0.91006 0.30075 0.0
C1236 C 0.41065 0.91252 1.01808 0.0
C1237 C 0.36957 0.9048 1.00488 0.0
H1238 H 0.47789 0.90283 0.02945 0.0
C1239 C 0.36616 0.88054 0.99158 0.0
H1240 H 0.41444 0.93086 0.029 0.0
C1241 C 0.40269 0.86435 0.99191 0.0
C1242 C 0.44363 0.87203 1.0054 0.0
H1243 H 0.33531 0.87405 0.9807 0.0
H1244 H 0.39897 0.8459 0.98129 0.0
C1245 C 0.44716 0.89637 1.01834 0.0
C1246 C 0.90298 0.36462 0.99189 0.0
C1247 C 0.94389 0.37234 1.00538 0.0
H1248 H 0.83558 0.37426 0.98068 0.0
C1249 C 0.94737 0.39668 1.01832 0.0
H1250 H 0.89931 0.34616 0.98128 0.0
C1251 C 0.91081 0.41281 1.01804 0.0
C1252 C 0.86974 0.40504 1.00485 0.0
H1253 H 0.97808 0.40317 0.02942 0.0
H1254 H 0.91454 0.43115 0.02896 0.0
C1255 C 0.86641 0.38078 0.99156 0.0
C1256 C 0.65133 0.66279 0.76923 0.0
C1257 C 0.69227 0.65509 0.75575 0.0
H1258 H 0.58414 0.65308 0.78081 0.0
C1259 C 0.69547 0.63092 0.74216 0.0
H1260 H 0.64772 0.68106 0.78039 0.0
C1261 C 0.65889 0.61477 0.74247 0.0
C1262 C 0.6181 0.6224 0.75625 0.0
H1263 H 0.72621 0.62447 0.73105 0.0
H1264 H 0.66246 0.59638 0.73163 0.0
C1265 C 0.61476 0.64666 0.76949 0.0
C1266 C 0.11491 0.14676 0.76807 0.0
C1267 C 0.11838 0.12234 0.75538 0.0
H1268 H 0.14777 0.18128 0.77839 0.0
C1269 C 0.1593 0.11454 0.742 0.0
H1270 H 0.08419 0.15332 0.77908 0.0
C1271 C 0.19589 0.13069 0.74153 0.0
C1272 C 0.19257 0.15502 0.75458 0.0
H1273 H 0.16296 0.09602 0.73158 0.0
H1274 H 0.22673 0.12409 0.73073 0.0
C1275 C 0.15149 0.16287 0.76766 0.0
C1276 C 0.65849 0.16016 0.05068 0.0
C1277 C 0.61757 0.15242 0.03722 0.0
H1278 H 0.7259 0.15055 0.06192 0.0
C1279 C 0.61412 0.12806 0.02433 0.0
H1280 H 0.66215 0.17863 0.06125 0.0
C1281 C 0.65068 0.11194 0.02463 0.0
C1282 C 0.69174 0.11973 0.03781 0.0
H1283 H 0.58341 0.12156 1.01324 0.0
H1284 H 0.64695 0.09359 1.01375 0.0
C1285 C 0.69507 0.14401 0.05105 0.0
C1286 C 0.15062 0.61182 0.02536 0.0
C1287 C 0.1917 0.61964 0.03847 0.0
H1288 H 0.08331 0.6214 1.01404 0.0
C1289 C 0.19503 0.64392 0.05168 0.0
H1290 H 0.14689 0.59346 1.0145 0.0
C1291 C 0.15842 0.66006 0.05134 0.0
C1292 C 0.11749 0.6523 0.03794 0.0
H1293 H 0.22588 0.65048 0.06249 0.0
H1294 H 0.16209 0.67854 0.06188 0.0
C1295 C 0.11403 0.62793 0.02508 0.0
C1296 C 0.40206 0.91253 0.77427 0.0
C1297 C 0.44297 0.90481 0.78777 0.0
H1298 H 0.33486 0.90289 0.7627 0.0
C1299 C 0.44609 0.88065 0.8014 0.0
H1300 H 0.39851 0.93079 0.76308 0.0
C1301 C 0.40945 0.86454 0.80112 0.0
C1302 C 0.36869 0.8722 0.78733 0.0
H1303 H 0.47681 0.87418 0.81252 0.0
H1304 H 0.41295 0.84616 0.812 0.0
C1305 C 0.36544 0.89645 0.77404 0.0
C1306 C 0.86503 0.3965 0.77431 0.0
C1307 C 0.86842 0.37219 0.78738 0.0
H1308 H 0.89796 0.43092 0.76353 0.0
C1309 C 0.90928 0.3645 0.80096 0.0
H1310 H 0.83436 0.40297 0.76313 0.0
C1311 C 0.94589 0.38063 0.80126 0.0
C1312 C 0.94263 0.40486 0.78784 0.0
H1313 H 0.91289 0.34607 0.81168 0.0
H1314 H 0.97668 0.37413 0.81222 0.0
C1315 C 0.90162 0.41261 0.77455 0.0
C1316 C 0.36516 0.37815 0.5184 0.0
C1317 C 0.36864 0.40248 0.50543 0.0
H1318 H 0.39797 0.34368 0.52909 0.0
C1319 C 0.40955 0.41018 0.49192 0.0
H1320 H 0.33445 0.37167 0.52952 0.0
C1321 C 0.44612 0.39401 0.4916 0.0
C1322 C 0.44277 0.36977 0.50493 0.0
H1323 H 0.41323 0.42863 0.48128 0.0
H1324 H 0.47695 0.40052 0.4807 0.0
C1325 C 0.4017 0.36202 0.51814 0.0
C1326 C 0.90178 0.86194 0.51792 0.0
C1327 C 0.94289 0.86973 0.50482 0.0
H1328 H 0.83447 0.87155 0.5292 0.0
C1329 C 0.94625 0.89401 0.4916 0.0
H1330 H 0.89802 0.84358 0.52877 0.0
C1331 C 0.90967 0.91017 0.49192 0.0
C1332 C 0.86872 0.90243 0.50532 0.0
H1333 H 0.97712 0.90056 0.48079 0.0
H1334 H 0.91337 0.92864 0.48137 0.0
C1335 C 0.86521 0.87806 0.51817 0.0
C1336 C 0.65834 0.11444 0.24189 0.0
C1337 C 0.61744 0.12217 0.25538 0.0
H1338 H 0.72577 0.12405 0.23068 0.0
C1339 C 0.61401 0.14651 0.26833 0.0
H1340 H 0.66198 0.09598 0.23127 0.0
C1341 C 0.6506 0.16262 0.26807 0.0
C1342 C 0.69165 0.15484 0.25486 0.0
H1343 H 0.58331 0.15301 0.27944 0.0
H1344 H 0.6469 0.18096 0.279 0.0
C1345 C 0.69495 0.13058 0.24156 0.0
C1346 C 0.15841 0.61436 0.24259 0.0
C1347 C 0.11753 0.62209 0.2561 0.0
H1348 H 0.22582 0.62397 0.23131 0.0
C1349 C 0.1141 0.64645 0.26902 0.0
H1350 H 0.16205 0.59589 0.232 0.0
C1351 C 0.15067 0.66256 0.2687 0.0
C1352 C 0.19171 0.65478 0.25547 0.0
H1353 H 0.08341 0.65295 0.28014 0.0
H1354 H 0.14697 0.68092 0.2796 0.0
C1355 C 0.195 0.63051 0.24221 0.0
C1356 C 0.65165 0.61174 0.52571 0.0
C1357 C 0.6927 0.61962 0.53882 0.0
H1358 H 0.58436 0.62125 0.51423 0.0
C1359 C 0.69596 0.64396 0.55187 0.0
H1360 H 0.64798 0.59333 0.51498 0.0
C1361 C 0.65934 0.66008 0.55138 0.0
C1362 C 0.61845 0.65226 0.53796 0.0
H1363 H 0.72677 0.65057 0.56269 0.0
H1364 H 0.66296 0.6786 0.5618 0.0
C1365 C 0.61505 0.62783 0.52527 0.0
C1366 C 0.15926 0.15994 0.55062 0.0
C1367 C 0.11834 0.15217 0.53721 0.0
H1368 H 0.22668 0.15035 0.56187 0.0
C1369 C 0.11486 0.12778 0.52444 0.0
H1370 H 0.16294 0.17843 0.5611 0.0
C1371 C 0.15142 0.11165 0.5248 0.0
C1372 C 0.1925 0.11947 0.53792 0.0
H1373 H 0.08413 0.12124 0.5134 0.0
H1374 H 0.14768 0.09327 0.51401 0.0
C1375 C 0.19584 0.14378 0.55105 0.0
loop_
_geom_bond_atom_site_label_1
_geom_bond_atom_site_label_2
_geom_bond_distance
_geom_bond_site_symmetry_2
_ccdc_geom_bond_type
Cu0 N1 1.999 . S
Cu0 O6 1.974 . S
Cu0 N11 1.985 . S
Cu0 O20 1.959 . S
N1 Cu0 1.999 . S
N1 C3 1.263 . S
N1 C5 1.389 . S
N2 C3 1.358 . S
N2 C4 1.400 . S
C3 N1 1.263 . S
C3 N2 1.358 . S
C3 H9 0.930 . S
C4 N2 1.400 . S
C4 C5 1.351 . S
C4 H21 0.930 . S
C5 N1 1.389 . S
C5 C4 1.351 . S
C5 H10 0.930 . S
O6 Cu0 1.974 . S
O6 C16 1.282 . S
C7 O8 1.261 . S
C7 O20 1.251 . S
O8 C7 1.261 . S
H9 C3 0.930 . S
H10 C5 0.930 . S
N11 Cu0 1.985 . S
N11 C13 1.335 . S
N11 C14 1.390 . S
N12 C13 1.345 . S
N12 C15 1.336 . S
C13 N11 1.335 . S
C13 N12 1.345 . S
C13 H18 0.930 . S
C14 N11 1.390 . S
C14 C15 1.346 . S
C14 H19 0.930 . S
C15 N12 1.336 . S
C15 C14 1.346 . S
C15 H22 0.929 . S
C16 O6 1.282 . S
C16 O17 1.216 . S
O17 C16 1.216 . S
H18 C13 0.930 . S
H19 C14 0.930 . S
O20 Cu0 1.959 . S
O20 C7 1.251 . S
H21 C4 0.930 . S
H22 C15 0.929 . S
Cu23 N24 1.999 . S
Cu23 O29 1.974 . S
Cu23 N34 1.985 . S
Cu23 O43 1.959 . S
N24 Cu23 1.999 . S
N24 C26 1.263 1_455 S
N24 C28 1.389 1_455 S
N25 C26 1.358 . S
N25 C27 1.400 . S
C26 N24 1.263 1_655 S
C26 N25 1.358 . S
C26 H32 0.930 1_655 S
C27 N25 1.400 . S
C27 C28 1.351 . S
C27 H44 0.930 . S
C28 N24 1.389 1_655 S
C28 C27 1.351 . S
C28 H33 0.930 . S
O29 Cu23 1.974 . S
O29 C39 1.282 . S
C30 O31 1.261 . S
C30 O43 1.251 . S
O31 C30 1.261 . S
H32 C26 0.930 1_455 S
H33 C28 0.930 . S
N34 Cu23 1.985 . S
N34 C36 1.335 . S
N34 C37 1.390 . S
N35 C36 1.345 . S
N35 C38 1.336 . S
C36 N34 1.335 . S
C36 N35 1.345 . S
C36 H41 0.930 . S
C37 N34 1.390 . S
C37 C38 1.346 . S
C37 H42 0.930 . S
C38 N35 1.336 . S
C38 C37 1.346 . S
C38 H45 0.929 . S
C39 O29 1.282 . S
C39 O40 1.216 . S
O40 C39 1.216 . S
H41 C36 0.930 . S
H42 C37 0.930 . S
O43 Cu23 1.959 . S
O43 C30 1.251 . S
H44 C27 0.930 . S
H45 C38 0.929 . S
Cu46 N47 1.999 1_556 S
Cu46 O52 1.974 . S
Cu46 N57 1.985 . S
Cu46 O66 1.959 1_556 S
N47 Cu46 1.999 1_554 S
N47 C49 1.263 1_554 S
N47 C51 1.389 . S
N48 C49 1.352 1_554 S
N48 C50 1.412 . S
C49 N47 1.263 1_556 S
C49 N48 1.352 1_556 S
C49 H55 0.930 . S
C50 N48 1.412 . S
C50 C51 1.351 . S
C50 H67 0.930 . S
C51 N47 1.389 . S
C51 C50 1.351 . S
C51 H56 0.930 . S
O52 Cu46 1.974 . S
O52 C62 1.282 . S
C53 O54 1.261 . S
C53 O66 1.251 . S
O54 C53 1.261 . S
H55 C49 0.930 . S
H56 C51 0.930 . S
N57 Cu46 1.985 . S
N57 C59 1.335 1_556 S
N57 C60 1.390 . S
N58 C59 1.345 1_556 S
N58 C61 1.336 . S
C59 N57 1.335 1_554 S
C59 N58 1.345 1_554 S
C59 H64 0.930 . S
C60 N57 1.390 . S
C60 C61 1.346 . S
C60 H65 0.930 . S
C61 N58 1.336 . S
C61 C60 1.346 . S
C61 H68 0.929 . S
C62 O52 1.282 . S
C62 O63 1.216 . S
O63 C62 1.216 . S
H64 C59 0.930 . S
H65 C60 0.930 . S
O66 Cu46 1.959 1_554 S
O66 C53 1.251 . S
H67 C50 0.930 . S
H68 C61 0.929 . S
Cu69 N70 1.999 1_556 S
Cu69 O75 1.974 . S
Cu69 N80 1.985 . S
Cu69 O89 1.959 1_556 S
N70 Cu69 1.999 1_554 S
N70 C72 1.263 1_454 S
N70 C74 1.389 1_455 S
N71 C72 1.352 1_554 S
N71 C73 1.412 . S
C72 N70 1.263 1_656 S
C72 N71 1.352 1_556 S
C72 H78 0.930 1_655 S
C73 N71 1.412 . S
C73 C74 1.351 . S
C73 H90 0.930 . S
C74 N70 1.389 1_655 S
C74 C73 1.351 . S
C74 H79 0.930 . S
O75 Cu69 1.974 . S
O75 C85 1.282 . S
C76 O77 1.261 . S
C76 O89 1.251 . S
O77 C76 1.261 . S
H78 C72 0.930 1_455 S
H79 C74 0.930 . S
N80 Cu69 1.985 . S
N80 C82 1.335 1_556 S
N80 C83 1.390 . S
N81 C82 1.345 1_556 S
N81 C84 1.336 . S
C82 N80 1.335 1_554 S
C82 N81 1.345 1_554 S
C82 H87 0.930 . S
C83 N80 1.390 . S
C83 C84 1.346 . S
C83 H88 0.930 . S
C84 N81 1.336 . S
C84 C83 1.346 . S
C84 H91 0.929 . S
C85 O75 1.282 . S
C85 O86 1.216 . S
O86 C85 1.216 . S
H87 C82 0.930 . S
H88 C83 0.930 . S
O89 Cu69 1.959 1_554 S
O89 C76 1.251 . S
H90 C73 0.930 . S
H91 C84 0.929 . S
Cu92 N93 1.999 . S
Cu92 O98 1.974 . S
Cu92 N103 1.985 . S
Cu92 O112 1.959 . S
N93 Cu92 1.999 . S
N93 C95 1.263 . S
N93 C97 1.389 . S
N94 C95 1.358 . S
N94 C96 1.400 . S
C95 N93 1.263 . S
C95 N94 1.358 . S
C95 H101 0.930 . S
C96 N94 1.400 . S
C96 C97 1.351 . S
C96 H113 0.930 . S
C97 N93 1.389 . S
C97 C96 1.351 . S
C97 H102 0.930 . S
O98 Cu92 1.974 . S
O98 C108 1.282 . S
C99 O100 1.261 . S
C99 O112 1.251 . S
O100 C99 1.261 . S
H101 C95 0.930 . S
H102 C97 0.930 . S
N103 Cu92 1.985 . S
N103 C105 1.335 . S
N103 C106 1.390 . S
N104 C105 1.345 . S
N104 C107 1.336 . S
C105 N103 1.335 . S
C105 N104 1.345 . S
C105 H110 0.930 . S
C106 N103 1.390 . S
C106 C107 1.346 . S
C106 H111 0.930 . S
C107 N104 1.336 . S
C107 C106 1.346 . S
C107 H114 0.929 . S
C108 O98 1.282 . S
C108 O109 1.216 . S
O109 C108 1.216 . S
H110 C105 0.930 . S
H111 C106 0.930 . S
O112 Cu92 1.959 . S
O112 C99 1.251 . S
H113 C96 0.930 . S
H114 C107 0.929 . S
Cu115 N116 1.999 . S
Cu115 O121 1.974 . S
Cu115 N126 1.985 . S
Cu115 O135 1.959 . S
N116 Cu115 1.999 . S
N116 C118 1.263 1_655 S
N116 C120 1.389 1_655 S
N117 C118 1.358 . S
N117 C119 1.400 . S
C118 N116 1.263 1_455 S
C118 N117 1.358 . S
C118 H124 0.930 1_455 S
C119 N117 1.400 . S
C119 C120 1.351 . S
C119 H136 0.930 . S
C120 N116 1.389 1_455 S
C120 C119 1.351 . S
C120 H125 0.930 . S
O121 Cu115 1.974 . S
O121 C131 1.282 . S
C122 O123 1.261 . S
C122 O135 1.251 . S
O123 C122 1.261 . S
H124 C118 0.930 1_655 S
H125 C120 0.930 . S
N126 Cu115 1.985 . S
N126 C128 1.335 . S
N126 C129 1.390 . S
N127 C128 1.345 . S
N127 C130 1.336 . S
C128 N126 1.335 . S
C128 N127 1.345 . S
C128 H133 0.930 . S
C129 N126 1.390 . S
C129 C130 1.346 . S
C129 H134 0.930 . S
C130 N127 1.336 . S
C130 C129 1.346 . S
C130 H137 0.929 . S
C131 O121 1.282 . S
C131 O132 1.216 . S
O132 C131 1.216 . S
H133 C128 0.930 . S
H134 C129 0.930 . S
O135 Cu115 1.959 . S
O135 C122 1.251 . S
H136 C119 0.930 . S
H137 C130 0.929 . S
Cu138 N139 1.999 1_554 S
Cu138 O144 1.974 . S
Cu138 N149 1.985 . S
Cu138 O158 1.959 1_554 S
N139 Cu138 1.999 1_556 S
N139 C141 1.263 1_556 S
N139 C143 1.389 . S
N140 C141 1.352 1_556 S
N140 C142 1.412 . S
C141 N139 1.263 1_554 S
C141 N140 1.352 1_554 S
C141 H147 0.930 . S
C142 N140 1.412 . S
C142 C143 1.351 . S
C142 H159 0.930 . S
C143 N139 1.389 . S
C143 C142 1.351 . S
C143 H148 0.930 . S
O144 Cu138 1.974 . S
O144 C154 1.282 . S
C145 O146 1.261 . S
C145 O158 1.251 . S
O146 C145 1.261 . S
H147 C141 0.930 . S
H148 C143 0.930 . S
N149 Cu138 1.985 . S
N149 C151 1.335 1_554 S
N149 C152 1.390 . S
N150 C151 1.345 1_554 S
N150 C153 1.336 . S
C151 N149 1.335 1_556 S
C151 N150 1.345 1_556 S
C151 H156 0.930 . S
C152 N149 1.390 . S
C152 C153 1.346 . S
C152 H157 0.930 . S
C153 N150 1.336 . S
C153 C152 1.346 . S
C153 H160 0.929 . S
C154 O144 1.282 . S
C154 O155 1.216 . S
O155 C154 1.216 . S
H156 C151 0.930 . S
H157 C152 0.930 . S
O158 Cu138 1.959 1_556 S
O158 C145 1.251 . S
H159 C142 0.930 . S
H160 C153 0.929 . S
Cu161 N162 1.999 1_554 S
Cu161 O167 1.974 . S
Cu161 N172 1.985 . S
Cu161 O181 1.959 1_554 S
N162 Cu161 1.999 1_556 S
N162 C164 1.263 1_656 S
N162 C166 1.389 1_655 S
N163 C164 1.352 1_556 S
N163 C165 1.412 . S
C164 N162 1.263 1_454 S
C164 N163 1.352 1_554 S
C164 H170 0.930 1_455 S
C165 N163 1.412 . S
C165 C166 1.351 . S
C165 H182 0.930 . S
C166 N162 1.389 1_455 S
C166 C165 1.351 . S
C166 H171 0.930 . S
O167 Cu161 1.974 . S
O167 C177 1.282 . S
C168 O169 1.261 . S
C168 O181 1.251 . S
O169 C168 1.261 . S
H170 C164 0.930 1_655 S
H171 C166 0.930 . S
N172 Cu161 1.985 . S
N172 C174 1.335 1_554 S
N172 C175 1.390 . S
N173 C174 1.345 1_554 S
N173 C176 1.336 . S
C174 N172 1.335 1_556 S
C174 N173 1.345 1_556 S
C174 H179 0.930 . S
C175 N172 1.390 . S
C175 C176 1.346 . S
C175 H180 0.930 . S
C176 N173 1.336 . S
C176 C175 1.346 . S
C176 H183 0.929 . S
C177 O167 1.282 . S
C177 O178 1.216 . S
O178 C177 1.216 . S
H179 C174 0.930 . S
H180 C175 0.930 . S
O181 Cu161 1.959 1_556 S
O181 C168 1.251 . S
H182 C165 0.930 . S
H183 C176 0.929 . S
Cu184 N185 1.999 . S
Cu184 O190 1.974 . S
Cu184 N195 1.985 . S
Cu184 O204 1.959 . S
N185 Cu184 1.999 . S
N185 C187 1.263 . S
N185 C189 1.389 . S
N186 C187 1.358 . S
N186 C188 1.400 . S
C187 N185 1.263 . S
C187 N186 1.358 . S
C187 H193 0.930 . S
C188 N186 1.400 . S
C188 C189 1.351 . S
C188 H205 0.930 . S
C189 N185 1.389 . S
C189 C188 1.351 . S
C189 H194 0.930 . S
O190 Cu184 1.974 . S
O190 C200 1.282 . S
C191 O192 1.261 . S
C191 O204 1.251 . S
O192 C191 1.261 . S
H193 C187 0.930 . S
H194 C189 0.930 . S
N195 Cu184 1.985 . S
N195 C197 1.335 . S
N195 C198 1.390 . S
N196 C197 1.345 . S
N196 C199 1.336 . S
C197 N195 1.335 . S
C197 N196 1.345 . S
C197 H202 0.930 . S
C198 N195 1.390 . S
C198 C199 1.346 . S
C198 H203 0.930 . S
C199 N196 1.336 . S
C199 C198 1.346 . S
C199 H206 0.929 . S
C200 O190 1.282 . S
C200 O201 1.216 . S
O201 C200 1.216 . S
H202 C197 0.930 . S
H203 C198 0.930 . S
O204 Cu184 1.959 . S
O204 C191 1.251 . S
H205 C188 0.930 . S
H206 C199 0.929 . S
Cu207 N208 1.999 . S
Cu207 O213 1.974 . S
Cu207 N218 1.985 . S
Cu207 O227 1.959 . S
N208 Cu207 1.999 . S
N208 C210 1.263 1_455 S
N208 C212 1.389 1_455 S
N209 C210 1.358 . S
N209 C211 1.400 . S
C210 N208 1.263 1_655 S
C210 N209 1.358 . S
C210 H216 0.930 1_655 S
C211 N209 1.400 . S
C211 C212 1.351 . S
C211 H228 0.930 . S
C212 N208 1.389 1_655 S
C212 C211 1.351 . S
C212 H217 0.930 . S
O213 Cu207 1.974 . S
O213 C223 1.282 . S
C214 O215 1.261 . S
C214 O227 1.251 . S
O215 C214 1.261 . S
H216 C210 0.930 1_455 S
H217 C212 0.930 . S
N218 Cu207 1.985 . S
N218 C220 1.335 . S
N218 C221 1.390 . S
N219 C220 1.345 . S
N219 C222 1.336 . S
C220 N218 1.335 . S
C220 N219 1.345 . S
C220 H225 0.930 . S
C221 N218 1.390 . S
C221 C222 1.346 . S
C221 H226 0.930 . S
C222 N219 1.336 . S
C222 C221 1.346 . S
C222 H229 0.929 . S
C223 O213 1.282 . S
C223 O224 1.216 . S
O224 C223 1.216 . S
H225 C220 0.930 . S
H226 C221 0.930 . S
O227 Cu207 1.959 . S
O227 C214 1.251 . S
H228 C211 0.930 . S
H229 C222 0.929 . S
Cu230 N231 1.999 . S
Cu230 O236 1.974 . S
Cu230 N241 1.985 . S
Cu230 O250 1.959 . S
N231 Cu230 1.999 . S
N231 C233 1.263 . S
N231 C235 1.389 . S
N232 C233 1.358 . S
N232 C234 1.400 . S
C233 N231 1.263 . S
C233 N232 1.358 . S
C233 H239 0.930 . S
C234 N232 1.400 . S
C234 C235 1.351 . S
C234 H251 0.930 . S
C235 N231 1.389 . S
C235 C234 1.351 . S
C235 H240 0.930 . S
O236 Cu230 1.974 . S
O236 C246 1.282 . S
C237 O238 1.261 . S
C237 O250 1.251 . S
O238 C237 1.261 . S
H239 C233 0.930 . S
H240 C235 0.930 . S
N241 Cu230 1.985 . S
N241 C243 1.335 . S
N241 C244 1.390 . S
N242 C243 1.345 . S
N242 C245 1.336 . S
C243 N241 1.335 . S
C243 N242 1.345 . S
C243 H248 0.930 . S
C244 N241 1.390 . S
C244 C245 1.346 . S
C244 H249 0.930 . S
C245 N242 1.336 . S
C245 C244 1.346 . S
C245 H252 0.929 . S
C246 O236 1.282 . S
C246 O247 1.216 . S
O247 C246 1.216 . S
H248 C243 0.930 . S
H249 C244 0.930 . S
O250 Cu230 1.959 . S
O250 C237 1.251 . S
H251 C234 0.930 . S
H252 C245 0.929 . S
Cu253 N254 1.999 . S
Cu253 O259 1.974 . S
Cu253 N264 1.985 . S
Cu253 O273 1.959 . S
N254 Cu253 1.999 . S
N254 C256 1.263 1_455 S
N254 C258 1.389 1_455 S
N255 C256 1.358 . S
N255 C257 1.400 . S
C256 N254 1.263 1_655 S
C256 N255 1.358 . S
C256 H262 0.930 1_655 S
C257 N255 1.400 . S
C257 C258 1.351 . S
C257 H274 0.930 . S
C258 N254 1.389 1_655 S
C258 C257 1.351 . S
C258 H263 0.930 . S
O259 Cu253 1.974 . S
O259 C269 1.282 . S
C260 O261 1.261 . S
C260 O273 1.251 . S
O261 C260 1.261 . S
H262 C256 0.930 1_455 S
H263 C258 0.930 . S
N264 Cu253 1.985 . S
N264 C266 1.335 . S
N264 C267 1.390 . S
N265 C266 1.345 . S
N265 C268 1.336 . S
C266 N264 1.335 . S
C266 N265 1.345 . S
C266 H271 0.930 . S
C267 N264 1.390 . S
C267 C268 1.346 . S
C267 H272 0.930 . S
C268 N265 1.336 . S
C268 C267 1.346 . S
C268 H275 0.929 . S
C269 O259 1.282 . S
C269 O270 1.216 . S
O270 C269 1.216 . S
H271 C266 0.930 . S
H272 C267 0.930 . S
O273 Cu253 1.959 . S
O273 C260 1.251 . S
H274 C257 0.930 . S
H275 C268 0.929 . S
Cu276 N277 1.999 . S
Cu276 O282 1.974 . S
Cu276 N287 1.985 . S
Cu276 O296 1.959 . S
N277 Cu276 1.999 . S
N277 C279 1.263 . S
N277 C281 1.389 . S
N278 C279 1.358 . S
N278 C280 1.400 . S
C279 N277 1.263 . S
C279 N278 1.358 . S
C279 H285 0.930 . S
C280 N278 1.400 . S
C280 C281 1.351 . S
C280 H297 0.930 . S
C281 N277 1.389 . S
C281 C280 1.351 . S
C281 H286 0.930 . S
O282 Cu276 1.974 . S
O282 C292 1.282 . S
C283 O284 1.261 . S
C283 O296 1.251 . S
O284 C283 1.261 . S
H285 C279 0.930 . S
H286 C281 0.930 . S
N287 Cu276 1.985 . S
N287 C289 1.335 . S
N287 C290 1.390 . S
N288 C289 1.345 . S
N288 C291 1.336 . S
C289 N287 1.335 . S
C289 N288 1.345 . S
C289 H294 0.930 . S
C290 N287 1.390 . S
C290 C291 1.346 . S
C290 H295 0.930 . S
C291 N288 1.336 . S
C291 C290 1.346 . S
C291 H298 0.929 . S
C292 O282 1.282 . S
C292 O293 1.216 . S
O293 C292 1.216 . S
H294 C289 0.930 . S
H295 C290 0.930 . S
O296 Cu276 1.959 . S
O296 C283 1.251 . S
H297 C280 0.930 . S
H298 C291 0.929 . S
Cu299 N300 1.999 . S
Cu299 O305 1.974 . S
Cu299 N310 1.985 . S
Cu299 O319 1.959 . S
N300 Cu299 1.999 . S
N300 C302 1.263 1_655 S
N300 C304 1.389 1_655 S
N301 C302 1.358 . S
N301 C303 1.400 . S
C302 N300 1.263 1_455 S
C302 N301 1.358 . S
C302 H308 0.930 1_455 S
C303 N301 1.400 . S
C303 C304 1.351 . S
C303 H320 0.930 . S
C304 N300 1.389 1_455 S
C304 C303 1.351 . S
C304 H309 0.930 . S
O305 Cu299 1.974 . S
O305 C315 1.282 . S
C306 O307 1.261 . S
C306 O319 1.251 . S
O307 C306 1.261 . S
H308 C302 0.930 1_655 S
H309 C304 0.930 . S
N310 Cu299 1.985 . S
N310 C312 1.335 . S
N310 C313 1.390 . S
N311 C312 1.345 . S
N311 C314 1.336 . S
C312 N310 1.335 . S
C312 N311 1.345 . S
C312 H317 0.930 . S
C313 N310 1.390 . S
C313 C314 1.346 . S
C313 H318 0.930 . S
C314 N311 1.336 . S
C314 C313 1.346 . S
C314 H321 0.929 . S
C315 O305 1.282 . S
C315 O316 1.216 . S
O316 C315 1.216 . S
H317 C312 0.930 . S
H318 C313 0.930 . S
O319 Cu299 1.959 . S
O319 C306 1.251 . S
H320 C303 0.930 . S
H321 C314 0.929 . S
Cu322 N323 1.999 . S
Cu322 O328 1.974 . S
Cu322 N333 1.985 . S
Cu322 O342 1.959 . S
N323 Cu322 1.999 . S
N323 C325 1.263 . S
N323 C327 1.389 . S
N324 C325 1.358 . S
N324 C326 1.400 . S
C325 N323 1.263 . S
C325 N324 1.358 . S
C325 H331 0.930 . S
C326 N324 1.400 . S
C326 C327 1.351 . S
C326 H343 0.930 . S
C327 N323 1.389 . S
C327 C326 1.351 . S
C327 H332 0.930 . S
O328 Cu322 1.974 . S
O328 C338 1.282 . S
C329 O330 1.261 . S
C329 O342 1.251 . S
O330 C329 1.261 . S
H331 C325 0.930 . S
H332 C327 0.930 . S
N333 Cu322 1.985 . S
N333 C335 1.335 . S
N333 C336 1.390 . S
N334 C335 1.345 . S
N334 C337 1.336 . S
C335 N333 1.335 . S
C335 N334 1.345 . S
C335 H340 0.930 . S
C336 N333 1.390 . S
C336 C337 1.346 . S
C336 H341 0.930 . S
C337 N334 1.336 . S
C337 C336 1.346 . S
C337 H344 0.929 . S
C338 O328 1.282 . S
C338 O339 1.216 . S
O339 C338 1.216 . S
H340 C335 0.930 . S
H341 C336 0.930 . S
O342 Cu322 1.959 . S
O342 C329 1.251 . S
H343 C326 0.930 . S
H344 C337 0.929 . S
Cu345 N346 1.999 . S
Cu345 O351 1.974 . S
Cu345 N356 1.985 . S
Cu345 O365 1.959 . S
N346 Cu345 1.999 . S
N346 C348 1.263 1_655 S
N346 C350 1.389 1_655 S
N347 C348 1.358 . S
N347 C349 1.400 . S
C348 N346 1.263 1_455 S
C348 N347 1.358 . S
C348 H354 0.930 1_455 S
C349 N347 1.400 . S
C349 C350 1.351 . S
C349 H366 0.930 . S
C350 N346 1.389 1_455 S
C350 C349 1.351 . S
C350 H355 0.930 . S
O351 Cu345 1.974 . S
O351 C361 1.282 . S
C352 O353 1.261 . S
C352 O365 1.251 . S
O353 C352 1.261 . S
H354 C348 0.930 1_655 S
H355 C350 0.930 . S
N356 Cu345 1.985 . S
N356 C358 1.335 . S
N356 C359 1.390 . S
N357 C358 1.345 . S
N357 C360 1.336 . S
C358 N356 1.335 . S
C358 N357 1.345 . S
C358 H363 0.930 . S
C359 N356 1.390 . S
C359 C360 1.346 . S
C359 H364 0.930 . S
C360 N357 1.336 . S
C360 C359 1.346 . S
C360 H367 0.929 . S
C361 O351 1.282 . S
C361 O362 1.216 . S
O362 C361 1.216 . S
H363 C358 0.930 . S
H364 C359 0.930 . S
O365 Cu345 1.959 . S
O365 C352 1.251 . S
H366 C349 0.930 . S
H367 C360 0.929 . S
Cu368 N369 1.999 . S
Cu368 O374 1.974 . S
Cu368 N379 1.985 . S
Cu368 O388 1.959 . S
N369 Cu368 1.999 . S
N369 C371 1.263 . S
N369 C373 1.389 . S
N370 C371 1.358 . S
N370 C372 1.400 . S
C371 N369 1.263 . S
C371 N370 1.358 . S
C371 H377 0.930 . S
C372 N370 1.400 . S
C372 C373 1.351 . S
C372 H389 0.930 . S
C373 N369 1.389 . S
C373 C372 1.351 . S
C373 H378 0.930 . S
O374 Cu368 1.974 . S
O374 C384 1.282 . S
C375 O376 1.261 . S
C375 O388 1.251 . S
O376 C375 1.261 . S
H377 C371 0.930 . S
H378 C373 0.930 . S
N379 Cu368 1.985 . S
N379 C381 1.335 . S
N379 C382 1.390 . S
N380 C381 1.345 . S
N380 C383 1.336 . S
C381 N379 1.335 . S
C381 N380 1.345 . S
C381 H386 0.930 . S
C382 N379 1.390 . S
C382 C383 1.346 . S
C382 H387 0.930 . S
C383 N380 1.336 . S
C383 C382 1.346 . S
C383 H390 0.929 . S
C384 O374 1.282 . S
C384 O385 1.216 . S
O385 C384 1.216 . S
H386 C381 0.930 . S
H387 C382 0.930 . S
O388 Cu368 1.959 . S
O388 C375 1.251 . S
H389 C372 0.930 . S
H390 C383 0.929 . S
Cu391 N392 1.999 . S
Cu391 O397 1.974 . S
Cu391 N402 1.985 . S
Cu391 O411 1.959 . S
N392 Cu391 1.999 . S
N392 C394 1.263 . S
N392 C396 1.389 . S
N393 C394 1.358 . S
N393 C395 1.400 . S
C394 N392 1.263 . S
C394 N393 1.358 . S
C394 H400 0.930 . S
C395 N393 1.400 . S
C395 C396 1.351 . S
C395 H412 0.930 . S
C396 N392 1.389 . S
C396 C395 1.351 . S
C396 H401 0.930 . S
O397 Cu391 1.974 . S
O397 C407 1.282 . S
C398 O399 1.261 . S
C398 O411 1.251 . S
O399 C398 1.261 . S
H400 C394 0.930 . S
H401 C396 0.930 . S
N402 Cu391 1.985 . S
N402 C404 1.335 . S
N402 C405 1.390 . S
N403 C404 1.345 . S
N403 C406 1.336 . S
C404 N402 1.335 . S
C404 N403 1.345 . S
C404 H409 0.930 . S
C405 N402 1.390 . S
C405 C406 1.346 . S
C405 H410 0.930 . S
C406 N403 1.336 . S
C406 C405 1.346 . S
C406 H413 0.929 . S
C407 O397 1.282 . S
C407 O408 1.216 . S
O408 C407 1.216 . S
H409 C404 0.930 . S
H410 C405 0.930 . S
O411 Cu391 1.959 . S
O411 C398 1.251 . S
H412 C395 0.930 . S
H413 C406 0.929 . S
Cu414 N415 1.999 . S
Cu414 O420 1.974 . S
Cu414 N425 1.985 . S
Cu414 O434 1.959 . S
N415 Cu414 1.999 . S
N415 C417 1.263 . S
N415 C419 1.389 . S
N416 C417 1.358 . S
N416 C418 1.400 . S
C417 N415 1.263 . S
C417 N416 1.358 . S
C417 H423 0.930 . S
C418 N416 1.400 . S
C418 C419 1.351 . S
C418 H435 0.930 . S
C419 N415 1.389 . S
C419 C418 1.351 . S
C419 H424 0.930 . S
O420 Cu414 1.974 . S
O420 C430 1.282 . S
C421 O422 1.261 . S
C421 O434 1.251 . S
O422 C421 1.261 . S
H423 C417 0.930 . S
H424 C419 0.930 . S
N425 Cu414 1.985 . S
N425 C427 1.335 . S
N425 C428 1.390 . S
N426 C427 1.345 . S
N426 C429 1.336 . S
C427 N425 1.335 . S
C427 N426 1.345 . S
C427 H432 0.930 . S
C428 N425 1.390 . S
C428 C429 1.346 . S
C428 H433 0.930 . S
C429 N426 1.336 . S
C429 C428 1.346 . S
C429 H436 0.929 . S
C430 O420 1.282 . S
C430 O431 1.216 . S
O431 C430 1.216 . S
H432 C427 0.930 . S
H433 C428 0.930 . S
O434 Cu414 1.959 . S
O434 C421 1.251 . S
H435 C418 0.930 . S
H436 C429 0.929 . S
Cu437 N438 1.999 . S
Cu437 O443 1.974 . S
Cu437 N448 1.985 . S
Cu437 O457 1.959 . S
N438 Cu437 1.999 . S
N438 C440 1.263 . S
N438 C442 1.389 . S
N439 C440 1.358 . S
N439 C441 1.400 . S
C440 N438 1.263 . S
C440 N439 1.358 . S
C440 H446 0.930 . S
C441 N439 1.400 . S
C441 C442 1.351 . S
C441 H458 0.930 . S
C442 N438 1.389 . S
C442 C441 1.351 . S
C442 H447 0.930 . S
O443 Cu437 1.974 . S
O443 C453 1.282 . S
C444 O445 1.261 . S
C444 O457 1.251 . S
O445 C444 1.261 . S
H446 C440 0.930 . S
H447 C442 0.930 . S
N448 Cu437 1.985 . S
N448 C450 1.335 . S
N448 C451 1.390 . S
N449 C450 1.345 . S
N449 C452 1.336 . S
C450 N448 1.335 . S
C450 N449 1.345 . S
C450 H455 0.930 . S
C451 N448 1.390 . S
C451 C452 1.346 . S
C451 H456 0.930 . S
C452 N449 1.336 . S
C452 C451 1.346 . S
C452 H459 0.929 . S
C453 O443 1.282 . S
C453 O454 1.216 . S
O454 C453 1.216 . S
H455 C450 0.930 . S
H456 C451 0.930 . S
O457 Cu437 1.959 . S
O457 C444 1.251 . S
H458 C441 0.930 . S
H459 C452 0.929 . S
Cu460 N461 1.999 . S
Cu460 O466 1.974 . S
Cu460 N471 1.985 . S
Cu460 O480 1.959 . S
N461 Cu460 1.999 . S
N461 C463 1.263 . S
N461 C465 1.389 . S
N462 C463 1.358 . S
N462 C464 1.400 . S
C463 N461 1.263 . S
C463 N462 1.358 . S
C463 H469 0.930 . S
C464 N462 1.400 . S
C464 C465 1.351 . S
C464 H481 0.930 . S
C465 N461 1.389 . S
C465 C464 1.351 . S
C465 H470 0.930 . S
O466 Cu460 1.974 . S
O466 C476 1.282 . S
C467 O468 1.261 . S
C467 O480 1.251 . S
O468 C467 1.261 . S
H469 C463 0.930 . S
H470 C465 0.930 . S
N471 Cu460 1.985 . S
N471 C473 1.335 . S
N471 C474 1.390 . S
N472 C473 1.345 . S
N472 C475 1.336 . S
C473 N471 1.335 . S
C473 N472 1.345 . S
C473 H478 0.930 . S
C474 N471 1.390 . S
C474 C475 1.346 . S
C474 H479 0.930 . S
C475 N472 1.336 . S
C475 C474 1.346 . S
C475 H482 0.929 . S
C476 O466 1.282 . S
C476 O477 1.216 . S
O477 C476 1.216 . S
H478 C473 0.930 . S
H479 C474 0.930 . S
O480 Cu460 1.959 . S
O480 C467 1.251 . S
H481 C464 0.930 . S
H482 C475 0.929 . S
Cu483 N484 1.999 . S
Cu483 O489 1.974 . S
Cu483 N494 1.985 . S
Cu483 O503 1.959 . S
N484 Cu483 1.999 . S
N484 C486 1.263 . S
N484 C488 1.389 . S
N485 C486 1.358 . S
N485 C487 1.400 . S
C486 N484 1.263 . S
C486 N485 1.358 . S
C486 H492 0.930 . S
C487 N485 1.400 . S
C487 C488 1.351 . S
C487 H504 0.930 . S
C488 N484 1.389 . S
C488 C487 1.351 . S
C488 H493 0.930 . S
O489 Cu483 1.974 . S
O489 C499 1.282 . S
C490 O491 1.261 . S
C490 O503 1.251 . S
O491 C490 1.261 . S
H492 C486 0.930 . S
H493 C488 0.930 . S
N494 Cu483 1.985 . S
N494 C496 1.335 . S
N494 C497 1.390 . S
N495 C496 1.345 . S
N495 C498 1.336 . S
C496 N494 1.335 . S
C496 N495 1.345 . S
C496 H501 0.930 . S
C497 N494 1.390 . S
C497 C498 1.346 . S
C497 H502 0.930 . S
C498 N495 1.336 . S
C498 C497 1.346 . S
C498 H505 0.929 . S
C499 O489 1.282 . S
C499 O500 1.216 . S
O500 C499 1.216 . S
H501 C496 0.930 . S
H502 C497 0.930 . S
O503 Cu483 1.959 . S
O503 C490 1.251 . S
H504 C487 0.930 . S
H505 C498 0.929 . S
Cu506 N507 1.999 . S
Cu506 O512 1.974 . S
Cu506 N517 1.985 . S
Cu506 O526 1.959 . S
N507 Cu506 1.999 . S
N507 C509 1.263 . S
N507 C511 1.389 . S
N508 C509 1.358 . S
N508 C510 1.400 . S
C509 N507 1.263 . S
C509 N508 1.358 . S
C509 H515 0.930 . S
C510 N508 1.400 . S
C510 C511 1.351 . S
C510 H527 0.930 . S
C511 N507 1.389 . S
C511 C510 1.351 . S
C511 H516 0.930 . S
O512 Cu506 1.974 . S
O512 C522 1.282 . S
C513 O514 1.261 . S
C513 O526 1.251 . S
O514 C513 1.261 . S
H515 C509 0.930 . S
H516 C511 0.930 . S
N517 Cu506 1.985 . S
N517 C519 1.335 . S
N517 C520 1.390 . S
N518 C519 1.345 . S
N518 C521 1.336 . S
C519 N517 1.335 . S
C519 N518 1.345 . S
C519 H524 0.930 . S
C520 N517 1.390 . S
C520 C521 1.346 . S
C520 H525 0.930 . S
C521 N518 1.336 . S
C521 C520 1.346 . S
C521 H528 0.929 . S
C522 O512 1.282 . S
C522 O523 1.216 . S
O523 C522 1.216 . S
H524 C519 0.930 . S
H525 C520 0.930 . S
O526 Cu506 1.959 . S
O526 C513 1.251 . S
H527 C510 0.930 . S
H528 C521 0.929 . S
Cu529 N530 1.999 . S
Cu529 O535 1.974 . S
Cu529 N540 1.985 . S
Cu529 O549 1.959 . S
N530 Cu529 1.999 . S
N530 C532 1.263 . S
N530 C534 1.389 . S
N531 C532 1.358 . S
N531 C533 1.400 . S
C532 N530 1.263 . S
C532 N531 1.358 . S
C532 H538 0.930 . S
C533 N531 1.400 . S
C533 C534 1.351 . S
C533 H550 0.930 . S
C534 N530 1.389 . S
C534 C533 1.351 . S
C534 H539 0.930 . S
O535 Cu529 1.974 . S
O535 C545 1.282 . S
C536 O537 1.261 . S
C536 O549 1.251 . S
O537 C536 1.261 . S
H538 C532 0.930 . S
H539 C534 0.930 . S
N540 Cu529 1.985 . S
N540 C542 1.335 . S
N540 C543 1.390 . S
N541 C542 1.345 . S
N541 C544 1.336 . S
C542 N540 1.335 . S
C542 N541 1.345 . S
C542 H547 0.930 . S
C543 N540 1.390 . S
C543 C544 1.346 . S
C543 H548 0.930 . S
C544 N541 1.336 . S
C544 C543 1.346 . S
C544 H551 0.929 . S
C545 O535 1.282 . S
C545 O546 1.216 . S
O546 C545 1.216 . S
H547 C542 0.930 . S
H548 C543 0.930 . S
O549 Cu529 1.959 . S
O549 C536 1.251 . S
H550 C533 0.930 . S
H551 C544 0.929 . S
Cu552 N553 1.999 . S
Cu552 O558 1.974 . S
Cu552 N563 1.985 . S
Cu552 O572 1.959 . S
N553 Cu552 1.999 . S
N553 C555 1.263 . S
N553 C557 1.389 . S
N554 C555 1.358 . S
N554 C556 1.400 . S
C555 N553 1.263 . S
C555 N554 1.358 . S
C555 H561 0.930 . S
C556 N554 1.400 . S
C556 C557 1.351 . S
C556 H573 0.930 . S
C557 N553 1.389 . S
C557 C556 1.351 . S
C557 H562 0.930 . S
O558 Cu552 1.974 . S
O558 C568 1.282 . S
C559 O560 1.261 . S
C559 O572 1.251 . S
O560 C559 1.261 . S
H561 C555 0.930 . S
H562 C557 0.930 . S
N563 Cu552 1.985 . S
N563 C565 1.335 . S
N563 C566 1.390 . S
N564 C565 1.345 . S
N564 C567 1.336 . S
C565 N563 1.335 . S
C565 N564 1.345 . S
C565 H570 0.930 . S
C566 N563 1.390 . S
C566 C567 1.346 . S
C566 H571 0.930 . S
C567 N564 1.336 . S
C567 C566 1.346 . S
C567 H574 0.929 . S
C568 O558 1.282 . S
C568 O569 1.216 . S
O569 C568 1.216 . S
H570 C565 0.930 . S
H571 C566 0.930 . S
O572 Cu552 1.959 . S
O572 C559 1.251 . S
H573 C556 0.930 . S
H574 C567 0.929 . S
Cu575 N576 1.999 . S
Cu575 O581 1.974 . S
Cu575 N586 1.985 . S
Cu575 O595 1.959 . S
N576 Cu575 1.999 . S
N576 C578 1.263 . S
N576 C580 1.389 . S
N577 C578 1.358 . S
N577 C579 1.400 . S
C578 N576 1.263 . S
C578 N577 1.358 . S
C578 H584 0.930 . S
C579 N577 1.400 . S
C579 C580 1.351 . S
C579 H596 0.930 . S
C580 N576 1.389 . S
C580 C579 1.351 . S
C580 H585 0.930 . S
O581 Cu575 1.974 . S
O581 C591 1.282 . S
C582 O583 1.261 . S
C582 O595 1.251 . S
O583 C582 1.261 . S
H584 C578 0.930 . S
H585 C580 0.930 . S
N586 Cu575 1.985 . S
N586 C588 1.335 . S
N586 C589 1.390 . S
N587 C588 1.345 . S
N587 C590 1.336 . S
C588 N586 1.335 . S
C588 N587 1.345 . S
C588 H593 0.930 . S
C589 N586 1.390 . S
C589 C590 1.346 . S
C589 H594 0.930 . S
C590 N587 1.336 . S
C590 C589 1.346 . S
C590 H597 0.929 . S
C591 O581 1.282 . S
C591 O592 1.216 . S
O592 C591 1.216 . S
H593 C588 0.930 . S
H594 C589 0.930 . S
O595 Cu575 1.959 . S
O595 C582 1.251 . S
H596 C579 0.930 . S
H597 C590 0.929 . S
Cu598 N599 1.999 1_556 S
Cu598 O604 1.974 . S
Cu598 N609 1.985 . S
Cu598 O618 1.959 1_556 S
N599 Cu598 1.999 1_554 S
N599 C601 1.263 1_554 S
N599 C603 1.389 . S
N600 C601 1.352 1_554 S
N600 C602 1.412 . S
C601 N599 1.263 1_556 S
C601 N600 1.352 1_556 S
C601 H607 0.930 . S
C602 N600 1.412 . S
C602 C603 1.351 . S
C602 H619 0.930 . S
C603 N599 1.389 . S
C603 C602 1.351 . S
C603 H608 0.930 . S
O604 Cu598 1.974 . S
O604 C614 1.282 . S
C605 O606 1.261 . S
C605 O618 1.251 . S
O606 C605 1.261 . S
H607 C601 0.930 . S
H608 C603 0.930 . S
N609 Cu598 1.985 . S
N609 C611 1.335 1_556 S
N609 C612 1.390 . S
N610 C611 1.345 1_556 S
N610 C613 1.336 . S
C611 N609 1.335 1_554 S
C611 N610 1.345 1_554 S
C611 H616 0.930 . S
C612 N609 1.390 . S
C612 C613 1.346 . S
C612 H617 0.930 . S
C613 N610 1.336 . S
C613 C612 1.346 . S
C613 H620 0.929 . S
C614 O604 1.282 . S
C614 O615 1.216 . S
O615 C614 1.216 . S
H616 C611 0.930 . S
H617 C612 0.930 . S
O618 Cu598 1.959 1_554 S
O618 C605 1.251 . S
H619 C602 0.930 . S
H620 C613 0.929 . S
Cu621 N622 1.999 1_556 S
Cu621 O627 1.974 . S
Cu621 N632 1.985 . S
Cu621 O641 1.959 1_556 S
N622 Cu621 1.999 1_554 S
N622 C624 1.263 1_554 S
N622 C626 1.389 . S
N623 C624 1.352 1_554 S
N623 C625 1.412 . S
C624 N622 1.263 1_556 S
C624 N623 1.352 1_556 S
C624 H630 0.930 . S
C625 N623 1.412 . S
C625 C626 1.351 . S
C625 H642 0.930 . S
C626 N622 1.389 . S
C626 C625 1.351 . S
C626 H631 0.930 . S
O627 Cu621 1.974 . S
O627 C637 1.282 . S
C628 O629 1.261 . S
C628 O641 1.251 . S
O629 C628 1.261 . S
H630 C624 0.930 . S
H631 C626 0.930 . S
N632 Cu621 1.985 . S
N632 C634 1.335 1_556 S
N632 C635 1.390 . S
N633 C634 1.345 1_556 S
N633 C636 1.336 . S
C634 N632 1.335 1_554 S
C634 N633 1.345 1_554 S
C634 H639 0.930 . S
C635 N632 1.390 . S
C635 C636 1.346 . S
C635 H640 0.930 . S
C636 N633 1.336 . S
C636 C635 1.346 . S
C636 H643 0.929 . S
C637 O627 1.282 . S
C637 O638 1.216 . S
O638 C637 1.216 . S
H639 C634 0.930 . S
H640 C635 0.930 . S
O641 Cu621 1.959 1_554 S
O641 C628 1.251 . S
H642 C625 0.930 . S
H643 C636 0.929 . S
Cu644 N645 1.999 . S
Cu644 O650 1.974 . S
Cu644 N655 1.985 . S
Cu644 O664 1.959 . S
N645 Cu644 1.999 . S
N645 C647 1.263 . S
N645 C649 1.389 . S
N646 C647 1.358 . S
N646 C648 1.400 . S
C647 N645 1.263 . S
C647 N646 1.358 . S
C647 H653 0.930 . S
C648 N646 1.400 . S
C648 C649 1.351 . S
C648 H665 0.930 . S
C649 N645 1.389 . S
C649 C648 1.351 . S
C649 H654 0.930 . S
O650 Cu644 1.974 . S
O650 C660 1.282 . S
C651 O652 1.261 . S
C651 O664 1.251 . S
O652 C651 1.261 . S
H653 C647 0.930 . S
H654 C649 0.930 . S
N655 Cu644 1.985 . S
N655 C657 1.335 . S
N655 C658 1.390 . S
N656 C657 1.345 . S
N656 C659 1.336 . S
C657 N655 1.335 . S
C657 N656 1.345 . S
C657 H662 0.930 . S
C658 N655 1.390 . S
C658 C659 1.346 . S
C658 H663 0.930 . S
C659 N656 1.336 . S
C659 C658 1.346 . S
C659 H666 0.929 . S
C660 O650 1.282 . S
C660 O661 1.216 . S
O661 C660 1.216 . S
H662 C657 0.930 . S
H663 C658 0.930 . S
O664 Cu644 1.959 . S
O664 C651 1.251 . S
H665 C648 0.930 . S
H666 C659 0.929 . S
Cu667 N668 1.999 . S
Cu667 O673 1.974 . S
Cu667 N678 1.985 . S
Cu667 O687 1.959 . S
N668 Cu667 1.999 . S
N668 C670 1.263 . S
N668 C672 1.389 . S
N669 C670 1.358 . S
N669 C671 1.400 . S
C670 N668 1.263 . S
C670 N669 1.358 . S
C670 H676 0.930 . S
C671 N669 1.400 . S
C671 C672 1.351 . S
C671 H688 0.930 . S
C672 N668 1.389 . S
C672 C671 1.351 . S
C672 H677 0.930 . S
O673 Cu667 1.974 . S
O673 C683 1.282 . S
C674 O675 1.261 . S
C674 O687 1.251 . S
O675 C674 1.261 . S
H676 C670 0.930 . S
H677 C672 0.930 . S
N678 Cu667 1.985 . S
N678 C680 1.335 . S
N678 C681 1.390 . S
N679 C680 1.345 . S
N679 C682 1.336 . S
C680 N678 1.335 . S
C680 N679 1.345 . S
C680 H685 0.930 . S
C681 N678 1.390 . S
C681 C682 1.346 . S
C681 H686 0.930 . S
C682 N679 1.336 . S
C682 C681 1.346 . S
C682 H689 0.929 . S
C683 O673 1.282 . S
C683 O684 1.216 . S
O684 C683 1.216 . S
H685 C680 0.930 . S
H686 C681 0.930 . S
O687 Cu667 1.959 . S
O687 C674 1.251 . S
H688 C671 0.930 . S
H689 C682 0.929 . S
Cu690 N691 1.999 1_554 S
Cu690 O696 1.974 . S
Cu690 N701 1.985 . S
Cu690 O710 1.959 1_554 S
N691 Cu690 1.999 1_556 S
N691 C693 1.263 1_556 S
N691 C695 1.389 . S
N692 C693 1.352 1_556 S
N692 C694 1.412 . S
C693 N691 1.263 1_554 S
C693 N692 1.352 1_554 S
C693 H699 0.930 . S
C694 N692 1.412 . S
C694 C695 1.351 . S
C694 H711 0.930 . S
C695 N691 1.389 . S
C695 C694 1.351 . S
C695 H700 0.930 . S
O696 Cu690 1.974 . S
O696 C706 1.282 . S
C697 O698 1.261 . S
C697 O710 1.251 . S
O698 C697 1.261 . S
H699 C693 0.930 . S
H700 C695 0.930 . S
N701 Cu690 1.985 . S
N701 C703 1.335 1_554 S
N701 C704 1.390 . S
N702 C703 1.345 1_554 S
N702 C705 1.336 . S
C703 N701 1.335 1_556 S
C703 N702 1.345 1_556 S
C703 H708 0.930 . S
C704 N701 1.390 . S
C704 C705 1.346 . S
C704 H709 0.930 . S
C705 N702 1.336 . S
C705 C704 1.346 . S
C705 H712 0.929 . S
C706 O696 1.282 . S
C706 O707 1.216 . S
O707 C706 1.216 . S
H708 C703 0.930 . S
H709 C704 0.930 . S
O710 Cu690 1.959 1_556 S
O710 C697 1.251 . S
H711 C694 0.930 . S
H712 C705 0.929 . S
Cu713 N714 1.999 1_554 S
Cu713 O719 1.974 . S
Cu713 N724 1.985 . S
Cu713 O733 1.959 1_554 S
N714 Cu713 1.999 1_556 S
N714 C716 1.263 1_556 S
N714 C718 1.389 . S
N715 C716 1.352 1_556 S
N715 C717 1.412 . S
C716 N714 1.263 1_554 S
C716 N715 1.352 1_554 S
C716 H722 0.930 . S
C717 N715 1.412 . S
C717 C718 1.351 . S
C717 H734 0.930 . S
C718 N714 1.389 . S
C718 C717 1.351 . S
C718 H723 0.930 . S
O719 Cu713 1.974 . S
O719 C729 1.282 . S
C720 O721 1.261 . S
C720 O733 1.251 . S
O721 C720 1.261 . S
H722 C716 0.930 . S
H723 C718 0.930 . S
N724 Cu713 1.985 . S
N724 C726 1.335 1_554 S
N724 C727 1.390 . S
N725 C726 1.345 1_554 S
N725 C728 1.336 . S
C726 N724 1.335 1_556 S
C726 N725 1.345 1_556 S
C726 H731 0.930 . S
C727 N724 1.390 . S
C727 C728 1.346 . S
C727 H732 0.930 . S
C728 N725 1.336 . S
C728 C727 1.346 . S
C728 H735 0.929 . S
C729 O719 1.282 . S
C729 O730 1.216 . S
O730 C729 1.216 . S
H731 C726 0.930 . S
H732 C727 0.930 . S
O733 Cu713 1.959 1_556 S
O733 C720 1.251 . S
H734 C717 0.930 . S
H735 C728 0.929 . S
C736 C737 1.387 . S
C736 H740 0.950 . S
C736 C745 1.390 . S
C737 C736 1.387 . S
C737 C739 1.387 . S
H738 C745 0.950 . S
C739 C737 1.387 . S
C739 C741 1.390 . S
C739 H743 0.950 . S
H740 C736 0.950 . S
C741 C739 1.390 . S
C741 C742 1.387 . S
C741 H744 0.950 . S
C742 C741 1.387 . S
C742 C745 1.387 . S
H743 C739 0.950 . S
H744 C741 0.950 . S
C745 C736 1.390 . S
C745 H738 0.950 . S
C745 C742 1.387 . S
C746 C747 1.387 . S
C746 H750 0.950 . S
C746 C755 1.390 . S
C747 C746 1.387 . S
C747 C749 1.387 . S
H748 C755 0.950 . S
C749 C747 1.387 . S
C749 C751 1.390 . S
C749 H753 0.950 . S
H750 C746 0.950 . S
C751 C749 1.390 . S
C751 C752 1.387 . S
C751 H754 0.950 . S
C752 C751 1.387 . S
C752 C755 1.387 . S
H753 C749 0.950 . S
H754 C751 0.950 . S
C755 C746 1.390 . S
C755 H748 0.950 . S
C755 C752 1.387 . S
C756 C757 1.387 . S
C756 H760 0.950 . S
C756 C765 1.390 . S
C757 C756 1.387 . S
C757 C759 1.387 . S
H758 C765 0.950 . S
C759 C757 1.387 . S
C759 C761 1.390 . S
C759 H763 0.950 . S
H760 C756 0.950 . S
C761 C759 1.390 . S
C761 C762 1.387 . S
C761 H764 0.950 . S
C762 C761 1.387 . S
C762 C765 1.387 . S
H763 C759 0.950 . S
H764 C761 0.950 . S
C765 C756 1.390 . S
C765 H758 0.950 . S
C765 C762 1.387 . S
C766 C767 1.387 . S
C766 H770 0.950 . S
C766 C775 1.390 . S
C767 C766 1.387 . S
C767 C769 1.387 . S
H768 C775 0.950 . S
C769 C767 1.387 . S
C769 C771 1.390 . S
C769 H773 0.950 . S
H770 C766 0.950 . S
C771 C769 1.390 . S
C771 C772 1.387 . S
C771 H774 0.950 . S
C772 C771 1.387 . S
C772 C775 1.387 . S
H773 C769 0.950 . S
H774 C771 0.950 . S
C775 C766 1.390 . S
C775 H768 0.950 . S
C775 C772 1.387 . S
C776 C777 1.387 . S
C776 H780 0.950 . S
C776 C785 1.390 . S
C777 C776 1.387 . S
C777 C779 1.387 . S
H778 C785 0.950 . S
C779 C777 1.387 . S
C779 C781 1.390 . S
C779 H783 0.950 . S
H780 C776 0.950 . S
C781 C779 1.390 . S
C781 C782 1.387 . S
C781 H784 0.950 . S
C782 C781 1.387 . S
C782 C785 1.387 . S
H783 C779 0.950 . S
H784 C781 0.950 . S
C785 C776 1.390 . S
C785 H778 0.950 . S
C785 C782 1.387 . S
C786 C787 1.387 . S
C786 H790 0.950 . S
C786 C795 1.390 . S
C787 C786 1.387 . S
C787 C789 1.387 . S
H788 C795 0.950 . S
C789 C787 1.387 . S
C789 C791 1.390 . S
C789 H793 0.950 . S
H790 C786 0.950 . S
C791 C789 1.390 . S
C791 C792 1.387 . S
C791 H794 0.950 . S
C792 C791 1.387 . S
C792 C795 1.387 . S
H793 C789 0.950 . S
H794 C791 0.950 . S
C795 C786 1.390 . S
C795 H788 0.950 . S
C795 C792 1.387 . S
C796 C797 1.387 . S
C796 H800 0.950 . S
C796 C805 1.390 . S
C797 C796 1.387 . S
C797 C799 1.387 . S
H798 C805 0.950 . S
C799 C797 1.387 . S
C799 C801 1.390 . S
C799 H803 0.950 . S
H800 C796 0.950 . S
C801 C799 1.390 . S
C801 C802 1.387 . S
C801 H804 0.950 . S
C802 C801 1.387 . S
C802 C805 1.387 . S
H803 C799 0.950 . S
H804 C801 0.950 . S
C805 C796 1.390 . S
C805 H798 0.950 . S
C805 C802 1.387 . S
C806 C807 1.387 . S
C806 H810 0.950 . S
C806 C815 1.390 . S
C807 C806 1.387 . S
C807 C809 1.387 . S
H808 C815 0.950 . S
C809 C807 1.387 . S
C809 C811 1.390 . S
C809 H813 0.950 . S
H810 C806 0.950 . S
C811 C809 1.390 . S
C811 C812 1.387 . S
C811 H814 0.950 . S
C812 C811 1.387 . S
C812 C815 1.387 . S
H813 C809 0.950 . S
H814 C811 0.950 . S
C815 C806 1.390 . S
C815 H808 0.950 . S
C815 C812 1.387 . S
C816 C817 1.387 . S
C816 H820 0.950 . S
C816 C825 1.390 . S
C817 C816 1.387 . S
C817 C819 1.387 . S
H818 C825 0.950 . S
C819 C817 1.387 . S
C819 C821 1.390 . S
C819 H823 0.950 . S
H820 C816 0.950 . S
C821 C819 1.390 . S
C821 C822 1.387 . S
C821 H824 0.950 . S
C822 C821 1.387 . S
C822 C825 1.387 . S
H823 C819 0.950 . S
H824 C821 0.950 . S
C825 C816 1.390 . S
C825 H818 0.950 . S
C825 C822 1.387 . S
C826 C827 1.387 . S
C826 H830 0.950 . S
C826 C835 1.390 . S
C827 C826 1.387 . S
C827 C829 1.387 . S
H828 C835 0.950 . S
C829 C827 1.387 . S
C829 C831 1.390 . S
C829 H833 0.950 . S
H830 C826 0.950 . S
C831 C829 1.390 . S
C831 C832 1.387 . S
C831 H834 0.950 . S
C832 C831 1.387 . S
C832 C835 1.387 . S
H833 C829 0.950 . S
H834 C831 0.950 . S
C835 C826 1.390 . S
C835 H828 0.950 . S
C835 C832 1.387 . S
C836 C837 1.387 . S
C836 H840 0.950 . S
C836 C845 1.390 . S
C837 C836 1.387 . S
C837 C839 1.387 . S
H838 C845 0.950 . S
C839 C837 1.387 . S
C839 C841 1.390 . S
C839 H843 0.950 . S
H840 C836 0.950 . S
C841 C839 1.390 . S
C841 C842 1.387 . S
C841 H844 0.950 . S
C842 C841 1.387 . S
C842 C845 1.387 . S
H843 C839 0.950 . S
H844 C841 0.950 . S
C845 C836 1.390 . S
C845 H838 0.950 . S
C845 C842 1.387 . S
C846 C847 1.387 . S
C846 H850 0.950 . S
C846 C855 1.390 . S
C847 C846 1.387 . S
C847 C849 1.387 . S
H848 C855 0.950 . S
C849 C847 1.387 . S
C849 C851 1.390 . S
C849 H853 0.950 . S
H850 C846 0.950 . S
C851 C849 1.390 . S
C851 C852 1.387 . S
C851 H854 0.950 . S
C852 C851 1.387 . S
C852 C855 1.387 . S
H853 C849 0.950 . S
H854 C851 0.950 . S
C855 C846 1.390 . S
C855 H848 0.950 . S
C855 C852 1.387 . S
C856 C857 1.387 . S
C856 H860 0.950 . S
C856 C865 1.390 . S
C857 C856 1.387 . S
C857 C859 1.387 . S
H858 C865 0.950 . S
C859 C857 1.387 . S
C859 C861 1.390 . S
C859 H863 0.950 . S
H860 C856 0.950 . S
C861 C859 1.390 . S
C861 C862 1.387 . S
C861 H864 0.950 . S
C862 C861 1.387 . S
C862 C865 1.387 . S
H863 C859 0.950 . S
H864 C861 0.950 . S
C865 C856 1.390 . S
C865 H858 0.950 . S
C865 C862 1.387 . S
C866 C867 1.387 . S
C866 H870 0.950 . S
C866 C875 1.390 . S
C867 C866 1.387 . S
C867 C869 1.387 . S
H868 C875 0.950 . S
C869 C867 1.387 . S
C869 C871 1.390 . S
C869 H873 0.950 . S
H870 C866 0.950 . S
C871 C869 1.390 . S
C871 C872 1.387 . S
C871 H874 0.950 . S
C872 C871 1.387 . S
C872 C875 1.387 . S
H873 C869 0.950 . S
H874 C871 0.950 . S
C875 C866 1.390 . S
C875 H868 0.950 . S
C875 C872 1.387 . S
C876 C877 1.387 . S
C876 H880 0.950 . S
C876 C885 1.390 . S
C877 C876 1.387 . S
C877 C879 1.387 . S
H878 C885 0.950 . S
C879 C877 1.387 . S
C879 C881 1.390 . S
C879 H883 0.950 . S
H880 C876 0.950 . S
C881 C879 1.390 . S
C881 C882 1.387 . S
C881 H884 0.950 . S
C882 C881 1.387 . S
C882 C885 1.387 . S
H883 C879 0.950 . S
H884 C881 0.950 . S
C885 C876 1.390 . S
C885 H878 0.950 . S
C885 C882 1.387 . S
C886 C887 1.387 . S
C886 H890 0.950 . S
C886 C895 1.390 . S
C887 C886 1.387 . S
C887 C889 1.387 . S
H888 C895 0.950 . S
C889 C887 1.387 . S
C889 C891 1.390 . S
C889 H893 0.950 . S
H890 C886 0.950 . S
C891 C889 1.390 . S
C891 C892 1.387 . S
C891 H894 0.950 . S
C892 C891 1.387 . S
C892 C895 1.387 . S
H893 C889 0.950 . S
H894 C891 0.950 . S
C895 C886 1.390 . S
C895 H888 0.950 . S
C895 C892 1.387 . S
C896 C897 1.387 . S
C896 H900 0.950 . S
C896 C905 1.390 1_655 S
C897 C896 1.387 . S
C897 C899 1.387 . S
H898 C905 0.950 . S
C899 C897 1.387 . S
C899 C901 1.390 1_655 S
C899 H903 0.950 . S
H900 C896 0.950 . S
C901 C899 1.390 1_455 S
C901 C902 1.387 . S
C901 H904 0.950 . S
C902 C901 1.387 . S
C902 C905 1.387 . S
H903 C899 0.950 . S
H904 C901 0.950 . S
C905 C896 1.390 1_455 S
C905 H898 0.950 . S
C905 C902 1.387 . S
C906 C907 1.387 . S
C906 H910 0.950 . S
C906 C915 1.390 1_565 S
C907 C906 1.387 . S
C907 C909 1.387 . S
H908 C915 0.950 . S
C909 C907 1.387 . S
C909 C911 1.390 1_565 S
C909 H913 0.950 . S
H910 C906 0.950 . S
C911 C909 1.390 1_545 S
C911 C912 1.387 . S
C911 H914 0.950 . S
C912 C911 1.387 . S
C912 C915 1.387 . S
H913 C909 0.950 . S
H914 C911 0.950 . S
C915 C906 1.390 1_545 S
C915 H908 0.950 . S
C915 C912 1.387 . S
C916 C917 1.387 1_554 S
C916 H920 0.950 . S
C916 C925 1.390 1_465 S
C917 C916 1.387 1_556 S
C917 C919 1.387 . S
H918 C925 0.950 . S
C919 C917 1.387 . S
C919 C921 1.390 1_465 S
C919 H923 0.950 . S
H920 C916 0.950 . S
C921 C919 1.390 1_645 S
C921 C922 1.387 1_556 S
C921 H924 0.950 . S
C922 C921 1.387 1_554 S
C922 C925 1.387 . S
H923 C919 0.950 . S
H924 C921 0.950 . S
C925 C916 1.390 1_645 S
C925 H918 0.950 . S
C925 C922 1.387 . S
C926 C927 1.387 . S
C926 H930 0.950 . S
C926 C935 1.390 . S
C927 C926 1.387 . S
C927 C929 1.387 1_554 S
H928 C935 0.950 . S
C929 C927 1.387 1_556 S
C929 C931 1.390 . S
C929 H933 0.950 . S
H930 C926 0.950 . S
C931 C929 1.390 . S
C931 C932 1.387 . S
C931 H934 0.950 . S
C932 C931 1.387 . S
C932 C935 1.387 1_556 S
H933 C929 0.950 . S
H934 C931 0.950 . S
C935 C926 1.390 . S
C935 H928 0.950 . S
C935 C932 1.387 1_554 S
C936 C937 1.387 . S
C936 H940 0.950 . S
C936 C945 1.390 1_655 S
C937 C936 1.387 . S
C937 C939 1.387 . S
H938 C945 0.950 . S
C939 C937 1.387 . S
C939 C941 1.390 1_655 S
C939 H943 0.950 . S
H940 C936 0.950 . S
C941 C939 1.390 1_455 S
C941 C942 1.387 . S
C941 H944 0.950 . S
C942 C941 1.387 . S
C942 C945 1.387 . S
H943 C939 0.950 . S
H944 C941 0.950 . S
C945 C936 1.390 1_455 S
C945 H938 0.950 . S
C945 C942 1.387 . S
C946 C947 1.387 . S
C946 H950 0.950 . S
C946 C955 1.390 1_565 S
C947 C946 1.387 . S
C947 C949 1.387 . S
H948 C955 0.950 . S
C949 C947 1.387 . S
C949 C951 1.390 1_565 S
C949 H953 0.950 . S
H950 C946 0.950 . S
C951 C949 1.390 1_545 S
C951 C952 1.387 . S
C951 H954 0.950 . S
C952 C951 1.387 . S
C952 C955 1.387 . S
H953 C949 0.950 . S
H954 C951 0.950 . S
C955 C946 1.390 1_545 S
C955 H948 0.950 . S
C955 C952 1.387 . S
C956 C957 1.387 . S
C956 H960 0.950 . S
C956 C965 1.390 . S
C957 C956 1.387 . S
C957 C959 1.387 1_556 S
H958 C965 0.950 . S
C959 C957 1.387 1_554 S
C959 C961 1.390 . S
C959 H963 0.950 . S
H960 C956 0.950 . S
C961 C959 1.390 . S
C961 C962 1.387 . S
C961 H964 0.950 . S
C962 C961 1.387 . S
C962 C965 1.387 1_554 S
H963 C959 0.950 . S
H964 C961 0.950 . S
C965 C956 1.390 . S
C965 H958 0.950 . S
C965 C962 1.387 1_556 S
C966 C967 1.387 . S
C966 H970 0.950 . S
C966 C975 1.390 . S
C967 C966 1.387 . S
C967 C969 1.387 . S
H968 C975 0.950 . S
C969 C967 1.387 . S
C969 C971 1.390 . S
C969 H973 0.950 . S
H970 C966 0.950 . S
C971 C969 1.390 . S
C971 C972 1.387 . S
C971 H974 0.950 . S
C972 C971 1.387 . S
C972 C975 1.387 . S
H973 C969 0.950 . S
H974 C971 0.950 . S
C975 C966 1.390 . S
C975 H968 0.950 . S
C975 C972 1.387 . S
C976 C977 1.387 . S
C976 H980 0.950 . S
C976 C985 1.390 1_655 S
C977 C976 1.387 . S
C977 C979 1.387 . S
H978 C985 0.950 . S
C979 C977 1.387 . S
C979 C981 1.390 1_655 S
C979 H983 0.950 . S
H980 C976 0.950 . S
C981 C979 1.390 1_455 S
C981 C982 1.387 . S
C981 H984 0.950 . S
C982 C981 1.387 . S
C982 C985 1.387 . S
H983 C979 0.950 . S
H984 C981 0.950 . S
C985 C976 1.390 1_455 S
C985 H978 0.950 . S
C985 C982 1.387 . S
C986 C987 1.387 . S
C986 H990 0.950 . S
C986 C995 1.390 . S
C987 C986 1.387 . S
C987 C989 1.387 . S
H988 C995 0.950 . S
C989 C987 1.387 . S
C989 C991 1.390 . S
C989 H993 0.950 . S
H990 C986 0.950 . S
C991 C989 1.390 . S
C991 C992 1.387 . S
C991 H994 0.950 . S
C992 C991 1.387 . S
C992 C995 1.387 . S
H993 C989 0.950 . S
H994 C991 0.950 . S
C995 C986 1.390 . S
C995 H988 0.950 . S
C995 C992 1.387 . S
C996 C997 1.387 . S
C996 H1000 0.950 . S
C996 C1005 1.390 . S
C997 C996 1.387 . S
C997 C999 1.387 . S
H998 C1005 0.950 . S
C999 C997 1.387 . S
C999 C1001 1.390 . S
C999 H1003 0.950 . S
H1000 C996 0.950 . S
C1001 C999 1.390 . S
C1001 C1002 1.387 . S
C1001 H1004 0.950 . S
C1002 C1001 1.387 . S
C1002 C1005 1.387 . S
H1003 C999 0.950 . S
H1004 C1001 0.950 . S
C1005 C996 1.390 . S
C1005 H998 0.950 . S
C1005 C1002 1.387 . S
C1006 C1007 1.387 . S
C1006 H1010 0.950 . S
C1006 C1015 1.390 . S
C1007 C1006 1.387 . S
C1007 C1009 1.387 . S
H1008 C1015 0.950 . S
C1009 C1007 1.387 . S
C1009 C1011 1.390 . S
C1009 H1013 0.950 . S
H1010 C1006 0.950 . S
C1011 C1009 1.390 . S
C1011 C1012 1.387 . S
C1011 H1014 0.950 . S
C1012 C1011 1.387 . S
C1012 C1015 1.387 . S
H1013 C1009 0.950 . S
H1014 C1011 0.950 . S
C1015 C1006 1.390 . S
C1015 H1008 0.950 . S
C1015 C1012 1.387 . S
C1016 C1017 1.387 . S
C1016 H1020 0.950 . S
C1016 C1025 1.390 . S
C1017 C1016 1.387 . S
C1017 C1019 1.387 . S
H1018 C1025 0.950 . S
C1019 C1017 1.387 . S
C1019 C1021 1.390 . S
C1019 H1023 0.950 . S
H1020 C1016 0.950 . S
C1021 C1019 1.390 . S
C1021 C1022 1.387 . S
C1021 H1024 0.950 . S
C1022 C1021 1.387 . S
C1022 C1025 1.387 . S
H1023 C1019 0.950 . S
H1024 C1021 0.950 . S
C1025 C1016 1.390 . S
C1025 H1018 0.950 . S
C1025 C1022 1.387 . S
C1026 C1027 1.387 . S
C1026 H1030 0.950 . S
C1026 C1035 1.390 1_545 S
C1027 C1026 1.387 . S
C1027 C1029 1.387 . S
H1028 C1035 0.950 . S
C1029 C1027 1.387 . S
C1029 C1031 1.390 1_545 S
C1029 H1033 0.950 . S
H1030 C1026 0.950 . S
C1031 C1029 1.390 1_565 S
C1031 C1032 1.387 . S
C1031 H1034 0.950 . S
C1032 C1031 1.387 . S
C1032 C1035 1.387 . S
H1033 C1029 0.950 . S
H1034 C1031 0.950 . S
C1035 C1026 1.390 1_565 S
C1035 H1028 0.950 . S
C1035 C1032 1.387 . S
C1036 C1037 1.387 . S
C1036 H1040 0.950 . S
C1036 C1045 1.390 . S
C1037 C1036 1.387 . S
C1037 C1039 1.387 . S
H1038 C1045 0.950 . S
C1039 C1037 1.387 . S
C1039 C1041 1.390 . S
C1039 H1043 0.950 . S
H1040 C1036 0.950 . S
C1041 C1039 1.390 . S
C1041 C1042 1.387 . S
C1041 H1044 0.950 . S
C1042 C1041 1.387 . S
C1042 C1045 1.387 . S
H1043 C1039 0.950 . S
H1044 C1041 0.950 . S
C1045 C1036 1.390 . S
C1045 H1038 0.950 . S
C1045 C1042 1.387 . S
C1046 C1047 1.387 . S
C1046 H1050 0.950 . S
C1046 C1055 1.390 . S
C1047 C1046 1.387 . S
C1047 C1049 1.387 1_556 S
H1048 C1055 0.950 . S
C1049 C1047 1.387 1_554 S
C1049 C1051 1.390 . S
C1049 H1053 0.950 . S
H1050 C1046 0.950 . S
C1051 C1049 1.390 . S
C1051 C1052 1.387 . S
C1051 H1054 0.950 . S
C1052 C1051 1.387 . S
C1052 C1055 1.387 1_554 S
H1053 C1049 0.950 . S
H1054 C1051 0.950 . S
C1055 C1046 1.390 . S
C1055 H1048 0.950 . S
C1055 C1052 1.387 1_556 S
C1056 C1057 1.387 . S
C1056 H1060 0.950 . S
C1056 C1065 1.390 . S
C1057 C1056 1.387 . S
C1057 C1059 1.387 . S
H1058 C1065 0.950 . S
C1059 C1057 1.387 . S
C1059 C1061 1.390 . S
C1059 H1063 0.950 . S
H1060 C1056 0.950 . S
C1061 C1059 1.390 . S
C1061 C1062 1.387 . S
C1061 H1064 0.950 . S
C1062 C1061 1.387 . S
C1062 C1065 1.387 . S
H1063 C1059 0.950 . S
H1064 C1061 0.950 . S
C1065 C1056 1.390 . S
C1065 H1058 0.950 . S
C1065 C1062 1.387 . S
C1066 C1067 1.387 . S
C1066 H1070 0.950 . S
C1066 C1075 1.390 . S
C1067 C1066 1.387 . S
C1067 C1069 1.387 . S
H1068 C1075 0.950 . S
C1069 C1067 1.387 . S
C1069 C1071 1.390 . S
C1069 H1073 0.950 . S
H1070 C1066 0.950 . S
C1071 C1069 1.390 . S
C1071 C1072 1.387 . S
C1071 H1074 0.950 . S
C1072 C1071 1.387 . S
C1072 C1075 1.387 . S
H1073 C1069 0.950 . S
H1074 C1071 0.950 . S
C1075 C1066 1.390 . S
C1075 H1068 0.950 . S
C1075 C1072 1.387 . S
C1076 C1077 1.387 . S
C1076 H1080 0.950 . S
C1076 C1085 1.390 . S
C1077 C1076 1.387 . S
C1077 C1079 1.387 . S
H1078 C1085 0.950 . S
C1079 C1077 1.387 . S
C1079 C1081 1.390 . S
C1079 H1083 0.950 . S
H1080 C1076 0.950 . S
C1081 C1079 1.390 . S
C1081 C1082 1.387 . S
C1081 H1084 0.950 . S
C1082 C1081 1.387 . S
C1082 C1085 1.387 . S
H1083 C1079 0.950 . S
H1084 C1081 0.950 . S
C1085 C1076 1.390 . S
C1085 H1078 0.950 . S
C1085 C1082 1.387 . S
C1086 C1087 1.387 . S
C1086 H1090 0.950 . S
C1086 C1095 1.390 . S
C1087 C1086 1.387 . S
C1087 C1089 1.387 . S
H1088 C1095 0.950 . S
C1089 C1087 1.387 . S
C1089 C1091 1.390 . S
C1089 H1093 0.950 . S
H1090 C1086 0.950 . S
C1091 C1089 1.390 . S
C1091 C1092 1.387 . S
C1091 H1094 0.950 . S
C1092 C1091 1.387 . S
C1092 C1095 1.387 . S
H1093 C1089 0.950 . S
H1094 C1091 0.950 . S
C1095 C1086 1.390 . S
C1095 H1088 0.950 . S
C1095 C1092 1.387 . S
C1096 C1097 1.387 . S
C1096 H1100 0.950 . S
C1096 C1105 1.390 . S
C1097 C1096 1.387 . S
C1097 C1099 1.387 . S
H1098 C1105 0.950 . S
C1099 C1097 1.387 . S
C1099 C1101 1.390 . S
C1099 H1103 0.950 . S
H1100 C1096 0.950 . S
C1101 C1099 1.390 . S
C1101 C1102 1.387 . S
C1101 H1104 0.950 . S
C1102 C1101 1.387 . S
C1102 C1105 1.387 . S
H1103 C1099 0.950 . S
H1104 C1101 0.950 . S
C1105 C1096 1.390 . S
C1105 H1098 0.950 . S
C1105 C1102 1.387 . S
C1106 C1107 1.387 . S
C1106 H1110 0.950 . S
C1106 C1115 1.390 . S
C1107 C1106 1.387 . S
C1107 C1109 1.387 . S
H1108 C1115 0.950 . S
C1109 C1107 1.387 . S
C1109 C1111 1.390 . S
C1109 H1113 0.950 . S
H1110 C1106 0.950 . S
C1111 C1109 1.390 . S
C1111 C1112 1.387 . S
C1111 H1114 0.950 . S
C1112 C1111 1.387 . S
C1112 C1115 1.387 . S
H1113 C1109 0.950 . S
H1114 C1111 0.950 . S
C1115 C1106 1.390 . S
C1115 H1108 0.950 . S
C1115 C1112 1.387 . S
C1116 C1117 1.387 . S
C1116 H1120 0.950 . S
C1116 C1125 1.390 . S
C1117 C1116 1.387 . S
C1117 C1119 1.387 . S
H1118 C1125 0.950 . S
C1119 C1117 1.387 . S
C1119 C1121 1.390 . S
C1119 H1123 0.950 . S
H1120 C1116 0.950 . S
C1121 C1119 1.390 . S
C1121 C1122 1.387 . S
C1121 H1124 0.950 . S
C1122 C1121 1.387 . S
C1122 C1125 1.387 . S
H1123 C1119 0.950 . S
H1124 C1121 0.950 . S
C1125 C1116 1.390 . S
C1125 H1118 0.950 . S
C1125 C1122 1.387 . S
C1126 C1127 1.387 . S
C1126 H1130 0.950 . S
C1126 C1135 1.390 . S
C1127 C1126 1.387 . S
C1127 C1129 1.387 . S
H1128 C1135 0.950 . S
C1129 C1127 1.387 . S
C1129 C1131 1.390 . S
C1129 H1133 0.950 . S
H1130 C1126 0.950 . S
C1131 C1129 1.390 . S
C1131 C1132 1.387 . S
C1131 H1134 0.950 . S
C1132 C1131 1.387 . S
C1132 C1135 1.387 . S
H1133 C1129 0.950 . S
H1134 C1131 0.950 . S
C1135 C1126 1.390 . S
C1135 H1128 0.950 . S
C1135 C1132 1.387 . S
C1136 C1137 1.387 . S
C1136 H1140 0.950 . S
C1136 C1145 1.390 . S
C1137 C1136 1.387 . S
C1137 C1139 1.387 . S
H1138 C1145 0.950 . S
C1139 C1137 1.387 . S
C1139 C1141 1.390 . S
C1139 H1143 0.950 . S
H1140 C1136 0.950 . S
C1141 C1139 1.390 . S
C1141 C1142 1.387 . S
C1141 H1144 0.950 . S
C1142 C1141 1.387 . S
C1142 C1145 1.387 . S
H1143 C1139 0.950 . S
H1144 C1141 0.950 . S
C1145 C1136 1.390 . S
C1145 H1138 0.950 . S
C1145 C1142 1.387 . S
C1146 C1147 1.387 . S
C1146 H1150 0.950 . S
C1146 C1155 1.390 . S
C1147 C1146 1.387 . S
C1147 C1149 1.387 . S
H1148 C1155 0.950 . S
C1149 C1147 1.387 . S
C1149 C1151 1.390 . S
C1149 H1153 0.950 . S
H1150 C1146 0.950 . S
C1151 C1149 1.390 . S
C1151 C1152 1.387 . S
C1151 H1154 0.950 . S
C1152 C1151 1.387 . S
C1152 C1155 1.387 . S
H1153 C1149 0.950 . S
H1154 C1151 0.950 . S
C1155 C1146 1.390 . S
C1155 H1148 0.950 . S
C1155 C1152 1.387 . S
C1156 C1157 1.387 . S
C1156 H1160 0.950 . S
C1156 C1165 1.390 . S
C1157 C1156 1.387 . S
C1157 C1159 1.387 . S
H1158 C1165 0.950 . S
C1159 C1157 1.387 . S
C1159 C1161 1.390 . S
C1159 H1163 0.950 . S
H1160 C1156 0.950 . S
C1161 C1159 1.390 . S
C1161 C1162 1.387 . S
C1161 H1164 0.950 . S
C1162 C1161 1.387 . S
C1162 C1165 1.387 . S
H1163 C1159 0.950 . S
H1164 C1161 0.950 . S
C1165 C1156 1.390 . S
C1165 H1158 0.950 . S
C1165 C1162 1.387 . S
C1166 C1167 1.387 . S
C1166 H1170 0.950 . S
C1166 C1175 1.390 . S
C1167 C1166 1.387 . S
C1167 C1169 1.387 . S
H1168 C1175 0.950 . S
C1169 C1167 1.387 . S
C1169 C1171 1.390 . S
C1169 H1173 0.950 . S
H1170 C1166 0.950 . S
C1171 C1169 1.390 . S
C1171 C1172 1.387 . S
C1171 H1174 0.950 . S
C1172 C1171 1.387 . S
C1172 C1175 1.387 . S
H1173 C1169 0.950 . S
H1174 C1171 0.950 . S
C1175 C1166 1.390 . S
C1175 H1168 0.950 . S
C1175 C1172 1.387 . S
C1176 C1177 1.387 . S
C1176 H1180 0.950 . S
C1176 C1185 1.390 . S
C1177 C1176 1.387 . S
C1177 C1179 1.387 . S
H1178 C1185 0.950 . S
C1179 C1177 1.387 . S
C1179 C1181 1.390 . S
C1179 H1183 0.950 . S
H1180 C1176 0.950 . S
C1181 C1179 1.390 . S
C1181 C1182 1.387 . S
C1181 H1184 0.950 . S
C1182 C1181 1.387 . S
C1182 C1185 1.387 . S
H1183 C1179 0.950 . S
H1184 C1181 0.950 . S
C1185 C1176 1.390 . S
C1185 H1178 0.950 . S
C1185 C1182 1.387 . S
C1186 C1187 1.387 . S
C1186 H1190 0.950 . S
C1186 C1195 1.390 . S
C1187 C1186 1.387 . S
C1187 C1189 1.387 . S
H1188 C1195 0.950 . S
C1189 C1187 1.387 . S
C1189 C1191 1.390 . S
C1189 H1193 0.950 . S
H1190 C1186 0.950 . S
C1191 C1189 1.390 . S
C1191 C1192 1.387 . S
C1191 H1194 0.950 . S
C1192 C1191 1.387 . S
C1192 C1195 1.387 . S
H1193 C1189 0.950 . S
H1194 C1191 0.950 . S
C1195 C1186 1.390 . S
C1195 H1188 0.950 . S
C1195 C1192 1.387 . S
C1196 C1197 1.387 . S
C1196 H1200 0.950 . S
C1196 C1205 1.390 . S
C1197 C1196 1.387 . S
C1197 C1199 1.387 . S
H1198 C1205 0.950 . S
C1199 C1197 1.387 . S
C1199 C1201 1.390 . S
C1199 H1203 0.950 . S
H1200 C1196 0.950 . S
C1201 C1199 1.390 . S
C1201 C1202 1.387 . S
C1201 H1204 0.950 . S
C1202 C1201 1.387 . S
C1202 C1205 1.387 . S
H1203 C1199 0.950 . S
H1204 C1201 0.950 . S
C1205 C1196 1.390 . S
C1205 H1198 0.950 . S
C1205 C1202 1.387 . S
C1206 C1207 1.387 . S
C1206 H1210 0.950 . S
C1206 C1215 1.390 . S
C1207 C1206 1.387 . S
C1207 C1209 1.387 . S
H1208 C1215 0.950 . S
C1209 C1207 1.387 . S
C1209 C1211 1.390 . S
C1209 H1213 0.950 . S
H1210 C1206 0.950 . S
C1211 C1209 1.390 . S
C1211 C1212 1.387 . S
C1211 H1214 0.950 . S
C1212 C1211 1.387 . S
C1212 C1215 1.387 . S
H1213 C1209 0.950 . S
H1214 C1211 0.950 . S
C1215 C1206 1.390 . S
C1215 H1208 0.950 . S
C1215 C1212 1.387 . S
C1216 C1217 1.387 . S
C1216 H1220 0.950 . S
C1216 C1225 1.390 . S
C1217 C1216 1.387 . S
C1217 C1219 1.387 . S
H1218 C1225 0.950 . S
C1219 C1217 1.387 . S
C1219 C1221 1.390 . S
C1219 H1223 0.950 . S
H1220 C1216 0.950 . S
C1221 C1219 1.390 . S
C1221 C1222 1.387 . S
C1221 H1224 0.950 . S
C1222 C1221 1.387 . S
C1222 C1225 1.387 . S
H1223 C1219 0.950 . S
H1224 C1221 0.950 . S
C1225 C1216 1.390 . S
C1225 H1218 0.950 . S
C1225 C1222 1.387 . S
C1226 C1227 1.387 . S
C1226 H1230 0.950 . S
C1226 C1235 1.390 . S
C1227 C1226 1.387 . S
C1227 C1229 1.387 . S
H1228 C1235 0.950 . S
C1229 C1227 1.387 . S
C1229 C1231 1.390 . S
C1229 H1233 0.950 . S
H1230 C1226 0.950 . S
C1231 C1229 1.390 . S
C1231 C1232 1.387 . S
C1231 H1234 0.950 . S
C1232 C1231 1.387 . S
C1232 C1235 1.387 . S
H1233 C1229 0.950 . S
H1234 C1231 0.950 . S
C1235 C1226 1.390 . S
C1235 H1228 0.950 . S
C1235 C1232 1.387 . S
C1236 C1237 1.387 1_554 S
C1236 H1240 0.950 . S
C1236 C1245 1.390 . S
C1237 C1236 1.387 1_556 S
C1237 C1239 1.387 . S
H1238 C1245 0.950 . S
C1239 C1237 1.387 . S
C1239 C1241 1.390 . S
C1239 H1243 0.950 . S
H1240 C1236 0.950 . S
C1241 C1239 1.390 . S
C1241 C1242 1.387 . S
C1241 H1244 0.950 . S
C1242 C1241 1.387 . S
C1242 C1245 1.387 1_556 S
H1243 C1239 0.950 . S
H1244 C1241 0.950 . S
C1245 C1236 1.390 . S
C1245 H1238 0.950 . S
C1245 C1242 1.387 1_554 S
C1246 C1247 1.387 . S
C1246 H1250 0.950 . S
C1246 C1255 1.390 . S
C1247 C1246 1.387 . S
C1247 C1249 1.387 1_556 S
H1248 C1255 0.950 . S
C1249 C1247 1.387 1_554 S
C1249 C1251 1.390 . S
C1249 H1253 0.950 . S
H1250 C1246 0.950 . S
C1251 C1249 1.390 . S
C1251 C1252 1.387 1_554 S
C1251 H1254 0.950 . S
C1252 C1251 1.387 1_556 S
C1252 C1255 1.387 . S
H1253 C1249 0.950 . S
H1254 C1251 0.950 . S
C1255 C1246 1.390 . S
C1255 H1248 0.950 . S
C1255 C1252 1.387 . S
C1256 C1257 1.387 . S
C1256 H1260 0.950 . S
C1256 C1265 1.390 . S
C1257 C1256 1.387 . S
C1257 C1259 1.387 . S
H1258 C1265 0.950 . S
C1259 C1257 1.387 . S
C1259 C1261 1.390 . S
C1259 H1263 0.950 . S
H1260 C1256 0.950 . S
C1261 C1259 1.390 . S
C1261 C1262 1.387 . S
C1261 H1264 0.950 . S
C1262 C1261 1.387 . S
C1262 C1265 1.387 . S
H1263 C1259 0.950 . S
H1264 C1261 0.950 . S
C1265 C1256 1.390 . S
C1265 H1258 0.950 . S
C1265 C1262 1.387 . S
C1266 C1267 1.387 . S
C1266 H1270 0.950 . S
C1266 C1275 1.390 . S
C1267 C1266 1.387 . S
C1267 C1269 1.387 . S
H1268 C1275 0.950 . S
C1269 C1267 1.387 . S
C1269 C1271 1.390 . S
C1269 H1273 0.950 . S
H1270 C1266 0.950 . S
C1271 C1269 1.390 . S
C1271 C1272 1.387 . S
C1271 H1274 0.950 . S
C1272 C1271 1.387 . S
C1272 C1275 1.387 . S
H1273 C1269 0.950 . S
H1274 C1271 0.950 . S
C1275 C1266 1.390 . S
C1275 H1268 0.950 . S
C1275 C1272 1.387 . S
C1276 C1277 1.387 . S
C1276 H1280 0.950 . S
C1276 C1285 1.390 . S
C1277 C1276 1.387 . S
C1277 C1279 1.387 1_554 S
H1278 C1285 0.950 . S
C1279 C1277 1.387 1_556 S
C1279 C1281 1.390 . S
C1279 H1283 0.950 . S
H1280 C1276 0.950 . S
C1281 C1279 1.390 . S
C1281 C1282 1.387 1_556 S
C1281 H1284 0.950 . S
C1282 C1281 1.387 1_554 S
C1282 C1285 1.387 . S
H1283 C1279 0.950 . S
H1284 C1281 0.950 . S
C1285 C1276 1.390 . S
C1285 H1278 0.950 . S
C1285 C1282 1.387 . S
C1286 C1287 1.387 1_556 S
C1286 H1290 0.950 . S
C1286 C1295 1.390 . S
C1287 C1286 1.387 1_554 S
C1287 C1289 1.387 . S
H1288 C1295 0.950 . S
C1289 C1287 1.387 . S
C1289 C1291 1.390 . S
C1289 H1293 0.950 . S
H1290 C1286 0.950 . S
C1291 C1289 1.390 . S
C1291 C1292 1.387 . S
C1291 H1294 0.950 . S
C1292 C1291 1.387 . S
C1292 C1295 1.387 1_554 S
H1293 C1289 0.950 . S
H1294 C1291 0.950 . S
C1295 C1286 1.390 . S
C1295 H1288 0.950 . S
C1295 C1292 1.387 1_556 S
C1296 C1297 1.387 . S
C1296 H1300 0.950 . S
C1296 C1305 1.390 . S
C1297 C1296 1.387 . S
C1297 C1299 1.387 . S
H1298 C1305 0.950 . S
C1299 C1297 1.387 . S
C1299 C1301 1.390 . S
C1299 H1303 0.950 . S
H1300 C1296 0.950 . S
C1301 C1299 1.390 . S
C1301 C1302 1.387 . S
C1301 H1304 0.950 . S
C1302 C1301 1.387 . S
C1302 C1305 1.387 . S
H1303 C1299 0.950 . S
H1304 C1301 0.950 . S
C1305 C1296 1.390 . S
C1305 H1298 0.950 . S
C1305 C1302 1.387 . S
C1306 C1307 1.387 . S
C1306 H1310 0.950 . S
C1306 C1315 1.390 . S
C1307 C1306 1.387 . S
C1307 C1309 1.387 . S
H1308 C1315 0.950 . S
C1309 C1307 1.387 . S
C1309 C1311 1.390 . S
C1309 H1313 0.950 . S
H1310 C1306 0.950 . S
C1311 C1309 1.390 . S
C1311 C1312 1.387 . S
C1311 H1314 0.950 . S
C1312 C1311 1.387 . S
C1312 C1315 1.387 . S
H1313 C1309 0.950 . S
H1314 C1311 0.950 . S
C1315 C1306 1.390 . S
C1315 H1308 0.950 . S
C1315 C1312 1.387 . S
C1316 C1317 1.387 . S
C1316 H1320 0.950 . S
C1316 C1325 1.390 . S
C1317 C1316 1.387 . S
C1317 C1319 1.387 . S
H1318 C1325 0.950 . S
C1319 C1317 1.387 . S
C1319 C1321 1.390 . S
C1319 H1323 0.950 . S
H1320 C1316 0.950 . S
C1321 C1319 1.390 . S
C1321 C1322 1.387 . S
C1321 H1324 0.950 . S
C1322 C1321 1.387 . S
C1322 C1325 1.387 . S
H1323 C1319 0.950 . S
H1324 C1321 0.950 . S
C1325 C1316 1.390 . S
C1325 H1318 0.950 . S
C1325 C1322 1.387 . S
C1326 C1327 1.387 . S
C1326 H1330 0.950 . S
C1326 C1335 1.390 . S
C1327 C1326 1.387 . S
C1327 C1329 1.387 . S
H1328 C1335 0.950 . S
C1329 C1327 1.387 . S
C1329 C1331 1.390 . S
C1329 H1333 0.950 . S
H1330 C1326 0.950 . S
C1331 C1329 1.390 . S
C1331 C1332 1.387 . S
C1331 H1334 0.950 . S
C1332 C1331 1.387 . S
C1332 C1335 1.387 . S
H1333 C1329 0.950 . S
H1334 C1331 0.950 . S
C1335 C1326 1.390 . S
C1335 H1328 0.950 . S
C1335 C1332 1.387 . S
C1336 C1337 1.387 . S
C1336 H1340 0.950 . S
C1336 C1345 1.390 . S
C1337 C1336 1.387 . S
C1337 C1339 1.387 . S
H1338 C1345 0.950 . S
C1339 C1337 1.387 . S
C1339 C1341 1.390 . S
C1339 H1343 0.950 . S
H1340 C1336 0.950 . S
C1341 C1339 1.390 . S
C1341 C1342 1.387 . S
C1341 H1344 0.950 . S
C1342 C1341 1.387 . S
C1342 C1345 1.387 . S
H1343 C1339 0.950 . S
H1344 C1341 0.950 . S
C1345 C1336 1.390 . S
C1345 H1338 0.950 . S
C1345 C1342 1.387 . S
C1346 C1347 1.387 . S
C1346 H1350 0.950 . S
C1346 C1355 1.390 . S
C1347 C1346 1.387 . S
C1347 C1349 1.387 . S
H1348 C1355 0.950 . S
C1349 C1347 1.387 . S
C1349 C1351 1.390 . S
C1349 H1353 0.950 . S
H1350 C1346 0.950 . S
C1351 C1349 1.390 . S
C1351 C1352 1.387 . S
C1351 H1354 0.950 . S
C1352 C1351 1.387 . S
C1352 C1355 1.387 . S
H1353 C1349 0.950 . S
H1354 C1351 0.950 . S
C1355 C1346 1.390 . S
C1355 H1348 0.950 . S
C1355 C1352 1.387 . S
C1356 C1357 1.387 . S
C1356 H1360 0.950 . S
C1356 C1365 1.390 . S
C1357 C1356 1.387 . S
C1357 C1359 1.387 . S
H1358 C1365 0.950 . S
C1359 C1357 1.387 . S
C1359 C1361 1.390 . S
C1359 H1363 0.950 . S
H1360 C1356 0.950 . S
C1361 C1359 1.390 . S
C1361 C1362 1.387 . S
C1361 H1364 0.950 . S
C1362 C1361 1.387 . S
C1362 C1365 1.387 . S
H1363 C1359 0.950 . S
H1364 C1361 0.950 . S
C1365 C1356 1.390 . S
C1365 H1358 0.950 . S
C1365 C1362 1.387 . S
C1366 C1367 1.387 . S
C1366 H1370 0.950 . S
C1366 C1375 1.390 . S
C1367 C1366 1.387 . S
C1367 C1369 1.387 . S
H1368 C1375 0.950 . S
C1369 C1367 1.387 . S
C1369 C1371 1.390 . S
C1369 H1373 0.950 . S
H1370 C1366 0.950 . S
C1371 C1369 1.390 . S
C1371 C1372 1.387 . S
C1371 H1374 0.950 . S
C1372 C1371 1.387 . S
C1372 C1375 1.387 . S
H1373 C1369 0.950 . S
H1374 C1371 0.950 . S
C1375 C1366 1.390 . S
C1375 H1368 0.950 . S
C1375 C1372 1.387 . S
C737 C7 1.635 . S
C742 C76 1.635 . S
C747 C53 1.636 . S
C752 C30 1.636 . S
C757 C99 1.636 . S
C762 C168 1.636 . S
C767 C145 1.636 . S
C772 C122 1.636 . S
C777 C191 1.635 . S
C782 C260 1.635 . S
C787 C237 1.635 . S
C792 C214 1.635 . S
C797 C283 1.636 . S
C802 C352 1.636 . S
C807 C306 1.635 . S
C812 C329 1.635 . S
C817 C444 1.636 . S
C822 C375 1.636 . S
C827 C398 1.636 . S
C832 C421 1.636 . S
C837 C467 1.635 . S
C842 C536 1.635 . S
C847 C513 1.635 . S
C852 C490 1.635 . S
C857 C559 1.635 . S
C862 C628 1.635 . S
C867 C605 1.636 . S
C872 C582 1.636 . S
C877 C651 1.635 . S
C882 C720 1.635 . S
C887 C674 1.635 . S
C892 C697 1.635 . S
C897 N288 1.492 . S
C902 N12 1.492 . S
C907 N35 1.493 . S
C912 N495 1.493 . S
C917 N58 1.492 . S
C922 N150 1.492 . S
C927 N725 1.493 . S
C932 N81 1.493 . S
C937 N104 1.492 . S
C942 N196 1.492 . S
C947 N403 1.492 . S
C952 N127 1.492 . S
C957 N633 1.492 . S
C962 N173 1.492 . S
C967 N679 1.492 . S
C972 N219 1.492 . S
C977 N334 1.492 . S
C982 N242 1.492 . S
C987 N541 1.492 . S
C992 N265 1.492 . S
C997 N311 1.492 . S
C1002 N587 1.492 . S
C1007 N449 1.493 . S
C1012 N357 1.493 . S
C1017 N656 1.492 . S
C1022 N380 1.492 . S
C1027 N518 1.493 . S
C1032 N426 1.493 . S
C1037 N564 1.492 . S
C1042 N472 1.492 . S
C1047 N610 1.492 . S
C1052 N702 1.492 . S
C1057 C246 1.663 . S
C1062 C16 1.663 . S
C1067 C39 1.660 . S
C1072 C269 1.660 . S
C1077 C200 1.663 . S
C1082 C62 1.663 . S
C1087 C223 1.663 . S
C1092 C85 1.663 . S
C1097 C108 1.660 . S
C1102 C338 1.660 . S
C1107 C131 1.663 . S
C1112 C361 1.663 . S
C1117 C292 1.663 . S
C1122 C154 1.663 . S
C1127 C177 1.660 . S
C1132 C315 1.660 . S
C1137 C614 1.660 . S
C1142 C384 1.660 . S
C1147 C637 1.663 . S
C1152 C407 1.663 . S
C1157 C430 1.663 . S
C1162 C568 1.663 . S
C1167 C453 1.660 . S
C1172 C591 1.660 . S
C1177 C476 1.663 . S
C1182 C706 1.663 . S
C1187 C499 1.660 . S
C1192 C729 1.660 . S
C1197 C660 1.660 . S
C1202 C522 1.660 . S
C1207 C683 1.660 . S
C1212 C545 1.660 . S
C1217 N2 1.473 . S
C1222 N577 1.473 . S
C1227 N554 1.473 . S
C1232 N25 1.473 . S
C1237 N48 1.468 1_556 S
C1242 N623 1.468 1_556 S
C1247 N71 1.471 1_556 S
C1252 N600 1.471 1_556 S
C1257 N94 1.473 . S
C1262 N669 1.473 . S
C1267 N117 1.473 . S
C1272 N646 1.473 . S
C1277 N715 1.468 1_554 S
C1282 N140 1.468 1_554 S
C1287 N692 1.471 1_554 S
C1292 N163 1.471 1_554 S
C1297 N393 1.470 . S
C1302 N186 1.470 . S
C1307 N370 1.470 . S
C1312 N209 1.470 . S
C1317 N232 1.470 . S
C1322 N439 1.470 . S
C1327 N255 1.470 . S
C1332 N416 1.470 . S
C1337 N485 1.470 . S
C1342 N278 1.470 . S
C1347 N301 1.470 . S
C1352 N462 1.470 . S
C1357 N324 1.473 . S
C1362 N531 1.473 . S
C1367 N347 1.470 . S
C1372 N508 1.470 . S
