# Generated by pormake.
# Topology umb, (4)-cn, num edge types: 1
# Building blocks:
#     Node 0, Type 0, BuildingBlock: ESEHIV_clean_sbu_0, # of connection points: 4
#     Node 1, Type 0, BuildingBlock: ESEHIV_clean_sbu_0, # of connection points: 4
#     Node 2, Type 0, BuildingBlock: ESEHIV_clean_sbu_0, # of connection points: 4
#     Node 3, Type 0, BuildingBlock: ESEHIV_clean_sbu_0, # of connection points: 4
#     Node 4, Type 0, BuildingBlock: ESEHIV_clean_sbu_0, # of connection points: 4
#     Node 5, Type 0, BuildingBlock: ESEHIV_clean_sbu_0, # of connection points: 4
#     Node 6, Type 0, BuildingBlock: ESEHIV_clean_sbu_0, # of connection points: 4
#     Node 7, Type 0, BuildingBlock: ESEHIV_clean_sbu_0, # of connection points: 4
#     Node 8, Type 0, BuildingBlock: ESEHIV_clean_sbu_0, # of connection points: 4
#     Node 9, Type 0, BuildingBlock: ESEHIV_clean_sbu_0, # of connection points: 4
#     Node 10, Type 0, BuildingBlock: ESEHIV_clean_sbu_0, # of connection points: 4
#     Node 11, Type 0, BuildingBlock: ESEHIV_clean_sbu_0, # of connection points: 4
#     Edge 12, Type (0, 0), BuildingBlock: KIFKEQ_clean_linker_1, # of connection points: 2
#     Edge 13, Type (0, 0), BuildingBlock: KIFKEQ_clean_linker_1, # of connection points: 2
#     Edge 14, Type (0, 0), BuildingBlock: KIFKEQ_clean_linker_1, # of connection points: 2
#     Edge 15, Type (0, 0), BuildingBlock: KIFKEQ_clean_linker_1, # of connection points: 2
#     Edge 16, Type (0, 0), BuildingBlock: KIFKEQ_clean_linker_1, # of connection points: 2
#     Edge 17, Type (0, 0), BuildingBlock: KIFKEQ_clean_linker_1, # of connection points: 2
#     Edge 18, Type (0, 0), BuildingBlock: KIFKEQ_clean_linker_1, # of connection points: 2
#     Edge 19, Type (0, 0), BuildingBlock: KIFKEQ_clean_linker_1, # of connection points: 2
#     Edge 20, Type (0, 0), BuildingBlock: KIFKEQ_clean_linker_1, # of connection points: 2
#     Edge 21, Type (0, 0), BuildingBlock: KIFKEQ_clean_linker_1, # of connection points: 2
#     Edge 22, Type (0, 0), BuildingBlock: KIFKEQ_clean_linker_1, # of connection points: 2
#     Edge 23, Type (0, 0), BuildingBlock: KIFKEQ_clean_linker_1, # of connection points: 2
#     Edge 24, Type (0, 0), BuildingBlock: KIFKEQ_clean_linker_1, # of connection points: 2
#     Edge 25, Type (0, 0), BuildingBlock: KIFKEQ_clean_linker_1, # of connection points: 2
#     Edge 26, Type (0, 0), BuildingBlock: KIFKEQ_clean_linker_1, # of connection points: 2
#     Edge 27, Type (0, 0), BuildingBlock: KIFKEQ_clean_linker_1, # of connection points: 2
#     Edge 28, Type (0, 0), BuildingBlock: KIFKEQ_clean_linker_1, # of connection points: 2
#     Edge 29, Type (0, 0), BuildingBlock: KIFKEQ_clean_linker_1, # of connection points: 2
#     Edge 30, Type (0, 0), BuildingBlock: KIFKEQ_clean_linker_1, # of connection points: 2
#     Edge 31, Type (0, 0), BuildingBlock: KIFKEQ_clean_linker_1, # of connection points: 2
#     Edge 32, Type (0, 0), BuildingBlock: KIFKEQ_clean_linker_1, # of connection points: 2
#     Edge 33, Type (0, 0), BuildingBlock: KIFKEQ_clean_linker_1, # of connection points: 2
#     Edge 34, Type (0, 0), BuildingBlock: KIFKEQ_clean_linker_1, # of connection points: 2
#     Edge 35, Type (0, 0), BuildingBlock: KIFKEQ_clean_linker_1, # of connection points: 2
# Relax obj value: 0.173
# Max RMSD: 0.161
# Mean RMSD: 0.145
data_MOF--net-umb--node1-ESEHIV_clean_sbu_0--edge1-KIFKEQ_clean_linker_1
_symmetry_space_group_name_H-M    P1
_symmetry_Int_Tables_number       1
_symmetry_cell_setting            triclinic
loop_
_symmetry_equiv_pos_as_xyz
'x, y, z'
_cell_length_a     51.353807
_cell_length_b     55.073633
_cell_length_c     40.860723
_cell_angle_alpha  89.988509
_cell_angle_beta   89.855505
_cell_angle_gamma 117.64503
loop_
_atom_site_label
_atom_site_type_symbol
_atom_site_fract_x
_atom_site_fract_y
_atom_site_fract_z
_atom_type_partial_charge
Cu0 Cu 0.57333 0.18664 0.35837 0.0
N1 N 0.60902 0.18673 0.34918 0.0
N2 N 0.6578 0.20481 0.34539 0.0
C3 C 0.63435 0.20957 0.34367 0.0
C4 C 0.6469 0.1779 0.35208 0.0
C5 C 0.61677 0.16675 0.35427 0.0
O6 O 0.57069 0.21386 0.32921 0.0
C7 C 0.57826 0.17946 0.42483 0.0
O8 O 0.57763 0.15702 0.41307 0.0
H9 H 0.6358 0.22978 0.34183 0.0
H10 H 0.602 0.14607 0.36195 0.0
N11 N 0.54228 0.15134 0.35207 0.0
N12 N 0.51921 0.10599 0.34388 0.0
C13 C 0.54367 0.12982 0.33804 0.0
C14 C 0.51579 0.14083 0.36673 0.0
C15 C 0.50145 0.11291 0.36159 0.0
C16 C 0.54687 0.21223 0.31769 0.0
O17 O 0.52172 0.19182 0.32693 0.0
H18 H 0.56273 0.1314 0.32501 0.0
H19 H 0.50827 0.1524 0.38196 0.0
O20 O 0.57512 0.19586 0.40504 0.0
H21 H 0.65991 0.16754 0.35734 0.0
H22 H 0.48055 0.09861 0.37216 0.0
Cu23 Cu 0.36632 0.55386 0.67875 0.0
N24 N 0.39924 0.58777 0.67524 0.0
N25 N 0.43192 0.63032 0.68871 0.0
C26 C 0.40795 0.60736 0.69818 0.0
C27 C 0.43875 0.62476 0.65863 0.0
C28 C 0.41846 0.59839 0.65036 0.0
O29 O 0.3393 0.55261 0.64472 0.0
C30 C 0.35924 0.53945 0.74621 0.0
O31 O 0.36819 0.52163 0.73734 0.0
H32 H 0.39651 0.6049 0.72115 0.0
H33 H 0.41737 0.58792 0.62762 0.0
N34 N 0.37873 0.52771 0.67025 0.0
N35 N 0.40988 0.51039 0.66315 0.0
C36 C 0.40683 0.53253 0.67179 0.0
C37 C 0.36327 0.50153 0.6604 0.0
C38 C 0.3825 0.4907 0.65613 0.0
C39 C 0.31351 0.53336 0.63969 0.0
O40 O 0.30189 0.51288 0.66052 0.0
H41 H 0.42466 0.55191 0.67946 0.0
H42 H 0.33981 0.49115 0.65631 0.0
O43 O 0.35346 0.55263 0.72417 0.0
H44 H 0.45623 0.6391 0.6431 0.0
H45 H 0.37686 0.47017 0.6479 0.0
Cu46 Cu 0.83815 0.40547 0.99705 0.0
N47 N 0.82945 0.39094 0.03922 0.0
N48 N 0.82217 0.39125 0.09326 0.0
C49 C 0.82798 0.40548 0.06494 0.0
C50 C 0.81968 0.36652 0.08478 0.0
C51 C 0.82422 0.3664 0.05137 0.0
O52 O 0.8806 0.42858 0.99573 0.0
C53 C 0.80011 0.42867 0.97447 0.0
O54 O 0.79646 0.4162 0.94619 0.0
H55 H 0.83116 0.42625 0.06265 0.0
H56 H 0.8241 0.34982 0.03709 0.0
N57 N 0.82659 0.37772 0.96519 0.0
N58 N 0.80192 0.3447 0.92841 0.0
C59 C 0.80039 0.36239 0.9505 0.0
C60 C 0.84505 0.36929 0.95206 0.0
C61 C 0.83002 0.34906 0.92951 0.0
C62 C 0.89509 0.44307 0.97144 0.0
O63 O 0.88103 0.4431 0.94463 0.0
H64 H 0.7806 0.36392 0.95607 0.0
H65 H 0.86804 0.37753 0.95833 0.0
O66 O 0.81777 0.42751 0.99536 0.0
H67 H 0.81566 0.34992 0.10154 0.0
H68 H 0.83931 0.3388 0.91451 0.0
Cu69 Cu 0.43904 0.83153 0.33741 0.0
N70 N 0.40253 0.8296 0.3287 0.0
N71 N 0.35425 0.81147 0.32045 0.0
C72 C 0.37829 0.80763 0.31814 0.0
C73 C 0.36372 0.83688 0.33264 0.0
C74 C 0.39357 0.84811 0.33749 0.0
O75 O 0.44507 0.80572 0.30891 0.0
C76 C 0.41896 0.80939 0.40144 0.0
O77 O 0.39465 0.79288 0.38618 0.0
H78 H 0.3777 0.78824 0.31214 0.0
H79 H 0.40724 0.86753 0.34904 0.0
N80 N 0.46712 0.86699 0.32616 0.0
N81 N 0.48845 0.91271 0.32129 0.0
C82 C 0.47002 0.89061 0.33907 0.0
C83 C 0.48466 0.87428 0.29964 0.0
C84 C 0.4979 0.90241 0.29661 0.0
C85 C 0.43234 0.77963 0.31113 0.0
O86 O 0.41433 0.76775 0.33569 0.0
H87 H 0.45794 0.89138 0.36041 0.0
H88 H 0.48634 0.86003 0.28262 0.0
O89 O 0.44104 0.82623 0.38472 0.0
H90 H 0.34972 0.8458 0.33988 0.0
H91 H 0.51192 0.9141 0.27657 0.0
Cu92 Cu 0.63752 0.45178 0.68249 0.0
N93 N 0.60297 0.41928 0.67865 0.0
N94 N 0.56777 0.37756 0.6917 0.0
C95 C 0.59187 0.4 0.70198 0.0
C96 C 0.5633 0.38329 0.66068 0.0
C97 C 0.58511 0.40914 0.6527 0.0
O98 O 0.66389 0.45103 0.64881 0.0
C99 C 0.64593 0.46533 0.75024 0.0
O100 O 0.63894 0.48468 0.74236 0.0
H101 H 0.60191 0.40221 0.72574 0.0
H102 H 0.58836 0.4194 0.62934 0.0
N103 N 0.62783 0.47982 0.67456 0.0
N104 N 0.59876 0.49955 0.66883 0.0
C105 C 0.60084 0.47735 0.67938 0.0
C106 C 0.64356 0.50449 0.66043 0.0
C107 C 0.62561 0.51676 0.65683 0.0
C108 C 0.68994 0.46963 0.64333 0.0
O109 O 0.70184 0.49083 0.66303 0.0
H110 H 0.58273 0.45901 0.68918 0.0
H111 H 0.66613 0.51266 0.65243 0.0
O112 O 0.65 0.45154 0.72758 0.0
H113 H 0.54657 0.36928 0.64428 0.0
H114 H 0.63171 0.53656 0.64584 0.0
Cu115 Cu 0.17179 0.60274 0.9888 0.0
N116 N 0.1747 0.615 1.03198 0.0
N117 N 0.17857 0.61344 0.0865 0.0
C118 C 0.17283 0.59935 0.05812 0.0
C119 C 0.18433 0.63913 0.07776 0.0
C120 C 0.18195 0.64003 0.04408 0.0
O121 O 0.13034 0.57867 0.97968 0.0
C122 C 0.20847 0.57665 0.96929 0.0
O123 O 0.209 0.58382 0.93854 0.0
H124 H 0.16852 0.57822 0.05611 0.0
H125 H 0.18594 0.65779 1.02943 0.0
N126 N 0.1861 0.63191 0.95842 0.0
N127 N 0.21043 0.66157 0.91802 0.0
C128 C 0.21102 0.64346 0.94016 0.0
C129 C 0.16968 0.64349 0.94771 0.0
C130 C 0.18447 0.6616 0.92291 0.0
C131 C 0.11667 0.5544 0.99102 0.0
O132 O 0.1312 0.54463 1.00841 0.0
H133 H 0.22861 0.63792 0.94202 0.0
H134 H 0.14788 0.63832 0.95666 0.0
O135 O 0.19406 0.58252 0.99034 0.0
H136 H 0.18997 0.6561 0.09442 0.0
H137 H 0.17651 0.67359 0.90912 0.0
Cu138 Cu 0.82569 0.45323 0.39093 0.0
N139 N 0.83392 0.4239 0.39606 0.0
N140 N 0.82472 0.38019 0.39451 0.0
C141 C 0.81367 0.39769 0.40054 0.0
C142 C 0.85303 0.39593 0.38598 0.0
C143 C 0.85869 0.42293 0.38703 0.0
O144 O 0.79549 0.44935 0.42242 0.0
C145 C 0.83534 0.45808 0.32409 0.0
O146 O 0.86252 0.46843 0.33465 0.0
H147 H 0.79057 0.39145 0.40458 0.0
H148 H 0.87867 0.44036 0.37891 0.0
N149 N 0.85966 0.48564 0.39978 0.0
N150 N 0.90629 0.51243 0.41398 0.0
C151 C 0.88298 0.48733 0.41636 0.0
C152 C 0.86811 0.51076 0.38714 0.0
C153 C 0.89696 0.52735 0.39579 0.0
C154 C 0.79161 0.46971 0.43082 0.0
O155 O 0.80589 0.49303 0.41507 0.0
H156 H 0.88358 0.46983 0.42762 0.0
H157 H 0.85487 0.51608 0.37099 0.0
O158 O 0.81464 0.45146 0.34498 0.0
H159 H 0.86784 0.38835 0.37728 0.0
H160 H 0.91045 0.54823 0.3877 0.0
Cu161 Cu 0.3982 0.82605 0.71393 0.0
N162 N 0.43337 0.82685 0.72732 0.0
N163 N 0.4638 0.81007 0.74134 0.0
C164 C 0.4356 0.80522 0.73938 0.0
C165 C 0.48007 0.83577 0.73011 0.0
C166 C 0.46125 0.84621 0.72177 0.0
O167 O 0.36722 0.8015 0.74401 0.0
C168 C 0.41253 0.83064 0.64771 0.0
O169 O 0.43434 0.85314 0.65912 0.0
H170 H 0.41683 0.7854 0.74358 0.0
H171 H 0.4675 0.86581 0.71025 0.0
N172 N 0.40176 0.86128 0.71705 0.0
N173 N 0.42192 0.90659 0.72453 0.0
C174 C 0.42393 0.88344 0.73074 0.0
C175 C 0.3848 0.87061 0.70218 0.0
C176 C 0.39714 0.89856 0.70681 0.0
C177 C 0.35145 0.77577 0.74003 0.0
O178 O 0.35424 0.76435 0.71292 0.0
H179 H 0.4416 0.88275 0.74432 0.0
H180 H 0.36562 0.85813 0.68764 0.0
O181 O 0.39243 0.81504 0.66755 0.0
H182 H 0.50359 0.84548 0.72603 0.0
H183 H 0.38939 0.91208 0.69635 0.0
Cu184 Cu 0.5688 0.3984 0.0708 0.0
N185 N 0.56686 0.38481 1.02842 0.0
N186 N 0.57779 0.38645 0.9751 0.0
C187 C 0.57329 0.39969 1.0006 0.0
C188 C 0.57355 0.3621 0.98728 0.0
C189 C 0.56685 0.36117 1.02015 0.0
O190 O 0.54925 0.42153 0.07069 0.0
C191 C 0.62562 0.44001 0.06147 0.0
O192 O 0.61172 0.45104 0.04522 0.0
H193 H 0.57692 0.42065 0.99964 0.0
H194 H 0.56426 0.34523 0.0373 0.0
N195 N 0.55023 0.36904 0.10029 0.0
N196 N 0.54058 0.33622 0.13797 0.0
C197 C 0.56171 0.35873 0.12288 0.0
C198 C 0.52106 0.35266 0.10135 0.0
C199 C 0.51505 0.33252 0.1244 0.0
C200 C 0.55453 0.44101 0.09068 0.0
O201 O 0.5743 0.44632 0.11365 0.0
H202 H 0.58502 0.36713 0.12756 0.0
H203 H 0.50526 0.35509 0.08605 0.0
O204 O 0.61068 0.41876 0.07876 0.0
H205 H 0.57636 0.34656 0.97378 0.0
H206 H 0.49342 0.31644 0.13079 0.0
Cu207 Cu 0.18468 0.55266 0.38399 0.0
N208 N 0.19047 0.58817 0.39057 0.0
N209 N 0.2039 0.63207 0.37994 0.0
C210 C 0.19981 0.60787 0.36763 0.0
C211 C 0.19677 0.6274 0.41195 0.0
C212 C 0.18866 0.60025 0.4185 0.0
O213 O 0.21258 0.54838 0.41279 0.0
C214 C 0.16921 0.549 0.31841 0.0
O215 O 0.14497 0.54651 0.33222 0.0
H216 H 0.20448 0.60474 0.3426 0.0
H217 H 0.18276 0.59022 0.44211 0.0
N218 N 0.14612 0.52866 0.39615 0.0
N219 N 0.09957 0.51559 0.41086 0.0
C220 C 0.12729 0.53624 0.41007 0.0
C221 C 0.1299 0.50214 0.38806 0.0
C222 C 0.10116 0.49395 0.39727 0.0
C223 C 0.20718 0.5265 0.42838 0.0
O224 O 0.18321 0.50385 0.42168 0.0
H225 H 0.13356 0.55691 0.41792 0.0
H226 H 0.13805 0.49013 0.37462 0.0
O227 O 0.18998 0.55037 0.33671 0.0
H228 H 0.19893 0.64284 0.42966 0.0
H229 H 0.08263 0.47422 0.3922 0.0
Cu230 Cu 0.60163 0.18205 0.73431 0.0
N231 N 0.56562 0.18188 0.74 0.0
N232 N 0.5333 0.1979 0.74661 0.0
C233 C 0.56129 0.20268 0.75109 0.0
C234 C 0.51945 0.17312 0.73222 0.0
C235 C 0.53942 0.16318 0.72839 0.0
O236 O 0.63113 0.21125 0.76118 0.0
C237 C 0.60799 0.20445 0.67036 0.0
O238 O 0.60405 0.22361 0.68533 0.0
H239 H 0.57893 0.22203 0.75925 0.0
H240 H 0.53563 0.14459 0.71576 0.0
N241 N 0.59664 0.14799 0.7483 0.0
N242 N 0.57435 0.10239 0.7541 0.0
C243 C 0.57781 0.12379 0.73512 0.0
C244 C 0.60592 0.14186 0.77636 0.0
C245 C 0.5923 0.11373 0.77995 0.0
C246 C 0.65783 0.21597 0.76277 0.0
O247 O 0.66658 0.20158 0.74432 0.0
H248 H 0.566 0.12212 0.71268 0.0
H249 H 0.62013 0.1568 0.79391 0.0
O250 O 0.60973 0.18585 0.68737 0.0
H251 H 0.49715 0.16384 0.72303 0.0
H252 H 0.59409 0.10269 0.80102 0.0
Cu253 Cu 0.43548 0.60095 0.06925 0.0
N254 N 0.44115 0.61214 1.02512 0.0
N255 N 0.43219 0.6108 0.97122 0.0
C256 C 0.42098 0.60112 1.00116 0.0
C257 C 0.46054 0.62914 0.97664 0.0
C258 C 0.466 0.62988 1.00987 0.0
O259 O 0.4523 0.57587 0.07764 0.0
C260 C 0.37717 0.55982 0.06244 0.0
O261 O 0.38971 0.54603 0.04944 0.0
H262 H 0.39863 0.58575 1.00544 0.0
H263 H 0.4869 0.64163 1.02186 0.0
N264 N 0.4531 0.63152 0.09713 0.0
N265 N 0.46063 0.66407 0.13457 0.0
C266 C 0.44041 0.64223 0.1177 0.0
C267 C 0.48218 0.64697 0.10118 0.0
C268 C 0.48689 0.66693 0.12409 0.0
C269 C 0.4581 0.56337 0.05469 0.0
O270 O 0.4521 0.56684 1.02437 0.0
H271 H 0.41685 0.63416 0.1201 0.0
H272 H 0.49883 0.64368 0.08859 0.0
O273 O 0.39327 0.58286 0.07576 0.0
H274 H 0.47661 0.64022 0.95787 0.0
H275 H 0.50818 0.68198 0.13279 0.0
H276 H 0.56524 0.2131 0.46447 0.0
H277 H 0.60591 0.15992 0.46516 0.0
H278 H 0.57356 0.22015 0.52355 0.0
H279 H 0.61561 0.16792 0.52313 0.0
H280 H 0.59946 0.16065 0.63214 0.0
H281 H 0.59256 0.15596 0.57332 0.0
H282 H 0.607 0.23967 0.56692 0.0
H283 H 0.61247 0.2438 0.62628 0.0
C284 C 0.57624 0.2032 0.47716 0.0
C285 C 0.58452 0.18566 0.4602 0.0
C286 C 0.58121 0.20732 0.51103 0.0
C287 C 0.59498 0.19434 0.52856 0.0
C288 C 0.60413 0.17764 0.51103 0.0
C289 C 0.59873 0.17317 0.47755 0.0
C290 C 0.60144 0.17816 0.61819 0.0
C291 C 0.60665 0.20263 0.63401 0.0
C292 C 0.59759 0.17554 0.58424 0.0
C293 C 0.5993 0.19747 0.56492 0.0
C294 C 0.60503 0.22215 0.58079 0.0
C295 C 0.60848 0.22463 0.61489 0.0
H296 H 0.36277 0.58716 0.77159 0.0
H297 H 0.36443 0.51225 0.79951 0.0
H298 H 0.37735 0.60489 0.82709 0.0
H299 H 0.37899 0.52993 0.85469 0.0
H300 H 0.38612 0.56096 0.95791 0.0
H301 H 0.36349 0.54367 0.90507 0.0
H302 H 0.42314 0.62052 0.85993 0.0
H303 H 0.44543 0.63823 0.91321 0.0
C304 C 0.36563 0.57423 0.78968 0.0
C305 C 0.36251 0.54828 0.78101 0.0
C306 C 0.37429 0.58453 0.82142 0.0
C307 C 0.3796 0.56895 0.84531 0.0
C308 C 0.37491 0.54244 0.83704 0.0
C309 C 0.36659 0.5323 0.80531 0.0
C310 C 0.39418 0.57446 0.93695 0.0
C311 C 0.41777 0.60108 0.94 0.0
C312 C 0.38131 0.56438 0.90649 0.0
C313 C 0.39154 0.58062 0.87817 0.0
C314 C 0.41453 0.60751 0.88128 0.0
C315 C 0.42755 0.61758 0.91178 0.0
H316 H 0.87399 0.47887 0.27386 0.0
H317 H 0.78407 0.42026 0.29512 0.0
H318 H 0.86804 0.46277 0.2178 0.0
H319 H 0.77786 0.40422 0.23823 0.0
H320 H 0.79605 0.36112 0.14787 0.0
H321 H 0.79604 0.37844 0.20295 0.0
H322 H 0.8438 0.46144 0.16705 0.0
H323 H 0.84501 0.4444 0.11281 0.0
C324 C 0.85272 0.46283 0.26637 0.0
C325 C 0.82951 0.45086 0.28898 0.0
C326 C 0.84925 0.45365 0.23409 0.0
C327 C 0.82247 0.43214 0.22343 0.0
C328 C 0.79886 0.42065 0.24575 0.0
C329 C 0.8023 0.43004 0.2782 0.0
C330 C 0.80664 0.38305 0.15172 0.0
C331 C 0.82068 0.40125 0.12565 0.0
C332 C 0.80628 0.39299 0.18326 0.0
C333 C 0.82003 0.42135 0.18948 0.0
C334 C 0.83331 0.43947 0.16326 0.0
C335 C 0.83372 0.4296 0.1319 0.0
H336 H 0.38061 0.77096 0.44404 0.0
H337 H 0.45735 0.85017 0.4414 0.0
H338 H 0.37889 0.77364 0.5035 0.0
H339 H 0.45491 0.85364 0.50051 0.0
H340 H 0.46029 0.84628 0.60872 0.0
H341 H 0.4624 0.83893 0.55054 0.0
H342 H 0.36749 0.79397 0.54774 0.0
H343 H 0.36571 0.80021 0.60694 0.0
C344 C 0.39717 0.78897 0.45618 0.0
C345 C 0.41925 0.81027 0.43789 0.0
C346 C 0.39601 0.79065 0.49038 0.0
C347 C 0.41669 0.81388 0.50729 0.0
C348 C 0.43889 0.83509 0.48881 0.0
C349 C 0.44029 0.83321 0.4547 0.0
C350 C 0.43982 0.83465 0.59575 0.0
C351 C 0.4128 0.82399 0.61247 0.0
C352 C 0.44101 0.83062 0.56213 0.0
C353 C 0.41513 0.81626 0.54383 0.0
C354 C 0.38799 0.80495 0.56079 0.0
C355 C 0.38687 0.80858 0.59478 0.0
H356 H 0.56696 0.42297 0.94125 0.0
H357 H 0.61468 0.37603 0.93675 0.0
H358 H 0.58674 0.44302 0.88798 0.0
H359 H 0.63525 0.39658 0.88387 0.0
H360 H 0.63918 0.41598 0.7734 0.0
H361 H 0.62384 0.39713 0.8281 0.0
H362 H 0.62942 0.47419 0.86019 0.0
H363 H 0.64349 0.49255 0.80509 0.0
C364 C 0.58187 0.4171 0.92894 0.0
C365 C 0.58907 0.39779 0.94317 0.0
C366 C 0.59344 0.42874 0.89844 0.0
C367 C 0.61285 0.42163 0.88146 0.0
C368 C 0.62008 0.40231 0.89583 0.0
C369 C 0.60824 0.39046 0.9262 0.0
C370 C 0.6376 0.42906 0.79225 0.0
C371 C 0.64235 0.45573 0.78474 0.0
C372 C 0.6288 0.41824 0.82376 0.0
C373 C 0.62487 0.43392 0.84868 0.0
C374 C 0.63136 0.46117 0.84153 0.0
C375 C 0.6398 0.47186 0.80996 0.0
H376 H 0.22038 0.57909 0.28379 0.0
H377 H 0.12637 0.53224 0.27262 0.0
H378 H 0.22459 0.59393 0.22644 0.0
H379 H 0.13046 0.54699 0.21591 0.0
H380 H 0.14835 0.56088 0.10765 0.0
H381 H 0.14894 0.54315 0.16205 0.0
H382 H 0.2101 0.62453 0.19417 0.0
H383 H 0.21009 0.64226 0.13927 0.0
C384 C 0.20074 0.57147 0.26891 0.0
C385 C 0.17306 0.5544 0.28268 0.0
C386 C 0.20308 0.58023 0.23621 0.0
C387 C 0.17784 0.57176 0.21657 0.0
C388 C 0.15039 0.55373 0.23012 0.0
C389 C 0.14804 0.5453 0.26272 0.0
C390 C 0.16223 0.57501 0.12611 0.0
C391 C 0.17911 0.60307 0.11894 0.0
C392 C 0.1624 0.56484 0.15745 0.0
C393 C 0.17954 0.58239 0.18257 0.0
C394 C 0.19687 0.61038 0.17533 0.0
C395 C 0.19655 0.62062 0.14395 0.0
H396 H 0.82691 0.35159 0.34201 0.0
H397 H 0.78285 0.34432 0.4342 0.0
H398 H 0.79091 0.30458 0.32798 0.0
H399 H 0.7472 0.29712 0.42061 0.0
H400 H 0.69602 0.2079 0.39228 0.0
H401 H 0.74298 0.24799 0.40462 0.0
H402 H 0.73336 0.28893 0.31891 0.0
H403 H 0.68613 0.24904 0.30707 0.0
C404 C 0.81012 0.33954 0.3597 0.0
C405 C 0.80748 0.35133 0.38918 0.0
C406 C 0.78954 0.31281 0.35163 0.0
C407 C 0.76647 0.29738 0.37328 0.0
C408 C 0.76504 0.30856 0.40371 0.0
C409 C 0.78523 0.33546 0.41144 0.0
C410 C 0.70448 0.22515 0.37559 0.0
C411 C 0.68767 0.22558 0.34874 0.0
C412 C 0.73115 0.24804 0.38272 0.0
C413 C 0.74163 0.27138 0.36267 0.0
C414 C 0.72583 0.27101 0.33451 0.0
C415 C 0.69888 0.24837 0.3278 0.0
H416 H 0.49603 0.79885 0.69794 0.0
H417 H 0.45016 0.77339 0.78995 0.0
H418 H 0.49672 0.75516 0.69311 0.0
H419 H 0.45233 0.73006 0.78658 0.0
H420 H 0.48762 0.67183 0.6833 0.0
H421 H 0.50617 0.71803 0.70585 0.0
H422 H 0.42207 0.69369 0.75281 0.0
H423 H 0.40416 0.64827 0.73109 0.0
C424 C 0.48748 0.78434 0.71795 0.0
C425 C 0.47264 0.78905 0.74406 0.0
C426 C 0.4879 0.75926 0.71531 0.0
C427 C 0.47381 0.7387 0.73903 0.0
C428 C 0.46252 0.74509 0.76734 0.0
C429 C 0.46148 0.7699 0.76952 0.0
C430 C 0.47338 0.6764 0.69885 0.0
C431 C 0.44433 0.65642 0.70509 0.0
C432 C 0.48399 0.7028 0.71185 0.0
C433 C 0.46565 0.70972 0.73112 0.0
C434 C 0.4372 0.68917 0.73877 0.0
C435 C 0.42675 0.66292 0.72603 0.0
H436 H 0.66273 0.42403 0.09163 0.0
H437 H 0.65711 0.47062 1.00927 0.0
H438 H 0.70877 0.42779 0.0699 0.0
H439 H 0.70302 0.47413 0.98751 0.0
H440 H 0.75359 0.42847 0.94107 0.0
H441 H 0.71494 0.43769 0.96368 0.0
H442 H 0.76127 0.46117 0.0556 0.0
H443 H 0.79988 0.45218 1.03322 0.0
C444 C 0.67164 0.4356 0.06932 0.0
C445 C 0.65618 0.44692 0.05218 0.0
C446 C 0.69804 0.43779 0.05687 0.0
C447 C 0.70934 0.45107 1.02684 0.0
C448 C 0.69466 0.46356 1.01053 0.0
C449 C 0.66849 0.46172 1.0232 0.0
C450 C 0.7559 0.43622 0.96583 0.0
C451 C 0.77968 0.43924 0.98539 0.0
C452 C 0.73378 0.44155 0.97877 0.0
C453 C 0.73495 0.44983 1.01155 0.0
C454 C 0.75959 0.45445 1.03042 0.0
C455 C 0.78178 0.44938 1.01746 0.0
H456 H 0.31446 0.80024 0.36841 0.0
H457 H 0.32815 0.77344 0.27386 0.0
H458 H 0.27044 0.75702 0.3763 0.0
H459 H 0.28279 0.7305 0.2804 0.0
H460 H 0.24596 0.64737 0.3336 0.0
H461 H 0.27512 0.69283 0.31191 0.0
H462 H 0.22308 0.72189 0.36716 0.0
H463 H 0.19445 0.6759 0.39004 0.0
C464 C 0.30714 0.78548 0.34865 0.0
C465 C 0.32467 0.78981 0.32072 0.0
C466 C 0.28179 0.76064 0.35305 0.0
C467 C 0.27331 0.73987 0.3293 0.0
C468 C 0.28917 0.74566 0.29967 0.0
C469 C 0.31493 0.77025 0.29568 0.0
C470 C 0.24024 0.66326 0.34054 0.0
C471 C 0.21815 0.65819 0.36378 0.0
C472 C 0.25689 0.68947 0.32787 0.0
C473 C 0.25164 0.71127 0.3378 0.0
C474 C 0.22814 0.70574 0.35943 0.0
C475 C 0.21172 0.67947 0.37254 0.0
H476 H 0.59079 0.35926 0.73952 0.0
H477 H 0.51274 0.33609 0.68112 0.0
H478 H 0.57106 0.31352 0.76058 0.0
H479 H 0.49244 0.28948 0.70288 0.0
H480 H 0.50614 0.21031 0.69818 0.0
H481 H 0.50472 0.25356 0.69223 0.0
H482 H 0.5376 0.27571 0.7909 0.0
H483 H 0.5405 0.2328 0.79576 0.0
C484 C 0.56892 0.34467 0.73188 0.0
C485 C 0.5536 0.35141 0.7081 0.0
C486 C 0.5574 0.31819 0.74426 0.0
C487 C 0.53013 0.2976 0.73336 0.0
C488 C 0.51373 0.30475 0.7114 0.0
C489 C 0.52539 0.3314 0.69884 0.0
C490 C 0.51199 0.22402 0.71896 0.0
C491 C 0.52392 0.21866 0.74721 0.0
C492 C 0.5111 0.24884 0.71566 0.0
C493 C 0.52181 0.2685 0.74079 0.0
C494 C 0.53004 0.26137 0.77069 0.0
C495 C 0.53154 0.23682 0.77366 0.0
H496 H 0.25346 0.57278 0.93687 0.0
H497 H 0.20752 0.55529 1.0296 0.0
H498 H 0.2904 0.56194 0.96109 0.0
H499 H 0.24424 0.54453 0.0535 0.0
H500 H 0.3453 0.52786 1.01143 0.0
H501 H 0.30045 0.52557 0.98814 0.0
H502 H 0.29672 0.57622 0.0668 0.0
H503 H 0.34157 0.57867 0.08999 0.0
C504 C 0.25084 0.56603 0.96211 0.0
C505 C 0.22782 0.56534 0.98139 0.0
C506 C 0.27195 0.55976 0.97598 0.0
C507 C 0.27037 0.55275 1.00933 0.0
C508 C 0.24628 0.5503 1.02791 0.0
C509 C 0.22522 0.55644 1.01411 0.0
C510 C 0.33447 0.53788 1.02427 0.0
C511 C 0.34698 0.55348 0.05259 0.0
C512 C 0.30896 0.53678 1.0107 0.0
C513 C 0.2952 0.55084 1.02551 0.0
C514 C 0.30669 0.56498 0.05495 0.0
C515 C 0.3324 0.56642 0.06824 0.0
H516 H 0.46774 0.06009 0.33454 0.0
H517 H 0.56148 0.0896 0.3408 0.0
H518 H 0.46056 0.01329 0.32846 0.0
H519 H 0.55442 0.04297 0.3354 0.0
H520 H 0.53374 0.9586 0.29594 0.0
H521 H 0.54083 0.00535 0.29908 0.0
H522 H 0.46314 0.97791 0.35958 0.0
H523 H 0.4551 0.93105 0.35494 0.0
C524 C 0.4868 0.05656 0.33462 0.0
C525 C 0.51515 0.0786 0.33803 0.0
C526 C 0.48272 0.02973 0.33132 0.0
C527 C 0.5069 0.02422 0.33163 0.0
C528 C 0.5353 0.04638 0.33454 0.0
C529 C 0.53937 0.07321 0.3376 0.0
C530 C 0.518 0.96242 0.30971 0.0
C531 C 0.49377 0.94078 0.32506 0.0
C532 C 0.52226 0.98938 0.3118 0.0
C533 C 0.5025 0.99551 0.32948 0.0
C534 C 0.47855 0.97397 0.34527 0.0
C535 C 0.4742 0.947 0.34303 0.0
H536 H 0.41704 0.46511 0.67202 0.0
H537 H 0.46419 0.55181 0.65106 0.0
H538 H 0.46344 0.46286 0.67228 0.0
H539 H 0.5105 0.54978 0.65245 0.0
H540 H 0.58476 0.5288 0.62529 0.0
H541 H 0.53851 0.53116 0.62224 0.0
H542 H 0.50682 0.4794 0.70782 0.0
H543 H 0.55294 0.47711 0.71088 0.0
C544 C 0.43726 0.48362 0.6673 0.0
C545 C 0.43697 0.50865 0.6618 0.0
C546 C 0.46384 0.48241 0.66779 0.0
C547 C 0.49062 0.50621 0.66264 0.0
C548 C 0.49024 0.53109 0.65633 0.0
C549 C 0.46371 0.53229 0.65593 0.0
C550 C 0.56807 0.51824 0.64367 0.0
C551 C 0.57244 0.50263 0.6682 0.0
C552 C 0.54155 0.5195 0.64187 0.0
C553 C 0.51892 0.50522 0.6646 0.0
C554 C 0.52357 0.49011 0.68951 0.0
C555 C 0.55002 0.48886 0.69131 0.0
H556 H 0.93067 0.44729 1.02321 0.0
H557 H 0.93335 0.47619 0.92434 0.0
H558 H 0.98386 0.47407 1.0268 0.0
H559 H 0.9868 0.50264 0.92773 0.0
H560 H 0.07886 0.56907 0.9595 0.0
H561 H 0.02558 0.54238 0.95421 0.0
H562 H 0.02824 0.47515 1.00592 0.0
H563 H 0.08127 0.50197 1.01178 0.0
C564 C 0.94259 0.45928 1.00215 0.0
C565 C 0.92763 0.45952 0.97346 0.0
C566 C 0.97321 0.47453 1.00414 0.0
C567 C 0.98977 0.49048 0.97751 0.0
C568 C 0.97479 0.49084 0.94885 0.0
C569 C 0.94411 0.47553 0.94684 0.0
C570 C 0.06809 0.54855 0.96963 0.0
C571 C 0.08442 0.53775 0.98618 0.0
C572 C 0.03751 0.53317 0.96646 0.0
C573 C 0.02248 0.50661 0.97979 0.0
C574 C 0.03894 0.49569 0.99585 0.0
C575 C 0.06945 0.51104 0.99901 0.0
H576 H 0.04638 0.47432 0.42819 0.0
H577 H 0.09292 0.56182 0.41155 0.0
H578 H 1.0008 0.47729 0.43541 0.0
H579 H 0.04787 0.56486 0.42023 0.0
H580 H 0.95556 0.54725 0.3813 0.0
H581 H 0.00411 0.55057 0.38709 0.0
H582 H 0.97353 0.49475 0.46922 0.0
H583 H 0.92467 0.49146 0.46338 0.0
C584 C 0.04702 0.4942 0.42651 0.0
C585 C 0.07335 0.51771 0.41896 0.0
C586 C 0.02097 0.49597 0.43108 0.0
C587 C 0.02074 0.52133 0.42823 0.0
C588 C 0.04729 0.545 0.42222 0.0
C589 C 0.07326 0.54323 0.41758 0.0
C590 C 0.95933 0.53635 0.40124 0.0
C591 C 0.93613 0.51881 0.42163 0.0
C592 C 0.98722 0.5382 0.40454 0.0
C593 C 0.99255 0.52262 0.42836 0.0
C594 C 0.96991 0.50656 0.45022 0.0
C595 C 0.942 0.50474 0.44693 0.0
H596 H 0.52425 0.08214 0.71788 0.0
H597 H 0.57527 0.05774 0.7813 0.0
H598 H 0.48785 0.03464 0.71186 0.0
H599 H 0.53784 0.01009 0.77659 0.0
H600 H 0.48077 0.9256 0.73036 0.0
H601 H 0.51789 0.97288 0.73825 0.0
H602 H 0.44979 0.99807 0.74194 0.0
H603 H 0.41266 0.95067 0.73354 0.0
C604 C 0.5279 0.06672 0.73046 0.0
C605 C 0.55296 0.07397 0.74999 0.0
C606 C 0.50665 0.03938 0.72741 0.0
C607 C 0.50972 0.01848 0.74393 0.0
C608 C 0.53484 0.02563 0.7633 0.0
C609 C 0.55621 0.05302 0.76627 0.0
C610 C 0.47365 0.94114 0.73335 0.0
C611 C 0.44371 0.93435 0.73132 0.0
C612 C 0.49499 0.96831 0.73786 0.0
C613 C 0.48691 0.98937 0.7406 0.0
C614 C 0.45688 0.98247 0.73929 0.0
C615 C 0.43556 0.9553 0.73459 0.0
H616 H 0.47446 0.53599 1.01036 0.0
H617 H 0.47252 0.54936 0.1143 0.0
H618 H 0.49698 0.50652 1.02034 0.0
H619 H 0.49459 0.51907 0.12444 0.0
H620 H 0.56361 0.48686 0.12563 0.0
H621 H 0.53985 0.51594 0.11821 0.0
H622 H 0.48632 0.46251 0.04118 0.0
H623 H 0.51055 0.43393 0.04801 0.0
C624 C 0.47864 0.53251 0.03545 0.0
C625 C 0.47158 0.54509 0.06153 0.0
C626 C 0.49143 0.51537 0.04119 0.0
C627 C 0.49749 0.51015 0.07323 0.0
C628 C 0.49051 0.52278 0.09941 0.0
C629 C 0.47769 0.54005 0.09363 0.0
C630 C 0.54671 0.48127 0.10716 0.0
C631 C 0.53917 0.4581 0.08728 0.0
C632 C 0.53293 0.49789 0.10304 0.0
C633 C 0.51122 0.49176 0.07894 0.0
C634 C 0.5033 0.46824 0.05956 0.0
C635 C 0.51712 0.4517 0.06361 0.0
H636 H 0.59482 0.25418 0.28765 0.0
H637 H 0.49997 0.21541 0.29047 0.0
H638 H 0.59489 0.28463 0.24399 0.0
H639 H 0.50003 0.2461 0.24771 0.0
H640 H 0.50587 0.2819 0.14725 0.0
H641 H 0.50874 0.2532 0.19072 0.0
H642 H 0.58542 0.32247 0.22946 0.0
H643 H 0.58267 0.35126 0.18518 0.0
C644 C 0.57399 0.25229 0.27922 0.0
C645 C 0.54738 0.23214 0.29255 0.0
C646 C 0.57403 0.26987 0.25422 0.0
C647 C 0.54746 0.26776 0.24188 0.0
C648 C 0.52095 0.24803 0.25589 0.0
C649 C 0.52091 0.23048 0.28073 0.0
C650 C 0.52329 0.29112 0.16508 0.0
C651 C 0.54381 0.31904 0.16286 0.0
C652 C 0.52491 0.27462 0.19019 0.0
C653 C 0.54702 0.28548 0.21415 0.0
C654 C 0.56814 0.31327 0.21144 0.0
C655 C 0.56659 0.32983 0.18605 0.0
H656 H 0.24997 0.57186 0.45851 0.0
H657 H 0.20476 0.48347 0.46419 0.0
H658 H 0.27523 0.57377 0.50949 0.0
H659 H 0.23084 0.48527 0.51461 0.0
H660 H 0.25673 0.49814 0.62227 0.0
H661 H 0.23221 0.49666 0.5707 0.0
H662 H 0.31136 0.56552 0.5351 0.0
H663 H 0.33536 0.5676 0.58697 0.0
C664 C 0.24583 0.55278 0.4703 0.0
C665 C 0.22527 0.52751 0.45721 0.0
C666 C 0.26039 0.55386 0.49961 0.0
C667 C 0.25501 0.52968 0.51651 0.0
C668 C 0.23512 0.50436 0.50279 0.0
C669 C 0.22037 0.5033 0.47361 0.0
C670 C 0.26881 0.51307 0.60351 0.0
C671 C 0.29799 0.53303 0.60889 0.0
C672 C 0.25484 0.51208 0.57374 0.0
C673 C 0.26977 0.53088 0.54845 0.0
C674 C 0.29893 0.55093 0.55402 0.0
C675 C 0.31278 0.55207 0.58384 0.0
H676 H 0.75608 0.34988 0.90204 0.0
H677 H 0.79618 0.29633 0.90584 0.0
H678 H 0.72064 0.31958 0.86177 0.0
H679 H 0.7608 0.26594 0.86633 0.0
H680 H 0.71676 0.23308 0.76943 0.0
H681 H 0.75025 0.26435 0.80978 0.0
H682 H 0.67917 0.27548 0.85161 0.0
H683 H 0.64572 0.24465 0.81042 0.0
C684 C 0.75707 0.33145 0.89465 0.0
C685 C 0.77921 0.32573 0.90692 0.0
C686 C 0.73676 0.31404 0.87152 0.0
C687 C 0.73802 0.2904 0.86025 0.0
C688 C 0.75955 0.28429 0.87356 0.0
C689 C 0.77985 0.3017 0.89641 0.0
C690 C 0.70822 0.24226 0.7871 0.0
C691 C 0.67845 0.23619 0.78664 0.0
C692 C 0.72744 0.2601 0.81052 0.0
C693 C 0.71748 0.27232 0.83441 0.0
C694 C 0.68778 0.26669 0.83355 0.0
C695 C 0.66853 0.24888 0.80996 0.0
H696 H 0.49935 0.71542 0.15476 0.0
H697 H 0.41087 0.65108 0.17053 0.0
H698 H 0.49255 0.74252 0.19739 0.0
H699 H 0.40355 0.67898 0.21231 0.0
H700 H 0.41059 0.72372 0.30943 0.0
H701 H 0.41686 0.69595 0.26669 0.0
H702 H 0.46902 0.76923 0.2105 0.0
H703 H 0.46346 0.79698 0.25367 0.0
C704 C 0.47836 0.70693 0.16722 0.0
C705 C 0.45578 0.68073 0.15907 0.0
C706 C 0.47431 0.72279 0.19156 0.0
C707 C 0.44746 0.71313 0.20854 0.0
C708 C 0.4247 0.68706 0.20019 0.0
C709 C 0.42879 0.67111 0.17582 0.0
C710 C 0.42351 0.73394 0.28801 0.0
C711 C 0.43663 0.76268 0.2852 0.0
C712 C 0.42691 0.71794 0.26327 0.0
C713 C 0.44346 0.73017 0.23488 0.0
C714 C 0.45651 0.75896 0.23211 0.0
C715 C 0.45321 0.77495 0.2569 0.0
H716 H 0.67168 0.42826 0.59824 0.0
H717 H 0.74309 0.50835 0.61964 0.0
H718 H 0.69512 0.42763 0.54655 0.0
H719 H 0.76673 0.5075 0.56807 0.0
H720 H 0.78288 0.51072 0.45794 0.0
H721 H 0.75856 0.50994 0.50946 0.0
H722 H 0.7379 0.42518 0.52365 0.0
H723 H 0.76194 0.42581 0.47179 0.0
C724 C 0.69253 0.44565 0.5921 0.0
C725 C 0.70545 0.46841 0.61312 0.0
C726 C 0.70602 0.44522 0.56246 0.0
C727 C 0.73271 0.46758 0.55302 0.0
C728 C 0.74593 0.49012 0.57434 0.0
C729 C 0.73249 0.49051 0.60406 0.0
C730 C 0.77294 0.49182 0.47185 0.0
C731 C 0.77442 0.46833 0.46068 0.0
C732 C 0.75923 0.49146 0.50159 0.0
C733 C 0.74654 0.46759 0.52089 0.0
C734 C 0.7473 0.44387 0.50931 0.0
C735 C 0.76113 0.44425 0.47958 0.0
H736 H 0.19825 0.67023 0.85622 0.0
H737 H 0.2701 0.68654 0.92182 0.0
H738 H 0.233 0.69731 0.81355 0.0
H739 H 0.30521 0.71413 0.87897 0.0
H740 H 0.35086 0.78864 0.80492 0.0
H741 H 0.31792 0.75984 0.84825 0.0
H742 H 0.27296 0.69515 0.77826 0.0
H743 H 0.30606 0.72367 0.73505 0.0
C744 C 0.22154 0.67963 0.86149 0.0
C745 C 0.23142 0.67632 0.89245 0.0
C746 C 0.24147 0.69502 0.83696 0.0
C747 C 0.27189 0.70796 0.84283 0.0
C748 C 0.28189 0.70456 0.87375 0.0
C749 C 0.26187 0.68863 0.89818 0.0
C750 C 0.33393 0.76828 0.79874 0.0
C751 C 0.33105 0.75856 0.76639 0.0
C752 C 0.31523 0.7517 0.82366 0.0
C753 C 0.29282 0.72517 0.81675 0.0
C754 C 0.28988 0.71552 0.78439 0.0
C755 C 0.3089 0.73188 0.75962 0.0
loop_
_geom_bond_atom_site_label_1
_geom_bond_atom_site_label_2
_geom_bond_distance
_geom_bond_site_symmetry_2
_ccdc_geom_bond_type
Cu0 N1 1.999 . S
Cu0 O6 1.974 . S
Cu0 N11 1.985 . S
Cu0 O20 1.959 . S
N1 Cu0 1.999 . S
N1 C3 1.263 . S
N1 C5 1.389 . S
N2 C3 1.358 . S
N2 C4 1.400 . S
C3 N1 1.263 . S
C3 N2 1.358 . S
C3 H9 0.930 . S
C4 N2 1.400 . S
C4 C5 1.351 . S
C4 H21 0.930 . S
C5 N1 1.389 . S
C5 C4 1.351 . S
C5 H10 0.930 . S
O6 Cu0 1.974 . S
O6 C16 1.282 . S
C7 O8 1.261 . S
C7 O20 1.251 . S
O8 C7 1.261 . S
H9 C3 0.930 . S
H10 C5 0.930 . S
N11 Cu0 1.985 . S
N11 C13 1.335 . S
N11 C14 1.390 . S
N12 C13 1.345 . S
N12 C15 1.336 . S
C13 N11 1.335 . S
C13 N12 1.345 . S
C13 H18 0.930 . S
C14 N11 1.390 . S
C14 C15 1.346 . S
C14 H19 0.930 . S
C15 N12 1.336 . S
C15 C14 1.346 . S
C15 H22 0.929 . S
C16 O6 1.282 . S
C16 O17 1.216 . S
O17 C16 1.216 . S
H18 C13 0.930 . S
H19 C14 0.930 . S
O20 Cu0 1.959 . S
O20 C7 1.251 . S
H21 C4 0.930 . S
H22 C15 0.929 . S
Cu23 N24 1.999 . S
Cu23 O29 1.974 . S
Cu23 N34 1.985 . S
Cu23 O43 1.959 . S
N24 Cu23 1.999 . S
N24 C26 1.263 . S
N24 C28 1.389 . S
N25 C26 1.358 . S
N25 C27 1.400 . S
C26 N24 1.263 . S
C26 N25 1.358 . S
C26 H32 0.930 . S
C27 N25 1.400 . S
C27 C28 1.351 . S
C27 H44 0.930 . S
C28 N24 1.389 . S
C28 C27 1.351 . S
C28 H33 0.930 . S
O29 Cu23 1.974 . S
O29 C39 1.282 . S
C30 O31 1.261 . S
C30 O43 1.251 . S
O31 C30 1.261 . S
H32 C26 0.930 . S
H33 C28 0.930 . S
N34 Cu23 1.985 . S
N34 C36 1.335 . S
N34 C37 1.390 . S
N35 C36 1.345 . S
N35 C38 1.336 . S
C36 N34 1.335 . S
C36 N35 1.345 . S
C36 H41 0.930 . S
C37 N34 1.390 . S
C37 C38 1.346 . S
C37 H42 0.930 . S
C38 N35 1.336 . S
C38 C37 1.346 . S
C38 H45 0.929 . S
C39 O29 1.282 . S
C39 O40 1.216 . S
O40 C39 1.216 . S
H41 C36 0.930 . S
H42 C37 0.930 . S
O43 Cu23 1.959 . S
O43 C30 1.251 . S
H44 C27 0.930 . S
H45 C38 0.929 . S
Cu46 N47 1.999 . S
Cu46 O52 1.974 . S
Cu46 N57 1.985 1_554 S
Cu46 O66 1.959 . S
N47 Cu46 1.999 . S
N47 C49 1.263 . S
N47 C51 1.389 . S
N48 C49 1.358 . S
N48 C50 1.400 . S
C49 N47 1.263 . S
C49 N48 1.358 . S
C49 H55 0.930 . S
C50 N48 1.400 . S
C50 C51 1.351 . S
C50 H67 0.930 . S
C51 N47 1.389 . S
C51 C50 1.351 . S
C51 H56 0.930 . S
O52 Cu46 1.974 . S
O52 C62 1.282 1_554 S
C53 O54 1.261 . S
C53 O66 1.251 1_556 S
O54 C53 1.261 . S
H55 C49 0.930 . S
H56 C51 0.930 . S
N57 Cu46 1.985 1_556 S
N57 C59 1.335 . S
N57 C60 1.390 . S
N58 C59 1.345 . S
N58 C61 1.336 . S
C59 N57 1.335 . S
C59 N58 1.345 . S
C59 H64 0.930 . S
C60 N57 1.390 . S
C60 C61 1.346 . S
C60 H65 0.930 . S
C61 N58 1.336 . S
C61 C60 1.346 . S
C61 H68 0.929 . S
C62 O52 1.282 1_556 S
C62 O63 1.216 . S
O63 C62 1.216 . S
H64 C59 0.930 . S
H65 C60 0.930 . S
O66 Cu46 1.959 . S
O66 C53 1.251 1_554 S
H67 C50 0.930 . S
H68 C61 0.929 . S
Cu69 N70 1.999 . S
Cu69 O75 1.974 . S
Cu69 N80 1.985 . S
Cu69 O89 1.959 . S
N70 Cu69 1.999 . S
N70 C72 1.263 . S
N70 C74 1.389 . S
N71 C72 1.358 . S
N71 C73 1.400 . S
C72 N70 1.263 . S
C72 N71 1.358 . S
C72 H78 0.930 . S
C73 N71 1.400 . S
C73 C74 1.351 . S
C73 H90 0.930 . S
C74 N70 1.389 . S
C74 C73 1.351 . S
C74 H79 0.930 . S
O75 Cu69 1.974 . S
O75 C85 1.282 . S
C76 O77 1.261 . S
C76 O89 1.251 . S
O77 C76 1.261 . S
H78 C72 0.930 . S
H79 C74 0.930 . S
N80 Cu69 1.985 . S
N80 C82 1.335 . S
N80 C83 1.390 . S
N81 C82 1.345 . S
N81 C84 1.336 . S
C82 N80 1.335 . S
C82 N81 1.345 . S
C82 H87 0.930 . S
C83 N80 1.390 . S
C83 C84 1.346 . S
C83 H88 0.930 . S
C84 N81 1.336 . S
C84 C83 1.346 . S
C84 H91 0.929 . S
C85 O75 1.282 . S
C85 O86 1.216 . S
O86 C85 1.216 . S
H87 C82 0.930 . S
H88 C83 0.930 . S
O89 Cu69 1.959 . S
O89 C76 1.251 . S
H90 C73 0.930 . S
H91 C84 0.929 . S
Cu92 N93 1.999 . S
Cu92 O98 1.974 . S
Cu92 N103 1.985 . S
Cu92 O112 1.959 . S
N93 Cu92 1.999 . S
N93 C95 1.263 . S
N93 C97 1.389 . S
N94 C95 1.358 . S
N94 C96 1.400 . S
C95 N93 1.263 . S
C95 N94 1.358 . S
C95 H101 0.930 . S
C96 N94 1.400 . S
C96 C97 1.351 . S
C96 H113 0.930 . S
C97 N93 1.389 . S
C97 C96 1.351 . S
C97 H102 0.930 . S
O98 Cu92 1.974 . S
O98 C108 1.282 . S
C99 O100 1.261 . S
C99 O112 1.251 . S
O100 C99 1.261 . S
H101 C95 0.930 . S
H102 C97 0.930 . S
N103 Cu92 1.985 . S
N103 C105 1.335 . S
N103 C106 1.390 . S
N104 C105 1.345 . S
N104 C107 1.336 . S
C105 N103 1.335 . S
C105 N104 1.345 . S
C105 H110 0.930 . S
C106 N103 1.390 . S
C106 C107 1.346 . S
C106 H111 0.930 . S
C107 N104 1.336 . S
C107 C106 1.346 . S
C107 H114 0.929 . S
C108 O98 1.282 . S
C108 O109 1.216 . S
O109 C108 1.216 . S
H110 C105 0.930 . S
H111 C106 0.930 . S
O112 Cu92 1.959 . S
O112 C99 1.251 . S
H113 C96 0.930 . S
H114 C107 0.929 . S
Cu115 N116 1.999 . S
Cu115 O121 1.974 . S
Cu115 N126 1.985 1_554 S
Cu115 O135 1.959 . S
N116 Cu115 1.999 . S
N116 C118 1.263 . S
N116 C120 1.389 . S
N117 C118 1.358 . S
N117 C119 1.400 . S
C118 N116 1.263 . S
C118 N117 1.358 . S
C118 H124 0.930 . S
C119 N117 1.400 . S
C119 C120 1.351 . S
C119 H136 0.930 . S
C120 N116 1.389 . S
C120 C119 1.351 . S
C120 H125 0.930 . S
O121 Cu115 1.974 . S
O121 C131 1.282 1_554 S
C122 O123 1.261 . S
C122 O135 1.251 1_556 S
O123 C122 1.261 . S
H124 C118 0.930 . S
H125 C120 0.930 . S
N126 Cu115 1.985 1_556 S
N126 C128 1.335 . S
N126 C129 1.390 . S
N127 C128 1.345 . S
N127 C130 1.336 . S
C128 N126 1.335 . S
C128 N127 1.345 . S
C128 H133 0.930 . S
C129 N126 1.390 . S
C129 C130 1.346 . S
C129 H134 0.930 . S
C130 N127 1.336 . S
C130 C129 1.346 . S
C130 H137 0.929 . S
C131 O121 1.282 1_556 S
C131 O132 1.216 . S
O132 C131 1.216 . S
H133 C128 0.930 . S
H134 C129 0.930 . S
O135 Cu115 1.959 . S
O135 C122 1.251 1_554 S
H136 C119 0.930 . S
H137 C130 0.929 . S
Cu138 N139 1.999 . S
Cu138 O144 1.974 . S
Cu138 N149 1.985 . S
Cu138 O158 1.959 . S
N139 Cu138 1.999 . S
N139 C141 1.263 . S
N139 C143 1.389 . S
N140 C141 1.358 . S
N140 C142 1.400 . S
C141 N139 1.263 . S
C141 N140 1.358 . S
C141 H147 0.930 . S
C142 N140 1.400 . S
C142 C143 1.351 . S
C142 H159 0.930 . S
C143 N139 1.389 . S
C143 C142 1.351 . S
C143 H148 0.930 . S
O144 Cu138 1.974 . S
O144 C154 1.282 . S
C145 O146 1.261 . S
C145 O158 1.251 . S
O146 C145 1.261 . S
H147 C141 0.930 . S
H148 C143 0.930 . S
N149 Cu138 1.985 . S
N149 C151 1.335 . S
N149 C152 1.390 . S
N150 C151 1.345 . S
N150 C153 1.336 . S
C151 N149 1.335 . S
C151 N150 1.345 . S
C151 H156 0.930 . S
C152 N149 1.390 . S
C152 C153 1.346 . S
C152 H157 0.930 . S
C153 N150 1.336 . S
C153 C152 1.346 . S
C153 H160 0.929 . S
C154 O144 1.282 . S
C154 O155 1.216 . S
O155 C154 1.216 . S
H156 C151 0.930 . S
H157 C152 0.930 . S
O158 Cu138 1.959 . S
O158 C145 1.251 . S
H159 C142 0.930 . S
H160 C153 0.929 . S
Cu161 N162 1.999 . S
Cu161 O167 1.974 . S
Cu161 N172 1.985 . S
Cu161 O181 1.959 . S
N162 Cu161 1.999 . S
N162 C164 1.263 . S
N162 C166 1.389 . S
N163 C164 1.358 . S
N163 C165 1.400 . S
C164 N162 1.263 . S
C164 N163 1.358 . S
C164 H170 0.930 . S
C165 N163 1.400 . S
C165 C166 1.351 . S
C165 H182 0.930 . S
C166 N162 1.389 . S
C166 C165 1.351 . S
C166 H171 0.930 . S
O167 Cu161 1.974 . S
O167 C177 1.282 . S
C168 O169 1.261 . S
C168 O181 1.251 . S
O169 C168 1.261 . S
H170 C164 0.930 . S
H171 C166 0.930 . S
N172 Cu161 1.985 . S
N172 C174 1.335 . S
N172 C175 1.390 . S
N173 C174 1.345 . S
N173 C176 1.336 . S
C174 N172 1.335 . S
C174 N173 1.345 . S
C174 H179 0.930 . S
C175 N172 1.390 . S
C175 C176 1.346 . S
C175 H180 0.930 . S
C176 N173 1.336 . S
C176 C175 1.346 . S
C176 H183 0.929 . S
C177 O167 1.282 . S
C177 O178 1.216 . S
O178 C177 1.216 . S
H179 C174 0.930 . S
H180 C175 0.930 . S
O181 Cu161 1.959 . S
O181 C168 1.251 . S
H182 C165 0.930 . S
H183 C176 0.929 . S
Cu184 N185 1.999 . S
Cu184 O190 1.974 . S
Cu184 N195 1.985 1_556 S
Cu184 O204 1.959 . S
N185 Cu184 1.999 . S
N185 C187 1.263 . S
N185 C189 1.389 . S
N186 C187 1.358 . S
N186 C188 1.400 . S
C187 N185 1.263 . S
C187 N186 1.358 . S
C187 H193 0.930 . S
C188 N186 1.400 . S
C188 C189 1.351 . S
C188 H205 0.930 . S
C189 N185 1.389 . S
C189 C188 1.351 . S
C189 H194 0.930 . S
O190 Cu184 1.974 . S
O190 C200 1.282 1_556 S
C191 O192 1.261 . S
C191 O204 1.251 1_554 S
O192 C191 1.261 . S
H193 C187 0.930 . S
H194 C189 0.930 . S
N195 Cu184 1.985 1_554 S
N195 C197 1.335 . S
N195 C198 1.390 . S
N196 C197 1.345 . S
N196 C199 1.336 . S
C197 N195 1.335 . S
C197 N196 1.345 . S
C197 H202 0.930 . S
C198 N195 1.390 . S
C198 C199 1.346 . S
C198 H203 0.930 . S
C199 N196 1.336 . S
C199 C198 1.346 . S
C199 H206 0.929 . S
C200 O190 1.282 1_554 S
C200 O201 1.216 . S
O201 C200 1.216 . S
H202 C197 0.930 . S
H203 C198 0.930 . S
O204 Cu184 1.959 . S
O204 C191 1.251 1_556 S
H205 C188 0.930 . S
H206 C199 0.929 . S
Cu207 N208 1.999 . S
Cu207 O213 1.974 . S
Cu207 N218 1.985 . S
Cu207 O227 1.959 . S
N208 Cu207 1.999 . S
N208 C210 1.263 . S
N208 C212 1.389 . S
N209 C210 1.358 . S
N209 C211 1.400 . S
C210 N208 1.263 . S
C210 N209 1.358 . S
C210 H216 0.930 . S
C211 N209 1.400 . S
C211 C212 1.351 . S
C211 H228 0.930 . S
C212 N208 1.389 . S
C212 C211 1.351 . S
C212 H217 0.930 . S
O213 Cu207 1.974 . S
O213 C223 1.282 . S
C214 O215 1.261 . S
C214 O227 1.251 . S
O215 C214 1.261 . S
H216 C210 0.930 . S
H217 C212 0.930 . S
N218 Cu207 1.985 . S
N218 C220 1.335 . S
N218 C221 1.390 . S
N219 C220 1.345 . S
N219 C222 1.336 . S
C220 N218 1.335 . S
C220 N219 1.345 . S
C220 H225 0.930 . S
C221 N218 1.390 . S
C221 C222 1.346 . S
C221 H226 0.930 . S
C222 N219 1.336 . S
C222 C221 1.346 . S
C222 H229 0.929 . S
C223 O213 1.282 . S
C223 O224 1.216 . S
O224 C223 1.216 . S
H225 C220 0.930 . S
H226 C221 0.930 . S
O227 Cu207 1.959 . S
O227 C214 1.251 . S
H228 C211 0.930 . S
H229 C222 0.929 . S
Cu230 N231 1.999 . S
Cu230 O236 1.974 . S
Cu230 N241 1.985 . S
Cu230 O250 1.959 . S
N231 Cu230 1.999 . S
N231 C233 1.263 . S
N231 C235 1.389 . S
N232 C233 1.358 . S
N232 C234 1.400 . S
C233 N231 1.263 . S
C233 N232 1.358 . S
C233 H239 0.930 . S
C234 N232 1.400 . S
C234 C235 1.351 . S
C234 H251 0.930 . S
C235 N231 1.389 . S
C235 C234 1.351 . S
C235 H240 0.930 . S
O236 Cu230 1.974 . S
O236 C246 1.282 . S
C237 O238 1.261 . S
C237 O250 1.251 . S
O238 C237 1.261 . S
H239 C233 0.930 . S
H240 C235 0.930 . S
N241 Cu230 1.985 . S
N241 C243 1.335 . S
N241 C244 1.390 . S
N242 C243 1.345 . S
N242 C245 1.336 . S
C243 N241 1.335 . S
C243 N242 1.345 . S
C243 H248 0.930 . S
C244 N241 1.390 . S
C244 C245 1.346 . S
C244 H249 0.930 . S
C245 N242 1.336 . S
C245 C244 1.346 . S
C245 H252 0.929 . S
C246 O236 1.282 . S
C246 O247 1.216 . S
O247 C246 1.216 . S
H248 C243 0.930 . S
H249 C244 0.930 . S
O250 Cu230 1.959 . S
O250 C237 1.251 . S
H251 C234 0.930 . S
H252 C245 0.929 . S
Cu253 N254 1.999 . S
Cu253 O259 1.974 . S
Cu253 N264 1.985 1_556 S
Cu253 O273 1.959 . S
N254 Cu253 1.999 . S
N254 C256 1.263 . S
N254 C258 1.389 . S
N255 C256 1.358 . S
N255 C257 1.400 . S
C256 N254 1.263 . S
C256 N255 1.358 . S
C256 H262 0.930 . S
C257 N255 1.400 . S
C257 C258 1.351 . S
C257 H274 0.930 . S
C258 N254 1.389 . S
C258 C257 1.351 . S
C258 H263 0.930 . S
O259 Cu253 1.974 . S
O259 C269 1.282 1_556 S
C260 O261 1.261 . S
C260 O273 1.251 1_554 S
O261 C260 1.261 . S
H262 C256 0.930 . S
H263 C258 0.930 . S
N264 Cu253 1.985 1_554 S
N264 C266 1.335 . S
N264 C267 1.390 . S
N265 C266 1.345 . S
N265 C268 1.336 . S
C266 N264 1.335 . S
C266 N265 1.345 . S
C266 H271 0.930 . S
C267 N264 1.390 . S
C267 C268 1.346 . S
C267 H272 0.930 . S
C268 N265 1.336 . S
C268 C267 1.346 . S
C268 H275 0.929 . S
C269 O259 1.282 1_554 S
C269 O270 1.216 . S
O270 C269 1.216 . S
H271 C266 0.930 . S
H272 C267 0.930 . S
O273 Cu253 1.959 . S
O273 C260 1.251 1_556 S
H274 C257 0.930 . S
H275 C268 0.929 . S
H276 C284 0.950 . S
H277 C289 0.950 . S
H278 C286 0.950 . S
H279 C288 0.950 . S
H280 C290 0.950 . S
H281 C292 0.950 . S
H282 C294 0.950 . S
H283 C295 0.950 . S
C284 H276 0.950 . S
C284 C285 1.386 . S
C284 C286 1.391 . S
C285 C284 1.386 . S
C285 C289 1.393 . S
C286 H278 0.950 . S
C286 C284 1.391 . S
C286 C287 1.400 . S
C287 C286 1.400 . S
C287 C288 1.398 . S
C287 C293 1.491 . S
C288 H279 0.950 . S
C288 C287 1.398 . S
C288 C289 1.391 . S
C289 H277 0.950 . S
C289 C285 1.393 . S
C289 C288 1.391 . S
C290 H280 0.950 . S
C290 C291 1.386 . S
C290 C292 1.391 . S
C291 C290 1.386 . S
C291 C295 1.393 . S
C292 H281 0.950 . S
C292 C290 1.391 . S
C292 C293 1.400 . S
C293 C287 1.491 . S
C293 C292 1.400 . S
C293 C294 1.398 . S
C294 H282 0.950 . S
C294 C293 1.398 . S
C294 C295 1.391 . S
C295 H283 0.950 . S
C295 C291 1.393 . S
C295 C294 1.391 . S
H296 C304 0.950 . S
H297 C309 0.950 . S
H298 C306 0.950 . S
H299 C308 0.950 . S
H300 C310 0.950 . S
H301 C312 0.950 . S
H302 C314 0.950 . S
H303 C315 0.950 . S
C304 H296 0.950 . S
C304 C305 1.386 . S
C304 C306 1.391 . S
C305 C304 1.386 . S
C305 C309 1.393 . S
C306 H298 0.950 . S
C306 C304 1.391 . S
C306 C307 1.400 . S
C307 C306 1.400 . S
C307 C308 1.398 . S
C307 C313 1.491 . S
C308 H299 0.950 . S
C308 C307 1.398 . S
C308 C309 1.391 . S
C309 H297 0.950 . S
C309 C305 1.393 . S
C309 C308 1.391 . S
C310 H300 0.950 . S
C310 C311 1.386 . S
C310 C312 1.391 . S
C311 C310 1.386 . S
C311 C315 1.393 . S
C312 H301 0.950 . S
C312 C310 1.391 . S
C312 C313 1.400 . S
C313 C307 1.491 . S
C313 C312 1.400 . S
C313 C314 1.398 . S
C314 H302 0.950 . S
C314 C313 1.398 . S
C314 C315 1.391 . S
C315 H303 0.950 . S
C315 C311 1.393 . S
C315 C314 1.391 . S
H316 C324 0.950 . S
H317 C329 0.950 . S
H318 C326 0.950 . S
H319 C328 0.950 . S
H320 C330 0.950 . S
H321 C332 0.950 . S
H322 C334 0.950 . S
H323 C335 0.950 . S
C324 H316 0.950 . S
C324 C325 1.386 . S
C324 C326 1.391 . S
C325 C324 1.386 . S
C325 C329 1.393 . S
C326 H318 0.950 . S
C326 C324 1.391 . S
C326 C327 1.400 . S
C327 C326 1.400 . S
C327 C328 1.398 . S
C327 C333 1.491 . S
C328 H319 0.950 . S
C328 C327 1.398 . S
C328 C329 1.391 . S
C329 H317 0.950 . S
C329 C325 1.393 . S
C329 C328 1.391 . S
C330 H320 0.950 . S
C330 C331 1.386 . S
C330 C332 1.391 . S
C331 C330 1.386 . S
C331 C335 1.393 . S
C332 H321 0.950 . S
C332 C330 1.391 . S
C332 C333 1.400 . S
C333 C327 1.491 . S
C333 C332 1.400 . S
C333 C334 1.398 . S
C334 H322 0.950 . S
C334 C333 1.398 . S
C334 C335 1.391 . S
C335 H323 0.950 . S
C335 C331 1.393 . S
C335 C334 1.391 . S
H336 C344 0.950 . S
H337 C349 0.950 . S
H338 C346 0.950 . S
H339 C348 0.950 . S
H340 C350 0.950 . S
H341 C352 0.950 . S
H342 C354 0.950 . S
H343 C355 0.950 . S
C344 H336 0.950 . S
C344 C345 1.386 . S
C344 C346 1.391 . S
C345 C344 1.386 . S
C345 C349 1.393 . S
C346 H338 0.950 . S
C346 C344 1.391 . S
C346 C347 1.400 . S
C347 C346 1.400 . S
C347 C348 1.398 . S
C347 C353 1.491 . S
C348 H339 0.950 . S
C348 C347 1.398 . S
C348 C349 1.391 . S
C349 H337 0.950 . S
C349 C345 1.393 . S
C349 C348 1.391 . S
C350 H340 0.950 . S
C350 C351 1.386 . S
C350 C352 1.391 . S
C351 C350 1.386 . S
C351 C355 1.393 . S
C352 H341 0.950 . S
C352 C350 1.391 . S
C352 C353 1.400 . S
C353 C347 1.491 . S
C353 C352 1.400 . S
C353 C354 1.398 . S
C354 H342 0.950 . S
C354 C353 1.398 . S
C354 C355 1.391 . S
C355 H343 0.950 . S
C355 C351 1.393 . S
C355 C354 1.391 . S
H356 C364 0.950 . S
H357 C369 0.950 . S
H358 C366 0.950 . S
H359 C368 0.950 . S
H360 C370 0.950 . S
H361 C372 0.950 . S
H362 C374 0.950 . S
H363 C375 0.950 . S
C364 H356 0.950 . S
C364 C365 1.386 . S
C364 C366 1.391 . S
C365 C364 1.386 . S
C365 C369 1.393 . S
C366 H358 0.950 . S
C366 C364 1.391 . S
C366 C367 1.400 . S
C367 C366 1.400 . S
C367 C368 1.398 . S
C367 C373 1.491 . S
C368 H359 0.950 . S
C368 C367 1.398 . S
C368 C369 1.391 . S
C369 H357 0.950 . S
C369 C365 1.393 . S
C369 C368 1.391 . S
C370 H360 0.950 . S
C370 C371 1.386 . S
C370 C372 1.391 . S
C371 C370 1.386 . S
C371 C375 1.393 . S
C372 H361 0.950 . S
C372 C370 1.391 . S
C372 C373 1.400 . S
C373 C367 1.491 . S
C373 C372 1.400 . S
C373 C374 1.398 . S
C374 H362 0.950 . S
C374 C373 1.398 . S
C374 C375 1.391 . S
C375 H363 0.950 . S
C375 C371 1.393 . S
C375 C374 1.391 . S
H376 C384 0.950 . S
H377 C389 0.950 . S
H378 C386 0.950 . S
H379 C388 0.950 . S
H380 C390 0.950 . S
H381 C392 0.950 . S
H382 C394 0.950 . S
H383 C395 0.950 . S
C384 H376 0.950 . S
C384 C385 1.386 . S
C384 C386 1.391 . S
C385 C384 1.386 . S
C385 C389 1.393 . S
C386 H378 0.950 . S
C386 C384 1.391 . S
C386 C387 1.400 . S
C387 C386 1.400 . S
C387 C388 1.398 . S
C387 C393 1.491 . S
C388 H379 0.950 . S
C388 C387 1.398 . S
C388 C389 1.391 . S
C389 H377 0.950 . S
C389 C385 1.393 . S
C389 C388 1.391 . S
C390 H380 0.950 . S
C390 C391 1.386 . S
C390 C392 1.391 . S
C391 C390 1.386 . S
C391 C395 1.393 . S
C392 H381 0.950 . S
C392 C390 1.391 . S
C392 C393 1.400 . S
C393 C387 1.491 . S
C393 C392 1.400 . S
C393 C394 1.398 . S
C394 H382 0.950 . S
C394 C393 1.398 . S
C394 C395 1.391 . S
C395 H383 0.950 . S
C395 C391 1.393 . S
C395 C394 1.391 . S
H396 C404 0.950 . S
H397 C409 0.950 . S
H398 C406 0.950 . S
H399 C408 0.950 . S
H400 C410 0.950 . S
H401 C412 0.950 . S
H402 C414 0.950 . S
H403 C415 0.950 . S
C404 H396 0.950 . S
C404 C405 1.386 . S
C404 C406 1.391 . S
C405 C404 1.386 . S
C405 C409 1.393 . S
C406 H398 0.950 . S
C406 C404 1.391 . S
C406 C407 1.400 . S
C407 C406 1.400 . S
C407 C408 1.398 . S
C407 C413 1.491 . S
C408 H399 0.950 . S
C408 C407 1.398 . S
C408 C409 1.391 . S
C409 H397 0.950 . S
C409 C405 1.393 . S
C409 C408 1.391 . S
C410 H400 0.950 . S
C410 C411 1.386 . S
C410 C412 1.391 . S
C411 C410 1.386 . S
C411 C415 1.393 . S
C412 H401 0.950 . S
C412 C410 1.391 . S
C412 C413 1.400 . S
C413 C407 1.491 . S
C413 C412 1.400 . S
C413 C414 1.398 . S
C414 H402 0.950 . S
C414 C413 1.398 . S
C414 C415 1.391 . S
C415 H403 0.950 . S
C415 C411 1.393 . S
C415 C414 1.391 . S
H416 C424 0.950 . S
H417 C429 0.950 . S
H418 C426 0.950 . S
H419 C428 0.950 . S
H420 C430 0.950 . S
H421 C432 0.950 . S
H422 C434 0.950 . S
H423 C435 0.950 . S
C424 H416 0.950 . S
C424 C425 1.386 . S
C424 C426 1.391 . S
C425 C424 1.386 . S
C425 C429 1.393 . S
C426 H418 0.950 . S
C426 C424 1.391 . S
C426 C427 1.400 . S
C427 C426 1.400 . S
C427 C428 1.398 . S
C427 C433 1.491 . S
C428 H419 0.950 . S
C428 C427 1.398 . S
C428 C429 1.391 . S
C429 H417 0.950 . S
C429 C425 1.393 . S
C429 C428 1.391 . S
C430 H420 0.950 . S
C430 C431 1.386 . S
C430 C432 1.391 . S
C431 C430 1.386 . S
C431 C435 1.393 . S
C432 H421 0.950 . S
C432 C430 1.391 . S
C432 C433 1.400 . S
C433 C427 1.491 . S
C433 C432 1.400 . S
C433 C434 1.398 . S
C434 H422 0.950 . S
C434 C433 1.398 . S
C434 C435 1.391 . S
C435 H423 0.950 . S
C435 C431 1.393 . S
C435 C434 1.391 . S
H436 C444 0.950 . S
H437 C449 0.950 . S
H438 C446 0.950 . S
H439 C448 0.950 . S
H440 C450 0.950 . S
H441 C452 0.950 . S
H442 C454 0.950 . S
H443 C455 0.950 . S
C444 H436 0.950 . S
C444 C445 1.386 . S
C444 C446 1.391 . S
C445 C444 1.386 . S
C445 C449 1.393 1_554 S
C446 H438 0.950 . S
C446 C444 1.391 . S
C446 C447 1.400 . S
C447 C446 1.400 . S
C447 C448 1.398 1_554 S
C447 C453 1.491 1_554 S
C448 H439 0.950 . S
C448 C447 1.398 1_556 S
C448 C449 1.391 . S
C449 H437 0.950 . S
C449 C445 1.393 1_556 S
C449 C448 1.391 . S
C450 H440 0.950 . S
C450 C451 1.386 . S
C450 C452 1.391 . S
C451 C450 1.386 . S
C451 C455 1.393 1_556 S
C452 H441 0.950 . S
C452 C450 1.391 . S
C452 C453 1.400 . S
C453 C447 1.491 1_556 S
C453 C452 1.400 . S
C453 C454 1.398 1_556 S
C454 H442 0.950 . S
C454 C453 1.398 1_554 S
C454 C455 1.391 . S
C455 H443 0.950 . S
C455 C451 1.393 1_554 S
C455 C454 1.391 . S
H456 C464 0.950 . S
H457 C469 0.950 . S
H458 C466 0.950 . S
H459 C468 0.950 . S
H460 C470 0.950 . S
H461 C472 0.950 . S
H462 C474 0.950 . S
H463 C475 0.950 . S
C464 H456 0.950 . S
C464 C465 1.386 . S
C464 C466 1.391 . S
C465 C464 1.386 . S
C465 C469 1.393 . S
C466 H458 0.950 . S
C466 C464 1.391 . S
C466 C467 1.400 . S
C467 C466 1.400 . S
C467 C468 1.398 . S
C467 C473 1.491 . S
C468 H459 0.950 . S
C468 C467 1.398 . S
C468 C469 1.391 . S
C469 H457 0.950 . S
C469 C465 1.393 . S
C469 C468 1.391 . S
C470 H460 0.950 . S
C470 C471 1.386 . S
C470 C472 1.391 . S
C471 C470 1.386 . S
C471 C475 1.393 . S
C472 H461 0.950 . S
C472 C470 1.391 . S
C472 C473 1.400 . S
C473 C467 1.491 . S
C473 C472 1.400 . S
C473 C474 1.398 . S
C474 H462 0.950 . S
C474 C473 1.398 . S
C474 C475 1.391 . S
C475 H463 0.950 . S
C475 C471 1.393 . S
C475 C474 1.391 . S
H476 C484 0.950 . S
H477 C489 0.950 . S
H478 C486 0.950 . S
H479 C488 0.950 . S
H480 C490 0.950 . S
H481 C492 0.950 . S
H482 C494 0.950 . S
H483 C495 0.950 . S
C484 H476 0.950 . S
C484 C485 1.386 . S
C484 C486 1.391 . S
C485 C484 1.386 . S
C485 C489 1.393 . S
C486 H478 0.950 . S
C486 C484 1.391 . S
C486 C487 1.400 . S
C487 C486 1.400 . S
C487 C488 1.398 . S
C487 C493 1.491 . S
C488 H479 0.950 . S
C488 C487 1.398 . S
C488 C489 1.391 . S
C489 H477 0.950 . S
C489 C485 1.393 . S
C489 C488 1.391 . S
C490 H480 0.950 . S
C490 C491 1.386 . S
C490 C492 1.391 . S
C491 C490 1.386 . S
C491 C495 1.393 . S
C492 H481 0.950 . S
C492 C490 1.391 . S
C492 C493 1.400 . S
C493 C487 1.491 . S
C493 C492 1.400 . S
C493 C494 1.398 . S
C494 H482 0.950 . S
C494 C493 1.398 . S
C494 C495 1.391 . S
C495 H483 0.950 . S
C495 C491 1.393 . S
C495 C494 1.391 . S
H496 C504 0.950 . S
H497 C509 0.950 . S
H498 C506 0.950 . S
H499 C508 0.950 . S
H500 C510 0.950 . S
H501 C512 0.950 . S
H502 C514 0.950 . S
H503 C515 0.950 . S
C504 H496 0.950 . S
C504 C505 1.386 . S
C504 C506 1.391 . S
C505 C504 1.386 . S
C505 C509 1.393 1_556 S
C506 H498 0.950 . S
C506 C504 1.391 . S
C506 C507 1.411 . S
C507 C506 1.411 . S
C507 C508 1.388 1_556 S
C507 C513 1.490 1_556 S
C508 H499 0.950 . S
C508 C507 1.388 1_554 S
C508 C509 1.391 . S
C509 H497 0.950 . S
C509 C505 1.393 1_554 S
C509 C508 1.391 . S
C510 H500 0.950 . S
C510 C511 1.386 . S
C510 C512 1.391 . S
C511 C510 1.386 . S
C511 C515 1.393 1_554 S
C512 H501 0.950 . S
C512 C510 1.391 . S
C512 C513 1.424 . S
C513 C507 1.490 1_554 S
C513 C512 1.424 . S
C513 C514 1.376 1_554 S
C514 H502 0.950 . S
C514 C513 1.376 1_556 S
C514 C515 1.391 . S
C515 H503 0.950 . S
C515 C511 1.393 1_556 S
C515 C514 1.391 . S
H516 C524 0.950 . S
H517 C529 0.950 . S
H518 C526 0.950 1_565 S
H519 C528 0.950 . S
H520 C530 0.950 . S
H521 C532 0.950 1_545 S
H522 C534 0.950 . S
H523 C535 0.950 . S
C524 H516 0.950 . S
C524 C525 1.386 . S
C524 C526 1.391 . S
C525 C524 1.386 . S
C525 C529 1.393 . S
C526 H518 0.950 1_545 S
C526 C524 1.391 . S
C526 C527 1.400 . S
C527 C526 1.400 . S
C527 C528 1.398 . S
C527 C533 1.491 1_545 S
C528 H519 0.950 . S
C528 C527 1.398 . S
C528 C529 1.391 . S
C529 H517 0.950 . S
C529 C525 1.393 . S
C529 C528 1.391 . S
C530 H520 0.950 . S
C530 C531 1.386 . S
C530 C532 1.391 . S
C531 C530 1.386 . S
C531 C535 1.393 . S
C532 H521 0.950 1_565 S
C532 C530 1.391 . S
C532 C533 1.400 . S
C533 C527 1.491 1_565 S
C533 C532 1.400 . S
C533 C534 1.398 . S
C534 H522 0.950 . S
C534 C533 1.398 . S
C534 C535 1.391 . S
C535 H523 0.950 . S
C535 C531 1.393 . S
C535 C534 1.391 . S
H536 C544 0.950 . S
H537 C549 0.950 . S
H538 C546 0.950 . S
H539 C548 0.950 . S
H540 C550 0.950 . S
H541 C552 0.950 . S
H542 C554 0.950 . S
H543 C555 0.950 . S
C544 H536 0.950 . S
C544 C545 1.386 . S
C544 C546 1.391 . S
C545 C544 1.386 . S
C545 C549 1.393 . S
C546 H538 0.950 . S
C546 C544 1.391 . S
C546 C547 1.400 . S
C547 C546 1.400 . S
C547 C548 1.398 . S
C547 C553 1.491 . S
C548 H539 0.950 . S
C548 C547 1.398 . S
C548 C549 1.391 . S
C549 H537 0.950 . S
C549 C545 1.393 . S
C549 C548 1.391 . S
C550 H540 0.950 . S
C550 C551 1.386 . S
C550 C552 1.391 . S
C551 C550 1.386 . S
C551 C555 1.393 . S
C552 H541 0.950 . S
C552 C550 1.391 . S
C552 C553 1.400 . S
C553 C547 1.491 . S
C553 C552 1.400 . S
C553 C554 1.398 . S
C554 H542 0.950 . S
C554 C553 1.398 . S
C554 C555 1.391 . S
C555 H543 0.950 . S
C555 C551 1.393 . S
C555 C554 1.391 . S
H556 C564 0.950 . S
H557 C569 0.950 . S
H558 C566 0.924 1_455 S
H559 C568 0.950 . S
H560 C570 0.950 . S
H561 C572 0.924 1_655 S
H562 C574 0.950 . S
H563 C575 0.950 . S
C564 H556 0.950 . S
C564 C565 1.377 1_554 S
C564 C566 1.391 . S
C565 C564 1.377 1_556 S
C565 C569 1.402 . S
C566 H558 0.924 1_655 S
C566 C564 1.391 . S
C566 C567 1.398 . S
C567 C566 1.398 . S
C567 C568 1.401 1_554 S
C567 C573 1.490 1_655 S
C568 H559 0.950 . S
C568 C567 1.401 1_556 S
C568 C569 1.391 . S
C569 H557 0.950 . S
C569 C565 1.402 . S
C569 C568 1.391 . S
C570 H560 0.950 . S
C570 C571 1.386 1_556 S
C570 C572 1.391 . S
C571 C570 1.386 1_554 S
C571 C575 1.393 . S
C572 H561 0.924 1_455 S
C572 C570 1.391 . S
C572 C573 1.379 1_556 S
C573 C567 1.490 1_455 S
C573 C572 1.379 1_554 S
C573 C574 1.421 . S
C574 H562 0.950 . S
C574 C573 1.421 . S
C574 C575 1.391 . S
C575 H563 0.950 . S
C575 C571 1.393 . S
C575 C574 1.391 . S
H576 C584 0.950 . S
H577 C589 0.950 . S
H578 C586 0.950 . S
H579 C588 0.950 . S
H580 C590 0.950 . S
H581 C592 0.950 . S
H582 C594 0.950 . S
H583 C595 0.950 . S
C584 H576 0.950 . S
C584 C585 1.386 . S
C584 C586 1.391 . S
C585 C584 1.386 . S
C585 C589 1.393 . S
C586 H578 0.950 . S
C586 C584 1.391 . S
C586 C587 1.400 . S
C587 C586 1.400 . S
C587 C588 1.398 . S
C587 C593 1.491 1_455 S
C588 H579 0.950 . S
C588 C587 1.398 . S
C588 C589 1.391 . S
C589 H577 0.950 . S
C589 C585 1.393 . S
C589 C588 1.391 . S
C590 H580 0.950 . S
C590 C591 1.386 . S
C590 C592 1.391 . S
C591 C590 1.386 . S
C591 C595 1.393 . S
C592 H581 0.950 . S
C592 C590 1.391 . S
C592 C593 1.400 . S
C593 C587 1.491 1_655 S
C593 C592 1.400 . S
C593 C594 1.398 . S
C594 H582 0.950 . S
C594 C593 1.398 . S
C594 C595 1.391 . S
C595 H583 0.950 . S
C595 C591 1.393 . S
C595 C594 1.391 . S
H596 C604 0.950 . S
H597 C609 0.950 . S
H598 C606 0.950 . S
H599 C608 0.950 1_565 S
H600 C610 0.950 . S
H601 C612 0.950 . S
H602 C614 0.950 1_545 S
H603 C615 0.950 . S
C604 H596 0.950 . S
C604 C605 1.386 . S
C604 C606 1.391 . S
C605 C604 1.386 . S
C605 C609 1.393 . S
C606 H598 0.950 . S
C606 C604 1.391 . S
C606 C607 1.400 . S
C607 C606 1.400 . S
C607 C608 1.398 . S
C607 C613 1.491 1_545 S
C608 H599 0.950 1_545 S
C608 C607 1.398 . S
C608 C609 1.391 . S
C609 H597 0.950 . S
C609 C605 1.393 . S
C609 C608 1.391 . S
C610 H600 0.950 . S
C610 C611 1.386 . S
C610 C612 1.391 . S
C611 C610 1.386 . S
C611 C615 1.393 . S
C612 H601 0.950 . S
C612 C610 1.391 . S
C612 C613 1.400 . S
C613 C607 1.491 1_565 S
C613 C612 1.400 . S
C613 C614 1.398 . S
C614 H602 0.950 1_565 S
C614 C613 1.398 . S
C614 C615 1.391 . S
C615 H603 0.950 . S
C615 C611 1.393 . S
C615 C614 1.391 . S
H616 C624 0.950 . S
H617 C629 0.950 . S
H618 C626 0.950 . S
H619 C628 0.950 . S
H620 C630 0.950 . S
H621 C632 0.950 . S
H622 C634 0.950 . S
H623 C635 0.950 . S
C624 H616 0.950 . S
C624 C625 1.386 . S
C624 C626 1.391 . S
C625 C624 1.386 . S
C625 C629 1.393 1_556 S
C626 H618 0.950 . S
C626 C624 1.391 . S
C626 C627 1.404 . S
C627 C626 1.404 . S
C627 C628 1.395 1_556 S
C627 C633 1.490 1_556 S
C628 H619 0.950 . S
C628 C627 1.395 1_554 S
C628 C629 1.391 . S
C629 H617 0.950 . S
C629 C625 1.393 1_554 S
C629 C628 1.391 . S
C630 H620 0.950 . S
C630 C631 1.386 . S
C630 C632 1.391 . S
C631 C630 1.386 . S
C631 C635 1.393 1_554 S
C632 H621 0.950 . S
C632 C630 1.391 . S
C632 C633 1.404 . S
C633 C627 1.490 1_554 S
C633 C632 1.404 . S
C633 C634 1.396 1_554 S
C634 H622 0.950 . S
C634 C633 1.396 1_556 S
C634 C635 1.391 . S
C635 H623 0.950 . S
C635 C631 1.393 1_556 S
C635 C634 1.391 . S
H636 C644 0.950 . S
H637 C649 0.950 . S
H638 C646 0.950 . S
H639 C648 0.950 . S
H640 C650 0.950 . S
H641 C652 0.950 . S
H642 C654 0.950 . S
H643 C655 0.950 . S
C644 H636 0.950 . S
C644 C645 1.386 . S
C644 C646 1.391 . S
C645 C644 1.386 . S
C645 C649 1.393 . S
C646 H638 0.950 . S
C646 C644 1.391 . S
C646 C647 1.400 . S
C647 C646 1.400 . S
C647 C648 1.398 . S
C647 C653 1.491 . S
C648 H639 0.950 . S
C648 C647 1.398 . S
C648 C649 1.391 . S
C649 H637 0.950 . S
C649 C645 1.393 . S
C649 C648 1.391 . S
C650 H640 0.950 . S
C650 C651 1.386 . S
C650 C652 1.391 . S
C651 C650 1.386 . S
C651 C655 1.393 . S
C652 H641 0.950 . S
C652 C650 1.391 . S
C652 C653 1.400 . S
C653 C647 1.491 . S
C653 C652 1.400 . S
C653 C654 1.398 . S
C654 H642 0.950 . S
C654 C653 1.398 . S
C654 C655 1.391 . S
C655 H643 0.950 . S
C655 C651 1.393 . S
C655 C654 1.391 . S
H656 C664 0.950 . S
H657 C669 0.950 . S
H658 C666 0.950 . S
H659 C668 0.950 . S
H660 C670 0.950 . S
H661 C672 0.950 . S
H662 C674 0.950 . S
H663 C675 0.950 . S
C664 H656 0.950 . S
C664 C665 1.386 . S
C664 C666 1.391 . S
C665 C664 1.386 . S
C665 C669 1.393 . S
C666 H658 0.950 . S
C666 C664 1.391 . S
C666 C667 1.400 . S
C667 C666 1.400 . S
C667 C668 1.398 . S
C667 C673 1.491 . S
C668 H659 0.950 . S
C668 C667 1.398 . S
C668 C669 1.391 . S
C669 H657 0.950 . S
C669 C665 1.393 . S
C669 C668 1.391 . S
C670 H660 0.950 . S
C670 C671 1.386 . S
C670 C672 1.391 . S
C671 C670 1.386 . S
C671 C675 1.393 . S
C672 H661 0.950 . S
C672 C670 1.391 . S
C672 C673 1.400 . S
C673 C667 1.491 . S
C673 C672 1.400 . S
C673 C674 1.398 . S
C674 H662 0.950 . S
C674 C673 1.398 . S
C674 C675 1.391 . S
C675 H663 0.950 . S
C675 C671 1.393 . S
C675 C674 1.391 . S
H676 C684 0.950 . S
H677 C689 0.950 . S
H678 C686 0.950 . S
H679 C688 0.950 . S
H680 C690 0.950 . S
H681 C692 0.950 . S
H682 C694 0.950 . S
H683 C695 0.950 . S
C684 H676 0.950 . S
C684 C685 1.386 . S
C684 C686 1.391 . S
C685 C684 1.386 . S
C685 C689 1.393 . S
C686 H678 0.950 . S
C686 C684 1.391 . S
C686 C687 1.400 . S
C687 C686 1.400 . S
C687 C688 1.398 . S
C687 C693 1.491 . S
C688 H679 0.950 . S
C688 C687 1.398 . S
C688 C689 1.391 . S
C689 H677 0.950 . S
C689 C685 1.393 . S
C689 C688 1.391 . S
C690 H680 0.950 . S
C690 C691 1.386 . S
C690 C692 1.391 . S
C691 C690 1.386 . S
C691 C695 1.393 . S
C692 H681 0.950 . S
C692 C690 1.391 . S
C692 C693 1.400 . S
C693 C687 1.491 . S
C693 C692 1.400 . S
C693 C694 1.398 . S
C694 H682 0.950 . S
C694 C693 1.398 . S
C694 C695 1.391 . S
C695 H683 0.950 . S
C695 C691 1.393 . S
C695 C694 1.391 . S
H696 C704 0.950 . S
H697 C709 0.950 . S
H698 C706 0.950 . S
H699 C708 0.950 . S
H700 C710 0.950 . S
H701 C712 0.950 . S
H702 C714 0.950 . S
H703 C715 0.950 . S
C704 H696 0.950 . S
C704 C705 1.386 . S
C704 C706 1.391 . S
C705 C704 1.386 . S
C705 C709 1.393 . S
C706 H698 0.950 . S
C706 C704 1.391 . S
C706 C707 1.400 . S
C707 C706 1.400 . S
C707 C708 1.398 . S
C707 C713 1.491 . S
C708 H699 0.950 . S
C708 C707 1.398 . S
C708 C709 1.391 . S
C709 H697 0.950 . S
C709 C705 1.393 . S
C709 C708 1.391 . S
C710 H700 0.950 . S
C710 C711 1.386 . S
C710 C712 1.391 . S
C711 C710 1.386 . S
C711 C715 1.393 . S
C712 H701 0.950 . S
C712 C710 1.391 . S
C712 C713 1.400 . S
C713 C707 1.491 . S
C713 C712 1.400 . S
C713 C714 1.398 . S
C714 H702 0.950 . S
C714 C713 1.398 . S
C714 C715 1.391 . S
C715 H703 0.950 . S
C715 C711 1.393 . S
C715 C714 1.391 . S
H716 C724 0.950 . S
H717 C729 0.950 . S
H718 C726 0.950 . S
H719 C728 0.950 . S
H720 C730 0.950 . S
H721 C732 0.950 . S
H722 C734 0.950 . S
H723 C735 0.950 . S
C724 H716 0.950 . S
C724 C725 1.386 . S
C724 C726 1.391 . S
C725 C724 1.386 . S
C725 C729 1.393 . S
C726 H718 0.950 . S
C726 C724 1.391 . S
C726 C727 1.400 . S
C727 C726 1.400 . S
C727 C728 1.398 . S
C727 C733 1.491 . S
C728 H719 0.950 . S
C728 C727 1.398 . S
C728 C729 1.391 . S
C729 H717 0.950 . S
C729 C725 1.393 . S
C729 C728 1.391 . S
C730 H720 0.950 . S
C730 C731 1.386 . S
C730 C732 1.391 . S
C731 C730 1.386 . S
C731 C735 1.393 . S
C732 H721 0.950 . S
C732 C730 1.391 . S
C732 C733 1.400 . S
C733 C727 1.491 . S
C733 C732 1.400 . S
C733 C734 1.398 . S
C734 H722 0.950 . S
C734 C733 1.398 . S
C734 C735 1.391 . S
C735 H723 0.950 . S
C735 C731 1.393 . S
C735 C734 1.391 . S
H736 C744 0.950 . S
H737 C749 0.950 . S
H738 C746 0.950 . S
H739 C748 0.950 . S
H740 C750 0.950 . S
H741 C752 0.950 . S
H742 C754 0.950 . S
H743 C755 0.950 . S
C744 H736 0.950 . S
C744 C745 1.386 . S
C744 C746 1.391 . S
C745 C744 1.386 . S
C745 C749 1.393 . S
C746 H738 0.950 . S
C746 C744 1.391 . S
C746 C747 1.400 . S
C747 C746 1.400 . S
C747 C748 1.398 . S
C747 C753 1.491 . S
C748 H739 0.950 . S
C748 C747 1.398 . S
C748 C749 1.391 . S
C749 H737 0.950 . S
C749 C745 1.393 . S
C749 C748 1.391 . S
C750 H740 0.950 . S
C750 C751 1.386 . S
C750 C752 1.391 . S
C751 C750 1.386 . S
C751 C755 1.393 . S
C752 H741 0.950 . S
C752 C750 1.391 . S
C752 C753 1.400 . S
C753 C747 1.491 . S
C753 C752 1.400 . S
C753 C754 1.398 . S
C754 H742 0.950 . S
C754 C753 1.398 . S
C754 C755 1.391 . S
C755 H743 0.950 . S
C755 C751 1.393 . S
C755 C754 1.391 . S
C285 C7 1.764 . S
C291 C237 1.767 . S
C305 C30 1.374 . S
C311 N255 1.331 . S
C325 C145 1.379 . S
C331 N48 1.301 . S
C345 C76 1.768 . S
C351 C168 1.761 . S
C365 N186 1.299 . S
C371 C99 1.382 . S
C385 C214 1.376 . S
C391 N117 1.329 . S
C405 N140 0.920 . S
C411 N2 0.993 . S
C425 N163 0.944 . S
C431 N25 0.977 . S
C445 C191 1.536 . S
C451 C53 1.517 . S
C465 N71 0.956 . S
C471 N209 0.970 . S
C485 N94 0.916 . S
C491 N232 0.987 . S
C505 C122 1.529 . S
C511 C260 1.513 . S
C525 N12 2.464 . S
C531 N81 2.474 . S
C545 N35 2.232 . S
C551 N104 2.243 . S
C565 C62 2.501 . S
C571 C131 2.506 1_554 S
C585 N219 2.235 . S
C591 N150 2.231 . S
C605 N242 2.471 . S
C611 N173 2.462 . S
C625 C269 2.503 1_556 S
C631 C200 2.497 . S
C645 C16 2.230 . S
C651 N196 2.232 . S
C665 C223 1.952 . S
C671 C39 1.953 . S
C685 N58 2.233 . S
C691 C246 2.230 . S
C705 N265 2.236 . S
C711 C85 2.227 . S
C725 C108 1.952 . S
C731 C154 1.952 . S
C745 N127 2.232 . S
C751 C177 2.227 . S
