# Generated by pormake.
# Topology snk, (6)-cn, num edge types: 1
# Building blocks:
#     Node 0, Type 0, BuildingBlock: PAMTOO_clean_sbu_0, # of connection points: 6
#     Node 1, Type 0, BuildingBlock: PAMTOO_clean_sbu_0, # of connection points: 6
#     Node 2, Type 0, BuildingBlock: PAMTOO_clean_sbu_0, # of connection points: 6
#     Node 3, Type 0, BuildingBlock: PAMTOO_clean_sbu_0, # of connection points: 6
#     Node 4, Type 0, BuildingBlock: PAMTOO_clean_sbu_0, # of connection points: 6
#     Node 5, Type 0, BuildingBlock: PAMTOO_clean_sbu_0, # of connection points: 6
#     Node 6, Type 0, BuildingBlock: PAMTOO_clean_sbu_0, # of connection points: 6
#     Node 7, Type 0, BuildingBlock: PAMTOO_clean_sbu_0, # of connection points: 6
#     Edge 8, Type (0, 0), BuildingBlock: MIFKUJ_clean_linker_0, # of connection points: 2
#     Edge 9, Type (0, 0), BuildingBlock: MIFKUJ_clean_linker_0, # of connection points: 2
#     Edge 10, Type (0, 0), BuildingBlock: MIFKUJ_clean_linker_0, # of connection points: 2
#     Edge 11, Type (0, 0), BuildingBlock: MIFKUJ_clean_linker_0, # of connection points: 2
#     Edge 12, Type (0, 0), BuildingBlock: MIFKUJ_clean_linker_0, # of connection points: 2
#     Edge 13, Type (0, 0), BuildingBlock: MIFKUJ_clean_linker_0, # of connection points: 2
#     Edge 14, Type (0, 0), BuildingBlock: MIFKUJ_clean_linker_0, # of connection points: 2
#     Edge 15, Type (0, 0), BuildingBlock: MIFKUJ_clean_linker_0, # of connection points: 2
#     Edge 16, Type (0, 0), BuildingBlock: MIFKUJ_clean_linker_0, # of connection points: 2
#     Edge 17, Type (0, 0), BuildingBlock: MIFKUJ_clean_linker_0, # of connection points: 2
#     Edge 18, Type (0, 0), BuildingBlock: MIFKUJ_clean_linker_0, # of connection points: 2
#     Edge 19, Type (0, 0), BuildingBlock: MIFKUJ_clean_linker_0, # of connection points: 2
#     Edge 20, Type (0, 0), BuildingBlock: MIFKUJ_clean_linker_0, # of connection points: 2
#     Edge 21, Type (0, 0), BuildingBlock: MIFKUJ_clean_linker_0, # of connection points: 2
#     Edge 22, Type (0, 0), BuildingBlock: MIFKUJ_clean_linker_0, # of connection points: 2
#     Edge 23, Type (0, 0), BuildingBlock: MIFKUJ_clean_linker_0, # of connection points: 2
#     Edge 24, Type (0, 0), BuildingBlock: MIFKUJ_clean_linker_0, # of connection points: 2
#     Edge 25, Type (0, 0), BuildingBlock: MIFKUJ_clean_linker_0, # of connection points: 2
#     Edge 26, Type (0, 0), BuildingBlock: MIFKUJ_clean_linker_0, # of connection points: 2
#     Edge 27, Type (0, 0), BuildingBlock: MIFKUJ_clean_linker_0, # of connection points: 2
#     Edge 28, Type (0, 0), BuildingBlock: MIFKUJ_clean_linker_0, # of connection points: 2
#     Edge 29, Type (0, 0), BuildingBlock: MIFKUJ_clean_linker_0, # of connection points: 2
#     Edge 30, Type (0, 0), BuildingBlock: MIFKUJ_clean_linker_0, # of connection points: 2
#     Edge 31, Type (0, 0), BuildingBlock: MIFKUJ_clean_linker_0, # of connection points: 2
# Relax obj value: 0.052
# Max RMSD: 0.129
# Mean RMSD: 0.097
data_MOF--net-snk--node1-PAMTOO_clean_sbu_0--edge1-MIFKUJ_clean_linker_0
_symmetry_space_group_name_H-M    P1
_symmetry_Int_Tables_number       1
_symmetry_cell_setting            triclinic
loop_
_symmetry_equiv_pos_as_xyz
'x, y, z'
_cell_length_a     50.71454
_cell_length_b     50.691745
_cell_length_c     30.375154
_cell_angle_alpha  90.001543
_cell_angle_beta   94.969525
_cell_angle_gamma 89.611429
loop_
_atom_site_label
_atom_site_type_symbol
_atom_site_fract_x
_atom_site_fract_y
_atom_site_fract_z
_atom_type_partial_charge
Dy0 Dy 0.00893 0.01238 0.5398 0.0
Dy1 Dy 0.99028 0.98841 0.43954 0.0
C2 C 0.03365 0.96121 0.50323 0.0
O3 O 0.02884 0.03844 0.4939 0.0
O4 O 0.02723 0.01181 0.43203 0.0
O5 O 0.03414 0.00878 0.60044 0.0
O6 O 0.00602 0.04104 0.59236 0.0
O7 O 0.97685 0.03008 0.44067 0.0
O8 O 0.97161 0.03298 0.51458 0.0
O9 O 0.95928 0.97497 0.48331 0.0
O10 O 0.9829 0.97825 0.55136 0.0
O11 O 0.96182 0.9838 0.38284 0.0
O12 O -3e-05 0.96389 0.38497 0.0
C13 C 0.03633 0.03259 0.45461 0.0
O14 O 0.03971 0.98485 0.518 0.0
O15 O 0.01116 0.95703 0.48008 0.0
C16 C 0.01593 0.02437 0.66529 0.0
C17 C 0.00648 0.01785 0.75517 0.0
C18 C 0.01088 0.99582 0.72853 0.0
C19 C 0.01546 -0.00098 0.68403 0.0
C20 C 0.01099 0.04633 0.69159 0.0
C21 C 0.0062 0.04312 0.73598 0.0
C22 C 0.02304 0.02848 0.61949 0.0
C23 C 0.96701 0.04188 0.47404 0.0
C24 C 0.96268 0.96927 0.52585 0.0
C25 C 0.98021 0.9757 0.31434 0.0
C26 C 0.98505 0.98599 0.22383 0.0
C27 C 0.97976 0.00664 0.25291 0.0
C28 C 0.97748 0.00157 0.29784 0.0
C29 C 0.98541 0.95513 0.28542 0.0
C30 C 0.98783 0.96019 0.24072 0.0
C31 C 0.97791 0.96941 0.36133 0.0
H32 H 0.01088 0.97607 0.74214 0.0
H33 H 0.01905 0.98165 0.66458 0.0
H34 H 0.01137 0.06607 0.678 0.0
H35 H 0.0031 0.06051 0.75566 0.0
H36 H 0.97774 0.02676 0.24105 0.0
H37 H 0.97365 0.01781 0.31962 0.0
H38 H 0.98755 0.93504 0.29744 0.0
H39 H 0.99152 0.94377 0.21923 0.0
Dy40 Dy 0.2508 0.74688 0.74785 0.0
Dy41 Dy 0.2189 0.74945 0.84064 0.0
C42 C 0.20088 0.78396 0.75666 0.0
O43 O 0.27838 0.7659 0.79873 0.0
O44 O 0.24708 0.78324 0.84115 0.0
O45 O 0.27148 0.76618 0.69763 0.0
O46 O 0.26453 0.72404 0.69399 0.0
O47 O 0.25697 0.72895 0.85901 0.0
O48 O 0.26555 0.71308 0.79063 0.0
O49 O 0.20411 0.71422 0.80159 0.0
O50 O 0.21125 0.7292 0.73233 0.0
O51 O 0.2024 0.7298 0.89485 0.0
O52 O 0.19988 0.77238 0.88947 0.0
C53 C 0.27118 0.7827 0.82833 0.0
O54 O 0.22534 0.78294 0.74569 0.0
O55 O 0.19256 0.76858 0.7873 0.0
C56 C 0.26654 0.74663 0.62599 0.0
C57 C 0.25554 0.74985 0.53301 0.0
C58 C 0.24144 0.76557 0.56136 0.0
C59 C 0.24681 0.76391 0.60743 0.0
C60 C 0.28054 0.73093 0.59785 0.0
C61 C 0.27512 0.73248 0.55196 0.0
C62 C 0.27324 0.74471 0.67429 0.0
C63 C 0.26932 0.71272 0.83404 0.0
C64 C 0.19942 0.71341 0.75837 0.0
C65 C 0.20352 0.75413 0.96199 0.0
C66 C 0.21464 0.75674 0.05501 0.0
C67 C 0.23006 0.74073 0.02915 0.0
C68 C 0.22463 0.7395 0.98314 0.0
C69 C 0.18845 0.77048 0.98758 0.0
C70 C 0.19398 0.77185 0.03352 0.0
C71 C 0.19612 0.75178 0.91386 0.0
H72 H 0.22604 0.77894 0.54797 0.0
H73 H 0.2356 0.77613 0.62848 0.0
H74 H 0.29588 0.71752 0.61142 0.0
H75 H 0.28664 0.72035 0.53128 0.0
H76 H 0.24635 0.72913 0.04452 0.0
H77 H 0.23674 0.72686 0.96422 0.0
H78 H 0.17205 0.78188 0.97206 0.0
H79 H 0.18156 0.7842 0.05236 0.0
Dy80 Dy 0.5035 0.00099 0.9993 0.0
Dy81 Dy 0.51376 0.97243 0.09848 0.0
C82 C 0.46755 0.95575 0.02968 0.0
O83 O 0.48788 0.03018 0.04555 0.0
O84 O 0.48179 0.00284 0.10461 0.0
O85 O 0.4796 0.00427 0.93728 0.0
O86 O 0.51462 0.02824 0.94895 0.0
O87 O 0.53597 0.0099 0.10092 0.0
O88 O 0.54433 0.0109 0.0282 0.0
O89 O 0.54299 0.95401 0.05558 0.0
O90 O 0.52105 0.96161 0.98714 0.0
O91 O 0.53989 0.96054 0.15515 0.0
O92 O 0.49815 0.95095 0.15189 0.0
C93 C 0.47751 0.02524 0.08292 0.0
O94 O 0.46705 0.98024 0.01591 0.0
O95 O 0.48785 0.94657 0.05468 0.0
C96 C 0.50229 0.01512 0.87484 0.0
C97 C 0.51097 0.00553 0.78533 0.0
C98 C 0.50832 0.98442 0.81476 0.0
C99 C 0.50414 0.98915 0.8591 0.0
C100 C 0.50544 0.03617 0.84589 0.0
C101 C 0.50978 0.03147 0.80167 0.0
C102 C 0.49552 0.02074 0.92029 0.0
C103 C 0.55038 0.01759 0.06961 0.0
C104 C 0.5392 0.94914 1.01284 0.0
C105 C 0.5203 0.95653 0.2231 0.0
C106 C 0.51899 0.96682 0.31453 0.0
C107 C 0.51998 0.98771 0.28406 0.0
C108 C 0.52056 0.98261 0.2387 0.0
C109 C 0.51939 0.93573 0.25329 0.0
C110 C 0.51876 0.94078 0.29844 0.0
C111 C 0.52082 0.95032 0.17572 0.0
H112 H 0.50944 0.9642 0.80352 0.0
H113 H 0.5019 0.97253 0.88086 0.0
H114 H 0.50395 0.05635 0.85726 0.0
H115 H 0.51136 0.04822 0.77997 0.0
H116 H 0.51993 0.00801 0.29519 0.0
H117 H 0.52113 -0.00103 0.21585 0.0
H118 H 0.51924 0.91546 0.2419 0.0
H119 H 0.51843 0.92419 0.32085 0.0
Dy120 Dy 0.24021 0.25015 0.2061 0.0
Dy121 Dy 0.27105 0.25173 0.30801 0.0
C122 C 0.29246 0.21646 0.23124 0.0
O123 O 0.2252 0.21558 0.2427 0.0
O124 O 0.23342 0.23003 0.31429 0.0
O125 O 0.22817 0.22796 0.14714 0.0
O126 O 0.21866 0.26959 0.15031 0.0
O127 O 0.24024 0.28352 0.30606 0.0
O128 O 0.21147 0.26976 0.24778 0.0
O129 O 0.29679 0.27408 0.26456 0.0
O130 O 0.26498 0.28645 0.20999 0.0
O131 O 0.28995 0.27336 0.3634 0.0
O132 O 0.28784 0.23075 0.36591 0.0
C133 C 0.22126 0.21424 0.28495 0.0
O134 O 0.28029 0.23226 0.20174 0.0
O135 O 0.28727 0.2172 0.27285 0.0
C136 C 0.22529 0.25191 0.07971 0.0
C137 C 0.23681 0.2563 0.99037 0.0
C138 C 0.25693 0.25005 0.02379 0.0
C139 C 0.25124 0.24795 0.06807 0.0
C140 C 0.20532 0.25848 0.04666 0.0
C141 C 0.21098 0.26068 1.00253 0.0
C142 C 0.2183 0.24853 0.12561 0.0
C143 C 0.21691 0.28416 0.28345 0.0
C144 C 0.28868 0.28908 0.23061 0.0
C145 C 0.28844 0.25348 0.43401 0.0
C146 C 0.27783 0.2545 0.52408 0.0
C147 C 0.25769 0.26024 0.49039 0.0
C148 C 0.26293 0.25966 0.44573 0.0
C149 C 0.30854 0.24796 0.4674 0.0
C150 C 0.30334 0.24846 0.51187 0.0
C151 C 0.29464 0.25224 0.38745 0.0
H152 H 0.27709 0.24685 0.01574 0.0
H153 H 0.26702 0.24299 0.09311 0.0
H154 H 0.18516 0.26154 0.0549 0.0
H155 H 0.19491 0.26516 0.97775 0.0
H156 H 0.23777 0.26475 0.49849 0.0
H157 H 0.24709 0.26388 0.42039 0.0
H158 H 0.32836 0.24319 0.45905 0.0
H159 H 0.31944 0.24438 0.53677 0.0
Dy160 Dy 0.76849 0.25968 0.21411 0.0
Dy161 Dy 0.73791 0.24816 0.30728 0.0
C162 C 0.70497 0.26571 0.21729 0.0
O163 O 0.77842 0.29281 0.2608 0.0
O164 O 0.74253 0.29157 0.30209 0.0
O165 O 0.77895 0.28648 0.16324 0.0
O166 O 0.79344 0.24614 0.16414 0.0
O167 O 0.78104 0.25207 0.32554 0.0
O168 O 0.79602 0.2368 0.26138 0.0
O169 O 0.7398 0.20982 0.27093 0.0
O170 O 0.74407 0.2242 0.19996 0.0
O171 O 0.73553 0.22324 0.36434 0.0
O172 O 0.71072 0.25818 0.35623 0.0
C173 C 0.76291 0.30385 0.28815 0.0
O174 O 0.72672 0.27295 0.20003 0.0
O175 O 0.70462 0.25328 0.25522 0.0
C176 C 0.78579 0.26685 0.0941 0.0
C177 C 0.77607 0.26514 1.00076 0.0
C178 C 0.75496 0.2673 0.02793 0.0
C179 C 0.75977 0.26812 0.07413 0.0
C180 C 0.80681 0.26439 0.06728 0.0
C181 C 0.80204 0.26351 0.02121 0.0
C182 C 0.79161 0.26844 0.14258 0.0
C183 C 0.79939 0.24076 0.30422 0.0
C184 C 0.73822 0.2059 0.22794 0.0
C185 C 0.72441 0.24473 0.42985 0.0
C186 C 0.73376 0.25186 0.52255 0.0
C187 C 0.75504 0.24961 0.49577 0.0
C188 C 0.75041 0.24611 0.44991 0.0
C189 C 0.70322 0.24777 0.45617 0.0
C190 C 0.7078 0.25137 0.50188 0.0
C191 C 0.71881 0.23874 0.38224 0.0
H192 H 0.73472 0.26883 0.0135 0.0
H193 H 0.74321 0.26996 0.09422 0.0
H194 H 0.82702 0.26323 0.082 0.0
H195 H 0.81877 0.26132 1.00163 0.0
H196 H 0.7753 0.24974 0.51032 0.0
H197 H 0.76714 0.24392 0.43032 0.0
H198 H 0.68301 0.24692 0.44141 0.0
H199 H 0.6909 0.25365 0.52104 0.0
Dy200 Dy 0.73493 0.75207 0.70212 0.0
Dy201 Dy 0.76945 0.75255 0.80267 0.0
C202 C 0.7878 0.71698 0.72216 0.0
O203 O 0.72051 0.71741 0.73913 0.0
O204 O 0.73168 0.73128 0.81034 0.0
O205 O 0.71843 0.731 0.64446 0.0
O206 O 0.7141 0.77346 0.64745 0.0
O207 O 0.74157 0.78682 0.79914 0.0
O208 O 0.70887 0.77184 0.74853 0.0
O209 O 0.79516 0.77415 0.75835 0.0
O210 O 0.7633 0.78573 0.70274 0.0
O211 O 0.78825 0.77375 0.85869 0.0
O212 O 0.78602 0.73114 0.86047 0.0
C213 C 0.71843 0.71569 0.78196 0.0
O214 O 0.7727 0.73091 0.69339 0.0
O215 O 0.78701 0.71961 0.76517 0.0
C216 C 0.71761 0.75444 0.57617 0.0
C217 C 0.72739 0.75644 0.48534 0.0
C218 C 0.74366 0.74122 0.51575 0.0
C219 C 0.73889 0.74029 0.5606 0.0
C220 C 0.70163 0.76994 0.5461 0.0
C221 C 0.70647 0.771 0.50133 0.0
C222 C 0.71097 0.75241 0.62284 0.0
C223 C 0.71685 0.78698 0.78224 0.0
C224 C 0.78727 0.78792 0.72275 0.0
C225 C 0.78499 0.75345 0.92911 0.0
C226 C 0.77287 0.75462 0.0188 0.0
C227 C 0.7578 0.76947 0.98622 0.0
C228 C 0.76372 0.76881 0.94183 0.0
C229 C 0.79997 0.73866 0.96146 0.0
C230 C 0.79401 0.73919 1.00564 0.0
C231 C 0.79222 0.75253 0.88276 0.0
H232 H 0.76019 0.73006 0.50491 0.0
H233 H 0.7517 0.72826 0.58298 0.0
H234 H 0.68504 0.78095 0.55713 0.0
H235 H 0.69335 0.78273 0.47901 0.0
H236 H 0.74125 0.7814 0.99493 0.0
H237 H 0.75169 0.78029 0.91752 0.0
H238 H 0.8165 0.72672 0.95256 0.0
H239 H 0.80634 0.72781 0.02968 0.0
Dy240 Dy 0.51699 0.50581 0.04997 0.0
Dy241 Dy 0.49778 0.48424 0.94889 0.0
C242 C 0.54046 0.45435 1.01165 0.0
O243 O 0.53687 0.53272 1.00501 0.0
O244 O 0.5347 0.50748 0.94161 0.0
O245 O 0.54077 0.49996 0.1116 0.0
O246 O 0.516 0.53478 0.10225 0.0
O247 O 0.4839 0.52555 0.95477 0.0
O248 O 0.47784 0.52405 0.02826 0.0
O249 O 0.46697 0.46981 0.99217 0.0
O250 O 0.49101 0.47139 0.06007 0.0
O251 O 0.46877 0.48191 0.89238 0.0
O252 O 0.50605 0.4606 0.89274 0.0
C253 C 0.544 0.52777 0.96515 0.0
O254 O 0.54701 0.47731 0.02891 0.0
O255 O 0.51862 0.4515 0.98601 0.0
C256 C 0.52279 0.51687 0.17535 0.0
C257 C 0.5093 0.51077 0.26323 0.0
C258 C 0.53136 0.49754 0.2486 0.0
C259 C 0.53808 0.50065 0.20529 0.0
C260 C 0.50054 0.52996 0.18975 0.0
C261 C 0.49389 0.52695 0.23329 0.0
C262 C 0.53114 0.52064 0.13021 0.0
C263 C 0.47242 0.53437 0.9889 0.0
C264 C 0.47062 0.46306 0.03422 0.0
C265 C 0.48656 0.47475 0.82268 0.0
C266 C 0.48876 0.48413 0.73117 0.0
C267 C 0.46967 0.49695 0.75469 0.0
C268 C 0.46852 0.49224 0.79995 0.0
C269 C 0.5059 0.46236 0.79928 0.0
C270 C 0.50707 0.46707 0.7542 0.0
C271 C 0.48426 0.46763 0.86955 0.0
H272 H 0.54392 0.4853 0.27101 0.0
H273 H 0.55553 0.49058 0.19537 0.0
H274 H 0.48839 0.5427 0.16759 0.0
H275 H 0.47669 0.53728 0.24353 0.0
H276 H 0.4551 0.51 0.73787 0.0
H277 H 0.45315 0.50188 0.81683 0.0
H278 H 0.51994 0.44859 0.81567 0.0
H279 H 0.52228 0.45718 0.73731 0.0
Dy280 Dy 0.99006 0.50981 0.44627 0.0
Dy281 Dy 0.00068 0.48147 0.54647 0.0
C282 C 0.95201 0.46684 0.47886 0.0
O283 O 0.96175 0.52936 0.48903 0.0
O284 O 0.9825 0.52081 0.55816 0.0
O285 O 0.96314 0.52232 0.39088 0.0
O286 O 0.00519 0.52988 0.39108 0.0
O287 O 0.03716 0.50116 0.5281 0.0
O288 O 0.01716 0.53517 0.48928 0.0
O289 O 0.01725 0.45241 0.5005 0.0
O290 O 0.02023 0.47824 0.43817 0.0
O291 O 0.02211 0.48225 0.61078 0.0
O292 O 0.99327 0.45155 0.5951 0.0
C293 C 0.96501 0.53383 0.53188 0.0
O294 O 0.96667 0.47301 0.44693 0.0
O295 O 0.95906 0.47334 0.52001 0.0
C296 C 0.981 0.5245 0.32136 0.0
C297 C 0.97955 0.51314 0.22987 0.0
C298 C 0.98861 0.4941 0.26162 0.0
C299 C 0.98929 0.49972 0.30697 0.0
C300 C 0.97187 0.54343 0.28995 0.0
C301 C 0.97115 0.53786 0.24476 0.0
C302 C 0.98207 0.53135 0.36868 0.0
C303 C 0.03696 0.52581 0.51535 0.0
C304 C 0.02564 0.45656 0.46121 0.0
C305 C 0.00086 0.46486 0.67052 0.0
C306 C 0.99108 0.47127 0.76032 0.0
C307 C 0.98458 0.49151 0.72936 0.0
C308 C 0.98948 0.48836 0.68487 0.0
C309 C 0.0063 0.4443 0.70083 0.0
C310 C 0.00143 0.44741 0.74517 0.0
C311 C 0.00958 0.46218 0.62557 0.0
H312 H 0.99496 0.47476 0.25145 0.0
H313 H 0.99636 0.4848 0.33076 0.0
H314 H 0.96548 0.56271 0.30041 0.0
H315 H 0.96446 0.55316 0.22146 0.0
H316 H 0.97667 0.51018 0.73978 0.0
H317 H 0.98517 0.50454 0.66201 0.0
H318 H 0.01506 0.42601 0.69045 0.0
H319 H 0.00616 0.4312 0.76775 0.0
H320 H 0.05427 0.03043 0.37169 0.0
H321 H 0.08494 0.06056 0.33969 0.0
H322 H 0.09254 0.10501 0.46115 0.0
H323 H 0.06165 0.07539 0.49304 0.0
H324 H 0.08704 0.13763 0.39346 0.0
H325 H 0.14136 0.06171 0.43196 0.0
H326 H 0.15378 0.01459 0.43208 0.0
H327 H 0.15587 0.01648 0.29109 0.0
H328 H 0.1431 0.06356 0.29007 0.0
H329 H 0.20346 0.20983 0.36715 0.0
H330 H 0.17162 0.17845 0.39197 0.0
H331 H 0.16362 0.14309 0.26245 0.0
H332 H 0.19565 0.17446 0.23718 0.0
H333 H 0.16814 0.10578 0.3293 0.0
H334 H 0.11608 0.18321 0.29266 0.0
H335 H 0.10511 0.23063 0.29468 0.0
H336 H 0.09987 0.22607 0.4348 0.0
H337 H 0.11123 0.17868 0.43374 0.0
C338 C 0.06253 0.04656 0.39169 0.0
C339 C 0.05548 0.05036 0.43508 0.0
C340 C 0.08016 0.06376 0.37335 0.0
C341 C 0.09131 0.08499 0.39809 0.0
C342 C 0.08422 0.08884 0.4413 0.0
C343 C 0.06657 0.07176 0.45958 0.0
C344 C 0.11022 0.10339 0.37913 0.0
C345 C 0.1049 0.13063 0.37987 0.0
C346 C 0.13327 0.09436 0.36037 0.0
C347 C 0.14098 0.06608 0.36089 0.0
C348 C 0.14426 0.05202 0.40094 0.0
C349 C 0.1514 0.02534 0.40118 0.0
C350 C 0.15553 0.01253 0.3616 0.0
C351 C 0.15261 0.02642 0.32171 0.0
C352 C 0.14543 0.0531 0.32129 0.0
C353 C 0.19502 0.19539 0.34382 0.0
C354 C 0.20212 0.19479 0.30004 0.0
C355 C 0.17669 0.17749 0.35809 0.0
C356 C 0.16499 0.15856 0.32898 0.0
C357 C 0.17234 0.15756 0.28547 0.0
C358 C 0.1906 0.17559 0.27104 0.0
C359 C 0.14506 0.13993 0.34416 0.0
C360 C 0.15018 0.1127 0.34266 0.0
C361 C 0.12191 0.14898 0.3625 0.0
C362 C 0.11474 0.17742 0.36317 0.0
C363 C 0.11278 0.19235 0.32396 0.0
C364 C 0.10646 0.21922 0.32493 0.0
C365 C 0.10186 0.23137 0.36486 0.0
C366 C 0.10347 0.21664 0.4039 0.0
C367 C 0.10983 0.18976 0.40313 0.0
H368 H 0.09699 0.25218 0.36555 0.0
H369 H 0.16107 0.99187 0.36186 0.0
H370 H 0.0865 0.96166 0.52786 0.0
H371 H 0.11323 0.92532 0.56143 0.0
H372 H 0.04529 0.87431 0.54727 0.0
H373 H 0.01858 0.91033 0.51266 0.0
H374 H 0.07077 0.88182 0.63621 0.0
H375 H 0.09017 0.85683 0.49126 0.0
H376 H 0.10415 0.86294 0.41622 0.0
H377 H 0.18094 0.8877 0.47071 0.0
H378 H 0.16731 0.88213 0.54613 0.0
H379 H 0.14749 0.77776 0.7428 0.0
H380 H 0.11677 0.80344 0.69294 0.0
H381 H 0.18081 0.85407 0.66211 0.0
H382 H 0.21171 0.82787 0.71051 0.0
H383 H 0.15308 0.84105 0.58968 0.0
H384 H 0.13271 0.87224 0.73306 0.0
H385 H 0.11922 0.86844 0.80885 0.0
H386 H 0.04499 0.83516 0.75853 0.0
H387 H 0.05822 0.8384 0.68245 0.0
C388 C 0.07746 0.94254 0.53108 0.0
C389 C 0.05055 0.93874 0.5179 0.0
C390 C 0.09272 0.92183 0.54996 0.0
C391 C 0.08113 0.89726 0.55648 0.0
C392 C 0.0545 0.89314 0.54204 0.0
C393 C 0.03936 0.91369 0.5223 0.0
C394 C 0.09606 0.87717 0.58333 0.0
C395 C 0.08849 0.87238 0.62586 0.0
C396 C 0.1194 0.86559 0.56977 0.0
C397 C 0.1276 0.8693 0.52442 0.0
C398 C 0.10994 0.86387 0.48729 0.0
C399 C 0.11783 0.86717 0.44466 0.0
C400 C 0.14338 0.87579 0.43871 0.0
C401 C 0.16113 0.88106 0.47538 0.0
C402 C 0.15334 0.87781 0.51808 0.0
C403 C 0.15489 0.7946 0.72581 0.0
C404 C 0.18189 0.80098 0.73058 0.0
C405 C 0.13736 0.80921 0.69731 0.0
C406 C 0.14649 0.83076 0.67405 0.0
C407 C 0.17339 0.83742 0.67956 0.0
C408 C 0.19097 0.82256 0.70739 0.0
C409 C 0.12828 0.84625 0.6433 0.0
C410 C 0.1352 0.85016 0.59999 0.0
C411 C 0.10449 0.85736 0.65634 0.0
C412 C 0.09662 0.8552 0.70212 0.0
C413 C 0.11363 0.86385 0.73819 0.0
C414 C 0.10601 0.86185 0.7812 0.0
C415 C 0.08131 0.85146 0.78852 0.0
C416 C 0.06415 0.84312 0.75283 0.0
C417 C 0.0717 0.84503 0.70976 0.0
H418 H 0.07544 0.84995 0.82184 0.0
H419 H 0.14945 0.87833 0.40569 0.0
H420 H 0.32459 0.77598 0.83772 0.0
H421 H 0.35745 0.80598 0.87367 0.0
H422 H 0.29537 0.8609 0.89958 0.0
H423 H 0.26223 0.83071 0.86466 0.0
H424 H 0.34714 0.8796 0.85655 0.0
H425 H 0.31225 0.8332 0.98071 0.0
H426 H 0.30083 0.79232 0.01859 0.0
H427 H 0.38142 0.76551 0.02021 0.0
H428 H 0.3932 0.80608 0.98168 0.0
H429 H 0.41748 0.96895 0.99719 0.0
H430 H 0.38324 0.9393 0.96503 0.0
H431 H 0.43584 0.87276 0.99141 0.0
H432 H 0.46972 0.90218 0.02527 0.0
H433 H 0.38877 0.85903 1.00672 0.0
H434 H 0.42639 0.9015 0.88797 0.0
H435 H 0.44166 0.93866 0.8446 0.0
H436 H 0.36207 0.96848 0.8247 0.0
H437 H 0.34637 0.93172 0.86862 0.0
C438 C 0.31797 0.79451 0.85088 0.0
C439 C 0.29093 0.80109 0.84855 0.0
C440 C 0.3367 0.81152 0.87138 0.0
C441 C 0.32864 0.83546 0.88907 0.0
C442 C 0.30177 0.84241 0.88594 0.0
C443 C 0.28295 0.82516 0.86626 0.0
C444 C 0.34833 0.85297 0.91182 0.0
C445 C 0.35602 0.87547 0.88965 0.0
C446 C 0.36052 0.84666 0.95405 0.0
C447 C 0.35353 0.82254 0.97795 0.0
C448 C 0.32747 0.81848 0.98881 0.0
C449 C 0.32095 0.79539 1.01047 0.0
C450 C 0.34037 0.7763 0.02171 0.0
C451 C 0.36639 0.7803 1.01145 0.0
C452 C 0.373 0.80335 0.98975 0.0
C453 C 0.42161 0.94797 0.99646 0.0
C454 C 0.44623 0.93783 0.01344 0.0
C455 C 0.40212 0.93108 0.97791 0.0
C456 C 0.40722 0.9039 0.97499 0.0
C457 C 0.43152 0.89367 0.99325 0.0
C458 C 0.45084 0.9105 1.01254 0.0
C459 C 0.38747 0.88625 0.9519 0.0
C460 C 0.37986 0.86349 0.97377 0.0
C461 C 0.37593 0.89193 0.90874 0.0
C462 C 0.38524 0.91399 0.882 0.0
C463 C 0.41216 0.91609 0.87464 0.0
C464 C 0.4209 0.93707 0.84992 0.0
C465 C 0.40286 0.95595 0.832 0.0
C466 C 0.37603 0.95385 0.83867 0.0
C467 C 0.3672 0.93294 0.86346 0.0
H468 H 0.40966 0.97217 0.81287 0.0
H469 H 0.33529 0.75843 0.03845 0.0
H470 H 0.45751 0.06993 0.04154 0.0
H471 H 0.42734 0.10243 0.06899 0.0
H472 H 0.42713 0.05931 0.1914 0.0
H473 H 0.4569 0.0262 0.16365 0.0
H474 H 0.37861 0.07402 0.16448 0.0
H475 H 0.46188 0.11798 0.1832 0.0
H476 H 0.50417 0.13476 0.16049 0.0
H477 H 0.46217 0.18448 0.06335 0.0
H478 H 0.4196 0.1677 0.085 0.0
H479 H 0.31736 0.17665 0.2801 0.0
H480 H 0.34971 0.14476 0.25669 0.0
H481 H 0.34536 0.18088 0.12773 0.0
H482 H 0.31298 0.21292 0.15081 0.0
H483 H 0.39693 0.16998 0.16062 0.0
H484 H 0.31372 0.12452 0.14149 0.0
H485 H 0.27174 0.10752 0.1651 0.0
H486 H 0.31458 0.06065 0.26543 0.0
H487 H 0.35684 0.07768 0.24281 0.0
C488 C 0.45122 0.06736 0.07443 0.0
C489 C 0.45977 0.04543 0.10042 0.0
C490 C 0.43399 0.08608 0.09018 0.0
C491 C 0.42521 0.08361 0.13259 0.0
C492 C 0.43365 0.06171 0.15861 0.0
C493 C 0.45074 0.04281 0.14272 0.0
C494 C 0.40677 0.10358 0.14924 0.0
C495 C 0.38287 0.09496 0.16431 0.0
C496 C 0.41198 0.13101 0.14824 0.0
C497 C 0.43754 0.14139 0.13548 0.0
C498 C 0.46165 0.13236 0.15679 0.0
C499 C 0.48568 0.14189 0.14413 0.0
C500 C 0.48586 0.16062 0.11042 0.0
C501 C 0.462 0.16994 0.08942 0.0
C502 C 0.43792 0.16045 0.1019 0.0
C503 C 0.32328 0.17789 0.24676 0.0
C504 C 0.31245 0.19733 0.2173 0.0
C505 C 0.34174 0.15956 0.2334 0.0
C506 C 0.3498 0.16028 0.19034 0.0
C507 C 0.33941 0.17994 0.16109 0.0
C508 C 0.32081 0.19818 0.17432 0.0
C509 C 0.36886 0.14036 0.17566 0.0
C510 C 0.39283 0.14901 0.16097 0.0
C511 C 0.36381 0.11295 0.17726 0.0
C512 C 0.33843 0.10259 0.19075 0.0
C513 C 0.31419 0.11076 0.16882 0.0
C514 C 0.29034 0.10109 0.18198 0.0
C515 C 0.29049 0.08308 0.21682 0.0
C516 C 0.3145 0.07464 0.23849 0.0
C517 C 0.3384 0.08427 0.22549 0.0
H518 H 0.27201 0.07561 0.22696 0.0
H519 H 0.50448 0.16795 0.10064 0.0
H520 H 0.96458 0.95246 0.61169 0.0
H521 H 0.93514 0.92184 0.64469 0.0
H522 H 0.8889 0.9141 0.51947 0.0
H523 H 0.91829 0.94507 0.48593 0.0
H524 H 0.85767 0.91956 0.5883 0.0
H525 H 0.93263 0.86627 0.55636 0.0
H526 H 0.98024 0.8555 0.55902 0.0
H527 H 0.98432 0.85134 0.70063 0.0
H528 H 0.9368 0.86253 0.69888 0.0
H529 H 0.78302 0.80904 0.63978 0.0
H530 H 0.81309 0.83913 0.6072 0.0
H531 H 0.86376 0.83928 0.72884 0.0
H532 H 0.83402 0.80819 0.76134 0.0
H533 H 0.89325 0.83802 0.66259 0.0
H534 H 0.82019 0.89198 0.69693 0.0
H535 H 0.77332 0.90515 0.69744 0.0
H536 H 0.76634 0.91027 0.5558 0.0
H537 H 0.8131 0.8968 0.5544 0.0
C538 C 0.94815 0.94436 0.59095 0.0
C539 C 0.94394 0.95124 0.54592 0.0
C540 C 0.93137 0.92669 0.60997 0.0
C541 C 0.91 0.91531 0.58449 0.0
C542 C 0.90534 0.92253 0.53977 0.0
C543 C 0.92219 0.94023 0.52062 0.0
C544 C 0.89255 0.89596 0.60467 0.0
C545 C 0.86538 0.90153 0.60394 0.0
C546 C 0.90273 0.87283 0.62645 0.0
C547 C 0.93118 0.86547 0.6275 0.0
C548 C 0.9437 0.86321 0.58809 0.0
C549 C 0.97067 0.85702 0.58943 0.0
C550 C 0.9853 0.8528 0.62997 0.0
C551 C 0.97296 0.85464 0.66925 0.0
C552 C 0.946 0.86089 0.6681 0.0
C553 C 0.80049 0.8155 0.65983 0.0
C554 C 0.8059 0.80637 0.70347 0.0
C555 C 0.81769 0.83286 0.64109 0.0
C556 C 0.84051 0.84208 0.66573 0.0
C557 C 0.84626 0.83263 0.7091 0.0
C558 C 0.82918 0.8149 0.72774 0.0
C559 C 0.85821 0.86152 0.64605 0.0
C560 C 0.88547 0.85601 0.64692 0.0
C561 C 0.84819 0.88491 0.62483 0.0
C562 C 0.82009 0.89315 0.62555 0.0
C563 C 0.80861 0.89574 0.66587 0.0
C564 C 0.78207 0.90329 0.66633 0.0
C565 C 0.76685 0.90848 0.62668 0.0
C566 C 0.77815 0.90621 0.58649 0.0
C567 C 0.80468 0.89865 0.58584 0.0
H568 H 0.7463 0.91432 0.6271 0.0
H569 H 0.0062 0.84806 0.63095 0.0
H570 H 0.94584 0.07435 0.53442 0.0
H571 H 0.92275 0.11649 0.51956 0.0
H572 H 0.93166 0.10749 0.38037 0.0
H573 H 0.95473 0.06579 0.39469 0.0
H574 H 0.94357 0.15751 0.40955 0.0
H575 H 0.87437 0.09188 0.42242 0.0
H576 H 0.85109 0.05795 0.46222 0.0
H577 H 0.83809 0.11372 0.56468 0.0
H578 H 0.8616 0.14789 0.52568 0.0
H579 H 0.84081 0.21389 0.27319 0.0
H580 H 0.87552 0.1896 0.31674 0.0
H581 H 0.84622 0.21864 0.43699 0.0
H582 H 0.81111 0.24268 0.39369 0.0
H583 H 0.84892 0.16649 0.4369 0.0
H584 H 0.90816 0.23512 0.41193 0.0
H585 H 0.93032 0.2689 0.3702 0.0
H586 H 0.96184 0.20863 0.28999 0.0
H587 H 0.93955 0.17448 0.33074 0.0
C588 C 0.94279 0.08134 0.50065 0.0
C589 C 0.95201 0.06667 0.46571 0.0
C590 C 0.92971 0.10542 0.49229 0.0
C591 C 0.92563 0.11506 0.44891 0.0
C592 C 0.93486 0.10048 0.41413 0.0
C593 C 0.94786 0.07651 0.42239 0.0
C594 C 0.91076 0.13975 0.43866 0.0
C595 C 0.92288 0.15963 0.41554 0.0
C596 C 0.88412 0.14282 0.44812 0.0
C597 C 0.87004 0.12229 0.4715 0.0
C598 C 0.86674 0.09682 0.45364 0.0
C599 C 0.85347 0.07757 0.476 0.0
C600 C 0.84321 0.08365 0.51604 0.0
C601 C 0.84612 0.10902 0.53373 0.0
C602 C 0.85941 0.12833 0.51152 0.0
C603 C 0.84206 0.21559 0.30886 0.0
C604 C 0.823 0.22992 0.32996 0.0
C605 C 0.86207 0.20186 0.33375 0.0
C606 C 0.8635 0.20242 0.38012 0.0
C607 C 0.84545 0.21798 0.40125 0.0
C608 C 0.82539 0.23168 0.37638 0.0
C609 C 0.88135 0.18382 0.40582 0.0
C610 C 0.86983 0.16501 0.43201 0.0
C611 C 0.90851 0.18176 0.39906 0.0
C612 C 0.92208 0.20221 0.37439 0.0
C613 C 0.91967 0.22906 0.38521 0.0
C614 C 0.93228 0.24828 0.36174 0.0
C615 C 0.94746 0.24092 0.32745 0.0
C616 C 0.95009 0.21431 0.31659 0.0
C617 C 0.93751 0.19499 0.33993 0.0
H618 H 0.95721 0.25584 0.30932 0.0
H619 H 0.83293 0.06873 0.5333 0.0
H620 H 0.71414 0.16686 0.27179 0.0
H621 H 0.68951 0.12953 0.23892 0.0
H622 H 0.71235 0.15114 0.11025 0.0
H623 H 0.73671 0.18872 0.14264 0.0
H624 H 0.66023 0.14678 0.10967 0.0
H625 H 0.73481 0.09367 0.15983 0.0
H626 H 0.77024 0.07655 0.21313 0.0
H627 H 0.71216 0.04713 0.29513 0.0
H628 H 0.67636 0.0644 0.24265 0.0
H629 H 0.58398 0.04014 0.01459 0.0
H630 H 0.62263 0.0675 0.03596 0.0
H631 H 0.60872 0.05857 0.17327 0.0
H632 H 0.57042 0.03118 0.1525 0.0
H633 H 0.66113 0.05378 0.16062 0.0
H634 H 0.58804 0.11312 0.11894 0.0
H635 H 0.55167 0.13151 0.06874 0.0
H636 H 0.60668 0.15002 0.97361 0.0
H637 H 0.64334 0.13146 0.02313 0.0
C638 C 0.71442 0.16336 0.23665 0.0
C639 C 0.72712 0.18093 0.20977 0.0
C640 C 0.70043 0.14193 0.21793 0.0
C641 C 0.69917 0.13756 0.17214 0.0
C642 C 0.71305 0.15422 0.14563 0.0
C643 C 0.72694 0.1757 0.16425 0.0
C644 C 0.68094 0.11759 0.15147 0.0
C645 C 0.66085 0.12627 0.12001 0.0
C646 C 0.6814 0.09103 0.16578 0.0
C647 C 0.70288 0.08049 0.19738 0.0
C648 C 0.72958 0.08372 0.18938 0.0
C649 C 0.74973 0.07396 0.21943 0.0
C650 C 0.74345 0.0608 0.25753 0.0
C651 C 0.71699 0.05733 0.26561 0.0
C652 C 0.69676 0.06707 0.23568 0.0
C653 C 0.58924 0.04392 0.04933 0.0
C654 C 0.57403 0.03367 0.08182 0.0
C655 C 0.6113 0.05952 0.06145 0.0
C656 C 0.61839 0.06509 0.10616 0.0
C657 C 0.60361 0.05438 0.13861 0.0
C658 C 0.5816 0.03889 0.12659 0.0
C659 C 0.64036 0.08316 0.11949 0.0
C660 C 0.661 0.07414 0.14961 0.0
C661 C 0.64036 0.1095 0.10427 0.0
C662 C 0.61835 0.1206 0.07445 0.0
C663 C 0.59233 0.1209 0.08715 0.0
C664 C 0.57168 0.1314 0.05886 0.0
C665 C 0.57685 0.14183 0.01793 0.0
C666 C 0.6027 0.14187 1.00527 0.0
C667 C 0.62342 0.13138 0.03344 0.0
H668 H 0.56084 0.14995 0.99608 0.0
H669 H 0.75909 0.05326 0.28076 0.0
H670 H 0.72631 0.81779 0.85565 0.0
H671 H 0.69451 0.84283 0.89474 0.0
H672 H 0.63159 0.81857 0.79903 0.0
H673 H 0.66346 0.79337 0.75921 0.0
H674 H 0.62861 0.87113 0.81851 0.0
H675 H 0.63925 0.79023 0.89931 0.0
H676 H 0.66359 0.75437 0.94029 0.0
H677 H 0.69425 0.80962 0.03858 0.0
H678 H 0.67046 0.84593 0.99781 0.0
H679 H 0.52642 0.92057 0.93835 0.0
H680 H 0.55477 0.89073 0.90035 0.0
H681 H 0.61878 0.90448 1.0007 0.0
H682 H 0.58988 0.93348 0.04013 0.0
H683 H 0.61977 0.85537 0.97777 0.0
H684 H 0.61352 0.93655 0.89428 0.0
H685 H 0.59053 0.9732 0.85314 0.0
H686 H 0.55262 0.91816 0.76118 0.0
H687 H 0.57546 0.88117 0.80166 0.0
C688 C 0.70575 0.81781 0.84257 0.0
C689 C 0.69749 0.8035 0.80412 0.0
C690 C 0.68754 0.83204 0.86526 0.0
C691 C 0.6606 0.83228 0.85024 0.0
C692 C 0.65229 0.81855 0.81134 0.0
C693 C 0.67054 0.80418 0.78859 0.0
C694 C 0.64129 0.84717 0.87502 0.0
C695 C 0.62636 0.86741 0.85316 0.0
C696 C 0.63885 0.84274 0.92057 0.0
C697 C 0.65321 0.82089 0.94522 0.0
C698 C 0.65134 0.7948 0.92946 0.0
C699 C 0.665 0.77437 0.95271 0.0
C700 C 0.68044 0.77972 0.99201 0.0
C701 C 0.68226 0.80551 1.00814 0.0
C702 C 0.66868 0.82602 0.98497 0.0
C703 C 0.54649 0.9171 0.95252 0.0
C704 C 0.55601 0.92955 0.99207 0.0
C705 C 0.56277 0.90015 0.93056 0.0
C706 C 0.58923 0.89586 0.94685 0.0
C707 C 0.59851 0.90757 0.98722 0.0
C708 C 0.582 0.92414 1.00977 0.0
C709 C 0.60727 0.87958 0.9214 0.0
C710 C 0.62196 0.85906 0.94311 0.0
C711 C 0.60968 0.88387 0.87576 0.0
C712 C 0.59609 0.9061 0.85116 0.0
C713 C 0.60024 0.93227 0.86534 0.0
C714 C 0.58729 0.9531 0.84206 0.0
C715 C 0.57024 0.94801 0.80443 0.0
C716 C 0.566 0.92208 0.79011 0.0
C717 C 0.57899 0.90118 0.81314 0.0
H718 H 0.56035 0.96416 0.78633 0.0
H719 H 0.69099 0.76389 1.00998 0.0
H720 H 0.55704 0.53006 0.87933 0.0
H721 H 0.58609 0.56156 0.84694 0.0
H722 H 0.60241 0.59859 0.97417 0.0
H723 H 0.57281 0.56765 1.00651 0.0
H724 H 0.59471 0.63513 0.91451 0.0
H725 H 0.64795 0.55668 0.92685 0.0
H726 H 0.65861 0.50969 0.91632 0.0
H727 H 0.64934 0.52008 0.77552 0.0
H728 H 0.63828 0.56709 0.78522 0.0
H729 H 0.70745 0.70827 0.86775 0.0
H730 H 0.67779 0.67619 0.89662 0.0
H731 H 0.65806 0.64637 0.76502 0.0
H732 H 0.68809 0.67836 0.73566 0.0
H733 H 0.66689 0.60643 0.82473 0.0
H734 H 0.61505 0.68641 0.81484 0.0
H735 H 0.60644 0.73356 0.82813 0.0
H736 H 0.61542 0.72023 0.96822 0.0
H737 H 0.62441 0.67303 0.95579 0.0
C738 C 0.56692 0.54479 0.90054 0.0
C739 C 0.5626 0.54618 0.94565 0.0
C740 C 0.58364 0.5628 0.88195 0.0
C741 C 0.59681 0.58237 0.90812 0.0
C742 C 0.59253 0.58375 0.95316 0.0
C743 C 0.57563 0.56593 0.97168 0.0
C744 C 0.61471 0.60165 0.88856 0.0
C745 C 0.61068 0.62877 0.89535 0.0
C746 C 0.63531 0.59357 0.86272 0.0
C747 C 0.64201 0.56534 0.85677 0.0
C748 C 0.64798 0.5489 0.89364 0.0
C749 C 0.65413 0.52227 0.88783 0.0
C750 C 0.65458 0.51189 0.84528 0.0
C751 C 0.64895 0.52814 0.80846 0.0
C752 C 0.64276 0.55478 0.81409 0.0
C753 C 0.69684 0.69495 0.84474 0.0
C754 C 0.70017 0.69604 0.79922 0.0
C755 C 0.67975 0.67663 0.86139 0.0
C756 C 0.66538 0.65902 0.83299 0.0
C757 C 0.66886 0.65979 0.7876 0.0
C758 C 0.68599 0.67817 0.77084 0.0
C759 C 0.64689 0.63978 0.85086 0.0
C760 C 0.65083 0.61272 0.84376 0.0
C761 C 0.62639 0.64789 0.87682 0.0
C762 C 0.62058 0.6762 0.88437 0.0
C763 C 0.61532 0.69355 0.84848 0.0
C764 C 0.61035 0.72028 0.85586 0.0
C765 C 0.61038 0.72987 0.89899 0.0
C766 C 0.61536 0.71275 0.93483 0.0
C767 C 0.62037 0.686 0.92764 0.0
H768 H 0.6065 0.75056 0.90463 0.0
H769 H 0.65934 0.49127 0.84084 0.0
H770 H 0.66442 0.29231 0.24937 0.0
H771 H 0.62853 0.31485 0.20554 0.0
H772 H 0.653 0.27804 0.08715 0.0
H773 H 0.69018 0.25716 0.13095 0.0
H774 H 0.65108 0.32567 0.07311 0.0
H775 H 0.58841 0.26919 0.12755 0.0
H776 H 0.56571 0.24285 0.18087 0.0
H777 H 0.54597 0.31348 0.24915 0.0
H778 H 0.56888 0.34025 0.19668 0.0
H779 H 0.54389 0.40798 0.96724 0.0
H780 H 0.56599 0.3672 0.99469 0.0
H781 H 0.59174 0.40627 0.11684 0.0
H782 H 0.57044 0.44723 0.08932 0.0
H783 H 0.56184 0.35031 0.11509 0.0
H784 H 0.63637 0.40248 0.06518 0.0
H785 H 0.65735 0.42669 1.00717 0.0
H786 H 0.65077 0.35846 0.92323 0.0
H787 H 0.62937 0.33399 0.98062 0.0
C788 C 0.66153 0.28847 0.21419 0.0
C789 C 0.6799 0.27332 0.19321 0.0
C790 C 0.64088 0.30117 0.18908 0.0
C791 C 0.63788 0.29812 0.14285 0.0
C792 C 0.65497 0.28088 0.12263 0.0
C793 C 0.67611 0.2689 0.14757 0.0
C794 C 0.62025 0.3163 0.11549 0.0
C795 C 0.63126 0.33035 0.08167 0.0
C796 C 0.59436 0.32272 0.12635 0.0
C797 C 0.58049 0.30675 0.15817 0.0
C798 C 0.57939 0.27912 0.1541 0.0
C799 C 0.56645 0.2641 0.18416 0.0
C800 C 0.55443 0.27648 0.21839 0.0
C801 C 0.55528 0.30392 0.22259 0.0
C802 C 0.56819 0.31903 0.19262 0.0
C803 C 0.55453 0.40789 0.99974 0.0
C804 C 0.5557 0.43071 0.0261 0.0
C805 C 0.56693 0.38464 0.01536 0.0
C806 C 0.58012 0.3839 0.05778 0.0
C807 C 0.58141 0.40663 0.08408 0.0
C808 C 0.56954 0.43001 0.06815 0.0
C809 C 0.5933 0.35963 0.0747 0.0
C810 C 0.58137 0.34469 0.10621 0.0
C811 C 0.61802 0.35188 0.0611 0.0
C812 C 0.63096 0.36657 0.02684 0.0
C813 C 0.63913 0.39276 0.03416 0.0
C814 C 0.65116 0.4065 1.00146 0.0
C815 C 0.6553 0.39415 0.96146 0.0
C816 C 0.64749 0.36802 0.95417 0.0
C817 C 0.63542 0.35421 0.98676 0.0
H818 H 0.66462 0.40482 0.93619 0.0
H819 H 0.54442 0.26482 0.24164 0.0
H820 H 0.93143 0.45195 0.3971 0.0
H821 H 0.88858 0.43235 0.37676 0.0
H822 H 0.8712 0.43273 0.51329 0.0
H823 H 0.91457 0.45243 0.53436 0.0
H824 H 0.85914 0.38545 0.47127 0.0
H825 H 0.8382 0.47522 0.44639 0.0
H826 H 0.84456 0.52083 0.42151 0.0
H827 H 0.84215 0.49444 0.28692 0.0
H828 H 0.8362 0.4486 0.31099 0.0
H829 H 0.74612 0.32525 0.36354 0.0
H830 H 0.76628 0.36204 0.40582 0.0
H831 H 0.81794 0.37607 0.30284 0.0
H832 H 0.79804 0.33932 0.26036 0.0
H833 H 0.8011 0.42314 0.3465 0.0
H834 H 0.84056 0.33459 0.37975 0.0
H835 H 0.83508 0.2882 0.4014 0.0
H836 H 0.8013 0.3133 0.51948 0.0
H837 H 0.80662 0.35995 0.49832 0.0
C838 C 0.91861 0.44793 0.42298 0.0
C839 C 0.9264 0.45383 0.46737 0.0
C840 C 0.89399 0.43691 0.4112 0.0
C841 C 0.87653 0.43168 0.44342 0.0
C842 C 0.88434 0.43696 0.48795 0.0
C843 C 0.90911 0.44811 0.49987 0.0
C844 C 0.85074 0.41951 0.42975 0.0
C845 C 0.84588 0.39408 0.44513 0.0
C846 C 0.83353 0.43077 0.39552 0.0
C847 C 0.83676 0.4584 0.38058 0.0
C848 C 0.83914 0.4791 0.4115 0.0
C849 C 0.84267 0.50502 0.39753 0.0
C850 C 0.84375 0.51053 0.35266 0.0
C851 C 0.84126 0.49015 0.32166 0.0
C852 C 0.83775 0.46419 0.33545 0.0
C853 C 0.76124 0.33664 0.34925 0.0
C854 C 0.77087 0.32914 0.30896 0.0
C855 C 0.77267 0.35765 0.37347 0.0
C856 C 0.79367 0.3715 0.35751 0.0
C857 C 0.80166 0.36559 0.31555 0.0
C858 C 0.79044 0.34446 0.29151 0.0
C859 C 0.81042 0.3889 0.38679 0.0
C860 C 0.81361 0.41516 0.37417 0.0
C861 C 0.82603 0.37852 0.42368 0.0
C862 C 0.82384 0.35064 0.4374 0.0
C863 C 0.83199 0.33018 0.41034 0.0
C864 C 0.82889 0.30386 0.42249 0.0
C865 C 0.81775 0.29778 0.46173 0.0
C866 C 0.8099 0.31804 0.48908 0.0
C867 C 0.81302 0.34442 0.47709 0.0
H868 H 0.81526 0.27738 0.47098 0.0
H869 H 0.84651 0.53061 0.34192 0.0
H870 H 0.83338 0.69618 0.76431 0.0
H871 H 0.86512 0.66622 0.73328 0.0
H872 H 0.81539 0.66358 0.61066 0.0
H873 H 0.78441 0.69425 0.64067 0.0
H874 H 0.86363 0.61804 0.70422 0.0
H875 H 0.84991 0.65544 0.52329 0.0
H876 H 0.83816 0.69656 0.48254 0.0
H877 H 0.86696 0.74223 0.59548 0.0
H878 H 0.87922 0.70141 0.6367 0.0
H879 H 0.91903 0.55638 0.49506 0.0
H880 H 0.89026 0.5878 0.52931 0.0
H881 H 0.94452 0.58883 0.64683 0.0
H882 H 0.97286 0.55675 0.61345 0.0
H883 H 0.89612 0.63635 0.5579 0.0
H884 H 0.91223 0.5994 0.73735 0.0
H885 H 0.92503 0.55839 0.77781 0.0
H886 H 0.89226 0.51234 0.66796 0.0
H887 H 0.87901 0.55303 0.62708 0.0
C888 C 0.82928 0.68921 0.73072 0.0
C889 C 0.80655 0.69785 0.70479 0.0
C890 C 0.84741 0.67206 0.71301 0.0
C891 C 0.84303 0.66303 0.66921 0.0
C892 C 0.81976 0.67086 0.644 0.0
C893 C 0.80194 0.68833 0.66134 0.0
C894 C 0.86262 0.6454 0.64977 0.0
C895 C 0.87103 0.62229 0.67254 0.0
C896 C 0.87202 0.65059 0.608 0.0
C897 C 0.86527 0.67533 0.5832 0.0
C898 C 0.85388 0.67426 0.53935 0.0
C899 C 0.8471 0.69751 0.51618 0.0
C900 C 0.85174 0.72198 0.53645 0.0
C901 C 0.8633 0.72325 0.57986 0.0
C902 C 0.87014 0.70006 0.60316 0.0
C903 C 0.92486 0.56332 0.52818 0.0
C904 C 0.94815 0.55388 0.55161 0.0
C905 C 0.9084 0.58132 0.54773 0.0
C906 C 0.91493 0.59041 0.59099 0.0
C907 C 0.93865 0.58166 0.61388 0.0
C908 C 0.95492 0.56338 0.59461 0.0
C909 C 0.89684 0.60889 0.61209 0.0
C910 C 0.88876 0.63218 0.58965 0.0
C911 C 0.88783 0.60391 0.65418 0.0
C912 C 0.89485 0.57928 0.67904 0.0
C913 C 0.90761 0.58052 0.72196 0.0
C914 C 0.91499 0.55733 0.74493 0.0
C915 C 0.90953 0.53279 0.7254 0.0
C916 C 0.89655 0.53137 0.68298 0.0
C917 C 0.88912 0.55448 0.6599 0.0
H918 H 0.91531 0.51487 0.74315 0.0
H919 H 0.84643 0.73996 0.51848 0.0
H920 H 0.27801 0.32423 0.1629 0.0
H921 H 0.30846 0.35439 0.13114 0.0
H922 H 0.37144 0.32835 0.22596 0.0
H923 H 0.34091 0.29822 0.25856 0.0
H924 H 0.37243 0.38165 0.2142 0.0
H925 H 0.36651 0.30498 0.12053 0.0
H926 H 0.3427 0.27121 0.07446 0.0
H927 H 0.30964 0.33141 0.98638 0.0
H928 H 0.33293 0.3656 0.03233 0.0
H929 H 0.4793 0.4327 0.10817 0.0
H930 H 0.44841 0.40362 0.14116 0.0
H931 H 0.38771 0.42408 0.0382 0.0
H932 H 0.4191 0.45249 1.00381 0.0
H933 H 0.38501 0.37392 0.05449 0.0
H934 H 0.39056 0.45073 0.14719 0.0
H935 H 0.41374 0.48493 0.19321 0.0
H936 H 0.44651 0.42547 0.283 0.0
H937 H 0.42381 0.39086 0.23718 0.0
C938 C 0.29829 0.32494 0.1773 0.0
C939 C 0.30699 0.30859 0.21322 0.0
C940 C 0.31573 0.34219 0.15891 0.0
C941 C 0.34239 0.34338 0.17563 0.0
C942 C 0.35099 0.32772 0.21236 0.0
C943 C 0.3335 0.31045 0.23092 0.0
C944 C 0.36133 0.36049 0.15407 0.0
C945 C 0.37543 0.37976 0.17941 0.0
C946 C 0.36481 0.35849 0.10838 0.0
C947 C 0.3513 0.33788 0.0801 0.0
C948 C 0.35406 0.31104 0.09147 0.0
C949 C 0.34065 0.29181 0.06537 0.0
C950 C 0.32461 0.29916 0.02758 0.0
C951 C 0.32205 0.32575 0.0157 0.0
C952 C 0.33536 0.34506 0.04173 0.0
C953 C 0.45936 0.43108 0.09248 0.0
C954 C 0.45161 0.44514 0.05351 0.0
C955 C 0.44162 0.41449 0.11158 0.0
C956 C 0.41542 0.41205 0.09293 0.0
C957 C 0.40774 0.42569 0.05347 0.0
C958 C 0.42569 0.44198 0.03384 0.0
C959 C 0.39617 0.39521 0.11456 0.0
C960 C 0.382 0.37594 0.08926 0.0
C961 C 0.39253 0.39732 0.16026 0.0
C962 C 0.40564 0.41817 0.18852 0.0
C963 C 0.40279 0.44493 0.17665 0.0
C964 C 0.41585 0.46439 0.2027 0.0
C965 C 0.43165 0.45737 0.24094 0.0
C966 C 0.43429 0.43088 0.25334 0.0
C967 C 0.4213 0.41133 0.22737 0.0
H968 H 0.44181 0.47246 0.26099 0.0
H969 H 0.31422 0.28426 1.00744 0.0
H970 H 0.46236 0.56456 0.91545 0.0
H971 H 0.42825 0.5982 0.90188 0.0
H972 H 0.40359 0.58651 0.03287 0.0
H973 H 0.43785 0.55238 0.04683 0.0
H974 H 0.36205 0.58599 0.96864 0.0
H975 H 0.43352 0.6424 1.01216 0.0
H976 H 0.47888 0.65984 0.01494 0.0
H977 H 0.46764 0.67932 0.87701 0.0
H978 H 0.42233 0.66163 0.87318 0.0
H979 H 0.27424 0.69722 0.92033 0.0
H980 H 0.30882 0.669 0.957 0.0
H981 H 0.34417 0.65978 0.83374 0.0
H982 H 0.30956 0.68771 0.79661 0.0
H983 H 0.37991 0.67462 0.90892 0.0
H984 H 0.31112 0.61142 0.86487 0.0
H985 H 0.26591 0.59359 0.86247 0.0
H986 H 0.27255 0.58749 1.004 0.0
H987 H 0.31772 0.60566 1.00725 0.0
C988 C 0.44985 0.5692 0.94159 0.0
C989 C 0.45272 0.55577 0.98218 0.0
C990 C 0.43048 0.58859 0.93387 0.0
C991 C 0.41366 0.595 0.96658 0.0
C992 C 0.41655 0.58186 1.00737 0.0
C993 C 0.43611 0.56247 0.01527 0.0
C994 C 0.3921 0.6143 0.9564 0.0
C995 C 0.36591 0.60564 0.95667 0.0
C996 C 0.39727 0.63975 0.9403 0.0
C997 C 0.42452 0.65054 0.94235 0.0
C998 C 0.44077 0.65023 0.98232 0.0
C999 C 0.46647 0.66019 0.9841 0.0
C1000 C 0.47615 0.67065 0.94616 0.0
C1001 C 0.46012 0.67121 0.90638 0.0
C1002 C 0.43439 0.66126 0.9044 0.0
C1003 C 0.28931 0.68907 0.90099 0.0
C1004 C 0.28923 0.69461 0.8556 0.0
C1005 C 0.30898 0.67299 0.92198 0.0
C1006 C 0.32893 0.66248 0.89796 0.0
C1007 C 0.32888 0.66787 0.85269 0.0
C1008 C 0.30904 0.68365 0.83153 0.0
C1009 C 0.35009 0.64592 0.91991 0.0
C1010 C 0.37613 0.65519 0.92186 0.0
C1011 C 0.34478 0.62111 0.93827 0.0
C1012 C 0.31764 0.61024 0.93634 0.0
C1013 C 0.30284 0.60655 0.8955 0.0
C1014 C 0.27725 0.59631 0.89398 0.0
C1015 C 0.26632 0.5895 0.93307 0.0
C1016 C 0.28101 0.59284 0.97376 0.0
C1017 C 0.30661 0.60309 0.97546 0.0
H1018 H 0.24652 0.58156 0.93182 0.0
H1019 H 0.49606 0.67835 0.94761 0.0
H1020 H 0.17033 0.71857 0.67977 0.0
H1021 H 0.14197 0.68556 0.64156 0.0
H1022 H 0.15797 0.63194 0.75104 0.0
H1023 H 0.18627 0.66521 0.79004 0.0
H1024 H 0.16673 0.61163 0.66309 0.0
H1025 H 0.10037 0.65542 0.74063 0.0
H1026 H 0.07585 0.69398 0.76571 0.0
H1027 H 0.05122 0.71419 0.63106 0.0
H1028 H 0.07593 0.67595 0.60512 0.0
H1029 H 0.07356 0.51527 0.5843 0.0
H1030 H 0.10175 0.54673 0.62616 0.0
H1031 H 0.07383 0.60879 0.53623 0.0
H1032 H 0.04482 0.57748 0.49481 0.0
H1033 H 0.07111 0.62419 0.6178 0.0
H1034 H 0.13766 0.58321 0.53853 0.0
H1035 H 0.16342 0.5465 0.51011 0.0
H1036 H 0.18918 0.52302 0.64281 0.0
H1037 H 0.16327 0.5594 0.67206 0.0
C1038 C 0.16762 0.69984 0.69592 0.0
C1039 C 0.18052 0.69431 0.73773 0.0
C1040 C 0.15137 0.68109 0.67414 0.0
C1041 C 0.14797 0.65645 0.69362 0.0
C1042 C 0.16044 0.65095 0.73569 0.0
C1043 C 0.17641 0.66994 0.75792 0.0
C1044 C 0.13237 0.63615 0.66865 0.0
C1045 C 0.14571 0.61401 0.6538 0.0
C1046 C 0.10524 0.64001 0.65541 0.0
C1047 C 0.0902 0.66293 0.67093 0.0
C1048 C 0.08991 0.66821 0.71635 0.0
C1049 C 0.07594 0.68998 0.73072 0.0
C1050 C 0.06204 0.70656 0.7 0.0
C1051 C 0.06202 0.70134 0.65483 0.0
C1052 C 0.07598 0.6796 0.64027 0.0
C1053 C 0.07372 0.53551 0.57289 0.0
C1054 C 0.05689 0.54393 0.5363 0.0
C1055 C 0.08992 0.55347 0.59685 0.0
C1056 C 0.08999 0.58008 0.58419 0.0
C1057 C 0.07399 0.58834 0.54663 0.0
C1058 C 0.05754 0.57042 0.52289 0.0
C1059 C 0.10545 0.59954 0.61179 0.0
C1060 C 0.0921 0.62161 0.62716 0.0
C1061 C 0.13268 0.5958 0.62496 0.0
C1062 C 0.1483 0.57388 0.60749 0.0
C1063 C 0.14864 0.57009 0.56166 0.0
C1064 C 0.1633 0.54936 0.5454 0.0
C1065 C 0.17787 0.53239 0.57464 0.0
C1066 C 0.17786 0.53616 0.6202 0.0
C1067 C 0.1632 0.55685 0.63665 0.0
H1068 H 0.18922 0.51636 0.56198 0.0
H1069 H 0.05124 0.72341 0.7112 0.0
H1070 H 0.17038 0.30092 0.23886 0.0
H1071 H 0.13572 0.32851 0.26727 0.0
H1072 H 0.18072 0.3323 0.39417 0.0
H1073 H 0.21551 0.30508 0.36609 0.0
H1074 H 0.12556 0.32066 0.39777 0.0
H1075 H 0.18208 0.38308 0.32982 0.0
H1076 H 0.20483 0.40069 0.26767 0.0
H1077 H 0.13021 0.40975 0.1907 0.0
H1078 H 0.10705 0.39183 0.25221 0.0
H1079 H 0.06186 0.42384 0.50533 0.0
H1080 H 0.09233 0.3931 0.47358 0.0
H1081 H 0.05734 0.41218 0.34264 0.0
H1082 H 0.02813 0.44424 0.37433 0.0
H1083 H 0.10572 0.41022 0.33751 0.0
H1084 H 0.04783 0.35025 0.40138 0.0
H1085 H 0.02285 0.3306 0.45917 0.0
H1086 H 0.0955 0.31383 0.53782 0.0
H1087 H 0.12092 0.3337 0.48074 0.0
C1088 C 0.17291 0.30764 0.2728 0.0
C1089 C 0.19582 0.30094 0.30008 0.0
C1090 C 0.1531 0.32341 0.28895 0.0
C1091 C 0.1557 0.3325 0.33279 0.0
C1092 C 0.17832 0.32549 0.36026 0.0
C1093 C 0.19827 0.31006 0.34401 0.0
C1094 C 0.1351 0.34964 0.35008 0.0
C1095 C 0.1213 0.34035 0.38496 0.0
C1096 C 0.12895 0.37492 0.33224 0.0
C1097 C 0.14287 0.38586 0.29543 0.0
C1098 C 0.17055 0.38862 0.29951 0.0
C1099 C 0.18351 0.3987 0.26443 0.0
C1100 C 0.16898 0.40626 0.22521 0.0
C1101 C 0.14145 0.40384 0.22106 0.0
C1102 C 0.12839 0.39375 0.25603 0.0
C1103 C 0.06055 0.42126 0.4698 0.0
C1104 C 0.0426 0.43637 0.4423 0.0
C1105 C 0.07788 0.40352 0.45159 0.0
C1106 C 0.07697 0.39977 0.40555 0.0
C1107 C 0.05861 0.41461 0.37819 0.0
C1108 C 0.04183 0.43289 0.39632 0.0
C1109 C 0.09593 0.38143 0.38577 0.0
C1110 C 0.10957 0.39047 0.35035 0.0
C1111 C 0.10148 0.35565 0.40251 0.0
C1112 C 0.08626 0.34369 0.43693 0.0
C1113 C 0.05847 0.34254 0.43113 0.0
C1114 C 0.04424 0.33134 0.46375 0.0
C1115 C 0.05758 0.32103 0.50219 0.0
C1116 C 0.08519 0.32185 0.50804 0.0
C1117 C 0.09952 0.33305 0.47555 0.0
H1118 H 0.04652 0.31237 0.52739 0.0
H1119 H 0.17905 0.41406 0.19809 0.0
H1120 H 0.97038 0.04227 0.80409 0.0
H1121 H 0.96577 0.0376 0.88326 0.0
H1122 H 0.03066 0.98184 0.89403 0.0
H1123 H 0.03503 0.9861 0.81483 0.0
H1124 H 0.99313 0.96492 0.94019 0.0
H1125 H 0.03722 0.04802 0.9284 0.0
H1126 H 0.04296 0.09312 0.90048 0.0
H1127 H 0.97009 0.11727 0.95105 0.0
H1128 H 0.96374 0.07221 0.97878 0.0
H1129 H 0.0216 0.96536 0.17194 0.0
H1130 H 0.02428 0.97163 0.09273 0.0
H1131 H 0.95687 0.02423 0.08786 0.0
H1132 H 0.95417 0.01812 0.16739 0.0
H1133 H 0.99395 0.04305 0.03867 0.0
H1134 H 0.95077 0.95982 0.05223 0.0
H1135 H 0.94568 0.91473 0.08064 0.0
H1136 H 0.01768 0.89081 0.02692 0.0
H1137 H 0.02339 0.93587 0.99871 0.0
C1138 C 0.98371 0.02908 0.82339 0.0
C1139 C 0.0031 0.01459 0.80313 0.0
C1140 C 0.98111 0.02646 0.86871 0.0
C1141 C 0.99813 0.00966 0.89496 0.0
C1142 C 0.01726 0.99492 0.87462 0.0
C1143 C 0.0197 0.99733 0.82927 0.0
C1144 C 0.99603 0.00726 0.9435 0.0
C1145 C 0.99365 0.98201 0.96174 0.0
C1146 C 0.99602 0.02955 0.97171 0.0
C1147 C -0.00012 0.05668 0.95527 0.0
C1148 C 0.02233 0.06291 0.93329 0.0
C1149 C 0.0257 0.08847 0.91754 0.0
C1150 C 0.00686 0.10803 0.92388 0.0
C1151 C 0.98464 0.10209 0.9461 0.0
C1152 C 0.98116 0.07655 0.96187 0.0
C1153 C 0.00726 0.97819 0.15402 0.0
C1154 C 0.9875 0.99104 0.17599 0.0
C1155 C 0.00881 0.98176 0.10867 0.0
C1156 C 0.99048 0.99803 0.08404 0.0
C1157 C 0.9712 0.01151 0.10608 0.0
C1158 C 0.96972 0.00805 0.15158 0.0
C1159 C 0.99131 0.00071 0.0353 0.0
C1160 C 0.99339 0.02599 0.01705 0.0
C1161 C 0.99113 0.97845 1.00706 0.0
C1162 C 0.98762 0.95128 0.02369 0.0
C1163 C 0.9656 0.94499 0.04673 0.0
C1164 C 0.96259 0.91943 0.06277 0.0
C1165 C 0.98137 0.89994 0.05568 0.0
C1166 C 0.00316 0.90594 0.03243 0.0
C1167 C 0.00628 0.93148 0.01637 0.0
H1168 H 0.97901 0.88016 0.06812 0.0
H1169 H 0.00951 0.12781 0.91166 0.0
H1170 H 0.2463 0.79417 0.4816 0.0
H1171 H 0.23931 0.79682 0.40095 0.0
H1172 H 0.24574 0.71212 0.39247 0.0
H1173 H 0.25282 0.70936 0.47293 0.0
H1174 H 0.27404 0.73462 0.33355 0.0
H1175 H 0.18522 0.74586 0.37688 0.0
H1176 H 0.15063 0.76703 0.41732 0.0
H1177 H 0.16376 0.84077 0.35348 0.0
H1178 H 0.1987 0.82014 0.31314 0.0
H1179 H 0.22519 0.71483 0.11087 0.0
H1180 H 0.23209 0.71517 0.19146 0.0
H1181 H 0.22206 0.79974 0.19156 0.0
H1182 H 0.21475 0.79944 0.11079 0.0
H1183 H 0.19652 0.77946 0.25477 0.0
H1184 H 0.28412 0.76939 0.21061 0.0
H1185 H 0.31965 0.74967 0.17056 0.0
H1186 H 0.31025 0.67575 0.23624 0.0
H1187 H 0.27438 0.69492 0.27623 0.0
C1188 C 0.2459 0.77607 0.46261 0.0
C1189 C 0.25016 0.75155 0.4839 0.0
C1190 C 0.24193 0.77761 0.4164 0.0
C1191 C 0.24177 0.75464 0.3904 0.0
C1192 C 0.24586 0.73015 0.41163 0.0
C1193 C 0.24996 0.72861 0.45774 0.0
C1194 C 0.23788 0.75601 0.34111 0.0
C1195 C 0.2569 0.74413 0.31636 0.0
C1196 C 0.21599 0.76917 0.31845 0.0
C1197 C 0.19476 0.78151 0.34232 0.0
C1198 C 0.18085 0.76664 0.3717 0.0
C1199 C 0.16117 0.77854 0.39458 0.0
C1200 C 0.15506 0.80525 0.3881 0.0
C1201 C 0.16855 0.8201 0.35857 0.0
C1202 C 0.18828 0.80831 0.33565 0.0
C1203 C 0.22474 0.73355 0.12797 0.0
C1204 C 0.21956 0.75713 0.10423 0.0
C1205 C 0.22868 0.73373 0.17417 0.0
C1206 C 0.22799 0.75754 0.19786 0.0
C1207 C 0.22269 0.7811 0.17424 0.0
C1208 C 0.21851 0.78091 0.12799 0.0
C1209 C 0.23252 0.75775 0.24718 0.0
C1210 C 0.21369 0.76997 0.27193 0.0
C1211 C 0.25471 0.74509 0.2699 0.0
C1212 C 0.2764 0.73354 0.24613 0.0
C1213 C 0.2895 0.74887 0.21629 0.0
C1214 C 0.30972 0.7378 0.19363 0.0
C1215 C 0.31716 0.71146 0.20078 0.0
C1216 C 0.30444 0.69615 0.2307 0.0
C1217 C 0.28419 0.70711 0.25341 0.0
H1218 H 0.33281 0.70292 0.1832 0.0
H1219 H 0.13983 0.81442 0.40586 0.0
H1220 H 0.48585 0.9686 0.73086 0.0
H1221 H 0.48903 0.96223 0.65179 0.0
H1222 H 0.54565 0.02531 0.65176 0.0
H1223 H 0.54266 0.03174 0.73101 0.0
H1224 H 0.50941 0.03047 0.58333 0.0
H1225 H 0.56544 0.9605 0.64241 0.0
H1226 H 0.57768 0.92166 0.6888 0.0
H1227 H 0.51354 0.87804 0.62294 0.0
H1228 H 0.50089 0.91668 0.57618 0.0
H1229 H 0.54698 0.00354 0.36592 0.0
H1230 H 0.54683 0.01054 0.44565 0.0
H1231 H 0.48947 0.94858 0.45249 0.0
H1232 H 0.48947 0.94153 0.37294 0.0
H1233 H 0.5279 0.94336 0.51781 0.0
H1234 H 0.47221 0.01453 0.45849 0.0
H1235 H 0.46115 0.05372 0.41228 0.0
H1236 H 0.52602 0.09569 0.47937 0.0
H1237 H 0.53769 0.05661 0.52562 0.0
C1238 C 0.49932 0.98086 0.71427 0.0
C1239 C 0.514 0.00069 0.73749 0.0
C1240 C 0.50107 0.97723 0.66891 0.0
C1241 C 0.51773 0.99316 0.64568 0.0
C1242 C 0.53258 0.01283 0.66881 0.0
C1243 C 0.5308 0.01651 0.71417 0.0
C1244 C 0.51914 0.98971 0.59713 0.0
C1245 C 0.51386 0.0115 0.56908 0.0
C1246 C 0.52446 0.96489 0.57826 0.0
C1247 C 0.53209 0.94155 0.60606 0.0
C1248 C 0.55386 0.94267 0.63799 0.0
C1249 C 0.5609 0.92068 0.6643 0.0
C1250 C 0.54633 0.89743 0.65897 0.0
C1251 C 0.52479 0.89608 0.62709 0.0
C1252 C 0.51772 0.91799 0.60057 0.0
C1253 C 0.53409 0.99162 0.38428 0.0
C1254 C 0.51827 0.97193 0.36288 0.0
C1255 C 0.53405 0.99561 0.42996 0.0
C1256 C 0.51801 0.98019 0.45522 0.0
C1257 C 0.50212 0.96064 0.43388 0.0
C1258 C 0.50219 0.9566 0.38832 0.0
C1259 C 0.51798 0.98409 0.50394 0.0
C1260 C 0.52353 0.96236 0.53204 0.0
C1261 C 0.51305 0.00901 0.52284 0.0
C1262 C 0.50598 0.03255 0.4952 0.0
C1263 C 0.48424 0.03205 0.46316 0.0
C1264 C 0.47784 0.05426 0.437 0.0
C1265 C 0.49292 0.07716 0.4428 0.0
C1266 C 0.51439 0.07793 0.47487 0.0
C1267 C 0.52089 0.05576 0.50109 0.0
H1268 H 0.48793 0.09433 0.42251 0.0
H1269 H 0.55176 0.88046 0.67948 0.0
H1270 H 0.2179 0.29215 0.92737 0.0
H1271 H 0.22483 0.29259 0.84874 0.0
H1272 H 0.27507 0.22378 0.86671 0.0
H1273 H 0.26829 0.22328 0.9455 0.0
H1274 H 0.2959 0.25783 0.81342 0.0
H1275 H 0.20991 0.21997 0.82127 0.0
H1276 H 0.16404 0.21811 0.84212 0.0
H1277 H 0.14475 0.2888 0.76798 0.0
H1278 H 0.19064 0.29128 0.74718 0.0
H1279 H 0.2961 0.2198 0.58916 0.0
H1280 H 0.28921 0.22117 0.66768 0.0
H1281 H 0.2405 0.2908 0.64609 0.0
H1282 H 0.24737 0.28959 0.56724 0.0
H1283 H 0.21884 0.25738 0.70102 0.0
H1284 H 0.30485 0.29468 0.69217 0.0
H1285 H 0.35069 0.29615 0.67108 0.0
H1286 H 0.36988 0.22609 0.74698 0.0
H1287 H 0.32403 0.224 0.76804 0.0
C1288 C 0.23035 0.27703 0.91462 0.0
C1289 C 0.24236 0.25755 0.94286 0.0
C1290 C 0.2343 0.2773 0.86954 0.0
C1291 C 0.25011 0.25794 0.85142 0.0
C1292 C 0.26273 0.23891 0.87975 0.0
C1293 C 0.2589 0.2387 0.9249 0.0
C1294 C 0.25337 0.2574 0.80298 0.0
C1295 C 0.27903 0.25739 0.7889 0.0
C1296 C 0.23141 0.25746 0.77072 0.0
C1297 C 0.20378 0.25595 0.78304 0.0
C1298 C 0.19594 0.23522 0.80969 0.0
C1299 C 0.16993 0.23404 0.82145 0.0
C1300 C 0.15151 0.25336 0.80648 0.0
C1301 C 0.15905 0.27387 0.77961 0.0
C1302 C 0.18505 0.27516 0.7678 0.0
C1303 C 0.28407 0.23555 0.60107 0.0
C1304 C 0.27252 0.25475 0.57176 0.0
C1305 C 0.28011 0.23629 0.64609 0.0
C1306 C 0.26469 0.25636 0.66314 0.0
C1307 C 0.25254 0.27516 0.63385 0.0
C1308 C 0.25643 0.27439 0.58869 0.0
C1309 C 0.26137 0.25771 0.71149 0.0
C1310 C 0.2357 0.25788 0.72555 0.0
C1311 C 0.28332 0.25775 0.74375 0.0
C1312 C 0.31094 0.25905 0.73135 0.0
C1313 C 0.31879 0.27948 0.70411 0.0
C1314 C 0.34479 0.28044 0.6922 0.0
C1315 C 0.36317 0.26119 0.70759 0.0
C1316 C 0.35561 0.24098 0.73504 0.0
C1317 C 0.32963 0.23991 0.74701 0.0
H1318 H 0.38328 0.26197 0.69833 0.0
H1319 H 0.13138 0.25241 0.81562 0.0
H1320 H 0.73572 0.24085 0.9497 0.0
H1321 H 0.72843 0.23961 0.8691 0.0
H1322 H 0.79845 0.28626 0.85904 0.0
H1323 H 0.80526 0.28853 0.93953 0.0
H1324 H 0.76025 0.30297 0.80053 0.0
H1325 H 0.79806 0.21845 0.8417 0.0
H1326 H 0.80142 0.17612 0.88186 0.0
H1327 H 0.72457 0.15415 0.82345 0.0
H1328 H 0.72061 0.19652 0.78337 0.0
H1329 H 0.77325 0.27858 0.57211 0.0
H1330 H 0.78087 0.28103 0.65262 0.0
H1331 H 0.7121 0.23297 0.66542 0.0
H1332 H 0.70513 0.22933 0.58525 0.0
H1333 H 0.75029 0.21715 0.72264 0.0
H1334 H 0.71228 0.30178 0.68181 0.0
H1335 H 0.7089 0.34411 0.64163 0.0
H1336 H 0.78599 0.36588 0.69928 0.0
H1337 H 0.78997 0.32351 0.73938 0.0
C1338 C 0.74943 0.25113 0.93044 0.0
C1339 C 0.77121 0.26464 0.95141 0.0
C1340 C 0.74539 0.25016 0.88421 0.0
C1341 C 0.76312 0.26248 0.85774 0.0
C1342 C 0.78454 0.27645 0.87856 0.0
C1343 C 0.78856 0.27749 0.92474 0.0
C1344 C 0.75947 0.26077 0.80845 0.0
C1345 C 0.75841 0.28417 0.78351 0.0
C1346 C 0.75654 0.23631 0.78599 0.0
C1347 C 0.75894 0.21077 0.80987 0.0
C1348 C 0.7818 0.20467 0.83766 0.0
C1349 C 0.78383 0.18066 0.86037 0.0
C1350 C 0.76319 0.16248 0.8553 0.0
C1351 C 0.74052 0.16826 0.82739 0.0
C1352 C 0.73839 0.19226 0.80464 0.0
C1353 C 0.75986 0.26832 0.59198 0.0
C1354 C 0.73843 0.2539 0.57183 0.0
C1355 C 0.76407 0.26999 0.63817 0.0
C1356 C 0.74683 0.25752 0.66539 0.0
C1357 C 0.72564 0.2429 0.64536 0.0
C1358 C 0.7215 0.24109 0.59929 0.0
C1359 C 0.75092 0.25936 0.71466 0.0
C1360 C 0.75211 0.23596 0.73962 0.0
C1361 C 0.75395 0.28382 0.73711 0.0
C1362 C 0.75152 0.30936 0.71325 0.0
C1363 C 0.72859 0.31551 0.68568 0.0
C1364 C 0.72655 0.33953 0.66296 0.0
C1365 C 0.74724 0.35764 0.66781 0.0
C1366 C 0.76999 0.35181 0.6955 0.0
C1367 C 0.77213 0.32781 0.71827 0.0
H1368 H 0.74563 0.37622 0.65018 0.0
H1369 H 0.7648 0.1439 0.87291 0.0
H1370 H 0.74042 0.71489 0.43305 0.0
H1371 H 0.74726 0.71523 0.35441 0.0
H1372 H 0.73127 0.79887 0.34908 0.0
H1373 H 0.72412 0.7986 0.42778 0.0
H1374 H 0.70782 0.77626 0.27775 0.0
H1375 H 0.79542 0.7726 0.35112 0.0
H1376 H 0.831 0.7548 0.40351 0.0
H1377 H 0.82737 0.68064 0.33503 0.0
H1378 H 0.79146 0.69786 0.28262 0.0
H1379 H 0.75839 0.79719 0.06802 0.0
H1380 H 0.75046 0.79824 0.14633 0.0
H1381 H 0.76581 0.71457 0.15592 0.0
H1382 H 0.77396 0.71343 0.07784 0.0
H1383 H 0.78984 0.73825 0.22521 0.0
H1384 H 0.70206 0.7421 0.15171 0.0
H1385 H 0.66722 0.76042 0.09846 0.0
H1386 H 0.67156 0.83463 0.16676 0.0
H1387 H 0.7068 0.81691 0.21995 0.0
C1388 C 0.73859 0.73344 0.41534 0.0
C1389 C 0.73187 0.75675 0.43712 0.0
C1390 C 0.74249 0.73361 0.37016 0.0
C1391 C 0.74019 0.75716 0.34553 0.0
C1392 C 0.73317 0.78041 0.36706 0.0
C1393 C 0.72907 0.78022 0.41221 0.0
C1394 C 0.74524 0.75753 0.29754 0.0
C1395 C 0.72592 0.76825 0.26641 0.0
C1396 C 0.76864 0.7467 0.2822 0.0
C1397 C 0.79059 0.73646 0.31316 0.0
C1398 C 0.80211 0.75245 0.34737 0.0
C1399 C 0.82234 0.74247 0.37707 0.0
C1400 C 0.8314 0.71659 0.37266 0.0
C1401 C 0.82031 0.70068 0.33844 0.0
C1402 C 0.80003 0.71054 0.3087 0.0
C1403 C 0.75982 0.77894 0.08662 0.0
C1404 C 0.76689 0.75523 0.06634 0.0
C1405 C 0.75529 0.77956 0.13158 0.0
C1406 C 0.75729 0.75643 0.15736 0.0
C1407 C 0.76424 0.73274 0.1371 0.0
C1408 C 0.76893 0.73214 0.09228 0.0
C1409 C 0.75236 0.75681 0.20538 0.0
C1410 C 0.77173 0.74626 0.23654 0.0
C1411 C 0.72904 0.76782 0.22069 0.0
C1412 C 0.70724 0.77824 0.18961 0.0
C1413 C 0.69567 0.76237 0.15528 0.0
C1414 C 0.67585 0.77264 0.12509 0.0
C1415 C 0.66722 0.79868 0.12919 0.0
C1416 C 0.67829 0.81447 0.16361 0.0
C1417 C 0.69818 0.80431 0.1938 0.0
H1418 H 0.65193 0.80663 0.10571 0.0
H1419 H 0.84704 0.70889 0.39572 0.0
H1420 H 0.48175 0.52996 0.68307 0.0
H1421 H 0.48301 0.53554 0.60317 0.0
H1422 H 0.49795 0.45219 0.58964 0.0
H1423 H 0.49657 0.44644 0.66916 0.0
H1424 H 0.53074 0.48047 0.54419 0.0
H1425 H 0.43704 0.47921 0.55927 0.0
H1426 H 0.39562 0.49382 0.58893 0.0
H1427 H 0.40579 0.57167 0.53761 0.0
H1428 H 0.4475 0.5576 0.50814 0.0
H1429 H 0.50947 0.46603 0.31359 0.0
H1430 H 0.50384 0.46269 0.39252 0.0
H1431 H 0.48991 0.54662 0.39798 0.0
H1432 H 0.49553 0.55009 0.31891 0.0
H1433 H 0.45693 0.52003 0.4477 0.0
H1434 H 0.55004 0.52144 0.43181 0.0
H1435 H 0.59168 0.50726 0.40238 0.0
H1436 H 0.583 0.42973 0.45595 0.0
H1437 H 0.54109 0.44334 0.48516 0.0
C1438 C 0.48505 0.51279 0.66301 0.0
C1439 C 0.48916 0.48777 0.68258 0.0
C1440 C 0.48578 0.51601 0.61734 0.0
C1441 C 0.49042 0.49425 0.59033 0.0
C1442 C 0.49447 0.46929 0.6098 0.0
C1443 C 0.49377 0.46606 0.65534 0.0
C1444 C 0.49158 0.49739 0.54187 0.0
C1445 C 0.51445 0.48881 0.52304 0.0
C1446 C 0.47065 0.50897 0.5144 0.0
C1447 C 0.44552 0.51742 0.5319 0.0
C1448 C 0.43055 0.4995 0.55461 0.0
C1449 C 0.407 0.50767 0.57133 0.0
C1450 C 0.39812 0.53367 0.56527 0.0
C1451 C 0.41272 0.55154 0.54234 0.0
C1452 C 0.4363 0.54348 0.52559 0.0
C1453 C 0.50517 0.48377 0.33158 0.0
C1454 C 0.50324 0.50837 0.3101 0.0
C1455 C 0.50193 0.48184 0.37667 0.0
C1456 C 0.49693 0.50448 0.40135 0.0
C1457 C 0.49383 0.5289 0.37963 0.0
C1458 C 0.49698 0.53084 0.33442 0.0
C1459 C 0.49594 0.50276 0.45004 0.0
C1460 C 0.47319 0.51169 0.4689 0.0
C1461 C 0.51702 0.49156 0.47765 0.0
C1462 C 0.54229 0.48335 0.46031 0.0
C1463 C 0.55691 0.50131 0.43703 0.0
C1464 C 0.58057 0.49338 0.42043 0.0
C1465 C 0.58994 0.46759 0.4272 0.0
C1466 C 0.5757 0.44969 0.45068 0.0
C1467 C 0.552 0.4575 0.4673 0.0
H1468 H 0.60827 0.46149 0.41433 0.0
H1469 H 0.37988 0.53996 0.57824 0.0
H1470 H 0.95084 0.49629 0.7998 0.0
H1471 H 0.94704 0.50295 0.87887 0.0
H1472 H 0.02135 0.46221 0.90894 0.0
H1473 H 0.02529 0.45553 0.83025 0.0
H1474 H 0.98632 0.44619 0.96313 0.0
H1475 H 0.01614 0.53031 0.91362 0.0
H1476 H 0.01392 0.56996 0.86636 0.0
H1477 H 0.93798 0.58997 0.90989 0.0
H1478 H 0.93961 0.55023 0.95703 0.0
H1479 H 0.01665 0.48645 0.18588 0.0
H1480 H 0.01661 0.47873 0.10642 0.0
H1481 H 0.9419 0.51981 0.08439 0.0
H1482 H 0.9417 0.52746 0.16382 0.0
H1483 H 0.9749 0.53548 0.02581 0.0
H1484 H 0.9457 0.45233 0.07739 0.0
H1485 H 0.94757 0.41246 0.12408 0.0
H1486 H 0.02186 0.39041 0.07635 0.0
H1487 H 0.02062 0.43036 0.0298 0.0
C1488 C 0.96644 0.48888 0.82321 0.0
C1489 C 0.98832 0.47528 0.80847 0.0
C1490 C 0.96424 0.49269 0.86849 0.0
C1491 C 0.98401 0.48326 0.90005 0.0
C1492 C 0.00575 0.46956 0.88539 0.0
C1493 C 0.00792 0.46568 0.84026 0.0
C1494 C 0.98226 0.48764 0.94832 0.0
C1495 C 0.98412 0.46576 0.97685 0.0
C1496 C 0.97873 0.51308 0.96633 0.0
C1497 C 0.97788 0.53716 0.9385 0.0
C1498 C 0.99889 0.54308 0.9129 0.0
C1499 C 0.99776 0.56558 0.88617 0.0
C1500 C 0.97579 0.58243 0.88503 0.0
C1501 C 0.95497 0.57687 0.91076 0.0
C1502 C 0.956 0.55438 0.93753 0.0
C1503 C 1e-05 0.49354 0.16426 0.0
C1504 C 0.97916 0.50757 0.18146 0.0
C1505 C 5e-05 0.48917 0.11871 0.0
C1506 C 0.97914 0.4985 0.08925 0.0
C1507 C 0.9583 0.51248 0.10631 0.0
C1508 C 0.95826 0.51689 0.15182 0.0
C1509 C 0.9792 0.49404 0.04067 0.0
C1510 C 0.97701 0.5159 1.01209 0.0
C1511 C 0.98242 0.46857 0.02259 0.0
C1512 C 0.98318 0.44447 0.05041 0.0
C1513 C 0.96254 0.43908 0.0771 0.0
C1514 C 0.96346 0.41645 0.1035 0.0
C1515 C 0.98485 0.39895 0.10326 0.0
C1516 C 0.00532 0.404 0.07653 0.0
C1517 C 0.00451 0.42663 0.0501 0.0
H1518 H 0.98553 0.38143 0.12373 0.0
H1519 H 0.97493 0.59983 0.86427 0.0
loop_
_geom_bond_atom_site_label_1
_geom_bond_atom_site_label_2
_geom_bond_distance
_geom_bond_site_symmetry_2
_ccdc_geom_bond_type
Dy0 O3 2.307 . S
Dy0 O5 2.375 1_545 S
Dy0 O6 2.379 1_455 S
Dy0 O8 2.339 1_455 S
Dy0 O10 2.298 1_445 S
Dy0 O14 2.275 1_545 S
Dy0 C22 2.738 1_455 S
Dy1 O4 2.298 1_665 S
Dy1 O7 2.275 1_565 S
Dy1 O9 2.307 . S
Dy1 O11 2.395 1_565 S
Dy1 O12 2.379 1_655 S
Dy1 O15 2.339 1_655 S
Dy1 C31 2.738 1_655 S
C2 O14 1.254 . S
C2 O15 1.257 . S
O3 Dy0 2.307 . S
O3 C13 1.266 . S
O4 Dy1 2.298 1_445 S
O4 C13 1.236 . S
O5 Dy0 2.375 1_565 S
O5 C22 1.227 1_465 S
O6 Dy0 2.379 1_655 S
O6 C22 1.249 . S
O7 Dy1 2.275 1_545 S
O7 C23 1.254 . S
O8 Dy0 2.339 1_655 S
O8 C23 1.257 . S
O9 Dy1 2.307 . S
O9 C24 1.266 . S
O10 Dy0 2.298 1_665 S
O10 C24 1.236 . S
O11 Dy1 2.395 1_545 S
O11 C31 1.255 1_645 S
O12 Dy1 2.379 1_455 S
O12 C31 1.249 . S
C13 O3 1.266 . S
C13 O4 1.236 . S
O14 Dy0 2.275 1_565 S
O14 C2 1.254 . S
O15 Dy1 2.339 1_455 S
O15 C2 1.257 . S
C16 C19 1.350 1_545 S
C16 C20 1.328 . S
C16 C22 1.516 . S
C17 C18 1.304 1_545 S
C17 C21 1.323 . S
C18 C17 1.304 1_565 S
C18 C19 1.376 . S
C18 H32 0.930 1_655 S
C19 C16 1.350 1_565 S
C19 C18 1.376 . S
C19 H33 0.921 1_655 S
C20 C16 1.328 . S
C20 C21 1.433 . S
C20 H34 0.931 . S
C21 C17 1.323 . S
C21 C20 1.433 . S
C21 H35 0.933 . S
C22 Dy0 2.738 1_655 S
C22 O5 1.227 1_645 S
C22 O6 1.249 . S
C22 C16 1.516 . S
C23 O7 1.254 . S
C23 O8 1.257 . S
C24 O9 1.266 . S
C24 O10 1.236 . S
C25 C28 1.353 1_565 S
C25 C29 1.328 . S
C25 C31 1.516 . S
C26 C27 1.304 1_565 S
C26 C30 1.323 . S
C27 C26 1.304 1_545 S
C27 C28 1.378 . S
C27 H36 0.930 1_455 S
C28 C25 1.353 1_545 S
C28 C27 1.378 . S
C28 H37 0.917 1_455 S
C29 C25 1.328 . S
C29 C30 1.433 . S
C29 H38 0.931 . S
C30 C26 1.323 . S
C30 C29 1.433 . S
C30 H39 0.933 . S
C31 Dy1 2.738 1_455 S
C31 O11 1.255 1_465 S
C31 O12 1.249 . S
C31 C25 1.516 . S
H32 C18 0.930 1_455 S
H33 C19 0.921 1_455 S
H34 C20 0.931 . S
H35 C21 0.933 . S
H36 C27 0.930 1_655 S
H37 C28 0.917 1_655 S
H38 C29 0.931 . S
H39 C30 0.933 . S
Dy40 O43 2.307 . S
Dy40 O45 2.395 . S
Dy40 O46 2.379 . S
Dy40 O48 2.339 . S
Dy40 O50 2.298 . S
Dy40 O54 2.275 . S
Dy40 C62 2.738 . S
Dy41 O44 2.298 . S
Dy41 O47 2.275 . S
Dy41 O49 2.307 . S
Dy41 O51 2.395 . S
Dy41 O52 2.379 . S
Dy41 O55 2.339 . S
Dy41 C71 2.738 . S
C42 O54 1.254 . S
C42 O55 1.257 . S
O43 Dy40 2.307 . S
O43 C53 1.266 . S
O44 Dy41 2.298 . S
O44 C53 1.236 . S
O45 Dy40 2.395 . S
O45 C62 1.255 . S
O46 Dy40 2.379 . S
O46 C62 1.249 . S
O47 Dy41 2.275 . S
O47 C63 1.254 . S
O48 Dy40 2.339 . S
O48 C63 1.257 . S
O49 Dy41 2.307 . S
O49 C64 1.266 . S
O50 Dy40 2.298 . S
O50 C64 1.236 . S
O51 Dy41 2.395 . S
O51 C71 1.255 . S
O52 Dy41 2.379 . S
O52 C71 1.249 . S
C53 O43 1.266 . S
C53 O44 1.236 . S
O54 Dy40 2.275 . S
O54 C42 1.254 . S
O55 Dy41 2.339 . S
O55 C42 1.257 . S
C56 C59 1.344 . S
C56 C60 1.328 . S
C56 C62 1.516 . S
C57 C58 1.304 . S
C57 C61 1.323 . S
C58 C57 1.304 . S
C58 C59 1.371 . S
C58 H72 0.930 . S
C59 C56 1.344 . S
C59 C58 1.371 . S
C59 H73 0.931 . S
C60 C56 1.328 . S
C60 C61 1.433 . S
C60 H74 0.931 . S
C61 C57 1.323 . S
C61 C60 1.433 . S
C61 H75 0.933 . S
C62 Dy40 2.738 . S
C62 O45 1.255 . S
C62 O46 1.249 . S
C62 C56 1.516 . S
C63 O47 1.254 . S
C63 O48 1.257 . S
C64 O49 1.266 . S
C64 O50 1.236 . S
C65 C68 1.344 . S
C65 C69 1.328 . S
C65 C71 1.516 . S
C66 C67 1.304 . S
C66 C70 1.323 . S
C67 C66 1.304 . S
C67 C68 1.371 1_554 S
C67 H76 0.930 . S
C68 C65 1.344 . S
C68 C67 1.371 1_556 S
C68 H77 0.931 . S
C69 C65 1.328 . S
C69 C70 1.433 1_556 S
C69 H78 0.931 . S
C70 C66 1.323 . S
C70 C69 1.433 1_554 S
C70 H79 0.933 . S
C71 Dy41 2.738 . S
C71 O51 1.255 . S
C71 O52 1.249 . S
C71 C65 1.516 . S
H72 C58 0.930 . S
H73 C59 0.931 . S
H74 C60 0.931 . S
H75 C61 0.933 . S
H76 C67 0.930 . S
H77 C68 0.931 . S
H78 C69 0.931 . S
H79 C70 0.933 . S
Dy80 O83 2.307 . S
Dy80 O85 2.377 1_545 S
Dy80 O86 2.379 . S
Dy80 O88 2.339 . S
Dy80 O90 2.298 1_545 S
Dy80 O94 2.275 1_545 S
Dy80 C102 2.738 . S
Dy81 O84 2.298 1_565 S
Dy81 O87 2.275 1_565 S
Dy81 O89 2.307 . S
Dy81 O91 2.395 1_565 S
Dy81 O92 2.379 . S
Dy81 O95 2.339 . S
Dy81 C111 2.738 . S
C82 O94 1.254 . S
C82 O95 1.257 1_556 S
O83 Dy80 2.307 . S
O83 C93 1.266 1_556 S
O84 Dy81 2.298 1_545 S
O84 C93 1.236 . S
O85 Dy80 2.377 1_565 S
O85 C102 1.230 1_565 S
O86 Dy80 2.379 . S
O86 C102 1.249 . S
O87 Dy81 2.275 1_545 S
O87 C103 1.254 . S
O88 Dy80 2.339 . S
O88 C103 1.257 1_556 S
O89 Dy81 2.307 . S
O89 C104 1.266 1_554 S
O90 Dy80 2.298 1_565 S
O90 C104 1.236 . S
O91 Dy81 2.395 1_545 S
O91 C111 1.255 1_545 S
O92 Dy81 2.379 . S
O92 C111 1.249 . S
C93 O83 1.266 1_554 S
C93 O84 1.236 . S
O94 Dy80 2.275 1_565 S
O94 C82 1.254 . S
O95 Dy81 2.339 . S
O95 C82 1.257 1_554 S
C96 C99 1.344 1_545 S
C96 C100 1.328 . S
C96 C102 1.516 . S
C97 C98 1.304 1_545 S
C97 C101 1.323 . S
C98 C97 1.304 1_565 S
C98 C99 1.371 . S
C98 H112 0.930 . S
C99 C96 1.344 1_565 S
C99 C98 1.371 . S
C99 H113 0.931 . S
C100 C96 1.328 . S
C100 C101 1.433 . S
C100 H114 0.931 . S
C101 C97 1.323 . S
C101 C100 1.433 . S
C101 H115 0.933 . S
C102 Dy80 2.738 . S
C102 O85 1.230 1_545 S
C102 O86 1.249 . S
C102 C96 1.516 . S
C103 O87 1.254 . S
C103 O88 1.257 1_554 S
C104 O89 1.266 1_556 S
C104 O90 1.236 . S
C105 C108 1.344 1_565 S
C105 C109 1.328 . S
C105 C111 1.516 . S
C106 C107 1.304 1_565 S
C106 C110 1.323 . S
C107 C106 1.304 1_545 S
C107 C108 1.371 . S
C107 H116 0.930 . S
C108 C105 1.344 1_545 S
C108 C107 1.371 . S
C108 H117 0.931 . S
C109 C105 1.328 . S
C109 C110 1.433 . S
C109 H118 0.931 . S
C110 C106 1.323 . S
C110 C109 1.433 . S
C110 H119 0.933 . S
C111 Dy81 2.738 . S
C111 O91 1.255 1_565 S
C111 O92 1.249 . S
C111 C105 1.516 . S
H112 C98 0.930 . S
H113 C99 0.931 . S
H114 C100 0.931 . S
H115 C101 0.933 . S
H116 C107 0.930 . S
H117 C108 0.931 . S
H118 C109 0.931 . S
H119 C110 0.933 . S
Dy120 O123 2.307 . S
Dy120 O125 2.395 . S
Dy120 O126 2.379 . S
Dy120 O128 2.339 . S
Dy120 O130 2.298 . S
Dy120 O134 2.275 . S
Dy120 C142 2.738 . S
Dy121 O124 2.298 . S
Dy121 O127 2.275 . S
Dy121 O129 2.307 . S
Dy121 O131 2.395 . S
Dy121 O132 2.379 . S
Dy121 O135 2.339 . S
Dy121 C151 2.738 . S
C122 O134 1.254 . S
C122 O135 1.257 . S
O123 Dy120 2.307 . S
O123 C133 1.266 . S
O124 Dy121 2.298 . S
O124 C133 1.236 . S
O125 Dy120 2.395 . S
O125 C142 1.255 . S
O126 Dy120 2.379 . S
O126 C142 1.249 . S
O127 Dy121 2.275 . S
O127 C143 1.254 . S
O128 Dy120 2.339 . S
O128 C143 1.257 . S
O129 Dy121 2.307 . S
O129 C144 1.266 . S
O130 Dy120 2.298 . S
O130 C144 1.236 . S
O131 Dy121 2.395 . S
O131 C151 1.255 . S
O132 Dy121 2.379 . S
O132 C151 1.249 . S
C133 O123 1.266 . S
C133 O124 1.236 . S
O134 Dy120 2.275 . S
O134 C122 1.254 . S
O135 Dy121 2.339 . S
O135 C122 1.257 . S
C136 C139 1.344 . S
C136 C140 1.328 . S
C136 C142 1.516 . S
C137 C138 1.304 . S
C137 C141 1.323 . S
C138 C137 1.304 . S
C138 C139 1.371 1_556 S
C138 H152 0.930 . S
C139 C136 1.344 . S
C139 C138 1.371 1_554 S
C139 H153 0.931 . S
C140 C136 1.328 . S
C140 C141 1.433 1_554 S
C140 H154 0.931 . S
C141 C137 1.323 . S
C141 C140 1.433 1_556 S
C141 H155 0.933 . S
C142 Dy120 2.738 . S
C142 O125 1.255 . S
C142 O126 1.249 . S
C142 C136 1.516 . S
C143 O127 1.254 . S
C143 O128 1.257 . S
C144 O129 1.266 . S
C144 O130 1.236 . S
C145 C148 1.344 . S
C145 C149 1.328 . S
C145 C151 1.516 . S
C146 C147 1.304 . S
C146 C150 1.323 . S
C147 C146 1.304 . S
C147 C148 1.371 . S
C147 H156 0.930 . S
C148 C145 1.344 . S
C148 C147 1.371 . S
C148 H157 0.931 . S
C149 C145 1.328 . S
C149 C150 1.433 . S
C149 H158 0.931 . S
C150 C146 1.323 . S
C150 C149 1.433 . S
C150 H159 0.933 . S
C151 Dy121 2.738 . S
C151 O131 1.255 . S
C151 O132 1.249 . S
C151 C145 1.516 . S
H152 C138 0.930 . S
H153 C139 0.931 . S
H154 C140 0.931 . S
H155 C141 0.933 . S
H156 C147 0.930 . S
H157 C148 0.931 . S
H158 C149 0.931 . S
H159 C150 0.933 . S
Dy160 O163 2.307 . S
Dy160 O165 2.395 . S
Dy160 O166 2.379 . S
Dy160 O168 2.339 . S
Dy160 O170 2.298 . S
Dy160 O174 2.275 . S
Dy160 C182 2.738 . S
Dy161 O164 2.298 . S
Dy161 O167 2.275 . S
Dy161 O169 2.307 . S
Dy161 O171 2.395 . S
Dy161 O172 2.379 . S
Dy161 O175 2.339 . S
Dy161 C191 2.738 . S
C162 O174 1.254 . S
C162 O175 1.257 . S
O163 Dy160 2.307 . S
O163 C173 1.266 . S
O164 Dy161 2.298 . S
O164 C173 1.236 . S
O165 Dy160 2.395 . S
O165 C182 1.255 . S
O166 Dy160 2.379 . S
O166 C182 1.249 . S
O167 Dy161 2.275 . S
O167 C183 1.254 . S
O168 Dy160 2.339 . S
O168 C183 1.257 . S
O169 Dy161 2.307 . S
O169 C184 1.266 . S
O170 Dy160 2.298 . S
O170 C184 1.236 . S
O171 Dy161 2.395 . S
O171 C191 1.255 . S
O172 Dy161 2.379 . S
O172 C191 1.249 . S
C173 O163 1.266 . S
C173 O164 1.236 . S
O174 Dy160 2.275 . S
O174 C162 1.254 . S
O175 Dy161 2.339 . S
O175 C162 1.257 . S
C176 C179 1.344 . S
C176 C180 1.328 . S
C176 C182 1.516 . S
C177 C178 1.304 . S
C177 C181 1.323 . S
C178 C177 1.304 . S
C178 C179 1.371 1_556 S
C178 H192 0.930 . S
C179 C176 1.344 . S
C179 C178 1.371 1_554 S
C179 H193 0.931 . S
C180 C176 1.328 . S
C180 C181 1.433 1_554 S
C180 H194 0.931 . S
C181 C177 1.323 . S
C181 C180 1.433 1_556 S
C181 H195 0.933 . S
C182 Dy160 2.738 . S
C182 O165 1.255 . S
C182 O166 1.249 . S
C182 C176 1.516 . S
C183 O167 1.254 . S
C183 O168 1.257 . S
C184 O169 1.266 . S
C184 O170 1.236 . S
C185 C188 1.344 . S
C185 C189 1.328 . S
C185 C191 1.516 . S
C186 C187 1.304 . S
C186 C190 1.323 . S
C187 C186 1.304 . S
C187 C188 1.371 . S
C187 H196 0.930 . S
C188 C185 1.344 . S
C188 C187 1.371 . S
C188 H197 0.931 . S
C189 C185 1.328 . S
C189 C190 1.433 . S
C189 H198 0.931 . S
C190 C186 1.323 . S
C190 C189 1.433 . S
C190 H199 0.933 . S
C191 Dy161 2.738 . S
C191 O171 1.255 . S
C191 O172 1.249 . S
C191 C185 1.516 . S
H192 C178 0.930 . S
H193 C179 0.931 . S
H194 C180 0.931 . S
H195 C181 0.933 . S
H196 C187 0.930 . S
H197 C188 0.931 . S
H198 C189 0.931 . S
H199 C190 0.933 . S
Dy200 O203 2.307 . S
Dy200 O205 2.395 . S
Dy200 O206 2.379 . S
Dy200 O208 2.339 . S
Dy200 O210 2.298 . S
Dy200 O214 2.275 . S
Dy200 C222 2.738 . S
Dy201 O204 2.298 . S
Dy201 O207 2.275 . S
Dy201 O209 2.307 . S
Dy201 O211 2.395 . S
Dy201 O212 2.379 . S
Dy201 O215 2.339 . S
Dy201 C231 2.738 . S
C202 O214 1.254 . S
C202 O215 1.257 . S
O203 Dy200 2.307 . S
O203 C213 1.266 . S
O204 Dy201 2.298 . S
O204 C213 1.236 . S
O205 Dy200 2.395 . S
O205 C222 1.255 . S
O206 Dy200 2.379 . S
O206 C222 1.249 . S
O207 Dy201 2.275 . S
O207 C223 1.254 . S
O208 Dy200 2.339 . S
O208 C223 1.257 . S
O209 Dy201 2.307 . S
O209 C224 1.266 . S
O210 Dy200 2.298 . S
O210 C224 1.236 . S
O211 Dy201 2.395 . S
O211 C231 1.255 . S
O212 Dy201 2.379 . S
O212 C231 1.249 . S
C213 O203 1.266 . S
C213 O204 1.236 . S
O214 Dy200 2.275 . S
O214 C202 1.254 . S
O215 Dy201 2.339 . S
O215 C202 1.257 . S
C216 C219 1.344 . S
C216 C220 1.328 . S
C216 C222 1.516 . S
C217 C218 1.304 . S
C217 C221 1.323 . S
C218 C217 1.304 . S
C218 C219 1.371 . S
C218 H232 0.930 . S
C219 C216 1.344 . S
C219 C218 1.371 . S
C219 H233 0.931 . S
C220 C216 1.328 . S
C220 C221 1.433 . S
C220 H234 0.931 . S
C221 C217 1.323 . S
C221 C220 1.433 . S
C221 H235 0.933 . S
C222 Dy200 2.738 . S
C222 O205 1.255 . S
C222 O206 1.249 . S
C222 C216 1.516 . S
C223 O207 1.254 . S
C223 O208 1.257 . S
C224 O209 1.266 . S
C224 O210 1.236 . S
C225 C228 1.344 . S
C225 C229 1.328 . S
C225 C231 1.516 . S
C226 C227 1.304 . S
C226 C230 1.323 . S
C227 C226 1.304 . S
C227 C228 1.371 1_554 S
C227 H236 0.930 . S
C228 C225 1.344 . S
C228 C227 1.371 1_556 S
C228 H237 0.931 . S
C229 C225 1.328 . S
C229 C230 1.433 1_556 S
C229 H238 0.931 . S
C230 C226 1.323 . S
C230 C229 1.433 1_554 S
C230 H239 0.933 . S
C231 Dy201 2.738 . S
C231 O211 1.255 . S
C231 O212 1.249 . S
C231 C225 1.516 . S
H232 C218 0.930 . S
H233 C219 0.931 . S
H234 C220 0.931 . S
H235 C221 0.933 . S
H236 C227 0.930 . S
H237 C228 0.931 . S
H238 C229 0.931 . S
H239 C230 0.933 . S
Dy240 O243 2.307 . S
Dy240 O245 2.395 . S
Dy240 O246 2.379 . S
Dy240 O248 2.339 . S
Dy240 O250 2.298 . S
Dy240 O254 2.275 . S
Dy240 C262 2.738 . S
Dy241 O244 2.298 . S
Dy241 O247 2.275 . S
Dy241 O249 2.307 . S
Dy241 O251 2.395 . S
Dy241 O252 2.379 . S
Dy241 O255 2.339 . S
Dy241 C271 2.738 . S
C242 O254 1.254 . S
C242 O255 1.257 1_554 S
O243 Dy240 2.307 . S
O243 C253 1.266 1_554 S
O244 Dy241 2.298 . S
O244 C253 1.236 . S
O245 Dy240 2.395 . S
O245 C262 1.255 . S
O246 Dy240 2.379 . S
O246 C262 1.249 . S
O247 Dy241 2.275 . S
O247 C263 1.254 . S
O248 Dy240 2.339 . S
O248 C263 1.257 1_554 S
O249 Dy241 2.307 . S
O249 C264 1.266 1_556 S
O250 Dy240 2.298 . S
O250 C264 1.236 . S
O251 Dy241 2.395 . S
O251 C271 1.255 . S
O252 Dy241 2.379 . S
O252 C271 1.249 . S
C253 O243 1.266 1_556 S
C253 O244 1.236 . S
O254 Dy240 2.275 . S
O254 C242 1.254 . S
O255 Dy241 2.339 . S
O255 C242 1.257 1_556 S
C256 C259 1.344 . S
C256 C260 1.328 . S
C256 C262 1.516 . S
C257 C258 1.304 . S
C257 C261 1.323 . S
C258 C257 1.304 . S
C258 C259 1.371 . S
C258 H272 0.930 . S
C259 C256 1.344 . S
C259 C258 1.371 . S
C259 H273 0.931 . S
C260 C256 1.328 . S
C260 C261 1.433 . S
C260 H274 0.931 . S
C261 C257 1.323 . S
C261 C260 1.433 . S
C261 H275 0.933 . S
C262 Dy240 2.738 . S
C262 O245 1.255 . S
C262 O246 1.249 . S
C262 C256 1.516 . S
C263 O247 1.254 . S
C263 O248 1.257 1_556 S
C264 O249 1.266 1_554 S
C264 O250 1.236 . S
C265 C268 1.344 . S
C265 C269 1.328 . S
C265 C271 1.516 . S
C266 C267 1.304 . S
C266 C270 1.323 . S
C267 C266 1.304 . S
C267 C268 1.371 . S
C267 H276 0.930 . S
C268 C265 1.344 . S
C268 C267 1.371 . S
C268 H277 0.931 . S
C269 C265 1.328 . S
C269 C270 1.433 . S
C269 H278 0.931 . S
C270 C266 1.323 . S
C270 C269 1.433 . S
C270 H279 0.933 . S
C271 Dy241 2.738 . S
C271 O251 1.255 . S
C271 O252 1.249 . S
C271 C265 1.516 . S
H272 C258 0.930 . S
H273 C259 0.931 . S
H274 C260 0.931 . S
H275 C261 0.933 . S
H276 C267 0.930 . S
H277 C268 0.931 . S
H278 C269 0.931 . S
H279 C270 0.933 . S
Dy280 O283 2.307 . S
Dy280 O285 2.395 . S
Dy280 O286 2.379 1_655 S
Dy280 O288 2.339 1_655 S
Dy280 O290 2.298 1_655 S
Dy280 O294 2.275 . S
Dy280 C302 2.738 1_655 S
Dy281 O284 2.298 1_455 S
Dy281 O287 2.275 . S
Dy281 O289 2.307 . S
Dy281 O291 2.395 . S
Dy281 O292 2.379 1_455 S
Dy281 O295 2.339 1_455 S
Dy281 C311 2.738 1_455 S
C282 O294 1.254 . S
C282 O295 1.257 . S
O283 Dy280 2.307 . S
O283 C293 1.266 . S
O284 Dy281 2.298 1_655 S
O284 C293 1.236 . S
O285 Dy280 2.395 . S
O285 C302 1.255 1_655 S
O286 Dy280 2.379 1_455 S
O286 C302 1.249 . S
O287 Dy281 2.275 . S
O287 C303 1.254 . S
O288 Dy280 2.339 1_455 S
O288 C303 1.257 . S
O289 Dy281 2.307 . S
O289 C304 1.266 . S
O290 Dy280 2.298 1_455 S
O290 C304 1.236 . S
O291 Dy281 2.395 . S
O291 C311 1.255 1_455 S
O292 Dy281 2.379 1_655 S
O292 C311 1.249 . S
C293 O283 1.266 . S
C293 O284 1.236 . S
O294 Dy280 2.275 . S
O294 C282 1.254 . S
O295 Dy281 2.339 1_655 S
O295 C282 1.257 . S
C296 C299 1.350 . S
C296 C300 1.328 . S
C296 C302 1.516 . S
C297 C298 1.304 . S
C297 C301 1.323 . S
C298 C297 1.304 . S
C298 C299 1.375 . S
C298 H312 0.930 1_455 S
C299 C296 1.350 . S
C299 C298 1.375 . S
C299 H313 0.922 1_455 S
C300 C296 1.328 . S
C300 C301 1.433 . S
C300 H314 0.931 . S
C301 C297 1.323 . S
C301 C300 1.433 . S
C301 H315 0.933 . S
C302 Dy280 2.738 1_455 S
C302 O285 1.255 1_455 S
C302 O286 1.249 . S
C302 C296 1.516 . S
C303 O287 1.254 . S
C303 O288 1.257 . S
C304 O289 1.266 . S
C304 O290 1.236 . S
C305 C308 1.347 . S
C305 C309 1.328 . S
C305 C311 1.516 . S
C306 C307 1.304 . S
C306 C310 1.323 . S
C307 C306 1.304 . S
C307 C308 1.373 . S
C307 H316 0.930 1_655 S
C308 C305 1.347 . S
C308 C307 1.373 . S
C308 H317 0.926 1_655 S
C309 C305 1.328 . S
C309 C310 1.433 . S
C309 H318 0.931 . S
C310 C306 1.323 . S
C310 C309 1.433 . S
C310 H319 0.933 . S
C311 Dy281 2.738 1_655 S
C311 O291 1.255 1_655 S
C311 O292 1.249 . S
C311 C305 1.516 . S
H312 C298 0.930 1_655 S
H313 C299 0.922 1_655 S
H314 C300 0.931 . S
H315 C301 0.933 . S
H316 C307 0.930 1_455 S
H317 C308 0.926 1_455 S
H318 C309 0.931 . S
H319 C310 0.933 . S
H320 C338 0.951 . S
H321 C340 0.951 . S
H322 C342 0.950 . S
H323 C343 0.950 . S
H324 C345 0.950 . S
H325 C348 0.950 . S
H326 C349 0.950 . S
H327 C351 0.950 . S
H328 C352 0.950 . S
H329 C353 0.951 . S
H330 C355 0.951 . S
H331 C357 0.950 . S
H332 C358 0.950 . S
H333 C360 0.950 . S
H334 C363 0.950 . S
H335 C364 0.950 . S
H336 C366 0.950 . S
H337 C367 0.950 . S
C338 H320 0.951 . S
C338 C339 1.366 . S
C338 C340 1.388 . S
C339 C338 1.366 . S
C339 C343 1.385 . S
C340 H321 0.951 . S
C340 C338 1.388 . S
C340 C341 1.366 . S
C341 C340 1.366 . S
C341 C342 1.414 . S
C341 C344 1.499 . S
C342 H322 0.950 . S
C342 C341 1.414 . S
C342 C343 1.374 . S
C343 H323 0.950 . S
C343 C339 1.385 . S
C343 C342 1.374 . S
C344 C341 1.499 . S
C344 C345 1.373 . S
C344 C346 1.389 . S
C345 H324 0.950 . S
C345 C344 1.373 . S
C345 C361 1.377 . S
C346 C344 1.389 . S
C346 C347 1.524 . S
C346 C360 1.377 . S
C347 C346 1.524 . S
C347 C348 1.397 . S
C347 C352 1.363 . S
C348 H325 0.950 . S
C348 C347 1.397 . S
C348 C349 1.334 . S
C349 H326 0.950 . S
C349 C348 1.334 . S
C349 C350 1.287 . S
C350 C349 1.287 . S
C350 C351 1.524 . S
C350 H369 0.913 . S
C351 H327 0.950 . S
C351 C350 1.524 . S
C351 C352 1.415 . S
C352 H328 0.950 . S
C352 C347 1.363 . S
C352 C351 1.415 . S
C353 H329 0.951 . S
C353 C354 1.366 . S
C353 C355 1.388 . S
C354 C353 1.366 . S
C354 C358 1.385 . S
C355 H330 0.951 . S
C355 C353 1.388 . S
C355 C356 1.366 . S
C356 C355 1.366 . S
C356 C357 1.414 . S
C356 C359 1.499 . S
C357 H331 0.950 . S
C357 C356 1.414 . S
C357 C358 1.374 . S
C358 H332 0.950 . S
C358 C354 1.385 . S
C358 C357 1.374 . S
C359 C356 1.499 . S
C359 C360 1.373 . S
C359 C361 1.389 . S
C360 H333 0.950 . S
C360 C346 1.377 . S
C360 C359 1.373 . S
C361 C345 1.377 . S
C361 C359 1.389 . S
C361 C362 1.524 . S
C362 C361 1.524 . S
C362 C363 1.397 . S
C362 C367 1.363 . S
C363 H334 0.950 . S
C363 C362 1.397 . S
C363 C364 1.334 . S
C364 H335 0.950 . S
C364 C363 1.334 . S
C364 C365 1.287 . S
C365 C364 1.287 . S
C365 C366 1.524 . S
C365 H368 0.999 . S
C366 H336 0.950 . S
C366 C365 1.524 . S
C366 C367 1.415 . S
C367 H337 0.950 . S
C367 C362 1.363 . S
C367 C366 1.415 . S
H368 C365 0.999 . S
H369 C350 0.913 . S
H370 C388 0.951 . S
H371 C390 0.951 . S
H372 C392 0.950 . S
H373 C393 0.950 . S
H374 C395 0.950 . S
H375 C398 0.950 . S
H376 C399 0.950 . S
H377 C401 0.950 . S
H378 C402 0.950 . S
H379 C403 0.951 . S
H380 C405 0.951 . S
H381 C407 0.950 . S
H382 C408 0.950 . S
H383 C410 0.950 . S
H384 C413 0.950 . S
H385 C414 0.950 . S
H386 C416 0.950 . S
H387 C417 0.950 . S
C388 H370 0.951 . S
C388 C389 1.366 . S
C388 C390 1.388 . S
C389 C388 1.366 . S
C389 C393 1.385 . S
C390 H371 0.951 . S
C390 C388 1.388 . S
C390 C391 1.366 . S
C391 C390 1.366 . S
C391 C392 1.414 . S
C391 C394 1.499 . S
C392 H372 0.950 . S
C392 C391 1.414 . S
C392 C393 1.374 . S
C393 H373 0.950 . S
C393 C389 1.385 . S
C393 C392 1.374 . S
C394 C391 1.499 . S
C394 C395 1.373 . S
C394 C396 1.389 . S
C395 H374 0.950 . S
C395 C394 1.373 . S
C395 C411 1.377 . S
C396 C394 1.389 . S
C396 C397 1.524 . S
C396 C410 1.377 . S
C397 C396 1.524 . S
C397 C398 1.397 . S
C397 C402 1.363 . S
C398 H375 0.950 . S
C398 C397 1.397 . S
C398 C399 1.334 . S
C399 H376 0.950 . S
C399 C398 1.334 . S
C399 C400 1.287 . S
C400 C399 1.287 . S
C400 C401 1.524 . S
C400 H419 0.913 . S
C401 H377 0.950 . S
C401 C400 1.524 . S
C401 C402 1.415 . S
C402 H378 0.950 . S
C402 C397 1.363 . S
C402 C401 1.415 . S
C403 H379 0.951 . S
C403 C404 1.366 . S
C403 C405 1.388 . S
C404 C403 1.366 . S
C404 C408 1.385 . S
C405 H380 0.951 . S
C405 C403 1.388 . S
C405 C406 1.366 . S
C406 C405 1.366 . S
C406 C407 1.414 . S
C406 C409 1.499 . S
C407 H381 0.950 . S
C407 C406 1.414 . S
C407 C408 1.374 . S
C408 H382 0.950 . S
C408 C404 1.385 . S
C408 C407 1.374 . S
C409 C406 1.499 . S
C409 C410 1.373 . S
C409 C411 1.389 . S
C410 H383 0.950 . S
C410 C396 1.377 . S
C410 C409 1.373 . S
C411 C395 1.377 . S
C411 C409 1.389 . S
C411 C412 1.524 . S
C412 C411 1.524 . S
C412 C413 1.397 . S
C412 C417 1.363 . S
C413 H384 0.950 . S
C413 C412 1.397 . S
C413 C414 1.334 . S
C414 H385 0.950 . S
C414 C413 1.334 . S
C414 C415 1.287 . S
C415 C414 1.287 . S
C415 C416 1.524 . S
C415 H418 0.999 . S
C416 H386 0.950 . S
C416 C415 1.524 . S
C416 C417 1.415 . S
C417 H387 0.950 . S
C417 C412 1.363 . S
C417 C416 1.415 . S
H418 C415 0.999 . S
H419 C400 0.913 . S
H420 C438 0.951 . S
H421 C440 0.951 . S
H422 C442 0.950 . S
H423 C443 0.950 . S
H424 C445 0.950 . S
H425 C448 0.950 . S
H426 C449 0.950 . S
H427 C451 0.950 . S
H428 C452 0.950 . S
H429 C453 0.951 . S
H430 C455 0.951 . S
H431 C457 0.950 . S
H432 C458 0.950 . S
H433 C460 0.950 . S
H434 C463 0.950 . S
H435 C464 0.950 . S
H436 C466 0.950 . S
H437 C467 0.950 . S
C438 H420 0.951 . S
C438 C439 1.366 . S
C438 C440 1.388 . S
C439 C438 1.366 . S
C439 C443 1.385 . S
C440 H421 0.951 . S
C440 C438 1.388 . S
C440 C441 1.366 . S
C441 C440 1.366 . S
C441 C442 1.414 . S
C441 C444 1.499 . S
C442 H422 0.950 . S
C442 C441 1.414 . S
C442 C443 1.374 . S
C443 H423 0.950 . S
C443 C439 1.385 . S
C443 C442 1.374 . S
C444 C441 1.499 . S
C444 C445 1.373 . S
C444 C446 1.389 . S
C445 H424 0.950 . S
C445 C444 1.373 . S
C445 C461 1.377 . S
C446 C444 1.389 . S
C446 C447 1.524 . S
C446 C460 1.377 . S
C447 C446 1.524 . S
C447 C448 1.397 . S
C447 C452 1.363 . S
C448 H425 0.950 . S
C448 C447 1.397 . S
C448 C449 1.334 . S
C449 H426 0.950 . S
C449 C448 1.334 . S
C449 C450 1.287 . S
C450 C449 1.287 . S
C450 C451 1.524 . S
C450 H469 0.913 . S
C451 H427 0.950 . S
C451 C450 1.524 . S
C451 C452 1.415 . S
C452 H428 0.950 . S
C452 C447 1.363 . S
C452 C451 1.415 . S
C453 H429 0.951 . S
C453 C454 1.366 . S
C453 C455 1.388 . S
C454 C453 1.366 . S
C454 C458 1.385 . S
C455 H430 0.951 . S
C455 C453 1.388 . S
C455 C456 1.366 . S
C456 C455 1.366 . S
C456 C457 1.414 . S
C456 C459 1.499 . S
C457 H431 0.950 . S
C457 C456 1.414 . S
C457 C458 1.374 . S
C458 H432 0.950 . S
C458 C454 1.385 . S
C458 C457 1.374 . S
C459 C456 1.499 . S
C459 C460 1.373 . S
C459 C461 1.389 . S
C460 H433 0.950 . S
C460 C446 1.377 . S
C460 C459 1.373 . S
C461 C445 1.377 . S
C461 C459 1.389 . S
C461 C462 1.524 . S
C462 C461 1.524 . S
C462 C463 1.397 . S
C462 C467 1.363 . S
C463 H434 0.950 . S
C463 C462 1.397 . S
C463 C464 1.334 . S
C464 H435 0.950 . S
C464 C463 1.334 . S
C464 C465 1.287 . S
C465 C464 1.287 . S
C465 C466 1.524 . S
C465 H468 0.999 . S
C466 H436 0.950 . S
C466 C465 1.524 . S
C466 C467 1.415 . S
C467 H437 0.950 . S
C467 C462 1.363 . S
C467 C466 1.415 . S
H468 C465 0.999 . S
H469 C450 0.913 . S
H470 C488 0.951 . S
H471 C490 0.951 . S
H472 C492 0.950 . S
H473 C493 0.950 . S
H474 C495 0.950 . S
H475 C498 0.950 . S
H476 C499 0.950 . S
H477 C501 0.950 . S
H478 C502 0.950 . S
H479 C503 0.951 . S
H480 C505 0.951 . S
H481 C507 0.950 . S
H482 C508 0.950 . S
H483 C510 0.950 . S
H484 C513 0.950 . S
H485 C514 0.950 . S
H486 C516 0.950 . S
H487 C517 0.950 . S
C488 H470 0.951 . S
C488 C489 1.366 . S
C488 C490 1.388 . S
C489 C488 1.366 . S
C489 C493 1.385 . S
C490 H471 0.951 . S
C490 C488 1.388 . S
C490 C491 1.366 . S
C491 C490 1.366 . S
C491 C492 1.414 . S
C491 C494 1.499 . S
C492 H472 0.950 . S
C492 C491 1.414 . S
C492 C493 1.374 . S
C493 H473 0.950 . S
C493 C489 1.385 . S
C493 C492 1.374 . S
C494 C491 1.499 . S
C494 C495 1.373 . S
C494 C496 1.389 . S
C495 H474 0.950 . S
C495 C494 1.373 . S
C495 C511 1.377 . S
C496 C494 1.389 . S
C496 C497 1.524 . S
C496 C510 1.377 . S
C497 C496 1.524 . S
C497 C498 1.397 . S
C497 C502 1.363 . S
C498 H475 0.950 . S
C498 C497 1.397 . S
C498 C499 1.334 . S
C499 H476 0.950 . S
C499 C498 1.334 . S
C499 C500 1.287 . S
C500 C499 1.287 . S
C500 C501 1.524 . S
C500 H519 0.913 . S
C501 H477 0.950 . S
C501 C500 1.524 . S
C501 C502 1.415 . S
C502 H478 0.950 . S
C502 C497 1.363 . S
C502 C501 1.415 . S
C503 H479 0.951 . S
C503 C504 1.366 . S
C503 C505 1.388 . S
C504 C503 1.366 . S
C504 C508 1.385 . S
C505 H480 0.951 . S
C505 C503 1.388 . S
C505 C506 1.366 . S
C506 C505 1.366 . S
C506 C507 1.414 . S
C506 C509 1.499 . S
C507 H481 0.950 . S
C507 C506 1.414 . S
C507 C508 1.374 . S
C508 H482 0.950 . S
C508 C504 1.385 . S
C508 C507 1.374 . S
C509 C506 1.499 . S
C509 C510 1.373 . S
C509 C511 1.389 . S
C510 H483 0.950 . S
C510 C496 1.377 . S
C510 C509 1.373 . S
C511 C495 1.377 . S
C511 C509 1.389 . S
C511 C512 1.524 . S
C512 C511 1.524 . S
C512 C513 1.397 . S
C512 C517 1.363 . S
C513 H484 0.950 . S
C513 C512 1.397 . S
C513 C514 1.334 . S
C514 H485 0.950 . S
C514 C513 1.334 . S
C514 C515 1.287 . S
C515 C514 1.287 . S
C515 C516 1.524 . S
C515 H518 0.999 . S
C516 H486 0.950 . S
C516 C515 1.524 . S
C516 C517 1.415 . S
C517 H487 0.950 . S
C517 C512 1.363 . S
C517 C516 1.415 . S
H518 C515 0.999 . S
H519 C500 0.913 . S
H520 C538 0.951 . S
H521 C540 0.951 . S
H522 C542 0.950 . S
H523 C543 0.950 . S
H524 C545 0.950 . S
H525 C548 0.950 . S
H526 C549 0.950 . S
H527 C551 0.950 . S
H528 C552 0.950 . S
H529 C553 0.951 . S
H530 C555 0.951 . S
H531 C557 0.950 . S
H532 C558 0.950 . S
H533 C560 0.950 . S
H534 C563 0.950 . S
H535 C564 0.950 . S
H536 C566 0.950 . S
H537 C567 0.950 . S
C538 H520 0.951 . S
C538 C539 1.366 . S
C538 C540 1.388 . S
C539 C538 1.366 . S
C539 C543 1.385 . S
C540 H521 0.951 . S
C540 C538 1.388 . S
C540 C541 1.366 . S
C541 C540 1.366 . S
C541 C542 1.414 . S
C541 C544 1.499 . S
C542 H522 0.950 . S
C542 C541 1.414 . S
C542 C543 1.374 . S
C543 H523 0.950 . S
C543 C539 1.385 . S
C543 C542 1.374 . S
C544 C541 1.499 . S
C544 C545 1.373 . S
C544 C546 1.389 . S
C545 H524 0.950 . S
C545 C544 1.373 . S
C545 C561 1.377 . S
C546 C544 1.389 . S
C546 C547 1.524 . S
C546 C560 1.377 . S
C547 C546 1.524 . S
C547 C548 1.397 . S
C547 C552 1.363 . S
C548 H525 0.950 . S
C548 C547 1.397 . S
C548 C549 1.334 . S
C549 H526 0.950 . S
C549 C548 1.334 . S
C549 C550 1.287 . S
C550 C549 1.287 . S
C550 C551 1.524 . S
C550 H569 0.913 . S
C551 H527 0.950 . S
C551 C550 1.524 . S
C551 C552 1.415 . S
C552 H528 0.950 . S
C552 C547 1.363 . S
C552 C551 1.415 . S
C553 H529 0.951 . S
C553 C554 1.366 . S
C553 C555 1.388 . S
C554 C553 1.366 . S
C554 C558 1.385 . S
C555 H530 0.951 . S
C555 C553 1.388 . S
C555 C556 1.366 . S
C556 C555 1.366 . S
C556 C557 1.414 . S
C556 C559 1.499 . S
C557 H531 0.950 . S
C557 C556 1.414 . S
C557 C558 1.374 . S
C558 H532 0.950 . S
C558 C554 1.385 . S
C558 C557 1.374 . S
C559 C556 1.499 . S
C559 C560 1.373 . S
C559 C561 1.389 . S
C560 H533 0.950 . S
C560 C546 1.377 . S
C560 C559 1.373 . S
C561 C545 1.377 . S
C561 C559 1.389 . S
C561 C562 1.524 . S
C562 C561 1.524 . S
C562 C563 1.397 . S
C562 C567 1.363 . S
C563 H534 0.950 . S
C563 C562 1.397 . S
C563 C564 1.334 . S
C564 H535 0.950 . S
C564 C563 1.334 . S
C564 C565 1.287 . S
C565 C564 1.287 . S
C565 C566 1.524 . S
C565 H568 0.999 . S
C566 H536 0.950 . S
C566 C565 1.524 . S
C566 C567 1.415 . S
C567 H537 0.950 . S
C567 C562 1.363 . S
C567 C566 1.415 . S
H568 C565 0.999 . S
H569 C550 0.913 . S
H570 C588 0.951 . S
H571 C590 0.951 . S
H572 C592 0.950 . S
H573 C593 0.950 . S
H574 C595 0.950 . S
H575 C598 0.950 . S
H576 C599 0.950 . S
H577 C601 0.950 . S
H578 C602 0.950 . S
H579 C603 0.951 . S
H580 C605 0.951 . S
H581 C607 0.950 . S
H582 C608 0.950 . S
H583 C610 0.950 . S
H584 C613 0.950 . S
H585 C614 0.950 . S
H586 C616 0.950 . S
H587 C617 0.950 . S
C588 H570 0.951 . S
C588 C589 1.366 . S
C588 C590 1.388 . S
C589 C588 1.366 . S
C589 C593 1.385 . S
C590 H571 0.951 . S
C590 C588 1.388 . S
C590 C591 1.366 . S
C591 C590 1.366 . S
C591 C592 1.414 . S
C591 C594 1.499 . S
C592 H572 0.950 . S
C592 C591 1.414 . S
C592 C593 1.374 . S
C593 H573 0.950 . S
C593 C589 1.385 . S
C593 C592 1.374 . S
C594 C591 1.499 . S
C594 C595 1.373 . S
C594 C596 1.389 . S
C595 H574 0.950 . S
C595 C594 1.373 . S
C595 C611 1.377 . S
C596 C594 1.389 . S
C596 C597 1.524 . S
C596 C610 1.377 . S
C597 C596 1.524 . S
C597 C598 1.397 . S
C597 C602 1.363 . S
C598 H575 0.950 . S
C598 C597 1.397 . S
C598 C599 1.334 . S
C599 H576 0.950 . S
C599 C598 1.334 . S
C599 C600 1.287 . S
C600 C599 1.287 . S
C600 C601 1.524 . S
C600 H619 0.913 . S
C601 H577 0.950 . S
C601 C600 1.524 . S
C601 C602 1.415 . S
C602 H578 0.950 . S
C602 C597 1.363 . S
C602 C601 1.415 . S
C603 H579 0.951 . S
C603 C604 1.366 . S
C603 C605 1.388 . S
C604 C603 1.366 . S
C604 C608 1.385 . S
C605 H580 0.951 . S
C605 C603 1.388 . S
C605 C606 1.366 . S
C606 C605 1.366 . S
C606 C607 1.414 . S
C606 C609 1.499 . S
C607 H581 0.950 . S
C607 C606 1.414 . S
C607 C608 1.374 . S
C608 H582 0.950 . S
C608 C604 1.385 . S
C608 C607 1.374 . S
C609 C606 1.499 . S
C609 C610 1.373 . S
C609 C611 1.389 . S
C610 H583 0.950 . S
C610 C596 1.377 . S
C610 C609 1.373 . S
C611 C595 1.377 . S
C611 C609 1.389 . S
C611 C612 1.524 . S
C612 C611 1.524 . S
C612 C613 1.397 . S
C612 C617 1.363 . S
C613 H584 0.950 . S
C613 C612 1.397 . S
C613 C614 1.334 . S
C614 H585 0.950 . S
C614 C613 1.334 . S
C614 C615 1.287 . S
C615 C614 1.287 . S
C615 C616 1.524 . S
C615 H618 0.999 . S
C616 H586 0.950 . S
C616 C615 1.524 . S
C616 C617 1.415 . S
C617 H587 0.950 . S
C617 C612 1.363 . S
C617 C616 1.415 . S
H618 C615 0.999 . S
H619 C600 0.913 . S
H620 C638 0.951 . S
H621 C640 0.951 . S
H622 C642 0.950 . S
H623 C643 0.950 . S
H624 C645 0.950 . S
H625 C648 0.950 . S
H626 C649 0.950 . S
H627 C651 0.950 . S
H628 C652 0.950 . S
H629 C653 0.951 1_556 S
H630 C655 0.951 . S
H631 C657 0.950 . S
H632 C658 0.950 . S
H633 C660 0.950 . S
H634 C663 0.950 . S
H635 C664 0.950 . S
H636 C666 0.950 . S
H637 C667 0.950 . S
C638 H620 0.951 . S
C638 C639 1.366 . S
C638 C640 1.388 . S
C639 C638 1.366 . S
C639 C643 1.385 . S
C640 H621 0.951 . S
C640 C638 1.388 . S
C640 C641 1.366 . S
C641 C640 1.366 . S
C641 C642 1.414 . S
C641 C644 1.499 . S
C642 H622 0.950 . S
C642 C641 1.414 . S
C642 C643 1.374 . S
C643 H623 0.950 . S
C643 C639 1.385 . S
C643 C642 1.374 . S
C644 C641 1.499 . S
C644 C645 1.373 . S
C644 C646 1.389 . S
C645 H624 0.950 . S
C645 C644 1.373 . S
C645 C661 1.377 . S
C646 C644 1.389 . S
C646 C647 1.524 . S
C646 C660 1.377 . S
C647 C646 1.524 . S
C647 C648 1.397 . S
C647 C652 1.363 . S
C648 H625 0.950 . S
C648 C647 1.397 . S
C648 C649 1.334 . S
C649 H626 0.950 . S
C649 C648 1.334 . S
C649 C650 1.287 . S
C650 C649 1.287 . S
C650 C651 1.524 . S
C650 H669 0.913 . S
C651 H627 0.950 . S
C651 C650 1.524 . S
C651 C652 1.415 . S
C652 H628 0.950 . S
C652 C647 1.363 . S
C652 C651 1.415 . S
C653 H629 0.951 1_554 S
C653 C654 1.366 . S
C653 C655 1.388 . S
C654 C653 1.366 . S
C654 C658 1.385 . S
C655 H630 0.951 . S
C655 C653 1.388 . S
C655 C656 1.366 . S
C656 C655 1.366 . S
C656 C657 1.414 . S
C656 C659 1.499 . S
C657 H631 0.950 . S
C657 C656 1.414 . S
C657 C658 1.374 . S
C658 H632 0.950 . S
C658 C654 1.385 . S
C658 C657 1.374 . S
C659 C656 1.499 . S
C659 C660 1.373 . S
C659 C661 1.389 . S
C660 H633 0.950 . S
C660 C646 1.377 . S
C660 C659 1.373 . S
C661 C645 1.377 . S
C661 C659 1.389 . S
C661 C662 1.524 . S
C662 C661 1.524 . S
C662 C663 1.397 . S
C662 C667 1.363 . S
C663 H634 0.950 . S
C663 C662 1.397 . S
C663 C664 1.334 . S
C664 H635 0.950 . S
C664 C663 1.334 . S
C664 C665 1.287 1_554 S
C665 C664 1.287 1_556 S
C665 C666 1.524 . S
C665 H668 0.999 . S
C666 H636 0.950 . S
C666 C665 1.524 . S
C666 C667 1.415 1_556 S
C667 H637 0.950 . S
C667 C662 1.363 . S
C667 C666 1.415 1_554 S
H668 C665 0.999 . S
H669 C650 0.913 . S
H670 C688 0.951 . S
H671 C690 0.951 . S
H672 C692 0.950 . S
H673 C693 0.950 . S
H674 C695 0.950 . S
H675 C698 0.950 . S
H676 C699 0.950 . S
H677 C701 0.950 . S
H678 C702 0.950 . S
H679 C703 0.951 . S
H680 C705 0.951 . S
H681 C707 0.950 . S
H682 C708 0.950 . S
H683 C710 0.950 . S
H684 C713 0.950 . S
H685 C714 0.950 . S
H686 C716 0.950 . S
H687 C717 0.950 . S
C688 H670 0.951 . S
C688 C689 1.366 . S
C688 C690 1.388 . S
C689 C688 1.366 . S
C689 C693 1.385 . S
C690 H671 0.951 . S
C690 C688 1.388 . S
C690 C691 1.366 . S
C691 C690 1.366 . S
C691 C692 1.414 . S
C691 C694 1.499 . S
C692 H672 0.950 . S
C692 C691 1.414 . S
C692 C693 1.374 . S
C693 H673 0.950 . S
C693 C689 1.385 . S
C693 C692 1.374 . S
C694 C691 1.499 . S
C694 C695 1.373 . S
C694 C696 1.389 . S
C695 H674 0.950 . S
C695 C694 1.373 . S
C695 C711 1.377 . S
C696 C694 1.389 . S
C696 C697 1.524 . S
C696 C710 1.377 . S
C697 C696 1.524 . S
C697 C698 1.397 . S
C697 C702 1.363 . S
C698 H675 0.950 . S
C698 C697 1.397 . S
C698 C699 1.334 . S
C699 H676 0.950 . S
C699 C698 1.334 . S
C699 C700 1.287 . S
C700 C699 1.287 . S
C700 C701 1.524 . S
C700 H719 0.913 . S
C701 H677 0.950 . S
C701 C700 1.524 . S
C701 C702 1.415 . S
C702 H678 0.950 . S
C702 C697 1.363 . S
C702 C701 1.415 . S
C703 H679 0.951 . S
C703 C704 1.366 . S
C703 C705 1.388 . S
C704 C703 1.366 . S
C704 C708 1.385 . S
C705 H680 0.951 . S
C705 C703 1.388 . S
C705 C706 1.366 . S
C706 C705 1.366 . S
C706 C707 1.414 . S
C706 C709 1.499 . S
C707 H681 0.950 . S
C707 C706 1.414 . S
C707 C708 1.374 . S
C708 H682 0.950 . S
C708 C704 1.385 . S
C708 C707 1.374 . S
C709 C706 1.499 . S
C709 C710 1.373 . S
C709 C711 1.389 . S
C710 H683 0.950 . S
C710 C696 1.377 . S
C710 C709 1.373 . S
C711 C695 1.377 . S
C711 C709 1.389 . S
C711 C712 1.524 . S
C712 C711 1.524 . S
C712 C713 1.397 . S
C712 C717 1.363 . S
C713 H684 0.950 . S
C713 C712 1.397 . S
C713 C714 1.334 . S
C714 H685 0.950 . S
C714 C713 1.334 . S
C714 C715 1.287 . S
C715 C714 1.287 . S
C715 C716 1.524 . S
C715 H718 0.970 1_565 S
C716 H686 0.950 . S
C716 C715 1.524 . S
C716 C717 1.415 . S
C717 H687 0.950 . S
C717 C712 1.363 . S
C717 C716 1.415 . S
H718 C715 0.970 1_545 S
H719 C700 0.913 . S
H720 C738 0.951 . S
H721 C740 0.951 . S
H722 C742 0.950 . S
H723 C743 0.950 . S
H724 C745 0.950 . S
H725 C748 0.950 . S
H726 C749 0.950 . S
H727 C751 0.950 . S
H728 C752 0.950 . S
H729 C753 0.951 . S
H730 C755 0.951 . S
H731 C757 0.950 . S
H732 C758 0.950 . S
H733 C760 0.950 . S
H734 C763 0.950 . S
H735 C764 0.950 . S
H736 C766 0.950 . S
H737 C767 0.950 . S
C738 H720 0.951 . S
C738 C739 1.366 . S
C738 C740 1.388 . S
C739 C738 1.366 . S
C739 C743 1.385 . S
C740 H721 0.951 . S
C740 C738 1.388 . S
C740 C741 1.366 . S
C741 C740 1.366 . S
C741 C742 1.414 . S
C741 C744 1.499 . S
C742 H722 0.950 . S
C742 C741 1.414 . S
C742 C743 1.374 . S
C743 H723 0.950 . S
C743 C739 1.385 . S
C743 C742 1.374 . S
C744 C741 1.499 . S
C744 C745 1.373 . S
C744 C746 1.389 . S
C745 H724 0.950 . S
C745 C744 1.373 . S
C745 C761 1.377 . S
C746 C744 1.389 . S
C746 C747 1.524 . S
C746 C760 1.377 . S
C747 C746 1.524 . S
C747 C748 1.397 . S
C747 C752 1.363 . S
C748 H725 0.950 . S
C748 C747 1.397 . S
C748 C749 1.334 . S
C749 H726 0.950 . S
C749 C748 1.334 . S
C749 C750 1.287 . S
C750 C749 1.287 . S
C750 C751 1.524 . S
C750 H769 0.913 . S
C751 H727 0.950 . S
C751 C750 1.524 . S
C751 C752 1.415 . S
C752 H728 0.950 . S
C752 C747 1.363 . S
C752 C751 1.415 . S
C753 H729 0.951 . S
C753 C754 1.366 . S
C753 C755 1.388 . S
C754 C753 1.366 . S
C754 C758 1.385 . S
C755 H730 0.951 . S
C755 C753 1.388 . S
C755 C756 1.366 . S
C756 C755 1.366 . S
C756 C757 1.414 . S
C756 C759 1.499 . S
C757 H731 0.950 . S
C757 C756 1.414 . S
C757 C758 1.374 . S
C758 H732 0.950 . S
C758 C754 1.385 . S
C758 C757 1.374 . S
C759 C756 1.499 . S
C759 C760 1.373 . S
C759 C761 1.389 . S
C760 H733 0.950 . S
C760 C746 1.377 . S
C760 C759 1.373 . S
C761 C745 1.377 . S
C761 C759 1.389 . S
C761 C762 1.524 . S
C762 C761 1.524 . S
C762 C763 1.397 . S
C762 C767 1.363 . S
C763 H734 0.950 . S
C763 C762 1.397 . S
C763 C764 1.334 . S
C764 H735 0.950 . S
C764 C763 1.334 . S
C764 C765 1.287 . S
C765 C764 1.287 . S
C765 C766 1.524 . S
C765 H768 0.999 . S
C766 H736 0.950 . S
C766 C765 1.524 . S
C766 C767 1.415 . S
C767 H737 0.950 . S
C767 C762 1.363 . S
C767 C766 1.415 . S
H768 C765 0.999 . S
H769 C750 0.913 . S
H770 C788 0.951 . S
H771 C790 0.951 . S
H772 C792 0.950 . S
H773 C793 0.950 . S
H774 C795 0.950 . S
H775 C798 0.950 . S
H776 C799 0.950 . S
H777 C801 0.950 . S
H778 C802 0.950 . S
H779 C803 0.951 1_556 S
H780 C805 0.951 . S
H781 C807 0.950 . S
H782 C808 0.950 . S
H783 C810 0.950 . S
H784 C813 0.950 . S
H785 C814 0.950 . S
H786 C816 0.950 . S
H787 C817 0.950 . S
C788 H770 0.951 . S
C788 C789 1.366 . S
C788 C790 1.388 . S
C789 C788 1.366 . S
C789 C793 1.385 . S
C790 H771 0.951 . S
C790 C788 1.388 . S
C790 C791 1.366 . S
C791 C790 1.366 . S
C791 C792 1.414 . S
C791 C794 1.499 . S
C792 H772 0.950 . S
C792 C791 1.414 . S
C792 C793 1.374 . S
C793 H773 0.950 . S
C793 C789 1.385 . S
C793 C792 1.374 . S
C794 C791 1.499 . S
C794 C795 1.373 . S
C794 C796 1.389 . S
C795 H774 0.950 . S
C795 C794 1.373 . S
C795 C811 1.377 . S
C796 C794 1.389 . S
C796 C797 1.524 . S
C796 C810 1.377 . S
C797 C796 1.524 . S
C797 C798 1.397 . S
C797 C802 1.363 . S
C798 H775 0.950 . S
C798 C797 1.397 . S
C798 C799 1.334 . S
C799 H776 0.950 . S
C799 C798 1.334 . S
C799 C800 1.287 . S
C800 C799 1.287 . S
C800 C801 1.524 . S
C800 H819 0.913 . S
C801 H777 0.950 . S
C801 C800 1.524 . S
C801 C802 1.415 . S
C802 H778 0.950 . S
C802 C797 1.363 . S
C802 C801 1.415 . S
C803 H779 0.951 1_554 S
C803 C804 1.366 . S
C803 C805 1.388 . S
C804 C803 1.366 . S
C804 C808 1.385 . S
C805 H780 0.951 . S
C805 C803 1.388 . S
C805 C806 1.366 . S
C806 C805 1.366 . S
C806 C807 1.414 . S
C806 C809 1.499 . S
C807 H781 0.950 . S
C807 C806 1.414 . S
C807 C808 1.374 . S
C808 H782 0.950 . S
C808 C804 1.385 . S
C808 C807 1.374 . S
C809 C806 1.499 . S
C809 C810 1.373 . S
C809 C811 1.389 . S
C810 H783 0.950 . S
C810 C796 1.377 . S
C810 C809 1.373 . S
C811 C795 1.377 . S
C811 C809 1.389 . S
C811 C812 1.524 . S
C812 C811 1.524 . S
C812 C813 1.397 . S
C812 C817 1.363 . S
C813 H784 0.950 . S
C813 C812 1.397 . S
C813 C814 1.334 . S
C814 H785 0.950 . S
C814 C813 1.334 . S
C814 C815 1.287 1_554 S
C815 C814 1.287 1_556 S
C815 C816 1.524 . S
C815 H818 0.999 . S
C816 H786 0.950 . S
C816 C815 1.524 . S
C816 C817 1.415 1_556 S
C817 H787 0.950 . S
C817 C812 1.363 . S
C817 C816 1.415 1_554 S
H818 C815 0.999 . S
H819 C800 0.913 . S
H820 C838 0.951 . S
H821 C840 0.951 . S
H822 C842 0.950 . S
H823 C843 0.950 . S
H824 C845 0.950 . S
H825 C848 0.950 . S
H826 C849 0.950 . S
H827 C851 0.950 . S
H828 C852 0.950 . S
H829 C853 0.951 . S
H830 C855 0.951 . S
H831 C857 0.950 . S
H832 C858 0.950 . S
H833 C860 0.950 . S
H834 C863 0.950 . S
H835 C864 0.950 . S
H836 C866 0.950 . S
H837 C867 0.950 . S
C838 H820 0.951 . S
C838 C839 1.366 . S
C838 C840 1.388 . S
C839 C838 1.366 . S
C839 C843 1.385 . S
C840 H821 0.951 . S
C840 C838 1.388 . S
C840 C841 1.366 . S
C841 C840 1.366 . S
C841 C842 1.414 . S
C841 C844 1.499 . S
C842 H822 0.950 . S
C842 C841 1.414 . S
C842 C843 1.374 . S
C843 H823 0.950 . S
C843 C839 1.385 . S
C843 C842 1.374 . S
C844 C841 1.499 . S
C844 C845 1.373 . S
C844 C846 1.389 . S
C845 H824 0.950 . S
C845 C844 1.373 . S
C845 C861 1.377 . S
C846 C844 1.389 . S
C846 C847 1.524 . S
C846 C860 1.377 . S
C847 C846 1.524 . S
C847 C848 1.397 . S
C847 C852 1.363 . S
C848 H825 0.950 . S
C848 C847 1.397 . S
C848 C849 1.334 . S
C849 H826 0.950 . S
C849 C848 1.334 . S
C849 C850 1.287 . S
C850 C849 1.287 . S
C850 C851 1.524 . S
C850 H869 0.913 . S
C851 H827 0.950 . S
C851 C850 1.524 . S
C851 C852 1.415 . S
C852 H828 0.950 . S
C852 C847 1.363 . S
C852 C851 1.415 . S
C853 H829 0.951 . S
C853 C854 1.366 . S
C853 C855 1.388 . S
C854 C853 1.366 . S
C854 C858 1.385 . S
C855 H830 0.951 . S
C855 C853 1.388 . S
C855 C856 1.366 . S
C856 C855 1.366 . S
C856 C857 1.414 . S
C856 C859 1.499 . S
C857 H831 0.950 . S
C857 C856 1.414 . S
C857 C858 1.374 . S
C858 H832 0.950 . S
C858 C854 1.385 . S
C858 C857 1.374 . S
C859 C856 1.499 . S
C859 C860 1.373 . S
C859 C861 1.389 . S
C860 H833 0.950 . S
C860 C846 1.377 . S
C860 C859 1.373 . S
C861 C845 1.377 . S
C861 C859 1.389 . S
C861 C862 1.524 . S
C862 C861 1.524 . S
C862 C863 1.397 . S
C862 C867 1.363 . S
C863 H834 0.950 . S
C863 C862 1.397 . S
C863 C864 1.334 . S
C864 H835 0.950 . S
C864 C863 1.334 . S
C864 C865 1.287 . S
C865 C864 1.287 . S
C865 C866 1.524 . S
C865 H868 0.999 . S
C866 H836 0.950 . S
C866 C865 1.524 . S
C866 C867 1.415 . S
C867 H837 0.950 . S
C867 C862 1.363 . S
C867 C866 1.415 . S
H868 C865 0.999 . S
H869 C850 0.913 . S
H870 C888 0.951 . S
H871 C890 0.951 . S
H872 C892 0.950 . S
H873 C893 0.950 . S
H874 C895 0.950 . S
H875 C898 0.950 . S
H876 C899 0.950 . S
H877 C901 0.950 . S
H878 C902 0.950 . S
H879 C903 0.951 . S
H880 C905 0.951 . S
H881 C907 0.950 . S
H882 C908 0.950 . S
H883 C910 0.950 . S
H884 C913 0.950 . S
H885 C914 0.950 . S
H886 C916 0.950 . S
H887 C917 0.950 . S
C888 H870 0.951 . S
C888 C889 1.366 . S
C888 C890 1.388 . S
C889 C888 1.366 . S
C889 C893 1.385 . S
C890 H871 0.951 . S
C890 C888 1.388 . S
C890 C891 1.366 . S
C891 C890 1.366 . S
C891 C892 1.414 . S
C891 C894 1.499 . S
C892 H872 0.950 . S
C892 C891 1.414 . S
C892 C893 1.374 . S
C893 H873 0.950 . S
C893 C889 1.385 . S
C893 C892 1.374 . S
C894 C891 1.499 . S
C894 C895 1.373 . S
C894 C896 1.389 . S
C895 H874 0.950 . S
C895 C894 1.373 . S
C895 C911 1.377 . S
C896 C894 1.389 . S
C896 C897 1.524 . S
C896 C910 1.377 . S
C897 C896 1.524 . S
C897 C898 1.397 . S
C897 C902 1.363 . S
C898 H875 0.950 . S
C898 C897 1.397 . S
C898 C899 1.334 . S
C899 H876 0.950 . S
C899 C898 1.334 . S
C899 C900 1.287 . S
C900 C899 1.287 . S
C900 C901 1.524 . S
C900 H919 0.913 . S
C901 H877 0.950 . S
C901 C900 1.524 . S
C901 C902 1.415 . S
C902 H878 0.950 . S
C902 C897 1.363 . S
C902 C901 1.415 . S
C903 H879 0.951 . S
C903 C904 1.366 . S
C903 C905 1.388 . S
C904 C903 1.366 . S
C904 C908 1.385 . S
C905 H880 0.951 . S
C905 C903 1.388 . S
C905 C906 1.366 . S
C906 C905 1.366 . S
C906 C907 1.414 . S
C906 C909 1.499 . S
C907 H881 0.950 . S
C907 C906 1.414 . S
C907 C908 1.374 . S
C908 H882 0.950 . S
C908 C904 1.385 . S
C908 C907 1.374 . S
C909 C906 1.499 . S
C909 C910 1.373 . S
C909 C911 1.389 . S
C910 H883 0.950 . S
C910 C896 1.377 . S
C910 C909 1.373 . S
C911 C895 1.377 . S
C911 C909 1.389 . S
C911 C912 1.524 . S
C912 C911 1.524 . S
C912 C913 1.397 . S
C912 C917 1.363 . S
C913 H884 0.950 . S
C913 C912 1.397 . S
C913 C914 1.334 . S
C914 H885 0.950 . S
C914 C913 1.334 . S
C914 C915 1.287 . S
C915 C914 1.287 . S
C915 C916 1.524 . S
C915 H918 0.999 . S
C916 H886 0.950 . S
C916 C915 1.524 . S
C916 C917 1.415 . S
C917 H887 0.950 . S
C917 C912 1.363 . S
C917 C916 1.415 . S
H918 C915 0.999 . S
H919 C900 0.913 . S
H920 C938 0.951 . S
H921 C940 0.951 . S
H922 C942 0.950 . S
H923 C943 0.950 . S
H924 C945 0.950 . S
H925 C948 0.950 . S
H926 C949 0.950 . S
H927 C951 0.950 1_556 S
H928 C952 0.950 . S
H929 C953 0.951 . S
H930 C955 0.951 . S
H931 C957 0.950 . S
H932 C958 0.950 . S
H933 C960 0.950 . S
H934 C963 0.950 . S
H935 C964 0.950 . S
H936 C966 0.950 . S
H937 C967 0.950 . S
C938 H920 0.951 . S
C938 C939 1.366 . S
C938 C940 1.388 . S
C939 C938 1.366 . S
C939 C943 1.385 . S
C940 H921 0.951 . S
C940 C938 1.388 . S
C940 C941 1.366 . S
C941 C940 1.366 . S
C941 C942 1.414 . S
C941 C944 1.499 . S
C942 H922 0.950 . S
C942 C941 1.414 . S
C942 C943 1.374 . S
C943 H923 0.950 . S
C943 C939 1.385 . S
C943 C942 1.374 . S
C944 C941 1.499 . S
C944 C945 1.373 . S
C944 C946 1.389 . S
C945 H924 0.950 . S
C945 C944 1.373 . S
C945 C961 1.377 . S
C946 C944 1.389 . S
C946 C947 1.524 . S
C946 C960 1.377 . S
C947 C946 1.524 . S
C947 C948 1.397 . S
C947 C952 1.363 . S
C948 H925 0.950 . S
C948 C947 1.397 . S
C948 C949 1.334 . S
C949 H926 0.950 . S
C949 C948 1.334 . S
C949 C950 1.287 . S
C950 C949 1.287 . S
C950 C951 1.524 . S
C950 H969 0.913 . S
C951 H927 0.950 1_554 S
C951 C950 1.524 . S
C951 C952 1.415 . S
C952 H928 0.950 . S
C952 C947 1.363 . S
C952 C951 1.415 . S
C953 H929 0.951 . S
C953 C954 1.366 . S
C953 C955 1.388 . S
C954 C953 1.366 . S
C954 C958 1.385 . S
C955 H930 0.951 . S
C955 C953 1.388 . S
C955 C956 1.366 . S
C956 C955 1.366 . S
C956 C957 1.414 . S
C956 C959 1.499 . S
C957 H931 0.950 . S
C957 C956 1.414 . S
C957 C958 1.374 . S
C958 H932 0.950 . S
C958 C954 1.385 . S
C958 C957 1.374 . S
C959 C956 1.499 . S
C959 C960 1.373 . S
C959 C961 1.389 . S
C960 H933 0.950 . S
C960 C946 1.377 . S
C960 C959 1.373 . S
C961 C945 1.377 . S
C961 C959 1.389 . S
C961 C962 1.524 . S
C962 C961 1.524 . S
C962 C963 1.397 . S
C962 C967 1.363 . S
C963 H934 0.950 . S
C963 C962 1.397 . S
C963 C964 1.334 . S
C964 H935 0.950 . S
C964 C963 1.334 . S
C964 C965 1.287 . S
C965 C964 1.287 . S
C965 C966 1.524 . S
C965 H968 0.999 . S
C966 H936 0.950 . S
C966 C965 1.524 . S
C966 C967 1.415 . S
C967 H937 0.950 . S
C967 C962 1.363 . S
C967 C966 1.415 . S
H968 C965 0.999 . S
H969 C950 0.913 . S
H970 C988 0.951 . S
H971 C990 0.951 . S
H972 C992 0.950 . S
H973 C993 0.950 . S
H974 C995 0.950 . S
H975 C998 0.950 . S
H976 C999 0.950 . S
H977 C1001 0.950 . S
H978 C1002 0.950 . S
H979 C1003 0.951 . S
H980 C1005 0.951 . S
H981 C1007 0.950 . S
H982 C1008 0.950 . S
H983 C1010 0.950 . S
H984 C1013 0.950 . S
H985 C1014 0.950 . S
H986 C1016 0.950 . S
H987 C1017 0.950 . S
C988 H970 0.951 . S
C988 C989 1.366 . S
C988 C990 1.388 . S
C989 C988 1.366 . S
C989 C993 1.385 . S
C990 H971 0.951 . S
C990 C988 1.388 . S
C990 C991 1.366 . S
C991 C990 1.366 . S
C991 C992 1.414 . S
C991 C994 1.499 . S
C992 H972 0.950 . S
C992 C991 1.414 . S
C992 C993 1.374 . S
C993 H973 0.950 . S
C993 C989 1.385 . S
C993 C992 1.374 . S
C994 C991 1.499 . S
C994 C995 1.373 . S
C994 C996 1.389 . S
C995 H974 0.950 . S
C995 C994 1.373 . S
C995 C1011 1.377 . S
C996 C994 1.389 . S
C996 C997 1.524 . S
C996 C1010 1.377 . S
C997 C996 1.524 . S
C997 C998 1.397 . S
C997 C1002 1.363 . S
C998 H975 0.950 . S
C998 C997 1.397 . S
C998 C999 1.334 1_556 S
C999 H976 0.950 . S
C999 C998 1.334 1_554 S
C999 C1000 1.287 1_554 S
C1000 C999 1.287 1_556 S
C1000 C1001 1.524 . S
C1000 H1019 0.913 1_556 S
C1001 H977 0.950 . S
C1001 C1000 1.524 . S
C1001 C1002 1.415 . S
C1002 H978 0.950 . S
C1002 C997 1.363 . S
C1002 C1001 1.415 . S
C1003 H979 0.951 . S
C1003 C1004 1.366 . S
C1003 C1005 1.388 . S
C1004 C1003 1.366 . S
C1004 C1008 1.385 . S
C1005 H980 0.951 . S
C1005 C1003 1.388 . S
C1005 C1006 1.366 . S
C1006 C1005 1.366 . S
C1006 C1007 1.414 . S
C1006 C1009 1.499 . S
C1007 H981 0.950 . S
C1007 C1006 1.414 . S
C1007 C1008 1.374 . S
C1008 H982 0.950 . S
C1008 C1004 1.385 . S
C1008 C1007 1.374 . S
C1009 C1006 1.499 . S
C1009 C1010 1.373 . S
C1009 C1011 1.389 . S
C1010 H983 0.950 . S
C1010 C996 1.377 . S
C1010 C1009 1.373 . S
C1011 C995 1.377 . S
C1011 C1009 1.389 . S
C1011 C1012 1.524 . S
C1012 C1011 1.524 . S
C1012 C1013 1.397 . S
C1012 C1017 1.363 . S
C1013 H984 0.950 . S
C1013 C1012 1.397 . S
C1013 C1014 1.334 . S
C1014 H985 0.950 . S
C1014 C1013 1.334 . S
C1014 C1015 1.287 . S
C1015 C1014 1.287 . S
C1015 C1016 1.524 . S
C1015 H1018 0.999 . S
C1016 H986 0.950 . S
C1016 C1015 1.524 . S
C1016 C1017 1.415 . S
C1017 H987 0.950 . S
C1017 C1012 1.363 . S
C1017 C1016 1.415 . S
H1018 C1015 0.999 . S
H1019 C1000 0.913 1_554 S
H1020 C1038 0.951 . S
H1021 C1040 0.951 . S
H1022 C1042 0.950 . S
H1023 C1043 0.950 . S
H1024 C1045 0.950 . S
H1025 C1048 0.950 . S
H1026 C1049 0.950 . S
H1027 C1051 0.950 . S
H1028 C1052 0.950 . S
H1029 C1053 0.951 . S
H1030 C1055 0.951 . S
H1031 C1057 0.950 . S
H1032 C1058 0.950 . S
H1033 C1060 0.950 . S
H1034 C1063 0.950 . S
H1035 C1064 0.950 . S
H1036 C1066 0.950 . S
H1037 C1067 0.950 . S
C1038 H1020 0.951 . S
C1038 C1039 1.366 . S
C1038 C1040 1.388 . S
C1039 C1038 1.366 . S
C1039 C1043 1.385 . S
C1040 H1021 0.951 . S
C1040 C1038 1.388 . S
C1040 C1041 1.366 . S
C1041 C1040 1.366 . S
C1041 C1042 1.414 . S
C1041 C1044 1.499 . S
C1042 H1022 0.950 . S
C1042 C1041 1.414 . S
C1042 C1043 1.374 . S
C1043 H1023 0.950 . S
C1043 C1039 1.385 . S
C1043 C1042 1.374 . S
C1044 C1041 1.499 . S
C1044 C1045 1.373 . S
C1044 C1046 1.389 . S
C1045 H1024 0.950 . S
C1045 C1044 1.373 . S
C1045 C1061 1.377 . S
C1046 C1044 1.389 . S
C1046 C1047 1.524 . S
C1046 C1060 1.377 . S
C1047 C1046 1.524 . S
C1047 C1048 1.397 . S
C1047 C1052 1.363 . S
C1048 H1025 0.950 . S
C1048 C1047 1.397 . S
C1048 C1049 1.334 . S
C1049 H1026 0.950 . S
C1049 C1048 1.334 . S
C1049 C1050 1.287 . S
C1050 C1049 1.287 . S
C1050 C1051 1.524 . S
C1050 H1069 0.913 . S
C1051 H1027 0.950 . S
C1051 C1050 1.524 . S
C1051 C1052 1.415 . S
C1052 H1028 0.950 . S
C1052 C1047 1.363 . S
C1052 C1051 1.415 . S
C1053 H1029 0.951 . S
C1053 C1054 1.366 . S
C1053 C1055 1.388 . S
C1054 C1053 1.366 . S
C1054 C1058 1.385 . S
C1055 H1030 0.951 . S
C1055 C1053 1.388 . S
C1055 C1056 1.366 . S
C1056 C1055 1.366 . S
C1056 C1057 1.414 . S
C1056 C1059 1.499 . S
C1057 H1031 0.950 . S
C1057 C1056 1.414 . S
C1057 C1058 1.374 . S
C1058 H1032 0.950 . S
C1058 C1054 1.385 . S
C1058 C1057 1.374 . S
C1059 C1056 1.499 . S
C1059 C1060 1.373 . S
C1059 C1061 1.389 . S
C1060 H1033 0.950 . S
C1060 C1046 1.377 . S
C1060 C1059 1.373 . S
C1061 C1045 1.377 . S
C1061 C1059 1.389 . S
C1061 C1062 1.524 . S
C1062 C1061 1.524 . S
C1062 C1063 1.397 . S
C1062 C1067 1.363 . S
C1063 H1034 0.950 . S
C1063 C1062 1.397 . S
C1063 C1064 1.334 . S
C1064 H1035 0.950 . S
C1064 C1063 1.334 . S
C1064 C1065 1.287 . S
C1065 C1064 1.287 . S
C1065 C1066 1.524 . S
C1065 H1068 0.999 . S
C1066 H1036 0.950 . S
C1066 C1065 1.524 . S
C1066 C1067 1.415 . S
C1067 H1037 0.950 . S
C1067 C1062 1.363 . S
C1067 C1066 1.415 . S
H1068 C1065 0.999 . S
H1069 C1050 0.913 . S
H1070 C1088 0.951 . S
H1071 C1090 0.951 . S
H1072 C1092 0.950 . S
H1073 C1093 0.950 . S
H1074 C1095 0.950 . S
H1075 C1098 0.950 . S
H1076 C1099 0.950 . S
H1077 C1101 0.950 . S
H1078 C1102 0.950 . S
H1079 C1103 0.951 . S
H1080 C1105 0.951 . S
H1081 C1107 0.950 . S
H1082 C1108 0.950 . S
H1083 C1110 0.950 . S
H1084 C1113 0.950 . S
H1085 C1114 0.950 . S
H1086 C1116 0.950 . S
H1087 C1117 0.950 . S
C1088 H1070 0.951 . S
C1088 C1089 1.366 . S
C1088 C1090 1.388 . S
C1089 C1088 1.366 . S
C1089 C1093 1.385 . S
C1090 H1071 0.951 . S
C1090 C1088 1.388 . S
C1090 C1091 1.366 . S
C1091 C1090 1.366 . S
C1091 C1092 1.414 . S
C1091 C1094 1.499 . S
C1092 H1072 0.950 . S
C1092 C1091 1.414 . S
C1092 C1093 1.374 . S
C1093 H1073 0.950 . S
C1093 C1089 1.385 . S
C1093 C1092 1.374 . S
C1094 C1091 1.499 . S
C1094 C1095 1.373 . S
C1094 C1096 1.389 . S
C1095 H1074 0.950 . S
C1095 C1094 1.373 . S
C1095 C1111 1.377 . S
C1096 C1094 1.389 . S
C1096 C1097 1.524 . S
C1096 C1110 1.377 . S
C1097 C1096 1.524 . S
C1097 C1098 1.397 . S
C1097 C1102 1.363 . S
C1098 H1075 0.950 . S
C1098 C1097 1.397 . S
C1098 C1099 1.334 . S
C1099 H1076 0.950 . S
C1099 C1098 1.334 . S
C1099 C1100 1.287 . S
C1100 C1099 1.287 . S
C1100 C1101 1.524 . S
C1100 H1119 0.913 . S
C1101 H1077 0.950 . S
C1101 C1100 1.524 . S
C1101 C1102 1.415 . S
C1102 H1078 0.950 . S
C1102 C1097 1.363 . S
C1102 C1101 1.415 . S
C1103 H1079 0.951 . S
C1103 C1104 1.366 . S
C1103 C1105 1.388 . S
C1104 C1103 1.366 . S
C1104 C1108 1.385 . S
C1105 H1080 0.951 . S
C1105 C1103 1.388 . S
C1105 C1106 1.366 . S
C1106 C1105 1.366 . S
C1106 C1107 1.414 . S
C1106 C1109 1.499 . S
C1107 H1081 0.950 . S
C1107 C1106 1.414 . S
C1107 C1108 1.374 . S
C1108 H1082 0.950 . S
C1108 C1104 1.385 . S
C1108 C1107 1.374 . S
C1109 C1106 1.499 . S
C1109 C1110 1.373 . S
C1109 C1111 1.389 . S
C1110 H1083 0.950 . S
C1110 C1096 1.377 . S
C1110 C1109 1.373 . S
C1111 C1095 1.377 . S
C1111 C1109 1.389 . S
C1111 C1112 1.524 . S
C1112 C1111 1.524 . S
C1112 C1113 1.397 . S
C1112 C1117 1.363 . S
C1113 H1084 0.950 . S
C1113 C1112 1.397 . S
C1113 C1114 1.334 . S
C1114 H1085 0.950 . S
C1114 C1113 1.334 . S
C1114 C1115 1.287 . S
C1115 C1114 1.287 . S
C1115 C1116 1.524 . S
C1115 H1118 0.999 . S
C1116 H1086 0.950 . S
C1116 C1115 1.524 . S
C1116 C1117 1.415 . S
C1117 H1087 0.950 . S
C1117 C1112 1.363 . S
C1117 C1116 1.415 . S
H1118 C1115 0.999 . S
H1119 C1100 0.913 . S
H1120 C1138 0.951 . S
H1121 C1140 0.951 . S
H1122 C1142 0.950 . S
H1123 C1143 0.950 . S
H1124 C1145 0.950 . S
H1125 C1148 0.950 . S
H1126 C1149 0.950 . S
H1127 C1151 0.950 . S
H1128 C1152 0.950 . S
H1129 C1153 0.951 . S
H1130 C1155 0.951 . S
H1131 C1157 0.950 . S
H1132 C1158 0.950 . S
H1133 C1160 0.950 . S
H1134 C1163 0.950 . S
H1135 C1164 0.950 . S
H1136 C1166 0.950 . S
H1137 C1167 0.950 . S
C1138 H1120 0.951 . S
C1138 C1139 1.366 . S
C1138 C1140 1.388 . S
C1139 C1138 1.366 . S
C1139 C1143 1.385 1_645 S
C1140 H1121 0.951 . S
C1140 C1138 1.388 . S
C1140 C1141 1.366 . S
C1141 C1140 1.366 . S
C1141 C1142 1.414 1_645 S
C1141 C1144 1.499 . S
C1142 H1122 0.950 . S
C1142 C1141 1.414 1_465 S
C1142 C1143 1.374 . S
C1143 H1123 0.950 . S
C1143 C1139 1.385 1_465 S
C1143 C1142 1.374 . S
C1144 C1141 1.499 . S
C1144 C1145 1.373 1_645 S
C1144 C1146 1.389 . S
C1145 H1124 0.950 . S
C1145 C1144 1.373 1_465 S
C1145 C1161 1.377 1_556 S
C1146 C1144 1.389 . S
C1146 C1147 1.524 . S
C1146 C1160 1.377 1_556 S
C1147 C1146 1.524 . S
C1147 C1148 1.397 1_655 S
C1147 C1152 1.363 . S
C1148 H1125 0.950 . S
C1148 C1147 1.397 1_455 S
C1148 C1149 1.334 . S
C1149 H1126 0.950 . S
C1149 C1148 1.334 . S
C1149 C1150 1.287 1_455 S
C1150 C1149 1.287 1_655 S
C1150 C1151 1.524 . S
C1150 H1169 0.913 . S
C1151 H1127 0.950 . S
C1151 C1150 1.524 . S
C1151 C1152 1.415 . S
C1152 H1128 0.950 . S
C1152 C1147 1.363 . S
C1152 C1151 1.415 . S
C1153 H1129 0.951 . S
C1153 C1154 1.366 . S
C1153 C1155 1.388 . S
C1154 C1153 1.366 . S
C1154 C1158 1.385 1_465 S
C1155 H1130 0.951 . S
C1155 C1153 1.388 . S
C1155 C1156 1.366 . S
C1156 C1155 1.366 . S
C1156 C1157 1.414 1_465 S
C1156 C1159 1.499 . S
C1157 H1131 0.950 . S
C1157 C1156 1.414 1_645 S
C1157 C1158 1.374 . S
C1158 H1132 0.950 . S
C1158 C1154 1.385 1_645 S
C1158 C1157 1.374 . S
C1159 C1156 1.499 . S
C1159 C1160 1.373 1_465 S
C1159 C1161 1.389 . S
C1160 H1133 0.950 . S
C1160 C1146 1.377 1_554 S
C1160 C1159 1.373 1_645 S
C1161 C1145 1.377 1_554 S
C1161 C1159 1.389 . S
C1161 C1162 1.524 . S
C1162 C1161 1.524 . S
C1162 C1163 1.397 1_455 S
C1162 C1167 1.363 . S
C1163 H1134 0.950 . S
C1163 C1162 1.397 1_655 S
C1163 C1164 1.334 . S
C1164 H1135 0.950 . S
C1164 C1163 1.334 . S
C1164 C1165 1.287 1_655 S
C1165 C1164 1.287 1_455 S
C1165 C1166 1.524 . S
C1165 H1168 0.999 . S
C1166 H1136 0.950 . S
C1166 C1165 1.524 . S
C1166 C1167 1.415 . S
C1167 H1137 0.950 . S
C1167 C1162 1.363 . S
C1167 C1166 1.415 . S
H1168 C1165 0.999 . S
H1169 C1150 0.913 . S
H1170 C1188 0.951 . S
H1171 C1190 0.951 . S
H1172 C1192 0.950 . S
H1173 C1193 0.950 . S
H1174 C1195 0.950 . S
H1175 C1198 0.950 . S
H1176 C1199 0.950 . S
H1177 C1201 0.950 . S
H1178 C1202 0.950 . S
H1179 C1203 0.951 . S
H1180 C1205 0.951 . S
H1181 C1207 0.950 . S
H1182 C1208 0.950 . S
H1183 C1210 0.950 . S
H1184 C1213 0.950 . S
H1185 C1214 0.950 . S
H1186 C1216 0.950 . S
H1187 C1217 0.950 . S
C1188 H1170 0.951 . S
C1188 C1189 1.366 . S
C1188 C1190 1.388 . S
C1189 C1188 1.366 . S
C1189 C1193 1.385 . S
C1190 H1171 0.951 . S
C1190 C1188 1.388 . S
C1190 C1191 1.366 . S
C1191 C1190 1.366 . S
C1191 C1192 1.414 . S
C1191 C1194 1.499 . S
C1192 H1172 0.950 . S
C1192 C1191 1.414 . S
C1192 C1193 1.374 . S
C1193 H1173 0.950 . S
C1193 C1189 1.385 . S
C1193 C1192 1.374 . S
C1194 C1191 1.499 . S
C1194 C1195 1.373 . S
C1194 C1196 1.389 . S
C1195 H1174 0.950 . S
C1195 C1194 1.373 . S
C1195 C1211 1.377 . S
C1196 C1194 1.389 . S
C1196 C1197 1.524 . S
C1196 C1210 1.377 . S
C1197 C1196 1.524 . S
C1197 C1198 1.397 . S
C1197 C1202 1.363 . S
C1198 H1175 0.950 . S
C1198 C1197 1.397 . S
C1198 C1199 1.334 . S
C1199 H1176 0.950 . S
C1199 C1198 1.334 . S
C1199 C1200 1.287 . S
C1200 C1199 1.287 . S
C1200 C1201 1.524 . S
C1200 H1219 0.913 . S
C1201 H1177 0.950 . S
C1201 C1200 1.524 . S
C1201 C1202 1.415 . S
C1202 H1178 0.950 . S
C1202 C1197 1.363 . S
C1202 C1201 1.415 . S
C1203 H1179 0.951 . S
C1203 C1204 1.366 . S
C1203 C1205 1.388 . S
C1204 C1203 1.366 . S
C1204 C1208 1.385 . S
C1205 H1180 0.951 . S
C1205 C1203 1.388 . S
C1205 C1206 1.366 . S
C1206 C1205 1.366 . S
C1206 C1207 1.414 . S
C1206 C1209 1.499 . S
C1207 H1181 0.950 . S
C1207 C1206 1.414 . S
C1207 C1208 1.374 . S
C1208 H1182 0.950 . S
C1208 C1204 1.385 . S
C1208 C1207 1.374 . S
C1209 C1206 1.499 . S
C1209 C1210 1.373 . S
C1209 C1211 1.389 . S
C1210 H1183 0.950 . S
C1210 C1196 1.377 . S
C1210 C1209 1.373 . S
C1211 C1195 1.377 . S
C1211 C1209 1.389 . S
C1211 C1212 1.524 . S
C1212 C1211 1.524 . S
C1212 C1213 1.397 . S
C1212 C1217 1.363 . S
C1213 H1184 0.950 . S
C1213 C1212 1.397 . S
C1213 C1214 1.334 . S
C1214 H1185 0.950 . S
C1214 C1213 1.334 . S
C1214 C1215 1.287 . S
C1215 C1214 1.287 . S
C1215 C1216 1.524 . S
C1215 H1218 0.999 . S
C1216 H1186 0.950 . S
C1216 C1215 1.524 . S
C1216 C1217 1.415 . S
C1217 H1187 0.950 . S
C1217 C1212 1.363 . S
C1217 C1216 1.415 . S
H1218 C1215 0.999 . S
H1219 C1200 0.913 . S
H1220 C1238 0.951 . S
H1221 C1240 0.951 . S
H1222 C1242 0.950 . S
H1223 C1243 0.950 . S
H1224 C1245 0.950 . S
H1225 C1248 0.950 . S
H1226 C1249 0.950 . S
H1227 C1251 0.950 . S
H1228 C1252 0.950 . S
H1229 C1253 0.951 . S
H1230 C1255 0.951 . S
H1231 C1257 0.950 . S
H1232 C1258 0.950 . S
H1233 C1260 0.950 . S
H1234 C1263 0.950 . S
H1235 C1264 0.950 . S
H1236 C1266 0.950 . S
H1237 C1267 0.950 . S
C1238 H1220 0.951 . S
C1238 C1239 1.366 1_565 S
C1238 C1240 1.388 . S
C1239 C1238 1.366 1_545 S
C1239 C1243 1.385 . S
C1240 H1221 0.951 . S
C1240 C1238 1.388 . S
C1240 C1241 1.366 1_565 S
C1241 C1240 1.366 1_545 S
C1241 C1242 1.414 . S
C1241 C1244 1.499 . S
C1242 H1222 0.950 . S
C1242 C1241 1.414 . S
C1242 C1243 1.374 . S
C1243 H1223 0.950 . S
C1243 C1239 1.385 . S
C1243 C1242 1.374 . S
C1244 C1241 1.499 . S
C1244 C1245 1.373 . S
C1244 C1246 1.389 1_545 S
C1245 H1224 0.950 . S
C1245 C1244 1.373 . S
C1245 C1261 1.377 . S
C1246 C1244 1.389 1_565 S
C1246 C1247 1.524 . S
C1246 C1260 1.377 . S
C1247 C1246 1.524 . S
C1247 C1248 1.397 . S
C1247 C1252 1.363 . S
C1248 H1225 0.950 . S
C1248 C1247 1.397 . S
C1248 C1249 1.334 . S
C1249 H1226 0.950 . S
C1249 C1248 1.334 . S
C1249 C1250 1.287 . S
C1250 C1249 1.287 . S
C1250 C1251 1.524 . S
C1250 H1269 0.913 . S
C1251 H1227 0.950 . S
C1251 C1250 1.524 . S
C1251 C1252 1.415 . S
C1252 H1228 0.950 . S
C1252 C1247 1.363 . S
C1252 C1251 1.415 . S
C1253 H1229 0.951 . S
C1253 C1254 1.366 1_545 S
C1253 C1255 1.388 . S
C1254 C1253 1.366 1_565 S
C1254 C1258 1.385 . S
C1255 H1230 0.951 . S
C1255 C1253 1.388 . S
C1255 C1256 1.366 1_545 S
C1256 C1255 1.366 1_565 S
C1256 C1257 1.414 . S
C1256 C1259 1.499 . S
C1257 H1231 0.950 . S
C1257 C1256 1.414 . S
C1257 C1258 1.374 . S
C1258 H1232 0.950 . S
C1258 C1254 1.385 . S
C1258 C1257 1.374 . S
C1259 C1256 1.499 . S
C1259 C1260 1.373 . S
C1259 C1261 1.389 1_565 S
C1260 H1233 0.950 . S
C1260 C1246 1.377 . S
C1260 C1259 1.373 . S
C1261 C1245 1.377 . S
C1261 C1259 1.389 1_545 S
C1261 C1262 1.524 . S
C1262 C1261 1.524 . S
C1262 C1263 1.397 . S
C1262 C1267 1.363 . S
C1263 H1234 0.950 . S
C1263 C1262 1.397 . S
C1263 C1264 1.334 . S
C1264 H1235 0.950 . S
C1264 C1263 1.334 . S
C1264 C1265 1.287 . S
C1265 C1264 1.287 . S
C1265 C1266 1.524 . S
C1265 H1268 0.999 . S
C1266 H1236 0.950 . S
C1266 C1265 1.524 . S
C1266 C1267 1.415 . S
C1267 H1237 0.950 . S
C1267 C1262 1.363 . S
C1267 C1266 1.415 . S
H1268 C1265 0.999 . S
H1269 C1250 0.913 . S
H1270 C1288 0.951 . S
H1271 C1290 0.951 . S
H1272 C1292 0.950 . S
H1273 C1293 0.950 . S
H1274 C1295 0.950 . S
H1275 C1298 0.950 . S
H1276 C1299 0.950 . S
H1277 C1301 0.950 . S
H1278 C1302 0.950 . S
H1279 C1303 0.951 . S
H1280 C1305 0.951 . S
H1281 C1307 0.950 . S
H1282 C1308 0.950 . S
H1283 C1310 0.950 . S
H1284 C1313 0.950 . S
H1285 C1314 0.950 . S
H1286 C1316 0.950 . S
H1287 C1317 0.950 . S
C1288 H1270 0.951 . S
C1288 C1289 1.366 . S
C1288 C1290 1.388 . S
C1289 C1288 1.366 . S
C1289 C1293 1.385 . S
C1290 H1271 0.951 . S
C1290 C1288 1.388 . S
C1290 C1291 1.366 . S
C1291 C1290 1.366 . S
C1291 C1292 1.414 . S
C1291 C1294 1.499 . S
C1292 H1272 0.950 . S
C1292 C1291 1.414 . S
C1292 C1293 1.374 . S
C1293 H1273 0.950 . S
C1293 C1289 1.385 . S
C1293 C1292 1.374 . S
C1294 C1291 1.499 . S
C1294 C1295 1.373 . S
C1294 C1296 1.389 . S
C1295 H1274 0.950 . S
C1295 C1294 1.373 . S
C1295 C1311 1.377 . S
C1296 C1294 1.389 . S
C1296 C1297 1.524 . S
C1296 C1310 1.377 . S
C1297 C1296 1.524 . S
C1297 C1298 1.397 . S
C1297 C1302 1.363 . S
C1298 H1275 0.950 . S
C1298 C1297 1.397 . S
C1298 C1299 1.334 . S
C1299 H1276 0.950 . S
C1299 C1298 1.334 . S
C1299 C1300 1.287 . S
C1300 C1299 1.287 . S
C1300 C1301 1.524 . S
C1300 H1319 0.913 . S
C1301 H1277 0.950 . S
C1301 C1300 1.524 . S
C1301 C1302 1.415 . S
C1302 H1278 0.950 . S
C1302 C1297 1.363 . S
C1302 C1301 1.415 . S
C1303 H1279 0.951 . S
C1303 C1304 1.366 . S
C1303 C1305 1.388 . S
C1304 C1303 1.366 . S
C1304 C1308 1.385 . S
C1305 H1280 0.951 . S
C1305 C1303 1.388 . S
C1305 C1306 1.366 . S
C1306 C1305 1.366 . S
C1306 C1307 1.414 . S
C1306 C1309 1.499 . S
C1307 H1281 0.950 . S
C1307 C1306 1.414 . S
C1307 C1308 1.374 . S
C1308 H1282 0.950 . S
C1308 C1304 1.385 . S
C1308 C1307 1.374 . S
C1309 C1306 1.499 . S
C1309 C1310 1.373 . S
C1309 C1311 1.389 . S
C1310 H1283 0.950 . S
C1310 C1296 1.377 . S
C1310 C1309 1.373 . S
C1311 C1295 1.377 . S
C1311 C1309 1.389 . S
C1311 C1312 1.524 . S
C1312 C1311 1.524 . S
C1312 C1313 1.397 . S
C1312 C1317 1.363 . S
C1313 H1284 0.950 . S
C1313 C1312 1.397 . S
C1313 C1314 1.334 . S
C1314 H1285 0.950 . S
C1314 C1313 1.334 . S
C1314 C1315 1.287 . S
C1315 C1314 1.287 . S
C1315 C1316 1.524 . S
C1315 H1318 0.999 . S
C1316 H1286 0.950 . S
C1316 C1315 1.524 . S
C1316 C1317 1.415 . S
C1317 H1287 0.950 . S
C1317 C1312 1.363 . S
C1317 C1316 1.415 . S
H1318 C1315 0.999 . S
H1319 C1300 0.913 . S
H1320 C1338 0.951 . S
H1321 C1340 0.951 . S
H1322 C1342 0.950 . S
H1323 C1343 0.950 . S
H1324 C1345 0.950 . S
H1325 C1348 0.950 . S
H1326 C1349 0.950 . S
H1327 C1351 0.950 . S
H1328 C1352 0.950 . S
H1329 C1353 0.951 . S
H1330 C1355 0.951 . S
H1331 C1357 0.950 . S
H1332 C1358 0.950 . S
H1333 C1360 0.950 . S
H1334 C1363 0.950 . S
H1335 C1364 0.950 . S
H1336 C1366 0.950 . S
H1337 C1367 0.950 . S
C1338 H1320 0.951 . S
C1338 C1339 1.366 . S
C1338 C1340 1.388 . S
C1339 C1338 1.366 . S
C1339 C1343 1.385 . S
C1340 H1321 0.951 . S
C1340 C1338 1.388 . S
C1340 C1341 1.366 . S
C1341 C1340 1.366 . S
C1341 C1342 1.414 . S
C1341 C1344 1.499 . S
C1342 H1322 0.950 . S
C1342 C1341 1.414 . S
C1342 C1343 1.374 . S
C1343 H1323 0.950 . S
C1343 C1339 1.385 . S
C1343 C1342 1.374 . S
C1344 C1341 1.499 . S
C1344 C1345 1.373 . S
C1344 C1346 1.389 . S
C1345 H1324 0.950 . S
C1345 C1344 1.373 . S
C1345 C1361 1.377 . S
C1346 C1344 1.389 . S
C1346 C1347 1.524 . S
C1346 C1360 1.377 . S
C1347 C1346 1.524 . S
C1347 C1348 1.397 . S
C1347 C1352 1.363 . S
C1348 H1325 0.950 . S
C1348 C1347 1.397 . S
C1348 C1349 1.334 . S
C1349 H1326 0.950 . S
C1349 C1348 1.334 . S
C1349 C1350 1.287 . S
C1350 C1349 1.287 . S
C1350 C1351 1.524 . S
C1350 H1369 0.913 . S
C1351 H1327 0.950 . S
C1351 C1350 1.524 . S
C1351 C1352 1.415 . S
C1352 H1328 0.950 . S
C1352 C1347 1.363 . S
C1352 C1351 1.415 . S
C1353 H1329 0.951 . S
C1353 C1354 1.366 . S
C1353 C1355 1.388 . S
C1354 C1353 1.366 . S
C1354 C1358 1.385 . S
C1355 H1330 0.951 . S
C1355 C1353 1.388 . S
C1355 C1356 1.366 . S
C1356 C1355 1.366 . S
C1356 C1357 1.414 . S
C1356 C1359 1.499 . S
C1357 H1331 0.950 . S
C1357 C1356 1.414 . S
C1357 C1358 1.374 . S
C1358 H1332 0.950 . S
C1358 C1354 1.385 . S
C1358 C1357 1.374 . S
C1359 C1356 1.499 . S
C1359 C1360 1.373 . S
C1359 C1361 1.389 . S
C1360 H1333 0.950 . S
C1360 C1346 1.377 . S
C1360 C1359 1.373 . S
C1361 C1345 1.377 . S
C1361 C1359 1.389 . S
C1361 C1362 1.524 . S
C1362 C1361 1.524 . S
C1362 C1363 1.397 . S
C1362 C1367 1.363 . S
C1363 H1334 0.950 . S
C1363 C1362 1.397 . S
C1363 C1364 1.334 . S
C1364 H1335 0.950 . S
C1364 C1363 1.334 . S
C1364 C1365 1.287 . S
C1365 C1364 1.287 . S
C1365 C1366 1.524 . S
C1365 H1368 0.999 . S
C1366 H1336 0.950 . S
C1366 C1365 1.524 . S
C1366 C1367 1.415 . S
C1367 H1337 0.950 . S
C1367 C1362 1.363 . S
C1367 C1366 1.415 . S
H1368 C1365 0.999 . S
H1369 C1350 0.913 . S
H1370 C1388 0.951 . S
H1371 C1390 0.951 . S
H1372 C1392 0.950 . S
H1373 C1393 0.950 . S
H1374 C1395 0.950 . S
H1375 C1398 0.950 . S
H1376 C1399 0.950 . S
H1377 C1401 0.950 . S
H1378 C1402 0.950 . S
H1379 C1403 0.951 . S
H1380 C1405 0.951 . S
H1381 C1407 0.950 . S
H1382 C1408 0.950 . S
H1383 C1410 0.950 . S
H1384 C1413 0.950 . S
H1385 C1414 0.950 . S
H1386 C1416 0.950 . S
H1387 C1417 0.950 . S
C1388 H1370 0.951 . S
C1388 C1389 1.366 . S
C1388 C1390 1.388 . S
C1389 C1388 1.366 . S
C1389 C1393 1.385 . S
C1390 H1371 0.951 . S
C1390 C1388 1.388 . S
C1390 C1391 1.366 . S
C1391 C1390 1.366 . S
C1391 C1392 1.414 . S
C1391 C1394 1.499 . S
C1392 H1372 0.950 . S
C1392 C1391 1.414 . S
C1392 C1393 1.374 . S
C1393 H1373 0.950 . S
C1393 C1389 1.385 . S
C1393 C1392 1.374 . S
C1394 C1391 1.499 . S
C1394 C1395 1.373 . S
C1394 C1396 1.389 . S
C1395 H1374 0.950 . S
C1395 C1394 1.373 . S
C1395 C1411 1.377 . S
C1396 C1394 1.389 . S
C1396 C1397 1.524 . S
C1396 C1410 1.377 . S
C1397 C1396 1.524 . S
C1397 C1398 1.397 . S
C1397 C1402 1.363 . S
C1398 H1375 0.950 . S
C1398 C1397 1.397 . S
C1398 C1399 1.334 . S
C1399 H1376 0.950 . S
C1399 C1398 1.334 . S
C1399 C1400 1.287 . S
C1400 C1399 1.287 . S
C1400 C1401 1.524 . S
C1400 H1419 0.913 . S
C1401 H1377 0.950 . S
C1401 C1400 1.524 . S
C1401 C1402 1.415 . S
C1402 H1378 0.950 . S
C1402 C1397 1.363 . S
C1402 C1401 1.415 . S
C1403 H1379 0.951 . S
C1403 C1404 1.366 . S
C1403 C1405 1.388 . S
C1404 C1403 1.366 . S
C1404 C1408 1.385 . S
C1405 H1380 0.951 . S
C1405 C1403 1.388 . S
C1405 C1406 1.366 . S
C1406 C1405 1.366 . S
C1406 C1407 1.414 . S
C1406 C1409 1.499 . S
C1407 H1381 0.950 . S
C1407 C1406 1.414 . S
C1407 C1408 1.374 . S
C1408 H1382 0.950 . S
C1408 C1404 1.385 . S
C1408 C1407 1.374 . S
C1409 C1406 1.499 . S
C1409 C1410 1.373 . S
C1409 C1411 1.389 . S
C1410 H1383 0.950 . S
C1410 C1396 1.377 . S
C1410 C1409 1.373 . S
C1411 C1395 1.377 . S
C1411 C1409 1.389 . S
C1411 C1412 1.524 . S
C1412 C1411 1.524 . S
C1412 C1413 1.397 . S
C1412 C1417 1.363 . S
C1413 H1384 0.950 . S
C1413 C1412 1.397 . S
C1413 C1414 1.334 . S
C1414 H1385 0.950 . S
C1414 C1413 1.334 . S
C1414 C1415 1.287 . S
C1415 C1414 1.287 . S
C1415 C1416 1.524 . S
C1415 H1418 0.999 . S
C1416 H1386 0.950 . S
C1416 C1415 1.524 . S
C1416 C1417 1.415 . S
C1417 H1387 0.950 . S
C1417 C1412 1.363 . S
C1417 C1416 1.415 . S
H1418 C1415 0.999 . S
H1419 C1400 0.913 . S
H1420 C1438 0.951 . S
H1421 C1440 0.951 . S
H1422 C1442 0.950 . S
H1423 C1443 0.950 . S
H1424 C1445 0.950 . S
H1425 C1448 0.950 . S
H1426 C1449 0.950 . S
H1427 C1451 0.950 . S
H1428 C1452 0.950 . S
H1429 C1453 0.951 . S
H1430 C1455 0.951 . S
H1431 C1457 0.950 . S
H1432 C1458 0.950 . S
H1433 C1460 0.950 . S
H1434 C1463 0.950 . S
H1435 C1464 0.950 . S
H1436 C1466 0.950 . S
H1437 C1467 0.950 . S
C1438 H1420 0.951 . S
C1438 C1439 1.366 . S
C1438 C1440 1.388 . S
C1439 C1438 1.366 . S
C1439 C1443 1.385 . S
C1440 H1421 0.951 . S
C1440 C1438 1.388 . S
C1440 C1441 1.366 . S
C1441 C1440 1.366 . S
C1441 C1442 1.414 . S
C1441 C1444 1.499 . S
C1442 H1422 0.950 . S
C1442 C1441 1.414 . S
C1442 C1443 1.374 . S
C1443 H1423 0.950 . S
C1443 C1439 1.385 . S
C1443 C1442 1.374 . S
C1444 C1441 1.499 . S
C1444 C1445 1.373 . S
C1444 C1446 1.389 . S
C1445 H1424 0.950 . S
C1445 C1444 1.373 . S
C1445 C1461 1.377 . S
C1446 C1444 1.389 . S
C1446 C1447 1.524 . S
C1446 C1460 1.377 . S
C1447 C1446 1.524 . S
C1447 C1448 1.397 . S
C1447 C1452 1.363 . S
C1448 H1425 0.950 . S
C1448 C1447 1.397 . S
C1448 C1449 1.334 . S
C1449 H1426 0.950 . S
C1449 C1448 1.334 . S
C1449 C1450 1.287 . S
C1450 C1449 1.287 . S
C1450 C1451 1.524 . S
C1450 H1469 0.913 . S
C1451 H1427 0.950 . S
C1451 C1450 1.524 . S
C1451 C1452 1.415 . S
C1452 H1428 0.950 . S
C1452 C1447 1.363 . S
C1452 C1451 1.415 . S
C1453 H1429 0.951 . S
C1453 C1454 1.366 . S
C1453 C1455 1.388 . S
C1454 C1453 1.366 . S
C1454 C1458 1.385 . S
C1455 H1430 0.951 . S
C1455 C1453 1.388 . S
C1455 C1456 1.366 . S
C1456 C1455 1.366 . S
C1456 C1457 1.414 . S
C1456 C1459 1.499 . S
C1457 H1431 0.950 . S
C1457 C1456 1.414 . S
C1457 C1458 1.374 . S
C1458 H1432 0.950 . S
C1458 C1454 1.385 . S
C1458 C1457 1.374 . S
C1459 C1456 1.499 . S
C1459 C1460 1.373 . S
C1459 C1461 1.389 . S
C1460 H1433 0.950 . S
C1460 C1446 1.377 . S
C1460 C1459 1.373 . S
C1461 C1445 1.377 . S
C1461 C1459 1.389 . S
C1461 C1462 1.524 . S
C1462 C1461 1.524 . S
C1462 C1463 1.397 . S
C1462 C1467 1.363 . S
C1463 H1434 0.950 . S
C1463 C1462 1.397 . S
C1463 C1464 1.334 . S
C1464 H1435 0.950 . S
C1464 C1463 1.334 . S
C1464 C1465 1.287 . S
C1465 C1464 1.287 . S
C1465 C1466 1.524 . S
C1465 H1468 0.999 . S
C1466 H1436 0.950 . S
C1466 C1465 1.524 . S
C1466 C1467 1.415 . S
C1467 H1437 0.950 . S
C1467 C1462 1.363 . S
C1467 C1466 1.415 . S
H1468 C1465 0.999 . S
H1469 C1450 0.913 . S
H1470 C1488 0.951 . S
H1471 C1490 0.951 . S
H1472 C1492 0.950 . S
H1473 C1493 0.950 . S
H1474 C1495 0.950 . S
H1475 C1498 0.950 . S
H1476 C1499 0.950 . S
H1477 C1501 0.950 . S
H1478 C1502 0.950 . S
H1479 C1503 0.951 . S
H1480 C1505 0.951 . S
H1481 C1507 0.950 . S
H1482 C1508 0.950 . S
H1483 C1510 0.950 . S
H1484 C1513 0.950 . S
H1485 C1514 0.950 . S
H1486 C1516 0.950 . S
H1487 C1517 0.950 . S
C1488 H1470 0.951 . S
C1488 C1489 1.366 . S
C1488 C1490 1.388 . S
C1489 C1488 1.366 . S
C1489 C1493 1.385 1_655 S
C1490 H1471 0.951 . S
C1490 C1488 1.388 . S
C1490 C1491 1.366 . S
C1491 C1490 1.366 . S
C1491 C1492 1.414 1_655 S
C1491 C1494 1.499 . S
C1492 H1472 0.950 . S
C1492 C1491 1.414 1_455 S
C1492 C1493 1.374 . S
C1493 H1473 0.950 . S
C1493 C1489 1.385 1_455 S
C1493 C1492 1.374 . S
C1494 C1491 1.499 . S
C1494 C1495 1.373 . S
C1494 C1496 1.389 1_655 S
C1495 H1474 0.950 . S
C1495 C1494 1.373 . S
C1495 C1511 1.377 1_556 S
C1496 C1494 1.389 1_455 S
C1496 C1497 1.524 . S
C1496 C1510 1.377 1_556 S
C1497 C1496 1.524 . S
C1497 C1498 1.397 . S
C1497 C1502 1.363 1_455 S
C1498 H1475 0.950 . S
C1498 C1497 1.397 . S
C1498 C1499 1.334 . S
C1499 H1476 0.950 . S
C1499 C1498 1.334 . S
C1499 C1500 1.287 . S
C1500 C1499 1.287 . S
C1500 C1501 1.524 1_455 S
C1500 H1519 0.913 . S
C1501 H1477 0.950 . S
C1501 C1500 1.524 1_655 S
C1501 C1502 1.415 . S
C1502 H1478 0.950 . S
C1502 C1497 1.363 1_655 S
C1502 C1501 1.415 . S
C1503 H1479 0.951 . S
C1503 C1504 1.366 . S
C1503 C1505 1.388 . S
C1504 C1503 1.366 . S
C1504 C1508 1.385 1_455 S
C1505 H1480 0.951 . S
C1505 C1503 1.388 . S
C1505 C1506 1.366 . S
C1506 C1505 1.366 . S
C1506 C1507 1.414 1_455 S
C1506 C1509 1.499 . S
C1507 H1481 0.950 . S
C1507 C1506 1.414 1_655 S
C1507 C1508 1.374 . S
C1508 H1482 0.950 . S
C1508 C1504 1.385 1_655 S
C1508 C1507 1.374 . S
C1509 C1506 1.499 . S
C1509 C1510 1.373 . S
C1509 C1511 1.389 1_455 S
C1510 H1483 0.950 . S
C1510 C1496 1.377 1_554 S
C1510 C1509 1.373 . S
C1511 C1495 1.377 1_554 S
C1511 C1509 1.389 1_655 S
C1511 C1512 1.524 . S
C1512 C1511 1.524 . S
C1512 C1513 1.397 . S
C1512 C1517 1.363 1_655 S
C1513 H1484 0.950 . S
C1513 C1512 1.397 . S
C1513 C1514 1.334 . S
C1514 H1485 0.950 . S
C1514 C1513 1.334 . S
C1514 C1515 1.287 . S
C1515 C1514 1.287 . S
C1515 C1516 1.524 1_655 S
C1515 H1518 0.999 . S
C1516 H1486 0.950 . S
C1516 C1515 1.524 1_455 S
C1516 C1517 1.415 . S
C1517 H1487 0.950 . S
C1517 C1512 1.363 1_455 S
C1517 C1516 1.415 . S
H1518 C1515 0.999 . S
H1519 C1500 0.913 . S
C339 C13 1.723 . S
C354 C133 1.717 . S
C389 C2 1.278 . S
C404 C42 1.279 . S
C439 C53 1.276 . S
C454 C82 1.268 . S
C489 C93 1.744 . S
C504 C122 1.730 . S
C539 C24 1.723 . S
C554 C224 1.730 . S
C589 C23 1.278 . S
C604 C183 1.278 . S
C639 C184 1.276 . S
C654 C103 1.260 . S
C689 C223 1.735 . S
C704 C104 1.749 . S
C739 C253 1.723 . S
C754 C213 1.725 . S
C789 C162 1.278 . S
C804 C242 1.276 . S
C839 C282 1.264 . S
C854 C173 1.279 . S
C889 C202 1.735 . S
C904 C293 1.747 . S
C939 C144 1.724 . S
C954 C264 1.722 . S
C989 C263 1.278 . S
C1004 C63 1.280 . S
C1039 C64 1.276 . S
C1054 C303 1.262 . S
C1089 C143 1.736 . S
C1104 C304 1.741 . S
C1139 C17 1.358 . S
C1154 C26 1.358 . S
C1189 C57 1.429 . S
C1204 C66 1.429 . S
C1239 C97 1.354 . S
C1254 C106 1.354 . S
C1289 C137 1.509 . S
C1304 C146 1.509 . S
C1339 C177 1.429 . S
C1354 C186 1.429 . S
C1389 C217 1.510 . S
C1404 C226 1.510 . S
C1439 C266 1.358 . S
C1454 C257 1.358 . S
C1489 C306 1.354 . S
C1504 C297 1.354 . S
