# Generated by pormake.
# Topology ums, (4)-cn, num edge types: 1
# Building blocks:
#     Node 0, Type 0, BuildingBlock: QUQFOY_clean_sbu_1, # of connection points: 4
#     Node 1, Type 0, BuildingBlock: QUQFOY_clean_sbu_1, # of connection points: 4
#     Node 2, Type 0, BuildingBlock: QUQFOY_clean_sbu_1, # of connection points: 4
#     Node 3, Type 0, BuildingBlock: QUQFOY_clean_sbu_1, # of connection points: 4
#     Node 4, Type 0, BuildingBlock: QUQFOY_clean_sbu_1, # of connection points: 4
#     Node 5, Type 0, BuildingBlock: QUQFOY_clean_sbu_1, # of connection points: 4
#     Node 6, Type 0, BuildingBlock: QUQFOY_clean_sbu_1, # of connection points: 4
#     Node 7, Type 0, BuildingBlock: QUQFOY_clean_sbu_1, # of connection points: 4
#     Node 8, Type 0, BuildingBlock: QUQFOY_clean_sbu_1, # of connection points: 4
#     Node 9, Type 0, BuildingBlock: QUQFOY_clean_sbu_1, # of connection points: 4
#     Node 10, Type 0, BuildingBlock: QUQFOY_clean_sbu_1, # of connection points: 4
#     Node 11, Type 0, BuildingBlock: QUQFOY_clean_sbu_1, # of connection points: 4
#     Node 12, Type 0, BuildingBlock: QUQFOY_clean_sbu_1, # of connection points: 4
#     Node 13, Type 0, BuildingBlock: QUQFOY_clean_sbu_1, # of connection points: 4
#     Node 14, Type 0, BuildingBlock: QUQFOY_clean_sbu_1, # of connection points: 4
#     Node 15, Type 0, BuildingBlock: QUQFOY_clean_sbu_1, # of connection points: 4
#     Node 16, Type 0, BuildingBlock: QUQFOY_clean_sbu_1, # of connection points: 4
#     Node 17, Type 0, BuildingBlock: QUQFOY_clean_sbu_1, # of connection points: 4
#     Node 18, Type 0, BuildingBlock: QUQFOY_clean_sbu_1, # of connection points: 4
#     Node 19, Type 0, BuildingBlock: QUQFOY_clean_sbu_1, # of connection points: 4
#     Node 20, Type 0, BuildingBlock: QUQFOY_clean_sbu_1, # of connection points: 4
#     Node 21, Type 0, BuildingBlock: QUQFOY_clean_sbu_1, # of connection points: 4
#     Node 22, Type 0, BuildingBlock: QUQFOY_clean_sbu_1, # of connection points: 4
#     Node 23, Type 0, BuildingBlock: QUQFOY_clean_sbu_1, # of connection points: 4
#     Node 24, Type 0, BuildingBlock: QUQFOY_clean_sbu_1, # of connection points: 4
#     Node 25, Type 0, BuildingBlock: QUQFOY_clean_sbu_1, # of connection points: 4
#     Node 26, Type 0, BuildingBlock: QUQFOY_clean_sbu_1, # of connection points: 4
#     Node 27, Type 0, BuildingBlock: QUQFOY_clean_sbu_1, # of connection points: 4
#     Node 28, Type 0, BuildingBlock: QUQFOY_clean_sbu_1, # of connection points: 4
#     Node 29, Type 0, BuildingBlock: QUQFOY_clean_sbu_1, # of connection points: 4
#     Node 30, Type 0, BuildingBlock: QUQFOY_clean_sbu_1, # of connection points: 4
#     Node 31, Type 0, BuildingBlock: QUQFOY_clean_sbu_1, # of connection points: 4
#     Node 32, Type 0, BuildingBlock: QUQFOY_clean_sbu_1, # of connection points: 4
#     Node 33, Type 0, BuildingBlock: QUQFOY_clean_sbu_1, # of connection points: 4
#     Node 34, Type 0, BuildingBlock: QUQFOY_clean_sbu_1, # of connection points: 4
#     Node 35, Type 0, BuildingBlock: QUQFOY_clean_sbu_1, # of connection points: 4
#     Edge 36, Type (0, 0), BuildingBlock: TEMPAE_clean_linker_10, # of connection points: 2
#     Edge 37, Type (0, 0), BuildingBlock: TEMPAE_clean_linker_10, # of connection points: 2
#     Edge 38, Type (0, 0), BuildingBlock: TEMPAE_clean_linker_10, # of connection points: 2
#     Edge 39, Type (0, 0), BuildingBlock: TEMPAE_clean_linker_10, # of connection points: 2
#     Edge 40, Type (0, 0), BuildingBlock: TEMPAE_clean_linker_10, # of connection points: 2
#     Edge 41, Type (0, 0), BuildingBlock: TEMPAE_clean_linker_10, # of connection points: 2
#     Edge 42, Type (0, 0), BuildingBlock: TEMPAE_clean_linker_10, # of connection points: 2
#     Edge 43, Type (0, 0), BuildingBlock: TEMPAE_clean_linker_10, # of connection points: 2
#     Edge 44, Type (0, 0), BuildingBlock: TEMPAE_clean_linker_10, # of connection points: 2
#     Edge 45, Type (0, 0), BuildingBlock: TEMPAE_clean_linker_10, # of connection points: 2
#     Edge 46, Type (0, 0), BuildingBlock: TEMPAE_clean_linker_10, # of connection points: 2
#     Edge 47, Type (0, 0), BuildingBlock: TEMPAE_clean_linker_10, # of connection points: 2
#     Edge 48, Type (0, 0), BuildingBlock: TEMPAE_clean_linker_10, # of connection points: 2
#     Edge 49, Type (0, 0), BuildingBlock: TEMPAE_clean_linker_10, # of connection points: 2
#     Edge 50, Type (0, 0), BuildingBlock: TEMPAE_clean_linker_10, # of connection points: 2
#     Edge 51, Type (0, 0), BuildingBlock: TEMPAE_clean_linker_10, # of connection points: 2
#     Edge 52, Type (0, 0), BuildingBlock: TEMPAE_clean_linker_10, # of connection points: 2
#     Edge 53, Type (0, 0), BuildingBlock: TEMPAE_clean_linker_10, # of connection points: 2
#     Edge 54, Type (0, 0), BuildingBlock: TEMPAE_clean_linker_10, # of connection points: 2
#     Edge 55, Type (0, 0), BuildingBlock: TEMPAE_clean_linker_10, # of connection points: 2
#     Edge 56, Type (0, 0), BuildingBlock: TEMPAE_clean_linker_10, # of connection points: 2
#     Edge 57, Type (0, 0), BuildingBlock: TEMPAE_clean_linker_10, # of connection points: 2
#     Edge 58, Type (0, 0), BuildingBlock: TEMPAE_clean_linker_10, # of connection points: 2
#     Edge 59, Type (0, 0), BuildingBlock: TEMPAE_clean_linker_10, # of connection points: 2
#     Edge 60, Type (0, 0), BuildingBlock: TEMPAE_clean_linker_10, # of connection points: 2
#     Edge 61, Type (0, 0), BuildingBlock: TEMPAE_clean_linker_10, # of connection points: 2
#     Edge 62, Type (0, 0), BuildingBlock: TEMPAE_clean_linker_10, # of connection points: 2
#     Edge 63, Type (0, 0), BuildingBlock: TEMPAE_clean_linker_10, # of connection points: 2
#     Edge 64, Type (0, 0), BuildingBlock: TEMPAE_clean_linker_10, # of connection points: 2
#     Edge 65, Type (0, 0), BuildingBlock: TEMPAE_clean_linker_10, # of connection points: 2
#     Edge 66, Type (0, 0), BuildingBlock: TEMPAE_clean_linker_10, # of connection points: 2
#     Edge 67, Type (0, 0), BuildingBlock: TEMPAE_clean_linker_10, # of connection points: 2
#     Edge 68, Type (0, 0), BuildingBlock: TEMPAE_clean_linker_10, # of connection points: 2
#     Edge 69, Type (0, 0), BuildingBlock: TEMPAE_clean_linker_10, # of connection points: 2
#     Edge 70, Type (0, 0), BuildingBlock: TEMPAE_clean_linker_10, # of connection points: 2
#     Edge 71, Type (0, 0), BuildingBlock: TEMPAE_clean_linker_10, # of connection points: 2
#     Edge 72, Type (0, 0), BuildingBlock: TEMPAE_clean_linker_10, # of connection points: 2
#     Edge 73, Type (0, 0), BuildingBlock: TEMPAE_clean_linker_10, # of connection points: 2
#     Edge 74, Type (0, 0), BuildingBlock: TEMPAE_clean_linker_10, # of connection points: 2
#     Edge 75, Type (0, 0), BuildingBlock: TEMPAE_clean_linker_10, # of connection points: 2
#     Edge 76, Type (0, 0), BuildingBlock: TEMPAE_clean_linker_10, # of connection points: 2
#     Edge 77, Type (0, 0), BuildingBlock: TEMPAE_clean_linker_10, # of connection points: 2
#     Edge 78, Type (0, 0), BuildingBlock: TEMPAE_clean_linker_10, # of connection points: 2
#     Edge 79, Type (0, 0), BuildingBlock: TEMPAE_clean_linker_10, # of connection points: 2
#     Edge 80, Type (0, 0), BuildingBlock: TEMPAE_clean_linker_10, # of connection points: 2
#     Edge 81, Type (0, 0), BuildingBlock: TEMPAE_clean_linker_10, # of connection points: 2
#     Edge 82, Type (0, 0), BuildingBlock: TEMPAE_clean_linker_10, # of connection points: 2
#     Edge 83, Type (0, 0), BuildingBlock: TEMPAE_clean_linker_10, # of connection points: 2
#     Edge 84, Type (0, 0), BuildingBlock: TEMPAE_clean_linker_10, # of connection points: 2
#     Edge 85, Type (0, 0), BuildingBlock: TEMPAE_clean_linker_10, # of connection points: 2
#     Edge 86, Type (0, 0), BuildingBlock: TEMPAE_clean_linker_10, # of connection points: 2
#     Edge 87, Type (0, 0), BuildingBlock: TEMPAE_clean_linker_10, # of connection points: 2
#     Edge 88, Type (0, 0), BuildingBlock: TEMPAE_clean_linker_10, # of connection points: 2
#     Edge 89, Type (0, 0), BuildingBlock: TEMPAE_clean_linker_10, # of connection points: 2
#     Edge 90, Type (0, 0), BuildingBlock: TEMPAE_clean_linker_10, # of connection points: 2
#     Edge 91, Type (0, 0), BuildingBlock: TEMPAE_clean_linker_10, # of connection points: 2
#     Edge 92, Type (0, 0), BuildingBlock: TEMPAE_clean_linker_10, # of connection points: 2
#     Edge 93, Type (0, 0), BuildingBlock: TEMPAE_clean_linker_10, # of connection points: 2
#     Edge 94, Type (0, 0), BuildingBlock: TEMPAE_clean_linker_10, # of connection points: 2
#     Edge 95, Type (0, 0), BuildingBlock: TEMPAE_clean_linker_10, # of connection points: 2
#     Edge 96, Type (0, 0), BuildingBlock: TEMPAE_clean_linker_10, # of connection points: 2
#     Edge 97, Type (0, 0), BuildingBlock: TEMPAE_clean_linker_10, # of connection points: 2
#     Edge 98, Type (0, 0), BuildingBlock: TEMPAE_clean_linker_10, # of connection points: 2
#     Edge 99, Type (0, 0), BuildingBlock: TEMPAE_clean_linker_10, # of connection points: 2
#     Edge 100, Type (0, 0), BuildingBlock: TEMPAE_clean_linker_10, # of connection points: 2
#     Edge 101, Type (0, 0), BuildingBlock: TEMPAE_clean_linker_10, # of connection points: 2
#     Edge 102, Type (0, 0), BuildingBlock: TEMPAE_clean_linker_10, # of connection points: 2
#     Edge 103, Type (0, 0), BuildingBlock: TEMPAE_clean_linker_10, # of connection points: 2
#     Edge 104, Type (0, 0), BuildingBlock: TEMPAE_clean_linker_10, # of connection points: 2
#     Edge 105, Type (0, 0), BuildingBlock: TEMPAE_clean_linker_10, # of connection points: 2
#     Edge 106, Type (0, 0), BuildingBlock: TEMPAE_clean_linker_10, # of connection points: 2
#     Edge 107, Type (0, 0), BuildingBlock: TEMPAE_clean_linker_10, # of connection points: 2
# Relax obj value: 0.177
# Max RMSD: 0.144
# Mean RMSD: 0.144
data_MOF--net-ums--node1-QUQFOY_clean_sbu_1--edge1-TEMPAE_clean_linker_10
_symmetry_space_group_name_H-M    P1
_symmetry_Int_Tables_number       1
_symmetry_cell_setting            triclinic
loop_
_symmetry_equiv_pos_as_xyz
'x, y, z'
_cell_length_a     108.92978
_cell_length_b     108.94426
_cell_length_c     23.956901
_cell_angle_alpha  89.995732
_cell_angle_beta   90.005541
_cell_angle_gamma 120.00113
loop_
_atom_site_label
_atom_site_type_symbol
_atom_site_fract_x
_atom_site_fract_y
_atom_site_fract_z
_atom_type_partial_charge
O0 O 0.19979 0.27579 0.11593 0.0
Cd1 Cd 0.18474 0.25451 0.11981 0.0
Cd2 Cd 0.17186 0.26318 0.19216 0.0
O3 O 0.19049 0.28224 0.18339 0.0
O4 O 0.19454 0.24354 0.10624 0.0
O5 O 0.18417 0.24318 0.18652 0.0
C6 C 0.19149 0.23915 0.15718 0.0
C7 C 0.16022 0.25819 0.2782 0.0
C8 C 0.20021 0.28535 0.14753 0.0
C9 C 0.15719 0.25041 0.08196 0.0
O10 O 0.15773 0.2568 0.12701 0.0
O11 O 0.16694 0.24765 0.07026 0.0
O12 O 0.16176 0.26851 0.24729 0.0
O13 O 0.16584 0.25085 0.26144 0.0
O14 O 0.72965 0.92552 0.10049 0.0
Cd15 Cd 0.75047 0.93095 0.11478 0.0
Cd16 Cd 0.7397 0.90956 0.18736 0.0
O17 O 0.72162 0.91059 0.17122 0.0
O18 O 0.76363 0.95166 0.10499 0.0
O19 O 0.75871 0.9407 0.18713 0.0
C20 C 0.76522 0.9523 0.15856 0.0
C21 C 0.74303 0.90289 0.2763 0.0
C22 C 0.71943 0.91701 0.13146 0.0
C23 C 0.75388 0.90654 0.08419 0.0
O24 O 0.74614 0.90074 0.12658 0.0
O25 O 0.75786 0.91938 0.07252 0.0
O26 O 0.73275 0.89438 0.24462 0.0
O27 O 0.75119 0.91566 0.25875 0.0
O28 O 0.07713 0.80205 0.1176 0.0
Cd29 Cd 0.07102 0.81717 0.12249 0.0
Cd30 Cd 0.09279 0.82988 0.1949 0.0
O31 O 0.09311 0.81124 0.18439 0.0
O32 O 0.05026 0.80748 0.10886 0.0
O33 O 0.06027 0.81764 0.18942 0.0
C34 C 0.04892 0.81043 0.15993 0.0
C35 C 0.10014 0.84135 0.28113 0.0
C36 C 0.08637 0.80157 0.14848 0.0
C37 C 0.09446 0.84479 0.08532 0.0
O38 O 0.1003 0.84418 0.13027 0.0
O39 O 0.08197 0.83502 0.07333 0.0
O40 O 0.10863 0.83978 0.24858 0.0
O41 O 0.08707 0.83587 0.2659 0.0
O42 O 0.27697 0.20068 0.38229 0.0
Cd43 Cd 0.25571 0.18556 0.37857 0.0
Cd44 Cd 0.26437 0.17272 0.30614 0.0
O45 O 0.28342 0.19136 0.31488 0.0
O46 O 0.2446 0.19524 0.39183 0.0
O47 O 0.24432 0.18481 0.31179 0.0
C48 C 0.24019 0.19208 0.34095 0.0
C49 C 0.25936 0.16111 0.22005 0.0
C50 C 0.28654 0.20109 0.35069 0.0
C51 C 0.2517 0.15805 0.4164 0.0
O52 O 0.25804 0.15859 0.37124 0.0
O53 O 0.24894 0.1678 0.4282 0.0
O54 O 0.2697 0.16266 0.25083 0.0
O55 O 0.25201 0.16671 0.23696 0.0
O56 O 0.80232 0.07578 0.38658 0.0
Cd57 Cd 0.8179 0.07046 0.37495 0.0
Cd58 Cd 0.82896 0.09189 0.30252 0.0
O59 O 0.80985 0.09102 0.31682 0.0
O60 O 0.81043 0.04978 0.38566 0.0
O61 O 0.81694 0.06062 0.30339 0.0
C62 C 0.81179 0.04908 0.33237 0.0
C63 C 0.83932 0.09824 0.21406 0.0
C64 C 0.80091 0.08445 0.35543 0.0
C65 C 0.84561 0.09491 0.40728 0.0
O66 O 0.84398 0.10071 0.36419 0.0
O67 O 0.8366 0.08211 0.41886 0.0
O68 O 0.83754 0.10691 0.24473 0.0
O69 O 0.83451 0.0855 0.23234 0.0
O70 O 0.92451 0.72524 0.38087 0.0
Cd71 Cd 0.93068 0.74651 0.37794 0.0
Cd72 Cd 0.90911 0.73793 0.30578 0.0
O73 O 0.90874 0.71888 0.31348 0.0
O74 O 0.95144 0.75748 0.39194 0.0
O75 O 0.94152 0.75808 0.31176 0.0
C76 C 0.95284 0.76205 0.34125 0.0
C77 C 0.90255 0.74325 0.2202 0.0
C78 C 0.91537 0.71572 0.34904 0.0
C79 C 0.90716 0.7504 0.41659 0.0
O80 O 0.9013 0.74408 0.37147 0.0
O81 O 0.91971 0.75322 0.42801 0.0
O82 O 0.89375 0.73279 0.25048 0.0
O83 O 0.91549 0.75054 0.23728 0.0
O84 O 0.80479 0.72985 0.8925 0.0
Cd85 Cd 0.81961 0.75111 0.8848 0.0
Cd86 Cd 0.83229 0.74185 0.81231 0.0
O87 O 0.81384 0.72288 0.82585 0.0
O88 O 0.8097 0.76206 0.8963 0.0
O89 O 0.81972 0.76163 0.81612 0.0
C90 C 0.81246 0.76588 0.84466 0.0
C91 C 0.84338 0.74469 0.72576 0.0
C92 C 0.80435 0.72003 0.86248 0.0
C93 C 0.84758 0.7561 0.9205 0.0
O94 O 0.84691 0.74951 0.87587 0.0
O95 O 0.83768 0.75858 0.93298 0.0
O96 O 0.84206 0.73522 0.76099 0.0
O97 O 0.83792 0.75244 0.73857 0.0
O98 O 0.27325 0.07695 0.89177 0.0
Cd99 Cd 0.252 0.07058 0.88434 0.0
Cd100 Cd 0.26126 0.09239 0.81136 0.0
O101 O 0.28022 0.09287 0.8247 0.0
O102 O 0.24103 0.04978 0.89709 0.0
O103 O 0.24133 0.05993 0.81629 0.0
C104 C 0.2371 0.04852 0.84552 0.0
C105 C 0.25821 0.10033 0.72449 0.0
C106 C 0.28307 0.08626 0.86149 0.0
C107 C 0.24719 0.09372 0.91945 0.0
O108 O 0.25378 0.09957 0.87474 0.0
O109 O 0.24464 0.08133 0.93213 0.0
O110 O 0.2678 0.1086 0.75912 0.0
O111 O 0.25047 0.08717 0.73808 0.0
O112 O 0.92415 0.19678 0.8861 0.0
Cd113 Cd 0.93012 0.18162 0.87835 0.0
Cd114 Cd 0.90857 0.16966 0.80496 0.0
O115 O 0.90821 0.18817 0.819 0.0
O116 O 0.9509 0.19102 0.8914 0.0
O117 O 0.94069 0.18141 0.81039 0.0
C118 C 0.95211 0.18833 0.8398 0.0
C119 C 0.90147 0.15918 0.71679 0.0
C120 C 0.91492 0.19752 0.85607 0.0
C121 C 0.90649 0.1538 0.91243 0.0
O122 O 0.90084 0.15474 0.86748 0.0
O123 O 0.91893 0.16346 0.92559 0.0
O124 O 0.89287 0.1603 0.7503 0.0
O125 O 0.9145 0.16453 0.73233 0.0
O126 O 0.72687 0.80333 0.60822 0.0
Cd127 Cd 0.74809 0.81837 0.61461 0.0
Cd128 Cd 0.73909 0.83073 0.68805 0.0
O129 O 0.72001 0.81233 0.67547 0.0
O130 O 0.75939 0.80884 0.60259 0.0
O131 O 0.75897 0.81888 0.68271 0.0
C132 C 0.7634 0.8118 0.654 0.0
C133 C 0.74317 0.8414 0.77603 0.0
C134 C 0.71709 0.80283 0.63877 0.0
C135 C 0.75251 0.84622 0.57967 0.0
O136 O 0.74614 0.8455 0.62499 0.0
O137 O 0.75508 0.83641 0.56657 0.0
O138 O 0.73332 0.8404 0.74352 0.0
O139 O 0.75057 0.83582 0.75959 0.0
O140 O 0.19952 0.92484 0.617 0.0
Cd141 Cd 0.18439 0.93094 0.62193 0.0
Cd142 Cd 0.17165 0.90918 0.69444 0.0
O143 O 0.19026 0.90881 0.68356 0.0
O144 O 0.19402 0.95173 0.60911 0.0
O145 O 0.18372 0.94148 0.6892 0.0
C146 C 0.19093 0.95292 0.66017 0.0
C147 C 0.16023 0.90167 0.78072 0.0
C148 C 0.19995 0.91555 0.64772 0.0
C149 C 0.15674 0.90754 0.58482 0.0
O150 O 0.15731 0.90173 0.62992 0.0
O151 O 0.16656 0.91999 0.57262 0.0
O152 O 0.16177 0.89324 0.74773 0.0
O153 O 0.1657 0.91476 0.76589 0.0
O154 O 0.07595 0.27196 0.60716 0.0
Cd155 Cd 0.06966 0.25074 0.6146 0.0
Cd156 Cd 0.09153 0.2601 0.68728 0.0
O157 O 0.09195 0.27903 0.67393 0.0
O158 O 0.04885 0.23967 0.60219 0.0
O159 O 0.05911 0.24002 0.68275 0.0
C160 C 0.04767 0.23573 0.65371 0.0
C161 C 0.09946 0.25701 0.77412 0.0
C162 C 0.08528 0.28182 0.63724 0.0
C163 C 0.09287 0.24605 0.57915 0.0
O164 O 0.09873 0.25265 0.62382 0.0
O165 O 0.08045 0.24344 0.5666 0.0
O166 O 0.10773 0.26663 0.73961 0.0
O167 O 0.0863 0.24926 0.76044 0.0
O168 O 0.86294 0.60425 0.43266 0.0
Cd169 Cd 0.84761 0.58341 0.44722 0.0
Cd170 Cd 0.83695 0.59414 0.52013 0.0
O171 O 0.85596 0.61225 0.50324 0.0
O172 O 0.85523 0.5703 0.43755 0.0
O173 O 0.8492 0.57524 0.51967 0.0
C174 C 0.8543 0.56874 0.49112 0.0
C175 C 0.82709 0.59122 0.60922 0.0
C176 C 0.86457 0.61447 0.46346 0.0
C177 C 0.81967 0.57977 0.41714 0.0
O178 O 0.82156 0.58745 0.4597 0.0
O179 O 0.82862 0.57594 0.4051 0.0
O180 O 0.82875 0.60131 0.57665 0.0
O181 O 0.83169 0.58299 0.59242 0.0
O182 O 0.39793 0.25949 0.43573 0.0
Cd183 Cd 0.41877 0.26495 0.45006 0.0
Cd184 Cd 0.40803 0.24362 0.52307 0.0
O185 O 0.3899 0.24453 0.50637 0.0
O186 O 0.4319 0.28563 0.43952 0.0
O187 O 0.42708 0.27487 0.52206 0.0
C188 C 0.43356 0.2864 0.49305 0.0
C189 C 0.41123 0.23701 0.61234 0.0
C190 C 0.38771 0.25093 0.46659 0.0
C191 C 0.42229 0.24056 0.42019 0.0
O192 O 0.4146 0.23479 0.46275 0.0
O193 O 0.42616 0.25334 0.40811 0.0
O194 O 0.40103 0.22846 0.58041 0.0
O195 O 0.41939 0.24978 0.59479 0.0
O196 O 0.74248 0.1366 0.44667 0.0
Cd197 Cd 0.73735 0.15233 0.45806 0.0
Cd198 Cd 0.75875 0.16319 0.53073 0.0
O199 O 0.75766 0.14398 0.51663 0.0
O200 O 0.71673 0.14503 0.44646 0.0
O201 O 0.72736 0.15141 0.52916 0.0
C202 C 0.7159 0.14637 0.49969 0.0
C203 C 0.76517 0.17356 0.61916 0.0
C204 C 0.75105 0.13507 0.47797 0.0
C205 C 0.76203 0.1799 0.42586 0.0
O206 O 0.76775 0.17818 0.46902 0.0
O207 O 0.7492 0.171 0.41423 0.0
O208 O 0.77377 0.17164 0.58858 0.0
O209 O 0.75246 0.16889 0.6008 0.0
O210 O 0.94089 0.53184 0.71908 0.0
Cd211 Cd 0.92 0.51625 0.7075 0.0
Cd212 Cd 0.93037 0.50519 0.63489 0.0
O213 O 0.9486 0.5243 0.64934 0.0
O214 O 0.90677 0.52369 0.71821 0.0
O215 O 0.91109 0.51718 0.63595 0.0
C216 C 0.90469 0.52232 0.66493 0.0
C217 C 0.92658 0.49485 0.54644 0.0
C218 C 0.95097 0.53324 0.68792 0.0
C219 C 0.91674 0.48854 0.73973 0.0
O220 O 0.92413 0.49015 0.69652 0.0
O221 O 0.91299 0.49756 0.75147 0.0
O222 O 0.93697 0.49665 0.57755 0.0
O223 O 0.91857 0.49961 0.56428 0.0
O224 O 0.47076 0.41022 0.71642 0.0
Cd225 Cd 0.48646 0.40507 0.70467 0.0
Cd226 Cd 0.4973 0.42647 0.63215 0.0
O227 O 0.47812 0.42544 0.64659 0.0
O228 O 0.47912 0.38444 0.71609 0.0
O229 O 0.48545 0.39509 0.63343 0.0
C230 C 0.48041 0.38362 0.66282 0.0
C231 C 0.50757 0.43273 0.54354 0.0
C232 C 0.46923 0.41882 0.6853 0.0
C233 C 0.51409 0.42969 0.73666 0.0
O234 O 0.51236 0.43545 0.69363 0.0
O235 O 0.50518 0.41687 0.74828 0.0
O236 O 0.50575 0.44141 0.574 0.0
O237 O 0.50286 0.42003 0.56212 0.0
O238 O 0.59191 0.06483 0.72823 0.0
Cd239 Cd 0.59728 0.0856 0.71301 0.0
Cd240 Cd 0.57578 0.07455 0.64013 0.0
O241 O 0.57688 0.05658 0.65782 0.0
O242 O 0.61797 0.09877 0.7231 0.0
O243 O 0.60712 0.09375 0.64069 0.0
C244 C 0.61868 0.1003 0.6695 0.0
C245 C 0.5684 0.07692 0.55109 0.0
C246 C 0.58335 0.05452 0.69773 0.0
C247 C 0.57289 0.0891 0.74271 0.0
O248 O 0.56712 0.08134 0.70032 0.0
O249 O 0.58569 0.09302 0.7548 0.0
O250 O 0.56018 0.06696 0.58457 0.0
O251 O 0.58127 0.08534 0.56696 0.0
O252 O 0.46722 0.05778 0.2115 0.0
Cd253 Cd 0.48242 0.07901 0.20807 0.0
Cd254 Cd 0.49514 0.07042 0.13491 0.0
O255 O 0.47667 0.05126 0.14482 0.0
O256 O 0.47289 0.09026 0.22159 0.0
O257 O 0.48331 0.09053 0.14154 0.0
C258 C 0.47612 0.09473 0.17082 0.0
C259 C 0.50624 0.07547 0.04765 0.0
C260 C 0.46689 0.04818 0.18037 0.0
C261 C 0.51006 0.08309 0.2448 0.0
O262 O 0.50958 0.07697 0.19907 0.0
O263 O 0.50019 0.0856 0.25748 0.0
O264 O 0.50513 0.0653 0.07844 0.0
O265 O 0.50051 0.08263 0.06537 0.0
O266 O 0.94122 0.41051 0.21721 0.0
Cd267 Cd 0.92006 0.40446 0.20998 0.0
Cd268 Cd 0.92949 0.42597 0.13641 0.0
O269 O 0.94842 0.42639 0.14993 0.0
O270 O 0.90881 0.38372 0.22396 0.0
O271 O 0.90911 0.39366 0.14263 0.0
C272 C 0.90476 0.38234 0.17252 0.0
C273 C 0.9259 0.43295 0.04835 0.0
C274 C 0.95113 0.41972 0.18695 0.0
C275 C 0.91584 0.42807 0.24418 0.0
O276 O 0.92238 0.43372 0.19914 0.0
O277 O 0.91309 0.41564 0.2573 0.0
O278 O 0.93568 0.4416 0.08153 0.0
O279 O 0.91828 0.41994 0.06416 0.0
O280 O 0.59202 0.53133 0.21667 0.0
Cd281 Cd 0.59814 0.51629 0.20837 0.0
Cd282 Cd 0.57663 0.50432 0.13491 0.0
O283 O 0.57611 0.52274 0.14948 0.0
O284 O 0.61891 0.52581 0.22171 0.0
O285 O 0.60883 0.51631 0.1404 0.0
C286 C 0.6202 0.52326 0.17003 0.0
C287 C 0.56964 0.49398 0.04647 0.0
C288 C 0.58276 0.53204 0.18676 0.0
C289 C 0.57463 0.48835 0.24195 0.0
O290 O 0.56895 0.48931 0.19708 0.0
O291 O 0.58704 0.49805 0.25521 0.0
O292 O 0.56098 0.49497 0.08004 0.0
O293 O 0.58267 0.49939 0.06212 0.0
O294 O 0.39446 0.13746 0.94382 0.0
Cd295 Cd 0.41571 0.15236 0.95056 0.0
Cd296 Cd 0.40677 0.16465 0.02447 0.0
O297 O 0.38766 0.14627 0.01196 0.0
O298 O 0.42672 0.14261 0.93666 0.0
O299 O 0.42654 0.15232 0.01796 0.0
C300 C 0.43073 0.14521 0.98816 0.0
C301 C 0.41102 0.17521 0.1127 0.0
C302 C 0.38472 0.13688 0.97479 0.0
C303 C 0.42025 0.18031 0.91653 0.0
O304 O 0.41378 0.17949 0.96168 0.0
O305 O 0.42287 0.17055 0.90334 0.0
O306 O 0.40112 0.17426 0.08064 0.0
O307 O 0.41837 0.16963 0.09565 0.0
O308 O 0.86424 0.25774 0.94703 0.0
Cd309 Cd 0.84924 0.26394 0.95452 0.0
Cd310 Cd 0.83705 0.2424 0.02807 0.0
O311 O 0.85544 0.24179 0.01404 0.0
O312 O 0.85888 0.28469 0.94064 0.0
O313 O 0.84923 0.27478 0.02199 0.0
C314 C 0.85626 0.28609 0.99212 0.0
C315 C 0.82655 0.23535 0.11624 0.0
C316 C 0.86484 0.24844 0.97706 0.0
C317 C 0.82129 0.24051 0.92052 0.0
O318 O 0.82213 0.23482 0.96555 0.0
O319 O 0.83106 0.25289 0.90729 0.0
O320 O 0.82755 0.2267 0.08263 0.0
O321 O 0.83203 0.24839 0.10078 0.0
O322 O 0.74438 0.60859 0.94365 0.0
Cd323 Cd 0.73818 0.58735 0.94923 0.0
Cd324 Cd 0.75948 0.59625 0.02285 0.0
O325 O 0.76013 0.61534 0.01129 0.0
O326 O 0.71741 0.57621 0.93562 0.0
O327 O 0.72745 0.57623 0.01634 0.0
C328 C 0.71609 0.572 0.98682 0.0
C329 C 0.76578 0.59174 0.11065 0.0
C330 C 0.75357 0.6183 0.97464 0.0
C331 C 0.76171 0.58308 0.91411 0.0
O332 O 0.76735 0.58944 0.95947 0.0
O333 O 0.7493 0.58045 0.90114 0.0
O334 O 0.77473 0.60175 0.07902 0.0
O335 O 0.75285 0.58442 0.09346 0.0
O336 O 0.5332 0.94403 0.78562 0.0
Cd337 Cd 0.51804 0.92279 0.78936 0.0
Cd338 Cd 0.5054 0.93141 0.86279 0.0
O339 O 0.52389 0.95055 0.85282 0.0
O340 O 0.52762 0.91164 0.7751 0.0
O341 O 0.51741 0.91133 0.8557 0.0
C342 C 0.52458 0.90719 0.82598 0.0
C343 C 0.49437 0.92635 0.95016 0.0
C344 C 0.5336 0.95363 0.81695 0.0
C345 C 0.49037 0.91873 0.75314 0.0
O346 O 0.49092 0.92491 0.79878 0.0
O347 O 0.50018 0.91614 0.74041 0.0
O348 O 0.49548 0.93654 0.91952 0.0
O349 O 0.50006 0.91917 0.93222 0.0
O350 O 0.06165 0.59191 0.77771 0.0
Cd351 Cd 0.08256 0.5972 0.78902 0.0
Cd352 Cd 0.07219 0.57578 0.86142 0.0
O353 O 0.05398 0.57674 0.84768 0.0
O354 O 0.09573 0.61787 0.77785 0.0
O355 O 0.09153 0.60715 0.86033 0.0
C356 C 0.09786 0.61865 0.83111 0.0
C357 C 0.07631 0.56941 0.94965 0.0
C358 C 0.05159 0.5833 0.80909 0.0
C359 C 0.08569 0.5727 0.75637 0.0
O360 O 0.07825 0.5669 0.79945 0.0
O361 O 0.08954 0.58553 0.74496 0.0
O362 O 0.06579 0.56076 0.9192 0.0
O363 O 0.08426 0.58214 0.93129 0.0
O364 O 0.40968 0.46973 0.77826 0.0
Cd365 Cd 0.40436 0.4853 0.79019 0.0
Cd366 Cd 0.42575 0.49626 0.86287 0.0
O367 O 0.42487 0.47717 0.84818 0.0
O368 O 0.38369 0.47784 0.7792 0.0
O369 O 0.39444 0.48425 0.86166 0.0
C370 C 0.38293 0.47913 0.83251 0.0
C371 C 0.43221 0.50653 0.95147 0.0
C372 C 0.41833 0.46828 0.80939 0.0
C373 C 0.42884 0.51302 0.7583 0.0
O374 O 0.4346 0.51135 0.80143 0.0
O375 O 0.41605 0.50403 0.74654 0.0
O376 O 0.44083 0.50476 0.92047 0.0
O377 O 0.41945 0.50178 0.93342 0.0
O378 O 0.6087 0.86682 0.04767 0.0
Cd379 Cd 0.58741 0.85177 0.04395 0.0
Cd380 Cd 0.59604 0.83886 0.97134 0.0
O381 O 0.6151 0.85748 0.98019 0.0
O382 O 0.57647 0.86159 0.05779 0.0
O383 O 0.57602 0.85121 0.97743 0.0
C384 C 0.57203 0.85854 0.00691 0.0
C385 C 0.59119 0.82722 0.88532 0.0
C386 C 0.61824 0.86721 0.01603 0.0
C387 C 0.58329 0.82422 0.08166 0.0
O388 O 0.58962 0.82473 0.03649 0.0
O389 O 0.58057 0.83399 0.09352 0.0
O390 O 0.60146 0.82878 0.91654 0.0
O391 O 0.5838 0.83282 0.90177 0.0
O392 O 0.13854 0.74271 0.05798 0.0
Cd393 Cd 0.15399 0.73738 0.04347 0.0
Cd394 Cd 0.16431 0.75849 0.96969 0.0
O395 O 0.14536 0.75768 0.98739 0.0
O396 O 0.14662 0.71672 0.05444 0.0
O397 O 0.15235 0.72737 0.97166 0.0
C398 C 0.14745 0.7159 0.0009 0.0
C399 C 0.17364 0.76459 0.87944 0.0
C400 C 0.13683 0.75128 0.02734 0.0
C401 C 0.18192 0.76197 0.07214 0.0
O402 O 0.17994 0.76756 0.02913 0.0
O403 O 0.17302 0.74922 0.08492 0.0
O404 O 0.17229 0.77337 0.91113 0.0
O405 O 0.16902 0.7519 0.89793 0.0
O406 O 0.25903 0.39674 0.06247 0.0
Cd407 Cd 0.26451 0.41757 0.04809 0.0
Cd408 Cd 0.24315 0.40684 0.97514 0.0
O409 O 0.24406 0.38872 0.99186 0.0
O410 O 0.28523 0.43069 0.05819 0.0
O411 O 0.27435 0.42583 0.97587 0.0
C412 C 0.28593 0.43231 0.00464 0.0
C413 C 0.23634 0.40991 0.88601 0.0
C414 C 0.25045 0.38652 0.03163 0.0
C415 C 0.24016 0.42113 0.07817 0.0
O416 O 0.23439 0.41345 0.03559 0.0
O417 O 0.25295 0.42499 0.0902 0.0
O418 O 0.22786 0.39976 0.91827 0.0
O419 O 0.24915 0.4181 0.90314 0.0
O420 O 0.13649 0.3931 0.55285 0.0
Cd421 Cd 0.15158 0.41431 0.5466 0.0
Cd422 Cd 0.16384 0.40523 0.47312 0.0
O423 O 0.14539 0.38618 0.48541 0.0
O424 O 0.14206 0.42558 0.55972 0.0
O425 O 0.15199 0.42532 0.47908 0.0
C426 C 0.14495 0.42968 0.5084 0.0
C427 C 0.17451 0.40955 0.38508 0.0
C428 C 0.13592 0.38331 0.52218 0.0
C429 C 0.17939 0.41855 0.58142 0.0
O430 O 0.17861 0.41214 0.53618 0.0
O431 O 0.16965 0.42123 0.59445 0.0
O432 O 0.17347 0.39959 0.41698 0.0
O433 O 0.16895 0.41692 0.40216 0.0
O434 O 0.60564 0.7433 0.55541 0.0
Cd435 Cd 0.5844 0.73697 0.54833 0.0
Cd436 Cd 0.5937 0.75883 0.4756 0.0
O437 O 0.61265 0.75925 0.48848 0.0
O438 O 0.57343 0.71618 0.56139 0.0
O439 O 0.5736 0.72625 0.48057 0.0
C440 C 0.56941 0.71487 0.50994 0.0
C441 C 0.59045 0.76669 0.38889 0.0
C442 C 0.61547 0.75259 0.52513 0.0
C443 C 0.57972 0.76017 0.58391 0.0
O444 O 0.58632 0.76605 0.53926 0.0
O445 O 0.5771 0.74775 0.59636 0.0
O446 O 0.60014 0.77499 0.42314 0.0
O447 O 0.58273 0.75354 0.40274 0.0
O448 O 0.25822 0.86279 0.55696 0.0
Cd449 Cd 0.26347 0.84726 0.54287 0.0
Cd450 Cd 0.2423 0.83692 0.46929 0.0
O451 O 0.24314 0.85588 0.48672 0.0
O452 O 0.28411 0.85455 0.55403 0.0
O453 O 0.27348 0.84875 0.47122 0.0
C454 C 0.28495 0.85363 0.50054 0.0
C455 C 0.23633 0.82752 0.37912 0.0
C456 C 0.24963 0.86448 0.52642 0.0
C457 C 0.23883 0.81938 0.57192 0.0
O458 O 0.23323 0.82133 0.52888 0.0
O459 O 0.25158 0.82828 0.58461 0.0
O460 O 0.2275 0.82888 0.41046 0.0
O461 O 0.249 0.83216 0.39789 0.0
O462 O 0.06212 0.47079 0.27722 0.0
Cd463 Cd 0.0833 0.48579 0.28509 0.0
Cd464 Cd 0.07387 0.49794 0.35841 0.0
O465 O 0.05491 0.47951 0.34431 0.0
O466 O 0.09447 0.47617 0.27195 0.0
O467 O 0.094 0.48581 0.35305 0.0
C468 C 0.09835 0.47878 0.32357 0.0
C469 C 0.07723 0.50847 0.44647 0.0
C470 C 0.0522 0.47015 0.30723 0.0
C471 C 0.0878 0.51372 0.25092 0.0
O472 O 0.08122 0.51284 0.29581 0.0
O473 O 0.09048 0.50398 0.23784 0.0
O474 O 0.06759 0.50742 0.41271 0.0
O475 O 0.08485 0.50303 0.43123 0.0
O476 O 0.5311 0.59114 0.2803 0.0
Cd477 Cd 0.51588 0.59704 0.28796 0.0
Cd478 Cd 0.50396 0.57549 0.3612 0.0
O479 O 0.5225 0.57516 0.34721 0.0
O480 O 0.52522 0.61781 0.27463 0.0
O481 O 0.51563 0.60766 0.35573 0.0
C482 C 0.52252 0.61905 0.32616 0.0
C483 C 0.4935 0.56854 0.44943 0.0
C484 C 0.53186 0.58192 0.31023 0.0
C485 C 0.48809 0.57336 0.25375 0.0
O486 O 0.48904 0.56771 0.29868 0.0
O487 O 0.49773 0.58581 0.24068 0.0
O488 O 0.49462 0.55989 0.41624 0.0
O489 O 0.49885 0.58154 0.43354 0.0
O490 O 0.40857 0.93696 0.26942 0.0
Cd491 Cd 0.40329 0.91622 0.28452 0.0
Cd492 Cd 0.4248 0.92728 0.35733 0.0
O493 O 0.42372 0.94526 0.33939 0.0
O494 O 0.3826 0.90294 0.27469 0.0
O495 O 0.39353 0.908 0.35693 0.0
C496 C 0.38195 0.90138 0.32827 0.0
C497 C 0.43217 0.92496 0.44648 0.0
C498 C 0.41719 0.9473 0.29969 0.0
C499 C 0.42769 0.91272 0.25478 0.0
O500 O 0.43344 0.92043 0.29729 0.0
O501 O 0.41491 0.90886 0.24254 0.0
O502 O 0.4404 0.93489 0.41291 0.0
O503 O 0.41929 0.91655 0.43062 0.0
C504 C 0.23238 0.20997 0.33585 0.0
C505 C 0.23133 0.19739 0.31596 0.0
C506 C 0.225 0.2159 0.30996 0.0
C507 C 0.21599 0.20883 0.26413 0.0
C508 C 0.21442 0.19579 0.24536 0.0
C509 C 0.22231 0.19034 0.27092 0.0
C510 C 0.22729 0.23002 0.33028 0.0
C511 C 0.20459 0.18772 0.19777 0.0
C512 C 0.19017 0.2215 0.22743 0.0
C513 C 0.19703 0.23047 0.18208 0.0
C514 C 0.19587 0.21383 0.25299 0.0
C515 C 0.20897 0.2156 0.23391 0.0
C516 C 0.21584 0.22455 0.18776 0.0
C517 C 0.20967 0.2317 0.16188 0.0
C518 C 0.188 0.20403 0.30094 0.0
C519 C 0.23002 0.22705 0.16709 0.0
H520 H 0.23943 0.21551 0.3704 0.0
H521 H 0.22141 0.18054 0.25574 0.0
H522 H 0.23188 0.23796 0.29619 0.0
H523 H 0.21703 0.22913 0.34201 0.0
H524 H 0.23451 0.23406 0.36686 0.0
H525 H 0.2035 0.1771 0.19186 0.0
H526 H 0.19393 0.18635 0.20535 0.0
H527 H 0.20865 0.1938 0.15844 0.0
H528 H 0.18034 0.22046 0.24286 0.0
H529 H 0.21506 0.23873 0.1271 0.0
H530 H 0.19414 0.20826 0.34007 0.0
H531 H 0.18683 0.19344 0.29363 0.0
H532 H 0.17732 0.20275 0.30705 0.0
H533 H 0.23801 0.23183 0.2009 0.0
H534 H 0.23387 0.2342 0.13025 0.0
H535 H 0.22929 0.21685 0.15563 0.0
C536 C 0.80945 0.02512 0.32902 0.0
C537 C 0.80678 0.03527 0.30504 0.0
C538 C 0.80399 0.01163 0.30495 0.0
C539 C 0.79509 0.00803 0.25746 0.0
C540 C 0.7924 0.01832 0.23313 0.0
C541 C 0.79855 0.03193 0.25657 0.0
C542 C 0.80761 0.00118 0.33064 0.0
C543 C 0.78257 0.01478 0.18379 0.0
C544 C 0.78646 0.9765 0.16409 0.0
C545 C 0.77353 0.9661 0.18654 0.0
C546 C 0.79397 0.99002 0.18849 0.0
C547 C 0.78804 0.99336 0.23464 0.0
C548 C 0.77498 0.98281 0.25748 0.0
C549 C 0.76804 0.9692 0.23383 0.0
C550 C 0.80815 0.00076 0.16446 0.0
C551 C 0.76803 0.98607 0.30531 0.0
H552 H 0.8159 0.02779 0.36641 0.0
H553 H 0.79638 0.03978 0.23851 0.0
H554 H 0.79799 0.99223 0.34939 0.0
H555 H 0.81147 0.99669 0.29802 0.0
H556 H 0.81584 0.00611 0.36361 0.0
H557 H 0.78148 0.02394 0.17022 0.0
H558 H 0.7865 0.01126 0.14803 0.0
H559 H 0.7719 0.00587 0.19474 0.0
H560 H 0.7907 0.97403 0.12759 0.0
H561 H 0.75794 0.96116 0.25068 0.0
H562 H 0.81618 0.00547 0.1982 0.0
H563 H 0.80734 0.00952 0.14463 0.0
H564 H 0.81198 0.99603 0.1327 0.0
H565 H 0.77517 0.9898 0.34204 0.0
H566 H 0.75782 0.9767 0.31792 0.0
H567 H 0.76601 0.99474 0.29317 0.0
C568 C 0.96921 0.78001 0.27199 0.0
C569 C 0.96708 0.77088 0.31679 0.0
C570 C 0.98262 0.78785 0.24688 0.0
C571 C 0.99398 0.78612 0.26585 0.0
C572 C 0.99187 0.777 0.31145 0.0
C573 C 0.97851 0.76967 0.3369 0.0
C574 C 0.98456 0.79781 0.19952 0.0
C575 C 0.00358 0.77453 0.33195 0.0
C576 C 0.02325 0.79236 0.16414 0.0
C577 C 0.0347 0.80492 0.18473 0.0
C578 C 0.0099 0.78624 0.18975 0.0
C579 C 0.00782 0.79309 0.23602 0.0
C580 C 0.0192 0.8061 0.25553 0.0
C581 C 0.0326 0.81175 0.23023 0.0
C582 C 0.99818 0.77215 0.16863 0.0
C583 C 0.01728 0.81394 0.30363 0.0
H584 H 0.9604 0.78103 0.25664 0.0
H585 H 0.97686 0.76252 0.37126 0.0
H586 H 0.99392 0.80841 0.20748 0.0
H587 H 0.98659 0.79377 0.16015 0.0
H588 H 0.97511 0.79902 0.19349 0.0
H589 H 1.00026 0.76725 0.36836 0.0
H590 H 0.00691 0.76993 0.29785 0.0
H591 H 0.01299 0.78472 0.34401 0.0
H592 H 0.02488 0.787 0.12924 0.0
H593 H 0.04142 0.82152 0.24595 0.0
H594 H 0.98878 0.773 0.15696 0.0
H595 H 0.99483 0.7641 0.20226 0.0
H596 H 0.00148 0.7683 0.13181 0.0
H597 H 0.00795 0.81525 0.29615 0.0
H598 H 0.02675 0.82456 0.31018 0.0
H599 H 0.01523 0.8077 0.34258 0.0
C600 C 0.79397 0.77287 0.83774 0.0
C601 C 0.80671 0.77421 0.81826 0.0
C602 C 0.78767 0.77976 0.81078 0.0
C603 C 0.79453 0.7886 0.7643 0.0
C604 C 0.8077 0.79045 0.74582 0.0
C605 C 0.81352 0.78301 0.77243 0.0
C606 C 0.77341 0.77716 0.8308 0.0
C607 C 0.81555 0.80013 0.69757 0.0
C608 C 0.77121 0.79392 0.66072 0.0
C609 C 0.77218 0.80652 0.67997 0.0
C610 C 0.77856 0.78806 0.68743 0.0
C611 C 0.78746 0.79523 0.73341 0.0
C612 C 0.78893 0.80828 0.75157 0.0
C613 C 0.78106 0.81365 0.72524 0.0
C614 C 0.77635 0.77393 0.66778 0.0
C615 C 0.79866 0.81646 0.79928 0.0
H616 H 0.78862 0.76596 0.87287 0.0
H617 H 0.82344 0.78414 0.75757 0.0
H618 H 0.77403 0.78733 0.84192 0.0
H619 H 0.76549 0.77231 0.79676 0.0
H620 H 0.76953 0.77004 0.8677 0.0
H621 H 0.82626 0.80142 0.69168 0.0
H622 H 0.80942 0.7958 0.65849 0.0
H623 H 0.8167 0.81073 0.70439 0.0
H624 H 0.76425 0.78833 0.62601 0.0
H625 H 0.78189 0.82345 0.73992 0.0
H626 H 0.77175 0.76606 0.7021 0.0
H627 H 0.78665 0.77485 0.65645 0.0
H628 H 0.76917 0.76979 0.63111 0.0
H629 H 0.79458 0.81041 0.83868 0.0
H630 H 0.79965 0.82704 0.80479 0.0
H631 H 0.80937 0.8179 0.7921 0.0
C632 C 0.22995 0.02299 0.84046 0.0
C633 C 0.22869 0.03435 0.81999 0.0
C634 C 0.22299 0.00969 0.81431 0.0
C635 C 0.21418 0.00759 0.7676 0.0
C636 C 0.21241 0.01889 0.74813 0.0
C637 C 0.2199 0.03223 0.77398 0.0
C638 C 0.22552 0.99807 0.83538 0.0
C639 C 0.20276 0.01693 0.69958 0.0
C640 C 0.20886 0.9786 0.66598 0.0
C641 C 0.19622 0.96705 0.68543 0.0
C642 C 0.21473 0.99189 0.69198 0.0
C643 C 0.20753 0.99379 0.73742 0.0
C644 C 0.19445 0.9823 0.75577 0.0
C645 C 0.18906 0.96898 0.73016 0.0
C646 C 0.22891 0.00373 0.67216 0.0
C647 C 0.18625 0.98404 0.80292 0.0
H648 H 0.23685 0.02463 0.87575 0.0
H649 H 0.21884 0.041 0.75834 0.0
H650 H 0.21531 0.98857 0.84664 0.0
H651 H 0.23039 0.99487 0.80187 0.0
H652 H 0.23259 0.00139 0.87245 0.0
H653 H 0.2015 0.02633 0.69296 0.0
H654 H 0.20711 0.01499 0.66083 0.0
H655 H 0.19215 0.00751 0.70658 0.0
H656 H 0.21447 0.9771 0.63168 0.0
H657 H 0.17923 0.96007 0.74498 0.0
H658 H 0.23674 0.00709 0.70664 0.0
H659 H 0.22803 0.01308 0.66006 0.0
H660 H 0.23305 1.00054 0.63595 0.0
H661 H 0.19226 0.98611 0.84248 0.0
H662 H 0.17564 0.97449 0.80862 0.0
H663 H 0.18485 0.9933 0.79496 0.0
C664 C 0.02212 0.22851 0.65977 0.0
C665 C 0.03353 0.2272 0.6794 0.0
C666 C 0.00884 0.22139 0.68604 0.0
C667 C 0.0068 0.21237 0.73195 0.0
C668 C 0.01815 0.21057 0.75055 0.0
C669 C 0.03148 0.21823 0.72467 0.0
C670 C 0.99717 0.22395 0.66595 0.0
C671 C 0.01626 0.2007 0.79818 0.0
C672 C 0.97777 0.20635 0.83466 0.0
C673 C 0.96626 0.1938 0.81443 0.0
C674 C 0.99107 0.21242 0.80855 0.0
C675 C 0.99301 0.2055 0.76219 0.0
C676 C 0.98155 0.19249 0.74303 0.0
C677 C 0.96822 0.18692 0.76878 0.0
C678 C 0.00286 0.22651 0.82925 0.0
C679 C 0.98333 0.18458 0.69489 0.0
H680 H 0.02372 0.23554 0.62506 0.0
H681 H 0.04028 0.21714 0.73964 0.0
H682 H 0.9877 0.21379 0.65403 0.0
H683 H 0.99393 0.22859 0.70022 0.0
H684 H 1.00046 0.23124 0.62955 0.0
H685 H 0.02571 0.19948 0.80416 0.0
H686 H 0.01429 0.20482 0.83748 0.0
H687 H 0.00688 0.1901 0.79055 0.0
H688 H 0.97625 0.21175 0.86967 0.0
H689 H 0.95934 0.17715 0.75334 0.0
H690 H 0.00618 0.23452 0.79546 0.0
H691 H 0.01226 0.22563 0.8407 0.0
H692 H 0.99965 0.23044 0.86611 0.0
H693 H 0.98535 0.19078 0.65588 0.0
H694 H 0.97382 0.17397 0.68862 0.0
H695 H 0.99264 0.18321 0.70213 0.0
C696 C 0.86846 0.566 0.56632 0.0
C697 C 0.85983 0.56046 0.51914 0.0
C698 C 0.87515 0.55908 0.58997 0.0
C699 C 0.87263 0.546 0.56726 0.0
C700 C 0.86333 0.54003 0.52121 0.0
C701 C 0.8573 0.54753 0.49681 0.0
C702 C 0.8854 0.56607 0.63767 0.0
C703 C 0.85988 0.52584 0.49733 0.0
C704 C 0.90073 0.53551 0.58906 0.0
C705 C 0.89588 0.52732 0.63762 0.0
C706 C 0.89324 0.54164 0.56564 0.0
C707 C 0.88028 0.53897 0.59008 0.0
C708 C 0.87501 0.53011 0.63766 0.0
C709 C 0.88307 0.52466 0.66171 0.0
C710 C 0.8995 0.55145 0.51619 0.0
C711 C 0.86096 0.52651 0.66349 0.0
H712 H 0.87052 0.5761 0.58307 0.0
H713 H 0.85056 0.54325 0.4604 0.0
H714 H 0.88202 0.55895 0.67448 0.0
H715 H 0.89608 0.56808 0.62544 0.0
H716 H 0.88625 0.57628 0.6502 0.0
H717 H 0.8513 0.52199 0.46564 0.0
H718 H 0.86945 0.52665 0.47743 0.0
H719 H 0.85659 0.51784 0.53115 0.0
H720 H 0.91073 0.53767 0.57091 0.0
H721 H 0.87931 0.51824 0.69917 0.0
H722 H 0.90126 0.56212 0.52705 0.0
H723 H 0.89202 0.54749 0.4805 0.0
H724 H 0.90974 0.55253 0.50255 0.0
H725 H 0.86165 0.53614 0.68215 0.0
H726 H 0.85769 0.5183 0.69655 0.0
H727 H 0.85259 0.52262 0.63096 0.0
C728 C 0.45482 0.3106 0.49751 0.0
C729 C 0.44193 0.30027 0.52047 0.0
C730 C 0.46239 0.32418 0.52131 0.0
C731 C 0.45655 0.32765 0.56741 0.0
C732 C 0.44353 0.31717 0.59079 0.0
C733 C 0.43653 0.3035 0.56772 0.0
C734 C 0.47652 0.33486 0.49673 0.0
C735 C 0.43667 0.32056 0.63858 0.0
C736 C 0.47813 0.35969 0.6603 0.0
C737 C 0.47539 0.36976 0.63598 0.0
C738 C 0.47263 0.34613 0.6368 0.0
C739 C 0.46364 0.34239 0.58956 0.0
C740 C 0.46089 0.3526 0.56486 0.0
C741 C 0.46707 0.36628 0.58772 0.0
C742 C 0.47631 0.33576 0.66286 0.0
C743 C 0.45096 0.34891 0.51575 0.0
H744 H 0.45899 0.30803 0.46105 0.0
H745 H 0.42647 0.29551 0.58497 0.0
H746 H 0.47566 0.34356 0.47654 0.0
H747 H 0.48461 0.33966 0.5302 0.0
H748 H 0.48028 0.33003 0.46513 0.0
H749 H 0.42649 0.31124 0.65169 0.0
H750 H 0.44389 0.32441 0.67507 0.0
H751 H 0.43463 0.32919 0.62612 0.0
H752 H 0.48464 0.36246 0.69754 0.0
H753 H 0.46485 0.37407 0.56939 0.0
H754 H 0.48009 0.33117 0.63038 0.0
H755 H 0.46673 0.32686 0.68212 0.0
H756 H 0.48461 0.34079 0.69551 0.0
H757 H 0.45482 0.34528 0.48011 0.0
H758 H 0.44984 0.35804 0.50182 0.0
H759 H 0.44032 0.34004 0.52718 0.0
C760 C 0.69849 0.1332 0.57482 0.0
C761 C 0.70203 0.14145 0.52637 0.0
C762 C 0.68481 0.12713 0.59761 0.0
C763 C 0.67466 0.12992 0.57262 0.0
C764 C 0.67846 0.13884 0.52515 0.0
C765 C 0.69202 0.14423 0.50175 0.0
C766 C 0.68106 0.11726 0.64697 0.0
C767 C 0.66815 0.14257 0.49877 0.0
C768 C 0.6357 0.10305 0.5948 0.0
C769 C 0.63253 0.10858 0.64183 0.0
C770 C 0.64937 0.10993 0.57167 0.0
C771 C 0.65992 0.12296 0.59477 0.0
C772 C 0.65652 0.12893 0.6406 0.0
C773 C 0.64293 0.12147 0.66448 0.0
C774 C 0.65269 0.10294 0.52417 0.0
C775 C 0.66726 0.14307 0.66487 0.0
H776 H 0.70623 0.13094 0.59338 0.0
H777 H 0.69483 0.15069 0.46437 0.0
H778 H 0.67748 0.12123 0.68244 0.0
H779 H 0.67213 0.10663 0.63576 0.0
H780 H 0.69013 0.11608 0.66107 0.0
H781 H 0.67323 0.1508 0.46588 0.0
H782 H 0.65921 0.13299 0.47975 0.0
H783 H 0.66362 0.14648 0.53103 0.0
H784 H 0.62766 0.09297 0.57781 0.0
H785 H 0.64042 0.12575 0.70077 0.0
H786 H 0.66126 0.10082 0.53688 0.0
H787 H 0.6566 0.1101 0.48753 0.0
H788 H 0.64331 0.09278 0.51122 0.0
H789 H 0.67592 0.14217 0.68529 0.0
H790 H 0.66248 0.14695 0.69621 0.0
H791 H 0.67213 0.15109 0.6312 0.0
C792 C 0.45838 0.10273 0.16534 0.0
C793 C 0.47102 0.10378 0.14608 0.0
C794 C 0.45267 0.11034 0.13965 0.0
C795 C 0.46003 0.11958 0.09475 0.0
C796 C 0.47312 0.12114 0.07666 0.0
C797 C 0.47834 0.11301 0.10192 0.0
C798 C 0.43849 0.10805 0.15916 0.0
C799 C 0.48149 0.13122 0.03013 0.0
C800 C 0.43791 0.12683 0.99189 0.0
C801 C 0.43916 0.13939 0.01307 0.0
C802 C 0.4448 0.12038 0.01768 0.0
C803 C 0.45353 0.1269 0.06477 0.0
C804 C 0.45532 0.13993 0.08488 0.0
C805 C 0.4479 0.1459 0.05936 0.0
C806 C 0.44227 0.10629 0.99589 0.0
C807 C 0.46489 0.14743 0.13385 0.0
H808 H 0.45264 0.09551 0.19919 0.0
H809 H 0.48817 0.11391 0.08726 0.0
H810 H 0.43942 0.11828 0.17174 0.0
H811 H 0.43074 0.10374 0.12438 0.0
H812 H 0.43421 0.1006 0.19499 0.0
H813 H 0.49208 0.13222 0.02472 0.0
H814 H 0.47558 0.12744 0.99028 0.0
H815 H 0.48293 0.14188 0.03858 0.0
H816 H 0.43106 0.12171 0.95638 0.0
H817 H 0.44895 0.15567 0.07556 0.0
H818 H 0.43726 0.0981 0.02891 0.0
H819 H 0.45248 0.10697 0.98491 0.0
H820 H 0.43531 0.10271 0.95848 0.0
H821 H 0.46041 0.14106 0.17232 0.0
H822 H 0.46624 0.15811 0.14081 0.0
H823 H 0.47548 0.14854 0.12712 0.0
C824 C 0.85511 0.30254 0.0622 0.0
C825 C 0.8619 0.30033 0.01685 0.0
C826 C 0.86083 0.31597 0.08724 0.0
C827 C 0.8739 0.32727 0.06768 0.0
C828 C 0.88073 0.32507 0.02165 0.0
C829 C 0.87452 0.31169 0.99624 0.0
C830 C 0.85301 0.31803 0.13502 0.0
C831 C 0.89488 0.33669 0.00056 0.0
C832 C 0.88705 0.36596 0.10256 0.0
C833 C 0.89605 0.3681 0.14786 0.0
C834 C 0.87924 0.35253 0.07756 0.0
C835 C 0.8809 0.34117 0.09711 0.0
C836 C 0.88993 0.34331 0.14309 0.0
C837 C 0.8972 0.35669 0.16847 0.0
C838 C 0.86938 0.35056 0.02981 0.0
C839 C 0.89234 0.33161 0.16417 0.0
H840 H 0.84529 0.29379 0.07793 0.0
H841 H 0.87985 0.30996 0.96147 0.0
H842 H 0.85923 0.32015 0.17405 0.0
H843 H 0.85174 0.32737 0.12705 0.0
H844 H 0.84237 0.3086 0.14172 0.0
H845 H 0.89874 0.33327 0.96412 0.0
H846 H 0.89411 0.34609 0.98833 0.0
H847 H 0.90289 0.34006 0.03439 0.0
H848 H 0.88608 0.37477 0.08683 0.0
H849 H 0.90425 0.35835 0.20321 0.0
H850 H 0.85873 0.34127 0.0378 0.0
H851 H 0.87343 0.34839 0.99076 0.0
H852 H 0.86825 0.36004 0.02314 0.0
H853 H 0.88212 0.32225 0.17641 0.0
H854 H 0.89962 0.33497 0.20061 0.0
H855 H 0.89692 0.32818 0.13034 0.0
C856 C 0.63648 0.5222 0.09883 0.0
C857 C 0.6344 0.5289 0.14482 0.0
C858 C 0.64986 0.52795 0.07328 0.0
C859 C 0.66122 0.54094 0.09301 0.0
C860 C 0.65915 0.54767 0.1397 0.0
C861 C 0.64582 0.54144 0.16558 0.0
C862 C 0.65177 0.52022 0.02477 0.0
C863 C 0.67085 0.56175 0.16104 0.0
C864 C 0.69982 0.55409 0.05641 0.0
C865 C 0.7019 0.56323 0.01169 0.0
C866 C 0.68644 0.54624 0.08172 0.0
C867 C 0.67506 0.54799 0.06311 0.0
C868 C 0.67712 0.55714 0.01769 0.0
C869 C 0.69046 0.56447 0.99195 0.0
C870 C 0.68454 0.53623 0.12883 0.0
C871 C 0.66541 0.55964 0.99762 0.0
H872 H 0.62767 0.51244 0.08298 0.0
H873 H 0.6442 0.5467 0.20086 0.0
H874 H 0.65382 0.52654 0.98606 0.0
H875 H 0.66112 0.51891 0.03195 0.0
H876 H 0.64231 0.50961 0.01797 0.0
H877 H 0.66754 0.56553 0.19803 0.0
H878 H 0.68026 0.56091 0.17252 0.0
H879 H 0.67418 0.56985 0.12759 0.0
H880 H 0.70864 0.55305 0.07145 0.0
H881 H 0.69208 0.57162 0.95767 0.0
H882 H 0.6752 0.52563 0.1207 0.0
H883 H 0.68248 0.54019 0.16836 0.0
H884 H 0.69401 0.53505 0.13469 0.0
H885 H 0.656 0.54947 0.9853 0.0
H886 H 0.66871 0.56701 0.96149 0.0
H887 H 0.66207 0.56415 0.03204 0.0
C888 C 0.52297 0.88928 0.89551 0.0
C889 C 0.52991 0.8983 0.85035 0.0
C890 C 0.52847 0.88139 0.92059 0.0
C891 C 0.54147 0.88295 0.90123 0.0
C892 C 0.54843 0.89195 0.85524 0.0
C893 C 0.54244 0.89933 0.82983 0.0
C894 C 0.52052 0.87156 0.96837 0.0
C895 C 0.5625 0.89424 0.83429 0.0
C896 C 0.56459 0.87672 0.00252 0.0
C897 C 0.56332 0.86407 0.98227 0.0
C898 C 0.55738 0.88287 0.97694 0.0
C899 C 0.54833 0.87596 0.93105 0.0
C900 C 0.54653 0.86286 0.91192 0.0
C901 C 0.55426 0.85718 0.93717 0.0
C902 C 0.55992 0.89705 0.99764 0.0
C903 C 0.53663 0.85496 0.86428 0.0
H904 H 0.51322 0.88839 0.91118 0.0
H905 H 0.5479 0.90638 0.79519 0.0
H906 H 0.51917 0.86091 0.96071 0.0
H907 H 0.52668 0.87566 0.00751 0.0
H908 H 0.5099 0.87045 0.97466 0.0
H909 H 0.56643 0.90142 0.79758 0.0
H910 H 0.57053 0.89887 0.86805 0.0
H911 H 0.56159 0.88397 0.82253 0.0
H912 H 0.57168 0.88213 0.0371 0.0
H913 H 0.55319 0.84734 0.92171 0.0
H914 H 0.54974 0.89631 0.0096 0.0
H915 H 0.56459 0.90502 0.96369 0.0
H916 H 0.56717 0.90095 0.03417 0.0
H917 H 0.52604 0.85376 0.87204 0.0
H918 H 0.53536 0.84428 0.85806 0.0
H919 H 0.54075 0.86108 0.82506 0.0
C920 C 0.11937 0.64269 0.83381 0.0
C921 C 0.10662 0.63251 0.85813 0.0
C922 C 0.12733 0.65626 0.85743 0.0
C923 C 0.12201 0.65987 0.90479 0.0
C924 C 0.10911 0.64955 0.92952 0.0
C925 C 0.10173 0.63587 0.90653 0.0
C926 C 0.14132 0.66676 0.83133 0.0
C927 C 0.10279 0.6531 0.97874 0.0
C928 C 0.14475 0.69179 0.99667 0.0
C929 C 0.14203 0.70201 0.9737 0.0
C930 C 0.13886 0.67821 0.97295 0.0
C931 C 0.1295 0.67462 0.92695 0.0
C932 C 0.12678 0.68498 0.90361 0.0
C933 C 0.13334 0.69866 0.92657 0.0
C934 C 0.14251 0.66767 0.99748 0.0
C935 C 0.11648 0.68145 0.85592 0.0
H936 H 0.12315 0.64001 0.79647 0.0
H937 H 0.09176 0.628 0.92485 0.0
H938 H 0.14048 0.67557 0.81206 0.0
H939 H 0.1497 0.67145 0.86378 0.0
H940 H 0.14468 0.66181 0.79867 0.0
H941 H 0.09264 0.64389 0.99277 0.0
H942 H 0.11031 0.65683 0.0143 0.0
H943 H 0.10085 0.66187 0.96739 0.0
H944 H 0.15154 0.69446 0.03303 0.0
H945 H 0.13114 0.70656 0.90931 0.0
H946 H 0.14589 0.66296 0.96397 0.0
H947 H 0.13302 0.65888 0.01766 0.0
H948 H 0.1511 0.67259 0.02907 0.0
H949 H 0.11993 0.67771 0.81934 0.0
H950 H 0.11544 0.69069 0.84294 0.0
H951 H 0.10586 0.67271 0.86842 0.0
C952 C 0.31013 0.45355 -0.0004 0.0
C953 C 0.29976 0.44065 0.97691 0.0
C954 C 0.32368 0.46109 0.97546 0.0
C955 C 0.32708 0.45521 0.92931 0.0
C956 C 0.31656 0.44217 0.90623 0.0
C957 C 0.30292 0.4352 0.92963 0.0
C958 C 0.33439 0.47525 -0.00026 0.0
C959 C 0.31988 0.43527 0.85839 0.0
C960 C 0.35895 0.47675 0.83555 0.0
C961 C 0.36909 0.47407 0.85963 0.0
C962 C 0.34542 0.47124 0.85938 0.0
C963 C 0.34178 0.4623 0.90673 0.0
C964 C 0.35205 0.4596 0.93117 0.0
C965 C 0.3657 0.46579 0.90797 0.0
C966 C 0.33498 0.47487 0.83358 0.0
C967 C 0.34847 0.44972 0.98037 0.0
H968 H 0.30762 0.45776 0.03609 0.0
H969 H 0.2949 0.42512 0.9126 0.0
H970 H 0.34314 0.47443 0.01966 0.0
H971 H 0.33913 0.48331 0.96614 0.0
H972 H 0.32962 0.47904 0.0315 0.0
H973 H 0.31053 0.42507 0.84559 0.0
H974 H 0.32365 0.44245 0.82177 0.0
H975 H 0.32854 0.43325 0.87064 0.0
H976 H 0.36165 0.48323 0.79825 0.0
H977 H 0.37354 0.46362 0.92611 0.0
H978 H 0.33045 0.47868 0.86617 0.0
H979 H 0.32606 0.46525 0.81465 0.0
H980 H 0.33993 0.48312 0.80074 0.0
H981 H 0.3449 0.4536 0.01612 0.0
H982 H 0.35763 0.44863 0.99404 0.0
H983 H 0.33959 0.43906 0.9692 0.0
C984 C 0.11568 0.4798 0.39475 0.0
C985 C 0.10684 0.47308 0.34893 0.0
C986 C 0.12324 0.474 0.42048 0.0
C987 C 0.12147 0.46092 0.40112 0.0
C988 C 0.1126 0.45416 0.35459 0.0
C989 C 0.10559 0.46045 0.32851 0.0
C990 C 0.13295 0.48175 0.4688 0.0
C991 C 0.11008 0.44 0.33366 0.0
C992 C 0.14668 0.44751 0.43822 0.0
C993 C 0.1396 0.43849 0.4832 0.0
C994 C 0.14124 0.45541 0.41264 0.0
C995 C 0.12818 0.45382 0.43125 0.0
C996 C 0.12106 0.44477 0.47692 0.0
C997 C 0.12699 0.4374 0.50291 0.0
C998 C 0.14937 0.4653 0.36526 0.0
C999 C 0.1069 0.44244 0.497 0.0
H1000 H 0.11673 0.48962 0.41033 0.0
H1001 H 0.09866 0.45517 0.29337 0.0
H1002 H 0.12866 0.47551 0.50768 0.0
H1003 H 0.14356 0.48294 0.46162 0.0
H1004 H 0.13421 0.49241 0.47527 0.0
H1005 H 0.10295 0.43621 0.29675 0.0
H1006 H 0.12028 0.44072 0.3222 0.0
H1007 H 0.10527 0.43197 0.36732 0.0
H1008 H 0.15649 0.44843 0.42319 0.0
H1009 H 0.12144 0.43033 0.5374 0.0
H1010 H 0.15075 0.47596 0.37309 0.0
H1011 H 0.14331 0.46131 0.32583 0.0
H1012 H 0.15997 0.46636 0.35939 0.0
H1013 H 0.10778 0.45267 0.50905 0.0
H1014 H 0.10281 0.43513 0.53333 0.0
H1015 H 0.09902 0.43793 0.46269 0.0
C1016 C 0.52099 0.63517 0.3968 0.0
C1017 C 0.52791 0.63321 0.35129 0.0
C1018 C 0.52648 0.64853 0.42225 0.0
C1019 C 0.53945 0.66002 0.40294 0.0
C1020 C 0.54641 0.65807 0.35674 0.0
C1021 C 0.54043 0.64475 0.33092 0.0
C1022 C 0.51852 0.65031 0.47023 0.0
C1023 C 0.56047 0.66991 0.3359 0.0
C1024 C 0.55192 0.69849 0.43939 0.0
C1025 C 0.56093 0.70068 0.48468 0.0
C1026 C 0.54433 0.68511 0.41386 0.0
C1027 C 0.54624 0.67385 0.43285 0.0
C1028 C 0.55528 0.67604 0.47881 0.0
C1029 C 0.56233 0.68936 0.50472 0.0
C1030 C 0.53443 0.68306 0.36616 0.0
C1031 C 0.55796 0.66446 0.49931 0.0
H1032 H 0.51125 0.62627 0.41234 0.0
H1033 H 0.54586 0.64323 0.29602 0.0
H1034 H 0.52474 0.65244 0.50925 0.0
H1035 H 0.51706 0.65955 0.46266 0.0
H1036 H 0.50796 0.64075 0.47667 0.0
H1037 H 0.56444 0.66668 0.29922 0.0
H1038 H 0.55951 0.67923 0.32411 0.0
H1039 H 0.56849 0.67333 0.36972 0.0
H1040 H 0.55076 0.70722 0.4241 0.0
H1041 H 0.5694 0.69107 0.53944 0.0
H1042 H 0.52386 0.67364 0.37392 0.0
H1043 H 0.53858 0.68108 0.32697 0.0
H1044 H 0.53312 0.69245 0.35989 0.0
H1045 H 0.54782 0.65497 0.51134 0.0
H1046 H 0.56523 0.66786 0.53575 0.0
H1047 H 0.56265 0.66123 0.46523 0.0
C1048 C 0.36496 0.89825 0.40367 0.0
C1049 C 0.36815 0.89292 0.35611 0.0
C1050 C 0.35133 0.89115 0.42716 0.0
C1051 C 0.34087 0.87812 0.40385 0.0
C1052 C 0.3443 0.87236 0.35741 0.0
C1053 C 0.35783 0.88002 0.33322 0.0
C1054 C 0.34796 0.89792 0.47534 0.0
C1055 C 0.33365 0.85822 0.33285 0.0
C1056 C 0.30902 0.85622 0.49729 0.0
C1057 C 0.29882 0.85886 0.47348 0.0
C1058 C 0.32257 0.86188 0.47349 0.0
C1059 C 0.32616 0.87092 0.42645 0.0
C1060 C 0.31583 0.87357 0.4023 0.0
C1061 C 0.30218 0.86724 0.42545 0.0
C1062 C 0.33307 0.8583 0.49897 0.0
C1063 C 0.31937 0.88354 0.35342 0.0
H1064 H 0.37293 0.90833 0.42086 0.0
H1065 H 0.36037 0.8759 0.29652 0.0
H1066 H 0.33927 0.89992 0.46333 0.0
H1067 H 0.34421 0.89067 0.51174 0.0
H1068 H 0.35728 0.90812 0.48839 0.0
H1069 H 0.33846 0.85453 0.30087 0.0
H1070 H 0.32896 0.8501 0.36626 0.0
H1071 H 0.32486 0.85901 0.31313 0.0
H1072 H 0.30635 0.84966 0.53434 0.0
H1073 H 0.2943 0.86939 0.4075 0.0
H1074 H 0.34197 0.86792 0.51802 0.0
H1075 H 0.33763 0.85457 0.46617 0.0
H1076 H 0.32817 0.84999 0.53166 0.0
H1077 H 0.32821 0.8942 0.36483 0.0
H1078 H 0.31017 0.8846 0.34 0.0
H1079 H 0.32297 0.87976 0.31744 0.0
C1080 C 0.11862 0.2652 0.84479 0.0
C1081 C 0.10537 0.25458 0.82566 0.0
C1082 C 0.12542 0.26275 0.88933 0.0
C1083 C 0.11886 0.24926 0.91517 0.0
C1084 C 0.10526 0.23859 0.89732 0.0
C1085 C 0.09861 0.24141 0.85277 0.0
C1086 C 0.1398 0.27451 0.90775 0.0
C1087 C 0.09798 0.22409 0.92389 0.0
C1088 C 0.14611 0.24288 0.98714 0.0
C1089 C 0.14574 0.24744 0.0415 0.0
C1090 C 0.1366 0.24233 0.94626 0.0
C1091 C 0.12657 0.2465 0.96015 0.0
C1092 C 0.12545 0.25007 0.01591 0.0
C1093 C 0.13503 0.25047 0.05591 0.0
C1094 C 0.13798 0.23828 0.8873 0.0
C1095 C 0.11489 0.25454 0.03252 0.0
H1096 H 0.12384 0.27544 0.82419 0.0
H1097 H 0.0884 0.23314 0.83779 0.0
H1098 H 0.13965 0.27661 0.95299 0.0
H1099 H 0.14787 0.27127 0.90121 0.0
H1100 H 0.14318 0.28454 0.88458 0.0
H1101 H 0.08698 0.21736 0.9083 0.0
H1102 H 0.10409 0.21867 0.91482 0.0
H1103 H 0.09767 0.225 0.96992 0.0
H1104 H 0.15425 0.24039 0.97574 0.0
H1105 H 0.1345 0.25381 0.09803 0.0
H1106 H 0.14272 0.24789 0.86056 0.0
H1107 H 0.12741 0.23076 0.8698 0.0
H1108 H 0.1448 0.2334 0.88498 0.0
H1109 H 0.11835 0.26526 0.01554 0.0
H1110 H 0.1139 0.2549 0.07857 0.0
H1111 H 0.10428 0.24723 0.01479 0.0
C1112 C 0.75275 0.88369 0.06019 0.0
C1113 C 0.75679 0.89769 0.0455 0.0
C1114 C 0.75268 0.87418 0.02061 0.0
C1115 C 0.75675 0.87879 0.96504 0.0
C1116 C 0.76208 0.89324 0.95124 0.0
C1117 C 0.76205 0.90254 0.99172 0.0
C1118 C 0.74706 0.85892 0.03722 0.0
C1119 C 0.76667 0.8986 0.89251 0.0
C1120 C 0.75935 0.85483 0.85559 0.0
C1121 C 0.74626 0.84958 0.82843 0.0
C1122 C 0.76289 0.86415 0.90118 0.0
C1123 C 0.75307 0.86818 0.91982 0.0
C1124 C 0.73962 0.86238 0.89395 0.0
C1125 C 0.73641 0.85319 0.84861 0.0
C1126 C 0.7773 0.87008 0.92795 0.0
C1127 C 0.72874 0.86623 0.91301 0.0
H1128 H 0.74889 0.8799 0.10197 0.0
H1129 H 0.76533 0.91337 0.98014 0.0
H1130 H 0.73613 0.85235 0.02089 0.0
H1131 H 0.75363 0.85477 0.01897 0.0
H1132 H 0.74676 0.85761 0.08328 0.0
H1133 H 0.77253 0.91036 0.8905 0.0
H1134 H 0.77351 0.89464 0.87531 0.0
H1135 H 0.75718 0.89456 0.86532 0.0
H1136 H 0.76702 0.85211 0.83997 0.0
H1137 H 0.72623 0.84906 0.82808 0.0
H1138 H 0.77629 0.86904 0.97402 0.0
H1139 H 0.78377 0.88155 0.91831 0.0
H1140 H 0.78306 0.86471 0.91285 0.0
H1141 H 0.7265 0.8639 0.95813 0.0
H1142 H 0.7186 0.86039 0.88967 0.0
H1143 H 0.73296 0.87776 0.90722 0.0
C1144 C 0.11654 0.86719 0.0604 0.0
C1145 C 0.10297 0.85629 0.04513 0.0
C1146 C 0.12588 0.87673 0.02069 0.0
C1147 C 0.12152 0.87538 0.96436 0.0
C1148 C 0.10744 0.8652 0.94954 0.0
C1149 C 0.09831 0.85574 0.99016 0.0
C1150 C 0.14077 0.88747 0.03832 0.0
C1151 C 0.10236 0.86356 0.88994 0.0
C1152 C 0.14499 0.90285 0.85659 0.0
C1153 C 0.15161 0.89601 0.83177 0.0
C1154 C 0.13526 0.8964 0.90051 0.0
C1155 C 0.13226 0.8829 0.92005 0.0
C1156 C 0.13939 0.87628 0.89657 0.0
C1157 C 0.14891 0.88288 0.85261 0.0
C1158 C 0.12783 0.90375 0.92454 0.0
C1159 C 0.13671 0.862 0.91687 0.0
H1160 H 0.12018 0.86787 0.10301 0.0
H1161 H 0.0878 0.84745 0.9781 0.0
H1162 H 0.1482 0.884 0.02341 0.0
H1163 H 0.14411 0.89796 0.01937 0.0
H1164 H 0.14179 0.88869 0.08441 0.0
H1165 H 0.09066 0.85672 0.88671 0.0
H1166 H 0.10549 0.87406 0.87138 0.0
H1167 H 0.10738 0.85872 0.86473 0.0
H1168 H 0.14698 0.91297 0.84027 0.0
H1169 H 0.15408 0.8776 0.83379 0.0
H1170 H 0.12867 0.9042 0.97072 0.0
H1171 H 0.11638 0.89762 0.91404 0.0
H1172 H 0.13223 0.9147 0.90819 0.0
H1173 H 0.13868 0.86238 0.96244 0.0
H1174 H 0.14352 0.85855 0.89546 0.0
H1175 H 0.12546 0.85388 0.90964 0.0
C1176 C 0.26644 0.11952 0.65395 0.0
C1177 C 0.25582 0.10624 0.67288 0.0
C1178 C 0.26401 0.12631 0.60934 0.0
C1179 C 0.25056 0.11973 0.58321 0.0
C1180 C 0.2399 0.10611 0.60085 0.0
C1181 C 0.24269 0.09946 0.64548 0.0
C1182 C 0.27577 0.14073 0.59116 0.0
C1183 C 0.22544 0.0988 0.57395 0.0
C1184 C 0.24412 0.14692 0.51112 0.0
C1185 C 0.24876 0.14661 0.45685 0.0
C1186 C 0.24358 0.13742 0.55199 0.0
C1187 C 0.24782 0.12744 0.53817 0.0
C1188 C 0.25147 0.12638 0.48249 0.0
C1189 C 0.25187 0.13595 0.44248 0.0
C1190 C 0.23944 0.13874 0.61087 0.0
C1191 C 0.25604 0.11588 0.46597 0.0
H1192 H 0.27665 0.12476 0.67476 0.0
H1193 H 0.23442 0.08923 0.6603 0.0
H1194 H 0.27793 0.14062 0.54596 0.0
H1195 H 0.27248 0.14876 0.59763 0.0
H1196 H 0.28577 0.14413 0.61453 0.0
H1197 H 0.21872 0.08778 0.58941 0.0
H1198 H 0.21996 0.10486 0.58287 0.0
H1199 H 0.22642 0.09852 0.52794 0.0
H1200 H 0.24157 0.15503 0.52247 0.0
H1201 H 0.25527 0.13546 0.40045 0.0
H1202 H 0.24901 0.14348 0.63781 0.0
H1203 H 0.23191 0.12814 0.62821 0.0
H1204 H 0.23451 0.14552 0.61311 0.0
H1205 H 0.26675 0.11937 0.48318 0.0
H1206 H 0.25647 0.11493 0.41993 0.0
H1207 H 0.24873 0.10525 0.48355 0.0
C1208 C 0.86735 0.11767 0.43215 0.0
C1209 C 0.85728 0.10368 0.44647 0.0
C1210 C 0.87689 0.12703 0.47187 0.0
C1211 C 0.87633 0.12229 0.52724 0.0
C1212 C 0.86703 0.10787 0.54074 0.0
C1213 C 0.8576 0.09871 0.50013 0.0
C1214 C 0.88672 0.14229 0.45561 0.0
C1215 C 0.86623 0.10237 0.59925 0.0
C1216 C 0.90354 0.14563 0.63606 0.0
C1217 C 0.89606 0.15114 0.66425 0.0
C1218 C 0.89743 0.13643 0.59035 0.0
C1219 C 0.8836 0.13277 0.57261 0.0
C1220 C 0.87631 0.13882 0.59952 0.0
C1221 C 0.88262 0.14789 0.64499 0.0
C1222 C 0.90551 0.13021 0.56248 0.0
C1223 C 0.86163 0.13537 0.58144 0.0
H1224 H 0.86736 0.12157 0.3905 0.0
H1225 H 0.84996 0.08789 0.51143 0.0
H1226 H 0.88262 0.149 0.47294 0.0
H1227 H 0.89746 0.14619 0.47318 0.0
H1228 H 0.8876 0.14371 0.40958 0.0
H1229 H 0.86005 0.09061 0.60105 0.0
H1230 H 0.87701 0.10602 0.61597 0.0
H1231 H 0.86106 0.10661 0.62698 0.0
H1232 H 0.91391 0.14808 0.65097 0.0
H1233 H 0.87683 0.1522 0.66632 0.0
H1234 H 0.90552 0.13145 0.51651 0.0
H1235 H 0.90022 0.11869 0.5714 0.0
H1236 H 0.91666 0.13524 0.57728 0.0
H1237 H 0.86164 0.13779 0.53645 0.0
H1238 H 0.85766 0.14139 0.60547 0.0
H1239 H 0.85411 0.12388 0.58712 0.0
C1240 C 0.85798 0.75994 0.64608 0.0
C1241 C 0.8517 0.74692 0.6743 0.0
C1242 C 0.86736 0.76257 0.6014 0.0
C1243 C 0.87034 0.75187 0.58453 0.0
C1244 C 0.86356 0.73853 0.61158 0.0
C1245 C 0.85439 0.73626 0.65623 0.0
C1246 C 0.87444 0.77692 0.57355 0.0
C1247 C 0.86623 0.72673 0.59423 0.0
C1248 C 0.88484 0.75005 0.44352 0.0
C1249 C 0.89869 0.75331 0.45734 0.0
C1250 C 0.87576 0.75053 0.48378 0.0
C1251 C 0.88065 0.75442 0.53916 0.0
C1252 C 0.89493 0.75877 0.55241 0.0
C1253 C 0.90379 0.75814 0.5113 0.0
C1254 C 0.86062 0.74582 0.46788 0.0
C1255 C 0.90057 0.76316 0.61094 0.0
H1256 H 0.85599 0.76824 0.66023 0.0
H1257 H 0.84948 0.72614 0.67768 0.0
H1258 H 0.88601 0.7824 0.58165 0.0
H1259 H 0.87296 0.77573 0.52766 0.0
H1260 H 0.87024 0.78373 0.58889 0.0
H1261 H 0.85973 0.71684 0.61838 0.0
H1262 H 0.86383 0.72434 0.54922 0.0
H1263 H 0.87758 0.7301 0.60037 0.0
H1264 H 0.88084 0.7465 0.40177 0.0
H1265 H 0.91452 0.76081 0.52224 0.0
H1266 H 0.85733 0.7532 0.48492 0.0
H1267 H 0.85349 0.73521 0.48607 0.0
H1268 H 0.85907 0.74513 0.42191 0.0
H1269 H 0.89753 0.77074 0.62794 0.0
H1270 H 0.91229 0.76812 0.61268 0.0
H1271 H 0.89585 0.7537 0.6385 0.0
C1272 C 0.87042 0.75719 0.94389 0.0
C1273 C 0.85921 0.75927 0.96028 0.0
C1274 C 0.87987 0.75704 0.9832 0.0
C1275 C 0.87808 0.75906 0.04026 0.0
C1276 C 0.86768 0.76255 0.05636 0.0
C1277 C 0.85833 0.76261 0.0161 0.0
C1278 C 0.89088 0.75339 0.96415 0.0
C1279 C 0.86561 0.765 0.11678 0.0
C1280 C 0.88455 0.73711 0.14587 0.0
C1281 C 0.89745 0.74713 0.16984 0.0
C1282 C 0.87839 0.74085 0.10277 0.0
C1283 C 0.88523 0.75503 0.0834 0.0
C1284 C 0.89852 0.76511 0.10601 0.0
C1285 C 0.90453 0.76102 0.14897 0.0
C1286 C 0.86433 0.72968 0.07907 0.0
C1287 C 0.90609 0.78031 0.08642 0.0
H1288 H 0.87136 0.75486 0.90062 0.0
H1289 H 0.8498 0.76437 0.02905 0.0
H1290 H 0.90116 0.76018 0.98529 0.0
H1291 H 0.88735 0.74223 0.97537 0.0
H1292 H 0.89255 0.75458 0.91827 0.0
H1293 H 0.85876 0.76982 0.12138 0.0
H1294 H 0.86054 0.75473 0.13932 0.0
H1295 H 0.87596 0.772 0.13714 0.0
H1296 H 0.87909 0.72634 0.16163 0.0
H1297 H 0.91446 0.76882 0.16774 0.0
H1298 H 0.86515 0.72896 0.03316 0.0
H1299 H 0.85612 0.73264 0.08723 0.0
H1300 H 0.86069 0.71903 0.09736 0.0
H1301 H 0.90674 0.78082 0.0402 0.0
H1302 H 0.91697 0.78645 0.10386 0.0
H1303 H 0.89999 0.78549 0.09948 0.0
C1304 C 0.24053 0.09797 0.01473 0.0
C1305 C 0.24405 0.10224 0.95905 0.0
C1306 C 0.24053 0.10736 0.05491 0.0
C1307 C 0.24415 0.12129 0.03885 0.0
C1308 C 0.24639 0.12517 0.98188 0.0
C1309 C 0.24629 0.11558 0.94265 0.0
C1310 C 0.23786 0.10276 0.11523 0.0
C1311 C 0.25018 0.13987 0.96291 0.0
C1312 C 0.24186 0.14559 0.14753 0.0
C1313 C 0.25566 0.15229 0.16928 0.0
C1314 C 0.23791 0.1356 0.10419 0.0
C1315 C 0.24807 0.13241 0.08213 0.0
C1316 C 0.26216 0.13966 0.10236 0.0
C1317 C 0.26576 0.14945 0.14579 0.0
C1318 C 0.22279 0.12806 0.08365 0.0
C1319 C 0.2734 0.13679 0.07928 0.0
H1320 H 0.23864 0.08763 0.02768 0.0
H1321 H 0.24877 0.1189 0.89949 0.0
H1322 H 0.24806 0.10794 0.13833 0.0
H1323 H 0.2308 0.1061 0.13512 0.0
H1324 H 0.23301 0.0911 0.1197 0.0
H1325 H 0.24915 0.14041 0.91696 0.0
H1326 H 0.24335 0.14338 0.9836 0.0
H1327 H 0.26131 0.14745 0.97471 0.0
H1328 H 0.23401 0.1477 0.1659 0.0
H1329 H 0.27647 0.15469 0.16222 0.0
H1330 H 0.21752 0.11677 0.09644 0.0
H1331 H 0.22248 0.12829 0.0374 0.0
H1332 H 0.21663 0.13282 0.10066 0.0
H1333 H 0.27038 0.12559 0.08728 0.0
H1334 H 0.28399 0.14375 0.09815 0.0
H1335 H 0.27428 0.1384 0.03341 0.0
C1336 C 0.85441 0.09635 0.13943 0.0
C1337 C 0.84774 0.10336 0.16226 0.0
C1338 C 0.86422 0.10247 0.09553 0.0
C1339 C 0.86728 0.11581 0.07407 0.0
C1340 C 0.86 0.12255 0.0952 0.0
C1341 C 0.85037 0.11626 0.13909 0.0
C1342 C 0.87174 0.09497 0.07389 0.0
C1343 C 0.86276 0.13668 0.07285 0.0
C1344 C 0.90188 0.14276 0.00753 0.0
C1345 C 0.89773 0.14217 0.95177 0.0
C1346 C 0.89236 0.13338 0.04741 0.0
C1347 C 0.87841 0.12321 0.03098 0.0
C1348 C 0.8746 0.12175 0.97395 0.0
C1349 C 0.88431 0.13125 0.93503 0.0
C1350 C 0.89688 0.13513 0.10781 0.0
C1351 C 0.85989 0.11097 0.9546 0.0
H1352 H 0.85247 0.0864 0.15745 0.0
H1353 H 0.84515 0.12167 0.15633 0.0
H1354 H 0.87145 0.09458 0.02761 0.0
H1355 H 0.88305 0.10094 0.08652 0.0
H1356 H 0.867 0.08398 0.09027 0.0
H1357 H 0.85575 0.14018 0.09218 0.0
H1358 H 0.87394 0.14489 0.08098 0.0
H1359 H 0.86114 0.13607 0.02699 0.0
H1360 H 0.91226 0.15107 0.02076 0.0
H1361 H 0.88106 0.13055 0.89182 0.0
H1362 H 0.8936 0.12468 0.12708 0.0
H1363 H 0.89159 0.13998 0.13126 0.0
H1364 H 0.90853 0.14201 0.11264 0.0
H1365 H 0.85631 0.10055 0.97466 0.0
H1366 H 0.85935 0.10957 0.90856 0.0
H1367 H 0.85234 0.11453 0.96689 0.0
C1368 C 0.73536 0.88469 0.3509 0.0
C1369 C 0.74592 0.89755 0.32846 0.0
C1370 C 0.73831 0.87817 0.3951 0.0
C1371 C 0.75221 0.88462 0.41727 0.0
C1372 C 0.76279 0.89793 0.39655 0.0
C1373 C 0.75949 0.9043 0.35235 0.0
C1374 C 0.72665 0.86409 0.41665 0.0
C1375 C 0.7777 0.90513 0.41929 0.0
C1376 C 0.75304 0.86882 0.55655 0.0
C1377 C 0.75544 0.85782 0.54009 0.0
C1378 C 0.75306 0.87841 0.51749 0.0
C1379 C 0.75556 0.87697 0.46062 0.0
C1380 C 0.75918 0.86667 0.44448 0.0
C1381 C 0.75908 0.8572 0.48448 0.0
C1382 C 0.74926 0.88931 0.53652 0.0
C1383 C 0.76209 0.86493 0.38424 0.0
H1384 H 0.72482 0.87949 0.33283 0.0
H1385 H 0.7677 0.9142 0.33488 0.0
H1386 H 0.72943 0.85574 0.40865 0.0
H1387 H 0.72548 0.86463 0.46244 0.0
H1388 H 0.71627 0.86085 0.39663 0.0
H1389 H 0.78421 0.91611 0.40321 0.0
H1390 H 0.77759 0.90547 0.46556 0.0
H1391 H 0.78288 0.89897 0.40725 0.0
H1392 H 0.75043 0.86955 0.59964 0.0
H1393 H 0.76107 0.84882 0.47147 0.0
H1394 H 0.73826 0.88596 0.52333 0.0
H1395 H 0.75634 0.89975 0.51698 0.0
H1396 H 0.74991 0.8906 0.58261 0.0
H1397 H 0.75204 0.86031 0.3602 0.0
H1398 H 0.76664 0.85786 0.37968 0.0
H1399 H 0.76949 0.87537 0.36539 0.0
C1400 C 0.11881 0.85273 0.35346 0.0
C1401 C 0.10572 0.85003 0.33208 0.0
C1402 C 0.12535 0.86232 0.39726 0.0
C1403 C 0.11871 0.86952 0.42001 0.0
C1404 C 0.10525 0.86651 0.39994 0.0
C1405 C 0.09885 0.8567 0.35621 0.0
C1406 C 0.13959 0.86502 0.41814 0.0
C1407 C 0.09788 0.87401 0.42318 0.0
C1408 C 0.13427 0.8855 0.56019 0.0
C1409 C 0.14523 0.89902 0.54467 0.0
C1410 C 0.12476 0.87611 0.52058 0.0
C1411 C 0.12619 0.88034 0.46407 0.0
C1412 C 0.13642 0.89438 0.44895 0.0
C1413 C 0.14586 0.90358 0.48949 0.0
C1414 C 0.11396 0.86126 0.53853 0.0
C1415 C 0.13813 0.89935 0.38916 0.0
H1416 H 0.1241 0.84752 0.33518 0.0
H1417 H 0.08877 0.8547 0.33946 0.0
H1418 H 0.14774 0.87625 0.41068 0.0
H1419 H 0.13914 0.86314 0.4638 0.0
H1420 H 0.14305 0.85815 0.39731 0.0
H1421 H 0.08695 0.86956 0.40663 0.0
H1422 H 0.0974 0.87329 0.46939 0.0
H1423 H 0.10403 0.88542 0.41222 0.0
H1424 H 0.13354 0.88194 0.60296 0.0
H1425 H 0.15419 0.91404 0.47723 0.0
H1426 H 0.11743 0.85378 0.52428 0.0
H1427 H 0.1035 0.8579 0.51921 0.0
H1428 H 0.11267 0.86035 0.58461 0.0
H1429 H 0.14299 0.89426 0.36445 0.0
H1430 H 0.145 0.91103 0.38562 0.0
H1431 H 0.12767 0.89619 0.37028 0.0
C1432 C 0.11478 0.24526 0.55573 0.0
C1433 C 0.10139 0.24294 0.53947 0.0
C1434 C 0.12435 0.24536 0.51642 0.0
C1435 C 0.12042 0.24305 0.45951 0.0
C1436 C 0.10646 0.23936 0.44361 0.0
C1437 C 0.09708 0.23936 0.48386 0.0
C1438 C 0.13909 0.24923 0.53524 0.0
C1439 C 0.10181 0.23661 0.38336 0.0
C1440 C 0.1485 0.2646 0.3522 0.0
C1441 C 0.15139 0.25452 0.32893 0.0
C1442 C 0.13871 0.26102 0.39564 0.0
C1443 C 0.13151 0.24694 0.41611 0.0
C1444 C 0.13474 0.2368 0.39424 0.0
C1445 C 0.14473 0.24074 0.35089 0.0
C1446 C 0.1358 0.27225 0.4185 0.0
C1447 C 0.12725 0.22171 0.41504 0.0
H1448 H 0.11813 0.24779 0.59884 0.0
H1449 H 0.08672 0.23741 0.47102 0.0
H1450 H 0.14262 0.24241 0.51465 0.0
H1451 H 0.14663 0.26035 0.52317 0.0
H1452 H 0.13969 0.24828 0.58121 0.0
H1453 H 0.09014 0.23171 0.37905 0.0
H1454 H 0.10693 0.24678 0.36008 0.0
H1455 H 0.10517 0.22956 0.36355 0.0
H1456 H 0.1537 0.27529 0.3356 0.0
H1457 H 0.14687 0.23289 0.33269 0.0
H1458 H 0.13744 0.27319 0.46435 0.0
H1459 H 0.12458 0.26917 0.41057 0.0
H1460 H 0.14271 0.28281 0.39941 0.0
H1461 H 0.12755 0.22145 0.46129 0.0
H1462 H 0.13201 0.21554 0.39802 0.0
H1463 H 0.11594 0.2164 0.40249 0.0
C1464 C 0.79778 0.58064 0.39382 0.0
C1465 C 0.80788 0.57684 0.37857 0.0
C1466 C 0.78836 0.58082 0.3544 0.0
C1467 C 0.78908 0.57712 0.29843 0.0
C1468 C 0.79831 0.57197 0.28401 0.0
C1469 C 0.80761 0.57188 0.32434 0.0
C1470 C 0.77856 0.5862 0.37169 0.0
C1471 C 0.79926 0.56776 0.22484 0.0
C1472 C 0.76281 0.57509 0.1887 0.0
C1473 C 0.77068 0.58836 0.16287 0.0
C1474 C 0.76847 0.5713 0.23397 0.0
C1475 C 0.78224 0.58104 0.25364 0.0
C1476 C 0.78991 0.59466 0.22918 0.0
C1477 C 0.78406 0.59813 0.18413 0.0
C1478 C 0.75996 0.55671 0.25922 0.0
C1479 C 0.80455 0.60547 0.2494 0.0
H1480 H 0.79772 0.58425 0.43594 0.0
H1481 H 0.81528 0.56878 0.31232 0.0
H1482 H 0.78291 0.59724 0.35662 0.0
H1483 H 0.76792 0.57971 0.35275 0.0
H1484 H 0.77739 0.58616 0.41777 0.0
H1485 H 0.80523 0.56197 0.22222 0.0
H1486 H 0.78853 0.561 0.20704 0.0
H1487 H 0.80475 0.57742 0.19856 0.0
H1488 H 0.75249 0.56749 0.17224 0.0
H1489 H 0.79014 0.60844 0.16464 0.0
H1490 H 0.75984 0.55739 0.3054 0.0
H1491 H 0.76499 0.55033 0.24857 0.0
H1492 H 0.74886 0.55105 0.24379 0.0
H1493 H 0.8043 0.6074 0.29474 0.0
H1494 H 0.80887 0.61576 0.22714 0.0
H1495 H 0.81194 0.60136 0.24317 0.0
C1496 C 0.4044 0.18689 0.1862 0.0
C1497 C 0.41423 0.18333 0.16526 0.0
C1498 C 0.40773 0.1961 0.23156 0.0
C1499 C 0.42127 0.20197 0.25667 0.0
C1500 C 0.43106 0.19797 0.23736 0.0
C1501 C 0.4274 0.18864 0.19176 0.0
C1502 C 0.39687 0.19991 0.25135 0.0
C1503 C 0.44556 0.20397 0.26333 0.0
C1504 C 0.43033 0.23643 0.32768 0.0
C1505 C 0.42522 0.23169 0.38171 0.0
C1506 C 0.43031 0.22707 0.28737 0.0
C1507 C 0.42509 0.21267 0.30161 0.0
C1508 C 0.42121 0.20818 0.35743 0.0
C1509 C 0.42132 0.21775 0.39682 0.0
C1510 C 0.4347 0.23231 0.22838 0.0
C1511 C 0.41574 0.19298 0.37451 0.0
H1512 H 0.39415 0.18272 0.1662 0.0
H1513 H 0.43506 0.18595 0.17556 0.0
H1514 H 0.39482 0.19765 0.29659 0.0
H1515 H 0.40101 0.21142 0.24535 0.0
H1516 H 0.38665 0.19398 0.22864 0.0
H1517 H 0.45124 0.19851 0.24821 0.0
H1518 H 0.45202 0.21539 0.25294 0.0
H1519 H 0.44474 0.20311 0.30948 0.0
H1520 H 0.43351 0.24722 0.31578 0.0
H1521 H 0.41759 0.21404 0.43879 0.0
H1522 H 0.42512 0.22817 0.20166 0.0
H1523 H 0.44151 0.22835 0.21094 0.0
H1524 H 0.4405 0.24407 0.22596 0.0
H1525 H 0.40474 0.18633 0.35897 0.0
H1526 H 0.41566 0.19179 0.4206 0.0
H1527 H 0.42226 0.18882 0.35587 0.0
C1528 C 0.81508 0.21648 0.18787 0.0
C1529 C 0.8185 0.22999 0.16879 0.0
C1530 C 0.80601 0.21024 0.23338 0.0
C1531 C 0.80013 0.21766 0.26051 0.0
C1532 C 0.80396 0.23154 0.24295 0.0
C1533 C 0.81317 0.23758 0.1972 0.0
C1534 C 0.80237 0.19549 0.25126 0.0
C1535 C 0.79793 0.23976 0.27107 0.0
C1536 C 0.76596 0.19195 0.33309 0.0
C1537 C 0.77091 0.19153 0.38669 0.0
C1538 C 0.77518 0.20132 0.29249 0.0
C1539 C 0.78964 0.21046 0.30593 0.0
C1540 C 0.79438 0.21092 0.36123 0.0
C1541 C 0.78496 0.20144 0.40095 0.0
C1542 C 0.76968 0.20063 0.23405 0.0
C1543 C 0.80968 0.22058 0.37742 0.0
H1544 H 0.81927 0.21061 0.16637 0.0
H1545 H 0.81574 0.248 0.18243 0.0
H1546 H 0.8048 0.19543 0.2962 0.0
H1547 H 0.79085 0.18809 0.24563 0.0
H1548 H 0.80828 0.19141 0.22705 0.0
H1549 H 0.80307 0.25091 0.25634 0.0
H1550 H 0.7864 0.2346 0.26232 0.0
H1551 H 0.79919 0.23973 0.31701 0.0
H1552 H 0.7551 0.18443 0.32183 0.0
H1553 H 0.78884 0.20137 0.44255 0.0
H1554 H 0.7738 0.19538 0.20617 0.0
H1555 H 0.77346 0.21144 0.21745 0.0
H1556 H 0.75792 0.19458 0.23232 0.0
H1557 H 0.81626 0.21636 0.35989 0.0
H1558 H 0.81113 0.22141 0.42344 0.0
H1559 H 0.8137 0.23135 0.35999 0.0
C1560 C 0.90876 0.47663 0.83281 0.0
C1561 C 0.91388 0.47687 0.7789 0.0
C1562 C 0.90858 0.46722 0.87334 0.0
C1563 C 0.91362 0.45788 0.8595 0.0
C1564 C 0.91763 0.45724 0.80391 0.0
C1565 C 0.91771 0.46675 0.76428 0.0
C1566 C 0.90407 0.46811 0.9321 0.0
C1567 C 0.92295 0.44736 0.78728 0.0
C1568 C 0.93327 0.45169 0.9762 0.0
C1569 C 0.92312 0.43829 0.99593 0.0
C1570 C 0.93038 0.45794 0.93089 0.0
C1571 C 0.91696 0.45065 0.90465 0.0
C1572 C 0.90683 0.43686 0.92284 0.0
C1573 C 0.91005 0.4308 0.96836 0.0
C1574 C 0.94158 0.47259 0.91229 0.0
C1575 C 0.89243 0.42876 0.89569 0.0
H1576 H 0.90565 0.48431 0.84435 0.0
H1577 H 0.92147 0.46669 0.72243 0.0
H1578 H 0.89699 0.45736 0.94912 0.0
H1579 H 0.91357 0.4733 0.95937 0.0
H1580 H 0.89852 0.47431 0.93423 0.0
H1581 H 0.92333 0.44641 0.74122 0.0
H1582 H 0.93381 0.45145 0.80403 0.0
H1583 H 0.91614 0.43664 0.80515 0.0
H1584 H 0.94344 0.45748 0.99705 0.0
H1585 H 0.90215 0.42045 0.98365 0.0
H1586 H 0.93766 0.48014 0.91824 0.0
H1587 H 0.94384 0.47252 0.86718 0.0
H1588 H 0.95166 0.47657 0.93581 0.0
H1589 H 0.88624 0.43407 0.90505 0.0
H1590 H 0.88636 0.41763 0.91069 0.0
H1591 H 0.8935 0.42871 0.84966 0.0
C1592 C 0.55085 0.48269 0.97447 0.0
C1593 C 0.56431 0.48601 0.99374 0.0
C1594 C 0.54461 0.47365 0.92885 0.0
C1595 C 0.55199 0.46772 0.9018 0.0
C1596 C 0.56584 0.47147 0.9195 0.0
C1597 C 0.57188 0.48064 0.96537 0.0
C1598 C 0.52989 0.4701 0.91082 0.0
C1599 C 0.57403 0.46539 0.89146 0.0
C1600 C 0.52616 0.43359 0.82936 0.0
C1601 C 0.52576 0.43854 0.77575 0.0
C1602 C 0.53557 0.44279 0.86992 0.0
C1603 C 0.54476 0.45723 0.85641 0.0
C1604 C 0.54524 0.46197 0.80108 0.0
C1605 C 0.53573 0.45256 0.76141 0.0
C1606 C 0.53485 0.4373 0.92839 0.0
C1607 C 0.55497 0.47724 0.78482 0.0
H1608 H 0.545 0.48691 0.99593 0.0
H1609 H 0.58227 0.48315 0.98028 0.0
H1610 H 0.52987 0.47253 0.86586 0.0
H1611 H 0.52243 0.45859 0.91644 0.0
H1612 H 0.52585 0.47605 0.93494 0.0
H1613 H 0.58519 0.47053 0.90612 0.0
H1614 H 0.56885 0.45387 0.9004 0.0
H1615 H 0.57398 0.46661 0.8455 0.0
H1616 H 0.5186 0.42274 0.84067 0.0
H1617 H 0.53567 0.45644 0.71979 0.0
H1618 H 0.52964 0.44147 0.95623 0.0
H1619 H 0.54565 0.44103 0.945 0.0
H1620 H 0.52874 0.42554 0.93019 0.0
H1621 H 0.5508 0.48387 0.80219 0.0
H1622 H 0.55583 0.47867 0.73879 0.0
H1623 H 0.56574 0.48122 0.80233 0.0
C1624 C 0.55008 0.08816 0.76563 0.0
C1625 C 0.56397 0.09197 0.78116 0.0
C1626 C 0.54038 0.08781 0.80497 0.0
C1627 C 0.54469 0.09133 0.86115 0.0
C1628 C 0.55906 0.09652 0.87588 0.0
C1629 C 0.56856 0.0968 0.83561 0.0
C1630 C 0.52522 0.08239 0.78736 0.0
C1631 C 0.56411 0.10055 0.93527 0.0
C1632 C 0.52004 0.09256 0.97097 0.0
C1633 C 0.5147 0.07918 0.99581 0.0
C1634 C 0.52961 0.09665 0.92603 0.0
C1635 C 0.53382 0.08711 0.9057 0.0
C1636 C 0.52795 0.07339 0.92919 0.0
C1637 C 0.5185 0.06962 0.97393 0.0
C1638 C 0.53562 0.11134 0.90183 0.0
C1639 C 0.53199 0.06279 0.90825 0.0
H1640 H 0.5465 0.08466 0.72334 0.0
H1641 H 0.5793 0.0999 0.84784 0.0
H1642 H 0.51857 0.07128 0.80166 0.0
H1643 H 0.52095 0.08873 0.80675 0.0
H1644 H 0.52418 0.08263 0.74129 0.0
H1645 H 0.57586 0.10646 0.93818 0.0
H1646 H 0.55999 0.10715 0.95351 0.0
H1647 H 0.56 0.09081 0.96097 0.0
H1648 H 0.51717 0.1 0.98793 0.0
H1649 H 0.51431 0.05922 0.99265 0.0
H1650 H 0.53495 0.11088 0.8556 0.0
H1651 H 0.547 0.11778 0.91303 0.0
H1652 H 0.53003 0.11682 0.91758 0.0
H1653 H 0.5299 0.06103 0.8628 0.0
H1654 H 0.52607 0.0524 0.92984 0.0
H1655 H 0.5435 0.06699 0.9147 0.0
C1656 C 0.53254 0.08347 0.26925 0.0
C1657 C 0.52157 0.086 0.28489 0.0
C1658 C 0.54223 0.08384 0.30864 0.0
C1659 C 0.54094 0.08683 0.36505 0.0
C1660 C 0.53059 0.09046 0.38034 0.0
C1661 C 0.521 0.08999 0.34002 0.0
C1662 C 0.55317 0.07999 0.29054 0.0
C1663 C 0.52899 0.09386 0.44005 0.0
C1664 C 0.54971 0.06821 0.47814 0.0
C1665 C 0.56263 0.07913 0.49868 0.0
C1666 C 0.54282 0.07052 0.43355 0.0
C1667 C 0.54894 0.08415 0.40904 0.0
C1668 C 0.56228 0.09509 0.42794 0.0
C1669 C 0.56903 0.09243 0.47257 0.0
C1670 C 0.52872 0.05848 0.41401 0.0
C1671 C 0.56912 0.10974 0.4027 0.0
H1672 H 0.53321 0.08057 0.22654 0.0
H1673 H 0.51265 0.09208 0.3524 0.0
H1674 H 0.56368 0.08743 0.30872 0.0
H1675 H 0.55005 0.06922 0.30599 0.0
H1676 H 0.5542 0.08006 0.24439 0.0
H1677 H 0.52175 0.09824 0.44381 0.0
H1678 H 0.52466 0.08406 0.46559 0.0
H1679 H 0.53945 0.1016 0.45787 0.0
H1680 H 0.54477 0.05788 0.49795 0.0
H1681 H 0.57897 0.10093 0.48857 0.0
H1682 H 0.52903 0.05682 0.36846 0.0
H1683 H 0.52028 0.06116 0.42152 0.0
H1684 H 0.52575 0.04837 0.43579 0.0
H1685 H 0.56936 0.10913 0.35653 0.0
H1686 H 0.58011 0.11663 0.41812 0.0
H1687 H 0.56276 0.1148 0.41329 0.0
C1688 C 0.90928 0.43258 0.33919 0.0
C1689 C 0.91295 0.43681 0.28356 0.0
C1690 C 0.90931 0.44203 0.37912 0.0
C1691 C 0.9131 0.456 0.36289 0.0
C1692 C 0.9156 0.4599 0.30597 0.0
C1693 C 0.91549 0.45025 0.26699 0.0
C1694 C 0.9064 0.43743 0.4394 0.0
C1695 C 0.91956 0.47463 0.28683 0.0
C1696 C 0.90982 0.47979 0.47114 0.0
C1697 C 0.92345 0.48648 0.49458 0.0
C1698 C 0.90629 0.47004 0.42712 0.0
C1699 C 0.91668 0.46706 0.40616 0.0
C1700 C 0.93063 0.47435 0.42793 0.0
C1701 C 0.93381 0.48392 0.47192 0.0
C1702 C 0.89134 0.4625 0.40479 0.0
C1703 C 0.9421 0.47166 0.40613 0.0
H1704 H 0.90718 0.42218 0.35229 0.0
H1705 H 0.91812 0.45355 0.22388 0.0
H1706 H 0.91648 0.44272 0.46327 0.0
H1707 H 0.89915 0.44065 0.45839 0.0
H1708 H 0.90166 0.42578 0.44402 0.0
H1709 H 0.91885 0.47524 0.24075 0.0
H1710 H 0.91263 0.47814 0.30654 0.0
H1711 H 0.93062 0.48218 0.29971 0.0
H1712 H 0.90175 0.48168 0.48877 0.0
H1713 H 0.94439 0.48914 0.48963 0.0
H1714 H 0.88602 0.45117 0.41701 0.0
H1715 H 0.89137 0.4629 0.35852 0.0
H1716 H 0.88499 0.46715 0.42101 0.0
H1717 H 0.93914 0.46048 0.41414 0.0
H1718 H 0.95254 0.47867 0.42594 0.0
H1719 H 0.94324 0.47334 0.36032 0.0
C1720 C 0.52266 0.43082 0.46889 0.0
C1721 C 0.51596 0.43782 0.49164 0.0
C1722 C 0.53244 0.43692 0.42491 0.0
C1723 C 0.53546 0.45024 0.40331 0.0
C1724 C 0.52816 0.45696 0.42434 0.0
C1725 C 0.51854 0.45069 0.46829 0.0
C1726 C 0.53998 0.42943 0.40336 0.0
C1727 C 0.53088 0.47107 0.40185 0.0
C1728 C 0.57005 0.47726 0.33692 0.0
C1729 C 0.5659 0.47667 0.28115 0.0
C1730 C 0.56054 0.46785 0.37674 0.0
C1731 C 0.54661 0.45765 0.36025 0.0
C1732 C 0.54281 0.45619 0.30321 0.0
C1733 C 0.5525 0.46572 0.26434 0.0
C1734 C 0.56504 0.4696 0.43717 0.0
C1735 C 0.52812 0.44537 0.28379 0.0
H1736 H 0.52074 0.4209 0.48703 0.0
H1737 H 0.51331 0.45609 0.48545 0.0
H1738 H 0.53973 0.42906 0.35708 0.0
H1739 H 0.55128 0.43541 0.41614 0.0
H1740 H 0.53524 0.41845 0.41969 0.0
H1741 H 0.52385 0.47455 0.4211 0.0
H1742 H 0.54206 0.4793 0.40997 0.0
H1743 H 0.52927 0.47044 0.35599 0.0
H1744 H 0.58041 0.4856 0.35021 0.0
H1745 H 0.54927 0.46502 0.22112 0.0
H1746 H 0.56178 0.45916 0.45645 0.0
H1747 H 0.55973 0.47444 0.46058 0.0
H1748 H 0.57669 0.47651 0.44204 0.0
H1749 H 0.52456 0.43496 0.30393 0.0
H1750 H 0.52761 0.44396 0.23776 0.0
H1751 H 0.52054 0.44891 0.29591 0.0
C1752 C 0.42753 0.23853 0.68927 0.0
C1753 C 0.41402 0.23172 0.66481 0.0
C1754 C 0.43076 0.2322 0.73381 0.0
C1755 C 0.42019 0.21885 0.75424 0.0
C1756 C 0.40635 0.21234 0.73151 0.0
C1757 C 0.40346 0.21883 0.68702 0.0
C1758 C 0.44561 0.23947 0.75719 0.0
C1759 C 0.39468 0.19821 0.75271 0.0
C1760 C 0.42707 0.19147 0.82172 0.0
C1761 C 0.42324 0.19197 0.87716 0.0
C1762 C 0.42724 0.20099 0.78176 0.0
C1763 C 0.42349 0.21121 0.79775 0.0
C1764 C 0.42081 0.21253 0.85451 0.0
C1765 C 0.42072 0.2029 0.89354 0.0
C1766 C 0.43034 0.19936 0.72165 0.0
C1767 C 0.41689 0.22335 0.8734 0.0
H1768 H 0.43575 0.24846 0.67201 0.0
H1769 H 0.39297 0.21358 0.66852 0.0
H1770 H 0.44538 0.23972 0.80345 0.0
H1771 H 0.45091 0.23342 0.74527 0.0
H1772 H 0.45209 0.25049 0.74145 0.0
H1773 H 0.38434 0.19493 0.73228 0.0
H1774 H 0.39755 0.18991 0.74493 0.0
H1775 H 0.39339 0.19871 0.79844 0.0
H1776 H 0.42916 0.18315 0.80877 0.0
H1777 H 0.41796 0.20353 0.93651 0.0
H1778 H 0.43776 0.20984 0.70313 0.0
H1779 H 0.42036 0.19473 0.69716 0.0
H1780 H 0.43497 0.19235 0.71728 0.0
H1781 H 0.42396 0.23382 0.85409 0.0
H1782 H 0.41743 0.22459 0.91951 0.0
H1783 H 0.4059 0.21995 0.85986 0.0
C1784 C 0.7635 0.18883 0.6936 0.0
C1785 C 0.77036 0.18198 0.67094 0.0
C1786 C 0.76972 0.19863 0.73746 0.0
C1787 C 0.783 0.2015 0.75905 0.0
C1788 C 0.78956 0.19404 0.73811 0.0
C1789 C 0.78318 0.18442 0.69426 0.0
C1790 C 0.7624 0.20635 0.7589 0.0
C1791 C 0.80362 0.1966 0.76061 0.0
C1792 C 0.81028 0.23598 0.82538 0.0
C1793 C 0.80962 0.23183 0.88119 0.0
C1794 C 0.80083 0.22652 0.78554 0.0
C1795 C 0.7905 0.21263 0.80206 0.0
C1796 C 0.78899 0.20885 0.85913 0.0
C1797 C 0.79856 0.2185 0.89801 0.0
C1798 C 0.80265 0.231 0.72509 0.0
C1799 C 0.77805 0.19421 0.87859 0.0
H1800 H 0.75362 0.18703 0.67546 0.0
H1801 H 0.78847 0.17907 0.67716 0.0
H1802 H 0.762 0.20609 0.80517 0.0
H1803 H 0.76852 0.21764 0.74615 0.0
H1804 H 0.75143 0.20174 0.74247 0.0
H1805 H 0.80697 0.18946 0.74143 0.0
H1806 H 0.81194 0.20773 0.75241 0.0
H1807 H 0.80297 0.19501 0.80648 0.0
H1808 H 0.8187 0.2463 0.81208 0.0
H1809 H 0.7978 0.21527 0.94127 0.0
H1810 H 0.79224 0.22785 0.70574 0.0
H1811 H 0.80738 0.22557 0.70178 0.0
H1812 H 0.80967 0.24263 0.72015 0.0
H1813 H 0.76765 0.19077 0.85845 0.0
H1814 H 0.77664 0.19373 0.92462 0.0
H1815 H 0.78145 0.18653 0.86646 0.0
C1816 C 0.76595 0.57625 0.81915 0.0
C1817 C 0.77037 0.58016 0.87446 0.0
C1818 C 0.77523 0.576 0.77904 0.0
C1819 C 0.78922 0.57976 0.79476 0.0
C1820 C 0.79334 0.58258 0.85138 0.0
C1821 C 0.78387 0.58274 0.89055 0.0
C1822 C 0.7704 0.57277 0.71909 0.0
C1823 C 0.80812 0.58654 0.86995 0.0
C1824 C 0.81227 0.5752 0.68674 0.0
C1825 C 0.81901 0.58862 0.66161 0.0
C1826 C 0.80275 0.57216 0.73127 0.0
C1827 C 0.80007 0.58285 0.75105 0.0
C1828 C 0.80743 0.59661 0.72759 0.0
C1829 C 0.81676 0.5993 0.68309 0.0
C1830 C 0.79513 0.55739 0.75541 0.0
C1831 C 0.80507 0.60839 0.74809 0.0
H1832 H 0.75552 0.57412 0.80643 0.0
H1833 H 0.78733 0.58557 0.93341 0.0
H1834 H 0.77575 0.58267 0.69418 0.0
H1835 H 0.77336 0.56525 0.70085 0.0
H1836 H 0.75875 0.56819 0.71497 0.0
H1837 H 0.80893 0.58619 0.91609 0.0
H1838 H 0.81143 0.57934 0.8511 0.0
H1839 H 0.8157 0.59745 0.85562 0.0
H1840 H 0.81392 0.56689 0.67002 0.0
H1841 H 0.82203 0.60973 0.66406 0.0
H1842 H 0.78373 0.55215 0.74408 0.0
H1843 H 0.79577 0.55778 0.80164 0.0
H1844 H 0.79952 0.55078 0.73976 0.0
H1845 H 0.79391 0.60555 0.7404 0.0
H1846 H 0.81214 0.61865 0.7271 0.0
H1847 H 0.80693 0.60984 0.79375 0.0
C1848 C 0.45089 0.93365 0.51928 0.0
C1849 C 0.43792 0.92277 0.49899 0.0
C1850 C 0.45775 0.93133 0.56399 0.0
C1851 C 0.45153 0.91775 0.5889 0.0
C1852 C 0.43813 0.90685 0.57027 0.0
C1853 C 0.43142 0.90952 0.5255 0.0
C1854 C 0.47192 0.94332 0.58322 0.0
C1855 C 0.43118 0.89226 0.59596 0.0
C1856 C 0.47931 0.9117 0.65815 0.0
C1857 C 0.47884 0.91584 0.71315 0.0
C1858 C 0.46973 0.91125 0.61784 0.0
C1859 C 0.45948 0.91504 0.63301 0.0
C1860 C 0.45829 0.91818 0.68931 0.0
C1861 C 0.46797 0.91852 0.7287 0.0
C1862 C 0.47122 0.9077 0.55824 0.0
C1863 C 0.44747 0.9222 0.70727 0.0
H1864 H 0.4559 0.94395 0.49918 0.0
H1865 H 0.42143 0.90105 0.50971 0.0
H1866 H 0.47165 0.94508 0.62871 0.0
H1867 H 0.48028 0.94052 0.57585 0.0
H1868 H 0.47496 0.95342 0.56113 0.0
H1869 H 0.42016 0.88543 0.58074 0.0
H1870 H 0.43743 0.88707 0.58555 0.0
H1871 H 0.43099 0.89296 0.64212 0.0
H1872 H 0.48758 0.90949 0.64585 0.0
H1873 H 0.46737 0.92154 0.77131 0.0
H1874 H 0.47562 0.91745 0.5324 0.0
H1875 H 0.46072 0.9 0.54065 0.0
H1876 H 0.47837 0.90321 0.55463 0.0
H1877 H 0.45068 0.93297 0.69152 0.0
H1878 H 0.44648 0.92223 0.75342 0.0
H1879 H 0.43692 0.91481 0.68928 0.0
C1880 C 0.08451 0.54989 0.73118 0.0
C1881 C 0.08853 0.56392 0.71706 0.0
C1882 C 0.08466 0.54054 0.69137 0.0
C1883 C 0.08893 0.54533 0.63611 0.0
C1884 C 0.09414 0.55978 0.62281 0.0
C1885 C 0.09389 0.56892 0.66351 0.0
C1886 C 0.07913 0.52525 0.7074 0.0
C1887 C 0.09894 0.56533 0.56443 0.0
C1888 C 0.09279 0.52196 0.5274 0.0
C1889 C 0.07985 0.51653 0.49895 0.0
C1890 C 0.09588 0.53117 0.57312 0.0
C1891 C 0.08574 0.53488 0.59061 0.0
C1892 C 0.07245 0.52891 0.56341 0.0
C1893 C 0.06969 0.51985 0.51793 0.0
C1894 C 0.11014 0.5373 0.60129 0.0
C1895 C 0.06124 0.53243 0.58123 0.0
H1896 H 0.08056 0.54596 0.77275 0.0
H1897 H 0.09715 0.57977 0.65237 0.0
H1898 H 0.06836 0.51861 0.68975 0.0
H1899 H 0.08597 0.52132 0.69 0.0
H1900 H 0.0785 0.52377 0.75341 0.0
H1901 H 0.10457 0.57709 0.56281 0.0
H1902 H 0.10604 0.56164 0.54779 0.0
H1903 H 0.08957 0.56116 0.53651 0.0
H1904 H 0.1007 0.51946 0.5127 0.0
H1905 H 0.05962 0.51559 0.49639 0.0
H1906 H 0.10885 0.536 0.64721 0.0
H1907 H 0.11642 0.54884 0.59266 0.0
H1908 H 0.11625 0.53227 0.58649 0.0
H1909 H 0.05875 0.52998 0.62615 0.0
H1910 H 0.05127 0.52647 0.55695 0.0
H1911 H 0.06528 0.54393 0.57565 0.0
C1912 C 0.45164 0.53476 0.73379 0.0
C1913 C 0.43766 0.5247 0.71922 0.0
C1914 C 0.46107 0.54426 0.69416 0.0
C1915 C 0.45641 0.54368 0.63864 0.0
C1916 C 0.442 0.5344 0.62487 0.0
C1917 C 0.43278 0.525 0.66539 0.0
C1918 C 0.47631 0.55408 0.71071 0.0
C1919 C 0.43659 0.53358 0.56618 0.0
C1920 C 0.47993 0.57075 0.52974 0.0
C1921 C 0.48543 0.56321 0.50196 0.0
C1922 C 0.47068 0.56471 0.57537 0.0
C1923 C 0.46697 0.5509 0.59344 0.0
C1924 C 0.47302 0.54355 0.56697 0.0
C1925 C 0.48213 0.54979 0.52158 0.0
C1926 C 0.46447 0.57285 0.60277 0.0
C1927 C 0.46951 0.52888 0.58542 0.0
H1928 H 0.45547 0.53477 0.77557 0.0
H1929 H 0.42196 0.51737 0.65389 0.0
H1930 H 0.48302 0.54994 0.69383 0.0
H1931 H 0.48026 0.56481 0.69292 0.0
H1932 H 0.47766 0.555 0.75677 0.0
H1933 H 0.42483 0.52742 0.56413 0.0
H1934 H 0.4403 0.54435 0.54928 0.0
H1935 H 0.44085 0.52837 0.53876 0.0
H1936 H 0.48241 0.58111 0.51455 0.0
H1937 H 0.48645 0.54396 0.50056 0.0
H1938 H 0.46561 0.57287 0.64879 0.0
H1939 H 0.45296 0.5676 0.59351 0.0
H1940 H 0.46956 0.58399 0.58788 0.0
H1941 H 0.47187 0.52892 0.63049 0.0
H1942 H 0.47555 0.52486 0.56174 0.0
H1943 H 0.45802 0.52137 0.57955 0.0
C1944 C 0.58333 0.80204 0.10755 0.0
C1945 C 0.58035 0.81277 0.12212 0.0
C1946 C 0.58299 0.79249 0.14751 0.0
C1947 C 0.57954 0.79365 0.2034 0.0
C1948 C 0.57541 0.8037 0.21747 0.0
C1949 C 0.57588 0.81318 0.17662 0.0
C1950 C 0.58743 0.78191 0.13072 0.0
C1951 C 0.57148 0.80513 0.27655 0.0
C1952 C 0.57468 0.76578 0.3108 0.0
C1953 C 0.58791 0.77256 0.33747 0.0
C1954 C 0.57176 0.7724 0.2664 0.0
C1955 C 0.58239 0.78598 0.24825 0.0
C1956 C 0.59594 0.79256 0.27365 0.0
C1957 C 0.59849 0.7858 0.31805 0.0
C1958 C 0.5572 0.7651 0.24031 0.0
C1959 C 0.60766 0.80693 0.2549 0.0
H1960 H 0.58659 0.80148 0.06533 0.0
H1961 H 0.57343 0.82134 0.18814 0.0
H1962 H 0.59819 0.78538 0.14732 0.0
H1963 H 0.58015 0.77132 0.14867 0.0
H1964 H 0.58769 0.78088 0.08465 0.0
H1965 H 0.56658 0.81195 0.27906 0.0
H1966 H 0.56399 0.79457 0.29428 0.0
H1967 H 0.58114 0.8099 0.303 0.0
H1968 H 0.56644 0.75559 0.326 0.0
H1969 H 0.60877 0.79104 0.33831 0.0
H1970 H 0.55802 0.76475 0.19425 0.0
H1971 H 0.5518 0.77121 0.24961 0.0
H1972 H 0.55051 0.75411 0.25609 0.0
H1973 H 0.60966 0.80675 0.20958 0.0
H1974 H 0.61774 0.81033 0.27773 0.0
H1975 H 0.60443 0.815 0.2616 0.0
C1976 C 0.23913 0.81416 0.29947 0.0
C1977 C 0.23145 0.8197 0.32582 0.0
C1978 C 0.23338 0.80491 0.2537 0.0
C1979 C 0.21968 0.80119 0.23411 0.0
C1980 C 0.21225 0.80736 0.25885 0.0
C1981 C 0.21822 0.81652 0.30433 0.0
C1982 C 0.24166 0.79863 0.22803 0.0
C1983 C 0.19768 0.80384 0.2388 0.0
C1984 C 0.20378 0.78487 0.09459 0.0
C1985 C 0.19371 0.771 0.11042 0.0
C1986 C 0.21325 0.79459 0.13361 0.0
C1987 C 0.21259 0.79033 0.18981 0.0
C1988 C 0.20333 0.77602 0.20493 0.0
C1989 C 0.194 0.7665 0.16497 0.0
C1990 C 0.2231 0.80969 0.11559 0.0
C1991 C 0.20241 0.77103 0.26438 0.0
H1992 H 0.24936 0.81656 0.31602 0.0
H1993 H 0.21228 0.82087 0.3242 0.0
H1994 H 0.23656 0.78723 0.23904 0.0
H1995 H 0.24163 0.79934 0.18184 0.0
H1996 H 0.25281 0.804 0.24289 0.0
H1997 H 0.19362 0.81005 0.26093 0.0
H1998 H 0.19793 0.80595 0.1934 0.0
H1999 H 0.1901 0.7924 0.24539 0.0
H2000 H 0.2038 0.7884 0.05226 0.0
H2001 H 0.18635 0.75577 0.17748 0.0
H2002 H 0.23377 0.81381 0.13424 0.0
H2003 H 0.21887 0.8165 0.13046 0.0
H2004 H 0.22418 0.81067 0.06945 0.0
H2005 H 0.21315 0.77483 0.28177 0.0
H2006 H 0.19621 0.7593 0.26776 0.0
H2007 H 0.19719 0.77552 0.29055 0.0
C2008 C 0.21736 0.42019 0.10155 0.0
C2009 C 0.23129 0.42404 0.11674 0.0
C2010 C 0.20778 0.42004 0.14096 0.0
C2011 C 0.21223 0.42381 0.19687 0.0
C2012 C 0.22661 0.42897 0.21124 0.0
C2013 C 0.236 0.42904 0.17091 0.0
C2014 C 0.19259 0.41463 0.12373 0.0
C2015 C 0.2318 0.43325 0.27034 0.0
C2016 C 0.1881 0.42604 0.30654 0.0
C2017 C 0.18272 0.41282 0.33271 0.0
C2018 C 0.1975 0.42975 0.26114 0.0
C2019 C 0.20149 0.41996 0.2417 0.0
C2020 C 0.19554 0.40637 0.2665 0.0
C2021 C 0.18627 0.403 0.31167 0.0
C2022 C 0.20358 0.44429 0.23552 0.0
C2023 C 0.19934 0.39552 0.24655 0.0
H2024 H 0.21368 0.41654 0.05948 0.0
H2025 H 0.24677 0.43217 0.18289 0.0
H2026 H 0.18591 0.40361 0.13905 0.0
H2027 H 0.18845 0.42114 0.1425 0.0
H2028 H 0.19144 0.41461 0.07765 0.0
H2029 H 0.24356 0.43902 0.27291 0.0
H2030 H 0.22786 0.44005 0.28797 0.0
H2031 H 0.22763 0.42362 0.29681 0.0
H2032 H 0.18542 0.43369 0.32283 0.0
H2033 H 0.18205 0.39271 0.33143 0.0
H2034 H 0.20274 0.44354 0.18936 0.0
H2035 H 0.21501 0.45068 0.246 0.0
H2036 H 0.19816 0.44999 0.25082 0.0
H2037 H 0.19713 0.39353 0.20125 0.0
H2038 H 0.19336 0.38527 0.26902 0.0
H2039 H 0.21084 0.39962 0.25272 0.0
C2040 C 0.2377 0.42605 0.80873 0.0
C2041 C 0.23094 0.41259 0.83361 0.0
C2042 C 0.23129 0.42918 0.76421 0.0
C2043 C 0.21791 0.41857 0.74419 0.0
C2044 C 0.21144 0.40477 0.76739 0.0
C2045 C 0.21801 0.40198 0.81187 0.0
C2046 C 0.23852 0.44398 0.74035 0.0
C2047 C 0.19728 0.39307 0.74664 0.0
C2048 C 0.19051 0.42537 0.67632 0.0
C2049 C 0.191 0.42148 0.62096 0.0
C2050 C 0.20002 0.42556 0.71637 0.0
C2051 C 0.21022 0.42176 0.70056 0.0
C2052 C 0.21151 0.41898 0.64389 0.0
C2053 C 0.20189 0.41888 0.60477 0.0
C2054 C 0.19843 0.42876 0.77638 0.0
C2055 C 0.2223 0.415 0.62521 0.0
H2056 H 0.24766 0.43431 0.82564 0.0
H2057 H 0.21279 0.39153 0.83069 0.0
H2058 H 0.23877 0.44365 0.6941 0.0
H2059 H 0.23242 0.44927 0.75187 0.0
H2060 H 0.24953 0.45053 0.75604 0.0
H2061 H 0.19403 0.38277 0.76743 0.0
H2062 H 0.18899 0.39594 0.75435 0.0
H2063 H 0.19771 0.39167 0.70095 0.0
H2064 H 0.18222 0.42751 0.68912 0.0
H2065 H 0.20251 0.41607 0.56187 0.0
H2066 H 0.20892 0.43621 0.79473 0.0
H2067 H 0.19382 0.41882 0.80114 0.0
H2068 H 0.19141 0.43338 0.78059 0.0
H2069 H 0.2328 0.42212 0.64422 0.0
H2070 H 0.22348 0.41541 0.57907 0.0
H2071 H 0.21891 0.40405 0.63925 0.0
C2072 C 0.59778 0.81559 0.81161 0.0
C2073 C 0.58763 0.81842 0.83453 0.0
C2074 C 0.59432 0.80585 0.76809 0.0
C2075 C 0.58029 0.79863 0.74718 0.0
C2076 C 0.57007 0.80179 0.76871 0.0
C2077 C 0.57389 0.81174 0.81216 0.0
C2078 C 0.60562 0.803 0.7456 0.0
C2079 C 0.55502 0.79429 0.74744 0.0
C2080 C 0.57891 0.78207 0.60747 0.0
C2081 C 0.57658 0.76867 0.62362 0.0
C2082 C 0.57893 0.79159 0.64681 0.0
C2083 C 0.57651 0.7876 0.70364 0.0
C2084 C 0.57283 0.77363 0.71941 0.0
C2085 C 0.57291 0.7643 0.67913 0.0
C2086 C 0.5828 0.80633 0.62814 0.0
C2087 C 0.56997 0.76892 0.77957 0.0
H2088 H 0.60844 0.82081 0.82853 0.0
H2089 H 0.56599 0.81384 0.83009 0.0
H2090 H 0.60256 0.79179 0.75342 0.0
H2091 H 0.60666 0.80469 0.69978 0.0
H2092 H 0.61614 0.80992 0.76503 0.0
H2093 H 0.54878 0.79898 0.76434 0.0
H2094 H 0.55485 0.79465 0.70118 0.0
H2095 H 0.54972 0.78296 0.75972 0.0
H2096 H 0.58151 0.78546 0.56443 0.0
H2097 H 0.57096 0.75393 0.69188 0.0
H2098 H 0.59389 0.81388 0.64062 0.0
H2099 H 0.5759 0.80981 0.64849 0.0
H2100 H 0.58195 0.80698 0.58215 0.0
H2101 H 0.5801 0.77404 0.80316 0.0
H2102 H 0.56511 0.75724 0.78373 0.0
H2103 H 0.56286 0.77222 0.79918 0.0
C2104 C 0.18696 0.76193 0.79928 0.0
C2105 C 0.18138 0.76953 0.82604 0.0
C2106 C 0.19615 0.76776 0.75338 0.0
C2107 C 0.19978 0.78145 0.73409 0.0
C2108 C 0.19357 0.78881 0.75923 0.0
C2109 C 0.18447 0.78276 0.80483 0.0
C2110 C 0.20247 0.75956 0.72727 0.0
C2111 C 0.197 0.80336 0.7395 0.0
C2112 C 0.23438 0.80729 0.6647 0.0
C2113 C 0.22982 0.8076 0.61026 0.0
C2114 C 0.22491 0.79792 0.70468 0.0
C2115 C 0.21059 0.78863 0.68968 0.0
C2116 C 0.20628 0.788 0.63359 0.0
C2117 C 0.21594 0.79751 0.59454 0.0
C2118 C 0.22995 0.79882 0.76403 0.0
C2119 C 0.19117 0.77812 0.61571 0.0
H2120 H 0.18463 0.75171 0.81561 0.0
H2121 H 0.1801 0.78864 0.82501 0.0
H2122 H 0.2017 0.75962 0.6811 0.0
H2123 H 0.21389 0.7647 0.73806 0.0
H2124 H 0.19717 0.7484 0.74198 0.0
H2125 H 0.19077 0.80736 0.76193 0.0
H2126 H 0.20844 0.81099 0.74599 0.0
H2127 H 0.19484 0.80315 0.69416 0.0
H2128 H 0.24511 0.81495 0.67712 0.0
H2129 H 0.21237 0.79751 0.55229 0.0
H2130 H 0.22622 0.78807 0.78121 0.0
H2131 H 0.22543 0.80396 0.79046 0.0
H2132 H 0.24169 0.80506 0.76729 0.0
H2133 H 0.18711 0.76744 0.63413 0.0
H2134 H 0.19014 0.77709 0.56957 0.0
H2135 H 0.18433 0.78228 0.63093 0.0
C2136 C 0.0934 0.57122 0.02372 0.0
C2137 C 0.07966 0.56427 0.00128 0.0
C2138 C 0.0971 0.56508 0.06747 0.0
C2139 C 0.08679 0.55177 0.0892 0.0
C2140 C 0.07274 0.54511 0.06845 0.0
C2141 C 0.06938 0.55141 0.02469 0.0
C2142 C 0.11216 0.5725 0.08869 0.0
C2143 C 0.06134 0.53102 0.0911 0.0
C2144 C 0.09425 0.52469 0.15573 0.0
C2145 C 0.09077 0.52537 0.21154 0.0
C2146 C 0.09416 0.53409 0.11581 0.0
C2147 C 0.09052 0.54437 0.13225 0.0
C2148 C 0.08827 0.5459 0.18931 0.0
C2149 C 0.08843 0.53639 0.22828 0.0
C2150 C 0.09682 0.53225 0.05537 0.0
C2151 C 0.08449 0.55679 0.20869 0.0
H2152 H 0.10141 0.58112 0.0055 0.0
H2153 H 0.05872 0.54605 0.00776 0.0
H2154 H 0.11235 0.57294 0.13496 0.0
H2155 H 0.1174 0.56644 0.07593 0.0
H2156 H 0.11845 0.58346 0.07211 0.0
H2157 H 0.05081 0.52757 0.07202 0.0
H2158 H 0.06423 0.52276 0.08293 0.0
H2159 H 0.06041 0.53169 0.13698 0.0
H2160 H 0.09619 0.5163 0.14249 0.0
H2161 H 0.08596 0.53715 0.27153 0.0
H2162 H 0.104 0.54267 0.03587 0.0
H2163 H 0.08664 0.52743 0.03216 0.0
H2164 H 0.10151 0.52531 0.0505 0.0
H2165 H 0.09138 0.56718 0.18842 0.0
H2166 H 0.08544 0.55824 0.2547 0.0
H2167 H 0.07339 0.55331 0.19666 0.0
C2168 C 0.43043 0.52155 0.02674 0.0
C2169 C 0.43739 0.51488 0.0034 0.0
C2170 C 0.43661 0.53129 0.0708 0.0
C2171 C 0.44998 0.53429 0.0919 0.0
C2172 C 0.45666 0.52702 0.07025 0.0
C2173 C 0.45031 0.51745 0.02622 0.0
C2174 C 0.42916 0.53881 0.09301 0.0
C2175 C 0.47081 0.52972 0.09219 0.0
C2176 C 0.47701 0.56881 0.15875 0.0
C2177 C 0.47646 0.5646 0.21441 0.0
C2178 C 0.4676 0.55933 0.11884 0.0
C2179 C 0.45744 0.54537 0.13513 0.0
C2180 C 0.45604 0.54149 0.19207 0.0
C2181 C 0.46557 0.55116 0.23103 0.0
C2182 C 0.4693 0.56392 0.05853 0.0
C2183 C 0.44528 0.52676 0.21127 0.0
H2184 H 0.42047 0.51965 0.009 0.0
H2185 H 0.45568 0.51224 0.0086 0.0
H2186 H 0.4288 0.53843 0.13929 0.0
H2187 H 0.43516 0.55014 0.08069 0.0
H2188 H 0.41817 0.53413 0.07678 0.0
H2189 H 0.47427 0.52271 0.07248 0.0
H2190 H 0.47903 0.5409 0.08418 0.0
H2191 H 0.47025 0.52805 0.13801 0.0
H2192 H 0.48531 0.57921 0.14562 0.0
H2193 H 0.4649 0.54787 0.27416 0.0
H2194 H 0.45883 0.56068 0.0395 0.0
H2195 H 0.4741 0.55863 0.03475 0.0
H2196 H 0.4762 0.57557 0.05385 0.0
H2197 H 0.43483 0.52322 0.19148 0.0
H2198 H 0.44393 0.52617 0.25734 0.0
H2199 H 0.4488 0.51922 0.19853 0.0
C2200 C 0.48224 0.93222 0.0243 0.0
C2201 C 0.48594 0.92262 0.00207 0.0
C2202 C 0.47278 0.92845 0.06903 0.0
C2203 C 0.46681 0.91468 0.09216 0.0
C2204 C 0.47093 0.9051 0.07153 0.0
C2205 C 0.48051 0.9092 0.0266 0.0
C2206 C 0.46884 0.93909 0.09029 0.0
C2207 C 0.46482 0.89036 0.09535 0.0
C2208 C 0.45044 0.91352 0.23208 0.0
C2209 C 0.4366 0.90983 0.21636 0.0
C2210 C 0.46015 0.91385 0.19283 0.0
C2211 C 0.4559 0.91044 0.13654 0.0
C2212 C 0.44157 0.90537 0.12159 0.0
C2213 C 0.43205 0.90511 0.16177 0.0
C2214 C 0.47527 0.91913 0.21069 0.0
C2215 C 0.43658 0.90147 0.06206 0.0
H2216 H 0.48649 0.94265 0.00582 0.0
H2217 H 0.48331 0.90172 0.00938 0.0
H2218 H 0.45735 0.93498 0.08372 0.0
H2219 H 0.47089 0.94075 0.1358 0.0
H2220 H 0.47484 0.94951 0.06901 0.0
H2221 H 0.4704 0.88487 0.0796 0.0
H2222 H 0.4654 0.89074 0.1416 0.0
H2223 H 0.45346 0.88399 0.08378 0.0
H2224 H 0.45399 0.91693 0.27448 0.0
H2225 H 0.42134 0.9021 0.14938 0.0
H2226 H 0.482 0.93027 0.19674 0.0
H2227 H 0.4795 0.91277 0.19113 0.0
H2228 H 0.47624 0.91879 0.25675 0.0
H2229 H 0.44078 0.91127 0.03661 0.0
H2230 H 0.42483 0.89565 0.05892 0.0
H2231 H 0.44064 0.89484 0.04372 0.0
C2232 C 0.23512 0.36042 0.01783 0.0
C2233 C 0.24654 0.37172 0.0455 0.0
C2234 C 0.22965 0.34641 0.03583 0.0
C2235 C 0.23588 0.34353 0.08215 0.0
C2236 C 0.24803 0.35474 0.10786 0.0
C2237 C 0.25316 0.36874 0.08953 0.0
C2238 C 0.21663 0.33479 0.00734 0.0
C2239 C 0.25518 0.35204 0.15644 0.0
C2240 C 0.20933 0.31118 0.16271 0.0
C2241 C 0.21104 0.30043 0.13822 0.0
C2242 C 0.21792 0.3254 0.14709 0.0
C2243 C 0.22867 0.32902 0.10663 0.0
C2244 C 0.2312 0.31839 0.08501 0.0
C2245 C 0.22227 0.30418 0.10068 0.0
C2246 C 0.2148 0.33638 0.17098 0.0
C2247 C 0.2428 0.32189 0.04291 0.0
H2248 H 0.22995 0.36256 0.9836 0.0
H2249 H 0.26206 0.37737 0.11089 0.0
H2250 H 0.21846 0.32606 0.99448 0.0
H2251 H 0.20759 0.33029 0.03698 0.0
H2252 H 0.21358 0.33867 0.96988 0.0
H2253 H 0.26573 0.36136 0.16566 0.0
H2254 H 0.24846 0.34957 0.19421 0.0
H2255 H 0.25652 0.34275 0.14797 0.0
H2256 H 0.20074 0.30843 0.19194 0.0
H2257 H 0.22378 0.29598 0.08199 0.0
H2258 H 0.21062 0.34034 0.13754 0.0
H2259 H 0.22463 0.34558 0.18715 0.0
H2260 H 0.20688 0.33206 0.20528 0.0
H2261 H 0.23959 0.32407 0.00183 0.0
H2262 H 0.245 0.31304 0.03769 0.0
H2263 H 0.25273 0.33155 0.05554 0.0
C2264 C 0.69332 0.90179 0.14542 0.0
C2265 C 0.70464 0.91318 0.11775 0.0
C2266 C 0.67931 0.8964 0.12752 0.0
C2267 C 0.67646 0.90269 0.08131 0.0
C2268 C 0.6877 0.91481 0.05563 0.0
C2269 C 0.7017 0.91986 0.07385 0.0
C2270 C 0.66766 0.8834 0.15598 0.0
C2271 C 0.68503 0.92203 0.00718 0.0
C2272 C 0.64405 0.87626 0.00068 0.0
C2273 C 0.63334 0.87801 0.02529 0.0
C2274 C 0.65828 0.8848 0.01629 0.0
C2275 C 0.66195 0.89554 0.05685 0.0
C2276 C 0.65135 0.89811 0.07858 0.0
C2277 C 0.63713 0.88922 0.06292 0.0
C2278 C 0.66923 0.88164 0.99228 0.0
C2279 C 0.6549 0.9097 0.12077 0.0
H2280 H 0.69544 0.89657 0.17956 0.0
H2281 H 0.71035 0.92874 0.0525 0.0
H2282 H 0.65896 0.88527 0.16893 0.0
H2283 H 0.66311 0.87437 0.12629 0.0
H2284 H 0.67151 0.8803 0.19337 0.0
H2285 H 0.69439 0.93256 0.99806 0.0
H2286 H 0.68255 0.91533 0.96933 0.0
H2287 H 0.67577 0.92339 0.01573 0.0
H2288 H 0.64127 0.86768 0.97138 0.0
H2289 H 0.62895 0.89076 0.0817 0.0
H2290 H 0.67317 0.87742 0.02565 0.0
H2291 H 0.67845 0.89146 0.97614 0.0
H2292 H 0.66488 0.87374 0.95793 0.0
H2293 H 0.65705 0.90645 0.16181 0.0
H2294 H 0.64608 0.91195 0.12602 0.0
H2295 H 0.66459 0.9196 0.10821 0.0
C2296 C 0.11646 0.74854 0.08604 0.0
C2297 C 0.12596 0.75518 0.04175 0.0
C2298 C 0.10764 0.75368 0.10501 0.0
C2299 C 0.10854 0.76585 0.07968 0.0
C2300 C 0.11754 0.77209 0.03306 0.0
C2301 C 0.12603 0.76661 0.01443 0.0
C2302 C 0.09791 0.74652 0.15389 0.0
C2303 C 0.1189 0.78513 0.00495 0.0
C2304 C 0.08296 0.77956 0.10065 0.0
C2305 C 0.09056 0.79073 0.13824 0.0
C2306 C 0.08815 0.77062 0.08413 0.0
C2307 C 0.10137 0.77309 0.10493 0.0
C2308 C 0.10864 0.7838 0.14541 0.0
C2309 C 0.10309 0.7924 0.1619 0.0
C2310 C 0.0799 0.75906 0.04204 0.0
C2311 C 0.12281 0.78687 0.16844 0.0
H2312 H 0.11623 0.73963 0.10713 0.0
H2313 H 0.13327 0.77179 0.98 0.0
H2314 H 0.10229 0.75321 0.19167 0.0
H2315 H 0.08729 0.74524 0.14603 0.0
H2316 H 0.09667 0.73595 0.16274 0.0
H2317 H 0.12571 0.78816 0.96714 0.0
H2318 H 0.10831 0.78335 0.99276 0.0
H2319 H 0.12357 0.79416 0.03461 0.0
H2320 H 0.07319 0.77808 0.08259 0.0
H2321 H 0.10903 0.80095 0.19115 0.0
H2322 H 0.07964 0.74911 0.05423 0.0
H2323 H 0.08518 0.76229 0.00076 0.0
H2324 H 0.06885 0.7569 0.03746 0.0
H2325 H 0.12218 0.77701 0.1843 0.0
H2326 H 0.12654 0.79477 0.20279 0.0
H2327 H 0.13084 0.79102 0.1346 0.0
C2328 C 0.3054 0.22306 0.39792 0.0
C2329 C 0.30163 0.21191 0.36 0.0
C2330 C 0.31962 0.23194 0.41366 0.0
C2331 C 0.33023 0.22943 0.39169 0.0
C2332 C 0.32658 0.21877 0.35083 0.0
C2333 C 0.31236 0.21022 0.33517 0.0
C2334 C 0.32314 0.24345 0.4562 0.0
C2335 C 0.33755 0.21566 0.32655 0.0
C2336 C 0.36996 0.25379 0.40907 0.0
C2337 C 0.37292 0.24706 0.45276 0.0
C2338 C 0.35597 0.24874 0.3908 0.0
C2339 C 0.34474 0.23655 0.41619 0.0
C2340 C 0.34759 0.2302 0.46217 0.0
C2341 C 0.3616 0.2356 0.48014 0.0
C2342 C 0.3533 0.25602 0.34261 0.0
C2343 C 0.33595 0.21713 0.49032 0.0
H2344 H 0.29721 0.22455 0.41689 0.0
H2345 H 0.30959 0.20169 0.30563 0.0
H2346 H 0.3253 0.24014 0.49709 0.0
H2347 H 0.33283 0.25339 0.44383 0.0
H2348 H 0.31431 0.24568 0.46166 0.0
H2349 H 0.33322 0.20783 0.29197 0.0
H2350 H 0.34677 0.22553 0.31064 0.0
H2351 H 0.34149 0.21139 0.3597 0.0
H2352 H 0.37861 0.26273 0.38795 0.0
H2353 H 0.36372 0.23034 0.5141 0.0
H2354 H 0.34403 0.25736 0.35133 0.0
H2355 H 0.35082 0.24938 0.30458 0.0
H2356 H 0.36265 0.26658 0.33368 0.0
H2357 H 0.32723 0.21896 0.50346 0.0
H2358 H 0.33981 0.21398 0.52754 0.0
H2359 H 0.33143 0.20816 0.46035 0.0
C2360 C 0.74752 0.11368 0.42437 0.0
C2361 C 0.75479 0.12398 0.46554 0.0
C2362 C 0.75247 0.10461 0.40659 0.0
C2363 C 0.76511 0.10611 0.42971 0.0
C2364 C 0.77199 0.11591 0.47352 0.0
C2365 C 0.76667 0.12461 0.49123 0.0
C2366 C 0.74459 0.09398 0.36098 0.0
C2367 C 0.78557 0.11796 0.49909 0.0
C2368 C 0.77959 0.08111 0.40905 0.0
C2369 C 0.78993 0.08833 0.36798 0.0
C2370 C 0.77061 0.08617 0.4269 0.0
C2371 C 0.77225 0.09888 0.40395 0.0
C2372 C 0.78211 0.10573 0.36025 0.0
C2373 C 0.79071 0.1003 0.34248 0.0
C2374 C 0.75993 0.07832 0.47237 0.0
C2375 C 0.78431 0.11939 0.33487 0.0
H2376 H 0.73824 0.113 0.40468 0.0
H2377 H 0.77234 0.13247 0.52326 0.0
H2378 H 0.75048 0.09785 0.32112 0.0
H2379 H 0.74382 0.08365 0.37062 0.0
H2380 H 0.73374 0.09229 0.35485 0.0
H2381 H 0.78906 0.1253 0.53533 0.0
H2382 H 0.78424 0.10766 0.51302 0.0
H2383 H 0.79412 0.12234 0.46725 0.0
H2384 H 0.7788 0.07177 0.42861 0.0
H2385 H 0.7986 0.10595 0.31053 0.0
H2386 H 0.74965 0.07766 0.46268 0.0
H2387 H 0.76381 0.08416 0.51232 0.0
H2388 H 0.75813 0.06743 0.47837 0.0
H2389 H 0.77406 0.11816 0.3208 0.0
H2390 H 0.79169 0.12286 0.29875 0.0
H2391 H 0.78872 0.1279 0.36685 0.0
C2392 C 0.91866 0.69684 0.39503 0.0
C2393 C 0.91116 0.70064 0.35781 0.0
C2394 C 0.91341 0.68261 0.41035 0.0
C2395 C 0.90024 0.67201 0.3887 0.0
C2396 C 0.89309 0.67568 0.34851 0.0
C2397 C 0.8987 0.68991 0.33323 0.0
C2398 C 0.92153 0.67907 0.45215 0.0
C2399 C 0.87897 0.66472 0.3246 0.0
C2400 C 0.88499 0.63227 0.40537 0.0
C2401 C 0.87543 0.62927 0.44956 0.0
C2402 C 0.89385 0.64628 0.38708 0.0
C2403 C 0.89294 0.65748 0.41302 0.0
C2404 C 0.88387 0.65458 0.45948 0.0
C2405 C 0.87533 0.64056 0.47742 0.0
C2406 C 0.90367 0.649 0.33835 0.0
C2407 C 0.88249 0.66618 0.48822 0.0
H2408 H 0.92839 0.70503 0.41378 0.0
H2409 H 0.89284 0.6927 0.30424 0.0
H2410 H 0.91617 0.67685 0.49331 0.0
H2411 H 0.92177 0.66941 0.43927 0.0
H2412 H 0.9326 0.68791 0.45732 0.0
H2413 H 0.87537 0.66907 0.29043 0.0
H2414 H 0.87959 0.65553 0.30824 0.0
H2415 H 0.87084 0.66073 0.35808 0.0
H2416 H 0.88524 0.62365 0.38386 0.0
H2417 H 0.86806 0.6384 0.51179 0.0
H2418 H 0.91429 0.65828 0.34674 0.0
H2419 H 0.89938 0.65148 0.30071 0.0
H2420 H 0.90488 0.63968 0.32895 0.0
H2421 H 0.89307 0.6749 0.5011 0.0
H2422 H 0.87558 0.66229 0.5257 0.0
H2423 H 0.87795 0.67072 0.45874 0.0
C2424 C 0.78323 0.70145 0.91505 0.0
C2425 C 0.79371 0.705 0.87415 0.0
C2426 C 0.77448 0.68731 0.93193 0.0
C2427 C 0.77639 0.67652 0.90784 0.0
C2428 C 0.78643 0.67995 0.86449 0.0
C2429 C 0.79488 0.69411 0.84797 0.0
C2430 C 0.76369 0.68403 0.97744 0.0
C2431 C 0.78885 0.66877 0.83776 0.0
C2432 C 0.76991 0.64419 0.99055 0.0
C2433 C 0.75789 0.63335 0.96393 0.0
C2434 C 0.77561 0.65839 0.97453 0.0
C2435 C 0.76905 0.6619 0.93126 0.0
C2436 C 0.75635 0.65116 0.90691 0.0
C2437 C 0.75096 0.63698 0.92328 0.0
C2438 C 0.78919 0.66952 0.00152 0.0
C2439 C 0.74888 0.65452 0.8615 0.0
H2440 H 0.78216 0.70976 0.93524 0.0
H2441 H 0.8029 0.6967 0.81614 0.0
H2442 H 0.75337 0.67466 0.9661 0.0
H2443 H 0.76735 0.68141 0.01653 0.0
H2444 H 0.76203 0.69312 0.98586 0.0
H2445 H 0.79636 0.67301 0.80213 0.0
H2446 H 0.79318 0.66447 0.86923 0.0
H2447 H 0.77868 0.65981 0.82263 0.0
H2448 H 0.77532 0.64154 0.02219 0.0
H2449 H 0.7416 0.62871 0.90278 0.0
H2450 H 0.78803 0.67852 0.01645 0.0
H2451 H 0.79787 0.67377 0.97026 0.0
H2452 H 0.79237 0.66525 0.03733 0.0
H2453 H 0.74799 0.66391 0.87296 0.0
H2454 H 0.7381 0.64546 0.85304 0.0
H2455 H 0.75515 0.65713 0.8224 0.0
C2456 C 0.35882 0.12738 0.99013 0.0
C2457 C 0.36968 0.12622 0.96357 0.0
C2458 C 0.34463 0.11893 0.97381 0.0
C2459 C 0.34116 0.10892 0.93031 0.0
C2460 C 0.35192 0.107 0.90596 0.0
C2461 C 0.36608 0.11574 0.92263 0.0
C2462 C 0.33349 0.12136 0.00079 0.0
C2463 C 0.34859 0.09624 0.86031 0.0
C2464 C 0.30161 0.08361 0.91378 0.0
C2465 C 0.29809 0.0906 0.87306 0.0
C2466 C 0.31575 0.08896 0.93065 0.0
C2467 C 0.32656 0.10169 0.90675 0.0
C2468 C 0.32315 0.10835 0.86354 0.0
C2469 C 0.30899 0.10268 0.847 0.0
C2470 C 0.31901 0.08139 0.97599 0.0
C2471 C 0.33435 0.12197 0.83703 0.0
H2472 H 0.36145 0.13538 0.02198 0.0
H2473 H 0.37437 0.11467 0.90218 0.0
H2474 H 0.32926 0.12582 0.96957 0.0
H2475 H 0.32448 0.11118 0.01557 0.0
H2476 H 0.33774 0.12878 0.03671 0.0
H2477 H 0.35765 0.09452 0.85182 0.0
H2478 H 0.33919 0.08594 0.87153 0.0
H2479 H 0.34601 0.09995 0.82128 0.0
H2480 H 0.29328 0.0742 0.93386 0.0
H2481 H 0.30642 0.10814 0.81533 0.0
H2482 H 0.32161 0.08762 0.0152 0.0
H2483 H 0.32838 0.08045 0.96459 0.0
H2484 H 0.3099 0.07063 0.98422 0.0
H2485 H 0.33863 0.13057 0.86864 0.0
H2486 H 0.33013 0.12528 0.80144 0.0
H2487 H 0.34332 0.12078 0.8219 0.0
C2488 C 0.89868 0.20729 0.84295 0.0
C2489 C 0.91074 0.20828 0.86847 0.0
C2490 C 0.89311 0.21579 0.86054 0.0
C2491 C 0.89985 0.22567 0.90426 0.0
C2492 C 0.91258 0.22743 0.92756 0.0
C2493 C 0.91783 0.21864 0.90964 0.0
C2494 C 0.87949 0.21354 0.83463 0.0
C2495 C 0.92023 0.23806 0.97341 0.0
C2496 C 0.88592 0.25115 0.9238 0.0
C2497 C 0.87549 0.2441 0.96475 0.0
C2498 C 0.89461 0.24577 0.90595 0.0
C2499 C 0.89267 0.23296 0.92908 0.0
C2500 C 0.88272 0.22626 0.9726 0.0
C2501 C 0.87433 0.23196 0.99014 0.0
C2502 C 0.90533 0.25339 0.86032 0.0
C2503 C 0.88028 0.21255 -0.00167 0.0
H2504 H 0.89315 0.19938 0.81095 0.0
H2505 H 0.92722 0.21957 0.92931 0.0
H2506 H 0.87091 0.20909 0.86631 0.0
H2507 H 0.88071 0.22379 0.82053 0.0
H2508 H 0.87613 0.20619 0.79845 0.0
H2509 H 0.931 0.23967 0.98097 0.0
H2510 H 0.92117 0.24842 0.96301 0.0
H2511 H 0.91407 0.23428 0.01272 0.0
H2512 H 0.887 0.26061 0.90424 0.0
H2513 H 0.86635 0.22645 0.02197 0.0
H2514 H 0.90154 0.24728 0.82089 0.0
H2515 H 0.91563 0.25419 0.87087 0.0
H2516 H 0.90708 0.26421 0.85291 0.0
H2517 H 0.87578 0.20401 0.96651 0.0
H2518 H 0.87289 0.20923 0.03439 0.0
H2519 H 0.89046 0.21363 0.01257 0.0
C2520 C 0.69119 0.79334 0.65402 0.0
C2521 C 0.70205 0.79218 0.62746 0.0
C2522 C 0.67701 0.78495 0.63754 0.0
C2523 C 0.67354 0.77499 0.59385 0.0
C2524 C 0.68429 0.77306 0.56948 0.0
C2525 C 0.69845 0.78174 0.58633 0.0
C2526 C 0.66588 0.78739 0.66457 0.0
C2527 C 0.68096 0.76235 0.52361 0.0
C2528 C 0.63397 0.7498 0.57709 0.0
C2529 C 0.63048 0.75687 0.53657 0.0
C2530 C 0.6481 0.75508 0.59392 0.0
C2531 C 0.65894 0.76781 0.57018 0.0
C2532 C 0.65558 0.77455 0.52715 0.0
C2533 C 0.64142 0.76895 0.51065 0.0
C2534 C 0.65132 0.74743 0.63906 0.0
C2535 C 0.66681 0.78818 0.50082 0.0
H2536 H 0.69382 0.80131 0.68603 0.0
H2537 H 0.70673 0.78068 0.56585 0.0
H2538 H 0.66168 0.79189 0.63342 0.0
H2539 H 0.65684 0.77721 0.67919 0.0
H2540 H 0.67013 0.79477 0.7006 0.0
H2541 H 0.69 0.76061 0.51511 0.0
H2542 H 0.67153 0.75205 0.53461 0.0
H2543 H 0.67843 0.76613 0.48465 0.0
H2544 H 0.62562 0.74039 0.59706 0.0
H2545 H 0.63888 0.77447 0.47914 0.0
H2546 H 0.65393 0.75361 0.6784 0.0
H2547 H 0.66067 0.74648 0.62758 0.0
H2548 H 0.6422 0.73667 0.6471 0.0
H2549 H 0.67109 0.79675 0.53254 0.0
H2550 H 0.66262 0.79154 0.46527 0.0
H2551 H 0.67577 0.78697 0.48567 0.0
C2552 C 0.22181 0.91876 0.59917 0.0
C2553 C 0.21073 0.9113 0.63732 0.0
C2554 C 0.23066 0.91347 0.58249 0.0
C2555 C 0.2282 0.9003 0.60373 0.0
C2556 C 0.2176 0.89317 0.64476 0.0
C2557 C 0.20909 0.89881 0.66137 0.0
C2558 C 0.24209 0.92156 0.53978 0.0
C2559 C 0.21455 0.87905 0.66829 0.0
C2560 C 0.2343 0.87529 0.51375 0.0
C2561 C 0.2458 0.8754 0.54068 0.0
C2562 C 0.22892 0.88387 0.53231 0.0
C2563 C 0.23532 0.893 0.57846 0.0
C2564 C 0.24755 0.89393 0.60337 0.0
C2565 C 0.25258 0.88503 0.58449 0.0
C2566 C 0.21581 0.88248 0.50467 0.0
C2567 C 0.25488 0.9038 0.65173 0.0
H2568 H 0.22327 0.92849 0.58079 0.0
H2569 H 0.20062 0.89298 0.69106 0.0
H2570 H 0.25207 0.92182 0.55162 0.0
H2571 H 0.23872 0.91616 0.49876 0.0
H2572 H 0.24428 0.93262 0.53481 0.0
H2573 H 0.20675 0.87545 0.70301 0.0
H2574 H 0.21027 0.87092 0.63482 0.0
H2575 H 0.22444 0.87968 0.68379 0.0
H2576 H 0.229 0.86796 0.4797 0.0
H2577 H 0.26155 0.88529 0.60527 0.0
H2578 H 0.21759 0.89304 0.49212 0.0
H2579 H 0.20686 0.87792 0.53475 0.0
H2580 H 0.21264 0.87556 0.46715 0.0
H2581 H 0.25619 0.91441 0.64349 0.0
H2582 H 0.26546 0.90502 0.66025 0.0
H2583 H 0.24829 0.89956 0.68984 0.0
C2584 C 0.11472 0.36475 0.57439 0.0
C2585 C 0.1252 0.36829 0.53348 0.0
C2586 C 0.10597 0.35062 0.59131 0.0
C2587 C 0.10787 0.33981 0.56726 0.0
C2588 C 0.11786 0.34322 0.52375 0.0
C2589 C 0.12633 0.35738 0.50717 0.0
C2590 C 0.09522 0.34736 0.63696 0.0
C2591 C 0.12027 0.33203 0.49705 0.0
C2592 C 0.10167 0.30777 0.65133 0.0
C2593 C 0.08959 0.29682 0.62545 0.0
C2594 C 0.10732 0.32191 0.6345 0.0
C2595 C 0.10064 0.32525 0.59117 0.0
C2596 C 0.0879 0.3144 0.56746 0.0
C2597 C 0.08257 0.30029 0.58463 0.0
C2598 C 0.12095 0.33314 0.66082 0.0
C2599 C 0.08031 0.31759 0.52201 0.0
H2600 H 0.11368 0.37308 0.59466 0.0
H2601 H 0.13433 0.35996 0.47534 0.0
H2602 H 0.08492 0.33793 0.62595 0.0
H2603 H 0.09896 0.34486 0.67611 0.0
H2604 H 0.0935 0.35643 0.64513 0.0
H2605 H 0.12768 0.33623 0.46107 0.0
H2606 H 0.12474 0.32784 0.5284 0.0
H2607 H 0.11008 0.32301 0.48245 0.0
H2608 H 0.10716 0.30525 0.68308 0.0
H2609 H 0.07316 0.29193 0.56468 0.0
H2610 H 0.11977 0.34213 0.67569 0.0
H2611 H 0.12955 0.33738 0.62917 0.0
H2612 H 0.12428 0.32898 0.69656 0.0
H2613 H 0.07939 0.32699 0.53314 0.0
H2614 H 0.06953 0.30849 0.51402 0.0
H2615 H 0.0865 0.32012 0.48274 0.0
C2616 C 0.03362 0.58675 0.75593 0.0
C2617 C 0.03674 0.57949 0.79688 0.0
C2618 C 0.01958 0.58176 0.7384 0.0
C2619 C 0.00849 0.56909 0.76156 0.0
C2620 C 0.0115 0.56222 0.80515 0.0
C2621 C 0.02554 0.56758 0.8226 0.0
C2622 C 0.01674 0.58963 0.69303 0.0
C2623 C 1.00002 0.54861 0.83075 0.0
C2624 C 0.96897 0.55454 0.74161 0.0
C2625 C 0.96583 0.54423 0.70039 0.0
C2626 C 0.98301 0.56352 0.75932 0.0
C2627 C 0.99409 0.56193 0.73606 0.0
C2628 C 0.99106 0.5521 0.69223 0.0
C2629 C 0.97702 0.54349 0.67461 0.0
C2630 C 0.98588 0.57417 0.80496 0.0
C2631 C 0.00251 0.54994 0.66651 0.0
H2632 H 0.04218 0.59605 0.73622 0.0
H2633 H 0.02779 0.56191 0.85446 0.0
H2634 H 0.01467 0.58376 0.65312 0.0
H2635 H 0.00719 0.59038 0.70298 0.0
H2636 H 0.02587 0.60049 0.68682 0.0
H2637 H 0.00394 0.54513 0.86682 0.0
H2638 H 0.99104 0.5499 0.84494 0.0
H2639 H 0.99585 0.54007 0.79885 0.0
H2640 H 0.96043 0.5553 0.76138 0.0
H2641 H 0.97475 0.53562 0.64254 0.0
H2642 H 0.99546 0.58447 0.79521 0.0
H2643 H 0.98791 0.57029 0.84475 0.0
H2644 H 0.97677 0.57593 0.81128 0.0
H2645 H 0.01151 0.56021 0.65242 0.0
H2646 H 0.99858 0.54258 0.63035 0.0
H2647 H 0.00667 0.54554 0.69831 0.0
C2648 C 0.41511 0.44711 0.75502 0.0
C2649 C 0.42224 0.45734 0.79658 0.0
C2650 C 0.42023 0.4382 0.73691 0.0
C2651 C 0.4329 0.43979 0.76011 0.0
C2652 C 0.43964 0.44952 0.8043 0.0
C2653 C 0.43416 0.45805 0.82231 0.0
C2654 C 0.4125 0.42766 0.69089 0.0
C2655 C 0.45325 0.45166 0.82998 0.0
C2656 C 0.44777 0.41516 0.73875 0.0
C2657 C 0.45815 0.42255 0.69796 0.0
C2658 C 0.43867 0.42004 0.75671 0.0
C2659 C 0.4402 0.43275 0.73416 0.0
C2660 C 0.4501 0.43977 0.69075 0.0
C2661 C 0.45883 0.43451 0.67284 0.0
C2662 C 0.42795 0.41202 0.80187 0.0
C2663 C 0.45219 0.45343 0.66581 0.0
H2664 H 0.40581 0.44636 0.73528 0.0
H2665 H 0.43972 0.46585 0.85464 0.0
H2666 H 0.41843 0.43166 0.65119 0.0
H2667 H 0.41183 0.41736 0.70017 0.0
H2668 H 0.40161 0.42586 0.68465 0.0
H2669 H 0.45662 0.45892 0.86647 0.0
H2670 H 0.45202 0.44137 0.84356 0.0
H2671 H 0.46184 0.45619 0.79831 0.0
H2672 H 0.44706 0.40581 0.758 0.0
H2673 H 0.46675 0.44028 0.64112 0.0
H2674 H 0.41763 0.41125 0.79205 0.0
H2675 H 0.43172 0.41779 0.842 0.0
H2676 H 0.42627 0.40116 0.80756 0.0
H2677 H 0.44192 0.45213 0.65167 0.0
H2678 H 0.45962 0.45705 0.62984 0.0
H2679 H 0.45649 0.46187 0.69809 0.0
C2680 C 0.55562 0.97243 0.76978 0.0
C2681 C 0.54439 0.96871 0.80727 0.0
C2682 C 0.5645 0.98661 0.75369 0.0
C2683 C 0.56191 0.99725 0.77482 0.0
C2684 C 0.55116 0.99366 0.81525 0.0
C2685 C 0.54262 0.97947 0.83131 0.0
C2686 C 0.5761 0.99007 0.71165 0.0
C2687 C 0.54797 0.00465 0.83862 0.0
C2688 C 0.5862 0.03695 0.75641 0.0
C2689 C 0.57953 0.03978 0.71215 0.0
C2690 C 0.58116 0.023 0.77525 0.0
C2691 C 0.56904 0.01169 0.74982 0.0
C2692 C 0.56276 0.01442 0.70327 0.0
C2693 C 0.56814 0.02838 0.68477 0.0
C2694 C 0.58838 0.02047 0.82405 0.0
C2695 C 0.54976 0.00269 0.67506 0.0
H2696 H 0.55717 0.96421 0.75144 0.0
H2697 H 0.53403 0.97674 0.86049 0.0
H2698 H 0.57286 0.99213 0.67041 0.0
H2699 H 0.586 0.9998 0.72402 0.0
H2700 H 0.57837 0.98125 0.70689 0.0
H2701 H 0.54006 1.00037 0.87297 0.0
H2702 H 0.55779 0.01391 0.85455 0.0
H2703 H 0.54374 0.0085 0.80493 0.0
H2704 H 0.59508 0.04566 0.77755 0.0
H2705 H 0.56293 0.0304 0.65036 0.0
H2706 H 0.58976 0.0112 0.81604 0.0
H2707 H 0.58167 0.01806 0.86183 0.0
H2708 H 0.59891 0.02985 0.83301 0.0
H2709 H 0.55165 0.99397 0.66261 0.0
H2710 H 0.54666 0.00645 0.63739 0.0
H2711 H 0.54073 0.99821 0.70474 0.0
C2712 C 0.45788 0.02234 0.166 0.0
C2713 C 0.45609 0.0331 0.18999 0.0
C2714 C 0.44935 0.00815 0.18204 0.0
C2715 C 0.43858 0.00455 0.22242 0.0
C2716 C 0.43597 0.01518 0.2435 0.0
C2717 C 0.44485 0.02936 0.22741 0.0
C2718 C 0.45256 0.99717 0.15873 0.0
C2719 C 0.42436 0.01171 0.28548 0.0
C2720 C 0.41431 0.96485 0.24093 0.0
C2721 C 0.42099 0.96203 0.28522 0.0
C2722 C 0.41934 0.97879 0.22203 0.0
C2723 C 0.43146 0.99011 0.24745 0.0
C2724 C 0.43775 0.9874 0.29403 0.0
C2725 C 0.43237 0.97344 0.31258 0.0
C2726 C 0.41213 0.9813 0.17318 0.0
C2727 C 0.45073 0.99914 0.32225 0.0
H2728 H 0.46648 0.02508 0.13687 0.0
H2729 H 0.44328 0.03758 0.24571 0.0
H2730 H 0.45679 0.99334 0.19243 0.0
H2731 H 0.44274 0.98789 0.1428 0.0
H2732 H 0.46046 0.00145 0.12438 0.0
H2733 H 0.42208 0.02052 0.2902 0.0
H2734 H 0.41447 0.00197 0.2731 0.0
H2735 H 0.4276 0.00966 0.32675 0.0
H2736 H 0.40544 0.95613 0.2198 0.0
H2737 H 0.43759 0.97144 0.34702 0.0
H2738 H 0.41885 0.98371 0.13543 0.0
H2739 H 0.41074 0.99057 0.18115 0.0
H2740 H 0.40161 0.97191 0.16422 0.0
H2741 H 0.45977 0.00363 0.29259 0.0
H2742 H 0.45383 0.9954 0.35995 0.0
H2743 H 0.44883 0.00786 0.33465 0.0
C2744 C 0.02621 0.46058 0.32024 0.0
C2745 C 0.03723 0.45947 0.29485 0.0
C2746 C 0.01213 0.45214 0.30271 0.0
C2747 C 0.00891 0.4422 0.25918 0.0
C2748 C 0.01981 0.44032 0.23601 0.0
C2749 C 0.03387 0.44905 0.25386 0.0
C2750 C 1.00083 0.45452 0.32847 0.0
C2751 C 0.01675 0.42961 0.19038 0.0
C2752 C 0.96945 0.4169 0.24014 0.0
C2753 C 0.9661 0.42395 0.19906 0.0
C2754 C 0.98352 0.42221 0.25787 0.0
C2755 C 0.99443 0.43495 0.23446 0.0
C2756 C 0.99122 0.44164 0.19078 0.0
C2757 C 0.97712 0.43602 0.17338 0.0
C2758 C 0.98658 0.4146 0.30366 0.0
C2759 C 0.00253 0.45528 0.16475 0.0
H2760 H 0.02865 0.46854 0.35209 0.0
H2761 H 0.04229 0.44802 0.23429 0.0
H2762 H 0.99673 0.45897 0.29664 0.0
H2763 H 0.99176 0.44433 0.3428 0.0
H2764 H 0.00488 0.46193 0.36448 0.0
H2765 H 0.02586 0.42792 0.18291 0.0
H2766 H 0.00729 0.4193 0.20095 0.0
H2767 H 0.01439 0.43337 0.15097 0.0
H2768 H 0.96103 0.4075 0.25992 0.0
H2769 H 0.97468 0.44152 0.14144 0.0
H2770 H 0.98895 0.42076 0.34297 0.0
H2771 H 0.99603 0.41372 0.29318 0.0
H2772 H 0.97746 0.40381 0.31128 0.0
H2773 H 0.00664 0.46387 0.19637 0.0
H2774 H 0.99848 0.45858 0.12857 0.0
H2775 H 0.01159 0.45411 0.15061 0.0
C2776 C 0.58549 0.55301 0.24097 0.0
C2777 C 0.57846 0.54269 0.19958 0.0
C2778 C 0.58013 0.56167 0.25929 0.0
C2779 C 0.56735 0.55983 0.23619 0.0
C2780 C 0.56067 0.55001 0.19225 0.0
C2781 C 0.56635 0.54164 0.17425 0.0
C2782 C 0.58772 0.57225 0.30536 0.0
C2783 C 0.547 0.54768 0.16653 0.0
C2784 C 0.54162 0.56565 0.32275 0.0
C2785 C 0.54264 0.57778 0.29772 0.0
C2786 C 0.55014 0.56012 0.3049 0.0
C2787 C 0.56007 0.56697 0.26143 0.0
C2788 C 0.56187 0.57976 0.23869 0.0
C2789 C 0.55306 0.58497 0.25685 0.0
C2790 C 0.54784 0.54642 0.33021 0.0
C2791 C 0.57256 0.58753 0.19316 0.0
H2792 H 0.59492 0.55399 0.26049 0.0
H2793 H 0.56086 0.53376 0.14208 0.0
H2794 H 0.58854 0.58258 0.29536 0.0
H2795 H 0.58159 0.56835 0.34469 0.0
H2796 H 0.59854 0.57397 0.3127 0.0
H2797 H 0.5437 0.54038 0.13016 0.0
H2798 H 0.53843 0.54311 0.19823 0.0
H2799 H 0.54812 0.55791 0.15276 0.0
H2800 H 0.53367 0.56004 0.35452 0.0
H2801 H 0.55402 0.59442 0.23757 0.0
H2802 H 0.55807 0.54758 0.34426 0.0
H2803 H 0.5434 0.53793 0.29818 0.0
H2804 H 0.54045 0.54298 0.36631 0.0
H2805 H 0.5829 0.58841 0.20351 0.0
H2806 H 0.57421 0.59834 0.18614 0.0
H2807 H 0.56881 0.5815 0.15356 0.0
loop_
_geom_bond_atom_site_label_1
_geom_bond_atom_site_label_2
_geom_bond_distance
_geom_bond_site_symmetry_2
_ccdc_geom_bond_type
O0 Cd1 2.223 . S
O0 C8 1.315 . S
Cd1 O0 2.223 . S
Cd1 O4 2.297 . S
Cd1 O5 2.439 . S
Cd1 O11 2.240 . S
Cd2 O3 2.240 . S
Cd2 O10 2.223 . S
Cd2 O12 2.297 . S
Cd2 O13 2.439 . S
O3 Cd2 2.240 . S
O3 C8 1.279 . S
O4 Cd1 2.297 . S
O4 C6 1.247 . S
O5 Cd1 2.439 . S
O5 C6 1.208 . S
C6 O4 1.247 . S
C6 O5 1.208 . S
C7 O12 1.247 . S
C7 O13 1.208 . S
C8 O0 1.315 . S
C8 O3 1.279 . S
C9 O10 1.315 . S
C9 O11 1.279 . S
O10 Cd2 2.223 . S
O10 C9 1.315 . S
O11 Cd1 2.240 . S
O11 C9 1.279 . S
O12 Cd2 2.297 . S
O12 C7 1.247 . S
O13 Cd2 2.439 . S
O13 C7 1.208 . S
O14 Cd15 2.223 . S
O14 C22 1.315 . S
Cd15 O14 2.223 . S
Cd15 O18 2.297 . S
Cd15 O19 2.439 . S
Cd15 O25 2.240 . S
Cd16 O17 2.240 . S
Cd16 O24 2.223 . S
Cd16 O26 2.297 . S
Cd16 O27 2.439 . S
O17 Cd16 2.240 . S
O17 C22 1.279 . S
O18 Cd15 2.297 . S
O18 C20 1.247 . S
O19 Cd15 2.439 . S
O19 C20 1.208 . S
C20 O18 1.247 . S
C20 O19 1.208 . S
C21 O26 1.247 . S
C21 O27 1.208 . S
C22 O14 1.315 . S
C22 O17 1.279 . S
C23 O24 1.315 . S
C23 O25 1.279 . S
O24 Cd16 2.223 . S
O24 C23 1.315 . S
O25 Cd15 2.240 . S
O25 C23 1.279 . S
O26 Cd16 2.297 . S
O26 C21 1.247 . S
O27 Cd16 2.439 . S
O27 C21 1.208 . S
O28 Cd29 2.223 . S
O28 C36 1.315 . S
Cd29 O28 2.223 . S
Cd29 O32 2.297 . S
Cd29 O33 2.439 . S
Cd29 O39 2.240 . S
Cd30 O31 2.240 . S
Cd30 O38 2.223 . S
Cd30 O40 2.297 . S
Cd30 O41 2.439 . S
O31 Cd30 2.240 . S
O31 C36 1.279 . S
O32 Cd29 2.297 . S
O32 C34 1.247 . S
O33 Cd29 2.439 . S
O33 C34 1.208 . S
C34 O32 1.247 . S
C34 O33 1.208 . S
C35 O40 1.247 . S
C35 O41 1.208 . S
C36 O28 1.315 . S
C36 O31 1.279 . S
C37 O38 1.315 . S
C37 O39 1.279 . S
O38 Cd30 2.223 . S
O38 C37 1.315 . S
O39 Cd29 2.240 . S
O39 C37 1.279 . S
O40 Cd30 2.297 . S
O40 C35 1.247 . S
O41 Cd30 2.439 . S
O41 C35 1.208 . S
O42 Cd43 2.223 . S
O42 C50 1.315 . S
Cd43 O42 2.223 . S
Cd43 O46 2.297 . S
Cd43 O47 2.439 . S
Cd43 O53 2.240 . S
Cd44 O45 2.240 . S
Cd44 O52 2.223 . S
Cd44 O54 2.297 . S
Cd44 O55 2.439 . S
O45 Cd44 2.240 . S
O45 C50 1.279 . S
O46 Cd43 2.297 . S
O46 C48 1.247 . S
O47 Cd43 2.439 . S
O47 C48 1.208 . S
C48 O46 1.247 . S
C48 O47 1.208 . S
C49 O54 1.247 . S
C49 O55 1.208 . S
C50 O42 1.315 . S
C50 O45 1.279 . S
C51 O52 1.315 . S
C51 O53 1.279 . S
O52 Cd44 2.223 . S
O52 C51 1.315 . S
O53 Cd43 2.240 . S
O53 C51 1.279 . S
O54 Cd44 2.297 . S
O54 C49 1.247 . S
O55 Cd44 2.439 . S
O55 C49 1.208 . S
O56 Cd57 2.223 . S
O56 C64 1.315 . S
Cd57 O56 2.223 . S
Cd57 O60 2.297 . S
Cd57 O61 2.439 . S
Cd57 O67 2.240 . S
Cd58 O59 2.240 . S
Cd58 O66 2.223 . S
Cd58 O68 2.297 . S
Cd58 O69 2.439 . S
O59 Cd58 2.240 . S
O59 C64 1.279 . S
O60 Cd57 2.297 . S
O60 C62 1.247 . S
O61 Cd57 2.439 . S
O61 C62 1.208 . S
C62 O60 1.247 . S
C62 O61 1.208 . S
C63 O68 1.247 . S
C63 O69 1.208 . S
C64 O56 1.315 . S
C64 O59 1.279 . S
C65 O66 1.315 . S
C65 O67 1.279 . S
O66 Cd58 2.223 . S
O66 C65 1.315 . S
O67 Cd57 2.240 . S
O67 C65 1.279 . S
O68 Cd58 2.297 . S
O68 C63 1.247 . S
O69 Cd58 2.439 . S
O69 C63 1.208 . S
O70 Cd71 2.223 . S
O70 C78 1.315 . S
Cd71 O70 2.223 . S
Cd71 O74 2.297 . S
Cd71 O75 2.439 . S
Cd71 O81 2.240 . S
Cd72 O73 2.240 . S
Cd72 O80 2.223 . S
Cd72 O82 2.297 . S
Cd72 O83 2.439 . S
O73 Cd72 2.240 . S
O73 C78 1.279 . S
O74 Cd71 2.297 . S
O74 C76 1.247 . S
O75 Cd71 2.439 . S
O75 C76 1.208 . S
C76 O74 1.247 . S
C76 O75 1.208 . S
C77 O82 1.247 . S
C77 O83 1.208 . S
C78 O70 1.315 . S
C78 O73 1.279 . S
C79 O80 1.315 . S
C79 O81 1.279 . S
O80 Cd72 2.223 . S
O80 C79 1.315 . S
O81 Cd71 2.240 . S
O81 C79 1.279 . S
O82 Cd72 2.297 . S
O82 C77 1.247 . S
O83 Cd72 2.439 . S
O83 C77 1.208 . S
O84 Cd85 2.223 . S
O84 C92 1.315 . S
Cd85 O84 2.223 . S
Cd85 O88 2.297 . S
Cd85 O89 2.439 . S
Cd85 O95 2.240 . S
Cd86 O87 2.240 . S
Cd86 O94 2.223 . S
Cd86 O96 2.297 . S
Cd86 O97 2.439 . S
O87 Cd86 2.240 . S
O87 C92 1.279 . S
O88 Cd85 2.297 . S
O88 C90 1.247 . S
O89 Cd85 2.439 . S
O89 C90 1.208 . S
C90 O88 1.247 . S
C90 O89 1.208 . S
C91 O96 1.247 . S
C91 O97 1.208 . S
C92 O84 1.315 . S
C92 O87 1.279 . S
C93 O94 1.315 . S
C93 O95 1.279 . S
O94 Cd86 2.223 . S
O94 C93 1.315 . S
O95 Cd85 2.240 . S
O95 C93 1.279 . S
O96 Cd86 2.297 . S
O96 C91 1.247 . S
O97 Cd86 2.439 . S
O97 C91 1.208 . S
O98 Cd99 2.223 . S
O98 C106 1.315 . S
Cd99 O98 2.223 . S
Cd99 O102 2.297 . S
Cd99 O103 2.439 . S
Cd99 O109 2.240 . S
Cd100 O101 2.240 . S
Cd100 O108 2.223 . S
Cd100 O110 2.297 . S
Cd100 O111 2.439 . S
O101 Cd100 2.240 . S
O101 C106 1.279 . S
O102 Cd99 2.297 . S
O102 C104 1.247 . S
O103 Cd99 2.439 . S
O103 C104 1.208 . S
C104 O102 1.247 . S
C104 O103 1.208 . S
C105 O110 1.247 . S
C105 O111 1.208 . S
C106 O98 1.315 . S
C106 O101 1.279 . S
C107 O108 1.315 . S
C107 O109 1.279 . S
O108 Cd100 2.223 . S
O108 C107 1.315 . S
O109 Cd99 2.240 . S
O109 C107 1.279 . S
O110 Cd100 2.297 . S
O110 C105 1.247 . S
O111 Cd100 2.439 . S
O111 C105 1.208 . S
O112 Cd113 2.223 . S
O112 C120 1.315 . S
Cd113 O112 2.223 . S
Cd113 O116 2.297 . S
Cd113 O117 2.439 . S
Cd113 O123 2.240 . S
Cd114 O115 2.240 . S
Cd114 O122 2.223 . S
Cd114 O124 2.297 . S
Cd114 O125 2.439 . S
O115 Cd114 2.240 . S
O115 C120 1.279 . S
O116 Cd113 2.297 . S
O116 C118 1.247 . S
O117 Cd113 2.439 . S
O117 C118 1.208 . S
C118 O116 1.247 . S
C118 O117 1.208 . S
C119 O124 1.247 . S
C119 O125 1.208 . S
C120 O112 1.315 . S
C120 O115 1.279 . S
C121 O122 1.315 . S
C121 O123 1.279 . S
O122 Cd114 2.223 . S
O122 C121 1.315 . S
O123 Cd113 2.240 . S
O123 C121 1.279 . S
O124 Cd114 2.297 . S
O124 C119 1.247 . S
O125 Cd114 2.439 . S
O125 C119 1.208 . S
O126 Cd127 2.223 . S
O126 C134 1.315 . S
Cd127 O126 2.223 . S
Cd127 O130 2.297 . S
Cd127 O131 2.439 . S
Cd127 O137 2.240 . S
Cd128 O129 2.240 . S
Cd128 O136 2.223 . S
Cd128 O138 2.297 . S
Cd128 O139 2.439 . S
O129 Cd128 2.240 . S
O129 C134 1.279 . S
O130 Cd127 2.297 . S
O130 C132 1.247 . S
O131 Cd127 2.439 . S
O131 C132 1.208 . S
C132 O130 1.247 . S
C132 O131 1.208 . S
C133 O138 1.247 . S
C133 O139 1.208 . S
C134 O126 1.315 . S
C134 O129 1.279 . S
C135 O136 1.315 . S
C135 O137 1.279 . S
O136 Cd128 2.223 . S
O136 C135 1.315 . S
O137 Cd127 2.240 . S
O137 C135 1.279 . S
O138 Cd128 2.297 . S
O138 C133 1.247 . S
O139 Cd128 2.439 . S
O139 C133 1.208 . S
O140 Cd141 2.223 . S
O140 C148 1.315 . S
Cd141 O140 2.223 . S
Cd141 O144 2.297 . S
Cd141 O145 2.439 . S
Cd141 O151 2.240 . S
Cd142 O143 2.240 . S
Cd142 O150 2.223 . S
Cd142 O152 2.297 . S
Cd142 O153 2.439 . S
O143 Cd142 2.240 . S
O143 C148 1.279 . S
O144 Cd141 2.297 . S
O144 C146 1.247 . S
O145 Cd141 2.439 . S
O145 C146 1.208 . S
C146 O144 1.247 . S
C146 O145 1.208 . S
C147 O152 1.247 . S
C147 O153 1.208 . S
C148 O140 1.315 . S
C148 O143 1.279 . S
C149 O150 1.315 . S
C149 O151 1.279 . S
O150 Cd142 2.223 . S
O150 C149 1.315 . S
O151 Cd141 2.240 . S
O151 C149 1.279 . S
O152 Cd142 2.297 . S
O152 C147 1.247 . S
O153 Cd142 2.439 . S
O153 C147 1.208 . S
O154 Cd155 2.223 . S
O154 C162 1.315 . S
Cd155 O154 2.223 . S
Cd155 O158 2.297 . S
Cd155 O159 2.439 . S
Cd155 O165 2.240 . S
Cd156 O157 2.240 . S
Cd156 O164 2.223 . S
Cd156 O166 2.297 . S
Cd156 O167 2.439 . S
O157 Cd156 2.240 . S
O157 C162 1.279 . S
O158 Cd155 2.297 . S
O158 C160 1.247 . S
O159 Cd155 2.439 . S
O159 C160 1.208 . S
C160 O158 1.247 . S
C160 O159 1.208 . S
C161 O166 1.247 . S
C161 O167 1.208 . S
C162 O154 1.315 . S
C162 O157 1.279 . S
C163 O164 1.315 . S
C163 O165 1.279 . S
O164 Cd156 2.223 . S
O164 C163 1.315 . S
O165 Cd155 2.240 . S
O165 C163 1.279 . S
O166 Cd156 2.297 . S
O166 C161 1.247 . S
O167 Cd156 2.439 . S
O167 C161 1.208 . S
O168 Cd169 2.223 . S
O168 C176 1.315 . S
Cd169 O168 2.223 . S
Cd169 O172 2.297 . S
Cd169 O173 2.439 . S
Cd169 O179 2.240 . S
Cd170 O171 2.240 . S
Cd170 O178 2.223 . S
Cd170 O180 2.297 . S
Cd170 O181 2.439 . S
O171 Cd170 2.240 . S
O171 C176 1.279 . S
O172 Cd169 2.297 . S
O172 C174 1.247 . S
O173 Cd169 2.439 . S
O173 C174 1.208 . S
C174 O172 1.247 . S
C174 O173 1.208 . S
C175 O180 1.247 . S
C175 O181 1.208 . S
C176 O168 1.315 . S
C176 O171 1.279 . S
C177 O178 1.315 . S
C177 O179 1.279 . S
O178 Cd170 2.223 . S
O178 C177 1.315 . S
O179 Cd169 2.240 . S
O179 C177 1.279 . S
O180 Cd170 2.297 . S
O180 C175 1.247 . S
O181 Cd170 2.439 . S
O181 C175 1.208 . S
O182 Cd183 2.223 . S
O182 C190 1.315 . S
Cd183 O182 2.223 . S
Cd183 O186 2.297 . S
Cd183 O187 2.439 . S
Cd183 O193 2.240 . S
Cd184 O185 2.240 . S
Cd184 O192 2.223 . S
Cd184 O194 2.297 . S
Cd184 O195 2.439 . S
O185 Cd184 2.240 . S
O185 C190 1.279 . S
O186 Cd183 2.297 . S
O186 C188 1.247 . S
O187 Cd183 2.439 . S
O187 C188 1.208 . S
C188 O186 1.247 . S
C188 O187 1.208 . S
C189 O194 1.247 . S
C189 O195 1.208 . S
C190 O182 1.315 . S
C190 O185 1.279 . S
C191 O192 1.315 . S
C191 O193 1.279 . S
O192 Cd184 2.223 . S
O192 C191 1.315 . S
O193 Cd183 2.240 . S
O193 C191 1.279 . S
O194 Cd184 2.297 . S
O194 C189 1.247 . S
O195 Cd184 2.439 . S
O195 C189 1.208 . S
O196 Cd197 2.223 . S
O196 C204 1.315 . S
Cd197 O196 2.223 . S
Cd197 O200 2.297 . S
Cd197 O201 2.439 . S
Cd197 O207 2.240 . S
Cd198 O199 2.240 . S
Cd198 O206 2.223 . S
Cd198 O208 2.297 . S
Cd198 O209 2.439 . S
O199 Cd198 2.240 . S
O199 C204 1.279 . S
O200 Cd197 2.297 . S
O200 C202 1.247 . S
O201 Cd197 2.439 . S
O201 C202 1.208 . S
C202 O200 1.247 . S
C202 O201 1.208 . S
C203 O208 1.247 . S
C203 O209 1.208 . S
C204 O196 1.315 . S
C204 O199 1.279 . S
C205 O206 1.315 . S
C205 O207 1.279 . S
O206 Cd198 2.223 . S
O206 C205 1.315 . S
O207 Cd197 2.240 . S
O207 C205 1.279 . S
O208 Cd198 2.297 . S
O208 C203 1.247 . S
O209 Cd198 2.439 . S
O209 C203 1.208 . S
O210 Cd211 2.223 . S
O210 C218 1.315 . S
Cd211 O210 2.223 . S
Cd211 O214 2.297 . S
Cd211 O215 2.439 . S
Cd211 O221 2.240 . S
Cd212 O213 2.240 . S
Cd212 O220 2.223 . S
Cd212 O222 2.297 . S
Cd212 O223 2.439 . S
O213 Cd212 2.240 . S
O213 C218 1.279 . S
O214 Cd211 2.297 . S
O214 C216 1.247 . S
O215 Cd211 2.439 . S
O215 C216 1.208 . S
C216 O214 1.247 . S
C216 O215 1.208 . S
C217 O222 1.247 . S
C217 O223 1.208 . S
C218 O210 1.315 . S
C218 O213 1.279 . S
C219 O220 1.315 . S
C219 O221 1.279 . S
O220 Cd212 2.223 . S
O220 C219 1.315 . S
O221 Cd211 2.240 . S
O221 C219 1.279 . S
O222 Cd212 2.297 . S
O222 C217 1.247 . S
O223 Cd212 2.439 . S
O223 C217 1.208 . S
O224 Cd225 2.223 . S
O224 C232 1.315 . S
Cd225 O224 2.223 . S
Cd225 O228 2.297 . S
Cd225 O229 2.439 . S
Cd225 O235 2.240 . S
Cd226 O227 2.240 . S
Cd226 O234 2.223 . S
Cd226 O236 2.297 . S
Cd226 O237 2.439 . S
O227 Cd226 2.240 . S
O227 C232 1.279 . S
O228 Cd225 2.297 . S
O228 C230 1.247 . S
O229 Cd225 2.439 . S
O229 C230 1.208 . S
C230 O228 1.247 . S
C230 O229 1.208 . S
C231 O236 1.247 . S
C231 O237 1.208 . S
C232 O224 1.315 . S
C232 O227 1.279 . S
C233 O234 1.315 . S
C233 O235 1.279 . S
O234 Cd226 2.223 . S
O234 C233 1.315 . S
O235 Cd225 2.240 . S
O235 C233 1.279 . S
O236 Cd226 2.297 . S
O236 C231 1.247 . S
O237 Cd226 2.439 . S
O237 C231 1.208 . S
O238 Cd239 2.223 . S
O238 C246 1.315 . S
Cd239 O238 2.223 . S
Cd239 O242 2.297 . S
Cd239 O243 2.439 . S
Cd239 O249 2.240 . S
Cd240 O241 2.240 . S
Cd240 O248 2.223 . S
Cd240 O250 2.297 . S
Cd240 O251 2.439 . S
O241 Cd240 2.240 . S
O241 C246 1.279 . S
O242 Cd239 2.297 . S
O242 C244 1.247 . S
O243 Cd239 2.439 . S
O243 C244 1.208 . S
C244 O242 1.247 . S
C244 O243 1.208 . S
C245 O250 1.247 . S
C245 O251 1.208 . S
C246 O238 1.315 . S
C246 O241 1.279 . S
C247 O248 1.315 . S
C247 O249 1.279 . S
O248 Cd240 2.223 . S
O248 C247 1.315 . S
O249 Cd239 2.240 . S
O249 C247 1.279 . S
O250 Cd240 2.297 . S
O250 C245 1.247 . S
O251 Cd240 2.439 . S
O251 C245 1.208 . S
O252 Cd253 2.223 . S
O252 C260 1.315 . S
Cd253 O252 2.223 . S
Cd253 O256 2.297 . S
Cd253 O257 2.439 . S
Cd253 O263 2.240 . S
Cd254 O255 2.240 . S
Cd254 O262 2.223 . S
Cd254 O264 2.297 1_554 S
Cd254 O265 2.439 1_554 S
O255 Cd254 2.240 . S
O255 C260 1.279 . S
O256 Cd253 2.297 . S
O256 C258 1.247 . S
O257 Cd253 2.439 . S
O257 C258 1.208 . S
C258 O256 1.247 . S
C258 O257 1.208 . S
C259 O264 1.247 . S
C259 O265 1.208 . S
C260 O252 1.315 . S
C260 O255 1.279 . S
C261 O262 1.315 . S
C261 O263 1.279 . S
O262 Cd254 2.223 . S
O262 C261 1.315 . S
O263 Cd253 2.240 . S
O263 C261 1.279 . S
O264 Cd254 2.297 1_556 S
O264 C259 1.247 . S
O265 Cd254 2.439 1_556 S
O265 C259 1.208 . S
O266 Cd267 2.223 . S
O266 C274 1.315 . S
Cd267 O266 2.223 . S
Cd267 O270 2.297 . S
Cd267 O271 2.439 . S
Cd267 O277 2.240 . S
Cd268 O269 2.240 . S
Cd268 O276 2.223 . S
Cd268 O278 2.297 1_554 S
Cd268 O279 2.439 1_554 S
O269 Cd268 2.240 . S
O269 C274 1.279 . S
O270 Cd267 2.297 . S
O270 C272 1.247 . S
O271 Cd267 2.439 . S
O271 C272 1.208 . S
C272 O270 1.247 . S
C272 O271 1.208 . S
C273 O278 1.247 . S
C273 O279 1.208 . S
C274 O266 1.315 . S
C274 O269 1.279 . S
C275 O276 1.315 . S
C275 O277 1.279 . S
O276 Cd268 2.223 . S
O276 C275 1.315 . S
O277 Cd267 2.240 . S
O277 C275 1.279 . S
O278 Cd268 2.297 1_556 S
O278 C273 1.247 . S
O279 Cd268 2.439 1_556 S
O279 C273 1.208 . S
O280 Cd281 2.223 . S
O280 C288 1.315 . S
Cd281 O280 2.223 . S
Cd281 O284 2.297 . S
Cd281 O285 2.439 . S
Cd281 O291 2.240 . S
Cd282 O283 2.240 . S
Cd282 O290 2.223 . S
Cd282 O292 2.297 1_554 S
Cd282 O293 2.439 1_554 S
O283 Cd282 2.240 . S
O283 C288 1.279 . S
O284 Cd281 2.297 . S
O284 C286 1.247 . S
O285 Cd281 2.439 . S
O285 C286 1.208 . S
C286 O284 1.247 . S
C286 O285 1.208 . S
C287 O292 1.247 . S
C287 O293 1.208 . S
C288 O280 1.315 . S
C288 O283 1.279 . S
C289 O290 1.315 . S
C289 O291 1.279 . S
O290 Cd282 2.223 . S
O290 C289 1.315 . S
O291 Cd281 2.240 . S
O291 C289 1.279 . S
O292 Cd282 2.297 1_556 S
O292 C287 1.247 . S
O293 Cd282 2.439 1_556 S
O293 C287 1.208 . S
O294 Cd295 2.223 1_556 S
O294 C302 1.315 1_556 S
Cd295 O294 2.223 1_554 S
Cd295 O298 2.297 . S
Cd295 O299 2.439 . S
Cd295 O305 2.240 . S
Cd296 O297 2.240 . S
Cd296 O304 2.223 . S
Cd296 O306 2.297 . S
Cd296 O307 2.439 . S
O297 Cd296 2.240 . S
O297 C302 1.279 . S
O298 Cd295 2.297 . S
O298 C300 1.247 . S
O299 Cd295 2.439 . S
O299 C300 1.208 . S
C300 O298 1.247 . S
C300 O299 1.208 . S
C301 O306 1.247 . S
C301 O307 1.208 . S
C302 O294 1.315 1_554 S
C302 O297 1.279 . S
C303 O304 1.315 . S
C303 O305 1.279 . S
O304 Cd296 2.223 . S
O304 C303 1.315 . S
O305 Cd295 2.240 . S
O305 C303 1.279 . S
O306 Cd296 2.297 . S
O306 C301 1.247 . S
O307 Cd296 2.439 . S
O307 C301 1.208 . S
O308 Cd309 2.223 1_556 S
O308 C316 1.315 1_556 S
Cd309 O308 2.223 1_554 S
Cd309 O312 2.297 . S
Cd309 O313 2.439 . S
Cd309 O319 2.240 . S
Cd310 O311 2.240 . S
Cd310 O318 2.223 . S
Cd310 O320 2.297 . S
Cd310 O321 2.439 . S
O311 Cd310 2.240 . S
O311 C316 1.279 . S
O312 Cd309 2.297 . S
O312 C314 1.247 . S
O313 Cd309 2.439 . S
O313 C314 1.208 . S
C314 O312 1.247 . S
C314 O313 1.208 . S
C315 O320 1.247 . S
C315 O321 1.208 . S
C316 O308 1.315 1_554 S
C316 O311 1.279 . S
C317 O318 1.315 . S
C317 O319 1.279 . S
O318 Cd310 2.223 . S
O318 C317 1.315 . S
O319 Cd309 2.240 . S
O319 C317 1.279 . S
O320 Cd310 2.297 . S
O320 C315 1.247 . S
O321 Cd310 2.439 . S
O321 C315 1.208 . S
O322 Cd323 2.223 1_556 S
O322 C330 1.315 1_556 S
Cd323 O322 2.223 1_554 S
Cd323 O326 2.297 . S
Cd323 O327 2.439 . S
Cd323 O333 2.240 . S
Cd324 O325 2.240 . S
Cd324 O332 2.223 . S
Cd324 O334 2.297 . S
Cd324 O335 2.439 . S
O325 Cd324 2.240 . S
O325 C330 1.279 . S
O326 Cd323 2.297 . S
O326 C328 1.247 . S
O327 Cd323 2.439 . S
O327 C328 1.208 . S
C328 O326 1.247 . S
C328 O327 1.208 . S
C329 O334 1.247 . S
C329 O335 1.208 . S
C330 O322 1.315 1_554 S
C330 O325 1.279 . S
C331 O332 1.315 . S
C331 O333 1.279 . S
O332 Cd324 2.223 . S
O332 C331 1.315 . S
O333 Cd323 2.240 . S
O333 C331 1.279 . S
O334 Cd324 2.297 . S
O334 C329 1.247 . S
O335 Cd324 2.439 . S
O335 C329 1.208 . S
O336 Cd337 2.223 . S
O336 C344 1.315 . S
Cd337 O336 2.223 . S
Cd337 O340 2.297 . S
Cd337 O341 2.439 . S
Cd337 O347 2.240 . S
Cd338 O339 2.240 . S
Cd338 O346 2.223 . S
Cd338 O348 2.297 1_556 S
Cd338 O349 2.439 1_556 S
O339 Cd338 2.240 . S
O339 C344 1.279 . S
O340 Cd337 2.297 . S
O340 C342 1.247 . S
O341 Cd337 2.439 . S
O341 C342 1.208 . S
C342 O340 1.247 . S
C342 O341 1.208 . S
C343 O348 1.247 . S
C343 O349 1.208 . S
C344 O336 1.315 . S
C344 O339 1.279 . S
C345 O346 1.315 . S
C345 O347 1.279 . S
O346 Cd338 2.223 . S
O346 C345 1.315 . S
O347 Cd337 2.240 . S
O347 C345 1.279 . S
O348 Cd338 2.297 1_554 S
O348 C343 1.247 . S
O349 Cd338 2.439 1_554 S
O349 C343 1.208 . S
O350 Cd351 2.223 . S
O350 C358 1.315 . S
Cd351 O350 2.223 . S
Cd351 O354 2.297 . S
Cd351 O355 2.439 . S
Cd351 O361 2.240 . S
Cd352 O353 2.240 . S
Cd352 O360 2.223 . S
Cd352 O362 2.297 1_556 S
Cd352 O363 2.439 1_556 S
O353 Cd352 2.240 . S
O353 C358 1.279 . S
O354 Cd351 2.297 . S
O354 C356 1.247 . S
O355 Cd351 2.439 . S
O355 C356 1.208 . S
C356 O354 1.247 . S
C356 O355 1.208 . S
C357 O362 1.247 . S
C357 O363 1.208 . S
C358 O350 1.315 . S
C358 O353 1.279 . S
C359 O360 1.315 . S
C359 O361 1.279 . S
O360 Cd352 2.223 . S
O360 C359 1.315 . S
O361 Cd351 2.240 . S
O361 C359 1.279 . S
O362 Cd352 2.297 1_554 S
O362 C357 1.247 . S
O363 Cd352 2.439 1_554 S
O363 C357 1.208 . S
O364 Cd365 2.223 . S
O364 C372 1.315 . S
Cd365 O364 2.223 . S
Cd365 O368 2.297 . S
Cd365 O369 2.439 . S
Cd365 O375 2.240 . S
Cd366 O367 2.240 . S
Cd366 O374 2.223 . S
Cd366 O376 2.297 1_556 S
Cd366 O377 2.439 1_556 S
O367 Cd366 2.240 . S
O367 C372 1.279 . S
O368 Cd365 2.297 . S
O368 C370 1.247 . S
O369 Cd365 2.439 . S
O369 C370 1.208 . S
C370 O368 1.247 . S
C370 O369 1.208 . S
C371 O376 1.247 . S
C371 O377 1.208 . S
C372 O364 1.315 . S
C372 O367 1.279 . S
C373 O374 1.315 . S
C373 O375 1.279 . S
O374 Cd366 2.223 . S
O374 C373 1.315 . S
O375 Cd365 2.240 . S
O375 C373 1.279 . S
O376 Cd366 2.297 1_554 S
O376 C371 1.247 . S
O377 Cd366 2.439 1_554 S
O377 C371 1.208 . S
O378 Cd379 2.223 1_554 S
O378 C386 1.315 1_554 S
Cd379 O378 2.223 1_556 S
Cd379 O382 2.297 . S
Cd379 O383 2.439 . S
Cd379 O389 2.240 . S
Cd380 O381 2.240 . S
Cd380 O388 2.223 . S
Cd380 O390 2.297 . S
Cd380 O391 2.439 . S
O381 Cd380 2.240 . S
O381 C386 1.279 . S
O382 Cd379 2.297 . S
O382 C384 1.247 . S
O383 Cd379 2.439 . S
O383 C384 1.208 . S
C384 O382 1.247 . S
C384 O383 1.208 . S
C385 O390 1.247 . S
C385 O391 1.208 . S
C386 O378 1.315 1_556 S
C386 O381 1.279 . S
C387 O388 1.315 . S
C387 O389 1.279 . S
O388 Cd380 2.223 . S
O388 C387 1.315 . S
O389 Cd379 2.240 . S
O389 C387 1.279 . S
O390 Cd380 2.297 . S
O390 C385 1.247 . S
O391 Cd380 2.439 . S
O391 C385 1.208 . S
O392 Cd393 2.223 1_554 S
O392 C400 1.315 1_554 S
Cd393 O392 2.223 1_556 S
Cd393 O396 2.297 . S
Cd393 O397 2.439 . S
Cd393 O403 2.240 . S
Cd394 O395 2.240 . S
Cd394 O402 2.223 . S
Cd394 O404 2.297 . S
Cd394 O405 2.439 . S
O395 Cd394 2.240 . S
O395 C400 1.279 . S
O396 Cd393 2.297 . S
O396 C398 1.247 . S
O397 Cd393 2.439 . S
O397 C398 1.208 . S
C398 O396 1.247 . S
C398 O397 1.208 . S
C399 O404 1.247 . S
C399 O405 1.208 . S
C400 O392 1.315 1_556 S
C400 O395 1.279 . S
C401 O402 1.315 . S
C401 O403 1.279 . S
O402 Cd394 2.223 . S
O402 C401 1.315 . S
O403 Cd393 2.240 . S
O403 C401 1.279 . S
O404 Cd394 2.297 . S
O404 C399 1.247 . S
O405 Cd394 2.439 . S
O405 C399 1.208 . S
O406 Cd407 2.223 1_554 S
O406 C414 1.315 1_554 S
Cd407 O406 2.223 1_556 S
Cd407 O410 2.297 . S
Cd407 O411 2.439 . S
Cd407 O417 2.240 . S
Cd408 O409 2.240 . S
Cd408 O416 2.223 . S
Cd408 O418 2.297 . S
Cd408 O419 2.439 . S
O409 Cd408 2.240 . S
O409 C414 1.279 . S
O410 Cd407 2.297 . S
O410 C412 1.247 . S
O411 Cd407 2.439 . S
O411 C412 1.208 . S
C412 O410 1.247 . S
C412 O411 1.208 . S
C413 O418 1.247 . S
C413 O419 1.208 . S
C414 O406 1.315 1_556 S
C414 O409 1.279 . S
C415 O416 1.315 . S
C415 O417 1.279 . S
O416 Cd408 2.223 . S
O416 C415 1.315 . S
O417 Cd407 2.240 . S
O417 C415 1.279 . S
O418 Cd408 2.297 . S
O418 C413 1.247 . S
O419 Cd408 2.439 . S
O419 C413 1.208 . S
O420 Cd421 2.223 . S
O420 C428 1.315 . S
Cd421 O420 2.223 . S
Cd421 O424 2.297 . S
Cd421 O425 2.439 . S
Cd421 O431 2.240 . S
Cd422 O423 2.240 . S
Cd422 O430 2.223 . S
Cd422 O432 2.297 . S
Cd422 O433 2.439 . S
O423 Cd422 2.240 . S
O423 C428 1.279 . S
O424 Cd421 2.297 . S
O424 C426 1.247 . S
O425 Cd421 2.439 . S
O425 C426 1.208 . S
C426 O424 1.247 . S
C426 O425 1.208 . S
C427 O432 1.247 . S
C427 O433 1.208 . S
C428 O420 1.315 . S
C428 O423 1.279 . S
C429 O430 1.315 . S
C429 O431 1.279 . S
O430 Cd422 2.223 . S
O430 C429 1.315 . S
O431 Cd421 2.240 . S
O431 C429 1.279 . S
O432 Cd422 2.297 . S
O432 C427 1.247 . S
O433 Cd422 2.439 . S
O433 C427 1.208 . S
O434 Cd435 2.223 . S
O434 C442 1.315 . S
Cd435 O434 2.223 . S
Cd435 O438 2.297 . S
Cd435 O439 2.439 . S
Cd435 O445 2.240 . S
Cd436 O437 2.240 . S
Cd436 O444 2.223 . S
Cd436 O446 2.297 . S
Cd436 O447 2.439 . S
O437 Cd436 2.240 . S
O437 C442 1.279 . S
O438 Cd435 2.297 . S
O438 C440 1.247 . S
O439 Cd435 2.439 . S
O439 C440 1.208 . S
C440 O438 1.247 . S
C440 O439 1.208 . S
C441 O446 1.247 . S
C441 O447 1.208 . S
C442 O434 1.315 . S
C442 O437 1.279 . S
C443 O444 1.315 . S
C443 O445 1.279 . S
O444 Cd436 2.223 . S
O444 C443 1.315 . S
O445 Cd435 2.240 . S
O445 C443 1.279 . S
O446 Cd436 2.297 . S
O446 C441 1.247 . S
O447 Cd436 2.439 . S
O447 C441 1.208 . S
O448 Cd449 2.223 . S
O448 C456 1.315 . S
Cd449 O448 2.223 . S
Cd449 O452 2.297 . S
Cd449 O453 2.439 . S
Cd449 O459 2.240 . S
Cd450 O451 2.240 . S
Cd450 O458 2.223 . S
Cd450 O460 2.297 . S
Cd450 O461 2.439 . S
O451 Cd450 2.240 . S
O451 C456 1.279 . S
O452 Cd449 2.297 . S
O452 C454 1.247 . S
O453 Cd449 2.439 . S
O453 C454 1.208 . S
C454 O452 1.247 . S
C454 O453 1.208 . S
C455 O460 1.247 . S
C455 O461 1.208 . S
C456 O448 1.315 . S
C456 O451 1.279 . S
C457 O458 1.315 . S
C457 O459 1.279 . S
O458 Cd450 2.223 . S
O458 C457 1.315 . S
O459 Cd449 2.240 . S
O459 C457 1.279 . S
O460 Cd450 2.297 . S
O460 C455 1.247 . S
O461 Cd450 2.439 . S
O461 C455 1.208 . S
O462 Cd463 2.223 . S
O462 C470 1.315 . S
Cd463 O462 2.223 . S
Cd463 O466 2.297 . S
Cd463 O467 2.439 . S
Cd463 O473 2.240 . S
Cd464 O465 2.240 . S
Cd464 O472 2.223 . S
Cd464 O474 2.297 . S
Cd464 O475 2.439 . S
O465 Cd464 2.240 . S
O465 C470 1.279 . S
O466 Cd463 2.297 . S
O466 C468 1.247 . S
O467 Cd463 2.439 . S
O467 C468 1.208 . S
C468 O466 1.247 . S
C468 O467 1.208 . S
C469 O474 1.247 . S
C469 O475 1.208 . S
C470 O462 1.315 . S
C470 O465 1.279 . S
C471 O472 1.315 . S
C471 O473 1.279 . S
O472 Cd464 2.223 . S
O472 C471 1.315 . S
O473 Cd463 2.240 . S
O473 C471 1.279 . S
O474 Cd464 2.297 . S
O474 C469 1.247 . S
O475 Cd464 2.439 . S
O475 C469 1.208 . S
O476 Cd477 2.223 . S
O476 C484 1.315 . S
Cd477 O476 2.223 . S
Cd477 O480 2.297 . S
Cd477 O481 2.439 . S
Cd477 O487 2.240 . S
Cd478 O479 2.240 . S
Cd478 O486 2.223 . S
Cd478 O488 2.297 . S
Cd478 O489 2.439 . S
O479 Cd478 2.240 . S
O479 C484 1.279 . S
O480 Cd477 2.297 . S
O480 C482 1.247 . S
O481 Cd477 2.439 . S
O481 C482 1.208 . S
C482 O480 1.247 . S
C482 O481 1.208 . S
C483 O488 1.247 . S
C483 O489 1.208 . S
C484 O476 1.315 . S
C484 O479 1.279 . S
C485 O486 1.315 . S
C485 O487 1.279 . S
O486 Cd478 2.223 . S
O486 C485 1.315 . S
O487 Cd477 2.240 . S
O487 C485 1.279 . S
O488 Cd478 2.297 . S
O488 C483 1.247 . S
O489 Cd478 2.439 . S
O489 C483 1.208 . S
O490 Cd491 2.223 . S
O490 C498 1.315 . S
Cd491 O490 2.223 . S
Cd491 O494 2.297 . S
Cd491 O495 2.439 . S
Cd491 O501 2.240 . S
Cd492 O493 2.240 . S
Cd492 O500 2.223 . S
Cd492 O502 2.297 . S
Cd492 O503 2.439 . S
O493 Cd492 2.240 . S
O493 C498 1.279 . S
O494 Cd491 2.297 . S
O494 C496 1.247 . S
O495 Cd491 2.439 . S
O495 C496 1.208 . S
C496 O494 1.247 . S
C496 O495 1.208 . S
C497 O502 1.247 . S
C497 O503 1.208 . S
C498 O490 1.315 . S
C498 O493 1.279 . S
C499 O500 1.315 . S
C499 O501 1.279 . S
O500 Cd492 2.223 . S
O500 C499 1.315 . S
O501 Cd491 2.240 . S
O501 C499 1.279 . S
O502 Cd492 2.297 . S
O502 C497 1.247 . S
O503 Cd492 2.439 . S
O503 C497 1.208 . S
C504 C505 1.391 . S
C504 C506 1.394 . S
C504 H520 0.931 . S
C505 C504 1.391 . S
C505 C509 1.376 . S
C506 C504 1.394 . S
C506 C507 1.369 . S
C506 C510 1.531 . S
C507 C506 1.369 . S
C507 C508 1.410 . S
C507 C515 1.503 . S
C508 C507 1.410 . S
C508 C509 1.392 . S
C508 C511 1.511 . S
C509 C505 1.376 . S
C509 C508 1.392 . S
C509 H521 0.929 . S
C510 C506 1.531 . S
C510 H522 0.960 . S
C510 H523 0.962 . S
C510 H524 0.960 . S
C511 C508 1.511 . S
C511 H525 0.961 . S
C511 H526 0.961 . S
C511 H527 0.961 . S
C512 C513 1.370 . S
C512 C514 1.363 . S
C512 H528 0.931 . S
C513 C512 1.370 . S
C513 C517 1.408 . S
C514 C512 1.363 . S
C514 C515 1.370 . S
C514 C518 1.524 . S
C515 C507 1.503 . S
C515 C514 1.370 . S
C515 C516 1.403 . S
C516 C515 1.403 . S
C516 C517 1.404 . S
C516 C519 1.539 . S
C517 C513 1.408 . S
C517 C516 1.404 . S
C517 H529 0.930 . S
C518 C514 1.524 . S
C518 H530 0.956 . S
C518 H531 0.961 . S
C518 H532 0.961 . S
C519 C516 1.539 . S
C519 H533 0.958 . S
C519 H534 0.961 . S
C519 H535 0.960 . S
H520 C504 0.931 . S
H521 C509 0.929 . S
H522 C510 0.960 . S
H523 C510 0.962 . S
H524 C510 0.960 . S
H525 C511 0.961 . S
H526 C511 0.961 . S
H527 C511 0.961 . S
H528 C512 0.931 . S
H529 C517 0.930 . S
H530 C518 0.956 . S
H531 C518 0.961 . S
H532 C518 0.961 . S
H533 C519 0.958 . S
H534 C519 0.961 . S
H535 C519 0.960 . S
C536 C537 1.391 . S
C536 C538 1.394 . S
C536 H552 0.931 . S
C537 C536 1.391 . S
C537 C541 1.376 . S
C538 C536 1.394 . S
C538 C539 1.369 . S
C538 C542 1.531 . S
C539 C538 1.369 . S
C539 C540 1.410 . S
C539 C547 1.503 1_545 S
C540 C539 1.410 . S
C540 C541 1.392 . S
C540 C543 1.511 . S
C541 C537 1.376 . S
C541 C540 1.392 . S
C541 H553 0.929 . S
C542 C538 1.531 . S
C542 H554 0.970 . S
C542 H555 0.962 . S
C542 H556 0.960 . S
C543 C540 1.511 . S
C543 H557 0.961 . S
C543 H558 0.961 1_545 S
C543 H559 0.961 . S
C544 C545 1.370 . S
C544 C546 1.363 . S
C544 H560 0.931 . S
C545 C544 1.370 . S
C545 C549 1.408 . S
C546 C544 1.363 . S
C546 C547 1.370 . S
C546 C550 1.524 . S
C547 C539 1.503 1_565 S
C547 C546 1.370 . S
C547 C548 1.403 . S
C548 C547 1.403 . S
C548 C549 1.404 . S
C548 C551 1.539 . S
C549 C545 1.408 . S
C549 C548 1.404 . S
C549 H561 0.930 . S
C550 C546 1.524 . S
C550 H562 0.956 . S
C550 H563 0.961 . S
C550 H564 0.961 . S
C551 C548 1.539 . S
C551 H565 0.958 . S
C551 H566 0.961 . S
C551 H567 0.960 1_565 S
H552 C536 0.931 . S
H553 C541 0.929 . S
H554 C542 0.970 . S
H555 C542 0.962 . S
H556 C542 0.960 . S
H557 C543 0.961 . S
H558 C543 0.961 1_565 S
H559 C543 0.961 . S
H560 C544 0.931 . S
H561 C549 0.930 . S
H562 C550 0.956 . S
H563 C550 0.961 . S
H564 C550 0.961 . S
H565 C551 0.958 . S
H566 C551 0.961 . S
H567 C551 0.960 1_545 S
C568 C569 1.391 . S
C568 C570 1.394 . S
C568 H584 0.931 . S
C569 C568 1.391 . S
C569 C573 1.376 . S
C570 C568 1.394 . S
C570 C571 1.369 . S
C570 C574 1.531 . S
C571 C570 1.369 . S
C571 C572 1.410 . S
C571 C579 1.503 1_655 S
C572 C571 1.410 . S
C572 C573 1.392 . S
C572 C575 1.511 . S
C573 C569 1.376 . S
C573 C572 1.392 . S
C573 H585 0.929 . S
C574 C570 1.531 . S
C574 H586 0.960 1_655 S
C574 H587 0.962 . S
C574 H588 0.960 . S
C575 C572 1.511 . S
C575 H589 0.961 . S
C575 H590 0.918 1_655 S
C575 H591 0.961 . S
C576 C577 1.370 . S
C576 C578 1.363 . S
C576 H592 0.931 . S
C577 C576 1.370 . S
C577 C581 1.408 . S
C578 C576 1.363 . S
C578 C579 1.370 . S
C578 C582 1.524 . S
C579 C571 1.503 1_455 S
C579 C578 1.370 . S
C579 C580 1.403 . S
C580 C579 1.403 . S
C580 C581 1.404 . S
C580 C583 1.539 . S
C581 C577 1.408 . S
C581 C580 1.404 . S
C581 H593 0.930 . S
C582 C578 1.524 . S
C582 H594 0.956 . S
C582 H595 0.975 . S
C582 H596 0.961 . S
C583 C580 1.539 . S
C583 H597 0.958 . S
C583 H598 0.961 . S
C583 H599 0.960 1_455 S
H584 C568 0.931 . S
H585 C573 0.929 . S
H586 C574 0.960 1_455 S
H587 C574 0.962 . S
H588 C574 0.960 . S
H589 C575 0.961 . S
H590 C575 0.918 1_455 S
H591 C575 0.961 . S
H592 C576 0.931 . S
H593 C581 0.930 . S
H594 C582 0.956 . S
H595 C582 0.975 . S
H596 C582 0.961 . S
H597 C583 0.958 . S
H598 C583 0.961 . S
H599 C583 0.960 1_655 S
C600 C601 1.391 . S
C600 C602 1.394 . S
C600 H616 0.931 . S
C601 C600 1.391 . S
C601 C605 1.376 . S
C602 C600 1.394 . S
C602 C603 1.369 . S
C602 C606 1.531 . S
C603 C602 1.369 . S
C603 C604 1.410 . S
C603 C611 1.503 . S
C604 C603 1.410 . S
C604 C605 1.392 . S
C604 C607 1.511 . S
C605 C601 1.376 . S
C605 C604 1.392 . S
C605 H617 0.929 . S
C606 C602 1.531 . S
C606 H618 0.960 . S
C606 H619 0.962 . S
C606 H620 0.960 . S
C607 C604 1.511 . S
C607 H621 0.961 . S
C607 H622 0.961 . S
C607 H623 0.961 . S
C608 C609 1.370 . S
C608 C610 1.363 . S
C608 H624 0.931 . S
C609 C608 1.370 . S
C609 C613 1.408 . S
C610 C608 1.363 . S
C610 C611 1.370 . S
C610 C614 1.524 . S
C611 C603 1.503 . S
C611 C610 1.370 . S
C611 C612 1.403 . S
C612 C611 1.403 . S
C612 C613 1.404 . S
C612 C615 1.539 . S
C613 C609 1.408 . S
C613 C612 1.404 . S
C613 H625 0.930 . S
C614 C610 1.524 . S
C614 H626 0.956 . S
C614 H627 0.961 . S
C614 H628 0.961 . S
C615 C612 1.539 . S
C615 H629 0.958 . S
C615 H630 0.961 . S
C615 H631 0.960 . S
H616 C600 0.931 . S
H617 C605 0.929 . S
H618 C606 0.960 . S
H619 C606 0.962 . S
H620 C606 0.960 . S
H621 C607 0.961 . S
H622 C607 0.961 . S
H623 C607 0.961 . S
H624 C608 0.931 . S
H625 C613 0.930 . S
H626 C614 0.956 . S
H627 C614 0.961 . S
H628 C614 0.961 . S
H629 C615 0.958 . S
H630 C615 0.961 . S
H631 C615 0.960 . S
C632 C633 1.391 . S
C632 C634 1.394 . S
C632 H648 0.931 . S
C633 C632 1.391 . S
C633 C637 1.376 . S
C634 C632 1.394 . S
C634 C635 1.369 . S
C634 C638 1.531 . S
C635 C634 1.369 . S
C635 C636 1.410 . S
C635 C643 1.503 1_545 S
C636 C635 1.410 . S
C636 C637 1.392 . S
C636 C639 1.511 . S
C637 C633 1.376 . S
C637 C636 1.392 . S
C637 H649 0.929 . S
C638 C634 1.531 . S
C638 H650 0.991 . S
C638 H651 0.962 . S
C638 H652 0.960 . S
C639 C636 1.511 . S
C639 H653 0.961 . S
C639 H654 0.961 1_545 S
C639 H655 0.961 . S
C640 C641 1.370 . S
C640 C642 1.363 . S
C640 H656 0.931 . S
C641 C640 1.370 . S
C641 C645 1.408 . S
C642 C640 1.363 . S
C642 C643 1.370 . S
C642 C646 1.524 . S
C643 C635 1.503 1_565 S
C643 C642 1.370 . S
C643 C644 1.403 . S
C644 C643 1.403 . S
C644 C645 1.404 . S
C644 C647 1.539 . S
C645 C641 1.408 . S
C645 C644 1.404 . S
C645 H657 0.930 . S
C646 C642 1.524 . S
C646 H658 0.956 . S
C646 H659 0.961 . S
C646 H660 0.961 . S
C647 C644 1.539 . S
C647 H661 0.958 . S
C647 H662 0.961 . S
C647 H663 0.960 1_565 S
H648 C632 0.931 . S
H649 C637 0.929 . S
H650 C638 0.991 . S
H651 C638 0.962 . S
H652 C638 0.960 . S
H653 C639 0.961 . S
H654 C639 0.961 1_565 S
H655 C639 0.961 . S
H656 C640 0.931 . S
H657 C645 0.930 . S
H658 C646 0.956 . S
H659 C646 0.961 . S
H660 C646 0.961 . S
H661 C647 0.958 . S
H662 C647 0.961 . S
H663 C647 0.960 1_545 S
C664 C665 1.391 . S
C664 C666 1.394 . S
C664 H680 0.931 . S
C665 C664 1.391 . S
C665 C669 1.376 . S
C666 C664 1.394 . S
C666 C667 1.369 . S
C666 C670 1.531 . S
C667 C666 1.369 . S
C667 C668 1.410 . S
C667 C675 1.503 1_455 S
C668 C667 1.410 . S
C668 C669 1.392 . S
C668 C671 1.511 . S
C669 C665 1.376 . S
C669 C668 1.392 . S
C669 H681 0.929 . S
C670 C666 1.531 . S
C670 H682 1.003 . S
C670 H683 0.962 . S
C670 H684 0.960 . S
C671 C668 1.511 . S
C671 H685 0.961 . S
C671 H686 0.961 1_455 S
C671 H687 0.961 . S
C672 C673 1.370 . S
C672 C674 1.363 . S
C672 H688 0.931 . S
C673 C672 1.370 . S
C673 C677 1.408 . S
C674 C672 1.363 . S
C674 C675 1.370 . S
C674 C678 1.524 . S
C675 C667 1.503 1_655 S
C675 C674 1.370 . S
C675 C676 1.403 . S
C676 C675 1.403 . S
C676 C677 1.404 . S
C676 C679 1.539 . S
C677 C673 1.408 . S
C677 C676 1.404 . S
C677 H689 0.930 . S
C678 C674 1.524 . S
C678 H690 0.970 . S
C678 H691 0.973 . S
C678 H692 0.961 . S
C679 C676 1.539 . S
C679 H693 0.958 . S
C679 H694 0.961 . S
C679 H695 0.953 . S
H680 C664 0.931 . S
H681 C669 0.929 . S
H682 C670 1.003 . S
H683 C670 0.962 . S
H684 C670 0.960 . S
H685 C671 0.961 . S
H686 C671 0.961 1_655 S
H687 C671 0.961 . S
H688 C672 0.931 . S
H689 C677 0.930 . S
H690 C678 0.970 . S
H691 C678 0.973 . S
H692 C678 0.961 . S
H693 C679 0.958 . S
H694 C679 0.961 . S
H695 C679 0.953 . S
C696 C697 1.391 . S
C696 C698 1.394 . S
C696 H712 0.931 . S
C697 C696 1.391 . S
C697 C701 1.376 . S
C698 C696 1.394 . S
C698 C699 1.369 . S
C698 C702 1.531 . S
C699 C698 1.369 . S
C699 C700 1.410 . S
C699 C707 1.503 . S
C700 C699 1.410 . S
C700 C701 1.392 . S
C700 C703 1.511 . S
C701 C697 1.376 . S
C701 C700 1.392 . S
C701 H713 0.929 . S
C702 C698 1.531 . S
C702 H714 0.960 . S
C702 H715 0.962 . S
C702 H716 0.960 . S
C703 C700 1.511 . S
C703 H717 0.961 . S
C703 H718 0.961 . S
C703 H719 0.961 . S
C704 C705 1.370 . S
C704 C706 1.363 . S
C704 H720 0.931 . S
C705 C704 1.370 . S
C705 C709 1.408 . S
C706 C704 1.363 . S
C706 C707 1.370 . S
C706 C710 1.524 . S
C707 C699 1.503 . S
C707 C706 1.370 . S
C707 C708 1.403 . S
C708 C707 1.403 . S
C708 C709 1.404 . S
C708 C711 1.539 . S
C709 C705 1.408 . S
C709 C708 1.404 . S
C709 H721 0.930 . S
C710 C706 1.524 . S
C710 H722 0.956 . S
C710 H723 0.961 . S
C710 H724 0.961 . S
C711 C708 1.539 . S
C711 H725 0.958 . S
C711 H726 0.961 . S
C711 H727 0.960 . S
H712 C696 0.931 . S
H713 C701 0.929 . S
H714 C702 0.960 . S
H715 C702 0.962 . S
H716 C702 0.960 . S
H717 C703 0.961 . S
H718 C703 0.961 . S
H719 C703 0.961 . S
H720 C704 0.931 . S
H721 C709 0.930 . S
H722 C710 0.956 . S
H723 C710 0.961 . S
H724 C710 0.961 . S
H725 C711 0.958 . S
H726 C711 0.961 . S
H727 C711 0.960 . S
C728 C729 1.391 . S
C728 C730 1.394 . S
C728 H744 0.931 . S
C729 C728 1.391 . S
C729 C733 1.376 . S
C730 C728 1.394 . S
C730 C731 1.369 . S
C730 C734 1.531 . S
C731 C730 1.369 . S
C731 C732 1.410 . S
C731 C739 1.503 . S
C732 C731 1.410 . S
C732 C733 1.392 . S
C732 C735 1.511 . S
C733 C729 1.376 . S
C733 C732 1.392 . S
C733 H745 0.929 . S
C734 C730 1.531 . S
C734 H746 0.960 . S
C734 H747 0.962 . S
C734 H748 0.960 . S
C735 C732 1.511 . S
C735 H749 0.961 . S
C735 H750 0.961 . S
C735 H751 0.961 . S
C736 C737 1.370 . S
C736 C738 1.363 . S
C736 H752 0.931 . S
C737 C736 1.370 . S
C737 C741 1.408 . S
C738 C736 1.363 . S
C738 C739 1.370 . S
C738 C742 1.524 . S
C739 C731 1.503 . S
C739 C738 1.370 . S
C739 C740 1.403 . S
C740 C739 1.403 . S
C740 C741 1.404 . S
C740 C743 1.539 . S
C741 C737 1.408 . S
C741 C740 1.404 . S
C741 H753 0.930 . S
C742 C738 1.524 . S
C742 H754 0.956 . S
C742 H755 0.961 . S
C742 H756 0.961 . S
C743 C740 1.539 . S
C743 H757 0.958 . S
C743 H758 0.961 . S
C743 H759 0.960 . S
H744 C728 0.931 . S
H745 C733 0.929 . S
H746 C734 0.960 . S
H747 C734 0.962 . S
H748 C734 0.960 . S
H749 C735 0.961 . S
H750 C735 0.961 . S
H751 C735 0.961 . S
H752 C736 0.931 . S
H753 C741 0.930 . S
H754 C742 0.956 . S
H755 C742 0.961 . S
H756 C742 0.961 . S
H757 C743 0.958 . S
H758 C743 0.961 . S
H759 C743 0.960 . S
C760 C761 1.391 . S
C760 C762 1.394 . S
C760 H776 0.931 . S
C761 C760 1.391 . S
C761 C765 1.376 . S
C762 C760 1.394 . S
C762 C763 1.369 . S
C762 C766 1.531 . S
C763 C762 1.369 . S
C763 C764 1.410 . S
C763 C771 1.503 . S
C764 C763 1.410 . S
C764 C765 1.392 . S
C764 C767 1.511 . S
C765 C761 1.376 . S
C765 C764 1.392 . S
C765 H777 0.929 . S
C766 C762 1.531 . S
C766 H778 0.960 . S
C766 H779 0.962 . S
C766 H780 0.960 . S
C767 C764 1.511 . S
C767 H781 0.961 . S
C767 H782 0.961 . S
C767 H783 0.961 . S
C768 C769 1.370 . S
C768 C770 1.363 . S
C768 H784 0.931 . S
C769 C768 1.370 . S
C769 C773 1.408 . S
C770 C768 1.363 . S
C770 C771 1.370 . S
C770 C774 1.524 . S
C771 C763 1.503 . S
C771 C770 1.370 . S
C771 C772 1.403 . S
C772 C771 1.403 . S
C772 C773 1.404 . S
C772 C775 1.539 . S
C773 C769 1.408 . S
C773 C772 1.404 . S
C773 H785 0.930 . S
C774 C770 1.524 . S
C774 H786 0.956 . S
C774 H787 0.961 . S
C774 H788 0.961 . S
C775 C772 1.539 . S
C775 H789 0.958 . S
C775 H790 0.961 . S
C775 H791 0.960 . S
H776 C760 0.931 . S
H777 C765 0.929 . S
H778 C766 0.960 . S
H779 C766 0.962 . S
H780 C766 0.960 . S
H781 C767 0.961 . S
H782 C767 0.961 . S
H783 C767 0.961 . S
H784 C768 0.931 . S
H785 C773 0.930 . S
H786 C774 0.956 . S
H787 C774 0.961 . S
H788 C774 0.961 . S
H789 C775 0.958 . S
H790 C775 0.961 . S
H791 C775 0.960 . S
C792 C793 1.391 . S
C792 C794 1.394 . S
C792 H808 0.931 . S
C793 C792 1.391 . S
C793 C797 1.376 . S
C794 C792 1.394 . S
C794 C795 1.369 . S
C794 C798 1.531 . S
C795 C794 1.369 . S
C795 C796 1.410 . S
C795 C803 1.503 . S
C796 C795 1.410 . S
C796 C797 1.392 . S
C796 C799 1.511 . S
C797 C793 1.376 . S
C797 C796 1.392 . S
C797 H809 0.929 . S
C798 C794 1.531 . S
C798 H810 0.960 . S
C798 H811 0.962 . S
C798 H812 0.960 . S
C799 C796 1.511 . S
C799 H813 0.961 . S
C799 H814 0.961 . S
C799 H815 0.961 . S
C800 C801 1.370 . S
C800 C802 1.363 . S
C800 H816 0.931 . S
C801 C800 1.370 . S
C801 C805 1.408 . S
C802 C800 1.363 . S
C802 C803 1.370 . S
C802 C806 1.524 1_554 S
C803 C795 1.503 . S
C803 C802 1.370 . S
C803 C804 1.403 . S
C804 C803 1.403 . S
C804 C805 1.404 . S
C804 C807 1.539 . S
C805 C801 1.408 . S
C805 C804 1.404 . S
C805 H817 0.930 . S
C806 C802 1.524 1_556 S
C806 H818 0.956 . S
C806 H819 0.961 . S
C806 H820 0.961 . S
C807 C804 1.539 . S
C807 H821 0.958 . S
C807 H822 0.961 . S
C807 H823 0.960 . S
H808 C792 0.931 . S
H809 C797 0.929 . S
H810 C798 0.960 . S
H811 C798 0.962 . S
H812 C798 0.960 . S
H813 C799 0.961 . S
H814 C799 0.961 . S
H815 C799 0.961 . S
H816 C800 0.931 . S
H817 C805 0.930 . S
H818 C806 0.956 . S
H819 C806 0.961 . S
H820 C806 0.961 . S
H821 C807 0.958 . S
H822 C807 0.961 . S
H823 C807 0.960 . S
C824 C825 1.391 . S
C824 C826 1.394 . S
C824 H840 0.931 . S
C825 C824 1.391 . S
C825 C829 1.376 . S
C826 C824 1.394 . S
C826 C827 1.369 . S
C826 C830 1.531 . S
C827 C826 1.369 . S
C827 C828 1.410 . S
C827 C835 1.503 . S
C828 C827 1.410 . S
C828 C829 1.392 . S
C828 C831 1.511 1_554 S
C829 C825 1.376 . S
C829 C828 1.392 . S
C829 H841 0.929 . S
C830 C826 1.531 . S
C830 H842 0.960 . S
C830 H843 0.962 . S
C830 H844 0.960 . S
C831 C828 1.511 1_556 S
C831 H845 0.961 . S
C831 H846 0.961 . S
C831 H847 0.961 . S
C832 C833 1.370 . S
C832 C834 1.363 . S
C832 H848 0.931 . S
C833 C832 1.370 . S
C833 C837 1.408 . S
C834 C832 1.363 . S
C834 C835 1.370 . S
C834 C838 1.524 . S
C835 C827 1.503 . S
C835 C834 1.370 . S
C835 C836 1.403 . S
C836 C835 1.403 . S
C836 C837 1.404 . S
C836 C839 1.539 . S
C837 C833 1.408 . S
C837 C836 1.404 . S
C837 H849 0.930 . S
C838 C834 1.524 . S
C838 H850 0.956 . S
C838 H851 0.961 . S
C838 H852 0.961 . S
C839 C836 1.539 . S
C839 H853 0.958 . S
C839 H854 0.961 . S
C839 H855 0.960 . S
H840 C824 0.931 . S
H841 C829 0.929 . S
H842 C830 0.960 . S
H843 C830 0.962 . S
H844 C830 0.960 . S
H845 C831 0.961 . S
H846 C831 0.961 . S
H847 C831 0.961 . S
H848 C832 0.931 . S
H849 C837 0.930 . S
H850 C838 0.956 . S
H851 C838 0.961 . S
H852 C838 0.961 . S
H853 C839 0.958 . S
H854 C839 0.961 . S
H855 C839 0.960 . S
C856 C857 1.391 . S
C856 C858 1.394 . S
C856 H872 0.931 1_554 S
C857 C856 1.391 . S
C857 C861 1.376 . S
C858 C856 1.394 . S
C858 C859 1.369 . S
C858 C862 1.531 1_554 S
C859 C858 1.369 . S
C859 C860 1.410 . S
C859 C867 1.503 . S
C860 C859 1.410 . S
C860 C861 1.392 . S
C860 C863 1.511 . S
C861 C857 1.376 . S
C861 C860 1.392 . S
C861 H873 0.929 . S
C862 C858 1.531 1_556 S
C862 H874 0.960 . S
C862 H875 0.962 . S
C862 H876 0.960 . S
C863 C860 1.511 . S
C863 H877 0.961 . S
C863 H878 0.961 . S
C863 H879 0.961 . S
C864 C865 1.370 . S
C864 C866 1.363 . S
C864 H880 0.931 . S
C865 C864 1.370 . S
C865 C869 1.408 . S
C866 C864 1.363 . S
C866 C867 1.370 . S
C866 C870 1.524 . S
C867 C859 1.503 . S
C867 C866 1.370 . S
C867 C868 1.403 . S
C868 C867 1.403 . S
C868 C869 1.404 . S
C868 C871 1.539 . S
C869 C865 1.408 . S
C869 C868 1.404 . S
C869 H881 0.930 . S
C870 C866 1.524 . S
C870 H882 0.956 . S
C870 H883 0.961 . S
C870 H884 0.961 . S
C871 C868 1.539 . S
C871 H885 0.958 . S
C871 H886 0.961 . S
C871 H887 0.960 . S
H872 C856 0.931 1_556 S
H873 C861 0.929 . S
H874 C862 0.960 . S
H875 C862 0.962 . S
H876 C862 0.960 . S
H877 C863 0.961 . S
H878 C863 0.961 . S
H879 C863 0.961 . S
H880 C864 0.931 . S
H881 C869 0.930 . S
H882 C870 0.956 . S
H883 C870 0.961 . S
H884 C870 0.961 . S
H885 C871 0.958 . S
H886 C871 0.961 . S
H887 C871 0.960 . S
C888 C889 1.391 . S
C888 C890 1.394 . S
C888 H904 0.931 1_556 S
C889 C888 1.391 . S
C889 C893 1.376 . S
C890 C888 1.394 . S
C890 C891 1.369 . S
C890 C894 1.531 1_556 S
C891 C890 1.369 . S
C891 C892 1.410 . S
C891 C899 1.503 . S
C892 C891 1.410 . S
C892 C893 1.392 . S
C892 C895 1.511 . S
C893 C889 1.376 . S
C893 C892 1.392 . S
C893 H905 0.929 . S
C894 C890 1.531 1_554 S
C894 H906 0.960 . S
C894 H907 0.962 . S
C894 H908 0.960 . S
C895 C892 1.511 . S
C895 H909 0.961 . S
C895 H910 0.961 . S
C895 H911 0.961 . S
C896 C897 1.370 . S
C896 C898 1.363 . S
C896 H912 0.931 . S
C897 C896 1.370 . S
C897 C901 1.408 . S
C898 C896 1.363 . S
C898 C899 1.370 . S
C898 C902 1.524 . S
C899 C891 1.503 . S
C899 C898 1.370 . S
C899 C900 1.403 . S
C900 C899 1.403 . S
C900 C901 1.404 . S
C900 C903 1.539 . S
C901 C897 1.408 . S
C901 C900 1.404 . S
C901 H913 0.930 . S
C902 C898 1.524 . S
C902 H914 0.956 . S
C902 H915 0.961 . S
C902 H916 0.961 . S
C903 C900 1.539 . S
C903 H917 0.958 . S
C903 H918 0.961 . S
C903 H919 0.960 . S
H904 C888 0.931 1_554 S
H905 C893 0.929 . S
H906 C894 0.960 . S
H907 C894 0.962 . S
H908 C894 0.960 . S
H909 C895 0.961 . S
H910 C895 0.961 . S
H911 C895 0.961 . S
H912 C896 0.931 . S
H913 C901 0.930 . S
H914 C902 0.956 . S
H915 C902 0.961 . S
H916 C902 0.961 . S
H917 C903 0.958 . S
H918 C903 0.961 . S
H919 C903 0.960 . S
C920 C921 1.391 . S
C920 C922 1.394 . S
C920 H936 0.931 . S
C921 C920 1.391 . S
C921 C925 1.376 . S
C922 C920 1.394 . S
C922 C923 1.369 . S
C922 C926 1.531 . S
C923 C922 1.369 . S
C923 C924 1.410 . S
C923 C931 1.503 . S
C924 C923 1.410 . S
C924 C925 1.392 . S
C924 C927 1.511 . S
C925 C921 1.376 . S
C925 C924 1.392 . S
C925 H937 0.929 . S
C926 C922 1.531 . S
C926 H938 0.960 . S
C926 H939 0.962 . S
C926 H940 0.960 . S
C927 C924 1.511 . S
C927 H941 0.961 1_556 S
C927 H942 0.961 . S
C927 H943 0.961 . S
C928 C929 1.370 . S
C928 C930 1.363 . S
C928 H944 0.931 . S
C929 C928 1.370 . S
C929 C933 1.408 . S
C930 C928 1.363 . S
C930 C931 1.370 . S
C930 C934 1.524 . S
C931 C923 1.503 . S
C931 C930 1.370 . S
C931 C932 1.403 . S
C932 C931 1.403 . S
C932 C933 1.404 . S
C932 C935 1.539 . S
C933 C929 1.408 . S
C933 C932 1.404 . S
C933 H945 0.930 . S
C934 C930 1.524 . S
C934 H946 0.956 . S
C934 H947 0.961 1_556 S
C934 H948 0.961 1_556 S
C935 C932 1.539 . S
C935 H949 0.958 . S
C935 H950 0.961 . S
C935 H951 0.960 . S
H936 C920 0.931 . S
H937 C925 0.929 . S
H938 C926 0.960 . S
H939 C926 0.962 . S
H940 C926 0.960 . S
H941 C927 0.961 1_554 S
H942 C927 0.961 . S
H943 C927 0.961 . S
H944 C928 0.931 . S
H945 C933 0.930 . S
H946 C934 0.956 . S
H947 C934 0.961 1_554 S
H948 C934 0.961 1_554 S
H949 C935 0.958 . S
H950 C935 0.961 . S
H951 C935 0.960 . S
C952 C953 1.391 . S
C952 C954 1.394 . S
C952 H968 0.931 . S
C953 C952 1.391 . S
C953 C957 1.376 . S
C954 C952 1.394 . S
C954 C955 1.369 . S
C954 C958 1.531 . S
C955 C954 1.369 . S
C955 C956 1.410 . S
C955 C963 1.503 . S
C956 C955 1.410 . S
C956 C957 1.392 . S
C956 C959 1.511 . S
C957 C953 1.376 . S
C957 C956 1.392 . S
C957 H969 0.929 . S
C958 C954 1.531 . S
C958 H970 0.964 . S
C958 H971 0.962 . S
C958 H972 0.960 1_556 S
C959 C956 1.511 . S
C959 H973 0.961 . S
C959 H974 0.961 . S
C959 H975 0.961 . S
C960 C961 1.370 . S
C960 C962 1.363 . S
C960 H976 0.931 . S
C961 C960 1.370 . S
C961 C965 1.408 . S
C962 C960 1.363 . S
C962 C963 1.370 . S
C962 C966 1.524 . S
C963 C955 1.503 . S
C963 C962 1.370 . S
C963 C964 1.403 . S
C964 C963 1.403 . S
C964 C965 1.404 . S
C964 C967 1.539 1_556 S
C965 C961 1.408 . S
C965 C964 1.404 . S
C965 H977 0.930 1_556 S
C966 C962 1.524 . S
C966 H978 0.956 . S
C966 H979 0.961 . S
C966 H980 0.961 . S
C967 C964 1.539 1_554 S
C967 H981 0.958 . S
C967 H982 0.961 . S
C967 H983 0.960 . S
H968 C952 0.931 . S
H969 C957 0.929 . S
H970 C958 0.964 . S
H971 C958 0.962 . S
H972 C958 0.960 1_554 S
H973 C959 0.961 . S
H974 C959 0.961 . S
H975 C959 0.961 . S
H976 C960 0.931 . S
H977 C965 0.930 1_554 S
H978 C966 0.956 . S
H979 C966 0.961 . S
H980 C966 0.961 . S
H981 C967 0.958 . S
H982 C967 0.961 . S
H983 C967 0.960 . S
C984 C985 1.391 . S
C984 C986 1.394 . S
C984 H1000 0.931 . S
C985 C984 1.391 . S
C985 C989 1.376 . S
C986 C984 1.394 . S
C986 C987 1.369 . S
C986 C990 1.531 . S
C987 C986 1.369 . S
C987 C988 1.410 . S
C987 C995 1.503 . S
C988 C987 1.410 . S
C988 C989 1.392 . S
C988 C991 1.511 . S
C989 C985 1.376 . S
C989 C988 1.392 . S
C989 H1001 0.929 . S
C990 C986 1.531 . S
C990 H1002 0.960 . S
C990 H1003 0.962 . S
C990 H1004 0.960 . S
C991 C988 1.511 . S
C991 H1005 0.961 . S
C991 H1006 0.961 . S
C991 H1007 0.961 . S
C992 C993 1.370 . S
C992 C994 1.363 . S
C992 H1008 0.931 . S
C993 C992 1.370 . S
C993 C997 1.408 . S
C994 C992 1.363 . S
C994 C995 1.370 . S
C994 C998 1.524 . S
C995 C987 1.503 . S
C995 C994 1.370 . S
C995 C996 1.403 . S
C996 C995 1.403 . S
C996 C997 1.404 . S
C996 C999 1.539 . S
C997 C993 1.408 . S
C997 C996 1.404 . S
C997 H1009 0.930 . S
C998 C994 1.524 . S
C998 H1010 0.956 . S
C998 H1011 0.961 . S
C998 H1012 0.961 . S
C999 C996 1.539 . S
C999 H1013 0.958 . S
C999 H1014 0.961 . S
C999 H1015 0.960 . S
H1000 C984 0.931 . S
H1001 C989 0.929 . S
H1002 C990 0.960 . S
H1003 C990 0.962 . S
H1004 C990 0.960 . S
H1005 C991 0.961 . S
H1006 C991 0.961 . S
H1007 C991 0.961 . S
H1008 C992 0.931 . S
H1009 C997 0.930 . S
H1010 C998 0.956 . S
H1011 C998 0.961 . S
H1012 C998 0.961 . S
H1013 C999 0.958 . S
H1014 C999 0.961 . S
H1015 C999 0.960 . S
C1016 C1017 1.391 . S
C1016 C1018 1.394 . S
C1016 H1032 0.931 . S
C1017 C1016 1.391 . S
C1017 C1021 1.376 . S
C1018 C1016 1.394 . S
C1018 C1019 1.369 . S
C1018 C1022 1.531 . S
C1019 C1018 1.369 . S
C1019 C1020 1.410 . S
C1019 C1027 1.503 . S
C1020 C1019 1.410 . S
C1020 C1021 1.392 . S
C1020 C1023 1.511 . S
C1021 C1017 1.376 . S
C1021 C1020 1.392 . S
C1021 H1033 0.929 . S
C1022 C1018 1.531 . S
C1022 H1034 0.960 . S
C1022 H1035 0.962 . S
C1022 H1036 0.960 . S
C1023 C1020 1.511 . S
C1023 H1037 0.961 . S
C1023 H1038 0.961 . S
C1023 H1039 0.961 . S
C1024 C1025 1.370 . S
C1024 C1026 1.363 . S
C1024 H1040 0.931 . S
C1025 C1024 1.370 . S
C1025 C1029 1.408 . S
C1026 C1024 1.363 . S
C1026 C1027 1.370 . S
C1026 C1030 1.524 . S
C1027 C1019 1.503 . S
C1027 C1026 1.370 . S
C1027 C1028 1.403 . S
C1028 C1027 1.403 . S
C1028 C1029 1.404 . S
C1028 C1031 1.539 . S
C1029 C1025 1.408 . S
C1029 C1028 1.404 . S
C1029 H1041 0.930 . S
C1030 C1026 1.524 . S
C1030 H1042 0.956 . S
C1030 H1043 0.961 . S
C1030 H1044 0.961 . S
C1031 C1028 1.539 . S
C1031 H1045 0.958 . S
C1031 H1046 0.961 . S
C1031 H1047 0.960 . S
H1032 C1016 0.931 . S
H1033 C1021 0.929 . S
H1034 C1022 0.960 . S
H1035 C1022 0.962 . S
H1036 C1022 0.960 . S
H1037 C1023 0.961 . S
H1038 C1023 0.961 . S
H1039 C1023 0.961 . S
H1040 C1024 0.931 . S
H1041 C1029 0.930 . S
H1042 C1030 0.956 . S
H1043 C1030 0.961 . S
H1044 C1030 0.961 . S
H1045 C1031 0.958 . S
H1046 C1031 0.961 . S
H1047 C1031 0.960 . S
C1048 C1049 1.391 . S
C1048 C1050 1.394 . S
C1048 H1064 0.931 . S
C1049 C1048 1.391 . S
C1049 C1053 1.376 . S
C1050 C1048 1.394 . S
C1050 C1051 1.369 . S
C1050 C1054 1.531 . S
C1051 C1050 1.369 . S
C1051 C1052 1.410 . S
C1051 C1059 1.503 . S
C1052 C1051 1.410 . S
C1052 C1053 1.392 . S
C1052 C1055 1.511 . S
C1053 C1049 1.376 . S
C1053 C1052 1.392 . S
C1053 H1065 0.929 . S
C1054 C1050 1.531 . S
C1054 H1066 0.960 . S
C1054 H1067 0.962 . S
C1054 H1068 0.960 . S
C1055 C1052 1.511 . S
C1055 H1069 0.961 . S
C1055 H1070 0.961 . S
C1055 H1071 0.961 . S
C1056 C1057 1.370 . S
C1056 C1058 1.363 . S
C1056 H1072 0.931 . S
C1057 C1056 1.370 . S
C1057 C1061 1.408 . S
C1058 C1056 1.363 . S
C1058 C1059 1.370 . S
C1058 C1062 1.524 . S
C1059 C1051 1.503 . S
C1059 C1058 1.370 . S
C1059 C1060 1.403 . S
C1060 C1059 1.403 . S
C1060 C1061 1.404 . S
C1060 C1063 1.539 . S
C1061 C1057 1.408 . S
C1061 C1060 1.404 . S
C1061 H1073 0.930 . S
C1062 C1058 1.524 . S
C1062 H1074 0.956 . S
C1062 H1075 0.961 . S
C1062 H1076 0.961 . S
C1063 C1060 1.539 . S
C1063 H1077 0.958 . S
C1063 H1078 0.961 . S
C1063 H1079 0.960 . S
H1064 C1048 0.931 . S
H1065 C1053 0.929 . S
H1066 C1054 0.960 . S
H1067 C1054 0.962 . S
H1068 C1054 0.960 . S
H1069 C1055 0.961 . S
H1070 C1055 0.961 . S
H1071 C1055 0.961 . S
H1072 C1056 0.931 . S
H1073 C1061 0.930 . S
H1074 C1062 0.956 . S
H1075 C1062 0.961 . S
H1076 C1062 0.961 . S
H1077 C1063 0.958 . S
H1078 C1063 0.961 . S
H1079 C1063 0.960 . S
C1080 C1081 1.391 . S
C1080 C1082 1.394 . S
C1080 H1096 0.931 . S
C1081 C1080 1.391 . S
C1081 C1085 1.376 . S
C1082 C1080 1.394 . S
C1082 C1083 1.369 . S
C1082 C1086 1.531 . S
C1083 C1082 1.369 . S
C1083 C1084 1.410 1_556 S
C1083 C1091 1.503 1_556 S
C1084 C1083 1.410 1_554 S
C1084 C1085 1.392 1_554 S
C1084 C1087 1.511 . S
C1085 C1081 1.376 . S
C1085 C1084 1.392 1_556 S
C1085 H1097 0.929 . S
C1086 C1082 1.531 . S
C1086 H1098 0.960 . S
C1086 H1099 0.962 . S
C1086 H1100 0.960 . S
C1087 C1084 1.511 . S
C1087 H1101 0.961 . S
C1087 H1102 0.961 . S
C1087 H1103 0.961 . S
C1088 C1089 1.370 . S
C1088 C1090 1.363 . S
C1088 H1104 0.931 . S
C1089 C1088 1.370 . S
C1089 C1093 1.408 . S
C1090 C1088 1.363 . S
C1090 C1091 1.370 . S
C1090 C1094 1.524 . S
C1091 C1083 1.503 1_554 S
C1091 C1090 1.370 . S
C1091 C1092 1.403 . S
C1092 C1091 1.403 . S
C1092 C1093 1.404 . S
C1092 C1095 1.539 . S
C1093 C1089 1.408 . S
C1093 C1092 1.404 . S
C1093 H1105 0.930 . S
C1094 C1090 1.524 . S
C1094 H1106 0.956 1_554 S
C1094 H1107 0.961 . S
C1094 H1108 0.961 . S
C1095 C1092 1.539 . S
C1095 H1109 0.958 . S
C1095 H1110 0.961 . S
C1095 H1111 0.960 . S
H1096 C1080 0.931 . S
H1097 C1085 0.929 . S
H1098 C1086 0.960 . S
H1099 C1086 0.962 . S
H1100 C1086 0.960 . S
H1101 C1087 0.961 . S
H1102 C1087 0.961 . S
H1103 C1087 0.961 . S
H1104 C1088 0.931 . S
H1105 C1093 0.930 . S
H1106 C1094 0.956 1_556 S
H1107 C1094 0.961 . S
H1108 C1094 0.961 . S
H1109 C1095 0.958 . S
H1110 C1095 0.961 . S
H1111 C1095 0.960 . S
C1112 C1113 1.391 . S
C1112 C1114 1.394 . S
C1112 H1128 0.931 . S
C1113 C1112 1.391 . S
C1113 C1117 1.376 . S
C1114 C1112 1.394 . S
C1114 C1115 1.369 . S
C1114 C1118 1.531 1_554 S
C1115 C1114 1.369 . S
C1115 C1116 1.410 . S
C1115 C1123 1.503 1_554 S
C1116 C1115 1.410 . S
C1116 C1117 1.392 . S
C1116 C1119 1.511 . S
C1117 C1113 1.376 . S
C1117 C1116 1.392 . S
C1117 H1129 0.929 . S
C1118 C1114 1.531 1_556 S
C1118 H1130 0.960 . S
C1118 H1131 0.962 1_556 S
C1118 H1132 0.960 . S
C1119 C1116 1.511 . S
C1119 H1133 0.961 . S
C1119 H1134 0.961 . S
C1119 H1135 0.961 . S
C1120 C1121 1.370 . S
C1120 C1122 1.356 1_556 S
C1120 H1136 0.931 . S
C1121 C1120 1.370 . S
C1121 C1125 1.408 . S
C1122 C1120 1.356 1_554 S
C1122 C1123 1.369 1_554 S
C1122 C1126 1.532 . S
C1123 C1115 1.503 1_556 S
C1123 C1122 1.369 1_556 S
C1123 C1124 1.403 . S
C1124 C1123 1.403 . S
C1124 C1125 1.404 . S
C1124 C1127 1.539 . S
C1125 C1121 1.408 . S
C1125 C1124 1.404 . S
C1125 H1137 0.930 . S
C1126 C1122 1.532 . S
C1126 H1138 0.956 . S
C1126 H1139 0.961 . S
C1126 H1140 0.961 . S
C1127 C1124 1.539 . S
C1127 H1141 0.958 . S
C1127 H1142 0.961 . S
C1127 H1143 0.960 . S
H1128 C1112 0.931 . S
H1129 C1117 0.929 . S
H1130 C1118 0.960 . S
H1131 C1118 0.962 1_554 S
H1132 C1118 0.960 . S
H1133 C1119 0.961 . S
H1134 C1119 0.961 . S
H1135 C1119 0.961 . S
H1136 C1120 0.931 . S
H1137 C1125 0.930 . S
H1138 C1126 0.956 . S
H1139 C1126 0.961 . S
H1140 C1126 0.961 . S
H1141 C1127 0.958 . S
H1142 C1127 0.961 . S
H1143 C1127 0.960 . S
C1144 C1145 1.391 . S
C1144 C1146 1.394 . S
C1144 H1160 0.931 . S
C1145 C1144 1.391 . S
C1145 C1149 1.376 . S
C1146 C1144 1.394 . S
C1146 C1147 1.369 . S
C1146 C1150 1.531 . S
C1147 C1146 1.369 . S
C1147 C1148 1.410 . S
C1147 C1155 1.503 1_554 S
C1148 C1147 1.410 . S
C1148 C1149 1.392 . S
C1148 C1151 1.511 . S
C1149 C1145 1.376 . S
C1149 C1148 1.392 . S
C1149 H1161 0.929 . S
C1150 C1146 1.531 . S
C1150 H1162 0.960 . S
C1150 H1163 0.962 . S
C1150 H1164 0.960 . S
C1151 C1148 1.511 . S
C1151 H1165 0.961 . S
C1151 H1166 0.961 1_554 S
C1151 H1167 0.961 1_554 S
C1152 C1153 1.370 . S
C1152 C1154 1.363 1_556 S
C1152 H1168 0.931 . S
C1153 C1152 1.370 . S
C1153 C1157 1.408 . S
C1154 C1152 1.363 1_554 S
C1154 C1155 1.370 1_554 S
C1154 C1158 1.524 . S
C1155 C1147 1.503 1_556 S
C1155 C1154 1.370 1_556 S
C1155 C1156 1.403 . S
C1156 C1155 1.403 . S
C1156 C1157 1.404 . S
C1156 C1159 1.539 . S
C1157 C1153 1.408 . S
C1157 C1156 1.404 . S
C1157 H1169 0.930 . S
C1158 C1154 1.524 . S
C1158 H1170 0.956 . S
C1158 H1171 0.961 . S
C1158 H1172 0.961 . S
C1159 C1156 1.539 . S
C1159 H1173 0.958 . S
C1159 H1174 0.961 . S
C1159 H1175 0.960 . S
H1160 C1144 0.931 . S
H1161 C1149 0.929 . S
H1162 C1150 0.960 . S
H1163 C1150 0.962 . S
H1164 C1150 0.960 . S
H1165 C1151 0.961 . S
H1166 C1151 0.961 1_556 S
H1167 C1151 0.961 1_556 S
H1168 C1152 0.931 . S
H1169 C1157 0.930 . S
H1170 C1158 0.956 . S
H1171 C1158 0.961 . S
H1172 C1158 0.961 . S
H1173 C1159 0.958 . S
H1174 C1159 0.961 . S
H1175 C1159 0.960 . S
C1176 C1177 1.391 . S
C1176 C1178 1.394 . S
C1176 H1192 0.931 . S
C1177 C1176 1.391 . S
C1177 C1181 1.376 . S
C1178 C1176 1.394 . S
C1178 C1179 1.369 . S
C1178 C1182 1.531 . S
C1179 C1178 1.369 . S
C1179 C1180 1.410 . S
C1179 C1187 1.503 . S
C1180 C1179 1.410 . S
C1180 C1181 1.392 . S
C1180 C1183 1.511 . S
C1181 C1177 1.376 . S
C1181 C1180 1.392 . S
C1181 H1193 0.929 . S
C1182 C1178 1.531 . S
C1182 H1194 0.960 . S
C1182 H1195 0.962 . S
C1182 H1196 0.960 . S
C1183 C1180 1.511 . S
C1183 H1197 0.961 . S
C1183 H1198 0.961 . S
C1183 H1199 0.961 . S
C1184 C1185 1.370 . S
C1184 C1186 1.363 . S
C1184 H1200 0.931 . S
C1185 C1184 1.370 . S
C1185 C1189 1.408 . S
C1186 C1184 1.363 . S
C1186 C1187 1.370 . S
C1186 C1190 1.524 . S
C1187 C1179 1.503 . S
C1187 C1186 1.370 . S
C1187 C1188 1.403 . S
C1188 C1187 1.403 . S
C1188 C1189 1.404 . S
C1188 C1191 1.539 . S
C1189 C1185 1.408 . S
C1189 C1188 1.404 . S
C1189 H1201 0.930 . S
C1190 C1186 1.524 . S
C1190 H1202 0.956 . S
C1190 H1203 0.961 . S
C1190 H1204 0.961 . S
C1191 C1188 1.539 . S
C1191 H1205 0.958 . S
C1191 H1206 0.961 . S
C1191 H1207 0.960 . S
H1192 C1176 0.931 . S
H1193 C1181 0.929 . S
H1194 C1182 0.960 . S
H1195 C1182 0.962 . S
H1196 C1182 0.960 . S
H1197 C1183 0.961 . S
H1198 C1183 0.961 . S
H1199 C1183 0.961 . S
H1200 C1184 0.931 . S
H1201 C1189 0.930 . S
H1202 C1190 0.956 . S
H1203 C1190 0.961 . S
H1204 C1190 0.961 . S
H1205 C1191 0.958 . S
H1206 C1191 0.961 . S
H1207 C1191 0.960 . S
C1208 C1209 1.391 . S
C1208 C1210 1.394 . S
C1208 H1224 0.931 . S
C1209 C1208 1.391 . S
C1209 C1213 1.376 . S
C1210 C1208 1.394 . S
C1210 C1211 1.369 . S
C1210 C1214 1.531 . S
C1211 C1210 1.369 . S
C1211 C1212 1.410 . S
C1211 C1219 1.503 . S
C1212 C1211 1.410 . S
C1212 C1213 1.392 . S
C1212 C1215 1.511 . S
C1213 C1209 1.376 . S
C1213 C1212 1.392 . S
C1213 H1225 0.929 . S
C1214 C1210 1.531 . S
C1214 H1226 0.960 . S
C1214 H1227 0.962 . S
C1214 H1228 0.960 . S
C1215 C1212 1.511 . S
C1215 H1229 0.961 . S
C1215 H1230 0.961 . S
C1215 H1231 0.961 . S
C1216 C1217 1.370 . S
C1216 C1218 1.363 . S
C1216 H1232 0.931 . S
C1217 C1216 1.370 . S
C1217 C1221 1.408 . S
C1218 C1216 1.363 . S
C1218 C1219 1.370 . S
C1218 C1222 1.524 . S
C1219 C1211 1.503 . S
C1219 C1218 1.370 . S
C1219 C1220 1.403 . S
C1220 C1219 1.403 . S
C1220 C1221 1.404 . S
C1220 C1223 1.539 . S
C1221 C1217 1.408 . S
C1221 C1220 1.404 . S
C1221 H1233 0.930 . S
C1222 C1218 1.524 . S
C1222 H1234 0.956 . S
C1222 H1235 0.961 . S
C1222 H1236 0.961 . S
C1223 C1220 1.539 . S
C1223 H1237 0.958 . S
C1223 H1238 0.961 . S
C1223 H1239 0.960 . S
H1224 C1208 0.931 . S
H1225 C1213 0.929 . S
H1226 C1214 0.960 . S
H1227 C1214 0.962 . S
H1228 C1214 0.960 . S
H1229 C1215 0.961 . S
H1230 C1215 0.961 . S
H1231 C1215 0.961 . S
H1232 C1216 0.931 . S
H1233 C1221 0.930 . S
H1234 C1222 0.956 . S
H1235 C1222 0.961 . S
H1236 C1222 0.961 . S
H1237 C1223 0.958 . S
H1238 C1223 0.961 . S
H1239 C1223 0.960 . S
C1240 C1241 1.391 . S
C1240 C1242 1.394 . S
C1240 H1256 0.931 . S
C1241 C1240 1.391 . S
C1241 C1245 1.376 . S
C1242 C1240 1.394 . S
C1242 C1243 1.369 . S
C1242 C1246 1.531 . S
C1243 C1242 1.369 . S
C1243 C1244 1.410 . S
C1243 C1251 1.503 . S
C1244 C1243 1.410 . S
C1244 C1245 1.392 . S
C1244 C1247 1.511 . S
C1245 C1241 1.376 . S
C1245 C1244 1.392 . S
C1245 H1257 0.929 . S
C1246 C1242 1.531 . S
C1246 H1258 0.960 . S
C1246 H1259 0.962 . S
C1246 H1260 0.960 . S
C1247 C1244 1.511 . S
C1247 H1261 0.961 . S
C1247 H1262 0.961 . S
C1247 H1263 0.961 . S
C1248 C1249 1.370 . S
C1248 C1250 1.363 . S
C1248 H1264 0.931 . S
C1249 C1248 1.370 . S
C1249 C1253 1.408 . S
C1250 C1248 1.363 . S
C1250 C1251 1.370 . S
C1250 C1254 1.524 . S
C1251 C1243 1.503 . S
C1251 C1250 1.370 . S
C1251 C1252 1.403 . S
C1252 C1251 1.403 . S
C1252 C1253 1.404 . S
C1252 C1255 1.539 . S
C1253 C1249 1.408 . S
C1253 C1252 1.404 . S
C1253 H1265 0.930 . S
C1254 C1250 1.524 . S
C1254 H1266 0.956 . S
C1254 H1267 0.961 . S
C1254 H1268 0.961 . S
C1255 C1252 1.539 . S
C1255 H1269 0.958 . S
C1255 H1270 0.961 . S
C1255 H1271 0.960 . S
H1256 C1240 0.931 . S
H1257 C1245 0.929 . S
H1258 C1246 0.960 . S
H1259 C1246 0.962 . S
H1260 C1246 0.960 . S
H1261 C1247 0.961 . S
H1262 C1247 0.961 . S
H1263 C1247 0.961 . S
H1264 C1248 0.931 . S
H1265 C1253 0.930 . S
H1266 C1254 0.956 . S
H1267 C1254 0.961 . S
H1268 C1254 0.961 . S
H1269 C1255 0.958 . S
H1270 C1255 0.961 . S
H1271 C1255 0.960 . S
C1272 C1273 1.391 . S
C1272 C1274 1.394 . S
C1272 H1288 0.931 . S
C1273 C1272 1.391 . S
C1273 C1277 1.376 . S
C1274 C1272 1.394 . S
C1274 C1275 1.369 . S
C1274 C1278 1.531 . S
C1275 C1274 1.369 . S
C1275 C1276 1.410 . S
C1275 C1283 1.503 1_556 S
C1276 C1275 1.410 . S
C1276 C1277 1.392 . S
C1276 C1279 1.511 1_556 S
C1277 C1273 1.376 . S
C1277 C1276 1.392 . S
C1277 H1289 0.929 . S
C1278 C1274 1.531 . S
C1278 H1290 0.960 . S
C1278 H1291 0.962 . S
C1278 H1292 0.960 . S
C1279 C1276 1.511 1_554 S
C1279 H1293 0.961 . S
C1279 H1294 0.961 . S
C1279 H1295 0.961 . S
C1280 C1281 1.370 . S
C1280 C1282 1.363 . S
C1280 H1296 0.931 . S
C1281 C1280 1.370 . S
C1281 C1285 1.408 . S
C1282 C1280 1.363 . S
C1282 C1283 1.370 . S
C1282 C1286 1.524 1_554 S
C1283 C1275 1.503 1_554 S
C1283 C1282 1.370 . S
C1283 C1284 1.403 . S
C1284 C1283 1.403 . S
C1284 C1285 1.404 . S
C1284 C1287 1.539 . S
C1285 C1281 1.408 . S
C1285 C1284 1.404 . S
C1285 H1297 0.930 . S
C1286 C1282 1.524 1_556 S
C1286 H1298 0.956 . S
C1286 H1299 0.961 . S
C1286 H1300 0.961 . S
C1287 C1284 1.539 . S
C1287 H1301 0.958 . S
C1287 H1302 0.961 . S
C1287 H1303 0.960 . S
H1288 C1272 0.931 . S
H1289 C1277 0.929 . S
H1290 C1278 0.960 . S
H1291 C1278 0.962 . S
H1292 C1278 0.960 . S
H1293 C1279 0.961 . S
H1294 C1279 0.961 . S
H1295 C1279 0.961 . S
H1296 C1280 0.931 . S
H1297 C1285 0.930 . S
H1298 C1286 0.956 . S
H1299 C1286 0.961 . S
H1300 C1286 0.961 . S
H1301 C1287 0.958 . S
H1302 C1287 0.961 . S
H1303 C1287 0.960 . S
C1304 C1305 1.391 . S
C1304 C1306 1.394 . S
C1304 H1320 0.931 . S
C1305 C1304 1.391 . S
C1305 C1309 1.376 . S
C1306 C1304 1.394 . S
C1306 C1307 1.369 . S
C1306 C1310 1.531 1_556 S
C1307 C1306 1.369 . S
C1307 C1308 1.410 . S
C1307 C1315 1.518 . S
C1308 C1307 1.410 . S
C1308 C1309 1.392 . S
C1308 C1311 1.511 . S
C1309 C1305 1.376 . S
C1309 C1308 1.392 . S
C1309 H1321 0.929 . S
C1310 C1306 1.531 1_554 S
C1310 H1322 0.960 . S
C1310 H1323 0.962 . S
C1310 H1324 0.960 1_554 S
C1311 C1308 1.511 . S
C1311 H1325 0.961 . S
C1311 H1326 0.961 . S
C1311 H1327 0.961 . S
C1312 C1313 1.370 . S
C1312 C1314 1.363 . S
C1312 H1328 0.931 . S
C1313 C1312 1.370 . S
C1313 C1317 1.408 . S
C1314 C1312 1.363 . S
C1314 C1315 1.356 1_554 S
C1314 C1318 1.524 . S
C1315 C1307 1.518 . S
C1315 C1314 1.356 1_556 S
C1315 C1316 1.402 . S
C1316 C1315 1.402 . S
C1316 C1317 1.401 1_556 S
C1316 C1319 1.542 . S
C1317 C1313 1.408 . S
C1317 C1316 1.401 1_554 S
C1317 H1329 0.930 . S
C1318 C1314 1.524 . S
C1318 H1330 0.956 . S
C1318 H1331 0.961 . S
C1318 H1332 0.961 . S
C1319 C1316 1.542 . S
C1319 H1333 0.958 . S
C1319 H1334 0.961 . S
C1319 H1335 0.960 . S
H1320 C1304 0.931 . S
H1321 C1309 0.929 . S
H1322 C1310 0.960 . S
H1323 C1310 0.962 . S
H1324 C1310 0.960 1_556 S
H1325 C1311 0.961 . S
H1326 C1311 0.961 . S
H1327 C1311 0.961 . S
H1328 C1312 0.931 . S
H1329 C1317 0.930 . S
H1330 C1318 0.956 . S
H1331 C1318 0.961 . S
H1332 C1318 0.961 . S
H1333 C1319 0.958 . S
H1334 C1319 0.961 . S
H1335 C1319 0.960 . S
C1336 C1337 1.391 . S
C1336 C1338 1.394 . S
C1336 H1352 0.931 . S
C1337 C1336 1.391 . S
C1337 C1341 1.376 . S
C1338 C1336 1.394 . S
C1338 C1339 1.369 1_554 S
C1338 C1342 1.531 1_554 S
C1339 C1338 1.369 1_556 S
C1339 C1340 1.410 1_556 S
C1339 C1347 1.503 . S
C1340 C1339 1.410 1_554 S
C1340 C1341 1.392 . S
C1340 C1343 1.511 1_554 S
C1341 C1337 1.376 . S
C1341 C1340 1.392 . S
C1341 H1353 0.929 . S
C1342 C1338 1.531 1_556 S
C1342 H1354 0.960 . S
C1342 H1355 0.962 1_556 S
C1342 H1356 0.960 . S
C1343 C1340 1.511 1_556 S
C1343 H1357 0.961 1_556 S
C1343 H1358 0.961 . S
C1343 H1359 0.961 . S
C1344 C1345 1.370 . S
C1344 C1346 1.363 . S
C1344 H1360 0.931 . S
C1345 C1344 1.370 . S
C1345 C1349 1.408 . S
C1346 C1344 1.363 . S
C1346 C1347 1.370 . S
C1346 C1350 1.524 1_556 S
C1347 C1339 1.503 . S
C1347 C1346 1.370 . S
C1347 C1348 1.403 . S
C1348 C1347 1.403 . S
C1348 C1349 1.404 . S
C1348 C1351 1.539 . S
C1349 C1345 1.408 . S
C1349 C1348 1.404 . S
C1349 H1361 0.930 . S
C1350 C1346 1.524 1_554 S
C1350 H1362 0.956 . S
C1350 H1363 0.961 . S
C1350 H1364 0.961 . S
C1351 C1348 1.539 . S
C1351 H1365 0.958 . S
C1351 H1366 0.961 . S
C1351 H1367 0.960 . S
H1352 C1336 0.931 . S
H1353 C1341 0.929 . S
H1354 C1342 0.960 . S
H1355 C1342 0.962 1_554 S
H1356 C1342 0.960 . S
H1357 C1343 0.961 1_554 S
H1358 C1343 0.961 . S
H1359 C1343 0.961 . S
H1360 C1344 0.931 . S
H1361 C1349 0.930 . S
H1362 C1350 0.956 . S
H1363 C1350 0.961 . S
H1364 C1350 0.961 . S
H1365 C1351 0.958 . S
H1366 C1351 0.961 . S
H1367 C1351 0.960 . S
C1368 C1369 1.391 . S
C1368 C1370 1.394 . S
C1368 H1384 0.931 . S
C1369 C1368 1.391 . S
C1369 C1373 1.376 . S
C1370 C1368 1.394 . S
C1370 C1371 1.369 . S
C1370 C1374 1.531 . S
C1371 C1370 1.369 . S
C1371 C1372 1.410 . S
C1371 C1379 1.503 . S
C1372 C1371 1.410 . S
C1372 C1373 1.392 . S
C1372 C1375 1.511 . S
C1373 C1369 1.376 . S
C1373 C1372 1.392 . S
C1373 H1385 0.929 . S
C1374 C1370 1.531 . S
C1374 H1386 0.960 . S
C1374 H1387 0.962 . S
C1374 H1388 0.960 . S
C1375 C1372 1.511 . S
C1375 H1389 0.961 . S
C1375 H1390 0.961 . S
C1375 H1391 0.961 . S
C1376 C1377 1.370 . S
C1376 C1378 1.363 . S
C1376 H1392 0.931 . S
C1377 C1376 1.370 . S
C1377 C1381 1.408 . S
C1378 C1376 1.363 . S
C1378 C1379 1.370 . S
C1378 C1382 1.524 . S
C1379 C1371 1.503 . S
C1379 C1378 1.370 . S
C1379 C1380 1.403 . S
C1380 C1379 1.403 . S
C1380 C1381 1.404 . S
C1380 C1383 1.539 . S
C1381 C1377 1.408 . S
C1381 C1380 1.404 . S
C1381 H1393 0.930 . S
C1382 C1378 1.524 . S
C1382 H1394 0.956 . S
C1382 H1395 0.961 . S
C1382 H1396 0.961 . S
C1383 C1380 1.539 . S
C1383 H1397 0.958 . S
C1383 H1398 0.961 . S
C1383 H1399 0.960 . S
H1384 C1368 0.931 . S
H1385 C1373 0.929 . S
H1386 C1374 0.960 . S
H1387 C1374 0.962 . S
H1388 C1374 0.960 . S
H1389 C1375 0.961 . S
H1390 C1375 0.961 . S
H1391 C1375 0.961 . S
H1392 C1376 0.931 . S
H1393 C1381 0.930 . S
H1394 C1382 0.956 . S
H1395 C1382 0.961 . S
H1396 C1382 0.961 . S
H1397 C1383 0.958 . S
H1398 C1383 0.961 . S
H1399 C1383 0.960 . S
C1400 C1401 1.391 . S
C1400 C1402 1.394 . S
C1400 H1416 0.931 . S
C1401 C1400 1.391 . S
C1401 C1405 1.376 . S
C1402 C1400 1.394 . S
C1402 C1403 1.369 . S
C1402 C1406 1.531 . S
C1403 C1402 1.369 . S
C1403 C1404 1.410 . S
C1403 C1411 1.503 . S
C1404 C1403 1.410 . S
C1404 C1405 1.392 . S
C1404 C1407 1.511 . S
C1405 C1401 1.376 . S
C1405 C1404 1.392 . S
C1405 H1417 0.929 . S
C1406 C1402 1.531 . S
C1406 H1418 0.960 . S
C1406 H1419 0.962 . S
C1406 H1420 0.960 . S
C1407 C1404 1.511 . S
C1407 H1421 0.961 . S
C1407 H1422 0.961 . S
C1407 H1423 0.961 . S
C1408 C1409 1.370 . S
C1408 C1410 1.363 . S
C1408 H1424 0.931 . S
C1409 C1408 1.370 . S
C1409 C1413 1.408 . S
C1410 C1408 1.363 . S
C1410 C1411 1.370 . S
C1410 C1414 1.524 . S
C1411 C1403 1.503 . S
C1411 C1410 1.370 . S
C1411 C1412 1.403 . S
C1412 C1411 1.403 . S
C1412 C1413 1.404 . S
C1412 C1415 1.539 . S
C1413 C1409 1.408 . S
C1413 C1412 1.404 . S
C1413 H1425 0.930 . S
C1414 C1410 1.524 . S
C1414 H1426 0.956 . S
C1414 H1427 0.961 . S
C1414 H1428 0.961 . S
C1415 C1412 1.539 . S
C1415 H1429 0.958 . S
C1415 H1430 0.961 . S
C1415 H1431 0.960 . S
H1416 C1400 0.931 . S
H1417 C1405 0.929 . S
H1418 C1406 0.960 . S
H1419 C1406 0.962 . S
H1420 C1406 0.960 . S
H1421 C1407 0.961 . S
H1422 C1407 0.961 . S
H1423 C1407 0.961 . S
H1424 C1408 0.931 . S
H1425 C1413 0.930 . S
H1426 C1414 0.956 . S
H1427 C1414 0.961 . S
H1428 C1414 0.961 . S
H1429 C1415 0.958 . S
H1430 C1415 0.961 . S
H1431 C1415 0.960 . S
C1432 C1433 1.391 . S
C1432 C1434 1.394 . S
C1432 H1448 0.931 . S
C1433 C1432 1.391 . S
C1433 C1437 1.376 . S
C1434 C1432 1.394 . S
C1434 C1435 1.369 . S
C1434 C1438 1.531 . S
C1435 C1434 1.369 . S
C1435 C1436 1.410 . S
C1435 C1443 1.503 . S
C1436 C1435 1.410 . S
C1436 C1437 1.392 . S
C1436 C1439 1.511 . S
C1437 C1433 1.376 . S
C1437 C1436 1.392 . S
C1437 H1449 0.929 . S
C1438 C1434 1.531 . S
C1438 H1450 0.960 . S
C1438 H1451 0.962 . S
C1438 H1452 0.960 . S
C1439 C1436 1.511 . S
C1439 H1453 0.961 . S
C1439 H1454 0.961 . S
C1439 H1455 0.961 . S
C1440 C1441 1.370 . S
C1440 C1442 1.363 . S
C1440 H1456 0.931 . S
C1441 C1440 1.370 . S
C1441 C1445 1.408 . S
C1442 C1440 1.363 . S
C1442 C1443 1.370 . S
C1442 C1446 1.524 . S
C1443 C1435 1.503 . S
C1443 C1442 1.370 . S
C1443 C1444 1.403 . S
C1444 C1443 1.403 . S
C1444 C1445 1.404 . S
C1444 C1447 1.539 . S
C1445 C1441 1.408 . S
C1445 C1444 1.404 . S
C1445 H1457 0.930 . S
C1446 C1442 1.524 . S
C1446 H1458 0.956 . S
C1446 H1459 0.961 . S
C1446 H1460 0.961 . S
C1447 C1444 1.539 . S
C1447 H1461 0.958 . S
C1447 H1462 0.961 . S
C1447 H1463 0.960 . S
H1448 C1432 0.931 . S
H1449 C1437 0.929 . S
H1450 C1438 0.960 . S
H1451 C1438 0.962 . S
H1452 C1438 0.960 . S
H1453 C1439 0.961 . S
H1454 C1439 0.961 . S
H1455 C1439 0.961 . S
H1456 C1440 0.931 . S
H1457 C1445 0.930 . S
H1458 C1446 0.956 . S
H1459 C1446 0.961 . S
H1460 C1446 0.961 . S
H1461 C1447 0.958 . S
H1462 C1447 0.961 . S
H1463 C1447 0.960 . S
C1464 C1465 1.391 . S
C1464 C1466 1.394 . S
C1464 H1480 0.931 . S
C1465 C1464 1.391 . S
C1465 C1469 1.376 . S
C1466 C1464 1.394 . S
C1466 C1467 1.369 . S
C1466 C1470 1.531 . S
C1467 C1466 1.369 . S
C1467 C1468 1.410 . S
C1467 C1475 1.503 . S
C1468 C1467 1.410 . S
C1468 C1469 1.392 . S
C1468 C1471 1.511 . S
C1469 C1465 1.376 . S
C1469 C1468 1.392 . S
C1469 H1481 0.929 . S
C1470 C1466 1.531 . S
C1470 H1482 0.960 . S
C1470 H1483 0.962 . S
C1470 H1484 0.960 . S
C1471 C1468 1.511 . S
C1471 H1485 0.961 . S
C1471 H1486 0.961 . S
C1471 H1487 0.961 . S
C1472 C1473 1.370 . S
C1472 C1474 1.363 . S
C1472 H1488 0.931 . S
C1473 C1472 1.370 . S
C1473 C1477 1.408 . S
C1474 C1472 1.363 . S
C1474 C1475 1.370 . S
C1474 C1478 1.524 . S
C1475 C1467 1.503 . S
C1475 C1474 1.370 . S
C1475 C1476 1.403 . S
C1476 C1475 1.403 . S
C1476 C1477 1.404 . S
C1476 C1479 1.539 . S
C1477 C1473 1.408 . S
C1477 C1476 1.404 . S
C1477 H1489 0.930 . S
C1478 C1474 1.524 . S
C1478 H1490 0.956 . S
C1478 H1491 0.961 . S
C1478 H1492 0.961 . S
C1479 C1476 1.539 . S
C1479 H1493 0.958 . S
C1479 H1494 0.961 . S
C1479 H1495 0.960 . S
H1480 C1464 0.931 . S
H1481 C1469 0.929 . S
H1482 C1470 0.960 . S
H1483 C1470 0.962 . S
H1484 C1470 0.960 . S
H1485 C1471 0.961 . S
H1486 C1471 0.961 . S
H1487 C1471 0.961 . S
H1488 C1472 0.931 . S
H1489 C1477 0.930 . S
H1490 C1478 0.956 . S
H1491 C1478 0.961 . S
H1492 C1478 0.961 . S
H1493 C1479 0.958 . S
H1494 C1479 0.961 . S
H1495 C1479 0.960 . S
C1496 C1497 1.391 . S
C1496 C1498 1.394 . S
C1496 H1512 0.931 . S
C1497 C1496 1.391 . S
C1497 C1501 1.376 . S
C1498 C1496 1.394 . S
C1498 C1499 1.369 . S
C1498 C1502 1.531 . S
C1499 C1498 1.369 . S
C1499 C1500 1.410 . S
C1499 C1507 1.503 . S
C1500 C1499 1.410 . S
C1500 C1501 1.392 . S
C1500 C1503 1.511 . S
C1501 C1497 1.376 . S
C1501 C1500 1.392 . S
C1501 H1513 0.929 . S
C1502 C1498 1.531 . S
C1502 H1514 0.960 . S
C1502 H1515 0.962 . S
C1502 H1516 0.960 . S
C1503 C1500 1.511 . S
C1503 H1517 0.961 . S
C1503 H1518 0.961 . S
C1503 H1519 0.961 . S
C1504 C1505 1.370 . S
C1504 C1506 1.363 . S
C1504 H1520 0.931 . S
C1505 C1504 1.370 . S
C1505 C1509 1.408 . S
C1506 C1504 1.363 . S
C1506 C1507 1.370 . S
C1506 C1510 1.524 . S
C1507 C1499 1.503 . S
C1507 C1506 1.370 . S
C1507 C1508 1.403 . S
C1508 C1507 1.403 . S
C1508 C1509 1.404 . S
C1508 C1511 1.539 . S
C1509 C1505 1.408 . S
C1509 C1508 1.404 . S
C1509 H1521 0.930 . S
C1510 C1506 1.524 . S
C1510 H1522 0.956 . S
C1510 H1523 0.961 . S
C1510 H1524 0.961 . S
C1511 C1508 1.539 . S
C1511 H1525 0.958 . S
C1511 H1526 0.961 . S
C1511 H1527 0.960 . S
H1512 C1496 0.931 . S
H1513 C1501 0.929 . S
H1514 C1502 0.960 . S
H1515 C1502 0.962 . S
H1516 C1502 0.960 . S
H1517 C1503 0.961 . S
H1518 C1503 0.961 . S
H1519 C1503 0.961 . S
H1520 C1504 0.931 . S
H1521 C1509 0.930 . S
H1522 C1510 0.956 . S
H1523 C1510 0.961 . S
H1524 C1510 0.961 . S
H1525 C1511 0.958 . S
H1526 C1511 0.961 . S
H1527 C1511 0.960 . S
C1528 C1529 1.391 . S
C1528 C1530 1.394 . S
C1528 H1544 0.931 . S
C1529 C1528 1.391 . S
C1529 C1533 1.376 . S
C1530 C1528 1.394 . S
C1530 C1531 1.369 . S
C1530 C1534 1.531 . S
C1531 C1530 1.369 . S
C1531 C1532 1.410 . S
C1531 C1539 1.503 . S
C1532 C1531 1.410 . S
C1532 C1533 1.392 . S
C1532 C1535 1.511 . S
C1533 C1529 1.376 . S
C1533 C1532 1.392 . S
C1533 H1545 0.929 . S
C1534 C1530 1.531 . S
C1534 H1546 0.960 . S
C1534 H1547 0.962 . S
C1534 H1548 0.960 . S
C1535 C1532 1.511 . S
C1535 H1549 0.961 . S
C1535 H1550 0.961 . S
C1535 H1551 0.961 . S
C1536 C1537 1.370 . S
C1536 C1538 1.363 . S
C1536 H1552 0.931 . S
C1537 C1536 1.370 . S
C1537 C1541 1.408 . S
C1538 C1536 1.363 . S
C1538 C1539 1.370 . S
C1538 C1542 1.524 . S
C1539 C1531 1.503 . S
C1539 C1538 1.370 . S
C1539 C1540 1.403 . S
C1540 C1539 1.403 . S
C1540 C1541 1.404 . S
C1540 C1543 1.539 . S
C1541 C1537 1.408 . S
C1541 C1540 1.404 . S
C1541 H1553 0.930 . S
C1542 C1538 1.524 . S
C1542 H1554 0.956 . S
C1542 H1555 0.961 . S
C1542 H1556 0.961 . S
C1543 C1540 1.539 . S
C1543 H1557 0.958 . S
C1543 H1558 0.961 . S
C1543 H1559 0.960 . S
H1544 C1528 0.931 . S
H1545 C1533 0.929 . S
H1546 C1534 0.960 . S
H1547 C1534 0.962 . S
H1548 C1534 0.960 . S
H1549 C1535 0.961 . S
H1550 C1535 0.961 . S
H1551 C1535 0.961 . S
H1552 C1536 0.931 . S
H1553 C1541 0.930 . S
H1554 C1542 0.956 . S
H1555 C1542 0.961 . S
H1556 C1542 0.961 . S
H1557 C1543 0.958 . S
H1558 C1543 0.961 . S
H1559 C1543 0.960 . S
C1560 C1561 1.391 . S
C1560 C1562 1.394 . S
C1560 H1576 0.931 . S
C1561 C1560 1.391 . S
C1561 C1565 1.376 . S
C1562 C1560 1.394 . S
C1562 C1563 1.369 . S
C1562 C1566 1.531 . S
C1563 C1562 1.369 . S
C1563 C1564 1.410 . S
C1563 C1571 1.503 . S
C1564 C1563 1.410 . S
C1564 C1565 1.392 . S
C1564 C1567 1.511 . S
C1565 C1561 1.376 . S
C1565 C1564 1.392 . S
C1565 H1577 0.929 . S
C1566 C1562 1.531 . S
C1566 H1578 0.960 . S
C1566 H1579 0.962 . S
C1566 H1580 0.960 . S
C1567 C1564 1.511 . S
C1567 H1581 0.961 . S
C1567 H1582 0.961 . S
C1567 H1583 0.961 . S
C1568 C1569 1.370 . S
C1568 C1570 1.363 . S
C1568 H1584 0.931 . S
C1569 C1568 1.370 . S
C1569 C1573 1.408 . S
C1570 C1568 1.363 . S
C1570 C1571 1.370 . S
C1570 C1574 1.524 . S
C1571 C1563 1.503 . S
C1571 C1570 1.370 . S
C1571 C1572 1.403 . S
C1572 C1571 1.403 . S
C1572 C1573 1.404 . S
C1572 C1575 1.539 . S
C1573 C1569 1.408 . S
C1573 C1572 1.404 . S
C1573 H1585 0.930 . S
C1574 C1570 1.524 . S
C1574 H1586 0.956 . S
C1574 H1587 0.961 . S
C1574 H1588 0.961 . S
C1575 C1572 1.539 . S
C1575 H1589 0.958 . S
C1575 H1590 0.961 . S
C1575 H1591 0.960 . S
H1576 C1560 0.931 . S
H1577 C1565 0.929 . S
H1578 C1566 0.960 . S
H1579 C1566 0.962 . S
H1580 C1566 0.960 . S
H1581 C1567 0.961 . S
H1582 C1567 0.961 . S
H1583 C1567 0.961 . S
H1584 C1568 0.931 . S
H1585 C1573 0.930 . S
H1586 C1574 0.956 . S
H1587 C1574 0.961 . S
H1588 C1574 0.961 . S
H1589 C1575 0.958 . S
H1590 C1575 0.961 . S
H1591 C1575 0.960 . S
C1592 C1593 1.391 . S
C1592 C1594 1.394 . S
C1592 H1608 0.931 . S
C1593 C1592 1.391 . S
C1593 C1597 1.376 . S
C1594 C1592 1.394 . S
C1594 C1595 1.369 . S
C1594 C1598 1.531 . S
C1595 C1594 1.369 . S
C1595 C1596 1.410 . S
C1595 C1603 1.503 . S
C1596 C1595 1.410 . S
C1596 C1597 1.392 . S
C1596 C1599 1.511 . S
C1597 C1593 1.376 . S
C1597 C1596 1.392 . S
C1597 H1609 0.929 . S
C1598 C1594 1.531 . S
C1598 H1610 0.960 . S
C1598 H1611 0.962 . S
C1598 H1612 0.960 . S
C1599 C1596 1.511 . S
C1599 H1613 0.961 . S
C1599 H1614 0.961 . S
C1599 H1615 0.961 . S
C1600 C1601 1.370 . S
C1600 C1602 1.363 . S
C1600 H1616 0.931 . S
C1601 C1600 1.370 . S
C1601 C1605 1.408 . S
C1602 C1600 1.363 . S
C1602 C1603 1.370 . S
C1602 C1606 1.524 . S
C1603 C1595 1.503 . S
C1603 C1602 1.370 . S
C1603 C1604 1.403 . S
C1604 C1603 1.403 . S
C1604 C1605 1.404 . S
C1604 C1607 1.539 . S
C1605 C1601 1.408 . S
C1605 C1604 1.404 . S
C1605 H1617 0.930 . S
C1606 C1602 1.524 . S
C1606 H1618 0.956 . S
C1606 H1619 0.961 . S
C1606 H1620 0.961 . S
C1607 C1604 1.539 . S
C1607 H1621 0.958 . S
C1607 H1622 0.961 . S
C1607 H1623 0.960 . S
H1608 C1592 0.931 . S
H1609 C1597 0.929 . S
H1610 C1598 0.960 . S
H1611 C1598 0.962 . S
H1612 C1598 0.960 . S
H1613 C1599 0.961 . S
H1614 C1599 0.961 . S
H1615 C1599 0.961 . S
H1616 C1600 0.931 . S
H1617 C1605 0.930 . S
H1618 C1606 0.956 . S
H1619 C1606 0.961 . S
H1620 C1606 0.961 . S
H1621 C1607 0.958 . S
H1622 C1607 0.961 . S
H1623 C1607 0.960 . S
C1624 C1625 1.391 . S
C1624 C1626 1.394 . S
C1624 H1640 0.931 . S
C1625 C1624 1.391 . S
C1625 C1629 1.376 . S
C1626 C1624 1.394 . S
C1626 C1627 1.369 . S
C1626 C1630 1.531 . S
C1627 C1626 1.369 . S
C1627 C1628 1.410 . S
C1627 C1635 1.503 . S
C1628 C1627 1.410 . S
C1628 C1629 1.392 . S
C1628 C1631 1.511 . S
C1629 C1625 1.376 . S
C1629 C1628 1.392 . S
C1629 H1641 0.929 . S
C1630 C1626 1.531 . S
C1630 H1642 0.960 . S
C1630 H1643 0.962 . S
C1630 H1644 0.960 . S
C1631 C1628 1.511 . S
C1631 H1645 0.961 . S
C1631 H1646 0.961 . S
C1631 H1647 0.961 . S
C1632 C1633 1.370 . S
C1632 C1634 1.363 . S
C1632 H1648 0.931 . S
C1633 C1632 1.370 . S
C1633 C1637 1.408 . S
C1634 C1632 1.363 . S
C1634 C1635 1.370 . S
C1634 C1638 1.524 . S
C1635 C1627 1.503 . S
C1635 C1634 1.370 . S
C1635 C1636 1.403 . S
C1636 C1635 1.403 . S
C1636 C1637 1.404 . S
C1636 C1639 1.539 . S
C1637 C1633 1.408 . S
C1637 C1636 1.404 . S
C1637 H1649 0.930 . S
C1638 C1634 1.524 . S
C1638 H1650 0.956 . S
C1638 H1651 0.961 . S
C1638 H1652 0.961 . S
C1639 C1636 1.539 . S
C1639 H1653 0.958 . S
C1639 H1654 0.961 . S
C1639 H1655 0.960 . S
H1640 C1624 0.931 . S
H1641 C1629 0.929 . S
H1642 C1630 0.960 . S
H1643 C1630 0.962 . S
H1644 C1630 0.960 . S
H1645 C1631 0.961 . S
H1646 C1631 0.961 . S
H1647 C1631 0.961 . S
H1648 C1632 0.931 . S
H1649 C1637 0.930 . S
H1650 C1638 0.956 . S
H1651 C1638 0.961 . S
H1652 C1638 0.961 . S
H1653 C1639 0.958 . S
H1654 C1639 0.961 . S
H1655 C1639 0.960 . S
C1656 C1657 1.391 . S
C1656 C1658 1.394 . S
C1656 H1672 0.931 . S
C1657 C1656 1.391 . S
C1657 C1661 1.376 . S
C1658 C1656 1.394 . S
C1658 C1659 1.369 . S
C1658 C1662 1.531 . S
C1659 C1658 1.369 . S
C1659 C1660 1.410 . S
C1659 C1667 1.503 . S
C1660 C1659 1.410 . S
C1660 C1661 1.392 . S
C1660 C1663 1.511 . S
C1661 C1657 1.376 . S
C1661 C1660 1.392 . S
C1661 H1673 0.929 . S
C1662 C1658 1.531 . S
C1662 H1674 0.960 . S
C1662 H1675 0.962 . S
C1662 H1676 0.960 . S
C1663 C1660 1.511 . S
C1663 H1677 0.961 . S
C1663 H1678 0.961 . S
C1663 H1679 0.961 . S
C1664 C1665 1.370 . S
C1664 C1666 1.363 . S
C1664 H1680 0.931 . S
C1665 C1664 1.370 . S
C1665 C1669 1.408 . S
C1666 C1664 1.363 . S
C1666 C1667 1.370 . S
C1666 C1670 1.524 . S
C1667 C1659 1.503 . S
C1667 C1666 1.370 . S
C1667 C1668 1.403 . S
C1668 C1667 1.403 . S
C1668 C1669 1.404 . S
C1668 C1671 1.539 . S
C1669 C1665 1.408 . S
C1669 C1668 1.404 . S
C1669 H1681 0.930 . S
C1670 C1666 1.524 . S
C1670 H1682 0.956 . S
C1670 H1683 0.961 . S
C1670 H1684 0.961 . S
C1671 C1668 1.539 . S
C1671 H1685 0.958 . S
C1671 H1686 0.961 . S
C1671 H1687 0.960 . S
H1672 C1656 0.931 . S
H1673 C1661 0.929 . S
H1674 C1662 0.960 . S
H1675 C1662 0.962 . S
H1676 C1662 0.960 . S
H1677 C1663 0.961 . S
H1678 C1663 0.961 . S
H1679 C1663 0.961 . S
H1680 C1664 0.931 . S
H1681 C1669 0.930 . S
H1682 C1670 0.956 . S
H1683 C1670 0.961 . S
H1684 C1670 0.961 . S
H1685 C1671 0.958 . S
H1686 C1671 0.961 . S
H1687 C1671 0.960 . S
C1688 C1689 1.391 . S
C1688 C1690 1.394 . S
C1688 H1704 0.931 . S
C1689 C1688 1.391 . S
C1689 C1693 1.376 . S
C1690 C1688 1.394 . S
C1690 C1691 1.369 . S
C1690 C1694 1.531 . S
C1691 C1690 1.369 . S
C1691 C1692 1.410 . S
C1691 C1699 1.503 . S
C1692 C1691 1.410 . S
C1692 C1693 1.392 . S
C1692 C1695 1.511 . S
C1693 C1689 1.376 . S
C1693 C1692 1.392 . S
C1693 H1705 0.929 . S
C1694 C1690 1.531 . S
C1694 H1706 0.960 . S
C1694 H1707 0.962 . S
C1694 H1708 0.960 . S
C1695 C1692 1.511 . S
C1695 H1709 0.961 . S
C1695 H1710 0.961 . S
C1695 H1711 0.961 . S
C1696 C1697 1.370 . S
C1696 C1698 1.363 . S
C1696 H1712 0.931 . S
C1697 C1696 1.370 . S
C1697 C1701 1.408 . S
C1698 C1696 1.363 . S
C1698 C1699 1.370 . S
C1698 C1702 1.524 . S
C1699 C1691 1.503 . S
C1699 C1698 1.370 . S
C1699 C1700 1.403 . S
C1700 C1699 1.403 . S
C1700 C1701 1.404 . S
C1700 C1703 1.539 . S
C1701 C1697 1.408 . S
C1701 C1700 1.404 . S
C1701 H1713 0.930 . S
C1702 C1698 1.524 . S
C1702 H1714 0.956 . S
C1702 H1715 0.961 . S
C1702 H1716 0.961 . S
C1703 C1700 1.539 . S
C1703 H1717 0.958 . S
C1703 H1718 0.961 . S
C1703 H1719 0.960 . S
H1704 C1688 0.931 . S
H1705 C1693 0.929 . S
H1706 C1694 0.960 . S
H1707 C1694 0.962 . S
H1708 C1694 0.960 . S
H1709 C1695 0.961 . S
H1710 C1695 0.961 . S
H1711 C1695 0.961 . S
H1712 C1696 0.931 . S
H1713 C1701 0.930 . S
H1714 C1702 0.956 . S
H1715 C1702 0.961 . S
H1716 C1702 0.961 . S
H1717 C1703 0.958 . S
H1718 C1703 0.961 . S
H1719 C1703 0.960 . S
C1720 C1721 1.391 . S
C1720 C1722 1.394 . S
C1720 H1736 0.931 . S
C1721 C1720 1.391 . S
C1721 C1725 1.376 . S
C1722 C1720 1.394 . S
C1722 C1723 1.369 . S
C1722 C1726 1.531 . S
C1723 C1722 1.369 . S
C1723 C1724 1.410 . S
C1723 C1731 1.503 . S
C1724 C1723 1.410 . S
C1724 C1725 1.392 . S
C1724 C1727 1.511 . S
C1725 C1721 1.376 . S
C1725 C1724 1.392 . S
C1725 H1737 0.929 . S
C1726 C1722 1.531 . S
C1726 H1738 0.960 . S
C1726 H1739 0.962 . S
C1726 H1740 0.960 . S
C1727 C1724 1.511 . S
C1727 H1741 0.961 . S
C1727 H1742 0.961 . S
C1727 H1743 0.961 . S
C1728 C1729 1.370 . S
C1728 C1730 1.363 . S
C1728 H1744 0.931 . S
C1729 C1728 1.370 . S
C1729 C1733 1.408 . S
C1730 C1728 1.363 . S
C1730 C1731 1.370 . S
C1730 C1734 1.524 . S
C1731 C1723 1.503 . S
C1731 C1730 1.370 . S
C1731 C1732 1.403 . S
C1732 C1731 1.403 . S
C1732 C1733 1.404 . S
C1732 C1735 1.539 . S
C1733 C1729 1.408 . S
C1733 C1732 1.404 . S
C1733 H1745 0.930 . S
C1734 C1730 1.524 . S
C1734 H1746 0.956 . S
C1734 H1747 0.961 . S
C1734 H1748 0.961 . S
C1735 C1732 1.539 . S
C1735 H1749 0.958 . S
C1735 H1750 0.961 . S
C1735 H1751 0.960 . S
H1736 C1720 0.931 . S
H1737 C1725 0.929 . S
H1738 C1726 0.960 . S
H1739 C1726 0.962 . S
H1740 C1726 0.960 . S
H1741 C1727 0.961 . S
H1742 C1727 0.961 . S
H1743 C1727 0.961 . S
H1744 C1728 0.931 . S
H1745 C1733 0.930 . S
H1746 C1734 0.956 . S
H1747 C1734 0.961 . S
H1748 C1734 0.961 . S
H1749 C1735 0.958 . S
H1750 C1735 0.961 . S
H1751 C1735 0.960 . S
C1752 C1753 1.391 . S
C1752 C1754 1.394 . S
C1752 H1768 0.931 . S
C1753 C1752 1.391 . S
C1753 C1757 1.376 . S
C1754 C1752 1.394 . S
C1754 C1755 1.369 . S
C1754 C1758 1.531 . S
C1755 C1754 1.369 . S
C1755 C1756 1.410 . S
C1755 C1763 1.503 . S
C1756 C1755 1.410 . S
C1756 C1757 1.392 . S
C1756 C1759 1.511 . S
C1757 C1753 1.376 . S
C1757 C1756 1.392 . S
C1757 H1769 0.929 . S
C1758 C1754 1.531 . S
C1758 H1770 0.960 . S
C1758 H1771 0.962 . S
C1758 H1772 0.960 . S
C1759 C1756 1.511 . S
C1759 H1773 0.961 . S
C1759 H1774 0.961 . S
C1759 H1775 0.961 . S
C1760 C1761 1.370 . S
C1760 C1762 1.363 . S
C1760 H1776 0.931 . S
C1761 C1760 1.370 . S
C1761 C1765 1.408 . S
C1762 C1760 1.363 . S
C1762 C1763 1.370 . S
C1762 C1766 1.524 . S
C1763 C1755 1.503 . S
C1763 C1762 1.370 . S
C1763 C1764 1.403 . S
C1764 C1763 1.403 . S
C1764 C1765 1.404 . S
C1764 C1767 1.539 . S
C1765 C1761 1.408 . S
C1765 C1764 1.404 . S
C1765 H1777 0.930 1_556 S
C1766 C1762 1.524 . S
C1766 H1778 0.956 . S
C1766 H1779 0.961 . S
C1766 H1780 0.961 . S
C1767 C1764 1.539 . S
C1767 H1781 0.958 . S
C1767 H1782 0.961 . S
C1767 H1783 0.960 . S
H1768 C1752 0.931 . S
H1769 C1757 0.929 . S
H1770 C1758 0.960 . S
H1771 C1758 0.962 . S
H1772 C1758 0.960 . S
H1773 C1759 0.961 . S
H1774 C1759 0.961 . S
H1775 C1759 0.961 . S
H1776 C1760 0.931 . S
H1777 C1765 0.930 1_554 S
H1778 C1766 0.956 . S
H1779 C1766 0.961 . S
H1780 C1766 0.961 . S
H1781 C1767 0.958 . S
H1782 C1767 0.961 . S
H1783 C1767 0.960 . S
C1784 C1785 1.391 . S
C1784 C1786 1.394 . S
C1784 H1800 0.931 . S
C1785 C1784 1.391 . S
C1785 C1789 1.376 . S
C1786 C1784 1.394 . S
C1786 C1787 1.369 . S
C1786 C1790 1.531 . S
C1787 C1786 1.369 . S
C1787 C1788 1.410 . S
C1787 C1795 1.503 . S
C1788 C1787 1.410 . S
C1788 C1789 1.392 . S
C1788 C1791 1.511 . S
C1789 C1785 1.376 . S
C1789 C1788 1.392 . S
C1789 H1801 0.929 . S
C1790 C1786 1.531 . S
C1790 H1802 0.960 . S
C1790 H1803 0.962 . S
C1790 H1804 0.960 . S
C1791 C1788 1.511 . S
C1791 H1805 0.961 . S
C1791 H1806 0.961 . S
C1791 H1807 0.961 . S
C1792 C1793 1.370 . S
C1792 C1794 1.363 . S
C1792 H1808 0.931 . S
C1793 C1792 1.370 . S
C1793 C1797 1.408 . S
C1794 C1792 1.363 . S
C1794 C1795 1.370 . S
C1794 C1798 1.524 . S
C1795 C1787 1.503 . S
C1795 C1794 1.370 . S
C1795 C1796 1.403 . S
C1796 C1795 1.403 . S
C1796 C1797 1.404 . S
C1796 C1799 1.539 . S
C1797 C1793 1.408 . S
C1797 C1796 1.404 . S
C1797 H1809 0.930 1_556 S
C1798 C1794 1.524 . S
C1798 H1810 0.956 . S
C1798 H1811 0.961 . S
C1798 H1812 0.961 . S
C1799 C1796 1.539 . S
C1799 H1813 0.958 . S
C1799 H1814 0.961 . S
C1799 H1815 0.960 . S
H1800 C1784 0.931 . S
H1801 C1789 0.929 . S
H1802 C1790 0.960 . S
H1803 C1790 0.962 . S
H1804 C1790 0.960 . S
H1805 C1791 0.961 . S
H1806 C1791 0.961 . S
H1807 C1791 0.961 . S
H1808 C1792 0.931 . S
H1809 C1797 0.930 1_554 S
H1810 C1798 0.956 . S
H1811 C1798 0.961 . S
H1812 C1798 0.961 . S
H1813 C1799 0.958 . S
H1814 C1799 0.961 . S
H1815 C1799 0.960 . S
C1816 C1817 1.391 . S
C1816 C1818 1.394 . S
C1816 H1832 0.931 . S
C1817 C1816 1.391 . S
C1817 C1821 1.376 . S
C1818 C1816 1.394 . S
C1818 C1819 1.369 . S
C1818 C1822 1.531 . S
C1819 C1818 1.369 . S
C1819 C1820 1.410 . S
C1819 C1827 1.503 . S
C1820 C1819 1.410 . S
C1820 C1821 1.392 . S
C1820 C1823 1.511 . S
C1821 C1817 1.376 . S
C1821 C1820 1.392 . S
C1821 H1833 0.929 1_556 S
C1822 C1818 1.531 . S
C1822 H1834 0.960 . S
C1822 H1835 0.962 . S
C1822 H1836 0.960 . S
C1823 C1820 1.511 . S
C1823 H1837 0.961 . S
C1823 H1838 0.961 . S
C1823 H1839 0.961 . S
C1824 C1825 1.370 . S
C1824 C1826 1.363 . S
C1824 H1840 0.931 . S
C1825 C1824 1.370 . S
C1825 C1829 1.408 . S
C1826 C1824 1.363 . S
C1826 C1827 1.370 . S
C1826 C1830 1.524 . S
C1827 C1819 1.503 . S
C1827 C1826 1.370 . S
C1827 C1828 1.403 . S
C1828 C1827 1.403 . S
C1828 C1829 1.404 . S
C1828 C1831 1.539 . S
C1829 C1825 1.408 . S
C1829 C1828 1.404 . S
C1829 H1841 0.930 . S
C1830 C1826 1.524 . S
C1830 H1842 0.956 . S
C1830 H1843 0.961 . S
C1830 H1844 0.961 . S
C1831 C1828 1.539 . S
C1831 H1845 0.958 . S
C1831 H1846 0.961 . S
C1831 H1847 0.960 . S
H1832 C1816 0.931 . S
H1833 C1821 0.929 1_554 S
H1834 C1822 0.960 . S
H1835 C1822 0.962 . S
H1836 C1822 0.960 . S
H1837 C1823 0.961 . S
H1838 C1823 0.961 . S
H1839 C1823 0.961 . S
H1840 C1824 0.931 . S
H1841 C1829 0.930 . S
H1842 C1830 0.956 . S
H1843 C1830 0.961 . S
H1844 C1830 0.961 . S
H1845 C1831 0.958 . S
H1846 C1831 0.961 . S
H1847 C1831 0.960 . S
C1848 C1849 1.391 . S
C1848 C1850 1.394 . S
C1848 H1864 0.931 . S
C1849 C1848 1.391 . S
C1849 C1853 1.376 . S
C1850 C1848 1.394 . S
C1850 C1851 1.369 . S
C1850 C1854 1.531 . S
C1851 C1850 1.369 . S
C1851 C1852 1.410 . S
C1851 C1859 1.503 . S
C1852 C1851 1.410 . S
C1852 C1853 1.392 . S
C1852 C1855 1.511 . S
C1853 C1849 1.376 . S
C1853 C1852 1.392 . S
C1853 H1865 0.929 . S
C1854 C1850 1.531 . S
C1854 H1866 0.960 . S
C1854 H1867 0.962 . S
C1854 H1868 0.960 . S
C1855 C1852 1.511 . S
C1855 H1869 0.961 . S
C1855 H1870 0.961 . S
C1855 H1871 0.961 . S
C1856 C1857 1.370 . S
C1856 C1858 1.363 . S
C1856 H1872 0.931 . S
C1857 C1856 1.370 . S
C1857 C1861 1.408 . S
C1858 C1856 1.363 . S
C1858 C1859 1.370 . S
C1858 C1862 1.524 . S
C1859 C1851 1.503 . S
C1859 C1858 1.370 . S
C1859 C1860 1.403 . S
C1860 C1859 1.403 . S
C1860 C1861 1.404 . S
C1860 C1863 1.539 . S
C1861 C1857 1.408 . S
C1861 C1860 1.404 . S
C1861 H1873 0.930 . S
C1862 C1858 1.524 . S
C1862 H1874 0.956 . S
C1862 H1875 0.961 . S
C1862 H1876 0.961 . S
C1863 C1860 1.539 . S
C1863 H1877 0.958 . S
C1863 H1878 0.961 . S
C1863 H1879 0.960 . S
H1864 C1848 0.931 . S
H1865 C1853 0.929 . S
H1866 C1854 0.960 . S
H1867 C1854 0.962 . S
H1868 C1854 0.960 . S
H1869 C1855 0.961 . S
H1870 C1855 0.961 . S
H1871 C1855 0.961 . S
H1872 C1856 0.931 . S
H1873 C1861 0.930 . S
H1874 C1862 0.956 . S
H1875 C1862 0.961 . S
H1876 C1862 0.961 . S
H1877 C1863 0.958 . S
H1878 C1863 0.961 . S
H1879 C1863 0.960 . S
C1880 C1881 1.391 . S
C1880 C1882 1.394 . S
C1880 H1896 0.931 . S
C1881 C1880 1.391 . S
C1881 C1885 1.376 . S
C1882 C1880 1.394 . S
C1882 C1883 1.369 . S
C1882 C1886 1.531 . S
C1883 C1882 1.369 . S
C1883 C1884 1.410 . S
C1883 C1891 1.503 . S
C1884 C1883 1.410 . S
C1884 C1885 1.392 . S
C1884 C1887 1.511 . S
C1885 C1881 1.376 . S
C1885 C1884 1.392 . S
C1885 H1897 0.929 . S
C1886 C1882 1.531 . S
C1886 H1898 0.960 . S
C1886 H1899 0.962 . S
C1886 H1900 0.960 . S
C1887 C1884 1.511 . S
C1887 H1901 0.961 . S
C1887 H1902 0.961 . S
C1887 H1903 0.961 . S
C1888 C1889 1.370 . S
C1888 C1890 1.363 . S
C1888 H1904 0.931 . S
C1889 C1888 1.370 . S
C1889 C1893 1.408 . S
C1890 C1888 1.363 . S
C1890 C1891 1.370 . S
C1890 C1894 1.524 . S
C1891 C1883 1.503 . S
C1891 C1890 1.370 . S
C1891 C1892 1.403 . S
C1892 C1891 1.403 . S
C1892 C1893 1.404 . S
C1892 C1895 1.539 . S
C1893 C1889 1.408 . S
C1893 C1892 1.404 . S
C1893 H1905 0.930 . S
C1894 C1890 1.524 . S
C1894 H1906 0.956 . S
C1894 H1907 0.961 . S
C1894 H1908 0.961 . S
C1895 C1892 1.539 . S
C1895 H1909 0.958 . S
C1895 H1910 0.961 . S
C1895 H1911 0.960 . S
H1896 C1880 0.931 . S
H1897 C1885 0.929 . S
H1898 C1886 0.960 . S
H1899 C1886 0.962 . S
H1900 C1886 0.960 . S
H1901 C1887 0.961 . S
H1902 C1887 0.961 . S
H1903 C1887 0.961 . S
H1904 C1888 0.931 . S
H1905 C1893 0.930 . S
H1906 C1894 0.956 . S
H1907 C1894 0.961 . S
H1908 C1894 0.961 . S
H1909 C1895 0.958 . S
H1910 C1895 0.961 . S
H1911 C1895 0.960 . S
C1912 C1913 1.391 . S
C1912 C1914 1.394 . S
C1912 H1928 0.931 . S
C1913 C1912 1.391 . S
C1913 C1917 1.376 . S
C1914 C1912 1.394 . S
C1914 C1915 1.369 . S
C1914 C1918 1.531 . S
C1915 C1914 1.369 . S
C1915 C1916 1.410 . S
C1915 C1923 1.503 . S
C1916 C1915 1.410 . S
C1916 C1917 1.392 . S
C1916 C1919 1.511 . S
C1917 C1913 1.376 . S
C1917 C1916 1.392 . S
C1917 H1929 0.929 . S
C1918 C1914 1.531 . S
C1918 H1930 0.960 . S
C1918 H1931 0.962 . S
C1918 H1932 0.960 . S
C1919 C1916 1.511 . S
C1919 H1933 0.961 . S
C1919 H1934 0.961 . S
C1919 H1935 0.961 . S
C1920 C1921 1.370 . S
C1920 C1922 1.363 . S
C1920 H1936 0.931 . S
C1921 C1920 1.370 . S
C1921 C1925 1.408 . S
C1922 C1920 1.363 . S
C1922 C1923 1.370 . S
C1922 C1926 1.524 . S
C1923 C1915 1.503 . S
C1923 C1922 1.370 . S
C1923 C1924 1.403 . S
C1924 C1923 1.403 . S
C1924 C1925 1.404 . S
C1924 C1927 1.539 . S
C1925 C1921 1.408 . S
C1925 C1924 1.404 . S
C1925 H1937 0.930 . S
C1926 C1922 1.524 . S
C1926 H1938 0.956 . S
C1926 H1939 0.961 . S
C1926 H1940 0.961 . S
C1927 C1924 1.539 . S
C1927 H1941 0.958 . S
C1927 H1942 0.961 . S
C1927 H1943 0.960 . S
H1928 C1912 0.931 . S
H1929 C1917 0.929 . S
H1930 C1918 0.960 . S
H1931 C1918 0.962 . S
H1932 C1918 0.960 . S
H1933 C1919 0.961 . S
H1934 C1919 0.961 . S
H1935 C1919 0.961 . S
H1936 C1920 0.931 . S
H1937 C1925 0.930 . S
H1938 C1926 0.956 . S
H1939 C1926 0.961 . S
H1940 C1926 0.961 . S
H1941 C1927 0.958 . S
H1942 C1927 0.961 . S
H1943 C1927 0.960 . S
C1944 C1945 1.391 . S
C1944 C1946 1.394 . S
C1944 H1960 0.931 . S
C1945 C1944 1.391 . S
C1945 C1949 1.376 . S
C1946 C1944 1.394 . S
C1946 C1947 1.369 . S
C1946 C1950 1.531 . S
C1947 C1946 1.369 . S
C1947 C1948 1.410 . S
C1947 C1955 1.503 . S
C1948 C1947 1.410 . S
C1948 C1949 1.392 . S
C1948 C1951 1.511 . S
C1949 C1945 1.376 . S
C1949 C1948 1.392 . S
C1949 H1961 0.929 . S
C1950 C1946 1.531 . S
C1950 H1962 0.960 . S
C1950 H1963 0.962 . S
C1950 H1964 0.960 . S
C1951 C1948 1.511 . S
C1951 H1965 0.961 . S
C1951 H1966 0.961 . S
C1951 H1967 0.961 . S
C1952 C1953 1.370 . S
C1952 C1954 1.363 . S
C1952 H1968 0.931 . S
C1953 C1952 1.370 . S
C1953 C1957 1.408 . S
C1954 C1952 1.363 . S
C1954 C1955 1.370 . S
C1954 C1958 1.524 . S
C1955 C1947 1.503 . S
C1955 C1954 1.370 . S
C1955 C1956 1.403 . S
C1956 C1955 1.403 . S
C1956 C1957 1.404 . S
C1956 C1959 1.539 . S
C1957 C1953 1.408 . S
C1957 C1956 1.404 . S
C1957 H1969 0.930 . S
C1958 C1954 1.524 . S
C1958 H1970 0.956 . S
C1958 H1971 0.961 . S
C1958 H1972 0.961 . S
C1959 C1956 1.539 . S
C1959 H1973 0.958 . S
C1959 H1974 0.961 . S
C1959 H1975 0.960 . S
H1960 C1944 0.931 . S
H1961 C1949 0.929 . S
H1962 C1950 0.960 . S
H1963 C1950 0.962 . S
H1964 C1950 0.960 . S
H1965 C1951 0.961 . S
H1966 C1951 0.961 . S
H1967 C1951 0.961 . S
H1968 C1952 0.931 . S
H1969 C1957 0.930 . S
H1970 C1958 0.956 . S
H1971 C1958 0.961 . S
H1972 C1958 0.961 . S
H1973 C1959 0.958 . S
H1974 C1959 0.961 . S
H1975 C1959 0.960 . S
C1976 C1977 1.391 . S
C1976 C1978 1.394 . S
C1976 H1992 0.931 . S
C1977 C1976 1.391 . S
C1977 C1981 1.376 . S
C1978 C1976 1.394 . S
C1978 C1979 1.369 . S
C1978 C1982 1.531 . S
C1979 C1978 1.369 . S
C1979 C1980 1.410 . S
C1979 C1987 1.503 . S
C1980 C1979 1.410 . S
C1980 C1981 1.392 . S
C1980 C1983 1.511 . S
C1981 C1977 1.376 . S
C1981 C1980 1.392 . S
C1981 H1993 0.929 . S
C1982 C1978 1.531 . S
C1982 H1994 0.960 . S
C1982 H1995 0.962 . S
C1982 H1996 0.960 . S
C1983 C1980 1.511 . S
C1983 H1997 0.961 . S
C1983 H1998 0.961 . S
C1983 H1999 0.961 . S
C1984 C1985 1.370 . S
C1984 C1986 1.363 . S
C1984 H2000 0.931 . S
C1985 C1984 1.370 . S
C1985 C1989 1.408 . S
C1986 C1984 1.363 . S
C1986 C1987 1.370 . S
C1986 C1990 1.524 . S
C1987 C1979 1.503 . S
C1987 C1986 1.370 . S
C1987 C1988 1.403 . S
C1988 C1987 1.403 . S
C1988 C1989 1.404 . S
C1988 C1991 1.539 . S
C1989 C1985 1.408 . S
C1989 C1988 1.404 . S
C1989 H2001 0.930 . S
C1990 C1986 1.524 . S
C1990 H2002 0.956 . S
C1990 H2003 0.961 . S
C1990 H2004 0.961 . S
C1991 C1988 1.539 . S
C1991 H2005 0.958 . S
C1991 H2006 0.961 . S
C1991 H2007 0.960 . S
H1992 C1976 0.931 . S
H1993 C1981 0.929 . S
H1994 C1982 0.960 . S
H1995 C1982 0.962 . S
H1996 C1982 0.960 . S
H1997 C1983 0.961 . S
H1998 C1983 0.961 . S
H1999 C1983 0.961 . S
H2000 C1984 0.931 . S
H2001 C1989 0.930 . S
H2002 C1990 0.956 . S
H2003 C1990 0.961 . S
H2004 C1990 0.961 . S
H2005 C1991 0.958 . S
H2006 C1991 0.961 . S
H2007 C1991 0.960 . S
C2008 C2009 1.391 . S
C2008 C2010 1.394 . S
C2008 H2024 0.931 . S
C2009 C2008 1.391 . S
C2009 C2013 1.376 . S
C2010 C2008 1.394 . S
C2010 C2011 1.369 . S
C2010 C2014 1.531 . S
C2011 C2010 1.369 . S
C2011 C2012 1.410 . S
C2011 C2019 1.503 . S
C2012 C2011 1.410 . S
C2012 C2013 1.392 . S
C2012 C2015 1.511 . S
C2013 C2009 1.376 . S
C2013 C2012 1.392 . S
C2013 H2025 0.929 . S
C2014 C2010 1.531 . S
C2014 H2026 0.960 . S
C2014 H2027 0.962 . S
C2014 H2028 0.960 . S
C2015 C2012 1.511 . S
C2015 H2029 0.961 . S
C2015 H2030 0.961 . S
C2015 H2031 0.961 . S
C2016 C2017 1.370 . S
C2016 C2018 1.363 . S
C2016 H2032 0.931 . S
C2017 C2016 1.370 . S
C2017 C2021 1.408 . S
C2018 C2016 1.363 . S
C2018 C2019 1.370 . S
C2018 C2022 1.524 . S
C2019 C2011 1.503 . S
C2019 C2018 1.370 . S
C2019 C2020 1.403 . S
C2020 C2019 1.403 . S
C2020 C2021 1.404 . S
C2020 C2023 1.539 . S
C2021 C2017 1.408 . S
C2021 C2020 1.404 . S
C2021 H2033 0.930 . S
C2022 C2018 1.524 . S
C2022 H2034 0.956 . S
C2022 H2035 0.961 . S
C2022 H2036 0.961 . S
C2023 C2020 1.539 . S
C2023 H2037 0.958 . S
C2023 H2038 0.961 . S
C2023 H2039 0.960 . S
H2024 C2008 0.931 . S
H2025 C2013 0.929 . S
H2026 C2014 0.960 . S
H2027 C2014 0.962 . S
H2028 C2014 0.960 . S
H2029 C2015 0.961 . S
H2030 C2015 0.961 . S
H2031 C2015 0.961 . S
H2032 C2016 0.931 . S
H2033 C2021 0.930 . S
H2034 C2022 0.956 . S
H2035 C2022 0.961 . S
H2036 C2022 0.961 . S
H2037 C2023 0.958 . S
H2038 C2023 0.961 . S
H2039 C2023 0.960 . S
C2040 C2041 1.391 . S
C2040 C2042 1.394 . S
C2040 H2056 0.931 . S
C2041 C2040 1.391 . S
C2041 C2045 1.376 . S
C2042 C2040 1.394 . S
C2042 C2043 1.369 . S
C2042 C2046 1.531 . S
C2043 C2042 1.369 . S
C2043 C2044 1.410 . S
C2043 C2051 1.503 . S
C2044 C2043 1.410 . S
C2044 C2045 1.392 . S
C2044 C2047 1.511 . S
C2045 C2041 1.376 . S
C2045 C2044 1.392 . S
C2045 H2057 0.929 . S
C2046 C2042 1.531 . S
C2046 H2058 0.960 . S
C2046 H2059 0.962 . S
C2046 H2060 0.960 . S
C2047 C2044 1.511 . S
C2047 H2061 0.961 . S
C2047 H2062 0.961 . S
C2047 H2063 0.961 . S
C2048 C2049 1.370 . S
C2048 C2050 1.363 . S
C2048 H2064 0.931 . S
C2049 C2048 1.370 . S
C2049 C2053 1.408 . S
C2050 C2048 1.363 . S
C2050 C2051 1.370 . S
C2050 C2054 1.524 . S
C2051 C2043 1.503 . S
C2051 C2050 1.370 . S
C2051 C2052 1.403 . S
C2052 C2051 1.403 . S
C2052 C2053 1.404 . S
C2052 C2055 1.539 . S
C2053 C2049 1.408 . S
C2053 C2052 1.404 . S
C2053 H2065 0.930 . S
C2054 C2050 1.524 . S
C2054 H2066 0.956 . S
C2054 H2067 0.961 . S
C2054 H2068 0.961 . S
C2055 C2052 1.539 . S
C2055 H2069 0.958 . S
C2055 H2070 0.961 . S
C2055 H2071 0.960 . S
H2056 C2040 0.931 . S
H2057 C2045 0.929 . S
H2058 C2046 0.960 . S
H2059 C2046 0.962 . S
H2060 C2046 0.960 . S
H2061 C2047 0.961 . S
H2062 C2047 0.961 . S
H2063 C2047 0.961 . S
H2064 C2048 0.931 . S
H2065 C2053 0.930 . S
H2066 C2054 0.956 . S
H2067 C2054 0.961 . S
H2068 C2054 0.961 . S
H2069 C2055 0.958 . S
H2070 C2055 0.961 . S
H2071 C2055 0.960 . S
C2072 C2073 1.391 . S
C2072 C2074 1.394 . S
C2072 H2088 0.931 . S
C2073 C2072 1.391 . S
C2073 C2077 1.376 . S
C2074 C2072 1.394 . S
C2074 C2075 1.369 . S
C2074 C2078 1.531 . S
C2075 C2074 1.369 . S
C2075 C2076 1.410 . S
C2075 C2083 1.503 . S
C2076 C2075 1.410 . S
C2076 C2077 1.392 . S
C2076 C2079 1.511 . S
C2077 C2073 1.376 . S
C2077 C2076 1.392 . S
C2077 H2089 0.929 . S
C2078 C2074 1.531 . S
C2078 H2090 0.960 . S
C2078 H2091 0.962 . S
C2078 H2092 0.960 . S
C2079 C2076 1.511 . S
C2079 H2093 0.961 . S
C2079 H2094 0.961 . S
C2079 H2095 0.961 . S
C2080 C2081 1.370 . S
C2080 C2082 1.363 . S
C2080 H2096 0.931 . S
C2081 C2080 1.370 . S
C2081 C2085 1.408 . S
C2082 C2080 1.363 . S
C2082 C2083 1.370 . S
C2082 C2086 1.524 . S
C2083 C2075 1.503 . S
C2083 C2082 1.370 . S
C2083 C2084 1.403 . S
C2084 C2083 1.403 . S
C2084 C2085 1.404 . S
C2084 C2087 1.539 . S
C2085 C2081 1.408 . S
C2085 C2084 1.404 . S
C2085 H2097 0.930 . S
C2086 C2082 1.524 . S
C2086 H2098 0.956 . S
C2086 H2099 0.961 . S
C2086 H2100 0.961 . S
C2087 C2084 1.539 . S
C2087 H2101 0.958 . S
C2087 H2102 0.961 . S
C2087 H2103 0.960 . S
H2088 C2072 0.931 . S
H2089 C2077 0.929 . S
H2090 C2078 0.960 . S
H2091 C2078 0.962 . S
H2092 C2078 0.960 . S
H2093 C2079 0.961 . S
H2094 C2079 0.961 . S
H2095 C2079 0.961 . S
H2096 C2080 0.931 . S
H2097 C2085 0.930 . S
H2098 C2086 0.956 . S
H2099 C2086 0.961 . S
H2100 C2086 0.961 . S
H2101 C2087 0.958 . S
H2102 C2087 0.961 . S
H2103 C2087 0.960 . S
C2104 C2105 1.391 . S
C2104 C2106 1.394 . S
C2104 H2120 0.931 . S
C2105 C2104 1.391 . S
C2105 C2109 1.376 . S
C2106 C2104 1.394 . S
C2106 C2107 1.369 . S
C2106 C2110 1.531 . S
C2107 C2106 1.369 . S
C2107 C2108 1.410 . S
C2107 C2115 1.503 . S
C2108 C2107 1.410 . S
C2108 C2109 1.392 . S
C2108 C2111 1.511 . S
C2109 C2105 1.376 . S
C2109 C2108 1.392 . S
C2109 H2121 0.929 . S
C2110 C2106 1.531 . S
C2110 H2122 0.960 . S
C2110 H2123 0.962 . S
C2110 H2124 0.960 . S
C2111 C2108 1.511 . S
C2111 H2125 0.961 . S
C2111 H2126 0.961 . S
C2111 H2127 0.961 . S
C2112 C2113 1.370 . S
C2112 C2114 1.363 . S
C2112 H2128 0.931 . S
C2113 C2112 1.370 . S
C2113 C2117 1.408 . S
C2114 C2112 1.363 . S
C2114 C2115 1.370 . S
C2114 C2118 1.524 . S
C2115 C2107 1.503 . S
C2115 C2114 1.370 . S
C2115 C2116 1.403 . S
C2116 C2115 1.403 . S
C2116 C2117 1.404 . S
C2116 C2119 1.539 . S
C2117 C2113 1.408 . S
C2117 C2116 1.404 . S
C2117 H2129 0.930 . S
C2118 C2114 1.524 . S
C2118 H2130 0.956 . S
C2118 H2131 0.961 . S
C2118 H2132 0.961 . S
C2119 C2116 1.539 . S
C2119 H2133 0.958 . S
C2119 H2134 0.961 . S
C2119 H2135 0.960 . S
H2120 C2104 0.931 . S
H2121 C2109 0.929 . S
H2122 C2110 0.960 . S
H2123 C2110 0.962 . S
H2124 C2110 0.960 . S
H2125 C2111 0.961 . S
H2126 C2111 0.961 . S
H2127 C2111 0.961 . S
H2128 C2112 0.931 . S
H2129 C2117 0.930 . S
H2130 C2118 0.956 . S
H2131 C2118 0.961 . S
H2132 C2118 0.961 . S
H2133 C2119 0.958 . S
H2134 C2119 0.961 . S
H2135 C2119 0.960 . S
C2136 C2137 1.391 . S
C2136 C2138 1.394 . S
C2136 H2152 0.931 . S
C2137 C2136 1.391 . S
C2137 C2141 1.376 . S
C2138 C2136 1.394 . S
C2138 C2139 1.369 . S
C2138 C2142 1.531 . S
C2139 C2138 1.369 . S
C2139 C2140 1.410 . S
C2139 C2147 1.503 . S
C2140 C2139 1.410 . S
C2140 C2141 1.392 . S
C2140 C2143 1.511 . S
C2141 C2137 1.376 . S
C2141 C2140 1.392 . S
C2141 H2153 0.929 . S
C2142 C2138 1.531 . S
C2142 H2154 0.960 . S
C2142 H2155 0.962 . S
C2142 H2156 0.960 . S
C2143 C2140 1.511 . S
C2143 H2157 0.961 . S
C2143 H2158 0.961 . S
C2143 H2159 0.961 . S
C2144 C2145 1.370 . S
C2144 C2146 1.363 . S
C2144 H2160 0.931 . S
C2145 C2144 1.370 . S
C2145 C2149 1.408 . S
C2146 C2144 1.363 . S
C2146 C2147 1.370 . S
C2146 C2150 1.524 . S
C2147 C2139 1.503 . S
C2147 C2146 1.370 . S
C2147 C2148 1.403 . S
C2148 C2147 1.403 . S
C2148 C2149 1.404 . S
C2148 C2151 1.539 . S
C2149 C2145 1.408 . S
C2149 C2148 1.404 . S
C2149 H2161 0.930 . S
C2150 C2146 1.524 . S
C2150 H2162 0.956 . S
C2150 H2163 0.961 . S
C2150 H2164 0.961 . S
C2151 C2148 1.539 . S
C2151 H2165 0.958 . S
C2151 H2166 0.961 . S
C2151 H2167 0.960 . S
H2152 C2136 0.931 . S
H2153 C2141 0.929 . S
H2154 C2142 0.960 . S
H2155 C2142 0.962 . S
H2156 C2142 0.960 . S
H2157 C2143 0.961 . S
H2158 C2143 0.961 . S
H2159 C2143 0.961 . S
H2160 C2144 0.931 . S
H2161 C2149 0.930 . S
H2162 C2150 0.956 . S
H2163 C2150 0.961 . S
H2164 C2150 0.961 . S
H2165 C2151 0.958 . S
H2166 C2151 0.961 . S
H2167 C2151 0.960 . S
C2168 C2169 1.391 . S
C2168 C2170 1.394 . S
C2168 H2184 0.931 . S
C2169 C2168 1.391 . S
C2169 C2173 1.376 . S
C2170 C2168 1.394 . S
C2170 C2171 1.369 . S
C2170 C2174 1.531 . S
C2171 C2170 1.369 . S
C2171 C2172 1.410 . S
C2171 C2179 1.503 . S
C2172 C2171 1.410 . S
C2172 C2173 1.392 . S
C2172 C2175 1.511 . S
C2173 C2169 1.376 . S
C2173 C2172 1.392 . S
C2173 H2185 0.929 . S
C2174 C2170 1.531 . S
C2174 H2186 0.960 . S
C2174 H2187 0.962 . S
C2174 H2188 0.960 . S
C2175 C2172 1.511 . S
C2175 H2189 0.961 . S
C2175 H2190 0.961 . S
C2175 H2191 0.961 . S
C2176 C2177 1.370 . S
C2176 C2178 1.363 . S
C2176 H2192 0.931 . S
C2177 C2176 1.370 . S
C2177 C2181 1.408 . S
C2178 C2176 1.363 . S
C2178 C2179 1.370 . S
C2178 C2182 1.524 . S
C2179 C2171 1.503 . S
C2179 C2178 1.370 . S
C2179 C2180 1.403 . S
C2180 C2179 1.403 . S
C2180 C2181 1.404 . S
C2180 C2183 1.539 . S
C2181 C2177 1.408 . S
C2181 C2180 1.404 . S
C2181 H2193 0.930 . S
C2182 C2178 1.524 . S
C2182 H2194 0.956 . S
C2182 H2195 0.961 . S
C2182 H2196 0.961 . S
C2183 C2180 1.539 . S
C2183 H2197 0.958 . S
C2183 H2198 0.961 . S
C2183 H2199 0.960 . S
H2184 C2168 0.931 . S
H2185 C2173 0.929 . S
H2186 C2174 0.960 . S
H2187 C2174 0.962 . S
H2188 C2174 0.960 . S
H2189 C2175 0.961 . S
H2190 C2175 0.961 . S
H2191 C2175 0.961 . S
H2192 C2176 0.931 . S
H2193 C2181 0.930 . S
H2194 C2182 0.956 . S
H2195 C2182 0.961 . S
H2196 C2182 0.961 . S
H2197 C2183 0.958 . S
H2198 C2183 0.961 . S
H2199 C2183 0.960 . S
C2200 C2201 1.391 . S
C2200 C2202 1.394 . S
C2200 H2216 0.931 . S
C2201 C2200 1.391 . S
C2201 C2205 1.376 . S
C2202 C2200 1.394 . S
C2202 C2203 1.369 . S
C2202 C2206 1.531 . S
C2203 C2202 1.369 . S
C2203 C2204 1.410 . S
C2203 C2211 1.503 . S
C2204 C2203 1.410 . S
C2204 C2205 1.392 . S
C2204 C2207 1.511 . S
C2205 C2201 1.376 . S
C2205 C2204 1.392 . S
C2205 H2217 0.929 . S
C2206 C2202 1.531 . S
C2206 H2218 0.960 . S
C2206 H2219 0.962 . S
C2206 H2220 0.960 . S
C2207 C2204 1.511 . S
C2207 H2221 0.961 . S
C2207 H2222 0.961 . S
C2207 H2223 0.961 . S
C2208 C2209 1.370 . S
C2208 C2210 1.363 . S
C2208 H2224 0.931 . S
C2209 C2208 1.370 . S
C2209 C2213 1.408 . S
C2210 C2208 1.363 . S
C2210 C2211 1.370 . S
C2210 C2214 1.524 . S
C2211 C2203 1.503 . S
C2211 C2210 1.370 . S
C2211 C2212 1.403 . S
C2212 C2211 1.403 . S
C2212 C2213 1.404 . S
C2212 C2215 1.539 . S
C2213 C2209 1.408 . S
C2213 C2212 1.404 . S
C2213 H2225 0.930 . S
C2214 C2210 1.524 . S
C2214 H2226 0.956 . S
C2214 H2227 0.961 . S
C2214 H2228 0.961 . S
C2215 C2212 1.539 . S
C2215 H2229 0.958 . S
C2215 H2230 0.961 . S
C2215 H2231 0.960 . S
H2216 C2200 0.931 . S
H2217 C2205 0.929 . S
H2218 C2206 0.960 . S
H2219 C2206 0.962 . S
H2220 C2206 0.960 . S
H2221 C2207 0.961 . S
H2222 C2207 0.961 . S
H2223 C2207 0.961 . S
H2224 C2208 0.931 . S
H2225 C2213 0.930 . S
H2226 C2214 0.956 . S
H2227 C2214 0.961 . S
H2228 C2214 0.961 . S
H2229 C2215 0.958 . S
H2230 C2215 0.961 . S
H2231 C2215 0.960 . S
C2232 C2233 1.391 1_554 S
C2232 C2234 1.394 . S
C2232 H2248 0.931 1_554 S
C2233 C2232 1.391 1_556 S
C2233 C2237 1.376 1_556 S
C2234 C2232 1.394 . S
C2234 C2235 1.369 . S
C2234 C2238 1.531 . S
C2235 C2234 1.369 . S
C2235 C2236 1.410 . S
C2235 C2243 1.503 . S
C2236 C2235 1.410 . S
C2236 C2237 1.392 . S
C2236 C2239 1.511 . S
C2237 C2233 1.376 1_554 S
C2237 C2236 1.392 . S
C2237 H2249 0.929 . S
C2238 C2234 1.531 . S
C2238 H2250 0.960 . S
C2238 H2251 0.962 . S
C2238 H2252 0.960 . S
C2239 C2236 1.511 . S
C2239 H2253 0.961 . S
C2239 H2254 0.961 . S
C2239 H2255 0.961 . S
C2240 C2241 1.370 . S
C2240 C2242 1.363 . S
C2240 H2256 0.931 . S
C2241 C2240 1.370 . S
C2241 C2245 1.408 . S
C2242 C2240 1.363 . S
C2242 C2243 1.370 . S
C2242 C2246 1.524 . S
C2243 C2235 1.503 . S
C2243 C2242 1.370 . S
C2243 C2244 1.403 . S
C2244 C2243 1.403 . S
C2244 C2245 1.404 . S
C2244 C2247 1.539 . S
C2245 C2241 1.408 . S
C2245 C2244 1.404 . S
C2245 H2257 0.930 . S
C2246 C2242 1.524 . S
C2246 H2258 0.956 . S
C2246 H2259 0.961 . S
C2246 H2260 0.961 . S
C2247 C2244 1.539 . S
C2247 H2261 0.958 1_554 S
C2247 H2262 0.958 1_554 S
C2247 H2263 0.960 1_554 S
H2248 C2232 0.931 1_556 S
H2249 C2237 0.929 . S
H2250 C2238 0.960 . S
H2251 C2238 0.962 . S
H2252 C2238 0.960 . S
H2253 C2239 0.961 . S
H2254 C2239 0.961 . S
H2255 C2239 0.961 . S
H2256 C2240 0.931 . S
H2257 C2245 0.930 . S
H2258 C2246 0.956 . S
H2259 C2246 0.961 . S
H2260 C2246 0.961 . S
H2261 C2247 0.958 1_556 S
H2262 C2247 0.958 1_556 S
H2263 C2247 0.960 1_556 S
C2264 C2265 1.391 . S
C2264 C2266 1.394 . S
C2264 H2280 0.931 . S
C2265 C2264 1.391 . S
C2265 C2269 1.376 . S
C2266 C2264 1.394 . S
C2266 C2267 1.369 . S
C2266 C2270 1.531 . S
C2267 C2266 1.369 . S
C2267 C2268 1.410 . S
C2267 C2275 1.503 . S
C2268 C2267 1.410 . S
C2268 C2269 1.392 . S
C2268 C2271 1.511 . S
C2269 C2265 1.376 . S
C2269 C2268 1.392 . S
C2269 H2281 0.929 . S
C2270 C2266 1.531 . S
C2270 H2282 0.960 . S
C2270 H2283 0.962 . S
C2270 H2284 0.960 . S
C2271 C2268 1.511 . S
C2271 H2285 0.961 . S
C2271 H2286 0.961 . S
C2271 H2287 0.961 . S
C2272 C2273 1.370 . S
C2272 C2274 1.363 . S
C2272 H2288 0.931 1_554 S
C2273 C2272 1.370 . S
C2273 C2277 1.408 . S
C2274 C2272 1.363 . S
C2274 C2275 1.370 . S
C2274 C2278 1.524 . S
C2275 C2267 1.503 . S
C2275 C2274 1.370 . S
C2275 C2276 1.403 . S
C2276 C2275 1.403 . S
C2276 C2277 1.404 . S
C2276 C2279 1.539 . S
C2277 C2273 1.408 . S
C2277 C2276 1.404 . S
C2277 H2289 0.930 . S
C2278 C2274 1.524 . S
C2278 H2290 0.956 . S
C2278 H2291 0.961 . S
C2278 H2292 0.961 . S
C2279 C2276 1.539 . S
C2279 H2293 0.958 . S
C2279 H2294 0.961 . S
C2279 H2295 0.960 . S
H2280 C2264 0.931 . S
H2281 C2269 0.929 . S
H2282 C2270 0.960 . S
H2283 C2270 0.962 . S
H2284 C2270 0.960 . S
H2285 C2271 0.961 . S
H2286 C2271 0.961 . S
H2287 C2271 0.961 . S
H2288 C2272 0.931 1_556 S
H2289 C2277 0.930 . S
H2290 C2278 0.956 . S
H2291 C2278 0.961 . S
H2292 C2278 0.961 . S
H2293 C2279 0.958 . S
H2294 C2279 0.961 . S
H2295 C2279 0.960 . S
C2296 C2297 1.388 1_554 S
C2296 C2298 1.394 . S
C2296 H2312 0.931 . S
C2297 C2296 1.388 1_556 S
C2297 C2301 1.377 . S
C2298 C2296 1.394 . S
C2298 C2299 1.369 . S
C2298 C2302 1.531 . S
C2299 C2298 1.369 . S
C2299 C2300 1.410 . S
C2299 C2307 1.503 . S
C2300 C2299 1.410 . S
C2300 C2301 1.392 1_554 S
C2300 C2303 1.511 1_554 S
C2301 C2297 1.377 . S
C2301 C2300 1.392 1_556 S
C2301 H2313 0.929 . S
C2302 C2298 1.531 . S
C2302 H2314 0.960 . S
C2302 H2315 0.962 . S
C2302 H2316 0.960 . S
C2303 C2300 1.511 1_556 S
C2303 H2317 0.961 . S
C2303 H2318 0.961 1_556 S
C2303 H2319 0.961 . S
C2304 C2305 1.370 . S
C2304 C2306 1.363 . S
C2304 H2320 0.931 . S
C2305 C2304 1.370 . S
C2305 C2309 1.408 . S
C2306 C2304 1.363 . S
C2306 C2307 1.370 . S
C2306 C2310 1.524 . S
C2307 C2299 1.503 . S
C2307 C2306 1.370 . S
C2307 C2308 1.403 . S
C2308 C2307 1.403 . S
C2308 C2309 1.404 . S
C2308 C2311 1.539 . S
C2309 C2305 1.408 . S
C2309 C2308 1.404 . S
C2309 H2321 0.930 . S
C2310 C2306 1.524 . S
C2310 H2322 0.956 . S
C2310 H2323 0.961 . S
C2310 H2324 0.961 . S
C2311 C2308 1.539 . S
C2311 H2325 0.958 . S
C2311 H2326 0.961 . S
C2311 H2327 0.960 . S
H2312 C2296 0.931 . S
H2313 C2301 0.929 . S
H2314 C2302 0.960 . S
H2315 C2302 0.962 . S
H2316 C2302 0.960 . S
H2317 C2303 0.961 . S
H2318 C2303 0.961 1_554 S
H2319 C2303 0.961 . S
H2320 C2304 0.931 . S
H2321 C2309 0.930 . S
H2322 C2310 0.956 . S
H2323 C2310 0.961 . S
H2324 C2310 0.961 . S
H2325 C2311 0.958 . S
H2326 C2311 0.961 . S
H2327 C2311 0.960 . S
C2328 C2329 1.391 . S
C2328 C2330 1.394 . S
C2328 H2344 0.931 . S
C2329 C2328 1.391 . S
C2329 C2333 1.376 . S
C2330 C2328 1.394 . S
C2330 C2331 1.369 . S
C2330 C2334 1.531 . S
C2331 C2330 1.369 . S
C2331 C2332 1.410 . S
C2331 C2339 1.503 . S
C2332 C2331 1.410 . S
C2332 C2333 1.392 . S
C2332 C2335 1.511 . S
C2333 C2329 1.376 . S
C2333 C2332 1.392 . S
C2333 H2345 0.929 . S
C2334 C2330 1.531 . S
C2334 H2346 0.960 . S
C2334 H2347 0.962 . S
C2334 H2348 0.960 . S
C2335 C2332 1.511 . S
C2335 H2349 0.961 . S
C2335 H2350 0.961 . S
C2335 H2351 0.961 . S
C2336 C2337 1.370 . S
C2336 C2338 1.363 . S
C2336 H2352 0.931 . S
C2337 C2336 1.370 . S
C2337 C2341 1.408 . S
C2338 C2336 1.363 . S
C2338 C2339 1.370 . S
C2338 C2342 1.524 . S
C2339 C2331 1.503 . S
C2339 C2338 1.370 . S
C2339 C2340 1.403 . S
C2340 C2339 1.403 . S
C2340 C2341 1.404 . S
C2340 C2343 1.539 . S
C2341 C2337 1.408 . S
C2341 C2340 1.404 . S
C2341 H2353 0.930 . S
C2342 C2338 1.524 . S
C2342 H2354 0.956 . S
C2342 H2355 0.961 . S
C2342 H2356 0.961 . S
C2343 C2340 1.539 . S
C2343 H2357 0.958 . S
C2343 H2358 0.961 . S
C2343 H2359 0.960 . S
H2344 C2328 0.931 . S
H2345 C2333 0.929 . S
H2346 C2334 0.960 . S
H2347 C2334 0.962 . S
H2348 C2334 0.960 . S
H2349 C2335 0.961 . S
H2350 C2335 0.961 . S
H2351 C2335 0.961 . S
H2352 C2336 0.931 . S
H2353 C2341 0.930 . S
H2354 C2342 0.956 . S
H2355 C2342 0.961 . S
H2356 C2342 0.961 . S
H2357 C2343 0.958 . S
H2358 C2343 0.961 . S
H2359 C2343 0.960 . S
C2360 C2361 1.391 . S
C2360 C2362 1.394 . S
C2360 H2376 0.931 . S
C2361 C2360 1.391 . S
C2361 C2365 1.376 . S
C2362 C2360 1.394 . S
C2362 C2363 1.369 . S
C2362 C2366 1.531 . S
C2363 C2362 1.369 . S
C2363 C2364 1.410 . S
C2363 C2371 1.503 . S
C2364 C2363 1.410 . S
C2364 C2365 1.392 . S
C2364 C2367 1.511 . S
C2365 C2361 1.376 . S
C2365 C2364 1.392 . S
C2365 H2377 0.929 . S
C2366 C2362 1.531 . S
C2366 H2378 0.960 . S
C2366 H2379 0.962 . S
C2366 H2380 0.960 . S
C2367 C2364 1.511 . S
C2367 H2381 0.961 . S
C2367 H2382 0.961 . S
C2367 H2383 0.961 . S
C2368 C2369 1.370 . S
C2368 C2370 1.363 . S
C2368 H2384 0.931 . S
C2369 C2368 1.370 . S
C2369 C2373 1.408 . S
C2370 C2368 1.363 . S
C2370 C2371 1.370 . S
C2370 C2374 1.524 . S
C2371 C2363 1.503 . S
C2371 C2370 1.370 . S
C2371 C2372 1.403 . S
C2372 C2371 1.403 . S
C2372 C2373 1.404 . S
C2372 C2375 1.539 . S
C2373 C2369 1.408 . S
C2373 C2372 1.404 . S
C2373 H2385 0.930 . S
C2374 C2370 1.524 . S
C2374 H2386 0.956 . S
C2374 H2387 0.961 . S
C2374 H2388 0.961 . S
C2375 C2372 1.539 . S
C2375 H2389 0.958 . S
C2375 H2390 0.961 . S
C2375 H2391 0.960 . S
H2376 C2360 0.931 . S
H2377 C2365 0.929 . S
H2378 C2366 0.960 . S
H2379 C2366 0.962 . S
H2380 C2366 0.960 . S
H2381 C2367 0.961 . S
H2382 C2367 0.961 . S
H2383 C2367 0.961 . S
H2384 C2368 0.931 . S
H2385 C2373 0.930 . S
H2386 C2374 0.956 . S
H2387 C2374 0.961 . S
H2388 C2374 0.961 . S
H2389 C2375 0.958 . S
H2390 C2375 0.961 . S
H2391 C2375 0.960 . S
C2392 C2393 1.391 . S
C2392 C2394 1.394 . S
C2392 H2408 0.931 . S
C2393 C2392 1.391 . S
C2393 C2397 1.376 . S
C2394 C2392 1.394 . S
C2394 C2395 1.369 . S
C2394 C2398 1.531 . S
C2395 C2394 1.369 . S
C2395 C2396 1.410 . S
C2395 C2403 1.503 . S
C2396 C2395 1.410 . S
C2396 C2397 1.392 . S
C2396 C2399 1.511 . S
C2397 C2393 1.376 . S
C2397 C2396 1.392 . S
C2397 H2409 0.929 . S
C2398 C2394 1.531 . S
C2398 H2410 0.960 . S
C2398 H2411 0.962 . S
C2398 H2412 0.960 . S
C2399 C2396 1.511 . S
C2399 H2413 0.961 . S
C2399 H2414 0.961 . S
C2399 H2415 0.961 . S
C2400 C2401 1.370 . S
C2400 C2402 1.363 . S
C2400 H2416 0.931 . S
C2401 C2400 1.370 . S
C2401 C2405 1.408 . S
C2402 C2400 1.363 . S
C2402 C2403 1.370 . S
C2402 C2406 1.524 . S
C2403 C2395 1.503 . S
C2403 C2402 1.370 . S
C2403 C2404 1.403 . S
C2404 C2403 1.403 . S
C2404 C2405 1.404 . S
C2404 C2407 1.539 . S
C2405 C2401 1.408 . S
C2405 C2404 1.404 . S
C2405 H2417 0.930 . S
C2406 C2402 1.524 . S
C2406 H2418 0.956 . S
C2406 H2419 0.961 . S
C2406 H2420 0.961 . S
C2407 C2404 1.539 . S
C2407 H2421 0.958 . S
C2407 H2422 0.961 . S
C2407 H2423 0.960 . S
H2408 C2392 0.931 . S
H2409 C2397 0.929 . S
H2410 C2398 0.960 . S
H2411 C2398 0.962 . S
H2412 C2398 0.960 . S
H2413 C2399 0.961 . S
H2414 C2399 0.961 . S
H2415 C2399 0.961 . S
H2416 C2400 0.931 . S
H2417 C2405 0.930 . S
H2418 C2406 0.956 . S
H2419 C2406 0.961 . S
H2420 C2406 0.961 . S
H2421 C2407 0.958 . S
H2422 C2407 0.961 . S
H2423 C2407 0.960 . S
C2424 C2425 1.391 . S
C2424 C2426 1.394 . S
C2424 H2440 0.931 . S
C2425 C2424 1.391 . S
C2425 C2429 1.376 . S
C2426 C2424 1.394 . S
C2426 C2427 1.369 . S
C2426 C2430 1.531 . S
C2427 C2426 1.369 . S
C2427 C2428 1.410 . S
C2427 C2435 1.503 . S
C2428 C2427 1.410 . S
C2428 C2429 1.392 . S
C2428 C2431 1.511 . S
C2429 C2425 1.376 . S
C2429 C2428 1.392 . S
C2429 H2441 0.929 . S
C2430 C2426 1.531 . S
C2430 H2442 0.960 . S
C2430 H2443 0.962 1_556 S
C2430 H2444 0.960 . S
C2431 C2428 1.511 . S
C2431 H2445 0.961 . S
C2431 H2446 0.961 . S
C2431 H2447 0.961 . S
C2432 C2433 1.370 . S
C2432 C2434 1.363 . S
C2432 H2448 0.931 1_556 S
C2433 C2432 1.370 . S
C2433 C2437 1.408 . S
C2434 C2432 1.363 . S
C2434 C2435 1.370 . S
C2434 C2438 1.524 . S
C2435 C2427 1.503 . S
C2435 C2434 1.370 . S
C2435 C2436 1.403 . S
C2436 C2435 1.403 . S
C2436 C2437 1.404 . S
C2436 C2439 1.539 . S
C2437 C2433 1.408 . S
C2437 C2436 1.404 . S
C2437 H2449 0.930 . S
C2438 C2434 1.524 . S
C2438 H2450 0.956 . S
C2438 H2451 0.961 . S
C2438 H2452 0.961 . S
C2439 C2436 1.539 . S
C2439 H2453 0.958 . S
C2439 H2454 0.961 . S
C2439 H2455 0.960 . S
H2440 C2424 0.931 . S
H2441 C2429 0.929 . S
H2442 C2430 0.960 . S
H2443 C2430 0.962 1_554 S
H2444 C2430 0.960 . S
H2445 C2431 0.961 . S
H2446 C2431 0.961 . S
H2447 C2431 0.961 . S
H2448 C2432 0.931 1_554 S
H2449 C2437 0.930 . S
H2450 C2438 0.956 . S
H2451 C2438 0.961 . S
H2452 C2438 0.961 . S
H2453 C2439 0.958 . S
H2454 C2439 0.961 . S
H2455 C2439 0.960 . S
C2456 C2457 1.391 . S
C2456 C2458 1.394 . S
C2456 H2472 0.931 1_556 S
C2457 C2456 1.391 . S
C2457 C2461 1.376 . S
C2458 C2456 1.394 . S
C2458 C2459 1.369 . S
C2458 C2462 1.531 . S
C2459 C2458 1.369 . S
C2459 C2460 1.410 . S
C2459 C2467 1.503 . S
C2460 C2459 1.410 . S
C2460 C2461 1.392 . S
C2460 C2463 1.511 . S
C2461 C2457 1.376 . S
C2461 C2460 1.392 . S
C2461 H2473 0.929 . S
C2462 C2458 1.531 . S
C2462 H2474 0.960 . S
C2462 H2475 0.962 . S
C2462 H2476 0.960 . S
C2463 C2460 1.511 . S
C2463 H2477 0.961 . S
C2463 H2478 0.961 . S
C2463 H2479 0.961 . S
C2464 C2465 1.370 . S
C2464 C2466 1.363 . S
C2464 H2480 0.931 . S
C2465 C2464 1.370 . S
C2465 C2469 1.408 . S
C2466 C2464 1.363 . S
C2466 C2467 1.370 . S
C2466 C2470 1.524 . S
C2467 C2459 1.503 . S
C2467 C2466 1.370 . S
C2467 C2468 1.403 . S
C2468 C2467 1.403 . S
C2468 C2469 1.404 . S
C2468 C2471 1.539 . S
C2469 C2465 1.408 . S
C2469 C2468 1.404 . S
C2469 H2481 0.930 . S
C2470 C2466 1.524 . S
C2470 H2482 0.956 1_556 S
C2470 H2483 0.961 . S
C2470 H2484 0.961 . S
C2471 C2468 1.539 . S
C2471 H2485 0.958 . S
C2471 H2486 0.961 . S
C2471 H2487 0.960 . S
H2472 C2456 0.931 1_554 S
H2473 C2461 0.929 . S
H2474 C2462 0.960 . S
H2475 C2462 0.962 . S
H2476 C2462 0.960 . S
H2477 C2463 0.961 . S
H2478 C2463 0.961 . S
H2479 C2463 0.961 . S
H2480 C2464 0.931 . S
H2481 C2469 0.930 . S
H2482 C2470 0.956 1_554 S
H2483 C2470 0.961 . S
H2484 C2470 0.961 . S
H2485 C2471 0.958 . S
H2486 C2471 0.961 . S
H2487 C2471 0.960 . S
C2488 C2489 1.391 . S
C2488 C2490 1.394 . S
C2488 H2504 0.931 . S
C2489 C2488 1.391 . S
C2489 C2493 1.376 . S
C2490 C2488 1.394 . S
C2490 C2491 1.369 . S
C2490 C2494 1.531 . S
C2491 C2490 1.369 . S
C2491 C2492 1.410 . S
C2491 C2499 1.503 . S
C2492 C2491 1.410 . S
C2492 C2493 1.392 . S
C2492 C2495 1.511 . S
C2493 C2489 1.376 . S
C2493 C2492 1.392 . S
C2493 H2505 0.929 . S
C2494 C2490 1.531 . S
C2494 H2506 0.960 . S
C2494 H2507 0.962 . S
C2494 H2508 0.960 . S
C2495 C2492 1.511 . S
C2495 H2509 0.961 . S
C2495 H2510 0.961 1_556 S
C2495 H2511 0.961 1_556 S
C2496 C2497 1.370 . S
C2496 C2498 1.363 . S
C2496 H2512 0.931 . S
C2497 C2496 1.370 . S
C2497 C2501 1.408 . S
C2498 C2496 1.363 . S
C2498 C2499 1.370 . S
C2498 C2502 1.524 . S
C2499 C2491 1.503 . S
C2499 C2498 1.370 . S
C2499 C2500 1.403 . S
C2500 C2499 1.403 . S
C2500 C2501 1.404 . S
C2500 C2503 1.539 . S
C2501 C2497 1.408 . S
C2501 C2500 1.404 . S
C2501 H2513 0.930 1_556 S
C2502 C2498 1.524 . S
C2502 H2514 0.956 . S
C2502 H2515 0.961 . S
C2502 H2516 0.961 . S
C2503 C2500 1.539 . S
C2503 H2517 0.958 . S
C2503 H2518 0.961 . S
C2503 H2519 0.960 . S
H2504 C2488 0.931 . S
H2505 C2493 0.929 . S
H2506 C2494 0.960 . S
H2507 C2494 0.962 . S
H2508 C2494 0.960 . S
H2509 C2495 0.961 . S
H2510 C2495 0.961 1_554 S
H2511 C2495 0.961 1_554 S
H2512 C2496 0.931 . S
H2513 C2501 0.930 1_554 S
H2514 C2502 0.956 . S
H2515 C2502 0.961 . S
H2516 C2502 0.961 . S
H2517 C2503 0.958 . S
H2518 C2503 0.961 . S
H2519 C2503 0.960 . S
C2520 C2521 1.391 . S
C2520 C2522 1.394 . S
C2520 H2536 0.931 . S
C2521 C2520 1.391 . S
C2521 C2525 1.376 . S
C2522 C2520 1.394 . S
C2522 C2523 1.369 . S
C2522 C2526 1.531 . S
C2523 C2522 1.369 . S
C2523 C2524 1.410 . S
C2523 C2531 1.503 . S
C2524 C2523 1.410 . S
C2524 C2525 1.392 . S
C2524 C2527 1.511 . S
C2525 C2521 1.376 . S
C2525 C2524 1.392 . S
C2525 H2537 0.929 . S
C2526 C2522 1.531 . S
C2526 H2538 0.960 . S
C2526 H2539 0.962 . S
C2526 H2540 0.960 . S
C2527 C2524 1.511 . S
C2527 H2541 0.961 . S
C2527 H2542 0.961 . S
C2527 H2543 0.961 . S
C2528 C2529 1.370 . S
C2528 C2530 1.363 . S
C2528 H2544 0.931 . S
C2529 C2528 1.370 . S
C2529 C2533 1.408 . S
C2530 C2528 1.363 . S
C2530 C2531 1.370 . S
C2530 C2534 1.524 . S
C2531 C2523 1.503 . S
C2531 C2530 1.370 . S
C2531 C2532 1.403 . S
C2532 C2531 1.403 . S
C2532 C2533 1.404 . S
C2532 C2535 1.539 . S
C2533 C2529 1.408 . S
C2533 C2532 1.404 . S
C2533 H2545 0.930 . S
C2534 C2530 1.524 . S
C2534 H2546 0.956 . S
C2534 H2547 0.961 . S
C2534 H2548 0.961 . S
C2535 C2532 1.539 . S
C2535 H2549 0.958 . S
C2535 H2550 0.961 . S
C2535 H2551 0.960 . S
H2536 C2520 0.931 . S
H2537 C2525 0.929 . S
H2538 C2526 0.960 . S
H2539 C2526 0.962 . S
H2540 C2526 0.960 . S
H2541 C2527 0.961 . S
H2542 C2527 0.961 . S
H2543 C2527 0.961 . S
H2544 C2528 0.931 . S
H2545 C2533 0.930 . S
H2546 C2534 0.956 . S
H2547 C2534 0.961 . S
H2548 C2534 0.961 . S
H2549 C2535 0.958 . S
H2550 C2535 0.961 . S
H2551 C2535 0.960 . S
C2552 C2553 1.391 . S
C2552 C2554 1.394 . S
C2552 H2568 0.931 . S
C2553 C2552 1.391 . S
C2553 C2557 1.376 . S
C2554 C2552 1.394 . S
C2554 C2555 1.369 . S
C2554 C2558 1.531 . S
C2555 C2554 1.369 . S
C2555 C2556 1.410 . S
C2555 C2563 1.503 . S
C2556 C2555 1.410 . S
C2556 C2557 1.392 . S
C2556 C2559 1.511 . S
C2557 C2553 1.376 . S
C2557 C2556 1.392 . S
C2557 H2569 0.929 . S
C2558 C2554 1.531 . S
C2558 H2570 0.960 . S
C2558 H2571 0.962 . S
C2558 H2572 0.960 . S
C2559 C2556 1.511 . S
C2559 H2573 0.961 . S
C2559 H2574 0.961 . S
C2559 H2575 0.961 . S
C2560 C2561 1.370 . S
C2560 C2562 1.363 . S
C2560 H2576 0.931 . S
C2561 C2560 1.370 . S
C2561 C2565 1.408 . S
C2562 C2560 1.363 . S
C2562 C2563 1.370 . S
C2562 C2566 1.524 . S
C2563 C2555 1.503 . S
C2563 C2562 1.370 . S
C2563 C2564 1.403 . S
C2564 C2563 1.403 . S
C2564 C2565 1.404 . S
C2564 C2567 1.539 . S
C2565 C2561 1.408 . S
C2565 C2564 1.404 . S
C2565 H2577 0.930 . S
C2566 C2562 1.524 . S
C2566 H2578 0.956 . S
C2566 H2579 0.961 . S
C2566 H2580 0.961 . S
C2567 C2564 1.539 . S
C2567 H2581 0.958 . S
C2567 H2582 0.961 . S
C2567 H2583 0.960 . S
H2568 C2552 0.931 . S
H2569 C2557 0.929 . S
H2570 C2558 0.960 . S
H2571 C2558 0.962 . S
H2572 C2558 0.960 . S
H2573 C2559 0.961 . S
H2574 C2559 0.961 . S
H2575 C2559 0.961 . S
H2576 C2560 0.931 . S
H2577 C2565 0.930 . S
H2578 C2566 0.956 . S
H2579 C2566 0.961 . S
H2580 C2566 0.961 . S
H2581 C2567 0.958 . S
H2582 C2567 0.961 . S
H2583 C2567 0.960 . S
C2584 C2585 1.391 . S
C2584 C2586 1.394 . S
C2584 H2600 0.931 . S
C2585 C2584 1.391 . S
C2585 C2589 1.376 . S
C2586 C2584 1.394 . S
C2586 C2587 1.369 . S
C2586 C2590 1.531 . S
C2587 C2586 1.369 . S
C2587 C2588 1.410 . S
C2587 C2595 1.503 . S
C2588 C2587 1.410 . S
C2588 C2589 1.392 . S
C2588 C2591 1.511 . S
C2589 C2585 1.376 . S
C2589 C2588 1.392 . S
C2589 H2601 0.929 . S
C2590 C2586 1.531 . S
C2590 H2602 0.960 . S
C2590 H2603 0.962 . S
C2590 H2604 0.960 . S
C2591 C2588 1.511 . S
C2591 H2605 0.961 . S
C2591 H2606 0.961 . S
C2591 H2607 0.961 . S
C2592 C2593 1.370 . S
C2592 C2594 1.363 . S
C2592 H2608 0.931 . S
C2593 C2592 1.370 . S
C2593 C2597 1.408 . S
C2594 C2592 1.363 . S
C2594 C2595 1.370 . S
C2594 C2598 1.524 . S
C2595 C2587 1.503 . S
C2595 C2594 1.370 . S
C2595 C2596 1.403 . S
C2596 C2595 1.403 . S
C2596 C2597 1.404 . S
C2596 C2599 1.539 . S
C2597 C2593 1.408 . S
C2597 C2596 1.404 . S
C2597 H2609 0.930 . S
C2598 C2594 1.524 . S
C2598 H2610 0.956 . S
C2598 H2611 0.961 . S
C2598 H2612 0.961 . S
C2599 C2596 1.539 . S
C2599 H2613 0.958 . S
C2599 H2614 0.961 . S
C2599 H2615 0.960 . S
H2600 C2584 0.931 . S
H2601 C2589 0.929 . S
H2602 C2590 0.960 . S
H2603 C2590 0.962 . S
H2604 C2590 0.960 . S
H2605 C2591 0.961 . S
H2606 C2591 0.961 . S
H2607 C2591 0.961 . S
H2608 C2592 0.931 . S
H2609 C2597 0.930 . S
H2610 C2598 0.956 . S
H2611 C2598 0.961 . S
H2612 C2598 0.961 . S
H2613 C2599 0.958 . S
H2614 C2599 0.961 . S
H2615 C2599 0.960 . S
C2616 C2617 1.391 . S
C2616 C2618 1.394 . S
C2616 H2632 0.931 . S
C2617 C2616 1.391 . S
C2617 C2621 1.376 . S
C2618 C2616 1.394 . S
C2618 C2619 1.369 . S
C2618 C2622 1.531 . S
C2619 C2618 1.369 . S
C2619 C2620 1.410 . S
C2619 C2627 1.503 1_455 S
C2620 C2619 1.410 . S
C2620 C2621 1.392 . S
C2620 C2623 1.511 . S
C2621 C2617 1.376 . S
C2621 C2620 1.392 . S
C2621 H2633 0.929 . S
C2622 C2618 1.531 . S
C2622 H2634 0.960 . S
C2622 H2635 0.962 . S
C2622 H2636 0.960 . S
C2623 C2620 1.511 . S
C2623 H2637 0.961 . S
C2623 H2638 0.961 1_455 S
C2623 H2639 0.961 . S
C2624 C2625 1.370 . S
C2624 C2626 1.363 . S
C2624 H2640 0.931 . S
C2625 C2624 1.370 . S
C2625 C2629 1.408 . S
C2626 C2624 1.363 . S
C2626 C2627 1.370 . S
C2626 C2630 1.524 . S
C2627 C2619 1.503 1_655 S
C2627 C2626 1.370 . S
C2627 C2628 1.403 . S
C2628 C2627 1.403 . S
C2628 C2629 1.404 . S
C2628 C2631 1.539 1_655 S
C2629 C2625 1.408 . S
C2629 C2628 1.404 . S
C2629 H2641 0.930 . S
C2630 C2626 1.524 . S
C2630 H2642 0.956 . S
C2630 H2643 0.961 . S
C2630 H2644 0.961 . S
C2631 C2628 1.539 1_455 S
C2631 H2645 0.958 . S
C2631 H2646 0.961 . S
C2631 H2647 0.960 . S
H2632 C2616 0.931 . S
H2633 C2621 0.929 . S
H2634 C2622 0.960 . S
H2635 C2622 0.962 . S
H2636 C2622 0.960 . S
H2637 C2623 0.961 . S
H2638 C2623 0.961 1_655 S
H2639 C2623 0.961 . S
H2640 C2624 0.931 . S
H2641 C2629 0.930 . S
H2642 C2630 0.956 . S
H2643 C2630 0.961 . S
H2644 C2630 0.961 . S
H2645 C2631 0.958 . S
H2646 C2631 0.961 . S
H2647 C2631 0.960 . S
C2648 C2649 1.391 . S
C2648 C2650 1.394 . S
C2648 H2664 0.931 . S
C2649 C2648 1.391 . S
C2649 C2653 1.376 . S
C2650 C2648 1.394 . S
C2650 C2651 1.369 . S
C2650 C2654 1.531 . S
C2651 C2650 1.369 . S
C2651 C2652 1.410 . S
C2651 C2659 1.503 . S
C2652 C2651 1.410 . S
C2652 C2653 1.392 . S
C2652 C2655 1.511 . S
C2653 C2649 1.376 . S
C2653 C2652 1.392 . S
C2653 H2665 0.929 . S
C2654 C2650 1.531 . S
C2654 H2666 0.960 . S
C2654 H2667 0.962 . S
C2654 H2668 0.960 . S
C2655 C2652 1.511 . S
C2655 H2669 0.961 . S
C2655 H2670 0.961 . S
C2655 H2671 0.961 . S
C2656 C2657 1.370 . S
C2656 C2658 1.363 . S
C2656 H2672 0.931 . S
C2657 C2656 1.370 . S
C2657 C2661 1.408 . S
C2658 C2656 1.363 . S
C2658 C2659 1.370 . S
C2658 C2662 1.524 . S
C2659 C2651 1.503 . S
C2659 C2658 1.370 . S
C2659 C2660 1.403 . S
C2660 C2659 1.403 . S
C2660 C2661 1.404 . S
C2660 C2663 1.539 . S
C2661 C2657 1.408 . S
C2661 C2660 1.404 . S
C2661 H2673 0.930 . S
C2662 C2658 1.524 . S
C2662 H2674 0.956 . S
C2662 H2675 0.961 . S
C2662 H2676 0.961 . S
C2663 C2660 1.539 . S
C2663 H2677 0.958 . S
C2663 H2678 0.961 . S
C2663 H2679 0.960 . S
H2664 C2648 0.931 . S
H2665 C2653 0.929 . S
H2666 C2654 0.960 . S
H2667 C2654 0.962 . S
H2668 C2654 0.960 . S
H2669 C2655 0.961 . S
H2670 C2655 0.961 . S
H2671 C2655 0.961 . S
H2672 C2656 0.931 . S
H2673 C2661 0.930 . S
H2674 C2662 0.956 . S
H2675 C2662 0.961 . S
H2676 C2662 0.961 . S
H2677 C2663 0.958 . S
H2678 C2663 0.961 . S
H2679 C2663 0.960 . S
C2680 C2681 1.391 . S
C2680 C2682 1.394 . S
C2680 H2696 0.931 . S
C2681 C2680 1.391 . S
C2681 C2685 1.376 . S
C2682 C2680 1.394 . S
C2682 C2683 1.369 . S
C2682 C2686 1.531 . S
C2683 C2682 1.369 . S
C2683 C2684 1.410 . S
C2683 C2691 1.503 1_565 S
C2684 C2683 1.410 . S
C2684 C2685 1.392 . S
C2684 C2687 1.511 . S
C2685 C2681 1.376 . S
C2685 C2684 1.392 . S
C2685 H2697 0.929 . S
C2686 C2682 1.531 . S
C2686 H2698 0.960 1_565 S
C2686 H2699 0.962 1_565 S
C2686 H2700 0.960 . S
C2687 C2684 1.511 . S
C2687 H2701 0.961 . S
C2687 H2702 0.961 . S
C2687 H2703 0.961 . S
C2688 C2689 1.370 . S
C2688 C2690 1.363 . S
C2688 H2704 0.931 . S
C2689 C2688 1.370 . S
C2689 C2693 1.408 . S
C2690 C2688 1.363 . S
C2690 C2691 1.370 . S
C2690 C2694 1.524 . S
C2691 C2683 1.503 1_545 S
C2691 C2690 1.370 . S
C2691 C2692 1.403 . S
C2692 C2691 1.403 . S
C2692 C2693 1.404 . S
C2692 C2695 1.539 1_545 S
C2693 C2689 1.408 . S
C2693 C2692 1.404 . S
C2693 H2705 0.930 . S
C2694 C2690 1.524 . S
C2694 H2706 0.956 . S
C2694 H2707 0.961 . S
C2694 H2708 0.961 . S
C2695 C2692 1.539 1_565 S
C2695 H2709 0.958 . S
C2695 H2710 0.961 . S
C2695 H2711 0.960 . S
H2696 C2680 0.931 . S
H2697 C2685 0.929 . S
H2698 C2686 0.960 1_545 S
H2699 C2686 0.962 1_545 S
H2700 C2686 0.960 . S
H2701 C2687 0.961 . S
H2702 C2687 0.961 . S
H2703 C2687 0.961 . S
H2704 C2688 0.931 . S
H2705 C2693 0.930 . S
H2706 C2694 0.956 . S
H2707 C2694 0.961 . S
H2708 C2694 0.961 . S
H2709 C2695 0.958 . S
H2710 C2695 0.961 . S
H2711 C2695 0.960 . S
C2712 C2713 1.391 . S
C2712 C2714 1.394 . S
C2712 H2728 0.931 . S
C2713 C2712 1.391 . S
C2713 C2717 1.376 . S
C2714 C2712 1.394 . S
C2714 C2715 1.369 . S
C2714 C2718 1.531 . S
C2715 C2714 1.369 . S
C2715 C2716 1.410 . S
C2715 C2723 1.503 1_545 S
C2716 C2715 1.410 . S
C2716 C2717 1.392 . S
C2716 C2719 1.511 . S
C2717 C2713 1.376 . S
C2717 C2716 1.392 . S
C2717 H2729 0.929 . S
C2718 C2714 1.531 . S
C2718 H2730 0.960 . S
C2718 H2731 0.962 . S
C2718 H2732 0.960 . S
C2719 C2716 1.511 . S
C2719 H2733 0.961 . S
C2719 H2734 0.961 1_545 S
C2719 H2735 0.961 . S
C2720 C2721 1.370 . S
C2720 C2722 1.363 . S
C2720 H2736 0.931 . S
C2721 C2720 1.370 . S
C2721 C2725 1.408 . S
C2722 C2720 1.363 . S
C2722 C2723 1.370 . S
C2722 C2726 1.524 . S
C2723 C2715 1.503 1_565 S
C2723 C2722 1.370 . S
C2723 C2724 1.403 . S
C2724 C2723 1.403 . S
C2724 C2725 1.404 . S
C2724 C2727 1.539 1_565 S
C2725 C2721 1.408 . S
C2725 C2724 1.404 . S
C2725 H2737 0.930 . S
C2726 C2722 1.524 . S
C2726 H2738 0.956 . S
C2726 H2739 0.961 . S
C2726 H2740 0.961 . S
C2727 C2724 1.539 1_545 S
C2727 H2741 0.958 . S
C2727 H2742 0.961 . S
C2727 H2743 0.960 . S
H2728 C2712 0.931 . S
H2729 C2717 0.929 . S
H2730 C2718 0.960 . S
H2731 C2718 0.962 . S
H2732 C2718 0.960 . S
H2733 C2719 0.961 . S
H2734 C2719 0.961 1_565 S
H2735 C2719 0.961 . S
H2736 C2720 0.931 . S
H2737 C2725 0.930 . S
H2738 C2726 0.956 . S
H2739 C2726 0.961 . S
H2740 C2726 0.961 . S
H2741 C2727 0.958 . S
H2742 C2727 0.961 . S
H2743 C2727 0.960 . S
C2744 C2745 1.391 . S
C2744 C2746 1.394 . S
C2744 H2760 0.931 . S
C2745 C2744 1.391 . S
C2745 C2749 1.376 . S
C2746 C2744 1.394 . S
C2746 C2747 1.369 . S
C2746 C2750 1.531 . S
C2747 C2746 1.369 . S
C2747 C2748 1.410 . S
C2747 C2755 1.503 1_455 S
C2748 C2747 1.410 . S
C2748 C2749 1.392 . S
C2748 C2751 1.511 . S
C2749 C2745 1.376 . S
C2749 C2748 1.392 . S
C2749 H2761 0.929 . S
C2750 C2746 1.531 . S
C2750 H2762 0.960 . S
C2750 H2763 0.962 . S
C2750 H2764 0.960 . S
C2751 C2748 1.511 . S
C2751 H2765 0.961 . S
C2751 H2766 0.961 1_455 S
C2751 H2767 0.961 . S
C2752 C2753 1.370 . S
C2752 C2754 1.363 . S
C2752 H2768 0.931 . S
C2753 C2752 1.370 . S
C2753 C2757 1.408 . S
C2754 C2752 1.363 . S
C2754 C2755 1.370 . S
C2754 C2758 1.524 . S
C2755 C2747 1.503 1_655 S
C2755 C2754 1.370 . S
C2755 C2756 1.403 . S
C2756 C2755 1.403 . S
C2756 C2757 1.404 . S
C2756 C2759 1.539 1_655 S
C2757 C2753 1.408 . S
C2757 C2756 1.404 . S
C2757 H2769 0.930 . S
C2758 C2754 1.524 . S
C2758 H2770 0.956 . S
C2758 H2771 0.961 . S
C2758 H2772 0.961 . S
C2759 C2756 1.539 1_455 S
C2759 H2773 0.958 . S
C2759 H2774 0.961 . S
C2759 H2775 0.960 . S
H2760 C2744 0.931 . S
H2761 C2749 0.929 . S
H2762 C2750 0.960 . S
H2763 C2750 0.962 . S
H2764 C2750 0.960 . S
H2765 C2751 0.961 . S
H2766 C2751 0.961 1_655 S
H2767 C2751 0.961 . S
H2768 C2752 0.931 . S
H2769 C2757 0.930 . S
H2770 C2758 0.956 . S
H2771 C2758 0.961 . S
H2772 C2758 0.961 . S
H2773 C2759 0.958 . S
H2774 C2759 0.961 . S
H2775 C2759 0.960 . S
C2776 C2777 1.391 . S
C2776 C2778 1.394 . S
C2776 H2792 0.931 . S
C2777 C2776 1.391 . S
C2777 C2781 1.376 . S
C2778 C2776 1.394 . S
C2778 C2779 1.369 . S
C2778 C2782 1.531 . S
C2779 C2778 1.369 . S
C2779 C2780 1.410 . S
C2779 C2787 1.503 . S
C2780 C2779 1.410 . S
C2780 C2781 1.392 . S
C2780 C2783 1.511 . S
C2781 C2777 1.376 . S
C2781 C2780 1.392 . S
C2781 H2793 0.929 . S
C2782 C2778 1.531 . S
C2782 H2794 0.960 . S
C2782 H2795 0.962 . S
C2782 H2796 0.960 . S
C2783 C2780 1.511 . S
C2783 H2797 0.961 . S
C2783 H2798 0.961 . S
C2783 H2799 0.961 . S
C2784 C2785 1.370 . S
C2784 C2786 1.363 . S
C2784 H2800 0.931 . S
C2785 C2784 1.370 . S
C2785 C2789 1.408 . S
C2786 C2784 1.363 . S
C2786 C2787 1.370 . S
C2786 C2790 1.524 . S
C2787 C2779 1.503 . S
C2787 C2786 1.370 . S
C2787 C2788 1.403 . S
C2788 C2787 1.403 . S
C2788 C2789 1.404 . S
C2788 C2791 1.539 . S
C2789 C2785 1.408 . S
C2789 C2788 1.404 . S
C2789 H2801 0.930 . S
C2790 C2786 1.524 . S
C2790 H2802 0.956 . S
C2790 H2803 0.961 . S
C2790 H2804 0.961 . S
C2791 C2788 1.539 . S
C2791 H2805 0.958 . S
C2791 H2806 0.961 . S
C2791 H2807 0.960 . S
H2792 C2776 0.931 . S
H2793 C2781 0.929 . S
H2794 C2782 0.960 . S
H2795 C2782 0.962 . S
H2796 C2782 0.960 . S
H2797 C2783 0.961 . S
H2798 C2783 0.961 . S
H2799 C2783 0.961 . S
H2800 C2784 0.931 . S
H2801 C2789 0.930 . S
H2802 C2790 0.956 . S
H2803 C2790 0.961 . S
H2804 C2790 0.961 . S
H2805 C2791 0.958 . S
H2806 C2791 0.961 . S
H2807 C2791 0.960 . S
C505 C48 1.300 . S
C513 C6 1.279 . S
C537 C62 1.249 . S
C545 C20 1.297 . S
C569 C76 1.239 . S
C577 C34 1.294 . S
C601 C90 1.238 . S
C609 C132 1.293 . S
C633 C104 1.242 . S
C641 C146 1.286 . S
C665 C160 1.256 . S
C673 C118 1.277 . S
C697 C174 1.310 . S
C705 C216 1.264 . S
C729 C188 1.272 . S
C737 C230 1.291 . S
C761 C202 1.309 . S
C769 C244 1.265 . S
C793 C258 1.240 . S
C801 C300 1.294 . S
C825 C314 1.303 . S
C833 C272 1.283 . S
C857 C286 1.301 . S
C865 C328 1.284 . S
C889 C342 1.266 . S
C897 C384 1.278 . S
C921 C356 1.256 . S
C929 C398 1.295 . S
C953 C412 1.253 . S
C961 C370 1.296 . S
C985 C468 1.310 . S
C993 C426 1.278 . S
C1017 C482 1.317 . S
C1025 C440 1.272 . S
C1049 C496 1.251 . S
C1057 C454 1.297 . S
C1081 C161 1.497 . S
C1089 C9 1.584 . S
C1113 C23 1.600 . S
C1121 C133 1.532 . S
C1145 C37 1.589 . S
C1153 C147 1.518 . S
C1177 C105 1.490 . S
C1185 C51 1.586 . S
C1209 C65 1.594 . S
C1217 C119 1.523 . S
C1241 C91 1.558 . S
C1249 C79 1.592 . S
C1273 C93 1.601 . S
C1281 C77 1.534 . S
C1305 C107 1.570 . S
C1313 C49 1.526 . S
C1337 C63 1.538 . S
C1345 C121 1.584 . S
C1369 C21 1.521 . S
C1377 C135 1.596 . S
C1401 C35 1.515 . S
C1409 C149 1.595 . S
C1433 C163 1.598 . S
C1441 C7 1.539 . S
C1465 C177 1.583 . S
C1473 C329 1.515 . S
C1497 C301 1.528 . S
C1505 C191 1.584 . S
C1529 C315 1.490 . S
C1537 C205 1.585 . S
C1561 C219 1.579 . S
C1569 C273 1.535 . S
C1593 C287 1.521 . S
C1601 C233 1.584 . S
C1625 C247 1.587 . S
C1633 C259 1.517 . S
C1657 C261 1.599 . S
C1665 C245 1.538 . S
C1689 C275 1.595 . S
C1697 C217 1.520 . S
C1721 C231 1.544 . S
C1729 C289 1.585 . S
C1753 C189 1.554 . S
C1761 C303 1.588 1_556 S
C1785 C203 1.554 . S
C1793 C317 1.588 1_556 S
C1817 C331 1.571 1_556 S
C1825 C175 1.518 . S
C1849 C497 1.515 . S
C1857 C345 1.583 . S
C1881 C359 1.589 . S
C1889 C469 1.519 . S
C1913 C373 1.596 . S
C1921 C483 1.525 . S
C1945 C387 1.598 1_554 S
C1953 C441 1.528 . S
C1977 C455 1.543 . S
C1985 C401 1.596 1_554 S
C2009 C415 1.582 1_554 S
C2017 C427 1.515 . S
C2041 C413 1.520 . S
C2049 C429 1.583 . S
C2073 C385 1.553 . S
C2081 C443 1.594 . S
C2105 C399 1.494 . S
C2113 C457 1.585 . S
C2137 C357 1.552 . S
C2145 C471 1.587 . S
C2169 C371 1.512 . S
C2177 C485 1.583 . S
C2201 C343 1.492 . S
C2209 C499 1.590 . S
C2233 C414 1.192 . S
C2241 C8 1.166 . S
C2265 C22 1.187 . S
C2273 C386 1.174 1_554 S
C2297 C400 1.181 . S
C2305 C36 1.165 . S
C2329 C50 1.151 . S
C2337 C190 1.178 . S
C2361 C204 1.155 . S
C2369 C64 1.175 . S
C2393 C78 1.149 . S
C2401 C176 1.179 . S
C2425 C92 1.182 . S
C2433 C330 1.173 1_556 S
C2457 C302 1.149 1_556 S
C2465 C106 1.182 . S
C2489 C120 1.159 . S
C2497 C316 1.175 1_556 S
C2521 C134 1.174 . S
C2529 C442 1.169 . S
C2553 C148 1.190 . S
C2561 C456 1.169 . S
C2585 C428 1.167 . S
C2593 C162 1.179 . S
C2617 C358 1.149 . S
C2625 C218 1.180 . S
C2649 C372 1.150 . S
C2657 C232 1.179 . S
C2681 C344 1.153 . S
C2689 C246 1.183 . S
C2713 C260 1.153 . S
C2721 C498 1.183 . S
C2745 C470 1.150 . S
C2753 C274 1.183 . S
C2777 C288 1.172 . S
C2785 C484 1.178 . S
