# Generated by pormake.
# Topology zfc, (5)-cn, num edge types: 1
# Building blocks:
#     Node 0, Type 0, BuildingBlock: XOMCOT_clean_sbu_1, # of connection points: 5
#     Node 1, Type 0, BuildingBlock: XOMCOT_clean_sbu_1, # of connection points: 5
#     Node 2, Type 0, BuildingBlock: XOMCOT_clean_sbu_1, # of connection points: 5
#     Node 3, Type 0, BuildingBlock: XOMCOT_clean_sbu_1, # of connection points: 5
#     Node 4, Type 0, BuildingBlock: XOMCOT_clean_sbu_1, # of connection points: 5
#     Node 5, Type 0, BuildingBlock: XOMCOT_clean_sbu_1, # of connection points: 5
#     Node 6, Type 0, BuildingBlock: XOMCOT_clean_sbu_1, # of connection points: 5
#     Node 7, Type 0, BuildingBlock: XOMCOT_clean_sbu_1, # of connection points: 5
#     Node 8, Type 0, BuildingBlock: XOMCOT_clean_sbu_1, # of connection points: 5
#     Node 9, Type 0, BuildingBlock: XOMCOT_clean_sbu_1, # of connection points: 5
#     Node 10, Type 0, BuildingBlock: XOMCOT_clean_sbu_1, # of connection points: 5
#     Node 11, Type 0, BuildingBlock: XOMCOT_clean_sbu_1, # of connection points: 5
#     Node 12, Type 0, BuildingBlock: XOMCOT_clean_sbu_1, # of connection points: 5
#     Node 13, Type 0, BuildingBlock: XOMCOT_clean_sbu_1, # of connection points: 5
#     Node 14, Type 0, BuildingBlock: XOMCOT_clean_sbu_1, # of connection points: 5
#     Node 15, Type 0, BuildingBlock: XOMCOT_clean_sbu_1, # of connection points: 5
#     Edge 16, Type (0, 0), BuildingBlock: OJICUG_clean_linker_0, # of connection points: 2
#     Edge 17, Type (0, 0), BuildingBlock: OJICUG_clean_linker_0, # of connection points: 2
#     Edge 18, Type (0, 0), BuildingBlock: OJICUG_clean_linker_0, # of connection points: 2
#     Edge 19, Type (0, 0), BuildingBlock: OJICUG_clean_linker_0, # of connection points: 2
#     Edge 20, Type (0, 0), BuildingBlock: OJICUG_clean_linker_0, # of connection points: 2
#     Edge 21, Type (0, 0), BuildingBlock: OJICUG_clean_linker_0, # of connection points: 2
#     Edge 22, Type (0, 0), BuildingBlock: OJICUG_clean_linker_0, # of connection points: 2
#     Edge 23, Type (0, 0), BuildingBlock: OJICUG_clean_linker_0, # of connection points: 2
#     Edge 24, Type (0, 0), BuildingBlock: OJICUG_clean_linker_0, # of connection points: 2
#     Edge 25, Type (0, 0), BuildingBlock: OJICUG_clean_linker_0, # of connection points: 2
#     Edge 26, Type (0, 0), BuildingBlock: OJICUG_clean_linker_0, # of connection points: 2
#     Edge 27, Type (0, 0), BuildingBlock: OJICUG_clean_linker_0, # of connection points: 2
#     Edge 28, Type (0, 0), BuildingBlock: OJICUG_clean_linker_0, # of connection points: 2
#     Edge 29, Type (0, 0), BuildingBlock: OJICUG_clean_linker_0, # of connection points: 2
#     Edge 30, Type (0, 0), BuildingBlock: OJICUG_clean_linker_0, # of connection points: 2
#     Edge 31, Type (0, 0), BuildingBlock: OJICUG_clean_linker_0, # of connection points: 2
#     Edge 32, Type (0, 0), BuildingBlock: OJICUG_clean_linker_0, # of connection points: 2
#     Edge 33, Type (0, 0), BuildingBlock: OJICUG_clean_linker_0, # of connection points: 2
#     Edge 34, Type (0, 0), BuildingBlock: OJICUG_clean_linker_0, # of connection points: 2
#     Edge 35, Type (0, 0), BuildingBlock: OJICUG_clean_linker_0, # of connection points: 2
#     Edge 36, Type (0, 0), BuildingBlock: OJICUG_clean_linker_0, # of connection points: 2
#     Edge 37, Type (0, 0), BuildingBlock: OJICUG_clean_linker_0, # of connection points: 2
#     Edge 38, Type (0, 0), BuildingBlock: OJICUG_clean_linker_0, # of connection points: 2
#     Edge 39, Type (0, 0), BuildingBlock: OJICUG_clean_linker_0, # of connection points: 2
#     Edge 40, Type (0, 0), BuildingBlock: OJICUG_clean_linker_0, # of connection points: 2
#     Edge 41, Type (0, 0), BuildingBlock: OJICUG_clean_linker_0, # of connection points: 2
#     Edge 42, Type (0, 0), BuildingBlock: OJICUG_clean_linker_0, # of connection points: 2
#     Edge 43, Type (0, 0), BuildingBlock: OJICUG_clean_linker_0, # of connection points: 2
#     Edge 44, Type (0, 0), BuildingBlock: OJICUG_clean_linker_0, # of connection points: 2
#     Edge 45, Type (0, 0), BuildingBlock: OJICUG_clean_linker_0, # of connection points: 2
#     Edge 46, Type (0, 0), BuildingBlock: OJICUG_clean_linker_0, # of connection points: 2
#     Edge 47, Type (0, 0), BuildingBlock: OJICUG_clean_linker_0, # of connection points: 2
#     Edge 48, Type (0, 0), BuildingBlock: OJICUG_clean_linker_0, # of connection points: 2
#     Edge 49, Type (0, 0), BuildingBlock: OJICUG_clean_linker_0, # of connection points: 2
#     Edge 50, Type (0, 0), BuildingBlock: OJICUG_clean_linker_0, # of connection points: 2
#     Edge 51, Type (0, 0), BuildingBlock: OJICUG_clean_linker_0, # of connection points: 2
#     Edge 52, Type (0, 0), BuildingBlock: OJICUG_clean_linker_0, # of connection points: 2
#     Edge 53, Type (0, 0), BuildingBlock: OJICUG_clean_linker_0, # of connection points: 2
#     Edge 54, Type (0, 0), BuildingBlock: OJICUG_clean_linker_0, # of connection points: 2
#     Edge 55, Type (0, 0), BuildingBlock: OJICUG_clean_linker_0, # of connection points: 2
# Relax obj value: 0.155
# Max RMSD: 0.159
# Mean RMSD: 0.159
data_MOF--net-zfc--node1-XOMCOT_clean_sbu_1--edge1-OJICUG_clean_linker_0
_symmetry_space_group_name_H-M    P1
_symmetry_Int_Tables_number       1
_symmetry_cell_setting            triclinic
loop_
_symmetry_equiv_pos_as_xyz
'x, y, z'
_cell_length_a     56.222127
_cell_length_b     56.226915
_cell_length_c     13.436521
_cell_angle_alpha  90.069956
_cell_angle_beta   90.018822
_cell_angle_gamma 89.960698
loop_
_atom_site_label
_atom_site_type_symbol
_atom_site_fract_x
_atom_site_fract_y
_atom_site_fract_z
_atom_type_partial_charge
C0 C 0.25963 0.07707 0.21428 0.0
C1 C 0.25784 0.07692 0.31672 0.0
N2 N 0.2722 0.09401 0.35349 0.0
N3 N 0.27505 0.09414 0.18666 0.0
C4 C 0.28208 0.10436 0.27288 0.0
H5 H 0.25112 0.0648 0.16345 0.0
Co6 Co 0.28664 0.09935 0.05872 0.0
C7 C 0.3295 0.13044 0.09538 0.0
O8 O 0.32595 0.14249 0.01293 0.0
N9 N 0.29837 0.10395 0.92828 0.0
C10 C 0.32173 0.10045 0.79516 0.0
C11 C 0.32085 0.09971 0.89738 0.0
C12 C 0.28586 0.10659 0.84281 0.0
N13 N 0.29962 0.10457 0.7609 0.0
O14 O 0.301 0.06816 0.06059 0.0
H15 H 0.33544 0.09488 0.94581 0.0
H16 H 0.2668 0.10841 0.83964 0.0
O17 O 0.31553 0.11332 0.11751 0.0
C18 C 0.29181 0.05319 1.00027 0.0
O19 O 0.27435 0.06009 0.94206 0.0
N20 N 0.27032 0.12864 0.05539 0.0
C21 C 0.23987 0.16761 0.036 0.0
C22 C 0.26065 0.16935 0.09329 0.0
C23 C 0.27563 0.14953 0.10277 0.0
C24 C 0.24922 0.1263 1.00656 0.0
C25 C 0.23408 0.14566 0.9934 0.0
H26 H 0.29092 0.15104 0.15055 0.0
H27 H 0.24404 0.10908 0.9779 0.0
H28 H 0.29465 0.11883 0.27691 0.0
H29 H 0.24776 0.06434 0.36062 0.0
H30 H 0.33712 0.09655 0.74957 0.0
H31 H 0.26523 0.18583 0.13047 0.0
H32 H 0.21763 0.14332 0.95246 0.0
C33 C 0.92386 0.25949 0.21417 0.0
C34 C 0.924 0.25772 0.31661 0.0
N35 N 0.90743 0.27269 0.35344 0.0
N36 N 0.90731 0.27551 0.1866 0.0
C37 C 0.89738 0.28291 0.27285 0.0
H38 H 0.93583 0.25058 0.16332 0.0
Co39 Co 0.90261 0.28738 0.05872 0.0
C40 C 0.873 0.33127 0.09596 0.0
O41 O 0.86091 0.32841 0.01304 0.0
N42 N 0.89852 0.29935 0.92832 0.0
C43 C 0.90284 0.3226 0.79538 0.0
C44 C 0.90347 0.32169 0.89764 0.0
C45 C 0.89559 0.28694 0.8427 0.0
N46 N 0.89808 0.30063 0.76091 0.0
O47 O 0.93414 0.30073 0.06178 0.0
H48 H 0.90868 0.33611 0.94626 0.0
H49 H 0.8932 0.26795 0.83935 0.0
O50 O 0.88957 0.3166 0.11776 0.0
C51 C 0.94895 0.29122 1.0017 0.0
O52 O 0.94172 0.27405 0.9427 0.0
N53 N 0.87281 0.2721 0.05428 0.0
C54 C 0.83272 0.24344 0.0307 0.0
C55 C 0.83162 0.26411 0.089 0.0
C56 C 0.852 0.27819 0.10058 0.0
C57 C 0.87449 0.251 1.00493 0.0
C58 C 0.85457 0.23676 0.98962 0.0
H59 H 0.85095 0.29342 0.14894 0.0
H60 H 0.89158 0.24517 0.9772 0.0
H61 H 0.88336 0.296 0.27695 0.0
H62 H 0.93628 0.24723 0.36047 0.0
H63 H 0.90722 0.33787 0.74995 0.0
H64 H 0.8152 0.26927 0.12531 0.0
H65 H 0.85639 0.22031 0.94817 0.0
C66 C 0.75796 0.90575 0.21793 0.0
C67 C 0.75919 0.90676 0.32034 0.0
N68 N 0.73711 0.91068 0.35598 0.0
N69 N 0.73519 0.90887 0.1893 0.0
C70 C 0.72307 0.9123 0.27481 0.0
H71 H 0.77259 0.90222 0.1678 0.0
Co72 Co 0.72271 0.90679 0.06109 0.0
C73 C 0.67847 0.87789 0.09523 0.0
O74 O 0.68159 0.86617 1.01151 0.0
N75 N 0.71018 0.90558 0.93085 0.0
C76 C 0.68619 0.91167 0.80115 0.0
C77 C 0.68758 0.91047 0.90331 0.0
C78 C 0.72229 0.90494 0.84383 0.0
N79 N 0.70815 0.9083 0.7639 0.0
O80 O 0.71147 0.93894 0.07056 0.0
H81 H 0.67317 0.91418 0.95429 0.0
H82 H 0.7413 0.9032 0.83831 0.0
O83 O 0.69301 0.89444 0.11884 0.0
C84 C 0.72843 0.9522 0.04106 0.0
O85 O 0.7486 0.942 0.01581 0.0
N86 N 0.7361 0.87599 0.04917 0.0
C87 C 0.76254 0.83421 0.026 0.0
C88 C 0.74314 0.83497 0.09157 0.0
C89 C 0.73028 0.85618 0.1031 0.0
C90 C 0.75612 0.87586 0.99207 0.0
C91 C 0.7691 0.85509 0.97673 0.0
H92 H 0.71648 0.85679 0.1587 0.0
H93 H 0.76284 0.89233 0.96217 0.0
H94 H 0.70422 0.91589 0.2775 0.0
H95 H 0.77495 0.90387 0.36499 0.0
H96 H 0.67049 0.91597 0.75812 0.0
H97 H 0.73826 0.81947 0.13477 0.0
H98 H 0.78489 0.85565 0.93055 0.0
C99 C 0.10042 0.75633 0.22869 0.0
C100 C 0.09927 0.7574 0.33104 0.0
N101 N 0.09449 0.73543 0.36602 0.0
N102 N 0.09663 0.73375 0.19905 0.0
C103 C 0.09252 0.72162 0.28407 0.0
H104 H 0.1045 0.77097 0.1795 0.0
Co105 Co 0.09858 0.72099 0.07077 0.0
C106 C 0.12612 0.6749 0.11062 0.0
O107 O 0.13535 0.67286 0.02124 0.0
N108 N 0.09969 0.70815 0.94134 0.0
C109 C 0.09155 0.68466 0.81204 0.0
C110 C 0.09293 0.68602 0.9142 0.0
C111 C 0.10155 0.72003 0.85414 0.0
N112 N 0.09683 0.70619 0.77433 0.0
O113 O 0.06666 0.70907 0.08287 0.0
H114 H 0.08793 0.67211 0.9656 0.0
H115 H 0.10512 0.73877 0.8486 0.0
O116 O 0.11206 0.69215 0.13047 0.0
C117 C 0.05301 0.72594 0.05546 0.0
O118 O 0.06277 0.74631 0.03036 0.0
N119 N 0.12892 0.73501 0.05565 0.0
C120 C 0.16955 0.76286 0.02823 0.0
C121 C 0.17054 0.74207 0.08572 0.0
C122 C 0.14993 0.72836 0.09893 0.0
C123 C 0.12756 0.75592 1.00476 0.0
C124 C 0.14769 0.76975 0.98785 0.0
H125 H 0.15092 0.71312 0.14712 0.0
H126 H 0.11046 0.76231 0.97956 0.0
H127 H 0.08847 0.70283 0.28562 0.0
H128 H 0.10268 0.773 0.376 0.0
H129 H 0.08571 0.66939 0.76943 0.0
H130 H 0.18699 0.73664 0.12097 0.0
H131 H 0.14596 0.78625 0.94688 0.0
C132 C 0.24968 0.9078 0.79862 0.0
C133 C 0.24852 0.90864 0.69612 0.0
N134 N 0.27082 0.91084 0.66029 0.0
N135 N 0.27261 0.90932 0.82722 0.0
C136 C 0.28492 0.91171 0.74155 0.0
H137 H 0.23486 0.90522 0.84874 0.0
Co138 Co 0.28502 0.90557 0.95495 0.0
C139 C 0.32771 0.87428 0.91731 0.0
O140 O 0.32408 0.86222 0.99966 0.0
N141 N 0.29762 0.90242 0.08531 0.0
C142 C 0.32183 0.90699 0.21556 0.0
C143 C 0.32039 0.90631 0.11326 0.0
C144 C 0.28556 0.90148 0.17249 0.0
N145 N 0.29978 0.90415 0.25265 0.0
O146 O 0.29873 0.93697 0.94731 0.0
H147 H 0.33487 0.90996 0.06256 0.0
H148 H 0.26651 0.90039 0.17801 0.0
O149 O 0.31386 0.89155 0.89543 0.0
C150 C 0.28953 0.95232 1.00587 0.0
O151 O 0.27201 0.94583 0.06449 0.0
N152 N 0.26958 0.87569 0.96358 0.0
C153 C 0.2412 0.83517 0.98373 0.0
C154 C 0.26059 0.83523 0.9181 0.0
C155 C 0.27444 0.85583 0.90814 0.0
C156 C 0.24953 0.87638 0.02047 0.0
C157 C 0.23557 0.85618 0.0343 0.0
H158 H 0.28833 0.85592 0.8529 0.0
H159 H 0.24374 0.89304 0.05227 0.0
H160 H 0.30397 0.91381 0.73874 0.0
H161 H 0.2326 0.90662 0.65161 0.0
H162 H 0.3376 0.91083 0.25885 0.0
H163 H 0.26481 0.81964 0.87413 0.0
H164 H 0.21989 0.85729 0.08094 0.0
C165 C 0.09438 0.24738 0.80577 0.0
C166 C 0.09358 0.24623 0.70327 0.0
N167 N 0.0914 0.26853 0.66752 0.0
N168 N 0.09288 0.27031 0.83445 0.0
C169 C 0.09054 0.28264 0.74882 0.0
H170 H 0.0969 0.23255 0.85585 0.0
Co171 Co 0.09649 0.2827 0.96229 0.0
C172 C 0.12783 0.32528 0.92671 0.0
O173 O 0.13967 0.3216 1.00967 0.0
N174 N 0.09949 0.29529 0.09276 0.0
C175 C 0.09472 0.31948 0.22298 0.0
C176 C 0.09538 0.31803 0.1207 0.0
C177 C 0.10059 0.28325 0.17993 0.0
N178 N 0.09779 0.29747 0.26005 0.0
O179 O 0.06524 0.29655 0.95362 0.0
H180 H 0.09161 0.33246 0.06996 0.0
H181 H 0.1019 0.26422 0.1855 0.0
O182 O 0.11065 0.31145 0.90358 0.0
C183 C 0.04977 0.28746 1.01163 0.0
O184 O 0.05608 0.26994 0.07061 0.0
N185 N 0.12627 0.26714 0.97174 0.0
C186 C 0.16661 0.23851 0.99232 0.0
C187 C 0.16674 0.25801 0.92734 0.0
C188 C 0.14623 0.27198 0.91711 0.0
C189 C 0.12539 0.24702 0.02804 0.0
C190 C 0.1455 0.23292 0.04208 0.0
H191 H 0.14629 0.28595 0.86227 0.0
H192 H 0.10866 0.24131 0.05922 0.0
H193 H 0.08844 0.30169 0.74611 0.0
H194 H 0.09557 0.23031 0.65872 0.0
H195 H 0.09074 0.33524 0.26628 0.0
H196 H 0.18243 0.26221 0.88404 0.0
H197 H 0.14426 0.21718 0.08822 0.0
C198 C 0.75197 0.08172 0.79797 0.0
C199 C 0.75373 0.0818 0.69562 0.0
N200 N 0.73634 0.0958 0.65896 0.0
N201 N 0.73349 0.09548 0.82568 0.0
C202 C 0.72468 0.10414 0.73949 0.0
H203 H 0.76296 0.07158 0.84854 0.0
Co204 Co 0.72142 0.09915 0.95407 0.0
C205 C 0.67624 0.12664 0.92101 0.0
O206 O 0.67927 0.13841 1.00462 0.0
N207 N 0.70938 0.10208 0.0844 0.0
C208 C 0.68644 0.09559 0.21667 0.0
C209 C 0.68751 0.09522 0.11449 0.0
C210 C 0.72143 0.10585 0.17017 0.0
N211 N 0.7079 0.10213 0.25161 0.0
O212 O 0.71058 0.06663 0.95252 0.0
H213 H 0.67359 0.08898 0.06539 0.0
H214 H 0.74012 0.10992 0.17385 0.0
O215 O 0.69119 0.11049 0.89663 0.0
C216 C 0.72655 0.05455 0.99732 0.0
O217 O 0.74516 0.06597 0.03237 0.0
N218 N 0.73474 0.12985 0.95864 0.0
C219 C 0.76181 0.17109 0.97997 0.0
C220 C 0.74115 0.1712 0.92141 0.0
C221 C 0.72788 0.15022 0.91091 0.0
C222 C 0.75587 0.1292 1.00811 0.0
C223 C 0.76929 0.14969 0.02245 0.0
H224 H 0.71271 0.15041 0.86196 0.0
H225 H 0.7625 0.11245 0.03617 0.0
H226 H 0.70982 0.11623 0.73537 0.0
H227 H 0.76614 0.07146 0.65178 0.0
H228 H 0.67152 0.08992 0.26163 0.0
H229 H 0.73545 0.18726 0.88383 0.0
H230 H 0.78578 0.14866 0.06396 0.0
C231 C 0.92449 0.75111 0.8061 0.0
C232 C 0.9244 0.7529 0.70375 0.0
N233 N 0.90988 0.73595 0.66699 0.0
N234 N 0.91019 0.73307 0.83372 0.0
C235 C 0.90124 0.72454 0.74748 0.0
H236 H 0.93498 0.76176 0.85676 0.0
Co237 Co 0.90612 0.72111 0.96202 0.0
C238 C 0.87843 0.67612 0.92737 0.0
O239 O 0.8664 0.67927 1.01022 0.0
N240 N 0.90277 0.70915 0.09226 0.0
C241 C 0.90879 0.68616 0.22474 0.0
C242 C 0.90926 0.68718 0.12258 0.0
C243 C 0.89914 0.72131 0.17792 0.0
N244 N 0.90258 0.70775 0.25949 0.0
O245 O 0.93863 0.70996 0.96232 0.0
H246 H 0.91536 0.67315 0.07371 0.0
H247 H 0.89543 0.74009 0.18143 0.0
O248 O 0.89474 0.69095 0.90395 0.0
C249 C 0.95073 0.72559 1.00919 0.0
O250 O 0.93939 0.74433 0.04355 0.0
N251 N 0.87545 0.73471 0.96504 0.0
C252 C 0.83427 0.76213 0.98428 0.0
C253 C 0.83419 0.74141 0.92605 0.0
C254 C 0.85511 0.72796 0.91662 0.0
C255 C 0.8761 0.75585 0.01452 0.0
C256 C 0.85565 0.76945 0.02768 0.0
H257 H 0.85491 0.71273 0.86793 0.0
H258 H 0.89282 0.76235 0.04336 0.0
H259 H 0.88874 0.71003 0.74332 0.0
H260 H 0.93508 0.76499 0.65996 0.0
H261 H 0.91422 0.67118 0.26986 0.0
H262 H 0.81818 0.73576 0.88788 0.0
H263 H 0.85673 0.78598 0.06898 0.0
C264 C 0.74935 0.60272 0.72747 0.0
C265 C 0.74823 0.60146 0.82977 0.0
N266 N 0.76988 0.5953 0.86469 0.0
N267 N 0.77168 0.59764 0.69777 0.0
C268 C 0.78355 0.59263 0.78267 0.0
H269 H 0.735 0.60784 0.6784 0.0
Co270 Co 0.78453 0.59933 0.56966 0.0
C271 C 0.83151 0.62492 0.61054 0.0
O272 O 0.83324 0.63471 0.52215 0.0
N273 N 0.79745 0.60014 0.44026 0.0
C274 C 0.82063 0.591 0.31123 0.0
C275 C 0.81933 0.59259 0.41334 0.0
C276 C 0.78563 0.60228 0.35292 0.0
N277 N 0.79928 0.59695 0.27324 0.0
O278 O 0.7947 0.56676 0.57961 0.0
H279 H 0.83306 0.58713 0.46488 0.0
H280 H 0.767 0.60642 0.34727 0.0
O281 O 0.81407 0.61111 0.63019 0.0
C282 C 0.77719 0.55439 0.54858 0.0
O283 O 0.7576 0.56565 0.52323 0.0
N284 N 0.77209 0.63041 0.55632 0.0
C285 C 0.74618 0.67241 0.53132 0.0
C286 C 0.7667 0.6721 0.59071 0.0
C287 C 0.77943 0.65081 0.6027 0.0
C288 C 0.75136 0.63032 0.50376 0.0
C289 C 0.73852 0.65115 0.48792 0.0
H290 H 0.79438 0.65075 0.65271 0.0
H291 H 0.7442 0.61368 0.47691 0.0
H292 H 0.80207 0.58749 0.7841 0.0
H293 H 0.73287 0.6058 0.87476 0.0
H294 H 0.83569 0.58452 0.26894 0.0
H295 H 0.77262 0.68805 0.6286 0.0
H296 H 0.72211 0.65041 0.44573 0.0
C297 C 0.41017 0.74943 0.71513 0.0
C298 C 0.4113 0.74851 0.81753 0.0
N299 N 0.41475 0.77075 0.85249 0.0
N300 N 0.41268 0.77218 0.68545 0.0
C301 C 0.41597 0.78459 0.77055 0.0
H302 H 0.40706 0.73453 0.66596 0.0
Co303 Co 0.41036 0.7849 0.55712 0.0
C304 C 0.3805 0.8295 0.59857 0.0
O305 O 0.37153 0.83189 0.50889 0.0
N306 N 0.40882 0.79782 0.42784 0.0
C307 C 0.41565 0.8218 0.29896 0.0
C308 C 0.4144 0.82028 0.40117 0.0
C309 C 0.40751 0.78593 0.34033 0.0
N310 N 0.41147 0.80005 0.26084 0.0
O311 O 0.44152 0.79844 0.57105 0.0
H312 H 0.41865 0.83441 0.45289 0.0
H313 H 0.40483 0.76705 0.33415 0.0
O314 O 0.39511 0.81269 0.61715 0.0
C315 C 0.45573 0.78187 0.54511 0.0
O316 O 0.44669 0.76116 0.52004 0.0
N317 N 0.38106 0.76919 0.53993 0.0
C318 C 0.34324 0.73743 0.51145 0.0
C319 C 0.34001 0.75866 0.56549 0.0
C320 C 0.35922 0.77432 0.5793 0.0
C321 C 0.38451 0.74842 0.49008 0.0
C322 C 0.36587 0.73285 0.47178 0.0
H323 H 0.35659 0.78979 0.62533 0.0
H324 H 0.40222 0.74356 0.46629 0.0
H325 H 0.41894 0.80359 0.77222 0.0
H326 H 0.40882 0.73277 0.86253 0.0
H327 H 0.42062 0.83737 0.25656 0.0
H328 H 0.32313 0.76275 0.60027 0.0
H329 H 0.36952 0.71704 0.42837 0.0
C330 C 0.25484 0.40473 0.72826 0.0
C331 C 0.25592 0.40585 0.83063 0.0
N332 N 0.23383 0.40999 0.86591 0.0
N333 N 0.23214 0.4079 0.69893 0.0
C334 C 0.21993 0.41161 0.78415 0.0
H335 H 0.26957 0.40109 0.67881 0.0
Co336 Co 0.21943 0.40569 0.57073 0.0
C337 C 0.17384 0.3775 0.61078 0.0
O338 O 0.17161 0.36836 0.52127 0.0
N339 N 0.20666 0.40434 0.44133 0.0
C340 C 0.18304 0.41197 0.31199 0.0
C341 C 0.18441 0.41067 0.41414 0.0
C342 C 0.21861 0.40269 0.35415 0.0
N343 N 0.20469 0.40709 0.27433 0.0
O344 O 0.20648 0.4371 0.58374 0.0
H345 H 0.17038 0.41543 0.4655 0.0
H346 H 0.23743 0.39949 0.34863 0.0
O347 O 0.19101 0.39162 0.63023 0.0
C348 C 0.22245 0.45202 0.55931 0.0
O349 O 0.24367 0.44403 0.53559 0.0
N350 N 0.23415 0.37562 0.55539 0.0
C351 C 0.26232 0.33513 0.52884 0.0
C352 C 0.24157 0.33412 0.5865 0.0
C353 C 0.22772 0.35464 0.59929 0.0
C354 C 0.25502 0.37704 0.50422 0.0
C355 C 0.26903 0.35696 0.48772 0.0
H356 H 0.21254 0.3536 0.64779 0.0
H357 H 0.26126 0.39414 0.47849 0.0
H358 H 0.20102 0.41511 0.78599 0.0
H359 H 0.27164 0.40287 0.87539 0.0
H360 H 0.16767 0.4175 0.26933 0.0
H361 H 0.23628 0.31771 0.62232 0.0
H362 H 0.2855 0.3587 0.44656 0.0
C363 C 0.60167 0.25618 0.72348 0.0
C364 C 0.60042 0.25729 0.8258 0.0
N365 N 0.59478 0.23552 0.86072 0.0
N366 N 0.5971 0.23375 0.69377 0.0
C367 C 0.59241 0.22178 0.77868 0.0
H368 H 0.60644 0.27062 0.6744 0.0
Co369 Co 0.59911 0.22095 0.56557 0.0
C370 C 0.62535 0.17433 0.60578 0.0
O371 O 0.63531 0.17288 0.51756 0.0
N372 N 0.60024 0.20807 0.43606 0.0
C373 C 0.59145 0.18477 0.3069 0.0
C374 C 0.59298 0.1861 0.40901 0.0
C375 C 0.60227 0.21991 0.3488 0.0
N376 N 0.59714 0.20619 0.26905 0.0
O377 O 0.56669 0.21031 0.57495 0.0
H378 H 0.58765 0.17232 0.46044 0.0
H379 H 0.60618 0.23858 0.34324 0.0
O380 O 0.61126 0.19155 0.6258 0.0
C381 C 0.55414 0.22764 0.54347 0.0
O382 O 0.56518 0.24734 0.51825 0.0
N383 N 0.63001 0.23384 0.55288 0.0
C384 C 0.67151 0.26065 0.53069 0.0
C385 C 0.67147 0.24006 0.58957 0.0
C386 C 0.65042 0.22688 0.60012 0.0
C387 C 0.62964 0.25458 0.50057 0.0
C388 C 0.65023 0.26787 0.48613 0.0
H389 H 0.65053 0.21188 0.64985 0.0
H390 H 0.61293 0.26144 0.47311 0.0
H391 H 0.5877 0.20315 0.7801 0.0
H392 H 0.60441 0.27275 0.87078 0.0
H393 H 0.58515 0.16966 0.26451 0.0
H394 H 0.68742 0.23447 0.62826 0.0
H395 H 0.64926 0.2843 0.44424 0.0
C396 C 0.74538 0.40479 0.30587 0.0
C397 C 0.74424 0.4061 0.20355 0.0
N398 N 0.76596 0.41196 0.16855 0.0
N399 N 0.76777 0.40955 0.33555 0.0
C400 C 0.77967 0.41444 0.25061 0.0
H401 H 0.73101 0.39975 0.35493 0.0
Co402 Co 0.78068 0.40715 0.46349 0.0
C403 C 0.82739 0.38123 0.41949 0.0
O404 O 0.8294 0.37105 0.50701 0.0
N405 N 0.79363 0.40563 0.59286 0.0
C406 C 0.81695 0.41416 0.72223 0.0
C407 C 0.81568 0.4126 0.6201 0.0
C408 C 0.78171 0.40379 0.68007 0.0
N409 N 0.79544 0.40877 0.76001 0.0
O410 O 0.79141 0.43955 0.45567 0.0
H411 H 0.82953 0.41784 0.56882 0.0
H412 H 0.76296 0.40023 0.68532 0.0
O413 O 0.80997 0.39523 0.4019 0.0
C414 C 0.77466 0.45231 0.49096 0.0
O415 O 0.75493 0.44156 0.518 0.0
N416 N 0.76789 0.37612 0.47463 0.0
C417 C 0.74209 0.33396 0.49674 0.0
C418 C 0.76245 0.33461 0.43655 0.0
C419 C 0.7751 0.35597 0.42599 0.0
C420 C 0.74729 0.37593 0.52807 0.0
C421 C 0.73451 0.35499 0.54244 0.0
H422 H 0.7899 0.35626 0.3753 0.0
H423 H 0.74018 0.39241 0.55672 0.0
H424 H 0.79828 0.41923 0.24914 0.0
H425 H 0.72884 0.4019 0.1586 0.0
H426 H 0.83212 0.42031 0.76461 0.0
H427 H 0.76832 0.31888 0.39696 0.0
H428 H 0.71821 0.3555 0.58537 0.0
C429 C 0.60317 0.74918 0.30108 0.0
C430 C 0.60193 0.74806 0.19872 0.0
N431 N 0.59698 0.76998 0.1635 0.0
N432 N 0.59926 0.77176 0.33058 0.0
C433 C 0.59493 0.78381 0.24547 0.0
H434 H 0.60763 0.73466 0.35032 0.0
Co435 Co 0.60217 0.7846 0.45846 0.0
C436 C 0.62879 0.83077 0.41495 0.0
O437 O 0.63913 0.83242 0.50234 0.0
N438 N 0.60426 0.79754 0.58802 0.0
C439 C 0.59613 0.82097 0.71758 0.0
C440 C 0.59754 0.81967 0.61545 0.0
C441 C 0.60612 0.78561 0.6752 0.0
N442 N 0.60135 0.7994 0.75521 0.0
O443 O 0.56994 0.79596 0.45184 0.0
H444 H 0.59233 0.83356 0.5643 0.0
H445 H 0.60947 0.76682 0.68041 0.0
O446 O 0.6145 0.81364 0.39682 0.0
C447 C 0.55741 0.78006 0.49446 0.0
O448 O 0.56825 0.7606 0.52427 0.0
N449 N 0.63292 0.77117 0.46867 0.0
C450 C 0.67454 0.74453 0.4916 0.0
C451 C 0.67434 0.7649 0.43142 0.0
C452 C 0.65325 0.77799 0.4205 0.0
C453 C 0.63266 0.75055 0.52184 0.0
C454 C 0.65332 0.73735 0.53661 0.0
H455 H 0.65328 0.79286 0.3702 0.0
H456 H 0.61602 0.74383 0.55039 0.0
H457 H 0.59088 0.8026 0.2438 0.0
H458 H 0.60558 0.73248 0.15393 0.0
H459 H 0.59012 0.83618 0.76011 0.0
H460 H 0.69025 0.77045 0.39237 0.0
H461 H 0.65247 0.72107 0.57955 0.0
C462 C 0.24887 0.57594 0.30662 0.0
C463 C 0.25065 0.57597 0.20423 0.0
N464 N 0.23554 0.59246 0.168 0.0
N465 N 0.23264 0.59226 0.33481 0.0
C466 C 0.22522 0.60228 0.24887 0.0
H467 H 0.2582 0.56419 0.35689 0.0
Co468 Co 0.22117 0.59773 0.46319 0.0
C469 C 0.17847 0.62869 0.42622 0.0
O470 O 0.18265 0.64112 0.50729 0.0
N471 N 0.20955 0.60258 0.59354 0.0
C472 C 0.18615 0.59899 0.72639 0.0
C473 C 0.18708 0.59826 0.62421 0.0
C474 C 0.22202 0.60522 0.67908 0.0
N475 N 0.20823 0.60317 0.76084 0.0
O476 O 0.2077 0.56612 0.46594 0.0
H477 H 0.17254 0.59334 0.57567 0.0
H478 H 0.24107 0.60714 0.68242 0.0
O479 O 0.19199 0.61113 0.40462 0.0
C480 C 0.22238 0.55354 0.51592 0.0
O481 O 0.24179 0.56396 0.5487 0.0
N482 N 0.23715 0.62711 0.46437 0.0
C483 C 0.2699 0.66454 0.47737 0.0
C484 C 0.24859 0.66719 0.42344 0.0
C485 C 0.2325 0.64811 0.41686 0.0
C486 C 0.25819 0.62404 0.5125 0.0
C487 C 0.27428 0.64256 0.52315 0.0
H488 H 0.21702 0.65011 0.37031 0.0
H489 H 0.2627 0.60677 0.54218 0.0
H490 H 0.21226 0.61642 0.24526 0.0
H491 H 0.26139 0.56397 0.16003 0.0
H492 H 0.17076 0.59501 0.77177 0.0
H493 H 0.24475 0.68348 0.38372 0.0
H494 H 0.29022 0.63937 0.56631 0.0
C495 C 0.40568 0.25878 0.29856 0.0
C496 C 0.40692 0.2599 0.19623 0.0
N497 N 0.41203 0.238 0.16093 0.0
N498 N 0.40975 0.23624 0.3279 0.0
C499 C 0.41413 0.22419 0.24276 0.0
H500 H 0.4012 0.2733 0.34791 0.0
Co501 Co 0.40719 0.22346 0.45581 0.0
C502 C 0.38032 0.17734 0.41354 0.0
O503 O 0.37006 0.17606 0.50118 0.0
N504 N 0.4055 0.21059 0.58522 0.0
C505 C 0.41367 0.18711 0.71437 0.0
C506 C 0.41221 0.18845 0.61225 0.0
C507 C 0.40372 0.2225 0.67255 0.0
N508 N 0.40848 0.20867 0.7523 0.0
O509 O 0.43949 0.21231 0.448 0.0
H510 H 0.41731 0.17454 0.56083 0.0
H511 H 0.40033 0.24128 0.67813 0.0
O512 O 0.39479 0.19427 0.3946 0.0
C513 C 0.45212 0.22915 0.48346 0.0
O514 O 0.44121 0.24884 0.51017 0.0
N515 N 0.37643 0.2368 0.46704 0.0
C516 C 0.33498 0.26376 0.48863 0.0
C517 C 0.33513 0.24338 0.42834 0.0
C518 C 0.35614 0.23013 0.41807 0.0
C519 C 0.37673 0.25742 0.52042 0.0
C520 C 0.35614 0.27077 0.53462 0.0
H521 H 0.35612 0.21531 0.36733 0.0
H522 H 0.39338 0.26411 0.54911 0.0
H523 H 0.41835 0.20544 0.24099 0.0
H524 H 0.40322 0.27545 0.1515 0.0
H525 H 0.41961 0.17186 0.75669 0.0
H526 H 0.31926 0.23797 0.38855 0.0
H527 H 0.35702 0.28705 0.57771 0.0
C528 C 0.3074 0.11022 0.58173 0.0
C529 C 0.29193 0.10345 0.65853 0.0
H530 H 0.31339 0.11255 0.42561 0.0
C531 C 0.26932 0.09454 0.63336 0.0
H532 H 0.32484 0.11732 0.59865 0.0
C533 C 0.26264 0.09187 0.53353 0.0
C534 C 0.27835 0.09817 0.45657 0.0
H535 H 0.25703 0.08891 0.69062 0.0
H536 H 0.24524 0.08469 0.51666 0.0
C537 C 0.30069 0.10769 0.4822 0.0
C538 C 0.89271 0.30859 0.58166 0.0
C539 C 0.89896 0.2929 0.65849 0.0
H540 H 0.89049 0.31459 0.4255 0.0
C541 C 0.90705 0.26997 0.63334 0.0
H542 H 0.88624 0.32628 0.59854 0.0
C543 C 0.90941 0.26315 0.53352 0.0
C544 C 0.9036 0.27905 0.45653 0.0
H545 H 0.91227 0.2575 0.6906 0.0
H546 H 0.91594 0.24549 0.51669 0.0
C547 C 0.89493 0.30174 0.48213 0.0
C548 C 0.74561 0.91709 0.5349 0.0
C549 C 0.72965 0.91083 0.45882 0.0
H550 H 0.75124 0.92168 0.69109 0.0
C551 C 0.70638 0.90406 0.48508 0.0
H552 H 0.76354 0.92268 0.51733 0.0
C553 C 0.69931 0.90344 0.58475 0.0
C554 C 0.71534 0.90948 0.66088 0.0
H555 H 0.69374 0.89865 0.42891 0.0
H556 H 0.68143 0.89768 0.60231 0.0
C557 C 0.73855 0.91645 0.63468 0.0
C558 C 0.09036 0.74441 0.54601 0.0
C559 C 0.09404 0.72786 0.46896 0.0
H560 H 0.08794 0.75057 0.70256 0.0
C561 C 0.09809 0.70391 0.49468 0.0
H562 H 0.08674 0.76288 0.52952 0.0
C563 C 0.09893 0.69684 0.59439 0.0
C564 C 0.09565 0.71347 0.67129 0.0
H565 H 0.10113 0.69057 0.43823 0.0
H566 H 0.10262 0.67839 0.61119 0.0
C567 C 0.09114 0.73732 0.64572 0.0
C568 C 0.26974 0.9146 0.38075 0.0
C569 C 0.29254 0.90613 0.35549 0.0
H570 H 0.24514 0.92314 0.49711 0.0
C571 C 0.30817 0.89971 0.43243 0.0
H572 H 0.25738 0.92018 0.32368 0.0
C573 C 0.30113 0.90146 0.532 0.0
C574 C 0.2783 0.9098 0.55741 0.0
H575 H 0.32572 0.89288 0.41561 0.0
H576 H 0.31345 0.89572 0.58878 0.0
C577 C 0.26272 0.91639 0.48041 0.0
C578 C 0.10063 0.29886 0.53933 0.0
C579 C 0.0924 0.27601 0.56468 0.0
H580 H 0.10904 0.32347 0.42297 0.0
C581 C 0.08584 0.2604 0.48766 0.0
H582 H 0.10633 0.31121 0.59613 0.0
C583 C 0.08756 0.26742 0.38803 0.0
C584 C 0.09591 0.29024 0.36284 0.0
H585 H 0.07916 0.24281 0.5043 0.0
H586 H 0.082 0.25504 0.33092 0.0
C587 C 0.10229 0.3059 0.43978 0.0
C588 C 0.70602 0.10452 0.5303 0.0
C589 C 0.72964 0.09888 0.55599 0.0
H590 H 0.68073 0.11027 0.41388 0.0
C591 C 0.74624 0.09533 0.47923 0.0
H592 H 0.69261 0.10709 0.58678 0.0
C593 C 0.73929 0.09689 0.37947 0.0
C594 C 0.71553 0.102 0.35412 0.0
H595 H 0.7646 0.09116 0.49614 0.0
H596 H 0.75242 0.0934 0.32246 0.0
C597 C 0.69908 0.10607 0.43079 0.0
C598 C 0.90017 0.70596 0.53812 0.0
C599 C 0.90653 0.72938 0.56395 0.0
H600 H 0.89365 0.68086 0.42155 0.0
C601 C 0.9105 0.74588 0.48726 0.0
H602 H 0.89723 0.69262 0.59451 0.0
C603 C 0.90867 0.73899 0.38743 0.0
C604 C 0.90288 0.71541 0.36199 0.0
H605 H 0.91522 0.7641 0.50427 0.0
H606 H 0.91251 0.75201 0.33043 0.0
C607 C 0.89838 0.69908 0.43858 0.0
C608 C 0.80872 0.59779 0.09317 0.0
C609 C 0.79193 0.5958 0.17015 0.0
H610 H 0.81512 0.59902 0.93703 0.0
C611 C 0.76786 0.59263 0.14453 0.0
H612 H 0.82737 0.60041 0.10981 0.0
C613 C 0.76073 0.592 0.04479 0.0
C614 C 0.77745 0.59446 0.96768 0.0
H615 H 0.75442 0.5904 0.20131 0.0
H616 H 0.74206 0.58948 0.02836 0.0
C617 C 0.80161 0.59704 0.99344 0.0
C618 C 0.41893 0.76932 0.13194 0.0
C619 C 0.41291 0.79284 0.15771 0.0
H620 H 0.4247 0.74401 0.01556 0.0
C621 C 0.4083 0.80915 0.081 0.0
H622 H 0.42317 0.75636 0.18866 0.0
C623 C 0.40929 0.80206 0.98124 0.0
C624 C 0.41488 0.77841 0.95538 0.0
H625 H 0.40343 0.82733 0.09807 0.0
H626 H 0.40514 0.81509 0.92482 0.0
C627 C 0.41988 0.76221 0.03223 0.0
C628 C 0.23566 0.41351 0.1456 0.0
C629 C 0.21195 0.40835 0.17128 0.0
H630 H 0.26107 0.41858 0.02923 0.0
C631 C 0.19543 0.40449 0.09449 0.0
H632 H 0.2488 0.41714 0.20241 0.0
C633 C 0.20247 0.40544 0.99476 0.0
C634 C 0.22628 0.41021 0.96891 0.0
H635 H 0.1771 0.40027 0.11143 0.0
H636 H 0.18924 0.40192 0.93837 0.0
C637 C 0.24272 0.41442 0.04585 0.0
C638 C 0.59814 0.19676 0.08896 0.0
C639 C 0.59587 0.21352 0.16604 0.0
H640 H 0.59942 0.19036 0.9328 0.0
C641 C 0.59224 0.23753 0.1406 0.0
H642 H 0.60111 0.17817 0.1055 0.0
C643 C 0.59143 0.24464 0.04091 0.0
C644 C 0.59416 0.22795 0.96369 0.0
H645 H 0.58978 0.25092 0.1975 0.0
H646 H 0.58854 0.26325 0.02462 0.0
C647 C 0.59721 0.20385 0.98929 0.0
C648 C 0.79769 0.40954 0.03996 0.0
C649 C 0.77356 0.41244 0.06551 0.0
H650 H 0.82343 0.40546 0.92402 0.0
C651 C 0.75687 0.41481 0.98812 0.0
H652 H 0.8112 0.40764 0.09652 0.0
C653 C 0.76401 0.41377 0.88842 0.0
C654 C 0.78806 0.41026 0.86305 0.0
H655 H 0.73823 0.41758 1.00428 0.0
H656 H 0.75059 0.41597 0.8315 0.0
C657 C 0.80481 0.40834 0.94031 0.0
C658 C 0.59413 0.76097 0.98288 0.0
C659 C 0.5969 0.77758 0.06044 0.0
H660 H 0.59294 0.75476 0.82612 0.0
C661 C 0.60057 0.80161 0.03508 0.0
H662 H 0.59079 0.74243 0.99885 0.0
C663 C 0.60204 0.80869 0.93551 0.0
C664 C 0.59969 0.79202 0.85813 0.0
H665 H 0.60282 0.81504 0.09172 0.0
H666 H 0.60546 0.82722 0.91933 0.0
C667 C 0.59548 0.76808 0.88324 0.0
C668 C 0.20687 0.60579 0.03952 0.0
C669 C 0.2294 0.59669 0.06505 0.0
H670 H 0.18264 0.6152 0.92322 0.0
C671 C 0.24531 0.59087 0.98809 0.0
H672 H 0.194 0.61026 0.09609 0.0
C673 C 0.23866 0.59356 0.88833 0.0
C674 C 0.21588 0.60206 0.86322 0.0
H675 H 0.26286 0.58404 1.00484 0.0
H676 H 0.25111 0.58826 0.83108 0.0
C677 C 0.2002 0.6084 0.94005 0.0
C678 C 0.40865 0.2064 0.03209 0.0
C679 C 0.41231 0.23041 0.05785 0.0
H680 H 0.40399 0.1808 0.9158 0.0
C681 C 0.41531 0.24702 0.98068 0.0
H682 H 0.40621 0.19297 0.08852 0.0
C683 C 0.41419 0.23993 0.88093 0.0
C684 C 0.40999 0.216 0.85536 0.0
H685 H 0.41864 0.26556 0.99706 0.0
H686 H 0.41689 0.25325 0.82409 0.0
C687 C 0.40742 0.19932 0.93239 0.0
C688 C 0.34759 0.12956 0.26722 0.0
C689 C 0.34581 0.14018 0.1726 0.0
H690 H 0.35972 0.13304 0.41834 0.0
C691 C 0.35774 0.16177 0.156 0.0
H692 H 0.33899 0.11273 0.28206 0.0
C693 C 0.36986 0.17314 0.23338 0.0
C694 C 0.3705 0.16326 0.32941 0.0
H695 H 0.35681 0.17054 0.08438 0.0
H696 H 0.37742 0.19046 0.21923 0.0
C697 C 0.35955 0.14113 0.3452 0.0
C698 C 0.83086 0.3712 0.23865 0.0
C699 C 0.84117 0.37168 0.33398 0.0
H700 H 0.83283 0.35855 0.08891 0.0
C701 C 0.86344 0.3608 0.34763 0.0
H702 H 0.81341 0.37864 0.22611 0.0
C703 C 0.87468 0.34904 0.2683 0.0
C704 C 0.86364 0.34746 0.17437 0.0
H705 H 0.87185 0.36083 0.42017 0.0
H706 H 0.8916 0.34041 0.28155 0.0
C707 C 0.84195 0.35937 0.15986 0.0
C708 C 0.63914 0.83464 0.23463 0.0
C709 C 0.63825 0.84479 0.33022 0.0
H710 H 0.65209 0.83713 0.08551 0.0
C711 C 0.64856 0.86726 0.34504 0.0
H712 H 0.63207 0.81706 0.22132 0.0
C713 C 0.66017 0.87889 0.26659 0.0
C714 C 0.66224 0.86806 0.1724 0.0
H715 H 0.64814 0.87557 0.4178 0.0
H716 H 0.6682 0.89601 0.28078 0.0
C717 C 0.65089 0.84612 0.15669 0.0
C718 C 0.15968 0.62748 0.25566 0.0
C719 C 0.16187 0.63829 0.34984 0.0
H720 H 0.14685 0.63063 0.10546 0.0
C721 C 0.15002 0.65994 0.36671 0.0
H722 H 0.16821 0.61059 0.2406 0.0
C723 C 0.13756 0.67117 0.28998 0.0
C724 C 0.13649 0.66108 0.19428 0.0
H725 H 0.15124 0.66886 0.43803 0.0
H726 H 0.12999 0.6885 0.30438 0.0
C727 C 0.14737 0.63889 0.1783 0.0
C728 C 0.36792 0.83169 0.77708 0.0
C729 C 0.36967 0.84259 0.6832 0.0
H730 H 0.35361 0.8331 0.92441 0.0
C731 C 0.35936 0.86511 0.66986 0.0
H732 H 0.37514 0.81411 0.78932 0.0
C733 C 0.34704 0.87616 0.74804 0.0
C734 C 0.34417 0.86466 0.84033 0.0
H735 H 0.36049 0.87401 0.59856 0.0
H736 H 0.33925 0.89344 0.73518 0.0
C737 C 0.35536 0.84256 0.85461 0.0
C738 C 0.12649 0.34455 0.75741 0.0
C739 C 0.13765 0.34176 0.85053 0.0
H740 H 0.12923 0.3578 0.60789 0.0
C741 C 0.15966 0.35298 0.86642 0.0
H742 H 0.10929 0.33672 0.74332 0.0
C743 C 0.17082 0.36543 0.78955 0.0
C744 C 0.16031 0.36704 0.69479 0.0
H745 H 0.16884 0.35129 0.93694 0.0
H746 H 0.18836 0.37259 0.803 0.0
C747 C 0.13783 0.35678 0.67992 0.0
C748 C 0.64739 0.15762 0.86278 0.0
C749 C 0.65964 0.13626 0.84462 0.0
H750 H 0.62762 0.18646 0.80148 0.0
C751 C 0.65811 0.12604 0.74905 0.0
H752 H 0.64811 0.16611 0.93513 0.0
C753 C 0.64617 0.13786 0.67172 0.0
C754 C 0.63503 0.15987 0.68904 0.0
H755 H 0.66693 0.10936 0.73295 0.0
H756 H 0.64623 0.13011 0.59787 0.0
C757 C 0.63534 0.16927 0.78601 0.0
C758 C 0.83626 0.63499 0.79096 0.0
C759 C 0.84582 0.63465 0.69432 0.0
H760 H 0.83908 0.64785 0.94011 0.0
C761 C 0.8678 0.64588 0.67776 0.0
H762 H 0.81908 0.62721 0.80589 0.0
C763 C 0.87941 0.65793 0.75544 0.0
C764 C 0.86902 0.65947 0.85063 0.0
H765 H 0.87567 0.64594 0.60419 0.0
H766 H 0.89605 0.66684 0.73988 0.0
C767 C 0.8477 0.64713 0.86807 0.0
C768 C 0.29823 0.0154 0.09317 0.0
C769 C 0.29786 0.02769 1.00249 0.0
H770 H 0.29564 0.98142 0.16478 0.0
C771 C 0.29867 0.01472 0.91293 0.0
H772 H 0.29726 0.025 0.16303 0.0
C773 C 0.29837 0.98982 0.91384 0.0
C774 C 0.29647 0.9776 1.00435 0.0
H775 H 0.29821 0.02389 0.84206 0.0
H776 H 0.29759 0.98026 0.84385 0.0
C777 C 0.29717 0.99053 0.09403 0.0
C778 C 0.01148 0.29546 0.09818 0.0
C779 C 0.02456 0.29458 1.00906 0.0
H780 H 0.97687 0.29608 0.16567 0.0
C781 C 0.01257 0.29661 0.91799 0.0
H782 H 0.02042 0.29383 0.16932 0.0
C783 C 0.98769 0.29726 0.91597 0.0
C784 C 0.97455 0.29667 1.00498 0.0
H785 H 0.02228 0.29572 0.84843 0.0
H786 H 0.97866 0.29696 0.8447 0.0
C787 C 0.98663 0.29687 0.09622 0.0
C788 C 0.74755 0.99178 0.04002 0.0
C789 C 0.72654 0.97841 0.03465 0.0
H790 H 0.76386 0.02581 0.03208 0.0
C791 C 0.70489 0.99027 0.0167 0.0
H792 H 0.76452 0.98325 0.05383 0.0
C793 C 0.70452 0.01511 1.00248 0.0
C794 C 0.72575 0.02832 1.00794 0.0
H795 H 0.68845 0.98032 1.01129 0.0
H796 H 0.68774 0.02395 0.98819 0.0
C797 C 0.74714 0.0163 0.02748 0.0
C798 C 0.98887 0.74454 0.05752 0.0
C799 C 0.97688 0.72411 0.02404 0.0
H800 H 0.02194 0.7608 0.09442 0.0
C801 C 0.99013 0.70322 1.00696 0.0
H802 H 0.97939 0.76096 0.07187 0.0
C803 C 0.01498 0.70308 0.02179 0.0
C804 C 0.02679 0.72393 0.05225 0.0
H805 H 0.98137 0.68716 0.98178 0.0
H806 H 0.025 0.68706 1.00597 0.0
C807 C 0.01338 0.74448 0.07075 0.0
C808 C 0.75551 0.49141 0.52071 0.0
C809 C 0.7765 0.47844 0.50445 0.0
H810 H 0.73948 0.52508 0.54838 0.0
C811 C 0.7984 0.49059 0.50615 0.0
H812 H 0.73831 0.48273 0.52016 0.0
C813 C 0.7991 0.51531 0.5239 0.0
C814 C 0.77787 0.52814 0.53871 0.0
H815 H 0.8149 0.48101 0.49474 0.0
H816 H 0.81606 0.52442 0.52383 0.0
C817 C 0.75618 0.51581 0.53711 0.0
C818 C 0.49527 0.76495 0.57875 0.0
C819 C 0.48184 0.78434 0.54537 0.0
H820 H 0.52922 0.74858 0.58957 0.0
C821 C 0.49354 0.80359 0.49998 0.0
H822 H 0.4867 0.74989 0.61397 0.0
C823 C 0.51832 0.80274 0.48407 0.0
C824 C 0.53155 0.78269 0.51409 0.0
H825 H 0.48343 0.8186 0.47234 0.0
H826 H 0.52695 0.81737 0.44622 0.0
C827 C 0.51972 0.76418 0.56393 0.0
C828 C 0.20099 0.4891 0.50422 0.0
C829 C 0.21862 0.47793 0.56202 0.0
H830 H 0.18829 0.52218 0.44267 0.0
C831 C 0.23556 0.49189 0.61091 0.0
H832 H 0.18794 0.47853 0.46464 0.0
C833 C 0.23571 0.51645 0.5991 0.0
C834 C 0.21918 0.52779 0.53632 0.0
H835 H 0.24934 0.48367 0.65567 0.0
H836 H 0.24954 0.52643 0.63663 0.0
C837 C 0.2013 0.51397 0.49111 0.0
C838 C 0.51534 0.24822 0.53118 0.0
C839 C 0.52791 0.22666 0.53301 0.0
H840 H 0.4821 0.26575 0.51341 0.0
C841 C 0.51536 0.2053 0.51776 0.0
H842 H 0.52438 0.26501 0.54277 0.0
C843 C 0.49065 0.20573 0.49939 0.0
C844 C 0.47825 0.22751 0.49746 0.0
H845 H 0.52467 0.18843 0.51784 0.0
H846 H 0.48127 0.18914 0.48768 0.0
C847 C 0.49097 0.24863 0.51411 0.0
C848 C 0.21551 0.19477 0.9294 0.0
C849 C 0.22339 0.18798 0.02451 0.0
H850 H 0.1916 0.21657 0.84469 0.0
C851 C 0.2139 0.1994 0.10856 0.0
H852 H 0.22261 0.18621 0.86351 0.0
C853 C 0.19595 0.21645 0.09787 0.0
C854 C 0.18755 0.22272 1.00288 0.0
H855 H 0.21958 0.19433 0.18263 0.0
H856 H 0.18822 0.22437 0.16392 0.0
C857 C 0.19791 0.21217 0.91862 0.0
C858 C 0.8049 0.22055 0.92135 0.0
C859 C 0.81179 0.22782 0.01727 0.0
H860 H 0.783 0.19715 0.83438 0.0
C861 C 0.80016 0.21817 0.10032 0.0
H862 H 0.81366 0.22777 0.85626 0.0
C863 C 0.78297 0.20046 0.08783 0.0
C864 C 0.77678 0.1925 0.99207 0.0
H865 H 0.80531 0.22337 0.17494 0.0
H866 H 0.77508 0.19235 0.15306 0.0
C867 C 0.78734 0.20318 0.9088 0.0
C868 C 0.8055 0.78482 0.09001 0.0
C869 C 0.81289 0.77732 0.99506 0.0
H870 H 0.78326 0.80844 0.17418 0.0
C871 C 0.80157 0.7867 0.91066 0.0
H872 H 0.81401 0.77783 0.15617 0.0
C873 C 0.78425 0.80443 0.92092 0.0
C874 C 0.77766 0.81273 0.01578 0.0
H875 H 0.8071 0.78135 0.83672 0.0
H876 H 0.77662 0.81229 0.85462 0.0
C877 C 0.78787 0.80221 0.10032 0.0
C878 C 0.2022 0.78782 0.09991 0.0
C879 C 0.19049 0.77858 0.01607 0.0
H880 H 0.22745 0.81323 0.15509 0.0
C881 C 0.19722 0.78648 0.92093 0.0
H882 H 0.19717 0.78218 0.17404 0.0
C883 C 0.21476 0.80394 0.90999 0.0
C884 C 0.22551 0.81414 0.99415 0.0
H885 H 0.18839 0.77963 0.85519 0.0
H886 H 0.21902 0.81033 0.83609 0.0
C887 C 0.21939 0.80562 0.08909 0.0
C888 C 0.70672 0.71952 0.41668 0.0
C889 C 0.69598 0.72938 0.50154 0.0
H890 H 0.73116 0.6935 0.35996 0.0
C891 C 0.70397 0.72236 0.59622 0.0
H892 H 0.7007 0.72448 0.34296 0.0
C893 C 0.72164 0.70498 0.60593 0.0
C894 C 0.73125 0.69399 0.52112 0.0
H895 H 0.69589 0.7297 0.66271 0.0
H896 H 0.72673 0.6991 0.67969 0.0
C897 C 0.72404 0.70179 0.42641 0.0
C898 C 0.32993 0.69493 0.49771 0.0
C899 C 0.32397 0.71922 0.50149 0.0
H900 H 0.31825 0.65929 0.48061 0.0
C901 C 0.29975 0.72556 0.49552 0.0
H902 H 0.34816 0.68899 0.50473 0.0
C903 C 0.28208 0.708 0.48659 0.0
C904 C 0.28826 0.68373 0.48255 0.0
H905 H 0.2944 0.74405 0.49723 0.0
H906 H 0.26362 0.71344 0.48443 0.0
C907 C 0.3125 0.67761 0.48631 0.0
C908 C 0.3051 0.2855 0.59244 0.0
C909 C 0.31366 0.27906 0.49791 0.0
H910 H 0.28162 0.30803 0.67604 0.0
C911 C 0.30355 0.28955 0.41308 0.0
H912 H 0.31273 0.2777 0.65888 0.0
C913 C 0.28612 0.30718 0.42295 0.0
C914 C 0.27817 0.31423 0.5177 0.0
H915 H 0.31004 0.28504 0.33953 0.0
H916 H 0.27932 0.31581 0.35674 0.0
C917 C 0.28731 0.30275 0.60222 0.0
C918 C 0.71808 0.30128 0.41989 0.0
C919 C 0.72731 0.31224 0.50552 0.0
H920 H 0.69295 0.27622 0.36107 0.0
C921 C 0.72007 0.30407 0.59961 0.0
H922 H 0.72321 0.30742 0.34657 0.0
C923 C 0.7031 0.28597 0.6079 0.0
C924 C 0.69275 0.2761 0.52222 0.0
H925 H 0.72693 0.31228 0.66669 0.0
H926 H 0.69704 0.28071 0.68117 0.0
C927 C 0.70076 0.28353 0.42817 0.0
loop_
_geom_bond_atom_site_label_1
_geom_bond_atom_site_label_2
_geom_bond_distance
_geom_bond_site_symmetry_2
_ccdc_geom_bond_type
C0 C1 1.351 . S
C0 N3 1.368 . S
C0 H5 0.931 . S
C1 C0 1.351 . S
C1 N2 1.373 . S
C1 H29 0.930 . S
N2 C1 1.373 . S
N2 C4 1.340 . S
N3 C0 1.368 . S
N3 C4 1.321 . S
N3 Co6 2.135 . S
C4 N2 1.340 . S
C4 N3 1.321 . S
C4 H28 0.930 . S
H5 C0 0.931 . S
Co6 N3 2.135 . S
Co6 N9 2.121 1_554 S
Co6 O14 2.055 . S
Co6 O17 2.039 . S
Co6 N20 2.140 . S
C7 O8 1.227 . S
C7 O17 1.265 . S
O8 C7 1.227 . S
N9 Co6 2.121 1_556 S
N9 C11 1.375 . S
N9 C12 1.313 . S
C10 C11 1.338 . S
C10 N13 1.377 . S
C10 H30 0.930 . S
C11 N9 1.375 . S
C11 C10 1.338 . S
C11 H15 0.931 . S
C12 N9 1.313 . S
C12 N13 1.344 . S
C12 H16 0.930 . S
N13 C10 1.377 . S
N13 C12 1.344 . S
O14 Co6 2.055 . S
O14 C18 1.253 . S
H15 C11 0.931 . S
H16 C12 0.930 . S
O17 Co6 2.039 . S
O17 C7 1.265 . S
C18 O14 1.253 . S
C18 O19 1.227 . S
O19 C18 1.227 . S
N20 Co6 2.140 . S
N20 C23 1.346 . S
N20 C24 1.345 . S
C21 C22 1.387 . S
C21 C25 1.391 1_554 S
C22 C21 1.387 . S
C22 C23 1.369 . S
C22 H31 0.929 . S
C23 N20 1.346 . S
C23 C22 1.369 . S
C23 H26 0.928 . S
C24 N20 1.345 . S
C24 C25 1.371 1_554 S
C24 H27 0.931 1_554 S
C25 C21 1.391 1_556 S
C25 C24 1.371 1_556 S
C25 H32 0.930 . S
H26 C23 0.928 . S
H27 C24 0.931 1_556 S
H28 C4 0.930 . S
H29 C1 0.930 . S
H30 C10 0.930 . S
H31 C22 0.929 . S
H32 C25 0.930 . S
C33 C34 1.351 . S
C33 N36 1.368 . S
C33 H38 0.931 . S
C34 C33 1.351 . S
C34 N35 1.373 . S
C34 H62 0.930 . S
N35 C34 1.373 . S
N35 C37 1.340 . S
N36 C33 1.368 . S
N36 C37 1.321 . S
N36 Co39 2.135 . S
C37 N35 1.340 . S
C37 N36 1.321 . S
C37 H61 0.930 . S
H38 C33 0.931 . S
Co39 N36 2.135 . S
Co39 N42 2.121 1_554 S
Co39 O47 2.055 . S
Co39 O50 2.039 . S
Co39 N53 2.140 . S
C40 O41 1.227 . S
C40 O50 1.265 . S
O41 C40 1.227 . S
N42 Co39 2.121 1_556 S
N42 C44 1.375 . S
N42 C45 1.313 . S
C43 C44 1.338 . S
C43 N46 1.377 . S
C43 H63 0.930 . S
C44 N42 1.375 . S
C44 C43 1.338 . S
C44 H48 0.931 . S
C45 N42 1.313 . S
C45 N46 1.344 . S
C45 H49 0.930 . S
N46 C43 1.377 . S
N46 C45 1.344 . S
O47 Co39 2.055 . S
O47 C51 1.253 . S
H48 C44 0.931 . S
H49 C45 0.930 . S
O50 Co39 2.039 . S
O50 C40 1.265 . S
C51 O47 1.253 . S
C51 O52 1.227 . S
O52 C51 1.227 . S
N53 Co39 2.140 . S
N53 C56 1.346 . S
N53 C57 1.345 . S
C54 C55 1.387 . S
C54 C58 1.391 1_554 S
C55 C54 1.387 . S
C55 C56 1.369 . S
C55 H64 0.929 . S
C56 N53 1.346 . S
C56 C55 1.369 . S
C56 H59 0.928 . S
C57 N53 1.345 . S
C57 C58 1.371 1_554 S
C57 H60 0.931 1_554 S
C58 C54 1.391 1_556 S
C58 C57 1.371 1_556 S
C58 H65 0.930 . S
H59 C56 0.928 . S
H60 C57 0.931 1_556 S
H61 C37 0.930 . S
H62 C34 0.930 . S
H63 C43 0.930 . S
H64 C55 0.929 . S
H65 C58 0.930 . S
C66 C67 1.351 . S
C66 N69 1.368 . S
C66 H71 0.931 . S
C67 C66 1.351 . S
C67 N68 1.373 . S
C67 H95 0.930 . S
N68 C67 1.373 . S
N68 C70 1.340 . S
N69 C66 1.368 . S
N69 C70 1.321 . S
N69 Co72 2.135 . S
C70 N68 1.340 . S
C70 N69 1.321 . S
C70 H94 0.930 . S
H71 C66 0.931 . S
Co72 N69 2.135 . S
Co72 N75 2.121 1_554 S
Co72 O80 2.055 . S
Co72 O83 2.039 . S
Co72 N86 2.140 . S
C73 O74 1.227 . S
C73 O83 1.265 . S
O74 C73 1.227 . S
N75 Co72 2.121 1_556 S
N75 C77 1.375 . S
N75 C78 1.313 . S
C76 C77 1.338 . S
C76 N79 1.377 . S
C76 H96 0.930 . S
C77 N75 1.375 . S
C77 C76 1.338 . S
C77 H81 0.931 . S
C78 N75 1.313 . S
C78 N79 1.344 . S
C78 H82 0.930 . S
N79 C76 1.377 . S
N79 C78 1.344 . S
O80 Co72 2.055 . S
O80 C84 1.253 . S
H81 C77 0.931 . S
H82 C78 0.930 . S
O83 Co72 2.039 . S
O83 C73 1.265 . S
C84 O80 1.253 . S
C84 O85 1.227 . S
O85 C84 1.227 . S
N86 Co72 2.140 . S
N86 C89 1.346 . S
N86 C90 1.345 . S
C87 C88 1.387 . S
C87 C91 1.391 1_554 S
C88 C87 1.387 . S
C88 C89 1.369 . S
C88 H97 0.929 . S
C89 N86 1.346 . S
C89 C88 1.369 . S
C89 H92 0.928 . S
C90 N86 1.345 . S
C90 C91 1.371 1_554 S
C90 H93 0.931 1_554 S
C91 C87 1.391 1_556 S
C91 C90 1.371 1_556 S
C91 H98 0.930 . S
H92 C89 0.928 . S
H93 C90 0.931 1_556 S
H94 C70 0.930 . S
H95 C67 0.930 . S
H96 C76 0.930 . S
H97 C88 0.929 . S
H98 C91 0.930 . S
C99 C100 1.351 . S
C99 N102 1.368 . S
C99 H104 0.931 . S
C100 C99 1.351 . S
C100 N101 1.373 . S
C100 H128 0.930 . S
N101 C100 1.373 . S
N101 C103 1.340 . S
N102 C99 1.368 . S
N102 C103 1.321 . S
N102 Co105 2.135 . S
C103 N101 1.340 . S
C103 N102 1.321 . S
C103 H127 0.930 . S
H104 C99 0.931 . S
Co105 N102 2.135 . S
Co105 N108 2.121 1_554 S
Co105 O113 2.055 . S
Co105 O116 2.039 . S
Co105 N119 2.140 . S
C106 O107 1.227 . S
C106 O116 1.265 . S
O107 C106 1.227 . S
N108 Co105 2.121 1_556 S
N108 C110 1.375 . S
N108 C111 1.313 . S
C109 C110 1.338 . S
C109 N112 1.377 . S
C109 H129 0.930 . S
C110 N108 1.375 . S
C110 C109 1.338 . S
C110 H114 0.931 . S
C111 N108 1.313 . S
C111 N112 1.344 . S
C111 H115 0.930 . S
N112 C109 1.377 . S
N112 C111 1.344 . S
O113 Co105 2.055 . S
O113 C117 1.253 . S
H114 C110 0.931 . S
H115 C111 0.930 . S
O116 Co105 2.039 . S
O116 C106 1.265 . S
C117 O113 1.253 . S
C117 O118 1.227 . S
O118 C117 1.227 . S
N119 Co105 2.140 . S
N119 C122 1.346 . S
N119 C123 1.345 . S
C120 C121 1.387 . S
C120 C124 1.391 1_554 S
C121 C120 1.387 . S
C121 C122 1.369 . S
C121 H130 0.929 . S
C122 N119 1.346 . S
C122 C121 1.369 . S
C122 H125 0.928 . S
C123 N119 1.345 . S
C123 C124 1.371 1_554 S
C123 H126 0.931 1_554 S
C124 C120 1.391 1_556 S
C124 C123 1.371 1_556 S
C124 H131 0.930 . S
H125 C122 0.928 . S
H126 C123 0.931 1_556 S
H127 C103 0.930 . S
H128 C100 0.930 . S
H129 C109 0.930 . S
H130 C121 0.929 . S
H131 C124 0.930 . S
C132 C133 1.351 . S
C132 N135 1.368 . S
C132 H137 0.931 . S
C133 C132 1.351 . S
C133 N134 1.373 . S
C133 H161 0.930 . S
N134 C133 1.373 . S
N134 C136 1.340 . S
N135 C132 1.368 . S
N135 C136 1.321 . S
N135 Co138 2.135 . S
C136 N134 1.340 . S
C136 N135 1.321 . S
C136 H160 0.930 . S
H137 C132 0.931 . S
Co138 N135 2.135 . S
Co138 N141 2.121 1_556 S
Co138 O146 2.055 . S
Co138 O149 2.039 . S
Co138 N152 2.140 . S
C139 O140 1.227 . S
C139 O149 1.265 . S
O140 C139 1.227 . S
N141 Co138 2.121 1_554 S
N141 C143 1.375 . S
N141 C144 1.313 . S
C142 C143 1.338 . S
C142 N145 1.377 . S
C142 H162 0.930 . S
C143 N141 1.375 . S
C143 C142 1.338 . S
C143 H147 0.931 . S
C144 N141 1.313 . S
C144 N145 1.344 . S
C144 H148 0.930 . S
N145 C142 1.377 . S
N145 C144 1.344 . S
O146 Co138 2.055 . S
O146 C150 1.253 . S
H147 C143 0.931 . S
H148 C144 0.930 . S
O149 Co138 2.039 . S
O149 C139 1.265 . S
C150 O146 1.253 . S
C150 O151 1.227 . S
O151 C150 1.227 . S
N152 Co138 2.140 . S
N152 C155 1.346 . S
N152 C156 1.345 . S
C153 C154 1.387 . S
C153 C157 1.391 1_556 S
C154 C153 1.387 . S
C154 C155 1.369 . S
C154 H163 0.929 . S
C155 N152 1.346 . S
C155 C154 1.369 . S
C155 H158 0.928 . S
C156 N152 1.345 . S
C156 C157 1.371 1_556 S
C156 H159 0.931 1_556 S
C157 C153 1.391 1_554 S
C157 C156 1.371 1_554 S
C157 H164 0.930 . S
H158 C155 0.928 . S
H159 C156 0.931 1_554 S
H160 C136 0.930 . S
H161 C133 0.930 . S
H162 C142 0.930 . S
H163 C154 0.929 . S
H164 C157 0.930 . S
C165 C166 1.351 . S
C165 N168 1.368 . S
C165 H170 0.931 . S
C166 C165 1.351 . S
C166 N167 1.373 . S
C166 H194 0.930 . S
N167 C166 1.373 . S
N167 C169 1.340 . S
N168 C165 1.368 . S
N168 C169 1.321 . S
N168 Co171 2.135 . S
C169 N167 1.340 . S
C169 N168 1.321 . S
C169 H193 0.930 . S
H170 C165 0.931 . S
Co171 N168 2.135 . S
Co171 N174 2.121 1_556 S
Co171 O179 2.055 . S
Co171 O182 2.039 . S
Co171 N185 2.140 . S
C172 O173 1.227 . S
C172 O182 1.265 . S
O173 C172 1.227 . S
N174 Co171 2.121 1_554 S
N174 C176 1.375 . S
N174 C177 1.313 . S
C175 C176 1.338 . S
C175 N178 1.377 . S
C175 H195 0.930 . S
C176 N174 1.375 . S
C176 C175 1.338 . S
C176 H180 0.931 . S
C177 N174 1.313 . S
C177 N178 1.344 . S
C177 H181 0.930 . S
N178 C175 1.377 . S
N178 C177 1.344 . S
O179 Co171 2.055 . S
O179 C183 1.253 . S
H180 C176 0.931 . S
H181 C177 0.930 . S
O182 Co171 2.039 . S
O182 C172 1.265 . S
C183 O179 1.253 . S
C183 O184 1.227 . S
O184 C183 1.227 . S
N185 Co171 2.140 . S
N185 C188 1.346 . S
N185 C189 1.345 . S
C186 C187 1.387 . S
C186 C190 1.391 1_556 S
C187 C186 1.387 . S
C187 C188 1.369 . S
C187 H196 0.929 . S
C188 N185 1.346 . S
C188 C187 1.369 . S
C188 H191 0.928 . S
C189 N185 1.345 . S
C189 C190 1.371 1_556 S
C189 H192 0.931 1_556 S
C190 C186 1.391 1_554 S
C190 C189 1.371 1_554 S
C190 H197 0.930 . S
H191 C188 0.928 . S
H192 C189 0.931 1_554 S
H193 C169 0.930 . S
H194 C166 0.930 . S
H195 C175 0.930 . S
H196 C187 0.929 . S
H197 C190 0.930 . S
C198 C199 1.351 . S
C198 N201 1.368 . S
C198 H203 0.931 . S
C199 C198 1.351 . S
C199 N200 1.373 . S
C199 H227 0.930 . S
N200 C199 1.373 . S
N200 C202 1.340 . S
N201 C198 1.368 . S
N201 C202 1.321 . S
N201 Co204 2.135 . S
C202 N200 1.340 . S
C202 N201 1.321 . S
C202 H226 0.930 . S
H203 C198 0.931 . S
Co204 N201 2.135 . S
Co204 N207 2.121 1_556 S
Co204 O212 2.055 . S
Co204 O215 2.039 . S
Co204 N218 2.140 . S
C205 O206 1.227 . S
C205 O215 1.265 . S
O206 C205 1.227 . S
N207 Co204 2.121 1_554 S
N207 C209 1.375 . S
N207 C210 1.313 . S
C208 C209 1.338 . S
C208 N211 1.377 . S
C208 H228 0.930 . S
C209 N207 1.375 . S
C209 C208 1.338 . S
C209 H213 0.931 . S
C210 N207 1.313 . S
C210 N211 1.344 . S
C210 H214 0.930 . S
N211 C208 1.377 . S
N211 C210 1.344 . S
O212 Co204 2.055 . S
O212 C216 1.253 . S
H213 C209 0.931 . S
H214 C210 0.930 . S
O215 Co204 2.039 . S
O215 C205 1.265 . S
C216 O212 1.253 . S
C216 O217 1.227 . S
O217 C216 1.227 . S
N218 Co204 2.140 . S
N218 C221 1.346 . S
N218 C222 1.345 . S
C219 C220 1.387 . S
C219 C223 1.391 1_556 S
C220 C219 1.387 . S
C220 C221 1.369 . S
C220 H229 0.929 . S
C221 N218 1.346 . S
C221 C220 1.369 . S
C221 H224 0.928 . S
C222 N218 1.345 . S
C222 C223 1.371 1_556 S
C222 H225 0.931 1_556 S
C223 C219 1.391 1_554 S
C223 C222 1.371 1_554 S
C223 H230 0.930 . S
H224 C221 0.928 . S
H225 C222 0.931 1_554 S
H226 C202 0.930 . S
H227 C199 0.930 . S
H228 C208 0.930 . S
H229 C220 0.929 . S
H230 C223 0.930 . S
C231 C232 1.351 . S
C231 N234 1.368 . S
C231 H236 0.931 . S
C232 C231 1.351 . S
C232 N233 1.373 . S
C232 H260 0.930 . S
N233 C232 1.373 . S
N233 C235 1.340 . S
N234 C231 1.368 . S
N234 C235 1.321 . S
N234 Co237 2.135 . S
C235 N233 1.340 . S
C235 N234 1.321 . S
C235 H259 0.930 . S
H236 C231 0.931 . S
Co237 N234 2.135 . S
Co237 N240 2.121 1_556 S
Co237 O245 2.055 . S
Co237 O248 2.039 . S
Co237 N251 2.140 . S
C238 O239 1.227 . S
C238 O248 1.265 . S
O239 C238 1.227 . S
N240 Co237 2.121 1_554 S
N240 C242 1.375 . S
N240 C243 1.313 . S
C241 C242 1.338 . S
C241 N244 1.377 . S
C241 H261 0.930 . S
C242 N240 1.375 . S
C242 C241 1.338 . S
C242 H246 0.931 . S
C243 N240 1.313 . S
C243 N244 1.344 . S
C243 H247 0.930 . S
N244 C241 1.377 . S
N244 C243 1.344 . S
O245 Co237 2.055 . S
O245 C249 1.253 . S
H246 C242 0.931 . S
H247 C243 0.930 . S
O248 Co237 2.039 . S
O248 C238 1.265 . S
C249 O245 1.253 . S
C249 O250 1.227 . S
O250 C249 1.227 . S
N251 Co237 2.140 . S
N251 C254 1.346 . S
N251 C255 1.345 . S
C252 C253 1.387 . S
C252 C256 1.391 1_556 S
C253 C252 1.387 . S
C253 C254 1.369 . S
C253 H262 0.929 . S
C254 N251 1.346 . S
C254 C253 1.369 . S
C254 H257 0.928 . S
C255 N251 1.345 . S
C255 C256 1.371 1_556 S
C255 H258 0.931 1_556 S
C256 C252 1.391 1_554 S
C256 C255 1.371 1_554 S
C256 H263 0.930 . S
H257 C254 0.928 . S
H258 C255 0.931 1_554 S
H259 C235 0.930 . S
H260 C232 0.930 . S
H261 C241 0.930 . S
H262 C253 0.929 . S
H263 C256 0.930 . S
C264 C265 1.351 . S
C264 N267 1.368 . S
C264 H269 0.931 . S
C265 C264 1.351 . S
C265 N266 1.373 . S
C265 H293 0.930 . S
N266 C265 1.373 . S
N266 C268 1.340 . S
N267 C264 1.368 . S
N267 C268 1.321 . S
N267 Co270 2.135 . S
C268 N266 1.340 . S
C268 N267 1.321 . S
C268 H292 0.930 . S
H269 C264 0.931 . S
Co270 N267 2.135 . S
Co270 N273 2.121 . S
Co270 O278 2.055 . S
Co270 O281 2.039 . S
Co270 N284 2.140 . S
C271 O272 1.227 . S
C271 O281 1.265 . S
O272 C271 1.227 . S
N273 Co270 2.121 . S
N273 C275 1.375 . S
N273 C276 1.313 . S
C274 C275 1.338 . S
C274 N277 1.377 . S
C274 H294 0.930 . S
C275 N273 1.375 . S
C275 C274 1.338 . S
C275 H279 0.931 . S
C276 N273 1.313 . S
C276 N277 1.344 . S
C276 H280 0.930 . S
N277 C274 1.377 . S
N277 C276 1.344 . S
O278 Co270 2.055 . S
O278 C282 1.253 . S
H279 C275 0.931 . S
H280 C276 0.930 . S
O281 Co270 2.039 . S
O281 C271 1.265 . S
C282 O278 1.253 . S
C282 O283 1.227 . S
O283 C282 1.227 . S
N284 Co270 2.140 . S
N284 C287 1.346 . S
N284 C288 1.345 . S
C285 C286 1.387 . S
C285 C289 1.391 . S
C286 C285 1.387 . S
C286 C287 1.369 . S
C286 H295 0.929 . S
C287 N284 1.346 . S
C287 C286 1.369 . S
C287 H290 0.928 . S
C288 N284 1.345 . S
C288 C289 1.371 . S
C288 H291 0.931 . S
C289 C285 1.391 . S
C289 C288 1.371 . S
C289 H296 0.930 . S
H290 C287 0.928 . S
H291 C288 0.931 . S
H292 C268 0.930 . S
H293 C265 0.930 . S
H294 C274 0.930 . S
H295 C286 0.929 . S
H296 C289 0.930 . S
C297 C298 1.351 . S
C297 N300 1.368 . S
C297 H302 0.931 . S
C298 C297 1.351 . S
C298 N299 1.373 . S
C298 H326 0.930 . S
N299 C298 1.373 . S
N299 C301 1.340 . S
N300 C297 1.368 . S
N300 C301 1.321 . S
N300 Co303 2.135 . S
C301 N299 1.340 . S
C301 N300 1.321 . S
C301 H325 0.930 . S
H302 C297 0.931 . S
Co303 N300 2.135 . S
Co303 N306 2.121 . S
Co303 O311 2.055 . S
Co303 O314 2.039 . S
Co303 N317 2.140 . S
C304 O305 1.227 . S
C304 O314 1.265 . S
O305 C304 1.227 . S
N306 Co303 2.121 . S
N306 C308 1.375 . S
N306 C309 1.313 . S
C307 C308 1.338 . S
C307 N310 1.377 . S
C307 H327 0.930 . S
C308 N306 1.375 . S
C308 C307 1.338 . S
C308 H312 0.931 . S
C309 N306 1.313 . S
C309 N310 1.344 . S
C309 H313 0.930 . S
N310 C307 1.377 . S
N310 C309 1.344 . S
O311 Co303 2.055 . S
O311 C315 1.253 . S
H312 C308 0.931 . S
H313 C309 0.930 . S
O314 Co303 2.039 . S
O314 C304 1.265 . S
C315 O311 1.253 . S
C315 O316 1.227 . S
O316 C315 1.227 . S
N317 Co303 2.140 . S
N317 C320 1.346 . S
N317 C321 1.345 . S
C318 C319 1.387 . S
C318 C322 1.391 . S
C319 C318 1.387 . S
C319 C320 1.369 . S
C319 H328 0.929 . S
C320 N317 1.346 . S
C320 C319 1.369 . S
C320 H323 0.928 . S
C321 N317 1.345 . S
C321 C322 1.371 . S
C321 H324 0.931 . S
C322 C318 1.391 . S
C322 C321 1.371 . S
C322 H329 0.930 . S
H323 C320 0.928 . S
H324 C321 0.931 . S
H325 C301 0.930 . S
H326 C298 0.930 . S
H327 C307 0.930 . S
H328 C319 0.929 . S
H329 C322 0.930 . S
C330 C331 1.351 . S
C330 N333 1.368 . S
C330 H335 0.931 . S
C331 C330 1.351 . S
C331 N332 1.373 . S
C331 H359 0.930 . S
N332 C331 1.373 . S
N332 C334 1.340 . S
N333 C330 1.368 . S
N333 C334 1.321 . S
N333 Co336 2.135 . S
C334 N332 1.340 . S
C334 N333 1.321 . S
C334 H358 0.930 . S
H335 C330 0.931 . S
Co336 N333 2.135 . S
Co336 N339 2.121 . S
Co336 O344 2.055 . S
Co336 O347 2.039 . S
Co336 N350 2.140 . S
C337 O338 1.227 . S
C337 O347 1.265 . S
O338 C337 1.227 . S
N339 Co336 2.121 . S
N339 C341 1.375 . S
N339 C342 1.313 . S
C340 C341 1.338 . S
C340 N343 1.377 . S
C340 H360 0.930 . S
C341 N339 1.375 . S
C341 C340 1.338 . S
C341 H345 0.931 . S
C342 N339 1.313 . S
C342 N343 1.344 . S
C342 H346 0.930 . S
N343 C340 1.377 . S
N343 C342 1.344 . S
O344 Co336 2.055 . S
O344 C348 1.253 . S
H345 C341 0.931 . S
H346 C342 0.930 . S
O347 Co336 2.039 . S
O347 C337 1.265 . S
C348 O344 1.253 . S
C348 O349 1.227 . S
O349 C348 1.227 . S
N350 Co336 2.140 . S
N350 C353 1.346 . S
N350 C354 1.345 . S
C351 C352 1.387 . S
C351 C355 1.391 . S
C352 C351 1.387 . S
C352 C353 1.369 . S
C352 H361 0.929 . S
C353 N350 1.346 . S
C353 C352 1.369 . S
C353 H356 0.928 . S
C354 N350 1.345 . S
C354 C355 1.371 . S
C354 H357 0.931 . S
C355 C351 1.391 . S
C355 C354 1.371 . S
C355 H362 0.930 . S
H356 C353 0.928 . S
H357 C354 0.931 . S
H358 C334 0.930 . S
H359 C331 0.930 . S
H360 C340 0.930 . S
H361 C352 0.929 . S
H362 C355 0.930 . S
C363 C364 1.351 . S
C363 N366 1.368 . S
C363 H368 0.931 . S
C364 C363 1.351 . S
C364 N365 1.373 . S
C364 H392 0.930 . S
N365 C364 1.373 . S
N365 C367 1.340 . S
N366 C363 1.368 . S
N366 C367 1.321 . S
N366 Co369 2.135 . S
C367 N365 1.340 . S
C367 N366 1.321 . S
C367 H391 0.930 . S
H368 C363 0.931 . S
Co369 N366 2.135 . S
Co369 N372 2.121 . S
Co369 O377 2.055 . S
Co369 O380 2.039 . S
Co369 N383 2.140 . S
C370 O371 1.227 . S
C370 O380 1.265 . S
O371 C370 1.227 . S
N372 Co369 2.121 . S
N372 C374 1.375 . S
N372 C375 1.313 . S
C373 C374 1.338 . S
C373 N376 1.377 . S
C373 H393 0.930 . S
C374 N372 1.375 . S
C374 C373 1.338 . S
C374 H378 0.931 . S
C375 N372 1.313 . S
C375 N376 1.344 . S
C375 H379 0.930 . S
N376 C373 1.377 . S
N376 C375 1.344 . S
O377 Co369 2.055 . S
O377 C381 1.253 . S
H378 C374 0.931 . S
H379 C375 0.930 . S
O380 Co369 2.039 . S
O380 C370 1.265 . S
C381 O377 1.253 . S
C381 O382 1.227 . S
O382 C381 1.227 . S
N383 Co369 2.140 . S
N383 C386 1.346 . S
N383 C387 1.345 . S
C384 C385 1.387 . S
C384 C388 1.391 . S
C385 C384 1.387 . S
C385 C386 1.369 . S
C385 H394 0.929 . S
C386 N383 1.346 . S
C386 C385 1.369 . S
C386 H389 0.928 . S
C387 N383 1.345 . S
C387 C388 1.371 . S
C387 H390 0.931 . S
C388 C384 1.391 . S
C388 C387 1.371 . S
C388 H395 0.930 . S
H389 C386 0.928 . S
H390 C387 0.931 . S
H391 C367 0.930 . S
H392 C364 0.930 . S
H393 C373 0.930 . S
H394 C385 0.929 . S
H395 C388 0.930 . S
C396 C397 1.351 . S
C396 N399 1.368 . S
C396 H401 0.931 . S
C397 C396 1.351 . S
C397 N398 1.373 . S
C397 H425 0.930 . S
N398 C397 1.373 . S
N398 C400 1.340 . S
N399 C396 1.368 . S
N399 C400 1.321 . S
N399 Co402 2.135 . S
C400 N398 1.340 . S
C400 N399 1.321 . S
C400 H424 0.930 . S
H401 C396 0.931 . S
Co402 N399 2.135 . S
Co402 N405 2.121 . S
Co402 O410 2.055 . S
Co402 O413 2.039 . S
Co402 N416 2.140 . S
C403 O404 1.227 . S
C403 O413 1.265 . S
O404 C403 1.227 . S
N405 Co402 2.121 . S
N405 C407 1.375 . S
N405 C408 1.313 . S
C406 C407 1.338 . S
C406 N409 1.377 . S
C406 H426 0.930 . S
C407 N405 1.375 . S
C407 C406 1.338 . S
C407 H411 0.931 . S
C408 N405 1.313 . S
C408 N409 1.344 . S
C408 H412 0.930 . S
N409 C406 1.377 . S
N409 C408 1.344 . S
O410 Co402 2.055 . S
O410 C414 1.253 . S
H411 C407 0.931 . S
H412 C408 0.930 . S
O413 Co402 2.039 . S
O413 C403 1.265 . S
C414 O410 1.253 . S
C414 O415 1.227 . S
O415 C414 1.227 . S
N416 Co402 2.140 . S
N416 C419 1.346 . S
N416 C420 1.345 . S
C417 C418 1.387 . S
C417 C421 1.391 . S
C418 C417 1.387 . S
C418 C419 1.369 . S
C418 H427 0.929 . S
C419 N416 1.346 . S
C419 C418 1.369 . S
C419 H422 0.928 . S
C420 N416 1.345 . S
C420 C421 1.371 . S
C420 H423 0.931 . S
C421 C417 1.391 . S
C421 C420 1.371 . S
C421 H428 0.930 . S
H422 C419 0.928 . S
H423 C420 0.931 . S
H424 C400 0.930 . S
H425 C397 0.930 . S
H426 C406 0.930 . S
H427 C418 0.929 . S
H428 C421 0.930 . S
C429 C430 1.351 . S
C429 N432 1.368 . S
C429 H434 0.931 . S
C430 C429 1.351 . S
C430 N431 1.373 . S
C430 H458 0.930 . S
N431 C430 1.373 . S
N431 C433 1.340 . S
N432 C429 1.368 . S
N432 C433 1.321 . S
N432 Co435 2.135 . S
C433 N431 1.340 . S
C433 N432 1.321 . S
C433 H457 0.930 . S
H434 C429 0.931 . S
Co435 N432 2.135 . S
Co435 N438 2.121 . S
Co435 O443 2.055 . S
Co435 O446 2.039 . S
Co435 N449 2.140 . S
C436 O437 1.227 . S
C436 O446 1.265 . S
O437 C436 1.227 . S
N438 Co435 2.121 . S
N438 C440 1.375 . S
N438 C441 1.313 . S
C439 C440 1.338 . S
C439 N442 1.377 . S
C439 H459 0.930 . S
C440 N438 1.375 . S
C440 C439 1.338 . S
C440 H444 0.931 . S
C441 N438 1.313 . S
C441 N442 1.344 . S
C441 H445 0.930 . S
N442 C439 1.377 . S
N442 C441 1.344 . S
O443 Co435 2.055 . S
O443 C447 1.253 . S
H444 C440 0.931 . S
H445 C441 0.930 . S
O446 Co435 2.039 . S
O446 C436 1.265 . S
C447 O443 1.253 . S
C447 O448 1.227 . S
O448 C447 1.227 . S
N449 Co435 2.140 . S
N449 C452 1.346 . S
N449 C453 1.345 . S
C450 C451 1.387 . S
C450 C454 1.391 . S
C451 C450 1.387 . S
C451 C452 1.369 . S
C451 H460 0.929 . S
C452 N449 1.346 . S
C452 C451 1.369 . S
C452 H455 0.928 . S
C453 N449 1.345 . S
C453 C454 1.371 . S
C453 H456 0.931 . S
C454 C450 1.391 . S
C454 C453 1.371 . S
C454 H461 0.930 . S
H455 C452 0.928 . S
H456 C453 0.931 . S
H457 C433 0.930 . S
H458 C430 0.930 . S
H459 C439 0.930 . S
H460 C451 0.929 . S
H461 C454 0.930 . S
C462 C463 1.351 . S
C462 N465 1.368 . S
C462 H467 0.931 . S
C463 C462 1.351 . S
C463 N464 1.373 . S
C463 H491 0.930 . S
N464 C463 1.373 . S
N464 C466 1.340 . S
N465 C462 1.368 . S
N465 C466 1.321 . S
N465 Co468 2.135 . S
C466 N464 1.340 . S
C466 N465 1.321 . S
C466 H490 0.930 . S
H467 C462 0.931 . S
Co468 N465 2.135 . S
Co468 N471 2.121 . S
Co468 O476 2.055 . S
Co468 O479 2.039 . S
Co468 N482 2.140 . S
C469 O470 1.227 . S
C469 O479 1.265 . S
O470 C469 1.227 . S
N471 Co468 2.121 . S
N471 C473 1.375 . S
N471 C474 1.313 . S
C472 C473 1.338 . S
C472 N475 1.377 . S
C472 H492 0.930 . S
C473 N471 1.375 . S
C473 C472 1.338 . S
C473 H477 0.931 . S
C474 N471 1.313 . S
C474 N475 1.344 . S
C474 H478 0.930 . S
N475 C472 1.377 . S
N475 C474 1.344 . S
O476 Co468 2.055 . S
O476 C480 1.253 . S
H477 C473 0.931 . S
H478 C474 0.930 . S
O479 Co468 2.039 . S
O479 C469 1.265 . S
C480 O476 1.253 . S
C480 O481 1.227 . S
O481 C480 1.227 . S
N482 Co468 2.140 . S
N482 C485 1.346 . S
N482 C486 1.345 . S
C483 C484 1.387 . S
C483 C487 1.391 . S
C484 C483 1.387 . S
C484 C485 1.369 . S
C484 H493 0.929 . S
C485 N482 1.346 . S
C485 C484 1.369 . S
C485 H488 0.928 . S
C486 N482 1.345 . S
C486 C487 1.371 . S
C486 H489 0.931 . S
C487 C483 1.391 . S
C487 C486 1.371 . S
C487 H494 0.930 . S
H488 C485 0.928 . S
H489 C486 0.931 . S
H490 C466 0.930 . S
H491 C463 0.930 . S
H492 C472 0.930 . S
H493 C484 0.929 . S
H494 C487 0.930 . S
C495 C496 1.351 . S
C495 N498 1.368 . S
C495 H500 0.931 . S
C496 C495 1.351 . S
C496 N497 1.373 . S
C496 H524 0.930 . S
N497 C496 1.373 . S
N497 C499 1.340 . S
N498 C495 1.368 . S
N498 C499 1.321 . S
N498 Co501 2.135 . S
C499 N497 1.340 . S
C499 N498 1.321 . S
C499 H523 0.930 . S
H500 C495 0.931 . S
Co501 N498 2.135 . S
Co501 N504 2.121 . S
Co501 O509 2.055 . S
Co501 O512 2.039 . S
Co501 N515 2.140 . S
C502 O503 1.227 . S
C502 O512 1.265 . S
O503 C502 1.227 . S
N504 Co501 2.121 . S
N504 C506 1.375 . S
N504 C507 1.313 . S
C505 C506 1.338 . S
C505 N508 1.377 . S
C505 H525 0.930 . S
C506 N504 1.375 . S
C506 C505 1.338 . S
C506 H510 0.931 . S
C507 N504 1.313 . S
C507 N508 1.344 . S
C507 H511 0.930 . S
N508 C505 1.377 . S
N508 C507 1.344 . S
O509 Co501 2.055 . S
O509 C513 1.253 . S
H510 C506 0.931 . S
H511 C507 0.930 . S
O512 Co501 2.039 . S
O512 C502 1.265 . S
C513 O509 1.253 . S
C513 O514 1.227 . S
O514 C513 1.227 . S
N515 Co501 2.140 . S
N515 C518 1.346 . S
N515 C519 1.345 . S
C516 C517 1.387 . S
C516 C520 1.391 . S
C517 C516 1.387 . S
C517 C518 1.369 . S
C517 H526 0.929 . S
C518 N515 1.346 . S
C518 C517 1.369 . S
C518 H521 0.928 . S
C519 N515 1.345 . S
C519 C520 1.371 . S
C519 H522 0.931 . S
C520 C516 1.391 . S
C520 C519 1.371 . S
C520 H527 0.930 . S
H521 C518 0.928 . S
H522 C519 0.931 . S
H523 C499 0.930 . S
H524 C496 0.930 . S
H525 C505 0.930 . S
H526 C517 0.929 . S
H527 C520 0.930 . S
C528 C529 1.387 . S
C528 H532 0.950 . S
C528 C537 1.390 . S
C529 C528 1.387 . S
C529 C531 1.387 . S
H530 C537 0.950 . S
C531 C529 1.387 . S
C531 C533 1.390 . S
C531 H535 0.950 . S
H532 C528 0.950 . S
C533 C531 1.390 . S
C533 C534 1.387 . S
C533 H536 0.950 . S
C534 C533 1.387 . S
C534 C537 1.387 . S
H535 C531 0.950 . S
H536 C533 0.950 . S
C537 C528 1.390 . S
C537 H530 0.950 . S
C537 C534 1.387 . S
C538 C539 1.387 . S
C538 H542 0.950 . S
C538 C547 1.390 . S
C539 C538 1.387 . S
C539 C541 1.387 . S
H540 C547 0.950 . S
C541 C539 1.387 . S
C541 C543 1.390 . S
C541 H545 0.950 . S
H542 C538 0.950 . S
C543 C541 1.390 . S
C543 C544 1.387 . S
C543 H546 0.950 . S
C544 C543 1.387 . S
C544 C547 1.387 . S
H545 C541 0.950 . S
H546 C543 0.950 . S
C547 C538 1.390 . S
C547 H540 0.950 . S
C547 C544 1.387 . S
C548 C549 1.387 . S
C548 H552 0.950 . S
C548 C557 1.390 . S
C549 C548 1.387 . S
C549 C551 1.387 . S
H550 C557 0.950 . S
C551 C549 1.387 . S
C551 C553 1.390 . S
C551 H555 0.950 . S
H552 C548 0.950 . S
C553 C551 1.390 . S
C553 C554 1.387 . S
C553 H556 0.950 . S
C554 C553 1.387 . S
C554 C557 1.387 . S
H555 C551 0.950 . S
H556 C553 0.950 . S
C557 C548 1.390 . S
C557 H550 0.950 . S
C557 C554 1.387 . S
C558 C559 1.387 . S
C558 H562 0.950 . S
C558 C567 1.390 . S
C559 C558 1.387 . S
C559 C561 1.387 . S
H560 C567 0.950 . S
C561 C559 1.387 . S
C561 C563 1.390 . S
C561 H565 0.950 . S
H562 C558 0.950 . S
C563 C561 1.390 . S
C563 C564 1.387 . S
C563 H566 0.950 . S
C564 C563 1.387 . S
C564 C567 1.387 . S
H565 C561 0.950 . S
H566 C563 0.950 . S
C567 C558 1.390 . S
C567 H560 0.950 . S
C567 C564 1.387 . S
C568 C569 1.387 . S
C568 H572 0.950 . S
C568 C577 1.390 . S
C569 C568 1.387 . S
C569 C571 1.387 . S
H570 C577 0.950 . S
C571 C569 1.387 . S
C571 C573 1.390 . S
C571 H575 0.950 . S
H572 C568 0.950 . S
C573 C571 1.390 . S
C573 C574 1.387 . S
C573 H576 0.950 . S
C574 C573 1.387 . S
C574 C577 1.387 . S
H575 C571 0.950 . S
H576 C573 0.950 . S
C577 C568 1.390 . S
C577 H570 0.950 . S
C577 C574 1.387 . S
C578 C579 1.387 . S
C578 H582 0.950 . S
C578 C587 1.390 . S
C579 C578 1.387 . S
C579 C581 1.387 . S
H580 C587 0.950 . S
C581 C579 1.387 . S
C581 C583 1.390 . S
C581 H585 0.950 . S
H582 C578 0.950 . S
C583 C581 1.390 . S
C583 C584 1.387 . S
C583 H586 0.950 . S
C584 C583 1.387 . S
C584 C587 1.387 . S
H585 C581 0.950 . S
H586 C583 0.950 . S
C587 C578 1.390 . S
C587 H580 0.950 . S
C587 C584 1.387 . S
C588 C589 1.387 . S
C588 H592 0.950 . S
C588 C597 1.390 . S
C589 C588 1.387 . S
C589 C591 1.387 . S
H590 C597 0.950 . S
C591 C589 1.387 . S
C591 C593 1.390 . S
C591 H595 0.950 . S
H592 C588 0.950 . S
C593 C591 1.390 . S
C593 C594 1.387 . S
C593 H596 0.950 . S
C594 C593 1.387 . S
C594 C597 1.387 . S
H595 C591 0.950 . S
H596 C593 0.950 . S
C597 C588 1.390 . S
C597 H590 0.950 . S
C597 C594 1.387 . S
C598 C599 1.387 . S
C598 H602 0.950 . S
C598 C607 1.390 . S
C599 C598 1.387 . S
C599 C601 1.387 . S
H600 C607 0.950 . S
C601 C599 1.387 . S
C601 C603 1.390 . S
C601 H605 0.950 . S
H602 C598 0.950 . S
C603 C601 1.390 . S
C603 C604 1.387 . S
C603 H606 0.950 . S
C604 C603 1.387 . S
C604 C607 1.387 . S
H605 C601 0.950 . S
H606 C603 0.950 . S
C607 C598 1.390 . S
C607 H600 0.950 . S
C607 C604 1.387 . S
C608 C609 1.387 . S
C608 H612 0.950 . S
C608 C617 1.390 . S
C609 C608 1.387 . S
C609 C611 1.387 . S
H610 C617 0.950 . S
C611 C609 1.387 . S
C611 C613 1.390 . S
C611 H615 0.950 . S
H612 C608 0.950 . S
C613 C611 1.390 . S
C613 C614 1.387 1_554 S
C613 H616 0.950 . S
C614 C613 1.387 1_556 S
C614 C617 1.387 1_556 S
H615 C611 0.950 . S
H616 C613 0.950 . S
C617 C608 1.390 . S
C617 H610 0.950 . S
C617 C614 1.387 1_554 S
C618 C619 1.387 . S
C618 H622 0.950 . S
C618 C627 1.390 . S
C619 C618 1.387 . S
C619 C621 1.387 . S
H620 C627 0.950 1_556 S
C621 C619 1.387 . S
C621 C623 1.390 . S
C621 H625 0.950 . S
H622 C618 0.950 . S
C623 C621 1.390 . S
C623 C624 1.387 1_554 S
C623 H626 0.950 . S
C624 C623 1.387 1_556 S
C624 C627 1.387 1_556 S
H625 C621 0.950 . S
H626 C623 0.950 . S
C627 C618 1.390 . S
C627 H620 0.950 1_554 S
C627 C624 1.387 1_554 S
C628 C629 1.387 . S
C628 H632 0.950 . S
C628 C637 1.390 . S
C629 C628 1.387 . S
C629 C631 1.387 . S
H630 C637 0.950 . S
C631 C629 1.387 . S
C631 C633 1.390 . S
C631 H635 0.950 . S
H632 C628 0.950 . S
C633 C631 1.390 . S
C633 C634 1.387 1_554 S
C633 H636 0.950 . S
C634 C633 1.387 1_556 S
C634 C637 1.387 1_556 S
H635 C631 0.950 . S
H636 C633 0.950 . S
C637 C628 1.390 . S
C637 H630 0.950 . S
C637 C634 1.387 1_554 S
C638 C639 1.387 . S
C638 H642 0.950 . S
C638 C647 1.390 . S
C639 C638 1.387 . S
C639 C641 1.387 . S
H640 C647 0.950 . S
C641 C639 1.387 . S
C641 C643 1.390 . S
C641 H645 0.950 . S
H642 C638 0.950 . S
C643 C641 1.390 . S
C643 C644 1.387 1_554 S
C643 H646 0.950 . S
C644 C643 1.387 1_556 S
C644 C647 1.387 1_556 S
H645 C641 0.950 . S
H646 C643 0.950 . S
C647 C638 1.390 . S
C647 H640 0.950 . S
C647 C644 1.387 1_554 S
C648 C649 1.387 1_556 S
C648 H652 0.950 . S
C648 C657 1.390 . S
C649 C648 1.387 1_554 S
C649 C651 1.387 1_554 S
H650 C657 0.950 . S
C651 C649 1.387 1_556 S
C651 C653 1.390 . S
C651 H655 0.950 . S
H652 C648 0.950 . S
C653 C651 1.390 . S
C653 C654 1.387 . S
C653 H656 0.950 . S
C654 C653 1.387 . S
C654 C657 1.387 . S
H655 C651 0.950 . S
H656 C653 0.950 . S
C657 C648 1.390 . S
C657 H650 0.950 . S
C657 C654 1.387 . S
C658 C659 1.387 1_556 S
C658 H662 0.950 . S
C658 C667 1.390 . S
C659 C658 1.387 1_554 S
C659 C661 1.387 1_554 S
H660 C667 0.950 . S
C661 C659 1.387 1_556 S
C661 C663 1.390 . S
C661 H665 0.950 1_556 S
H662 C658 0.950 . S
C663 C661 1.390 . S
C663 C664 1.387 . S
C663 H666 0.950 . S
C664 C663 1.387 . S
C664 C667 1.387 . S
H665 C661 0.950 1_554 S
H666 C663 0.950 . S
C667 C658 1.390 . S
C667 H660 0.950 . S
C667 C664 1.387 . S
C668 C669 1.387 1_556 S
C668 H672 0.950 . S
C668 C677 1.390 . S
C669 C668 1.387 1_554 S
C669 C671 1.387 1_554 S
H670 C677 0.950 . S
C671 C669 1.387 1_556 S
C671 C673 1.390 . S
C671 H675 0.950 . S
H672 C668 0.950 . S
C673 C671 1.390 . S
C673 C674 1.387 . S
C673 H676 0.950 . S
C674 C673 1.387 . S
C674 C677 1.387 . S
H675 C671 0.950 . S
H676 C673 0.950 . S
C677 C668 1.390 . S
C677 H670 0.950 . S
C677 C674 1.387 . S
C678 C679 1.387 1_556 S
C678 H682 0.950 1_556 S
C678 C687 1.390 . S
C679 C678 1.387 1_554 S
C679 C681 1.387 1_554 S
H680 C687 0.950 . S
C681 C679 1.387 1_556 S
C681 C683 1.390 . S
C681 H685 0.950 . S
H682 C678 0.950 1_554 S
C683 C681 1.390 . S
C683 C684 1.387 . S
C683 H686 0.950 . S
C684 C683 1.387 . S
C684 C687 1.387 . S
H685 C681 0.950 . S
H686 C683 0.950 . S
C687 C678 1.390 . S
C687 H680 0.950 . S
C687 C684 1.387 . S
C688 C689 1.387 . S
C688 H692 0.950 . S
C688 C697 1.390 . S
C689 C688 1.387 . S
C689 C691 1.387 . S
H690 C697 0.950 . S
C691 C689 1.387 . S
C691 C693 1.390 . S
C691 H695 0.950 . S
H692 C688 0.950 . S
C693 C691 1.390 . S
C693 C694 1.387 . S
C693 H696 0.950 . S
C694 C693 1.387 . S
C694 C697 1.387 . S
H695 C691 0.950 . S
H696 C693 0.950 . S
C697 C688 1.390 . S
C697 H690 0.950 . S
C697 C694 1.387 . S
C698 C699 1.387 . S
C698 H702 0.950 . S
C698 C707 1.390 . S
C699 C698 1.387 . S
C699 C701 1.387 . S
H700 C707 0.950 . S
C701 C699 1.387 . S
C701 C703 1.390 . S
C701 H705 0.950 . S
H702 C698 0.950 . S
C703 C701 1.390 . S
C703 C704 1.387 . S
C703 H706 0.950 . S
C704 C703 1.387 . S
C704 C707 1.387 . S
H705 C701 0.950 . S
H706 C703 0.950 . S
C707 C698 1.390 . S
C707 H700 0.950 . S
C707 C704 1.387 . S
C708 C709 1.387 . S
C708 H712 0.950 . S
C708 C717 1.390 . S
C709 C708 1.387 . S
C709 C711 1.387 . S
H710 C717 0.950 . S
C711 C709 1.387 . S
C711 C713 1.390 . S
C711 H715 0.950 . S
H712 C708 0.950 . S
C713 C711 1.390 . S
C713 C714 1.387 . S
C713 H716 0.950 . S
C714 C713 1.387 . S
C714 C717 1.387 . S
H715 C711 0.950 . S
H716 C713 0.950 . S
C717 C708 1.390 . S
C717 H710 0.950 . S
C717 C714 1.387 . S
C718 C719 1.387 . S
C718 H722 0.950 . S
C718 C727 1.390 . S
C719 C718 1.387 . S
C719 C721 1.387 . S
H720 C727 0.950 . S
C721 C719 1.387 . S
C721 C723 1.390 . S
C721 H725 0.950 . S
H722 C718 0.950 . S
C723 C721 1.390 . S
C723 C724 1.387 . S
C723 H726 0.950 . S
C724 C723 1.387 . S
C724 C727 1.387 . S
H725 C721 0.950 . S
H726 C723 0.950 . S
C727 C718 1.390 . S
C727 H720 0.950 . S
C727 C724 1.387 . S
C728 C729 1.387 . S
C728 H732 0.950 . S
C728 C737 1.390 . S
C729 C728 1.387 . S
C729 C731 1.387 . S
H730 C737 0.950 . S
C731 C729 1.387 . S
C731 C733 1.390 . S
C731 H735 0.950 . S
H732 C728 0.950 . S
C733 C731 1.390 . S
C733 C734 1.387 . S
C733 H736 0.950 . S
C734 C733 1.387 . S
C734 C737 1.387 . S
H735 C731 0.950 . S
H736 C733 0.950 . S
C737 C728 1.390 . S
C737 H730 0.950 . S
C737 C734 1.387 . S
C738 C739 1.387 . S
C738 H742 0.950 . S
C738 C747 1.390 . S
C739 C738 1.387 . S
C739 C741 1.387 . S
H740 C747 0.950 . S
C741 C739 1.387 . S
C741 C743 1.390 . S
C741 H745 0.950 . S
H742 C738 0.950 . S
C743 C741 1.390 . S
C743 C744 1.387 . S
C743 H746 0.950 . S
C744 C743 1.387 . S
C744 C747 1.387 . S
H745 C741 0.950 . S
H746 C743 0.950 . S
C747 C738 1.390 . S
C747 H740 0.950 . S
C747 C744 1.387 . S
C748 C749 1.387 . S
C748 H752 0.950 . S
C748 C757 1.390 . S
C749 C748 1.387 . S
C749 C751 1.387 . S
H750 C757 0.950 . S
C751 C749 1.387 . S
C751 C753 1.390 . S
C751 H755 0.950 . S
H752 C748 0.950 . S
C753 C751 1.390 . S
C753 C754 1.387 . S
C753 H756 0.950 . S
C754 C753 1.387 . S
C754 C757 1.387 . S
H755 C751 0.950 . S
H756 C753 0.950 . S
C757 C748 1.390 . S
C757 H750 0.950 . S
C757 C754 1.387 . S
C758 C759 1.387 . S
C758 H762 0.950 . S
C758 C767 1.390 . S
C759 C758 1.387 . S
C759 C761 1.387 . S
H760 C767 0.950 . S
C761 C759 1.387 . S
C761 C763 1.390 . S
C761 H765 0.950 . S
H762 C758 0.950 . S
C763 C761 1.390 . S
C763 C764 1.387 . S
C763 H766 0.950 . S
C764 C763 1.387 . S
C764 C767 1.387 . S
H765 C761 0.950 . S
H766 C763 0.950 . S
C767 C758 1.390 . S
C767 H760 0.950 . S
C767 C764 1.387 . S
C768 C769 1.387 . S
C768 H772 0.950 . S
C768 C777 1.390 1_544 S
C769 C768 1.387 . S
C769 C771 1.387 . S
H770 C777 0.950 . S
C771 C769 1.387 . S
C771 C773 1.390 1_544 S
C771 H775 0.950 . S
H772 C768 0.950 . S
C773 C771 1.390 1_566 S
C773 C774 1.387 . S
C773 H776 0.950 . S
C774 C773 1.387 . S
C774 C777 1.387 . S
H775 C771 0.950 . S
H776 C773 0.950 . S
C777 C768 1.390 1_566 S
C777 H770 0.950 . S
C777 C774 1.387 . S
C778 C779 1.387 . S
C778 H782 0.950 . S
C778 C787 1.390 1_456 S
C779 C778 1.387 . S
C779 C781 1.387 . S
H780 C787 0.950 . S
C781 C779 1.387 . S
C781 C783 1.390 1_456 S
C781 H785 0.950 . S
H782 C778 0.950 . S
C783 C781 1.390 1_654 S
C783 C784 1.387 . S
C783 H786 0.950 . S
C784 C783 1.387 . S
C784 C787 1.387 . S
H785 C781 0.950 . S
H786 C783 0.950 . S
C787 C778 1.390 1_654 S
C787 H780 0.950 . S
C787 C784 1.387 . S
C788 C789 1.387 . S
C788 H792 0.950 . S
C788 C797 1.390 1_564 S
C789 C788 1.387 . S
C789 C791 1.387 . S
H790 C797 0.950 . S
C791 C789 1.387 . S
C791 C793 1.390 1_564 S
C791 H795 0.950 . S
H792 C788 0.950 . S
C793 C791 1.390 1_546 S
C793 C794 1.387 . S
C793 H796 0.950 . S
C794 C793 1.387 . S
C794 C797 1.387 . S
H795 C791 0.950 . S
H796 C793 0.950 . S
C797 C788 1.390 1_546 S
C797 H790 0.950 . S
C797 C794 1.387 . S
C798 C799 1.387 . S
C798 H802 0.950 . S
C798 C807 1.390 1_656 S
C799 C798 1.387 . S
C799 C801 1.387 . S
H800 C807 0.950 . S
C801 C799 1.387 . S
C801 C803 1.390 1_656 S
C801 H805 0.950 . S
H802 C798 0.950 . S
C803 C801 1.390 1_454 S
C803 C804 1.387 . S
C803 H806 0.950 . S
C804 C803 1.387 . S
C804 C807 1.387 . S
H805 C801 0.950 . S
H806 C803 0.950 . S
C807 C798 1.390 1_454 S
C807 H800 0.950 . S
C807 C804 1.387 . S
C808 C809 1.387 . S
C808 H812 0.950 . S
C808 C817 1.390 . S
C809 C808 1.387 . S
C809 C811 1.387 . S
H810 C817 0.950 . S
C811 C809 1.387 . S
C811 C813 1.390 . S
C811 H815 0.950 . S
H812 C808 0.950 . S
C813 C811 1.390 . S
C813 C814 1.387 . S
C813 H816 0.950 . S
C814 C813 1.387 . S
C814 C817 1.387 . S
H815 C811 0.950 . S
H816 C813 0.950 . S
C817 C808 1.390 . S
C817 H810 0.950 . S
C817 C814 1.387 . S
C818 C819 1.387 . S
C818 H822 0.950 . S
C818 C827 1.390 . S
C819 C818 1.387 . S
C819 C821 1.387 . S
H820 C827 0.950 . S
C821 C819 1.387 . S
C821 C823 1.390 . S
C821 H825 0.950 . S
H822 C818 0.950 . S
C823 C821 1.390 . S
C823 C824 1.387 . S
C823 H826 0.950 . S
C824 C823 1.387 . S
C824 C827 1.387 . S
H825 C821 0.950 . S
H826 C823 0.950 . S
C827 C818 1.390 . S
C827 H820 0.950 . S
C827 C824 1.387 . S
C828 C829 1.387 . S
C828 H832 0.950 . S
C828 C837 1.390 . S
C829 C828 1.387 . S
C829 C831 1.387 . S
H830 C837 0.950 . S
C831 C829 1.387 . S
C831 C833 1.390 . S
C831 H835 0.950 . S
H832 C828 0.950 . S
C833 C831 1.390 . S
C833 C834 1.387 . S
C833 H836 0.950 . S
C834 C833 1.387 . S
C834 C837 1.387 . S
H835 C831 0.950 . S
H836 C833 0.950 . S
C837 C828 1.390 . S
C837 H830 0.950 . S
C837 C834 1.387 . S
C838 C839 1.387 . S
C838 H842 0.950 . S
C838 C847 1.390 . S
C839 C838 1.387 . S
C839 C841 1.387 . S
H840 C847 0.950 . S
C841 C839 1.387 . S
C841 C843 1.390 . S
C841 H845 0.950 . S
H842 C838 0.950 . S
C843 C841 1.390 . S
C843 C844 1.387 . S
C843 H846 0.950 . S
C844 C843 1.387 . S
C844 C847 1.387 . S
H845 C841 0.950 . S
H846 C843 0.950 . S
C847 C838 1.390 . S
C847 H840 0.950 . S
C847 C844 1.387 . S
C848 C849 1.387 1_556 S
C848 H852 0.950 . S
C848 C857 1.390 . S
C849 C848 1.387 1_554 S
C849 C851 1.387 . S
H850 C857 0.950 . S
C851 C849 1.387 . S
C851 C853 1.390 . S
C851 H855 0.950 . S
H852 C848 0.950 . S
C853 C851 1.390 . S
C853 C854 1.387 1_554 S
C853 H856 0.950 . S
C854 C853 1.387 1_556 S
C854 C857 1.387 . S
H855 C851 0.950 . S
H856 C853 0.950 . S
C857 C848 1.390 . S
C857 H850 0.950 . S
C857 C854 1.387 . S
C858 C859 1.387 1_556 S
C858 H862 0.950 . S
C858 C867 1.390 . S
C859 C858 1.387 1_554 S
C859 C861 1.387 . S
H860 C867 0.950 . S
C861 C859 1.387 . S
C861 C863 1.390 . S
C861 H865 0.950 . S
H862 C858 0.950 . S
C863 C861 1.390 . S
C863 C864 1.387 1_554 S
C863 H866 0.950 . S
C864 C863 1.387 1_556 S
C864 C867 1.387 . S
H865 C861 0.950 . S
H866 C863 0.950 . S
C867 C858 1.390 . S
C867 H860 0.950 . S
C867 C864 1.387 . S
C868 C869 1.387 1_554 S
C868 H872 0.950 . S
C868 C877 1.390 . S
C869 C868 1.387 1_556 S
C869 C871 1.387 . S
H870 C877 0.950 . S
C871 C869 1.387 . S
C871 C873 1.390 . S
C871 H875 0.950 . S
H872 C868 0.950 . S
C873 C871 1.390 . S
C873 C874 1.387 1_556 S
C873 H876 0.950 . S
C874 C873 1.387 1_554 S
C874 C877 1.387 . S
H875 C871 0.950 . S
H876 C873 0.950 . S
C877 C868 1.390 . S
C877 H870 0.950 . S
C877 C874 1.387 . S
C878 C879 1.387 . S
C878 H882 0.950 . S
C878 C887 1.390 . S
C879 C878 1.387 . S
C879 C881 1.387 1_554 S
H880 C887 0.950 . S
C881 C879 1.387 1_556 S
C881 C883 1.390 . S
C881 H885 0.950 . S
H882 C878 0.950 . S
C883 C881 1.390 . S
C883 C884 1.387 . S
C883 H886 0.950 . S
C884 C883 1.387 . S
C884 C887 1.387 1_556 S
H885 C881 0.950 . S
H886 C883 0.950 . S
C887 C878 1.390 . S
C887 H880 0.950 . S
C887 C884 1.387 1_554 S
C888 C889 1.387 . S
C888 H892 0.950 . S
C888 C897 1.390 . S
C889 C888 1.387 . S
C889 C891 1.387 . S
H890 C897 0.950 . S
C891 C889 1.387 . S
C891 C893 1.390 . S
C891 H895 0.950 . S
H892 C888 0.950 . S
C893 C891 1.390 . S
C893 C894 1.387 . S
C893 H896 0.950 . S
C894 C893 1.387 . S
C894 C897 1.387 . S
H895 C891 0.950 . S
H896 C893 0.950 . S
C897 C888 1.390 . S
C897 H890 0.950 . S
C897 C894 1.387 . S
C898 C899 1.387 . S
C898 H902 0.950 . S
C898 C907 1.390 . S
C899 C898 1.387 . S
C899 C901 1.387 . S
H900 C907 0.950 . S
C901 C899 1.387 . S
C901 C903 1.390 . S
C901 H905 0.950 . S
H902 C898 0.950 . S
C903 C901 1.390 . S
C903 C904 1.387 . S
C903 H906 0.950 . S
C904 C903 1.387 . S
C904 C907 1.387 . S
H905 C901 0.950 . S
H906 C903 0.950 . S
C907 C898 1.390 . S
C907 H900 0.950 . S
C907 C904 1.387 . S
C908 C909 1.387 . S
C908 H912 0.950 . S
C908 C917 1.390 . S
C909 C908 1.387 . S
C909 C911 1.387 . S
H910 C917 0.950 . S
C911 C909 1.387 . S
C911 C913 1.390 . S
C911 H915 0.950 . S
H912 C908 0.950 . S
C913 C911 1.390 . S
C913 C914 1.387 . S
C913 H916 0.950 . S
C914 C913 1.387 . S
C914 C917 1.387 . S
H915 C911 0.950 . S
H916 C913 0.950 . S
C917 C908 1.390 . S
C917 H910 0.950 . S
C917 C914 1.387 . S
C918 C919 1.387 . S
C918 H922 0.950 . S
C918 C927 1.390 . S
C919 C918 1.387 . S
C919 C921 1.387 . S
H920 C927 0.950 . S
C921 C919 1.387 . S
C921 C923 1.390 . S
C921 H925 0.950 . S
H922 C918 0.950 . S
C923 C921 1.390 . S
C923 C924 1.387 . S
C923 H926 0.950 . S
C924 C923 1.387 . S
C924 C927 1.387 . S
H925 C921 0.950 . S
H926 C923 0.950 . S
C927 C918 1.390 . S
C927 H920 0.950 . S
C927 C924 1.387 . S
C529 N13 1.402 . S
C534 N2 1.400 . S
C539 N46 1.402 . S
C544 N35 1.400 . S
C549 N68 1.402 . S
C554 N79 1.404 . S
C559 N101 1.402 . S
C564 N112 1.403 . S
C569 N145 1.403 . S
C574 N134 1.402 . S
C579 N167 1.400 . S
C584 N178 1.401 . S
C589 N200 1.400 . S
C594 N211 1.402 . S
C599 N233 1.400 . S
C604 N244 1.402 . S
C609 N277 1.402 . S
C614 N266 1.400 . S
C619 N310 1.403 . S
C624 N299 1.401 . S
C629 N343 1.403 . S
C634 N332 1.402 . S
C639 N376 1.402 . S
C644 N365 1.400 . S
C649 N398 1.400 . S
C654 N409 1.402 . S
C659 N431 1.402 . S
C664 N442 1.404 . S
C669 N464 1.400 . S
C674 N475 1.402 . S
C679 N497 1.400 . S
C684 N508 1.401 . S
C689 C7 1.476 . S
C694 C502 1.478 . S
C699 C403 1.477 . S
C704 C40 1.479 . S
C709 C436 1.478 . S
C714 C73 1.479 . S
C719 C469 1.476 . S
C724 C106 1.478 . S
C729 C304 1.479 . S
C734 C139 1.479 . S
C739 C172 1.477 . S
C744 C337 1.478 . S
C749 C205 1.479 . S
C754 C370 1.478 . S
C759 C271 1.477 . S
C764 C238 1.479 . S
C769 C18 1.240 . S
C774 C150 1.240 . S
C779 C183 1.241 . S
C784 C51 1.241 . S
C789 C84 1.241 . S
C794 C216 1.241 . S
C799 C249 1.241 . S
C804 C117 1.241 . S
C809 C414 1.241 . S
C814 C282 1.241 . S
C819 C315 1.241 . S
C824 C447 1.241 . S
C829 C348 1.240 . S
C834 C480 1.240 . S
C839 C381 1.241 . S
C844 C513 1.241 . S
C849 C21 1.571 . S
C854 C186 1.572 . S
C859 C54 1.571 . S
C864 C219 1.572 . S
C869 C252 1.571 . S
C874 C87 1.572 . S
C879 C120 1.572 . S
C884 C153 1.571 . S
C889 C450 1.572 . S
C894 C285 1.571 . S
C899 C318 1.571 . S
C904 C483 1.570 . S
C909 C516 1.571 . S
C914 C351 1.572 . S
C919 C417 1.572 . S
C924 C384 1.571 . S
