# Generated by pormake.
# Topology uof, (4)-cn, num edge types: 1
# Building blocks:
#     Node 0, Type 0, BuildingBlock: GALJAG_clean_sbu_0, # of connection points: 4
#     Node 1, Type 0, BuildingBlock: GALJAG_clean_sbu_0, # of connection points: 4
#     Node 2, Type 0, BuildingBlock: GALJAG_clean_sbu_0, # of connection points: 4
#     Node 3, Type 0, BuildingBlock: GALJAG_clean_sbu_0, # of connection points: 4
#     Node 4, Type 0, BuildingBlock: GALJAG_clean_sbu_0, # of connection points: 4
#     Node 5, Type 0, BuildingBlock: GALJAG_clean_sbu_0, # of connection points: 4
#     Node 6, Type 0, BuildingBlock: GALJAG_clean_sbu_0, # of connection points: 4
#     Node 7, Type 0, BuildingBlock: GALJAG_clean_sbu_0, # of connection points: 4
#     Node 8, Type 0, BuildingBlock: GALJAG_clean_sbu_0, # of connection points: 4
#     Node 9, Type 0, BuildingBlock: GALJAG_clean_sbu_0, # of connection points: 4
#     Node 10, Type 0, BuildingBlock: GALJAG_clean_sbu_0, # of connection points: 4
#     Node 11, Type 0, BuildingBlock: GALJAG_clean_sbu_0, # of connection points: 4
#     Edge 12, Type (0, 0), BuildingBlock: UVAHIK_clean_linker_0, # of connection points: 2
#     Edge 13, Type (0, 0), BuildingBlock: UVAHIK_clean_linker_0, # of connection points: 2
#     Edge 14, Type (0, 0), BuildingBlock: UVAHIK_clean_linker_0, # of connection points: 2
#     Edge 15, Type (0, 0), BuildingBlock: UVAHIK_clean_linker_0, # of connection points: 2
#     Edge 16, Type (0, 0), BuildingBlock: UVAHIK_clean_linker_0, # of connection points: 2
#     Edge 17, Type (0, 0), BuildingBlock: UVAHIK_clean_linker_0, # of connection points: 2
#     Edge 18, Type (0, 0), BuildingBlock: UVAHIK_clean_linker_0, # of connection points: 2
#     Edge 19, Type (0, 0), BuildingBlock: UVAHIK_clean_linker_0, # of connection points: 2
#     Edge 20, Type (0, 0), BuildingBlock: UVAHIK_clean_linker_0, # of connection points: 2
#     Edge 21, Type (0, 0), BuildingBlock: UVAHIK_clean_linker_0, # of connection points: 2
#     Edge 22, Type (0, 0), BuildingBlock: UVAHIK_clean_linker_0, # of connection points: 2
#     Edge 23, Type (0, 0), BuildingBlock: UVAHIK_clean_linker_0, # of connection points: 2
#     Edge 24, Type (0, 0), BuildingBlock: UVAHIK_clean_linker_0, # of connection points: 2
#     Edge 25, Type (0, 0), BuildingBlock: UVAHIK_clean_linker_0, # of connection points: 2
#     Edge 26, Type (0, 0), BuildingBlock: UVAHIK_clean_linker_0, # of connection points: 2
#     Edge 27, Type (0, 0), BuildingBlock: UVAHIK_clean_linker_0, # of connection points: 2
#     Edge 28, Type (0, 0), BuildingBlock: UVAHIK_clean_linker_0, # of connection points: 2
#     Edge 29, Type (0, 0), BuildingBlock: UVAHIK_clean_linker_0, # of connection points: 2
#     Edge 30, Type (0, 0), BuildingBlock: UVAHIK_clean_linker_0, # of connection points: 2
#     Edge 31, Type (0, 0), BuildingBlock: UVAHIK_clean_linker_0, # of connection points: 2
#     Edge 32, Type (0, 0), BuildingBlock: UVAHIK_clean_linker_0, # of connection points: 2
#     Edge 33, Type (0, 0), BuildingBlock: UVAHIK_clean_linker_0, # of connection points: 2
#     Edge 34, Type (0, 0), BuildingBlock: UVAHIK_clean_linker_0, # of connection points: 2
#     Edge 35, Type (0, 0), BuildingBlock: UVAHIK_clean_linker_0, # of connection points: 2
# Relax obj value: 0.137
# Max RMSD: 0.110
# Mean RMSD: 0.110
data_MOF--net-uof--node1-GALJAG_clean_sbu_0--edge1-UVAHIK_clean_linker_0
_symmetry_space_group_name_H-M    P1
_symmetry_Int_Tables_number       1
_symmetry_cell_setting            triclinic
loop_
_symmetry_equiv_pos_as_xyz
'x, y, z'
_cell_length_a     40.399296
_cell_length_b     40.411676
_cell_length_c     88.146291
_cell_angle_alpha  89.964183
_cell_angle_beta   90.052448
_cell_angle_gamma 119.93061
loop_
_atom_site_label
_atom_site_type_symbol
_atom_site_fract_x
_atom_site_fract_y
_atom_site_fract_z
_atom_type_partial_charge
In0 In 0.22768 0.32189 0.23189 0.0
O1 O 0.27689 0.38485 0.23224 0.0
O2 O 0.28963 0.34139 0.22663 0.0
C3 C 0.16627 0.32429 0.22025 0.0
C4 C 0.22162 0.30694 0.26202 0.0
C5 C 0.22402 0.26457 0.21521 0.0
O6 O 0.20006 0.34676 0.21598 0.0
O7 O 0.16394 0.30316 0.23119 0.0
O8 O 0.22838 0.26645 0.2294 0.0
O9 O 0.22196 0.29197 0.20933 0.0
C10 C 0.30221 0.37644 0.22877 0.0
O11 O 0.20876 0.28147 0.25194 0.0
O12 O 0.23566 0.34062 0.257 0.0
In13 In 0.91218 0.22233 0.56451 0.0
O14 O 0.89844 0.27152 0.56579 0.0
O15 O 0.95346 0.28406 0.55845 0.0
C16 C 0.84812 0.16047 0.55339 0.0
C17 C 0.92355 0.2176 0.59452 0.0
C18 C 0.96486 0.21878 0.54714 0.0
O19 O 0.85839 0.1942 0.54935 0.0
O20 O 0.86817 0.15835 0.5639 0.0
O21 O 0.96768 0.22212 0.56137 0.0
O22 O 0.9355 0.21763 0.54157 0.0
C23 C 0.93141 0.29671 0.5615 0.0
O24 O 0.93713 0.20617 0.58427 0.0
O25 O 0.90178 0.22946 0.58975 0.0
In26 In 0.69556 0.91348 0.89833 0.0
O27 O 0.73236 0.94826 0.91794 0.0
O28 O 0.68032 0.89838 0.92367 0.0
C29 C 0.75168 0.96236 0.88002 0.0
C30 C 0.64117 0.93388 0.89579 0.0
C31 C 0.69485 0.84996 0.88742 0.0
O32 O 0.75691 0.95852 0.89386 0.0
O33 O 0.71793 0.94136 0.87533 0.0
O34 O 0.67096 0.85958 0.88323 0.0
O35 O 0.71641 0.87017 0.89802 0.0
C36 C 0.7101 0.92789 0.92831 0.0
O37 O 0.63247 0.89964 0.89837 0.0
O38 O 0.67638 0.95659 0.89423 0.0
In39 In 0.78478 0.69043 0.23135 0.0
O40 O 0.79978 0.73078 0.25123 0.0
O41 O 0.77887 0.6724 0.25653 0.0
C42 C 0.79095 0.74664 0.21322 0.0
C43 C 0.70954 0.63749 0.22895 0.0
C44 C 0.84629 0.68729 0.2204 0.0
O45 O 0.79183 0.74895 0.22749 0.0
O46 O 0.78635 0.71555 0.208 0.0
O47 O 0.81256 0.66443 0.21618 0.0
O48 O 0.84848 0.70913 0.23103 0.0
C49 C 0.78965 0.7057 0.26141 0.0
O50 O 0.73463 0.62802 0.23127 0.0
O51 O 0.72263 0.67287 0.22761 0.0
In52 In 0.09768 0.77877 0.56337 0.0
O53 O 0.11111 0.72935 0.56351 0.0
O54 O 0.0532 0.71601 0.56286 0.0
C55 C 0.16145 0.83599 0.54981 0.0
C56 C 0.08746 0.78566 0.59325 0.0
C57 C 0.04484 0.7837 0.54657 0.0
O58 O 0.15125 0.83901 0.56301 0.0
O59 O 0.14158 0.80332 0.5441 0.0
O60 O 0.0545 0.79833 0.55959 0.0
O61 O 0.06199 0.76673 0.54197 0.0
C62 C 0.07625 0.70361 0.56319 0.0
O63 O 0.07211 0.79481 0.58285 0.0
O64 O 0.11035 0.775 0.58865 0.0
In65 In 0.31975 0.093 0.89665 0.0
O66 O 0.38307 0.10817 0.89864 0.0
O67 O 0.34262 0.05468 0.88926 0.0
C68 C 0.3216 0.15714 0.88586 0.0
C69 C 0.30499 0.07377 0.92631 0.0
C70 C 0.26092 0.04518 0.87916 0.0
O71 O 0.3452 0.1471 0.88171 0.0
O72 O 0.2996 0.1369 0.89635 0.0
O73 O 0.2569 0.05126 0.89289 0.0
O74 O 0.2947 0.06354 0.8742 0.0
C75 C 0.37664 0.0764 0.89331 0.0
O76 O 0.28915 0.05089 0.91549 0.0
O77 O 0.32837 0.1077 0.9223 0.0
In78 In 0.68937 0.77907 0.44135 0.0
O79 O 0.62615 0.73047 0.44051 0.0
O80 O 0.66905 0.71667 0.44585 0.0
C81 C 0.68778 0.8408 0.453 0.0
C82 C 0.70539 0.78573 0.41131 0.0
C83 C 0.74469 0.7806 0.45876 0.0
O84 O 0.66417 0.80698 0.45687 0.0
O85 O 0.70983 0.84311 0.44244 0.0
O86 O 0.74468 0.77848 0.44449 0.0
O87 O 0.7165 0.78169 0.46434 0.0
C88 C 0.63411 0.70464 0.44363 0.0
O89 O 0.73046 0.79704 0.42155 0.0
O90 O 0.67171 0.77301 0.41614 0.0
In91 In 0.91401 0.69023 0.77318 0.0
O92 O 0.89972 0.62702 0.77313 0.0
O93 O 0.95682 0.67058 0.77728 0.0
C94 C 0.85134 0.69025 0.78473 0.0
C95 C 0.92295 0.70515 0.74305 0.0
C96 C 0.96733 0.74584 0.79054 0.0
O97 O 0.86076 0.66604 0.78869 0.0
O98 O 0.87132 0.71181 0.7741 0.0
O99 O 0.96901 0.7463 0.77626 0.0
O100 O 0.93883 0.71695 0.79616 0.0
C101 C 0.93388 0.63542 0.77572 0.0
O102 O 0.93741 0.73047 0.75316 0.0
O103 O 0.90154 0.67173 0.74806 0.0
In104 In 0.22797 0.91562 0.10993 0.0
O105 O 0.27717 0.90172 0.1099 0.0
O106 O 0.29014 0.95871 0.11402 0.0
C107 C 0.16728 0.85071 0.12097 0.0
C108 C 0.22927 0.93214 0.0801 0.0
C109 C 0.21697 0.96253 0.12804 0.0
O110 O 0.20107 0.86264 0.12544 0.0
O111 O 0.16468 0.8695 0.11007 0.0
O112 O 0.20473 0.95526 0.11459 0.0
O113 O 0.23461 0.94583 0.13244 0.0
C114 C 0.30264 0.93597 0.11244 0.0
O115 O 0.231 0.95379 0.09069 0.0
O116 O 0.2253 0.90046 0.08442 0.0
In117 In 0.31796 0.22265 0.44131 0.0
O118 O 0.27721 0.21074 0.42181 0.0
O119 O 0.33431 0.22681 0.41598 0.0
C120 C 0.25984 0.21493 0.45858 0.0
C121 C 0.37083 0.29799 0.44242 0.0
C122 C 0.32521 0.16496 0.45407 0.0
O123 O 0.25514 0.20176 0.44531 0.0
O124 O 0.29396 0.23195 0.46321 0.0
O125 O 0.34112 0.19837 0.45933 0.0
O126 O 0.30845 0.16133 0.44159 0.0
C127 C 0.30138 0.21872 0.4114 0.0
O128 O 0.38029 0.27272 0.44063 0.0
O129 O 0.33545 0.28505 0.44378 0.0
In130 In 0.09865 0.3178 0.77418 0.0
O131 O 0.07701 0.27767 0.75409 0.0
O132 O 0.11079 0.33675 0.7491 0.0
C133 C 0.04481 0.26071 0.79085 0.0
C134 C 0.07771 0.37185 0.77661 0.0
C135 C 0.16204 0.31995 0.78621 0.0
O136 O 0.04419 0.26093 0.77656 0.0
O137 O 0.07257 0.28961 0.79684 0.0
O138 O 0.15062 0.34245 0.79036 0.0
O139 O 0.14357 0.29891 0.7752 0.0
C140 C 0.09059 0.30318 0.74403 0.0
O141 O 0.11188 0.38063 0.77384 0.0
O142 O 0.05523 0.33667 0.7784 0.0
In143 In 0.78126 0.09502 0.11077 0.0
O144 O 0.75942 0.05128 0.092 0.0
O145 O 0.78965 0.1094 0.0851 0.0
C146 C 0.7956 0.04637 0.12627 0.0
C147 C 0.70945 0.08126 0.11604 0.0
C148 C 0.84348 0.15956 0.12123 0.0
O149 O 0.80302 0.05307 0.11234 0.0
O150 O 0.78104 0.06434 0.13239 0.0
O151 O 0.8099 0.14958 0.12541 0.0
O152 O 0.84521 0.139 0.11086 0.0
C153 C 0.77167 0.07462 0.08115 0.0
O154 O 0.73338 0.11029 0.10866 0.0
O155 O 0.72257 0.0611 0.12126 0.0
C156 C 0.91385 0.19203 0.12645 0.0
C157 C 0.87798 0.18817 0.12961 0.0
C158 C 0.94525 0.21372 0.13591 0.0
C159 C 0.96772 0.25064 0.17548 0.0
H160 H 0.07179 0.29943 0.16064 0.0
C161 C 0.09589 0.28725 0.21502 0.0
C162 C 0.13216 0.3181 0.21147 0.0
C163 C 0.0647 0.277 0.20535 0.0
C164 C 0.04299 0.28654 0.16505 0.0
H165 H 0.84757 0.20583 0.1448 0.0
H166 H 0.90257 0.24474 0.16104 0.0
H167 H 0.01907 0.27356 0.1427 0.0
H168 H 0.16356 0.36359 0.1953 0.0
H169 H 0.10896 0.34659 0.17867 0.0
H170 H 0.99164 0.26426 0.19782 0.0
C171 C 0.9063 0.23015 0.15146 0.0
C172 C 0.01256 0.27109 0.15469 0.0
C173 C 0.87478 0.20817 0.14204 0.0
C174 C 0.13602 0.33966 0.19838 0.0
C175 C 0.10472 0.32957 0.18874 0.0
C176 C 0.99815 0.26636 0.18583 0.0
C177 C 0.94181 0.23247 0.14877 0.0
C178 C 0.97439 0.25225 0.15974 0.0
C179 C 0.06877 0.29747 0.19187 0.0
C180 C 0.03629 0.28394 0.1808 0.0
H181 H 0.91731 0.17679 0.11704 0.0
H182 H 0.97176 0.21422 0.13348 0.0
H183 H 0.93889 0.23611 0.17992 0.0
H184 H 0.0919 0.2698 0.22493 0.0
H185 H 0.03782 0.25184 0.20814 0.0
C186 C 0.81553 0.09027 0.54792 0.0
C187 C 0.8199 0.12634 0.54475 0.0
C188 C 0.79427 0.05921 0.53825 0.0
C189 C 0.76018 0.0382 0.4983 0.0
H190 H 0.70921 0.93369 0.51272 0.0
C191 C 0.7254 0.91089 0.45866 0.0
C192 C 0.69384 0.87477 0.46182 0.0
C193 C 0.73525 0.94184 0.46839 0.0
C194 C 0.72274 0.96263 0.50843 0.0
H195 H 0.80358 0.15747 0.52932 0.0
H196 H 0.76544 0.10308 0.51272 0.0
H197 H 0.73423 0.98588 0.53089 0.0
H198 H 0.64676 0.84339 0.47733 0.0
H199 H 0.66314 0.8976 0.49407 0.0
H200 H 0.74811 0.01496 0.47585 0.0
C201 C 0.77929 0.09892 0.52246 0.0
C202 C 0.73768 0.99274 0.51891 0.0
C203 C 0.80082 0.13009 0.53209 0.0
C204 C 0.67125 0.87082 0.47456 0.0
C205 C 0.68096 0.90189 0.48427 0.0
C206 C 0.74499 0.0081 0.48782 0.0
C207 C 0.77649 0.06322 0.52518 0.0
C208 C 0.75727 0.03103 0.51403 0.0
C209 C 0.71367 0.93766 0.48154 0.0
C210 C 0.72664 0.96981 0.49271 0.0
H211 H 0.83005 0.08638 0.5575 0.0
H212 H 0.79335 0.03252 0.54071 0.0
H213 H 0.77533 0.06715 0.49401 0.0
H214 H 0.74363 0.91493 0.44901 0.0
H215 H 0.76089 0.96859 0.46593 0.0
C216 C 0.67917 0.80208 0.86637 0.0
C217 C 0.70228 0.82273 0.87875 0.0
C218 C 0.69031 0.7819 0.8566 0.0
C219 C 0.77735 0.78817 0.84187 0.0
H220 H 0.71391 0.68487 0.82694 0.0
C221 C 0.82327 0.73159 0.79096 0.0
C222 C 0.82463 0.69796 0.79365 0.0
C223 C 0.80412 0.74317 0.80097 0.0
C224 C 0.73189 0.71375 0.83102 0.0
H225 H 0.75436 0.83683 0.89093 0.0
H226 H 0.77389 0.80225 0.87384 0.0
H227 H 0.68831 0.71093 0.8459 0.0
H228 H 0.80494 0.64903 0.80855 0.0
H229 H 0.77043 0.66885 0.82585 0.0
H230 H 0.82063 0.79149 0.82689 0.0
C231 C 0.74717 0.80161 0.87168 0.0
C232 C 0.71722 0.72868 0.84181 0.0
C233 C 0.7358 0.82122 0.88154 0.0
C234 C 0.80433 0.67499 0.80611 0.0
C235 C 0.78459 0.68634 0.81602 0.0
C236 C 0.79167 0.77359 0.83091 0.0
C237 C 0.72507 0.78249 0.85889 0.0
C238 C 0.73994 0.76601 0.84743 0.0
C239 C 0.78531 0.72118 0.81381 0.0
C240 C 0.76921 0.73621 0.82537 0.0
H241 H 0.65328 0.80279 0.86386 0.0
H242 H 0.67273 0.76751 0.84682 0.0
H243 H 0.79545 0.81713 0.84586 0.0
H244 H 0.83863 0.75005 0.78151 0.0
H245 H 0.80485 0.76994 0.79887 0.0
C246 C 0.87682 0.67079 0.19902 0.0
C247 C 0.8805 0.69318 0.2118 0.0
C248 C 0.90812 0.68062 0.18943 0.0
C249 C 0.01446 0.74527 0.18618 0.0
H250 H 0.99281 0.73442 0.14306 0.0
C251 C 0.13735 0.80343 0.14229 0.0
C252 C 0.13327 0.82197 0.12953 0.0
C253 C 0.10614 0.78141 0.15184 0.0
C254 C 0.99953 0.73793 0.15505 0.0
H255 H 0.92043 0.74267 0.22481 0.0
H256 H 0.97444 0.76019 0.20809 0.0
H257 H 0.94037 0.70885 0.1611 0.0
H258 H 0.09273 0.8307 0.11651 0.0
H259 H 0.03883 0.79327 0.13317 0.0
H260 H 0.07358 0.77633 0.18015 0.0
C261 C 0.94775 0.73459 0.2055 0.0
C262 C 0.96927 0.72264 0.16547 0.0
C263 C 0.9166 0.72459 0.21513 0.0
C264 C 0.09688 0.81659 0.12618 0.0
C265 C 0.06579 0.7949 0.13577 0.0
C266 C 0.04471 0.76086 0.17577 0.0
C267 C 0.94385 0.71329 0.1923 0.0
C268 C 0.97621 0.72655 0.18121 0.0
C269 C 0.07008 0.77764 0.14895 0.0
C270 C 0.03776 0.75796 0.16003 0.0
H271 H 0.84942 0.64641 0.19612 0.0
H272 H 0.90402 0.66296 0.17959 0.0
H273 H 0.02118 0.74839 0.19817 0.0
H274 H 0.16498 0.80695 0.14521 0.0
H275 H 0.11056 0.76796 0.16165 0.0
C276 C 0.33207 0.13688 0.47844 0.0
C277 C 0.32045 0.13183 0.46317 0.0
C278 C 0.32156 0.10536 0.48793 0.0
C279 C 0.2849 1.00103 0.48884 0.0
H280 H 0.23914 0.00518 0.5269 0.0
C281 C 0.19189 0.86586 0.52497 0.0
C282 C 0.18948 0.86932 0.54074 0.0
C283 C 0.21313 0.89816 0.51589 0.0
C284 C 0.25252 0.00359 0.51651 0.0
H285 H 0.2903 0.08952 0.44571 0.0
H286 H 0.27254 0.03443 0.46222 0.0
H287 H 0.26724 0.06057 0.51029 0.0
H288 H 0.2093 0.90939 0.55945 0.0
H289 H 0.24769 0.9656 0.54377 0.0
H290 H 0.27044 0.94414 0.49505 0.0
C291 C 0.28969 0.06286 0.46687 0.0
C292 C 0.26855 0.03548 0.50692 0.0
C293 C 0.29988 0.09444 0.4574 0.0
C294 C 0.21049 0.90571 0.54733 0.0
C295 C 0.23215 0.93804 0.53826 0.0
C296 C 0.26927 0.96922 0.49853 0.0
C297 C 0.29947 0.06793 0.48236 0.0
C298 C 0.28459 0.03452 0.49289 0.0
C299 C 0.23297 0.93493 0.52234 0.0
C300 C 0.25237 0.9698 0.51245 0.0
H301 H 0.34786 0.16525 0.48329 0.0
H302 H 0.33002 0.1103 0.49975 0.0
H303 H 0.29736 0.99946 0.47818 0.0
H304 H 0.17581 0.8383 0.51949 0.0
H305 H 0.21244 0.8943 0.50372 0.0
C306 C 0.2834 0.1893 0.88053 0.0
C307 C 0.3154 0.18543 0.87736 0.0
C308 C 0.27341 0.21069 0.871 0.0
C309 C 0.28719 0.24685 0.83129 0.0
H310 H 0.23175 0.29565 0.84604 0.0
C311 C 0.19535 0.2829 0.79162 0.0
C312 C 0.18982 0.31375 0.7951 0.0
C313 C 0.21628 0.27273 0.80135 0.0
C314 C 0.2477 0.28275 0.84166 0.0
H315 H 0.36316 0.20277 0.86204 0.0
H316 H 0.34661 0.24119 0.84568 0.0
H317 H 0.25894 0.27017 0.86403 0.0
H318 H 0.20365 0.35929 0.81121 0.0
H319 H 0.24127 0.34246 0.82793 0.0
H320 H 0.27662 0.26011 0.80892 0.0
C321 C 0.3285 0.22682 0.85533 0.0
C322 C 0.26287 0.26751 0.85204 0.0
C323 C 0.33831 0.20513 0.86482 0.0
C324 C 0.20734 0.33536 0.80819 0.0
C325 C 0.22857 0.32537 0.81788 0.0
C326 C 0.27229 0.26236 0.82091 0.0
C327 C 0.29532 0.22916 0.85804 0.0
C328 C 0.28226 0.24867 0.84703 0.0
C329 C 0.23259 0.29331 0.8148 0.0
C330 C 0.25167 0.27995 0.82591 0.0
H331 H 0.2649 0.17429 0.89002 0.0
H332 H 0.24743 0.2112 0.87345 0.0
H333 H 0.30152 0.23231 0.82688 0.0
H334 H 0.18202 0.26541 0.78171 0.0
H335 H 0.21811 0.2476 0.7986 0.0
C336 C 0.65329 0.57046 0.22843 0.0
C337 C 0.66789 0.61013 0.22837 0.0
C338 C 0.61371 0.54525 0.22809 0.0
C339 C 0.52183 0.53966 0.23712 0.0
H340 H 0.47822 0.45294 0.20984 0.0
C341 C 0.35786 0.44383 0.22964 0.0
C342 C 0.34366 0.40446 0.22792 0.0
C343 C 0.39734 0.46953 0.22925 0.0
C344 C 0.48987 0.47671 0.21769 0.0
H345 H 0.65242 0.65441 0.22793 0.0
H346 H 0.5838 0.61063 0.22746 0.0
H347 H 0.54722 0.49535 0.21049 0.0
H348 H 0.35978 0.36121 0.2245 0.0
H349 H 0.428 0.40545 0.22421 0.0
H350 H 0.46473 0.5208 0.24456 0.0
C351 C 0.60276 0.59892 0.22781 0.0
C352 C 0.52949 0.50104 0.21803 0.0
C353 C 0.64215 0.624 0.22799 0.0
C354 C 0.3697 0.3914 0.22576 0.0
C355 C 0.40898 0.4169 0.22548 0.0
C356 C 0.48223 0.51513 0.23689 0.0
C357 C 0.58801 0.55925 0.22788 0.0
C358 C 0.54594 0.53283 0.22774 0.0
C359 C 0.42347 0.45635 0.22723 0.0
C360 C 0.46564 0.48325 0.22718 0.0
H361 H 0.6724 0.55893 0.22875 0.0
H362 H 0.60318 0.5148 0.22825 0.0
H363 H 0.53367 0.5637 0.24485 0.0
H364 H 0.3385 0.45476 0.23131 0.0
H365 H 0.40734 0.49973 0.23044 0.0
C366 C 0.08772 0.64788 0.56128 0.0
C367 C 0.06259 0.66209 0.56328 0.0
C368 C 0.07377 0.60836 0.56105 0.0
C369 C 0.99168 0.51626 0.57319 0.0
H370 H 0.02506 0.47271 0.54168 0.0
C371 C 0.9204 0.35254 0.56448 0.0
C372 C 0.94466 0.33814 0.56082 0.0
C373 C 0.93428 0.39204 0.56448 0.0
C374 C 0.01572 0.48436 0.55069 0.0
H375 H 1.00328 0.64606 0.56681 0.0
H376 H 0.97922 0.5776 0.56651 0.0
H377 H 0.05184 0.5417 0.54289 0.0
H378 H 1.00243 0.35389 0.55424 0.0
H379 H 0.02662 0.42219 0.55453 0.0
H380 H 0.95595 0.45911 0.58115 0.0
C381 C 0.00962 0.59677 0.56515 0.0
C382 C 0.03114 0.52397 0.55137 0.0
C383 C 0.02344 0.63607 0.56523 0.0
C384 C 0.98287 0.36398 0.55703 0.0
C385 C 0.99674 0.40329 0.5571 0.0
C386 C 0.97647 0.47667 0.57259 0.0
C387 C 0.03452 0.58238 0.563 0.0
C388 C 0.01922 0.54038 0.5626 0.0
C389 C 0.97275 0.41797 0.56088 0.0
C390 C 0.98824 0.46013 0.56132 0.0
H391 H 0.11802 0.66723 0.55975 0.0
H392 H 0.09371 0.59812 0.55947 0.0
H393 H 0.9822 0.52806 0.5821 0.0
H394 H 0.89083 0.33334 0.56744 0.0
H395 H 0.9148 0.40223 0.56725 0.0
C396 C 0.39298 0.02501 0.88973 0.0
C397 C 0.40521 0.06358 0.89281 0.0
C398 C 0.4187 0.01146 0.89003 0.0
C399 C 0.51935 0.0399 0.88593 0.0
H400 H 0.49152 0.94683 0.90823 0.0
C401 C 0.62662 0.987 0.89488 0.0
C402 C 0.61326 0.94754 0.89515 0.0
C403 C 0.60117 1.00088 0.89454 0.0
C404 C 0.49957 0.97248 0.90173 0.0
H405 H 0.45428 0.11836 0.89838 0.0
H406 H 0.49977 0.0947 0.89854 0.0
H407 H 0.44809 0.97233 0.90775 0.0
H408 H 0.56255 0.8916 0.89518 0.0
H409 H 0.51776 0.91575 0.89411 0.0
H410 H 0.57024 0.0397 0.87951 0.0
C411 C 0.47002 0.07501 0.896 0.0
C412 C 0.47473 0.98724 0.90155 0.0
C413 C 0.44404 0.08853 0.89593 0.0
C414 C 0.57369 0.92216 0.89501 0.0
C415 C 0.54806 0.9361 0.8945 0.0
C416 C 0.54399 0.0249 0.88594 0.0
C417 C 0.45746 0.03619 0.89322 0.0
C418 C 0.48438 0.02115 0.89367 0.0
C419 C 0.56149 0.97573 0.89427 0.0
C420 C 0.53457 0.99105 0.8939 0.0
H421 H 0.36324 0.00495 0.88732 0.0
H422 H 0.40824 0.98154 0.88767 0.0
H423 H 0.52729 0.06577 0.87958 0.0
H424 H 0.65695 0.0074 0.89512 0.0
H425 H 0.61278 0.0315 0.89474 0.0
C426 C 0.61844 0.6368 0.44585 0.0
C427 C 0.60575 0.66326 0.444 0.0
C428 C 0.59266 0.59761 0.44564 0.0
C429 C 0.49198 0.52563 0.45149 0.0
H430 H 0.51799 0.46039 0.42818 0.0
C431 C 0.38455 0.36544 0.44284 0.0
C432 C 0.39828 0.33961 0.44266 0.0
C433 C 0.40974 0.40479 0.44297 0.0
C434 C 0.51047 0.47804 0.43494 0.0
H435 H 0.55586 0.66924 0.44069 0.0
H436 H 0.5104 0.60028 0.44049 0.0
H437 H 0.56134 0.5292 0.42843 0.0
H438 H 0.44934 0.33485 0.44253 0.0
H439 H 0.49363 0.40379 0.44312 0.0
H440 H 0.4415 0.47457 0.45825 0.0
C441 C 0.54049 0.61013 0.44209 0.0
C442 C 0.53528 0.51756 0.43501 0.0
C443 C 0.56647 0.64956 0.44216 0.0
C444 C 0.43791 0.35406 0.44263 0.0
C445 C 0.46325 0.39359 0.44288 0.0
C446 C 0.4673 0.48607 0.45151 0.0
C447 C 0.55341 0.58373 0.44369 0.0
C448 C 0.52636 0.54182 0.4433 0.0
C449 C 0.44946 0.41951 0.44305 0.0
C450 C 0.47616 0.46168 0.44322 0.0
H451 H 0.64851 0.64635 0.44731 0.0
H452 H 0.60348 0.57811 0.44712 0.0
H453 H 0.48455 0.5435 0.45815 0.0
H454 H 0.35415 0.35527 0.44276 0.0
H455 H 0.39795 0.42368 0.44279 0.0
C456 C 0.92164 0.56774 0.77561 0.0
C457 C 0.94721 0.60725 0.77632 0.0
C458 C 0.93532 0.54189 0.77588 0.0
C459 C 0.02177 0.53561 0.76784 0.0
H460 H 0.9751 0.44627 0.79375 0.0
C461 C 0.08909 0.43917 0.77605 0.0
C462 C 0.06392 0.39967 0.77716 0.0
C463 C 0.07507 0.46472 0.77624 0.0
C464 C 0.98824 0.47079 0.78628 0.0
H465 H 0.00712 0.65056 0.77792 0.0
H466 H 0.0307 0.60575 0.7783 0.0
H467 H 0.94894 0.48913 0.79303 0.0
H468 H 1.0043 0.35601 0.77926 0.0
H469 H 0.97998 0.40007 0.77922 0.0
H470 H 0.0607 0.51716 0.76086 0.0
C471 C 1.00019 0.59463 0.77746 0.0
C472 C 0.97318 0.49537 0.78589 0.0
C473 C 0.98658 0.6203 0.77734 0.0
C474 C 0.02456 0.38631 0.77849 0.0
C475 C 0.01057 0.41169 0.77857 0.0
C476 C 0.03664 0.51087 0.76811 0.0
C477 C 0.97482 0.55513 0.77668 0.0
C478 C 0.98987 0.52816 0.77672 0.0
C479 C 0.03554 0.45128 0.77745 0.0
C480 C 0.02014 0.47812 0.77736 0.0
H481 H 0.89117 0.55684 0.77481 0.0
H482 H 0.91505 0.51159 0.7752 0.0
H483 H 0.03502 0.5604 0.7605 0.0
H484 H 0.11956 0.45032 0.77503 0.0
H485 H 0.09527 0.49502 0.77556 0.0
C486 C 0.35831 0.9244 0.11478 0.0
C487 C 0.34415 0.94963 0.11298 0.0
C488 C 0.39785 0.93843 0.11545 0.0
C489 C 0.48985 0.01929 0.10367 0.0
H490 H 0.53325 0.99117 0.13707 0.0
C491 C 0.65365 0.0918 0.1119 0.0
C492 C 0.66828 0.06889 0.11722 0.0
C493 C 0.61415 0.07802 0.11196 0.0
C494 C 0.52173 0.99896 0.12751 0.0
H495 H 0.36024 0.00917 0.11021 0.0
H496 H 0.42879 0.0333 0.11104 0.0
H497 H 0.46418 0.96343 0.13529 0.0
H498 H 0.65295 0.01368 0.12687 0.0
H499 H 0.58472 0.98935 0.1265 0.0
H500 H 0.54693 0.05394 0.09557 0.0
C501 C 0.40951 1.00283 0.11205 0.0
C502 C 0.48206 0.98304 0.12654 0.0
C503 C 0.37021 0.98896 0.11166 0.0
C504 C 0.64269 0.03226 0.12281 0.0
C505 C 0.60336 0.01832 0.12267 0.0
C506 C 0.52946 0.03476 0.10449 0.0
C507 C 0.4238 0.97781 0.11401 0.0
C508 C 0.46573 0.99319 0.11466 0.0
C509 C 0.58837 0.04082 0.11715 0.0
C510 C 0.54607 0.02495 0.11645 0.0
H511 H 0.33889 0.89397 0.11583 0.0
H512 H 0.40816 0.91851 0.11692 0.0
H513 H 0.47798 0.02742 0.09432 0.0
H514 H 0.67265 0.12016 0.10753 0.0
H515 H 0.60389 0.09656 0.10788 0.0
C516 C 0.22513 0.99617 0.15267 0.0
C517 C 0.21283 0.99016 0.13751 0.0
C518 C 0.2234 0.0242 0.16131 0.0
C519 C 0.2252 0.11459 0.15705 0.0
H520 H 0.18716 0.09699 0.19835 0.0
C521 C 0.21127 0.22875 0.19088 0.0
C522 C 0.2215 0.23273 0.20626 0.0
C523 C 0.2084 0.19815 0.18249 0.0
C524 C 0.19828 0.10246 0.18689 0.0
H525 H 0.18824 0.00788 0.11956 0.0
H526 H 0.18546 0.05701 0.13465 0.0
H527 H 0.18494 0.04451 0.18382 0.0
H528 H 0.2371 0.20832 0.22496 0.0
H529 H 0.23311 0.1555 0.21024 0.0
H530 H 0.23944 0.17264 0.16014 0.0
C531 C 0.19657 0.0402 0.13981 0.0
C532 C 0.19687 0.07241 0.17858 0.0
C533 C 0.198 0.012 0.13122 0.0
C534 C 0.22898 0.20579 0.21311 0.0
C535 C 0.22642 0.17539 0.20471 0.0
C536 C 0.22691 0.14471 0.16538 0.0
C537 C 0.20965 0.04682 0.15486 0.0
C538 C 0.21033 0.07826 0.1636 0.0
C539 C 0.21601 0.17118 0.18932 0.0
C540 C 0.21352 0.13899 0.1804 0.0
H541 H 0.23666 0.97967 0.15778 0.0
H542 H 0.23389 0.02898 0.17287 0.0
H543 H 0.23628 0.11993 0.14558 0.0
H544 H 0.20512 0.24904 0.18535 0.0
H545 H 0.1998 0.1954 0.17071 0.0
C546 C 0.0282 0.22314 0.54443 0.0
C547 C 0.99386 0.21662 0.53781 0.0
C548 C 0.0558 0.22104 0.53569 0.0
C549 C 0.08687 0.22476 0.49611 0.0
H550 H 0.14454 0.18069 0.5134 0.0
C551 C 0.19187 0.19824 0.4612 0.0
C552 C 0.22806 0.21184 0.46776 0.0
C553 C 0.16208 0.19683 0.46968 0.0
C554 C 0.12874 0.19322 0.50848 0.0
H555 H 0.9611 0.2025 0.51696 0.0
H556 H 0.00905 0.19797 0.50169 0.0
H557 H 0.09409 0.18162 0.52825 0.0
H558 H 0.26149 0.23389 0.48833 0.0
H559 H 0.20917 0.23108 0.50323 0.0
H560 H 0.12143 0.23602 0.47628 0.0
C561 C 0.01498 0.20544 0.51357 0.0
C562 C 0.09997 0.19388 0.51697 0.0
C563 C 0.98747 0.20785 0.52231 0.0
C564 C 0.23383 0.22331 0.48301 0.0
C565 C 0.20392 0.22154 0.49154 0.0
C566 C 0.11542 0.2238 0.48757 0.0
C567 C 0.04946 0.21204 0.52017 0.0
C568 C 0.07896 0.20997 0.51093 0.0
C569 C 0.16791 0.20861 0.4849 0.0
C570 C 0.13677 0.2083 0.49374 0.0
H571 H 0.03392 0.23018 0.55636 0.0
H572 H 0.08233 0.22698 0.54106 0.0
H573 H 0.07161 0.23789 0.49121 0.0
H574 H 0.18668 0.18922 0.44945 0.0
H575 H 0.13445 0.18644 0.46436 0.0
C576 C 0.9828 0.19991 0.7925 0.0
C577 C 0.01513 0.22912 0.79977 0.0
C578 C 0.95451 0.16988 0.80088 0.0
C579 C 0.93783 0.11772 0.83647 0.0
H580 H 0.83167 0.08801 0.8297 0.0
C581 C 0.81785 0.01652 0.87666 0.0
C582 C 0.78244 0.99037 0.87029 0.0
C583 C 0.84661 0.04426 0.86763 0.0
C584 C 0.86112 0.09553 0.83156 0.0
H585 H 0.04352 0.24992 0.82143 0.0
H586 H 0.99394 0.19711 0.83612 0.0
H587 H 0.88142 0.1396 0.81476 0.0
H588 H 0.74946 0.97191 0.84948 0.0
H589 H 0.80012 0.01996 0.83359 0.0
H590 H 0.91765 0.07354 0.85318 0.0
C591 C 0.99065 0.19749 0.82393 0.0
C592 C 0.88955 0.12514 0.82305 0.0
C593 C 0.01883 0.22774 0.81556 0.0
C594 C 0.77648 0.99192 0.85468 0.0
C595 C 0.80538 0.01953 0.84562 0.0
C596 C 0.90938 0.08791 0.84491 0.0
C597 C 0.95822 0.16839 0.81666 0.0
C598 C 0.92814 0.13663 0.8255 0.0
C599 C 0.84063 0.04621 0.85203 0.0
C600 C 0.87074 0.07668 0.84262 0.0
H601 H 0.97927 0.20029 0.78033 0.0
H602 H 0.92992 0.14758 0.795 0.0
H603 H 0.96739 0.12575 0.83842 0.0
H604 H 0.82313 0.01605 0.88869 0.0
H605 H 0.87321 0.06475 0.87297 0.0
C606 C 0.81127 0.99403 0.12675 0.0
C607 C 0.80199 0.01854 0.1346 0.0
C608 C 0.815 0.96603 0.13456 0.0
C609 C 0.83177 0.9389 0.17223 0.0
H610 H 0.77184 0.8349 0.15753 0.0
C611 C 0.79598 0.81011 0.21001 0.0
C612 C 0.79532 0.77813 0.2035 0.0
C613 C 0.80045 0.84027 0.20093 0.0
C614 C 0.78931 0.86383 0.16164 0.0
H615 H 0.79047 0.03397 0.15672 0.0
H616 H 0.79732 0.98519 0.1704 0.0
H617 H 0.77455 0.88721 0.14275 0.0
H618 H 0.79915 0.75254 0.18245 0.0
H619 H 0.80768 0.80572 0.16652 0.0
H620 H 0.84649 0.9157 0.19114 0.0
C621 C 0.80171 0.98765 0.15823 0.0
C622 C 0.79079 0.89373 0.15319 0.0
C623 C 0.79757 0.01536 0.15041 0.0
C624 C 0.79935 0.77683 0.18773 0.0
C625 C 0.80411 0.80719 0.17863 0.0
C626 C 0.83057 0.90907 0.18062 0.0
C627 C 0.80997 0.96245 0.15035 0.0
C628 C 0.81146 0.9314 0.15856 0.0
C629 C 0.80469 0.83923 0.18514 0.0
C630 C 0.80871 0.87114 0.17557 0.0
H631 H 0.81484 0.99592 0.11454 0.0
H632 H 0.82162 0.94704 0.12827 0.0
H633 H 0.84831 0.96782 0.17648 0.0
H634 H 0.79274 0.81175 0.22214 0.0
H635 H 0.79998 0.86416 0.20627 0.0
C636 C 0.77758 0.78958 0.48366 0.0
C637 C 0.77528 0.78148 0.46809 0.0
C638 C 0.80712 0.79101 0.49238 0.0
C639 C 0.90314 0.80153 0.48877 0.0
H640 H 0.88292 0.75944 0.52947 0.0
C641 C 0.00855 0.77299 0.52247 0.0
C642 C 0.01502 0.78539 0.53761 0.0
C643 C 0.97973 0.77389 0.51408 0.0
C644 C 0.88897 0.7716 0.51817 0.0
H645 H 0.80139 0.76786 0.44944 0.0
H646 H 0.85227 0.76931 0.4647 0.0
H647 H 0.83112 0.75782 0.51463 0.0
H648 H 0.99669 0.80844 0.55589 0.0
H649 H 0.94598 0.80965 0.54121 0.0
H650 H 0.96082 0.81447 0.49225 0.0
C651 C 0.83196 0.77554 0.47014 0.0
C652 C 0.85941 0.77078 0.50969 0.0
C653 C 0.80268 0.77445 0.46141 0.0
C654 C 0.99229 0.79876 0.54422 0.0
C655 C 0.96321 0.79927 0.53588 0.0
C656 C 0.93257 0.80201 0.49721 0.0
C657 C 0.83467 0.78406 0.4857 0.0
C658 C 0.86615 0.78562 0.49487 0.0
C659 C 0.9567 0.78683 0.52074 0.0
C660 C 0.9257 0.78697 0.51195 0.0
H661 H 0.75685 0.79526 0.48906 0.0
H662 H 0.80868 0.79811 0.5043 0.0
H663 H 0.90945 0.81388 0.47751 0.0
H664 H 0.02569 0.76253 0.51712 0.0
H665 H 0.97501 0.76384 0.50245 0.0
C666 C 0.23405 0.01315 0.85439 0.0
C667 C 0.2289 0.01721 0.86989 0.0
C668 C 0.20423 0.98505 0.84583 0.0
C669 C 0.11875 0.89199 0.84975 0.0
H670 H 0.09324 0.91275 0.80977 0.0
C671 C 0.99098 0.77826 0.81551 0.0
C672 C 0.99647 0.77686 0.79986 0.0
C673 C 0.01841 0.80826 0.82423 0.0
C674 C 0.10032 0.90642 0.82084 0.0
H675 H 0.18856 0.99578 0.88855 0.0
H676 H 0.13648 0.94646 0.87356 0.0
H677 H 0.14304 0.96475 0.8246 0.0
H678 H 0.03491 0.80515 0.78104 0.0
H679 H 0.08323 0.85694 0.79629 0.0
H680 H 0.07681 0.83358 0.84592 0.0
C681 C 0.16359 0.96492 0.86809 0.0
C682 C 0.1287 0.93619 0.82933 0.0
C683 C 0.19329 0.99321 0.87662 0.0
C684 C 0.02989 0.80568 0.79308 0.0
C685 C 0.05743 0.83548 0.8018 0.0
C686 C 0.09059 0.86215 0.84122 0.0
C687 C 0.16894 0.96039 0.85266 0.0
C688 C 0.13819 0.92919 0.84383 0.0
C689 C 0.05191 0.83721 0.81745 0.0
C690 C 0.08117 0.86902 0.82666 0.0
H691 H 0.26126 0.03132 0.84894 0.0
H692 H 0.20911 0.98191 0.83397 0.0
H693 H 0.12596 0.8858 0.86083 0.0
H694 H 0.96532 0.75644 0.82099 0.0
H695 H 0.01312 0.80904 0.83623 0.0
C696 C 0.32058 0.23734 0.38417 0.0
C697 C 0.29224 0.22255 0.39544 0.0
C698 C 0.31218 0.24513 0.36959 0.0
C699 C 0.23058 0.22538 0.34401 0.0
H700 H 0.3053 0.31805 0.32383 0.0
C701 C 0.21068 0.2595 0.28232 0.0
C702 C 0.22452 0.29771 0.27807 0.0
C703 C 0.21775 0.25038 0.29679 0.0
C704 C 0.28391 0.2923 0.32939 0.0
H705 H 0.23267 0.20347 0.40014 0.0
H706 H 0.21827 0.21741 0.37505 0.0
H707 H 0.32064 0.30094 0.34832 0.0
H708 H 0.25553 0.3563 0.28589 0.0
H709 H 0.26704 0.34033 0.31143 0.0
H710 H 0.19337 0.21731 0.3254 0.0
C711 C 0.24683 0.22254 0.37724 0.0
C712 C 0.29297 0.28212 0.34333 0.0
C713 C 0.25517 0.21467 0.39171 0.0
C714 C 0.24441 0.32658 0.28885 0.0
C715 C 0.25138 0.31742 0.30341 0.0
C716 C 0.22145 0.23566 0.33015 0.0
C717 C 0.27527 0.23832 0.36601 0.0
C718 C 0.2664 0.24852 0.35085 0.0
C719 C 0.23867 0.2792 0.30749 0.0
C720 C 0.24799 0.2692 0.32261 0.0
H721 H 0.34944 0.24383 0.38671 0.0
H722 H 0.33467 0.25674 0.36117 0.0
H723 H 0.20949 0.19907 0.34934 0.0
H724 H 0.19546 0.23654 0.27426 0.0
H725 H 0.20792 0.2207 0.29937 0.0
C726 C 0.96416 0.21122 0.61433 0.0
C727 C 0.9366 0.22133 0.61047 0.0
C728 C 0.98068 0.21907 0.62874 0.0
C729 C 0.99802 0.28146 0.66218 0.0
H730 H 0.02816 0.21352 0.68073 0.0
C731 C 0.08932 0.32324 0.71708 0.0
C732 C 0.07893 0.29423 0.72793 0.0
C733 C 0.07367 0.31447 0.70243 0.0
C734 C 0.01974 0.23276 0.67581 0.0
H735 H 0.90383 0.24652 0.61892 0.0
H736 H 0.93185 0.25923 0.64436 0.0
H737 H 0.99381 0.1959 0.65681 0.0
H738 H 0.04481 0.2332 0.73179 0.0
H739 H 0.01726 0.21808 0.70658 0.0
H740 H 0.02273 0.31762 0.68153 0.0
C741 C 0.94135 0.24599 0.63608 0.0
C742 C 1.00035 0.22283 0.66194 0.0
C743 C 0.92493 0.23831 0.62156 0.0
C744 C 0.05363 0.25625 0.72369 0.0
C745 C 0.03789 0.24753 0.70914 0.0
C746 C 0.01717 0.29127 0.67614 0.0
C747 C 0.96991 0.237 0.63979 0.0
C748 C 0.98929 0.24706 0.65489 0.0
C749 C 0.04721 0.27652 0.69835 0.0
C750 C 0.02827 0.26702 0.68316 0.0
H751 H 0.97403 0.19835 0.60602 0.0
H752 H 1.00292 0.21221 0.63102 0.0
H753 H 0.9905 0.30115 0.65702 0.0
H754 H 0.10867 0.35279 0.72003 0.0
H755 H 0.08202 0.33749 0.69435 0.0
C756 C 0.7379 0.0229 0.0621 0.0
C757 C 0.76491 0.06122 0.06522 0.0
C758 C 0.73174 0.00895 0.04728 0.0
C759 C 0.77825 0.02423 0.01044 0.0
H760 H 0.67528 0.96036 0.99521 0.0
C761 C 0.74887 0.97613 0.94797 0.0
C762 C 0.71746 0.94026 0.94438 0.0
C763 C 0.7548 0.99012 0.96278 0.0
C764 C 0.70423 0.97758 0.99934 0.0
H765 H 0.80652 0.11507 0.05521 0.0
H766 H 0.79613 0.09038 0.02912 0.0
H767 H 0.68507 0.98771 0.02059 0.0
H768 H 0.66811 0.89045 0.95363 0.0
H769 H 0.6791 0.91432 0.97974 0.0
H770 H 0.79759 0.01347 0.98944 0.0
C771 C 0.77969 0.07127 0.03825 0.0
C772 C 0.70982 0.9935 0.01386 0.0
C773 C 0.78551 0.08545 0.05313 0.0
C774 C 0.69256 0.91819 0.95605 0.0
C775 C 0.69871 0.9321 0.97098 0.0
C776 C 0.77269 0.00796 0.99599 0.0
C777 C 0.75273 0.03282 0.03519 0.0
C778 C 0.74688 0.01708 0.01955 0.0
C779 C 0.72973 0.96849 0.97451 0.0
C780 C 0.73559 0.98452 0.99019 0.0
H781 H 0.7215 0.00348 0.07115 0.0
H782 H 0.71108 0.97915 0.04532 0.0
H783 H 0.80713 0.04175 0.01462 0.0
H784 H 0.76849 0.99405 0.93924 0.0
H785 H 0.77855 0.01849 0.96491 0.0
C786 C 0.7969 0.75216 0.28156 0.0
C787 C 0.7864 0.71457 0.27747 0.0
C788 C 0.78958 0.76053 0.29611 0.0
C789 C 0.72741 0.71516 0.32947 0.0
H790 H 0.79652 0.81211 0.34845 0.0
C791 C 0.75271 0.79471 0.39125 0.0
C792 C 0.71477 0.78297 0.39528 0.0
C793 C 0.7616 0.78763 0.37675 0.0
C794 C 0.77696 0.78476 0.34341 0.0
H795 H 0.76107 0.65639 0.28564 0.0
H796 H 0.74911 0.67114 0.31131 0.0
H797 H 0.8138 0.79558 0.3244 0.0
H798 H 0.65651 0.75572 0.38703 0.0
H799 H 0.67214 0.74425 0.36146 0.0
H800 H 0.69116 0.70386 0.34878 0.0
C801 C 0.76235 0.69408 0.30311 0.0
C802 C 0.78671 0.77542 0.32948 0.0
C803 C 0.76958 0.68565 0.28846 0.0
C804 C 0.68602 0.76519 0.38426 0.0
C805 C 0.69497 0.75824 0.36966 0.0
C806 C 0.71776 0.72441 0.34348 0.0
C807 C 0.77173 0.73157 0.30705 0.0
C808 C 0.76203 0.74058 0.32227 0.0
C809 C 0.73283 0.76881 0.3658 0.0
C810 C 0.7424 0.75937 0.35063 0.0
H811 H 0.80972 0.77512 0.27334 0.0
H812 H 0.79674 0.7896 0.29858 0.0
H813 H 0.70742 0.6883 0.32419 0.0
H814 H 0.77554 0.80826 0.39949 0.0
H815 H 0.79096 0.79576 0.37433 0.0
C816 C 0.0875 0.7669 0.62049 0.0
C817 C 0.07523 0.78306 0.60926 0.0
C818 C 0.0716 0.75998 0.6351 0.0
C819 C 0.01337 0.78411 0.66087 0.0
H820 H 0.99045 0.68947 0.68078 0.0
C821 C 0.96056 0.75182 0.72271 0.0
C822 C 0.93473 0.71398 0.72696 0.0
C823 C 0.9763 0.7603 0.70817 0.0
C824 C 0.99619 0.7158 0.6753 0.0
H825 H 0.03748 0.80561 0.60467 0.0
H826 H 0.00963 0.7932 0.62984 0.0
H827 H 0.0225 0.7053 0.65624 0.0
H828 H 0.90406 0.65544 0.71906 0.0
H829 H 0.93081 0.67034 0.6934 0.0
H830 H 0.98601 0.79409 0.67962 0.0
C831 C 0.03183 0.78629 0.62758 0.0
C832 C 0.01522 0.72522 0.66133 0.0
C833 C 0.04775 0.7933 0.61307 0.0
C834 C 0.92383 0.68489 0.71611 0.0
C835 C 0.93953 0.69342 0.70147 0.0
C836 C 0.99417 0.77459 0.67477 0.0
C837 C 0.04307 0.76902 0.63875 0.0
C838 C 0.02408 0.75953 0.65391 0.0
C839 C 0.96649 0.7312 0.6974 0.0
C840 C 0.98541 0.74038 0.68222 0.0
H841 H 0.10854 0.7586 0.61789 0.0
H842 H 0.08143 0.74721 0.64347 0.0
H843 H 0.02 0.81095 0.65562 0.0
H844 H 0.96976 0.77492 0.73081 0.0
H845 H 0.99729 0.78962 0.70559 0.0
C846 C 0.24633 0.98338 0.06089 0.0
C847 C 0.23438 0.94495 0.06409 0.0
C848 C 0.25335 0.99696 0.04602 0.0
C849 C 0.27252 0.9737 0.00735 0.0
H850 H 0.25226 0.05447 0.99559 0.0
C851 C 0.27709 0.02108 0.94529 0.0
C852 C 0.29731 0.06052 0.94226 0.0
C853 C 0.26994 0.00754 0.96017 0.0
C854 C 0.2584 0.03219 0.99877 0.0
H855 H 0.2198 0.89039 0.05412 0.0
H856 H 0.23069 0.91374 0.02792 0.0
H857 H 0.23624 0.02793 0.02112 0.0
H858 H 0.32562 0.11672 0.9525 0.0
H859 H 0.31232 0.09287 0.97874 0.0
H860 H 0.29358 0.97737 0.98474 0.0
C861 C 0.2356 0.9337 0.037 0.0
C862 C 0.2493 0.01693 0.01342 0.0
C863 C 0.22903 0.92016 0.052 0.0
C864 C 0.30997 0.08621 0.9545 0.0
C865 C 0.30227 0.07257 0.96947 0.0
C866 C 0.2811 0.9886 0.99263 0.0
C867 C 0.24811 0.97242 0.03382 0.0
C868 C 0.25643 0.98759 0.01797 0.0
C869 C 0.28239 0.03305 0.97243 0.0
C870 C 0.27425 0.01808 0.9882 0.0
H871 H 0.25113 1.00339 0.06996 0.0
H872 H 0.26375 0.02705 0.04417 0.0
H873 H 0.27914 0.95172 0.01044 0.0
H874 H 0.26696 1.00048 0.93612 0.0
H875 H 0.2542 0.97698 0.96208 0.0
loop_
_geom_bond_atom_site_label_1
_geom_bond_atom_site_label_2
_geom_bond_distance
_geom_bond_site_symmetry_2
_ccdc_geom_bond_type
In0 O1 2.294 . S
In0 O2 2.326 . S
In0 O6 2.266 . S
In0 O7 2.326 . S
In0 O8 2.266 . S
In0 O9 2.326 . S
In0 O11 2.294 . S
In0 O12 2.326 . S
O1 In0 2.294 . S
O1 C10 1.240 . S
O2 In0 2.326 . S
O2 C10 1.252 . S
C3 O6 1.252 . S
C3 O7 1.260 . S
C4 O11 1.240 . S
C4 O12 1.252 . S
C5 O8 1.252 . S
C5 O9 1.260 . S
O6 In0 2.266 . S
O6 C3 1.252 . S
O7 In0 2.326 . S
O7 C3 1.260 . S
O8 In0 2.266 . S
O8 C5 1.252 . S
O9 In0 2.326 . S
O9 C5 1.260 . S
C10 O1 1.240 . S
C10 O2 1.252 . S
O11 In0 2.294 . S
O11 C4 1.240 . S
O12 In0 2.326 . S
O12 C4 1.252 . S
In13 O14 2.294 . S
In13 O15 2.326 . S
In13 O19 2.266 . S
In13 O20 2.326 . S
In13 O21 2.266 1_655 S
In13 O22 2.326 . S
In13 O24 2.294 . S
In13 O25 2.326 . S
O14 In13 2.294 . S
O14 C23 1.240 . S
O15 In13 2.326 . S
O15 C23 1.252 . S
C16 O19 1.252 . S
C16 O20 1.260 . S
C17 O24 1.240 . S
C17 O25 1.252 . S
C18 O21 1.252 . S
C18 O22 1.260 1_455 S
O19 In13 2.266 . S
O19 C16 1.252 . S
O20 In13 2.326 . S
O20 C16 1.260 . S
O21 In13 2.266 1_455 S
O21 C18 1.252 . S
O22 In13 2.326 . S
O22 C18 1.260 1_655 S
C23 O14 1.240 . S
C23 O15 1.252 . S
O24 In13 2.294 . S
O24 C17 1.240 . S
O25 In13 2.326 . S
O25 C17 1.252 . S
In26 O27 2.294 . S
In26 O28 2.326 . S
In26 O32 2.266 1_565 S
In26 O33 2.326 . S
In26 O34 2.266 . S
In26 O35 2.326 . S
In26 O37 2.294 . S
In26 O38 2.326 . S
O27 In26 2.294 . S
O27 C36 1.240 . S
O28 In26 2.326 . S
O28 C36 1.252 . S
C29 O32 1.252 . S
C29 O33 1.260 1_545 S
C30 O37 1.240 . S
C30 O38 1.252 . S
C31 O34 1.252 . S
C31 O35 1.260 . S
O32 In26 2.266 1_545 S
O32 C29 1.252 . S
O33 In26 2.326 . S
O33 C29 1.260 1_565 S
O34 In26 2.266 . S
O34 C31 1.252 . S
O35 In26 2.326 . S
O35 C31 1.260 . S
C36 O27 1.240 . S
C36 O28 1.252 . S
O37 In26 2.294 . S
O37 C30 1.240 . S
O38 In26 2.326 . S
O38 C30 1.252 . S
In39 O40 2.294 . S
In39 O41 2.326 . S
In39 O45 2.266 . S
In39 O46 2.326 . S
In39 O47 2.266 . S
In39 O48 2.326 . S
In39 O50 2.294 . S
In39 O51 2.326 . S
O40 In39 2.294 . S
O40 C49 1.240 . S
O41 In39 2.326 . S
O41 C49 1.252 . S
C42 O45 1.252 . S
C42 O46 1.260 . S
C43 O50 1.240 . S
C43 O51 1.252 . S
C44 O47 1.252 . S
C44 O48 1.260 . S
O45 In39 2.266 . S
O45 C42 1.252 . S
O46 In39 2.326 . S
O46 C42 1.260 . S
O47 In39 2.266 . S
O47 C44 1.252 . S
O48 In39 2.326 . S
O48 C44 1.260 . S
C49 O40 1.240 . S
C49 O41 1.252 . S
O50 In39 2.294 . S
O50 C43 1.240 . S
O51 In39 2.326 . S
O51 C43 1.252 . S
In52 O53 2.294 . S
In52 O54 2.326 . S
In52 O58 2.266 . S
In52 O59 2.326 . S
In52 O60 2.266 1_455 S
In52 O61 2.326 . S
In52 O63 2.294 . S
In52 O64 2.326 . S
O53 In52 2.294 . S
O53 C62 1.240 . S
O54 In52 2.326 . S
O54 C62 1.252 . S
C55 O58 1.252 . S
C55 O59 1.260 . S
C56 O63 1.240 . S
C56 O64 1.252 . S
C57 O60 1.252 . S
C57 O61 1.260 1_655 S
O58 In52 2.266 . S
O58 C55 1.252 . S
O59 In52 2.326 . S
O59 C55 1.260 . S
O60 In52 2.266 1_655 S
O60 C57 1.252 . S
O61 In52 2.326 . S
O61 C57 1.260 1_455 S
C62 O53 1.240 . S
C62 O54 1.252 . S
O63 In52 2.294 . S
O63 C56 1.240 . S
O64 In52 2.326 . S
O64 C56 1.252 . S
In65 O66 2.294 . S
In65 O67 2.326 . S
In65 O71 2.266 . S
In65 O72 2.326 . S
In65 O73 2.266 1_545 S
In65 O74 2.326 . S
In65 O76 2.294 . S
In65 O77 2.326 . S
O66 In65 2.294 . S
O66 C75 1.240 . S
O67 In65 2.326 . S
O67 C75 1.252 . S
C68 O71 1.252 . S
C68 O72 1.260 . S
C69 O76 1.240 . S
C69 O77 1.252 . S
C70 O73 1.252 . S
C70 O74 1.260 1_565 S
O71 In65 2.266 . S
O71 C68 1.252 . S
O72 In65 2.326 . S
O72 C68 1.260 . S
O73 In65 2.266 1_565 S
O73 C70 1.252 . S
O74 In65 2.326 . S
O74 C70 1.260 1_545 S
C75 O66 1.240 . S
C75 O67 1.252 . S
O76 In65 2.294 . S
O76 C69 1.240 . S
O77 In65 2.326 . S
O77 C69 1.252 . S
In78 O79 2.294 . S
In78 O80 2.326 . S
In78 O84 2.266 . S
In78 O85 2.326 . S
In78 O86 2.266 . S
In78 O87 2.326 . S
In78 O89 2.294 . S
In78 O90 2.326 . S
O79 In78 2.294 . S
O79 C88 1.240 . S
O80 In78 2.326 . S
O80 C88 1.252 . S
C81 O84 1.252 . S
C81 O85 1.260 . S
C82 O89 1.240 . S
C82 O90 1.252 . S
C83 O86 1.252 . S
C83 O87 1.260 . S
O84 In78 2.266 . S
O84 C81 1.252 . S
O85 In78 2.326 . S
O85 C81 1.260 . S
O86 In78 2.266 . S
O86 C83 1.252 . S
O87 In78 2.326 . S
O87 C83 1.260 . S
C88 O79 1.240 . S
C88 O80 1.252 . S
O89 In78 2.294 . S
O89 C82 1.240 . S
O90 In78 2.326 . S
O90 C82 1.252 . S
In91 O92 2.294 . S
In91 O93 2.326 . S
In91 O97 2.266 . S
In91 O98 2.326 . S
In91 O99 2.266 1_655 S
In91 O100 2.326 . S
In91 O102 2.294 . S
In91 O103 2.326 . S
O92 In91 2.294 . S
O92 C101 1.240 . S
O93 In91 2.326 . S
O93 C101 1.252 . S
C94 O97 1.252 . S
C94 O98 1.260 . S
C95 O102 1.240 . S
C95 O103 1.252 . S
C96 O99 1.252 . S
C96 O100 1.260 1_455 S
O97 In91 2.266 . S
O97 C94 1.252 . S
O98 In91 2.326 . S
O98 C94 1.260 . S
O99 In91 2.266 1_455 S
O99 C96 1.252 . S
O100 In91 2.326 . S
O100 C96 1.260 1_655 S
C101 O92 1.240 . S
C101 O93 1.252 . S
O102 In91 2.294 . S
O102 C95 1.240 . S
O103 In91 2.326 . S
O103 C95 1.252 . S
In104 O105 2.294 . S
In104 O106 2.326 . S
In104 O110 2.266 . S
In104 O111 2.326 . S
In104 O112 2.266 1_565 S
In104 O113 2.326 . S
In104 O115 2.294 . S
In104 O116 2.326 . S
O105 In104 2.294 . S
O105 C114 1.240 . S
O106 In104 2.326 . S
O106 C114 1.252 . S
C107 O110 1.252 . S
C107 O111 1.260 . S
C108 O115 1.240 . S
C108 O116 1.252 . S
C109 O112 1.252 . S
C109 O113 1.260 1_545 S
O110 In104 2.266 . S
O110 C107 1.252 . S
O111 In104 2.326 . S
O111 C107 1.260 . S
O112 In104 2.266 1_545 S
O112 C109 1.252 . S
O113 In104 2.326 . S
O113 C109 1.260 1_565 S
C114 O105 1.240 . S
C114 O106 1.252 . S
O115 In104 2.294 . S
O115 C108 1.240 . S
O116 In104 2.326 . S
O116 C108 1.252 . S
In117 O118 2.294 . S
In117 O119 2.326 . S
In117 O123 2.266 . S
In117 O124 2.326 . S
In117 O125 2.266 . S
In117 O126 2.326 . S
In117 O128 2.294 . S
In117 O129 2.326 . S
O118 In117 2.294 . S
O118 C127 1.240 . S
O119 In117 2.326 . S
O119 C127 1.252 . S
C120 O123 1.252 . S
C120 O124 1.260 . S
C121 O128 1.240 . S
C121 O129 1.252 . S
C122 O125 1.252 . S
C122 O126 1.260 . S
O123 In117 2.266 . S
O123 C120 1.252 . S
O124 In117 2.326 . S
O124 C120 1.260 . S
O125 In117 2.266 . S
O125 C122 1.252 . S
O126 In117 2.326 . S
O126 C122 1.260 . S
C127 O118 1.240 . S
C127 O119 1.252 . S
O128 In117 2.294 . S
O128 C121 1.240 . S
O129 In117 2.326 . S
O129 C121 1.252 . S
In130 O131 2.294 . S
In130 O132 2.326 . S
In130 O136 2.266 1_455 S
In130 O137 2.326 . S
In130 O138 2.266 . S
In130 O139 2.326 . S
In130 O141 2.294 . S
In130 O142 2.326 . S
O131 In130 2.294 . S
O131 C140 1.240 . S
O132 In130 2.326 . S
O132 C140 1.252 . S
C133 O136 1.252 . S
C133 O137 1.260 1_655 S
C134 O141 1.240 . S
C134 O142 1.252 . S
C135 O138 1.252 . S
C135 O139 1.260 . S
O136 In130 2.266 1_655 S
O136 C133 1.252 . S
O137 In130 2.326 . S
O137 C133 1.260 1_455 S
O138 In130 2.266 . S
O138 C135 1.252 . S
O139 In130 2.326 . S
O139 C135 1.260 . S
C140 O131 1.240 . S
C140 O132 1.252 . S
O141 In130 2.294 . S
O141 C134 1.240 . S
O142 In130 2.326 . S
O142 C134 1.252 . S
In143 O144 2.294 . S
In143 O145 2.326 . S
In143 O149 2.266 1_545 S
In143 O150 2.326 . S
In143 O151 2.266 . S
In143 O152 2.326 . S
In143 O154 2.294 . S
In143 O155 2.326 . S
O144 In143 2.294 . S
O144 C153 1.240 . S
O145 In143 2.326 . S
O145 C153 1.252 . S
C146 O149 1.252 . S
C146 O150 1.260 1_565 S
C147 O154 1.240 . S
C147 O155 1.252 . S
C148 O151 1.252 . S
C148 O152 1.260 . S
O149 In143 2.266 1_565 S
O149 C146 1.252 . S
O150 In143 2.326 . S
O150 C146 1.260 1_545 S
O151 In143 2.266 . S
O151 C148 1.252 . S
O152 In143 2.326 . S
O152 C148 1.260 . S
C153 O144 1.240 . S
C153 O145 1.252 . S
O154 In143 2.294 . S
O154 C147 1.240 . S
O155 In143 2.326 . S
O155 C147 1.252 . S
C156 C157 1.349 . S
C156 C158 1.327 . S
C156 H181 0.950 . S
C157 C156 1.349 . S
C157 C173 1.349 . S
C158 C156 1.327 . S
C158 C177 1.429 . S
C158 H182 0.950 . S
C159 C176 1.574 . S
C159 C178 1.368 . S
C159 H183 0.949 . S
H160 C164 0.949 . S
C161 C162 1.349 . S
C161 C163 1.327 . S
C161 H184 0.950 . S
C162 C161 1.349 . S
C162 C174 1.349 . S
C163 C161 1.327 . S
C163 C179 1.429 . S
C163 H185 0.950 . S
C164 H160 0.949 . S
C164 C172 1.574 . S
C164 C180 1.368 . S
H165 C173 0.950 . S
H166 C171 0.950 . S
H167 C172 0.949 . S
H168 C174 0.950 . S
H169 C175 0.950 . S
H170 C176 0.949 . S
C171 H166 0.950 . S
C171 C173 1.327 . S
C171 C177 1.429 . S
C172 C164 1.574 . S
C172 H167 0.949 . S
C172 C178 1.368 1_455 S
C173 C157 1.349 . S
C173 H165 0.950 . S
C173 C171 1.327 . S
C174 C162 1.349 . S
C174 H168 0.950 . S
C174 C175 1.327 . S
C175 H169 0.950 . S
C175 C174 1.327 . S
C175 C179 1.429 . S
C176 C159 1.574 . S
C176 H170 0.949 . S
C176 C180 1.368 1_655 S
C177 C158 1.429 . S
C177 C171 1.429 . S
C177 C178 1.523 . S
C178 C159 1.368 . S
C178 C172 1.368 1_655 S
C178 C177 1.523 . S
C179 C163 1.429 . S
C179 C175 1.429 . S
C179 C180 1.523 . S
C180 C164 1.368 . S
C180 C176 1.368 1_455 S
C180 C179 1.523 . S
H181 C156 0.950 . S
H182 C158 0.950 . S
H183 C159 0.949 . S
H184 C161 0.950 . S
H185 C163 0.950 . S
C186 C187 1.349 . S
C186 C188 1.327 . S
C186 H211 0.950 . S
C187 C186 1.349 . S
C187 C203 1.349 . S
C188 C186 1.327 . S
C188 C207 1.429 . S
C188 H212 0.950 . S
C189 C206 1.574 . S
C189 C208 1.368 . S
C189 H213 0.949 . S
H190 C194 0.949 . S
C191 C192 1.349 . S
C191 C193 1.327 . S
C191 H214 0.950 . S
C192 C191 1.349 . S
C192 C204 1.349 . S
C193 C191 1.327 . S
C193 C209 1.429 . S
C193 H215 0.950 . S
C194 H190 0.949 . S
C194 C202 1.574 . S
C194 C210 1.368 . S
H195 C203 0.950 . S
H196 C201 0.950 . S
H197 C202 0.949 . S
H198 C204 0.950 . S
H199 C205 0.950 . S
H200 C206 0.949 . S
C201 H196 0.950 . S
C201 C203 1.327 . S
C201 C207 1.429 . S
C202 C194 1.574 . S
C202 H197 0.949 . S
C202 C208 1.368 1_565 S
C203 C187 1.349 . S
C203 H195 0.950 . S
C203 C201 1.327 . S
C204 C192 1.349 . S
C204 H198 0.950 . S
C204 C205 1.327 . S
C205 H199 0.950 . S
C205 C204 1.327 . S
C205 C209 1.429 . S
C206 C189 1.574 . S
C206 H200 0.949 . S
C206 C210 1.368 1_545 S
C207 C188 1.429 . S
C207 C201 1.429 . S
C207 C208 1.523 . S
C208 C189 1.368 . S
C208 C202 1.368 1_545 S
C208 C207 1.523 . S
C209 C193 1.429 . S
C209 C205 1.429 . S
C209 C210 1.523 . S
C210 C194 1.368 . S
C210 C206 1.368 1_565 S
C210 C209 1.523 . S
H211 C186 0.950 . S
H212 C188 0.950 . S
H213 C189 0.949 . S
H214 C191 0.950 . S
H215 C193 0.950 . S
C216 C217 1.349 . S
C216 C218 1.327 . S
C216 H241 0.950 . S
C217 C216 1.349 . S
C217 C233 1.349 . S
C218 C216 1.327 . S
C218 C237 1.429 . S
C218 H242 0.950 . S
C219 C236 1.574 . S
C219 C238 1.368 . S
C219 H243 0.949 . S
H220 C224 0.949 . S
C221 C222 1.349 . S
C221 C223 1.327 . S
C221 H244 0.950 . S
C222 C221 1.349 . S
C222 C234 1.349 . S
C223 C221 1.327 . S
C223 C239 1.429 . S
C223 H245 0.950 . S
C224 H220 0.949 . S
C224 C232 1.574 . S
C224 C240 1.368 . S
H225 C233 0.950 . S
H226 C231 0.950 . S
H227 C232 0.949 . S
H228 C234 0.950 . S
H229 C235 0.950 . S
H230 C236 0.949 . S
C231 H226 0.950 . S
C231 C233 1.327 . S
C231 C237 1.429 . S
C232 C224 1.574 . S
C232 H227 0.949 . S
C232 C238 1.368 . S
C233 C217 1.349 . S
C233 H225 0.950 . S
C233 C231 1.327 . S
C234 C222 1.349 . S
C234 H228 0.950 . S
C234 C235 1.327 . S
C235 H229 0.950 . S
C235 C234 1.327 . S
C235 C239 1.429 . S
C236 C219 1.574 . S
C236 H230 0.949 . S
C236 C240 1.368 . S
C237 C218 1.429 . S
C237 C231 1.429 . S
C237 C238 1.523 . S
C238 C219 1.368 . S
C238 C232 1.368 . S
C238 C237 1.523 . S
C239 C223 1.429 . S
C239 C235 1.429 . S
C239 C240 1.523 . S
C240 C224 1.368 . S
C240 C236 1.368 . S
C240 C239 1.523 . S
H241 C216 0.950 . S
H242 C218 0.950 . S
H243 C219 0.949 . S
H244 C221 0.950 . S
H245 C223 0.950 . S
C246 C247 1.349 . S
C246 C248 1.327 . S
C246 H271 0.950 . S
C247 C246 1.349 . S
C247 C263 1.349 . S
C248 C246 1.327 . S
C248 C267 1.429 . S
C248 H272 0.950 . S
C249 C266 1.574 . S
C249 C268 1.368 1_455 S
C249 H273 0.949 . S
H250 C254 0.949 . S
C251 C252 1.349 . S
C251 C253 1.327 . S
C251 H274 0.950 . S
C252 C251 1.349 . S
C252 C264 1.349 . S
C253 C251 1.327 . S
C253 C269 1.429 . S
C253 H275 0.950 . S
C254 H250 0.949 . S
C254 C262 1.574 . S
C254 C270 1.368 1_655 S
H255 C263 0.950 . S
H256 C261 0.950 . S
H257 C262 0.949 . S
H258 C264 0.950 . S
H259 C265 0.950 . S
H260 C266 0.949 . S
C261 H256 0.950 . S
C261 C263 1.327 . S
C261 C267 1.429 . S
C262 C254 1.574 . S
C262 H257 0.949 . S
C262 C268 1.368 . S
C263 C247 1.349 . S
C263 H255 0.950 . S
C263 C261 1.327 . S
C264 C252 1.349 . S
C264 H258 0.950 . S
C264 C265 1.327 . S
C265 H259 0.950 . S
C265 C264 1.327 . S
C265 C269 1.429 . S
C266 C249 1.574 . S
C266 H260 0.949 . S
C266 C270 1.368 . S
C267 C248 1.429 . S
C267 C261 1.429 . S
C267 C268 1.523 . S
C268 C249 1.368 1_655 S
C268 C262 1.368 . S
C268 C267 1.523 . S
C269 C253 1.429 . S
C269 C265 1.429 . S
C269 C270 1.523 . S
C270 C254 1.368 1_455 S
C270 C266 1.368 . S
C270 C269 1.523 . S
H271 C246 0.950 . S
H272 C248 0.950 . S
H273 C249 0.949 . S
H274 C251 0.950 . S
H275 C253 0.950 . S
C276 C277 1.349 . S
C276 C278 1.327 . S
C276 H301 0.950 . S
C277 C276 1.349 . S
C277 C293 1.349 . S
C278 C276 1.327 . S
C278 C297 1.429 . S
C278 H302 0.950 . S
C279 C296 1.574 1_545 S
C279 C298 1.368 . S
C279 H303 0.949 . S
H280 C284 0.949 . S
C281 C282 1.349 . S
C281 C283 1.327 . S
C281 H304 0.950 . S
C282 C281 1.349 . S
C282 C294 1.349 . S
C283 C281 1.327 . S
C283 C299 1.429 . S
C283 H305 0.950 . S
C284 H280 0.949 . S
C284 C292 1.574 1_565 S
C284 C300 1.368 . S
H285 C293 0.950 . S
H286 C291 0.950 . S
H287 C292 0.949 . S
H288 C294 0.950 . S
H289 C295 0.950 . S
H290 C296 0.949 . S
C291 H286 0.950 . S
C291 C293 1.327 . S
C291 C297 1.429 . S
C292 C284 1.574 1_545 S
C292 H287 0.949 . S
C292 C298 1.368 . S
C293 C277 1.349 . S
C293 H285 0.950 . S
C293 C291 1.327 . S
C294 C282 1.349 . S
C294 H288 0.950 . S
C294 C295 1.327 . S
C295 H289 0.950 . S
C295 C294 1.327 . S
C295 C299 1.429 . S
C296 C279 1.574 1_565 S
C296 H290 0.949 . S
C296 C300 1.368 . S
C297 C278 1.429 . S
C297 C291 1.429 . S
C297 C298 1.523 . S
C298 C279 1.368 . S
C298 C292 1.368 . S
C298 C297 1.523 . S
C299 C283 1.429 . S
C299 C295 1.429 . S
C299 C300 1.523 . S
C300 C284 1.368 . S
C300 C296 1.368 . S
C300 C299 1.523 . S
H301 C276 0.950 . S
H302 C278 0.950 . S
H303 C279 0.949 . S
H304 C281 0.950 . S
H305 C283 0.950 . S
C306 C307 1.349 . S
C306 C308 1.327 . S
C306 H331 0.950 . S
C307 C306 1.349 . S
C307 C323 1.349 . S
C308 C306 1.327 . S
C308 C327 1.429 . S
C308 H332 0.950 . S
C309 C326 1.574 . S
C309 C328 1.368 . S
C309 H333 0.949 . S
H310 C314 0.949 . S
C311 C312 1.349 . S
C311 C313 1.327 . S
C311 H334 0.950 . S
C312 C311 1.349 . S
C312 C324 1.349 . S
C313 C311 1.327 . S
C313 C329 1.429 . S
C313 H335 0.950 . S
C314 H310 0.949 . S
C314 C322 1.574 . S
C314 C330 1.368 . S
H315 C323 0.950 . S
H316 C321 0.950 . S
H317 C322 0.949 . S
H318 C324 0.950 . S
H319 C325 0.950 . S
H320 C326 0.949 . S
C321 H316 0.950 . S
C321 C323 1.327 . S
C321 C327 1.429 . S
C322 C314 1.574 . S
C322 H317 0.949 . S
C322 C328 1.368 . S
C323 C307 1.349 . S
C323 H315 0.950 . S
C323 C321 1.327 . S
C324 C312 1.349 . S
C324 H318 0.950 . S
C324 C325 1.327 . S
C325 H319 0.950 . S
C325 C324 1.327 . S
C325 C329 1.429 . S
C326 C309 1.574 . S
C326 H320 0.949 . S
C326 C330 1.368 . S
C327 C308 1.429 . S
C327 C321 1.429 . S
C327 C328 1.523 . S
C328 C309 1.368 . S
C328 C322 1.368 . S
C328 C327 1.523 . S
C329 C313 1.429 . S
C329 C325 1.429 . S
C329 C330 1.523 . S
C330 C314 1.368 . S
C330 C326 1.368 . S
C330 C329 1.523 . S
H331 C306 0.950 . S
H332 C308 0.950 . S
H333 C309 0.949 . S
H334 C311 0.950 . S
H335 C313 0.950 . S
C336 C337 1.349 . S
C336 C338 1.327 . S
C336 H361 0.950 . S
C337 C336 1.349 . S
C337 C353 1.349 . S
C338 C336 1.327 . S
C338 C357 1.429 . S
C338 H362 0.950 . S
C339 C356 1.574 . S
C339 C358 1.368 . S
C339 H363 0.949 . S
H340 C344 0.949 . S
C341 C342 1.349 . S
C341 C343 1.327 . S
C341 H364 0.950 . S
C342 C341 1.349 . S
C342 C354 1.349 . S
C343 C341 1.327 . S
C343 C359 1.429 . S
C343 H365 0.950 . S
C344 H340 0.949 . S
C344 C352 1.574 . S
C344 C360 1.368 . S
H345 C353 0.950 . S
H346 C351 0.950 . S
H347 C352 0.949 . S
H348 C354 0.950 . S
H349 C355 0.950 . S
H350 C356 0.949 . S
C351 H346 0.950 . S
C351 C353 1.327 . S
C351 C357 1.429 . S
C352 C344 1.574 . S
C352 H347 0.949 . S
C352 C358 1.368 . S
C353 C337 1.349 . S
C353 H345 0.950 . S
C353 C351 1.327 . S
C354 C342 1.349 . S
C354 H348 0.950 . S
C354 C355 1.327 . S
C355 H349 0.950 . S
C355 C354 1.327 . S
C355 C359 1.429 . S
C356 C339 1.574 . S
C356 H350 0.949 . S
C356 C360 1.368 . S
C357 C338 1.429 . S
C357 C351 1.429 . S
C357 C358 1.523 . S
C358 C339 1.368 . S
C358 C352 1.368 . S
C358 C357 1.523 . S
C359 C343 1.429 . S
C359 C355 1.429 . S
C359 C360 1.523 . S
C360 C344 1.368 . S
C360 C356 1.368 . S
C360 C359 1.523 . S
H361 C336 0.950 . S
H362 C338 0.950 . S
H363 C339 0.949 . S
H364 C341 0.950 . S
H365 C343 0.950 . S
C366 C367 1.349 . S
C366 C368 1.327 . S
C366 H391 0.950 . S
C367 C366 1.349 . S
C367 C383 1.349 . S
C368 C366 1.327 . S
C368 C387 1.429 . S
C368 H392 0.950 . S
C369 C386 1.574 . S
C369 C388 1.368 1_655 S
C369 H393 0.949 . S
H370 C374 0.949 . S
C371 C372 1.349 . S
C371 C373 1.327 . S
C371 H394 0.950 . S
C372 C371 1.349 . S
C372 C384 1.349 . S
C373 C371 1.327 . S
C373 C389 1.429 . S
C373 H395 0.950 . S
C374 H370 0.949 . S
C374 C382 1.574 . S
C374 C390 1.368 1_455 S
H375 C383 0.950 . S
H376 C381 0.950 1_655 S
H377 C382 0.949 . S
H378 C384 0.950 . S
H379 C385 0.950 1_455 S
H380 C386 0.949 . S
C381 H376 0.950 1_455 S
C381 C383 1.327 . S
C381 C387 1.429 . S
C382 C374 1.574 . S
C382 H377 0.949 . S
C382 C388 1.368 . S
C383 C367 1.349 . S
C383 H375 0.950 . S
C383 C381 1.327 . S
C384 C372 1.349 . S
C384 H378 0.950 . S
C384 C385 1.327 . S
C385 H379 0.950 1_655 S
C385 C384 1.327 . S
C385 C389 1.429 . S
C386 C369 1.574 . S
C386 H380 0.949 . S
C386 C390 1.368 . S
C387 C368 1.429 . S
C387 C381 1.429 . S
C387 C388 1.523 . S
C388 C369 1.368 1_455 S
C388 C382 1.368 . S
C388 C387 1.523 . S
C389 C373 1.429 . S
C389 C385 1.429 . S
C389 C390 1.523 . S
C390 C374 1.368 1_655 S
C390 C386 1.368 . S
C390 C389 1.523 . S
H391 C366 0.950 . S
H392 C368 0.950 . S
H393 C369 0.949 . S
H394 C371 0.950 . S
H395 C373 0.950 . S
C396 C397 1.349 . S
C396 C398 1.327 . S
C396 H421 0.950 . S
C397 C396 1.349 . S
C397 C413 1.349 . S
C398 C396 1.327 . S
C398 C417 1.429 . S
C398 H422 0.950 1_545 S
C399 C416 1.574 . S
C399 C418 1.368 . S
C399 H423 0.949 . S
H400 C404 0.949 . S
C401 C402 1.349 . S
C401 C403 1.327 . S
C401 H424 0.950 . S
C402 C401 1.349 . S
C402 C414 1.349 . S
C403 C401 1.327 . S
C403 C419 1.429 . S
C403 H425 0.950 1_565 S
C404 H400 0.949 . S
C404 C412 1.574 . S
C404 C420 1.368 . S
H405 C413 0.950 . S
H406 C411 0.950 . S
H407 C412 0.949 . S
H408 C414 0.950 . S
H409 C415 0.950 . S
H410 C416 0.949 . S
C411 H406 0.950 . S
C411 C413 1.327 . S
C411 C417 1.429 . S
C412 C404 1.574 . S
C412 H407 0.949 . S
C412 C418 1.368 1_565 S
C413 C397 1.349 . S
C413 H405 0.950 . S
C413 C411 1.327 . S
C414 C402 1.349 . S
C414 H408 0.950 . S
C414 C415 1.327 . S
C415 H409 0.950 . S
C415 C414 1.327 . S
C415 C419 1.429 . S
C416 C399 1.574 . S
C416 H410 0.949 . S
C416 C420 1.368 1_545 S
C417 C398 1.429 . S
C417 C411 1.429 . S
C417 C418 1.523 . S
C418 C399 1.368 . S
C418 C412 1.368 1_545 S
C418 C417 1.523 . S
C419 C403 1.429 . S
C419 C415 1.429 . S
C419 C420 1.523 . S
C420 C404 1.368 . S
C420 C416 1.368 1_565 S
C420 C419 1.523 . S
H421 C396 0.950 . S
H422 C398 0.950 1_565 S
H423 C399 0.949 . S
H424 C401 0.950 . S
H425 C403 0.950 1_545 S
C426 C427 1.349 . S
C426 C428 1.327 . S
C426 H451 0.950 . S
C427 C426 1.349 . S
C427 C443 1.349 . S
C428 C426 1.327 . S
C428 C447 1.429 . S
C428 H452 0.950 . S
C429 C446 1.574 . S
C429 C448 1.368 . S
C429 H453 0.949 . S
H430 C434 0.949 . S
C431 C432 1.349 . S
C431 C433 1.327 . S
C431 H454 0.950 . S
C432 C431 1.349 . S
C432 C444 1.349 . S
C433 C431 1.327 . S
C433 C449 1.429 . S
C433 H455 0.950 . S
C434 H430 0.949 . S
C434 C442 1.574 . S
C434 C450 1.368 . S
H435 C443 0.950 . S
H436 C441 0.950 . S
H437 C442 0.949 . S
H438 C444 0.950 . S
H439 C445 0.950 . S
H440 C446 0.949 . S
C441 H436 0.950 . S
C441 C443 1.327 . S
C441 C447 1.429 . S
C442 C434 1.574 . S
C442 H437 0.949 . S
C442 C448 1.368 . S
C443 C427 1.349 . S
C443 H435 0.950 . S
C443 C441 1.327 . S
C444 C432 1.349 . S
C444 H438 0.950 . S
C444 C445 1.327 . S
C445 H439 0.950 . S
C445 C444 1.327 . S
C445 C449 1.429 . S
C446 C429 1.574 . S
C446 H440 0.949 . S
C446 C450 1.368 . S
C447 C428 1.429 . S
C447 C441 1.429 . S
C447 C448 1.523 . S
C448 C429 1.368 . S
C448 C442 1.368 . S
C448 C447 1.523 . S
C449 C433 1.429 . S
C449 C445 1.429 . S
C449 C450 1.523 . S
C450 C434 1.368 . S
C450 C446 1.368 . S
C450 C449 1.523 . S
H451 C426 0.950 . S
H452 C428 0.950 . S
H453 C429 0.949 . S
H454 C431 0.950 . S
H455 C433 0.950 . S
C456 C457 1.349 . S
C456 C458 1.327 . S
C456 H481 0.950 . S
C457 C456 1.349 . S
C457 C473 1.349 . S
C458 C456 1.327 . S
C458 C477 1.429 . S
C458 H482 0.950 . S
C459 C476 1.574 . S
C459 C478 1.368 1_455 S
C459 H483 0.949 . S
H460 C464 0.949 . S
C461 C462 1.349 . S
C461 C463 1.327 . S
C461 H484 0.950 . S
C462 C461 1.349 . S
C462 C474 1.349 . S
C463 C461 1.327 . S
C463 C479 1.429 . S
C463 H485 0.950 . S
C464 H460 0.949 . S
C464 C472 1.574 . S
C464 C480 1.368 1_655 S
H465 C473 0.950 . S
H466 C471 0.950 1_455 S
H467 C472 0.949 . S
H468 C474 0.950 . S
H469 C475 0.950 1_655 S
H470 C476 0.949 . S
C471 H466 0.950 1_655 S
C471 C473 1.327 . S
C471 C477 1.429 . S
C472 C464 1.574 . S
C472 H467 0.949 . S
C472 C478 1.368 . S
C473 C457 1.349 . S
C473 H465 0.950 . S
C473 C471 1.327 . S
C474 C462 1.349 . S
C474 H468 0.950 . S
C474 C475 1.327 . S
C475 H469 0.950 1_455 S
C475 C474 1.327 . S
C475 C479 1.429 . S
C476 C459 1.574 . S
C476 H470 0.949 . S
C476 C480 1.368 . S
C477 C458 1.429 . S
C477 C471 1.429 . S
C477 C478 1.523 . S
C478 C459 1.368 1_655 S
C478 C472 1.368 . S
C478 C477 1.523 . S
C479 C463 1.429 . S
C479 C475 1.429 . S
C479 C480 1.523 . S
C480 C464 1.368 1_455 S
C480 C476 1.368 . S
C480 C479 1.523 . S
H481 C456 0.950 . S
H482 C458 0.950 . S
H483 C459 0.949 . S
H484 C461 0.950 . S
H485 C463 0.950 . S
C486 C487 1.349 . S
C486 C488 1.327 . S
C486 H511 0.950 . S
C487 C486 1.349 . S
C487 C503 1.349 . S
C488 C486 1.327 . S
C488 C507 1.429 . S
C488 H512 0.950 . S
C489 C506 1.574 . S
C489 C508 1.368 1_545 S
C489 H513 0.949 . S
H490 C494 0.949 . S
C491 C492 1.349 . S
C491 C493 1.327 . S
C491 H514 0.950 . S
C492 C491 1.349 . S
C492 C504 1.349 . S
C493 C491 1.327 . S
C493 C509 1.429 . S
C493 H515 0.950 . S
C494 H490 0.949 . S
C494 C502 1.574 . S
C494 C510 1.368 1_565 S
H495 C503 0.950 . S
H496 C501 0.950 1_545 S
H497 C502 0.949 . S
H498 C504 0.950 . S
H499 C505 0.950 1_565 S
H500 C506 0.949 . S
C501 H496 0.950 1_565 S
C501 C503 1.327 . S
C501 C507 1.429 . S
C502 C494 1.574 . S
C502 H497 0.949 . S
C502 C508 1.368 . S
C503 C487 1.349 . S
C503 H495 0.950 . S
C503 C501 1.327 . S
C504 C492 1.349 . S
C504 H498 0.950 . S
C504 C505 1.327 . S
C505 H499 0.950 1_545 S
C505 C504 1.327 . S
C505 C509 1.429 . S
C506 C489 1.574 . S
C506 H500 0.949 . S
C506 C510 1.368 . S
C507 C488 1.429 . S
C507 C501 1.429 . S
C507 C508 1.523 . S
C508 C489 1.368 1_565 S
C508 C502 1.368 . S
C508 C507 1.523 . S
C509 C493 1.429 . S
C509 C505 1.429 . S
C509 C510 1.523 . S
C510 C494 1.368 1_545 S
C510 C506 1.368 . S
C510 C509 1.523 . S
H511 C486 0.950 . S
H512 C488 0.950 . S
H513 C489 0.949 . S
H514 C491 0.950 . S
H515 C493 0.950 . S
C516 C517 1.349 . S
C516 C518 1.327 . S
C516 H541 0.950 . S
C517 C516 1.349 . S
C517 C533 1.349 . S
C518 C516 1.327 . S
C518 C537 1.429 . S
C518 H542 0.950 . S
C519 C536 1.574 . S
C519 C538 1.368 . S
C519 H543 0.949 . S
H520 C524 0.949 . S
C521 C522 1.349 . S
C521 C523 1.327 . S
C521 H544 0.950 . S
C522 C521 1.349 . S
C522 C534 1.349 . S
C523 C521 1.327 . S
C523 C539 1.429 . S
C523 H545 0.950 . S
C524 H520 0.949 . S
C524 C532 1.574 . S
C524 C540 1.368 . S
H525 C533 0.950 1_565 S
H526 C531 0.950 . S
H527 C532 0.949 . S
H528 C534 0.950 . S
H529 C535 0.950 . S
H530 C536 0.949 . S
C531 H526 0.950 . S
C531 C533 1.327 . S
C531 C537 1.429 . S
C532 C524 1.574 . S
C532 H527 0.949 . S
C532 C538 1.368 . S
C533 C517 1.349 . S
C533 H525 0.950 1_545 S
C533 C531 1.327 . S
C534 C522 1.349 . S
C534 H528 0.950 . S
C534 C535 1.327 . S
C535 H529 0.950 . S
C535 C534 1.327 . S
C535 C539 1.429 . S
C536 C519 1.574 . S
C536 H530 0.949 . S
C536 C540 1.368 . S
C537 C518 1.429 . S
C537 C531 1.429 . S
C537 C538 1.523 . S
C538 C519 1.368 . S
C538 C532 1.368 . S
C538 C537 1.523 . S
C539 C523 1.429 . S
C539 C535 1.429 . S
C539 C540 1.523 . S
C540 C524 1.368 . S
C540 C536 1.368 . S
C540 C539 1.523 . S
H541 C516 0.950 . S
H542 C518 0.950 . S
H543 C519 0.949 . S
H544 C521 0.950 . S
H545 C523 0.950 . S
C546 C547 1.349 . S
C546 C548 1.327 . S
C546 H571 0.950 . S
C547 C546 1.349 . S
C547 C563 1.348 1_455 S
C548 C546 1.327 . S
C548 C567 1.429 . S
C548 H572 0.950 . S
C549 C566 1.574 . S
C549 C568 1.368 . S
C549 H573 0.949 . S
H550 C554 0.949 . S
C551 C552 1.349 . S
C551 C553 1.327 . S
C551 H574 0.950 . S
C552 C551 1.349 . S
C552 C564 1.349 . S
C553 C551 1.327 . S
C553 C569 1.429 . S
C553 H575 0.950 . S
C554 H550 0.949 . S
C554 C562 1.574 . S
C554 C570 1.368 . S
H555 C563 0.947 . S
H556 C561 0.950 . S
H557 C562 0.949 . S
H558 C564 0.950 . S
H559 C565 0.950 . S
H560 C566 0.949 . S
C561 H556 0.950 . S
C561 C563 1.330 1_455 S
C561 C567 1.429 . S
C562 C554 1.574 . S
C562 H557 0.949 . S
C562 C568 1.368 . S
C563 C547 1.348 1_655 S
C563 H555 0.947 . S
C563 C561 1.330 1_655 S
C564 C552 1.349 . S
C564 H558 0.950 . S
C564 C565 1.327 . S
C565 H559 0.950 . S
C565 C564 1.327 . S
C565 C569 1.429 . S
C566 C549 1.574 . S
C566 H560 0.949 . S
C566 C570 1.368 . S
C567 C548 1.429 . S
C567 C561 1.429 . S
C567 C568 1.523 . S
C568 C549 1.368 . S
C568 C562 1.368 . S
C568 C567 1.523 . S
C569 C553 1.429 . S
C569 C565 1.429 . S
C569 C570 1.523 . S
C570 C554 1.368 . S
C570 C566 1.368 . S
C570 C569 1.523 . S
H571 C546 0.950 . S
H572 C548 0.950 . S
H573 C549 0.949 . S
H574 C551 0.950 . S
H575 C553 0.950 . S
C576 C577 1.349 . S
C576 C578 1.327 . S
C576 H601 0.950 . S
C577 C576 1.349 . S
C577 C593 1.349 . S
C578 C576 1.327 . S
C578 C597 1.429 . S
C578 H602 0.950 . S
C579 C596 1.574 . S
C579 C598 1.368 . S
C579 H603 0.949 . S
H580 C584 0.949 . S
C581 C582 1.349 . S
C581 C583 1.327 . S
C581 H604 0.950 . S
C582 C581 1.349 . S
C582 C594 1.346 1_545 S
C583 C581 1.327 . S
C583 C599 1.429 . S
C583 H605 0.950 . S
C584 H580 0.949 . S
C584 C592 1.574 . S
C584 C600 1.368 . S
H585 C593 0.950 . S
H586 C591 0.950 . S
H587 C592 0.949 . S
H588 C594 0.955 . S
H589 C595 0.950 . S
H590 C596 0.949 . S
C591 H586 0.950 . S
C591 C593 1.327 . S
C591 C597 1.429 . S
C592 C584 1.574 . S
C592 H587 0.949 . S
C592 C598 1.368 . S
C593 C577 1.349 . S
C593 H585 0.950 . S
C593 C591 1.327 . S
C594 C582 1.346 1_565 S
C594 H588 0.955 . S
C594 C595 1.325 1_565 S
C595 H589 0.950 . S
C595 C594 1.325 1_545 S
C595 C599 1.429 . S
C596 C579 1.574 . S
C596 H590 0.949 . S
C596 C600 1.368 . S
C597 C578 1.429 . S
C597 C591 1.429 . S
C597 C598 1.523 . S
C598 C579 1.368 . S
C598 C592 1.368 . S
C598 C597 1.523 . S
C599 C583 1.429 . S
C599 C595 1.429 . S
C599 C600 1.523 . S
C600 C584 1.368 . S
C600 C596 1.368 . S
C600 C599 1.523 . S
H601 C576 0.950 . S
H602 C578 0.950 . S
H603 C579 0.949 . S
H604 C581 0.950 . S
H605 C583 0.950 . S
C606 C607 1.349 . S
C606 C608 1.327 . S
C606 H631 0.950 . S
C607 C606 1.349 . S
C607 C623 1.349 . S
C608 C606 1.327 . S
C608 C627 1.429 . S
C608 H632 0.950 . S
C609 C626 1.574 . S
C609 C628 1.368 . S
C609 H633 0.949 . S
H610 C614 0.949 . S
C611 C612 1.349 . S
C611 C613 1.327 . S
C611 H634 0.950 . S
C612 C611 1.349 . S
C612 C624 1.349 . S
C613 C611 1.327 . S
C613 C629 1.429 . S
C613 H635 0.950 . S
C614 H610 0.949 . S
C614 C622 1.574 . S
C614 C630 1.368 . S
H615 C623 0.950 . S
H616 C621 0.950 . S
H617 C622 0.949 . S
H618 C624 0.950 . S
H619 C625 0.950 . S
H620 C626 0.949 . S
C621 H616 0.950 . S
C621 C623 1.327 . S
C621 C627 1.429 . S
C622 C614 1.574 . S
C622 H617 0.949 . S
C622 C628 1.368 . S
C623 C607 1.349 . S
C623 H615 0.950 . S
C623 C621 1.327 . S
C624 C612 1.349 . S
C624 H618 0.950 . S
C624 C625 1.327 . S
C625 H619 0.950 . S
C625 C624 1.327 . S
C625 C629 1.429 . S
C626 C609 1.574 . S
C626 H620 0.949 . S
C626 C630 1.368 . S
C627 C608 1.429 . S
C627 C621 1.429 . S
C627 C628 1.523 . S
C628 C609 1.368 . S
C628 C622 1.368 . S
C628 C627 1.523 . S
C629 C613 1.429 . S
C629 C625 1.429 . S
C629 C630 1.523 . S
C630 C614 1.368 . S
C630 C626 1.368 . S
C630 C629 1.523 . S
H631 C606 0.950 . S
H632 C608 0.950 . S
H633 C609 0.949 . S
H634 C611 0.950 . S
H635 C613 0.950 . S
C636 C637 1.349 . S
C636 C638 1.327 . S
C636 H661 0.950 . S
C637 C636 1.349 . S
C637 C653 1.349 . S
C638 C636 1.327 . S
C638 C657 1.429 . S
C638 H662 0.950 . S
C639 C656 1.574 . S
C639 C658 1.368 . S
C639 H663 0.949 . S
H640 C644 0.949 . S
C641 C642 1.349 . S
C641 C643 1.327 . S
C641 H664 0.950 . S
C642 C641 1.349 . S
C642 C654 1.349 . S
C643 C641 1.327 . S
C643 C659 1.429 . S
C643 H665 0.950 . S
C644 H640 0.949 . S
C644 C652 1.574 . S
C644 C660 1.368 . S
H645 C653 0.950 . S
H646 C651 0.950 . S
H647 C652 0.949 . S
H648 C654 0.950 . S
H649 C655 0.950 . S
H650 C656 0.949 . S
C651 H646 0.950 . S
C651 C653 1.327 . S
C651 C657 1.429 . S
C652 C644 1.574 . S
C652 H647 0.949 . S
C652 C658 1.368 . S
C653 C637 1.349 . S
C653 H645 0.950 . S
C653 C651 1.327 . S
C654 C642 1.349 . S
C654 H648 0.950 . S
C654 C655 1.327 . S
C655 H649 0.950 . S
C655 C654 1.327 . S
C655 C659 1.429 . S
C656 C639 1.574 . S
C656 H650 0.949 . S
C656 C660 1.368 . S
C657 C638 1.429 . S
C657 C651 1.429 . S
C657 C658 1.523 . S
C658 C639 1.368 . S
C658 C652 1.368 . S
C658 C657 1.523 . S
C659 C643 1.429 . S
C659 C655 1.429 . S
C659 C660 1.523 . S
C660 C644 1.368 . S
C660 C656 1.368 . S
C660 C659 1.523 . S
H661 C636 0.950 . S
H662 C638 0.950 . S
H663 C639 0.949 . S
H664 C641 0.950 . S
H665 C643 0.950 . S
C666 C667 1.349 . S
C666 C668 1.327 . S
C666 H691 0.950 1_565 S
C667 C666 1.349 . S
C667 C683 1.349 . S
C668 C666 1.327 . S
C668 C687 1.429 . S
C668 H692 0.950 . S
C669 C686 1.574 . S
C669 C688 1.368 . S
C669 H693 0.949 . S
H670 C674 0.949 . S
C671 C672 1.349 . S
C671 C673 1.327 . S
C671 H694 0.950 1_455 S
C672 C671 1.349 . S
C672 C684 1.349 . S
C673 C671 1.327 . S
C673 C689 1.429 . S
C673 H695 0.950 . S
C674 H670 0.949 . S
C674 C682 1.574 . S
C674 C690 1.368 . S
H675 C683 0.950 . S
H676 C681 0.950 . S
H677 C682 0.949 . S
H678 C684 0.950 . S
H679 C685 0.950 . S
H680 C686 0.949 . S
C681 H676 0.950 . S
C681 C683 1.327 . S
C681 C687 1.429 . S
C682 C674 1.574 . S
C682 H677 0.949 . S
C682 C688 1.368 . S
C683 C667 1.349 . S
C683 H675 0.950 . S
C683 C681 1.327 . S
C684 C672 1.349 . S
C684 H678 0.950 . S
C684 C685 1.327 . S
C685 H679 0.950 . S
C685 C684 1.327 . S
C685 C689 1.429 . S
C686 C669 1.574 . S
C686 H680 0.949 . S
C686 C690 1.368 . S
C687 C668 1.429 . S
C687 C681 1.429 . S
C687 C688 1.523 . S
C688 C669 1.368 . S
C688 C682 1.368 . S
C688 C687 1.523 . S
C689 C673 1.429 . S
C689 C685 1.429 . S
C689 C690 1.523 . S
C690 C674 1.368 . S
C690 C686 1.368 . S
C690 C689 1.523 . S
H691 C666 0.950 1_545 S
H692 C668 0.950 . S
H693 C669 0.949 . S
H694 C671 0.950 1_655 S
H695 C673 0.950 . S
C696 C697 1.349 . S
C696 C698 1.327 . S
C696 H721 0.950 . S
C697 C696 1.349 . S
C697 C713 1.349 . S
C698 C696 1.327 . S
C698 C717 1.429 . S
C698 H722 0.950 . S
C699 C716 1.574 . S
C699 C718 1.368 . S
C699 H723 0.949 . S
H700 C704 0.949 . S
C701 C702 1.349 . S
C701 C703 1.327 . S
C701 H724 0.950 . S
C702 C701 1.349 . S
C702 C714 1.349 . S
C703 C701 1.327 . S
C703 C719 1.429 . S
C703 H725 0.950 . S
C704 H700 0.949 . S
C704 C712 1.574 . S
C704 C720 1.368 . S
H705 C713 0.950 . S
H706 C711 0.950 . S
H707 C712 0.949 . S
H708 C714 0.950 . S
H709 C715 0.950 . S
H710 C716 0.949 . S
C711 H706 0.950 . S
C711 C713 1.327 . S
C711 C717 1.429 . S
C712 C704 1.574 . S
C712 H707 0.949 . S
C712 C718 1.368 . S
C713 C697 1.349 . S
C713 H705 0.950 . S
C713 C711 1.327 . S
C714 C702 1.349 . S
C714 H708 0.950 . S
C714 C715 1.327 . S
C715 H709 0.950 . S
C715 C714 1.327 . S
C715 C719 1.429 . S
C716 C699 1.574 . S
C716 H710 0.949 . S
C716 C720 1.368 . S
C717 C698 1.429 . S
C717 C711 1.429 . S
C717 C718 1.523 . S
C718 C699 1.368 . S
C718 C712 1.368 . S
C718 C717 1.523 . S
C719 C703 1.429 . S
C719 C715 1.429 . S
C719 C720 1.523 . S
C720 C704 1.368 . S
C720 C716 1.368 . S
C720 C719 1.523 . S
H721 C696 0.950 . S
H722 C698 0.950 . S
H723 C699 0.949 . S
H724 C701 0.950 . S
H725 C703 0.950 . S
C726 C727 1.349 . S
C726 C728 1.327 . S
C726 H751 0.950 . S
C727 C726 1.349 . S
C727 C743 1.349 . S
C728 C726 1.327 . S
C728 C747 1.429 . S
C728 H752 0.950 . S
C729 C746 1.574 1_655 S
C729 C748 1.368 . S
C729 H753 0.949 . S
H730 C734 0.949 . S
C731 C732 1.349 . S
C731 C733 1.327 . S
C731 H754 0.950 . S
C732 C731 1.349 . S
C732 C744 1.349 . S
C733 C731 1.327 . S
C733 C749 1.429 . S
C733 H755 0.950 . S
C734 H730 0.949 . S
C734 C742 1.574 1_455 S
C734 C750 1.368 . S
H735 C743 0.950 . S
H736 C741 0.950 . S
H737 C742 0.949 . S
H738 C744 0.950 . S
H739 C745 0.950 . S
H740 C746 0.949 . S
C741 H736 0.950 . S
C741 C743 1.327 . S
C741 C747 1.429 . S
C742 C734 1.574 1_655 S
C742 H737 0.949 . S
C742 C748 1.368 . S
C743 C727 1.349 . S
C743 H735 0.950 . S
C743 C741 1.327 . S
C744 C732 1.349 . S
C744 H738 0.950 . S
C744 C745 1.327 . S
C745 H739 0.950 . S
C745 C744 1.327 . S
C745 C749 1.429 . S
C746 C729 1.574 1_455 S
C746 H740 0.949 . S
C746 C750 1.368 . S
C747 C728 1.429 . S
C747 C741 1.429 . S
C747 C748 1.523 . S
C748 C729 1.368 . S
C748 C742 1.368 . S
C748 C747 1.523 . S
C749 C733 1.429 . S
C749 C745 1.429 . S
C749 C750 1.523 . S
C750 C734 1.368 . S
C750 C746 1.368 . S
C750 C749 1.523 . S
H751 C726 0.950 . S
H752 C728 0.950 . S
H753 C729 0.949 . S
H754 C731 0.950 . S
H755 C733 0.950 . S
C756 C757 1.349 . S
C756 C758 1.327 . S
C756 H781 0.950 . S
C757 C756 1.349 . S
C757 C773 1.349 . S
C758 C756 1.327 . S
C758 C777 1.429 . S
C758 H782 0.950 1_545 S
C759 C776 1.574 1_554 S
C759 C778 1.368 . S
C759 H783 0.949 . S
H760 C764 0.949 . S
C761 C762 1.349 . S
C761 C763 1.327 . S
C761 H784 0.950 . S
C762 C761 1.349 . S
C762 C774 1.349 . S
C763 C761 1.327 . S
C763 C779 1.429 . S
C763 H785 0.950 1_565 S
C764 H760 0.949 . S
C764 C772 1.574 1_556 S
C764 C780 1.368 . S
H765 C773 0.950 . S
H766 C771 0.950 . S
H767 C772 0.949 . S
H768 C774 0.950 . S
H769 C775 0.950 . S
H770 C776 0.949 . S
C771 H766 0.950 . S
C771 C773 1.327 . S
C771 C777 1.429 . S
C772 C764 1.574 1_554 S
C772 H767 0.949 . S
C772 C778 1.368 1_565 S
C773 C757 1.349 . S
C773 H765 0.950 . S
C773 C771 1.327 . S
C774 C762 1.349 . S
C774 H768 0.950 . S
C774 C775 1.327 . S
C775 H769 0.950 . S
C775 C774 1.327 . S
C775 C779 1.429 . S
C776 C759 1.574 1_556 S
C776 H770 0.949 . S
C776 C780 1.368 1_545 S
C777 C758 1.429 . S
C777 C771 1.429 . S
C777 C778 1.523 . S
C778 C759 1.368 . S
C778 C772 1.368 1_545 S
C778 C777 1.523 . S
C779 C763 1.429 . S
C779 C775 1.429 . S
C779 C780 1.523 . S
C780 C764 1.368 . S
C780 C776 1.368 1_565 S
C780 C779 1.523 . S
H781 C756 0.950 . S
H782 C758 0.950 1_565 S
H783 C759 0.949 . S
H784 C761 0.950 . S
H785 C763 0.950 1_545 S
C786 C787 1.349 . S
C786 C788 1.327 . S
C786 H811 0.950 . S
C787 C786 1.349 . S
C787 C803 1.349 . S
C788 C786 1.327 . S
C788 C807 1.429 . S
C788 H812 0.950 . S
C789 C806 1.574 . S
C789 C808 1.368 . S
C789 H813 0.949 . S
H790 C794 0.949 . S
C791 C792 1.349 . S
C791 C793 1.327 . S
C791 H814 0.950 . S
C792 C791 1.349 . S
C792 C804 1.349 . S
C793 C791 1.327 . S
C793 C809 1.429 . S
C793 H815 0.950 . S
C794 H790 0.949 . S
C794 C802 1.574 . S
C794 C810 1.368 . S
H795 C803 0.950 . S
H796 C801 0.950 . S
H797 C802 0.949 . S
H798 C804 0.950 . S
H799 C805 0.950 . S
H800 C806 0.949 . S
C801 H796 0.950 . S
C801 C803 1.327 . S
C801 C807 1.429 . S
C802 C794 1.574 . S
C802 H797 0.949 . S
C802 C808 1.368 . S
C803 C787 1.349 . S
C803 H795 0.950 . S
C803 C801 1.327 . S
C804 C792 1.349 . S
C804 H798 0.950 . S
C804 C805 1.327 . S
C805 H799 0.950 . S
C805 C804 1.327 . S
C805 C809 1.429 . S
C806 C789 1.574 . S
C806 H800 0.949 . S
C806 C810 1.368 . S
C807 C788 1.429 . S
C807 C801 1.429 . S
C807 C808 1.523 . S
C808 C789 1.368 . S
C808 C802 1.368 . S
C808 C807 1.523 . S
C809 C793 1.429 . S
C809 C805 1.429 . S
C809 C810 1.523 . S
C810 C794 1.368 . S
C810 C806 1.368 . S
C810 C809 1.523 . S
H811 C786 0.950 . S
H812 C788 0.950 . S
H813 C789 0.949 . S
H814 C791 0.950 . S
H815 C793 0.950 . S
C816 C817 1.349 . S
C816 C818 1.327 . S
C816 H841 0.950 . S
C817 C816 1.349 . S
C817 C833 1.349 . S
C818 C816 1.327 . S
C818 C837 1.429 . S
C818 H842 0.950 . S
C819 C836 1.574 1_455 S
C819 C838 1.368 . S
C819 H843 0.949 . S
H820 C824 0.949 . S
C821 C822 1.349 . S
C821 C823 1.327 . S
C821 H844 0.950 . S
C822 C821 1.349 . S
C822 C834 1.349 . S
C823 C821 1.327 . S
C823 C839 1.429 . S
C823 H845 0.950 . S
C824 H820 0.949 . S
C824 C832 1.574 1_655 S
C824 C840 1.368 . S
H825 C833 0.950 . S
H826 C831 0.950 . S
H827 C832 0.949 . S
H828 C834 0.950 . S
H829 C835 0.950 . S
H830 C836 0.949 . S
C831 H826 0.950 . S
C831 C833 1.327 . S
C831 C837 1.429 . S
C832 C824 1.574 1_455 S
C832 H827 0.949 . S
C832 C838 1.368 . S
C833 C817 1.349 . S
C833 H825 0.950 . S
C833 C831 1.327 . S
C834 C822 1.349 . S
C834 H828 0.950 . S
C834 C835 1.327 . S
C835 H829 0.950 . S
C835 C834 1.327 . S
C835 C839 1.429 . S
C836 C819 1.574 1_655 S
C836 H830 0.949 . S
C836 C840 1.368 . S
C837 C818 1.429 . S
C837 C831 1.429 . S
C837 C838 1.523 . S
C838 C819 1.368 . S
C838 C832 1.368 . S
C838 C837 1.523 . S
C839 C823 1.429 . S
C839 C835 1.429 . S
C839 C840 1.523 . S
C840 C824 1.368 . S
C840 C836 1.368 . S
C840 C839 1.523 . S
H841 C816 0.950 . S
H842 C818 0.950 . S
H843 C819 0.949 . S
H844 C821 0.950 . S
H845 C823 0.950 . S
C846 C847 1.349 . S
C846 C848 1.327 1_565 S
C846 H871 0.950 1_565 S
C847 C846 1.349 . S
C847 C863 1.349 . S
C848 C846 1.327 1_545 S
C848 C867 1.429 1_545 S
C848 H872 0.950 . S
C849 C866 1.574 1_554 S
C849 C868 1.368 . S
C849 H873 0.949 . S
H850 C854 0.949 . S
C851 C852 1.349 . S
C851 C853 1.327 1_545 S
C851 H874 0.950 1_545 S
C852 C851 1.349 . S
C852 C864 1.349 . S
C853 C851 1.327 1_565 S
C853 C869 1.429 1_565 S
C853 H875 0.950 . S
C854 H850 0.949 . S
C854 C862 1.574 1_556 S
C854 C870 1.368 . S
H855 C863 0.950 . S
H856 C861 0.950 . S
H857 C862 0.949 . S
H858 C864 0.950 . S
H859 C865 0.950 . S
H860 C866 0.949 . S
C861 H856 0.950 . S
C861 C863 1.327 . S
C861 C867 1.429 . S
C862 C854 1.574 1_554 S
C862 H857 0.949 . S
C862 C868 1.368 1_545 S
C863 C847 1.349 . S
C863 H855 0.950 . S
C863 C861 1.327 . S
C864 C852 1.349 . S
C864 H858 0.950 . S
C864 C865 1.327 . S
C865 H859 0.950 . S
C865 C864 1.327 . S
C865 C869 1.429 . S
C866 C849 1.574 1_556 S
C866 H860 0.949 . S
C866 C870 1.368 1_565 S
C867 C848 1.429 1_565 S
C867 C861 1.429 . S
C867 C868 1.523 . S
C868 C849 1.368 . S
C868 C862 1.368 1_565 S
C868 C867 1.523 . S
C869 C853 1.429 1_545 S
C869 C865 1.429 . S
C869 C870 1.523 . S
C870 C854 1.368 . S
C870 C866 1.368 1_545 S
C870 C869 1.523 . S
H871 C846 0.950 1_545 S
H872 C848 0.950 . S
H873 C849 0.949 . S
H874 C851 0.950 1_565 S
H875 C853 0.950 . S
C157 C148 1.838 . S
C162 C3 1.838 . S
C187 C16 1.838 . S
C192 C81 1.838 . S
C217 C31 1.837 . S
C222 C94 1.837 . S
C247 C44 1.838 . S
C252 C107 1.838 . S
C277 C122 1.838 . S
C282 C55 1.838 . S
C307 C68 1.837 . S
C312 C135 1.837 . S
C337 C43 1.422 . S
C342 C10 1.422 . S
C367 C62 1.422 . S
C372 C23 1.422 . S
C397 C75 1.422 . S
C402 C30 1.422 . S
C427 C88 1.422 . S
C432 C121 1.422 . S
C457 C101 1.422 . S
C462 C134 1.422 . S
C487 C114 1.422 . S
C492 C147 1.422 . S
C517 C109 0.250 . S
C522 C5 0.250 . S
C547 C18 0.250 . S
C552 C120 0.250 . S
C577 C133 0.250 . S
C582 C29 0.250 . S
C607 C146 0.250 . S
C612 C42 0.250 . S
C637 C83 0.250 . S
C642 C57 0.250 . S
C667 C70 0.250 . S
C672 C96 0.250 . S
C697 C127 1.642 . S
C702 C4 1.642 . S
C727 C17 1.642 . S
C732 C140 1.642 . S
C757 C153 1.642 . S
C762 C36 1.642 . S
C787 C49 1.642 . S
C792 C82 1.642 . S
C817 C56 1.642 . S
C822 C95 1.642 . S
C847 C108 1.642 . S
C852 C69 1.642 . S
