# Generated by pormake.
# Topology xfz, (5)-cn, num edge types: 1
# Building blocks:
#     Node 0, Type 0, BuildingBlock: BEQFEK_clean_sbu_0, # of connection points: 5
#     Node 1, Type 0, BuildingBlock: BEQFEK_clean_sbu_0, # of connection points: 5
#     Node 2, Type 0, BuildingBlock: BEQFEK_clean_sbu_0, # of connection points: 5
#     Node 3, Type 0, BuildingBlock: BEQFEK_clean_sbu_0, # of connection points: 5
#     Node 4, Type 0, BuildingBlock: BEQFEK_clean_sbu_0, # of connection points: 5
#     Node 5, Type 0, BuildingBlock: BEQFEK_clean_sbu_0, # of connection points: 5
#     Node 6, Type 0, BuildingBlock: BEQFEK_clean_sbu_0, # of connection points: 5
#     Node 7, Type 0, BuildingBlock: BEQFEK_clean_sbu_0, # of connection points: 5
#     Node 8, Type 0, BuildingBlock: BEQFEK_clean_sbu_0, # of connection points: 5
#     Node 9, Type 0, BuildingBlock: BEQFEK_clean_sbu_0, # of connection points: 5
#     Node 10, Type 0, BuildingBlock: BEQFEK_clean_sbu_0, # of connection points: 5
#     Node 11, Type 0, BuildingBlock: BEQFEK_clean_sbu_0, # of connection points: 5
#     Node 12, Type 0, BuildingBlock: BEQFEK_clean_sbu_0, # of connection points: 5
#     Node 13, Type 0, BuildingBlock: BEQFEK_clean_sbu_0, # of connection points: 5
#     Node 14, Type 0, BuildingBlock: BEQFEK_clean_sbu_0, # of connection points: 5
#     Node 15, Type 0, BuildingBlock: BEQFEK_clean_sbu_0, # of connection points: 5
#     Edge 16, Type (0, 0), BuildingBlock: KIFKEQ_clean_linker_1, # of connection points: 2
#     Edge 17, Type (0, 0), BuildingBlock: KIFKEQ_clean_linker_1, # of connection points: 2
#     Edge 18, Type (0, 0), BuildingBlock: KIFKEQ_clean_linker_1, # of connection points: 2
#     Edge 19, Type (0, 0), BuildingBlock: KIFKEQ_clean_linker_1, # of connection points: 2
#     Edge 20, Type (0, 0), BuildingBlock: KIFKEQ_clean_linker_1, # of connection points: 2
#     Edge 21, Type (0, 0), BuildingBlock: KIFKEQ_clean_linker_1, # of connection points: 2
#     Edge 22, Type (0, 0), BuildingBlock: KIFKEQ_clean_linker_1, # of connection points: 2
#     Edge 23, Type (0, 0), BuildingBlock: KIFKEQ_clean_linker_1, # of connection points: 2
#     Edge 24, Type (0, 0), BuildingBlock: KIFKEQ_clean_linker_1, # of connection points: 2
#     Edge 25, Type (0, 0), BuildingBlock: KIFKEQ_clean_linker_1, # of connection points: 2
#     Edge 26, Type (0, 0), BuildingBlock: KIFKEQ_clean_linker_1, # of connection points: 2
#     Edge 27, Type (0, 0), BuildingBlock: KIFKEQ_clean_linker_1, # of connection points: 2
#     Edge 28, Type (0, 0), BuildingBlock: KIFKEQ_clean_linker_1, # of connection points: 2
#     Edge 29, Type (0, 0), BuildingBlock: KIFKEQ_clean_linker_1, # of connection points: 2
#     Edge 30, Type (0, 0), BuildingBlock: KIFKEQ_clean_linker_1, # of connection points: 2
#     Edge 31, Type (0, 0), BuildingBlock: KIFKEQ_clean_linker_1, # of connection points: 2
#     Edge 32, Type (0, 0), BuildingBlock: KIFKEQ_clean_linker_1, # of connection points: 2
#     Edge 33, Type (0, 0), BuildingBlock: KIFKEQ_clean_linker_1, # of connection points: 2
#     Edge 34, Type (0, 0), BuildingBlock: KIFKEQ_clean_linker_1, # of connection points: 2
#     Edge 35, Type (0, 0), BuildingBlock: KIFKEQ_clean_linker_1, # of connection points: 2
#     Edge 36, Type (0, 0), BuildingBlock: KIFKEQ_clean_linker_1, # of connection points: 2
#     Edge 37, Type (0, 0), BuildingBlock: KIFKEQ_clean_linker_1, # of connection points: 2
#     Edge 38, Type (0, 0), BuildingBlock: KIFKEQ_clean_linker_1, # of connection points: 2
#     Edge 39, Type (0, 0), BuildingBlock: KIFKEQ_clean_linker_1, # of connection points: 2
#     Edge 40, Type (0, 0), BuildingBlock: KIFKEQ_clean_linker_1, # of connection points: 2
#     Edge 41, Type (0, 0), BuildingBlock: KIFKEQ_clean_linker_1, # of connection points: 2
#     Edge 42, Type (0, 0), BuildingBlock: KIFKEQ_clean_linker_1, # of connection points: 2
#     Edge 43, Type (0, 0), BuildingBlock: KIFKEQ_clean_linker_1, # of connection points: 2
#     Edge 44, Type (0, 0), BuildingBlock: KIFKEQ_clean_linker_1, # of connection points: 2
#     Edge 45, Type (0, 0), BuildingBlock: KIFKEQ_clean_linker_1, # of connection points: 2
#     Edge 46, Type (0, 0), BuildingBlock: KIFKEQ_clean_linker_1, # of connection points: 2
#     Edge 47, Type (0, 0), BuildingBlock: KIFKEQ_clean_linker_1, # of connection points: 2
#     Edge 48, Type (0, 0), BuildingBlock: KIFKEQ_clean_linker_1, # of connection points: 2
#     Edge 49, Type (0, 0), BuildingBlock: KIFKEQ_clean_linker_1, # of connection points: 2
#     Edge 50, Type (0, 0), BuildingBlock: KIFKEQ_clean_linker_1, # of connection points: 2
#     Edge 51, Type (0, 0), BuildingBlock: KIFKEQ_clean_linker_1, # of connection points: 2
#     Edge 52, Type (0, 0), BuildingBlock: KIFKEQ_clean_linker_1, # of connection points: 2
#     Edge 53, Type (0, 0), BuildingBlock: KIFKEQ_clean_linker_1, # of connection points: 2
#     Edge 54, Type (0, 0), BuildingBlock: KIFKEQ_clean_linker_1, # of connection points: 2
#     Edge 55, Type (0, 0), BuildingBlock: KIFKEQ_clean_linker_1, # of connection points: 2
# Relax obj value: 0.381
# Max RMSD: 0.180
# Mean RMSD: 0.180
data_MOF--net-xfz--node1-BEQFEK_clean_sbu_0--edge1-KIFKEQ_clean_linker_1
_symmetry_space_group_name_H-M    P1
_symmetry_Int_Tables_number       1
_symmetry_cell_setting            triclinic
loop_
_symmetry_equiv_pos_as_xyz
'x, y, z'
_cell_length_a     48.029096
_cell_length_b     48.076243
_cell_length_c     50.016681
_cell_angle_alpha  89.996769
_cell_angle_beta   90.000848
_cell_angle_gamma 89.952274
loop_
_atom_site_label
_atom_site_type_symbol
_atom_site_fract_x
_atom_site_fract_y
_atom_site_fract_z
_atom_type_partial_charge
Co0 Co 0.14397 0.47658 0.38089 0.0
Co1 Co 0.20043 0.4611 0.35417 0.0
C2 C 0.14792 0.42708 0.34513 0.0
O3 O 0.13421 0.44243 0.36112 0.0
O4 O 0.17367 0.43174 0.34058 0.0
C5 C 0.09704 0.47073 0.4158 0.0
O6 O 0.10434 0.44441 0.41701 0.0
C7 C 0.24817 0.4241 0.34558 0.0
C8 C 0.28132 0.45321 0.3333 0.0
C9 C 0.27617 0.42539 0.33871 0.0
N10 N 0.23733 0.44988 0.34423 0.0
N11 N 0.25721 0.46715 0.33665 0.0
C12 C 0.23251 0.39942 0.35582 0.0
H13 H 0.21532 0.40621 0.36915 0.0
H14 H 0.24658 0.38508 0.36679 0.0
H15 H 0.22334 0.38804 0.33865 0.0
C16 C 0.17824 0.47679 0.42979 0.0
N17 N 0.17497 0.4721 0.40342 0.0
N18 N 0.19923 0.46609 0.39263 0.0
C19 C 0.21883 0.46694 0.41215 0.0
C20 C 0.20601 0.47343 0.43635 0.0
C21 C 0.15575 0.48726 0.44795 0.0
H22 H 0.14401 0.50418 0.43799 0.0
H23 H 0.14124 0.46999 0.45254 0.0
H24 H 0.16427 0.4953 0.46706 0.0
O25 O 0.15056 0.50693 0.3551 0.0
O26 O 0.19058 0.49689 0.33502 0.0
H27 H 0.2566 0.4773 0.39189 0.0
H28 H 0.26141 0.46625 0.42622 0.0
C29 C 0.2493 0.46277 0.40762 0.0
H30 H 0.253 0.44125 0.40049 0.0
H31 H 0.25451 0.48857 0.33446 0.0
O32 O 0.11124 0.48748 0.40172 0.0
C33 C 0.16934 0.51264 0.338 0.0
Co34 Co 0.4747 0.86335 0.6775 0.0
Co35 Co 0.4625 0.80679 0.70545 0.0
C36 C 0.42698 0.85845 0.71496 0.0
O37 O 0.44116 0.8725 0.69833 0.0
O38 O 0.43282 0.83299 0.71954 0.0
C39 C 0.46445 0.91173 0.64628 0.0
O40 O 0.43823 0.90621 0.65155 0.0
C41 C 0.42771 0.75719 0.70981 0.0
C42 C 0.45084 0.73083 0.73834 0.0
C43 C 0.42669 0.73192 0.72318 0.0
N44 N 0.45144 0.77029 0.71653 0.0
N45 N 0.46523 0.75439 0.73355 0.0
C46 C 0.40541 0.76987 0.69281 0.0
H47 H 0.40981 0.79217 0.68898 0.0
H48 H 0.40433 0.75886 0.67338 0.0
H49 H 0.38488 0.76758 0.70276 0.0
C50 C 0.4742 0.82869 0.6292 0.0
N51 N 0.47012 0.83191 0.65565 0.0
N52 N 0.46683 0.80743 0.66695 0.0
C53 C 0.46966 0.78765 0.6478 0.0
C54 C 0.47389 0.80059 0.62318 0.0
C55 C 0.48167 0.85193 0.61059 0.0
H56 H 0.50038 0.86284 0.61824 0.0
H57 H 0.46423 0.86703 0.60981 0.0
H58 H 0.48605 0.84445 0.59005 0.0
O59 O 0.50633 0.85792 0.70257 0.0
O60 O 0.4984 0.81782 0.72339 0.0
H61 H 0.47999 0.75295 0.673 0.0
H62 H 0.48257 0.746 0.63743 0.0
C63 C 0.47057 0.75705 0.65314 0.0
H64 H 0.44906 0.74873 0.65308 0.0
H65 H 0.48421 0.75982 0.74225 0.0
O66 O 0.48341 0.89591 0.65534 0.0
C67 C 0.51327 0.83954 0.71973 0.0
Co68 Co 0.86221 0.52874 0.37904 0.0
Co69 Co 0.80635 0.54398 0.35119 0.0
C70 C 0.85934 0.57814 0.34359 0.0
O71 O 0.87281 0.56297 0.3599 0.0
O72 O 0.83376 0.57321 0.33853 0.0
C73 C 0.90874 0.53387 0.41449 0.0
O74 O 0.90192 0.56034 0.41536 0.0
C75 C 0.75766 0.58046 0.34703 0.0
C76 C 0.73085 0.55838 0.31815 0.0
C77 C 0.73243 0.58226 0.3336 0.0
N78 N 0.77027 0.55654 0.34005 0.0
N79 N 0.7541 0.54339 0.32281 0.0
C80 C 0.77075 0.60217 0.36439 0.0
H81 H 0.76938 0.62279 0.35449 0.0
H82 H 0.79283 0.59696 0.36861 0.0
H83 H 0.75937 0.6036 0.38361 0.0
C84 C 0.82688 0.52829 0.42722 0.0
N85 N 0.83063 0.53319 0.40094 0.0
N86 N 0.80643 0.5382 0.38958 0.0
C87 C 0.78632 0.53594 0.40852 0.0
C88 C 0.7988 0.53015 0.43304 0.0
C89 C 0.84933 0.51885 0.44594 0.0
H90 H 0.86114 0.50147 0.43679 0.0
H91 H 0.86379 0.53637 0.44972 0.0
H92 H 0.84082 0.51174 0.46539 0.0
O93 O 0.85601 0.49863 0.3527 0.0
O94 O 0.81629 0.50843 0.33193 0.0
H95 H 0.75116 0.52856 0.38295 0.0
H96 H 0.74391 0.52537 0.41842 0.0
C97 C 0.75574 0.53712 0.40306 0.0
H98 H 0.74873 0.55908 0.4037 0.0
H99 H 0.7591 0.52439 0.31393 0.0
O100 O 0.89437 0.51726 0.40042 0.0
C101 C 0.83759 0.49284 0.33523 0.0
Co102 Co 0.52776 0.14568 0.67754 0.0
Co103 Co 0.54406 0.20164 0.70482 0.0
C104 C 0.57769 0.14894 0.71309 0.0
O105 O 0.56162 0.1354 0.69767 0.0
O106 O 0.5737 0.17479 0.71738 0.0
C107 C 0.53591 0.09739 0.64584 0.0
O108 O 0.56238 0.10265 0.65006 0.0
C109 C 0.58002 0.25061 0.70903 0.0
C110 C 0.55724 0.27746 0.73741 0.0
C111 C 0.58139 0.27592 0.7223 0.0
N112 N 0.55608 0.2379 0.71577 0.0
N113 N 0.54252 0.2541 0.7327 0.0
C114 C 0.60216 0.23753 0.69212 0.0
H115 H 0.6224 0.23821 0.70282 0.0
H116 H 0.59672 0.21571 0.68717 0.0
H117 H 0.6046 0.24939 0.67327 0.0
C118 C 0.52847 0.18017 0.62908 0.0
N119 N 0.53293 0.1769 0.65547 0.0
N120 N 0.53812 0.20119 0.66648 0.0
C121 C 0.53631 0.22095 0.64717 0.0
C122 C 0.53065 0.2081 0.62279 0.0
C123 C 0.51944 0.15729 0.61069 0.0
H124 H 0.50081 0.14686 0.61908 0.0
H125 H 0.5364 0.14173 0.60904 0.0
H126 H 0.51433 0.1651 0.59041 0.0
O127 O 0.49694 0.15226 0.70322 0.0
O128 O 0.50895 0.19114 0.72451 0.0
H129 H 0.52937 0.25675 0.67199 0.0
H130 H 0.52679 0.26335 0.63637 0.0
C131 C 0.53809 0.25157 0.65208 0.0
H132 H 0.56022 0.25803 0.65157 0.0
H133 H 0.52342 0.24903 0.74137 0.0
O134 O 0.51752 0.11336 0.65568 0.0
C135 C 0.4924 0.17065 0.72104 0.0
Co136 Co 0.1455 0.52803 0.67937 0.0
Co137 Co 0.20172 0.54556 0.70577 0.0
C138 C 0.14827 0.57782 0.71513 0.0
O139 O 0.13492 0.56169 0.69963 0.0
O140 O 0.17424 0.57423 0.71928 0.0
C141 C 0.09724 0.53578 0.64777 0.0
O142 O 0.10267 0.56223 0.65174 0.0
C143 C 0.24988 0.58306 0.71092 0.0
C144 C 0.28081 0.55653 0.7313 0.0
C145 C 0.27713 0.58296 0.72065 0.0
N146 N 0.23842 0.55793 0.71544 0.0
N147 N 0.25703 0.54219 0.72765 0.0
C148 C 0.2344 0.60671 0.69831 0.0
H149 H 0.21168 0.60297 0.6987 0.0
H150 H 0.2407 0.60865 0.67707 0.0
H151 H 0.23919 0.6265 0.70876 0.0
C152 C 0.17932 0.52896 0.63045 0.0
N153 N 0.17622 0.53374 0.65681 0.0
N154 N 0.20049 0.53987 0.66745 0.0
C155 C 0.22004 0.53858 0.64791 0.0
C156 C 0.2071 0.53203 0.62379 0.0
C157 C 0.15657 0.5188 0.61245 0.0
H158 H 0.1466 0.50022 0.62142 0.0
H159 H 0.1406 0.53532 0.61034 0.0
H160 H 0.16444 0.51329 0.59228 0.0
O161 O 0.15315 0.49742 0.70494 0.0
O162 O 0.19239 0.51002 0.72539 0.0
H163 H 0.25689 0.52987 0.67057 0.0
H164 H 0.26277 0.53415 0.63497 0.0
C165 C 0.25065 0.54164 0.65245 0.0
H166 H 0.25557 0.56389 0.65579 0.0
H167 H 0.25354 0.52163 0.73343 0.0
O168 O 0.11306 0.5174 0.65786 0.0
C169 C 0.17207 0.49315 0.72232 0.0
Co170 Co 0.53218 0.86407 0.38125 0.0
Co171 Co 0.54671 0.80752 0.35404 0.0
C172 C 0.58081 0.86006 0.34463 0.0
O173 O 0.56593 0.87379 0.36096 0.0
O174 O 0.57572 0.83445 0.33999 0.0
C175 C 0.54099 0.91228 0.41287 0.0
O176 O 0.56739 0.90686 0.40841 0.0
C177 C 0.58362 0.75906 0.34853 0.0
C178 C 0.557 0.72865 0.32763 0.0
C179 C 0.58343 0.73198 0.33845 0.0
N180 N 0.55855 0.77076 0.34403 0.0
N181 N 0.54275 0.75245 0.33152 0.0
C182 C 0.60731 0.77421 0.36142 0.0
H183 H 0.60362 0.79691 0.36143 0.0
H184 H 0.60922 0.76751 0.38255 0.0
H185 H 0.62712 0.76953 0.35091 0.0
C186 C 0.53297 0.82988 0.4299 0.0
N187 N 0.53716 0.83299 0.40345 0.0
N188 N 0.54201 0.80861 0.39249 0.0
C189 C 0.54042 0.78897 0.41191 0.0
C190 C 0.53507 0.80194 0.43631 0.0
C191 C 0.52397 0.85287 0.44819 0.0
H192 H 0.50554 0.86352 0.43961 0.0
H193 H 0.54107 0.86823 0.45002 0.0
H194 H 0.51852 0.84517 0.46842 0.0
O195 O 0.50127 0.85768 0.35571 0.0
O196 O 0.51069 0.8176 0.33538 0.0
H197 H 0.53026 0.75274 0.38895 0.0
H198 H 0.5346 0.74632 0.42446 0.0
C199 C 0.54236 0.75834 0.40705 0.0
H200 H 0.56443 0.75265 0.40354 0.0
H201 H 0.52223 0.75619 0.32565 0.0
O202 O 0.5224 0.89653 0.40306 0.0
C203 C 0.49518 0.83901 0.33858 0.0
Co204 Co 0.86317 0.47481 0.67518 0.0
Co205 Co 0.80656 0.46109 0.70267 0.0
C206 C 0.85918 0.4273 0.71304 0.0
O207 O 0.87288 0.44159 0.69623 0.0
O208 O 0.83357 0.43257 0.71759 0.0
C209 C 0.91141 0.465 0.64392 0.0
O210 O 0.90551 0.43878 0.64864 0.0
C211 C 0.75815 0.42439 0.70852 0.0
C212 C 0.72755 0.45121 0.729 0.0
C213 C 0.73099 0.42471 0.71843 0.0
N214 N 0.7698 0.44947 0.71282 0.0
N215 N 0.75139 0.46539 0.7251 0.0
C216 C 0.77342 0.40057 0.69596 0.0
H217 H 0.79617 0.40412 0.69632 0.0
H218 H 0.76709 0.39864 0.67471 0.0
H219 H 0.76846 0.38084 0.70644 0.0
C220 C 0.82895 0.47319 0.62655 0.0
N221 N 0.8321 0.4694 0.65305 0.0
N222 N 0.80769 0.46492 0.66413 0.0
C223 C 0.78799 0.46638 0.64474 0.0
C224 C 0.80095 0.47123 0.62023 0.0
C225 C 0.85197 0.4818 0.60812 0.0
H226 H 0.86267 0.50032 0.61641 0.0
H227 H 0.86733 0.46465 0.60656 0.0
H228 H 0.84426 0.48692 0.58781 0.0
O229 O 0.85673 0.50626 0.70012 0.0
O230 O 0.8165 0.49746 0.72048 0.0
H231 H 0.75193 0.47738 0.66766 0.0
H232 H 0.74532 0.47258 0.63225 0.0
C233 C 0.75733 0.46493 0.64972 0.0
H234 H 0.75137 0.44303 0.65357 0.0
H235 H 0.75507 0.48595 0.73076 0.0
O236 O 0.89581 0.48395 0.65332 0.0
C237 C 0.83798 0.51278 0.71706 0.0
Co238 Co 0.47668 0.14434 0.38089 0.0
Co239 Co 0.46193 0.20024 0.35276 0.0
C240 C 0.42721 0.14799 0.34517 0.0
O241 O 0.44261 0.1344 0.36117 0.0
O242 O 0.43208 0.17356 0.34023 0.0
C243 C 0.46795 0.09671 0.41336 0.0
O244 O 0.44153 0.10215 0.40902 0.0
C245 C 0.42497 0.24803 0.34688 0.0
C246 C 0.44997 0.27765 0.32328 0.0
C247 C 0.42413 0.27449 0.33542 0.0
N248 N 0.44987 0.23643 0.34162 0.0
N249 N 0.4647 0.25419 0.32741 0.0
C250 C 0.4035 0.23424 0.36404 0.0
H251 H 0.41303 0.21729 0.37601 0.0
H252 H 0.39358 0.24959 0.37761 0.0
H253 H 0.38726 0.2249 0.35108 0.0
C254 C 0.47647 0.17953 0.42889 0.0
N255 N 0.47221 0.17595 0.40251 0.0
N256 N 0.46736 0.20014 0.39115 0.0
C257 C 0.46899 0.22012 0.41024 0.0
C258 C 0.47439 0.20756 0.43483 0.0
C259 C 0.48511 0.15681 0.44764 0.0
H260 H 0.50354 0.14585 0.4394 0.0
H261 H 0.46787 0.14162 0.44957 0.0
H262 H 0.49041 0.16486 0.46778 0.0
O263 O 0.50733 0.1499 0.35488 0.0
O264 O 0.49746 0.18935 0.33364 0.0
H265 H 0.47736 0.2559 0.38594 0.0
H266 H 0.47588 0.26292 0.42157 0.0
C267 C 0.46673 0.25065 0.40496 0.0
H268 H 0.44445 0.25635 0.40304 0.0
H269 H 0.48492 0.25037 0.32069 0.0
O270 O 0.48651 0.11225 0.40322 0.0
C271 C 0.51307 0.16807 0.33716 0.0
Co272 Co 0.64546 0.97674 0.87952 0.0
Co273 Co 0.70174 0.96331 0.85129 0.0
C274 C 0.64955 0.92826 0.84299 0.0
O275 O 0.63577 0.94293 0.85944 0.0
O276 O 0.67506 0.93369 0.83809 0.0
C277 C 0.59683 0.96824 0.91103 0.0
O278 O 0.60164 0.94183 0.90612 0.0
C279 C 0.75103 0.9278 0.84718 0.0
C280 C 0.77738 0.95001 0.81802 0.0
C281 C 0.7762 0.9262 0.83363 0.0
N282 N 0.73808 0.95152 0.84013 0.0
N283 N 0.75399 0.96476 0.82274 0.0
C284 C 0.73826 0.90603 0.8647 0.0
H285 H 0.74045 0.88525 0.85525 0.0
H286 H 0.71596 0.91065 0.86845 0.0
H287 H 0.74929 0.90539 0.88416 0.0
C288 C 0.68054 0.97638 0.92754 0.0
N289 N 0.67708 0.97214 0.90115 0.0
N290 N 0.70146 0.96839 0.88972 0.0
C291 C 0.72142 0.97112 0.90873 0.0
C292 C 0.70869 0.97574 0.93338 0.0
C293 C 0.65747 0.98399 0.94633 0.0
H294 H 0.64686 1.00301 0.93898 0.0
H295 H 0.64205 0.96686 0.9469 0.0
H296 H 0.66515 0.98788 0.96691 0.0
O297 O 0.65101 0.00767 0.85377 0.0
O298 O 0.6908 0.99888 0.83262 0.0
H299 H 0.75611 0.98036 0.88309 0.0
H300 H 0.76318 0.98405 0.91855 0.0
C301 C 0.75202 0.97162 0.90323 0.0
H302 H 0.76024 0.95009 0.90394 0.0
H303 H 0.74868 0.98362 0.81373 0.0
O304 O 0.61319 0.98657 0.90172 0.0
C305 C 0.66922 0.01402 0.83624 0.0
Co306 Co 0.97697 0.36179 0.1761 0.0
Co307 Co 0.96237 0.30577 0.20404 0.0
C308 C 0.92746 0.35792 0.21174 0.0
O309 O 0.94283 0.37159 0.1958 0.0
O310 O 0.93243 0.33234 0.21661 0.0
C311 C 0.96805 0.40949 0.14376 0.0
O312 O 0.94165 0.40393 0.14804 0.0
C313 C 0.92548 0.25796 0.2098 0.0
C314 C 0.95049 0.22827 0.23335 0.0
C315 C 0.92464 0.2315 0.22124 0.0
N316 N 0.95038 0.26952 0.21507 0.0
N317 N 0.96523 0.25172 0.22923 0.0
C318 C 0.90399 0.27182 0.19269 0.0
H319 H 0.91352 0.28874 0.18071 0.0
H320 H 0.89402 0.2565 0.17914 0.0
H321 H 0.88779 0.28121 0.20568 0.0
C322 C 0.97703 0.32674 0.12801 0.0
N323 N 0.97267 0.33023 0.15438 0.0
N324 N 0.96786 0.306 0.16565 0.0
C325 C 0.96963 0.28608 0.14652 0.0
C326 C 0.97507 0.29872 0.12198 0.0
C327 C 0.98575 0.34954 0.10938 0.0
H328 H 0.00405 0.36052 0.1178 0.0
H329 H 0.96846 0.36469 0.10735 0.0
H330 H 0.99126 0.34156 0.08927 0.0
O331 O 0.00759 0.3562 0.20214 0.0
O332 O 0.99785 0.31667 0.22325 0.0
H333 H 0.97814 0.25023 0.17069 0.0
H334 H 0.97653 0.2433 0.13505 0.0
C335 C 0.96743 0.25554 0.15172 0.0
H336 H 0.94517 0.24984 0.15371 0.0
H337 H 0.98545 0.2555 0.23596 0.0
O338 O 0.98667 0.39398 0.15389 0.0
C339 C 0.01338 0.33799 0.21982 0.0
Co340 Co 0.36212 0.03229 0.88137 0.0
Co341 Co 0.30473 0.04341 0.8542 0.0
C342 C 0.35623 0.079 0.84339 0.0
O343 O 0.3706 0.06618 0.86077 0.0
O344 O 0.33111 0.07202 0.83853 0.0
C345 C 0.41139 0.042 0.91171 0.0
O346 O 0.40625 0.06828 0.90645 0.0
C347 C 0.25574 0.07938 0.84883 0.0
C348 C 0.22541 0.0524 0.82826 0.0
C349 C 0.22856 0.07886 0.83899 0.0
N350 N 0.26768 0.05446 0.84433 0.0
N351 N 0.24942 0.03842 0.83201 0.0
C352 C 0.2708 0.10325 0.86149 0.0
H353 H 0.29359 0.09987 0.86106 0.0
H354 H 0.26449 0.10501 0.88275 0.0
H355 H 0.26563 0.123 0.85111 0.0
C356 C 0.32824 0.03308 0.93026 0.0
N357 N 0.33104 0.03666 0.9037 0.0
N358 N 0.30639 0.04003 0.89275 0.0
C359 C 0.2869 0.03797 0.91226 0.0
C360 C 0.30021 0.03392 0.93674 0.0
C361 C 0.35179 0.02571 0.94859 0.0
H362 H 0.36265 0.00701 0.94086 0.0
H363 H 0.36688 0.04314 0.94908 0.0
H364 H 0.34461 0.02139 0.96924 0.0
O365 O 0.35639 1.00076 0.85615 0.0
O366 O 0.31519 0.00714 0.83674 0.0
H367 H 0.2512 0.02552 0.88954 0.0
H368 H 0.24458 0.03013 0.92498 0.0
C369 C 0.25618 0.03819 0.90744 0.0
H370 H 0.24931 0.05984 0.90358 0.0
H371 H 0.25335 0.01795 0.82618 0.0
O372 O 0.39506 0.02335 0.90298 0.0
C373 C 0.33756 0.99303 0.83977 0.0
Co374 Co 0.03157 0.64238 0.17644 0.0
Co375 Co 0.04592 0.69895 0.2037 0.0
C376 C 0.08023 0.64643 0.21297 0.0
O377 O 0.0654 0.63269 0.19662 0.0
O378 O 0.07503 0.67201 0.21766 0.0
C379 C 0.0404 0.59417 0.14482 0.0
O380 O 0.0668 0.59959 0.14927 0.0
C381 C 0.08286 0.74731 0.2089 0.0
C382 C 0.05662 0.7777 0.2303 0.0
C383 C 0.08289 0.77433 0.21912 0.0
N384 N 0.05783 0.73568 0.21367 0.0
N385 N 0.04225 0.75398 0.22647 0.0
C386 C 0.1063 0.73213 0.19561 0.0
H387 H 0.10246 0.70945 0.19539 0.0
H388 H 0.10801 0.73905 0.17452 0.0
H389 H 0.12626 0.73652 0.20595 0.0
C390 C 0.032 0.67665 0.12786 0.0
N391 N 0.03638 0.67349 0.15427 0.0
N392 N 0.04106 0.69788 0.16527 0.0
C393 C 0.03913 0.71757 0.14593 0.0
C394 C 0.03376 0.70461 0.12152 0.0
C395 C 0.02313 0.65364 0.10955 0.0
H396 H 0.00464 0.64303 0.11803 0.0
H397 H 0.04025 0.63825 0.10786 0.0
H398 H 0.01784 0.66132 0.08927 0.0
O399 O 1.00073 0.64872 0.20209 0.0
O400 O 0.00998 0.6888 0.22247 0.0
H401 H 0.02869 0.75355 0.16914 0.0
H402 H 0.03246 0.76016 0.1336 0.0
C403 C 0.04065 0.7482 0.15088 0.0
H404 H 0.06266 0.7542 0.15415 0.0
H405 H 0.02181 0.75028 0.2326 0.0
O406 O 0.0218 0.60993 0.15462 0.0
C407 C 0.99458 0.66734 0.21926 0.0
Co408 Co 0.64445 0.02943 0.17651 0.0
Co409 Co 0.70083 0.04522 0.20322 0.0
C410 C 0.64816 0.07903 0.21222 0.0
O411 O 0.63453 0.06357 0.19627 0.0
O412 O 0.67394 0.0745 0.21677 0.0
C413 C 0.59741 0.03501 0.14163 0.0
O414 O 0.60454 0.06136 0.14033 0.0
C415 C 0.7485 0.08228 0.21183 0.0
C416 C 0.78173 0.05314 0.22396 0.0
C417 C 0.77653 0.08096 0.21859 0.0
N418 N 0.7377 0.0565 0.21317 0.0
N419 N 0.75763 0.03921 0.22068 0.0
C420 C 0.73278 0.10697 0.20164 0.0
H421 H 0.71552 0.1002 0.18839 0.0
H422 H 0.7468 0.12128 0.19059 0.0
H423 H 0.72371 0.11838 0.21885 0.0
C424 C 0.67868 0.02959 0.12758 0.0
N425 N 0.67543 0.03406 0.15399 0.0
N426 N 0.69964 0.04026 0.16475 0.0
C427 C 0.71919 0.03981 0.14517 0.0
C428 C 0.70638 0.03336 0.12096 0.0
C429 C 0.65626 0.019 0.10941 0.0
H430 H 0.64455 1.0021 0.11942 0.0
H431 H 0.64171 0.03623 0.10471 0.0
H432 H 0.66487 0.01087 0.09037 0.0
O433 O 0.6512 0.99914 0.20231 0.0
O434 O 0.69113 0.0094 0.22242 0.0
H435 H 0.75725 0.03014 0.16528 0.0
H436 H 0.7617 0.04135 0.13096 0.0
C437 C 0.74959 0.04455 0.1496 0.0
H438 H 0.75286 0.06613 0.15674 0.0
H439 H 0.75497 0.01778 0.22283 0.0
O440 O 0.61175 0.01838 0.15573 0.0
C441 C 0.66998 0.99355 0.21944 0.0
Co442 Co 0.03352 0.36138 0.88035 0.0
Co443 Co 0.04475 0.30462 0.85231 0.0
C444 C 0.08126 0.35573 0.84335 0.0
O445 O 0.06784 0.37 0.8604 0.0
O446 O 0.07442 0.33066 0.83817 0.0
C447 C 0.04296 0.41009 0.91166 0.0
O448 O 0.06933 0.40527 0.90645 0.0
C449 C 0.08048 0.256 0.84642 0.0
C450 C 0.05448 0.22652 0.82367 0.0
C451 C 0.08059 0.22938 0.83532 0.0
N452 N 0.05573 0.26802 0.84139 0.0
N453 N 0.04028 0.25034 0.82771 0.0
C454 C 0.1025 0.2696 0.86307 0.0
H455 H 0.09348 0.28679 0.87508 0.0
H456 H 0.11247 0.25421 0.87657 0.0
H457 H 0.11861 0.27861 0.84975 0.0
C458 C 0.03329 0.32657 0.92861 0.0
N459 N 0.03719 0.32981 0.90214 0.0
N460 N 0.04049 0.30535 0.89081 0.0
C461 C 0.0381 0.28556 0.90999 0.0
C462 C 0.03388 0.29847 0.93463 0.0
C463 C 0.02609 0.34984 0.9473 0.0
H464 H 0.00745 0.36095 0.93972 0.0
H465 H 0.04365 0.36478 0.94803 0.0
H466 H 0.02171 0.34235 0.96783 0.0
O467 O 1.00228 0.35654 0.85462 0.0
O468 O 0.009 0.31594 0.83431 0.0
H469 H 0.02685 0.25031 0.88607 0.0
H470 H 0.0293 0.24317 0.92164 0.0
C471 C 0.03846 0.25495 0.90471 0.0
H472 H 0.06031 0.24804 0.90198 0.0
H473 H 0.02002 0.25445 0.82129 0.0
O474 O 0.02446 0.39384 0.9025 0.0
C475 C 0.99483 0.3382 0.83765 0.0
Co476 Co 0.36241 0.97659 0.17839 0.0
Co477 Co 0.30648 0.96141 0.20615 0.0
C478 C 0.35953 0.92729 0.21397 0.0
O479 O 0.37299 0.94243 0.19765 0.0
O480 O 0.33392 0.93221 0.21896 0.0
C481 C 0.40913 0.97135 0.14314 0.0
O482 O 0.40241 0.94487 0.14234 0.0
C483 C 0.25777 0.92497 0.21033 0.0
C484 C 0.2309 0.94722 0.23906 0.0
C485 C 0.23251 0.92327 0.22371 0.0
N486 N 0.27038 0.94891 0.21725 0.0
N487 N 0.25416 0.96215 0.2344 0.0
C488 C 0.27091 0.90317 0.19309 0.0
H489 H 0.26967 0.88263 0.20316 0.0
H490 H 0.29294 0.90842 0.18874 0.0
H491 H 0.25944 0.90153 0.17393 0.0
C492 C 0.32723 0.97684 0.13012 0.0
N493 N 0.3309 0.97205 0.15642 0.0
N494 N 0.30667 0.96707 0.16774 0.0
C495 C 0.28663 0.96923 0.14873 0.0
C496 C 0.29917 0.97492 0.12421 0.0
C497 C 0.34973 0.98623 0.11145 0.0
H498 H 0.36147 0.00364 0.12059 0.0
H499 H 0.36423 0.96871 0.10776 0.0
H500 H 0.34127 0.9933 0.09196 0.0
O501 O 0.35609 0.00677 0.20462 0.0
O502 O 0.31635 0.99703 0.22535 0.0
H503 H 0.25133 0.97661 0.17414 0.0
H504 H 0.2442 0.97962 0.13864 0.0
C505 C 0.25603 0.96797 0.15408 0.0
H506 H 0.24913 0.946 0.15351 0.0
H507 H 0.25914 0.98117 0.24322 0.0
O508 O 0.39463 0.98801 0.15707 0.0
C509 C 0.33763 0.01261 0.22203 0.0
Co510 Co 0.97439 0.64276 0.87975 0.0
Co511 Co 0.96047 0.69952 0.85259 0.0
C512 C 0.92638 0.64702 0.84251 0.0
O513 O 0.94087 0.63315 0.85907 0.0
O514 O 0.93166 0.67262 0.83803 0.0
C515 C 0.96624 0.59363 0.9106 0.0
O516 O 0.93975 0.59812 0.90565 0.0
C517 C 0.92383 0.74821 0.84718 0.0
C518 C 0.95071 0.77861 0.82657 0.0
C519 C 0.92423 0.77537 0.8373 0.0
N520 N 0.94884 0.73638 0.84267 0.0
N521 N 0.96479 0.75469 0.83033 0.0
C522 C 0.90003 0.7331 0.85992 0.0
H523 H 0.90355 0.71036 0.85964 0.0
H524 H 0.89822 0.73955 0.88114 0.0
H525 H 0.88024 0.73807 0.8495 0.0
C526 C 0.97329 0.67671 0.92849 0.0
N527 N 0.9692 0.67372 0.90202 0.0
N528 N 0.96479 0.6982 0.89107 0.0
C529 C 0.96665 0.71778 0.91051 0.0
C530 C 0.97167 0.70468 0.93492 0.0
C531 C 0.98185 0.65353 0.94675 0.0
H532 H 1.00076 0.64328 0.93869 0.0
H533 H 0.96492 0.6379 0.94766 0.0
H534 H 0.98635 0.66095 0.96729 0.0
O535 O 0.00556 0.64931 0.85456 0.0
O536 O 0.99666 0.68954 0.83428 0.0
H537 H 0.97781 0.75375 0.88763 0.0
H538 H 0.97337 0.76028 0.92311 0.0
C539 C 0.96545 0.74844 0.90565 0.0
H540 H 0.94356 0.75464 0.90198 0.0
H541 H 0.98531 0.75087 0.82452 0.0
O542 O 0.98441 0.61024 0.90143 0.0
C543 C 0.01199 0.66804 0.8376 0.0
H544 H 0.92819 0.48077 0.41524 0.0
H545 H 0.94673 0.56359 0.44375 0.0
H546 H 0.97426 0.46553 0.42783 0.0
H547 H 0.99291 0.54794 0.45754 0.0
H548 H 0.05846 0.44038 0.44375 0.0
H549 H 0.01195 0.45571 0.45687 0.0
H550 H 0.03113 0.53869 0.42901 0.0
H551 H 0.07747 0.52375 0.41708 0.0
C552 C 0.94189 0.49558 0.42489 0.0
C553 C 0.93422 0.52363 0.42764 0.0
C554 C 0.9683 0.48671 0.43252 0.0
C555 C 0.98756 0.50565 0.44325 0.0
C556 C 0.97876 0.533 0.44871 0.0
C557 C 0.95233 0.54197 0.44084 0.0
C558 C 0.05289 0.46204 0.44112 0.0
C559 C 0.07124 0.48066 0.42861 0.0
C560 C 0.02626 0.47082 0.4486 0.0
C561 C 0.01755 0.49827 0.44345 0.0
C562 C 0.03701 0.51743 0.43343 0.0
C563 C 0.06358 0.50874 0.42619 0.0
H564 H 0.56508 0.04908 0.64305 0.0
H565 H 0.48718 0.08694 0.61997 0.0
H566 H 0.5467 0.00364 0.632 0.0
H567 H 0.46904 0.04148 0.60725 0.0
H568 H 0.43503 0.95997 0.64544 0.0
H569 H 0.45278 0.00562 0.63418 0.0
H570 H 0.5291 0.96829 0.60524 0.0
H571 H 0.51169 0.92261 0.61817 0.0
C572 C 0.54433 0.04773 0.63465 0.0
C573 C 0.52726 0.0713 0.63303 0.0
C574 C 0.53377 0.02162 0.62805 0.0
C575 C 0.50606 0.0187 0.61923 0.0
C576 C 0.49013 0.04283 0.61478 0.0
C577 C 0.50052 0.06888 0.62195 0.0
C578 C 0.45531 0.96149 0.63607 0.0
C579 C 0.47232 0.93798 0.63332 0.0
C580 C 0.46551 0.98772 0.62936 0.0
C581 C 0.49273 0.99081 0.61931 0.0
C582 C 0.50842 0.96679 0.61374 0.0
C583 C 0.49844 0.94062 0.62101 0.0
H584 H 0.92297 0.51236 0.61633 0.0
H585 H 0.95945 0.43528 0.64344 0.0
H586 H 0.96903 0.52965 0.60436 0.0
H587 H 0.00544 0.4529 0.6332 0.0
H588 H 0.08728 0.48724 0.6215 0.0
H589 H 0.04208 0.46936 0.6075 0.0
H590 H 0.00375 0.54681 0.63204 0.0
H591 H 0.04898 0.56495 0.64432 0.0
C592 C 0.94088 0.49899 0.61932 0.0
C593 C 0.93789 0.47279 0.63133 0.0
C594 C 0.96725 0.5089 0.61261 0.0
C595 C 0.99112 0.49307 0.6185 0.0
C596 C 0.98769 0.46575 0.62818 0.0
C597 C 0.96126 0.45563 0.63429 0.0
C598 C 0.06917 0.50059 0.62317 0.0
C599 C 0.07136 0.52719 0.63451 0.0
C600 C 0.04328 0.49035 0.61527 0.0
C601 C 0.01906 0.50629 0.61925 0.0
C602 C 0.02181 0.53387 0.62842 0.0
C603 C 0.04778 0.54429 0.63573 0.0
H604 H 0.49311 0.92223 0.4403 0.0
H605 H 0.56987 0.96072 0.41498 0.0
H606 H 0.47499 0.96751 0.45371 0.0
H607 H 0.55144 0.006 0.42667 0.0
H608 H 0.51603 0.0867 0.44045 0.0
H609 H 0.53424 0.04136 0.45357 0.0
H610 H 0.45746 1.00303 0.42723 0.0
H611 H 0.43895 0.04836 0.41584 0.0
C612 C 0.50622 0.9404 0.43799 0.0
C613 C 0.53258 0.93823 0.42608 0.0
C614 C 0.49584 0.96634 0.44555 0.0
C615 C 0.51137 0.9906 0.44062 0.0
C616 C 0.53881 0.98792 0.43099 0.0
C617 C 0.5494 0.96191 0.42402 0.0
C618 C 0.50287 0.06855 0.43825 0.0
C619 C 0.47638 0.07078 0.4266 0.0
C620 C 0.5133 0.04258 0.44563 0.0
C621 C 0.49771 0.01835 0.44078 0.0
C622 C 0.47015 0.02109 0.43147 0.0
C623 C 0.4595 0.04713 0.42468 0.0
H624 H 0.58679 0.01678 0.93735 0.0
H625 H 0.54812 0.93968 0.91337 0.0
H626 H 0.54143 0.03536 0.95004 0.0
H627 H 0.50279 0.95852 0.92448 0.0
H628 H 0.42203 0.99438 0.93929 0.0
H629 H 0.46767 0.97626 0.95167 0.0
H630 H 0.50568 0.05224 0.92306 0.0
H631 H 0.46009 0.07069 0.91227 0.0
C632 C 0.56857 0.00369 0.93518 0.0
C633 C 0.57075 0.97707 0.92386 0.0
C634 C 0.54259 0.01434 0.94232 0.0
C635 C 0.51829 0.99878 0.93766 0.0
C636 C 0.52093 0.97116 0.92858 0.0
C637 C 0.54697 0.96034 0.92197 0.0
C638 C 0.44019 0.0074 0.93638 0.0
C639 C 0.43774 0.03364 0.9243 0.0
C640 C 0.46632 0.99701 0.94335 0.0
C641 C 0.49051 0.01242 0.93774 0.0
C642 C 0.48765 0.03973 0.92789 0.0
C643 C 0.46146 0.05032 0.92146 0.0
H644 H 0.01606 0.41976 0.11669 0.0
H645 H 0.93883 0.45777 0.14153 0.0
H646 H 0.03407 0.46522 0.10377 0.0
H647 H 0.95714 0.50321 0.13035 0.0
H648 H 0.99247 0.58419 0.11751 0.0
H649 H 0.97449 0.53891 0.10401 0.0
H650 H 0.05114 0.50049 0.13078 0.0
H651 H 0.06943 0.54578 0.14256 0.0
C652 C 1.00282 0.43787 0.11898 0.0
C653 C 0.97636 0.43551 0.13064 0.0
C654 C 0.01314 0.4639 0.11172 0.0
C655 C 0.99745 0.48807 0.1167 0.0
C656 C 0.9699 0.48521 0.12601 0.0
C657 C 0.95938 0.4591 0.13268 0.0
C658 C 0.00565 0.56603 0.11975 0.0
C659 C 0.03204 0.56823 0.1316 0.0
C660 C 0.99535 0.54009 0.11214 0.0
C661 C 0.01098 0.51585 0.11695 0.0
C662 C 0.03844 0.51856 0.12655 0.0
C663 C 0.04894 0.54457 0.13357 0.0
H664 H 0.4474 0.94157 0.11422 0.0
H665 H 0.42842 0.02448 0.14227 0.0
H666 H 0.49357 0.95725 0.10052 0.0
H667 H 0.47448 0.03976 0.12977 0.0
H668 H 0.57803 0.98194 0.14076 0.0
H669 H 0.53173 0.9668 0.12902 0.0
H670 H 0.51213 0.04954 0.10068 0.0
H671 H 0.55861 0.06508 0.11361 0.0
C672 C 0.4529 0.96321 0.11705 0.0
C673 C 0.43466 0.98158 0.13008 0.0
C674 C 0.47933 0.9722 0.10923 0.0
C675 C 0.488 0.9996 0.11459 0.0
C676 C 0.46862 0.01855 0.12517 0.0
C677 C 0.44221 0.00965 0.13274 0.0
C678 C 0.56407 0.99685 0.13159 0.0
C679 C 0.57161 0.02493 0.12897 0.0
C680 C 0.53751 0.98804 0.12445 0.0
C681 C 0.51795 0.00708 0.11435 0.0
C682 C 0.52653 0.03452 0.10902 0.0
C683 C 0.55314 0.04342 0.11639 0.0
H684 H 0.01465 0.58461 0.93749 0.0
H685 H 0.93852 0.54445 0.91278 0.0
H686 H 0.03393 0.5397 0.95058 0.0
H687 H 0.95807 0.49956 0.92431 0.0
H688 H 0.99519 0.4197 0.93937 0.0
H689 H 0.97624 0.46492 0.95187 0.0
H690 H 0.05178 0.50429 0.92373 0.0
H691 H 0.07104 0.4591 0.9128 0.0
C692 C 1.00192 0.56616 0.93524 0.0
C693 C 0.97539 0.56778 0.92359 0.0
C694 C 0.01298 0.54044 0.94263 0.0
C695 C 0.99791 0.51586 0.93789 0.0
C696 C 0.97033 0.51794 0.92848 0.0
C697 C 0.9591 0.54372 0.92161 0.0
C698 C 0.00794 0.43806 0.93662 0.0
C699 C 0.03427 0.43612 0.92458 0.0
C700 C 0.99708 0.46396 0.94365 0.0
C701 C 0.0121 0.48839 0.93815 0.0
C702 C 0.03955 0.48604 0.92845 0.0
C703 C 0.05061 0.46008 0.92195 0.0
H704 H 0.3292 0.42776 0.35738 0.0
H705 H 0.27079 0.37236 0.31937 0.0
H706 H 0.36424 0.39113 0.35744 0.0
H707 H 0.3061 0.3359 0.31817 0.0
H708 H 0.36684 0.26773 0.34012 0.0
H709 H 0.33156 0.30359 0.34263 0.0
H710 H 0.39474 0.36634 0.33054 0.0
H711 H 0.43034 0.3305 0.33048 0.0
C712 C 0.32395 0.40772 0.34887 0.0
C713 C 0.29719 0.4028 0.33867 0.0
C714 C 0.34411 0.3867 0.3487 0.0
C715 C 0.33823 0.36035 0.33774 0.0
C716 C 0.31137 0.35561 0.32732 0.0
C717 C 0.29107 0.37654 0.32793 0.0
C718 C 0.37349 0.28912 0.33897 0.0
C719 C 0.40178 0.29607 0.33611 0.0
C720 C 0.35299 0.30985 0.33973 0.0
C721 C 0.36009 0.33812 0.33701 0.0
C722 C 0.38834 0.34496 0.33342 0.0
C723 C 0.40884 0.32428 0.33307 0.0
H724 H 0.32028 0.58911 0.7554 0.0
H725 H 0.28409 0.62698 0.68522 0.0
H726 H 0.35641 0.6244 0.75568 0.0
H727 H 0.31846 0.66359 0.68693 0.0
H728 H 0.40059 0.7098 0.67956 0.0
H729 H 0.36475 0.67402 0.67876 0.0
H730 H 0.36651 0.67055 0.76519 0.0
H731 H 0.40327 0.70551 0.76561 0.0
C732 C 0.31965 0.60522 0.74028 0.0
C733 C 0.29853 0.60544 0.72079 0.0
C734 C 0.34029 0.62574 0.74061 0.0
C735 C 0.34037 0.64728 0.72154 0.0
C736 C 0.31935 0.64737 0.70192 0.0
C737 C 0.29897 0.62658 0.70135 0.0
C738 C 0.39301 0.7016 0.69836 0.0
C739 C 0.40439 0.71069 0.72267 0.0
C740 C 0.3724 0.68104 0.69796 0.0
C741 C 0.36241 0.66928 0.72193 0.0
C742 C 0.37388 0.67861 0.74627 0.0
C743 C 0.39483 0.69882 0.74658 0.0
H744 H 0.62727 0.72423 0.37399 0.0
H745 H 0.58976 0.68953 0.30297 0.0
H746 H 0.66402 0.68998 0.37177 0.0
H747 H 0.62521 0.65348 0.30213 0.0
H748 H 0.70643 0.60688 0.29156 0.0
H749 H 0.67148 0.64369 0.29258 0.0
H750 H 0.67466 0.64361 0.37904 0.0
H751 H 0.71043 0.60772 0.37765 0.0
C752 C 0.62697 0.7097 0.35758 0.0
C753 C 0.60591 0.71054 0.33805 0.0
C754 C 0.64785 0.68939 0.3567 0.0
C755 C 0.64792 0.66882 0.33666 0.0
C756 C 0.62644 0.66927 0.31751 0.0
C757 C 0.60582 0.68985 0.31817 0.0
C758 C 0.69971 0.61496 0.31072 0.0
C759 C 0.71148 0.60484 0.33449 0.0
C760 C 0.67949 0.63593 0.31139 0.0
C761 C 0.67004 0.64686 0.33591 0.0
C762 C 0.68176 0.63637 0.35972 0.0
C763 C 0.70234 0.61574 0.35898 0.0
H764 H 0.68843 0.41836 0.75384 0.0
H765 H 0.72334 0.3811 0.68277 0.0
H766 H 0.65234 0.38298 0.75448 0.0
H767 H 0.68904 0.34443 0.68478 0.0
H768 H 0.60674 0.29833 0.67844 0.0
H769 H 0.64258 0.3341 0.67733 0.0
H770 H 0.64258 0.33664 0.7638 0.0
H771 H 0.60582 0.30166 0.76456 0.0
C772 C 0.68878 0.40236 0.73859 0.0
C773 C 0.70953 0.4023 0.71875 0.0
C774 C 0.66818 0.3818 0.73913 0.0
C775 C 0.66778 0.36042 0.71989 0.0
C776 C 0.68842 0.36052 0.69991 0.0
C777 C 0.70875 0.38134 0.69915 0.0
C778 C 0.61474 0.30628 0.69717 0.0
C779 C 0.60386 0.29694 0.72159 0.0
C780 C 0.63534 0.32685 0.69659 0.0
C781 C 0.6458 0.33837 0.72048 0.0
C782 C 0.63484 0.32876 0.74494 0.0
C783 C 0.61391 0.30854 0.74545 0.0
H784 H 0.8803 0.7831 0.87276 0.0
H785 H 0.9184 0.8183 0.80226 0.0
H786 H 0.84393 0.81778 0.87083 0.0
H787 H 0.88334 0.85472 0.80173 0.0
H788 H 0.80244 0.90211 0.79141 0.0
H789 H 0.8372 0.86512 0.79215 0.0
H790 H 0.83374 0.86419 0.87859 0.0
H791 H 0.79817 0.90029 0.87748 0.0
C792 C 0.88081 0.79784 0.85652 0.0
C793 C 0.90193 0.79702 0.83705 0.0
C794 C 0.86015 0.81839 0.85581 0.0
C795 C 0.86036 0.83921 0.83602 0.0
C796 C 0.8819 0.83877 0.81693 0.0
C797 C 0.90229 0.81796 0.81741 0.0
C798 C 0.80908 0.89381 0.81052 0.0
C799 C 0.79726 0.90369 0.83435 0.0
C800 C 0.82918 0.87272 0.81102 0.0
C801 C 0.83846 0.86141 0.83545 0.0
C802 C 0.82675 0.87171 0.85932 0.0
C803 C 0.8063 0.89247 0.85875 0.0
H804 H 0.77125 0.13406 0.23786 0.0
H805 H 0.82947 0.07846 0.19972 0.0
H806 H 0.80659 0.17044 0.23887 0.0
H807 H 0.86454 0.11501 0.19948 0.0
H808 H 0.9308 0.17548 0.22619 0.0
H809 H 0.89515 0.13974 0.22626 0.0
H810 H 0.83201 0.20266 0.2143 0.0
H811 H 0.86735 0.23842 0.21667 0.0
C812 C 0.79149 0.12982 0.22924 0.0
C813 C 0.79756 0.10352 0.21852 0.0
C814 C 0.81181 0.1507 0.22973 0.0
C815 C 0.83863 0.14588 0.21923 0.0
C816 C 0.84444 0.1195 0.20828 0.0
C817 C 0.82427 0.09853 0.20822 0.0
C818 C 0.9093 0.18175 0.22364 0.0
C819 C 0.90227 0.20998 0.2206 0.0
C820 C 0.88877 0.16113 0.22337 0.0
C821 C 0.86051 0.16805 0.21987 0.0
C822 C 0.85344 0.19634 0.21714 0.0
C823 C 0.87398 0.21701 0.21782 0.0
H824 H 0.13799 0.23554 0.83825 0.0
H825 H 0.07349 0.17326 0.83184 0.0
H826 H 0.17304 0.19912 0.84022 0.0
H827 H 0.10898 0.13684 0.83242 0.0
H828 H 0.18604 0.08522 0.80344 0.0
H829 H 0.15013 0.12125 0.80247 0.0
H830 H 0.18561 0.15873 0.87299 0.0
H831 H 0.22047 0.12217 0.87492 0.0
C832 C 0.13107 0.2142 0.83788 0.0
C833 C 0.10262 0.20749 0.83588 0.0
C834 C 0.15132 0.19327 0.83864 0.0
C835 C 0.14373 0.16514 0.83669 0.0
C836 C 0.11544 0.15837 0.83392 0.0
C837 C 0.09514 0.17928 0.83362 0.0
C838 C 0.18621 0.10109 0.81881 0.0
C839 C 0.20693 0.10114 0.83873 0.0
C840 C 0.1656 0.1217 0.81823 0.0
C841 C 0.16531 0.14299 0.83746 0.0
C842 C 0.18572 0.14292 0.85756 0.0
C843 C 0.20603 0.12205 0.85841 0.0
H844 H 0.21042 0.89787 0.17968 0.0
H845 H 0.20653 0.89873 0.26577 0.0
H846 H 0.17451 0.86218 0.17833 0.0
H847 H 0.17146 0.8621 0.26479 0.0
H848 H 0.08958 0.81671 0.25463 0.0
H849 H 0.12518 0.85253 0.25539 0.0
H850 H 0.16351 0.81595 0.18552 0.0
H851 H 0.12659 0.78196 0.18337 0.0
C852 C 0.20232 0.88989 0.19836 0.0
C853 C 0.21153 0.90074 0.22284 0.0
C854 C 0.18166 0.86937 0.19765 0.0
C855 C 0.16993 0.85895 0.22146 0.0
C856 C 0.17947 0.86982 0.24598 0.0
C857 C 0.19976 0.89068 0.24662 0.0
C858 C 0.10556 0.81632 0.23936 0.0
C859 C 0.10546 0.79567 0.21943 0.0
C860 C 0.12627 0.83677 0.23997 0.0
C861 C 0.14769 0.83713 0.22074 0.0
C862 C 0.14742 0.81661 0.20066 0.0
C863 C 0.12643 0.79644 0.19982 0.0
H864 H 0.13713 0.55805 0.34793 0.0
H865 H 0.18992 0.5218 0.28735 0.0
H866 H 0.12222 0.59368 0.31657 0.0
H867 H 0.17495 0.55782 0.2557 0.0
H868 H 0.10209 0.59495 0.20297 0.0
H869 H 0.13008 0.56633 0.23277 0.0
H870 H 0.13469 0.63421 0.2891 0.0
H871 H 0.10636 0.66296 0.25926 0.0
C872 C 0.14601 0.55802 0.32802 0.0
C873 C 0.16457 0.5369 0.32011 0.0
C874 C 0.13757 0.57863 0.31004 0.0
C875 C 0.14723 0.5786 0.28352 0.0
C876 C 0.16691 0.5583 0.27593 0.0
C877 C 0.17565 0.53779 0.29411 0.0
C878 C 0.10949 0.60404 0.22146 0.0
C879 C 0.10163 0.63121 0.22882 0.0
C880 C 0.12575 0.58762 0.23851 0.0
C881 C 0.13446 0.59783 0.26349 0.0
C882 C 0.12803 0.62558 0.27015 0.0
C883 C 0.11193 0.64213 0.25296 0.0
H884 H 0.55634 0.87494 0.70961 0.0
H885 H 0.52564 0.81759 0.76915 0.0
H886 H 0.59275 0.88999 0.74015 0.0
H887 H 0.56234 0.83276 0.79991 0.0
H888 H 0.59923 0.90449 0.85425 0.0
H889 H 0.56999 0.87716 0.82442 0.0
H890 H 0.6354 0.87706 0.76522 0.0
H891 H 0.66479 0.9046 0.79514 0.0
C892 C 0.55765 0.86516 0.72908 0.0
C893 C 0.53789 0.84518 0.73697 0.0
C894 C 0.57871 0.87369 0.74657 0.0
C895 C 0.58045 0.8627 0.77256 0.0
C896 C 0.56145 0.8418 0.78009 0.0
C897 C 0.54052 0.83298 0.76241 0.0
C898 C 0.60768 0.89816 0.83511 0.0
C899 C 0.63432 0.90701 0.82703 0.0
C900 C 0.59091 0.88233 0.81803 0.0
C901 C 0.60021 0.87511 0.79229 0.0
C902 C 0.62748 0.88254 0.7848 0.0
C903 C 0.64441 0.89816 0.80203 0.0
H904 H 0.87025 0.44778 0.34544 0.0
H905 H 0.8174 0.48333 0.28451 0.0
H906 H 0.88531 0.41193 0.31436 0.0
H907 H 0.83256 0.44712 0.25315 0.0
H908 H 0.90576 0.40932 0.201 0.0
H909 H 0.8777 0.43836 0.23039 0.0
H910 H 0.8724 0.37102 0.28727 0.0
H911 H 0.90074 0.34185 0.25783 0.0
C912 C 0.86142 0.44764 0.3255 0.0
C913 C 0.84276 0.46859 0.31742 0.0
C914 C 0.86994 0.4269 0.30769 0.0
C915 C 0.86027 0.42664 0.28117 0.0
C916 C 0.84058 0.44684 0.27339 0.0
C917 C 0.83174 0.46747 0.29139 0.0
C918 C 0.89815 0.40043 0.21951 0.0
C919 C 0.90583 0.37329 0.22715 0.0
C920 C 0.88188 0.4171 0.23633 0.0
C921 C 0.87299 0.40717 0.26135 0.0
C922 C 0.8792 0.37944 0.26827 0.0
C923 C 0.89529 0.36264 0.25131 0.0
H924 H 0.3927 0.11943 0.85876 0.0
H925 H 0.35302 0.0842 0.78939 0.0
H926 H 0.42164 0.1484 0.83018 0.0
H927 H 0.38355 0.11073 0.76049 0.0
H928 H 0.4377 0.16249 0.70907 0.0
H929 H 0.40087 0.14733 0.73916 0.0
H930 H 0.45967 0.14856 0.8049 0.0
H931 H 0.49517 0.1664 0.775 0.0
C932 C 0.39011 0.11808 0.83728 0.0
C933 C 0.37052 0.09971 0.82629 0.0
C934 C 0.40708 0.13437 0.82071 0.0
C935 C 0.4058 0.13187 0.7926 0.0
C936 C 0.38528 0.11404 0.7818 0.0
C937 C 0.36764 0.09855 0.79842 0.0
C938 C 0.44229 0.16025 0.73018 0.0
C939 C 0.46912 0.16584 0.73981 0.0
C940 C 0.4213 0.15104 0.74751 0.0
C941 C 0.42692 0.14592 0.7748 0.0
C942 C 0.45382 0.15252 0.78439 0.0
C943 C 0.47446 0.16272 0.76719 0.0
H944 H 0.16658 0.49619 0.77613 0.0
H945 H 0.16657 0.43809 0.71066 0.0
H946 H 0.14926 0.46034 0.80591 0.0
H947 H 0.15194 0.40102 0.74071 0.0
H948 H 0.0885 0.3519 0.78959 0.0
H949 H 0.1152 0.38276 0.76118 0.0
H950 H 0.1496 0.42257 0.83153 0.0
H951 H 0.12046 0.39321 0.85956 0.0
C952 C 0.16392 0.47529 0.76842 0.0
C953 C 0.16798 0.46984 0.74118 0.0
C954 C 0.15401 0.45446 0.78556 0.0
C955 C 0.14862 0.42729 0.77606 0.0
C956 C 0.15471 0.42161 0.74896 0.0
C957 C 0.16365 0.44276 0.73167 0.0
C958 C 0.1022 0.36696 0.7989 0.0
C959 C 0.10235 0.37018 0.82677 0.0
C960 C 0.11778 0.3848 0.78256 0.0
C961 C 0.13469 0.40591 0.79365 0.0
C962 C 0.13628 0.40753 0.82182 0.0
C963 C 0.11989 0.39032 0.83808 0.0
H964 H 0.45024 0.87203 0.34853 0.0
H965 H 0.48538 0.81838 0.28807 0.0
H966 H 0.4144 0.88699 0.31733 0.0
H967 H 0.44922 0.83346 0.2566 0.0
H968 H 0.41115 0.90575 0.20351 0.0
H969 H 0.44046 0.87835 0.2333 0.0
H970 H 0.37329 0.87383 0.29047 0.0
H971 H 0.34386 0.90145 0.26065 0.0
C972 C 0.45001 0.863 0.32869 0.0
C973 C 0.47084 0.84411 0.32079 0.0
C974 C 0.42929 0.87148 0.3108 0.0
C975 C 0.42893 0.86156 0.28436 0.0
C976 C 0.44902 0.84168 0.27676 0.0
C977 C 0.46962 0.83288 0.29485 0.0
C978 C 0.40236 0.89845 0.22219 0.0
C979 C 0.37516 0.9061 0.22974 0.0
C980 C 0.41918 0.88257 0.23924 0.0
C981 C 0.40937 0.87407 0.26444 0.0
C982 C 0.38162 0.88032 0.27134 0.0
C983 C 0.36467 0.896 0.25414 0.0
H984 H 0.8722 0.55681 0.70719 0.0
H985 H 0.8162 0.5239 0.76683 0.0
H986 H 0.88726 0.59265 0.73831 0.0
H987 H 0.83133 0.56006 0.79817 0.0
H988 H 0.9033 0.59612 0.85254 0.0
H989 H 0.87589 0.5675 0.82226 0.0
H990 H 0.87474 0.63436 0.76465 0.0
H991 H 0.9024 0.66313 0.79502 0.0
C992 C 0.86267 0.55755 0.72681 0.0
C993 C 0.84312 0.5373 0.73455 0.0
C994 C 0.87121 0.57827 0.74464 0.0
C995 C 0.86065 0.5792 0.77084 0.0
C996 C 0.84007 0.55979 0.77821 0.0
C997 C 0.83124 0.53919 0.76019 0.0
C998 C 0.89677 0.605 0.83365 0.0
C999 C 0.90534 0.63189 0.82616 0.0
C1000 C 0.88086 0.58858 0.81631 0.0
C1001 C 0.87327 0.59849 0.79089 0.0
C1002 C 0.8805 0.62596 0.78397 0.0
C1003 C 0.8962 0.64254 0.80147 0.0
H1004 H 0.55795 0.1349 0.34703 0.0
H1005 H 0.5225 0.1881 0.28635 0.0
H1006 H 0.59361 0.11967 0.31574 0.0
H1007 H 0.55848 0.17275 0.25481 0.0
H1008 H 0.66402 0.10511 0.25873 0.0
H1009 H 0.63463 0.13275 0.28861 0.0
H1010 H 0.56717 0.12772 0.23179 0.0
H1011 H 0.59641 0.10029 0.20199 0.0
C1012 C 0.55806 0.14375 0.32711 0.0
C1013 C 0.5372 0.16261 0.31919 0.0
C1014 C 0.57868 0.13513 0.30918 0.0
C1015 C 0.57892 0.14487 0.28268 0.0
C1016 C 0.55878 0.16467 0.27502 0.0
C1017 C 0.53828 0.17362 0.29315 0.0
C1018 C 0.64314 0.11045 0.25232 0.0
C1019 C 0.63254 0.1002 0.22802 0.0
C1020 C 0.62622 0.12614 0.26955 0.0
C1021 C 0.59841 0.13226 0.26275 0.0
C1022 C 0.58849 0.1236 0.23765 0.0
C1023 C 0.60527 0.1077 0.22058 0.0
H1024 H 0.59847 0.09709 0.70265 0.0
H1025 H 0.60469 0.16481 0.75907 0.0
H1026 H 0.62657 0.06794 0.73199 0.0
H1027 H 0.63291 0.13549 0.78849 0.0
H1028 H 0.63577 0.0585 0.84676 0.0
H1029 H 0.61988 0.09419 0.8158 0.0
H1030 H 0.67264 0.05987 0.75417 0.0
H1031 H 0.68871 0.02394 0.78539 0.0
C1032 C 0.60632 0.10598 0.72107 0.0
C1033 C 0.59907 0.13327 0.72857 0.0
C1034 C 0.62259 0.08926 0.73785 0.0
C1035 C 0.63183 0.09927 0.76272 0.0
C1036 C 0.62588 0.12705 0.76959 0.0
C1037 C 0.60985 0.14393 0.75262 0.0
C1038 C 0.64442 0.05882 0.82676 0.0
C1039 C 0.66341 0.03822 0.81854 0.0
C1040 C 0.63542 0.07944 0.80902 0.0
C1041 C 0.64487 0.07987 0.78243 0.0
C1042 C 0.6648 0.06 0.77447 0.0
C1043 C 0.67415 0.03953 0.79241 0.0
H1044 H 0.09627 0.4056 0.35527 0.0
H1045 H 0.16395 0.40116 0.29857 0.0
H1046 H 0.06719 0.37817 0.32537 0.0
H1047 H 0.13473 0.37351 0.2686 0.0
H1048 H 0.05815 0.37128 0.21008 0.0
H1049 H 0.0937 0.38651 0.24145 0.0
H1050 H 0.05869 0.33321 0.30221 0.0
H1051 H 0.02282 0.31786 0.27059 0.0
C1052 C 0.10519 0.39827 0.33666 0.0
C1053 C 0.13243 0.40588 0.32926 0.0
C1054 C 0.0885 0.38237 0.31954 0.0
C1055 C 0.09848 0.37382 0.29442 0.0
C1056 C 0.12626 0.38004 0.28766 0.0
C1057 C 0.1431 0.39574 0.30494 0.0
C1058 C 0.05826 0.36238 0.22998 0.0
C1059 C 0.03746 0.34345 0.23783 0.0
C1060 C 0.07882 0.37101 0.24796 0.0
C1061 C 0.07906 0.36121 0.27444 0.0
C1062 C 0.05899 0.34134 0.28202 0.0
C1063 C 0.03855 0.33239 0.26385 0.0
H1064 H 0.40479 0.84288 0.76336 0.0
H1065 H 0.40197 0.9083 0.70423 0.0
H1066 H 0.37725 0.87174 0.79383 0.0
H1067 H 0.37461 0.93698 0.73458 0.0
H1068 H 0.31478 0.97985 0.79089 0.0
H1069 H 0.33033 0.9435 0.75992 0.0
H1070 H 0.3897 0.91481 0.81859 0.0
H1071 H 0.37429 0.9509 0.84934 0.0
C1072 C 0.39775 0.8631 0.75659 0.0
C1073 C 0.40582 0.87332 0.7314 0.0
C1074 C 0.38214 0.87973 0.77414 0.0
C1075 C 0.37391 0.9068 0.76676 0.0
C1076 C 0.38039 0.91621 0.74089 0.0
C1077 C 0.39624 0.89976 0.72351 0.0
C1078 C 0.33072 0.9654 0.79737 0.0
C1079 C 0.3434 0.96844 0.82255 0.0
C1080 C 0.33977 0.94468 0.77956 0.0
C1081 C 0.36137 0.92628 0.7867 0.0
C1082 C 0.37286 0.92838 0.81247 0.0
C1083 C 0.36412 0.94925 0.83008 0.0
H1084 H 0.94967 0.63442 0.20918 0.0
H1085 H 0.9849 0.68758 0.26994 0.0
H1086 H 0.91395 0.61919 0.24037 0.0
H1087 H 0.94886 0.67223 0.3014 0.0
H1088 H 0.91101 0.59953 0.35405 0.0
H1089 H 0.94021 0.62714 0.3244 0.0
H1090 H 0.87289 0.63215 0.26742 0.0
H1091 H 0.84357 0.60433 0.2971 0.0
C1092 C 0.94948 0.64329 0.22909 0.0
C1093 C 0.9703 0.66212 0.23707 0.0
C1094 C 0.92883 0.63465 0.24697 0.0
C1095 C 0.92853 0.64436 0.27349 0.0
C1096 C 0.9486 0.66418 0.28119 0.0
C1097 C 0.96913 0.67314 0.2631 0.0
C1098 C 0.90217 0.60697 0.33545 0.0
C1099 C 0.87495 0.59941 0.32791 0.0
C1100 C 0.91893 0.62298 0.31847 0.0
C1101 C 0.90904 0.63168 0.29336 0.0
C1102 C 0.88129 0.62551 0.28647 0.0
C1103 C 0.86439 0.6097 0.3036 0.0
H1104 H 0.63818 0.94792 0.20948 0.0
H1105 H 0.69031 0.98469 0.27025 0.0
H1106 H 0.62322 0.91241 0.24092 0.0
H1107 H 0.6753 0.94878 0.30197 0.0
H1108 H 0.60233 0.91169 0.35445 0.0
H1109 H 0.63036 0.94024 0.32466 0.0
H1110 H 0.63559 0.87208 0.26868 0.0
H1111 H 0.60722 0.84341 0.2985 0.0
C1112 C 0.64691 0.94809 0.22946 0.0
C1113 C 0.66529 0.96932 0.23738 0.0
C1114 C 0.63844 0.92755 0.24748 0.0
C1115 C 0.6479 0.92775 0.27407 0.0
C1116 C 0.66742 0.94816 0.28169 0.0
C1117 C 0.67619 0.96861 0.26347 0.0
C1118 C 0.60987 0.90253 0.33603 0.0
C1119 C 0.60218 0.87529 0.32877 0.0
C1120 C 0.62615 0.91891 0.31899 0.0
C1121 C 0.63506 0.9086 0.29411 0.0
C1122 C 0.62879 0.8808 0.28755 0.0
C1123 C 0.61265 0.86429 0.30473 0.0
H1124 H 0.95273 0.37496 0.84732 0.0
H1125 H 0.98194 0.3161 0.78842 0.0
H1126 H 0.91659 0.39053 0.81665 0.0
H1127 H 0.94555 0.33182 0.75754 0.0
H1128 H 0.84413 0.40498 0.76154 0.0
H1129 H 0.87347 0.3778 0.79189 0.0
H1130 H 0.9387 0.37628 0.73254 0.0
H1131 H 0.90955 0.4033 0.70231 0.0
C1132 C 0.95116 0.36499 0.82796 0.0
C1133 C 0.9704 0.34438 0.8203 0.0
C1134 C 0.93026 0.37382 0.81041 0.0
C1135 C 0.92819 0.36253 0.78456 0.0
C1136 C 0.9467 0.34109 0.77724 0.0
C1137 C 0.96744 0.33196 0.79499 0.0
C1138 C 0.86447 0.39829 0.75473 0.0
C1139 C 0.87453 0.40655 0.72954 0.0
C1140 C 0.88137 0.38288 0.77221 0.0
C1141 C 0.90855 0.37504 0.76475 0.0
C1142 C 0.91785 0.38176 0.7389 0.0
C1143 C 0.90113 0.39742 0.72159 0.0
H1144 H 0.37013 0.05769 0.21169 0.0
H1145 H 0.31747 0.02222 0.27276 0.0
H1146 H 0.38514 0.09363 0.24267 0.0
H1147 H 0.33258 0.05852 0.30403 0.0
H1148 H 0.4057 0.09657 0.35603 0.0
H1149 H 0.37771 0.06741 0.32672 0.0
H1150 H 0.37217 0.13458 0.26968 0.0
H1151 H 0.40043 0.16387 0.29903 0.0
C1152 C 0.36133 0.05787 0.23164 0.0
C1153 C 0.34274 0.03691 0.23978 0.0
C1154 C 0.36982 0.07866 0.24939 0.0
C1155 C 0.36019 0.07896 0.27592 0.0
C1156 C 0.34056 0.05877 0.28378 0.0
C1157 C 0.33176 0.03808 0.26583 0.0
C1158 C 0.39806 0.10539 0.33749 0.0
C1159 C 0.40564 0.13252 0.32979 0.0
C1160 C 0.38182 0.08866 0.32072 0.0
C1161 C 0.37289 0.09851 0.29569 0.0
C1162 C 0.379 0.12622 0.28869 0.0
C1163 C 0.39506 0.14309 0.3056 0.0
H1164 H 0.02187 0.68767 0.78679 0.0
H1165 H 0.05718 0.63577 0.84856 0.0
H1166 H 0.05817 0.67198 0.75574 0.0
H1167 H 0.09323 0.62026 0.81778 0.0
H1168 H 0.09609 0.59788 0.70477 0.0
H1169 H 0.06671 0.6259 0.73395 0.0
H1170 H 0.13437 0.63331 0.7903 0.0
H1171 H 0.16393 0.60513 0.76102 0.0
C1172 C 0.03774 0.67347 0.79394 0.0
C1173 C 0.03651 0.66285 0.82012 0.0
C1174 C 0.05841 0.66431 0.7761 0.0
C1175 C 0.07857 0.64474 0.78421 0.0
C1176 C 0.07826 0.63551 0.81088 0.0
C1177 C 0.05744 0.64431 0.82852 0.0
C1178 C 0.10495 0.60592 0.72313 0.0
C1179 C 0.13235 0.59898 0.73063 0.0
C1180 C 0.0881 0.62217 0.73981 0.0
C1181 C 0.09808 0.63171 0.76459 0.0
C1182 C 0.12595 0.62605 0.77146 0.0
C1183 C 0.14296 0.61003 0.75459 0.0
H1184 H 0.20532 0.56374 0.57908 0.0
H1185 H 0.23388 0.48462 0.60874 0.0
H1186 H 0.21378 0.5484 0.5332 0.0
H1187 H 0.24248 0.46898 0.56276 0.0
H1188 H 0.19989 0.44253 0.48115 0.0
H1189 H 0.20892 0.45715 0.5271 0.0
H1190 H 0.24652 0.53287 0.49788 0.0
H1191 H 0.23736 0.51792 0.45175 0.0
C1192 C 0.21448 0.54344 0.57573 0.0
C1193 C 0.21936 0.52549 0.59734 0.0
C1194 C 0.2193 0.53457 0.54945 0.0
C1195 C 0.22871 0.50736 0.5442 0.0
C1196 C 0.23507 0.48998 0.56606 0.0
C1197 C 0.23047 0.49899 0.59238 0.0
C1198 C 0.21106 0.46177 0.4846 0.0
C1199 C 0.21828 0.47894 0.46301 0.0
C1200 C 0.21622 0.47023 0.51092 0.0
C1201 C 0.22836 0.49629 0.51627 0.0
C1202 C 0.23699 0.51277 0.49449 0.0
C1203 C 0.23206 0.50412 0.4681 0.0
H1204 H 0.56571 0.8073 0.48141 0.0
H1205 H 0.48986 0.77131 0.45129 0.0
H1206 H 0.5506 0.79826 0.52718 0.0
H1207 H 0.47453 0.76186 0.49721 0.0
H1208 H 0.52213 0.77473 0.60866 0.0
H1209 H 0.53833 0.76602 0.56289 0.0
H1210 H 0.45861 0.79316 0.53249 0.0
H1211 H 0.44265 0.80145 0.57815 0.0
C1212 C 0.54624 0.79645 0.48466 0.0
C1213 C 0.52906 0.78974 0.46292 0.0
C1214 C 0.53751 0.79125 0.5109 0.0
C1215 C 0.51121 0.77945 0.51601 0.0
C1216 C 0.49477 0.7712 0.49405 0.0
C1217 C 0.50364 0.77628 0.46775 0.0
C1218 C 0.50784 0.77776 0.59216 0.0
C1219 C 0.48107 0.78841 0.59683 0.0
C1220 C 0.51717 0.77313 0.56594 0.0
C1221 C 0.49988 0.77907 0.54388 0.0
C1222 C 0.47242 0.78798 0.54886 0.0
C1223 C 0.4632 0.79273 0.57503 0.0
H1224 H 0.77181 0.48279 0.44805 0.0
H1225 H 0.80002 0.56205 0.47754 0.0
H1226 H 0.76332 0.46722 0.49406 0.0
H1227 H 0.79186 0.54676 0.52342 0.0
H1228 H 0.80581 0.44028 0.57527 0.0
H1229 H 0.79626 0.45501 0.52947 0.0
H1230 H 0.7606 0.53153 0.55919 0.0
H1231 H 0.77052 0.51656 0.60514 0.0
C1232 C 0.77513 0.49722 0.46438 0.0
C1233 C 0.78614 0.52373 0.45935 0.0
C1234 C 0.77064 0.48824 0.49073 0.0
C1235 C 0.77708 0.50564 0.51256 0.0
C1236 C 0.78628 0.53289 0.50723 0.0
C1237 C 0.79093 0.54173 0.48093 0.0
C1238 C 0.79503 0.45978 0.57197 0.0
C1239 C 0.78864 0.47718 0.59364 0.0
C1240 C 0.78953 0.46829 0.54572 0.0
C1241 C 0.77776 0.49458 0.54052 0.0
C1242 C 0.76988 0.51127 0.56242 0.0
C1243 C 0.77525 0.50262 0.58874 0.0
H1244 H 0.44217 0.20453 0.47909 0.0
H1245 H 0.5204 0.2365 0.45045 0.0
H1246 H 0.4565 0.21347 0.52513 0.0
H1247 H 0.53499 0.24578 0.49663 0.0
H1248 H 0.48431 0.23655 0.60707 0.0
H1249 H 0.46963 0.24563 0.56088 0.0
H1250 H 0.54833 0.21369 0.53241 0.0
H1251 H 0.56276 0.20495 0.57846 0.0
C1252 C 0.46202 0.21454 0.48271 0.0
C1253 C 0.48006 0.22015 0.46132 0.0
C1254 C 0.47031 0.21966 0.50909 0.0
C1255 C 0.49702 0.23022 0.51471 0.0
C1256 C 0.51439 0.23742 0.49307 0.0
C1257 C 0.50596 0.23245 0.46662 0.0
C1258 C 0.49876 0.23252 0.5909 0.0
C1259 C 0.52477 0.22042 0.59622 0.0
C1260 C 0.49029 0.23739 0.56444 0.0
C1261 C 0.5077 0.23025 0.54281 0.0
C1262 C 0.53448 0.21983 0.54844 0.0
C1263 C 0.54282 0.21482 0.57483 0.0
H1264 H 0.73212 0.02491 0.94824 0.0
H1265 H 0.7106 0.94359 0.97779 0.0
H1266 H 0.74052 0.04081 0.99415 0.0
H1267 H 0.71875 0.95921 1.02362 0.0
H1268 H 0.69768 0.06385 0.07632 0.0
H1269 H 0.70716 0.05006 0.03025 0.0
H1270 H 0.75015 0.97687 0.05875 0.0
H1271 H 0.74043 0.99095 0.10503 0.0
C1272 C 0.73023 0.01019 0.96455 0.0
C1273 C 0.72111 0.98296 0.95958 0.0
C1274 C 0.7347 0.01933 0.99084 0.0
C1275 C 0.73014 1.00137 1.01268 0.0
C1276 C 0.72284 0.97354 1.00739 0.0
C1277 C 0.7182 0.96452 0.98114 0.0
C1278 C 0.71005 0.04538 0.07267 0.0
C1279 C 0.7186 0.02861 0.09412 0.0
C1280 C 0.7155 0.03741 0.04628 0.0
C1281 C 0.72933 0.01224 0.04069 0.0
C1282 C 0.73929 0.99627 0.06231 0.0
C1283 C 0.73403 0.00444 0.0888 0.0
H1284 H 0.06544 0.30075 0.97943 0.0
H1285 H 0.98683 0.27085 0.94968 0.0
H1286 H 0.05028 0.29195 1.02524 0.0
H1287 H 0.97142 0.26167 0.99562 0.0
H1288 H 0.94348 0.30248 0.07735 0.0
H1289 H 0.95828 0.29363 0.03144 0.0
H1290 H 0.03598 0.26 0.06067 0.0
H1291 H 0.02093 0.26921 0.10673 0.0
C1292 C 0.04528 0.29126 0.98275 0.0
C1293 C 0.02739 0.28621 0.96112 0.0
C1294 C 0.03652 0.2862 1.00901 0.0
C1295 C 0.0095 0.27623 1.01425 0.0
C1296 C 0.99225 0.26959 0.99236 0.0
C1297 C 1.00113 0.27451 0.96605 0.0
C1298 C 0.96325 0.29221 0.07391 0.0
C1299 C 0.98095 0.28622 0.09548 0.0
C1300 C 0.97181 0.28714 0.0476 0.0
C1301 C 0.99846 0.27624 0.04223 0.0
C1302 C 0.01545 0.26865 0.06403 0.0
C1303 C 0.00675 0.27358 0.09041 0.0
H1304 H 0.30137 0.9431 0.07972 0.0
H1305 H 0.2713 0.0218 0.10902 0.0
H1306 H 0.29311 0.95818 0.0338 0.0
H1307 H 0.26268 0.03715 0.06296 0.0
H1308 H 0.27125 0.98774 0.95198 0.0
H1309 H 0.26172 0.97261 0.99794 0.0
H1310 H 0.29524 0.05008 1.02756 0.0
H1311 H 0.30437 0.06499 0.98173 0.0
C1312 C 0.29187 0.96323 0.07627 0.0
C1313 C 0.28658 0.98114 0.09782 0.0
C1314 C 0.28716 0.97196 0.04995 0.0
C1315 C 0.27737 0.999 0.04455 0.0
C1316 C 0.27046 0.01629 0.06634 0.0
C1317 C 0.27503 0.00743 0.09272 0.0
C1318 C 0.27561 1.00182 0.96836 0.0
C1319 C 0.28829 0.0276 0.96342 0.0
C1320 C 0.27046 0.99309 0.99468 0.0
C1321 C 0.27785 0.01002 1.01657 0.0
C1322 C 0.2889 0.03659 1.01133 0.0
C1323 C 0.29417 0.0452 0.98507 0.0
H1324 H 0.0184 0.73307 0.94946 0.0
H1325 H 0.94096 0.70125 0.9802 0.0
H1326 H 0.03445 0.74207 0.99524 0.0
H1327 H 0.95676 0.70994 1.02585 0.0
H1328 H 0.06451 0.70117 0.07631 0.0
H1329 H 0.04874 0.70984 0.03064 0.0
H1330 H 0.97107 0.74222 0.0612 0.0
H1331 H 0.98711 0.73324 0.10699 0.0
C1332 C 0.00447 0.72895 0.96603 0.0
C1333 C 0.97836 0.71678 0.96141 0.0
C1334 C 0.01373 0.73378 0.99224 0.0
C1335 C 0.997 0.72658 1.01433 0.0
C1336 C 0.9701 0.71611 1.00944 0.0
C1337 C 0.96098 0.71113 0.98329 0.0
C1338 C 0.04452 0.71111 0.0732 0.0
C1339 C 0.02714 0.71685 0.09507 0.0
C1340 C 0.03541 0.71608 0.04704 0.0
C1341 C 0.00851 0.7266 0.04213 0.0
C1342 C 0.99179 0.73388 0.06421 0.0
C1343 C 1.00104 0.72908 0.09043 0.0
loop_
_geom_bond_atom_site_label_1
_geom_bond_atom_site_label_2
_geom_bond_distance
_geom_bond_site_symmetry_2
_ccdc_geom_bond_type
Co0 O3 1.970 . S
Co0 N17 1.989 . S
Co0 O25 1.967 . S
Co0 O32 1.920 . S
Co1 O4 1.966 . S
Co1 N10 2.022 . S
Co1 N18 1.993 . S
Co1 O26 1.941 . S
C2 O3 1.258 . S
C2 O4 1.263 . S
O3 Co0 1.970 . S
O3 C2 1.258 . S
O4 Co1 1.966 . S
O4 C2 1.263 . S
C5 O6 1.235 . S
C5 O32 1.289 . S
O6 C5 1.235 . S
C7 C9 1.400 . S
C7 N10 1.351 . S
C7 C12 1.501 . S
C8 C9 1.387 . S
C8 N11 1.341 . S
C9 C7 1.400 . S
C9 C8 1.387 . S
N10 Co1 2.022 . S
N10 C7 1.351 . S
N10 N11 1.365 . S
N11 C8 1.341 . S
N11 N10 1.365 . S
N11 H31 0.862 . S
C12 C7 1.501 . S
C12 H13 0.961 . S
C12 H14 0.961 . S
C12 H15 0.960 . S
H13 C12 0.961 . S
H14 C12 0.961 . S
H15 C12 0.960 . S
C16 N17 1.342 . S
C16 C20 1.401 . S
C16 C21 1.499 . S
N17 Co0 1.989 . S
N17 C16 1.342 . S
N17 N18 1.388 . S
N18 Co1 1.993 . S
N18 N17 1.388 . S
N18 C19 1.346 . S
C19 N18 1.346 . S
C19 C20 1.396 . S
C19 C29 1.510 . S
C20 C16 1.401 . S
C20 C19 1.396 . S
C21 C16 1.499 . S
C21 H22 0.959 . S
C21 H23 0.960 . S
C21 H24 0.961 . S
H22 C21 0.959 . S
H23 C21 0.960 . S
H24 C21 0.961 . S
O25 Co0 1.967 . S
O25 C33 1.258 . S
O26 Co1 1.941 . S
O26 C33 1.266 . S
H27 C29 0.959 . S
H28 C29 0.961 . S
C29 C19 1.510 . S
C29 H27 0.959 . S
C29 H28 0.961 . S
C29 H30 0.960 . S
H30 C29 0.960 . S
H31 N11 0.862 . S
O32 Co0 1.920 . S
O32 C5 1.289 . S
C33 O25 1.258 . S
C33 O26 1.266 . S
Co34 O37 1.970 . S
Co34 N51 1.989 . S
Co34 O59 1.967 . S
Co34 O66 1.920 . S
Co35 O38 1.966 . S
Co35 N44 2.022 . S
Co35 N52 1.993 . S
Co35 O60 1.941 . S
C36 O37 1.258 . S
C36 O38 1.263 . S
O37 Co34 1.970 . S
O37 C36 1.258 . S
O38 Co35 1.966 . S
O38 C36 1.263 . S
C39 O40 1.235 . S
C39 O66 1.289 . S
O40 C39 1.235 . S
C41 C43 1.400 . S
C41 N44 1.351 . S
C41 C46 1.501 . S
C42 C43 1.387 . S
C42 N45 1.341 . S
C43 C41 1.400 . S
C43 C42 1.387 . S
N44 Co35 2.022 . S
N44 C41 1.351 . S
N44 N45 1.365 . S
N45 C42 1.341 . S
N45 N44 1.365 . S
N45 H65 0.862 . S
C46 C41 1.501 . S
C46 H47 0.961 . S
C46 H48 0.961 . S
C46 H49 0.960 . S
H47 C46 0.961 . S
H48 C46 0.961 . S
H49 C46 0.960 . S
C50 N51 1.342 . S
C50 C54 1.401 . S
C50 C55 1.499 . S
N51 Co34 1.989 . S
N51 C50 1.342 . S
N51 N52 1.388 . S
N52 Co35 1.993 . S
N52 N51 1.388 . S
N52 C53 1.346 . S
C53 N52 1.346 . S
C53 C54 1.396 . S
C53 C63 1.510 . S
C54 C50 1.401 . S
C54 C53 1.396 . S
C55 C50 1.499 . S
C55 H56 0.959 . S
C55 H57 0.960 . S
C55 H58 0.961 . S
H56 C55 0.959 . S
H57 C55 0.960 . S
H58 C55 0.961 . S
O59 Co34 1.967 . S
O59 C67 1.258 . S
O60 Co35 1.941 . S
O60 C67 1.266 . S
H61 C63 0.959 . S
H62 C63 0.961 . S
C63 C53 1.510 . S
C63 H61 0.959 . S
C63 H62 0.961 . S
C63 H64 0.960 . S
H64 C63 0.960 . S
H65 N45 0.862 . S
O66 Co34 1.920 . S
O66 C39 1.289 . S
C67 O59 1.258 . S
C67 O60 1.266 . S
Co68 O71 1.970 . S
Co68 N85 1.989 . S
Co68 O93 1.967 . S
Co68 O100 1.920 . S
Co69 O72 1.966 . S
Co69 N78 2.022 . S
Co69 N86 1.993 . S
Co69 O94 1.941 . S
C70 O71 1.258 . S
C70 O72 1.263 . S
O71 Co68 1.970 . S
O71 C70 1.258 . S
O72 Co69 1.966 . S
O72 C70 1.263 . S
C73 O74 1.235 . S
C73 O100 1.289 . S
O74 C73 1.235 . S
C75 C77 1.400 . S
C75 N78 1.351 . S
C75 C80 1.501 . S
C76 C77 1.387 . S
C76 N79 1.341 . S
C77 C75 1.400 . S
C77 C76 1.387 . S
N78 Co69 2.022 . S
N78 C75 1.351 . S
N78 N79 1.365 . S
N79 C76 1.341 . S
N79 N78 1.365 . S
N79 H99 0.862 . S
C80 C75 1.501 . S
C80 H81 0.961 . S
C80 H82 0.961 . S
C80 H83 0.960 . S
H81 C80 0.961 . S
H82 C80 0.961 . S
H83 C80 0.960 . S
C84 N85 1.342 . S
C84 C88 1.401 . S
C84 C89 1.499 . S
N85 Co68 1.989 . S
N85 C84 1.342 . S
N85 N86 1.388 . S
N86 Co69 1.993 . S
N86 N85 1.388 . S
N86 C87 1.346 . S
C87 N86 1.346 . S
C87 C88 1.396 . S
C87 C97 1.510 . S
C88 C84 1.401 . S
C88 C87 1.396 . S
C89 C84 1.499 . S
C89 H90 0.959 . S
C89 H91 0.960 . S
C89 H92 0.961 . S
H90 C89 0.959 . S
H91 C89 0.960 . S
H92 C89 0.961 . S
O93 Co68 1.967 . S
O93 C101 1.258 . S
O94 Co69 1.941 . S
O94 C101 1.266 . S
H95 C97 0.959 . S
H96 C97 0.961 . S
C97 C87 1.510 . S
C97 H95 0.959 . S
C97 H96 0.961 . S
C97 H98 0.960 . S
H98 C97 0.960 . S
H99 N79 0.862 . S
O100 Co68 1.920 . S
O100 C73 1.289 . S
C101 O93 1.258 . S
C101 O94 1.266 . S
Co102 O105 1.970 . S
Co102 N119 1.989 . S
Co102 O127 1.967 . S
Co102 O134 1.920 . S
Co103 O106 1.966 . S
Co103 N112 2.022 . S
Co103 N120 1.993 . S
Co103 O128 1.941 . S
C104 O105 1.258 . S
C104 O106 1.263 . S
O105 Co102 1.970 . S
O105 C104 1.258 . S
O106 Co103 1.966 . S
O106 C104 1.263 . S
C107 O108 1.235 . S
C107 O134 1.289 . S
O108 C107 1.235 . S
C109 C111 1.400 . S
C109 N112 1.351 . S
C109 C114 1.501 . S
C110 C111 1.387 . S
C110 N113 1.341 . S
C111 C109 1.400 . S
C111 C110 1.387 . S
N112 Co103 2.022 . S
N112 C109 1.351 . S
N112 N113 1.365 . S
N113 C110 1.341 . S
N113 N112 1.365 . S
N113 H133 0.862 . S
C114 C109 1.501 . S
C114 H115 0.961 . S
C114 H116 0.961 . S
C114 H117 0.960 . S
H115 C114 0.961 . S
H116 C114 0.961 . S
H117 C114 0.960 . S
C118 N119 1.342 . S
C118 C122 1.401 . S
C118 C123 1.499 . S
N119 Co102 1.989 . S
N119 C118 1.342 . S
N119 N120 1.388 . S
N120 Co103 1.993 . S
N120 N119 1.388 . S
N120 C121 1.346 . S
C121 N120 1.346 . S
C121 C122 1.396 . S
C121 C131 1.510 . S
C122 C118 1.401 . S
C122 C121 1.396 . S
C123 C118 1.499 . S
C123 H124 0.959 . S
C123 H125 0.960 . S
C123 H126 0.961 . S
H124 C123 0.959 . S
H125 C123 0.960 . S
H126 C123 0.961 . S
O127 Co102 1.967 . S
O127 C135 1.258 . S
O128 Co103 1.941 . S
O128 C135 1.266 . S
H129 C131 0.959 . S
H130 C131 0.961 . S
C131 C121 1.510 . S
C131 H129 0.959 . S
C131 H130 0.961 . S
C131 H132 0.960 . S
H132 C131 0.960 . S
H133 N113 0.862 . S
O134 Co102 1.920 . S
O134 C107 1.289 . S
C135 O127 1.258 . S
C135 O128 1.266 . S
Co136 O139 1.970 . S
Co136 N153 1.989 . S
Co136 O161 1.967 . S
Co136 O168 1.920 . S
Co137 O140 1.966 . S
Co137 N146 2.022 . S
Co137 N154 1.993 . S
Co137 O162 1.941 . S
C138 O139 1.258 . S
C138 O140 1.263 . S
O139 Co136 1.970 . S
O139 C138 1.258 . S
O140 Co137 1.966 . S
O140 C138 1.263 . S
C141 O142 1.235 . S
C141 O168 1.289 . S
O142 C141 1.235 . S
C143 C145 1.400 . S
C143 N146 1.351 . S
C143 C148 1.501 . S
C144 C145 1.387 . S
C144 N147 1.341 . S
C145 C143 1.400 . S
C145 C144 1.387 . S
N146 Co137 2.022 . S
N146 C143 1.351 . S
N146 N147 1.365 . S
N147 C144 1.341 . S
N147 N146 1.365 . S
N147 H167 0.862 . S
C148 C143 1.501 . S
C148 H149 0.961 . S
C148 H150 0.961 . S
C148 H151 0.960 . S
H149 C148 0.961 . S
H150 C148 0.961 . S
H151 C148 0.960 . S
C152 N153 1.342 . S
C152 C156 1.401 . S
C152 C157 1.499 . S
N153 Co136 1.989 . S
N153 C152 1.342 . S
N153 N154 1.388 . S
N154 Co137 1.993 . S
N154 N153 1.388 . S
N154 C155 1.346 . S
C155 N154 1.346 . S
C155 C156 1.396 . S
C155 C165 1.510 . S
C156 C152 1.401 . S
C156 C155 1.396 . S
C157 C152 1.499 . S
C157 H158 0.959 . S
C157 H159 0.960 . S
C157 H160 0.961 . S
H158 C157 0.959 . S
H159 C157 0.960 . S
H160 C157 0.961 . S
O161 Co136 1.967 . S
O161 C169 1.258 . S
O162 Co137 1.941 . S
O162 C169 1.266 . S
H163 C165 0.959 . S
H164 C165 0.961 . S
C165 C155 1.510 . S
C165 H163 0.959 . S
C165 H164 0.961 . S
C165 H166 0.960 . S
H166 C165 0.960 . S
H167 N147 0.862 . S
O168 Co136 1.920 . S
O168 C141 1.289 . S
C169 O161 1.258 . S
C169 O162 1.266 . S
Co170 O173 1.970 . S
Co170 N187 1.989 . S
Co170 O195 1.967 . S
Co170 O202 1.920 . S
Co171 O174 1.966 . S
Co171 N180 2.022 . S
Co171 N188 1.993 . S
Co171 O196 1.941 . S
C172 O173 1.258 . S
C172 O174 1.263 . S
O173 Co170 1.970 . S
O173 C172 1.258 . S
O174 Co171 1.966 . S
O174 C172 1.263 . S
C175 O176 1.235 . S
C175 O202 1.289 . S
O176 C175 1.235 . S
C177 C179 1.400 . S
C177 N180 1.351 . S
C177 C182 1.501 . S
C178 C179 1.387 . S
C178 N181 1.341 . S
C179 C177 1.400 . S
C179 C178 1.387 . S
N180 Co171 2.022 . S
N180 C177 1.351 . S
N180 N181 1.365 . S
N181 C178 1.341 . S
N181 N180 1.365 . S
N181 H201 0.862 . S
C182 C177 1.501 . S
C182 H183 0.961 . S
C182 H184 0.961 . S
C182 H185 0.960 . S
H183 C182 0.961 . S
H184 C182 0.961 . S
H185 C182 0.960 . S
C186 N187 1.342 . S
C186 C190 1.401 . S
C186 C191 1.499 . S
N187 Co170 1.989 . S
N187 C186 1.342 . S
N187 N188 1.388 . S
N188 Co171 1.993 . S
N188 N187 1.388 . S
N188 C189 1.346 . S
C189 N188 1.346 . S
C189 C190 1.396 . S
C189 C199 1.510 . S
C190 C186 1.401 . S
C190 C189 1.396 . S
C191 C186 1.499 . S
C191 H192 0.959 . S
C191 H193 0.960 . S
C191 H194 0.961 . S
H192 C191 0.959 . S
H193 C191 0.960 . S
H194 C191 0.961 . S
O195 Co170 1.967 . S
O195 C203 1.258 . S
O196 Co171 1.941 . S
O196 C203 1.266 . S
H197 C199 0.959 . S
H198 C199 0.961 . S
C199 C189 1.510 . S
C199 H197 0.959 . S
C199 H198 0.961 . S
C199 H200 0.960 . S
H200 C199 0.960 . S
H201 N181 0.862 . S
O202 Co170 1.920 . S
O202 C175 1.289 . S
C203 O195 1.258 . S
C203 O196 1.266 . S
Co204 O207 1.970 . S
Co204 N221 1.989 . S
Co204 O229 1.967 . S
Co204 O236 1.920 . S
Co205 O208 1.966 . S
Co205 N214 2.022 . S
Co205 N222 1.993 . S
Co205 O230 1.941 . S
C206 O207 1.258 . S
C206 O208 1.263 . S
O207 Co204 1.970 . S
O207 C206 1.258 . S
O208 Co205 1.966 . S
O208 C206 1.263 . S
C209 O210 1.235 . S
C209 O236 1.289 . S
O210 C209 1.235 . S
C211 C213 1.400 . S
C211 N214 1.351 . S
C211 C216 1.501 . S
C212 C213 1.387 . S
C212 N215 1.341 . S
C213 C211 1.400 . S
C213 C212 1.387 . S
N214 Co205 2.022 . S
N214 C211 1.351 . S
N214 N215 1.365 . S
N215 C212 1.341 . S
N215 N214 1.365 . S
N215 H235 0.862 . S
C216 C211 1.501 . S
C216 H217 0.961 . S
C216 H218 0.961 . S
C216 H219 0.960 . S
H217 C216 0.961 . S
H218 C216 0.961 . S
H219 C216 0.960 . S
C220 N221 1.342 . S
C220 C224 1.401 . S
C220 C225 1.499 . S
N221 Co204 1.989 . S
N221 C220 1.342 . S
N221 N222 1.388 . S
N222 Co205 1.993 . S
N222 N221 1.388 . S
N222 C223 1.346 . S
C223 N222 1.346 . S
C223 C224 1.396 . S
C223 C233 1.510 . S
C224 C220 1.401 . S
C224 C223 1.396 . S
C225 C220 1.499 . S
C225 H226 0.959 . S
C225 H227 0.960 . S
C225 H228 0.961 . S
H226 C225 0.959 . S
H227 C225 0.960 . S
H228 C225 0.961 . S
O229 Co204 1.967 . S
O229 C237 1.258 . S
O230 Co205 1.941 . S
O230 C237 1.266 . S
H231 C233 0.959 . S
H232 C233 0.961 . S
C233 C223 1.510 . S
C233 H231 0.959 . S
C233 H232 0.961 . S
C233 H234 0.960 . S
H234 C233 0.960 . S
H235 N215 0.862 . S
O236 Co204 1.920 . S
O236 C209 1.289 . S
C237 O229 1.258 . S
C237 O230 1.266 . S
Co238 O241 1.970 . S
Co238 N255 1.989 . S
Co238 O263 1.967 . S
Co238 O270 1.920 . S
Co239 O242 1.966 . S
Co239 N248 2.022 . S
Co239 N256 1.993 . S
Co239 O264 1.941 . S
C240 O241 1.258 . S
C240 O242 1.263 . S
O241 Co238 1.970 . S
O241 C240 1.258 . S
O242 Co239 1.966 . S
O242 C240 1.263 . S
C243 O244 1.235 . S
C243 O270 1.289 . S
O244 C243 1.235 . S
C245 C247 1.400 . S
C245 N248 1.351 . S
C245 C250 1.501 . S
C246 C247 1.387 . S
C246 N249 1.341 . S
C247 C245 1.400 . S
C247 C246 1.387 . S
N248 Co239 2.022 . S
N248 C245 1.351 . S
N248 N249 1.365 . S
N249 C246 1.341 . S
N249 N248 1.365 . S
N249 H269 0.862 . S
C250 C245 1.501 . S
C250 H251 0.961 . S
C250 H252 0.961 . S
C250 H253 0.960 . S
H251 C250 0.961 . S
H252 C250 0.961 . S
H253 C250 0.960 . S
C254 N255 1.342 . S
C254 C258 1.401 . S
C254 C259 1.499 . S
N255 Co238 1.989 . S
N255 C254 1.342 . S
N255 N256 1.388 . S
N256 Co239 1.993 . S
N256 N255 1.388 . S
N256 C257 1.346 . S
C257 N256 1.346 . S
C257 C258 1.396 . S
C257 C267 1.510 . S
C258 C254 1.401 . S
C258 C257 1.396 . S
C259 C254 1.499 . S
C259 H260 0.959 . S
C259 H261 0.960 . S
C259 H262 0.961 . S
H260 C259 0.959 . S
H261 C259 0.960 . S
H262 C259 0.961 . S
O263 Co238 1.967 . S
O263 C271 1.258 . S
O264 Co239 1.941 . S
O264 C271 1.266 . S
H265 C267 0.959 . S
H266 C267 0.961 . S
C267 C257 1.510 . S
C267 H265 0.959 . S
C267 H266 0.961 . S
C267 H268 0.960 . S
H268 C267 0.960 . S
H269 N249 0.862 . S
O270 Co238 1.920 . S
O270 C243 1.289 . S
C271 O263 1.258 . S
C271 O264 1.266 . S
Co272 O275 1.970 . S
Co272 N289 1.989 . S
Co272 O297 1.967 1_565 S
Co272 O304 1.937 . S
Co273 O276 1.966 . S
Co273 N282 2.022 . S
Co273 N290 1.993 . S
Co273 O298 1.941 . S
C274 O275 1.258 . S
C274 O276 1.263 . S
O275 Co272 1.970 . S
O275 C274 1.258 . S
O276 Co273 1.966 . S
O276 C274 1.263 . S
C277 O278 1.235 . S
C277 O304 1.303 . S
O278 C277 1.235 . S
C279 C281 1.400 . S
C279 N282 1.351 . S
C279 C284 1.501 . S
C280 C281 1.387 . S
C280 N283 1.341 . S
C281 C279 1.400 . S
C281 C280 1.387 . S
N282 Co273 2.022 . S
N282 C279 1.351 . S
N282 N283 1.365 . S
N283 C280 1.341 . S
N283 N282 1.365 . S
N283 H303 0.862 . S
C284 C279 1.501 . S
C284 H285 0.961 . S
C284 H286 0.961 . S
C284 H287 0.960 . S
H285 C284 0.961 . S
H286 C284 0.961 . S
H287 C284 0.960 . S
C288 N289 1.342 . S
C288 C292 1.401 . S
C288 C293 1.499 . S
N289 Co272 1.989 . S
N289 C288 1.342 . S
N289 N290 1.388 . S
N290 Co273 1.993 . S
N290 N289 1.388 . S
N290 C291 1.346 . S
C291 N290 1.346 . S
C291 C292 1.396 . S
C291 C301 1.510 . S
C292 C288 1.401 . S
C292 C291 1.396 . S
C293 C288 1.499 . S
C293 H294 0.959 1_565 S
C293 H295 0.960 . S
C293 H296 0.961 1_565 S
H294 C293 0.959 1_545 S
H295 C293 0.960 . S
H296 C293 0.961 1_545 S
O297 Co272 1.967 1_545 S
O297 C305 1.258 . S
O298 Co273 1.941 . S
O298 C305 1.266 1_565 S
H299 C301 0.959 . S
H300 C301 0.961 . S
C301 C291 1.510 . S
C301 H299 0.959 . S
C301 H300 0.961 . S
C301 H302 0.960 . S
H302 C301 0.960 . S
H303 N283 0.862 . S
O304 Co272 1.937 . S
O304 C277 1.303 . S
C305 O297 1.258 . S
C305 O298 1.266 1_545 S
Co306 O309 1.970 . S
Co306 N323 1.989 . S
Co306 O331 1.967 1_655 S
Co306 O338 1.937 . S
Co307 O310 1.966 . S
Co307 N316 2.022 . S
Co307 N324 1.993 . S
Co307 O332 1.941 . S
C308 O309 1.258 . S
C308 O310 1.263 . S
O309 Co306 1.970 . S
O309 C308 1.258 . S
O310 Co307 1.966 . S
O310 C308 1.263 . S
C311 O312 1.235 . S
C311 O338 1.303 . S
O312 C311 1.235 . S
C313 C315 1.400 . S
C313 N316 1.351 . S
C313 C318 1.501 . S
C314 C315 1.387 . S
C314 N317 1.341 . S
C315 C313 1.400 . S
C315 C314 1.387 . S
N316 Co307 2.022 . S
N316 C313 1.351 . S
N316 N317 1.365 . S
N317 C314 1.341 . S
N317 N316 1.365 . S
N317 H337 0.862 . S
C318 C313 1.501 . S
C318 H319 0.961 . S
C318 H320 0.961 . S
C318 H321 0.960 . S
H319 C318 0.961 . S
H320 C318 0.961 . S
H321 C318 0.960 . S
C322 N323 1.342 . S
C322 C326 1.401 . S
C322 C327 1.499 . S
N323 Co306 1.989 . S
N323 C322 1.342 . S
N323 N324 1.388 . S
N324 Co307 1.993 . S
N324 N323 1.388 . S
N324 C325 1.346 . S
C325 N324 1.346 . S
C325 C326 1.396 . S
C325 C335 1.510 . S
C326 C322 1.401 . S
C326 C325 1.396 . S
C327 C322 1.499 . S
C327 H328 0.959 1_655 S
C327 H329 0.960 . S
C327 H330 0.961 1_655 S
H328 C327 0.959 1_455 S
H329 C327 0.960 . S
H330 C327 0.961 1_455 S
O331 Co306 1.967 1_455 S
O331 C339 1.258 . S
O332 Co307 1.941 . S
O332 C339 1.266 1_655 S
H333 C335 0.959 . S
H334 C335 0.961 . S
C335 C325 1.510 . S
C335 H333 0.959 . S
C335 H334 0.961 . S
C335 H336 0.960 . S
H336 C335 0.960 . S
H337 N317 0.862 . S
O338 Co306 1.937 . S
O338 C311 1.303 . S
C339 O331 1.258 . S
C339 O332 1.266 1_455 S
Co340 O343 1.970 . S
Co340 N357 1.989 . S
Co340 O365 1.967 1_545 S
Co340 O372 1.937 . S
Co341 O344 1.966 . S
Co341 N350 2.022 . S
Co341 N358 1.993 . S
Co341 O366 1.941 . S
C342 O343 1.258 . S
C342 O344 1.263 . S
O343 Co340 1.970 . S
O343 C342 1.258 . S
O344 Co341 1.966 . S
O344 C342 1.263 . S
C345 O346 1.235 . S
C345 O372 1.303 . S
O346 C345 1.235 . S
C347 C349 1.400 . S
C347 N350 1.351 . S
C347 C352 1.501 . S
C348 C349 1.387 . S
C348 N351 1.341 . S
C349 C347 1.400 . S
C349 C348 1.387 . S
N350 Co341 2.022 . S
N350 C347 1.351 . S
N350 N351 1.365 . S
N351 C348 1.341 . S
N351 N350 1.365 . S
N351 H371 0.862 . S
C352 C347 1.501 . S
C352 H353 0.961 . S
C352 H354 0.961 . S
C352 H355 0.960 . S
H353 C352 0.961 . S
H354 C352 0.961 . S
H355 C352 0.960 . S
C356 N357 1.342 . S
C356 C360 1.401 . S
C356 C361 1.499 . S
N357 Co340 1.989 . S
N357 C356 1.342 . S
N357 N358 1.388 . S
N358 Co341 1.993 . S
N358 N357 1.388 . S
N358 C359 1.346 . S
C359 N358 1.346 . S
C359 C360 1.396 . S
C359 C369 1.510 . S
C360 C356 1.401 . S
C360 C359 1.396 . S
C361 C356 1.499 . S
C361 H362 0.959 1_545 S
C361 H363 0.960 . S
C361 H364 0.961 1_545 S
H362 C361 0.959 1_565 S
H363 C361 0.960 . S
H364 C361 0.961 1_565 S
O365 Co340 1.967 1_565 S
O365 C373 1.258 . S
O366 Co341 1.941 . S
O366 C373 1.266 1_545 S
H367 C369 0.959 . S
H368 C369 0.961 . S
C369 C359 1.510 . S
C369 H367 0.959 . S
C369 H368 0.961 . S
C369 H370 0.960 . S
H370 C369 0.960 . S
H371 N351 0.862 . S
O372 Co340 1.937 . S
O372 C345 1.303 . S
C373 O365 1.258 . S
C373 O366 1.266 1_565 S
Co374 O377 1.970 . S
Co374 N391 1.989 . S
Co374 O399 1.967 1_455 S
Co374 O406 1.937 . S
Co375 O378 1.966 . S
Co375 N384 2.022 . S
Co375 N392 1.993 . S
Co375 O400 1.941 . S
C376 O377 1.258 . S
C376 O378 1.263 . S
O377 Co374 1.970 . S
O377 C376 1.258 . S
O378 Co375 1.966 . S
O378 C376 1.263 . S
C379 O380 1.235 . S
C379 O406 1.303 . S
O380 C379 1.235 . S
C381 C383 1.400 . S
C381 N384 1.351 . S
C381 C386 1.501 . S
C382 C383 1.387 . S
C382 N385 1.341 . S
C383 C381 1.400 . S
C383 C382 1.387 . S
N384 Co375 2.022 . S
N384 C381 1.351 . S
N384 N385 1.365 . S
N385 C382 1.341 . S
N385 N384 1.365 . S
N385 H405 0.862 . S
C386 C381 1.501 . S
C386 H387 0.961 . S
C386 H388 0.961 . S
C386 H389 0.960 . S
H387 C386 0.961 . S
H388 C386 0.961 . S
H389 C386 0.960 . S
C390 N391 1.342 . S
C390 C394 1.401 . S
C390 C395 1.499 . S
N391 Co374 1.989 . S
N391 C390 1.342 . S
N391 N392 1.388 . S
N392 Co375 1.993 . S
N392 N391 1.388 . S
N392 C393 1.346 . S
C393 N392 1.346 . S
C393 C394 1.396 . S
C393 C403 1.510 . S
C394 C390 1.401 . S
C394 C393 1.396 . S
C395 C390 1.499 . S
C395 H396 0.959 1_455 S
C395 H397 0.960 . S
C395 H398 0.961 1_455 S
H396 C395 0.959 1_655 S
H397 C395 0.960 . S
H398 C395 0.961 1_655 S
O399 Co374 1.967 1_655 S
O399 C407 1.258 . S
O400 Co375 1.941 . S
O400 C407 1.266 1_455 S
H401 C403 0.959 . S
H402 C403 0.961 . S
C403 C393 1.510 . S
C403 H401 0.959 . S
C403 H402 0.961 . S
C403 H404 0.960 . S
H404 C403 0.960 . S
H405 N385 0.862 . S
O406 Co374 1.937 . S
O406 C379 1.303 . S
C407 O399 1.258 . S
C407 O400 1.266 1_655 S
Co408 O411 1.970 . S
Co408 N425 1.989 . S
Co408 O433 1.967 1_545 S
Co408 O440 1.937 . S
Co409 O412 1.966 . S
Co409 N418 2.022 . S
Co409 N426 1.993 . S
Co409 O434 1.941 . S
C410 O411 1.258 . S
C410 O412 1.263 . S
O411 Co408 1.970 . S
O411 C410 1.258 . S
O412 Co409 1.966 . S
O412 C410 1.263 . S
C413 O414 1.235 . S
C413 O440 1.303 . S
O414 C413 1.235 . S
C415 C417 1.400 . S
C415 N418 1.351 . S
C415 C420 1.501 . S
C416 C417 1.387 . S
C416 N419 1.341 . S
C417 C415 1.400 . S
C417 C416 1.387 . S
N418 Co409 2.022 . S
N418 C415 1.351 . S
N418 N419 1.365 . S
N419 C416 1.341 . S
N419 N418 1.365 . S
N419 H439 0.862 . S
C420 C415 1.501 . S
C420 H421 0.961 . S
C420 H422 0.961 . S
C420 H423 0.960 . S
H421 C420 0.961 . S
H422 C420 0.961 . S
H423 C420 0.960 . S
C424 N425 1.342 . S
C424 C428 1.401 . S
C424 C429 1.499 . S
N425 Co408 1.989 . S
N425 C424 1.342 . S
N425 N426 1.388 . S
N426 Co409 1.993 . S
N426 N425 1.388 . S
N426 C427 1.346 . S
C427 N426 1.346 . S
C427 C428 1.396 . S
C427 C437 1.510 . S
C428 C424 1.401 . S
C428 C427 1.396 . S
C429 C424 1.499 . S
C429 H430 0.959 1_545 S
C429 H431 0.960 . S
C429 H432 0.961 1_545 S
H430 C429 0.959 1_565 S
H431 C429 0.960 . S
H432 C429 0.961 1_565 S
O433 Co408 1.967 1_565 S
O433 C441 1.258 . S
O434 Co409 1.941 . S
O434 C441 1.266 1_545 S
H435 C437 0.959 . S
H436 C437 0.961 . S
C437 C427 1.510 . S
C437 H435 0.959 . S
C437 H436 0.961 . S
C437 H438 0.960 . S
H438 C437 0.960 . S
H439 N419 0.862 . S
O440 Co408 1.937 . S
O440 C413 1.303 . S
C441 O433 1.258 . S
C441 O434 1.266 1_565 S
Co442 O445 1.970 . S
Co442 N459 1.989 . S
Co442 O467 1.967 1_455 S
Co442 O474 1.937 . S
Co443 O446 1.966 . S
Co443 N452 2.022 . S
Co443 N460 1.993 . S
Co443 O468 1.941 . S
C444 O445 1.258 . S
C444 O446 1.263 . S
O445 Co442 1.970 . S
O445 C444 1.258 . S
O446 Co443 1.966 . S
O446 C444 1.263 . S
C447 O448 1.235 . S
C447 O474 1.303 . S
O448 C447 1.235 . S
C449 C451 1.400 . S
C449 N452 1.351 . S
C449 C454 1.501 . S
C450 C451 1.387 . S
C450 N453 1.341 . S
C451 C449 1.400 . S
C451 C450 1.387 . S
N452 Co443 2.022 . S
N452 C449 1.351 . S
N452 N453 1.365 . S
N453 C450 1.341 . S
N453 N452 1.365 . S
N453 H473 0.862 . S
C454 C449 1.501 . S
C454 H455 0.961 . S
C454 H456 0.961 . S
C454 H457 0.960 . S
H455 C454 0.961 . S
H456 C454 0.961 . S
H457 C454 0.960 . S
C458 N459 1.342 . S
C458 C462 1.401 . S
C458 C463 1.499 . S
N459 Co442 1.989 . S
N459 C458 1.342 . S
N459 N460 1.388 . S
N460 Co443 1.993 . S
N460 N459 1.388 . S
N460 C461 1.346 . S
C461 N460 1.346 . S
C461 C462 1.396 . S
C461 C471 1.510 . S
C462 C458 1.401 . S
C462 C461 1.396 . S
C463 C458 1.499 . S
C463 H464 0.959 1_455 S
C463 H465 0.960 . S
C463 H466 0.961 1_455 S
H464 C463 0.959 1_655 S
H465 C463 0.960 . S
H466 C463 0.961 1_655 S
O467 Co442 1.967 1_655 S
O467 C475 1.258 . S
O468 Co443 1.941 . S
O468 C475 1.266 1_455 S
H469 C471 0.959 . S
H470 C471 0.961 . S
C471 C461 1.510 . S
C471 H469 0.959 . S
C471 H470 0.961 . S
C471 H472 0.960 . S
H472 C471 0.960 . S
H473 N453 0.862 . S
O474 Co442 1.937 . S
O474 C447 1.303 . S
C475 O467 1.258 . S
C475 O468 1.266 1_655 S
Co476 O479 1.970 . S
Co476 N493 1.989 . S
Co476 O501 1.967 1_565 S
Co476 O508 1.937 . S
Co477 O480 1.966 . S
Co477 N486 2.022 . S
Co477 N494 1.993 . S
Co477 O502 1.941 . S
C478 O479 1.258 . S
C478 O480 1.263 . S
O479 Co476 1.970 . S
O479 C478 1.258 . S
O480 Co477 1.966 . S
O480 C478 1.263 . S
C481 O482 1.235 . S
C481 O508 1.303 . S
O482 C481 1.235 . S
C483 C485 1.400 . S
C483 N486 1.351 . S
C483 C488 1.501 . S
C484 C485 1.387 . S
C484 N487 1.341 . S
C485 C483 1.400 . S
C485 C484 1.387 . S
N486 Co477 2.022 . S
N486 C483 1.351 . S
N486 N487 1.365 . S
N487 C484 1.341 . S
N487 N486 1.365 . S
N487 H507 0.862 . S
C488 C483 1.501 . S
C488 H489 0.961 . S
C488 H490 0.961 . S
C488 H491 0.960 . S
H489 C488 0.961 . S
H490 C488 0.961 . S
H491 C488 0.960 . S
C492 N493 1.342 . S
C492 C496 1.401 . S
C492 C497 1.499 . S
N493 Co476 1.989 . S
N493 C492 1.342 . S
N493 N494 1.388 . S
N494 Co477 1.993 . S
N494 N493 1.388 . S
N494 C495 1.346 . S
C495 N494 1.346 . S
C495 C496 1.396 . S
C495 C505 1.510 . S
C496 C492 1.401 . S
C496 C495 1.396 . S
C497 C492 1.499 . S
C497 H498 0.959 1_565 S
C497 H499 0.960 . S
C497 H500 0.961 1_565 S
H498 C497 0.959 1_545 S
H499 C497 0.960 . S
H500 C497 0.961 1_545 S
O501 Co476 1.967 1_545 S
O501 C509 1.258 . S
O502 Co477 1.941 . S
O502 C509 1.266 1_565 S
H503 C505 0.959 . S
H504 C505 0.961 . S
C505 C495 1.510 . S
C505 H503 0.959 . S
C505 H504 0.961 . S
C505 H506 0.960 . S
H506 C505 0.960 . S
H507 N487 0.862 . S
O508 Co476 1.937 . S
O508 C481 1.303 . S
C509 O501 1.258 . S
C509 O502 1.266 1_545 S
Co510 O513 1.970 . S
Co510 N527 1.989 . S
Co510 O535 1.967 1_655 S
Co510 O542 1.937 . S
Co511 O514 1.966 . S
Co511 N520 2.022 . S
Co511 N528 1.993 . S
Co511 O536 1.941 . S
C512 O513 1.258 . S
C512 O514 1.263 . S
O513 Co510 1.970 . S
O513 C512 1.258 . S
O514 Co511 1.966 . S
O514 C512 1.263 . S
C515 O516 1.235 . S
C515 O542 1.303 . S
O516 C515 1.235 . S
C517 C519 1.400 . S
C517 N520 1.351 . S
C517 C522 1.501 . S
C518 C519 1.387 . S
C518 N521 1.341 . S
C519 C517 1.400 . S
C519 C518 1.387 . S
N520 Co511 2.022 . S
N520 C517 1.351 . S
N520 N521 1.365 . S
N521 C518 1.341 . S
N521 N520 1.365 . S
N521 H541 0.862 . S
C522 C517 1.501 . S
C522 H523 0.961 . S
C522 H524 0.961 . S
C522 H525 0.960 . S
H523 C522 0.961 . S
H524 C522 0.961 . S
H525 C522 0.960 . S
C526 N527 1.342 . S
C526 C530 1.401 . S
C526 C531 1.499 . S
N527 Co510 1.989 . S
N527 C526 1.342 . S
N527 N528 1.388 . S
N528 Co511 1.993 . S
N528 N527 1.388 . S
N528 C529 1.346 . S
C529 N528 1.346 . S
C529 C530 1.396 . S
C529 C539 1.510 . S
C530 C526 1.401 . S
C530 C529 1.396 . S
C531 C526 1.499 . S
C531 H532 0.959 1_655 S
C531 H533 0.960 . S
C531 H534 0.961 1_655 S
H532 C531 0.959 1_455 S
H533 C531 0.960 . S
H534 C531 0.961 1_455 S
O535 Co510 1.967 1_455 S
O535 C543 1.258 . S
O536 Co511 1.941 . S
O536 C543 1.266 1_655 S
H537 C539 0.959 . S
H538 C539 0.961 . S
C539 C529 1.510 . S
C539 H537 0.959 . S
C539 H538 0.961 . S
C539 H540 0.960 . S
H540 C539 0.960 . S
H541 N521 0.862 . S
O542 Co510 1.937 . S
O542 C515 1.303 . S
C543 O535 1.258 . S
C543 O536 1.266 1_455 S
H544 C552 0.950 . S
H545 C557 0.950 . S
H546 C554 0.950 . S
H547 C556 0.950 . S
H548 C558 0.950 . S
H549 C560 0.950 . S
H550 C562 0.950 . S
H551 C563 0.950 . S
C552 H544 0.950 . S
C552 C553 1.386 . S
C552 C554 1.391 . S
C553 C552 1.386 . S
C553 C557 1.393 . S
C554 H546 0.950 . S
C554 C552 1.391 . S
C554 C555 1.400 . S
C555 C554 1.400 . S
C555 C556 1.398 . S
C555 C561 1.491 1_655 S
C556 H547 0.950 . S
C556 C555 1.398 . S
C556 C557 1.391 . S
C557 H545 0.950 . S
C557 C553 1.393 . S
C557 C556 1.391 . S
C558 H548 0.950 . S
C558 C559 1.386 . S
C558 C560 1.391 . S
C559 C558 1.386 . S
C559 C563 1.393 . S
C560 H549 0.950 . S
C560 C558 1.391 . S
C560 C561 1.400 . S
C561 C555 1.491 1_455 S
C561 C560 1.400 . S
C561 C562 1.398 . S
C562 H550 0.950 . S
C562 C561 1.398 . S
C562 C563 1.391 . S
C563 H551 0.950 . S
C563 C559 1.393 . S
C563 C562 1.391 . S
H564 C572 0.950 . S
H565 C577 0.950 . S
H566 C574 0.950 . S
H567 C576 0.950 . S
H568 C578 0.950 . S
H569 C580 0.950 . S
H570 C582 0.950 . S
H571 C583 0.950 . S
C572 H564 0.950 . S
C572 C573 1.386 . S
C572 C574 1.391 . S
C573 C572 1.386 . S
C573 C577 1.393 . S
C574 H566 0.950 . S
C574 C572 1.391 . S
C574 C575 1.400 . S
C575 C574 1.400 . S
C575 C576 1.398 . S
C575 C581 1.491 1_545 S
C576 H567 0.950 . S
C576 C575 1.398 . S
C576 C577 1.391 . S
C577 H565 0.950 . S
C577 C573 1.393 . S
C577 C576 1.391 . S
C578 H568 0.950 . S
C578 C579 1.386 . S
C578 C580 1.391 . S
C579 C578 1.386 . S
C579 C583 1.393 . S
C580 H569 0.950 . S
C580 C578 1.391 . S
C580 C581 1.400 . S
C581 C575 1.491 1_565 S
C581 C580 1.400 . S
C581 C582 1.398 . S
C582 H570 0.950 . S
C582 C581 1.398 . S
C582 C583 1.391 . S
C583 H571 0.950 . S
C583 C579 1.393 . S
C583 C582 1.391 . S
H584 C592 0.950 . S
H585 C597 0.950 . S
H586 C594 0.950 . S
H587 C596 0.950 . S
H588 C598 0.950 . S
H589 C600 0.950 . S
H590 C602 0.950 . S
H591 C603 0.950 . S
C592 H584 0.950 . S
C592 C593 1.386 . S
C592 C594 1.391 . S
C593 C592 1.386 . S
C593 C597 1.393 . S
C594 H586 0.950 . S
C594 C592 1.391 . S
C594 C595 1.400 . S
C595 C594 1.400 . S
C595 C596 1.398 . S
C595 C601 1.491 1_655 S
C596 H587 0.950 . S
C596 C595 1.398 . S
C596 C597 1.391 . S
C597 H585 0.950 . S
C597 C593 1.393 . S
C597 C596 1.391 . S
C598 H588 0.950 . S
C598 C599 1.386 . S
C598 C600 1.391 . S
C599 C598 1.386 . S
C599 C603 1.393 . S
C600 H589 0.950 . S
C600 C598 1.391 . S
C600 C601 1.400 . S
C601 C595 1.491 1_455 S
C601 C600 1.400 . S
C601 C602 1.398 . S
C602 H590 0.950 . S
C602 C601 1.398 . S
C602 C603 1.391 . S
C603 H591 0.950 . S
C603 C599 1.393 . S
C603 C602 1.391 . S
H604 C612 0.950 . S
H605 C617 0.950 . S
H606 C614 0.950 . S
H607 C616 0.950 . S
H608 C618 0.950 . S
H609 C620 0.950 . S
H610 C622 0.950 . S
H611 C623 0.950 . S
C612 H604 0.950 . S
C612 C613 1.386 . S
C612 C614 1.391 . S
C613 C612 1.386 . S
C613 C617 1.393 . S
C614 H606 0.950 . S
C614 C612 1.391 . S
C614 C615 1.400 . S
C615 C614 1.400 . S
C615 C616 1.398 . S
C615 C621 1.491 1_565 S
C616 H607 0.950 . S
C616 C615 1.398 . S
C616 C617 1.391 . S
C617 H605 0.950 . S
C617 C613 1.393 . S
C617 C616 1.391 . S
C618 H608 0.950 . S
C618 C619 1.386 . S
C618 C620 1.391 . S
C619 C618 1.386 . S
C619 C623 1.393 . S
C620 H609 0.950 . S
C620 C618 1.391 . S
C620 C621 1.400 . S
C621 C615 1.491 1_545 S
C621 C620 1.400 . S
C621 C622 1.398 . S
C622 H610 0.950 . S
C622 C621 1.398 . S
C622 C623 1.391 . S
C623 H611 0.950 . S
C623 C619 1.393 . S
C623 C622 1.391 . S
H624 C632 0.950 . S
H625 C637 0.950 . S
H626 C634 0.950 . S
H627 C636 0.950 . S
H628 C638 0.950 . S
H629 C640 0.950 . S
H630 C642 0.950 . S
H631 C643 0.950 . S
C632 H624 0.950 . S
C632 C633 1.386 1_545 S
C632 C634 1.391 . S
C633 C632 1.386 1_565 S
C633 C637 1.393 . S
C634 H626 0.950 . S
C634 C632 1.391 . S
C634 C635 1.400 1_545 S
C635 C634 1.400 1_565 S
C635 C636 1.398 . S
C635 C641 1.491 1_565 S
C636 H627 0.950 . S
C636 C635 1.398 . S
C636 C637 1.391 . S
C637 H625 0.950 . S
C637 C633 1.393 . S
C637 C636 1.391 . S
C638 H628 0.950 . S
C638 C639 1.386 1_565 S
C638 C640 1.391 . S
C639 C638 1.386 1_545 S
C639 C643 1.393 . S
C640 H629 0.950 . S
C640 C638 1.391 . S
C640 C641 1.400 1_565 S
C641 C635 1.491 1_545 S
C641 C640 1.400 1_545 S
C641 C642 1.398 . S
C642 H630 0.950 . S
C642 C641 1.398 . S
C642 C643 1.391 . S
C643 H631 0.950 . S
C643 C639 1.393 . S
C643 C642 1.391 . S
H644 C652 0.950 . S
H645 C657 0.950 . S
H646 C654 0.950 . S
H647 C656 0.950 . S
H648 C658 0.950 . S
H649 C660 0.950 . S
H650 C662 0.950 . S
H651 C663 0.950 . S
C652 H644 0.950 . S
C652 C653 1.386 1_455 S
C652 C654 1.391 . S
C653 C652 1.386 1_655 S
C653 C657 1.393 . S
C654 H646 0.950 . S
C654 C652 1.391 . S
C654 C655 1.381 1_455 S
C655 C654 1.381 1_655 S
C655 C656 1.420 . S
C655 C661 1.489 1_655 S
C656 H647 0.950 . S
C656 C655 1.420 . S
C656 C657 1.391 . S
C657 H645 0.950 . S
C657 C653 1.393 . S
C657 C656 1.391 . S
C658 H648 0.950 . S
C658 C659 1.386 1_655 S
C658 C660 1.391 . S
C659 C658 1.386 1_455 S
C659 C663 1.393 . S
C660 H649 0.950 . S
C660 C658 1.391 . S
C660 C661 1.381 1_655 S
C661 C655 1.489 1_455 S
C661 C660 1.381 1_455 S
C661 C662 1.420 . S
C662 H650 0.950 . S
C662 C661 1.420 . S
C662 C663 1.391 . S
C663 H651 0.950 . S
C663 C659 1.393 . S
C663 C662 1.391 . S
H664 C672 0.950 . S
H665 C677 0.950 . S
H666 C674 0.950 . S
H667 C676 0.950 . S
H668 C678 0.950 . S
H669 C680 0.950 . S
H670 C682 0.950 . S
H671 C683 0.950 . S
C672 H664 0.950 . S
C672 C673 1.386 1_545 S
C672 C674 1.391 . S
C673 C672 1.386 1_565 S
C673 C677 1.393 . S
C674 H666 0.950 . S
C674 C672 1.391 . S
C674 C675 1.390 1_545 S
C675 C674 1.390 1_565 S
C675 C676 1.410 . S
C675 C681 1.489 1_565 S
C676 H667 0.950 . S
C676 C675 1.410 . S
C676 C677 1.391 . S
C677 H665 0.950 . S
C677 C673 1.393 . S
C677 C676 1.391 . S
C678 H668 0.950 . S
C678 C679 1.386 1_565 S
C678 C680 1.391 . S
C679 C678 1.386 1_545 S
C679 C683 1.393 . S
C680 H669 0.950 . S
C680 C678 1.391 . S
C680 C681 1.390 1_565 S
C681 C675 1.489 1_545 S
C681 C680 1.390 1_545 S
C681 C682 1.410 . S
C682 H670 0.950 . S
C682 C681 1.410 . S
C682 C683 1.391 . S
C683 H671 0.950 . S
C683 C679 1.393 . S
C683 C682 1.391 . S
H684 C692 0.950 . S
H685 C697 0.950 . S
H686 C694 0.950 . S
H687 C696 0.950 . S
H688 C698 0.950 . S
H689 C700 0.950 . S
H690 C702 0.950 . S
H691 C703 0.950 . S
C692 H684 0.950 . S
C692 C693 1.386 1_455 S
C692 C694 1.391 . S
C693 C692 1.386 1_655 S
C693 C697 1.393 . S
C694 H686 0.950 . S
C694 C692 1.391 . S
C694 C695 1.400 1_455 S
C695 C694 1.400 1_655 S
C695 C696 1.398 . S
C695 C701 1.491 1_655 S
C696 H687 0.950 . S
C696 C695 1.398 . S
C696 C697 1.391 . S
C697 H685 0.950 . S
C697 C693 1.393 . S
C697 C696 1.391 . S
C698 H688 0.950 . S
C698 C699 1.386 1_655 S
C698 C700 1.391 . S
C699 C698 1.386 1_455 S
C699 C703 1.393 . S
C700 H689 0.950 . S
C700 C698 1.391 . S
C700 C701 1.400 1_655 S
C701 C695 1.491 1_455 S
C701 C700 1.400 1_455 S
C701 C702 1.398 . S
C702 H690 0.950 . S
C702 C701 1.398 . S
C702 C703 1.391 . S
C703 H691 0.950 . S
C703 C699 1.393 . S
C703 C702 1.391 . S
H704 C712 0.950 . S
H705 C717 0.950 . S
H706 C714 0.950 . S
H707 C716 0.950 . S
H708 C718 0.950 . S
H709 C720 0.950 . S
H710 C722 0.950 . S
H711 C723 0.950 . S
C712 H704 0.950 . S
C712 C713 1.386 . S
C712 C714 1.391 . S
C713 C712 1.386 . S
C713 C717 1.393 . S
C714 H706 0.950 . S
C714 C712 1.391 . S
C714 C715 1.400 . S
C715 C714 1.400 . S
C715 C716 1.398 . S
C715 C721 1.491 . S
C716 H707 0.950 . S
C716 C715 1.398 . S
C716 C717 1.391 . S
C717 H705 0.950 . S
C717 C713 1.393 . S
C717 C716 1.391 . S
C718 H708 0.950 . S
C718 C719 1.386 . S
C718 C720 1.391 . S
C719 C718 1.386 . S
C719 C723 1.393 . S
C720 H709 0.950 . S
C720 C718 1.391 . S
C720 C721 1.400 . S
C721 C715 1.491 . S
C721 C720 1.400 . S
C721 C722 1.398 . S
C722 H710 0.950 . S
C722 C721 1.398 . S
C722 C723 1.391 . S
C723 H711 0.950 . S
C723 C719 1.393 . S
C723 C722 1.391 . S
H724 C732 0.950 . S
H725 C737 0.950 . S
H726 C734 0.950 . S
H727 C736 0.950 . S
H728 C738 0.950 . S
H729 C740 0.950 . S
H730 C742 0.950 . S
H731 C743 0.950 . S
C732 H724 0.950 . S
C732 C733 1.386 . S
C732 C734 1.391 . S
C733 C732 1.386 . S
C733 C737 1.393 . S
C734 H726 0.950 . S
C734 C732 1.391 . S
C734 C735 1.400 . S
C735 C734 1.400 . S
C735 C736 1.398 . S
C735 C741 1.491 . S
C736 H727 0.950 . S
C736 C735 1.398 . S
C736 C737 1.391 . S
C737 H725 0.950 . S
C737 C733 1.393 . S
C737 C736 1.391 . S
C738 H728 0.950 . S
C738 C739 1.386 . S
C738 C740 1.391 . S
C739 C738 1.386 . S
C739 C743 1.393 . S
C740 H729 0.950 . S
C740 C738 1.391 . S
C740 C741 1.400 . S
C741 C735 1.491 . S
C741 C740 1.400 . S
C741 C742 1.398 . S
C742 H730 0.950 . S
C742 C741 1.398 . S
C742 C743 1.391 . S
C743 H731 0.950 . S
C743 C739 1.393 . S
C743 C742 1.391 . S
H744 C752 0.950 . S
H745 C757 0.950 . S
H746 C754 0.950 . S
H747 C756 0.950 . S
H748 C758 0.950 . S
H749 C760 0.950 . S
H750 C762 0.950 . S
H751 C763 0.950 . S
C752 H744 0.950 . S
C752 C753 1.386 . S
C752 C754 1.391 . S
C753 C752 1.386 . S
C753 C757 1.393 . S
C754 H746 0.950 . S
C754 C752 1.391 . S
C754 C755 1.400 . S
C755 C754 1.400 . S
C755 C756 1.398 . S
C755 C761 1.491 . S
C756 H747 0.950 . S
C756 C755 1.398 . S
C756 C757 1.391 . S
C757 H745 0.950 . S
C757 C753 1.393 . S
C757 C756 1.391 . S
C758 H748 0.950 . S
C758 C759 1.386 . S
C758 C760 1.391 . S
C759 C758 1.386 . S
C759 C763 1.393 . S
C760 H749 0.950 . S
C760 C758 1.391 . S
C760 C761 1.400 . S
C761 C755 1.491 . S
C761 C760 1.400 . S
C761 C762 1.398 . S
C762 H750 0.950 . S
C762 C761 1.398 . S
C762 C763 1.391 . S
C763 H751 0.950 . S
C763 C759 1.393 . S
C763 C762 1.391 . S
H764 C772 0.950 . S
H765 C777 0.950 . S
H766 C774 0.950 . S
H767 C776 0.950 . S
H768 C778 0.950 . S
H769 C780 0.950 . S
H770 C782 0.950 . S
H771 C783 0.950 . S
C772 H764 0.950 . S
C772 C773 1.386 . S
C772 C774 1.391 . S
C773 C772 1.386 . S
C773 C777 1.393 . S
C774 H766 0.950 . S
C774 C772 1.391 . S
C774 C775 1.400 . S
C775 C774 1.400 . S
C775 C776 1.398 . S
C775 C781 1.491 . S
C776 H767 0.950 . S
C776 C775 1.398 . S
C776 C777 1.391 . S
C777 H765 0.950 . S
C777 C773 1.393 . S
C777 C776 1.391 . S
C778 H768 0.950 . S
C778 C779 1.386 . S
C778 C780 1.391 . S
C779 C778 1.386 . S
C779 C783 1.393 . S
C780 H769 0.950 . S
C780 C778 1.391 . S
C780 C781 1.400 . S
C781 C775 1.491 . S
C781 C780 1.400 . S
C781 C782 1.398 . S
C782 H770 0.950 . S
C782 C781 1.398 . S
C782 C783 1.391 . S
C783 H771 0.950 . S
C783 C779 1.393 . S
C783 C782 1.391 . S
H784 C792 0.950 . S
H785 C797 0.950 . S
H786 C794 0.950 . S
H787 C796 0.950 . S
H788 C798 0.950 . S
H789 C800 0.950 . S
H790 C802 0.950 . S
H791 C803 0.950 . S
C792 H784 0.950 . S
C792 C793 1.386 . S
C792 C794 1.391 . S
C793 C792 1.386 . S
C793 C797 1.393 . S
C794 H786 0.950 . S
C794 C792 1.391 . S
C794 C795 1.400 . S
C795 C794 1.400 . S
C795 C796 1.398 . S
C795 C801 1.491 . S
C796 H787 0.950 . S
C796 C795 1.398 . S
C796 C797 1.391 . S
C797 H785 0.950 . S
C797 C793 1.393 . S
C797 C796 1.391 . S
C798 H788 0.950 . S
C798 C799 1.386 . S
C798 C800 1.391 . S
C799 C798 1.386 . S
C799 C803 1.393 . S
C800 H789 0.950 . S
C800 C798 1.391 . S
C800 C801 1.400 . S
C801 C795 1.491 . S
C801 C800 1.400 . S
C801 C802 1.398 . S
C802 H790 0.950 . S
C802 C801 1.398 . S
C802 C803 1.391 . S
C803 H791 0.950 . S
C803 C799 1.393 . S
C803 C802 1.391 . S
H804 C812 0.950 . S
H805 C817 0.950 . S
H806 C814 0.950 . S
H807 C816 0.950 . S
H808 C818 0.950 . S
H809 C820 0.950 . S
H810 C822 0.950 . S
H811 C823 0.950 . S
C812 H804 0.950 . S
C812 C813 1.386 . S
C812 C814 1.391 . S
C813 C812 1.386 . S
C813 C817 1.393 . S
C814 H806 0.950 . S
C814 C812 1.391 . S
C814 C815 1.400 . S
C815 C814 1.400 . S
C815 C816 1.398 . S
C815 C821 1.491 . S
C816 H807 0.950 . S
C816 C815 1.398 . S
C816 C817 1.391 . S
C817 H805 0.950 . S
C817 C813 1.393 . S
C817 C816 1.391 . S
C818 H808 0.950 . S
C818 C819 1.386 . S
C818 C820 1.391 . S
C819 C818 1.386 . S
C819 C823 1.393 . S
C820 H809 0.950 . S
C820 C818 1.391 . S
C820 C821 1.400 . S
C821 C815 1.491 . S
C821 C820 1.400 . S
C821 C822 1.398 . S
C822 H810 0.950 . S
C822 C821 1.398 . S
C822 C823 1.391 . S
C823 H811 0.950 . S
C823 C819 1.393 . S
C823 C822 1.391 . S
H824 C832 0.950 . S
H825 C837 0.950 . S
H826 C834 0.950 . S
H827 C836 0.950 . S
H828 C838 0.950 . S
H829 C840 0.950 . S
H830 C842 0.950 . S
H831 C843 0.950 . S
C832 H824 0.950 . S
C832 C833 1.386 . S
C832 C834 1.391 . S
C833 C832 1.386 . S
C833 C837 1.393 . S
C834 H826 0.950 . S
C834 C832 1.391 . S
C834 C835 1.400 . S
C835 C834 1.400 . S
C835 C836 1.398 . S
C835 C841 1.491 . S
C836 H827 0.950 . S
C836 C835 1.398 . S
C836 C837 1.391 . S
C837 H825 0.950 . S
C837 C833 1.393 . S
C837 C836 1.391 . S
C838 H828 0.950 . S
C838 C839 1.386 . S
C838 C840 1.391 . S
C839 C838 1.386 . S
C839 C843 1.393 . S
C840 H829 0.950 . S
C840 C838 1.391 . S
C840 C841 1.400 . S
C841 C835 1.491 . S
C841 C840 1.400 . S
C841 C842 1.398 . S
C842 H830 0.950 . S
C842 C841 1.398 . S
C842 C843 1.391 . S
C843 H831 0.950 . S
C843 C839 1.393 . S
C843 C842 1.391 . S
H844 C852 0.950 . S
H845 C857 0.950 . S
H846 C854 0.950 . S
H847 C856 0.950 . S
H848 C858 0.950 . S
H849 C860 0.950 . S
H850 C862 0.950 . S
H851 C863 0.950 . S
C852 H844 0.950 . S
C852 C853 1.386 . S
C852 C854 1.391 . S
C853 C852 1.386 . S
C853 C857 1.393 . S
C854 H846 0.950 . S
C854 C852 1.391 . S
C854 C855 1.400 . S
C855 C854 1.400 . S
C855 C856 1.398 . S
C855 C861 1.491 . S
C856 H847 0.950 . S
C856 C855 1.398 . S
C856 C857 1.391 . S
C857 H845 0.950 . S
C857 C853 1.393 . S
C857 C856 1.391 . S
C858 H848 0.950 . S
C858 C859 1.386 . S
C858 C860 1.391 . S
C859 C858 1.386 . S
C859 C863 1.393 . S
C860 H849 0.950 . S
C860 C858 1.391 . S
C860 C861 1.400 . S
C861 C855 1.491 . S
C861 C860 1.400 . S
C861 C862 1.398 . S
C862 H850 0.950 . S
C862 C861 1.398 . S
C862 C863 1.391 . S
C863 H851 0.950 . S
C863 C859 1.393 . S
C863 C862 1.391 . S
H864 C872 0.950 . S
H865 C877 0.950 . S
H866 C874 0.950 . S
H867 C876 0.950 . S
H868 C878 0.950 . S
H869 C880 0.950 . S
H870 C882 0.950 . S
H871 C883 0.950 . S
C872 H864 0.950 . S
C872 C873 1.386 . S
C872 C874 1.391 . S
C873 C872 1.386 . S
C873 C877 1.393 . S
C874 H866 0.950 . S
C874 C872 1.391 . S
C874 C875 1.400 . S
C875 C874 1.400 . S
C875 C876 1.398 . S
C875 C881 1.491 . S
C876 H867 0.950 . S
C876 C875 1.398 . S
C876 C877 1.391 . S
C877 H865 0.950 . S
C877 C873 1.393 . S
C877 C876 1.391 . S
C878 H868 0.950 . S
C878 C879 1.386 . S
C878 C880 1.391 . S
C879 C878 1.386 . S
C879 C883 1.393 . S
C880 H869 0.950 . S
C880 C878 1.391 . S
C880 C881 1.400 . S
C881 C875 1.491 . S
C881 C880 1.400 . S
C881 C882 1.398 . S
C882 H870 0.950 . S
C882 C881 1.398 . S
C882 C883 1.391 . S
C883 H871 0.950 . S
C883 C879 1.393 . S
C883 C882 1.391 . S
H884 C892 0.950 . S
H885 C897 0.950 . S
H886 C894 0.950 . S
H887 C896 0.950 . S
H888 C898 0.950 . S
H889 C900 0.950 . S
H890 C902 0.950 . S
H891 C903 0.950 . S
C892 H884 0.950 . S
C892 C893 1.386 . S
C892 C894 1.391 . S
C893 C892 1.386 . S
C893 C897 1.393 . S
C894 H886 0.950 . S
C894 C892 1.391 . S
C894 C895 1.400 . S
C895 C894 1.400 . S
C895 C896 1.398 . S
C895 C901 1.491 . S
C896 H887 0.950 . S
C896 C895 1.398 . S
C896 C897 1.391 . S
C897 H885 0.950 . S
C897 C893 1.393 . S
C897 C896 1.391 . S
C898 H888 0.950 . S
C898 C899 1.386 . S
C898 C900 1.391 . S
C899 C898 1.386 . S
C899 C903 1.393 . S
C900 H889 0.950 . S
C900 C898 1.391 . S
C900 C901 1.400 . S
C901 C895 1.491 . S
C901 C900 1.400 . S
C901 C902 1.398 . S
C902 H890 0.950 . S
C902 C901 1.398 . S
C902 C903 1.391 . S
C903 H891 0.950 . S
C903 C899 1.393 . S
C903 C902 1.391 . S
H904 C912 0.950 . S
H905 C917 0.950 . S
H906 C914 0.950 . S
H907 C916 0.950 . S
H908 C918 0.950 . S
H909 C920 0.950 . S
H910 C922 0.950 . S
H911 C923 0.950 . S
C912 H904 0.950 . S
C912 C913 1.386 . S
C912 C914 1.391 . S
C913 C912 1.386 . S
C913 C917 1.393 . S
C914 H906 0.950 . S
C914 C912 1.391 . S
C914 C915 1.400 . S
C915 C914 1.400 . S
C915 C916 1.398 . S
C915 C921 1.491 . S
C916 H907 0.950 . S
C916 C915 1.398 . S
C916 C917 1.391 . S
C917 H905 0.950 . S
C917 C913 1.393 . S
C917 C916 1.391 . S
C918 H908 0.950 . S
C918 C919 1.386 . S
C918 C920 1.391 . S
C919 C918 1.386 . S
C919 C923 1.393 . S
C920 H909 0.950 . S
C920 C918 1.391 . S
C920 C921 1.400 . S
C921 C915 1.491 . S
C921 C920 1.400 . S
C921 C922 1.398 . S
C922 H910 0.950 . S
C922 C921 1.398 . S
C922 C923 1.391 . S
C923 H911 0.950 . S
C923 C919 1.393 . S
C923 C922 1.391 . S
H924 C932 0.950 . S
H925 C937 0.950 . S
H926 C934 0.950 . S
H927 C936 0.950 . S
H928 C938 0.950 . S
H929 C940 0.950 . S
H930 C942 0.950 . S
H931 C943 0.950 . S
C932 H924 0.950 . S
C932 C933 1.386 . S
C932 C934 1.391 . S
C933 C932 1.386 . S
C933 C937 1.393 . S
C934 H926 0.950 . S
C934 C932 1.391 . S
C934 C935 1.400 . S
C935 C934 1.400 . S
C935 C936 1.398 . S
C935 C941 1.491 . S
C936 H927 0.950 . S
C936 C935 1.398 . S
C936 C937 1.391 . S
C937 H925 0.950 . S
C937 C933 1.393 . S
C937 C936 1.391 . S
C938 H928 0.950 . S
C938 C939 1.386 . S
C938 C940 1.391 . S
C939 C938 1.386 . S
C939 C943 1.393 . S
C940 H929 0.950 . S
C940 C938 1.391 . S
C940 C941 1.400 . S
C941 C935 1.491 . S
C941 C940 1.400 . S
C941 C942 1.398 . S
C942 H930 0.950 . S
C942 C941 1.398 . S
C942 C943 1.391 . S
C943 H931 0.950 . S
C943 C939 1.393 . S
C943 C942 1.391 . S
H944 C952 0.950 . S
H945 C957 0.950 . S
H946 C954 0.950 . S
H947 C956 0.950 . S
H948 C958 0.950 . S
H949 C960 0.950 . S
H950 C962 0.950 . S
H951 C963 0.950 . S
C952 H944 0.950 . S
C952 C953 1.386 . S
C952 C954 1.391 . S
C953 C952 1.386 . S
C953 C957 1.393 . S
C954 H946 0.950 . S
C954 C952 1.391 . S
C954 C955 1.400 . S
C955 C954 1.400 . S
C955 C956 1.398 . S
C955 C961 1.491 . S
C956 H947 0.950 . S
C956 C955 1.398 . S
C956 C957 1.391 . S
C957 H945 0.950 . S
C957 C953 1.393 . S
C957 C956 1.391 . S
C958 H948 0.950 . S
C958 C959 1.386 . S
C958 C960 1.391 . S
C959 C958 1.386 . S
C959 C963 1.393 . S
C960 H949 0.950 . S
C960 C958 1.391 . S
C960 C961 1.400 . S
C961 C955 1.491 . S
C961 C960 1.400 . S
C961 C962 1.398 . S
C962 H950 0.950 . S
C962 C961 1.398 . S
C962 C963 1.391 . S
C963 H951 0.950 . S
C963 C959 1.393 . S
C963 C962 1.391 . S
H964 C972 0.950 . S
H965 C977 0.950 . S
H966 C974 0.950 . S
H967 C976 0.950 . S
H968 C978 0.950 . S
H969 C980 0.950 . S
H970 C982 0.950 . S
H971 C983 0.950 . S
C972 H964 0.950 . S
C972 C973 1.386 . S
C972 C974 1.391 . S
C973 C972 1.386 . S
C973 C977 1.393 . S
C974 H966 0.950 . S
C974 C972 1.391 . S
C974 C975 1.400 . S
C975 C974 1.400 . S
C975 C976 1.398 . S
C975 C981 1.491 . S
C976 H967 0.950 . S
C976 C975 1.398 . S
C976 C977 1.391 . S
C977 H965 0.950 . S
C977 C973 1.393 . S
C977 C976 1.391 . S
C978 H968 0.950 . S
C978 C979 1.386 . S
C978 C980 1.391 . S
C979 C978 1.386 . S
C979 C983 1.393 . S
C980 H969 0.950 . S
C980 C978 1.391 . S
C980 C981 1.400 . S
C981 C975 1.491 . S
C981 C980 1.400 . S
C981 C982 1.398 . S
C982 H970 0.950 . S
C982 C981 1.398 . S
C982 C983 1.391 . S
C983 H971 0.950 . S
C983 C979 1.393 . S
C983 C982 1.391 . S
H984 C992 0.950 . S
H985 C997 0.950 . S
H986 C994 0.950 . S
H987 C996 0.950 . S
H988 C998 0.950 . S
H989 C1000 0.950 . S
H990 C1002 0.950 . S
H991 C1003 0.950 . S
C992 H984 0.950 . S
C992 C993 1.386 . S
C992 C994 1.391 . S
C993 C992 1.386 . S
C993 C997 1.393 . S
C994 H986 0.950 . S
C994 C992 1.391 . S
C994 C995 1.400 . S
C995 C994 1.400 . S
C995 C996 1.398 . S
C995 C1001 1.491 . S
C996 H987 0.950 . S
C996 C995 1.398 . S
C996 C997 1.391 . S
C997 H985 0.950 . S
C997 C993 1.393 . S
C997 C996 1.391 . S
C998 H988 0.950 . S
C998 C999 1.386 . S
C998 C1000 1.391 . S
C999 C998 1.386 . S
C999 C1003 1.393 . S
C1000 H989 0.950 . S
C1000 C998 1.391 . S
C1000 C1001 1.400 . S
C1001 C995 1.491 . S
C1001 C1000 1.400 . S
C1001 C1002 1.398 . S
C1002 H990 0.950 . S
C1002 C1001 1.398 . S
C1002 C1003 1.391 . S
C1003 H991 0.950 . S
C1003 C999 1.393 . S
C1003 C1002 1.391 . S
H1004 C1012 0.950 . S
H1005 C1017 0.950 . S
H1006 C1014 0.950 . S
H1007 C1016 0.950 . S
H1008 C1018 0.950 . S
H1009 C1020 0.950 . S
H1010 C1022 0.950 . S
H1011 C1023 0.950 . S
C1012 H1004 0.950 . S
C1012 C1013 1.386 . S
C1012 C1014 1.391 . S
C1013 C1012 1.386 . S
C1013 C1017 1.393 . S
C1014 H1006 0.950 . S
C1014 C1012 1.391 . S
C1014 C1015 1.400 . S
C1015 C1014 1.400 . S
C1015 C1016 1.398 . S
C1015 C1021 1.491 . S
C1016 H1007 0.950 . S
C1016 C1015 1.398 . S
C1016 C1017 1.391 . S
C1017 H1005 0.950 . S
C1017 C1013 1.393 . S
C1017 C1016 1.391 . S
C1018 H1008 0.950 . S
C1018 C1019 1.386 . S
C1018 C1020 1.391 . S
C1019 C1018 1.386 . S
C1019 C1023 1.393 . S
C1020 H1009 0.950 . S
C1020 C1018 1.391 . S
C1020 C1021 1.400 . S
C1021 C1015 1.491 . S
C1021 C1020 1.400 . S
C1021 C1022 1.398 . S
C1022 H1010 0.950 . S
C1022 C1021 1.398 . S
C1022 C1023 1.391 . S
C1023 H1011 0.950 . S
C1023 C1019 1.393 . S
C1023 C1022 1.391 . S
H1024 C1032 0.950 . S
H1025 C1037 0.950 . S
H1026 C1034 0.950 . S
H1027 C1036 0.950 . S
H1028 C1038 0.950 . S
H1029 C1040 0.950 . S
H1030 C1042 0.950 . S
H1031 C1043 0.950 1_565 S
C1032 H1024 0.950 . S
C1032 C1033 1.386 . S
C1032 C1034 1.391 . S
C1033 C1032 1.386 . S
C1033 C1037 1.393 . S
C1034 H1026 0.950 . S
C1034 C1032 1.391 . S
C1034 C1035 1.400 . S
C1035 C1034 1.400 . S
C1035 C1036 1.398 . S
C1035 C1041 1.491 . S
C1036 H1027 0.950 . S
C1036 C1035 1.398 . S
C1036 C1037 1.391 . S
C1037 H1025 0.950 . S
C1037 C1033 1.393 . S
C1037 C1036 1.391 . S
C1038 H1028 0.950 . S
C1038 C1039 1.386 . S
C1038 C1040 1.391 . S
C1039 C1038 1.386 . S
C1039 C1043 1.393 . S
C1040 H1029 0.950 . S
C1040 C1038 1.391 . S
C1040 C1041 1.400 . S
C1041 C1035 1.491 . S
C1041 C1040 1.400 . S
C1041 C1042 1.398 . S
C1042 H1030 0.950 . S
C1042 C1041 1.398 . S
C1042 C1043 1.391 . S
C1043 H1031 0.950 1_545 S
C1043 C1039 1.393 . S
C1043 C1042 1.391 . S
H1044 C1052 0.950 . S
H1045 C1057 0.950 . S
H1046 C1054 0.950 . S
H1047 C1056 0.950 . S
H1048 C1058 0.950 . S
H1049 C1060 0.950 . S
H1050 C1062 0.950 . S
H1051 C1063 0.950 . S
C1052 H1044 0.950 . S
C1052 C1053 1.386 . S
C1052 C1054 1.391 . S
C1053 C1052 1.386 . S
C1053 C1057 1.393 . S
C1054 H1046 0.950 . S
C1054 C1052 1.391 . S
C1054 C1055 1.400 . S
C1055 C1054 1.400 . S
C1055 C1056 1.398 . S
C1055 C1061 1.491 . S
C1056 H1047 0.950 . S
C1056 C1055 1.398 . S
C1056 C1057 1.391 . S
C1057 H1045 0.950 . S
C1057 C1053 1.393 . S
C1057 C1056 1.391 . S
C1058 H1048 0.950 . S
C1058 C1059 1.386 . S
C1058 C1060 1.391 . S
C1059 C1058 1.386 . S
C1059 C1063 1.393 . S
C1060 H1049 0.950 . S
C1060 C1058 1.391 . S
C1060 C1061 1.400 . S
C1061 C1055 1.491 . S
C1061 C1060 1.400 . S
C1061 C1062 1.398 . S
C1062 H1050 0.950 . S
C1062 C1061 1.398 . S
C1062 C1063 1.391 . S
C1063 H1051 0.950 . S
C1063 C1059 1.393 . S
C1063 C1062 1.391 . S
H1064 C1072 0.950 . S
H1065 C1077 0.950 . S
H1066 C1074 0.950 . S
H1067 C1076 0.950 . S
H1068 C1078 0.950 . S
H1069 C1080 0.950 . S
H1070 C1082 0.950 . S
H1071 C1083 0.950 . S
C1072 H1064 0.950 . S
C1072 C1073 1.386 . S
C1072 C1074 1.391 . S
C1073 C1072 1.386 . S
C1073 C1077 1.393 . S
C1074 H1066 0.950 . S
C1074 C1072 1.391 . S
C1074 C1075 1.400 . S
C1075 C1074 1.400 . S
C1075 C1076 1.398 . S
C1075 C1081 1.491 . S
C1076 H1067 0.950 . S
C1076 C1075 1.398 . S
C1076 C1077 1.391 . S
C1077 H1065 0.950 . S
C1077 C1073 1.393 . S
C1077 C1076 1.391 . S
C1078 H1068 0.950 . S
C1078 C1079 1.386 . S
C1078 C1080 1.391 . S
C1079 C1078 1.386 . S
C1079 C1083 1.393 . S
C1080 H1069 0.950 . S
C1080 C1078 1.391 . S
C1080 C1081 1.400 . S
C1081 C1075 1.491 . S
C1081 C1080 1.400 . S
C1081 C1082 1.398 . S
C1082 H1070 0.950 . S
C1082 C1081 1.398 . S
C1082 C1083 1.391 . S
C1083 H1071 0.950 . S
C1083 C1079 1.393 . S
C1083 C1082 1.391 . S
H1084 C1092 0.950 . S
H1085 C1097 0.950 . S
H1086 C1094 0.950 . S
H1087 C1096 0.950 . S
H1088 C1098 0.950 . S
H1089 C1100 0.950 . S
H1090 C1102 0.950 . S
H1091 C1103 0.950 . S
C1092 H1084 0.950 . S
C1092 C1093 1.386 . S
C1092 C1094 1.391 . S
C1093 C1092 1.386 . S
C1093 C1097 1.393 . S
C1094 H1086 0.950 . S
C1094 C1092 1.391 . S
C1094 C1095 1.400 . S
C1095 C1094 1.400 . S
C1095 C1096 1.398 . S
C1095 C1101 1.491 . S
C1096 H1087 0.950 . S
C1096 C1095 1.398 . S
C1096 C1097 1.391 . S
C1097 H1085 0.950 . S
C1097 C1093 1.393 . S
C1097 C1096 1.391 . S
C1098 H1088 0.950 . S
C1098 C1099 1.386 . S
C1098 C1100 1.391 . S
C1099 C1098 1.386 . S
C1099 C1103 1.393 . S
C1100 H1089 0.950 . S
C1100 C1098 1.391 . S
C1100 C1101 1.400 . S
C1101 C1095 1.491 . S
C1101 C1100 1.400 . S
C1101 C1102 1.398 . S
C1102 H1090 0.950 . S
C1102 C1101 1.398 . S
C1102 C1103 1.391 . S
C1103 H1091 0.950 . S
C1103 C1099 1.393 . S
C1103 C1102 1.391 . S
H1104 C1112 0.950 . S
H1105 C1117 0.950 . S
H1106 C1114 0.950 . S
H1107 C1116 0.950 . S
H1108 C1118 0.950 . S
H1109 C1120 0.950 . S
H1110 C1122 0.950 . S
H1111 C1123 0.950 . S
C1112 H1104 0.950 . S
C1112 C1113 1.386 . S
C1112 C1114 1.391 . S
C1113 C1112 1.386 . S
C1113 C1117 1.393 . S
C1114 H1106 0.950 . S
C1114 C1112 1.391 . S
C1114 C1115 1.400 . S
C1115 C1114 1.400 . S
C1115 C1116 1.398 . S
C1115 C1121 1.491 . S
C1116 H1107 0.950 . S
C1116 C1115 1.398 . S
C1116 C1117 1.391 . S
C1117 H1105 0.950 . S
C1117 C1113 1.393 . S
C1117 C1116 1.391 . S
C1118 H1108 0.950 . S
C1118 C1119 1.386 . S
C1118 C1120 1.391 . S
C1119 C1118 1.386 . S
C1119 C1123 1.393 . S
C1120 H1109 0.950 . S
C1120 C1118 1.391 . S
C1120 C1121 1.400 . S
C1121 C1115 1.491 . S
C1121 C1120 1.400 . S
C1121 C1122 1.398 . S
C1122 H1110 0.950 . S
C1122 C1121 1.398 . S
C1122 C1123 1.391 . S
C1123 H1111 0.950 . S
C1123 C1119 1.393 . S
C1123 C1122 1.391 . S
H1124 C1132 0.950 . S
H1125 C1137 0.950 . S
H1126 C1134 0.950 . S
H1127 C1136 0.950 . S
H1128 C1138 0.950 . S
H1129 C1140 0.950 . S
H1130 C1142 0.950 . S
H1131 C1143 0.950 . S
C1132 H1124 0.950 . S
C1132 C1133 1.386 . S
C1132 C1134 1.391 . S
C1133 C1132 1.386 . S
C1133 C1137 1.393 . S
C1134 H1126 0.950 . S
C1134 C1132 1.391 . S
C1134 C1135 1.400 . S
C1135 C1134 1.400 . S
C1135 C1136 1.398 . S
C1135 C1141 1.491 . S
C1136 H1127 0.950 . S
C1136 C1135 1.398 . S
C1136 C1137 1.391 . S
C1137 H1125 0.950 . S
C1137 C1133 1.393 . S
C1137 C1136 1.391 . S
C1138 H1128 0.950 . S
C1138 C1139 1.386 . S
C1138 C1140 1.391 . S
C1139 C1138 1.386 . S
C1139 C1143 1.393 . S
C1140 H1129 0.950 . S
C1140 C1138 1.391 . S
C1140 C1141 1.400 . S
C1141 C1135 1.491 . S
C1141 C1140 1.400 . S
C1141 C1142 1.398 . S
C1142 H1130 0.950 . S
C1142 C1141 1.398 . S
C1142 C1143 1.391 . S
C1143 H1131 0.950 . S
C1143 C1139 1.393 . S
C1143 C1142 1.391 . S
H1144 C1152 0.950 . S
H1145 C1157 0.950 . S
H1146 C1154 0.950 . S
H1147 C1156 0.950 . S
H1148 C1158 0.950 . S
H1149 C1160 0.950 . S
H1150 C1162 0.950 . S
H1151 C1163 0.950 . S
C1152 H1144 0.950 . S
C1152 C1153 1.386 . S
C1152 C1154 1.391 . S
C1153 C1152 1.386 . S
C1153 C1157 1.393 . S
C1154 H1146 0.950 . S
C1154 C1152 1.391 . S
C1154 C1155 1.400 . S
C1155 C1154 1.400 . S
C1155 C1156 1.398 . S
C1155 C1161 1.491 . S
C1156 H1147 0.950 . S
C1156 C1155 1.398 . S
C1156 C1157 1.391 . S
C1157 H1145 0.950 . S
C1157 C1153 1.393 . S
C1157 C1156 1.391 . S
C1158 H1148 0.950 . S
C1158 C1159 1.386 . S
C1158 C1160 1.391 . S
C1159 C1158 1.386 . S
C1159 C1163 1.393 . S
C1160 H1149 0.950 . S
C1160 C1158 1.391 . S
C1160 C1161 1.400 . S
C1161 C1155 1.491 . S
C1161 C1160 1.400 . S
C1161 C1162 1.398 . S
C1162 H1150 0.950 . S
C1162 C1161 1.398 . S
C1162 C1163 1.391 . S
C1163 H1151 0.950 . S
C1163 C1159 1.393 . S
C1163 C1162 1.391 . S
H1164 C1172 0.950 . S
H1165 C1177 0.950 . S
H1166 C1174 0.950 . S
H1167 C1176 0.950 . S
H1168 C1178 0.950 . S
H1169 C1180 0.950 . S
H1170 C1182 0.950 . S
H1171 C1183 0.950 . S
C1172 H1164 0.950 . S
C1172 C1173 1.386 . S
C1172 C1174 1.391 . S
C1173 C1172 1.386 . S
C1173 C1177 1.393 . S
C1174 H1166 0.950 . S
C1174 C1172 1.391 . S
C1174 C1175 1.400 . S
C1175 C1174 1.400 . S
C1175 C1176 1.398 . S
C1175 C1181 1.491 . S
C1176 H1167 0.950 . S
C1176 C1175 1.398 . S
C1176 C1177 1.391 . S
C1177 H1165 0.950 . S
C1177 C1173 1.393 . S
C1177 C1176 1.391 . S
C1178 H1168 0.950 . S
C1178 C1179 1.386 . S
C1178 C1180 1.391 . S
C1179 C1178 1.386 . S
C1179 C1183 1.393 . S
C1180 H1169 0.950 . S
C1180 C1178 1.391 . S
C1180 C1181 1.400 . S
C1181 C1175 1.491 . S
C1181 C1180 1.400 . S
C1181 C1182 1.398 . S
C1182 H1170 0.950 . S
C1182 C1181 1.398 . S
C1182 C1183 1.391 . S
C1183 H1171 0.950 . S
C1183 C1179 1.393 . S
C1183 C1182 1.391 . S
H1184 C1192 0.950 . S
H1185 C1197 0.950 . S
H1186 C1194 0.950 . S
H1187 C1196 0.950 . S
H1188 C1198 0.950 . S
H1189 C1200 0.950 . S
H1190 C1202 0.950 . S
H1191 C1203 0.950 . S
C1192 H1184 0.950 . S
C1192 C1193 1.386 . S
C1192 C1194 1.391 . S
C1193 C1192 1.386 . S
C1193 C1197 1.393 . S
C1194 H1186 0.950 . S
C1194 C1192 1.391 . S
C1194 C1195 1.400 . S
C1195 C1194 1.400 . S
C1195 C1196 1.398 . S
C1195 C1201 1.491 . S
C1196 H1187 0.950 . S
C1196 C1195 1.398 . S
C1196 C1197 1.391 . S
C1197 H1185 0.950 . S
C1197 C1193 1.393 . S
C1197 C1196 1.391 . S
C1198 H1188 0.950 . S
C1198 C1199 1.386 . S
C1198 C1200 1.391 . S
C1199 C1198 1.386 . S
C1199 C1203 1.393 . S
C1200 H1189 0.950 . S
C1200 C1198 1.391 . S
C1200 C1201 1.400 . S
C1201 C1195 1.491 . S
C1201 C1200 1.400 . S
C1201 C1202 1.398 . S
C1202 H1190 0.950 . S
C1202 C1201 1.398 . S
C1202 C1203 1.391 . S
C1203 H1191 0.950 . S
C1203 C1199 1.393 . S
C1203 C1202 1.391 . S
H1204 C1212 0.950 . S
H1205 C1217 0.950 . S
H1206 C1214 0.950 . S
H1207 C1216 0.950 . S
H1208 C1218 0.950 . S
H1209 C1220 0.950 . S
H1210 C1222 0.950 . S
H1211 C1223 0.950 . S
C1212 H1204 0.950 . S
C1212 C1213 1.386 . S
C1212 C1214 1.391 . S
C1213 C1212 1.386 . S
C1213 C1217 1.393 . S
C1214 H1206 0.950 . S
C1214 C1212 1.391 . S
C1214 C1215 1.400 . S
C1215 C1214 1.400 . S
C1215 C1216 1.398 . S
C1215 C1221 1.491 . S
C1216 H1207 0.950 . S
C1216 C1215 1.398 . S
C1216 C1217 1.391 . S
C1217 H1205 0.950 . S
C1217 C1213 1.393 . S
C1217 C1216 1.391 . S
C1218 H1208 0.950 . S
C1218 C1219 1.386 . S
C1218 C1220 1.391 . S
C1219 C1218 1.386 . S
C1219 C1223 1.393 . S
C1220 H1209 0.950 . S
C1220 C1218 1.391 . S
C1220 C1221 1.400 . S
C1221 C1215 1.491 . S
C1221 C1220 1.400 . S
C1221 C1222 1.398 . S
C1222 H1210 0.950 . S
C1222 C1221 1.398 . S
C1222 C1223 1.391 . S
C1223 H1211 0.950 . S
C1223 C1219 1.393 . S
C1223 C1222 1.391 . S
H1224 C1232 0.950 . S
H1225 C1237 0.950 . S
H1226 C1234 0.950 . S
H1227 C1236 0.950 . S
H1228 C1238 0.950 . S
H1229 C1240 0.950 . S
H1230 C1242 0.950 . S
H1231 C1243 0.950 . S
C1232 H1224 0.950 . S
C1232 C1233 1.386 . S
C1232 C1234 1.391 . S
C1233 C1232 1.386 . S
C1233 C1237 1.393 . S
C1234 H1226 0.950 . S
C1234 C1232 1.391 . S
C1234 C1235 1.400 . S
C1235 C1234 1.400 . S
C1235 C1236 1.398 . S
C1235 C1241 1.491 . S
C1236 H1227 0.950 . S
C1236 C1235 1.398 . S
C1236 C1237 1.391 . S
C1237 H1225 0.950 . S
C1237 C1233 1.393 . S
C1237 C1236 1.391 . S
C1238 H1228 0.950 . S
C1238 C1239 1.386 . S
C1238 C1240 1.391 . S
C1239 C1238 1.386 . S
C1239 C1243 1.393 . S
C1240 H1229 0.950 . S
C1240 C1238 1.391 . S
C1240 C1241 1.400 . S
C1241 C1235 1.491 . S
C1241 C1240 1.400 . S
C1241 C1242 1.398 . S
C1242 H1230 0.950 . S
C1242 C1241 1.398 . S
C1242 C1243 1.391 . S
C1243 H1231 0.950 . S
C1243 C1239 1.393 . S
C1243 C1242 1.391 . S
H1244 C1252 0.950 . S
H1245 C1257 0.950 . S
H1246 C1254 0.950 . S
H1247 C1256 0.950 . S
H1248 C1258 0.950 . S
H1249 C1260 0.950 . S
H1250 C1262 0.950 . S
H1251 C1263 0.950 . S
C1252 H1244 0.950 . S
C1252 C1253 1.386 . S
C1252 C1254 1.391 . S
C1253 C1252 1.386 . S
C1253 C1257 1.393 . S
C1254 H1246 0.950 . S
C1254 C1252 1.391 . S
C1254 C1255 1.400 . S
C1255 C1254 1.400 . S
C1255 C1256 1.398 . S
C1255 C1261 1.491 . S
C1256 H1247 0.950 . S
C1256 C1255 1.398 . S
C1256 C1257 1.391 . S
C1257 H1245 0.950 . S
C1257 C1253 1.393 . S
C1257 C1256 1.391 . S
C1258 H1248 0.950 . S
C1258 C1259 1.386 . S
C1258 C1260 1.391 . S
C1259 C1258 1.386 . S
C1259 C1263 1.393 . S
C1260 H1249 0.950 . S
C1260 C1258 1.391 . S
C1260 C1261 1.400 . S
C1261 C1255 1.491 . S
C1261 C1260 1.400 . S
C1261 C1262 1.398 . S
C1262 H1250 0.950 . S
C1262 C1261 1.398 . S
C1262 C1263 1.391 . S
C1263 H1251 0.950 . S
C1263 C1259 1.393 . S
C1263 C1262 1.391 . S
H1264 C1272 0.950 . S
H1265 C1277 0.950 . S
H1266 C1274 0.950 . S
H1267 C1276 0.950 . S
H1268 C1278 0.950 . S
H1269 C1280 0.950 . S
H1270 C1282 0.950 . S
H1271 C1283 0.950 . S
C1272 H1264 0.950 . S
C1272 C1273 1.386 . S
C1272 C1274 1.391 . S
C1273 C1272 1.386 . S
C1273 C1277 1.393 . S
C1274 H1266 0.950 . S
C1274 C1272 1.391 . S
C1274 C1275 1.400 . S
C1275 C1274 1.400 . S
C1275 C1276 1.398 1_565 S
C1275 C1281 1.491 1_566 S
C1276 H1267 0.950 . S
C1276 C1275 1.398 1_545 S
C1276 C1277 1.391 1_545 S
C1277 H1265 0.950 . S
C1277 C1273 1.393 . S
C1277 C1276 1.391 1_565 S
C1278 H1268 0.950 . S
C1278 C1279 1.386 . S
C1278 C1280 1.391 . S
C1279 C1278 1.386 . S
C1279 C1283 1.393 . S
C1280 H1269 0.950 . S
C1280 C1278 1.391 . S
C1280 C1281 1.400 . S
C1281 C1275 1.491 1_544 S
C1281 C1280 1.400 . S
C1281 C1282 1.398 1_545 S
C1282 H1270 0.950 . S
C1282 C1281 1.398 1_565 S
C1282 C1283 1.391 1_565 S
C1283 H1271 0.950 . S
C1283 C1279 1.393 . S
C1283 C1282 1.391 1_545 S
H1284 C1292 0.950 . S
H1285 C1297 0.950 . S
H1286 C1294 0.950 . S
H1287 C1296 0.950 . S
H1288 C1298 0.950 . S
H1289 C1300 0.950 . S
H1290 C1302 0.950 . S
H1291 C1303 0.950 . S
C1292 H1284 0.950 . S
C1292 C1293 1.386 . S
C1292 C1294 1.391 . S
C1293 C1292 1.386 . S
C1293 C1297 1.393 1_455 S
C1294 H1286 0.950 . S
C1294 C1292 1.391 . S
C1294 C1295 1.400 . S
C1295 C1294 1.400 . S
C1295 C1296 1.398 1_455 S
C1295 C1301 1.491 1_456 S
C1296 H1287 0.950 . S
C1296 C1295 1.398 1_655 S
C1296 C1297 1.391 . S
C1297 H1285 0.950 . S
C1297 C1293 1.393 1_655 S
C1297 C1296 1.391 . S
C1298 H1288 0.950 . S
C1298 C1299 1.386 . S
C1298 C1300 1.391 . S
C1299 C1298 1.386 . S
C1299 C1303 1.393 1_655 S
C1300 H1289 0.950 . S
C1300 C1298 1.391 . S
C1300 C1301 1.400 . S
C1301 C1295 1.491 1_654 S
C1301 C1300 1.400 . S
C1301 C1302 1.398 1_655 S
C1302 H1290 0.950 . S
C1302 C1301 1.398 1_455 S
C1302 C1303 1.391 . S
C1303 H1291 0.950 . S
C1303 C1299 1.393 1_455 S
C1303 C1302 1.391 . S
H1304 C1312 0.950 . S
H1305 C1317 0.950 . S
H1306 C1314 0.942 1_545 S
H1307 C1316 0.950 . S
H1308 C1318 0.950 . S
H1309 C1320 0.942 1_565 S
H1310 C1322 0.950 . S
H1311 C1323 0.950 . S
C1312 H1304 0.950 . S
C1312 C1313 1.386 . S
C1312 C1314 1.397 . S
C1313 C1312 1.386 . S
C1313 C1317 1.393 . S
C1314 H1306 0.942 1_565 S
C1314 C1312 1.397 . S
C1314 C1315 1.403 . S
C1315 C1314 1.403 . S
C1315 C1316 1.398 . S
C1315 C1321 1.491 1_564 S
C1316 H1307 0.950 . S
C1316 C1315 1.398 . S
C1316 C1317 1.391 . S
C1317 H1305 0.950 . S
C1317 C1313 1.393 . S
C1317 C1316 1.391 . S
C1318 H1308 0.950 . S
C1318 C1319 1.386 . S
C1318 C1320 1.397 . S
C1319 C1318 1.386 . S
C1319 C1323 1.393 . S
C1320 H1309 0.942 1_545 S
C1320 C1318 1.397 . S
C1320 C1321 1.403 . S
C1321 C1315 1.491 1_546 S
C1321 C1320 1.403 . S
C1321 C1322 1.398 . S
C1322 H1310 0.950 . S
C1322 C1321 1.398 . S
C1322 C1323 1.391 . S
C1323 H1311 0.950 . S
C1323 C1319 1.393 . S
C1323 C1322 1.391 . S
H1324 C1332 0.950 . S
H1325 C1337 0.950 . S
H1326 C1334 0.950 . S
H1327 C1336 0.950 . S
H1328 C1338 0.950 . S
H1329 C1340 0.950 . S
H1330 C1342 0.950 . S
H1331 C1343 0.950 . S
C1332 H1324 0.950 . S
C1332 C1333 1.386 . S
C1332 C1334 1.391 . S
C1333 C1332 1.386 . S
C1333 C1337 1.393 . S
C1334 H1326 0.950 . S
C1334 C1332 1.391 . S
C1334 C1335 1.400 . S
C1335 C1334 1.400 . S
C1335 C1336 1.398 . S
C1335 C1341 1.491 1_656 S
C1336 H1327 0.950 . S
C1336 C1335 1.398 . S
C1336 C1337 1.391 . S
C1337 H1325 0.950 . S
C1337 C1333 1.393 . S
C1337 C1336 1.391 . S
C1338 H1328 0.950 . S
C1338 C1339 1.386 . S
C1338 C1340 1.391 . S
C1339 C1338 1.386 . S
C1339 C1343 1.393 . S
C1340 H1329 0.950 . S
C1340 C1338 1.391 . S
C1340 C1341 1.400 . S
C1341 C1335 1.491 1_454 S
C1341 C1340 1.400 . S
C1341 C1342 1.398 . S
C1342 H1330 0.950 . S
C1342 C1341 1.398 . S
C1342 C1343 1.391 . S
C1343 H1331 0.950 . S
C1343 C1339 1.393 . S
C1343 C1342 1.391 . S
C553 C73 0.337 . S
C559 C5 0.340 . S
C573 C107 0.387 . S
C579 C39 0.404 . S
C593 C209 0.343 . S
C599 C141 0.356 . S
C613 C175 0.405 . S
C619 C243 0.388 . S
C633 C277 0.363 . S
C639 C345 0.380 . S
C653 C311 0.420 . S
C659 C379 0.406 . S
C673 C481 0.418 . S
C679 C413 0.428 . S
C693 C515 0.378 . S
C699 C447 0.361 . S
C713 C9 1.513 . S
C719 C247 1.502 . S
C733 C145 1.502 . S
C739 C43 1.512 . S
C753 C179 1.503 . S
C759 C77 1.512 . S
C773 C213 1.507 . S
C779 C111 1.508 . S
C793 C519 1.504 . S
C799 C281 1.511 . S
C813 C417 1.500 . S
C819 C315 1.515 . S
C833 C451 1.509 . S
C839 C349 1.506 . S
C853 C485 1.512 . S
C859 C383 1.503 . S
C873 C33 1.371 . S
C879 C376 1.404 . S
C893 C67 1.340 . S
C899 C274 1.413 . S
C913 C101 1.358 . S
C919 C308 1.413 . S
C933 C342 1.400 . S
C939 C135 1.372 . S
C953 C169 1.340 . S
C959 C444 1.413 . S
C973 C203 1.342 . S
C979 C478 1.409 . S
C993 C237 1.359 . S
C999 C512 1.413 . S
C1013 C271 1.352 . S
C1019 C410 1.415 . S
C1033 C104 1.409 . S
C1039 C305 1.342 . S
C1053 C2 1.404 . S
C1059 C339 1.371 . S
C1073 C36 1.412 . S
C1079 C373 1.361 . S
C1093 C407 1.346 . S
C1099 C70 1.405 . S
C1113 C441 1.372 . S
C1119 C172 1.403 . S
C1133 C475 1.344 . S
C1139 C206 1.417 . S
C1153 C509 1.357 . S
C1159 C240 1.414 . S
C1173 C543 1.360 . S
C1179 C138 1.399 . S
C1193 C156 1.773 . S
C1199 C20 1.762 . S
C1213 C190 1.768 . S
C1219 C54 1.766 . S
C1233 C88 1.765 . S
C1239 C224 1.769 . S
C1253 C258 1.767 . S
C1259 C122 1.767 . S
C1273 C292 1.768 . S
C1279 C428 1.766 . S
C1293 C462 1.763 . S
C1299 C326 1.773 . S
C1313 C496 1.767 . S
C1319 C360 1.770 . S
C1333 C530 1.768 . S
C1339 C394 1.769 . S
