# Generated by pormake.
# Topology smu, (6)-cn, num edge types: 1
# Building blocks:
#     Node 0, Type 0, BuildingBlock: BETDAH_clean_sbu_0, # of connection points: 6
#     Node 1, Type 0, BuildingBlock: BETDAH_clean_sbu_0, # of connection points: 6
#     Node 2, Type 0, BuildingBlock: BETDAH_clean_sbu_0, # of connection points: 6
#     Node 3, Type 0, BuildingBlock: BETDAH_clean_sbu_0, # of connection points: 6
#     Node 4, Type 0, BuildingBlock: BETDAH_clean_sbu_0, # of connection points: 6
#     Node 5, Type 0, BuildingBlock: BETDAH_clean_sbu_0, # of connection points: 6
#     Edge 6, Type (0, 0), BuildingBlock: FUNLAD_clean_linker_0, # of connection points: 2
#     Edge 7, Type (0, 0), BuildingBlock: FUNLAD_clean_linker_0, # of connection points: 2
#     Edge 8, Type (0, 0), BuildingBlock: FUNLAD_clean_linker_0, # of connection points: 2
#     Edge 9, Type (0, 0), BuildingBlock: FUNLAD_clean_linker_0, # of connection points: 2
#     Edge 10, Type (0, 0), BuildingBlock: FUNLAD_clean_linker_0, # of connection points: 2
#     Edge 11, Type (0, 0), BuildingBlock: FUNLAD_clean_linker_0, # of connection points: 2
#     Edge 12, Type (0, 0), BuildingBlock: FUNLAD_clean_linker_0, # of connection points: 2
#     Edge 13, Type (0, 0), BuildingBlock: FUNLAD_clean_linker_0, # of connection points: 2
#     Edge 14, Type (0, 0), BuildingBlock: FUNLAD_clean_linker_0, # of connection points: 2
#     Edge 15, Type (0, 0), BuildingBlock: FUNLAD_clean_linker_0, # of connection points: 2
#     Edge 16, Type (0, 0), BuildingBlock: FUNLAD_clean_linker_0, # of connection points: 2
#     Edge 17, Type (0, 0), BuildingBlock: FUNLAD_clean_linker_0, # of connection points: 2
#     Edge 18, Type (0, 0), BuildingBlock: FUNLAD_clean_linker_0, # of connection points: 2
#     Edge 19, Type (0, 0), BuildingBlock: FUNLAD_clean_linker_0, # of connection points: 2
#     Edge 20, Type (0, 0), BuildingBlock: FUNLAD_clean_linker_0, # of connection points: 2
#     Edge 21, Type (0, 0), BuildingBlock: FUNLAD_clean_linker_0, # of connection points: 2
#     Edge 22, Type (0, 0), BuildingBlock: FUNLAD_clean_linker_0, # of connection points: 2
#     Edge 23, Type (0, 0), BuildingBlock: FUNLAD_clean_linker_0, # of connection points: 2
# Relax obj value: 0.213
# Max RMSD: 0.304
# Mean RMSD: 0.304
data_MOF--net-smu--node1-BETDAH_clean_sbu_0--edge1-FUNLAD_clean_linker_0
_symmetry_space_group_name_H-M    P1
_symmetry_Int_Tables_number       1
_symmetry_cell_setting            triclinic
loop_
_symmetry_equiv_pos_as_xyz
'x, y, z'
_cell_length_a     43.750949
_cell_length_b     43.729448
_cell_length_c     29.909901
_cell_angle_alpha  90.240202
_cell_angle_beta   89.997298
_cell_angle_gamma 119.56958
loop_
_atom_site_label
_atom_site_type_symbol
_atom_site_fract_x
_atom_site_fract_y
_atom_site_fract_z
_atom_type_partial_charge
Ho0 Ho 0.38663 0.08763 0.2888 0.0
Ho1 Ho 0.34206 0.12079 0.31657 0.0
C2 C 0.42618 0.17128 0.31133 0.0
C3 C 0.43027 0.06952 0.25607 0.0
C4 C 0.46829 0.0871 0.24767 0.0
C5 C 0.48835 0.12384 0.24459 0.0
C6 C 0.52507 0.14067 0.2478 0.0
C7 C 0.54216 0.12091 0.25415 0.0
C8 C 0.52197 0.08398 0.25377 0.0
C9 C 0.48539 0.06728 0.25075 0.0
C10 C 0.36394 0.07471 0.37399 0.0
C11 C 0.30367 0.03864 0.29851 0.0
C12 C 0.31136 0.15317 0.35016 0.0
C13 C 0.2797 0.15656 0.34389 0.0
C14 C 0.26233 0.15955 0.3816 0.0
C15 C 0.23475 0.1668 0.37683 0.0
C16 C 0.22413 0.17143 0.33417 0.0
C17 C 0.24102 0.16756 0.29632 0.0
C18 C 0.26847 0.16005 0.30111 0.0
C19 C 0.33949 0.10478 0.22809 0.0
O20 O 0.42943 0.14431 0.29723 0.0
O21 O 0.39558 0.1677 0.32311 0.0
O22 O 0.42221 0.06755 0.29833 0.0
O23 O 0.411 0.07798 0.2311 0.0
O24 O 0.36674 0.05266 0.34777 0.0
O25 O 0.37472 0.10406 0.35456 0.0
O26 O 0.30443 0.06354 0.32455 0.0
O27 O 0.33114 0.04386 0.27387 0.0
O28 O 0.33485 0.16597 0.31835 0.0
O29 O 0.30715 0.12349 0.36624 0.0
O30 O 0.31341 0.10321 0.2504 0.0
O31 O 0.36601 0.11716 0.25335 0.0
H32 H 0.47555 0.13953 0.24205 0.0
H33 H 0.53982 0.16914 0.24798 0.0
H34 H 0.53438 0.06798 0.25766 0.0
H35 H 0.47034 0.03889 0.25333 0.0
H36 H 0.27075 0.15724 0.41488 0.0
H37 H 0.22251 0.16992 0.40667 0.0
H38 H 0.23312 0.17049 0.26302 0.0
H39 H 0.2814 0.15778 0.27141 0.0
Ho40 Ho 0.75097 0.65559 0.28706 0.0
Ho41 Ho 0.82231 0.71403 0.32084 0.0
C42 C 0.81206 0.63658 0.30801 0.0
C43 C 0.7003 0.60201 0.246 0.0
C44 C 0.67991 0.56395 0.25539 0.0
C45 C 0.65738 0.54059 0.22275 0.0
C46 C 0.63722 0.50455 0.23181 0.0
C47 C 0.63911 0.49113 0.27384 0.0
C48 C 0.66221 0.5147 0.30623 0.0
C49 C 0.68243 0.5507 0.29707 0.0
C50 C 0.75099 0.67101 0.3748 0.0
C51 C 0.76262 0.73209 0.3019 0.0
C52 C 0.88014 0.75443 0.36358 0.0
C53 C 0.91758 0.77819 0.3524 0.0
C54 C 0.93162 0.81473 0.35569 0.0
C55 C 0.96726 0.83756 0.34763 0.0
C56 C 0.9899 0.82443 0.33652 0.0
C57 C 0.97572 0.78785 0.33239 0.0
C58 C 0.93997 0.76496 0.34032 0.0
C59 C 0.81204 0.71792 0.23193 0.0
O60 O 0.77772 0.62438 0.3055 0.0
O61 O 0.83465 0.67065 0.30914 0.0
O62 O 0.69543 0.62247 0.27347 0.0
O63 O 0.73348 0.61446 0.23666 0.0
O64 O 0.72387 0.65903 0.34874 0.0
O65 O 0.77623 0.67092 0.35411 0.0
O66 O 0.78547 0.73475 0.33268 0.0
O67 O 0.74967 0.70581 0.27242 0.0
O68 O 0.86777 0.72076 0.35774 0.0
O69 O 0.85777 0.76439 0.35129 0.0
O70 O 0.83282 0.74464 0.25645 0.0
O71 O 0.80159 0.6904 0.25483 0.0
H72 H 0.65508 0.55029 0.19036 0.0
H73 H 0.6195 0.48733 0.20623 0.0
H74 H 0.66473 0.50532 0.33872 0.0
H75 H 0.69986 0.56826 0.32265 0.0
H76 H 0.91509 0.82572 0.36507 0.0
H77 H 0.97713 0.8656 0.35041 0.0
H78 H 0.99244 0.77681 0.32439 0.0
H79 H 0.93008 0.73692 0.3377 0.0
Ho80 Ho 0.94497 0.29111 0.29666 0.0
Ho81 Ho 0.91268 0.21137 0.315 0.0
C82 C 0.8626 0.24529 0.30674 0.0
C83 C 0.96923 0.35549 0.27055 0.0
C84 C 0.95695 0.38146 0.27613 0.0
C85 C 0.95455 0.39922 0.23847 0.0
C86 C 0.93966 0.4211 0.2417 0.0
C87 C 0.9269 0.42593 0.28281 0.0
C88 C 0.93012 0.40879 0.32081 0.0
C89 C 0.94477 0.38662 0.31747 0.0
C90 C 0.931 0.27182 0.38463 0.0
C91 C 0.99554 0.25735 0.30942 0.0
C92 C 0.87779 0.14718 0.34357 0.0
C93 C 0.86885 0.11092 0.33193 0.0
C94 C 0.85239 0.08462 0.36414 0.0
C95 C 0.84002 0.04935 0.35308 0.0
C96 C 0.84383 0.03958 0.30944 0.0
C97 C 0.86137 0.0662 0.27746 0.0
C98 C 0.87367 0.1016 0.28858 0.0
C99 C 0.93316 0.22945 0.22958 0.0
O100 O 0.88787 0.27227 0.28562 0.0
O101 O 0.86895 0.22302 0.32892 0.0
O102 O 0.98093 0.34698 0.30599 0.0
O103 O 0.94881 0.32813 0.24612 0.0
O104 O 0.92817 0.29715 0.36646 0.0
O105 O 0.94198 0.25915 0.35523 0.0
O106 O 0.96912 0.23052 0.32987 0.0
O107 O 0.99154 0.28184 0.2881 0.0
O108 O 0.86455 0.1617 0.31763 0.0
O109 O 0.91016 0.16908 0.35565 0.0
O110 O 0.93058 0.20179 0.24868 0.0
O111 O 0.91997 0.24329 0.2547 0.0
H112 H 0.96352 0.39553 0.20617 0.0
H113 H 0.93803 0.43417 0.21186 0.0
H114 H 0.92029 0.41161 0.3529 0.0
H115 H 0.94579 0.37292 0.34702 0.0
H116 H 0.84837 0.09129 0.39775 0.0
H117 H 0.82726 0.02966 0.37874 0.0
H118 H 0.86461 0.05959 0.24351 0.0
H119 H 0.88613 0.12156 0.26314 0.0
Ho120 Ho 0.12652 0.32944 0.81515 0.0
Ho121 Ho 0.09418 0.37571 0.79214 0.0
C122 C 0.04388 0.29306 0.80341 0.0
C123 C 0.15905 0.29803 0.84513 0.0
C124 C 0.16153 0.26598 0.83802 0.0
C125 C 0.16381 0.24792 0.8753 0.0
C126 C 0.17045 0.22001 0.86982 0.0
C127 C 0.17517 0.20979 0.82687 0.0
C128 C 0.17186 0.22727 0.78944 0.0
C129 C 0.16494 0.25504 0.79493 0.0
C130 C 0.10734 0.32687 0.72826 0.0
C131 C 0.17815 0.41349 0.81131 0.0
C132 C 0.07715 0.42083 0.76206 0.0
C133 C 0.09552 0.45919 0.75587 0.0
C134 C 0.13228 0.47869 0.75234 0.0
C135 C 0.1498 0.51543 0.75599 0.0
C136 C 0.13076 0.53317 0.7634 0.0
C137 C 0.09382 0.51357 0.7641 0.0
C138 C 0.07641 0.47695 0.76051 0.0
C139 C 0.08665 0.35488 0.87808 0.0
O140 O 0.06936 0.29336 0.82757 0.0
O141 O 0.04894 0.32059 0.77909 0.0
O142 O 0.17099 0.3212 0.8129 0.0
O143 O 0.13023 0.29445 0.86344 0.0
O144 O 0.10613 0.30063 0.74962 0.0
O145 O 0.12109 0.35363 0.75325 0.0
O146 O 0.15157 0.41759 0.79791 0.0
O147 O 0.174 0.38252 0.82215 0.0
O148 O 0.07402 0.41113 0.80373 0.0
O149 O 0.08574 0.40215 0.73603 0.0
O150 O 0.06351 0.35875 0.85575 0.0
O151 O 0.11404 0.36436 0.8549 0.0
H152 H 0.16152 0.25611 0.9088 0.0
H153 H 0.17316 0.20724 0.89932 0.0
H154 H 0.17491 0.21965 0.75595 0.0
H155 H 0.16316 0.2685 0.76555 0.0
H156 H 0.14752 0.46547 0.74878 0.0
H157 H 0.17825 0.52971 0.75543 0.0
H158 H 0.07836 0.52648 0.76892 0.0
H159 H 0.04804 0.46237 0.76349 0.0
Ho160 Ho 0.22225 0.9033 0.81695 0.0
Ho161 Ho 0.30201 0.93684 0.79825 0.0
C162 C 0.2664 0.98616 0.80937 0.0
C163 C 0.15803 0.86779 0.84511 0.0
C164 C 0.12179 0.86116 0.83737 0.0
C165 C 0.10365 0.86621 0.87273 0.0
C166 C 0.06801 0.8559 0.86853 0.0
C167 C 0.04951 0.84004 0.82888 0.0
C168 C 0.06791 0.83575 0.79303 0.0
C169 C 0.10367 0.84623 0.79719 0.0
C170 C 0.24027 0.92335 0.73159 0.0
C171 C 0.2577 0.85445 0.80975 0.0
C172 C 0.3665 0.96319 0.77158 0.0
C173 C 0.3925 0.95107 0.7763 0.0
C174 C 0.38154 0.91581 0.78649 0.0
C175 C 0.40603 0.90412 0.79001 0.0
C176 C 0.44213 0.92748 0.78378 0.0
C177 C 0.45303 0.96292 0.77412 0.0
C178 C 0.42843 0.97455 0.77032 0.0
C179 C 0.28293 0.92417 0.88643 0.0
O180 O 0.23928 0.95962 0.8292 0.0
O181 O 0.29167 0.98263 0.78935 0.0
O182 O 0.17158 0.85631 0.81485 0.0
O183 O 0.18108 0.8982 0.86214 0.0
O184 O 0.21259 0.92084 0.75069 0.0
O185 O 0.25438 0.9105 0.75663 0.0
O186 O 0.28444 0.87975 0.78826 0.0
O187 O 0.23513 0.86058 0.83168 0.0
O188 O 0.35766 0.97308 0.80838 0.0
O189 O 0.33928 0.94347 0.74646 0.0
O190 O 0.3084 0.92128 0.86856 0.0
O191 O 0.26998 0.93431 0.85648 0.0
H192 H 0.1168 0.87716 0.90427 0.0
H193 H 0.05464 0.85921 0.89705 0.0
H194 H 0.0546 0.82404 0.76185 0.0
H195 H 0.11683 0.84182 0.76929 0.0
H196 H 0.35397 0.89722 0.79162 0.0
H197 H 0.3967 0.87681 0.79813 0.0
H198 H 0.48054 0.98159 0.76873 0.0
H199 H 0.43747 1.00186 0.76245 0.0
Ho200 Ho 0.71902 0.80939 0.81749 0.0
Ho201 Ho 0.65985 0.73356 0.79588 0.0
C202 C 0.73647 0.74656 0.81611 0.0
C203 C 0.7716 0.86595 0.85007 0.0
C204 C 0.7906 0.90448 0.84534 0.0
C205 C 0.8228 0.92378 0.8675 0.0
C206 C 0.84168 0.96037 0.86441 0.0
C207 C 0.82875 0.97863 0.83911 0.0
C208 C 0.7966 0.95912 0.81619 0.0
C209 C 0.7776 0.92227 0.81937 0.0
C210 C 0.70869 0.79103 0.72907 0.0
C211 C 0.64237 0.7989 0.80278 0.0
C212 C 0.60838 0.67902 0.75803 0.0
C213 C 0.56961 0.66123 0.76019 0.0
C214 C 0.54941 0.63255 0.73197 0.0
C215 C 0.51263 0.61473 0.73446 0.0
C216 C 0.4952 0.62519 0.76537 0.0
C217 C 0.51568 0.65425 0.79341 0.0
C218 C 0.55249 0.6721 0.79079 0.0
C219 C 0.67424 0.74518 0.88373 0.0
O220 O 0.74052 0.77442 0.8385 0.0
O221 O 0.7091 0.72897 0.78902 0.0
O222 O 0.73979 0.85143 0.86655 0.0
O223 O 0.7744 0.84787 0.81701 0.0
O224 O 0.71842 0.82253 0.74381 0.0
O225 O 0.70692 0.77236 0.76161 0.0
O226 O 0.6317 0.76541 0.79343 0.0
O227 O 0.675 0.82128 0.81488 0.0
O228 O 0.6243 0.67744 0.79427 0.0
O229 O 0.62413 0.71031 0.73989 0.0
O230 O 0.65969 0.71446 0.86473 0.0
O231 O 0.67534 0.7676 0.85587 0.0
H232 H 0.8334 0.91049 0.88737 0.0
H233 H 0.86665 0.97437 0.88171 0.0
H234 H 0.78586 0.97235 0.79654 0.0
H235 H 0.75279 0.90772 0.80184 0.0
H236 H 0.5621 0.62367 0.70823 0.0
H237 H 0.49789 0.59226 0.71275 0.0
H238 H 0.50325 0.66336 0.81721 0.0
H239 H 0.56762 0.69428 0.81283 0.0
C240 C 0.31394 0.94719 0.95996 0.0
C241 C 0.28355 0.93516 0.93349 0.0
C242 C 0.31693 0.96449 1.00073 0.0
C243 C 0.2894 0.9698 1.01592 0.0
C244 C 0.25822 0.95565 0.99076 0.0
C245 C 0.25546 0.93888 0.94984 0.0
C246 C 0.2921 0.99013 0.05737 0.0
C247 C 0.32261 0.01726 0.07265 0.0
C248 C 0.32582 0.04003 0.11206 0.0
C249 C 0.35957 0.0664 0.12545 0.0
C250 C 0.36411 0.08821 0.16228 0.0
C251 C 0.33501 0.08412 0.18676 0.0
H252 H 0.27002 0.01744 0.12733 0.0
C253 C 0.30123 0.05859 0.17282 0.0
C254 C 0.29661 0.03674 0.13612 0.0
H255 H 0.27822 0.05483 0.19102 0.0
H256 H 0.33609 0.9448 0.94819 0.0
H257 H 0.34093 0.97402 1.0199 0.0
H258 H 0.23642 0.95891 1.00184 0.0
H259 H 0.23178 0.92999 0.93011 0.0
H260 H 0.26753 0.98362 0.07359 0.0
H261 H 0.34667 0.02394 0.05468 0.0
H262 H 0.38263 0.07004 0.1075 0.0
H263 H 0.39041 0.10817 0.17172 0.0
C264 C 0.71306 0.74999 0.67463 0.0
C265 C 0.71402 0.78217 0.6828 0.0
C266 C 0.72094 0.74197 0.63246 0.0
C267 C 0.72953 0.76573 0.59696 0.0
C268 C 0.7293 0.79742 0.60454 0.0
C269 C 0.72205 0.8058 0.64725 0.0
C270 C 0.73616 0.75656 0.55128 0.0
C271 C 0.75154 0.73671 0.54389 0.0
C272 C 0.7532 0.72262 0.499 0.0
C273 C 0.78005 0.71471 0.48921 0.0
C274 C 0.7802 0.6986 0.44847 0.0
C275 C 0.7529 0.68926 0.41746 0.0
H276 H 0.7048 0.71867 0.47397 0.0
C277 C 0.72622 0.69733 0.42728 0.0
C278 C 0.72643 0.71392 0.46732 0.0
H279 H 0.70486 0.69065 0.40398 0.0
H280 H 0.7066 0.73094 0.70103 0.0
H281 H 0.71959 0.71679 0.62756 0.0
H282 H 0.73521 0.81592 0.57752 0.0
H283 H 0.72292 0.83074 0.65248 0.0
H284 H 0.72795 0.76635 0.52306 0.0
H285 H 0.76289 0.72994 0.57187 0.0
H286 H 0.80082 0.7208 0.51325 0.0
H287 H 0.80112 0.69277 0.44169 0.0
C288 C 0.96865 0.2787 0.17605 0.0
C289 C 0.95147 0.24283 0.18641 0.0
C290 C 0.98865 0.29119 0.13698 0.0
C291 C 0.99204 0.26786 0.10738 0.0
C292 C 0.9742 0.23183 0.11745 0.0
C293 C 0.95446 0.21952 0.15665 0.0
C294 C 1.01268 0.27963 0.06505 0.0
C295 C 0.03816 0.31295 0.05711 0.0
C296 C 0.05586 0.32469 1.01299 0.0
C297 C 0.06619 0.359 0.99884 0.0
C298 C 0.07889 0.36975 0.95555 0.0
C299 C 0.08261 0.34681 0.92607 0.0
H300 H 0.05466 0.276 0.99438 0.0
C301 C 0.07472 0.31335 0.941 0.0
C302 C 0.06138 0.30229 0.98415 0.0
H303 H 0.07684 0.295 0.91855 0.0
H304 H 0.96771 0.29727 0.19875 0.0
H305 H 1.00112 0.31904 0.13023 0.0
H306 H 0.97593 0.21312 0.0952 0.0
H307 H 0.94166 0.19164 0.16382 0.0
H308 H 1.00612 0.25983 1.03919 0.0
H309 H 0.04481 0.33307 0.08248 0.0
H310 H 0.06254 0.3769 1.02044 0.0
H311 H 0.08426 0.39548 0.94438 0.0
C312 C 0.32666 0.02792 0.4269 0.0
C313 C 0.34807 0.06404 0.41889 0.0
C314 C 0.31449 0.01544 0.46965 0.0
C315 C 0.3233 0.03877 0.506 0.0
C316 C 0.34419 0.07513 0.49801 0.0
C317 C 0.3562 0.08777 0.4546 0.0
C318 C 0.31298 0.0251 0.55246 0.0
C319 C 0.28372 0.9942 0.56106 0.0
C320 C 0.27388 0.97715 0.60573 0.0
C321 C 0.2383 0.95345 0.61419 0.0
C322 C 0.2278 0.93552 0.65478 0.0
C323 C 0.2527 0.94004 0.68747 0.0
H324 H 0.32667 0.99946 0.63295 0.0
C325 C 0.28837 0.9634 0.67907 0.0
C326 C 0.29894 0.98189 0.63859 0.0
H327 H 0.30793 0.9684 0.70429 0.0
H328 H 0.31998 1.0089 0.40009 0.0
H329 H 0.29944 0.98727 0.47421 0.0
H330 H 0.35164 0.09371 0.52546 0.0
H331 H 0.37295 0.11572 0.44937 0.0
H332 H 0.32983 0.04071 0.57985 0.0
H333 H 0.2653 0.98064 0.534 0.0
H334 H 0.21843 0.94899 0.58942 0.0
H335 H 0.20004 0.91805 0.66063 0.0
C336 C 0.70441 0.77951 0.9543 0.0
C337 C 0.69641 0.7519 0.92408 0.0
C338 C 0.72243 0.78185 0.99442 0.0
C339 C 0.73275 0.75675 1.00463 0.0
C340 C 0.72666 0.73075 0.97262 0.0
C341 C 0.70841 0.72812 0.93343 0.0
C342 C 0.75002 0.75794 1.04833 0.0
C343 C 0.74767 0.72869 0.06711 0.0
C344 C 0.76507 0.72728 0.10947 0.0
C345 C 0.75582 0.69405 0.12725 0.0
C346 C 0.77157 0.69088 0.16635 0.0
C347 C 0.79705 0.72088 0.18876 0.0
H348 H 0.79973 0.78348 0.11883 0.0
C349 C 0.80692 0.75416 0.17074 0.0
C350 C 0.79115 0.7574 0.13156 0.0
H351 H 0.82656 0.77783 0.18732 0.0
H352 H 0.69574 0.79837 0.94772 0.0
H353 H 0.72745 0.80268 1.018 0.0
H354 H 0.73587 0.71215 0.97755 0.0
H355 H 0.70365 0.70711 0.91025 0.0
H356 H 0.76376 0.78304 0.06555 0.0
H357 H 0.73119 0.70351 1.05092 0.0
H358 H 0.73613 0.67029 0.11088 0.0
H359 H 0.76363 0.66495 0.17915 0.0
C360 C 0.95259 0.30278 0.45846 0.0
C361 C 0.94089 0.27232 0.43207 0.0
C362 C 0.96901 0.30566 0.4998 0.0
C363 C 0.97371 0.27795 0.51563 0.0
C364 C 0.95981 0.24671 0.4905 0.0
C365 C 0.94395 0.24405 0.449 0.0
C366 C 0.99325 0.2806 0.55765 0.0
C367 C 1.02053 0.31101 0.57294 0.0
C368 C 0.04277 0.31406 0.6127 0.0
C369 C 0.06877 0.34776 0.62683 0.0
C370 C 0.09037 0.35209 0.66369 0.0
C371 C 0.08644 0.32279 0.68743 0.0
H372 H 1.02064 0.2581 0.62661 0.0
C373 C 0.06117 0.28907 0.67287 0.0
C374 C 0.03956 0.28467 0.63612 0.0
H375 H 0.05759 0.26591 0.69043 0.0
H376 H 0.9507 0.32507 0.44622 0.0
H377 H 0.97837 0.32972 0.5189 0.0
H378 H 0.96263 0.22478 0.50208 0.0
H379 H 0.93527 0.22032 0.42931 0.0
H380 H 0.98605 0.25605 0.57433 0.0
H381 H 0.02777 0.33505 0.55469 0.0
H382 H 0.07236 0.37096 0.60935 0.0
H383 H 0.1102 0.37835 0.67354 0.0
C384 C 0.60501 0.1688 0.24279 0.0
C385 C 0.58027 0.13839 0.26525 0.0
C386 C 0.64075 0.18504 0.2542 0.0
C387 C 0.65239 0.17118 0.2885 0.0
C388 C 0.62744 0.14125 0.31136 0.0
C389 C 0.59195 0.12502 0.29986 0.0
C390 C 0.68995 0.18656 0.30194 0.0
C391 C 0.71755 0.20823 0.27633 0.0
C392 C 0.75469 0.21931 0.28832 0.0
C393 C 0.78202 0.24949 0.26843 0.0
C394 C 0.8172 0.25891 0.27585 0.0
C395 C 0.82582 0.23809 0.30304 0.0
H396 H 0.74345 0.1749 0.33134 0.0
C397 C 0.79853 0.20837 0.3238 0.0
C398 C 0.76345 0.19898 0.3164 0.0
H399 H 0.80412 0.19153 0.34467 0.0
H400 H 0.59678 0.17985 0.21616 0.0
H401 H 0.65887 0.20851 0.23635 0.0
H402 H 0.63546 0.1301 0.33815 0.0
H403 H 0.57353 0.10217 0.31863 0.0
H404 H 0.69483 0.17813 0.33393 0.0
H405 H 0.71316 0.21756 0.24475 0.0
H406 H 0.77612 0.26552 0.24641 0.0
H407 H 0.83755 0.28191 0.25917 0.0
C408 C 0.60993 0.42673 0.25242 0.0
C409 C 0.61627 0.45298 0.28435 0.0
C410 C 0.58738 0.39107 0.26194 0.0
C411 C 0.57055 0.38075 0.30375 0.0
C412 C 0.5771 0.40702 0.33563 0.0
C413 C 0.59972 0.44256 0.3262 0.0
C414 C 0.54416 0.34348 0.31454 0.0
C415 C 0.54114 0.31493 0.29279 0.0
C416 C 0.51262 0.2781 0.30193 0.0
C417 C 0.51699 0.2496 0.28852 0.0
C418 C 0.48965 0.21478 0.29332 0.0
C419 C 0.45705 0.20759 0.31119 0.0
H420 H 0.47516 0.29168 0.33066 0.0
C421 C 0.45305 0.23613 0.32562 0.0
C422 C 0.48029 0.2708 0.32093 0.0
H423 H 0.42836 0.23187 0.33938 0.0
H424 H 0.62236 0.43374 0.21991 0.0
H425 H 0.58256 0.37193 0.23596 0.0
H426 H 0.5643 0.40007 0.36794 0.0
H427 H 0.60346 0.46197 0.3514 0.0
H428 H 0.52678 0.33965 0.34242 0.0
H429 H 0.56037 0.31833 0.26753 0.0
H430 H 0.54148 0.25428 0.27358 0.0
H431 H 0.49382 0.19364 0.28186 0.0
C432 C 0.91607 0.47125 0.32156 0.0
C433 C 0.90945 0.44794 0.28557 0.0
C434 C 0.89979 0.49201 0.32372 0.0
C435 C 0.87634 0.4899 0.28991 0.0
C436 C 0.86924 0.46606 0.25451 0.0
C437 C 0.8857 0.44556 0.25218 0.0
C438 C 0.85827 0.51143 0.29066 0.0
C439 C 0.87116 0.54269 0.31199 0.0
C440 C 0.85465 0.56562 0.31063 0.0
C441 C 0.87597 0.60173 0.31915 0.0
C442 C 0.86206 0.62447 0.31834 0.0
C443 C 0.82617 0.61173 0.30954 0.0
H444 H 0.80099 0.52486 0.29662 0.0
C445 C 0.80452 0.57543 0.30178 0.0
C446 C 0.81858 0.55262 0.30223 0.0
H447 H 0.77673 0.56464 0.2951 0.0
H448 H 0.93417 0.47377 0.34788 0.0
H449 H 0.90534 0.50925 0.35225 0.0
H450 H 0.85105 0.46346 0.22824 0.0
H451 H 0.87943 0.42745 0.2244 0.0
H452 H 0.83471 0.50211 0.27041 0.0
H453 H 0.89631 0.55336 0.32899 0.0
H454 H 0.90374 0.61258 0.32607 0.0
H455 H 0.87963 0.65216 0.32474 0.0
C456 C 0.1791 0.59556 0.75027 0.0
C457 C 0.14911 0.57144 0.774 0.0
C458 C 0.19608 0.63151 0.76098 0.0
C459 C 0.18341 0.64398 0.7959 0.0
C460 C 0.15392 0.61964 0.82004 0.0
C461 C 0.13693 0.58394 0.8092 0.0
C462 C 0.19955 0.68181 0.80863 0.0
C463 C 0.22072 0.70896 0.78205 0.0
C464 C 0.23211 0.74635 0.7934 0.0
C465 C 0.26175 0.77341 0.77218 0.0
C466 C 0.27119 0.80874 0.77894 0.0
C467 C 0.2509 0.81773 0.80679 0.0
H468 H 0.18873 0.73579 0.83817 0.0
C469 C 0.22182 0.79072 0.82891 0.0
C470 C 0.21241 0.75555 0.82218 0.0
H471 H 0.20539 0.79657 0.85037 0.0
H472 H 0.18923 0.58669 0.72311 0.0
H473 H 0.21917 0.64913 0.74212 0.0
H474 H 0.14366 0.6283 0.84731 0.0
H475 H 0.11441 0.56602 0.82888 0.0
H476 H 0.19206 0.6873 0.84098 0.0
H477 H 0.22919 0.70397 0.7501 0.0
H478 H 0.27729 0.76717 0.7496 0.0
H479 H 0.29369 0.82885 0.76122 0.0
C480 C 0.46091 0.88228 0.76892 0.0
C481 C 0.46819 0.91487 0.78733 0.0
C482 C 0.48532 0.8704 0.77219 0.0
C483 C 0.51768 0.89071 0.79445 0.0
C484 C 0.5249 0.92335 0.81261 0.0
C485 C 0.50058 0.93528 0.80911 0.0
C486 C 0.54503 0.87965 0.79878 0.0
C487 C 0.53972 0.84706 0.78941 0.0
C488 C 0.56701 0.8359 0.79368 0.0
C489 C 0.55644 0.80003 0.78851 0.0
C490 C 0.58074 0.78804 0.7915 0.0
C491 C 0.61648 0.81164 0.79982 0.0
H492 H 0.61281 0.88751 0.80513 0.0
C493 C 0.62722 0.84755 0.80495 0.0
C494 C 0.60293 0.85959 0.80174 0.0
H495 H 0.65456 0.86658 0.81106 0.0
H496 H 0.43649 0.86613 0.7512 0.0
H497 H 0.47864 0.84557 0.75654 0.0
H498 H 0.54952 0.93977 0.82981 0.0
H499 H 0.507 0.96035 0.82407 0.0
H500 H 0.5704 0.89944 0.81143 0.0
H501 H 0.51381 0.82681 0.77896 0.0
H502 H 0.52913 0.78102 0.78207 0.0
H503 H 0.57137 0.76019 0.78733 0.0
C504 C 0.22593 0.4733 0.78581 0.0
C505 C 0.21445 0.44398 0.81398 0.0
C506 C 0.26156 0.49956 0.78513 0.0
C507 C 0.28627 0.49711 0.81303 0.0
C508 C 0.27425 0.46865 0.84256 0.0
C509 C 0.23901 0.44233 0.84275 0.0
C510 C 0.32472 0.5232 0.81267 0.0
C511 C 0.34222 0.54262 0.77678 0.0
C512 C 0.38142 0.56515 0.77508 0.0
C513 C 0.39819 0.57311 0.73326 0.0
C514 C 0.43489 0.5928 0.73008 0.0
C515 C 0.45594 0.60544 0.76871 0.0
H516 H 0.3907 0.57412 0.84662 0.0
C517 C 0.43913 0.59842 0.81056 0.0
C518 C 0.4024 0.57862 0.81375 0.0
H519 H 0.4544 0.60763 0.84107 0.0
H520 H 0.20771 0.47533 0.76318 0.0
H521 H 0.26959 0.52156 0.76271 0.0
H522 H 0.29245 0.46615 0.86481 0.0
H523 H 0.23109 0.4203 0.86517 0.0
H524 H 0.33956 0.52376 0.84203 0.0
H525 H 0.32775 0.53975 0.7461 0.0
H526 H 0.38286 0.56354 0.70281 0.0
H527 H 0.44677 0.5982 0.69722 0.0
C528 C 0.19984 0.20748 0.29964 0.0
C529 C 0.19608 0.18105 0.3295 0.0
C530 C 0.1741 0.21763 0.29698 0.0
C531 C 0.14394 0.2014 0.32411 0.0
C532 C 0.13998 0.17448 0.35312 0.0
C533 C 0.16571 0.16452 0.35594 0.0
C534 C 0.11573 0.21113 0.32374 0.0
C535 C 0.11795 0.24012 0.30462 0.0
C536 C 0.08877 0.24834 0.30797 0.0
C537 C 0.08243 0.26589 0.27293 0.0
C538 C 0.05309 0.27089 0.27409 0.0
C539 C 0.02983 0.25847 0.31045 0.0
H540 H 0.0718 0.22652 0.37441 0.0
C541 C 0.0376 0.24315 0.3467 0.0
C542 C 0.06682 0.23843 0.3457 0.0
H543 H 1.02052 0.23398 0.37563 0.0
H544 H 0.22307 0.22085 0.27897 0.0
H545 H 0.17809 0.23804 0.27359 0.0
H546 H 0.11696 0.16124 0.37421 0.0
H547 H 0.16176 0.14375 0.37881 0.0
H548 H 0.09167 0.19325 0.34111 0.0
H549 H 0.1409 0.25783 0.28538 0.0
H550 H 0.09932 0.27439 0.24382 0.0
H551 H 0.04765 0.28277 0.24569 0.0
C552 C 0.0481 0.84355 0.29826 0.0
C553 C 0.02834 0.84883 0.33151 0.0
C554 C 0.08434 0.86669 0.29425 0.0
C555 C 0.10155 0.8956 0.32357 0.0
C556 C 0.08167 0.90064 0.35668 0.0
C557 C 0.0457 0.87761 0.36072 0.0
C558 C 0.13985 0.92152 0.32161 0.0
C559 C 0.16388 0.9194 0.29533 0.0
C560 C 0.20172 0.94688 0.29723 0.0
C561 C 0.2226 0.95607 0.25846 0.0
C562 C 0.25703 0.98473 0.25899 0.0
C563 C 0.2708 1.00452 0.29832 0.0
H564 H 0.20252 0.95748 0.36845 0.0
C565 C 0.25085 0.99361 0.33768 0.0
C566 C 0.21697 0.96491 0.33732 0.0
H567 H 0.26112 1.00794 0.36873 0.0
H568 H 0.03547 0.82178 0.27495 0.0
H569 H 0.09841 0.86184 0.26801 0.0
H570 H 0.09407 0.92249 0.37996 0.0
H571 H 0.03158 0.88215 0.38731 0.0
H572 H 0.14873 0.94418 0.34361 0.0
H573 H 0.15597 0.89836 0.27104 0.0
H574 H 0.21175 0.94215 0.22733 0.0
H575 H 0.27201 0.99253 0.22827 0.0
C576 C 0.79565 0.97653 0.31354 0.0
C577 C 0.8289 1.00168 0.29755 0.0
C578 C 0.78212 0.94072 0.30447 0.0
C579 C 0.80169 0.92903 0.27945 0.0
C580 C 0.83429 0.95429 0.26196 0.0
C581 C 0.84779 0.99018 0.27092 0.0
C582 C 0.78954 0.89091 0.27195 0.0
C583 C 0.76706 0.86532 0.29958 0.0
C584 C 0.76026 0.82845 0.29756 0.0
C585 C 0.75456 0.81011 0.33786 0.0
C586 C 0.7527 0.77733 0.33864 0.0
C587 C 0.75543 0.76162 0.29894 0.0
H588 H 0.76425 0.82484 0.22555 0.0
C589 C 0.7581 0.77842 0.25805 0.0
C590 C 0.76084 0.81181 0.25734 0.0
H591 H 0.76039 0.76688 0.22703 0.0
H592 H 0.77994 0.98455 0.33309 0.0
H593 H 0.75631 0.92244 0.31714 0.0
H594 H 0.84988 0.94619 0.24227 0.0
H595 H 0.87347 1.0088 0.25807 0.0
H596 H 0.80235 0.8842 0.24561 0.0
H597 H 0.75669 0.87229 0.32843 0.0
H598 H 0.75359 0.82206 0.36925 0.0
H599 H 0.75074 0.76494 0.37063 0.0
C600 C 0.21195 0.18638 0.79251 0.0
C601 C 0.18476 0.18184 0.82156 0.0
C602 C 0.22252 0.16098 0.78983 0.0
C603 C 0.20594 0.13046 0.81617 0.0
C604 C 0.17808 0.12559 0.8441 0.0
C605 C 0.1677 0.15099 0.84694 0.0
C606 C 0.2165 0.10294 0.81628 0.0
C607 C 0.24691 0.1067 0.79986 0.0
C608 C 0.25602 0.07832 0.8046 0.0
C609 C 0.27458 0.07219 0.77061 0.0
C610 C 0.28004 0.04318 0.77295 0.0
C611 C 0.26706 0.02016 0.80945 0.0
H612 H 0.23288 0.06171 0.8705 0.0
C613 C 0.25083 0.02788 0.8448 0.0
C614 C 0.24565 0.05676 0.84262 0.0
H615 H 0.24126 1.01098 0.87382 0.0
H616 H 0.22568 0.21001 0.77265 0.0
H617 H 0.24358 0.16555 0.76717 0.0
H618 H 0.16457 0.10222 0.86449 0.0
H619 H 0.14635 0.14653 0.86916 0.0
H620 H 0.19828 0.07826 0.83217 0.0
H621 H 0.26521 0.1303 0.78218 0.0
H622 H 0.28343 0.08887 0.74137 0.0
H623 H 0.29266 0.03775 0.74528 0.0
C624 C 0.988 0.79431 0.80613 0.0
C625 C 1.011 0.82712 0.82577 0.0
C626 C 0.95155 0.78122 0.80608 0.0
C627 C 0.9373 0.80083 0.8255 0.0
C628 C 0.96043 0.83386 0.84426 0.0
C629 C 0.99671 0.84687 0.84434 0.0
C630 C 0.89876 0.78769 0.82909 0.0
C631 C 0.87325 0.76005 0.80639 0.0
C632 C 0.83544 0.74983 0.81127 0.0
C633 C 0.8127 0.73699 0.77417 0.0
C634 C 0.77862 0.73244 0.77656 0.0
C635 C 0.76685 0.7405 0.81624 0.0
H636 H 0.83833 0.76274 0.88192 0.0
C637 C 0.78842 0.75008 0.85438 0.0
C638 C 0.82219 0.75445 0.85206 0.0
H639 H 0.77988 0.75614 0.88555 0.0
H640 H 0.99807 0.77818 0.79207 0.0
H641 H 0.9348 0.75542 0.79193 0.0
H642 H 0.95038 0.84968 0.8594 0.0
H643 H 1.0136 0.87242 0.8592 0.0
H644 H 0.89113 0.80273 0.85085 0.0
H645 H 0.88007 0.74638 0.78143 0.0
H646 H 0.82203 0.73261 0.74254 0.0
H647 H 0.76265 0.72528 0.74655 0.0
C648 C 0.99813 0.24147 0.84413 0.0
C649 C 1.0095 0.2604 0.80412 0.0
C650 C 0.96898 0.20773 0.84472 0.0
C651 C 0.95101 0.19147 0.80486 0.0
C652 C 0.96107 0.21139 0.76526 0.0
C653 C 0.99001 0.24567 0.76489 0.0
C654 C 0.92256 0.15373 0.80339 0.0
C655 C 0.91943 0.13015 0.83474 0.0
C656 C 0.89292 0.09192 0.83459 0.0
C657 C 0.88717 0.0735 0.87487 0.0
C658 C 0.86543 0.03711 0.8764 0.0
C659 C 0.84897 0.01784 0.83751 0.0
H660 H 0.87955 0.086 0.76389 0.0
C661 C 0.85361 0.03627 0.79729 0.0
C662 C 0.87544 0.07297 0.79577 0.0
H663 H 0.8415 0.0222 0.76665 0.0
H664 H 1.01233 0.25253 0.87505 0.0
H665 H 0.96119 0.19455 0.87659 0.0
H666 H 0.94741 0.19994 0.73417 0.0
H667 H 0.99822 0.25979 0.73359 0.0
H668 H 0.90482 0.1451 0.77494 0.0
H669 H 0.93776 0.13885 0.86253 0.0
H670 H 0.90007 0.08728 0.90539 0.0
H671 H 0.8619 0.02397 0.90816 0.0
loop_
_geom_bond_atom_site_label_1
_geom_bond_atom_site_label_2
_geom_bond_distance
_geom_bond_site_symmetry_2
_ccdc_geom_bond_type
Ho0 C3 2.811 . S
Ho0 O20 2.322 . S
Ho0 O22 2.378 . S
Ho0 O23 2.524 . S
Ho0 O24 2.381 . S
Ho0 O25 2.669 . S
Ho0 O27 2.346 . S
Ho0 O31 2.305 . S
Ho1 C12 2.811 . S
Ho1 O21 2.346 . S
Ho1 O25 2.305 . S
Ho1 O26 2.322 . S
Ho1 O28 2.378 . S
Ho1 O29 2.524 . S
Ho1 O30 2.381 . S
Ho1 O31 2.669 . S
C2 O20 1.259 . S
C2 O21 1.268 . S
C3 Ho0 2.811 . S
C3 C4 1.488 . S
C3 O22 1.215 . S
C3 O23 1.289 . S
C4 C3 1.488 . S
C4 C5 1.348 . S
C4 C9 1.413 . S
C5 C4 1.348 . S
C5 C6 1.442 . S
C5 H32 0.930 . S
C6 C5 1.442 . S
C6 C7 1.381 . S
C6 H33 0.931 . S
C7 C6 1.381 . S
C7 C8 1.321 . S
C8 C7 1.321 . S
C8 C9 1.403 . S
C8 H34 0.934 . S
C9 C4 1.413 . S
C9 C8 1.403 . S
C9 H35 0.930 . S
C10 O24 1.275 . S
C10 O25 1.256 . S
C11 O26 1.259 . S
C11 O27 1.268 . S
C12 Ho1 2.811 . S
C12 C13 1.488 . S
C12 O28 1.215 . S
C12 O29 1.289 . S
C13 C12 1.488 . S
C13 C14 1.348 . S
C13 C18 1.413 . S
C14 C13 1.348 . S
C14 C15 1.442 . S
C14 H36 0.930 . S
C15 C14 1.442 . S
C15 C16 1.381 . S
C15 H37 0.931 . S
C16 C15 1.381 . S
C16 C17 1.321 . S
C17 C16 1.321 . S
C17 C18 1.403 . S
C17 H38 0.934 . S
C18 C13 1.413 . S
C18 C17 1.403 . S
C18 H39 0.930 . S
C19 O30 1.275 . S
C19 O31 1.256 . S
O20 Ho0 2.322 . S
O20 C2 1.259 . S
O21 Ho1 2.346 . S
O21 C2 1.268 . S
O22 Ho0 2.378 . S
O22 C3 1.215 . S
O23 Ho0 2.524 . S
O23 C3 1.289 . S
O24 Ho0 2.381 . S
O24 C10 1.275 . S
O25 Ho0 2.669 . S
O25 Ho1 2.305 . S
O25 C10 1.256 . S
O26 Ho1 2.322 . S
O26 C11 1.259 . S
O27 Ho0 2.346 . S
O27 C11 1.268 . S
O28 Ho1 2.378 . S
O28 C12 1.215 . S
O29 Ho1 2.524 . S
O29 C12 1.289 . S
O30 Ho1 2.381 . S
O30 C19 1.275 . S
O31 Ho0 2.305 . S
O31 Ho1 2.669 . S
O31 C19 1.256 . S
H32 C5 0.930 . S
H33 C6 0.931 . S
H34 C8 0.934 . S
H35 C9 0.930 . S
H36 C14 0.930 . S
H37 C15 0.931 . S
H38 C17 0.934 . S
H39 C18 0.930 . S
Ho40 C43 2.811 . S
Ho40 O60 2.322 . S
Ho40 O62 2.378 . S
Ho40 O63 2.524 . S
Ho40 O64 2.381 . S
Ho40 O65 2.669 . S
Ho40 O67 2.346 . S
Ho40 O71 2.305 . S
Ho41 C52 2.811 . S
Ho41 O61 2.346 . S
Ho41 O65 2.305 . S
Ho41 O66 2.322 . S
Ho41 O68 2.378 . S
Ho41 O69 2.524 . S
Ho41 O70 2.381 . S
Ho41 O71 2.669 . S
C42 O60 1.259 . S
C42 O61 1.268 . S
C43 Ho40 2.811 . S
C43 C44 1.488 . S
C43 O62 1.215 . S
C43 O63 1.289 . S
C44 C43 1.488 . S
C44 C45 1.348 . S
C44 C49 1.413 . S
C45 C44 1.348 . S
C45 C46 1.442 . S
C45 H72 0.930 . S
C46 C45 1.442 . S
C46 C47 1.381 . S
C46 H73 0.931 . S
C47 C46 1.381 . S
C47 C48 1.321 . S
C48 C47 1.321 . S
C48 C49 1.403 . S
C48 H74 0.934 . S
C49 C44 1.413 . S
C49 C48 1.403 . S
C49 H75 0.930 . S
C50 O64 1.275 . S
C50 O65 1.256 . S
C51 O66 1.259 . S
C51 O67 1.268 . S
C52 Ho41 2.811 . S
C52 C53 1.488 . S
C52 O68 1.215 . S
C52 O69 1.289 . S
C53 C52 1.488 . S
C53 C54 1.348 . S
C53 C58 1.413 . S
C54 C53 1.348 . S
C54 C55 1.442 . S
C54 H76 0.930 . S
C55 C54 1.442 . S
C55 C56 1.381 . S
C55 H77 0.931 . S
C56 C55 1.381 . S
C56 C57 1.321 . S
C57 C56 1.321 . S
C57 C58 1.403 . S
C57 H78 0.934 . S
C58 C53 1.413 . S
C58 C57 1.403 . S
C58 H79 0.930 . S
C59 O70 1.275 . S
C59 O71 1.256 . S
O60 Ho40 2.322 . S
O60 C42 1.259 . S
O61 Ho41 2.346 . S
O61 C42 1.268 . S
O62 Ho40 2.378 . S
O62 C43 1.215 . S
O63 Ho40 2.524 . S
O63 C43 1.289 . S
O64 Ho40 2.381 . S
O64 C50 1.275 . S
O65 Ho40 2.669 . S
O65 Ho41 2.305 . S
O65 C50 1.256 . S
O66 Ho41 2.322 . S
O66 C51 1.259 . S
O67 Ho40 2.346 . S
O67 C51 1.268 . S
O68 Ho41 2.378 . S
O68 C52 1.215 . S
O69 Ho41 2.524 . S
O69 C52 1.289 . S
O70 Ho41 2.381 . S
O70 C59 1.275 . S
O71 Ho40 2.305 . S
O71 Ho41 2.669 . S
O71 C59 1.256 . S
H72 C45 0.930 . S
H73 C46 0.931 . S
H74 C48 0.934 . S
H75 C49 0.930 . S
H76 C54 0.930 . S
H77 C55 0.931 . S
H78 C57 0.934 . S
H79 C58 0.930 . S
Ho80 C83 2.811 . S
Ho80 O100 2.322 . S
Ho80 O102 2.378 . S
Ho80 O103 2.524 . S
Ho80 O104 2.381 . S
Ho80 O105 2.669 . S
Ho80 O107 2.346 . S
Ho80 O111 2.305 . S
Ho81 C92 2.811 . S
Ho81 O101 2.346 . S
Ho81 O105 2.305 . S
Ho81 O106 2.322 . S
Ho81 O108 2.378 . S
Ho81 O109 2.524 . S
Ho81 O110 2.381 . S
Ho81 O111 2.669 . S
C82 O100 1.259 . S
C82 O101 1.268 . S
C83 Ho80 2.811 . S
C83 C84 1.488 . S
C83 O102 1.215 . S
C83 O103 1.289 . S
C84 C83 1.488 . S
C84 C85 1.348 . S
C84 C89 1.413 . S
C85 C84 1.348 . S
C85 C86 1.442 . S
C85 H112 0.930 . S
C86 C85 1.442 . S
C86 C87 1.381 . S
C86 H113 0.931 . S
C87 C86 1.381 . S
C87 C88 1.321 . S
C88 C87 1.321 . S
C88 C89 1.403 . S
C88 H114 0.934 . S
C89 C84 1.413 . S
C89 C88 1.403 . S
C89 H115 0.930 . S
C90 O104 1.275 . S
C90 O105 1.256 . S
C91 O106 1.259 . S
C91 O107 1.268 . S
C92 Ho81 2.811 . S
C92 C93 1.488 . S
C92 O108 1.215 . S
C92 O109 1.289 . S
C93 C92 1.488 . S
C93 C94 1.348 . S
C93 C98 1.413 . S
C94 C93 1.348 . S
C94 C95 1.442 . S
C94 H116 0.930 . S
C95 C94 1.442 . S
C95 C96 1.381 . S
C95 H117 0.931 . S
C96 C95 1.381 . S
C96 C97 1.321 . S
C97 C96 1.321 . S
C97 C98 1.403 . S
C97 H118 0.934 . S
C98 C93 1.413 . S
C98 C97 1.403 . S
C98 H119 0.930 . S
C99 O110 1.275 . S
C99 O111 1.256 . S
O100 Ho80 2.322 . S
O100 C82 1.259 . S
O101 Ho81 2.346 . S
O101 C82 1.268 . S
O102 Ho80 2.378 . S
O102 C83 1.215 . S
O103 Ho80 2.524 . S
O103 C83 1.289 . S
O104 Ho80 2.381 . S
O104 C90 1.275 . S
O105 Ho80 2.669 . S
O105 Ho81 2.305 . S
O105 C90 1.256 . S
O106 Ho81 2.322 . S
O106 C91 1.259 . S
O107 Ho80 2.346 . S
O107 C91 1.268 . S
O108 Ho81 2.378 . S
O108 C92 1.215 . S
O109 Ho81 2.524 . S
O109 C92 1.289 . S
O110 Ho81 2.381 . S
O110 C99 1.275 . S
O111 Ho80 2.305 . S
O111 Ho81 2.669 . S
O111 C99 1.256 . S
H112 C85 0.930 . S
H113 C86 0.931 . S
H114 C88 0.934 . S
H115 C89 0.930 . S
H116 C94 0.930 . S
H117 C95 0.931 . S
H118 C97 0.934 . S
H119 C98 0.930 . S
Ho120 C123 2.811 . S
Ho120 O140 2.322 . S
Ho120 O142 2.378 . S
Ho120 O143 2.524 . S
Ho120 O144 2.381 . S
Ho120 O145 2.669 . S
Ho120 O147 2.346 . S
Ho120 O151 2.305 . S
Ho121 C132 2.811 . S
Ho121 O141 2.346 . S
Ho121 O145 2.305 . S
Ho121 O146 2.322 . S
Ho121 O148 2.378 . S
Ho121 O149 2.524 . S
Ho121 O150 2.381 . S
Ho121 O151 2.669 . S
C122 O140 1.259 . S
C122 O141 1.268 . S
C123 Ho120 2.811 . S
C123 C124 1.488 . S
C123 O142 1.215 . S
C123 O143 1.289 . S
C124 C123 1.488 . S
C124 C125 1.348 . S
C124 C129 1.413 . S
C125 C124 1.348 . S
C125 C126 1.442 . S
C125 H152 0.930 . S
C126 C125 1.442 . S
C126 C127 1.381 . S
C126 H153 0.931 . S
C127 C126 1.381 . S
C127 C128 1.321 . S
C128 C127 1.321 . S
C128 C129 1.403 . S
C128 H154 0.934 . S
C129 C124 1.413 . S
C129 C128 1.403 . S
C129 H155 0.930 . S
C130 O144 1.275 . S
C130 O145 1.256 . S
C131 O146 1.259 . S
C131 O147 1.268 . S
C132 Ho121 2.811 . S
C132 C133 1.488 . S
C132 O148 1.215 . S
C132 O149 1.289 . S
C133 C132 1.488 . S
C133 C134 1.348 . S
C133 C138 1.413 . S
C134 C133 1.348 . S
C134 C135 1.442 . S
C134 H156 0.930 . S
C135 C134 1.442 . S
C135 C136 1.381 . S
C135 H157 0.931 . S
C136 C135 1.381 . S
C136 C137 1.321 . S
C137 C136 1.321 . S
C137 C138 1.403 . S
C137 H158 0.934 . S
C138 C133 1.413 . S
C138 C137 1.403 . S
C138 H159 0.930 . S
C139 O150 1.275 . S
C139 O151 1.256 . S
O140 Ho120 2.322 . S
O140 C122 1.259 . S
O141 Ho121 2.346 . S
O141 C122 1.268 . S
O142 Ho120 2.378 . S
O142 C123 1.215 . S
O143 Ho120 2.524 . S
O143 C123 1.289 . S
O144 Ho120 2.381 . S
O144 C130 1.275 . S
O145 Ho120 2.669 . S
O145 Ho121 2.305 . S
O145 C130 1.256 . S
O146 Ho121 2.322 . S
O146 C131 1.259 . S
O147 Ho120 2.346 . S
O147 C131 1.268 . S
O148 Ho121 2.378 . S
O148 C132 1.215 . S
O149 Ho121 2.524 . S
O149 C132 1.289 . S
O150 Ho121 2.381 . S
O150 C139 1.275 . S
O151 Ho120 2.305 . S
O151 Ho121 2.669 . S
O151 C139 1.256 . S
H152 C125 0.930 . S
H153 C126 0.931 . S
H154 C128 0.934 . S
H155 C129 0.930 . S
H156 C134 0.930 . S
H157 C135 0.931 . S
H158 C137 0.934 . S
H159 C138 0.930 . S
Ho160 C163 2.811 . S
Ho160 O180 2.322 . S
Ho160 O182 2.378 . S
Ho160 O183 2.524 . S
Ho160 O184 2.381 . S
Ho160 O185 2.669 . S
Ho160 O187 2.346 . S
Ho160 O191 2.305 . S
Ho161 C172 2.811 . S
Ho161 O181 2.346 . S
Ho161 O185 2.305 . S
Ho161 O186 2.322 . S
Ho161 O188 2.378 . S
Ho161 O189 2.524 . S
Ho161 O190 2.381 . S
Ho161 O191 2.669 . S
C162 O180 1.259 . S
C162 O181 1.268 . S
C163 Ho160 2.811 . S
C163 C164 1.488 . S
C163 O182 1.215 . S
C163 O183 1.289 . S
C164 C163 1.488 . S
C164 C165 1.348 . S
C164 C169 1.413 . S
C165 C164 1.348 . S
C165 C166 1.442 . S
C165 H192 0.930 . S
C166 C165 1.442 . S
C166 C167 1.381 . S
C166 H193 0.931 . S
C167 C166 1.381 . S
C167 C168 1.321 . S
C168 C167 1.321 . S
C168 C169 1.403 . S
C168 H194 0.934 . S
C169 C164 1.413 . S
C169 C168 1.403 . S
C169 H195 0.930 . S
C170 O184 1.275 . S
C170 O185 1.256 . S
C171 O186 1.259 . S
C171 O187 1.268 . S
C172 Ho161 2.811 . S
C172 C173 1.488 . S
C172 O188 1.215 . S
C172 O189 1.289 . S
C173 C172 1.488 . S
C173 C174 1.348 . S
C173 C178 1.413 . S
C174 C173 1.348 . S
C174 C175 1.442 . S
C174 H196 0.930 . S
C175 C174 1.442 . S
C175 C176 1.381 . S
C175 H197 0.931 . S
C176 C175 1.381 . S
C176 C177 1.321 . S
C177 C176 1.321 . S
C177 C178 1.403 . S
C177 H198 0.934 . S
C178 C173 1.413 . S
C178 C177 1.403 . S
C178 H199 0.930 . S
C179 O190 1.275 . S
C179 O191 1.256 . S
O180 Ho160 2.322 . S
O180 C162 1.259 . S
O181 Ho161 2.346 . S
O181 C162 1.268 . S
O182 Ho160 2.378 . S
O182 C163 1.215 . S
O183 Ho160 2.524 . S
O183 C163 1.289 . S
O184 Ho160 2.381 . S
O184 C170 1.275 . S
O185 Ho160 2.669 . S
O185 Ho161 2.305 . S
O185 C170 1.256 . S
O186 Ho161 2.322 . S
O186 C171 1.259 . S
O187 Ho160 2.346 . S
O187 C171 1.268 . S
O188 Ho161 2.378 . S
O188 C172 1.215 . S
O189 Ho161 2.524 . S
O189 C172 1.289 . S
O190 Ho161 2.381 . S
O190 C179 1.275 . S
O191 Ho160 2.305 . S
O191 Ho161 2.669 . S
O191 C179 1.256 . S
H192 C165 0.930 . S
H193 C166 0.931 . S
H194 C168 0.934 . S
H195 C169 0.930 . S
H196 C174 0.930 . S
H197 C175 0.931 . S
H198 C177 0.934 . S
H199 C178 0.930 . S
Ho200 C203 2.811 . S
Ho200 O220 2.322 . S
Ho200 O222 2.378 . S
Ho200 O223 2.524 . S
Ho200 O224 2.381 . S
Ho200 O225 2.669 . S
Ho200 O227 2.346 . S
Ho200 O231 2.305 . S
Ho201 C212 2.811 . S
Ho201 O221 2.346 . S
Ho201 O225 2.305 . S
Ho201 O226 2.322 . S
Ho201 O228 2.378 . S
Ho201 O229 2.524 . S
Ho201 O230 2.381 . S
Ho201 O231 2.669 . S
C202 O220 1.259 . S
C202 O221 1.268 . S
C203 Ho200 2.811 . S
C203 C204 1.488 . S
C203 O222 1.215 . S
C203 O223 1.289 . S
C204 C203 1.488 . S
C204 C205 1.348 . S
C204 C209 1.413 . S
C205 C204 1.348 . S
C205 C206 1.442 . S
C205 H232 0.930 . S
C206 C205 1.442 . S
C206 C207 1.381 . S
C206 H233 0.931 . S
C207 C206 1.381 . S
C207 C208 1.321 . S
C208 C207 1.321 . S
C208 C209 1.403 . S
C208 H234 0.934 . S
C209 C204 1.413 . S
C209 C208 1.403 . S
C209 H235 0.930 . S
C210 O224 1.275 . S
C210 O225 1.256 . S
C211 O226 1.259 . S
C211 O227 1.268 . S
C212 Ho201 2.811 . S
C212 C213 1.488 . S
C212 O228 1.215 . S
C212 O229 1.289 . S
C213 C212 1.488 . S
C213 C214 1.348 . S
C213 C218 1.413 . S
C214 C213 1.348 . S
C214 C215 1.442 . S
C214 H236 0.930 . S
C215 C214 1.442 . S
C215 C216 1.381 . S
C215 H237 0.931 . S
C216 C215 1.381 . S
C216 C217 1.321 . S
C217 C216 1.321 . S
C217 C218 1.403 . S
C217 H238 0.934 . S
C218 C213 1.413 . S
C218 C217 1.403 . S
C218 H239 0.930 . S
C219 O230 1.275 . S
C219 O231 1.256 . S
O220 Ho200 2.322 . S
O220 C202 1.259 . S
O221 Ho201 2.346 . S
O221 C202 1.268 . S
O222 Ho200 2.378 . S
O222 C203 1.215 . S
O223 Ho200 2.524 . S
O223 C203 1.289 . S
O224 Ho200 2.381 . S
O224 C210 1.275 . S
O225 Ho200 2.669 . S
O225 Ho201 2.305 . S
O225 C210 1.256 . S
O226 Ho201 2.322 . S
O226 C211 1.259 . S
O227 Ho200 2.346 . S
O227 C211 1.268 . S
O228 Ho201 2.378 . S
O228 C212 1.215 . S
O229 Ho201 2.524 . S
O229 C212 1.289 . S
O230 Ho201 2.381 . S
O230 C219 1.275 . S
O231 Ho200 2.305 . S
O231 Ho201 2.669 . S
O231 C219 1.256 . S
H232 C205 0.930 . S
H233 C206 0.931 . S
H234 C208 0.934 . S
H235 C209 0.930 . S
H236 C214 0.930 . S
H237 C215 0.931 . S
H238 C217 0.934 . S
H239 C218 0.930 . S
C240 C241 1.386 . S
C240 C242 1.383 . S
C240 H256 0.951 . S
C241 C240 1.386 . S
C241 C245 1.383 . S
C242 C240 1.383 . S
C242 C243 1.402 . S
C242 H257 0.951 . S
C243 C242 1.402 . S
C243 C244 1.375 . S
C243 C246 1.481 . S
C244 C243 1.375 . S
C244 C245 1.367 . S
C244 H258 0.951 . S
C245 C241 1.383 . S
C245 C244 1.367 . S
C245 H259 0.950 . S
C246 C243 1.481 . S
C246 C247 1.297 1_565 S
C246 H260 0.950 1_556 S
C247 C246 1.297 1_545 S
C247 C248 1.479 1_556 S
C247 H261 0.950 . S
C248 C247 1.479 1_554 S
C248 C249 1.375 . S
C248 C254 1.404 . S
C249 C248 1.375 . S
C249 C250 1.369 . S
C249 H262 0.950 . S
C250 C249 1.369 . S
C250 C251 1.392 . S
C250 H263 0.951 . S
C251 C250 1.392 . S
C251 C253 1.384 . S
H252 C254 0.949 . S
C253 C251 1.384 . S
C253 C254 1.385 . S
C253 H255 0.950 . S
C254 C248 1.404 . S
C254 H252 0.949 . S
C254 C253 1.385 . S
H255 C253 0.950 . S
H256 C240 0.951 . S
H257 C242 0.951 . S
H258 C244 0.951 . S
H259 C245 0.950 . S
H260 C246 0.950 1_554 S
H261 C247 0.950 . S
H262 C249 0.950 . S
H263 C250 0.951 . S
C264 C265 1.386 . S
C264 C266 1.383 . S
C264 H280 0.951 . S
C265 C264 1.386 . S
C265 C269 1.383 . S
C266 C264 1.383 . S
C266 C267 1.402 . S
C266 H281 0.951 . S
C267 C266 1.402 . S
C267 C268 1.375 . S
C267 C270 1.481 . S
C268 C267 1.375 . S
C268 C269 1.367 . S
C268 H282 0.951 . S
C269 C265 1.383 . S
C269 C268 1.367 . S
C269 H283 0.950 . S
C270 C267 1.481 . S
C270 C271 1.297 . S
C270 H284 0.950 . S
C271 C270 1.297 . S
C271 C272 1.479 . S
C271 H285 0.950 . S
C272 C271 1.479 . S
C272 C273 1.375 . S
C272 C278 1.404 . S
C273 C272 1.375 . S
C273 C274 1.369 . S
C273 H286 0.950 . S
C274 C273 1.369 . S
C274 C275 1.392 . S
C274 H287 0.951 . S
C275 C274 1.392 . S
C275 C277 1.384 . S
H276 C278 0.949 . S
C277 C275 1.384 . S
C277 C278 1.385 . S
C277 H279 0.950 . S
C278 C272 1.404 . S
C278 H276 0.949 . S
C278 C277 1.385 . S
H279 C277 0.950 . S
H280 C264 0.951 . S
H281 C266 0.951 . S
H282 C268 0.951 . S
H283 C269 0.950 . S
H284 C270 0.950 . S
H285 C271 0.950 . S
H286 C273 0.950 . S
H287 C274 0.951 . S
C288 C289 1.386 . S
C288 C290 1.383 . S
C288 H304 0.951 . S
C289 C288 1.386 . S
C289 C293 1.383 . S
C290 C288 1.383 . S
C290 C291 1.402 . S
C290 H305 0.951 . S
C291 C290 1.402 . S
C291 C292 1.375 . S
C291 C294 1.481 . S
C292 C291 1.375 . S
C292 C293 1.367 . S
C292 H306 0.951 . S
C293 C289 1.383 . S
C293 C292 1.367 . S
C293 H307 0.950 . S
C294 C291 1.481 . S
C294 C295 1.301 1_655 S
C294 H308 0.950 1_554 S
C295 C294 1.301 1_455 S
C295 C296 1.458 1_554 S
C295 H309 0.971 . S
C296 C295 1.458 1_556 S
C296 C297 1.375 . S
C296 C302 1.404 . S
C297 C296 1.375 . S
C297 C298 1.369 . S
C297 H310 0.950 . S
C298 C297 1.369 . S
C298 C299 1.392 . S
C298 H311 0.951 . S
C299 C298 1.392 . S
C299 C301 1.384 . S
H300 C302 0.949 . S
C301 C299 1.384 . S
C301 C302 1.385 . S
C301 H303 0.950 . S
C302 C296 1.404 . S
C302 H300 0.949 . S
C302 C301 1.385 . S
H303 C301 0.950 . S
H304 C288 0.951 . S
H305 C290 0.951 . S
H306 C292 0.951 . S
H307 C293 0.950 . S
H308 C294 0.950 1_556 S
H309 C295 0.971 . S
H310 C297 0.950 . S
H311 C298 0.951 . S
C312 C313 1.386 . S
C312 C314 1.383 . S
C312 H328 0.951 . S
C313 C312 1.386 . S
C313 C317 1.383 . S
C314 C312 1.383 . S
C314 C315 1.402 . S
C314 H329 0.951 1_545 S
C315 C314 1.402 . S
C315 C316 1.375 . S
C315 C318 1.481 . S
C316 C315 1.375 . S
C316 C317 1.367 . S
C316 H330 0.951 . S
C317 C313 1.383 . S
C317 C316 1.367 . S
C317 H331 0.950 . S
C318 C315 1.481 . S
C318 C319 1.297 1_545 S
C318 H332 0.950 . S
C319 C318 1.297 1_565 S
C319 C320 1.479 . S
C319 H333 0.950 . S
C320 C319 1.479 . S
C320 C321 1.375 . S
C320 C326 1.404 . S
C321 C320 1.375 . S
C321 C322 1.369 . S
C321 H334 0.950 . S
C322 C321 1.369 . S
C322 C323 1.392 . S
C322 H335 0.951 . S
C323 C322 1.392 . S
C323 C325 1.384 . S
H324 C326 0.949 . S
C325 C323 1.384 . S
C325 C326 1.385 . S
C325 H327 0.950 . S
C326 C320 1.404 . S
C326 H324 0.949 . S
C326 C325 1.385 . S
H327 C325 0.950 . S
H328 C312 0.951 . S
H329 C314 0.951 1_565 S
H330 C316 0.951 . S
H331 C317 0.950 . S
H332 C318 0.950 . S
H333 C319 0.950 . S
H334 C321 0.950 . S
H335 C322 0.951 . S
C336 C337 1.386 . S
C336 C338 1.383 . S
C336 H352 0.951 . S
C337 C336 1.386 . S
C337 C341 1.383 . S
C338 C336 1.383 . S
C338 C339 1.402 . S
C338 H353 0.951 . S
C339 C338 1.402 . S
C339 C340 1.375 . S
C339 C342 1.481 . S
C340 C339 1.375 . S
C340 C341 1.367 . S
C340 H354 0.951 . S
C341 C337 1.383 . S
C341 C340 1.367 . S
C341 H355 0.950 . S
C342 C339 1.481 . S
C342 C343 1.297 1_556 S
C342 H356 0.950 . S
C343 C342 1.297 1_554 S
C343 C344 1.479 . S
C343 H357 0.950 . S
C344 C343 1.479 . S
C344 C345 1.375 . S
C344 C350 1.404 . S
C345 C344 1.375 . S
C345 C346 1.369 . S
C345 H358 0.950 . S
C346 C345 1.369 . S
C346 C347 1.392 . S
C346 H359 0.951 . S
C347 C346 1.392 . S
C347 C349 1.384 . S
H348 C350 0.949 . S
C349 C347 1.384 . S
C349 C350 1.385 . S
C349 H351 0.950 . S
C350 C344 1.404 . S
C350 H348 0.949 . S
C350 C349 1.385 . S
H351 C349 0.950 . S
H352 C336 0.951 . S
H353 C338 0.951 . S
H354 C340 0.951 . S
H355 C341 0.950 . S
H356 C342 0.950 . S
H357 C343 0.950 . S
H358 C345 0.950 . S
H359 C346 0.951 . S
C360 C361 1.386 . S
C360 C362 1.383 . S
C360 H376 0.951 . S
C361 C360 1.386 . S
C361 C365 1.383 . S
C362 C360 1.383 . S
C362 C363 1.402 . S
C362 H377 0.951 . S
C363 C362 1.402 . S
C363 C364 1.375 . S
C363 C366 1.481 . S
C364 C363 1.375 . S
C364 C365 1.367 . S
C364 H378 0.951 . S
C365 C361 1.383 . S
C365 C364 1.367 . S
C365 H379 0.950 . S
C366 C363 1.481 . S
C366 C367 1.297 1_655 S
C366 H380 0.950 . S
C367 C366 1.297 1_455 S
C367 C368 1.479 . S
C367 H381 0.950 . S
C368 C367 1.479 . S
C368 C369 1.375 . S
C368 C374 1.404 . S
C369 C368 1.375 . S
C369 C370 1.369 . S
C369 H382 0.950 . S
C370 C369 1.369 . S
C370 C371 1.392 . S
C370 H383 0.951 . S
C371 C370 1.392 . S
C371 C373 1.384 . S
H372 C374 0.954 . S
C373 C371 1.384 . S
C373 C374 1.385 . S
C373 H375 0.950 . S
C374 C368 1.404 . S
C374 H372 0.954 . S
C374 C373 1.385 . S
H375 C373 0.950 . S
H376 C360 0.951 . S
H377 C362 0.951 . S
H378 C364 0.951 . S
H379 C365 0.950 . S
H380 C366 0.950 . S
H381 C367 0.950 . S
H382 C369 0.950 . S
H383 C370 0.951 . S
C384 C385 1.386 . S
C384 C386 1.383 . S
C384 H400 0.951 . S
C385 C384 1.386 . S
C385 C389 1.383 . S
C386 C384 1.383 . S
C386 C387 1.402 . S
C386 H401 0.951 . S
C387 C386 1.402 . S
C387 C388 1.375 . S
C387 C390 1.481 . S
C388 C387 1.375 . S
C388 C389 1.367 . S
C388 H402 0.951 . S
C389 C385 1.383 . S
C389 C388 1.367 . S
C389 H403 0.950 . S
C390 C387 1.481 . S
C390 C391 1.297 . S
C390 H404 0.950 . S
C391 C390 1.297 . S
C391 C392 1.479 . S
C391 H405 0.950 . S
C392 C391 1.479 . S
C392 C393 1.375 . S
C392 C398 1.404 . S
C393 C392 1.375 . S
C393 C394 1.369 . S
C393 H406 0.950 . S
C394 C393 1.369 . S
C394 C395 1.392 . S
C394 H407 0.951 . S
C395 C394 1.392 . S
C395 C397 1.384 . S
H396 C398 0.949 . S
C397 C395 1.384 . S
C397 C398 1.385 . S
C397 H399 0.950 . S
C398 C392 1.404 . S
C398 H396 0.949 . S
C398 C397 1.385 . S
H399 C397 0.950 . S
H400 C384 0.951 . S
H401 C386 0.951 . S
H402 C388 0.951 . S
H403 C389 0.950 . S
H404 C390 0.950 . S
H405 C391 0.950 . S
H406 C393 0.950 . S
H407 C394 0.951 . S
C408 C409 1.386 . S
C408 C410 1.383 . S
C408 H424 0.951 . S
C409 C408 1.386 . S
C409 C413 1.383 . S
C410 C408 1.383 . S
C410 C411 1.402 . S
C410 H425 0.951 . S
C411 C410 1.402 . S
C411 C412 1.375 . S
C411 C414 1.481 . S
C412 C411 1.375 . S
C412 C413 1.367 . S
C412 H426 0.951 . S
C413 C409 1.383 . S
C413 C412 1.367 . S
C413 H427 0.950 . S
C414 C411 1.481 . S
C414 C415 1.297 . S
C414 H428 0.950 . S
C415 C414 1.297 . S
C415 C416 1.479 . S
C415 H429 0.950 . S
C416 C415 1.479 . S
C416 C417 1.375 . S
C416 C422 1.404 . S
C417 C416 1.375 . S
C417 C418 1.369 . S
C417 H430 0.950 . S
C418 C417 1.369 . S
C418 C419 1.392 . S
C418 H431 0.951 . S
C419 C418 1.392 . S
C419 C421 1.384 . S
H420 C422 0.949 . S
C421 C419 1.384 . S
C421 C422 1.385 . S
C421 H423 0.950 . S
C422 C416 1.404 . S
C422 H420 0.949 . S
C422 C421 1.385 . S
H423 C421 0.950 . S
H424 C408 0.951 . S
H425 C410 0.951 . S
H426 C412 0.951 . S
H427 C413 0.950 . S
H428 C414 0.950 . S
H429 C415 0.950 . S
H430 C417 0.950 . S
H431 C418 0.951 . S
C432 C433 1.386 . S
C432 C434 1.383 . S
C432 H448 0.951 . S
C433 C432 1.386 . S
C433 C437 1.383 . S
C434 C432 1.383 . S
C434 C435 1.402 . S
C434 H449 0.951 . S
C435 C434 1.402 . S
C435 C436 1.375 . S
C435 C438 1.481 . S
C436 C435 1.375 . S
C436 C437 1.367 . S
C436 H450 0.951 . S
C437 C433 1.383 . S
C437 C436 1.367 . S
C437 H451 0.950 . S
C438 C435 1.481 . S
C438 C439 1.297 . S
C438 H452 0.950 . S
C439 C438 1.297 . S
C439 C440 1.479 . S
C439 H453 0.950 . S
C440 C439 1.479 . S
C440 C441 1.375 . S
C440 C446 1.404 . S
C441 C440 1.375 . S
C441 C442 1.369 . S
C441 H454 0.950 . S
C442 C441 1.369 . S
C442 C443 1.392 . S
C442 H455 0.951 . S
C443 C442 1.392 . S
C443 C445 1.384 . S
H444 C446 0.949 . S
C445 C443 1.384 . S
C445 C446 1.385 . S
C445 H447 0.950 . S
C446 C440 1.404 . S
C446 H444 0.949 . S
C446 C445 1.385 . S
H447 C445 0.950 . S
H448 C432 0.951 . S
H449 C434 0.951 . S
H450 C436 0.951 . S
H451 C437 0.950 . S
H452 C438 0.950 . S
H453 C439 0.950 . S
H454 C441 0.950 . S
H455 C442 0.951 . S
C456 C457 1.386 . S
C456 C458 1.383 . S
C456 H472 0.951 . S
C457 C456 1.386 . S
C457 C461 1.383 . S
C458 C456 1.383 . S
C458 C459 1.402 . S
C458 H473 0.951 . S
C459 C458 1.402 . S
C459 C460 1.375 . S
C459 C462 1.481 . S
C460 C459 1.375 . S
C460 C461 1.367 . S
C460 H474 0.951 . S
C461 C457 1.383 . S
C461 C460 1.367 . S
C461 H475 0.950 . S
C462 C459 1.481 . S
C462 C463 1.297 . S
C462 H476 0.950 . S
C463 C462 1.297 . S
C463 C464 1.479 . S
C463 H477 0.950 . S
C464 C463 1.479 . S
C464 C465 1.375 . S
C464 C470 1.404 . S
C465 C464 1.375 . S
C465 C466 1.369 . S
C465 H478 0.950 . S
C466 C465 1.369 . S
C466 C467 1.392 . S
C466 H479 0.951 . S
C467 C466 1.392 . S
C467 C469 1.384 . S
H468 C470 0.949 . S
C469 C467 1.384 . S
C469 C470 1.385 . S
C469 H471 0.950 . S
C470 C464 1.404 . S
C470 H468 0.949 . S
C470 C469 1.385 . S
H471 C469 0.950 . S
H472 C456 0.951 . S
H473 C458 0.951 . S
H474 C460 0.951 . S
H475 C461 0.950 . S
H476 C462 0.950 . S
H477 C463 0.950 . S
H478 C465 0.950 . S
H479 C466 0.951 . S
C480 C481 1.386 . S
C480 C482 1.383 . S
C480 H496 0.951 . S
C481 C480 1.386 . S
C481 C485 1.383 . S
C482 C480 1.383 . S
C482 C483 1.402 . S
C482 H497 0.951 . S
C483 C482 1.402 . S
C483 C484 1.375 . S
C483 C486 1.481 . S
C484 C483 1.375 . S
C484 C485 1.367 . S
C484 H498 0.951 . S
C485 C481 1.383 . S
C485 C484 1.367 . S
C485 H499 0.950 . S
C486 C483 1.481 . S
C486 C487 1.297 . S
C486 H500 0.950 . S
C487 C486 1.297 . S
C487 C488 1.479 . S
C487 H501 0.950 . S
C488 C487 1.479 . S
C488 C489 1.375 . S
C488 C494 1.404 . S
C489 C488 1.375 . S
C489 C490 1.369 . S
C489 H502 0.950 . S
C490 C489 1.369 . S
C490 C491 1.392 . S
C490 H503 0.951 . S
C491 C490 1.392 . S
C491 C493 1.384 . S
H492 C494 0.949 . S
C493 C491 1.384 . S
C493 C494 1.385 . S
C493 H495 0.950 . S
C494 C488 1.404 . S
C494 H492 0.949 . S
C494 C493 1.385 . S
H495 C493 0.950 . S
H496 C480 0.951 . S
H497 C482 0.951 . S
H498 C484 0.951 . S
H499 C485 0.950 . S
H500 C486 0.950 . S
H501 C487 0.950 . S
H502 C489 0.950 . S
H503 C490 0.951 . S
C504 C505 1.386 . S
C504 C506 1.383 . S
C504 H520 0.951 . S
C505 C504 1.386 . S
C505 C509 1.383 . S
C506 C504 1.383 . S
C506 C507 1.402 . S
C506 H521 0.951 . S
C507 C506 1.402 . S
C507 C508 1.375 . S
C507 C510 1.481 . S
C508 C507 1.375 . S
C508 C509 1.367 . S
C508 H522 0.951 . S
C509 C505 1.383 . S
C509 C508 1.367 . S
C509 H523 0.950 . S
C510 C507 1.481 . S
C510 C511 1.297 . S
C510 H524 0.950 . S
C511 C510 1.297 . S
C511 C512 1.479 . S
C511 H525 0.950 . S
C512 C511 1.479 . S
C512 C513 1.375 . S
C512 C518 1.404 . S
C513 C512 1.375 . S
C513 C514 1.369 . S
C513 H526 0.950 . S
C514 C513 1.369 . S
C514 C515 1.392 . S
C514 H527 0.951 . S
C515 C514 1.392 . S
C515 C517 1.384 . S
H516 C518 0.949 . S
C517 C515 1.384 . S
C517 C518 1.385 . S
C517 H519 0.950 . S
C518 C512 1.404 . S
C518 H516 0.949 . S
C518 C517 1.385 . S
H519 C517 0.950 . S
H520 C504 0.951 . S
H521 C506 0.951 . S
H522 C508 0.951 . S
H523 C509 0.950 . S
H524 C510 0.950 . S
H525 C511 0.950 . S
H526 C513 0.950 . S
H527 C514 0.951 . S
C528 C529 1.386 . S
C528 C530 1.383 . S
C528 H544 0.951 . S
C529 C528 1.386 . S
C529 C533 1.383 . S
C530 C528 1.383 . S
C530 C531 1.402 . S
C530 H545 0.951 . S
C531 C530 1.402 . S
C531 C532 1.375 . S
C531 C534 1.481 . S
C532 C531 1.375 . S
C532 C533 1.367 . S
C532 H546 0.951 . S
C533 C529 1.383 . S
C533 C532 1.367 . S
C533 H547 0.950 . S
C534 C531 1.481 . S
C534 C535 1.297 . S
C534 H548 0.950 . S
C535 C534 1.297 . S
C535 C536 1.479 . S
C535 H549 0.950 . S
C536 C535 1.479 . S
C536 C537 1.375 . S
C536 C542 1.404 1_455 S
C537 C536 1.375 . S
C537 C538 1.369 . S
C537 H550 0.950 . S
C538 C537 1.369 . S
C538 C539 1.392 1_455 S
C538 H551 0.951 . S
C539 C538 1.392 1_655 S
C539 C541 1.384 . S
H540 C542 0.949 . S
C541 C539 1.384 . S
C541 C542 1.385 . S
C541 H543 0.950 . S
C542 C536 1.404 1_655 S
C542 H540 0.949 . S
C542 C541 1.385 . S
H543 C541 0.950 . S
H544 C528 0.951 . S
H545 C530 0.951 . S
H546 C532 0.951 . S
H547 C533 0.950 . S
H548 C534 0.950 . S
H549 C535 0.950 . S
H550 C537 0.950 . S
H551 C538 0.951 . S
C552 C553 1.386 1_455 S
C552 C554 1.383 . S
C552 H568 0.951 . S
C553 C552 1.386 1_655 S
C553 C557 1.383 1_655 S
C554 C552 1.383 . S
C554 C555 1.402 . S
C554 H569 0.951 . S
C555 C554 1.402 . S
C555 C556 1.375 . S
C555 C558 1.481 . S
C556 C555 1.375 . S
C556 C557 1.367 . S
C556 H570 0.951 . S
C557 C553 1.383 1_455 S
C557 C556 1.367 . S
C557 H571 0.950 1_455 S
C558 C555 1.481 . S
C558 C559 1.297 . S
C558 H572 0.950 . S
C559 C558 1.297 . S
C559 C560 1.480 . S
C559 H573 0.950 . S
C560 C559 1.480 . S
C560 C561 1.376 1_565 S
C560 C566 1.405 1_565 S
C561 C560 1.376 1_545 S
C561 C562 1.369 . S
C561 H574 0.950 . S
C562 C561 1.369 . S
C562 C563 1.392 . S
C562 H575 0.951 . S
C563 C562 1.392 . S
C563 C565 1.384 . S
H564 C566 0.949 . S
C565 C563 1.384 . S
C565 C566 1.385 . S
C565 H567 0.950 . S
C566 C560 1.405 1_545 S
C566 H564 0.949 . S
C566 C565 1.385 . S
H567 C565 0.950 . S
H568 C552 0.951 . S
H569 C554 0.951 . S
H570 C556 0.951 . S
H571 C557 0.950 1_655 S
H572 C558 0.950 . S
H573 C559 0.950 . S
H574 C561 0.950 . S
H575 C562 0.951 . S
C576 C577 1.386 1_565 S
C576 C578 1.383 . S
C576 H592 0.951 . S
C577 C576 1.386 1_545 S
C577 C581 1.383 1_545 S
C578 C576 1.383 . S
C578 C579 1.402 . S
C578 H593 0.951 . S
C579 C578 1.402 . S
C579 C580 1.375 . S
C579 C582 1.481 . S
C580 C579 1.375 . S
C580 C581 1.367 . S
C580 H594 0.951 . S
C581 C577 1.383 1_565 S
C581 C580 1.367 . S
C581 H595 0.950 1_565 S
C582 C579 1.481 . S
C582 C583 1.297 . S
C582 H596 0.950 . S
C583 C582 1.297 . S
C583 C584 1.479 . S
C583 H597 0.950 . S
C584 C583 1.479 . S
C584 C585 1.375 . S
C584 C590 1.404 . S
C585 C584 1.375 . S
C585 C586 1.369 . S
C585 H598 0.950 . S
C586 C585 1.369 . S
C586 C587 1.392 . S
C586 H599 0.951 . S
C587 C586 1.392 . S
C587 C589 1.384 . S
H588 C590 0.949 . S
C589 C587 1.384 . S
C589 C590 1.385 . S
C589 H591 0.950 . S
C590 C584 1.404 . S
C590 H588 0.949 . S
C590 C589 1.385 . S
H591 C589 0.950 . S
H592 C576 0.951 . S
H593 C578 0.951 . S
H594 C580 0.951 . S
H595 C581 0.950 1_545 S
H596 C582 0.950 . S
H597 C583 0.950 . S
H598 C585 0.950 . S
H599 C586 0.951 . S
C600 C601 1.386 . S
C600 C602 1.383 . S
C600 H616 0.951 . S
C601 C600 1.386 . S
C601 C605 1.383 . S
C602 C600 1.383 . S
C602 C603 1.402 . S
C602 H617 0.951 . S
C603 C602 1.402 . S
C603 C604 1.375 . S
C603 C606 1.481 . S
C604 C603 1.375 . S
C604 C605 1.367 . S
C604 H618 0.951 . S
C605 C601 1.383 . S
C605 C604 1.367 . S
C605 H619 0.950 . S
C606 C603 1.481 . S
C606 C607 1.297 . S
C606 H620 0.950 . S
C607 C606 1.297 . S
C607 C608 1.479 . S
C607 H621 0.950 . S
C608 C607 1.479 . S
C608 C609 1.375 . S
C608 C614 1.404 1_545 S
C609 C608 1.375 . S
C609 C610 1.369 . S
C609 H622 0.950 . S
C610 C609 1.369 . S
C610 C611 1.392 1_545 S
C610 H623 0.951 . S
C611 C610 1.392 1_565 S
C611 C613 1.384 . S
H612 C614 0.949 . S
C613 C611 1.384 . S
C613 C614 1.385 . S
C613 H615 0.950 . S
C614 C608 1.404 1_565 S
C614 H612 0.949 . S
C614 C613 1.385 . S
H615 C613 0.950 . S
H616 C600 0.951 . S
H617 C602 0.951 . S
H618 C604 0.951 . S
H619 C605 0.950 . S
H620 C606 0.950 . S
H621 C607 0.950 . S
H622 C609 0.950 . S
H623 C610 0.951 . S
C624 C625 1.386 1_655 S
C624 C626 1.383 . S
C624 H640 0.951 . S
C625 C624 1.386 1_455 S
C625 C629 1.383 1_455 S
C626 C624 1.383 . S
C626 C627 1.402 . S
C626 H641 0.951 . S
C627 C626 1.402 . S
C627 C628 1.375 . S
C627 C630 1.481 . S
C628 C627 1.375 . S
C628 C629 1.367 . S
C628 H642 0.951 . S
C629 C625 1.383 1_655 S
C629 C628 1.367 . S
C629 H643 0.950 1_655 S
C630 C627 1.481 . S
C630 C631 1.297 . S
C630 H644 0.950 . S
C631 C630 1.297 . S
C631 C632 1.479 . S
C631 H645 0.950 . S
C632 C631 1.479 . S
C632 C633 1.375 . S
C632 C638 1.404 . S
C633 C632 1.375 . S
C633 C634 1.369 . S
C633 H646 0.950 . S
C634 C633 1.369 . S
C634 C635 1.392 . S
C634 H647 0.951 . S
C635 C634 1.392 . S
C635 C637 1.384 . S
H636 C638 0.949 . S
C637 C635 1.384 . S
C637 C638 1.385 . S
C637 H639 0.950 . S
C638 C632 1.404 . S
C638 H636 0.949 . S
C638 C637 1.385 . S
H639 C637 0.950 . S
H640 C624 0.951 . S
H641 C626 0.951 . S
H642 C628 0.951 . S
H643 C629 0.950 1_455 S
H644 C630 0.950 . S
H645 C631 0.950 . S
H646 C633 0.950 . S
H647 C634 0.951 . S
C648 C649 1.386 1_655 S
C648 C650 1.383 . S
C648 H664 0.951 . S
C649 C648 1.386 1_455 S
C649 C653 1.383 . S
C650 C648 1.383 . S
C650 C651 1.402 . S
C650 H665 0.951 . S
C651 C650 1.402 . S
C651 C652 1.375 1_655 S
C651 C654 1.481 . S
C652 C651 1.375 1_455 S
C652 C653 1.367 . S
C652 H666 0.951 . S
C653 C649 1.383 . S
C653 C652 1.367 . S
C653 H667 0.950 . S
C654 C651 1.481 . S
C654 C655 1.297 . S
C654 H668 0.950 . S
C655 C654 1.297 . S
C655 C656 1.479 . S
C655 H669 0.950 . S
C656 C655 1.479 . S
C656 C657 1.375 . S
C656 C662 1.404 . S
C657 C656 1.375 . S
C657 C658 1.369 . S
C657 H670 0.950 . S
C658 C657 1.369 . S
C658 C659 1.392 1_545 S
C658 H671 0.951 . S
C659 C658 1.392 1_565 S
C659 C661 1.384 1_565 S
H660 C662 0.949 . S
C661 C659 1.384 1_545 S
C661 C662 1.385 . S
C661 H663 0.950 1_545 S
C662 C656 1.404 . S
C662 H660 0.949 . S
C662 C661 1.385 . S
H663 C661 0.950 1_565 S
H664 C648 0.951 . S
H665 C650 0.951 . S
H666 C652 0.951 . S
H667 C653 0.950 . S
H668 C654 0.950 . S
H669 C655 0.950 . S
H670 C657 0.950 . S
H671 C658 0.951 . S
C241 C179 2.331 . S
C251 C19 2.467 . S
C265 C210 2.480 . S
C275 C50 2.267 . S
C289 C99 2.455 . S
C299 C139 2.359 . S
C313 C10 2.313 . S
C323 C170 2.489 . S
C337 C219 2.292 . S
C347 C59 2.486 . S
C361 C90 2.349 . S
C371 C130 2.457 . S
C385 C7 1.885 . S
C395 C82 1.870 . S
C409 C47 1.893 . S
C419 C2 1.848 . S
C433 C87 1.887 . S
C443 C42 1.847 . S
C457 C136 1.901 . S
C467 C171 1.798 . S
C481 C176 1.902 . S
C491 C211 1.801 . S
C505 C131 1.832 . S
C515 C216 1.864 . S
C529 C16 1.145 . S
C539 C91 1.101 . S
C553 C56 1.139 . S
C563 C11 1.094 . S
C577 C96 1.100 . S
C587 C51 1.154 . S
C601 C127 1.145 . S
C611 C162 1.160 . S
C625 C167 1.114 . S
C635 C202 1.176 . S
C649 C122 1.116 . S
C659 C207 1.056 . S
