# Generated by pormake.
# Topology tfs, (6)-cn, num edge types: 1
# Building blocks:
#     Node 0, Type 0, BuildingBlock: BETFAJ_clean_sbu_0, # of connection points: 6
#     Node 1, Type 0, BuildingBlock: BETFAJ_clean_sbu_0, # of connection points: 6
#     Node 2, Type 0, BuildingBlock: BETFAJ_clean_sbu_0, # of connection points: 6
#     Node 3, Type 0, BuildingBlock: BETFAJ_clean_sbu_0, # of connection points: 6
#     Node 4, Type 0, BuildingBlock: BETFAJ_clean_sbu_0, # of connection points: 6
#     Node 5, Type 0, BuildingBlock: BETFAJ_clean_sbu_0, # of connection points: 6
#     Edge 6, Type (0, 0), BuildingBlock: AJUNOK_clean_linker_0, # of connection points: 2
#     Edge 7, Type (0, 0), BuildingBlock: AJUNOK_clean_linker_0, # of connection points: 2
#     Edge 8, Type (0, 0), BuildingBlock: AJUNOK_clean_linker_0, # of connection points: 2
#     Edge 9, Type (0, 0), BuildingBlock: AJUNOK_clean_linker_0, # of connection points: 2
#     Edge 10, Type (0, 0), BuildingBlock: AJUNOK_clean_linker_0, # of connection points: 2
#     Edge 11, Type (0, 0), BuildingBlock: AJUNOK_clean_linker_0, # of connection points: 2
#     Edge 12, Type (0, 0), BuildingBlock: AJUNOK_clean_linker_0, # of connection points: 2
#     Edge 13, Type (0, 0), BuildingBlock: AJUNOK_clean_linker_0, # of connection points: 2
#     Edge 14, Type (0, 0), BuildingBlock: AJUNOK_clean_linker_0, # of connection points: 2
#     Edge 15, Type (0, 0), BuildingBlock: AJUNOK_clean_linker_0, # of connection points: 2
#     Edge 16, Type (0, 0), BuildingBlock: AJUNOK_clean_linker_0, # of connection points: 2
#     Edge 17, Type (0, 0), BuildingBlock: AJUNOK_clean_linker_0, # of connection points: 2
#     Edge 18, Type (0, 0), BuildingBlock: AJUNOK_clean_linker_0, # of connection points: 2
#     Edge 19, Type (0, 0), BuildingBlock: AJUNOK_clean_linker_0, # of connection points: 2
#     Edge 20, Type (0, 0), BuildingBlock: AJUNOK_clean_linker_0, # of connection points: 2
#     Edge 21, Type (0, 0), BuildingBlock: AJUNOK_clean_linker_0, # of connection points: 2
#     Edge 22, Type (0, 0), BuildingBlock: AJUNOK_clean_linker_0, # of connection points: 2
#     Edge 23, Type (0, 0), BuildingBlock: AJUNOK_clean_linker_0, # of connection points: 2
# Relax obj value: 0.606
# Max RMSD: 0.477
# Mean RMSD: 0.366
data_MOF--net-tfs--node1-BETFAJ_clean_sbu_0--edge1-AJUNOK_clean_linker_0
_symmetry_space_group_name_H-M    P1
_symmetry_Int_Tables_number       1
_symmetry_cell_setting            triclinic
loop_
_symmetry_equiv_pos_as_xyz
'x, y, z'
_cell_length_a     44.249978
_cell_length_b     40.996043
_cell_length_c     9.8571576
_cell_angle_alpha  98.119449
_cell_angle_beta   91.160935
_cell_angle_gamma 128.56096
loop_
_atom_site_label
_atom_site_type_symbol
_atom_site_fract_x
_atom_site_fract_y
_atom_site_fract_z
_atom_type_partial_charge
Sm0 Sm 0.38242 0.49653 0.51226 0.0
Sm1 Sm 0.35562 0.55344 0.50686 0.0
C2 C 0.41627 0.46396 0.57547 0.0
C3 C 0.42127 0.43103 0.55654 0.0
C4 C 0.43996 0.42915 0.66831 0.0
C5 C 0.45135 0.40386 0.65012 0.0
C6 C 0.44399 0.37936 0.51973 0.0
C7 C 0.42357 0.37962 0.4088 0.0
C8 C 0.41253 0.40544 0.42679 0.0
C9 C 0.3579 0.49677 0.25882 0.0
C10 C 0.28864 0.44935 0.47514 0.0
C11 C 0.32802 0.59449 0.48748 0.0
C12 C 0.33815 0.63425 0.56637 0.0
C13 C 0.31123 0.64158 0.55917 0.0
C14 C 0.31925 0.67759 0.64154 0.0
C15 C 0.35441 0.70705 0.7329 0.0
C16 C 0.38153 0.69979 0.73891 0.0
C17 C 0.37345 0.66369 0.65648 0.0
C18 C 0.38379 0.55467 0.75809 0.0
C19 C 0.44705 0.60133 0.50353 0.0
O20 O 0.38749 0.45778 0.63634 0.0
O21 O 0.42606 0.48698 0.48054 0.0
O22 O 0.37675 0.52755 0.35874 0.0
O23 O 0.35493 0.4647 0.2854 0.0
O24 O 0.31559 0.44707 0.52266 0.0
O25 O 0.29833 0.48438 0.43871 0.0
O26 O 0.35367 0.59826 0.4116 0.0
O27 O 0.31295 0.56353 0.55576 0.0
O28 O 0.36264 0.52328 0.66168 0.0
O29 O 0.38717 0.58665 0.73043 0.0
O30 O 0.41794 0.60072 0.46522 0.0
O31 O 0.44092 0.56808 0.54422 0.0
H32 H 0.44742 0.44882 0.76898 0.0
H33 H 0.46704 0.40443 0.73746 0.0
H34 H 0.41793 0.36155 0.30667 0.0
H35 H 0.39852 0.40663 0.33841 0.0
H36 H 0.28372 0.61911 0.49118 0.0
H37 H 0.29788 0.68241 0.6339 0.0
H38 H 0.40856 0.72146 0.80968 0.0
H39 H 0.39445 0.65835 0.66483 0.0
Sm40 Sm 0.93031 0.20672 0.42885 0.0
Sm41 Sm 0.84685 0.17808 0.32367 0.0
C42 C 0.99758 0.22976 0.54436 0.0
C43 C 0.03982 0.25969 0.52747 0.0
C44 C 0.06852 0.28426 0.64464 0.0
C45 C 0.10842 0.31263 0.63086 0.0
C46 C 0.1208 0.31741 0.49928 0.0
C47 C 0.09195 0.29224 0.38204 0.0
C48 C 0.05208 0.26398 0.39587 0.0
C49 C 0.91169 0.19109 0.14757 0.0
C50 C 0.85047 0.10709 0.39788 0.0
C51 C 0.78371 0.16203 0.19685 0.0
C52 C 0.75877 0.1746 0.21481 0.0
C53 C 0.72356 0.1522 0.12589 0.0
C54 C 0.69941 0.16338 0.14089 0.0
C55 C 0.71004 0.19755 0.2446 0.0
C56 C 0.74519 0.2196 0.33484 0.0
C57 C 0.76929 0.20828 0.32001 0.0
C58 C 0.86696 0.19931 0.60646 0.0
C59 C 0.92751 0.27581 0.31774 0.0
O60 O 0.98193 0.24664 0.59445 0.0
O61 O 0.97395 0.19642 0.44496 0.0
O62 O 0.88807 0.16992 0.22921 0.0
O63 O 0.94701 0.21775 0.212 0.0
O64 O 0.88408 0.13879 0.47732 0.0
O65 O 0.83486 0.11429 0.30253 0.0
O66 O 0.81915 0.19065 0.17058 0.0
O67 O 0.78236 0.13978 0.28297 0.0
O68 O 0.89005 0.21751 0.52018 0.0
O69 O 0.83137 0.17206 0.54482 0.0
O70 O 0.88971 0.24517 0.27862 0.0
O71 O 0.94894 0.27108 0.39466 0.0
H72 H 0.06004 0.28164 0.74739 0.0
H73 H 0.1296 0.33149 0.72353 0.0
H74 H 0.10018 0.29418 0.279 0.0
H75 H 1.03083 0.24549 0.30326 0.0
H76 H 0.71468 0.12591 0.04455 0.0
H77 H 0.67261 0.14563 0.06977 0.0
H78 H 0.75391 0.24537 0.41806 0.0
H79 H 0.79611 0.22576 0.39082 0.0
Sm80 Sm 0.69052 0.82882 0.39781 0.0
Sm81 Sm 0.64866 0.86701 0.48811 0.0
C82 C 0.71508 0.79237 0.25242 0.0
C83 C 0.71617 0.75713 0.23794 0.0
C84 C 0.73193 0.7508 0.12554 0.0
C85 C 0.73947 0.72234 0.11995 0.0
C86 C 0.73114 0.69961 0.22664 0.0
C87 C 0.71337 0.7044 0.33574 0.0
C88 C 0.7059 0.73304 0.34137 0.0
C89 C 0.69256 0.84844 0.6753 0.0
C90 C 0.74171 0.93111 0.46584 0.0
C91 C 0.63044 0.91062 0.63013 0.0
C92 C 0.63197 0.92461 0.77744 0.0
C93 C 0.61791 0.89676 0.87094 0.0
C94 C 0.61764 0.91057 0.00871 0.0
C95 C 0.63166 0.95244 0.05504 0.0
C96 C 0.64798 0.98076 0.96237 0.0
C97 C 0.64811 0.96694 0.8252 0.0
C98 C 0.64874 0.8497 0.21085 0.0
C99 C 0.59705 0.76344 0.45232 0.0
O100 O 0.73562 0.82208 0.364 0.0
O101 O 0.68147 0.7832 0.21667 0.0
O102 O 0.66496 0.83317 0.5834 0.0
O103 O 0.71945 0.84815 0.62564 0.0
O104 O 0.73551 0.89935 0.37766 0.0
O105 O 0.71515 0.92367 0.54551 0.0
O106 O 0.66428 0.92857 0.58711 0.0
O107 O 0.60458 0.86989 0.57756 0.0
O108 O 0.67546 0.86417 0.30521 0.0
O109 O 0.62154 0.84963 0.25842 0.0
O110 O 0.60118 0.79755 0.50948 0.0
O111 O 0.62552 0.76703 0.39246 0.0
H112 H 0.74028 0.76949 0.04554 0.0
H113 H 0.75404 0.72017 0.03646 0.0
H114 H 0.70672 0.68727 0.41929 0.0
H115 H 0.69376 0.73774 0.42907 0.0
H116 H 0.6062 0.86412 0.83695 0.0
H117 H 0.60483 0.88801 0.07732 0.0
H118 H 0.65795 1.01284 -0.00778 0.0
H119 H 0.6595 0.98898 0.75485 0.0
Sm120 Sm 0.93522 0.59177 0.15314 0.0
Sm121 Sm 0.98086 0.55979 0.05507 0.0
C122 C 0.90259 0.62079 0.28532 0.0
C123 C 0.87088 0.62286 0.26449 0.0
C124 C 0.84616 0.61293 0.3659 0.0
C125 C 0.81773 0.6178 0.35464 0.0
C126 C 0.8136 0.63275 0.24168 0.0
C127 C 0.83758 0.64136 0.13779 0.0
C128 C 0.86588 0.63626 0.14872 0.0
C129 C 0.95333 0.59936 0.88802 0.0
C130 C 1.02783 0.64886 0.26267 0.0
C131 C 1.01313 0.52799 0.94041 0.0
C132 C 1.0173 0.49853 -0.01016 0.0
C133 C 1.00819 0.46343 0.89672 0.0
C134 C 1.00128 0.42923 0.94595 0.0
C135 C 1.00251 0.42932 0.0889 0.0
C136 C 1.01551 0.46631 0.18185 0.0
C137 C 1.02293 0.50066 0.13274 0.0
C138 C 0.96084 0.54878 0.31766 0.0
C139 C 0.88604 0.50012 0.9567 0.0
O140 O 0.93291 0.64392 0.22096 0.0
O141 O 0.89217 0.58323 0.28811 0.0
O142 O 0.97539 0.60642 -0.0091 0.0
O143 O 0.922 0.59199 0.92624 0.0
O144 O 0.99346 0.63542 0.29321 0.0
O145 O 1.03113 0.62994 0.15066 0.0
O146 O 0.97711 0.51169 0.9017 0.0
O147 O 1.03358 0.5663 0.01583 0.0
O148 O 0.94045 0.54465 0.21549 0.0
O149 O 0.99041 0.55295 0.27679 0.0
O150 O 0.91925 0.50932 0.92625 0.0
O151 O 0.88431 0.52392 0.05544 0.0
H152 H 0.8495 0.60239 0.45571 0.0
H153 H 0.79959 0.61086 0.43594 0.0
H154 H 0.83563 0.65379 0.05106 0.0
H155 H 0.88453 0.64395 0.06876 0.0
H156 H 1.00381 0.46118 0.78618 0.0
H157 H 0.99238 0.40152 0.87202 0.0
H158 H 1.01694 0.46742 0.29243 0.0
H159 H 1.03031 0.52753 0.20703 0.0
Sm160 Sm 0.31416 0.87507 0.04605 0.0
Sm161 Sm 0.40333 0.95049 0.05372 0.0
C162 C 0.2397 0.82168 0.07226 0.0
C163 C 0.20723 0.80211 0.96251 0.0
C164 C 0.17045 0.76393 0.96852 0.0
C165 C 0.14193 0.74186 0.85206 0.0
C166 C 0.15032 0.75752 0.72834 0.0
C167 C 0.18669 0.7965 0.72448 0.0
C168 C 0.21494 0.81869 0.84092 0.0
C169 C 0.34003 0.88276 0.79729 0.0
C170 C 0.34347 0.96868 -0.00311 0.0
C171 C 0.47905 1.00559 0.04895 0.0
C172 C 0.51062 1.01546 0.14462 0.0
C173 C 0.54856 0.03892 0.11131 0.0
C174 C 0.57591 0.03858 0.1826 0.0
C175 C 0.56523 1.01412 0.28628 0.0
C176 C 0.52873 0.99537 0.33095 0.0
C177 C 0.50148 0.99588 0.25998 0.0
C178 C 0.37528 0.94061 0.30032 0.0
C179 C 0.37101 0.85192 0.02961 0.0
O180 O 0.26089 0.86288 0.11338 0.0
O181 O 0.2607 0.80967 0.0494 0.0
O182 O 0.35098 0.91264 0.89366 0.0
O183 O 0.30941 0.84684 0.82052 0.0
O184 O 0.3163 0.93338 0.04125 0.0
O185 O 0.37709 0.97827 0.97117 0.0
O186 O 0.45685 0.96705 0.97352 0.0
O187 O 0.45914 1.01662 0.10233 0.0
O188 O 0.36631 0.9114 0.20515 0.0
O189 O 0.40431 0.97716 0.27691 0.0
O190 O 0.39758 0.88974 -0.00144 0.0
O191 O 0.34047 0.84323 0.08602 0.0
H192 H 0.16429 0.75055 0.06107 0.0
H193 H 0.11383 0.71188 0.85701 0.0
H194 H 0.19337 0.80941 0.63087 0.0
H195 H 0.2434 0.84808 0.83462 0.0
H196 H 0.55605 0.0544 0.0231 0.0
H197 H 0.60367 0.05307 0.14462 0.0
H198 H 0.51979 0.97632 0.41009 0.0
H199 H 0.4722 0.9778 0.28739 0.0
Sm200 Sm 0.52797 0.22591 0.36887 0.0
Sm201 Sm 0.59808 0.31809 0.33904 0.0
C202 C 0.47315 0.15649 0.45888 0.0
C203 C 0.43423 0.12754 0.50046 0.0
C204 C 0.41904 0.14265 0.58804 0.0
C205 C 0.38794 0.11503 0.65779 0.0
C206 C 0.37242 0.07232 0.64327 0.0
C207 C 0.38487 0.05659 0.54282 0.0
C208 C 0.41545 0.08398 0.47215 0.0
C209 C 0.53519 0.24128 0.10562 0.0
C210 C 0.52 0.30328 0.41799 0.0
C211 C 0.65385 0.38371 0.23631 0.0
C212 C 0.67996 0.38957 0.13577 0.0
C213 C 0.67438 0.35449 0.05588 0.0
C214 C 0.7015 0.36082 0.96883 0.0
C215 C 0.73415 0.40229 0.95993 0.0
C216 C 0.73835 0.43708 0.0353 0.0
C217 C 0.71153 0.43074 0.12263 0.0
C218 C 0.59202 0.30223 0.60145 0.0
C219 C 0.60799 0.24348 0.29999 0.0
O220 O 0.49915 0.1935 0.54066 0.0
O221 O 0.4767 0.15676 0.3275 0.0
O222 O 0.54027 0.26578 0.2123 0.0
O223 O 0.52302 0.20512 0.13361 0.0
O224 O 0.50414 0.26325 0.4235 0.0
O225 O 0.55509 0.33011 0.38258 0.0
O226 O 0.61694 0.35964 0.18584 0.0
O227 O 0.65987 0.37611 0.35448 0.0
O228 O 0.58629 0.27789 0.49302 0.0
O229 O 0.60385 0.33859 0.57572 0.0
O230 O 0.61842 0.27893 0.26494 0.0
O231 O 0.57611 0.21937 0.35824 0.0
H232 H 0.43287 0.1762 0.60999 0.0
H233 H 0.37816 0.12784 0.73093 0.0
H234 H 0.37379 0.02398 0.52838 0.0
H235 H 0.42666 0.07168 0.40445 0.0
H236 H 0.64969 0.32235 0.06346 0.0
H237 H 0.69762 0.33355 0.91199 0.0
H238 H 0.76363 0.46946 0.03253 0.0
H239 H 0.71611 0.45806 0.18313 0.0
C240 C 0.52003 0.36331 0.51144 0.0
C241 C 0.49856 0.31993 0.45172 0.0
C242 C 0.50192 0.38165 0.53506 0.0
C243 C 0.4615 0.35772 0.4978 0.0
H244 H 0.55138 0.38354 0.5397 0.0
H245 H 0.51996 0.41526 0.58002 0.0
S246 S 0.39154 0.24264 0.34094 0.0
N247 N 0.43421 0.25316 0.35924 0.0
N248 N 0.40023 0.28792 0.40089 0.0
C249 C 0.43946 0.31419 0.43923 0.0
C250 C 0.4579 0.29522 0.41741 0.0
C251 C 0.23255 0.38366 0.55822 0.0
C252 C 0.24583 0.41293 0.46944 0.0
C253 C 0.19234 0.35276 0.56641 0.0
C254 C 0.16347 0.34929 0.48491 0.0
H255 H 0.25341 0.38549 0.62556 0.0
H256 H 0.1838 0.3315 0.63794 0.0
S257 S 0.18239 0.41704 0.23148 0.0
N258 N 0.2262 0.43508 0.29428 0.0
N259 N 0.15148 0.37786 0.31088 0.0
C260 C 0.17635 0.37766 0.39324 0.0
C261 C 0.21716 0.40916 0.38532 0.0
C262 C 0.81015 0.02864 0.30712 0.0
C263 C 0.8279 0.06272 0.42092 0.0
C264 C 0.78459 0.9861 0.32435 0.0
C265 C 0.77425 0.97591 0.45516 0.0
H266 H 0.81556 0.0349 0.20348 0.0
H267 H 0.77128 0.96101 0.23338 0.0
S268 S 0.81424 0.0532 0.78746 0.0
N269 N 0.83565 0.08321 0.6705 0.0
N270 N 0.7855 1.00348 0.70139 0.0
C271 C 0.79258 1.00964 0.57018 0.0
C272 C 0.81988 0.05295 0.55338 0.0
C273 C 0.78946 0.669 0.35821 0.0
C274 C 0.78745 0.64377 0.23988 0.0
C275 C 0.76921 0.68484 0.35501 0.0
C276 C 0.74617 0.67604 0.23335 0.0
H277 H 0.80841 0.67843 0.45218 0.0
H278 H 0.77339 0.70606 0.44642 0.0
S279 S 0.72659 0.60634 0.90182 0.0
N280 N 0.7573 0.60688 0.00226 0.0
N281 N 0.7191 0.63675 -0.00383 0.0
C282 C 0.74206 0.64881 0.11668 0.0
C283 C 0.76275 0.63268 0.11993 0.0
C284 C 0.08405 0.72136 0.60887 0.0
C285 C 0.1211 0.73302 0.6032 0.0
C286 C 0.05505 0.69629 0.49464 0.0
C287 C 0.06169 0.68114 0.37052 0.0
H288 H 0.07728 0.7313 0.70307 0.0
H289 H 1.02671 0.68757 0.50653 0.0
S290 S 0.15499 0.70449 0.30328 0.0
N291 N 0.16408 0.72952 0.46411 0.0
N292 N 0.10908 0.68138 0.24832 0.0
C293 C 0.0992 0.69374 0.36231 0.0
C294 C 0.12901 0.71987 0.47901 0.0
C295 C 0.31345 0.97536 0.8027 0.0
C296 C 0.33371 0.99241 0.93778 0.0
C297 C 0.32176 1.00212 0.70988 0.0
C298 C 0.35069 0.04665 0.74973 0.0
H299 H 0.29519 0.94141 0.76293 0.0
H300 H 0.30888 0.9877 0.60247 0.0
S301 S 0.40274 0.10602 0.10526 0.0
N302 N 0.37668 0.05548 0.11621 0.0
N303 N 0.39262 0.10619 0.94351 0.0
C304 C 0.36607 0.06377 0.89117 0.0
C305 C 0.35754 0.03642 -0.01503 0.0
C306 C 0.33723 0.77383 0.97246 0.0
C307 C 0.37105 0.81602 0.97536 0.0
C308 C 0.33272 0.73898 0.89742 0.0
C309 C 0.36193 0.7446 0.82286 0.0
H310 H 0.31304 0.76746 0.02308 0.0
H311 H 0.30566 0.70729 0.89531 0.0
S312 S 0.45782 0.84791 0.80702 0.0
N313 N 0.43572 0.86103 0.90506 0.0
N314 N 0.42703 0.79545 0.76392 0.0
C315 C 0.39682 0.78634 0.83099 0.0
C316 C 0.40142 0.822 0.90713 0.0
C317 C 0.61928 0.1897 0.26825 0.0
C318 C 0.63421 0.23223 0.28232 0.0
C319 C 0.64379 0.17876 0.25495 0.0
C320 C 0.68446 0.20995 0.25791 0.0
H321 H 0.58833 0.16455 0.26673 0.0
H322 H 0.63082 0.14559 0.24447 0.0
S323 S 0.73844 0.32611 0.29708 0.0
N324 N 0.69254 0.30576 0.30058 0.0
N325 N 0.73833 0.28536 0.27633 0.0
C326 C 0.69973 0.2526 0.27271 0.0
C327 C 0.67473 0.26366 0.28446 0.0
C328 C 0.52821 0.71839 0.5045 0.0
C329 C 0.55995 0.72086 0.46554 0.0
C330 C 0.49288 0.67997 0.52073 0.0
C331 C 0.48715 0.64166 0.50015 0.0
H332 H 0.53027 0.74645 0.52134 0.0
H333 H 0.46955 0.68038 0.54883 0.0
S334 S 0.56083 0.62991 0.40124 0.0
N335 N 0.58341 0.68103 0.4097 0.0
N336 N 0.51666 0.60858 0.44081 0.0
C337 C 0.5187 0.64339 0.46398 0.0
C338 C 0.555 0.68287 0.44604 0.0
C339 C 1.00334 0.38864 0.25611 0.0
C340 C 0.98461 0.38935 0.14065 0.0
C341 C 0.98482 0.35197 0.31366 0.0
C342 C 0.94663 0.31495 0.25934 0.0
H343 H 1.03246 0.41673 0.30262 0.0
H344 H 1.00041 0.35282 0.40208 0.0
S345 S 0.88508 0.30052 0.95588 0.0
N346 N 0.92585 0.34993 0.97415 0.0
N347 N 0.89124 0.28124 0.07969 0.0
C348 C 0.92778 0.31531 0.14286 0.0
C349 C 0.94672 0.3524 0.08414 0.0
C350 C 0.56374 0.95259 0.26418 0.0
C351 C 0.58551 0.99677 0.30806 0.0
C352 C 0.58106 0.93629 0.20217 0.0
C353 C 0.62062 0.9638 0.18359 0.0
H354 H 0.53219 0.93122 0.25639 0.0
H355 H 0.56194 0.90324 0.14995 0.0
S356 S 0.69287 0.07794 0.3461 0.0
N357 N 0.65032 0.06492 0.37559 0.0
N358 N 0.68343 0.034 0.26212 0.0
C359 C 0.64405 1.00604 0.25752 0.0
C360 C 0.62627 1.02272 0.31924 0.0
C361 C 0.82574 0.46845 0.80856 0.0
C362 C 0.84846 0.46195 0.88237 0.0
C363 C 0.78553 0.44317 0.81262 0.0
C364 C 0.76733 0.41105 0.89146 0.0
H365 H 0.83978 0.49701 0.76601 0.0
H366 H 0.76986 0.45273 0.7711 0.0
S367 S 0.8125 0.37274 0.05993 0.0
N368 N 0.84891 0.41466 0.0026 0.0
N369 N 0.77313 0.36681 0.01118 0.0
C370 C 0.78851 0.39916 0.9415 0.0
C371 C 0.82944 0.42489 0.93665 0.0
C372 C 0.3457 0.52577 0.08737 0.0
C373 C 0.36121 0.50652 0.12306 0.0
C374 C 0.35627 0.54551 0.97378 0.0
C375 C 0.38308 0.54696 0.89588 0.0
H376 H 0.32577 0.52601 0.14882 0.0
H377 H 0.34227 0.55811 0.9434 0.0
S378 S 0.43609 0.50689 0.96071 0.0
N379 N 0.40724 0.49357 0.08175 0.0
N380 N 0.42729 0.53116 0.86663 0.0
C381 C 0.39985 0.52929 0.93357 0.0
C382 C 0.38878 0.50876 0.04796 0.0
C383 C 0.8621 0.16435 0.94532 0.0
C384 C 0.90056 0.19489 0.01239 0.0
C385 C 0.85116 0.16712 0.81597 0.0
C386 C 0.87835 0.20045 0.74938 0.0
H387 H 0.84046 0.13777 -0.00804 0.0
H388 H 0.82142 0.14217 0.76608 0.0
S389 S 0.98031 0.29348 0.89536 0.0
N390 N 0.96458 0.26278 0.01146 0.0
N391 N 0.94335 0.26817 0.76961 0.0
C392 C 0.91613 0.23273 0.81942 0.0
C393 C 0.92744 0.22984 0.95062 0.0
C394 C 0.64502 0.81153 -0.01187 0.0
C395 C 0.65625 0.84935 0.06877 0.0
C396 C 0.65966 0.812 0.86364 0.0
C397 C 0.68642 0.85044 0.81883 0.0
H398 H 0.62551 0.78165 0.02287 0.0
H399 H 0.64933 0.7821 0.80031 0.0
S400 S 0.72434 0.95777 -0.00669 0.0
N401 N 0.69574 0.92611 0.09793 0.0
N402 N 0.72243 0.92672 0.86054 0.0
C403 C 0.69777 0.88838 0.89849 0.0
C404 C 0.68296 0.88793 0.0251 0.0
C405 C 0.92421 0.56741 0.63974 0.0
C406 C 0.95656 0.5883 0.74287 0.0
C407 C 0.92551 0.55393 0.50273 0.0
C408 C 0.95925 0.56112 0.46391 0.0
H409 H 0.89742 0.56081 0.66521 0.0
H410 H 0.89982 0.53748 0.42699 0.0
S411 S 0.05239 0.61591 0.69394 0.0
N412 N 1.02357 0.61638 0.7964 0.0
N413 N 1.02621 0.59133 0.53916 0.0
C414 C 0.99192 0.58223 0.56595 0.0
C415 C 0.99056 0.59588 0.70534 0.0
C416 C 0.39613 0.93782 0.52422 0.0
C417 C 0.36733 0.93193 0.43572 0.0
C418 C 0.38617 0.91825 0.63785 0.0
C419 C 0.34726 0.89199 0.66218 0.0
H420 H 0.42599 0.95619 0.50251 0.0
H421 H 0.40894 0.92416 0.70826 0.0
S422 S 0.26255 0.87047 0.4661 0.0
N423 N 0.2997 0.90136 0.38307 0.0
N424 N 0.28049 0.86334 0.59666 0.0
C425 C 0.31843 0.88643 0.57535 0.0
C426 C 0.32872 0.907 0.4617 0.0
C427 C 0.55391 0.29105 0.94575 0.0
C428 C 0.54918 0.25565 0.9755 0.0
C429 C 0.56909 0.307 0.82653 0.0
C430 C 0.57969 0.28778 0.7327 0.0
H431 H 0.54565 0.30646 0.01496 0.0
H432 H 0.57164 0.33386 0.8062 0.0
S433 S 0.57516 0.19588 0.76695 0.0
N434 N 0.55773 0.20293 0.90448 0.0
N435 N 0.58615 0.23277 0.67993 0.0
C436 C 0.57563 0.25275 0.76218 0.0
C437 C 0.56021 0.23655 0.8835 0.0
loop_
_geom_bond_atom_site_label_1
_geom_bond_atom_site_label_2
_geom_bond_distance
_geom_bond_site_symmetry_2
_ccdc_geom_bond_type
Sm0 C2 2.846 . S
Sm0 O20 2.543 . S
Sm0 O21 2.450 . S
Sm0 O22 2.681 . S
Sm0 O23 2.464 . S
Sm0 O24 2.396 . S
Sm0 O28 2.386 1_556 S
Sm0 O31 2.408 . S
Sm1 C11 2.846 1_556 S
Sm1 O22 2.386 . S
Sm1 O25 2.408 . S
Sm1 O26 2.543 . S
Sm1 O27 2.450 1_556 S
Sm1 O28 2.681 1_556 S
Sm1 O29 2.464 1_556 S
Sm1 O30 2.396 1_556 S
C2 Sm0 2.846 . S
C2 C3 1.506 . S
C2 O20 1.261 . S
C2 O21 1.242 . S
C3 C2 1.506 . S
C3 C4 1.358 . S
C3 C8 1.382 . S
C4 C3 1.358 . S
C4 C5 1.385 . S
C4 H32 0.930 1_556 S
C5 C4 1.385 . S
C5 C6 1.395 . S
C5 H33 0.929 . S
C6 C5 1.395 . S
C6 C7 1.335 . S
C7 C6 1.335 . S
C7 C8 1.398 . S
C7 H34 0.930 . S
C8 C3 1.382 . S
C8 C7 1.398 . S
C8 H35 0.929 . S
C9 O22 1.271 . S
C9 O23 1.251 . S
C10 O24 1.252 . S
C10 O25 1.272 . S
C11 Sm1 2.846 1_554 S
C11 C12 1.506 . S
C11 O26 1.261 1_554 S
C11 O27 1.242 . S
C12 C11 1.506 . S
C12 C13 1.358 1_554 S
C12 C17 1.382 . S
C13 C12 1.358 1_556 S
C13 C14 1.385 . S
C13 H36 0.930 . S
C14 C13 1.385 . S
C14 C15 1.395 1_556 S
C14 H37 0.929 . S
C15 C14 1.395 1_554 S
C15 C16 1.335 . S
C16 C15 1.335 . S
C16 C17 1.398 . S
C16 H38 0.930 . S
C17 C12 1.382 . S
C17 C16 1.398 . S
C17 H39 0.929 . S
C18 O28 1.271 . S
C18 O29 1.251 . S
C19 O30 1.252 . S
C19 O31 1.272 1_554 S
O20 Sm0 2.543 . S
O20 C2 1.261 . S
O21 Sm0 2.450 . S
O21 C2 1.242 . S
O22 Sm0 2.681 . S
O22 Sm1 2.386 . S
O22 C9 1.271 . S
O23 Sm0 2.464 . S
O23 C9 1.251 . S
O24 Sm0 2.396 . S
O24 C10 1.252 . S
O25 Sm1 2.408 . S
O25 C10 1.272 . S
O26 Sm1 2.543 . S
O26 C11 1.261 1_556 S
O27 Sm1 2.450 1_554 S
O27 C11 1.242 . S
O28 Sm0 2.386 1_554 S
O28 Sm1 2.681 1_554 S
O28 C18 1.271 . S
O29 Sm1 2.464 1_554 S
O29 C18 1.251 . S
O30 Sm1 2.396 1_554 S
O30 C19 1.252 . S
O31 Sm0 2.408 . S
O31 C19 1.272 1_556 S
H32 C4 0.930 1_554 S
H33 C5 0.929 . S
H34 C7 0.930 . S
H35 C8 0.929 . S
H36 C13 0.930 . S
H37 C14 0.929 . S
H38 C16 0.930 . S
H39 C17 0.929 . S
Sm40 C42 2.846 . S
Sm40 O60 2.543 . S
Sm40 O61 2.450 . S
Sm40 O62 2.681 1_554 S
Sm40 O63 2.464 1_554 S
Sm40 O64 2.396 . S
Sm40 O68 2.386 . S
Sm40 O71 2.408 . S
Sm41 C51 2.846 1_554 S
Sm41 O62 2.386 1_554 S
Sm41 O65 2.408 . S
Sm41 O66 2.543 1_554 S
Sm41 O67 2.450 . S
Sm41 O68 2.681 . S
Sm41 O69 2.464 . S
Sm41 O70 2.396 . S
C42 Sm40 2.846 . S
C42 C43 1.506 1_655 S
C42 O60 1.261 . S
C42 O61 1.242 . S
C43 C42 1.506 1_455 S
C43 C44 1.358 . S
C43 C48 1.382 . S
C44 C43 1.358 . S
C44 C45 1.385 . S
C44 H72 0.930 1_455 S
C45 C44 1.385 . S
C45 C46 1.395 . S
C45 H73 0.929 . S
C46 C45 1.395 . S
C46 C47 1.335 . S
C47 C46 1.335 . S
C47 C48 1.398 . S
C47 H74 0.930 . S
C48 C43 1.382 . S
C48 C47 1.398 . S
C48 H75 0.929 . S
C49 O62 1.271 . S
C49 O63 1.251 . S
C50 O64 1.252 . S
C50 O65 1.272 . S
C51 Sm41 2.846 1_556 S
C51 C52 1.506 . S
C51 O66 1.261 . S
C51 O67 1.242 1_556 S
C52 C51 1.506 . S
C52 C53 1.358 . S
C52 C57 1.382 . S
C53 C52 1.358 . S
C53 C54 1.385 . S
C53 H76 0.930 . S
C54 C53 1.385 . S
C54 C55 1.395 . S
C54 H77 0.929 . S
C55 C54 1.395 . S
C55 C56 1.335 . S
C56 C55 1.335 . S
C56 C57 1.398 . S
C56 H78 0.930 1_556 S
C57 C52 1.382 . S
C57 C56 1.398 . S
C57 H79 0.929 1_556 S
C58 O68 1.271 . S
C58 O69 1.251 . S
C59 O70 1.252 . S
C59 O71 1.272 . S
O60 Sm40 2.543 . S
O60 C42 1.261 . S
O61 Sm40 2.450 . S
O61 C42 1.242 . S
O62 Sm40 2.681 1_556 S
O62 Sm41 2.386 1_556 S
O62 C49 1.271 . S
O63 Sm40 2.464 1_556 S
O63 C49 1.251 . S
O64 Sm40 2.396 . S
O64 C50 1.252 . S
O65 Sm41 2.408 . S
O65 C50 1.272 . S
O66 Sm41 2.543 1_556 S
O66 C51 1.261 . S
O67 Sm41 2.450 . S
O67 C51 1.242 1_554 S
O68 Sm40 2.386 . S
O68 Sm41 2.681 . S
O68 C58 1.271 . S
O69 Sm41 2.464 . S
O69 C58 1.251 . S
O70 Sm41 2.396 . S
O70 C59 1.252 . S
O71 Sm40 2.408 . S
O71 C59 1.272 . S
H72 C44 0.930 1_655 S
H73 C45 0.929 . S
H74 C47 0.930 . S
H75 C48 0.929 . S
H76 C53 0.930 . S
H77 C54 0.929 . S
H78 C56 0.930 1_554 S
H79 C57 0.929 1_554 S
Sm80 C82 2.846 . S
Sm80 O100 2.543 . S
Sm80 O101 2.450 1_556 S
Sm80 O102 2.681 1_556 S
Sm80 O103 2.464 1_556 S
Sm80 O104 2.396 1_556 S
Sm80 O108 2.386 . S
Sm80 O111 2.408 1_556 S
Sm81 C91 2.846 . S
Sm81 O102 2.386 . S
Sm81 O105 2.406 1_554 S
Sm81 O106 2.543 . S
Sm81 O107 2.450 1_554 S
Sm81 O108 2.681 1_554 S
Sm81 O109 2.464 1_554 S
Sm81 O110 2.396 1_554 S
C82 Sm80 2.846 . S
C82 C83 1.506 . S
C82 O100 1.261 . S
C82 O101 1.242 1_556 S
C83 C82 1.506 . S
C83 C84 1.358 . S
C83 C88 1.382 . S
C84 C83 1.358 . S
C84 C85 1.385 . S
C84 H112 0.930 . S
C85 C84 1.385 . S
C85 C86 1.395 . S
C85 H113 0.929 . S
C86 C85 1.395 . S
C86 C87 1.335 . S
C87 C86 1.335 . S
C87 C88 1.398 . S
C87 H114 0.930 . S
C88 C83 1.382 . S
C88 C87 1.398 . S
C88 H115 0.929 1_556 S
C89 O102 1.271 . S
C89 O103 1.251 . S
C90 O104 1.252 1_556 S
C90 O105 1.300 . S
C91 Sm81 2.846 . S
C91 C92 1.506 . S
C91 O106 1.261 . S
C91 O107 1.242 1_554 S
C92 C91 1.506 . S
C92 C93 1.358 . S
C92 C97 1.382 . S
C93 C92 1.358 . S
C93 C94 1.385 . S
C93 H116 0.930 . S
C94 C93 1.385 . S
C94 C95 1.395 . S
C94 H117 0.929 . S
C95 C94 1.395 . S
C95 C96 1.335 . S
C96 C95 1.335 . S
C96 C97 1.398 . S
C96 H118 0.930 . S
C97 C92 1.382 . S
C97 C96 1.398 . S
C97 H119 0.929 1_554 S
C98 O108 1.271 . S
C98 O109 1.251 . S
C99 O110 1.252 1_554 S
C99 O111 1.272 . S
O100 Sm80 2.543 . S
O100 C82 1.261 . S
O101 Sm80 2.450 1_554 S
O101 C82 1.242 1_554 S
O102 Sm80 2.681 1_554 S
O102 Sm81 2.386 . S
O102 C89 1.271 . S
O103 Sm80 2.464 1_554 S
O103 C89 1.251 . S
O104 Sm80 2.396 1_554 S
O104 C90 1.252 1_554 S
O105 Sm81 2.406 1_556 S
O105 C90 1.300 . S
O106 Sm81 2.543 . S
O106 C91 1.261 . S
O107 Sm81 2.450 1_556 S
O107 C91 1.242 1_556 S
O108 Sm80 2.386 . S
O108 Sm81 2.681 1_556 S
O108 C98 1.271 . S
O109 Sm81 2.464 1_556 S
O109 C98 1.251 . S
O110 Sm81 2.396 1_556 S
O110 C99 1.252 1_556 S
O111 Sm80 2.408 1_554 S
O111 C99 1.272 . S
H112 C84 0.930 . S
H113 C85 0.929 . S
H114 C87 0.930 . S
H115 C88 0.929 1_554 S
H116 C93 0.930 . S
H117 C94 0.929 . S
H118 C96 0.930 . S
H119 C97 0.929 1_556 S
Sm120 C122 2.846 . S
Sm120 O140 2.543 . S
Sm120 O141 2.450 1_554 S
Sm120 O142 2.681 1_554 S
Sm120 O143 2.464 1_554 S
Sm120 O144 2.396 . S
Sm120 O148 2.386 . S
Sm120 O151 2.408 1_554 S
Sm121 C131 2.846 . S
Sm121 O142 2.386 . S
Sm121 O145 2.408 1_556 S
Sm121 O146 2.543 . S
Sm121 O147 2.450 1_556 S
Sm121 O148 2.681 1_556 S
Sm121 O149 2.464 1_556 S
Sm121 O150 2.396 . S
C122 Sm120 2.846 . S
C122 C123 1.506 . S
C122 O140 1.261 . S
C122 O141 1.242 1_554 S
C123 C122 1.506 . S
C123 C124 1.358 . S
C123 C128 1.382 . S
C124 C123 1.358 . S
C124 C125 1.385 . S
C124 H152 0.930 . S
C125 C124 1.385 . S
C125 C126 1.395 . S
C125 H153 0.929 . S
C126 C125 1.395 . S
C126 C127 1.335 . S
C127 C126 1.335 . S
C127 C128 1.398 . S
C127 H154 0.930 . S
C128 C123 1.382 . S
C128 C127 1.398 . S
C128 H155 0.929 1_554 S
C129 O142 1.271 . S
C129 O143 1.251 . S
C130 O144 1.252 . S
C130 O145 1.272 . S
C131 Sm121 2.846 . S
C131 C132 1.506 . S
C131 O146 1.261 . S
C131 O147 1.242 1_556 S
C132 C131 1.506 . S
C132 C133 1.358 . S
C132 C137 1.382 . S
C133 C132 1.358 . S
C133 C134 1.385 . S
C133 H156 0.930 . S
C134 C133 1.385 . S
C134 C135 1.395 . S
C134 H157 0.929 . S
C135 C134 1.395 . S
C135 C136 1.335 . S
C136 C135 1.335 . S
C136 C137 1.398 . S
C136 H158 0.930 . S
C137 C132 1.382 . S
C137 C136 1.398 . S
C137 H159 0.929 1_556 S
C138 O148 1.271 . S
C138 O149 1.251 . S
C139 O150 1.252 . S
C139 O151 1.272 . S
O140 Sm120 2.543 . S
O140 C122 1.261 . S
O141 Sm120 2.450 1_556 S
O141 C122 1.242 1_556 S
O142 Sm120 2.681 1_556 S
O142 Sm121 2.386 . S
O142 C129 1.271 . S
O143 Sm120 2.464 1_556 S
O143 C129 1.251 . S
O144 Sm120 2.396 . S
O144 C130 1.252 . S
O145 Sm121 2.408 1_554 S
O145 C130 1.272 . S
O146 Sm121 2.543 . S
O146 C131 1.261 . S
O147 Sm121 2.450 1_554 S
O147 C131 1.242 1_554 S
O148 Sm120 2.386 . S
O148 Sm121 2.681 1_554 S
O148 C138 1.271 . S
O149 Sm121 2.464 1_554 S
O149 C138 1.251 . S
O150 Sm121 2.396 . S
O150 C139 1.252 . S
O151 Sm120 2.408 1_556 S
O151 C139 1.272 . S
H152 C124 0.930 . S
H153 C125 0.929 . S
H154 C127 0.930 . S
H155 C128 0.929 1_556 S
H156 C133 0.930 . S
H157 C134 0.929 . S
H158 C136 0.930 . S
H159 C137 0.929 1_554 S
Sm160 C162 2.846 . S
Sm160 O180 2.543 1_556 S
Sm160 O181 2.450 . S
Sm160 O182 2.681 . S
Sm160 O183 2.464 . S
Sm160 O184 2.396 . S
Sm160 O188 2.386 1_556 S
Sm160 O191 2.408 . S
Sm161 C171 2.846 . S
Sm161 O182 2.386 1_554 S
Sm161 O185 2.408 . S
Sm161 O186 2.543 1_554 S
Sm161 O187 2.450 . S
Sm161 O188 2.681 . S
Sm161 O189 2.464 . S
Sm161 O190 2.396 . S
C162 Sm160 2.846 . S
C162 C163 1.506 . S
C162 O180 1.261 1_556 S
C162 O181 1.242 . S
C163 C162 1.506 . S
C163 C164 1.358 . S
C163 C168 1.382 . S
C164 C163 1.358 . S
C164 C165 1.385 . S
C164 H192 0.930 1_556 S
C165 C164 1.385 . S
C165 C166 1.395 . S
C165 H193 0.929 1_556 S
C166 C165 1.395 . S
C166 C167 1.335 . S
C167 C166 1.335 . S
C167 C168 1.398 . S
C167 H194 0.930 . S
C168 C163 1.382 . S
C168 C167 1.398 . S
C168 H195 0.929 . S
C169 O182 1.271 . S
C169 O183 1.251 . S
C170 O184 1.252 . S
C170 O185 1.272 1_556 S
C171 Sm161 2.846 . S
C171 C172 1.506 . S
C171 O186 1.261 1_554 S
C171 O187 1.242 . S
C172 C171 1.506 . S
C172 C173 1.358 . S
C172 C177 1.382 . S
C173 C172 1.358 . S
C173 C174 1.385 . S
C173 H196 0.930 1_554 S
C174 C173 1.385 . S
C174 C175 1.395 . S
C174 H197 0.929 1_554 S
C175 C174 1.395 . S
C175 C176 1.335 . S
C176 C175 1.335 . S
C176 C177 1.398 . S
C176 H198 0.930 . S
C177 C172 1.382 . S
C177 C176 1.398 . S
C177 H199 0.929 . S
C178 O188 1.271 . S
C178 O189 1.251 . S
C179 O190 1.252 . S
C179 O191 1.272 1_554 S
O180 Sm160 2.543 1_554 S
O180 C162 1.261 1_554 S
O181 Sm160 2.450 . S
O181 C162 1.242 . S
O182 Sm160 2.681 . S
O182 Sm161 2.386 1_556 S
O182 C169 1.271 . S
O183 Sm160 2.464 . S
O183 C169 1.251 . S
O184 Sm160 2.396 . S
O184 C170 1.252 . S
O185 Sm161 2.408 . S
O185 C170 1.272 1_554 S
O186 Sm161 2.543 1_556 S
O186 C171 1.261 1_556 S
O187 Sm161 2.450 . S
O187 C171 1.242 . S
O188 Sm160 2.386 1_554 S
O188 Sm161 2.681 . S
O188 C178 1.271 . S
O189 Sm161 2.464 . S
O189 C178 1.251 . S
O190 Sm161 2.396 . S
O190 C179 1.252 . S
O191 Sm160 2.408 . S
O191 C179 1.272 1_556 S
H192 C164 0.930 1_554 S
H193 C165 0.929 1_554 S
H194 C167 0.930 . S
H195 C168 0.929 . S
H196 C173 0.930 1_556 S
H197 C174 0.929 1_556 S
H198 C176 0.930 . S
H199 C177 0.929 . S
Sm200 C202 2.846 1_556 S
Sm200 O220 2.543 1_556 S
Sm200 O221 2.450 . S
Sm200 O222 2.681 . S
Sm200 O223 2.464 . S
Sm200 O224 2.396 . S
Sm200 O228 2.386 1_556 S
Sm200 O231 2.408 . S
Sm201 C211 2.846 1_554 S
Sm201 O222 2.386 1_554 S
Sm201 O225 2.408 . S
Sm201 O226 2.543 1_554 S
Sm201 O227 2.450 . S
Sm201 O228 2.681 . S
Sm201 O229 2.464 . S
Sm201 O230 2.396 . S
C202 Sm200 2.846 1_554 S
C202 C203 1.506 . S
C202 O220 1.261 . S
C202 O221 1.242 1_554 S
C203 C202 1.506 . S
C203 C204 1.358 . S
C203 C208 1.382 1_544 S
C204 C203 1.358 . S
C204 C205 1.385 1_545 S
C204 H232 0.930 . S
C205 C204 1.385 1_565 S
C205 C206 1.395 . S
C205 H233 0.929 . S
C206 C205 1.395 . S
C206 C207 1.335 1_554 S
C207 C206 1.335 1_556 S
C207 C208 1.398 . S
C207 H234 0.930 . S
C208 C203 1.382 1_566 S
C208 C207 1.398 . S
C208 H235 0.929 . S
C209 O222 1.271 . S
C209 O223 1.251 . S
C210 O224 1.252 1_554 S
C210 O225 1.272 . S
C211 Sm201 2.846 1_556 S
C211 C212 1.506 . S
C211 O226 1.261 . S
C211 O227 1.242 1_556 S
C212 C211 1.506 . S
C212 C213 1.358 . S
C212 C217 1.382 1_556 S
C213 C212 1.358 . S
C213 C214 1.385 . S
C213 H236 0.930 . S
C214 C213 1.385 . S
C214 C215 1.395 . S
C214 H237 0.929 . S
C215 C214 1.395 . S
C215 C216 1.335 1_556 S
C216 C215 1.335 1_554 S
C216 C217 1.398 . S
C216 H238 0.930 . S
C217 C212 1.382 1_554 S
C217 C216 1.398 . S
C217 H239 0.929 . S
C218 O228 1.271 . S
C218 O229 1.251 . S
C219 O230 1.252 1_556 S
C219 O231 1.272 . S
O220 Sm200 2.543 1_554 S
O220 C202 1.261 . S
O221 Sm200 2.450 . S
O221 C202 1.242 1_556 S
O222 Sm200 2.681 . S
O222 Sm201 2.386 1_556 S
O222 C209 1.271 . S
O223 Sm200 2.464 . S
O223 C209 1.251 . S
O224 Sm200 2.396 . S
O224 C210 1.252 1_556 S
O225 Sm201 2.408 . S
O225 C210 1.272 . S
O226 Sm201 2.543 1_556 S
O226 C211 1.261 . S
O227 Sm201 2.450 . S
O227 C211 1.242 1_554 S
O228 Sm200 2.386 1_554 S
O228 Sm201 2.681 . S
O228 C218 1.271 . S
O229 Sm201 2.464 . S
O229 C218 1.251 . S
O230 Sm201 2.396 . S
O230 C219 1.252 1_554 S
O231 Sm200 2.408 . S
O231 C219 1.272 . S
H232 C204 0.930 . S
H233 C205 0.929 . S
H234 C207 0.930 . S
H235 C208 0.929 . S
H236 C213 0.930 . S
H237 C214 0.929 . S
H238 C216 0.930 . S
H239 C217 0.929 . S
C240 C241 1.369 . S
C240 C242 1.419 . S
C240 H244 0.930 . S
C241 C240 1.369 . S
C241 C250 1.429 . S
C242 C240 1.419 . S
C242 C243 1.363 . S
C242 H245 0.929 . S
C243 C242 1.363 . S
C243 C249 1.428 . S
H244 C240 0.930 . S
H245 C242 0.929 . S
S246 N247 1.613 . S
S246 N248 1.610 . S
N247 S246 1.613 . S
N247 C250 1.350 . S
N248 S246 1.610 . S
N248 C249 1.351 . S
C249 C243 1.428 . S
C249 N248 1.351 . S
C249 C250 1.434 . S
C250 C241 1.429 . S
C250 N247 1.350 . S
C250 C249 1.434 . S
C251 C252 1.369 . S
C251 C253 1.419 . S
C251 H255 0.930 . S
C252 C251 1.369 . S
C252 C261 1.429 . S
C253 C251 1.419 . S
C253 C254 1.363 . S
C253 H256 0.929 . S
C254 C253 1.363 . S
C254 C260 1.428 . S
H255 C251 0.930 . S
H256 C253 0.929 . S
S257 N258 1.613 . S
S257 N259 1.610 . S
N258 S257 1.613 . S
N258 C261 1.350 . S
N259 S257 1.610 . S
N259 C260 1.351 . S
C260 C254 1.428 . S
C260 N259 1.351 . S
C260 C261 1.434 . S
C261 C252 1.429 . S
C261 N258 1.350 . S
C261 C260 1.434 . S
C262 C263 1.369 . S
C262 C264 1.419 1_545 S
C262 H266 0.930 1_545 S
C263 C262 1.369 . S
C263 C272 1.429 . S
C264 C262 1.419 1_565 S
C264 C265 1.363 1_565 S
C264 H267 0.929 . S
C265 C264 1.363 1_545 S
C265 C271 1.428 . S
H266 C262 0.930 1_565 S
H267 C264 0.929 . S
S268 N269 1.613 . S
S268 N270 1.610 . S
N269 S268 1.613 . S
N269 C272 1.350 . S
N270 S268 1.610 . S
N270 C271 1.351 . S
C271 C265 1.428 . S
C271 N270 1.351 . S
C271 C272 1.434 . S
C272 C263 1.429 . S
C272 N269 1.350 . S
C272 C271 1.434 . S
C273 C274 1.369 . S
C273 C275 1.419 . S
C273 H277 0.930 . S
C274 C273 1.369 . S
C274 C283 1.429 . S
C275 C273 1.419 . S
C275 C276 1.363 . S
C275 H278 0.929 . S
C276 C275 1.363 . S
C276 C282 1.428 . S
H277 C273 0.930 . S
H278 C275 0.929 . S
S279 N280 1.613 . S
S279 N281 1.610 . S
N280 S279 1.613 . S
N280 C283 1.350 . S
N281 S279 1.610 . S
N281 C282 1.351 . S
C282 C276 1.428 . S
C282 N281 1.351 . S
C282 C283 1.434 . S
C283 C274 1.429 . S
C283 N280 1.350 . S
C283 C282 1.434 . S
C284 C285 1.369 1_655 S
C284 C286 1.419 . S
C284 H288 0.930 . S
C285 C284 1.369 1_455 S
C285 C294 1.429 . S
C286 C284 1.419 . S
C286 C287 1.363 . S
C286 H289 0.929 . S
C287 C286 1.363 . S
C287 C293 1.428 1_655 S
H288 C284 0.930 . S
H289 C286 0.929 . S
S290 N291 1.613 . S
S290 N292 1.610 . S
N291 S290 1.613 . S
N291 C294 1.350 . S
N292 S290 1.610 . S
N292 C293 1.351 . S
C293 C287 1.428 1_455 S
C293 N292 1.351 . S
C293 C294 1.434 . S
C294 C285 1.429 . S
C294 N291 1.350 . S
C294 C293 1.434 . S
C295 C296 1.369 . S
C295 C297 1.419 . S
C295 H299 0.930 . S
C296 C295 1.369 . S
C296 C305 1.429 . S
C297 C295 1.419 . S
C297 C298 1.363 . S
C297 H300 0.929 . S
C298 C297 1.363 . S
C298 C304 1.428 . S
H299 C295 0.930 . S
H300 C297 0.929 . S
S301 N302 1.613 . S
S301 N303 1.610 . S
N302 S301 1.613 . S
N302 C305 1.350 1_545 S
N303 S301 1.610 . S
N303 C304 1.351 1_545 S
C304 C298 1.428 . S
C304 N303 1.351 1_565 S
C304 C305 1.434 . S
C305 C296 1.429 . S
C305 N302 1.350 1_565 S
C305 C304 1.434 . S
C306 C307 1.369 1_556 S
C306 C308 1.419 . S
C306 H310 0.930 . S
C307 C306 1.369 1_554 S
C307 C316 1.429 . S
C308 C306 1.419 . S
C308 C309 1.363 1_556 S
C308 H311 0.929 . S
C309 C308 1.363 1_554 S
C309 C315 1.428 . S
H310 C306 0.930 . S
H311 C308 0.929 . S
S312 N313 1.613 . S
S312 N314 1.610 . S
N313 S312 1.613 . S
N313 C316 1.350 . S
N314 S312 1.610 . S
N314 C315 1.351 . S
C315 C309 1.428 . S
C315 N314 1.351 . S
C315 C316 1.434 . S
C316 C307 1.429 . S
C316 N313 1.350 . S
C316 C315 1.434 . S
C317 C318 1.369 . S
C317 C319 1.419 . S
C317 H321 0.930 . S
C318 C317 1.369 . S
C318 C327 1.429 . S
C319 C317 1.419 . S
C319 C320 1.363 . S
C319 H322 0.929 . S
C320 C319 1.363 . S
C320 C326 1.428 . S
H321 C317 0.930 . S
H322 C319 0.929 . S
S323 N324 1.613 . S
S323 N325 1.610 . S
N324 S323 1.613 . S
N324 C327 1.350 1_554 S
N325 S323 1.610 . S
N325 C326 1.351 1_554 S
C326 C320 1.428 . S
C326 N325 1.351 1_556 S
C326 C327 1.434 . S
C327 C318 1.429 . S
C327 N324 1.350 1_556 S
C327 C326 1.434 . S
C328 C329 1.369 . S
C328 C330 1.419 . S
C328 H332 0.930 . S
C329 C328 1.369 . S
C329 C338 1.429 1_554 S
C330 C328 1.419 . S
C330 C331 1.363 . S
C330 H333 0.929 . S
C331 C330 1.363 . S
C331 C337 1.428 1_554 S
H332 C328 0.930 . S
H333 C330 0.929 . S
S334 N335 1.613 . S
S334 N336 1.610 . S
N335 S334 1.613 . S
N335 C338 1.350 . S
N336 S334 1.610 . S
N336 C337 1.351 . S
C337 C331 1.428 1_556 S
C337 N336 1.351 . S
C337 C338 1.434 . S
C338 C329 1.429 1_556 S
C338 N335 1.350 . S
C338 C337 1.434 . S
C339 C340 1.369 . S
C339 C341 1.419 . S
C339 H343 0.930 . S
C340 C339 1.369 . S
C340 C349 1.429 . S
C341 C339 1.419 . S
C341 C342 1.363 . S
C341 H344 0.929 . S
C342 C341 1.363 . S
C342 C348 1.428 . S
H343 C339 0.930 . S
H344 C341 0.929 . S
S345 N346 1.613 1_554 S
S345 N347 1.610 . S
N346 S345 1.613 1_556 S
N346 C349 1.350 . S
N347 S345 1.610 . S
N347 C348 1.351 1_554 S
C348 C342 1.428 . S
C348 N347 1.351 1_556 S
C348 C349 1.434 . S
C349 C340 1.429 . S
C349 N346 1.350 . S
C349 C348 1.434 . S
C350 C351 1.369 . S
C350 C352 1.419 . S
C350 H354 0.930 . S
C351 C350 1.369 . S
C351 C360 1.429 . S
C352 C350 1.419 . S
C352 C353 1.363 . S
C352 H355 0.929 . S
C353 C352 1.363 . S
C353 C359 1.428 . S
H354 C350 0.930 . S
H355 C352 0.929 . S
S356 N357 1.613 . S
S356 N358 1.610 . S
N357 S356 1.613 . S
N357 C360 1.350 1_545 S
N358 S356 1.610 . S
N358 C359 1.351 1_545 S
C359 C353 1.428 . S
C359 N358 1.351 1_565 S
C359 C360 1.434 . S
C360 C351 1.429 . S
C360 N357 1.350 1_565 S
C360 C359 1.434 . S
C361 C362 1.369 . S
C361 C363 1.419 . S
C361 H365 0.930 . S
C362 C361 1.369 . S
C362 C371 1.429 1_556 S
C363 C361 1.419 . S
C363 C364 1.363 . S
C363 H366 0.929 . S
C364 C363 1.363 . S
C364 C370 1.428 1_556 S
H365 C361 0.930 . S
H366 C363 0.929 . S
S367 N368 1.613 . S
S367 N369 1.610 . S
N368 S367 1.613 . S
N368 C371 1.350 . S
N369 S367 1.610 . S
N369 C370 1.351 . S
C370 C364 1.428 1_554 S
C370 N369 1.351 . S
C370 C371 1.434 . S
C371 C362 1.429 1_554 S
C371 N368 1.350 . S
C371 C370 1.434 . S
C372 C373 1.369 . S
C372 C374 1.419 . S
C372 H376 0.930 . S
C373 C372 1.369 . S
C373 C382 1.429 . S
C374 C372 1.419 . S
C374 C375 1.363 . S
C374 H377 0.929 . S
C375 C374 1.363 . S
C375 C381 1.428 . S
H376 C372 0.930 . S
H377 C374 0.929 . S
S378 N379 1.613 . S
S378 N380 1.610 . S
N379 S378 1.613 . S
N379 C382 1.350 . S
N380 S378 1.610 . S
N380 C381 1.351 . S
C381 C375 1.428 . S
C381 N380 1.351 . S
C381 C382 1.434 . S
C382 C373 1.429 . S
C382 N379 1.350 . S
C382 C381 1.434 . S
C383 C384 1.369 . S
C383 C385 1.419 . S
C383 H387 0.930 . S
C384 C383 1.369 . S
C384 C393 1.429 . S
C385 C383 1.419 . S
C385 C386 1.363 . S
C385 H388 0.929 . S
C386 C385 1.363 . S
C386 C392 1.428 . S
H387 C383 0.930 . S
H388 C385 0.929 . S
S389 N390 1.613 . S
S389 N391 1.610 . S
N390 S389 1.613 . S
N390 C393 1.350 . S
N391 S389 1.610 . S
N391 C392 1.351 . S
C392 C386 1.428 . S
C392 N391 1.351 . S
C392 C393 1.434 . S
C393 C384 1.429 . S
C393 N390 1.350 . S
C393 C392 1.434 . S
C394 C395 1.369 . S
C394 C396 1.419 . S
C394 H398 0.930 . S
C395 C394 1.369 . S
C395 C404 1.429 . S
C396 C394 1.419 . S
C396 C397 1.363 . S
C396 H399 0.929 . S
C397 C396 1.363 . S
C397 C403 1.428 . S
H398 C394 0.930 . S
H399 C396 0.929 . S
S400 N401 1.613 1_545 S
S400 N402 1.610 . S
N401 S400 1.613 1_565 S
N401 C404 1.350 . S
N402 S400 1.610 . S
N402 C403 1.351 1_545 S
C403 C397 1.428 . S
C403 N402 1.351 1_565 S
C403 C404 1.434 . S
C404 C395 1.429 . S
C404 N401 1.350 . S
C404 C403 1.434 . S
C405 C406 1.369 . S
C405 C407 1.419 . S
C405 H409 0.930 . S
C406 C405 1.369 . S
C406 C415 1.429 . S
C407 C405 1.419 . S
C407 C408 1.363 . S
C407 H410 0.929 . S
C408 C407 1.363 . S
C408 C414 1.428 . S
H409 C405 0.930 . S
H410 C407 0.929 . S
S411 N412 1.613 . S
S411 N413 1.610 . S
N412 S411 1.613 . S
N412 C415 1.350 . S
N413 S411 1.610 . S
N413 C414 1.351 . S
C414 C408 1.428 . S
C414 N413 1.351 . S
C414 C415 1.434 . S
C415 C406 1.429 . S
C415 N412 1.350 . S
C415 C414 1.434 . S
C416 C417 1.369 . S
C416 C418 1.419 . S
C416 H420 0.930 . S
C417 C416 1.369 . S
C417 C426 1.429 . S
C418 C416 1.419 . S
C418 C419 1.363 . S
C418 H421 0.929 . S
C419 C418 1.363 . S
C419 C425 1.428 . S
H420 C416 0.930 . S
H421 C418 0.929 . S
S422 N423 1.613 . S
S422 N424 1.610 . S
N423 S422 1.613 . S
N423 C426 1.350 . S
N424 S422 1.610 . S
N424 C425 1.351 . S
C425 C419 1.428 . S
C425 N424 1.351 . S
C425 C426 1.434 . S
C426 C417 1.429 . S
C426 N423 1.350 . S
C426 C425 1.434 . S
C427 C428 1.369 . S
C427 C429 1.419 . S
C427 H431 0.930 . S
C428 C427 1.369 . S
C428 C437 1.429 . S
C429 C427 1.419 . S
C429 C430 1.363 . S
C429 H432 0.929 . S
C430 C429 1.363 . S
C430 C436 1.428 . S
H431 C427 0.930 . S
H432 C429 0.929 . S
S433 N434 1.613 . S
S433 N435 1.610 . S
N434 S433 1.613 . S
N434 C437 1.350 . S
N435 S433 1.610 . S
N435 C436 1.351 . S
C436 C430 1.428 . S
C436 N435 1.351 . S
C436 C437 1.434 . S
C437 C428 1.429 . S
C437 N434 1.350 . S
C437 C436 1.434 . S
C241 C210 3.700 . S
C243 C6 3.565 . S
C252 C10 3.769 . S
C254 C46 3.458 . S
C263 C50 3.255 . S
C265 C90 3.240 1_545 S
C274 C126 2.365 . S
C276 C86 2.165 . S
C285 C166 3.054 . S
C287 C130 3.630 . S
C296 C170 2.951 . S
C298 C206 2.801 . S
C307 C179 2.593 . S
C309 C15 2.494 . S
C318 C219 3.125 . S
C320 C55 3.087 . S
C329 C99 3.685 . S
C331 C19 3.711 . S
C340 C135 1.910 . S
C342 C59 2.082 1_556 S
C351 C175 0.772 . S
C353 C95 0.766 . S
C362 C139 1.150 . S
C364 C215 1.186 . S
C373 C9 0.827 . S
C375 C18 0.830 . S
C384 C49 0.921 . S
C386 C58 0.937 . S
C395 C98 0.941 . S
C397 C89 0.954 . S
C406 C129 0.771 . S
C408 C138 0.773 . S
C417 C178 0.993 . S
C419 C169 0.998 . S
C428 C209 0.945 . S
C430 C218 0.952 . S
