# Generated by pormake.
# Topology uoq, (4)-cn, num edge types: 1
# Building blocks:
#     Node 0, Type 0, BuildingBlock: ICAMEG_clean_sbu_1, # of connection points: 4
#     Node 1, Type 0, BuildingBlock: ICAMEG_clean_sbu_1, # of connection points: 4
#     Node 2, Type 0, BuildingBlock: ICAMEG_clean_sbu_1, # of connection points: 4
#     Node 3, Type 0, BuildingBlock: ICAMEG_clean_sbu_1, # of connection points: 4
#     Node 4, Type 0, BuildingBlock: ICAMEG_clean_sbu_1, # of connection points: 4
#     Node 5, Type 0, BuildingBlock: ICAMEG_clean_sbu_1, # of connection points: 4
#     Node 6, Type 0, BuildingBlock: ICAMEG_clean_sbu_1, # of connection points: 4
#     Node 7, Type 0, BuildingBlock: ICAMEG_clean_sbu_1, # of connection points: 4
#     Node 8, Type 0, BuildingBlock: ICAMEG_clean_sbu_1, # of connection points: 4
#     Node 9, Type 0, BuildingBlock: ICAMEG_clean_sbu_1, # of connection points: 4
#     Node 10, Type 0, BuildingBlock: ICAMEG_clean_sbu_1, # of connection points: 4
#     Node 11, Type 0, BuildingBlock: ICAMEG_clean_sbu_1, # of connection points: 4
#     Edge 12, Type (0, 0), BuildingBlock: CIFDUS_clean_linker_0, # of connection points: 2
#     Edge 13, Type (0, 0), BuildingBlock: CIFDUS_clean_linker_0, # of connection points: 2
#     Edge 14, Type (0, 0), BuildingBlock: CIFDUS_clean_linker_0, # of connection points: 2
#     Edge 15, Type (0, 0), BuildingBlock: CIFDUS_clean_linker_0, # of connection points: 2
#     Edge 16, Type (0, 0), BuildingBlock: CIFDUS_clean_linker_0, # of connection points: 2
#     Edge 17, Type (0, 0), BuildingBlock: CIFDUS_clean_linker_0, # of connection points: 2
#     Edge 18, Type (0, 0), BuildingBlock: CIFDUS_clean_linker_0, # of connection points: 2
#     Edge 19, Type (0, 0), BuildingBlock: CIFDUS_clean_linker_0, # of connection points: 2
#     Edge 20, Type (0, 0), BuildingBlock: CIFDUS_clean_linker_0, # of connection points: 2
#     Edge 21, Type (0, 0), BuildingBlock: CIFDUS_clean_linker_0, # of connection points: 2
#     Edge 22, Type (0, 0), BuildingBlock: CIFDUS_clean_linker_0, # of connection points: 2
#     Edge 23, Type (0, 0), BuildingBlock: CIFDUS_clean_linker_0, # of connection points: 2
#     Edge 24, Type (0, 0), BuildingBlock: CIFDUS_clean_linker_0, # of connection points: 2
#     Edge 25, Type (0, 0), BuildingBlock: CIFDUS_clean_linker_0, # of connection points: 2
#     Edge 26, Type (0, 0), BuildingBlock: CIFDUS_clean_linker_0, # of connection points: 2
#     Edge 27, Type (0, 0), BuildingBlock: CIFDUS_clean_linker_0, # of connection points: 2
#     Edge 28, Type (0, 0), BuildingBlock: CIFDUS_clean_linker_0, # of connection points: 2
#     Edge 29, Type (0, 0), BuildingBlock: CIFDUS_clean_linker_0, # of connection points: 2
#     Edge 30, Type (0, 0), BuildingBlock: CIFDUS_clean_linker_0, # of connection points: 2
#     Edge 31, Type (0, 0), BuildingBlock: CIFDUS_clean_linker_0, # of connection points: 2
#     Edge 32, Type (0, 0), BuildingBlock: CIFDUS_clean_linker_0, # of connection points: 2
#     Edge 33, Type (0, 0), BuildingBlock: CIFDUS_clean_linker_0, # of connection points: 2
#     Edge 34, Type (0, 0), BuildingBlock: CIFDUS_clean_linker_0, # of connection points: 2
#     Edge 35, Type (0, 0), BuildingBlock: CIFDUS_clean_linker_0, # of connection points: 2
# Relax obj value: 0.258
# Max RMSD: 0.232
# Mean RMSD: 0.232
data_MOF--net-uoq--node1-ICAMEG_clean_sbu_1--edge1-CIFDUS_clean_linker_0
_symmetry_space_group_name_H-M    P1
_symmetry_Int_Tables_number       1
_symmetry_cell_setting            triclinic
loop_
_symmetry_equiv_pos_as_xyz
'x, y, z'
_cell_length_a     53.130175
_cell_length_b     53.159529
_cell_length_c     21.566064
_cell_angle_alpha  90.275031
_cell_angle_beta   90.002701
_cell_angle_gamma 120.05124
loop_
_atom_site_label
_atom_site_type_symbol
_atom_site_fract_x
_atom_site_fract_y
_atom_site_fract_z
_atom_type_partial_charge
Co0 Co 0.32629 0.45601 0.36833 0.0
Co1 Co 0.34401 0.46589 0.21302 0.0
O2 O 0.31759 0.46058 0.28204 0.0
C3 C 0.31124 0.50278 0.38271 0.0
O4 O 0.32695 0.51665 0.33429 0.0
C5 C 0.28201 0.43158 0.15892 0.0
O6 O 0.27052 0.42918 0.21393 0.0
O7 O 0.34571 0.43006 0.239 0.0
O8 O 0.34525 0.43372 0.34242 0.0
H9 H 0.4324 0.47019 0.11796 0.0
H10 H 0.26567 0.4397 0.33739 0.0
O11 O 0.3079 0.47832 0.39874 0.0
H12 H 0.25994 0.34992 0.41527 0.0
H13 H 0.30442 0.438 0.59635 0.0
H14 H 0.3778 0.4609 0.4334 0.0
H15 H 0.30703 0.39548 0.41019 0.0
H16 H 0.29344 0.44273 0.4874 0.0
O17 O 0.30962 0.4422 0.1537 0.0
H18 H 0.39911 0.46492 0.20301 0.0
H19 H 0.34461 0.47682 0.07672 0.0
H20 H 0.38955 0.45603 0.54168 0.0
H21 H 0.21802 0.39467 0.34238 0.0
H22 H 0.35273 0.44452 0.62407 0.0
H23 H 0.21496 0.34932 0.38137 0.0
O24 O 0.36415 0.49257 0.3635 0.0
H25 H 0.29807 0.5281 0.17866 0.0
H26 H 0.38894 0.52468 0.17028 0.0
H27 H 0.38961 0.56977 0.14215 0.0
H28 H 0.34387 0.57168 0.14565 0.0
H29 H 0.29849 0.48382 0.20774 0.0
H30 H 0.37712 0.48184 0.99026 0.0
H31 H 0.42147 0.47869 1.01065 0.0
O32 O 0.37923 0.49132 0.26679 0.0
C33 C 0.34978 0.42314 0.29362 0.0
C34 C 0.41317 0.47165 0.1085 0.0
C35 C 0.38211 0.47813 0.03681 0.0
N36 N 0.36996 0.4706 0.14497 0.0
C37 C 0.39427 0.46876 0.1565 0.0
C38 C 0.36369 0.47509 0.08595 0.0
C39 C 0.407 0.47639 0.04829 0.0
C40 C 0.2645 0.42007 0.35457 0.0
N41 N 0.28916 0.42019 0.37297 0.0
C42 C 0.23746 0.39463 0.35721 0.0
C43 C 0.23576 0.3692 0.37903 0.0
C44 C 0.261 0.3695 0.39796 0.0
C45 C 0.28765 0.39535 0.3946 0.0
C46 C 0.32062 0.44294 0.56085 0.0
C47 C 0.36158 0.4557 0.46889 0.0
C48 C 0.31456 0.4457 0.49906 0.0
N49 N 0.33488 0.45186 0.45393 0.0
C50 C 0.36839 0.45305 0.53017 0.0
C51 C 0.34773 0.44661 0.57637 0.0
C52 C 0.38368 0.50211 0.32168 0.0
C53 C 0.31809 0.52745 0.17618 0.0
C54 C 0.36891 0.52519 0.17202 0.0
C55 C 0.36944 0.55086 0.15592 0.0
C56 C 0.34379 0.55192 0.15788 0.0
N57 N 0.34354 0.50104 0.18913 0.0
C58 C 0.31841 0.50216 0.19198 0.0
Co59 Co 0.87659 0.31286 0.70508 0.0
Co60 Co 0.88536 0.33273 0.55071 0.0
O61 O 0.86329 0.30636 0.61873 0.0
C62 C 0.81786 0.30577 0.71873 0.0
O63 O 0.82313 0.32413 0.67341 0.0
C64 C 0.85852 0.2707 0.49972 0.0
O65 O 0.8573 0.26125 0.55626 0.0
O66 O 0.92188 0.33195 0.57555 0.0
O67 O 0.91754 0.32843 0.67912 0.0
H68 H 0.9718 0.41915 0.45708 0.0
H69 H 0.82738 0.25443 0.67348 0.0
O70 O 0.83618 0.29821 0.73444 0.0
H71 H 0.90583 0.23776 0.74593 0.0
H72 H 0.86942 0.2874 0.93148 0.0
H73 H 0.92638 0.36058 0.77293 0.0
H74 H 0.9132 0.28734 0.74234 0.0
H75 H 0.85377 0.2792 0.82204 0.0
O76 O 0.87189 0.29819 0.4899 0.0
H77 H 0.94316 0.38589 0.54135 0.0
H78 H 0.87452 0.33511 0.41525 0.0
H79 H 0.94299 0.3695 0.88172 0.0
H80 H 0.81888 0.20441 0.67753 0.0
H81 H 0.91442 0.33276 0.96189 0.0
H82 H 0.85834 0.19584 0.71366 0.0
O83 O 0.88247 0.35258 0.70338 0.0
H84 H 0.77811 0.2911 0.51291 0.0
H85 H 0.87403 0.38043 0.51625 0.0
H86 H 0.83046 0.38347 0.49063 0.0
H87 H 0.78204 0.33855 0.48848 0.0
H88 H 0.8221 0.28911 0.53928 0.0
H89 H 0.90253 0.36767 0.32958 0.0
H90 H 0.95149 0.41012 0.35027 0.0
O91 O 0.89756 0.368 0.60642 0.0
C92 C 0.93261 0.33383 0.63003 0.0
C93 C 0.95047 0.40075 0.44749 0.0
C94 C 0.91161 0.37183 0.37592 0.0
N95 N 0.90717 0.35861 0.48334 0.0
C96 C 0.93412 0.38187 0.49505 0.0
C97 C 0.89591 0.35339 0.42461 0.0
C98 C 0.93907 0.39566 0.38757 0.0
C99 C 0.84457 0.25086 0.6898 0.0
N100 N 0.8708 0.27382 0.70729 0.0
C101 C 0.83967 0.22249 0.69171 0.0
C102 C 0.86183 0.2177 0.71189 0.0
C103 C 0.88851 0.24122 0.72987 0.0
C104 C 0.89262 0.26929 0.72731 0.0
C105 C 0.88211 0.30353 0.89695 0.0
C106 C 0.91395 0.34437 0.80743 0.0
C107 C 0.87334 0.29903 0.83489 0.0
N108 N 0.88932 0.31925 0.79097 0.0
C109 C 0.92342 0.34959 0.86901 0.0
C110 C 0.90736 0.32899 0.91398 0.0
C111 C 0.89293 0.3725 0.6627 0.0
C112 C 0.7991 0.31081 0.51325 0.0
C113 C 0.85308 0.36078 0.5156 0.0
C114 C 0.82846 0.36264 0.50091 0.0
C115 C 0.80131 0.33743 0.49969 0.0
N116 N 0.85082 0.33456 0.5284 0.0
C117 C 0.8242 0.30979 0.52773 0.0
Co118 Co 0.57789 0.87927 0.01703 0.0
Co119 Co 0.57355 0.88873 0.86043 0.0
O120 O 0.57587 0.86645 0.93059 0.0
C121 C 0.5299 0.81777 0.02893 0.0
O122 O 0.51582 0.82038 0.9817 0.0
C123 C 0.60456 0.85721 0.80857 0.0
O124 O 0.60381 0.84559 0.86257 0.0
O125 O 0.60974 0.92503 0.89145 0.0
O126 O 0.60116 0.92084 0.99359 0.0
H127 H 0.57713 0.97636 0.76429 0.0
H128 H 0.59529 0.83558 0.9889 0.0
O129 O 0.55477 0.83831 0.04519 0.0
H130 H 0.6821 0.91847 0.08243 0.0
H131 H 0.58818 0.87356 0.248 0.0
H132 H 0.57098 0.9254 0.07908 0.0
H133 H 0.63679 0.91999 0.06944 0.0
H134 H 0.58726 0.85884 0.13909 0.0
O135 O 0.59738 0.87694 0.80443 0.0
H136 H 0.57792 0.9463 0.85014 0.0
H137 H 0.5664 0.88018 0.72254 0.0
H138 H 0.57207 0.94104 0.18733 0.0
H139 H 0.6401 0.833 1.00152 0.0
H140 H 0.5807 0.91504 0.27271 0.0
H141 H 0.68393 0.87469 0.0485 0.0
O142 O 0.54162 0.88065 1.00536 0.0
H143 H 0.50638 0.781 0.82464 0.0
H144 H 0.51776 0.87836 0.8044 0.0
H145 H 0.47224 0.83563 0.77047 0.0
H146 H 0.46632 0.78641 0.77981 0.0
H147 H 0.5511 0.82406 0.85927 0.0
H148 H 0.56593 0.90972 0.63535 0.0
H149 H 0.57115 0.95812 0.65596 0.0
O150 O 0.54793 0.89965 0.90998 0.0
C151 C 0.61455 0.9359 0.94653 0.0
C152 C 0.57478 0.95528 0.75473 0.0
C153 C 0.56858 0.91792 0.68235 0.0
N154 N 0.57215 0.91146 0.79154 0.0
C155 C 0.57513 0.93811 0.80318 0.0
C156 C 0.56906 0.90136 0.73195 0.0
C157 C 0.57146 0.94505 0.69395 0.0
C158 C 0.61428 0.85378 1.00943 0.0
N159 N 0.61346 0.87796 0.02805 0.0
C160 C 0.63959 0.85221 0.01643 0.0
C161 C 0.66418 0.87561 0.04275 0.0
C162 C 0.66317 0.90019 0.06173 0.0
C163 C 0.63748 0.901 0.05396 0.0
C164 C 0.5845 0.88513 0.2112 0.0
C165 C 0.57497 0.9141 0.11591 0.0
C166 C 0.5839 0.87686 0.14941 0.0
N167 N 0.57933 0.89141 0.10264 0.0
C168 C 0.57548 0.92301 0.17715 0.0
C169 C 0.58029 0.90839 0.22503 0.0
C170 C 0.5345 0.89208 0.96195 0.0
C171 C 0.50884 0.80237 0.81941 0.0
C172 C 0.51561 0.85718 0.80859 0.0
C173 C 0.48965 0.83297 0.78923 0.0
C174 C 0.48634 0.80539 0.79449 0.0
N175 N 0.53796 0.85425 0.83195 0.0
C176 C 0.53449 0.82709 0.83831 0.0
Co177 Co 0.71353 0.56983 0.34975 0.0
Co178 Co 0.70226 0.56424 0.1913 0.0
O179 O 0.72509 0.56642 0.26513 0.0
C180 C 0.72451 0.52041 0.36252 0.0
O181 O 0.71092 0.50888 0.31017 0.0
C182 C 0.76635 0.59857 0.15413 0.0
O183 O 0.77379 0.6035 0.21277 0.0
O184 O 0.70176 0.60074 0.2184 0.0
O185 O 0.698 0.59478 0.32148 0.0
H186 H 0.62089 0.56755 0.08013 0.0
H187 H 0.77419 0.58277 0.33216 0.0
O188 O 0.72823 0.54465 0.38183 0.0
H189 H 0.78255 0.67349 0.41355 0.0
H190 H 0.72608 0.58139 0.58158 0.0
H191 H 0.66111 0.56713 0.40514 0.0
H192 H 0.73444 0.63013 0.39675 0.0
H193 H 0.74087 0.57823 0.47479 0.0
O194 O 0.73943 0.58711 0.13911 0.0
H195 H 0.64977 0.56915 0.17113 0.0
H196 H 0.70665 0.55572 0.05506 0.0
H197 H 0.64559 0.57047 0.51112 0.0
H198 H 0.82279 0.62549 0.34935 0.0
H199 H 0.67818 0.57764 0.60027 0.0
H200 H 0.8272 0.67132 0.39004 0.0
O201 O 0.67499 0.53502 0.33661 0.0
H202 H 0.74519 0.49923 0.16108 0.0
H203 H 0.65706 0.50708 0.13979 0.0
H204 H 0.6553 0.46144 0.11026 0.0
H205 H 0.69967 0.45733 0.12036 0.0
H206 H 0.74581 0.54411 0.19137 0.0
H207 H 0.67856 0.55429 0.96286 0.0
H208 H 0.63525 0.56009 0.97506 0.0
O209 O 0.66448 0.53934 0.23767 0.0
C210 C 0.6961 0.60692 0.27255 0.0
C211 C 0.63968 0.56494 0.07423 0.0
C212 C 0.67209 0.55756 1.0084 0.0
N213 N 0.67984 0.56247 0.11857 0.0
C214 C 0.65609 0.56577 0.12561 0.0
C215 C 0.688 0.55854 0.06082 0.0
C216 C 0.64777 0.56079 0.01528 0.0
C217 C 0.77592 0.60257 0.35027 0.0
N218 N 0.75146 0.60398 0.36289 0.0
C219 C 0.80351 0.62672 0.35971 0.0
C220 C 0.80596 0.65244 0.38246 0.0
C221 C 0.78092 0.65369 0.39553 0.0
C222 C 0.7537 0.6291 0.38547 0.0
C223 C 0.71172 0.57835 0.5431 0.0
C224 C 0.67551 0.57045 0.44362 0.0
C225 C 0.71996 0.57651 0.48251 0.0
N226 N 0.70199 0.57277 0.43366 0.0
C227 C 0.66656 0.57224 0.50356 0.0
C228 C 0.68485 0.57624 0.55356 0.0
C229 C 0.65728 0.52745 0.29127 0.0
C230 C 0.72577 0.50082 0.15596 0.0
C231 C 0.67642 0.50549 0.14471 0.0
C232 C 0.67532 0.47958 0.12767 0.0
C233 C 0.70021 0.4773 0.1333 0.0
N234 N 0.70162 0.52862 0.16646 0.0
C235 C 0.72604 0.52638 0.17255 0.0
Co236 Co 0.15732 0.70155 0.69013 0.0
Co237 Co 0.14577 0.68689 0.53347 0.0
O238 O 0.1692 0.7111 0.60334 0.0
C239 C 0.20917 0.70572 0.75007 0.0
O240 O 0.19214 0.67912 0.7699 0.0
C241 C 0.17714 0.74978 0.48507 0.0
O242 O 0.18817 0.76009 0.54002 0.0
O243 O 0.11049 0.68795 0.56594 0.0
O244 O 0.11556 0.68519 0.66854 0.0
H245 H 0.05592 0.60435 0.43769 0.0
H246 H 0.20403 0.76164 0.66259 0.0
O247 O 0.19911 0.71756 0.71391 0.0
H248 H 0.12465 0.772 0.75418 0.0
H249 H 0.16513 0.72111 0.9205 0.0
H250 H 0.11078 0.65012 0.75471 0.0
H251 H 0.11958 0.7236 0.7412 0.0
H252 H 0.17938 0.73303 0.81107 0.0
O253 O 0.15806 0.72273 0.47862 0.0
H254 H 0.08718 0.63477 0.52349 0.0
H255 H 0.15321 0.68789 0.39554 0.0
H256 H 0.09574 0.63734 0.86352 0.0
H257 H 0.21017 0.81051 0.67555 0.0
H258 H 0.12302 0.67296 0.94733 0.0
H259 H 0.17026 0.81592 0.7215 0.0
O260 O 0.15292 0.66254 0.67823 0.0
H261 H 0.2525 0.72562 0.49128 0.0
H262 H 0.15414 0.64015 0.47771 0.0
H263 H 0.19594 0.63624 0.44162 0.0
H264 H 0.24562 0.67927 0.44767 0.0
H265 H 0.21033 0.72842 0.52797 0.0
H266 H 0.12251 0.65828 0.30837 0.0
H267 H 0.07354 0.61606 0.32918 0.0
O268 O 0.13415 0.6502 0.58223 0.0
C269 C 0.1002 0.68303 0.62133 0.0
C270 C 0.07724 0.62266 0.42802 0.0
C271 C 0.11458 0.65297 0.35544 0.0
N272 N 0.12203 0.66308 0.46467 0.0
C273 C 0.09508 0.63993 0.47645 0.0
C274 C 0.1318 0.66978 0.40502 0.0
C275 C 0.08712 0.62927 0.36715 0.0
C276 C 0.18661 0.7638 0.68288 0.0
N277 N 0.16144 0.73974 0.70084 0.0
C278 C 0.19019 0.79154 0.68997 0.0
C279 C 0.16778 0.79456 0.71568 0.0
C280 C 0.14216 0.76992 0.73394 0.0
C281 C 0.13935 0.74253 0.72609 0.0
C282 C 0.15304 0.70542 0.8844 0.0
C283 C 0.12273 0.66577 0.79088 0.0
C284 C 0.16099 0.71205 0.82233 0.0
N285 N 0.1459 0.6923 0.77644 0.0
C286 C 0.11412 0.6584 0.85243 0.0
C287 C 0.12943 0.67839 0.89942 0.0
C288 C 0.14086 0.64397 0.63475 0.0
C289 C 0.23093 0.7068 0.4877 0.0
C290 C 0.17558 0.65902 0.48063 0.0
C291 C 0.19923 0.65666 0.46 0.0
C292 C 0.22707 0.68078 0.46341 0.0
N293 N 0.17935 0.68475 0.5035 0.0
C294 C 0.20675 0.70833 0.50794 0.0
Co295 Co 0.46681 0.15435 0.03702 0.0
Co296 Co 0.47831 0.14484 0.88336 0.0
O297 O 0.47299 0.16693 0.9503 0.0
C298 C 0.51577 0.21491 0.04904 0.0
O299 O 0.52909 0.21103 1.00191 0.0
C300 C 0.44572 0.17334 0.82545 0.0
O301 O 0.44251 0.18228 0.88008 0.0
O302 O 0.44152 0.10812 0.90877 0.0
O303 O 0.4433 0.11293 1.01225 0.0
H304 H 0.48078 0.05863 0.79412 0.0
H305 H 0.45375 0.2005 1.00241 0.0
O306 O 0.49058 0.19523 0.06572 0.0
H307 H 0.36088 0.11917 0.07679 0.0
H308 H 0.44719 0.16183 0.26286 0.0
H309 H 0.46826 0.10698 0.10637 0.0
H310 H 0.40519 0.11526 0.07554 0.0
H311 H 0.4538 0.17645 0.15306 0.0
O312 O 0.45621 0.15621 0.82137 0.0
H313 H 0.47539 0.08776 0.87683 0.0
H314 H 0.49133 0.15417 0.74761 0.0
H315 H 0.46146 0.09141 0.21555 0.0
H316 H 0.41002 0.20548 1.00363 0.0
H317 H 0.45087 0.11893 0.29469 0.0
H318 H 0.36313 0.16457 0.04082 0.0
O319 O 0.50226 0.1511 0.03583 0.0
H320 H 0.54344 0.25229 0.8451 0.0
H321 H 0.53733 0.15673 0.84714 0.0
H322 H 0.58359 0.20021 0.81993 0.0
H323 H 0.58685 0.24846 0.81822 0.0
H324 H 0.49794 0.2085 0.87337 0.0
H325 H 0.49656 0.12561 0.66343 0.0
H326 H 0.49142 0.07752 0.68649 0.0
O327 O 0.50213 0.13429 0.94004 0.0
C328 C 0.43343 0.09756 0.96343 0.0
C329 C 0.48311 0.07957 0.7835 0.0
C330 C 0.4919 0.11713 0.71013 0.0
N331 N 0.48308 0.12267 0.81718 0.0
C332 C 0.48014 0.0962 0.83018 0.0
C333 C 0.48876 0.13315 0.75797 0.0
C334 C 0.48905 0.09017 0.72312 0.0
C335 C 0.43345 0.18265 0.01889 0.0
N336 N 0.432 0.15755 0.03839 0.0
C337 C 0.40875 0.18558 0.01936 0.0
C338 C 0.38245 0.1626 0.04017 0.0
C339 C 0.38116 0.13711 0.06025 0.0
C340 C 0.4063 0.13495 0.05906 0.0
C341 C 0.4517 0.1496 0.22878 0.0
C342 C 0.46342 0.11893 0.14042 0.0
C343 C 0.4555 0.15779 0.16653 0.0
N344 N 0.46111 0.1424 0.12319 0.0
C345 C 0.45969 0.11007 0.20223 0.0
C346 C 0.45377 0.12554 0.24661 0.0
C347 C 0.5119 0.1404 0.99571 0.0
C348 C 0.54221 0.23134 0.8449 0.0
C349 C 0.53844 0.17756 0.84653 0.0
C350 C 0.56476 0.20215 0.83101 0.0
C351 C 0.56658 0.2292 0.83004 0.0
N352 N 0.51442 0.17967 0.86025 0.0
C353 C 0.51625 0.20626 0.86022 0.0
Co354 Co 0.57806 0.7118 0.31291 0.0
Co355 Co 0.568 0.69302 0.46748 0.0
O356 O 0.57306 0.71978 0.39973 0.0
C357 C 0.52981 0.72448 0.29781 0.0
O358 O 0.51476 0.70598 0.34165 0.0
C359 C 0.60055 0.7545 0.52587 0.0
O360 O 0.60238 0.76672 0.47208 0.0
O361 O 0.60453 0.69273 0.44104 0.0
O362 O 0.60087 0.69314 0.33756 0.0
H363 H 0.56594 0.60512 0.55809 0.0
H364 H 0.59354 0.77187 0.34713 0.0
O365 O 0.5553 0.72998 0.28398 0.0
H366 H 0.68404 0.77956 0.26699 0.0
H367 H 0.59584 0.73533 0.08557 0.0
H368 H 0.5742 0.66119 0.24533 0.0
H369 H 0.6388 0.73211 0.27063 0.0
H370 H 0.59094 0.74539 0.19526 0.0
O371 O 0.59076 0.72697 0.52862 0.0
H372 H 0.57075 0.63883 0.47474 0.0
H373 H 0.55603 0.69073 0.60373 0.0
H374 H 0.57926 0.65037 0.13626 0.0
H375 H 0.63824 0.81985 0.34374 0.0
H376 H 0.59013 0.68758 0.05548 0.0
H377 H 0.68394 0.82389 0.30357 0.0
O378 O 0.54185 0.67356 0.31651 0.0
H379 H 0.503 0.73586 0.50263 0.0
H380 H 0.50946 0.64667 0.50863 0.0
H381 H 0.46349 0.64436 0.53644 0.0
H382 H 0.46004 0.68924 0.53412 0.0
H383 H 0.54823 0.73709 0.47401 0.0
H384 H 0.55144 0.65779 0.68853 0.0
H385 H 0.55624 0.61453 0.66591 0.0
O386 O 0.54353 0.65806 0.41226 0.0
C387 C 0.61167 0.68891 0.38629 0.0
C388 C 0.56375 0.62387 0.56851 0.0
C389 C 0.55568 0.65347 0.64174 0.0
N390 N 0.56362 0.66671 0.53422 0.0
C391 C 0.56639 0.64301 0.52148 0.0
C392 C 0.55847 0.67215 0.59354 0.0
C393 C 0.55835 0.62918 0.62901 0.0
C394 C 0.61333 0.77348 0.32945 0.0
N395 N 0.61359 0.7492 0.30946 0.0
C396 C 0.63858 0.80069 0.32772 0.0
C397 C 0.66421 0.80294 0.30522 0.0
C398 C 0.6643 0.77807 0.28477 0.0
C399 C 0.63863 0.75122 0.28726 0.0
C400 C 0.59119 0.71897 0.12036 0.0
C401 C 0.57916 0.67759 0.21055 0.0
C402 C 0.58834 0.72452 0.18257 0.0
N403 N 0.58255 0.70399 0.22682 0.0
C404 C 0.58191 0.6713 0.14882 0.0
C405 C 0.58798 0.69217 0.10351 0.0
C406 C 0.53271 0.65375 0.35751 0.0
C407 C 0.50433 0.71621 0.50464 0.0
C408 C 0.50832 0.66636 0.50757 0.0
C409 C 0.48213 0.66489 0.52341 0.0
C410 C 0.48021 0.69005 0.5221 0.0
N411 N 0.53214 0.69218 0.49143 0.0
C412 C 0.53016 0.71684 0.48909 0.0
Co413 Co 0.87854 0.56532 0.66913 0.0
Co414 Co 0.88881 0.55666 0.82424 0.0
O415 O 0.86607 0.55955 0.75575 0.0
C416 C 0.82843 0.5171 0.60551 0.0
O417 O 0.84672 0.50949 0.58345 0.0
C418 C 0.86444 0.59457 0.86968 0.0
O419 O 0.86569 0.60368 0.8128 0.0
O420 O 0.92493 0.59352 0.79667 0.0
O421 O 0.91978 0.59155 0.6931 0.0
H422 H 0.97626 0.55896 0.91924 0.0
H423 H 0.82907 0.57416 0.70049 0.0
O424 O 0.8373 0.53843 0.64337 0.0
H425 H 0.90631 0.669 0.62437 0.0
H426 H 0.87051 0.58309 0.44239 0.0
H427 H 0.9273 0.56606 0.60053 0.0
H428 H 0.91425 0.62719 0.62924 0.0
H429 H 0.85543 0.57624 0.55201 0.0
O430 O 0.87575 0.57881 0.88222 0.0
H431 H 0.94674 0.56168 0.83408 0.0
H432 H 0.87932 0.54634 0.9607 0.0
H433 H 0.94325 0.57296 0.4915 0.0
H434 H 0.82001 0.61526 0.69503 0.0
H435 H 0.91475 0.58152 0.41153 0.0
H436 H 0.85886 0.66316 0.65709 0.0
O437 O 0.88515 0.53198 0.67356 0.0
H438 H 0.7821 0.4921 0.86784 0.0
H439 H 0.87785 0.49841 0.86438 0.0
H440 H 0.83452 0.45242 0.89429 0.0
H441 H 0.7862 0.4491 0.89653 0.0
H442 H 0.82588 0.53747 0.83726 0.0
H443 H 0.90822 0.54372 0.04724 0.0
H444 H 0.95701 0.54992 0.02674 0.0
O445 O 0.90049 0.53252 0.77089 0.0
C446 C 0.93518 0.60186 0.74182 0.0
C447 C 0.955 0.55616 0.92875 0.0
C448 C 0.91684 0.54766 1.0006 0.0
N449 N 0.9113 0.55409 0.89231 0.0
C450 C 0.93816 0.55762 0.88069 0.0
C451 C 0.90063 0.5493 0.95141 0.0
C452 C 0.94421 0.55112 0.98906 0.0
C453 C 0.84597 0.59481 0.68313 0.0
N454 N 0.87218 0.59822 0.66533 0.0
C455 C 0.84076 0.61806 0.68052 0.0
C456 C 0.86259 0.64495 0.65936 0.0
C457 C 0.88924 0.64825 0.64113 0.0
C458 C 0.89368 0.62453 0.64442 0.0
C459 C 0.88314 0.57943 0.47681 0.0
C460 C 0.91483 0.56987 0.56606 0.0
C461 C 0.87472 0.57556 0.53897 0.0
N462 N 0.89054 0.57087 0.58274 0.0
C463 C 0.92395 0.57373 0.50437 0.0
C464 C 0.90796 0.57853 0.45953 0.0
C465 C 0.89564 0.52286 0.71497 0.0
C466 C 0.80305 0.49331 0.86729 0.0
C467 C 0.85691 0.49711 0.86481 0.0
C468 C 0.83245 0.47102 0.88202 0.0
C469 C 0.80535 0.46918 0.88329 0.0
N470 N 0.85455 0.52077 0.8495 0.0
C471 C 0.828 0.51903 0.85026 0.0
Co472 Co 0.33227 0.8762 1.00983 0.0
Co473 Co 0.34493 0.8847 0.16708 0.0
O474 O 0.32067 0.86291 0.09548 0.0
C475 C 0.3156 0.81358 0.99681 0.0
O476 O 0.32948 0.81439 0.04779 0.0
C477 C 0.28185 0.85468 0.21483 0.0
O478 O 0.2714 0.8441 0.15965 0.0
O479 O 0.34586 0.92137 0.13741 0.0
O480 O 0.35106 0.91758 0.03544 0.0
H481 H 0.42919 0.97116 0.26848 0.0
H482 H 0.27065 0.833 0.03433 0.0
O483 O 0.31398 0.83548 0.97919 0.0
H484 H 0.26911 0.91746 0.94519 0.0
H485 H 0.31784 0.87296 0.77838 0.0
H486 H 0.38627 0.92214 0.95112 0.0
H487 H 0.31543 0.91802 0.95905 0.0
H488 H 0.30313 0.85735 0.8862 0.0
O489 O 0.30904 0.87322 0.22146 0.0
H490 H 0.39861 0.94187 0.18079 0.0
H491 H 0.34252 0.87529 0.30448 0.0
H492 H 0.40177 0.93862 0.84404 0.0
H493 H 0.22375 0.83136 0.0207 0.0
H494 H 0.36745 0.91396 0.75673 0.0
H495 H 0.22279 0.87385 0.97596 0.0
O496 O 0.36955 0.87684 0.02249 0.0
H497 H 0.30165 0.77681 0.20172 0.0
H498 H 0.38955 0.87306 0.22235 0.0
H499 H 0.39106 0.82967 0.25537 0.0
H500 H 0.34678 0.78102 0.24578 0.0
H501 H 0.30129 0.82052 0.16791 0.0
H502 H 0.37225 0.90405 0.3935 0.0
H503 H 0.41605 0.95229 0.37578 0.0
O504 O 0.3817 0.89542 0.1188 0.0
C505 C 0.3525 0.93247 0.08292 0.0
C506 C 0.41018 0.95015 0.27679 0.0
C507 C 0.37819 0.91252 0.34697 0.0
N508 N 0.3688 0.90686 0.23735 0.0
C509 C 0.39282 0.93342 0.22729 0.0
C510 C 0.36132 0.89641 0.29635 0.0
C511 C 0.40278 0.93957 0.33699 0.0
C512 C 0.27039 0.85154 1.01474 0.0
N513 N 0.29578 0.87564 0.99794 0.0
C514 C 0.24378 0.8505 1.00718 0.0
C515 C 0.24326 0.87435 0.98212 0.0
C516 C 0.26924 0.89884 0.96493 0.0
C517 C 0.29544 0.8991 0.97322 0.0
C518 C 0.33298 0.88393 0.81603 0.0
C519 C 0.37114 0.91139 0.91345 0.0
C520 C 0.32479 0.87515 0.87721 0.0
N521 N 0.34376 0.88893 0.92505 0.0
C522 C 0.38007 0.92078 0.85288 0.0
C523 C 0.36081 0.90693 0.80392 0.0
C524 C 0.38789 0.88816 0.06665 0.0
C525 C 0.32099 0.79792 0.2069 0.0
C526 C 0.37016 0.85211 0.21779 0.0
C527 C 0.37115 0.82754 0.23675 0.0
C528 C 0.34633 0.80027 0.23139 0.0
N529 N 0.34511 0.84981 0.19461 0.0
C530 C 0.32084 0.82299 0.18841 0.0
Co531 Co 0.47467 0.32624 0.35026 0.0
Co532 Co 0.47692 0.34145 0.50636 0.0
O533 O 0.47707 0.31741 0.43736 0.0
C534 C 0.52408 0.32403 0.29427 0.0
O535 O 0.53319 0.3505 0.27415 0.0
C536 C 0.44664 0.27857 0.55465 0.0
O537 O 0.44795 0.26863 0.49971 0.0
O538 O 0.44023 0.33925 0.47262 0.0
O539 O 0.4482 0.34148 0.37007 0.0
H540 H 0.46687 0.42273 0.59977 0.0
H541 H 0.4631 0.26682 0.37895 0.0
O542 O 0.50161 0.3115 0.32871 0.0
H543 H 0.37243 0.25309 0.28496 0.0
H544 H 0.46502 0.30552 0.12038 0.0
H545 H 0.47792 0.37642 0.28341 0.0
H546 H 0.41476 0.30222 0.2981 0.0
H547 H 0.46719 0.29452 0.23053 0.0
O548 O 0.45382 0.30541 0.56132 0.0
H549 H 0.46896 0.39266 0.51475 0.0
H550 H 0.48266 0.34077 0.6445 0.0
H551 H 0.47572 0.38824 0.17384 0.0
H552 H 0.42141 0.21727 0.36578 0.0
H553 H 0.46926 0.35267 0.09143 0.0
H554 H 0.37561 0.21015 0.31867 0.0
O555 O 0.50838 0.36574 0.36183 0.0
H556 H 0.54706 0.30578 0.55231 0.0
H557 H 0.53134 0.38948 0.56173 0.0
H558 H 0.57753 0.39499 0.59927 0.0
H559 H 0.5856 0.35287 0.59531 0.0
H560 H 0.50157 0.30135 0.51421 0.0
H561 H 0.48036 0.37007 0.73088 0.0
H562 H 0.47257 0.41149 0.70877 0.0
O563 O 0.50156 0.37828 0.45728 0.0
C564 C 0.43481 0.34367 0.41684 0.0
C565 C 0.47034 0.40478 0.60999 0.0
C566 C 0.47784 0.37518 0.68358 0.0
N567 N 0.47601 0.36502 0.57452 0.0
C568 C 0.47162 0.38771 0.56202 0.0
C569 C 0.47896 0.35856 0.63444 0.0
C570 C 0.4735 0.39844 0.67114 0.0
C571 C 0.44331 0.26393 0.35816 0.0
N572 N 0.44138 0.28746 0.33969 0.0
C573 C 0.41974 0.2358 0.35095 0.0
C574 C 0.39405 0.23183 0.32458 0.0
C575 C 0.39223 0.25591 0.30576 0.0
C576 C 0.41624 0.28372 0.31372 0.0
C577 C 0.46778 0.32118 0.15586 0.0
C578 C 0.47501 0.36078 0.24785 0.0
C579 C 0.469 0.31507 0.21833 0.0
N580 N 0.47259 0.33478 0.26344 0.0
C581 C 0.47381 0.36761 0.18587 0.0
C582 C 0.47018 0.34764 0.13965 0.0
C583 C 0.5145 0.38448 0.40469 0.0
C584 C 0.54367 0.32421 0.55505 0.0
C585 C 0.53449 0.37096 0.55987 0.0
C586 C 0.56079 0.37425 0.58125 0.0
C587 C 0.56532 0.35064 0.57899 0.0
N588 N 0.51303 0.34481 0.53743 0.0
C589 C 0.51765 0.32174 0.53404 0.0
Co590 Co 0.15488 0.45837 0.68612 0.0
Co591 Co 0.14304 0.46034 0.84273 0.0
O592 O 0.16657 0.46011 0.77291 0.0
C593 C 0.20706 0.50656 0.62896 0.0
O594 O 0.19023 0.51645 0.60936 0.0
C595 C 0.1751 0.4293 0.88953 0.0
O596 O 0.18616 0.4306 0.83448 0.0
O597 O 0.10784 0.42413 0.80865 0.0
O598 O 0.11305 0.43288 0.70645 0.0
H599 H 0.05292 0.45198 0.9381 0.0
H600 H 0.20143 0.44461 0.71301 0.0
O601 O 0.19672 0.48424 0.66378 0.0
H602 H 0.12195 0.35561 0.61804 0.0
H603 H 0.16344 0.44853 0.45542 0.0
H604 H 0.1086 0.46383 0.62146 0.0
H605 H 0.11707 0.39896 0.63266 0.0
H606 H 0.17732 0.44995 0.56502 0.0
O607 O 0.15548 0.4365 0.89649 0.0
H608 H 0.08446 0.45376 0.85237 0.0
H609 H 0.15002 0.46528 0.98101 0.0
H610 H 0.09392 0.46246 0.51248 0.0
H611 H 0.20737 0.40185 0.69841 0.0
H612 H 0.12144 0.4548 0.42855 0.0
H613 H 0.1674 0.3569 0.65077 0.0
O614 O 0.15064 0.49292 0.69943 0.0
H615 H 0.24972 0.52884 0.88659 0.0
H616 H 0.15098 0.51466 0.90199 0.0
H617 H 0.19252 0.56017 0.9402 0.0
H618 H 0.2424 0.56747 0.93327 0.0
H619 H 0.20782 0.48406 0.84783 0.0
H620 H 0.11903 0.46322 0.06807 0.0
H621 H 0.07015 0.4567 0.04689 0.0
O622 O 0.13153 0.48586 0.79502 0.0
C623 C 0.09763 0.41921 0.75304 0.0
C624 C 0.0742 0.4549 0.94792 0.0
C625 C 0.11127 0.46113 0.02087 0.0
N626 N 0.11911 0.4597 0.91153 0.0
C627 C 0.0922 0.456 0.89955 0.0
C628 C 0.12866 0.46209 0.97134 0.0
C629 C 0.08386 0.4575 1.00895 0.0
C630 C 0.18398 0.42519 0.69201 0.0
N631 N 0.15888 0.4243 0.67407 0.0
C632 C 0.18745 0.40101 0.68398 0.0
C633 C 0.16501 0.37579 0.65732 0.0
C634 C 0.13948 0.37503 0.63903 0.0
C635 C 0.13678 0.39962 0.64783 0.0
C636 C 0.15124 0.45184 0.49157 0.0
C637 C 0.12065 0.46042 0.58524 0.0
C638 C 0.15898 0.45264 0.55373 0.0
N639 N 0.14375 0.45692 0.59969 0.0
C640 C 0.11224 0.45968 0.52359 0.0
C641 C 0.12769 0.45538 0.47653 0.0
C642 C 0.1386 0.49927 0.74305 0.0
C643 C 0.22806 0.52578 0.89062 0.0
C644 C 0.17249 0.51747 0.89874 0.0
C645 C 0.196 0.54339 0.92054 0.0
C646 C 0.22396 0.54748 0.91663 0.0
N647 N 0.1765 0.49593 0.87424 0.0
C648 C 0.20402 0.50015 0.86922 0.0
Co649 Co 0.72064 0.15711 0.99745 0.0
Co650 Co 0.70222 0.14818 0.15291 0.0
O651 O 0.72796 0.17027 0.08399 0.0
C652 C 0.72788 0.21596 0.98595 0.0
O653 O 0.70987 0.21077 0.03212 0.0
C654 C 0.76472 0.17591 0.2014 0.0
O655 O 0.77401 0.1782 0.14429 0.0
O656 O 0.7026 0.11161 0.12598 0.0
O657 O 0.70519 0.11614 0.02241 0.0
H658 H 0.61653 0.06163 0.24821 0.0
H659 H 0.77946 0.20616 0.02715 0.0
O660 O 0.73517 0.19757 0.96905 0.0
H661 H 0.79515 0.12764 0.94987 0.0
H662 H 0.74411 0.16463 0.76969 0.0
H663 H 0.67227 0.10748 0.93054 0.0
H664 H 0.74566 0.12043 0.95663 0.0
H665 H 0.75327 0.1801 0.87926 0.0
O666 O 0.73728 0.16146 0.212 0.0
H667 H 0.64901 0.0905 0.16305 0.0
H668 H 0.70117 0.15861 0.28925 0.0
H669 H 0.6624 0.09105 0.82161 0.0
H670 H 0.82939 0.2145 0.01995 0.0
H671 H 0.69845 0.11972 0.74028 0.0
H672 H 0.83747 0.17501 0.98138 0.0
O673 O 0.68095 0.15131 1.00178 0.0
H674 H 0.74424 0.2555 0.19125 0.0
H675 H 0.65513 0.15946 0.19366 0.0
H676 H 0.65238 0.20296 0.22179 0.0
H677 H 0.69721 0.25145 0.2211 0.0
H678 H 0.74591 0.21159 0.16236 0.0
H679 H 0.66942 0.13035 0.37579 0.0
H680 H 0.62666 0.08155 0.35551 0.0
O681 O 0.66647 0.13629 0.09928 0.0
C682 C 0.70018 0.10097 0.07107 0.0
C683 C 0.63506 0.0829 0.25763 0.0
C684 C 0.66478 0.12144 0.32924 0.0
N685 N 0.67694 0.12624 0.22104 0.0
C686 C 0.6535 0.09937 0.20957 0.0
C687 C 0.68277 0.13728 0.28004 0.0
C688 C 0.64078 0.09407 0.31782 0.0
C689 C 0.78281 0.18895 1.00981 0.0
N690 N 0.75963 0.16278 0.99273 0.0
C691 C 0.81113 0.19376 1.00609 0.0
C692 C 0.81564 0.17158 0.98454 0.0
C693 C 0.7919 0.14498 0.96698 0.0
C694 C 0.76389 0.14095 0.97136 0.0
C695 C 0.72826 0.1519 0.80472 0.0
C696 C 0.68818 0.11996 0.89552 0.0
C697 C 0.73331 0.16057 0.86686 0.0
N698 N 0.71346 0.14454 0.91141 0.0
C699 C 0.68242 0.11059 0.83387 0.0
C700 C 0.70265 0.12671 0.78825 0.0
C701 C 0.66146 0.14095 0.04354 0.0
C702 C 0.72458 0.23447 0.19219 0.0
C703 C 0.67472 0.18043 0.193 0.0
C704 C 0.67304 0.20501 0.20915 0.0
C705 C 0.69819 0.2322 0.20878 0.0
N706 N 0.70072 0.18273 0.17722 0.0
C707 C 0.72542 0.2094 0.1763 0.0
H708 H 0.35643 0.40211 0.40388 0.0
H709 H 0.37226 0.40065 0.20775 0.0
H710 H 0.39778 0.37382 0.22899 0.0
H711 H 0.41845 0.35408 0.30368 0.0
H712 H 0.40441 0.35796 0.50004 0.0
H713 H 0.37498 0.38051 0.47774 0.0
C714 C 0.36511 0.39578 0.36522 0.0
C715 C 0.36229 0.40365 0.30388 0.0
C716 C 0.38021 0.3809 0.37796 0.0
C717 C 0.37384 0.39495 0.25516 0.0
C718 C 0.38859 0.3797 0.26745 0.0
C719 C 0.40881 0.35954 0.34194 0.0
C720 C 0.41391 0.35423 0.4039 0.0
C721 C 0.39235 0.37304 0.32878 0.0
C722 C 0.40095 0.36156 0.45217 0.0
C723 C 0.3842 0.37461 0.43934 0.0
H724 H 0.96063 0.33816 0.73937 0.0
H725 H 0.97731 0.35765 0.54436 0.0
H726 H 0.02973 0.38373 0.56553 0.0
H727 H 0.07032 0.40423 0.64005 0.0
H728 H 0.05328 0.38719 0.83577 0.0
H729 H 1.00125 0.35688 0.81324 0.0
C730 C 0.97555 0.34781 0.70097 0.0
C731 C 0.96462 0.34584 0.63996 0.0
C732 C 1.00563 0.36347 0.71379 0.0
C733 C 0.98475 0.35852 0.5915 0.0
C734 C 1.0148 0.37366 0.60377 0.0
C735 C 0.05541 0.39377 0.67814 0.0
C736 C 0.06608 0.39826 0.73998 0.0
C737 C 0.02543 0.37678 0.66489 0.0
C738 C 0.04603 0.38425 0.78798 0.0
C739 C 1.01618 0.36695 0.77502 0.0
H740 H 0.6301 0.96342 0.0592 0.0
H741 H 0.64536 0.98047 0.86307 0.0
H742 H 0.6755 0.03258 0.88581 0.0
H743 H 0.69476 0.07317 0.96043 0.0
H744 H 0.67713 0.05609 0.15598 0.0
H745 H 0.65099 1.00376 0.13402 0.0
C746 C 0.64011 0.97831 0.02096 0.0
C747 C 0.63519 0.96762 0.95901 0.0
C748 C 0.65704 1.00825 0.0344 0.0
C749 C 0.64864 0.98772 0.91092 0.0
C750 C 0.66584 0.0176 0.92404 0.0
C751 C 0.6855 0.05817 0.99875 0.0
C752 C 0.68804 0.06898 0.06023 0.0
C753 C 0.66982 0.02811 0.98552 0.0
C754 C 0.67584 0.04876 0.10853 0.0
C755 C 0.66066 0.01876 0.09581 0.0
H756 H 0.68642 0.6263 0.38248 0.0
H757 H 0.67835 0.63281 0.18465 0.0
H758 H 0.65353 0.66061 0.20337 0.0
H759 H 0.63125 0.67978 0.27564 0.0
H760 H 0.63723 0.67069 0.47329 0.0
H761 H 0.66602 0.64706 0.45441 0.0
C762 C 0.67959 0.63392 0.34294 0.0
C763 C 0.68441 0.62721 0.2818 0.0
C764 C 0.66479 0.64927 0.35414 0.0
C765 C 0.67524 0.63761 0.23196 0.0
C766 C 0.66086 0.65338 0.24279 0.0
C767 C 0.63895 0.67292 0.315 0.0
C768 C 0.63181 0.67713 0.37624 0.0
C769 C 0.65506 0.65886 0.30369 0.0
C770 C 0.64229 0.66797 0.42595 0.0
C771 C 0.6587 0.65433 0.41505 0.0
H772 H 0.96289 0.62395 0.6316 0.0
H773 H 0.97986 0.62506 0.82783 0.0
H774 H 0.03222 0.65229 0.80739 0.0
H775 H 0.07282 0.67215 0.73363 0.0
H776 H 0.05576 0.66855 0.53694 0.0
H777 H 1.00359 0.64585 0.55818 0.0
C778 C 0.97787 0.63031 0.67035 0.0
C779 C 0.96706 0.62217 0.73155 0.0
C780 C 1.00798 0.64534 0.65806 0.0
C781 C 0.98723 0.63095 0.78051 0.0
C782 C 1.01726 0.64641 0.7687 0.0
C783 C 0.05788 0.66673 0.69503 0.0
C784 C 0.06857 0.67215 0.63335 0.0
C785 C 0.02784 0.65317 0.70758 0.0
C786 C 0.04847 0.66485 0.58465 0.0
C787 C 1.01855 0.65173 0.59687 0.0
H788 H 0.36505 0.96016 0.97136 0.0
H789 H 0.36668 0.9769 0.16801 0.0
H790 H 0.38945 0.02913 0.14694 0.0
H791 H 0.4114 0.06979 0.07352 0.0
H792 H 0.41168 0.05281 0.87742 0.0
H793 H 0.38504 1.00048 0.89787 0.0
C794 C 0.37005 0.975 1.01008 0.0
C795 C 0.36402 0.96423 0.07165 0.0
C796 C 0.38348 1.00494 0.9976 0.0
C797 C 0.37085 0.98425 0.12041 0.0
C798 C 0.38398 0.01418 0.10826 0.0
C799 C 0.4055 0.05481 0.03478 0.0
C800 C 0.4138 0.0656 0.9736 0.0
C801 C 0.39075 0.02476 0.04711 0.0
C802 C 0.40563 0.04545 0.92468 0.0
C803 C 0.39052 0.01546 0.93651 0.0
H804 H 0.22607 0.42779 0.89521 0.0
H805 H 0.15696 0.42148 1.01109 0.0
H806 H 0.18275 0.41959 0.10333 0.0
H807 H 0.22641 0.42279 0.15227 0.0
H808 H 0.29635 0.43099 0.03649 0.0
H809 H 0.26877 0.42889 0.94389 0.0
C810 C 0.21634 0.42557 0.94049 0.0
C811 C 0.18931 0.42472 0.94549 0.0
C812 C 0.23164 0.42501 0.99387 0.0
C813 C 0.17753 0.42218 1.00516 0.0
C814 C 0.19239 0.42116 0.05821 0.0
C815 C 0.23556 0.42371 0.10684 0.0
C816 C 0.26366 0.42699 0.10205 0.0
C817 C 0.21967 0.42299 0.05333 0.0
C818 C 0.27495 0.42845 0.04226 0.0
C819 C 0.25913 0.42731 0.98901 0.0
H820 H 0.86354 0.27516 0.37138 0.0
H821 H 0.80978 0.21802 0.51656 0.0
H822 H 0.77613 0.18407 0.43959 0.0
H823 H 0.76064 0.17047 0.32981 0.0
H824 H 0.81665 0.22557 0.18462 0.0
H825 H 0.85009 0.25964 0.2616 0.0
C826 C 0.8446 0.25518 0.38619 0.0
C827 C 0.83951 0.24943 0.4503 0.0
C828 C 0.82538 0.23506 0.34116 0.0
C829 C 0.81469 0.2232 0.46796 0.0
C830 C 0.79519 0.20367 0.42373 0.0
C831 C 0.78027 0.18979 0.31498 0.0
C832 C 0.78584 0.19512 0.25085 0.0
C833 C 0.80013 0.20931 0.36002 0.0
C834 C 0.81162 0.22045 0.23321 0.0
C835 C 0.83086 0.24021 0.27745 0.0
H836 H 0.6056 0.8061 0.79628 0.0
H837 H 0.61187 0.87723 0.68869 0.0
H838 H 0.61302 0.85287 0.59315 0.0
H839 H 0.60934 0.80997 0.53891 0.0
H840 H 0.60153 0.73816 0.6464 0.0
H841 H 0.60408 0.76415 0.74219 0.0
C842 C 0.60766 0.81658 0.75208 0.0
C843 C 0.60871 0.84375 0.75048 0.0
C844 C 0.60785 0.80212 0.69671 0.0
C845 C 0.61101 0.8565 0.6921 0.0
C846 C 0.61162 0.84247 0.63712 0.0
C847 C 0.60857 0.80006 0.5832 0.0
C848 C 0.60527 0.77189 0.58464 0.0
C849 C 0.60963 0.81506 0.63865 0.0
C850 C 0.60406 0.75963 0.6431 0.0
C851 C 0.60547 0.77454 0.69821 0.0
H852 H 0.76657 0.60294 0.02565 0.0
H853 H 0.81585 0.59692 0.17802 0.0
H854 H 0.85005 0.59494 0.10569 0.0
H855 H 0.86577 0.59328 0.99808 0.0
H856 H 0.81908 0.60349 0.84587 0.0
H857 H 0.78482 0.60557 0.91818 0.0
C858 C 0.78495 0.6015 0.04307 0.0
C859 C 0.78836 0.60015 0.10779 0.0
C860 C 0.80527 0.60102 1.00081 0.0
C861 C 0.81252 0.5983 0.12889 0.0
C862 C 0.83217 0.597 0.08733 0.0
C863 C 0.84827 0.59623 0.98073 0.0
C864 C 0.84527 0.59821 0.91611 0.0
C865 C 0.82876 0.59813 0.02305 0.0
C866 C 0.82232 0.60211 0.89505 0.0
C867 C 0.80248 0.60317 0.93656 0.0
H868 H 0.22599 0.80406 0.47864 0.0
H869 H 0.15967 0.7372 0.3632 0.0
H870 H 0.18487 0.76447 0.2705 0.0
H871 H 0.22754 0.80578 0.2212 0.0
H872 H 0.2944 0.87206 0.33672 0.0
H873 H 0.26721 0.84676 0.42942 0.0
C874 C 0.21673 0.79555 0.43332 0.0
C875 C 0.19074 0.76833 0.42864 0.0
C876 C 0.23164 0.81128 0.37967 0.0
C877 C 0.1795 0.75787 0.36893 0.0
C878 C 0.19401 0.77352 0.31559 0.0
C879 C 0.23605 0.81502 0.26655 0.0
C880 C 0.26326 0.84103 0.27124 0.0
C881 C 0.22037 0.80004 0.32022 0.0
C882 C 0.27373 0.85222 0.33098 0.0
C883 C 0.25814 0.83765 0.38432 0.0
H884 H 0.43755 0.22043 0.81775 0.0
H885 H 0.44676 0.15879 0.70312 0.0
H886 H 0.44581 0.1845 0.61014 0.0
H887 H 0.4452 0.22616 0.56094 0.0
H888 H 0.43815 0.289 0.6759 0.0
H889 H 0.43527 0.26117 0.76832 0.0
C890 C 0.43896 0.21229 0.77247 0.0
C891 C 0.44211 0.18738 0.76813 0.0
C892 C 0.43895 0.22761 0.7188 0.0
C893 C 0.44425 0.17768 0.70854 0.0
C894 C 0.44378 0.1925 0.65509 0.0
C895 C 0.44263 0.23367 0.60606 0.0
C896 C 0.44179 0.25985 0.61074 0.0
C897 C 0.44152 0.21773 0.65956 0.0
C898 C 0.43882 0.26909 0.67021 0.0
C899 C 0.43723 0.25313 0.72335 0.0
H900 H 0.22379 0.53087 0.51473 0.0
H901 H 0.25175 0.50033 0.67086 0.0
H902 H 0.2906 0.50149 0.60857 0.0
H903 H 0.31044 0.50256 0.50619 0.0
H904 H 0.28129 0.53005 0.34753 0.0
H905 H 0.24932 0.53932 0.41453 0.0
C906 C 0.23899 0.5254 0.53566 0.0
C907 C 0.23474 0.51518 0.59709 0.0
C908 C 0.26069 0.52515 0.49884 0.0
C909 C 0.25448 0.50802 0.62353 0.0
C910 C 0.27658 0.50853 0.58787 0.0
C911 C 0.29751 0.51119 0.48657 0.0
C912 C 0.29766 0.51521 0.42227 0.0
C913 C 0.27891 0.51568 0.52488 0.0
C914 C 0.28134 0.5268 0.39707 0.0
C915 C 0.26297 0.53184 0.43529 0.0
H916 H 0.81627 0.32034 0.83642 0.0
H917 H 0.76256 0.26574 0.68725 0.0
H918 H 0.72458 0.23523 0.76143 0.0
H919 H 0.71303 0.21815 0.86898 0.0
H920 H 0.76847 0.27096 0.01809 0.0
H921 H 0.7993 0.30884 0.94413 0.0
C922 C 0.79561 0.30254 0.82025 0.0
C923 C 0.79186 0.29509 0.75704 0.0
C924 C 0.77454 0.28469 0.86332 0.0
C925 C 0.76548 0.27187 0.73584 0.0
C926 C 0.74402 0.25429 0.77831 0.0
C927 C 0.73109 0.23863 0.88524 0.0
C928 C 0.73867 0.24212 0.94833 0.0
C929 C 0.74913 0.2596 0.84225 0.0
C930 C 0.76223 0.26824 0.96961 0.0
C931 C 0.77999 0.28963 0.92726 0.0
H932 H 0.51711 0.81634 0.14894 0.0
H933 H 0.51587 0.76263 0.99753 0.0
H934 H 0.50994 0.7249 0.07092 0.0
H935 H 0.51535 0.71251 0.17827 0.0
H936 H 0.51827 0.76712 0.32944 0.0
H937 H 0.51272 0.79923 0.25631 0.0
C938 C 0.51434 0.79581 0.13216 0.0
C939 C 0.51683 0.79197 0.0684 0.0
C940 C 0.51162 0.77474 0.17464 0.0
C941 C 0.51363 0.76568 0.04651 0.0
C942 C 0.51059 0.74436 0.0885 0.0
C943 C 0.51351 0.7308 0.19509 0.0
C944 C 0.517 0.73759 0.25868 0.0
C945 C 0.51098 0.74933 0.15268 0.0
C946 C 0.51518 0.76146 0.2806 0.0
C947 C 0.51234 0.7799 0.23876 0.0
H948 H 0.72254 0.51662 0.48566 0.0
H949 H 0.75505 0.49424 0.3241 0.0
H950 H 0.78719 0.48491 0.38996 0.0
H951 H 0.81257 0.49329 0.49026 0.0
H952 H 0.78183 0.51956 0.64948 0.0
H953 H 0.74195 0.51667 0.58801 0.0
C954 C 0.73611 0.50889 0.46517 0.0
C955 C 0.73697 0.5065 0.40048 0.0
C956 C 0.75502 0.50465 0.50288 0.0
C957 C 0.75419 0.49618 0.37399 0.0
C958 C 0.77272 0.49117 0.41158 0.0
C959 C 0.79658 0.49743 0.512 0.0
C960 C 0.80036 0.50712 0.57401 0.0
C961 C 0.77433 0.4968 0.4757 0.0
C962 C 0.77952 0.51242 0.60161 0.0
C963 C 0.75681 0.5109 0.56645 0.0
H964 H 0.2255 0.69835 0.86516 0.0
H965 H 0.25423 0.7565 0.7087 0.0
H966 H 0.29365 0.79389 0.77098 0.0
H967 H 0.3143 0.81255 0.8731 0.0
H968 H 0.28425 0.75639 0.03225 0.0
H969 H 0.25129 0.71533 0.96549 0.0
C970 C 0.24094 0.71888 0.84419 0.0
C971 C 0.23682 0.72481 0.78256 0.0
C972 C 0.26299 0.74068 0.881 0.0
C973 C 0.25686 0.75155 0.75613 0.0
C974 C 0.2793 0.77296 0.79178 0.0
C975 C 0.3009 0.79114 0.89297 0.0
C976 C 0.30118 0.78742 0.95735 0.0
C977 C 0.28168 0.76818 0.85481 0.0
C978 C 0.28426 0.75964 0.98269 0.0
C979 C 0.2653 0.73631 0.9446 0.0
H980 H 0.51915 0.2165 0.17207 0.0
H981 H 0.54322 0.27166 1.01164 0.0
H982 H 0.55446 0.31365 0.07835 0.0
H983 H 0.5476 0.33143 0.1793 0.0
H984 H 0.52014 0.27438 0.33754 0.0
H985 H 0.52076 0.23637 0.27501 0.0
C986 C 0.52764 0.23795 0.15206 0.0
C987 C 0.53003 0.24122 0.08748 0.0
C988 C 0.53319 0.26145 0.19029 0.0
C989 C 0.54127 0.26889 0.06147 0.0
C990 C 0.54742 0.29273 0.09955 0.0
C991 C 0.5428 0.31107 0.20061 0.0
C992 C 0.53341 0.30548 0.26265 0.0
C993 C 0.54209 0.2889 0.16369 0.0
C994 C 0.52714 0.279 0.28968 0.0
C995 C 0.52731 0.25722 0.2539 0.0
H996 H 0.42597 0.54059 0.24316 0.0
H997 H 0.40676 0.52105 0.43724 0.0
H998 H 0.45221 0.56463 0.4653 0.0
H999 H 0.49612 0.60987 0.43521 0.0
H1000 H 0.5129 0.63177 0.24142 0.0
H1001 H 0.46998 0.58581 0.21304 0.0
C1002 C 0.43167 0.54575 0.29156 0.0
C1003 C 0.41264 0.5275 0.33782 0.0
C1004 C 0.4575 0.57147 0.3076 0.0
C1005 C 0.42074 0.53467 0.40043 0.0
C1006 C 0.4468 0.55967 0.41664 0.0
C1007 C 0.49049 0.60467 0.38679 0.0
C1008 C 0.50776 0.6246 0.34076 0.0
C1009 C 0.46514 0.57851 0.37068 0.0
C1010 C 0.50003 0.6171 0.27809 0.0
C1011 C 0.47541 0.59075 0.2617 0.0
H1012 H 0.90048 0.48368 0.78955 0.0
H1013 H 0.90253 0.50759 0.59789 0.0
H1014 H 0.90471 0.46488 0.56481 0.0
H1015 H 0.90184 0.41838 0.58937 0.0
H1016 H 0.89662 0.3929 0.78082 0.0
H1017 H 0.90011 0.43834 0.81434 0.0
C1018 C 0.9017 0.47976 0.74063 0.0
C1019 C 0.90097 0.49883 0.69654 0.0
C1020 C 0.90217 0.45457 0.72154 0.0
C1021 C 0.90273 0.49326 0.63316 0.0
C1022 C 0.90396 0.46873 0.614 0.0
C1023 C 0.90168 0.42279 0.63841 0.0
C1024 C 0.89856 0.40186 0.68218 0.0
C1025 C 0.90298 0.44883 0.65765 0.0
C1026 C 0.89866 0.40832 0.74571 0.0
C1027 C 0.90066 0.43439 0.76514 0.0
H1028 H 0.50971 0.89383 0.0717 0.0
H1029 H 0.50114 0.89895 0.87391 0.0
H1030 H 0.45522 0.89802 0.88849 0.0
H1031 H 0.41588 0.89295 0.95723 0.0
H1032 H 0.42743 0.89391 0.15538 0.0
H1033 H 0.47363 0.89543 0.14083 0.0
C1034 C 0.49792 0.89493 0.03171 0.0
C1035 C 0.5086 0.89553 0.97155 0.0
C1036 C 0.47185 0.89532 0.04052 0.0
C1037 C 0.49329 0.89773 0.92059 0.0
C1038 C 0.46694 0.89728 0.92891 0.0
C1039 C 0.42854 0.89364 0.9973 0.0
C1040 C 0.41757 0.89241 0.05744 0.0
C1041 C 0.45572 0.89553 0.98862 0.0
C1042 C 0.43478 0.89411 0.10863 0.0
C1043 C 0.46137 0.89509 0.10034 0.0
H1044 H 0.62931 0.50696 0.40133 0.0
H1045 H 0.61736 0.49205 0.2039 0.0
H1046 H 0.57158 0.44713 0.2215 0.0
H1047 H 0.53693 0.41007 0.2933 0.0
H1048 H 0.54694 0.42693 0.49033 0.0
H1049 H 0.59125 0.47318 0.47238 0.0
C1050 C 0.61662 0.49406 0.36199 0.0
C1051 C 0.62735 0.5026 0.30129 0.0
C1052 C 0.58996 0.46846 0.37242 0.0
C1053 C 0.61012 0.48587 0.25107 0.0
C1054 C 0.58383 0.46011 0.26113 0.0
C1055 C 0.54862 0.42393 0.33241 0.0
C1056 C 0.53889 0.4145 0.39334 0.0
C1057 C 0.57389 0.45084 0.32167 0.0
C1058 C 0.55406 0.4332 0.44312 0.0
C1059 C 0.57948 0.45975 0.43285 0.0
H1060 H 0.13667 0.61714 0.74518 0.0
H1061 H 0.13271 0.60288 0.54741 0.0
H1062 H 0.13084 0.55663 0.56339 0.0
H1063 H 0.13381 0.52177 0.63328 0.0
H1064 H 0.13276 0.53346 0.83114 0.0
H1065 H 0.13276 0.57885 0.81534 0.0
C1066 C 0.13517 0.60385 0.70551 0.0
C1067 C 0.1357 0.61405 0.64499 0.0
C1068 C 0.13329 0.57676 0.71507 0.0
C1069 C 0.133 0.59607 0.59438 0.0
C1070 C 0.13186 0.56948 0.6035 0.0
C1071 C 0.13331 0.53407 0.67304 0.0
C1072 C 0.13408 0.52445 0.73346 0.0
C1073 C 0.1326 0.55989 0.66359 0.0
C1074 C 0.13273 0.54044 0.78422 0.0
C1075 C 0.13272 0.5665 0.77519 0.0
H1076 H 0.6181 0.13689 0.11947 0.0
H1077 H 0.63838 0.13283 0.92722 0.0
H1078 H 0.59276 0.12948 0.8957 0.0
H1079 H 0.54878 0.1315 0.92176 0.0
H1080 H 0.53041 0.13948 0.11352 0.0
H1081 H 0.57323 0.13729 0.14578 0.0
C1082 C 0.6125 0.13505 0.07076 0.0
C1083 C 0.63197 0.13542 0.02599 0.0
C1084 C 0.5865 0.13402 0.05259 0.0
C1085 C 0.62406 0.13286 0.96292 0.0
C1086 C 0.59791 0.13097 0.94469 0.0
C1087 C 0.554 0.13262 0.9706 0.0
C1088 C 0.53641 0.13603 1.01484 0.0
C1089 C 0.57923 0.13217 0.98899 0.0
C1090 C 0.54358 0.13716 0.07811 0.0
C1091 C 0.56815 0.13591 0.09677 0.0
loop_
_geom_bond_atom_site_label_1
_geom_bond_atom_site_label_2
_geom_bond_distance
_geom_bond_site_symmetry_2
_ccdc_geom_bond_type
Co0 O2 2.143 . S
Co0 O8 2.074 . S
Co0 O11 2.093 . S
Co0 O24 2.097 . S
Co0 N41 2.151 . S
Co0 N49 2.214 . S
Co1 O2 2.160 . S
Co1 O7 2.058 . S
Co1 O17 2.057 . S
Co1 O32 2.037 . S
Co1 N36 2.145 . S
Co1 N57 2.257 . S
O2 Co0 2.143 . S
O2 Co1 2.160 . S
C3 O4 1.278 . S
C3 O11 1.224 . S
O4 C3 1.278 . S
C5 O6 1.245 . S
C5 O17 1.232 . S
O6 C5 1.245 . S
O7 Co1 2.058 . S
O7 C33 1.269 . S
O8 Co0 2.074 . S
O8 C33 1.257 . S
H9 C34 0.930 . S
H10 C40 0.930 . S
O11 Co0 2.093 . S
O11 C3 1.224 . S
H12 C44 0.929 . S
H13 C46 0.930 . S
H14 C47 0.930 . S
H15 C45 0.929 . S
H16 C48 0.928 . S
O17 Co1 2.057 . S
O17 C5 1.232 . S
H18 C37 0.929 . S
H19 C38 0.929 . S
H20 C50 0.931 . S
H21 C42 0.929 . S
H22 C51 0.930 . S
H23 C43 0.931 . S
O24 Co0 2.097 . S
O24 C52 1.214 . S
H25 C53 0.929 . S
H26 C54 0.929 . S
H27 C55 0.930 . S
H28 C56 0.929 . S
H29 C58 0.930 . S
H30 C35 0.930 1_556 S
H31 C39 0.930 . S
O32 Co1 2.037 . S
O32 C52 1.234 . S
C33 O7 1.269 . S
C33 O8 1.257 . S
C34 H9 0.930 . S
C34 C37 1.388 . S
C34 C39 1.418 . S
C35 H30 0.930 1_554 S
C35 C38 1.404 . S
C35 C39 1.353 . S
N36 Co1 2.145 . S
N36 C37 1.397 . S
N36 C38 1.334 . S
C37 H18 0.929 . S
C37 C34 1.388 . S
C37 N36 1.397 . S
C38 H19 0.929 . S
C38 C35 1.404 . S
C38 N36 1.334 . S
C39 H31 0.930 . S
C39 C34 1.418 . S
C39 C35 1.353 . S
C40 H10 0.930 . S
C40 N41 1.330 . S
C40 C42 1.446 . S
N41 Co0 2.151 . S
N41 C40 1.330 . S
N41 C45 1.418 . S
C42 H21 0.929 . S
C42 C40 1.446 . S
C42 C43 1.332 . S
C43 H23 0.931 . S
C43 C42 1.332 . S
C43 C44 1.267 . S
C44 H12 0.929 . S
C44 C43 1.267 . S
C44 C45 1.251 . S
C45 H15 0.929 . S
C45 N41 1.418 . S
C45 C44 1.251 . S
C46 H13 0.930 . S
C46 C48 1.406 . S
C46 C51 1.261 . S
C47 H14 0.930 . S
C47 N49 1.325 . S
C47 C50 1.357 . S
C48 H16 0.928 . S
C48 C46 1.406 . S
C48 N49 1.261 . S
N49 Co0 2.214 . S
N49 C47 1.325 . S
N49 C48 1.261 . S
C50 H20 0.931 . S
C50 C47 1.357 . S
C50 C51 1.312 . S
C51 H22 0.930 . S
C51 C46 1.261 . S
C51 C50 1.312 . S
C52 O24 1.214 . S
C52 O32 1.234 . S
C53 H25 0.929 . S
C53 C56 1.391 . S
C53 C58 1.391 . S
C54 H26 0.929 . S
C54 C55 1.390 . S
C54 N57 1.391 . S
C55 H27 0.930 . S
C55 C54 1.390 . S
C55 C56 1.392 . S
C56 H28 0.929 . S
C56 C53 1.391 . S
C56 C55 1.392 . S
N57 Co1 2.257 . S
N57 C54 1.391 . S
N57 C58 1.388 . S
C58 H29 0.930 . S
C58 C53 1.391 . S
C58 N57 1.388 . S
Co59 O61 2.143 . S
Co59 O67 2.074 . S
Co59 O70 2.093 . S
Co59 O83 2.097 . S
Co59 N100 2.151 . S
Co59 N108 2.214 . S
Co60 O61 2.160 . S
Co60 O66 2.058 . S
Co60 O76 2.057 . S
Co60 O91 2.037 . S
Co60 N95 2.145 . S
Co60 N116 2.257 . S
O61 Co59 2.143 . S
O61 Co60 2.160 . S
C62 O63 1.278 . S
C62 O70 1.224 . S
O63 C62 1.278 . S
C64 O65 1.245 . S
C64 O76 1.232 . S
O65 C64 1.245 . S
O66 Co60 2.058 . S
O66 C92 1.269 . S
O67 Co59 2.074 . S
O67 C92 1.257 . S
H68 C93 0.930 . S
H69 C99 0.930 . S
O70 Co59 2.093 . S
O70 C62 1.224 . S
H71 C103 0.929 . S
H72 C105 0.930 . S
H73 C106 0.930 . S
H74 C104 0.929 . S
H75 C107 0.928 . S
O76 Co60 2.057 . S
O76 C64 1.232 . S
H77 C96 0.929 . S
H78 C97 0.929 . S
H79 C109 0.931 . S
H80 C101 0.929 . S
H81 C110 0.930 . S
H82 C102 0.931 . S
O83 Co59 2.097 . S
O83 C111 1.214 . S
H84 C112 0.929 . S
H85 C113 0.929 . S
H86 C114 0.930 . S
H87 C115 0.929 . S
H88 C117 0.930 . S
H89 C94 0.930 . S
H90 C98 0.930 . S
O91 Co60 2.037 . S
O91 C111 1.234 . S
C92 O66 1.269 . S
C92 O67 1.257 . S
C93 H68 0.930 . S
C93 C96 1.388 . S
C93 C98 1.418 . S
C94 H89 0.930 . S
C94 C97 1.404 . S
C94 C98 1.353 . S
N95 Co60 2.145 . S
N95 C96 1.397 . S
N95 C97 1.334 . S
C96 H77 0.929 . S
C96 C93 1.388 . S
C96 N95 1.397 . S
C97 H78 0.929 . S
C97 C94 1.404 . S
C97 N95 1.334 . S
C98 H90 0.930 . S
C98 C93 1.418 . S
C98 C94 1.353 . S
C99 H69 0.930 . S
C99 N100 1.330 . S
C99 C101 1.446 . S
N100 Co59 2.151 . S
N100 C99 1.330 . S
N100 C104 1.418 . S
C101 H80 0.929 . S
C101 C99 1.446 . S
C101 C102 1.332 . S
C102 H82 0.931 . S
C102 C101 1.332 . S
C102 C103 1.267 . S
C103 H71 0.929 . S
C103 C102 1.267 . S
C103 C104 1.251 . S
C104 H74 0.929 . S
C104 N100 1.418 . S
C104 C103 1.251 . S
C105 H72 0.930 . S
C105 C107 1.406 . S
C105 C110 1.261 . S
C106 H73 0.930 . S
C106 N108 1.325 . S
C106 C109 1.357 . S
C107 H75 0.928 . S
C107 C105 1.406 . S
C107 N108 1.261 . S
N108 Co59 2.214 . S
N108 C106 1.325 . S
N108 C107 1.261 . S
C109 H79 0.931 . S
C109 C106 1.357 . S
C109 C110 1.312 . S
C110 H81 0.930 . S
C110 C105 1.261 . S
C110 C109 1.312 . S
C111 O83 1.214 . S
C111 O91 1.234 . S
C112 H84 0.929 . S
C112 C115 1.391 . S
C112 C117 1.391 . S
C113 H85 0.929 . S
C113 C114 1.390 . S
C113 N116 1.391 . S
C114 H86 0.930 . S
C114 C113 1.390 . S
C114 C115 1.392 . S
C115 H87 0.929 . S
C115 C112 1.391 . S
C115 C114 1.392 . S
N116 Co60 2.257 . S
N116 C113 1.391 . S
N116 C117 1.388 . S
C117 H88 0.930 . S
C117 C112 1.391 . S
C117 N116 1.388 . S
Co118 O120 2.143 1_554 S
Co118 O126 2.074 1_554 S
Co118 O129 2.093 . S
Co118 O142 2.097 . S
Co118 N159 2.151 . S
Co118 N167 2.214 . S
Co119 O120 2.160 . S
Co119 O125 2.058 . S
Co119 O135 2.057 . S
Co119 O150 2.037 . S
Co119 N154 2.145 . S
Co119 N175 2.257 . S
O120 Co118 2.143 1_556 S
O120 Co119 2.160 . S
C121 O122 1.281 . S
C121 O129 1.224 . S
O122 C121 1.281 . S
C123 O124 1.245 . S
C123 O135 1.232 . S
O124 C123 1.245 . S
O125 Co119 2.058 . S
O125 C151 1.269 . S
O126 Co118 2.074 1_556 S
O126 C151 1.257 . S
H127 C152 0.930 . S
H128 C158 0.930 . S
O129 Co118 2.093 . S
O129 C121 1.224 . S
H130 C162 0.929 . S
H131 C164 0.930 . S
H132 C165 0.930 . S
H133 C163 0.929 . S
H134 C166 0.928 . S
O135 Co119 2.057 . S
O135 C123 1.232 . S
H136 C155 0.929 . S
H137 C156 0.929 . S
H138 C168 0.931 . S
H139 C160 0.929 . S
H140 C169 0.930 . S
H141 C161 0.931 . S
O142 Co118 2.097 . S
O142 C170 1.214 1_554 S
H143 C171 0.929 . S
H144 C172 0.929 . S
H145 C173 0.930 . S
H146 C174 0.929 . S
H147 C176 0.930 . S
H148 C153 0.930 . S
H149 C157 0.930 . S
O150 Co119 2.037 . S
O150 C170 1.234 . S
C151 O125 1.269 . S
C151 O126 1.257 . S
C152 H127 0.930 . S
C152 C155 1.388 . S
C152 C157 1.418 . S
C153 H148 0.930 . S
C153 C156 1.404 . S
C153 C157 1.353 . S
N154 Co119 2.145 . S
N154 C155 1.397 . S
N154 C156 1.334 . S
C155 H136 0.929 . S
C155 C152 1.388 . S
C155 N154 1.397 . S
C156 H137 0.929 . S
C156 C153 1.404 . S
C156 N154 1.334 . S
C157 H149 0.930 . S
C157 C152 1.418 . S
C157 C153 1.353 . S
C158 H128 0.930 . S
C158 N159 1.330 . S
C158 C160 1.446 . S
N159 Co118 2.151 . S
N159 C158 1.330 . S
N159 C163 1.418 . S
C160 H139 0.929 . S
C160 C158 1.446 . S
C160 C161 1.332 . S
C161 H141 0.931 . S
C161 C160 1.332 . S
C161 C162 1.267 . S
C162 H130 0.929 . S
C162 C161 1.267 . S
C162 C163 1.251 . S
C163 H133 0.929 . S
C163 N159 1.418 . S
C163 C162 1.251 . S
C164 H131 0.930 . S
C164 C166 1.406 . S
C164 C169 1.261 . S
C165 H132 0.930 . S
C165 N167 1.325 . S
C165 C168 1.357 . S
C166 H134 0.928 . S
C166 C164 1.406 . S
C166 N167 1.261 . S
N167 Co118 2.214 . S
N167 C165 1.325 . S
N167 C166 1.261 . S
C168 H138 0.931 . S
C168 C165 1.357 . S
C168 C169 1.312 . S
C169 H140 0.930 . S
C169 C164 1.261 . S
C169 C168 1.312 . S
C170 O142 1.214 1_556 S
C170 O150 1.234 . S
C171 H143 0.929 . S
C171 C174 1.391 . S
C171 C176 1.391 . S
C172 H144 0.929 . S
C172 C173 1.390 . S
C172 N175 1.391 . S
C173 H145 0.930 . S
C173 C172 1.390 . S
C173 C174 1.392 . S
C174 H146 0.929 . S
C174 C171 1.391 . S
C174 C173 1.392 . S
N175 Co119 2.257 . S
N175 C172 1.391 . S
N175 C176 1.388 . S
C176 H147 0.930 . S
C176 C171 1.391 . S
C176 N175 1.388 . S
Co177 O179 2.143 . S
Co177 O185 2.074 . S
Co177 O188 2.093 . S
Co177 O201 2.097 . S
Co177 N218 2.151 . S
Co177 N226 2.214 . S
Co178 O179 2.160 . S
Co178 O184 2.058 . S
Co178 O194 2.057 . S
Co178 O209 2.037 . S
Co178 N213 2.145 . S
Co178 N234 2.257 . S
O179 Co177 2.143 . S
O179 Co178 2.160 . S
C180 O181 1.278 . S
C180 O188 1.224 . S
O181 C180 1.278 . S
C182 O183 1.245 . S
C182 O194 1.232 . S
O183 C182 1.245 . S
O184 Co178 2.058 . S
O184 C210 1.269 . S
O185 Co177 2.074 . S
O185 C210 1.257 . S
H186 C211 0.930 . S
H187 C217 0.930 . S
O188 Co177 2.093 . S
O188 C180 1.224 . S
H189 C221 0.929 . S
H190 C223 0.930 . S
H191 C224 0.930 . S
H192 C222 0.929 . S
H193 C225 0.928 . S
O194 Co178 2.057 . S
O194 C182 1.232 . S
H195 C214 0.929 . S
H196 C215 0.929 . S
H197 C227 0.931 . S
H198 C219 0.929 . S
H199 C228 0.930 . S
H200 C220 0.931 . S
O201 Co177 2.097 . S
O201 C229 1.214 . S
H202 C230 0.929 . S
H203 C231 0.929 . S
H204 C232 0.930 . S
H205 C233 0.929 . S
H206 C235 0.930 . S
H207 C212 0.930 1_556 S
H208 C216 0.930 . S
O209 Co178 2.037 . S
O209 C229 1.234 . S
C210 O184 1.269 . S
C210 O185 1.257 . S
C211 H186 0.930 . S
C211 C214 1.388 . S
C211 C216 1.418 . S
C212 H207 0.930 1_554 S
C212 C215 1.404 . S
C212 C216 1.353 . S
N213 Co178 2.145 . S
N213 C214 1.397 . S
N213 C215 1.334 . S
C214 H195 0.929 . S
C214 C211 1.388 . S
C214 N213 1.397 . S
C215 H196 0.929 . S
C215 C212 1.404 . S
C215 N213 1.334 . S
C216 H208 0.930 . S
C216 C211 1.418 . S
C216 C212 1.353 . S
C217 H187 0.930 . S
C217 N218 1.330 . S
C217 C219 1.446 . S
N218 Co177 2.151 . S
N218 C217 1.330 . S
N218 C222 1.418 . S
C219 H198 0.929 . S
C219 C217 1.446 . S
C219 C220 1.332 . S
C220 H200 0.931 . S
C220 C219 1.332 . S
C220 C221 1.267 . S
C221 H189 0.929 . S
C221 C220 1.267 . S
C221 C222 1.251 . S
C222 H192 0.929 . S
C222 N218 1.418 . S
C222 C221 1.251 . S
C223 H190 0.930 . S
C223 C225 1.406 . S
C223 C228 1.261 . S
C224 H191 0.930 . S
C224 N226 1.325 . S
C224 C227 1.357 . S
C225 H193 0.928 . S
C225 C223 1.406 . S
C225 N226 1.261 . S
N226 Co177 2.214 . S
N226 C224 1.325 . S
N226 C225 1.261 . S
C227 H197 0.931 . S
C227 C224 1.357 . S
C227 C228 1.312 . S
C228 H199 0.930 . S
C228 C223 1.261 . S
C228 C227 1.312 . S
C229 O201 1.214 . S
C229 O209 1.234 . S
C230 H202 0.929 . S
C230 C233 1.391 . S
C230 C235 1.391 . S
C231 H203 0.929 . S
C231 C232 1.390 . S
C231 N234 1.391 . S
C232 H204 0.930 . S
C232 C231 1.390 . S
C232 C233 1.392 . S
C233 H205 0.929 . S
C233 C230 1.391 . S
C233 C232 1.392 . S
N234 Co178 2.257 . S
N234 C231 1.391 . S
N234 C235 1.388 . S
C235 H206 0.930 . S
C235 C230 1.391 . S
C235 N234 1.388 . S
Co236 O238 2.143 . S
Co236 O244 2.074 . S
Co236 O247 2.093 . S
Co236 O260 2.097 . S
Co236 N277 2.151 . S
Co236 N285 2.214 . S
Co237 O238 2.160 . S
Co237 O243 2.058 . S
Co237 O253 2.057 . S
Co237 O268 2.037 . S
Co237 N272 2.145 . S
Co237 N293 2.257 . S
O238 Co236 2.143 . S
O238 Co237 2.160 . S
C239 O240 1.278 . S
C239 O247 1.224 . S
O240 C239 1.278 . S
C241 O242 1.245 . S
C241 O253 1.232 . S
O242 C241 1.245 . S
O243 Co237 2.058 . S
O243 C269 1.269 . S
O244 Co236 2.074 . S
O244 C269 1.257 . S
H245 C270 0.930 . S
H246 C276 0.930 . S
O247 Co236 2.093 . S
O247 C239 1.224 . S
H248 C280 0.929 . S
H249 C282 0.930 . S
H250 C283 0.930 . S
H251 C281 0.929 . S
H252 C284 0.928 . S
O253 Co237 2.057 . S
O253 C241 1.232 . S
H254 C273 0.929 . S
H255 C274 0.929 . S
H256 C286 0.931 . S
H257 C278 0.929 . S
H258 C287 0.930 . S
H259 C279 0.931 . S
O260 Co236 2.097 . S
O260 C288 1.214 . S
H261 C289 0.929 . S
H262 C290 0.929 . S
H263 C291 0.930 . S
H264 C292 0.929 . S
H265 C294 0.930 . S
H266 C271 0.930 . S
H267 C275 0.930 . S
O268 Co237 2.037 . S
O268 C288 1.234 . S
C269 O243 1.269 . S
C269 O244 1.257 . S
C270 H245 0.930 . S
C270 C273 1.388 . S
C270 C275 1.418 . S
C271 H266 0.930 . S
C271 C274 1.404 . S
C271 C275 1.353 . S
N272 Co237 2.145 . S
N272 C273 1.397 . S
N272 C274 1.334 . S
C273 H254 0.929 . S
C273 C270 1.388 . S
C273 N272 1.397 . S
C274 H255 0.929 . S
C274 C271 1.404 . S
C274 N272 1.334 . S
C275 H267 0.930 . S
C275 C270 1.418 . S
C275 C271 1.353 . S
C276 H246 0.930 . S
C276 N277 1.330 . S
C276 C278 1.446 . S
N277 Co236 2.151 . S
N277 C276 1.330 . S
N277 C281 1.418 . S
C278 H257 0.929 . S
C278 C276 1.446 . S
C278 C279 1.332 . S
C279 H259 0.931 . S
C279 C278 1.332 . S
C279 C280 1.267 . S
C280 H248 0.929 . S
C280 C279 1.267 . S
C280 C281 1.251 . S
C281 H251 0.929 . S
C281 N277 1.418 . S
C281 C280 1.251 . S
C282 H249 0.930 . S
C282 C284 1.406 . S
C282 C287 1.261 . S
C283 H250 0.930 . S
C283 N285 1.325 . S
C283 C286 1.357 . S
C284 H252 0.928 . S
C284 C282 1.406 . S
C284 N285 1.261 . S
N285 Co236 2.214 . S
N285 C283 1.325 . S
N285 C284 1.261 . S
C286 H256 0.931 . S
C286 C283 1.357 . S
C286 C287 1.312 . S
C287 H258 0.930 . S
C287 C282 1.261 . S
C287 C286 1.312 . S
C288 O260 1.214 . S
C288 O268 1.234 . S
C289 H261 0.929 . S
C289 C292 1.391 . S
C289 C294 1.391 . S
C290 H262 0.929 . S
C290 C291 1.390 . S
C290 N293 1.391 . S
C291 H263 0.930 . S
C291 C290 1.390 . S
C291 C292 1.392 . S
C292 H264 0.929 . S
C292 C289 1.391 . S
C292 C291 1.392 . S
N293 Co237 2.257 . S
N293 C290 1.391 . S
N293 C294 1.388 . S
C294 H265 0.930 . S
C294 C289 1.391 . S
C294 N293 1.388 . S
Co295 O297 2.143 1_554 S
Co295 O303 2.074 1_554 S
Co295 O306 2.093 . S
Co295 O319 2.097 . S
Co295 N336 2.151 . S
Co295 N344 2.214 . S
Co296 O297 2.160 . S
Co296 O302 2.058 . S
Co296 O312 2.057 . S
Co296 O327 2.037 . S
Co296 N331 2.145 . S
Co296 N352 2.257 . S
O297 Co295 2.143 1_556 S
O297 Co296 2.160 . S
C298 O299 1.281 . S
C298 O306 1.224 . S
O299 C298 1.281 . S
C300 O301 1.245 . S
C300 O312 1.232 . S
O301 C300 1.245 . S
O302 Co296 2.058 . S
O302 C328 1.269 . S
O303 Co295 2.074 1_556 S
O303 C328 1.257 . S
H304 C329 0.930 . S
H305 C335 0.930 . S
O306 Co295 2.093 . S
O306 C298 1.224 . S
H307 C339 0.929 . S
H308 C341 0.930 . S
H309 C342 0.930 . S
H310 C340 0.929 . S
H311 C343 0.928 . S
O312 Co296 2.057 . S
O312 C300 1.232 . S
H313 C332 0.929 . S
H314 C333 0.929 . S
H315 C345 0.931 . S
H316 C337 0.929 . S
H317 C346 0.930 . S
H318 C338 0.931 . S
O319 Co295 2.097 . S
O319 C347 1.214 1_554 S
H320 C348 0.929 . S
H321 C349 0.929 . S
H322 C350 0.930 . S
H323 C351 0.929 . S
H324 C353 0.930 . S
H325 C330 0.930 . S
H326 C334 0.930 . S
O327 Co296 2.037 . S
O327 C347 1.234 . S
C328 O302 1.269 . S
C328 O303 1.257 . S
C329 H304 0.930 . S
C329 C332 1.388 . S
C329 C334 1.418 . S
C330 H325 0.930 . S
C330 C333 1.404 . S
C330 C334 1.353 . S
N331 Co296 2.145 . S
N331 C332 1.397 . S
N331 C333 1.334 . S
C332 H313 0.929 . S
C332 C329 1.388 . S
C332 N331 1.397 . S
C333 H314 0.929 . S
C333 C330 1.404 . S
C333 N331 1.334 . S
C334 H326 0.930 . S
C334 C329 1.418 . S
C334 C330 1.353 . S
C335 H305 0.930 . S
C335 N336 1.330 . S
C335 C337 1.446 . S
N336 Co295 2.151 . S
N336 C335 1.330 . S
N336 C340 1.418 . S
C337 H316 0.929 . S
C337 C335 1.446 . S
C337 C338 1.332 . S
C338 H318 0.931 . S
C338 C337 1.332 . S
C338 C339 1.267 . S
C339 H307 0.929 . S
C339 C338 1.267 . S
C339 C340 1.251 . S
C340 H310 0.929 . S
C340 N336 1.418 . S
C340 C339 1.251 . S
C341 H308 0.930 . S
C341 C343 1.406 . S
C341 C346 1.261 . S
C342 H309 0.930 . S
C342 N344 1.325 . S
C342 C345 1.357 . S
C343 H311 0.928 . S
C343 C341 1.406 . S
C343 N344 1.261 . S
N344 Co295 2.214 . S
N344 C342 1.325 . S
N344 C343 1.261 . S
C345 H315 0.931 . S
C345 C342 1.357 . S
C345 C346 1.312 . S
C346 H317 0.930 . S
C346 C341 1.261 . S
C346 C345 1.312 . S
C347 O319 1.214 1_556 S
C347 O327 1.234 . S
C348 H320 0.929 . S
C348 C351 1.391 . S
C348 C353 1.391 . S
C349 H321 0.929 . S
C349 C350 1.390 . S
C349 N352 1.391 . S
C350 H322 0.930 . S
C350 C349 1.390 . S
C350 C351 1.392 . S
C351 H323 0.929 . S
C351 C348 1.391 . S
C351 C350 1.392 . S
N352 Co296 2.257 . S
N352 C349 1.391 . S
N352 C353 1.388 . S
C353 H324 0.930 . S
C353 C348 1.391 . S
C353 N352 1.388 . S
Co354 O356 2.143 . S
Co354 O362 2.074 . S
Co354 O365 2.093 . S
Co354 O378 2.097 . S
Co354 N395 2.151 . S
Co354 N403 2.214 . S
Co355 O356 2.160 . S
Co355 O361 2.058 . S
Co355 O371 2.057 . S
Co355 O386 2.037 . S
Co355 N390 2.145 . S
Co355 N411 2.257 . S
O356 Co354 2.143 . S
O356 Co355 2.160 . S
C357 O358 1.278 . S
C357 O365 1.224 . S
O358 C357 1.278 . S
C359 O360 1.245 . S
C359 O371 1.232 . S
O360 C359 1.245 . S
O361 Co355 2.058 . S
O361 C387 1.269 . S
O362 Co354 2.074 . S
O362 C387 1.257 . S
H363 C388 0.930 . S
H364 C394 0.930 . S
O365 Co354 2.093 . S
O365 C357 1.224 . S
H366 C398 0.929 . S
H367 C400 0.930 . S
H368 C401 0.930 . S
H369 C399 0.929 . S
H370 C402 0.928 . S
O371 Co355 2.057 . S
O371 C359 1.232 . S
H372 C391 0.929 . S
H373 C392 0.929 . S
H374 C404 0.931 . S
H375 C396 0.929 . S
H376 C405 0.930 . S
H377 C397 0.931 . S
O378 Co354 2.097 . S
O378 C406 1.214 . S
H379 C407 0.929 . S
H380 C408 0.929 . S
H381 C409 0.930 . S
H382 C410 0.929 . S
H383 C412 0.930 . S
H384 C389 0.930 . S
H385 C393 0.930 . S
O386 Co355 2.037 . S
O386 C406 1.234 . S
C387 O361 1.269 . S
C387 O362 1.257 . S
C388 H363 0.930 . S
C388 C391 1.388 . S
C388 C393 1.418 . S
C389 H384 0.930 . S
C389 C392 1.404 . S
C389 C393 1.353 . S
N390 Co355 2.145 . S
N390 C391 1.397 . S
N390 C392 1.334 . S
C391 H372 0.929 . S
C391 C388 1.388 . S
C391 N390 1.397 . S
C392 H373 0.929 . S
C392 C389 1.404 . S
C392 N390 1.334 . S
C393 H385 0.930 . S
C393 C388 1.418 . S
C393 C389 1.353 . S
C394 H364 0.930 . S
C394 N395 1.330 . S
C394 C396 1.446 . S
N395 Co354 2.151 . S
N395 C394 1.330 . S
N395 C399 1.418 . S
C396 H375 0.929 . S
C396 C394 1.446 . S
C396 C397 1.332 . S
C397 H377 0.931 . S
C397 C396 1.332 . S
C397 C398 1.267 . S
C398 H366 0.929 . S
C398 C397 1.267 . S
C398 C399 1.251 . S
C399 H369 0.929 . S
C399 N395 1.418 . S
C399 C398 1.251 . S
C400 H367 0.930 . S
C400 C402 1.406 . S
C400 C405 1.261 . S
C401 H368 0.930 . S
C401 N403 1.325 . S
C401 C404 1.357 . S
C402 H370 0.928 . S
C402 C400 1.406 . S
C402 N403 1.261 . S
N403 Co354 2.214 . S
N403 C401 1.325 . S
N403 C402 1.261 . S
C404 H374 0.931 . S
C404 C401 1.357 . S
C404 C405 1.312 . S
C405 H376 0.930 . S
C405 C400 1.261 . S
C405 C404 1.312 . S
C406 O378 1.214 . S
C406 O386 1.234 . S
C407 H379 0.929 . S
C407 C410 1.391 . S
C407 C412 1.391 . S
C408 H380 0.929 . S
C408 C409 1.390 . S
C408 N411 1.391 . S
C409 H381 0.930 . S
C409 C408 1.390 . S
C409 C410 1.392 . S
C410 H382 0.929 . S
C410 C407 1.391 . S
C410 C409 1.392 . S
N411 Co355 2.257 . S
N411 C408 1.391 . S
N411 C412 1.388 . S
C412 H383 0.930 . S
C412 C407 1.391 . S
C412 N411 1.388 . S
Co413 O415 2.143 . S
Co413 O421 2.074 . S
Co413 O424 2.093 . S
Co413 O437 2.097 . S
Co413 N454 2.151 . S
Co413 N462 2.214 . S
Co414 O415 2.160 . S
Co414 O420 2.058 . S
Co414 O430 2.057 . S
Co414 O445 2.037 . S
Co414 N449 2.145 . S
Co414 N470 2.257 . S
O415 Co413 2.143 . S
O415 Co414 2.160 . S
C416 O417 1.278 . S
C416 O424 1.224 . S
O417 C416 1.278 . S
C418 O419 1.245 . S
C418 O430 1.232 . S
O419 C418 1.245 . S
O420 Co414 2.058 . S
O420 C446 1.269 . S
O421 Co413 2.074 . S
O421 C446 1.257 . S
H422 C447 0.930 . S
H423 C453 0.930 . S
O424 Co413 2.093 . S
O424 C416 1.224 . S
H425 C457 0.929 . S
H426 C459 0.930 . S
H427 C460 0.930 . S
H428 C458 0.929 . S
H429 C461 0.928 . S
O430 Co414 2.057 . S
O430 C418 1.232 . S
H431 C450 0.929 . S
H432 C451 0.929 . S
H433 C463 0.931 . S
H434 C455 0.929 . S
H435 C464 0.930 . S
H436 C456 0.931 . S
O437 Co413 2.097 . S
O437 C465 1.214 . S
H438 C466 0.929 . S
H439 C467 0.929 . S
H440 C468 0.930 . S
H441 C469 0.929 . S
H442 C471 0.930 . S
H443 C448 0.930 1_554 S
H444 C452 0.930 . S
O445 Co414 2.037 . S
O445 C465 1.234 . S
C446 O420 1.269 . S
C446 O421 1.257 . S
C447 H422 0.930 . S
C447 C450 1.388 . S
C447 C452 1.418 . S
C448 H443 0.930 1_556 S
C448 C451 1.404 . S
C448 C452 1.353 . S
N449 Co414 2.145 . S
N449 C450 1.397 . S
N449 C451 1.334 . S
C450 H431 0.929 . S
C450 C447 1.388 . S
C450 N449 1.397 . S
C451 H432 0.929 . S
C451 C448 1.404 . S
C451 N449 1.334 . S
C452 H444 0.930 . S
C452 C447 1.418 . S
C452 C448 1.353 . S
C453 H423 0.930 . S
C453 N454 1.330 . S
C453 C455 1.446 . S
N454 Co413 2.151 . S
N454 C453 1.330 . S
N454 C458 1.418 . S
C455 H434 0.929 . S
C455 C453 1.446 . S
C455 C456 1.332 . S
C456 H436 0.931 . S
C456 C455 1.332 . S
C456 C457 1.267 . S
C457 H425 0.929 . S
C457 C456 1.267 . S
C457 C458 1.251 . S
C458 H428 0.929 . S
C458 N454 1.418 . S
C458 C457 1.251 . S
C459 H426 0.930 . S
C459 C461 1.406 . S
C459 C464 1.261 . S
C460 H427 0.930 . S
C460 N462 1.325 . S
C460 C463 1.357 . S
C461 H429 0.928 . S
C461 C459 1.406 . S
C461 N462 1.261 . S
N462 Co413 2.214 . S
N462 C460 1.325 . S
N462 C461 1.261 . S
C463 H433 0.931 . S
C463 C460 1.357 . S
C463 C464 1.312 . S
C464 H435 0.930 . S
C464 C459 1.261 . S
C464 C463 1.312 . S
C465 O437 1.214 . S
C465 O445 1.234 . S
C466 H438 0.929 . S
C466 C469 1.391 . S
C466 C471 1.391 . S
C467 H439 0.929 . S
C467 C468 1.390 . S
C467 N470 1.391 . S
C468 H440 0.930 . S
C468 C467 1.390 . S
C468 C469 1.392 . S
C469 H441 0.929 . S
C469 C466 1.391 . S
C469 C468 1.392 . S
N470 Co414 2.257 . S
N470 C467 1.391 . S
N470 C471 1.388 . S
C471 H442 0.930 . S
C471 C466 1.391 . S
C471 N470 1.388 . S
Co472 O474 2.143 1_556 S
Co472 O480 2.074 1_556 S
Co472 O483 2.093 . S
Co472 O496 2.097 . S
Co472 N513 2.151 . S
Co472 N521 2.214 . S
Co473 O474 2.160 . S
Co473 O479 2.058 . S
Co473 O489 2.057 . S
Co473 O504 2.037 . S
Co473 N508 2.145 . S
Co473 N529 2.257 . S
O474 Co472 2.143 1_554 S
O474 Co473 2.160 . S
C475 O476 1.281 . S
C475 O483 1.224 . S
O476 C475 1.281 . S
C477 O478 1.245 . S
C477 O489 1.232 . S
O478 C477 1.245 . S
O479 Co473 2.058 . S
O479 C505 1.269 . S
O480 Co472 2.074 1_554 S
O480 C505 1.257 . S
H481 C506 0.930 . S
H482 C512 0.930 . S
O483 Co472 2.093 . S
O483 C475 1.224 . S
H484 C516 0.929 . S
H485 C518 0.930 . S
H486 C519 0.930 . S
H487 C517 0.929 . S
H488 C520 0.928 . S
O489 Co473 2.057 . S
O489 C477 1.232 . S
H490 C509 0.929 . S
H491 C510 0.929 . S
H492 C522 0.931 . S
H493 C514 0.929 . S
H494 C523 0.930 . S
H495 C515 0.931 . S
O496 Co472 2.097 . S
O496 C524 1.214 1_556 S
H497 C525 0.929 . S
H498 C526 0.929 . S
H499 C527 0.930 . S
H500 C528 0.929 . S
H501 C530 0.930 . S
H502 C507 0.930 . S
H503 C511 0.930 . S
O504 Co473 2.037 . S
O504 C524 1.234 . S
C505 O479 1.269 . S
C505 O480 1.257 . S
C506 H481 0.930 . S
C506 C509 1.388 . S
C506 C511 1.418 . S
C507 H502 0.930 . S
C507 C510 1.404 . S
C507 C511 1.353 . S
N508 Co473 2.145 . S
N508 C509 1.397 . S
N508 C510 1.334 . S
C509 H490 0.929 . S
C509 C506 1.388 . S
C509 N508 1.397 . S
C510 H491 0.929 . S
C510 C507 1.404 . S
C510 N508 1.334 . S
C511 H503 0.930 . S
C511 C506 1.418 . S
C511 C507 1.353 . S
C512 H482 0.930 . S
C512 N513 1.330 . S
C512 C514 1.446 . S
N513 Co472 2.151 . S
N513 C512 1.330 . S
N513 C517 1.418 . S
C514 H493 0.929 . S
C514 C512 1.446 . S
C514 C515 1.332 . S
C515 H495 0.931 . S
C515 C514 1.332 . S
C515 C516 1.267 . S
C516 H484 0.929 . S
C516 C515 1.267 . S
C516 C517 1.251 . S
C517 H487 0.929 . S
C517 N513 1.418 . S
C517 C516 1.251 . S
C518 H485 0.930 . S
C518 C520 1.406 . S
C518 C523 1.261 . S
C519 H486 0.930 . S
C519 N521 1.325 . S
C519 C522 1.357 . S
C520 H488 0.928 . S
C520 C518 1.406 . S
C520 N521 1.261 . S
N521 Co472 2.214 . S
N521 C519 1.325 . S
N521 C520 1.261 . S
C522 H492 0.931 . S
C522 C519 1.357 . S
C522 C523 1.312 . S
C523 H494 0.930 . S
C523 C518 1.261 . S
C523 C522 1.312 . S
C524 O496 1.214 1_554 S
C524 O504 1.234 . S
C525 H497 0.929 . S
C525 C528 1.391 . S
C525 C530 1.391 . S
C526 H498 0.929 . S
C526 C527 1.390 . S
C526 N529 1.391 . S
C527 H499 0.930 . S
C527 C526 1.390 . S
C527 C528 1.392 . S
C528 H500 0.929 . S
C528 C525 1.391 . S
C528 C527 1.392 . S
N529 Co473 2.257 . S
N529 C526 1.391 . S
N529 C530 1.388 . S
C530 H501 0.930 . S
C530 C525 1.391 . S
C530 N529 1.388 . S
Co531 O533 2.143 . S
Co531 O539 2.074 . S
Co531 O542 2.093 . S
Co531 O555 2.097 . S
Co531 N572 2.151 . S
Co531 N580 2.214 . S
Co532 O533 2.160 . S
Co532 O538 2.058 . S
Co532 O548 2.057 . S
Co532 O563 2.037 . S
Co532 N567 2.145 . S
Co532 N588 2.257 . S
O533 Co531 2.143 . S
O533 Co532 2.160 . S
C534 O535 1.278 . S
C534 O542 1.224 . S
O535 C534 1.278 . S
C536 O537 1.245 . S
C536 O548 1.232 . S
O537 C536 1.245 . S
O538 Co532 2.058 . S
O538 C564 1.269 . S
O539 Co531 2.074 . S
O539 C564 1.257 . S
H540 C565 0.930 . S
H541 C571 0.930 . S
O542 Co531 2.093 . S
O542 C534 1.224 . S
H543 C575 0.929 . S
H544 C577 0.930 . S
H545 C578 0.930 . S
H546 C576 0.929 . S
H547 C579 0.928 . S
O548 Co532 2.057 . S
O548 C536 1.232 . S
H549 C568 0.929 . S
H550 C569 0.929 . S
H551 C581 0.931 . S
H552 C573 0.929 . S
H553 C582 0.930 . S
H554 C574 0.931 . S
O555 Co531 2.097 . S
O555 C583 1.214 . S
H556 C584 0.929 . S
H557 C585 0.929 . S
H558 C586 0.930 . S
H559 C587 0.929 . S
H560 C589 0.930 . S
H561 C566 0.930 . S
H562 C570 0.930 . S
O563 Co532 2.037 . S
O563 C583 1.234 . S
C564 O538 1.269 . S
C564 O539 1.257 . S
C565 H540 0.930 . S
C565 C568 1.388 . S
C565 C570 1.418 . S
C566 H561 0.930 . S
C566 C569 1.404 . S
C566 C570 1.353 . S
N567 Co532 2.145 . S
N567 C568 1.397 . S
N567 C569 1.334 . S
C568 H549 0.929 . S
C568 C565 1.388 . S
C568 N567 1.397 . S
C569 H550 0.929 . S
C569 C566 1.404 . S
C569 N567 1.334 . S
C570 H562 0.930 . S
C570 C565 1.418 . S
C570 C566 1.353 . S
C571 H541 0.930 . S
C571 N572 1.330 . S
C571 C573 1.446 . S
N572 Co531 2.151 . S
N572 C571 1.330 . S
N572 C576 1.418 . S
C573 H552 0.929 . S
C573 C571 1.446 . S
C573 C574 1.332 . S
C574 H554 0.931 . S
C574 C573 1.332 . S
C574 C575 1.267 . S
C575 H543 0.929 . S
C575 C574 1.267 . S
C575 C576 1.251 . S
C576 H546 0.929 . S
C576 N572 1.418 . S
C576 C575 1.251 . S
C577 H544 0.930 . S
C577 C579 1.406 . S
C577 C582 1.261 . S
C578 H545 0.930 . S
C578 N580 1.325 . S
C578 C581 1.357 . S
C579 H547 0.928 . S
C579 C577 1.406 . S
C579 N580 1.261 . S
N580 Co531 2.214 . S
N580 C578 1.325 . S
N580 C579 1.261 . S
C581 H551 0.931 . S
C581 C578 1.357 . S
C581 C582 1.312 . S
C582 H553 0.930 . S
C582 C577 1.261 . S
C582 C581 1.312 . S
C583 O555 1.214 . S
C583 O563 1.234 . S
C584 H556 0.929 . S
C584 C587 1.391 . S
C584 C589 1.391 . S
C585 H557 0.929 . S
C585 C586 1.390 . S
C585 N588 1.391 . S
C586 H558 0.930 . S
C586 C585 1.390 . S
C586 C587 1.392 . S
C587 H559 0.929 . S
C587 C584 1.391 . S
C587 C586 1.392 . S
N588 Co532 2.257 . S
N588 C585 1.391 . S
N588 C589 1.388 . S
C589 H560 0.930 . S
C589 C584 1.391 . S
C589 N588 1.388 . S
Co590 O592 2.143 . S
Co590 O598 2.074 . S
Co590 O601 2.093 . S
Co590 O614 2.097 . S
Co590 N631 2.151 . S
Co590 N639 2.214 . S
Co591 O592 2.160 . S
Co591 O597 2.058 . S
Co591 O607 2.057 . S
Co591 O622 2.037 . S
Co591 N626 2.145 . S
Co591 N647 2.257 . S
O592 Co590 2.143 . S
O592 Co591 2.160 . S
C593 O594 1.278 . S
C593 O601 1.224 . S
O594 C593 1.278 . S
C595 O596 1.245 . S
C595 O607 1.232 . S
O596 C595 1.245 . S
O597 Co591 2.058 . S
O597 C623 1.269 . S
O598 Co590 2.074 . S
O598 C623 1.257 . S
H599 C624 0.930 . S
H600 C630 0.930 . S
O601 Co590 2.093 . S
O601 C593 1.224 . S
H602 C634 0.929 . S
H603 C636 0.930 . S
H604 C637 0.930 . S
H605 C635 0.929 . S
H606 C638 0.928 . S
O607 Co591 2.057 . S
O607 C595 1.232 . S
H608 C627 0.929 . S
H609 C628 0.929 . S
H610 C640 0.931 . S
H611 C632 0.929 . S
H612 C641 0.930 . S
H613 C633 0.931 . S
O614 Co590 2.097 . S
O614 C642 1.214 . S
H615 C643 0.929 . S
H616 C644 0.929 . S
H617 C645 0.930 . S
H618 C646 0.929 . S
H619 C648 0.930 . S
H620 C625 0.930 1_554 S
H621 C629 0.930 . S
O622 Co591 2.037 . S
O622 C642 1.234 . S
C623 O597 1.269 . S
C623 O598 1.257 . S
C624 H599 0.930 . S
C624 C627 1.388 . S
C624 C629 1.418 . S
C625 H620 0.930 1_556 S
C625 C628 1.404 . S
C625 C629 1.353 . S
N626 Co591 2.145 . S
N626 C627 1.397 . S
N626 C628 1.334 . S
C627 H608 0.929 . S
C627 C624 1.388 . S
C627 N626 1.397 . S
C628 H609 0.929 . S
C628 C625 1.404 . S
C628 N626 1.334 . S
C629 H621 0.930 . S
C629 C624 1.418 . S
C629 C625 1.353 . S
C630 H600 0.930 . S
C630 N631 1.330 . S
C630 C632 1.446 . S
N631 Co590 2.151 . S
N631 C630 1.330 . S
N631 C635 1.418 . S
C632 H611 0.929 . S
C632 C630 1.446 . S
C632 C633 1.332 . S
C633 H613 0.931 . S
C633 C632 1.332 . S
C633 C634 1.267 . S
C634 H602 0.929 . S
C634 C633 1.267 . S
C634 C635 1.251 . S
C635 H605 0.929 . S
C635 N631 1.418 . S
C635 C634 1.251 . S
C636 H603 0.930 . S
C636 C638 1.406 . S
C636 C641 1.261 . S
C637 H604 0.930 . S
C637 N639 1.325 . S
C637 C640 1.357 . S
C638 H606 0.928 . S
C638 C636 1.406 . S
C638 N639 1.261 . S
N639 Co590 2.214 . S
N639 C637 1.325 . S
N639 C638 1.261 . S
C640 H610 0.931 . S
C640 C637 1.357 . S
C640 C641 1.312 . S
C641 H612 0.930 . S
C641 C636 1.261 . S
C641 C640 1.312 . S
C642 O614 1.214 . S
C642 O622 1.234 . S
C643 H615 0.929 . S
C643 C646 1.391 . S
C643 C648 1.391 . S
C644 H616 0.929 . S
C644 C645 1.390 . S
C644 N647 1.391 . S
C645 H617 0.930 . S
C645 C644 1.390 . S
C645 C646 1.392 . S
C646 H618 0.929 . S
C646 C643 1.391 . S
C646 C645 1.392 . S
N647 Co591 2.257 . S
N647 C644 1.391 . S
N647 C648 1.388 . S
C648 H619 0.930 . S
C648 C643 1.391 . S
C648 N647 1.388 . S
Co649 O651 2.143 1_556 S
Co649 O657 2.074 1_556 S
Co649 O660 2.093 . S
Co649 O673 2.097 . S
Co649 N690 2.151 . S
Co649 N698 2.214 . S
Co650 O651 2.160 . S
Co650 O656 2.058 . S
Co650 O666 2.057 . S
Co650 O681 2.037 . S
Co650 N685 2.145 . S
Co650 N706 2.257 . S
O651 Co649 2.143 1_554 S
O651 Co650 2.160 . S
C652 O653 1.281 . S
C652 O660 1.224 . S
O653 C652 1.281 . S
C654 O655 1.245 . S
C654 O666 1.232 . S
O655 C654 1.245 . S
O656 Co650 2.058 . S
O656 C682 1.269 . S
O657 Co649 2.074 1_554 S
O657 C682 1.257 . S
H658 C683 0.930 . S
H659 C689 0.930 . S
O660 Co649 2.093 . S
O660 C652 1.224 . S
H661 C693 0.929 . S
H662 C695 0.930 . S
H663 C696 0.930 . S
H664 C694 0.929 . S
H665 C697 0.928 . S
O666 Co650 2.057 . S
O666 C654 1.232 . S
H667 C686 0.929 . S
H668 C687 0.929 . S
H669 C699 0.931 . S
H670 C691 0.929 . S
H671 C700 0.930 . S
H672 C692 0.931 . S
O673 Co649 2.097 . S
O673 C701 1.214 1_556 S
H674 C702 0.929 . S
H675 C703 0.929 . S
H676 C704 0.930 . S
H677 C705 0.929 . S
H678 C707 0.930 . S
H679 C684 0.930 . S
H680 C688 0.930 . S
O681 Co650 2.037 . S
O681 C701 1.234 . S
C682 O656 1.269 . S
C682 O657 1.257 . S
C683 H658 0.930 . S
C683 C686 1.388 . S
C683 C688 1.418 . S
C684 H679 0.930 . S
C684 C687 1.404 . S
C684 C688 1.353 . S
N685 Co650 2.145 . S
N685 C686 1.397 . S
N685 C687 1.334 . S
C686 H667 0.929 . S
C686 C683 1.388 . S
C686 N685 1.397 . S
C687 H668 0.929 . S
C687 C684 1.404 . S
C687 N685 1.334 . S
C688 H680 0.930 . S
C688 C683 1.418 . S
C688 C684 1.353 . S
C689 H659 0.930 . S
C689 N690 1.330 . S
C689 C691 1.446 . S
N690 Co649 2.151 . S
N690 C689 1.330 . S
N690 C694 1.418 . S
C691 H670 0.929 . S
C691 C689 1.446 . S
C691 C692 1.332 . S
C692 H672 0.931 . S
C692 C691 1.332 . S
C692 C693 1.267 . S
C693 H661 0.929 . S
C693 C692 1.267 . S
C693 C694 1.251 . S
C694 H664 0.929 . S
C694 N690 1.418 . S
C694 C693 1.251 . S
C695 H662 0.930 . S
C695 C697 1.406 . S
C695 C700 1.261 . S
C696 H663 0.930 . S
C696 N698 1.325 . S
C696 C699 1.357 . S
C697 H665 0.928 . S
C697 C695 1.406 . S
C697 N698 1.261 . S
N698 Co649 2.214 . S
N698 C696 1.325 . S
N698 C697 1.261 . S
C699 H669 0.931 . S
C699 C696 1.357 . S
C699 C700 1.312 . S
C700 H671 0.930 . S
C700 C695 1.261 . S
C700 C699 1.312 . S
C701 O673 1.214 1_554 S
C701 O681 1.234 . S
C702 H674 0.929 . S
C702 C705 1.391 . S
C702 C707 1.391 . S
C703 H675 0.929 . S
C703 C704 1.390 . S
C703 N706 1.391 . S
C704 H676 0.930 . S
C704 C703 1.390 . S
C704 C705 1.392 . S
C705 H677 0.929 . S
C705 C702 1.391 . S
C705 C704 1.392 . S
N706 Co650 2.257 . S
N706 C703 1.391 . S
N706 C707 1.388 . S
C707 H678 0.930 . S
C707 C702 1.391 . S
C707 N706 1.388 . S
H708 C714 0.930 . S
H709 C717 0.930 . S
H710 C718 0.930 . S
H711 C719 0.930 . S
H712 C722 0.930 . S
H713 C723 0.930 . S
C714 H708 0.930 . S
C714 C715 1.355 . S
C714 C716 1.415 . S
C715 C714 1.355 . S
C715 C717 1.419 . S
C716 C714 1.415 . S
C716 C721 1.425 . S
C716 C723 1.409 . S
C717 H709 0.930 . S
C717 C715 1.419 . S
C717 C718 1.362 . S
C718 H710 0.930 . S
C718 C717 1.362 . S
C718 C721 1.409 . S
C719 H711 0.930 . S
C719 C720 1.355 . S
C719 C721 1.415 . S
C720 C719 1.355 . S
C720 C722 1.419 . S
C721 C716 1.425 . S
C721 C718 1.409 . S
C721 C719 1.415 . S
C722 H712 0.930 . S
C722 C720 1.419 . S
C722 C723 1.362 . S
C723 H713 0.930 . S
C723 C716 1.409 . S
C723 C722 1.362 . S
H724 C730 0.930 . S
H725 C733 0.930 . S
H726 C734 0.930 . S
H727 C735 0.930 . S
H728 C738 0.930 . S
H729 C739 0.930 . S
C730 H724 0.930 . S
C730 C731 1.355 . S
C730 C732 1.446 . S
C731 C730 1.355 . S
C731 C733 1.419 . S
C732 C730 1.446 . S
C732 C737 1.462 1_655 S
C732 C739 1.362 1_655 S
C733 H725 0.930 . S
C733 C731 1.419 . S
C733 C734 1.362 . S
C734 H726 0.930 . S
C734 C733 1.362 . S
C734 C737 1.362 1_655 S
C735 H727 0.930 . S
C735 C736 1.355 . S
C735 C737 1.446 . S
C736 C735 1.355 . S
C736 C738 1.419 . S
C737 C732 1.462 1_455 S
C737 C734 1.362 1_455 S
C737 C735 1.446 . S
C738 H728 0.930 . S
C738 C736 1.419 . S
C738 C739 1.362 . S
C739 H729 0.930 . S
C739 C732 1.362 1_455 S
C739 C738 1.362 . S
H740 C746 0.930 . S
H741 C749 0.930 . S
H742 C750 0.930 . S
H743 C751 0.930 . S
H744 C754 0.930 . S
H745 C755 0.930 . S
C746 H740 0.930 . S
C746 C747 1.355 . S
C746 C748 1.415 1_565 S
C747 C746 1.355 . S
C747 C749 1.419 1_556 S
C748 C746 1.415 1_545 S
C748 C753 1.425 1_546 S
C748 C755 1.409 . S
C749 H741 0.930 . S
C749 C747 1.419 1_554 S
C749 C750 1.362 . S
C750 H742 0.930 . S
C750 C749 1.362 . S
C750 C753 1.409 . S
C751 H743 0.930 . S
C751 C752 1.355 . S
C751 C753 1.415 1_545 S
C752 C751 1.355 . S
C752 C754 1.419 1_554 S
C753 C748 1.425 1_564 S
C753 C750 1.409 . S
C753 C751 1.415 1_565 S
C754 H744 0.930 . S
C754 C752 1.419 1_556 S
C754 C755 1.362 . S
C755 H745 0.930 . S
C755 C748 1.409 . S
C755 C754 1.362 . S
H756 C762 0.930 . S
H757 C765 0.930 . S
H758 C766 0.930 . S
H759 C767 0.930 . S
H760 C770 0.930 . S
H761 C771 0.930 . S
C762 H756 0.930 . S
C762 C763 1.355 . S
C762 C764 1.415 . S
C763 C762 1.355 . S
C763 C765 1.419 . S
C764 C762 1.415 . S
C764 C769 1.425 . S
C764 C771 1.409 . S
C765 H757 0.930 . S
C765 C763 1.419 . S
C765 C766 1.362 . S
C766 H758 0.930 . S
C766 C765 1.362 . S
C766 C769 1.409 . S
C767 H759 0.930 . S
C767 C768 1.355 . S
C767 C769 1.415 . S
C768 C767 1.355 . S
C768 C770 1.419 . S
C769 C764 1.425 . S
C769 C766 1.409 . S
C769 C767 1.415 . S
C770 H760 0.930 . S
C770 C768 1.419 . S
C770 C771 1.362 . S
C771 H761 0.930 . S
C771 C764 1.409 . S
C771 C770 1.362 . S
H772 C778 0.930 . S
H773 C781 0.930 . S
H774 C782 0.930 . S
H775 C783 0.930 . S
H776 C786 0.930 . S
H777 C787 0.930 . S
C778 H772 0.930 . S
C778 C779 1.355 . S
C778 C780 1.415 . S
C779 C778 1.355 . S
C779 C781 1.419 . S
C780 C778 1.415 . S
C780 C785 1.425 1_655 S
C780 C787 1.409 1_655 S
C781 H773 0.930 . S
C781 C779 1.419 . S
C781 C782 1.362 . S
C782 H774 0.930 . S
C782 C781 1.362 . S
C782 C785 1.409 1_655 S
C783 H775 0.930 . S
C783 C784 1.355 . S
C783 C785 1.415 . S
C784 C783 1.355 . S
C784 C786 1.419 . S
C785 C780 1.425 1_455 S
C785 C782 1.409 1_455 S
C785 C783 1.415 . S
C786 H776 0.930 . S
C786 C784 1.419 . S
C786 C787 1.362 . S
C787 H777 0.930 . S
C787 C780 1.409 1_455 S
C787 C786 1.362 . S
H788 C794 0.930 1_556 S
H789 C797 0.930 . S
H790 C798 0.929 1_545 S
H791 C799 0.930 1_554 S
H792 C802 0.930 . S
H793 C803 0.929 1_565 S
C794 H788 0.930 1_554 S
C794 C795 1.355 . S
C794 C796 1.415 1_554 S
C795 C794 1.355 . S
C795 C797 1.419 . S
C796 C794 1.415 1_556 S
C796 C801 1.425 1_566 S
C796 C803 1.405 1_565 S
C797 H789 0.930 . S
C797 C795 1.419 . S
C797 C798 1.367 . S
C798 H790 0.929 1_565 S
C798 C797 1.367 . S
C798 C801 1.405 1_565 S
C799 H791 0.930 1_556 S
C799 C800 1.355 . S
C799 C801 1.415 1_556 S
C800 C799 1.355 . S
C800 C802 1.419 . S
C801 C796 1.425 1_544 S
C801 C798 1.405 1_545 S
C801 C799 1.415 1_554 S
C802 H792 0.930 . S
C802 C800 1.419 . S
C802 C803 1.367 . S
C803 H793 0.929 1_545 S
C803 C796 1.405 1_545 S
C803 C802 1.367 . S
H804 C810 0.930 . S
H805 C813 0.930 . S
H806 C814 0.930 . S
H807 C815 0.930 . S
H808 C818 0.930 . S
H809 C819 0.930 . S
C810 H804 0.930 . S
C810 C811 1.355 . S
C810 C812 1.415 . S
C811 C810 1.355 . S
C811 C813 1.419 . S
C812 C810 1.415 . S
C812 C817 1.425 1_556 S
C812 C819 1.409 . S
C813 H805 0.930 . S
C813 C811 1.419 . S
C813 C814 1.362 1_556 S
C814 H806 0.930 . S
C814 C813 1.362 1_554 S
C814 C817 1.409 . S
C815 H807 0.930 . S
C815 C816 1.355 . S
C815 C817 1.415 . S
C816 C815 1.355 . S
C816 C818 1.419 . S
C817 C812 1.425 1_554 S
C817 C814 1.409 . S
C817 C815 1.415 . S
C818 H808 0.930 . S
C818 C816 1.419 . S
C818 C819 1.362 1_554 S
C819 H809 0.930 . S
C819 C812 1.409 . S
C819 C818 1.362 1_556 S
H820 C826 0.930 . S
H821 C829 0.930 . S
H822 C830 0.930 . S
H823 C831 0.930 . S
H824 C834 0.930 . S
H825 C835 0.930 . S
C826 H820 0.930 . S
C826 C827 1.355 . S
C826 C828 1.415 . S
C827 C826 1.355 . S
C827 C829 1.419 . S
C828 C826 1.415 . S
C828 C833 1.425 . S
C828 C835 1.409 . S
C829 H821 0.930 . S
C829 C827 1.419 . S
C829 C830 1.362 . S
C830 H822 0.930 . S
C830 C829 1.362 . S
C830 C833 1.409 . S
C831 H823 0.930 . S
C831 C832 1.355 . S
C831 C833 1.415 . S
C832 C831 1.355 . S
C832 C834 1.419 . S
C833 C828 1.425 . S
C833 C830 1.409 . S
C833 C831 1.415 . S
C834 H824 0.930 . S
C834 C832 1.419 . S
C834 C835 1.362 . S
C835 H825 0.930 . S
C835 C828 1.409 . S
C835 C834 1.362 . S
H836 C842 0.930 . S
H837 C845 0.930 . S
H838 C846 0.930 . S
H839 C847 0.930 . S
H840 C850 0.930 . S
H841 C851 0.930 . S
C842 H836 0.930 . S
C842 C843 1.355 . S
C842 C844 1.415 . S
C843 C842 1.355 . S
C843 C845 1.419 . S
C844 C842 1.415 . S
C844 C849 1.425 . S
C844 C851 1.409 . S
C845 H837 0.930 . S
C845 C843 1.419 . S
C845 C846 1.362 . S
C846 H838 0.930 . S
C846 C845 1.362 . S
C846 C849 1.409 . S
C847 H839 0.930 . S
C847 C848 1.355 . S
C847 C849 1.415 . S
C848 C847 1.355 . S
C848 C850 1.419 . S
C849 C844 1.425 . S
C849 C846 1.409 . S
C849 C847 1.415 . S
C850 H840 0.930 . S
C850 C848 1.419 . S
C850 C851 1.362 . S
C851 H841 0.930 . S
C851 C844 1.409 . S
C851 C850 1.362 . S
H852 C858 0.930 . S
H853 C861 0.930 . S
H854 C862 0.930 . S
H855 C863 0.930 . S
H856 C866 0.930 . S
H857 C867 0.930 . S
C858 H852 0.930 . S
C858 C859 1.355 . S
C858 C860 1.415 1_554 S
C859 C858 1.355 . S
C859 C861 1.419 . S
C860 C858 1.415 1_556 S
C860 C865 1.425 1_556 S
C860 C867 1.409 . S
C861 H853 0.930 . S
C861 C859 1.419 . S
C861 C862 1.362 . S
C862 H854 0.930 . S
C862 C861 1.362 . S
C862 C865 1.409 . S
C863 H855 0.930 . S
C863 C864 1.355 . S
C863 C865 1.415 1_556 S
C864 C863 1.355 . S
C864 C866 1.419 . S
C865 C860 1.425 1_554 S
C865 C862 1.409 . S
C865 C863 1.415 1_554 S
C866 H856 0.930 . S
C866 C864 1.419 . S
C866 C867 1.362 . S
C867 H857 0.930 . S
C867 C860 1.409 . S
C867 C866 1.362 . S
H868 C874 0.930 . S
H869 C877 0.930 . S
H870 C878 0.930 . S
H871 C879 0.930 . S
H872 C882 0.930 . S
H873 C883 0.930 . S
C874 H868 0.930 . S
C874 C875 1.355 . S
C874 C876 1.415 . S
C875 C874 1.355 . S
C875 C877 1.419 . S
C876 C874 1.415 . S
C876 C881 1.425 . S
C876 C883 1.409 . S
C877 H869 0.930 . S
C877 C875 1.419 . S
C877 C878 1.362 . S
C878 H870 0.930 . S
C878 C877 1.362 . S
C878 C881 1.409 . S
C879 H871 0.930 . S
C879 C880 1.355 . S
C879 C881 1.415 . S
C880 C879 1.355 . S
C880 C882 1.419 . S
C881 C876 1.425 . S
C881 C878 1.409 . S
C881 C879 1.415 . S
C882 H872 0.930 . S
C882 C880 1.419 . S
C882 C883 1.362 . S
C883 H873 0.930 . S
C883 C876 1.409 . S
C883 C882 1.362 . S
H884 C890 0.930 . S
H885 C893 0.930 . S
H886 C894 0.930 . S
H887 C895 0.930 . S
H888 C898 0.930 . S
H889 C899 0.930 . S
C890 H884 0.930 . S
C890 C891 1.355 . S
C890 C892 1.415 . S
C891 C890 1.355 . S
C891 C893 1.419 . S
C892 C890 1.415 . S
C892 C897 1.425 . S
C892 C899 1.409 . S
C893 H885 0.930 . S
C893 C891 1.419 . S
C893 C894 1.362 . S
C894 H886 0.930 . S
C894 C893 1.362 . S
C894 C897 1.409 . S
C895 H887 0.930 . S
C895 C896 1.355 . S
C895 C897 1.415 . S
C896 C895 1.355 . S
C896 C898 1.419 . S
C897 C892 1.425 . S
C897 C894 1.409 . S
C897 C895 1.415 . S
C898 H888 0.930 . S
C898 C896 1.419 . S
C898 C899 1.362 . S
C899 H889 0.930 . S
C899 C892 1.409 . S
C899 C898 1.362 . S
H900 C906 0.930 . S
H901 C909 0.930 . S
H902 C910 0.930 . S
H903 C911 0.930 . S
H904 C914 0.930 . S
H905 C915 0.930 . S
C906 H900 0.930 . S
C906 C907 1.355 . S
C906 C908 1.415 . S
C907 C906 1.355 . S
C907 C909 1.419 . S
C908 C906 1.415 . S
C908 C913 1.425 . S
C908 C915 1.409 . S
C909 H901 0.930 . S
C909 C907 1.419 . S
C909 C910 1.362 . S
C910 H902 0.930 . S
C910 C909 1.362 . S
C910 C913 1.409 . S
C911 H903 0.930 . S
C911 C912 1.355 . S
C911 C913 1.415 . S
C912 C911 1.355 . S
C912 C914 1.419 . S
C913 C908 1.425 . S
C913 C910 1.409 . S
C913 C911 1.415 . S
C914 H904 0.930 . S
C914 C912 1.419 . S
C914 C915 1.362 . S
C915 H905 0.930 . S
C915 C908 1.409 . S
C915 C914 1.362 . S
H916 C922 0.930 . S
H917 C925 0.930 . S
H918 C926 0.930 . S
H919 C927 0.930 . S
H920 C930 0.930 . S
H921 C931 0.930 . S
C922 H916 0.930 . S
C922 C923 1.355 . S
C922 C924 1.415 . S
C923 C922 1.355 . S
C923 C925 1.419 . S
C924 C922 1.415 . S
C924 C929 1.425 . S
C924 C931 1.409 . S
C925 H917 0.930 . S
C925 C923 1.419 . S
C925 C926 1.362 . S
C926 H918 0.930 . S
C926 C925 1.362 . S
C926 C929 1.409 . S
C927 H919 0.930 . S
C927 C928 1.355 . S
C927 C929 1.415 . S
C928 C927 1.355 . S
C928 C930 1.419 . S
C929 C924 1.425 . S
C929 C926 1.409 . S
C929 C927 1.415 . S
C930 H920 0.930 . S
C930 C928 1.419 . S
C930 C931 1.362 . S
C931 H921 0.930 . S
C931 C924 1.409 . S
C931 C930 1.362 . S
H932 C938 0.930 . S
H933 C941 0.930 . S
H934 C942 0.930 . S
H935 C943 0.930 . S
H936 C946 0.930 . S
H937 C947 0.930 . S
C938 H932 0.930 . S
C938 C939 1.355 . S
C938 C940 1.415 . S
C939 C938 1.355 . S
C939 C941 1.419 . S
C940 C938 1.415 . S
C940 C945 1.425 . S
C940 C947 1.409 . S
C941 H933 0.930 . S
C941 C939 1.419 . S
C941 C942 1.362 . S
C942 H934 0.930 . S
C942 C941 1.362 . S
C942 C945 1.409 . S
C943 H935 0.930 . S
C943 C944 1.355 . S
C943 C945 1.415 . S
C944 C943 1.355 . S
C944 C946 1.419 . S
C945 C940 1.425 . S
C945 C942 1.409 . S
C945 C943 1.415 . S
C946 H936 0.930 . S
C946 C944 1.419 . S
C946 C947 1.362 . S
C947 H937 0.930 . S
C947 C940 1.409 . S
C947 C946 1.362 . S
H948 C954 0.930 . S
H949 C957 0.930 . S
H950 C958 0.930 . S
H951 C959 0.930 . S
H952 C962 0.930 . S
H953 C963 0.930 . S
C954 H948 0.930 . S
C954 C955 1.355 . S
C954 C956 1.415 . S
C955 C954 1.355 . S
C955 C957 1.419 . S
C956 C954 1.415 . S
C956 C961 1.425 . S
C956 C963 1.409 . S
C957 H949 0.930 . S
C957 C955 1.419 . S
C957 C958 1.362 . S
C958 H950 0.930 . S
C958 C957 1.362 . S
C958 C961 1.409 . S
C959 H951 0.930 . S
C959 C960 1.355 . S
C959 C961 1.415 . S
C960 C959 1.355 . S
C960 C962 1.419 . S
C961 C956 1.425 . S
C961 C958 1.409 . S
C961 C959 1.415 . S
C962 H952 0.930 . S
C962 C960 1.419 . S
C962 C963 1.362 . S
C963 H953 0.930 . S
C963 C956 1.409 . S
C963 C962 1.362 . S
H964 C970 0.930 . S
H965 C973 0.930 . S
H966 C974 0.930 . S
H967 C975 0.930 . S
H968 C978 0.930 . S
H969 C979 0.930 . S
C970 H964 0.930 . S
C970 C971 1.355 . S
C970 C972 1.415 . S
C971 C970 1.355 . S
C971 C973 1.419 . S
C972 C970 1.415 . S
C972 C977 1.425 . S
C972 C979 1.409 . S
C973 H965 0.930 . S
C973 C971 1.419 . S
C973 C974 1.362 . S
C974 H966 0.930 . S
C974 C973 1.362 . S
C974 C977 1.409 . S
C975 H967 0.930 . S
C975 C976 1.355 . S
C975 C977 1.415 . S
C976 C975 1.355 . S
C976 C978 1.419 . S
C977 C972 1.425 . S
C977 C974 1.409 . S
C977 C975 1.415 . S
C978 H968 0.930 . S
C978 C976 1.419 . S
C978 C979 1.362 . S
C979 H969 0.930 . S
C979 C972 1.409 . S
C979 C978 1.362 . S
H980 C986 0.930 . S
H981 C989 0.930 . S
H982 C990 0.930 . S
H983 C991 0.930 . S
H984 C994 0.930 . S
H985 C995 0.930 . S
C986 H980 0.930 . S
C986 C987 1.355 . S
C986 C988 1.415 . S
C987 C986 1.355 . S
C987 C989 1.419 . S
C988 C986 1.415 . S
C988 C993 1.425 . S
C988 C995 1.409 . S
C989 H981 0.930 . S
C989 C987 1.419 . S
C989 C990 1.362 . S
C990 H982 0.930 . S
C990 C989 1.362 . S
C990 C993 1.409 . S
C991 H983 0.930 . S
C991 C992 1.355 . S
C991 C993 1.415 . S
C992 C991 1.355 . S
C992 C994 1.419 . S
C993 C988 1.425 . S
C993 C990 1.409 . S
C993 C991 1.415 . S
C994 H984 0.930 . S
C994 C992 1.419 . S
C994 C995 1.362 . S
C995 H985 0.930 . S
C995 C988 1.409 . S
C995 C994 1.362 . S
H996 C1002 0.930 . S
H997 C1005 0.930 . S
H998 C1006 0.930 . S
H999 C1007 0.930 . S
H1000 C1010 0.930 . S
H1001 C1011 0.930 . S
C1002 H996 0.930 . S
C1002 C1003 1.355 . S
C1002 C1004 1.415 . S
C1003 C1002 1.355 . S
C1003 C1005 1.419 . S
C1004 C1002 1.415 . S
C1004 C1009 1.425 . S
C1004 C1011 1.409 . S
C1005 H997 0.930 . S
C1005 C1003 1.419 . S
C1005 C1006 1.362 . S
C1006 H998 0.930 . S
C1006 C1005 1.362 . S
C1006 C1009 1.409 . S
C1007 H999 0.930 . S
C1007 C1008 1.355 . S
C1007 C1009 1.415 . S
C1008 C1007 1.355 . S
C1008 C1010 1.419 . S
C1009 C1004 1.425 . S
C1009 C1006 1.409 . S
C1009 C1007 1.415 . S
C1010 H1000 0.930 . S
C1010 C1008 1.419 . S
C1010 C1011 1.362 . S
C1011 H1001 0.930 . S
C1011 C1004 1.409 . S
C1011 C1010 1.362 . S
H1012 C1018 0.930 . S
H1013 C1021 0.930 . S
H1014 C1022 0.930 . S
H1015 C1023 0.930 . S
H1016 C1026 0.930 . S
H1017 C1027 0.930 . S
C1018 H1012 0.930 . S
C1018 C1019 1.355 . S
C1018 C1020 1.415 . S
C1019 C1018 1.355 . S
C1019 C1021 1.419 . S
C1020 C1018 1.415 . S
C1020 C1025 1.425 . S
C1020 C1027 1.409 . S
C1021 H1013 0.930 . S
C1021 C1019 1.419 . S
C1021 C1022 1.362 . S
C1022 H1014 0.930 . S
C1022 C1021 1.362 . S
C1022 C1025 1.409 . S
C1023 H1015 0.930 . S
C1023 C1024 1.355 . S
C1023 C1025 1.415 . S
C1024 C1023 1.355 . S
C1024 C1026 1.419 . S
C1025 C1020 1.425 . S
C1025 C1022 1.409 . S
C1025 C1023 1.415 . S
C1026 H1016 0.930 . S
C1026 C1024 1.419 . S
C1026 C1027 1.362 . S
C1027 H1017 0.930 . S
C1027 C1020 1.409 . S
C1027 C1026 1.362 . S
H1028 C1034 0.930 . S
H1029 C1037 0.930 . S
H1030 C1038 0.930 . S
H1031 C1039 0.930 . S
H1032 C1042 0.930 . S
H1033 C1043 0.930 . S
C1034 H1028 0.930 . S
C1034 C1035 1.355 1_554 S
C1034 C1036 1.415 . S
C1035 C1034 1.355 1_556 S
C1035 C1037 1.419 . S
C1036 C1034 1.415 . S
C1036 C1041 1.425 1_554 S
C1036 C1043 1.409 . S
C1037 H1029 0.930 . S
C1037 C1035 1.419 . S
C1037 C1038 1.362 . S
C1038 H1030 0.930 . S
C1038 C1037 1.362 . S
C1038 C1041 1.409 . S
C1039 H1031 0.930 . S
C1039 C1040 1.355 1_556 S
C1039 C1041 1.415 . S
C1040 C1039 1.355 1_554 S
C1040 C1042 1.419 . S
C1041 C1036 1.425 1_556 S
C1041 C1038 1.409 . S
C1041 C1039 1.415 . S
C1042 H1032 0.930 . S
C1042 C1040 1.419 . S
C1042 C1043 1.362 . S
C1043 H1033 0.930 . S
C1043 C1036 1.409 . S
C1043 C1042 1.362 . S
H1044 C1050 0.930 . S
H1045 C1053 0.930 . S
H1046 C1054 0.930 . S
H1047 C1055 0.930 . S
H1048 C1058 0.930 . S
H1049 C1059 0.930 . S
C1050 H1044 0.930 . S
C1050 C1051 1.355 . S
C1050 C1052 1.415 . S
C1051 C1050 1.355 . S
C1051 C1053 1.419 . S
C1052 C1050 1.415 . S
C1052 C1057 1.425 . S
C1052 C1059 1.409 . S
C1053 H1045 0.930 . S
C1053 C1051 1.419 . S
C1053 C1054 1.362 . S
C1054 H1046 0.930 . S
C1054 C1053 1.362 . S
C1054 C1057 1.409 . S
C1055 H1047 0.930 . S
C1055 C1056 1.355 . S
C1055 C1057 1.415 . S
C1056 C1055 1.355 . S
C1056 C1058 1.419 . S
C1057 C1052 1.425 . S
C1057 C1054 1.409 . S
C1057 C1055 1.415 . S
C1058 H1048 0.930 . S
C1058 C1056 1.419 . S
C1058 C1059 1.362 . S
C1059 H1049 0.930 . S
C1059 C1052 1.409 . S
C1059 C1058 1.362 . S
H1060 C1066 0.930 . S
H1061 C1069 0.930 . S
H1062 C1070 0.930 . S
H1063 C1071 0.930 . S
H1064 C1074 0.930 . S
H1065 C1075 0.930 . S
C1066 H1060 0.930 . S
C1066 C1067 1.355 . S
C1066 C1068 1.415 . S
C1067 C1066 1.355 . S
C1067 C1069 1.419 . S
C1068 C1066 1.415 . S
C1068 C1073 1.425 . S
C1068 C1075 1.409 . S
C1069 H1061 0.930 . S
C1069 C1067 1.419 . S
C1069 C1070 1.362 . S
C1070 H1062 0.930 . S
C1070 C1069 1.362 . S
C1070 C1073 1.409 . S
C1071 H1063 0.930 . S
C1071 C1072 1.355 . S
C1071 C1073 1.415 . S
C1072 C1071 1.355 . S
C1072 C1074 1.419 . S
C1073 C1068 1.425 . S
C1073 C1070 1.409 . S
C1073 C1071 1.415 . S
C1074 H1064 0.930 . S
C1074 C1072 1.419 . S
C1074 C1075 1.362 . S
C1075 H1065 0.930 . S
C1075 C1068 1.409 . S
C1075 C1074 1.362 . S
H1076 C1082 0.930 . S
H1077 C1085 0.930 . S
H1078 C1086 0.930 . S
H1079 C1087 0.930 . S
H1080 C1090 0.930 . S
H1081 C1091 0.930 . S
C1082 H1076 0.930 . S
C1082 C1083 1.355 1_554 S
C1082 C1084 1.415 . S
C1083 C1082 1.355 1_556 S
C1083 C1085 1.419 . S
C1084 C1082 1.415 . S
C1084 C1089 1.425 1_554 S
C1084 C1091 1.409 . S
C1085 H1077 0.930 . S
C1085 C1083 1.419 . S
C1085 C1086 1.362 . S
C1086 H1078 0.930 . S
C1086 C1085 1.362 . S
C1086 C1089 1.409 . S
C1087 H1079 0.930 . S
C1087 C1088 1.355 1_556 S
C1087 C1089 1.415 . S
C1088 C1087 1.355 1_554 S
C1088 C1090 1.419 . S
C1089 C1084 1.425 1_556 S
C1089 C1086 1.409 . S
C1089 C1087 1.415 . S
C1090 H1080 0.930 . S
C1090 C1088 1.419 . S
C1090 C1091 1.362 . S
C1091 H1081 0.930 . S
C1091 C1084 1.409 . S
C1091 C1090 1.362 . S
C715 C33 1.595 . S
C720 C564 1.587 . S
C731 C92 1.574 . S
C736 C623 1.580 . S
C747 C151 1.583 . S
C752 C682 1.577 . S
C763 C210 1.567 . S
C768 C387 1.566 . S
C779 C446 1.609 . S
C784 C269 1.600 . S
C795 C505 1.617 . S
C800 C328 1.625 . S
C811 C595 2.031 . S
C816 C5 2.009 . S
C827 C64 2.002 . S
C832 C654 2.017 . S
C843 C123 2.021 . S
C848 C359 2.029 . S
C859 C182 2.002 . S
C864 C418 2.015 . S
C875 C241 2.032 . S
C880 C477 2.014 . S
C891 C300 2.021 . S
C896 C536 2.030 . S
C907 C593 0.938 . S
C912 C3 0.926 . S
C923 C62 0.943 . S
C928 C652 0.933 . S
C939 C121 0.946 . S
C944 C357 0.937 . S
C955 C180 0.887 . S
C960 C416 0.901 . S
C971 C239 0.921 . S
C976 C475 0.906 . S
C987 C298 0.945 . S
C992 C534 0.949 . S
C1003 C52 1.753 . S
C1008 C406 1.760 . S
C1019 C465 1.759 . S
C1024 C111 1.755 . S
C1035 C170 1.727 . S
C1040 C524 1.725 . S
C1051 C229 1.740 . S
C1056 C583 1.724 . S
C1067 C288 1.729 . S
C1072 C642 1.749 . S
C1083 C701 1.754 1_556 S
C1088 C347 1.760 1_554 S
