# Generated by pormake.
# Topology unr, (4)-cn, num edge types: 1
# Building blocks:
#     Node 0, Type 0, BuildingBlock: CEKHIL_clean_sbu_0, # of connection points: 4
#     Node 1, Type 0, BuildingBlock: CEKHIL_clean_sbu_0, # of connection points: 4
#     Node 2, Type 0, BuildingBlock: CEKHIL_clean_sbu_0, # of connection points: 4
#     Node 3, Type 0, BuildingBlock: CEKHIL_clean_sbu_0, # of connection points: 4
#     Node 4, Type 0, BuildingBlock: CEKHIL_clean_sbu_0, # of connection points: 4
#     Node 5, Type 0, BuildingBlock: CEKHIL_clean_sbu_0, # of connection points: 4
#     Node 6, Type 0, BuildingBlock: CEKHIL_clean_sbu_0, # of connection points: 4
#     Node 7, Type 0, BuildingBlock: CEKHIL_clean_sbu_0, # of connection points: 4
#     Node 8, Type 0, BuildingBlock: CEKHIL_clean_sbu_0, # of connection points: 4
#     Node 9, Type 0, BuildingBlock: CEKHIL_clean_sbu_0, # of connection points: 4
#     Node 10, Type 0, BuildingBlock: CEKHIL_clean_sbu_0, # of connection points: 4
#     Node 11, Type 0, BuildingBlock: CEKHIL_clean_sbu_0, # of connection points: 4
#     Node 12, Type 0, BuildingBlock: CEKHIL_clean_sbu_0, # of connection points: 4
#     Node 13, Type 0, BuildingBlock: CEKHIL_clean_sbu_0, # of connection points: 4
#     Node 14, Type 0, BuildingBlock: CEKHIL_clean_sbu_0, # of connection points: 4
#     Node 15, Type 0, BuildingBlock: CEKHIL_clean_sbu_0, # of connection points: 4
#     Node 16, Type 0, BuildingBlock: CEKHIL_clean_sbu_0, # of connection points: 4
#     Node 17, Type 0, BuildingBlock: CEKHIL_clean_sbu_0, # of connection points: 4
#     Node 18, Type 0, BuildingBlock: CEKHIL_clean_sbu_0, # of connection points: 4
#     Node 19, Type 0, BuildingBlock: CEKHIL_clean_sbu_0, # of connection points: 4
#     Node 20, Type 0, BuildingBlock: CEKHIL_clean_sbu_0, # of connection points: 4
#     Node 21, Type 0, BuildingBlock: CEKHIL_clean_sbu_0, # of connection points: 4
#     Node 22, Type 0, BuildingBlock: CEKHIL_clean_sbu_0, # of connection points: 4
#     Node 23, Type 0, BuildingBlock: CEKHIL_clean_sbu_0, # of connection points: 4
#     Node 24, Type 0, BuildingBlock: CEKHIL_clean_sbu_0, # of connection points: 4
#     Node 25, Type 0, BuildingBlock: CEKHIL_clean_sbu_0, # of connection points: 4
#     Node 26, Type 0, BuildingBlock: CEKHIL_clean_sbu_0, # of connection points: 4
#     Node 27, Type 0, BuildingBlock: CEKHIL_clean_sbu_0, # of connection points: 4
#     Node 28, Type 0, BuildingBlock: CEKHIL_clean_sbu_0, # of connection points: 4
#     Node 29, Type 0, BuildingBlock: CEKHIL_clean_sbu_0, # of connection points: 4
#     Node 30, Type 0, BuildingBlock: CEKHIL_clean_sbu_0, # of connection points: 4
#     Node 31, Type 0, BuildingBlock: CEKHIL_clean_sbu_0, # of connection points: 4
#     Node 32, Type 0, BuildingBlock: CEKHIL_clean_sbu_0, # of connection points: 4
#     Node 33, Type 0, BuildingBlock: CEKHIL_clean_sbu_0, # of connection points: 4
#     Node 34, Type 0, BuildingBlock: CEKHIL_clean_sbu_0, # of connection points: 4
#     Node 35, Type 0, BuildingBlock: CEKHIL_clean_sbu_0, # of connection points: 4
#     Edge 36, Type (0, 0), BuildingBlock: MIFKUJ_clean_linker_0, # of connection points: 2
#     Edge 37, Type (0, 0), BuildingBlock: MIFKUJ_clean_linker_0, # of connection points: 2
#     Edge 38, Type (0, 0), BuildingBlock: MIFKUJ_clean_linker_0, # of connection points: 2
#     Edge 39, Type (0, 0), BuildingBlock: MIFKUJ_clean_linker_0, # of connection points: 2
#     Edge 40, Type (0, 0), BuildingBlock: MIFKUJ_clean_linker_0, # of connection points: 2
#     Edge 41, Type (0, 0), BuildingBlock: MIFKUJ_clean_linker_0, # of connection points: 2
#     Edge 42, Type (0, 0), BuildingBlock: MIFKUJ_clean_linker_0, # of connection points: 2
#     Edge 43, Type (0, 0), BuildingBlock: MIFKUJ_clean_linker_0, # of connection points: 2
#     Edge 44, Type (0, 0), BuildingBlock: MIFKUJ_clean_linker_0, # of connection points: 2
#     Edge 45, Type (0, 0), BuildingBlock: MIFKUJ_clean_linker_0, # of connection points: 2
#     Edge 46, Type (0, 0), BuildingBlock: MIFKUJ_clean_linker_0, # of connection points: 2
#     Edge 47, Type (0, 0), BuildingBlock: MIFKUJ_clean_linker_0, # of connection points: 2
#     Edge 48, Type (0, 0), BuildingBlock: MIFKUJ_clean_linker_0, # of connection points: 2
#     Edge 49, Type (0, 0), BuildingBlock: MIFKUJ_clean_linker_0, # of connection points: 2
#     Edge 50, Type (0, 0), BuildingBlock: MIFKUJ_clean_linker_0, # of connection points: 2
#     Edge 51, Type (0, 0), BuildingBlock: MIFKUJ_clean_linker_0, # of connection points: 2
#     Edge 52, Type (0, 0), BuildingBlock: MIFKUJ_clean_linker_0, # of connection points: 2
#     Edge 53, Type (0, 0), BuildingBlock: MIFKUJ_clean_linker_0, # of connection points: 2
#     Edge 54, Type (0, 0), BuildingBlock: MIFKUJ_clean_linker_0, # of connection points: 2
#     Edge 55, Type (0, 0), BuildingBlock: MIFKUJ_clean_linker_0, # of connection points: 2
#     Edge 56, Type (0, 0), BuildingBlock: MIFKUJ_clean_linker_0, # of connection points: 2
#     Edge 57, Type (0, 0), BuildingBlock: MIFKUJ_clean_linker_0, # of connection points: 2
#     Edge 58, Type (0, 0), BuildingBlock: MIFKUJ_clean_linker_0, # of connection points: 2
#     Edge 59, Type (0, 0), BuildingBlock: MIFKUJ_clean_linker_0, # of connection points: 2
#     Edge 60, Type (0, 0), BuildingBlock: MIFKUJ_clean_linker_0, # of connection points: 2
#     Edge 61, Type (0, 0), BuildingBlock: MIFKUJ_clean_linker_0, # of connection points: 2
#     Edge 62, Type (0, 0), BuildingBlock: MIFKUJ_clean_linker_0, # of connection points: 2
#     Edge 63, Type (0, 0), BuildingBlock: MIFKUJ_clean_linker_0, # of connection points: 2
#     Edge 64, Type (0, 0), BuildingBlock: MIFKUJ_clean_linker_0, # of connection points: 2
#     Edge 65, Type (0, 0), BuildingBlock: MIFKUJ_clean_linker_0, # of connection points: 2
#     Edge 66, Type (0, 0), BuildingBlock: MIFKUJ_clean_linker_0, # of connection points: 2
#     Edge 67, Type (0, 0), BuildingBlock: MIFKUJ_clean_linker_0, # of connection points: 2
#     Edge 68, Type (0, 0), BuildingBlock: MIFKUJ_clean_linker_0, # of connection points: 2
#     Edge 69, Type (0, 0), BuildingBlock: MIFKUJ_clean_linker_0, # of connection points: 2
#     Edge 70, Type (0, 0), BuildingBlock: MIFKUJ_clean_linker_0, # of connection points: 2
#     Edge 71, Type (0, 0), BuildingBlock: MIFKUJ_clean_linker_0, # of connection points: 2
#     Edge 72, Type (0, 0), BuildingBlock: MIFKUJ_clean_linker_0, # of connection points: 2
#     Edge 73, Type (0, 0), BuildingBlock: MIFKUJ_clean_linker_0, # of connection points: 2
#     Edge 74, Type (0, 0), BuildingBlock: MIFKUJ_clean_linker_0, # of connection points: 2
#     Edge 75, Type (0, 0), BuildingBlock: MIFKUJ_clean_linker_0, # of connection points: 2
#     Edge 76, Type (0, 0), BuildingBlock: MIFKUJ_clean_linker_0, # of connection points: 2
#     Edge 77, Type (0, 0), BuildingBlock: MIFKUJ_clean_linker_0, # of connection points: 2
#     Edge 78, Type (0, 0), BuildingBlock: MIFKUJ_clean_linker_0, # of connection points: 2
#     Edge 79, Type (0, 0), BuildingBlock: MIFKUJ_clean_linker_0, # of connection points: 2
#     Edge 80, Type (0, 0), BuildingBlock: MIFKUJ_clean_linker_0, # of connection points: 2
#     Edge 81, Type (0, 0), BuildingBlock: MIFKUJ_clean_linker_0, # of connection points: 2
#     Edge 82, Type (0, 0), BuildingBlock: MIFKUJ_clean_linker_0, # of connection points: 2
#     Edge 83, Type (0, 0), BuildingBlock: MIFKUJ_clean_linker_0, # of connection points: 2
#     Edge 84, Type (0, 0), BuildingBlock: MIFKUJ_clean_linker_0, # of connection points: 2
#     Edge 85, Type (0, 0), BuildingBlock: MIFKUJ_clean_linker_0, # of connection points: 2
#     Edge 86, Type (0, 0), BuildingBlock: MIFKUJ_clean_linker_0, # of connection points: 2
#     Edge 87, Type (0, 0), BuildingBlock: MIFKUJ_clean_linker_0, # of connection points: 2
#     Edge 88, Type (0, 0), BuildingBlock: MIFKUJ_clean_linker_0, # of connection points: 2
#     Edge 89, Type (0, 0), BuildingBlock: MIFKUJ_clean_linker_0, # of connection points: 2
#     Edge 90, Type (0, 0), BuildingBlock: MIFKUJ_clean_linker_0, # of connection points: 2
#     Edge 91, Type (0, 0), BuildingBlock: MIFKUJ_clean_linker_0, # of connection points: 2
#     Edge 92, Type (0, 0), BuildingBlock: MIFKUJ_clean_linker_0, # of connection points: 2
#     Edge 93, Type (0, 0), BuildingBlock: MIFKUJ_clean_linker_0, # of connection points: 2
#     Edge 94, Type (0, 0), BuildingBlock: MIFKUJ_clean_linker_0, # of connection points: 2
#     Edge 95, Type (0, 0), BuildingBlock: MIFKUJ_clean_linker_0, # of connection points: 2
#     Edge 96, Type (0, 0), BuildingBlock: MIFKUJ_clean_linker_0, # of connection points: 2
#     Edge 97, Type (0, 0), BuildingBlock: MIFKUJ_clean_linker_0, # of connection points: 2
#     Edge 98, Type (0, 0), BuildingBlock: MIFKUJ_clean_linker_0, # of connection points: 2
#     Edge 99, Type (0, 0), BuildingBlock: MIFKUJ_clean_linker_0, # of connection points: 2
#     Edge 100, Type (0, 0), BuildingBlock: MIFKUJ_clean_linker_0, # of connection points: 2
#     Edge 101, Type (0, 0), BuildingBlock: MIFKUJ_clean_linker_0, # of connection points: 2
#     Edge 102, Type (0, 0), BuildingBlock: MIFKUJ_clean_linker_0, # of connection points: 2
#     Edge 103, Type (0, 0), BuildingBlock: MIFKUJ_clean_linker_0, # of connection points: 2
#     Edge 104, Type (0, 0), BuildingBlock: MIFKUJ_clean_linker_0, # of connection points: 2
#     Edge 105, Type (0, 0), BuildingBlock: MIFKUJ_clean_linker_0, # of connection points: 2
#     Edge 106, Type (0, 0), BuildingBlock: MIFKUJ_clean_linker_0, # of connection points: 2
#     Edge 107, Type (0, 0), BuildingBlock: MIFKUJ_clean_linker_0, # of connection points: 2
# Relax obj value: 0.393
# Max RMSD: 0.180
# Mean RMSD: 0.174
data_MOF--net-unr--node1-CEKHIL_clean_sbu_0--edge1-MIFKUJ_clean_linker_0
_symmetry_space_group_name_H-M    P1
_symmetry_Int_Tables_number       1
_symmetry_cell_setting            triclinic
loop_
_symmetry_equiv_pos_as_xyz
'x, y, z'
_cell_length_a     62.691258
_cell_length_b     62.690719
_cell_length_c     129.01955
_cell_angle_alpha  89.991775
_cell_angle_beta   90.022891
_cell_angle_gamma 120.00208
loop_
_atom_site_label
_atom_site_type_symbol
_atom_site_fract_x
_atom_site_fract_y
_atom_site_fract_z
_atom_type_partial_charge
Co0 Co 0.18786 0.13049 0.17914 0.0
O1 O 0.2137 0.12281 0.17992 0.0
O2 O 0.20411 0.1366 0.16584 0.0
C3 C 0.19681 0.15099 0.19432 0.0
O4 O 0.16249 0.14058 0.17564 0.0
Co5 Co 0.14661 0.11019 0.19586 0.0
O6 O 0.14027 0.13583 0.19002 0.0
C7 C 0.14771 0.07699 0.17986 0.0
C8 C 0.21769 0.12879 0.1702 0.0
C9 C 0.14694 0.14396 0.18084 0.0
O10 O 0.16429 0.09562 0.17485 0.0
O11 O 0.13974 0.07875 0.18879 0.0
O12 O 0.20877 0.16235 0.18598 0.0
O13 O 0.1816 0.12777 0.19327 0.0
Co14 Co 0.85547 0.03927 0.18536 0.0
O15 O 0.86169 0.0715 0.18885 0.0
O16 O 0.85093 0.05458 0.17322 0.0
C17 C 0.83245 0.02076 0.19947 0.0
O18 O 0.84775 0.00643 0.17899 0.0
Co19 Co 0.87373 0.01191 0.19964 0.0
O20 O 0.84879 0.98284 0.19181 0.0
C21 C 0.90906 0.05229 0.18609 0.0
C22 C 0.85736 0.07359 0.17918 0.0
C23 C 0.84346 0.98549 0.18256 0.0
O24 O 0.89125 0.05364 0.18184 0.0
O25 O 0.90609 0.03773 0.19363 0.0
O26 O 0.82236 0.02451 0.19139 0.0
O27 O 0.85594 0.02964 0.19897 0.0
Co28 Co 0.96062 0.80854 0.18667 0.0
O29 O 0.92662 0.78511 0.18891 0.0
O30 O 0.94632 0.79066 0.17398 0.0
C31 C 0.9742 0.79994 0.2014 0.0
O32 O 0.9956 0.83105 0.18156 0.0
Co33 Co 0.98841 0.8518 0.20212 0.0
O34 O 0.01785 0.85623 0.19455 0.0
C35 C 0.95306 0.85271 0.1872 0.0
C36 C 0.92583 0.77942 0.1792 0.0
C37 C 0.01619 0.8476 0.18545 0.0
O38 O 0.95118 0.83366 0.18262 0.0
O39 O 0.96562 0.86175 0.1955 0.0
O40 O 0.97053 0.78653 0.19318 0.0
O41 O 0.96796 0.81659 0.2006 0.0
Co42 Co 0.14434 0.19486 0.31092 0.0
O43 O 0.13802 0.22148 0.30922 0.0
O44 O 0.15141 0.21301 0.32372 0.0
C45 C 0.1644 0.20053 0.29582 0.0
O46 O 0.15312 0.16906 0.31546 0.0
Co47 Co 0.12243 0.15071 0.29571 0.0
O48 O 0.14897 0.14582 0.30157 0.0
C49 C 0.09056 0.15437 0.31164 0.0
C50 C 0.1441 0.22647 0.3189 0.0
C51 C 0.15667 0.15304 0.31074 0.0
O52 O 0.10932 0.17326 0.31555 0.0
O53 O 0.09165 0.14329 0.30348 0.0
O54 O 0.17615 0.21363 0.30388 0.0
O55 O 0.141 0.18619 0.29697 0.0
Co56 Co 0.81456 0.95405 0.31727 0.0
O57 O 0.78864 0.92121 0.31458 0.0
O58 O 0.79646 0.93965 0.32991 0.0
C59 C 0.80765 0.97052 0.30303 0.0
O60 O 0.83965 0.98798 0.32278 0.0
Co61 Co 0.85812 0.98022 0.30186 0.0
O62 O 0.86305 0.01001 0.30933 0.0
C63 C 0.8553 0.94137 0.31576 0.0
C64 C 0.78331 0.92 0.32435 0.0
C65 C 0.85554 0.0085 0.31861 0.0
O66 O 0.83721 0.94097 0.32061 0.0
O67 O 0.8652 0.95462 0.30769 0.0
O68 O 0.79467 0.96728 0.31135 0.0
O69 O 0.82276 0.96224 0.30341 0.0
Co70 Co 0.04776 0.85681 0.31664 0.0
O71 O 0.08146 0.86592 0.31443 0.0
O72 O 0.06236 0.8554 0.32963 0.0
C73 C 0.03271 0.8315 0.30286 0.0
O74 O 0.0131 0.84628 0.3218 0.0
Co75 Co 0.01925 0.86929 0.30029 0.0
O76 O 0.99019 0.84406 0.30801 0.0
C77 C 0.05592 0.90848 0.31393 0.0
C78 C 0.08248 0.86274 0.32431 0.0
C79 C 0.99219 0.83982 0.31751 0.0
O80 O 0.0584 0.89241 0.31916 0.0
O81 O 0.04229 0.90315 0.30584 0.0
O82 O 0.03679 0.82344 0.31149 0.0
O83 O 0.03952 0.85461 0.30265 0.0
Co84 Co 0.80949 0.88498 0.81575 0.0
O85 O 0.7786 0.87612 0.80939 0.0
O86 O 0.78554 0.85138 0.81938 0.0
C87 C 0.81674 0.92174 0.82167 0.0
O88 O 0.83899 0.88809 0.82374 0.0
Co89 Co 0.85747 0.93093 0.80825 0.0
O90 O 0.8711 0.92616 0.82134 0.0
C91 C 0.83594 0.88475 0.79607 0.0
C92 C 0.77027 0.85475 0.81373 0.0
C93 C 0.86099 0.90536 0.82592 0.0
O94 O 0.81936 0.87347 0.80302 0.0
O95 O 0.8519 0.90776 0.79648 0.0
O96 O 0.80313 0.90193 0.82702 0.0
O97 O 0.82392 0.91855 0.81273 0.0
Co98 Co 0.11501 0.94232 0.81485 0.0
O99 O 0.11883 0.91706 0.80824 0.0
O100 O 0.14621 0.94561 0.81878 0.0
C101 C 0.07594 0.91774 0.82025 0.0
O102 O 0.11697 0.97069 0.82337 0.0
Co103 Co 0.07569 0.95506 0.80714 0.0
O104 O 0.08166 0.97103 0.82089 0.0
C105 C 0.1219 0.97229 0.79536 0.0
C106 C 0.13995 0.92649 0.81292 0.0
C107 C 0.10167 0.97791 0.82583 0.0
O108 O 0.13056 0.96426 0.80244 0.0
O109 O 0.10016 0.96931 0.79558 0.0
O110 O 0.09414 0.9192 0.82564 0.0
O111 O 0.08189 0.92918 0.81149 0.0
Co112 Co 0.06258 0.17229 0.82512 0.0
O113 O 0.09279 0.19829 0.81955 0.0
O114 O 0.06055 0.20192 0.824 0.0
C115 C 0.08001 0.15841 0.83654 0.0
O116 O 0.02874 0.14983 0.83137 0.0
Co117 Co 0.04961 0.11772 0.82253 0.0
O118 O 0.02272 0.11136 0.83233 0.0
C119 C 0.04444 0.1443 0.80473 0.0
C120 C 0.0828 0.21204 0.82029 0.0
C121 C 0.01633 0.12727 0.83436 0.0
O122 O 0.04881 0.16249 0.81069 0.0
O123 O 0.04574 0.12556 0.8078 0.0
O124 O 0.07777 0.17734 0.83891 0.0
O125 O 0.07391 0.15021 0.82721 0.0
Co126 Co 0.89092 0.82319 0.67611 0.0
O127 O 0.88742 0.79315 0.68141 0.0
O128 O 0.85776 0.79667 0.67361 0.0
C129 C 0.92749 0.83596 0.66834 0.0
O130 O 0.88831 0.85123 0.66941 0.0
Co131 Co 0.93471 0.87324 0.6835 0.0
O132 O 0.92411 0.88644 0.67186 0.0
C133 C 0.89327 0.84346 0.69762 0.0
C134 C 0.86474 0.78275 0.67827 0.0
C135 C 0.90289 0.87431 0.66767 0.0
O136 O 0.88065 0.82971 0.69 0.0
O137 O 0.91585 0.86041 0.69678 0.0
O138 O 0.90728 0.82054 0.66358 0.0
O139 O 0.92482 0.84123 0.67773 0.0
Co140 Co 0.18272 0.07195 0.67222 0.0
O141 O 0.21417 0.09881 0.67614 0.0
O142 O 0.20809 0.06458 0.6684 0.0
C143 C 0.16775 0.09481 0.66524 0.0
O144 O 0.15309 0.04082 0.66672 0.0
Co145 Co 0.13477 0.06666 0.68186 0.0
O146 O 0.11865 0.04171 0.67074 0.0
C147 C 0.16897 0.05824 0.69455 0.0
C148 C 0.22337 0.08583 0.6725 0.0
C149 C 0.12976 0.03234 0.66591 0.0
O150 O 0.1797 0.0567 0.68632 0.0
O151 O 0.15242 0.06451 0.69442 0.0
O152 O 0.18195 0.08965 0.65971 0.0
O153 O 0.16524 0.08801 0.67478 0.0
Co154 Co 0.92765 0.10529 0.68259 0.0
O155 O 0.90593 0.11316 0.68993 0.0
O156 O 0.93704 0.1393 0.68004 0.0
C157 C 0.8979 0.06929 0.67599 0.0
O158 O 0.95344 0.10324 0.67362 0.0
Co159 Co 0.92967 0.05799 0.68812 0.0
O160 O 0.94755 0.06489 0.67479 0.0
C161 C 0.95398 0.10183 0.70175 0.0
C162 C 0.91854 0.13504 0.68598 0.0
C163 C 0.95789 0.08621 0.67065 0.0
O164 O 0.94968 0.11475 0.6952 0.0
O165 O 0.94612 0.07879 0.70059 0.0
O166 O 0.90346 0.08986 0.67138 0.0
O167 O 0.90885 0.07147 0.68471 0.0
Co168 Co 0.84608 0.46455 0.52117 0.0
O169 O 0.87436 0.46057 0.52111 0.0
O170 O 0.85996 0.47082 0.50741 0.0
C171 C 0.85583 0.48658 0.53596 0.0
O172 O 0.8177 0.47079 0.51838 0.0
Co173 Co 0.80789 0.4427 0.53896 0.0
O174 O 0.79584 0.46393 0.53302 0.0
C175 C 0.80988 0.40982 0.52306 0.0
C176 C 0.87598 0.46559 0.51129 0.0
C177 C 0.80089 0.47176 0.52373 0.0
O178 O 0.82497 0.42864 0.51771 0.0
O179 O 0.80212 0.4115 0.53204 0.0
O180 O 0.86534 0.49753 0.52721 0.0
O181 O 0.84239 0.46292 0.53553 0.0
Co182 Co 0.51216 0.37508 0.51863 0.0
O183 O 0.51873 0.40827 0.51881 0.0
O184 O 0.50752 0.38428 0.50485 0.0
C185 C 0.48902 0.3628 0.53313 0.0
O186 O 0.50395 0.33987 0.51572 0.0
Co187 Co 0.5316 0.35679 0.53683 0.0
O188 O 0.51048 0.3242 0.53028 0.0
C189 C 0.56615 0.39178 0.52148 0.0
C190 C 0.51422 0.40571 0.50894 0.0
C191 C 0.50276 0.32182 0.52096 0.0
O192 O 0.54799 0.38762 0.51555 0.0
O193 O 0.56338 0.3831 0.53068 0.0
O194 O 0.47899 0.36312 0.52435 0.0
O195 O 0.51254 0.37192 0.53293 0.0
Co196 Co 0.61468 0.14178 0.51423 0.0
O197 O 0.58006 0.11959 0.51568 0.0
O198 O 0.6011 0.12648 0.50101 0.0
C199 C 0.62623 0.12976 0.5286 0.0
O200 O 0.65055 0.16357 0.50994 0.0
Co201 Co 0.64248 0.18203 0.53093 0.0
O202 O 0.67181 0.18406 0.5241 0.0
C203 C 0.60971 0.18741 0.51603 0.0
C204 C 0.58004 0.11543 0.50583 0.0
C205 C 0.67094 0.17728 0.51473 0.0
O206 O 0.60758 0.16889 0.5109 0.0
O207 O 0.62147 0.19459 0.52462 0.0
O208 O 0.62214 0.11732 0.52005 0.0
O209 O 0.62109 0.14729 0.52837 0.0
Co210 Co 0.80079 0.51903 0.65118 0.0
O211 O 0.79229 0.54428 0.65104 0.0
O212 O 0.80649 0.5339 0.66479 0.0
C213 C 0.82169 0.53016 0.63611 0.0
O214 O 0.81141 0.49371 0.654 0.0
Co215 Co 0.7814 0.47978 0.63369 0.0
O216 O 0.80669 0.47271 0.63926 0.0
C217 C 0.7475 0.47855 0.6499 0.0
C218 C 0.79794 0.54722 0.6608 0.0
C219 C 0.81467 0.47842 0.64852 0.0
O220 O 0.76589 0.49485 0.65512 0.0
O221 O 0.74964 0.47121 0.64089 0.0
O222 O 0.83272 0.54097 0.64468 0.0
O223 O 0.79849 0.51453 0.63688 0.0
Co224 Co 0.48233 0.29004 0.64796 0.0
O225 O 0.46174 0.25523 0.64632 0.0
O226 O 0.46684 0.27563 0.66104 0.0
C227 C 0.46942 0.29995 0.63338 0.0
O228 O 0.50214 0.32584 0.65251 0.0
Co229 Co 0.52236 0.32085 0.6317 0.0
O230 O 0.52247 0.34904 0.63876 0.0
C231 C 0.52965 0.2885 0.64625 0.0
C232 C 0.45689 0.25471 0.65612 0.0
C233 C 0.51519 0.34689 0.64812 0.0
O234 O 0.51061 0.28488 0.65142 0.0
O235 O 0.53639 0.30087 0.63779 0.0
O236 O 0.45692 0.29578 0.64192 0.0
O237 O 0.48812 0.29665 0.63385 0.0
Co238 Co 0.71913 0.18864 0.64215 0.0
O239 O 0.75181 0.19358 0.64279 0.0
O240 O 0.72616 0.18286 0.65612 0.0
C241 C 0.70834 0.16645 0.62736 0.0
O242 O 0.68412 0.18172 0.64439 0.0
Co243 Co 0.70291 0.20901 0.62363 0.0
O244 O 0.66953 0.18822 0.62954 0.0
C245 C 0.73439 0.24275 0.64022 0.0
C246 C 0.74781 0.18853 0.65259 0.0
C247 C 0.66655 0.18091 0.63892 0.0
O248 O 0.73231 0.22443 0.64551 0.0
O249 O 0.72546 0.24053 0.63109 0.0
O250 O 0.70667 0.15564 0.63618 0.0
O251 O 0.71797 0.19002 0.62777 0.0
Co252 Co 0.48175 0.21687 0.15343 0.0
O253 O 0.45078 0.20736 0.14703 0.0
O254 O 0.46024 0.1817 0.15496 0.0
C255 C 0.48514 0.24981 0.16186 0.0
O256 O 0.51184 0.22031 0.16099 0.0
Co257 Co 0.52753 0.26745 0.14826 0.0
O258 O 0.54222 0.25982 0.16029 0.0
C259 C 0.51026 0.22651 0.13326 0.0
C260 C 0.44435 0.18504 0.14977 0.0
C261 C 0.5332 0.23792 0.16372 0.0
O262 O 0.49427 0.21177 0.13984 0.0
O263 O 0.52422 0.24961 0.13491 0.0
O264 O 0.47248 0.22803 0.16595 0.0
O265 O 0.49349 0.25065 0.15265 0.0
Co266 Co 0.79564 0.28388 0.15625 0.0
O267 O 0.79818 0.25629 0.15156 0.0
O268 O 0.82761 0.28864 0.15989 0.0
C269 C 0.75798 0.26157 0.16322 0.0
O270 O 0.79933 0.31532 0.16255 0.0
Co271 Co 0.75513 0.29366 0.1477 0.0
O272 O 0.76385 0.31536 0.16002 0.0
C273 C 0.79868 0.3054 0.13483 0.0
C274 C 0.82021 0.26742 0.15546 0.0
C275 C 0.78468 0.32363 0.16443 0.0
O276 O 0.80861 0.30045 0.14249 0.0
O277 O 0.777 0.30261 0.13518 0.0
O278 O 0.77729 0.26572 0.16853 0.0
O279 O 0.76182 0.26937 0.15377 0.0
Co280 Co 0.72314 0.51583 0.1516 0.0
O281 O 0.75016 0.54691 0.14741 0.0
O282 O 0.71493 0.54133 0.15388 0.0
C283 C 0.74585 0.50336 0.16051 0.0
O284 O 0.69154 0.48673 0.15704 0.0
Co285 Co 0.71979 0.467 0.14448 0.0
O286 O 0.69488 0.45277 0.15573 0.0
C287 C 0.70844 0.49604 0.12971 0.0
C288 C 0.73677 0.55634 0.15023 0.0
C289 C 0.68403 0.46399 0.1591 0.0
O290 O 0.70941 0.51022 0.13712 0.0
O291 O 0.71377 0.47894 0.13092 0.0
O292 O 0.73911 0.51772 0.1649 0.0
O293 O 0.74041 0.49877 0.15082 0.0
Co294 Co 0.54926 0.15425 0.0104 0.0
O295 O 0.54683 0.12582 0.01704 0.0
O296 O 0.51546 0.1276 0.00997 0.0
C297 C 0.58312 0.16317 0.00107 0.0
O298 O 0.54502 0.18037 0.0028 0.0
Co299 Co 0.59521 0.20581 0.01384 0.0
O300 O 0.58171 0.2152 0.00188 0.0
C301 C 0.55829 0.18224 0.03053 0.0
C302 C 0.52348 0.11496 0.01496 0.0
C303 C 0.5591 0.20231 0.99934 0.0
O304 O 0.54353 0.16558 0.02417 0.0
O305 O 0.5803 0.19868 0.0281 0.0
O306 O 0.56148 0.14705 0.99761 0.0
O307 O 0.58352 0.17188 0.01016 0.0
Co308 Co 0.83342 0.36687 0.01044 0.0
O309 O 0.86034 0.39713 0.0155 0.0
O310 O 0.86408 0.36832 0.00703 0.0
C311 C 0.81179 0.38298 0.00331 0.0
O312 O 0.80976 0.33358 0.00392 0.0
Co313 Co 0.78093 0.3486 0.01955 0.0
O314 O 0.7712 0.32191 0.0093 0.0
C315 C 0.81828 0.34525 0.03211 0.0
C316 C 0.87454 0.38942 0.01181 0.0
C317 C 0.78636 0.31854 0.00396 0.0
O318 O 0.83252 0.35104 0.02418 0.0
O319 O 0.7978 0.34511 0.03206 0.0
O320 O 0.82998 0.38361 0.99823 0.0
O321 O 0.80915 0.37523 0.01274 0.0
Co322 Co 0.58878 0.4484 0.00964 0.0
O323 O 0.56775 0.46194 0.01166 0.0
O324 O 0.60632 0.48286 0.00586 0.0
C325 C 0.56094 0.41372 0.00158 0.0
O326 O 0.6155 0.4402 0.00622 0.0
Co327 Co 0.57641 0.399 0.02015 0.0
O328 O 0.6017 0.40063 0.01038 0.0
C329 C 0.59724 0.44441 0.03263 0.0
C330 C 0.58615 0.48258 0.00848 0.0
C331 C 0.61737 0.42069 0.00604 0.0
O332 O 0.60103 0.45716 0.02432 0.0
O333 O 0.58586 0.42082 0.03269 0.0
O334 O 0.57313 0.43404 0.99634 0.0
O335 O 0.56417 0.41568 0.01148 0.0
Co336 Co 0.51735 0.8113 0.85321 0.0
O337 O 0.54435 0.80522 0.85379 0.0
O338 O 0.53125 0.81488 0.83952 0.0
C339 C 0.52791 0.8355 0.86735 0.0
O340 O 0.49028 0.81917 0.8498 0.0
Co341 Co 0.47913 0.7928 0.87112 0.0
O342 O 0.46879 0.81462 0.86439 0.0
C343 C 0.47811 0.75738 0.85582 0.0
C344 C 0.54634 0.80896 0.84386 0.0
C345 C 0.47396 0.82144 0.85497 0.0
O346 O 0.49437 0.77535 0.8504 0.0
O347 O 0.47076 0.76031 0.86469 0.0
O348 O 0.53826 0.8448 0.85849 0.0
O349 O 0.5136 0.81191 0.86751 0.0
Co350 Co 0.18555 0.71112 0.85417 0.0
O351 O 0.18755 0.74241 0.85509 0.0
O352 O 0.17792 0.71974 0.84081 0.0
C353 C 0.16424 0.69646 0.86904 0.0
O354 O 0.18133 0.67758 0.85061 0.0
Co355 Co 0.21037 0.69606 0.8713 0.0
O356 O 0.1913 0.66319 0.86468 0.0
C357 C 0.24081 0.73358 0.85577 0.0
C358 C 0.1818 0.73994 0.84534 0.0
C359 C 0.18258 0.66037 0.85553 0.0
O360 O 0.22146 0.72786 0.85036 0.0
O361 O 0.24006 0.72469 0.86479 0.0
O362 O 0.15267 0.69521 0.8605 0.0
O363 O 0.18792 0.70791 0.86838 0.0
Co364 Co 0.28704 0.47533 0.85067 0.0
O365 O 0.25431 0.44781 0.85108 0.0
O366 O 0.2779 0.46065 0.83703 0.0
C367 C 0.29997 0.46585 0.86537 0.0
O368 O 0.32201 0.50262 0.84751 0.0
Co369 Co 0.30582 0.51444 0.86825 0.0
O370 O 0.33835 0.52328 0.8623 0.0
C371 C 0.27301 0.51534 0.85202 0.0
C372 C 0.25694 0.44516 0.84128 0.0
C373 C 0.34049 0.51834 0.85291 0.0
O374 O 0.27375 0.49784 0.84714 0.0
O375 O 0.2834 0.52354 0.86081 0.0
O376 O 0.29987 0.4552 0.85671 0.0
O377 O 0.29038 0.47985 0.86497 0.0
Co378 Co 0.47632 0.86137 0.9809 0.0
O379 O 0.46941 0.88788 0.98107 0.0
O380 O 0.47831 0.87283 0.99493 0.0
C381 C 0.50193 0.87474 0.96719 0.0
O382 O 0.48464 0.83445 0.98374 0.0
Co383 Co 0.46112 0.82612 0.96189 0.0
O384 O 0.47978 0.81276 0.96919 0.0
C385 C 0.42331 0.82219 0.97663 0.0
C386 C 0.47243 0.88835 0.99105 0.0
C387 C 0.4862 0.81763 0.97866 0.0
O388 O 0.44027 0.83711 0.98284 0.0
O389 O 0.42778 0.8172 0.96754 0.0
O390 O 0.51024 0.88387 0.97633 0.0
O391 O 0.47853 0.8599 0.96654 0.0
Co392 Co 0.13877 0.60995 0.98326 0.0
O393 O 0.1115 0.57723 0.98212 0.0
O394 O 0.12422 0.59837 0.99679 0.0
C395 C 0.12886 0.62518 0.96944 0.0
O396 O 0.16613 0.64439 0.98714 0.0
Co397 Co 0.17713 0.63057 0.96529 0.0
O398 O 0.18776 0.66215 0.97264 0.0
C399 C 0.17575 0.59309 0.97947 0.0
C400 C 0.10892 0.57802 0.99206 0.0
C401 C 0.18247 0.66323 0.98209 0.0
O402 O 0.16139 0.59626 0.98559 0.0
O403 O 0.18223 0.60324 0.97053 0.0
O404 O 0.1183 0.62349 0.97831 0.0
O405 O 0.14288 0.61564 0.96908 0.0
Co406 Co 0.38478 0.5298 0.98098 0.0
O407 O 0.41933 0.54136 0.98141 0.0
O408 O 0.39357 0.52401 0.99464 0.0
C409 C 0.3778 0.51032 0.96561 0.0
O410 O 0.34801 0.51589 0.98323 0.0
Co411 Co 0.36372 0.54788 0.96339 0.0
O412 O 0.33171 0.52106 0.96858 0.0
C413 C 0.39195 0.58137 0.98056 0.0
C414 C 0.41596 0.53466 0.99106 0.0
C415 C 0.32941 0.51226 0.97769 0.0
O416 O 0.39179 0.5634 0.98541 0.0
O417 O 0.3832 0.57936 0.97141 0.0
O418 O 0.37833 0.49925 0.97405 0.0
O419 O 0.3834 0.53298 0.9667 0.0
Co420 Co 0.14472 0.55097 0.48579 0.0
O421 O 0.11424 0.54501 0.47993 0.0
O422 O 0.11914 0.51795 0.48926 0.0
C423 C 0.15621 0.58858 0.4922 0.0
O424 O 0.17361 0.55125 0.4932 0.0
Co425 Co 0.19404 0.59463 0.47767 0.0
O426 O 0.20667 0.58894 0.49088 0.0
C427 C 0.16485 0.55063 0.46463 0.0
C428 C 0.10473 0.5231 0.48387 0.0
C429 C 0.19562 0.56823 0.49551 0.0
O430 O 0.15185 0.53879 0.47254 0.0
O431 O 0.18125 0.57352 0.46493 0.0
O432 O 0.14121 0.56908 0.49747 0.0
O433 O 0.16164 0.58449 0.48306 0.0
Co434 Co 0.46148 0.62352 0.48704 0.0
O435 O 0.4588 0.59505 0.48029 0.0
O436 O 0.49005 0.62075 0.49023 0.0
C437 C 0.42266 0.60504 0.49314 0.0
O438 O 0.46994 0.65406 0.49564 0.0
Co439 Co 0.42875 0.64536 0.48011 0.0
O440 O 0.43873 0.66181 0.49379 0.0
C441 C 0.4719 0.65449 0.46752 0.0
C442 C 0.47987 0.60102 0.4845 0.0
C443 C 0.45803 0.6649 0.4984 0.0
O444 O 0.47844 0.64404 0.47442 0.0
O445 O 0.45211 0.65564 0.46811 0.0
O446 O 0.4395 0.60295 0.49817 0.0
O447 O 0.42935 0.61609 0.48431 0.0
Co448 Co 0.40043 0.84606 0.49204 0.0
O449 O 0.42571 0.87772 0.48749 0.0
O450 O 0.38871 0.86931 0.49289 0.0
C451 C 0.42476 0.83804 0.50217 0.0
O452 O 0.37004 0.81563 0.4976 0.0
Co453 Co 0.40335 0.79942 0.48658 0.0
O454 O 0.37649 0.78348 0.49693 0.0
C455 C 0.38957 0.82366 0.47042 0.0
C456 C 0.41025 0.88533 0.48926 0.0
C457 C 0.36382 0.79322 0.4998 0.0
O458 O 0.38811 0.83766 0.47734 0.0
O459 O 0.39706 0.80847 0.47243 0.0
O460 O 0.41564 0.85116 0.50576 0.0
O461 O 0.4206 0.83212 0.49251 0.0
Co462 Co 0.20034 0.48398 0.34533 0.0
O463 O 0.19098 0.45262 0.35126 0.0
O464 O 0.16805 0.45993 0.34027 0.0
C465 C 0.23896 0.49376 0.34096 0.0
O466 O 0.20453 0.51414 0.33752 0.0
Co467 Co 0.24315 0.53143 0.35521 0.0
O468 O 0.24127 0.54631 0.34194 0.0
C469 C 0.19446 0.50578 0.36539 0.0
C470 C 0.17056 0.44442 0.34614 0.0
C471 C 0.22208 0.5365 0.33625 0.0
O472 O 0.18518 0.49132 0.35757 0.0
O473 O 0.21733 0.52193 0.36618 0.0
O474 O 0.2207 0.47989 0.33486 0.0
O475 O 0.23294 0.49906 0.34974 0.0
Co476 Co 0.51909 0.72798 0.34314 0.0
O477 O 0.55295 0.75201 0.34506 0.0
O478 O 0.5391 0.71303 0.34046 0.0
C479 C 0.50851 0.75159 0.33383 0.0
O480 O 0.48533 0.6984 0.34019 0.0
Co481 Co 0.47897 0.73731 0.35266 0.0
O482 O 0.45664 0.70884 0.34382 0.0
C483 C 0.50891 0.72491 0.36625 0.0
C484 C 0.55757 0.73455 0.34285 0.0
C485 C 0.46297 0.69407 0.33998 0.0
O486 O 0.517 0.71897 0.35824 0.0
O487 O 0.49524 0.73467 0.36563 0.0
O488 O 0.51871 0.74045 0.32926 0.0
O489 O 0.50764 0.75021 0.34381 0.0
Co490 Co 0.27274 0.78156 0.34822 0.0
O491 O 0.24835 0.78802 0.35397 0.0
O492 O 0.28232 0.81563 0.34594 0.0
C493 C 0.24614 0.74618 0.34013 0.0
O494 O 0.30158 0.78144 0.34099 0.0
Co495 Co 0.2748 0.7345 0.35408 0.0
O496 O 0.29444 0.74254 0.34112 0.0
C497 C 0.29396 0.7766 0.36869 0.0
C498 C 0.26186 0.81039 0.3506 0.0
C499 C 0.30593 0.76458 0.33775 0.0
O500 O 0.29061 0.78979 0.36194 0.0
O501 O 0.28752 0.75395 0.36721 0.0
O502 O 0.25254 0.76722 0.33576 0.0
O503 O 0.25421 0.7474 0.34943 0.0
H504 H 0.14007 0.18268 0.18527 0.0
H505 H 0.10265 0.18396 0.18096 0.0
H506 H 0.07911 0.12044 0.16121 0.0
H507 H 0.11743 0.12088 0.16468 0.0
H508 H 0.05375 0.13979 0.15601 0.0
H509 H 0.07342 0.11691 0.18981 0.0
H510 H 0.09832 0.12631 0.20576 0.0
H511 H 0.08411 0.18502 0.21283 0.0
H512 H 0.05928 0.17603 0.19686 0.0
H513 H 0.94884 0.04591 0.18767 0.0
H514 H 0.99126 0.07481 0.18262 0.0
H515 H 0.96914 0.12562 0.17136 0.0
H516 H 0.92635 0.0964 0.17609 0.0
H517 H 0.01657 0.12552 0.19107 0.0
H518 H 0.99268 0.14185 0.15511 0.0
H519 H 0.96665 0.1245 0.13954 0.0
H520 H 0.98735 0.06885 0.13759 0.0
H521 H 0.01324 0.08575 0.15323 0.0
C522 C 0.12755 0.17006 0.1795 0.0
C523 C 0.1313 0.15151 0.17537 0.0
C524 C 0.10605 0.17058 0.17712 0.0
C525 C 0.08743 0.15147 0.17121 0.0
C526 C 0.09292 0.13519 0.16592 0.0
C527 C 0.11489 0.1354 0.16792 0.0
C528 C 0.06115 0.14456 0.17245 0.0
C529 C 0.04574 0.13726 0.16368 0.0
C530 C 0.05036 0.14093 0.18244 0.0
C531 C 0.0648 0.14601 0.19212 0.0
C532 C 0.07564 0.13182 0.19478 0.0
C533 C 0.08975 0.13709 0.20381 0.0
C534 C 0.09286 0.15631 0.21029 0.0
C535 C 0.08174 0.17019 0.20778 0.0
C536 C 0.06766 0.16502 0.19875 0.0
C537 C 0.95291 0.06308 0.18399 0.0
C538 C 0.9343 0.06892 0.18231 0.0
C539 C 0.97711 0.07952 0.18108 0.0
C540 C 0.98323 0.1022 0.17652 0.0
C541 C 0.96468 0.10798 0.17464 0.0
C542 C 0.94031 0.09132 0.17741 0.0
C543 C 0.00946 0.12027 0.1747 0.0
C544 C 0.02476 0.1294 0.18339 0.0
C545 C 0.02 0.12492 0.16471 0.0
C546 C 0.00458 0.11485 0.15535 0.0
C547 C 0.99148 0.1258 0.15139 0.0
C548 C 0.9768 0.11608 0.14256 0.0
C549 C 0.97529 0.09554 0.1376 0.0
C550 C 0.98849 0.08471 0.14145 0.0
C551 C 0.00314 0.09434 0.1503 0.0
H552 H 0.96394 0.08805 0.13076 0.0
H553 H 0.10384 0.16041 0.21726 0.0
H554 H 0.80798 0.93686 0.18269 0.0
H555 H 0.81569 0.90413 0.17692 0.0
H556 H 0.88259 0.95846 0.16197 0.0
H557 H 0.87351 0.99053 0.16679 0.0
H558 H 0.87311 0.91667 0.15483 0.0
H559 H 0.87816 0.94848 0.19039 0.0
H560 H 0.8603 0.95556 0.20619 0.0
H561 H 0.80823 0.87813 0.20824 0.0
H562 H 0.82589 0.87064 0.19248 0.0
H563 H 0.95546 0.89559 0.19328 0.0
H564 H 0.92947 0.912 0.18756 0.0
H565 H 0.89309 0.85225 0.16575 0.0
H566 H 0.91918 0.83564 0.17139 0.0
H567 H 0.87989 0.88757 0.18979 0.0
H568 H 0.87356 0.87284 0.14615 0.0
H569 H 0.89914 0.87228 0.1317 0.0
H570 H 0.96454 0.92579 0.14747 0.0
H571 H 0.93937 0.92641 0.16203 0.0
C572 C 0.82331 0.94145 0.17753 0.0
C573 C 0.84037 0.96614 0.1753 0.0
C574 C 0.82795 0.92282 0.17435 0.0
C575 C 0.85049 0.92904 0.16956 0.0
C576 C 0.8653 0.95314 0.16584 0.0
C577 C 0.86005 0.97157 0.16859 0.0
C578 C 0.8617 0.91312 0.17083 0.0
C579 C 0.87413 0.90985 0.16243 0.0
C580 C 0.86368 0.90461 0.18079 0.0
C581 C 0.8531 0.90906 0.19024 0.0
C582 C 0.86287 0.93301 0.19422 0.0
C583 C 0.8528 0.93709 0.20316 0.0
C584 C 0.83306 0.91733 0.20818 0.0
C585 C 0.82346 0.89342 0.20432 0.0
C586 C 0.83351 0.88924 0.19541 0.0
C587 C 0.94211 0.88599 0.18721 0.0
C588 C 0.93917 0.86409 0.18291 0.0
C589 C 0.92728 0.89542 0.18394 0.0
C590 C 0.90925 0.88321 0.1763 0.0
C591 C 0.90697 0.86198 0.17163 0.0
C592 C 0.92186 0.8525 0.1749 0.0
C593 C 0.89177 0.8919 0.17391 0.0
C594 C 0.87813 0.89362 0.18211 0.0
C595 C 0.88949 0.89972 0.16391 0.0
C596 C 0.90462 0.89956 0.15516 0.0
C597 C 0.8934 0.88448 0.1465 0.0
C598 C 0.90783 0.88409 0.13832 0.0
C599 C 0.93346 0.89891 0.13868 0.0
C600 C 0.94472 0.91417 0.14723 0.0
C601 C 0.93039 0.91449 0.15546 0.0
H602 H 0.9446 0.89861 0.13234 0.0
H603 H 0.82525 0.92053 0.21508 0.0
H604 H 0.12572 0.03302 0.18993 0.0
H605 H 0.11023 0.99211 0.18251 0.0
H606 H 0.13122 0.02362 0.15195 0.0
H607 H 0.14759 0.06506 0.15937 0.0
H608 H 0.07364 0.9758 0.16089 0.0
H609 H 0.15766 0.00344 0.15083 0.0
H610 H 0.20259 0.02722 0.15359 0.0
H611 H 0.19476 0.98632 0.18141 0.0
H612 H 0.14972 0.96262 0.17891 0.0
H613 H 0.01654 0.85058 0.16423 0.0
H614 H 0.04696 0.88596 0.1543 0.0
H615 H 0.09394 0.91228 0.18125 0.0
H616 H 0.06421 0.87676 0.19104 0.0
H617 H 0.12094 0.93213 0.16452 0.0
H618 H 0.04224 0.92206 0.1787 0.0
H619 H 0.99682 0.90075 0.17935 0.0
H620 H 0.9942 0.9092 0.14642 0.0
H621 H 0.03965 0.93069 0.14562 0.0
C622 C 0.12709 0.03135 0.18163 0.0
C623 C 0.13784 0.05226 0.17524 0.0
C624 C 0.11835 0.00799 0.17742 0.0
C625 C 0.11987 0.00501 0.16673 0.0
C626 C 0.13023 0.0257 0.16024 0.0
C627 C 0.13946 0.04926 0.16449 0.0
C628 C 0.10956 0.97979 0.16265 0.0
C629 C 0.08406 0.96623 0.16116 0.0
C630 C 0.12322 0.9675 0.16323 0.0
C631 C 0.15031 0.98137 0.16471 0.0
C632 C 0.1655 -0.00033 0.15758 0.0
C633 C 0.19099 0.0131 0.15909 0.0
C634 C 0.20152 0.0083 0.16768 0.0
C635 C 0.18658 0.99001 0.17476 0.0
C636 C 0.16107 0.97655 0.17329 0.0
C637 C 0.03394 0.86319 0.16788 0.0
C638 C 0.0376 0.86146 0.17854 0.0
C639 C 0.05128 0.88352 0.16219 0.0
C640 C 0.07221 0.9023 0.16716 0.0
C641 C 0.07775 0.89827 0.17726 0.0
C642 C 0.06059 0.87795 0.18291 0.0
C643 C 0.08479 0.92798 0.16322 0.0
C644 C 0.11065 0.94164 0.1634 0.0
C645 C 0.07142 0.94048 0.16163 0.0
C646 C 0.04419 0.9277 0.16208 0.0
C647 C 0.03191 0.91933 0.17161 0.0
C648 C 0.00619 0.90724 0.17201 0.0
C649 C 0.99259 0.90358 0.16293 0.0
C650 C 0.00473 0.91206 0.15344 0.0
C651 C 0.03046 0.92421 0.15301 0.0
H652 H 0.97268 0.89424 0.16325 0.0
H653 H 0.22126 0.01873 0.16884 0.0
H654 H 0.18966 0.13853 0.30563 0.0
H655 H 0.18561 0.09927 0.31102 0.0
H656 H 0.13134 0.09063 0.33372 0.0
H657 H 0.13682 0.13062 0.32891 0.0
H658 H 0.14785 0.06047 0.33851 0.0
H659 H 0.11602 0.07933 0.30712 0.0
H660 H 0.12055 0.10066 0.29047 0.0
H661 H 0.16618 0.07286 0.27887 0.0
H662 H 0.1621 0.05165 0.29546 0.0
H663 H 0.04618 0.94514 0.3094 0.0
H664 H 0.07205 0.98898 0.31291 0.0
H665 H 0.1245 0.97507 0.32878 0.0
H666 H 0.09821 0.93084 0.32553 0.0
H667 H 0.11586 0.01621 0.30521 0.0
H668 H 0.15866 0.02534 0.34561 0.0
H669 H 0.14854 0.00341 0.36237 0.0
H670 H 0.07138 0.97327 0.3563 0.0
H671 H 0.08106 0.99526 0.33958 0.0
C672 C 0.17815 0.12898 0.31224 0.0
C673 C 0.16321 0.13725 0.31675 0.0
C674 C 0.17567 0.10645 0.31527 0.0
C675 C 0.15727 0.09149 0.32241 0.0
C676 C 0.14537 0.10164 0.32808 0.0
C677 C 0.14853 0.12459 0.32532 0.0
C678 C 0.14589 0.06428 0.32199 0.0
C679 C 0.14118 0.05073 0.33122 0.0
C680 C 0.13662 0.05147 0.31251 0.0
C681 C 0.13903 0.06421 0.30254 0.0
C682 C 0.12711 0.07791 0.30102 0.0
C683 C 0.12963 0.09 0.2916 0.0
C684 C 0.14383 0.08832 0.28364 0.0
C685 C 0.15537 0.07437 0.28505 0.0
C686 C 0.15296 0.0623 0.29446 0.0
C687 C 0.06305 0.95134 0.31375 0.0
C688 C 0.07028 0.93459 0.31709 0.0
C689 C 0.07783 0.9764 0.31576 0.0
C690 C 0.1003 0.98534 0.32104 0.0
C691 C 0.10715 0.96858 0.32476 0.0
C692 C 0.09214 0.94334 0.32287 0.0
C693 C 0.11718 0.01231 0.32174 0.0
C694 C 0.123 0.0258 0.3125 0.0
C695 C 0.12667 0.02486 0.33124 0.0
C696 C 0.1206 0.01168 0.34129 0.0
C697 C 0.13955 0.01406 0.34787 0.0
C698 C 0.13389 0.00162 0.35736 0.0
C699 C 0.10933 0.98687 0.36037 0.0
C700 C 0.09039 0.9846 0.35393 0.0
C701 C 0.09595 0.99701 0.34444 0.0
H702 H 0.10499 0.97726 0.36772 0.0
H703 H 0.14578 0.09771 0.27636 0.0
H704 H 0.86181 0.05469 0.31731 0.0
H705 H 0.89953 0.09199 0.32261 0.0
H706 H 0.92359 0.04711 0.33851 0.0
H707 H 0.88503 0.01032 0.33407 0.0
H708 H 0.94948 0.09055 0.34557 0.0
H709 H 0.92824 0.05621 0.31051 0.0
H710 H 0.90316 0.04401 0.29454 0.0
H711 H 0.917 0.11795 0.29085 0.0
H712 H 0.94202 0.1305 0.30685 0.0
H713 H 0.05223 0.10733 0.31239 0.0
H714 H 0.0109 0.0932 0.31924 0.0
H715 H 0.03244 0.16747 0.32833 0.0
H716 H 0.07427 0.18163 0.3219 0.0
H717 H 0.98481 0.12264 0.31081 0.0
H718 H 0.01593 0.1555 0.34584 0.0
H719 H 0.04302 0.1614 0.36074 0.0
H720 H 0.01225 0.08311 0.36322 0.0
H721 H 0.98528 0.07682 0.34821 0.0
C722 C 0.87447 0.05306 0.32253 0.0
C723 C 0.8708 0.02979 0.32523 0.0
C724 C 0.89617 0.07432 0.32545 0.0
C725 C 0.91499 0.07228 0.33048 0.0
C726 C 0.90961 0.04926 0.33449 0.0
C727 C 0.88747 0.02814 0.33196 0.0
C728 C 0.94125 0.09189 0.32942 0.0
C729 C 0.95711 0.09795 0.338 0.0
C730 C 0.9515 0.10162 0.31954 0.0
C731 C 0.93666 0.09419 0.30991 0.0
C732 C 0.92585 0.06982 0.30629 0.0
C733 C 0.91166 0.06284 0.29725 0.0
C734 C 0.90841 0.08017 0.2917 0.0
C735 C 0.91946 0.10454 0.29517 0.0
C736 C 0.93364 0.11159 0.30422 0.0
C737 C 0.04829 0.12055 0.31603 0.0
C738 C 0.06637 0.14554 0.31659 0.0
C739 C 0.02479 0.11246 0.31999 0.0
C740 C 0.01882 0.12924 0.32443 0.0
C741 C 0.0369 0.15416 0.32518 0.0
C742 C 0.06069 0.16221 0.32144 0.0
C743 C 0.99278 0.1207 0.32687 0.0
C744 C 0.97701 0.1164 0.31848 0.0
C745 C 0.98281 0.11203 0.3368 0.0
C746 C -0.00114 0.11573 0.34583 0.0
C747 C 0.01518 0.13958 0.34948 0.0
C748 C 0.03045 0.14299 0.35797 0.0
C749 C 0.02942 0.12265 0.3629 0.0
C750 C 0.01307 0.09885 0.35938 0.0
C751 C 0.99778 0.09536 0.35089 0.0
H752 H 0.04125 0.12532 0.36947 0.0
H753 H 0.8974 0.07474 0.28471 0.0
H754 H 0.89671 0.94102 0.30948 0.0
H755 H 0.90983 0.9118 0.3143 0.0
H756 H 0.84784 0.87505 0.33501 0.0
H757 H 0.8346 0.90455 0.33033 0.0
H758 H 0.89 0.87781 0.34321 0.0
H759 H 0.84272 0.84849 0.31278 0.0
H760 H 0.82807 0.85082 0.2953 0.0
H761 H 0.89957 0.87291 0.28273 0.0
H762 H 0.91478 0.87112 0.30015 0.0
H763 H 0.94505 0.80248 0.31482 0.0
H764 H 0.90868 0.804 0.32053 0.0
H765 H 0.95523 0.86792 0.33919 0.0
H766 H 0.99089 0.8649 0.33421 0.0
H767 H 0.90456 0.83715 0.31327 0.0
H768 H 0.92789 0.88992 0.35333 0.0
H769 H 0.93828 0.88401 0.37112 0.0
H770 H 0.90692 0.80655 0.36547 0.0
H771 H 0.89596 0.81187 0.34769 0.0
C772 C 0.8859 0.92688 0.31512 0.0
C773 C 0.86443 0.92499 0.31942 0.0
C774 C 0.89343 0.91016 0.31786 0.0
C775 C 0.87953 0.891 0.32486 0.0
C776 C 0.85873 0.88965 0.32956 0.0
C777 C 0.8512 0.9065 0.32685 0.0
C778 C 0.88642 0.87191 0.32673 0.0
C779 C 0.89307 0.86864 0.33674 0.0
C780 C 0.88897 0.85888 0.31835 0.0
C781 C 0.8799 0.85971 0.30779 0.0
C782 C 0.85536 0.85396 0.30629 0.0
C783 C 0.84695 0.85519 0.2964 0.0
C784 C 0.86288 0.86201 0.28791 0.0
C785 C 0.88724 0.8676 0.28931 0.0
C786 C 0.89575 0.86644 0.29919 0.0
C787 C 0.94714 0.81577 0.32068 0.0
C788 C 0.97067 0.83368 0.32403 0.0
C789 C 0.9264 0.81683 0.32388 0.0
C790 C 0.92907 0.83645 0.33011 0.0
C791 C 0.95229 0.85236 0.3345 0.0
C792 C 0.97287 0.85071 0.33161 0.0
C793 C 0.91015 0.84423 0.32974 0.0
C794 C 0.90103 0.84547 0.31993 0.0
C795 C 0.90468 0.85464 0.33839 0.0
C796 C 0.91113 0.85133 0.34913 0.0
C797 C 0.923 0.87158 0.35589 0.0
C798 C 0.92905 0.86834 0.36598 0.0
C799 C 0.92329 0.84492 0.36942 0.0
C800 C 0.91143 0.82469 0.36278 0.0
C801 C 0.90534 0.82782 0.35269 0.0
H802 H 0.92799 0.84246 0.37723 0.0
H803 H 0.85634 0.86296 0.28026 0.0
H804 H 0.90647 0.93787 0.83355 0.0
H805 H 0.93729 0.928 0.83939 0.0
H806 H 0.88277 0.85067 0.83964 0.0
H807 H 0.85177 0.86039 0.83337 0.0
H808 H 0.95054 0.90528 0.85304 0.0
H809 H 0.90699 0.82066 0.82731 0.0
H810 H 0.87523 0.80109 0.8137 0.0
H811 H 0.89005 0.87228 0.80326 0.0
H812 H 0.92207 0.8922 0.81672 0.0
H813 H 0.05788 0.89622 0.8393 0.0
H814 H 0.01615 0.88173 0.84611 0.0
H815 H 0.99623 0.90228 0.81729 0.0
H816 H 0.03689 0.91566 0.81044 0.0
H817 H 0.96006 0.8608 0.82323 0.0
H818 H 0.01614 0.94072 0.84072 0.0
H819 H 0.0501 0.96655 0.85276 0.0
H820 H 0.01445 0.91348 0.877 0.0
H821 H 0.98025 0.88741 0.86514 0.0
C822 C 0.90077 0.91877 0.8351 0.0
C823 C 0.87687 0.89986 0.83261 0.0
C824 C 0.91844 0.91315 0.83856 0.0
C825 C 0.91254 0.88853 0.83966 0.0
C826 C 0.88784 0.86979 0.83863 0.0
C827 C 0.87012 0.87539 0.83505 0.0
C828 C 0.93296 0.88296 0.83958 0.0
C829 C 0.95244 0.89506 0.84667 0.0
C830 C 0.93552 0.86961 0.83129 0.0
C831 C 0.9166 0.85783 0.82309 0.0
C832 C 0.90345 0.83208 0.82209 0.0
C833 C 0.88544 0.82095 0.81441 0.0
C834 C 0.88056 0.83543 0.80765 0.0
C835 C 0.8938 0.86108 0.80851 0.0
C836 C 0.91188 0.8723 0.81616 0.0
C837 C 0.04439 0.89728 0.83442 0.0
C838 C 0.05068 0.9072 0.82436 0.0
C839 C 0.02063 0.88912 0.83832 0.0
C840 C 0.00303 0.89102 0.83224 0.0
C841 C 0.00932 0.90038 0.82213 0.0
C842 C 0.03274 0.90822 0.81823 0.0
C843 C 0.97832 0.88468 0.83622 0.0
C844 C 0.95785 0.87002 0.82992 0.0
C845 C 0.97523 0.89642 0.845 0.0
C846 C 0.99586 0.91202 0.85204 0.0
C847 C 0.01565 0.93453 0.84861 0.0
C848 C 0.0349 0.94921 0.85539 0.0
C849 C 0.0345 0.94158 0.86559 0.0
C850 C 0.01478 0.91933 0.86908 0.0
C851 C 0.99544 0.90462 0.86234 0.0
H852 H 0.04946 0.95293 0.87081 0.0
H853 H 0.86658 0.82677 0.80172 0.0
H854 H 0.12554 0.17808 0.84533 0.0
H855 H 0.14331 0.15437 0.8529 0.0
H856 H 0.07216 0.08829 0.85106 0.0
H857 H 0.05476 0.11175 0.84365 0.0
H858 H 0.09907 0.08528 0.86708 0.0
H859 H 0.11071 0.10876 0.82954 0.0
H860 H 0.12779 0.14053 0.81586 0.0
H861 H 0.20003 0.17025 0.82909 0.0
H862 H 0.18324 0.13874 0.84291 0.0
H863 H 0.07027 0.98769 0.83643 0.0
H864 H 0.08051 0.02307 0.84725 0.0
H865 H 0.15783 0.04668 0.84455 0.0
H866 H 0.14751 0.01079 0.83357 0.0
H867 H 0.14849 0.0811 0.83797 0.0
H868 H 0.13186 0.03778 0.86925 0.0
H869 H 0.11074 0.00277 0.88128 0.0
H870 H 0.04485 0.00741 0.87914 0.0
H871 H 0.06539 0.04222 0.867 0.0
C872 C 0.11361 0.15869 0.84699 0.0
C873 C 0.08887 0.14657 0.84382 0.0
C874 C 0.12374 0.14517 0.85129 0.0
C875 C 0.10914 0.11947 0.85241 0.0
C876 C 0.08383 0.10806 0.8503 0.0
C877 C 0.07386 0.12146 0.84595 0.0
C878 C 0.12014 0.10342 0.85346 0.0
C879 C 0.11034 0.08451 0.86088 0.0
C880 C 0.13561 0.10293 0.84559 0.0
C881 C 0.14574 0.12166 0.83727 0.0
C882 C 0.13022 0.12214 0.82952 0.0
C883 C 0.13983 0.14009 0.82176 0.0
C884 C 0.16498 0.15744 0.82162 0.0
C885 C 0.18056 0.15684 0.82923 0.0
C886 C 0.17101 0.13897 0.83703 0.0
C887 C 0.08944 -4e-05 0.83837 0.0
C888 C 0.10809 0.99659 0.83404 0.0
C889 C 0.0953 0.02012 0.8447 0.0
C890 C 0.11997 0.0375 0.84684 0.0
C891 C 0.13866 0.03338 0.84308 0.0
C892 C 0.13274 0.01291 0.8368 0.0
C893 C 0.12564 0.06179 0.85109 0.0
C894 C 0.13863 0.08236 0.84464 0.0
C895 C 0.1128 0.06353 0.85977 0.0
C896 C 0.1003 0.04281 0.86724 0.0
C897 C 0.11286 0.03134 0.87133 0.0
C898 C 0.10097 0.01151 0.87817 0.0
C899 C 0.07651 0.00294 0.881 0.0
C900 C 0.06385 0.01417 0.87699 0.0
C901 C 0.07565 0.03403 0.87015 0.0
H902 H 0.06733 0.98755 0.88629 0.0
H903 H 0.1724 0.17132 0.8156 0.0
H904 H 0.83701 0.93809 0.84068 0.0
H905 H 0.8617 0.98109 0.84606 0.0
H906 H 0.84253 0.00413 0.81767 0.0
H907 H 0.81946 0.96119 0.812 0.0
H908 H 0.88763 0.02684 0.81891 0.0
H909 H 0.82724 0.01586 0.8435 0.0
H910 H 0.79673 0.99592 0.85746 0.0
H911 H 0.85386 0.00398 0.87821 0.0
H912 H 0.88469 0.02363 0.86434 0.0
H913 H 0.98272 0.14136 0.82976 0.0
H914 H 0.93816 0.11508 0.8318 0.0
H915 H 0.94969 0.06522 0.85086 0.0
H916 H 0.99409 0.09124 0.84878 0.0
H917 H 0.90197 0.06332 0.85412 0.0
H918 H 0.95563 0.05894 0.82662 0.0
H919 H 0.98681 0.07962 0.81291 0.0
H920 H 0.9396 0.10117 0.79767 0.0
H921 H 0.90834 0.08094 0.81141 0.0
C922 C 0.83756 0.95237 0.83577 0.0
C923 C 0.82655 0.94658 0.82595 0.0
C924 C 0.85151 0.97698 0.83886 0.0
C925 C 0.85395 0.99605 0.83231 0.0
C926 C 0.84111 0.98987 0.82285 0.0
C927 C 0.82789 0.96538 0.81962 0.0
C928 C 0.87303 0.02207 0.83445 0.0
C929 C 0.89005 0.03503 0.82654 0.0
C930 C 0.87673 0.03291 0.84442 0.0
C931 C 0.8583 0.02118 0.85284 0.0
C932 C 0.8333 0.01326 0.85102 0.0
C933 C 0.81594 0.00201 0.85892 0.0
C934 C 0.82335 0.99867 0.86871 0.0
C935 C 0.84815 0.0066 0.87062 0.0
C936 C 0.86559 0.01785 0.86275 0.0
C937 C 0.97579 0.12554 0.83485 0.0
C938 C 0.99169 0.1179 0.8389 0.0
C939 C 0.95031 0.11056 0.83603 0.0
C940 C 0.94071 0.088 0.8413 0.0
C941 C 0.95674 0.08253 0.84674 0.0
C942 C 0.98213 0.0973 0.84548 0.0
C943 C 0.91606 0.06735 0.83862 0.0
C944 C 0.89846 0.05534 0.84641 0.0
C945 C 0.91148 0.05733 0.82851 0.0
C946 C 0.92981 0.06867 0.82006 0.0
C947 C 0.95196 0.06815 0.82035 0.0
C948 C 0.96964 0.0798 0.81259 0.0
C949 C 0.96521 0.09175 0.80443 0.0
C950 C 0.94303 0.09196 0.804 0.0
C951 C 0.92533 0.08042 0.81178 0.0
H952 H 0.97892 0.1008 0.79844 0.0
H953 H 0.80988 0.98995 0.87482 0.0
H954 H 0.8844 0.02522 0.68466 0.0
H955 H 0.86854 0.98603 0.67605 0.0
H956 H 0.86214 0.01811 0.64741 0.0
H957 H 0.87954 0.05839 0.65604 0.0
H958 H 0.83106 0.95301 0.66647 0.0
H959 H 0.87277 0.98834 0.62799 0.0
H960 H 0.90165 0.02664 0.61879 0.0
H961 H 0.94648 0.05352 0.64612 0.0
H962 H 0.91797 0.01528 0.65545 0.0
H963 H 0.85698 0.85768 0.65899 0.0
H964 H 0.84083 0.88316 0.65199 0.0
H965 H 0.91239 0.94791 0.65587 0.0
H966 H 0.92872 0.92278 0.66229 0.0
H967 H 0.89123 0.95619 0.64072 0.0
H968 H 0.86478 0.92171 0.67636 0.0
H969 H 0.84208 0.88685 0.68839 0.0
H970 H 0.77572 0.86331 0.67087 0.0
H971 H 0.79817 0.89797 0.6587 0.0
C972 C 0.87937 0.02401 0.67655 0.0
C973 C 0.88377 0.045 0.67096 0.0
C974 C 0.86997 0.00139 0.67163 0.0
C975 C 0.86439 -0.00098 0.661 0.0
C976 C 0.8667 0.01953 0.65557 0.0
C977 C 0.87655 0.04249 0.66051 0.0
C978 C 0.85981 0.97599 0.65575 0.0
C979 C 0.84368 0.9535 0.66059 0.0
C980 C 0.87577 0.97634 0.64791 0.0
C981 C 0.89318 -0.00083 0.6424 0.0
C982 C 0.88884 0.00244 0.63201 0.0
C983 C 0.90513 0.0241 0.62678 0.0
C984 C 0.92587 0.04252 0.63188 0.0
C985 C 0.93042 0.03925 0.6422 0.0
C986 C 0.91423 0.01759 0.64745 0.0
C987 C 0.8694 0.87727 0.65806 0.0
C988 C 0.89399 0.88827 0.66149 0.0
C989 C 0.86012 0.89182 0.65407 0.0
C990 C 0.87518 0.91758 0.65365 0.0
C991 C 0.90026 0.92813 0.65612 0.0
C992 C 0.90958 0.91367 0.65994 0.0
C993 C 0.86486 0.93427 0.65246 0.0
C994 C 0.87757 0.95522 0.64616 0.0
C995 C 0.84661 0.93292 0.65934 0.0
C996 C 0.83315 0.91211 0.66658 0.0
C997 C 0.84537 0.909 0.67507 0.0
C998 C 0.83257 0.88931 0.6819 0.0
C999 C 0.80749 0.87282 0.68037 0.0
C1000 C 0.79516 0.87604 0.67202 0.0
C1001 C 0.80791 0.89568 0.66515 0.0
H1002 H 0.7976 0.8576 0.68567 0.0
H1003 H 0.93843 0.0593 0.62783 0.0
H1004 H 0.14387 0.00129 0.65711 0.0
H1005 H 0.11708 0.96139 0.64887 0.0
H1006 H 0.05509 0.97284 0.65257 0.0
H1007 H 0.08148 0.01239 0.66057 0.0
H1008 H 0.08283 0.92403 0.65799 0.0
H1009 H 0.01111 0.94503 0.63692 0.0
H1010 H 0.01267 0.97436 0.62383 0.0
H1011 H 0.0839 0.9884 0.61392 0.0
H1012 H 0.0827 0.95889 0.62685 0.0
H1013 H 0.97074 0.86663 0.67759 0.0
H1014 H 0.01079 0.89039 0.66971 0.0
H1015 H 0.98062 0.85754 0.63997 0.0
H1016 H 0.93952 0.83374 0.64793 0.0
H1017 H 0.00799 0.90506 0.63784 0.0
H1018 H 0.02567 0.84741 0.65124 0.0
H1019 H 0.02484 0.81649 0.66329 0.0
H1020 H 0.06403 0.87278 0.68603 0.0
H1021 H 0.06477 0.904 0.67423 0.0
C1022 C 0.12462 0.99552 0.65593 0.0
C1023 C 0.11474 0.00989 0.65964 0.0
C1024 C 0.10937 0.97274 0.65118 0.0
C1025 C 0.08408 0.96413 0.64996 0.0
C1026 C 0.0746 0.97918 0.65314 0.0
C1027 C 0.08972 0.00176 0.6579 0.0
C1028 C 0.06651 0.93806 0.64724 0.0
C1029 C 0.06669 0.91967 0.65338 0.0
C1030 C 0.04612 0.93183 0.64069 0.0
C1031 C 0.04675 0.94957 0.63286 0.0
C1032 C 0.02701 0.95412 0.63189 0.0
C1033 C 0.02787 0.97087 0.62451 0.0
C1034 C 0.04833 0.98316 0.61803 0.0
C1035 C 0.06804 0.97882 0.61894 0.0
C1036 C 0.0673 0.96214 0.62631 0.0
C1037 C 0.97252 0.86411 0.66939 0.0
C1038 C 0.95194 0.84838 0.66337 0.0
C1039 C 0.99562 0.87751 0.6649 0.0
C1040 C -0.00103 0.87533 0.65428 0.0
C1041 C 0.97854 0.85925 0.64821 0.0
C1042 C 0.95512 0.84573 0.65275 0.0
C1043 C 0.02333 0.89245 0.64966 0.0
C1044 C 0.02453 0.90901 0.64206 0.0
C1045 C 0.04528 0.8967 0.65461 0.0
C1046 C 0.04544 0.87814 0.66177 0.0
C1047 C 0.03411 0.85323 0.65881 0.0
C1048 C 0.03363 0.83562 0.66561 0.0
C1049 C 0.04443 0.84268 0.67541 0.0
C1050 C 0.05577 0.86736 0.67842 0.0
C1051 C 0.05631 0.88505 0.67166 0.0
H1052 H 0.04399 0.82901 0.68067 0.0
H1053 H 0.04895 0.99612 0.61232 0.0
H1054 H 0.97525 0.05625 0.6643 0.0
H1055 H 0.01369 0.06825 0.65557 0.0
H1056 H 0.02472 0.1412 0.65061 0.0
H1057 H 0.98637 0.12954 0.65994 0.0
H1058 H 0.03897 0.08471 0.63906 0.0
H1059 H 0.08437 0.18244 0.65466 0.0
H1060 H 0.0778 0.20763 0.66762 0.0
H1061 H 0.0374 0.14381 0.68685 0.0
H1062 H 0.04399 0.11838 0.67406 0.0
H1063 H 0.16138 0.10378 0.64475 0.0
H1064 H 0.1312 0.11479 0.63818 0.0
H1065 H 0.1082 0.11615 0.66963 0.0
H1066 H 0.13861 0.10678 0.67607 0.0
H1067 H 0.10639 0.14999 0.65994 0.0
H1068 H 0.07867 0.06145 0.65147 0.0
H1069 H 0.0843 0.03072 0.64167 0.0
H1070 H 0.08695 0.06723 0.61316 0.0
H1071 H 0.08135 0.09816 0.62278 0.0
C1072 C 0.98553 0.07479 0.66124 0.0
C1073 C 0.97806 0.09218 0.66315 0.0
C1074 C 0.00753 0.08158 0.65609 0.0
C1075 C 0.02256 0.10586 0.65264 0.0
C1076 C 0.01376 0.12251 0.65343 0.0
C1077 C 0.9918 0.11581 0.65877 0.0
C1078 C 0.04869 0.11411 0.65004 0.0
C1079 C 0.05383 0.09933 0.64347 0.0
C1080 C 0.06831 0.13339 0.65564 0.0
C1081 C 0.06432 0.14852 0.66335 0.0
C1082 C 0.07408 0.17384 0.66166 0.0
C1083 C 0.07038 0.18814 0.66897 0.0
C1084 C 0.05709 0.1773 0.67803 0.0
C1085 C 0.0476 0.15216 0.67982 0.0
C1086 C 0.05132 0.13782 0.67255 0.0
C1087 C 0.15016 0.107 0.6502 0.0
C1088 C 0.15215 0.10413 0.66091 0.0
C1089 C 0.13284 0.11314 0.64646 0.0
C1090 C 0.11713 0.11608 0.65338 0.0
C1091 C 0.1201 0.11424 0.66407 0.0
C1092 C 0.13744 0.10858 0.66777 0.0
C1093 C 0.09593 0.11877 0.64994 0.0
C1094 C 0.09185 0.1361 0.65514 0.0
C1095 C 0.07701 0.10099 0.64356 0.0
C1096 C 0.07988 0.08219 0.63782 0.0
C1097 C 0.08047 0.06288 0.64311 0.0
C1098 C 0.08366 0.04546 0.6376 0.0
C1099 C 0.08614 0.04713 0.62682 0.0
C1100 C 0.08514 0.06604 0.62151 0.0
C1101 C 0.08193 0.08349 0.62698 0.0
H1102 H 0.08886 0.0338 0.62259 0.0
H1103 H 0.05422 0.1884 0.68367 0.0
H1104 H 0.58171 0.40145 0.50125 0.0
H1105 H 0.62442 0.42557 0.49504 0.0
H1106 H 0.64999 0.44215 0.52663 0.0
H1107 H 0.60782 0.41757 0.53288 0.0
H1108 H 0.67196 0.48408 0.51132 0.0
H1109 H 0.65288 0.39797 0.51749 0.0
H1110 H 0.63041 0.35327 0.514 0.0
H1111 H 0.64778 0.36713 0.48164 0.0
H1112 H 0.67025 0.41196 0.48495 0.0
H1113 H 0.77258 0.48808 0.53284 0.0
H1114 H 0.73699 0.48779 0.52528 0.0
H1115 H 0.75493 0.47012 0.49538 0.0
H1116 H 0.79074 0.47017 0.50299 0.0
H1117 H 0.71148 0.43565 0.50122 0.0
H1118 H 0.74611 0.5204 0.49773 0.0
H1119 H 0.77101 0.56472 0.50162 0.0
H1120 H 0.72593 0.55536 0.52818 0.0
H1121 H 0.70098 0.51093 0.52458 0.0
C1122 C 0.59647 0.41036 0.50685 0.0
C1123 C 0.59149 0.40736 0.51756 0.0
C1124 C 0.62076 0.42417 0.50329 0.0
C1125 C 0.6402 0.4357 0.5104 0.0
C1126 C 0.63514 0.43351 0.52104 0.0
C1127 C 0.61107 0.41928 0.5246 0.0
C1128 C 0.66616 0.44843 0.50703 0.0
C1129 C 0.68078 0.47374 0.50898 0.0
C1130 C 0.67731 0.43503 0.50349 0.0
C1131 C 0.66291 0.40824 0.50144 0.0
C1132 C 0.65164 0.39147 0.50962 0.0
C1133 C 0.63907 0.36613 0.50769 0.0
C1134 C 0.63777 0.35738 0.49761 0.0
C1135 C 0.64887 0.37395 0.48944 0.0
C1136 C 0.66152 0.39931 0.49134 0.0
C1137 C 0.76947 0.48495 0.52458 0.0
C1138 C 0.78414 0.47864 0.51856 0.0
C1139 C 0.7492 0.48506 0.52021 0.0
C1140 C 0.74318 0.47888 0.50974 0.0
C1141 C 0.75923 0.47497 0.50347 0.0
C1142 C 0.7797 0.47503 0.50784 0.0
C1143 C 0.7178 0.47121 0.50623 0.0
C1144 C 0.70302 0.44667 0.503 0.0
C1145 C 0.7066 0.48545 0.50853 0.0
C1146 C 0.72161 0.51222 0.51086 0.0
C1147 C 0.74158 0.52773 0.50444 0.0
C1148 C 0.7557 0.5529 0.50659 0.0
C1149 C 0.75005 0.56285 0.51514 0.0
C1150 C 0.73026 0.54764 0.52155 0.0
C1151 C 0.71607 0.52244 0.51944 0.0
H1152 H 0.761 0.58235 0.51679 0.0
H1153 H 0.62808 0.33775 0.49614 0.0
H1154 H 0.49001 0.2774 0.52966 0.0
H1155 H 0.49818 0.24684 0.522 0.0
H1156 H 0.51075 0.28286 0.49232 0.0
H1157 H 0.50332 0.31415 0.50004 0.0
H1158 H 0.49097 0.21468 0.50635 0.0
H1159 H 0.56452 0.29358 0.48424 0.0
H1160 H 0.58304 0.33865 0.48239 0.0
H1161 H 0.57378 0.34511 0.515 0.0
H1162 H 0.55532 0.30008 0.51703 0.0
H1163 H 0.57899 0.17493 0.49919 0.0
H1164 H 0.5545 0.19346 0.4938 0.0
H1165 H 0.58644 0.24679 0.51846 0.0
H1166 H 0.6112 0.2287 0.52383 0.0
H1167 H 0.58101 0.26738 0.50068 0.0
H1168 H 0.53194 0.19317 0.5219 0.0
H1169 H 0.51407 0.14857 0.52491 0.0
H1170 H 0.47537 0.13303 0.49594 0.0
H1171 H 0.49328 0.1776 0.49271 0.0
C1172 C 0.49356 0.27834 0.52141 0.0
C1173 C 0.49706 0.29876 0.51556 0.0
C1174 C 0.49804 0.26066 0.517 0.0
C1175 C 0.50596 0.26312 0.50668 0.0
C1176 C 0.50518 0.28098 0.50037 0.0
C1177 C 0.50086 0.29885 0.5048 0.0
C1178 C 0.52075 0.25162 0.50368 0.0
C1179 C 0.51052 0.22607 0.5048 0.0
C1180 C 0.54635 0.26648 0.50176 0.0
C1181 C 0.55843 0.29358 0.50075 0.0
C1182 C 0.56656 0.30468 0.49101 0.0
C1183 C 0.57691 0.33015 0.48992 0.0
C1184 C 0.57938 0.34467 0.49856 0.0
C1185 C 0.57172 0.3338 0.50832 0.0
C1186 C 0.56136 0.30833 0.50944 0.0
C1187 C 0.58112 0.19085 0.50338 0.0
C1188 C 0.5969 0.20017 0.51203 0.0
C1189 C 0.56707 0.20138 0.50028 0.0
C1190 C 0.5685 0.22133 0.50579 0.0
C1191 C 0.58511 0.23142 0.51408 0.0
C1192 C 0.59915 0.22094 0.51719 0.0
C1193 C 0.55135 0.23057 0.50366 0.0
C1194 C 0.56126 0.25574 0.50167 0.0
C1195 C 0.52556 0.21537 0.50488 0.0
C1196 C 0.51409 0.18865 0.50702 0.0
C1197 C 0.51965 0.18022 0.51617 0.0
C1198 C 0.50954 0.15497 0.51791 0.0
C1199 C 0.49365 0.13798 0.51061 0.0
C1200 C 0.48771 0.14621 0.50158 0.0
C1201 C 0.49782 0.17146 0.49979 0.0
H1202 H 0.48592 0.11844 0.51195 0.0
H1203 H 0.58752 0.36438 0.49769 0.0
H1204 H 0.67706 0.20557 0.49812 0.0
H1205 H 0.715 0.24313 0.49432 0.0
H1206 H 0.75494 0.21918 0.51395 0.0
H1207 H 0.71609 0.18254 0.51858 0.0
H1208 H 0.76163 0.2564 0.5216 0.0
H1209 H 0.77401 0.24444 0.48729 0.0
H1210 H 0.76578 0.23111 0.46905 0.0
H1211 H 0.73805 0.28035 0.46352 0.0
H1212 H 0.74572 0.29374 0.48175 0.0
H1213 H 0.83194 0.39682 0.5079 0.0
H1214 H 0.82032 0.35502 0.50224 0.0
H1215 H 0.75763 0.32533 0.52277 0.0
H1216 H 0.76941 0.36667 0.52865 0.0
H1217 H 0.7811 0.31671 0.49323 0.0
H1218 H 0.75089 0.2779 0.53528 0.0
H1219 H 0.76432 0.29198 0.55318 0.0
H1220 H 0.83696 0.34342 0.54228 0.0
H1221 H 0.82411 0.32939 0.52433 0.0
C1222 C 0.69412 0.2077 0.50118 0.0
C1223 C 0.6937 0.19145 0.50874 0.0
C1224 C 0.71608 0.22932 0.49896 0.0
C1225 C 0.7381 0.23454 0.50399 0.0
C1226 C 0.7382 0.21601 0.51014 0.0
C1227 C 0.71604 0.19488 0.51271 0.0
C1228 C 0.75809 0.26072 0.50516 0.0
C1229 C 0.76623 0.26935 0.51527 0.0
C1230 C 0.76528 0.27806 0.49696 0.0
C1231 C 0.76048 0.27012 0.48594 0.0
C1232 C 0.76602 0.25235 0.48221 0.0
C1233 C 0.76146 0.24478 0.47186 0.0
C1234 C 0.75141 0.25488 0.46513 0.0
C1235 C 0.7459 0.27259 0.46873 0.0
C1236 C 0.75042 0.28023 0.47908 0.0
C1237 C 0.81556 0.38134 0.51114 0.0
C1238 C 0.80175 0.38499 0.51884 0.0
C1239 C 0.80897 0.35751 0.50789 0.0
C1240 C 0.78846 0.33706 0.51225 0.0
C1241 C 0.77394 0.34083 0.5195 0.0
C1242 C 0.78065 0.36449 0.52284 0.0
C1243 C 0.78219 0.31154 0.50966 0.0
C1244 C 0.77697 0.30336 0.49935 0.0
C1245 C 0.77851 0.29451 0.51759 0.0
C1246 C 0.7865 0.30258 0.52844 0.0
C1247 C 0.7698 0.29204 0.53671 0.0
C1248 C 0.77729 0.30006 0.54686 0.0
C1249 C 0.80147 0.31859 0.54887 0.0
C1250 C 0.81823 0.32909 0.54072 0.0
C1251 C 0.81084 0.32112 0.53055 0.0
H1252 H 0.80722 0.3248 0.55673 0.0
H1253 H 0.74789 0.249 0.45712 0.0
H1254 H 0.83782 0.45637 0.63947 0.0
H1255 H 0.83445 0.41798 0.6454 0.0
H1256 H 0.8062 0.42569 0.67477 0.0
H1257 H 0.80934 0.46419 0.66883 0.0
H1258 H 0.84076 0.39055 0.66105 0.0
H1259 H 0.75112 0.37615 0.67687 0.0
H1260 H 0.72591 0.39636 0.67722 0.0
H1261 H 0.75018 0.42426 0.64648 0.0
H1262 H 0.77524 0.40393 0.64593 0.0
H1263 H 0.76038 0.25719 0.65855 0.0
H1264 H 0.78087 0.29853 0.66626 0.0
H1265 H 0.75743 0.32544 0.6404 0.0
H1266 H 0.73701 0.28462 0.63271 0.0
H1267 H 0.74955 0.34126 0.659 0.0
H1268 H 0.815 0.33389 0.64131 0.0
H1269 H 0.84068 0.31465 0.63885 0.0
H1270 H 0.86496 0.33067 0.67047 0.0
H1271 H 0.83918 0.34977 0.67314 0.0
C1272 C 0.83205 0.45054 0.64738 0.0
C1273 C 0.82305 0.46276 0.65356 0.0
C1274 C 0.83029 0.42863 0.65081 0.0
C1275 C 0.81936 0.41863 0.6604 0.0
C1276 C 0.8144 0.43299 0.66728 0.0
C1277 C 0.81623 0.45504 0.66386 0.0
C1278 C 0.80692 0.39154 0.66161 0.0
C1279 C 0.82081 0.37965 0.66093 0.0
C1280 C 0.78087 0.3773 0.66131 0.0
C1281 C 0.76516 0.38876 0.66141 0.0
C1282 C 0.75094 0.3865 0.67018 0.0
C1283 C 0.7367 0.39798 0.67041 0.0
C1284 C 0.7365 0.41165 0.66188 0.0
C1285 C 0.75038 0.4137 0.65308 0.0
C1286 C 0.76455 0.40218 0.6528 0.0
C1287 C 0.75959 0.27194 0.65451 0.0
C1288 C 0.74714 0.26759 0.64497 0.0
C1289 C 0.77129 0.2955 0.65894 0.0
C1290 C 0.7706 0.31498 0.6539 0.0
C1291 C 0.75804 0.3106 0.64445 0.0
C1292 C 0.74652 0.28724 0.64001 0.0
C1293 C 0.78339 0.34033 0.65811 0.0
C1294 C 0.76945 0.35188 0.65974 0.0
C1295 C 0.80933 0.35417 0.6591 0.0
C1296 C 0.82498 0.34297 0.65745 0.0
C1297 C 0.8257 0.33315 0.64775 0.0
C1298 C 0.84028 0.32231 0.64631 0.0
C1299 C 0.85438 0.32137 0.65451 0.0
C1300 C 0.85399 0.33137 0.66414 0.0
C1301 C 0.83941 0.34221 0.66562 0.0
H1302 H 0.86565 0.31295 0.65339 0.0
H1303 H 0.72557 0.42061 0.6621 0.0
H1304 H 0.53717 0.34992 0.66641 0.0
H1305 H 0.57384 0.38624 0.67232 0.0
H1306 H 0.55982 0.43081 0.65087 0.0
H1307 H 0.52427 0.39355 0.64415 0.0
H1308 H 0.59826 0.4361 0.64558 0.0
H1309 H 0.5771 0.44631 0.67875 0.0
H1310 H 0.55819 0.43711 0.6961 0.0
H1311 H 0.60138 0.40426 0.70486 0.0
H1312 H 0.6203 0.41286 0.68752 0.0
H1313 H 0.73303 0.5002 0.66461 0.0
H1314 H 0.69067 0.4888 0.66914 0.0
H1315 H 0.66338 0.42505 0.64931 0.0
H1316 H 0.70544 0.43648 0.6446 0.0
H1317 H 0.64833 0.44853 0.67714 0.0
H1318 H 0.62223 0.42401 0.63353 0.0
H1319 H 0.64221 0.43829 0.61649 0.0
H1320 H 0.6929 0.50888 0.62951 0.0
H1321 H 0.67298 0.49519 0.64658 0.0
C1322 C 0.5412 0.36761 0.6633 0.0
C1323 C 0.52832 0.36893 0.65466 0.0
C1324 C 0.56229 0.38867 0.66677 0.0
C1325 C 0.57025 0.41153 0.66191 0.0
C1326 C 0.55457 0.41337 0.65458 0.0
C1327 C 0.53409 0.3921 0.65078 0.0
C1328 C 0.59698 0.43047 0.66218 0.0
C1329 C 0.60893 0.43919 0.6526 0.0
C1330 C 0.61149 0.43568 0.67128 0.0
C1331 C 0.60018 0.43029 0.68178 0.0
C1332 C 0.58249 0.43699 0.68434 0.0
C1333 C 0.57177 0.43189 0.69419 0.0
C1334 C 0.57859 0.42012 0.70158 0.0
C1335 C 0.59616 0.41343 0.69913 0.0
C1336 C 0.60696 0.41849 0.6893 0.0
C1337 C 0.718 0.48346 0.66138 0.0
C1338 C 0.7225 0.46942 0.6541 0.0
C1339 C 0.69384 0.47701 0.66399 0.0
C1340 C 0.67397 0.45643 0.65938 0.0
C1341 C 0.67853 0.44133 0.65278 0.0
C1342 C 0.70255 0.44786 0.65009 0.0
C1343 C 0.64844 0.45157 0.66054 0.0
C1344 C 0.63717 0.44589 0.67031 0.0
C1345 C 0.63447 0.44998 0.65169 0.0
C1346 C 0.64611 0.45853 0.64135 0.0
C1347 C 0.63749 0.44265 0.63274 0.0
C1348 C 0.64885 0.45063 0.62308 0.0
C1349 C 0.66883 0.47447 0.62192 0.0
C1350 C 0.67745 0.49041 0.63042 0.0
C1351 C 0.66614 0.48254 0.64009 0.0
H1352 H 0.67762 0.48059 0.61444 0.0
H1353 H 0.57026 0.41618 0.7092 0.0
H1354 H 0.62273 0.17004 0.63003 0.0
H1355 H 0.59284 0.17952 0.63755 0.0
H1356 H 0.6289 0.19232 0.66723 0.0
H1357 H 0.65915 0.1831 0.65973 0.0
H1358 H 0.56065 0.17182 0.65382 0.0
H1359 H 0.64194 0.25013 0.67429 0.0
H1360 H 0.68737 0.27099 0.67493 0.0
H1361 H 0.68933 0.25466 0.64274 0.0
H1362 H 0.64398 0.23405 0.64189 0.0
H1363 H 0.51928 0.25779 0.66299 0.0
H1364 H 0.53908 0.23398 0.66763 0.0
H1365 H 0.59039 0.26755 0.64239 0.0
H1366 H 0.57112 0.29167 0.63781 0.0
H1367 H 0.61272 0.26201 0.65925 0.0
H1368 H 0.53636 0.2121 0.63943 0.0
H1369 H 0.49138 0.19352 0.6374 0.0
H1370 H 0.47987 0.15468 0.66614 0.0
H1371 H 0.52484 0.17328 0.66838 0.0
C1372 C 0.62375 0.17387 0.63826 0.0
C1373 C 0.6438 0.17666 0.6442 0.0
C1374 C 0.6065 0.17914 0.64258 0.0
C1375 C 0.60912 0.18731 0.65287 0.0
C1376 C 0.62682 0.18638 0.65922 0.0
C1377 C 0.6441 0.18106 0.65491 0.0
C1378 C 0.59763 0.20205 0.65591 0.0
C1379 C 0.57195 0.19143 0.65528 0.0
C1380 C 0.61238 0.2277 0.65772 0.0
C1381 C 0.63963 0.24031 0.65808 0.0
C1382 C 0.65211 0.25106 0.66736 0.0
C1383 C 0.67783 0.26284 0.66775 0.0
C1384 C 0.69123 0.26408 0.65889 0.0
C1385 C 0.67895 0.25364 0.6496 0.0
C1386 C 0.65324 0.24192 0.64916 0.0
C1387 C 0.53506 0.26044 0.65853 0.0
C1388 C 0.54342 0.27645 0.64993 0.0
C1389 C 0.5463 0.24677 0.66119 0.0
C1390 C 0.56598 0.24878 0.65528 0.0
C1391 C 0.57521 0.26573 0.64707 0.0
C1392 C 0.56406 0.27942 0.64442 0.0
C1393 C 0.57583 0.23193 0.65688 0.0
C1394 C 0.60126 0.24223 0.65832 0.0
C1395 C 0.56087 0.20611 0.65568 0.0
C1396 C 0.5339 0.19421 0.65411 0.0
C1397 C 0.52422 0.19961 0.64531 0.0
C1398 C 0.49874 0.18911 0.64413 0.0
C1399 C 0.48278 0.17298 0.65165 0.0
C1400 C 0.49226 0.1672 0.66033 0.0
C1401 C 0.51773 0.1777 0.66156 0.0
H1402 H 0.46307 0.16495 0.65074 0.0
H1403 H 0.71111 0.27321 0.65923 0.0
H1404 H 0.74242 0.28121 0.17805 0.0
H1405 H 0.69964 0.26732 0.18272 0.0
H1406 H 0.67559 0.203 0.16338 0.0
H1407 H 0.7183 0.21812 0.15811 0.0
H1408 H 0.6513 0.22236 0.15833 0.0
H1409 H 0.66807 0.20143 0.19148 0.0
H1410 H 0.6907 0.20678 0.2078 0.0
H1411 H 0.68052 0.26738 0.21618 0.0
H1412 H 0.65812 0.26263 0.19985 0.0
H1413 H 0.53073 0.19334 0.16581 0.0
H1414 H 0.5645 0.18696 0.17121 0.0
H1415 H 0.60681 0.26304 0.18056 0.0
H1416 H 0.57322 0.26964 0.17516 0.0
H1417 H 0.61736 0.22862 0.1922 0.0
H1418 H 0.61036 0.25394 0.15673 0.0
H1419 H 0.58654 0.24766 0.14067 0.0
H1420 H 0.5778 0.17559 0.13719 0.0
H1421 H 0.6012 0.18131 0.15336 0.0
C1422 C 0.72794 0.26383 0.17503 0.0
C1423 C 0.73336 0.25062 0.16777 0.0
C1424 C 0.70349 0.25574 0.17776 0.0
C1425 C 0.6842 0.2339 0.1735 0.0
C1426 C 0.69002 0.21992 0.16676 0.0
C1427 C 0.71437 0.22844 0.16379 0.0
C1428 C 0.65811 0.22763 0.17481 0.0
C1429 C 0.64378 0.22298 0.16582 0.0
C1430 C 0.64815 0.22887 0.18452 0.0
C1431 C 0.6615 0.23173 0.1944 0.0
C1432 C 0.67078 0.216 0.19677 0.0
C1433 C 0.68355 0.21891 0.20603 0.0
C1434 C 0.68707 0.23742 0.21302 0.0
C1435 C 0.67777 0.25303 0.21077 0.0
C1436 C 0.66499 0.25021 0.20152 0.0
C1437 C 0.54679 0.20846 0.16941 0.0
C1438 C 0.54964 0.23216 0.16981 0.0
C1439 C 0.56604 0.20474 0.17252 0.0
C1440 C 0.58822 0.22464 0.17612 0.0
C1441 C 0.58982 0.24748 0.17779 0.0
C1442 C 0.5707 0.25127 0.1746 0.0
C1443 C 0.61119 0.2235 0.17577 0.0
C1444 C 0.62488 0.22711 0.18485 0.0
C1445 C 0.62061 0.22104 0.16617 0.0
C1446 C 0.60727 0.21794 0.15629 0.0
C1447 C 0.60325 0.23672 0.15256 0.0
C1448 C 0.58982 0.23326 0.14345 0.0
C1449 C 0.58061 0.21122 0.13792 0.0
C1450 C 0.5849 0.19263 0.14148 0.0
C1451 C 0.59823 0.19596 0.15062 0.0
H1452 H 0.57018 0.20856 0.13088 0.0
H1453 H 0.69697 0.23966 0.22018 0.0
H1454 H 0.81628 0.37006 0.15856 0.0
H1455 H 0.82034 0.40713 0.16641 0.0
H1456 H 0.77626 0.36429 0.19243 0.0
H1457 H 0.77085 0.3268 0.18405 0.0
H1458 H 0.75585 0.38535 0.1854 0.0
H1459 H 0.83766 0.41919 0.19522 0.0
H1460 H 0.88138 0.43055 0.19481 0.0
H1461 H 0.8934 0.47698 0.16843 0.0
H1462 H 0.8497 0.46563 0.16854 0.0
H1463 H 0.74316 0.49323 0.18133 0.0
H1464 H 0.75898 0.46909 0.19017 0.0
H1465 H 0.7901 0.46269 0.16132 0.0
H1466 H 0.77408 0.48615 0.1525 0.0
H1467 H 0.82141 0.47171 0.17941 0.0
H1468 H 0.7337 0.41266 0.16696 0.0
H1469 H 0.68891 0.39707 0.16739 0.0
H1470 H 0.69065 0.39936 0.20067 0.0
H1471 H 0.73543 0.41459 0.20039 0.0
C1472 C 0.80833 0.3688 0.16615 0.0
C1473 C 0.7933 0.34582 0.17074 0.0
C1474 C 0.81083 0.39008 0.17074 0.0
C1475 C 0.79872 0.38876 0.18011 0.0
C1476 C 0.78574 0.36589 0.1852 0.0
C1477 C 0.7827 0.34449 0.18045 0.0
C1478 C 0.79492 0.40959 0.18308 0.0
C1479 C 0.77054 0.40429 0.18455 0.0
C1480 C 0.81383 0.43451 0.18209 0.0
C1481 C 0.84029 0.44156 0.18192 0.0
C1482 C 0.84957 0.43173 0.18929 0.0
C1483 C 0.87438 0.43818 0.18911 0.0
C1484 C 0.89016 0.45449 0.1816 0.0
C1485 C 0.88117 0.4644 0.17426 0.0
C1486 C 0.85637 0.45802 0.1744 0.0
C1487 C 0.75375 0.48698 0.17696 0.0
C1488 C 0.75733 0.49137 0.16624 0.0
C1489 C 0.76276 0.47327 0.182 0.0
C1490 C 0.77582 0.46428 0.17639 0.0
C1491 C 0.7803 0.46969 0.1658 0.0
C1492 C 0.77098 0.48292 0.16076 0.0
C1493 C 0.7825 0.44679 0.18097 0.0
C1494 C 0.80728 0.45282 0.1809 0.0
C1495 C 0.76416 0.42258 0.18349 0.0
C1496 C 0.73776 0.41495 0.18366 0.0
C1497 C 0.72449 0.40999 0.17435 0.0
C1498 C 0.69913 0.4011 0.17457 0.0
C1499 C 0.68695 0.39727 0.18406 0.0
C1500 C 0.70012 0.40236 0.19334 0.0
C1501 C 0.72545 0.41106 0.19315 0.0
H1502 H 0.66729 0.39032 0.18422 0.0
H1503 H 0.90936 0.45945 0.18148 0.0
H1504 H 0.47326 0.28533 0.15908 0.0
H1505 H 0.49848 0.32832 0.16449 0.0
H1506 H 0.5449 0.30899 0.18216 0.0
H1507 H 0.51821 0.26574 0.17754 0.0
H1508 H 0.55001 0.34931 0.1898 0.0
H1509 H 0.55291 0.32148 0.15498 0.0
H1510 H 0.5359 0.30307 0.1379 0.0
H1511 H 0.51472 0.35753 0.13252 0.0
H1512 H 0.53155 0.37622 0.1496 0.0
H1513 H 0.67095 0.4244 0.17141 0.0
H1514 H 0.62965 0.39496 0.17757 0.0
H1515 H 0.60244 0.44079 0.1652 0.0
H1516 H 0.64398 0.47044 0.1591 0.0
H1517 H 0.58161 0.39404 0.15657 0.0
H1518 H 0.59486 0.42843 0.19041 0.0
H1519 H 0.61764 0.44561 0.2067 0.0
H1520 H 0.61474 0.37707 0.21327 0.0
H1521 H 0.59222 0.35955 0.19695 0.0
C1522 C 0.48806 0.29017 0.16458 0.0
C1523 C 0.49409 0.27253 0.16784 0.0
C1524 C 0.50262 0.31473 0.16759 0.0
C1525 C 0.52422 0.32207 0.17336 0.0
C1526 C 0.52852 0.3039 0.17761 0.0
C1527 C 0.51333 0.27917 0.17494 0.0
C1528 C 0.54446 0.34816 0.17328 0.0
C1529 C 0.55686 0.35919 0.18255 0.0
C1530 C 0.55334 0.36126 0.16383 0.0
C1531 C 0.54315 0.35002 0.1536 0.0
C1532 C 0.54449 0.32942 0.15017 0.0
C1533 C 0.53491 0.31895 0.1405 0.0
C1534 C 0.52412 0.32903 0.13416 0.0
C1535 C 0.523 0.34969 0.13746 0.0
C1536 C 0.53258 0.36024 0.14712 0.0
C1537 C 0.65628 0.42846 0.17027 0.0
C1538 C 0.66053 0.44938 0.16466 0.0
C1539 C 0.63276 0.41182 0.17389 0.0
C1540 C 0.613 0.41575 0.17188 0.0
C1541 C 0.61751 0.43755 0.16691 0.0
C1542 C 0.64121 0.45442 0.16342 0.0
C1543 C 0.58756 0.39493 0.17304 0.0
C1544 C 0.57424 0.38471 0.1639 0.0
C1545 C 0.57852 0.38234 0.18254 0.0
C1546 C 0.59186 0.39269 0.19243 0.0
C1547 C 0.59919 0.41705 0.19529 0.0
C1548 C 0.61204 0.42685 0.20454 0.0
C1549 C 0.61764 0.41244 0.21101 0.0
C1550 C 0.61035 0.38819 0.20826 0.0
C1551 C 0.59749 0.3783 0.19902 0.0
H1552 H 0.6276 0.42007 0.21816 0.0
H1553 H 0.5167 0.32089 0.12668 0.0
H1554 H 0.51884 0.3732 0.00747 0.0
H1555 H 0.50507 0.33069 0.00236 0.0
H1556 H 0.56486 0.35668 0.9804 0.0
H1557 H 0.57769 0.39931 0.98507 0.0
H1558 H 0.52746 0.31415 0.97375 0.0
H1559 H 0.57292 0.34346 0.00591 0.0
H1560 H 0.58171 0.36129 0.02352 0.0
H1561 H 0.51084 0.30425 0.03387 0.0
H1562 H 0.50171 0.28594 0.01635 0.0
H1563 H 0.5815 0.24011 0.98553 0.0
H1564 H 0.56736 0.26865 0.98064 0.0
H1565 H 0.49824 0.22262 0.9961 0.0
H1566 H 0.51203 0.19367 0.00083 0.0
H1567 H 0.53047 0.26994 0.00511 0.0
H1568 H 0.49307 0.23509 0.97289 0.0
H1569 H 0.48937 0.21765 0.95543 0.0
H1570 H 0.55034 0.28604 0.94495 0.0
H1571 H 0.55469 0.30381 0.9624 0.0
C1572 C 0.5284 0.36979 0.00127 0.0
C1573 C 0.54931 0.38933 0.99668 0.0
C1574 C 0.52064 0.34555 0.99839 0.0
C1575 C 0.53437 0.34047 0.99122 0.0
C1576 C 0.55402 0.36013 0.98597 0.0
C1577 C 0.56134 0.38447 0.98864 0.0
C1578 C 0.53071 0.31524 0.99039 0.0
C1579 C 0.52811 0.30443 0.98058 0.0
C1580 C 0.53122 0.30238 0.99933 0.0
C1581 C 0.5365 0.31354 0.00981 0.0
C1582 C 0.55915 0.33484 0.01193 0.0
C1583 C 0.56421 0.345 0.02189 0.0
C1584 C 0.54677 0.33404 0.02978 0.0
C1585 C 0.52429 0.31278 0.02774 0.0
C1586 C 0.51919 0.30245 0.01781 0.0
C1587 C 0.56289 0.23554 0.9875 0.0
C1588 C 0.54803 0.21492 0.99371 0.0
C1589 C 0.55476 0.25176 0.98464 0.0
C1590 C 0.53181 0.24776 0.98805 0.0
C1591 C 0.51595 0.2259 0.99333 0.0
C1592 C 0.52389 0.2094 0.99604 0.0
C1593 C 0.52752 0.26888 0.98847 0.0
C1594 C 0.52899 0.27918 0.99826 0.0
C1595 C 0.52665 0.28137 0.9795 0.0
C1596 C 0.52431 0.27074 0.969 0.0
C1597 C 0.50587 0.24635 0.9669 0.0
C1598 C 0.50361 0.23642 0.95699 0.0
C1599 C 0.51964 0.25071 0.94909 0.0
C1600 C 0.53794 0.27499 0.95108 0.0
C1601 C 0.54029 0.28502 0.96098 0.0
H1602 H 0.51784 0.243 0.94142 0.0
H1603 H 0.55072 0.34196 0.03748 0.0
H1604 H 0.79498 0.31138 0.98366 0.0
H1605 H 0.76949 0.27393 0.97334 0.0
H1606 H 0.72852 0.23704 0.0009 0.0
H1607 H 0.75381 0.27374 0.01104 0.0
H1608 H 0.73072 0.20412 0.98672 0.0
H1609 H 0.706 0.27449 0.98574 0.0
H1610 H 0.72375 0.31818 0.98068 0.0
H1611 H 0.7498 0.30396 0.95217 0.0
H1612 H 0.73218 0.26025 0.95709 0.0
H1613 H 0.62893 0.18618 0.00904 0.0
H1614 H 0.66773 0.20062 5e-05 0.0
H1615 H 0.62917 0.17323 0.97108 0.0
H1616 H 0.5895 0.15804 0.98021 0.0
H1617 H 0.67144 0.22699 0.97243 0.0
H1618 H 0.65809 0.14649 0.97555 0.0
H1619 H 0.64248 0.10584 0.98376 0.0
H1620 H 0.69103 0.13973 0.00962 0.0
H1621 H 0.70667 0.18059 0.00167 0.0
C1622 C 0.78107 0.29489 0.9875 0.0
C1623 C 0.77594 0.2954 0.99807 0.0
C1624 C 0.7665 0.27357 0.98162 0.0
C1625 C 0.74684 0.25275 0.98631 0.0
C1626 C 0.74361 0.25273 0.99708 0.0
C1627 C 0.7579 0.27383 0.00287 0.0
C1628 C 0.72611 0.23318 0.98029 0.0
C1629 C 0.71784 0.20867 0.98314 0.0
C1630 C 0.70962 0.23889 0.97518 0.0
C1631 C 0.71772 0.26426 0.97174 0.0
C1632 C 0.71517 0.28068 0.97832 0.0
C1633 C 0.72532 0.30542 0.97551 0.0
C1634 C 0.73797 0.31382 0.96613 0.0
C1635 C 0.74002 0.29741 0.95944 0.0
C1636 C 0.72991 0.27267 0.96221 0.0
C1637 C 0.62854 0.183 0.00077 0.0
C1638 C 0.60619 0.17103 0.99532 0.0
C1639 C 0.65075 0.19112 0.99565 0.0
C1640 C 0.65126 0.18768 0.98494 0.0
C1641 C 0.62905 0.17577 0.97938 0.0
C1642 C 0.60652 0.16718 0.98458 0.0
C1643 C 0.67565 0.19858 0.97989 0.0
C1644 C 0.68441 0.22144 0.97502 0.0
C1645 C 0.69257 0.19123 0.98314 0.0
C1646 C 0.68377 0.16664 0.98793 0.0
C1647 C 0.66547 0.14529 0.98299 0.0
C1648 C 0.65658 0.1222 0.98761 0.0
C1649 C 0.66583 0.1202 0.99719 0.0
C1650 C 0.68399 0.14129 0.00217 0.0
C1651 C 0.69295 0.16442 0.99758 0.0
H1652 H 0.65888 0.10231 0.00076 0.0
H1653 H 0.74642 0.33307 0.96409 0.0
H1654 H 0.76301 0.36243 0.00702 0.0
H1655 H 0.73545 0.37688 0.0011 0.0
H1656 H 0.7949 0.4353 0.98389 0.0
H1657 H 0.82257 0.42009 0.98947 0.0
H1658 H 0.76188 0.44189 0.00316 0.0
H1659 H 0.76337 0.41749 0.96851 0.0
H1660 H 0.76243 0.39175 0.95388 0.0
H1661 H 0.69083 0.33427 0.96328 0.0
H1662 H 0.69144 0.35956 0.97805 0.0
H1663 H 0.65944 0.46152 0.99916 0.0
H1664 H 0.69719 0.46329 0.99292 0.0
H1665 H 0.66255 0.38431 0.99572 0.0
H1666 H 0.62484 0.38229 0.0018 0.0
H1667 H 0.69193 0.4011 0.97858 0.0
H1668 H 0.69674 0.4224 0.01552 0.0
H1669 H 0.69669 0.44821 0.02995 0.0
H1670 H 0.75716 0.51201 0.01601 0.0
H1671 H 0.75735 0.48657 0.00143 0.0
C1672 C 0.77011 0.37802 0.0018 0.0
C1673 C 0.79487 0.39023 0.99872 0.0
C1674 C 0.75434 0.38618 0.99839 0.0
C1675 C 0.76316 0.407 0.99202 0.0
C1676 C 0.78776 0.41899 0.9887 0.0
C1677 C 0.80347 0.41033 0.99189 0.0
C1678 C 0.74692 0.41732 0.99013 0.0
C1679 C 0.74705 0.43375 0.99753 0.0
C1680 C 0.72749 0.40636 0.98289 0.0
C1681 C 0.72753 0.39039 0.97442 0.0
C1682 C 0.74757 0.39922 0.96755 0.0
C1683 C 0.74703 0.38479 0.95919 0.0
C1684 C 0.72649 0.36149 0.9576 0.0
C1685 C 0.70663 0.35242 0.96447 0.0
C1686 C 0.70707 0.3668 0.97284 0.0
C1687 C 0.65973 0.44449 0.99828 0.0
C1688 C 0.63925 0.42179 0.00115 0.0
C1689 C 0.68132 0.44556 0.99471 0.0
C1690 C 0.68273 0.42396 0.99396 0.0
C1691 C 0.66185 0.4012 0.99623 0.0
C1692 C 0.64035 0.40011 0.9998 0.0
C1693 C 0.70638 0.42481 0.99189 0.0
C1694 C 0.70738 0.41022 0.98387 0.0
C1695 C 0.72689 0.43747 0.99857 0.0
C1696 C 0.72685 0.45268 0.00734 0.0
C1697 C 0.70991 0.44196 0.01551 0.0
C1698 C 0.70987 0.45651 0.02371 0.0
C1699 C 0.72686 0.48175 0.02388 0.0
C1700 C 0.74397 0.49247 0.01586 0.0
C1701 C 0.74405 0.478 0.00762 0.0
H1702 H 0.7268 0.49299 0.03024 0.0
H1703 H 0.72605 0.35039 0.95109 0.0
H1704 H 0.25377 0.74249 0.83527 0.0
H1705 H 0.29528 0.76887 0.82816 0.0
H1706 H 0.32385 0.79041 0.85916 0.0
H1707 H 0.28282 0.76386 0.86629 0.0
H1708 H 0.34348 0.83032 0.84341 0.0
H1709 H 0.32586 0.74421 0.84952 0.0
H1710 H 0.30174 0.69967 0.84577 0.0
H1711 H 0.31743 0.71427 0.81332 0.0
H1712 H 0.34143 0.75894 0.81689 0.0
H1713 H 0.44739 0.84036 0.8635 0.0
H1714 H 0.41099 0.83849 0.85613 0.0
H1715 H 0.42606 0.81579 0.82674 0.0
H1716 H 0.46251 0.81699 0.83427 0.0
H1717 H 0.38371 0.78288 0.8328 0.0
H1718 H 0.41626 0.86695 0.82844 0.0
H1719 H 0.44075 0.91161 0.83166 0.0
H1720 H 0.39793 0.90352 0.85887 0.0
H1721 H 0.37341 0.85877 0.85594 0.0
C1722 C 0.26889 0.75313 0.84054 0.0
C1723 C 0.26516 0.75093 0.85134 0.0
C1724 C 0.29249 0.76821 0.83647 0.0
C1725 C 0.3125 0.78163 0.84315 0.0
C1726 C 0.30855 0.78035 0.85388 0.0
C1727 C 0.28517 0.76498 0.85795 0.0
C1728 C 0.33812 0.79475 0.8393 0.0
C1729 C 0.35245 0.8202 0.84096 0.0
C1730 C 0.3494 0.78163 0.83555 0.0
C1731 C 0.33512 0.75484 0.83345 0.0
C1732 C 0.324 0.7379 0.84158 0.0
C1733 C 0.31039 0.71265 0.83949 0.0
C1734 C 0.30797 0.70415 0.82931 0.0
C1735 C 0.31926 0.72088 0.8212 0.0
C1736 C 0.33286 0.74615 0.82325 0.0
C1737 C 0.44349 0.83581 0.85536 0.0
C1738 C 0.45749 0.82829 0.84954 0.0
C1739 C 0.42271 0.83501 0.85108 0.0
C1740 C 0.41558 0.8269 0.84085 0.0
C1741 C 0.43112 0.82204 0.83466 0.0
C1742 C 0.45202 0.82283 0.83897 0.0
C1743 C 0.38975 0.81846 0.83768 0.0
C1744 C 0.3751 0.79368 0.8347 0.0
C1745 C 0.37824 0.83239 0.84004 0.0
C1746 C 0.39291 0.85938 0.84194 0.0
C1747 C 0.41212 0.87463 0.83515 0.0
C1748 C 0.42602 0.9 0.83692 0.0
C1749 C 0.42089 0.91039 0.84546 0.0
C1750 C 0.40185 0.89544 0.85224 0.0
C1751 C 0.38788 0.87006 0.85051 0.0
H1752 H 0.43168 0.93004 0.84682 0.0
H1753 H 0.2974 0.6846 0.8277 0.0
H1754 H 0.18387 0.65371 0.8346 0.0
H1755 H 0.18733 0.62052 0.82624 0.0
H1756 H 0.17411 0.58323 0.85567 0.0
H1757 H 0.17035 0.61594 0.86396 0.0
H1758 H 0.22448 0.61542 0.83099 0.0
H1759 H 0.15689 0.52523 0.85409 0.0
H1760 H 0.11271 0.50195 0.85839 0.0
H1761 H 0.09673 0.53599 0.83299 0.0
H1762 H 0.14077 0.55921 0.82841 0.0
H1763 H 0.27704 0.55936 0.85704 0.0
H1764 H 0.25392 0.57765 0.85002 0.0
H1765 H 0.21538 0.51595 0.82928 0.0
H1766 H 0.23877 0.49733 0.83629 0.0
H1767 H 0.18398 0.52675 0.84006 0.0
H1768 H 0.25109 0.57022 0.81765 0.0
H1769 H 0.29437 0.59316 0.81196 0.0
H1770 H 0.30903 0.65071 0.83374 0.0
H1771 H 0.26571 0.62824 0.83947 0.0
C1772 C 0.18066 0.6379 0.83919 0.0
C1773 C 0.17732 0.63763 0.84998 0.0
C1774 C 0.1827 0.61896 0.8344 0.0
C1775 C 0.1811 0.59938 0.84031 0.0
C1776 C 0.1751 0.59788 0.85087 0.0
C1777 C 0.17321 0.61679 0.85565 0.0
C1778 C 0.19093 0.5838 0.8363 0.0
C1779 C 0.21536 0.59589 0.83273 0.0
C1780 C 0.17884 0.55812 0.83818 0.0
C1781 C 0.15224 0.54401 0.8409 0.0
C1782 C 0.14397 0.52762 0.84935 0.0
C1783 C 0.11893 0.51446 0.85186 0.0
C1784 C 0.10193 0.5175 0.84597 0.0
C1785 C 0.10993 0.53369 0.83756 0.0
C1786 C 0.13494 0.54689 0.83502 0.0
C1787 C 0.26381 0.54967 0.85094 0.0
C1788 C 0.25966 0.5268 0.84728 0.0
C1789 C 0.25076 0.5603 0.84685 0.0
C1790 C 0.23316 0.54831 0.83903 0.0
C1791 C 0.22905 0.52558 0.83525 0.0
C1792 C 0.2424 0.515 0.83927 0.0
C1793 C 0.2179 0.559 0.83568 0.0
C1794 C 0.1926 0.54601 0.83788 0.0
C1795 C 0.22899 0.58375 0.83236 0.0
C1796 C 0.25513 0.5975 0.82899 0.0
C1797 C 0.26355 0.58773 0.82125 0.0
C1798 C 0.28809 0.60069 0.818 0.0
C1799 C 0.30448 0.62334 0.82252 0.0
C1800 C 0.29631 0.63317 0.83024 0.0
C1801 C 0.27171 0.62041 0.83344 0.0
H1802 H 0.32351 0.63327 0.82003 0.0
H1803 H 0.08255 0.50729 0.84793 0.0
H1804 H 0.38548 0.54583 0.86187 0.0
H1805 H 0.41799 0.58471 0.85511 0.0
H1806 H 0.38185 0.56834 0.82534 0.0
H1807 H 0.3486 0.52953 0.8322 0.0
H1808 H 0.45077 0.61146 0.83984 0.0
H1809 H 0.37366 0.61166 0.81946 0.0
H1810 H 0.32846 0.58709 0.81771 0.0
H1811 H 0.32175 0.57077 0.85028 0.0
H1812 H 0.367 0.59501 0.85215 0.0
H1813 H 0.49297 0.74237 0.83865 0.0
H1814 H 0.47565 0.70037 0.83195 0.0
H1815 H 0.42212 0.67349 0.85665 0.0
H1816 H 0.43906 0.71518 0.86335 0.0
H1817 H 0.4015 0.65341 0.83787 0.0
H1818 H 0.47429 0.67014 0.85837 0.0
H1819 H 0.51891 0.69328 0.86202 0.0
H1820 H 0.53387 0.67566 0.8317 0.0
H1821 H 0.48931 0.65264 0.82785 0.0
C1822 C 0.3849 0.55 0.85376 0.0
C1823 C 0.36399 0.53518 0.84769 0.0
C1824 C 0.40368 0.57221 0.84986 0.0
C1825 C 0.40182 0.57983 0.83984 0.0
C1826 C 0.38328 0.56301 0.83318 0.0
C1827 C 0.36429 0.54077 0.83712 0.0
C1828 C 0.41452 0.60666 0.83777 0.0
C1829 C 0.44016 0.62074 0.83906 0.0
C1830 C 0.40068 0.61881 0.83688 0.0
C1831 C 0.37355 0.6051 0.83593 0.0
C1832 C 0.36247 0.60296 0.82624 0.0
C1833 C 0.33687 0.58904 0.82523 0.0
C1834 C 0.32217 0.5775 0.83389 0.0
C1835 C 0.3331 0.57979 0.84358 0.0
C1836 C 0.35872 0.59357 0.84462 0.0
C1837 C 0.4774 0.72753 0.84262 0.0
C1838 C 0.46744 0.73214 0.85157 0.0
C1839 C 0.46759 0.70357 0.83878 0.0
C1840 C 0.44764 0.68388 0.84381 0.0
C1841 C 0.43744 0.68849 0.85262 0.0
C1842 C 0.44726 0.71233 0.85648 0.0
C1843 C 0.43762 0.65815 0.84029 0.0
C1844 C 0.41242 0.64437 0.83803 0.0
C1845 C 0.45188 0.64637 0.84041 0.0
C1846 C 0.47856 0.65996 0.84278 0.0
C1847 C 0.48713 0.67135 0.85247 0.0
C1848 C 0.51238 0.68441 0.85457 0.0
C1849 C 0.52922 0.68601 0.84708 0.0
C1850 C 0.52082 0.67446 0.83748 0.0
C1851 C 0.49557 0.6614 0.83534 0.0
H1852 H 0.54877 0.69614 0.84872 0.0
H1853 H 0.30235 0.56675 0.83308 0.0
H1854 H 0.42332 0.59698 0.99721 0.0
H1855 H 0.44565 0.63864 0.00448 0.0
H1856 H 0.40982 0.66243 0.98256 0.0
H1857 H 0.38748 0.62109 0.9753 0.0
H1858 H 0.47837 0.67986 0.99429 0.0
H1859 H 0.39992 0.70482 0.99248 0.0
H1860 H 0.35564 0.68489 0.99655 0.0
H1861 H 0.3627 0.636 0.01776 0.0
H1862 H 0.40711 0.65586 0.01395 0.0
H1863 H 0.49984 0.78603 0.97062 0.0
H1864 H 0.4937 0.74853 0.9788 0.0
H1865 H 0.47694 0.77122 0.0078 0.0
H1866 H 0.48268 0.80884 0.99956 0.0
H1867 H 0.4395 0.73028 0.00184 0.0
H1868 H 0.52222 0.75441 0.00679 0.0
H1869 H 0.56672 0.77397 0.00326 0.0
H1870 H 0.55228 0.72515 0.97754 0.0
H1871 H 0.50769 0.70553 0.98079 0.0
C1872 C 0.41988 0.611 0.99406 0.0
C1873 C 0.40368 0.60577 0.98564 0.0
C1874 C 0.43269 0.63477 0.99822 0.0
C1875 C 0.42918 0.65352 0.99414 0.0
C1876 C 0.41248 0.64812 0.98596 0.0
C1877 C 0.39986 0.62451 0.98175 0.0
C1878 C 0.44447 0.67937 0.99759 0.0
C1879 C 0.47005 0.69096 0.99612 0.0
C1880 C 0.43363 0.69358 0.00044 0.0
C1881 C 0.40693 0.68187 0.00292 0.0
C1882 C 0.39211 0.68998 0.99809 0.0
C1883 C 0.36695 0.67864 0.00033 0.0
C1884 C 0.35636 0.65918 0.0074 0.0
C1885 C 0.37092 0.65105 0.01227 0.0
C1886 C 0.39609 0.66233 0.01006 0.0
C1887 C 0.49577 0.78354 0.97884 0.0
C1888 C 0.49114 0.8001 0.98437 0.0
C1889 C 0.49247 0.7621 0.98356 0.0
C1890 C 0.48465 0.7569 0.99392 0.0
C1891 C 0.48288 0.77481 0.99979 0.0
C1892 C 0.48625 0.79636 0.99506 0.0
C1893 C 0.47317 0.73106 0.9976 0.0
C1894 C 0.44818 0.71932 0.00042 0.0
C1895 C 0.48464 0.71676 0.99611 0.0
C1896 C 0.51152 0.72845 0.99406 0.0
C1897 C 0.5285 0.74791 0.00034 0.0
C1898 C 0.55377 0.75901 0.99839 0.0
C1899 C 0.56232 0.7508 0.99018 0.0
C1900 C 0.54563 0.73146 0.98391 0.0
C1901 C 0.52034 0.72029 0.98582 0.0
H1902 H 0.58189 0.75942 0.98868 0.0
H1903 H 0.33688 0.65041 0.00912 0.0
H1904 H 0.20309 0.70996 0.9748 0.0
H1905 H 0.24242 0.744 0.98063 0.0
H1906 H 0.24008 0.70197 0.00747 0.0
H1907 H 0.2005 0.66778 0.0017 0.0
H1908 H 0.27424 0.77143 0.00165 0.0
H1909 H 0.27118 0.68639 0.00013 0.0
H1910 H 0.24678 0.64383 0.9935 0.0
H1911 H 0.2437 0.67154 0.96343 0.0
H1912 H 0.26766 0.71423 0.96997 0.0
H1913 H 0.40625 0.81921 0.99649 0.0
H1914 H 0.36346 0.79612 0.00245 0.0
H1915 H 0.33926 0.77411 0.97096 0.0
H1916 H 0.38176 0.79654 0.96499 0.0
H1917 H 0.319 0.73562 0.98355 0.0
H1918 H 0.33311 0.81972 0.98399 0.0
H1919 H 0.3547 0.86295 0.98989 0.0
H1920 H 0.33558 0.83905 0.02142 0.0
H1921 H 0.31413 0.79566 0.01571 0.0
C1922 C 0.21027 0.70851 0.98224 0.0
C1923 C 0.19913 0.6861 0.98768 0.0
C1924 C 0.23265 0.72808 0.98563 0.0
C1925 C 0.24425 0.72529 0.99439 0.0
C1926 C 0.23131 0.70444 0.0007 0.0
C1927 C 0.20871 0.68487 0.99737 0.0
C1928 C 0.27142 0.73904 0.99456 0.0
C1929 C 0.28427 0.76355 0.99797 0.0
C1930 C 0.2843 0.7288 0.98959 0.0
C1931 C 0.27126 0.70334 0.9855 0.0
C1932 C 0.26544 0.68333 0.99209 0.0
C1933 C 0.25162 0.65923 0.98836 0.0
C1934 C 0.24385 0.65498 0.97804 0.0
C1935 C 0.24982 0.67485 0.97142 0.0
C1936 C 0.26348 0.69899 0.97513 0.0
C1937 C 0.39179 0.80957 0.99083 0.0
C1938 C 0.39744 0.80958 0.98026 0.0
C1939 C 0.36735 0.79645 0.99425 0.0
C1940 C 0.34818 0.78342 0.98715 0.0
C1941 C 0.35379 0.7839 0.97659 0.0
C1942 C 0.37812 0.79677 0.97318 0.0
C1943 C 0.32224 0.76837 0.99057 0.0
C1944 C 0.30945 0.74348 0.98766 0.0
C1945 C 0.30969 0.77839 0.99606 0.0
C1946 C 0.32225 0.80447 0.99944 0.0
C1947 C 0.33365 0.82369 0.99218 0.0
C1948 C 0.34583 0.84822 0.99549 0.0
C1949 C 0.34657 0.85374 0.00603 0.0
C1950 C 0.33503 0.83475 0.01327 0.0
C1951 C 0.32284 0.81019 0.01 0.0
H1952 H 0.35604 0.87274 0.00858 0.0
H1953 H 0.23319 0.63631 0.97517 0.0
H1954 H 0.18343 0.58309 0.99934 0.0
H1955 H 0.20114 0.55765 0.0048 0.0
H1956 H 0.20662 0.541 0.97282 0.0
H1957 H 0.1896 0.56672 0.96731 0.0
H1958 H 0.18757 0.49889 0.9876 0.0
H1959 H 0.25549 0.58388 0.98187 0.0
H1960 H 0.27787 0.62856 0.98535 0.0
H1961 H 0.28156 0.61473 0.01771 0.0
H1962 H 0.2591 0.56989 0.01441 0.0
H1963 H 0.28479 0.49171 0.96811 0.0
H1964 H 0.24857 0.49122 0.97496 0.0
H1965 H 0.28213 0.51031 0.00528 0.0
H1966 H 0.31891 0.51138 0.99834 0.0
H1967 H 0.27499 0.5449 0.99867 0.0
H1968 H 0.2219 0.46011 0.0019 0.0
H1969 H 0.20145 0.41581 0.99783 0.0
H1970 H 0.16955 0.42755 0.97052 0.0
H1971 H 0.19009 0.47198 0.9743 0.0
C1972 C 0.18823 0.57381 0.99349 0.0
C1973 C 0.1853 0.57698 0.98289 0.0
C1974 C 0.19824 0.55928 0.99663 0.0
C1975 C 0.20494 0.54735 0.9892 0.0
C1976 C 0.2013 0.54988 0.97865 0.0
C1977 C 0.19181 0.56476 0.97552 0.0
C1978 C 0.21786 0.53402 0.99218 0.0
C1979 C 0.20664 0.50871 0.99011 0.0
C1980 C 0.24229 0.54677 0.9959 0.0
C1981 C 0.25532 0.57361 0.99793 0.0
C1982 C 0.26086 0.59038 0.98974 0.0
C1983 C 0.27363 0.61572 0.99167 0.0
C1984 C 0.281 0.62448 0.00176 0.0
C1985 C 0.27574 0.60791 0.00992 0.0
C1986 C 0.26302 0.58255 0.00802 0.0
C1987 C 0.28408 0.49477 0.97634 0.0
C1988 C 0.30496 0.50227 0.98261 0.0
C1989 C 0.26316 0.49426 0.98031 0.0
C1990 C 0.26265 0.50104 0.99064 0.0
C1991 C 0.28216 0.50518 0.99726 0.0
C1992 C 0.30317 0.50569 0.99328 0.0
C1993 C 0.24529 0.5097 0.99351 0.0
C1994 C 0.25561 0.53439 0.99666 0.0
C1995 C 0.22002 0.49625 0.99081 0.0
C1996 C 0.2076 0.46948 0.98841 0.0
C1997 C 0.21066 0.45331 0.99499 0.0
C1998 C 0.19902 0.42814 0.99273 0.0
C1999 C 0.18421 0.41887 0.98392 0.0
C2000 C 0.181 0.43475 0.97735 0.0
C2001 C 0.19259 0.45994 0.97956 0.0
H2002 H 0.17521 0.39939 0.9822 0.0
H2003 H 0.29087 0.64411 0.00323 0.0
H2004 H 0.21757 0.59171 0.51342 0.0
H2005 H 0.25368 0.59266 0.52123 0.0
H2006 H 0.24563 0.53577 0.50004 0.0
H2007 H 0.20864 0.53363 0.49285 0.0
H2008 H 0.27092 0.53522 0.51583 0.0
H2009 H 0.27222 0.60037 0.49379 0.0
H2010 H 0.26474 0.63475 0.49018 0.0
H2011 H 0.30847 0.67398 0.5166 0.0
H2012 H 0.31535 0.63939 0.52061 0.0
H2013 H 0.38557 0.60723 0.48351 0.0
H2014 H 0.34597 0.59782 0.49058 0.0
H2015 H 0.36469 0.57808 0.51985 0.0
H2016 H 0.40492 0.58747 0.51271 0.0
H2017 H 0.33684 0.61951 0.50658 0.0
H2018 H 0.30572 0.53176 0.52985 0.0
H2019 H 0.31382 0.49715 0.53125 0.0
H2020 H 0.3319 0.50373 0.49887 0.0
H2021 H 0.32363 0.53815 0.49727 0.0
C2022 C 0.22281 0.5785 0.51088 0.0
C2023 C 0.21065 0.56273 0.50252 0.0
C2024 C 0.24351 0.57914 0.51528 0.0
C2025 C 0.25296 0.565 0.51094 0.0
C2026 C 0.23889 0.54705 0.50348 0.0
C2027 C 0.21773 0.54582 0.49934 0.0
C2028 C 0.27929 0.57224 0.51226 0.0
C2029 C 0.28542 0.55382 0.51407 0.0
C2030 C 0.29839 0.59654 0.50997 0.0
C2031 C 0.29382 0.61708 0.50763 0.0
C2032 C 0.27994 0.61619 0.49891 0.0
C2033 C 0.27576 0.63569 0.49681 0.0
C2034 C 0.2859 0.65643 0.50322 0.0
C2035 C 0.30033 0.65776 0.51173 0.0
C2036 C 0.30425 0.63816 0.51395 0.0
C2037 C 0.38137 0.60086 0.49145 0.0
C2038 C 0.39837 0.59813 0.49756 0.0
C2039 C 0.35872 0.59557 0.4955 0.0
C2040 C 0.35246 0.58741 0.50575 0.0
C2041 C 0.36921 0.58433 0.51191 0.0
C2042 C 0.3921 0.58966 0.50782 0.0
C2043 C 0.32819 0.58233 0.50968 0.0
C2044 C 0.32255 0.60124 0.5089 0.0
C2045 C 0.30961 0.5585 0.51266 0.0
C2046 C 0.3144 0.53771 0.51349 0.0
C2047 C 0.3114 0.52578 0.52304 0.0
C2048 C 0.31601 0.5062 0.52387 0.0
C2049 C 0.32348 0.49832 0.51517 0.0
C2050 C 0.32623 0.50992 0.50562 0.0
C2051 C 0.32162 0.52948 0.50475 0.0
H2052 H 0.32706 0.48318 0.51583 0.0
H2053 H 0.2827 0.67153 0.50158 0.0
H2054 H 0.44633 0.66074 0.51886 0.0
H2055 H 0.45158 0.6949 0.52994 0.0
H2056 H 0.49515 0.74642 0.50595 0.0
H2057 H 0.49098 0.71255 0.49526 0.0
H2058 H 0.50681 0.76957 0.52383 0.0
H2059 H 0.42728 0.71078 0.50604 0.0
H2060 H 0.39087 0.66918 0.50426 0.0
H2061 H 0.37449 0.6693 0.53658 0.0
H2062 H 0.41098 0.71075 0.53854 0.0
H2063 H 0.46128 0.82987 0.49641 0.0
H2064 H 0.47678 0.80676 0.5058 0.0
H2065 H 0.43051 0.79947 0.53188 0.0
H2066 H 0.4152 0.82332 0.52246 0.0
H2067 H 0.42153 0.75529 0.52395 0.0
H2068 H 0.4909 0.82491 0.5368 0.0
H2069 H 0.52625 0.86723 0.53703 0.0
H2070 H 0.56165 0.84843 0.51316 0.0
H2071 H 0.52638 0.80611 0.51264 0.0
C2072 C 0.45817 0.67952 0.51628 0.0
C2073 C 0.46831 0.68426 0.50628 0.0
C2074 C 0.461 0.699 0.52255 0.0
C2075 C 0.47307 0.72319 0.51864 0.0
C2076 C 0.48565 0.72797 0.50915 0.0
C2077 C 0.48327 0.70861 0.50301 0.0
C2078 C 0.46829 0.74241 0.52293 0.0
C2079 C 0.48819 0.76651 0.52404 0.0
C2080 C 0.44395 0.73832 0.5237 0.0
C2081 C 0.42193 0.71362 0.52246 0.0
C2082 C 0.4159 0.70186 0.51275 0.0
C2083 C 0.39529 0.67833 0.51172 0.0
C2084 C 0.38044 0.66659 0.52031 0.0
C2085 C 0.38608 0.67839 0.52994 0.0
C2086 C 0.40672 0.70186 0.53102 0.0
C2087 C 0.45498 0.824 0.50427 0.0
C2088 C 0.43703 0.82821 0.50872 0.0
C2089 C 0.46403 0.811 0.50969 0.0
C2090 C 0.45504 0.80161 0.5196 0.0
C2091 C 0.43794 0.80686 0.5243 0.0
C2092 C 0.42922 0.82041 0.51892 0.0
C2093 C 0.46009 0.78263 0.52385 0.0
C2094 C 0.4402 0.75848 0.52438 0.0
C2095 C 0.48441 0.78678 0.52444 0.0
C2096 C 0.50594 0.8122 0.52472 0.0
C2097 C 0.50617 0.82979 0.53157 0.0
C2098 C 0.52621 0.85381 0.53175 0.0
C2099 C 0.5462 0.8605 0.52513 0.0
C2100 C 0.54618 0.84319 0.51831 0.0
C2101 C 0.52619 0.81914 0.51809 0.0
H2102 H 0.56169 0.87911 0.52527 0.0
H2103 H 0.36455 0.64837 0.51953 0.0
H2104 H 0.32946 0.80535 0.50635 0.0
H2105 H 0.28759 0.77709 0.51238 0.0
H2106 H 0.30211 0.71673 0.51061 0.0
H2107 H 0.34381 0.74472 0.505 0.0
H2108 H 0.25421 0.74419 0.50173 0.0
H2109 H 0.26609 0.66836 0.52448 0.0
H2110 H 0.29211 0.66756 0.53858 0.0
H2111 H 0.30857 0.73973 0.54827 0.0
H2112 H 0.28238 0.7409 0.53431 0.0
H2113 H 0.18846 0.63034 0.48232 0.0
H2114 H 0.21516 0.67041 0.48973 0.0
H2115 H 0.18131 0.64432 0.51969 0.0
H2116 H 0.15487 0.6031 0.51226 0.0
H2117 H 0.22796 0.66791 0.52206 0.0
H2118 H 0.17601 0.69117 0.50651 0.0
H2119 H 0.14827 0.69293 0.49342 0.0
H2120 H 0.2085 0.72833 0.47202 0.0
H2121 H 0.23654 0.72645 0.48488 0.0
C2122 C 0.32391 0.78616 0.50751 0.0
C2123 C 0.33993 0.77727 0.50503 0.0
C2124 C 0.29995 0.77002 0.51098 0.0
C2125 C 0.29159 0.74473 0.51203 0.0
C2126 C 0.3081 0.73618 0.51013 0.0
C2127 C 0.332 0.75226 0.50676 0.0
C2128 C 0.26494 0.72655 0.51331 0.0
C2129 C 0.24834 0.72772 0.50634 0.0
C2130 C 0.25668 0.70556 0.51974 0.0
C2131 C 0.27227 0.70476 0.52827 0.0
C2132 C 0.27507 0.68401 0.52965 0.0
C2133 C 0.28992 0.68351 0.53762 0.0
C2134 C 0.30201 0.70359 0.54431 0.0
C2135 C 0.29925 0.72421 0.54306 0.0
C2136 C 0.28444 0.72482 0.5351 0.0
C2137 C 0.18634 0.63307 0.49046 0.0
C2138 C 0.16964 0.61351 0.49672 0.0
C2139 C 0.20147 0.65622 0.49469 0.0
C2140 C 0.19992 0.66069 0.50524 0.0
C2141 C 0.18266 0.64138 0.5115 0.0
C2142 C 0.16756 0.6179 0.50726 0.0
C2143 C 0.21861 0.68474 0.50967 0.0
C2144 C 0.23357 0.68475 0.51776 0.0
C2145 C 0.22509 0.70711 0.50451 0.0
C2146 C 0.20845 0.70877 0.49672 0.0
C2147 C 0.18336 0.6993 0.49901 0.0
C2148 C 0.16756 0.7003 0.49162 0.0
C2149 C 0.17662 0.71077 0.4819 0.0
C2150 C 0.20152 0.7203 0.47956 0.0
C2151 C 0.2174 0.71935 0.48692 0.0
H2152 H 0.16435 0.71148 0.47619 0.0
H2153 H 0.31351 0.70316 0.55048 0.0
H2154 H 0.23505 0.70159 0.34765 0.0
H2155 H 0.21948 0.66318 0.33829 0.0
H2156 H 0.21336 0.69791 0.31045 0.0
H2157 H 0.23038 0.73734 0.31978 0.0
H2158 H 0.17502 0.63489 0.32745 0.0
H2159 H 0.22595 0.68078 0.29588 0.0
H2160 H 0.26283 0.71647 0.28841 0.0
H2161 H 0.30894 0.70498 0.30961 0.0
H2162 H 0.27233 0.66976 0.31738 0.0
H2163 H 0.18105 0.52674 0.32471 0.0
H2164 H 0.174 0.55716 0.31575 0.0
H2165 H 0.24869 0.61353 0.32267 0.0
H2166 H 0.25616 0.58339 0.33095 0.0
H2167 H 0.23644 0.62664 0.3063 0.0
H2168 H 0.195 0.59475 0.34047 0.0
H2169 H 0.16445 0.5614 0.35162 0.0
H2170 H 0.10719 0.54793 0.32984 0.0
H2171 H 0.13752 0.58112 0.31855 0.0
C2172 C 0.23043 0.70122 0.33954 0.0
C2173 C 0.23424 0.72259 0.33443 0.0
C2174 C 0.22137 0.67913 0.33419 0.0
C2175 C 0.21551 0.67768 0.32363 0.0
C2176 C 0.21828 0.69872 0.31853 0.0
C2177 C 0.22777 0.72115 0.3239 0.0
C2178 C 0.20791 0.65405 0.31826 0.0
C2179 C 0.18781 0.63288 0.32244 0.0
C2180 C 0.22454 0.65142 0.31173 0.0
C2181 C 0.24644 0.67297 0.30729 0.0
C2182 C 0.24397 0.68614 0.29902 0.0
C2183 C 0.26482 0.70626 0.29474 0.0
C2184 C 0.28823 0.7131 0.29858 0.0
C2185 C 0.29083 0.6998 0.30669 0.0
C2186 C 0.27004 0.67984 0.31107 0.0
C2187 C 0.19616 0.54548 0.32401 0.0
C2188 C 0.21894 0.55279 0.32884 0.0
C2189 C 0.19207 0.56289 0.31892 0.0
C2190 C 0.21053 0.58786 0.3188 0.0
C2191 C 0.23399 0.59448 0.32267 0.0
C2192 C 0.23819 0.57716 0.32755 0.0
C2193 C 0.20513 0.60792 0.31645 0.0
C2194 C 0.22252 0.62821 0.31068 0.0
C2195 C 0.18664 0.61 0.32192 0.0
C2196 C 0.16847 0.59009 0.32864 0.0
C2197 C 0.17589 0.58458 0.33807 0.0
C2198 C 0.15865 0.56573 0.3444 0.0
C2199 C 0.13391 0.5525 0.34142 0.0
C2200 C 0.12637 0.55814 0.33212 0.0
C2201 C 0.14356 0.57694 0.32575 0.0
H2202 H 0.12058 0.53793 0.34633 0.0
H2203 H 0.30437 0.72864 0.29525 0.0
H2204 H 0.25739 0.49655 0.32136 0.0
H2205 H 0.30045 0.52244 0.31584 0.0
H2206 H 0.32139 0.5456 0.34753 0.0
H2207 H 0.27906 0.51968 0.35302 0.0
H2208 H 0.32628 0.57014 0.31661 0.0
H2209 H 0.37692 0.56081 0.35332 0.0
H2210 H 0.37434 0.52741 0.36427 0.0
H2211 H 0.33836 0.4755 0.33965 0.0
H2212 H 0.34105 0.50863 0.32846 0.0
H2213 H 0.41427 0.67929 0.33756 0.0
H2214 H 0.38138 0.63931 0.33198 0.0
H2215 H 0.43405 0.61532 0.32652 0.0
H2216 H 0.46731 0.65543 0.33238 0.0
H2217 H 0.39832 0.58252 0.33729 0.0
H2218 H 0.40161 0.62159 0.30635 0.0
H2219 H 0.40501 0.65346 0.2942 0.0
H2220 H 0.33523 0.64264 0.30453 0.0
H2221 H 0.33178 0.61144 0.31706 0.0
C2222 C 0.27137 0.50672 0.32714 0.0
C2223 C 0.26491 0.50622 0.33761 0.0
C2224 C 0.29591 0.52152 0.32399 0.0
C2225 C 0.31425 0.53575 0.33128 0.0
C2226 C 0.30779 0.53437 0.34177 0.0
C2227 C 0.28346 0.5197 0.3449 0.0
C2228 C 0.33951 0.5545 0.32804 0.0
C2229 C 0.34216 0.57273 0.32099 0.0
C2230 C 0.36049 0.55724 0.33336 0.0
C2231 C 0.35921 0.53729 0.34003 0.0
C2232 C 0.36868 0.54234 0.35018 0.0
C2233 C 0.36713 0.52342 0.35645 0.0
C2234 C 0.35619 0.49935 0.35266 0.0
C2235 C 0.3468 0.49415 0.34258 0.0
C2236 C 0.34831 0.51299 0.33628 0.0
C2237 C 0.41902 0.66569 0.33507 0.0
C2238 C 0.44346 0.67054 0.33554 0.0
C2239 C 0.40015 0.64284 0.33175 0.0
C2240 C 0.40522 0.62434 0.32869 0.0
C2241 C 0.4297 0.62935 0.3288 0.0
C2242 C 0.44868 0.65228 0.33216 0.0
C2243 C 0.38446 0.59915 0.32662 0.0
C2244 C 0.38271 0.57968 0.33263 0.0
C2245 C 0.36452 0.59505 0.32013 0.0
C2246 C 0.36647 0.61409 0.31269 0.0
C2247 C 0.38709 0.62618 0.30613 0.0
C2248 C 0.38906 0.6442 0.29919 0.0
C2249 C 0.37041 0.65018 0.29864 0.0
C2250 C 0.34975 0.63814 0.30503 0.0
C2251 C 0.34777 0.62025 0.31206 0.0
H2252 H 0.37192 0.66408 0.29324 0.0
H2253 H 0.35499 0.48473 0.35753 0.0
H2254 H 0.30738 0.7422 0.32001 0.0
H2255 H 0.34453 0.74676 0.31154 0.0
H2256 H 0.38966 0.80504 0.33292 0.0
H2257 H 0.35265 0.80162 0.34084 0.0
H2258 H 0.41433 0.81171 0.3157 0.0
H2259 H 0.36636 0.74219 0.33869 0.0
H2260 H 0.32841 0.70456 0.34403 0.0
H2261 H 0.32776 0.66965 0.31533 0.0
H2262 H 0.36567 0.70717 0.30977 0.0
H2263 H 0.49918 0.78726 0.33998 0.0
H2264 H 0.468 0.79572 0.33302 0.0
H2265 H 0.45252 0.74318 0.30849 0.0
H2266 H 0.48421 0.7349 0.31539 0.0
H2267 H 0.4125 0.73237 0.32084 0.0
H2268 H 0.47116 0.80125 0.30171 0.0
H2269 H 0.51034 0.83956 0.29848 0.0
H2270 H 0.49284 0.87645 0.32216 0.0
H2271 H 0.45372 0.83829 0.32565 0.0
C2272 C 0.32531 0.75655 0.32258 0.0
C2273 C 0.32737 0.77137 0.33109 0.0
C2274 C 0.34646 0.75908 0.31781 0.0
C2275 C 0.36984 0.77561 0.32184 0.0
C2276 C 0.37185 0.79204 0.3297 0.0
C2277 C 0.35071 0.79005 0.33425 0.0
C2278 C 0.39159 0.77315 0.31923 0.0
C2279 C 0.41396 0.79436 0.31675 0.0
C2280 C 0.39101 0.75035 0.32035 0.0
C2281 C 0.36861 0.72757 0.32376 0.0
C2282 C 0.35808 0.72649 0.33351 0.0
C2283 C 0.33661 0.70519 0.33657 0.0
C2284 C 0.3257 0.68473 0.33001 0.0
C2285 C 0.33633 0.68548 0.32041 0.0
C2286 C 0.35777 0.70677 0.31728 0.0
C2287 C 0.48972 0.77815 0.33289 0.0
C2288 C 0.494 0.76044 0.32822 0.0
C2289 C 0.47201 0.78309 0.32888 0.0
C2290 C 0.45806 0.7702 0.32019 0.0
C2291 C 0.4633 0.7535 0.31513 0.0
C2292 C 0.4814 0.74884 0.31906 0.0
C2293 C 0.43546 0.77113 0.31773 0.0
C2294 C 0.41282 0.74957 0.31933 0.0
C2295 C 0.436 0.79369 0.31606 0.0
C2296 C 0.45946 0.81683 0.31395 0.0
C2297 C 0.47571 0.81748 0.30627 0.0
C2298 C 0.49791 0.83919 0.30439 0.0
C2299 C 0.50408 0.86042 0.31011 0.0
C2300 C 0.48803 0.86 0.31772 0.0
C2301 C 0.4658 0.83834 0.31964 0.0
H2302 H 0.52128 0.8772 0.30864 0.0
H2303 H 0.30901 0.66828 0.33237 0.0
H2304 H 0.14633 0.16629 0.2806 0.0
H2305 H 0.1649 0.16735 0.26393 0.0
H2306 H 0.22828 0.23726 0.27176 0.0
H2307 H 0.2098 0.2361 0.28878 0.0
H2308 H 0.20289 0.23193 0.25082 0.0
H2309 H 0.24017 0.1962 0.27149 0.0
H2310 H 0.24058 0.16813 0.28477 0.0
H2311 H 0.19029 0.10575 0.26654 0.0
H2312 H 0.18879 0.13331 0.25338 0.0
H2313 H 0.23074 0.19863 0.19995 0.0
H2314 H 0.23746 0.21652 0.21749 0.0
H2315 H 0.17733 0.14813 0.22895 0.0
H2316 H 0.17068 0.13038 0.21175 0.0
H2317 H 0.21848 0.16454 0.24082 0.0
H2318 H 0.16987 0.19673 0.22459 0.0
H2319 H 0.16257 0.22132 0.21164 0.0
H2320 H 0.22857 0.2864 0.22135 0.0
H2321 H 0.23638 0.26207 0.23429 0.0
C2322 C 0.1643 0.18185 0.27885 0.0
C2323 C 0.17665 0.2011 0.28599 0.0
C2324 C 0.17488 0.18241 0.26932 0.0
C2325 C 0.19794 0.20234 0.26666 0.0
C2326 C 0.21047 0.22172 0.27372 0.0
C2327 C 0.19998 0.22097 0.28342 0.0
C2328 C 0.20811 0.20242 0.25633 0.0
C2329 C 0.20717 0.21777 0.24864 0.0
C2330 C 0.21323 0.18364 0.25354 0.0
C2331 C 0.21435 0.16692 0.26143 0.0
C2332 C 0.22901 0.17649 0.27036 0.0
C2333 C 0.22938 0.16064 0.27789 0.0
C2334 C 0.21538 0.13515 0.27654 0.0
C2335 C 0.20103 0.12547 0.26763 0.0
C2336 C 0.20041 0.14121 0.26013 0.0
C2337 C 0.21892 0.18757 0.20623 0.0
C2338 C 0.20029 0.16307 0.2045 0.0
C2339 C 0.2228 0.19777 0.21621 0.0
C2340 C 0.20806 0.18352 0.22452 0.0
C2341 C 0.18914 0.15933 0.22268 0.0
C2342 C 0.18529 0.14924 0.21281 0.0
C2343 C 0.21181 0.19306 0.23526 0.0
C2344 C 0.21539 0.17947 0.24303 0.0
C2345 C 0.20851 0.21301 0.23809 0.0
C2346 C 0.20391 0.22755 0.23028 0.0
C2347 C 0.18295 0.21623 0.22388 0.0
C2348 C 0.17869 0.23013 0.21656 0.0
C2349 C 0.19516 0.25539 0.21564 0.0
C2350 C 0.21588 0.26681 0.22205 0.0
C2351 C 0.22023 0.25299 0.22938 0.0
H2352 H 0.19182 0.26613 0.20997 0.0
H2353 H 0.21568 0.12289 0.28238 0.0
H2354 H 0.78781 0.01433 0.2059 0.0
H2355 H 0.76966 0.00154 0.22329 0.0
H2356 H 0.82911 0.98923 0.23204 0.0
H2357 H 0.84694 0.00162 0.21486 0.0
H2358 H 0.78669 0.9547 0.24023 0.0
H2359 H 0.83145 0.04498 0.23638 0.0
H2360 H 0.83745 0.0834 0.22842 0.0
H2361 H 0.76442 0.06525 0.23757 0.0
H2362 H 0.75792 0.02657 0.24549 0.0
H2363 H 0.83992 0.99049 0.28723 0.0
H2364 H 0.83092 0.99725 0.26957 0.0
H2365 H 0.75732 0.97818 0.27868 0.0
H2366 H 0.7663 0.97135 0.29658 0.0
H2367 H 0.78983 0.02211 0.26158 0.0
H2368 H 0.75121 0.93478 0.26936 0.0
H2369 H 0.75083 0.89948 0.278 0.0
H2370 H 0.81632 0.91417 0.26154 0.0
H2371 H 0.81732 0.94981 0.25294 0.0
C2372 C 0.79659 0.00831 0.21149 0.0
C2373 C 0.8189 0.0092 0.2091 0.0
C2374 C 0.7863 0.00115 0.22141 0.0
C2375 C 0.7982 0.99472 0.22899 0.0
C2376 C 0.81958 0.9941 0.22633 0.0
C2377 C 0.82985 0.00132 0.21651 0.0
C2378 C 0.79027 0.99071 0.23999 0.0
C2379 C 0.78682 0.96921 0.24486 0.0
C2380 C 0.79006 0.00948 0.24604 0.0
C2381 C 0.7941 0.0328 0.2414 0.0
C2382 C 0.81664 0.04914 0.23664 0.0
C2383 C 0.82014 0.07095 0.23214 0.0
C2384 C 0.8013 0.07672 0.23246 0.0
C2385 C 0.77897 0.06073 0.23731 0.0
C2386 C 0.77537 0.03887 0.2418 0.0
C2387 C 0.82201 0.98834 0.28557 0.0
C2388 C 0.80368 0.98007 0.29322 0.0
C2389 C 0.81694 0.9923 0.27548 0.0
C2390 C 0.79341 0.98794 0.27285 0.0
C2391 C 0.7756 0.98167 0.28062 0.0
C2392 C 0.78075 0.97779 0.29081 0.0
C2393 C 0.78713 0.98651 0.26174 0.0
C2394 C 0.78821 0.00702 0.25688 0.0
C2395 C 0.78538 0.96694 0.25567 0.0
C2396 C 0.78434 0.94498 0.26053 0.0
C2397 C 0.76558 0.93053 0.26762 0.0
C2398 C 0.76526 0.91047 0.27251 0.0
C2399 C 0.78355 0.90459 0.27032 0.0
C2400 C 0.80215 0.91872 0.26321 0.0
C2401 C 0.80257 0.93882 0.25832 0.0
H2402 H 0.7833 0.88909 0.27413 0.0
H2403 H 0.80403 0.09361 0.22896 0.0
H2404 H 0.03476 0.79054 0.29692 0.0
H2405 H 0.02187 0.7694 0.28005 0.0
H2406 H 0.99307 0.81662 0.27138 0.0
H2407 H 0.00618 0.83782 0.28793 0.0
H2408 H 0.96311 0.76772 0.26486 0.0
H2409 H 0.05064 0.83359 0.26527 0.0
H2410 H 0.09309 0.85142 0.27191 0.0
H2411 H 0.09385 0.78554 0.26345 0.0
H2412 H 0.05125 0.76725 0.25687 0.0
H2413 H 0.98413 0.82709 0.21888 0.0
H2414 H 0.99246 0.81723 0.2361 0.0
H2415 H 0.99162 0.75265 0.2241 0.0
H2416 H 0.98288 0.7623 0.20661 0.0
H2417 H 0.03344 0.79136 0.24093 0.0
H2418 H 0.94805 0.73252 0.23519 0.0
H2419 H 0.90671 0.71929 0.22813 0.0
H2420 H 0.90217 0.77391 0.24656 0.0
H2421 H 0.94366 0.78776 0.25359 0.0
C2422 C 0.02516 0.79593 0.29148 0.0
C2423 C 0.0216 0.81589 0.29366 0.0
C2424 C 0.01787 0.78391 0.28187 0.0
C2425 C 0.00657 0.79151 0.27448 0.0
C2426 C 0.00163 0.81037 0.27699 0.0
C2427 C 0.00927 0.82259 0.28643 0.0
C2428 C 0.00225 0.78235 0.26368 0.0
C2429 C 0.97836 0.77223 0.25964 0.0
C2430 C 0.02211 0.78786 0.2569 0.0
C2431 C 0.04775 0.79897 0.26071 0.0
C2432 C 0.05984 0.82288 0.26489 0.0
C2433 C 0.08391 0.83307 0.26863 0.0
C2434 C 0.09614 0.81959 0.26814 0.0
C2435 C 0.08434 0.79594 0.26385 0.0
C2436 C 0.06024 0.78565 0.26012 0.0
C2437 C 0.986 0.81093 0.21982 0.0
C2438 C 0.98261 0.79533 0.21141 0.0
C2439 C 0.9908 0.80536 0.22967 0.0
C2440 C 0.99243 0.78415 0.23133 0.0
C2441 C 0.99038 0.7691 0.22291 0.0
C2442 C 0.9854 0.77463 0.21297 0.0
C2443 C 0.99444 0.77754 0.24213 0.0
C2444 C 0.01792 0.78515 0.24617 0.0
C2445 C 0.97421 0.76977 0.24892 0.0
C2446 C 0.949 0.7612 0.2449 0.0
C2447 C 0.93829 0.7418 0.2377 0.0
C2448 C 0.91482 0.73418 0.2337 0.0
C2449 C 0.90182 0.74575 0.2369 0.0
C2450 C 0.91224 0.76494 0.24411 0.0
C2451 C 0.93572 0.77265 0.24811 0.0
H2452 H 0.88367 0.73985 0.23379 0.0
H2453 H 0.11477 0.82749 0.27105 0.0
H2454 H 0.9154 0.86423 0.71598 0.0
H2455 H 0.89654 0.85763 0.73298 0.0
H2456 H 0.82558 0.8069 0.71989 0.0
H2457 H 0.8444 0.81344 0.70265 0.0
H2458 H 0.824 0.84079 0.7331 0.0
H2459 H 0.85071 0.78314 0.73485 0.0
H2460 H 0.87828 0.7661 0.73245 0.0
H2461 H 0.9308 0.82022 0.75333 0.0
H2462 H 0.90375 0.83788 0.75573 0.0
H2463 H 0.79762 0.84352 0.78735 0.0
H2464 H 0.79849 0.82302 0.77126 0.0
H2465 H 0.87653 0.87365 0.76849 0.0
H2466 H 0.87577 0.89427 0.7844 0.0
H2467 H 0.86186 0.8237 0.76345 0.0
H2468 H 0.83836 0.88685 0.75653 0.0
H2469 H 0.81041 0.9036 0.75869 0.0
H2470 H 0.74985 0.83575 0.74748 0.0
H2471 H 0.77745 0.81853 0.74537 0.0
C2472 C 0.89578 0.85161 0.71665 0.0
C2473 C 0.88144 0.83938 0.70792 0.0
C2474 C 0.88506 0.8477 0.72642 0.0
C2475 C 0.85975 0.83144 0.72771 0.0
C2476 C 0.84519 0.81934 0.71904 0.0
C2477 C 0.85599 0.82312 0.70921 0.0
C2478 C 0.84886 0.8285 0.73815 0.0
C2479 C 0.83166 0.83626 0.73973 0.0
C2480 C 0.85875 0.82246 0.74678 0.0
C2481 C 0.87516 0.81188 0.74545 0.0
C2482 C 0.8682 0.79152 0.73889 0.0
C2483 C 0.88374 0.78173 0.73753 0.0
C2484 C 0.90628 0.79207 0.74273 0.0
C2485 C 0.91331 0.81221 0.74932 0.0
C2486 C 0.89785 0.82209 0.75069 0.0
C2487 C 0.81499 0.85 0.78337 0.0
C2488 C 0.83658 0.87068 0.78703 0.0
C2489 C 0.81545 0.83829 0.77421 0.0
C2490 C 0.83756 0.84692 0.76871 0.0
C2491 C 0.85931 0.8667 0.77266 0.0
C2492 C 0.85881 0.8786 0.78169 0.0
C2493 C 0.83816 0.83726 0.75834 0.0
C2494 C 0.85345 0.82717 0.7568 0.0
C2495 C 0.82629 0.84087 0.74975 0.0
C2496 C 0.80985 0.85132 0.75092 0.0
C2497 C 0.81905 0.87547 0.7546 0.0
C2498 C 0.80329 0.88505 0.7558 0.0
C2499 C 0.77835 0.87072 0.75326 0.0
C2500 C 0.76916 0.84681 0.74947 0.0
C2501 C 0.78484 0.83713 0.74827 0.0
H2502 H 0.76618 0.87816 0.7542 0.0
H2503 H 0.91829 0.78447 0.74167 0.0
H2504 H 0.15425 0.96208 0.78531 0.0
H2505 H 0.17212 0.97695 0.76803 0.0
H2506 H 0.14148 0.02515 0.76767 0.0
H2507 H 0.12314 0.00992 0.78464 0.0
H2508 H 0.12588 0.99397 0.75164 0.0
H2509 H 0.20403 0.04677 0.76902 0.0
H2510 H 0.23923 0.05459 0.78014 0.0
H2511 H 0.25603 0.01032 0.76007 0.0
H2512 H 0.22073 0.00199 0.7489 0.0
H2513 H 0.16763 0.07742 0.71311 0.0
H2514 H 0.1704 0.06251 0.7302 0.0
H2515 H 0.18661 0.00974 0.71623 0.0
H2516 H 0.18421 0.02496 0.69891 0.0
H2517 H 0.21137 0.03506 0.73804 0.0
H2518 H 0.13393 0.98426 0.72016 0.0
H2519 H 0.09954 0.97843 0.70895 0.0
H2520 H 0.08164 0.01953 0.73038 0.0
H2521 H 0.11618 0.02592 0.74164 0.0
C2522 C 0.15193 0.97631 0.78162 0.0
C2523 C 0.13705 0.98463 0.78619 0.0
C2524 C 0.16214 0.98478 0.77177 0.0
C2525 C 0.15789 0.00195 0.76654 0.0
C2526 C 0.14474 0.01169 0.77153 0.0
C2527 C 0.13428 0.00299 0.78122 0.0
C2528 C 0.16406 0.00769 0.75544 0.0
C2529 C 0.14461 0.00291 0.7487 0.0
C2530 C 0.18834 0.01841 0.75149 0.0
C2531 C 0.20957 0.02351 0.7582 0.0
C2532 C 0.21509 0.03852 0.76703 0.0
C2533 C 0.2351 0.04309 0.77333 0.0
C2534 C 0.24981 0.03289 0.77083 0.0
C2535 C 0.2446 0.01817 0.76201 0.0
C2536 C 0.22461 0.01354 0.75569 0.0
C2537 C 0.17233 0.06301 0.71366 0.0
C2538 C 0.17518 0.05196 0.7047 0.0
C2539 C 0.17415 0.05469 0.72342 0.0
C2540 C 0.17853 0.03496 0.72443 0.0
C2541 C 0.18338 0.02512 0.71557 0.0
C2542 C 0.18183 0.03369 0.70571 0.0
C2543 C 0.17327 0.02224 0.73452 0.0
C2544 C 0.19267 0.02554 0.741 0.0
C2545 C 0.14888 0.01001 0.73832 0.0
C2546 C 0.1277 0.00566 0.7317 0.0
C2547 C 0.12274 0.99216 0.72245 0.0
C2548 C 0.10321 0.98875 0.71609 0.0
C2549 C 0.08843 0.99863 0.71894 0.0
C2550 C 0.0931 0.01188 0.72818 0.0
C2551 C 0.11262 0.01536 0.73456 0.0
H2552 H 0.07334 0.996 0.714 0.0
H2553 H 0.26528 0.03645 0.77572 0.0
H2554 H 0.97654 0.08465 0.71447 0.0
H2555 H 0.99389 0.09986 0.73155 0.0
H2556 H 0.98048 0.16056 0.7281 0.0
H2557 H 0.96284 0.14536 0.7108 0.0
H2558 H 0.0281 0.17086 0.73884 0.0
H2559 H 0.9404 0.11942 0.74077 0.0
H2560 H 0.90051 0.08301 0.73637 0.0
H2561 H 0.92468 0.03562 0.74938 0.0
H2562 H 0.96489 0.07175 0.75371 0.0
H2563 H 0.03995 0.18074 0.79487 0.0
H2564 H 0.02605 0.18035 0.7771 0.0
H2565 H 0.01819 0.10868 0.77228 0.0
H2566 H 0.0317 0.1087 0.78996 0.0
H2567 H 0.97802 0.11017 0.76598 0.0
H2568 H 0.06684 0.16108 0.76232 0.0
H2569 H 0.1074 0.19711 0.76627 0.0
H2570 H 0.08136 0.2456 0.75655 0.0
H2571 H 0.04052 0.20983 0.75267 0.0
C2572 C 0.9775 0.10142 0.71724 0.0
C2573 C 0.96786 0.11353 0.71135 0.0
C2574 C 0.98756 0.11015 0.72699 0.0
C2575 C 0.98813 0.1311 0.7311 0.0
C2576 C 0.98013 0.14432 0.72502 0.0
C2577 C 0.97003 0.13558 0.71517 0.0
C2578 C 0.99458 0.13707 0.74215 0.0
C2579 C 0.01695 0.15796 0.74484 0.0
C2580 C 0.98004 0.12008 0.74991 0.0
C2581 C 0.95571 0.09829 0.74751 0.0
C2582 C 0.93727 0.10122 0.74264 0.0
C2583 C 0.91459 0.08064 0.74016 0.0
C2584 C 0.91007 0.05701 0.74258 0.0
C2585 C 0.9282 0.05393 0.74751 0.0
C2586 C 0.95093 0.07446 0.74999 0.0
C2587 C 0.03535 0.16492 0.79001 0.0
C2588 C 0.03694 0.14473 0.79387 0.0
C2589 C 0.0275 0.1648 0.77985 0.0
C2590 C 0.02119 0.14453 0.77336 0.0
C2591 C 0.02293 0.12449 0.77717 0.0
C2592 C 0.03075 0.12458 0.78729 0.0
C2593 C 0.01204 0.14352 0.76269 0.0
C2594 C 0.989 0.12346 0.76006 0.0
C2595 C 0.02598 0.16135 0.75505 0.0
C2596 C 0.05055 0.1828 0.75733 0.0
C2597 C 0.0697 0.17943 0.76111 0.0
C2598 C 0.09276 0.1998 0.76332 0.0
C2599 C 0.09693 0.22363 0.7617 0.0
C2600 C 0.07808 0.22713 0.75783 0.0
C2601 C 0.05499 0.20682 0.75561 0.0
H2602 H 0.11479 0.23937 0.76342 0.0
H2603 H 0.89251 0.04109 0.74065 0.0
H2604 H 0.88294 0.53649 0.53959 0.0
H2605 H 0.89128 0.55735 0.55652 0.0
H2606 H 0.84777 0.48701 0.57153 0.0
H2607 H 0.83949 0.4663 0.55488 0.0
H2608 H 0.85892 0.55765 0.57092 0.0
H2609 H 0.87297 0.48441 0.59335 0.0
H2610 H 0.89279 0.45952 0.5903 0.0
H2611 H 0.94084 0.512 0.56778 0.0
H2612 H 0.92158 0.53743 0.5708 0.0
H2613 H 0.79997 0.51766 0.61729 0.0
H2614 H 0.81951 0.52503 0.60041 0.0
H2615 H 0.89118 0.56186 0.61486 0.0
H2616 H 0.87147 0.55466 0.63202 0.0
H2617 H 0.88539 0.52609 0.60063 0.0
H2618 H 0.87779 0.59655 0.60044 0.0
H2619 H 0.85871 0.62214 0.60345 0.0
H2620 H 0.80162 0.57872 0.58158 0.0
H2621 H 0.8201 0.5526 0.57855 0.0
C2622 C 0.87523 0.52557 0.54653 0.0
C2623 C 0.86062 0.49977 0.54592 0.0
C2624 C 0.88005 0.53747 0.55616 0.0
C2625 C 0.87058 0.52366 0.56528 0.0
C2626 C 0.85577 0.49798 0.56462 0.0
C2627 C 0.85088 0.48617 0.55507 0.0
C2628 C 0.8747 0.53554 0.57557 0.0
C2629 C 0.86515 0.55119 0.57741 0.0
C2630 C 0.88375 0.52785 0.58398 0.0
C2631 C 0.89579 0.51286 0.58231 0.0
C2632 C 0.88792 0.4908 0.58783 0.0
C2633 C 0.89902 0.47654 0.58608 0.0
C2634 C 0.91805 0.48417 0.57885 0.0
C2635 C 0.92607 0.50609 0.57337 0.0
C2636 C 0.91505 0.52042 0.57509 0.0
C2637 C 0.8199 0.5275 0.61692 0.0
C2638 C 0.83421 0.53553 0.62597 0.0
C2639 C 0.83106 0.53192 0.60724 0.0
C2640 C 0.85679 0.54436 0.60637 0.0
C2641 C 0.87128 0.55248 0.61538 0.0
C2642 C 0.86003 0.54833 0.62515 0.0
C2643 C 0.86778 0.54651 0.596 0.0
C2644 C 0.88012 0.53343 0.59413 0.0
C2645 C 0.86162 0.55687 0.58757 0.0
C2646 C 0.85039 0.57259 0.58926 0.0
C2647 C 0.86109 0.59237 0.5963 0.0
C2648 C 0.85038 0.60698 0.59801 0.0
C2649 C 0.82897 0.60206 0.5927 0.0
C2650 C 0.81824 0.58253 0.58567 0.0
C2651 C 0.82887 0.56785 0.58393 0.0
H2652 H 0.8207 0.61339 0.59404 0.0
H2653 H 0.92659 0.47309 0.5775 0.0
H2654 H 0.50238 0.34465 0.54927 0.0
H2655 H 0.48146 0.32967 0.56574 0.0
H2656 H 0.42324 0.34248 0.55561 0.0
H2657 H 0.44412 0.35717 0.53872 0.0
H2658 H 0.45054 0.36419 0.57686 0.0
H2659 H 0.40116 0.28911 0.55905 0.0
H2660 H 0.39261 0.25629 0.54641 0.0
H2661 H 0.4414 0.23857 0.56276 0.0
H2662 H 0.45056 0.27151 0.57541 0.0
H2663 H 0.43228 0.31043 0.62963 0.0
H2664 H 0.41924 0.31777 0.61257 0.0
H2665 H 0.47637 0.30936 0.59787 0.0
H2666 H 0.48961 0.30256 0.61461 0.0
H2667 H 0.42742 0.28029 0.58902 0.0
H2668 H 0.48723 0.36407 0.60139 0.0
H2669 H 0.50027 0.39886 0.61351 0.0
H2670 H 0.43397 0.40069 0.60711 0.0
H2671 H 0.42042 0.36566 0.59504 0.0
C2672 C 0.48502 0.34409 0.55044 0.0
C2673 C 0.47488 0.35208 0.54271 0.0
C2674 C 0.47305 0.33546 0.55986 0.0
C2675 C 0.45084 0.33494 0.56185 0.0
C2676 C 0.44037 0.34271 0.55416 0.0
C2677 C 0.45221 0.35095 0.54455 0.0
C2678 C 0.43993 0.32715 0.57227 0.0
C2679 C 0.44438 0.34558 0.57953 0.0
C2680 C 0.43214 0.30295 0.5757 0.0
C2681 C 0.42648 0.28279 0.56821 0.0
C2682 C 0.41014 0.27828 0.55993 0.0
C2683 C 0.40519 0.25964 0.55276 0.0
C2684 C 0.41644 0.24533 0.55379 0.0
C2685 C 0.43265 0.24962 0.56199 0.0
C2686 C 0.43767 0.26824 0.56918 0.0
C2687 C 0.44207 0.31032 0.62273 0.0
C2688 C 0.46192 0.30587 0.62344 0.0
C2689 C 0.43457 0.31441 0.61304 0.0
C2690 C 0.44667 0.31375 0.604 0.0
C2691 C 0.46661 0.30962 0.60476 0.0
C2692 C 0.47425 0.30589 0.61436 0.0
C2693 C 0.43947 0.31764 0.59357 0.0
C2694 C 0.43187 0.29846 0.58635 0.0
C2695 C 0.44454 0.34116 0.59019 0.0
C2696 C 0.45264 0.36205 0.59746 0.0
C2697 C 0.47532 0.37174 0.60266 0.0
C2698 C 0.48283 0.39152 0.60949 0.0
C2699 C 0.4679 0.40191 0.61111 0.0
C2700 C 0.44547 0.39257 0.60587 0.0
C2701 C 0.43786 0.37275 0.59904 0.0
H2702 H 0.47376 0.41725 0.6164 0.0
H2703 H 0.4126 0.23093 0.54822 0.0
H2704 H 0.62366 0.08652 0.5346 0.0
H2705 H 0.63865 0.07866 0.55105 0.0
H2706 H 0.66774 0.15464 0.55978 0.0
H2707 H 0.65224 0.1623 0.54375 0.0
H2708 H 0.70041 0.13192 0.56276 0.0
H2709 H 0.61611 0.11988 0.56881 0.0
H2710 H 0.57147 0.097 0.5652 0.0
H2711 H 0.56857 0.02911 0.57325 0.0
H2712 H 0.61329 0.05165 0.57678 0.0
H2713 H 0.7119 0.18694 0.60858 0.0
H2714 H 0.69925 0.16671 0.5919 0.0
H2715 H 0.67286 0.09596 0.60648 0.0
H2716 H 0.68563 0.11641 0.62353 0.0
H2717 H 0.63983 0.0973 0.59149 0.0
H2718 H 0.72165 0.11414 0.59231 0.0
H2719 H 0.76613 0.13756 0.59609 0.0
H2720 H 0.77488 0.19427 0.57494 0.0
H2721 H 0.73041 0.17143 0.57115 0.0
C2722 C 0.63349 0.10152 0.54001 0.0
C2723 C 0.63677 0.12501 0.53793 0.0
C2724 C 0.642 0.09701 0.54936 0.0
C2725 C 0.65437 0.11614 0.55655 0.0
C2726 C 0.65837 0.13971 0.55428 0.0
C2727 C 0.64941 0.14404 0.54513 0.0
C2728 C 0.66203 0.11204 0.56683 0.0
C2729 C 0.68727 0.12392 0.56905 0.0
C2730 C 0.6448 0.10074 0.57493 0.0
C2731 C 0.61799 0.08736 0.57293 0.0
C2732 C 0.60595 0.10006 0.56973 0.0
C2733 C 0.58065 0.08717 0.56771 0.0
C2734 C 0.5672 0.0616 0.56896 0.0
C2735 C 0.57901 0.0489 0.57226 0.0
C2736 C 0.60433 0.06172 0.57427 0.0
C2737 C 0.70346 0.16707 0.60832 0.0
C2738 C 0.69987 0.15328 0.61738 0.0
C2739 C 0.69636 0.15553 0.59874 0.0
C2740 C 0.68559 0.1299 0.59792 0.0
C2741 C 0.68141 0.11581 0.60695 0.0
C2742 C 0.68868 0.12748 0.61665 0.0
C2743 C 0.67831 0.11862 0.5875 0.0
C2744 C 0.65315 0.10402 0.58522 0.0
C2745 C 0.69569 0.12718 0.57932 0.0
C2746 C 0.72262 0.14097 0.58142 0.0
C2747 C 0.73303 0.13164 0.58848 0.0
C2748 C 0.75826 0.14483 0.59063 0.0
C2749 C 0.77333 0.16737 0.58575 0.0
C2750 C 0.76319 0.17676 0.5787 0.0
C2751 C 0.73797 0.16366 0.57652 0.0
H2752 H 0.79285 0.17756 0.58744 0.0
H2753 H 0.54761 0.05165 0.56739 0.0
H2754 H 0.58448 0.21317 0.04639 0.0
H2755 H 0.57124 0.21239 0.06416 0.0
H2756 H 0.49975 0.15056 0.05697 0.0
H2757 H 0.5128 0.15119 0.03901 0.0
H2758 H 0.49657 0.18552 0.06861 0.0
H2759 H 0.53744 0.13984 0.07081 0.0
H2760 H 0.57002 0.12946 0.06781 0.0
H2761 H 0.62161 0.19395 0.08463 0.0
H2762 H 0.58944 0.20495 0.0876 0.0
H2763 H 0.47613 0.18396 0.12372 0.0
H2764 H 0.47964 0.16851 0.10671 0.0
H2765 H 0.55312 0.23049 0.10337 0.0
H2766 H 0.54978 0.24609 0.12026 0.0
H2767 H 0.54842 0.18477 0.09754 0.0
H2768 H 0.50692 0.23254 0.09225 0.0
H2769 H 0.47311 0.24114 0.09533 0.0
H2770 H 0.42059 0.16871 0.08455 0.0
H2771 H 0.4541 0.15958 0.08154 0.0
C2772 C 0.56591 0.19937 0.04853 0.0
C2773 C 0.54975 0.18218 0.04125 0.0
C2774 C 0.55841 0.19888 0.05873 0.0
C2775 C 0.53466 0.18116 0.06192 0.0
C2776 C 0.51822 0.16427 0.05466 0.0
C2777 C 0.52574 0.16468 0.04441 0.0
C2778 C 0.52726 0.18086 0.07283 0.0
C2779 C 0.50753 0.18476 0.07496 0.0
C2780 C 0.54153 0.1798 0.0811 0.0
C2781 C 0.56103 0.1733 0.07937 0.0
C2782 C 0.55578 0.15192 0.07381 0.0
C2783 C 0.57417 0.14591 0.07212 0.0
C2784 C 0.59788 0.16106 0.07601 0.0
C2785 C 0.60324 0.18223 0.08162 0.0
C2786 C 0.58491 0.18835 0.08332 0.0
C2787 C 0.4931 0.19417 0.11939 0.0
C2788 C 0.51261 0.21636 0.12328 0.0
C2789 C 0.49503 0.18535 0.10968 0.0
C2790 C 0.51658 0.19846 0.1038 0.0
C2791 C 0.53634 0.22013 0.10781 0.0
C2792 C 0.53433 0.22911 0.11743 0.0
C2793 C 0.51847 0.19046 0.09323 0.0
C2794 C 0.53714 0.18493 0.0912 0.0
C2795 C 0.50301 0.18968 0.08508 0.0
C2796 C 0.48296 0.19529 0.08679 0.0
C2797 C 0.48814 0.21839 0.09061 0.0
C2798 C 0.46904 0.22337 0.09233 0.0
C2799 C 0.44471 0.20545 0.09017 0.0
C2800 C 0.43944 0.18255 0.08624 0.0
C2801 C 0.45847 0.17747 0.08452 0.0
H2802 H 0.42994 0.20934 0.09151 0.0
H2803 H 0.6121 0.15636 0.0747 0.0
H2804 H 0.86526 0.36302 0.03932 0.0
H2805 H 0.87735 0.35723 0.05677 0.0
H2806 H 0.80096 0.30836 0.06436 0.0
H2807 H 0.78882 0.31431 0.04714 0.0
H2808 H 0.86194 0.3704 0.07473 0.0
H2809 H 0.79613 0.2643 0.08023 0.0
H2810 H 0.78289 0.22626 0.07019 0.0
H2811 H 0.84884 0.26263 0.05192 0.0
H2812 H 0.8627 0.3008 0.06194 0.0
H2813 H 0.79213 0.3311 0.11935 0.0
H2814 H 0.8116 0.34114 0.10233 0.0
H2815 H 0.85552 0.30847 0.11083 0.0
H2816 H 0.83615 0.29845 0.12801 0.0
H2817 H 0.83016 0.29005 0.0926 0.0
H2818 H 0.88563 0.36797 0.10613 0.0
H2819 H 0.89976 0.40623 0.11611 0.0
H2820 H 0.85777 0.42672 0.09638 0.0
H2821 H 0.84306 0.38841 0.08637 0.0
C2822 C 0.85115 0.35064 0.04466 0.0
C2823 C 0.82609 0.33922 0.04194 0.0
C2824 C 0.85808 0.34741 0.0546 0.0
C2825 C 0.84006 0.33222 0.0618 0.0
C2826 C 0.81518 0.31988 0.05887 0.0
C2827 C 0.80824 0.32343 0.04906 0.0
C2828 C 0.84632 0.33129 0.07278 0.0
C2829 C 0.85548 0.35293 0.07866 0.0
C2830 C 0.8386 0.30856 0.07782 0.0
C2831 C 0.83045 0.28548 0.07185 0.0
C2832 C 0.80793 0.26416 0.07413 0.0
C2833 C 0.80028 0.24257 0.06843 0.0
C2834 C 0.815 0.24204 0.06042 0.0
C2835 C 0.83743 0.26308 0.05811 0.0
C2836 C 0.84517 0.28471 0.0638 0.0
C2837 C 0.80619 0.32636 0.11767 0.0
C2838 C 0.81249 0.31385 0.12499 0.0
C2839 C 0.81747 0.3323 0.10797 0.0
C2840 C 0.83516 0.32573 0.10536 0.0
C2841 C 0.84204 0.31385 0.11274 0.0
C2842 C 0.83098 0.30818 0.12253 0.0
C2843 C 0.84399 0.32891 0.09453 0.0
C2844 C 0.83756 0.30767 0.08869 0.0
C2845 C 0.85442 0.35204 0.08952 0.0
C2846 C 0.86322 0.37524 0.09549 0.0
C2847 C 0.87928 0.38055 0.10395 0.0
C2848 C 0.88741 0.40227 0.10961 0.0
C2849 C 0.87967 0.41889 0.10689 0.0
C2850 C 0.86378 0.41384 0.09848 0.0
C2851 C 0.85559 0.39214 0.09279 0.0
H2852 H 0.88598 0.4357 0.11128 0.0
H2853 H 0.80903 0.22531 0.056 0.0
H2854 H 0.70703 0.47213 0.11179 0.0
H2855 H 0.6911 0.47515 0.09499 0.0
H2856 H 0.67508 0.52972 0.10713 0.0
H2857 H 0.69085 0.52669 0.12411 0.0
H2858 H 0.63651 0.49476 0.09684 0.0
H2859 H 0.72066 0.54702 0.0896 0.0
H2860 H 0.76507 0.56112 0.08921 0.0
H2861 H 0.75134 0.50007 0.06969 0.0
H2862 H 0.70679 0.48535 0.0701 0.0
H2863 H 0.63128 0.49326 0.03549 0.0
H2864 H 0.65155 0.51352 0.05172 0.0
H2865 H 0.60751 0.44543 0.06825 0.0
H2866 H 0.58719 0.42511 0.05217 0.0
H2867 H 0.67957 0.50188 0.06365 0.0
H2868 H 0.59603 0.45646 0.0923 0.0
H2869 H 0.55234 0.44532 0.09253 0.0
H2870 H 0.56643 0.49916 0.06896 0.0
H2871 H 0.61028 0.51091 0.0687 0.0
C2872 C 0.70033 0.48496 0.11091 0.0
C2873 C 0.70013 0.49908 0.11934 0.0
C2874 C 0.69139 0.4868 0.10126 0.0
C2875 C 0.68217 0.50287 0.09978 0.0
C2876 C 0.68223 0.51729 0.10811 0.0
C2877 C 0.69126 0.51552 0.1178 0.0
C2878 C 0.67086 0.503 0.08971 0.0
C2879 C 0.64598 0.49662 0.08957 0.0
C2880 C 0.68349 0.50626 0.08023 0.0
C2881 C 0.71032 0.51502 0.07992 0.0
C2882 C 0.72707 0.53649 0.08528 0.0
C2883 C 0.75229 0.54461 0.08505 0.0
C2884 C 0.76102 0.53149 0.07944 0.0
C2885 C 0.74455 0.51023 0.07403 0.0
C2886 C 0.71931 0.50201 0.07425 0.0
C2887 C 0.62563 0.4827 0.04261 0.0
C2888 C 0.60771 0.4575 0.04252 0.0
C2889 C 0.63727 0.49431 0.05187 0.0
C2890 C 0.63091 0.48103 0.06119 0.0
C2891 C 0.61245 0.45614 0.06117 0.0
C2892 C 0.60096 0.44449 0.05194 0.0
C2893 C 0.64488 0.49218 0.07084 0.0
C2894 C 0.67025 0.50065 0.0709 0.0
C2895 C 0.63283 0.49131 0.08023 0.0
C2896 C 0.60647 0.48449 0.08045 0.0
C2897 C 0.58987 0.46605 0.08721 0.0
C2898 C 0.56505 0.4596 0.08734 0.0
C2899 C 0.55661 0.47149 0.08075 0.0
C2900 C 0.57298 0.48991 0.07404 0.0
C2901 C 0.59781 0.49645 0.07389 0.0
H2902 H 0.53739 0.46646 0.08086 0.0
H2903 H 0.78055 0.53781 0.07927 0.0
H2904 H 0.50357 0.84273 0.95371 0.0
H2905 H 0.52333 0.85205 0.93673 0.0
H2906 H 0.5535 0.92971 0.94236 0.0
H2907 H 0.53449 0.92036 0.95972 0.0
H2908 H 0.5195 0.90614 0.92406 0.0
H2909 H 0.59465 0.91915 0.93816 0.0
H2910 H 0.6217 0.91107 0.94936 0.0
H2911 H 0.59731 0.84179 0.9341 0.0
H2912 H 0.56982 0.84925 0.92291 0.0
H2913 H 0.56785 0.88044 0.87196 0.0
H2914 H 0.57622 0.90295 0.88849 0.0
H2915 H 0.50587 0.84684 0.9002 0.0
H2916 H 0.49776 0.82414 0.88397 0.0
H2917 H 0.57524 0.87957 0.90894 0.0
H2918 H 0.48235 0.87806 0.91308 0.0
H2919 H 0.45326 0.88312 0.90192 0.0
H2920 H 0.51192 0.92777 0.88089 0.0
H2921 H 0.54145 0.92331 0.892 0.0
C2922 C 0.51509 0.8618 0.95148 0.0
C2923 C 0.51768 0.88085 0.95798 0.0
C2924 C 0.52642 0.86713 0.9418 0.0
C2925 C 0.53995 0.89156 0.93834 0.0
C2926 C 0.54335 0.91077 0.94497 0.0
C2927 C 0.53258 0.90543 0.95485 0.0
C2928 C 0.54693 0.89597 0.92729 0.0
C2929 C 0.53217 0.901 0.92071 0.0
C2930 C 0.56362 0.88946 0.92299 0.0
C2931 C 0.58012 0.88478 0.92969 0.0
C2932 C 0.59492 0.90211 0.93724 0.0
C2933 C 0.61036 0.89765 0.94358 0.0
C2934 C 0.61122 0.87593 0.94244 0.0
C2935 C 0.59665 0.85863 0.93496 0.0
C2936 C 0.58117 0.86299 0.9286 0.0
C2937 C 0.5541 0.87315 0.87804 0.0
C2938 C 0.5322 0.85053 0.87673 0.0
C2939 C 0.55893 0.88596 0.88744 0.0
C2940 C 0.54157 0.87658 0.89549 0.0
C2941 C 0.51937 0.85446 0.89403 0.0
C2942 C 0.5148 0.84147 0.88477 0.0
C2943 C 0.54681 0.88838 0.9058 0.0
C2944 C 0.56352 0.88597 0.91224 0.0
C2945 C 0.53172 0.89706 0.90999 0.0
C2946 C 0.51414 0.90032 0.90339 0.0
C2947 C 0.48911 0.88915 0.90613 0.0
C2948 C 0.47252 0.89186 0.89979 0.0
C2949 C 0.48073 0.90574 0.8907 0.0
C2950 C 0.50557 0.91698 0.88793 0.0
C2951 C 0.52224 0.91435 0.89424 0.0
H2952 H 0.46785 0.90778 0.88579 0.0
H2953 H 0.62319 0.87251 0.94736 0.0
H2954 H 0.08782 0.62725 0.96371 0.0
H2955 H 0.08134 0.6426 0.94706 0.0
H2956 H 0.15617 0.66566 0.93825 0.0
H2957 H 0.16235 0.64977 0.95447 0.0
H2958 H 0.1388 0.70043 0.93344 0.0
H2959 H 0.11594 0.61203 0.9309 0.0
H2960 H 0.08957 0.56866 0.93616 0.0
H2961 H 0.02504 0.57214 0.92782 0.0
H2962 H 0.05111 0.61566 0.92263 0.0
H2963 H 0.18534 0.69534 0.88715 0.0
H2964 H 0.16687 0.68585 0.90429 0.0
H2965 H 0.09675 0.66876 0.89123 0.0
H2966 H 0.11533 0.67837 0.87379 0.0
H2967 H 0.09529 0.63468 0.9072 0.0
H2968 H 0.12263 0.71931 0.90319 0.0
H2969 H 0.15059 0.76209 0.89765 0.0
H2970 H 0.20637 0.76676 0.91838 0.0
H2971 H 0.17893 0.72388 0.92392 0.0
C2972 C 0.10293 0.63603 0.95826 0.0
C2973 C 0.12555 0.63728 0.96031 0.0
C2974 C 0.09921 0.64474 0.9488 0.0
C2975 C 0.11833 0.65531 0.94149 0.0
C2976 C 0.14126 0.65773 0.94384 0.0
C2977 C 0.14474 0.64854 0.95309 0.0
C2978 C 0.11452 0.6617 0.93091 0.0
C2979 C 0.12887 0.68622 0.92769 0.0
C2980 C 0.10093 0.64319 0.92349 0.0
C2981 C 0.08538 0.61707 0.9265 0.0
C2982 C 0.09612 0.60356 0.93026 0.0
C2983 C 0.08124 0.57896 0.93321 0.0
C2984 C 0.05564 0.56767 0.93235 0.0
C2985 C 0.04487 0.58093 0.92851 0.0
C2986 C 0.05967 0.60555 0.92556 0.0
C2987 C 0.16594 0.6894 0.88786 0.0
C2988 C 0.15183 0.68781 0.87914 0.0
C2989 C 0.15544 0.68408 0.89768 0.0
C2990 C 0.13061 0.67714 0.89902 0.0
C2991 C 0.11602 0.67434 0.89032 0.0
C2992 C 0.12662 0.67976 0.8804 0.0
C2993 C 0.12076 0.67327 0.90969 0.0
C2994 C 0.10403 0.64923 0.91292 0.0
C2995 C 0.13208 0.69231 0.91714 0.0
C2996 C 0.14864 0.71832 0.91399 0.0
C2997 C 0.14089 0.72942 0.90654 0.0
C2998 C 0.15666 0.7537 0.9034 0.0
C2999 C 0.18024 0.76714 0.90767 0.0
C3000 C 0.18808 0.75634 0.9151 0.0
C3001 C 0.17239 0.73205 0.91826 0.0
H3002 H 0.19243 0.78593 0.90521 0.0
H3003 H 0.04415 0.54862 0.93464 0.0
H3004 H 0.31213 0.43064 0.87059 0.0
H3005 H 0.33032 0.42748 0.8871 0.0
H3006 H 0.33287 0.49381 0.89789 0.0
H3007 H 0.31427 0.49663 0.88184 0.0
H3008 H 0.37897 0.48955 0.90009 0.0
H3009 H 0.28774 0.44643 0.90579 0.0
H3010 H 0.24608 0.41207 0.90187 0.0
H3011 H 0.26963 0.36004 0.90887 0.0
H3012 H 0.31152 0.39418 0.91271 0.0
H3013 H 0.37297 0.52993 0.94771 0.0
H3014 H 0.36492 0.51209 0.93048 0.0
H3015 H 0.36074 0.44602 0.94268 0.0
H3016 H 0.36865 0.46392 0.96024 0.0
H3017 H 0.32341 0.43679 0.92812 0.0
H3018 H 0.41004 0.48164 0.929 0.0
H3019 H 0.45131 0.51627 0.93317 0.0
H3020 H 0.43849 0.56404 0.91355 0.0
H3021 H 0.39701 0.52985 0.90937 0.0
C3022 C 0.31673 0.44455 0.8765 0.0
C3023 C 0.31181 0.4639 0.87493 0.0
C3024 C 0.32707 0.44271 0.88588 0.0
C3025 C 0.33302 0.46052 0.89363 0.0
C3026 C 0.32854 0.48001 0.89195 0.0
C3027 C 0.31783 0.48154 0.88276 0.0
C3028 C 0.34314 0.45919 0.90378 0.0
C3029 C 0.3671 0.47774 0.90622 0.0
C3030 C 0.32788 0.44315 0.91165 0.0
C3031 C 0.30275 0.42278 0.9094 0.0
C3032 C 0.28405 0.42766 0.90641 0.0
C3033 C 0.2604 0.40824 0.90422 0.0
C3034 C 0.25523 0.38388 0.90509 0.0
C3035 C 0.27367 0.37891 0.90818 0.0
C3036 C 0.29736 0.39828 0.91036 0.0
C3037 C 0.37033 0.51158 0.94679 0.0
C3038 C 0.37163 0.49839 0.95533 0.0
C3039 C 0.36586 0.50145 0.93691 0.0
C3040 C 0.36282 0.47798 0.93527 0.0
C3041 C 0.36332 0.4643 0.94379 0.0
C3042 C 0.36781 0.47451 0.95378 0.0
C3043 C 0.35877 0.46829 0.92454 0.0
C3044 C 0.33594 0.44778 0.92199 0.0
C3045 C 0.37523 0.48241 0.91653 0.0
C3046 C 0.40038 0.50309 0.91885 0.0
C3047 C 0.41598 0.49954 0.92559 0.0
C3048 C 0.43942 0.51911 0.92796 0.0
C3049 C 0.44752 0.54233 0.92362 0.0
C3050 C 0.43221 0.54602 0.91688 0.0
C3051 C 0.40875 0.52653 0.91449 0.0
H3052 H 0.46566 0.55746 0.92547 0.0
H3053 H 0.23691 0.36886 0.90339 0.0
H3054 H 0.13267 0.50167 0.46035 0.0
H3055 H 0.12208 0.48197 0.4432 0.0
H3056 H 0.1739 0.55105 0.42901 0.0
H3057 H 0.18475 0.57073 0.4459 0.0
H3058 H 0.12587 0.52674 0.4197 0.0
H3059 H 0.19003 0.50928 0.43281 0.0
H3060 H 0.20488 0.48941 0.4451 0.0
H3061 H 0.1422 0.4188 0.43814 0.0
H3062 H 0.12687 0.43835 0.4259 0.0
H3063 H 0.19867 0.54181 0.37824 0.0
H3064 H 0.17622 0.53693 0.39427 0.0
H3065 H 0.13201 0.45875 0.38876 0.0
H3066 H 0.1544 0.46364 0.37247 0.0
H3067 H 0.15554 0.47071 0.40804 0.0
H3068 H 0.10147 0.48818 0.39004 0.0
H3069 H 0.08769 0.50806 0.37731 0.0
H3070 H 0.12936 0.57725 0.39305 0.0
H3071 H 0.14376 0.55794 0.40578 0.0
C3072 C 0.14194 0.5126 0.45357 0.0
C3073 C 0.15958 0.53782 0.45451 0.0
C3074 C 0.13576 0.50133 0.44381 0.0
C3075 C 0.14701 0.51519 0.43488 0.0
C3076 C 0.1648 0.54015 0.43582 0.0
C3077 C 0.17113 0.55132 0.44551 0.0
C3078 C 0.14112 0.50421 0.42442 0.0
C3079 C 0.13202 0.51424 0.41711 0.0
C3080 C 0.14794 0.48691 0.4212 0.0
C3081 C 0.15713 0.47529 0.42858 0.0
C3082 C 0.17931 0.48956 0.43399 0.0
C3083 C 0.18784 0.47835 0.44092 0.0
C3084 C 0.17444 0.45287 0.44243 0.0
C3085 C 0.15252 0.43854 0.43699 0.0
C3086 C 0.1439 0.44967 0.43006 0.0
C3087 C 0.18382 0.52366 0.38032 0.0
C3088 C 0.17833 0.5031 0.37417 0.0
C3089 C 0.17087 0.5209 0.38944 0.0
C3090 C 0.15232 0.4975 0.39265 0.0
C3091 C 0.14612 0.47697 0.38635 0.0
C3092 C 0.15886 0.47981 0.37707 0.0
C3093 C 0.14215 0.49483 0.40321 0.0
C3094 C 0.14814 0.4822 0.41058 0.0
C3095 C 0.13232 0.50966 0.40649 0.0
C3096 C 0.12368 0.52154 0.3989 0.0
C3097 C 0.10781 0.50767 0.39077 0.0
C3098 C 0.09988 0.51885 0.38354 0.0
C3099 C 0.10763 0.5439 0.38437 0.0
C3100 C 0.12332 0.55783 0.39243 0.0
C3101 C 0.13133 0.54675 0.39968 0.0
H3102 H 0.10148 0.55252 0.37877 0.0
H3103 H 0.18108 0.44422 0.4478 0.0
H3104 H 0.50224 0.74149 0.38482 0.0
H3105 H 0.51064 0.73174 0.40205 0.0
H3106 H 0.53849 0.68736 0.38872 0.0
H3107 H 0.53009 0.69705 0.37131 0.0
H3108 H 0.50468 0.66305 0.40388 0.0
H3109 H 0.57836 0.73837 0.40115 0.0
H3110 H 0.60603 0.78207 0.39684 0.0
H3111 H 0.56915 0.80336 0.41905 0.0
H3112 H 0.54096 0.75977 0.42339 0.0
H3113 H 0.50331 0.64134 0.45852 0.0
H3114 H 0.5242 0.65546 0.44172 0.0
H3115 H 0.49614 0.70555 0.43888 0.0
H3116 H 0.47527 0.69155 0.45549 0.0
H3117 H 0.54475 0.72556 0.43162 0.0
H3118 H 0.46401 0.64895 0.42897 0.0
H3119 H 0.43587 0.60508 0.43297 0.0
H3120 H 0.48827 0.58671 0.42061 0.0
H3121 H 0.51682 0.63056 0.41665 0.0
C3122 C 0.51033 0.7298 0.3855 0.0
C3123 C 0.51531 0.71991 0.37667 0.0
C3124 C 0.51536 0.72444 0.39537 0.0
C3125 C 0.5255 0.70909 0.39666 0.0
C3126 C 0.53084 0.6994 0.38788 0.0
C3127 C 0.52599 0.70494 0.37795 0.0
C3128 C 0.52815 0.70164 0.40726 0.0
C3129 C 0.51415 0.67665 0.40991 0.0
C3130 C 0.54056 0.71936 0.41511 0.0
C3131 C 0.55748 0.74572 0.41258 0.0
C3132 C 0.57603 0.75234 0.40508 0.0
C3133 C 0.59183 0.77712 0.40263 0.0
C3134 C 0.58935 0.79548 0.40767 0.0
C3135 C 0.57107 0.78911 0.41516 0.0
C3136 C 0.5552 0.76436 0.41764 0.0
C3137 C 0.50206 0.65573 0.45439 0.0
C3138 C 0.48741 0.66514 0.45823 0.0
C3139 C 0.51397 0.66374 0.44482 0.0
C3140 C 0.51158 0.68144 0.43906 0.0
C3141 C 0.49828 0.69193 0.44322 0.0
C3142 C 0.48618 0.68376 0.45267 0.0
C3143 C 0.52019 0.68728 0.42821 0.0
C3144 C 0.53626 0.71193 0.42553 0.0
C3145 C 0.50984 0.66927 0.42031 0.0
C3146 C 0.49263 0.64299 0.42264 0.0
C3147 C 0.46957 0.63555 0.42718 0.0
C3148 C 0.45355 0.61071 0.42943 0.0
C3149 C 0.46032 0.59313 0.42708 0.0
C3150 C 0.48308 0.60036 0.42245 0.0
C3151 C 0.49919 0.62519 0.4202 0.0
H3152 H 0.44789 0.5739 0.42883 0.0
H3153 H 0.6016 0.81465 0.40576 0.0
H3154 H 0.37756 0.85671 0.4621 0.0
H3155 H 0.36504 0.85817 0.44425 0.0
H3156 H 0.37171 0.79475 0.43662 0.0
H3157 H 0.3846 0.7934 0.45427 0.0
H3158 H 0.39175 0.82882 0.42187 0.0
H3159 H 0.31526 0.79104 0.44193 0.0
H3160 H 0.28777 0.79077 0.45568 0.0
H3161 H 0.29065 0.85498 0.44239 0.0
H3162 H 0.31839 0.85576 0.42863 0.0
H3163 H 0.31304 0.75827 0.38273 0.0
H3164 H 0.33291 0.77616 0.39915 0.0
H3165 H 0.3228 0.83846 0.39386 0.0
H3166 H 0.30266 0.82056 0.37721 0.0
H3167 H 0.30923 0.81764 0.41411 0.0
H3168 H 0.3785 0.8491 0.39184 0.0
H3169 H 0.40475 0.84791 0.37789 0.0
H3170 H 0.41533 0.79539 0.39518 0.0
H3171 H 0.38883 0.79596 0.40916 0.0
C3172 C 0.37637 0.84308 0.45662 0.0
C3173 C 0.38204 0.82489 0.45964 0.0
C3174 C 0.36918 0.84394 0.44642 0.0
C3175 C 0.36731 0.82648 0.43911 0.0
C3176 C 0.37315 0.80849 0.44211 0.0
C3177 C 0.38045 0.8077 0.45224 0.0
C3178 C 0.3589 0.82629 0.42835 0.0
C3179 C 0.37371 0.8264 0.42017 0.0
C3180 C 0.3358 0.82418 0.42609 0.0
C3181 C 0.31912 0.82364 0.43434 0.0
C3182 C 0.31017 0.8052 0.44199 0.0
C3183 C 0.29452 0.80493 0.44978 0.0
C3184 C 0.28754 0.8229 0.44993 0.0
C3185 C 0.29612 0.84111 0.44228 0.0
C3186 C 0.31179 0.84147 0.43449 0.0
C3187 C 0.31498 0.77579 0.385 0.0
C3188 C 0.30624 0.78798 0.37863 0.0
C3189 C 0.3265 0.78606 0.39438 0.0
C3190 C 0.32957 0.80874 0.39765 0.0
C3191 C 0.3207 0.82098 0.39142 0.0
C3192 C 0.30929 0.81076 0.38192 0.0
C3193 C 0.34159 0.8189 0.40775 0.0
C3194 C 0.32754 0.82077 0.41578 0.0
C3195 C 0.3654 0.8228 0.40989 0.0
C3196 C 0.38158 0.82253 0.40154 0.0
C3197 C 0.3863 0.83718 0.39264 0.0
C3198 C 0.40124 0.83663 0.38473 0.0
C3199 C 0.41169 0.82157 0.38564 0.0
C3200 C 0.40724 0.80706 0.39448 0.0
C3201 C 0.39229 0.80753 0.40242 0.0
H3202 H 0.42324 0.82116 0.37951 0.0
H3203 H 0.27543 0.82266 0.45596 0.0
H3204 H 0.25018 0.11665 0.17817 0.0
H3205 H 0.28236 0.11336 0.16913 0.0
H3206 H 0.25926 0.1298 0.14014 0.0
H3207 H 0.22709 0.13381 0.14928 0.0
H3208 H 0.28604 0.0865 0.15394 0.0
H3209 H 0.31102 0.1655 0.12611 0.0
H3210 H 0.30557 0.20159 0.12371 0.0
H3211 H 0.30328 0.20915 0.15671 0.0
H3212 H 0.30895 0.17327 0.15928 0.0
H3213 H 0.42045 0.17685 0.13154 0.0
H3214 H 0.37602 0.15166 0.12888 0.0
H3215 H 0.36779 0.12496 0.16033 0.0
H3216 H 0.41236 0.14904 0.16272 0.0
H3217 H 0.35044 0.16523 0.1388 0.0
H3218 H 0.31271 0.07839 0.16574 0.0
H3219 H 0.32024 0.04396 0.16892 0.0
H3220 H 0.35168 0.0532 0.13855 0.0
H3221 H 0.344 0.08746 0.1351 0.0
C3222 C 0.2518 0.11947 0.16986 0.0
C3223 C 0.23641 0.12594 0.16445 0.0
C3224 C 0.27005 0.11728 0.16468 0.0
C3225 C 0.27329 0.12143 0.15397 0.0
C3226 C 0.25719 0.12674 0.14843 0.0
C3227 C 0.23896 0.12917 0.15366 0.0
C3228 C 0.29538 0.12302 0.14908 0.0
C3229 C 0.30018 0.1036 0.15054 0.0
C3230 C 0.31337 0.14497 0.14429 0.0
C3231 C 0.31003 0.16656 0.14286 0.0
C3232 C 0.30934 0.1749 0.13284 0.0
C3233 C 0.30623 0.1953 0.13145 0.0
C3234 C 0.30397 0.20758 0.14005 0.0
C3235 C 0.30493 0.19956 0.15006 0.0
C3236 C 0.30807 0.17919 0.15148 0.0
C3237 C 0.40915 0.16469 0.1377 0.0
C3238 C 0.41952 0.16496 0.14737 0.0
C3239 C 0.38381 0.15029 0.13618 0.0
C3240 C 0.36843 0.13656 0.14442 0.0
C3241 C 0.37917 0.13501 0.15377 0.0
C3242 C 0.40466 0.14893 0.15519 0.0
C3243 C 0.34195 0.12919 0.14419 0.0
C3244 C 0.33621 0.1476 0.14175 0.0
C3245 C 0.32332 0.10638 0.14817 0.0
C3246 C 0.32781 0.0856 0.15017 0.0
C3247 C 0.32105 0.07299 0.15969 0.0
C3248 C 0.3254 0.05352 0.16156 0.0
C3249 C 0.33646 0.04642 0.15395 0.0
C3250 C 0.34317 0.05876 0.14445 0.0
C3251 C 0.33886 0.07825 0.14254 0.0
H3252 H 0.33981 0.03135 0.15541 0.0
H3253 H 0.30155 0.22336 0.13896 0.0
H3254 H 0.88493 0.11851 0.18789 0.0
H3255 H 0.88959 0.1576 0.18209 0.0
H3256 H 0.84252 0.12116 0.15586 0.0
H3257 H 0.83851 0.08187 0.16147 0.0
H3258 H 0.87953 0.16681 0.15068 0.0
H3259 H 0.81902 0.13086 0.1779 0.0
H3260 H 0.80371 0.11286 0.19518 0.0
H3261 H 0.85916 0.17946 0.20956 0.0
H3262 H 0.87501 0.19774 0.19235 0.0
H3263 H 0.81351 0.22916 0.14339 0.0
H3264 H 0.83246 0.20375 0.14559 0.0
H3265 H 0.87945 0.25257 0.1696 0.0
H3266 H 0.86036 0.2782 0.16745 0.0
H3267 H 0.85061 0.20588 0.17625 0.0
H3268 H 0.90506 0.2442 0.14798 0.0
H3269 H 0.91757 0.26102 0.13035 0.0
H3270 H 0.87055 0.18931 0.11741 0.0
H3271 H 0.85746 0.17208 0.13495 0.0
C3272 C 0.87568 0.11882 0.18085 0.0
C3273 C 0.86095 0.09714 0.17522 0.0
C3274 C 0.87845 0.14118 0.17753 0.0
C3275 C 0.86603 0.14216 0.16866 0.0
C3276 C 0.85221 0.12074 0.16274 0.0
C3277 C 0.84978 0.09833 0.16598 0.0
C3278 C 0.86575 0.16501 0.16613 0.0
C3279 C 0.87312 0.17536 0.15622 0.0
C3280 C 0.85798 0.17644 0.17349 0.0
C3281 C 0.84838 0.16554 0.18384 0.0
C3282 C 0.82805 0.14159 0.18475 0.0
C3283 C 0.81927 0.13135 0.19453 0.0
C3284 C 0.83051 0.14498 0.20346 0.0
C3285 C 0.85051 0.16891 0.20263 0.0
C3286 C 0.85939 0.17922 0.19287 0.0
C3287 C 0.82831 0.23485 0.14897 0.0
C3288 C 0.8352 0.25537 0.15539 0.0
C3289 C 0.83932 0.22045 0.15013 0.0
C3290 C 0.85739 0.22632 0.15774 0.0
C3291 C 0.86558 0.24784 0.16366 0.0
C3292 C 0.85466 0.26241 0.16243 0.0
C3293 C 0.86404 0.20763 0.16072 0.0
C3294 C 0.85767 0.19783 0.17074 0.0
C3295 C 0.87235 0.1966 0.1534 0.0
C3296 C 0.88018 0.20686 0.14281 0.0
C3297 C 0.89723 0.23203 0.14138 0.0
C3298 C 0.90446 0.24164 0.13139 0.0
C3299 C 0.89484 0.22625 0.12276 0.0
C3300 C 0.878 0.20121 0.1241 0.0
C3301 C 0.8707 0.1915 0.13407 0.0
H3302 H 0.90046 0.23373 0.11504 0.0
H3303 H 0.82368 0.13702 0.21103 0.0
H3304 H 0.88011 0.76537 0.18638 0.0
H3305 H 0.84082 0.73373 0.17933 0.0
H3306 H 0.87884 0.72135 0.15424 0.0
H3307 H 0.91841 0.75378 0.16111 0.0
H3308 H 0.83479 0.7164 0.14784 0.0
H3309 H 0.8644 0.68679 0.17595 0.0
H3310 H 0.87935 0.68747 0.1937 0.0
H3311 H 0.81221 0.6794 0.20618 0.0
H3312 H 0.79701 0.679 0.18848 0.0
H3313 H 0.77556 0.5896 0.13888 0.0
H3314 H 0.79886 0.63394 0.14154 0.0
H3315 H 0.74522 0.62829 0.16397 0.0
H3316 H 0.72169 0.58358 0.16133 0.0
H3317 H 0.79035 0.64639 0.17213 0.0
H3318 H 0.75732 0.66537 0.14301 0.0
H3319 H 0.74322 0.66305 0.125 0.0
H3320 H 0.81674 0.68895 0.11395 0.0
H3321 H 0.83125 0.69109 0.13188 0.0
C3322 C 0.88011 0.75607 0.17931 0.0
C3323 C 0.90229 0.7616 0.17439 0.0
C3324 C 0.85764 0.7381 0.17527 0.0
C3325 C 0.85698 0.72494 0.16638 0.0
C3326 C 0.879 0.73133 0.16112 0.0
C3327 C 0.90156 0.74966 0.16508 0.0
C3328 C 0.83376 0.70281 0.16326 0.0
C3329 C 0.82501 0.70101 0.15311 0.0
C3330 C 0.82067 0.68311 0.17027 0.0
C3331 C 0.82971 0.68318 0.18091 0.0
C3332 C 0.85291 0.68534 0.18248 0.0
C3333 C 0.86142 0.68566 0.19253 0.0
C3334 C 0.84678 0.68357 0.20106 0.0
C3335 C 0.82356 0.68108 0.19956 0.0
C3336 C 0.81498 0.6808 0.18953 0.0
C3337 C 0.76832 0.59788 0.14415 0.0
C3338 C 0.74711 0.58319 0.15005 0.0
C3339 C 0.78152 0.62329 0.14558 0.0
C3340 C 0.77377 0.63442 0.15295 0.0
C3341 C 0.75143 0.62002 0.15821 0.0
C3342 C 0.73805 0.59452 0.15671 0.0
C3343 C 0.79152 0.65954 0.15658 0.0
C3344 C 0.79949 0.66195 0.16689 0.0
C3345 C 0.80394 0.67955 0.14966 0.0
C3346 C 0.79536 0.6783 0.13882 0.0
C3347 C 0.77047 0.6704 0.13674 0.0
C3348 C 0.7624 0.66915 0.12654 0.0
C3349 C 0.77907 0.67583 0.11833 0.0
C3350 C 0.80385 0.6838 0.12031 0.0
C3351 C 0.81202 0.68509 0.1305 0.0
H3352 H 0.77279 0.67484 0.11044 0.0
H3353 H 0.8534 0.68382 0.20884 0.0
H3354 H 0.15852 0.4147 0.36285 0.0
H3355 H 0.13931 0.3699 0.3624 0.0
H3356 H 0.1233 0.3702 0.3299 0.0
H3357 H 0.14186 0.41509 0.33041 0.0
H3358 H 0.09118 0.32379 0.34045 0.0
H3359 H 0.17892 0.38391 0.33515 0.0
H3360 H 0.21778 0.42023 0.34073 0.0
H3361 H 0.21604 0.38342 0.36906 0.0
H3362 H 0.1769 0.34704 0.3637 0.0
H3363 H 0.12713 0.25496 0.31064 0.0
H3364 H 0.12014 0.2852 0.31945 0.0
H3365 H 0.1457 0.27052 0.34818 0.0
H3366 H 0.15299 0.24009 0.33933 0.0
H3367 H 0.16749 0.31881 0.344 0.0
H3368 H 0.08575 0.25297 0.34564 0.0
H3369 H 0.04757 0.21713 0.33927 0.0
H3370 H 0.03756 0.26335 0.31758 0.0
H3371 H 0.07595 0.29941 0.32367 0.0
C3372 C 0.14987 0.40506 0.35574 0.0
C3373 C 0.15213 0.41815 0.34659 0.0
C3374 C 0.13876 0.37949 0.35551 0.0
C3375 C 0.13051 0.36693 0.34607 0.0
C3376 C 0.12965 0.37965 0.33726 0.0
C3377 C 0.14038 0.40528 0.33753 0.0
C3378 C 0.12949 0.34307 0.34471 0.0
C3379 C 0.10772 0.3225 0.34126 0.0
C3380 C 0.15106 0.34142 0.346 0.0
C3381 C 0.17493 0.36292 0.34908 0.0
C3382 C 0.18681 0.38363 0.34258 0.0
C3383 C 0.20885 0.40422 0.3457 0.0
C3384 C 0.21935 0.40415 0.35525 0.0
C3385 C 0.20786 0.38346 0.36168 0.0
C3386 C 0.18575 0.36286 0.35861 0.0
C3387 C 0.13125 0.25808 0.31884 0.0
C3388 C 0.14076 0.24528 0.32429 0.0
C3389 C 0.12693 0.27515 0.32389 0.0
C3390 C 0.13189 0.27967 0.3345 0.0
C3391 C 0.14148 0.26701 0.34 0.0
C3392 C 0.14579 0.24981 0.33493 0.0
C3393 C 0.12928 0.29945 0.33948 0.0
C3394 C 0.15056 0.31952 0.34353 0.0
C3395 C 0.10727 0.30049 0.3387 0.0
C3396 C 0.08385 0.27894 0.3351 0.0
C3397 C 0.07551 0.2555 0.33947 0.0
C3398 C 0.05381 0.23513 0.33591 0.0
C3399 C 0.04016 0.23797 0.32802 0.0
C3400 C 0.04815 0.26119 0.3237 0.0
C3401 C 0.06987 0.28162 0.32721 0.0
H3402 H 0.02337 0.22217 0.32527 0.0
H3403 H 0.2364 0.42012 0.35767 0.0
H3404 H 0.58782 0.73855 0.32706 0.0
H3405 H 0.63281 0.76111 0.32794 0.0
H3406 H 0.62915 0.76525 0.36126 0.0
H3407 H 0.58415 0.74345 0.36026 0.0
H3408 H 0.65058 0.80875 0.3534 0.0
H3409 H 0.66259 0.74067 0.34956 0.0
H3410 H 0.65669 0.70151 0.34254 0.0
H3411 H 0.6824 0.73523 0.31276 0.0
H3412 H 0.68812 0.77451 0.31953 0.0
H3413 H 0.7729 0.90773 0.34489 0.0
H3414 H 0.74047 0.86841 0.35195 0.0
H3415 H 0.71748 0.84097 0.32087 0.0
H3416 H 0.74995 0.8796 0.31384 0.0
H3417 H 0.71562 0.80557 0.33278 0.0
H3418 H 0.68934 0.86708 0.33543 0.0
H3419 H 0.693 0.90595 0.34173 0.0
H3420 H 0.69213 0.88326 0.37321 0.0
H3421 H 0.68871 0.84436 0.36708 0.0
C3422 C 0.59672 0.74325 0.33457 0.0
C3423 C 0.58285 0.73942 0.34359 0.0
C3424 C 0.62242 0.75608 0.33511 0.0
C3425 C 0.63441 0.76496 0.34469 0.0
C3426 C 0.62032 0.75861 0.3538 0.0
C3427 C 0.59468 0.74613 0.35324 0.0
C3428 C 0.66036 0.78527 0.34485 0.0
C3429 C 0.66505 0.80777 0.34918 0.0
C3430 C 0.67914 0.78419 0.33922 0.0
C3431 C 0.67574 0.76058 0.33507 0.0
C3432 C 0.66684 0.73972 0.34149 0.0
C3433 C 0.66355 0.71749 0.33756 0.0
C3434 C 0.66916 0.71588 0.32721 0.0
C3435 C 0.67809 0.73651 0.32078 0.0
C3436 C 0.68142 0.75879 0.32467 0.0
C3437 C 0.76091 0.89325 0.3396 0.0
C3438 C 0.76376 0.89678 0.32882 0.0
C3439 C 0.74251 0.87079 0.34363 0.0
C3440 C 0.72652 0.85179 0.33693 0.0
C3441 C 0.72973 0.85526 0.32619 0.0
C3442 C 0.74817 0.87748 0.32218 0.0
C3443 C 0.70509 0.82894 0.34087 0.0
C3444 C 0.70135 0.80612 0.33733 0.0
C3445 C 0.68696 0.82964 0.34714 0.0
C3446 C 0.68914 0.85304 0.35081 0.0
C3447 C 0.69013 0.8705 0.34369 0.0
C3448 C 0.69212 0.8925 0.34723 0.0
C3449 C 0.6929 0.89712 0.35786 0.0
C3450 C 0.69161 0.8797 0.36498 0.0
C3451 C 0.68965 0.85768 0.36148 0.0
H3452 H 0.69442 0.91416 0.36058 0.0
H3453 H 0.66659 0.69865 0.32418 0.0
H3454 H 0.12865 0.89208 0.31696 0.0
H3455 H 0.16697 0.89635 0.3237 0.0
H3456 H 0.12707 0.84775 0.34906 0.0
H3457 H 0.08865 0.84416 0.34253 0.0
H3458 H 0.17305 0.88308 0.35511 0.0
H3459 H 0.1369 0.82498 0.32684 0.0
H3460 H 0.12023 0.81227 0.30918 0.0
H3461 H 0.18937 0.86689 0.29628 0.0
H3462 H 0.20633 0.88015 0.31389 0.0
H3463 H 0.22453 0.80699 0.36249 0.0
H3464 H 0.20313 0.83014 0.36033 0.0
H3465 H 0.25656 0.87623 0.33744 0.0
H3466 H 0.27814 0.85298 0.33956 0.0
H3467 H 0.21046 0.85172 0.32984 0.0
H3468 H 0.24884 0.90237 0.35901 0.0
H3469 H 0.26429 0.9127 0.37693 0.0
H3470 H 0.19056 0.86976 0.38858 0.0
H3471 H 0.17467 0.85884 0.37074 0.0
C3472 C 0.12811 0.88259 0.32406 0.0
C3473 C 0.10569 0.86738 0.32913 0.0
C3474 C 0.15001 0.88512 0.32792 0.0
C3475 C 0.14977 0.87195 0.33675 0.0
C3476 C 0.12763 0.85802 0.34222 0.0
C3477 C 0.1057 0.85585 0.33845 0.0
C3478 C 0.17179 0.87026 0.33952 0.0
C3479 C 0.18128 0.8762 0.34963 0.0
C3480 C 0.18285 0.86187 0.33225 0.0
C3481 C 0.17278 0.85374 0.32167 0.0
C3482 C 0.14849 0.83438 0.32023 0.0
C3483 C 0.13899 0.82707 0.31024 0.0
C3484 C 0.15371 0.83882 0.30161 0.0
C3485 C 0.17798 0.85785 0.30297 0.0
C3486 C 0.18754 0.86526 0.31295 0.0
C3487 C 0.23216 0.82252 0.35721 0.0
C3488 C 0.25275 0.82795 0.35106 0.0
C3489 C 0.22002 0.8359 0.35606 0.0
C3490 C 0.22825 0.85491 0.34872 0.0
C3491 C 0.24998 0.86166 0.34317 0.0
C3492 C 0.26227 0.84837 0.34438 0.0
C3493 C 0.2116 0.86407 0.34552 0.0
C3494 C 0.20287 0.85933 0.3353 0.0
C3495 C 0.20113 0.87322 0.35274 0.0
C3496 C 0.21057 0.87968 0.36351 0.0
C3497 C 0.23592 0.89495 0.36539 0.0
C3498 C 0.24476 0.90095 0.37554 0.0
C3499 C 0.22842 0.89187 0.38389 0.0
C3500 C 0.2032 0.87679 0.38211 0.0
C3501 C 0.19426 0.87073 0.37197 0.0
H3502 H 0.2353 0.89654 0.39174 0.0
H3503 H 0.14632 0.83314 0.29388 0.0
H3504 H 0.74093 0.8213 0.82824 0.0
H3505 H 0.69597 0.80044 0.82863 0.0
H3506 H 0.69555 0.82582 0.79756 0.0
H3507 H 0.7405 0.84748 0.79734 0.0
H3508 H 0.67625 0.84309 0.81012 0.0
H3509 H 0.66324 0.76311 0.80398 0.0
H3510 H 0.66903 0.72719 0.80582 0.0
H3511 H 0.64586 0.71898 0.83759 0.0
H3512 H 0.64029 0.75507 0.83601 0.0
H3513 H 0.55477 0.8142 0.82289 0.0
H3514 H 0.58631 0.81007 0.8133 0.0
H3515 H 0.61014 0.79219 0.84174 0.0
H3516 H 0.57866 0.79585 0.85128 0.0
H3517 H 0.6119 0.76502 0.82579 0.0
H3518 H 0.63786 0.85113 0.8329 0.0
H3519 H 0.63403 0.88837 0.83184 0.0
H3520 H 0.63471 0.8853 0.7986 0.0
H3521 H 0.63826 0.84785 0.79948 0.0
C3522 C 0.73116 0.82159 0.82136 0.0
C3523 C 0.74401 0.83631 0.81284 0.0
C3524 C 0.70542 0.80954 0.82155 0.0
C3525 C 0.69235 0.8117 0.81314 0.0
C3526 C 0.70524 0.82404 0.80416 0.0
C3527 C 0.7309 0.83644 0.80405 0.0
C3528 C 0.66661 0.80614 0.81459 0.0
C3529 C 0.66193 0.82566 0.81321 0.0
C3530 C 0.64807 0.78366 0.81885 0.0
C3531 C 0.65144 0.76192 0.81988 0.0
C3532 C 0.65955 0.75378 0.81139 0.0
C3533 C 0.66277 0.73335 0.81238 0.0
C3534 C 0.65784 0.72083 0.82182 0.0
C3535 C 0.64966 0.72869 0.83028 0.0
C3536 C 0.64642 0.74911 0.82934 0.0
C3537 C 0.56664 0.80921 0.82706 0.0
C3538 C 0.56454 0.80574 0.83785 0.0
C3539 C 0.58452 0.80674 0.82158 0.0
C3540 C 0.60063 0.80096 0.82683 0.0
C3541 C 0.59782 0.79651 0.83753 0.0
C3542 C 0.57998 0.7989 0.84299 0.0
C3543 C 0.62217 0.80218 0.82157 0.0
C3544 C 0.62602 0.782 0.8223 0.0
C3545 C 0.64017 0.82411 0.81678 0.0
C3546 C 0.63796 0.84654 0.81625 0.0
C3547 C 0.63699 0.8583 0.82537 0.0
C3548 C 0.63491 0.87945 0.8248 0.0
C3549 C 0.63403 0.88914 0.81516 0.0
C3550 C 0.63531 0.87773 0.80606 0.0
C3551 C 0.63735 0.85655 0.80659 0.0
H3552 H 0.63244 0.90553 0.81474 0.0
H3553 H 0.66034 0.70502 0.82257 0.0
H3554 H 0.17529 0.74398 0.82447 0.0
H3555 H 0.17354 0.77804 0.81578 0.0
H3556 H 0.18391 0.81456 0.84523 0.0
H3557 H 0.18553 0.78103 0.85388 0.0
H3558 H 0.14537 0.81149 0.83451 0.0
H3559 H 0.23019 0.83459 0.82873 0.0
H3560 H 0.26387 0.82861 0.82231 0.0
H3561 H 0.23715 0.82224 0.79116 0.0
H3562 H 0.20305 0.82781 0.79743 0.0
H3563 H 0.17511 0.93067 0.8265 0.0
H3564 H 0.19016 0.90164 0.8283 0.0
H3565 H 0.15296 0.86539 0.80005 0.0
H3566 H 0.13747 0.8941 0.79828 0.0
H3567 H 0.20429 0.86691 0.80789 0.0
H3568 H 0.11618 0.83944 0.81495 0.0
H3569 H 0.08524 0.84896 0.82195 0.0
H3570 H 0.1213 0.86578 0.85157 0.0
H3571 H 0.15272 0.8568 0.84467 0.0
C3572 C 0.17715 0.7593 0.82905 0.0
C3573 C 0.18042 0.75981 0.83984 0.0
C3574 C 0.17631 0.77874 0.82408 0.0
C3575 C 0.17866 0.79877 0.82989 0.0
C3576 C 0.182 0.79923 0.84063 0.0
C3577 C 0.18292 0.78002 0.84555 0.0
C3578 C 0.1767 0.81902 0.82502 0.0
C3579 C 0.15825 0.82349 0.82867 0.0
C3580 C 0.19338 0.83458 0.81734 0.0
C3581 C 0.21388 0.83128 0.81356 0.0
C3582 C 0.23134 0.83166 0.82052 0.0
C3583 C 0.25054 0.8284 0.81691 0.0
C3584 C 0.2526 0.82496 0.80634 0.0
C3585 C 0.2355 0.82485 0.79935 0.0
C3586 C 0.21624 0.82806 0.80293 0.0
C3587 C 0.17096 0.91717 0.82046 0.0
C3588 C 0.15466 0.91418 0.8124 0.0
C3589 C 0.17973 0.90073 0.82145 0.0
C3590 C 0.1725 0.8814 0.81432 0.0
C3591 C 0.15882 0.88033 0.80557 0.0
C3592 C 0.14976 0.89655 0.80464 0.0
C3593 C 0.17322 0.85925 0.81752 0.0
C3594 C 0.19126 0.8545 0.81358 0.0
C3595 C 0.15629 0.84335 0.82499 0.0
C3596 C 0.13683 0.84764 0.82928 0.0
C3597 C 0.11753 0.84526 0.82295 0.0
C3598 C 0.09993 0.85058 0.82689 0.0
C3599 C 0.10133 0.85802 0.83719 0.0
C3600 C 0.12026 0.86004 0.84359 0.0
C3601 C 0.13795 0.85483 0.83967 0.0
H3602 H 0.08772 0.86219 0.84023 0.0
H3603 H 0.26748 0.82244 0.80355 0.0
H3604 H 0.22066 0.40262 0.84909 0.0
H3605 H 0.18669 0.3691 0.83992 0.0
H3606 H 0.21228 0.4093 0.81114 0.0
H3607 H 0.24748 0.44277 0.82037 0.0
H3608 H 0.14938 0.36471 0.83012 0.0
H3609 H 0.19178 0.36638 0.79144 0.0
H3610 H 0.23227 0.38242 0.78295 0.0
H3611 H 0.26339 0.37545 0.81154 0.0
H3612 H 0.22303 0.35922 0.82014 0.0
H3613 H 0.06487 0.24266 0.81529 0.0
H3614 H 0.08902 0.28716 0.81204 0.0
H3615 H 0.15611 0.28462 0.81621 0.0
H3616 H 0.13225 0.2404 0.81875 0.0
H3617 H 0.16529 0.31818 0.80311 0.0
H3618 H 0.12239 0.29602 0.83709 0.0
H3619 H 0.08502 0.2776 0.84799 0.0
H3620 H 0.05997 0.32195 0.8327 0.0
H3621 H 0.09714 0.34045 0.82166 0.0
C3622 C 0.21911 0.40436 0.8408 0.0
C3623 C 0.23671 0.42516 0.83542 0.0
C3624 C 0.19954 0.38526 0.83556 0.0
C3625 C 0.19677 0.38665 0.82482 0.0
C3626 C 0.21414 0.40768 0.8194 0.0
C3627 C 0.23421 0.42673 0.82466 0.0
C3628 C 0.17622 0.36512 0.81957 0.0
C3629 C 0.15273 0.35473 0.82406 0.0
C3630 C 0.1803 0.35231 0.8115 0.0
C3631 C 0.20456 0.36195 0.80644 0.0
C3632 C 0.2073 0.3683 0.79589 0.0
C3633 C 0.2302 0.3774 0.79106 0.0
C3634 C 0.25041 0.38005 0.79671 0.0
C3635 C 0.24775 0.37349 0.80718 0.0
C3636 C 0.22488 0.36435 0.81204 0.0
C3637 C 0.08479 0.25167 0.81533 0.0
C3638 C 0.09675 0.23826 0.81744 0.0
C3639 C 0.09857 0.27705 0.81347 0.0
C3640 C 0.12442 0.28941 0.81408 0.0
C3641 C 0.13623 0.27563 0.81563 0.0
C3642 C 0.12255 0.25031 0.8172 0.0
C3643 C 0.13947 0.3167 0.81453 0.0
C3644 C 0.16161 0.3285 0.80889 0.0
C3645 C 0.13459 0.33045 0.8219 0.0
C3646 C 0.11227 0.31931 0.82848 0.0
C3647 C 0.10882 0.30171 0.83603 0.0
C3648 C 0.0877 0.29128 0.84223 0.0
C3649 C 0.07008 0.29853 0.84101 0.0
C3650 C 0.07359 0.31629 0.83361 0.0
C3651 C 0.09466 0.32674 0.82738 0.0
H3652 H 0.05375 0.29045 0.84582 0.0
H3653 H 0.26813 0.38712 0.79297 0.0
H3654 H 0.82593 0.57704 0.67666 0.0
H3655 H 0.82308 0.61166 0.68394 0.0
H3656 H 0.75703 0.59 0.66611 0.0
H3657 H 0.76045 0.55614 0.65857 0.0
H3658 H 0.79022 0.63409 0.66131 0.0
H3659 H 0.7569 0.59311 0.69303 0.0
H3660 H 0.75283 0.56849 0.70858 0.0
H3661 H 0.824 0.62455 0.71914 0.0
H3662 H 0.82871 0.64937 0.70359 0.0
H3663 H 0.81635 0.75455 0.67239 0.0
H3664 H 0.79079 0.70958 0.67365 0.0
H3665 H 0.85036 0.70649 0.68901 0.0
H3666 H 0.87552 0.75102 0.68803 0.0
H3667 H 0.80707 0.67123 0.6964 0.0
H3668 H 0.84449 0.70307 0.66238 0.0
H3669 H 0.85107 0.72734 0.64643 0.0
H3670 H 0.77339 0.68717 0.64015 0.0
H3671 H 0.76637 0.66285 0.65613 0.0
C3672 C 0.81048 0.57936 0.67455 0.0
C3673 C 0.79373 0.56445 0.66693 0.0
C3674 C 0.8087 0.59898 0.67876 0.0
C3675 C 0.78983 0.60345 0.67554 0.0
C3676 C 0.77179 0.58698 0.66866 0.0
C3677 C 0.77384 0.56777 0.66432 0.0
C3678 C 0.79173 0.62755 0.67764 0.0
C3679 C 0.79306 0.64187 0.66904 0.0
C3680 C 0.7959 0.63789 0.68769 0.0
C3681 C 0.79318 0.62308 0.6971 0.0
C3682 C 0.77177 0.60013 0.69863 0.0
C3683 C 0.76934 0.58615 0.70746 0.0
C3684 C 0.78815 0.59494 0.71484 0.0
C3685 C 0.80943 0.61777 0.71342 0.0
C3686 C 0.81197 0.63183 0.70461 0.0
C3687 C 0.82376 0.74425 0.67619 0.0
C3688 C 0.84808 0.75619 0.6799 0.0
C3689 C 0.80915 0.71863 0.67694 0.0
C3690 C 0.81883 0.70471 0.6813 0.0
C3691 C 0.84249 0.71685 0.68564 0.0
C3692 C 0.85697 0.74233 0.68495 0.0
C3693 C 0.80633 0.67767 0.68004 0.0
C3694 C 0.80314 0.66292 0.68876 0.0
C3695 C 0.80066 0.66682 0.67008 0.0
C3696 C 0.80487 0.68143 0.6605 0.0
C3697 C 0.82881 0.69956 0.65762 0.0
C3698 C 0.83262 0.71329 0.64858 0.0
C3699 C 0.81265 0.70887 0.6423 0.0
C3700 C 0.78883 0.69063 0.64504 0.0
C3701 C 0.78492 0.67688 0.65409 0.0
H3702 H 0.81563 0.71951 0.6353 0.0
H3703 H 0.78623 0.58409 0.72167 0.0
H3704 H 0.42741 0.24698 0.67285 0.0
H3705 H 0.39387 0.20735 0.67879 0.0
H3706 H 0.41598 0.1698 0.65697 0.0
H3707 H 0.44886 0.20951 0.65072 0.0
H3708 H 0.37144 0.15751 0.65357 0.0
H3709 H 0.41354 0.15853 0.68385 0.0
H3710 H 0.43923 0.17536 0.69948 0.0
H3711 H 0.38447 0.18852 0.7132 0.0
H3712 H 0.3586 0.17215 0.69759 0.0
H3713 H 0.2491 0.06449 0.66483 0.0
H3714 H 0.29393 0.0818 0.66516 0.0
H3715 H 0.3021 0.14471 0.68218 0.0
H3716 H 0.25772 0.12754 0.68201 0.0
H3717 H 0.33542 0.13143 0.68866 0.0
H3718 H 0.30396 0.14519 0.65572 0.0
H3719 H 0.27891 0.13059 0.63979 0.0
H3720 H 0.31543 0.09069 0.63123 0.0
H3721 H 0.3405 0.10488 0.64719 0.0
C3722 C 0.42547 0.23022 0.66953 0.0
C3723 C 0.44024 0.23119 0.6612 0.0
C3724 C 0.40646 0.20753 0.673 0.0
C3725 C 0.40239 0.18551 0.66833 0.0
C3726 C 0.41868 0.18651 0.66064 0.0
C3727 C 0.43735 0.20919 0.65705 0.0
C3728 C 0.37868 0.16247 0.67002 0.0
C3729 C 0.36394 0.15124 0.66127 0.0
C3730 C 0.36871 0.15432 0.68003 0.0
C3731 C 0.3841 0.16409 0.68951 0.0
C3732 C 0.40701 0.16513 0.69017 0.0
C3733 C 0.42161 0.17459 0.69904 0.0
C3734 C 0.41349 0.183 0.70733 0.0
C3735 C 0.39072 0.18195 0.70677 0.0
C3736 C 0.37605 0.17252 0.69792 0.0
C3737 C 0.2605 0.08185 0.66875 0.0
C3738 C 0.25 0.09491 0.67322 0.0
C3739 C 0.28603 0.09162 0.66898 0.0
C3740 C 0.30129 0.11459 0.67365 0.0
C3741 C 0.29065 0.1269 0.6786 0.0
C3742 C 0.26527 0.11719 0.67837 0.0
C3743 C 0.3283 0.12776 0.67225 0.0
C3744 C 0.34351 0.13704 0.68101 0.0
C3745 C 0.33884 0.13426 0.66225 0.0
C3746 C 0.32381 0.12578 0.65269 0.0
C3747 C 0.3065 0.13316 0.65047 0.0
C3748 C 0.29232 0.12499 0.64144 0.0
C3749 C 0.29551 0.10964 0.63452 0.0
C3750 C 0.31293 0.10251 0.63661 0.0
C3751 C 0.32711 0.1106 0.64565 0.0
H3752 H 0.28452 0.10334 0.62753 0.0
H3753 H 0.42483 0.19034 0.71418 0.0
H3754 H 0.79446 0.20156 0.64696 0.0
H3755 H 0.82678 0.20247 0.65771 0.0
H3756 H 0.77864 0.18052 0.68429 0.0
H3757 H 0.7458 0.17922 0.67347 0.0
H3758 H 0.85181 0.22682 0.67505 0.0
H3759 H 0.78985 0.14036 0.69822 0.0
H3760 H 0.74848 0.10336 0.6975 0.0
H3761 H 0.75104 0.10518 0.66423 0.0
H3762 H 0.79251 0.142 0.66477 0.0
H3763 H 0.89214 0.13786 0.70203 0.0
H3764 H 0.86844 0.15912 0.70202 0.0
H3765 H 0.90047 0.19212 0.67252 0.0
H3766 H 0.92488 0.17165 0.67274 0.0
H3767 H 0.83434 0.14568 0.68862 0.0
H3768 H 0.8921 0.23884 0.66626 0.0
H3769 H 0.93392 0.27501 0.66672 0.0
H3770 H 0.94191 0.25955 0.69845 0.0
H3771 H 0.89999 0.22351 0.69825 0.0
C3772 C 0.79071 0.19702 0.6551 0.0
C3773 C 0.76746 0.18995 0.65934 0.0
C3774 C 0.80933 0.19782 0.66126 0.0
C3775 C 0.8051 0.1915 0.67178 0.0
C3776 C 0.78221 0.18532 0.67617 0.0
C3777 C 0.76346 0.18449 0.66997 0.0
C3778 C 0.82399 0.18907 0.67771 0.0
C3779 C 0.84813 0.20916 0.67808 0.0
C3780 C 0.81889 0.16626 0.68199 0.0
C3781 C 0.79406 0.14409 0.68155 0.0
C3782 C 0.78155 0.13283 0.69076 0.0
C3783 C 0.75811 0.1119 0.69038 0.0
C3784 C 0.74709 0.10199 0.68082 0.0
C3785 C 0.75954 0.11293 0.67163 0.0
C3786 C 0.783 0.13384 0.67196 0.0
C3787 C 0.8948 0.15042 0.69575 0.0
C3788 C 0.91 0.15288 0.68731 0.0
C3789 C 0.88127 0.16257 0.69575 0.0
C3790 C 0.88245 0.17707 0.68724 0.0
C3791 C 0.89945 0.18136 0.67927 0.0
C3792 C 0.91333 0.16952 0.67935 0.0
C3793 C 0.8627 0.18321 0.68561 0.0
C3794 C 0.83823 0.16372 0.686 0.0
C3795 C 0.86762 0.20658 0.68202 0.0
C3796 C 0.89287 0.22834 0.68222 0.0
C3797 C 0.90269 0.24322 0.67336 0.0
C3798 C 0.92645 0.26369 0.67357 0.0
C3799 C 0.94058 0.26955 0.68261 0.0
C3800 C 0.93097 0.25495 0.69145 0.0
C3801 C 0.90722 0.23446 0.69128 0.0
H3802 H 0.95896 0.28541 0.68275 0.0
H3803 H 0.72894 0.0858 0.68055 0.0
H3804 H 0.07714 0.51886 0.46707 0.0
H3805 H 0.03221 0.49713 0.46616 0.0
H3806 H 0.02818 0.46706 0.49666 0.0
H3807 H 0.07326 0.48805 0.49741 0.0
H3808 H 0.98716 0.43657 0.48465 0.0
H3809 H 0.03508 0.52347 0.49444 0.0
H3810 H 0.067 0.56669 0.4913 0.0
H3811 H 0.02974 0.56764 0.46351 0.0
H3812 H 0.99779 0.52426 0.46643 0.0
H3813 H 0.90722 0.44988 0.51729 0.0
H3814 H 0.93951 0.4492 0.50717 0.0
H3815 H 0.91944 0.47723 0.4806 0.0
H3816 H 0.88686 0.47817 0.49081 0.0
H3817 H 0.96745 0.50405 0.48506 0.0
H3818 H 0.91182 0.41968 0.47962 0.0
H3819 H 0.88001 0.37736 0.4842 0.0
H3820 H 0.93063 0.37151 0.50481 0.0
H3821 H 0.96264 0.41394 0.50051 0.0
C3822 C 0.06661 0.50694 0.47343 0.0
C3823 C 0.07844 0.50549 0.48242 0.0
C3824 C 0.041 0.49446 0.47288 0.0
C3825 C 0.02696 0.48105 0.48145 0.0
C3826 C 0.03874 0.47742 0.48998 0.0
C3827 C 0.06444 0.48951 0.49044 0.0
C3828 C 0.00117 0.47537 0.48248 0.0
C3829 C 0.98268 0.45119 0.48469 0.0
C3830 C 0.99532 0.49446 0.48225 0.0
C3831 C 0.01426 0.52061 0.48058 0.0
C3832 C 0.03379 0.53288 0.48764 0.0
C3833 C 0.05188 0.55739 0.4859 0.0
C3834 C 0.05044 0.56988 0.47719 0.0
C3835 C 0.03086 0.55791 0.47023 0.0
C3836 C 0.01277 0.53338 0.47192 0.0
C3837 C 0.90947 0.45571 0.50927 0.0
C3838 C 0.89471 0.46433 0.50486 0.0
C3839 C 0.92774 0.45497 0.50344 0.0
C3840 C 0.93157 0.46273 0.49308 0.0
C3841 C 0.91654 0.4709 0.48856 0.0
C3842 C 0.89809 0.47155 0.49441 0.0
C3843 C 0.95343 0.46532 0.48761 0.0
C3844 C 0.97141 0.48908 0.48461 0.0
C3845 C 0.95872 0.44586 0.48723 0.0
C3846 C 0.93967 0.42009 0.48974 0.0
C3847 C 0.91616 0.40943 0.48517 0.0
C3848 C 0.89808 0.38541 0.48772 0.0
C3849 C 0.9033 0.37176 0.49479 0.0
C3850 C 0.92663 0.38209 0.49932 0.0
C3851 C 0.94478 0.40613 0.49681 0.0
H3852 H 0.88926 0.35317 0.49676 0.0
H3853 H 0.06446 0.58885 0.47586 0.0
H3854 H 0.48662 0.40647 0.49265 0.0
H3855 H 0.48924 0.44337 0.48475 0.0
H3856 H 0.55352 0.48927 0.50332 0.0
H3857 H 0.55015 0.45266 0.5115 0.0
H3858 H 0.52037 0.50103 0.50652 0.0
H3859 H 0.55515 0.48694 0.4761 0.0
H3860 H 0.55774 0.46307 0.46145 0.0
H3861 H 0.4893 0.45262 0.44941 0.0
H3862 H 0.48611 0.47614 0.46406 0.0
H3863 H 0.52476 0.60953 0.49136 0.0
H3864 H 0.53957 0.58006 0.49164 0.0
H3865 H 0.474 0.52691 0.47552 0.0
H3866 H 0.45948 0.55642 0.47494 0.0
H3867 H 0.51308 0.52189 0.4701 0.0
H3868 H 0.475 0.5287 0.50173 0.0
H3869 H 0.47053 0.55103 0.51655 0.0
H3870 H 0.54419 0.57326 0.52641 0.0
H3871 H 0.54918 0.5513 0.51156 0.0
C3872 C 0.50154 0.42447 0.49484 0.0
C3873 C 0.51791 0.42693 0.50277 0.0
C3874 C 0.50317 0.44552 0.49029 0.0
C3875 C 0.52158 0.46912 0.49346 0.0
C3876 C 0.53907 0.4713 0.5008 0.0
C3877 C 0.53709 0.45041 0.50549 0.0
C3878 C 0.52046 0.49136 0.49048 0.0
C3879 C 0.51945 0.50588 0.49852 0.0
C3880 C 0.51841 0.49728 0.48007 0.0
C3881 C 0.52031 0.48317 0.47123 0.0
C3882 C 0.54055 0.47939 0.47037 0.0
C3883 C 0.54214 0.46595 0.46206 0.0
C3884 C 0.52367 0.45629 0.45452 0.0
C3885 C 0.50359 0.46011 0.45526 0.0
C3886 C 0.5019 0.47352 0.46356 0.0
C3887 C 0.51377 0.59176 0.48768 0.0
C3888 C 0.49074 0.58506 0.48333 0.0
C3889 C 0.52227 0.57498 0.48782 0.0
C3890 C 0.50762 0.55115 0.48378 0.0
C3891 C 0.48556 0.54517 0.4787 0.0
C3892 C 0.47719 0.56201 0.47846 0.0
C3893 C 0.51326 0.53142 0.48615 0.0
C3894 C 0.51474 0.51725 0.47805 0.0
C3895 C 0.5156 0.52558 0.49652 0.0
C3896 C 0.51256 0.53863 0.50548 0.0
C3897 C 0.49029 0.53849 0.50702 0.0
C3898 C 0.48766 0.55106 0.51543 0.0
C3899 C 0.50709 0.56362 0.5224 0.0
C3900 C 0.52917 0.56357 0.52099 0.0
C3901 C 0.53191 0.55107 0.51259 0.0
H3902 H 0.50502 0.57333 0.5289 0.0
H3903 H 0.52494 0.44589 0.44809 0.0
H3904 H 0.53502 0.10942 0.50993 0.0
H3905 H 0.49541 0.07714 0.50324 0.0
H3906 H 0.53325 0.05118 0.48348 0.0
H3907 H 0.57296 0.08433 0.48978 0.0
H3908 H 0.49052 0.04215 0.4747 0.0
H3909 H 0.51726 0.03042 0.50906 0.0
H3910 H 0.52958 0.04263 0.52724 0.0
H3911 H 0.46133 0.04102 0.53302 0.0
H3912 H 0.44875 0.02903 0.51483 0.0
H3913 H 0.44934 0.91853 0.47811 0.0
H3914 H 0.46593 0.96266 0.47723 0.0
H3915 H 0.40462 0.95547 0.49522 0.0
H3916 H 0.38792 0.91075 0.49625 0.0
H3917 H 0.44671 0.98601 0.50406 0.0
H3918 H 0.41563 0.98113 0.47049 0.0
H3919 H 0.4047 0.96699 0.45244 0.0
H3920 H 0.48122 0.99779 0.44489 0.0
H3921 H 0.49265 0.01179 0.46292 0.0
C3922 C 0.53482 0.09713 0.50398 0.0
C3923 C 0.55686 0.09883 0.50051 0.0
C3924 C 0.51223 0.07879 0.50014 0.0
C3925 C 0.51137 0.06136 0.49308 0.0
C3926 C 0.53349 0.06439 0.48896 0.0
C3927 C 0.55614 0.08318 0.4926 0.0
C3928 C 0.48813 0.03794 0.49128 0.0
C3929 C 0.48074 0.02983 0.48108 0.0
C3930 C 0.47481 0.02227 0.49965 0.0
C3931 C 0.4822 0.02912 0.51059 0.0
C3932 C 0.50495 0.03276 0.51421 0.0
C3933 C 0.51197 0.03964 0.52451 0.0
C3934 C 0.49628 0.04267 0.53127 0.0
C3935 C 0.47349 0.03872 0.52776 0.0
C3936 C 0.4664 0.03189 0.51747 0.0
C3937 C 0.43906 0.92621 0.48171 0.0
C3938 C 0.41757 0.91129 0.48741 0.0
C3939 C 0.4484 0.95148 0.48107 0.0
C3940 C 0.4364 0.96242 0.48606 0.0
C3941 C 0.41406 0.94737 0.49124 0.0
C3942 C 0.4046 0.92189 0.49185 0.0
C3943 C 0.44984 0.98951 0.48743 0.0
C3944 C 0.45554 0.99847 0.49761 0.0
C3945 C 0.46167 0.00574 0.47903 0.0
C3946 C 0.45499 0.99755 0.4681 0.0
C3947 C 0.43014 0.9848 0.465 0.0
C3948 C 0.42385 0.97681 0.45476 0.0
C3949 C 0.44225 0.9815 0.44752 0.0
C3950 C 0.46699 0.99422 0.4505 0.0
C3951 C 0.47339 0.00225 0.46073 0.0
H3952 H 0.43734 0.97528 0.4396 0.0
H3953 H 0.50176 0.04801 0.53924 0.0
H3954 H 0.48346 0.08006 0.00446 0.0
H3955 H 0.46417 0.03554 0.00678 0.0
H3956 H 0.50785 0.04694 0.0343 0.0
H3957 H 0.52801 0.09141 0.03166 0.0
H3958 H 0.51663 0.0218 0.02172 0.0
H3959 H 0.44245 0.01262 0.03461 0.0
H3960 H 0.4064 0.01828 0.0361 0.0
H3961 H 0.38057 0.98452 0.00632 0.0
H3962 H 0.41665 0.97899 0.00456 0.0
H3963 H 0.48262 0.89791 0.01174 0.0
H3964 H 0.48092 0.93006 0.02193 0.0
H3965 H 0.45331 0.9501 0.99523 0.0
H3966 H 0.45478 0.91812 0.98508 0.0
H3967 H 0.43236 0.95418 0.01359 0.0
H3968 H 0.51432 0.97791 0.99945 0.0
H3969 H 0.55096 0.97319 0.99779 0.0
H3970 H 0.56145 0.98029 0.03077 0.0
H3971 H 0.52467 0.98478 0.03261 0.0
C3972 C 0.48832 0.073 0.01117 0.0
C3973 C 0.50747 0.08897 0.01776 0.0
C3974 C 0.47715 0.04753 0.01257 0.0
C3975 C 0.48459 0.03779 0.02072 0.0
C3976 C 0.50193 0.05397 0.02792 0.0
C3977 C 0.51347 0.07935 0.02639 0.0
C3978 C 0.47832 0.01162 0.02042 0.0
C3979 C 0.498 0.0069 0.02032 0.0
C3980 C 0.45413 0.9921 0.01848 0.0
C3981 C 0.43237 0.99546 0.01944 0.0
C3982 C 0.42919 0.00656 0.02833 0.0
C3983 C 0.40872 0.00972 0.02923 0.0
C3984 C 0.39122 0.00178 0.02131 0.0
C3985 C 0.39414 0.99064 0.01246 0.0
C3986 C 0.41458 0.98745 0.01152 0.0
C3987 C 0.47583 0.90894 0.00811 0.0
C3988 C 0.46928 0.90586 0.99757 0.0
C3989 C 0.47475 0.92717 0.01395 0.0
C3990 C 0.46712 0.94251 0.0093 0.0
C3991 C 0.45913 0.93838 0.99897 0.0
C3992 C 0.46027 0.92028 0.99315 0.0
C3993 C 0.47075 0.96507 0.01451 0.0
C3994 C 0.45069 0.96904 0.01547 0.0
C3995 C 0.49456 0.98401 0.0173 0.0
C3996 C 0.51662 0.98133 0.01618 0.0
C3997 C 0.52436 0.97828 0.00634 0.0
C3998 C 0.54515 0.97568 0.00537 0.0
C3999 C 0.55848 0.97635 0.01417 0.0
C4000 C 0.55107 0.9797 0.02396 0.0
C4001 C 0.53026 0.98227 0.02498 0.0
H4002 H 0.57458 0.97434 0.0134 0.0
H4003 H 0.37537 0.00424 0.02202 0.0
H4004 H 0.91019 0.39282 0.99873 0.0
H4005 H 0.95448 0.42125 0.00014 0.0
H4006 H 0.94346 0.44626 0.02981 0.0
H4007 H 0.89902 0.41896 0.02804 0.0
H4008 H 0.96935 0.48334 0.01914 0.0
H4009 H 0.97667 0.41326 0.02644 0.0
H4010 H 0.96975 0.37115 0.02444 0.0
H4011 H 0.00391 0.38985 0.99444 0.0
H4012 H 0.01072 0.43195 0.99618 0.0
H4013 H 0.09608 0.57367 0.01267 0.0
H4014 H 0.06129 0.53807 0.02106 0.0
H4015 H 0.04306 0.49857 0.99203 0.0
H4016 H 0.07761 0.53347 0.98374 0.0
H4017 H 0.03628 0.46811 0.00805 0.0
H4018 H 0.01634 0.5331 0.9996 0.0
H4019 H 0.0226 0.57505 0.00148 0.0
H4020 H 0.01207 0.56462 0.03438 0.0
H4021 H 0.00598 0.52269 0.03268 0.0
C4022 C 0.91735 0.40415 0.00561 0.0
C4023 C 0.90135 0.40404 0.01321 0.0
C4024 C 0.9427 0.42022 0.00648 0.0
C4025 C 0.95247 0.43578 0.01516 0.0
C4026 C 0.93643 0.43454 0.02303 0.0
C4027 C 0.91107 0.41901 0.02201 0.0
C4028 C 0.97875 0.4555 0.01532 0.0
C4029 C 0.98405 0.47981 0.01703 0.0
C4030 C 0.99808 0.45112 0.01252 0.0
C4031 C 0.99415 0.4258 0.01144 0.0
C4032 C 0.98259 0.40837 0.01939 0.0
C4033 C 0.9787 0.38449 0.0183 0.0
C4034 C 0.98637 0.37783 0.00931 0.0
C4035 C 0.99799 0.39504 0.0014 0.0
C4036 C 0.00192 0.41894 0.00245 0.0
C4037 C 0.08478 0.55725 0.00814 0.0
C4038 C 0.08933 0.55646 0.99752 0.0
C4039 C 0.06499 0.53695 0.01294 0.0
C4040 C 0.04952 0.51576 0.00714 0.0
C4041 C 0.05482 0.51466 0.99667 0.0
C4042 C 0.07447 0.53477 0.99191 0.0
C4043 C 0.02626 0.49558 0.01142 0.0
C4044 C 0.02159 0.47129 0.01056 0.0
C4045 C 0.00747 0.49986 0.01505 0.0
C4046 C 0.01101 0.52496 0.01603 0.0
C4047 C 0.01551 0.53984 0.00723 0.0
C4048 C 0.019 0.56358 0.00827 0.0
C4049 C 0.01781 0.57252 0.01805 0.0
C4050 C 0.01304 0.5577 0.02681 0.0
C4051 C 0.00957 0.53396 0.02582 0.0
H4052 H 0.02053 0.5909 0.01883 0.0
H4053 H 0.98333 0.35933 0.00848 0.0
H4054 H 0.42298 0.5029 0.00293 0.0
H4055 H 0.46209 0.51074 0.01037 0.0
H4056 H 0.49555 0.58735 0.00153 0.0
H4057 H 0.45681 0.57888 0.99344 0.0
H4058 H 0.52237 0.57301 0.99478 0.0
H4059 H 0.49205 0.56758 0.02812 0.0
H4060 H 0.46307 0.55297 0.04281 0.0
H4061 H 0.46218 0.48405 0.04262 0.0
H4062 H 0.49082 0.49803 0.02782 0.0
H4063 H 0.59601 0.51665 0.02339 0.0
H4064 H 0.57956 0.54492 0.02402 0.0
H4065 H 0.5508 0.52258 0.99303 0.0
H4066 H 0.56783 0.49521 0.99236 0.0
H4067 H 0.53393 0.52965 0.02447 0.0
H4068 H 0.53868 0.55912 0.98069 0.0
H4069 H 0.57022 0.57799 0.96706 0.0
H4070 H 0.62715 0.6075 0.99016 0.0
H4071 H 0.59595 0.58914 0.00396 0.0
C4072 C 0.43856 0.52148 0.00286 0.0
C4073 C 0.43721 0.54026 0.99759 0.0
C4074 C 0.46091 0.5261 0.0072 0.0
C4075 C 0.48193 0.54976 0.00659 0.0
C4076 C 0.47976 0.56895 0.00205 0.0
C4077 C 0.45766 0.56414 0.99745 0.0
C4078 C 0.50664 0.55319 0.00901 0.0
C4079 C 0.52506 0.56392 0.00138 0.0
C4080 C 0.51091 0.54257 0.01788 0.0
C4081 C 0.49366 0.53392 0.02683 0.0
C4082 C 0.48559 0.54926 0.03116 0.0
C4083 C 0.46922 0.54108 0.03952 0.0
C4084 C 0.4608 0.5176 0.04365 0.0
C4085 C 0.46876 0.50225 0.03943 0.0
C4086 C 0.48513 0.51033 0.03107 0.0
C4087 C 0.58722 0.51888 0.01656 0.0
C4088 C 0.5834 0.50428 0.00776 0.0
C4089 C 0.5777 0.53482 0.01694 0.0
C4090 C 0.56406 0.53608 0.00855 0.0
C4091 C 0.5618 0.52258 0.9995 0.0
C4092 C 0.57144 0.50684 0.99911 0.0
C4093 C 0.54831 0.54738 0.00975 0.0
C4094 C 0.53164 0.53957 0.01808 0.0
C4095 C 0.54605 0.56143 0.00171 0.0
C4096 C 0.5649 0.57273 0.99339 0.0
C4097 C 0.55789 0.56983 0.98289 0.0
C4098 C 0.57573 0.58038 0.97512 0.0
C4099 C 0.60067 0.59393 0.97774 0.0
C4100 C 0.60783 0.59696 0.98814 0.0
C4101 C 0.59006 0.58645 0.99594 0.0
H4102 H 0.61445 0.60207 0.97171 0.0
H4103 H 0.44811 0.5113 0.05012 0.0
loop_
_geom_bond_atom_site_label_1
_geom_bond_atom_site_label_2
_geom_bond_distance
_geom_bond_site_symmetry_2
_ccdc_geom_bond_type
Co0 O1 2.216 . S
Co0 O2 2.091 . S
Co0 O4 2.004 . S
Co0 O10 2.021 . S
Co0 O12 2.137 . S
Co0 O13 2.244 . S
O1 Co0 2.216 . S
O1 C8 1.247 . S
O2 Co0 2.091 . S
O2 C8 1.261 . S
C3 O12 1.247 . S
C3 O13 1.272 . S
O4 Co0 2.004 . S
O4 C9 1.259 . S
Co5 O6 2.061 . S
Co5 O11 2.052 . S
Co5 O13 2.135 . S
O6 Co5 2.061 . S
O6 C9 1.235 . S
C7 O10 1.238 . S
C7 O11 1.241 . S
C8 O1 1.247 . S
C8 O2 1.261 . S
C9 O4 1.259 . S
C9 O6 1.235 . S
O10 Co0 2.021 . S
O10 C7 1.238 . S
O11 Co5 2.052 . S
O11 C7 1.241 . S
O12 Co0 2.137 . S
O12 C3 1.247 . S
O13 Co0 2.244 . S
O13 C3 1.272 . S
O13 Co5 2.135 . S
Co14 O15 2.216 . S
Co14 O16 2.091 . S
Co14 O18 2.004 1_545 S
Co14 O24 2.021 . S
Co14 O26 2.137 . S
Co14 O27 2.244 . S
O15 Co14 2.216 . S
O15 C22 1.247 . S
O16 Co14 2.091 . S
O16 C22 1.261 . S
C17 O26 1.247 . S
C17 O27 1.272 . S
O18 Co14 2.004 1_565 S
O18 C23 1.259 . S
Co19 O20 2.061 1_545 S
Co19 O25 2.052 . S
Co19 O27 2.135 . S
O20 Co19 2.061 1_565 S
O20 C23 1.235 . S
C21 O24 1.238 . S
C21 O25 1.241 . S
C22 O15 1.247 . S
C22 O16 1.261 . S
C23 O18 1.259 . S
C23 O20 1.235 . S
O24 Co14 2.021 . S
O24 C21 1.238 . S
O25 Co19 2.052 . S
O25 C21 1.241 . S
O26 Co14 2.137 . S
O26 C17 1.247 . S
O27 Co14 2.244 . S
O27 C17 1.272 . S
O27 Co19 2.135 . S
Co28 O29 2.216 . S
Co28 O30 2.091 . S
Co28 O32 2.004 1_655 S
Co28 O38 2.021 . S
Co28 O40 2.137 . S
Co28 O41 2.244 . S
O29 Co28 2.216 . S
O29 C36 1.247 . S
O30 Co28 2.091 . S
O30 C36 1.261 . S
C31 O40 1.247 . S
C31 O41 1.272 . S
O32 Co28 2.004 1_455 S
O32 C37 1.259 . S
Co33 O34 2.061 1_655 S
Co33 O39 2.052 . S
Co33 O41 2.135 . S
O34 Co33 2.061 1_455 S
O34 C37 1.235 . S
C35 O38 1.238 . S
C35 O39 1.241 . S
C36 O29 1.247 . S
C36 O30 1.261 . S
C37 O32 1.259 . S
C37 O34 1.235 . S
O38 Co28 2.021 . S
O38 C35 1.238 . S
O39 Co33 2.052 . S
O39 C35 1.241 . S
O40 Co28 2.137 . S
O40 C31 1.247 . S
O41 Co28 2.244 . S
O41 C31 1.272 . S
O41 Co33 2.135 . S
Co42 O43 2.216 . S
Co42 O44 2.091 . S
Co42 O46 2.004 . S
Co42 O52 2.021 . S
Co42 O54 2.137 . S
Co42 O55 2.244 . S
O43 Co42 2.216 . S
O43 C50 1.247 . S
O44 Co42 2.091 . S
O44 C50 1.261 . S
C45 O54 1.247 . S
C45 O55 1.272 . S
O46 Co42 2.004 . S
O46 C51 1.259 . S
Co47 O48 2.061 . S
Co47 O53 2.052 . S
Co47 O55 2.135 . S
O48 Co47 2.061 . S
O48 C51 1.235 . S
C49 O52 1.238 . S
C49 O53 1.241 . S
C50 O43 1.247 . S
C50 O44 1.261 . S
C51 O46 1.259 . S
C51 O48 1.235 . S
O52 Co42 2.021 . S
O52 C49 1.238 . S
O53 Co47 2.052 . S
O53 C49 1.241 . S
O54 Co42 2.137 . S
O54 C45 1.247 . S
O55 Co42 2.244 . S
O55 C45 1.272 . S
O55 Co47 2.135 . S
Co56 O57 2.216 . S
Co56 O58 2.091 . S
Co56 O60 2.004 1_565 S
Co56 O66 2.021 . S
Co56 O68 2.137 . S
Co56 O69 2.244 . S
O57 Co56 2.216 . S
O57 C64 1.247 . S
O58 Co56 2.091 . S
O58 C64 1.261 . S
C59 O68 1.247 . S
C59 O69 1.272 . S
O60 Co56 2.004 1_545 S
O60 C65 1.259 . S
Co61 O62 2.061 1_565 S
Co61 O67 2.052 . S
Co61 O69 2.135 . S
O62 Co61 2.061 1_545 S
O62 C65 1.235 . S
C63 O66 1.238 . S
C63 O67 1.241 . S
C64 O57 1.247 . S
C64 O58 1.261 . S
C65 O60 1.259 . S
C65 O62 1.235 . S
O66 Co56 2.021 . S
O66 C63 1.238 . S
O67 Co61 2.052 . S
O67 C63 1.241 . S
O68 Co56 2.137 . S
O68 C59 1.247 . S
O69 Co56 2.244 . S
O69 C59 1.272 . S
O69 Co61 2.135 . S
Co70 O71 2.216 . S
Co70 O72 2.091 . S
Co70 O74 2.004 1_455 S
Co70 O80 2.021 . S
Co70 O82 2.137 . S
Co70 O83 2.244 . S
O71 Co70 2.216 . S
O71 C78 1.247 . S
O72 Co70 2.091 . S
O72 C78 1.261 . S
C73 O82 1.247 . S
C73 O83 1.272 . S
O74 Co70 2.004 1_655 S
O74 C79 1.259 . S
Co75 O76 2.061 1_455 S
Co75 O81 2.052 . S
Co75 O83 2.135 . S
O76 Co75 2.061 1_655 S
O76 C79 1.235 . S
C77 O80 1.238 . S
C77 O81 1.241 . S
C78 O71 1.247 . S
C78 O72 1.261 . S
C79 O74 1.259 . S
C79 O76 1.235 . S
O80 Co70 2.021 . S
O80 C77 1.238 . S
O81 Co75 2.052 . S
O81 C77 1.241 . S
O82 Co70 2.137 . S
O82 C73 1.247 . S
O83 Co70 2.244 . S
O83 C73 1.272 . S
O83 Co75 2.135 . S
Co84 O85 2.216 . S
Co84 O86 2.091 . S
Co84 O88 2.004 . S
Co84 O94 2.021 . S
Co84 O96 2.137 . S
Co84 O97 2.244 . S
O85 Co84 2.216 . S
O85 C92 1.247 . S
O86 Co84 2.091 . S
O86 C92 1.261 . S
C87 O96 1.247 . S
C87 O97 1.272 . S
O88 Co84 2.004 . S
O88 C93 1.259 . S
Co89 O90 2.061 . S
Co89 O95 2.052 . S
Co89 O97 2.135 . S
O90 Co89 2.061 . S
O90 C93 1.235 . S
C91 O94 1.238 . S
C91 O95 1.241 . S
C92 O85 1.247 . S
C92 O86 1.261 . S
C93 O88 1.259 . S
C93 O90 1.235 . S
O94 Co84 2.021 . S
O94 C91 1.238 . S
O95 Co89 2.052 . S
O95 C91 1.241 . S
O96 Co84 2.137 . S
O96 C87 1.247 . S
O97 Co84 2.244 . S
O97 C87 1.272 . S
O97 Co89 2.135 . S
Co98 O99 2.216 . S
Co98 O100 2.091 . S
Co98 O102 2.004 1_565 S
Co98 O108 2.021 . S
Co98 O110 2.137 . S
Co98 O111 2.244 . S
O99 Co98 2.216 . S
O99 C106 1.247 . S
O100 Co98 2.091 . S
O100 C106 1.261 . S
C101 O110 1.247 . S
C101 O111 1.272 . S
O102 Co98 2.004 1_545 S
O102 C107 1.259 . S
Co103 O104 2.061 1_565 S
Co103 O109 2.052 . S
Co103 O111 2.135 . S
O104 Co103 2.061 1_545 S
O104 C107 1.235 . S
C105 O108 1.238 . S
C105 O109 1.241 . S
C106 O99 1.247 . S
C106 O100 1.261 . S
C107 O102 1.259 . S
C107 O104 1.235 . S
O108 Co98 2.021 . S
O108 C105 1.238 . S
O109 Co103 2.052 . S
O109 C105 1.241 . S
O110 Co98 2.137 . S
O110 C101 1.247 . S
O111 Co98 2.244 . S
O111 C101 1.272 . S
O111 Co103 2.135 . S
Co112 O113 2.216 . S
Co112 O114 2.091 . S
Co112 O116 2.004 1_455 S
Co112 O122 2.021 . S
Co112 O124 2.137 . S
Co112 O125 2.244 . S
O113 Co112 2.216 . S
O113 C120 1.247 . S
O114 Co112 2.091 . S
O114 C120 1.261 . S
C115 O124 1.247 . S
C115 O125 1.272 . S
O116 Co112 2.004 1_655 S
O116 C121 1.259 . S
Co117 O118 2.061 1_455 S
Co117 O123 2.052 . S
Co117 O125 2.135 . S
O118 Co117 2.061 1_655 S
O118 C121 1.235 . S
C119 O122 1.238 . S
C119 O123 1.241 . S
C120 O113 1.247 . S
C120 O114 1.261 . S
C121 O116 1.259 . S
C121 O118 1.235 . S
O122 Co112 2.021 . S
O122 C119 1.238 . S
O123 Co117 2.052 . S
O123 C119 1.241 . S
O124 Co112 2.137 . S
O124 C115 1.247 . S
O125 Co112 2.244 . S
O125 C115 1.272 . S
O125 Co117 2.135 . S
Co126 O127 2.216 . S
Co126 O128 2.091 . S
Co126 O130 2.004 . S
Co126 O136 2.021 . S
Co126 O138 2.137 . S
Co126 O139 2.244 . S
O127 Co126 2.216 . S
O127 C134 1.247 . S
O128 Co126 2.091 . S
O128 C134 1.261 . S
C129 O138 1.247 . S
C129 O139 1.272 . S
O130 Co126 2.004 . S
O130 C135 1.259 . S
Co131 O132 2.061 . S
Co131 O137 2.052 . S
Co131 O139 2.135 . S
O132 Co131 2.061 . S
O132 C135 1.235 . S
C133 O136 1.238 . S
C133 O137 1.241 . S
C134 O127 1.247 . S
C134 O128 1.261 . S
C135 O130 1.259 . S
C135 O132 1.235 . S
O136 Co126 2.021 . S
O136 C133 1.238 . S
O137 Co131 2.052 . S
O137 C133 1.241 . S
O138 Co126 2.137 . S
O138 C129 1.247 . S
O139 Co126 2.244 . S
O139 C129 1.272 . S
O139 Co131 2.135 . S
Co140 O141 2.216 . S
Co140 O142 2.091 . S
Co140 O144 2.004 1_545 S
Co140 O150 2.021 . S
Co140 O152 2.137 . S
Co140 O153 2.244 . S
O141 Co140 2.216 . S
O141 C148 1.247 . S
O142 Co140 2.091 . S
O142 C148 1.261 . S
C143 O152 1.247 . S
C143 O153 1.272 . S
O144 Co140 2.004 1_565 S
O144 C149 1.259 . S
Co145 O146 2.061 1_545 S
Co145 O151 2.052 . S
Co145 O153 2.135 . S
O146 Co145 2.061 1_565 S
O146 C149 1.235 . S
C147 O150 1.238 . S
C147 O151 1.241 . S
C148 O141 1.247 . S
C148 O142 1.261 . S
C149 O144 1.259 . S
C149 O146 1.235 . S
O150 Co140 2.021 . S
O150 C147 1.238 . S
O151 Co145 2.052 . S
O151 C147 1.241 . S
O152 Co140 2.137 . S
O152 C143 1.247 . S
O153 Co140 2.244 . S
O153 C143 1.272 . S
O153 Co145 2.135 . S
Co154 O155 2.216 . S
Co154 O156 2.091 . S
Co154 O158 2.004 1_655 S
Co154 O164 2.021 . S
Co154 O166 2.137 . S
Co154 O167 2.244 . S
O155 Co154 2.216 . S
O155 C162 1.247 . S
O156 Co154 2.091 . S
O156 C162 1.261 . S
C157 O166 1.247 . S
C157 O167 1.272 . S
O158 Co154 2.004 1_455 S
O158 C163 1.259 . S
Co159 O160 2.061 1_655 S
Co159 O165 2.052 . S
Co159 O167 2.135 . S
O160 Co159 2.061 1_455 S
O160 C163 1.235 . S
C161 O164 1.238 . S
C161 O165 1.241 . S
C162 O155 1.247 . S
C162 O156 1.261 . S
C163 O158 1.259 . S
C163 O160 1.235 . S
O164 Co154 2.021 . S
O164 C161 1.238 . S
O165 Co159 2.052 . S
O165 C161 1.241 . S
O166 Co154 2.137 . S
O166 C157 1.247 . S
O167 Co154 2.244 . S
O167 C157 1.272 . S
O167 Co159 2.135 . S
Co168 O169 2.216 . S
Co168 O170 2.091 . S
Co168 O172 2.004 . S
Co168 O178 2.021 . S
Co168 O180 2.137 . S
Co168 O181 2.244 . S
O169 Co168 2.216 . S
O169 C176 1.247 . S
O170 Co168 2.091 . S
O170 C176 1.261 . S
C171 O180 1.247 . S
C171 O181 1.272 . S
O172 Co168 2.004 . S
O172 C177 1.259 . S
Co173 O174 2.061 . S
Co173 O179 2.052 . S
Co173 O181 2.135 . S
O174 Co173 2.061 . S
O174 C177 1.235 . S
C175 O178 1.238 . S
C175 O179 1.241 . S
C176 O169 1.247 . S
C176 O170 1.261 . S
C177 O172 1.259 . S
C177 O174 1.235 . S
O178 Co168 2.021 . S
O178 C175 1.238 . S
O179 Co173 2.052 . S
O179 C175 1.241 . S
O180 Co168 2.137 . S
O180 C171 1.247 . S
O181 Co168 2.244 . S
O181 C171 1.272 . S
O181 Co173 2.135 . S
Co182 O183 2.216 . S
Co182 O184 2.091 . S
Co182 O186 2.004 . S
Co182 O192 2.021 . S
Co182 O194 2.137 . S
Co182 O195 2.244 . S
O183 Co182 2.216 . S
O183 C190 1.247 . S
O184 Co182 2.091 . S
O184 C190 1.261 . S
C185 O194 1.247 . S
C185 O195 1.272 . S
O186 Co182 2.004 . S
O186 C191 1.259 . S
Co187 O188 2.061 . S
Co187 O193 2.052 . S
Co187 O195 2.135 . S
O188 Co187 2.061 . S
O188 C191 1.235 . S
C189 O192 1.238 . S
C189 O193 1.241 . S
C190 O183 1.247 . S
C190 O184 1.261 . S
C191 O186 1.259 . S
C191 O188 1.235 . S
O192 Co182 2.021 . S
O192 C189 1.238 . S
O193 Co187 2.052 . S
O193 C189 1.241 . S
O194 Co182 2.137 . S
O194 C185 1.247 . S
O195 Co182 2.244 . S
O195 C185 1.272 . S
O195 Co187 2.135 . S
Co196 O197 2.216 . S
Co196 O198 2.091 . S
Co196 O200 2.004 . S
Co196 O206 2.021 . S
Co196 O208 2.137 . S
Co196 O209 2.244 . S
O197 Co196 2.216 . S
O197 C204 1.247 . S
O198 Co196 2.091 . S
O198 C204 1.261 . S
C199 O208 1.247 . S
C199 O209 1.272 . S
O200 Co196 2.004 . S
O200 C205 1.259 . S
Co201 O202 2.061 . S
Co201 O207 2.052 . S
Co201 O209 2.135 . S
O202 Co201 2.061 . S
O202 C205 1.235 . S
C203 O206 1.238 . S
C203 O207 1.241 . S
C204 O197 1.247 . S
C204 O198 1.261 . S
C205 O200 1.259 . S
C205 O202 1.235 . S
O206 Co196 2.021 . S
O206 C203 1.238 . S
O207 Co201 2.052 . S
O207 C203 1.241 . S
O208 Co196 2.137 . S
O208 C199 1.247 . S
O209 Co196 2.244 . S
O209 C199 1.272 . S
O209 Co201 2.135 . S
Co210 O211 2.216 . S
Co210 O212 2.091 . S
Co210 O214 2.004 . S
Co210 O220 2.021 . S
Co210 O222 2.137 . S
Co210 O223 2.244 . S
O211 Co210 2.216 . S
O211 C218 1.247 . S
O212 Co210 2.091 . S
O212 C218 1.261 . S
C213 O222 1.247 . S
C213 O223 1.272 . S
O214 Co210 2.004 . S
O214 C219 1.259 . S
Co215 O216 2.061 . S
Co215 O221 2.052 . S
Co215 O223 2.135 . S
O216 Co215 2.061 . S
O216 C219 1.235 . S
C217 O220 1.238 . S
C217 O221 1.241 . S
C218 O211 1.247 . S
C218 O212 1.261 . S
C219 O214 1.259 . S
C219 O216 1.235 . S
O220 Co210 2.021 . S
O220 C217 1.238 . S
O221 Co215 2.052 . S
O221 C217 1.241 . S
O222 Co210 2.137 . S
O222 C213 1.247 . S
O223 Co210 2.244 . S
O223 C213 1.272 . S
O223 Co215 2.135 . S
Co224 O225 2.216 . S
Co224 O226 2.091 . S
Co224 O228 2.004 . S
Co224 O234 2.021 . S
Co224 O236 2.137 . S
Co224 O237 2.244 . S
O225 Co224 2.216 . S
O225 C232 1.247 . S
O226 Co224 2.091 . S
O226 C232 1.261 . S
C227 O236 1.247 . S
C227 O237 1.272 . S
O228 Co224 2.004 . S
O228 C233 1.259 . S
Co229 O230 2.061 . S
Co229 O235 2.052 . S
Co229 O237 2.135 . S
O230 Co229 2.061 . S
O230 C233 1.235 . S
C231 O234 1.238 . S
C231 O235 1.241 . S
C232 O225 1.247 . S
C232 O226 1.261 . S
C233 O228 1.259 . S
C233 O230 1.235 . S
O234 Co224 2.021 . S
O234 C231 1.238 . S
O235 Co229 2.052 . S
O235 C231 1.241 . S
O236 Co224 2.137 . S
O236 C227 1.247 . S
O237 Co224 2.244 . S
O237 C227 1.272 . S
O237 Co229 2.135 . S
Co238 O239 2.216 . S
Co238 O240 2.091 . S
Co238 O242 2.004 . S
Co238 O248 2.021 . S
Co238 O250 2.137 . S
Co238 O251 2.244 . S
O239 Co238 2.216 . S
O239 C246 1.247 . S
O240 Co238 2.091 . S
O240 C246 1.261 . S
C241 O250 1.247 . S
C241 O251 1.272 . S
O242 Co238 2.004 . S
O242 C247 1.259 . S
Co243 O244 2.061 . S
Co243 O249 2.052 . S
Co243 O251 2.135 . S
O244 Co243 2.061 . S
O244 C247 1.235 . S
C245 O248 1.238 . S
C245 O249 1.241 . S
C246 O239 1.247 . S
C246 O240 1.261 . S
C247 O242 1.259 . S
C247 O244 1.235 . S
O248 Co238 2.021 . S
O248 C245 1.238 . S
O249 Co243 2.052 . S
O249 C245 1.241 . S
O250 Co238 2.137 . S
O250 C241 1.247 . S
O251 Co238 2.244 . S
O251 C241 1.272 . S
O251 Co243 2.135 . S
Co252 O253 2.216 . S
Co252 O254 2.091 . S
Co252 O256 2.004 . S
Co252 O262 2.021 . S
Co252 O264 2.137 . S
Co252 O265 2.244 . S
O253 Co252 2.216 . S
O253 C260 1.247 . S
O254 Co252 2.091 . S
O254 C260 1.261 . S
C255 O264 1.247 . S
C255 O265 1.272 . S
O256 Co252 2.004 . S
O256 C261 1.259 . S
Co257 O258 2.061 . S
Co257 O263 2.052 . S
Co257 O265 2.135 . S
O258 Co257 2.061 . S
O258 C261 1.235 . S
C259 O262 1.238 . S
C259 O263 1.241 . S
C260 O253 1.247 . S
C260 O254 1.261 . S
C261 O256 1.259 . S
C261 O258 1.235 . S
O262 Co252 2.021 . S
O262 C259 1.238 . S
O263 Co257 2.052 . S
O263 C259 1.241 . S
O264 Co252 2.137 . S
O264 C255 1.247 . S
O265 Co252 2.244 . S
O265 C255 1.272 . S
O265 Co257 2.135 . S
Co266 O267 2.216 . S
Co266 O268 2.091 . S
Co266 O270 2.004 . S
Co266 O276 2.021 . S
Co266 O278 2.137 . S
Co266 O279 2.244 . S
O267 Co266 2.216 . S
O267 C274 1.247 . S
O268 Co266 2.091 . S
O268 C274 1.261 . S
C269 O278 1.247 . S
C269 O279 1.272 . S
O270 Co266 2.004 . S
O270 C275 1.259 . S
Co271 O272 2.061 . S
Co271 O277 2.052 . S
Co271 O279 2.135 . S
O272 Co271 2.061 . S
O272 C275 1.235 . S
C273 O276 1.238 . S
C273 O277 1.241 . S
C274 O267 1.247 . S
C274 O268 1.261 . S
C275 O270 1.259 . S
C275 O272 1.235 . S
O276 Co266 2.021 . S
O276 C273 1.238 . S
O277 Co271 2.052 . S
O277 C273 1.241 . S
O278 Co266 2.137 . S
O278 C269 1.247 . S
O279 Co266 2.244 . S
O279 C269 1.272 . S
O279 Co271 2.135 . S
Co280 O281 2.216 . S
Co280 O282 2.091 . S
Co280 O284 2.004 . S
Co280 O290 2.021 . S
Co280 O292 2.137 . S
Co280 O293 2.244 . S
O281 Co280 2.216 . S
O281 C288 1.247 . S
O282 Co280 2.091 . S
O282 C288 1.261 . S
C283 O292 1.247 . S
C283 O293 1.272 . S
O284 Co280 2.004 . S
O284 C289 1.259 . S
Co285 O286 2.061 . S
Co285 O291 2.052 . S
Co285 O293 2.135 . S
O286 Co285 2.061 . S
O286 C289 1.235 . S
C287 O290 1.238 . S
C287 O291 1.241 . S
C288 O281 1.247 . S
C288 O282 1.261 . S
C289 O284 1.259 . S
C289 O286 1.235 . S
O290 Co280 2.021 . S
O290 C287 1.238 . S
O291 Co285 2.052 . S
O291 C287 1.241 . S
O292 Co280 2.137 . S
O292 C283 1.247 . S
O293 Co280 2.244 . S
O293 C283 1.272 . S
O293 Co285 2.135 . S
Co294 O295 2.216 . S
Co294 O296 2.091 1_554 S
Co294 O298 1.971 1_554 S
Co294 O304 2.021 . S
Co294 O306 2.137 1_554 S
Co294 O307 2.244 . S
O295 Co294 2.216 . S
O295 C302 1.324 . S
O296 Co294 2.091 1_556 S
O296 C302 1.216 1_556 S
C297 O306 1.247 1_554 S
C297 O307 1.272 . S
O298 Co294 1.971 1_556 S
O298 C303 1.221 1_556 S
Co299 O300 2.061 . S
Co299 O305 2.052 . S
Co299 O307 2.135 . S
O300 Co299 2.061 . S
O300 C303 1.235 . S
C301 O304 1.238 . S
C301 O305 1.241 . S
C302 O295 1.324 . S
C302 O296 1.216 1_554 S
C303 O298 1.221 1_554 S
C303 O300 1.235 . S
O304 Co294 2.021 . S
O304 C301 1.238 . S
O305 Co299 2.052 . S
O305 C301 1.241 . S
O306 Co294 2.137 1_556 S
O306 C297 1.247 1_556 S
O307 Co294 2.244 . S
O307 C297 1.272 . S
O307 Co299 2.135 . S
Co308 O309 2.216 . S
Co308 O310 2.091 1_554 S
Co308 O312 1.971 1_554 S
Co308 O318 2.021 . S
Co308 O320 2.137 1_554 S
Co308 O321 2.244 . S
O309 Co308 2.216 . S
O309 C316 1.324 . S
O310 Co308 2.091 1_556 S
O310 C316 1.216 1_556 S
C311 O320 1.247 1_554 S
C311 O321 1.272 . S
O312 Co308 1.971 1_556 S
O312 C317 1.222 1_556 S
Co313 O314 2.061 . S
Co313 O319 2.052 . S
Co313 O321 2.135 . S
O314 Co313 2.061 . S
O314 C317 1.235 . S
C315 O318 1.238 . S
C315 O319 1.241 . S
C316 O309 1.324 . S
C316 O310 1.216 1_554 S
C317 O312 1.222 1_554 S
C317 O314 1.235 . S
O318 Co308 2.021 . S
O318 C315 1.238 . S
O319 Co313 2.052 . S
O319 C315 1.241 . S
O320 Co308 2.137 1_556 S
O320 C311 1.247 1_556 S
O321 Co308 2.244 . S
O321 C311 1.272 . S
O321 Co313 2.135 . S
Co322 O323 2.216 . S
Co322 O324 2.091 1_554 S
Co322 O326 1.971 1_554 S
Co322 O332 2.021 . S
Co322 O334 2.137 1_554 S
Co322 O335 2.244 . S
O323 Co322 2.216 . S
O323 C330 1.323 . S
O324 Co322 2.091 1_556 S
O324 C330 1.216 1_556 S
C325 O334 1.247 1_554 S
C325 O335 1.272 . S
O326 Co322 1.971 1_556 S
O326 C331 1.221 1_556 S
Co327 O328 2.061 . S
Co327 O333 2.052 . S
Co327 O335 2.135 . S
O328 Co327 2.061 . S
O328 C331 1.235 . S
C329 O332 1.238 . S
C329 O333 1.241 . S
C330 O323 1.323 . S
C330 O324 1.216 1_554 S
C331 O326 1.221 1_554 S
C331 O328 1.235 . S
O332 Co322 2.021 . S
O332 C329 1.238 . S
O333 Co327 2.052 . S
O333 C329 1.241 . S
O334 Co322 2.137 1_556 S
O334 C325 1.247 1_556 S
O335 Co322 2.244 . S
O335 C325 1.272 . S
O335 Co327 2.135 . S
Co336 O337 2.216 . S
Co336 O338 2.091 . S
Co336 O340 2.004 . S
Co336 O346 2.021 . S
Co336 O348 2.137 . S
Co336 O349 2.244 . S
O337 Co336 2.216 . S
O337 C344 1.247 . S
O338 Co336 2.091 . S
O338 C344 1.261 . S
C339 O348 1.247 . S
C339 O349 1.272 . S
O340 Co336 2.004 . S
O340 C345 1.259 . S
Co341 O342 2.061 . S
Co341 O347 2.052 . S
Co341 O349 2.135 . S
O342 Co341 2.061 . S
O342 C345 1.235 . S
C343 O346 1.238 . S
C343 O347 1.241 . S
C344 O337 1.247 . S
C344 O338 1.261 . S
C345 O340 1.259 . S
C345 O342 1.235 . S
O346 Co336 2.021 . S
O346 C343 1.238 . S
O347 Co341 2.052 . S
O347 C343 1.241 . S
O348 Co336 2.137 . S
O348 C339 1.247 . S
O349 Co336 2.244 . S
O349 C339 1.272 . S
O349 Co341 2.135 . S
Co350 O351 2.216 . S
Co350 O352 2.091 . S
Co350 O354 2.004 . S
Co350 O360 2.021 . S
Co350 O362 2.137 . S
Co350 O363 2.244 . S
O351 Co350 2.216 . S
O351 C358 1.247 . S
O352 Co350 2.091 . S
O352 C358 1.261 . S
C353 O362 1.247 . S
C353 O363 1.272 . S
O354 Co350 2.004 . S
O354 C359 1.259 . S
Co355 O356 2.061 . S
Co355 O361 2.052 . S
Co355 O363 2.135 . S
O356 Co355 2.061 . S
O356 C359 1.235 . S
C357 O360 1.238 . S
C357 O361 1.241 . S
C358 O351 1.247 . S
C358 O352 1.261 . S
C359 O354 1.259 . S
C359 O356 1.235 . S
O360 Co350 2.021 . S
O360 C357 1.238 . S
O361 Co355 2.052 . S
O361 C357 1.241 . S
O362 Co350 2.137 . S
O362 C353 1.247 . S
O363 Co350 2.244 . S
O363 C353 1.272 . S
O363 Co355 2.135 . S
Co364 O365 2.216 . S
Co364 O366 2.091 . S
Co364 O368 2.004 . S
Co364 O374 2.021 . S
Co364 O376 2.137 . S
Co364 O377 2.244 . S
O365 Co364 2.216 . S
O365 C372 1.247 . S
O366 Co364 2.091 . S
O366 C372 1.261 . S
C367 O376 1.247 . S
C367 O377 1.272 . S
O368 Co364 2.004 . S
O368 C373 1.259 . S
Co369 O370 2.061 . S
Co369 O375 2.052 . S
Co369 O377 2.135 . S
O370 Co369 2.061 . S
O370 C373 1.235 . S
C371 O374 1.238 . S
C371 O375 1.241 . S
C372 O365 1.247 . S
C372 O366 1.261 . S
C373 O368 1.259 . S
C373 O370 1.235 . S
O374 Co364 2.021 . S
O374 C371 1.238 . S
O375 Co369 2.052 . S
O375 C371 1.241 . S
O376 Co364 2.137 . S
O376 C367 1.247 . S
O377 Co364 2.244 . S
O377 C367 1.272 . S
O377 Co369 2.135 . S
Co378 O379 2.216 . S
Co378 O380 2.091 1_556 S
Co378 O382 2.004 . S
Co378 O388 2.021 . S
Co378 O390 2.137 . S
Co378 O391 2.244 . S
O379 Co378 2.216 . S
O379 C386 1.247 . S
O380 Co378 2.091 1_554 S
O380 C386 1.261 1_554 S
C381 O390 1.247 . S
C381 O391 1.272 . S
O382 Co378 2.004 . S
O382 C387 1.259 . S
Co383 O384 2.061 . S
Co383 O389 2.052 . S
Co383 O391 2.135 . S
O384 Co383 2.061 . S
O384 C387 1.235 . S
C385 O388 1.238 . S
C385 O389 1.241 . S
C386 O379 1.247 . S
C386 O380 1.261 1_556 S
C387 O382 1.259 . S
C387 O384 1.235 . S
O388 Co378 2.021 . S
O388 C385 1.238 . S
O389 Co383 2.052 . S
O389 C385 1.241 . S
O390 Co378 2.137 . S
O390 C381 1.247 . S
O391 Co378 2.244 . S
O391 C381 1.272 . S
O391 Co383 2.135 . S
Co392 O393 2.216 . S
Co392 O394 2.091 1_556 S
Co392 O396 2.004 . S
Co392 O402 2.021 . S
Co392 O404 2.137 . S
Co392 O405 2.244 . S
O393 Co392 2.216 . S
O393 C400 1.247 . S
O394 Co392 2.091 1_554 S
O394 C400 1.261 1_554 S
C395 O404 1.247 . S
C395 O405 1.272 . S
O396 Co392 2.004 . S
O396 C401 1.259 . S
Co397 O398 2.061 . S
Co397 O403 2.052 . S
Co397 O405 2.135 . S
O398 Co397 2.061 . S
O398 C401 1.235 . S
C399 O402 1.238 . S
C399 O403 1.241 . S
C400 O393 1.247 . S
C400 O394 1.261 1_556 S
C401 O396 1.259 . S
C401 O398 1.235 . S
O402 Co392 2.021 . S
O402 C399 1.238 . S
O403 Co397 2.052 . S
O403 C399 1.241 . S
O404 Co392 2.137 . S
O404 C395 1.247 . S
O405 Co392 2.244 . S
O405 C395 1.272 . S
O405 Co397 2.135 . S
Co406 O407 2.216 . S
Co406 O408 2.091 1_556 S
Co406 O410 2.004 . S
Co406 O416 2.021 . S
Co406 O418 2.137 . S
Co406 O419 2.244 . S
O407 Co406 2.216 . S
O407 C414 1.247 . S
O408 Co406 2.091 1_554 S
O408 C414 1.261 1_554 S
C409 O418 1.247 . S
C409 O419 1.272 . S
O410 Co406 2.004 . S
O410 C415 1.259 . S
Co411 O412 2.061 . S
Co411 O417 2.052 . S
Co411 O419 2.135 . S
O412 Co411 2.061 . S
O412 C415 1.235 . S
C413 O416 1.238 . S
C413 O417 1.241 . S
C414 O407 1.247 . S
C414 O408 1.261 1_556 S
C415 O410 1.259 . S
C415 O412 1.235 . S
O416 Co406 2.021 . S
O416 C413 1.238 . S
O417 Co411 2.052 . S
O417 C413 1.241 . S
O418 Co406 2.137 . S
O418 C409 1.247 . S
O419 Co406 2.244 . S
O419 C409 1.272 . S
O419 Co411 2.135 . S
Co420 O421 2.216 . S
Co420 O422 2.091 . S
Co420 O424 2.004 . S
Co420 O430 2.021 . S
Co420 O432 2.137 . S
Co420 O433 2.244 . S
O421 Co420 2.216 . S
O421 C428 1.247 . S
O422 Co420 2.091 . S
O422 C428 1.261 . S
C423 O432 1.247 . S
C423 O433 1.272 . S
O424 Co420 2.004 . S
O424 C429 1.259 . S
Co425 O426 2.061 . S
Co425 O431 2.052 . S
Co425 O433 2.135 . S
O426 Co425 2.061 . S
O426 C429 1.235 . S
C427 O430 1.238 . S
C427 O431 1.241 . S
C428 O421 1.247 . S
C428 O422 1.261 . S
C429 O424 1.259 . S
C429 O426 1.235 . S
O430 Co420 2.021 . S
O430 C427 1.238 . S
O431 Co425 2.052 . S
O431 C427 1.241 . S
O432 Co420 2.137 . S
O432 C423 1.247 . S
O433 Co420 2.244 . S
O433 C423 1.272 . S
O433 Co425 2.135 . S
Co434 O435 2.216 . S
Co434 O436 2.091 . S
Co434 O438 2.004 . S
Co434 O444 2.021 . S
Co434 O446 2.137 . S
Co434 O447 2.244 . S
O435 Co434 2.216 . S
O435 C442 1.247 . S
O436 Co434 2.091 . S
O436 C442 1.261 . S
C437 O446 1.247 . S
C437 O447 1.272 . S
O438 Co434 2.004 . S
O438 C443 1.259 . S
Co439 O440 2.061 . S
Co439 O445 2.052 . S
Co439 O447 2.135 . S
O440 Co439 2.061 . S
O440 C443 1.235 . S
C441 O444 1.238 . S
C441 O445 1.241 . S
C442 O435 1.247 . S
C442 O436 1.261 . S
C443 O438 1.259 . S
C443 O440 1.235 . S
O444 Co434 2.021 . S
O444 C441 1.238 . S
O445 Co439 2.052 . S
O445 C441 1.241 . S
O446 Co434 2.137 . S
O446 C437 1.247 . S
O447 Co434 2.244 . S
O447 C437 1.272 . S
O447 Co439 2.135 . S
Co448 O449 2.216 . S
Co448 O450 2.091 . S
Co448 O452 2.004 . S
Co448 O458 2.021 . S
Co448 O460 2.137 . S
Co448 O461 2.244 . S
O449 Co448 2.216 . S
O449 C456 1.247 . S
O450 Co448 2.091 . S
O450 C456 1.261 . S
C451 O460 1.247 . S
C451 O461 1.272 . S
O452 Co448 2.004 . S
O452 C457 1.259 . S
Co453 O454 2.061 . S
Co453 O459 2.052 . S
Co453 O461 2.135 . S
O454 Co453 2.061 . S
O454 C457 1.235 . S
C455 O458 1.238 . S
C455 O459 1.241 . S
C456 O449 1.247 . S
C456 O450 1.261 . S
C457 O452 1.259 . S
C457 O454 1.235 . S
O458 Co448 2.021 . S
O458 C455 1.238 . S
O459 Co453 2.052 . S
O459 C455 1.241 . S
O460 Co448 2.137 . S
O460 C451 1.247 . S
O461 Co448 2.244 . S
O461 C451 1.272 . S
O461 Co453 2.135 . S
Co462 O463 2.216 . S
Co462 O464 2.091 . S
Co462 O466 2.004 . S
Co462 O472 2.021 . S
Co462 O474 2.137 . S
Co462 O475 2.244 . S
O463 Co462 2.216 . S
O463 C470 1.247 . S
O464 Co462 2.091 . S
O464 C470 1.261 . S
C465 O474 1.247 . S
C465 O475 1.272 . S
O466 Co462 2.004 . S
O466 C471 1.259 . S
Co467 O468 2.061 . S
Co467 O473 2.052 . S
Co467 O475 2.135 . S
O468 Co467 2.061 . S
O468 C471 1.235 . S
C469 O472 1.238 . S
C469 O473 1.241 . S
C470 O463 1.247 . S
C470 O464 1.261 . S
C471 O466 1.259 . S
C471 O468 1.235 . S
O472 Co462 2.021 . S
O472 C469 1.238 . S
O473 Co467 2.052 . S
O473 C469 1.241 . S
O474 Co462 2.137 . S
O474 C465 1.247 . S
O475 Co462 2.244 . S
O475 C465 1.272 . S
O475 Co467 2.135 . S
Co476 O477 2.216 . S
Co476 O478 2.091 . S
Co476 O480 2.004 . S
Co476 O486 2.021 . S
Co476 O488 2.137 . S
Co476 O489 2.244 . S
O477 Co476 2.216 . S
O477 C484 1.247 . S
O478 Co476 2.091 . S
O478 C484 1.261 . S
C479 O488 1.247 . S
C479 O489 1.272 . S
O480 Co476 2.004 . S
O480 C485 1.259 . S
Co481 O482 2.061 . S
Co481 O487 2.052 . S
Co481 O489 2.135 . S
O482 Co481 2.061 . S
O482 C485 1.235 . S
C483 O486 1.238 . S
C483 O487 1.241 . S
C484 O477 1.247 . S
C484 O478 1.261 . S
C485 O480 1.259 . S
C485 O482 1.235 . S
O486 Co476 2.021 . S
O486 C483 1.238 . S
O487 Co481 2.052 . S
O487 C483 1.241 . S
O488 Co476 2.137 . S
O488 C479 1.247 . S
O489 Co476 2.244 . S
O489 C479 1.272 . S
O489 Co481 2.135 . S
Co490 O491 2.216 . S
Co490 O492 2.091 . S
Co490 O494 2.004 . S
Co490 O500 2.021 . S
Co490 O502 2.137 . S
Co490 O503 2.244 . S
O491 Co490 2.216 . S
O491 C498 1.247 . S
O492 Co490 2.091 . S
O492 C498 1.261 . S
C493 O502 1.247 . S
C493 O503 1.272 . S
O494 Co490 2.004 . S
O494 C499 1.259 . S
Co495 O496 2.061 . S
Co495 O501 2.052 . S
Co495 O503 2.135 . S
O496 Co495 2.061 . S
O496 C499 1.235 . S
C497 O500 1.238 . S
C497 O501 1.241 . S
C498 O491 1.247 . S
C498 O492 1.261 . S
C499 O494 1.259 . S
C499 O496 1.235 . S
O500 Co490 2.021 . S
O500 C497 1.238 . S
O501 Co495 2.052 . S
O501 C497 1.241 . S
O502 Co490 2.137 . S
O502 C493 1.247 . S
O503 Co490 2.244 . S
O503 C493 1.272 . S
O503 Co495 2.135 . S
H504 C522 0.951 . S
H505 C524 0.951 . S
H506 C526 0.950 . S
H507 C527 0.950 . S
H508 C529 0.950 . S
H509 C532 0.950 . S
H510 C533 0.950 . S
H511 C535 0.950 . S
H512 C536 0.950 . S
H513 C537 0.951 . S
H514 C539 0.951 . S
H515 C541 0.950 . S
H516 C542 0.950 . S
H517 C544 0.950 1_655 S
H518 C547 0.950 . S
H519 C548 0.950 . S
H520 C550 0.950 . S
H521 C551 0.950 1_455 S
C522 H504 0.951 . S
C522 C523 1.366 . S
C522 C524 1.388 . S
C523 C522 1.366 . S
C523 C527 1.385 . S
C524 H505 0.951 . S
C524 C522 1.388 . S
C524 C525 1.366 . S
C525 C524 1.366 . S
C525 C526 1.414 . S
C525 C528 1.499 . S
C526 H506 0.950 . S
C526 C525 1.414 . S
C526 C527 1.374 . S
C527 H507 0.950 . S
C527 C523 1.385 . S
C527 C526 1.374 . S
C528 C525 1.499 . S
C528 C529 1.373 . S
C528 C530 1.389 . S
C529 H508 0.950 . S
C529 C528 1.373 . S
C529 C545 1.377 . S
C530 C528 1.389 . S
C530 C531 1.524 . S
C530 C544 1.377 . S
C531 C530 1.524 . S
C531 C532 1.397 . S
C531 C536 1.363 . S
C532 H509 0.950 . S
C532 C531 1.397 . S
C532 C533 1.334 . S
C533 H510 0.950 . S
C533 C532 1.334 . S
C533 C534 1.287 . S
C534 C533 1.287 . S
C534 C535 1.524 . S
C534 H553 0.913 . S
C535 H511 0.950 . S
C535 C534 1.524 . S
C535 C536 1.415 . S
C536 H512 0.950 . S
C536 C531 1.363 . S
C536 C535 1.415 . S
C537 H513 0.951 . S
C537 C538 1.366 . S
C537 C539 1.388 . S
C538 C537 1.366 . S
C538 C542 1.385 . S
C539 H514 0.951 . S
C539 C537 1.388 . S
C539 C540 1.366 . S
C540 C539 1.366 . S
C540 C541 1.414 . S
C540 C543 1.499 . S
C541 H515 0.950 . S
C541 C540 1.414 . S
C541 C542 1.374 . S
C542 H516 0.950 . S
C542 C538 1.385 . S
C542 C541 1.374 . S
C543 C540 1.499 . S
C543 C544 1.373 1_655 S
C543 C545 1.389 1_655 S
C544 H517 0.950 1_455 S
C544 C530 1.377 . S
C544 C543 1.373 1_455 S
C545 C529 1.377 . S
C545 C543 1.389 1_455 S
C545 C546 1.524 1_455 S
C546 C545 1.524 1_655 S
C546 C547 1.397 . S
C546 C551 1.363 . S
C547 H518 0.950 . S
C547 C546 1.397 . S
C547 C548 1.334 . S
C548 H519 0.950 . S
C548 C547 1.334 . S
C548 C549 1.287 . S
C549 C548 1.287 . S
C549 C550 1.524 . S
C549 H552 0.999 . S
C550 H520 0.950 . S
C550 C549 1.524 . S
C550 C551 1.415 . S
C551 H521 0.950 1_655 S
C551 C546 1.363 . S
C551 C550 1.415 . S
H552 C549 0.999 . S
H553 C534 0.913 . S
H554 C572 0.951 . S
H555 C574 0.951 . S
H556 C576 0.950 . S
H557 C577 0.950 . S
H558 C579 0.950 . S
H559 C582 0.950 . S
H560 C583 0.950 . S
H561 C585 0.950 . S
H562 C586 0.950 . S
H563 C587 0.951 . S
H564 C589 0.951 . S
H565 C591 0.950 . S
H566 C592 0.950 . S
H567 C594 0.950 . S
H568 C597 0.950 . S
H569 C598 0.950 . S
H570 C600 0.950 . S
H571 C601 0.950 . S
C572 H554 0.951 . S
C572 C573 1.366 . S
C572 C574 1.388 . S
C573 C572 1.366 . S
C573 C577 1.385 . S
C574 H555 0.951 . S
C574 C572 1.388 . S
C574 C575 1.366 . S
C575 C574 1.366 . S
C575 C576 1.414 . S
C575 C578 1.499 . S
C576 H556 0.950 . S
C576 C575 1.414 . S
C576 C577 1.374 . S
C577 H557 0.950 . S
C577 C573 1.385 . S
C577 C576 1.374 . S
C578 C575 1.499 . S
C578 C579 1.373 . S
C578 C580 1.389 . S
C579 H558 0.950 . S
C579 C578 1.373 . S
C579 C595 1.377 . S
C580 C578 1.389 . S
C580 C581 1.524 . S
C580 C594 1.377 . S
C581 C580 1.524 . S
C581 C582 1.397 . S
C581 C586 1.363 . S
C582 H559 0.950 . S
C582 C581 1.397 . S
C582 C583 1.334 . S
C583 H560 0.950 . S
C583 C582 1.334 . S
C583 C584 1.287 . S
C584 C583 1.287 . S
C584 C585 1.524 . S
C584 H603 0.913 . S
C585 H561 0.950 . S
C585 C584 1.524 . S
C585 C586 1.415 . S
C586 H562 0.950 . S
C586 C581 1.363 . S
C586 C585 1.415 . S
C587 H563 0.951 . S
C587 C588 1.366 . S
C587 C589 1.388 . S
C588 C587 1.366 . S
C588 C592 1.385 . S
C589 H564 0.951 . S
C589 C587 1.388 . S
C589 C590 1.366 . S
C590 C589 1.366 . S
C590 C591 1.414 . S
C590 C593 1.499 . S
C591 H565 0.950 . S
C591 C590 1.414 . S
C591 C592 1.374 . S
C592 H566 0.950 . S
C592 C588 1.385 . S
C592 C591 1.374 . S
C593 C590 1.499 . S
C593 C594 1.373 . S
C593 C595 1.389 . S
C594 H567 0.950 . S
C594 C580 1.377 . S
C594 C593 1.373 . S
C595 C579 1.377 . S
C595 C593 1.389 . S
C595 C596 1.524 . S
C596 C595 1.524 . S
C596 C597 1.397 . S
C596 C601 1.363 . S
C597 H568 0.950 . S
C597 C596 1.397 . S
C597 C598 1.334 . S
C598 H569 0.950 . S
C598 C597 1.334 . S
C598 C599 1.287 . S
C599 C598 1.287 . S
C599 C600 1.524 . S
C599 H602 0.999 1_655 S
C600 H570 0.950 . S
C600 C599 1.524 . S
C600 C601 1.415 . S
C601 H571 0.950 . S
C601 C596 1.363 . S
C601 C600 1.415 . S
H602 C599 0.999 1_455 S
H603 C584 0.913 . S
H604 C622 0.951 . S
H605 C624 0.951 . S
H606 C626 0.950 . S
H607 C627 0.950 . S
H608 C629 0.904 1_545 S
H609 C632 0.950 . S
H610 C633 0.950 . S
H611 C635 0.950 . S
H612 C636 0.950 1_565 S
H613 C637 0.951 . S
H614 C639 0.951 . S
H615 C641 0.950 . S
H616 C642 0.950 . S
H617 C644 0.950 . S
H618 C647 0.950 . S
H619 C648 0.950 . S
H620 C650 0.950 1_655 S
H621 C651 0.950 . S
C622 H604 0.951 . S
C622 C623 1.366 . S
C622 C624 1.388 . S
C623 C622 1.366 . S
C623 C627 1.385 . S
C624 H605 0.951 . S
C624 C622 1.388 . S
C624 C625 1.366 . S
C625 C624 1.366 . S
C625 C626 1.414 . S
C625 C628 1.499 . S
C626 H606 0.950 . S
C626 C625 1.414 . S
C626 C627 1.374 . S
C627 H607 0.950 . S
C627 C623 1.385 . S
C627 C626 1.374 . S
C628 C625 1.499 . S
C628 C629 1.375 1_545 S
C628 C630 1.389 1_545 S
C629 H608 0.904 1_565 S
C629 C628 1.375 1_565 S
C629 C645 1.422 . S
C630 C628 1.389 1_565 S
C630 C631 1.524 1_565 S
C630 C644 1.377 . S
C631 C630 1.524 1_545 S
C631 C632 1.397 . S
C631 C636 1.363 . S
C632 H609 0.950 . S
C632 C631 1.397 . S
C632 C633 1.334 . S
C633 H610 0.950 . S
C633 C632 1.334 . S
C633 C634 1.287 . S
C634 C633 1.287 . S
C634 C635 1.524 . S
C634 H653 0.913 . S
C635 H611 0.950 . S
C635 C634 1.524 . S
C635 C636 1.415 . S
C636 H612 0.950 1_545 S
C636 C631 1.363 . S
C636 C635 1.415 . S
C637 H613 0.951 . S
C637 C638 1.366 . S
C637 C639 1.388 . S
C638 C637 1.366 . S
C638 C642 1.385 . S
C639 H614 0.951 . S
C639 C637 1.388 . S
C639 C640 1.366 . S
C640 C639 1.366 . S
C640 C641 1.414 . S
C640 C643 1.499 . S
C641 H615 0.950 . S
C641 C640 1.414 . S
C641 C642 1.374 . S
C642 H616 0.950 . S
C642 C638 1.385 . S
C642 C641 1.374 . S
C643 C640 1.499 . S
C643 C644 1.373 . S
C643 C645 1.389 . S
C644 H617 0.950 . S
C644 C630 1.377 . S
C644 C643 1.373 . S
C645 C629 1.422 . S
C645 C643 1.389 . S
C645 C646 1.524 . S
C646 C645 1.524 . S
C646 C647 1.397 . S
C646 C651 1.363 . S
C647 H618 0.950 . S
C647 C646 1.397 . S
C647 C648 1.334 . S
C648 H619 0.950 . S
C648 C647 1.334 . S
C648 C649 1.241 1_455 S
C649 C648 1.241 1_655 S
C649 C650 1.534 1_655 S
C649 H652 1.044 . S
C650 H620 0.950 1_455 S
C650 C649 1.534 1_455 S
C650 C651 1.415 . S
C651 H621 0.950 . S
C651 C646 1.363 . S
C651 C650 1.415 . S
H652 C649 1.044 . S
H653 C634 0.913 . S
H654 C672 0.951 . S
H655 C674 0.951 . S
H656 C676 0.950 . S
H657 C677 0.950 . S
H658 C679 0.950 . S
H659 C682 0.950 . S
H660 C683 0.950 . S
H661 C685 0.950 . S
H662 C686 0.950 . S
H663 C687 0.951 . S
H664 C689 0.951 . S
H665 C691 0.950 . S
H666 C692 0.950 . S
H667 C694 0.950 1_565 S
H668 C697 0.950 . S
H669 C698 0.950 . S
H670 C700 0.950 . S
H671 C701 0.950 1_545 S
C672 H654 0.951 . S
C672 C673 1.366 . S
C672 C674 1.388 . S
C673 C672 1.366 . S
C673 C677 1.385 . S
C674 H655 0.951 . S
C674 C672 1.388 . S
C674 C675 1.366 . S
C675 C674 1.366 . S
C675 C676 1.414 . S
C675 C678 1.499 . S
C676 H656 0.950 . S
C676 C675 1.414 . S
C676 C677 1.374 . S
C677 H657 0.950 . S
C677 C673 1.385 . S
C677 C676 1.374 . S
C678 C675 1.499 . S
C678 C679 1.373 . S
C678 C680 1.389 . S
C679 H658 0.950 . S
C679 C678 1.373 . S
C679 C695 1.377 . S
C680 C678 1.389 . S
C680 C681 1.524 . S
C680 C694 1.377 . S
C681 C680 1.524 . S
C681 C682 1.397 . S
C681 C686 1.363 . S
C682 H659 0.950 . S
C682 C681 1.397 . S
C682 C683 1.334 . S
C683 H660 0.950 . S
C683 C682 1.334 . S
C683 C684 1.287 . S
C684 C683 1.287 . S
C684 C685 1.524 . S
C684 H703 0.913 . S
C685 H661 0.950 . S
C685 C684 1.524 . S
C685 C686 1.415 . S
C686 H662 0.950 . S
C686 C681 1.363 . S
C686 C685 1.415 . S
C687 H663 0.951 . S
C687 C688 1.366 . S
C687 C689 1.388 . S
C688 C687 1.366 . S
C688 C692 1.385 . S
C689 H664 0.951 . S
C689 C687 1.388 . S
C689 C690 1.366 . S
C690 C689 1.366 . S
C690 C691 1.414 . S
C690 C693 1.499 . S
C691 H665 0.950 . S
C691 C690 1.414 . S
C691 C692 1.374 . S
C692 H666 0.950 . S
C692 C688 1.385 . S
C692 C691 1.374 . S
C693 C690 1.499 . S
C693 C694 1.373 1_565 S
C693 C695 1.389 1_565 S
C694 H667 0.950 1_545 S
C694 C680 1.377 . S
C694 C693 1.373 1_545 S
C695 C679 1.377 . S
C695 C693 1.389 1_545 S
C695 C696 1.524 1_545 S
C696 C695 1.524 1_565 S
C696 C697 1.397 . S
C696 C701 1.363 . S
C697 H668 0.950 . S
C697 C696 1.397 . S
C697 C698 1.334 . S
C698 H669 0.950 . S
C698 C697 1.334 . S
C698 C699 1.287 . S
C699 C698 1.287 . S
C699 C700 1.524 . S
C699 H702 0.999 . S
C700 H670 0.950 . S
C700 C699 1.524 . S
C700 C701 1.415 . S
C701 H671 0.950 1_565 S
C701 C696 1.363 . S
C701 C700 1.415 . S
H702 C699 0.999 . S
H703 C684 0.913 . S
H704 C722 0.951 . S
H705 C724 0.951 . S
H706 C726 0.950 . S
H707 C727 0.950 . S
H708 C729 0.950 . S
H709 C732 0.950 . S
H710 C733 0.950 . S
H711 C735 0.950 . S
H712 C736 0.950 . S
H713 C737 0.951 . S
H714 C739 0.951 . S
H715 C741 0.950 . S
H716 C742 0.950 . S
H717 C744 0.950 1_455 S
H718 C747 0.950 . S
H719 C748 0.950 . S
H720 C750 0.950 . S
H721 C751 0.950 1_655 S
C722 H704 0.951 . S
C722 C723 1.366 . S
C722 C724 1.388 . S
C723 C722 1.366 . S
C723 C727 1.385 . S
C724 H705 0.951 . S
C724 C722 1.388 . S
C724 C725 1.366 . S
C725 C724 1.366 . S
C725 C726 1.414 . S
C725 C728 1.499 . S
C726 H706 0.950 . S
C726 C725 1.414 . S
C726 C727 1.374 . S
C727 H707 0.950 . S
C727 C723 1.385 . S
C727 C726 1.374 . S
C728 C725 1.499 . S
C728 C729 1.373 . S
C728 C730 1.389 . S
C729 H708 0.950 . S
C729 C728 1.373 . S
C729 C745 1.377 . S
C730 C728 1.389 . S
C730 C731 1.524 . S
C730 C744 1.377 . S
C731 C730 1.524 . S
C731 C732 1.397 . S
C731 C736 1.363 . S
C732 H709 0.950 . S
C732 C731 1.397 . S
C732 C733 1.334 . S
C733 H710 0.950 . S
C733 C732 1.334 . S
C733 C734 1.287 . S
C734 C733 1.287 . S
C734 C735 1.524 . S
C734 H753 0.913 . S
C735 H711 0.950 . S
C735 C734 1.524 . S
C735 C736 1.415 . S
C736 H712 0.950 . S
C736 C731 1.363 . S
C736 C735 1.415 . S
C737 H713 0.951 . S
C737 C738 1.366 . S
C737 C739 1.388 . S
C738 C737 1.366 . S
C738 C742 1.385 . S
C739 H714 0.951 . S
C739 C737 1.388 . S
C739 C740 1.366 . S
C740 C739 1.366 . S
C740 C741 1.414 . S
C740 C743 1.499 . S
C741 H715 0.950 . S
C741 C740 1.414 . S
C741 C742 1.374 . S
C742 H716 0.950 . S
C742 C738 1.385 . S
C742 C741 1.374 . S
C743 C740 1.499 . S
C743 C744 1.373 1_455 S
C743 C745 1.389 1_455 S
C744 H717 0.950 1_655 S
C744 C730 1.377 . S
C744 C743 1.373 1_655 S
C745 C729 1.377 . S
C745 C743 1.389 1_655 S
C745 C746 1.524 1_655 S
C746 C745 1.524 1_455 S
C746 C747 1.397 . S
C746 C751 1.363 . S
C747 H718 0.950 . S
C747 C746 1.397 . S
C747 C748 1.334 . S
C748 H719 0.950 . S
C748 C747 1.334 . S
C748 C749 1.287 . S
C749 C748 1.287 . S
C749 C750 1.524 . S
C749 H752 0.999 . S
C750 H720 0.950 . S
C750 C749 1.524 . S
C750 C751 1.415 . S
C751 H721 0.950 1_455 S
C751 C746 1.363 . S
C751 C750 1.415 . S
H752 C749 0.999 . S
H753 C734 0.913 . S
H754 C772 0.951 . S
H755 C774 0.951 . S
H756 C776 0.950 . S
H757 C777 0.950 . S
H758 C779 0.950 . S
H759 C782 0.950 . S
H760 C783 0.950 . S
H761 C785 0.950 . S
H762 C786 0.950 . S
H763 C787 0.951 . S
H764 C789 0.951 . S
H765 C791 0.950 . S
H766 C792 0.950 . S
H767 C794 0.950 . S
H768 C797 0.950 . S
H769 C798 0.950 . S
H770 C800 0.950 . S
H771 C801 0.950 . S
C772 H754 0.951 . S
C772 C773 1.366 . S
C772 C774 1.388 . S
C773 C772 1.366 . S
C773 C777 1.385 . S
C774 H755 0.951 . S
C774 C772 1.388 . S
C774 C775 1.366 . S
C775 C774 1.366 . S
C775 C776 1.414 . S
C775 C778 1.499 . S
C776 H756 0.950 . S
C776 C775 1.414 . S
C776 C777 1.374 . S
C777 H757 0.950 . S
C777 C773 1.385 . S
C777 C776 1.374 . S
C778 C775 1.499 . S
C778 C779 1.373 . S
C778 C780 1.389 . S
C779 H758 0.950 . S
C779 C778 1.373 . S
C779 C795 1.377 . S
C780 C778 1.389 . S
C780 C781 1.524 . S
C780 C794 1.377 . S
C781 C780 1.524 . S
C781 C782 1.397 . S
C781 C786 1.363 . S
C782 H759 0.950 . S
C782 C781 1.397 . S
C782 C783 1.334 . S
C783 H760 0.950 . S
C783 C782 1.334 . S
C783 C784 1.287 . S
C784 C783 1.287 . S
C784 C785 1.524 . S
C784 H803 0.913 . S
C785 H761 0.950 . S
C785 C784 1.524 . S
C785 C786 1.415 . S
C786 H762 0.950 . S
C786 C781 1.363 . S
C786 C785 1.415 . S
C787 H763 0.951 . S
C787 C788 1.366 . S
C787 C789 1.388 . S
C788 C787 1.366 . S
C788 C792 1.385 . S
C789 H764 0.951 . S
C789 C787 1.388 . S
C789 C790 1.366 . S
C790 C789 1.366 . S
C790 C791 1.414 . S
C790 C793 1.499 . S
C791 H765 0.950 . S
C791 C790 1.414 . S
C791 C792 1.374 . S
C792 H766 0.950 . S
C792 C788 1.385 . S
C792 C791 1.374 . S
C793 C790 1.499 . S
C793 C794 1.373 . S
C793 C795 1.389 . S
C794 H767 0.950 . S
C794 C780 1.377 . S
C794 C793 1.373 . S
C795 C779 1.377 . S
C795 C793 1.389 . S
C795 C796 1.524 . S
C796 C795 1.524 . S
C796 C797 1.397 . S
C796 C801 1.363 . S
C797 H768 0.950 . S
C797 C796 1.397 . S
C797 C798 1.334 . S
C798 H769 0.950 . S
C798 C797 1.334 . S
C798 C799 1.287 . S
C799 C798 1.287 . S
C799 C800 1.524 . S
C799 H802 0.999 . S
C800 H770 0.950 . S
C800 C799 1.524 . S
C800 C801 1.415 . S
C801 H771 0.950 . S
C801 C796 1.363 . S
C801 C800 1.415 . S
H802 C799 0.999 . S
H803 C784 0.913 . S
H804 C822 0.951 . S
H805 C824 0.951 . S
H806 C826 0.950 . S
H807 C827 0.950 . S
H808 C829 0.950 . S
H809 C832 0.950 . S
H810 C833 0.950 . S
H811 C835 0.950 . S
H812 C836 0.950 . S
H813 C837 0.951 . S
H814 C839 0.951 . S
H815 C841 0.950 . S
H816 C842 0.950 . S
H817 C844 0.937 1_455 S
H818 C847 0.950 . S
H819 C848 0.950 . S
H820 C850 0.950 . S
H821 C851 0.950 1_655 S
C822 H804 0.951 . S
C822 C823 1.366 . S
C822 C824 1.388 . S
C823 C822 1.366 . S
C823 C827 1.385 . S
C824 H805 0.951 . S
C824 C822 1.388 . S
C824 C825 1.366 . S
C825 C824 1.366 . S
C825 C826 1.414 . S
C825 C828 1.499 . S
C826 H806 0.950 . S
C826 C825 1.414 . S
C826 C827 1.374 . S
C827 H807 0.950 . S
C827 C823 1.385 . S
C827 C826 1.374 . S
C828 C825 1.499 . S
C828 C829 1.373 . S
C828 C830 1.389 . S
C829 H808 0.950 . S
C829 C828 1.373 . S
C829 C845 1.377 . S
C830 C828 1.389 . S
C830 C831 1.524 . S
C830 C844 1.400 . S
C831 C830 1.524 . S
C831 C832 1.397 . S
C831 C836 1.363 . S
C832 H809 0.950 . S
C832 C831 1.397 . S
C832 C833 1.334 . S
C833 H810 0.950 . S
C833 C832 1.334 . S
C833 C834 1.287 . S
C834 C833 1.287 . S
C834 C835 1.524 . S
C834 H853 0.913 . S
C835 H811 0.950 . S
C835 C834 1.524 . S
C835 C836 1.415 . S
C836 H812 0.950 . S
C836 C831 1.363 . S
C836 C835 1.415 . S
C837 H813 0.951 . S
C837 C838 1.366 . S
C837 C839 1.388 . S
C838 C837 1.366 . S
C838 C842 1.385 . S
C839 H814 0.951 . S
C839 C837 1.388 . S
C839 C840 1.366 . S
C840 C839 1.366 . S
C840 C841 1.414 . S
C840 C843 1.499 . S
C841 H815 0.950 . S
C841 C840 1.414 . S
C841 C842 1.374 . S
C842 H816 0.950 . S
C842 C838 1.385 . S
C842 C841 1.374 . S
C843 C840 1.499 . S
C843 C844 1.364 1_455 S
C843 C845 1.389 1_455 S
C844 H817 0.937 1_655 S
C844 C830 1.400 . S
C844 C843 1.364 1_655 S
C845 C829 1.377 . S
C845 C843 1.389 1_655 S
C845 C846 1.524 1_655 S
C846 C845 1.524 1_455 S
C846 C847 1.397 . S
C846 C851 1.363 . S
C847 H818 0.950 . S
C847 C846 1.397 . S
C847 C848 1.334 . S
C848 H819 0.950 . S
C848 C847 1.334 . S
C848 C849 1.287 . S
C849 C848 1.287 . S
C849 C850 1.524 . S
C849 H852 0.999 . S
C850 H820 0.950 . S
C850 C849 1.524 . S
C850 C851 1.415 . S
C851 H821 0.950 1_455 S
C851 C846 1.363 . S
C851 C850 1.415 . S
H852 C849 0.999 . S
H853 C834 0.913 . S
H854 C872 0.951 . S
H855 C874 0.951 . S
H856 C876 0.950 . S
H857 C877 0.950 . S
H858 C879 0.950 . S
H859 C882 0.950 . S
H860 C883 0.950 . S
H861 C885 0.950 . S
H862 C886 0.950 . S
H863 C887 0.951 . S
H864 C889 0.951 . S
H865 C891 0.950 . S
H866 C892 0.950 . S
H867 C894 0.950 . S
H868 C897 0.950 . S
H869 C898 0.950 . S
H870 C900 0.950 . S
H871 C901 0.950 . S
C872 H854 0.951 . S
C872 C873 1.366 . S
C872 C874 1.388 . S
C873 C872 1.366 . S
C873 C877 1.385 . S
C874 H855 0.951 . S
C874 C872 1.388 . S
C874 C875 1.366 . S
C875 C874 1.366 . S
C875 C876 1.414 . S
C875 C878 1.499 . S
C876 H856 0.950 . S
C876 C875 1.414 . S
C876 C877 1.374 . S
C877 H857 0.950 . S
C877 C873 1.385 . S
C877 C876 1.374 . S
C878 C875 1.499 . S
C878 C879 1.373 . S
C878 C880 1.389 . S
C879 H858 0.950 . S
C879 C878 1.373 . S
C879 C895 1.377 . S
C880 C878 1.389 . S
C880 C881 1.524 . S
C880 C894 1.377 . S
C881 C880 1.524 . S
C881 C882 1.397 . S
C881 C886 1.363 . S
C882 H859 0.950 . S
C882 C881 1.397 . S
C882 C883 1.334 . S
C883 H860 0.950 . S
C883 C882 1.334 . S
C883 C884 1.287 . S
C884 C883 1.287 . S
C884 C885 1.524 . S
C884 H903 0.913 . S
C885 H861 0.950 . S
C885 C884 1.524 . S
C885 C886 1.415 . S
C886 H862 0.950 . S
C886 C881 1.363 . S
C886 C885 1.415 . S
C887 H863 0.951 . S
C887 C888 1.366 . S
C887 C889 1.388 . S
C888 C887 1.366 . S
C888 C892 1.385 . S
C889 H864 0.951 . S
C889 C887 1.388 . S
C889 C890 1.366 . S
C890 C889 1.366 . S
C890 C891 1.414 . S
C890 C893 1.499 . S
C891 H865 0.950 . S
C891 C890 1.414 . S
C891 C892 1.374 . S
C892 H866 0.950 . S
C892 C888 1.385 . S
C892 C891 1.374 . S
C893 C890 1.499 . S
C893 C894 1.373 . S
C893 C895 1.389 . S
C894 H867 0.950 . S
C894 C880 1.377 . S
C894 C893 1.373 . S
C895 C879 1.377 . S
C895 C893 1.389 . S
C895 C896 1.524 . S
C896 C895 1.524 . S
C896 C897 1.397 . S
C896 C901 1.363 . S
C897 H868 0.950 . S
C897 C896 1.397 . S
C897 C898 1.334 . S
C898 H869 0.950 . S
C898 C897 1.334 . S
C898 C899 1.287 . S
C899 C898 1.287 . S
C899 C900 1.524 . S
C899 H902 0.999 . S
C900 H870 0.950 . S
C900 C899 1.524 . S
C900 C901 1.415 . S
C901 H871 0.950 . S
C901 C896 1.363 . S
C901 C900 1.415 . S
H902 C899 0.999 . S
H903 C884 0.913 . S
H904 C922 0.951 . S
H905 C924 0.951 . S
H906 C926 0.950 . S
H907 C927 0.950 . S
H908 C929 0.950 1_565 S
H909 C932 0.950 . S
H910 C933 0.950 . S
H911 C935 0.950 . S
H912 C936 0.950 1_545 S
H913 C937 0.951 . S
H914 C939 0.951 . S
H915 C941 0.950 . S
H916 C942 0.950 . S
H917 C944 0.950 . S
H918 C947 0.950 . S
H919 C948 0.950 . S
H920 C950 0.950 . S
H921 C951 0.950 . S
C922 H904 0.951 . S
C922 C923 1.366 . S
C922 C924 1.388 . S
C923 C922 1.366 . S
C923 C927 1.385 . S
C924 H905 0.951 . S
C924 C922 1.388 . S
C924 C925 1.366 . S
C925 C924 1.366 . S
C925 C926 1.414 . S
C925 C928 1.499 . S
C926 H906 0.950 . S
C926 C925 1.414 . S
C926 C927 1.374 . S
C927 H907 0.950 . S
C927 C923 1.385 . S
C927 C926 1.374 . S
C928 C925 1.499 . S
C928 C929 1.373 1_565 S
C928 C930 1.389 1_565 S
C929 H908 0.950 1_545 S
C929 C928 1.373 1_545 S
C929 C945 1.377 . S
C930 C928 1.389 1_545 S
C930 C931 1.524 1_545 S
C930 C944 1.377 . S
C931 C930 1.524 1_565 S
C931 C932 1.397 . S
C931 C936 1.363 . S
C932 H909 0.950 . S
C932 C931 1.397 . S
C932 C933 1.334 . S
C933 H910 0.950 . S
C933 C932 1.334 . S
C933 C934 1.287 . S
C934 C933 1.287 . S
C934 C935 1.524 . S
C934 H953 0.913 . S
C935 H911 0.950 . S
C935 C934 1.524 . S
C935 C936 1.415 . S
C936 H912 0.950 1_565 S
C936 C931 1.363 . S
C936 C935 1.415 . S
C937 H913 0.951 . S
C937 C938 1.366 . S
C937 C939 1.388 . S
C938 C937 1.366 . S
C938 C942 1.385 . S
C939 H914 0.951 . S
C939 C937 1.388 . S
C939 C940 1.366 . S
C940 C939 1.366 . S
C940 C941 1.414 . S
C940 C943 1.499 . S
C941 H915 0.950 . S
C941 C940 1.414 . S
C941 C942 1.374 . S
C942 H916 0.950 . S
C942 C938 1.385 . S
C942 C941 1.374 . S
C943 C940 1.499 . S
C943 C944 1.373 . S
C943 C945 1.389 . S
C944 H917 0.950 . S
C944 C930 1.377 . S
C944 C943 1.373 . S
C945 C929 1.377 . S
C945 C943 1.389 . S
C945 C946 1.524 . S
C946 C945 1.524 . S
C946 C947 1.397 . S
C946 C951 1.363 . S
C947 H918 0.950 . S
C947 C946 1.397 . S
C947 C948 1.334 . S
C948 H919 0.950 . S
C948 C947 1.334 . S
C948 C949 1.287 . S
C949 C948 1.287 . S
C949 C950 1.524 . S
C949 H952 0.999 . S
C950 H920 0.950 . S
C950 C949 1.524 . S
C950 C951 1.415 . S
C951 H921 0.950 . S
C951 C946 1.363 . S
C951 C950 1.415 . S
H952 C949 0.999 . S
H953 C934 0.913 . S
H954 C972 0.951 . S
H955 C974 0.951 . S
H956 C976 0.950 . S
H957 C977 0.950 . S
H958 C979 0.930 1_545 S
H959 C982 0.950 . S
H960 C983 0.950 . S
H961 C985 0.950 . S
H962 C986 0.950 1_565 S
H963 C987 0.951 . S
H964 C989 0.951 . S
H965 C991 0.950 . S
H966 C992 0.950 . S
H967 C994 0.950 . S
H968 C997 0.950 . S
H969 C998 0.950 . S
H970 C1000 0.950 . S
H971 C1001 0.950 . S
C972 H954 0.951 . S
C972 C973 1.366 . S
C972 C974 1.388 . S
C973 C972 1.366 . S
C973 C977 1.385 . S
C974 H955 0.951 . S
C974 C972 1.388 . S
C974 C975 1.366 . S
C975 C974 1.366 . S
C975 C976 1.414 . S
C975 C978 1.499 . S
C976 H956 0.950 . S
C976 C975 1.414 . S
C976 C977 1.374 . S
C977 H957 0.950 . S
C977 C973 1.385 . S
C977 C976 1.374 . S
C978 C975 1.499 . S
C978 C979 1.370 1_545 S
C978 C980 1.389 1_545 S
C979 H958 0.930 1_565 S
C979 C978 1.370 1_565 S
C979 C995 1.400 . S
C980 C978 1.389 1_565 S
C980 C981 1.524 1_565 S
C980 C994 1.377 . S
C981 C980 1.524 1_545 S
C981 C982 1.397 . S
C981 C986 1.363 . S
C982 H959 0.950 . S
C982 C981 1.397 . S
C982 C983 1.334 . S
C983 H960 0.950 . S
C983 C982 1.334 . S
C983 C984 1.287 . S
C984 C983 1.287 . S
C984 C985 1.524 . S
C984 H1003 0.913 . S
C985 H961 0.950 . S
C985 C984 1.524 . S
C985 C986 1.415 . S
C986 H962 0.950 1_545 S
C986 C981 1.363 . S
C986 C985 1.415 . S
C987 H963 0.951 . S
C987 C988 1.366 . S
C987 C989 1.388 . S
C988 C987 1.366 . S
C988 C992 1.385 . S
C989 H964 0.951 . S
C989 C987 1.388 . S
C989 C990 1.366 . S
C990 C989 1.366 . S
C990 C991 1.414 . S
C990 C993 1.499 . S
C991 H965 0.950 . S
C991 C990 1.414 . S
C991 C992 1.374 . S
C992 H966 0.950 . S
C992 C988 1.385 . S
C992 C991 1.374 . S
C993 C990 1.499 . S
C993 C994 1.373 . S
C993 C995 1.389 . S
C994 H967 0.950 . S
C994 C980 1.377 . S
C994 C993 1.373 . S
C995 C979 1.400 . S
C995 C993 1.389 . S
C995 C996 1.524 . S
C996 C995 1.524 . S
C996 C997 1.397 . S
C996 C1001 1.363 . S
C997 H968 0.950 . S
C997 C996 1.397 . S
C997 C998 1.334 . S
C998 H969 0.950 . S
C998 C997 1.334 . S
C998 C999 1.287 . S
C999 C998 1.287 . S
C999 C1000 1.524 . S
C999 H1002 0.999 . S
C1000 H970 0.950 . S
C1000 C999 1.524 . S
C1000 C1001 1.415 . S
C1001 H971 0.950 . S
C1001 C996 1.363 . S
C1001 C1000 1.415 . S
H1002 C999 0.999 . S
H1003 C984 0.913 . S
H1004 C1022 0.951 . S
H1005 C1024 0.951 . S
H1006 C1026 0.950 . S
H1007 C1027 0.950 . S
H1008 C1029 0.950 . S
H1009 C1032 0.950 . S
H1010 C1033 0.950 . S
H1011 C1035 0.950 . S
H1012 C1036 0.950 . S
H1013 C1037 0.951 . S
H1014 C1039 0.951 . S
H1015 C1041 0.950 . S
H1016 C1042 0.950 . S
H1017 C1044 0.945 1_655 S
H1018 C1047 0.950 . S
H1019 C1048 0.950 . S
H1020 C1050 0.950 . S
H1021 C1051 0.950 1_455 S
C1022 H1004 0.951 . S
C1022 C1023 1.366 . S
C1022 C1024 1.388 . S
C1023 C1022 1.366 . S
C1023 C1027 1.385 . S
C1024 H1005 0.951 . S
C1024 C1022 1.388 . S
C1024 C1025 1.366 . S
C1025 C1024 1.366 . S
C1025 C1026 1.414 . S
C1025 C1028 1.499 . S
C1026 H1006 0.950 . S
C1026 C1025 1.414 . S
C1026 C1027 1.374 . S
C1027 H1007 0.950 . S
C1027 C1023 1.385 . S
C1027 C1026 1.374 . S
C1028 C1025 1.499 . S
C1028 C1029 1.373 . S
C1028 C1030 1.389 . S
C1029 H1008 0.950 . S
C1029 C1028 1.373 . S
C1029 C1045 1.377 . S
C1030 C1028 1.389 . S
C1030 C1031 1.524 . S
C1030 C1044 1.403 . S
C1031 C1030 1.524 . S
C1031 C1032 1.397 . S
C1031 C1036 1.363 . S
C1032 H1009 0.950 . S
C1032 C1031 1.397 . S
C1032 C1033 1.334 . S
C1033 H1010 0.950 . S
C1033 C1032 1.334 . S
C1033 C1034 1.287 . S
C1034 C1033 1.287 . S
C1034 C1035 1.524 . S
C1034 H1053 0.913 . S
C1035 H1011 0.950 . S
C1035 C1034 1.524 . S
C1035 C1036 1.415 . S
C1036 H1012 0.950 . S
C1036 C1031 1.363 . S
C1036 C1035 1.415 . S
C1037 H1013 0.951 . S
C1037 C1038 1.366 . S
C1037 C1039 1.388 . S
C1038 C1037 1.366 . S
C1038 C1042 1.385 . S
C1039 H1014 0.951 . S
C1039 C1037 1.388 . S
C1039 C1040 1.366 . S
C1040 C1039 1.366 . S
C1040 C1041 1.414 . S
C1040 C1043 1.499 . S
C1041 H1015 0.950 . S
C1041 C1040 1.414 . S
C1041 C1042 1.374 . S
C1042 H1016 0.950 . S
C1042 C1038 1.385 . S
C1042 C1041 1.374 . S
C1043 C1040 1.499 . S
C1043 C1044 1.353 1_655 S
C1043 C1045 1.389 1_655 S
C1044 H1017 0.945 1_455 S
C1044 C1030 1.403 . S
C1044 C1043 1.353 1_455 S
C1045 C1029 1.377 . S
C1045 C1043 1.389 1_455 S
C1045 C1046 1.524 1_455 S
C1046 C1045 1.524 1_655 S
C1046 C1047 1.397 . S
C1046 C1051 1.363 . S
C1047 H1018 0.950 . S
C1047 C1046 1.397 . S
C1047 C1048 1.334 . S
C1048 H1019 0.950 . S
C1048 C1047 1.334 . S
C1048 C1049 1.287 . S
C1049 C1048 1.287 . S
C1049 C1050 1.524 . S
C1049 H1052 0.999 . S
C1050 H1020 0.950 . S
C1050 C1049 1.524 . S
C1050 C1051 1.415 . S
C1051 H1021 0.950 1_655 S
C1051 C1046 1.363 . S
C1051 C1050 1.415 . S
H1052 C1049 0.999 . S
H1053 C1034 0.913 . S
H1054 C1072 0.951 . S
H1055 C1074 0.951 . S
H1056 C1076 0.950 . S
H1057 C1077 0.950 . S
H1058 C1079 0.950 . S
H1059 C1082 0.950 . S
H1060 C1083 0.950 . S
H1061 C1085 0.950 . S
H1062 C1086 0.950 . S
H1063 C1087 0.951 . S
H1064 C1089 0.951 . S
H1065 C1091 0.950 . S
H1066 C1092 0.950 . S
H1067 C1094 0.950 . S
H1068 C1097 0.950 . S
H1069 C1098 0.950 . S
H1070 C1100 0.950 . S
H1071 C1101 0.950 . S
C1072 H1054 0.951 . S
C1072 C1073 1.366 . S
C1072 C1074 1.388 . S
C1073 C1072 1.366 . S
C1073 C1077 1.385 . S
C1074 H1055 0.951 . S
C1074 C1072 1.388 . S
C1074 C1075 1.366 . S
C1075 C1074 1.366 . S
C1075 C1076 1.414 . S
C1075 C1078 1.499 . S
C1076 H1056 0.950 . S
C1076 C1075 1.414 . S
C1076 C1077 1.374 . S
C1077 H1057 0.950 . S
C1077 C1073 1.385 . S
C1077 C1076 1.374 . S
C1078 C1075 1.499 . S
C1078 C1079 1.373 . S
C1078 C1080 1.389 . S
C1079 H1058 0.950 . S
C1079 C1078 1.373 . S
C1079 C1095 1.377 . S
C1080 C1078 1.389 . S
C1080 C1081 1.524 . S
C1080 C1094 1.377 . S
C1081 C1080 1.524 . S
C1081 C1082 1.397 . S
C1081 C1086 1.363 . S
C1082 H1059 0.950 . S
C1082 C1081 1.397 . S
C1082 C1083 1.334 . S
C1083 H1060 0.950 . S
C1083 C1082 1.334 . S
C1083 C1084 1.287 . S
C1084 C1083 1.287 . S
C1084 C1085 1.524 . S
C1084 H1103 0.913 . S
C1085 H1061 0.950 . S
C1085 C1084 1.524 . S
C1085 C1086 1.415 . S
C1086 H1062 0.950 . S
C1086 C1081 1.363 . S
C1086 C1085 1.415 . S
C1087 H1063 0.951 . S
C1087 C1088 1.366 . S
C1087 C1089 1.388 . S
C1088 C1087 1.366 . S
C1088 C1092 1.385 . S
C1089 H1064 0.951 . S
C1089 C1087 1.388 . S
C1089 C1090 1.366 . S
C1090 C1089 1.366 . S
C1090 C1091 1.414 . S
C1090 C1093 1.499 . S
C1091 H1065 0.950 . S
C1091 C1090 1.414 . S
C1091 C1092 1.374 . S
C1092 H1066 0.950 . S
C1092 C1088 1.385 . S
C1092 C1091 1.374 . S
C1093 C1090 1.499 . S
C1093 C1094 1.373 . S
C1093 C1095 1.389 . S
C1094 H1067 0.950 . S
C1094 C1080 1.377 . S
C1094 C1093 1.373 . S
C1095 C1079 1.377 . S
C1095 C1093 1.389 . S
C1095 C1096 1.524 . S
C1096 C1095 1.524 . S
C1096 C1097 1.397 . S
C1096 C1101 1.363 . S
C1097 H1068 0.950 . S
C1097 C1096 1.397 . S
C1097 C1098 1.334 . S
C1098 H1069 0.950 . S
C1098 C1097 1.334 . S
C1098 C1099 1.287 . S
C1099 C1098 1.287 . S
C1099 C1100 1.524 . S
C1099 H1102 0.999 . S
C1100 H1070 0.950 . S
C1100 C1099 1.524 . S
C1100 C1101 1.415 . S
C1101 H1071 0.950 . S
C1101 C1096 1.363 . S
C1101 C1100 1.415 . S
H1102 C1099 0.999 . S
H1103 C1084 0.913 . S
H1104 C1122 0.951 . S
H1105 C1124 0.951 . S
H1106 C1126 0.950 . S
H1107 C1127 0.950 . S
H1108 C1129 0.950 . S
H1109 C1132 0.950 . S
H1110 C1133 0.950 . S
H1111 C1135 0.950 . S
H1112 C1136 0.950 . S
H1113 C1137 0.951 . S
H1114 C1139 0.951 . S
H1115 C1141 0.950 . S
H1116 C1142 0.950 . S
H1117 C1144 0.950 . S
H1118 C1147 0.950 . S
H1119 C1148 0.950 . S
H1120 C1150 0.950 . S
H1121 C1151 0.950 . S
C1122 H1104 0.951 . S
C1122 C1123 1.366 . S
C1122 C1124 1.388 . S
C1123 C1122 1.366 . S
C1123 C1127 1.385 . S
C1124 H1105 0.951 . S
C1124 C1122 1.388 . S
C1124 C1125 1.366 . S
C1125 C1124 1.366 . S
C1125 C1126 1.414 . S
C1125 C1128 1.499 . S
C1126 H1106 0.950 . S
C1126 C1125 1.414 . S
C1126 C1127 1.374 . S
C1127 H1107 0.950 . S
C1127 C1123 1.385 . S
C1127 C1126 1.374 . S
C1128 C1125 1.499 . S
C1128 C1129 1.373 . S
C1128 C1130 1.389 . S
C1129 H1108 0.950 . S
C1129 C1128 1.373 . S
C1129 C1145 1.377 . S
C1130 C1128 1.389 . S
C1130 C1131 1.524 . S
C1130 C1144 1.377 . S
C1131 C1130 1.524 . S
C1131 C1132 1.397 . S
C1131 C1136 1.363 . S
C1132 H1109 0.950 . S
C1132 C1131 1.397 . S
C1132 C1133 1.334 . S
C1133 H1110 0.950 . S
C1133 C1132 1.334 . S
C1133 C1134 1.287 . S
C1134 C1133 1.287 . S
C1134 C1135 1.524 . S
C1134 H1153 0.913 . S
C1135 H1111 0.950 . S
C1135 C1134 1.524 . S
C1135 C1136 1.415 . S
C1136 H1112 0.950 . S
C1136 C1131 1.363 . S
C1136 C1135 1.415 . S
C1137 H1113 0.951 . S
C1137 C1138 1.366 . S
C1137 C1139 1.388 . S
C1138 C1137 1.366 . S
C1138 C1142 1.385 . S
C1139 H1114 0.951 . S
C1139 C1137 1.388 . S
C1139 C1140 1.366 . S
C1140 C1139 1.366 . S
C1140 C1141 1.414 . S
C1140 C1143 1.499 . S
C1141 H1115 0.950 . S
C1141 C1140 1.414 . S
C1141 C1142 1.374 . S
C1142 H1116 0.950 . S
C1142 C1138 1.385 . S
C1142 C1141 1.374 . S
C1143 C1140 1.499 . S
C1143 C1144 1.373 . S
C1143 C1145 1.389 . S
C1144 H1117 0.950 . S
C1144 C1130 1.377 . S
C1144 C1143 1.373 . S
C1145 C1129 1.377 . S
C1145 C1143 1.389 . S
C1145 C1146 1.524 . S
C1146 C1145 1.524 . S
C1146 C1147 1.397 . S
C1146 C1151 1.363 . S
C1147 H1118 0.950 . S
C1147 C1146 1.397 . S
C1147 C1148 1.334 . S
C1148 H1119 0.950 . S
C1148 C1147 1.334 . S
C1148 C1149 1.287 . S
C1149 C1148 1.287 . S
C1149 C1150 1.524 . S
C1149 H1152 0.999 . S
C1150 H1120 0.950 . S
C1150 C1149 1.524 . S
C1150 C1151 1.415 . S
C1151 H1121 0.950 . S
C1151 C1146 1.363 . S
C1151 C1150 1.415 . S
H1152 C1149 0.999 . S
H1153 C1134 0.913 . S
H1154 C1172 0.951 . S
H1155 C1174 0.951 . S
H1156 C1176 0.950 . S
H1157 C1177 0.950 . S
H1158 C1179 0.950 . S
H1159 C1182 0.950 . S
H1160 C1183 0.950 . S
H1161 C1185 0.950 . S
H1162 C1186 0.950 . S
H1163 C1187 0.951 . S
H1164 C1189 0.951 . S
H1165 C1191 0.950 . S
H1166 C1192 0.950 . S
H1167 C1194 0.950 . S
H1168 C1197 0.950 . S
H1169 C1198 0.950 . S
H1170 C1200 0.950 . S
H1171 C1201 0.950 . S
C1172 H1154 0.951 . S
C1172 C1173 1.366 . S
C1172 C1174 1.388 . S
C1173 C1172 1.366 . S
C1173 C1177 1.385 . S
C1174 H1155 0.951 . S
C1174 C1172 1.388 . S
C1174 C1175 1.366 . S
C1175 C1174 1.366 . S
C1175 C1176 1.414 . S
C1175 C1178 1.499 . S
C1176 H1156 0.950 . S
C1176 C1175 1.414 . S
C1176 C1177 1.374 . S
C1177 H1157 0.950 . S
C1177 C1173 1.385 . S
C1177 C1176 1.374 . S
C1178 C1175 1.499 . S
C1178 C1179 1.373 . S
C1178 C1180 1.389 . S
C1179 H1158 0.950 . S
C1179 C1178 1.373 . S
C1179 C1195 1.377 . S
C1180 C1178 1.389 . S
C1180 C1181 1.524 . S
C1180 C1194 1.377 . S
C1181 C1180 1.524 . S
C1181 C1182 1.397 . S
C1181 C1186 1.363 . S
C1182 H1159 0.950 . S
C1182 C1181 1.397 . S
C1182 C1183 1.334 . S
C1183 H1160 0.950 . S
C1183 C1182 1.334 . S
C1183 C1184 1.287 . S
C1184 C1183 1.287 . S
C1184 C1185 1.524 . S
C1184 H1203 0.913 . S
C1185 H1161 0.950 . S
C1185 C1184 1.524 . S
C1185 C1186 1.415 . S
C1186 H1162 0.950 . S
C1186 C1181 1.363 . S
C1186 C1185 1.415 . S
C1187 H1163 0.951 . S
C1187 C1188 1.366 . S
C1187 C1189 1.388 . S
C1188 C1187 1.366 . S
C1188 C1192 1.385 . S
C1189 H1164 0.951 . S
C1189 C1187 1.388 . S
C1189 C1190 1.366 . S
C1190 C1189 1.366 . S
C1190 C1191 1.414 . S
C1190 C1193 1.499 . S
C1191 H1165 0.950 . S
C1191 C1190 1.414 . S
C1191 C1192 1.374 . S
C1192 H1166 0.950 . S
C1192 C1188 1.385 . S
C1192 C1191 1.374 . S
C1193 C1190 1.499 . S
C1193 C1194 1.373 . S
C1193 C1195 1.389 . S
C1194 H1167 0.950 . S
C1194 C1180 1.377 . S
C1194 C1193 1.373 . S
C1195 C1179 1.377 . S
C1195 C1193 1.389 . S
C1195 C1196 1.524 . S
C1196 C1195 1.524 . S
C1196 C1197 1.397 . S
C1196 C1201 1.363 . S
C1197 H1168 0.950 . S
C1197 C1196 1.397 . S
C1197 C1198 1.334 . S
C1198 H1169 0.950 . S
C1198 C1197 1.334 . S
C1198 C1199 1.287 . S
C1199 C1198 1.287 . S
C1199 C1200 1.524 . S
C1199 H1202 0.999 . S
C1200 H1170 0.950 . S
C1200 C1199 1.524 . S
C1200 C1201 1.415 . S
C1201 H1171 0.950 . S
C1201 C1196 1.363 . S
C1201 C1200 1.415 . S
H1202 C1199 0.999 . S
H1203 C1184 0.913 . S
H1204 C1222 0.951 . S
H1205 C1224 0.951 . S
H1206 C1226 0.950 . S
H1207 C1227 0.950 . S
H1208 C1229 0.950 . S
H1209 C1232 0.950 . S
H1210 C1233 0.950 . S
H1211 C1235 0.950 . S
H1212 C1236 0.950 . S
H1213 C1237 0.951 . S
H1214 C1239 0.951 . S
H1215 C1241 0.950 . S
H1216 C1242 0.950 . S
H1217 C1244 0.950 . S
H1218 C1247 0.950 . S
H1219 C1248 0.950 . S
H1220 C1250 0.950 . S
H1221 C1251 0.950 . S
C1222 H1204 0.951 . S
C1222 C1223 1.366 . S
C1222 C1224 1.388 . S
C1223 C1222 1.366 . S
C1223 C1227 1.385 . S
C1224 H1205 0.951 . S
C1224 C1222 1.388 . S
C1224 C1225 1.366 . S
C1225 C1224 1.366 . S
C1225 C1226 1.414 . S
C1225 C1228 1.499 . S
C1226 H1206 0.950 . S
C1226 C1225 1.414 . S
C1226 C1227 1.374 . S
C1227 H1207 0.950 . S
C1227 C1223 1.385 . S
C1227 C1226 1.374 . S
C1228 C1225 1.499 . S
C1228 C1229 1.373 . S
C1228 C1230 1.389 . S
C1229 H1208 0.950 . S
C1229 C1228 1.373 . S
C1229 C1245 1.377 . S
C1230 C1228 1.389 . S
C1230 C1231 1.524 . S
C1230 C1244 1.377 . S
C1231 C1230 1.524 . S
C1231 C1232 1.397 . S
C1231 C1236 1.363 . S
C1232 H1209 0.950 . S
C1232 C1231 1.397 . S
C1232 C1233 1.334 . S
C1233 H1210 0.950 . S
C1233 C1232 1.334 . S
C1233 C1234 1.287 . S
C1234 C1233 1.287 . S
C1234 C1235 1.524 . S
C1234 H1253 0.913 . S
C1235 H1211 0.950 . S
C1235 C1234 1.524 . S
C1235 C1236 1.415 . S
C1236 H1212 0.950 . S
C1236 C1231 1.363 . S
C1236 C1235 1.415 . S
C1237 H1213 0.951 . S
C1237 C1238 1.366 . S
C1237 C1239 1.388 . S
C1238 C1237 1.366 . S
C1238 C1242 1.385 . S
C1239 H1214 0.951 . S
C1239 C1237 1.388 . S
C1239 C1240 1.366 . S
C1240 C1239 1.366 . S
C1240 C1241 1.414 . S
C1240 C1243 1.499 . S
C1241 H1215 0.950 . S
C1241 C1240 1.414 . S
C1241 C1242 1.374 . S
C1242 H1216 0.950 . S
C1242 C1238 1.385 . S
C1242 C1241 1.374 . S
C1243 C1240 1.499 . S
C1243 C1244 1.373 . S
C1243 C1245 1.389 . S
C1244 H1217 0.950 . S
C1244 C1230 1.377 . S
C1244 C1243 1.373 . S
C1245 C1229 1.377 . S
C1245 C1243 1.389 . S
C1245 C1246 1.524 . S
C1246 C1245 1.524 . S
C1246 C1247 1.397 . S
C1246 C1251 1.363 . S
C1247 H1218 0.950 . S
C1247 C1246 1.397 . S
C1247 C1248 1.334 . S
C1248 H1219 0.950 . S
C1248 C1247 1.334 . S
C1248 C1249 1.287 . S
C1249 C1248 1.287 . S
C1249 C1250 1.524 . S
C1249 H1252 0.999 . S
C1250 H1220 0.950 . S
C1250 C1249 1.524 . S
C1250 C1251 1.415 . S
C1251 H1221 0.950 . S
C1251 C1246 1.363 . S
C1251 C1250 1.415 . S
H1252 C1249 0.999 . S
H1253 C1234 0.913 . S
H1254 C1272 0.951 . S
H1255 C1274 0.951 . S
H1256 C1276 0.950 . S
H1257 C1277 0.950 . S
H1258 C1279 0.950 . S
H1259 C1282 0.950 . S
H1260 C1283 0.950 . S
H1261 C1285 0.950 . S
H1262 C1286 0.950 . S
H1263 C1287 0.951 . S
H1264 C1289 0.951 . S
H1265 C1291 0.950 . S
H1266 C1292 0.950 . S
H1267 C1294 0.950 . S
H1268 C1297 0.950 . S
H1269 C1298 0.950 . S
H1270 C1300 0.950 . S
H1271 C1301 0.950 . S
C1272 H1254 0.951 . S
C1272 C1273 1.366 . S
C1272 C1274 1.388 . S
C1273 C1272 1.366 . S
C1273 C1277 1.385 . S
C1274 H1255 0.951 . S
C1274 C1272 1.388 . S
C1274 C1275 1.366 . S
C1275 C1274 1.366 . S
C1275 C1276 1.414 . S
C1275 C1278 1.499 . S
C1276 H1256 0.950 . S
C1276 C1275 1.414 . S
C1276 C1277 1.374 . S
C1277 H1257 0.950 . S
C1277 C1273 1.385 . S
C1277 C1276 1.374 . S
C1278 C1275 1.499 . S
C1278 C1279 1.373 . S
C1278 C1280 1.389 . S
C1279 H1258 0.950 . S
C1279 C1278 1.373 . S
C1279 C1295 1.377 . S
C1280 C1278 1.389 . S
C1280 C1281 1.524 . S
C1280 C1294 1.377 . S
C1281 C1280 1.524 . S
C1281 C1282 1.397 . S
C1281 C1286 1.363 . S
C1282 H1259 0.950 . S
C1282 C1281 1.397 . S
C1282 C1283 1.334 . S
C1283 H1260 0.950 . S
C1283 C1282 1.334 . S
C1283 C1284 1.287 . S
C1284 C1283 1.287 . S
C1284 C1285 1.524 . S
C1284 H1303 0.913 . S
C1285 H1261 0.950 . S
C1285 C1284 1.524 . S
C1285 C1286 1.415 . S
C1286 H1262 0.950 . S
C1286 C1281 1.363 . S
C1286 C1285 1.415 . S
C1287 H1263 0.951 . S
C1287 C1288 1.366 . S
C1287 C1289 1.388 . S
C1288 C1287 1.366 . S
C1288 C1292 1.385 . S
C1289 H1264 0.951 . S
C1289 C1287 1.388 . S
C1289 C1290 1.366 . S
C1290 C1289 1.366 . S
C1290 C1291 1.414 . S
C1290 C1293 1.499 . S
C1291 H1265 0.950 . S
C1291 C1290 1.414 . S
C1291 C1292 1.374 . S
C1292 H1266 0.950 . S
C1292 C1288 1.385 . S
C1292 C1291 1.374 . S
C1293 C1290 1.499 . S
C1293 C1294 1.373 . S
C1293 C1295 1.389 . S
C1294 H1267 0.950 . S
C1294 C1280 1.377 . S
C1294 C1293 1.373 . S
C1295 C1279 1.377 . S
C1295 C1293 1.389 . S
C1295 C1296 1.524 . S
C1296 C1295 1.524 . S
C1296 C1297 1.397 . S
C1296 C1301 1.363 . S
C1297 H1268 0.950 . S
C1297 C1296 1.397 . S
C1297 C1298 1.334 . S
C1298 H1269 0.950 . S
C1298 C1297 1.334 . S
C1298 C1299 1.287 . S
C1299 C1298 1.287 . S
C1299 C1300 1.524 . S
C1299 H1302 0.999 . S
C1300 H1270 0.950 . S
C1300 C1299 1.524 . S
C1300 C1301 1.415 . S
C1301 H1271 0.950 . S
C1301 C1296 1.363 . S
C1301 C1300 1.415 . S
H1302 C1299 0.999 . S
H1303 C1284 0.913 . S
H1304 C1322 0.951 . S
H1305 C1324 0.951 . S
H1306 C1326 0.950 . S
H1307 C1327 0.950 . S
H1308 C1329 0.950 . S
H1309 C1332 0.950 . S
H1310 C1333 0.950 . S
H1311 C1335 0.950 . S
H1312 C1336 0.950 . S
H1313 C1337 0.951 . S
H1314 C1339 0.951 . S
H1315 C1341 0.950 . S
H1316 C1342 0.950 . S
H1317 C1344 0.950 . S
H1318 C1347 0.950 . S
H1319 C1348 0.950 . S
H1320 C1350 0.950 . S
H1321 C1351 0.950 . S
C1322 H1304 0.951 . S
C1322 C1323 1.366 . S
C1322 C1324 1.388 . S
C1323 C1322 1.366 . S
C1323 C1327 1.385 . S
C1324 H1305 0.951 . S
C1324 C1322 1.388 . S
C1324 C1325 1.366 . S
C1325 C1324 1.366 . S
C1325 C1326 1.414 . S
C1325 C1328 1.499 . S
C1326 H1306 0.950 . S
C1326 C1325 1.414 . S
C1326 C1327 1.374 . S
C1327 H1307 0.950 . S
C1327 C1323 1.385 . S
C1327 C1326 1.374 . S
C1328 C1325 1.499 . S
C1328 C1329 1.373 . S
C1328 C1330 1.389 . S
C1329 H1308 0.950 . S
C1329 C1328 1.373 . S
C1329 C1345 1.377 . S
C1330 C1328 1.389 . S
C1330 C1331 1.524 . S
C1330 C1344 1.377 . S
C1331 C1330 1.524 . S
C1331 C1332 1.397 . S
C1331 C1336 1.363 . S
C1332 H1309 0.950 . S
C1332 C1331 1.397 . S
C1332 C1333 1.334 . S
C1333 H1310 0.950 . S
C1333 C1332 1.334 . S
C1333 C1334 1.287 . S
C1334 C1333 1.287 . S
C1334 C1335 1.524 . S
C1334 H1353 0.913 . S
C1335 H1311 0.950 . S
C1335 C1334 1.524 . S
C1335 C1336 1.415 . S
C1336 H1312 0.950 . S
C1336 C1331 1.363 . S
C1336 C1335 1.415 . S
C1337 H1313 0.951 . S
C1337 C1338 1.366 . S
C1337 C1339 1.388 . S
C1338 C1337 1.366 . S
C1338 C1342 1.385 . S
C1339 H1314 0.951 . S
C1339 C1337 1.388 . S
C1339 C1340 1.366 . S
C1340 C1339 1.366 . S
C1340 C1341 1.414 . S
C1340 C1343 1.499 . S
C1341 H1315 0.950 . S
C1341 C1340 1.414 . S
C1341 C1342 1.374 . S
C1342 H1316 0.950 . S
C1342 C1338 1.385 . S
C1342 C1341 1.374 . S
C1343 C1340 1.499 . S
C1343 C1344 1.373 . S
C1343 C1345 1.389 . S
C1344 H1317 0.950 . S
C1344 C1330 1.377 . S
C1344 C1343 1.373 . S
C1345 C1329 1.377 . S
C1345 C1343 1.389 . S
C1345 C1346 1.524 . S
C1346 C1345 1.524 . S
C1346 C1347 1.397 . S
C1346 C1351 1.363 . S
C1347 H1318 0.950 . S
C1347 C1346 1.397 . S
C1347 C1348 1.334 . S
C1348 H1319 0.950 . S
C1348 C1347 1.334 . S
C1348 C1349 1.287 . S
C1349 C1348 1.287 . S
C1349 C1350 1.524 . S
C1349 H1352 0.999 . S
C1350 H1320 0.950 . S
C1350 C1349 1.524 . S
C1350 C1351 1.415 . S
C1351 H1321 0.950 . S
C1351 C1346 1.363 . S
C1351 C1350 1.415 . S
H1352 C1349 0.999 . S
H1353 C1334 0.913 . S
H1354 C1372 0.951 . S
H1355 C1374 0.951 . S
H1356 C1376 0.950 . S
H1357 C1377 0.950 . S
H1358 C1379 0.950 . S
H1359 C1382 0.950 . S
H1360 C1383 0.950 . S
H1361 C1385 0.950 . S
H1362 C1386 0.950 . S
H1363 C1387 0.951 . S
H1364 C1389 0.951 . S
H1365 C1391 0.950 . S
H1366 C1392 0.950 . S
H1367 C1394 0.950 . S
H1368 C1397 0.950 . S
H1369 C1398 0.950 . S
H1370 C1400 0.950 . S
H1371 C1401 0.950 . S
C1372 H1354 0.951 . S
C1372 C1373 1.366 . S
C1372 C1374 1.388 . S
C1373 C1372 1.366 . S
C1373 C1377 1.385 . S
C1374 H1355 0.951 . S
C1374 C1372 1.388 . S
C1374 C1375 1.366 . S
C1375 C1374 1.366 . S
C1375 C1376 1.414 . S
C1375 C1378 1.499 . S
C1376 H1356 0.950 . S
C1376 C1375 1.414 . S
C1376 C1377 1.374 . S
C1377 H1357 0.950 . S
C1377 C1373 1.385 . S
C1377 C1376 1.374 . S
C1378 C1375 1.499 . S
C1378 C1379 1.373 . S
C1378 C1380 1.389 . S
C1379 H1358 0.950 . S
C1379 C1378 1.373 . S
C1379 C1395 1.377 . S
C1380 C1378 1.389 . S
C1380 C1381 1.524 . S
C1380 C1394 1.377 . S
C1381 C1380 1.524 . S
C1381 C1382 1.397 . S
C1381 C1386 1.363 . S
C1382 H1359 0.950 . S
C1382 C1381 1.397 . S
C1382 C1383 1.334 . S
C1383 H1360 0.950 . S
C1383 C1382 1.334 . S
C1383 C1384 1.287 . S
C1384 C1383 1.287 . S
C1384 C1385 1.524 . S
C1384 H1403 0.913 . S
C1385 H1361 0.950 . S
C1385 C1384 1.524 . S
C1385 C1386 1.415 . S
C1386 H1362 0.950 . S
C1386 C1381 1.363 . S
C1386 C1385 1.415 . S
C1387 H1363 0.951 . S
C1387 C1388 1.366 . S
C1387 C1389 1.388 . S
C1388 C1387 1.366 . S
C1388 C1392 1.385 . S
C1389 H1364 0.951 . S
C1389 C1387 1.388 . S
C1389 C1390 1.366 . S
C1390 C1389 1.366 . S
C1390 C1391 1.414 . S
C1390 C1393 1.499 . S
C1391 H1365 0.950 . S
C1391 C1390 1.414 . S
C1391 C1392 1.374 . S
C1392 H1366 0.950 . S
C1392 C1388 1.385 . S
C1392 C1391 1.374 . S
C1393 C1390 1.499 . S
C1393 C1394 1.373 . S
C1393 C1395 1.389 . S
C1394 H1367 0.950 . S
C1394 C1380 1.377 . S
C1394 C1393 1.373 . S
C1395 C1379 1.377 . S
C1395 C1393 1.389 . S
C1395 C1396 1.524 . S
C1396 C1395 1.524 . S
C1396 C1397 1.397 . S
C1396 C1401 1.363 . S
C1397 H1368 0.950 . S
C1397 C1396 1.397 . S
C1397 C1398 1.334 . S
C1398 H1369 0.950 . S
C1398 C1397 1.334 . S
C1398 C1399 1.287 . S
C1399 C1398 1.287 . S
C1399 C1400 1.524 . S
C1399 H1402 0.999 . S
C1400 H1370 0.950 . S
C1400 C1399 1.524 . S
C1400 C1401 1.415 . S
C1401 H1371 0.950 . S
C1401 C1396 1.363 . S
C1401 C1400 1.415 . S
H1402 C1399 0.999 . S
H1403 C1384 0.913 . S
H1404 C1422 0.951 . S
H1405 C1424 0.951 . S
H1406 C1426 0.950 . S
H1407 C1427 0.950 . S
H1408 C1429 0.950 . S
H1409 C1432 0.950 . S
H1410 C1433 0.950 . S
H1411 C1435 0.950 . S
H1412 C1436 0.950 . S
H1413 C1437 0.951 . S
H1414 C1439 0.951 . S
H1415 C1441 0.950 . S
H1416 C1442 0.950 . S
H1417 C1444 0.950 . S
H1418 C1447 0.950 . S
H1419 C1448 0.950 . S
H1420 C1450 0.950 . S
H1421 C1451 0.950 . S
C1422 H1404 0.951 . S
C1422 C1423 1.366 . S
C1422 C1424 1.388 . S
C1423 C1422 1.366 . S
C1423 C1427 1.385 . S
C1424 H1405 0.951 . S
C1424 C1422 1.388 . S
C1424 C1425 1.366 . S
C1425 C1424 1.366 . S
C1425 C1426 1.414 . S
C1425 C1428 1.499 . S
C1426 H1406 0.950 . S
C1426 C1425 1.414 . S
C1426 C1427 1.374 . S
C1427 H1407 0.950 . S
C1427 C1423 1.385 . S
C1427 C1426 1.374 . S
C1428 C1425 1.499 . S
C1428 C1429 1.373 . S
C1428 C1430 1.389 . S
C1429 H1408 0.950 . S
C1429 C1428 1.373 . S
C1429 C1445 1.377 . S
C1430 C1428 1.389 . S
C1430 C1431 1.524 . S
C1430 C1444 1.377 . S
C1431 C1430 1.524 . S
C1431 C1432 1.397 . S
C1431 C1436 1.363 . S
C1432 H1409 0.950 . S
C1432 C1431 1.397 . S
C1432 C1433 1.334 . S
C1433 H1410 0.950 . S
C1433 C1432 1.334 . S
C1433 C1434 1.287 . S
C1434 C1433 1.287 . S
C1434 C1435 1.524 . S
C1434 H1453 0.913 . S
C1435 H1411 0.950 . S
C1435 C1434 1.524 . S
C1435 C1436 1.415 . S
C1436 H1412 0.950 . S
C1436 C1431 1.363 . S
C1436 C1435 1.415 . S
C1437 H1413 0.951 . S
C1437 C1438 1.366 . S
C1437 C1439 1.388 . S
C1438 C1437 1.366 . S
C1438 C1442 1.385 . S
C1439 H1414 0.951 . S
C1439 C1437 1.388 . S
C1439 C1440 1.366 . S
C1440 C1439 1.366 . S
C1440 C1441 1.414 . S
C1440 C1443 1.499 . S
C1441 H1415 0.950 . S
C1441 C1440 1.414 . S
C1441 C1442 1.374 . S
C1442 H1416 0.950 . S
C1442 C1438 1.385 . S
C1442 C1441 1.374 . S
C1443 C1440 1.499 . S
C1443 C1444 1.373 . S
C1443 C1445 1.389 . S
C1444 H1417 0.950 . S
C1444 C1430 1.377 . S
C1444 C1443 1.373 . S
C1445 C1429 1.377 . S
C1445 C1443 1.389 . S
C1445 C1446 1.524 . S
C1446 C1445 1.524 . S
C1446 C1447 1.397 . S
C1446 C1451 1.363 . S
C1447 H1418 0.950 . S
C1447 C1446 1.397 . S
C1447 C1448 1.334 . S
C1448 H1419 0.950 . S
C1448 C1447 1.334 . S
C1448 C1449 1.287 . S
C1449 C1448 1.287 . S
C1449 C1450 1.524 . S
C1449 H1452 0.999 . S
C1450 H1420 0.950 . S
C1450 C1449 1.524 . S
C1450 C1451 1.415 . S
C1451 H1421 0.950 . S
C1451 C1446 1.363 . S
C1451 C1450 1.415 . S
H1452 C1449 0.999 . S
H1453 C1434 0.913 . S
H1454 C1472 0.951 . S
H1455 C1474 0.951 . S
H1456 C1476 0.950 . S
H1457 C1477 0.950 . S
H1458 C1479 0.950 . S
H1459 C1482 0.950 . S
H1460 C1483 0.950 . S
H1461 C1485 0.950 . S
H1462 C1486 0.950 . S
H1463 C1487 0.951 . S
H1464 C1489 0.951 . S
H1465 C1491 0.950 . S
H1466 C1492 0.950 . S
H1467 C1494 0.950 . S
H1468 C1497 0.950 . S
H1469 C1498 0.950 . S
H1470 C1500 0.950 . S
H1471 C1501 0.950 . S
C1472 H1454 0.951 . S
C1472 C1473 1.366 . S
C1472 C1474 1.388 . S
C1473 C1472 1.366 . S
C1473 C1477 1.385 . S
C1474 H1455 0.951 . S
C1474 C1472 1.388 . S
C1474 C1475 1.366 . S
C1475 C1474 1.366 . S
C1475 C1476 1.414 . S
C1475 C1478 1.499 . S
C1476 H1456 0.950 . S
C1476 C1475 1.414 . S
C1476 C1477 1.374 . S
C1477 H1457 0.950 . S
C1477 C1473 1.385 . S
C1477 C1476 1.374 . S
C1478 C1475 1.499 . S
C1478 C1479 1.373 . S
C1478 C1480 1.389 . S
C1479 H1458 0.950 . S
C1479 C1478 1.373 . S
C1479 C1495 1.377 . S
C1480 C1478 1.389 . S
C1480 C1481 1.524 . S
C1480 C1494 1.377 . S
C1481 C1480 1.524 . S
C1481 C1482 1.397 . S
C1481 C1486 1.363 . S
C1482 H1459 0.950 . S
C1482 C1481 1.397 . S
C1482 C1483 1.334 . S
C1483 H1460 0.950 . S
C1483 C1482 1.334 . S
C1483 C1484 1.287 . S
C1484 C1483 1.287 . S
C1484 C1485 1.524 . S
C1484 H1503 0.913 . S
C1485 H1461 0.950 . S
C1485 C1484 1.524 . S
C1485 C1486 1.415 . S
C1486 H1462 0.950 . S
C1486 C1481 1.363 . S
C1486 C1485 1.415 . S
C1487 H1463 0.951 . S
C1487 C1488 1.366 . S
C1487 C1489 1.388 . S
C1488 C1487 1.366 . S
C1488 C1492 1.385 . S
C1489 H1464 0.951 . S
C1489 C1487 1.388 . S
C1489 C1490 1.366 . S
C1490 C1489 1.366 . S
C1490 C1491 1.414 . S
C1490 C1493 1.499 . S
C1491 H1465 0.950 . S
C1491 C1490 1.414 . S
C1491 C1492 1.374 . S
C1492 H1466 0.950 . S
C1492 C1488 1.385 . S
C1492 C1491 1.374 . S
C1493 C1490 1.499 . S
C1493 C1494 1.373 . S
C1493 C1495 1.389 . S
C1494 H1467 0.950 . S
C1494 C1480 1.377 . S
C1494 C1493 1.373 . S
C1495 C1479 1.377 . S
C1495 C1493 1.389 . S
C1495 C1496 1.524 . S
C1496 C1495 1.524 . S
C1496 C1497 1.397 . S
C1496 C1501 1.363 . S
C1497 H1468 0.950 . S
C1497 C1496 1.397 . S
C1497 C1498 1.334 . S
C1498 H1469 0.950 . S
C1498 C1497 1.334 . S
C1498 C1499 1.287 . S
C1499 C1498 1.287 . S
C1499 C1500 1.524 . S
C1499 H1502 0.999 . S
C1500 H1470 0.950 . S
C1500 C1499 1.524 . S
C1500 C1501 1.415 . S
C1501 H1471 0.950 . S
C1501 C1496 1.363 . S
C1501 C1500 1.415 . S
H1502 C1499 0.999 . S
H1503 C1484 0.913 . S
H1504 C1522 0.951 . S
H1505 C1524 0.951 . S
H1506 C1526 0.950 . S
H1507 C1527 0.950 . S
H1508 C1529 0.950 . S
H1509 C1532 0.950 . S
H1510 C1533 0.950 . S
H1511 C1535 0.950 . S
H1512 C1536 0.950 . S
H1513 C1537 0.951 . S
H1514 C1539 0.951 . S
H1515 C1541 0.950 . S
H1516 C1542 0.950 . S
H1517 C1544 0.950 . S
H1518 C1547 0.950 . S
H1519 C1548 0.950 . S
H1520 C1550 0.950 . S
H1521 C1551 0.950 . S
C1522 H1504 0.951 . S
C1522 C1523 1.366 . S
C1522 C1524 1.388 . S
C1523 C1522 1.366 . S
C1523 C1527 1.385 . S
C1524 H1505 0.951 . S
C1524 C1522 1.388 . S
C1524 C1525 1.366 . S
C1525 C1524 1.366 . S
C1525 C1526 1.414 . S
C1525 C1528 1.499 . S
C1526 H1506 0.950 . S
C1526 C1525 1.414 . S
C1526 C1527 1.374 . S
C1527 H1507 0.950 . S
C1527 C1523 1.385 . S
C1527 C1526 1.374 . S
C1528 C1525 1.499 . S
C1528 C1529 1.373 . S
C1528 C1530 1.389 . S
C1529 H1508 0.950 . S
C1529 C1528 1.373 . S
C1529 C1545 1.377 . S
C1530 C1528 1.389 . S
C1530 C1531 1.524 . S
C1530 C1544 1.377 . S
C1531 C1530 1.524 . S
C1531 C1532 1.397 . S
C1531 C1536 1.363 . S
C1532 H1509 0.950 . S
C1532 C1531 1.397 . S
C1532 C1533 1.334 . S
C1533 H1510 0.950 . S
C1533 C1532 1.334 . S
C1533 C1534 1.287 . S
C1534 C1533 1.287 . S
C1534 C1535 1.524 . S
C1534 H1553 0.913 . S
C1535 H1511 0.950 . S
C1535 C1534 1.524 . S
C1535 C1536 1.415 . S
C1536 H1512 0.950 . S
C1536 C1531 1.363 . S
C1536 C1535 1.415 . S
C1537 H1513 0.951 . S
C1537 C1538 1.366 . S
C1537 C1539 1.388 . S
C1538 C1537 1.366 . S
C1538 C1542 1.385 . S
C1539 H1514 0.951 . S
C1539 C1537 1.388 . S
C1539 C1540 1.366 . S
C1540 C1539 1.366 . S
C1540 C1541 1.414 . S
C1540 C1543 1.499 . S
C1541 H1515 0.950 . S
C1541 C1540 1.414 . S
C1541 C1542 1.374 . S
C1542 H1516 0.950 . S
C1542 C1538 1.385 . S
C1542 C1541 1.374 . S
C1543 C1540 1.499 . S
C1543 C1544 1.373 . S
C1543 C1545 1.389 . S
C1544 H1517 0.950 . S
C1544 C1530 1.377 . S
C1544 C1543 1.373 . S
C1545 C1529 1.377 . S
C1545 C1543 1.389 . S
C1545 C1546 1.524 . S
C1546 C1545 1.524 . S
C1546 C1547 1.397 . S
C1546 C1551 1.363 . S
C1547 H1518 0.950 . S
C1547 C1546 1.397 . S
C1547 C1548 1.334 . S
C1548 H1519 0.950 . S
C1548 C1547 1.334 . S
C1548 C1549 1.287 . S
C1549 C1548 1.287 . S
C1549 C1550 1.524 . S
C1549 H1552 0.999 . S
C1550 H1520 0.950 . S
C1550 C1549 1.524 . S
C1550 C1551 1.415 . S
C1551 H1521 0.950 . S
C1551 C1546 1.363 . S
C1551 C1550 1.415 . S
H1552 C1549 0.999 . S
H1553 C1534 0.913 . S
H1554 C1572 0.951 . S
H1555 C1574 0.951 . S
H1556 C1576 0.950 . S
H1557 C1577 0.950 . S
H1558 C1579 0.950 . S
H1559 C1582 0.950 . S
H1560 C1583 0.950 . S
H1561 C1585 0.950 . S
H1562 C1586 0.950 . S
H1563 C1587 0.951 . S
H1564 C1589 0.951 . S
H1565 C1591 0.950 . S
H1566 C1592 0.950 . S
H1567 C1594 0.950 . S
H1568 C1597 0.950 . S
H1569 C1598 0.950 . S
H1570 C1600 0.950 . S
H1571 C1601 0.950 . S
C1572 H1554 0.951 . S
C1572 C1573 1.366 . S
C1572 C1574 1.388 . S
C1573 C1572 1.366 . S
C1573 C1577 1.385 1_554 S
C1574 H1555 0.951 . S
C1574 C1572 1.388 . S
C1574 C1575 1.366 . S
C1575 C1574 1.366 . S
C1575 C1576 1.414 1_554 S
C1575 C1578 1.499 . S
C1576 H1556 0.950 . S
C1576 C1575 1.414 1_556 S
C1576 C1577 1.374 . S
C1577 H1557 0.950 . S
C1577 C1573 1.385 1_556 S
C1577 C1576 1.374 . S
C1578 C1575 1.499 . S
C1578 C1579 1.373 1_554 S
C1578 C1580 1.389 . S
C1579 H1558 0.950 . S
C1579 C1578 1.373 1_556 S
C1579 C1595 1.377 . S
C1580 C1578 1.389 . S
C1580 C1581 1.524 . S
C1580 C1594 1.377 . S
C1581 C1580 1.524 . S
C1581 C1582 1.397 . S
C1581 C1586 1.363 . S
C1582 H1559 0.950 . S
C1582 C1581 1.397 . S
C1582 C1583 1.334 . S
C1583 H1560 0.950 . S
C1583 C1582 1.334 . S
C1583 C1584 1.287 . S
C1584 C1583 1.287 . S
C1584 C1585 1.524 . S
C1584 H1603 0.913 . S
C1585 H1561 0.950 . S
C1585 C1584 1.524 . S
C1585 C1586 1.415 . S
C1586 H1562 0.950 . S
C1586 C1581 1.363 . S
C1586 C1585 1.415 . S
C1587 H1563 0.951 . S
C1587 C1588 1.290 1_556 S
C1587 C1589 1.388 . S
C1588 C1587 1.290 1_554 S
C1588 C1592 1.465 . S
C1589 H1564 0.951 . S
C1589 C1587 1.388 . S
C1589 C1590 1.287 1_556 S
C1590 C1589 1.287 1_554 S
C1590 C1591 1.496 . S
C1590 C1593 1.506 . S
C1591 H1565 0.950 . S
C1591 C1590 1.496 . S
C1591 C1592 1.374 . S
C1592 H1566 0.950 . S
C1592 C1588 1.465 . S
C1592 C1591 1.374 . S
C1593 C1590 1.506 . S
C1593 C1594 1.373 . S
C1593 C1595 1.389 1_554 S
C1594 H1567 0.950 . S
C1594 C1580 1.377 . S
C1594 C1593 1.373 . S
C1595 C1579 1.377 . S
C1595 C1593 1.389 1_556 S
C1595 C1596 1.524 . S
C1596 C1595 1.524 . S
C1596 C1597 1.397 . S
C1596 C1601 1.363 . S
C1597 H1568 0.950 . S
C1597 C1596 1.397 . S
C1597 C1598 1.334 . S
C1598 H1569 0.950 . S
C1598 C1597 1.334 . S
C1598 C1599 1.287 . S
C1599 C1598 1.287 . S
C1599 C1600 1.524 . S
C1599 H1602 0.999 . S
C1600 H1570 0.950 . S
C1600 C1599 1.524 . S
C1600 C1601 1.415 . S
C1601 H1571 0.950 . S
C1601 C1596 1.363 . S
C1601 C1600 1.415 . S
H1602 C1599 0.999 . S
H1603 C1584 0.913 . S
H1604 C1622 0.951 . S
H1605 C1624 0.951 . S
H1606 C1626 0.950 . S
H1607 C1627 0.950 . S
H1608 C1629 0.950 . S
H1609 C1632 0.950 . S
H1610 C1633 0.950 . S
H1611 C1635 0.950 . S
H1612 C1636 0.950 . S
H1613 C1637 0.951 . S
H1614 C1639 0.951 . S
H1615 C1641 0.950 . S
H1616 C1642 0.950 . S
H1617 C1644 0.950 . S
H1618 C1647 0.950 . S
H1619 C1648 0.950 . S
H1620 C1650 0.950 . S
H1621 C1651 0.950 . S
C1622 H1604 0.951 . S
C1622 C1623 1.287 1_556 S
C1622 C1624 1.388 . S
C1623 C1622 1.287 1_554 S
C1623 C1627 1.467 . S
C1624 H1605 0.951 . S
C1624 C1622 1.388 . S
C1624 C1625 1.281 1_556 S
C1625 C1624 1.281 1_554 S
C1625 C1626 1.502 . S
C1625 C1628 1.506 . S
C1626 H1606 0.950 . S
C1626 C1625 1.502 . S
C1626 C1627 1.374 . S
C1627 H1607 0.950 . S
C1627 C1623 1.467 . S
C1627 C1626 1.374 . S
C1628 C1625 1.506 . S
C1628 C1629 1.373 . S
C1628 C1630 1.389 1_554 S
C1629 H1608 0.950 . S
C1629 C1628 1.373 . S
C1629 C1645 1.377 . S
C1630 C1628 1.389 1_556 S
C1630 C1631 1.524 . S
C1630 C1644 1.377 . S
C1631 C1630 1.524 . S
C1631 C1632 1.397 . S
C1631 C1636 1.363 . S
C1632 H1609 0.950 . S
C1632 C1631 1.397 . S
C1632 C1633 1.334 . S
C1633 H1610 0.950 . S
C1633 C1632 1.334 . S
C1633 C1634 1.287 . S
C1634 C1633 1.287 . S
C1634 C1635 1.524 . S
C1634 H1653 0.913 . S
C1635 H1611 0.950 . S
C1635 C1634 1.524 . S
C1635 C1636 1.415 . S
C1636 H1612 0.950 . S
C1636 C1631 1.363 . S
C1636 C1635 1.415 . S
C1637 H1613 0.951 . S
C1637 C1638 1.366 . S
C1637 C1639 1.388 . S
C1638 C1637 1.366 . S
C1638 C1642 1.385 1_554 S
C1639 H1614 0.951 . S
C1639 C1637 1.388 . S
C1639 C1640 1.366 . S
C1640 C1639 1.366 . S
C1640 C1641 1.414 1_554 S
C1640 C1643 1.499 . S
C1641 H1615 0.950 . S
C1641 C1640 1.414 1_556 S
C1641 C1642 1.374 . S
C1642 H1616 0.950 . S
C1642 C1638 1.385 1_556 S
C1642 C1641 1.374 . S
C1643 C1640 1.499 . S
C1643 C1644 1.373 1_554 S
C1643 C1645 1.389 . S
C1644 H1617 0.950 . S
C1644 C1630 1.377 . S
C1644 C1643 1.373 1_556 S
C1645 C1629 1.377 . S
C1645 C1643 1.389 . S
C1645 C1646 1.524 . S
C1646 C1645 1.524 . S
C1646 C1647 1.397 . S
C1646 C1651 1.363 . S
C1647 H1618 0.950 . S
C1647 C1646 1.397 . S
C1647 C1648 1.334 . S
C1648 H1619 0.950 . S
C1648 C1647 1.334 . S
C1648 C1649 1.287 . S
C1649 C1648 1.287 . S
C1649 C1650 1.524 . S
C1649 H1652 0.999 . S
C1650 H1620 0.950 . S
C1650 C1649 1.524 . S
C1650 C1651 1.415 . S
C1651 H1621 0.950 . S
C1651 C1646 1.363 . S
C1651 C1650 1.415 . S
H1652 C1649 0.999 . S
H1653 C1634 0.913 . S
H1654 C1672 0.951 . S
H1655 C1674 0.951 . S
H1656 C1676 0.950 . S
H1657 C1677 0.950 . S
H1658 C1679 0.950 . S
H1659 C1682 0.950 . S
H1660 C1683 0.950 . S
H1661 C1685 0.950 . S
H1662 C1686 0.956 . S
H1663 C1687 0.951 . S
H1664 C1689 0.951 . S
H1665 C1691 0.950 . S
H1666 C1692 0.950 . S
H1667 C1694 0.950 . S
H1668 C1697 0.950 . S
H1669 C1698 0.950 . S
H1670 C1700 0.950 . S
H1671 C1701 0.950 . S
C1672 H1654 0.951 . S
C1672 C1673 1.366 . S
C1672 C1674 1.388 . S
C1673 C1672 1.366 . S
C1673 C1677 1.385 1_554 S
C1674 H1655 0.951 . S
C1674 C1672 1.388 . S
C1674 C1675 1.366 . S
C1675 C1674 1.366 . S
C1675 C1676 1.414 1_554 S
C1675 C1678 1.504 . S
C1676 H1656 0.950 . S
C1676 C1675 1.414 1_556 S
C1676 C1677 1.374 . S
C1677 H1657 0.950 . S
C1677 C1673 1.385 1_556 S
C1677 C1676 1.374 . S
C1678 C1675 1.504 . S
C1678 C1679 1.412 . S
C1678 C1680 1.361 1_554 S
C1679 H1658 0.950 . S
C1679 C1678 1.412 . S
C1679 C1695 1.377 . S
C1680 C1678 1.361 1_556 S
C1680 C1681 1.524 . S
C1680 C1694 1.377 . S
C1681 C1680 1.524 . S
C1681 C1682 1.397 . S
C1681 C1686 1.363 . S
C1682 H1659 0.950 . S
C1682 C1681 1.397 . S
C1682 C1683 1.334 . S
C1683 H1660 0.950 . S
C1683 C1682 1.334 . S
C1683 C1684 1.287 . S
C1684 C1683 1.287 . S
C1684 C1685 1.524 . S
C1684 H1703 0.913 . S
C1685 H1661 0.950 . S
C1685 C1684 1.524 . S
C1685 C1686 1.415 . S
C1686 H1662 0.956 . S
C1686 C1681 1.363 . S
C1686 C1685 1.415 . S
C1687 H1663 0.951 . S
C1687 C1688 1.336 1_556 S
C1687 C1689 1.388 . S
C1688 C1687 1.336 1_554 S
C1688 C1692 1.423 . S
C1689 H1664 0.951 . S
C1689 C1687 1.388 . S
C1689 C1690 1.366 1_556 S
C1690 C1689 1.366 1_554 S
C1690 C1691 1.414 . S
C1690 C1693 1.499 . S
C1691 H1665 0.950 . S
C1691 C1690 1.414 . S
C1691 C1692 1.374 . S
C1692 H1666 0.950 . S
C1692 C1688 1.423 . S
C1692 C1691 1.374 . S
C1693 C1690 1.499 . S
C1693 C1694 1.373 1_554 S
C1693 C1695 1.389 . S
C1694 H1667 0.950 . S
C1694 C1680 1.377 . S
C1694 C1693 1.373 1_556 S
C1695 C1679 1.377 . S
C1695 C1693 1.389 . S
C1695 C1696 1.524 . S
C1696 C1695 1.524 . S
C1696 C1697 1.397 . S
C1696 C1701 1.363 . S
C1697 H1668 0.950 . S
C1697 C1696 1.397 . S
C1697 C1698 1.334 . S
C1698 H1669 0.950 . S
C1698 C1697 1.334 . S
C1698 C1699 1.287 . S
C1699 C1698 1.287 . S
C1699 C1700 1.524 . S
C1699 H1702 0.999 . S
C1700 H1670 0.950 . S
C1700 C1699 1.524 . S
C1700 C1701 1.415 . S
C1701 H1671 0.950 . S
C1701 C1696 1.363 . S
C1701 C1700 1.415 . S
H1702 C1699 0.999 . S
H1703 C1684 0.913 . S
H1704 C1722 0.951 . S
H1705 C1724 0.951 . S
H1706 C1726 0.950 . S
H1707 C1727 0.950 . S
H1708 C1729 0.950 . S
H1709 C1732 0.950 . S
H1710 C1733 0.950 . S
H1711 C1735 0.950 . S
H1712 C1736 0.950 . S
H1713 C1737 0.951 . S
H1714 C1739 0.951 . S
H1715 C1741 0.950 . S
H1716 C1742 0.950 . S
H1717 C1744 0.950 . S
H1718 C1747 0.950 . S
H1719 C1748 0.950 . S
H1720 C1750 0.950 . S
H1721 C1751 0.950 . S
C1722 H1704 0.951 . S
C1722 C1723 1.366 . S
C1722 C1724 1.388 . S
C1723 C1722 1.366 . S
C1723 C1727 1.385 . S
C1724 H1705 0.951 . S
C1724 C1722 1.388 . S
C1724 C1725 1.366 . S
C1725 C1724 1.366 . S
C1725 C1726 1.414 . S
C1725 C1728 1.499 . S
C1726 H1706 0.950 . S
C1726 C1725 1.414 . S
C1726 C1727 1.374 . S
C1727 H1707 0.950 . S
C1727 C1723 1.385 . S
C1727 C1726 1.374 . S
C1728 C1725 1.499 . S
C1728 C1729 1.373 . S
C1728 C1730 1.389 . S
C1729 H1708 0.950 . S
C1729 C1728 1.373 . S
C1729 C1745 1.377 . S
C1730 C1728 1.389 . S
C1730 C1731 1.524 . S
C1730 C1744 1.377 . S
C1731 C1730 1.524 . S
C1731 C1732 1.397 . S
C1731 C1736 1.363 . S
C1732 H1709 0.950 . S
C1732 C1731 1.397 . S
C1732 C1733 1.334 . S
C1733 H1710 0.950 . S
C1733 C1732 1.334 . S
C1733 C1734 1.287 . S
C1734 C1733 1.287 . S
C1734 C1735 1.524 . S
C1734 H1753 0.913 . S
C1735 H1711 0.950 . S
C1735 C1734 1.524 . S
C1735 C1736 1.415 . S
C1736 H1712 0.950 . S
C1736 C1731 1.363 . S
C1736 C1735 1.415 . S
C1737 H1713 0.951 . S
C1737 C1738 1.366 . S
C1737 C1739 1.388 . S
C1738 C1737 1.366 . S
C1738 C1742 1.385 . S
C1739 H1714 0.951 . S
C1739 C1737 1.388 . S
C1739 C1740 1.366 . S
C1740 C1739 1.366 . S
C1740 C1741 1.414 . S
C1740 C1743 1.499 . S
C1741 H1715 0.950 . S
C1741 C1740 1.414 . S
C1741 C1742 1.374 . S
C1742 H1716 0.950 . S
C1742 C1738 1.385 . S
C1742 C1741 1.374 . S
C1743 C1740 1.499 . S
C1743 C1744 1.373 . S
C1743 C1745 1.389 . S
C1744 H1717 0.950 . S
C1744 C1730 1.377 . S
C1744 C1743 1.373 . S
C1745 C1729 1.377 . S
C1745 C1743 1.389 . S
C1745 C1746 1.524 . S
C1746 C1745 1.524 . S
C1746 C1747 1.397 . S
C1746 C1751 1.363 . S
C1747 H1718 0.950 . S
C1747 C1746 1.397 . S
C1747 C1748 1.334 . S
C1748 H1719 0.950 . S
C1748 C1747 1.334 . S
C1748 C1749 1.287 . S
C1749 C1748 1.287 . S
C1749 C1750 1.524 . S
C1749 H1752 0.999 . S
C1750 H1720 0.950 . S
C1750 C1749 1.524 . S
C1750 C1751 1.415 . S
C1751 H1721 0.950 . S
C1751 C1746 1.363 . S
C1751 C1750 1.415 . S
H1752 C1749 0.999 . S
H1753 C1734 0.913 . S
H1754 C1772 0.951 . S
H1755 C1774 0.951 . S
H1756 C1776 0.950 . S
H1757 C1777 0.950 . S
H1758 C1779 0.950 . S
H1759 C1782 0.950 . S
H1760 C1783 0.950 . S
H1761 C1785 0.950 . S
H1762 C1786 0.950 . S
H1763 C1787 0.951 . S
H1764 C1789 0.951 . S
H1765 C1791 0.950 . S
H1766 C1792 0.950 . S
H1767 C1794 0.950 . S
H1768 C1797 0.950 . S
H1769 C1798 0.950 . S
H1770 C1800 0.950 . S
H1771 C1801 0.950 . S
C1772 H1754 0.951 . S
C1772 C1773 1.366 . S
C1772 C1774 1.388 . S
C1773 C1772 1.366 . S
C1773 C1777 1.385 . S
C1774 H1755 0.951 . S
C1774 C1772 1.388 . S
C1774 C1775 1.366 . S
C1775 C1774 1.366 . S
C1775 C1776 1.414 . S
C1775 C1778 1.499 . S
C1776 H1756 0.950 . S
C1776 C1775 1.414 . S
C1776 C1777 1.374 . S
C1777 H1757 0.950 . S
C1777 C1773 1.385 . S
C1777 C1776 1.374 . S
C1778 C1775 1.499 . S
C1778 C1779 1.373 . S
C1778 C1780 1.389 . S
C1779 H1758 0.950 . S
C1779 C1778 1.373 . S
C1779 C1795 1.377 . S
C1780 C1778 1.389 . S
C1780 C1781 1.524 . S
C1780 C1794 1.377 . S
C1781 C1780 1.524 . S
C1781 C1782 1.397 . S
C1781 C1786 1.363 . S
C1782 H1759 0.950 . S
C1782 C1781 1.397 . S
C1782 C1783 1.334 . S
C1783 H1760 0.950 . S
C1783 C1782 1.334 . S
C1783 C1784 1.287 . S
C1784 C1783 1.287 . S
C1784 C1785 1.524 . S
C1784 H1803 0.913 . S
C1785 H1761 0.950 . S
C1785 C1784 1.524 . S
C1785 C1786 1.415 . S
C1786 H1762 0.950 . S
C1786 C1781 1.363 . S
C1786 C1785 1.415 . S
C1787 H1763 0.951 . S
C1787 C1788 1.366 . S
C1787 C1789 1.388 . S
C1788 C1787 1.366 . S
C1788 C1792 1.385 . S
C1789 H1764 0.951 . S
C1789 C1787 1.388 . S
C1789 C1790 1.366 . S
C1790 C1789 1.366 . S
C1790 C1791 1.414 . S
C1790 C1793 1.499 . S
C1791 H1765 0.950 . S
C1791 C1790 1.414 . S
C1791 C1792 1.374 . S
C1792 H1766 0.950 . S
C1792 C1788 1.385 . S
C1792 C1791 1.374 . S
C1793 C1790 1.499 . S
C1793 C1794 1.373 . S
C1793 C1795 1.389 . S
C1794 H1767 0.950 . S
C1794 C1780 1.377 . S
C1794 C1793 1.373 . S
C1795 C1779 1.377 . S
C1795 C1793 1.389 . S
C1795 C1796 1.524 . S
C1796 C1795 1.524 . S
C1796 C1797 1.397 . S
C1796 C1801 1.363 . S
C1797 H1768 0.950 . S
C1797 C1796 1.397 . S
C1797 C1798 1.334 . S
C1798 H1769 0.950 . S
C1798 C1797 1.334 . S
C1798 C1799 1.287 . S
C1799 C1798 1.287 . S
C1799 C1800 1.524 . S
C1799 H1802 0.999 . S
C1800 H1770 0.950 . S
C1800 C1799 1.524 . S
C1800 C1801 1.415 . S
C1801 H1771 0.950 . S
C1801 C1796 1.363 . S
C1801 C1800 1.415 . S
H1802 C1799 0.999 . S
H1803 C1784 0.913 . S
H1804 C1822 0.951 . S
H1805 C1824 0.951 . S
H1806 C1826 0.950 . S
H1807 C1827 0.950 . S
H1808 C1829 0.950 . S
H1809 C1832 0.950 . S
H1810 C1833 0.950 . S
H1811 C1835 0.950 . S
H1812 C1836 0.950 . S
H1813 C1837 0.951 . S
H1814 C1839 0.951 . S
H1815 C1841 0.950 . S
H1816 C1842 0.950 . S
H1817 C1844 0.950 . S
H1818 C1847 0.950 . S
H1819 C1848 0.950 . S
H1820 C1850 0.950 . S
H1821 C1851 0.950 . S
C1822 H1804 0.951 . S
C1822 C1823 1.366 . S
C1822 C1824 1.388 . S
C1823 C1822 1.366 . S
C1823 C1827 1.385 . S
C1824 H1805 0.951 . S
C1824 C1822 1.388 . S
C1824 C1825 1.366 . S
C1825 C1824 1.366 . S
C1825 C1826 1.414 . S
C1825 C1828 1.499 . S
C1826 H1806 0.950 . S
C1826 C1825 1.414 . S
C1826 C1827 1.374 . S
C1827 H1807 0.950 . S
C1827 C1823 1.385 . S
C1827 C1826 1.374 . S
C1828 C1825 1.499 . S
C1828 C1829 1.373 . S
C1828 C1830 1.389 . S
C1829 H1808 0.950 . S
C1829 C1828 1.373 . S
C1829 C1845 1.377 . S
C1830 C1828 1.389 . S
C1830 C1831 1.524 . S
C1830 C1844 1.377 . S
C1831 C1830 1.524 . S
C1831 C1832 1.397 . S
C1831 C1836 1.363 . S
C1832 H1809 0.950 . S
C1832 C1831 1.397 . S
C1832 C1833 1.334 . S
C1833 H1810 0.950 . S
C1833 C1832 1.334 . S
C1833 C1834 1.287 . S
C1834 C1833 1.287 . S
C1834 C1835 1.524 . S
C1834 H1853 0.913 . S
C1835 H1811 0.950 . S
C1835 C1834 1.524 . S
C1835 C1836 1.415 . S
C1836 H1812 0.950 . S
C1836 C1831 1.363 . S
C1836 C1835 1.415 . S
C1837 H1813 0.951 . S
C1837 C1838 1.366 . S
C1837 C1839 1.388 . S
C1838 C1837 1.366 . S
C1838 C1842 1.385 . S
C1839 H1814 0.951 . S
C1839 C1837 1.388 . S
C1839 C1840 1.366 . S
C1840 C1839 1.366 . S
C1840 C1841 1.414 . S
C1840 C1843 1.499 . S
C1841 H1815 0.950 . S
C1841 C1840 1.414 . S
C1841 C1842 1.374 . S
C1842 H1816 0.950 . S
C1842 C1838 1.385 . S
C1842 C1841 1.374 . S
C1843 C1840 1.499 . S
C1843 C1844 1.373 . S
C1843 C1845 1.389 . S
C1844 H1817 0.950 . S
C1844 C1830 1.377 . S
C1844 C1843 1.373 . S
C1845 C1829 1.377 . S
C1845 C1843 1.389 . S
C1845 C1846 1.524 . S
C1846 C1845 1.524 . S
C1846 C1847 1.397 . S
C1846 C1851 1.363 . S
C1847 H1818 0.950 . S
C1847 C1846 1.397 . S
C1847 C1848 1.334 . S
C1848 H1819 0.950 . S
C1848 C1847 1.334 . S
C1848 C1849 1.287 . S
C1849 C1848 1.287 . S
C1849 C1850 1.524 . S
C1849 H1852 0.999 . S
C1850 H1820 0.950 . S
C1850 C1849 1.524 . S
C1850 C1851 1.415 . S
C1851 H1821 0.950 . S
C1851 C1846 1.363 . S
C1851 C1850 1.415 . S
H1852 C1849 0.999 . S
H1853 C1834 0.913 . S
H1854 C1872 0.951 . S
H1855 C1874 0.951 . S
H1856 C1876 0.950 . S
H1857 C1877 0.950 . S
H1858 C1879 0.950 . S
H1859 C1882 0.950 . S
H1860 C1883 0.950 . S
H1861 C1885 0.950 . S
H1862 C1886 0.950 . S
H1863 C1887 0.951 . S
H1864 C1889 0.951 . S
H1865 C1891 0.950 . S
H1866 C1892 0.950 . S
H1867 C1894 0.950 . S
H1868 C1897 0.950 . S
H1869 C1898 0.950 . S
H1870 C1900 0.950 . S
H1871 C1901 0.950 . S
C1872 H1854 0.951 . S
C1872 C1873 1.366 1_554 S
C1872 C1874 1.388 . S
C1873 C1872 1.366 1_556 S
C1873 C1877 1.385 . S
C1874 H1855 0.951 . S
C1874 C1872 1.388 . S
C1874 C1875 1.366 1_554 S
C1875 C1874 1.366 1_556 S
C1875 C1876 1.414 . S
C1875 C1878 1.499 . S
C1876 H1856 0.950 . S
C1876 C1875 1.414 . S
C1876 C1877 1.374 . S
C1877 H1857 0.950 . S
C1877 C1873 1.385 . S
C1877 C1876 1.374 . S
C1878 C1875 1.499 . S
C1878 C1879 1.373 . S
C1878 C1880 1.389 1_556 S
C1879 H1858 0.950 . S
C1879 C1878 1.373 . S
C1879 C1895 1.377 . S
C1880 C1878 1.389 1_554 S
C1880 C1881 1.524 . S
C1880 C1894 1.377 . S
C1881 C1880 1.524 . S
C1881 C1882 1.397 . S
C1881 C1886 1.363 . S
C1882 H1859 0.950 . S
C1882 C1881 1.397 . S
C1882 C1883 1.334 . S
C1883 H1860 0.950 . S
C1883 C1882 1.334 . S
C1883 C1884 1.287 . S
C1884 C1883 1.287 . S
C1884 C1885 1.524 . S
C1884 H1903 0.913 . S
C1885 H1861 0.950 . S
C1885 C1884 1.524 . S
C1885 C1886 1.415 . S
C1886 H1862 0.950 . S
C1886 C1881 1.363 . S
C1886 C1885 1.415 . S
C1887 H1863 0.951 . S
C1887 C1888 1.366 . S
C1887 C1889 1.388 . S
C1888 C1887 1.366 . S
C1888 C1892 1.385 1_556 S
C1889 H1864 0.951 . S
C1889 C1887 1.388 . S
C1889 C1890 1.366 . S
C1890 C1889 1.366 . S
C1890 C1891 1.414 1_556 S
C1890 C1893 1.499 . S
C1891 H1865 0.950 . S
C1891 C1890 1.414 1_554 S
C1891 C1892 1.374 . S
C1892 H1866 0.950 . S
C1892 C1888 1.385 1_554 S
C1892 C1891 1.374 . S
C1893 C1890 1.499 . S
C1893 C1894 1.373 1_556 S
C1893 C1895 1.389 . S
C1894 H1867 0.950 . S
C1894 C1880 1.377 . S
C1894 C1893 1.373 1_554 S
C1895 C1879 1.377 . S
C1895 C1893 1.389 . S
C1895 C1896 1.524 . S
C1896 C1895 1.524 . S
C1896 C1897 1.397 . S
C1896 C1901 1.363 . S
C1897 H1868 0.950 . S
C1897 C1896 1.397 . S
C1897 C1898 1.334 . S
C1898 H1869 0.950 . S
C1898 C1897 1.334 . S
C1898 C1899 1.287 . S
C1899 C1898 1.287 . S
C1899 C1900 1.524 . S
C1899 H1902 0.999 . S
C1900 H1870 0.950 . S
C1900 C1899 1.524 . S
C1900 C1901 1.415 . S
C1901 H1871 0.950 . S
C1901 C1896 1.363 . S
C1901 C1900 1.415 . S
H1902 C1899 0.999 . S
H1903 C1884 0.913 . S
H1904 C1922 0.951 . S
H1905 C1924 0.951 . S
H1906 C1926 0.950 . S
H1907 C1927 0.950 . S
H1908 C1929 0.950 . S
H1909 C1932 0.950 . S
H1910 C1933 0.950 . S
H1911 C1935 0.950 . S
H1912 C1936 0.950 . S
H1913 C1937 0.951 . S
H1914 C1939 0.951 . S
H1915 C1941 0.950 . S
H1916 C1942 0.950 . S
H1917 C1944 0.950 . S
H1918 C1947 0.950 . S
H1919 C1948 0.950 . S
H1920 C1950 0.950 . S
H1921 C1951 0.950 . S
C1922 H1904 0.951 . S
C1922 C1923 1.366 . S
C1922 C1924 1.388 . S
C1923 C1922 1.366 . S
C1923 C1927 1.385 1_556 S
C1924 H1905 0.951 . S
C1924 C1922 1.388 . S
C1924 C1925 1.366 . S
C1925 C1924 1.366 . S
C1925 C1926 1.414 1_556 S
C1925 C1928 1.499 . S
C1926 H1906 0.950 . S
C1926 C1925 1.414 1_554 S
C1926 C1927 1.374 . S
C1927 H1907 0.950 . S
C1927 C1923 1.385 1_554 S
C1927 C1926 1.374 . S
C1928 C1925 1.499 . S
C1928 C1929 1.373 1_556 S
C1928 C1930 1.389 . S
C1929 H1908 0.950 . S
C1929 C1928 1.373 1_554 S
C1929 C1945 1.377 . S
C1930 C1928 1.389 . S
C1930 C1931 1.524 . S
C1930 C1944 1.377 . S
C1931 C1930 1.524 . S
C1931 C1932 1.397 . S
C1931 C1936 1.363 . S
C1932 H1909 0.950 . S
C1932 C1931 1.397 . S
C1932 C1933 1.334 . S
C1933 H1910 0.950 . S
C1933 C1932 1.334 . S
C1933 C1934 1.287 . S
C1934 C1933 1.287 . S
C1934 C1935 1.524 . S
C1934 H1953 0.913 . S
C1935 H1911 0.950 . S
C1935 C1934 1.524 . S
C1935 C1936 1.415 . S
C1936 H1912 0.950 . S
C1936 C1931 1.363 . S
C1936 C1935 1.415 . S
C1937 H1913 0.951 . S
C1937 C1938 1.366 1_554 S
C1937 C1939 1.388 . S
C1938 C1937 1.366 1_556 S
C1938 C1942 1.385 . S
C1939 H1914 0.951 . S
C1939 C1937 1.388 . S
C1939 C1940 1.366 1_554 S
C1940 C1939 1.366 1_556 S
C1940 C1941 1.414 . S
C1940 C1943 1.499 . S
C1941 H1915 0.950 . S
C1941 C1940 1.414 . S
C1941 C1942 1.374 . S
C1942 H1916 0.950 . S
C1942 C1938 1.385 . S
C1942 C1941 1.374 . S
C1943 C1940 1.499 . S
C1943 C1944 1.373 . S
C1943 C1945 1.389 1_556 S
C1944 H1917 0.950 . S
C1944 C1930 1.377 . S
C1944 C1943 1.373 . S
C1945 C1929 1.377 . S
C1945 C1943 1.389 1_554 S
C1945 C1946 1.524 . S
C1946 C1945 1.524 . S
C1946 C1947 1.397 . S
C1946 C1951 1.363 . S
C1947 H1918 0.950 . S
C1947 C1946 1.397 . S
C1947 C1948 1.334 . S
C1948 H1919 0.950 . S
C1948 C1947 1.334 . S
C1948 C1949 1.287 . S
C1949 C1948 1.287 . S
C1949 C1950 1.524 . S
C1949 H1952 0.999 . S
C1950 H1920 0.950 . S
C1950 C1949 1.524 . S
C1950 C1951 1.415 . S
C1951 H1921 0.950 . S
C1951 C1946 1.363 . S
C1951 C1950 1.415 . S
H1952 C1949 0.999 . S
H1953 C1934 0.913 . S
H1954 C1972 0.951 . S
H1955 C1974 0.951 . S
H1956 C1976 0.950 . S
H1957 C1977 0.950 . S
H1958 C1979 0.950 . S
H1959 C1982 0.950 1_556 S
H1960 C1983 0.950 . S
H1961 C1985 0.950 . S
H1962 C1986 0.950 . S
H1963 C1987 0.951 . S
H1964 C1989 0.951 . S
H1965 C1991 0.950 . S
H1966 C1992 0.950 . S
H1967 C1994 0.950 . S
H1968 C1997 0.950 . S
H1969 C1998 0.950 . S
H1970 C2000 0.950 . S
H1971 C2001 0.950 . S
C1972 H1954 0.951 . S
C1972 C1973 1.366 1_554 S
C1972 C1974 1.388 . S
C1973 C1972 1.366 1_556 S
C1973 C1977 1.385 . S
C1974 H1955 0.951 . S
C1974 C1972 1.388 . S
C1974 C1975 1.366 1_554 S
C1975 C1974 1.366 1_556 S
C1975 C1976 1.414 . S
C1975 C1978 1.499 . S
C1976 H1956 0.950 . S
C1976 C1975 1.414 . S
C1976 C1977 1.374 . S
C1977 H1957 0.950 . S
C1977 C1973 1.385 . S
C1977 C1976 1.374 . S
C1978 C1975 1.499 . S
C1978 C1979 1.373 . S
C1978 C1980 1.389 1_556 S
C1979 H1958 0.950 . S
C1979 C1978 1.373 . S
C1979 C1995 1.377 . S
C1980 C1978 1.389 1_554 S
C1980 C1981 1.524 . S
C1980 C1994 1.377 . S
C1981 C1980 1.524 . S
C1981 C1982 1.397 . S
C1981 C1986 1.363 . S
C1982 H1959 0.950 1_554 S
C1982 C1981 1.397 . S
C1982 C1983 1.334 . S
C1983 H1960 0.950 . S
C1983 C1982 1.334 . S
C1983 C1984 1.287 . S
C1984 C1983 1.287 . S
C1984 C1985 1.524 . S
C1984 H2003 0.913 . S
C1985 H1961 0.950 . S
C1985 C1984 1.524 . S
C1985 C1986 1.415 . S
C1986 H1962 0.950 . S
C1986 C1981 1.363 . S
C1986 C1985 1.415 . S
C1987 H1963 0.951 . S
C1987 C1988 1.366 . S
C1987 C1989 1.388 . S
C1988 C1987 1.366 . S
C1988 C1992 1.385 1_556 S
C1989 H1964 0.951 . S
C1989 C1987 1.388 . S
C1989 C1990 1.366 . S
C1990 C1989 1.366 . S
C1990 C1991 1.414 1_556 S
C1990 C1993 1.499 . S
C1991 H1965 0.950 . S
C1991 C1990 1.414 1_554 S
C1991 C1992 1.374 . S
C1992 H1966 0.950 . S
C1992 C1988 1.385 1_554 S
C1992 C1991 1.374 . S
C1993 C1990 1.499 . S
C1993 C1994 1.373 1_556 S
C1993 C1995 1.389 . S
C1994 H1967 0.950 . S
C1994 C1980 1.377 . S
C1994 C1993 1.373 1_554 S
C1995 C1979 1.377 . S
C1995 C1993 1.389 . S
C1995 C1996 1.524 . S
C1996 C1995 1.524 . S
C1996 C1997 1.397 . S
C1996 C2001 1.363 . S
C1997 H1968 0.950 . S
C1997 C1996 1.397 . S
C1997 C1998 1.334 . S
C1998 H1969 0.950 . S
C1998 C1997 1.334 . S
C1998 C1999 1.287 . S
C1999 C1998 1.287 . S
C1999 C2000 1.524 . S
C1999 H2002 0.999 . S
C2000 H1970 0.950 . S
C2000 C1999 1.524 . S
C2000 C2001 1.415 . S
C2001 H1971 0.950 . S
C2001 C1996 1.363 . S
C2001 C2000 1.415 . S
H2002 C1999 0.999 . S
H2003 C1984 0.913 . S
H2004 C2022 0.951 . S
H2005 C2024 0.951 . S
H2006 C2026 0.950 . S
H2007 C2027 0.950 . S
H2008 C2029 0.950 . S
H2009 C2032 0.950 . S
H2010 C2033 0.950 . S
H2011 C2035 0.950 . S
H2012 C2036 0.950 . S
H2013 C2037 0.951 . S
H2014 C2039 0.951 . S
H2015 C2041 0.950 . S
H2016 C2042 0.950 . S
H2017 C2044 0.950 . S
H2018 C2047 0.950 . S
H2019 C2048 0.950 . S
H2020 C2050 0.950 . S
H2021 C2051 0.950 . S
C2022 H2004 0.951 . S
C2022 C2023 1.366 . S
C2022 C2024 1.388 . S
C2023 C2022 1.366 . S
C2023 C2027 1.385 . S
C2024 H2005 0.951 . S
C2024 C2022 1.388 . S
C2024 C2025 1.366 . S
C2025 C2024 1.366 . S
C2025 C2026 1.414 . S
C2025 C2028 1.499 . S
C2026 H2006 0.950 . S
C2026 C2025 1.414 . S
C2026 C2027 1.374 . S
C2027 H2007 0.950 . S
C2027 C2023 1.385 . S
C2027 C2026 1.374 . S
C2028 C2025 1.499 . S
C2028 C2029 1.373 . S
C2028 C2030 1.389 . S
C2029 H2008 0.950 . S
C2029 C2028 1.373 . S
C2029 C2045 1.377 . S
C2030 C2028 1.389 . S
C2030 C2031 1.524 . S
C2030 C2044 1.377 . S
C2031 C2030 1.524 . S
C2031 C2032 1.397 . S
C2031 C2036 1.363 . S
C2032 H2009 0.950 . S
C2032 C2031 1.397 . S
C2032 C2033 1.334 . S
C2033 H2010 0.950 . S
C2033 C2032 1.334 . S
C2033 C2034 1.287 . S
C2034 C2033 1.287 . S
C2034 C2035 1.524 . S
C2034 H2053 0.913 . S
C2035 H2011 0.950 . S
C2035 C2034 1.524 . S
C2035 C2036 1.415 . S
C2036 H2012 0.950 . S
C2036 C2031 1.363 . S
C2036 C2035 1.415 . S
C2037 H2013 0.951 . S
C2037 C2038 1.366 . S
C2037 C2039 1.388 . S
C2038 C2037 1.366 . S
C2038 C2042 1.385 . S
C2039 H2014 0.951 . S
C2039 C2037 1.388 . S
C2039 C2040 1.366 . S
C2040 C2039 1.366 . S
C2040 C2041 1.414 . S
C2040 C2043 1.499 . S
C2041 H2015 0.950 . S
C2041 C2040 1.414 . S
C2041 C2042 1.374 . S
C2042 H2016 0.950 . S
C2042 C2038 1.385 . S
C2042 C2041 1.374 . S
C2043 C2040 1.499 . S
C2043 C2044 1.373 . S
C2043 C2045 1.389 . S
C2044 H2017 0.950 . S
C2044 C2030 1.377 . S
C2044 C2043 1.373 . S
C2045 C2029 1.377 . S
C2045 C2043 1.389 . S
C2045 C2046 1.524 . S
C2046 C2045 1.524 . S
C2046 C2047 1.397 . S
C2046 C2051 1.363 . S
C2047 H2018 0.950 . S
C2047 C2046 1.397 . S
C2047 C2048 1.334 . S
C2048 H2019 0.950 . S
C2048 C2047 1.334 . S
C2048 C2049 1.287 . S
C2049 C2048 1.287 . S
C2049 C2050 1.524 . S
C2049 H2052 0.999 . S
C2050 H2020 0.950 . S
C2050 C2049 1.524 . S
C2050 C2051 1.415 . S
C2051 H2021 0.950 . S
C2051 C2046 1.363 . S
C2051 C2050 1.415 . S
H2052 C2049 0.999 . S
H2053 C2034 0.913 . S
H2054 C2072 0.951 . S
H2055 C2074 0.951 . S
H2056 C2076 0.950 . S
H2057 C2077 0.950 . S
H2058 C2079 0.950 . S
H2059 C2082 0.950 . S
H2060 C2083 0.950 . S
H2061 C2085 0.950 . S
H2062 C2086 0.950 . S
H2063 C2087 0.951 . S
H2064 C2089 0.951 . S
H2065 C2091 0.950 . S
H2066 C2092 0.950 . S
H2067 C2094 0.950 . S
H2068 C2097 0.950 . S
H2069 C2098 0.950 . S
H2070 C2100 0.950 . S
H2071 C2101 0.950 . S
C2072 H2054 0.951 . S
C2072 C2073 1.366 . S
C2072 C2074 1.388 . S
C2073 C2072 1.366 . S
C2073 C2077 1.385 . S
C2074 H2055 0.951 . S
C2074 C2072 1.388 . S
C2074 C2075 1.366 . S
C2075 C2074 1.366 . S
C2075 C2076 1.414 . S
C2075 C2078 1.499 . S
C2076 H2056 0.950 . S
C2076 C2075 1.414 . S
C2076 C2077 1.374 . S
C2077 H2057 0.950 . S
C2077 C2073 1.385 . S
C2077 C2076 1.374 . S
C2078 C2075 1.499 . S
C2078 C2079 1.373 . S
C2078 C2080 1.389 . S
C2079 H2058 0.950 . S
C2079 C2078 1.373 . S
C2079 C2095 1.377 . S
C2080 C2078 1.389 . S
C2080 C2081 1.524 . S
C2080 C2094 1.377 . S
C2081 C2080 1.524 . S
C2081 C2082 1.397 . S
C2081 C2086 1.363 . S
C2082 H2059 0.950 . S
C2082 C2081 1.397 . S
C2082 C2083 1.334 . S
C2083 H2060 0.950 . S
C2083 C2082 1.334 . S
C2083 C2084 1.287 . S
C2084 C2083 1.287 . S
C2084 C2085 1.524 . S
C2084 H2103 0.913 . S
C2085 H2061 0.950 . S
C2085 C2084 1.524 . S
C2085 C2086 1.415 . S
C2086 H2062 0.950 . S
C2086 C2081 1.363 . S
C2086 C2085 1.415 . S
C2087 H2063 0.951 . S
C2087 C2088 1.366 . S
C2087 C2089 1.388 . S
C2088 C2087 1.366 . S
C2088 C2092 1.385 . S
C2089 H2064 0.951 . S
C2089 C2087 1.388 . S
C2089 C2090 1.366 . S
C2090 C2089 1.366 . S
C2090 C2091 1.414 . S
C2090 C2093 1.499 . S
C2091 H2065 0.950 . S
C2091 C2090 1.414 . S
C2091 C2092 1.374 . S
C2092 H2066 0.950 . S
C2092 C2088 1.385 . S
C2092 C2091 1.374 . S
C2093 C2090 1.499 . S
C2093 C2094 1.373 . S
C2093 C2095 1.389 . S
C2094 H2067 0.950 . S
C2094 C2080 1.377 . S
C2094 C2093 1.373 . S
C2095 C2079 1.377 . S
C2095 C2093 1.389 . S
C2095 C2096 1.524 . S
C2096 C2095 1.524 . S
C2096 C2097 1.397 . S
C2096 C2101 1.363 . S
C2097 H2068 0.950 . S
C2097 C2096 1.397 . S
C2097 C2098 1.334 . S
C2098 H2069 0.950 . S
C2098 C2097 1.334 . S
C2098 C2099 1.287 . S
C2099 C2098 1.287 . S
C2099 C2100 1.524 . S
C2099 H2102 0.999 . S
C2100 H2070 0.950 . S
C2100 C2099 1.524 . S
C2100 C2101 1.415 . S
C2101 H2071 0.950 . S
C2101 C2096 1.363 . S
C2101 C2100 1.415 . S
H2102 C2099 0.999 . S
H2103 C2084 0.913 . S
H2104 C2122 0.951 . S
H2105 C2124 0.951 . S
H2106 C2126 0.950 . S
H2107 C2127 0.950 . S
H2108 C2129 0.950 . S
H2109 C2132 0.950 . S
H2110 C2133 0.950 . S
H2111 C2135 0.950 . S
H2112 C2136 0.950 . S
H2113 C2137 0.951 . S
H2114 C2139 0.951 . S
H2115 C2141 0.950 . S
H2116 C2142 0.950 . S
H2117 C2144 0.950 . S
H2118 C2147 0.950 . S
H2119 C2148 0.950 . S
H2120 C2150 0.950 . S
H2121 C2151 0.950 . S
C2122 H2104 0.951 . S
C2122 C2123 1.366 . S
C2122 C2124 1.388 . S
C2123 C2122 1.366 . S
C2123 C2127 1.385 . S
C2124 H2105 0.951 . S
C2124 C2122 1.388 . S
C2124 C2125 1.366 . S
C2125 C2124 1.366 . S
C2125 C2126 1.414 . S
C2125 C2128 1.499 . S
C2126 H2106 0.950 . S
C2126 C2125 1.414 . S
C2126 C2127 1.374 . S
C2127 H2107 0.950 . S
C2127 C2123 1.385 . S
C2127 C2126 1.374 . S
C2128 C2125 1.499 . S
C2128 C2129 1.373 . S
C2128 C2130 1.389 . S
C2129 H2108 0.950 . S
C2129 C2128 1.373 . S
C2129 C2145 1.377 . S
C2130 C2128 1.389 . S
C2130 C2131 1.524 . S
C2130 C2144 1.377 . S
C2131 C2130 1.524 . S
C2131 C2132 1.397 . S
C2131 C2136 1.363 . S
C2132 H2109 0.950 . S
C2132 C2131 1.397 . S
C2132 C2133 1.334 . S
C2133 H2110 0.950 . S
C2133 C2132 1.334 . S
C2133 C2134 1.287 . S
C2134 C2133 1.287 . S
C2134 C2135 1.524 . S
C2134 H2153 0.913 . S
C2135 H2111 0.950 . S
C2135 C2134 1.524 . S
C2135 C2136 1.415 . S
C2136 H2112 0.950 . S
C2136 C2131 1.363 . S
C2136 C2135 1.415 . S
C2137 H2113 0.951 . S
C2137 C2138 1.366 . S
C2137 C2139 1.388 . S
C2138 C2137 1.366 . S
C2138 C2142 1.385 . S
C2139 H2114 0.951 . S
C2139 C2137 1.388 . S
C2139 C2140 1.366 . S
C2140 C2139 1.366 . S
C2140 C2141 1.414 . S
C2140 C2143 1.499 . S
C2141 H2115 0.950 . S
C2141 C2140 1.414 . S
C2141 C2142 1.374 . S
C2142 H2116 0.950 . S
C2142 C2138 1.385 . S
C2142 C2141 1.374 . S
C2143 C2140 1.499 . S
C2143 C2144 1.373 . S
C2143 C2145 1.389 . S
C2144 H2117 0.950 . S
C2144 C2130 1.377 . S
C2144 C2143 1.373 . S
C2145 C2129 1.377 . S
C2145 C2143 1.389 . S
C2145 C2146 1.524 . S
C2146 C2145 1.524 . S
C2146 C2147 1.397 . S
C2146 C2151 1.363 . S
C2147 H2118 0.950 . S
C2147 C2146 1.397 . S
C2147 C2148 1.334 . S
C2148 H2119 0.950 . S
C2148 C2147 1.334 . S
C2148 C2149 1.287 . S
C2149 C2148 1.287 . S
C2149 C2150 1.524 . S
C2149 H2152 0.999 . S
C2150 H2120 0.950 . S
C2150 C2149 1.524 . S
C2150 C2151 1.415 . S
C2151 H2121 0.950 . S
C2151 C2146 1.363 . S
C2151 C2150 1.415 . S
H2152 C2149 0.999 . S
H2153 C2134 0.913 . S
H2154 C2172 0.951 . S
H2155 C2174 0.951 . S
H2156 C2176 0.950 . S
H2157 C2177 0.950 . S
H2158 C2179 0.950 . S
H2159 C2182 0.950 . S
H2160 C2183 0.950 . S
H2161 C2185 0.950 . S
H2162 C2186 0.950 . S
H2163 C2187 0.951 . S
H2164 C2189 0.951 . S
H2165 C2191 0.950 . S
H2166 C2192 0.950 . S
H2167 C2194 0.950 . S
H2168 C2197 0.950 . S
H2169 C2198 0.950 . S
H2170 C2200 0.950 . S
H2171 C2201 0.950 . S
C2172 H2154 0.951 . S
C2172 C2173 1.366 . S
C2172 C2174 1.388 . S
C2173 C2172 1.366 . S
C2173 C2177 1.385 . S
C2174 H2155 0.951 . S
C2174 C2172 1.388 . S
C2174 C2175 1.366 . S
C2175 C2174 1.366 . S
C2175 C2176 1.414 . S
C2175 C2178 1.499 . S
C2176 H2156 0.950 . S
C2176 C2175 1.414 . S
C2176 C2177 1.374 . S
C2177 H2157 0.950 . S
C2177 C2173 1.385 . S
C2177 C2176 1.374 . S
C2178 C2175 1.499 . S
C2178 C2179 1.373 . S
C2178 C2180 1.389 . S
C2179 H2158 0.950 . S
C2179 C2178 1.373 . S
C2179 C2195 1.377 . S
C2180 C2178 1.389 . S
C2180 C2181 1.524 . S
C2180 C2194 1.377 . S
C2181 C2180 1.524 . S
C2181 C2182 1.397 . S
C2181 C2186 1.363 . S
C2182 H2159 0.950 . S
C2182 C2181 1.397 . S
C2182 C2183 1.334 . S
C2183 H2160 0.950 . S
C2183 C2182 1.334 . S
C2183 C2184 1.287 . S
C2184 C2183 1.287 . S
C2184 C2185 1.524 . S
C2184 H2203 0.913 . S
C2185 H2161 0.950 . S
C2185 C2184 1.524 . S
C2185 C2186 1.415 . S
C2186 H2162 0.950 . S
C2186 C2181 1.363 . S
C2186 C2185 1.415 . S
C2187 H2163 0.951 . S
C2187 C2188 1.366 . S
C2187 C2189 1.388 . S
C2188 C2187 1.366 . S
C2188 C2192 1.385 . S
C2189 H2164 0.951 . S
C2189 C2187 1.388 . S
C2189 C2190 1.366 . S
C2190 C2189 1.366 . S
C2190 C2191 1.414 . S
C2190 C2193 1.499 . S
C2191 H2165 0.950 . S
C2191 C2190 1.414 . S
C2191 C2192 1.374 . S
C2192 H2166 0.950 . S
C2192 C2188 1.385 . S
C2192 C2191 1.374 . S
C2193 C2190 1.499 . S
C2193 C2194 1.373 . S
C2193 C2195 1.389 . S
C2194 H2167 0.950 . S
C2194 C2180 1.377 . S
C2194 C2193 1.373 . S
C2195 C2179 1.377 . S
C2195 C2193 1.389 . S
C2195 C2196 1.524 . S
C2196 C2195 1.524 . S
C2196 C2197 1.397 . S
C2196 C2201 1.363 . S
C2197 H2168 0.950 . S
C2197 C2196 1.397 . S
C2197 C2198 1.334 . S
C2198 H2169 0.950 . S
C2198 C2197 1.334 . S
C2198 C2199 1.287 . S
C2199 C2198 1.287 . S
C2199 C2200 1.524 . S
C2199 H2202 0.999 . S
C2200 H2170 0.950 . S
C2200 C2199 1.524 . S
C2200 C2201 1.415 . S
C2201 H2171 0.950 . S
C2201 C2196 1.363 . S
C2201 C2200 1.415 . S
H2202 C2199 0.999 . S
H2203 C2184 0.913 . S
H2204 C2222 0.951 . S
H2205 C2224 0.951 . S
H2206 C2226 0.950 . S
H2207 C2227 0.950 . S
H2208 C2229 0.950 . S
H2209 C2232 0.950 . S
H2210 C2233 0.950 . S
H2211 C2235 0.950 . S
H2212 C2236 0.950 . S
H2213 C2237 0.951 . S
H2214 C2239 0.951 . S
H2215 C2241 0.950 . S
H2216 C2242 0.950 . S
H2217 C2244 0.950 . S
H2218 C2247 0.950 . S
H2219 C2248 0.950 . S
H2220 C2250 0.950 . S
H2221 C2251 0.950 . S
C2222 H2204 0.951 . S
C2222 C2223 1.366 . S
C2222 C2224 1.388 . S
C2223 C2222 1.366 . S
C2223 C2227 1.385 . S
C2224 H2205 0.951 . S
C2224 C2222 1.388 . S
C2224 C2225 1.366 . S
C2225 C2224 1.366 . S
C2225 C2226 1.414 . S
C2225 C2228 1.499 . S
C2226 H2206 0.950 . S
C2226 C2225 1.414 . S
C2226 C2227 1.374 . S
C2227 H2207 0.950 . S
C2227 C2223 1.385 . S
C2227 C2226 1.374 . S
C2228 C2225 1.499 . S
C2228 C2229 1.373 . S
C2228 C2230 1.389 . S
C2229 H2208 0.950 . S
C2229 C2228 1.373 . S
C2229 C2245 1.377 . S
C2230 C2228 1.389 . S
C2230 C2231 1.524 . S
C2230 C2244 1.377 . S
C2231 C2230 1.524 . S
C2231 C2232 1.397 . S
C2231 C2236 1.363 . S
C2232 H2209 0.950 . S
C2232 C2231 1.397 . S
C2232 C2233 1.334 . S
C2233 H2210 0.950 . S
C2233 C2232 1.334 . S
C2233 C2234 1.287 . S
C2234 C2233 1.287 . S
C2234 C2235 1.524 . S
C2234 H2253 0.913 . S
C2235 H2211 0.950 . S
C2235 C2234 1.524 . S
C2235 C2236 1.415 . S
C2236 H2212 0.950 . S
C2236 C2231 1.363 . S
C2236 C2235 1.415 . S
C2237 H2213 0.951 . S
C2237 C2238 1.366 . S
C2237 C2239 1.388 . S
C2238 C2237 1.366 . S
C2238 C2242 1.385 . S
C2239 H2214 0.951 . S
C2239 C2237 1.388 . S
C2239 C2240 1.366 . S
C2240 C2239 1.366 . S
C2240 C2241 1.414 . S
C2240 C2243 1.499 . S
C2241 H2215 0.950 . S
C2241 C2240 1.414 . S
C2241 C2242 1.374 . S
C2242 H2216 0.950 . S
C2242 C2238 1.385 . S
C2242 C2241 1.374 . S
C2243 C2240 1.499 . S
C2243 C2244 1.373 . S
C2243 C2245 1.389 . S
C2244 H2217 0.950 . S
C2244 C2230 1.377 . S
C2244 C2243 1.373 . S
C2245 C2229 1.377 . S
C2245 C2243 1.389 . S
C2245 C2246 1.524 . S
C2246 C2245 1.524 . S
C2246 C2247 1.397 . S
C2246 C2251 1.363 . S
C2247 H2218 0.950 . S
C2247 C2246 1.397 . S
C2247 C2248 1.334 . S
C2248 H2219 0.950 . S
C2248 C2247 1.334 . S
C2248 C2249 1.287 . S
C2249 C2248 1.287 . S
C2249 C2250 1.524 . S
C2249 H2252 0.999 . S
C2250 H2220 0.950 . S
C2250 C2249 1.524 . S
C2250 C2251 1.415 . S
C2251 H2221 0.950 . S
C2251 C2246 1.363 . S
C2251 C2250 1.415 . S
H2252 C2249 0.999 . S
H2253 C2234 0.913 . S
H2254 C2272 0.951 . S
H2255 C2274 0.951 . S
H2256 C2276 0.950 . S
H2257 C2277 0.950 . S
H2258 C2279 0.950 . S
H2259 C2282 0.950 . S
H2260 C2283 0.950 . S
H2261 C2285 0.950 . S
H2262 C2286 0.950 . S
H2263 C2287 0.951 . S
H2264 C2289 0.951 . S
H2265 C2291 0.950 . S
H2266 C2292 0.950 . S
H2267 C2294 0.950 . S
H2268 C2297 0.950 . S
H2269 C2298 0.950 . S
H2270 C2300 0.950 . S
H2271 C2301 0.950 . S
C2272 H2254 0.951 . S
C2272 C2273 1.366 . S
C2272 C2274 1.388 . S
C2273 C2272 1.366 . S
C2273 C2277 1.385 . S
C2274 H2255 0.951 . S
C2274 C2272 1.388 . S
C2274 C2275 1.366 . S
C2275 C2274 1.366 . S
C2275 C2276 1.414 . S
C2275 C2278 1.499 . S
C2276 H2256 0.950 . S
C2276 C2275 1.414 . S
C2276 C2277 1.374 . S
C2277 H2257 0.950 . S
C2277 C2273 1.385 . S
C2277 C2276 1.374 . S
C2278 C2275 1.499 . S
C2278 C2279 1.373 . S
C2278 C2280 1.389 . S
C2279 H2258 0.950 . S
C2279 C2278 1.373 . S
C2279 C2295 1.377 . S
C2280 C2278 1.389 . S
C2280 C2281 1.524 . S
C2280 C2294 1.377 . S
C2281 C2280 1.524 . S
C2281 C2282 1.397 . S
C2281 C2286 1.363 . S
C2282 H2259 0.950 . S
C2282 C2281 1.397 . S
C2282 C2283 1.334 . S
C2283 H2260 0.950 . S
C2283 C2282 1.334 . S
C2283 C2284 1.287 . S
C2284 C2283 1.287 . S
C2284 C2285 1.524 . S
C2284 H2303 0.913 . S
C2285 H2261 0.950 . S
C2285 C2284 1.524 . S
C2285 C2286 1.415 . S
C2286 H2262 0.950 . S
C2286 C2281 1.363 . S
C2286 C2285 1.415 . S
C2287 H2263 0.951 . S
C2287 C2288 1.366 . S
C2287 C2289 1.388 . S
C2288 C2287 1.366 . S
C2288 C2292 1.385 . S
C2289 H2264 0.951 . S
C2289 C2287 1.388 . S
C2289 C2290 1.366 . S
C2290 C2289 1.366 . S
C2290 C2291 1.414 . S
C2290 C2293 1.499 . S
C2291 H2265 0.950 . S
C2291 C2290 1.414 . S
C2291 C2292 1.374 . S
C2292 H2266 0.950 . S
C2292 C2288 1.385 . S
C2292 C2291 1.374 . S
C2293 C2290 1.499 . S
C2293 C2294 1.373 . S
C2293 C2295 1.389 . S
C2294 H2267 0.950 . S
C2294 C2280 1.377 . S
C2294 C2293 1.373 . S
C2295 C2279 1.377 . S
C2295 C2293 1.389 . S
C2295 C2296 1.524 . S
C2296 C2295 1.524 . S
C2296 C2297 1.397 . S
C2296 C2301 1.363 . S
C2297 H2268 0.950 . S
C2297 C2296 1.397 . S
C2297 C2298 1.334 . S
C2298 H2269 0.950 . S
C2298 C2297 1.334 . S
C2298 C2299 1.287 . S
C2299 C2298 1.287 . S
C2299 C2300 1.524 . S
C2299 H2302 0.999 . S
C2300 H2270 0.950 . S
C2300 C2299 1.524 . S
C2300 C2301 1.415 . S
C2301 H2271 0.950 . S
C2301 C2296 1.363 . S
C2301 C2300 1.415 . S
H2302 C2299 0.999 . S
H2303 C2284 0.913 . S
H2304 C2322 0.951 . S
H2305 C2324 0.951 . S
H2306 C2326 0.950 . S
H2307 C2327 0.950 . S
H2308 C2329 0.950 . S
H2309 C2332 0.950 . S
H2310 C2333 0.950 . S
H2311 C2335 0.950 . S
H2312 C2336 0.950 . S
H2313 C2337 0.951 . S
H2314 C2339 0.951 . S
H2315 C2341 0.950 . S
H2316 C2342 0.950 . S
H2317 C2344 0.950 . S
H2318 C2347 0.950 . S
H2319 C2348 0.950 . S
H2320 C2350 0.950 . S
H2321 C2351 0.950 . S
C2322 H2304 0.951 . S
C2322 C2323 1.366 . S
C2322 C2324 1.388 . S
C2323 C2322 1.366 . S
C2323 C2327 1.385 . S
C2324 H2305 0.951 . S
C2324 C2322 1.388 . S
C2324 C2325 1.366 . S
C2325 C2324 1.366 . S
C2325 C2326 1.414 . S
C2325 C2328 1.499 . S
C2326 H2306 0.950 . S
C2326 C2325 1.414 . S
C2326 C2327 1.374 . S
C2327 H2307 0.950 . S
C2327 C2323 1.385 . S
C2327 C2326 1.374 . S
C2328 C2325 1.499 . S
C2328 C2329 1.373 . S
C2328 C2330 1.389 . S
C2329 H2308 0.950 . S
C2329 C2328 1.373 . S
C2329 C2345 1.377 . S
C2330 C2328 1.389 . S
C2330 C2331 1.524 . S
C2330 C2344 1.377 . S
C2331 C2330 1.524 . S
C2331 C2332 1.397 . S
C2331 C2336 1.363 . S
C2332 H2309 0.950 . S
C2332 C2331 1.397 . S
C2332 C2333 1.334 . S
C2333 H2310 0.950 . S
C2333 C2332 1.334 . S
C2333 C2334 1.287 . S
C2334 C2333 1.287 . S
C2334 C2335 1.524 . S
C2334 H2353 0.913 . S
C2335 H2311 0.950 . S
C2335 C2334 1.524 . S
C2335 C2336 1.415 . S
C2336 H2312 0.950 . S
C2336 C2331 1.363 . S
C2336 C2335 1.415 . S
C2337 H2313 0.951 . S
C2337 C2338 1.366 . S
C2337 C2339 1.388 . S
C2338 C2337 1.366 . S
C2338 C2342 1.385 . S
C2339 H2314 0.951 . S
C2339 C2337 1.388 . S
C2339 C2340 1.366 . S
C2340 C2339 1.366 . S
C2340 C2341 1.414 . S
C2340 C2343 1.499 . S
C2341 H2315 0.950 . S
C2341 C2340 1.414 . S
C2341 C2342 1.374 . S
C2342 H2316 0.950 . S
C2342 C2338 1.385 . S
C2342 C2341 1.374 . S
C2343 C2340 1.499 . S
C2343 C2344 1.373 . S
C2343 C2345 1.389 . S
C2344 H2317 0.950 . S
C2344 C2330 1.377 . S
C2344 C2343 1.373 . S
C2345 C2329 1.377 . S
C2345 C2343 1.389 . S
C2345 C2346 1.524 . S
C2346 C2345 1.524 . S
C2346 C2347 1.397 . S
C2346 C2351 1.363 . S
C2347 H2318 0.950 . S
C2347 C2346 1.397 . S
C2347 C2348 1.334 . S
C2348 H2319 0.950 . S
C2348 C2347 1.334 . S
C2348 C2349 1.287 . S
C2349 C2348 1.287 . S
C2349 C2350 1.524 . S
C2349 H2352 0.999 . S
C2350 H2320 0.950 . S
C2350 C2349 1.524 . S
C2350 C2351 1.415 . S
C2351 H2321 0.950 . S
C2351 C2346 1.363 . S
C2351 C2350 1.415 . S
H2352 C2349 0.999 . S
H2353 C2334 0.913 . S
H2354 C2372 0.951 . S
H2355 C2374 0.951 . S
H2356 C2376 0.950 . S
H2357 C2377 0.950 . S
H2358 C2379 0.950 . S
H2359 C2382 0.950 . S
H2360 C2383 0.949 1_545 S
H2361 C2385 0.950 . S
H2362 C2386 0.950 . S
H2363 C2387 0.951 . S
H2364 C2389 0.951 . S
H2365 C2391 0.950 . S
H2366 C2392 0.950 . S
H2367 C2394 0.950 . S
H2368 C2397 0.950 . S
H2369 C2398 0.929 1_565 S
H2370 C2400 0.950 . S
H2371 C2401 0.950 . S
C2372 H2354 0.951 . S
C2372 C2373 1.366 1_565 S
C2372 C2374 1.388 . S
C2373 C2372 1.366 1_545 S
C2373 C2377 1.385 . S
C2374 H2355 0.951 . S
C2374 C2372 1.388 . S
C2374 C2375 1.366 1_565 S
C2375 C2374 1.366 1_545 S
C2375 C2376 1.414 . S
C2375 C2378 1.499 . S
C2376 H2356 0.950 . S
C2376 C2375 1.414 . S
C2376 C2377 1.374 . S
C2377 H2357 0.950 . S
C2377 C2373 1.385 . S
C2377 C2376 1.374 . S
C2378 C2375 1.499 . S
C2378 C2379 1.373 . S
C2378 C2380 1.389 1_545 S
C2379 H2358 0.950 . S
C2379 C2378 1.373 . S
C2379 C2395 1.377 . S
C2380 C2378 1.389 1_565 S
C2380 C2381 1.524 . S
C2380 C2394 1.377 . S
C2381 C2380 1.524 . S
C2381 C2382 1.397 1_565 S
C2381 C2386 1.363 . S
C2382 H2359 0.950 . S
C2382 C2381 1.397 1_545 S
C2382 C2383 1.335 1_545 S
C2383 H2360 0.949 1_565 S
C2383 C2382 1.335 1_565 S
C2383 C2384 1.288 . S
C2384 C2383 1.288 . S
C2384 C2385 1.524 . S
C2384 H2403 0.913 . S
C2385 H2361 0.950 . S
C2385 C2384 1.524 . S
C2385 C2386 1.415 . S
C2386 H2362 0.950 . S
C2386 C2381 1.363 . S
C2386 C2385 1.415 . S
C2387 H2363 0.951 . S
C2387 C2388 1.366 1_545 S
C2387 C2389 1.388 . S
C2388 C2387 1.366 1_565 S
C2388 C2392 1.385 . S
C2389 H2364 0.951 . S
C2389 C2387 1.388 . S
C2389 C2390 1.366 1_545 S
C2390 C2389 1.366 1_565 S
C2390 C2391 1.414 . S
C2390 C2393 1.499 . S
C2391 H2365 0.950 . S
C2391 C2390 1.414 . S
C2391 C2392 1.374 . S
C2392 H2366 0.950 . S
C2392 C2388 1.385 . S
C2392 C2391 1.374 . S
C2393 C2390 1.499 . S
C2393 C2394 1.373 . S
C2393 C2395 1.389 1_565 S
C2394 H2367 0.950 . S
C2394 C2380 1.377 . S
C2394 C2393 1.373 . S
C2395 C2379 1.377 . S
C2395 C2393 1.389 1_545 S
C2395 C2396 1.524 . S
C2396 C2395 1.524 . S
C2396 C2397 1.397 1_545 S
C2396 C2401 1.363 . S
C2397 H2368 0.950 . S
C2397 C2396 1.397 1_565 S
C2397 C2398 1.342 1_565 S
C2398 H2369 0.929 1_545 S
C2398 C2397 1.342 1_545 S
C2398 C2399 1.301 . S
C2399 C2398 1.301 . S
C2399 C2400 1.524 . S
C2399 H2402 0.999 . S
C2400 H2370 0.950 . S
C2400 C2399 1.524 . S
C2400 C2401 1.415 . S
C2401 H2371 0.950 . S
C2401 C2396 1.363 . S
C2401 C2400 1.415 . S
H2402 C2399 0.999 . S
H2403 C2384 0.913 . S
H2404 C2422 0.951 . S
H2405 C2424 0.951 . S
H2406 C2426 0.950 . S
H2407 C2427 0.950 . S
H2408 C2429 0.950 . S
H2409 C2432 0.950 . S
H2410 C2433 0.950 . S
H2411 C2435 0.950 . S
H2412 C2436 0.950 . S
H2413 C2437 0.951 . S
H2414 C2439 0.951 . S
H2415 C2441 0.950 . S
H2416 C2442 0.950 . S
H2417 C2444 0.950 . S
H2418 C2447 0.950 . S
H2419 C2448 0.950 . S
H2420 C2450 0.950 . S
H2421 C2451 0.950 . S
C2422 H2404 0.951 . S
C2422 C2423 1.366 . S
C2422 C2424 1.388 . S
C2423 C2422 1.366 . S
C2423 C2427 1.385 1_455 S
C2424 H2405 0.951 . S
C2424 C2422 1.388 . S
C2424 C2425 1.366 . S
C2425 C2424 1.366 . S
C2425 C2426 1.414 1_455 S
C2425 C2428 1.499 . S
C2426 H2406 0.950 . S
C2426 C2425 1.414 1_655 S
C2426 C2427 1.374 . S
C2427 H2407 0.950 . S
C2427 C2423 1.385 1_655 S
C2427 C2426 1.374 . S
C2428 C2425 1.499 . S
C2428 C2429 1.373 1_455 S
C2428 C2430 1.389 . S
C2429 H2408 0.950 . S
C2429 C2428 1.373 1_655 S
C2429 C2445 1.377 . S
C2430 C2428 1.389 . S
C2430 C2431 1.524 . S
C2430 C2444 1.377 . S
C2431 C2430 1.524 . S
C2431 C2432 1.397 . S
C2431 C2436 1.363 . S
C2432 H2409 0.950 . S
C2432 C2431 1.397 . S
C2432 C2433 1.334 . S
C2433 H2410 0.950 . S
C2433 C2432 1.334 . S
C2433 C2434 1.287 . S
C2434 C2433 1.287 . S
C2434 C2435 1.524 . S
C2434 H2453 0.913 . S
C2435 H2411 0.950 . S
C2435 C2434 1.524 . S
C2435 C2436 1.415 . S
C2436 H2412 0.950 . S
C2436 C2431 1.363 . S
C2436 C2435 1.415 . S
C2437 H2413 0.951 . S
C2437 C2438 1.366 . S
C2437 C2439 1.388 . S
C2438 C2437 1.366 . S
C2438 C2442 1.385 1_655 S
C2439 H2414 0.951 . S
C2439 C2437 1.388 . S
C2439 C2440 1.366 . S
C2440 C2439 1.366 . S
C2440 C2441 1.414 1_655 S
C2440 C2443 1.502 . S
C2441 H2415 0.950 . S
C2441 C2440 1.414 1_455 S
C2441 C2442 1.374 . S
C2442 H2416 0.950 . S
C2442 C2438 1.385 1_455 S
C2442 C2441 1.374 . S
C2443 C2440 1.502 . S
C2443 C2444 1.355 1_655 S
C2443 C2445 1.408 . S
C2444 H2417 0.950 . S
C2444 C2430 1.377 . S
C2444 C2443 1.355 1_455 S
C2445 C2429 1.377 . S
C2445 C2443 1.408 . S
C2445 C2446 1.524 . S
C2446 C2445 1.524 . S
C2446 C2447 1.397 . S
C2446 C2451 1.363 . S
C2447 H2418 0.950 . S
C2447 C2446 1.397 . S
C2447 C2448 1.334 . S
C2448 H2419 0.950 . S
C2448 C2447 1.334 . S
C2448 C2449 1.287 . S
C2449 C2448 1.287 . S
C2449 C2450 1.524 . S
C2449 H2452 0.999 . S
C2450 H2420 0.950 . S
C2450 C2449 1.524 . S
C2450 C2451 1.415 . S
C2451 H2421 0.950 . S
C2451 C2446 1.363 . S
C2451 C2450 1.415 . S
H2452 C2449 0.999 . S
H2453 C2434 0.913 . S
H2454 C2472 0.951 . S
H2455 C2474 0.951 . S
H2456 C2476 0.950 . S
H2457 C2477 0.950 . S
H2458 C2479 0.950 . S
H2459 C2482 0.950 . S
H2460 C2483 0.950 . S
H2461 C2485 0.950 . S
H2462 C2486 0.950 . S
H2463 C2487 0.951 . S
H2464 C2489 0.951 . S
H2465 C2491 0.950 . S
H2466 C2492 0.950 . S
H2467 C2494 0.950 . S
H2468 C2497 0.950 . S
H2469 C2498 0.950 . S
H2470 C2500 0.950 . S
H2471 C2501 0.950 . S
C2472 H2454 0.951 . S
C2472 C2473 1.366 . S
C2472 C2474 1.388 . S
C2473 C2472 1.366 . S
C2473 C2477 1.385 . S
C2474 H2455 0.951 . S
C2474 C2472 1.388 . S
C2474 C2475 1.366 . S
C2475 C2474 1.366 . S
C2475 C2476 1.414 . S
C2475 C2478 1.499 . S
C2476 H2456 0.950 . S
C2476 C2475 1.414 . S
C2476 C2477 1.374 . S
C2477 H2457 0.950 . S
C2477 C2473 1.385 . S
C2477 C2476 1.374 . S
C2478 C2475 1.499 . S
C2478 C2479 1.373 . S
C2478 C2480 1.389 . S
C2479 H2458 0.950 . S
C2479 C2478 1.373 . S
C2479 C2495 1.377 . S
C2480 C2478 1.389 . S
C2480 C2481 1.524 . S
C2480 C2494 1.377 . S
C2481 C2480 1.524 . S
C2481 C2482 1.397 . S
C2481 C2486 1.363 . S
C2482 H2459 0.950 . S
C2482 C2481 1.397 . S
C2482 C2483 1.334 . S
C2483 H2460 0.950 . S
C2483 C2482 1.334 . S
C2483 C2484 1.287 . S
C2484 C2483 1.287 . S
C2484 C2485 1.524 . S
C2484 H2503 0.913 . S
C2485 H2461 0.950 . S
C2485 C2484 1.524 . S
C2485 C2486 1.415 . S
C2486 H2462 0.950 . S
C2486 C2481 1.363 . S
C2486 C2485 1.415 . S
C2487 H2463 0.951 . S
C2487 C2488 1.366 . S
C2487 C2489 1.388 . S
C2488 C2487 1.366 . S
C2488 C2492 1.385 . S
C2489 H2464 0.951 . S
C2489 C2487 1.388 . S
C2489 C2490 1.366 . S
C2490 C2489 1.366 . S
C2490 C2491 1.414 . S
C2490 C2493 1.499 . S
C2491 H2465 0.950 . S
C2491 C2490 1.414 . S
C2491 C2492 1.374 . S
C2492 H2466 0.950 . S
C2492 C2488 1.385 . S
C2492 C2491 1.374 . S
C2493 C2490 1.499 . S
C2493 C2494 1.373 . S
C2493 C2495 1.389 . S
C2494 H2467 0.950 . S
C2494 C2480 1.377 . S
C2494 C2493 1.373 . S
C2495 C2479 1.377 . S
C2495 C2493 1.389 . S
C2495 C2496 1.524 . S
C2496 C2495 1.524 . S
C2496 C2497 1.397 . S
C2496 C2501 1.363 . S
C2497 H2468 0.950 . S
C2497 C2496 1.397 . S
C2497 C2498 1.334 . S
C2498 H2469 0.950 . S
C2498 C2497 1.334 . S
C2498 C2499 1.287 . S
C2499 C2498 1.287 . S
C2499 C2500 1.524 . S
C2499 H2502 0.999 . S
C2500 H2470 0.950 . S
C2500 C2499 1.524 . S
C2500 C2501 1.415 . S
C2501 H2471 0.950 . S
C2501 C2496 1.363 . S
C2501 C2500 1.415 . S
H2502 C2499 0.999 . S
H2503 C2484 0.913 . S
H2504 C2522 0.951 . S
H2505 C2524 0.951 . S
H2506 C2526 0.950 . S
H2507 C2527 0.950 . S
H2508 C2529 0.950 . S
H2509 C2532 0.950 . S
H2510 C2533 0.950 . S
H2511 C2535 0.950 . S
H2512 C2536 0.950 . S
H2513 C2537 0.951 . S
H2514 C2539 0.951 . S
H2515 C2541 0.950 . S
H2516 C2542 0.950 . S
H2517 C2544 0.950 . S
H2518 C2547 0.950 . S
H2519 C2548 0.950 . S
H2520 C2550 0.950 . S
H2521 C2551 0.950 . S
C2522 H2504 0.951 . S
C2522 C2523 1.366 . S
C2522 C2524 1.388 . S
C2523 C2522 1.366 . S
C2523 C2527 1.385 1_565 S
C2524 H2505 0.951 . S
C2524 C2522 1.388 . S
C2524 C2525 1.366 . S
C2525 C2524 1.366 . S
C2525 C2526 1.414 1_565 S
C2525 C2528 1.497 1_565 S
C2526 H2506 0.950 . S
C2526 C2525 1.414 1_545 S
C2526 C2527 1.374 . S
C2527 H2507 0.950 . S
C2527 C2523 1.385 1_545 S
C2527 C2526 1.374 . S
C2528 C2525 1.497 1_545 S
C2528 C2529 1.386 . S
C2528 C2530 1.377 1_545 S
C2529 H2508 0.950 . S
C2529 C2528 1.386 . S
C2529 C2545 1.377 . S
C2530 C2528 1.377 1_565 S
C2530 C2531 1.524 . S
C2530 C2544 1.377 . S
C2531 C2530 1.524 . S
C2531 C2532 1.397 1_565 S
C2531 C2536 1.363 . S
C2532 H2509 0.950 . S
C2532 C2531 1.397 1_545 S
C2532 C2533 1.334 . S
C2533 H2510 0.950 . S
C2533 C2532 1.334 . S
C2533 C2534 1.287 1_545 S
C2534 C2533 1.287 1_565 S
C2534 C2535 1.524 . S
C2534 H2553 0.913 . S
C2535 H2511 0.950 . S
C2535 C2534 1.524 . S
C2535 C2536 1.415 . S
C2536 H2512 0.950 . S
C2536 C2531 1.363 . S
C2536 C2535 1.415 . S
C2537 H2513 0.951 . S
C2537 C2538 1.366 . S
C2537 C2539 1.388 . S
C2538 C2537 1.366 . S
C2538 C2542 1.385 1_545 S
C2539 H2514 0.951 . S
C2539 C2537 1.388 . S
C2539 C2540 1.366 . S
C2540 C2539 1.366 . S
C2540 C2541 1.414 1_545 S
C2540 C2543 1.499 1_545 S
C2541 H2515 0.950 . S
C2541 C2540 1.414 1_565 S
C2541 C2542 1.374 . S
C2542 H2516 0.950 . S
C2542 C2538 1.385 1_565 S
C2542 C2541 1.374 . S
C2543 C2540 1.499 1_565 S
C2543 C2544 1.372 . S
C2543 C2545 1.391 1_565 S
C2544 H2517 0.950 . S
C2544 C2530 1.377 . S
C2544 C2543 1.372 . S
C2545 C2529 1.377 . S
C2545 C2543 1.391 1_545 S
C2545 C2546 1.524 . S
C2546 C2545 1.524 . S
C2546 C2547 1.397 1_545 S
C2546 C2551 1.363 . S
C2547 H2518 0.950 . S
C2547 C2546 1.397 1_565 S
C2547 C2548 1.334 . S
C2548 H2519 0.950 . S
C2548 C2547 1.334 . S
C2548 C2549 1.287 1_565 S
C2549 C2548 1.287 1_545 S
C2549 C2550 1.524 . S
C2549 H2552 0.999 . S
C2550 H2520 0.950 . S
C2550 C2549 1.524 . S
C2550 C2551 1.415 . S
C2551 H2521 0.950 . S
C2551 C2546 1.363 . S
C2551 C2550 1.415 . S
H2552 C2549 0.999 . S
H2553 C2534 0.913 . S
H2554 C2572 0.951 . S
H2555 C2574 0.951 . S
H2556 C2576 0.950 . S
H2557 C2577 0.950 . S
H2558 C2579 0.950 . S
H2559 C2582 0.950 . S
H2560 C2583 0.950 . S
H2561 C2585 0.950 . S
H2562 C2586 0.950 . S
H2563 C2587 0.971 . S
H2564 C2589 0.951 . S
H2565 C2591 0.950 . S
H2566 C2592 0.950 . S
H2567 C2594 0.950 . S
H2568 C2597 0.950 . S
H2569 C2598 0.950 . S
H2570 C2600 0.950 . S
H2571 C2601 0.950 . S
C2572 H2554 0.951 . S
C2572 C2573 1.366 1_455 S
C2572 C2574 1.388 . S
C2573 C2572 1.366 1_655 S
C2573 C2577 1.385 . S
C2574 H2555 0.951 . S
C2574 C2572 1.388 . S
C2574 C2575 1.366 1_455 S
C2575 C2574 1.366 1_655 S
C2575 C2576 1.414 . S
C2575 C2578 1.499 . S
C2576 H2556 0.950 . S
C2576 C2575 1.414 . S
C2576 C2577 1.374 . S
C2577 H2557 0.950 . S
C2577 C2573 1.385 . S
C2577 C2576 1.374 . S
C2578 C2575 1.499 . S
C2578 C2579 1.373 1_655 S
C2578 C2580 1.389 . S
C2579 H2558 0.950 . S
C2579 C2578 1.373 1_455 S
C2579 C2595 1.377 . S
C2580 C2578 1.389 . S
C2580 C2581 1.524 . S
C2580 C2594 1.377 . S
C2581 C2580 1.524 . S
C2581 C2582 1.397 . S
C2581 C2586 1.363 . S
C2582 H2559 0.950 . S
C2582 C2581 1.397 . S
C2582 C2583 1.334 . S
C2583 H2560 0.950 . S
C2583 C2582 1.334 . S
C2583 C2584 1.287 . S
C2584 C2583 1.287 . S
C2584 C2585 1.524 . S
C2584 H2603 0.913 . S
C2585 H2561 0.950 . S
C2585 C2584 1.524 . S
C2585 C2586 1.415 . S
C2586 H2562 0.950 . S
C2586 C2581 1.363 . S
C2586 C2585 1.415 . S
C2587 H2563 0.971 . S
C2587 C2588 1.346 1_655 S
C2587 C2589 1.389 . S
C2588 C2587 1.346 1_455 S
C2588 C2592 1.385 . S
C2589 H2564 0.951 . S
C2589 C2587 1.389 . S
C2589 C2590 1.366 1_655 S
C2590 C2589 1.366 1_455 S
C2590 C2591 1.414 . S
C2590 C2593 1.499 . S
C2591 H2565 0.950 . S
C2591 C2590 1.414 . S
C2591 C2592 1.374 . S
C2592 H2566 0.950 . S
C2592 C2588 1.385 . S
C2592 C2591 1.374 . S
C2593 C2590 1.499 . S
C2593 C2594 1.373 1_455 S
C2593 C2595 1.389 . S
C2594 H2567 0.950 . S
C2594 C2580 1.377 . S
C2594 C2593 1.373 1_655 S
C2595 C2579 1.377 . S
C2595 C2593 1.389 . S
C2595 C2596 1.524 . S
C2596 C2595 1.524 . S
C2596 C2597 1.397 . S
C2596 C2601 1.363 . S
C2597 H2568 0.950 . S
C2597 C2596 1.397 . S
C2597 C2598 1.334 . S
C2598 H2569 0.950 . S
C2598 C2597 1.334 . S
C2598 C2599 1.287 . S
C2599 C2598 1.287 . S
C2599 C2600 1.524 . S
C2599 H2602 0.999 . S
C2600 H2570 0.950 . S
C2600 C2599 1.524 . S
C2600 C2601 1.415 . S
C2601 H2571 0.950 . S
C2601 C2596 1.363 . S
C2601 C2600 1.415 . S
H2602 C2599 0.999 . S
H2603 C2584 0.913 . S
H2604 C2622 0.951 . S
H2605 C2624 0.951 . S
H2606 C2626 0.950 . S
H2607 C2627 0.950 . S
H2608 C2629 0.950 . S
H2609 C2632 0.950 . S
H2610 C2633 0.950 . S
H2611 C2635 0.950 . S
H2612 C2636 0.950 . S
H2613 C2637 0.951 . S
H2614 C2639 0.951 . S
H2615 C2641 0.950 . S
H2616 C2642 0.950 . S
H2617 C2644 0.950 . S
H2618 C2647 0.950 . S
H2619 C2648 0.950 . S
H2620 C2650 0.950 . S
H2621 C2651 0.950 . S
C2622 H2604 0.951 . S
C2622 C2623 1.366 . S
C2622 C2624 1.388 . S
C2623 C2622 1.366 . S
C2623 C2627 1.385 . S
C2624 H2605 0.951 . S
C2624 C2622 1.388 . S
C2624 C2625 1.366 . S
C2625 C2624 1.366 . S
C2625 C2626 1.414 . S
C2625 C2628 1.499 . S
C2626 H2606 0.950 . S
C2626 C2625 1.414 . S
C2626 C2627 1.374 . S
C2627 H2607 0.950 . S
C2627 C2623 1.385 . S
C2627 C2626 1.374 . S
C2628 C2625 1.499 . S
C2628 C2629 1.373 . S
C2628 C2630 1.389 . S
C2629 H2608 0.950 . S
C2629 C2628 1.373 . S
C2629 C2645 1.377 . S
C2630 C2628 1.389 . S
C2630 C2631 1.524 . S
C2630 C2644 1.377 . S
C2631 C2630 1.524 . S
C2631 C2632 1.397 . S
C2631 C2636 1.363 . S
C2632 H2609 0.950 . S
C2632 C2631 1.397 . S
C2632 C2633 1.334 . S
C2633 H2610 0.950 . S
C2633 C2632 1.334 . S
C2633 C2634 1.287 . S
C2634 C2633 1.287 . S
C2634 C2635 1.524 . S
C2634 H2653 0.913 . S
C2635 H2611 0.950 . S
C2635 C2634 1.524 . S
C2635 C2636 1.415 . S
C2636 H2612 0.950 . S
C2636 C2631 1.363 . S
C2636 C2635 1.415 . S
C2637 H2613 0.951 . S
C2637 C2638 1.366 . S
C2637 C2639 1.388 . S
C2638 C2637 1.366 . S
C2638 C2642 1.385 . S
C2639 H2614 0.951 . S
C2639 C2637 1.388 . S
C2639 C2640 1.366 . S
C2640 C2639 1.366 . S
C2640 C2641 1.414 . S
C2640 C2643 1.499 . S
C2641 H2615 0.950 . S
C2641 C2640 1.414 . S
C2641 C2642 1.374 . S
C2642 H2616 0.950 . S
C2642 C2638 1.385 . S
C2642 C2641 1.374 . S
C2643 C2640 1.499 . S
C2643 C2644 1.373 . S
C2643 C2645 1.389 . S
C2644 H2617 0.950 . S
C2644 C2630 1.377 . S
C2644 C2643 1.373 . S
C2645 C2629 1.377 . S
C2645 C2643 1.389 . S
C2645 C2646 1.524 . S
C2646 C2645 1.524 . S
C2646 C2647 1.397 . S
C2646 C2651 1.363 . S
C2647 H2618 0.950 . S
C2647 C2646 1.397 . S
C2647 C2648 1.334 . S
C2648 H2619 0.950 . S
C2648 C2647 1.334 . S
C2648 C2649 1.287 . S
C2649 C2648 1.287 . S
C2649 C2650 1.524 . S
C2649 H2652 0.999 . S
C2650 H2620 0.950 . S
C2650 C2649 1.524 . S
C2650 C2651 1.415 . S
C2651 H2621 0.950 . S
C2651 C2646 1.363 . S
C2651 C2650 1.415 . S
H2652 C2649 0.999 . S
H2653 C2634 0.913 . S
H2654 C2672 0.951 . S
H2655 C2674 0.951 . S
H2656 C2676 0.950 . S
H2657 C2677 0.950 . S
H2658 C2679 0.950 . S
H2659 C2682 0.950 . S
H2660 C2683 0.950 . S
H2661 C2685 0.950 . S
H2662 C2686 0.950 . S
H2663 C2687 0.951 . S
H2664 C2689 0.951 . S
H2665 C2691 0.950 . S
H2666 C2692 0.950 . S
H2667 C2694 0.950 . S
H2668 C2697 0.950 . S
H2669 C2698 0.950 . S
H2670 C2700 0.950 . S
H2671 C2701 0.950 . S
C2672 H2654 0.951 . S
C2672 C2673 1.366 . S
C2672 C2674 1.388 . S
C2673 C2672 1.366 . S
C2673 C2677 1.385 . S
C2674 H2655 0.951 . S
C2674 C2672 1.388 . S
C2674 C2675 1.366 . S
C2675 C2674 1.366 . S
C2675 C2676 1.414 . S
C2675 C2678 1.499 . S
C2676 H2656 0.950 . S
C2676 C2675 1.414 . S
C2676 C2677 1.374 . S
C2677 H2657 0.950 . S
C2677 C2673 1.385 . S
C2677 C2676 1.374 . S
C2678 C2675 1.499 . S
C2678 C2679 1.373 . S
C2678 C2680 1.389 . S
C2679 H2658 0.950 . S
C2679 C2678 1.373 . S
C2679 C2695 1.377 . S
C2680 C2678 1.389 . S
C2680 C2681 1.524 . S
C2680 C2694 1.377 . S
C2681 C2680 1.524 . S
C2681 C2682 1.397 . S
C2681 C2686 1.363 . S
C2682 H2659 0.950 . S
C2682 C2681 1.397 . S
C2682 C2683 1.334 . S
C2683 H2660 0.950 . S
C2683 C2682 1.334 . S
C2683 C2684 1.287 . S
C2684 C2683 1.287 . S
C2684 C2685 1.524 . S
C2684 H2703 0.913 . S
C2685 H2661 0.950 . S
C2685 C2684 1.524 . S
C2685 C2686 1.415 . S
C2686 H2662 0.950 . S
C2686 C2681 1.363 . S
C2686 C2685 1.415 . S
C2687 H2663 0.951 . S
C2687 C2688 1.366 . S
C2687 C2689 1.388 . S
C2688 C2687 1.366 . S
C2688 C2692 1.385 . S
C2689 H2664 0.951 . S
C2689 C2687 1.388 . S
C2689 C2690 1.366 . S
C2690 C2689 1.366 . S
C2690 C2691 1.414 . S
C2690 C2693 1.499 . S
C2691 H2665 0.950 . S
C2691 C2690 1.414 . S
C2691 C2692 1.374 . S
C2692 H2666 0.950 . S
C2692 C2688 1.385 . S
C2692 C2691 1.374 . S
C2693 C2690 1.499 . S
C2693 C2694 1.373 . S
C2693 C2695 1.389 . S
C2694 H2667 0.950 . S
C2694 C2680 1.377 . S
C2694 C2693 1.373 . S
C2695 C2679 1.377 . S
C2695 C2693 1.389 . S
C2695 C2696 1.524 . S
C2696 C2695 1.524 . S
C2696 C2697 1.397 . S
C2696 C2701 1.363 . S
C2697 H2668 0.950 . S
C2697 C2696 1.397 . S
C2697 C2698 1.334 . S
C2698 H2669 0.950 . S
C2698 C2697 1.334 . S
C2698 C2699 1.287 . S
C2699 C2698 1.287 . S
C2699 C2700 1.524 . S
C2699 H2702 0.999 . S
C2700 H2670 0.950 . S
C2700 C2699 1.524 . S
C2700 C2701 1.415 . S
C2701 H2671 0.950 . S
C2701 C2696 1.363 . S
C2701 C2700 1.415 . S
H2702 C2699 0.999 . S
H2703 C2684 0.913 . S
H2704 C2722 0.951 . S
H2705 C2724 0.951 . S
H2706 C2726 0.950 . S
H2707 C2727 0.950 . S
H2708 C2729 0.950 . S
H2709 C2732 0.950 . S
H2710 C2733 0.950 . S
H2711 C2735 0.950 . S
H2712 C2736 0.950 . S
H2713 C2737 0.951 . S
H2714 C2739 0.951 . S
H2715 C2741 0.950 . S
H2716 C2742 0.950 . S
H2717 C2744 0.950 . S
H2718 C2747 0.950 . S
H2719 C2748 0.950 . S
H2720 C2750 0.950 . S
H2721 C2751 0.950 . S
C2722 H2704 0.951 . S
C2722 C2723 1.366 . S
C2722 C2724 1.388 . S
C2723 C2722 1.366 . S
C2723 C2727 1.385 . S
C2724 H2705 0.951 . S
C2724 C2722 1.388 . S
C2724 C2725 1.366 . S
C2725 C2724 1.366 . S
C2725 C2726 1.414 . S
C2725 C2728 1.499 . S
C2726 H2706 0.950 . S
C2726 C2725 1.414 . S
C2726 C2727 1.374 . S
C2727 H2707 0.950 . S
C2727 C2723 1.385 . S
C2727 C2726 1.374 . S
C2728 C2725 1.499 . S
C2728 C2729 1.373 . S
C2728 C2730 1.389 . S
C2729 H2708 0.950 . S
C2729 C2728 1.373 . S
C2729 C2745 1.377 . S
C2730 C2728 1.389 . S
C2730 C2731 1.524 . S
C2730 C2744 1.377 . S
C2731 C2730 1.524 . S
C2731 C2732 1.397 . S
C2731 C2736 1.363 . S
C2732 H2709 0.950 . S
C2732 C2731 1.397 . S
C2732 C2733 1.334 . S
C2733 H2710 0.950 . S
C2733 C2732 1.334 . S
C2733 C2734 1.287 . S
C2734 C2733 1.287 . S
C2734 C2735 1.524 . S
C2734 H2753 0.913 . S
C2735 H2711 0.950 . S
C2735 C2734 1.524 . S
C2735 C2736 1.415 . S
C2736 H2712 0.950 . S
C2736 C2731 1.363 . S
C2736 C2735 1.415 . S
C2737 H2713 0.951 . S
C2737 C2738 1.366 . S
C2737 C2739 1.388 . S
C2738 C2737 1.366 . S
C2738 C2742 1.385 . S
C2739 H2714 0.951 . S
C2739 C2737 1.388 . S
C2739 C2740 1.366 . S
C2740 C2739 1.366 . S
C2740 C2741 1.414 . S
C2740 C2743 1.499 . S
C2741 H2715 0.950 . S
C2741 C2740 1.414 . S
C2741 C2742 1.374 . S
C2742 H2716 0.950 . S
C2742 C2738 1.385 . S
C2742 C2741 1.374 . S
C2743 C2740 1.499 . S
C2743 C2744 1.373 . S
C2743 C2745 1.389 . S
C2744 H2717 0.950 . S
C2744 C2730 1.377 . S
C2744 C2743 1.373 . S
C2745 C2729 1.377 . S
C2745 C2743 1.389 . S
C2745 C2746 1.524 . S
C2746 C2745 1.524 . S
C2746 C2747 1.397 . S
C2746 C2751 1.363 . S
C2747 H2718 0.950 . S
C2747 C2746 1.397 . S
C2747 C2748 1.334 . S
C2748 H2719 0.950 . S
C2748 C2747 1.334 . S
C2748 C2749 1.287 . S
C2749 C2748 1.287 . S
C2749 C2750 1.524 . S
C2749 H2752 0.999 . S
C2750 H2720 0.950 . S
C2750 C2749 1.524 . S
C2750 C2751 1.415 . S
C2751 H2721 0.950 . S
C2751 C2746 1.363 . S
C2751 C2750 1.415 . S
H2752 C2749 0.999 . S
H2753 C2734 0.913 . S
H2754 C2772 0.951 . S
H2755 C2774 0.951 . S
H2756 C2776 0.950 . S
H2757 C2777 0.950 . S
H2758 C2779 0.950 . S
H2759 C2782 0.950 . S
H2760 C2783 0.950 . S
H2761 C2785 0.950 . S
H2762 C2786 0.950 . S
H2763 C2787 0.951 . S
H2764 C2789 0.951 . S
H2765 C2791 0.950 . S
H2766 C2792 0.950 . S
H2767 C2794 0.950 . S
H2768 C2797 0.950 . S
H2769 C2798 0.950 . S
H2770 C2800 0.950 . S
H2771 C2801 0.950 . S
C2772 H2754 0.951 . S
C2772 C2773 1.366 . S
C2772 C2774 1.388 . S
C2773 C2772 1.366 . S
C2773 C2777 1.385 . S
C2774 H2755 0.951 . S
C2774 C2772 1.388 . S
C2774 C2775 1.366 . S
C2775 C2774 1.366 . S
C2775 C2776 1.414 . S
C2775 C2778 1.499 . S
C2776 H2756 0.950 . S
C2776 C2775 1.414 . S
C2776 C2777 1.374 . S
C2777 H2757 0.950 . S
C2777 C2773 1.385 . S
C2777 C2776 1.374 . S
C2778 C2775 1.499 . S
C2778 C2779 1.373 . S
C2778 C2780 1.389 . S
C2779 H2758 0.950 . S
C2779 C2778 1.373 . S
C2779 C2795 1.377 . S
C2780 C2778 1.389 . S
C2780 C2781 1.524 . S
C2780 C2794 1.377 . S
C2781 C2780 1.524 . S
C2781 C2782 1.397 . S
C2781 C2786 1.363 . S
C2782 H2759 0.950 . S
C2782 C2781 1.397 . S
C2782 C2783 1.334 . S
C2783 H2760 0.950 . S
C2783 C2782 1.334 . S
C2783 C2784 1.287 . S
C2784 C2783 1.287 . S
C2784 C2785 1.524 . S
C2784 H2803 0.913 . S
C2785 H2761 0.950 . S
C2785 C2784 1.524 . S
C2785 C2786 1.415 . S
C2786 H2762 0.950 . S
C2786 C2781 1.363 . S
C2786 C2785 1.415 . S
C2787 H2763 0.951 . S
C2787 C2788 1.366 . S
C2787 C2789 1.388 . S
C2788 C2787 1.366 . S
C2788 C2792 1.385 . S
C2789 H2764 0.951 . S
C2789 C2787 1.388 . S
C2789 C2790 1.366 . S
C2790 C2789 1.366 . S
C2790 C2791 1.414 . S
C2790 C2793 1.499 . S
C2791 H2765 0.950 . S
C2791 C2790 1.414 . S
C2791 C2792 1.374 . S
C2792 H2766 0.950 . S
C2792 C2788 1.385 . S
C2792 C2791 1.374 . S
C2793 C2790 1.499 . S
C2793 C2794 1.373 . S
C2793 C2795 1.389 . S
C2794 H2767 0.950 . S
C2794 C2780 1.377 . S
C2794 C2793 1.373 . S
C2795 C2779 1.377 . S
C2795 C2793 1.389 . S
C2795 C2796 1.524 . S
C2796 C2795 1.524 . S
C2796 C2797 1.397 . S
C2796 C2801 1.363 . S
C2797 H2768 0.950 . S
C2797 C2796 1.397 . S
C2797 C2798 1.334 . S
C2798 H2769 0.950 . S
C2798 C2797 1.334 . S
C2798 C2799 1.287 . S
C2799 C2798 1.287 . S
C2799 C2800 1.524 . S
C2799 H2802 0.999 . S
C2800 H2770 0.950 . S
C2800 C2799 1.524 . S
C2800 C2801 1.415 . S
C2801 H2771 0.950 . S
C2801 C2796 1.363 . S
C2801 C2800 1.415 . S
H2802 C2799 0.999 . S
H2803 C2784 0.913 . S
H2804 C2822 0.951 . S
H2805 C2824 0.951 . S
H2806 C2826 0.950 . S
H2807 C2827 0.950 . S
H2808 C2829 0.950 . S
H2809 C2832 0.950 . S
H2810 C2833 0.950 . S
H2811 C2835 0.950 . S
H2812 C2836 0.950 . S
H2813 C2837 0.951 . S
H2814 C2839 0.951 . S
H2815 C2841 0.950 . S
H2816 C2842 0.950 . S
H2817 C2844 0.950 . S
H2818 C2847 0.950 . S
H2819 C2848 0.950 . S
H2820 C2850 0.950 . S
H2821 C2851 0.950 . S
C2822 H2804 0.951 . S
C2822 C2823 1.366 . S
C2822 C2824 1.388 . S
C2823 C2822 1.366 . S
C2823 C2827 1.385 . S
C2824 H2805 0.951 . S
C2824 C2822 1.388 . S
C2824 C2825 1.366 . S
C2825 C2824 1.366 . S
C2825 C2826 1.414 . S
C2825 C2828 1.499 . S
C2826 H2806 0.950 . S
C2826 C2825 1.414 . S
C2826 C2827 1.374 . S
C2827 H2807 0.950 . S
C2827 C2823 1.385 . S
C2827 C2826 1.374 . S
C2828 C2825 1.499 . S
C2828 C2829 1.373 . S
C2828 C2830 1.389 . S
C2829 H2808 0.950 . S
C2829 C2828 1.373 . S
C2829 C2845 1.377 . S
C2830 C2828 1.389 . S
C2830 C2831 1.524 . S
C2830 C2844 1.377 . S
C2831 C2830 1.524 . S
C2831 C2832 1.397 . S
C2831 C2836 1.363 . S
C2832 H2809 0.950 . S
C2832 C2831 1.397 . S
C2832 C2833 1.334 . S
C2833 H2810 0.950 . S
C2833 C2832 1.334 . S
C2833 C2834 1.287 . S
C2834 C2833 1.287 . S
C2834 C2835 1.524 . S
C2834 H2853 0.913 . S
C2835 H2811 0.950 . S
C2835 C2834 1.524 . S
C2835 C2836 1.415 . S
C2836 H2812 0.950 . S
C2836 C2831 1.363 . S
C2836 C2835 1.415 . S
C2837 H2813 0.951 . S
C2837 C2838 1.366 . S
C2837 C2839 1.388 . S
C2838 C2837 1.366 . S
C2838 C2842 1.385 . S
C2839 H2814 0.951 . S
C2839 C2837 1.388 . S
C2839 C2840 1.366 . S
C2840 C2839 1.366 . S
C2840 C2841 1.414 . S
C2840 C2843 1.499 . S
C2841 H2815 0.950 . S
C2841 C2840 1.414 . S
C2841 C2842 1.374 . S
C2842 H2816 0.950 . S
C2842 C2838 1.385 . S
C2842 C2841 1.374 . S
C2843 C2840 1.499 . S
C2843 C2844 1.373 . S
C2843 C2845 1.389 . S
C2844 H2817 0.950 . S
C2844 C2830 1.377 . S
C2844 C2843 1.373 . S
C2845 C2829 1.377 . S
C2845 C2843 1.389 . S
C2845 C2846 1.524 . S
C2846 C2845 1.524 . S
C2846 C2847 1.397 . S
C2846 C2851 1.363 . S
C2847 H2818 0.950 . S
C2847 C2846 1.397 . S
C2847 C2848 1.334 . S
C2848 H2819 0.950 . S
C2848 C2847 1.334 . S
C2848 C2849 1.287 . S
C2849 C2848 1.287 . S
C2849 C2850 1.524 . S
C2849 H2852 0.999 . S
C2850 H2820 0.950 . S
C2850 C2849 1.524 . S
C2850 C2851 1.415 . S
C2851 H2821 0.950 . S
C2851 C2846 1.363 . S
C2851 C2850 1.415 . S
H2852 C2849 0.999 . S
H2853 C2834 0.913 . S
H2854 C2872 0.951 . S
H2855 C2874 0.951 . S
H2856 C2876 0.950 . S
H2857 C2877 0.950 . S
H2858 C2879 0.950 . S
H2859 C2882 0.950 . S
H2860 C2883 0.950 . S
H2861 C2885 0.950 . S
H2862 C2886 0.950 . S
H2863 C2887 0.951 . S
H2864 C2889 0.951 . S
H2865 C2891 0.950 . S
H2866 C2892 0.950 . S
H2867 C2894 0.950 . S
H2868 C2897 0.950 . S
H2869 C2898 0.950 . S
H2870 C2900 0.950 . S
H2871 C2901 0.950 . S
C2872 H2854 0.951 . S
C2872 C2873 1.366 . S
C2872 C2874 1.388 . S
C2873 C2872 1.366 . S
C2873 C2877 1.385 . S
C2874 H2855 0.951 . S
C2874 C2872 1.388 . S
C2874 C2875 1.366 . S
C2875 C2874 1.366 . S
C2875 C2876 1.414 . S
C2875 C2878 1.499 . S
C2876 H2856 0.950 . S
C2876 C2875 1.414 . S
C2876 C2877 1.374 . S
C2877 H2857 0.950 . S
C2877 C2873 1.385 . S
C2877 C2876 1.374 . S
C2878 C2875 1.499 . S
C2878 C2879 1.373 . S
C2878 C2880 1.389 . S
C2879 H2858 0.950 . S
C2879 C2878 1.373 . S
C2879 C2895 1.377 . S
C2880 C2878 1.389 . S
C2880 C2881 1.524 . S
C2880 C2894 1.377 . S
C2881 C2880 1.524 . S
C2881 C2882 1.397 . S
C2881 C2886 1.363 . S
C2882 H2859 0.950 . S
C2882 C2881 1.397 . S
C2882 C2883 1.334 . S
C2883 H2860 0.950 . S
C2883 C2882 1.334 . S
C2883 C2884 1.287 . S
C2884 C2883 1.287 . S
C2884 C2885 1.524 . S
C2884 H2903 0.913 . S
C2885 H2861 0.950 . S
C2885 C2884 1.524 . S
C2885 C2886 1.415 . S
C2886 H2862 0.950 . S
C2886 C2881 1.363 . S
C2886 C2885 1.415 . S
C2887 H2863 0.951 . S
C2887 C2888 1.366 . S
C2887 C2889 1.388 . S
C2888 C2887 1.366 . S
C2888 C2892 1.385 . S
C2889 H2864 0.951 . S
C2889 C2887 1.388 . S
C2889 C2890 1.366 . S
C2890 C2889 1.366 . S
C2890 C2891 1.414 . S
C2890 C2893 1.499 . S
C2891 H2865 0.950 . S
C2891 C2890 1.414 . S
C2891 C2892 1.374 . S
C2892 H2866 0.950 . S
C2892 C2888 1.385 . S
C2892 C2891 1.374 . S
C2893 C2890 1.499 . S
C2893 C2894 1.373 . S
C2893 C2895 1.389 . S
C2894 H2867 0.950 . S
C2894 C2880 1.377 . S
C2894 C2893 1.373 . S
C2895 C2879 1.377 . S
C2895 C2893 1.389 . S
C2895 C2896 1.524 . S
C2896 C2895 1.524 . S
C2896 C2897 1.397 . S
C2896 C2901 1.363 . S
C2897 H2868 0.950 . S
C2897 C2896 1.397 . S
C2897 C2898 1.334 . S
C2898 H2869 0.950 . S
C2898 C2897 1.334 . S
C2898 C2899 1.287 . S
C2899 C2898 1.287 . S
C2899 C2900 1.524 . S
C2899 H2902 0.999 . S
C2900 H2870 0.950 . S
C2900 C2899 1.524 . S
C2900 C2901 1.415 . S
C2901 H2871 0.950 . S
C2901 C2896 1.363 . S
C2901 C2900 1.415 . S
H2902 C2899 0.999 . S
H2903 C2884 0.913 . S
H2904 C2922 0.951 . S
H2905 C2924 0.951 . S
H2906 C2926 0.950 . S
H2907 C2927 0.950 . S
H2908 C2929 0.950 . S
H2909 C2932 0.950 . S
H2910 C2933 0.950 . S
H2911 C2935 0.950 . S
H2912 C2936 0.950 . S
H2913 C2937 0.951 . S
H2914 C2939 0.951 . S
H2915 C2941 0.950 . S
H2916 C2942 0.950 . S
H2917 C2944 0.950 . S
H2918 C2947 0.950 . S
H2919 C2948 0.950 . S
H2920 C2950 0.950 . S
H2921 C2951 0.950 . S
C2922 H2904 0.951 . S
C2922 C2923 1.366 . S
C2922 C2924 1.388 . S
C2923 C2922 1.366 . S
C2923 C2927 1.385 . S
C2924 H2905 0.951 . S
C2924 C2922 1.388 . S
C2924 C2925 1.366 . S
C2925 C2924 1.366 . S
C2925 C2926 1.414 . S
C2925 C2928 1.499 . S
C2926 H2906 0.950 . S
C2926 C2925 1.414 . S
C2926 C2927 1.374 . S
C2927 H2907 0.950 . S
C2927 C2923 1.385 . S
C2927 C2926 1.374 . S
C2928 C2925 1.499 . S
C2928 C2929 1.373 . S
C2928 C2930 1.389 . S
C2929 H2908 0.950 . S
C2929 C2928 1.373 . S
C2929 C2945 1.377 . S
C2930 C2928 1.389 . S
C2930 C2931 1.524 . S
C2930 C2944 1.377 . S
C2931 C2930 1.524 . S
C2931 C2932 1.397 . S
C2931 C2936 1.363 . S
C2932 H2909 0.950 . S
C2932 C2931 1.397 . S
C2932 C2933 1.334 . S
C2933 H2910 0.950 . S
C2933 C2932 1.334 . S
C2933 C2934 1.287 . S
C2934 C2933 1.287 . S
C2934 C2935 1.524 . S
C2934 H2953 0.913 . S
C2935 H2911 0.950 . S
C2935 C2934 1.524 . S
C2935 C2936 1.415 . S
C2936 H2912 0.950 . S
C2936 C2931 1.363 . S
C2936 C2935 1.415 . S
C2937 H2913 0.951 . S
C2937 C2938 1.366 . S
C2937 C2939 1.388 . S
C2938 C2937 1.366 . S
C2938 C2942 1.385 . S
C2939 H2914 0.951 . S
C2939 C2937 1.388 . S
C2939 C2940 1.366 . S
C2940 C2939 1.366 . S
C2940 C2941 1.414 . S
C2940 C2943 1.499 . S
C2941 H2915 0.950 . S
C2941 C2940 1.414 . S
C2941 C2942 1.374 . S
C2942 H2916 0.950 . S
C2942 C2938 1.385 . S
C2942 C2941 1.374 . S
C2943 C2940 1.499 . S
C2943 C2944 1.373 . S
C2943 C2945 1.389 . S
C2944 H2917 0.950 . S
C2944 C2930 1.377 . S
C2944 C2943 1.373 . S
C2945 C2929 1.377 . S
C2945 C2943 1.389 . S
C2945 C2946 1.524 . S
C2946 C2945 1.524 . S
C2946 C2947 1.397 . S
C2946 C2951 1.363 . S
C2947 H2918 0.950 . S
C2947 C2946 1.397 . S
C2947 C2948 1.334 . S
C2948 H2919 0.950 . S
C2948 C2947 1.334 . S
C2948 C2949 1.287 . S
C2949 C2948 1.287 . S
C2949 C2950 1.524 . S
C2949 H2952 0.999 . S
C2950 H2920 0.950 . S
C2950 C2949 1.524 . S
C2950 C2951 1.415 . S
C2951 H2921 0.950 . S
C2951 C2946 1.363 . S
C2951 C2950 1.415 . S
H2952 C2949 0.999 . S
H2953 C2934 0.913 . S
H2954 C2972 0.951 . S
H2955 C2974 0.951 . S
H2956 C2976 0.950 . S
H2957 C2977 0.950 . S
H2958 C2979 0.950 . S
H2959 C2982 0.950 . S
H2960 C2983 0.950 . S
H2961 C2985 0.950 . S
H2962 C2986 0.950 . S
H2963 C2987 0.951 . S
H2964 C2989 0.951 . S
H2965 C2991 0.950 . S
H2966 C2992 0.950 . S
H2967 C2994 0.950 . S
H2968 C2997 0.950 . S
H2969 C2998 0.950 . S
H2970 C3000 0.950 . S
H2971 C3001 0.950 . S
C2972 H2954 0.951 . S
C2972 C2973 1.366 . S
C2972 C2974 1.388 . S
C2973 C2972 1.366 . S
C2973 C2977 1.385 . S
C2974 H2955 0.951 . S
C2974 C2972 1.388 . S
C2974 C2975 1.366 . S
C2975 C2974 1.366 . S
C2975 C2976 1.414 . S
C2975 C2978 1.499 . S
C2976 H2956 0.950 . S
C2976 C2975 1.414 . S
C2976 C2977 1.374 . S
C2977 H2957 0.950 . S
C2977 C2973 1.385 . S
C2977 C2976 1.374 . S
C2978 C2975 1.499 . S
C2978 C2979 1.373 . S
C2978 C2980 1.389 . S
C2979 H2958 0.950 . S
C2979 C2978 1.373 . S
C2979 C2995 1.377 . S
C2980 C2978 1.389 . S
C2980 C2981 1.524 . S
C2980 C2994 1.377 . S
C2981 C2980 1.524 . S
C2981 C2982 1.397 . S
C2981 C2986 1.363 . S
C2982 H2959 0.950 . S
C2982 C2981 1.397 . S
C2982 C2983 1.334 . S
C2983 H2960 0.950 . S
C2983 C2982 1.334 . S
C2983 C2984 1.287 . S
C2984 C2983 1.287 . S
C2984 C2985 1.524 . S
C2984 H3003 0.913 . S
C2985 H2961 0.950 . S
C2985 C2984 1.524 . S
C2985 C2986 1.415 . S
C2986 H2962 0.950 . S
C2986 C2981 1.363 . S
C2986 C2985 1.415 . S
C2987 H2963 0.951 . S
C2987 C2988 1.366 . S
C2987 C2989 1.388 . S
C2988 C2987 1.366 . S
C2988 C2992 1.385 . S
C2989 H2964 0.951 . S
C2989 C2987 1.388 . S
C2989 C2990 1.366 . S
C2990 C2989 1.366 . S
C2990 C2991 1.414 . S
C2990 C2993 1.499 . S
C2991 H2965 0.950 . S
C2991 C2990 1.414 . S
C2991 C2992 1.374 . S
C2992 H2966 0.950 . S
C2992 C2988 1.385 . S
C2992 C2991 1.374 . S
C2993 C2990 1.499 . S
C2993 C2994 1.373 . S
C2993 C2995 1.389 . S
C2994 H2967 0.950 . S
C2994 C2980 1.377 . S
C2994 C2993 1.373 . S
C2995 C2979 1.377 . S
C2995 C2993 1.389 . S
C2995 C2996 1.524 . S
C2996 C2995 1.524 . S
C2996 C2997 1.397 . S
C2996 C3001 1.363 . S
C2997 H2968 0.950 . S
C2997 C2996 1.397 . S
C2997 C2998 1.334 . S
C2998 H2969 0.950 . S
C2998 C2997 1.334 . S
C2998 C2999 1.287 . S
C2999 C2998 1.287 . S
C2999 C3000 1.524 . S
C2999 H3002 0.999 . S
C3000 H2970 0.950 . S
C3000 C2999 1.524 . S
C3000 C3001 1.415 . S
C3001 H2971 0.950 . S
C3001 C2996 1.363 . S
C3001 C3000 1.415 . S
H3002 C2999 0.999 . S
H3003 C2984 0.913 . S
H3004 C3022 0.951 . S
H3005 C3024 0.951 . S
H3006 C3026 0.950 . S
H3007 C3027 0.950 . S
H3008 C3029 0.950 . S
H3009 C3032 0.950 . S
H3010 C3033 0.950 . S
H3011 C3035 0.950 . S
H3012 C3036 0.950 . S
H3013 C3037 0.951 . S
H3014 C3039 0.951 . S
H3015 C3041 0.950 . S
H3016 C3042 0.950 . S
H3017 C3044 0.950 . S
H3018 C3047 0.950 . S
H3019 C3048 0.950 . S
H3020 C3050 0.950 . S
H3021 C3051 0.950 . S
C3022 H3004 0.951 . S
C3022 C3023 1.366 . S
C3022 C3024 1.388 . S
C3023 C3022 1.366 . S
C3023 C3027 1.385 . S
C3024 H3005 0.951 . S
C3024 C3022 1.388 . S
C3024 C3025 1.366 . S
C3025 C3024 1.366 . S
C3025 C3026 1.414 . S
C3025 C3028 1.499 . S
C3026 H3006 0.950 . S
C3026 C3025 1.414 . S
C3026 C3027 1.374 . S
C3027 H3007 0.950 . S
C3027 C3023 1.385 . S
C3027 C3026 1.374 . S
C3028 C3025 1.499 . S
C3028 C3029 1.373 . S
C3028 C3030 1.389 . S
C3029 H3008 0.950 . S
C3029 C3028 1.373 . S
C3029 C3045 1.377 . S
C3030 C3028 1.389 . S
C3030 C3031 1.524 . S
C3030 C3044 1.377 . S
C3031 C3030 1.524 . S
C3031 C3032 1.397 . S
C3031 C3036 1.363 . S
C3032 H3009 0.950 . S
C3032 C3031 1.397 . S
C3032 C3033 1.334 . S
C3033 H3010 0.950 . S
C3033 C3032 1.334 . S
C3033 C3034 1.287 . S
C3034 C3033 1.287 . S
C3034 C3035 1.524 . S
C3034 H3053 0.913 . S
C3035 H3011 0.950 . S
C3035 C3034 1.524 . S
C3035 C3036 1.415 . S
C3036 H3012 0.950 . S
C3036 C3031 1.363 . S
C3036 C3035 1.415 . S
C3037 H3013 0.951 . S
C3037 C3038 1.366 . S
C3037 C3039 1.388 . S
C3038 C3037 1.366 . S
C3038 C3042 1.385 . S
C3039 H3014 0.951 . S
C3039 C3037 1.388 . S
C3039 C3040 1.366 . S
C3040 C3039 1.366 . S
C3040 C3041 1.414 . S
C3040 C3043 1.499 . S
C3041 H3015 0.950 . S
C3041 C3040 1.414 . S
C3041 C3042 1.374 . S
C3042 H3016 0.950 . S
C3042 C3038 1.385 . S
C3042 C3041 1.374 . S
C3043 C3040 1.499 . S
C3043 C3044 1.373 . S
C3043 C3045 1.389 . S
C3044 H3017 0.950 . S
C3044 C3030 1.377 . S
C3044 C3043 1.373 . S
C3045 C3029 1.377 . S
C3045 C3043 1.389 . S
C3045 C3046 1.524 . S
C3046 C3045 1.524 . S
C3046 C3047 1.397 . S
C3046 C3051 1.363 . S
C3047 H3018 0.950 . S
C3047 C3046 1.397 . S
C3047 C3048 1.334 . S
C3048 H3019 0.950 . S
C3048 C3047 1.334 . S
C3048 C3049 1.287 . S
C3049 C3048 1.287 . S
C3049 C3050 1.524 . S
C3049 H3052 0.999 . S
C3050 H3020 0.950 . S
C3050 C3049 1.524 . S
C3050 C3051 1.415 . S
C3051 H3021 0.950 . S
C3051 C3046 1.363 . S
C3051 C3050 1.415 . S
H3052 C3049 0.999 . S
H3053 C3034 0.913 . S
H3054 C3072 0.951 . S
H3055 C3074 0.951 . S
H3056 C3076 0.950 . S
H3057 C3077 0.950 . S
H3058 C3079 0.950 . S
H3059 C3082 0.950 . S
H3060 C3083 0.950 . S
H3061 C3085 0.950 . S
H3062 C3086 0.950 . S
H3063 C3087 0.951 . S
H3064 C3089 0.951 . S
H3065 C3091 0.950 . S
H3066 C3092 0.950 . S
H3067 C3094 0.950 . S
H3068 C3097 0.950 . S
H3069 C3098 0.950 . S
H3070 C3100 0.950 . S
H3071 C3101 0.950 . S
C3072 H3054 0.951 . S
C3072 C3073 1.366 . S
C3072 C3074 1.388 . S
C3073 C3072 1.366 . S
C3073 C3077 1.385 . S
C3074 H3055 0.951 . S
C3074 C3072 1.388 . S
C3074 C3075 1.366 . S
C3075 C3074 1.366 . S
C3075 C3076 1.414 . S
C3075 C3078 1.499 . S
C3076 H3056 0.950 . S
C3076 C3075 1.414 . S
C3076 C3077 1.374 . S
C3077 H3057 0.950 . S
C3077 C3073 1.385 . S
C3077 C3076 1.374 . S
C3078 C3075 1.499 . S
C3078 C3079 1.373 . S
C3078 C3080 1.389 . S
C3079 H3058 0.950 . S
C3079 C3078 1.373 . S
C3079 C3095 1.377 . S
C3080 C3078 1.389 . S
C3080 C3081 1.524 . S
C3080 C3094 1.377 . S
C3081 C3080 1.524 . S
C3081 C3082 1.397 . S
C3081 C3086 1.363 . S
C3082 H3059 0.950 . S
C3082 C3081 1.397 . S
C3082 C3083 1.334 . S
C3083 H3060 0.950 . S
C3083 C3082 1.334 . S
C3083 C3084 1.287 . S
C3084 C3083 1.287 . S
C3084 C3085 1.524 . S
C3084 H3103 0.913 . S
C3085 H3061 0.950 . S
C3085 C3084 1.524 . S
C3085 C3086 1.415 . S
C3086 H3062 0.950 . S
C3086 C3081 1.363 . S
C3086 C3085 1.415 . S
C3087 H3063 0.951 . S
C3087 C3088 1.366 . S
C3087 C3089 1.388 . S
C3088 C3087 1.366 . S
C3088 C3092 1.385 . S
C3089 H3064 0.951 . S
C3089 C3087 1.388 . S
C3089 C3090 1.366 . S
C3090 C3089 1.366 . S
C3090 C3091 1.414 . S
C3090 C3093 1.499 . S
C3091 H3065 0.950 . S
C3091 C3090 1.414 . S
C3091 C3092 1.374 . S
C3092 H3066 0.950 . S
C3092 C3088 1.385 . S
C3092 C3091 1.374 . S
C3093 C3090 1.499 . S
C3093 C3094 1.373 . S
C3093 C3095 1.389 . S
C3094 H3067 0.950 . S
C3094 C3080 1.377 . S
C3094 C3093 1.373 . S
C3095 C3079 1.377 . S
C3095 C3093 1.389 . S
C3095 C3096 1.524 . S
C3096 C3095 1.524 . S
C3096 C3097 1.397 . S
C3096 C3101 1.363 . S
C3097 H3068 0.950 . S
C3097 C3096 1.397 . S
C3097 C3098 1.334 . S
C3098 H3069 0.950 . S
C3098 C3097 1.334 . S
C3098 C3099 1.287 . S
C3099 C3098 1.287 . S
C3099 C3100 1.524 . S
C3099 H3102 0.999 . S
C3100 H3070 0.950 . S
C3100 C3099 1.524 . S
C3100 C3101 1.415 . S
C3101 H3071 0.950 . S
C3101 C3096 1.363 . S
C3101 C3100 1.415 . S
H3102 C3099 0.999 . S
H3103 C3084 0.913 . S
H3104 C3122 0.951 . S
H3105 C3124 0.951 . S
H3106 C3126 0.950 . S
H3107 C3127 0.950 . S
H3108 C3129 0.950 . S
H3109 C3132 0.950 . S
H3110 C3133 0.950 . S
H3111 C3135 0.950 . S
H3112 C3136 0.950 . S
H3113 C3137 0.951 . S
H3114 C3139 0.951 . S
H3115 C3141 0.950 . S
H3116 C3142 0.950 . S
H3117 C3144 0.950 . S
H3118 C3147 0.950 . S
H3119 C3148 0.950 . S
H3120 C3150 0.950 . S
H3121 C3151 0.950 . S
C3122 H3104 0.951 . S
C3122 C3123 1.366 . S
C3122 C3124 1.388 . S
C3123 C3122 1.366 . S
C3123 C3127 1.385 . S
C3124 H3105 0.951 . S
C3124 C3122 1.388 . S
C3124 C3125 1.366 . S
C3125 C3124 1.366 . S
C3125 C3126 1.414 . S
C3125 C3128 1.499 . S
C3126 H3106 0.950 . S
C3126 C3125 1.414 . S
C3126 C3127 1.374 . S
C3127 H3107 0.950 . S
C3127 C3123 1.385 . S
C3127 C3126 1.374 . S
C3128 C3125 1.499 . S
C3128 C3129 1.373 . S
C3128 C3130 1.389 . S
C3129 H3108 0.950 . S
C3129 C3128 1.373 . S
C3129 C3145 1.377 . S
C3130 C3128 1.389 . S
C3130 C3131 1.524 . S
C3130 C3144 1.377 . S
C3131 C3130 1.524 . S
C3131 C3132 1.397 . S
C3131 C3136 1.363 . S
C3132 H3109 0.950 . S
C3132 C3131 1.397 . S
C3132 C3133 1.334 . S
C3133 H3110 0.950 . S
C3133 C3132 1.334 . S
C3133 C3134 1.287 . S
C3134 C3133 1.287 . S
C3134 C3135 1.524 . S
C3134 H3153 0.913 . S
C3135 H3111 0.950 . S
C3135 C3134 1.524 . S
C3135 C3136 1.415 . S
C3136 H3112 0.950 . S
C3136 C3131 1.363 . S
C3136 C3135 1.415 . S
C3137 H3113 0.951 . S
C3137 C3138 1.366 . S
C3137 C3139 1.388 . S
C3138 C3137 1.366 . S
C3138 C3142 1.385 . S
C3139 H3114 0.951 . S
C3139 C3137 1.388 . S
C3139 C3140 1.366 . S
C3140 C3139 1.366 . S
C3140 C3141 1.414 . S
C3140 C3143 1.499 . S
C3141 H3115 0.950 . S
C3141 C3140 1.414 . S
C3141 C3142 1.374 . S
C3142 H3116 0.950 . S
C3142 C3138 1.385 . S
C3142 C3141 1.374 . S
C3143 C3140 1.499 . S
C3143 C3144 1.373 . S
C3143 C3145 1.389 . S
C3144 H3117 0.950 . S
C3144 C3130 1.377 . S
C3144 C3143 1.373 . S
C3145 C3129 1.377 . S
C3145 C3143 1.389 . S
C3145 C3146 1.524 . S
C3146 C3145 1.524 . S
C3146 C3147 1.397 . S
C3146 C3151 1.363 . S
C3147 H3118 0.950 . S
C3147 C3146 1.397 . S
C3147 C3148 1.334 . S
C3148 H3119 0.950 . S
C3148 C3147 1.334 . S
C3148 C3149 1.287 . S
C3149 C3148 1.287 . S
C3149 C3150 1.524 . S
C3149 H3152 0.999 . S
C3150 H3120 0.950 . S
C3150 C3149 1.524 . S
C3150 C3151 1.415 . S
C3151 H3121 0.950 . S
C3151 C3146 1.363 . S
C3151 C3150 1.415 . S
H3152 C3149 0.999 . S
H3153 C3134 0.913 . S
H3154 C3172 0.951 . S
H3155 C3174 0.951 . S
H3156 C3176 0.950 . S
H3157 C3177 0.950 . S
H3158 C3179 0.950 . S
H3159 C3182 0.950 . S
H3160 C3183 0.950 . S
H3161 C3185 0.950 . S
H3162 C3186 0.950 . S
H3163 C3187 0.951 . S
H3164 C3189 0.951 . S
H3165 C3191 0.950 . S
H3166 C3192 0.950 . S
H3167 C3194 0.950 . S
H3168 C3197 0.950 . S
H3169 C3198 0.950 . S
H3170 C3200 0.950 . S
H3171 C3201 0.950 . S
C3172 H3154 0.951 . S
C3172 C3173 1.366 . S
C3172 C3174 1.388 . S
C3173 C3172 1.366 . S
C3173 C3177 1.385 . S
C3174 H3155 0.951 . S
C3174 C3172 1.388 . S
C3174 C3175 1.366 . S
C3175 C3174 1.366 . S
C3175 C3176 1.414 . S
C3175 C3178 1.499 . S
C3176 H3156 0.950 . S
C3176 C3175 1.414 . S
C3176 C3177 1.374 . S
C3177 H3157 0.950 . S
C3177 C3173 1.385 . S
C3177 C3176 1.374 . S
C3178 C3175 1.499 . S
C3178 C3179 1.373 . S
C3178 C3180 1.389 . S
C3179 H3158 0.950 . S
C3179 C3178 1.373 . S
C3179 C3195 1.377 . S
C3180 C3178 1.389 . S
C3180 C3181 1.524 . S
C3180 C3194 1.377 . S
C3181 C3180 1.524 . S
C3181 C3182 1.397 . S
C3181 C3186 1.363 . S
C3182 H3159 0.950 . S
C3182 C3181 1.397 . S
C3182 C3183 1.334 . S
C3183 H3160 0.950 . S
C3183 C3182 1.334 . S
C3183 C3184 1.287 . S
C3184 C3183 1.287 . S
C3184 C3185 1.524 . S
C3184 H3203 0.913 . S
C3185 H3161 0.950 . S
C3185 C3184 1.524 . S
C3185 C3186 1.415 . S
C3186 H3162 0.950 . S
C3186 C3181 1.363 . S
C3186 C3185 1.415 . S
C3187 H3163 0.951 . S
C3187 C3188 1.366 . S
C3187 C3189 1.388 . S
C3188 C3187 1.366 . S
C3188 C3192 1.385 . S
C3189 H3164 0.951 . S
C3189 C3187 1.388 . S
C3189 C3190 1.366 . S
C3190 C3189 1.366 . S
C3190 C3191 1.414 . S
C3190 C3193 1.499 . S
C3191 H3165 0.950 . S
C3191 C3190 1.414 . S
C3191 C3192 1.374 . S
C3192 H3166 0.950 . S
C3192 C3188 1.385 . S
C3192 C3191 1.374 . S
C3193 C3190 1.499 . S
C3193 C3194 1.373 . S
C3193 C3195 1.389 . S
C3194 H3167 0.950 . S
C3194 C3180 1.377 . S
C3194 C3193 1.373 . S
C3195 C3179 1.377 . S
C3195 C3193 1.389 . S
C3195 C3196 1.524 . S
C3196 C3195 1.524 . S
C3196 C3197 1.397 . S
C3196 C3201 1.363 . S
C3197 H3168 0.950 . S
C3197 C3196 1.397 . S
C3197 C3198 1.334 . S
C3198 H3169 0.950 . S
C3198 C3197 1.334 . S
C3198 C3199 1.287 . S
C3199 C3198 1.287 . S
C3199 C3200 1.524 . S
C3199 H3202 0.999 . S
C3200 H3170 0.950 . S
C3200 C3199 1.524 . S
C3200 C3201 1.415 . S
C3201 H3171 0.950 . S
C3201 C3196 1.363 . S
C3201 C3200 1.415 . S
H3202 C3199 0.999 . S
H3203 C3184 0.913 . S
H3204 C3222 0.951 . S
H3205 C3224 0.951 . S
H3206 C3226 0.950 . S
H3207 C3227 0.950 . S
H3208 C3229 0.950 . S
H3209 C3232 0.950 . S
H3210 C3233 0.950 . S
H3211 C3235 0.950 . S
H3212 C3236 0.950 . S
H3213 C3237 0.951 . S
H3214 C3239 0.951 . S
H3215 C3241 0.950 . S
H3216 C3242 0.950 . S
H3217 C3244 0.950 . S
H3218 C3247 0.950 . S
H3219 C3248 0.950 . S
H3220 C3250 0.950 . S
H3221 C3251 0.950 . S
C3222 H3204 0.951 . S
C3222 C3223 1.366 . S
C3222 C3224 1.388 . S
C3223 C3222 1.366 . S
C3223 C3227 1.385 . S
C3224 H3205 0.951 . S
C3224 C3222 1.388 . S
C3224 C3225 1.366 . S
C3225 C3224 1.366 . S
C3225 C3226 1.414 . S
C3225 C3228 1.499 . S
C3226 H3206 0.950 . S
C3226 C3225 1.414 . S
C3226 C3227 1.374 . S
C3227 H3207 0.950 . S
C3227 C3223 1.385 . S
C3227 C3226 1.374 . S
C3228 C3225 1.499 . S
C3228 C3229 1.373 . S
C3228 C3230 1.389 . S
C3229 H3208 0.950 . S
C3229 C3228 1.373 . S
C3229 C3245 1.377 . S
C3230 C3228 1.389 . S
C3230 C3231 1.524 . S
C3230 C3244 1.377 . S
C3231 C3230 1.524 . S
C3231 C3232 1.397 . S
C3231 C3236 1.363 . S
C3232 H3209 0.950 . S
C3232 C3231 1.397 . S
C3232 C3233 1.334 . S
C3233 H3210 0.950 . S
C3233 C3232 1.334 . S
C3233 C3234 1.287 . S
C3234 C3233 1.287 . S
C3234 C3235 1.524 . S
C3234 H3253 0.913 . S
C3235 H3211 0.950 . S
C3235 C3234 1.524 . S
C3235 C3236 1.415 . S
C3236 H3212 0.950 . S
C3236 C3231 1.363 . S
C3236 C3235 1.415 . S
C3237 H3213 0.951 . S
C3237 C3238 1.366 . S
C3237 C3239 1.388 . S
C3238 C3237 1.366 . S
C3238 C3242 1.385 . S
C3239 H3214 0.951 . S
C3239 C3237 1.388 . S
C3239 C3240 1.366 . S
C3240 C3239 1.366 . S
C3240 C3241 1.414 . S
C3240 C3243 1.499 . S
C3241 H3215 0.950 . S
C3241 C3240 1.414 . S
C3241 C3242 1.374 . S
C3242 H3216 0.950 . S
C3242 C3238 1.385 . S
C3242 C3241 1.374 . S
C3243 C3240 1.499 . S
C3243 C3244 1.373 . S
C3243 C3245 1.389 . S
C3244 H3217 0.950 . S
C3244 C3230 1.377 . S
C3244 C3243 1.373 . S
C3245 C3229 1.377 . S
C3245 C3243 1.389 . S
C3245 C3246 1.524 . S
C3246 C3245 1.524 . S
C3246 C3247 1.397 . S
C3246 C3251 1.363 . S
C3247 H3218 0.950 . S
C3247 C3246 1.397 . S
C3247 C3248 1.334 . S
C3248 H3219 0.950 . S
C3248 C3247 1.334 . S
C3248 C3249 1.287 . S
C3249 C3248 1.287 . S
C3249 C3250 1.524 . S
C3249 H3252 0.999 . S
C3250 H3220 0.950 . S
C3250 C3249 1.524 . S
C3250 C3251 1.415 . S
C3251 H3221 0.950 . S
C3251 C3246 1.363 . S
C3251 C3250 1.415 . S
H3252 C3249 0.999 . S
H3253 C3234 0.913 . S
H3254 C3272 0.951 . S
H3255 C3274 0.951 . S
H3256 C3276 0.950 . S
H3257 C3277 0.950 . S
H3258 C3279 0.950 . S
H3259 C3282 0.950 . S
H3260 C3283 0.950 . S
H3261 C3285 0.950 . S
H3262 C3286 0.950 . S
H3263 C3287 0.951 . S
H3264 C3289 0.951 . S
H3265 C3291 0.950 . S
H3266 C3292 0.950 . S
H3267 C3294 0.950 . S
H3268 C3297 0.950 . S
H3269 C3298 0.950 . S
H3270 C3300 0.950 . S
H3271 C3301 0.950 . S
C3272 H3254 0.951 . S
C3272 C3273 1.366 . S
C3272 C3274 1.388 . S
C3273 C3272 1.366 . S
C3273 C3277 1.385 . S
C3274 H3255 0.951 . S
C3274 C3272 1.388 . S
C3274 C3275 1.366 . S
C3275 C3274 1.366 . S
C3275 C3276 1.414 . S
C3275 C3278 1.499 . S
C3276 H3256 0.950 . S
C3276 C3275 1.414 . S
C3276 C3277 1.374 . S
C3277 H3257 0.950 . S
C3277 C3273 1.385 . S
C3277 C3276 1.374 . S
C3278 C3275 1.499 . S
C3278 C3279 1.373 . S
C3278 C3280 1.389 . S
C3279 H3258 0.950 . S
C3279 C3278 1.373 . S
C3279 C3295 1.377 . S
C3280 C3278 1.389 . S
C3280 C3281 1.524 . S
C3280 C3294 1.377 . S
C3281 C3280 1.524 . S
C3281 C3282 1.397 . S
C3281 C3286 1.363 . S
C3282 H3259 0.950 . S
C3282 C3281 1.397 . S
C3282 C3283 1.334 . S
C3283 H3260 0.950 . S
C3283 C3282 1.334 . S
C3283 C3284 1.287 . S
C3284 C3283 1.287 . S
C3284 C3285 1.524 . S
C3284 H3303 0.913 . S
C3285 H3261 0.950 . S
C3285 C3284 1.524 . S
C3285 C3286 1.415 . S
C3286 H3262 0.950 . S
C3286 C3281 1.363 . S
C3286 C3285 1.415 . S
C3287 H3263 0.951 . S
C3287 C3288 1.366 . S
C3287 C3289 1.388 . S
C3288 C3287 1.366 . S
C3288 C3292 1.385 . S
C3289 H3264 0.951 . S
C3289 C3287 1.388 . S
C3289 C3290 1.366 . S
C3290 C3289 1.366 . S
C3290 C3291 1.414 . S
C3290 C3293 1.499 . S
C3291 H3265 0.950 . S
C3291 C3290 1.414 . S
C3291 C3292 1.374 . S
C3292 H3266 0.950 . S
C3292 C3288 1.385 . S
C3292 C3291 1.374 . S
C3293 C3290 1.499 . S
C3293 C3294 1.373 . S
C3293 C3295 1.389 . S
C3294 H3267 0.950 . S
C3294 C3280 1.377 . S
C3294 C3293 1.373 . S
C3295 C3279 1.377 . S
C3295 C3293 1.389 . S
C3295 C3296 1.524 . S
C3296 C3295 1.524 . S
C3296 C3297 1.397 . S
C3296 C3301 1.363 . S
C3297 H3268 0.950 . S
C3297 C3296 1.397 . S
C3297 C3298 1.334 . S
C3298 H3269 0.950 . S
C3298 C3297 1.334 . S
C3298 C3299 1.287 . S
C3299 C3298 1.287 . S
C3299 C3300 1.524 . S
C3299 H3302 0.999 . S
C3300 H3270 0.950 . S
C3300 C3299 1.524 . S
C3300 C3301 1.415 . S
C3301 H3271 0.950 . S
C3301 C3296 1.363 . S
C3301 C3300 1.415 . S
H3302 C3299 0.999 . S
H3303 C3284 0.913 . S
H3304 C3322 0.951 . S
H3305 C3324 0.951 . S
H3306 C3326 0.950 . S
H3307 C3327 0.950 . S
H3308 C3329 0.950 . S
H3309 C3332 0.950 . S
H3310 C3333 0.950 . S
H3311 C3335 0.950 . S
H3312 C3336 0.950 . S
H3313 C3337 0.951 . S
H3314 C3339 0.951 . S
H3315 C3341 0.950 . S
H3316 C3342 0.950 . S
H3317 C3344 0.950 . S
H3318 C3347 0.950 . S
H3319 C3348 0.950 . S
H3320 C3350 0.950 . S
H3321 C3351 0.950 . S
C3322 H3304 0.951 . S
C3322 C3323 1.366 . S
C3322 C3324 1.388 . S
C3323 C3322 1.366 . S
C3323 C3327 1.385 . S
C3324 H3305 0.951 . S
C3324 C3322 1.388 . S
C3324 C3325 1.366 . S
C3325 C3324 1.366 . S
C3325 C3326 1.414 . S
C3325 C3328 1.499 . S
C3326 H3306 0.950 . S
C3326 C3325 1.414 . S
C3326 C3327 1.374 . S
C3327 H3307 0.950 . S
C3327 C3323 1.385 . S
C3327 C3326 1.374 . S
C3328 C3325 1.499 . S
C3328 C3329 1.373 . S
C3328 C3330 1.389 . S
C3329 H3308 0.950 . S
C3329 C3328 1.373 . S
C3329 C3345 1.377 . S
C3330 C3328 1.389 . S
C3330 C3331 1.524 . S
C3330 C3344 1.377 . S
C3331 C3330 1.524 . S
C3331 C3332 1.397 . S
C3331 C3336 1.363 . S
C3332 H3309 0.950 . S
C3332 C3331 1.397 . S
C3332 C3333 1.334 . S
C3333 H3310 0.950 . S
C3333 C3332 1.334 . S
C3333 C3334 1.287 . S
C3334 C3333 1.287 . S
C3334 C3335 1.524 . S
C3334 H3353 0.913 . S
C3335 H3311 0.950 . S
C3335 C3334 1.524 . S
C3335 C3336 1.415 . S
C3336 H3312 0.950 . S
C3336 C3331 1.363 . S
C3336 C3335 1.415 . S
C3337 H3313 0.951 . S
C3337 C3338 1.366 . S
C3337 C3339 1.388 . S
C3338 C3337 1.366 . S
C3338 C3342 1.385 . S
C3339 H3314 0.951 . S
C3339 C3337 1.388 . S
C3339 C3340 1.366 . S
C3340 C3339 1.366 . S
C3340 C3341 1.414 . S
C3340 C3343 1.499 . S
C3341 H3315 0.950 . S
C3341 C3340 1.414 . S
C3341 C3342 1.374 . S
C3342 H3316 0.950 . S
C3342 C3338 1.385 . S
C3342 C3341 1.374 . S
C3343 C3340 1.499 . S
C3343 C3344 1.373 . S
C3343 C3345 1.389 . S
C3344 H3317 0.950 . S
C3344 C3330 1.377 . S
C3344 C3343 1.373 . S
C3345 C3329 1.377 . S
C3345 C3343 1.389 . S
C3345 C3346 1.524 . S
C3346 C3345 1.524 . S
C3346 C3347 1.397 . S
C3346 C3351 1.363 . S
C3347 H3318 0.950 . S
C3347 C3346 1.397 . S
C3347 C3348 1.334 . S
C3348 H3319 0.950 . S
C3348 C3347 1.334 . S
C3348 C3349 1.287 . S
C3349 C3348 1.287 . S
C3349 C3350 1.524 . S
C3349 H3352 0.999 . S
C3350 H3320 0.950 . S
C3350 C3349 1.524 . S
C3350 C3351 1.415 . S
C3351 H3321 0.950 . S
C3351 C3346 1.363 . S
C3351 C3350 1.415 . S
H3352 C3349 0.999 . S
H3353 C3334 0.913 . S
H3354 C3372 0.951 . S
H3355 C3374 0.951 . S
H3356 C3376 0.950 . S
H3357 C3377 0.950 . S
H3358 C3379 0.950 . S
H3359 C3382 0.950 . S
H3360 C3383 0.950 . S
H3361 C3385 0.950 . S
H3362 C3386 0.950 . S
H3363 C3387 0.951 . S
H3364 C3389 0.951 . S
H3365 C3391 0.950 . S
H3366 C3392 0.950 . S
H3367 C3394 0.950 . S
H3368 C3397 0.950 . S
H3369 C3398 0.950 . S
H3370 C3400 0.950 . S
H3371 C3401 0.950 . S
C3372 H3354 0.951 . S
C3372 C3373 1.366 . S
C3372 C3374 1.388 . S
C3373 C3372 1.366 . S
C3373 C3377 1.385 . S
C3374 H3355 0.951 . S
C3374 C3372 1.388 . S
C3374 C3375 1.366 . S
C3375 C3374 1.366 . S
C3375 C3376 1.414 . S
C3375 C3378 1.499 . S
C3376 H3356 0.950 . S
C3376 C3375 1.414 . S
C3376 C3377 1.374 . S
C3377 H3357 0.950 . S
C3377 C3373 1.385 . S
C3377 C3376 1.374 . S
C3378 C3375 1.499 . S
C3378 C3379 1.373 . S
C3378 C3380 1.389 . S
C3379 H3358 0.950 . S
C3379 C3378 1.373 . S
C3379 C3395 1.377 . S
C3380 C3378 1.389 . S
C3380 C3381 1.524 . S
C3380 C3394 1.377 . S
C3381 C3380 1.524 . S
C3381 C3382 1.397 . S
C3381 C3386 1.363 . S
C3382 H3359 0.950 . S
C3382 C3381 1.397 . S
C3382 C3383 1.334 . S
C3383 H3360 0.950 . S
C3383 C3382 1.334 . S
C3383 C3384 1.287 . S
C3384 C3383 1.287 . S
C3384 C3385 1.524 . S
C3384 H3403 0.913 . S
C3385 H3361 0.950 . S
C3385 C3384 1.524 . S
C3385 C3386 1.415 . S
C3386 H3362 0.950 . S
C3386 C3381 1.363 . S
C3386 C3385 1.415 . S
C3387 H3363 0.951 . S
C3387 C3388 1.366 . S
C3387 C3389 1.388 . S
C3388 C3387 1.366 . S
C3388 C3392 1.385 . S
C3389 H3364 0.951 . S
C3389 C3387 1.388 . S
C3389 C3390 1.366 . S
C3390 C3389 1.366 . S
C3390 C3391 1.414 . S
C3390 C3393 1.499 . S
C3391 H3365 0.950 . S
C3391 C3390 1.414 . S
C3391 C3392 1.374 . S
C3392 H3366 0.950 . S
C3392 C3388 1.385 . S
C3392 C3391 1.374 . S
C3393 C3390 1.499 . S
C3393 C3394 1.373 . S
C3393 C3395 1.389 . S
C3394 H3367 0.950 . S
C3394 C3380 1.377 . S
C3394 C3393 1.373 . S
C3395 C3379 1.377 . S
C3395 C3393 1.389 . S
C3395 C3396 1.524 . S
C3396 C3395 1.524 . S
C3396 C3397 1.397 . S
C3396 C3401 1.363 . S
C3397 H3368 0.950 . S
C3397 C3396 1.397 . S
C3397 C3398 1.334 . S
C3398 H3369 0.950 . S
C3398 C3397 1.334 . S
C3398 C3399 1.287 . S
C3399 C3398 1.287 . S
C3399 C3400 1.524 . S
C3399 H3402 0.999 . S
C3400 H3370 0.950 . S
C3400 C3399 1.524 . S
C3400 C3401 1.415 . S
C3401 H3371 0.950 . S
C3401 C3396 1.363 . S
C3401 C3400 1.415 . S
H3402 C3399 0.999 . S
H3403 C3384 0.913 . S
H3404 C3422 0.951 . S
H3405 C3424 0.951 . S
H3406 C3426 0.950 . S
H3407 C3427 0.950 . S
H3408 C3429 0.950 . S
H3409 C3432 0.950 . S
H3410 C3433 0.950 . S
H3411 C3435 0.950 . S
H3412 C3436 0.950 . S
H3413 C3437 0.951 . S
H3414 C3439 0.951 . S
H3415 C3441 0.950 . S
H3416 C3442 0.950 . S
H3417 C3444 0.950 . S
H3418 C3447 0.950 . S
H3419 C3448 0.950 . S
H3420 C3450 0.950 . S
H3421 C3451 0.950 . S
C3422 H3404 0.951 . S
C3422 C3423 1.366 . S
C3422 C3424 1.388 . S
C3423 C3422 1.366 . S
C3423 C3427 1.385 . S
C3424 H3405 0.951 . S
C3424 C3422 1.388 . S
C3424 C3425 1.366 . S
C3425 C3424 1.366 . S
C3425 C3426 1.414 . S
C3425 C3428 1.499 . S
C3426 H3406 0.950 . S
C3426 C3425 1.414 . S
C3426 C3427 1.374 . S
C3427 H3407 0.950 . S
C3427 C3423 1.385 . S
C3427 C3426 1.374 . S
C3428 C3425 1.499 . S
C3428 C3429 1.373 . S
C3428 C3430 1.389 . S
C3429 H3408 0.950 . S
C3429 C3428 1.373 . S
C3429 C3445 1.377 . S
C3430 C3428 1.389 . S
C3430 C3431 1.524 . S
C3430 C3444 1.377 . S
C3431 C3430 1.524 . S
C3431 C3432 1.397 . S
C3431 C3436 1.363 . S
C3432 H3409 0.950 . S
C3432 C3431 1.397 . S
C3432 C3433 1.334 . S
C3433 H3410 0.950 . S
C3433 C3432 1.334 . S
C3433 C3434 1.287 . S
C3434 C3433 1.287 . S
C3434 C3435 1.524 . S
C3434 H3453 0.913 . S
C3435 H3411 0.950 . S
C3435 C3434 1.524 . S
C3435 C3436 1.415 . S
C3436 H3412 0.950 . S
C3436 C3431 1.363 . S
C3436 C3435 1.415 . S
C3437 H3413 0.951 . S
C3437 C3438 1.366 . S
C3437 C3439 1.388 . S
C3438 C3437 1.366 . S
C3438 C3442 1.385 . S
C3439 H3414 0.951 . S
C3439 C3437 1.388 . S
C3439 C3440 1.366 . S
C3440 C3439 1.366 . S
C3440 C3441 1.414 . S
C3440 C3443 1.499 . S
C3441 H3415 0.950 . S
C3441 C3440 1.414 . S
C3441 C3442 1.374 . S
C3442 H3416 0.950 . S
C3442 C3438 1.385 . S
C3442 C3441 1.374 . S
C3443 C3440 1.499 . S
C3443 C3444 1.373 . S
C3443 C3445 1.389 . S
C3444 H3417 0.950 . S
C3444 C3430 1.377 . S
C3444 C3443 1.373 . S
C3445 C3429 1.377 . S
C3445 C3443 1.389 . S
C3445 C3446 1.524 . S
C3446 C3445 1.524 . S
C3446 C3447 1.397 . S
C3446 C3451 1.363 . S
C3447 H3418 0.950 . S
C3447 C3446 1.397 . S
C3447 C3448 1.334 . S
C3448 H3419 0.950 . S
C3448 C3447 1.334 . S
C3448 C3449 1.287 . S
C3449 C3448 1.287 . S
C3449 C3450 1.524 . S
C3449 H3452 0.999 . S
C3450 H3420 0.950 . S
C3450 C3449 1.524 . S
C3450 C3451 1.415 . S
C3451 H3421 0.950 . S
C3451 C3446 1.363 . S
C3451 C3450 1.415 . S
H3452 C3449 0.999 . S
H3453 C3434 0.913 . S
H3454 C3472 0.951 . S
H3455 C3474 0.951 . S
H3456 C3476 0.950 . S
H3457 C3477 0.950 . S
H3458 C3479 0.950 . S
H3459 C3482 0.950 . S
H3460 C3483 0.950 . S
H3461 C3485 0.950 . S
H3462 C3486 0.950 . S
H3463 C3487 0.951 . S
H3464 C3489 0.951 . S
H3465 C3491 0.950 . S
H3466 C3492 0.950 . S
H3467 C3494 0.950 . S
H3468 C3497 0.950 . S
H3469 C3498 0.950 . S
H3470 C3500 0.950 . S
H3471 C3501 0.950 . S
C3472 H3454 0.951 . S
C3472 C3473 1.366 . S
C3472 C3474 1.388 . S
C3473 C3472 1.366 . S
C3473 C3477 1.385 . S
C3474 H3455 0.951 . S
C3474 C3472 1.388 . S
C3474 C3475 1.366 . S
C3475 C3474 1.366 . S
C3475 C3476 1.414 . S
C3475 C3478 1.499 . S
C3476 H3456 0.950 . S
C3476 C3475 1.414 . S
C3476 C3477 1.374 . S
C3477 H3457 0.950 . S
C3477 C3473 1.385 . S
C3477 C3476 1.374 . S
C3478 C3475 1.499 . S
C3478 C3479 1.373 . S
C3478 C3480 1.389 . S
C3479 H3458 0.950 . S
C3479 C3478 1.373 . S
C3479 C3495 1.377 . S
C3480 C3478 1.389 . S
C3480 C3481 1.524 . S
C3480 C3494 1.377 . S
C3481 C3480 1.524 . S
C3481 C3482 1.397 . S
C3481 C3486 1.363 . S
C3482 H3459 0.950 . S
C3482 C3481 1.397 . S
C3482 C3483 1.334 . S
C3483 H3460 0.950 . S
C3483 C3482 1.334 . S
C3483 C3484 1.287 . S
C3484 C3483 1.287 . S
C3484 C3485 1.524 . S
C3484 H3503 0.913 . S
C3485 H3461 0.950 . S
C3485 C3484 1.524 . S
C3485 C3486 1.415 . S
C3486 H3462 0.950 . S
C3486 C3481 1.363 . S
C3486 C3485 1.415 . S
C3487 H3463 0.951 . S
C3487 C3488 1.366 . S
C3487 C3489 1.388 . S
C3488 C3487 1.366 . S
C3488 C3492 1.385 . S
C3489 H3464 0.951 . S
C3489 C3487 1.388 . S
C3489 C3490 1.366 . S
C3490 C3489 1.366 . S
C3490 C3491 1.414 . S
C3490 C3493 1.499 . S
C3491 H3465 0.950 . S
C3491 C3490 1.414 . S
C3491 C3492 1.374 . S
C3492 H3466 0.950 . S
C3492 C3488 1.385 . S
C3492 C3491 1.374 . S
C3493 C3490 1.499 . S
C3493 C3494 1.373 . S
C3493 C3495 1.389 . S
C3494 H3467 0.950 . S
C3494 C3480 1.377 . S
C3494 C3493 1.373 . S
C3495 C3479 1.377 . S
C3495 C3493 1.389 . S
C3495 C3496 1.524 . S
C3496 C3495 1.524 . S
C3496 C3497 1.397 . S
C3496 C3501 1.363 . S
C3497 H3468 0.950 . S
C3497 C3496 1.397 . S
C3497 C3498 1.334 . S
C3498 H3469 0.950 . S
C3498 C3497 1.334 . S
C3498 C3499 1.287 . S
C3499 C3498 1.287 . S
C3499 C3500 1.524 . S
C3499 H3502 0.999 . S
C3500 H3470 0.950 . S
C3500 C3499 1.524 . S
C3500 C3501 1.415 . S
C3501 H3471 0.950 . S
C3501 C3496 1.363 . S
C3501 C3500 1.415 . S
H3502 C3499 0.999 . S
H3503 C3484 0.913 . S
H3504 C3522 0.951 . S
H3505 C3524 0.951 . S
H3506 C3526 0.950 . S
H3507 C3527 0.950 . S
H3508 C3529 0.950 . S
H3509 C3532 0.950 . S
H3510 C3533 0.950 . S
H3511 C3535 0.950 . S
H3512 C3536 0.950 . S
H3513 C3537 0.951 . S
H3514 C3539 0.951 . S
H3515 C3541 0.950 . S
H3516 C3542 0.950 . S
H3517 C3544 0.950 . S
H3518 C3547 0.950 . S
H3519 C3548 0.950 . S
H3520 C3550 0.950 . S
H3521 C3551 0.950 . S
C3522 H3504 0.951 . S
C3522 C3523 1.366 . S
C3522 C3524 1.388 . S
C3523 C3522 1.366 . S
C3523 C3527 1.385 . S
C3524 H3505 0.951 . S
C3524 C3522 1.388 . S
C3524 C3525 1.366 . S
C3525 C3524 1.366 . S
C3525 C3526 1.414 . S
C3525 C3528 1.499 . S
C3526 H3506 0.950 . S
C3526 C3525 1.414 . S
C3526 C3527 1.374 . S
C3527 H3507 0.950 . S
C3527 C3523 1.385 . S
C3527 C3526 1.374 . S
C3528 C3525 1.499 . S
C3528 C3529 1.373 . S
C3528 C3530 1.389 . S
C3529 H3508 0.950 . S
C3529 C3528 1.373 . S
C3529 C3545 1.377 . S
C3530 C3528 1.389 . S
C3530 C3531 1.524 . S
C3530 C3544 1.377 . S
C3531 C3530 1.524 . S
C3531 C3532 1.397 . S
C3531 C3536 1.363 . S
C3532 H3509 0.950 . S
C3532 C3531 1.397 . S
C3532 C3533 1.334 . S
C3533 H3510 0.950 . S
C3533 C3532 1.334 . S
C3533 C3534 1.287 . S
C3534 C3533 1.287 . S
C3534 C3535 1.524 . S
C3534 H3553 0.913 . S
C3535 H3511 0.950 . S
C3535 C3534 1.524 . S
C3535 C3536 1.415 . S
C3536 H3512 0.950 . S
C3536 C3531 1.363 . S
C3536 C3535 1.415 . S
C3537 H3513 0.951 . S
C3537 C3538 1.366 . S
C3537 C3539 1.388 . S
C3538 C3537 1.366 . S
C3538 C3542 1.385 . S
C3539 H3514 0.951 . S
C3539 C3537 1.388 . S
C3539 C3540 1.366 . S
C3540 C3539 1.366 . S
C3540 C3541 1.414 . S
C3540 C3543 1.499 . S
C3541 H3515 0.950 . S
C3541 C3540 1.414 . S
C3541 C3542 1.374 . S
C3542 H3516 0.950 . S
C3542 C3538 1.385 . S
C3542 C3541 1.374 . S
C3543 C3540 1.499 . S
C3543 C3544 1.373 . S
C3543 C3545 1.389 . S
C3544 H3517 0.950 . S
C3544 C3530 1.377 . S
C3544 C3543 1.373 . S
C3545 C3529 1.377 . S
C3545 C3543 1.389 . S
C3545 C3546 1.524 . S
C3546 C3545 1.524 . S
C3546 C3547 1.397 . S
C3546 C3551 1.363 . S
C3547 H3518 0.950 . S
C3547 C3546 1.397 . S
C3547 C3548 1.334 . S
C3548 H3519 0.950 . S
C3548 C3547 1.334 . S
C3548 C3549 1.287 . S
C3549 C3548 1.287 . S
C3549 C3550 1.524 . S
C3549 H3552 0.999 . S
C3550 H3520 0.950 . S
C3550 C3549 1.524 . S
C3550 C3551 1.415 . S
C3551 H3521 0.950 . S
C3551 C3546 1.363 . S
C3551 C3550 1.415 . S
H3552 C3549 0.999 . S
H3553 C3534 0.913 . S
H3554 C3572 0.951 . S
H3555 C3574 0.951 . S
H3556 C3576 0.950 . S
H3557 C3577 0.950 . S
H3558 C3579 0.950 . S
H3559 C3582 0.950 . S
H3560 C3583 0.950 . S
H3561 C3585 0.950 . S
H3562 C3586 0.950 . S
H3563 C3587 0.951 . S
H3564 C3589 0.951 . S
H3565 C3591 0.950 . S
H3566 C3592 0.950 . S
H3567 C3594 0.950 . S
H3568 C3597 0.950 . S
H3569 C3598 0.950 . S
H3570 C3600 0.950 . S
H3571 C3601 0.950 . S
C3572 H3554 0.951 . S
C3572 C3573 1.366 . S
C3572 C3574 1.388 . S
C3573 C3572 1.366 . S
C3573 C3577 1.385 . S
C3574 H3555 0.951 . S
C3574 C3572 1.388 . S
C3574 C3575 1.366 . S
C3575 C3574 1.366 . S
C3575 C3576 1.414 . S
C3575 C3578 1.499 . S
C3576 H3556 0.950 . S
C3576 C3575 1.414 . S
C3576 C3577 1.374 . S
C3577 H3557 0.950 . S
C3577 C3573 1.385 . S
C3577 C3576 1.374 . S
C3578 C3575 1.499 . S
C3578 C3579 1.373 . S
C3578 C3580 1.389 . S
C3579 H3558 0.950 . S
C3579 C3578 1.373 . S
C3579 C3595 1.377 . S
C3580 C3578 1.389 . S
C3580 C3581 1.524 . S
C3580 C3594 1.377 . S
C3581 C3580 1.524 . S
C3581 C3582 1.397 . S
C3581 C3586 1.363 . S
C3582 H3559 0.950 . S
C3582 C3581 1.397 . S
C3582 C3583 1.334 . S
C3583 H3560 0.950 . S
C3583 C3582 1.334 . S
C3583 C3584 1.287 . S
C3584 C3583 1.287 . S
C3584 C3585 1.524 . S
C3584 H3603 0.913 . S
C3585 H3561 0.950 . S
C3585 C3584 1.524 . S
C3585 C3586 1.415 . S
C3586 H3562 0.950 . S
C3586 C3581 1.363 . S
C3586 C3585 1.415 . S
C3587 H3563 0.951 . S
C3587 C3588 1.366 . S
C3587 C3589 1.388 . S
C3588 C3587 1.366 . S
C3588 C3592 1.385 . S
C3589 H3564 0.951 . S
C3589 C3587 1.388 . S
C3589 C3590 1.366 . S
C3590 C3589 1.366 . S
C3590 C3591 1.414 . S
C3590 C3593 1.499 . S
C3591 H3565 0.950 . S
C3591 C3590 1.414 . S
C3591 C3592 1.374 . S
C3592 H3566 0.950 . S
C3592 C3588 1.385 . S
C3592 C3591 1.374 . S
C3593 C3590 1.499 . S
C3593 C3594 1.373 . S
C3593 C3595 1.389 . S
C3594 H3567 0.950 . S
C3594 C3580 1.377 . S
C3594 C3593 1.373 . S
C3595 C3579 1.377 . S
C3595 C3593 1.389 . S
C3595 C3596 1.524 . S
C3596 C3595 1.524 . S
C3596 C3597 1.397 . S
C3596 C3601 1.363 . S
C3597 H3568 0.950 . S
C3597 C3596 1.397 . S
C3597 C3598 1.334 . S
C3598 H3569 0.950 . S
C3598 C3597 1.334 . S
C3598 C3599 1.287 . S
C3599 C3598 1.287 . S
C3599 C3600 1.524 . S
C3599 H3602 0.999 . S
C3600 H3570 0.950 . S
C3600 C3599 1.524 . S
C3600 C3601 1.415 . S
C3601 H3571 0.950 . S
C3601 C3596 1.363 . S
C3601 C3600 1.415 . S
H3602 C3599 0.999 . S
H3603 C3584 0.913 . S
H3604 C3622 0.951 . S
H3605 C3624 0.951 . S
H3606 C3626 0.950 . S
H3607 C3627 0.950 . S
H3608 C3629 0.950 . S
H3609 C3632 0.950 . S
H3610 C3633 0.950 . S
H3611 C3635 0.950 . S
H3612 C3636 0.950 . S
H3613 C3637 0.951 . S
H3614 C3639 0.951 . S
H3615 C3641 0.950 . S
H3616 C3642 0.950 . S
H3617 C3644 0.950 . S
H3618 C3647 0.950 . S
H3619 C3648 0.950 . S
H3620 C3650 0.950 . S
H3621 C3651 0.950 . S
C3622 H3604 0.951 . S
C3622 C3623 1.366 . S
C3622 C3624 1.388 . S
C3623 C3622 1.366 . S
C3623 C3627 1.385 . S
C3624 H3605 0.951 . S
C3624 C3622 1.388 . S
C3624 C3625 1.366 . S
C3625 C3624 1.366 . S
C3625 C3626 1.414 . S
C3625 C3628 1.499 . S
C3626 H3606 0.950 . S
C3626 C3625 1.414 . S
C3626 C3627 1.374 . S
C3627 H3607 0.950 . S
C3627 C3623 1.385 . S
C3627 C3626 1.374 . S
C3628 C3625 1.499 . S
C3628 C3629 1.373 . S
C3628 C3630 1.389 . S
C3629 H3608 0.950 . S
C3629 C3628 1.373 . S
C3629 C3645 1.377 . S
C3630 C3628 1.389 . S
C3630 C3631 1.524 . S
C3630 C3644 1.377 . S
C3631 C3630 1.524 . S
C3631 C3632 1.397 . S
C3631 C3636 1.363 . S
C3632 H3609 0.950 . S
C3632 C3631 1.397 . S
C3632 C3633 1.334 . S
C3633 H3610 0.950 . S
C3633 C3632 1.334 . S
C3633 C3634 1.287 . S
C3634 C3633 1.287 . S
C3634 C3635 1.524 . S
C3634 H3653 0.913 . S
C3635 H3611 0.950 . S
C3635 C3634 1.524 . S
C3635 C3636 1.415 . S
C3636 H3612 0.950 . S
C3636 C3631 1.363 . S
C3636 C3635 1.415 . S
C3637 H3613 0.951 . S
C3637 C3638 1.366 . S
C3637 C3639 1.388 . S
C3638 C3637 1.366 . S
C3638 C3642 1.385 . S
C3639 H3614 0.951 . S
C3639 C3637 1.388 . S
C3639 C3640 1.366 . S
C3640 C3639 1.366 . S
C3640 C3641 1.414 . S
C3640 C3643 1.499 . S
C3641 H3615 0.950 . S
C3641 C3640 1.414 . S
C3641 C3642 1.374 . S
C3642 H3616 0.950 . S
C3642 C3638 1.385 . S
C3642 C3641 1.374 . S
C3643 C3640 1.499 . S
C3643 C3644 1.373 . S
C3643 C3645 1.389 . S
C3644 H3617 0.950 . S
C3644 C3630 1.377 . S
C3644 C3643 1.373 . S
C3645 C3629 1.377 . S
C3645 C3643 1.389 . S
C3645 C3646 1.524 . S
C3646 C3645 1.524 . S
C3646 C3647 1.397 . S
C3646 C3651 1.363 . S
C3647 H3618 0.950 . S
C3647 C3646 1.397 . S
C3647 C3648 1.334 . S
C3648 H3619 0.950 . S
C3648 C3647 1.334 . S
C3648 C3649 1.287 . S
C3649 C3648 1.287 . S
C3649 C3650 1.524 . S
C3649 H3652 0.999 . S
C3650 H3620 0.950 . S
C3650 C3649 1.524 . S
C3650 C3651 1.415 . S
C3651 H3621 0.950 . S
C3651 C3646 1.363 . S
C3651 C3650 1.415 . S
H3652 C3649 0.999 . S
H3653 C3634 0.913 . S
H3654 C3672 0.951 . S
H3655 C3674 0.951 . S
H3656 C3676 0.950 . S
H3657 C3677 0.950 . S
H3658 C3679 0.950 . S
H3659 C3682 0.950 . S
H3660 C3683 0.950 . S
H3661 C3685 0.950 . S
H3662 C3686 0.950 . S
H3663 C3687 0.951 . S
H3664 C3689 0.951 . S
H3665 C3691 0.950 . S
H3666 C3692 0.950 . S
H3667 C3694 0.950 . S
H3668 C3697 0.950 . S
H3669 C3698 0.950 . S
H3670 C3700 0.950 . S
H3671 C3701 0.950 . S
C3672 H3654 0.951 . S
C3672 C3673 1.366 . S
C3672 C3674 1.388 . S
C3673 C3672 1.366 . S
C3673 C3677 1.385 . S
C3674 H3655 0.951 . S
C3674 C3672 1.388 . S
C3674 C3675 1.366 . S
C3675 C3674 1.366 . S
C3675 C3676 1.414 . S
C3675 C3678 1.499 . S
C3676 H3656 0.950 . S
C3676 C3675 1.414 . S
C3676 C3677 1.374 . S
C3677 H3657 0.950 . S
C3677 C3673 1.385 . S
C3677 C3676 1.374 . S
C3678 C3675 1.499 . S
C3678 C3679 1.373 . S
C3678 C3680 1.389 . S
C3679 H3658 0.950 . S
C3679 C3678 1.373 . S
C3679 C3695 1.377 . S
C3680 C3678 1.389 . S
C3680 C3681 1.524 . S
C3680 C3694 1.377 . S
C3681 C3680 1.524 . S
C3681 C3682 1.397 . S
C3681 C3686 1.363 . S
C3682 H3659 0.950 . S
C3682 C3681 1.397 . S
C3682 C3683 1.334 . S
C3683 H3660 0.950 . S
C3683 C3682 1.334 . S
C3683 C3684 1.287 . S
C3684 C3683 1.287 . S
C3684 C3685 1.524 . S
C3684 H3703 0.913 . S
C3685 H3661 0.950 . S
C3685 C3684 1.524 . S
C3685 C3686 1.415 . S
C3686 H3662 0.950 . S
C3686 C3681 1.363 . S
C3686 C3685 1.415 . S
C3687 H3663 0.951 . S
C3687 C3688 1.366 . S
C3687 C3689 1.388 . S
C3688 C3687 1.366 . S
C3688 C3692 1.385 . S
C3689 H3664 0.951 . S
C3689 C3687 1.388 . S
C3689 C3690 1.366 . S
C3690 C3689 1.366 . S
C3690 C3691 1.414 . S
C3690 C3693 1.499 . S
C3691 H3665 0.950 . S
C3691 C3690 1.414 . S
C3691 C3692 1.374 . S
C3692 H3666 0.950 . S
C3692 C3688 1.385 . S
C3692 C3691 1.374 . S
C3693 C3690 1.499 . S
C3693 C3694 1.373 . S
C3693 C3695 1.389 . S
C3694 H3667 0.950 . S
C3694 C3680 1.377 . S
C3694 C3693 1.373 . S
C3695 C3679 1.377 . S
C3695 C3693 1.389 . S
C3695 C3696 1.524 . S
C3696 C3695 1.524 . S
C3696 C3697 1.397 . S
C3696 C3701 1.363 . S
C3697 H3668 0.950 . S
C3697 C3696 1.397 . S
C3697 C3698 1.334 . S
C3698 H3669 0.950 . S
C3698 C3697 1.334 . S
C3698 C3699 1.287 . S
C3699 C3698 1.287 . S
C3699 C3700 1.524 . S
C3699 H3702 0.999 . S
C3700 H3670 0.950 . S
C3700 C3699 1.524 . S
C3700 C3701 1.415 . S
C3701 H3671 0.950 . S
C3701 C3696 1.363 . S
C3701 C3700 1.415 . S
H3702 C3699 0.999 . S
H3703 C3684 0.913 . S
H3704 C3722 0.951 . S
H3705 C3724 0.951 . S
H3706 C3726 0.950 . S
H3707 C3727 0.950 . S
H3708 C3729 0.950 . S
H3709 C3732 0.950 . S
H3710 C3733 0.950 . S
H3711 C3735 0.950 . S
H3712 C3736 0.950 . S
H3713 C3737 0.951 . S
H3714 C3739 0.951 . S
H3715 C3741 0.950 . S
H3716 C3742 0.950 . S
H3717 C3744 0.950 . S
H3718 C3747 0.950 . S
H3719 C3748 0.950 . S
H3720 C3750 0.950 . S
H3721 C3751 0.950 . S
C3722 H3704 0.951 . S
C3722 C3723 1.366 . S
C3722 C3724 1.388 . S
C3723 C3722 1.366 . S
C3723 C3727 1.385 . S
C3724 H3705 0.951 . S
C3724 C3722 1.388 . S
C3724 C3725 1.366 . S
C3725 C3724 1.366 . S
C3725 C3726 1.414 . S
C3725 C3728 1.499 . S
C3726 H3706 0.950 . S
C3726 C3725 1.414 . S
C3726 C3727 1.374 . S
C3727 H3707 0.950 . S
C3727 C3723 1.385 . S
C3727 C3726 1.374 . S
C3728 C3725 1.499 . S
C3728 C3729 1.373 . S
C3728 C3730 1.389 . S
C3729 H3708 0.950 . S
C3729 C3728 1.373 . S
C3729 C3745 1.377 . S
C3730 C3728 1.389 . S
C3730 C3731 1.524 . S
C3730 C3744 1.377 . S
C3731 C3730 1.524 . S
C3731 C3732 1.397 . S
C3731 C3736 1.363 . S
C3732 H3709 0.950 . S
C3732 C3731 1.397 . S
C3732 C3733 1.334 . S
C3733 H3710 0.950 . S
C3733 C3732 1.334 . S
C3733 C3734 1.287 . S
C3734 C3733 1.287 . S
C3734 C3735 1.524 . S
C3734 H3753 0.913 . S
C3735 H3711 0.950 . S
C3735 C3734 1.524 . S
C3735 C3736 1.415 . S
C3736 H3712 0.950 . S
C3736 C3731 1.363 . S
C3736 C3735 1.415 . S
C3737 H3713 0.951 . S
C3737 C3738 1.366 . S
C3737 C3739 1.388 . S
C3738 C3737 1.366 . S
C3738 C3742 1.385 . S
C3739 H3714 0.951 . S
C3739 C3737 1.388 . S
C3739 C3740 1.366 . S
C3740 C3739 1.366 . S
C3740 C3741 1.414 . S
C3740 C3743 1.499 . S
C3741 H3715 0.950 . S
C3741 C3740 1.414 . S
C3741 C3742 1.374 . S
C3742 H3716 0.950 . S
C3742 C3738 1.385 . S
C3742 C3741 1.374 . S
C3743 C3740 1.499 . S
C3743 C3744 1.373 . S
C3743 C3745 1.389 . S
C3744 H3717 0.950 . S
C3744 C3730 1.377 . S
C3744 C3743 1.373 . S
C3745 C3729 1.377 . S
C3745 C3743 1.389 . S
C3745 C3746 1.524 . S
C3746 C3745 1.524 . S
C3746 C3747 1.397 . S
C3746 C3751 1.363 . S
C3747 H3718 0.950 . S
C3747 C3746 1.397 . S
C3747 C3748 1.334 . S
C3748 H3719 0.950 . S
C3748 C3747 1.334 . S
C3748 C3749 1.287 . S
C3749 C3748 1.287 . S
C3749 C3750 1.524 . S
C3749 H3752 0.999 . S
C3750 H3720 0.950 . S
C3750 C3749 1.524 . S
C3750 C3751 1.415 . S
C3751 H3721 0.950 . S
C3751 C3746 1.363 . S
C3751 C3750 1.415 . S
H3752 C3749 0.999 . S
H3753 C3734 0.913 . S
H3754 C3772 0.951 . S
H3755 C3774 0.951 . S
H3756 C3776 0.950 . S
H3757 C3777 0.950 . S
H3758 C3779 0.950 . S
H3759 C3782 0.950 . S
H3760 C3783 0.950 . S
H3761 C3785 0.950 . S
H3762 C3786 0.950 . S
H3763 C3787 0.951 . S
H3764 C3789 0.951 . S
H3765 C3791 0.950 . S
H3766 C3792 0.950 . S
H3767 C3794 0.950 . S
H3768 C3797 0.950 . S
H3769 C3798 0.950 . S
H3770 C3800 0.950 . S
H3771 C3801 0.950 . S
C3772 H3754 0.951 . S
C3772 C3773 1.366 . S
C3772 C3774 1.388 . S
C3773 C3772 1.366 . S
C3773 C3777 1.385 . S
C3774 H3755 0.951 . S
C3774 C3772 1.388 . S
C3774 C3775 1.366 . S
C3775 C3774 1.366 . S
C3775 C3776 1.414 . S
C3775 C3778 1.499 . S
C3776 H3756 0.950 . S
C3776 C3775 1.414 . S
C3776 C3777 1.374 . S
C3777 H3757 0.950 . S
C3777 C3773 1.385 . S
C3777 C3776 1.374 . S
C3778 C3775 1.499 . S
C3778 C3779 1.373 . S
C3778 C3780 1.389 . S
C3779 H3758 0.950 . S
C3779 C3778 1.373 . S
C3779 C3795 1.377 . S
C3780 C3778 1.389 . S
C3780 C3781 1.524 . S
C3780 C3794 1.377 . S
C3781 C3780 1.524 . S
C3781 C3782 1.397 . S
C3781 C3786 1.363 . S
C3782 H3759 0.950 . S
C3782 C3781 1.397 . S
C3782 C3783 1.334 . S
C3783 H3760 0.950 . S
C3783 C3782 1.334 . S
C3783 C3784 1.287 . S
C3784 C3783 1.287 . S
C3784 C3785 1.524 . S
C3784 H3803 0.913 . S
C3785 H3761 0.950 . S
C3785 C3784 1.524 . S
C3785 C3786 1.415 . S
C3786 H3762 0.950 . S
C3786 C3781 1.363 . S
C3786 C3785 1.415 . S
C3787 H3763 0.951 . S
C3787 C3788 1.366 . S
C3787 C3789 1.388 . S
C3788 C3787 1.366 . S
C3788 C3792 1.385 . S
C3789 H3764 0.951 . S
C3789 C3787 1.388 . S
C3789 C3790 1.366 . S
C3790 C3789 1.366 . S
C3790 C3791 1.414 . S
C3790 C3793 1.499 . S
C3791 H3765 0.950 . S
C3791 C3790 1.414 . S
C3791 C3792 1.374 . S
C3792 H3766 0.950 . S
C3792 C3788 1.385 . S
C3792 C3791 1.374 . S
C3793 C3790 1.499 . S
C3793 C3794 1.373 . S
C3793 C3795 1.389 . S
C3794 H3767 0.950 . S
C3794 C3780 1.377 . S
C3794 C3793 1.373 . S
C3795 C3779 1.377 . S
C3795 C3793 1.389 . S
C3795 C3796 1.524 . S
C3796 C3795 1.524 . S
C3796 C3797 1.397 . S
C3796 C3801 1.363 . S
C3797 H3768 0.950 . S
C3797 C3796 1.397 . S
C3797 C3798 1.334 . S
C3798 H3769 0.950 . S
C3798 C3797 1.334 . S
C3798 C3799 1.287 . S
C3799 C3798 1.287 . S
C3799 C3800 1.524 . S
C3799 H3802 0.999 . S
C3800 H3770 0.950 . S
C3800 C3799 1.524 . S
C3800 C3801 1.415 . S
C3801 H3771 0.950 . S
C3801 C3796 1.363 . S
C3801 C3800 1.415 . S
H3802 C3799 0.999 . S
H3803 C3784 0.913 . S
H3804 C3822 0.951 . S
H3805 C3824 0.951 . S
H3806 C3826 0.950 . S
H3807 C3827 0.950 . S
H3808 C3829 0.952 . S
H3809 C3832 0.950 . S
H3810 C3833 0.950 . S
H3811 C3835 0.950 . S
H3812 C3836 0.950 . S
H3813 C3837 0.951 . S
H3814 C3839 0.951 . S
H3815 C3841 0.950 . S
H3816 C3842 0.950 . S
H3817 C3844 0.952 . S
H3818 C3847 0.950 . S
H3819 C3848 0.950 . S
H3820 C3850 0.950 . S
H3821 C3851 0.950 . S
C3822 H3804 0.951 . S
C3822 C3823 1.366 . S
C3822 C3824 1.388 . S
C3823 C3822 1.366 . S
C3823 C3827 1.385 . S
C3824 H3805 0.951 . S
C3824 C3822 1.388 . S
C3824 C3825 1.366 . S
C3825 C3824 1.366 . S
C3825 C3826 1.414 . S
C3825 C3828 1.499 . S
C3826 H3806 0.950 . S
C3826 C3825 1.414 . S
C3826 C3827 1.374 . S
C3827 H3807 0.950 . S
C3827 C3823 1.385 . S
C3827 C3826 1.374 . S
C3828 C3825 1.499 . S
C3828 C3829 1.377 1_455 S
C3828 C3830 1.389 . S
C3829 H3808 0.952 . S
C3829 C3828 1.377 1_655 S
C3829 C3845 1.371 . S
C3830 C3828 1.389 . S
C3830 C3831 1.524 . S
C3830 C3844 1.348 1_455 S
C3831 C3830 1.524 . S
C3831 C3832 1.397 . S
C3831 C3836 1.363 . S
C3832 H3809 0.950 . S
C3832 C3831 1.397 . S
C3832 C3833 1.334 . S
C3833 H3810 0.950 . S
C3833 C3832 1.334 . S
C3833 C3834 1.287 . S
C3834 C3833 1.287 . S
C3834 C3835 1.524 . S
C3834 H3853 0.913 . S
C3835 H3811 0.950 . S
C3835 C3834 1.524 . S
C3835 C3836 1.415 . S
C3836 H3812 0.950 . S
C3836 C3831 1.363 . S
C3836 C3835 1.415 . S
C3837 H3813 0.951 . S
C3837 C3838 1.366 . S
C3837 C3839 1.388 . S
C3838 C3837 1.366 . S
C3838 C3842 1.385 . S
C3839 H3814 0.951 . S
C3839 C3837 1.388 . S
C3839 C3840 1.366 . S
C3840 C3839 1.366 . S
C3840 C3841 1.414 . S
C3840 C3843 1.499 . S
C3841 H3815 0.950 . S
C3841 C3840 1.414 . S
C3841 C3842 1.374 . S
C3842 H3816 0.950 . S
C3842 C3838 1.385 . S
C3842 C3841 1.374 . S
C3843 C3840 1.499 . S
C3843 C3844 1.390 . S
C3843 C3845 1.389 . S
C3844 H3817 0.952 . S
C3844 C3830 1.348 1_655 S
C3844 C3843 1.390 . S
C3845 C3829 1.371 . S
C3845 C3843 1.389 . S
C3845 C3846 1.524 . S
C3846 C3845 1.524 . S
C3846 C3847 1.397 . S
C3846 C3851 1.363 . S
C3847 H3818 0.950 . S
C3847 C3846 1.397 . S
C3847 C3848 1.334 . S
C3848 H3819 0.950 . S
C3848 C3847 1.334 . S
C3848 C3849 1.287 . S
C3849 C3848 1.287 . S
C3849 C3850 1.524 . S
C3849 H3852 0.999 . S
C3850 H3820 0.950 . S
C3850 C3849 1.524 . S
C3850 C3851 1.415 . S
C3851 H3821 0.950 . S
C3851 C3846 1.363 . S
C3851 C3850 1.415 . S
H3852 C3849 0.999 . S
H3853 C3834 0.913 . S
H3854 C3872 0.951 . S
H3855 C3874 0.951 . S
H3856 C3876 0.950 . S
H3857 C3877 0.950 . S
H3858 C3879 0.950 . S
H3859 C3882 0.950 . S
H3860 C3883 0.950 . S
H3861 C3885 0.950 . S
H3862 C3886 0.950 . S
H3863 C3887 0.951 . S
H3864 C3889 0.951 . S
H3865 C3891 0.950 . S
H3866 C3892 0.950 . S
H3867 C3894 0.950 . S
H3868 C3897 0.950 . S
H3869 C3898 0.950 . S
H3870 C3900 0.950 . S
H3871 C3901 0.950 . S
C3872 H3854 0.951 . S
C3872 C3873 1.366 . S
C3872 C3874 1.388 . S
C3873 C3872 1.366 . S
C3873 C3877 1.385 . S
C3874 H3855 0.951 . S
C3874 C3872 1.388 . S
C3874 C3875 1.366 . S
C3875 C3874 1.366 . S
C3875 C3876 1.414 . S
C3875 C3878 1.499 . S
C3876 H3856 0.950 . S
C3876 C3875 1.414 . S
C3876 C3877 1.374 . S
C3877 H3857 0.950 . S
C3877 C3873 1.385 . S
C3877 C3876 1.374 . S
C3878 C3875 1.499 . S
C3878 C3879 1.373 . S
C3878 C3880 1.389 . S
C3879 H3858 0.950 . S
C3879 C3878 1.373 . S
C3879 C3895 1.377 . S
C3880 C3878 1.389 . S
C3880 C3881 1.524 . S
C3880 C3894 1.377 . S
C3881 C3880 1.524 . S
C3881 C3882 1.397 . S
C3881 C3886 1.363 . S
C3882 H3859 0.950 . S
C3882 C3881 1.397 . S
C3882 C3883 1.334 . S
C3883 H3860 0.950 . S
C3883 C3882 1.334 . S
C3883 C3884 1.287 . S
C3884 C3883 1.287 . S
C3884 C3885 1.524 . S
C3884 H3903 0.913 . S
C3885 H3861 0.950 . S
C3885 C3884 1.524 . S
C3885 C3886 1.415 . S
C3886 H3862 0.950 . S
C3886 C3881 1.363 . S
C3886 C3885 1.415 . S
C3887 H3863 0.951 . S
C3887 C3888 1.366 . S
C3887 C3889 1.388 . S
C3888 C3887 1.366 . S
C3888 C3892 1.385 . S
C3889 H3864 0.951 . S
C3889 C3887 1.388 . S
C3889 C3890 1.366 . S
C3890 C3889 1.366 . S
C3890 C3891 1.414 . S
C3890 C3893 1.499 . S
C3891 H3865 0.950 . S
C3891 C3890 1.414 . S
C3891 C3892 1.374 . S
C3892 H3866 0.950 . S
C3892 C3888 1.385 . S
C3892 C3891 1.374 . S
C3893 C3890 1.499 . S
C3893 C3894 1.373 . S
C3893 C3895 1.389 . S
C3894 H3867 0.950 . S
C3894 C3880 1.377 . S
C3894 C3893 1.373 . S
C3895 C3879 1.377 . S
C3895 C3893 1.389 . S
C3895 C3896 1.524 . S
C3896 C3895 1.524 . S
C3896 C3897 1.397 . S
C3896 C3901 1.363 . S
C3897 H3868 0.950 . S
C3897 C3896 1.397 . S
C3897 C3898 1.334 . S
C3898 H3869 0.950 . S
C3898 C3897 1.334 . S
C3898 C3899 1.287 . S
C3899 C3898 1.287 . S
C3899 C3900 1.524 . S
C3899 H3902 0.999 . S
C3900 H3870 0.950 . S
C3900 C3899 1.524 . S
C3900 C3901 1.415 . S
C3901 H3871 0.950 . S
C3901 C3896 1.363 . S
C3901 C3900 1.415 . S
H3902 C3899 0.999 . S
H3903 C3884 0.913 . S
H3904 C3922 0.951 . S
H3905 C3924 0.951 . S
H3906 C3926 0.950 . S
H3907 C3927 0.950 . S
H3908 C3929 0.950 . S
H3909 C3932 0.950 . S
H3910 C3933 0.950 . S
H3911 C3935 0.950 . S
H3912 C3936 0.950 . S
H3913 C3937 0.951 . S
H3914 C3939 0.951 . S
H3915 C3941 0.950 . S
H3916 C3942 0.950 . S
H3917 C3944 0.939 . S
H3918 C3947 0.950 . S
H3919 C3948 0.950 . S
H3920 C3950 0.950 . S
H3921 C3951 0.950 . S
C3922 H3904 0.951 . S
C3922 C3923 1.366 . S
C3922 C3924 1.388 . S
C3923 C3922 1.366 . S
C3923 C3927 1.385 . S
C3924 H3905 0.951 . S
C3924 C3922 1.388 . S
C3924 C3925 1.366 . S
C3925 C3924 1.366 . S
C3925 C3926 1.414 . S
C3925 C3928 1.499 . S
C3926 H3906 0.950 . S
C3926 C3925 1.414 . S
C3926 C3927 1.374 . S
C3927 H3907 0.950 . S
C3927 C3923 1.385 . S
C3927 C3926 1.374 . S
C3928 C3925 1.499 . S
C3928 C3929 1.373 . S
C3928 C3930 1.389 . S
C3929 H3908 0.950 . S
C3929 C3928 1.373 . S
C3929 C3945 1.377 1_545 S
C3930 C3928 1.389 . S
C3930 C3931 1.524 . S
C3930 C3944 1.365 1_545 S
C3931 C3930 1.524 . S
C3931 C3932 1.397 . S
C3931 C3936 1.363 . S
C3932 H3909 0.950 . S
C3932 C3931 1.397 . S
C3932 C3933 1.334 . S
C3933 H3910 0.950 . S
C3933 C3932 1.334 . S
C3933 C3934 1.287 . S
C3934 C3933 1.287 . S
C3934 C3935 1.524 . S
C3934 H3953 0.913 . S
C3935 H3911 0.950 . S
C3935 C3934 1.524 . S
C3935 C3936 1.415 . S
C3936 H3912 0.950 . S
C3936 C3931 1.363 . S
C3936 C3935 1.415 . S
C3937 H3913 0.951 . S
C3937 C3938 1.366 . S
C3937 C3939 1.388 . S
C3938 C3937 1.366 . S
C3938 C3942 1.385 . S
C3939 H3914 0.951 . S
C3939 C3937 1.388 . S
C3939 C3940 1.366 . S
C3940 C3939 1.366 . S
C3940 C3941 1.414 . S
C3940 C3943 1.499 . S
C3941 H3915 0.950 . S
C3941 C3940 1.414 . S
C3941 C3942 1.374 . S
C3942 H3916 0.950 . S
C3942 C3938 1.385 . S
C3942 C3941 1.374 . S
C3943 C3940 1.499 . S
C3943 C3944 1.396 . S
C3943 C3945 1.389 . S
C3944 H3917 0.939 . S
C3944 C3930 1.365 1_565 S
C3944 C3943 1.396 . S
C3945 C3929 1.377 1_565 S
C3945 C3943 1.389 . S
C3945 C3946 1.524 . S
C3946 C3945 1.524 . S
C3946 C3947 1.397 . S
C3946 C3951 1.363 . S
C3947 H3918 0.950 . S
C3947 C3946 1.397 . S
C3947 C3948 1.334 . S
C3948 H3919 0.950 . S
C3948 C3947 1.334 . S
C3948 C3949 1.287 . S
C3949 C3948 1.287 . S
C3949 C3950 1.524 . S
C3949 H3952 0.999 . S
C3950 H3920 0.950 . S
C3950 C3949 1.524 . S
C3950 C3951 1.415 . S
C3951 H3921 0.950 . S
C3951 C3946 1.363 . S
C3951 C3950 1.415 . S
H3952 C3949 0.999 . S
H3953 C3934 0.913 . S
H3954 C3972 0.951 . S
H3955 C3974 0.951 . S
H3956 C3976 0.950 . S
H3957 C3977 0.950 . S
H3958 C3979 0.950 . S
H3959 C3982 0.950 . S
H3960 C3983 0.950 . S
H3961 C3985 0.950 . S
H3962 C3986 0.950 1_556 S
H3963 C3987 0.951 . S
H3964 C3989 0.951 . S
H3965 C3991 0.950 . S
H3966 C3992 0.950 . S
H3967 C3994 0.950 . S
H3968 C3997 0.950 . S
H3969 C3998 0.950 . S
H3970 C4000 0.950 . S
H3971 C4001 0.877 1_554 S
C3972 H3954 0.951 . S
C3972 C3973 1.385 . S
C3972 C3974 1.388 . S
C3973 C3972 1.385 . S
C3973 C3977 1.365 1_556 S
C3974 H3955 0.951 . S
C3974 C3972 1.388 . S
C3974 C3975 1.363 1_556 S
C3975 C3974 1.363 1_554 S
C3975 C3976 1.416 . S
C3975 C3978 1.498 . S
C3976 H3956 0.950 . S
C3976 C3975 1.416 . S
C3976 C3977 1.374 . S
C3977 H3957 0.950 . S
C3977 C3973 1.365 1_554 S
C3977 C3976 1.374 . S
C3978 C3975 1.498 . S
C3978 C3979 1.362 1_554 S
C3978 C3980 1.399 1_545 S
C3979 H3958 0.950 . S
C3979 C3978 1.362 1_556 S
C3979 C3995 1.377 . S
C3980 C3978 1.399 1_565 S
C3980 C3981 1.524 . S
C3980 C3994 1.377 . S
C3981 C3980 1.524 . S
C3981 C3982 1.397 1_565 S
C3981 C3986 1.363 . S
C3982 H3959 0.950 . S
C3982 C3981 1.397 1_545 S
C3982 C3983 1.334 . S
C3983 H3960 0.950 . S
C3983 C3982 1.334 . S
C3983 C3984 1.287 1_545 S
C3984 C3983 1.287 1_565 S
C3984 C3985 1.524 . S
C3984 H4003 0.913 . S
C3985 H3961 0.950 . S
C3985 C3984 1.524 . S
C3985 C3986 1.415 . S
C3986 H3962 0.950 1_554 S
C3986 C3981 1.363 . S
C3986 C3985 1.415 . S
C3987 H3963 0.951 . S
C3987 C3988 1.367 1_554 S
C3987 C3989 1.388 . S
C3988 C3987 1.367 1_556 S
C3988 C3992 1.383 . S
C3989 H3964 0.951 . S
C3989 C3987 1.388 . S
C3989 C3990 1.334 1_554 S
C3990 C3989 1.334 1_556 S
C3990 C3991 1.445 . S
C3990 C3993 1.498 . S
C3991 H3965 0.950 . S
C3991 C3990 1.445 . S
C3991 C3992 1.374 . S
C3992 H3966 0.950 . S
C3992 C3988 1.383 . S
C3992 C3991 1.374 . S
C3993 C3990 1.498 . S
C3993 C3994 1.344 1_556 S
C3993 C3995 1.420 1_565 S
C3994 H3967 0.950 . S
C3994 C3980 1.377 . S
C3994 C3993 1.344 1_554 S
C3995 C3979 1.377 . S
C3995 C3993 1.420 1_545 S
C3995 C3996 1.524 . S
C3996 C3995 1.524 . S
C3996 C3997 1.397 1_545 S
C3996 C4001 1.363 . S
C3997 H3968 0.950 . S
C3997 C3996 1.397 1_565 S
C3997 C3998 1.334 . S
C3998 H3969 0.950 . S
C3998 C3997 1.334 . S
C3998 C3999 1.287 1_565 S
C3999 C3998 1.287 1_545 S
C3999 C4000 1.524 . S
C3999 H4002 0.999 . S
C4000 H3970 0.950 . S
C4000 C3999 1.524 . S
C4000 C4001 1.415 . S
C4001 H3971 0.877 1_556 S
C4001 C3996 1.363 . S
C4001 C4000 1.415 . S
H4002 C3999 0.999 . S
H4003 C3984 0.913 . S
H4004 C4022 0.951 . S
H4005 C4024 0.951 . S
H4006 C4026 0.950 . S
H4007 C4027 0.950 . S
H4008 C4029 0.950 . S
H4009 C4032 0.950 . S
H4010 C4033 0.950 . S
H4011 C4035 0.950 . S
H4012 C4036 0.950 . S
H4013 C4037 0.951 . S
H4014 C4039 0.951 . S
H4015 C4041 0.950 . S
H4016 C4042 0.950 . S
H4017 C4044 0.950 . S
H4018 C4047 0.950 . S
H4019 C4048 0.950 . S
H4020 C4050 0.950 . S
H4021 C4051 0.950 . S
C4022 H4004 0.951 . S
C4022 C4023 1.393 . S
C4022 C4024 1.388 . S
C4023 C4022 1.393 . S
C4023 C4027 1.358 1_556 S
C4024 H4005 0.951 . S
C4024 C4022 1.388 . S
C4024 C4025 1.416 . S
C4025 C4024 1.416 . S
C4025 C4026 1.364 1_556 S
C4025 C4028 1.498 . S
C4026 H4006 0.950 . S
C4026 C4025 1.364 1_554 S
C4026 C4027 1.374 . S
C4027 H4007 0.950 . S
C4027 C4023 1.358 1_554 S
C4027 C4026 1.374 . S
C4028 C4025 1.498 . S
C4028 C4029 1.334 1_556 S
C4028 C4030 1.428 . S
C4029 H4008 0.950 . S
C4029 C4028 1.334 1_554 S
C4029 C4045 1.377 1_655 S
C4030 C4028 1.428 . S
C4030 C4031 1.524 . S
C4030 C4044 1.377 1_655 S
C4031 C4030 1.524 . S
C4031 C4032 1.397 . S
C4031 C4036 1.363 . S
C4032 H4009 0.950 . S
C4032 C4031 1.397 . S
C4032 C4033 1.334 . S
C4033 H4010 0.950 . S
C4033 C4032 1.334 . S
C4033 C4034 1.287 . S
C4034 C4033 1.287 . S
C4034 C4035 1.524 . S
C4034 H4053 0.913 . S
C4035 H4011 0.950 . S
C4035 C4034 1.524 . S
C4035 C4036 1.415 . S
C4036 H4012 0.950 . S
C4036 C4031 1.363 . S
C4036 C4035 1.415 . S
C4037 H4013 0.951 . S
C4037 C4038 1.365 1_554 S
C4037 C4039 1.388 . S
C4038 C4037 1.365 1_556 S
C4038 C4042 1.386 . S
C4039 H4014 0.951 . S
C4039 C4037 1.388 . S
C4039 C4040 1.371 . S
C4040 C4039 1.371 . S
C4040 C4041 1.408 1_554 S
C4040 C4043 1.499 1_554 S
C4041 H4015 0.950 . S
C4041 C4040 1.408 1_556 S
C4041 C4042 1.374 . S
C4042 H4016 0.950 . S
C4042 C4038 1.386 . S
C4042 C4041 1.374 . S
C4043 C4040 1.499 1_556 S
C4043 C4044 1.372 . S
C4043 C4045 1.391 1_556 S
C4044 H4017 0.950 . S
C4044 C4030 1.377 1_455 S
C4044 C4043 1.372 . S
C4045 C4029 1.377 1_455 S
C4045 C4043 1.391 1_554 S
C4045 C4046 1.524 . S
C4046 C4045 1.524 . S
C4046 C4047 1.397 . S
C4046 C4051 1.363 . S
C4047 H4018 0.950 . S
C4047 C4046 1.397 . S
C4047 C4048 1.334 . S
C4048 H4019 0.950 . S
C4048 C4047 1.334 . S
C4048 C4049 1.287 . S
C4049 C4048 1.287 . S
C4049 C4050 1.524 . S
C4049 H4052 0.999 . S
C4050 H4020 0.950 . S
C4050 C4049 1.524 . S
C4050 C4051 1.415 . S
C4051 H4021 0.950 . S
C4051 C4046 1.363 . S
C4051 C4050 1.415 . S
H4052 C4049 0.999 . S
H4053 C4034 0.913 . S
H4054 C4072 0.966 . S
H4055 C4074 0.951 . S
H4056 C4076 0.968 . S
H4057 C4077 0.950 . S
H4058 C4079 0.950 . S
H4059 C4082 0.950 . S
H4060 C4083 0.950 . S
H4061 C4085 0.950 . S
H4062 C4086 0.950 . S
H4063 C4087 0.951 . S
H4064 C4089 0.951 . S
H4065 C4091 0.955 . S
H4066 C4092 0.956 . S
H4067 C4094 0.950 . S
H4068 C4097 0.950 . S
H4069 C4098 0.950 . S
H4070 C4100 0.950 . S
H4071 C4101 0.950 . S
C4072 H4054 0.966 . S
C4072 C4073 1.359 1_554 S
C4072 C4074 1.394 . S
C4073 C4072 1.359 1_556 S
C4073 C4077 1.385 . S
C4074 H4055 0.951 . S
C4074 C4072 1.394 . S
C4074 C4075 1.369 . S
C4075 C4074 1.369 . S
C4075 C4076 1.404 1_554 S
C4075 C4078 1.499 . S
C4076 H4056 0.968 . S
C4076 C4075 1.404 1_556 S
C4076 C4077 1.379 . S
C4077 H4057 0.950 . S
C4077 C4073 1.385 . S
C4077 C4076 1.379 . S
C4078 C4075 1.499 . S
C4078 C4079 1.351 1_554 S
C4078 C4080 1.410 . S
C4079 H4058 0.950 . S
C4079 C4078 1.351 1_556 S
C4079 C4095 1.377 . S
C4080 C4078 1.410 . S
C4080 C4081 1.524 . S
C4080 C4094 1.377 . S
C4081 C4080 1.524 . S
C4081 C4082 1.397 . S
C4081 C4086 1.363 . S
C4082 H4059 0.950 . S
C4082 C4081 1.397 . S
C4082 C4083 1.334 . S
C4083 H4060 0.950 . S
C4083 C4082 1.334 . S
C4083 C4084 1.287 . S
C4084 C4083 1.287 . S
C4084 C4085 1.524 . S
C4084 H4103 0.913 . S
C4085 H4061 0.950 . S
C4085 C4084 1.524 . S
C4085 C4086 1.415 . S
C4086 H4062 0.950 . S
C4086 C4081 1.363 . S
C4086 C4085 1.415 . S
C4087 H4063 0.951 . S
C4087 C4088 1.371 . S
C4087 C4089 1.388 . S
C4088 C4087 1.371 . S
C4088 C4092 1.380 1_556 S
C4089 H4064 0.951 . S
C4089 C4087 1.388 . S
C4089 C4090 1.377 . S
C4090 C4089 1.377 . S
C4090 C4091 1.404 1_556 S
C4090 C4093 1.499 . S
C4091 H4065 0.955 . S
C4091 C4090 1.404 1_554 S
C4091 C4092 1.374 . S
C4092 H4066 0.956 . S
C4092 C4088 1.380 1_554 S
C4092 C4091 1.374 . S
C4093 C4090 1.499 . S
C4093 C4094 1.302 1_556 S
C4093 C4095 1.458 . S
C4094 H4067 0.950 . S
C4094 C4080 1.377 . S
C4094 C4093 1.302 1_554 S
C4095 C4079 1.377 . S
C4095 C4093 1.458 . S
C4095 C4096 1.524 . S
C4096 C4095 1.524 . S
C4096 C4097 1.397 . S
C4096 C4101 1.363 . S
C4097 H4068 0.950 . S
C4097 C4096 1.397 . S
C4097 C4098 1.334 . S
C4098 H4069 0.950 . S
C4098 C4097 1.334 . S
C4098 C4099 1.287 . S
C4099 C4098 1.287 . S
C4099 C4100 1.524 . S
C4099 H4102 0.999 . S
C4100 H4070 0.950 . S
C4100 C4099 1.524 . S
C4100 C4101 1.415 . S
C4101 H4071 0.950 . S
C4101 C4096 1.363 . S
C4101 C4100 1.415 . S
H4102 C4099 0.999 . S
H4103 C4084 0.913 . S
C523 C9 0.965 . S
C538 C21 1.017 . S
C573 C23 0.964 . S
C588 C35 1.018 . S
C623 C7 1.017 . S
C638 C37 0.966 . S
C673 C51 0.966 . S
C688 C77 1.017 . S
C723 C65 0.964 . S
C738 C49 1.017 . S
C773 C63 1.018 . S
C788 C79 0.964 . S
C823 C93 0.983 . S
C838 C101 1.094 . S
C873 C115 1.095 . S
C888 C107 0.982 . S
C923 C87 1.094 . S
C938 C121 0.984 . S
C973 C157 1.094 . S
C988 C135 0.983 . S
C1023 C149 0.982 . S
C1038 C129 1.094 . S
C1073 C163 0.984 . S
C1088 C143 1.094 . S
C1123 C189 1.019 . S
C1138 C177 0.963 . S
C1173 C191 0.966 . S
C1188 C203 1.017 . S
C1223 C205 0.963 . S
C1238 C175 1.019 . S
C1273 C219 0.965 . S
C1288 C245 1.017 . S
C1323 C233 0.964 . S
C1338 C217 1.018 . S
C1373 C247 0.966 . S
C1388 C231 1.017 . S
C1423 C269 1.094 . S
C1438 C261 0.984 . S
C1473 C275 0.982 . S
C1488 C283 1.095 . S
C1523 C255 1.095 . S
C1538 C289 0.982 . S
C1573 C325 1.095 . S
C1588 C303 1.019 . S
C1623 C317 1.021 . S
C1638 C297 1.095 . S
C1673 C311 1.094 . S
C1688 C331 1.019 . S
C1723 C357 1.019 . S
C1738 C345 0.963 . S
C1773 C359 0.964 . S
C1788 C371 1.018 . S
C1823 C373 0.965 . S
C1838 C343 1.018 . S
C1873 C413 1.018 . S
C1888 C387 0.964 . S
C1923 C401 0.966 . S
C1938 C385 1.017 . S
C1973 C399 1.018 . S
C1988 C415 0.964 . S
C2023 C429 0.984 . S
C2038 C437 1.094 . S
C2073 C443 0.984 . S
C2088 C451 1.094 . S
C2123 C457 0.982 . S
C2138 C423 1.095 . S
C2173 C493 1.094 . S
C2188 C471 0.982 . S
C2223 C465 1.095 . S
C2238 C485 0.982 . S
C2273 C499 0.984 . S
C2288 C479 1.094 . S
C2323 C45 1.706 . S
C2338 C3 1.706 . S
C2373 C17 1.707 . S
C2388 C59 1.707 . S
C2423 C73 1.707 . S
C2438 C31 1.706 . S
C2473 C133 1.613 . S
C2488 C91 1.613 . S
C2523 C105 1.612 . S
C2538 C147 1.614 . S
C2573 C161 1.613 . S
C2588 C119 1.613 . S
C2623 C171 1.707 . S
C2638 C213 1.706 . S
C2673 C185 1.706 . S
C2688 C227 1.706 . S
C2723 C199 1.707 . S
C2738 C241 1.707 . S
C2773 C301 1.613 . S
C2788 C259 1.613 . S
C2823 C315 1.613 . S
C2838 C273 1.613 . S
C2873 C287 1.614 . S
C2888 C329 1.613 . S
C2923 C381 1.706 . S
C2938 C339 1.706 . S
C2973 C395 1.707 . S
C2988 C353 1.707 . S
C3023 C367 1.707 . S
C3038 C409 1.707 . S
C3073 C427 1.613 . S
C3088 C469 1.612 . S
C3123 C483 1.612 . S
C3138 C441 1.613 . S
C3173 C455 1.613 . S
C3188 C497 1.614 . S
C3223 C8 1.541 . S
C3238 C260 1.531 . S
C3273 C22 1.542 . S
C3288 C274 1.532 . S
C3323 C36 1.542 . S
C3338 C288 1.532 . S
C3373 C470 1.532 . S
C3388 C50 1.542 . S
C3423 C484 1.531 . S
C3438 C64 1.541 . S
C3473 C78 1.542 . S
C3488 C498 1.532 . S
C3523 C92 1.532 . S
C3538 C344 1.542 . S
C3573 C358 1.542 . S
C3588 C106 1.532 . S
C3623 C372 1.542 . S
C3638 C120 1.532 . S
C3673 C218 1.541 . S
C3688 C134 1.531 . S
C3723 C232 1.541 . S
C3738 C148 1.531 . S
C3773 C246 1.541 . S
C3788 C162 1.531 . S
C3823 C428 1.533 . S
C3838 C176 1.542 . S
C3873 C190 1.541 . S
C3888 C442 1.532 . S
C3923 C204 1.542 . S
C3938 C456 1.532 . S
C3973 C302 1.521 1_556 S
C3988 C386 1.541 . S
C4023 C316 1.521 1_556 S
C4038 C400 1.542 . S
C4073 C414 1.542 . S
C4088 C330 1.522 1_556 S
