# Generated by pormake.
# Topology bcg, (8)-cn, num edge types: 1
# Building blocks:
#     Node 0, Type 0, BuildingBlock: TAGTUT_clean_sbu_3, # of connection points: 8
#     Node 1, Type 0, BuildingBlock: TAGTUT_clean_sbu_3, # of connection points: 8
#     Node 2, Type 0, BuildingBlock: TAGTUT_clean_sbu_3, # of connection points: 8
#     Node 3, Type 0, BuildingBlock: TAGTUT_clean_sbu_3, # of connection points: 8
#     Edge 4, Type (0, 0), BuildingBlock: UVAHIK_clean_linker_0, # of connection points: 2
#     Edge 5, Type (0, 0), BuildingBlock: UVAHIK_clean_linker_0, # of connection points: 2
#     Edge 6, Type (0, 0), BuildingBlock: UVAHIK_clean_linker_0, # of connection points: 2
#     Edge 7, Type (0, 0), BuildingBlock: UVAHIK_clean_linker_0, # of connection points: 2
#     Edge 8, Type (0, 0), BuildingBlock: UVAHIK_clean_linker_0, # of connection points: 2
#     Edge 9, Type (0, 0), BuildingBlock: UVAHIK_clean_linker_0, # of connection points: 2
#     Edge 10, Type (0, 0), BuildingBlock: UVAHIK_clean_linker_0, # of connection points: 2
#     Edge 11, Type (0, 0), BuildingBlock: UVAHIK_clean_linker_0, # of connection points: 2
#     Edge 12, Type (0, 0), BuildingBlock: UVAHIK_clean_linker_0, # of connection points: 2
#     Edge 13, Type (0, 0), BuildingBlock: UVAHIK_clean_linker_0, # of connection points: 2
#     Edge 14, Type (0, 0), BuildingBlock: UVAHIK_clean_linker_0, # of connection points: 2
#     Edge 15, Type (0, 0), BuildingBlock: UVAHIK_clean_linker_0, # of connection points: 2
#     Edge 16, Type (0, 0), BuildingBlock: UVAHIK_clean_linker_0, # of connection points: 2
#     Edge 17, Type (0, 0), BuildingBlock: UVAHIK_clean_linker_0, # of connection points: 2
#     Edge 18, Type (0, 0), BuildingBlock: UVAHIK_clean_linker_0, # of connection points: 2
#     Edge 19, Type (0, 0), BuildingBlock: UVAHIK_clean_linker_0, # of connection points: 2
# Relax obj value: 0.119
# Max RMSD: 0.246
# Mean RMSD: 0.246
data_MOF--net-bcg--node1-TAGTUT_clean_sbu_3--edge1-UVAHIK_clean_linker_0
_symmetry_space_group_name_H-M    P1
_symmetry_Int_Tables_number       1
_symmetry_cell_setting            triclinic
loop_
_symmetry_equiv_pos_as_xyz
'x, y, z'
_cell_length_a     19.083296
_cell_length_b     35.658113
_cell_length_c     40.46205
_cell_angle_alpha  90.52643
_cell_angle_beta   89.982873
_cell_angle_gamma 89.949728
loop_
_atom_site_label
_atom_site_type_symbol
_atom_site_fract_x
_atom_site_fract_y
_atom_site_fract_z
_atom_type_partial_charge
C0 C 0.3809 0.21679 0.00923 0.0
C1 C 0.27048 0.25779 0.12376 0.0
C2 C 0.07839 0.25003 0.0722 0.0
Mg3 Mg 0.31966 0.2229 0.93501 0.0
Mg4 Mg 0.21487 0.29258 0.91278 0.0
O5 O 0.23248 0.2535 0.94222 0.0
Mg6 Mg 0.23978 0.26193 0.99113 0.0
O7 O 0.25146 0.26564 0.04031 0.0
Mg8 Mg 0.2358 0.21176 0.05217 0.0
Mg9 Mg 0.2052 0.3019 0.06548 0.0
C10 C 0.09475 0.30485 0.96657 0.0
O11 O 0.27842 0.32316 0.98888 0.0
O12 O 0.27966 0.21114 0.88134 0.0
O13 O 0.23783 0.34967 0.03615 0.0
O14 O 0.38104 0.27438 0.91676 0.0
O15 O 0.2031 0.25722 0.86972 0.0
O16 O 0.3113 0.32353 0.90736 0.0
O17 O 0.20289 0.20223 0.99763 0.0
O18 O 0.25509 0.17376 0.95493 0.0
C19 C 0.21469 0.17277 0.98022 0.0
C20 C 0.23472 0.22659 0.86207 0.0
O21 O 0.12864 0.28624 0.98852 0.0
O22 O 0.26755 0.22766 0.10607 0.0
O23 O 0.12046 0.31267 0.93803 0.0
O24 O 0.12035 0.22242 0.06752 0.0
O25 O 0.2525 0.28991 0.11256 0.0
O26 O 0.0989 0.28394 0.06962 0.0
O27 O 0.34733 0.23749 0.98911 0.0
O28 O 0.35196 0.20466 0.03573 0.0
C29 C 0.37216 0.30863 0.9086 0.0
C30 C 0.26925 0.35175 0.00808 0.0
C31 C 0.8831 0.71539 0.01562 0.0
C32 C 0.77241 0.75825 0.12939 0.0
C33 C 0.58075 0.75093 0.07779 0.0
Mg34 Mg 0.82347 0.72193 0.94124 0.0
Mg35 Mg 0.72163 0.79268 0.91943 0.0
O36 O 0.73555 0.75213 0.9478 0.0
Mg37 Mg 0.74255 0.76074 0.99677 0.0
O38 O 0.75401 0.76488 0.04586 0.0
Mg39 Mg 0.73753 0.71127 0.05828 0.0
Mg40 Mg 0.70858 0.80185 0.07046 0.0
C41 C 0.59797 0.80355 0.97153 0.0
O42 O 0.78214 0.82182 0.99414 0.0
O43 O 0.78656 0.71145 0.88694 0.0
O44 O 0.74225 0.84931 0.04108 0.0
O45 O 0.88581 0.77333 0.92396 0.0
O46 O 0.71619 0.75997 0.87444 0.0
O47 O 0.81837 0.82388 0.91758 0.0
O48 O 0.70503 0.70109 0.0035 0.0
O49 O 0.7578 0.67298 0.96065 0.0
C50 C 0.71716 0.67176 0.98588 0.0
C51 C 0.74648 0.72898 0.86671 0.0
O52 O 0.6315 0.78517 0.99375 0.0
O53 O 0.76921 0.72784 0.11208 0.0
O54 O 0.62466 0.81164 0.94324 0.0
O55 O 0.62193 0.72283 0.07374 0.0
O56 O 0.75495 0.79025 0.11776 0.0
O57 O 0.60208 0.78457 0.07422 0.0
O58 O 0.84974 0.73603 0.99539 0.0
O59 O 0.85392 0.70351 0.04215 0.0
C60 C 0.87861 0.80818 0.91755 0.0
C61 C 0.77376 0.85075 0.01302 0.0
C62 C 0.38127 0.77106 0.50068 0.0
C63 C 0.27041 0.73241 0.38582 0.0
C64 C 0.07845 0.73958 0.43763 0.0
Mg65 Mg 0.32152 0.76251 0.57479 0.0
Mg66 Mg 0.21725 0.69255 0.59609 0.0
O67 O 0.23392 0.73252 0.56743 0.0
Mg68 Mg 0.24016 0.72567 0.51827 0.0
O69 O 0.25136 0.72326 0.46909 0.0
Mg70 Mg 0.23603 0.7774 0.45799 0.0
Mg71 Mg 0.20501 0.68748 0.44367 0.0
C72 C 0.09561 0.68219 0.54276 0.0
O73 O 0.27913 0.66445 0.51927 0.0
O74 O 0.28327 0.77273 0.62885 0.0
O75 O 0.23802 0.63889 0.47178 0.0
O76 O 0.3834 0.71056 0.59132 0.0
O77 O 0.20676 0.7266 0.64006 0.0
O78 O 0.31382 0.66128 0.60018 0.0
O79 O 0.20279 0.7858 0.51292 0.0
O80 O 0.25566 0.81171 0.55676 0.0
C81 C 0.21488 0.81414 0.53173 0.0
C82 C 0.23884 0.75693 0.64811 0.0
O83 O 0.129 0.70131 0.52098 0.0
O84 O 0.26802 0.76237 0.40378 0.0
O85 O 0.12205 0.67352 0.57096 0.0
O86 O 0.12034 0.76724 0.44215 0.0
O87 O 0.25176 0.70029 0.39672 0.0
O88 O 0.09893 0.70569 0.44054 0.0
O89 O 0.34767 0.74983 0.52031 0.0
O90 O 0.35237 0.78399 0.47448 0.0
C91 C 0.37469 0.67611 0.5988 0.0
C92 C 0.26992 0.63625 0.49965 0.0
C93 C 0.88466 0.27126 0.4907 0.0
C94 C 0.77038 0.22372 0.37868 0.0
C95 C 0.58042 0.23586 0.43109 0.0
Mg96 Mg 0.8258 0.26696 0.56557 0.0
Mg97 Mg 0.72486 0.19657 0.58811 0.0
O98 O 0.73693 0.23743 0.55985 0.0
Mg99 Mg 0.74351 0.22746 0.5111 0.0
O100 O 0.75449 0.22124 0.46221 0.0
Mg101 Mg 0.73907 0.27444 0.44827 0.0
Mg102 Mg 0.70612 0.18358 0.43966 0.0
C103 C 0.59964 0.18506 0.53733 0.0
O104 O 0.7824 0.16695 0.51547 0.0
O105 O 0.7897 0.27829 0.62003 0.0
O106 O 0.73928 0.13683 0.47049 0.0
O107 O 0.88828 0.21559 0.58324 0.0
O108 O 0.72122 0.22921 0.6331 0.0
O109 O 0.82124 0.16492 0.58904 0.0
O110 O 0.7072 0.28698 0.50292 0.0
O111 O 0.76036 0.31573 0.54535 0.0
C112 C 0.71991 0.31664 0.52002 0.0
C113 C 0.75076 0.26045 0.64057 0.0
O114 O 0.63237 0.20334 0.5148 0.0
O115 O 0.76954 0.25503 0.39482 0.0
O116 O 0.62719 0.17723 0.56547 0.0
O117 O 0.62311 0.26343 0.43379 0.0
O118 O 0.75115 0.19272 0.39167 0.0
O119 O 0.60015 0.20213 0.43584 0.0
O120 O 0.85092 0.25167 0.51158 0.0
O121 O 0.85573 0.28207 0.46376 0.0
C122 C 0.88135 0.18066 0.58934 0.0
C123 C 0.77249 0.13704 0.49815 0.0
C124 C 0.50186 0.2137 0.03241 0.0
C125 C 0.45733 0.21418 0.00479 0.0
C126 C 0.57292 0.22225 0.02886 0.0
C127 C 0.71502 0.23532 0.96781 0.0
H128 H 0.77809 0.31281 0.02883 0.0
C129 C 0.97312 0.31024 0.94471 0.0
C130 C 0.01888 0.31039 0.97191 0.0
C131 C 0.90188 0.30308 0.9492 0.0
C132 C 0.76135 0.29107 0.01172 0.0
H133 H 0.45314 0.22001 0.95155 0.0
H134 H 0.57663 0.23477 0.94534 0.0
H135 H 0.66327 0.28406 0.03654 0.0
H136 H 0.02437 0.30918 0.02521 0.0
H137 H 0.90066 0.29567 0.03322 0.0
H138 H 0.81289 0.24213 0.94302 0.0
C139 C 0.55704 0.22811 0.96972 0.0
C140 C 0.69591 0.27439 0.01628 0.0
C141 C 0.48618 0.21977 0.97328 0.0
C142 C 0.99069 0.30789 0.00385 0.0
C143 C 0.91958 0.30054 0.00839 0.0
C144 C 0.78038 0.25192 0.96329 0.0
C145 C 0.60045 0.23101 0.99763 0.0
C146 C 0.67204 0.24643 0.99429 0.0
C147 C 0.87524 0.29606 0.98094 0.0
C148 C 0.80413 0.28012 0.98508 0.0
H149 H 0.48099 0.2096 0.05701 0.0
H150 H 0.60565 0.22364 0.05071 0.0
H151 H 0.69822 0.21363 0.95065 0.0
H152 H -0.00702 0.31243 0.91972 0.0
H153 H 0.86842 0.30091 0.92764 0.0
C154 C 0.00417 0.71328 0.03879 0.0
C155 C 0.95956 0.71257 0.0112 0.0
C156 C 0.07523 0.72173 0.03493 0.0
C157 C 0.2175 0.73234 0.97346 0.0
H158 H 0.28031 0.81223 0.03206 0.0
C159 C 0.47669 0.80652 0.9488 0.0
C160 C 0.52173 0.80842 0.97624 0.0
C161 C 0.40547 0.79903 0.95315 0.0
C162 C 0.2637 0.7898 0.01563 0.0
H163 H 0.95525 0.71623 0.95779 0.0
H164 H 0.07886 0.7306 0.95104 0.0
H165 H 0.16549 0.78385 0.04056 0.0
H166 H 0.52597 0.80949 0.02957 0.0
H167 H 0.40219 0.79566 0.03735 0.0
H168 H 0.3156 0.73807 0.9486 0.0
C169 C 0.05927 0.72505 0.97564 0.0
C170 C 0.1982 0.77334 0.02064 0.0
C171 C 0.98836 0.71689 0.97951 0.0
C172 C 0.49281 0.80701 0.00808 0.0
C173 C 0.42172 0.79943 0.01248 0.0
C174 C 0.28299 0.7487 0.9685 0.0
C175 C 0.10276 0.72916 0.00342 0.0
C176 C 0.17438 0.7445 0.99955 0.0
C177 C 0.37807 0.79344 0.98499 0.0
C178 C 0.30675 0.77773 0.98943 0.0
H179 H 0.98333 0.71022 0.06352 0.0
H180 H 0.10797 0.72407 0.05672 0.0
H181 H 0.20075 0.70998 0.95698 0.0
H182 H 0.49719 0.80771 0.92387 0.0
H183 H 0.37263 0.79564 0.9315 0.0
C184 C 0.50257 0.77389 0.47787 0.0
C185 C 0.45765 0.77358 0.50535 0.0
C186 C 0.5735 0.76506 0.48163 0.0
C187 C 0.71473 0.75148 0.54305 0.0
H188 H 0.77806 0.67407 0.48196 0.0
C189 C 0.97442 0.67704 0.56527 0.0
C190 C 0.01958 0.67692 0.53782 0.0
C191 C 0.90301 0.68413 0.56117 0.0
C192 C 0.76126 0.69578 0.4991 0.0
H193 H 0.45264 0.76779 0.55858 0.0
H194 H 0.57589 0.75257 0.56517 0.0
H195 H 0.66328 0.7029 0.47424 0.0
H196 H 0.02397 0.67842 0.48452 0.0
H197 H 0.89974 0.69156 0.47723 0.0
H198 H 0.8126 0.74462 0.56784 0.0
C199 C 0.55672 0.75929 0.54072 0.0
C200 C 0.69582 0.7125 0.49454 0.0
C201 C 0.486 0.7679 0.53694 0.0
C202 C 0.9907 0.67956 0.50605 0.0
C203 C 0.91938 0.68673 0.50192 0.0
C204 C 0.78014 0.73484 0.54758 0.0
C205 C 0.6005 0.7562 0.51295 0.0
C206 C 0.67191 0.7405 0.51649 0.0
C207 C 0.87555 0.69106 0.52957 0.0
C208 C 0.80408 0.70673 0.52572 0.0
H209 H 0.48205 0.77803 0.45321 0.0
H210 H 0.60652 0.76354 0.45988 0.0
H211 H 0.69786 0.77317 0.56022 0.0
H212 H -0.00512 0.67481 0.59015 0.0
H213 H 0.87002 0.68624 0.5829 0.0
C214 C 0.98975 0.27098 0.52692 0.0
C215 C 0.9611 0.27397 0.49508 0.0
C216 C 0.06062 0.26289 0.53111 0.0
C217 C 0.1994 0.21231 0.48808 0.0
H218 H 0.31738 0.25163 0.5582 0.0
C219 C 0.49408 0.17918 0.50135 0.0
C220 C 0.52344 0.17991 0.53311 0.0
C221 C 0.4229 0.18647 0.49683 0.0
C222 C 0.28461 0.23986 0.53888 0.0
H223 H 0.98505 0.27396 0.44271 0.0
H224 H 0.10962 0.26016 0.45005 0.0
H225 H 0.20234 0.27919 0.54888 0.0
H226 H 0.4998 0.18403 0.58547 0.0
H227 H 0.37503 0.19548 0.57772 0.0
H228 H 0.28142 0.17277 0.47823 0.0
C229 C 0.0768 0.26354 0.47173 0.0
C230 C 0.21903 0.25593 0.53336 0.0
C231 C 0.0058 0.27195 0.46755 0.0
C232 C 0.47886 0.18356 0.56059 0.0
C233 C 0.40755 0.19072 0.55614 0.0
C234 C 0.26495 0.19612 0.49368 0.0
C235 C 0.10417 0.2575 0.5035 0.0
C236 C 0.17575 0.24232 0.50792 0.0
C237 C 0.37965 0.19424 0.52415 0.0
C238 C 0.30823 0.20967 0.5192 0.0
H239 H 0.95657 0.27267 0.54859 0.0
H240 H 0.08015 0.25841 0.5559 0.0
H241 H 0.16651 0.20073 0.46872 0.0
H242 H 0.52692 0.17513 0.47992 0.0
H243 H 0.40298 0.18857 0.47187 0.0
C244 C 0.68848 0.60498 0.97232 0.0
C245 C 0.67603 0.6373 0.99161 0.0
C246 C 0.64328 0.57433 0.97397 0.0
C247 C 0.50387 0.53103 0.02402 0.0
H248 H 0.4493 0.48584 0.94029 0.0
C249 C 0.28715 0.42037 0.01784 0.0
C250 C 0.30347 0.38764 0.99979 0.0
C251 C 0.328 0.45255 0.0146 0.0
C252 C 0.46435 0.49803 0.96385 0.0
H253 H 0.60806 0.662 0.02894 0.0
H254 H 0.52908 0.60852 0.03171 0.0
H255 H 0.53358 0.53726 0.94112 0.0
H256 H 0.37312 0.36377 0.96279 0.0
H257 H 0.44436 0.41994 0.9571 0.0
H258 H 0.43496 0.49173 0.04678 0.0
C259 C 0.57401 0.60685 0.01541 0.0
C260 C 0.5128 0.52736 0.96437 0.0
C261 C 0.61933 0.63753 0.01381 0.0
C262 C 0.35875 0.38857 0.97685 0.0
C263 C 0.39973 0.42078 0.97364 0.0
C264 C 0.45541 0.50174 0.0235 0.0
C265 C 0.5846 0.57529 0.99492 0.0
C266 C 0.53331 0.54406 0.99448 0.0
C267 C 0.38612 0.45268 0.9933 0.0
C268 C 0.43522 0.48488 0.99343 0.0
H269 H 0.732 0.60372 0.95515 0.0
H270 H 0.65371 0.55006 0.95843 0.0
H271 H 0.51923 0.543 0.04763 0.0
H272 H 0.24442 0.42074 0.03547 0.0
H273 H 0.31528 0.47701 0.02951 0.0
C274 C 0.62209 0.3506 0.49176 0.0
C275 C 0.67896 0.35109 0.51386 0.0
C276 C 0.57659 0.38122 0.49002 0.0
C277 C 0.51494 0.46047 0.54109 0.0
H278 H 0.43584 0.49625 0.45898 0.0
C279 C 0.36037 0.59908 0.5299 0.0
C280 C 0.30463 0.60027 0.50724 0.0
C281 C 0.40149 0.56685 0.53263 0.0
C282 C 0.45663 0.48618 0.48218 0.0
H283 H 0.73524 0.38514 0.54982 0.0
H284 H 0.65656 0.43867 0.54632 0.0
H285 H 0.52063 0.4451 0.45778 0.0
H286 H 0.24523 0.56768 0.47139 0.0
H287 H 0.31645 0.51132 0.47652 0.0
H288 H 0.45125 0.50172 0.56546 0.0
C289 C 0.64616 0.41424 0.53099 0.0
C290 C 0.5054 0.45698 0.48145 0.0
C291 C 0.69156 0.38366 0.53276 0.0
C292 C 0.28824 0.5678 0.48886 0.0
C293 C 0.32928 0.53559 0.49162 0.0
C294 C 0.46617 0.48966 0.54182 0.0
C295 C 0.58716 0.41296 0.51027 0.0
C296 C 0.53538 0.44397 0.51088 0.0
C297 C 0.38764 0.53517 0.51276 0.0
C298 C 0.43668 0.50292 0.51236 0.0
H299 H 0.61076 0.32594 0.47689 0.0
H300 H 0.53144 0.37935 0.47387 0.0
H301 H 0.53609 0.45053 0.56426 0.0
H302 H 0.37495 0.6237 0.5441 0.0
H303 H 0.44637 0.56751 0.54901 0.0
C304 C 0.1872 0.10541 0.96826 0.0
C305 C 0.17416 0.13828 0.98669 0.0
C306 C 0.14287 0.07447 0.97097 0.0
C307 C 0.00482 0.03248 0.02302 0.0
H308 H 0.95243 0.98205 0.94131 0.0
C309 C 0.79062 0.91984 0.02063 0.0
C310 C 0.80852 0.8863 0.00416 0.0
C311 C 0.8309 0.95209 0.01639 0.0
C312 C 0.96685 -0.00425 0.96432 0.0
H313 H 0.10573 0.16388 0.02337 0.0
H314 H 0.02828 0.11006 0.02791 0.0
H315 H 0.03502 0.0342 0.93993 0.0
H316 H 0.88155 0.86073 0.96967 0.0
H317 H 0.95111 0.91705 0.96183 0.0
H318 H 0.93668 -0.00597 0.04739 0.0
C319 C 0.0731 0.10805 0.01157 0.0
C320 C 0.01439 0.02548 0.96359 0.0
C321 C 0.11757 0.13895 0.00895 0.0
C322 C 0.86539 0.88625 0.9821 0.0
C323 C 0.90557 0.91853 0.97778 0.0
C324 C 0.95714 0.00285 0.02373 0.0
C325 C 0.08443 0.07576 0.99209 0.0
C326 C 0.03417 0.04406 0.99295 0.0
C327 C 0.88991 0.95147 0.99563 0.0
C328 C 0.93782 0.9841 0.99441 0.0
H329 H 0.23061 0.10386 0.95105 0.0
H330 H 0.15388 0.0497 0.95617 0.0
H331 H 0.01962 0.04588 0.04611 0.0
H332 H 0.74684 0.92088 0.03766 0.0
H333 H 0.81687 0.9773 0.03001 0.0
C334 C 0.78195 0.06711 0.49958 0.0
C335 C 0.80865 0.1025 0.50819 0.0
C336 C 0.82142 0.03477 0.50533 0.0
C337 C 0.93099 0.97435 0.49798 0.0
H338 H 0.07267 0.9714 0.56637 0.0
C339 C 0.14477 0.85947 0.49811 0.0
C340 C 0.17098 0.84791 0.52875 0.0
C341 C 0.09966 0.89037 0.49632 0.0
C342 C 0.03272 0.97117 0.5474 0.0
H343 H 0.89693 0.13201 0.52977 0.0
H344 H 0.96682 0.07643 0.53841 0.0
H345 H 0.99006 0.02255 0.56563 0.0
H346 H 0.169 0.85855 0.5816 0.0
H347 H 0.08785 0.9104 0.57886 0.0
H348 H 0.97062 0.92153 0.4812 0.0
C349 C 0.91458 0.07289 0.52848 0.0
C350 C 0.98586 0.00116 0.54659 0.0
C351 C 0.87446 0.10499 0.52347 0.0
C352 C 0.15086 0.86739 0.55751 0.0
C353 C 0.10436 0.8974 0.55587 0.0
C354 C 0.9766 0.94374 0.49938 0.0
C355 C 0.88923 0.03731 0.51896 0.0
C356 C 0.93504 0.00357 0.52154 0.0
C357 C 0.07826 0.90956 0.52528 0.0
C358 C 0.02874 0.9419 0.52388 0.0
H359 H 0.73108 0.0645 0.4879 0.0
H360 H 0.7991 0.00791 0.49851 0.0
H361 H 0.89354 0.97529 0.47793 0.0
H362 H 0.15943 0.84477 0.4756 0.0
H363 H 0.08194 0.89918 0.47221 0.0
C364 C 0.49772 0.27655 0.39953 0.0
C365 C 0.5122 0.24192 0.41447 0.0
C366 C 0.44863 0.27875 0.37398 0.0
C367 C 0.39632 0.21612 0.30797 0.0
H368 H 0.28637 0.30044 0.27757 0.0
C369 C 0.28838 0.22038 0.17517 0.0
C370 C 0.29035 0.25508 0.15902 0.0
C371 C 0.30211 0.21819 0.20901 0.0
C372 C 0.31735 0.27677 0.28563 0.0
H373 H 0.47797 0.18404 0.41817 0.0
H374 H 0.39175 0.18818 0.37412 0.0
H375 H 0.32548 0.29862 0.33509 0.0
H376 H 0.30923 0.31466 0.16571 0.0
H377 H 0.33595 0.31064 0.22439 0.0
H378 H 0.39195 0.19509 0.25851 0.0
C379 C 0.42004 0.21327 0.38135 0.0
C380 C 0.33918 0.27563 0.31864 0.0
C381 C 0.46922 0.21101 0.40678 0.0
C382 C 0.30715 0.28748 0.17741 0.0
C383 C 0.32169 0.28522 0.21118 0.0
C384 C 0.37516 0.21741 0.27503 0.0
C385 C 0.41291 0.24644 0.36319 0.0
C386 C 0.37979 0.24553 0.33001 0.0
C387 C 0.31903 0.25057 0.22747 0.0
C388 C 0.33642 0.24803 0.26324 0.0
H389 H 0.5291 0.3011 0.40515 0.0
H390 H 0.44395 0.30483 0.36064 0.0
H391 H 0.42898 0.19294 0.31569 0.0
H392 H 0.27462 0.19495 0.16185 0.0
H393 H 0.29854 0.1911 0.22076 0.0
C394 C 0.49808 0.71093 0.11001 0.0
C395 C 0.51269 0.74531 0.09469 0.0
C396 C 0.44937 0.70926 0.13578 0.0
C397 C 0.39794 0.77281 0.20144 0.0
H398 H 0.2866 0.68939 0.23239 0.0
C399 C 0.28943 0.76986 0.33444 0.0
C400 C 0.2908 0.73517 0.35062 0.0
C401 C 0.30348 0.77193 0.30059 0.0
C402 C 0.31798 0.71282 0.22418 0.0
H403 H 0.47917 0.8033 0.09065 0.0
H404 H 0.39361 0.80008 0.13506 0.0
H405 H 0.326 0.69042 0.1749 0.0
H406 H 0.30926 0.67552 0.34401 0.0
H407 H 0.33642 0.6793 0.28543 0.0
H408 H 0.39359 0.79437 0.25075 0.0
C409 C 0.42149 0.77478 0.12795 0.0
C410 C 0.33998 0.7135 0.19119 0.0
C411 C 0.47028 0.77651 0.10232 0.0
C412 C 0.30751 0.70269 0.33229 0.0
C413 C 0.32232 0.70481 0.29856 0.0
C414 C 0.37658 0.77197 0.23438 0.0
C415 C 0.41418 0.74185 0.14642 0.0
C416 C 0.38112 0.74325 0.17961 0.0
C417 C 0.32005 0.73941 0.28219 0.0
C418 C 0.3374 0.74166 0.24638 0.0
H419 H 0.52914 0.68621 0.10452 0.0
H420 H 0.44455 0.68337 0.14938 0.0
H421 H 0.43094 0.79575 0.19354 0.0
H422 H 0.27582 0.79535 0.34773 0.0
H423 H 0.30035 0.799 0.28878 0.0
C424 C 0.5035 0.66537 0.60182 0.0
C425 C 0.43568 0.65602 0.61236 0.0
C426 C 0.56137 0.65771 0.62182 0.0
C427 C 0.64675 0.67965 0.6806 0.0
H428 H 0.64329 0.61453 0.75673 0.0
C429 C 0.70061 0.73518 0.80926 0.0
C430 C 0.73382 0.71313 0.83322 0.0
C431 C 0.6853 0.72045 0.77812 0.0
C432 C 0.6463 0.63255 0.73539 0.0
H433 H 0.37587 0.62715 0.64977 0.0
H434 H 0.47529 0.61543 0.68533 0.0
H435 H 0.58163 0.59586 0.70643 0.0
H436 H 0.77833 0.65828 0.84285 0.0
H437 H 0.75088 0.63232 0.78802 0.0
H438 H 0.71051 0.71649 0.70964 0.0
C439 C 0.48518 0.62795 0.66152 0.0
C440 C 0.61019 0.62208 0.7066 0.0
C441 C 0.42762 0.63474 0.64108 0.0
C442 C 0.75267 0.67603 0.82495 0.0
C443 C 0.73681 0.66112 0.79362 0.0
C444 C 0.68336 0.68981 0.7091 0.0
C445 C 0.5521 0.64172 0.65323 0.0
C446 C 0.60651 0.64655 0.6795 0.0
C447 C 0.70266 0.6832 0.76992 0.0
C448 C 0.68009 0.6675 0.73747 0.0
H449 H 0.51118 0.6813 0.57942 0.0
H450 H 0.61243 0.66728 0.61385 0.0
H451 H 0.64562 0.69955 0.66057 0.0
H452 H 0.68547 0.76389 0.81462 0.0
H453 H 0.65765 0.73807 0.76077 0.0
C454 C 0.42401 0.34933 0.8655 0.0
C455 C 0.4328 0.32842 0.89439 0.0
C456 C 0.48136 0.35656 0.84503 0.0
C457 C 0.60641 0.36455 0.80027 0.0
H458 H 0.71522 0.27278 0.79795 0.0
C459 C 0.75369 0.31372 0.68217 0.0
C460 C 0.73826 0.27613 0.67414 0.0
C461 C 0.73693 0.32838 0.71351 0.0
C462 C 0.68564 0.29873 0.79827 0.0
H463 H 0.50913 0.30397 0.9274 0.0
H464 H 0.60995 0.31888 0.89299 0.0
H465 H 0.64754 0.28807 0.84658 0.0
H466 H 0.69555 0.22422 0.69325 0.0
H467 H 0.66609 0.24955 0.74702 0.0
H468 H 0.63992 0.37283 0.7503 0.0
C469 C 0.55854 0.32778 0.88489 0.0
C470 C 0.64735 0.30796 0.82655 0.0
C471 C 0.5009 0.31961 0.90489 0.0
C472 C 0.70794 0.25333 0.6984 0.0
C473 C 0.69173 0.26781 0.72952 0.0
C474 C 0.64408 0.35493 0.77169 0.0
C475 C 0.54887 0.34369 0.85345 0.0
C476 C 0.60414 0.34002 0.82739 0.0
C477 C 0.70531 0.30555 0.73747 0.0
C478 C 0.681 0.32085 0.76983 0.0
H479 H 0.37203 0.35645 0.8568 0.0
H480 H 0.47103 0.36891 0.8212 0.0
H481 H 0.5757 0.39008 0.80027 0.0
H482 H 0.77707 0.33203 0.66403 0.0
H483 H 0.74812 0.35757 0.71891 0.0
C484 C 0.96669 0.71552 0.41343 0.0
C485 C 0.0105 0.74614 0.42094 0.0
C486 C 0.91783 0.71788 0.38789 0.0
C487 C 0.84005 0.77983 0.32405 0.0
H488 H 0.89122 0.69763 0.26537 0.0
C489 C 0.80964 0.78878 0.18256 0.0
C490 C 0.79203 0.75612 0.1647 0.0
C491 C 0.82385 0.78718 0.21638 0.0
C492 C 0.87487 0.72042 0.28148 0.0
H493 H 0.0295 0.80499 0.41103 0.0
H494 H 0.94501 0.80888 0.36622 0.0
H495 H 0.92752 0.69638 0.32266 0.0
H496 H 0.77454 0.69622 0.16853 0.0
H497 H 0.79791 0.6935 0.22756 0.0
H498 H 0.78842 0.80418 0.28244 0.0
C499 C 0.94863 0.78298 0.37989 0.0
C500 C 0.89561 0.71966 0.31448 0.0
C501 C -0.0027 0.7807 0.40563 0.0
C502 C 0.78895 0.72182 0.18144 0.0
C503 C 0.80235 0.72028 0.21534 0.0
C504 C 0.81864 0.78044 0.29097 0.0
C505 C 0.91206 0.75083 0.36933 0.0
C506 C 0.87961 0.74963 0.33602 0.0
C507 C 0.82005 0.75294 0.23326 0.0
C508 C 0.83709 0.75107 0.26911 0.0
H509 H 0.97459 0.6886 0.42503 0.0
H510 H 0.88886 0.69295 0.38085 0.0
H511 H 0.82682 0.80326 0.34011 0.0
H512 H 0.8126 0.81567 0.17039 0.0
H513 H 0.83876 0.81276 0.22917 0.0
C514 C 0.79625 0.18924 0.32584 0.0
C515 C 0.7899 0.22345 0.34321 0.0
C516 C 0.81055 0.18871 0.29201 0.0
C517 C 0.80419 0.24662 0.21686 0.0
H518 H 0.952 0.18027 0.18633 0.0
C519 C 0.97233 0.27293 0.10242 0.0
C520 C 0.0101 0.24287 0.08839 0.0
C521 C 0.92411 0.26661 0.12771 0.0
C522 C 0.90917 0.19827 0.19402 0.0
H523 H 0.79356 0.28399 0.3384 0.0
H524 H 0.8194 0.28297 0.27929 0.0
H525 H 0.91392 0.17764 0.24338 0.0
H526 H 0.01734 0.18218 0.08555 0.0
H527 H 0.93148 0.17111 0.12889 0.0
H528 H 0.80069 0.26787 0.16753 0.0
C529 C 0.81242 0.25659 0.29193 0.0
C530 C 0.8877 0.19691 0.22693 0.0
C531 C 0.79845 0.25714 0.32587 0.0
C532 C 0.99055 0.20607 0.09647 0.0
C533 C 0.94173 0.19972 0.12155 0.0
C534 C 0.82536 0.24782 0.18376 0.0
C535 C 0.81858 0.22235 0.27465 0.0
C536 C 0.83623 0.22167 0.23892 0.0
C537 C 0.91196 0.23004 0.13911 0.0
C538 C 0.87942 0.22429 0.17213 0.0
H539 H 0.78973 0.16272 0.33831 0.0
H540 H 0.81461 0.1619 0.27934 0.0
H541 H 0.76346 0.26559 0.22531 0.0
H542 H 0.98496 0.30167 0.09634 0.0
H543 H 0.90184 0.29071 0.14035 0.0
C544 C 0.25688 0.17926 0.81643 0.0
C545 C 0.21473 0.20746 0.83082 0.0
C546 C 0.23555 0.16094 0.78727 0.0
C547 C 0.07743 0.13782 0.74034 0.0
H548 H 0.1866 0.14726 0.66007 0.0
C549 C 0.00781 0.17875 0.60487 0.0
C550 C 0.94259 0.16051 0.60309 0.0
C551 C 0.05835 0.1672 0.62752 0.0
C552 C 0.15581 0.1438 0.68232 0.0
H553 H 0.11707 0.23824 0.82593 0.0
H554 H 0.07997 0.20613 0.77583 0.0
H555 H 0.24004 0.16257 0.71356 0.0
H556 H 0.88461 0.11163 0.61906 0.0
H557 H 0.97355 0.09096 0.65815 0.0
H558 H -0.0084 0.12218 0.70967 0.0
C559 C 0.12939 0.19819 0.78696 0.0
C560 C 0.18662 0.15234 0.71291 0.0
C561 C 0.15106 0.21682 0.81553 0.0
C562 C 0.93356 0.12691 0.62046 0.0
C563 C 0.98447 0.11517 0.64303 0.0
C564 C 0.04676 0.12924 0.70995 0.0
C565 C 0.17107 0.16998 0.77261 0.0
C566 C 0.14635 0.15134 0.74193 0.0
C567 C 0.04492 0.13695 0.64866 0.0
C568 C 0.08431 0.13414 0.68036 0.0
H569 H 0.30631 0.17149 0.82761 0.0
H570 H 0.26872 0.13942 0.77647 0.0
H571 H 0.04559 0.13643 0.76248 0.0
H572 H 0.0173 0.20422 0.59118 0.0
H573 H 0.10435 0.18459 0.63078 0.0
C574 C 0.25998 0.80506 0.69314 0.0
C575 C 0.21949 0.77564 0.67967 0.0
C576 C 0.23823 0.82376 0.72205 0.0
C577 C 0.07967 0.84664 0.76788 0.0
H578 H 0.18642 0.84137 0.84919 0.0
C579 C 0.00577 0.81046 0.9035 0.0
C580 C 0.94006 0.82832 0.9041 0.0
C581 C 0.05721 0.82167 0.88118 0.0
C582 C 0.15632 0.8437 0.82661 0.0
H583 H 0.12481 0.74275 0.68622 0.0
H584 H 0.08694 0.77556 0.73589 0.0
H585 H 0.242 0.82411 0.79657 0.0
H586 H 0.88176 0.87635 0.88639 0.0
H587 H 0.9722 0.8964 0.84783 0.0
H588 H -0.00749 0.86309 0.7974 0.0
C589 C 0.13536 0.78414 0.72418 0.0
C590 C 0.18832 0.83402 0.79654 0.0
C591 C 0.15746 0.76515 0.69584 0.0
C592 C 0.93115 0.86136 0.88591 0.0
C593 C 0.98293 0.87275 0.86366 0.0
C594 C 0.04785 0.85638 0.79774 0.0
C595 C 0.175 0.81381 0.73738 0.0
C596 C 0.14894 0.83351 0.76725 0.0
C597 C 0.0441 0.85116 0.85918 0.0
C598 C 0.08455 0.85301 0.82774 0.0
H599 H 0.30814 0.81373 0.6813 0.0
H600 H 0.2698 0.84643 0.73199 0.0
H601 H 0.04853 0.8468 0.74549 0.0
H602 H 0.01513 0.78546 0.91787 0.0
H603 H 0.10375 0.80446 0.87881 0.0
loop_
_geom_bond_atom_site_label_1
_geom_bond_atom_site_label_2
_geom_bond_distance
_geom_bond_site_symmetry_2
_ccdc_geom_bond_type
C0 O27 1.312 1_554 S
C0 O28 1.208 . S
C1 O22 1.331 . S
C1 O25 1.244 . S
C2 O24 1.264 . S
C2 O26 1.273 . S
Mg3 O5 1.936 . S
Mg3 O12 2.081 . S
Mg3 O14 2.023 . S
Mg3 O18 2.031 . S
Mg3 O27 2.291 . S
Mg4 O5 1.963 . S
Mg4 O15 1.942 . S
Mg4 O16 1.955 . S
Mg4 O23 1.986 . S
O5 Mg3 1.936 . S
O5 Mg4 1.963 . S
O5 Mg6 1.915 1_556 S
Mg6 O5 1.915 1_554 S
Mg6 O7 1.915 . S
Mg6 O11 2.013 1_554 S
Mg6 O17 2.114 . S
Mg6 O21 2.013 . S
Mg6 O27 2.114 1_554 S
O7 Mg6 1.915 . S
O7 Mg8 1.936 . S
O7 Mg9 1.963 . S
Mg8 O7 1.936 . S
Mg8 O17 2.291 . S
Mg8 O22 2.081 . S
Mg8 O24 2.023 . S
Mg8 O28 2.031 . S
Mg9 O7 1.963 . S
Mg9 O13 1.986 . S
Mg9 O25 1.942 . S
Mg9 O26 1.955 . S
C10 O21 1.191 1_556 S
C10 O23 1.307 . S
O11 Mg6 2.013 1_556 S
O11 C30 1.191 1_556 S
O12 Mg3 2.081 . S
O12 C20 1.331 . S
O13 Mg9 1.986 . S
O13 C30 1.307 . S
O14 Mg3 2.023 . S
O14 C29 1.264 . S
O15 Mg4 1.942 . S
O15 C20 1.244 . S
O16 Mg4 1.955 . S
O16 C29 1.273 . S
O17 Mg6 2.114 . S
O17 Mg8 2.291 . S
O17 C19 1.312 1_554 S
O18 Mg3 2.031 . S
O18 C19 1.208 . S
C19 O17 1.312 1_556 S
C19 O18 1.208 . S
C20 O12 1.331 . S
C20 O15 1.244 . S
O21 Mg6 2.013 . S
O21 C10 1.191 1_554 S
O22 C1 1.331 . S
O22 Mg8 2.081 . S
O23 Mg4 1.986 . S
O23 C10 1.307 . S
O24 C2 1.264 . S
O24 Mg8 2.023 . S
O25 C1 1.244 . S
O25 Mg9 1.942 . S
O26 C2 1.273 . S
O26 Mg9 1.955 . S
O27 C0 1.312 1_556 S
O27 Mg3 2.291 . S
O27 Mg6 2.114 1_556 S
O28 C0 1.208 . S
O28 Mg8 2.031 . S
C29 O14 1.264 . S
C29 O16 1.273 . S
C30 O11 1.191 1_554 S
C30 O13 1.307 . S
C31 O58 1.312 1_554 S
C31 O59 1.208 . S
C32 O53 1.331 . S
C32 O56 1.244 . S
C33 O55 1.264 . S
C33 O57 1.273 . S
Mg34 O36 1.936 . S
Mg34 O43 2.081 . S
Mg34 O45 2.023 . S
Mg34 O49 2.031 . S
Mg34 O58 2.291 . S
Mg35 O36 1.963 . S
Mg35 O46 1.942 . S
Mg35 O47 1.955 . S
Mg35 O54 1.986 . S
O36 Mg34 1.936 . S
O36 Mg35 1.963 . S
O36 Mg37 1.915 1_556 S
Mg37 O36 1.915 1_554 S
Mg37 O38 1.915 . S
Mg37 O42 2.013 1_554 S
Mg37 O48 2.114 . S
Mg37 O52 2.013 . S
Mg37 O58 2.114 1_554 S
O38 Mg37 1.915 . S
O38 Mg39 1.936 . S
O38 Mg40 1.963 . S
Mg39 O38 1.936 . S
Mg39 O48 2.291 . S
Mg39 O53 2.081 . S
Mg39 O55 2.023 . S
Mg39 O59 2.031 . S
Mg40 O38 1.963 . S
Mg40 O44 1.986 . S
Mg40 O56 1.942 . S
Mg40 O57 1.955 . S
C41 O52 1.191 1_556 S
C41 O54 1.307 . S
O42 Mg37 2.013 1_556 S
O42 C61 1.191 1_556 S
O43 Mg34 2.081 . S
O43 C51 1.331 . S
O44 Mg40 1.986 . S
O44 C61 1.307 . S
O45 Mg34 2.023 . S
O45 C60 1.264 . S
O46 Mg35 1.942 . S
O46 C51 1.244 . S
O47 Mg35 1.955 . S
O47 C60 1.273 . S
O48 Mg37 2.114 . S
O48 Mg39 2.291 . S
O48 C50 1.312 1_554 S
O49 Mg34 2.031 . S
O49 C50 1.208 . S
C50 O48 1.312 1_556 S
C50 O49 1.208 . S
C51 O43 1.331 . S
C51 O46 1.244 . S
O52 Mg37 2.013 . S
O52 C41 1.191 1_554 S
O53 C32 1.331 . S
O53 Mg39 2.081 . S
O54 Mg35 1.986 . S
O54 C41 1.307 . S
O55 C33 1.264 . S
O55 Mg39 2.023 . S
O56 C32 1.244 . S
O56 Mg40 1.942 . S
O57 C33 1.273 . S
O57 Mg40 1.955 . S
O58 C31 1.312 1_556 S
O58 Mg34 2.291 . S
O58 Mg37 2.114 1_556 S
O59 C31 1.208 . S
O59 Mg39 2.031 . S
C60 O45 1.264 . S
C60 O47 1.273 . S
C61 O42 1.191 1_554 S
C61 O44 1.307 . S
C62 O89 1.312 . S
C62 O90 1.208 . S
C63 O84 1.331 . S
C63 O87 1.244 . S
C64 O86 1.264 . S
C64 O88 1.273 . S
Mg65 O67 1.936 . S
Mg65 O74 2.081 . S
Mg65 O76 2.023 . S
Mg65 O80 2.031 . S
Mg65 O89 2.291 . S
Mg66 O67 1.963 . S
Mg66 O77 1.942 . S
Mg66 O78 1.955 . S
Mg66 O85 1.986 . S
O67 Mg65 1.936 . S
O67 Mg66 1.963 . S
O67 Mg68 1.915 . S
Mg68 O67 1.915 . S
Mg68 O69 1.915 . S
Mg68 O73 2.013 . S
Mg68 O79 2.114 . S
Mg68 O83 2.013 . S
Mg68 O89 2.114 . S
O69 Mg68 1.915 . S
O69 Mg70 1.936 . S
O69 Mg71 1.963 . S
Mg70 O69 1.936 . S
Mg70 O79 2.291 . S
Mg70 O84 2.081 . S
Mg70 O86 2.023 . S
Mg70 O90 2.031 . S
Mg71 O69 1.963 . S
Mg71 O75 1.986 . S
Mg71 O87 1.942 . S
Mg71 O88 1.955 . S
C72 O83 1.191 . S
C72 O85 1.307 . S
O73 Mg68 2.013 . S
O73 C92 1.191 . S
O74 Mg65 2.081 . S
O74 C82 1.331 . S
O75 Mg71 1.986 . S
O75 C92 1.307 . S
O76 Mg65 2.023 . S
O76 C91 1.264 . S
O77 Mg66 1.942 . S
O77 C82 1.244 . S
O78 Mg66 1.955 . S
O78 C91 1.273 . S
O79 Mg68 2.114 . S
O79 Mg70 2.291 . S
O79 C81 1.312 . S
O80 Mg65 2.031 . S
O80 C81 1.208 . S
C81 O79 1.312 . S
C81 O80 1.208 . S
C82 O74 1.331 . S
C82 O77 1.244 . S
O83 Mg68 2.013 . S
O83 C72 1.191 . S
O84 C63 1.331 . S
O84 Mg70 2.081 . S
O85 Mg66 1.986 . S
O85 C72 1.307 . S
O86 C64 1.264 . S
O86 Mg70 2.023 . S
O87 C63 1.244 . S
O87 Mg71 1.942 . S
O88 C64 1.273 . S
O88 Mg71 1.955 . S
O89 C62 1.312 . S
O89 Mg65 2.291 . S
O89 Mg68 2.114 . S
O90 C62 1.208 . S
O90 Mg70 2.031 . S
C91 O76 1.264 . S
C91 O78 1.273 . S
C92 O73 1.191 . S
C92 O75 1.307 . S
C93 O120 1.312 . S
C93 O121 1.208 . S
C94 O115 1.331 . S
C94 O118 1.244 . S
C95 O117 1.264 . S
C95 O119 1.273 . S
Mg96 O98 1.936 . S
Mg96 O105 2.081 . S
Mg96 O107 2.023 . S
Mg96 O111 2.031 . S
Mg96 O120 2.291 . S
Mg97 O98 1.963 . S
Mg97 O108 1.942 . S
Mg97 O109 1.955 . S
Mg97 O116 1.986 . S
O98 Mg96 1.936 . S
O98 Mg97 1.963 . S
O98 Mg99 1.915 . S
Mg99 O98 1.915 . S
Mg99 O100 1.915 . S
Mg99 O104 2.013 . S
Mg99 O110 2.114 . S
Mg99 O114 2.013 . S
Mg99 O120 2.114 . S
O100 Mg99 1.915 . S
O100 Mg101 1.936 . S
O100 Mg102 1.963 . S
Mg101 O100 1.936 . S
Mg101 O110 2.291 . S
Mg101 O115 2.081 . S
Mg101 O117 2.023 . S
Mg101 O121 2.031 . S
Mg102 O100 1.963 . S
Mg102 O106 1.986 . S
Mg102 O118 1.942 . S
Mg102 O119 1.955 . S
C103 O114 1.191 . S
C103 O116 1.307 . S
O104 Mg99 2.013 . S
O104 C123 1.191 . S
O105 Mg96 2.081 . S
O105 C113 1.331 . S
O106 Mg102 1.986 . S
O106 C123 1.307 . S
O107 Mg96 2.023 . S
O107 C122 1.264 . S
O108 Mg97 1.942 . S
O108 C113 1.244 . S
O109 Mg97 1.955 . S
O109 C122 1.273 . S
O110 Mg99 2.114 . S
O110 Mg101 2.291 . S
O110 C112 1.312 . S
O111 Mg96 2.031 . S
O111 C112 1.208 . S
C112 O110 1.312 . S
C112 O111 1.208 . S
C113 O105 1.331 . S
C113 O108 1.244 . S
O114 Mg99 2.013 . S
O114 C103 1.191 . S
O115 C94 1.331 . S
O115 Mg101 2.081 . S
O116 Mg97 1.986 . S
O116 C103 1.307 . S
O117 C95 1.264 . S
O117 Mg101 2.023 . S
O118 C94 1.244 . S
O118 Mg102 1.942 . S
O119 C95 1.273 . S
O119 Mg102 1.955 . S
O120 C93 1.312 . S
O120 Mg96 2.291 . S
O120 Mg99 2.114 . S
O121 C93 1.208 . S
O121 Mg101 2.031 . S
C122 O107 1.264 . S
C122 O109 1.273 . S
C123 O104 1.191 . S
C123 O106 1.307 . S
C124 C125 1.374 . S
C124 C126 1.327 . S
C124 H149 0.950 . S
C125 C124 1.374 . S
C125 C141 1.325 1_554 S
C126 C124 1.327 . S
C126 C145 1.451 . S
C126 H150 0.950 . S
C127 C144 1.574 . S
C127 C146 1.344 1_556 S
C127 H151 0.949 . S
H128 C132 0.949 . S
C129 C130 1.329 1_656 S
C129 C131 1.327 . S
C129 H152 0.950 1_655 S
C130 C129 1.329 1_454 S
C130 C142 1.369 . S
C131 C129 1.327 . S
C131 C147 1.408 1_556 S
C131 H153 0.950 . S
C132 H128 0.949 . S
C132 C140 1.574 . S
C132 C148 1.392 . S
H133 C141 0.950 . S
H134 C139 0.950 . S
H135 C140 0.949 . S
H136 C142 0.950 . S
H137 C143 0.950 . S
H138 C144 0.949 . S
C139 H134 0.950 . S
C139 C141 1.327 . S
C139 C145 1.406 1_556 S
C140 C132 1.574 . S
C140 H135 0.949 . S
C140 C146 1.393 . S
C141 C125 1.325 1_556 S
C141 H133 0.950 . S
C141 C139 1.327 . S
C142 C130 1.369 . S
C142 H136 0.950 . S
C142 C143 1.327 1_455 S
C143 H137 0.950 . S
C143 C142 1.327 1_655 S
C143 C147 1.449 . S
C144 C127 1.574 . S
C144 H138 0.949 . S
C144 C148 1.345 1_556 S
C145 C126 1.451 . S
C145 C139 1.406 1_554 S
C145 C146 1.523 . S
C146 C127 1.344 1_554 S
C146 C140 1.393 . S
C146 C145 1.523 . S
C147 C131 1.408 1_554 S
C147 C143 1.449 . S
C147 C148 1.523 . S
C148 C132 1.392 . S
C148 C144 1.345 1_554 S
C148 C147 1.523 . S
H149 C124 0.950 . S
H150 C126 0.950 . S
H151 C127 0.949 . S
H152 C129 0.950 1_455 S
H153 C131 0.950 . S
C154 C155 1.374 . S
C154 C156 1.327 1_655 S
C154 H179 0.950 . S
C155 C154 1.374 . S
C155 C171 1.324 1_554 S
C156 C154 1.327 1_455 S
C156 C175 1.452 . S
C156 H180 0.950 . S
C157 C174 1.574 . S
C157 C176 1.344 1_556 S
C157 H181 0.949 . S
H158 C162 0.949 . S
C159 C160 1.329 1_556 S
C159 C161 1.327 . S
C159 H182 0.950 . S
C160 C159 1.329 1_554 S
C160 C172 1.369 . S
C161 C159 1.327 . S
C161 C177 1.408 1_556 S
C161 H183 0.950 . S
C162 H158 0.949 . S
C162 C170 1.574 . S
C162 C178 1.392 . S
H163 C171 0.950 . S
H164 C169 0.950 . S
H165 C170 0.949 . S
H166 C172 0.950 . S
H167 C173 0.950 . S
H168 C174 0.949 . S
C169 H164 0.950 . S
C169 C171 1.327 1_455 S
C169 C175 1.406 1_556 S
C170 C162 1.574 . S
C170 H165 0.949 . S
C170 C176 1.393 . S
C171 C155 1.324 1_556 S
C171 H163 0.950 . S
C171 C169 1.327 1_655 S
C172 C160 1.369 . S
C172 H166 0.950 . S
C172 C173 1.327 . S
C173 H167 0.950 . S
C173 C172 1.327 . S
C173 C177 1.449 . S
C174 C157 1.574 . S
C174 H168 0.949 . S
C174 C178 1.345 1_556 S
C175 C156 1.452 . S
C175 C169 1.406 1_554 S
C175 C176 1.523 . S
C176 C157 1.344 1_554 S
C176 C170 1.393 . S
C176 C175 1.523 . S
C177 C161 1.408 1_554 S
C177 C173 1.449 . S
C177 C178 1.523 . S
C178 C162 1.392 . S
C178 C174 1.345 1_554 S
C178 C177 1.523 . S
H179 C154 0.950 . S
H180 C156 0.950 . S
H181 C157 0.949 . S
H182 C159 0.950 . S
H183 C161 0.950 . S
C184 C185 1.349 . S
C184 C186 1.327 . S
C184 H209 0.950 . S
C185 C184 1.349 . S
C185 C201 1.349 . S
C186 C184 1.327 . S
C186 C205 1.429 . S
C186 H210 0.950 . S
C187 C204 1.574 . S
C187 C206 1.368 . S
C187 H211 0.949 . S
H188 C192 0.949 . S
C189 C190 1.349 1_655 S
C189 C191 1.327 . S
C189 H212 0.950 1_655 S
C190 C189 1.349 1_455 S
C190 C202 1.349 . S
C191 C189 1.327 . S
C191 C207 1.429 . S
C191 H213 0.950 . S
C192 H188 0.949 . S
C192 C200 1.574 . S
C192 C208 1.368 . S
H193 C201 0.950 . S
H194 C199 0.950 . S
H195 C200 0.949 . S
H196 C202 0.950 . S
H197 C203 0.950 . S
H198 C204 0.949 . S
C199 H194 0.950 . S
C199 C201 1.327 . S
C199 C205 1.429 . S
C200 C192 1.574 . S
C200 H195 0.949 . S
C200 C206 1.368 . S
C201 C185 1.349 . S
C201 H193 0.950 . S
C201 C199 1.327 . S
C202 C190 1.349 . S
C202 H196 0.950 . S
C202 C203 1.327 1_455 S
C203 H197 0.950 . S
C203 C202 1.327 1_655 S
C203 C207 1.429 . S
C204 C187 1.574 . S
C204 H198 0.949 . S
C204 C208 1.368 . S
C205 C186 1.429 . S
C205 C199 1.429 . S
C205 C206 1.523 . S
C206 C187 1.368 . S
C206 C200 1.368 . S
C206 C205 1.523 . S
C207 C191 1.429 . S
C207 C203 1.429 . S
C207 C208 1.523 . S
C208 C192 1.368 . S
C208 C204 1.368 . S
C208 C207 1.523 . S
H209 C184 0.950 . S
H210 C186 0.950 . S
H211 C187 0.949 . S
H212 C189 0.950 1_455 S
H213 C191 0.950 . S
C214 C215 1.349 . S
C214 C216 1.327 1_655 S
C214 H239 0.950 . S
C215 C214 1.349 . S
C215 C231 1.349 . S
C216 C214 1.327 1_455 S
C216 C235 1.429 . S
C216 H240 0.950 . S
C217 C234 1.574 . S
C217 C236 1.368 . S
C217 H241 0.949 . S
H218 C222 0.949 . S
C219 C220 1.349 . S
C219 C221 1.327 . S
C219 H242 0.950 . S
C220 C219 1.349 . S
C220 C232 1.349 . S
C221 C219 1.327 . S
C221 C237 1.429 . S
C221 H243 0.950 . S
C222 H218 0.949 . S
C222 C230 1.574 . S
C222 C238 1.368 . S
H223 C231 0.950 . S
H224 C229 0.950 . S
H225 C230 0.949 . S
H226 C232 0.950 . S
H227 C233 0.950 . S
H228 C234 0.949 . S
C229 H224 0.950 . S
C229 C231 1.327 1_455 S
C229 C235 1.429 . S
C230 C222 1.574 . S
C230 H225 0.949 . S
C230 C236 1.368 . S
C231 C215 1.349 . S
C231 H223 0.950 . S
C231 C229 1.327 1_655 S
C232 C220 1.349 . S
C232 H226 0.950 . S
C232 C233 1.327 . S
C233 H227 0.950 . S
C233 C232 1.327 . S
C233 C237 1.429 . S
C234 C217 1.574 . S
C234 H228 0.949 . S
C234 C238 1.368 . S
C235 C216 1.429 . S
C235 C229 1.429 . S
C235 C236 1.523 . S
C236 C217 1.368 . S
C236 C230 1.368 . S
C236 C235 1.523 . S
C237 C221 1.429 . S
C237 C233 1.429 . S
C237 C238 1.523 . S
C238 C222 1.368 . S
C238 C234 1.368 . S
C238 C237 1.523 . S
H239 C214 0.950 . S
H240 C216 0.950 . S
H241 C217 0.949 . S
H242 C219 0.950 . S
H243 C221 0.950 . S
C244 C245 1.349 1_556 S
C244 C246 1.327 . S
C244 H269 0.950 . S
C245 C244 1.349 1_554 S
C245 C261 1.349 . S
C246 C244 1.327 . S
C246 C265 1.429 1_556 S
C246 H270 0.950 . S
C247 C264 1.574 . S
C247 C266 1.368 . S
C247 H271 0.949 . S
H248 C252 0.949 . S
C249 C250 1.349 . S
C249 C251 1.327 . S
C249 H272 0.950 . S
C250 C249 1.349 . S
C250 C262 1.349 1_554 S
C251 C249 1.327 . S
C251 C267 1.429 . S
C251 H273 0.950 . S
C252 H248 0.949 . S
C252 C260 1.574 . S
C252 C268 1.368 1_556 S
H253 C261 0.950 . S
H254 C259 0.950 . S
H255 C260 0.949 . S
H256 C262 0.950 . S
H257 C263 0.950 . S
H258 C264 0.949 . S
C259 H254 0.950 . S
C259 C261 1.327 . S
C259 C265 1.429 . S
C260 C252 1.574 . S
C260 H255 0.949 . S
C260 C266 1.368 1_556 S
C261 C245 1.349 . S
C261 H253 0.950 . S
C261 C259 1.327 . S
C262 C250 1.349 1_556 S
C262 H256 0.950 . S
C262 C263 1.327 . S
C263 H257 0.950 . S
C263 C262 1.327 . S
C263 C267 1.429 1_556 S
C264 C247 1.574 . S
C264 H258 0.949 . S
C264 C268 1.368 . S
C265 C246 1.429 1_554 S
C265 C259 1.429 . S
C265 C266 1.523 . S
C266 C247 1.368 . S
C266 C260 1.368 1_554 S
C266 C265 1.523 . S
C267 C251 1.429 . S
C267 C263 1.429 1_554 S
C267 C268 1.523 . S
C268 C252 1.368 1_554 S
C268 C264 1.368 . S
C268 C267 1.523 . S
H269 C244 0.950 . S
H270 C246 0.950 . S
H271 C247 0.949 . S
H272 C249 0.950 . S
H273 C251 0.950 . S
C274 C275 1.349 . S
C274 C276 1.327 . S
C274 H299 0.950 . S
C275 C274 1.349 . S
C275 C291 1.349 . S
C276 C274 1.327 . S
C276 C295 1.429 . S
C276 H300 0.950 . S
C277 C294 1.574 . S
C277 C296 1.368 . S
C277 H301 0.949 . S
H278 C282 0.949 . S
C279 C280 1.349 . S
C279 C281 1.327 . S
C279 H302 0.950 . S
C280 C279 1.349 . S
C280 C292 1.349 . S
C281 C279 1.327 . S
C281 C297 1.429 . S
C281 H303 0.950 . S
C282 H278 0.949 . S
C282 C290 1.574 . S
C282 C298 1.368 . S
H283 C291 0.950 . S
H284 C289 0.950 . S
H285 C290 0.949 . S
H286 C292 0.950 . S
H287 C293 0.950 . S
H288 C294 0.949 . S
C289 H284 0.950 . S
C289 C291 1.327 . S
C289 C295 1.429 . S
C290 C282 1.574 . S
C290 H285 0.949 . S
C290 C296 1.368 . S
C291 C275 1.349 . S
C291 H283 0.950 . S
C291 C289 1.327 . S
C292 C280 1.349 . S
C292 H286 0.950 . S
C292 C293 1.327 . S
C293 H287 0.950 . S
C293 C292 1.327 . S
C293 C297 1.429 . S
C294 C277 1.574 . S
C294 H288 0.949 . S
C294 C298 1.368 . S
C295 C276 1.429 . S
C295 C289 1.429 . S
C295 C296 1.523 . S
C296 C277 1.368 . S
C296 C290 1.368 . S
C296 C295 1.523 . S
C297 C281 1.429 . S
C297 C293 1.429 . S
C297 C298 1.523 . S
C298 C282 1.368 . S
C298 C294 1.368 . S
C298 C297 1.523 . S
H299 C274 0.950 . S
H300 C276 0.950 . S
H301 C277 0.949 . S
H302 C279 0.950 . S
H303 C281 0.950 . S
C304 C305 1.349 1_556 S
C304 C306 1.327 . S
C304 H329 0.950 . S
C305 C304 1.349 1_554 S
C305 C321 1.349 . S
C306 C304 1.327 . S
C306 C325 1.429 1_556 S
C306 H330 0.950 . S
C307 C324 1.574 1_545 S
C307 C326 1.368 1_655 S
C307 H331 0.949 . S
H308 C312 0.949 . S
C309 C310 1.349 . S
C309 C311 1.327 . S
C309 H332 0.950 . S
C310 C309 1.349 . S
C310 C322 1.349 1_554 S
C311 C309 1.327 . S
C311 C327 1.429 . S
C311 H333 0.950 . S
C312 H308 0.949 . S
C312 C320 1.574 1_565 S
C312 C328 1.368 1_456 S
H313 C321 0.950 . S
H314 C319 0.950 . S
H315 C320 0.949 . S
H316 C322 0.950 . S
H317 C323 0.950 . S
H318 C324 0.949 . S
C319 H314 0.950 . S
C319 C321 1.327 . S
C319 C325 1.429 . S
C320 C312 1.574 1_545 S
C320 H315 0.949 . S
C320 C326 1.368 1_556 S
C321 C305 1.349 . S
C321 H313 0.950 . S
C321 C319 1.327 . S
C322 C310 1.349 1_556 S
C322 H316 0.950 . S
C322 C323 1.327 . S
C323 H317 0.950 . S
C323 C322 1.327 . S
C323 C327 1.429 1_556 S
C324 C307 1.574 1_565 S
C324 H318 0.949 . S
C324 C328 1.368 . S
C325 C306 1.429 1_554 S
C325 C319 1.429 . S
C325 C326 1.523 . S
C326 C307 1.368 1_455 S
C326 C320 1.368 1_554 S
C326 C325 1.523 . S
C327 C311 1.429 . S
C327 C323 1.429 1_554 S
C327 C328 1.523 . S
C328 C312 1.368 1_654 S
C328 C324 1.368 . S
C328 C327 1.523 . S
H329 C304 0.950 . S
H330 C306 0.950 . S
H331 C307 0.949 . S
H332 C309 0.950 . S
H333 C311 0.950 . S
C334 C335 1.349 . S
C334 C336 1.327 . S
C334 H359 0.950 . S
C335 C334 1.349 . S
C335 C351 1.349 . S
C336 C334 1.327 . S
C336 C355 1.429 . S
C336 H360 0.950 . S
C337 C354 1.574 1_545 S
C337 C356 1.368 1_455 S
C337 H361 0.949 . S
H338 C342 0.949 . S
C339 C340 1.349 . S
C339 C341 1.327 . S
C339 H362 0.950 . S
C340 C339 1.349 . S
C340 C352 1.349 . S
C341 C339 1.327 . S
C341 C357 1.429 . S
C341 H363 0.950 . S
C342 H338 0.949 . S
C342 C350 1.574 1_565 S
C342 C358 1.368 1_655 S
H343 C351 0.950 . S
H344 C349 0.950 . S
H345 C350 0.949 . S
H346 C352 0.950 . S
H347 C353 0.950 . S
H348 C354 0.949 . S
C349 H344 0.950 . S
C349 C351 1.327 . S
C349 C355 1.429 . S
C350 C342 1.574 1_545 S
C350 H345 0.949 . S
C350 C356 1.368 . S
C351 C335 1.349 . S
C351 H343 0.950 . S
C351 C349 1.327 . S
C352 C340 1.349 . S
C352 H346 0.950 . S
C352 C353 1.327 . S
C353 H347 0.950 . S
C353 C352 1.327 . S
C353 C357 1.429 . S
C354 C337 1.574 1_565 S
C354 H348 0.949 . S
C354 C358 1.368 . S
C355 C336 1.429 . S
C355 C349 1.429 . S
C355 C356 1.523 . S
C356 C337 1.368 1_655 S
C356 C350 1.368 . S
C356 C355 1.523 . S
C357 C341 1.429 . S
C357 C353 1.429 . S
C357 C358 1.523 . S
C358 C342 1.368 1_455 S
C358 C354 1.368 . S
C358 C357 1.523 . S
H359 C334 0.950 . S
H360 C336 0.950 . S
H361 C337 0.949 . S
H362 C339 0.950 . S
H363 C341 0.950 . S
C364 C365 1.349 . S
C364 C366 1.327 . S
C364 H389 0.950 . S
C365 C364 1.349 . S
C365 C381 1.349 . S
C366 C364 1.327 . S
C366 C385 1.429 . S
C366 H390 0.950 . S
C367 C384 1.574 . S
C367 C386 1.368 . S
C367 H391 0.949 . S
H368 C372 0.949 . S
C369 C370 1.349 . S
C369 C371 1.327 . S
C369 H392 0.950 . S
C370 C369 1.349 . S
C370 C382 1.349 . S
C371 C369 1.327 . S
C371 C387 1.429 . S
C371 H393 0.950 . S
C372 H368 0.949 . S
C372 C380 1.574 . S
C372 C388 1.368 . S
H373 C381 0.950 . S
H374 C379 0.950 . S
H375 C380 0.949 . S
H376 C382 0.950 . S
H377 C383 0.950 . S
H378 C384 0.949 . S
C379 H374 0.950 . S
C379 C381 1.327 . S
C379 C385 1.429 . S
C380 C372 1.574 . S
C380 H375 0.949 . S
C380 C386 1.368 . S
C381 C365 1.349 . S
C381 H373 0.950 . S
C381 C379 1.327 . S
C382 C370 1.349 . S
C382 H376 0.950 . S
C382 C383 1.327 . S
C383 H377 0.950 . S
C383 C382 1.327 . S
C383 C387 1.429 . S
C384 C367 1.574 . S
C384 H378 0.949 . S
C384 C388 1.368 . S
C385 C366 1.429 . S
C385 C379 1.429 . S
C385 C386 1.523 . S
C386 C367 1.368 . S
C386 C380 1.368 . S
C386 C385 1.523 . S
C387 C371 1.429 . S
C387 C383 1.429 . S
C387 C388 1.523 . S
C388 C372 1.368 . S
C388 C384 1.368 . S
C388 C387 1.523 . S
H389 C364 0.950 . S
H390 C366 0.950 . S
H391 C367 0.949 . S
H392 C369 0.950 . S
H393 C371 0.950 . S
C394 C395 1.349 . S
C394 C396 1.327 . S
C394 H419 0.950 . S
C395 C394 1.349 . S
C395 C411 1.349 . S
C396 C394 1.327 . S
C396 C415 1.429 . S
C396 H420 0.950 . S
C397 C414 1.574 . S
C397 C416 1.368 . S
C397 H421 0.949 . S
H398 C402 0.949 . S
C399 C400 1.349 . S
C399 C401 1.327 . S
C399 H422 0.950 . S
C400 C399 1.349 . S
C400 C412 1.349 . S
C401 C399 1.327 . S
C401 C417 1.429 . S
C401 H423 0.950 . S
C402 H398 0.949 . S
C402 C410 1.574 . S
C402 C418 1.368 . S
H403 C411 0.950 . S
H404 C409 0.950 . S
H405 C410 0.949 . S
H406 C412 0.950 . S
H407 C413 0.950 . S
H408 C414 0.949 . S
C409 H404 0.950 . S
C409 C411 1.327 . S
C409 C415 1.429 . S
C410 C402 1.574 . S
C410 H405 0.949 . S
C410 C416 1.368 . S
C411 C395 1.349 . S
C411 H403 0.950 . S
C411 C409 1.327 . S
C412 C400 1.349 . S
C412 H406 0.950 . S
C412 C413 1.327 . S
C413 H407 0.950 . S
C413 C412 1.327 . S
C413 C417 1.429 . S
C414 C397 1.574 . S
C414 H408 0.949 . S
C414 C418 1.368 . S
C415 C396 1.429 . S
C415 C409 1.429 . S
C415 C416 1.523 . S
C416 C397 1.368 . S
C416 C410 1.368 . S
C416 C415 1.523 . S
C417 C401 1.429 . S
C417 C413 1.429 . S
C417 C418 1.523 . S
C418 C402 1.368 . S
C418 C414 1.368 . S
C418 C417 1.523 . S
H419 C394 0.950 . S
H420 C396 0.950 . S
H421 C397 0.949 . S
H422 C399 0.950 . S
H423 C401 0.950 . S
C424 C425 1.349 . S
C424 C426 1.327 . S
C424 H449 0.950 . S
C425 C424 1.349 . S
C425 C441 1.349 . S
C426 C424 1.327 . S
C426 C445 1.429 . S
C426 H450 0.950 . S
C427 C444 1.574 . S
C427 C446 1.368 . S
C427 H451 0.949 . S
H428 C432 0.949 . S
C429 C430 1.349 . S
C429 C431 1.327 . S
C429 H452 0.950 . S
C430 C429 1.349 . S
C430 C442 1.349 . S
C431 C429 1.327 . S
C431 C447 1.429 . S
C431 H453 0.950 . S
C432 H428 0.949 . S
C432 C440 1.574 . S
C432 C448 1.368 . S
H433 C441 0.950 . S
H434 C439 0.950 . S
H435 C440 0.949 . S
H436 C442 0.950 . S
H437 C443 0.950 . S
H438 C444 0.949 . S
C439 H434 0.950 . S
C439 C441 1.327 . S
C439 C445 1.429 . S
C440 C432 1.574 . S
C440 H435 0.949 . S
C440 C446 1.368 . S
C441 C425 1.349 . S
C441 H433 0.950 . S
C441 C439 1.327 . S
C442 C430 1.349 . S
C442 H436 0.950 . S
C442 C443 1.327 . S
C443 H437 0.950 . S
C443 C442 1.327 . S
C443 C447 1.429 . S
C444 C427 1.574 . S
C444 H438 0.949 . S
C444 C448 1.368 . S
C445 C426 1.429 . S
C445 C439 1.429 . S
C445 C446 1.523 . S
C446 C427 1.368 . S
C446 C440 1.368 . S
C446 C445 1.523 . S
C447 C431 1.429 . S
C447 C443 1.429 . S
C447 C448 1.523 . S
C448 C432 1.368 . S
C448 C444 1.368 . S
C448 C447 1.523 . S
H449 C424 0.950 . S
H450 C426 0.950 . S
H451 C427 0.949 . S
H452 C429 0.950 . S
H453 C431 0.950 . S
C454 C455 1.349 . S
C454 C456 1.327 . S
C454 H479 0.950 . S
C455 C454 1.349 . S
C455 C471 1.349 . S
C456 C454 1.327 . S
C456 C475 1.429 . S
C456 H480 0.950 . S
C457 C474 1.574 . S
C457 C476 1.368 . S
C457 H481 0.949 . S
H458 C462 0.949 . S
C459 C460 1.349 . S
C459 C461 1.327 . S
C459 H482 0.950 . S
C460 C459 1.349 . S
C460 C472 1.349 . S
C461 C459 1.327 . S
C461 C477 1.429 . S
C461 H483 0.950 . S
C462 H458 0.949 . S
C462 C470 1.574 . S
C462 C478 1.368 . S
H463 C471 0.950 . S
H464 C469 0.950 . S
H465 C470 0.949 . S
H466 C472 0.950 . S
H467 C473 0.950 . S
H468 C474 0.949 . S
C469 H464 0.950 . S
C469 C471 1.327 . S
C469 C475 1.429 . S
C470 C462 1.574 . S
C470 H465 0.949 . S
C470 C476 1.368 . S
C471 C455 1.349 . S
C471 H463 0.950 . S
C471 C469 1.327 . S
C472 C460 1.349 . S
C472 H466 0.950 . S
C472 C473 1.327 . S
C473 H467 0.950 . S
C473 C472 1.327 . S
C473 C477 1.429 . S
C474 C457 1.574 . S
C474 H468 0.949 . S
C474 C478 1.368 . S
C475 C456 1.429 . S
C475 C469 1.429 . S
C475 C476 1.523 . S
C476 C457 1.368 . S
C476 C470 1.368 . S
C476 C475 1.523 . S
C477 C461 1.429 . S
C477 C473 1.429 . S
C477 C478 1.523 . S
C478 C462 1.368 . S
C478 C474 1.368 . S
C478 C477 1.523 . S
H479 C454 0.950 . S
H480 C456 0.950 . S
H481 C457 0.949 . S
H482 C459 0.950 . S
H483 C461 0.950 . S
C484 C485 1.349 . S
C484 C486 1.327 . S
C484 H509 0.950 . S
C485 C484 1.349 . S
C485 C501 1.349 . S
C486 C484 1.327 . S
C486 C505 1.429 . S
C486 H510 0.950 . S
C487 C504 1.574 . S
C487 C506 1.368 . S
C487 H511 0.949 . S
H488 C492 0.949 . S
C489 C490 1.349 . S
C489 C491 1.327 . S
C489 H512 0.950 . S
C490 C489 1.349 . S
C490 C502 1.349 . S
C491 C489 1.327 . S
C491 C507 1.429 . S
C491 H513 0.950 1_655 S
C492 H488 0.949 . S
C492 C500 1.574 . S
C492 C508 1.368 . S
H493 C501 0.950 . S
H494 C499 0.950 . S
H495 C500 0.949 . S
H496 C502 0.950 . S
H497 C503 0.950 . S
H498 C504 0.949 . S
C499 H494 0.950 . S
C499 C501 1.327 . S
C499 C505 1.429 . S
C500 C492 1.574 . S
C500 H495 0.949 . S
C500 C506 1.368 1_655 S
C501 C485 1.349 . S
C501 H493 0.950 . S
C501 C499 1.327 . S
C502 C490 1.349 . S
C502 H496 0.950 . S
C502 C503 1.327 . S
C503 H497 0.950 . S
C503 C502 1.327 . S
C503 C507 1.429 . S
C504 C487 1.574 . S
C504 H498 0.949 . S
C504 C508 1.368 1_455 S
C505 C486 1.429 . S
C505 C499 1.429 . S
C505 C506 1.523 . S
C506 C487 1.368 . S
C506 C500 1.368 1_455 S
C506 C505 1.523 . S
C507 C491 1.429 . S
C507 C503 1.429 . S
C507 C508 1.523 . S
C508 C492 1.368 . S
C508 C504 1.368 1_655 S
C508 C507 1.523 . S
H509 C484 0.950 . S
H510 C486 0.950 . S
H511 C487 0.949 . S
H512 C489 0.950 . S
H513 C491 0.950 1_455 S
C514 C515 1.349 . S
C514 C516 1.327 . S
C514 H539 0.950 . S
C515 C514 1.349 . S
C515 C531 1.349 . S
C516 C514 1.327 . S
C516 C535 1.429 . S
C516 H540 0.950 . S
C517 C534 1.574 . S
C517 C536 1.368 1_455 S
C517 H541 0.949 . S
H518 C522 0.949 . S
C519 C520 1.349 . S
C519 C521 1.327 . S
C519 H542 0.950 . S
C520 C519 1.349 . S
C520 C532 1.349 . S
C521 C519 1.327 . S
C521 C537 1.429 . S
C521 H543 0.950 . S
C522 H518 0.949 . S
C522 C530 1.574 . S
C522 C538 1.368 1_655 S
H523 C531 0.950 . S
H524 C529 0.950 1_455 S
H525 C530 0.949 . S
H526 C532 0.950 . S
H527 C533 0.950 . S
H528 C534 0.949 . S
C529 H524 0.950 1_655 S
C529 C531 1.327 . S
C529 C535 1.429 . S
C530 C522 1.574 . S
C530 H525 0.949 . S
C530 C536 1.368 . S
C531 C515 1.349 . S
C531 H523 0.950 . S
C531 C529 1.327 . S
C532 C520 1.349 . S
C532 H526 0.950 . S
C532 C533 1.327 . S
C533 H527 0.950 . S
C533 C532 1.327 . S
C533 C537 1.429 . S
C534 C517 1.574 . S
C534 H528 0.949 . S
C534 C538 1.368 . S
C535 C516 1.429 . S
C535 C529 1.429 . S
C535 C536 1.523 . S
C536 C517 1.368 1_655 S
C536 C530 1.368 . S
C536 C535 1.523 . S
C537 C521 1.429 . S
C537 C533 1.429 . S
C537 C538 1.523 . S
C538 C522 1.368 1_455 S
C538 C534 1.368 . S
C538 C537 1.523 . S
H539 C514 0.950 . S
H540 C516 0.950 . S
H541 C517 0.949 . S
H542 C519 0.950 . S
H543 C521 0.950 . S
C544 C545 1.349 . S
C544 C546 1.327 . S
C544 H569 0.950 . S
C545 C544 1.349 . S
C545 C561 1.349 . S
C546 C544 1.327 . S
C546 C565 1.429 . S
C546 H570 0.950 . S
C547 C564 1.574 . S
C547 C566 1.368 . S
C547 H571 0.949 . S
H548 C552 0.949 . S
C549 C550 1.349 . S
C549 C551 1.327 . S
C549 H572 0.950 . S
C550 C549 1.349 . S
C550 C562 1.349 . S
C551 C549 1.327 . S
C551 C567 1.429 . S
C551 H573 0.950 . S
C552 H548 0.949 . S
C552 C560 1.574 . S
C552 C568 1.368 . S
H553 C561 0.950 . S
H554 C559 0.950 . S
H555 C560 0.949 . S
H556 C562 0.950 . S
H557 C563 0.950 . S
H558 C564 0.949 . S
C559 H554 0.950 . S
C559 C561 1.327 . S
C559 C565 1.429 . S
C560 C552 1.574 . S
C560 H555 0.949 . S
C560 C566 1.368 1_655 S
C561 C545 1.349 . S
C561 H553 0.950 . S
C561 C559 1.327 . S
C562 C550 1.349 . S
C562 H556 0.950 . S
C562 C563 1.327 . S
C563 H557 0.950 . S
C563 C562 1.327 . S
C563 C567 1.429 . S
C564 C547 1.574 . S
C564 H558 0.949 . S
C564 C568 1.368 1_455 S
C565 C546 1.429 . S
C565 C559 1.429 . S
C565 C566 1.523 . S
C566 C547 1.368 . S
C566 C560 1.368 1_455 S
C566 C565 1.523 . S
C567 C551 1.429 . S
C567 C563 1.429 . S
C567 C568 1.523 . S
C568 C552 1.368 . S
C568 C564 1.368 1_655 S
C568 C567 1.523 . S
H569 C544 0.950 . S
H570 C546 0.950 . S
H571 C547 0.949 . S
H572 C549 0.950 . S
H573 C551 0.950 . S
C574 C575 1.349 . S
C574 C576 1.327 . S
C574 H599 0.950 . S
C575 C574 1.349 . S
C575 C591 1.349 . S
C576 C574 1.327 . S
C576 C595 1.429 . S
C576 H600 0.950 . S
C577 C594 1.574 . S
C577 C596 1.368 . S
C577 H601 0.949 . S
H578 C582 0.949 . S
C579 C580 1.349 . S
C579 C581 1.327 . S
C579 H602 0.950 . S
C580 C579 1.349 . S
C580 C592 1.349 . S
C581 C579 1.327 . S
C581 C597 1.429 . S
C581 H603 0.950 . S
C582 H578 0.949 . S
C582 C590 1.574 . S
C582 C598 1.368 . S
H583 C591 0.950 . S
H584 C589 0.950 . S
H585 C590 0.949 . S
H586 C592 0.950 . S
H587 C593 0.950 . S
H588 C594 0.949 . S
C589 H584 0.950 . S
C589 C591 1.327 . S
C589 C595 1.429 . S
C590 C582 1.574 . S
C590 H585 0.949 . S
C590 C596 1.368 1_655 S
C591 C575 1.349 . S
C591 H583 0.950 . S
C591 C589 1.327 . S
C592 C580 1.349 . S
C592 H586 0.950 . S
C592 C593 1.327 . S
C593 H587 0.950 . S
C593 C592 1.327 . S
C593 C597 1.429 . S
C594 C577 1.574 . S
C594 H588 0.949 . S
C594 C598 1.368 1_455 S
C595 C576 1.429 . S
C595 C589 1.429 . S
C595 C596 1.523 . S
C596 C577 1.368 . S
C596 C590 1.368 1_455 S
C596 C595 1.523 . S
C597 C581 1.429 . S
C597 C593 1.429 . S
C597 C598 1.523 . S
C598 C582 1.368 . S
C598 C594 1.368 1_655 S
C598 C597 1.523 . S
H599 C574 0.950 . S
H600 C576 0.950 . S
H601 C577 0.949 . S
H602 C579 0.950 . S
H603 C581 0.950 . S
C125 C0 1.215 . S
C130 C10 1.192 1_554 S
C155 C31 1.215 . S
C160 C41 1.192 1_554 S
C185 C62 1.208 . S
C190 C72 1.198 . S
C215 C93 1.208 . S
C220 C103 1.198 . S
C245 C50 1.539 1_554 S
C250 C30 1.543 . S
C275 C112 1.539 . S
C280 C92 1.543 . S
C305 C19 1.539 1_554 S
C310 C61 1.543 . S
C335 C123 1.543 . S
C340 C81 1.539 . S
C365 C95 1.107 . S
C370 C1 1.109 . S
C395 C33 1.107 . S
C400 C63 1.109 . S
C425 C91 1.201 . S
C430 C51 1.195 . S
C455 C29 1.201 . S
C460 C113 1.195 . S
C485 C64 1.107 . S
C490 C32 1.109 . S
C515 C94 1.109 . S
C520 C2 1.107 . S
C545 C20 1.195 . S
C550 C122 1.201 . S
C575 C82 1.195 . S
C580 C60 1.201 . S
