# Generated by pormake.
# Topology wmt, (6)-cn, num edge types: 1
# Building blocks:
#     Node 0, Type 0, BuildingBlock: KUMJIN_clean_sbu_0, # of connection points: 6
#     Node 1, Type 0, BuildingBlock: KUMJIN_clean_sbu_0, # of connection points: 6
#     Node 2, Type 0, BuildingBlock: KUMJIN_clean_sbu_0, # of connection points: 6
#     Node 3, Type 0, BuildingBlock: KUMJIN_clean_sbu_0, # of connection points: 6
#     Node 4, Type 0, BuildingBlock: KUMJIN_clean_sbu_0, # of connection points: 6
#     Node 5, Type 0, BuildingBlock: KUMJIN_clean_sbu_0, # of connection points: 6
#     Node 6, Type 0, BuildingBlock: KUMJIN_clean_sbu_0, # of connection points: 6
#     Node 7, Type 0, BuildingBlock: KUMJIN_clean_sbu_0, # of connection points: 6
#     Node 8, Type 0, BuildingBlock: KUMJIN_clean_sbu_0, # of connection points: 6
#     Node 9, Type 0, BuildingBlock: KUMJIN_clean_sbu_0, # of connection points: 6
#     Node 10, Type 0, BuildingBlock: KUMJIN_clean_sbu_0, # of connection points: 6
#     Node 11, Type 0, BuildingBlock: KUMJIN_clean_sbu_0, # of connection points: 6
#     Node 12, Type 0, BuildingBlock: KUMJIN_clean_sbu_0, # of connection points: 6
#     Node 13, Type 0, BuildingBlock: KUMJIN_clean_sbu_0, # of connection points: 6
#     Node 14, Type 0, BuildingBlock: KUMJIN_clean_sbu_0, # of connection points: 6
#     Node 15, Type 0, BuildingBlock: KUMJIN_clean_sbu_0, # of connection points: 6
#     Node 16, Type 0, BuildingBlock: KUMJIN_clean_sbu_0, # of connection points: 6
#     Node 17, Type 0, BuildingBlock: KUMJIN_clean_sbu_0, # of connection points: 6
#     Node 18, Type 0, BuildingBlock: KUMJIN_clean_sbu_0, # of connection points: 6
#     Node 19, Type 0, BuildingBlock: KUMJIN_clean_sbu_0, # of connection points: 6
#     Node 20, Type 0, BuildingBlock: KUMJIN_clean_sbu_0, # of connection points: 6
#     Node 21, Type 0, BuildingBlock: KUMJIN_clean_sbu_0, # of connection points: 6
#     Node 22, Type 0, BuildingBlock: KUMJIN_clean_sbu_0, # of connection points: 6
#     Node 23, Type 0, BuildingBlock: KUMJIN_clean_sbu_0, # of connection points: 6
#     Node 24, Type 0, BuildingBlock: KUMJIN_clean_sbu_0, # of connection points: 6
#     Node 25, Type 0, BuildingBlock: KUMJIN_clean_sbu_0, # of connection points: 6
#     Node 26, Type 0, BuildingBlock: KUMJIN_clean_sbu_0, # of connection points: 6
#     Node 27, Type 0, BuildingBlock: KUMJIN_clean_sbu_0, # of connection points: 6
#     Node 28, Type 0, BuildingBlock: KUMJIN_clean_sbu_0, # of connection points: 6
#     Node 29, Type 0, BuildingBlock: KUMJIN_clean_sbu_0, # of connection points: 6
#     Node 30, Type 0, BuildingBlock: KUMJIN_clean_sbu_0, # of connection points: 6
#     Node 31, Type 0, BuildingBlock: KUMJIN_clean_sbu_0, # of connection points: 6
#     Node 32, Type 0, BuildingBlock: KUMJIN_clean_sbu_0, # of connection points: 6
#     Node 33, Type 0, BuildingBlock: KUMJIN_clean_sbu_0, # of connection points: 6
#     Node 34, Type 0, BuildingBlock: KUMJIN_clean_sbu_0, # of connection points: 6
#     Node 35, Type 0, BuildingBlock: KUMJIN_clean_sbu_0, # of connection points: 6
#     Edge 36, Type (0, 0), None
#     Edge 37, Type (0, 0), None
#     Edge 38, Type (0, 0), None
#     Edge 39, Type (0, 0), None
#     Edge 40, Type (0, 0), None
#     Edge 41, Type (0, 0), None
#     Edge 42, Type (0, 0), None
#     Edge 43, Type (0, 0), None
#     Edge 44, Type (0, 0), None
#     Edge 45, Type (0, 0), None
#     Edge 46, Type (0, 0), None
#     Edge 47, Type (0, 0), None
#     Edge 48, Type (0, 0), None
#     Edge 49, Type (0, 0), None
#     Edge 50, Type (0, 0), None
#     Edge 51, Type (0, 0), None
#     Edge 52, Type (0, 0), None
#     Edge 53, Type (0, 0), None
#     Edge 54, Type (0, 0), None
#     Edge 55, Type (0, 0), None
#     Edge 56, Type (0, 0), None
#     Edge 57, Type (0, 0), None
#     Edge 58, Type (0, 0), None
#     Edge 59, Type (0, 0), None
#     Edge 60, Type (0, 0), None
#     Edge 61, Type (0, 0), None
#     Edge 62, Type (0, 0), None
#     Edge 63, Type (0, 0), None
#     Edge 64, Type (0, 0), None
#     Edge 65, Type (0, 0), None
#     Edge 66, Type (0, 0), None
#     Edge 67, Type (0, 0), None
#     Edge 68, Type (0, 0), None
#     Edge 69, Type (0, 0), None
#     Edge 70, Type (0, 0), None
#     Edge 71, Type (0, 0), None
#     Edge 72, Type (0, 0), None
#     Edge 73, Type (0, 0), None
#     Edge 74, Type (0, 0), None
#     Edge 75, Type (0, 0), None
#     Edge 76, Type (0, 0), None
#     Edge 77, Type (0, 0), None
#     Edge 78, Type (0, 0), None
#     Edge 79, Type (0, 0), None
#     Edge 80, Type (0, 0), None
#     Edge 81, Type (0, 0), None
#     Edge 82, Type (0, 0), None
#     Edge 83, Type (0, 0), None
#     Edge 84, Type (0, 0), None
#     Edge 85, Type (0, 0), None
#     Edge 86, Type (0, 0), None
#     Edge 87, Type (0, 0), None
#     Edge 88, Type (0, 0), None
#     Edge 89, Type (0, 0), None
#     Edge 90, Type (0, 0), None
#     Edge 91, Type (0, 0), None
#     Edge 92, Type (0, 0), None
#     Edge 93, Type (0, 0), None
#     Edge 94, Type (0, 0), None
#     Edge 95, Type (0, 0), None
#     Edge 96, Type (0, 0), None
#     Edge 97, Type (0, 0), None
#     Edge 98, Type (0, 0), None
#     Edge 99, Type (0, 0), None
#     Edge 100, Type (0, 0), None
#     Edge 101, Type (0, 0), None
#     Edge 102, Type (0, 0), None
#     Edge 103, Type (0, 0), None
#     Edge 104, Type (0, 0), None
#     Edge 105, Type (0, 0), None
#     Edge 106, Type (0, 0), None
#     Edge 107, Type (0, 0), None
#     Edge 108, Type (0, 0), None
#     Edge 109, Type (0, 0), None
#     Edge 110, Type (0, 0), None
#     Edge 111, Type (0, 0), None
#     Edge 112, Type (0, 0), None
#     Edge 113, Type (0, 0), None
#     Edge 114, Type (0, 0), None
#     Edge 115, Type (0, 0), None
#     Edge 116, Type (0, 0), None
#     Edge 117, Type (0, 0), None
#     Edge 118, Type (0, 0), None
#     Edge 119, Type (0, 0), None
#     Edge 120, Type (0, 0), None
#     Edge 121, Type (0, 0), None
#     Edge 122, Type (0, 0), None
#     Edge 123, Type (0, 0), None
#     Edge 124, Type (0, 0), None
#     Edge 125, Type (0, 0), None
#     Edge 126, Type (0, 0), None
#     Edge 127, Type (0, 0), None
#     Edge 128, Type (0, 0), None
#     Edge 129, Type (0, 0), None
#     Edge 130, Type (0, 0), None
#     Edge 131, Type (0, 0), None
#     Edge 132, Type (0, 0), None
#     Edge 133, Type (0, 0), None
#     Edge 134, Type (0, 0), None
#     Edge 135, Type (0, 0), None
#     Edge 136, Type (0, 0), None
#     Edge 137, Type (0, 0), None
#     Edge 138, Type (0, 0), None
#     Edge 139, Type (0, 0), None
#     Edge 140, Type (0, 0), None
#     Edge 141, Type (0, 0), None
#     Edge 142, Type (0, 0), None
#     Edge 143, Type (0, 0), None
# Relax obj value: 0.583
# Max RMSD: 0.266
# Mean RMSD: 0.266
data_MOF--net-wmt--node1-KUMJIN_clean_sbu_0--edge1-none
_symmetry_space_group_name_H-M    P1
_symmetry_Int_Tables_number       1
_symmetry_cell_setting            triclinic
loop_
_symmetry_equiv_pos_as_xyz
'x, y, z'
_cell_length_a     41.838464
_cell_length_b     41.843198
_cell_length_c     18.755066
_cell_angle_alpha  89.998975
_cell_angle_beta   90.001604
_cell_angle_gamma 120.00935
loop_
_atom_site_label
_atom_site_type_symbol
_atom_site_fract_x
_atom_site_fract_y
_atom_site_fract_z
_atom_type_partial_charge
Eu0 Eu -0.00351 0.44273 0.21942 0.0
C1 C 0.84675 0.28963 0.11682 0.0
C2 C 0.86219 0.23424 0.09916 0.0
C3 C 0.80181 0.23095 0.07682 0.0
C4 C 0.87267 0.27908 0.11875 0.0
C5 C 0.81142 0.26609 0.09553 0.0
C6 C 0.82437 0.21653 0.09165 0.0
C7 C 0.79285 0.30656 0.15013 0.0
N8 N 0.85558 0.32163 0.15068 0.0
C9 C 0.82887 0.32976 0.16995 0.0
C10 C 0.78429 0.2748 0.11213 0.0
Eu11 Eu -0.08105 0.36599 0.13994 0.0
N12 N 0.89973 0.30096 0.1817 0.0
C13 C -0.07462 0.27506 0.25495 0.0
C14 C 0.8823 0.20906 0.14506 0.0
C15 C -0.086 0.22904 0.22494 0.0
H16 H 0.83634 0.35573 0.19449 0.0
H17 H 0.89835 0.21416 0.18505 0.0
H18 H 0.81026 0.19903 0.13425 0.0
H19 H 0.7714 0.31239 0.1656 0.0
H20 H -0.05623 0.28661 0.30028 0.0
H21 H 0.05753 0.59018 0.22124 0.0
H22 H 0.87316 0.18089 0.11667 0.0
H23 H 0.04161 0.40199 0.23183 0.0
H24 H 0.00806 0.52733 0.19178 0.0
H25 H 0.10314 0.40619 0.20783 0.0
H26 H 0.77315 0.21163 0.08217 0.0
H27 H 0.12203 0.60792 0.20262 0.0
H28 H 0.16776 0.58753 0.17861 0.0
H29 H 0.75554 0.25545 0.10174 0.0
H30 H 0.18064 0.53622 0.17472 0.0
N31 N 0.0426 0.50564 0.18825 0.0
C32 C 0.03559 0.53359 0.19296 0.0
C33 C 0.10043 0.57943 0.19641 0.0
C34 C 0.10839 0.55159 0.18522 0.0
C35 C 0.06396 0.56967 0.20525 0.0
C36 C 0.07881 0.51465 0.18648 0.0
H37 H 0.15688 0.46883 0.18792 0.0
N38 N 0.05768 0.45288 0.20246 0.0
C39 C 0.09918 0.42936 0.20048 0.0
C40 C 0.08636 0.48697 0.19038 0.0
C41 C 0.06447 0.42545 0.21241 0.0
C42 C 0.12915 0.46441 0.18896 0.0
C43 C 0.12306 0.49404 0.18488 0.0
O44 O 0.02376 0.44324 0.32062 0.0
O45 O -0.0645 0.39799 0.25653 0.0
O46 O 0.90402 0.4063 0.17982 0.0
O47 O -0.0424 0.45995 0.15895 0.0
O48 O -0.03861 0.43117 0.32929 0.0
O49 O 0.00804 0.48548 0.29613 0.0
O50 O 0.87786 0.37186 0.08722 0.0
O51 O -0.02583 0.41625 0.12149 0.0
O52 O 0.01407 0.40624 0.11808 0.0
O53 O -0.03857 0.35866 0.06703 0.0
O54 O -0.0607 0.40662 1.04266 0.0
O55 O 0.90112 0.34188 1.03486 0.0
C56 C -0.07215 0.40333 0.32691 0.0
C57 C 0.02318 0.48372 0.4202 0.0
C58 C 0.00128 0.50825 0.51968 0.0
C59 C -0.006 0.48566 0.45727 0.0
C60 C 0.03824 0.52894 0.54003 0.0
C61 C 0.05792 0.50031 0.45202 0.0
C62 C 0.06565 0.52352 0.51021 0.0
C63 C -0.07913 0.43788 0.14632 0.0
C64 C 0.02198 0.47255 0.343 0.0
C65 C 0.15234 0.53032 0.17825 0.0
C66 C 0.14502 0.55933 0.17983 0.0
C67 C -0.02756 0.42918 0.06058 0.0
C68 C 0.86375 0.35783 0.96938 0.0
C69 C 0.88104 0.392 0.93757 0.0
C70 C 0.89157 0.39149 0.86936 0.0
C71 C 0.8712 0.35953 0.82849 0.0
C72 C 0.84193 0.32664 0.9307 0.0
C73 C 0.84178 0.32969 0.85749 0.0
C74 C -0.00168 0.37857 0.06256 0.0
C75 C 0.87611 0.35183 1.03427 0.0
H76 H -0.03387 0.46935 0.43859 0.0
H77 H 0.0465 0.55008 0.57862 0.0
H78 H 0.08032 0.4984 0.42747 0.0
H79 H 0.0937 0.53913 0.52977 0.0
H80 H 0.8985 0.41631 0.96703 0.0
H81 H 0.88339 0.35246 0.78636 0.0
H82 H 0.82996 0.3001 0.95687 0.0
H83 H 0.82663 0.30638 0.82403 0.0
Eu84 Eu 0.40891 0.52406 0.21941 0.0
C85 C 0.56202 0.52745 0.11685 0.0
C86 C 0.61744 0.59828 0.09916 0.0
C87 C 0.62069 0.54118 0.07685 0.0
C88 C 0.57258 0.56392 0.11876 0.0
C89 C 0.58554 0.51565 0.09558 0.0
C90 C 0.63513 0.57816 0.09166 0.0
C91 C 0.54506 0.45662 0.15021 0.0
N92 N 0.53 0.50428 0.15072 0.0
C93 C 0.52186 0.46943 0.17 0.0
C94 C 0.57683 0.47982 0.11222 0.0
Eu95 Eu 0.48566 0.5233 0.13995 0.0
N96 N 0.5507 0.56911 0.18169 0.0
C97 C 0.57663 0.62069 0.2549 0.0
C98 C 0.64263 0.64359 0.14503 0.0
C99 C 0.62266 0.65532 0.22488 0.0
H100 H 0.49589 0.45094 0.19454 0.0
H101 H 0.63753 0.65453 0.18501 0.0
H102 H 0.65264 0.58156 0.13426 0.0
H103 H 0.53922 0.42934 0.16568 0.0
H104 H 0.56509 0.62755 0.30021 0.0
H105 H 0.26145 0.43761 0.22124 0.0
H106 H 0.6708 0.66261 0.11663 0.0
H107 H 0.44965 0.60993 0.23187 0.0
H108 H 0.32431 0.45102 0.19176 0.0
H109 H 0.44546 0.66725 0.20789 0.0
H110 H 0.64001 0.53184 0.0822 0.0
H111 H 0.24371 0.48436 0.20265 0.0
H112 H 0.26409 0.55047 0.17862 0.0
H113 H 0.59617 0.47041 0.10183 0.0
H114 H 0.31541 0.61469 0.17475 0.0
N115 N 0.346 0.50725 0.18823 0.0
C116 C 0.31804 0.47227 0.19295 0.0
C117 C 0.27221 0.49126 0.19642 0.0
C118 C 0.30004 0.52706 0.18522 0.0
C119 C 0.28196 0.46455 0.20525 0.0
C120 C 0.33699 0.53443 0.18646 0.0
H121 H 0.38281 0.65833 0.18797 0.0
N122 N 0.39876 0.57509 0.20246 0.0
C123 C 0.42229 0.64012 0.20052 0.0
C124 C 0.36467 0.56967 0.19037 0.0
C125 C 0.4262 0.60932 0.21243 0.0
C126 C 0.38724 0.63503 0.18899 0.0
C127 C 0.3576 0.59931 0.18489 0.0
O128 O 0.40842 0.55083 0.32061 0.0
O129 O 0.45366 0.50785 0.25653 0.0
O130 O 0.44534 0.46804 0.17982 0.0
O131 O 0.39169 0.46796 0.15895 0.0
O132 O 0.42045 0.50049 0.32927 0.0
O133 O 0.36616 0.49287 0.29613 0.0
O134 O 0.47979 0.47634 0.08722 0.0
O135 O 0.4354 0.52824 0.12149 0.0
O136 O 0.44541 0.57815 0.11808 0.0
O137 O 0.49299 0.57309 0.06703 0.0
O138 O 0.44503 0.50301 1.04266 0.0
O139 O 0.50978 0.52959 1.03487 0.0
C140 C 0.4483 0.49483 0.32691 0.0
C141 C 0.36794 0.50977 0.4202 0.0
C142 C 0.34339 0.46333 0.51968 0.0
C143 C 0.36598 0.47865 0.45727 0.0
C144 C 0.32271 0.4796 0.54003 0.0
C145 C 0.35135 0.52792 0.45201 0.0
C146 C 0.32813 0.51243 0.51019 0.0
C147 C 0.41376 0.45331 0.14632 0.0
C148 C 0.37911 0.51975 0.343 0.0
C149 C 0.32132 0.59229 0.17826 0.0
C150 C 0.2923 0.55594 0.17984 0.0
C151 C 0.42246 0.51357 0.06058 0.0
C152 C 0.49382 0.47627 0.96938 0.0
C153 C 0.45965 0.45938 0.93758 0.0
C154 C 0.46015 0.47041 0.86937 0.0
C155 C 0.49211 0.482 0.82849 0.0
C156 C 0.52501 0.48564 0.93069 0.0
C157 C 0.52196 0.48243 0.85748 0.0
C158 C 0.47308 0.59007 0.06256 0.0
C159 C 0.49983 0.49463 1.03427 0.0
H160 H 0.38229 0.46709 0.43859 0.0
H161 H 0.30157 0.46672 0.57862 0.0
H162 H 0.35326 0.55223 0.42746 0.0
H163 H 0.31252 0.52486 0.52975 0.0
H164 H 0.43533 0.45252 0.96704 0.0
H165 H 0.49918 0.50126 0.78635 0.0
H166 H 0.55156 0.50021 0.95685 0.0
H167 H 0.54526 0.49059 0.82403 0.0
Eu168 Eu 0.32757 0.85518 0.21944 0.0
C169 C 0.32424 0.00492 0.11686 0.0
C170 C 0.2534 -0.0105 0.09915 0.0
C171 C 0.31053 0.04988 0.07688 0.0
C172 C 0.28776 -0.02098 0.11876 0.0
C173 C 0.33605 0.04026 0.0956 0.0
C174 C 0.27353 0.02732 0.09166 0.0
C175 C 0.39508 0.0588 0.15024 0.0
N176 N 0.3474 -0.00392 0.15072 0.0
C177 C 0.38226 0.02278 0.17 0.0
C178 C 0.37189 0.06738 0.11226 0.0
Eu179 Eu 0.32836 0.93271 0.13995 0.0
N180 N 0.28256 -0.04806 0.18169 0.0
C181 C 0.23097 0.92628 0.25489 0.0
C182 C 0.20809 -0.03061 0.14501 0.0
C183 C 0.19635 0.93768 0.22486 0.0
H184 H 0.40075 0.0153 0.19453 0.0
H185 H 0.19714 -0.04666 0.18499 0.0
H186 H 0.27012 0.04144 0.13423 0.0
H187 H 0.42237 0.08025 0.1657 0.0
H188 H 0.22411 0.90789 0.30021 0.0
H189 H 0.41404 0.79427 0.22128 0.0
H190 H 0.18907 -0.02148 0.11659 0.0
H191 H 0.24169 0.81003 0.23185 0.0
H192 H 0.4006 0.84367 0.19168 0.0
H193 H 0.18437 0.74851 0.20788 0.0
H194 H 0.31987 0.07853 0.08223 0.0
H195 H 0.3673 0.72975 0.20274 0.0
H196 H 0.30117 0.68397 0.17875 0.0
H197 H 0.38131 0.09613 0.10185 0.0
H198 H 0.23694 0.67104 0.17485 0.0
N199 N 0.34438 0.8091 0.18825 0.0
C200 C 0.37935 0.81614 0.19294 0.0
C201 C 0.36038 0.75132 0.1965 0.0
C202 C 0.32458 0.74333 0.1853 0.0
C203 C 0.38709 0.7878 0.2053 0.0
C204 C 0.31719 0.77289 0.18651 0.0
H205 H 0.19329 0.69477 0.18801 0.0
N206 N 0.27653 0.79399 0.20247 0.0
C207 C 0.21149 0.75246 0.20052 0.0
C208 C 0.28195 0.76532 0.19041 0.0
C209 C 0.24229 0.78718 0.21241 0.0
C210 C 0.21658 0.72251 0.18901 0.0
C211 C 0.25232 0.72861 0.18494 0.0
O212 O 0.30078 0.82792 0.32062 0.0
O213 O 0.3438 0.91615 0.25654 0.0
O214 O 0.38362 -0.05236 0.17982 0.0
O215 O 0.38368 0.89406 0.15897 0.0
O216 O 0.35115 0.8903 0.32929 0.0
O217 O 0.35874 0.84361 0.29615 0.0
O218 O 0.37532 -0.02621 0.08721 0.0
O219 O 0.3234 0.8775 0.1215 0.0
O220 O 0.27348 0.83759 0.1181 0.0
O221 O 0.27856 0.89023 0.06704 0.0
O222 O 0.34863 0.91236 1.04266 0.0
O223 O 0.32206 -0.04947 1.03488 0.0
C224 C 0.35682 0.92382 0.32692 0.0
C225 C 0.34182 0.82847 0.42021 0.0
C226 C 0.38827 0.85036 0.51968 0.0
C227 C 0.37295 0.85763 0.45728 0.0
C228 C 0.37199 0.8134 0.54002 0.0
C229 C 0.32367 0.79372 0.45201 0.0
C230 C 0.33915 0.78599 0.51019 0.0
C231 C 0.39833 0.93078 0.14632 0.0
C232 C 0.33186 0.82967 0.34301 0.0
C233 C 0.25934 0.69935 0.17835 0.0
C234 C 0.29569 0.7067 0.17994 0.0
C235 C 0.33806 0.87923 0.06059 0.0
C236 C 0.37538 -0.01211 0.96937 0.0
C237 C 0.39228 -0.02938 0.93758 0.0
C238 C 0.38126 -0.03991 0.86936 0.0
C239 C 0.36967 -0.01954 0.82847 0.0
C240 C 0.36602 0.00971 0.93067 0.0
C241 C 0.36924 0.00988 0.85746 0.0
C242 C 0.26157 0.85334 0.06257 0.0
C243 C 0.35702 -0.02446 1.03427 0.0
H244 H 0.38452 0.88551 0.43861 0.0
H245 H 0.38488 0.80514 0.5786 0.0
H246 H 0.29936 0.77133 0.42746 0.0
H247 H 0.32671 0.75794 0.52974 0.0
H248 H 0.39913 -0.04684 0.96704 0.0
H249 H 0.35042 -0.03173 0.78634 0.0
H250 H 0.35144 0.02168 0.95682 0.0
H251 H 0.3611 0.02502 0.82399 0.0
Eu252 Eu 0.41308 0.02616 0.50853 0.0
C253 C 0.25996 0.87643 0.61107 0.0
C254 C 0.20455 0.89185 0.62876 0.0
C255 C 0.20128 0.83148 0.6511 0.0
C256 C 0.2494 0.90233 0.60916 0.0
C257 C 0.23643 0.8411 0.63236 0.0
C258 C 0.18685 0.85404 0.63626 0.0
C259 C 0.2769 0.82254 0.57776 0.0
N260 N 0.29197 0.88526 0.57721 0.0
C261 C 0.30011 0.85856 0.55794 0.0
C262 C 0.24513 0.81398 0.61575 0.0
Eu263 Eu 0.33632 -0.05137 0.58798 0.0
N264 N 0.27128 0.9294 0.54622 0.0
C265 C 0.24537 -0.04495 0.47299 0.0
C266 C 0.17936 0.91196 0.58287 0.0
C267 C 0.19935 -0.05634 0.503 0.0
H268 H 0.32607 0.86603 0.5334 0.0
H269 H 0.18447 0.928 0.54288 0.0
H270 H 0.16935 0.83993 0.59365 0.0
H271 H 0.28273 0.8011 0.56229 0.0
H272 H 0.25692 -0.02655 0.42767 0.0
H273 H 0.56054 0.08717 0.50674 0.0
H274 H 0.15119 0.90281 0.61125 0.0
H275 H 0.37235 0.07129 0.49602 0.0
H276 H 0.49767 0.03771 0.53618 0.0
H277 H 0.37655 0.13281 0.52006 0.0
H278 H 0.18196 0.80283 0.64576 0.0
H279 H 0.57828 0.15166 0.52534 0.0
H280 H 0.55791 0.19739 0.54939 0.0
H281 H 0.22578 0.78522 0.62614 0.0
H282 H 0.5066 0.21029 0.55327 0.0
N283 N 0.47599 0.07225 0.53972 0.0
C284 C 0.50395 0.06524 0.535 0.0
C285 C 0.54979 0.13007 0.53156 0.0
C286 C 0.52196 0.13803 0.54276 0.0
C287 C 0.54003 0.0936 0.52272 0.0
C288 C 0.48501 0.10846 0.5415 0.0
H289 H 0.43921 0.18654 0.54003 0.0
N290 N 0.42324 0.08734 0.5255 0.0
C291 C 0.39972 0.12885 0.52744 0.0
C292 C 0.45733 0.11602 0.5376 0.0
C293 C 0.39581 0.09414 0.5155 0.0
C294 C 0.43477 0.15881 0.539 0.0
C295 C 0.4644 0.15271 0.54309 0.0
O296 O 0.41357 0.05341 0.40733 0.0
O297 O 0.36832 -0.03481 0.47141 0.0
O298 O 0.37664 0.93369 0.54813 0.0
O299 O 0.43029 -0.01273 0.56901 0.0
O300 O 0.40154 -0.00895 0.39867 0.0
O301 O 0.45583 0.03772 0.43181 0.0
O302 O 0.34219 0.90754 0.6407 0.0
O303 O 0.38658 0.00383 0.60645 0.0
O304 O 0.37658 0.04374 0.60985 0.0
O305 O 0.32899 -0.0089 0.6609 0.0
O306 O 0.37693 -0.03103 0.68529 0.0
O307 O 0.31219 0.93079 0.69304 0.0
C308 C 0.37367 -0.04246 0.40102 0.0
C309 C 0.45405 0.05285 0.30774 0.0
C310 C 0.47859 0.03094 0.20826 0.0
C311 C 0.45599 0.02367 0.27066 0.0
C312 C 0.49929 0.0679 0.18792 0.0
C313 C 0.47066 0.08759 0.27593 0.0
C314 C 0.49388 0.09532 0.21775 0.0
C315 C 0.40821 -0.04946 0.58164 0.0
C316 C 0.44288 0.05165 0.38494 0.0
C317 C 0.50069 0.18199 0.54974 0.0
C318 C 0.5297 0.17466 0.54816 0.0
C319 C 0.39951 0.0021 0.66737 0.0
C320 C 0.32815 0.89343 0.75854 0.0
C321 C 0.36232 0.91069 0.79033 0.0
C322 C 0.36182 0.92115 0.85859 0.0
C323 C 0.32986 0.90081 0.89947 0.0
C324 C 0.29695 0.87161 0.79722 0.0
C325 C 0.29999 0.87143 0.87043 0.0
C326 C 0.34891 0.02799 0.66537 0.0
C327 C 0.32215 0.90578 0.69364 0.0
H328 H 0.43966 -0.0042 0.28931 0.0
H329 H 0.52043 0.07616 0.14934 0.0
H330 H 0.46876 0.10999 0.30049 0.0
H331 H 0.5095 0.12336 0.1982 0.0
H332 H 0.38664 0.92817 0.76089 0.0
H333 H 0.32279 0.913 0.94161 0.0
H334 H 0.27041 0.85964 0.77106 0.0
H335 H 0.27668 0.85629 0.90386 0.0
Eu336 Eu 0.8255 0.35722 0.50852 0.0
C337 C -0.02475 0.35389 0.61107 0.0
C338 C -0.04019 0.28305 0.62876 0.0
C339 C 0.0202 0.34016 0.65107 0.0
C340 C -0.05066 0.31742 0.60916 0.0
C341 C 0.01058 0.36569 0.63235 0.0
C342 C -0.00237 0.30317 0.63626 0.0
C343 C 0.02914 0.42473 0.57775 0.0
N344 N -0.03359 0.37706 0.57722 0.0
C345 C -0.00688 0.41191 0.55796 0.0
C346 C 0.03771 0.40153 0.61573 0.0
Eu347 Eu 0.90304 0.35802 0.58798 0.0
N348 N -0.07773 0.31223 0.54621 0.0
C349 C 0.89661 0.26066 0.47298 0.0
C350 C -0.0603 0.23775 0.58288 0.0
C351 C 0.90799 0.22603 0.50301 0.0
H352 H -0.01435 0.4304 0.53343 0.0
H353 H -0.07635 0.22681 0.54289 0.0
H354 H 0.01175 0.29978 0.59368 0.0
H355 H 0.05059 0.45201 0.56229 0.0
H356 H 0.87822 0.25381 0.42766 0.0
H357 H 0.76456 0.44369 0.5067 0.0
H358 H -0.05117 0.21873 0.61128 0.0
H359 H 0.78033 0.27134 0.49606 0.0
H360 H 0.81397 0.43025 0.53626 0.0
H361 H 0.7188 0.21403 0.52009 0.0
H362 H 0.04885 0.3495 0.64574 0.0
H363 H 0.70004 0.39694 0.52526 0.0
H364 H 0.65427 0.33082 0.54928 0.0
H365 H 0.06646 0.41094 0.62615 0.0
H366 H 0.64134 0.26661 0.55318 0.0
N367 N 0.77941 0.37403 0.53971 0.0
C368 C 0.78644 0.409 0.53502 0.0
C369 C 0.72161 0.39003 0.5315 0.0
C370 C 0.71363 0.35423 0.54269 0.0
C371 C 0.7581 0.41673 0.52268 0.0
C372 C 0.7432 0.34685 0.54146 0.0
H373 H 0.66507 0.22295 0.54001 0.0
N374 N 0.7643 0.30619 0.5255 0.0
C375 C 0.72276 0.24116 0.52746 0.0
C376 C 0.73562 0.31161 0.53757 0.0
C377 C 0.75748 0.27196 0.51553 0.0
C378 C 0.69281 0.24625 0.53898 0.0
C379 C 0.69891 0.28198 0.54306 0.0
O380 O 0.79823 0.33044 0.40732 0.0
O381 O 0.88648 0.37346 0.4714 0.0
O382 O -0.08203 0.41328 0.54813 0.0
O383 O 0.86438 0.41333 0.569 0.0
O384 O 0.86061 0.3808 0.39866 0.0
O385 O 0.81391 0.38839 0.4318 0.0
O386 O -0.05588 0.40499 0.64071 0.0
O387 O 0.84782 0.35306 0.60645 0.0
O388 O 0.80791 0.30314 0.60985 0.0
O389 O 0.86055 0.30821 0.66089 0.0
O390 O 0.88269 0.37828 0.6853 0.0
O391 O -0.07913 0.35173 0.69303 0.0
C392 C 0.89413 0.38646 0.40101 0.0
C393 C 0.79877 0.37148 0.30774 0.0
C394 C 0.82067 0.41792 0.20826 0.0
C395 C 0.82795 0.4026 0.27065 0.0
C396 C 0.78371 0.40166 0.18793 0.0
C397 C 0.76402 0.35333 0.27593 0.0
C398 C 0.75629 0.36882 0.21776 0.0
C399 C 0.90111 0.42799 0.58164 0.0
C400 C 0.79998 0.36151 0.38494 0.0
C401 C 0.66965 0.289 0.54967 0.0
C402 C 0.677 0.32535 0.54807 0.0
C403 C 0.84955 0.36772 0.66737 0.0
C404 C -0.04177 0.40504 0.75855 0.0
C405 C -0.05902 0.42196 0.79033 0.0
C406 C -0.06948 0.41101 0.8586 0.0
C407 C -0.04914 0.39939 0.89949 0.0
C408 C -0.01995 0.39568 0.79724 0.0
C409 C -0.01976 0.39892 0.87045 0.0
C410 C 0.82366 0.29123 0.66537 0.0
C411 C -0.05412 0.38669 0.69365 0.0
H412 H 0.85583 0.41414 0.28929 0.0
H413 H 0.77545 0.41455 0.14935 0.0
H414 H 0.74162 0.32903 0.30049 0.0
H415 H 0.72824 0.35639 0.19821 0.0
H416 H -0.07651 0.4288 0.76089 0.0
H417 H -0.06134 0.38014 0.94162 0.0
H418 H -0.00799 0.3811 0.77108 0.0
H419 H -0.00462 0.39075 0.90389 0.0
Eu420 Eu 0.49441 0.4386 0.50852 0.0
C421 C 0.49776 0.59169 0.61103 0.0
C422 C 0.56859 0.64711 0.62876 0.0
C423 C 0.51147 0.65035 0.65105 0.0
C424 C 0.53423 0.60226 0.60914 0.0
C425 C 0.48595 0.61521 0.6323 0.0
C426 C 0.54847 0.6648 0.63625 0.0
C427 C 0.42691 0.57471 0.57766 0.0
N428 N 0.47459 0.55967 0.57718 0.0
C429 C 0.43974 0.55152 0.5579 0.0
C430 C 0.45011 0.60649 0.61564 0.0
Eu431 Eu 0.49363 0.51535 0.58797 0.0
N432 N 0.53944 0.58039 0.54622 0.0
C433 C 0.59103 0.60632 0.47303 0.0
C434 C 0.61391 0.67231 0.58291 0.0
C435 C 0.62565 0.65235 0.50306 0.0
H436 H 0.42125 0.52554 0.53338 0.0
H437 H 0.62486 0.66722 0.54293 0.0
H438 H 0.55187 0.68231 0.59367 0.0
H439 H 0.39963 0.56886 0.5622 0.0
H440 H 0.59789 0.59478 0.42772 0.0
H441 H 0.40789 0.2912 0.50669 0.0
H442 H 0.63293 0.70048 0.61132 0.0
H443 H 0.58028 0.4793 0.49602 0.0
H444 H 0.42135 0.35405 0.53629 0.0
H445 H 0.63759 0.4751 0.52004 0.0
H446 H 0.50213 0.66966 0.64571 0.0
H447 H 0.45462 0.27341 0.52521 0.0
H448 H 0.52074 0.29376 0.54923 0.0
H449 H 0.44069 0.62582 0.62605 0.0
H450 H 0.58498 0.34505 0.55313 0.0
N451 N 0.47758 0.3757 0.53972 0.0
C452 C 0.44259 0.34777 0.53503 0.0
C453 C 0.46155 0.30191 0.53147 0.0
C454 C 0.49735 0.32972 0.54268 0.0
C455 C 0.43485 0.31169 0.52267 0.0
C456 C 0.50475 0.36667 0.54146 0.0
H457 H 0.62865 0.41244 0.53995 0.0
N458 N 0.54543 0.42843 0.5255 0.0
C459 C 0.61046 0.45193 0.52742 0.0
C460 C 0.54 0.39434 0.53756 0.0
C461 C 0.57967 0.45585 0.51552 0.0
C462 C 0.60536 0.41688 0.53894 0.0
C463 C 0.56962 0.38726 0.54303 0.0
O464 O 0.5212 0.43814 0.40733 0.0
O465 O 0.47819 0.48335 0.47139 0.0
O466 O 0.43837 0.47501 0.54813 0.0
O467 O 0.4383 0.42137 0.56899 0.0
O468 O 0.4708 0.45011 0.39868 0.0
O469 O 0.46324 0.39585 0.43179 0.0
O470 O 0.44667 0.50947 0.64071 0.0
O471 O 0.49857 0.46509 0.60644 0.0
O472 O 0.5485 0.4751 0.60984 0.0
O473 O 0.54343 0.52267 0.66089 0.0
O474 O 0.47337 0.47474 0.68529 0.0
O475 O 0.49994 0.53948 0.69302 0.0
C476 C 0.46518 0.47799 0.40101 0.0
C477 C 0.48016 0.39764 0.30773 0.0
C478 C 0.43371 0.37308 0.20826 0.0
C479 C 0.44904 0.39568 0.27065 0.0
C480 C 0.44997 0.35238 0.18793 0.0
C481 C 0.4983 0.38103 0.27594 0.0
C482 C 0.48281 0.35781 0.21777 0.0
C483 C 0.42365 0.44344 0.58163 0.0
C484 C 0.49013 0.40881 0.38493 0.0
C485 C 0.56259 0.35097 0.54963 0.0
C486 C 0.52623 0.32196 0.54804 0.0
C487 C 0.48392 0.45216 0.66736 0.0
C488 C 0.44663 0.52352 0.75855 0.0
C489 C 0.42969 0.48934 0.79032 0.0
C490 C 0.44064 0.48984 0.85859 0.0
C491 C 0.45226 0.52179 0.89949 0.0
C492 C 0.45599 0.55471 0.79724 0.0
C493 C 0.45274 0.55165 0.87045 0.0
C494 C 0.56041 0.50277 0.66536 0.0
C495 C 0.46497 0.52952 0.69364 0.0
H496 H 0.43749 0.41201 0.28929 0.0
H497 H 0.43708 0.33124 0.14936 0.0
H498 H 0.52261 0.38294 0.3005 0.0
H499 H 0.49524 0.34219 0.19823 0.0
H500 H 0.42286 0.46503 0.76088 0.0
H501 H 0.47151 0.52885 0.94162 0.0
H502 H 0.47057 0.58125 0.77109 0.0
H503 H 0.4609 0.57495 0.90389 0.0
Eu504 Eu 0.90299 0.51533 0.08797 0.0
C505 C 0.73565 0.39421 1.03755 0.0
C506 C 0.71372 0.32961 1.04264 0.0
C507 C 0.66969 0.35078 0.04966 0.0
C508 C 0.74326 0.36658 1.04147 0.0
C509 C 0.69893 0.38709 1.04299 0.0
C510 C 0.67707 0.32181 1.04807 0.0
C511 C 0.7227 0.45173 1.0271 0.0
N512 N 0.76429 0.42831 1.02541 0.0
C513 C 0.75744 0.45569 1.01528 0.0
C514 C 0.69277 0.41667 1.03876 0.0
Eu515 Eu 0.82551 0.43857 1.0085 0.0
N516 N 0.77948 0.37565 1.03965 0.0
C517 C 0.78654 0.34774 1.03467 0.0
C518 C 0.72173 0.30183 1.03127 0.0
C519 C 0.75822 0.31166 1.02228 0.0
H520 H 0.78029 0.47917 0.99583 0.0
H521 H 0.76472 0.29119 1.00632 0.0
H522 H 0.65436 0.29359 0.04925 0.0
H523 H 0.7187 0.47486 1.01957 0.0
H524 H 0.81408 0.35405 1.03579 0.0
H525 H -0.0766 0.66717 1.04259 0.0
H526 H 0.70017 0.27333 1.02501 0.0
H527 H -0.01435 0.52588 1.03331 0.0
H528 H 0.87791 0.59457 0.92771 0.0
H529 H 0.05053 0.56924 0.06249 0.0
H530 H 0.64137 0.34483 0.05316 0.0
H531 H -0.05124 0.7006 0.11063 0.0
H532 H 0.01114 0.68194 0.09338 0.0
H533 H 0.66503 0.4122 1.03974 0.0
H534 H 0.04856 0.66989 0.1458 0.0
N535 N -0.07799 0.58037 1.04639 0.0
C536 C 0.8963 0.60618 0.97302 0.0
C537 C -0.06054 0.67232 0.08256 0.0
C538 C -0.04044 0.64717 0.12861 0.0
C539 C 0.9077 0.65223 1.00279 0.0
C540 C -0.05089 0.60233 0.10923 0.0
H541 H 0.06627 0.62608 0.12651 0.0
N542 N -0.0337 0.55985 0.07728 0.0
C543 C 0.02904 0.575 0.07803 0.0
C544 C -0.02495 0.5918 0.11127 0.0
C545 C -0.00694 0.5518 0.05799 0.0
C546 C 0.03753 0.6067 0.11615 0.0
C547 C 0.01037 0.61538 0.13263 0.0
O548 O -0.05585 0.50943 0.14044 0.0
O549 O 0.84773 0.46507 0.10646 0.0
O550 O 0.80788 0.47508 0.10978 0.0
O551 O 0.86052 0.52263 0.16093 0.0
O552 O 0.88265 0.47476 0.18531 0.0
O553 O -0.07911 0.53932 0.19309 0.0
O554 O 0.79841 0.43832 0.90722 0.0
O555 O 0.88652 0.48328 0.97142 0.0
O556 O -0.08206 0.47501 0.04814 0.0
O557 O 0.86437 0.42135 0.06903 0.0
O558 O 0.86064 0.44997 0.89874 0.0
O559 O 0.81384 0.39587 0.93162 0.0
C560 C 0.84952 0.45215 0.16735 0.0
C561 C -0.04169 0.52335 0.25835 0.0
C562 C -0.06961 0.48985 0.35849 0.0
C563 C -0.05915 0.48922 0.29028 0.0
C564 C -0.04917 0.52183 0.39926 0.0
C565 C -0.01975 0.55454 0.29696 0.0
C566 C -0.01964 0.55157 0.3702 0.0
C567 C 0.82363 0.50273 0.16536 0.0
C568 C -0.05407 0.52941 0.19351 0.0
C569 C 0.01992 0.65052 0.15136 0.0
C570 C -0.0027 0.6649 0.13675 0.0
C571 C 0.89415 0.47785 0.90108 0.0
C572 C 0.79886 0.39781 0.80754 0.0
C573 C 0.82802 0.39579 0.77053 0.0
C574 C 0.82072 0.37316 0.70819 0.0
C575 C 0.78376 0.35247 0.68786 0.0
C576 C 0.76412 0.38123 0.77569 0.0
C577 C 0.75637 0.35796 0.71758 0.0
C578 C 0.90109 0.44344 0.08167 0.0
C579 C 0.80004 0.40895 0.88476 0.0
H580 H -0.0767 0.4649 0.26093 0.0
H581 H -0.06128 0.52895 0.44147 0.0
H582 H -0.00772 0.58105 0.27069 0.0
H583 H -0.00443 0.57488 0.4036 0.0
H584 H 0.85589 0.41207 0.78923 0.0
H585 H 0.77549 0.33128 0.64937 0.0
H586 H 0.74173 0.38316 0.80021 0.0
H587 H 0.72832 0.34235 0.69805 0.0
Eu588 Eu 0.3363 0.35796 0.08796 0.0
C589 C 0.45744 0.3118 1.03755 0.0
C590 C 0.52204 0.3545 1.04264 0.0
C591 C 0.50088 0.28929 0.04965 0.0
C592 C 0.48507 0.34706 1.04148 0.0
C593 C 0.46457 0.28221 1.04298 0.0
C594 C 0.52985 0.32566 1.04805 0.0
C595 C 0.39992 0.24132 1.02707 0.0
N596 N 0.42333 0.30633 1.02542 0.0
C597 C 0.39595 0.27209 1.01526 0.0
C598 C 0.43498 0.24646 1.03874 0.0
Eu599 Eu 0.41307 0.35728 1.0085 0.0
N600 N 0.476 0.3742 1.03966 0.0
C601 C 0.5039 0.40917 1.03469 0.0
C602 C 0.54982 0.3903 1.03125 0.0
C603 C 0.53998 0.41695 1.02227 0.0
H604 H 0.37248 0.27146 0.99579 0.0
H605 H 0.56045 0.44392 1.00631 0.0
H606 H 0.55807 0.33119 0.04923 0.0
H607 H 0.37679 0.21418 1.01952 0.0
H608 H 0.49758 0.43039 1.03582 0.0
H609 H 0.18442 0.22652 1.04262 0.0
H610 H 0.57833 0.39726 1.02497 0.0
H611 H 0.32578 0.43008 1.03327 0.0
H612 H 0.25703 0.25361 0.92776 0.0
H613 H 0.28243 0.45161 0.06242 0.0
H614 H 0.50683 0.26693 0.05313 0.0
H615 H 0.15099 0.21845 0.11065 0.0
H616 H 0.16968 0.29951 0.09336 0.0
H617 H 0.43946 0.2232 1.0397 0.0
H618 H 0.18175 0.34897 0.14577 0.0
N619 N 0.27125 0.31193 1.0464 0.0
C620 C 0.24542 0.2604 0.97305 0.0
C621 C 0.17927 0.23743 0.08257 0.0
C622 C 0.20444 0.28269 0.1286 0.0
C623 C 0.19936 0.22576 1.00282 0.0
C624 C 0.2493 0.31709 0.10922 0.0
H625 H 0.22558 0.4105 0.12643 0.0
N626 N 0.29179 0.37675 0.07725 0.0
C627 C 0.27666 0.42435 0.07796 0.0
C628 C 0.25983 0.35355 0.11124 0.0
C629 C 0.29985 0.41157 0.05794 0.0
C630 C 0.24494 0.40113 0.11607 0.0
C631 C 0.23626 0.36529 0.13259 0.0
O632 O 0.34219 0.40501 0.14044 0.0
O633 O 0.38656 0.35298 0.10646 0.0
O634 O 0.37655 0.30312 0.10977 0.0
O635 O 0.32901 0.30821 0.16092 0.0
O636 O 0.37688 0.37821 0.1853 0.0
O637 O 0.31231 0.35186 0.19308 0.0
O638 O 0.41329 0.33042 0.90723 0.0
O639 O 0.36835 0.37355 0.97141 0.0
O640 O 0.37663 0.41324 0.04813 0.0
O641 O 0.43029 0.41335 0.06903 0.0
O642 O 0.40169 0.38102 0.89876 0.0
O643 O 0.45577 0.3883 0.93161 0.0
C644 C 0.39948 0.3677 0.16734 0.0
C645 C 0.32828 0.40525 0.25834 0.0
C646 C 0.36179 0.41085 0.35848 0.0
C647 C 0.36241 0.42193 0.29027 0.0
C648 C 0.32981 0.39931 0.39925 0.0
C649 C 0.29709 0.396 0.29695 0.0
C650 C 0.30007 0.3991 0.3702 0.0
C651 C 0.34891 0.29122 0.16536 0.0
C652 C 0.32221 0.38681 0.1935 0.0
C653 C 0.20111 0.3397 0.15133 0.0
C654 C 0.18672 0.3027 0.13674 0.0
C655 C 0.37379 0.38663 0.90108 0.0
C656 C 0.45382 0.37138 0.80754 0.0
C657 C 0.45584 0.40255 0.77053 0.0
C658 C 0.47847 0.41789 0.70818 0.0
C659 C 0.49916 0.40162 0.68786 0.0
C660 C 0.47039 0.35323 0.77569 0.0
C661 C 0.49366 0.36874 0.71759 0.0
C662 C 0.4082 0.42797 0.08166 0.0
C663 C 0.44268 0.36142 0.88476 0.0
H664 H 0.38674 0.42871 0.26092 0.0
H665 H 0.32268 0.38008 0.44147 0.0
H666 H 0.27057 0.38152 0.27069 0.0
H667 H 0.27675 0.39099 0.4036 0.0
H668 H 0.43957 0.41415 0.78923 0.0
H669 H 0.52035 0.41454 0.64937 0.0
H670 H 0.46845 0.3289 0.80021 0.0
H671 H 0.50927 0.35631 0.69805 0.0
Eu672 Eu 0.49367 -0.05136 0.08796 0.0
C673 C 0.53986 0.11596 1.03752 0.0
C674 C 0.49715 0.13783 1.04256 0.0
C675 C 0.56237 0.1819 0.04956 0.0
C676 C 0.5046 0.10832 1.04144 0.0
C677 C 0.56945 0.15268 1.04293 0.0
C678 C 0.52599 0.17449 1.04795 0.0
C679 C 0.61035 0.12894 1.02708 0.0
N680 N 0.54534 0.08733 1.02541 0.0
C681 C 0.57958 0.0942 1.01529 0.0
C682 C 0.60521 0.15886 1.03871 0.0
Eu683 Eu 0.49439 0.0261 1.00848 0.0
N684 N 0.47747 0.07209 1.03965 0.0
C685 C 0.44248 0.065 1.0347 0.0
C686 C 0.46134 0.12978 1.03117 0.0
C687 C 0.4347 0.09328 1.02223 0.0
H688 H 0.58022 0.07137 0.99582 0.0
H689 H 0.40771 0.08674 1.00627 0.0
H690 H 0.52046 0.19718 0.0491 0.0
H691 H 0.63749 0.13295 1.01954 0.0
H692 H 0.42128 0.03746 1.03591 0.0
H693 H 0.6251 0.92821 1.04264 0.0
H694 H 0.45437 0.15132 1.02487 0.0
H695 H 0.42153 0.86599 1.03329 0.0
H696 H 0.59802 -0.02629 0.92776 0.0
H697 H 0.39998 0.8011 0.06241 0.0
H698 H 0.58473 0.21023 0.05303 0.0
H699 H 0.63317 0.90285 0.11069 0.0
H700 H 0.5521 0.84046 0.09339 0.0
H701 H 0.62848 0.18661 1.03967 0.0
H702 H 0.5026 0.80305 0.14575 0.0
N703 N 0.53968 0.92961 1.0464 0.0
C704 C 0.59122 -0.04468 0.97306 0.0
C705 C 0.61418 0.91214 0.08259 0.0
C706 C 0.56892 0.89204 0.12861 0.0
C707 C 0.62586 -0.05609 1.00284 0.0
C708 C 0.53452 0.90249 0.10922 0.0
H709 H 0.44107 0.78535 0.12643 0.0
N710 N 0.47485 0.88532 0.07726 0.0
C711 C 0.42724 0.82259 0.07794 0.0
C712 C 0.49805 0.87657 0.11124 0.0
C713 C 0.44003 0.85857 0.05795 0.0
C714 C 0.45045 0.81409 0.11604 0.0
C715 C 0.4863 0.84124 0.13257 0.0
O716 O 0.44661 0.90748 0.14045 0.0
O717 O 0.49867 0.00388 0.10645 0.0
O718 O 0.54853 0.04374 0.10976 0.0
O719 O 0.54344 -0.00889 0.16092 0.0
O720 O 0.47345 -0.03102 0.18531 0.0
O721 O 0.49978 0.93075 0.19307 0.0
O722 O 0.52126 0.05319 0.90722 0.0
O723 O 0.47809 -0.03489 0.9714 0.0
O724 O 0.43839 0.93369 0.04814 0.0
O725 O 0.4383 -0.01275 0.06901 0.0
O726 O 0.47062 -0.00904 0.89875 0.0
O727 O 0.46338 0.0378 0.93159 0.0
C728 C 0.48396 0.00209 0.16734 0.0
C729 C 0.44639 0.89334 0.25836 0.0
C730 C 0.44078 0.92123 0.35849 0.0
C731 C 0.4297 0.91078 0.29028 0.0
C732 C 0.45231 0.90079 0.39927 0.0
C733 C 0.45563 0.87139 0.29698 0.0
C734 C 0.45252 0.87127 0.37022 0.0
C735 C 0.56043 0.02799 0.16536 0.0
C736 C 0.46483 0.90571 0.1935 0.0
C737 C 0.51188 0.83169 0.15131 0.0
C738 C 0.54889 0.8543 0.13674 0.0
C739 C 0.46501 -0.04254 0.90107 0.0
C740 C 0.48031 0.05278 0.80753 0.0
C741 C 0.44913 0.02363 0.77052 0.0
C742 C 0.43379 0.03093 0.70819 0.0
C743 C 0.45007 0.06789 0.68787 0.0
C744 C 0.49847 0.08752 0.7757 0.0
C745 C 0.48296 0.09527 0.7176 0.0
C746 C 0.42367 -0.04946 0.08166 0.0
C747 C 0.49027 0.05159 0.88475 0.0
H748 H 0.42293 0.92832 0.26092 0.0
H749 H 0.47154 0.91291 0.44149 0.0
H750 H 0.47012 0.85937 0.27073 0.0
H751 H 0.46061 0.85606 0.40364 0.0
H752 H 0.43753 -0.00424 0.78921 0.0
H753 H 0.43715 0.07616 0.64939 0.0
H754 H 0.5228 0.1099 0.80022 0.0
H755 H 0.4954 0.12332 0.69808 0.0
Eu756 Eu 0.48567 0.93265 0.64001 0.0
C757 C 0.36451 0.76532 0.69038 0.0
C758 C 0.29991 0.74342 0.68529 0.0
C759 C 0.32107 0.69938 0.67826 0.0
C760 C 0.33689 0.77295 0.68645 0.0
C761 C 0.35738 0.7286 0.68493 0.0
C762 C 0.2921 0.70677 0.67985 0.0
C763 C 0.42203 0.75236 0.70088 0.0
N764 N 0.39863 0.79396 0.70253 0.0
C765 C 0.426 0.7871 0.71271 0.0
C766 C 0.38696 0.72244 0.68918 0.0
Eu767 Eu 0.4089 0.85518 0.71945 0.0
N768 N 0.34597 0.80917 0.68829 0.0
C769 C 0.31806 0.81624 0.69326 0.0
C770 C 0.27214 0.75144 0.69667 0.0
C771 C 0.28198 0.78793 0.70565 0.0
H772 H 0.44947 0.80993 0.73222 0.0
H773 H 0.26152 0.79444 0.72162 0.0
H774 H 0.26388 0.68407 0.67867 0.0
H775 H 0.44515 0.74835 0.70843 0.0
H776 H 0.32439 0.84377 0.69214 0.0
H777 H 0.63753 -0.04693 0.68539 0.0
H778 H 0.24363 0.72989 0.70295 0.0
H779 H 0.49621 0.01529 0.69469 0.0
H780 H 0.56493 0.90757 0.80025 0.0
H781 H 0.53957 0.08017 0.66552 0.0
H782 H 0.31511 0.67106 0.67476 0.0
H783 H 0.67098 -0.02156 0.61736 0.0
H784 H 0.65228 0.0408 0.63464 0.0
H785 H 0.38248 0.6947 0.6882 0.0
H786 H 0.64024 0.07821 0.58217 0.0
N787 N 0.55072 -0.04834 0.68159 0.0
C788 C 0.57653 0.92596 0.75495 0.0
C789 C 0.64269 -0.03087 0.64543 0.0
C790 C 0.61753 -0.01078 0.59939 0.0
C791 C 0.62259 0.93737 0.72518 0.0
C792 C 0.57268 -0.02123 0.61877 0.0
H793 H 0.59642 0.09591 0.6015 0.0
N794 N 0.5302 -0.00405 0.65073 0.0
C795 C 0.54533 0.05869 0.64998 0.0
C796 C 0.56215 0.0047 0.61674 0.0
C797 C 0.52214 0.02271 0.67002 0.0
C798 C 0.57705 0.06718 0.61187 0.0
C799 C 0.58573 0.04002 0.59538 0.0
O800 O 0.47978 -0.0262 0.58754 0.0
O801 O 0.43541 0.8774 0.6215 0.0
O802 O 0.44541 0.83755 0.6182 0.0
O803 O 0.49297 0.89018 0.56705 0.0
O804 O 0.44512 0.91232 0.54264 0.0
O805 O 0.50968 -0.04945 0.53491 0.0
O806 O 0.40867 0.8281 0.82073 0.0
O807 O 0.45362 0.91617 0.75655 0.0
O808 O 0.44535 -0.0524 0.67982 0.0
O809 O 0.39168 0.89404 0.65891 0.0
O810 O 0.42028 0.89031 0.8292 0.0
O811 O 0.3662 0.8435 0.79635 0.0
C812 C 0.4225 0.8792 0.5606 0.0
C813 C 0.49371 -0.01204 0.46964 0.0
C814 C 0.4602 -0.03986 0.36946 0.0
C815 C 0.45957 -0.02947 0.43772 0.0
C816 C 0.49218 -0.01944 0.32869 0.0
C817 C 0.52491 0.00991 0.43104 0.0
C818 C 0.52194 0.01005 0.35779 0.0
C819 C 0.47306 0.85329 0.56261 0.0
C820 C 0.49977 -0.02441 0.53449 0.0
C821 C 0.62087 0.04957 0.57663 0.0
C822 C 0.63525 0.02696 0.59125 0.0
C823 C 0.44819 0.9238 0.82689 0.0
C824 C 0.36814 0.82853 0.92043 0.0
C825 C 0.36614 0.85768 0.95745 0.0
C826 C 0.3435 0.85039 1.01978 0.0
C827 C 0.3228 0.81343 1.0401 0.0
C828 C 0.35155 0.79379 0.95226 0.0
C829 C 0.32828 0.78604 1.01037 0.0
C830 C 0.41377 0.93075 0.64628 0.0
C831 C 0.37929 0.82971 0.8432 0.0
H832 H 0.43524 -0.04704 0.46706 0.0
H833 H 0.49929 -0.03156 0.28647 0.0
H834 H 0.55142 0.02194 0.4573 0.0
H835 H 0.54526 0.02525 0.32441 0.0
H836 H 0.38244 0.88556 0.93878 0.0
H837 H 0.30161 0.80516 0.07858 0.0
H838 H 0.35348 0.7714 0.92774 0.0
H839 H 0.31266 0.75799 1.0299 0.0
Eu840 Eu -0.08102 0.52333 0.64002 0.0
C841 C 0.08632 0.56954 0.6904 0.0
C842 C 0.10821 0.52683 0.68535 0.0
C843 C 0.15227 0.59204 0.67832 0.0
C844 C 0.07868 0.53428 0.68649 0.0
C845 C 0.12305 0.59913 0.68497 0.0
C846 C 0.14486 0.55567 0.67993 0.0
C847 C 0.09931 0.64002 0.70087 0.0
N848 N 0.05768 0.57501 0.70253 0.0
C849 C 0.06456 0.60925 0.71269 0.0
C850 C 0.12922 0.63487 0.6892 0.0
Eu851 Eu -0.00355 0.52405 0.71947 0.0
N852 N 0.04246 0.50714 0.6883 0.0
C853 C 0.03537 0.47216 0.69324 0.0
C854 C 0.10017 0.49103 0.69673 0.0
C855 C 0.06367 0.46439 0.70569 0.0
H856 H 0.04173 0.60989 0.73219 0.0
H857 H 0.05713 0.43741 0.72165 0.0
H858 H 0.16756 0.55015 0.67876 0.0
H859 H 0.10332 0.66715 0.70841 0.0
H860 H 0.00783 0.45096 0.69207 0.0
H861 H 0.89856 0.65475 0.68538 0.0
H862 H 0.12171 0.48407 0.70301 0.0
H863 H 0.83631 0.45119 0.69467 0.0
H864 H -0.05595 0.62766 0.80026 0.0
H865 H 0.77143 0.42966 0.66552 0.0
H866 H 0.1806 0.6144 0.67483 0.0
H867 H 0.8732 0.66283 0.61733 0.0
H868 H 0.81081 0.58177 0.63461 0.0
H869 H 0.15698 0.65814 0.68822 0.0
H870 H 0.77339 0.53229 0.5822 0.0
N871 N 0.89995 0.56934 0.6816 0.0
C872 C -0.07434 0.62087 0.75495 0.0
C873 C 0.8825 0.64384 0.64542 0.0
C874 C 0.86239 0.59859 0.59938 0.0
C875 C -0.08574 0.65551 0.72518 0.0
C876 C 0.87284 0.56419 0.61877 0.0
H877 H 0.75568 0.47076 0.6015 0.0
N878 N 0.85566 0.50453 0.65072 0.0
C879 C 0.79291 0.45691 0.64999 0.0
C880 C 0.84691 0.52773 0.61674 0.0
C881 C 0.8289 0.4697 0.67001 0.0
C882 C 0.78442 0.48013 0.61189 0.0
C883 C 0.81158 0.51598 0.59539 0.0
O884 O 0.87782 0.47627 0.58753 0.0
O885 O -0.02577 0.52833 0.62151 0.0
O886 O 0.01409 0.5782 0.6182 0.0
O887 O -0.03855 0.5731 0.56706 0.0
O888 O -0.06069 0.50312 0.54264 0.0
O889 O 0.90107 0.52943 0.53492 0.0
O890 O 0.02355 0.55093 0.82074 0.0
O891 O -0.06455 0.50776 0.75656 0.0
O892 O 0.90403 0.46805 0.67981 0.0
O893 O -0.0424 0.46797 0.65893 0.0
O894 O -0.03868 0.50029 0.82921 0.0
O895 O 0.00816 0.49306 0.79636 0.0
C896 C -0.02757 0.51363 0.56061 0.0
C897 C 0.86367 0.47606 0.46963 0.0
C898 C 0.89147 0.47035 0.36946 0.0
C899 C 0.88109 0.45934 0.43772 0.0
C900 C 0.87106 0.48191 0.32867 0.0
C901 C 0.84172 0.4853 0.43102 0.0
C902 C 0.84157 0.48218 0.35777 0.0
C903 C -0.00166 0.59009 0.56262 0.0
C904 C 0.87604 0.49448 0.53449 0.0
C905 C 0.80203 0.54156 0.57665 0.0
C906 C 0.82465 0.57857 0.59124 0.0
C907 C -0.07218 0.4947 0.8269 0.0
C908 C 0.02314 0.50998 0.92043 0.0
C909 C -0.00602 0.47881 0.95746 0.0
C910 C 0.00128 0.46346 1.01978 0.0
C911 C 0.03824 0.47973 1.04009 0.0
C912 C 0.05788 0.52813 0.95226 0.0
C913 C 0.06563 0.51261 1.01035 0.0
C914 C -0.07912 0.45334 0.64629 0.0
C915 C 0.02195 0.51994 0.84321 0.0
H916 H 0.89866 0.45259 0.46706 0.0
H917 H 0.88318 0.50114 0.28646 0.0
H918 H 0.8297 0.4998 0.45727 0.0
H919 H 0.82637 0.49029 0.32438 0.0
H920 H -0.0339 0.46723 0.93879 0.0
H921 H 0.04651 0.46681 0.07856 0.0
H922 H 0.08028 0.55246 0.92773 0.0
H923 H 0.09369 0.52504 1.02988 0.0
Eu924 Eu 0.3283 0.36595 0.64002 0.0
C925 C 0.28214 0.4871 0.6904 0.0
C926 C 0.32487 0.55169 0.68536 0.0
C927 C 0.25966 0.53056 0.67836 0.0
C928 C 0.3174 0.51472 0.68649 0.0
C929 C 0.25256 0.49425 0.68499 0.0
C930 C 0.29604 0.55952 0.67997 0.0
C931 C 0.21165 0.42961 0.70089 0.0
N932 N 0.27665 0.45299 0.70253 0.0
C933 C 0.24241 0.42562 0.71269 0.0
C934 C 0.2168 0.46467 0.68923 0.0
Eu935 Eu 0.3276 0.44271 0.71947 0.0
N936 N 0.34453 0.50563 0.68828 0.0
C937 C 0.37952 0.53351 0.69323 0.0
C938 C 0.36068 0.57945 0.69676 0.0
C939 C 0.38732 0.56959 0.7057 0.0
H940 H 0.24176 0.40216 0.73221 0.0
H941 H 0.41431 0.59003 0.72165 0.0
H942 H 0.30158 0.58774 0.67882 0.0
H943 H 0.18451 0.40648 0.70845 0.0
H944 H 0.40072 0.52717 0.69202 0.0
H945 H 0.19686 0.21407 0.68534 0.0
H946 H 0.36766 0.60796 0.70306 0.0
H947 H 0.40044 0.35546 0.69471 0.0
H948 H 0.22393 0.28666 0.8002 0.0
H949 H 0.42199 0.31212 0.6656 0.0
H950 H 0.2373 0.53652 0.67489 0.0
H951 H 0.1888 0.18065 0.6173 0.0
H952 H 0.26987 0.19934 0.63462 0.0
H953 H 0.19354 0.46916 0.68827 0.0
H954 H 0.31936 0.21143 0.58222 0.0
N955 N 0.28227 0.3009 0.68159 0.0
C956 C 0.23073 0.27506 0.75491 0.0
C957 C 0.20778 0.20892 0.64539 0.0
C958 C 0.25304 0.23409 0.59938 0.0
C959 C 0.19609 0.22901 0.72513 0.0
C960 C 0.28744 0.27895 0.61878 0.0
H961 H 0.38089 0.25526 0.60159 0.0
N962 N 0.34711 0.32145 0.65075 0.0
C963 C 0.39473 0.30634 0.65007 0.0
C964 C 0.32391 0.28949 0.61677 0.0
C965 C 0.38193 0.32953 0.67006 0.0
C966 C 0.37151 0.27462 0.61197 0.0
C967 C 0.33567 0.26593 0.59544 0.0
O968 O 0.37535 0.37185 0.58753 0.0
O969 O 0.32331 0.4162 0.62151 0.0
O970 O 0.27344 0.4062 0.6182 0.0
O971 O 0.27853 0.35865 0.56706 0.0
O972 O 0.34851 0.4065 0.54264 0.0
O973 O 0.32218 0.34194 0.53493 0.0
O974 O 0.30072 0.44291 0.82073 0.0
O975 O 0.34387 0.398 0.75657 0.0
O976 O 0.38359 0.40629 0.67982 0.0
O977 O 0.38368 0.45995 0.65893 0.0
O978 O 0.35138 0.43135 0.82919 0.0
O979 O 0.35859 0.48541 0.79636 0.0
C980 C 0.33802 0.42911 0.56061 0.0
C981 C 0.37556 0.35792 0.46963 0.0
C982 C 0.38128 0.39143 0.36946 0.0
C983 C 0.39228 0.39206 0.43772 0.0
C984 C 0.36972 0.35946 0.32867 0.0
C985 C 0.36632 0.32673 0.43101 0.0
C986 C 0.36945 0.32971 0.35777 0.0
C987 C 0.26155 0.37855 0.56262 0.0
C988 C 0.35713 0.35186 0.53449 0.0
C989 C 0.31008 0.23079 0.57667 0.0
C990 C 0.27307 0.21639 0.59125 0.0
C991 C 0.35695 0.40344 0.8269 0.0
C992 C 0.34166 0.48346 0.92043 0.0
C993 C 0.37283 0.48547 0.95745 0.0
C994 C 0.38818 0.50812 1.01977 0.0
C995 C 0.37192 0.52881 1.04008 0.0
C996 C 0.32351 0.50004 0.95225 0.0
C997 C 0.33904 0.52332 1.01034 0.0
C998 C 0.39831 0.43786 0.64629 0.0
C999 C 0.33171 0.47231 0.84321 0.0
H1000 H 0.39904 0.41638 0.46707 0.0
H1001 H 0.35049 0.35235 0.28646 0.0
H1002 H 0.35182 0.30021 0.45726 0.0
H1003 H 0.36134 0.3064 0.32437 0.0
H1004 H 0.38441 0.46918 0.9388 0.0
H1005 H 0.38484 0.55001 0.07855 0.0
H1006 H 0.29919 0.49811 0.92772 0.0
H1007 H 0.3266 0.53893 1.02986 0.0
Eu1008 Eu 0.66316 0.77607 0.55275 0.0
C1009 C 0.51342 0.62297 0.45016 0.0
C1010 C 0.52886 0.56757 0.43249 0.0
C1011 C 0.46847 0.56428 0.41016 0.0
C1012 C 0.53933 0.61241 0.45209 0.0
C1013 C 0.47809 0.59943 0.42886 0.0
C1014 C 0.49103 0.54986 0.42498 0.0
C1015 C 0.45952 0.6399 0.48347 0.0
N1016 N 0.52225 0.65497 0.48402 0.0
C1017 C 0.49554 0.6631 0.50328 0.0
C1018 C 0.45096 0.60814 0.44547 0.0
Eu1019 Eu 0.58562 0.69932 0.47327 0.0
N1020 N 0.5664 0.6343 0.51503 0.0
C1021 C 0.59205 0.60839 0.58828 0.0
C1022 C 0.54897 0.54239 0.47839 0.0
C1023 C 0.58067 0.56238 0.55827 0.0
H1024 H 0.50301 0.68907 0.52783 0.0
H1025 H 0.56501 0.5475 0.51838 0.0
H1026 H 0.47692 0.53236 0.46758 0.0
H1027 H 0.43807 0.64573 0.49894 0.0
H1028 H 0.61044 0.61994 0.63361 0.0
H1029 H 0.72421 0.92352 0.55457 0.0
H1030 H 0.53982 0.51422 0.45 0.0
H1031 H 0.70828 0.73532 0.56517 0.0
H1032 H 0.67473 0.86067 0.52512 0.0
H1033 H 0.7698 0.73952 0.54116 0.0
H1034 H 0.43982 0.54497 0.41551 0.0
H1035 H 0.7887 -0.05875 0.53595 0.0
H1036 H 0.83443 0.92087 0.51193 0.0
H1037 H 0.4222 0.58878 0.43508 0.0
H1038 H 0.84731 0.86955 0.50805 0.0
N1039 N 0.70927 0.83897 0.52158 0.0
C1040 C 0.70226 0.86693 0.5263 0.0
C1041 C 0.76711 0.91276 0.52974 0.0
C1042 C 0.77506 0.88493 0.51855 0.0
C1043 C 0.73063 0.90301 0.53858 0.0
C1044 C 0.74548 0.84798 0.51981 0.0
H1045 H 0.82355 0.80216 0.52126 0.0
N1046 N 0.72435 0.78621 0.5358 0.0
C1047 C 0.76585 0.76269 0.53382 0.0
C1048 C 0.75303 0.82031 0.52371 0.0
C1049 C 0.73114 0.75878 0.54575 0.0
C1050 C 0.79582 0.79774 0.52229 0.0
C1051 C 0.78973 0.82737 0.51821 0.0
O1052 O 0.69043 0.77658 0.65395 0.0
O1053 O 0.60217 0.73132 0.58986 0.0
O1054 O 0.57069 0.73964 0.51315 0.0
O1055 O 0.62427 0.79328 0.49229 0.0
O1056 O 0.62805 0.76451 0.66263 0.0
O1057 O 0.67471 0.81881 0.62946 0.0
O1058 O 0.54453 0.7052 0.42055 0.0
O1059 O 0.64084 0.74958 0.45482 0.0
O1060 O 0.68074 0.73957 0.45141 0.0
O1061 O 0.62809 0.692 0.40036 0.0
O1062 O 0.60597 0.73995 0.37599 0.0
O1063 O 0.56779 0.67521 0.3682 0.0
C1064 C 0.59452 0.73667 0.66024 0.0
C1065 C 0.68985 0.81705 0.75353 0.0
C1066 C 0.66795 0.84159 0.85302 0.0
C1067 C 0.66067 0.819 0.7906 0.0
C1068 C 0.70491 0.86228 0.87336 0.0
C1069 C 0.72459 0.83365 0.78535 0.0
C1070 C 0.73232 0.85686 0.84354 0.0
C1071 C 0.58754 0.77121 0.47965 0.0
C1072 C 0.68865 0.80588 0.67633 0.0
C1073 C 0.81901 0.86365 0.51158 0.0
C1074 C 0.81169 0.89266 0.51316 0.0
C1075 C 0.63911 0.76252 0.39391 0.0
C1076 C 0.53042 0.69116 0.30271 0.0
C1077 C 0.5477 0.72533 0.2709 0.0
C1078 C 0.55824 0.72483 0.2027 0.0
C1079 C 0.53787 0.69287 0.16182 0.0
C1080 C 0.5086 0.65997 0.26402 0.0
C1081 C 0.50845 0.66302 0.19081 0.0
C1082 C 0.66499 0.7119 0.39589 0.0
C1083 C 0.54278 0.68516 0.3676 0.0
H1084 H 0.6328 0.80269 0.77192 0.0
H1085 H 0.71317 0.88342 0.91195 0.0
H1086 H 0.74699 0.83174 0.7608 0.0
H1087 H 0.76037 0.87247 0.8631 0.0
H1088 H 0.56516 0.74965 0.30036 0.0
H1089 H 0.55006 0.6858 0.11969 0.0
H1090 H 0.49663 0.63343 0.29019 0.0
H1091 H 0.4933 0.63972 0.15736 0.0
Eu1092 Eu 0.07558 0.85739 0.55275 0.0
C1093 C 0.22868 0.86078 0.45019 0.0
C1094 C 0.2841 0.93162 0.43249 0.0
C1095 C 0.28736 0.87451 0.41018 0.0
C1096 C 0.23925 0.89725 0.4521 0.0
C1097 C 0.25221 0.84898 0.42891 0.0
C1098 C 0.3018 0.9115 0.425 0.0
C1099 C 0.21173 0.78995 0.48354 0.0
N1100 N 0.19667 0.83761 0.48405 0.0
C1101 C 0.18853 0.80277 0.50334 0.0
C1102 C 0.2435 0.81315 0.44555 0.0
Eu1103 Eu 0.15233 0.85663 0.47328 0.0
N1104 N 0.21737 0.90245 0.51502 0.0
C1105 C 0.2433 -0.04598 0.58824 0.0
C1106 C 0.3093 -0.02308 0.47837 0.0
C1107 C 0.28932 -0.01135 0.55822 0.0
H1108 H 0.16256 0.78427 0.52788 0.0
H1109 H 0.3042 -0.01214 0.51835 0.0
H1110 H 0.3193 0.91489 0.46759 0.0
H1111 H 0.20589 0.76267 0.49901 0.0
H1112 H 0.23175 -0.03912 0.63355 0.0
H1113 H -0.07188 0.77093 0.55458 0.0
H1114 H 0.33747 -0.00406 0.44997 0.0
H1115 H 0.11632 -0.05674 0.56521 0.0
H1116 H -0.00902 0.78435 0.5251 0.0
H1117 H 0.11213 0.00058 0.54122 0.0
H1118 H 0.30668 0.86518 0.41553 0.0
H1119 H 0.91038 0.81768 0.53599 0.0
H1120 H -0.06924 0.8838 0.51196 0.0
H1121 H 0.26284 0.80375 0.43516 0.0
H1122 H -0.01792 -0.05199 0.50808 0.0
N1123 N 0.01267 0.84058 0.52157 0.0
C1124 C -0.01529 0.8056 0.52629 0.0
C1125 C -0.06113 0.82459 0.52976 0.0
C1126 C -0.03329 0.86039 0.51856 0.0
C1127 C -0.05137 0.79788 0.53859 0.0
C1128 C 0.00365 0.86776 0.5198 0.0
H1129 H 0.04948 -0.00834 0.5213 0.0
N1130 N 0.06543 0.90842 0.5358 0.0
C1131 C 0.08895 -0.02655 0.53385 0.0
C1132 C 0.03133 0.903 0.52371 0.0
C1133 C 0.09286 -0.05735 0.54576 0.0
C1134 C 0.0539 -0.03164 0.52232 0.0
C1135 C 0.02427 0.93263 0.51823 0.0
O1136 O 0.07509 0.88416 0.65395 0.0
O1137 O 0.12033 0.84118 0.58987 0.0
O1138 O 0.11201 0.80137 0.51316 0.0
O1139 O 0.05836 0.80129 0.49229 0.0
O1140 O 0.08711 0.83382 0.66261 0.0
O1141 O 0.03283 0.8262 0.62947 0.0
O1142 O 0.14646 0.80967 0.42056 0.0
O1143 O 0.10207 0.86157 0.45483 0.0
O1144 O 0.11208 0.91149 0.45142 0.0
O1145 O 0.15966 0.90642 0.40036 0.0
O1146 O 0.1117 0.83634 0.376 0.0
O1147 O 0.17645 0.86292 0.36821 0.0
C1148 C 0.11497 0.82816 0.66024 0.0
C1149 C 0.03461 0.84311 0.75354 0.0
C1150 C 0.01006 0.79667 0.85302 0.0
C1151 C 0.03265 0.81198 0.79061 0.0
C1152 C -0.01063 0.81293 0.87336 0.0
C1153 C 0.01802 0.86125 0.78535 0.0
C1154 C -0.0052 0.84576 0.84353 0.0
C1155 C 0.08043 0.78664 0.47965 0.0
C1156 C 0.04578 0.85308 0.67634 0.0
C1157 C -0.01202 0.92562 0.5116 0.0
C1158 C -0.04104 0.88927 0.51318 0.0
C1159 C 0.08913 0.8469 0.39392 0.0
C1160 C 0.16049 0.8096 0.30272 0.0
C1161 C 0.12632 0.79271 0.27091 0.0
C1162 C 0.12682 0.80374 0.2027 0.0
C1163 C 0.15878 0.81533 0.16182 0.0
C1164 C 0.19169 0.81898 0.26403 0.0
C1165 C 0.18863 0.81576 0.19082 0.0
C1166 C 0.13975 0.9234 0.39589 0.0
C1167 C 0.1665 0.82796 0.36761 0.0
H1168 H 0.04896 0.80043 0.77193 0.0
H1169 H -0.03177 0.80005 0.91195 0.0
H1170 H 0.01993 0.88556 0.7608 0.0
H1171 H -0.02081 0.8582 0.86309 0.0
H1172 H 0.102 0.78585 0.30037 0.0
H1173 H 0.16585 0.83459 0.11969 0.0
H1174 H 0.21823 0.83354 0.29019 0.0
H1175 H 0.21193 0.82392 0.15736 0.0
Eu1176 Eu -0.00577 0.18851 0.55277 0.0
C1177 C -0.0091 0.33825 0.45019 0.0
C1178 C -0.07994 0.32283 0.43248 0.0
C1179 C -0.02281 0.38321 0.41021 0.0
C1180 C -0.04558 0.31235 0.4521 0.0
C1181 C 0.00271 0.37359 0.42894 0.0
C1182 C -0.05981 0.36065 0.42499 0.0
C1183 C 0.06174 0.39213 0.48357 0.0
N1184 N 0.01407 0.32941 0.48405 0.0
C1185 C 0.04892 0.35611 0.50333 0.0
C1186 C 0.03855 0.40071 0.44559 0.0
Eu1187 Eu -0.00498 0.26604 0.47329 0.0
N1188 N -0.05078 0.28527 0.51503 0.0
C1189 C 0.89763 0.25962 0.58823 0.0
C1190 C 0.87475 0.30272 0.47834 0.0
C1191 C 0.86301 0.27101 0.5582 0.0
H1192 H 0.06741 0.34863 0.52786 0.0
H1193 H 0.8638 0.28667 0.51832 0.0
H1194 H -0.06321 0.37477 0.46756 0.0
H1195 H 0.08903 0.41358 0.49903 0.0
H1196 H 0.89078 0.24122 0.63355 0.0
H1197 H 0.08071 0.1276 0.55462 0.0
H1198 H 0.85573 0.31185 0.44993 0.0
H1199 H 0.90835 0.14336 0.56518 0.0
H1200 H 0.06727 0.177 0.52501 0.0
H1201 H 0.85103 0.08184 0.54121 0.0
H1202 H -0.01347 0.41186 0.41556 0.0
H1203 H 0.03397 0.06308 0.53607 0.0
H1204 H -0.03216 0.0173 0.51208 0.0
H1205 H 0.04797 0.42946 0.43518 0.0
H1206 H 0.90361 0.00438 0.50818 0.0
N1207 N 0.01104 0.14243 0.52158 0.0
C1208 C 0.04602 0.14947 0.52627 0.0
C1209 C 0.02705 0.08465 0.52983 0.0
C1210 C -0.00876 0.07666 0.51863 0.0
C1211 C 0.05375 0.12113 0.53863 0.0
C1212 C -0.01614 0.10622 0.51984 0.0
H1213 H 0.85995 0.0281 0.52134 0.0
N1214 N -0.05681 0.12732 0.5358 0.0
C1215 C 0.87816 0.08579 0.53385 0.0
C1216 C -0.05139 0.09865 0.52374 0.0
C1217 C 0.90896 0.12051 0.54574 0.0
C1218 C 0.88325 0.05584 0.52235 0.0
C1219 C -0.08102 0.06194 0.51828 0.0
O1220 O -0.03256 0.16125 0.65396 0.0
O1221 O 0.01046 0.24949 0.58987 0.0
O1222 O 0.05028 0.28097 0.51315 0.0
O1223 O 0.05034 0.22739 0.4923 0.0
O1224 O 0.01781 0.22363 0.66262 0.0
O1225 O 0.0254 0.17694 0.62948 0.0
O1226 O 0.04198 0.30712 0.42054 0.0
O1227 O -0.00993 0.21083 0.45484 0.0
O1228 O -0.05986 0.17092 0.45143 0.0
O1229 O -0.05478 0.22356 0.40037 0.0
O1230 O 0.01529 0.24569 0.37599 0.0
O1231 O -0.01128 0.28386 0.36822 0.0
C1232 C 0.02348 0.25715 0.66025 0.0
C1233 C 0.00849 0.1618 0.75354 0.0
C1234 C 0.05493 0.18369 0.85302 0.0
C1235 C 0.03962 0.19097 0.79061 0.0
C1236 C 0.03866 0.14673 0.87335 0.0
C1237 C -0.00967 0.12706 0.78535 0.0
C1238 C 0.00582 0.11932 0.84352 0.0
C1239 C 0.065 0.26411 0.47965 0.0
C1240 C -0.00148 0.163 0.67634 0.0
C1241 C -0.074 0.03268 0.51168 0.0
C1242 C -0.03764 0.04003 0.51328 0.0
C1243 C 0.00473 0.21256 0.39392 0.0
C1244 C 0.04204 0.32122 0.3027 0.0
C1245 C 0.05894 0.30395 0.27091 0.0
C1246 C 0.04792 0.29342 0.20269 0.0
C1247 C 0.03634 0.31379 0.1618 0.0
C1248 C 0.03268 0.34304 0.264 0.0
C1249 C 0.03591 0.34321 0.19079 0.0
C1250 C -0.07176 0.18668 0.3959 0.0
C1251 C 0.02369 0.30887 0.3676 0.0
H1252 H 0.05118 0.21884 0.77194 0.0
H1253 H 0.05154 0.13847 0.91193 0.0
H1254 H -0.03398 0.10466 0.76079 0.0
H1255 H -0.00662 0.09127 0.86307 0.0
H1256 H 0.0658 0.2865 0.30037 0.0
H1257 H 0.01708 0.3016 0.11967 0.0
H1258 H 0.01811 0.35501 0.29015 0.0
H1259 H 0.02777 0.35835 0.15732 0.0
Eu1260 Eu 0.07975 0.35949 0.84186 0.0
C1261 C -0.07338 0.20976 0.94441 0.0
C1262 C 0.87122 0.22519 0.96209 0.0
C1263 C 0.86794 0.16482 0.98443 0.0
C1264 C -0.08393 0.23567 0.94249 0.0
C1265 C 0.90309 0.17443 0.96571 0.0
C1266 C 0.85352 0.18737 0.96959 0.0
C1267 C -0.05644 0.15587 0.9111 0.0
N1268 N -0.04137 0.2186 0.91055 0.0
C1269 C -0.03323 0.19189 0.89128 0.0
C1270 C -0.0882 0.14731 0.94909 0.0
Eu1271 Eu 0.00298 0.28196 0.92132 0.0
N1272 N -0.06205 0.26274 0.87955 0.0
C1273 C -0.08797 0.28839 0.80632 0.0
C1274 C 0.84603 0.24529 0.9162 0.0
C1275 C 0.86601 0.277 0.83633 0.0
H1276 H -0.00727 0.19936 0.86674 0.0
H1277 H 0.85113 0.26134 0.87621 0.0
H1278 H 0.83602 0.17326 0.92698 0.0
H1279 H -0.05061 0.13443 0.89563 0.0
H1280 H -0.07642 0.30678 0.761 0.0
H1281 H 0.2272 0.42049 0.84006 0.0
H1282 H 0.81785 0.23614 0.94458 0.0
H1283 H 0.03902 0.40463 0.82936 0.0
H1284 H 0.16434 0.37104 0.86951 0.0
H1285 H 0.04322 0.46614 0.8534 0.0
H1286 H 0.84862 0.13617 0.9791 0.0
H1287 H 0.24495 0.48499 0.85867 0.0
H1288 H 0.22458 0.53072 0.88271 0.0
H1289 H 0.89245 0.11856 0.95948 0.0
H1290 H 0.17327 0.54362 0.8866 0.0
N1291 N 0.14266 0.40558 0.87305 0.0
C1292 C 0.17061 0.39857 0.86833 0.0
C1293 C 0.21646 0.4634 0.86489 0.0
C1294 C 0.18863 0.47136 0.87609 0.0
C1295 C 0.20669 0.42693 0.85605 0.0
C1296 C 0.15168 0.44179 0.87483 0.0
H1297 H 0.10587 0.51987 0.87336 0.0
N1298 N 0.0899 0.42067 0.85883 0.0
C1299 C 0.06639 0.46218 0.86077 0.0
C1300 C 0.124 0.44935 0.87093 0.0
C1301 C 0.06248 0.42747 0.84884 0.0
C1302 C 0.10144 0.49214 0.87233 0.0
C1303 C 0.13107 0.48605 0.87642 0.0
O1304 O 0.08023 0.38674 0.74066 0.0
O1305 O 0.03499 0.29852 0.80474 0.0
O1306 O 0.04331 0.26702 0.88146 0.0
O1307 O 0.09696 0.3206 0.90235 0.0
O1308 O 0.06821 0.32438 0.732 0.0
O1309 O 0.12249 0.37105 0.76514 0.0
O1310 O 0.00886 0.24087 0.97403 0.0
O1311 O 0.05324 0.33717 0.93979 0.0
O1312 O 0.04325 0.37708 0.94319 0.0
O1313 O -0.00434 0.32443 0.99423 0.0
O1314 O 0.0436 0.3023 1.01862 0.0
O1315 O -0.02114 0.26412 1.02637 0.0
C1316 C 0.04034 0.29087 0.73435 0.0
C1317 C 0.12072 0.38618 0.64107 0.0
C1318 C 0.14525 0.36427 0.54159 0.0
C1319 C 0.12266 0.357 0.60399 0.0
C1320 C 0.16595 0.40123 0.52125 0.0
C1321 C 0.13732 0.42092 0.60926 0.0
C1322 C 0.16054 0.42865 0.55108 0.0
C1323 C 0.07488 0.28387 0.91497 0.0
C1324 C 0.10955 0.38498 0.71827 0.0
C1325 C 0.16736 0.51532 0.88307 0.0
C1326 C 0.19637 0.50798 0.88148 0.0
C1327 C 0.06617 0.33543 1.0007 0.0
C1328 C -0.00518 0.22676 0.09187 0.0
C1329 C 0.02899 0.24402 0.12366 0.0
C1330 C 0.02848 0.25448 0.19192 0.0
C1331 C -0.00348 0.23414 0.2328 0.0
C1332 C -0.03639 0.20493 0.13054 0.0
C1333 C -0.03334 0.20476 0.20376 0.0
C1334 C 0.01556 0.36132 0.99868 0.0
C1335 C -0.01119 0.23911 1.02697 0.0
H1336 H 0.10632 0.32913 0.62264 0.0
H1337 H 0.1871 0.40949 0.48267 0.0
H1338 H 0.13542 0.44332 0.63382 0.0
H1339 H 0.17616 0.45669 0.53152 0.0
H1340 H 0.05331 0.26151 0.09423 0.0
H1341 H -0.01054 0.24633 0.27494 0.0
H1342 H -0.06293 0.19297 0.10438 0.0
H1343 H -0.05665 0.18962 0.23719 0.0
Eu1344 Eu 0.49216 0.69056 0.84185 0.0
C1345 C 0.64192 0.68722 0.9444 0.0
C1346 C 0.62648 0.61639 0.9621 0.0
C1347 C 0.68687 0.6735 0.98441 0.0
C1348 C 0.61601 0.65075 0.94249 0.0
C1349 C 0.67725 0.69903 0.96568 0.0
C1350 C 0.6643 0.63651 0.96959 0.0
C1351 C 0.69581 0.75806 0.91108 0.0
N1352 N 0.63308 0.71039 0.91055 0.0
C1353 C 0.65979 0.74524 0.89129 0.0
C1354 C 0.70438 0.73486 0.94906 0.0
Eu1355 Eu 0.5697 0.69136 0.92131 0.0
N1356 N 0.58894 0.64556 0.87955 0.0
C1357 C 0.56328 0.59399 0.80632 0.0
C1358 C 0.60637 0.57109 0.91621 0.0
C1359 C 0.57466 0.55936 0.83634 0.0
H1360 H 0.65232 0.76374 0.86676 0.0
H1361 H 0.59032 0.56015 0.87622 0.0
H1362 H 0.67842 0.63311 0.92701 0.0
H1363 H 0.71726 0.78535 0.89562 0.0
H1364 H 0.54489 0.58715 0.76099 0.0
H1365 H 0.43122 0.77702 0.84004 0.0
H1366 H 0.6155 0.55206 0.94461 0.0
H1367 H 0.447 0.60468 0.82938 0.0
H1368 H 0.48064 0.76359 0.86959 0.0
H1369 H 0.38547 0.54737 0.85342 0.0
H1370 H 0.71552 0.68284 0.97907 0.0
H1371 H 0.3667 0.73027 0.8586 0.0
H1372 H 0.32093 0.66415 0.88262 0.0
H1373 H 0.73313 0.74428 0.95948 0.0
H1374 H 0.30801 0.59994 0.88652 0.0
N1375 N 0.44608 0.70737 0.87304 0.0
C1376 C 0.45311 0.74234 0.86835 0.0
C1377 C 0.38828 0.72336 0.86483 0.0
C1378 C 0.3803 0.68756 0.87603 0.0
C1379 C 0.42476 0.75007 0.85602 0.0
C1380 C 0.40986 0.68018 0.8748 0.0
H1381 H 0.33174 0.55629 0.87334 0.0
N1382 N 0.43096 0.63952 0.85883 0.0
C1383 C 0.38943 0.57449 0.86078 0.0
C1384 C 0.40229 0.64494 0.8709 0.0
C1385 C 0.42415 0.60529 0.84886 0.0
C1386 C 0.35948 0.57958 0.87231 0.0
C1387 C 0.36558 0.61531 0.87639 0.0
O1388 O 0.46489 0.66378 0.74066 0.0
O1389 O 0.55315 0.7068 0.80473 0.0
O1390 O 0.58463 0.74661 0.88147 0.0
O1391 O 0.53105 0.74667 0.90233 0.0
O1392 O 0.52727 0.71413 0.73199 0.0
O1393 O 0.48058 0.72173 0.76514 0.0
O1394 O 0.61079 0.73832 0.97404 0.0
O1395 O 0.51449 0.6864 0.93978 0.0
O1396 O 0.47457 0.63648 0.94318 0.0
O1397 O 0.52722 0.64155 0.99422 0.0
O1398 O 0.54936 0.71161 1.01863 0.0
O1399 O 0.58754 0.68507 1.02637 0.0
C1400 C 0.5608 0.7198 0.73435 0.0
C1401 C 0.46544 0.70481 0.64107 0.0
C1402 C 0.48734 0.75126 0.54159 0.0
C1403 C 0.49462 0.73593 0.60398 0.0
C1404 C 0.45038 0.73499 0.52126 0.0
C1405 C 0.43069 0.68667 0.60927 0.0
C1406 C 0.42296 0.70216 0.55109 0.0
C1407 C 0.56777 0.76133 0.91497 0.0
C1408 C 0.46665 0.69485 0.71827 0.0
C1409 C 0.33632 0.62233 0.883 0.0
C1410 C 0.34366 0.65868 0.88141 0.0
C1411 C 0.51622 0.70105 1.0007 0.0
C1412 C 0.6249 0.73838 0.09188 0.0
C1413 C 0.60765 0.7553 0.12367 0.0
C1414 C 0.59719 0.74434 0.19193 0.0
C1415 C 0.61753 0.73273 0.23282 0.0
C1416 C 0.64672 0.72901 0.13057 0.0
C1417 C 0.64691 0.73225 0.20378 0.0
C1418 C 0.49033 0.62456 0.99868 0.0
C1419 C 0.61255 0.72003 1.02698 0.0
H1420 H 0.52249 0.74748 0.62263 0.0
H1421 H 0.44212 0.74788 0.48269 0.0
H1422 H 0.40829 0.66236 0.63383 0.0
H1423 H 0.39491 0.68973 0.53155 0.0
H1424 H 0.59016 0.76213 0.09422 0.0
H1425 H 0.60533 0.71347 0.27496 0.0
H1426 H 0.65868 0.71443 0.10441 0.0
H1427 H 0.66205 0.72409 0.23722 0.0
Eu1428 Eu 0.16107 0.77193 0.84185 0.0
C1429 C 0.16442 0.92502 0.94437 0.0
C1430 C 0.23526 -0.01956 0.9621 0.0
C1431 C 0.17813 -0.01631 0.98437 0.0
C1432 C 0.2009 0.93559 0.94248 0.0
C1433 C 0.15261 -0.05146 0.96562 0.0
C1434 C 0.21513 -0.00187 0.96958 0.0
C1435 C 0.09358 0.90804 0.91098 0.0
N1436 N 0.14126 0.893 0.91052 0.0
C1437 C 0.1064 0.88484 0.89123 0.0
C1438 C 0.11678 0.93982 0.94896 0.0
Eu1439 Eu 0.1603 0.84868 0.92131 0.0
N1440 N 0.20611 0.91372 0.87956 0.0
C1441 C 0.2577 0.93966 0.80637 0.0
C1442 C 0.28057 0.00565 0.91625 0.0
C1443 C 0.29232 -0.01432 0.8364 0.0
H1444 H 0.08791 0.85887 0.86671 0.0
H1445 H 0.29152 0.00055 0.87627 0.0
H1446 H 0.21853 0.01564 0.927 0.0
H1447 H 0.06629 0.90219 0.89553 0.0
H1448 H 0.26456 0.92812 0.76106 0.0
H1449 H 0.07456 0.62453 0.84003 0.0
H1450 H 0.2996 0.03381 0.94466 0.0
H1451 H 0.24695 0.81264 0.82936 0.0
H1452 H 0.08802 0.68738 0.86963 0.0
H1453 H 0.30426 0.80843 0.85337 0.0
H1454 H 0.16879 0.00299 0.97904 0.0
H1455 H 0.12129 0.60675 0.85855 0.0
H1456 H 0.18741 0.62709 0.88257 0.0
H1457 H 0.10735 -0.04085 0.95937 0.0
H1458 H 0.25165 0.67838 0.88647 0.0
N1459 N 0.14424 0.70903 0.87306 0.0
C1460 C 0.10926 0.6811 0.86837 0.0
C1461 C 0.12822 0.63524 0.86481 0.0
C1462 C 0.16402 0.66305 0.87602 0.0
C1463 C 0.10152 0.64502 0.85601 0.0
C1464 C 0.17142 0.7 0.8748 0.0
H1465 H 0.29532 0.74578 0.87329 0.0
N1466 N 0.2121 0.76177 0.85883 0.0
C1467 C 0.27713 0.78526 0.86075 0.0
C1468 C 0.20667 0.72767 0.8709 0.0
C1469 C 0.24634 0.78919 0.84885 0.0
C1470 C 0.27203 0.75021 0.87228 0.0
C1471 C 0.23629 0.72059 0.87637 0.0
O1472 O 0.18787 0.77147 0.74066 0.0
O1473 O 0.14486 0.81668 0.80473 0.0
O1474 O 0.10503 0.80834 0.88147 0.0
O1475 O 0.10497 0.7547 0.90233 0.0
O1476 O 0.13747 0.78344 0.73201 0.0
O1477 O 0.12991 0.72918 0.76513 0.0
O1478 O 0.11334 0.8428 0.97405 0.0
O1479 O 0.16524 0.79842 0.93977 0.0
O1480 O 0.21517 0.80843 0.94318 0.0
O1481 O 0.2101 0.856 0.99422 0.0
O1482 O 0.14004 0.80807 1.01863 0.0
O1483 O 0.16661 0.87281 1.02635 0.0
C1484 C 0.13184 0.81132 0.73435 0.0
C1485 C 0.14683 0.73097 0.64107 0.0
C1486 C 0.10038 0.70641 0.5416 0.0
C1487 C 0.11571 0.72901 0.60398 0.0
C1488 C 0.11664 0.68572 0.52127 0.0
C1489 C 0.16497 0.71436 0.60928 0.0
C1490 C 0.14948 0.69114 0.55111 0.0
C1491 C 0.09031 0.77677 0.91497 0.0
C1492 C 0.15679 0.74214 0.71827 0.0
C1493 C 0.22926 0.6843 0.88297 0.0
C1494 C 0.1929 0.6553 0.88138 0.0
C1495 C 0.15059 0.7855 1.0007 0.0
C1496 C 0.1133 0.85685 0.09189 0.0
C1497 C 0.09636 0.82267 0.12366 0.0
C1498 C 0.10731 0.82317 0.19193 0.0
C1499 C 0.11892 0.85512 0.23283 0.0
C1500 C 0.12266 0.88804 0.13058 0.0
C1501 C 0.11941 0.88498 0.20379 0.0
C1502 C 0.22709 0.83611 0.99868 0.0
C1503 C 0.13165 0.86285 1.02698 0.0
H1504 H 0.10416 0.74534 0.62262 0.0
H1505 H 0.10375 0.66457 0.4827 0.0
H1506 H 0.18928 0.71628 0.63384 0.0
H1507 H 0.16191 0.67553 0.53156 0.0
H1508 H 0.08953 0.79836 0.09421 0.0
H1509 H 0.13818 0.86218 0.27497 0.0
H1510 H 0.13724 0.91458 0.10443 0.0
H1511 H 0.12757 0.90828 0.23724 0.0
Eu1512 Eu 0.56965 0.84866 0.42131 0.0
C1513 C 0.40231 0.72754 0.37088 0.0
C1514 C 0.38039 0.66294 0.37597 0.0
C1515 C 0.33635 0.68411 0.383 0.0
C1516 C 0.40993 0.69991 0.37481 0.0
C1517 C 0.36559 0.72042 0.37633 0.0
C1518 C 0.34374 0.65514 0.3814 0.0
C1519 C 0.38937 0.78506 0.36044 0.0
N1520 N 0.43096 0.76165 0.35875 0.0
C1521 C 0.42411 0.78903 0.34861 0.0
C1522 C 0.35944 0.75 0.3721 0.0
Eu1523 Eu 0.49218 0.7719 0.34183 0.0
N1524 N 0.44615 0.70898 0.37298 0.0
C1525 C 0.45322 0.68107 0.368 0.0
C1526 C 0.38841 0.63516 0.3646 0.0
C1527 C 0.42489 0.645 0.35561 0.0
H1528 H 0.44695 0.8125 0.32916 0.0
H1529 H 0.43139 0.62453 0.33965 0.0
H1530 H 0.32103 0.62692 0.38259 0.0
H1531 H 0.38536 0.80819 0.35291 0.0
H1532 H 0.48075 0.68739 0.36912 0.0
H1533 H 0.59006 0.0005 0.37592 0.0
H1534 H 0.36685 0.60666 0.35834 0.0
H1535 H 0.65232 0.85922 0.36665 0.0
H1536 H 0.54458 0.9279 0.26104 0.0
H1537 H 0.7172 0.90257 0.39583 0.0
H1538 H 0.30804 0.67816 0.38649 0.0
H1539 H 0.61542 0.03394 0.44396 0.0
H1540 H 0.6778 0.01527 0.42671 0.0
H1541 H 0.33169 0.74553 0.37308 0.0
H1542 H 0.71522 0.00323 0.47913 0.0
N1543 N 0.58867 0.9137 0.37973 0.0
C1544 C 0.56297 0.93951 0.30635 0.0
C1545 C 0.60612 0.00566 0.41588 0.0
C1546 C 0.62622 -0.01949 0.46194 0.0
C1547 C 0.57437 -0.01444 0.33612 0.0
C1548 C 0.61578 0.93566 0.44256 0.0
H1549 H 0.73294 -0.04058 0.45985 0.0
N1550 N 0.63297 0.89319 0.41062 0.0
C1551 C 0.69571 0.90833 0.41137 0.0
C1552 C 0.64171 0.92514 0.4446 0.0
C1553 C 0.65973 0.88514 0.39133 0.0
C1554 C 0.7042 0.94004 0.44948 0.0
C1555 C 0.67704 -0.05128 0.46596 0.0
O1556 O 0.61081 0.84277 0.47377 0.0
O1557 O 0.51439 0.79841 0.4398 0.0
O1558 O 0.47455 0.80841 0.44311 0.0
O1559 O 0.52719 0.85596 0.49426 0.0
O1560 O 0.54932 0.80809 0.51864 0.0
O1561 O 0.58756 0.87265 0.52643 0.0
O1562 O 0.46508 0.77166 0.24056 0.0
O1563 O 0.55319 0.81662 0.30475 0.0
O1564 O 0.58461 0.80835 0.38147 0.0
O1565 O 0.53104 0.75468 0.40236 0.0
O1566 O 0.52731 0.78331 0.23208 0.0
O1567 O 0.48051 0.72921 0.26495 0.0
C1568 C 0.51619 0.78549 0.50068 0.0
C1569 C 0.62497 0.85668 0.59168 0.0
C1570 C 0.59705 0.82319 0.69182 0.0
C1571 C 0.60752 0.82256 0.62362 0.0
C1572 C 0.6175 0.85517 0.73259 0.0
C1573 C 0.64692 0.88788 0.63029 0.0
C1574 C 0.64703 0.8849 0.70353 0.0
C1575 C 0.49029 0.83607 0.49868 0.0
C1576 C 0.6126 0.86275 0.52684 0.0
C1577 C 0.68659 -0.01614 0.48469 0.0
C1578 C 0.66396 -0.00176 0.47008 0.0
C1579 C 0.56082 0.81119 0.23442 0.0
C1580 C 0.46553 0.73114 0.14087 0.0
C1581 C 0.49469 0.72913 0.10386 0.0
C1582 C 0.48739 0.70649 1.04152 0.0
C1583 C 0.45043 0.68581 1.02119 0.0
C1584 C 0.43079 0.71456 0.10902 0.0
C1585 C 0.42304 0.6913 0.05092 0.0
C1586 C 0.56776 0.77677 0.415 0.0
C1587 C 0.46671 0.74228 0.21809 0.0
H1588 H 0.58997 0.79823 0.59426 0.0
H1589 H 0.60539 0.86228 0.7748 0.0
H1590 H 0.65894 0.91439 0.60402 0.0
H1591 H 0.66224 0.90822 0.73693 0.0
H1592 H 0.52256 0.7454 0.12256 0.0
H1593 H 0.44215 0.66462 0.98271 0.0
H1594 H 0.4084 0.7165 0.13354 0.0
H1595 H 0.39499 0.67569 1.03138 0.0
Eu1596 Eu 0.00297 0.6913 0.4213 0.0
C1597 C 0.12411 0.64513 0.37089 0.0
C1598 C 0.18871 0.68783 0.37597 0.0
C1599 C 0.16754 0.62262 0.38298 0.0
C1600 C 0.15174 0.68038 0.37482 0.0
C1601 C 0.13123 0.61554 0.37632 0.0
C1602 C 0.19651 0.65899 0.38139 0.0
C1603 C 0.06658 0.57465 0.3604 0.0
N1604 N 0.09 0.63966 0.35875 0.0
C1605 C 0.06262 0.60542 0.34859 0.0
C1606 C 0.10164 0.57979 0.37207 0.0
Eu1607 Eu 0.07974 0.69061 0.34184 0.0
N1608 N 0.14267 0.70753 0.37299 0.0
C1609 C 0.17057 0.7425 0.36802 0.0
C1610 C 0.21649 0.72363 0.36459 0.0
C1611 C 0.20665 0.75027 0.35561 0.0
H1612 H 0.03915 0.60479 0.32913 0.0
H1613 H 0.22712 0.77725 0.33965 0.0
H1614 H 0.22474 0.66451 0.38257 0.0
H1615 H 0.04345 0.54751 0.35285 0.0
H1616 H 0.16426 0.76372 0.36915 0.0
H1617 H 0.85109 0.55985 0.37595 0.0
H1618 H 0.24499 0.73058 0.35831 0.0
H1619 H -0.00755 0.76341 0.36661 0.0
H1620 H -0.07631 0.58694 0.2611 0.0
H1621 H -0.0509 0.78494 0.39576 0.0
H1622 H 0.17349 0.60025 0.38647 0.0
H1623 H 0.81765 0.55178 0.44399 0.0
H1624 H 0.83635 0.63284 0.42669 0.0
H1625 H 0.10612 0.55652 0.37304 0.0
H1626 H 0.84842 0.68231 0.47911 0.0
N1627 N -0.06208 0.64526 0.37974 0.0
C1628 C -0.08791 0.59373 0.30639 0.0
C1629 C 0.84594 0.57076 0.41591 0.0
C1630 C 0.8711 0.61602 0.46194 0.0
C1631 C 0.86603 0.55909 0.33616 0.0
C1632 C -0.08404 0.65042 0.44256 0.0
H1633 H 0.89225 0.74383 0.45977 0.0
N1634 N -0.04154 0.71008 0.41059 0.0
C1635 C -0.05667 0.75769 0.4113 0.0
C1636 C -0.0735 0.68688 0.44457 0.0
C1637 C -0.03348 0.7449 0.39128 0.0
C1638 C -0.08839 0.73447 0.44941 0.0
C1639 C 0.90293 0.69863 0.46592 0.0
O1640 O 0.00886 0.73834 0.47378 0.0
O1641 O 0.05323 0.68631 0.4398 0.0
O1642 O 0.04322 0.63646 0.44311 0.0
O1643 O -0.00433 0.64154 0.49426 0.0
O1644 O 0.04354 0.71154 0.51864 0.0
O1645 O -0.02103 0.68519 0.52642 0.0
O1646 O 0.07996 0.66375 0.24057 0.0
O1647 O 0.03502 0.70688 0.30475 0.0
O1648 O 0.0433 0.74657 0.38147 0.0
O1649 O 0.09696 0.74668 0.40237 0.0
O1650 O 0.06836 0.71436 0.2321 0.0
O1651 O 0.12244 0.72163 0.26495 0.0
C1652 C 0.06615 0.70102 0.50068 0.0
C1653 C -0.00505 0.73858 0.59168 0.0
C1654 C 0.02846 0.74418 0.69182 0.0
C1655 C 0.02908 0.75526 0.62361 0.0
C1656 C -0.00352 0.73264 0.73259 0.0
C1657 C -0.03624 0.72933 0.63029 0.0
C1658 C -0.03326 0.73243 0.70354 0.0
C1659 C 0.01557 0.62454 0.49868 0.0
C1660 C -0.01112 0.72014 0.52684 0.0
C1661 C 0.86778 0.67304 0.48467 0.0
C1662 C 0.85339 0.63604 0.47007 0.0
C1663 C 0.04046 0.71996 0.23442 0.0
C1664 C 0.12049 0.70471 0.14087 0.0
C1665 C 0.12251 0.73588 0.10386 0.0
C1666 C 0.14514 0.75123 1.04152 0.0
C1667 C 0.16583 0.73495 1.02119 0.0
C1668 C 0.13706 0.68656 0.10903 0.0
C1669 C 0.16033 0.70207 0.05093 0.0
C1670 C 0.07487 0.76131 0.415 0.0
C1671 C 0.10935 0.69475 0.21809 0.0
H1672 H 0.05341 0.76204 0.59425 0.0
H1673 H -0.01065 0.71341 0.77481 0.0
H1674 H -0.06276 0.71485 0.60403 0.0
H1675 H -0.05658 0.72432 0.73694 0.0
H1676 H 0.10624 0.74748 0.12256 0.0
H1677 H 0.18702 0.74787 0.98271 0.0
H1678 H 0.13512 0.66223 0.13355 0.0
H1679 H 0.17594 0.68964 1.03139 0.0
Eu1680 Eu 0.16033 0.28197 0.42129 0.0
C1681 C 0.20653 0.44929 0.37085 0.0
C1682 C 0.16381 0.47116 0.37589 0.0
C1683 C 0.22903 0.51523 0.38289 0.0
C1684 C 0.17127 0.44165 0.37477 0.0
C1685 C 0.23612 0.48601 0.37626 0.0
C1686 C 0.19265 0.50782 0.38128 0.0
C1687 C 0.27702 0.46228 0.36041 0.0
N1688 N 0.212 0.42066 0.35874 0.0
C1689 C 0.24625 0.42753 0.34861 0.0
C1690 C 0.27187 0.49219 0.37204 0.0
Eu1691 Eu 0.16105 0.35943 0.34181 0.0
N1692 N 0.14413 0.40542 0.37298 0.0
C1693 C 0.10915 0.39833 0.36804 0.0
C1694 C 0.128 0.46311 0.3645 0.0
C1695 C 0.10136 0.42661 0.35556 0.0
H1696 H 0.24689 0.4047 0.32915 0.0
H1697 H 0.07438 0.42007 0.3396 0.0
H1698 H 0.18712 0.53051 0.38243 0.0
H1699 H 0.30415 0.46629 0.35287 0.0
H1700 H 0.08794 0.37079 0.36924 0.0
H1701 H 0.29176 0.26154 0.37597 0.0
H1702 H 0.12104 0.48465 0.35821 0.0
H1703 H 0.08819 0.19932 0.36662 0.0
H1704 H 0.26469 0.30704 0.2611 0.0
H1705 H 0.06664 0.13443 0.39574 0.0
H1706 H 0.25139 0.54356 0.38636 0.0
H1707 H 0.29983 0.23618 0.44402 0.0
H1708 H 0.21877 0.17379 0.42672 0.0
H1709 H 0.29514 0.51994 0.37301 0.0
H1710 H 0.16927 0.13638 0.47908 0.0
N1711 N 0.20635 0.26294 0.37973 0.0
C1712 C 0.25789 0.28865 0.30639 0.0
C1713 C 0.28085 0.24547 0.41592 0.0
C1714 C 0.23558 0.22537 0.46194 0.0
C1715 C 0.29253 0.27724 0.33617 0.0
C1716 C 0.20118 0.23582 0.44255 0.0
H1717 H 0.10774 0.11868 0.45976 0.0
N1718 N 0.14152 0.21866 0.41059 0.0
C1719 C 0.0939 0.15592 0.41127 0.0
C1720 C 0.16472 0.2099 0.44457 0.0
C1721 C 0.1067 0.1919 0.39128 0.0
C1722 C 0.11712 0.14742 0.44937 0.0
C1723 C 0.15296 0.17457 0.4659 0.0
O1724 O 0.11328 0.24081 0.47378 0.0
O1725 O 0.16533 0.33722 0.43978 0.0
O1726 O 0.2152 0.37707 0.44309 0.0
O1727 O 0.2101 0.32444 0.49425 0.0
O1728 O 0.14011 0.30231 0.51864 0.0
O1729 O 0.16644 0.26408 0.5264 0.0
O1730 O 0.18792 0.38652 0.24055 0.0
O1731 O 0.14476 0.29844 0.30473 0.0
O1732 O 0.10505 0.26702 0.38147 0.0
O1733 O 0.10497 0.32059 0.40234 0.0
O1734 O 0.13728 0.32429 0.23208 0.0
O1735 O 0.13005 0.37113 0.26492 0.0
C1736 C 0.15062 0.33542 0.50067 0.0
C1737 C 0.11306 0.22667 0.59169 0.0
C1738 C 0.10744 0.25456 0.69182 0.0
C1739 C 0.09636 0.24411 0.62361 0.0
C1740 C 0.11897 0.23412 0.7326 0.0
C1741 C 0.1223 0.20473 0.63031 0.0
C1742 C 0.11918 0.2046 0.70355 0.0
C1743 C 0.2271 0.36132 0.49867 0.0
C1744 C 0.13149 0.23904 0.52684 0.0
C1745 C 0.17855 0.16502 0.48465 0.0
C1746 C 0.21556 0.18764 0.47007 0.0
C1747 C 0.13167 0.29079 0.23441 0.0
C1748 C 0.14697 0.38611 0.14086 0.0
C1749 C 0.1158 0.35696 0.10385 0.0
C1750 C 0.10045 0.36426 1.04152 0.0
C1751 C 0.11674 0.40122 1.0212 0.0
C1752 C 0.16514 0.42085 0.10903 0.0
C1753 C 0.14962 0.4286 0.05093 0.0
C1754 C 0.09033 0.28387 0.41499 0.0
C1755 C 0.15693 0.38492 0.21808 0.0
H1756 H 0.08959 0.26165 0.59425 0.0
H1757 H 0.1382 0.24624 0.77482 0.0
H1758 H 0.13679 0.1927 0.60406 0.0
H1759 H 0.12728 0.18939 0.73697 0.0
H1760 H 0.10419 0.32909 0.12254 0.0
H1761 H 0.10381 0.4095 0.98273 0.0
H1762 H 0.18947 0.44324 0.13356 0.0
H1763 H 0.16206 0.45665 1.03141 0.0
Eu1764 Eu 0.15234 0.26598 0.97334 0.0
C1765 C 0.03119 0.09866 1.02371 0.0
C1766 C -0.03341 0.07674 1.01861 0.0
C1767 C -0.01224 0.0327 1.01158 0.0
C1768 C 0.00356 0.10627 1.01978 0.0
C1769 C 0.02406 0.06194 1.01827 0.0
C1770 C -0.04122 0.0401 1.01317 0.0
C1771 C 0.08871 0.0857 1.03422 0.0
N1772 N 0.0653 0.1273 1.03586 0.0
C1773 C 0.09267 0.12044 1.04605 0.0
C1774 C 0.05365 0.05578 1.02252 0.0
Eu1775 Eu 0.07556 0.18851 0.05279 0.0
N1776 N 0.01263 0.14249 1.02162 0.0
C1777 C -0.01528 0.14956 1.02659 0.0
C1778 C -0.0612 0.08475 1.02998 0.0
C1779 C -0.05136 0.12124 1.03897 0.0
H1780 H 0.11614 0.14327 0.06555 0.0
H1781 H -0.07183 0.12774 0.05494 0.0
H1782 H -0.06944 0.01739 1.01198 0.0
H1783 H 0.11184 0.08169 1.04177 0.0
H1784 H -0.00896 0.17709 1.02549 0.0
H1785 H 0.3042 0.28641 1.01872 0.0
H1786 H 0.9103 0.0632 1.03625 0.0
H1787 H 0.16287 0.34862 1.02802 0.0
H1788 H 0.2316 0.2409 0.13358 0.0
H1789 H 0.20623 0.4135 0.99885 0.0
H1790 H -0.0182 0.00439 1.00808 0.0
H1791 H 0.33764 0.31177 0.95069 0.0
H1792 H 0.31895 0.37413 0.96797 0.0
H1793 H 0.04917 0.02804 1.02154 0.0
H1794 H 0.3069 0.41154 0.91551 0.0
N1795 N 0.21738 0.285 1.01492 0.0
C1796 C 0.2432 0.25929 0.08828 0.0
C1797 C 0.30936 0.30247 0.97876 0.0
C1798 C 0.2842 0.32256 0.93272 0.0
C1799 C 0.28926 0.27071 0.05852 0.0
C1800 C 0.23934 0.31211 0.9521 0.0
H1801 H 0.26308 0.42925 0.93484 0.0
N1802 N 0.19686 0.32928 0.98406 0.0
C1803 C 0.21199 0.39202 0.98332 0.0
C1804 C 0.22881 0.33804 0.95008 0.0
C1805 C 0.1888 0.35604 1.00335 0.0
C1806 C 0.24371 0.40051 0.94521 0.0
C1807 C 0.25239 0.37336 0.92871 0.0
O1808 O 0.14644 0.30713 0.92087 0.0
O1809 O 0.10208 0.21073 0.95483 0.0
O1810 O 0.11208 0.17088 0.95152 0.0
O1811 O 0.15963 0.22351 0.90039 0.0
O1812 O 0.11178 0.24565 0.87598 0.0
O1813 O 0.17634 0.28388 0.86824 0.0
O1814 O 0.07533 0.16143 0.15406 0.0
O1815 O 0.12028 0.2495 0.08989 0.0
O1816 O 0.11201 0.28093 1.01315 0.0
O1817 O 0.05834 0.22737 0.99224 0.0
O1818 O 0.08694 0.22364 0.16253 0.0
O1819 O 0.03286 0.17683 0.12968 0.0
C1820 C 0.08917 0.21253 0.89393 0.0
C1821 C 0.16037 0.32129 0.80297 0.0
C1822 C 0.12687 0.29348 0.70279 0.0
C1823 C 0.12624 0.30386 0.77105 0.0
C1824 C 0.15884 0.31389 0.66202 0.0
C1825 C 0.19157 0.34324 0.76436 0.0
C1826 C 0.1886 0.34338 0.69112 0.0
C1827 C 0.13973 0.18662 0.89594 0.0
C1828 C 0.16643 0.30892 0.86782 0.0
C1829 C 0.28753 0.38291 0.90996 0.0
C1830 C 0.30192 0.36029 0.92458 0.0
C1831 C 0.11485 0.25713 0.16023 0.0
C1832 C 0.03481 0.16186 0.25376 0.0
C1833 C 0.03281 0.19102 0.29078 0.0
C1834 C 0.01016 0.18372 0.35311 0.0
C1835 C -0.01054 0.14676 0.37343 0.0
C1836 C 0.01822 0.12712 0.28559 0.0
C1837 C -0.00505 0.11938 0.3437 0.0
C1838 C 0.08044 0.26408 0.97961 0.0
C1839 C 0.04595 0.16304 0.17653 0.0
H1840 H 0.10191 0.28629 0.80039 0.0
H1841 H 0.16596 0.30177 0.6198 0.0
H1842 H 0.21809 0.35526 0.79062 0.0
H1843 H 0.21193 0.35858 0.65774 0.0
H1844 H 0.0491 0.21889 0.27211 0.0
H1845 H -0.03173 0.13849 0.41191 0.0
H1846 H 0.02015 0.10473 0.26107 0.0
H1847 H -0.02067 0.09133 0.36323 0.0
Eu1848 Eu 0.58564 0.85667 0.97335 0.0
C1849 C 0.75299 0.90287 1.02374 0.0
C1850 C 0.77487 0.86017 1.01868 0.0
C1851 C 0.81894 0.92538 1.01166 0.0
C1852 C 0.74535 0.86762 1.01982 0.0
C1853 C 0.78972 0.93246 1.01831 0.0
C1854 C 0.81153 0.88901 1.01327 0.0
C1855 C 0.76597 -0.02665 1.0342 0.0
N1856 N 0.72435 0.90834 1.03586 0.0
C1857 C 0.73122 -0.05742 1.04602 0.0
C1858 C 0.79589 -0.03179 1.02253 0.0
Eu1859 Eu 0.66312 0.85739 0.0528 0.0
N1860 N 0.70912 0.84048 1.02163 0.0
C1861 C 0.70204 0.8055 1.02658 0.0
C1862 C 0.76683 0.82437 1.03006 0.0
C1863 C 0.73033 0.79772 1.03902 0.0
H1864 H 0.7084 -0.05678 0.06552 0.0
H1865 H 0.7238 0.77074 0.05498 0.0
H1866 H 0.83423 0.88348 1.0121 0.0
H1867 H 0.76999 0.00049 1.04174 0.0
H1868 H 0.6745 0.78429 1.0254 0.0
H1869 H 0.56523 -0.01191 1.01871 0.0
H1870 H 0.78837 0.8174 1.03635 0.0
H1871 H 0.50298 0.78453 1.028 0.0
H1872 H 0.61072 -0.03901 0.1336 0.0
H1873 H 0.43809 0.76299 0.99885 0.0
H1874 H 0.84727 -0.05226 1.00817 0.0
H1875 H 0.53987 -0.00384 0.95067 0.0
H1876 H 0.47748 0.9151 0.96795 0.0
H1877 H 0.82364 -0.00852 1.02156 0.0
H1878 H 0.44006 0.86563 0.91553 0.0
N1879 N 0.56662 0.90268 1.01493 0.0
C1880 C 0.59233 -0.0458 0.08829 0.0
C1881 C 0.54916 -0.02282 0.97875 0.0
C1882 C 0.52906 0.93192 0.93272 0.0
C1883 C 0.58093 -0.01115 0.05851 0.0
C1884 C 0.53951 0.89752 0.9521 0.0
H1885 H 0.42235 0.80409 0.93483 0.0
N1886 N 0.52233 0.83786 0.98405 0.0
C1887 C 0.45958 0.79025 0.98333 0.0
C1888 C 0.51357 0.86106 0.95008 0.0
C1889 C 0.49556 0.80304 1.00334 0.0
C1890 C 0.45109 0.81347 0.94522 0.0
C1891 C 0.47825 0.84931 0.92873 0.0
O1892 O 0.54449 0.80961 0.92086 0.0
O1893 O 0.6409 0.86167 0.95484 0.0
O1894 O 0.68076 0.91153 0.95153 0.0
O1895 O 0.62812 0.90644 0.9004 0.0
O1896 O 0.60598 0.83646 0.87597 0.0
O1897 O 0.56774 0.86277 0.86825 0.0
O1898 O 0.69022 0.88426 0.15407 0.0
O1899 O 0.60212 0.8411 0.08989 0.0
O1900 O 0.57069 0.80139 1.01315 0.0
O1901 O 0.62427 0.80131 0.99226 0.0
O1902 O 0.62798 0.83363 0.16254 0.0
O1903 O 0.67483 0.82639 0.12969 0.0
C1904 C 0.6391 0.84696 0.89394 0.0
C1905 C 0.53033 0.80939 0.80296 0.0
C1906 C 0.55814 0.80369 0.70279 0.0
C1907 C 0.54775 0.79268 0.77105 0.0
C1908 C 0.53772 0.81524 0.66201 0.0
C1909 C 0.50839 0.81864 0.76435 0.0
C1910 C 0.50824 0.81551 0.6911 0.0
C1911 C 0.66501 0.92343 0.89595 0.0
C1912 C 0.5427 0.82782 0.86782 0.0
C1913 C 0.4687 0.8749 0.90998 0.0
C1914 C 0.49132 0.9119 0.92458 0.0
C1915 C 0.59449 0.82803 0.16023 0.0
C1916 C 0.68981 0.84331 0.25376 0.0
C1917 C 0.66065 0.81215 0.29079 0.0
C1918 C 0.66794 0.7968 0.35311 0.0
C1919 C 0.70491 0.81307 0.37342 0.0
C1920 C 0.72455 0.86147 0.28559 0.0
C1921 C 0.7323 0.84595 0.34369 0.0
C1922 C 0.58755 0.78667 0.97962 0.0
C1923 C 0.68862 0.85327 0.17654 0.0
H1924 H 0.56532 0.78593 0.80039 0.0
H1925 H 0.54984 0.83448 0.61979 0.0
H1926 H 0.49637 0.83313 0.7906 0.0
H1927 H 0.49303 0.82362 0.65771 0.0
H1928 H 0.63277 0.80057 0.27213 0.0
H1929 H 0.71318 0.80014 0.41189 0.0
H1930 H 0.74695 0.88579 0.26106 0.0
H1931 H 0.76035 0.85838 0.36321 0.0
Eu1932 Eu -0.00504 0.69928 0.97336 0.0
C1933 C -0.05118 0.82045 1.02374 0.0
C1934 C -0.00844 0.88504 1.01871 0.0
C1935 C -0.07365 0.86391 1.0117 0.0
C1936 C -0.01591 0.84806 1.01983 0.0
C1937 C -0.08076 0.8276 1.01833 0.0
C1938 C -0.03726 0.89287 1.01332 0.0
C1939 C 0.87832 0.76296 1.03422 0.0
N1940 N -0.05667 0.78633 1.03586 0.0
C1941 C 0.90908 0.75897 1.04602 0.0
C1942 C 0.88348 0.79802 1.02256 0.0
Eu1943 Eu -0.00573 0.77604 0.05281 0.0
N1944 N 0.01121 0.83896 1.02162 0.0
C1945 C 0.0462 0.86684 1.02656 0.0
C1946 C 0.02738 0.91279 1.03012 0.0
C1947 C 0.054 0.90291 1.03905 0.0
H1948 H 0.90843 0.7355 0.06554 0.0
H1949 H 0.081 0.92335 0.055 0.0
H1950 H -0.03172 0.92109 1.01218 0.0
H1951 H 0.85118 0.73984 1.04178 0.0
H1952 H 0.06739 0.86049 1.02534 0.0
H1953 H 0.86353 0.5474 1.01868 0.0
H1954 H 0.03436 -0.05871 1.03643 0.0
H1955 H 0.06711 0.68879 1.02805 0.0
H1956 H 0.8906 0.61999 0.13354 0.0
H1957 H 0.08865 0.64545 0.99893 0.0
H1958 H 0.904 0.86989 1.00823 0.0
H1959 H 0.85546 0.51398 0.95063 0.0
H1960 H -0.06347 0.53267 0.96795 0.0
H1961 H 0.86022 0.80252 1.02159 0.0
H1962 H -0.01398 0.54476 0.91555 0.0
N1963 N -0.05106 0.63423 1.01493 0.0
C1964 C 0.8974 0.6084 0.08825 0.0
C1965 C 0.87444 0.54226 0.97873 0.0
C1966 C -0.08029 0.56743 0.93272 0.0
C1967 C 0.86276 0.56234 0.05847 0.0
C1968 C -0.04589 0.61228 0.95211 0.0
H1969 H 0.04755 0.58859 0.93492 0.0
N1970 N 0.01378 0.65478 0.98408 0.0
C1971 C 0.06139 0.63967 0.9834 0.0
C1972 C -0.00942 0.62282 0.95011 0.0
C1973 C 0.0486 0.66286 1.00339 0.0
C1974 C 0.03817 0.60795 0.9453 0.0
C1975 C 0.00233 0.59926 0.92877 0.0
O1976 O 0.04202 0.70518 0.92087 0.0
O1977 O -0.01002 0.74953 0.95485 0.0
O1978 O -0.05989 0.73953 0.95154 0.0
O1979 O -0.0548 0.69199 0.9004 0.0
O1980 O 0.01518 0.73983 0.87598 0.0
O1981 O -0.01115 0.67527 0.86826 0.0
O1982 O -0.03262 0.77624 0.15407 0.0
O1983 O 0.01054 0.73133 0.0899 0.0
O1984 O 0.05025 0.73962 1.01316 0.0
O1985 O 0.05035 0.79328 0.99227 0.0
O1986 O 0.01805 0.76469 0.16253 0.0
O1987 O 0.02526 0.81874 0.12971 0.0
C1988 C 0.00469 0.76244 0.89395 0.0
C1989 C 0.04222 0.69125 0.80296 0.0
C1990 C 0.04795 0.72476 0.70279 0.0
C1991 C 0.05895 0.72539 0.77106 0.0
C1992 C 0.03639 0.69279 0.66201 0.0
C1993 C 0.03298 0.66006 0.76435 0.0
C1994 C 0.03612 0.66304 0.69111 0.0
C1995 C -0.07179 0.71188 0.89595 0.0
C1996 C 0.0238 0.68519 0.86782 0.0
C1997 C -0.02325 0.56412 0.91001 0.0
C1998 C -0.06027 0.54972 0.92459 0.0
C1999 C 0.02362 0.73677 0.16024 0.0
C2000 C 0.00833 0.81679 0.25377 0.0
C2001 C 0.0395 0.8188 0.29079 0.0
C2002 C 0.05485 0.84145 0.35311 0.0
C2003 C 0.03859 0.86215 0.37342 0.0
C2004 C -0.00982 0.83337 0.28559 0.0
C2005 C 0.0057 0.85665 0.34368 0.0
C2006 C 0.06498 0.7712 0.97963 0.0
C2007 C -0.00163 0.80564 0.17655 0.0
H2008 H 0.06571 0.74971 0.8004 0.0
H2009 H 0.01716 0.68568 0.61979 0.0
H2010 H 0.01849 0.63354 0.7906 0.0
H2011 H 0.02801 0.63973 0.65771 0.0
H2012 H 0.05108 0.80252 0.27213 0.0
H2013 H 0.05151 0.88335 0.41189 0.0
H2014 H -0.03415 0.83144 0.26106 0.0
H2015 H -0.00673 0.87227 0.3632 0.0
Eu2016 Eu 0.32982 0.1094 0.88609 0.0
C2017 C 0.18009 -0.0437 0.78349 0.0
C2018 C 0.19553 0.9009 0.76582 0.0
C2019 C 0.13514 0.89762 0.74349 0.0
C2020 C 0.206 -0.05425 0.78542 0.0
C2021 C 0.14476 0.93276 0.76219 0.0
C2022 C 0.15771 0.8832 0.75832 0.0
C2023 C 0.12619 -0.02677 0.81679 0.0
N2024 N 0.18892 -0.0117 0.81735 0.0
C2025 C 0.1622 -0.00357 0.83661 0.0
C2026 C 0.11763 -0.05853 0.7788 0.0
Eu2027 Eu 0.25229 0.03266 0.8066 0.0
N2028 N 0.23306 -0.03237 0.84837 0.0
C2029 C 0.25872 -0.05828 0.92162 0.0
C2030 C 0.21564 0.87573 0.81173 0.0
C2031 C 0.24734 0.89571 0.89161 0.0
H2032 H 0.16967 0.0224 0.86115 0.0
H2033 H 0.23168 0.88083 0.85172 0.0
H2034 H 0.14359 0.86569 0.80091 0.0
H2035 H 0.10474 -0.02094 0.83226 0.0
H2036 H 0.2771 -0.04673 0.96695 0.0
H2037 H 0.39086 0.25685 0.88791 0.0
H2038 H 0.20649 0.84756 0.78334 0.0
H2039 H 0.37495 0.06866 0.8985 0.0
H2040 H 0.3414 0.194 0.85845 0.0
H2041 H 0.43647 0.07285 0.8745 0.0
H2042 H 0.10649 0.8783 0.74884 0.0
H2043 H 0.45536 0.27459 0.86929 0.0
H2044 H 0.50109 0.2542 0.84527 0.0
H2045 H 0.08887 0.92212 0.76841 0.0
H2046 H 0.51398 0.20289 0.84138 0.0
N2047 N 0.37594 0.17231 0.85491 0.0
C2048 C 0.36892 0.20026 0.85963 0.0
C2049 C 0.43377 0.24609 0.86308 0.0
C2050 C 0.44172 0.21826 0.85189 0.0
C2051 C 0.39729 0.23634 0.87192 0.0
C2052 C 0.41214 0.18132 0.85314 0.0
H2053 H 0.49021 0.1355 0.85459 0.0
N2054 N 0.39101 0.11955 0.86913 0.0
C2055 C 0.43252 0.09603 0.86715 0.0
C2056 C 0.4197 0.15364 0.85705 0.0
C2057 C 0.39781 0.09212 0.87908 0.0
C2058 C 0.46249 0.13107 0.85562 0.0
C2059 C 0.4564 0.1607 0.85155 0.0
O2060 O 0.3571 0.10991 0.98729 0.0
O2061 O 0.26884 0.06466 0.92319 0.0
O2062 O 0.23735 0.07297 0.84648 0.0
O2063 O 0.29093 0.12662 0.82562 0.0
O2064 O 0.29472 0.09784 0.99596 0.0
O2065 O 0.34137 0.15214 0.96279 0.0
O2066 O 0.2112 0.03853 0.75388 0.0
O2067 O 0.30751 0.08291 0.78815 0.0
O2068 O 0.34741 0.07291 0.78475 0.0
O2069 O 0.29476 0.02533 0.73369 0.0
O2070 O 0.27264 0.07329 0.70933 0.0
O2071 O 0.23446 0.00854 0.70153 0.0
C2072 C 0.26118 0.07 0.99358 0.0
C2073 C 0.35652 0.15039 0.08687 0.0
C2074 C 0.33461 0.17492 0.18635 0.0
C2075 C 0.32734 0.15233 0.12394 0.0
C2076 C 0.37158 0.19561 0.2067 0.0
C2077 C 0.39126 0.16698 0.11869 0.0
C2078 C 0.39899 0.19019 0.17687 0.0
C2079 C 0.25421 0.10454 0.81298 0.0
C2080 C 0.35532 0.13922 1.00967 0.0
C2081 C 0.48568 0.19699 0.84491 0.0
C2082 C 0.47835 0.226 0.8465 0.0
C2083 C 0.30578 0.09585 0.72725 0.0
C2084 C 0.19709 0.0245 0.63604 0.0
C2085 C 0.21437 0.05866 0.60423 0.0
C2086 C 0.22491 0.05816 0.53603 0.0
C2087 C 0.20454 0.0262 0.49515 0.0
C2088 C 0.17527 -0.0067 0.59736 0.0
C2089 C 0.17511 -0.00365 0.52415 0.0
C2090 C 0.33165 0.04523 0.72924 0.0
C2091 C 0.20944 0.01849 0.70094 0.0
H2092 H 0.29947 0.13602 0.10526 0.0
H2093 H 0.37984 0.21675 0.24528 0.0
H2094 H 0.41366 0.16507 0.09414 0.0
H2095 H 0.42704 0.2058 0.19643 0.0
H2096 H 0.23183 0.08298 0.63369 0.0
H2097 H 0.21673 0.01913 0.45302 0.0
H2098 H 0.1633 -0.03323 0.62352 0.0
H2099 H 0.15997 -0.02695 0.49069 0.0
Eu2100 Eu 0.74224 0.19072 0.88608 0.0
C2101 C 0.89535 0.19412 0.78352 0.0
C2102 C -0.04923 0.26495 0.76583 0.0
C2103 C -0.04597 0.20784 0.74352 0.0
C2104 C 0.90592 0.23059 0.78543 0.0
C2105 C -0.08112 0.18232 0.76225 0.0
C2106 C -0.03154 0.24483 0.75833 0.0
C2107 C 0.87839 0.12328 0.81688 0.0
N2108 N 0.86334 0.17095 0.81739 0.0
C2109 C 0.8552 0.1361 0.83668 0.0
C2110 C 0.91016 0.14648 0.77889 0.0
Eu2111 Eu 0.819 0.18996 0.80661 0.0
N2112 N 0.88404 0.23578 0.84836 0.0
C2113 C 0.90996 0.28736 0.92157 0.0
C2114 C -0.02403 0.31025 0.8117 0.0
C2115 C -0.04401 0.32198 0.89155 0.0
H2116 H 0.82923 0.11761 0.86121 0.0
H2117 H -0.02913 0.3212 0.85168 0.0
H2118 H -0.01403 0.24822 0.80093 0.0
H2119 H 0.87255 0.096 0.83236 0.0
H2120 H 0.89842 0.29421 0.96688 0.0
H2121 H 0.59479 0.10427 0.88791 0.0
H2122 H 0.00414 0.32928 0.7833 0.0
H2123 H 0.78299 0.27659 0.89855 0.0
H2124 H 0.65764 0.11768 0.85843 0.0
H2125 H 0.77879 0.33391 0.87456 0.0
H2126 H -0.02666 0.19851 0.74886 0.0
H2127 H 0.57705 0.15102 0.86932 0.0
H2128 H 0.59743 0.21713 0.84529 0.0
H2129 H -0.07049 0.13708 0.76851 0.0
H2130 H 0.64875 0.28135 0.84142 0.0
N2131 N 0.67933 0.17391 0.8549 0.0
C2132 C 0.65138 0.13894 0.85962 0.0
C2133 C 0.60554 0.15793 0.86309 0.0
C2134 C 0.63337 0.19372 0.85189 0.0
C2135 C 0.6153 0.13122 0.87192 0.0
C2136 C 0.67032 0.2011 0.85313 0.0
H2137 H 0.71614 0.32499 0.85464 0.0
N2138 N 0.73209 0.24176 0.86913 0.0
C2139 C 0.75562 0.30678 0.86719 0.0
C2140 C 0.698 0.23634 0.85704 0.0
C2141 C 0.75953 0.27599 0.8791 0.0
C2142 C 0.72057 0.3017 0.85566 0.0
C2143 C 0.69094 0.26597 0.85156 0.0
O2144 O 0.74176 0.21749 0.98728 0.0
O2145 O 0.78699 0.17451 0.9232 0.0
O2146 O 0.77867 0.13471 0.84649 0.0
O2147 O 0.72502 0.13462 0.82562 0.0
O2148 O 0.75378 0.16716 0.99594 0.0
O2149 O 0.6995 0.15953 0.9628 0.0
O2150 O 0.81313 0.14301 0.75389 0.0
O2151 O 0.76874 0.19491 0.78816 0.0
O2152 O 0.77874 0.24482 0.78475 0.0
O2153 O 0.82632 0.23976 0.73369 0.0
O2154 O 0.77836 0.16967 0.70933 0.0
O2155 O 0.84311 0.19626 0.70154 0.0
C2156 C 0.78164 0.16149 0.99358 0.0
C2157 C 0.70127 0.17644 0.08687 0.0
C2158 C 0.67673 0.13 0.18635 0.0
C2159 C 0.69932 0.14532 0.12394 0.0
C2160 C 0.65604 0.14627 0.2067 0.0
C2161 C 0.68468 0.19459 0.11868 0.0
C2162 C 0.66147 0.1791 0.17686 0.0
C2163 C 0.7471 0.11998 0.81298 0.0
C2164 C 0.71244 0.18641 1.00967 0.0
C2165 C 0.65465 0.25895 0.84493 0.0
C2166 C 0.62563 0.2226 0.84651 0.0
C2167 C 0.7558 0.18024 0.72725 0.0
C2168 C 0.82716 0.14294 0.63605 0.0
C2169 C 0.79299 0.12604 0.60425 0.0
C2170 C 0.79348 0.13707 0.53604 0.0
C2171 C 0.82545 0.14867 0.49515 0.0
C2172 C 0.85835 0.15231 0.59736 0.0
C2173 C 0.85529 0.1491 0.52415 0.0
C2174 C 0.80642 0.25674 0.72925 0.0
C2175 C 0.83317 0.1613 0.70094 0.0
H2176 H 0.71563 0.13376 0.10526 0.0
H2177 H 0.6349 0.13339 0.24529 0.0
H2178 H 0.6866 0.2189 0.09413 0.0
H2179 H 0.64586 0.19153 0.19642 0.0
H2180 H 0.76867 0.11918 0.63371 0.0
H2181 H 0.83252 0.16792 0.45302 0.0
H2182 H 0.88489 0.16687 0.62352 0.0
H2183 H 0.87859 0.15725 0.4907 0.0
Eu2184 Eu 0.6609 0.52185 0.8861 0.0
C2185 C 0.65757 0.67159 0.78353 0.0
C2186 C 0.58673 0.65617 0.76582 0.0
C2187 C 0.64386 0.71655 0.74354 0.0
C2188 C 0.62109 0.64569 0.78543 0.0
C2189 C 0.66938 0.70692 0.76227 0.0
C2190 C 0.60686 0.69399 0.75833 0.0
C2191 C 0.72841 0.72547 0.8169 0.0
N2192 N 0.68073 0.66274 0.81738 0.0
C2193 C 0.71559 0.68945 0.83667 0.0
C2194 C 0.70522 0.73405 0.77892 0.0
Eu2195 Eu 0.66169 0.59938 0.80662 0.0
N2196 N 0.61589 0.61861 0.84836 0.0
C2197 C 0.5643 0.59295 0.92157 0.0
C2198 C 0.54142 0.63605 0.81168 0.0
C2199 C 0.52968 0.60435 0.89154 0.0
H2200 H 0.73408 0.68197 0.86119 0.0
H2201 H 0.53047 0.62001 0.85166 0.0
H2202 H 0.60345 0.7081 0.8009 0.0
H2203 H 0.7557 0.74691 0.83237 0.0
H2204 H 0.55745 0.57455 0.96688 0.0
H2205 H 0.74737 0.46093 0.88795 0.0
H2206 H 0.5224 0.64519 0.78326 0.0
H2207 H 0.57502 0.4767 0.89851 0.0
H2208 H 0.73394 0.51033 0.85835 0.0
H2209 H 0.5177 0.41518 0.87454 0.0
H2210 H 0.6532 0.7452 0.7489 0.0
H2211 H 0.70063 0.39641 0.8694 0.0
H2212 H 0.6345 0.35064 0.84541 0.0
H2213 H 0.71464 0.7628 0.76851 0.0
H2214 H 0.57027 0.33771 0.84151 0.0
N2215 N 0.67771 0.47576 0.85491 0.0
C2216 C 0.71269 0.4828 0.85961 0.0
C2217 C 0.69371 0.41798 0.86316 0.0
C2218 C 0.65791 0.41 0.85196 0.0
C2219 C 0.72042 0.45446 0.87197 0.0
C2220 C 0.65052 0.43956 0.85318 0.0
H2221 H 0.52662 0.36144 0.85467 0.0
N2222 N 0.60986 0.46066 0.86913 0.0
C2223 C 0.54483 0.41913 0.86718 0.0
C2224 C 0.61528 0.43198 0.85708 0.0
C2225 C 0.57563 0.45385 0.87907 0.0
C2226 C 0.54991 0.38917 0.85568 0.0
C2227 C 0.58565 0.39528 0.85161 0.0
O2228 O 0.63411 0.49458 0.98729 0.0
O2229 O 0.67713 0.58282 0.92321 0.0
O2230 O 0.71695 0.6143 0.84648 0.0
O2231 O 0.71701 0.56072 0.82563 0.0
O2232 O 0.68448 0.55696 0.99595 0.0
O2233 O 0.69207 0.51027 0.96281 0.0
O2234 O 0.70865 0.64046 0.75388 0.0
O2235 O 0.65673 0.54417 0.78817 0.0
O2236 O 0.60681 0.50426 0.78476 0.0
O2237 O 0.61189 0.5569 0.7337 0.0
O2238 O 0.68196 0.57903 0.70933 0.0
O2239 O 0.65539 0.61719 0.70155 0.0
C2240 C 0.69015 0.59048 0.99358 0.0
C2241 C 0.67516 0.49513 0.08687 0.0
C2242 C 0.7216 0.51702 0.18635 0.0
C2243 C 0.70629 0.5243 0.12395 0.0
C2244 C 0.70532 0.48006 0.20668 0.0
C2245 C 0.657 0.46039 0.11868 0.0
C2246 C 0.67248 0.45266 0.17686 0.0
C2247 C 0.73167 0.59745 0.81299 0.0
C2248 C 0.66519 0.49634 1.00967 0.0
C2249 C 0.59267 0.36601 0.84501 0.0
C2250 C 0.62902 0.37336 0.84661 0.0
C2251 C 0.67139 0.54589 0.72725 0.0
C2252 C 0.70871 0.65455 0.63603 0.0
C2253 C 0.72561 0.63729 0.60424 0.0
C2254 C 0.71459 0.62676 0.53602 0.0
C2255 C 0.703 0.64712 0.49513 0.0
C2256 C 0.69935 0.67637 0.59733 0.0
C2257 C 0.70258 0.67654 0.52413 0.0
C2258 C 0.59489 0.52001 0.72925 0.0
C2259 C 0.69036 0.6422 0.70094 0.0
H2260 H 0.71785 0.55217 0.10528 0.0
H2261 H 0.71821 0.4718 0.24526 0.0
H2262 H 0.63269 0.438 0.09412 0.0
H2263 H 0.66004 0.42461 0.1964 0.0
H2264 H 0.73247 0.61983 0.63371 0.0
H2265 H 0.68375 0.63494 0.453 0.0
H2266 H 0.68477 0.68834 0.62349 0.0
H2267 H 0.69443 0.69169 0.49065 0.0
Eu2268 Eu 0.74642 0.69282 0.1752 0.0
C2269 C 0.59329 0.54309 0.27774 0.0
C2270 C 0.53788 0.55852 0.29542 0.0
C2271 C 0.53461 0.49815 0.31776 0.0
C2272 C 0.58273 0.569 0.27582 0.0
C2273 C 0.56976 0.50777 0.29903 0.0
C2274 C 0.52018 0.52071 0.30292 0.0
C2275 C 0.61023 0.48921 0.24443 0.0
N2276 N 0.6253 0.55193 0.24388 0.0
C2277 C 0.63344 0.52522 0.22461 0.0
C2278 C 0.57847 0.48064 0.28241 0.0
Eu2279 Eu 0.66965 0.61529 0.25465 0.0
N2280 N 0.60462 0.59607 0.21289 0.0
C2281 C 0.5787 0.62172 0.13965 0.0
C2282 C 0.51269 0.57863 0.24953 0.0
C2283 C 0.53268 0.61033 0.16966 0.0
H2284 H 0.6594 0.5327 0.20007 0.0
H2285 H 0.5178 0.59467 0.20954 0.0
H2286 H 0.50269 0.5066 0.26031 0.0
H2287 H 0.61606 0.46776 0.22896 0.0
H2288 H 0.59025 0.64011 0.09433 0.0
H2289 H 0.89387 0.75382 0.17339 0.0
H2290 H 0.48452 0.56948 0.27791 0.0
H2291 H 0.70569 0.73796 0.16269 0.0
H2292 H 0.831 0.70437 0.20286 0.0
H2293 H 0.70989 0.79948 0.18673 0.0
H2294 H 0.51529 0.4695 0.31243 0.0
H2295 H -0.08838 0.81832 0.19199 0.0
H2296 H 0.89125 0.86405 0.21603 0.0
H2297 H 0.55912 0.45189 0.2928 0.0
H2298 H 0.83994 0.87695 0.21992 0.0
N2299 N 0.80933 0.73892 0.20639 0.0
C2300 C 0.83728 0.7319 0.20167 0.0
C2301 C 0.88312 0.79673 0.19822 0.0
C2302 C 0.8553 0.80469 0.20941 0.0
C2303 C 0.87336 0.76026 0.18938 0.0
C2304 C 0.81834 0.77512 0.20816 0.0
H2305 H 0.77255 0.85321 0.2067 0.0
N2306 N 0.75657 0.75401 0.19216 0.0
C2307 C 0.73306 0.79552 0.1941 0.0
C2308 C 0.79067 0.78268 0.20426 0.0
C2309 C 0.72915 0.76081 0.18217 0.0
C2310 C 0.76811 0.82548 0.20566 0.0
C2311 C 0.79774 0.81938 0.20975 0.0
O2312 O 0.7469 0.72008 0.07399 0.0
O2313 O 0.70166 0.63185 0.13807 0.0
O2314 O 0.70997 0.60036 0.21479 0.0
O2315 O 0.76363 0.65393 0.23568 0.0
O2316 O 0.73488 0.65772 0.06534 0.0
O2317 O 0.78916 0.70438 0.09848 0.0
O2318 O 0.67552 0.57421 0.30737 0.0
O2319 O 0.71991 0.6705 0.27312 0.0
O2320 O 0.70991 0.71041 0.27652 0.0
O2321 O 0.66233 0.65777 0.32756 0.0
O2322 O 0.71027 0.63563 0.35195 0.0
O2323 O 0.64552 0.59746 0.35971 0.0
C2324 C 0.70701 0.6242 0.06769 0.0
C2325 C 0.78739 0.71952 0.9744 0.0
C2326 C 0.81192 0.69761 0.87492 0.0
C2327 C 0.78932 0.69034 0.93732 0.0
C2328 C 0.83263 0.73457 0.85459 0.0
C2329 C 0.804 0.75426 0.9426 0.0
C2330 C 0.82721 0.76198 0.88442 0.0
C2331 C 0.74155 0.61721 0.24831 0.0
C2332 C 0.77622 0.71831 0.05161 0.0
C2333 C 0.83403 0.84865 0.2164 0.0
C2334 C 0.86304 0.84132 0.21481 0.0
C2335 C 0.73284 0.66877 0.33404 0.0
C2336 C 0.66148 0.5601 0.4252 0.0
C2337 C 0.69566 0.57736 0.457 0.0
C2338 C 0.69515 0.58782 0.52525 0.0
C2339 C 0.66319 0.56748 0.56614 0.0
C2340 C 0.63028 0.53827 0.46389 0.0
C2341 C 0.63332 0.53809 0.5371 0.0
C2342 C 0.68223 0.69465 0.33202 0.0
C2343 C 0.65548 0.57245 0.36031 0.0
H2344 H 0.77299 0.66247 0.95597 0.0
H2345 H 0.85377 0.74283 0.816 0.0
H2346 H 0.8021 0.77666 0.96716 0.0
H2347 H 0.84284 0.79003 0.86486 0.0
H2348 H 0.71998 0.59484 0.42756 0.0
H2349 H 0.65613 0.57967 0.60828 0.0
H2350 H 0.60374 0.52631 0.43772 0.0
H2351 H 0.61001 0.52296 0.57053 0.0
Eu2352 Eu 0.15883 0.02389 0.17518 0.0
C2353 C 0.30858 0.02055 0.27774 0.0
C2354 C 0.29315 -0.05028 0.29543 0.0
C2355 C 0.35353 0.00683 0.31774 0.0
C2356 C 0.28267 -0.01592 0.27582 0.0
C2357 C 0.34392 0.03236 0.29902 0.0
C2358 C 0.33097 -0.03016 0.30293 0.0
C2359 C 0.36248 0.09139 0.24442 0.0
N2360 N 0.29974 0.04372 0.24389 0.0
C2361 C 0.32646 0.07858 0.22462 0.0
C2362 C 0.37105 0.06819 0.2824 0.0
Eu2363 Eu 0.23637 0.02469 0.25465 0.0
N2364 N 0.2556 -0.0211 0.21288 0.0
C2365 C 0.22995 0.92733 0.13965 0.0
C2366 C 0.27303 0.90442 0.24954 0.0
C2367 C 0.24133 0.8927 0.16967 0.0
H2368 H 0.31898 0.09707 0.2001 0.0
H2369 H 0.25699 0.89348 0.20955 0.0
H2370 H 0.34508 -0.03356 0.26034 0.0
H2371 H 0.38393 0.11868 0.22896 0.0
H2372 H 0.21156 0.92048 0.09432 0.0
H2373 H 0.09789 0.11035 0.17337 0.0
H2374 H 0.28217 0.8854 0.27795 0.0
H2375 H 0.11366 0.93801 0.16274 0.0
H2376 H 0.14731 0.09692 0.20292 0.0
H2377 H 0.05214 0.8807 0.18677 0.0
H2378 H 0.38219 0.01617 0.3124 0.0
H2379 H 0.03337 0.0636 0.19194 0.0
H2380 H -0.0124 -0.00252 0.21595 0.0
H2381 H 0.3998 0.07761 0.29281 0.0
H2382 H -0.02532 0.93327 0.21985 0.0
N2383 N 0.11274 0.0407 0.20638 0.0
C2384 C 0.11978 0.07567 0.20169 0.0
C2385 C 0.05495 0.05669 0.19817 0.0
C2386 C 0.04696 0.02089 0.20936 0.0
C2387 C 0.09143 0.0834 0.18935 0.0
C2388 C 0.07653 0.01351 0.20813 0.0
H2389 H -0.00159 0.88962 0.20668 0.0
N2390 N 0.09763 -0.02715 0.19216 0.0
C2391 C 0.0561 0.90783 0.19413 0.0
C2392 C 0.06896 -0.02173 0.20423 0.0
C2393 C 0.09082 0.93862 0.18221 0.0
C2394 C 0.02614 0.91292 0.20566 0.0
C2395 C 0.03225 -0.05136 0.20972 0.0
O2396 O 0.13156 -0.00289 0.07399 0.0
O2397 O 0.21981 0.04013 0.13807 0.0
O2398 O 0.2513 0.07995 0.2148 0.0
O2399 O 0.19771 0.08 0.23566 0.0
O2400 O 0.19394 0.04746 0.06532 0.0
O2401 O 0.14725 0.05506 0.09847 0.0
O2402 O 0.27746 0.07166 0.30738 0.0
O2403 O 0.18116 0.01973 0.27311 0.0
O2404 O 0.14124 -0.03019 0.27652 0.0
O2405 O 0.19389 -0.02512 0.32756 0.0
O2406 O 0.21602 0.04495 0.35196 0.0
O2407 O 0.25421 0.0184 0.3597 0.0
C2408 C 0.22746 0.05313 0.06768 0.0
C2409 C 0.13211 0.03815 0.9744 0.0
C2410 C 0.15401 0.08459 0.87493 0.0
C2411 C 0.16128 0.06927 0.93732 0.0
C2412 C 0.11704 0.06832 0.85459 0.0
C2413 C 0.09736 0.02 0.9426 0.0
C2414 C 0.08963 0.03549 0.88442 0.0
C2415 C 0.23444 0.09466 0.2483 0.0
C2416 C 0.13331 0.02818 0.0516 0.0
C2417 C 0.00298 -0.04434 0.21634 0.0
C2418 C 0.01033 -0.00799 0.21474 0.0
C2419 C 0.18289 0.03438 0.33404 0.0
C2420 C 0.29156 0.07171 0.42522 0.0
C2421 C 0.27431 0.08863 0.457 0.0
C2422 C 0.26386 0.07768 0.52526 0.0
C2423 C 0.28419 0.06606 0.56616 0.0
C2424 C 0.31339 0.06234 0.46391 0.0
C2425 C 0.31358 0.06558 0.53712 0.0
C2426 C 0.157 -0.04211 0.33202 0.0
C2427 C 0.27921 0.05336 0.36031 0.0
H2428 H 0.18916 0.08081 0.95596 0.0
H2429 H 0.10879 0.08121 0.81602 0.0
H2430 H 0.07496 -0.00431 0.96716 0.0
H2431 H 0.06158 0.02305 0.86487 0.0
H2432 H 0.25683 0.09547 0.42756 0.0
H2433 H 0.272 0.04681 0.60829 0.0
H2434 H 0.32534 0.04776 0.43775 0.0
H2435 H 0.32872 0.05742 0.57056 0.0
Eu2436 Eu 0.82774 0.10526 0.17519 0.0
C2437 C 0.83109 0.25835 0.2777 0.0
C2438 C 0.90193 0.31378 0.29543 0.0
C2439 C 0.8448 0.31702 0.31771 0.0
C2440 C 0.86757 0.26893 0.27581 0.0
C2441 C 0.81928 0.28187 0.29896 0.0
C2442 C 0.8818 0.33146 0.30291 0.0
C2443 C 0.76025 0.24138 0.24432 0.0
N2444 N 0.80793 0.22634 0.24385 0.0
C2445 C 0.77307 0.21818 0.22456 0.0
C2446 C 0.78344 0.27315 0.2823 0.0
Eu2447 Eu 0.82697 0.18202 0.25464 0.0
N2448 N 0.87278 0.24705 0.21289 0.0
C2449 C -0.07563 0.27299 0.1397 0.0
C2450 C -0.05276 0.33898 0.24958 0.0
C2451 C -0.04101 0.31901 0.16973 0.0
H2452 H 0.75458 0.19221 0.20004 0.0
H2453 H -0.04181 0.33388 0.2096 0.0
H2454 H 0.8852 0.34898 0.26034 0.0
H2455 H 0.73296 0.23553 0.22887 0.0
H2456 H -0.06877 0.26145 0.09439 0.0
H2457 H 0.74122 -0.04214 0.17336 0.0
H2458 H -0.03374 0.36714 0.27799 0.0
H2459 H -0.08639 0.14597 0.16268 0.0
H2460 H 0.75469 0.02071 0.20296 0.0
H2461 H -0.02907 0.14177 0.18669 0.0
H2462 H 0.83546 0.33633 0.31237 0.0
H2463 H 0.78796 0.94008 0.19189 0.0
H2464 H 0.85408 -0.03958 0.21591 0.0
H2465 H 0.77402 0.29248 0.29271 0.0
H2466 H -0.08169 0.01172 0.21981 0.0
N2467 N 0.81091 0.04236 0.20639 0.0
C2468 C 0.77593 0.01443 0.2017 0.0
C2469 C 0.79488 -0.03143 0.19814 0.0
C2470 C 0.83069 -0.00361 0.20935 0.0
C2471 C 0.76818 -0.02165 0.18934 0.0
C2472 C 0.83809 0.03334 0.20814 0.0
H2473 H -0.03801 0.07911 0.20661 0.0
N2474 N 0.87876 0.0951 0.19216 0.0
C2475 C -0.05621 0.1186 0.19407 0.0
C2476 C 0.87333 0.061 0.20423 0.0
C2477 C -0.087 0.12252 0.18217 0.0
C2478 C -0.06131 0.08355 0.20561 0.0
C2479 C 0.90296 0.05392 0.2097 0.0
O2480 O 0.85453 0.1048 0.074 0.0
O2481 O 0.81152 0.15001 0.13806 0.0
O2482 O 0.7717 0.14167 0.21479 0.0
O2483 O 0.77163 0.08803 0.23566 0.0
O2484 O 0.80413 0.11677 0.06535 0.0
O2485 O 0.79658 0.06251 0.09846 0.0
O2486 O 0.78001 0.17614 0.30738 0.0
O2487 O 0.83191 0.13176 0.27311 0.0
O2488 O 0.88183 0.14176 0.27651 0.0
O2489 O 0.87677 0.18934 0.32755 0.0
O2490 O 0.8067 0.14141 0.35196 0.0
O2491 O 0.83328 0.20615 0.35969 0.0
C2492 C 0.79851 0.14465 0.06768 0.0
C2493 C 0.81349 0.0643 0.9744 0.0
C2494 C 0.76705 0.03974 0.87493 0.0
C2495 C 0.78237 0.06235 0.93732 0.0
C2496 C 0.78331 0.01905 0.8546 0.0
C2497 C 0.83164 0.0477 0.94261 0.0
C2498 C 0.81614 0.02448 0.88444 0.0
C2499 C 0.75698 0.1101 0.2483 0.0
C2500 C 0.82346 0.07547 0.0516 0.0
C2501 C 0.89592 0.01763 0.21631 0.0
C2502 C 0.85956 -0.01137 0.21471 0.0
C2503 C 0.81725 0.11883 0.33403 0.0
C2504 C 0.77997 0.19018 0.42522 0.0
C2505 C 0.76303 0.15601 0.45699 0.0
C2506 C 0.77397 0.1565 0.52526 0.0
C2507 C 0.78559 0.18845 0.56616 0.0
C2508 C 0.78933 0.22137 0.46391 0.0
C2509 C 0.78607 0.21832 0.53712 0.0
C2510 C 0.89375 0.16944 0.33201 0.0
C2511 C 0.79831 0.19619 0.36031 0.0
H2512 H 0.77083 0.07867 0.95595 0.0
H2513 H 0.77042 -0.0021 0.81603 0.0
H2514 H 0.85594 0.04961 0.96717 0.0
H2515 H 0.82857 0.00886 0.8649 0.0
H2516 H 0.75619 0.13169 0.42755 0.0
H2517 H 0.80485 0.19552 0.6083 0.0
H2518 H 0.8039 0.24792 0.43776 0.0
H2519 H 0.79424 0.24161 0.57057 0.0
Eu2520 Eu 0.23632 0.182 0.75464 0.0
C2521 C 0.06898 0.06087 0.70422 0.0
C2522 C 0.04706 -0.00373 0.70931 0.0
C2523 C 0.00302 0.01745 0.71633 0.0
C2524 C 0.0766 0.03324 0.70814 0.0
C2525 C 0.03226 0.05375 0.70966 0.0
C2526 C 0.01041 -0.01153 0.71474 0.0
C2527 C 0.05603 0.11839 0.69377 0.0
N2528 N 0.09763 0.09498 0.69208 0.0
C2529 C 0.09078 0.12236 0.68194 0.0
C2530 C 0.02611 0.08333 0.70543 0.0
Eu2531 Eu 0.15885 0.10524 0.67516 0.0
N2532 N 0.11282 0.04231 0.70631 0.0
C2533 C 0.11988 0.0144 0.70133 0.0
C2534 C 0.05507 -0.03151 0.69793 0.0
C2535 C 0.09156 -0.02167 0.68894 0.0
H2536 H 0.11362 0.14583 0.66249 0.0
H2537 H 0.09806 -0.04214 0.67298 0.0
H2538 H -0.0123 -0.03975 0.71592 0.0
H2539 H 0.05203 0.14152 0.68624 0.0
H2540 H 0.14742 0.02072 0.70245 0.0
H2541 H 0.25673 0.33383 0.70925 0.0
H2542 H 0.03351 0.93999 0.69167 0.0
H2543 H 0.31899 0.19255 0.69998 0.0
H2544 H 0.21125 0.26124 0.59437 0.0
H2545 H 0.38387 0.2359 0.72916 0.0
H2546 H -0.0253 0.0115 0.71983 0.0
H2547 H 0.28209 0.36727 0.77729 0.0
H2548 H 0.34447 0.34861 0.76004 0.0
H2549 H -0.00164 0.07886 0.70642 0.0
H2550 H 0.38189 0.33656 0.81246 0.0
N2551 N 0.25534 0.24703 0.71306 0.0
C2552 C 0.22963 0.27284 0.63968 0.0
C2553 C 0.27279 0.33899 0.74922 0.0
C2554 C 0.29289 0.31384 0.79527 0.0
C2555 C 0.24104 0.31889 0.66945 0.0
C2556 C 0.28245 0.26899 0.77589 0.0
H2557 H 0.3996 0.29275 0.79318 0.0
N2558 N 0.29963 0.22652 0.74395 0.0
C2559 C 0.36238 0.24166 0.7447 0.0
C2560 C 0.30838 0.25847 0.77793 0.0
C2561 C 0.3264 0.21847 0.72466 0.0
C2562 C 0.37086 0.27337 0.78281 0.0
C2563 C 0.3437 0.28205 0.79929 0.0
O2564 O 0.27748 0.1761 0.80711 0.0
O2565 O 0.18106 0.13174 0.77313 0.0
O2566 O 0.14121 0.14174 0.77644 0.0
O2567 O 0.19385 0.18929 0.82759 0.0
O2568 O 0.21598 0.14142 0.85198 0.0
O2569 O 0.25422 0.20599 0.85976 0.0
O2570 O 0.13175 0.10499 0.57389 0.0
O2571 O 0.21985 0.14995 0.63808 0.0
O2572 O 0.25128 0.14168 0.71481 0.0
O2573 O 0.1977 0.08802 0.7357 0.0
O2574 O 0.19398 0.11664 0.56541 0.0
O2575 O 0.14718 0.06254 0.59828 0.0
C2576 C 0.18286 0.11882 0.83402 0.0
C2577 C 0.29164 0.19002 0.92501 0.0
C2578 C 0.26372 0.15652 1.02516 0.0
C2579 C 0.27419 0.15589 0.95695 0.0
C2580 C 0.28417 0.1885 0.06593 0.0
C2581 C 0.31358 0.22121 0.96363 0.0
C2582 C 0.3137 0.21824 1.03687 0.0
C2583 C 0.15696 0.1694 0.83201 0.0
C2584 C 0.27926 0.19608 0.86017 0.0
C2585 C 0.35325 0.31719 0.81802 0.0
C2586 C 0.33063 0.33157 0.80342 0.0
C2587 C 0.22749 0.14452 0.56775 0.0
C2588 C 0.13219 0.06447 0.4742 0.0
C2589 C 0.16135 0.06246 0.4372 0.0
C2590 C 0.15406 0.03983 0.37485 0.0
C2591 C 0.11709 0.01914 0.35452 0.0
C2592 C 0.09746 0.04789 0.44236 0.0
C2593 C 0.08971 0.02463 0.38425 0.0
C2594 C 0.23442 0.11011 0.74833 0.0
C2595 C 0.13338 0.07562 0.55142 0.0
H2596 H 0.25664 0.13157 0.92759 0.0
H2597 H 0.27205 0.19562 0.10814 0.0
H2598 H 0.32561 0.24773 0.93736 0.0
H2599 H 0.32891 0.24155 0.07027 0.0
H2600 H 0.18922 0.07873 0.45589 0.0
H2601 H 0.10882 -0.00205 0.31604 0.0
H2602 H 0.07506 0.04983 0.46687 0.0
H2603 H 0.06165 0.00902 0.36471 0.0
Eu2604 Eu 0.66964 0.02463 0.75463 0.0
C2605 C 0.79077 -0.02153 0.70422 0.0
C2606 C 0.85538 0.02116 0.7093 0.0
C2607 C 0.83421 -0.04404 0.71631 0.0
C2608 C 0.81841 0.01372 0.70815 0.0
C2609 C 0.7979 -0.05112 0.70964 0.0
C2610 C 0.86318 -0.00767 0.71472 0.0
C2611 C 0.73325 0.90799 0.69373 0.0
N2612 N 0.75666 -0.02701 0.69208 0.0
C2613 C 0.72928 0.93876 0.68192 0.0
C2614 C 0.76831 0.91313 0.7054 0.0
Eu2615 Eu 0.7464 0.02394 0.67517 0.0
N2616 N 0.80933 0.04086 0.70633 0.0
C2617 C 0.83724 0.07584 0.70136 0.0
C2618 C 0.88316 0.05697 0.69792 0.0
C2619 C 0.87332 0.08361 0.68895 0.0
H2620 H 0.70581 0.93812 0.66246 0.0
H2621 H 0.89378 0.11059 0.67298 0.0
H2622 H 0.89141 -0.00215 0.71589 0.0
H2623 H 0.71012 0.88085 0.68618 0.0
H2624 H 0.83092 0.09705 0.70249 0.0
H2625 H 0.51776 0.89319 0.70929 0.0
H2626 H -0.08834 0.06392 0.69164 0.0
H2627 H 0.65911 0.09674 0.69994 0.0
H2628 H 0.59036 0.92027 0.59443 0.0
H2629 H 0.61577 0.11827 0.72909 0.0
H2630 H 0.84016 0.93359 0.71979 0.0
H2631 H 0.48432 0.88511 0.77732 0.0
H2632 H 0.50302 -0.03383 0.76003 0.0
H2633 H 0.77279 0.88986 0.70636 0.0
H2634 H 0.51509 0.01564 0.81244 0.0
N2635 N 0.60459 -0.0214 0.71307 0.0
C2636 C 0.57876 0.92707 0.63972 0.0
C2637 C 0.5126 0.9041 0.74924 0.0
C2638 C 0.53777 -0.05065 0.79527 0.0
C2639 C 0.5327 0.89242 0.66949 0.0
C2640 C 0.58263 -0.01624 0.77589 0.0
H2641 H 0.55891 0.07717 0.7931 0.0
N2642 N 0.62512 0.04342 0.74392 0.0
C2643 C 0.61 0.09102 0.74463 0.0
C2644 C 0.59317 0.02022 0.77791 0.0
C2645 C 0.63318 0.07823 0.72461 0.0
C2646 C 0.57828 0.0678 0.78274 0.0
C2647 C 0.56959 0.03196 0.79925 0.0
O2648 O 0.67553 0.07168 0.80711 0.0
O2649 O 0.71989 0.01964 0.77313 0.0
O2650 O 0.70989 -0.03021 0.77644 0.0
O2651 O 0.66234 -0.02513 0.82759 0.0
O2652 O 0.71021 0.04487 0.85197 0.0
O2653 O 0.64564 0.01853 0.85975 0.0
O2654 O 0.74663 -0.00291 0.5739 0.0
O2655 O 0.70169 0.04021 0.63808 0.0
O2656 O 0.70996 0.07991 0.7148 0.0
O2657 O 0.76363 0.08002 0.7357 0.0
O2658 O 0.73502 0.04769 0.56543 0.0
O2659 O 0.7891 0.05497 0.59828 0.0
C2660 C 0.73281 0.03436 0.83401 0.0
C2661 C 0.66161 0.07191 0.92501 0.0
C2662 C 0.69512 0.07751 1.02515 0.0
C2663 C 0.69575 0.0886 0.95694 0.0
C2664 C 0.66314 0.06598 0.06592 0.0
C2665 C 0.63042 0.06267 0.96363 0.0
C2666 C 0.6334 0.06576 1.03687 0.0
C2667 C 0.68223 -0.04212 0.83201 0.0
C2668 C 0.65555 0.05347 0.86017 0.0
C2669 C 0.53445 0.00637 0.818 0.0
C2670 C 0.52006 -0.03063 0.80341 0.0
C2671 C 0.70713 0.05329 0.56775 0.0
C2672 C 0.78715 0.03805 0.4742 0.0
C2673 C 0.78917 0.06922 0.4372 0.0
C2674 C 0.81181 0.08456 0.37485 0.0
C2675 C 0.83249 0.06829 0.35453 0.0
C2676 C 0.80373 0.01989 0.44237 0.0
C2677 C 0.827 0.03541 0.38426 0.0
C2678 C 0.74154 0.09464 0.74833 0.0
C2679 C 0.77601 0.02809 0.55143 0.0
H2680 H 0.72007 0.09537 0.92759 0.0
H2681 H 0.65602 0.04674 0.10814 0.0
H2682 H 0.6039 0.04818 0.93737 0.0
H2683 H 0.61009 0.05766 0.07027 0.0
H2684 H 0.7729 0.08082 0.45589 0.0
H2685 H 0.85369 0.08121 0.31604 0.0
H2686 H 0.80179 -0.00444 0.46688 0.0
H2687 H 0.84261 0.02297 0.36472 0.0
Eu2688 Eu 0.827 0.6153 0.75463 0.0
C2689 C 0.8732 0.78262 0.70418 0.0
C2690 C 0.83049 0.8045 0.70922 0.0
C2691 C 0.8957 0.84857 0.71622 0.0
C2692 C 0.83794 0.77498 0.7081 0.0
C2693 C 0.90279 0.81935 0.7096 0.0
C2694 C 0.85932 0.84115 0.71462 0.0
C2695 C -0.05631 0.79561 0.69375 0.0
N2696 N 0.87867 0.75399 0.69208 0.0
C2697 C -0.08708 0.76086 0.68195 0.0
C2698 C -0.06146 0.82552 0.70538 0.0
Eu2699 Eu 0.82772 0.69276 0.67515 0.0
N2700 N 0.8108 0.73876 0.70631 0.0
C2701 C 0.77582 0.73167 0.70137 0.0
C2702 C 0.79468 0.79645 0.69784 0.0
C2703 C 0.76803 0.75995 0.68889 0.0
H2704 H -0.08645 0.73803 0.66249 0.0
H2705 H 0.74105 0.75341 0.67294 0.0
H2706 H 0.8538 0.86385 0.71576 0.0
H2707 H -0.02918 0.79962 0.68621 0.0
H2708 H 0.75461 0.70413 0.70257 0.0
H2709 H -0.04157 0.59487 0.7093 0.0
H2710 H 0.78771 0.81799 0.69154 0.0
H2711 H 0.75486 0.53266 0.69995 0.0
H2712 H -0.06865 0.64038 0.59443 0.0
H2713 H 0.73331 0.46777 0.72908 0.0
H2714 H -0.08194 0.87689 0.71969 0.0
H2715 H -0.0335 0.56952 0.77735 0.0
H2716 H 0.88543 0.50713 0.76005 0.0
H2717 H -0.03819 0.85327 0.70634 0.0
H2718 H 0.83594 0.46972 0.81242 0.0
N2719 N 0.87302 0.59627 0.71306 0.0
C2720 C -0.07544 0.62198 0.63972 0.0
C2721 C -0.05248 0.57881 0.74925 0.0
C2722 C 0.90225 0.55871 0.79528 0.0
C2723 C -0.0408 0.61057 0.6695 0.0
C2724 C 0.86785 0.56916 0.77589 0.0
H2725 H 0.77441 0.45201 0.79309 0.0
N2726 N 0.80819 0.55199 0.74393 0.0
C2727 C 0.76057 0.48925 0.74461 0.0
C2728 C 0.83139 0.54323 0.77791 0.0
C2729 C 0.77337 0.52523 0.72462 0.0
C2730 C 0.78379 0.48075 0.78271 0.0
C2731 C 0.81963 0.50791 0.79923 0.0
O2732 O 0.77994 0.57415 0.80712 0.0
O2733 O 0.832 0.67055 0.77312 0.0
O2734 O 0.88186 0.7104 0.77643 0.0
O2735 O 0.87677 0.65777 0.82759 0.0
O2736 O 0.80678 0.63564 0.85197 0.0
O2737 O 0.83311 0.59741 0.85974 0.0
O2738 O 0.85459 0.71986 0.57389 0.0
O2739 O 0.81143 0.63177 0.63807 0.0
O2740 O 0.77172 0.60035 0.71481 0.0
O2741 O 0.77164 0.65392 0.73568 0.0
O2742 O 0.80395 0.65762 0.56542 0.0
O2743 O 0.79671 0.70446 0.59826 0.0
C2744 C 0.81729 0.66876 0.83401 0.0
C2745 C 0.77972 0.56001 0.92503 0.0
C2746 C 0.77411 0.5879 1.02516 0.0
C2747 C 0.76303 0.57744 0.95695 0.0
C2748 C 0.78564 0.56746 0.06594 0.0
C2749 C 0.78896 0.53806 0.96365 0.0
C2750 C 0.78585 0.53794 1.03689 0.0
C2751 C 0.89377 0.69466 0.832 0.0
C2752 C 0.79816 0.57238 0.86017 0.0
C2753 C 0.84522 0.49835 0.81798 0.0
C2754 C 0.88223 0.52097 0.80341 0.0
C2755 C 0.79834 0.62413 0.56774 0.0
C2756 C 0.81364 0.71944 0.4742 0.0
C2757 C 0.78246 0.69029 0.43718 0.0
C2758 C 0.76712 0.69759 0.37485 0.0
C2759 C 0.7834 0.73455 0.35453 0.0
C2760 C 0.83181 0.75418 0.44237 0.0
C2761 C 0.81629 0.76193 0.38426 0.0
C2762 C 0.757 0.61721 0.74832 0.0
C2763 C 0.8236 0.71826 0.55142 0.0
H2764 H 0.75626 0.59499 0.92758 0.0
H2765 H 0.80488 0.57958 0.10815 0.0
H2766 H 0.80345 0.52604 0.93739 0.0
H2767 H 0.79395 0.52273 0.07031 0.0
H2768 H 0.77086 0.66242 0.45587 0.0
H2769 H 0.77048 0.74283 0.31606 0.0
H2770 H 0.85614 0.77657 0.46689 0.0
H2771 H 0.82873 0.78999 0.36474 0.0
Eu2772 Eu 0.81901 0.59931 0.30668 0.0
C2773 C 0.69785 0.43199 0.35704 0.0
C2774 C 0.63325 0.41008 0.35195 0.0
C2775 C 0.65441 0.36604 0.34492 0.0
C2776 C 0.67022 0.43961 0.35311 0.0
C2777 C 0.69072 0.39527 0.3516 0.0
C2778 C 0.62544 0.37344 0.34651 0.0
C2779 C 0.75536 0.41903 0.36754 0.0
N2780 N 0.73196 0.46063 0.3692 0.0
C2781 C 0.75933 0.45377 0.37938 0.0
C2782 C 0.7203 0.38911 0.35585 0.0
Eu2783 Eu 0.74223 0.52185 0.38612 0.0
N2784 N 0.6793 0.47583 0.35495 0.0
C2785 C 0.65139 0.4829 0.35993 0.0
C2786 C 0.60547 0.4181 0.36333 0.0
C2787 C 0.61531 0.45459 0.37232 0.0
H2788 H 0.7828 0.4766 0.39888 0.0
H2789 H 0.59485 0.4611 0.38828 0.0
H2790 H 0.59721 0.35073 0.34532 0.0
H2791 H 0.77849 0.41502 0.3751 0.0
H2792 H 0.65772 0.51044 0.35881 0.0
H2793 H -0.02913 0.61974 0.35206 0.0
H2794 H 0.57696 0.39655 0.3696 0.0
H2795 H 0.82955 0.68196 0.36136 0.0
H2796 H 0.89826 0.57424 0.46692 0.0
H2797 H 0.8729 0.74684 0.33218 0.0
H2798 H 0.64845 0.33773 0.34142 0.0
H2799 H 0.00431 0.6451 0.28403 0.0
H2800 H -0.01438 0.70746 0.30131 0.0
H2801 H 0.71582 0.36136 0.35486 0.0
H2802 H -0.02643 0.74487 0.24884 0.0
N2803 N 0.88405 0.61833 0.34826 0.0
C2804 C 0.90987 0.59263 0.42162 0.0
C2805 C -0.02398 0.6358 0.3121 0.0
C2806 C -0.04913 0.65589 0.26606 0.0
C2807 C -0.04408 0.60404 0.39185 0.0
C2808 C 0.90601 0.64544 0.28544 0.0
H2809 H -0.07025 0.76258 0.26817 0.0
N2810 N 0.86353 0.66262 0.31739 0.0
C2811 C 0.87866 0.72535 0.31665 0.0
C2812 C 0.89548 0.67137 0.28341 0.0
C2813 C 0.85547 0.68938 0.33668 0.0
C2814 C 0.91038 0.73384 0.27854 0.0
C2815 C -0.08094 0.70669 0.26205 0.0
O2816 O 0.81311 0.64047 0.2542 0.0
O2817 O 0.76875 0.54406 0.28816 0.0
O2818 O 0.77874 0.50421 0.28486 0.0
O2819 O 0.8263 0.55685 0.23372 0.0
O2820 O 0.77845 0.57898 0.20931 0.0
O2821 O 0.84301 0.61722 0.20158 0.0
O2822 O 0.742 0.49476 0.4874 0.0
O2823 O 0.78695 0.58284 0.42322 0.0
O2824 O 0.77868 0.61427 0.34648 0.0
O2825 O 0.72501 0.5607 0.32557 0.0
O2826 O 0.75361 0.55697 0.49586 0.0
O2827 O 0.69953 0.51016 0.46301 0.0
C2828 C 0.75583 0.54586 0.22727 0.0
C2829 C 0.82704 0.65463 0.13631 0.0
C2830 C 0.79354 0.62681 1.03613 0.0
C2831 C 0.79291 0.6372 0.10439 0.0
C2832 C 0.82551 0.64723 0.99535 0.0
C2833 C 0.85824 0.67658 0.0977 0.0
C2834 C 0.85527 0.67672 1.02445 0.0
C2835 C 0.8064 0.51995 0.2293 0.0
C2836 C 0.8331 0.64225 0.20115 0.0
C2837 C -0.0458 0.71624 0.2433 0.0
C2838 C -0.03141 0.69362 0.25792 0.0
C2839 C 0.78152 0.59047 0.49356 0.0
C2840 C 0.70148 0.49519 0.58709 0.0
C2841 C 0.69947 0.52435 0.62411 0.0
C2842 C 0.67683 0.51706 0.68644 0.0
C2843 C 0.65613 0.4801 0.70676 0.0
C2844 C 0.68488 0.46045 0.61893 0.0
C2845 C 0.66162 0.45271 0.67703 0.0
C2846 C 0.74711 0.59742 0.31294 0.0
C2847 C 0.71262 0.49638 0.50987 0.0
H2848 H 0.76858 0.61963 0.13372 0.0
H2849 H 0.83263 0.63511 0.95314 0.0
H2850 H 0.88476 0.68861 0.12396 0.0
H2851 H 0.8786 0.69192 0.99107 0.0
H2852 H 0.71577 0.55222 0.60544 0.0
H2853 H 0.63494 0.47183 0.74525 0.0
H2854 H 0.68681 0.43806 0.59441 0.0
H2855 H 0.64599 0.42466 0.69657 0.0
Eu2856 Eu 0.25231 0.19 0.30668 0.0
C2857 C 0.41965 0.2362 0.35707 0.0
C2858 C 0.44154 0.1935 0.35201 0.0
C2859 C 0.48561 0.25871 0.34499 0.0
C2860 C 0.41202 0.20095 0.35316 0.0
C2861 C 0.45638 0.26579 0.35164 0.0
C2862 C 0.4782 0.22234 0.3466 0.0
C2863 C 0.43264 0.30668 0.36753 0.0
N2864 N 0.39102 0.24168 0.3692 0.0
C2865 C 0.39789 0.27591 0.37935 0.0
C2866 C 0.46256 0.30154 0.35586 0.0
Eu2867 Eu 0.32979 0.19072 0.38614 0.0
N2868 N 0.37579 0.17381 0.35497 0.0
C2869 C 0.3687 0.13883 0.35991 0.0
C2870 C 0.4335 0.1577 0.3634 0.0
C2871 C 0.397 0.13106 0.37236 0.0
H2872 H 0.37506 0.27655 0.39885 0.0
H2873 H 0.39047 0.10408 0.38831 0.0
H2874 H 0.5009 0.21682 0.34543 0.0
H2875 H 0.43665 0.33382 0.37507 0.0
H2876 H 0.34117 0.11763 0.35874 0.0
H2877 H 0.23189 0.32142 0.35205 0.0
H2878 H 0.45504 0.15074 0.36968 0.0
H2879 H 0.16965 0.11786 0.36134 0.0
H2880 H 0.27738 0.29432 0.46693 0.0
H2881 H 0.10476 0.09633 0.33218 0.0
H2882 H 0.51393 0.28107 0.3415 0.0
H2883 H 0.20653 0.32949 0.284 0.0
H2884 H 0.14414 0.24844 0.30128 0.0
H2885 H 0.49031 0.32481 0.35489 0.0
H2886 H 0.10673 0.19896 0.24886 0.0
N2887 N 0.23328 0.23601 0.34826 0.0
C2888 C 0.25899 0.28753 0.42162 0.0
C2889 C 0.21583 0.31051 0.31208 0.0
C2890 C 0.19573 0.26526 0.26605 0.0
C2891 C 0.24759 0.32218 0.39184 0.0
C2892 C 0.20617 0.23085 0.28543 0.0
H2893 H 0.08901 0.13743 0.26817 0.0
N2894 N 0.18899 0.17119 0.31738 0.0
C2895 C 0.12625 0.12358 0.31666 0.0
C2896 C 0.18024 0.19439 0.28341 0.0
C2897 C 0.16223 0.13637 0.33667 0.0
C2898 C 0.11775 0.1468 0.27855 0.0
C2899 C 0.14491 0.18264 0.26206 0.0
O2900 O 0.21115 0.14294 0.2542 0.0
O2901 O 0.30756 0.195 0.28817 0.0
O2902 O 0.34742 0.24486 0.28486 0.0
O2903 O 0.29478 0.23977 0.23372 0.0
O2904 O 0.27265 0.16979 0.20931 0.0
O2905 O 0.23441 0.1961 0.20158 0.0
O2906 O 0.35688 0.21759 0.48741 0.0
O2907 O 0.26879 0.17443 0.42323 0.0
O2908 O 0.23736 0.13472 0.34648 0.0
O2909 O 0.29094 0.13464 0.32559 0.0
O2910 O 0.29465 0.16696 0.49588 0.0
O2911 O 0.34149 0.15972 0.46303 0.0
C2912 C 0.30577 0.1803 0.22727 0.0
C2913 C 0.197 0.14272 0.13629 0.0
C2914 C 0.22481 0.13702 1.03612 0.0
C2915 C 0.21442 0.12601 0.10438 0.0
C2916 C 0.2044 0.14858 0.99534 0.0
C2917 C 0.17506 0.15197 0.09768 0.0
C2918 C 0.17491 0.14885 1.02444 0.0
C2919 C 0.33168 0.25677 0.2293 0.0
C2920 C 0.20937 0.16115 0.20115 0.0
C2921 C 0.13536 0.20823 0.24331 0.0
C2922 C 0.15799 0.24524 0.25791 0.0
C2923 C 0.26115 0.16137 0.49357 0.0
C2924 C 0.35647 0.17665 0.5871 0.0
C2925 C 0.32731 0.14548 0.62412 0.0
C2926 C 0.33461 0.13013 0.68644 0.0
C2927 C 0.37158 0.1464 0.70675 0.0
C2928 C 0.39122 0.1948 0.61892 0.0
C2929 C 0.39897 0.17928 0.67702 0.0
C2930 C 0.25422 0.12 0.31295 0.0
C2931 C 0.35528 0.1866 0.50987 0.0
H2932 H 0.23199 0.11926 0.13372 0.0
H2933 H 0.21652 0.16781 0.95312 0.0
H2934 H 0.16304 0.16647 0.12394 0.0
H2935 H 0.1597 0.15696 0.99104 0.0
H2936 H 0.29944 0.1339 0.60546 0.0
H2937 H 0.37985 0.13347 0.74522 0.0
H2938 H 0.41361 0.21913 0.5944 0.0
H2939 H 0.42702 0.19171 0.69654 0.0
Eu2940 Eu 0.66163 0.03262 0.30669 0.0
C2941 C 0.61548 0.15377 0.35708 0.0
C2942 C 0.65821 0.21836 0.35204 0.0
C2943 C 0.593 0.19723 0.34503 0.0
C2944 C 0.65074 0.18139 0.35316 0.0
C2945 C 0.5859 0.16092 0.35166 0.0
C2946 C 0.62938 0.22619 0.34664 0.0
C2947 C 0.54498 0.09628 0.36756 0.0
N2948 N 0.60999 0.11966 0.3692 0.0
C2949 C 0.57575 0.09229 0.37936 0.0
C2950 C 0.55014 0.13134 0.3559 0.0
Eu2951 Eu 0.66093 0.10938 0.38614 0.0
N2952 N 0.67787 0.17229 0.35495 0.0
C2953 C 0.71286 0.20018 0.35989 0.0
C2954 C 0.69402 0.24612 0.36343 0.0
C2955 C 0.72066 0.23625 0.37237 0.0
H2956 H 0.5751 0.06883 0.39888 0.0
H2957 H 0.74765 0.25669 0.38833 0.0
H2958 H 0.63492 0.25441 0.34549 0.0
H2959 H 0.51784 0.07316 0.37513 0.0
H2960 H 0.73405 0.19384 0.35869 0.0
H2961 H 0.53019 0.88074 0.35201 0.0
H2962 H 0.701 0.27463 0.36974 0.0
H2963 H 0.73377 0.02212 0.36138 0.0
H2964 H 0.55726 -0.04667 0.46687 0.0
H2965 H 0.75532 -0.02121 0.33226 0.0
H2966 H 0.57065 0.2032 0.34156 0.0
H2967 H 0.52213 0.84731 0.28397 0.0
H2968 H 0.6032 0.86601 0.30129 0.0
H2969 H 0.52688 0.13583 0.35494 0.0
H2970 H 0.65269 0.87809 0.24889 0.0
N2971 N 0.61561 -0.03243 0.34826 0.0
C2972 C 0.56406 -0.05827 0.42158 0.0
C2973 C 0.54111 0.87559 0.31206 0.0
C2974 C 0.58638 0.90076 0.26605 0.0
C2975 C 0.52942 0.89567 0.3918 0.0
C2976 C 0.62078 -0.05438 0.28544 0.0
H2977 H 0.71422 0.92193 0.26826 0.0
N2978 N 0.68044 -0.01188 0.31742 0.0
C2979 C 0.72806 -0.02699 0.31674 0.0
C2980 C 0.65724 -0.04384 0.28344 0.0
C2981 C 0.71526 -0.00381 0.33673 0.0
C2982 C 0.70484 -0.05871 0.27864 0.0
C2983 C 0.669 0.93259 0.26211 0.0
O2984 O 0.70868 0.03852 0.2542 0.0
O2985 O 0.65664 0.08287 0.28818 0.0
O2986 O 0.60678 0.07287 0.28487 0.0
O2987 O 0.61187 0.02532 0.23373 0.0
O2988 O 0.68185 0.07316 0.20931 0.0
O2989 O 0.65551 0.00861 0.2016 0.0
O2990 O 0.63405 0.10958 0.4874 0.0
O2991 O 0.67721 0.06467 0.42324 0.0
O2992 O 0.71692 0.07296 0.34649 0.0
O2993 O 0.71701 0.12661 0.32559 0.0
O2994 O 0.68472 0.09802 0.49586 0.0
O2995 O 0.69193 0.15208 0.46303 0.0
C2996 C 0.67135 0.09578 0.22728 0.0
C2997 C 0.70889 0.02458 0.1363 0.0
C2998 C 0.71461 0.0581 1.03613 0.0
C2999 C 0.72562 0.05872 0.10439 0.0
C3000 C 0.70306 0.02613 0.99534 0.0
C3001 C 0.69965 -0.00661 0.09768 0.0
C3002 C 0.70279 -0.00362 1.02444 0.0
C3003 C 0.59487 0.04521 0.22931 0.0
C3004 C 0.69046 0.01852 0.20115 0.0
C3005 C 0.64341 0.89745 0.24334 0.0
C3006 C 0.6064 0.88305 0.25792 0.0
C3007 C 0.69028 0.07011 0.49357 0.0
C3008 C 0.675 0.15012 0.5871 0.0
C3009 C 0.70617 0.15214 0.62412 0.0
C3010 C 0.72152 0.17479 0.68644 0.0
C3011 C 0.70525 0.19548 0.70675 0.0
C3012 C 0.65685 0.16671 0.61892 0.0
C3013 C 0.67237 0.18998 0.67701 0.0
C3014 C 0.73164 0.10453 0.31296 0.0
C3015 C 0.66504 0.13898 0.50988 0.0
H3016 H 0.73237 0.08304 0.13374 0.0
H3017 H 0.68382 0.01901 0.95312 0.0
H3018 H 0.68515 -0.03313 0.12393 0.0
H3019 H 0.69467 -0.02694 0.99104 0.0
H3020 H 0.71775 0.13585 0.60547 0.0
H3021 H 0.71818 0.21668 0.74522 0.0
H3022 H 0.63252 0.16477 0.59439 0.0
H3023 H 0.65994 0.2056 0.69653 0.0
loop_
_geom_bond_atom_site_label_1
_geom_bond_atom_site_label_2
_geom_bond_distance
_geom_bond_site_symmetry_2
_ccdc_geom_bond_type
Eu0 N31 2.657 . S
Eu0 N38 2.609 . S
Eu0 O44 2.558 . S
Eu0 O45 2.612 . S
Eu0 O47 2.339 . S
Eu0 O48 2.563 . S
Eu0 O49 2.419 . S
Eu0 O51 2.380 . S
Eu0 O52 2.432 . S
Eu0 C64 2.848 . S
C1 C4 1.429 . S
C1 C5 1.411 . S
C1 N8 1.377 . S
C2 C4 1.420 . S
C2 C6 1.423 . S
C2 C14 1.392 . S
C3 C5 1.420 . S
C3 C6 1.351 . S
C3 H26 0.931 . S
C4 C1 1.429 . S
C4 C2 1.420 . S
C4 N12 1.362 . S
C5 C1 1.411 . S
C5 C3 1.420 . S
C5 C10 1.395 . S
C6 C2 1.423 . S
C6 C3 1.351 . S
C6 H18 0.930 . S
C7 C9 1.400 . S
C7 C10 1.386 . S
C7 H19 0.930 . S
N8 C1 1.377 . S
N8 C9 1.321 . S
N8 Eu11 2.609 1_655 S
C9 C7 1.400 . S
C9 N8 1.321 . S
C9 H16 0.930 . S
C10 C5 1.395 . S
C10 C7 1.386 . S
C10 H29 0.930 . S
Eu11 N8 2.609 1_455 S
Eu11 N12 2.657 1_455 S
Eu11 O45 2.380 . S
Eu11 O46 2.432 . S
Eu11 O50 2.558 1_454 S
Eu11 O51 2.612 . S
Eu11 O53 2.339 . S
Eu11 O54 2.563 1_554 S
Eu11 O55 2.419 1_554 S
Eu11 C75 2.848 1_454 S
N12 C4 1.362 . S
N12 Eu11 2.657 1_655 S
N12 C13 1.334 1_655 S
C13 N12 1.334 1_455 S
C13 C15 1.413 . S
C13 H20 0.929 . S
C14 C2 1.392 . S
C14 C15 1.367 1_655 S
C14 H22 0.930 . S
C15 C13 1.413 . S
C15 C14 1.367 1_455 S
C15 H17 0.930 . S
H16 C9 0.930 . S
H17 C15 0.930 . S
H18 C6 0.930 . S
H19 C7 0.930 . S
H20 C13 0.929 . S
H21 C35 0.930 . S
H22 C14 0.930 . S
H23 C41 0.930 . S
H24 C32 0.929 . S
H25 C39 0.930 . S
H26 C3 0.931 . S
H27 C33 0.930 . S
H28 C66 0.930 . S
H29 C10 0.930 . S
H30 C65 0.931 . S
N31 Eu0 2.657 . S
N31 C32 1.334 . S
N31 C36 1.362 . S
C32 H24 0.929 . S
C32 N31 1.334 . S
C32 C35 1.413 . S
C33 H27 0.930 . S
C33 C34 1.392 . S
C33 C35 1.367 . S
C34 C33 1.392 . S
C34 C36 1.420 . S
C34 C66 1.423 . S
C35 H21 0.930 . S
C35 C32 1.413 . S
C35 C33 1.367 . S
C36 N31 1.362 . S
C36 C34 1.420 . S
C36 C40 1.429 . S
H37 C42 0.930 . S
N38 Eu0 2.609 . S
N38 C40 1.377 . S
N38 C41 1.321 . S
C39 H25 0.930 . S
C39 C41 1.400 . S
C39 C42 1.386 . S
C40 C36 1.429 . S
C40 N38 1.377 . S
C40 C43 1.411 . S
C41 H23 0.930 . S
C41 N38 1.321 . S
C41 C39 1.400 . S
C42 H37 0.930 . S
C42 C39 1.386 . S
C42 C43 1.395 . S
C43 C40 1.411 . S
C43 C42 1.395 . S
C43 C65 1.420 . S
O44 Eu0 2.558 . S
O44 C64 1.257 . S
O45 Eu0 2.612 . S
O45 Eu11 2.380 . S
O45 C56 1.276 . S
O46 Eu11 2.432 . S
O46 C63 1.264 . S
O47 Eu0 2.339 . S
O47 C63 1.254 . S
O48 Eu0 2.563 . S
O48 C56 1.235 . S
O49 Eu0 2.419 . S
O49 C64 1.249 . S
O50 Eu11 2.558 1_656 S
O50 C75 1.257 . S
O51 Eu0 2.380 . S
O51 Eu11 2.612 . S
O51 C67 1.276 . S
O52 Eu0 2.432 . S
O52 C74 1.264 . S
O53 Eu11 2.339 . S
O53 C74 1.254 . S
O54 Eu11 2.563 1_556 S
O54 C67 1.235 1_556 S
O55 Eu11 2.419 1_556 S
O55 C75 1.249 1_455 S
C56 O45 1.276 . S
C56 O48 1.235 . S
C57 C59 1.393 . S
C57 C61 1.395 . S
C57 C64 1.492 . S
C58 C59 1.392 . S
C58 C60 1.386 . S
C59 C57 1.393 . S
C59 C58 1.392 . S
C59 H76 0.930 . S
C60 C58 1.386 . S
C60 C62 1.395 . S
C60 H77 0.930 . S
C61 C57 1.395 . S
C61 C62 1.379 . S
C61 H78 0.930 . S
C62 C60 1.395 . S
C62 C61 1.379 . S
C62 H79 0.930 . S
C63 O46 1.264 . S
C63 O47 1.254 . S
C64 Eu0 2.848 . S
C64 O44 1.257 . S
C64 O49 1.249 . S
C64 C57 1.492 . S
C65 H30 0.931 . S
C65 C43 1.420 . S
C65 C66 1.351 . S
C66 H28 0.930 . S
C66 C34 1.423 . S
C66 C65 1.351 . S
C67 O51 1.276 . S
C67 O54 1.235 1_554 S
C68 C69 1.393 . S
C68 C72 1.395 . S
C68 C75 1.492 . S
C69 C68 1.393 . S
C69 C70 1.392 . S
C69 H80 0.930 1_655 S
C70 C69 1.392 . S
C70 C71 1.386 . S
C71 C70 1.386 . S
C71 C73 1.395 . S
C71 H81 0.930 . S
C72 C68 1.395 . S
C72 C73 1.379 . S
C72 H82 0.930 . S
C73 C71 1.395 . S
C73 C72 1.379 . S
C73 H83 0.930 . S
C74 O52 1.264 . S
C74 O53 1.254 . S
C75 Eu11 2.848 1_656 S
C75 O50 1.257 . S
C75 O55 1.249 1_655 S
C75 C68 1.492 . S
H76 C59 0.930 . S
H77 C60 0.930 . S
H78 C61 0.930 . S
H79 C62 0.930 . S
H80 C69 0.930 1_455 S
H81 C71 0.930 . S
H82 C72 0.930 . S
H83 C73 0.930 . S
Eu84 N115 2.657 . S
Eu84 N122 2.609 . S
Eu84 O128 2.558 . S
Eu84 O129 2.612 . S
Eu84 O131 2.339 . S
Eu84 O132 2.563 . S
Eu84 O133 2.419 . S
Eu84 O135 2.380 . S
Eu84 O136 2.432 . S
Eu84 C148 2.848 . S
C85 C88 1.429 . S
C85 C89 1.411 . S
C85 N92 1.377 . S
C86 C88 1.420 . S
C86 C90 1.423 . S
C86 C98 1.392 . S
C87 C89 1.420 . S
C87 C90 1.351 . S
C87 H110 0.931 . S
C88 C85 1.429 . S
C88 C86 1.420 . S
C88 N96 1.362 . S
C89 C85 1.411 . S
C89 C87 1.420 . S
C89 C94 1.395 . S
C90 C86 1.423 . S
C90 C87 1.351 . S
C90 H102 0.930 . S
C91 C93 1.400 . S
C91 C94 1.386 . S
C91 H103 0.930 . S
N92 C85 1.377 . S
N92 C93 1.321 . S
N92 Eu95 2.609 . S
C93 C91 1.400 . S
C93 N92 1.321 . S
C93 H100 0.930 . S
C94 C89 1.395 . S
C94 C91 1.386 . S
C94 H113 0.930 . S
Eu95 N92 2.609 . S
Eu95 N96 2.657 . S
Eu95 O129 2.380 . S
Eu95 O130 2.432 . S
Eu95 O134 2.558 1_554 S
Eu95 O135 2.612 . S
Eu95 O137 2.339 . S
Eu95 O138 2.563 1_554 S
Eu95 O139 2.419 1_554 S
Eu95 C159 2.848 1_554 S
N96 C88 1.362 . S
N96 Eu95 2.657 . S
N96 C97 1.334 . S
C97 N96 1.334 . S
C97 C99 1.413 . S
C97 H104 0.929 . S
C98 C86 1.392 . S
C98 C99 1.367 . S
C98 H106 0.930 . S
C99 C97 1.413 . S
C99 C98 1.367 . S
C99 H101 0.930 . S
H100 C93 0.930 . S
H101 C99 0.930 . S
H102 C90 0.930 . S
H103 C91 0.930 . S
H104 C97 0.929 . S
H105 C119 0.930 . S
H106 C98 0.930 . S
H107 C125 0.930 . S
H108 C116 0.929 . S
H109 C123 0.930 . S
H110 C87 0.931 . S
H111 C117 0.930 . S
H112 C150 0.930 . S
H113 C94 0.930 . S
H114 C149 0.931 . S
N115 Eu84 2.657 . S
N115 C116 1.334 . S
N115 C120 1.362 . S
C116 H108 0.929 . S
C116 N115 1.334 . S
C116 C119 1.413 . S
C117 H111 0.930 . S
C117 C118 1.392 . S
C117 C119 1.367 . S
C118 C117 1.392 . S
C118 C120 1.420 . S
C118 C150 1.423 . S
C119 H105 0.930 . S
C119 C116 1.413 . S
C119 C117 1.367 . S
C120 N115 1.362 . S
C120 C118 1.420 . S
C120 C124 1.429 . S
H121 C126 0.930 . S
N122 Eu84 2.609 . S
N122 C124 1.377 . S
N122 C125 1.321 . S
C123 H109 0.930 . S
C123 C125 1.400 . S
C123 C126 1.386 . S
C124 C120 1.429 . S
C124 N122 1.377 . S
C124 C127 1.411 . S
C125 H107 0.930 . S
C125 N122 1.321 . S
C125 C123 1.400 . S
C126 H121 0.930 . S
C126 C123 1.386 . S
C126 C127 1.395 . S
C127 C124 1.411 . S
C127 C126 1.395 . S
C127 C149 1.420 . S
O128 Eu84 2.558 . S
O128 C148 1.257 . S
O129 Eu84 2.612 . S
O129 Eu95 2.380 . S
O129 C140 1.276 . S
O130 Eu95 2.432 . S
O130 C147 1.264 . S
O131 Eu84 2.339 . S
O131 C147 1.254 . S
O132 Eu84 2.563 . S
O132 C140 1.235 . S
O133 Eu84 2.419 . S
O133 C148 1.249 . S
O134 Eu95 2.558 1_556 S
O134 C159 1.257 . S
O135 Eu84 2.380 . S
O135 Eu95 2.612 . S
O135 C151 1.276 . S
O136 Eu84 2.432 . S
O136 C158 1.264 . S
O137 Eu95 2.339 . S
O137 C158 1.254 . S
O138 Eu95 2.563 1_556 S
O138 C151 1.235 1_556 S
O139 Eu95 2.419 1_556 S
O139 C159 1.249 . S
C140 O129 1.276 . S
C140 O132 1.235 . S
C141 C143 1.393 . S
C141 C145 1.395 . S
C141 C148 1.492 . S
C142 C143 1.392 . S
C142 C144 1.386 . S
C143 C141 1.393 . S
C143 C142 1.392 . S
C143 H160 0.930 . S
C144 C142 1.386 . S
C144 C146 1.395 . S
C144 H161 0.930 . S
C145 C141 1.395 . S
C145 C146 1.379 . S
C145 H162 0.930 . S
C146 C144 1.395 . S
C146 C145 1.379 . S
C146 H163 0.930 . S
C147 O130 1.264 . S
C147 O131 1.254 . S
C148 Eu84 2.848 . S
C148 O128 1.257 . S
C148 O133 1.249 . S
C148 C141 1.492 . S
C149 H114 0.931 . S
C149 C127 1.420 . S
C149 C150 1.351 . S
C150 H112 0.930 . S
C150 C118 1.423 . S
C150 C149 1.351 . S
C151 O135 1.276 . S
C151 O138 1.235 1_554 S
C152 C153 1.393 . S
C152 C156 1.395 . S
C152 C159 1.492 . S
C153 C152 1.393 . S
C153 C154 1.392 . S
C153 H164 0.930 . S
C154 C153 1.392 . S
C154 C155 1.386 . S
C155 C154 1.386 . S
C155 C157 1.395 . S
C155 H165 0.930 . S
C156 C152 1.395 . S
C156 C157 1.379 . S
C156 H166 0.930 . S
C157 C155 1.395 . S
C157 C156 1.379 . S
C157 H167 0.930 . S
C158 O136 1.264 . S
C158 O137 1.254 . S
C159 Eu95 2.848 1_556 S
C159 O134 1.257 . S
C159 O139 1.249 . S
C159 C152 1.492 . S
H160 C143 0.930 . S
H161 C144 0.930 . S
H162 C145 0.930 . S
H163 C146 0.930 . S
H164 C153 0.930 . S
H165 C155 0.930 . S
H166 C156 0.930 . S
H167 C157 0.930 . S
Eu168 N199 2.657 . S
Eu168 N206 2.609 . S
Eu168 O212 2.558 . S
Eu168 O213 2.612 . S
Eu168 O215 2.339 . S
Eu168 O216 2.563 . S
Eu168 O217 2.419 . S
Eu168 O219 2.380 . S
Eu168 O220 2.432 . S
Eu168 C232 2.848 . S
C169 C172 1.429 . S
C169 C173 1.411 . S
C169 N176 1.377 . S
C170 C172 1.420 . S
C170 C174 1.423 . S
C170 C182 1.392 . S
C171 C173 1.420 . S
C171 C174 1.351 . S
C171 H194 0.931 . S
C172 C169 1.429 . S
C172 C170 1.420 . S
C172 N180 1.362 . S
C173 C169 1.411 . S
C173 C171 1.420 . S
C173 C178 1.395 . S
C174 C170 1.423 . S
C174 C171 1.351 . S
C174 H186 0.930 . S
C175 C177 1.400 . S
C175 C178 1.386 . S
C175 H187 0.930 . S
N176 C169 1.377 . S
N176 C177 1.321 . S
N176 Eu179 2.609 1_545 S
C177 C175 1.400 . S
C177 N176 1.321 . S
C177 H184 0.930 . S
C178 C173 1.395 . S
C178 C175 1.386 . S
C178 H197 0.930 . S
Eu179 N176 2.609 1_565 S
Eu179 N180 2.657 1_565 S
Eu179 O213 2.380 . S
Eu179 O214 2.432 . S
Eu179 O218 2.558 1_564 S
Eu179 O219 2.612 . S
Eu179 O221 2.339 . S
Eu179 O222 2.563 1_554 S
Eu179 O223 2.419 1_554 S
Eu179 C243 2.848 1_564 S
N180 C172 1.362 . S
N180 Eu179 2.657 1_545 S
N180 C181 1.334 1_545 S
C181 N180 1.334 1_565 S
C181 C183 1.413 . S
C181 H188 0.929 . S
C182 C170 1.392 . S
C182 C183 1.367 1_545 S
C182 H190 0.930 . S
C183 C181 1.413 . S
C183 C182 1.367 1_565 S
C183 H185 0.930 . S
H184 C177 0.930 . S
H185 C183 0.930 . S
H186 C174 0.930 . S
H187 C175 0.930 . S
H188 C181 0.929 . S
H189 C203 0.930 . S
H190 C182 0.930 . S
H191 C209 0.930 . S
H192 C200 0.929 . S
H193 C207 0.930 . S
H194 C171 0.931 . S
H195 C201 0.930 . S
H196 C234 0.930 . S
H197 C178 0.930 . S
H198 C233 0.931 . S
N199 Eu168 2.657 . S
N199 C200 1.334 . S
N199 C204 1.362 . S
C200 H192 0.929 . S
C200 N199 1.334 . S
C200 C203 1.413 . S
C201 H195 0.930 . S
C201 C202 1.392 . S
C201 C203 1.367 . S
C202 C201 1.392 . S
C202 C204 1.420 . S
C202 C234 1.423 . S
C203 H189 0.930 . S
C203 C200 1.413 . S
C203 C201 1.367 . S
C204 N199 1.362 . S
C204 C202 1.420 . S
C204 C208 1.429 . S
H205 C210 0.930 . S
N206 Eu168 2.609 . S
N206 C208 1.377 . S
N206 C209 1.321 . S
C207 H193 0.930 . S
C207 C209 1.400 . S
C207 C210 1.386 . S
C208 C204 1.429 . S
C208 N206 1.377 . S
C208 C211 1.411 . S
C209 H191 0.930 . S
C209 N206 1.321 . S
C209 C207 1.400 . S
C210 H205 0.930 . S
C210 C207 1.386 . S
C210 C211 1.395 . S
C211 C208 1.411 . S
C211 C210 1.395 . S
C211 C233 1.420 . S
O212 Eu168 2.558 . S
O212 C232 1.257 . S
O213 Eu168 2.612 . S
O213 Eu179 2.380 . S
O213 C224 1.276 . S
O214 Eu179 2.432 . S
O214 C231 1.264 . S
O215 Eu168 2.339 . S
O215 C231 1.254 . S
O216 Eu168 2.563 . S
O216 C224 1.235 . S
O217 Eu168 2.419 . S
O217 C232 1.249 . S
O218 Eu179 2.558 1_546 S
O218 C243 1.257 . S
O219 Eu168 2.380 . S
O219 Eu179 2.612 . S
O219 C235 1.276 . S
O220 Eu168 2.432 . S
O220 C242 1.264 . S
O221 Eu179 2.339 . S
O221 C242 1.254 . S
O222 Eu179 2.563 1_556 S
O222 C235 1.235 1_556 S
O223 Eu179 2.419 1_556 S
O223 C243 1.249 1_565 S
C224 O213 1.276 . S
C224 O216 1.235 . S
C225 C227 1.393 . S
C225 C229 1.395 . S
C225 C232 1.492 . S
C226 C227 1.392 . S
C226 C228 1.386 . S
C227 C225 1.393 . S
C227 C226 1.392 . S
C227 H244 0.930 . S
C228 C226 1.386 . S
C228 C230 1.395 . S
C228 H245 0.930 . S
C229 C225 1.395 . S
C229 C230 1.379 . S
C229 H246 0.930 . S
C230 C228 1.395 . S
C230 C229 1.379 . S
C230 H247 0.930 . S
C231 O214 1.264 . S
C231 O215 1.254 . S
C232 Eu168 2.848 . S
C232 O212 1.257 . S
C232 O217 1.249 . S
C232 C225 1.492 . S
C233 H198 0.931 . S
C233 C211 1.420 . S
C233 C234 1.351 . S
C234 H196 0.930 . S
C234 C202 1.423 . S
C234 C233 1.351 . S
C235 O219 1.276 . S
C235 O222 1.235 1_554 S
C236 C237 1.393 . S
C236 C240 1.395 . S
C236 C243 1.492 . S
C237 C236 1.393 . S
C237 C238 1.392 . S
C237 H248 0.930 1_545 S
C238 C237 1.392 . S
C238 C239 1.386 . S
C239 C238 1.386 . S
C239 C241 1.395 . S
C239 H249 0.930 . S
C240 C236 1.395 . S
C240 C241 1.379 . S
C240 H250 0.930 . S
C241 C239 1.395 . S
C241 C240 1.379 . S
C241 H251 0.930 . S
C242 O220 1.264 . S
C242 O221 1.254 . S
C243 Eu179 2.848 1_546 S
C243 O218 1.257 . S
C243 O223 1.249 1_545 S
C243 C236 1.492 . S
H244 C227 0.930 . S
H245 C228 0.930 . S
H246 C229 0.930 . S
H247 C230 0.930 . S
H248 C237 0.930 1_565 S
H249 C239 0.930 . S
H250 C240 0.930 . S
H251 C241 0.930 . S
Eu252 N283 2.657 . S
Eu252 N290 2.609 . S
Eu252 O296 2.558 . S
Eu252 O297 2.612 . S
Eu252 O299 2.339 . S
Eu252 O300 2.563 . S
Eu252 O301 2.419 . S
Eu252 O303 2.380 . S
Eu252 O304 2.432 . S
Eu252 C316 2.848 . S
C253 C256 1.429 . S
C253 C257 1.411 . S
C253 N260 1.377 . S
C254 C256 1.420 . S
C254 C258 1.423 . S
C254 C266 1.392 . S
C255 C257 1.420 . S
C255 C258 1.351 . S
C255 H278 0.931 . S
C256 C253 1.429 . S
C256 C254 1.420 . S
C256 N264 1.362 . S
C257 C253 1.411 . S
C257 C255 1.420 . S
C257 C262 1.395 . S
C258 C254 1.423 . S
C258 C255 1.351 . S
C258 H270 0.930 . S
C259 C261 1.400 . S
C259 C262 1.386 . S
C259 H271 0.930 . S
N260 C253 1.377 . S
N260 C261 1.321 . S
N260 Eu263 2.609 1_565 S
C261 C259 1.400 . S
C261 N260 1.321 . S
C261 H268 0.930 . S
C262 C257 1.395 . S
C262 C259 1.386 . S
C262 H281 0.930 . S
Eu263 N260 2.609 1_545 S
Eu263 N264 2.657 1_545 S
Eu263 O297 2.380 . S
Eu263 O298 2.432 . S
Eu263 O302 2.558 1_545 S
Eu263 O303 2.612 . S
Eu263 O305 2.339 . S
Eu263 O306 2.563 . S
Eu263 O307 2.419 . S
Eu263 C327 2.848 1_545 S
N264 C256 1.362 . S
N264 Eu263 2.657 1_565 S
N264 C265 1.334 1_565 S
C265 N264 1.334 1_545 S
C265 C267 1.413 . S
C265 H272 0.929 . S
C266 C254 1.392 . S
C266 C267 1.367 1_565 S
C266 H274 0.930 . S
C267 C265 1.413 . S
C267 C266 1.367 1_545 S
C267 H269 0.930 . S
H268 C261 0.930 . S
H269 C267 0.930 . S
H270 C258 0.930 . S
H271 C259 0.930 . S
H272 C265 0.929 . S
H273 C287 0.930 . S
H274 C266 0.930 . S
H275 C293 0.930 . S
H276 C284 0.929 . S
H277 C291 0.930 . S
H278 C255 0.931 . S
H279 C285 0.930 . S
H280 C318 0.930 . S
H281 C262 0.930 . S
H282 C317 0.931 . S
N283 Eu252 2.657 . S
N283 C284 1.334 . S
N283 C288 1.362 . S
C284 H276 0.929 . S
C284 N283 1.334 . S
C284 C287 1.413 . S
C285 H279 0.930 . S
C285 C286 1.392 . S
C285 C287 1.367 . S
C286 C285 1.392 . S
C286 C288 1.420 . S
C286 C318 1.423 . S
C287 H273 0.930 . S
C287 C284 1.413 . S
C287 C285 1.367 . S
C288 N283 1.362 . S
C288 C286 1.420 . S
C288 C292 1.429 . S
H289 C294 0.930 . S
N290 Eu252 2.609 . S
N290 C292 1.377 . S
N290 C293 1.321 . S
C291 H277 0.930 . S
C291 C293 1.400 . S
C291 C294 1.386 . S
C292 C288 1.429 . S
C292 N290 1.377 . S
C292 C295 1.411 . S
C293 H275 0.930 . S
C293 N290 1.321 . S
C293 C291 1.400 . S
C294 H289 0.930 . S
C294 C291 1.386 . S
C294 C295 1.395 . S
C295 C292 1.411 . S
C295 C294 1.395 . S
C295 C317 1.420 . S
O296 Eu252 2.558 . S
O296 C316 1.257 . S
O297 Eu252 2.612 . S
O297 Eu263 2.380 . S
O297 C308 1.276 . S
O298 Eu263 2.432 . S
O298 C315 1.264 . S
O299 Eu252 2.339 . S
O299 C315 1.254 . S
O300 Eu252 2.563 . S
O300 C308 1.235 . S
O301 Eu252 2.419 . S
O301 C316 1.249 . S
O302 Eu263 2.558 1_565 S
O302 C327 1.257 . S
O303 Eu252 2.380 . S
O303 Eu263 2.612 . S
O303 C319 1.276 . S
O304 Eu252 2.432 . S
O304 C326 1.264 . S
O305 Eu263 2.339 . S
O305 C326 1.254 . S
O306 Eu263 2.563 . S
O306 C319 1.235 . S
O307 Eu263 2.419 . S
O307 C327 1.249 1_545 S
C308 O297 1.276 . S
C308 O300 1.235 . S
C309 C311 1.393 . S
C309 C313 1.395 . S
C309 C316 1.492 . S
C310 C311 1.392 . S
C310 C312 1.386 . S
C311 C309 1.393 . S
C311 C310 1.392 . S
C311 H328 0.930 . S
C312 C310 1.386 . S
C312 C314 1.395 . S
C312 H329 0.930 . S
C313 C309 1.395 . S
C313 C314 1.379 . S
C313 H330 0.930 . S
C314 C312 1.395 . S
C314 C313 1.379 . S
C314 H331 0.930 . S
C315 O298 1.264 . S
C315 O299 1.254 . S
C316 Eu252 2.848 . S
C316 O296 1.257 . S
C316 O301 1.249 . S
C316 C309 1.492 . S
C317 H282 0.931 . S
C317 C295 1.420 . S
C317 C318 1.351 . S
C318 H280 0.930 . S
C318 C286 1.423 . S
C318 C317 1.351 . S
C319 O303 1.276 . S
C319 O306 1.235 . S
C320 C321 1.393 . S
C320 C324 1.395 . S
C320 C327 1.492 . S
C321 C320 1.393 . S
C321 C322 1.392 . S
C321 H332 0.930 1_565 S
C322 C321 1.392 . S
C322 C323 1.386 . S
C323 C322 1.386 . S
C323 C325 1.395 . S
C323 H333 0.930 . S
C324 C320 1.395 . S
C324 C325 1.379 . S
C324 H334 0.930 . S
C325 C323 1.395 . S
C325 C324 1.379 . S
C325 H335 0.930 . S
C326 O304 1.264 . S
C326 O305 1.254 . S
C327 Eu263 2.848 1_565 S
C327 O302 1.257 . S
C327 O307 1.249 1_565 S
C327 C320 1.492 . S
H328 C311 0.930 . S
H329 C312 0.930 . S
H330 C313 0.930 . S
H331 C314 0.930 . S
H332 C321 0.930 1_545 S
H333 C323 0.930 . S
H334 C324 0.930 . S
H335 C325 0.930 . S
Eu336 N367 2.657 . S
Eu336 N374 2.609 . S
Eu336 O380 2.558 . S
Eu336 O381 2.612 . S
Eu336 O383 2.339 . S
Eu336 O384 2.563 . S
Eu336 O385 2.419 . S
Eu336 O387 2.380 . S
Eu336 O388 2.432 . S
Eu336 C400 2.848 . S
C337 C340 1.429 . S
C337 C341 1.411 . S
C337 N344 1.377 . S
C338 C340 1.420 . S
C338 C342 1.423 . S
C338 C350 1.392 . S
C339 C341 1.420 . S
C339 C342 1.351 . S
C339 H362 0.931 . S
C340 C337 1.429 . S
C340 C338 1.420 . S
C340 N348 1.362 . S
C341 C337 1.411 . S
C341 C339 1.420 . S
C341 C346 1.395 . S
C342 C338 1.423 . S
C342 C339 1.351 . S
C342 H354 0.930 . S
C343 C345 1.400 . S
C343 C346 1.386 . S
C343 H355 0.930 . S
N344 C337 1.377 . S
N344 C345 1.321 . S
N344 Eu347 2.609 1_455 S
C345 C343 1.400 . S
C345 N344 1.321 . S
C345 H352 0.930 . S
C346 C341 1.395 . S
C346 C343 1.386 . S
C346 H365 0.930 . S
Eu347 N344 2.609 1_655 S
Eu347 N348 2.657 1_655 S
Eu347 O381 2.380 . S
Eu347 O382 2.432 . S
Eu347 O386 2.558 1_655 S
Eu347 O387 2.612 . S
Eu347 O389 2.339 . S
Eu347 O390 2.563 . S
Eu347 O391 2.419 . S
Eu347 C411 2.848 1_655 S
N348 C340 1.362 . S
N348 Eu347 2.657 1_455 S
N348 C349 1.334 1_455 S
C349 N348 1.334 1_655 S
C349 C351 1.413 . S
C349 H356 0.929 . S
C350 C338 1.392 . S
C350 C351 1.367 1_455 S
C350 H358 0.930 . S
C351 C349 1.413 . S
C351 C350 1.367 1_655 S
C351 H353 0.930 . S
H352 C345 0.930 . S
H353 C351 0.930 . S
H354 C342 0.930 . S
H355 C343 0.930 . S
H356 C349 0.929 . S
H357 C371 0.930 . S
H358 C350 0.930 . S
H359 C377 0.930 . S
H360 C368 0.929 . S
H361 C375 0.930 . S
H362 C339 0.931 . S
H363 C369 0.930 . S
H364 C402 0.930 . S
H365 C346 0.930 . S
H366 C401 0.931 . S
N367 Eu336 2.657 . S
N367 C368 1.334 . S
N367 C372 1.362 . S
C368 H360 0.929 . S
C368 N367 1.334 . S
C368 C371 1.413 . S
C369 H363 0.930 . S
C369 C370 1.392 . S
C369 C371 1.367 . S
C370 C369 1.392 . S
C370 C372 1.420 . S
C370 C402 1.423 . S
C371 H357 0.930 . S
C371 C368 1.413 . S
C371 C369 1.367 . S
C372 N367 1.362 . S
C372 C370 1.420 . S
C372 C376 1.429 . S
H373 C378 0.930 . S
N374 Eu336 2.609 . S
N374 C376 1.377 . S
N374 C377 1.321 . S
C375 H361 0.930 . S
C375 C377 1.400 . S
C375 C378 1.386 . S
C376 C372 1.429 . S
C376 N374 1.377 . S
C376 C379 1.411 . S
C377 H359 0.930 . S
C377 N374 1.321 . S
C377 C375 1.400 . S
C378 H373 0.930 . S
C378 C375 1.386 . S
C378 C379 1.395 . S
C379 C376 1.411 . S
C379 C378 1.395 . S
C379 C401 1.420 . S
O380 Eu336 2.558 . S
O380 C400 1.257 . S
O381 Eu336 2.612 . S
O381 Eu347 2.380 . S
O381 C392 1.276 . S
O382 Eu347 2.432 . S
O382 C399 1.264 . S
O383 Eu336 2.339 . S
O383 C399 1.254 . S
O384 Eu336 2.563 . S
O384 C392 1.235 . S
O385 Eu336 2.419 . S
O385 C400 1.249 . S
O386 Eu347 2.558 1_455 S
O386 C411 1.257 . S
O387 Eu336 2.380 . S
O387 Eu347 2.612 . S
O387 C403 1.276 . S
O388 Eu336 2.432 . S
O388 C410 1.264 . S
O389 Eu347 2.339 . S
O389 C410 1.254 . S
O390 Eu347 2.563 . S
O390 C403 1.235 . S
O391 Eu347 2.419 . S
O391 C411 1.249 1_655 S
C392 O381 1.276 . S
C392 O384 1.235 . S
C393 C395 1.393 . S
C393 C397 1.395 . S
C393 C400 1.492 . S
C394 C395 1.392 . S
C394 C396 1.386 . S
C395 C393 1.393 . S
C395 C394 1.392 . S
C395 H412 0.930 . S
C396 C394 1.386 . S
C396 C398 1.395 . S
C396 H413 0.930 . S
C397 C393 1.395 . S
C397 C398 1.379 . S
C397 H414 0.930 . S
C398 C396 1.395 . S
C398 C397 1.379 . S
C398 H415 0.930 . S
C399 O382 1.264 . S
C399 O383 1.254 . S
C400 Eu336 2.848 . S
C400 O380 1.257 . S
C400 O385 1.249 . S
C400 C393 1.492 . S
C401 H366 0.931 . S
C401 C379 1.420 . S
C401 C402 1.351 . S
C402 H364 0.930 . S
C402 C370 1.423 . S
C402 C401 1.351 . S
C403 O387 1.276 . S
C403 O390 1.235 . S
C404 C405 1.393 . S
C404 C408 1.395 . S
C404 C411 1.492 . S
C405 C404 1.393 . S
C405 C406 1.392 . S
C405 H416 0.930 1_455 S
C406 C405 1.392 . S
C406 C407 1.386 . S
C407 C406 1.386 . S
C407 C409 1.395 . S
C407 H417 0.930 . S
C408 C404 1.395 . S
C408 C409 1.379 . S
C408 H418 0.930 . S
C409 C407 1.395 . S
C409 C408 1.379 . S
C409 H419 0.930 . S
C410 O388 1.264 . S
C410 O389 1.254 . S
C411 Eu347 2.848 1_455 S
C411 O386 1.257 . S
C411 O391 1.249 1_455 S
C411 C404 1.492 . S
H412 C395 0.930 . S
H413 C396 0.930 . S
H414 C397 0.930 . S
H415 C398 0.930 . S
H416 C405 0.930 1_655 S
H417 C407 0.930 . S
H418 C408 0.930 . S
H419 C409 0.930 . S
Eu420 N451 2.657 . S
Eu420 N458 2.609 . S
Eu420 O464 2.558 . S
Eu420 O465 2.612 . S
Eu420 O467 2.339 . S
Eu420 O468 2.563 . S
Eu420 O469 2.419 . S
Eu420 O471 2.380 . S
Eu420 O472 2.432 . S
Eu420 C484 2.848 . S
C421 C424 1.429 . S
C421 C425 1.411 . S
C421 N428 1.377 . S
C422 C424 1.420 . S
C422 C426 1.423 . S
C422 C434 1.392 . S
C423 C425 1.420 . S
C423 C426 1.351 . S
C423 H446 0.931 . S
C424 C421 1.429 . S
C424 C422 1.420 . S
C424 N432 1.362 . S
C425 C421 1.411 . S
C425 C423 1.420 . S
C425 C430 1.395 . S
C426 C422 1.423 . S
C426 C423 1.351 . S
C426 H438 0.930 . S
C427 C429 1.400 . S
C427 C430 1.386 . S
C427 H439 0.930 . S
N428 C421 1.377 . S
N428 C429 1.321 . S
N428 Eu431 2.609 . S
C429 C427 1.400 . S
C429 N428 1.321 . S
C429 H436 0.930 . S
C430 C425 1.395 . S
C430 C427 1.386 . S
C430 H449 0.930 . S
Eu431 N428 2.609 . S
Eu431 N432 2.657 . S
Eu431 O465 2.380 . S
Eu431 O466 2.432 . S
Eu431 O470 2.558 . S
Eu431 O471 2.612 . S
Eu431 O473 2.339 . S
Eu431 O474 2.563 . S
Eu431 O475 2.419 . S
Eu431 C495 2.848 . S
N432 C424 1.362 . S
N432 Eu431 2.657 . S
N432 C433 1.334 . S
C433 N432 1.334 . S
C433 C435 1.413 . S
C433 H440 0.929 . S
C434 C422 1.392 . S
C434 C435 1.367 . S
C434 H442 0.930 . S
C435 C433 1.413 . S
C435 C434 1.367 . S
C435 H437 0.930 . S
H436 C429 0.930 . S
H437 C435 0.930 . S
H438 C426 0.930 . S
H439 C427 0.930 . S
H440 C433 0.929 . S
H441 C455 0.930 . S
H442 C434 0.930 . S
H443 C461 0.930 . S
H444 C452 0.929 . S
H445 C459 0.930 . S
H446 C423 0.931 . S
H447 C453 0.930 . S
H448 C486 0.930 . S
H449 C430 0.930 . S
H450 C485 0.931 . S
N451 Eu420 2.657 . S
N451 C452 1.334 . S
N451 C456 1.362 . S
C452 H444 0.929 . S
C452 N451 1.334 . S
C452 C455 1.413 . S
C453 H447 0.930 . S
C453 C454 1.392 . S
C453 C455 1.367 . S
C454 C453 1.392 . S
C454 C456 1.420 . S
C454 C486 1.423 . S
C455 H441 0.930 . S
C455 C452 1.413 . S
C455 C453 1.367 . S
C456 N451 1.362 . S
C456 C454 1.420 . S
C456 C460 1.429 . S
H457 C462 0.930 . S
N458 Eu420 2.609 . S
N458 C460 1.377 . S
N458 C461 1.321 . S
C459 H445 0.930 . S
C459 C461 1.400 . S
C459 C462 1.386 . S
C460 C456 1.429 . S
C460 N458 1.377 . S
C460 C463 1.411 . S
C461 H443 0.930 . S
C461 N458 1.321 . S
C461 C459 1.400 . S
C462 H457 0.930 . S
C462 C459 1.386 . S
C462 C463 1.395 . S
C463 C460 1.411 . S
C463 C462 1.395 . S
C463 C485 1.420 . S
O464 Eu420 2.558 . S
O464 C484 1.257 . S
O465 Eu420 2.612 . S
O465 Eu431 2.380 . S
O465 C476 1.276 . S
O466 Eu431 2.432 . S
O466 C483 1.264 . S
O467 Eu420 2.339 . S
O467 C483 1.254 . S
O468 Eu420 2.563 . S
O468 C476 1.235 . S
O469 Eu420 2.419 . S
O469 C484 1.249 . S
O470 Eu431 2.558 . S
O470 C495 1.257 . S
O471 Eu420 2.380 . S
O471 Eu431 2.612 . S
O471 C487 1.276 . S
O472 Eu420 2.432 . S
O472 C494 1.264 . S
O473 Eu431 2.339 . S
O473 C494 1.254 . S
O474 Eu431 2.563 . S
O474 C487 1.235 . S
O475 Eu431 2.419 . S
O475 C495 1.249 . S
C476 O465 1.276 . S
C476 O468 1.235 . S
C477 C479 1.393 . S
C477 C481 1.395 . S
C477 C484 1.492 . S
C478 C479 1.392 . S
C478 C480 1.386 . S
C479 C477 1.393 . S
C479 C478 1.392 . S
C479 H496 0.930 . S
C480 C478 1.386 . S
C480 C482 1.395 . S
C480 H497 0.930 . S
C481 C477 1.395 . S
C481 C482 1.379 . S
C481 H498 0.930 . S
C482 C480 1.395 . S
C482 C481 1.379 . S
C482 H499 0.930 . S
C483 O466 1.264 . S
C483 O467 1.254 . S
C484 Eu420 2.848 . S
C484 O464 1.257 . S
C484 O469 1.249 . S
C484 C477 1.492 . S
C485 H450 0.931 . S
C485 C463 1.420 . S
C485 C486 1.351 . S
C486 H448 0.930 . S
C486 C454 1.423 . S
C486 C485 1.351 . S
C487 O471 1.276 . S
C487 O474 1.235 . S
C488 C489 1.393 . S
C488 C492 1.395 . S
C488 C495 1.492 . S
C489 C488 1.393 . S
C489 C490 1.392 . S
C489 H500 0.930 . S
C490 C489 1.392 . S
C490 C491 1.386 . S
C491 C490 1.386 . S
C491 C493 1.395 . S
C491 H501 0.930 . S
C492 C488 1.395 . S
C492 C493 1.379 . S
C492 H502 0.930 . S
C493 C491 1.395 . S
C493 C492 1.379 . S
C493 H503 0.930 . S
C494 O472 1.264 . S
C494 O473 1.254 . S
C495 Eu431 2.848 . S
C495 O470 1.257 . S
C495 O475 1.249 . S
C495 C488 1.492 . S
H496 C479 0.930 . S
H497 C480 0.930 . S
H498 C481 0.930 . S
H499 C482 0.930 . S
H500 C489 0.930 . S
H501 C491 0.930 . S
H502 C492 0.930 . S
H503 C493 0.930 . S
Eu504 N535 2.654 1_654 S
Eu504 N542 2.609 1_655 S
Eu504 O548 2.558 1_655 S
Eu504 O549 2.612 . S
Eu504 O551 2.339 . S
Eu504 O552 2.563 . S
Eu504 O553 2.419 . S
Eu504 O555 2.380 1_554 S
Eu504 O556 2.432 . S
Eu504 C568 2.848 1_655 S
C505 C508 1.429 . S
C505 C509 1.411 . S
C505 N512 1.377 1_554 S
C506 C508 1.420 . S
C506 C510 1.423 . S
C506 C518 1.392 . S
C507 C509 1.420 . S
C507 C510 1.351 . S
C507 H530 0.931 . S
C508 C505 1.429 . S
C508 C506 1.420 . S
C508 N516 1.362 . S
C509 C505 1.411 . S
C509 C507 1.420 . S
C509 C514 1.395 . S
C510 C506 1.423 . S
C510 C507 1.351 . S
C510 H522 0.930 . S
C511 C513 1.400 . S
C511 C514 1.386 1_556 S
C511 H523 0.930 . S
N512 C505 1.377 1_556 S
N512 C513 1.321 . S
N512 Eu515 2.609 . S
C513 C511 1.400 . S
C513 N512 1.321 . S
C513 H520 0.930 . S
C514 C509 1.395 . S
C514 C511 1.386 1_554 S
C514 H533 0.930 . S
Eu515 N512 2.609 . S
Eu515 N516 2.657 1_556 S
Eu515 O549 2.380 1_556 S
Eu515 O550 2.432 . S
Eu515 O554 2.558 . S
Eu515 O555 2.612 . S
Eu515 O557 2.339 . S
Eu515 O558 2.563 . S
Eu515 O559 2.419 . S
Eu515 C579 2.848 . S
N516 C508 1.362 . S
N516 Eu515 2.657 1_554 S
N516 C517 1.334 . S
C517 N516 1.334 . S
C517 C519 1.413 . S
C517 H524 0.929 . S
C518 C506 1.392 . S
C518 C519 1.367 . S
C518 H526 0.930 . S
C519 C517 1.413 . S
C519 C518 1.367 . S
C519 H521 0.930 . S
H520 C513 0.930 . S
H521 C519 0.930 . S
H522 C510 0.930 . S
H523 C511 0.930 . S
H524 C517 0.929 . S
H525 C539 0.930 . S
H526 C518 0.930 . S
H527 C545 0.930 . S
H528 C536 0.929 . S
H529 C543 0.930 . S
H530 C507 0.931 . S
H531 C537 0.930 . S
H532 C570 0.930 . S
H533 C514 0.930 . S
H534 C569 0.931 . S
N535 Eu504 2.654 1_456 S
N535 C536 1.335 1_455 S
N535 C540 1.363 . S
C536 H528 0.929 . S
C536 N535 1.335 1_655 S
C536 C539 1.413 . S
C537 H531 0.930 . S
C537 C538 1.392 . S
C537 C539 1.367 1_455 S
C538 C537 1.392 . S
C538 C540 1.420 . S
C538 C570 1.423 . S
C539 H525 0.930 . S
C539 C536 1.413 . S
C539 C537 1.367 1_655 S
C540 N535 1.363 . S
C540 C538 1.420 . S
C540 C544 1.429 . S
H541 C546 0.930 1_556 S
N542 Eu504 2.609 1_455 S
N542 C544 1.377 1_554 S
N542 C545 1.321 . S
C543 H529 0.930 . S
C543 C545 1.400 . S
C543 C546 1.386 . S
C544 C540 1.429 . S
C544 N542 1.377 1_556 S
C544 C547 1.411 . S
C545 H527 0.930 . S
C545 N542 1.321 . S
C545 C543 1.400 . S
C546 H541 0.930 1_554 S
C546 C543 1.386 . S
C546 C547 1.395 1_554 S
C547 C544 1.411 . S
C547 C546 1.395 1_556 S
C547 C569 1.420 . S
O548 Eu504 2.558 1_455 S
O548 C568 1.257 . S
O549 Eu504 2.612 . S
O549 Eu515 2.380 1_554 S
O549 C560 1.276 . S
O550 Eu515 2.432 . S
O550 C567 1.264 1_556 S
O551 Eu504 2.339 . S
O551 C567 1.254 . S
O552 Eu504 2.563 . S
O552 C560 1.235 . S
O553 Eu504 2.419 . S
O553 C568 1.249 1_655 S
O554 Eu515 2.558 . S
O554 C579 1.257 . S
O555 Eu504 2.380 1_556 S
O555 Eu515 2.612 . S
O555 C571 1.276 . S
O556 Eu504 2.432 . S
O556 C578 1.264 1_554 S
O557 Eu515 2.339 . S
O557 C578 1.254 . S
O558 Eu515 2.563 . S
O558 C571 1.235 . S
O559 Eu515 2.419 . S
O559 C579 1.249 . S
C560 O549 1.276 . S
C560 O552 1.235 . S
C561 C563 1.393 . S
C561 C565 1.395 . S
C561 C568 1.492 . S
C562 C563 1.392 . S
C562 C564 1.386 . S
C563 C561 1.393 . S
C563 C562 1.392 . S
C563 H580 0.930 1_455 S
C564 C562 1.386 . S
C564 C566 1.395 . S
C564 H581 0.930 . S
C565 C561 1.395 . S
C565 C566 1.379 . S
C565 H582 0.930 . S
C566 C564 1.395 . S
C566 C565 1.379 . S
C566 H583 0.930 . S
C567 O550 1.264 1_554 S
C567 O551 1.254 . S
C568 Eu504 2.848 1_455 S
C568 O548 1.257 . S
C568 O553 1.249 1_455 S
C568 C561 1.492 . S
C569 H534 0.931 . S
C569 C547 1.420 . S
C569 C570 1.351 . S
C570 H532 0.930 . S
C570 C538 1.423 . S
C570 C569 1.351 . S
C571 O555 1.276 . S
C571 O558 1.235 . S
C572 C573 1.393 . S
C572 C576 1.395 . S
C572 C579 1.492 . S
C573 C572 1.393 . S
C573 C574 1.392 . S
C573 H584 0.930 . S
C574 C573 1.392 . S
C574 C575 1.386 . S
C575 C574 1.386 . S
C575 C577 1.395 . S
C575 H585 0.930 . S
C576 C572 1.395 . S
C576 C577 1.379 . S
C576 H586 0.930 . S
C577 C575 1.395 . S
C577 C576 1.379 . S
C577 H587 0.930 . S
C578 O556 1.264 1_556 S
C578 O557 1.254 . S
C579 Eu515 2.848 . S
C579 O554 1.257 . S
C579 O559 1.249 . S
C579 C572 1.492 . S
H580 C563 0.930 1_655 S
H581 C564 0.930 . S
H582 C565 0.930 . S
H583 C566 0.930 . S
H584 C573 0.930 . S
H585 C575 0.930 . S
H586 C576 0.930 . S
H587 C577 0.930 . S
Eu588 N619 2.654 1_554 S
Eu588 N626 2.609 . S
Eu588 O632 2.558 . S
Eu588 O633 2.612 . S
Eu588 O635 2.339 . S
Eu588 O636 2.563 . S
Eu588 O637 2.419 . S
Eu588 O639 2.380 1_554 S
Eu588 O640 2.432 . S
Eu588 C652 2.848 . S
C589 C592 1.429 . S
C589 C593 1.411 . S
C589 N596 1.377 1_554 S
C590 C592 1.420 . S
C590 C594 1.423 . S
C590 C602 1.392 . S
C591 C593 1.420 . S
C591 C594 1.351 . S
C591 H614 0.931 . S
C592 C589 1.429 . S
C592 C590 1.420 . S
C592 N600 1.362 . S
C593 C589 1.411 . S
C593 C591 1.420 . S
C593 C598 1.395 . S
C594 C590 1.423 . S
C594 C591 1.351 . S
C594 H606 0.930 . S
C595 C597 1.400 . S
C595 C598 1.386 1_556 S
C595 H607 0.930 . S
N596 C589 1.377 1_556 S
N596 C597 1.321 . S
N596 Eu599 2.609 . S
C597 C595 1.400 . S
C597 N596 1.321 . S
C597 H604 0.930 . S
C598 C593 1.395 . S
C598 C595 1.386 1_554 S
C598 H617 0.930 . S
Eu599 N596 2.609 . S
Eu599 N600 2.657 1_556 S
Eu599 O633 2.380 1_556 S
Eu599 O634 2.432 . S
Eu599 O638 2.558 . S
Eu599 O639 2.612 . S
Eu599 O641 2.339 . S
Eu599 O642 2.563 . S
Eu599 O643 2.419 . S
Eu599 C663 2.848 . S
N600 C592 1.362 . S
N600 Eu599 2.657 1_554 S
N600 C601 1.334 . S
C601 N600 1.334 . S
C601 C603 1.413 . S
C601 H608 0.929 . S
C602 C590 1.392 . S
C602 C603 1.367 . S
C602 H610 0.930 . S
C603 C601 1.413 . S
C603 C602 1.367 . S
C603 H605 0.930 . S
H604 C597 0.930 . S
H605 C603 0.930 . S
H606 C594 0.930 . S
H607 C595 0.930 . S
H608 C601 0.929 . S
H609 C623 0.930 . S
H610 C602 0.930 . S
H611 C629 0.930 . S
H612 C620 0.929 . S
H613 C627 0.930 . S
H614 C591 0.931 . S
H615 C621 0.930 . S
H616 C654 0.930 . S
H617 C598 0.930 . S
H618 C653 0.931 . S
N619 Eu588 2.654 1_556 S
N619 C620 1.335 . S
N619 C624 1.363 . S
C620 H612 0.929 . S
C620 N619 1.335 . S
C620 C623 1.413 . S
C621 H615 0.930 . S
C621 C622 1.392 . S
C621 C623 1.367 . S
C622 C621 1.392 . S
C622 C624 1.420 . S
C622 C654 1.423 . S
C623 H609 0.930 . S
C623 C620 1.413 . S
C623 C621 1.367 . S
C624 N619 1.363 . S
C624 C622 1.420 . S
C624 C628 1.429 . S
H625 C630 0.930 1_556 S
N626 Eu588 2.609 . S
N626 C628 1.377 1_554 S
N626 C629 1.321 . S
C627 H613 0.930 . S
C627 C629 1.400 . S
C627 C630 1.386 . S
C628 C624 1.429 . S
C628 N626 1.377 1_556 S
C628 C631 1.411 . S
C629 H611 0.930 . S
C629 N626 1.321 . S
C629 C627 1.400 . S
C630 H625 0.930 1_554 S
C630 C627 1.386 . S
C630 C631 1.395 1_554 S
C631 C628 1.411 . S
C631 C630 1.395 1_556 S
C631 C653 1.420 . S
O632 Eu588 2.558 . S
O632 C652 1.257 . S
O633 Eu588 2.612 . S
O633 Eu599 2.380 1_554 S
O633 C644 1.276 . S
O634 Eu599 2.432 . S
O634 C651 1.264 1_556 S
O635 Eu588 2.339 . S
O635 C651 1.254 . S
O636 Eu588 2.563 . S
O636 C644 1.235 . S
O637 Eu588 2.419 . S
O637 C652 1.249 . S
O638 Eu599 2.558 . S
O638 C663 1.257 . S
O639 Eu588 2.380 1_556 S
O639 Eu599 2.612 . S
O639 C655 1.276 . S
O640 Eu588 2.432 . S
O640 C662 1.264 1_554 S
O641 Eu599 2.339 . S
O641 C662 1.254 . S
O642 Eu599 2.563 . S
O642 C655 1.235 . S
O643 Eu599 2.419 . S
O643 C663 1.249 . S
C644 O633 1.276 . S
C644 O636 1.235 . S
C645 C647 1.393 . S
C645 C649 1.395 . S
C645 C652 1.492 . S
C646 C647 1.392 . S
C646 C648 1.386 . S
C647 C645 1.393 . S
C647 C646 1.392 . S
C647 H664 0.930 . S
C648 C646 1.386 . S
C648 C650 1.395 . S
C648 H665 0.930 . S
C649 C645 1.395 . S
C649 C650 1.379 . S
C649 H666 0.930 . S
C650 C648 1.395 . S
C650 C649 1.379 . S
C650 H667 0.930 . S
C651 O634 1.264 1_554 S
C651 O635 1.254 . S
C652 Eu588 2.848 . S
C652 O632 1.257 . S
C652 O637 1.249 . S
C652 C645 1.492 . S
C653 H618 0.931 . S
C653 C631 1.420 . S
C653 C654 1.351 . S
C654 H616 0.930 . S
C654 C622 1.423 . S
C654 C653 1.351 . S
C655 O639 1.276 . S
C655 O642 1.235 . S
C656 C657 1.393 . S
C656 C660 1.395 . S
C656 C663 1.492 . S
C657 C656 1.393 . S
C657 C658 1.392 . S
C657 H668 0.930 . S
C658 C657 1.392 . S
C658 C659 1.386 . S
C659 C658 1.386 . S
C659 C661 1.395 . S
C659 H669 0.930 . S
C660 C656 1.395 . S
C660 C661 1.379 . S
C660 H670 0.930 . S
C661 C659 1.395 . S
C661 C660 1.379 . S
C661 H671 0.930 . S
C662 O640 1.264 1_556 S
C662 O641 1.254 . S
C663 Eu599 2.848 . S
C663 O638 1.257 . S
C663 O643 1.249 . S
C663 C656 1.492 . S
H664 C647 0.930 . S
H665 C648 0.930 . S
H666 C649 0.930 . S
H667 C650 0.930 . S
H668 C657 0.930 . S
H669 C659 0.930 . S
H670 C660 0.930 . S
H671 C661 0.930 . S
Eu672 N703 2.654 1_544 S
Eu672 N710 2.609 1_545 S
Eu672 O716 2.558 1_545 S
Eu672 O717 2.612 . S
Eu672 O719 2.339 . S
Eu672 O720 2.563 . S
Eu672 O721 2.419 . S
Eu672 O723 2.380 1_554 S
Eu672 O724 2.432 . S
Eu672 C736 2.848 1_545 S
C673 C676 1.429 . S
C673 C677 1.411 . S
C673 N680 1.377 1_554 S
C674 C676 1.420 . S
C674 C678 1.423 . S
C674 C686 1.392 . S
C675 C677 1.420 . S
C675 C678 1.351 . S
C675 H698 0.931 . S
C676 C673 1.429 . S
C676 C674 1.420 . S
C676 N684 1.362 . S
C677 C673 1.411 . S
C677 C675 1.420 . S
C677 C682 1.395 . S
C678 C674 1.423 . S
C678 C675 1.351 . S
C678 H690 0.930 . S
C679 C681 1.400 . S
C679 C682 1.386 1_556 S
C679 H691 0.930 . S
N680 C673 1.377 1_556 S
N680 C681 1.321 . S
N680 Eu683 2.609 . S
C681 C679 1.400 . S
C681 N680 1.321 . S
C681 H688 0.930 . S
C682 C677 1.395 . S
C682 C679 1.386 1_554 S
C682 H701 0.930 . S
Eu683 N680 2.609 . S
Eu683 N684 2.657 1_556 S
Eu683 O717 2.380 1_556 S
Eu683 O718 2.432 . S
Eu683 O722 2.558 . S
Eu683 O723 2.612 . S
Eu683 O725 2.339 . S
Eu683 O726 2.563 . S
Eu683 O727 2.419 . S
Eu683 C747 2.848 . S
N684 C676 1.362 . S
N684 Eu683 2.657 1_554 S
N684 C685 1.334 . S
C685 N684 1.334 . S
C685 C687 1.413 . S
C685 H692 0.929 . S
C686 C674 1.392 . S
C686 C687 1.367 . S
C686 H694 0.930 . S
C687 C685 1.413 . S
C687 C686 1.367 . S
C687 H689 0.930 . S
H688 C681 0.930 . S
H689 C687 0.930 . S
H690 C678 0.930 . S
H691 C679 0.930 . S
H692 C685 0.929 . S
H693 C707 0.930 . S
H694 C686 0.930 . S
H695 C713 0.930 . S
H696 C704 0.929 . S
H697 C711 0.930 . S
H698 C675 0.931 . S
H699 C705 0.930 . S
H700 C738 0.930 . S
H701 C682 0.930 . S
H702 C737 0.931 . S
N703 Eu672 2.654 1_566 S
N703 C704 1.335 1_565 S
N703 C708 1.363 . S
C704 H696 0.929 . S
C704 N703 1.335 1_545 S
C704 C707 1.413 . S
C705 H699 0.930 . S
C705 C706 1.392 . S
C705 C707 1.367 1_565 S
C706 C705 1.392 . S
C706 C708 1.420 . S
C706 C738 1.423 . S
C707 H693 0.930 . S
C707 C704 1.413 . S
C707 C705 1.367 1_545 S
C708 N703 1.363 . S
C708 C706 1.420 . S
C708 C712 1.429 . S
H709 C714 0.930 1_556 S
N710 Eu672 2.609 1_565 S
N710 C712 1.377 1_554 S
N710 C713 1.321 . S
C711 H697 0.930 . S
C711 C713 1.400 . S
C711 C714 1.386 . S
C712 C708 1.429 . S
C712 N710 1.377 1_556 S
C712 C715 1.411 . S
C713 H695 0.930 . S
C713 N710 1.321 . S
C713 C711 1.400 . S
C714 H709 0.930 1_554 S
C714 C711 1.386 . S
C714 C715 1.395 1_554 S
C715 C712 1.411 . S
C715 C714 1.395 1_556 S
C715 C737 1.420 . S
O716 Eu672 2.558 1_565 S
O716 C736 1.257 . S
O717 Eu672 2.612 . S
O717 Eu683 2.380 1_554 S
O717 C728 1.276 . S
O718 Eu683 2.432 . S
O718 C735 1.264 1_556 S
O719 Eu672 2.339 . S
O719 C735 1.254 . S
O720 Eu672 2.563 . S
O720 C728 1.235 . S
O721 Eu672 2.419 . S
O721 C736 1.249 1_545 S
O722 Eu683 2.558 . S
O722 C747 1.257 . S
O723 Eu672 2.380 1_556 S
O723 Eu683 2.612 . S
O723 C739 1.276 . S
O724 Eu672 2.432 . S
O724 C746 1.264 1_554 S
O725 Eu683 2.339 . S
O725 C746 1.254 . S
O726 Eu683 2.563 . S
O726 C739 1.235 . S
O727 Eu683 2.419 . S
O727 C747 1.249 . S
C728 O717 1.276 . S
C728 O720 1.235 . S
C729 C731 1.393 . S
C729 C733 1.395 . S
C729 C736 1.492 . S
C730 C731 1.392 . S
C730 C732 1.386 . S
C731 C729 1.393 . S
C731 C730 1.392 . S
C731 H748 0.930 1_565 S
C732 C730 1.386 . S
C732 C734 1.395 . S
C732 H749 0.930 . S
C733 C729 1.395 . S
C733 C734 1.379 . S
C733 H750 0.930 . S
C734 C732 1.395 . S
C734 C733 1.379 . S
C734 H751 0.930 . S
C735 O718 1.264 1_554 S
C735 O719 1.254 . S
C736 Eu672 2.848 1_565 S
C736 O716 1.257 . S
C736 O721 1.249 1_565 S
C736 C729 1.492 . S
C737 H702 0.931 . S
C737 C715 1.420 . S
C737 C738 1.351 . S
C738 H700 0.930 . S
C738 C706 1.423 . S
C738 C737 1.351 . S
C739 O723 1.276 . S
C739 O726 1.235 . S
C740 C741 1.393 . S
C740 C744 1.395 . S
C740 C747 1.492 . S
C741 C740 1.393 . S
C741 C742 1.392 . S
C741 H752 0.930 . S
C742 C741 1.392 . S
C742 C743 1.386 . S
C743 C742 1.386 . S
C743 C745 1.395 . S
C743 H753 0.930 . S
C744 C740 1.395 . S
C744 C745 1.379 . S
C744 H754 0.930 . S
C745 C743 1.395 . S
C745 C744 1.379 . S
C745 H755 0.930 . S
C746 O724 1.264 1_556 S
C746 O725 1.254 . S
C747 Eu683 2.848 . S
C747 O722 1.257 . S
C747 O727 1.249 . S
C747 C740 1.492 . S
H748 C731 0.930 1_545 S
H749 C732 0.930 . S
H750 C733 0.930 . S
H751 C734 0.930 . S
H752 C741 0.930 . S
H753 C743 0.930 . S
H754 C744 0.930 . S
H755 C745 0.930 . S
Eu756 N787 2.657 1_565 S
Eu756 N794 2.609 1_565 S
Eu756 O800 2.558 1_565 S
Eu756 O801 2.612 . S
Eu756 O803 2.339 . S
Eu756 O804 2.563 . S
Eu756 O805 2.419 . S
Eu756 O807 2.380 . S
Eu756 O808 2.432 . S
Eu756 C820 2.848 1_565 S
C757 C760 1.429 . S
C757 C761 1.411 . S
C757 N764 1.377 . S
C758 C760 1.420 . S
C758 C762 1.423 . S
C758 C770 1.392 . S
C759 C761 1.420 . S
C759 C762 1.351 . S
C759 H782 0.931 . S
C760 C757 1.429 . S
C760 C758 1.420 . S
C760 N768 1.362 . S
C761 C757 1.411 . S
C761 C759 1.420 . S
C761 C766 1.395 . S
C762 C758 1.423 . S
C762 C759 1.351 . S
C762 H774 0.930 . S
C763 C765 1.400 . S
C763 C766 1.386 . S
C763 H775 0.930 . S
N764 C757 1.377 . S
N764 C765 1.321 . S
N764 Eu767 2.609 . S
C765 C763 1.400 . S
C765 N764 1.321 . S
C765 H772 0.930 . S
C766 C761 1.395 . S
C766 C763 1.386 . S
C766 H785 0.930 . S
Eu767 N764 2.609 . S
Eu767 N768 2.657 . S
Eu767 O801 2.380 . S
Eu767 O802 2.432 . S
Eu767 O806 2.558 . S
Eu767 O807 2.612 . S
Eu767 O809 2.339 . S
Eu767 O810 2.563 . S
Eu767 O811 2.419 . S
Eu767 C831 2.848 . S
N768 C760 1.362 . S
N768 Eu767 2.657 . S
N768 C769 1.334 . S
C769 N768 1.334 . S
C769 C771 1.413 . S
C769 H776 0.929 . S
C770 C758 1.392 . S
C770 C771 1.367 . S
C770 H778 0.930 . S
C771 C769 1.413 . S
C771 C770 1.367 . S
C771 H773 0.930 . S
H772 C765 0.930 . S
H773 C771 0.930 . S
H774 C762 0.930 . S
H775 C763 0.930 . S
H776 C769 0.929 . S
H777 C791 0.930 . S
H778 C770 0.930 . S
H779 C797 0.930 . S
H780 C788 0.929 . S
H781 C795 0.930 . S
H782 C759 0.931 . S
H783 C789 0.930 . S
H784 C822 0.930 . S
H785 C766 0.930 . S
H786 C821 0.931 . S
N787 Eu756 2.657 1_545 S
N787 C788 1.334 1_545 S
N787 C792 1.362 . S
C788 H780 0.929 . S
C788 N787 1.334 1_565 S
C788 C791 1.413 . S
C789 H783 0.930 . S
C789 C790 1.392 . S
C789 C791 1.367 1_545 S
C790 C789 1.392 . S
C790 C792 1.420 . S
C790 C822 1.423 . S
C791 H777 0.930 . S
C791 C788 1.413 . S
C791 C789 1.367 1_565 S
C792 N787 1.362 . S
C792 C790 1.420 . S
C792 C796 1.429 . S
H793 C798 0.930 . S
N794 Eu756 2.609 1_545 S
N794 C796 1.377 . S
N794 C797 1.321 . S
C795 H781 0.930 . S
C795 C797 1.400 . S
C795 C798 1.386 . S
C796 C792 1.429 . S
C796 N794 1.377 . S
C796 C799 1.411 . S
C797 H779 0.930 . S
C797 N794 1.321 . S
C797 C795 1.400 . S
C798 H793 0.930 . S
C798 C795 1.386 . S
C798 C799 1.395 . S
C799 C796 1.411 . S
C799 C798 1.395 . S
C799 C821 1.420 . S
O800 Eu756 2.558 1_545 S
O800 C820 1.257 . S
O801 Eu756 2.612 . S
O801 Eu767 2.380 . S
O801 C812 1.276 . S
O802 Eu767 2.432 . S
O802 C819 1.264 . S
O803 Eu756 2.339 . S
O803 C819 1.254 . S
O804 Eu756 2.563 . S
O804 C812 1.235 . S
O805 Eu756 2.419 . S
O805 C820 1.249 1_565 S
O806 Eu767 2.558 . S
O806 C831 1.257 . S
O807 Eu756 2.380 . S
O807 Eu767 2.612 . S
O807 C823 1.276 . S
O808 Eu756 2.432 . S
O808 C830 1.264 . S
O809 Eu767 2.339 . S
O809 C830 1.254 . S
O810 Eu767 2.563 . S
O810 C823 1.235 . S
O811 Eu767 2.419 . S
O811 C831 1.249 . S
C812 O801 1.276 . S
C812 O804 1.235 . S
C813 C815 1.393 . S
C813 C817 1.395 . S
C813 C820 1.492 . S
C814 C815 1.392 . S
C814 C816 1.386 . S
C815 C813 1.393 . S
C815 C814 1.392 . S
C815 H832 0.930 1_545 S
C816 C814 1.386 . S
C816 C818 1.395 . S
C816 H833 0.930 . S
C817 C813 1.395 . S
C817 C818 1.379 . S
C817 H834 0.930 . S
C818 C816 1.395 . S
C818 C817 1.379 . S
C818 H835 0.930 . S
C819 O802 1.264 . S
C819 O803 1.254 . S
C820 Eu756 2.848 1_545 S
C820 O800 1.257 . S
C820 O805 1.249 1_545 S
C820 C813 1.492 . S
C821 H786 0.931 . S
C821 C799 1.420 . S
C821 C822 1.351 . S
C822 H784 0.930 . S
C822 C790 1.423 . S
C822 C821 1.351 . S
C823 O807 1.276 . S
C823 O810 1.235 . S
C824 C825 1.393 . S
C824 C828 1.395 . S
C824 C831 1.492 . S
C825 C824 1.393 . S
C825 C826 1.392 . S
C825 H836 0.930 . S
C826 C825 1.392 . S
C826 C827 1.386 . S
C827 C826 1.386 . S
C827 C829 1.395 . S
C827 H837 0.930 1_556 S
C828 C824 1.395 . S
C828 C829 1.379 . S
C828 H838 0.930 . S
C829 C827 1.395 . S
C829 C828 1.379 . S
C829 H839 0.930 . S
C830 O808 1.264 . S
C830 O809 1.254 . S
C831 Eu767 2.848 . S
C831 O806 1.257 . S
C831 O811 1.249 . S
C831 C824 1.492 . S
H832 C815 0.930 1_565 S
H833 C816 0.930 . S
H834 C817 0.930 . S
H835 C818 0.930 . S
H836 C825 0.930 . S
H837 C827 0.930 1_554 S
H838 C828 0.930 . S
H839 C829 0.930 . S
Eu840 N871 2.657 1_455 S
Eu840 N878 2.609 1_455 S
Eu840 O884 2.558 1_455 S
Eu840 O885 2.612 . S
Eu840 O887 2.339 . S
Eu840 O888 2.563 . S
Eu840 O889 2.419 . S
Eu840 O891 2.380 . S
Eu840 O892 2.432 . S
Eu840 C904 2.848 1_455 S
C841 C844 1.429 . S
C841 C845 1.411 . S
C841 N848 1.377 . S
C842 C844 1.420 . S
C842 C846 1.423 . S
C842 C854 1.392 . S
C843 C845 1.420 . S
C843 C846 1.351 . S
C843 H866 0.931 . S
C844 C841 1.429 . S
C844 C842 1.420 . S
C844 N852 1.362 . S
C845 C841 1.411 . S
C845 C843 1.420 . S
C845 C850 1.395 . S
C846 C842 1.423 . S
C846 C843 1.351 . S
C846 H858 0.930 . S
C847 C849 1.400 . S
C847 C850 1.386 . S
C847 H859 0.930 . S
N848 C841 1.377 . S
N848 C849 1.321 . S
N848 Eu851 2.609 . S
C849 C847 1.400 . S
C849 N848 1.321 . S
C849 H856 0.930 . S
C850 C845 1.395 . S
C850 C847 1.386 . S
C850 H869 0.930 . S
Eu851 N848 2.609 . S
Eu851 N852 2.657 . S
Eu851 O885 2.380 . S
Eu851 O886 2.432 . S
Eu851 O890 2.558 . S
Eu851 O891 2.612 . S
Eu851 O893 2.339 . S
Eu851 O894 2.563 . S
Eu851 O895 2.419 . S
Eu851 C915 2.848 . S
N852 C844 1.362 . S
N852 Eu851 2.657 . S
N852 C853 1.334 . S
C853 N852 1.334 . S
C853 C855 1.413 . S
C853 H860 0.929 . S
C854 C842 1.392 . S
C854 C855 1.367 . S
C854 H862 0.930 . S
C855 C853 1.413 . S
C855 C854 1.367 . S
C855 H857 0.930 . S
H856 C849 0.930 . S
H857 C855 0.930 . S
H858 C846 0.930 . S
H859 C847 0.930 . S
H860 C853 0.929 . S
H861 C875 0.930 . S
H862 C854 0.930 . S
H863 C881 0.930 . S
H864 C872 0.929 . S
H865 C879 0.930 . S
H866 C843 0.931 . S
H867 C873 0.930 . S
H868 C906 0.930 . S
H869 C850 0.930 . S
H870 C905 0.931 . S
N871 Eu840 2.657 1_655 S
N871 C872 1.334 1_655 S
N871 C876 1.362 . S
C872 H864 0.929 . S
C872 N871 1.334 1_455 S
C872 C875 1.413 . S
C873 H867 0.930 . S
C873 C874 1.392 . S
C873 C875 1.367 1_655 S
C874 C873 1.392 . S
C874 C876 1.420 . S
C874 C906 1.423 . S
C875 H861 0.930 . S
C875 C872 1.413 . S
C875 C873 1.367 1_455 S
C876 N871 1.362 . S
C876 C874 1.420 . S
C876 C880 1.429 . S
H877 C882 0.930 . S
N878 Eu840 2.609 1_655 S
N878 C880 1.377 . S
N878 C881 1.321 . S
C879 H865 0.930 . S
C879 C881 1.400 . S
C879 C882 1.386 . S
C880 C876 1.429 . S
C880 N878 1.377 . S
C880 C883 1.411 . S
C881 H863 0.930 . S
C881 N878 1.321 . S
C881 C879 1.400 . S
C882 H877 0.930 . S
C882 C879 1.386 . S
C882 C883 1.395 . S
C883 C880 1.411 . S
C883 C882 1.395 . S
C883 C905 1.420 . S
O884 Eu840 2.558 1_655 S
O884 C904 1.257 . S
O885 Eu840 2.612 . S
O885 Eu851 2.380 . S
O885 C896 1.276 . S
O886 Eu851 2.432 . S
O886 C903 1.264 . S
O887 Eu840 2.339 . S
O887 C903 1.254 . S
O888 Eu840 2.563 . S
O888 C896 1.235 . S
O889 Eu840 2.419 . S
O889 C904 1.249 1_455 S
O890 Eu851 2.558 . S
O890 C915 1.257 . S
O891 Eu840 2.380 . S
O891 Eu851 2.612 . S
O891 C907 1.276 . S
O892 Eu840 2.432 . S
O892 C914 1.264 . S
O893 Eu851 2.339 . S
O893 C914 1.254 . S
O894 Eu851 2.563 . S
O894 C907 1.235 . S
O895 Eu851 2.419 . S
O895 C915 1.249 . S
C896 O885 1.276 . S
C896 O888 1.235 . S
C897 C899 1.393 . S
C897 C901 1.395 . S
C897 C904 1.492 . S
C898 C899 1.392 . S
C898 C900 1.386 . S
C899 C897 1.393 . S
C899 C898 1.392 . S
C899 H916 0.930 1_655 S
C900 C898 1.386 . S
C900 C902 1.395 . S
C900 H917 0.930 . S
C901 C897 1.395 . S
C901 C902 1.379 . S
C901 H918 0.930 . S
C902 C900 1.395 . S
C902 C901 1.379 . S
C902 H919 0.930 . S
C903 O886 1.264 . S
C903 O887 1.254 . S
C904 Eu840 2.848 1_655 S
C904 O884 1.257 . S
C904 O889 1.249 1_655 S
C904 C897 1.492 . S
C905 H870 0.931 . S
C905 C883 1.420 . S
C905 C906 1.351 . S
C906 H868 0.930 . S
C906 C874 1.423 . S
C906 C905 1.351 . S
C907 O891 1.276 . S
C907 O894 1.235 . S
C908 C909 1.393 . S
C908 C912 1.395 . S
C908 C915 1.492 . S
C909 C908 1.393 . S
C909 C910 1.392 . S
C909 H920 0.930 . S
C910 C909 1.392 . S
C910 C911 1.386 . S
C911 C910 1.386 . S
C911 C913 1.395 . S
C911 H921 0.930 1_556 S
C912 C908 1.395 . S
C912 C913 1.379 . S
C912 H922 0.930 . S
C913 C911 1.395 . S
C913 C912 1.379 . S
C913 H923 0.930 . S
C914 O892 1.264 . S
C914 O893 1.254 . S
C915 Eu851 2.848 . S
C915 O890 1.257 . S
C915 O895 1.249 . S
C915 C908 1.492 . S
H916 C899 0.930 1_455 S
H917 C900 0.930 . S
H918 C901 0.930 . S
H919 C902 0.930 . S
H920 C909 0.930 . S
H921 C911 0.930 1_554 S
H922 C912 0.930 . S
H923 C913 0.930 . S
Eu924 N955 2.657 . S
Eu924 N962 2.609 . S
Eu924 O968 2.558 . S
Eu924 O969 2.612 . S
Eu924 O971 2.339 . S
Eu924 O972 2.563 . S
Eu924 O973 2.419 . S
Eu924 O975 2.380 . S
Eu924 O976 2.432 . S
Eu924 C988 2.848 . S
C925 C928 1.429 . S
C925 C929 1.411 . S
C925 N932 1.377 . S
C926 C928 1.420 . S
C926 C930 1.423 . S
C926 C938 1.392 . S
C927 C929 1.420 . S
C927 C930 1.351 . S
C927 H950 0.931 . S
C928 C925 1.429 . S
C928 C926 1.420 . S
C928 N936 1.362 . S
C929 C925 1.411 . S
C929 C927 1.420 . S
C929 C934 1.395 . S
C930 C926 1.423 . S
C930 C927 1.351 . S
C930 H942 0.930 . S
C931 C933 1.400 . S
C931 C934 1.386 . S
C931 H943 0.930 . S
N932 C925 1.377 . S
N932 C933 1.321 . S
N932 Eu935 2.609 . S
C933 C931 1.400 . S
C933 N932 1.321 . S
C933 H940 0.930 . S
C934 C929 1.395 . S
C934 C931 1.386 . S
C934 H953 0.930 . S
Eu935 N932 2.609 . S
Eu935 N936 2.657 . S
Eu935 O969 2.380 . S
Eu935 O970 2.432 . S
Eu935 O974 2.558 . S
Eu935 O975 2.612 . S
Eu935 O977 2.339 . S
Eu935 O978 2.563 . S
Eu935 O979 2.419 . S
Eu935 C999 2.848 . S
N936 C928 1.362 . S
N936 Eu935 2.657 . S
N936 C937 1.334 . S
C937 N936 1.334 . S
C937 C939 1.413 . S
C937 H944 0.929 . S
C938 C926 1.392 . S
C938 C939 1.367 . S
C938 H946 0.930 . S
C939 C937 1.413 . S
C939 C938 1.367 . S
C939 H941 0.930 . S
H940 C933 0.930 . S
H941 C939 0.930 . S
H942 C930 0.930 . S
H943 C931 0.930 . S
H944 C937 0.929 . S
H945 C959 0.930 . S
H946 C938 0.930 . S
H947 C965 0.930 . S
H948 C956 0.929 . S
H949 C963 0.930 . S
H950 C927 0.931 . S
H951 C957 0.930 . S
H952 C990 0.930 . S
H953 C934 0.930 . S
H954 C989 0.931 . S
N955 Eu924 2.657 . S
N955 C956 1.334 . S
N955 C960 1.362 . S
C956 H948 0.929 . S
C956 N955 1.334 . S
C956 C959 1.413 . S
C957 H951 0.930 . S
C957 C958 1.392 . S
C957 C959 1.367 . S
C958 C957 1.392 . S
C958 C960 1.420 . S
C958 C990 1.423 . S
C959 H945 0.930 . S
C959 C956 1.413 . S
C959 C957 1.367 . S
C960 N955 1.362 . S
C960 C958 1.420 . S
C960 C964 1.429 . S
H961 C966 0.930 . S
N962 Eu924 2.609 . S
N962 C964 1.377 . S
N962 C965 1.321 . S
C963 H949 0.930 . S
C963 C965 1.400 . S
C963 C966 1.386 . S
C964 C960 1.429 . S
C964 N962 1.377 . S
C964 C967 1.411 . S
C965 H947 0.930 . S
C965 N962 1.321 . S
C965 C963 1.400 . S
C966 H961 0.930 . S
C966 C963 1.386 . S
C966 C967 1.395 . S
C967 C964 1.411 . S
C967 C966 1.395 . S
C967 C989 1.420 . S
O968 Eu924 2.558 . S
O968 C988 1.257 . S
O969 Eu924 2.612 . S
O969 Eu935 2.380 . S
O969 C980 1.276 . S
O970 Eu935 2.432 . S
O970 C987 1.264 . S
O971 Eu924 2.339 . S
O971 C987 1.254 . S
O972 Eu924 2.563 . S
O972 C980 1.235 . S
O973 Eu924 2.419 . S
O973 C988 1.249 . S
O974 Eu935 2.558 . S
O974 C999 1.257 . S
O975 Eu924 2.380 . S
O975 Eu935 2.612 . S
O975 C991 1.276 . S
O976 Eu924 2.432 . S
O976 C998 1.264 . S
O977 Eu935 2.339 . S
O977 C998 1.254 . S
O978 Eu935 2.563 . S
O978 C991 1.235 . S
O979 Eu935 2.419 . S
O979 C999 1.249 . S
C980 O969 1.276 . S
C980 O972 1.235 . S
C981 C983 1.393 . S
C981 C985 1.395 . S
C981 C988 1.492 . S
C982 C983 1.392 . S
C982 C984 1.386 . S
C983 C981 1.393 . S
C983 C982 1.392 . S
C983 H1000 0.930 . S
C984 C982 1.386 . S
C984 C986 1.395 . S
C984 H1001 0.930 . S
C985 C981 1.395 . S
C985 C986 1.379 . S
C985 H1002 0.930 . S
C986 C984 1.395 . S
C986 C985 1.379 . S
C986 H1003 0.930 . S
C987 O970 1.264 . S
C987 O971 1.254 . S
C988 Eu924 2.848 . S
C988 O968 1.257 . S
C988 O973 1.249 . S
C988 C981 1.492 . S
C989 H954 0.931 . S
C989 C967 1.420 . S
C989 C990 1.351 . S
C990 H952 0.930 . S
C990 C958 1.423 . S
C990 C989 1.351 . S
C991 O975 1.276 . S
C991 O978 1.235 . S
C992 C993 1.393 . S
C992 C996 1.395 . S
C992 C999 1.492 . S
C993 C992 1.393 . S
C993 C994 1.392 . S
C993 H1004 0.930 . S
C994 C993 1.392 . S
C994 C995 1.386 . S
C995 C994 1.386 . S
C995 C997 1.395 . S
C995 H1005 0.930 1_556 S
C996 C992 1.395 . S
C996 C997 1.379 . S
C996 H1006 0.930 . S
C997 C995 1.395 . S
C997 C996 1.379 . S
C997 H1007 0.930 . S
C998 O976 1.264 . S
C998 O977 1.254 . S
C999 Eu935 2.848 . S
C999 O974 1.257 . S
C999 O979 1.249 . S
C999 C992 1.492 . S
H1000 C983 0.930 . S
H1001 C984 0.930 . S
H1002 C985 0.930 . S
H1003 C986 0.930 . S
H1004 C993 0.930 . S
H1005 C995 0.930 1_554 S
H1006 C996 0.930 . S
H1007 C997 0.930 . S
Eu1008 N1039 2.657 . S
Eu1008 N1046 2.609 . S
Eu1008 O1052 2.558 . S
Eu1008 O1053 2.612 . S
Eu1008 O1055 2.339 . S
Eu1008 O1056 2.563 . S
Eu1008 O1057 2.419 . S
Eu1008 O1059 2.380 . S
Eu1008 O1060 2.432 . S
Eu1008 C1072 2.848 . S
C1009 C1012 1.429 . S
C1009 C1013 1.411 . S
C1009 N1016 1.377 . S
C1010 C1012 1.420 . S
C1010 C1014 1.423 . S
C1010 C1022 1.392 . S
C1011 C1013 1.420 . S
C1011 C1014 1.351 . S
C1011 H1034 0.931 . S
C1012 C1009 1.429 . S
C1012 C1010 1.420 . S
C1012 N1020 1.362 . S
C1013 C1009 1.411 . S
C1013 C1011 1.420 . S
C1013 C1018 1.395 . S
C1014 C1010 1.423 . S
C1014 C1011 1.351 . S
C1014 H1026 0.930 . S
C1015 C1017 1.400 . S
C1015 C1018 1.386 . S
C1015 H1027 0.930 . S
N1016 C1009 1.377 . S
N1016 C1017 1.321 . S
N1016 Eu1019 2.609 . S
C1017 C1015 1.400 . S
C1017 N1016 1.321 . S
C1017 H1024 0.930 . S
C1018 C1013 1.395 . S
C1018 C1015 1.386 . S
C1018 H1037 0.930 . S
Eu1019 N1016 2.609 . S
Eu1019 N1020 2.657 . S
Eu1019 O1053 2.380 . S
Eu1019 O1054 2.432 . S
Eu1019 O1058 2.558 . S
Eu1019 O1059 2.612 . S
Eu1019 O1061 2.339 . S
Eu1019 O1062 2.563 . S
Eu1019 O1063 2.419 . S
Eu1019 C1083 2.848 . S
N1020 C1012 1.362 . S
N1020 Eu1019 2.657 . S
N1020 C1021 1.334 . S
C1021 N1020 1.334 . S
C1021 C1023 1.413 . S
C1021 H1028 0.929 . S
C1022 C1010 1.392 . S
C1022 C1023 1.367 . S
C1022 H1030 0.930 . S
C1023 C1021 1.413 . S
C1023 C1022 1.367 . S
C1023 H1025 0.930 . S
H1024 C1017 0.930 . S
H1025 C1023 0.930 . S
H1026 C1014 0.930 . S
H1027 C1015 0.930 . S
H1028 C1021 0.929 . S
H1029 C1043 0.930 . S
H1030 C1022 0.930 . S
H1031 C1049 0.930 . S
H1032 C1040 0.929 . S
H1033 C1047 0.930 . S
H1034 C1011 0.931 . S
H1035 C1041 0.930 1_545 S
H1036 C1074 0.930 . S
H1037 C1018 0.930 . S
H1038 C1073 0.931 1_545 S
N1039 Eu1008 2.657 . S
N1039 C1040 1.334 . S
N1039 C1044 1.362 . S
C1040 H1032 0.929 . S
C1040 N1039 1.334 . S
C1040 C1043 1.413 . S
C1041 H1035 0.930 1_565 S
C1041 C1042 1.392 . S
C1041 C1043 1.367 . S
C1042 C1041 1.392 . S
C1042 C1044 1.420 . S
C1042 C1074 1.423 1_565 S
C1043 H1029 0.930 . S
C1043 C1040 1.413 . S
C1043 C1041 1.367 . S
C1044 N1039 1.362 . S
C1044 C1042 1.420 . S
C1044 C1048 1.429 . S
H1045 C1050 0.930 . S
N1046 Eu1008 2.609 . S
N1046 C1048 1.377 . S
N1046 C1049 1.321 . S
C1047 H1033 0.930 . S
C1047 C1049 1.400 . S
C1047 C1050 1.386 . S
C1048 C1044 1.429 . S
C1048 N1046 1.377 . S
C1048 C1051 1.411 . S
C1049 H1031 0.930 . S
C1049 N1046 1.321 . S
C1049 C1047 1.400 . S
C1050 H1045 0.930 . S
C1050 C1047 1.386 . S
C1050 C1051 1.395 . S
C1051 C1048 1.411 . S
C1051 C1050 1.395 . S
C1051 C1073 1.420 . S
O1052 Eu1008 2.558 . S
O1052 C1072 1.257 . S
O1053 Eu1008 2.612 . S
O1053 Eu1019 2.380 . S
O1053 C1064 1.276 . S
O1054 Eu1019 2.432 . S
O1054 C1071 1.264 . S
O1055 Eu1008 2.339 . S
O1055 C1071 1.254 . S
O1056 Eu1008 2.563 . S
O1056 C1064 1.235 . S
O1057 Eu1008 2.419 . S
O1057 C1072 1.249 . S
O1058 Eu1019 2.558 . S
O1058 C1083 1.257 . S
O1059 Eu1008 2.380 . S
O1059 Eu1019 2.612 . S
O1059 C1075 1.276 . S
O1060 Eu1008 2.432 . S
O1060 C1082 1.264 . S
O1061 Eu1019 2.339 . S
O1061 C1082 1.254 . S
O1062 Eu1019 2.563 . S
O1062 C1075 1.235 . S
O1063 Eu1019 2.419 . S
O1063 C1083 1.249 . S
C1064 O1053 1.276 . S
C1064 O1056 1.235 . S
C1065 C1067 1.393 . S
C1065 C1069 1.395 . S
C1065 C1072 1.492 . S
C1066 C1067 1.392 . S
C1066 C1068 1.386 . S
C1067 C1065 1.393 . S
C1067 C1066 1.392 . S
C1067 H1084 0.930 . S
C1068 C1066 1.386 . S
C1068 C1070 1.395 . S
C1068 H1085 0.930 . S
C1069 C1065 1.395 . S
C1069 C1070 1.379 . S
C1069 H1086 0.930 . S
C1070 C1068 1.395 . S
C1070 C1069 1.379 . S
C1070 H1087 0.930 . S
C1071 O1054 1.264 . S
C1071 O1055 1.254 . S
C1072 Eu1008 2.848 . S
C1072 O1052 1.257 . S
C1072 O1057 1.249 . S
C1072 C1065 1.492 . S
C1073 H1038 0.931 1_565 S
C1073 C1051 1.420 . S
C1073 C1074 1.351 1_565 S
C1074 H1036 0.930 . S
C1074 C1042 1.423 1_545 S
C1074 C1073 1.351 1_545 S
C1075 O1059 1.276 . S
C1075 O1062 1.235 . S
C1076 C1077 1.393 . S
C1076 C1080 1.395 . S
C1076 C1083 1.492 . S
C1077 C1076 1.393 . S
C1077 C1078 1.392 . S
C1077 H1088 0.930 . S
C1078 C1077 1.392 . S
C1078 C1079 1.386 . S
C1079 C1078 1.386 . S
C1079 C1081 1.395 . S
C1079 H1089 0.930 . S
C1080 C1076 1.395 . S
C1080 C1081 1.379 . S
C1080 H1090 0.930 . S
C1081 C1079 1.395 . S
C1081 C1080 1.379 . S
C1081 H1091 0.930 . S
C1082 O1060 1.264 . S
C1082 O1061 1.254 . S
C1083 Eu1019 2.848 . S
C1083 O1058 1.257 . S
C1083 O1063 1.249 . S
C1083 C1076 1.492 . S
H1084 C1067 0.930 . S
H1085 C1068 0.930 . S
H1086 C1069 0.930 . S
H1087 C1070 0.930 . S
H1088 C1077 0.930 . S
H1089 C1079 0.930 . S
H1090 C1080 0.930 . S
H1091 C1081 0.930 . S
Eu1092 N1123 2.657 . S
Eu1092 N1130 2.609 . S
Eu1092 O1136 2.558 . S
Eu1092 O1137 2.612 . S
Eu1092 O1139 2.339 . S
Eu1092 O1140 2.563 . S
Eu1092 O1141 2.419 . S
Eu1092 O1143 2.380 . S
Eu1092 O1144 2.432 1_565 S
Eu1092 C1156 2.848 . S
C1093 C1096 1.429 . S
C1093 C1097 1.411 . S
C1093 N1100 1.377 . S
C1094 C1096 1.420 . S
C1094 C1098 1.423 . S
C1094 C1106 1.392 1_565 S
C1095 C1097 1.420 . S
C1095 C1098 1.351 . S
C1095 H1118 0.931 . S
C1096 C1093 1.429 . S
C1096 C1094 1.420 . S
C1096 N1104 1.362 . S
C1097 C1093 1.411 . S
C1097 C1095 1.420 . S
C1097 C1102 1.395 . S
C1098 C1094 1.423 . S
C1098 C1095 1.351 . S
C1098 H1110 0.930 . S
C1099 C1101 1.400 . S
C1099 C1102 1.386 . S
C1099 H1111 0.930 . S
N1100 C1093 1.377 . S
N1100 C1101 1.321 . S
N1100 Eu1103 2.609 . S
C1101 C1099 1.400 . S
C1101 N1100 1.321 . S
C1101 H1108 0.930 . S
C1102 C1097 1.395 . S
C1102 C1099 1.386 . S
C1102 H1121 0.930 . S
Eu1103 N1100 2.609 . S
Eu1103 N1104 2.657 . S
Eu1103 O1137 2.380 . S
Eu1103 O1138 2.432 . S
Eu1103 O1142 2.558 . S
Eu1103 O1143 2.612 . S
Eu1103 O1145 2.339 . S
Eu1103 O1146 2.563 . S
Eu1103 O1147 2.419 . S
Eu1103 C1167 2.848 . S
N1104 C1096 1.362 . S
N1104 Eu1103 2.657 . S
N1104 C1105 1.334 1_565 S
C1105 N1104 1.334 1_545 S
C1105 C1107 1.413 . S
C1105 H1112 0.929 . S
C1106 C1094 1.392 1_545 S
C1106 C1107 1.367 . S
C1106 H1114 0.930 . S
C1107 C1105 1.413 . S
C1107 C1106 1.367 . S
C1107 H1109 0.930 . S
H1108 C1101 0.930 . S
H1109 C1107 0.930 . S
H1110 C1098 0.930 . S
H1111 C1099 0.930 . S
H1112 C1105 0.929 . S
H1113 C1127 0.930 . S
H1114 C1106 0.930 . S
H1115 C1133 0.930 . S
H1116 C1124 0.929 . S
H1117 C1131 0.930 . S
H1118 C1095 0.931 . S
H1119 C1125 0.930 1_655 S
H1120 C1158 0.930 . S
H1121 C1102 0.930 . S
H1122 C1157 0.931 1_655 S
N1123 Eu1092 2.657 . S
N1123 C1124 1.334 . S
N1123 C1128 1.362 . S
C1124 H1116 0.929 . S
C1124 N1123 1.334 . S
C1124 C1127 1.413 . S
C1125 H1119 0.930 1_455 S
C1125 C1126 1.392 . S
C1125 C1127 1.367 . S
C1126 C1125 1.392 . S
C1126 C1128 1.420 . S
C1126 C1158 1.423 1_455 S
C1127 H1113 0.930 . S
C1127 C1124 1.413 . S
C1127 C1125 1.367 . S
C1128 N1123 1.362 . S
C1128 C1126 1.420 . S
C1128 C1132 1.429 . S
H1129 C1134 0.930 . S
N1130 Eu1092 2.609 . S
N1130 C1132 1.377 . S
N1130 C1133 1.321 1_565 S
C1131 H1117 0.930 . S
C1131 C1133 1.400 . S
C1131 C1134 1.386 . S
C1132 C1128 1.429 . S
C1132 N1130 1.377 . S
C1132 C1135 1.411 . S
C1133 H1115 0.930 . S
C1133 N1130 1.321 1_545 S
C1133 C1131 1.400 . S
C1134 H1129 0.930 . S
C1134 C1131 1.386 . S
C1134 C1135 1.395 1_545 S
C1135 C1132 1.411 . S
C1135 C1134 1.395 1_565 S
C1135 C1157 1.420 . S
O1136 Eu1092 2.558 . S
O1136 C1156 1.257 . S
O1137 Eu1092 2.612 . S
O1137 Eu1103 2.380 . S
O1137 C1148 1.276 . S
O1138 Eu1103 2.432 . S
O1138 C1155 1.264 . S
O1139 Eu1092 2.339 . S
O1139 C1155 1.254 . S
O1140 Eu1092 2.563 . S
O1140 C1148 1.235 . S
O1141 Eu1092 2.419 . S
O1141 C1156 1.249 . S
O1142 Eu1103 2.558 . S
O1142 C1167 1.257 . S
O1143 Eu1092 2.380 . S
O1143 Eu1103 2.612 . S
O1143 C1159 1.276 . S
O1144 Eu1092 2.432 1_545 S
O1144 C1166 1.264 . S
O1145 Eu1103 2.339 . S
O1145 C1166 1.254 1_565 S
O1146 Eu1103 2.563 . S
O1146 C1159 1.235 . S
O1147 Eu1103 2.419 . S
O1147 C1167 1.249 . S
C1148 O1137 1.276 . S
C1148 O1140 1.235 . S
C1149 C1151 1.393 . S
C1149 C1153 1.395 . S
C1149 C1156 1.492 . S
C1150 C1151 1.392 . S
C1150 C1152 1.386 . S
C1151 C1149 1.393 . S
C1151 C1150 1.392 . S
C1151 H1168 0.930 . S
C1152 C1150 1.386 . S
C1152 C1154 1.395 . S
C1152 H1169 0.930 . S
C1153 C1149 1.395 . S
C1153 C1154 1.379 . S
C1153 H1170 0.930 . S
C1154 C1152 1.395 . S
C1154 C1153 1.379 . S
C1154 H1171 0.930 . S
C1155 O1138 1.264 . S
C1155 O1139 1.254 . S
C1156 Eu1092 2.848 . S
C1156 O1136 1.257 . S
C1156 O1141 1.249 . S
C1156 C1149 1.492 . S
C1157 H1122 0.931 1_455 S
C1157 C1135 1.420 . S
C1157 C1158 1.351 1_455 S
C1158 H1120 0.930 . S
C1158 C1126 1.423 1_655 S
C1158 C1157 1.351 1_655 S
C1159 O1143 1.276 . S
C1159 O1146 1.235 . S
C1160 C1161 1.393 . S
C1160 C1164 1.395 . S
C1160 C1167 1.492 . S
C1161 C1160 1.393 . S
C1161 C1162 1.392 . S
C1161 H1172 0.930 . S
C1162 C1161 1.392 . S
C1162 C1163 1.386 . S
C1163 C1162 1.386 . S
C1163 C1165 1.395 . S
C1163 H1173 0.930 . S
C1164 C1160 1.395 . S
C1164 C1165 1.379 . S
C1164 H1174 0.930 . S
C1165 C1163 1.395 . S
C1165 C1164 1.379 . S
C1165 H1175 0.930 . S
C1166 O1144 1.264 . S
C1166 O1145 1.254 1_545 S
C1167 Eu1103 2.848 . S
C1167 O1142 1.257 . S
C1167 O1147 1.249 . S
C1167 C1160 1.492 . S
H1168 C1151 0.930 . S
H1169 C1152 0.930 . S
H1170 C1153 0.930 . S
H1171 C1154 0.930 . S
H1172 C1161 0.930 . S
H1173 C1163 0.930 . S
H1174 C1164 0.930 . S
H1175 C1165 0.930 . S
Eu1176 N1207 2.657 . S
Eu1176 N1214 2.609 . S
Eu1176 O1220 2.558 . S
Eu1176 O1221 2.612 . S
Eu1176 O1223 2.339 . S
Eu1176 O1224 2.563 . S
Eu1176 O1225 2.419 . S
Eu1176 O1227 2.380 . S
Eu1176 O1228 2.432 1_455 S
Eu1176 C1240 2.848 . S
C1177 C1180 1.429 . S
C1177 C1181 1.411 . S
C1177 N1184 1.377 . S
C1178 C1180 1.420 . S
C1178 C1182 1.423 . S
C1178 C1190 1.392 1_455 S
C1179 C1181 1.420 . S
C1179 C1182 1.351 . S
C1179 H1202 0.931 . S
C1180 C1177 1.429 . S
C1180 C1178 1.420 . S
C1180 N1188 1.362 . S
C1181 C1177 1.411 . S
C1181 C1179 1.420 . S
C1181 C1186 1.395 . S
C1182 C1178 1.423 . S
C1182 C1179 1.351 . S
C1182 H1194 0.930 . S
C1183 C1185 1.400 . S
C1183 C1186 1.386 . S
C1183 H1195 0.930 . S
N1184 C1177 1.377 . S
N1184 C1185 1.321 . S
N1184 Eu1187 2.609 . S
C1185 C1183 1.400 . S
C1185 N1184 1.321 . S
C1185 H1192 0.930 . S
C1186 C1181 1.395 . S
C1186 C1183 1.386 . S
C1186 H1205 0.930 . S
Eu1187 N1184 2.609 . S
Eu1187 N1188 2.657 . S
Eu1187 O1221 2.380 . S
Eu1187 O1222 2.432 . S
Eu1187 O1226 2.558 . S
Eu1187 O1227 2.612 . S
Eu1187 O1229 2.339 . S
Eu1187 O1230 2.563 . S
Eu1187 O1231 2.419 . S
Eu1187 C1251 2.848 . S
N1188 C1180 1.362 . S
N1188 Eu1187 2.657 . S
N1188 C1189 1.334 1_455 S
C1189 N1188 1.334 1_655 S
C1189 C1191 1.413 . S
C1189 H1196 0.929 . S
C1190 C1178 1.392 1_655 S
C1190 C1191 1.367 . S
C1190 H1198 0.930 . S
C1191 C1189 1.413 . S
C1191 C1190 1.367 . S
C1191 H1193 0.930 . S
H1192 C1185 0.930 . S
H1193 C1191 0.930 . S
H1194 C1182 0.930 . S
H1195 C1183 0.930 . S
H1196 C1189 0.929 . S
H1197 C1211 0.930 . S
H1198 C1190 0.930 . S
H1199 C1217 0.930 . S
H1200 C1208 0.929 . S
H1201 C1215 0.930 . S
H1202 C1179 0.931 . S
H1203 C1209 0.930 . S
H1204 C1242 0.930 . S
H1205 C1186 0.930 . S
H1206 C1241 0.931 . S
N1207 Eu1176 2.657 . S
N1207 C1208 1.334 . S
N1207 C1212 1.362 . S
C1208 H1200 0.929 . S
C1208 N1207 1.334 . S
C1208 C1211 1.413 . S
C1209 H1203 0.930 . S
C1209 C1210 1.392 . S
C1209 C1211 1.367 . S
C1210 C1209 1.392 . S
C1210 C1212 1.420 . S
C1210 C1242 1.423 . S
C1211 H1197 0.930 . S
C1211 C1208 1.413 . S
C1211 C1209 1.367 . S
C1212 N1207 1.362 . S
C1212 C1210 1.420 . S
C1212 C1216 1.429 . S
H1213 C1218 0.930 . S
N1214 Eu1176 2.609 . S
N1214 C1216 1.377 . S
N1214 C1217 1.321 1_455 S
C1215 H1201 0.930 . S
C1215 C1217 1.400 . S
C1215 C1218 1.386 . S
C1216 C1212 1.429 . S
C1216 N1214 1.377 . S
C1216 C1219 1.411 . S
C1217 H1199 0.930 . S
C1217 N1214 1.321 1_655 S
C1217 C1215 1.400 . S
C1218 H1213 0.930 . S
C1218 C1215 1.386 . S
C1218 C1219 1.395 1_655 S
C1219 C1216 1.411 . S
C1219 C1218 1.395 1_455 S
C1219 C1241 1.420 . S
O1220 Eu1176 2.558 . S
O1220 C1240 1.257 . S
O1221 Eu1176 2.612 . S
O1221 Eu1187 2.380 . S
O1221 C1232 1.276 . S
O1222 Eu1187 2.432 . S
O1222 C1239 1.264 . S
O1223 Eu1176 2.339 . S
O1223 C1239 1.254 . S
O1224 Eu1176 2.563 . S
O1224 C1232 1.235 . S
O1225 Eu1176 2.419 . S
O1225 C1240 1.249 . S
O1226 Eu1187 2.558 . S
O1226 C1251 1.257 . S
O1227 Eu1176 2.380 . S
O1227 Eu1187 2.612 . S
O1227 C1243 1.276 . S
O1228 Eu1176 2.432 1_655 S
O1228 C1250 1.264 . S
O1229 Eu1187 2.339 . S
O1229 C1250 1.254 1_455 S
O1230 Eu1187 2.563 . S
O1230 C1243 1.235 . S
O1231 Eu1187 2.419 . S
O1231 C1251 1.249 . S
C1232 O1221 1.276 . S
C1232 O1224 1.235 . S
C1233 C1235 1.393 . S
C1233 C1237 1.395 . S
C1233 C1240 1.492 . S
C1234 C1235 1.392 . S
C1234 C1236 1.386 . S
C1235 C1233 1.393 . S
C1235 C1234 1.392 . S
C1235 H1252 0.930 . S
C1236 C1234 1.386 . S
C1236 C1238 1.395 . S
C1236 H1253 0.930 . S
C1237 C1233 1.395 . S
C1237 C1238 1.379 . S
C1237 H1254 0.930 . S
C1238 C1236 1.395 . S
C1238 C1237 1.379 . S
C1238 H1255 0.930 . S
C1239 O1222 1.264 . S
C1239 O1223 1.254 . S
C1240 Eu1176 2.848 . S
C1240 O1220 1.257 . S
C1240 O1225 1.249 . S
C1240 C1233 1.492 . S
C1241 H1206 0.931 . S
C1241 C1219 1.420 . S
C1241 C1242 1.351 . S
C1242 H1204 0.930 . S
C1242 C1210 1.423 . S
C1242 C1241 1.351 . S
C1243 O1227 1.276 . S
C1243 O1230 1.235 . S
C1244 C1245 1.393 . S
C1244 C1248 1.395 . S
C1244 C1251 1.492 . S
C1245 C1244 1.393 . S
C1245 C1246 1.392 . S
C1245 H1256 0.930 . S
C1246 C1245 1.392 . S
C1246 C1247 1.386 . S
C1247 C1246 1.386 . S
C1247 C1249 1.395 . S
C1247 H1257 0.930 . S
C1248 C1244 1.395 . S
C1248 C1249 1.379 . S
C1248 H1258 0.930 . S
C1249 C1247 1.395 . S
C1249 C1248 1.379 . S
C1249 H1259 0.930 . S
C1250 O1228 1.264 . S
C1250 O1229 1.254 1_655 S
C1251 Eu1187 2.848 . S
C1251 O1226 1.257 . S
C1251 O1231 1.249 . S
C1251 C1244 1.492 . S
H1252 C1235 0.930 . S
H1253 C1236 0.930 . S
H1254 C1237 0.930 . S
H1255 C1238 0.930 . S
H1256 C1245 0.930 . S
H1257 C1247 0.930 . S
H1258 C1248 0.930 . S
H1259 C1249 0.930 . S
Eu1260 N1291 2.657 . S
Eu1260 N1298 2.609 . S
Eu1260 O1304 2.558 . S
Eu1260 O1305 2.612 . S
Eu1260 O1307 2.339 . S
Eu1260 O1308 2.563 . S
Eu1260 O1309 2.419 . S
Eu1260 O1311 2.380 . S
Eu1260 O1312 2.432 . S
Eu1260 C1324 2.848 . S
C1261 C1264 1.429 1_455 S
C1261 C1265 1.411 1_455 S
C1261 N1268 1.377 . S
C1262 C1264 1.420 . S
C1262 C1266 1.423 . S
C1262 C1274 1.392 . S
C1263 C1265 1.420 . S
C1263 C1266 1.351 . S
C1263 H1286 0.931 . S
C1264 C1261 1.429 1_655 S
C1264 C1262 1.420 . S
C1264 N1272 1.362 1_655 S
C1265 C1261 1.411 1_655 S
C1265 C1263 1.420 . S
C1265 C1270 1.395 1_655 S
C1266 C1262 1.423 . S
C1266 C1263 1.351 . S
C1266 H1278 0.930 . S
C1267 C1269 1.400 . S
C1267 C1270 1.386 . S
C1267 H1279 0.930 . S
N1268 C1261 1.377 . S
N1268 C1269 1.321 . S
N1268 Eu1271 2.609 . S
C1269 C1267 1.400 . S
C1269 N1268 1.321 . S
C1269 H1276 0.930 . S
C1270 C1265 1.395 1_455 S
C1270 C1267 1.386 . S
C1270 H1289 0.930 1_455 S
Eu1271 N1268 2.609 . S
Eu1271 N1272 2.657 . S
Eu1271 O1305 2.380 . S
Eu1271 O1306 2.432 . S
Eu1271 O1310 2.558 . S
Eu1271 O1311 2.612 . S
Eu1271 O1313 2.339 . S
Eu1271 O1314 2.563 . S
Eu1271 O1315 2.419 . S
Eu1271 C1335 2.848 1_556 S
N1272 C1264 1.362 1_455 S
N1272 Eu1271 2.657 . S
N1272 C1273 1.334 . S
C1273 N1272 1.334 . S
C1273 C1275 1.413 1_455 S
C1273 H1280 0.929 . S
C1274 C1262 1.392 . S
C1274 C1275 1.367 . S
C1274 H1282 0.930 . S
C1275 C1273 1.413 1_655 S
C1275 C1274 1.367 . S
C1275 H1277 0.930 . S
H1276 C1269 0.930 . S
H1277 C1275 0.930 . S
H1278 C1266 0.930 . S
H1279 C1267 0.930 . S
H1280 C1273 0.929 . S
H1281 C1295 0.930 . S
H1282 C1274 0.930 . S
H1283 C1301 0.930 . S
H1284 C1292 0.929 . S
H1285 C1299 0.930 . S
H1286 C1263 0.931 . S
H1287 C1293 0.930 . S
H1288 C1326 0.930 . S
H1289 C1270 0.930 1_655 S
H1290 C1325 0.931 . S
N1291 Eu1260 2.657 . S
N1291 C1292 1.334 . S
N1291 C1296 1.362 . S
C1292 H1284 0.929 . S
C1292 N1291 1.334 . S
C1292 C1295 1.413 . S
C1293 H1287 0.930 . S
C1293 C1294 1.392 . S
C1293 C1295 1.367 . S
C1294 C1293 1.392 . S
C1294 C1296 1.420 . S
C1294 C1326 1.423 . S
C1295 H1281 0.930 . S
C1295 C1292 1.413 . S
C1295 C1293 1.367 . S
C1296 N1291 1.362 . S
C1296 C1294 1.420 . S
C1296 C1300 1.429 . S
H1297 C1302 0.930 . S
N1298 Eu1260 2.609 . S
N1298 C1300 1.377 . S
N1298 C1301 1.321 . S
C1299 H1285 0.930 . S
C1299 C1301 1.400 . S
C1299 C1302 1.386 . S
C1300 C1296 1.429 . S
C1300 N1298 1.377 . S
C1300 C1303 1.411 . S
C1301 H1283 0.930 . S
C1301 N1298 1.321 . S
C1301 C1299 1.400 . S
C1302 H1297 0.930 . S
C1302 C1299 1.386 . S
C1302 C1303 1.395 . S
C1303 C1300 1.411 . S
C1303 C1302 1.395 . S
C1303 C1325 1.420 . S
O1304 Eu1260 2.558 . S
O1304 C1324 1.257 . S
O1305 Eu1260 2.612 . S
O1305 Eu1271 2.380 . S
O1305 C1316 1.276 . S
O1306 Eu1271 2.432 . S
O1306 C1323 1.264 . S
O1307 Eu1260 2.339 . S
O1307 C1323 1.254 . S
O1308 Eu1260 2.563 . S
O1308 C1316 1.235 . S
O1309 Eu1260 2.419 . S
O1309 C1324 1.249 . S
O1310 Eu1271 2.558 . S
O1310 C1335 1.257 1_556 S
O1311 Eu1260 2.380 . S
O1311 Eu1271 2.612 . S
O1311 C1327 1.276 . S
O1312 Eu1260 2.432 . S
O1312 C1334 1.264 . S
O1313 Eu1271 2.339 . S
O1313 C1334 1.254 . S
O1314 Eu1271 2.563 . S
O1314 C1327 1.235 . S
O1315 Eu1271 2.419 . S
O1315 C1335 1.249 1_556 S
C1316 O1305 1.276 . S
C1316 O1308 1.235 . S
C1317 C1319 1.393 . S
C1317 C1321 1.395 . S
C1317 C1324 1.492 . S
C1318 C1319 1.392 . S
C1318 C1320 1.386 . S
C1319 C1317 1.393 . S
C1319 C1318 1.392 . S
C1319 H1336 0.930 . S
C1320 C1318 1.386 . S
C1320 C1322 1.395 . S
C1320 H1337 0.930 . S
C1321 C1317 1.395 . S
C1321 C1322 1.379 . S
C1321 H1338 0.930 . S
C1322 C1320 1.395 . S
C1322 C1321 1.379 . S
C1322 H1339 0.930 . S
C1323 O1306 1.264 . S
C1323 O1307 1.254 . S
C1324 Eu1260 2.848 . S
C1324 O1304 1.257 . S
C1324 O1309 1.249 . S
C1324 C1317 1.492 . S
C1325 H1290 0.931 . S
C1325 C1303 1.420 . S
C1325 C1326 1.351 . S
C1326 H1288 0.930 . S
C1326 C1294 1.423 . S
C1326 C1325 1.351 . S
C1327 O1311 1.276 . S
C1327 O1314 1.235 . S
C1328 C1329 1.393 . S
C1328 C1332 1.395 . S
C1328 C1335 1.492 . S
C1329 C1328 1.393 . S
C1329 C1330 1.392 . S
C1329 H1340 0.930 . S
C1330 C1329 1.392 . S
C1330 C1331 1.389 1_455 S
C1331 C1330 1.389 1_655 S
C1331 C1333 1.389 1_655 S
C1331 H1341 0.933 . S
C1332 C1328 1.395 . S
C1332 C1333 1.379 . S
C1332 H1342 0.930 . S
C1333 C1331 1.389 1_455 S
C1333 C1332 1.379 . S
C1333 H1343 0.930 1_455 S
C1334 O1312 1.264 . S
C1334 O1313 1.254 . S
C1335 Eu1271 2.848 1_554 S
C1335 O1310 1.257 1_554 S
C1335 O1315 1.249 1_554 S
C1335 C1328 1.492 . S
H1336 C1319 0.930 . S
H1337 C1320 0.930 . S
H1338 C1321 0.930 . S
H1339 C1322 0.930 . S
H1340 C1329 0.930 . S
H1341 C1331 0.933 . S
H1342 C1332 0.930 . S
H1343 C1333 0.930 1_655 S
Eu1344 N1375 2.657 . S
Eu1344 N1382 2.609 . S
Eu1344 O1388 2.558 . S
Eu1344 O1389 2.612 . S
Eu1344 O1391 2.339 . S
Eu1344 O1392 2.563 . S
Eu1344 O1393 2.419 . S
Eu1344 O1395 2.380 . S
Eu1344 O1396 2.432 . S
Eu1344 C1408 2.848 . S
C1345 C1348 1.429 . S
C1345 C1349 1.411 . S
C1345 N1352 1.377 . S
C1346 C1348 1.420 . S
C1346 C1350 1.423 . S
C1346 C1358 1.392 . S
C1347 C1349 1.420 . S
C1347 C1350 1.351 . S
C1347 H1370 0.931 . S
C1348 C1345 1.429 . S
C1348 C1346 1.420 . S
C1348 N1356 1.362 . S
C1349 C1345 1.411 . S
C1349 C1347 1.420 . S
C1349 C1354 1.395 . S
C1350 C1346 1.423 . S
C1350 C1347 1.351 . S
C1350 H1362 0.930 . S
C1351 C1353 1.400 . S
C1351 C1354 1.386 . S
C1351 H1363 0.930 . S
N1352 C1345 1.377 . S
N1352 C1353 1.321 . S
N1352 Eu1355 2.609 . S
C1353 C1351 1.400 . S
C1353 N1352 1.321 . S
C1353 H1360 0.930 . S
C1354 C1349 1.395 . S
C1354 C1351 1.386 . S
C1354 H1373 0.930 . S
Eu1355 N1352 2.609 . S
Eu1355 N1356 2.657 . S
Eu1355 O1389 2.380 . S
Eu1355 O1390 2.432 . S
Eu1355 O1394 2.558 . S
Eu1355 O1395 2.612 . S
Eu1355 O1397 2.339 . S
Eu1355 O1398 2.563 . S
Eu1355 O1399 2.419 . S
Eu1355 C1419 2.848 1_556 S
N1356 C1348 1.362 . S
N1356 Eu1355 2.657 . S
N1356 C1357 1.334 . S
C1357 N1356 1.334 . S
C1357 C1359 1.413 . S
C1357 H1364 0.929 . S
C1358 C1346 1.392 . S
C1358 C1359 1.367 . S
C1358 H1366 0.930 . S
C1359 C1357 1.413 . S
C1359 C1358 1.367 . S
C1359 H1361 0.930 . S
H1360 C1353 0.930 . S
H1361 C1359 0.930 . S
H1362 C1350 0.930 . S
H1363 C1351 0.930 . S
H1364 C1357 0.929 . S
H1365 C1379 0.930 . S
H1366 C1358 0.930 . S
H1367 C1385 0.930 . S
H1368 C1376 0.929 . S
H1369 C1383 0.930 . S
H1370 C1347 0.931 . S
H1371 C1377 0.930 . S
H1372 C1410 0.930 . S
H1373 C1354 0.930 . S
H1374 C1409 0.931 . S
N1375 Eu1344 2.657 . S
N1375 C1376 1.334 . S
N1375 C1380 1.362 . S
C1376 H1368 0.929 . S
C1376 N1375 1.334 . S
C1376 C1379 1.413 . S
C1377 H1371 0.930 . S
C1377 C1378 1.392 . S
C1377 C1379 1.367 . S
C1378 C1377 1.392 . S
C1378 C1380 1.420 . S
C1378 C1410 1.423 . S
C1379 H1365 0.930 . S
C1379 C1376 1.413 . S
C1379 C1377 1.367 . S
C1380 N1375 1.362 . S
C1380 C1378 1.420 . S
C1380 C1384 1.429 . S
H1381 C1386 0.930 . S
N1382 Eu1344 2.609 . S
N1382 C1384 1.377 . S
N1382 C1385 1.321 . S
C1383 H1369 0.930 . S
C1383 C1385 1.400 . S
C1383 C1386 1.386 . S
C1384 C1380 1.429 . S
C1384 N1382 1.377 . S
C1384 C1387 1.411 . S
C1385 H1367 0.930 . S
C1385 N1382 1.321 . S
C1385 C1383 1.400 . S
C1386 H1381 0.930 . S
C1386 C1383 1.386 . S
C1386 C1387 1.395 . S
C1387 C1384 1.411 . S
C1387 C1386 1.395 . S
C1387 C1409 1.420 . S
O1388 Eu1344 2.558 . S
O1388 C1408 1.257 . S
O1389 Eu1344 2.612 . S
O1389 Eu1355 2.380 . S
O1389 C1400 1.276 . S
O1390 Eu1355 2.432 . S
O1390 C1407 1.264 . S
O1391 Eu1344 2.339 . S
O1391 C1407 1.254 . S
O1392 Eu1344 2.563 . S
O1392 C1400 1.235 . S
O1393 Eu1344 2.419 . S
O1393 C1408 1.249 . S
O1394 Eu1355 2.558 . S
O1394 C1419 1.257 1_556 S
O1395 Eu1344 2.380 . S
O1395 Eu1355 2.612 . S
O1395 C1411 1.276 . S
O1396 Eu1344 2.432 . S
O1396 C1418 1.264 . S
O1397 Eu1355 2.339 . S
O1397 C1418 1.254 . S
O1398 Eu1355 2.563 . S
O1398 C1411 1.235 . S
O1399 Eu1355 2.419 . S
O1399 C1419 1.249 1_556 S
C1400 O1389 1.276 . S
C1400 O1392 1.235 . S
C1401 C1403 1.393 . S
C1401 C1405 1.395 . S
C1401 C1408 1.492 . S
C1402 C1403 1.392 . S
C1402 C1404 1.386 . S
C1403 C1401 1.393 . S
C1403 C1402 1.392 . S
C1403 H1420 0.930 . S
C1404 C1402 1.386 . S
C1404 C1406 1.395 . S
C1404 H1421 0.930 . S
C1405 C1401 1.395 . S
C1405 C1406 1.379 . S
C1405 H1422 0.930 . S
C1406 C1404 1.395 . S
C1406 C1405 1.379 . S
C1406 H1423 0.930 . S
C1407 O1390 1.264 . S
C1407 O1391 1.254 . S
C1408 Eu1344 2.848 . S
C1408 O1388 1.257 . S
C1408 O1393 1.249 . S
C1408 C1401 1.492 . S
C1409 H1374 0.931 . S
C1409 C1387 1.420 . S
C1409 C1410 1.351 . S
C1410 H1372 0.930 . S
C1410 C1378 1.423 . S
C1410 C1409 1.351 . S
C1411 O1395 1.276 . S
C1411 O1398 1.235 . S
C1412 C1413 1.393 . S
C1412 C1416 1.395 . S
C1412 C1419 1.492 . S
C1413 C1412 1.393 . S
C1413 C1414 1.392 . S
C1413 H1424 0.930 . S
C1414 C1413 1.392 . S
C1414 C1415 1.386 . S
C1415 C1414 1.386 . S
C1415 C1417 1.395 . S
C1415 H1425 0.930 . S
C1416 C1412 1.395 . S
C1416 C1417 1.379 . S
C1416 H1426 0.930 . S
C1417 C1415 1.395 . S
C1417 C1416 1.379 . S
C1417 H1427 0.930 . S
C1418 O1396 1.264 . S
C1418 O1397 1.254 . S
C1419 Eu1355 2.848 1_554 S
C1419 O1394 1.257 1_554 S
C1419 O1399 1.249 1_554 S
C1419 C1412 1.492 . S
H1420 C1403 0.930 . S
H1421 C1404 0.930 . S
H1422 C1405 0.930 . S
H1423 C1406 0.930 . S
H1424 C1413 0.930 . S
H1425 C1415 0.930 . S
H1426 C1416 0.930 . S
H1427 C1417 0.930 . S
Eu1428 N1459 2.657 . S
Eu1428 N1466 2.609 . S
Eu1428 O1472 2.558 . S
Eu1428 O1473 2.612 . S
Eu1428 O1475 2.339 . S
Eu1428 O1476 2.563 . S
Eu1428 O1477 2.419 . S
Eu1428 O1479 2.380 . S
Eu1428 O1480 2.432 . S
Eu1428 C1492 2.848 . S
C1429 C1432 1.429 1_565 S
C1429 C1433 1.411 1_565 S
C1429 N1436 1.377 . S
C1430 C1432 1.420 . S
C1430 C1434 1.423 . S
C1430 C1442 1.392 . S
C1431 C1433 1.420 . S
C1431 C1434 1.351 . S
C1431 H1454 0.931 . S
C1432 C1429 1.429 1_545 S
C1432 C1430 1.420 . S
C1432 N1440 1.362 1_545 S
C1433 C1429 1.411 1_545 S
C1433 C1431 1.420 . S
C1433 C1438 1.395 1_545 S
C1434 C1430 1.423 . S
C1434 C1431 1.351 . S
C1434 H1446 0.930 . S
C1435 C1437 1.400 . S
C1435 C1438 1.386 . S
C1435 H1447 0.930 . S
N1436 C1429 1.377 . S
N1436 C1437 1.321 . S
N1436 Eu1439 2.609 . S
C1437 C1435 1.400 . S
C1437 N1436 1.321 . S
C1437 H1444 0.930 . S
C1438 C1433 1.395 1_565 S
C1438 C1435 1.386 . S
C1438 H1457 0.930 1_565 S
Eu1439 N1436 2.609 . S
Eu1439 N1440 2.657 . S
Eu1439 O1473 2.380 . S
Eu1439 O1474 2.432 . S
Eu1439 O1478 2.558 . S
Eu1439 O1479 2.612 . S
Eu1439 O1481 2.339 . S
Eu1439 O1482 2.563 . S
Eu1439 O1483 2.419 . S
Eu1439 C1503 2.848 1_556 S
N1440 C1432 1.362 1_565 S
N1440 Eu1439 2.657 . S
N1440 C1441 1.334 . S
C1441 N1440 1.334 . S
C1441 C1443 1.413 1_565 S
C1441 H1448 0.929 . S
C1442 C1430 1.392 . S
C1442 C1443 1.367 . S
C1442 H1450 0.930 . S
C1443 C1441 1.413 1_545 S
C1443 C1442 1.367 . S
C1443 H1445 0.930 . S
H1444 C1437 0.930 . S
H1445 C1443 0.930 . S
H1446 C1434 0.930 . S
H1447 C1435 0.930 . S
H1448 C1441 0.929 . S
H1449 C1463 0.930 . S
H1450 C1442 0.930 . S
H1451 C1469 0.930 . S
H1452 C1460 0.929 . S
H1453 C1467 0.930 . S
H1454 C1431 0.931 . S
H1455 C1461 0.930 . S
H1456 C1494 0.930 . S
H1457 C1438 0.930 1_545 S
H1458 C1493 0.931 . S
N1459 Eu1428 2.657 . S
N1459 C1460 1.334 . S
N1459 C1464 1.362 . S
C1460 H1452 0.929 . S
C1460 N1459 1.334 . S
C1460 C1463 1.413 . S
C1461 H1455 0.930 . S
C1461 C1462 1.392 . S
C1461 C1463 1.367 . S
C1462 C1461 1.392 . S
C1462 C1464 1.420 . S
C1462 C1494 1.423 . S
C1463 H1449 0.930 . S
C1463 C1460 1.413 . S
C1463 C1461 1.367 . S
C1464 N1459 1.362 . S
C1464 C1462 1.420 . S
C1464 C1468 1.429 . S
H1465 C1470 0.930 . S
N1466 Eu1428 2.609 . S
N1466 C1468 1.377 . S
N1466 C1469 1.321 . S
C1467 H1453 0.930 . S
C1467 C1469 1.400 . S
C1467 C1470 1.386 . S
C1468 C1464 1.429 . S
C1468 N1466 1.377 . S
C1468 C1471 1.411 . S
C1469 H1451 0.930 . S
C1469 N1466 1.321 . S
C1469 C1467 1.400 . S
C1470 H1465 0.930 . S
C1470 C1467 1.386 . S
C1470 C1471 1.395 . S
C1471 C1468 1.411 . S
C1471 C1470 1.395 . S
C1471 C1493 1.420 . S
O1472 Eu1428 2.558 . S
O1472 C1492 1.257 . S
O1473 Eu1428 2.612 . S
O1473 Eu1439 2.380 . S
O1473 C1484 1.276 . S
O1474 Eu1439 2.432 . S
O1474 C1491 1.264 . S
O1475 Eu1428 2.339 . S
O1475 C1491 1.254 . S
O1476 Eu1428 2.563 . S
O1476 C1484 1.235 . S
O1477 Eu1428 2.419 . S
O1477 C1492 1.249 . S
O1478 Eu1439 2.558 . S
O1478 C1503 1.257 1_556 S
O1479 Eu1428 2.380 . S
O1479 Eu1439 2.612 . S
O1479 C1495 1.276 . S
O1480 Eu1428 2.432 . S
O1480 C1502 1.264 . S
O1481 Eu1439 2.339 . S
O1481 C1502 1.254 . S
O1482 Eu1439 2.563 . S
O1482 C1495 1.235 . S
O1483 Eu1439 2.419 . S
O1483 C1503 1.249 1_556 S
C1484 O1473 1.276 . S
C1484 O1476 1.235 . S
C1485 C1487 1.393 . S
C1485 C1489 1.395 . S
C1485 C1492 1.492 . S
C1486 C1487 1.392 . S
C1486 C1488 1.386 . S
C1487 C1485 1.393 . S
C1487 C1486 1.392 . S
C1487 H1504 0.930 . S
C1488 C1486 1.386 . S
C1488 C1490 1.395 . S
C1488 H1505 0.930 . S
C1489 C1485 1.395 . S
C1489 C1490 1.379 . S
C1489 H1506 0.930 . S
C1490 C1488 1.395 . S
C1490 C1489 1.379 . S
C1490 H1507 0.930 . S
C1491 O1474 1.264 . S
C1491 O1475 1.254 . S
C1492 Eu1428 2.848 . S
C1492 O1472 1.257 . S
C1492 O1477 1.249 . S
C1492 C1485 1.492 . S
C1493 H1458 0.931 . S
C1493 C1471 1.420 . S
C1493 C1494 1.351 . S
C1494 H1456 0.930 . S
C1494 C1462 1.423 . S
C1494 C1493 1.351 . S
C1495 O1479 1.276 . S
C1495 O1482 1.235 . S
C1496 C1497 1.393 . S
C1496 C1500 1.395 . S
C1496 C1503 1.492 . S
C1497 C1496 1.393 . S
C1497 C1498 1.392 . S
C1497 H1508 0.930 . S
C1498 C1497 1.392 . S
C1498 C1499 1.380 1_565 S
C1499 C1498 1.380 1_545 S
C1499 C1501 1.397 1_545 S
C1499 H1509 0.934 . S
C1500 C1496 1.395 . S
C1500 C1501 1.379 . S
C1500 H1510 0.930 . S
C1501 C1499 1.397 1_565 S
C1501 C1500 1.379 . S
C1501 H1511 0.930 1_565 S
C1502 O1480 1.264 . S
C1502 O1481 1.254 . S
C1503 Eu1439 2.848 1_554 S
C1503 O1478 1.257 1_554 S
C1503 O1483 1.249 1_554 S
C1503 C1496 1.492 . S
H1504 C1487 0.930 . S
H1505 C1488 0.930 . S
H1506 C1489 0.930 . S
H1507 C1490 0.930 . S
H1508 C1497 0.930 . S
H1509 C1499 0.934 . S
H1510 C1500 0.930 . S
H1511 C1501 0.930 1_545 S
Eu1512 N1543 2.657 . S
Eu1512 N1550 2.609 . S
Eu1512 O1556 2.558 . S
Eu1512 O1557 2.612 . S
Eu1512 O1559 2.339 . S
Eu1512 O1560 2.563 . S
Eu1512 O1561 2.419 . S
Eu1512 O1563 2.380 . S
Eu1512 O1564 2.432 . S
Eu1512 C1576 2.848 . S
C1513 C1516 1.429 . S
C1513 C1517 1.411 . S
C1513 N1520 1.377 . S
C1514 C1516 1.420 . S
C1514 C1518 1.423 . S
C1514 C1526 1.392 . S
C1515 C1517 1.420 . S
C1515 C1518 1.351 . S
C1515 H1538 0.931 . S
C1516 C1513 1.429 . S
C1516 C1514 1.420 . S
C1516 N1524 1.362 . S
C1517 C1513 1.411 . S
C1517 C1515 1.420 . S
C1517 C1522 1.395 . S
C1518 C1514 1.423 . S
C1518 C1515 1.351 . S
C1518 H1530 0.930 . S
C1519 C1521 1.400 . S
C1519 C1522 1.386 . S
C1519 H1531 0.930 . S
N1520 C1513 1.377 . S
N1520 C1521 1.321 . S
N1520 Eu1523 2.609 . S
C1521 C1519 1.400 . S
C1521 N1520 1.321 . S
C1521 H1528 0.930 . S
C1522 C1517 1.395 . S
C1522 C1519 1.386 . S
C1522 H1541 0.930 . S
Eu1523 N1520 2.609 . S
Eu1523 N1524 2.657 . S
Eu1523 O1557 2.380 . S
Eu1523 O1558 2.432 . S
Eu1523 O1562 2.558 . S
Eu1523 O1563 2.612 . S
Eu1523 O1565 2.339 . S
Eu1523 O1566 2.563 . S
Eu1523 O1567 2.419 . S
Eu1523 C1587 2.848 . S
N1524 C1516 1.362 . S
N1524 Eu1523 2.657 . S
N1524 C1525 1.334 . S
C1525 N1524 1.334 . S
C1525 C1527 1.413 . S
C1525 H1532 0.929 . S
C1526 C1514 1.392 . S
C1526 C1527 1.367 . S
C1526 H1534 0.930 . S
C1527 C1525 1.413 . S
C1527 C1526 1.367 . S
C1527 H1529 0.930 . S
H1528 C1521 0.930 . S
H1529 C1527 0.930 . S
H1530 C1518 0.930 . S
H1531 C1519 0.930 . S
H1532 C1525 0.929 . S
H1533 C1547 0.930 . S
H1534 C1526 0.930 . S
H1535 C1553 0.930 . S
H1536 C1544 0.929 . S
H1537 C1551 0.930 . S
H1538 C1515 0.931 . S
H1539 C1545 0.930 . S
H1540 C1578 0.930 . S
H1541 C1522 0.930 . S
H1542 C1577 0.931 . S
N1543 Eu1512 2.657 . S
N1543 C1544 1.334 . S
N1543 C1548 1.362 1_565 S
C1544 H1536 0.929 . S
C1544 N1543 1.334 . S
C1544 C1547 1.413 1_565 S
C1545 H1539 0.930 . S
C1545 C1546 1.392 . S
C1545 C1547 1.367 . S
C1546 C1545 1.392 . S
C1546 C1548 1.420 . S
C1546 C1578 1.423 . S
C1547 H1533 0.930 . S
C1547 C1544 1.413 1_545 S
C1547 C1545 1.367 . S
C1548 N1543 1.362 1_545 S
C1548 C1546 1.420 . S
C1548 C1552 1.429 1_545 S
H1549 C1554 0.930 1_545 S
N1550 Eu1512 2.609 . S
N1550 C1552 1.377 . S
N1550 C1553 1.321 . S
C1551 H1537 0.930 . S
C1551 C1553 1.400 . S
C1551 C1554 1.386 . S
C1552 C1548 1.429 1_565 S
C1552 N1550 1.377 . S
C1552 C1555 1.411 1_565 S
C1553 H1535 0.930 . S
C1553 N1550 1.321 . S
C1553 C1551 1.400 . S
C1554 H1549 0.930 1_565 S
C1554 C1551 1.386 . S
C1554 C1555 1.395 1_565 S
C1555 C1552 1.411 1_545 S
C1555 C1554 1.395 1_545 S
C1555 C1577 1.420 . S
O1556 Eu1512 2.558 . S
O1556 C1576 1.257 . S
O1557 Eu1512 2.612 . S
O1557 Eu1523 2.380 . S
O1557 C1568 1.276 . S
O1558 Eu1523 2.432 . S
O1558 C1575 1.264 . S
O1559 Eu1512 2.339 . S
O1559 C1575 1.254 . S
O1560 Eu1512 2.563 . S
O1560 C1568 1.235 . S
O1561 Eu1512 2.419 . S
O1561 C1576 1.249 . S
O1562 Eu1523 2.558 . S
O1562 C1587 1.257 . S
O1563 Eu1512 2.380 . S
O1563 Eu1523 2.612 . S
O1563 C1579 1.276 . S
O1564 Eu1512 2.432 . S
O1564 C1586 1.264 . S
O1565 Eu1523 2.339 . S
O1565 C1586 1.254 . S
O1566 Eu1523 2.563 . S
O1566 C1579 1.235 . S
O1567 Eu1523 2.419 . S
O1567 C1587 1.249 . S
C1568 O1557 1.276 . S
C1568 O1560 1.235 . S
C1569 C1571 1.393 . S
C1569 C1573 1.395 . S
C1569 C1576 1.492 . S
C1570 C1571 1.392 . S
C1570 C1572 1.388 1_565 S
C1571 C1569 1.393 . S
C1571 C1570 1.392 . S
C1571 H1588 0.930 . S
C1572 C1570 1.388 1_545 S
C1572 C1574 1.389 1_545 S
C1572 H1589 0.933 . S
C1573 C1569 1.395 . S
C1573 C1574 1.379 . S
C1573 H1590 0.930 . S
C1574 C1572 1.389 1_565 S
C1574 C1573 1.379 . S
C1574 H1591 0.930 1_565 S
C1575 O1558 1.264 . S
C1575 O1559 1.254 . S
C1576 Eu1512 2.848 . S
C1576 O1556 1.257 . S
C1576 O1561 1.249 . S
C1576 C1569 1.492 . S
C1577 H1542 0.931 . S
C1577 C1555 1.420 . S
C1577 C1578 1.351 . S
C1578 H1540 0.930 . S
C1578 C1546 1.423 . S
C1578 C1577 1.351 . S
C1579 O1563 1.276 . S
C1579 O1566 1.235 . S
C1580 C1581 1.393 . S
C1580 C1584 1.395 . S
C1580 C1587 1.492 . S
C1581 C1580 1.393 . S
C1581 C1582 1.392 1_554 S
C1581 H1592 0.930 . S
C1582 C1581 1.392 1_556 S
C1582 C1583 1.386 . S
C1583 C1582 1.386 . S
C1583 C1585 1.395 1_556 S
C1583 H1593 0.930 . S
C1584 C1580 1.395 . S
C1584 C1585 1.379 . S
C1584 H1594 0.930 . S
C1585 C1583 1.395 1_554 S
C1585 C1584 1.379 . S
C1585 H1595 0.930 . S
C1586 O1564 1.264 . S
C1586 O1565 1.254 . S
C1587 Eu1523 2.848 . S
C1587 O1562 1.257 . S
C1587 O1567 1.249 . S
C1587 C1580 1.492 . S
H1588 C1571 0.930 . S
H1589 C1572 0.933 . S
H1590 C1573 0.930 . S
H1591 C1574 0.930 1_545 S
H1592 C1581 0.930 . S
H1593 C1583 0.930 . S
H1594 C1584 0.930 . S
H1595 C1585 0.930 . S
Eu1596 N1627 2.657 . S
Eu1596 N1634 2.609 . S
Eu1596 O1640 2.558 . S
Eu1596 O1641 2.612 . S
Eu1596 O1643 2.339 . S
Eu1596 O1644 2.563 . S
Eu1596 O1645 2.419 . S
Eu1596 O1647 2.380 . S
Eu1596 O1648 2.432 . S
Eu1596 C1660 2.848 . S
C1597 C1600 1.429 . S
C1597 C1601 1.411 . S
C1597 N1604 1.377 . S
C1598 C1600 1.420 . S
C1598 C1602 1.423 . S
C1598 C1610 1.392 . S
C1599 C1601 1.420 . S
C1599 C1602 1.351 . S
C1599 H1622 0.931 . S
C1600 C1597 1.429 . S
C1600 C1598 1.420 . S
C1600 N1608 1.362 . S
C1601 C1597 1.411 . S
C1601 C1599 1.420 . S
C1601 C1606 1.395 . S
C1602 C1598 1.423 . S
C1602 C1599 1.351 . S
C1602 H1614 0.930 . S
C1603 C1605 1.400 . S
C1603 C1606 1.386 . S
C1603 H1615 0.930 . S
N1604 C1597 1.377 . S
N1604 C1605 1.321 . S
N1604 Eu1607 2.609 . S
C1605 C1603 1.400 . S
C1605 N1604 1.321 . S
C1605 H1612 0.930 . S
C1606 C1601 1.395 . S
C1606 C1603 1.386 . S
C1606 H1625 0.930 . S
Eu1607 N1604 2.609 . S
Eu1607 N1608 2.657 . S
Eu1607 O1641 2.380 . S
Eu1607 O1642 2.432 . S
Eu1607 O1646 2.558 . S
Eu1607 O1647 2.612 . S
Eu1607 O1649 2.339 . S
Eu1607 O1650 2.563 . S
Eu1607 O1651 2.419 . S
Eu1607 C1671 2.848 . S
N1608 C1600 1.362 . S
N1608 Eu1607 2.657 . S
N1608 C1609 1.334 . S
C1609 N1608 1.334 . S
C1609 C1611 1.413 . S
C1609 H1616 0.929 . S
C1610 C1598 1.392 . S
C1610 C1611 1.367 . S
C1610 H1618 0.930 . S
C1611 C1609 1.413 . S
C1611 C1610 1.367 . S
C1611 H1613 0.930 . S
H1612 C1605 0.930 . S
H1613 C1611 0.930 . S
H1614 C1602 0.930 . S
H1615 C1603 0.930 . S
H1616 C1609 0.929 . S
H1617 C1631 0.930 . S
H1618 C1610 0.930 . S
H1619 C1637 0.930 . S
H1620 C1628 0.929 . S
H1621 C1635 0.930 . S
H1622 C1599 0.931 . S
H1623 C1629 0.930 . S
H1624 C1662 0.930 . S
H1625 C1606 0.930 . S
H1626 C1661 0.931 . S
N1627 Eu1596 2.657 . S
N1627 C1628 1.334 . S
N1627 C1632 1.362 1_455 S
C1628 H1620 0.929 . S
C1628 N1627 1.334 . S
C1628 C1631 1.413 1_455 S
C1629 H1623 0.930 . S
C1629 C1630 1.392 . S
C1629 C1631 1.367 . S
C1630 C1629 1.392 . S
C1630 C1632 1.420 . S
C1630 C1662 1.423 . S
C1631 H1617 0.930 . S
C1631 C1628 1.413 1_655 S
C1631 C1629 1.367 . S
C1632 N1627 1.362 1_655 S
C1632 C1630 1.420 . S
C1632 C1636 1.429 1_655 S
H1633 C1638 0.930 1_655 S
N1634 Eu1596 2.609 . S
N1634 C1636 1.377 . S
N1634 C1637 1.321 . S
C1635 H1621 0.930 . S
C1635 C1637 1.400 . S
C1635 C1638 1.386 . S
C1636 C1632 1.429 1_455 S
C1636 N1634 1.377 . S
C1636 C1639 1.411 1_455 S
C1637 H1619 0.930 . S
C1637 N1634 1.321 . S
C1637 C1635 1.400 . S
C1638 H1633 0.930 1_455 S
C1638 C1635 1.386 . S
C1638 C1639 1.395 1_455 S
C1639 C1636 1.411 1_655 S
C1639 C1638 1.395 1_655 S
C1639 C1661 1.420 . S
O1640 Eu1596 2.558 . S
O1640 C1660 1.257 . S
O1641 Eu1596 2.612 . S
O1641 Eu1607 2.380 . S
O1641 C1652 1.276 . S
O1642 Eu1607 2.432 . S
O1642 C1659 1.264 . S
O1643 Eu1596 2.339 . S
O1643 C1659 1.254 . S
O1644 Eu1596 2.563 . S
O1644 C1652 1.235 . S
O1645 Eu1596 2.419 . S
O1645 C1660 1.249 . S
O1646 Eu1607 2.558 . S
O1646 C1671 1.257 . S
O1647 Eu1596 2.380 . S
O1647 Eu1607 2.612 . S
O1647 C1663 1.276 . S
O1648 Eu1596 2.432 . S
O1648 C1670 1.264 . S
O1649 Eu1607 2.339 . S
O1649 C1670 1.254 . S
O1650 Eu1607 2.563 . S
O1650 C1663 1.235 . S
O1651 Eu1607 2.419 . S
O1651 C1671 1.249 . S
C1652 O1641 1.276 . S
C1652 O1644 1.235 . S
C1653 C1655 1.393 . S
C1653 C1657 1.395 . S
C1653 C1660 1.492 . S
C1654 C1655 1.392 . S
C1654 C1656 1.380 1_455 S
C1655 C1653 1.393 . S
C1655 C1654 1.392 . S
C1655 H1672 0.930 . S
C1656 C1654 1.380 1_655 S
C1656 C1658 1.397 1_655 S
C1656 H1673 0.933 . S
C1657 C1653 1.395 . S
C1657 C1658 1.379 . S
C1657 H1674 0.930 . S
C1658 C1656 1.397 1_455 S
C1658 C1657 1.379 . S
C1658 H1675 0.930 1_455 S
C1659 O1642 1.264 . S
C1659 O1643 1.254 . S
C1660 Eu1596 2.848 . S
C1660 O1640 1.257 . S
C1660 O1645 1.249 . S
C1660 C1653 1.492 . S
C1661 H1626 0.931 . S
C1661 C1639 1.420 . S
C1661 C1662 1.351 . S
C1662 H1624 0.930 . S
C1662 C1630 1.423 . S
C1662 C1661 1.351 . S
C1663 O1647 1.276 . S
C1663 O1650 1.235 . S
C1664 C1665 1.393 . S
C1664 C1668 1.395 . S
C1664 C1671 1.492 . S
C1665 C1664 1.393 . S
C1665 C1666 1.392 1_554 S
C1665 H1676 0.930 . S
C1666 C1665 1.392 1_556 S
C1666 C1667 1.386 . S
C1667 C1666 1.386 . S
C1667 C1669 1.395 1_556 S
C1667 H1677 0.930 . S
C1668 C1664 1.395 . S
C1668 C1669 1.379 . S
C1668 H1678 0.930 . S
C1669 C1667 1.395 1_554 S
C1669 C1668 1.379 . S
C1669 H1679 0.930 . S
C1670 O1648 1.264 . S
C1670 O1649 1.254 . S
C1671 Eu1607 2.848 . S
C1671 O1646 1.257 . S
C1671 O1651 1.249 . S
C1671 C1664 1.492 . S
H1672 C1655 0.930 . S
H1673 C1656 0.933 . S
H1674 C1657 0.930 . S
H1675 C1658 0.930 1_655 S
H1676 C1665 0.930 . S
H1677 C1667 0.930 . S
H1678 C1668 0.930 . S
H1679 C1669 0.930 . S
Eu1680 N1711 2.657 . S
Eu1680 N1718 2.609 . S
Eu1680 O1724 2.558 . S
Eu1680 O1725 2.612 . S
Eu1680 O1727 2.339 . S
Eu1680 O1728 2.563 . S
Eu1680 O1729 2.419 . S
Eu1680 O1731 2.380 . S
Eu1680 O1732 2.432 . S
Eu1680 C1744 2.848 . S
C1681 C1684 1.429 . S
C1681 C1685 1.411 . S
C1681 N1688 1.377 . S
C1682 C1684 1.420 . S
C1682 C1686 1.423 . S
C1682 C1694 1.392 . S
C1683 C1685 1.420 . S
C1683 C1686 1.351 . S
C1683 H1706 0.931 . S
C1684 C1681 1.429 . S
C1684 C1682 1.420 . S
C1684 N1692 1.362 . S
C1685 C1681 1.411 . S
C1685 C1683 1.420 . S
C1685 C1690 1.395 . S
C1686 C1682 1.423 . S
C1686 C1683 1.351 . S
C1686 H1698 0.930 . S
C1687 C1689 1.400 . S
C1687 C1690 1.386 . S
C1687 H1699 0.930 . S
N1688 C1681 1.377 . S
N1688 C1689 1.321 . S
N1688 Eu1691 2.609 . S
C1689 C1687 1.400 . S
C1689 N1688 1.321 . S
C1689 H1696 0.930 . S
C1690 C1685 1.395 . S
C1690 C1687 1.386 . S
C1690 H1709 0.930 . S
Eu1691 N1688 2.609 . S
Eu1691 N1692 2.657 . S
Eu1691 O1725 2.380 . S
Eu1691 O1726 2.432 . S
Eu1691 O1730 2.558 . S
Eu1691 O1731 2.612 . S
Eu1691 O1733 2.339 . S
Eu1691 O1734 2.563 . S
Eu1691 O1735 2.419 . S
Eu1691 C1755 2.848 . S
N1692 C1684 1.362 . S
N1692 Eu1691 2.657 . S
N1692 C1693 1.334 . S
C1693 N1692 1.334 . S
C1693 C1695 1.413 . S
C1693 H1700 0.929 . S
C1694 C1682 1.392 . S
C1694 C1695 1.367 . S
C1694 H1702 0.930 . S
C1695 C1693 1.413 . S
C1695 C1694 1.367 . S
C1695 H1697 0.930 . S
H1696 C1689 0.930 . S
H1697 C1695 0.930 . S
H1698 C1686 0.930 . S
H1699 C1687 0.930 . S
H1700 C1693 0.929 . S
H1701 C1715 0.930 . S
H1702 C1694 0.930 . S
H1703 C1721 0.930 . S
H1704 C1712 0.929 . S
H1705 C1719 0.930 . S
H1706 C1683 0.931 . S
H1707 C1713 0.930 . S
H1708 C1746 0.930 . S
H1709 C1690 0.930 . S
H1710 C1745 0.931 . S
N1711 Eu1680 2.657 . S
N1711 C1712 1.334 . S
N1711 C1716 1.362 . S
C1712 H1704 0.929 . S
C1712 N1711 1.334 . S
C1712 C1715 1.413 . S
C1713 H1707 0.930 . S
C1713 C1714 1.392 . S
C1713 C1715 1.367 . S
C1714 C1713 1.392 . S
C1714 C1716 1.420 . S
C1714 C1746 1.423 . S
C1715 H1701 0.930 . S
C1715 C1712 1.413 . S
C1715 C1713 1.367 . S
C1716 N1711 1.362 . S
C1716 C1714 1.420 . S
C1716 C1720 1.429 . S
H1717 C1722 0.930 . S
N1718 Eu1680 2.609 . S
N1718 C1720 1.377 . S
N1718 C1721 1.321 . S
C1719 H1705 0.930 . S
C1719 C1721 1.400 . S
C1719 C1722 1.386 . S
C1720 C1716 1.429 . S
C1720 N1718 1.377 . S
C1720 C1723 1.411 . S
C1721 H1703 0.930 . S
C1721 N1718 1.321 . S
C1721 C1719 1.400 . S
C1722 H1717 0.930 . S
C1722 C1719 1.386 . S
C1722 C1723 1.395 . S
C1723 C1720 1.411 . S
C1723 C1722 1.395 . S
C1723 C1745 1.420 . S
O1724 Eu1680 2.558 . S
O1724 C1744 1.257 . S
O1725 Eu1680 2.612 . S
O1725 Eu1691 2.380 . S
O1725 C1736 1.276 . S
O1726 Eu1691 2.432 . S
O1726 C1743 1.264 . S
O1727 Eu1680 2.339 . S
O1727 C1743 1.254 . S
O1728 Eu1680 2.563 . S
O1728 C1736 1.235 . S
O1729 Eu1680 2.419 . S
O1729 C1744 1.249 . S
O1730 Eu1691 2.558 . S
O1730 C1755 1.257 . S
O1731 Eu1680 2.380 . S
O1731 Eu1691 2.612 . S
O1731 C1747 1.276 . S
O1732 Eu1680 2.432 . S
O1732 C1754 1.264 . S
O1733 Eu1691 2.339 . S
O1733 C1754 1.254 . S
O1734 Eu1691 2.563 . S
O1734 C1747 1.235 . S
O1735 Eu1691 2.419 . S
O1735 C1755 1.249 . S
C1736 O1725 1.276 . S
C1736 O1728 1.235 . S
C1737 C1739 1.393 . S
C1737 C1741 1.395 . S
C1737 C1744 1.492 . S
C1738 C1739 1.392 . S
C1738 C1740 1.386 . S
C1739 C1737 1.393 . S
C1739 C1738 1.392 . S
C1739 H1756 0.930 . S
C1740 C1738 1.386 . S
C1740 C1742 1.395 . S
C1740 H1757 0.930 . S
C1741 C1737 1.395 . S
C1741 C1742 1.379 . S
C1741 H1758 0.930 . S
C1742 C1740 1.395 . S
C1742 C1741 1.379 . S
C1742 H1759 0.930 . S
C1743 O1726 1.264 . S
C1743 O1727 1.254 . S
C1744 Eu1680 2.848 . S
C1744 O1724 1.257 . S
C1744 O1729 1.249 . S
C1744 C1737 1.492 . S
C1745 H1710 0.931 . S
C1745 C1723 1.420 . S
C1745 C1746 1.351 . S
C1746 H1708 0.930 . S
C1746 C1714 1.423 . S
C1746 C1745 1.351 . S
C1747 O1731 1.276 . S
C1747 O1734 1.235 . S
C1748 C1749 1.393 . S
C1748 C1752 1.395 . S
C1748 C1755 1.492 . S
C1749 C1748 1.393 . S
C1749 C1750 1.392 1_554 S
C1749 H1760 0.930 . S
C1750 C1749 1.392 1_556 S
C1750 C1751 1.386 . S
C1751 C1750 1.386 . S
C1751 C1753 1.395 1_556 S
C1751 H1761 0.930 . S
C1752 C1748 1.395 . S
C1752 C1753 1.379 . S
C1752 H1762 0.930 . S
C1753 C1751 1.395 1_554 S
C1753 C1752 1.379 . S
C1753 H1763 0.930 . S
C1754 O1732 1.264 . S
C1754 O1733 1.254 . S
C1755 Eu1691 2.848 . S
C1755 O1730 1.257 . S
C1755 O1735 1.249 . S
C1755 C1748 1.492 . S
H1756 C1739 0.930 . S
H1757 C1740 0.930 . S
H1758 C1741 0.930 . S
H1759 C1742 0.930 . S
H1760 C1749 0.930 . S
H1761 C1751 0.930 . S
H1762 C1752 0.930 . S
H1763 C1753 0.930 . S
Eu1764 N1795 2.657 . S
Eu1764 N1802 2.609 . S
Eu1764 O1808 2.558 . S
Eu1764 O1809 2.612 . S
Eu1764 O1811 2.339 . S
Eu1764 O1812 2.563 . S
Eu1764 O1813 2.419 . S
Eu1764 O1815 2.380 1_556 S
Eu1764 O1816 2.432 . S
Eu1764 C1828 2.848 . S
C1765 C1768 1.429 . S
C1765 C1769 1.411 . S
C1765 N1772 1.377 . S
C1766 C1768 1.420 . S
C1766 C1770 1.423 1_455 S
C1766 C1778 1.392 . S
C1767 C1769 1.420 . S
C1767 C1770 1.351 1_455 S
C1767 H1790 0.931 1_455 S
C1768 C1765 1.429 . S
C1768 C1766 1.420 . S
C1768 N1776 1.362 . S
C1769 C1765 1.411 . S
C1769 C1767 1.420 . S
C1769 C1774 1.395 . S
C1770 C1766 1.423 1_655 S
C1770 C1767 1.351 1_655 S
C1770 H1782 0.930 . S
C1771 C1773 1.400 . S
C1771 C1774 1.386 . S
C1771 H1783 0.930 . S
N1772 C1765 1.377 . S
N1772 C1773 1.321 . S
N1772 Eu1775 2.609 1_556 S
C1773 C1771 1.400 . S
C1773 N1772 1.321 . S
C1773 H1780 0.930 1_556 S
C1774 C1769 1.395 . S
C1774 C1771 1.386 . S
C1774 H1793 0.930 . S
Eu1775 N1772 2.609 1_554 S
Eu1775 N1776 2.657 1_554 S
Eu1775 O1809 2.380 1_554 S
Eu1775 O1810 2.432 1_554 S
Eu1775 O1814 2.558 . S
Eu1775 O1815 2.612 . S
Eu1775 O1817 2.339 . S
Eu1775 O1818 2.563 . S
Eu1775 O1819 2.419 . S
Eu1775 C1839 2.848 . S
N1776 C1768 1.362 . S
N1776 Eu1775 2.657 1_556 S
N1776 C1777 1.334 . S
C1777 N1776 1.334 . S
C1777 C1779 1.413 . S
C1777 H1784 0.929 . S
C1778 C1766 1.392 . S
C1778 C1779 1.367 . S
C1778 H1786 0.930 1_455 S
C1779 C1777 1.413 . S
C1779 C1778 1.367 . S
C1779 H1781 0.930 . S
H1780 C1773 0.930 1_554 S
H1781 C1779 0.930 . S
H1782 C1770 0.930 . S
H1783 C1771 0.930 . S
H1784 C1777 0.929 . S
H1785 C1799 0.930 . S
H1786 C1778 0.930 1_655 S
H1787 C1805 0.930 . S
H1788 C1796 0.929 . S
H1789 C1803 0.930 . S
H1790 C1767 0.931 1_655 S
H1791 C1797 0.930 . S
H1792 C1830 0.930 . S
H1793 C1774 0.930 . S
H1794 C1829 0.931 . S
N1795 Eu1764 2.657 . S
N1795 C1796 1.334 . S
N1795 C1800 1.362 . S
C1796 H1788 0.929 . S
C1796 N1795 1.334 . S
C1796 C1799 1.413 1_556 S
C1797 H1791 0.930 . S
C1797 C1798 1.392 . S
C1797 C1799 1.367 . S
C1798 C1797 1.392 . S
C1798 C1800 1.420 1_554 S
C1798 C1830 1.423 . S
C1799 H1785 0.930 . S
C1799 C1796 1.413 1_554 S
C1799 C1797 1.367 . S
C1800 N1795 1.362 . S
C1800 C1798 1.420 1_556 S
C1800 C1804 1.429 . S
H1801 C1806 0.930 . S
N1802 Eu1764 2.609 . S
N1802 C1804 1.377 . S
N1802 C1805 1.321 . S
C1803 H1789 0.930 . S
C1803 C1805 1.400 . S
C1803 C1806 1.386 . S
C1804 C1800 1.429 . S
C1804 N1802 1.377 . S
C1804 C1807 1.411 . S
C1805 H1787 0.930 . S
C1805 N1802 1.321 . S
C1805 C1803 1.400 . S
C1806 H1801 0.930 . S
C1806 C1803 1.386 . S
C1806 C1807 1.395 . S
C1807 C1804 1.411 . S
C1807 C1806 1.395 . S
C1807 C1829 1.420 1_556 S
O1808 Eu1764 2.558 . S
O1808 C1828 1.257 . S
O1809 Eu1764 2.612 . S
O1809 Eu1775 2.380 1_556 S
O1809 C1820 1.276 . S
O1810 Eu1775 2.432 1_556 S
O1810 C1827 1.264 . S
O1811 Eu1764 2.339 . S
O1811 C1827 1.254 . S
O1812 Eu1764 2.563 . S
O1812 C1820 1.235 . S
O1813 Eu1764 2.419 . S
O1813 C1828 1.249 . S
O1814 Eu1775 2.558 . S
O1814 C1839 1.257 . S
O1815 Eu1764 2.380 1_554 S
O1815 Eu1775 2.612 . S
O1815 C1831 1.276 . S
O1816 Eu1764 2.432 . S
O1816 C1838 1.264 . S
O1817 Eu1775 2.339 . S
O1817 C1838 1.254 1_554 S
O1818 Eu1775 2.563 . S
O1818 C1831 1.235 . S
O1819 Eu1775 2.419 . S
O1819 C1839 1.249 . S
C1820 O1809 1.276 . S
C1820 O1812 1.235 . S
C1821 C1823 1.393 . S
C1821 C1825 1.395 . S
C1821 C1828 1.492 . S
C1822 C1823 1.392 . S
C1822 C1824 1.386 . S
C1823 C1821 1.393 . S
C1823 C1822 1.392 . S
C1823 H1840 0.930 . S
C1824 C1822 1.386 . S
C1824 C1826 1.395 . S
C1824 H1841 0.930 . S
C1825 C1821 1.395 . S
C1825 C1826 1.379 . S
C1825 H1842 0.930 . S
C1826 C1824 1.395 . S
C1826 C1825 1.379 . S
C1826 H1843 0.930 . S
C1827 O1810 1.264 . S
C1827 O1811 1.254 . S
C1828 Eu1764 2.848 . S
C1828 O1808 1.257 . S
C1828 O1813 1.249 . S
C1828 C1821 1.492 . S
C1829 H1794 0.931 . S
C1829 C1807 1.420 1_554 S
C1829 C1830 1.351 . S
C1830 H1792 0.930 . S
C1830 C1798 1.423 . S
C1830 C1829 1.351 . S
C1831 O1815 1.276 . S
C1831 O1818 1.235 . S
C1832 C1833 1.393 . S
C1832 C1836 1.395 . S
C1832 C1839 1.492 . S
C1833 C1832 1.393 . S
C1833 C1834 1.392 . S
C1833 H1844 0.930 . S
C1834 C1833 1.392 . S
C1834 C1835 1.386 . S
C1835 C1834 1.386 . S
C1835 C1837 1.395 . S
C1835 H1845 0.930 . S
C1836 C1832 1.395 . S
C1836 C1837 1.379 . S
C1836 H1846 0.930 . S
C1837 C1835 1.395 . S
C1837 C1836 1.379 . S
C1837 H1847 0.930 . S
C1838 O1816 1.264 . S
C1838 O1817 1.254 1_556 S
C1839 Eu1775 2.848 . S
C1839 O1814 1.257 . S
C1839 O1819 1.249 . S
C1839 C1832 1.492 . S
H1840 C1823 0.930 . S
H1841 C1824 0.930 . S
H1842 C1825 0.930 . S
H1843 C1826 0.930 . S
H1844 C1833 0.930 . S
H1845 C1835 0.930 . S
H1846 C1836 0.930 . S
H1847 C1837 0.930 . S
Eu1848 N1879 2.657 . S
Eu1848 N1886 2.609 . S
Eu1848 O1892 2.558 . S
Eu1848 O1893 2.612 . S
Eu1848 O1895 2.339 . S
Eu1848 O1896 2.563 . S
Eu1848 O1897 2.419 . S
Eu1848 O1899 2.380 1_556 S
Eu1848 O1900 2.432 . S
Eu1848 C1912 2.848 . S
C1849 C1852 1.429 . S
C1849 C1853 1.411 . S
C1849 N1856 1.377 . S
C1850 C1852 1.420 . S
C1850 C1854 1.423 . S
C1850 C1862 1.392 . S
C1851 C1853 1.420 . S
C1851 C1854 1.351 . S
C1851 H1874 0.931 . S
C1852 C1849 1.429 . S
C1852 C1850 1.420 . S
C1852 N1860 1.362 . S
C1853 C1849 1.411 . S
C1853 C1851 1.420 . S
C1853 C1858 1.395 1_565 S
C1854 C1850 1.423 . S
C1854 C1851 1.351 . S
C1854 H1866 0.930 . S
C1855 C1857 1.400 . S
C1855 C1858 1.386 . S
C1855 H1867 0.930 . S
N1856 C1849 1.377 . S
N1856 C1857 1.321 1_565 S
N1856 Eu1859 2.609 1_556 S
C1857 C1855 1.400 . S
C1857 N1856 1.321 1_545 S
C1857 H1864 0.930 1_556 S
C1858 C1853 1.395 1_545 S
C1858 C1855 1.386 . S
C1858 H1877 0.930 . S
Eu1859 N1856 2.609 1_554 S
Eu1859 N1860 2.657 1_554 S
Eu1859 O1893 2.380 1_554 S
Eu1859 O1894 2.432 1_564 S
Eu1859 O1898 2.558 . S
Eu1859 O1899 2.612 . S
Eu1859 O1901 2.339 . S
Eu1859 O1902 2.563 . S
Eu1859 O1903 2.419 . S
Eu1859 C1923 2.848 . S
N1860 C1852 1.362 . S
N1860 Eu1859 2.657 1_556 S
N1860 C1861 1.334 . S
C1861 N1860 1.334 . S
C1861 C1863 1.413 . S
C1861 H1868 0.929 . S
C1862 C1850 1.392 . S
C1862 C1863 1.367 . S
C1862 H1870 0.930 . S
C1863 C1861 1.413 . S
C1863 C1862 1.367 . S
C1863 H1865 0.930 . S
H1864 C1857 0.930 1_554 S
H1865 C1863 0.930 . S
H1866 C1854 0.930 . S
H1867 C1855 0.930 . S
H1868 C1861 0.929 . S
H1869 C1883 0.930 . S
H1870 C1862 0.930 . S
H1871 C1889 0.930 . S
H1872 C1880 0.929 . S
H1873 C1887 0.930 . S
H1874 C1851 0.931 . S
H1875 C1881 0.930 . S
H1876 C1914 0.930 . S
H1877 C1858 0.930 . S
H1878 C1913 0.931 . S
N1879 Eu1848 2.657 . S
N1879 C1880 1.334 1_565 S
N1879 C1884 1.362 . S
C1880 H1872 0.929 . S
C1880 N1879 1.334 1_545 S
C1880 C1883 1.413 1_556 S
C1881 H1875 0.930 . S
C1881 C1882 1.392 1_545 S
C1881 C1883 1.367 . S
C1882 C1881 1.392 1_565 S
C1882 C1884 1.420 1_554 S
C1882 C1914 1.423 . S
C1883 H1869 0.930 . S
C1883 C1880 1.413 1_554 S
C1883 C1881 1.367 . S
C1884 N1879 1.362 . S
C1884 C1882 1.420 1_556 S
C1884 C1888 1.429 . S
H1885 C1890 0.930 . S
N1886 Eu1848 2.609 . S
N1886 C1888 1.377 . S
N1886 C1889 1.321 . S
C1887 H1873 0.930 . S
C1887 C1889 1.400 . S
C1887 C1890 1.386 . S
C1888 C1884 1.429 . S
C1888 N1886 1.377 . S
C1888 C1891 1.411 . S
C1889 H1871 0.930 . S
C1889 N1886 1.321 . S
C1889 C1887 1.400 . S
C1890 H1885 0.930 . S
C1890 C1887 1.386 . S
C1890 C1891 1.395 . S
C1891 C1888 1.411 . S
C1891 C1890 1.395 . S
C1891 C1913 1.420 1_556 S
O1892 Eu1848 2.558 . S
O1892 C1912 1.257 . S
O1893 Eu1848 2.612 . S
O1893 Eu1859 2.380 1_556 S
O1893 C1904 1.276 . S
O1894 Eu1859 2.432 1_546 S
O1894 C1911 1.264 . S
O1895 Eu1848 2.339 . S
O1895 C1911 1.254 1_565 S
O1896 Eu1848 2.563 . S
O1896 C1904 1.235 . S
O1897 Eu1848 2.419 . S
O1897 C1912 1.249 . S
O1898 Eu1859 2.558 . S
O1898 C1923 1.257 . S
O1899 Eu1848 2.380 1_554 S
O1899 Eu1859 2.612 . S
O1899 C1915 1.276 . S
O1900 Eu1848 2.432 . S
O1900 C1922 1.264 . S
O1901 Eu1859 2.339 . S
O1901 C1922 1.254 1_554 S
O1902 Eu1859 2.563 . S
O1902 C1915 1.235 . S
O1903 Eu1859 2.419 . S
O1903 C1923 1.249 . S
C1904 O1893 1.276 . S
C1904 O1896 1.235 . S
C1905 C1907 1.393 . S
C1905 C1909 1.395 . S
C1905 C1912 1.492 . S
C1906 C1907 1.392 . S
C1906 C1908 1.386 . S
C1907 C1905 1.393 . S
C1907 C1906 1.392 . S
C1907 H1924 0.930 . S
C1908 C1906 1.386 . S
C1908 C1910 1.395 . S
C1908 H1925 0.930 . S
C1909 C1905 1.395 . S
C1909 C1910 1.379 . S
C1909 H1926 0.930 . S
C1910 C1908 1.395 . S
C1910 C1909 1.379 . S
C1910 H1927 0.930 . S
C1911 O1894 1.264 . S
C1911 O1895 1.254 1_545 S
C1912 Eu1848 2.848 . S
C1912 O1892 1.257 . S
C1912 O1897 1.249 . S
C1912 C1905 1.492 . S
C1913 H1878 0.931 . S
C1913 C1891 1.420 1_554 S
C1913 C1914 1.351 . S
C1914 H1876 0.930 . S
C1914 C1882 1.423 . S
C1914 C1913 1.351 . S
C1915 O1899 1.276 . S
C1915 O1902 1.235 . S
C1916 C1917 1.393 . S
C1916 C1920 1.395 . S
C1916 C1923 1.492 . S
C1917 C1916 1.393 . S
C1917 C1918 1.392 . S
C1917 H1928 0.930 . S
C1918 C1917 1.392 . S
C1918 C1919 1.386 . S
C1919 C1918 1.386 . S
C1919 C1921 1.395 . S
C1919 H1929 0.930 . S
C1920 C1916 1.395 . S
C1920 C1921 1.379 . S
C1920 H1930 0.930 . S
C1921 C1919 1.395 . S
C1921 C1920 1.379 . S
C1921 H1931 0.930 . S
C1922 O1900 1.264 . S
C1922 O1901 1.254 1_556 S
C1923 Eu1859 2.848 . S
C1923 O1898 1.257 . S
C1923 O1903 1.249 . S
C1923 C1916 1.492 . S
H1924 C1907 0.930 . S
H1925 C1908 0.930 . S
H1926 C1909 0.930 . S
H1927 C1910 0.930 . S
H1928 C1917 0.930 . S
H1929 C1919 0.930 . S
H1930 C1920 0.930 . S
H1931 C1921 0.930 . S
Eu1932 N1963 2.657 . S
Eu1932 N1970 2.609 . S
Eu1932 O1976 2.558 . S
Eu1932 O1977 2.612 . S
Eu1932 O1979 2.339 . S
Eu1932 O1980 2.563 . S
Eu1932 O1981 2.419 . S
Eu1932 O1983 2.380 1_556 S
Eu1932 O1984 2.432 . S
Eu1932 C1996 2.848 . S
C1933 C1936 1.429 . S
C1933 C1937 1.411 . S
C1933 N1940 1.377 . S
C1934 C1936 1.420 . S
C1934 C1938 1.423 1_565 S
C1934 C1946 1.392 . S
C1935 C1937 1.420 . S
C1935 C1938 1.351 1_565 S
C1935 H1958 0.931 1_565 S
C1936 C1933 1.429 . S
C1936 C1934 1.420 . S
C1936 N1944 1.362 . S
C1937 C1933 1.411 . S
C1937 C1935 1.420 . S
C1937 C1942 1.395 1_455 S
C1938 C1934 1.423 1_545 S
C1938 C1935 1.351 1_545 S
C1938 H1950 0.930 . S
C1939 C1941 1.400 . S
C1939 C1942 1.386 . S
C1939 H1951 0.930 . S
N1940 C1933 1.377 . S
N1940 C1941 1.321 1_455 S
N1940 Eu1943 2.609 1_556 S
C1941 C1939 1.400 . S
C1941 N1940 1.321 1_655 S
C1941 H1948 0.930 1_556 S
C1942 C1937 1.395 1_655 S
C1942 C1939 1.386 . S
C1942 H1961 0.930 . S
Eu1943 N1940 2.609 1_554 S
Eu1943 N1944 2.657 1_554 S
Eu1943 O1977 2.380 1_554 S
Eu1943 O1978 2.432 1_454 S
Eu1943 O1982 2.558 . S
Eu1943 O1983 2.612 . S
Eu1943 O1985 2.339 . S
Eu1943 O1986 2.563 . S
Eu1943 O1987 2.419 . S
Eu1943 C2007 2.848 . S
N1944 C1936 1.362 . S
N1944 Eu1943 2.657 1_556 S
N1944 C1945 1.334 . S
C1945 N1944 1.334 . S
C1945 C1947 1.413 . S
C1945 H1952 0.929 . S
C1946 C1934 1.392 . S
C1946 C1947 1.367 . S
C1946 H1954 0.930 1_565 S
C1947 C1945 1.413 . S
C1947 C1946 1.367 . S
C1947 H1949 0.930 . S
H1948 C1941 0.930 1_554 S
H1949 C1947 0.930 . S
H1950 C1938 0.930 . S
H1951 C1939 0.930 . S
H1952 C1945 0.929 . S
H1953 C1967 0.930 . S
H1954 C1946 0.930 1_545 S
H1955 C1973 0.930 . S
H1956 C1964 0.929 . S
H1957 C1971 0.930 . S
H1958 C1935 0.931 1_545 S
H1959 C1965 0.930 . S
H1960 C1998 0.930 . S
H1961 C1942 0.930 . S
H1962 C1997 0.931 . S
N1963 Eu1932 2.657 . S
N1963 C1964 1.334 1_455 S
N1963 C1968 1.362 . S
C1964 H1956 0.929 . S
C1964 N1963 1.334 1_655 S
C1964 C1967 1.413 1_556 S
C1965 H1959 0.930 . S
C1965 C1966 1.392 1_655 S
C1965 C1967 1.367 . S
C1966 C1965 1.392 1_455 S
C1966 C1968 1.420 1_554 S
C1966 C1998 1.423 . S
C1967 H1953 0.930 . S
C1967 C1964 1.413 1_554 S
C1967 C1965 1.367 . S
C1968 N1963 1.362 . S
C1968 C1966 1.420 1_556 S
C1968 C1972 1.429 . S
H1969 C1974 0.930 . S
N1970 Eu1932 2.609 . S
N1970 C1972 1.377 . S
N1970 C1973 1.321 . S
C1971 H1957 0.930 . S
C1971 C1973 1.400 . S
C1971 C1974 1.386 . S
C1972 C1968 1.429 . S
C1972 N1970 1.377 . S
C1972 C1975 1.411 . S
C1973 H1955 0.930 . S
C1973 N1970 1.321 . S
C1973 C1971 1.400 . S
C1974 H1969 0.930 . S
C1974 C1971 1.386 . S
C1974 C1975 1.395 . S
C1975 C1972 1.411 . S
C1975 C1974 1.395 . S
C1975 C1997 1.420 1_556 S
O1976 Eu1932 2.558 . S
O1976 C1996 1.257 . S
O1977 Eu1932 2.612 . S
O1977 Eu1943 2.380 1_556 S
O1977 C1988 1.276 . S
O1978 Eu1943 2.432 1_656 S
O1978 C1995 1.264 . S
O1979 Eu1932 2.339 . S
O1979 C1995 1.254 1_455 S
O1980 Eu1932 2.563 . S
O1980 C1988 1.235 . S
O1981 Eu1932 2.419 . S
O1981 C1996 1.249 . S
O1982 Eu1943 2.558 . S
O1982 C2007 1.257 . S
O1983 Eu1932 2.380 1_554 S
O1983 Eu1943 2.612 . S
O1983 C1999 1.276 . S
O1984 Eu1932 2.432 . S
O1984 C2006 1.264 . S
O1985 Eu1943 2.339 . S
O1985 C2006 1.254 1_554 S
O1986 Eu1943 2.563 . S
O1986 C1999 1.235 . S
O1987 Eu1943 2.419 . S
O1987 C2007 1.249 . S
C1988 O1977 1.276 . S
C1988 O1980 1.235 . S
C1989 C1991 1.393 . S
C1989 C1993 1.395 . S
C1989 C1996 1.492 . S
C1990 C1991 1.392 . S
C1990 C1992 1.386 . S
C1991 C1989 1.393 . S
C1991 C1990 1.392 . S
C1991 H2008 0.930 . S
C1992 C1990 1.386 . S
C1992 C1994 1.395 . S
C1992 H2009 0.930 . S
C1993 C1989 1.395 . S
C1993 C1994 1.379 . S
C1993 H2010 0.930 . S
C1994 C1992 1.395 . S
C1994 C1993 1.379 . S
C1994 H2011 0.930 . S
C1995 O1978 1.264 . S
C1995 O1979 1.254 1_655 S
C1996 Eu1932 2.848 . S
C1996 O1976 1.257 . S
C1996 O1981 1.249 . S
C1996 C1989 1.492 . S
C1997 H1962 0.931 . S
C1997 C1975 1.420 1_554 S
C1997 C1998 1.351 . S
C1998 H1960 0.930 . S
C1998 C1966 1.423 . S
C1998 C1997 1.351 . S
C1999 O1983 1.276 . S
C1999 O1986 1.235 . S
C2000 C2001 1.393 . S
C2000 C2004 1.395 . S
C2000 C2007 1.492 . S
C2001 C2000 1.393 . S
C2001 C2002 1.392 . S
C2001 H2012 0.930 . S
C2002 C2001 1.392 . S
C2002 C2003 1.386 . S
C2003 C2002 1.386 . S
C2003 C2005 1.395 . S
C2003 H2013 0.930 . S
C2004 C2000 1.395 . S
C2004 C2005 1.379 . S
C2004 H2014 0.930 . S
C2005 C2003 1.395 . S
C2005 C2004 1.379 . S
C2005 H2015 0.930 . S
C2006 O1984 1.264 . S
C2006 O1985 1.254 1_556 S
C2007 Eu1943 2.848 . S
C2007 O1982 1.257 . S
C2007 O1987 1.249 . S
C2007 C2000 1.492 . S
H2008 C1991 0.930 . S
H2009 C1992 0.930 . S
H2010 C1993 0.930 . S
H2011 C1994 0.930 . S
H2012 C2001 0.930 . S
H2013 C2003 0.930 . S
H2014 C2004 0.930 . S
H2015 C2005 0.930 . S
Eu2016 N2047 2.657 . S
Eu2016 N2054 2.609 . S
Eu2016 O2060 2.558 . S
Eu2016 O2061 2.612 . S
Eu2016 O2063 2.339 . S
Eu2016 O2064 2.563 . S
Eu2016 O2065 2.419 . S
Eu2016 O2067 2.380 . S
Eu2016 O2068 2.432 . S
Eu2016 C2080 2.848 . S
C2017 C2020 1.429 1_545 S
C2017 C2021 1.411 1_545 S
C2017 N2024 1.377 . S
C2018 C2020 1.420 . S
C2018 C2022 1.423 . S
C2018 C2030 1.392 . S
C2019 C2021 1.420 . S
C2019 C2022 1.351 . S
C2019 H2042 0.931 . S
C2020 C2017 1.429 1_565 S
C2020 C2018 1.420 . S
C2020 N2028 1.362 1_565 S
C2021 C2017 1.411 1_565 S
C2021 C2019 1.420 . S
C2021 C2026 1.395 1_565 S
C2022 C2018 1.423 . S
C2022 C2019 1.351 . S
C2022 H2034 0.930 . S
C2023 C2025 1.400 . S
C2023 C2026 1.386 . S
C2023 H2035 0.930 . S
N2024 C2017 1.377 . S
N2024 C2025 1.321 . S
N2024 Eu2027 2.609 . S
C2025 C2023 1.400 . S
C2025 N2024 1.321 . S
C2025 H2032 0.930 . S
C2026 C2021 1.395 1_545 S
C2026 C2023 1.386 . S
C2026 H2045 0.930 1_545 S
Eu2027 N2024 2.609 . S
Eu2027 N2028 2.657 . S
Eu2027 O2061 2.380 . S
Eu2027 O2062 2.432 . S
Eu2027 O2066 2.558 . S
Eu2027 O2067 2.612 . S
Eu2027 O2069 2.339 . S
Eu2027 O2070 2.563 . S
Eu2027 O2071 2.419 . S
Eu2027 C2091 2.848 . S
N2028 C2020 1.362 1_545 S
N2028 Eu2027 2.657 . S
N2028 C2029 1.334 . S
C2029 N2028 1.334 . S
C2029 C2031 1.413 1_545 S
C2029 H2036 0.929 . S
C2030 C2018 1.392 . S
C2030 C2031 1.367 . S
C2030 H2038 0.930 . S
C2031 C2029 1.413 1_565 S
C2031 C2030 1.367 . S
C2031 H2033 0.930 . S
H2032 C2025 0.930 . S
H2033 C2031 0.930 . S
H2034 C2022 0.930 . S
H2035 C2023 0.930 . S
H2036 C2029 0.929 . S
H2037 C2051 0.930 . S
H2038 C2030 0.930 . S
H2039 C2057 0.930 . S
H2040 C2048 0.929 . S
H2041 C2055 0.930 . S
H2042 C2019 0.931 . S
H2043 C2049 0.930 . S
H2044 C2082 0.930 . S
H2045 C2026 0.930 1_565 S
H2046 C2081 0.931 . S
N2047 Eu2016 2.657 . S
N2047 C2048 1.334 . S
N2047 C2052 1.362 . S
C2048 H2040 0.929 . S
C2048 N2047 1.334 . S
C2048 C2051 1.413 . S
C2049 H2043 0.930 . S
C2049 C2050 1.392 . S
C2049 C2051 1.367 . S
C2050 C2049 1.392 . S
C2050 C2052 1.420 . S
C2050 C2082 1.423 . S
C2051 H2037 0.930 . S
C2051 C2048 1.413 . S
C2051 C2049 1.367 . S
C2052 N2047 1.362 . S
C2052 C2050 1.420 . S
C2052 C2056 1.429 . S
H2053 C2058 0.930 . S
N2054 Eu2016 2.609 . S
N2054 C2056 1.377 . S
N2054 C2057 1.321 . S
C2055 H2041 0.930 . S
C2055 C2057 1.400 . S
C2055 C2058 1.386 . S
C2056 C2052 1.429 . S
C2056 N2054 1.377 . S
C2056 C2059 1.411 . S
C2057 H2039 0.930 . S
C2057 N2054 1.321 . S
C2057 C2055 1.400 . S
C2058 H2053 0.930 . S
C2058 C2055 1.386 . S
C2058 C2059 1.395 . S
C2059 C2056 1.411 . S
C2059 C2058 1.395 . S
C2059 C2081 1.420 . S
O2060 Eu2016 2.558 . S
O2060 C2080 1.257 . S
O2061 Eu2016 2.612 . S
O2061 Eu2027 2.380 . S
O2061 C2072 1.276 . S
O2062 Eu2027 2.432 . S
O2062 C2079 1.264 . S
O2063 Eu2016 2.339 . S
O2063 C2079 1.254 . S
O2064 Eu2016 2.563 . S
O2064 C2072 1.235 . S
O2065 Eu2016 2.419 . S
O2065 C2080 1.249 . S
O2066 Eu2027 2.558 . S
O2066 C2091 1.257 . S
O2067 Eu2016 2.380 . S
O2067 Eu2027 2.612 . S
O2067 C2083 1.276 . S
O2068 Eu2016 2.432 . S
O2068 C2090 1.264 . S
O2069 Eu2027 2.339 . S
O2069 C2090 1.254 . S
O2070 Eu2027 2.563 . S
O2070 C2083 1.235 . S
O2071 Eu2027 2.419 . S
O2071 C2091 1.249 . S
C2072 O2061 1.276 . S
C2072 O2064 1.235 . S
C2073 C2075 1.393 . S
C2073 C2077 1.395 . S
C2073 C2080 1.492 1_554 S
C2074 C2075 1.392 . S
C2074 C2076 1.386 . S
C2075 C2073 1.393 . S
C2075 C2074 1.392 . S
C2075 H2092 0.930 . S
C2076 C2074 1.386 . S
C2076 C2078 1.395 . S
C2076 H2093 0.930 . S
C2077 C2073 1.395 . S
C2077 C2078 1.379 . S
C2077 H2094 0.930 . S
C2078 C2076 1.395 . S
C2078 C2077 1.379 . S
C2078 H2095 0.930 . S
C2079 O2062 1.264 . S
C2079 O2063 1.254 . S
C2080 Eu2016 2.848 . S
C2080 O2060 1.257 . S
C2080 O2065 1.249 . S
C2080 C2073 1.492 1_556 S
C2081 H2046 0.931 . S
C2081 C2059 1.420 . S
C2081 C2082 1.351 . S
C2082 H2044 0.930 . S
C2082 C2050 1.423 . S
C2082 C2081 1.351 . S
C2083 O2067 1.276 . S
C2083 O2070 1.235 . S
C2084 C2085 1.393 . S
C2084 C2088 1.395 . S
C2084 C2091 1.492 . S
C2085 C2084 1.393 . S
C2085 C2086 1.392 . S
C2085 H2096 0.930 . S
C2086 C2085 1.392 . S
C2086 C2087 1.388 1_545 S
C2087 C2086 1.388 1_565 S
C2087 C2089 1.389 1_565 S
C2087 H2097 0.933 . S
C2088 C2084 1.395 . S
C2088 C2089 1.379 . S
C2088 H2098 0.930 . S
C2089 C2087 1.389 1_545 S
C2089 C2088 1.379 . S
C2089 H2099 0.930 1_545 S
C2090 O2068 1.264 . S
C2090 O2069 1.254 . S
C2091 Eu2027 2.848 . S
C2091 O2066 1.257 . S
C2091 O2071 1.249 . S
C2091 C2084 1.492 . S
H2092 C2075 0.930 . S
H2093 C2076 0.930 . S
H2094 C2077 0.930 . S
H2095 C2078 0.930 . S
H2096 C2085 0.930 . S
H2097 C2087 0.933 . S
H2098 C2088 0.930 . S
H2099 C2089 0.930 1_565 S
Eu2100 N2131 2.657 . S
Eu2100 N2138 2.609 . S
Eu2100 O2144 2.558 . S
Eu2100 O2145 2.612 . S
Eu2100 O2147 2.339 . S
Eu2100 O2148 2.563 . S
Eu2100 O2149 2.419 . S
Eu2100 O2151 2.380 . S
Eu2100 O2152 2.432 . S
Eu2100 C2164 2.848 . S
C2101 C2104 1.429 1_655 S
C2101 C2105 1.411 1_655 S
C2101 N2108 1.377 . S
C2102 C2104 1.420 . S
C2102 C2106 1.423 . S
C2102 C2114 1.392 . S
C2103 C2105 1.420 . S
C2103 C2106 1.351 . S
C2103 H2126 0.931 . S
C2104 C2101 1.429 1_455 S
C2104 C2102 1.420 . S
C2104 N2112 1.362 1_455 S
C2105 C2101 1.411 1_455 S
C2105 C2103 1.420 . S
C2105 C2110 1.395 1_455 S
C2106 C2102 1.423 . S
C2106 C2103 1.351 . S
C2106 H2118 0.930 . S
C2107 C2109 1.400 . S
C2107 C2110 1.386 . S
C2107 H2119 0.930 . S
N2108 C2101 1.377 . S
N2108 C2109 1.321 . S
N2108 Eu2111 2.609 . S
C2109 C2107 1.400 . S
C2109 N2108 1.321 . S
C2109 H2116 0.930 . S
C2110 C2105 1.395 1_655 S
C2110 C2107 1.386 . S
C2110 H2129 0.930 1_655 S
Eu2111 N2108 2.609 . S
Eu2111 N2112 2.657 . S
Eu2111 O2145 2.380 . S
Eu2111 O2146 2.432 . S
Eu2111 O2150 2.558 . S
Eu2111 O2151 2.612 . S
Eu2111 O2153 2.339 . S
Eu2111 O2154 2.563 . S
Eu2111 O2155 2.419 . S
Eu2111 C2175 2.848 . S
N2112 C2104 1.362 1_655 S
N2112 Eu2111 2.657 . S
N2112 C2113 1.334 . S
C2113 N2112 1.334 . S
C2113 C2115 1.413 1_655 S
C2113 H2120 0.929 . S
C2114 C2102 1.392 . S
C2114 C2115 1.367 . S
C2114 H2122 0.930 . S
C2115 C2113 1.413 1_455 S
C2115 C2114 1.367 . S
C2115 H2117 0.930 . S
H2116 C2109 0.930 . S
H2117 C2115 0.930 . S
H2118 C2106 0.930 . S
H2119 C2107 0.930 . S
H2120 C2113 0.929 . S
H2121 C2135 0.930 . S
H2122 C2114 0.930 . S
H2123 C2141 0.930 . S
H2124 C2132 0.929 . S
H2125 C2139 0.930 . S
H2126 C2103 0.931 . S
H2127 C2133 0.930 . S
H2128 C2166 0.930 . S
H2129 C2110 0.930 1_455 S
H2130 C2165 0.931 . S
N2131 Eu2100 2.657 . S
N2131 C2132 1.334 . S
N2131 C2136 1.362 . S
C2132 H2124 0.929 . S
C2132 N2131 1.334 . S
C2132 C2135 1.413 . S
C2133 H2127 0.930 . S
C2133 C2134 1.392 . S
C2133 C2135 1.367 . S
C2134 C2133 1.392 . S
C2134 C2136 1.420 . S
C2134 C2166 1.423 . S
C2135 H2121 0.930 . S
C2135 C2132 1.413 . S
C2135 C2133 1.367 . S
C2136 N2131 1.362 . S
C2136 C2134 1.420 . S
C2136 C2140 1.429 . S
H2137 C2142 0.930 . S
N2138 Eu2100 2.609 . S
N2138 C2140 1.377 . S
N2138 C2141 1.321 . S
C2139 H2125 0.930 . S
C2139 C2141 1.400 . S
C2139 C2142 1.386 . S
C2140 C2136 1.429 . S
C2140 N2138 1.377 . S
C2140 C2143 1.411 . S
C2141 H2123 0.930 . S
C2141 N2138 1.321 . S
C2141 C2139 1.400 . S
C2142 H2137 0.930 . S
C2142 C2139 1.386 . S
C2142 C2143 1.395 . S
C2143 C2140 1.411 . S
C2143 C2142 1.395 . S
C2143 C2165 1.420 . S
O2144 Eu2100 2.558 . S
O2144 C2164 1.257 . S
O2145 Eu2100 2.612 . S
O2145 Eu2111 2.380 . S
O2145 C2156 1.276 . S
O2146 Eu2111 2.432 . S
O2146 C2163 1.264 . S
O2147 Eu2100 2.339 . S
O2147 C2163 1.254 . S
O2148 Eu2100 2.563 . S
O2148 C2156 1.235 . S
O2149 Eu2100 2.419 . S
O2149 C2164 1.249 . S
O2150 Eu2111 2.558 . S
O2150 C2175 1.257 . S
O2151 Eu2100 2.380 . S
O2151 Eu2111 2.612 . S
O2151 C2167 1.276 . S
O2152 Eu2100 2.432 . S
O2152 C2174 1.264 . S
O2153 Eu2111 2.339 . S
O2153 C2174 1.254 . S
O2154 Eu2111 2.563 . S
O2154 C2167 1.235 . S
O2155 Eu2111 2.419 . S
O2155 C2175 1.249 . S
C2156 O2145 1.276 . S
C2156 O2148 1.235 . S
C2157 C2159 1.393 . S
C2157 C2161 1.395 . S
C2157 C2164 1.492 1_554 S
C2158 C2159 1.392 . S
C2158 C2160 1.386 . S
C2159 C2157 1.393 . S
C2159 C2158 1.392 . S
C2159 H2176 0.930 . S
C2160 C2158 1.386 . S
C2160 C2162 1.395 . S
C2160 H2177 0.930 . S
C2161 C2157 1.395 . S
C2161 C2162 1.379 . S
C2161 H2178 0.930 . S
C2162 C2160 1.395 . S
C2162 C2161 1.379 . S
C2162 H2179 0.930 . S
C2163 O2146 1.264 . S
C2163 O2147 1.254 . S
C2164 Eu2100 2.848 . S
C2164 O2144 1.257 . S
C2164 O2149 1.249 . S
C2164 C2157 1.492 1_556 S
C2165 H2130 0.931 . S
C2165 C2143 1.420 . S
C2165 C2166 1.351 . S
C2166 H2128 0.930 . S
C2166 C2134 1.423 . S
C2166 C2165 1.351 . S
C2167 O2151 1.276 . S
C2167 O2154 1.235 . S
C2168 C2169 1.393 . S
C2168 C2172 1.395 . S
C2168 C2175 1.492 . S
C2169 C2168 1.393 . S
C2169 C2170 1.392 . S
C2169 H2180 0.930 . S
C2170 C2169 1.392 . S
C2170 C2171 1.380 1_655 S
C2171 C2170 1.380 1_455 S
C2171 C2173 1.397 1_455 S
C2171 H2181 0.934 . S
C2172 C2168 1.395 . S
C2172 C2173 1.379 . S
C2172 H2182 0.930 . S
C2173 C2171 1.397 1_655 S
C2173 C2172 1.379 . S
C2173 H2183 0.930 1_655 S
C2174 O2152 1.264 . S
C2174 O2153 1.254 . S
C2175 Eu2111 2.848 . S
C2175 O2150 1.257 . S
C2175 O2155 1.249 . S
C2175 C2168 1.492 . S
H2176 C2159 0.930 . S
H2177 C2160 0.930 . S
H2178 C2161 0.930 . S
H2179 C2162 0.930 . S
H2180 C2169 0.930 . S
H2181 C2171 0.934 . S
H2182 C2172 0.930 . S
H2183 C2173 0.930 1_455 S
Eu2184 N2215 2.657 . S
Eu2184 N2222 2.609 . S
Eu2184 O2228 2.558 . S
Eu2184 O2229 2.612 . S
Eu2184 O2231 2.339 . S
Eu2184 O2232 2.563 . S
Eu2184 O2233 2.419 . S
Eu2184 O2235 2.380 . S
Eu2184 O2236 2.432 . S
Eu2184 C2248 2.848 . S
C2185 C2188 1.429 . S
C2185 C2189 1.411 . S
C2185 N2192 1.377 . S
C2186 C2188 1.420 . S
C2186 C2190 1.423 . S
C2186 C2198 1.392 . S
C2187 C2189 1.420 . S
C2187 C2190 1.351 . S
C2187 H2210 0.931 . S
C2188 C2185 1.429 . S
C2188 C2186 1.420 . S
C2188 N2196 1.362 . S
C2189 C2185 1.411 . S
C2189 C2187 1.420 . S
C2189 C2194 1.395 . S
C2190 C2186 1.423 . S
C2190 C2187 1.351 . S
C2190 H2202 0.930 . S
C2191 C2193 1.400 . S
C2191 C2194 1.386 . S
C2191 H2203 0.930 . S
N2192 C2185 1.377 . S
N2192 C2193 1.321 . S
N2192 Eu2195 2.609 . S
C2193 C2191 1.400 . S
C2193 N2192 1.321 . S
C2193 H2200 0.930 . S
C2194 C2189 1.395 . S
C2194 C2191 1.386 . S
C2194 H2213 0.930 . S
Eu2195 N2192 2.609 . S
Eu2195 N2196 2.657 . S
Eu2195 O2229 2.380 . S
Eu2195 O2230 2.432 . S
Eu2195 O2234 2.558 . S
Eu2195 O2235 2.612 . S
Eu2195 O2237 2.339 . S
Eu2195 O2238 2.563 . S
Eu2195 O2239 2.419 . S
Eu2195 C2259 2.848 . S
N2196 C2188 1.362 . S
N2196 Eu2195 2.657 . S
N2196 C2197 1.334 . S
C2197 N2196 1.334 . S
C2197 C2199 1.413 . S
C2197 H2204 0.929 . S
C2198 C2186 1.392 . S
C2198 C2199 1.367 . S
C2198 H2206 0.930 . S
C2199 C2197 1.413 . S
C2199 C2198 1.367 . S
C2199 H2201 0.930 . S
H2200 C2193 0.930 . S
H2201 C2199 0.930 . S
H2202 C2190 0.930 . S
H2203 C2191 0.930 . S
H2204 C2197 0.929 . S
H2205 C2219 0.930 . S
H2206 C2198 0.930 . S
H2207 C2225 0.930 . S
H2208 C2216 0.929 . S
H2209 C2223 0.930 . S
H2210 C2187 0.931 . S
H2211 C2217 0.930 . S
H2212 C2250 0.930 . S
H2213 C2194 0.930 . S
H2214 C2249 0.931 . S
N2215 Eu2184 2.657 . S
N2215 C2216 1.334 . S
N2215 C2220 1.362 . S
C2216 H2208 0.929 . S
C2216 N2215 1.334 . S
C2216 C2219 1.413 . S
C2217 H2211 0.930 . S
C2217 C2218 1.392 . S
C2217 C2219 1.367 . S
C2218 C2217 1.392 . S
C2218 C2220 1.420 . S
C2218 C2250 1.423 . S
C2219 H2205 0.930 . S
C2219 C2216 1.413 . S
C2219 C2217 1.367 . S
C2220 N2215 1.362 . S
C2220 C2218 1.420 . S
C2220 C2224 1.429 . S
H2221 C2226 0.930 . S
N2222 Eu2184 2.609 . S
N2222 C2224 1.377 . S
N2222 C2225 1.321 . S
C2223 H2209 0.930 . S
C2223 C2225 1.400 . S
C2223 C2226 1.386 . S
C2224 C2220 1.429 . S
C2224 N2222 1.377 . S
C2224 C2227 1.411 . S
C2225 H2207 0.930 . S
C2225 N2222 1.321 . S
C2225 C2223 1.400 . S
C2226 H2221 0.930 . S
C2226 C2223 1.386 . S
C2226 C2227 1.395 . S
C2227 C2224 1.411 . S
C2227 C2226 1.395 . S
C2227 C2249 1.420 . S
O2228 Eu2184 2.558 . S
O2228 C2248 1.257 . S
O2229 Eu2184 2.612 . S
O2229 Eu2195 2.380 . S
O2229 C2240 1.276 . S
O2230 Eu2195 2.432 . S
O2230 C2247 1.264 . S
O2231 Eu2184 2.339 . S
O2231 C2247 1.254 . S
O2232 Eu2184 2.563 . S
O2232 C2240 1.235 . S
O2233 Eu2184 2.419 . S
O2233 C2248 1.249 . S
O2234 Eu2195 2.558 . S
O2234 C2259 1.257 . S
O2235 Eu2184 2.380 . S
O2235 Eu2195 2.612 . S
O2235 C2251 1.276 . S
O2236 Eu2184 2.432 . S
O2236 C2258 1.264 . S
O2237 Eu2195 2.339 . S
O2237 C2258 1.254 . S
O2238 Eu2195 2.563 . S
O2238 C2251 1.235 . S
O2239 Eu2195 2.419 . S
O2239 C2259 1.249 . S
C2240 O2229 1.276 . S
C2240 O2232 1.235 . S
C2241 C2243 1.393 . S
C2241 C2245 1.395 . S
C2241 C2248 1.492 1_554 S
C2242 C2243 1.392 . S
C2242 C2244 1.386 . S
C2243 C2241 1.393 . S
C2243 C2242 1.392 . S
C2243 H2260 0.930 . S
C2244 C2242 1.386 . S
C2244 C2246 1.395 . S
C2244 H2261 0.930 . S
C2245 C2241 1.395 . S
C2245 C2246 1.379 . S
C2245 H2262 0.930 . S
C2246 C2244 1.395 . S
C2246 C2245 1.379 . S
C2246 H2263 0.930 . S
C2247 O2230 1.264 . S
C2247 O2231 1.254 . S
C2248 Eu2184 2.848 . S
C2248 O2228 1.257 . S
C2248 O2233 1.249 . S
C2248 C2241 1.492 1_556 S
C2249 H2214 0.931 . S
C2249 C2227 1.420 . S
C2249 C2250 1.351 . S
C2250 H2212 0.930 . S
C2250 C2218 1.423 . S
C2250 C2249 1.351 . S
C2251 O2235 1.276 . S
C2251 O2238 1.235 . S
C2252 C2253 1.393 . S
C2252 C2256 1.395 . S
C2252 C2259 1.492 . S
C2253 C2252 1.393 . S
C2253 C2254 1.392 . S
C2253 H2264 0.930 . S
C2254 C2253 1.392 . S
C2254 C2255 1.386 . S
C2255 C2254 1.386 . S
C2255 C2257 1.395 . S
C2255 H2265 0.930 . S
C2256 C2252 1.395 . S
C2256 C2257 1.379 . S
C2256 H2266 0.930 . S
C2257 C2255 1.395 . S
C2257 C2256 1.379 . S
C2257 H2267 0.930 . S
C2258 O2236 1.264 . S
C2258 O2237 1.254 . S
C2259 Eu2195 2.848 . S
C2259 O2234 1.257 . S
C2259 O2239 1.249 . S
C2259 C2252 1.492 . S
H2260 C2243 0.930 . S
H2261 C2244 0.930 . S
H2262 C2245 0.930 . S
H2263 C2246 0.930 . S
H2264 C2253 0.930 . S
H2265 C2255 0.930 . S
H2266 C2256 0.930 . S
H2267 C2257 0.930 . S
Eu2268 N2299 2.657 . S
Eu2268 N2306 2.609 . S
Eu2268 O2312 2.558 . S
Eu2268 O2313 2.612 . S
Eu2268 O2315 2.339 . S
Eu2268 O2316 2.563 . S
Eu2268 O2317 2.419 . S
Eu2268 O2319 2.380 . S
Eu2268 O2320 2.432 . S
Eu2268 C2332 2.848 1_554 S
C2269 C2272 1.429 . S
C2269 C2273 1.411 . S
C2269 N2276 1.377 . S
C2270 C2272 1.420 . S
C2270 C2274 1.423 . S
C2270 C2282 1.392 . S
C2271 C2273 1.420 . S
C2271 C2274 1.351 . S
C2271 H2294 0.931 . S
C2272 C2269 1.429 . S
C2272 C2270 1.420 . S
C2272 N2280 1.362 . S
C2273 C2269 1.411 . S
C2273 C2271 1.420 . S
C2273 C2278 1.395 . S
C2274 C2270 1.423 . S
C2274 C2271 1.351 . S
C2274 H2286 0.930 . S
C2275 C2277 1.400 . S
C2275 C2278 1.386 . S
C2275 H2287 0.930 . S
N2276 C2269 1.377 . S
N2276 C2277 1.321 . S
N2276 Eu2279 2.609 . S
C2277 C2275 1.400 . S
C2277 N2276 1.321 . S
C2277 H2284 0.930 . S
C2278 C2273 1.395 . S
C2278 C2275 1.386 . S
C2278 H2297 0.930 . S
Eu2279 N2276 2.609 . S
Eu2279 N2280 2.657 . S
Eu2279 O2313 2.380 . S
Eu2279 O2314 2.432 . S
Eu2279 O2318 2.558 . S
Eu2279 O2319 2.612 . S
Eu2279 O2321 2.339 . S
Eu2279 O2322 2.563 . S
Eu2279 O2323 2.419 . S
Eu2279 C2343 2.848 . S
N2280 C2272 1.362 . S
N2280 Eu2279 2.657 . S
N2280 C2281 1.334 . S
C2281 N2280 1.334 . S
C2281 C2283 1.413 . S
C2281 H2288 0.929 . S
C2282 C2270 1.392 . S
C2282 C2283 1.367 . S
C2282 H2290 0.930 . S
C2283 C2281 1.413 . S
C2283 C2282 1.367 . S
C2283 H2285 0.930 . S
H2284 C2277 0.930 . S
H2285 C2283 0.930 . S
H2286 C2274 0.930 . S
H2287 C2275 0.930 . S
H2288 C2281 0.929 . S
H2289 C2303 0.930 . S
H2290 C2282 0.930 . S
H2291 C2309 0.930 . S
H2292 C2300 0.929 . S
H2293 C2307 0.930 . S
H2294 C2271 0.931 . S
H2295 C2301 0.930 1_455 S
H2296 C2334 0.930 . S
H2297 C2278 0.930 . S
H2298 C2333 0.931 1_455 S
N2299 Eu2268 2.657 . S
N2299 C2300 1.334 . S
N2299 C2304 1.362 . S
C2300 H2292 0.929 . S
C2300 N2299 1.334 . S
C2300 C2303 1.413 . S
C2301 H2295 0.930 1_655 S
C2301 C2302 1.392 . S
C2301 C2303 1.367 . S
C2302 C2301 1.392 . S
C2302 C2304 1.420 . S
C2302 C2334 1.423 1_655 S
C2303 H2289 0.930 . S
C2303 C2300 1.413 . S
C2303 C2301 1.367 . S
C2304 N2299 1.362 . S
C2304 C2302 1.420 . S
C2304 C2308 1.429 . S
H2305 C2310 0.930 . S
N2306 Eu2268 2.609 . S
N2306 C2308 1.377 . S
N2306 C2309 1.321 . S
C2307 H2293 0.930 . S
C2307 C2309 1.400 . S
C2307 C2310 1.386 . S
C2308 C2304 1.429 . S
C2308 N2306 1.377 . S
C2308 C2311 1.411 . S
C2309 H2291 0.930 . S
C2309 N2306 1.321 . S
C2309 C2307 1.400 . S
C2310 H2305 0.930 . S
C2310 C2307 1.386 . S
C2310 C2311 1.395 . S
C2311 C2308 1.411 . S
C2311 C2310 1.395 . S
C2311 C2333 1.420 . S
O2312 Eu2268 2.558 . S
O2312 C2332 1.257 1_554 S
O2313 Eu2268 2.612 . S
O2313 Eu2279 2.380 . S
O2313 C2324 1.276 . S
O2314 Eu2279 2.432 . S
O2314 C2331 1.264 . S
O2315 Eu2268 2.339 . S
O2315 C2331 1.254 . S
O2316 Eu2268 2.563 . S
O2316 C2324 1.235 . S
O2317 Eu2268 2.419 . S
O2317 C2332 1.249 1_554 S
O2318 Eu2279 2.558 . S
O2318 C2343 1.257 . S
O2319 Eu2268 2.380 . S
O2319 Eu2279 2.612 . S
O2319 C2335 1.276 . S
O2320 Eu2268 2.432 . S
O2320 C2342 1.264 . S
O2321 Eu2279 2.339 . S
O2321 C2342 1.254 . S
O2322 Eu2279 2.563 . S
O2322 C2335 1.235 . S
O2323 Eu2279 2.419 . S
O2323 C2343 1.249 . S
C2324 O2313 1.276 . S
C2324 O2316 1.235 . S
C2325 C2327 1.393 . S
C2325 C2329 1.395 . S
C2325 C2332 1.492 . S
C2326 C2327 1.392 . S
C2326 C2328 1.386 . S
C2327 C2325 1.393 . S
C2327 C2326 1.392 . S
C2327 H2344 0.930 . S
C2328 C2326 1.386 . S
C2328 C2330 1.395 . S
C2328 H2345 0.930 . S
C2329 C2325 1.395 . S
C2329 C2330 1.379 . S
C2329 H2346 0.930 . S
C2330 C2328 1.395 . S
C2330 C2329 1.379 . S
C2330 H2347 0.930 . S
C2331 O2314 1.264 . S
C2331 O2315 1.254 . S
C2332 Eu2268 2.848 1_556 S
C2332 O2312 1.257 1_556 S
C2332 O2317 1.249 1_556 S
C2332 C2325 1.492 . S
C2333 H2298 0.931 1_655 S
C2333 C2311 1.420 . S
C2333 C2334 1.351 1_655 S
C2334 H2296 0.930 . S
C2334 C2302 1.423 1_455 S
C2334 C2333 1.351 1_455 S
C2335 O2319 1.276 . S
C2335 O2322 1.235 . S
C2336 C2337 1.393 . S
C2336 C2340 1.395 . S
C2336 C2343 1.492 . S
C2337 C2336 1.393 . S
C2337 C2338 1.392 . S
C2337 H2348 0.930 . S
C2338 C2337 1.392 . S
C2338 C2339 1.386 . S
C2339 C2338 1.386 . S
C2339 C2341 1.395 . S
C2339 H2349 0.930 . S
C2340 C2336 1.395 . S
C2340 C2341 1.379 . S
C2340 H2350 0.930 . S
C2341 C2339 1.395 . S
C2341 C2340 1.379 . S
C2341 H2351 0.930 . S
C2342 O2320 1.264 . S
C2342 O2321 1.254 . S
C2343 Eu2279 2.848 . S
C2343 O2318 1.257 . S
C2343 O2323 1.249 . S
C2343 C2336 1.492 . S
H2344 C2327 0.930 . S
H2345 C2328 0.930 . S
H2346 C2329 0.930 . S
H2347 C2330 0.930 . S
H2348 C2337 0.930 . S
H2349 C2339 0.930 . S
H2350 C2340 0.930 . S
H2351 C2341 0.930 . S
Eu2352 N2383 2.657 . S
Eu2352 N2390 2.609 . S
Eu2352 O2396 2.558 . S
Eu2352 O2397 2.612 . S
Eu2352 O2399 2.339 . S
Eu2352 O2400 2.563 . S
Eu2352 O2401 2.419 . S
Eu2352 O2403 2.380 . S
Eu2352 O2404 2.432 1_545 S
Eu2352 C2416 2.848 1_554 S
C2353 C2356 1.429 . S
C2353 C2357 1.411 . S
C2353 N2360 1.377 . S
C2354 C2356 1.420 . S
C2354 C2358 1.423 . S
C2354 C2366 1.392 1_545 S
C2355 C2357 1.420 . S
C2355 C2358 1.351 . S
C2355 H2378 0.931 . S
C2356 C2353 1.429 . S
C2356 C2354 1.420 . S
C2356 N2364 1.362 . S
C2357 C2353 1.411 . S
C2357 C2355 1.420 . S
C2357 C2362 1.395 . S
C2358 C2354 1.423 . S
C2358 C2355 1.351 . S
C2358 H2370 0.930 . S
C2359 C2361 1.400 . S
C2359 C2362 1.386 . S
C2359 H2371 0.930 . S
N2360 C2353 1.377 . S
N2360 C2361 1.321 . S
N2360 Eu2363 2.609 . S
C2361 C2359 1.400 . S
C2361 N2360 1.321 . S
C2361 H2368 0.930 . S
C2362 C2357 1.395 . S
C2362 C2359 1.386 . S
C2362 H2381 0.930 . S
Eu2363 N2360 2.609 . S
Eu2363 N2364 2.657 . S
Eu2363 O2397 2.380 . S
Eu2363 O2398 2.432 . S
Eu2363 O2402 2.558 . S
Eu2363 O2403 2.612 . S
Eu2363 O2405 2.339 . S
Eu2363 O2406 2.563 . S
Eu2363 O2407 2.419 . S
Eu2363 C2427 2.848 . S
N2364 C2356 1.362 . S
N2364 Eu2363 2.657 . S
N2364 C2365 1.334 1_545 S
C2365 N2364 1.334 1_565 S
C2365 C2367 1.413 . S
C2365 H2372 0.929 . S
C2366 C2354 1.392 1_565 S
C2366 C2367 1.367 . S
C2366 H2374 0.930 . S
C2367 C2365 1.413 . S
C2367 C2366 1.367 . S
C2367 H2369 0.930 . S
H2368 C2361 0.930 . S
H2369 C2367 0.930 . S
H2370 C2358 0.930 . S
H2371 C2359 0.930 . S
H2372 C2365 0.929 . S
H2373 C2387 0.930 . S
H2374 C2366 0.930 . S
H2375 C2393 0.930 . S
H2376 C2384 0.929 . S
H2377 C2391 0.930 . S
H2378 C2355 0.931 . S
H2379 C2385 0.930 . S
H2380 C2418 0.930 . S
H2381 C2362 0.930 . S
H2382 C2417 0.931 . S
N2383 Eu2352 2.657 . S
N2383 C2384 1.334 . S
N2383 C2388 1.362 . S
C2384 H2376 0.929 . S
C2384 N2383 1.334 . S
C2384 C2387 1.413 . S
C2385 H2379 0.930 . S
C2385 C2386 1.392 . S
C2385 C2387 1.367 . S
C2386 C2385 1.392 . S
C2386 C2388 1.420 . S
C2386 C2418 1.423 . S
C2387 H2373 0.930 . S
C2387 C2384 1.413 . S
C2387 C2385 1.367 . S
C2388 N2383 1.362 . S
C2388 C2386 1.420 . S
C2388 C2392 1.429 . S
H2389 C2394 0.930 . S
N2390 Eu2352 2.609 . S
N2390 C2392 1.377 . S
N2390 C2393 1.321 1_545 S
C2391 H2377 0.930 . S
C2391 C2393 1.400 . S
C2391 C2394 1.386 . S
C2392 C2388 1.429 . S
C2392 N2390 1.377 . S
C2392 C2395 1.411 . S
C2393 H2375 0.930 . S
C2393 N2390 1.321 1_565 S
C2393 C2391 1.400 . S
C2394 H2389 0.930 . S
C2394 C2391 1.386 . S
C2394 C2395 1.395 1_565 S
C2395 C2392 1.411 . S
C2395 C2394 1.395 1_545 S
C2395 C2417 1.420 . S
O2396 Eu2352 2.558 . S
O2396 C2416 1.257 1_554 S
O2397 Eu2352 2.612 . S
O2397 Eu2363 2.380 . S
O2397 C2408 1.276 . S
O2398 Eu2363 2.432 . S
O2398 C2415 1.264 . S
O2399 Eu2352 2.339 . S
O2399 C2415 1.254 . S
O2400 Eu2352 2.563 . S
O2400 C2408 1.235 . S
O2401 Eu2352 2.419 . S
O2401 C2416 1.249 1_554 S
O2402 Eu2363 2.558 . S
O2402 C2427 1.257 . S
O2403 Eu2352 2.380 . S
O2403 Eu2363 2.612 . S
O2403 C2419 1.276 . S
O2404 Eu2352 2.432 1_565 S
O2404 C2426 1.264 . S
O2405 Eu2363 2.339 . S
O2405 C2426 1.254 1_545 S
O2406 Eu2363 2.563 . S
O2406 C2419 1.235 . S
O2407 Eu2363 2.419 . S
O2407 C2427 1.249 . S
C2408 O2397 1.276 . S
C2408 O2400 1.235 . S
C2409 C2411 1.393 . S
C2409 C2413 1.395 . S
C2409 C2416 1.492 . S
C2410 C2411 1.392 . S
C2410 C2412 1.386 . S
C2411 C2409 1.393 . S
C2411 C2410 1.392 . S
C2411 H2428 0.930 . S
C2412 C2410 1.386 . S
C2412 C2414 1.395 . S
C2412 H2429 0.930 . S
C2413 C2409 1.395 . S
C2413 C2414 1.379 . S
C2413 H2430 0.930 . S
C2414 C2412 1.395 . S
C2414 C2413 1.379 . S
C2414 H2431 0.930 . S
C2415 O2398 1.264 . S
C2415 O2399 1.254 . S
C2416 Eu2352 2.848 1_556 S
C2416 O2396 1.257 1_556 S
C2416 O2401 1.249 1_556 S
C2416 C2409 1.492 . S
C2417 H2382 0.931 . S
C2417 C2395 1.420 . S
C2417 C2418 1.351 . S
C2418 H2380 0.930 . S
C2418 C2386 1.423 . S
C2418 C2417 1.351 . S
C2419 O2403 1.276 . S
C2419 O2406 1.235 . S
C2420 C2421 1.393 . S
C2420 C2424 1.395 . S
C2420 C2427 1.492 . S
C2421 C2420 1.393 . S
C2421 C2422 1.392 . S
C2421 H2432 0.930 . S
C2422 C2421 1.392 . S
C2422 C2423 1.386 . S
C2423 C2422 1.386 . S
C2423 C2425 1.395 . S
C2423 H2433 0.930 . S
C2424 C2420 1.395 . S
C2424 C2425 1.379 . S
C2424 H2434 0.930 . S
C2425 C2423 1.395 . S
C2425 C2424 1.379 . S
C2425 H2435 0.930 . S
C2426 O2404 1.264 . S
C2426 O2405 1.254 1_565 S
C2427 Eu2363 2.848 . S
C2427 O2402 1.257 . S
C2427 O2407 1.249 . S
C2427 C2420 1.492 . S
H2428 C2411 0.930 . S
H2429 C2412 0.930 . S
H2430 C2413 0.930 . S
H2431 C2414 0.930 . S
H2432 C2421 0.930 . S
H2433 C2423 0.930 . S
H2434 C2424 0.930 . S
H2435 C2425 0.930 . S
Eu2436 N2467 2.657 . S
Eu2436 N2474 2.609 . S
Eu2436 O2480 2.558 . S
Eu2436 O2481 2.612 . S
Eu2436 O2483 2.339 . S
Eu2436 O2484 2.563 . S
Eu2436 O2485 2.419 . S
Eu2436 O2487 2.380 . S
Eu2436 O2488 2.432 1_655 S
Eu2436 C2500 2.848 1_554 S
C2437 C2440 1.429 . S
C2437 C2441 1.411 . S
C2437 N2444 1.377 . S
C2438 C2440 1.420 . S
C2438 C2442 1.423 . S
C2438 C2450 1.392 1_655 S
C2439 C2441 1.420 . S
C2439 C2442 1.351 . S
C2439 H2462 0.931 . S
C2440 C2437 1.429 . S
C2440 C2438 1.420 . S
C2440 N2448 1.362 . S
C2441 C2437 1.411 . S
C2441 C2439 1.420 . S
C2441 C2446 1.395 . S
C2442 C2438 1.423 . S
C2442 C2439 1.351 . S
C2442 H2454 0.930 . S
C2443 C2445 1.400 . S
C2443 C2446 1.386 . S
C2443 H2455 0.930 . S
N2444 C2437 1.377 . S
N2444 C2445 1.321 . S
N2444 Eu2447 2.609 . S
C2445 C2443 1.400 . S
C2445 N2444 1.321 . S
C2445 H2452 0.930 . S
C2446 C2441 1.395 . S
C2446 C2443 1.386 . S
C2446 H2465 0.930 . S
Eu2447 N2444 2.609 . S
Eu2447 N2448 2.657 . S
Eu2447 O2481 2.380 . S
Eu2447 O2482 2.432 . S
Eu2447 O2486 2.558 . S
Eu2447 O2487 2.612 . S
Eu2447 O2489 2.339 . S
Eu2447 O2490 2.563 . S
Eu2447 O2491 2.419 . S
Eu2447 C2511 2.848 . S
N2448 C2440 1.362 . S
N2448 Eu2447 2.657 . S
N2448 C2449 1.334 1_655 S
C2449 N2448 1.334 1_455 S
C2449 C2451 1.413 . S
C2449 H2456 0.929 . S
C2450 C2438 1.392 1_455 S
C2450 C2451 1.367 . S
C2450 H2458 0.930 . S
C2451 C2449 1.413 . S
C2451 C2450 1.367 . S
C2451 H2453 0.930 . S
H2452 C2445 0.930 . S
H2453 C2451 0.930 . S
H2454 C2442 0.930 . S
H2455 C2443 0.930 . S
H2456 C2449 0.929 . S
H2457 C2471 0.930 . S
H2458 C2450 0.930 . S
H2459 C2477 0.930 . S
H2460 C2468 0.929 . S
H2461 C2475 0.930 . S
H2462 C2439 0.931 . S
H2463 C2469 0.930 1_565 S
H2464 C2502 0.930 . S
H2465 C2446 0.930 . S
H2466 C2501 0.931 1_565 S
N2467 Eu2436 2.657 . S
N2467 C2468 1.334 . S
N2467 C2472 1.362 . S
C2468 H2460 0.929 . S
C2468 N2467 1.334 . S
C2468 C2471 1.413 . S
C2469 H2463 0.930 1_545 S
C2469 C2470 1.392 . S
C2469 C2471 1.367 . S
C2470 C2469 1.392 . S
C2470 C2472 1.420 . S
C2470 C2502 1.423 1_545 S
C2471 H2457 0.930 . S
C2471 C2468 1.413 . S
C2471 C2469 1.367 . S
C2472 N2467 1.362 . S
C2472 C2470 1.420 . S
C2472 C2476 1.429 . S
H2473 C2478 0.930 . S
N2474 Eu2436 2.609 . S
N2474 C2476 1.377 . S
N2474 C2477 1.321 1_655 S
C2475 H2461 0.930 . S
C2475 C2477 1.400 . S
C2475 C2478 1.386 . S
C2476 C2472 1.429 . S
C2476 N2474 1.377 . S
C2476 C2479 1.411 . S
C2477 H2459 0.930 . S
C2477 N2474 1.321 1_455 S
C2477 C2475 1.400 . S
C2478 H2473 0.930 . S
C2478 C2475 1.386 . S
C2478 C2479 1.395 1_455 S
C2479 C2476 1.411 . S
C2479 C2478 1.395 1_655 S
C2479 C2501 1.420 . S
O2480 Eu2436 2.558 . S
O2480 C2500 1.257 1_554 S
O2481 Eu2436 2.612 . S
O2481 Eu2447 2.380 . S
O2481 C2492 1.276 . S
O2482 Eu2447 2.432 . S
O2482 C2499 1.264 . S
O2483 Eu2436 2.339 . S
O2483 C2499 1.254 . S
O2484 Eu2436 2.563 . S
O2484 C2492 1.235 . S
O2485 Eu2436 2.419 . S
O2485 C2500 1.249 1_554 S
O2486 Eu2447 2.558 . S
O2486 C2511 1.257 . S
O2487 Eu2436 2.380 . S
O2487 Eu2447 2.612 . S
O2487 C2503 1.276 . S
O2488 Eu2436 2.432 1_455 S
O2488 C2510 1.264 . S
O2489 Eu2447 2.339 . S
O2489 C2510 1.254 1_655 S
O2490 Eu2447 2.563 . S
O2490 C2503 1.235 . S
O2491 Eu2447 2.419 . S
O2491 C2511 1.249 . S
C2492 O2481 1.276 . S
C2492 O2484 1.235 . S
C2493 C2495 1.393 . S
C2493 C2497 1.395 . S
C2493 C2500 1.492 . S
C2494 C2495 1.392 . S
C2494 C2496 1.386 . S
C2495 C2493 1.393 . S
C2495 C2494 1.392 . S
C2495 H2512 0.930 . S
C2496 C2494 1.386 . S
C2496 C2498 1.395 . S
C2496 H2513 0.930 . S
C2497 C2493 1.395 . S
C2497 C2498 1.379 . S
C2497 H2514 0.930 . S
C2498 C2496 1.395 . S
C2498 C2497 1.379 . S
C2498 H2515 0.930 . S
C2499 O2482 1.264 . S
C2499 O2483 1.254 . S
C2500 Eu2436 2.848 1_556 S
C2500 O2480 1.257 1_556 S
C2500 O2485 1.249 1_556 S
C2500 C2493 1.492 . S
C2501 H2466 0.931 1_545 S
C2501 C2479 1.420 . S
C2501 C2502 1.351 1_545 S
C2502 H2464 0.930 . S
C2502 C2470 1.423 1_565 S
C2502 C2501 1.351 1_565 S
C2503 O2487 1.276 . S
C2503 O2490 1.235 . S
C2504 C2505 1.393 . S
C2504 C2508 1.395 . S
C2504 C2511 1.492 . S
C2505 C2504 1.393 . S
C2505 C2506 1.392 . S
C2505 H2516 0.930 . S
C2506 C2505 1.392 . S
C2506 C2507 1.386 . S
C2507 C2506 1.386 . S
C2507 C2509 1.395 . S
C2507 H2517 0.930 . S
C2508 C2504 1.395 . S
C2508 C2509 1.379 . S
C2508 H2518 0.930 . S
C2509 C2507 1.395 . S
C2509 C2508 1.379 . S
C2509 H2519 0.930 . S
C2510 O2488 1.264 . S
C2510 O2489 1.254 1_455 S
C2511 Eu2447 2.848 . S
C2511 O2486 1.257 . S
C2511 O2491 1.249 . S
C2511 C2504 1.492 . S
H2512 C2495 0.930 . S
H2513 C2496 0.930 . S
H2514 C2497 0.930 . S
H2515 C2498 0.930 . S
H2516 C2505 0.930 . S
H2517 C2507 0.930 . S
H2518 C2508 0.930 . S
H2519 C2509 0.930 . S
Eu2520 N2551 2.657 . S
Eu2520 N2558 2.609 . S
Eu2520 O2564 2.558 . S
Eu2520 O2565 2.612 . S
Eu2520 O2567 2.339 . S
Eu2520 O2568 2.563 . S
Eu2520 O2569 2.419 . S
Eu2520 O2571 2.380 . S
Eu2520 O2572 2.432 . S
Eu2520 C2584 2.848 . S
C2521 C2524 1.429 . S
C2521 C2525 1.411 . S
C2521 N2528 1.377 . S
C2522 C2524 1.420 . S
C2522 C2526 1.423 1_545 S
C2522 C2534 1.392 . S
C2523 C2525 1.420 . S
C2523 C2526 1.351 1_545 S
C2523 H2546 0.931 1_545 S
C2524 C2521 1.429 . S
C2524 C2522 1.420 . S
C2524 N2532 1.362 . S
C2525 C2521 1.411 . S
C2525 C2523 1.420 . S
C2525 C2530 1.395 . S
C2526 C2522 1.423 1_565 S
C2526 C2523 1.351 1_565 S
C2526 H2538 0.930 . S
C2527 C2529 1.400 . S
C2527 C2530 1.386 . S
C2527 H2539 0.930 . S
N2528 C2521 1.377 . S
N2528 C2529 1.321 . S
N2528 Eu2531 2.609 . S
C2529 C2527 1.400 . S
C2529 N2528 1.321 . S
C2529 H2536 0.930 . S
C2530 C2525 1.395 . S
C2530 C2527 1.386 . S
C2530 H2549 0.930 . S
Eu2531 N2528 2.609 . S
Eu2531 N2532 2.657 . S
Eu2531 O2565 2.380 . S
Eu2531 O2566 2.432 . S
Eu2531 O2570 2.558 . S
Eu2531 O2571 2.612 . S
Eu2531 O2573 2.339 . S
Eu2531 O2574 2.563 . S
Eu2531 O2575 2.419 . S
Eu2531 C2595 2.848 . S
N2532 C2524 1.362 . S
N2532 Eu2531 2.657 . S
N2532 C2533 1.334 . S
C2533 N2532 1.334 . S
C2533 C2535 1.413 . S
C2533 H2540 0.929 . S
C2534 C2522 1.392 . S
C2534 C2535 1.367 . S
C2534 H2542 0.930 1_545 S
C2535 C2533 1.413 . S
C2535 C2534 1.367 . S
C2535 H2537 0.930 . S
H2536 C2529 0.930 . S
H2537 C2535 0.930 . S
H2538 C2526 0.930 . S
H2539 C2527 0.930 . S
H2540 C2533 0.929 . S
H2541 C2555 0.930 . S
H2542 C2534 0.930 1_565 S
H2543 C2561 0.930 . S
H2544 C2552 0.929 . S
H2545 C2559 0.930 . S
H2546 C2523 0.931 1_565 S
H2547 C2553 0.930 . S
H2548 C2586 0.930 . S
H2549 C2530 0.930 . S
H2550 C2585 0.931 . S
N2551 Eu2520 2.657 . S
N2551 C2552 1.334 . S
N2551 C2556 1.362 . S
C2552 H2544 0.929 . S
C2552 N2551 1.334 . S
C2552 C2555 1.413 . S
C2553 H2547 0.930 . S
C2553 C2554 1.392 . S
C2553 C2555 1.367 . S
C2554 C2553 1.392 . S
C2554 C2556 1.420 . S
C2554 C2586 1.423 . S
C2555 H2541 0.930 . S
C2555 C2552 1.413 . S
C2555 C2553 1.367 . S
C2556 N2551 1.362 . S
C2556 C2554 1.420 . S
C2556 C2560 1.429 . S
H2557 C2562 0.930 . S
N2558 Eu2520 2.609 . S
N2558 C2560 1.377 . S
N2558 C2561 1.321 . S
C2559 H2545 0.930 . S
C2559 C2561 1.400 . S
C2559 C2562 1.386 . S
C2560 C2556 1.429 . S
C2560 N2558 1.377 . S
C2560 C2563 1.411 . S
C2561 H2543 0.930 . S
C2561 N2558 1.321 . S
C2561 C2559 1.400 . S
C2562 H2557 0.930 . S
C2562 C2559 1.386 . S
C2562 C2563 1.395 . S
C2563 C2560 1.411 . S
C2563 C2562 1.395 . S
C2563 C2585 1.420 . S
O2564 Eu2520 2.558 . S
O2564 C2584 1.257 . S
O2565 Eu2520 2.612 . S
O2565 Eu2531 2.380 . S
O2565 C2576 1.276 . S
O2566 Eu2531 2.432 . S
O2566 C2583 1.264 . S
O2567 Eu2520 2.339 . S
O2567 C2583 1.254 . S
O2568 Eu2520 2.563 . S
O2568 C2576 1.235 . S
O2569 Eu2520 2.419 . S
O2569 C2584 1.249 . S
O2570 Eu2531 2.558 . S
O2570 C2595 1.257 . S
O2571 Eu2520 2.380 . S
O2571 Eu2531 2.612 . S
O2571 C2587 1.276 . S
O2572 Eu2520 2.432 . S
O2572 C2594 1.264 . S
O2573 Eu2531 2.339 . S
O2573 C2594 1.254 . S
O2574 Eu2531 2.563 . S
O2574 C2587 1.235 . S
O2575 Eu2531 2.419 . S
O2575 C2595 1.249 . S
C2576 O2565 1.276 . S
C2576 O2568 1.235 . S
C2577 C2579 1.393 . S
C2577 C2581 1.395 . S
C2577 C2584 1.492 . S
C2578 C2579 1.392 1_554 S
C2578 C2580 1.386 . S
C2579 C2577 1.393 . S
C2579 C2578 1.392 1_556 S
C2579 H2596 0.930 . S
C2580 C2578 1.386 . S
C2580 C2582 1.395 1_554 S
C2580 H2597 0.930 . S
C2581 C2577 1.395 . S
C2581 C2582 1.379 . S
C2581 H2598 0.930 . S
C2582 C2580 1.395 1_556 S
C2582 C2581 1.379 . S
C2582 H2599 0.930 1_556 S
C2583 O2566 1.264 . S
C2583 O2567 1.254 . S
C2584 Eu2520 2.848 . S
C2584 O2564 1.257 . S
C2584 O2569 1.249 . S
C2584 C2577 1.492 . S
C2585 H2550 0.931 . S
C2585 C2563 1.420 . S
C2585 C2586 1.351 . S
C2586 H2548 0.930 . S
C2586 C2554 1.423 . S
C2586 C2585 1.351 . S
C2587 O2571 1.276 . S
C2587 O2574 1.235 . S
C2588 C2589 1.393 . S
C2588 C2592 1.395 . S
C2588 C2595 1.492 . S
C2589 C2588 1.393 . S
C2589 C2590 1.392 . S
C2589 H2600 0.930 . S
C2590 C2589 1.392 . S
C2590 C2591 1.386 . S
C2591 C2590 1.386 . S
C2591 C2593 1.395 . S
C2591 H2601 0.930 . S
C2592 C2588 1.395 . S
C2592 C2593 1.379 . S
C2592 H2602 0.930 . S
C2593 C2591 1.395 . S
C2593 C2592 1.379 . S
C2593 H2603 0.930 . S
C2594 O2572 1.264 . S
C2594 O2573 1.254 . S
C2595 Eu2531 2.848 . S
C2595 O2570 1.257 . S
C2595 O2575 1.249 . S
C2595 C2588 1.492 . S
H2596 C2579 0.930 . S
H2597 C2580 0.930 . S
H2598 C2581 0.930 . S
H2599 C2582 0.930 1_554 S
H2600 C2589 0.930 . S
H2601 C2591 0.930 . S
H2602 C2592 0.930 . S
H2603 C2593 0.930 . S
Eu2604 N2635 2.657 . S
Eu2604 N2642 2.609 . S
Eu2604 O2648 2.558 . S
Eu2604 O2649 2.612 . S
Eu2604 O2651 2.339 . S
Eu2604 O2652 2.563 . S
Eu2604 O2653 2.419 . S
Eu2604 O2655 2.380 . S
Eu2604 O2656 2.432 . S
Eu2604 C2668 2.848 . S
C2605 C2608 1.429 . S
C2605 C2609 1.411 . S
C2605 N2612 1.377 . S
C2606 C2608 1.420 . S
C2606 C2610 1.423 1_655 S
C2606 C2618 1.392 . S
C2607 C2609 1.420 . S
C2607 C2610 1.351 1_655 S
C2607 H2630 0.931 1_655 S
C2608 C2605 1.429 . S
C2608 C2606 1.420 . S
C2608 N2616 1.362 . S
C2609 C2605 1.411 . S
C2609 C2607 1.420 . S
C2609 C2614 1.395 1_545 S
C2610 C2606 1.423 1_455 S
C2610 C2607 1.351 1_455 S
C2610 H2622 0.930 . S
C2611 C2613 1.400 . S
C2611 C2614 1.386 . S
C2611 H2623 0.930 . S
N2612 C2605 1.377 . S
N2612 C2613 1.321 1_545 S
N2612 Eu2615 2.609 . S
C2613 C2611 1.400 . S
C2613 N2612 1.321 1_565 S
C2613 H2620 0.930 . S
C2614 C2609 1.395 1_565 S
C2614 C2611 1.386 . S
C2614 H2633 0.930 . S
Eu2615 N2612 2.609 . S
Eu2615 N2616 2.657 . S
Eu2615 O2649 2.380 . S
Eu2615 O2650 2.432 1_545 S
Eu2615 O2654 2.558 . S
Eu2615 O2655 2.612 . S
Eu2615 O2657 2.339 . S
Eu2615 O2658 2.563 . S
Eu2615 O2659 2.419 . S
Eu2615 C2679 2.848 . S
N2616 C2608 1.362 . S
N2616 Eu2615 2.657 . S
N2616 C2617 1.334 . S
C2617 N2616 1.334 . S
C2617 C2619 1.413 . S
C2617 H2624 0.929 . S
C2618 C2606 1.392 . S
C2618 C2619 1.367 . S
C2618 H2626 0.930 1_655 S
C2619 C2617 1.413 . S
C2619 C2618 1.367 . S
C2619 H2621 0.930 . S
H2620 C2613 0.930 . S
H2621 C2619 0.930 . S
H2622 C2610 0.930 . S
H2623 C2611 0.930 . S
H2624 C2617 0.929 . S
H2625 C2639 0.930 . S
H2626 C2618 0.930 1_455 S
H2627 C2645 0.930 . S
H2628 C2636 0.929 . S
H2629 C2643 0.930 . S
H2630 C2607 0.931 1_455 S
H2631 C2637 0.930 . S
H2632 C2670 0.930 . S
H2633 C2614 0.930 . S
H2634 C2669 0.931 . S
N2635 Eu2604 2.657 . S
N2635 C2636 1.334 1_545 S
N2635 C2640 1.362 . S
C2636 H2628 0.929 . S
C2636 N2635 1.334 1_565 S
C2636 C2639 1.413 . S
C2637 H2631 0.930 . S
C2637 C2638 1.392 1_565 S
C2637 C2639 1.367 . S
C2638 C2637 1.392 1_545 S
C2638 C2640 1.420 . S
C2638 C2670 1.423 . S
C2639 H2625 0.930 . S
C2639 C2636 1.413 . S
C2639 C2637 1.367 . S
C2640 N2635 1.362 . S
C2640 C2638 1.420 . S
C2640 C2644 1.429 . S
H2641 C2646 0.930 . S
N2642 Eu2604 2.609 . S
N2642 C2644 1.377 . S
N2642 C2645 1.321 . S
C2643 H2629 0.930 . S
C2643 C2645 1.400 . S
C2643 C2646 1.386 . S
C2644 C2640 1.429 . S
C2644 N2642 1.377 . S
C2644 C2647 1.411 . S
C2645 H2627 0.930 . S
C2645 N2642 1.321 . S
C2645 C2643 1.400 . S
C2646 H2641 0.930 . S
C2646 C2643 1.386 . S
C2646 C2647 1.395 . S
C2647 C2644 1.411 . S
C2647 C2646 1.395 . S
C2647 C2669 1.420 . S
O2648 Eu2604 2.558 . S
O2648 C2668 1.257 . S
O2649 Eu2604 2.612 . S
O2649 Eu2615 2.380 . S
O2649 C2660 1.276 . S
O2650 Eu2615 2.432 1_565 S
O2650 C2667 1.264 . S
O2651 Eu2604 2.339 . S
O2651 C2667 1.254 1_545 S
O2652 Eu2604 2.563 . S
O2652 C2660 1.235 . S
O2653 Eu2604 2.419 . S
O2653 C2668 1.249 . S
O2654 Eu2615 2.558 . S
O2654 C2679 1.257 . S
O2655 Eu2604 2.380 . S
O2655 Eu2615 2.612 . S
O2655 C2671 1.276 . S
O2656 Eu2604 2.432 . S
O2656 C2678 1.264 . S
O2657 Eu2615 2.339 . S
O2657 C2678 1.254 . S
O2658 Eu2615 2.563 . S
O2658 C2671 1.235 . S
O2659 Eu2615 2.419 . S
O2659 C2679 1.249 . S
C2660 O2649 1.276 . S
C2660 O2652 1.235 . S
C2661 C2663 1.393 . S
C2661 C2665 1.395 . S
C2661 C2668 1.492 . S
C2662 C2663 1.392 1_554 S
C2662 C2664 1.386 . S
C2663 C2661 1.393 . S
C2663 C2662 1.392 1_556 S
C2663 H2680 0.930 . S
C2664 C2662 1.386 . S
C2664 C2666 1.395 1_554 S
C2664 H2681 0.930 . S
C2665 C2661 1.395 . S
C2665 C2666 1.379 . S
C2665 H2682 0.930 . S
C2666 C2664 1.395 1_556 S
C2666 C2665 1.379 . S
C2666 H2683 0.930 1_556 S
C2667 O2650 1.264 . S
C2667 O2651 1.254 1_565 S
C2668 Eu2604 2.848 . S
C2668 O2648 1.257 . S
C2668 O2653 1.249 . S
C2668 C2661 1.492 . S
C2669 H2634 0.931 . S
C2669 C2647 1.420 . S
C2669 C2670 1.351 . S
C2670 H2632 0.930 . S
C2670 C2638 1.423 . S
C2670 C2669 1.351 . S
C2671 O2655 1.276 . S
C2671 O2658 1.235 . S
C2672 C2673 1.393 . S
C2672 C2676 1.395 . S
C2672 C2679 1.492 . S
C2673 C2672 1.393 . S
C2673 C2674 1.392 . S
C2673 H2684 0.930 . S
C2674 C2673 1.392 . S
C2674 C2675 1.386 . S
C2675 C2674 1.386 . S
C2675 C2677 1.395 . S
C2675 H2685 0.930 . S
C2676 C2672 1.395 . S
C2676 C2677 1.379 . S
C2676 H2686 0.930 . S
C2677 C2675 1.395 . S
C2677 C2676 1.379 . S
C2677 H2687 0.930 . S
C2678 O2656 1.264 . S
C2678 O2657 1.254 . S
C2679 Eu2615 2.848 . S
C2679 O2654 1.257 . S
C2679 O2659 1.249 . S
C2679 C2672 1.492 . S
H2680 C2663 0.930 . S
H2681 C2664 0.930 . S
H2682 C2665 0.930 . S
H2683 C2666 0.930 1_554 S
H2684 C2673 0.930 . S
H2685 C2675 0.930 . S
H2686 C2676 0.930 . S
H2687 C2677 0.930 . S
Eu2688 N2719 2.657 . S
Eu2688 N2726 2.609 . S
Eu2688 O2732 2.558 . S
Eu2688 O2733 2.612 . S
Eu2688 O2735 2.339 . S
Eu2688 O2736 2.563 . S
Eu2688 O2737 2.419 . S
Eu2688 O2739 2.380 . S
Eu2688 O2740 2.432 . S
Eu2688 C2752 2.848 . S
C2689 C2692 1.429 . S
C2689 C2693 1.411 . S
C2689 N2696 1.377 . S
C2690 C2692 1.420 . S
C2690 C2694 1.423 . S
C2690 C2702 1.392 . S
C2691 C2693 1.420 . S
C2691 C2694 1.351 . S
C2691 H2714 0.931 . S
C2692 C2689 1.429 . S
C2692 C2690 1.420 . S
C2692 N2700 1.362 . S
C2693 C2689 1.411 . S
C2693 C2691 1.420 . S
C2693 C2698 1.395 1_655 S
C2694 C2690 1.423 . S
C2694 C2691 1.351 . S
C2694 H2706 0.930 . S
C2695 C2697 1.400 . S
C2695 C2698 1.386 . S
C2695 H2707 0.930 . S
N2696 C2689 1.377 . S
N2696 C2697 1.321 1_655 S
N2696 Eu2699 2.609 . S
C2697 C2695 1.400 . S
C2697 N2696 1.321 1_455 S
C2697 H2704 0.930 . S
C2698 C2693 1.395 1_455 S
C2698 C2695 1.386 . S
C2698 H2717 0.930 . S
Eu2699 N2696 2.609 . S
Eu2699 N2700 2.657 . S
Eu2699 O2733 2.380 . S
Eu2699 O2734 2.432 1_655 S
Eu2699 O2738 2.558 . S
Eu2699 O2739 2.612 . S
Eu2699 O2741 2.339 . S
Eu2699 O2742 2.563 . S
Eu2699 O2743 2.419 . S
Eu2699 C2763 2.848 . S
N2700 C2692 1.362 . S
N2700 Eu2699 2.657 . S
N2700 C2701 1.334 . S
C2701 N2700 1.334 . S
C2701 C2703 1.413 . S
C2701 H2708 0.929 . S
C2702 C2690 1.392 . S
C2702 C2703 1.367 . S
C2702 H2710 0.930 . S
C2703 C2701 1.413 . S
C2703 C2702 1.367 . S
C2703 H2705 0.930 . S
H2704 C2697 0.930 . S
H2705 C2703 0.930 . S
H2706 C2694 0.930 . S
H2707 C2695 0.930 . S
H2708 C2701 0.929 . S
H2709 C2723 0.930 . S
H2710 C2702 0.930 . S
H2711 C2729 0.930 . S
H2712 C2720 0.929 . S
H2713 C2727 0.930 . S
H2714 C2691 0.931 . S
H2715 C2721 0.930 . S
H2716 C2754 0.930 . S
H2717 C2698 0.930 . S
H2718 C2753 0.931 . S
N2719 Eu2688 2.657 . S
N2719 C2720 1.334 1_655 S
N2719 C2724 1.362 . S
C2720 H2712 0.929 . S
C2720 N2719 1.334 1_455 S
C2720 C2723 1.413 . S
C2721 H2715 0.930 . S
C2721 C2722 1.392 1_455 S
C2721 C2723 1.367 . S
C2722 C2721 1.392 1_655 S
C2722 C2724 1.420 . S
C2722 C2754 1.423 . S
C2723 H2709 0.930 . S
C2723 C2720 1.413 . S
C2723 C2721 1.367 . S
C2724 N2719 1.362 . S
C2724 C2722 1.420 . S
C2724 C2728 1.429 . S
H2725 C2730 0.930 . S
N2726 Eu2688 2.609 . S
N2726 C2728 1.377 . S
N2726 C2729 1.321 . S
C2727 H2713 0.930 . S
C2727 C2729 1.400 . S
C2727 C2730 1.386 . S
C2728 C2724 1.429 . S
C2728 N2726 1.377 . S
C2728 C2731 1.411 . S
C2729 H2711 0.930 . S
C2729 N2726 1.321 . S
C2729 C2727 1.400 . S
C2730 H2725 0.930 . S
C2730 C2727 1.386 . S
C2730 C2731 1.395 . S
C2731 C2728 1.411 . S
C2731 C2730 1.395 . S
C2731 C2753 1.420 . S
O2732 Eu2688 2.558 . S
O2732 C2752 1.257 . S
O2733 Eu2688 2.612 . S
O2733 Eu2699 2.380 . S
O2733 C2744 1.276 . S
O2734 Eu2699 2.432 1_455 S
O2734 C2751 1.264 . S
O2735 Eu2688 2.339 . S
O2735 C2751 1.254 1_655 S
O2736 Eu2688 2.563 . S
O2736 C2744 1.235 . S
O2737 Eu2688 2.419 . S
O2737 C2752 1.249 . S
O2738 Eu2699 2.558 . S
O2738 C2763 1.257 . S
O2739 Eu2688 2.380 . S
O2739 Eu2699 2.612 . S
O2739 C2755 1.276 . S
O2740 Eu2688 2.432 . S
O2740 C2762 1.264 . S
O2741 Eu2699 2.339 . S
O2741 C2762 1.254 . S
O2742 Eu2699 2.563 . S
O2742 C2755 1.235 . S
O2743 Eu2699 2.419 . S
O2743 C2763 1.249 . S
C2744 O2733 1.276 . S
C2744 O2736 1.235 . S
C2745 C2747 1.393 . S
C2745 C2749 1.395 . S
C2745 C2752 1.492 . S
C2746 C2747 1.392 1_554 S
C2746 C2748 1.386 . S
C2747 C2745 1.393 . S
C2747 C2746 1.392 1_556 S
C2747 H2764 0.930 . S
C2748 C2746 1.386 . S
C2748 C2750 1.395 1_554 S
C2748 H2765 0.930 . S
C2749 C2745 1.395 . S
C2749 C2750 1.379 . S
C2749 H2766 0.930 . S
C2750 C2748 1.395 1_556 S
C2750 C2749 1.379 . S
C2750 H2767 0.930 1_556 S
C2751 O2734 1.264 . S
C2751 O2735 1.254 1_455 S
C2752 Eu2688 2.848 . S
C2752 O2732 1.257 . S
C2752 O2737 1.249 . S
C2752 C2745 1.492 . S
C2753 H2718 0.931 . S
C2753 C2731 1.420 . S
C2753 C2754 1.351 . S
C2754 H2716 0.930 . S
C2754 C2722 1.423 . S
C2754 C2753 1.351 . S
C2755 O2739 1.276 . S
C2755 O2742 1.235 . S
C2756 C2757 1.393 . S
C2756 C2760 1.395 . S
C2756 C2763 1.492 . S
C2757 C2756 1.393 . S
C2757 C2758 1.392 . S
C2757 H2768 0.930 . S
C2758 C2757 1.392 . S
C2758 C2759 1.386 . S
C2759 C2758 1.386 . S
C2759 C2761 1.395 . S
C2759 H2769 0.930 . S
C2760 C2756 1.395 . S
C2760 C2761 1.379 . S
C2760 H2770 0.930 . S
C2761 C2759 1.395 . S
C2761 C2760 1.379 . S
C2761 H2771 0.930 . S
C2762 O2740 1.264 . S
C2762 O2741 1.254 . S
C2763 Eu2699 2.848 . S
C2763 O2738 1.257 . S
C2763 O2743 1.249 . S
C2763 C2756 1.492 . S
H2764 C2747 0.930 . S
H2765 C2748 0.930 . S
H2766 C2749 0.930 . S
H2767 C2750 0.930 1_554 S
H2768 C2757 0.930 . S
H2769 C2759 0.930 . S
H2770 C2760 0.930 . S
H2771 C2761 0.930 . S
Eu2772 N2803 2.657 . S
Eu2772 N2810 2.609 . S
Eu2772 O2816 2.558 . S
Eu2772 O2817 2.612 . S
Eu2772 O2819 2.339 . S
Eu2772 O2820 2.563 . S
Eu2772 O2821 2.419 . S
Eu2772 O2823 2.380 . S
Eu2772 O2824 2.432 . S
Eu2772 C2836 2.848 . S
C2773 C2776 1.429 . S
C2773 C2777 1.411 . S
C2773 N2780 1.377 . S
C2774 C2776 1.420 . S
C2774 C2778 1.423 . S
C2774 C2786 1.392 . S
C2775 C2777 1.420 . S
C2775 C2778 1.351 . S
C2775 H2798 0.931 . S
C2776 C2773 1.429 . S
C2776 C2774 1.420 . S
C2776 N2784 1.362 . S
C2777 C2773 1.411 . S
C2777 C2775 1.420 . S
C2777 C2782 1.395 . S
C2778 C2774 1.423 . S
C2778 C2775 1.351 . S
C2778 H2790 0.930 . S
C2779 C2781 1.400 . S
C2779 C2782 1.386 . S
C2779 H2791 0.930 . S
N2780 C2773 1.377 . S
N2780 C2781 1.321 . S
N2780 Eu2783 2.609 . S
C2781 C2779 1.400 . S
C2781 N2780 1.321 . S
C2781 H2788 0.930 . S
C2782 C2777 1.395 . S
C2782 C2779 1.386 . S
C2782 H2801 0.930 . S
Eu2783 N2780 2.609 . S
Eu2783 N2784 2.657 . S
Eu2783 O2817 2.380 . S
Eu2783 O2818 2.432 . S
Eu2783 O2822 2.558 . S
Eu2783 O2823 2.612 . S
Eu2783 O2825 2.339 . S
Eu2783 O2826 2.563 . S
Eu2783 O2827 2.419 . S
Eu2783 C2847 2.848 . S
N2784 C2776 1.362 . S
N2784 Eu2783 2.657 . S
N2784 C2785 1.334 . S
C2785 N2784 1.334 . S
C2785 C2787 1.413 . S
C2785 H2792 0.929 . S
C2786 C2774 1.392 . S
C2786 C2787 1.367 . S
C2786 H2794 0.930 . S
C2787 C2785 1.413 . S
C2787 C2786 1.367 . S
C2787 H2789 0.930 . S
H2788 C2781 0.930 . S
H2789 C2787 0.930 . S
H2790 C2778 0.930 . S
H2791 C2779 0.930 . S
H2792 C2785 0.929 . S
H2793 C2807 0.930 . S
H2794 C2786 0.930 . S
H2795 C2813 0.930 . S
H2796 C2804 0.929 . S
H2797 C2811 0.930 . S
H2798 C2775 0.931 . S
H2799 C2805 0.930 . S
H2800 C2838 0.930 . S
H2801 C2782 0.930 . S
H2802 C2837 0.931 . S
N2803 Eu2772 2.657 . S
N2803 C2804 1.334 . S
N2803 C2808 1.362 1_655 S
C2804 H2796 0.929 . S
C2804 N2803 1.334 . S
C2804 C2807 1.413 1_655 S
C2805 H2799 0.930 . S
C2805 C2806 1.392 . S
C2805 C2807 1.367 . S
C2806 C2805 1.392 . S
C2806 C2808 1.420 . S
C2806 C2838 1.423 . S
C2807 H2793 0.930 . S
C2807 C2804 1.413 1_455 S
C2807 C2805 1.367 . S
C2808 N2803 1.362 1_455 S
C2808 C2806 1.420 . S
C2808 C2812 1.429 1_455 S
H2809 C2814 0.930 1_455 S
N2810 Eu2772 2.609 . S
N2810 C2812 1.377 . S
N2810 C2813 1.321 . S
C2811 H2797 0.930 . S
C2811 C2813 1.400 . S
C2811 C2814 1.386 . S
C2812 C2808 1.429 1_655 S
C2812 N2810 1.377 . S
C2812 C2815 1.411 1_655 S
C2813 H2795 0.930 . S
C2813 N2810 1.321 . S
C2813 C2811 1.400 . S
C2814 H2809 0.930 1_655 S
C2814 C2811 1.386 . S
C2814 C2815 1.395 1_655 S
C2815 C2812 1.411 1_455 S
C2815 C2814 1.395 1_455 S
C2815 C2837 1.420 . S
O2816 Eu2772 2.558 . S
O2816 C2836 1.257 . S
O2817 Eu2772 2.612 . S
O2817 Eu2783 2.380 . S
O2817 C2828 1.276 . S
O2818 Eu2783 2.432 . S
O2818 C2835 1.264 . S
O2819 Eu2772 2.339 . S
O2819 C2835 1.254 . S
O2820 Eu2772 2.563 . S
O2820 C2828 1.235 . S
O2821 Eu2772 2.419 . S
O2821 C2836 1.249 . S
O2822 Eu2783 2.558 . S
O2822 C2847 1.257 . S
O2823 Eu2772 2.380 . S
O2823 Eu2783 2.612 . S
O2823 C2839 1.276 . S
O2824 Eu2772 2.432 . S
O2824 C2846 1.264 . S
O2825 Eu2783 2.339 . S
O2825 C2846 1.254 . S
O2826 Eu2783 2.563 . S
O2826 C2839 1.235 . S
O2827 Eu2783 2.419 . S
O2827 C2847 1.249 . S
C2828 O2817 1.276 . S
C2828 O2820 1.235 . S
C2829 C2831 1.393 . S
C2829 C2833 1.395 . S
C2829 C2836 1.492 . S
C2830 C2831 1.392 1_556 S
C2830 C2832 1.388 1_655 S
C2831 C2829 1.393 . S
C2831 C2830 1.392 1_554 S
C2831 H2848 0.930 . S
C2832 C2830 1.388 1_455 S
C2832 C2834 1.390 1_455 S
C2832 H2849 0.932 . S
C2833 C2829 1.395 . S
C2833 C2834 1.379 1_554 S
C2833 H2850 0.930 . S
C2834 C2832 1.390 1_655 S
C2834 C2833 1.379 1_556 S
C2834 H2851 0.930 1_655 S
C2835 O2818 1.264 . S
C2835 O2819 1.254 . S
C2836 Eu2772 2.848 . S
C2836 O2816 1.257 . S
C2836 O2821 1.249 . S
C2836 C2829 1.492 . S
C2837 H2802 0.931 . S
C2837 C2815 1.420 . S
C2837 C2838 1.351 . S
C2838 H2800 0.930 . S
C2838 C2806 1.423 . S
C2838 C2837 1.351 . S
C2839 O2823 1.276 . S
C2839 O2826 1.235 . S
C2840 C2841 1.393 . S
C2840 C2844 1.395 . S
C2840 C2847 1.492 . S
C2841 C2840 1.393 . S
C2841 C2842 1.392 . S
C2841 H2852 0.930 . S
C2842 C2841 1.392 . S
C2842 C2843 1.386 . S
C2843 C2842 1.386 . S
C2843 C2845 1.395 . S
C2843 H2853 0.930 . S
C2844 C2840 1.395 . S
C2844 C2845 1.379 . S
C2844 H2854 0.930 . S
C2845 C2843 1.395 . S
C2845 C2844 1.379 . S
C2845 H2855 0.930 . S
C2846 O2824 1.264 . S
C2846 O2825 1.254 . S
C2847 Eu2783 2.848 . S
C2847 O2822 1.257 . S
C2847 O2827 1.249 . S
C2847 C2840 1.492 . S
H2848 C2831 0.930 . S
H2849 C2832 0.932 . S
H2850 C2833 0.930 . S
H2851 C2834 0.930 1_455 S
H2852 C2841 0.930 . S
H2853 C2843 0.930 . S
H2854 C2844 0.930 . S
H2855 C2845 0.930 . S
Eu2856 N2887 2.657 . S
Eu2856 N2894 2.609 . S
Eu2856 O2900 2.558 . S
Eu2856 O2901 2.612 . S
Eu2856 O2903 2.339 . S
Eu2856 O2904 2.563 . S
Eu2856 O2905 2.419 . S
Eu2856 O2907 2.380 . S
Eu2856 O2908 2.432 . S
Eu2856 C2920 2.848 . S
C2857 C2860 1.429 . S
C2857 C2861 1.411 . S
C2857 N2864 1.377 . S
C2858 C2860 1.420 . S
C2858 C2862 1.423 . S
C2858 C2870 1.392 . S
C2859 C2861 1.420 . S
C2859 C2862 1.351 . S
C2859 H2882 0.931 . S
C2860 C2857 1.429 . S
C2860 C2858 1.420 . S
C2860 N2868 1.362 . S
C2861 C2857 1.411 . S
C2861 C2859 1.420 . S
C2861 C2866 1.395 . S
C2862 C2858 1.423 . S
C2862 C2859 1.351 . S
C2862 H2874 0.930 . S
C2863 C2865 1.400 . S
C2863 C2866 1.386 . S
C2863 H2875 0.930 . S
N2864 C2857 1.377 . S
N2864 C2865 1.321 . S
N2864 Eu2867 2.609 . S
C2865 C2863 1.400 . S
C2865 N2864 1.321 . S
C2865 H2872 0.930 . S
C2866 C2861 1.395 . S
C2866 C2863 1.386 . S
C2866 H2885 0.930 . S
Eu2867 N2864 2.609 . S
Eu2867 N2868 2.657 . S
Eu2867 O2901 2.380 . S
Eu2867 O2902 2.432 . S
Eu2867 O2906 2.558 . S
Eu2867 O2907 2.612 . S
Eu2867 O2909 2.339 . S
Eu2867 O2910 2.563 . S
Eu2867 O2911 2.419 . S
Eu2867 C2931 2.848 . S
N2868 C2860 1.362 . S
N2868 Eu2867 2.657 . S
N2868 C2869 1.334 . S
C2869 N2868 1.334 . S
C2869 C2871 1.413 . S
C2869 H2876 0.929 . S
C2870 C2858 1.392 . S
C2870 C2871 1.367 . S
C2870 H2878 0.930 . S
C2871 C2869 1.413 . S
C2871 C2870 1.367 . S
C2871 H2873 0.930 . S
H2872 C2865 0.930 . S
H2873 C2871 0.930 . S
H2874 C2862 0.930 . S
H2875 C2863 0.930 . S
H2876 C2869 0.929 . S
H2877 C2891 0.930 . S
H2878 C2870 0.930 . S
H2879 C2897 0.930 . S
H2880 C2888 0.929 . S
H2881 C2895 0.930 . S
H2882 C2859 0.931 . S
H2883 C2889 0.930 . S
H2884 C2922 0.930 . S
H2885 C2866 0.930 . S
H2886 C2921 0.931 . S
N2887 Eu2856 2.657 . S
N2887 C2888 1.334 . S
N2887 C2892 1.362 . S
C2888 H2880 0.929 . S
C2888 N2887 1.334 . S
C2888 C2891 1.413 . S
C2889 H2883 0.930 . S
C2889 C2890 1.392 . S
C2889 C2891 1.367 . S
C2890 C2889 1.392 . S
C2890 C2892 1.420 . S
C2890 C2922 1.423 . S
C2891 H2877 0.930 . S
C2891 C2888 1.413 . S
C2891 C2889 1.367 . S
C2892 N2887 1.362 . S
C2892 C2890 1.420 . S
C2892 C2896 1.429 . S
H2893 C2898 0.930 . S
N2894 Eu2856 2.609 . S
N2894 C2896 1.377 . S
N2894 C2897 1.321 . S
C2895 H2881 0.930 . S
C2895 C2897 1.400 . S
C2895 C2898 1.386 . S
C2896 C2892 1.429 . S
C2896 N2894 1.377 . S
C2896 C2899 1.411 . S
C2897 H2879 0.930 . S
C2897 N2894 1.321 . S
C2897 C2895 1.400 . S
C2898 H2893 0.930 . S
C2898 C2895 1.386 . S
C2898 C2899 1.395 . S
C2899 C2896 1.411 . S
C2899 C2898 1.395 . S
C2899 C2921 1.420 . S
O2900 Eu2856 2.558 . S
O2900 C2920 1.257 . S
O2901 Eu2856 2.612 . S
O2901 Eu2867 2.380 . S
O2901 C2912 1.276 . S
O2902 Eu2867 2.432 . S
O2902 C2919 1.264 . S
O2903 Eu2856 2.339 . S
O2903 C2919 1.254 . S
O2904 Eu2856 2.563 . S
O2904 C2912 1.235 . S
O2905 Eu2856 2.419 . S
O2905 C2920 1.249 . S
O2906 Eu2867 2.558 . S
O2906 C2931 1.257 . S
O2907 Eu2856 2.380 . S
O2907 Eu2867 2.612 . S
O2907 C2923 1.276 . S
O2908 Eu2856 2.432 . S
O2908 C2930 1.264 . S
O2909 Eu2867 2.339 . S
O2909 C2930 1.254 . S
O2910 Eu2867 2.563 . S
O2910 C2923 1.235 . S
O2911 Eu2867 2.419 . S
O2911 C2931 1.249 . S
C2912 O2901 1.276 . S
C2912 O2904 1.235 . S
C2913 C2915 1.393 . S
C2913 C2917 1.395 . S
C2913 C2920 1.492 . S
C2914 C2915 1.392 1_556 S
C2914 C2916 1.386 . S
C2915 C2913 1.393 . S
C2915 C2914 1.392 1_554 S
C2915 H2932 0.930 . S
C2916 C2914 1.386 . S
C2916 C2918 1.395 . S
C2916 H2933 0.930 . S
C2917 C2913 1.395 . S
C2917 C2918 1.379 1_554 S
C2917 H2934 0.930 . S
C2918 C2916 1.395 . S
C2918 C2917 1.379 1_556 S
C2918 H2935 0.930 . S
C2919 O2902 1.264 . S
C2919 O2903 1.254 . S
C2920 Eu2856 2.848 . S
C2920 O2900 1.257 . S
C2920 O2905 1.249 . S
C2920 C2913 1.492 . S
C2921 H2886 0.931 . S
C2921 C2899 1.420 . S
C2921 C2922 1.351 . S
C2922 H2884 0.930 . S
C2922 C2890 1.423 . S
C2922 C2921 1.351 . S
C2923 O2907 1.276 . S
C2923 O2910 1.235 . S
C2924 C2925 1.393 . S
C2924 C2928 1.395 . S
C2924 C2931 1.492 . S
C2925 C2924 1.393 . S
C2925 C2926 1.392 . S
C2925 H2936 0.930 . S
C2926 C2925 1.392 . S
C2926 C2927 1.386 . S
C2927 C2926 1.386 . S
C2927 C2929 1.395 . S
C2927 H2937 0.930 . S
C2928 C2924 1.395 . S
C2928 C2929 1.379 . S
C2928 H2938 0.930 . S
C2929 C2927 1.395 . S
C2929 C2928 1.379 . S
C2929 H2939 0.930 . S
C2930 O2908 1.264 . S
C2930 O2909 1.254 . S
C2931 Eu2867 2.848 . S
C2931 O2906 1.257 . S
C2931 O2911 1.249 . S
C2931 C2924 1.492 . S
H2932 C2915 0.930 . S
H2933 C2916 0.930 . S
H2934 C2917 0.930 . S
H2935 C2918 0.930 . S
H2936 C2925 0.930 . S
H2937 C2927 0.930 . S
H2938 C2928 0.930 . S
H2939 C2929 0.930 . S
Eu2940 N2971 2.657 . S
Eu2940 N2978 2.609 . S
Eu2940 O2984 2.558 . S
Eu2940 O2985 2.612 . S
Eu2940 O2987 2.339 . S
Eu2940 O2988 2.563 . S
Eu2940 O2989 2.419 . S
Eu2940 O2991 2.380 . S
Eu2940 O2992 2.432 . S
Eu2940 C3004 2.848 . S
C2941 C2944 1.429 . S
C2941 C2945 1.411 . S
C2941 N2948 1.377 . S
C2942 C2944 1.420 . S
C2942 C2946 1.423 . S
C2942 C2954 1.392 . S
C2943 C2945 1.420 . S
C2943 C2946 1.351 . S
C2943 H2966 0.931 . S
C2944 C2941 1.429 . S
C2944 C2942 1.420 . S
C2944 N2952 1.362 . S
C2945 C2941 1.411 . S
C2945 C2943 1.420 . S
C2945 C2950 1.395 . S
C2946 C2942 1.423 . S
C2946 C2943 1.351 . S
C2946 H2958 0.930 . S
C2947 C2949 1.400 . S
C2947 C2950 1.386 . S
C2947 H2959 0.930 . S
N2948 C2941 1.377 . S
N2948 C2949 1.321 . S
N2948 Eu2951 2.609 . S
C2949 C2947 1.400 . S
C2949 N2948 1.321 . S
C2949 H2956 0.930 . S
C2950 C2945 1.395 . S
C2950 C2947 1.386 . S
C2950 H2969 0.930 . S
Eu2951 N2948 2.609 . S
Eu2951 N2952 2.657 . S
Eu2951 O2985 2.380 . S
Eu2951 O2986 2.432 . S
Eu2951 O2990 2.558 . S
Eu2951 O2991 2.612 . S
Eu2951 O2993 2.339 . S
Eu2951 O2994 2.563 . S
Eu2951 O2995 2.419 . S
Eu2951 C3015 2.848 . S
N2952 C2944 1.362 . S
N2952 Eu2951 2.657 . S
N2952 C2953 1.334 . S
C2953 N2952 1.334 . S
C2953 C2955 1.413 . S
C2953 H2960 0.929 . S
C2954 C2942 1.392 . S
C2954 C2955 1.367 . S
C2954 H2962 0.930 . S
C2955 C2953 1.413 . S
C2955 C2954 1.367 . S
C2955 H2957 0.930 . S
H2956 C2949 0.930 . S
H2957 C2955 0.930 . S
H2958 C2946 0.930 . S
H2959 C2947 0.930 . S
H2960 C2953 0.929 . S
H2961 C2975 0.930 . S
H2962 C2954 0.930 . S
H2963 C2981 0.930 . S
H2964 C2972 0.929 . S
H2965 C2979 0.930 . S
H2966 C2943 0.931 . S
H2967 C2973 0.930 . S
H2968 C3006 0.930 . S
H2969 C2950 0.930 . S
H2970 C3005 0.931 . S
N2971 Eu2940 2.657 . S
N2971 C2972 1.334 . S
N2971 C2976 1.362 1_545 S
C2972 H2964 0.929 . S
C2972 N2971 1.334 . S
C2972 C2975 1.413 1_545 S
C2973 H2967 0.930 . S
C2973 C2974 1.392 . S
C2973 C2975 1.367 . S
C2974 C2973 1.392 . S
C2974 C2976 1.420 . S
C2974 C3006 1.423 . S
C2975 H2961 0.930 . S
C2975 C2972 1.413 1_565 S
C2975 C2973 1.367 . S
C2976 N2971 1.362 1_565 S
C2976 C2974 1.420 . S
C2976 C2980 1.429 1_565 S
H2977 C2982 0.930 1_565 S
N2978 Eu2940 2.609 . S
N2978 C2980 1.377 . S
N2978 C2981 1.321 . S
C2979 H2965 0.930 . S
C2979 C2981 1.400 . S
C2979 C2982 1.386 . S
C2980 C2976 1.429 1_545 S
C2980 N2978 1.377 . S
C2980 C2983 1.411 1_545 S
C2981 H2963 0.930 . S
C2981 N2978 1.321 . S
C2981 C2979 1.400 . S
C2982 H2977 0.930 1_545 S
C2982 C2979 1.386 . S
C2982 C2983 1.395 1_545 S
C2983 C2980 1.411 1_565 S
C2983 C2982 1.395 1_565 S
C2983 C3005 1.420 . S
O2984 Eu2940 2.558 . S
O2984 C3004 1.257 . S
O2985 Eu2940 2.612 . S
O2985 Eu2951 2.380 . S
O2985 C2996 1.276 . S
O2986 Eu2951 2.432 . S
O2986 C3003 1.264 . S
O2987 Eu2940 2.339 . S
O2987 C3003 1.254 . S
O2988 Eu2940 2.563 . S
O2988 C2996 1.235 . S
O2989 Eu2940 2.419 . S
O2989 C3004 1.249 . S
O2990 Eu2951 2.558 . S
O2990 C3015 1.257 . S
O2991 Eu2940 2.380 . S
O2991 Eu2951 2.612 . S
O2991 C3007 1.276 . S
O2992 Eu2940 2.432 . S
O2992 C3014 1.264 . S
O2993 Eu2951 2.339 . S
O2993 C3014 1.254 . S
O2994 Eu2951 2.563 . S
O2994 C3007 1.235 . S
O2995 Eu2951 2.419 . S
O2995 C3015 1.249 . S
C2996 O2985 1.276 . S
C2996 O2988 1.235 . S
C2997 C2999 1.393 . S
C2997 C3001 1.395 . S
C2997 C3004 1.492 . S
C2998 C2999 1.392 1_556 S
C2998 C3000 1.380 1_545 S
C2999 C2997 1.393 . S
C2999 C2998 1.392 1_554 S
C2999 H3016 0.930 . S
C3000 C2998 1.380 1_565 S
C3000 C3002 1.397 1_565 S
C3000 H3017 0.934 . S
C3001 C2997 1.395 . S
C3001 C3002 1.379 1_554 S
C3001 H3018 0.930 . S
C3002 C3000 1.397 1_545 S
C3002 C3001 1.379 1_556 S
C3002 H3019 0.930 1_545 S
C3003 O2986 1.264 . S
C3003 O2987 1.254 . S
C3004 Eu2940 2.848 . S
C3004 O2984 1.257 . S
C3004 O2989 1.249 . S
C3004 C2997 1.492 . S
C3005 H2970 0.931 . S
C3005 C2983 1.420 . S
C3005 C3006 1.351 . S
C3006 H2968 0.930 . S
C3006 C2974 1.423 . S
C3006 C3005 1.351 . S
C3007 O2991 1.276 . S
C3007 O2994 1.235 . S
C3008 C3009 1.393 . S
C3008 C3012 1.395 . S
C3008 C3015 1.492 . S
C3009 C3008 1.393 . S
C3009 C3010 1.392 . S
C3009 H3020 0.930 . S
C3010 C3009 1.392 . S
C3010 C3011 1.386 . S
C3011 C3010 1.386 . S
C3011 C3013 1.395 . S
C3011 H3021 0.930 . S
C3012 C3008 1.395 . S
C3012 C3013 1.379 . S
C3012 H3022 0.930 . S
C3013 C3011 1.395 . S
C3013 C3012 1.379 . S
C3013 H3023 0.930 . S
C3014 O2992 1.264 . S
C3014 O2993 1.254 . S
C3015 Eu2951 2.848 . S
C3015 O2990 1.257 . S
C3015 O2995 1.249 . S
C3015 C3008 1.492 . S
H3016 C2999 0.930 . S
H3017 C3000 0.934 . S
H3018 C3001 0.930 . S
H3019 C3002 0.930 1_565 S
H3020 C3009 0.930 . S
H3021 C3011 0.930 . S
H3022 C3012 0.930 . S
H3023 C3013 0.930 . S
C1334 C74 4.699 1_556 S
C1418 C158 4.700 1_556 S
C242 C1502 4.699 1_554 S
C326 C2090 4.699 . S
C410 C2174 4.700 . S
C494 C2258 4.699 . S
C2835 C567 4.699 . S
C2919 C651 4.700 . S
C735 C3003 4.700 . S
C1575 C819 4.700 . S
C903 C1659 4.700 . S
C987 C1743 4.699 . S
C2342 C1082 4.700 . S
C1166 C2426 4.700 1_545 S
C2510 C1250 4.700 1_455 S
C2583 C1827 4.700 . S
C2667 C1911 4.700 1_565 S
C1995 C2751 4.699 1_655 S
C70 C406 1.656 1_655 S
C154 C490 1.656 . S
C238 C322 1.656 1_545 S
C562 C898 1.656 1_455 S
C646 C982 1.656 . S
C730 C814 1.656 1_565 S
C1078 C1414 1.656 . S
C1498 C1162 1.656 . S
C1246 C1330 1.656 . S
C1570 C1906 1.656 . S
C1654 C1990 1.656 . S
C1822 C1738 1.656 . S
C2086 C2422 1.656 . S
C2506 C2170 1.656 . S
C2254 C2338 1.656 . S
C2578 C2914 1.656 1_554 S
C2662 C2998 1.655 1_554 S
C2746 C2830 1.656 1_554 S
C910 C67 2.484 1_556 S
C151 C994 2.484 1_554 S
C235 C826 2.484 1_554 S
C319 C742 2.485 . S
C403 C574 2.484 . S
C658 C487 2.484 . S
C560 C394 2.484 . S
C478 C644 2.484 . S
C728 C310 2.484 . S
C812 C226 2.484 . S
C58 C896 2.485 . S
C142 C980 2.484 . S
C1918 C1075 2.485 . S
C2002 C1159 2.484 . S
C1834 C1243 2.484 . S
C1750 C1327 2.484 . S
C1411 C1582 2.484 . S
C1666 C1495 2.484 . S
C1402 C1568 2.485 . S
C1652 C1486 2.484 . S
C1736 C1318 2.484 . S
C1234 C1820 2.484 . S
C1904 C1066 2.484 . S
C1988 C1150 2.484 . S
C2083 C2926 2.484 . S
C2167 C3010 2.484 . S
C2842 C2251 2.484 . S
C2758 C2335 2.484 . S
C2419 C2590 2.485 . S
C2674 C2503 2.483 . S
C2576 C2410 2.484 . S
C2494 C2660 2.484 . S
C2744 C2326 2.484 . S
C2828 C2242 2.485 . S
C2074 C2912 2.484 . S
C2158 C2996 2.484 . S
C56 C392 4.251 1_455 S
C476 C140 4.251 . S
C224 C308 4.251 1_565 S
C571 C907 4.251 1_655 S
C991 C655 4.251 . S
C739 C823 4.251 1_545 S
C1400 C1064 4.251 . S
C1484 C1148 4.251 . S
C1316 C1232 4.251 . S
C1915 C1579 4.250 . S
C1663 C1999 4.251 . S
C1831 C1747 4.251 . S
C2408 C2072 4.251 1_554 S
C2156 C2492 4.251 1_556 S
C2240 C2324 4.251 1_556 S
C2923 C2587 4.251 . S
C2671 C3007 4.251 . S
C2755 C2839 4.250 . S
C63 C578 4.267 1_454 S
C147 C662 4.266 1_554 S
C746 C231 4.266 1_546 S
C830 C315 4.266 1_565 S
C399 C914 4.266 1_655 S
C483 C998 4.267 . S
C1586 C1071 4.266 . S
C1155 C1670 4.266 . S
C1754 C1239 4.266 . S
C1838 C1323 4.266 . S
C1922 C1407 4.267 . S
C2006 C1491 4.266 . S
C2594 C2079 4.266 . S
C2163 C2678 4.266 . S
C2762 C2247 4.267 . S
C2846 C2331 4.266 . S
C2930 C2415 4.266 . S
C2499 C3014 4.267 . S
