# Generated by pormake.
# Topology ict, (4)-cn, num edge types: 1
# Building blocks:
#     Node 0, Type 0, BuildingBlock: CEKHIL_clean_sbu_0, # of connection points: 4
#     Node 1, Type 0, BuildingBlock: CEKHIL_clean_sbu_0, # of connection points: 4
#     Node 2, Type 0, BuildingBlock: CEKHIL_clean_sbu_0, # of connection points: 4
#     Node 3, Type 0, BuildingBlock: CEKHIL_clean_sbu_0, # of connection points: 4
#     Node 4, Type 0, BuildingBlock: CEKHIL_clean_sbu_0, # of connection points: 4
#     Node 5, Type 0, BuildingBlock: CEKHIL_clean_sbu_0, # of connection points: 4
#     Node 6, Type 0, BuildingBlock: CEKHIL_clean_sbu_0, # of connection points: 4
#     Node 7, Type 0, BuildingBlock: CEKHIL_clean_sbu_0, # of connection points: 4
#     Node 8, Type 0, BuildingBlock: CEKHIL_clean_sbu_0, # of connection points: 4
#     Node 9, Type 0, BuildingBlock: CEKHIL_clean_sbu_0, # of connection points: 4
#     Node 10, Type 0, BuildingBlock: CEKHIL_clean_sbu_0, # of connection points: 4
#     Node 11, Type 0, BuildingBlock: CEKHIL_clean_sbu_0, # of connection points: 4
#     Node 12, Type 0, BuildingBlock: CEKHIL_clean_sbu_0, # of connection points: 4
#     Node 13, Type 0, BuildingBlock: CEKHIL_clean_sbu_0, # of connection points: 4
#     Node 14, Type 0, BuildingBlock: CEKHIL_clean_sbu_0, # of connection points: 4
#     Node 15, Type 0, BuildingBlock: CEKHIL_clean_sbu_0, # of connection points: 4
#     Node 16, Type 0, BuildingBlock: CEKHIL_clean_sbu_0, # of connection points: 4
#     Node 17, Type 0, BuildingBlock: CEKHIL_clean_sbu_0, # of connection points: 4
#     Node 18, Type 0, BuildingBlock: CEKHIL_clean_sbu_0, # of connection points: 4
#     Node 19, Type 0, BuildingBlock: CEKHIL_clean_sbu_0, # of connection points: 4
#     Node 20, Type 0, BuildingBlock: CEKHIL_clean_sbu_0, # of connection points: 4
#     Node 21, Type 0, BuildingBlock: CEKHIL_clean_sbu_0, # of connection points: 4
#     Node 22, Type 0, BuildingBlock: CEKHIL_clean_sbu_0, # of connection points: 4
#     Node 23, Type 0, BuildingBlock: CEKHIL_clean_sbu_0, # of connection points: 4
#     Node 24, Type 0, BuildingBlock: CEKHIL_clean_sbu_0, # of connection points: 4
#     Node 25, Type 0, BuildingBlock: CEKHIL_clean_sbu_0, # of connection points: 4
#     Node 26, Type 0, BuildingBlock: CEKHIL_clean_sbu_0, # of connection points: 4
#     Node 27, Type 0, BuildingBlock: CEKHIL_clean_sbu_0, # of connection points: 4
#     Node 28, Type 0, BuildingBlock: CEKHIL_clean_sbu_0, # of connection points: 4
#     Node 29, Type 0, BuildingBlock: CEKHIL_clean_sbu_0, # of connection points: 4
#     Node 30, Type 0, BuildingBlock: CEKHIL_clean_sbu_0, # of connection points: 4
#     Node 31, Type 0, BuildingBlock: CEKHIL_clean_sbu_0, # of connection points: 4
#     Node 32, Type 0, BuildingBlock: CEKHIL_clean_sbu_0, # of connection points: 4
#     Node 33, Type 0, BuildingBlock: CEKHIL_clean_sbu_0, # of connection points: 4
#     Node 34, Type 0, BuildingBlock: CEKHIL_clean_sbu_0, # of connection points: 4
#     Node 35, Type 0, BuildingBlock: CEKHIL_clean_sbu_0, # of connection points: 4
#     Edge 36, Type (0, 0), None
#     Edge 37, Type (0, 0), None
#     Edge 38, Type (0, 0), None
#     Edge 39, Type (0, 0), None
#     Edge 40, Type (0, 0), None
#     Edge 41, Type (0, 0), None
#     Edge 42, Type (0, 0), None
#     Edge 43, Type (0, 0), None
#     Edge 44, Type (0, 0), None
#     Edge 45, Type (0, 0), None
#     Edge 46, Type (0, 0), None
#     Edge 47, Type (0, 0), None
#     Edge 48, Type (0, 0), None
#     Edge 49, Type (0, 0), None
#     Edge 50, Type (0, 0), None
#     Edge 51, Type (0, 0), None
#     Edge 52, Type (0, 0), None
#     Edge 53, Type (0, 0), None
#     Edge 54, Type (0, 0), None
#     Edge 55, Type (0, 0), None
#     Edge 56, Type (0, 0), None
#     Edge 57, Type (0, 0), None
#     Edge 58, Type (0, 0), None
#     Edge 59, Type (0, 0), None
#     Edge 60, Type (0, 0), None
#     Edge 61, Type (0, 0), None
#     Edge 62, Type (0, 0), None
#     Edge 63, Type (0, 0), None
#     Edge 64, Type (0, 0), None
#     Edge 65, Type (0, 0), None
#     Edge 66, Type (0, 0), None
#     Edge 67, Type (0, 0), None
#     Edge 68, Type (0, 0), None
#     Edge 69, Type (0, 0), None
#     Edge 70, Type (0, 0), None
#     Edge 71, Type (0, 0), None
#     Edge 72, Type (0, 0), None
#     Edge 73, Type (0, 0), None
#     Edge 74, Type (0, 0), None
#     Edge 75, Type (0, 0), None
#     Edge 76, Type (0, 0), None
#     Edge 77, Type (0, 0), None
#     Edge 78, Type (0, 0), None
#     Edge 79, Type (0, 0), None
#     Edge 80, Type (0, 0), None
#     Edge 81, Type (0, 0), None
#     Edge 82, Type (0, 0), None
#     Edge 83, Type (0, 0), None
#     Edge 84, Type (0, 0), None
#     Edge 85, Type (0, 0), None
#     Edge 86, Type (0, 0), None
#     Edge 87, Type (0, 0), None
#     Edge 88, Type (0, 0), None
#     Edge 89, Type (0, 0), None
#     Edge 90, Type (0, 0), None
#     Edge 91, Type (0, 0), None
#     Edge 92, Type (0, 0), None
#     Edge 93, Type (0, 0), None
#     Edge 94, Type (0, 0), None
#     Edge 95, Type (0, 0), None
#     Edge 96, Type (0, 0), None
#     Edge 97, Type (0, 0), None
#     Edge 98, Type (0, 0), None
#     Edge 99, Type (0, 0), None
#     Edge 100, Type (0, 0), None
#     Edge 101, Type (0, 0), None
#     Edge 102, Type (0, 0), None
#     Edge 103, Type (0, 0), None
#     Edge 104, Type (0, 0), None
#     Edge 105, Type (0, 0), None
#     Edge 106, Type (0, 0), None
#     Edge 107, Type (0, 0), None
# Relax obj value: 0.098
# Max RMSD: 0.126
# Mean RMSD: 0.126
data_MOF--net-ict--node1-CEKHIL_clean_sbu_0--edge1-none
_symmetry_space_group_name_H-M    P1
_symmetry_Int_Tables_number       1
_symmetry_cell_setting            triclinic
loop_
_symmetry_equiv_pos_as_xyz
'x, y, z'
_cell_length_a     28.628415
_cell_length_b     28.646134
_cell_length_c     15.915681
_cell_angle_alpha  90.006565
_cell_angle_beta   89.987047
_cell_angle_gamma 120.05995
loop_
_atom_site_label
_atom_site_type_symbol
_atom_site_fract_x
_atom_site_fract_y
_atom_site_fract_z
_atom_type_partial_charge
Co0 Co 0.24119 0.22664 0.05718 0.0
O1 O 0.26685 0.24523 0.9427 0.0
O2 O 0.31832 0.27814 0.05531 0.0
C3 C 0.1646 0.23094 0.03698 0.0
O4 O 0.22616 0.21614 0.18662 0.0
Co5 Co 0.12891 0.12114 0.08129 0.0
O6 O 0.14204 0.14434 0.2002 0.0
C7 C 0.22198 0.11655 1.02078 0.0
C8 C 0.31451 0.27555 0.97356 0.0
C9 C 0.18511 0.18288 0.23218 0.0
O10 O 0.25498 0.16309 0.05275 0.0
O11 O 0.17271 0.10205 1.00611 0.0
O12 O 0.20943 0.27553 0.05251 0.0
O13 O 0.16987 0.18961 1.02816 0.0
Co14 Co 0.7816 0.01617 0.05709 0.0
O15 O 0.76293 0.0231 0.94264 0.0
O16 O 0.72994 0.0415 0.05529 0.0
C17 C 0.77756 0.93545 0.03692 0.0
O18 O 0.7922 0.01173 0.18649 0.0
Co19 Co 0.8875 0.01019 0.08082 0.0
O20 O 0.8645 1.00031 0.19987 0.0
C21 C 0.89141 0.10724 1.01991 0.0
C22 C 0.73254 0.04028 0.97353 0.0
C23 C 0.82575 0.0044 0.23195 0.0
O24 O 0.84505 0.09365 0.05263 0.0
O25 O 0.90561 0.07238 1.00449 0.0
O26 O 0.73285 0.93542 0.05244 0.0
O27 O 0.81881 0.98218 1.02806 0.0
Co28 Co 0.99233 0.76719 0.05723 0.0
O29 O 0.98535 0.74155 0.94277 0.0
O30 O 0.96665 0.69012 0.05542 0.0
C31 C 0.07334 0.84374 0.03714 0.0
O32 O 0.99679 0.78222 0.18665 0.0
Co33 Co 0.99911 0.87934 0.08121 0.0
O34 O 0.00908 0.86624 0.20017 0.0
C35 C 0.90145 0.78633 1.0205 0.0
C36 C 0.96799 0.69394 0.97367 0.0
C37 C 1.00457 0.82323 0.23218 0.0
O38 O 0.9149 0.75337 0.05268 0.0
O39 O 0.93638 0.83551 1.00561 0.0
O40 O 0.07305 0.79895 0.05272 0.0
O41 O 0.02671 0.83847 1.02818 0.0
Co42 Co 0.22845 0.23957 0.50141 0.0
O43 O 0.24707 0.2652 0.61588 0.0
O44 O 0.28009 0.31662 0.50326 0.0
C45 C 0.23253 0.16291 0.52163 0.0
O46 O 0.21791 0.22453 0.37199 0.0
Co47 Co 0.12265 0.12751 0.47752 0.0
O48 O 0.14575 0.14065 0.35853 0.0
C49 C 0.11852 0.22065 0.53822 0.0
C50 C 0.27746 0.31281 0.58501 0.0
C51 C 0.18445 0.18358 0.3265 0.0
O52 O 0.16498 0.25351 0.50582 0.0
O53 O 0.10414 0.17149 0.55332 0.0
O54 O 0.27722 0.20765 0.50613 0.0
O55 O 0.19126 0.16831 0.53044 0.0
Co56 Co 0.769 0.99058 0.50128 0.0
O57 O 0.74332 0.98353 0.61575 0.0
O58 O 0.69186 0.96481 0.50313 0.0
C59 C 0.84552 0.07161 0.52142 0.0
O60 O 0.78402 0.9951 0.37183 0.0
Co61 Co 0.88133 0.99764 0.47712 0.0
O62 O 0.86822 0.00773 0.35822 0.0
C63 C 0.78832 0.89976 0.53761 0.0
C64 C 0.69567 0.96612 0.58488 0.0
C65 C 0.82511 1.00305 0.32627 0.0
O66 O 0.75527 0.91324 0.50578 0.0
O67 O 0.83761 0.93461 0.55215 0.0
O68 O 0.80067 0.07124 0.50585 0.0
O69 O 0.84033 0.02504 0.53032 0.0
Co70 Co 0.01784 0.77985 0.50136 0.0
O71 O 0.02475 0.76116 0.61581 0.0
O72 O 0.0433 0.72832 0.50314 0.0
C73 C 0.93698 0.77561 0.52147 0.0
O74 O 0.01341 0.79046 0.37196 0.0
Co75 Co 0.01157 0.88552 0.47759 0.0
O76 O 1.00168 0.86253 0.35856 0.0
C77 C 0.10884 0.88972 0.53848 0.0
C78 C 0.042 0.73084 0.5849 0.0
C79 C 0.00591 0.82389 0.3265 0.0
O80 O 0.09533 0.84338 0.5059 0.0
O81 O 0.0739 0.90386 0.55379 0.0
O82 O 0.93707 0.731 0.50591 0.0
O83 O 0.98368 0.81691 0.53042 0.0
Co84 Co 0.76881 0.78006 1.00115 0.0
O85 O 0.74328 0.76154 0.11568 0.0
O86 O 0.69179 0.72815 1.00318 0.0
C87 C 0.84579 0.77656 1.02132 0.0
O88 O 0.7839 0.79048 0.87175 0.0
Co89 Co 0.88051 0.88637 0.97733 0.0
O90 O 0.86758 0.86305 0.85839 0.0
C91 C 0.78705 0.88944 0.03864 0.0
C92 C 0.69566 0.73092 0.08493 0.0
C93 C 0.82486 0.82407 0.82632 0.0
O94 O 0.75446 0.84324 1.00532 0.0
O95 O 0.83609 0.90357 0.05453 0.0
O96 O 0.80117 0.73169 1.00614 0.0
O97 O 0.84006 0.81763 0.03 0.0
Co98 Co 0.22869 0.99052 1.00125 0.0
O99 O 0.24729 0.98366 0.11574 0.0
O100 O 0.28076 0.96573 1.0032 0.0
C101 C 0.23192 0.07082 1.02141 0.0
O102 O 0.21816 0.99509 0.87189 0.0
Co103 Co 0.12199 0.99512 0.97781 0.0
O104 O 0.14512 0.00535 0.85875 0.0
C105 C 0.11958 0.8992 0.03944 0.0
C106 C 0.27799 0.96682 0.08495 0.0
C107 C 0.1843 1.00204 0.82657 0.0
O108 O 0.1656 0.91284 1.00545 0.0
O109 O 0.10574 0.93418 0.05601 0.0
O110 O 0.2769 0.07134 1.00623 0.0
O111 O 0.19092 0.0239 0.03012 0.0
Co112 Co 0.01798 0.2398 1.0011 0.0
O113 O 0.02488 0.26531 0.1156 0.0
O114 O 0.04311 0.31675 1.00305 0.0
C115 C 0.93738 0.16286 1.02115 0.0
O116 O 0.01338 0.2247 0.87172 0.0
Co117 Co 0.01258 0.12822 0.9774 0.0
O118 O 1.00227 0.14111 0.85842 0.0
C119 C 0.1091 0.22162 0.03889 0.0
C120 C 0.0419 0.31288 0.08481 0.0
C121 C 0.00601 0.18378 0.82632 0.0
O122 O 0.09559 0.25418 1.00539 0.0
O123 O 0.07404 0.17267 0.05499 0.0
O124 O 0.93717 0.20744 1.00592 0.0
O125 O 0.9842 0.16858 0.02997 0.0
Co126 Co 0.78165 0.76702 0.55728 0.0
O127 O 0.7631 0.74153 0.44277 0.0
O128 O 0.72959 0.69008 0.55529 0.0
C129 C 0.7784 0.84408 0.53707 0.0
O130 O 0.79212 0.78213 0.68666 0.0
Co131 Co 0.88827 0.87849 0.58089 0.0
O132 O 0.86504 0.86557 0.69989 0.0
C133 C 0.89085 0.78496 0.51941 0.0
C134 C 0.7324 0.69395 0.47353 0.0
C135 C 0.8259 0.82299 0.73202 0.0
O136 O 0.84474 0.75251 0.55314 0.0
O137 O 0.90487 0.83388 0.5031 0.0
O138 O 0.73341 0.79955 0.55224 0.0
O139 O 0.8194 0.83821 0.52843 0.0
Co140 Co 0.2414 0.01632 0.55743 0.0
O141 O 0.26694 0.02331 0.44291 0.0
O142 O 0.31843 0.04155 0.55543 0.0
C143 C 0.16447 0.93571 0.53733 0.0
O144 O 0.22631 0.01167 0.68684 0.0
Co145 Co 0.12965 0.01068 0.5813 0.0
O146 O 0.14256 1.00028 0.70022 0.0
C147 C 0.22305 0.10739 0.51998 0.0
C148 C 0.31455 0.04037 0.47368 0.0
C149 C 0.18532 0.00415 0.73227 0.0
O150 O 0.2557 0.09386 0.5532 0.0
O151 O 0.17401 0.07241 0.50418 0.0
O152 O 0.20912 0.93558 0.55254 0.0
O153 O 0.17013 0.98248 0.52857 0.0
Co154 Co 0.99225 0.22703 0.55734 0.0
O155 O 0.9854 0.24566 0.44285 0.0
O156 O 0.96733 0.27899 0.55541 0.0
C157 C 0.07269 0.23045 0.53725 0.0
O158 O 0.9968 0.21648 0.6867 0.0
Co159 Co 0.99711 0.12054 0.58082 0.0
O160 O 0.00734 0.14366 0.69987 0.0
C161 C 0.90099 0.11789 0.51917 0.0
C162 C 0.9685 0.27629 0.47366 0.0
C163 C 1.00389 0.18274 0.73203 0.0
O164 O 0.91456 0.16389 0.55307 0.0
O165 O 0.93606 0.10412 0.50268 0.0
O166 O 0.07309 0.27535 0.55247 0.0
O167 O 0.02579 0.18942 0.52846 0.0
Co168 Co 0.90785 0.55997 0.39051 0.0
O169 O 0.93352 0.57857 0.27603 0.0
O170 O 0.98499 0.61146 0.38864 0.0
C171 C 0.83127 0.56428 0.37031 0.0
O172 O 0.89282 0.54948 0.51995 0.0
Co173 Co 0.79557 0.45448 0.41462 0.0
O174 O 0.8087 0.47768 0.53353 0.0
C175 C 0.88864 0.44987 0.35412 0.0
C176 C 0.98117 0.60888 0.30689 0.0
C177 C 0.85177 0.51622 0.56551 0.0
O178 O 0.92164 0.49642 0.38607 0.0
O179 O 0.83937 0.43537 0.33947 0.0
O180 O 0.8761 0.60887 0.38584 0.0
O181 O 0.83654 0.52295 0.36148 0.0
Co182 Co 0.44826 0.3495 0.39043 0.0
O183 O 0.4296 0.35643 0.27598 0.0
O184 O 0.39661 0.37483 0.38863 0.0
C185 C 0.44422 0.26878 0.37026 0.0
O186 O 0.45886 0.34506 0.51983 0.0
Co187 Co 0.55415 0.3435 0.41415 0.0
O188 O 0.53116 0.33363 0.5332 0.0
C189 C 0.55809 0.44057 0.35326 0.0
C190 C 0.39921 0.37361 0.30687 0.0
C191 C 0.49241 0.33772 0.56528 0.0
O192 O 0.51172 0.42698 0.38596 0.0
O193 O 0.57229 0.40571 0.33785 0.0
O194 O 0.39952 0.26875 0.38578 0.0
O195 O 0.48548 0.31551 0.36139 0.0
Co196 Co 0.65899 0.10053 0.39056 0.0
O197 O 0.65202 0.07488 0.2761 0.0
O198 O 0.63332 0.02346 0.38876 0.0
C199 C 0.74001 0.17707 0.37047 0.0
O200 O 0.66345 0.11556 0.51998 0.0
Co201 Co 0.66579 0.21268 0.41454 0.0
O202 O 0.67577 0.19958 0.53351 0.0
C203 C 0.56811 0.11967 0.35384 0.0
C204 C 0.63466 0.02728 0.307 0.0
C205 C 0.67124 0.15657 0.56551 0.0
O206 O 0.58157 0.08671 0.38601 0.0
O207 O 0.60305 0.16886 0.33896 0.0
O208 O 0.73972 0.13228 0.38605 0.0
O209 O 0.69338 0.1718 0.36151 0.0
Co210 Co 0.89512 0.5729 0.83474 0.0
O211 O 0.91373 0.59853 0.94921 0.0
O212 O 0.94675 0.64996 0.83658 0.0
C213 C 0.89919 0.49625 0.85497 0.0
O214 O 0.88458 0.55787 0.70532 0.0
Co215 Co 0.78931 0.46085 0.81085 0.0
O216 O 0.81241 0.47398 0.69186 0.0
C217 C 0.78518 0.55398 0.87155 0.0
C218 C 0.94411 0.64614 0.91834 0.0
C219 C 0.85112 0.51691 0.65983 0.0
O220 O 0.83164 0.58684 0.83915 0.0
O221 O 0.7708 0.50482 0.88665 0.0
O222 O 0.94389 0.54098 0.83946 0.0
O223 O 0.85792 0.50165 0.86377 0.0
Co224 Co 0.43566 0.32391 0.83461 0.0
O225 O 0.40999 0.31685 0.94909 0.0
O226 O 0.35852 0.29814 0.83646 0.0
C227 C 0.51219 0.40494 0.85475 0.0
O228 O 0.45069 0.32843 0.70517 0.0
Co229 Co 0.548 0.33097 0.81046 0.0
O230 O 0.53488 0.34105 0.69156 0.0
C231 C 0.45499 0.23309 0.87094 0.0
C232 C 0.36234 0.29944 0.91821 0.0
C233 C 0.49177 0.33638 0.6596 0.0
O234 O 0.42193 0.24656 0.83912 0.0
O235 O 0.50427 0.26794 0.88549 0.0
O236 O 0.46733 0.40457 0.83919 0.0
O237 O 0.50699 0.35837 0.86366 0.0
Co238 Co 0.68451 0.11319 0.83469 0.0
O239 O 0.69142 0.0945 0.94914 0.0
O240 O 0.70997 0.06165 0.83647 0.0
C241 C 0.60365 0.10895 0.8548 0.0
O242 O 0.68008 0.1238 0.70529 0.0
Co243 Co 0.67824 0.21886 0.81093 0.0
O244 O 0.66835 0.19587 0.69189 0.0
C245 C 0.77551 0.22305 0.87182 0.0
C246 C 0.70868 0.06418 0.91823 0.0
C247 C 0.67259 0.15723 0.65983 0.0
O248 O 0.762 0.17671 0.83922 0.0
O249 O 0.74057 0.23719 0.88712 0.0
O250 O 0.60375 0.06434 0.83925 0.0
O251 O 0.65035 0.15025 0.86375 0.0
Co252 Co 0.43547 0.11339 0.33449 0.0
O253 O 0.40994 0.09487 0.44901 0.0
O254 O 0.35845 0.06148 0.3365 0.0
C255 C 0.51245 0.1099 0.35466 0.0
O256 O 0.45057 0.12382 0.20508 0.0
Co257 Co 0.54716 0.21971 0.31067 0.0
O258 O 0.53424 0.19639 0.19173 0.0
C259 C 0.45371 0.22276 0.37198 0.0
C260 C 0.36233 0.06426 0.41825 0.0
C261 C 0.49153 0.1574 0.15966 0.0
O262 O 0.42111 0.17657 0.33865 0.0
O263 O 0.50274 0.23688 0.38788 0.0
O264 O 0.46783 0.06503 0.33948 0.0
O265 O 0.50673 0.15097 0.36334 0.0
Co266 Co 0.89535 0.32385 0.33458 0.0
O267 O 0.91396 0.31699 0.44907 0.0
O268 O 0.94743 0.29906 0.33652 0.0
C269 C 0.89858 0.40415 0.35474 0.0
O270 O 0.88482 0.32843 0.20522 0.0
Co271 Co 0.78865 0.32845 0.31114 0.0
O272 O 0.81178 0.33867 0.19208 0.0
C273 C 0.78625 0.23253 0.37278 0.0
C274 C 0.94465 0.30015 0.41828 0.0
C275 C 0.85096 0.33537 0.1599 0.0
O276 O 0.83227 0.24617 0.33877 0.0
O277 O 0.77242 0.26751 0.38936 0.0
O278 O 0.94357 0.40467 0.33956 0.0
O279 O 0.85759 0.35722 0.36345 0.0
Co280 Co 0.68464 0.57313 0.33443 0.0
O281 O 0.69155 0.59864 0.44893 0.0
O282 O 0.70978 0.65008 0.33638 0.0
C283 C 0.60405 0.49619 0.35449 0.0
O284 O 0.68005 0.55804 0.20505 0.0
Co285 Co 0.67926 0.46156 0.31074 0.0
O286 O 0.66895 0.47445 0.19176 0.0
C287 C 0.77577 0.55496 0.37223 0.0
C288 C 0.70857 0.64621 0.41813 0.0
C289 C 0.67268 0.51711 0.15966 0.0
O290 O 0.76226 0.58752 0.33871 0.0
O291 O 0.74071 0.50602 0.38834 0.0
O292 O 0.60384 0.54077 0.33926 0.0
O293 O 0.65087 0.50192 0.36331 0.0
Co294 Co 0.44832 0.10035 0.89062 0.0
O295 O 0.42977 0.07486 0.77611 0.0
O296 O 0.39626 0.02342 0.88862 0.0
C297 C 0.44506 0.17741 0.87041 0.0
O298 O 0.45879 0.11546 1.02 0.0
Co299 Co 0.55494 0.21182 0.91423 0.0
O300 O 0.53171 0.1989 0.03323 0.0
C301 C 0.55753 0.1183 0.85275 0.0
C302 C 0.39908 0.02729 0.80687 0.0
C303 C 0.49257 0.15633 0.06536 0.0
O304 O 0.51142 0.08585 0.88648 0.0
O305 O 0.57154 0.16722 0.83645 0.0
O306 O 0.40008 0.13288 0.88557 0.0
O307 O 0.48607 0.17155 0.86176 0.0
Co308 Co 0.90807 0.34966 0.89076 0.0
O309 O 0.93361 0.35665 0.77625 0.0
O310 O 0.9851 0.37489 0.88876 0.0
C311 C 0.83114 0.26905 0.87066 0.0
O312 O 0.89298 0.34501 1.02017 0.0
Co313 Co 0.79632 0.34401 0.91463 0.0
O314 O 0.80923 0.33361 0.03355 0.0
C315 C 0.88972 0.44072 0.85332 0.0
C316 C 0.98122 0.37371 0.80701 0.0
C317 C 0.85198 0.33748 0.06561 0.0
O318 O 0.92236 0.4272 0.88653 0.0
O319 O 0.84068 0.40574 0.83752 0.0
O320 O 0.87579 0.26891 0.88587 0.0
O321 O 0.8368 0.31582 0.8619 0.0
Co322 Co 0.65891 0.56036 0.89067 0.0
O323 O 0.65206 0.57899 0.77619 0.0
O324 O 0.63399 0.61232 0.88875 0.0
C325 C 0.73935 0.56378 0.87058 0.0
O326 O 0.66347 0.54981 1.02003 0.0
Co327 Co 0.66378 0.45388 0.91415 0.0
O328 O 0.67401 0.477 0.0332 0.0
C329 C 0.56765 0.45122 0.85251 0.0
C330 C 0.63516 0.60962 0.80699 0.0
C331 C 0.67056 0.51608 0.06536 0.0
O332 O 0.58122 0.49722 0.88641 0.0
O333 O 0.60272 0.43745 0.83602 0.0
O334 O 0.73975 0.60868 0.8858 0.0
O335 O 0.69245 0.52275 0.86179 0.0
Co336 Co 0.57452 0.89331 0.72385 0.0
O337 O 0.60019 0.9119 0.60937 0.0
O338 O 0.65166 0.94481 0.72198 0.0
C339 C 0.49794 0.89761 0.70364 0.0
O340 O 0.55949 0.88281 0.85329 0.0
Co341 Co 0.46225 0.78781 0.74795 0.0
O342 O 0.47538 0.811 0.86686 0.0
C343 C 0.55533 0.78322 0.68744 0.0
C344 C 0.64784 0.94221 0.64023 0.0
C345 C 0.51844 0.84955 0.89884 0.0
O346 O 0.58832 0.82976 0.71941 0.0
O347 O 0.50606 0.76873 0.67276 0.0
O348 O 0.54277 0.9422 0.71917 0.0
O349 O 0.50321 0.85628 0.69482 0.0
Co350 Co 0.11493 0.68284 0.72376 0.0
O351 O 0.09626 0.68977 0.60931 0.0
O352 O 0.06327 0.70816 0.72197 0.0
C353 C 0.11089 0.60212 0.70359 0.0
O354 O 0.12553 0.67839 0.85316 0.0
Co355 Co 0.22083 0.67686 0.74748 0.0
O356 O 0.19784 0.66698 0.86653 0.0
C357 C 0.22474 0.77391 0.68658 0.0
C358 C 0.06588 0.70695 0.64021 0.0
C359 C 0.15908 0.67106 0.89862 0.0
O360 O 0.17839 0.76032 0.71931 0.0
O361 O 0.23894 0.73904 0.67115 0.0
O362 O 0.06619 0.60209 0.71911 0.0
O363 O 0.15215 0.64885 0.69473 0.0
Co364 Co 0.32566 0.43386 0.7239 0.0
O365 O 0.31868 0.40821 0.60944 0.0
O366 O 0.29999 0.35679 0.7221 0.0
C367 C 0.40666 0.51041 0.70381 0.0
O368 O 0.33012 0.44889 0.85332 0.0
Co369 Co 0.33243 0.54601 0.74787 0.0
O370 O 0.34241 0.53291 0.86684 0.0
C371 C 0.23478 0.45299 0.68717 0.0
C372 C 0.30132 0.36061 0.64034 0.0
C373 C 0.3379 0.4899 0.89884 0.0
O374 O 0.24823 0.42003 0.71935 0.0
O375 O 0.26971 0.50217 0.67227 0.0
O376 O 0.40638 0.46562 0.71938 0.0
O377 O 0.36003 0.50513 0.69484 0.0
Co378 Co 0.56178 0.90624 0.16808 0.0
O379 O 0.5804 0.93187 0.28255 0.0
O380 O 0.61342 0.98329 0.16992 0.0
C381 C 0.56586 0.82958 0.1883 0.0
O382 O 0.55124 0.8912 0.03866 0.0
Co383 Co 0.45598 0.79418 0.14418 0.0
O384 O 0.47908 0.80731 1.0252 0.0
C385 C 0.45185 0.88732 0.20488 0.0
C386 C 0.61078 0.97948 0.25167 0.0
C387 C 0.51779 0.85024 0.99316 0.0
O388 O 0.49831 0.92017 0.17248 0.0
O389 O 0.43747 0.83816 0.21999 0.0
O390 O 0.61055 0.87432 0.1728 0.0
O391 O 0.52459 0.83498 0.1971 0.0
Co392 Co 0.10233 0.65724 0.16795 0.0
O393 O 0.07665 0.65018 0.28242 0.0
O394 O 0.02518 0.63147 0.16979 0.0
C395 C 0.17885 0.73827 0.18809 0.0
O396 O 0.11736 0.66176 0.0385 0.0
Co397 Co 0.21466 0.6643 0.14379 0.0
O398 O 0.20155 0.67439 1.02489 0.0
C399 C 0.12165 0.56642 0.20428 0.0
C400 C 0.029 0.63277 0.25154 0.0
C401 C 0.15844 0.66972 0.99293 0.0
O402 O 0.0886 0.5799 0.17245 0.0
O403 O 0.17094 0.60127 0.21882 0.0
O404 O 0.134 0.7379 0.17252 0.0
O405 O 0.17365 0.6917 0.19699 0.0
Co406 Co 0.35118 0.44652 0.16803 0.0
O407 O 0.35809 0.42783 0.28247 0.0
O408 O 0.37664 0.39499 0.1698 0.0
C409 C 0.27032 0.44228 0.18814 0.0
O410 O 0.34675 0.45713 0.03863 0.0
Co411 Co 0.34491 0.55219 0.14426 0.0
O412 O 0.33502 0.5292 1.02523 0.0
C413 C 0.44218 0.55639 0.20515 0.0
C414 C 0.37535 0.39752 0.25156 0.0
C415 C 0.33925 0.49056 0.99316 0.0
O416 O 0.42867 0.51005 0.17256 0.0
O417 O 0.40724 0.57052 0.22046 0.0
O418 O 0.27042 0.39768 0.17258 0.0
O419 O 0.31702 0.48358 0.19708 0.0
Co420 Co 0.10214 0.44673 0.66782 0.0
O421 O 0.07661 0.42821 0.78235 0.0
O422 O 0.02512 0.39482 0.66984 0.0
C423 C 0.17912 0.44323 0.688 0.0
O424 O 0.11724 0.45715 0.53842 0.0
Co425 Co 0.21384 0.55303 0.644 0.0
O426 O 0.20092 0.52972 0.52506 0.0
C427 C 0.12039 0.55611 0.7053 0.0
C428 C 0.029 0.3976 0.75159 0.0
C429 C 0.1582 0.49073 0.49299 0.0
O430 O 0.08779 0.50991 0.67199 0.0
O431 O 0.16942 0.57024 0.72118 0.0
O432 O 0.13449 0.39835 0.67281 0.0
O433 O 0.1734 0.4843 0.69667 0.0
Co434 Co 0.56202 0.65718 0.66792 0.0
O435 O 0.58062 0.65032 0.78241 0.0
O436 O 0.61409 0.63239 0.66986 0.0
C437 C 0.56526 0.73749 0.68808 0.0
O438 O 0.55149 0.66176 0.53856 0.0
Co439 Co 0.45533 0.6618 0.64447 0.0
O440 O 0.47846 0.67203 0.52541 0.0
C441 C 0.45291 0.56586 0.7061 0.0
C442 C 0.61131 0.63348 0.75161 0.0
C443 C 0.51764 0.66871 0.49323 0.0
O444 O 0.49893 0.57951 0.67211 0.0
O445 O 0.43907 0.60085 0.72266 0.0
O446 O 0.61024 0.73801 0.67289 0.0
O447 O 0.52426 0.69057 0.69679 0.0
Co448 Co 0.35131 0.90646 0.66777 0.0
O449 O 0.35822 0.93197 0.78227 0.0
O450 O 0.37645 0.98342 0.66972 0.0
C451 C 0.27071 0.82953 0.68782 0.0
O452 O 0.34672 0.89137 0.53838 0.0
Co453 Co 0.34591 0.79489 0.64407 0.0
O454 O 0.3356 0.80778 0.52509 0.0
C455 C 0.44243 0.88828 0.70555 0.0
C456 C 0.37524 0.97954 0.75147 0.0
C457 C 0.33934 0.85044 0.49299 0.0
O458 O 0.42892 0.92085 0.67205 0.0
O459 O 0.40737 0.83933 0.72164 0.0
O460 O 0.27051 0.87411 0.67259 0.0
O461 O 0.31753 0.83525 0.69665 0.0
Co462 Co 0.11499 0.43369 0.22395 0.0
O463 O 0.09644 0.40819 0.10944 0.0
O464 O 0.06293 0.35675 0.22196 0.0
C465 C 0.11173 0.51074 0.20374 0.0
O466 O 0.12546 0.44879 0.35333 0.0
Co467 Co 0.22161 0.54516 0.24756 0.0
O468 O 0.19838 0.53224 0.36656 0.0
C469 C 0.2242 0.45164 0.18608 0.0
C470 C 0.06575 0.36062 0.14021 0.0
C471 C 0.15924 0.48966 0.39869 0.0
O472 O 0.17808 0.41918 0.21981 0.0
O473 O 0.23821 0.50055 0.16979 0.0
O474 O 0.06675 0.46622 0.2189 0.0
O475 O 0.15274 0.50488 0.19509 0.0
Co476 Co 0.57474 0.683 0.2241 0.0
O477 O 0.60028 0.68999 0.10958 0.0
O478 O 0.65176 0.70823 0.2221 0.0
C479 C 0.49781 0.60238 0.20399 0.0
O480 O 0.55965 0.67834 0.3535 0.0
Co481 Co 0.46299 0.67734 0.24796 0.0
O482 O 0.4759 0.66695 0.36688 0.0
C483 C 0.55638 0.77406 0.18665 0.0
C484 C 0.64789 0.70706 0.14035 0.0
C485 C 0.51865 0.67082 0.39894 0.0
O486 O 0.58903 0.76053 0.21987 0.0
O487 O 0.50734 0.73908 0.17085 0.0
O488 O 0.54246 0.60225 0.21921 0.0
O489 O 0.50347 0.64915 0.19524 0.0
Co490 Co 0.32557 0.89369 0.22401 0.0
O491 O 0.31873 0.91232 0.10952 0.0
O492 O 0.30066 0.94565 0.22209 0.0
C493 C 0.40601 0.89712 0.20392 0.0
O494 O 0.33013 0.88315 0.35337 0.0
Co495 Co 0.33044 0.78721 0.24749 0.0
O496 O 0.34068 0.81033 0.36654 0.0
C497 C 0.23432 0.78455 0.18584 0.0
C498 C 0.30182 0.94294 0.14033 0.0
C499 C 0.33723 0.84941 0.3987 0.0
O500 O 0.24789 0.83055 0.21974 0.0
O501 O 0.26939 0.77078 0.16936 0.0
O502 O 0.40642 0.94201 0.21913 0.0
O503 O 0.35912 0.85608 0.19512 0.0
loop_
_geom_bond_atom_site_label_1
_geom_bond_atom_site_label_2
_geom_bond_distance
_geom_bond_site_symmetry_2
_ccdc_geom_bond_type
Co0 O1 2.216 1_554 S
Co0 O2 2.091 . S
Co0 O4 2.004 . S
Co0 O10 2.021 . S
Co0 O12 2.137 . S
Co0 O13 2.244 . S
O1 Co0 2.216 1_556 S
O1 C8 1.247 . S
O2 Co0 2.091 . S
O2 C8 1.261 1_554 S
C3 O12 1.247 . S
C3 O13 1.272 . S
O4 Co0 2.004 . S
O4 C9 1.259 . S
Co5 O6 2.061 . S
Co5 O11 2.052 . S
Co5 O13 2.135 . S
O6 Co5 2.061 . S
O6 C9 1.235 . S
C7 O10 1.238 . S
C7 O11 1.241 . S
C8 O1 1.247 . S
C8 O2 1.261 1_556 S
C9 O4 1.259 . S
C9 O6 1.235 . S
O10 Co0 2.021 . S
O10 C7 1.238 . S
O11 Co5 2.052 . S
O11 C7 1.241 . S
O12 Co0 2.137 . S
O12 C3 1.247 . S
O13 Co0 2.244 . S
O13 C3 1.272 . S
O13 Co5 2.135 . S
Co14 O15 2.216 1_554 S
Co14 O16 2.091 . S
Co14 O18 2.004 . S
Co14 O24 2.021 . S
Co14 O26 2.137 1_545 S
Co14 O27 2.244 1_545 S
O15 Co14 2.216 1_556 S
O15 C22 1.247 . S
O16 Co14 2.091 . S
O16 C22 1.261 1_554 S
C17 O26 1.247 . S
C17 O27 1.272 . S
O18 Co14 2.004 . S
O18 C23 1.259 . S
Co19 O20 2.061 1_565 S
Co19 O25 2.052 1_565 S
Co19 O27 2.135 . S
O20 Co19 2.061 1_545 S
O20 C23 1.235 . S
C21 O24 1.238 . S
C21 O25 1.241 . S
C22 O15 1.247 . S
C22 O16 1.261 1_556 S
C23 O18 1.259 . S
C23 O20 1.235 . S
O24 Co14 2.021 . S
O24 C21 1.238 . S
O25 Co19 2.052 1_545 S
O25 C21 1.241 . S
O26 Co14 2.137 1_565 S
O26 C17 1.247 . S
O27 Co14 2.244 1_565 S
O27 C17 1.272 . S
O27 Co19 2.135 . S
Co28 O29 2.216 1_554 S
Co28 O30 2.091 . S
Co28 O32 2.004 . S
Co28 O38 2.021 . S
Co28 O40 2.137 1_655 S
Co28 O41 2.244 1_655 S
O29 Co28 2.216 1_556 S
O29 C36 1.247 . S
O30 Co28 2.091 . S
O30 C36 1.261 1_554 S
C31 O40 1.247 . S
C31 O41 1.272 . S
O32 Co28 2.004 . S
O32 C37 1.259 . S
Co33 O34 2.061 1_455 S
Co33 O39 2.052 1_455 S
Co33 O41 2.135 . S
O34 Co33 2.061 1_655 S
O34 C37 1.235 . S
C35 O38 1.238 . S
C35 O39 1.241 . S
C36 O29 1.247 . S
C36 O30 1.261 1_556 S
C37 O32 1.259 . S
C37 O34 1.235 . S
O38 Co28 2.021 . S
O38 C35 1.238 . S
O39 Co33 2.052 1_655 S
O39 C35 1.241 . S
O40 Co28 2.137 1_455 S
O40 C31 1.247 . S
O41 Co28 2.244 1_455 S
O41 C31 1.272 . S
O41 Co33 2.135 . S
Co42 O43 2.216 . S
Co42 O44 2.091 . S
Co42 O46 2.004 . S
Co42 O52 2.021 . S
Co42 O54 2.137 . S
Co42 O55 2.244 . S
O43 Co42 2.216 . S
O43 C50 1.247 . S
O44 Co42 2.091 . S
O44 C50 1.261 . S
C45 O54 1.247 . S
C45 O55 1.272 . S
O46 Co42 2.004 . S
O46 C51 1.259 . S
Co47 O48 2.061 . S
Co47 O53 2.052 . S
Co47 O55 2.135 . S
O48 Co47 2.061 . S
O48 C51 1.235 . S
C49 O52 1.238 . S
C49 O53 1.241 . S
C50 O43 1.247 . S
C50 O44 1.261 . S
C51 O46 1.259 . S
C51 O48 1.235 . S
O52 Co42 2.021 . S
O52 C49 1.238 . S
O53 Co47 2.052 . S
O53 C49 1.241 . S
O54 Co42 2.137 . S
O54 C45 1.247 . S
O55 Co42 2.244 . S
O55 C45 1.272 . S
O55 Co47 2.135 . S
Co56 O57 2.216 . S
Co56 O58 2.091 . S
Co56 O60 2.004 . S
Co56 O66 2.021 . S
Co56 O68 2.137 1_565 S
Co56 O69 2.244 1_565 S
O57 Co56 2.216 . S
O57 C64 1.247 . S
O58 Co56 2.091 . S
O58 C64 1.261 . S
C59 O68 1.247 . S
C59 O69 1.272 . S
O60 Co56 2.004 . S
O60 C65 1.259 . S
Co61 O62 2.061 1_545 S
Co61 O67 2.052 1_545 S
Co61 O69 2.135 . S
O62 Co61 2.061 1_565 S
O62 C65 1.235 . S
C63 O66 1.238 . S
C63 O67 1.241 . S
C64 O57 1.247 . S
C64 O58 1.261 . S
C65 O60 1.259 . S
C65 O62 1.235 . S
O66 Co56 2.021 . S
O66 C63 1.238 . S
O67 Co61 2.052 1_565 S
O67 C63 1.241 . S
O68 Co56 2.137 1_545 S
O68 C59 1.247 . S
O69 Co56 2.244 1_545 S
O69 C59 1.272 . S
O69 Co61 2.135 . S
Co70 O71 2.216 . S
Co70 O72 2.091 . S
Co70 O74 2.004 . S
Co70 O80 2.021 . S
Co70 O82 2.137 1_455 S
Co70 O83 2.244 1_455 S
O71 Co70 2.216 . S
O71 C78 1.247 . S
O72 Co70 2.091 . S
O72 C78 1.261 . S
C73 O82 1.247 . S
C73 O83 1.272 . S
O74 Co70 2.004 . S
O74 C79 1.259 . S
Co75 O76 2.061 1_655 S
Co75 O81 2.052 1_655 S
Co75 O83 2.135 . S
O76 Co75 2.061 1_455 S
O76 C79 1.235 . S
C77 O80 1.238 . S
C77 O81 1.241 . S
C78 O71 1.247 . S
C78 O72 1.261 . S
C79 O74 1.259 . S
C79 O76 1.235 . S
O80 Co70 2.021 . S
O80 C77 1.238 . S
O81 Co75 2.052 1_455 S
O81 C77 1.241 . S
O82 Co70 2.137 1_655 S
O82 C73 1.247 . S
O83 Co70 2.244 1_655 S
O83 C73 1.272 . S
O83 Co75 2.135 . S
Co84 O85 2.216 1_556 S
Co84 O86 2.091 . S
Co84 O88 2.004 . S
Co84 O94 2.021 . S
Co84 O96 2.137 . S
Co84 O97 2.244 . S
O85 Co84 2.216 1_554 S
O85 C92 1.247 . S
O86 Co84 2.091 . S
O86 C92 1.261 1_556 S
C87 O96 1.247 . S
C87 O97 1.272 . S
O88 Co84 2.004 . S
O88 C93 1.259 . S
Co89 O90 2.061 . S
Co89 O95 2.052 . S
Co89 O97 2.135 . S
O90 Co89 2.061 . S
O90 C93 1.235 . S
C91 O94 1.238 . S
C91 O95 1.241 . S
C92 O85 1.247 . S
C92 O86 1.261 1_554 S
C93 O88 1.259 . S
C93 O90 1.235 . S
O94 Co84 2.021 . S
O94 C91 1.238 . S
O95 Co89 2.052 . S
O95 C91 1.241 . S
O96 Co84 2.137 . S
O96 C87 1.247 . S
O97 Co84 2.244 . S
O97 C87 1.272 . S
O97 Co89 2.135 . S
Co98 O99 2.216 1_556 S
Co98 O100 2.091 . S
Co98 O102 2.004 . S
Co98 O108 2.021 . S
Co98 O110 2.137 1_565 S
Co98 O111 2.244 1_565 S
O99 Co98 2.216 1_554 S
O99 C106 1.247 . S
O100 Co98 2.091 . S
O100 C106 1.261 1_556 S
C101 O110 1.247 . S
C101 O111 1.272 . S
O102 Co98 2.004 . S
O102 C107 1.259 . S
Co103 O104 2.061 1_545 S
Co103 O109 2.052 1_545 S
Co103 O111 2.135 . S
O104 Co103 2.061 1_565 S
O104 C107 1.235 . S
C105 O108 1.238 . S
C105 O109 1.241 . S
C106 O99 1.247 . S
C106 O100 1.261 1_554 S
C107 O102 1.259 . S
C107 O104 1.235 . S
O108 Co98 2.021 . S
O108 C105 1.238 . S
O109 Co103 2.052 1_565 S
O109 C105 1.241 . S
O110 Co98 2.137 1_545 S
O110 C101 1.247 . S
O111 Co98 2.244 1_545 S
O111 C101 1.272 . S
O111 Co103 2.135 . S
Co112 O113 2.216 1_556 S
Co112 O114 2.091 . S
Co112 O116 2.004 . S
Co112 O122 2.021 . S
Co112 O124 2.137 1_455 S
Co112 O125 2.244 1_455 S
O113 Co112 2.216 1_554 S
O113 C120 1.247 . S
O114 Co112 2.091 . S
O114 C120 1.261 1_556 S
C115 O124 1.247 . S
C115 O125 1.272 . S
O116 Co112 2.004 . S
O116 C121 1.259 . S
Co117 O118 2.061 1_655 S
Co117 O123 2.052 1_655 S
Co117 O125 2.135 . S
O118 Co117 2.061 1_455 S
O118 C121 1.235 . S
C119 O122 1.238 . S
C119 O123 1.241 . S
C120 O113 1.247 . S
C120 O114 1.261 1_554 S
C121 O116 1.259 . S
C121 O118 1.235 . S
O122 Co112 2.021 . S
O122 C119 1.238 . S
O123 Co117 2.052 1_455 S
O123 C119 1.241 . S
O124 Co112 2.137 1_655 S
O124 C115 1.247 . S
O125 Co112 2.244 1_655 S
O125 C115 1.272 . S
O125 Co117 2.135 . S
Co126 O127 2.216 . S
Co126 O128 2.091 . S
Co126 O130 2.004 . S
Co126 O136 2.021 . S
Co126 O138 2.137 . S
Co126 O139 2.244 . S
O127 Co126 2.216 . S
O127 C134 1.247 . S
O128 Co126 2.091 . S
O128 C134 1.261 . S
C129 O138 1.247 . S
C129 O139 1.272 . S
O130 Co126 2.004 . S
O130 C135 1.259 . S
Co131 O132 2.061 . S
Co131 O137 2.052 . S
Co131 O139 2.135 . S
O132 Co131 2.061 . S
O132 C135 1.235 . S
C133 O136 1.238 . S
C133 O137 1.241 . S
C134 O127 1.247 . S
C134 O128 1.261 . S
C135 O130 1.259 . S
C135 O132 1.235 . S
O136 Co126 2.021 . S
O136 C133 1.238 . S
O137 Co131 2.052 . S
O137 C133 1.241 . S
O138 Co126 2.137 . S
O138 C129 1.247 . S
O139 Co126 2.244 . S
O139 C129 1.272 . S
O139 Co131 2.135 . S
Co140 O141 2.216 . S
Co140 O142 2.091 . S
Co140 O144 2.004 . S
Co140 O150 2.021 . S
Co140 O152 2.137 1_545 S
Co140 O153 2.244 1_545 S
O141 Co140 2.216 . S
O141 C148 1.247 . S
O142 Co140 2.091 . S
O142 C148 1.261 . S
C143 O152 1.247 . S
C143 O153 1.272 . S
O144 Co140 2.004 . S
O144 C149 1.259 . S
Co145 O146 2.061 1_565 S
Co145 O151 2.052 1_565 S
Co145 O153 2.135 . S
O146 Co145 2.061 1_545 S
O146 C149 1.235 . S
C147 O150 1.238 . S
C147 O151 1.241 . S
C148 O141 1.247 . S
C148 O142 1.261 . S
C149 O144 1.259 . S
C149 O146 1.235 . S
O150 Co140 2.021 . S
O150 C147 1.238 . S
O151 Co145 2.052 1_545 S
O151 C147 1.241 . S
O152 Co140 2.137 1_565 S
O152 C143 1.247 . S
O153 Co140 2.244 1_565 S
O153 C143 1.272 . S
O153 Co145 2.135 . S
Co154 O155 2.216 . S
Co154 O156 2.091 . S
Co154 O158 2.004 . S
Co154 O164 2.021 . S
Co154 O166 2.137 1_655 S
Co154 O167 2.244 1_655 S
O155 Co154 2.216 . S
O155 C162 1.247 . S
O156 Co154 2.091 . S
O156 C162 1.261 . S
C157 O166 1.247 . S
C157 O167 1.272 . S
O158 Co154 2.004 . S
O158 C163 1.259 . S
Co159 O160 2.061 1_455 S
Co159 O165 2.052 1_455 S
Co159 O167 2.135 . S
O160 Co159 2.061 1_655 S
O160 C163 1.235 . S
C161 O164 1.238 . S
C161 O165 1.241 . S
C162 O155 1.247 . S
C162 O156 1.261 . S
C163 O158 1.259 . S
C163 O160 1.235 . S
O164 Co154 2.021 . S
O164 C161 1.238 . S
O165 Co159 2.052 1_655 S
O165 C161 1.241 . S
O166 Co154 2.137 1_455 S
O166 C157 1.247 . S
O167 Co154 2.244 1_455 S
O167 C157 1.272 . S
O167 Co159 2.135 . S
Co168 O169 2.216 . S
Co168 O170 2.091 . S
Co168 O172 2.004 . S
Co168 O178 2.021 . S
Co168 O180 2.137 . S
Co168 O181 2.244 . S
O169 Co168 2.216 . S
O169 C176 1.247 . S
O170 Co168 2.091 . S
O170 C176 1.261 . S
C171 O180 1.247 . S
C171 O181 1.272 . S
O172 Co168 2.004 . S
O172 C177 1.259 . S
Co173 O174 2.061 . S
Co173 O179 2.052 . S
Co173 O181 2.135 . S
O174 Co173 2.061 . S
O174 C177 1.235 . S
C175 O178 1.238 . S
C175 O179 1.241 . S
C176 O169 1.247 . S
C176 O170 1.261 . S
C177 O172 1.259 . S
C177 O174 1.235 . S
O178 Co168 2.021 . S
O178 C175 1.238 . S
O179 Co173 2.052 . S
O179 C175 1.241 . S
O180 Co168 2.137 . S
O180 C171 1.247 . S
O181 Co168 2.244 . S
O181 C171 1.272 . S
O181 Co173 2.135 . S
Co182 O183 2.216 . S
Co182 O184 2.091 . S
Co182 O186 2.004 . S
Co182 O192 2.021 . S
Co182 O194 2.137 . S
Co182 O195 2.244 . S
O183 Co182 2.216 . S
O183 C190 1.247 . S
O184 Co182 2.091 . S
O184 C190 1.261 . S
C185 O194 1.247 . S
C185 O195 1.272 . S
O186 Co182 2.004 . S
O186 C191 1.259 . S
Co187 O188 2.061 . S
Co187 O193 2.052 . S
Co187 O195 2.135 . S
O188 Co187 2.061 . S
O188 C191 1.235 . S
C189 O192 1.238 . S
C189 O193 1.241 . S
C190 O183 1.247 . S
C190 O184 1.261 . S
C191 O186 1.259 . S
C191 O188 1.235 . S
O192 Co182 2.021 . S
O192 C189 1.238 . S
O193 Co187 2.052 . S
O193 C189 1.241 . S
O194 Co182 2.137 . S
O194 C185 1.247 . S
O195 Co182 2.244 . S
O195 C185 1.272 . S
O195 Co187 2.135 . S
Co196 O197 2.216 . S
Co196 O198 2.091 . S
Co196 O200 2.004 . S
Co196 O206 2.021 . S
Co196 O208 2.137 . S
Co196 O209 2.244 . S
O197 Co196 2.216 . S
O197 C204 1.247 . S
O198 Co196 2.091 . S
O198 C204 1.261 . S
C199 O208 1.247 . S
C199 O209 1.272 . S
O200 Co196 2.004 . S
O200 C205 1.259 . S
Co201 O202 2.061 . S
Co201 O207 2.052 . S
Co201 O209 2.135 . S
O202 Co201 2.061 . S
O202 C205 1.235 . S
C203 O206 1.238 . S
C203 O207 1.241 . S
C204 O197 1.247 . S
C204 O198 1.261 . S
C205 O200 1.259 . S
C205 O202 1.235 . S
O206 Co196 2.021 . S
O206 C203 1.238 . S
O207 Co201 2.052 . S
O207 C203 1.241 . S
O208 Co196 2.137 . S
O208 C199 1.247 . S
O209 Co196 2.244 . S
O209 C199 1.272 . S
O209 Co201 2.135 . S
Co210 O211 2.216 . S
Co210 O212 2.091 . S
Co210 O214 2.004 . S
Co210 O220 2.021 . S
Co210 O222 2.137 . S
Co210 O223 2.244 . S
O211 Co210 2.216 . S
O211 C218 1.247 . S
O212 Co210 2.091 . S
O212 C218 1.261 . S
C213 O222 1.247 . S
C213 O223 1.272 . S
O214 Co210 2.004 . S
O214 C219 1.259 . S
Co215 O216 2.061 . S
Co215 O221 2.052 . S
Co215 O223 2.135 . S
O216 Co215 2.061 . S
O216 C219 1.235 . S
C217 O220 1.238 . S
C217 O221 1.241 . S
C218 O211 1.247 . S
C218 O212 1.261 . S
C219 O214 1.259 . S
C219 O216 1.235 . S
O220 Co210 2.021 . S
O220 C217 1.238 . S
O221 Co215 2.052 . S
O221 C217 1.241 . S
O222 Co210 2.137 . S
O222 C213 1.247 . S
O223 Co210 2.244 . S
O223 C213 1.272 . S
O223 Co215 2.135 . S
Co224 O225 2.216 . S
Co224 O226 2.091 . S
Co224 O228 2.004 . S
Co224 O234 2.021 . S
Co224 O236 2.137 . S
Co224 O237 2.244 . S
O225 Co224 2.216 . S
O225 C232 1.247 . S
O226 Co224 2.091 . S
O226 C232 1.261 . S
C227 O236 1.247 . S
C227 O237 1.272 . S
O228 Co224 2.004 . S
O228 C233 1.259 . S
Co229 O230 2.061 . S
Co229 O235 2.052 . S
Co229 O237 2.135 . S
O230 Co229 2.061 . S
O230 C233 1.235 . S
C231 O234 1.238 . S
C231 O235 1.241 . S
C232 O225 1.247 . S
C232 O226 1.261 . S
C233 O228 1.259 . S
C233 O230 1.235 . S
O234 Co224 2.021 . S
O234 C231 1.238 . S
O235 Co229 2.052 . S
O235 C231 1.241 . S
O236 Co224 2.137 . S
O236 C227 1.247 . S
O237 Co224 2.244 . S
O237 C227 1.272 . S
O237 Co229 2.135 . S
Co238 O239 2.216 . S
Co238 O240 2.091 . S
Co238 O242 2.004 . S
Co238 O248 2.021 . S
Co238 O250 2.137 . S
Co238 O251 2.244 . S
O239 Co238 2.216 . S
O239 C246 1.247 . S
O240 Co238 2.091 . S
O240 C246 1.261 . S
C241 O250 1.247 . S
C241 O251 1.272 . S
O242 Co238 2.004 . S
O242 C247 1.259 . S
Co243 O244 2.061 . S
Co243 O249 2.052 . S
Co243 O251 2.135 . S
O244 Co243 2.061 . S
O244 C247 1.235 . S
C245 O248 1.238 . S
C245 O249 1.241 . S
C246 O239 1.247 . S
C246 O240 1.261 . S
C247 O242 1.259 . S
C247 O244 1.235 . S
O248 Co238 2.021 . S
O248 C245 1.238 . S
O249 Co243 2.052 . S
O249 C245 1.241 . S
O250 Co238 2.137 . S
O250 C241 1.247 . S
O251 Co238 2.244 . S
O251 C241 1.272 . S
O251 Co243 2.135 . S
Co252 O253 2.216 . S
Co252 O254 2.091 . S
Co252 O256 2.004 . S
Co252 O262 2.021 . S
Co252 O264 2.137 . S
Co252 O265 2.244 . S
O253 Co252 2.216 . S
O253 C260 1.247 . S
O254 Co252 2.091 . S
O254 C260 1.261 . S
C255 O264 1.247 . S
C255 O265 1.272 . S
O256 Co252 2.004 . S
O256 C261 1.259 . S
Co257 O258 2.061 . S
Co257 O263 2.052 . S
Co257 O265 2.135 . S
O258 Co257 2.061 . S
O258 C261 1.235 . S
C259 O262 1.238 . S
C259 O263 1.241 . S
C260 O253 1.247 . S
C260 O254 1.261 . S
C261 O256 1.259 . S
C261 O258 1.235 . S
O262 Co252 2.021 . S
O262 C259 1.238 . S
O263 Co257 2.052 . S
O263 C259 1.241 . S
O264 Co252 2.137 . S
O264 C255 1.247 . S
O265 Co252 2.244 . S
O265 C255 1.272 . S
O265 Co257 2.135 . S
Co266 O267 2.216 . S
Co266 O268 2.091 . S
Co266 O270 2.004 . S
Co266 O276 2.021 . S
Co266 O278 2.137 . S
Co266 O279 2.244 . S
O267 Co266 2.216 . S
O267 C274 1.247 . S
O268 Co266 2.091 . S
O268 C274 1.261 . S
C269 O278 1.247 . S
C269 O279 1.272 . S
O270 Co266 2.004 . S
O270 C275 1.259 . S
Co271 O272 2.061 . S
Co271 O277 2.052 . S
Co271 O279 2.135 . S
O272 Co271 2.061 . S
O272 C275 1.235 . S
C273 O276 1.238 . S
C273 O277 1.241 . S
C274 O267 1.247 . S
C274 O268 1.261 . S
C275 O270 1.259 . S
C275 O272 1.235 . S
O276 Co266 2.021 . S
O276 C273 1.238 . S
O277 Co271 2.052 . S
O277 C273 1.241 . S
O278 Co266 2.137 . S
O278 C269 1.247 . S
O279 Co266 2.244 . S
O279 C269 1.272 . S
O279 Co271 2.135 . S
Co280 O281 2.216 . S
Co280 O282 2.091 . S
Co280 O284 2.004 . S
Co280 O290 2.021 . S
Co280 O292 2.137 . S
Co280 O293 2.244 . S
O281 Co280 2.216 . S
O281 C288 1.247 . S
O282 Co280 2.091 . S
O282 C288 1.261 . S
C283 O292 1.247 . S
C283 O293 1.272 . S
O284 Co280 2.004 . S
O284 C289 1.259 . S
Co285 O286 2.061 . S
Co285 O291 2.052 . S
Co285 O293 2.135 . S
O286 Co285 2.061 . S
O286 C289 1.235 . S
C287 O290 1.238 . S
C287 O291 1.241 . S
C288 O281 1.247 . S
C288 O282 1.261 . S
C289 O284 1.259 . S
C289 O286 1.235 . S
O290 Co280 2.021 . S
O290 C287 1.238 . S
O291 Co285 2.052 . S
O291 C287 1.241 . S
O292 Co280 2.137 . S
O292 C283 1.247 . S
O293 Co280 2.244 . S
O293 C283 1.272 . S
O293 Co285 2.135 . S
Co294 O295 2.216 . S
Co294 O296 2.091 . S
Co294 O298 2.004 . S
Co294 O304 2.021 . S
Co294 O306 2.137 . S
Co294 O307 2.244 . S
O295 Co294 2.216 . S
O295 C302 1.247 . S
O296 Co294 2.091 . S
O296 C302 1.261 . S
C297 O306 1.247 . S
C297 O307 1.272 . S
O298 Co294 2.004 . S
O298 C303 1.259 1_556 S
Co299 O300 2.061 1_556 S
Co299 O305 2.052 . S
Co299 O307 2.135 . S
O300 Co299 2.061 1_554 S
O300 C303 1.235 . S
C301 O304 1.238 . S
C301 O305 1.241 . S
C302 O295 1.247 . S
C302 O296 1.261 . S
C303 O298 1.259 1_554 S
C303 O300 1.235 . S
O304 Co294 2.021 . S
O304 C301 1.238 . S
O305 Co299 2.052 . S
O305 C301 1.241 . S
O306 Co294 2.137 . S
O306 C297 1.247 . S
O307 Co294 2.244 . S
O307 C297 1.272 . S
O307 Co299 2.135 . S
Co308 O309 2.216 . S
Co308 O310 2.091 . S
Co308 O312 2.004 . S
Co308 O318 2.021 . S
Co308 O320 2.137 . S
Co308 O321 2.244 . S
O309 Co308 2.216 . S
O309 C316 1.247 . S
O310 Co308 2.091 . S
O310 C316 1.261 . S
C311 O320 1.247 . S
C311 O321 1.272 . S
O312 Co308 2.004 . S
O312 C317 1.259 1_556 S
Co313 O314 2.061 1_556 S
Co313 O319 2.052 . S
Co313 O321 2.135 . S
O314 Co313 2.061 1_554 S
O314 C317 1.235 . S
C315 O318 1.238 . S
C315 O319 1.241 . S
C316 O309 1.247 . S
C316 O310 1.261 . S
C317 O312 1.259 1_554 S
C317 O314 1.235 . S
O318 Co308 2.021 . S
O318 C315 1.238 . S
O319 Co313 2.052 . S
O319 C315 1.241 . S
O320 Co308 2.137 . S
O320 C311 1.247 . S
O321 Co308 2.244 . S
O321 C311 1.272 . S
O321 Co313 2.135 . S
Co322 O323 2.216 . S
Co322 O324 2.091 . S
Co322 O326 2.004 . S
Co322 O332 2.021 . S
Co322 O334 2.137 . S
Co322 O335 2.244 . S
O323 Co322 2.216 . S
O323 C330 1.247 . S
O324 Co322 2.091 . S
O324 C330 1.261 . S
C325 O334 1.247 . S
C325 O335 1.272 . S
O326 Co322 2.004 . S
O326 C331 1.259 1_556 S
Co327 O328 2.061 1_556 S
Co327 O333 2.052 . S
Co327 O335 2.135 . S
O328 Co327 2.061 1_554 S
O328 C331 1.235 . S
C329 O332 1.238 . S
C329 O333 1.241 . S
C330 O323 1.247 . S
C330 O324 1.261 . S
C331 O326 1.259 1_554 S
C331 O328 1.235 . S
O332 Co322 2.021 . S
O332 C329 1.238 . S
O333 Co327 2.052 . S
O333 C329 1.241 . S
O334 Co322 2.137 . S
O334 C325 1.247 . S
O335 Co322 2.244 . S
O335 C325 1.272 . S
O335 Co327 2.135 . S
Co336 O337 2.216 . S
Co336 O338 2.091 . S
Co336 O340 2.004 . S
Co336 O346 2.021 . S
Co336 O348 2.137 . S
Co336 O349 2.244 . S
O337 Co336 2.216 . S
O337 C344 1.247 . S
O338 Co336 2.091 . S
O338 C344 1.261 . S
C339 O348 1.247 . S
C339 O349 1.272 . S
O340 Co336 2.004 . S
O340 C345 1.259 . S
Co341 O342 2.061 . S
Co341 O347 2.052 . S
Co341 O349 2.135 . S
O342 Co341 2.061 . S
O342 C345 1.235 . S
C343 O346 1.238 . S
C343 O347 1.241 . S
C344 O337 1.247 . S
C344 O338 1.261 . S
C345 O340 1.259 . S
C345 O342 1.235 . S
O346 Co336 2.021 . S
O346 C343 1.238 . S
O347 Co341 2.052 . S
O347 C343 1.241 . S
O348 Co336 2.137 . S
O348 C339 1.247 . S
O349 Co336 2.244 . S
O349 C339 1.272 . S
O349 Co341 2.135 . S
Co350 O351 2.216 . S
Co350 O352 2.091 . S
Co350 O354 2.004 . S
Co350 O360 2.021 . S
Co350 O362 2.137 . S
Co350 O363 2.244 . S
O351 Co350 2.216 . S
O351 C358 1.247 . S
O352 Co350 2.091 . S
O352 C358 1.261 . S
C353 O362 1.247 . S
C353 O363 1.272 . S
O354 Co350 2.004 . S
O354 C359 1.259 . S
Co355 O356 2.061 . S
Co355 O361 2.052 . S
Co355 O363 2.135 . S
O356 Co355 2.061 . S
O356 C359 1.235 . S
C357 O360 1.238 . S
C357 O361 1.241 . S
C358 O351 1.247 . S
C358 O352 1.261 . S
C359 O354 1.259 . S
C359 O356 1.235 . S
O360 Co350 2.021 . S
O360 C357 1.238 . S
O361 Co355 2.052 . S
O361 C357 1.241 . S
O362 Co350 2.137 . S
O362 C353 1.247 . S
O363 Co350 2.244 . S
O363 C353 1.272 . S
O363 Co355 2.135 . S
Co364 O365 2.216 . S
Co364 O366 2.091 . S
Co364 O368 2.004 . S
Co364 O374 2.021 . S
Co364 O376 2.137 . S
Co364 O377 2.244 . S
O365 Co364 2.216 . S
O365 C372 1.247 . S
O366 Co364 2.091 . S
O366 C372 1.261 . S
C367 O376 1.247 . S
C367 O377 1.272 . S
O368 Co364 2.004 . S
O368 C373 1.259 . S
Co369 O370 2.061 . S
Co369 O375 2.052 . S
Co369 O377 2.135 . S
O370 Co369 2.061 . S
O370 C373 1.235 . S
C371 O374 1.238 . S
C371 O375 1.241 . S
C372 O365 1.247 . S
C372 O366 1.261 . S
C373 O368 1.259 . S
C373 O370 1.235 . S
O374 Co364 2.021 . S
O374 C371 1.238 . S
O375 Co369 2.052 . S
O375 C371 1.241 . S
O376 Co364 2.137 . S
O376 C367 1.247 . S
O377 Co364 2.244 . S
O377 C367 1.272 . S
O377 Co369 2.135 . S
Co378 O379 2.216 . S
Co378 O380 2.091 . S
Co378 O382 2.004 . S
Co378 O388 2.021 . S
Co378 O390 2.137 . S
Co378 O391 2.244 . S
O379 Co378 2.216 . S
O379 C386 1.247 . S
O380 Co378 2.091 . S
O380 C386 1.261 . S
C381 O390 1.247 . S
C381 O391 1.272 . S
O382 Co378 2.004 . S
O382 C387 1.259 1_554 S
Co383 O384 2.061 1_554 S
Co383 O389 2.052 . S
Co383 O391 2.135 . S
O384 Co383 2.061 1_556 S
O384 C387 1.235 . S
C385 O388 1.238 . S
C385 O389 1.241 . S
C386 O379 1.247 . S
C386 O380 1.261 . S
C387 O382 1.259 1_556 S
C387 O384 1.235 . S
O388 Co378 2.021 . S
O388 C385 1.238 . S
O389 Co383 2.052 . S
O389 C385 1.241 . S
O390 Co378 2.137 . S
O390 C381 1.247 . S
O391 Co378 2.244 . S
O391 C381 1.272 . S
O391 Co383 2.135 . S
Co392 O393 2.216 . S
Co392 O394 2.091 . S
Co392 O396 2.004 . S
Co392 O402 2.021 . S
Co392 O404 2.137 . S
Co392 O405 2.244 . S
O393 Co392 2.216 . S
O393 C400 1.247 . S
O394 Co392 2.091 . S
O394 C400 1.261 . S
C395 O404 1.247 . S
C395 O405 1.272 . S
O396 Co392 2.004 . S
O396 C401 1.259 1_554 S
Co397 O398 2.061 1_554 S
Co397 O403 2.052 . S
Co397 O405 2.135 . S
O398 Co397 2.061 1_556 S
O398 C401 1.235 . S
C399 O402 1.238 . S
C399 O403 1.241 . S
C400 O393 1.247 . S
C400 O394 1.261 . S
C401 O396 1.259 1_556 S
C401 O398 1.235 . S
O402 Co392 2.021 . S
O402 C399 1.238 . S
O403 Co397 2.052 . S
O403 C399 1.241 . S
O404 Co392 2.137 . S
O404 C395 1.247 . S
O405 Co392 2.244 . S
O405 C395 1.272 . S
O405 Co397 2.135 . S
Co406 O407 2.216 . S
Co406 O408 2.091 . S
Co406 O410 2.004 . S
Co406 O416 2.021 . S
Co406 O418 2.137 . S
Co406 O419 2.244 . S
O407 Co406 2.216 . S
O407 C414 1.247 . S
O408 Co406 2.091 . S
O408 C414 1.261 . S
C409 O418 1.247 . S
C409 O419 1.272 . S
O410 Co406 2.004 . S
O410 C415 1.259 1_554 S
Co411 O412 2.061 1_554 S
Co411 O417 2.052 . S
Co411 O419 2.135 . S
O412 Co411 2.061 1_556 S
O412 C415 1.235 . S
C413 O416 1.238 . S
C413 O417 1.241 . S
C414 O407 1.247 . S
C414 O408 1.261 . S
C415 O410 1.259 1_556 S
C415 O412 1.235 . S
O416 Co406 2.021 . S
O416 C413 1.238 . S
O417 Co411 2.052 . S
O417 C413 1.241 . S
O418 Co406 2.137 . S
O418 C409 1.247 . S
O419 Co406 2.244 . S
O419 C409 1.272 . S
O419 Co411 2.135 . S
Co420 O421 2.216 . S
Co420 O422 2.091 . S
Co420 O424 2.004 . S
Co420 O430 2.021 . S
Co420 O432 2.137 . S
Co420 O433 2.244 . S
O421 Co420 2.216 . S
O421 C428 1.247 . S
O422 Co420 2.091 . S
O422 C428 1.261 . S
C423 O432 1.247 . S
C423 O433 1.272 . S
O424 Co420 2.004 . S
O424 C429 1.259 . S
Co425 O426 2.061 . S
Co425 O431 2.052 . S
Co425 O433 2.135 . S
O426 Co425 2.061 . S
O426 C429 1.235 . S
C427 O430 1.238 . S
C427 O431 1.241 . S
C428 O421 1.247 . S
C428 O422 1.261 . S
C429 O424 1.259 . S
C429 O426 1.235 . S
O430 Co420 2.021 . S
O430 C427 1.238 . S
O431 Co425 2.052 . S
O431 C427 1.241 . S
O432 Co420 2.137 . S
O432 C423 1.247 . S
O433 Co420 2.244 . S
O433 C423 1.272 . S
O433 Co425 2.135 . S
Co434 O435 2.216 . S
Co434 O436 2.091 . S
Co434 O438 2.004 . S
Co434 O444 2.021 . S
Co434 O446 2.137 . S
Co434 O447 2.244 . S
O435 Co434 2.216 . S
O435 C442 1.247 . S
O436 Co434 2.091 . S
O436 C442 1.261 . S
C437 O446 1.247 . S
C437 O447 1.272 . S
O438 Co434 2.004 . S
O438 C443 1.259 . S
Co439 O440 2.061 . S
Co439 O445 2.052 . S
Co439 O447 2.135 . S
O440 Co439 2.061 . S
O440 C443 1.235 . S
C441 O444 1.238 . S
C441 O445 1.241 . S
C442 O435 1.247 . S
C442 O436 1.261 . S
C443 O438 1.259 . S
C443 O440 1.235 . S
O444 Co434 2.021 . S
O444 C441 1.238 . S
O445 Co439 2.052 . S
O445 C441 1.241 . S
O446 Co434 2.137 . S
O446 C437 1.247 . S
O447 Co434 2.244 . S
O447 C437 1.272 . S
O447 Co439 2.135 . S
Co448 O449 2.216 . S
Co448 O450 2.091 . S
Co448 O452 2.004 . S
Co448 O458 2.021 . S
Co448 O460 2.137 . S
Co448 O461 2.244 . S
O449 Co448 2.216 . S
O449 C456 1.247 . S
O450 Co448 2.091 . S
O450 C456 1.261 . S
C451 O460 1.247 . S
C451 O461 1.272 . S
O452 Co448 2.004 . S
O452 C457 1.259 . S
Co453 O454 2.061 . S
Co453 O459 2.052 . S
Co453 O461 2.135 . S
O454 Co453 2.061 . S
O454 C457 1.235 . S
C455 O458 1.238 . S
C455 O459 1.241 . S
C456 O449 1.247 . S
C456 O450 1.261 . S
C457 O452 1.259 . S
C457 O454 1.235 . S
O458 Co448 2.021 . S
O458 C455 1.238 . S
O459 Co453 2.052 . S
O459 C455 1.241 . S
O460 Co448 2.137 . S
O460 C451 1.247 . S
O461 Co448 2.244 . S
O461 C451 1.272 . S
O461 Co453 2.135 . S
Co462 O463 2.216 . S
Co462 O464 2.091 . S
Co462 O466 2.004 . S
Co462 O472 2.021 . S
Co462 O474 2.137 . S
Co462 O475 2.244 . S
O463 Co462 2.216 . S
O463 C470 1.247 . S
O464 Co462 2.091 . S
O464 C470 1.261 . S
C465 O474 1.247 . S
C465 O475 1.272 . S
O466 Co462 2.004 . S
O466 C471 1.259 . S
Co467 O468 2.061 . S
Co467 O473 2.052 . S
Co467 O475 2.135 . S
O468 Co467 2.061 . S
O468 C471 1.235 . S
C469 O472 1.238 . S
C469 O473 1.241 . S
C470 O463 1.247 . S
C470 O464 1.261 . S
C471 O466 1.259 . S
C471 O468 1.235 . S
O472 Co462 2.021 . S
O472 C469 1.238 . S
O473 Co467 2.052 . S
O473 C469 1.241 . S
O474 Co462 2.137 . S
O474 C465 1.247 . S
O475 Co462 2.244 . S
O475 C465 1.272 . S
O475 Co467 2.135 . S
Co476 O477 2.216 . S
Co476 O478 2.091 . S
Co476 O480 2.004 . S
Co476 O486 2.021 . S
Co476 O488 2.137 . S
Co476 O489 2.244 . S
O477 Co476 2.216 . S
O477 C484 1.247 . S
O478 Co476 2.091 . S
O478 C484 1.261 . S
C479 O488 1.247 . S
C479 O489 1.272 . S
O480 Co476 2.004 . S
O480 C485 1.259 . S
Co481 O482 2.061 . S
Co481 O487 2.052 . S
Co481 O489 2.135 . S
O482 Co481 2.061 . S
O482 C485 1.235 . S
C483 O486 1.238 . S
C483 O487 1.241 . S
C484 O477 1.247 . S
C484 O478 1.261 . S
C485 O480 1.259 . S
C485 O482 1.235 . S
O486 Co476 2.021 . S
O486 C483 1.238 . S
O487 Co481 2.052 . S
O487 C483 1.241 . S
O488 Co476 2.137 . S
O488 C479 1.247 . S
O489 Co476 2.244 . S
O489 C479 1.272 . S
O489 Co481 2.135 . S
Co490 O491 2.216 . S
Co490 O492 2.091 . S
Co490 O494 2.004 . S
Co490 O500 2.021 . S
Co490 O502 2.137 . S
Co490 O503 2.244 . S
O491 Co490 2.216 . S
O491 C498 1.247 . S
O492 Co490 2.091 . S
O492 C498 1.261 . S
C493 O502 1.247 . S
C493 O503 1.272 . S
O494 Co490 2.004 . S
O494 C499 1.259 . S
Co495 O496 2.061 . S
Co495 O501 2.052 . S
Co495 O503 2.135 . S
O496 Co495 2.061 . S
O496 C499 1.235 . S
C497 O500 1.238 . S
C497 O501 1.241 . S
C498 O491 1.247 . S
C498 O492 1.261 . S
C499 O494 1.259 . S
C499 O496 1.235 . S
O500 Co490 2.021 . S
O500 C497 1.238 . S
O501 Co495 2.052 . S
O501 C497 1.241 . S
O502 Co490 2.137 . S
O502 C493 1.247 . S
O503 Co490 2.244 . S
O503 C493 1.272 . S
O503 Co495 2.135 . S
C232 C8 1.278 . S
C246 C22 1.278 . S
C36 C218 1.278 . S
C372 C50 1.278 . S
C344 C64 1.278 . S
C78 C358 1.278 . S
C484 C92 1.278 . S
C498 C106 1.278 . S
C470 C120 1.278 . S
C288 C134 1.278 . S
C148 C260 1.278 . S
C274 C162 1.278 . S
C400 C176 1.278 1_455 S
C190 C414 1.278 . S
C386 C204 1.278 1_565 S
C456 C302 1.278 1_565 S
C428 C316 1.278 1_455 S
C330 C442 1.278 . S
C101 C7 1.735 1_556 S
C115 C21 1.734 1_556 S
C87 C35 1.734 1_556 S
C49 C157 1.734 . S
C129 C63 1.734 . S
C77 C143 1.734 . S
C17 C91 1.735 1_554 S
C105 C31 1.734 1_556 S
C3 C119 1.734 1_554 S
C73 C133 1.734 . S
C45 C147 1.734 . S
C161 C59 1.734 . S
C175 C269 1.735 . S
C283 C189 1.734 . S
C255 C203 1.734 . S
C217 C325 1.735 . S
C297 C231 1.734 . S
C245 C311 1.734 . S
C259 C185 1.734 . S
C273 C199 1.734 . S
C171 C287 1.734 . S
C241 C301 1.735 . S
C213 C315 1.734 . S
C329 C227 1.734 . S
C437 C343 1.734 . S
C357 C451 1.734 . S
C371 C423 1.734 . S
C493 C385 1.735 . S
C399 C465 1.734 . S
C479 C413 1.734 . S
C353 C427 1.735 . S
C367 C441 1.734 . S
C455 C339 1.734 . S
C469 C409 1.735 . S
C381 C483 1.734 . S
C395 C497 1.734 . S
C9 C51 1.517 . S
C23 C65 1.516 1_545 S
C79 C37 1.516 1_455 S
C93 C135 1.517 . S
C149 C107 1.516 1_545 S
C163 C121 1.516 1_655 S
C177 C219 1.516 . S
C191 C233 1.517 . S
C247 C205 1.516 . S
C261 C303 1.516 . S
C275 C317 1.516 . S
C289 C331 1.517 . S
C387 C345 1.516 . S
C401 C359 1.516 . S
C415 C373 1.517 . S
C429 C471 1.516 . S
C485 C443 1.517 . S
C499 C457 1.516 . S
