# Generated by pormake.
# Topology acs-a, (4)-cn, num edge types: 1
# Building blocks:
#     Node 0, Type 0, BuildingBlock: AZAVOO_clean_sbu_0, # of connection points: 4
#     Node 1, Type 0, BuildingBlock: AZAVOO_clean_sbu_0, # of connection points: 4
#     Node 2, Type 0, BuildingBlock: AZAVOO_clean_sbu_0, # of connection points: 4
#     Node 3, Type 0, BuildingBlock: AZAVOO_clean_sbu_0, # of connection points: 4
#     Node 4, Type 0, BuildingBlock: AZAVOO_clean_sbu_0, # of connection points: 4
#     Node 5, Type 0, BuildingBlock: AZAVOO_clean_sbu_0, # of connection points: 4
#     Node 6, Type 0, BuildingBlock: AZAVOO_clean_sbu_0, # of connection points: 4
#     Node 7, Type 0, BuildingBlock: AZAVOO_clean_sbu_0, # of connection points: 4
#     Node 8, Type 0, BuildingBlock: AZAVOO_clean_sbu_0, # of connection points: 4
#     Node 9, Type 0, BuildingBlock: AZAVOO_clean_sbu_0, # of connection points: 4
#     Node 10, Type 0, BuildingBlock: AZAVOO_clean_sbu_0, # of connection points: 4
#     Node 11, Type 0, BuildingBlock: AZAVOO_clean_sbu_0, # of connection points: 4
#     Edge 12, Type (0, 0), BuildingBlock: ZUJKAS_clean_linker_0, # of connection points: 2
#     Edge 13, Type (0, 0), BuildingBlock: ZUJKAS_clean_linker_0, # of connection points: 2
#     Edge 14, Type (0, 0), BuildingBlock: ZUJKAS_clean_linker_0, # of connection points: 2
#     Edge 15, Type (0, 0), BuildingBlock: ZUJKAS_clean_linker_0, # of connection points: 2
#     Edge 16, Type (0, 0), BuildingBlock: ZUJKAS_clean_linker_0, # of connection points: 2
#     Edge 17, Type (0, 0), BuildingBlock: ZUJKAS_clean_linker_0, # of connection points: 2
#     Edge 18, Type (0, 0), BuildingBlock: ZUJKAS_clean_linker_0, # of connection points: 2
#     Edge 19, Type (0, 0), BuildingBlock: ZUJKAS_clean_linker_0, # of connection points: 2
#     Edge 20, Type (0, 0), BuildingBlock: ZUJKAS_clean_linker_0, # of connection points: 2
#     Edge 21, Type (0, 0), BuildingBlock: ZUJKAS_clean_linker_0, # of connection points: 2
#     Edge 22, Type (0, 0), BuildingBlock: ZUJKAS_clean_linker_0, # of connection points: 2
#     Edge 23, Type (0, 0), BuildingBlock: ZUJKAS_clean_linker_0, # of connection points: 2
#     Edge 24, Type (0, 0), BuildingBlock: ZUJKAS_clean_linker_0, # of connection points: 2
#     Edge 25, Type (0, 0), BuildingBlock: ZUJKAS_clean_linker_0, # of connection points: 2
#     Edge 26, Type (0, 0), BuildingBlock: ZUJKAS_clean_linker_0, # of connection points: 2
#     Edge 27, Type (0, 0), BuildingBlock: ZUJKAS_clean_linker_0, # of connection points: 2
#     Edge 28, Type (0, 0), BuildingBlock: ZUJKAS_clean_linker_0, # of connection points: 2
#     Edge 29, Type (0, 0), BuildingBlock: ZUJKAS_clean_linker_0, # of connection points: 2
#     Edge 30, Type (0, 0), BuildingBlock: ZUJKAS_clean_linker_0, # of connection points: 2
#     Edge 31, Type (0, 0), BuildingBlock: ZUJKAS_clean_linker_0, # of connection points: 2
#     Edge 32, Type (0, 0), BuildingBlock: ZUJKAS_clean_linker_0, # of connection points: 2
#     Edge 33, Type (0, 0), BuildingBlock: ZUJKAS_clean_linker_0, # of connection points: 2
#     Edge 34, Type (0, 0), BuildingBlock: ZUJKAS_clean_linker_0, # of connection points: 2
#     Edge 35, Type (0, 0), BuildingBlock: ZUJKAS_clean_linker_0, # of connection points: 2
# Relax obj value: 0.393
# Max RMSD: 0.182
# Mean RMSD: 0.181
data_MOF--net-acs-a--node1-AZAVOO_clean_sbu_0--edge1-ZUJKAS_clean_linker_0
_symmetry_space_group_name_H-M    P1
_symmetry_Int_Tables_number       1
_symmetry_cell_setting            triclinic
loop_
_symmetry_equiv_pos_as_xyz
'x, y, z'
_cell_length_a     56.793652
_cell_length_b     56.821453
_cell_length_c     68.104816
_cell_angle_alpha  90.048132
_cell_angle_beta   90.208817
_cell_angle_gamma 120.29358
loop_
_atom_site_label
_atom_site_type_symbol
_atom_site_fract_x
_atom_site_fract_y
_atom_site_fract_z
_atom_type_partial_charge
Mg0 Mg 0.51251 0.09959 0.08997 0.0
O1 O 0.55345 0.13771 0.09594 0.0
O2 O 0.54853 0.17217 0.10642 0.0
Mg3 Mg 0.50235 0.15346 0.11053 0.0
C4 C 0.56354 0.1625 0.1012 0.0
C5 C 0.5415 0.06286 0.07629 0.0
O6 O 0.55834 0.05485 0.08233 0.0
O7 O 0.50701 0.09027 0.12298 0.0
O8 O 0.50227 0.12461 0.13408 0.0
O9 O 0.51374 0.11835 0.06051 0.0
O10 O 0.49445 0.12361 0.08693 0.0
C11 C 0.5038 0.10323 0.13707 0.0
C12 C 0.50264 0.13062 0.0692 0.0
O13 O 0.53632 0.07703 0.08806 0.0
Mg14 Mg 0.41327 0.50293 0.58968 0.0
O15 O 0.4123 0.54222 0.59495 0.0
O16 O 0.37156 0.53279 0.60624 0.0
Mg17 Mg 0.34873 0.487 0.61268 0.0
C18 C 0.3955 0.54971 0.60015 0.0
C19 C 0.47609 0.53474 0.57155 0.0
O20 O 0.50152 0.55415 0.57426 0.0
O21 O 0.42097 0.5008 0.62252 0.0
O22 O 0.38165 0.49334 0.63522 0.0
O23 O 0.3933 0.50127 0.56097 0.0
O24 O 0.37064 0.4814 0.58808 0.0
C25 C 0.40589 0.49769 0.6373 0.0
C26 C 0.37049 0.48969 0.57051 0.0
O27 O 0.45916 0.52996 0.58528 0.0
Mg28 Mg 0.88949 0.3837 0.10034 0.0
O29 O 0.85515 0.39403 0.1 0.0
O30 O 0.8208 0.3632 0.11835 0.0
Mg31 Mg 0.83533 0.33725 0.13382 0.0
C32 C 0.83096 0.38359 0.10674 0.0
C33 C 0.90768 0.42809 0.06778 0.0
O34 O 0.88118 0.41463 0.06492 0.0
O35 O 0.90424 0.40561 0.13021 0.0
O36 O 0.8696 0.37543 0.14853 0.0
O37 O 0.86645 0.35315 0.07681 0.0
O38 O 0.8612 0.34367 0.10849 0.0
C39 C 0.89224 0.39773 0.14679 0.0
C40 C 0.85261 0.33651 0.09077 0.0
O41 O 0.91751 0.42177 0.08234 0.0
Mg42 Mg 0.47326 0.87107 0.594 0.0
O43 O 0.42752 0.83897 0.59126 0.0
O44 O 0.41943 0.80491 0.61168 0.0
Mg45 Mg 0.45857 0.81554 0.62829 0.0
C46 C 0.41147 0.81557 0.59866 0.0
C47 C 0.45675 0.89435 0.5587 0.0
O48 O 0.44747 0.86908 0.55295 0.0
O49 O 0.46634 0.88702 0.62342 0.0
O50 O 0.4592 0.85217 0.64257 0.0
O51 O 0.48077 0.84677 0.57147 0.0
O52 O 0.48148 0.84099 0.60347 0.0
C53 C 0.46181 0.87567 0.6403 0.0
C54 C 0.4817 0.83258 0.586 0.0
O55 O 0.46734 0.90148 0.57573 0.0
Mg56 Mg 0.60041 0.47042 0.08882 0.0
O57 O 0.58461 0.42414 0.0865 0.0
O58 O 0.61169 0.41623 0.10598 0.0
Mg59 Mg 0.64415 0.45591 0.12027 0.0
C60 C 0.59171 0.40799 0.09398 0.0
C61 C 0.57103 0.48913 0.06335 0.0
O62 O 0.59576 0.50957 0.06682 0.0
O63 O 0.58111 0.46553 0.11973 0.0
O64 O 0.61131 0.45944 0.13678 0.0
O65 O 0.62979 0.47669 0.06454 0.0
O66 O 0.63927 0.47815 0.09612 0.0
C67 C 0.59052 0.46245 0.13607 0.0
C68 C 0.64645 0.47849 0.07824 0.0
O69 O 0.56373 0.46656 0.07187 0.0
Mg70 Mg 0.1146 0.56714 0.57869 0.0
O71 O 0.15317 0.56417 0.58258 0.0
O72 O 0.18597 0.60175 0.59706 0.0
Mg73 Mg 0.16673 0.62773 0.60476 0.0
C74 C 0.17756 0.57854 0.58898 0.0
C75 C 0.07142 0.504 0.56197 0.0
O76 O 0.06544 0.47846 0.56283 0.0
O77 O 0.10366 0.55702 0.61128 0.0
O78 O 0.13648 0.5948 0.62564 0.0
O79 O 0.134 0.59064 0.55093 0.0
O80 O 0.13797 0.60958 0.57996 0.0
C81 C 0.1153 0.5711 0.62667 0.0
C82 C 0.14524 0.61224 0.5619 0.0
O83 O 0.09219 0.52158 0.57156 0.0
Mg84 Mg 0.90131 0.4967 0.37864 0.0
O85 O 0.86177 0.45696 0.37184 0.0
O86 O 0.83051 0.46558 0.35926 0.0
Mg87 Mg 0.85316 0.51152 0.35359 0.0
C88 C 0.83763 0.44899 0.36571 0.0
C89 C 0.93247 0.46446 0.39658 0.0
O90 O 0.93896 0.44577 0.39274 0.0
O91 O 0.91362 0.50082 0.34637 0.0
O92 O 0.88201 0.50739 0.33209 0.0
O93 O 0.88098 0.4968 0.40669 0.0
O94 O 0.87913 0.517 0.37947 0.0
C95 C 0.90261 0.50409 0.33104 0.0
C96 C 0.86985 0.50816 0.3968 0.0
O97 O 0.92077 0.47042 0.38315 0.0
Mg98 Mg 0.36858 0.88258 0.87193 0.0
O99 O 0.38487 0.85248 0.87396 0.0
O100 O 0.35612 0.81546 0.85655 0.0
Mg101 Mg 0.32521 0.82322 0.84089 0.0
C102 C 0.37685 0.8283 0.86779 0.0
C103 C 0.41126 0.90916 0.90501 0.0
O104 O 0.398 0.88339 0.9102 0.0
O105 O 0.38834 0.89651 0.84136 0.0
O106 O 0.35992 0.85888 0.82454 0.0
O107 O 0.33951 0.85967 0.89635 0.0
O108 O 0.32965 0.85042 0.86494 0.0
C109 C 0.38057 0.88297 0.82527 0.0
C110 C 0.32296 0.84371 0.88295 0.0
O111 O 0.40561 0.91578 0.88857 0.0
Mg112 Mg 0.53357 0.42381 0.38141 0.0
O113 O 0.57577 0.42755 0.38098 0.0
O114 O 0.5728 0.39023 0.36763 0.0
Mg115 Mg 0.52779 0.36235 0.35917 0.0
C116 C 0.58663 0.41361 0.37573 0.0
C117 C 0.55696 0.48502 0.40108 0.0
O118 O 0.57412 0.51133 0.39955 0.0
O119 O 0.53482 0.43148 0.34804 0.0
O120 O 0.53075 0.39299 0.33608 0.0
O121 O 0.52739 0.40263 0.41051 0.0
O122 O 0.51513 0.38155 0.38184 0.0
C123 C 0.53312 0.41636 0.33354 0.0
C124 C 0.51829 0.38033 0.40042 0.0
O125 O 0.55562 0.46965 0.38701 0.0
Mg126 Mg 0.10622 0.49684 0.86824 0.0
O127 O 0.13672 0.54297 0.87117 0.0
O128 O 0.1723 0.55302 0.85182 0.0
Mg129 Mg 0.16357 0.51471 0.83511 0.0
C130 C 0.16017 0.56 0.86428 0.0
C131 C 0.06056 0.4807 0.89703 0.0
O132 O 0.06351 0.45931 0.89512 0.0
O133 O 0.09076 0.50387 0.83871 0.0
O134 O 0.12766 0.51534 0.82035 0.0
O135 O 0.13035 0.49 0.89117 0.0
O136 O 0.1375 0.49024 0.85927 0.0
C137 C 0.10359 0.51136 0.82242 0.0
C138 C 0.14528 0.48977 0.87695 0.0
O139 O 0.07515 0.50148 0.88648 0.0
Mg140 Mg 0.59114 0.1269 0.37697 0.0
O141 O 0.57752 0.15871 0.38144 0.0
O142 O 0.60118 0.19232 0.36005 0.0
Mg143 Mg 0.62711 0.18146 0.34097 0.0
C144 C 0.58408 0.18192 0.37405 0.0
C145 C 0.55645 0.10237 0.41476 0.0
O146 O 0.57451 0.12683 0.42108 0.0
O147 O 0.56476 0.11002 0.34909 0.0
O148 O 0.58825 0.14508 0.32869 0.0
O149 O 0.62578 0.15194 0.39757 0.0
O150 O 0.62804 0.1569 0.36533 0.0
C151 C 0.5681 0.12141 0.33234 0.0
C152 C 0.63899 0.16577 0.38229 0.0
O153 O 0.55689 0.09643 0.39681 0.0
Mg154 Mg 0.49449 0.62048 0.87267 0.0
O155 O 0.44849 0.60562 0.87253 0.0
O156 O 0.44213 0.63484 0.8544 0.0
Mg157 Mg 0.48238 0.66455 0.8398 0.0
C158 C 0.43313 0.61407 0.86559 0.0
C159 C 0.47157 0.57395 0.90436 0.0
O160 O 0.45641 0.5848 0.90816 0.0
O161 O 0.48947 0.60009 0.84237 0.0
O162 O 0.48193 0.62851 0.82439 0.0
O163 O 0.49954 0.64985 0.89663 0.0
O164 O 0.50313 0.65972 0.86507 0.0
C165 C 0.4844 0.60745 0.82588 0.0
C166 C 0.50164 0.66644 0.88285 0.0
O167 O 0.48776 0.58278 0.88981 0.0
H168 H 0.54675 0.14224 0.30711 0.0
H169 H 0.52424 0.12277 0.27579 0.0
H170 H 0.52646 0.04949 0.28817 0.0
H171 H 0.54863 0.06887 0.32001 0.0
H172 H 0.55361 0.07974 0.252 0.0
H173 H 0.44768 0.05903 0.25798 0.0
H174 H 0.47251 0.09084 0.26891 0.0
H175 H 0.46741 0.05939 0.27902 0.0
C176 C 0.54159 0.12161 0.30345 0.0
C177 C 0.54924 0.10696 0.31595 0.0
C178 C 0.52868 0.11048 0.28559 0.0
C179 C 0.5235 0.08462 0.27974 0.0
C180 C 0.53002 0.06936 0.29256 0.0
H181 H 0.50557 0.05839 0.15076 0.0
H182 H 0.50607 0.04567 0.18516 0.0
C183 C 0.54252 0.08035 0.31073 0.0
C184 C 0.51498 0.07589 0.25918 0.0
H185 H 0.46743 0.06946 0.22557 0.0
C186 C 0.53443 0.07661 0.24617 0.0
C187 C 0.49 0.0719 0.25172 0.0
C188 C 0.46806 0.06998 0.26515 0.0
C189 C 0.53065 0.07609 0.22573 0.0
C190 C 0.50645 0.07415 0.21821 0.0
C191 C 0.48603 0.07108 0.23132 0.0
C192 C 0.5038 0.07971 0.19725 0.0
C193 C 0.55354 0.07995 0.21244 0.0
C194 C 0.50144 0.10248 0.19263 0.0
C195 C 0.50087 0.1096 0.17314 0.0
C196 C 0.50272 0.09416 0.15768 0.0
C197 C 0.50432 0.07085 0.16229 0.0
C198 C 0.50473 0.06362 0.18194 0.0
H199 H 0.5725 0.08539 0.22075 0.0
H200 H 0.54727 0.06075 0.2043 0.0
H201 H 0.55819 0.09623 0.20153 0.0
H202 H 0.50073 0.11524 0.20417 0.0
H203 H 0.49953 0.12763 0.17025 0.0
H204 H 0.38116 0.49752 0.67162 0.0
H205 H 0.40109 0.50903 0.70431 0.0
H206 H 0.47571 0.5167 0.68218 0.0
H207 H 0.45612 0.50603 0.64899 0.0
H208 H 0.42232 0.48836 0.72999 0.0
H209 H 0.50273 0.59134 0.70535 0.0
H210 H 0.47453 0.56887 0.68976 0.0
H211 H 0.50244 0.56293 0.69356 0.0
C212 C 0.40176 0.50141 0.67361 0.0
C213 C 0.41716 0.50124 0.65752 0.0
C214 C 0.4131 0.50789 0.69242 0.0
C215 C 0.44008 0.51425 0.6957 0.0
C216 C 0.45506 0.51252 0.67994 0.0
H217 H 0.49181 0.56326 0.82024 0.0
H218 H 0.48532 0.53783 0.78946 0.0
C219 C 0.44377 0.50626 0.66097 0.0
C220 C 0.45261 0.52459 0.71536 0.0
H221 H 0.49899 0.58288 0.73901 0.0
C222 C 0.43942 0.50885 0.73201 0.0
C223 C 0.47492 0.55138 0.71796 0.0
C224 C 0.48942 0.56976 0.70077 0.0
C225 C 0.44672 0.51977 0.75108 0.0
C226 C 0.46815 0.54697 0.75357 0.0
C227 C 0.4826 0.562 0.73703 0.0
C228 C 0.47279 0.56185 0.77245 0.0
C229 C 0.43021 0.50282 0.76827 0.0
C230 C 0.46828 0.58391 0.77303 0.0
C231 C 0.47214 0.59845 0.79035 0.0
C232 C 0.48063 0.59137 0.8077 0.0
C233 C 0.48519 0.5692 0.80718 0.0
C234 C 0.48139 0.5546 0.78964 0.0
H235 H 0.41211 0.48335 0.76355 0.0
H236 H 0.44316 0.49796 0.7777 0.0
H237 H 0.42321 0.51437 0.77732 0.0
H238 H 0.4615 0.58981 0.76002 0.0
H239 H 0.46827 0.61526 0.79006 0.0
H240 H 0.9387 0.44858 0.15082 0.0
H241 H 0.95611 0.4757 0.18118 0.0
H242 H 0.88914 0.41189 0.21341 0.0
H243 H 0.87211 0.38487 0.18382 0.0
H244 H 0.93128 0.49544 0.20521 0.0
H245 H 0.95262 0.4263 0.24811 0.0
H246 H 0.94797 0.42322 0.22179 0.0
H247 H 0.91894 0.40748 0.23794 0.0
C248 C 0.92794 0.44026 0.16445 0.0
C249 C 0.90407 0.41445 0.16482 0.0
C250 C 0.9379 0.45575 0.18176 0.0
C251 C 0.92429 0.44551 0.19967 0.0
C252 C 0.9005 0.41989 0.19995 0.0
H253 H 0.87879 0.50107 0.29556 0.0
H254 H 0.89224 0.4933 0.26354 0.0
C255 C 0.89063 0.40452 0.18284 0.0
C256 C 0.93316 0.4618 0.21808 0.0
H257 H 0.93818 0.45344 0.26718 0.0
C258 C 0.93358 0.48668 0.21872 0.0
C259 C 0.93701 0.4509 0.23567 0.0
C260 C 0.93944 0.42566 0.23578 0.0
C261 C 0.9349 0.49944 0.23672 0.0
C262 C 0.93498 0.4865 0.25448 0.0
C263 C 0.93747 0.46315 0.25366 0.0
C264 C 0.92902 0.49459 0.2738 0.0
C265 C 0.93536 0.5262 0.23646 0.0
C266 C 0.94479 0.49731 0.29053 0.0
C267 C 0.93674 0.50116 0.30912 0.0
C268 C 0.91277 0.50242 0.31132 0.0
C269 C 0.8975 0.50047 0.29446 0.0
C270 C 0.90537 0.49632 0.276 0.0
H271 H 0.94661 0.53845 0.22344 0.0
H272 H 0.91415 0.52221 0.23533 0.0
H273 H 0.945 0.53839 0.24992 0.0
H274 H 0.96299 0.49578 0.28927 0.0
H275 H 0.94899 0.5026 0.32178 0.0
H276 H 0.37239 0.85662 0.79046 0.0
H277 H 0.39437 0.8747 0.75931 0.0
H278 H 0.44383 0.95412 0.78548 0.0
H279 H 0.42172 0.9359 0.81741 0.0
H280 H 0.39615 0.91903 0.73757 0.0
H281 H 0.49897 0.93647 0.75791 0.0
H282 H 0.46955 0.91477 0.77266 0.0
H283 H 0.48312 0.95091 0.7727 0.0
C284 C 0.38789 0.87799 0.78981 0.0
C285 C 0.39519 0.8948 0.80656 0.0
C286 C 0.40041 0.88832 0.77186 0.0
C287 C 0.42062 0.91575 0.77002 0.0
C288 C 0.4283 0.93282 0.78662 0.0
H289 H 0.46137 0.92418 0.64344 0.0
H290 H 0.45696 0.94527 0.67382 0.0
C291 C 0.41568 0.92239 0.80482 0.0
C292 C 0.43348 0.92526 0.75051 0.0
H293 H 0.48755 0.9316 0.72448 0.0
C294 C 0.41652 0.9228 0.73462 0.0
C295 C 0.46009 0.93031 0.74679 0.0
C296 C 0.47915 0.93328 0.76333 0.0
C297 C 0.42424 0.92204 0.71517 0.0
C298 C 0.44976 0.9242 0.71157 0.0
C299 C 0.46796 0.92989 0.72731 0.0
C300 C 0.45494 0.91392 0.69298 0.0
C301 C 0.40392 0.916 0.69884 0.0
C302 C 0.45572 0.88971 0.69373 0.0
C303 C 0.45818 0.87775 0.67664 0.0
C304 C 0.45997 0.88966 0.65818 0.0
C305 C 0.45986 0.91438 0.65739 0.0
C306 C 0.45732 0.92643 0.67471 0.0
H307 H 0.38437 0.91347 0.70431 0.0
H308 H 0.4126 0.93294 0.68808 0.0
H309 H 0.39959 0.89709 0.69098 0.0
H310 H 0.45375 0.87958 0.70762 0.0
H311 H 0.45841 0.85887 0.678 0.0
H312 H 0.52949 0.46045 0.32038 0.0
H313 H 0.52871 0.47363 0.2861 0.0
H314 H 0.53731 0.40625 0.2663 0.0
H315 H 0.53752 0.39274 0.30003 0.0
H316 H 0.56628 0.48947 0.25814 0.0
H317 H 0.47575 0.39615 0.23173 0.0
H318 H 0.48319 0.40328 0.25758 0.0
H319 H 0.49817 0.38709 0.2437 0.0
C320 C 0.53104 0.44838 0.30868 0.0
C321 C 0.53336 0.4254 0.31302 0.0
C322 C 0.53047 0.45586 0.2891 0.0
C323 C 0.53208 0.44043 0.27355 0.0
C324 C 0.53494 0.41788 0.27794 0.0
H325 H 0.61387 0.4696 0.17194 0.0
H326 H 0.59497 0.46891 0.20376 0.0
C327 C 0.53537 0.41035 0.29735 0.0
C328 C 0.5331 0.44869 0.2527 0.0
H329 H 0.51149 0.42095 0.20704 0.0
C330 C 0.55375 0.47474 0.247 0.0
C331 C 0.51626 0.42992 0.23804 0.0
C332 C 0.4919 0.40268 0.24314 0.0
C333 C 0.55993 0.48133 0.2271 0.0
C334 C 0.54555 0.46116 0.21258 0.0
C335 C 0.52293 0.43626 0.21815 0.0
C336 C 0.55686 0.46351 0.19256 0.0
C337 C 0.58283 0.50941 0.22188 0.0
C338 C 0.54144 0.45998 0.17542 0.0
C339 C 0.55228 0.46017 0.15681 0.0
C340 C 0.57844 0.46334 0.15519 0.0
C341 C 0.59361 0.46696 0.17247 0.0
C342 C 0.58296 0.46695 0.19081 0.0
H343 H 0.584 0.52483 0.23249 0.0
H344 H 0.6025 0.5097 0.22263 0.0
H345 H 0.58027 0.51537 0.20684 0.0
H346 H 0.52105 0.45687 0.17646 0.0
H347 H 0.54005 0.45725 0.14382 0.0
H348 H 0.13635 0.59523 0.66202 0.0
H349 H 0.11892 0.57829 0.69461 0.0
H350 H 0.05135 0.50593 0.66945 0.0
H351 H 0.06897 0.52266 0.63636 0.0
H352 H 0.06818 0.56451 0.71117 0.0
H353 H 0.08486 0.47585 0.7088 0.0
H354 H 0.10017 0.50305 0.69108 0.0
H355 H 0.0644 0.47859 0.68972 0.0
C356 C 0.11777 0.57566 0.66325 0.0
C357 C 0.10416 0.56026 0.64646 0.0
C358 C 0.10777 0.56607 0.68198 0.0
C359 C 0.08393 0.54081 0.6845 0.0
C360 C 0.06999 0.52535 0.66785 0.0
H361 H 0.05435 0.47612 0.80532 0.0
H362 H 0.03983 0.4801 0.7719 0.0
C363 C 0.08006 0.53497 0.64895 0.0
C364 C 0.07463 0.53103 0.70477 0.0
H365 H 0.0747 0.4875 0.73926 0.0
C366 C 0.06896 0.54726 0.71723 0.0
C367 C 0.07539 0.50839 0.71265 0.0
C368 C 0.08164 0.49044 0.69999 0.0
C369 C 0.06604 0.54266 0.73755 0.0
C370 C 0.06909 0.52145 0.74562 0.0
C371 C 0.07237 0.50376 0.733 0.0
C372 C 0.07425 0.52049 0.76689 0.0
C373 C 0.06111 0.5614 0.75035 0.0
C374 C 0.09804 0.54202 0.77519 0.0
C375 C 0.1064 0.53963 0.79397 0.0
C376 C 0.091 0.51581 0.80495 0.0
C377 C 0.06627 0.49487 0.79722 0.0
C378 C 0.05808 0.49707 0.77816 0.0
H379 H 0.05025 0.56999 0.74211 0.0
H380 H 0.04905 0.55063 0.76354 0.0
H381 H 0.08102 0.57867 0.75529 0.0
H382 H 0.11112 0.56003 0.76666 0.0
H383 H 0.1257 0.5559 0.79957 0.0
H384 H 0.49662 0.06341 0.06101 0.0
H385 H 0.47478 0.04531 0.02896 0.0
H386 H 0.53653 0.02499 0.01526 0.0
H387 H 0.55871 0.04364 0.04661 0.0
H388 H 0.52339 0.04526 -0.01669 0.0
H389 H 0.43027 0.96336 0.01957 0.0
H390 H 0.43923 -0.00225 0.02535 0.0
H391 H 0.46115 0.98519 0.03307 0.0
C392 C 0.5058 0.05561 0.05096 0.0
C393 C 0.52929 0.05483 0.05641 0.0
C394 C 0.49317 0.04503 0.03274 0.0
C395 C 0.50379 0.03338 0.01984 0.0
C396 C 0.52792 0.0338 0.02495 0.0
H397 H 0.43133 0.90157 0.93929 0.0
H398 H 0.45442 0.93461 0.96562 0.0
C399 C 0.54049 0.04436 0.04299 0.0
C400 C 0.48928 0.01894 0.00158 0.0
H401 H 0.43261 0.9612 -0.01464 0.0
C402 C 0.50336 0.02708 -0.01634 0.0
C403 C 0.46329 0.99503 0.00215 0.0
C404 C 0.44759 0.98458 0.02104 0.0
C405 C 0.49263 0.01143 0.96648 0.0
C406 C 0.4669 0.98726 0.96718 0.0
C407 C 0.45236 0.97973 -0.01511 0.0
C408 C 0.45535 0.96834 0.95018 0.0
C409 C 0.50951 0.02016 0.94802 0.0
C410 C 0.44876 0.97645 0.93251 0.0
C411 C 0.43575 0.95759 0.91728 0.0
C412 C 0.42881 0.93021 0.91958 0.0
C413 C 0.4363 0.92245 0.93704 0.0
C414 C 0.44942 0.9413 0.95215 0.0
H415 H 0.53112 0.03578 0.95104 0.0
H416 H 0.50896 0.00243 0.94068 0.0
H417 H 0.501 0.02906 0.93767 0.0
H418 H 0.45275 -0.00291 0.93076 0.0
H419 H 0.43006 0.96417 0.90408 0.0
H420 H 0.49493 0.55526 0.53565 0.0
H421 H 0.49141 0.53008 0.50578 0.0
H422 H 0.43847 0.45436 0.5353 0.0
H423 H 0.44157 0.47988 0.56547 0.0
H424 H 0.4869 0.45876 0.51865 0.0
H425 H 0.43292 0.48605 0.46382 0.0
H426 H 0.4575 0.51533 0.47742 0.0
H427 H 0.42883 0.48814 0.48998 0.0
C428 C 0.48181 0.5333 0.53562 0.0
C429 C 0.46851 0.51949 0.55282 0.0
C430 C 0.4797 0.51891 0.51849 0.0
C431 C 0.46448 0.49034 0.51821 0.0
C432 C 0.45007 0.47643 0.53514 0.0
H433 H 0.50344 0.44409 0.40424 0.0
H434 H 0.47393 0.43472 0.43314 0.0
C435 C 0.45176 0.49098 0.5523 0.0
C436 C 0.46744 0.47576 0.50115 0.0
H437 H 0.46847 0.47801 0.45107 0.0
C438 C 0.48202 0.46208 0.50387 0.0
C439 C 0.46085 0.47976 0.48186 0.0
C440 C 0.4439 0.49289 0.47809 0.0
C441 C 0.49272 0.45506 0.4878 0.0
C442 C 0.48884 0.46202 0.46861 0.0
C443 C 0.4717 0.47289 0.46579 0.0
C444 C 0.5065 0.46347 0.45209 0.0
C445 C 0.50965 0.44191 0.49155 0.0
C446 C 0.53452 0.48237 0.45326 0.0
C447 C 0.5511 0.48798 0.43686 0.0
C448 C 0.54014 0.47462 0.41894 0.0
C449 C 0.51241 0.45444 0.41797 0.0
C450 C 0.49557 0.44917 0.43441 0.0
H451 H 0.50328 0.42976 0.50529 0.0
H452 H 0.50806 0.42847 0.47915 0.0
H453 H 0.53135 0.45803 0.49327 0.0
H454 H 0.54333 0.49401 0.46659 0.0
H455 H 0.57239 0.50368 0.43799 0.0
H456 H 0.02608 0.43864 0.92041 0.0
H457 H -0.00058 0.43963 0.94794 0.0
H458 H 0.02743 0.52442 0.93683 0.0
H459 H 0.05477 0.52375 0.90917 0.0
H460 H 0.03178 0.51404 0.97601 0.0
H461 H 0.92872 0.44096 0.94827 0.0
H462 H 0.9508 0.42702 0.94663 0.0
H463 H 0.95815 0.4567 0.93244 0.0
C464 C 0.02639 0.45748 0.9236 0.0
C465 C 0.04252 0.48111 0.91253 0.0
C466 C 0.01097 0.45795 0.93931 0.0
C467 C 0.01107 0.48197 0.94426 0.0
C468 C 0.02691 0.50561 0.93315 0.0
H469 H 0.89451 0.45128 0.03783 0.0
H470 H 0.92102 0.47225 0.0082 0.0
C471 C 0.04242 0.50516 0.91733 0.0
C472 C -0.00426 0.48231 0.96175 0.0
H473 H 0.93362 0.44583 -0.01644 0.0
C474 C 0.01018 0.49953 0.97757 0.0
C475 C 0.96746 0.46385 0.96365 0.0
C476 C 0.95034 0.44631 0.94674 0.0
C477 C -0.00254 0.49737 -0.00431 0.0
C478 C 0.96977 0.47704 -0.00185 0.0
C479 C 0.95494 0.46121 0.98187 0.0
C480 C 0.95623 0.46994 0.01766 0.0
C481 C 0.01397 0.51664 0.01205 0.0
C482 C 0.96751 0.46253 0.0332 0.0
C483 C 0.95252 0.45089 0.05029 0.0
C484 C 0.92572 0.44588 0.05199 0.0
C485 C 0.91506 0.45475 0.03692 0.0
C486 C 0.93019 0.46672 0.01996 0.0
H487 H 0.02999 0.53653 0.00611 0.0
H488 H 0.00093 0.5203 0.02225 0.0
H489 H 0.0244 0.50778 0.02048 0.0
H490 H 0.98722 0.4641 0.03167 0.0
H491 H 0.96126 0.44411 0.06155 0.0
H492 H 0.55529 0.10681 0.45468 0.0
H493 H 0.53073 0.0701 0.47828 0.0
H494 H 0.49234 0.0129 0.43072 0.0
H495 H 0.51728 0.04941 0.40694 0.0
H496 H 0.47581 0.03226 0.48541 0.0
H497 H 0.53244 0.98143 0.46077 0.0
H498 H 0.54198 0.01559 0.45344 0.0
H499 H 0.51368 0.98677 0.44175 0.0
C500 C 0.5414 0.0865 0.44919 0.0
C501 C 0.53858 0.08098 0.4289 0.0
C502 C 0.52732 0.06554 0.46273 0.0
C503 C 0.51015 0.03868 0.45627 0.0
C504 C 0.50597 0.03339 0.43603 0.0
H505 H 0.43824 0.88592 0.52081 0.0
H506 H 0.44701 0.92038 0.49598 0.0
C507 C 0.52015 0.05432 0.42246 0.0
C508 C 0.49815 0.0161 0.47071 0.0
H509 H 0.49954 0.95936 0.48536 0.0
C510 C 0.48087 0.01623 0.48537 0.0
C511 C 0.50492 0.99529 0.47069 0.0
C512 C 0.52445 0.99477 0.45595 0.0
C513 C 0.47012 -0.00396 0.49998 0.0
C514 C 0.47714 0.97544 0.50003 0.0
C515 C 0.49406 0.9751 0.48521 0.0
C516 C 0.46835 0.95465 0.51576 0.0
C517 C 0.45126 -0.00317 0.51515 0.0
C518 C 0.47703 0.96246 0.53522 0.0
C519 C 0.47207 0.94279 0.54949 0.0
C520 C 0.45851 0.91494 0.5445 0.0
C521 C 0.44881 0.90717 0.52517 0.0
C522 C 0.45379 0.92683 0.51093 0.0
H523 H 0.44197 0.00889 0.51002 0.0
H524 H 0.43472 0.97594 0.51888 0.0
H525 H 0.46304 0.00655 0.52874 0.0
H526 H 0.48875 0.98382 0.5392 0.0
H527 H 0.47988 0.94949 0.56421 0.0
H528 H 0.43645 0.54654 0.93437 0.0
H529 H 0.44363 0.5227 0.96157 0.0
H530 H 0.51855 0.53694 0.93507 0.0
H531 H 0.51104 0.55994 0.90752 0.0
H532 H 0.49181 0.48732 0.95299 0.0
H533 H 0.49889 0.5679 0.00318 0.0
H534 H 0.46686 0.54887 -0.00944 0.0
H535 H 0.49735 0.57029 0.97688 0.0
C536 C 0.45421 0.54416 0.93415 0.0
C537 C 0.47339 0.55551 0.91892 0.0
C538 C 0.45837 0.53067 0.94978 0.0
C539 C 0.48203 0.52871 0.95066 0.0
C540 C 0.50023 0.53836 0.9348 0.0
H541 H 0.58257 0.53528 0.04377 0.0
H542 H 0.55677 0.5408 0.01749 0.0
C543 C 0.49591 0.55154 0.91904 0.0
C544 C 0.48917 0.5188 0.96867 0.0
H545 H 0.50608 0.53433 0.01705 0.0
C546 C 0.49465 0.49737 0.96707 0.0
C547 C 0.4931 0.53212 -0.01299 0.0
C548 C 0.489 0.55622 -0.01043 0.0
C549 C 0.5048 0.4895 0.98311 0.0
C550 C 0.50909 0.50311 0.00133 0.0
C551 C 0.50259 0.52379 0.00311 0.0
C552 C 0.52367 0.49894 0.01794 0.0
C553 C 0.51224 0.46773 0.98011 0.0
C554 C 0.51347 0.47358 0.02727 0.0
C555 C 0.5284 0.47027 0.04242 0.0
C556 C 0.55366 0.49233 0.04851 0.0
C557 C 0.56327 0.51779 0.03947 0.0
C558 C 0.54849 0.52103 0.0244 0.0
H559 H 0.51228 0.46277 0.96433 0.0
H560 H 0.53269 0.47425 -0.01357 0.0
H561 H 0.49717 0.44886 -0.01225 0.0
H562 H 0.49409 0.45637 0.0228 0.0
H563 H 0.5204 0.45041 0.04913 0.0
H564 H 0.94922 0.51775 0.40619 0.0
H565 H 0.96988 0.54038 0.43773 0.0
H566 H 0.95181 0.46302 0.46206 0.0
H567 H 0.93176 0.44068 0.4309 0.0
H568 H 0.94372 0.50134 0.48849 0.0
H569 H 0.04544 0.54524 0.45259 0.0
H570 H 0.01896 0.54971 0.44172 0.0
H571 H 0.0158 0.51669 0.44162 0.0
C572 C 0.94903 0.50559 0.4185 0.0
C573 C 0.93914 0.47754 0.41613 0.0
C574 C 0.96093 0.51851 0.43642 0.0
C575 C 0.96255 0.50336 0.45214 0.0
C576 C 0.95076 0.47508 0.45013 0.0
H577 H 0.02081 0.46916 0.54807 0.0
H578 H 0.99455 0.47797 0.5241 0.0
C579 C 0.93936 0.46234 0.43229 0.0
C580 C 0.97906 0.51643 0.47 0.0
H581 H 0.04399 0.54077 0.48681 0.0
C582 C 0.96575 0.51085 0.48816 0.0
C583 C 0.00782 0.52906 0.46956 0.0
C584 C 0.02305 0.53562 0.45039 0.0
C585 C 0.98023 0.51534 0.50585 0.0
C586 C 0.00857 0.52494 0.50529 0.0
C587 C 0.02225 0.53322 0.48726 0.0
C588 C 0.0231 0.52132 0.52218 0.0
C589 C 0.96475 0.50829 0.52491 0.0
C590 C 0.04815 0.54275 0.52916 0.0
C591 C 0.06346 0.53767 0.543 0.0
C592 C 0.0542 0.51102 0.54971 0.0
C593 C 0.02868 0.48994 0.54319 0.0
C594 C 0.0134 0.495 0.52959 0.0
H595 H 0.94753 0.51227 0.52398 0.0
H596 H 0.95598 0.48623 0.52789 0.0
H597 H 0.97815 0.52009 0.53741 0.0
H598 H 0.05621 0.56318 0.52348 0.0
H599 H 0.08297 0.55429 0.54774 0.0
H600 H 0.53947 0.16629 0.04235 0.0
H601 H 0.55182 0.21404 0.03793 0.0
H602 H 0.48616 0.20141 0.07628 0.0
H603 H 0.47296 0.15373 0.07983 0.0
H604 H 0.49374 0.23816 0.0497 0.0
H605 H 0.59381 0.2639 0.08242 0.0
H606 H 0.58676 0.24695 0.05908 0.0
H607 H 0.56616 0.22931 0.08002 0.0
C608 C 0.52708 0.17349 0.04921 0.0
C609 C 0.50559 0.15644 0.06177 0.0
C610 C 0.5344 0.20089 0.04692 0.0
C611 C 0.52058 0.21163 0.05738 0.0
C612 C 0.49741 0.19382 0.06824 0.0
H613 H 0.58554 0.36475 0.11519 0.0
H614 H 0.56701 0.3178 0.10414 0.0
C615 C 0.48991 0.1665 0.07031 0.0
C616 C 0.53156 0.24154 0.05909 0.0
H617 H 0.586 0.30002 0.07686 0.0
C618 C 0.51402 0.25179 0.05545 0.0
C619 C 0.55788 0.25924 0.06695 0.0
C620 C 0.5772 0.24934 0.07253 0.0
C621 C 0.52163 0.27887 0.0601 0.0
C622 C 0.54792 0.2965 0.068 0.0
C623 C 0.56584 0.28653 0.07084 0.0
C624 C 0.55682 0.32472 0.07485 0.0
C625 C 0.50088 0.28778 0.0575 0.0
C626 C 0.55681 0.34431 0.06224 0.0
C627 C 0.56686 0.37116 0.06874 0.0
C628 C 0.57773 0.37904 0.08779 0.0
C629 C 0.57735 0.35933 0.10042 0.0
C630 C 0.56685 0.33248 0.09408 0.0
H631 H 0.4798 0.27009 0.05642 0.0
H632 H 0.50175 0.30091 0.06989 0.0
H633 H 0.50523 0.29964 0.04372 0.0
H634 H 0.54984 0.33911 0.04721 0.0
H635 H 0.56726 0.38602 0.05858 0.0
H636 H 0.3172 0.45831 0.58034 0.0
H637 H 0.28274 0.47202 0.57968 0.0
H638 H 0.33839 0.54536 0.54867 0.0
H639 H 0.3729 0.53158 0.54912 0.0
H640 H 0.2938 0.52037 0.59873 0.0
H641 H 0.26453 0.52006 0.52073 0.0
H642 H 0.28037 0.50115 0.52917 0.0
H643 H 0.30057 0.53734 0.52568 0.0
C644 C 0.32172 0.47686 0.57273 0.0
C645 C 0.3477 0.49381 0.56473 0.0
C646 C 0.30208 0.48476 0.57248 0.0
C647 C 0.30798 0.50972 0.56415 0.0
C648 C 0.33323 0.52581 0.5549 0.0
H649 H 0.23192 0.6039 0.59882 0.0
H650 H 0.26392 0.58788 0.59258 0.0
C651 C 0.3529 0.51783 0.55507 0.0
C652 C 0.28905 0.52021 0.56734 0.0
H653 H 0.24846 0.53985 0.54393 0.0
C654 C 0.28382 0.52456 0.58675 0.0
C655 C 0.27608 0.52565 0.5517 0.0
C656 C 0.28042 0.52065 0.53063 0.0
C657 C 0.26596 0.53417 0.59096 0.0
C658 C 0.25324 0.53998 0.57532 0.0
C659 C 0.25837 0.53555 0.55589 0.0
C660 C 0.23399 0.54999 0.57892 0.0
C661 C 0.26041 0.53748 0.61214 0.0
C662 C 0.20663 0.53421 0.57306 0.0
C663 C 0.18827 0.5433 0.5766 0.0
C664 C 0.19692 0.56848 0.58598 0.0
C665 C 0.22445 0.58432 0.59174 0.0
C666 C 0.24279 0.57517 0.5882 0.0
H667 H 0.2666 0.52618 0.62223 0.0
H668 H 0.2722 0.55939 0.61619 0.0
H669 H 0.23844 0.53022 0.6144 0.0
H670 H 0.19942 0.51473 0.56587 0.0
H671 H 0.16729 0.53058 0.57186 0.0
H672 H 0.82392 0.29129 0.11305 0.0
H673 H 0.77461 0.26012 0.11236 0.0
H674 H 0.76786 0.30151 0.06146 0.0
H675 H 0.81729 0.33239 0.06185 0.0
H676 H 0.73853 0.27775 0.11762 0.0
H677 H 0.7176 0.22198 0.04685 0.0
H678 H 0.75136 0.24074 0.05743 0.0
H679 H 0.73718 0.25841 0.0446 0.0
C680 C 0.812 0.29319 0.10137 0.0
C681 C 0.8244 0.31416 0.08747 0.0
C682 C 0.78384 0.27549 0.10104 0.0
C683 C 0.76755 0.27846 0.08685 0.0
C684 C 0.78006 0.29851 0.07233 0.0
H685 H 0.59343 0.21833 0.10458 0.0
H686 H 0.64278 0.24775 0.10062 0.0
C687 C 0.80833 0.31611 0.07253 0.0
C688 C 0.73745 0.26231 0.08853 0.0
H689 H 0.67922 0.21667 0.06449 0.0
C690 C 0.72555 0.26433 0.10602 0.0
C691 C 0.7206 0.24485 0.07338 0.0
C692 C 0.73229 0.24111 0.05457 0.0
C693 C 0.69726 0.24915 0.10889 0.0
C694 C 0.68036 0.23193 0.09365 0.0
C695 C 0.69223 0.23005 0.07609 0.0
C696 C 0.65045 0.21449 0.09604 0.0
C697 C 0.68586 0.25108 0.12841 0.0
C698 C 0.63836 0.18613 0.09446 0.0
C699 C 0.61024 0.16934 0.09649 0.0
C700 C 0.59353 0.18055 0.10017 0.0
C701 C 0.60571 0.20902 0.10189 0.0
C702 C 0.63392 0.22586 0.09969 0.0
H703 H 0.70187 0.25984 0.14 0.0
H704 H 0.67704 0.26454 0.12691 0.0
H705 H 0.66944 0.23073 0.13331 0.0
H706 H 0.65073 0.17693 0.09168 0.0
H707 H 0.60162 0.14752 0.09508 0.0
H708 H 0.456 0.79747 0.55531 0.0
H709 H 0.44029 0.74849 0.55464 0.0
H710 H 0.48099 0.75628 0.60989 0.0
H711 H 0.49632 0.80489 0.6108 0.0
H712 H 0.46602 0.71688 0.55703 0.0
H713 H 0.40059 0.70124 0.62152 0.0
H714 H 0.41628 0.73241 0.60751 0.0
H715 H 0.43566 0.72648 0.62577 0.0
C716 C 0.46211 0.78881 0.56706 0.0
C717 C 0.47714 0.80485 0.58321 0.0
C718 C 0.453 0.76085 0.56672 0.0
C719 C 0.4589 0.74872 0.58248 0.0
C720 C 0.47564 0.76515 0.59784 0.0
H721 H 0.44696 0.59313 0.59601 0.0
H722 H 0.46038 0.64064 0.59028 0.0
C723 C 0.48453 0.79292 0.59827 0.0
C724 C 0.44657 0.71876 0.58358 0.0
H725 H 0.4075 0.66436 0.6131 0.0
C726 C 0.45302 0.7053 0.56917 0.0
C727 C 0.42904 0.70361 0.59916 0.0
C728 C 0.41972 0.7166 0.61426 0.0
C729 C 0.44343 0.67722 0.57047 0.0
C730 C 0.42751 0.66246 0.58685 0.0
C731 C 0.42004 0.67573 0.60072 0.0
C732 C 0.41917 0.6335 0.59027 0.0
C733 C 0.45038 0.66367 0.55426 0.0
C734 C 0.39159 0.61383 0.59301 0.0
C735 C 0.38386 0.58666 0.59668 0.0
C736 C 0.40361 0.5787 0.59766 0.0
C737 C 0.43123 0.59854 0.59521 0.0
C738 C 0.43893 0.62569 0.59172 0.0
H739 H 0.45447 0.67507 0.54025 0.0
H740 H 0.46912 0.6633 0.55835 0.0
H741 H 0.43368 0.64238 0.55178 0.0
H742 H 0.37601 0.61946 0.59212 0.0
H743 H 0.3624 0.57182 0.59834 0.0
H744 H 0.65176 0.44662 0.05058 0.0
H745 H 0.68672 0.43323 0.05061 0.0
H746 H 0.72963 0.4908 0.09724 0.0
H747 H 0.69442 0.50347 0.09769 0.0
H748 H 0.74552 0.45903 0.04873 0.0
H749 H 0.7036 0.41547 0.12189 0.0
H750 H 0.68682 0.42717 0.10535 0.0
H751 H 0.7152 0.45119 0.1201 0.0
C752 C 0.66916 0.457 0.06035 0.0
C753 C 0.67042 0.47586 0.07426 0.0
C754 C 0.68903 0.44931 0.0604 0.0
C755 C 0.71036 0.46064 0.07423 0.0
C756 C 0.71303 0.48148 0.08671 0.0
H757 H 0.84713 0.43423 0.09177 0.0
H758 H 0.81795 0.45255 0.08207 0.0
C759 C 0.69302 0.48879 0.0869 0.0
C760 C 0.72768 0.44843 0.07751 0.0
H761 H 0.74397 0.41608 0.11249 0.0
C762 C 0.74518 0.44952 0.06261 0.0
C763 C 0.72667 0.4355 0.09549 0.0
C764 C 0.70687 0.43197 0.11156 0.0
C765 C 0.76229 0.43855 0.06544 0.0
C766 C 0.76217 0.42677 0.08379 0.0
C767 C 0.74424 0.4253 0.09849 0.0
C768 C 0.78004 0.41539 0.08824 0.0
C769 C 0.77988 0.43924 0.04865 0.0
C770 C 0.7685 0.38865 0.09535 0.0
C771 C 0.78509 0.37843 0.10136 0.0
C772 C 0.81362 0.39466 0.10025 0.0
C773 C 0.8252 0.42124 0.09275 0.0
C774 C 0.80854 0.43163 0.08701 0.0
H775 H 0.77168 0.44113 0.03428 0.0
H776 H 0.80065 0.4572 0.05042 0.0
H777 H 0.78159 0.42062 0.04838 0.0
H778 H 0.74657 0.37575 0.09646 0.0
H779 H 0.77553 0.35773 0.10682 0.0
H780 H 0.16463 0.66222 0.57794 0.0
H781 H 0.21027 0.7012 0.57468 0.0
H782 H 0.22762 0.65952 0.52899 0.0
H783 H 0.18181 0.61964 0.53282 0.0
H784 H 0.26424 0.67509 0.5564 0.0
H785 H 0.25383 0.76399 0.5398 0.0
H786 H 0.23252 0.74649 0.56029 0.0
H787 H 0.22573 0.72959 0.53676 0.0
C788 C 0.17787 0.6616 0.56679 0.0
C789 C 0.16976 0.63778 0.55578 0.0
C790 C 0.20396 0.68412 0.56477 0.0
C791 C 0.22245 0.68357 0.55143 0.0
C792 C 0.21368 0.66051 0.53932 0.0
H793 H 0.39063 0.82267 0.56415 0.0
H794 H 0.346 0.79155 0.54942 0.0
C795 C 0.18745 0.63778 0.54142 0.0
C796 C 0.25176 0.70494 0.55275 0.0
H797 H 0.29366 0.77334 0.56012 0.0
C798 C 0.27076 0.69662 0.55669 0.0
C799 C 0.26063 0.73315 0.55285 0.0
C800 C 0.24207 0.74376 0.54696 0.0
C801 C 0.29767 0.71543 0.56221 0.0
C802 C 0.30562 0.74325 0.56444 0.0
C803 C 0.28737 0.75192 0.55894 0.0
C804 C 0.33209 0.7631 0.57364 0.0
C805 C 0.31711 0.70513 0.566 0.0
C806 C 0.33867 0.75802 0.59245 0.0
C807 C 0.3641 0.77559 0.60083 0.0
C808 C 0.38339 0.79897 0.59073 0.0
C809 C 0.37623 0.80486 0.57233 0.0
C810 C 0.35078 0.78704 0.56385 0.0
H811 H 0.31139 0.68647 0.55726 0.0
H812 H 0.33843 0.72079 0.56239 0.0
H813 H 0.31622 0.69975 0.58174 0.0
H814 H 0.32423 0.74016 0.60058 0.0
H815 H 0.36878 0.77059 0.61512 0.0
H816 H 0.8449 0.53456 0.3821 0.0
H817 H 0.79656 0.51935 0.38342 0.0
H818 H 0.78461 0.45746 0.42541 0.0
H819 H 0.83295 0.47145 0.42298 0.0
H820 H 0.74889 0.4351 0.3984 0.0
H821 H 0.74736 0.52794 0.41895 0.0
H822 H 0.76841 0.53497 0.39778 0.0
H823 H 0.77804 0.52604 0.42066 0.0
C824 C 0.8321 0.51799 0.39188 0.0
C825 C 0.84274 0.50399 0.4022 0.0
C826 C 0.80438 0.50948 0.39282 0.0
C827 C 0.78674 0.48736 0.40467 0.0
C828 C 0.79773 0.47458 0.41613 0.0
H829 H 0.61557 0.44546 0.40676 0.0
H830 H 0.66301 0.46128 0.41554 0.0
C831 C 0.82547 0.4828 0.41491 0.0
C832 C 0.75666 0.47591 0.40334 0.0
H833 H 0.70792 0.49414 0.40064 0.0
C834 C 0.73988 0.44796 0.39928 0.0
C835 C 0.74458 0.4924 0.40475 0.0
C836 C 0.76057 0.52191 0.411 0.0
C837 C 0.71173 0.43633 0.3959 0.0
C838 C 0.7001 0.45332 0.3956 0.0
C839 C 0.71671 0.48105 0.40042 0.0
C840 C 0.6709 0.44292 0.39039 0.0
C841 C 0.69487 0.40586 0.393 0.0
C842 C 0.65932 0.4275 0.3732 0.0
C843 C 0.6319 0.41779 0.36845 0.0
C844 C 0.61578 0.42421 0.38037 0.0
C845 C 0.62756 0.44034 0.39721 0.0
C846 C 0.65471 0.44937 0.40225 0.0
H847 H 0.70422 0.39527 0.40064 0.0
H848 H 0.67378 0.39753 0.39854 0.0
H849 H 0.69395 0.40106 0.37712 0.0
H850 H 0.67149 0.42309 0.36332 0.0
H851 H 0.62344 0.40565 0.35528 0.0
H852 H 0.31386 0.815 0.91721 0.0
H853 H 0.28103 0.7664 0.92209 0.0
H854 H 0.24881 0.76172 0.86384 0.0
H855 H 0.28066 0.81016 0.85919 0.0
H856 H 0.20882 0.7297 0.88989 0.0
H857 H 0.29661 0.71201 0.89481 0.0
H858 H 0.29551 0.73421 0.91311 0.0
H859 H 0.30076 0.74446 0.8878 0.0
C860 C 0.2993 0.80372 0.90566 0.0
C861 C 0.30019 0.81621 0.88765 0.0
C862 C 0.28074 0.77592 0.9084 0.0
C863 C 0.26298 0.76031 0.89313 0.0
C864 C 0.26248 0.7733 0.87577 0.0
H865 H 0.20535 0.60313 0.84846 0.0
H866 H 0.22827 0.6506 0.85884 0.0
C867 C 0.28084 0.80098 0.87307 0.0
C868 C 0.24661 0.73015 0.89413 0.0
H869 H 0.25296 0.67353 0.89338 0.0
C870 C 0.21834 0.71731 0.89097 0.0
C871 C 0.25922 0.71414 0.89532 0.0
C872 C 0.28969 0.72679 0.8978 0.0
C873 C 0.20251 0.68901 0.88802 0.0
C874 C 0.21525 0.67311 0.88871 0.0
C875 C 0.24326 0.6858 0.8929 0.0
C876 C 0.2008 0.64394 0.8829 0.0
C877 C 0.17267 0.67669 0.88297 0.0
C878 C 0.1777 0.62428 0.89301 0.0
C879 C 0.16426 0.59697 0.88694 0.0
C880 C 0.17395 0.58883 0.87082 0.0
C881 C 0.1973 0.60859 0.86094 0.0
C882 C 0.2105 0.63579 0.86689 0.0
H883 H 0.16737 0.69247 0.87915 0.0
H884 H 0.16698 0.6623 0.87043 0.0
H885 H 0.16021 0.66517 0.8958 0.0
H886 H 0.17017 0.63001 0.90565 0.0
H887 H 0.14648 0.58223 0.89498 0.0
H888 H 0.58606 0.22687 0.35824 0.0
H889 H 0.57174 0.25655 0.37304 0.0
H890 H 0.54314 0.20485 0.42408 0.0
H891 H 0.55714 0.17445 0.40912 0.0
H892 H 0.50752 0.22185 0.41217 0.0
H893 H 0.61179 0.31026 0.4172 0.0
H894 H 0.60467 0.29685 0.39269 0.0
H895 H 0.60516 0.27615 0.41255 0.0
C896 C 0.57668 0.22165 0.3726 0.0
C897 C 0.573 0.19837 0.38256 0.0
C898 C 0.56868 0.23881 0.38112 0.0
C899 C 0.55713 0.23337 0.39991 0.0
C900 C 0.55237 0.2096 0.40966 0.0
H901 H 0.54558 0.37597 0.43238 0.0
H902 H 0.55175 0.33714 0.43987 0.0
C903 C 0.56029 0.19222 0.40106 0.0
C904 C 0.5498 0.25262 0.40889 0.0
H905 H 0.57531 0.32073 0.41549 0.0
C906 C 0.52241 0.24341 0.41336 0.0
C907 C 0.56932 0.28062 0.41114 0.0
C908 C 0.59942 0.29148 0.40836 0.0
C909 C 0.51367 0.26186 0.41815 0.0
C910 C 0.53273 0.29022 0.41795 0.0
C911 C 0.5605 0.29908 0.41538 0.0
C912 C 0.52417 0.311 0.4171 0.0
C913 C 0.48397 0.25076 0.42275 0.0
C914 C 0.50594 0.30897 0.40233 0.0
C915 C 0.50226 0.33092 0.3982 0.0
C916 C 0.51704 0.35561 0.40852 0.0
C917 C 0.53379 0.35712 0.42427 0.0
C918 C 0.53742 0.33499 0.42848 0.0
H919 H 0.47543 0.23104 0.43065 0.0
H920 H 0.48083 0.26519 0.43183 0.0
H921 H 0.47234 0.24681 0.40882 0.0
H922 H 0.49601 0.29115 0.39295 0.0
H923 H 0.48914 0.32912 0.386 0.0
H924 H 0.17928 0.51706 0.90771 0.0
H925 H 0.22848 0.53431 0.90922 0.0
H926 H 0.22301 0.49108 0.85573 0.0
H927 H 0.17413 0.47467 0.85376 0.0
H928 H 0.26383 0.514 0.90923 0.0
H929 H 0.27269 0.57009 0.84048 0.0
H930 H 0.24148 0.55281 0.85428 0.0
H931 H 0.25081 0.53393 0.83798 0.0
C932 C 0.1885 0.51072 0.89655 0.0
C933 C 0.17307 0.49485 0.88047 0.0
C934 C 0.21659 0.52062 0.8974 0.0
C935 C 0.22946 0.51453 0.8823 0.0
C936 C 0.21357 0.49659 0.86725 0.0
H937 H 0.40114 0.56061 0.87627 0.0
H938 H 0.35185 0.53598 0.88195 0.0
C939 C 0.18566 0.48711 0.8662 0.0
C940 C 0.25961 0.52898 0.88118 0.0
H941 H 0.31268 0.57124 0.85173 0.0
C942 C 0.2746 0.52658 0.8967 0.0
C943 C 0.27359 0.54588 0.86502 0.0
C944 C 0.25887 0.55111 0.84859 0.0
C945 C 0.30326 0.54035 0.89633 0.0
C946 C 0.31715 0.55635 0.87976 0.0
C947 C 0.30207 0.55884 0.86437 0.0
C948 C 0.34732 0.57134 0.87802 0.0
C949 C 0.31832 0.53816 0.91388 0.0
C950 C 0.36116 0.59928 0.87362 0.0
C951 C 0.38907 0.61315 0.86984 0.0
C952 C 0.40386 0.59946 0.87062 0.0
C953 C 0.39025 0.57169 0.87567 0.0
C954 C 0.36213 0.55766 0.87909 0.0
H955 H 0.3056 0.53238 0.92733 0.0
H956 H 0.32354 0.52209 0.91105 0.0
H957 H 0.33751 0.55766 0.9167 0.0
H958 H 0.35021 0.61029 0.87273 0.0
H959 H 0.39906 0.63462 0.86621 0.0
H960 H 0.65259 0.20161 0.41294 0.0
H961 H 0.6867 0.25043 0.4125 0.0
H962 H 0.71281 0.24112 0.35507 0.0
H963 H 0.67844 0.19267 0.35522 0.0
H964 H 0.74272 0.28134 0.4079 0.0
H965 H 0.68931 0.29701 0.34557 0.0
H966 H 0.67443 0.26575 0.35944 0.0
H967 H 0.69861 0.27183 0.34029 0.0
C968 C 0.66601 0.20992 0.40042 0.0
C969 C 0.66275 0.1935 0.38402 0.0
C970 C 0.68536 0.23779 0.40015 0.0
C971 C 0.70171 0.24948 0.38352 0.0
C972 C 0.69984 0.23264 0.3678 0.0
H973 H 0.84627 0.40606 0.36861 0.0
H974 H 0.81239 0.35822 0.37406 0.0
C975 C 0.68036 0.20495 0.36797 0.0
C976 C 0.71987 0.27938 0.38205 0.0
H977 H 0.73413 0.33369 0.35281 0.0
C978 C 0.74076 0.29287 0.39596 0.0
C979 C 0.71679 0.2945 0.36676 0.0
C980 C 0.69339 0.28159 0.3523 0.0
C981 C 0.75943 0.32094 0.39448 0.0
C982 C 0.7575 0.33566 0.37838 0.0
C983 C 0.73589 0.32234 0.36496 0.0
C984 C 0.77797 0.36471 0.37487 0.0
C985 C 0.78084 0.33453 0.4103 0.0
C986 C 0.76977 0.38411 0.37259 0.0
C987 C 0.78905 0.41142 0.369 0.0
C988 C 0.81691 0.41981 0.36772 0.0
C989 C 0.82498 0.40026 0.36966 0.0
C990 C 0.80567 0.37295 0.37299 0.0
H991 H 0.77415 0.32312 0.42435 0.0
H992 H 0.79977 0.33497 0.40568 0.0
H993 H 0.78568 0.3558 0.41296 0.0
H994 H 0.74846 0.37818 0.37383 0.0
H995 H 0.78222 0.42606 0.36777 0.0
H996 H 0.47233 0.67143 0.91275 0.0
H997 H 0.45511 0.70328 0.91406 0.0
H998 H 0.50157 0.7439 0.86242 0.0
H999 H 0.51826 0.71182 0.86076 0.0
H1000 H 0.47722 0.76095 0.91458 0.0
H1001 H 0.42201 0.7131 0.84523 0.0
H1002 H 0.43823 0.6988 0.85986 0.0
H1003 H 0.4582 0.727 0.84375 0.0
C1004 C 0.47942 0.68761 0.902 0.0
C1005 C 0.49636 0.68899 0.88651 0.0
C1006 C 0.46953 0.70575 0.90274 0.0
C1007 C 0.47661 0.72555 0.88808 0.0
C1008 C 0.49541 0.7284 0.87363 0.0
H1009 H 0.4306 0.85104 0.87884 0.0
H1010 H 0.45552 0.82699 0.88551 0.0
C1011 C 0.50501 0.71014 0.87275 0.0
C1012 C 0.46228 0.74125 0.8866 0.0
H1013 H 0.42045 0.75168 0.85632 0.0
C1014 C 0.46475 0.75896 0.90189 0.0
C1015 C 0.4456 0.73817 0.87018 0.0
C1016 C 0.44057 0.71806 0.8539 0.0
C1017 C 0.45125 0.77401 0.90104 0.0
C1018 C 0.43532 0.77161 0.88427 0.0
C1019 C 0.43278 0.7537 0.86911 0.0
C1020 C 0.42023 0.78658 0.88217 0.0
C1021 C 0.45364 0.79177 0.91828 0.0
C1022 C 0.3922 0.77198 0.87791 0.0
C1023 C 0.37815 0.78564 0.87366 0.0
C1024 C 0.39174 0.81427 0.87375 0.0
C1025 C 0.41959 0.82896 0.87874 0.0
C1026 C 0.4338 0.81522 0.8827 0.0
H1027 H 0.45979 0.78544 0.93188 0.0
H1028 H 0.46946 0.81315 0.91511 0.0
H1029 H 0.43407 0.79115 0.92101 0.0
H1030 H 0.38123 0.7499 0.87746 0.0
H1031 H 0.35663 0.7737 0.87012 0.0
loop_
_geom_bond_atom_site_label_1
_geom_bond_atom_site_label_2
_geom_bond_distance
_geom_bond_site_symmetry_2
_ccdc_geom_bond_type
Mg0 O1 2.028 . S
Mg0 O7 1.986 . S
Mg0 O9 2.114 . S
Mg0 O10 2.251 . S
Mg0 O13 2.010 . S
O1 Mg0 2.028 . S
O1 C4 1.250 . S
O2 Mg3 2.028 . S
O2 C4 1.248 . S
Mg3 O2 2.028 . S
Mg3 O8 2.032 . S
Mg3 O10 2.079 . S
C4 O1 1.250 . S
C4 O2 1.248 . S
C5 O6 1.264 . S
C5 O13 1.249 . S
O6 C5 1.264 . S
O7 Mg0 1.986 . S
O7 C11 1.246 . S
O8 Mg3 2.032 . S
O8 C11 1.259 . S
O9 Mg0 2.114 . S
O9 C12 1.252 . S
O10 Mg0 2.251 . S
O10 Mg3 2.079 . S
O10 C12 1.273 . S
C11 O7 1.246 . S
C11 O8 1.259 . S
C12 O9 1.252 . S
C12 O10 1.273 . S
O13 Mg0 2.010 . S
O13 C5 1.249 . S
Mg14 O15 2.028 . S
Mg14 O21 1.986 . S
Mg14 O23 2.114 . S
Mg14 O24 2.251 . S
Mg14 O27 2.010 . S
O15 Mg14 2.028 . S
O15 C18 1.250 . S
O16 Mg17 2.028 . S
O16 C18 1.248 . S
Mg17 O16 2.028 . S
Mg17 O22 2.032 . S
Mg17 O24 2.079 . S
C18 O15 1.250 . S
C18 O16 1.248 . S
C19 O20 1.264 . S
C19 O27 1.249 . S
O20 C19 1.264 . S
O21 Mg14 1.986 . S
O21 C25 1.246 . S
O22 Mg17 2.032 . S
O22 C25 1.259 . S
O23 Mg14 2.114 . S
O23 C26 1.252 . S
O24 Mg14 2.251 . S
O24 Mg17 2.079 . S
O24 C26 1.273 . S
C25 O21 1.246 . S
C25 O22 1.259 . S
C26 O23 1.252 . S
C26 O24 1.273 . S
O27 Mg14 2.010 . S
O27 C19 1.249 . S
Mg28 O29 2.028 . S
Mg28 O35 1.986 . S
Mg28 O37 2.114 . S
Mg28 O38 2.251 . S
Mg28 O41 2.010 . S
O29 Mg28 2.028 . S
O29 C32 1.250 . S
O30 Mg31 2.028 . S
O30 C32 1.248 . S
Mg31 O30 2.028 . S
Mg31 O36 2.032 . S
Mg31 O38 2.079 . S
C32 O29 1.250 . S
C32 O30 1.248 . S
C33 O34 1.264 . S
C33 O41 1.249 . S
O34 C33 1.264 . S
O35 Mg28 1.986 . S
O35 C39 1.246 . S
O36 Mg31 2.032 . S
O36 C39 1.259 . S
O37 Mg28 2.114 . S
O37 C40 1.252 . S
O38 Mg28 2.251 . S
O38 Mg31 2.079 . S
O38 C40 1.273 . S
C39 O35 1.246 . S
C39 O36 1.259 . S
C40 O37 1.252 . S
C40 O38 1.273 . S
O41 Mg28 2.010 . S
O41 C33 1.249 . S
Mg42 O43 2.028 . S
Mg42 O49 1.986 . S
Mg42 O51 2.114 . S
Mg42 O52 2.251 . S
Mg42 O55 2.010 . S
O43 Mg42 2.028 . S
O43 C46 1.250 . S
O44 Mg45 2.028 . S
O44 C46 1.248 . S
Mg45 O44 2.028 . S
Mg45 O50 2.032 . S
Mg45 O52 2.079 . S
C46 O43 1.250 . S
C46 O44 1.248 . S
C47 O48 1.264 . S
C47 O55 1.249 . S
O48 C47 1.264 . S
O49 Mg42 1.986 . S
O49 C53 1.246 . S
O50 Mg45 2.032 . S
O50 C53 1.259 . S
O51 Mg42 2.114 . S
O51 C54 1.252 . S
O52 Mg42 2.251 . S
O52 Mg45 2.079 . S
O52 C54 1.273 . S
C53 O49 1.246 . S
C53 O50 1.259 . S
C54 O51 1.252 . S
C54 O52 1.273 . S
O55 Mg42 2.010 . S
O55 C47 1.249 . S
Mg56 O57 2.028 . S
Mg56 O63 1.986 . S
Mg56 O65 2.114 . S
Mg56 O66 2.251 . S
Mg56 O69 2.010 . S
O57 Mg56 2.028 . S
O57 C60 1.250 . S
O58 Mg59 2.028 . S
O58 C60 1.248 . S
Mg59 O58 2.028 . S
Mg59 O64 2.032 . S
Mg59 O66 2.079 . S
C60 O57 1.250 . S
C60 O58 1.248 . S
C61 O62 1.264 . S
C61 O69 1.249 . S
O62 C61 1.264 . S
O63 Mg56 1.986 . S
O63 C67 1.246 . S
O64 Mg59 2.032 . S
O64 C67 1.259 . S
O65 Mg56 2.114 . S
O65 C68 1.252 . S
O66 Mg56 2.251 . S
O66 Mg59 2.079 . S
O66 C68 1.273 . S
C67 O63 1.246 . S
C67 O64 1.259 . S
C68 O65 1.252 . S
C68 O66 1.273 . S
O69 Mg56 2.010 . S
O69 C61 1.249 . S
Mg70 O71 2.028 . S
Mg70 O77 1.986 . S
Mg70 O79 2.114 . S
Mg70 O80 2.251 . S
Mg70 O83 2.010 . S
O71 Mg70 2.028 . S
O71 C74 1.250 . S
O72 Mg73 2.028 . S
O72 C74 1.248 . S
Mg73 O72 2.028 . S
Mg73 O78 2.032 . S
Mg73 O80 2.079 . S
C74 O71 1.250 . S
C74 O72 1.248 . S
C75 O76 1.264 . S
C75 O83 1.249 . S
O76 C75 1.264 . S
O77 Mg70 1.986 . S
O77 C81 1.246 . S
O78 Mg73 2.032 . S
O78 C81 1.259 . S
O79 Mg70 2.114 . S
O79 C82 1.252 . S
O80 Mg70 2.251 . S
O80 Mg73 2.079 . S
O80 C82 1.273 . S
C81 O77 1.246 . S
C81 O78 1.259 . S
C82 O79 1.252 . S
C82 O80 1.273 . S
O83 Mg70 2.010 . S
O83 C75 1.249 . S
Mg84 O85 2.028 . S
Mg84 O91 1.986 . S
Mg84 O93 2.114 . S
Mg84 O94 2.251 . S
Mg84 O97 2.010 . S
O85 Mg84 2.028 . S
O85 C88 1.250 . S
O86 Mg87 2.028 . S
O86 C88 1.248 . S
Mg87 O86 2.028 . S
Mg87 O92 2.032 . S
Mg87 O94 2.079 . S
C88 O85 1.250 . S
C88 O86 1.248 . S
C89 O90 1.264 . S
C89 O97 1.249 . S
O90 C89 1.264 . S
O91 Mg84 1.986 . S
O91 C95 1.246 . S
O92 Mg87 2.032 . S
O92 C95 1.259 . S
O93 Mg84 2.114 . S
O93 C96 1.252 . S
O94 Mg84 2.251 . S
O94 Mg87 2.079 . S
O94 C96 1.273 . S
C95 O91 1.246 . S
C95 O92 1.259 . S
C96 O93 1.252 . S
C96 O94 1.273 . S
O97 Mg84 2.010 . S
O97 C89 1.249 . S
Mg98 O99 2.028 . S
Mg98 O105 1.986 . S
Mg98 O107 2.114 . S
Mg98 O108 2.251 . S
Mg98 O111 2.010 . S
O99 Mg98 2.028 . S
O99 C102 1.250 . S
O100 Mg101 2.028 . S
O100 C102 1.248 . S
Mg101 O100 2.028 . S
Mg101 O106 2.032 . S
Mg101 O108 2.079 . S
C102 O99 1.250 . S
C102 O100 1.248 . S
C103 O104 1.264 . S
C103 O111 1.249 . S
O104 C103 1.264 . S
O105 Mg98 1.986 . S
O105 C109 1.246 . S
O106 Mg101 2.032 . S
O106 C109 1.259 . S
O107 Mg98 2.114 . S
O107 C110 1.252 . S
O108 Mg98 2.251 . S
O108 Mg101 2.079 . S
O108 C110 1.273 . S
C109 O105 1.246 . S
C109 O106 1.259 . S
C110 O107 1.252 . S
C110 O108 1.273 . S
O111 Mg98 2.010 . S
O111 C103 1.249 . S
Mg112 O113 2.028 . S
Mg112 O119 1.986 . S
Mg112 O121 2.114 . S
Mg112 O122 2.251 . S
Mg112 O125 2.010 . S
O113 Mg112 2.028 . S
O113 C116 1.250 . S
O114 Mg115 2.028 . S
O114 C116 1.248 . S
Mg115 O114 2.028 . S
Mg115 O120 2.032 . S
Mg115 O122 2.079 . S
C116 O113 1.250 . S
C116 O114 1.248 . S
C117 O118 1.264 . S
C117 O125 1.249 . S
O118 C117 1.264 . S
O119 Mg112 1.986 . S
O119 C123 1.246 . S
O120 Mg115 2.032 . S
O120 C123 1.259 . S
O121 Mg112 2.114 . S
O121 C124 1.252 . S
O122 Mg112 2.251 . S
O122 Mg115 2.079 . S
O122 C124 1.273 . S
C123 O119 1.246 . S
C123 O120 1.259 . S
C124 O121 1.252 . S
C124 O122 1.273 . S
O125 Mg112 2.010 . S
O125 C117 1.249 . S
Mg126 O127 2.028 . S
Mg126 O133 1.986 . S
Mg126 O135 2.114 . S
Mg126 O136 2.251 . S
Mg126 O139 2.010 . S
O127 Mg126 2.028 . S
O127 C130 1.250 . S
O128 Mg129 2.028 . S
O128 C130 1.248 . S
Mg129 O128 2.028 . S
Mg129 O134 2.032 . S
Mg129 O136 2.079 . S
C130 O127 1.250 . S
C130 O128 1.248 . S
C131 O132 1.264 . S
C131 O139 1.249 . S
O132 C131 1.264 . S
O133 Mg126 1.986 . S
O133 C137 1.246 . S
O134 Mg129 2.032 . S
O134 C137 1.259 . S
O135 Mg126 2.114 . S
O135 C138 1.252 . S
O136 Mg126 2.251 . S
O136 Mg129 2.079 . S
O136 C138 1.273 . S
C137 O133 1.246 . S
C137 O134 1.259 . S
C138 O135 1.252 . S
C138 O136 1.273 . S
O139 Mg126 2.010 . S
O139 C131 1.249 . S
Mg140 O141 2.028 . S
Mg140 O147 1.986 . S
Mg140 O149 2.114 . S
Mg140 O150 2.251 . S
Mg140 O153 2.010 . S
O141 Mg140 2.028 . S
O141 C144 1.250 . S
O142 Mg143 2.028 . S
O142 C144 1.248 . S
Mg143 O142 2.028 . S
Mg143 O148 2.032 . S
Mg143 O150 2.079 . S
C144 O141 1.250 . S
C144 O142 1.248 . S
C145 O146 1.264 . S
C145 O153 1.249 . S
O146 C145 1.264 . S
O147 Mg140 1.986 . S
O147 C151 1.246 . S
O148 Mg143 2.032 . S
O148 C151 1.259 . S
O149 Mg140 2.114 . S
O149 C152 1.252 . S
O150 Mg140 2.251 . S
O150 Mg143 2.079 . S
O150 C152 1.273 . S
C151 O147 1.246 . S
C151 O148 1.259 . S
C152 O149 1.252 . S
C152 O150 1.273 . S
O153 Mg140 2.010 . S
O153 C145 1.249 . S
Mg154 O155 2.028 . S
Mg154 O161 1.986 . S
Mg154 O163 2.114 . S
Mg154 O164 2.251 . S
Mg154 O167 2.010 . S
O155 Mg154 2.028 . S
O155 C158 1.250 . S
O156 Mg157 2.028 . S
O156 C158 1.248 . S
Mg157 O156 2.028 . S
Mg157 O162 2.032 . S
Mg157 O164 2.079 . S
C158 O155 1.250 . S
C158 O156 1.248 . S
C159 O160 1.264 . S
C159 O167 1.249 . S
O160 C159 1.264 . S
O161 Mg154 1.986 . S
O161 C165 1.246 . S
O162 Mg157 2.032 . S
O162 C165 1.259 . S
O163 Mg154 2.114 . S
O163 C166 1.252 . S
O164 Mg154 2.251 . S
O164 Mg157 2.079 . S
O164 C166 1.273 . S
C165 O161 1.246 . S
C165 O162 1.259 . S
C166 O163 1.252 . S
C166 O164 1.273 . S
O167 Mg154 2.010 . S
O167 C159 1.249 . S
H168 C176 0.929 . S
H169 C178 0.930 . S
H170 C180 0.930 . S
H171 C183 0.929 . S
H172 C186 0.930 . S
H173 C188 0.960 . S
H174 C188 0.960 . S
H175 C188 0.960 . S
C176 H168 0.929 . S
C176 C177 1.377 . S
C176 C178 1.384 . S
C177 C176 1.377 . S
C177 C183 1.390 . S
C178 H169 0.930 . S
C178 C176 1.384 . S
C178 C179 1.372 . S
C179 C178 1.372 . S
C179 C180 1.400 . S
C179 C184 1.490 . S
C180 H170 0.930 . S
C180 C179 1.400 . S
C180 C183 1.386 . S
H181 C197 0.930 . S
H182 C198 0.931 . S
C183 H171 0.929 . S
C183 C177 1.390 . S
C183 C180 1.386 . S
C184 C179 1.490 . S
C184 C186 1.395 . S
C184 C187 1.403 . S
H185 C191 0.930 . S
C186 H172 0.930 . S
C186 C184 1.395 . S
C186 C189 1.403 . S
C187 C184 1.403 . S
C187 C188 1.524 . S
C187 C191 1.400 . S
C188 H173 0.960 . S
C188 H174 0.960 . S
C188 H175 0.960 . S
C188 C187 1.524 . S
C189 C186 1.403 . S
C189 C190 1.392 . S
C189 C193 1.495 . S
C190 C189 1.392 . S
C190 C191 1.385 . S
C190 C192 1.478 . S
C191 H185 0.930 . S
C191 C187 1.400 . S
C191 C190 1.385 . S
C192 C190 1.478 . S
C192 C194 1.381 . S
C192 C198 1.383 . S
C193 C189 1.495 . S
C193 H199 0.959 . S
C193 H200 0.961 . S
C193 H201 0.960 . S
C194 C192 1.381 . S
C194 C195 1.394 . S
C194 H202 0.930 . S
C195 C194 1.394 . S
C195 C196 1.383 . S
C195 H203 0.929 . S
C196 C195 1.383 . S
C196 C197 1.377 . S
C197 H181 0.930 . S
C197 C196 1.377 . S
C197 C198 1.379 . S
C198 H182 0.931 . S
C198 C192 1.383 . S
C198 C197 1.379 . S
H199 C193 0.959 . S
H200 C193 0.961 . S
H201 C193 0.960 . S
H202 C194 0.930 . S
H203 C195 0.929 . S
H204 C212 0.929 . S
H205 C214 0.930 . S
H206 C216 0.930 . S
H207 C219 0.929 . S
H208 C222 0.930 . S
H209 C224 0.960 . S
H210 C224 0.960 . S
H211 C224 0.960 . S
C212 H204 0.929 . S
C212 C213 1.377 . S
C212 C214 1.384 . S
C213 C212 1.377 . S
C213 C219 1.390 . S
C214 H205 0.930 . S
C214 C212 1.384 . S
C214 C215 1.372 . S
C215 C214 1.372 . S
C215 C216 1.400 . S
C215 C220 1.490 . S
C216 H206 0.930 . S
C216 C215 1.400 . S
C216 C219 1.386 . S
H217 C233 0.930 . S
H218 C234 0.931 . S
C219 H207 0.929 . S
C219 C213 1.390 . S
C219 C216 1.386 . S
C220 C215 1.490 . S
C220 C222 1.395 . S
C220 C223 1.403 . S
H221 C227 0.930 . S
C222 H208 0.930 . S
C222 C220 1.395 . S
C222 C225 1.403 . S
C223 C220 1.403 . S
C223 C224 1.524 . S
C223 C227 1.400 . S
C224 H209 0.960 . S
C224 H210 0.960 . S
C224 H211 0.960 . S
C224 C223 1.524 . S
C225 C222 1.403 . S
C225 C226 1.392 . S
C225 C229 1.495 . S
C226 C225 1.392 . S
C226 C227 1.385 . S
C226 C228 1.478 . S
C227 H221 0.930 . S
C227 C223 1.400 . S
C227 C226 1.385 . S
C228 C226 1.478 . S
C228 C230 1.381 . S
C228 C234 1.383 . S
C229 C225 1.495 . S
C229 H235 0.959 . S
C229 H236 0.961 . S
C229 H237 0.960 . S
C230 C228 1.381 . S
C230 C231 1.394 . S
C230 H238 0.930 . S
C231 C230 1.394 . S
C231 C232 1.383 . S
C231 H239 0.929 . S
C232 C231 1.383 . S
C232 C233 1.377 . S
C233 H217 0.930 . S
C233 C232 1.377 . S
C233 C234 1.379 . S
C234 H218 0.931 . S
C234 C228 1.383 . S
C234 C233 1.379 . S
H235 C229 0.959 . S
H236 C229 0.961 . S
H237 C229 0.960 . S
H238 C230 0.930 . S
H239 C231 0.929 . S
H240 C248 0.929 . S
H241 C250 0.930 . S
H242 C252 0.930 . S
H243 C255 0.929 . S
H244 C258 0.930 . S
H245 C260 0.960 . S
H246 C260 0.960 . S
H247 C260 0.960 . S
C248 H240 0.929 . S
C248 C249 1.377 . S
C248 C250 1.384 . S
C249 C248 1.377 . S
C249 C255 1.390 . S
C250 H241 0.930 . S
C250 C248 1.384 . S
C250 C251 1.372 . S
C251 C250 1.372 . S
C251 C252 1.400 . S
C251 C256 1.490 . S
C252 H242 0.930 . S
C252 C251 1.400 . S
C252 C255 1.386 . S
H253 C269 0.930 . S
H254 C270 0.931 . S
C255 H243 0.929 . S
C255 C249 1.390 . S
C255 C252 1.386 . S
C256 C251 1.490 . S
C256 C258 1.395 . S
C256 C259 1.403 . S
H257 C263 0.930 . S
C258 H244 0.930 . S
C258 C256 1.395 . S
C258 C261 1.403 . S
C259 C256 1.403 . S
C259 C260 1.524 . S
C259 C263 1.400 . S
C260 H245 0.960 . S
C260 H246 0.960 . S
C260 H247 0.960 . S
C260 C259 1.524 . S
C261 C258 1.403 . S
C261 C262 1.392 . S
C261 C265 1.495 . S
C262 C261 1.392 . S
C262 C263 1.385 . S
C262 C264 1.478 . S
C263 H257 0.930 . S
C263 C259 1.400 . S
C263 C262 1.385 . S
C264 C262 1.478 . S
C264 C266 1.381 . S
C264 C270 1.383 . S
C265 C261 1.495 . S
C265 H271 0.959 . S
C265 H272 0.961 . S
C265 H273 0.960 . S
C266 C264 1.381 . S
C266 C267 1.394 . S
C266 H274 0.930 . S
C267 C266 1.394 . S
C267 C268 1.383 . S
C267 H275 0.929 . S
C268 C267 1.383 . S
C268 C269 1.377 . S
C269 H253 0.930 . S
C269 C268 1.377 . S
C269 C270 1.379 . S
C270 H254 0.931 . S
C270 C264 1.383 . S
C270 C269 1.379 . S
H271 C265 0.959 . S
H272 C265 0.961 . S
H273 C265 0.960 . S
H274 C266 0.930 . S
H275 C267 0.929 . S
H276 C284 0.929 . S
H277 C286 0.930 . S
H278 C288 0.930 . S
H279 C291 0.929 . S
H280 C294 0.930 . S
H281 C296 0.960 . S
H282 C296 0.960 . S
H283 C296 0.960 . S
C284 H276 0.929 . S
C284 C285 1.377 . S
C284 C286 1.384 . S
C285 C284 1.377 . S
C285 C291 1.390 . S
C286 H277 0.930 . S
C286 C284 1.384 . S
C286 C287 1.372 . S
C287 C286 1.372 . S
C287 C288 1.400 . S
C287 C292 1.490 . S
C288 H278 0.930 . S
C288 C287 1.400 . S
C288 C291 1.386 . S
H289 C305 0.930 . S
H290 C306 0.931 . S
C291 H279 0.929 . S
C291 C285 1.390 . S
C291 C288 1.386 . S
C292 C287 1.490 . S
C292 C294 1.395 . S
C292 C295 1.403 . S
H293 C299 0.930 . S
C294 H280 0.930 . S
C294 C292 1.395 . S
C294 C297 1.403 . S
C295 C292 1.403 . S
C295 C296 1.524 . S
C295 C299 1.400 . S
C296 H281 0.960 . S
C296 H282 0.960 . S
C296 H283 0.960 . S
C296 C295 1.524 . S
C297 C294 1.403 . S
C297 C298 1.392 . S
C297 C301 1.495 . S
C298 C297 1.392 . S
C298 C299 1.385 . S
C298 C300 1.478 . S
C299 H293 0.930 . S
C299 C295 1.400 . S
C299 C298 1.385 . S
C300 C298 1.478 . S
C300 C302 1.381 . S
C300 C306 1.383 . S
C301 C297 1.495 . S
C301 H307 0.959 . S
C301 H308 0.961 . S
C301 H309 0.960 . S
C302 C300 1.381 . S
C302 C303 1.394 . S
C302 H310 0.930 . S
C303 C302 1.394 . S
C303 C304 1.383 . S
C303 H311 0.929 . S
C304 C303 1.383 . S
C304 C305 1.377 . S
C305 H289 0.930 . S
C305 C304 1.377 . S
C305 C306 1.379 . S
C306 H290 0.931 . S
C306 C300 1.383 . S
C306 C305 1.379 . S
H307 C301 0.959 . S
H308 C301 0.961 . S
H309 C301 0.960 . S
H310 C302 0.930 . S
H311 C303 0.929 . S
H312 C320 0.929 . S
H313 C322 0.930 . S
H314 C324 0.930 . S
H315 C327 0.929 . S
H316 C330 0.930 . S
H317 C332 0.960 . S
H318 C332 0.960 . S
H319 C332 0.960 . S
C320 H312 0.929 . S
C320 C321 1.377 . S
C320 C322 1.384 . S
C321 C320 1.377 . S
C321 C327 1.390 . S
C322 H313 0.930 . S
C322 C320 1.384 . S
C322 C323 1.372 . S
C323 C322 1.372 . S
C323 C324 1.400 . S
C323 C328 1.490 . S
C324 H314 0.930 . S
C324 C323 1.400 . S
C324 C327 1.386 . S
H325 C341 0.930 . S
H326 C342 0.931 . S
C327 H315 0.929 . S
C327 C321 1.390 . S
C327 C324 1.386 . S
C328 C323 1.490 . S
C328 C330 1.395 . S
C328 C331 1.403 . S
H329 C335 0.930 . S
C330 H316 0.930 . S
C330 C328 1.395 . S
C330 C333 1.403 . S
C331 C328 1.403 . S
C331 C332 1.524 . S
C331 C335 1.400 . S
C332 H317 0.960 . S
C332 H318 0.960 . S
C332 H319 0.960 . S
C332 C331 1.524 . S
C333 C330 1.403 . S
C333 C334 1.392 . S
C333 C337 1.495 . S
C334 C333 1.392 . S
C334 C335 1.385 . S
C334 C336 1.478 . S
C335 H329 0.930 . S
C335 C331 1.400 . S
C335 C334 1.385 . S
C336 C334 1.478 . S
C336 C338 1.381 . S
C336 C342 1.383 . S
C337 C333 1.495 . S
C337 H343 0.959 . S
C337 H344 0.961 . S
C337 H345 0.960 . S
C338 C336 1.381 . S
C338 C339 1.394 . S
C338 H346 0.930 . S
C339 C338 1.394 . S
C339 C340 1.383 . S
C339 H347 0.929 . S
C340 C339 1.383 . S
C340 C341 1.377 . S
C341 H325 0.930 . S
C341 C340 1.377 . S
C341 C342 1.379 . S
C342 H326 0.931 . S
C342 C336 1.383 . S
C342 C341 1.379 . S
H343 C337 0.959 . S
H344 C337 0.961 . S
H345 C337 0.960 . S
H346 C338 0.930 . S
H347 C339 0.929 . S
H348 C356 0.929 . S
H349 C358 0.930 . S
H350 C360 0.930 . S
H351 C363 0.929 . S
H352 C366 0.930 . S
H353 C368 0.960 . S
H354 C368 0.960 . S
H355 C368 0.960 . S
C356 H348 0.929 . S
C356 C357 1.377 . S
C356 C358 1.384 . S
C357 C356 1.377 . S
C357 C363 1.390 . S
C358 H349 0.930 . S
C358 C356 1.384 . S
C358 C359 1.372 . S
C359 C358 1.372 . S
C359 C360 1.400 . S
C359 C364 1.490 . S
C360 H350 0.930 . S
C360 C359 1.400 . S
C360 C363 1.386 . S
H361 C377 0.930 . S
H362 C378 0.931 . S
C363 H351 0.929 . S
C363 C357 1.390 . S
C363 C360 1.386 . S
C364 C359 1.490 . S
C364 C366 1.395 . S
C364 C367 1.403 . S
H365 C371 0.930 . S
C366 H352 0.930 . S
C366 C364 1.395 . S
C366 C369 1.403 . S
C367 C364 1.403 . S
C367 C368 1.524 . S
C367 C371 1.400 . S
C368 H353 0.960 . S
C368 H354 0.960 . S
C368 H355 0.960 . S
C368 C367 1.524 . S
C369 C366 1.403 . S
C369 C370 1.392 . S
C369 C373 1.495 . S
C370 C369 1.392 . S
C370 C371 1.385 . S
C370 C372 1.478 . S
C371 H365 0.930 . S
C371 C367 1.400 . S
C371 C370 1.385 . S
C372 C370 1.478 . S
C372 C374 1.381 . S
C372 C378 1.383 . S
C373 C369 1.495 . S
C373 H379 0.959 . S
C373 H380 0.961 . S
C373 H381 0.960 . S
C374 C372 1.381 . S
C374 C375 1.394 . S
C374 H382 0.930 . S
C375 C374 1.394 . S
C375 C376 1.383 . S
C375 H383 0.929 . S
C376 C375 1.383 . S
C376 C377 1.377 . S
C377 H361 0.930 . S
C377 C376 1.377 . S
C377 C378 1.379 . S
C378 H362 0.931 . S
C378 C372 1.383 . S
C378 C377 1.379 . S
H379 C373 0.959 . S
H380 C373 0.961 . S
H381 C373 0.960 . S
H382 C374 0.930 . S
H383 C375 0.929 . S
H384 C392 0.929 . S
H385 C394 0.930 . S
H386 C396 0.930 . S
H387 C399 0.929 . S
H388 C402 0.930 . S
H389 C404 0.960 . S
H390 C404 0.960 . S
H391 C404 0.960 . S
C392 H384 0.929 . S
C392 C393 1.377 . S
C392 C394 1.384 . S
C393 C392 1.377 . S
C393 C399 1.390 . S
C394 H385 0.930 . S
C394 C392 1.384 . S
C394 C395 1.372 . S
C395 C394 1.372 . S
C395 C396 1.400 . S
C395 C400 1.490 . S
C396 H386 0.930 . S
C396 C395 1.400 . S
C396 C399 1.386 . S
H397 C413 0.930 . S
H398 C414 0.931 . S
C399 H387 0.929 . S
C399 C393 1.390 . S
C399 C396 1.386 . S
C400 C395 1.490 . S
C400 C402 1.395 1_554 S
C400 C403 1.403 1_545 S
H401 C407 0.928 1_554 S
C402 H388 0.930 . S
C402 C400 1.395 1_556 S
C402 C405 1.403 . S
C403 C400 1.403 1_565 S
C403 C404 1.524 . S
C403 C407 1.384 1_554 S
C404 H389 0.960 . S
C404 H390 0.960 . S
C404 H391 0.960 . S
C404 C403 1.524 . S
C405 C402 1.403 . S
C405 C406 1.392 1_545 S
C405 C409 1.495 . S
C406 C405 1.392 1_565 S
C406 C407 1.403 . S
C406 C408 1.478 . S
C407 H401 0.928 1_556 S
C407 C403 1.384 1_556 S
C407 C406 1.403 . S
C408 C406 1.478 . S
C408 C410 1.381 . S
C408 C414 1.383 . S
C409 C405 1.495 . S
C409 H415 0.959 . S
C409 H416 0.961 . S
C409 H417 0.960 . S
C410 C408 1.381 . S
C410 C411 1.394 . S
C410 H418 0.930 . S
C411 C410 1.394 . S
C411 C412 1.383 . S
C411 H419 0.929 . S
C412 C411 1.383 . S
C412 C413 1.377 . S
C413 H397 0.930 . S
C413 C412 1.377 . S
C413 C414 1.379 . S
C414 H398 0.931 . S
C414 C408 1.383 . S
C414 C413 1.379 . S
H415 C409 0.959 . S
H416 C409 0.961 . S
H417 C409 0.960 . S
H418 C410 0.930 . S
H419 C411 0.929 . S
H420 C428 0.929 . S
H421 C430 0.930 . S
H422 C432 0.930 . S
H423 C435 0.929 . S
H424 C438 0.930 . S
H425 C440 0.960 . S
H426 C440 0.960 . S
H427 C440 0.960 . S
C428 H420 0.929 . S
C428 C429 1.377 . S
C428 C430 1.384 . S
C429 C428 1.377 . S
C429 C435 1.390 . S
C430 H421 0.930 . S
C430 C428 1.384 . S
C430 C431 1.372 . S
C431 C430 1.372 . S
C431 C432 1.400 . S
C431 C436 1.490 . S
C432 H422 0.930 . S
C432 C431 1.400 . S
C432 C435 1.386 . S
H433 C449 0.930 . S
H434 C450 0.931 . S
C435 H423 0.929 . S
C435 C429 1.390 . S
C435 C432 1.386 . S
C436 C431 1.490 . S
C436 C438 1.395 . S
C436 C439 1.403 . S
H437 C443 0.930 . S
C438 H424 0.930 . S
C438 C436 1.395 . S
C438 C441 1.403 . S
C439 C436 1.403 . S
C439 C440 1.524 . S
C439 C443 1.400 . S
C440 H425 0.960 . S
C440 H426 0.960 . S
C440 H427 0.960 . S
C440 C439 1.524 . S
C441 C438 1.403 . S
C441 C442 1.392 . S
C441 C445 1.495 . S
C442 C441 1.392 . S
C442 C443 1.385 . S
C442 C444 1.478 . S
C443 H437 0.930 . S
C443 C439 1.400 . S
C443 C442 1.385 . S
C444 C442 1.478 . S
C444 C446 1.381 . S
C444 C450 1.383 . S
C445 C441 1.495 . S
C445 H451 0.959 . S
C445 H452 0.961 . S
C445 H453 0.960 . S
C446 C444 1.381 . S
C446 C447 1.394 . S
C446 H454 0.930 . S
C447 C446 1.394 . S
C447 C448 1.383 . S
C447 H455 0.929 . S
C448 C447 1.383 . S
C448 C449 1.377 . S
C449 H433 0.930 . S
C449 C448 1.377 . S
C449 C450 1.379 . S
C450 H434 0.931 . S
C450 C444 1.383 . S
C450 C449 1.379 . S
H451 C445 0.959 . S
H452 C445 0.961 . S
H453 C445 0.960 . S
H454 C446 0.930 . S
H455 C447 0.929 . S
H456 C464 0.929 . S
H457 C466 0.930 . S
H458 C468 0.930 . S
H459 C471 0.929 . S
H460 C474 0.930 . S
H461 C476 0.960 . S
H462 C476 0.960 . S
H463 C476 0.960 . S
C464 H456 0.929 . S
C464 C465 1.377 . S
C464 C466 1.384 . S
C465 C464 1.377 . S
C465 C471 1.390 . S
C466 H457 0.930 . S
C466 C464 1.384 . S
C466 C467 1.372 . S
C467 C466 1.372 . S
C467 C468 1.400 . S
C467 C472 1.490 . S
C468 H458 0.930 . S
C468 C467 1.400 . S
C468 C471 1.386 . S
H469 C485 0.930 . S
H470 C486 0.931 . S
C471 H459 0.929 . S
C471 C465 1.390 . S
C471 C468 1.386 . S
C472 C467 1.490 . S
C472 C474 1.395 1_556 S
C472 C475 1.403 1_455 S
H473 C479 0.930 . S
C474 H460 0.930 . S
C474 C472 1.395 1_554 S
C474 C477 1.403 . S
C475 C472 1.403 1_655 S
C475 C476 1.524 . S
C475 C479 1.400 1_556 S
C476 H461 0.960 . S
C476 H462 0.960 . S
C476 H463 0.960 . S
C476 C475 1.524 . S
C477 C474 1.403 . S
C477 C478 1.392 1_455 S
C477 C481 1.495 . S
C478 C477 1.392 1_655 S
C478 C479 1.385 . S
C478 C480 1.478 . S
C479 H473 0.930 . S
C479 C475 1.400 1_554 S
C479 C478 1.385 . S
C480 C478 1.478 . S
C480 C482 1.381 . S
C480 C486 1.383 . S
C481 C477 1.495 . S
C481 H487 0.959 . S
C481 H488 0.961 . S
C481 H489 0.960 . S
C482 C480 1.381 . S
C482 C483 1.394 . S
C482 H490 0.930 . S
C483 C482 1.394 . S
C483 C484 1.383 . S
C483 H491 0.929 . S
C484 C483 1.383 . S
C484 C485 1.377 . S
C485 H469 0.930 . S
C485 C484 1.377 . S
C485 C486 1.379 . S
C486 H470 0.931 . S
C486 C480 1.383 . S
C486 C485 1.379 . S
H487 C481 0.959 . S
H488 C481 0.961 . S
H489 C481 0.960 . S
H490 C482 0.930 . S
H491 C483 0.929 . S
H492 C500 0.929 . S
H493 C502 0.930 . S
H494 C504 0.930 . S
H495 C507 0.929 . S
H496 C510 0.930 . S
H497 C512 0.960 1_565 S
H498 C512 0.960 . S
H499 C512 0.960 . S
C500 H492 0.929 . S
C500 C501 1.377 . S
C500 C502 1.384 . S
C501 C500 1.377 . S
C501 C507 1.390 . S
C502 H493 0.930 . S
C502 C500 1.384 . S
C502 C503 1.372 . S
C503 C502 1.372 . S
C503 C504 1.400 . S
C503 C508 1.490 . S
C504 H494 0.930 . S
C504 C503 1.400 . S
C504 C507 1.386 . S
H505 C521 0.930 . S
H506 C522 0.931 . S
C507 H495 0.929 . S
C507 C501 1.390 . S
C507 C504 1.386 . S
C508 C503 1.490 . S
C508 C510 1.395 . S
C508 C511 1.403 . S
H509 C515 0.930 . S
C510 H496 0.930 . S
C510 C508 1.395 . S
C510 C513 1.403 1_545 S
C511 C508 1.403 . S
C511 C512 1.524 . S
C511 C515 1.400 1_545 S
C512 H497 0.960 1_545 S
C512 H498 0.960 . S
C512 H499 0.960 . S
C512 C511 1.524 . S
C513 C510 1.403 1_565 S
C513 C514 1.392 . S
C513 C517 1.495 . S
C514 C513 1.392 . S
C514 C515 1.385 . S
C514 C516 1.478 . S
C515 H509 0.930 . S
C515 C511 1.400 1_565 S
C515 C514 1.385 . S
C516 C514 1.478 . S
C516 C518 1.381 . S
C516 C522 1.383 . S
C517 C513 1.495 . S
C517 H523 0.959 1_565 S
C517 H524 0.961 . S
C517 H525 0.960 . S
C518 C516 1.381 . S
C518 C519 1.394 . S
C518 H526 0.930 . S
C519 C518 1.394 . S
C519 C520 1.383 . S
C519 H527 0.929 . S
C520 C519 1.383 . S
C520 C521 1.377 . S
C521 H505 0.930 . S
C521 C520 1.377 . S
C521 C522 1.379 . S
C522 H506 0.931 . S
C522 C516 1.383 . S
C522 C521 1.379 . S
H523 C517 0.959 1_545 S
H524 C517 0.961 . S
H525 C517 0.960 . S
H526 C518 0.930 . S
H527 C519 0.929 . S
H528 C536 0.929 . S
H529 C538 0.930 . S
H530 C540 0.930 . S
H531 C543 0.929 . S
H532 C546 0.930 . S
H533 C548 0.959 . S
H534 C548 0.960 . S
H535 C548 0.960 . S
C536 H528 0.929 . S
C536 C537 1.377 . S
C536 C538 1.384 . S
C537 C536 1.377 . S
C537 C543 1.390 . S
C538 H529 0.930 . S
C538 C536 1.384 . S
C538 C539 1.372 . S
C539 C538 1.372 . S
C539 C540 1.400 . S
C539 C544 1.490 . S
C540 H530 0.930 . S
C540 C539 1.400 . S
C540 C543 1.386 . S
H541 C557 0.930 . S
H542 C558 0.931 . S
C543 H531 0.929 . S
C543 C537 1.390 . S
C543 C540 1.386 . S
C544 C539 1.490 . S
C544 C546 1.395 . S
C544 C547 1.403 . S
H545 C551 0.930 . S
C546 H532 0.930 . S
C546 C544 1.395 . S
C546 C549 1.403 1_556 S
C547 C544 1.403 . S
C547 C548 1.524 . S
C547 C551 1.400 1_556 S
C548 H533 0.959 . S
C548 H534 0.960 . S
C548 H535 0.960 . S
C548 C547 1.524 . S
C549 C546 1.403 1_554 S
C549 C550 1.392 . S
C549 C553 1.495 . S
C550 C549 1.392 . S
C550 C551 1.385 . S
C550 C552 1.478 . S
C551 H545 0.930 . S
C551 C547 1.400 1_554 S
C551 C550 1.385 . S
C552 C550 1.478 . S
C552 C554 1.381 . S
C552 C558 1.383 . S
C553 C549 1.495 . S
C553 H559 0.959 . S
C553 H560 0.961 . S
C553 H561 0.960 . S
C554 C552 1.381 . S
C554 C555 1.394 . S
C554 H562 0.930 . S
C555 C554 1.394 . S
C555 C556 1.383 . S
C555 H563 0.929 . S
C556 C555 1.383 . S
C556 C557 1.377 . S
C557 H541 0.930 . S
C557 C556 1.377 . S
C557 C558 1.379 . S
C558 H542 0.931 . S
C558 C552 1.383 . S
C558 C557 1.379 . S
H559 C553 0.959 . S
H560 C553 0.961 . S
H561 C553 0.960 . S
H562 C554 0.930 . S
H563 C555 0.929 . S
H564 C572 0.929 . S
H565 C574 0.930 . S
H566 C576 0.930 . S
H567 C579 0.929 . S
H568 C582 0.930 . S
H569 C584 0.960 . S
H570 C584 0.960 . S
H571 C584 0.960 1_655 S
C572 H564 0.929 . S
C572 C573 1.377 . S
C572 C574 1.384 . S
C573 C572 1.377 . S
C573 C579 1.390 . S
C574 H565 0.930 . S
C574 C572 1.384 . S
C574 C575 1.372 . S
C575 C574 1.372 . S
C575 C576 1.400 . S
C575 C580 1.490 . S
C576 H566 0.930 . S
C576 C575 1.400 . S
C576 C579 1.386 . S
H577 C593 0.930 . S
H578 C594 0.931 . S
C579 H567 0.929 . S
C579 C573 1.390 . S
C579 C576 1.386 . S
C580 C575 1.490 . S
C580 C582 1.395 . S
C580 C583 1.403 1_655 S
H581 C587 0.930 . S
C582 H568 0.930 . S
C582 C580 1.395 . S
C582 C585 1.403 . S
C583 C580 1.403 1_455 S
C583 C584 1.524 . S
C583 C587 1.400 . S
C584 H569 0.960 . S
C584 H570 0.960 . S
C584 H571 0.960 1_455 S
C584 C583 1.524 . S
C585 C582 1.403 . S
C585 C586 1.392 1_655 S
C585 C589 1.495 . S
C586 C585 1.392 1_455 S
C586 C587 1.385 . S
C586 C588 1.478 . S
C587 H581 0.930 . S
C587 C583 1.400 . S
C587 C586 1.385 . S
C588 C586 1.478 . S
C588 C590 1.381 . S
C588 C594 1.383 . S
C589 C585 1.495 . S
C589 H595 0.959 . S
C589 H596 0.961 . S
C589 H597 0.960 1_655 S
C590 C588 1.381 . S
C590 C591 1.394 . S
C590 H598 0.930 . S
C591 C590 1.394 . S
C591 C592 1.383 . S
C591 H599 0.929 . S
C592 C591 1.383 . S
C592 C593 1.377 . S
C593 H577 0.930 . S
C593 C592 1.377 . S
C593 C594 1.379 . S
C594 H578 0.931 . S
C594 C588 1.383 . S
C594 C593 1.379 . S
H595 C589 0.959 . S
H596 C589 0.961 . S
H597 C589 0.960 1_455 S
H598 C590 0.930 . S
H599 C591 0.929 . S
H600 C608 0.929 . S
H601 C610 0.930 . S
H602 C612 0.930 . S
H603 C615 0.929 . S
H604 C618 0.930 . S
H605 C620 0.960 . S
H606 C620 0.960 . S
H607 C620 0.960 . S
C608 H600 0.929 . S
C608 C609 1.377 . S
C608 C610 1.384 . S
C609 C608 1.377 . S
C609 C615 1.390 . S
C610 H601 0.930 . S
C610 C608 1.384 . S
C610 C611 1.372 . S
C611 C610 1.372 . S
C611 C612 1.400 . S
C611 C616 1.490 . S
C612 H602 0.930 . S
C612 C611 1.400 . S
C612 C615 1.386 . S
H613 C629 0.930 . S
H614 C630 0.931 . S
C615 H603 0.929 . S
C615 C609 1.390 . S
C615 C612 1.386 . S
C616 C611 1.490 . S
C616 C618 1.395 . S
C616 C619 1.403 . S
H617 C623 0.930 . S
C618 H604 0.930 . S
C618 C616 1.395 . S
C618 C621 1.403 . S
C619 C616 1.403 . S
C619 C620 1.524 . S
C619 C623 1.400 . S
C620 H605 0.960 . S
C620 H606 0.960 . S
C620 H607 0.960 . S
C620 C619 1.524 . S
C621 C618 1.403 . S
C621 C622 1.392 . S
C621 C625 1.495 . S
C622 C621 1.392 . S
C622 C623 1.385 . S
C622 C624 1.478 . S
C623 H617 0.930 . S
C623 C619 1.400 . S
C623 C622 1.385 . S
C624 C622 1.478 . S
C624 C626 1.381 . S
C624 C630 1.383 . S
C625 C621 1.495 . S
C625 H631 0.959 . S
C625 H632 0.961 . S
C625 H633 0.960 . S
C626 C624 1.381 . S
C626 C627 1.394 . S
C626 H634 0.930 . S
C627 C626 1.394 . S
C627 C628 1.383 . S
C627 H635 0.929 . S
C628 C627 1.383 . S
C628 C629 1.377 . S
C629 H613 0.930 . S
C629 C628 1.377 . S
C629 C630 1.379 . S
C630 H614 0.931 . S
C630 C624 1.383 . S
C630 C629 1.379 . S
H631 C625 0.959 . S
H632 C625 0.961 . S
H633 C625 0.960 . S
H634 C626 0.930 . S
H635 C627 0.929 . S
H636 C644 0.929 . S
H637 C646 0.930 . S
H638 C648 0.930 . S
H639 C651 0.929 . S
H640 C654 0.930 . S
H641 C656 0.960 . S
H642 C656 0.960 . S
H643 C656 0.960 . S
C644 H636 0.929 . S
C644 C645 1.377 . S
C644 C646 1.384 . S
C645 C644 1.377 . S
C645 C651 1.390 . S
C646 H637 0.930 . S
C646 C644 1.384 . S
C646 C647 1.372 . S
C647 C646 1.372 . S
C647 C648 1.400 . S
C647 C652 1.490 . S
C648 H638 0.930 . S
C648 C647 1.400 . S
C648 C651 1.386 . S
H649 C665 0.930 . S
H650 C666 0.931 . S
C651 H639 0.929 . S
C651 C645 1.390 . S
C651 C648 1.386 . S
C652 C647 1.490 . S
C652 C654 1.395 . S
C652 C655 1.403 . S
H653 C659 0.930 . S
C654 H640 0.930 . S
C654 C652 1.395 . S
C654 C657 1.403 . S
C655 C652 1.403 . S
C655 C656 1.524 . S
C655 C659 1.400 . S
C656 H641 0.960 . S
C656 H642 0.960 . S
C656 H643 0.960 . S
C656 C655 1.524 . S
C657 C654 1.403 . S
C657 C658 1.392 . S
C657 C661 1.495 . S
C658 C657 1.392 . S
C658 C659 1.385 . S
C658 C660 1.478 . S
C659 H653 0.930 . S
C659 C655 1.400 . S
C659 C658 1.385 . S
C660 C658 1.478 . S
C660 C662 1.381 . S
C660 C666 1.383 . S
C661 C657 1.495 . S
C661 H667 0.959 . S
C661 H668 0.961 . S
C661 H669 0.960 . S
C662 C660 1.381 . S
C662 C663 1.394 . S
C662 H670 0.930 . S
C663 C662 1.394 . S
C663 C664 1.383 . S
C663 H671 0.929 . S
C664 C663 1.383 . S
C664 C665 1.377 . S
C665 H649 0.930 . S
C665 C664 1.377 . S
C665 C666 1.379 . S
C666 H650 0.931 . S
C666 C660 1.383 . S
C666 C665 1.379 . S
H667 C661 0.959 . S
H668 C661 0.961 . S
H669 C661 0.960 . S
H670 C662 0.930 . S
H671 C663 0.929 . S
H672 C680 0.929 . S
H673 C682 0.930 . S
H674 C684 0.930 . S
H675 C687 0.929 . S
H676 C690 0.930 . S
H677 C692 0.960 . S
H678 C692 0.960 . S
H679 C692 0.960 . S
C680 H672 0.929 . S
C680 C681 1.377 . S
C680 C682 1.384 . S
C681 C680 1.377 . S
C681 C687 1.390 . S
C682 H673 0.930 . S
C682 C680 1.384 . S
C682 C683 1.372 . S
C683 C682 1.372 . S
C683 C684 1.400 . S
C683 C688 1.490 . S
C684 H674 0.930 . S
C684 C683 1.400 . S
C684 C687 1.386 . S
H685 C701 0.930 . S
H686 C702 0.931 . S
C687 H675 0.929 . S
C687 C681 1.390 . S
C687 C684 1.386 . S
C688 C683 1.490 . S
C688 C690 1.395 . S
C688 C691 1.403 . S
H689 C695 0.930 . S
C690 H676 0.930 . S
C690 C688 1.395 . S
C690 C693 1.403 . S
C691 C688 1.403 . S
C691 C692 1.524 . S
C691 C695 1.400 . S
C692 H677 0.960 . S
C692 H678 0.960 . S
C692 H679 0.960 . S
C692 C691 1.524 . S
C693 C690 1.403 . S
C693 C694 1.392 . S
C693 C697 1.495 . S
C694 C693 1.392 . S
C694 C695 1.385 . S
C694 C696 1.478 . S
C695 H689 0.930 . S
C695 C691 1.400 . S
C695 C694 1.385 . S
C696 C694 1.478 . S
C696 C698 1.381 . S
C696 C702 1.383 . S
C697 C693 1.495 . S
C697 H703 0.959 . S
C697 H704 0.961 . S
C697 H705 0.960 . S
C698 C696 1.381 . S
C698 C699 1.394 . S
C698 H706 0.930 . S
C699 C698 1.394 . S
C699 C700 1.383 . S
C699 H707 0.929 . S
C700 C699 1.383 . S
C700 C701 1.377 . S
C701 H685 0.930 . S
C701 C700 1.377 . S
C701 C702 1.379 . S
C702 H686 0.931 . S
C702 C696 1.383 . S
C702 C701 1.379 . S
H703 C697 0.959 . S
H704 C697 0.961 . S
H705 C697 0.960 . S
H706 C698 0.930 . S
H707 C699 0.929 . S
H708 C716 0.929 . S
H709 C718 0.930 . S
H710 C720 0.930 . S
H711 C723 0.929 . S
H712 C726 0.930 . S
H713 C728 0.960 . S
H714 C728 0.960 . S
H715 C728 0.960 . S
C716 H708 0.929 . S
C716 C717 1.377 . S
C716 C718 1.384 . S
C717 C716 1.377 . S
C717 C723 1.390 . S
C718 H709 0.930 . S
C718 C716 1.384 . S
C718 C719 1.372 . S
C719 C718 1.372 . S
C719 C720 1.400 . S
C719 C724 1.490 . S
C720 H710 0.930 . S
C720 C719 1.400 . S
C720 C723 1.386 . S
H721 C737 0.930 . S
H722 C738 0.931 . S
C723 H711 0.929 . S
C723 C717 1.390 . S
C723 C720 1.386 . S
C724 C719 1.490 . S
C724 C726 1.395 . S
C724 C727 1.403 . S
H725 C731 0.930 . S
C726 H712 0.930 . S
C726 C724 1.395 . S
C726 C729 1.403 . S
C727 C724 1.403 . S
C727 C728 1.524 . S
C727 C731 1.400 . S
C728 H713 0.960 . S
C728 H714 0.960 . S
C728 H715 0.960 . S
C728 C727 1.524 . S
C729 C726 1.403 . S
C729 C730 1.392 . S
C729 C733 1.495 . S
C730 C729 1.392 . S
C730 C731 1.385 . S
C730 C732 1.478 . S
C731 H725 0.930 . S
C731 C727 1.400 . S
C731 C730 1.385 . S
C732 C730 1.478 . S
C732 C734 1.381 . S
C732 C738 1.383 . S
C733 C729 1.495 . S
C733 H739 0.959 . S
C733 H740 0.961 . S
C733 H741 0.960 . S
C734 C732 1.381 . S
C734 C735 1.394 . S
C734 H742 0.930 . S
C735 C734 1.394 . S
C735 C736 1.383 . S
C735 H743 0.929 . S
C736 C735 1.383 . S
C736 C737 1.377 . S
C737 H721 0.930 . S
C737 C736 1.377 . S
C737 C738 1.379 . S
C738 H722 0.931 . S
C738 C732 1.383 . S
C738 C737 1.379 . S
H739 C733 0.959 . S
H740 C733 0.961 . S
H741 C733 0.960 . S
H742 C734 0.930 . S
H743 C735 0.929 . S
H744 C752 0.929 . S
H745 C754 0.930 . S
H746 C756 0.930 . S
H747 C759 0.929 . S
H748 C762 0.930 . S
H749 C764 0.960 . S
H750 C764 0.960 . S
H751 C764 0.960 . S
C752 H744 0.929 . S
C752 C753 1.377 . S
C752 C754 1.384 . S
C753 C752 1.377 . S
C753 C759 1.390 . S
C754 H745 0.930 . S
C754 C752 1.384 . S
C754 C755 1.372 . S
C755 C754 1.372 . S
C755 C756 1.400 . S
C755 C760 1.490 . S
C756 H746 0.930 . S
C756 C755 1.400 . S
C756 C759 1.386 . S
H757 C773 0.930 . S
H758 C774 0.931 . S
C759 H747 0.929 . S
C759 C753 1.390 . S
C759 C756 1.386 . S
C760 C755 1.490 . S
C760 C762 1.395 . S
C760 C763 1.403 . S
H761 C767 0.930 . S
C762 H748 0.930 . S
C762 C760 1.395 . S
C762 C765 1.403 . S
C763 C760 1.403 . S
C763 C764 1.524 . S
C763 C767 1.400 . S
C764 H749 0.960 . S
C764 H750 0.960 . S
C764 H751 0.960 . S
C764 C763 1.524 . S
C765 C762 1.403 . S
C765 C766 1.392 . S
C765 C769 1.495 . S
C766 C765 1.392 . S
C766 C767 1.385 . S
C766 C768 1.478 . S
C767 H761 0.930 . S
C767 C763 1.400 . S
C767 C766 1.385 . S
C768 C766 1.478 . S
C768 C770 1.381 . S
C768 C774 1.383 . S
C769 C765 1.495 . S
C769 H775 0.959 . S
C769 H776 0.961 . S
C769 H777 0.960 . S
C770 C768 1.381 . S
C770 C771 1.394 . S
C770 H778 0.930 . S
C771 C770 1.394 . S
C771 C772 1.383 . S
C771 H779 0.929 . S
C772 C771 1.383 . S
C772 C773 1.377 . S
C773 H757 0.930 . S
C773 C772 1.377 . S
C773 C774 1.379 . S
C774 H758 0.931 . S
C774 C768 1.383 . S
C774 C773 1.379 . S
H775 C769 0.959 . S
H776 C769 0.961 . S
H777 C769 0.960 . S
H778 C770 0.930 . S
H779 C771 0.929 . S
H780 C788 0.929 . S
H781 C790 0.930 . S
H782 C792 0.930 . S
H783 C795 0.929 . S
H784 C798 0.930 . S
H785 C800 0.960 . S
H786 C800 0.960 . S
H787 C800 0.960 . S
C788 H780 0.929 . S
C788 C789 1.377 . S
C788 C790 1.384 . S
C789 C788 1.377 . S
C789 C795 1.390 . S
C790 H781 0.930 . S
C790 C788 1.384 . S
C790 C791 1.372 . S
C791 C790 1.372 . S
C791 C792 1.400 . S
C791 C796 1.490 . S
C792 H782 0.930 . S
C792 C791 1.400 . S
C792 C795 1.386 . S
H793 C809 0.930 . S
H794 C810 0.931 . S
C795 H783 0.929 . S
C795 C789 1.390 . S
C795 C792 1.386 . S
C796 C791 1.490 . S
C796 C798 1.395 . S
C796 C799 1.403 . S
H797 C803 0.930 . S
C798 H784 0.930 . S
C798 C796 1.395 . S
C798 C801 1.403 . S
C799 C796 1.403 . S
C799 C800 1.524 . S
C799 C803 1.400 . S
C800 H785 0.960 . S
C800 H786 0.960 . S
C800 H787 0.960 . S
C800 C799 1.524 . S
C801 C798 1.403 . S
C801 C802 1.392 . S
C801 C805 1.495 . S
C802 C801 1.392 . S
C802 C803 1.385 . S
C802 C804 1.478 . S
C803 H797 0.930 . S
C803 C799 1.400 . S
C803 C802 1.385 . S
C804 C802 1.478 . S
C804 C806 1.381 . S
C804 C810 1.383 . S
C805 C801 1.495 . S
C805 H811 0.959 . S
C805 H812 0.961 . S
C805 H813 0.960 . S
C806 C804 1.381 . S
C806 C807 1.394 . S
C806 H814 0.930 . S
C807 C806 1.394 . S
C807 C808 1.383 . S
C807 H815 0.929 . S
C808 C807 1.383 . S
C808 C809 1.377 . S
C809 H793 0.930 . S
C809 C808 1.377 . S
C809 C810 1.379 . S
C810 H794 0.931 . S
C810 C804 1.383 . S
C810 C809 1.379 . S
H811 C805 0.959 . S
H812 C805 0.961 . S
H813 C805 0.960 . S
H814 C806 0.930 . S
H815 C807 0.929 . S
H816 C824 0.929 . S
H817 C826 0.930 . S
H818 C828 0.930 . S
H819 C831 0.929 . S
H820 C834 0.930 . S
H821 C836 0.960 . S
H822 C836 0.960 . S
H823 C836 0.960 . S
C824 H816 0.929 . S
C824 C825 1.377 . S
C824 C826 1.384 . S
C825 C824 1.377 . S
C825 C831 1.390 . S
C826 H817 0.930 . S
C826 C824 1.384 . S
C826 C827 1.372 . S
C827 C826 1.372 . S
C827 C828 1.400 . S
C827 C832 1.490 . S
C828 H818 0.930 . S
C828 C827 1.400 . S
C828 C831 1.386 . S
H829 C845 0.930 . S
H830 C846 0.931 . S
C831 H819 0.929 . S
C831 C825 1.390 . S
C831 C828 1.386 . S
C832 C827 1.490 . S
C832 C834 1.395 . S
C832 C835 1.403 . S
H833 C839 0.930 . S
C834 H820 0.930 . S
C834 C832 1.395 . S
C834 C837 1.403 . S
C835 C832 1.403 . S
C835 C836 1.524 . S
C835 C839 1.400 . S
C836 H821 0.960 . S
C836 H822 0.960 . S
C836 H823 0.960 . S
C836 C835 1.524 . S
C837 C834 1.403 . S
C837 C838 1.392 . S
C837 C841 1.495 . S
C838 C837 1.392 . S
C838 C839 1.385 . S
C838 C840 1.478 . S
C839 H833 0.930 . S
C839 C835 1.400 . S
C839 C838 1.385 . S
C840 C838 1.478 . S
C840 C842 1.381 . S
C840 C846 1.383 . S
C841 C837 1.495 . S
C841 H847 0.959 . S
C841 H848 0.961 . S
C841 H849 0.960 . S
C842 C840 1.381 . S
C842 C843 1.394 . S
C842 H850 0.930 . S
C843 C842 1.394 . S
C843 C844 1.383 . S
C843 H851 0.929 . S
C844 C843 1.383 . S
C844 C845 1.377 . S
C845 H829 0.930 . S
C845 C844 1.377 . S
C845 C846 1.379 . S
C846 H830 0.931 . S
C846 C840 1.383 . S
C846 C845 1.379 . S
H847 C841 0.959 . S
H848 C841 0.961 . S
H849 C841 0.960 . S
H850 C842 0.930 . S
H851 C843 0.929 . S
H852 C860 0.929 . S
H853 C862 0.930 . S
H854 C864 0.930 . S
H855 C867 0.929 . S
H856 C870 0.930 . S
H857 C872 0.960 . S
H858 C872 0.960 . S
H859 C872 0.960 . S
C860 H852 0.929 . S
C860 C861 1.377 . S
C860 C862 1.384 . S
C861 C860 1.377 . S
C861 C867 1.390 . S
C862 H853 0.930 . S
C862 C860 1.384 . S
C862 C863 1.372 . S
C863 C862 1.372 . S
C863 C864 1.400 . S
C863 C868 1.490 . S
C864 H854 0.930 . S
C864 C863 1.400 . S
C864 C867 1.386 . S
H865 C881 0.930 . S
H866 C882 0.931 . S
C867 H855 0.929 . S
C867 C861 1.390 . S
C867 C864 1.386 . S
C868 C863 1.490 . S
C868 C870 1.395 . S
C868 C871 1.403 . S
H869 C875 0.930 . S
C870 H856 0.930 . S
C870 C868 1.395 . S
C870 C873 1.403 . S
C871 C868 1.403 . S
C871 C872 1.524 . S
C871 C875 1.400 . S
C872 H857 0.960 . S
C872 H858 0.960 . S
C872 H859 0.960 . S
C872 C871 1.524 . S
C873 C870 1.403 . S
C873 C874 1.392 . S
C873 C877 1.495 . S
C874 C873 1.392 . S
C874 C875 1.385 . S
C874 C876 1.478 . S
C875 H869 0.930 . S
C875 C871 1.400 . S
C875 C874 1.385 . S
C876 C874 1.478 . S
C876 C878 1.381 . S
C876 C882 1.383 . S
C877 C873 1.495 . S
C877 H883 0.959 . S
C877 H884 0.961 . S
C877 H885 0.960 . S
C878 C876 1.381 . S
C878 C879 1.394 . S
C878 H886 0.930 . S
C879 C878 1.394 . S
C879 C880 1.383 . S
C879 H887 0.929 . S
C880 C879 1.383 . S
C880 C881 1.377 . S
C881 H865 0.930 . S
C881 C880 1.377 . S
C881 C882 1.379 . S
C882 H866 0.931 . S
C882 C876 1.383 . S
C882 C881 1.379 . S
H883 C877 0.959 . S
H884 C877 0.961 . S
H885 C877 0.960 . S
H886 C878 0.930 . S
H887 C879 0.929 . S
H888 C896 0.929 . S
H889 C898 0.930 . S
H890 C900 0.930 . S
H891 C903 0.929 . S
H892 C906 0.930 . S
H893 C908 0.960 . S
H894 C908 0.960 . S
H895 C908 0.960 . S
C896 H888 0.929 . S
C896 C897 1.377 . S
C896 C898 1.384 . S
C897 C896 1.377 . S
C897 C903 1.390 . S
C898 H889 0.930 . S
C898 C896 1.384 . S
C898 C899 1.372 . S
C899 C898 1.372 . S
C899 C900 1.400 . S
C899 C904 1.490 . S
C900 H890 0.930 . S
C900 C899 1.400 . S
C900 C903 1.386 . S
H901 C917 0.930 . S
H902 C918 0.931 . S
C903 H891 0.929 . S
C903 C897 1.390 . S
C903 C900 1.386 . S
C904 C899 1.490 . S
C904 C906 1.395 . S
C904 C907 1.403 . S
H905 C911 0.930 . S
C906 H892 0.930 . S
C906 C904 1.395 . S
C906 C909 1.403 . S
C907 C904 1.403 . S
C907 C908 1.524 . S
C907 C911 1.400 . S
C908 H893 0.960 . S
C908 H894 0.960 . S
C908 H895 0.960 . S
C908 C907 1.524 . S
C909 C906 1.403 . S
C909 C910 1.392 . S
C909 C913 1.495 . S
C910 C909 1.392 . S
C910 C911 1.385 . S
C910 C912 1.478 . S
C911 H905 0.930 . S
C911 C907 1.400 . S
C911 C910 1.385 . S
C912 C910 1.478 . S
C912 C914 1.381 . S
C912 C918 1.383 . S
C913 C909 1.495 . S
C913 H919 0.959 . S
C913 H920 0.961 . S
C913 H921 0.960 . S
C914 C912 1.381 . S
C914 C915 1.394 . S
C914 H922 0.930 . S
C915 C914 1.394 . S
C915 C916 1.383 . S
C915 H923 0.929 . S
C916 C915 1.383 . S
C916 C917 1.377 . S
C917 H901 0.930 . S
C917 C916 1.377 . S
C917 C918 1.379 . S
C918 H902 0.931 . S
C918 C912 1.383 . S
C918 C917 1.379 . S
H919 C913 0.959 . S
H920 C913 0.961 . S
H921 C913 0.960 . S
H922 C914 0.930 . S
H923 C915 0.929 . S
H924 C932 0.929 . S
H925 C934 0.930 . S
H926 C936 0.930 . S
H927 C939 0.929 . S
H928 C942 0.930 . S
H929 C944 0.960 . S
H930 C944 0.960 . S
H931 C944 0.960 . S
C932 H924 0.929 . S
C932 C933 1.377 . S
C932 C934 1.384 . S
C933 C932 1.377 . S
C933 C939 1.390 . S
C934 H925 0.930 . S
C934 C932 1.384 . S
C934 C935 1.372 . S
C935 C934 1.372 . S
C935 C936 1.400 . S
C935 C940 1.490 . S
C936 H926 0.930 . S
C936 C935 1.400 . S
C936 C939 1.386 . S
H937 C953 0.930 . S
H938 C954 0.931 . S
C939 H927 0.929 . S
C939 C933 1.390 . S
C939 C936 1.386 . S
C940 C935 1.490 . S
C940 C942 1.395 . S
C940 C943 1.403 . S
H941 C947 0.930 . S
C942 H928 0.930 . S
C942 C940 1.395 . S
C942 C945 1.403 . S
C943 C940 1.403 . S
C943 C944 1.524 . S
C943 C947 1.400 . S
C944 H929 0.960 . S
C944 H930 0.960 . S
C944 H931 0.960 . S
C944 C943 1.524 . S
C945 C942 1.403 . S
C945 C946 1.392 . S
C945 C949 1.495 . S
C946 C945 1.392 . S
C946 C947 1.385 . S
C946 C948 1.478 . S
C947 H941 0.930 . S
C947 C943 1.400 . S
C947 C946 1.385 . S
C948 C946 1.478 . S
C948 C950 1.381 . S
C948 C954 1.383 . S
C949 C945 1.495 . S
C949 H955 0.959 . S
C949 H956 0.961 . S
C949 H957 0.960 . S
C950 C948 1.381 . S
C950 C951 1.394 . S
C950 H958 0.930 . S
C951 C950 1.394 . S
C951 C952 1.383 . S
C951 H959 0.929 . S
C952 C951 1.383 . S
C952 C953 1.377 . S
C953 H937 0.930 . S
C953 C952 1.377 . S
C953 C954 1.379 . S
C954 H938 0.931 . S
C954 C948 1.383 . S
C954 C953 1.379 . S
H955 C949 0.959 . S
H956 C949 0.961 . S
H957 C949 0.960 . S
H958 C950 0.930 . S
H959 C951 0.929 . S
H960 C968 0.929 . S
H961 C970 0.930 . S
H962 C972 0.930 . S
H963 C975 0.929 . S
H964 C978 0.930 . S
H965 C980 0.960 . S
H966 C980 0.960 . S
H967 C980 0.960 . S
C968 H960 0.929 . S
C968 C969 1.377 . S
C968 C970 1.384 . S
C969 C968 1.377 . S
C969 C975 1.390 . S
C970 H961 0.930 . S
C970 C968 1.384 . S
C970 C971 1.372 . S
C971 C970 1.372 . S
C971 C972 1.400 . S
C971 C976 1.490 . S
C972 H962 0.930 . S
C972 C971 1.400 . S
C972 C975 1.386 . S
H973 C989 0.930 . S
H974 C990 0.931 . S
C975 H963 0.929 . S
C975 C969 1.390 . S
C975 C972 1.386 . S
C976 C971 1.490 . S
C976 C978 1.395 . S
C976 C979 1.403 . S
H977 C983 0.930 . S
C978 H964 0.930 . S
C978 C976 1.395 . S
C978 C981 1.403 . S
C979 C976 1.403 . S
C979 C980 1.524 . S
C979 C983 1.400 . S
C980 H965 0.960 . S
C980 H966 0.960 . S
C980 H967 0.960 . S
C980 C979 1.524 . S
C981 C978 1.403 . S
C981 C982 1.392 . S
C981 C985 1.495 . S
C982 C981 1.392 . S
C982 C983 1.385 . S
C982 C984 1.478 . S
C983 H977 0.930 . S
C983 C979 1.400 . S
C983 C982 1.385 . S
C984 C982 1.478 . S
C984 C986 1.381 . S
C984 C990 1.383 . S
C985 C981 1.495 . S
C985 H991 0.959 . S
C985 H992 0.961 . S
C985 H993 0.960 . S
C986 C984 1.381 . S
C986 C987 1.394 . S
C986 H994 0.930 . S
C987 C986 1.394 . S
C987 C988 1.383 . S
C987 H995 0.929 . S
C988 C987 1.383 . S
C988 C989 1.377 . S
C989 H973 0.930 . S
C989 C988 1.377 . S
C989 C990 1.379 . S
C990 H974 0.931 . S
C990 C984 1.383 . S
C990 C989 1.379 . S
H991 C985 0.959 . S
H992 C985 0.961 . S
H993 C985 0.960 . S
H994 C986 0.930 . S
H995 C987 0.929 . S
H996 C1004 0.929 . S
H997 C1006 0.930 . S
H998 C1008 0.930 . S
H999 C1011 0.929 . S
H1000 C1014 0.930 . S
H1001 C1016 0.960 . S
H1002 C1016 0.960 . S
H1003 C1016 0.960 . S
C1004 H996 0.929 . S
C1004 C1005 1.377 . S
C1004 C1006 1.384 . S
C1005 C1004 1.377 . S
C1005 C1011 1.390 . S
C1006 H997 0.930 . S
C1006 C1004 1.384 . S
C1006 C1007 1.372 . S
C1007 C1006 1.372 . S
C1007 C1008 1.400 . S
C1007 C1012 1.490 . S
C1008 H998 0.930 . S
C1008 C1007 1.400 . S
C1008 C1011 1.386 . S
H1009 C1025 0.930 . S
H1010 C1026 0.931 . S
C1011 H999 0.929 . S
C1011 C1005 1.390 . S
C1011 C1008 1.386 . S
C1012 C1007 1.490 . S
C1012 C1014 1.395 . S
C1012 C1015 1.403 . S
H1013 C1019 0.930 . S
C1014 H1000 0.930 . S
C1014 C1012 1.395 . S
C1014 C1017 1.403 . S
C1015 C1012 1.403 . S
C1015 C1016 1.524 . S
C1015 C1019 1.400 . S
C1016 H1001 0.960 . S
C1016 H1002 0.960 . S
C1016 H1003 0.960 . S
C1016 C1015 1.524 . S
C1017 C1014 1.403 . S
C1017 C1018 1.392 . S
C1017 C1021 1.495 . S
C1018 C1017 1.392 . S
C1018 C1019 1.385 . S
C1018 C1020 1.478 . S
C1019 H1013 0.930 . S
C1019 C1015 1.400 . S
C1019 C1018 1.385 . S
C1020 C1018 1.478 . S
C1020 C1022 1.381 . S
C1020 C1026 1.383 . S
C1021 C1017 1.495 . S
C1021 H1027 0.959 . S
C1021 H1028 0.961 . S
C1021 H1029 0.960 . S
C1022 C1020 1.381 . S
C1022 C1023 1.394 . S
C1022 H1030 0.930 . S
C1023 C1022 1.394 . S
C1023 C1024 1.383 . S
C1023 H1031 0.929 . S
C1024 C1023 1.383 . S
C1024 C1025 1.377 . S
C1025 H1009 0.930 . S
C1025 C1024 1.377 . S
C1025 C1026 1.379 . S
C1026 H1010 0.931 . S
C1026 C1020 1.383 . S
C1026 C1025 1.379 . S
H1027 C1021 0.959 . S
H1028 C1021 0.961 . S
H1029 C1021 0.960 . S
H1030 C1022 0.930 . S
H1031 C1023 0.929 . S
C177 C151 1.183 . S
C196 C11 1.224 . S
C213 C25 1.192 . S
C232 C165 1.174 . S
C249 C39 1.188 . S
C268 C95 1.219 . S
C285 C109 1.189 . S
C304 C53 1.146 . S
C321 C123 1.198 . S
C340 C67 1.229 . S
C357 C81 1.180 . S
C376 C137 1.182 . S
C393 C5 0.716 . S
C412 C103 0.741 . S
C429 C19 0.753 . S
C448 C117 0.785 . S
C465 C131 0.719 . S
C484 C33 0.767 . S
C501 C145 0.731 . S
C520 C47 0.811 . S
C537 C159 0.738 . S
C556 C61 0.824 . S
C573 C89 0.722 . S
C592 C75 0.646 . S
C609 C12 0.713 . S
C628 C60 0.806 . S
C645 C26 0.727 . S
C664 C74 0.659 . S
C681 C40 0.731 . S
C700 C4 0.662 . S
C717 C54 0.711 . S
C736 C18 0.771 . S
C753 C68 0.711 . S
C772 C32 0.759 . S
C789 C82 0.728 . S
C808 C46 0.652 . S
C825 C96 0.725 . S
C844 C116 0.649 . S
C861 C110 0.720 . S
C880 C130 0.798 . S
C897 C144 0.716 . S
C916 C124 0.759 . S
C933 C138 0.715 . S
C952 C158 0.799 . S
C969 C152 0.718 . S
C988 C88 0.805 . S
C1005 C166 0.710 . S
C1024 C102 0.792 . S
