# Generated by pormake.
# Topology fst, (5)-cn, num edge types: 1
# Building blocks:
#     Node 0, Type 0, BuildingBlock: BEQFEK_clean_sbu_0, # of connection points: 5
#     Node 1, Type 0, BuildingBlock: BEQFEK_clean_sbu_0, # of connection points: 5
#     Node 2, Type 0, BuildingBlock: BEQFEK_clean_sbu_0, # of connection points: 5
#     Node 3, Type 0, BuildingBlock: BEQFEK_clean_sbu_0, # of connection points: 5
#     Node 4, Type 0, BuildingBlock: BEQFEK_clean_sbu_0, # of connection points: 5
#     Node 5, Type 0, BuildingBlock: BEQFEK_clean_sbu_0, # of connection points: 5
#     Node 6, Type 0, BuildingBlock: BEQFEK_clean_sbu_0, # of connection points: 5
#     Node 7, Type 0, BuildingBlock: BEQFEK_clean_sbu_0, # of connection points: 5
#     Node 8, Type 0, BuildingBlock: BEQFEK_clean_sbu_0, # of connection points: 5
#     Node 9, Type 0, BuildingBlock: BEQFEK_clean_sbu_0, # of connection points: 5
#     Node 10, Type 0, BuildingBlock: BEQFEK_clean_sbu_0, # of connection points: 5
#     Node 11, Type 0, BuildingBlock: BEQFEK_clean_sbu_0, # of connection points: 5
#     Edge 12, Type (0, 0), BuildingBlock: UVAHIK_clean_linker_0, # of connection points: 2
#     Edge 13, Type (0, 0), BuildingBlock: UVAHIK_clean_linker_0, # of connection points: 2
#     Edge 14, Type (0, 0), BuildingBlock: UVAHIK_clean_linker_0, # of connection points: 2
#     Edge 15, Type (0, 0), BuildingBlock: UVAHIK_clean_linker_0, # of connection points: 2
#     Edge 16, Type (0, 0), BuildingBlock: UVAHIK_clean_linker_0, # of connection points: 2
#     Edge 17, Type (0, 0), BuildingBlock: UVAHIK_clean_linker_0, # of connection points: 2
#     Edge 18, Type (0, 0), BuildingBlock: UVAHIK_clean_linker_0, # of connection points: 2
#     Edge 19, Type (0, 0), BuildingBlock: UVAHIK_clean_linker_0, # of connection points: 2
#     Edge 20, Type (0, 0), BuildingBlock: UVAHIK_clean_linker_0, # of connection points: 2
#     Edge 21, Type (0, 0), BuildingBlock: UVAHIK_clean_linker_0, # of connection points: 2
#     Edge 22, Type (0, 0), BuildingBlock: UVAHIK_clean_linker_0, # of connection points: 2
#     Edge 23, Type (0, 0), BuildingBlock: UVAHIK_clean_linker_0, # of connection points: 2
#     Edge 24, Type (0, 0), BuildingBlock: UVAHIK_clean_linker_0, # of connection points: 2
#     Edge 25, Type (0, 0), BuildingBlock: UVAHIK_clean_linker_0, # of connection points: 2
#     Edge 26, Type (0, 0), BuildingBlock: UVAHIK_clean_linker_0, # of connection points: 2
#     Edge 27, Type (0, 0), BuildingBlock: UVAHIK_clean_linker_0, # of connection points: 2
#     Edge 28, Type (0, 0), BuildingBlock: UVAHIK_clean_linker_0, # of connection points: 2
#     Edge 29, Type (0, 0), BuildingBlock: UVAHIK_clean_linker_0, # of connection points: 2
#     Edge 30, Type (0, 0), BuildingBlock: UVAHIK_clean_linker_0, # of connection points: 2
#     Edge 31, Type (0, 0), BuildingBlock: UVAHIK_clean_linker_0, # of connection points: 2
#     Edge 32, Type (0, 0), BuildingBlock: UVAHIK_clean_linker_0, # of connection points: 2
#     Edge 33, Type (0, 0), BuildingBlock: UVAHIK_clean_linker_0, # of connection points: 2
#     Edge 34, Type (0, 0), BuildingBlock: UVAHIK_clean_linker_0, # of connection points: 2
#     Edge 35, Type (0, 0), BuildingBlock: UVAHIK_clean_linker_0, # of connection points: 2
#     Edge 36, Type (0, 0), BuildingBlock: UVAHIK_clean_linker_0, # of connection points: 2
#     Edge 37, Type (0, 0), BuildingBlock: UVAHIK_clean_linker_0, # of connection points: 2
#     Edge 38, Type (0, 0), BuildingBlock: UVAHIK_clean_linker_0, # of connection points: 2
#     Edge 39, Type (0, 0), BuildingBlock: UVAHIK_clean_linker_0, # of connection points: 2
#     Edge 40, Type (0, 0), BuildingBlock: UVAHIK_clean_linker_0, # of connection points: 2
#     Edge 41, Type (0, 0), BuildingBlock: UVAHIK_clean_linker_0, # of connection points: 2
# Relax obj value: 0.025
# Max RMSD: 0.072
# Mean RMSD: 0.072
data_MOF--net-fst--node1-BEQFEK_clean_sbu_0--edge1-UVAHIK_clean_linker_0
_symmetry_space_group_name_H-M    P1
_symmetry_Int_Tables_number       1
_symmetry_cell_setting            triclinic
loop_
_symmetry_equiv_pos_as_xyz
'x, y, z'
_cell_length_a     96.042064
_cell_length_b     96.001548
_cell_length_c     23.942443
_cell_angle_alpha  89.987232
_cell_angle_beta   90.000542
_cell_angle_gamma 119.99359
loop_
_atom_site_label
_atom_site_type_symbol
_atom_site_fract_x
_atom_site_fract_y
_atom_site_fract_z
_atom_type_partial_charge
Co0 Co 0.11094 0.45324 0.24017 0.0
Co1 Co 0.11116 0.45388 0.10937 0.0
C2 C 0.08222 0.43009 0.17079 0.0
O3 O 0.08938 0.43596 0.21694 0.0
O4 O 0.08918 0.43569 0.12408 0.0
C5 C 0.10687 0.43806 0.34709 0.0
O6 O 0.09917 0.42457 0.31874 0.0
C7 C 0.1094 0.44844 0.98603 0.0
C8 C 0.13129 0.47084 0.96076 0.0
C9 C 0.11865 0.45673 0.93983 0.0
N10 N 0.11649 0.45723 0.032 0.0
N11 N 0.12948 0.47062 0.01638 0.0
C12 C 0.09362 0.43307 0.9865 0.0
H13 H 0.08575 0.43349 0.0194 0.0
H14 H 0.09572 0.42295 0.99594 0.0
H15 H 0.08742 0.43089 0.94566 0.0
C16 C 0.13944 0.44958 0.22064 0.0
N17 N 0.12703 0.45115 0.20231 0.0
N18 N 0.12672 0.45072 0.14738 0.0
C19 C 0.13874 0.44851 0.12902 0.0
C20 C 0.14726 0.44785 0.17476 0.0
C21 C 0.14419 0.45066 0.28069 0.0
H22 H 0.14256 0.45998 0.30222 0.0
H23 H 0.13634 0.43892 0.30124 0.0
H24 H 0.15689 0.45365 0.28502 0.0
O25 O 0.11304 0.47446 0.22583 0.0
O26 O 0.11243 0.47424 0.13338 0.0
H27 H 0.14847 0.45811 0.04865 0.0
H28 H 0.14843 0.4398 0.06529 0.0
C29 C 0.14153 0.44619 0.06907 0.0
H30 H 0.12987 0.43916 0.04717 0.0
H31 H 0.13717 0.47961 0.04395 0.0
O32 O 0.11282 0.45141 0.32143 0.0
C33 C 0.11326 0.48111 0.17967 0.0
Co34 Co 0.65699 0.11225 0.23698 0.0
Co35 Co 0.65506 0.11355 0.1066 0.0
C36 C 0.64908 0.08361 0.164 0.0
O37 O 0.65117 0.09043 0.21134 0.0
O38 O 0.65043 0.09115 0.11865 0.0
C39 C 0.66298 0.10364 0.34663 0.0
O40 O 0.66081 0.09043 0.32244 0.0
C41 C 0.66156 0.11343 0.98601 0.0
C42 C 0.65357 0.12996 0.95459 0.0
C43 C 0.66019 0.12071 0.93775 0.0
N44 N 0.65605 0.11826 0.02916 0.0
N45 N 0.6512 0.12803 0.00999 0.0
C46 C 0.66894 0.103 0.99217 0.0
H47 H 0.67373 0.10402 0.0351 0.0
H48 H 0.67871 0.10637 0.96117 0.0
H49 H 0.65957 0.09028 0.98502 0.0
C50 C 0.68955 0.13962 0.21503 0.0
N51 N 0.67511 0.12789 0.1973 0.0
N52 N 0.67441 0.12857 0.14256 0.0
C53 C 0.68839 0.14088 0.12365 0.0
C54 C 0.69845 0.14828 0.16899 0.0
C55 C 0.69475 0.1421 0.27487 0.0
H56 H 0.69271 0.13057 0.29271 0.0
H57 H 0.70765 0.15125 0.27953 0.0
H58 H 0.68733 0.1459 0.29888 0.0
O59 O 0.63834 0.11557 0.22721 0.0
O60 O 0.63692 0.11569 0.13489 0.0
H61 H 0.70297 0.15768 0.05865 0.0
H62 H 0.69184 0.13677 0.03835 0.0
C63 C 0.6915 0.14622 0.06394 0.0
H64 H 0.68159 0.14791 0.04836 0.0
H65 H 0.64648 0.13359 0.03495 0.0
O66 O 0.66189 0.11419 0.31785 0.0
C67 C 0.6316 0.1165 0.18269 0.0
Co68 Co 0.54168 0.65565 0.23855 0.0
Co69 Co 0.54141 0.65699 0.10783 0.0
C70 C 0.56464 0.65048 0.16659 0.0
O71 O 0.55879 0.6513 0.21343 0.0
O72 O 0.5592 0.65256 0.12069 0.0
C73 C 0.55668 0.66598 0.34587 0.0
O74 O 0.57007 0.673 0.31679 0.0
C75 C 0.54894 0.66346 0.98709 0.0
C76 C 0.52682 0.66287 0.95772 0.0
C77 C 0.54157 0.66527 0.93992 0.0
N78 N 0.53896 0.6602 0.03077 0.0
N79 N 0.52573 0.65975 0.01274 0.0
C80 C 0.56553 0.66588 0.99166 0.0
H81 H 0.57099 0.67166 0.03213 0.0
H82 H 0.57327 0.67339 0.95685 0.0
H83 H 0.56482 0.65398 0.99034 0.0
C84 C 0.54561 0.6882 0.2247 0.0
N85 N 0.54413 0.67446 0.20405 0.0
N86 N 0.54475 0.67529 0.14917 0.0
C87 C 0.54705 0.68974 0.1332 0.0
C88 C 0.54751 0.69833 0.18043 0.0
C89 C 0.54416 0.69106 0.2853 0.0
H90 H 0.53503 0.67975 0.30548 0.0
H91 H 0.5559 0.69512 0.30603 0.0
H92 H 0.54072 0.70042 0.29113 0.0
O93 O 0.52039 0.63698 0.22148 0.0
O94 O 0.52072 0.63781 0.12898 0.0
H95 H 0.53776 0.69052 0.05288 0.0
H96 H 0.55567 0.70888 0.07211 0.0
C97 C 0.54957 0.69557 0.07405 0.0
H98 H 0.55701 0.69153 0.05158 0.0
H99 H 0.51604 0.65753 0.03833 0.0
O100 O 0.54332 0.65815 0.32054 0.0
C101 C 0.51373 0.63124 0.17464 0.0
Co102 Co 0.88382 0.54384 0.23915 0.0
Co103 Co 0.88238 0.54246 0.1085 0.0
C104 C 0.91188 0.56662 0.16682 0.0
O105 O 0.90525 0.561 0.21393 0.0
O106 O 0.90439 0.56076 0.12111 0.0
C107 C 0.88859 0.55911 0.3466 0.0
O108 O 0.89636 0.57265 0.31858 0.0
C109 C 0.88394 0.54756 0.98534 0.0
C110 C 0.86143 0.52572 0.96056 0.0
C111 C 0.87445 0.5395 0.93935 0.0
N112 N 0.87663 0.53899 0.03149 0.0
N113 N 0.86326 0.52593 0.01619 0.0
C114 C 0.90024 0.56231 0.9855 0.0
H115 H 0.90808 0.56083 0.01594 0.0
H116 H 0.8991 0.57279 0.99858 0.0
H117 H 0.90597 0.56467 0.94375 0.0
C118 C 0.85509 0.54729 0.22246 0.0
N119 N 0.86738 0.54571 0.20285 0.0
N120 N 0.86715 0.5458 0.14791 0.0
C121 C 0.85491 0.54783 0.1308 0.0
C122 C 0.84679 0.54868 0.17739 0.0
C123 C 0.85086 0.54647 0.28299 0.0
H124 H 0.85256 0.53716 0.30423 0.0
H125 H 0.85898 0.55826 0.30279 0.0
H126 H 0.83824 0.54363 0.2887 0.0
O127 O 0.88157 0.52256 0.22512 0.0
O128 O 0.88129 0.52218 0.13265 0.0
H129 H 0.8442 0.53778 0.05194 0.0
H130 H 0.84475 0.55634 0.06816 0.0
C131 C 0.85153 0.54981 0.07118 0.0
H132 H 0.86294 0.55655 0.04765 0.0
H133 H 0.85536 0.51714 0.04395 0.0
O134 O 0.88243 0.54581 0.32057 0.0
C135 C 0.88089 0.5156 0.1792 0.0
Co136 Co 0.33863 0.88391 0.2352 0.0
Co137 Co 0.33784 0.88279 0.10393 0.0
C138 C 0.34443 0.91242 0.16447 0.0
O139 O 0.34324 0.90543 0.21087 0.0
O140 O 0.34261 0.90518 0.11809 0.0
C141 C 0.32874 0.88927 0.3422 0.0
O142 O 0.32196 0.89573 0.31228 0.0
C143 C 0.33154 0.88481 0.98369 0.0
C144 C 0.33412 0.86476 0.95013 0.0
C145 C 0.33083 0.87672 0.93469 0.0
N146 N 0.33505 0.87787 0.02607 0.0
N147 N 0.33667 0.86598 0.00556 0.0
C148 C 0.32813 0.89829 0.9909 0.0
H149 H 0.32216 0.89715 0.03168 0.0
H150 H 0.32041 0.89841 0.95661 0.0
H151 H 0.33966 0.90987 0.99066 0.0
C152 C 0.30594 0.85588 0.21958 0.0
N153 N 0.31986 0.86793 0.1994 0.0
N154 N 0.3193 0.86771 0.14444 0.0
C155 C 0.30487 0.85561 0.12788 0.0
C156 C 0.29595 0.8477 0.17495 0.0
C157 C 0.30218 0.85274 0.28053 0.0
H158 H 0.30076 0.8626 0.29837 0.0
H159 H 0.29092 0.84125 0.28821 0.0
H160 H 0.31232 0.85263 0.30235 0.0
O161 O 0.35721 0.88107 0.21807 0.0
O162 O 0.35674 0.88088 0.1255 0.0
H163 H 0.30774 0.84652 0.05008 0.0
H164 H 0.28743 0.84163 0.06359 0.0
C165 C 0.30019 0.85111 0.06813 0.0
H166 H 0.30237 0.86191 0.04418 0.0
H167 H 0.33944 0.85862 0.02961 0.0
O168 O 0.33612 0.88312 0.31758 0.0
C169 C 0.36307 0.88022 0.17137 0.0
Co170 Co 0.45073 0.33844 0.23044 0.0
Co171 Co 0.45372 0.33928 0.10039 0.0
C172 C 0.42937 0.34502 0.15588 0.0
O173 O 0.43421 0.34336 0.20363 0.0
O174 O 0.43573 0.34365 0.11101 0.0
C175 C 0.44077 0.33934 0.34281 0.0
O176 O 0.43545 0.34841 0.32151 0.0
C177 C 0.44699 0.33285 0.98018 0.0
C178 C 0.47091 0.33838 0.94921 0.0
C179 C 0.4553 0.33324 0.93227 0.0
N180 N 0.45726 0.33751 0.02345 0.0
N181 N 0.47155 0.3409 0.00458 0.0
C182 C 0.42946 0.32724 0.98575 0.0
H183 H 0.42503 0.32164 0.02733 0.0
H184 H 0.42244 0.3185 0.95237 0.0
H185 H 0.42765 0.33775 0.98223 0.0
C186 C 0.4459 0.30584 0.21266 0.0
N187 N 0.44855 0.32012 0.19327 0.0
N188 N 0.44968 0.32031 0.13851 0.0
C189 C 0.44785 0.30612 0.12118 0.0
C190 C 0.4454 0.29649 0.16766 0.0
C191 C 0.44331 0.30115 0.27302 0.0
H192 H 0.4339 0.30338 0.29037 0.0
H193 H 0.43955 0.28829 0.27911 0.0
H194 H 0.4546 0.30876 0.29643 0.0
O195 O 0.47247 0.35734 0.2193 0.0
O196 O 0.47393 0.35789 0.12692 0.0
H197 H 0.4616 0.31147 0.04611 0.0
H198 H 0.44832 0.29034 0.05695 0.0
C199 C 0.44957 0.30239 0.06172 0.0
H200 H 0.44038 0.30309 0.03578 0.0
H201 H 0.4817 0.34476 0.02973 0.0
O202 O 0.44772 0.33404 0.3113 0.0
C203 C 0.48003 0.36375 0.17429 0.0
Co204 Co 0.54161 0.88328 0.10576 0.0
Co205 Co 0.53993 0.88328 0.23705 0.0
C206 C 0.56329 0.91254 0.17553 0.0
O207 O 0.55785 0.90521 0.12938 0.0
O208 O 0.55771 0.90553 0.22218 0.0
C209 C 0.55707 0.8906 0.99813 0.0
O210 O 0.56928 0.90197 0.02574 0.0
C211 C 0.54749 0.88395 0.3575 0.0
C212 C 0.52304 0.86879 0.39167 0.0
C213 C 0.53908 0.87744 0.407 0.0
N214 N 0.53683 0.87925 0.31532 0.0
N215 N 0.52225 0.87028 0.33616 0.0
C216 C 0.5653 0.89351 0.34924 0.0
H217 H 0.56844 0.89225 0.30562 0.0
H218 H 0.57152 0.88953 0.37881 0.0
H219 H 0.56947 0.9064 0.35698 0.0
C220 C 0.54675 0.85594 0.129 0.0
N221 N 0.54437 0.86792 0.14629 0.0
N222 N 0.54366 0.86779 0.20122 0.0
C223 C 0.54541 0.85557 0.22064 0.0
C224 C 0.54747 0.84768 0.1755 0.0
C225 C 0.54883 0.85292 0.06905 0.0
H226 H 0.55854 0.86416 0.05028 0.0
H227 H 0.552 0.84335 0.06432 0.0
H228 H 0.53756 0.84952 0.04592 0.0
O229 O 0.51979 0.88021 0.11786 0.0
O230 O 0.51954 0.88119 0.21032 0.0
H231 H 0.53271 0.84982 0.29831 0.0
H232 H 0.54332 0.83907 0.28654 0.0
C233 C 0.54383 0.85078 0.28084 0.0
H234 H 0.55422 0.86017 0.30446 0.0
H235 H 0.51175 0.865 0.31231 0.0
O236 O 0.5442 0.88118 0.02424 0.0
C237 C 0.51279 0.8799 0.16339 0.0
Co238 Co 0.65508 0.54194 0.11386 0.0
Co239 Co 0.65456 0.54132 0.24476 0.0
C240 C 0.64931 0.565 0.1824 0.0
O241 O 0.65067 0.55914 0.13639 0.0
O242 O 0.65063 0.55941 0.2292 0.0
C243 C 0.66551 0.55701 0.00658 0.0
O244 O 0.67054 0.57045 0.03463 0.0
C245 C 0.65987 0.5476 0.3677 0.0
C246 C 0.65464 0.52345 0.39487 0.0
C247 C 0.6591 0.53866 0.41467 0.0
N248 N 0.6562 0.53803 0.32248 0.0
N249 N 0.65305 0.52364 0.33928 0.0
C250 C 0.66318 0.56457 0.36588 0.0
H251 H 0.6575 0.56654 0.32887 0.0
H252 H 0.67635 0.57284 0.36309 0.0
H253 H 0.65861 0.56747 0.40413 0.0
C254 C 0.68728 0.54586 0.13388 0.0
N255 N 0.67327 0.54418 0.15223 0.0
N256 N 0.6733 0.54436 0.20718 0.0
C257 C 0.68743 0.54633 0.22564 0.0
C258 C 0.69673 0.5473 0.17977 0.0
C259 C 0.69167 0.54675 0.07347 0.0
H260 H 0.68209 0.5362 0.051 0.0
H261 H 0.69253 0.55774 0.055 0.0
H262 H 0.70336 0.54728 0.06739 0.0
O263 O 0.63599 0.52063 0.12825 0.0
O264 O 0.63557 0.52098 0.22067 0.0
H265 H 0.68337 0.53426 0.30392 0.0
H266 H 0.70405 0.54905 0.29208 0.0
C267 C 0.69149 0.54631 0.286 0.0
H268 H 0.68957 0.55524 0.30898 0.0
H269 H 0.6498 0.5139 0.31256 0.0
O270 O 0.65884 0.54368 0.03255 0.0
C271 C 0.62956 0.51402 0.17451 0.0
Co272 Co 0.11059 0.65644 0.10933 0.0
Co273 Co 0.11071 0.65615 0.24011 0.0
C274 C 0.08188 0.6511 0.17841 0.0
O275 O 0.08905 0.65227 0.13238 0.0
O276 O 0.08879 0.65248 0.22523 0.0
C277 C 0.10658 0.66756 0.00245 0.0
O278 O 0.09895 0.6734 0.03087 0.0
C279 C 0.10895 0.65985 0.36345 0.0
C280 C 0.13084 0.65933 0.38867 0.0
C281 C 0.11819 0.66079 0.40963 0.0
N282 N 0.11604 0.65815 0.31746 0.0
N283 N 0.12903 0.65776 0.33305 0.0
C284 C 0.09317 0.65943 0.36301 0.0
H285 H 0.08531 0.65118 0.33 0.0
H286 H 0.09527 0.67167 0.35378 0.0
H287 H 0.08695 0.65537 0.40382 0.0
C288 C 0.13909 0.68861 0.12875 0.0
N289 N 0.12669 0.67464 0.14711 0.0
N290 N 0.12634 0.6748 0.20203 0.0
C291 C 0.13834 0.68905 0.22035 0.0
C292 C 0.14687 0.69821 0.1746 0.0
C293 C 0.14385 0.6923 0.0687 0.0
H294 H 0.14225 0.68136 0.04719 0.0
H295 H 0.13598 0.69615 0.04814 0.0
H296 H 0.15654 0.70204 0.06441 0.0
O297 O 0.11261 0.63728 0.12396 0.0
O298 O 0.11189 0.637 0.2164 0.0
H299 H 0.148 0.68928 0.30092 0.0
H300 H 0.14794 0.70752 0.28388 0.0
C301 C 0.14106 0.69421 0.28024 0.0
H302 H 0.12938 0.68959 0.302 0.0
H303 H 0.13672 0.65646 0.30545 0.0
O304 O 0.11249 0.66011 0.02804 0.0
C305 C 0.11275 0.63088 0.17033 0.0
Co306 Co 0.45379 0.1118 0.1136 0.0
Co307 Co 0.45323 0.11273 0.24469 0.0
C308 C 0.43089 0.08307 0.18372 0.0
O309 O 0.43695 0.09006 0.1375 0.0
O310 O 0.43588 0.0904 0.23017 0.0
C311 C 0.43875 0.10762 0.00708 0.0
O312 O 0.4257 0.10251 0.03745 0.0
C313 C 0.44505 0.11046 0.36529 0.0
C314 C 0.4667 0.13201 0.39723 0.0
C315 C 0.45208 0.11915 0.41369 0.0
N316 N 0.45511 0.11789 0.32232 0.0
N317 N 0.46803 0.1307 0.34185 0.0
C318 C 0.4287 0.09598 0.35905 0.0
H319 H 0.42333 0.09649 0.31863 0.0
H320 H 0.42067 0.09515 0.39376 0.0
H321 H 0.42983 0.08503 0.35913 0.0
C322 C 0.44906 0.13993 0.12836 0.0
N323 N 0.45067 0.12771 0.14861 0.0
N324 N 0.44969 0.12759 0.20347 0.0
C325 C 0.44702 0.13948 0.21976 0.0
C326 C 0.44668 0.14778 0.17282 0.0
C327 C 0.45095 0.14468 0.06811 0.0
H328 H 0.45991 0.14225 0.04791 0.0
H329 H 0.43924 0.13749 0.04663 0.0
H330 H 0.45483 0.15762 0.06337 0.0
O331 O 0.47522 0.11495 0.13192 0.0
O332 O 0.47425 0.11488 0.22444 0.0
H333 H 0.4558 0.1493 0.30074 0.0
H334 H 0.43773 0.14934 0.28085 0.0
C335 C 0.44411 0.1424 0.27891 0.0
H336 H 0.4368 0.13077 0.30075 0.0
H337 H 0.47775 0.13863 0.31716 0.0
O338 O 0.45219 0.11251 0.03129 0.0
C339 C 0.48162 0.11576 0.17924 0.0
Co340 Co 0.33815 0.45345 0.09924 0.0
Co341 Co 0.33905 0.45401 0.23015 0.0
C342 C 0.34455 0.43064 0.16685 0.0
O343 O 0.34297 0.43648 0.12111 0.0
O344 O 0.34321 0.43609 0.2139 0.0
C345 C 0.32756 0.43829 0.99221 0.0
O346 O 0.32275 0.42489 0.02032 0.0
C347 C 0.33375 0.44756 0.35304 0.0
C348 C 0.33974 0.47188 0.38099 0.0
C349 C 0.33486 0.45652 0.40036 0.0
N350 N 0.33767 0.45726 0.30809 0.0
N351 N 0.34127 0.47175 0.32535 0.0
C352 C 0.32981 0.43039 0.35055 0.0
H353 H 0.33493 0.42815 0.31257 0.0
H354 H 0.31656 0.42248 0.34918 0.0
H355 H 0.33451 0.42727 0.38795 0.0
C356 C 0.30588 0.44919 0.12085 0.0
N357 N 0.31998 0.45097 0.13852 0.0
N358 N 0.32014 0.45082 0.19347 0.0
C359 C 0.30606 0.44883 0.21261 0.0
C360 C 0.29658 0.44777 0.16719 0.0
C361 C 0.30129 0.44825 0.06064 0.0
H362 H 0.31068 0.45892 0.03804 0.0
H363 H 0.30063 0.43739 0.04184 0.0
H364 H 0.28946 0.44745 0.05512 0.0
O365 O 0.35716 0.47487 0.1131 0.0
O366 O 0.35782 0.47444 0.20547 0.0
H367 H 0.31074 0.46098 0.29093 0.0
H368 H 0.28987 0.44669 0.2798 0.0
C369 C 0.30227 0.44903 0.27316 0.0
H370 H 0.30389 0.43987 0.29584 0.0
H371 H 0.34476 0.48159 0.29892 0.0
O372 O 0.33415 0.45164 0.01807 0.0
C373 C 0.36368 0.48147 0.15925 0.0
Co374 Co 0.8841 0.341 0.10832 0.0
Co375 Co 0.88225 0.33965 0.239 0.0
C376 C 0.91207 0.34603 0.18092 0.0
O377 O 0.90551 0.34523 0.13386 0.0
O378 O 0.90446 0.34399 0.22659 0.0
C379 C 0.88876 0.33064 0.0009 0.0
O380 O 0.89504 0.3235 0.02989 0.0
C381 C 0.88318 0.33316 0.35978 0.0
C382 C 0.86168 0.33385 0.38891 0.0
C383 C 0.87399 0.3314 0.40687 0.0
N384 N 0.87651 0.33644 0.316 0.0
N385 N 0.86375 0.33695 0.33387 0.0
C386 C 0.89732 0.33067 0.35537 0.0
H387 H 0.897 0.32488 0.31492 0.0
H388 H 0.89748 0.32313 0.39021 0.0
H389 H 0.90852 0.34254 0.35676 0.0
C390 C 0.85537 0.30852 0.12183 0.0
N391 N 0.86762 0.32222 0.14263 0.0
N392 N 0.86733 0.32139 0.19751 0.0
C393 C 0.85513 0.30695 0.21334 0.0
C394 C 0.84705 0.29838 0.16601 0.0
C395 C 0.85113 0.30567 0.06116 0.0
H396 H 0.85342 0.31701 0.04092 0.0
H397 H 0.85879 0.30155 0.04065 0.0
H398 H 0.83834 0.29638 0.05514 0.0
O399 O 0.88156 0.35973 0.12512 0.0
O400 O 0.88086 0.35888 0.21761 0.0
H401 H 0.845 0.30614 0.29355 0.0
H402 H 0.84457 0.28778 0.27436 0.0
C403 C 0.85178 0.3011 0.27246 0.0
H404 H 0.86324 0.30513 0.29506 0.0
H405 H 0.85631 0.3392 0.30819 0.0
O406 O 0.88331 0.33853 0.02634 0.0
C407 C 0.88058 0.36548 0.17185 0.0
C408 C 0.11419 0.60899 0.2223 0.0
C409 C 0.11375 0.61598 0.17115 0.0
C410 C 0.1148 0.59477 0.22347 0.0
C411 C 0.12495 0.56912 0.13778 0.0
H412 H 0.09816 0.53614 0.24466 0.0
C413 C 0.11458 0.50454 0.12861 0.0
C414 C 0.11426 0.49702 0.17943 0.0
C415 C 0.11514 0.51935 0.12811 0.0
C416 C 0.10587 0.5453 0.21506 0.0
H417 H 0.11375 0.6135 0.08106 0.0
H418 H 0.11467 0.58857 0.08318 0.0
H419 H 0.09793 0.56139 0.24241 0.0
H420 H 0.1145 0.49936 0.26964 0.0
H421 H 0.11561 0.5253 0.26867 0.0
H422 H 0.13283 0.55297 0.11027 0.0
C423 C 0.11471 0.59422 0.12237 0.0
C424 C 0.10573 0.55977 0.21374 0.0
C425 C 0.1141 0.60847 0.12117 0.0
C426 C 0.11467 0.50477 0.22975 0.0
C427 C 0.11522 0.5196 0.22922 0.0
C428 C 0.12509 0.55464 0.1391 0.0
C429 C 0.11498 0.58717 0.17356 0.0
C430 C 0.11525 0.57184 0.17504 0.0
C431 C 0.11539 0.52702 0.17838 0.0
C432 C 0.11553 0.54255 0.17769 0.0
H433 H 0.11404 0.61448 0.26164 0.0
H434 H 0.11524 0.58978 0.26357 0.0
H435 H 0.13259 0.57827 0.10801 0.0
H436 H 0.11426 0.49892 0.08902 0.0
H437 H 0.11506 0.52465 0.08825 0.0
C438 C 0.60991 0.11957 0.13664 0.0
C439 C 0.61716 0.11827 0.1859 0.0
C440 C 0.59601 0.12073 0.13894 0.0
C441 C 0.56137 0.11121 0.22898 0.0
H442 H 0.55535 0.13898 0.1261 0.0
C443 C 0.50487 0.1179 0.23402 0.0
C444 C 0.49783 0.11751 0.18207 0.0
C445 C 0.51997 0.11911 0.23681 0.0
C446 C 0.55681 0.13108 0.15481 0.0
H447 H 0.61557 0.11743 0.27636 0.0
H448 H 0.59129 0.11957 0.28033 0.0
H449 H 0.58092 0.13934 0.12763 0.0
H450 H 0.5013 0.11829 0.0923 0.0
H451 H 0.52759 0.12031 0.09725 0.0
H452 H 0.5372 0.10284 0.25575 0.0
C453 C 0.59632 0.11951 0.2399 0.0
C454 C 0.57146 0.13129 0.15572 0.0
C455 C 0.61027 0.11837 0.23762 0.0
C456 C 0.50635 0.11857 0.133 0.0
C457 C 0.52147 0.11983 0.13583 0.0
C458 C 0.54673 0.11102 0.22813 0.0
C459 C 0.589 0.12063 0.19053 0.0
C460 C 0.57384 0.12122 0.19234 0.0
C461 C 0.5284 0.12002 0.18775 0.0
C462 C 0.54423 0.12082 0.19059 0.0
H463 H 0.61485 0.11953 0.09602 0.0
H464 H 0.59055 0.12133 0.1001 0.0
H465 H 0.56274 0.10314 0.25715 0.0
H466 H 0.49868 0.11717 0.27269 0.0
H467 H 0.52507 0.11943 0.27744 0.0
C468 C 0.3855 0.50487 0.21089 0.0
C469 C 0.37848 0.49745 0.15979 0.0
C470 C 0.39973 0.51967 0.21197 0.0
C471 C 0.4256 0.5555 0.12694 0.0
H472 H 0.45838 0.56099 0.23349 0.0
C473 C 0.49034 0.60975 0.12151 0.0
C474 C 0.49773 0.61647 0.17295 0.0
C475 C 0.47548 0.59556 0.11976 0.0
C476 C 0.44928 0.55974 0.20399 0.0
H477 H 0.38084 0.49996 0.06968 0.0
H478 H 0.40582 0.52581 0.07167 0.0
H479 H 0.43307 0.53563 0.23021 0.0
H480 H 0.49509 0.61366 0.26294 0.0
H481 H 0.46909 0.58899 0.25981 0.0
H482 H 0.44188 0.57964 0.10065 0.0
C483 C 0.40018 0.52018 0.11087 0.0
C484 C 0.43477 0.54519 0.20207 0.0
C485 C 0.38592 0.50533 0.10975 0.0
C486 C 0.48979 0.60878 0.22259 0.0
C487 C 0.47493 0.59458 0.22082 0.0
C488 C 0.44013 0.57008 0.12888 0.0
C489 C 0.40731 0.52744 0.16203 0.0
C490 C 0.42275 0.54291 0.1636 0.0
C491 C 0.46765 0.58775 0.16938 0.0
C492 C 0.45213 0.57236 0.16749 0.0
H493 H 0.38006 0.49922 0.25029 0.0
H494 H 0.40477 0.52507 0.25206 0.0
H495 H 0.41649 0.55419 0.0973 0.0
H496 H 0.49611 0.61534 0.08242 0.0
H497 H 0.47029 0.59051 0.07945 0.0
C498 C 0.87862 0.38699 0.22464 0.0
C499 C 0.87937 0.38027 0.1733 0.0
C500 C 0.87793 0.40117 0.22619 0.0
C501 C 0.86812 0.42711 0.14064 0.0
H502 H 0.89498 0.46003 0.24752 0.0
C503 C 0.87932 0.49192 0.12918 0.0
C504 C 0.87977 0.49964 0.17964 0.0
C505 C 0.87855 0.47701 0.12938 0.0
C506 C 0.88725 0.45088 0.21794 0.0
H507 H 0.87979 0.38315 0.08328 0.0
H508 H 0.8787 0.40796 0.08611 0.0
H509 H 0.89488 0.43459 0.24598 0.0
H510 H 0.87956 0.49757 0.26996 0.0
H511 H 0.87807 0.47147 0.27022 0.0
H512 H 0.86055 0.44343 0.11244 0.0
C513 C 0.87849 0.40215 0.12513 0.0
C514 C 0.88719 0.43631 0.21703 0.0
C515 C 0.87921 0.38797 0.12354 0.0
C516 C 0.8793 0.49201 0.23032 0.0
C517 C 0.87853 0.47708 0.2305 0.0
C518 C 0.86816 0.44168 0.14159 0.0
C519 C 0.87795 0.40896 0.17648 0.0
C520 C 0.87769 0.42429 0.17821 0.0
C521 C 0.8782 0.46944 0.18003 0.0
C522 C 0.87778 0.45376 0.18007 0.0
H523 H 0.87865 0.38135 0.26379 0.0
H524 H 0.8773 0.406 0.26639 0.0
H525 H 0.86049 0.41799 0.11079 0.0
H526 H 0.87969 0.49745 0.08934 0.0
H527 H 0.87854 0.47155 0.08978 0.0
C528 C 0.38514 0.87819 0.21995 0.0
C529 C 0.37773 0.87878 0.1701 0.0
C530 C 0.39928 0.8774 0.21856 0.0
C531 C 0.4242 0.86755 0.12685 0.0
H532 H 0.45807 0.89428 0.23093 0.0
C533 C 0.48916 0.87822 0.11189 0.0
C534 C 0.49667 0.8784 0.16251 0.0
C535 C 0.47425 0.87753 0.11193 0.0
C536 C 0.44867 0.8866 0.202 0.0
H537 H 0.37926 0.87874 0.07959 0.0
H538 H 0.40399 0.87756 0.07732 0.0
H539 H 0.43274 0.89429 0.23318 0.0
H540 H 0.49414 0.87753 0.25283 0.0
H541 H 0.46823 0.8762 0.25269 0.0
H542 H 0.44025 0.85996 0.09551 0.0
C543 C 0.39878 0.87753 0.11748 0.0
C544 C 0.43414 0.88659 0.20334 0.0
C545 C 0.38464 0.87831 0.11884 0.0
C546 C 0.4888 0.87755 0.21301 0.0
C547 C 0.47395 0.87687 0.21301 0.0
C548 C 0.43877 0.86758 0.12548 0.0
C549 C 0.40633 0.8772 0.16732 0.0
C550 C 0.42171 0.87704 0.16591 0.0
C551 C 0.46659 0.87704 0.16256 0.0
C552 C 0.45114 0.87706 0.1632 0.0
H553 H 0.38011 0.87845 0.26016 0.0
H554 H 0.40467 0.87692 0.25771 0.0
H555 H 0.4148 0.85993 0.09784 0.0
H556 H 0.49489 0.87887 0.07226 0.0
H557 H 0.46892 0.87779 0.07236 0.0
C558 C 0.60758 0.48995 0.12517 0.0
C559 C 0.61475 0.49804 0.17518 0.0
C560 C 0.59346 0.47499 0.12627 0.0
C561 C 0.55855 0.44961 0.2156 0.0
H562 H 0.55301 0.41543 0.11568 0.0
C563 C 0.50309 0.38574 0.22764 0.0
C564 C 0.49608 0.37845 0.17641 0.0
C565 C 0.51801 0.39992 0.22896 0.0
C566 C 0.55432 0.4249 0.14353 0.0
H567 H 0.61274 0.49661 0.26565 0.0
H568 H 0.58821 0.47056 0.26738 0.0
H569 H 0.57817 0.44107 0.11449 0.0
H570 H 0.4994 0.38028 0.08641 0.0
H571 H 0.52521 0.405 0.08882 0.0
H572 H 0.53466 0.43353 0.24426 0.0
C573 C 0.59341 0.47586 0.22732 0.0
C574 C 0.56873 0.43958 0.1428 0.0
C575 C 0.60752 0.49077 0.22626 0.0
C576 C 0.50443 0.38554 0.12666 0.0
C577 C 0.51931 0.39968 0.12801 0.0
C578 C 0.54414 0.43494 0.21627 0.0
C579 C 0.58617 0.46783 0.17737 0.0
C580 C 0.57098 0.45213 0.17866 0.0
C581 C 0.52624 0.40709 0.17911 0.0
C582 C 0.54182 0.42244 0.18004 0.0
H583 H 0.61281 0.4952 0.08511 0.0
H584 H 0.58808 0.46917 0.08704 0.0
H585 H 0.55982 0.45911 0.24322 0.0
H586 H 0.49702 0.38058 0.26674 0.0
H587 H 0.52313 0.40523 0.26905 0.0
C588 C 0.27844 0.45822 0.14043 0.0
C589 C 0.28067 0.44659 0.16792 0.0
C590 C 0.26342 0.45717 0.14072 0.0
C591 C 0.22592 0.44081 0.21952 0.0
H592 H 0.20901 0.44774 0.08176 0.0
C593 C 0.16312 0.43516 0.20693 0.0
C594 C 0.16198 0.44666 0.17417 0.0
C595 C 0.1771 0.43407 0.20583 0.0
C596 C 0.21363 0.44594 0.12071 0.0
H597 H 0.2692 0.42479 0.21725 0.0
H598 H 0.24283 0.42304 0.21865 0.0
H599 H 0.23447 0.44793 0.08068 0.0
H600 H 0.17445 0.46623 0.11556 0.0
H601 H 0.19896 0.46459 0.11415 0.0
H602 H 0.20529 0.43921 0.25989 0.0
C603 C 0.2527 0.43296 0.19691 0.0
C604 C 0.22818 0.44601 0.12001 0.0
C605 C 0.26771 0.43394 0.19612 0.0
C606 C 0.17501 0.45712 0.14058 0.0
C607 C 0.189 0.45612 0.13967 0.0
C608 C 0.21139 0.44086 0.22033 0.0
C609 C 0.2504 0.44454 0.16898 0.0
C610 C 0.23455 0.44361 0.16947 0.0
C611 C 0.1902 0.44454 0.17211 0.0
C612 C 0.20517 0.44361 0.17101 0.0
H613 H 0.28835 0.46818 0.11902 0.0
H614 H 0.26204 0.46638 0.11955 0.0
H615 H 0.23064 0.43906 0.25835 0.0
H616 H 0.15312 0.42689 0.23282 0.0
H617 H 0.17756 0.42491 0.23081 0.0
C618 C 0.83117 0.27032 0.12885 0.0
C619 C 0.83225 0.28252 0.16395 0.0
C620 C 0.81725 0.25519 0.12858 0.0
C621 C 0.78185 0.22914 0.21532 0.0
H622 H 0.7631 0.2069 0.07632 0.0
C623 C 0.71726 0.17606 0.20235 0.0
C624 C 0.71442 0.16294 0.1688 0.0
C625 C 0.73224 0.19008 0.20175 0.0
C626 C 0.76832 0.21287 0.11551 0.0
H627 H 0.81964 0.28883 0.22475 0.0
H628 H 0.79534 0.26248 0.22434 0.0
H629 H 0.78825 0.23261 0.0746 0.0
H630 H 0.72482 0.15392 0.10868 0.0
H631 H 0.75116 0.17855 0.10733 0.0
H632 H 0.76185 0.20955 0.25622 0.0
C633 C 0.8053 0.26441 0.19787 0.0
C634 C 0.78271 0.22758 0.11452 0.0
C635 C 0.81917 0.27949 0.19806 0.0
C636 C 0.72677 0.16399 0.13461 0.0
C637 C 0.74178 0.17805 0.1338 0.0
C638 C 0.76748 0.21447 0.2163 0.0
C639 C 0.80422 0.25204 0.16349 0.0
C640 C 0.7895 0.23598 0.16439 0.0
C641 C 0.74466 0.19124 0.16742 0.0
C642 C 0.76044 0.20629 0.16638 0.0
H643 H 0.84119 0.27241 0.10244 0.0
H644 H 0.81682 0.24586 0.10192 0.0
H645 H 0.78696 0.23516 0.25455 0.0
H646 H 0.70781 0.17555 0.22848 0.0
H647 H 0.734 0.20012 0.22741 0.0
C648 C 0.53833 0.71707 0.14832 0.0
C649 C 0.5485 0.71416 0.18229 0.0
C650 C 0.53942 0.7321 0.14842 0.0
C651 C 0.55367 0.76904 0.23132 0.0
H652 H 0.54986 0.78656 0.08985 0.0
C653 C 0.56049 0.83233 0.20968 0.0
C654 C 0.54883 0.83305 0.17647 0.0
C655 C 0.5616 0.81836 0.21085 0.0
C656 C 0.55085 0.78178 0.1297 0.0
H657 H 0.56764 0.72444 0.24342 0.0
H658 H 0.56964 0.75092 0.24365 0.0
H659 H 0.54977 0.76115 0.09148 0.0
H660 H 0.52906 0.81989 0.11922 0.0
H661 H 0.53102 0.79549 0.12078 0.0
H662 H 0.55466 0.78971 0.26945 0.0
C663 C 0.56075 0.74153 0.21723 0.0
C664 C 0.55078 0.76722 0.13067 0.0
C665 C 0.55963 0.72643 0.21711 0.0
C666 C 0.5383 0.81965 0.14448 0.0
C667 C 0.53945 0.80573 0.14537 0.0
C668 C 0.55379 0.78366 0.23033 0.0
C669 C 0.55073 0.74455 0.1825 0.0
C670 C 0.55192 0.76056 0.18154 0.0
C671 C 0.55111 0.80494 0.17854 0.0
C672 C 0.55212 0.79004 0.17956 0.0
H673 H 0.52946 0.70767 0.12185 0.0
H674 H 0.53129 0.73391 0.12213 0.0
H675 H 0.55444 0.76415 0.27122 0.0
H676 H 0.56878 0.8426 0.23446 0.0
H677 H 0.57078 0.81812 0.23645 0.0
C678 C 0.72574 0.56133 0.20681 0.0
C679 C 0.71265 0.54853 0.17972 0.0
C680 C 0.74079 0.56239 0.20674 0.0
C681 C 0.76496 0.54913 0.12879 0.0
H682 H 0.78885 0.55693 0.26689 0.0
C683 C 0.81868 0.53881 0.14617 0.0
C684 C 0.83193 0.54961 0.17822 0.0
C685 C 0.80458 0.5396 0.14635 0.0
C686 C 0.78246 0.555 0.22781 0.0
H687 H 0.70477 0.52673 0.13187 0.0
H688 H 0.73113 0.52864 0.13094 0.0
H689 H 0.76337 0.55682 0.26697 0.0
H690 H 0.84105 0.56974 0.23534 0.0
H691 H 0.81639 0.57135 0.23524 0.0
H692 H 0.78398 0.54737 0.0894 0.0
C693 C 0.72983 0.53792 0.15192 0.0
C694 C 0.76786 0.5549 0.22793 0.0
C695 C 0.71479 0.53681 0.15247 0.0
C696 C 0.83089 0.56122 0.21063 0.0
C697 C 0.81678 0.56209 0.21062 0.0
C698 C 0.77958 0.54934 0.12857 0.0
C699 C 0.74298 0.55072 0.17905 0.0
C700 C 0.75888 0.55175 0.17854 0.0
C701 C 0.80347 0.55129 0.17836 0.0
C702 C 0.7884 0.55204 0.17821 0.0
H703 H 0.72433 0.57056 0.22771 0.0
H704 H 0.75075 0.57244 0.22759 0.0
H705 H 0.7584 0.54694 0.08994 0.0
H706 H 0.81917 0.52961 0.12148 0.0
H707 H 0.79446 0.53088 0.12197 0.0
C708 C 0.1625 0.72678 0.14264 0.0
C709 C 0.16151 0.71417 0.17517 0.0
C710 C 0.17639 0.74191 0.14378 0.0
C711 C 0.21313 0.76672 0.22809 0.0
H712 H 0.22948 0.7908 0.09042 0.0
C713 C 0.27789 0.81929 0.20397 0.0
C714 C 0.27994 0.83314 0.17692 0.0
C715 C 0.26283 0.80537 0.20521 0.0
C716 C 0.22494 0.78428 0.12927 0.0
H717 H 0.17414 0.70718 0.23346 0.0
H718 H 0.19854 0.73344 0.23476 0.0
H719 H 0.20425 0.76521 0.08943 0.0
H720 H 0.26807 0.84355 0.13028 0.0
H721 H 0.24162 0.81901 0.13143 0.0
H722 H 0.23411 0.7856 0.26747 0.0
C723 C 0.18851 0.73189 0.20946 0.0
C724 C 0.21048 0.76964 0.12878 0.0
C725 C 0.17459 0.71683 0.20858 0.0
C726 C 0.26672 0.83291 0.15104 0.0
C727 C 0.25167 0.81893 0.1517 0.0
C728 C 0.22765 0.78126 0.22844 0.0
C729 C 0.18957 0.74464 0.17723 0.0
C730 C 0.20449 0.76061 0.17811 0.0
C731 C 0.24959 0.80504 0.17885 0.0
C732 C 0.23376 0.79009 0.17895 0.0
H733 H 0.15244 0.72497 0.11692 0.0
H734 H 0.17672 0.75151 0.119 0.0
H735 H 0.2087 0.76025 0.26707 0.0
H736 H 0.288 0.81917 0.22357 0.0
H737 H 0.2616 0.79476 0.22578 0.0
C738 C 0.43441 0.16353 0.13541 0.0
C739 C 0.44536 0.16244 0.1713 0.0
C740 C 0.43307 0.17738 0.13506 0.0
C741 C 0.44222 0.21297 0.22119 0.0
H742 H 0.43876 0.23125 0.08101 0.0
C743 C 0.45424 0.27775 0.203 0.0
C744 C 0.44387 0.28042 0.16932 0.0
C745 C 0.45312 0.26269 0.20391 0.0
C746 C 0.4395 0.22617 0.12051 0.0
H747 H 0.46383 0.17495 0.23363 0.0
H748 H 0.46164 0.19916 0.23288 0.0
H749 H 0.4393 0.2061 0.08072 0.0
H750 H 0.42403 0.2696 0.11098 0.0
H751 H 0.4221 0.24316 0.11204 0.0
H752 H 0.44274 0.23319 0.26086 0.0
C753 C 0.45379 0.18925 0.20593 0.0
C754 C 0.4398 0.21176 0.12037 0.0
C755 C 0.45509 0.17543 0.2063 0.0
C756 C 0.43226 0.2678 0.13682 0.0
C757 C 0.43118 0.25273 0.13742 0.0
C758 C 0.44198 0.22738 0.2213 0.0
C759 C 0.4427 0.19037 0.17056 0.0
C760 C 0.44138 0.20512 0.17068 0.0
C761 C 0.44162 0.25004 0.17094 0.0
C762 C 0.44083 0.23423 0.17093 0.0
H763 H 0.42672 0.15359 0.1083 0.0
H764 H 0.42432 0.17782 0.10768 0.0
H765 H 0.44311 0.20799 0.26075 0.0
H766 H 0.4634 0.28739 0.22797 0.0
H767 H 0.46148 0.26104 0.22954 0.0
C768 C 0.11697 0.45243 0.43775 0.0
C769 C 0.10857 0.43787 0.40839 0.0
C770 C 0.11836 0.45248 0.49566 0.0
C771 C 0.09926 0.42826 0.6208 0.0
H772 H 0.13884 0.46044 0.69059 0.0
C773 C 0.10996 0.43641 0.86186 0.0
C774 C 0.11629 0.45239 0.87994 0.0
C775 C 0.1089 0.43287 0.80475 0.0
C776 C 0.12771 0.45139 0.67164 0.0
H777 H 0.09518 0.41189 0.41677 0.0
H778 H 0.09774 0.41199 0.51847 0.0
H779 H 0.13767 0.45723 0.5895 0.0
H780 H 0.12651 0.47713 0.85253 0.0
H781 H 0.12483 0.47097 0.75339 0.0
H782 H 0.08933 0.42259 0.7035 0.0
C783 C 0.10311 0.42337 0.49646 0.0
C784 C 0.12703 0.44958 0.61381 0.0
C785 C 0.10171 0.42332 0.43825 0.0
C786 C 0.12157 0.46471 0.83994 0.0
C787 C 0.12066 0.46119 0.7832 0.0
C788 C 0.09999 0.43002 0.67892 0.0
C789 C 0.11145 0.43797 0.52575 0.0
C790 C 0.11267 0.43832 0.58756 0.0
C791 C 0.11446 0.44528 0.76503 0.0
C792 C 0.1141 0.44192 0.70461 0.0
H793 H 0.12238 0.46387 0.41611 0.0
H794 H 0.1246 0.46395 0.51699 0.0
H795 H 0.088 0.41954 0.60179 0.0
H796 H 0.10634 0.42672 0.89161 0.0
H797 H 0.10421 0.42051 0.7917 0.0
C798 C 0.66375 0.09324 0.44194 0.0
C799 C 0.66597 0.10602 0.40734 0.0
C800 C 0.66541 0.09526 0.49987 0.0
C801 C 0.66313 0.12069 0.6103 0.0
H802 H 0.68122 0.1009 0.70483 0.0
C803 C 0.67025 0.13299 0.84453 0.0
C804 C 0.66457 0.11951 0.87954 0.0
C805 C 0.67256 0.13174 0.78772 0.0
C806 C 0.67607 0.10642 0.67888 0.0
H807 H 0.67256 0.13118 0.40594 0.0
H808 H 0.67574 0.13478 0.5066 0.0
H809 H 0.68145 0.09812 0.6032 0.0
H810 H 0.65706 0.09414 0.88264 0.0
H811 H 0.66116 0.09194 0.783 0.0
H812 H 0.65762 0.12888 0.68546 0.0
C813 C 0.67229 0.12307 0.48927 0.0
C814 C 0.67618 0.10482 0.62078 0.0
C815 C 0.67053 0.12103 0.43154 0.0
C816 C 0.66179 0.10483 0.85698 0.0
C817 C 0.66408 0.10355 0.79986 0.0
C818 C 0.66307 0.12232 0.66808 0.0
C819 C 0.66941 0.11013 0.52423 0.0
C820 C 0.66972 0.11197 0.58587 0.0
C821 C 0.6691 0.11692 0.76447 0.0
C822 C 0.66956 0.11525 0.70304 0.0
H823 H 0.66024 0.08153 0.42448 0.0
H824 H 0.66299 0.08501 0.52563 0.0
H825 H 0.65769 0.12601 0.58481 0.0
H826 H 0.67259 0.14449 0.86089 0.0
H827 H 0.67672 0.14232 0.76169 0.0
C828 C 0.54269 0.65882 0.43817 0.0
C829 C 0.557 0.66729 0.40745 0.0
C830 C 0.54281 0.66008 0.4962 0.0
C831 C 0.54446 0.67234 0.61289 0.0
H832 H 0.57794 0.67218 0.70291 0.0
C833 C 0.54441 0.67925 0.84979 0.0
C834 C 0.54738 0.66878 0.88179 0.0
C835 C 0.5479 0.68117 0.79284 0.0
C836 C 0.56848 0.67219 0.67834 0.0
H837 H 0.5827 0.68368 0.41364 0.0
H838 H 0.58285 0.68608 0.5153 0.0
H839 H 0.57904 0.6708 0.60119 0.0
H840 H 0.55653 0.65224 0.87987 0.0
H841 H 0.56235 0.6553 0.77984 0.0
H842 H 0.53349 0.67303 0.68945 0.0
C843 C 0.57158 0.67829 0.49439 0.0
C844 C 0.5692 0.67157 0.62005 0.0
C845 C 0.57147 0.67699 0.43615 0.0
C846 C 0.5544 0.66062 0.85627 0.0
C847 C 0.55772 0.66239 0.79896 0.0
C848 C 0.5437 0.67289 0.67091 0.0
C849 C 0.55721 0.66992 0.52501 0.0
C850 C 0.55708 0.67144 0.58673 0.0
C851 C 0.55413 0.67239 0.76633 0.0
C852 C 0.55563 0.67272 0.70446 0.0
H853 H 0.53135 0.65115 0.41745 0.0
H854 H 0.53158 0.65321 0.51854 0.0
H855 H 0.53505 0.67252 0.5885 0.0
H856 H 0.53908 0.68575 0.86868 0.0
H857 H 0.54533 0.68926 0.7693 0.0
C858 C 0.89375 0.57362 0.43827 0.0
C859 C 0.88686 0.55915 0.40793 0.0
C860 C 0.89219 0.57342 0.49644 0.0
C861 C 0.86759 0.54702 0.61235 0.0
H862 H 0.90494 0.57347 0.70423 0.0
C863 C 0.87145 0.53143 0.83954 0.0
C864 C 0.87696 0.54377 0.87944 0.0
C865 C 0.87263 0.53496 0.78274 0.0
C866 C 0.89437 0.56619 0.67904 0.0
H867 H 0.87286 0.53314 0.41482 0.0
H868 H 0.87035 0.53279 0.51561 0.0
H869 H 0.90681 0.57675 0.60261 0.0
H870 H 0.88753 0.56952 0.89099 0.0
H871 H 0.89009 0.57576 0.79103 0.0
H872 H 0.85531 0.5361 0.68843 0.0
C873 C 0.87674 0.54431 0.49468 0.0
C874 C 0.89542 0.56808 0.62096 0.0
C875 C 0.8783 0.54452 0.43682 0.0
C876 C 0.88373 0.55979 0.86127 0.0
C877 C 0.88504 0.56336 0.80414 0.0
C878 C 0.86659 0.54508 0.67015 0.0
C879 C 0.88364 0.55874 0.52521 0.0
C880 C 0.88214 0.55822 0.58695 0.0
C881 C 0.87932 0.55093 0.76445 0.0
C882 C 0.88006 0.55436 0.70393 0.0
H883 H 0.9004 0.5851 0.41717 0.0
H884 H 0.89755 0.58473 0.51882 0.0
H885 H 0.85704 0.53952 0.58741 0.0
H886 H 0.86616 0.51897 0.85227 0.0
H887 H 0.86832 0.52516 0.753 0.0
C888 C 0.3186 0.86696 0.841 0.0
C889 C 0.32792 0.87992 0.87679 0.0
C890 C 0.31723 0.8696 0.78444 0.0
C891 C 0.34012 0.89698 0.67293 0.0
H892 H 0.30038 0.87438 0.58877 0.0
C893 C 0.33824 0.886 0.43597 0.0
C894 C 0.32793 0.88924 0.40389 0.0
C895 C 0.33776 0.8863 0.49423 0.0
C896 C 0.31154 0.88088 0.61182 0.0
H897 H 0.34312 0.90581 0.88176 0.0
H898 H 0.34083 0.91044 0.78238 0.0
H899 H 0.29974 0.87261 0.6909 0.0
H900 H 0.3089 0.89514 0.40775 0.0
H901 H 0.30787 0.89533 0.50991 0.0
H902 H 0.35199 0.90482 0.59386 0.0
C903 C 0.33442 0.89827 0.79841 0.0
C904 C 0.31118 0.87981 0.67011 0.0
C905 C 0.3356 0.89563 0.85528 0.0
C906 C 0.31701 0.89263 0.43134 0.0
C907 C 0.31638 0.89269 0.48972 0.0
C908 C 0.34051 0.89786 0.61467 0.0
C909 C 0.3254 0.88524 0.76233 0.0
C910 C 0.32549 0.88769 0.70117 0.0
C911 C 0.32683 0.88963 0.52168 0.0
C912 C 0.32625 0.88965 0.58353 0.0
H913 H 0.31264 0.85473 0.85658 0.0
H914 H 0.31035 0.85933 0.75752 0.0
H915 H 0.35135 0.90305 0.69577 0.0
H916 H 0.3468 0.88337 0.41609 0.0
H917 H 0.34583 0.88372 0.51789 0.0
C918 C 0.44513 0.32615 0.42564 0.0
C919 C 0.43922 0.33571 0.40319 0.0
C920 C 0.44452 0.32342 0.48302 0.0
C921 C 0.42556 0.32515 0.61483 0.0
H922 H 0.46546 0.33209 0.68021 0.0
C923 C 0.43996 0.33532 0.85127 0.0
C924 C 0.4496 0.32959 0.87413 0.0
C925 C 0.43657 0.33374 0.79407 0.0
C926 C 0.45411 0.32979 0.66269 0.0
H927 H 0.42747 0.3494 0.42307 0.0
H928 H 0.42653 0.3447 0.5236 0.0
H929 H 0.46341 0.33359 0.57964 0.0
H930 H 0.46257 0.31703 0.85638 0.0
H931 H 0.45629 0.31383 0.757 0.0
H932 H 0.41633 0.3215 0.69833 0.0
C933 C 0.43154 0.33926 0.49664 0.0
C934 C 0.45296 0.33069 0.60498 0.0
C935 C 0.43219 0.34204 0.43914 0.0
C936 C 0.45519 0.32163 0.83956 0.0
C937 C 0.45166 0.31989 0.78266 0.0
C938 C 0.42668 0.32416 0.6728 0.0
C939 C 0.43795 0.33015 0.51919 0.0
C940 C 0.43872 0.32847 0.58042 0.0
C941 C 0.44273 0.32636 0.75893 0.0
C942 C 0.44101 0.32653 0.69736 0.0
H943 H 0.45048 0.32096 0.39905 0.0
H944 H 0.44933 0.31615 0.49919 0.0
H945 H 0.41439 0.32327 0.59691 0.0
H946 H 0.43579 0.34179 0.87688 0.0
H947 H 0.42982 0.33903 0.77704 0.0
C948 C 0.53624 0.86595 0.50227 0.0
C949 C 0.54498 0.87872 0.46501 0.0
C950 C 0.54045 0.86736 0.55856 0.0
C951 C 0.56092 0.89803 0.66732 0.0
H952 H 0.55428 0.86118 0.7548 0.0
C953 C 0.57088 0.90128 0.90639 0.0
C954 C 0.55815 0.88905 0.93703 0.0
C955 C 0.5715 0.90019 0.84831 0.0
C956 C 0.55617 0.87157 0.73088 0.0
H957 H 0.56505 0.90308 0.45807 0.0
H958 H 0.57276 0.90536 0.55616 0.0
H959 H 0.55212 0.8591 0.65325 0.0
H960 H 0.53634 0.86585 0.93097 0.0
H961 H 0.53747 0.86391 0.82963 0.0
H962 H 0.56483 0.91042 0.74519 0.0
C963 C 0.56256 0.89425 0.54169 0.0
C964 C 0.55491 0.87038 0.67273 0.0
C965 C 0.5583 0.89285 0.48516 0.0
C966 C 0.54627 0.87551 0.90854 0.0
C967 C 0.54698 0.87434 0.85055 0.0
C968 C 0.56231 0.89925 0.72547 0.0
C969 C 0.55353 0.8816 0.57924 0.0
C970 C 0.5569 0.88348 0.64029 0.0
C971 C 0.5595 0.88675 0.81977 0.0
C972 C 0.5596 0.88592 0.7579 0.0
H973 H 0.52588 0.85492 0.48812 0.0
H974 H 0.53303 0.85746 0.58624 0.0
H975 H 0.56232 0.90829 0.64384 0.0
H976 H 0.58023 0.91187 0.92711 0.0
H977 H 0.58135 0.90987 0.82568 0.0
C978 C 0.67579 0.57186 0.91599 0.0
C979 C 0.66763 0.55725 0.94541 0.0
C980 C 0.67752 0.5719 0.85794 0.0
C981 C 0.67484 0.54541 0.74053 0.0
H982 H 0.66657 0.57401 0.64992 0.0
C983 C 0.65354 0.53127 0.51494 0.0
C984 C 0.66174 0.54323 0.47444 0.0
C985 C 0.65644 0.53482 0.57156 0.0
C986 C 0.66914 0.56613 0.67481 0.0
H987 H 0.65488 0.53126 0.93704 0.0
H988 H 0.65757 0.53133 0.83637 0.0
H989 H 0.66783 0.57682 0.75171 0.0
H990 H 0.67989 0.56829 0.46217 0.0
H991 H 0.68437 0.57465 0.56181 0.0
H992 H 0.67537 0.53425 0.66384 0.0
C993 C 0.66297 0.54277 0.85794 0.0
C994 C 0.6699 0.56774 0.73299 0.0
C995 C 0.66131 0.54273 0.91574 0.0
C996 C 0.67289 0.55892 0.49205 0.0
C997 C 0.67563 0.56254 0.54906 0.0
C998 C 0.67391 0.54371 0.68265 0.0
C999 C 0.6711 0.55733 0.82829 0.0
C1000 C 0.67233 0.5571 0.76653 0.0
C1001 C 0.66755 0.55044 0.58914 0.0
C1002 C 0.67065 0.55378 0.64943 0.0
H1003 H 0.68084 0.58325 0.93773 0.0
H1004 H 0.68394 0.58331 0.83635 0.0
H1005 H 0.67715 0.53729 0.76503 0.0
H1006 H 0.64487 0.51907 0.50291 0.0
H1007 H 0.64993 0.52532 0.60175 0.0
C1008 C 0.12111 0.6557 0.50945 0.0
C1009 C 0.11583 0.66274 0.46953 0.0
C1010 C 0.12022 0.65829 0.56622 0.0
C1011 C 0.09961 0.66881 0.6707 0.0
H1012 H 0.13732 0.67921 0.75987 0.0
C1013 C 0.10144 0.67719 0.91139 0.0
C1014 C 0.10828 0.66946 0.94115 0.0
C1015 C 0.10282 0.67855 0.85318 0.0
C1016 C 0.12666 0.67624 0.73563 0.0
H1017 H 0.10588 0.67846 0.458 0.0
H1018 H 0.10379 0.68254 0.55795 0.0
H1019 H 0.13844 0.67719 0.65876 0.0
H1020 H 0.12203 0.65721 0.93325 0.0
H1021 H 0.12423 0.65938 0.83236 0.0
H1022 H 0.08766 0.66729 0.74793 0.0
C1023 C 0.10847 0.67487 0.54483 0.0
C1024 C 0.12733 0.67512 0.67779 0.0
C1025 C 0.10951 0.67239 0.4877 0.0
C1026 C 0.11664 0.66327 0.91169 0.0
C1027 C 0.11802 0.66463 0.85377 0.0
C1028 C 0.09891 0.66982 0.72884 0.0
C1029 C 0.11404 0.66801 0.58447 0.0
C1030 C 0.1137 0.67101 0.64491 0.0
C1031 C 0.11112 0.67226 0.82379 0.0
C1032 C 0.11232 0.67314 0.76198 0.0
H1033 H 0.12605 0.64821 0.49679 0.0
H1034 H 0.12439 0.65267 0.59596 0.0
H1035 H 0.08894 0.66558 0.64619 0.0
H1036 H 0.09494 0.68211 0.93294 0.0
H1037 H 0.09748 0.68459 0.83125 0.0
C1038 C 0.44912 0.1287 0.50718 0.0
C1039 C 0.4462 0.11584 0.47188 0.0
C1040 C 0.44529 0.12607 0.56387 0.0
C1041 C 0.44209 0.09921 0.6764 0.0
H1042 H 0.4244 0.1214 0.76 0.0
C1043 C 0.45121 0.1102 0.91309 0.0
C1044 C 0.43785 0.10746 0.94537 0.0
C1045 C 0.45033 0.10975 0.85486 0.0
C1046 C 0.4292 0.115 0.73716 0.0
H1047 H 0.43703 0.09015 0.4681 0.0
H1048 H 0.43029 0.08552 0.5675 0.0
H1049 H 0.42526 0.12286 0.65793 0.0
H1050 H 0.41312 0.10223 0.94181 0.0
H1051 H 0.41168 0.10165 0.83976 0.0
H1052 H 0.44637 0.09165 0.75557 0.0
C1053 C 0.4354 0.09761 0.55105 0.0
C1054 C 0.42979 0.11592 0.67884 0.0
C1055 C 0.43908 0.10023 0.4941 0.0
C1056 C 0.42362 0.10438 0.91811 0.0
C1057 C 0.4228 0.10409 0.85974 0.0
C1058 C 0.44165 0.09843 0.73467 0.0
C1059 C 0.43868 0.11056 0.58664 0.0
C1060 C 0.43645 0.10822 0.64792 0.0
C1061 C 0.43612 0.10669 0.82757 0.0
C1062 C 0.43542 0.10651 0.76568 0.0
H1063 H 0.45467 0.14086 0.49111 0.0
H1064 H 0.44815 0.13631 0.59032 0.0
H1065 H 0.44742 0.09328 0.65375 0.0
H1066 H 0.46235 0.11261 0.93277 0.0
H1067 H 0.46086 0.11201 0.83113 0.0
C1068 C 0.31731 0.42336 0.90177 0.0
C1069 C 0.32538 0.43799 0.93105 0.0
C1070 C 0.31562 0.42326 0.8437 0.0
C1071 C 0.31837 0.44964 0.72561 0.0
H1072 H 0.32687 0.42102 0.63609 0.0
C1073 C 0.34041 0.46372 0.50079 0.0
C1074 C 0.3321 0.45185 0.46009 0.0
C1075 C 0.33738 0.46014 0.55735 0.0
C1076 C 0.32423 0.42889 0.66068 0.0
H1077 H 0.33797 0.46397 0.92241 0.0
H1078 H 0.33535 0.46381 0.82171 0.0
H1079 H 0.3254 0.41826 0.73792 0.0
H1080 H 0.31366 0.42691 0.44756 0.0
H1081 H 0.30898 0.42049 0.54708 0.0
H1082 H 0.31802 0.46076 0.64858 0.0
C1083 C 0.32999 0.45239 0.84339 0.0
C1084 C 0.32335 0.42732 0.71887 0.0
C1085 C 0.33162 0.45248 0.90122 0.0
C1086 C 0.32075 0.43621 0.47751 0.0
C1087 C 0.31789 0.43255 0.53448 0.0
C1088 C 0.31944 0.45132 0.66772 0.0
C1089 C 0.32198 0.43779 0.81387 0.0
C1090 C 0.32084 0.43797 0.75204 0.0
C1091 C 0.32604 0.44457 0.5747 0.0
C1092 C 0.32277 0.44123 0.63492 0.0
H1093 H 0.31233 0.41198 0.92364 0.0
H1094 H 0.30927 0.41182 0.82223 0.0
H1095 H 0.31599 0.45776 0.74978 0.0
H1096 H 0.34924 0.47589 0.48896 0.0
H1097 H 0.34395 0.46957 0.58768 0.0
C1098 C 0.89236 0.31955 0.91049 0.0
C1099 C 0.88773 0.32934 0.93933 0.0
C1100 C 0.8911 0.31825 0.85226 0.0
C1101 C 0.89537 0.32497 0.72658 0.0
H1102 H 0.85831 0.32388 0.65771 0.0
C1103 C 0.89146 0.336 0.49051 0.0
C1104 C 0.87627 0.32792 0.46507 0.0
C1105 C 0.89303 0.33424 0.54781 0.0
C1106 C 0.86863 0.32392 0.6761 0.0
H1107 H 0.87842 0.34567 0.92957 0.0
H1108 H 0.87649 0.34362 0.8285 0.0
H1109 H 0.86047 0.32437 0.75865 0.0
H1110 H 0.85098 0.31112 0.47837 0.0
H1111 H 0.85373 0.30761 0.57776 0.0
H1112 H 0.90338 0.32428 0.64361 0.0
C1113 C 0.88078 0.33667 0.85073 0.0
C1114 C 0.86999 0.32446 0.73411 0.0
C1115 C 0.88198 0.33792 0.90875 0.0
C1116 C 0.86281 0.31755 0.49718 0.0
C1117 C 0.86439 0.31563 0.55414 0.0
C1118 C 0.89398 0.32437 0.66832 0.0
C1119 C 0.88519 0.32673 0.82178 0.0
C1120 C 0.88347 0.32522 0.76008 0.0
C1121 C 0.87943 0.32432 0.58053 0.0
C1122 C 0.88065 0.32397 0.64239 0.0
H1123 H 0.89682 0.31277 0.93288 0.0
H1124 H 0.89447 0.31039 0.83124 0.0
H1125 H 0.90596 0.32564 0.7453 0.0
H1126 H 0.90198 0.34431 0.46684 0.0
H1127 H 0.90476 0.34126 0.56685 0.0
C1128 C 0.05582 0.41225 0.12338 0.0
C1129 C 0.06519 0.41713 0.17224 0.0
C1130 C 0.03931 0.40132 0.12625 0.0
C1131 C 0.00594 0.38829 0.22467 0.0
H1132 H 0.98177 0.35588 0.11279 0.0
C1133 C 0.93696 0.35147 0.23313 0.0
C1134 C 0.92914 0.35021 0.1822 0.0
C1135 C 0.95342 0.35678 0.23422 0.0
C1136 C 0.98836 0.36492 0.14427 0.0
H1137 H 0.06472 0.41355 0.26198 0.0
H1138 H 0.03604 0.39447 0.26672 0.0
H1139 H 0.01114 0.37044 0.10962 0.0
H1140 H 0.93236 0.35287 0.09226 0.0
H1141 H 0.961 0.36239 0.09435 0.0
H1142 H 0.9833 0.38325 0.2583 0.0
C1143 C 0.04139 0.39932 0.22639 0.0
C1144 C 0.00516 0.37324 0.14243 0.0
C1145 C 0.05784 0.41023 0.22357 0.0
C1146 C 0.938 0.35375 0.13229 0.0
C1147 C 0.95443 0.35909 0.13342 0.0
C1148 C 0.98919 0.38003 0.2264 0.0
C1149 C 0.03187 0.39506 0.17801 0.0
C1150 C 0.01412 0.38517 0.18219 0.0
C1151 C 0.96241 0.36097 0.18444 0.0
C1152 C 0.98018 0.36842 0.18574 0.0
H1153 H 0.0611 0.4173 0.08318 0.0
H1154 H 0.03227 0.39835 0.08826 0.0
H1155 H 0.01248 0.3976 0.25539 0.0
H1156 H 0.93047 0.34869 0.2723 0.0
H1157 H 0.95917 0.35785 0.27416 0.0
C1158 C 0.58087 0.93904 0.22307 0.0
C1159 C 0.57574 0.92979 0.17398 0.0
C1160 C 0.59149 0.95564 0.22025 0.0
C1161 C 0.60339 0.98928 0.12343 0.0
H1162 H 0.63759 0.01324 0.22988 0.0
C1163 C 0.64173 0.05821 0.11134 0.0
C1164 C 0.64415 0.06633 0.1624 0.0
C1165 C 0.63579 0.04162 0.11041 0.0
C1166 C 0.62803 0.00671 0.19998 0.0
H1167 H 0.57845 0.93062 0.08371 0.0
H1168 H 0.59696 0.95938 0.07911 0.0
H1169 H 0.6226 0.98387 0.23391 0.0
H1170 H 0.64275 0.06341 0.25258 0.0
H1171 H 0.6322 0.0346 0.25082 0.0
H1172 H 0.60839 0.01199 0.09048 0.0
C1173 C 0.59257 0.95389 0.11962 0.0
C1174 C 0.61947 0.98991 0.20234 0.0
C1175 C 0.58199 0.93737 0.12238 0.0
C1176 C 0.64105 0.05758 0.21244 0.0
C1177 C 0.63509 0.04103 0.21149 0.0
C1178 C 0.61189 0.00604 0.12122 0.0
C1179 C 0.59716 0.96327 0.16833 0.0
C1180 C 0.60695 0.98103 0.16439 0.0
C1181 C 0.63212 0.0328 0.16049 0.0
C1182 C 0.62419 0.01497 0.15985 0.0
H1183 H 0.57632 0.93358 0.26349 0.0
H1184 H 0.59476 0.96259 0.25851 0.0
H1185 H 0.59363 0.98279 0.09416 0.0
H1186 H 0.64411 0.06461 0.07204 0.0
H1187 H 0.63386 0.03566 0.07041 0.0
C1188 C 0.64077 0.58295 0.22922 0.0
C1189 C 0.64531 0.57801 0.18062 0.0
C1190 C 0.63535 0.59401 0.22593 0.0
C1191 C 0.61556 0.60738 0.12637 0.0
H1192 H 0.62397 0.64003 0.23748 0.0
C1193 C 0.58409 0.64482 0.11529 0.0
C1194 C 0.57747 0.6462 0.16592 0.0
C1195 C 0.59514 0.63939 0.11483 0.0
C1196 C 0.62147 0.63093 0.20621 0.0
H1197 H 0.64869 0.58161 0.09095 0.0
H1198 H 0.63937 0.6009 0.0855 0.0
H1199 H 0.63842 0.62511 0.24185 0.0
H1200 H 0.57786 0.64365 0.25598 0.0
H1201 H 0.59679 0.6339 0.25496 0.0
H1202 H 0.59825 0.61269 0.09176 0.0
C1203 C 0.6397 0.596 0.12593 0.0
C1204 C 0.62975 0.6224 0.20874 0.0
C1205 C 0.64508 0.58497 0.12916 0.0
C1206 C 0.58265 0.64268 0.21615 0.0
C1207 C 0.59364 0.6372 0.21565 0.0
C1208 C 0.60726 0.61584 0.12395 0.0
C1209 C 0.63439 0.60034 0.17401 0.0
C1210 C 0.62671 0.61039 0.16925 0.0
C1211 C 0.59978 0.63519 0.16494 0.0
C1212 C 0.60993 0.62754 0.16431 0.0
H1213 H 0.64084 0.57785 0.26951 0.0
H1214 H 0.63124 0.59704 0.26368 0.0
H1215 H 0.61275 0.59801 0.09584 0.0
H1216 H 0.58047 0.64758 0.07588 0.0
H1217 H 0.59985 0.63821 0.0751 0.0
C1218 C 0.05765 0.64682 0.12522 0.0
C1219 C 0.0649 0.64721 0.17668 0.0
C1220 C 0.04125 0.64152 0.1222 0.0
C1221 C 0.00511 0.63203 0.20567 0.0
H1222 H 0.98297 0.60018 0.09003 0.0
C1223 C 0.93775 0.58494 0.21558 0.0
C1224 C 0.92892 0.57958 0.16561 0.0
C1225 C 0.9542 0.59597 0.21454 0.0
C1226 C 0.98893 0.60929 0.12185 0.0
H1227 H 0.06071 0.64309 0.26577 0.0
H1228 H 0.03197 0.63363 0.26033 0.0
H1229 H 0.01214 0.61461 0.09319 0.0
H1230 H 0.93034 0.58239 0.07551 0.0
H1231 H 0.95906 0.60182 0.07377 0.0
H1232 H 0.98179 0.62639 0.235 0.0
C1233 C 0.03905 0.63757 0.22239 0.0
C1234 C 0.00568 0.61756 0.12372 0.0
C1235 C 0.0555 0.64291 0.22546 0.0
C1236 C 0.9368 0.58611 0.11472 0.0
C1237 C 0.95327 0.5972 0.1137 0.0
C1238 C 0.9883 0.62378 0.20368 0.0
C1239 C 0.03169 0.63645 0.17051 0.0
C1240 C 0.01396 0.62884 0.16614 0.0
C1241 C 0.96223 0.60198 0.16353 0.0
C1242 C 0.98002 0.61211 0.16229 0.0
H1243 H 0.06456 0.65025 0.08686 0.0
H1244 H 0.03598 0.64107 0.08176 0.0
H1245 H 0.01116 0.64081 0.23842 0.0
H1246 H 0.93207 0.58022 0.25561 0.0
H1247 H 0.96074 0.59924 0.25365 0.0
C1248 C 0.35378 0.93894 0.11652 0.0
C1249 C 0.34885 0.92956 0.16536 0.0
C1250 C 0.35967 0.95552 0.11925 0.0
C1251 C 0.37975 0.9887 0.21885 0.0
H1252 H 0.37258 0.01353 0.10651 0.0
C1253 C 0.4113 0.0576 0.2329 0.0
C1254 C 0.41829 0.06588 0.18302 0.0
C1255 C 0.40035 0.04108 0.23212 0.0
C1256 C 0.37474 0.00675 0.1381 0.0
H1257 H 0.34516 0.93005 0.25472 0.0
H1258 H 0.35524 0.95881 0.25918 0.0
H1259 H 0.35775 0.98416 0.1015 0.0
H1260 H 0.41873 0.06338 0.09294 0.0
H1261 H 0.39997 0.03464 0.09185 0.0
H1262 H 0.39705 0.01114 0.25459 0.0
C1263 C 0.35493 0.95345 0.21904 0.0
C1264 C 0.36625 0.98995 0.13519 0.0
C1265 C 0.3491 0.93694 0.21637 0.0
C1266 C 0.41363 0.05739 0.13223 0.0
C1267 C 0.40274 0.0409 0.1315 0.0
C1268 C 0.38826 0.00545 0.22165 0.0
C1269 C 0.36068 0.96299 0.17083 0.0
C1270 C 0.36879 0.98076 0.17527 0.0
C1271 C 0.39619 0.03249 0.1815 0.0
C1272 C 0.386 0.01469 0.18098 0.0
H1273 H 0.35369 0.9336 0.07656 0.0
H1274 H 0.36409 0.96258 0.0814 0.0
H1275 H 0.3822 0.98198 0.24982 0.0
H1276 H 0.41451 0.06379 0.27269 0.0
H1277 H 0.39531 0.03498 0.27131 0.0
C1278 C 0.3499 0.41159 0.11243 0.0
C1279 C 0.34885 0.41784 0.16441 0.0
C1280 C 0.3555 0.40074 0.10888 0.0
C1281 C 0.36411 0.37318 0.18996 0.0
H1282 H 0.39765 0.38464 0.07942 0.0
C1283 C 0.4105 0.35215 0.20274 0.0
C1284 C 0.41669 0.34949 0.1532 0.0
C1285 C 0.39967 0.35781 0.20091 0.0
C1286 C 0.38807 0.38102 0.10972 0.0
H1287 H 0.35212 0.41692 0.25375 0.0
H1288 H 0.36204 0.39799 0.2474 0.0
H1289 H 0.38318 0.39937 0.08296 0.0
H1290 H 0.41565 0.34988 0.06272 0.0
H1291 H 0.3965 0.35955 0.05953 0.0
H1292 H 0.36921 0.35496 0.21727 0.0
C1293 C 0.35843 0.40148 0.20946 0.0
C1294 C 0.3798 0.38951 0.11185 0.0
C1295 C 0.35283 0.41239 0.21306 0.0
C1296 C 0.41124 0.35194 0.10167 0.0
C1297 C 0.40032 0.35756 0.09985 0.0
C1298 C 0.37233 0.36461 0.18763 0.0
C1299 C 0.36017 0.39584 0.15718 0.0
C1300 C 0.36791 0.38586 0.15253 0.0
C1301 C 0.39467 0.36087 0.14949 0.0
C1302 C 0.38462 0.36863 0.1481 0.0
H1303 H 0.34677 0.41537 0.0741 0.0
H1304 H 0.35646 0.39639 0.06812 0.0
H1305 H 0.35486 0.36998 0.22128 0.0
H1306 H 0.41437 0.35035 0.24322 0.0
H1307 H 0.39575 0.36042 0.23996 0.0
loop_
_geom_bond_atom_site_label_1
_geom_bond_atom_site_label_2
_geom_bond_distance
_geom_bond_site_symmetry_2
_ccdc_geom_bond_type
Co0 O3 1.970 . S
Co0 N17 1.989 . S
Co0 O25 1.967 . S
Co0 O32 1.920 . S
Co1 O4 1.966 . S
Co1 N10 2.022 . S
Co1 N18 1.993 . S
Co1 O26 1.941 . S
C2 O3 1.258 . S
C2 O4 1.263 . S
O3 Co0 1.970 . S
O3 C2 1.258 . S
O4 Co1 1.966 . S
O4 C2 1.263 . S
C5 O6 1.235 . S
C5 O32 1.289 . S
O6 C5 1.235 . S
C7 C9 1.400 . S
C7 N10 1.351 1_556 S
C7 C12 1.501 . S
C8 C9 1.387 . S
C8 N11 1.341 . S
C9 C7 1.400 . S
C9 C8 1.387 . S
N10 Co1 2.022 . S
N10 C7 1.351 1_554 S
N10 N11 1.365 1_554 S
N11 C8 1.341 . S
N11 N10 1.365 1_556 S
N11 H31 0.862 . S
C12 C7 1.501 . S
C12 H13 0.961 1_556 S
C12 H14 0.961 . S
C12 H15 0.960 . S
H13 C12 0.961 1_554 S
H14 C12 0.961 . S
H15 C12 0.960 . S
C16 N17 1.342 . S
C16 C20 1.401 . S
C16 C21 1.499 . S
N17 Co0 1.989 . S
N17 C16 1.342 . S
N17 N18 1.388 . S
N18 Co1 1.993 . S
N18 N17 1.388 . S
N18 C19 1.346 . S
C19 N18 1.346 . S
C19 C20 1.396 . S
C19 C29 1.510 . S
C20 C16 1.401 . S
C20 C19 1.396 . S
C21 C16 1.499 . S
C21 H22 0.959 . S
C21 H23 0.960 . S
C21 H24 0.961 . S
H22 C21 0.959 . S
H23 C21 0.960 . S
H24 C21 0.961 . S
O25 Co0 1.967 . S
O25 C33 1.258 . S
O26 Co1 1.941 . S
O26 C33 1.266 . S
H27 C29 0.959 . S
H28 C29 0.961 . S
C29 C19 1.510 . S
C29 H27 0.959 . S
C29 H28 0.961 . S
C29 H30 0.960 . S
H30 C29 0.960 . S
H31 N11 0.862 . S
O32 Co0 1.920 . S
O32 C5 1.289 . S
C33 O25 1.258 . S
C33 O26 1.266 . S
Co34 O37 1.970 . S
Co34 N51 1.989 . S
Co34 O59 1.967 . S
Co34 O66 1.920 . S
Co35 O38 1.966 . S
Co35 N44 2.022 . S
Co35 N52 1.993 . S
Co35 O60 1.941 . S
C36 O37 1.258 . S
C36 O38 1.263 . S
O37 Co34 1.970 . S
O37 C36 1.258 . S
O38 Co35 1.966 . S
O38 C36 1.263 . S
C39 O40 1.235 . S
C39 O66 1.289 . S
O40 C39 1.235 . S
C41 C43 1.400 . S
C41 N44 1.351 1_556 S
C41 C46 1.501 . S
C42 C43 1.387 . S
C42 N45 1.341 . S
C43 C41 1.400 . S
C43 C42 1.387 . S
N44 Co35 2.022 . S
N44 C41 1.351 1_554 S
N44 N45 1.365 1_554 S
N45 C42 1.341 . S
N45 N44 1.365 1_556 S
N45 H65 0.862 . S
C46 C41 1.501 . S
C46 H47 0.961 1_556 S
C46 H48 0.961 . S
C46 H49 0.960 . S
H47 C46 0.961 1_554 S
H48 C46 0.961 . S
H49 C46 0.960 . S
C50 N51 1.342 . S
C50 C54 1.401 . S
C50 C55 1.499 . S
N51 Co34 1.989 . S
N51 C50 1.342 . S
N51 N52 1.388 . S
N52 Co35 1.993 . S
N52 N51 1.388 . S
N52 C53 1.346 . S
C53 N52 1.346 . S
C53 C54 1.396 . S
C53 C63 1.510 . S
C54 C50 1.401 . S
C54 C53 1.396 . S
C55 C50 1.499 . S
C55 H56 0.959 . S
C55 H57 0.960 . S
C55 H58 0.961 . S
H56 C55 0.959 . S
H57 C55 0.960 . S
H58 C55 0.961 . S
O59 Co34 1.967 . S
O59 C67 1.258 . S
O60 Co35 1.941 . S
O60 C67 1.266 . S
H61 C63 0.959 . S
H62 C63 0.961 . S
C63 C53 1.510 . S
C63 H61 0.959 . S
C63 H62 0.961 . S
C63 H64 0.960 . S
H64 C63 0.960 . S
H65 N45 0.862 . S
O66 Co34 1.920 . S
O66 C39 1.289 . S
C67 O59 1.258 . S
C67 O60 1.266 . S
Co68 O71 1.970 . S
Co68 N85 1.989 . S
Co68 O93 1.967 . S
Co68 O100 1.920 . S
Co69 O72 1.966 . S
Co69 N78 2.022 . S
Co69 N86 1.993 . S
Co69 O94 1.941 . S
C70 O71 1.258 . S
C70 O72 1.263 . S
O71 Co68 1.970 . S
O71 C70 1.258 . S
O72 Co69 1.966 . S
O72 C70 1.263 . S
C73 O74 1.235 . S
C73 O100 1.289 . S
O74 C73 1.235 . S
C75 C77 1.400 . S
C75 N78 1.351 1_556 S
C75 C80 1.501 . S
C76 C77 1.387 . S
C76 N79 1.341 . S
C77 C75 1.400 . S
C77 C76 1.387 . S
N78 Co69 2.022 . S
N78 C75 1.351 1_554 S
N78 N79 1.365 1_554 S
N79 C76 1.341 . S
N79 N78 1.365 1_556 S
N79 H99 0.862 . S
C80 C75 1.501 . S
C80 H81 0.961 1_556 S
C80 H82 0.961 . S
C80 H83 0.960 . S
H81 C80 0.961 1_554 S
H82 C80 0.961 . S
H83 C80 0.960 . S
C84 N85 1.342 . S
C84 C88 1.401 . S
C84 C89 1.499 . S
N85 Co68 1.989 . S
N85 C84 1.342 . S
N85 N86 1.388 . S
N86 Co69 1.993 . S
N86 N85 1.388 . S
N86 C87 1.346 . S
C87 N86 1.346 . S
C87 C88 1.396 . S
C87 C97 1.510 . S
C88 C84 1.401 . S
C88 C87 1.396 . S
C89 C84 1.499 . S
C89 H90 0.959 . S
C89 H91 0.960 . S
C89 H92 0.961 . S
H90 C89 0.959 . S
H91 C89 0.960 . S
H92 C89 0.961 . S
O93 Co68 1.967 . S
O93 C101 1.258 . S
O94 Co69 1.941 . S
O94 C101 1.266 . S
H95 C97 0.959 . S
H96 C97 0.961 . S
C97 C87 1.510 . S
C97 H95 0.959 . S
C97 H96 0.961 . S
C97 H98 0.960 . S
H98 C97 0.960 . S
H99 N79 0.862 . S
O100 Co68 1.920 . S
O100 C73 1.289 . S
C101 O93 1.258 . S
C101 O94 1.266 . S
Co102 O105 1.970 . S
Co102 N119 1.989 . S
Co102 O127 1.967 . S
Co102 O134 1.920 . S
Co103 O106 1.966 . S
Co103 N112 2.022 . S
Co103 N120 1.993 . S
Co103 O128 1.941 . S
C104 O105 1.258 . S
C104 O106 1.263 . S
O105 Co102 1.970 . S
O105 C104 1.258 . S
O106 Co103 1.966 . S
O106 C104 1.263 . S
C107 O108 1.235 . S
C107 O134 1.289 . S
O108 C107 1.235 . S
C109 C111 1.400 . S
C109 N112 1.351 1_556 S
C109 C114 1.501 . S
C110 C111 1.387 . S
C110 N113 1.341 . S
C111 C109 1.400 . S
C111 C110 1.387 . S
N112 Co103 2.022 . S
N112 C109 1.351 1_554 S
N112 N113 1.365 1_554 S
N113 C110 1.341 . S
N113 N112 1.365 1_556 S
N113 H133 0.862 . S
C114 C109 1.501 . S
C114 H115 0.961 1_556 S
C114 H116 0.961 . S
C114 H117 0.960 . S
H115 C114 0.961 1_554 S
H116 C114 0.961 . S
H117 C114 0.960 . S
C118 N119 1.342 . S
C118 C122 1.401 . S
C118 C123 1.499 . S
N119 Co102 1.989 . S
N119 C118 1.342 . S
N119 N120 1.388 . S
N120 Co103 1.993 . S
N120 N119 1.388 . S
N120 C121 1.346 . S
C121 N120 1.346 . S
C121 C122 1.396 . S
C121 C131 1.510 . S
C122 C118 1.401 . S
C122 C121 1.396 . S
C123 C118 1.499 . S
C123 H124 0.959 . S
C123 H125 0.960 . S
C123 H126 0.961 . S
H124 C123 0.959 . S
H125 C123 0.960 . S
H126 C123 0.961 . S
O127 Co102 1.967 . S
O127 C135 1.258 . S
O128 Co103 1.941 . S
O128 C135 1.266 . S
H129 C131 0.959 . S
H130 C131 0.961 . S
C131 C121 1.510 . S
C131 H129 0.959 . S
C131 H130 0.961 . S
C131 H132 0.960 . S
H132 C131 0.960 . S
H133 N113 0.862 . S
O134 Co102 1.920 . S
O134 C107 1.289 . S
C135 O127 1.258 . S
C135 O128 1.266 . S
Co136 O139 1.970 . S
Co136 N153 1.989 . S
Co136 O161 1.967 . S
Co136 O168 1.920 . S
Co137 O140 1.966 . S
Co137 N146 2.022 . S
Co137 N154 1.993 . S
Co137 O162 1.941 . S
C138 O139 1.258 . S
C138 O140 1.263 . S
O139 Co136 1.970 . S
O139 C138 1.258 . S
O140 Co137 1.966 . S
O140 C138 1.263 . S
C141 O142 1.235 . S
C141 O168 1.289 . S
O142 C141 1.235 . S
C143 C145 1.400 . S
C143 N146 1.351 1_556 S
C143 C148 1.501 . S
C144 C145 1.387 . S
C144 N147 1.341 . S
C145 C143 1.400 . S
C145 C144 1.387 . S
N146 Co137 2.022 . S
N146 C143 1.351 1_554 S
N146 N147 1.365 1_554 S
N147 C144 1.341 . S
N147 N146 1.365 1_556 S
N147 H167 0.862 . S
C148 C143 1.501 . S
C148 H149 0.961 1_556 S
C148 H150 0.961 . S
C148 H151 0.960 . S
H149 C148 0.961 1_554 S
H150 C148 0.961 . S
H151 C148 0.960 . S
C152 N153 1.342 . S
C152 C156 1.401 . S
C152 C157 1.499 . S
N153 Co136 1.989 . S
N153 C152 1.342 . S
N153 N154 1.388 . S
N154 Co137 1.993 . S
N154 N153 1.388 . S
N154 C155 1.346 . S
C155 N154 1.346 . S
C155 C156 1.396 . S
C155 C165 1.510 . S
C156 C152 1.401 . S
C156 C155 1.396 . S
C157 C152 1.499 . S
C157 H158 0.959 . S
C157 H159 0.960 . S
C157 H160 0.961 . S
H158 C157 0.959 . S
H159 C157 0.960 . S
H160 C157 0.961 . S
O161 Co136 1.967 . S
O161 C169 1.258 . S
O162 Co137 1.941 . S
O162 C169 1.266 . S
H163 C165 0.959 . S
H164 C165 0.961 . S
C165 C155 1.510 . S
C165 H163 0.959 . S
C165 H164 0.961 . S
C165 H166 0.960 . S
H166 C165 0.960 . S
H167 N147 0.862 . S
O168 Co136 1.920 . S
O168 C141 1.289 . S
C169 O161 1.258 . S
C169 O162 1.266 . S
Co170 O173 1.970 . S
Co170 N187 1.989 . S
Co170 O195 1.967 . S
Co170 O202 1.920 . S
Co171 O174 1.966 . S
Co171 N180 2.022 . S
Co171 N188 1.993 . S
Co171 O196 1.941 . S
C172 O173 1.258 . S
C172 O174 1.263 . S
O173 Co170 1.970 . S
O173 C172 1.258 . S
O174 Co171 1.966 . S
O174 C172 1.263 . S
C175 O176 1.235 . S
C175 O202 1.289 . S
O176 C175 1.235 . S
C177 C179 1.400 . S
C177 N180 1.351 1_556 S
C177 C182 1.501 . S
C178 C179 1.387 . S
C178 N181 1.341 . S
C179 C177 1.400 . S
C179 C178 1.387 . S
N180 Co171 2.022 . S
N180 C177 1.351 1_554 S
N180 N181 1.365 1_554 S
N181 C178 1.341 . S
N181 N180 1.365 1_556 S
N181 H201 0.862 . S
C182 C177 1.501 . S
C182 H183 0.961 1_556 S
C182 H184 0.961 . S
C182 H185 0.960 . S
H183 C182 0.961 1_554 S
H184 C182 0.961 . S
H185 C182 0.960 . S
C186 N187 1.342 . S
C186 C190 1.401 . S
C186 C191 1.499 . S
N187 Co170 1.989 . S
N187 C186 1.342 . S
N187 N188 1.388 . S
N188 Co171 1.993 . S
N188 N187 1.388 . S
N188 C189 1.346 . S
C189 N188 1.346 . S
C189 C190 1.396 . S
C189 C199 1.510 . S
C190 C186 1.401 . S
C190 C189 1.396 . S
C191 C186 1.499 . S
C191 H192 0.959 . S
C191 H193 0.960 . S
C191 H194 0.961 . S
H192 C191 0.959 . S
H193 C191 0.960 . S
H194 C191 0.961 . S
O195 Co170 1.967 . S
O195 C203 1.258 . S
O196 Co171 1.941 . S
O196 C203 1.266 . S
H197 C199 0.959 . S
H198 C199 0.961 . S
C199 C189 1.510 . S
C199 H197 0.959 . S
C199 H198 0.961 . S
C199 H200 0.960 . S
H200 C199 0.960 . S
H201 N181 0.862 . S
O202 Co170 1.920 . S
O202 C175 1.289 . S
C203 O195 1.258 . S
C203 O196 1.266 . S
Co204 O207 1.970 . S
Co204 N221 1.989 . S
Co204 O229 1.967 . S
Co204 O236 1.920 . S
Co205 O208 1.966 . S
Co205 N214 2.022 . S
Co205 N222 1.993 . S
Co205 O230 1.941 . S
C206 O207 1.258 . S
C206 O208 1.263 . S
O207 Co204 1.970 . S
O207 C206 1.258 . S
O208 Co205 1.966 . S
O208 C206 1.263 . S
C209 O210 1.235 . S
C209 O236 1.289 . S
O210 C209 1.235 . S
C211 C213 1.400 . S
C211 N214 1.351 . S
C211 C216 1.501 . S
C212 C213 1.387 . S
C212 N215 1.341 . S
C213 C211 1.400 . S
C213 C212 1.387 . S
N214 Co205 2.022 . S
N214 C211 1.351 . S
N214 N215 1.365 . S
N215 C212 1.341 . S
N215 N214 1.365 . S
N215 H235 0.862 . S
C216 C211 1.501 . S
C216 H217 0.961 . S
C216 H218 0.961 . S
C216 H219 0.960 . S
H217 C216 0.961 . S
H218 C216 0.961 . S
H219 C216 0.960 . S
C220 N221 1.342 . S
C220 C224 1.401 . S
C220 C225 1.499 . S
N221 Co204 1.989 . S
N221 C220 1.342 . S
N221 N222 1.388 . S
N222 Co205 1.993 . S
N222 N221 1.388 . S
N222 C223 1.346 . S
C223 N222 1.346 . S
C223 C224 1.396 . S
C223 C233 1.510 . S
C224 C220 1.401 . S
C224 C223 1.396 . S
C225 C220 1.499 . S
C225 H226 0.959 . S
C225 H227 0.960 . S
C225 H228 0.961 . S
H226 C225 0.959 . S
H227 C225 0.960 . S
H228 C225 0.961 . S
O229 Co204 1.967 . S
O229 C237 1.258 . S
O230 Co205 1.941 . S
O230 C237 1.266 . S
H231 C233 0.959 . S
H232 C233 0.961 . S
C233 C223 1.510 . S
C233 H231 0.959 . S
C233 H232 0.961 . S
C233 H234 0.960 . S
H234 C233 0.960 . S
H235 N215 0.862 . S
O236 Co204 1.920 . S
O236 C209 1.289 . S
C237 O229 1.258 . S
C237 O230 1.266 . S
Co238 O241 1.970 . S
Co238 N255 1.989 . S
Co238 O263 1.967 . S
Co238 O270 1.920 . S
Co239 O242 1.966 . S
Co239 N248 2.022 . S
Co239 N256 1.993 . S
Co239 O264 1.941 . S
C240 O241 1.258 . S
C240 O242 1.263 . S
O241 Co238 1.970 . S
O241 C240 1.258 . S
O242 Co239 1.966 . S
O242 C240 1.263 . S
C243 O244 1.235 . S
C243 O270 1.289 . S
O244 C243 1.235 . S
C245 C247 1.400 . S
C245 N248 1.351 . S
C245 C250 1.501 . S
C246 C247 1.387 . S
C246 N249 1.341 . S
C247 C245 1.400 . S
C247 C246 1.387 . S
N248 Co239 2.022 . S
N248 C245 1.351 . S
N248 N249 1.365 . S
N249 C246 1.341 . S
N249 N248 1.365 . S
N249 H269 0.862 . S
C250 C245 1.501 . S
C250 H251 0.961 . S
C250 H252 0.961 . S
C250 H253 0.960 . S
H251 C250 0.961 . S
H252 C250 0.961 . S
H253 C250 0.960 . S
C254 N255 1.342 . S
C254 C258 1.401 . S
C254 C259 1.499 . S
N255 Co238 1.989 . S
N255 C254 1.342 . S
N255 N256 1.388 . S
N256 Co239 1.993 . S
N256 N255 1.388 . S
N256 C257 1.346 . S
C257 N256 1.346 . S
C257 C258 1.396 . S
C257 C267 1.510 . S
C258 C254 1.401 . S
C258 C257 1.396 . S
C259 C254 1.499 . S
C259 H260 0.959 . S
C259 H261 0.960 . S
C259 H262 0.961 . S
H260 C259 0.959 . S
H261 C259 0.960 . S
H262 C259 0.961 . S
O263 Co238 1.967 . S
O263 C271 1.258 . S
O264 Co239 1.941 . S
O264 C271 1.266 . S
H265 C267 0.959 . S
H266 C267 0.961 . S
C267 C257 1.510 . S
C267 H265 0.959 . S
C267 H266 0.961 . S
C267 H268 0.960 . S
H268 C267 0.960 . S
H269 N249 0.862 . S
O270 Co238 1.920 . S
O270 C243 1.289 . S
C271 O263 1.258 . S
C271 O264 1.266 . S
Co272 O275 1.970 . S
Co272 N289 1.989 . S
Co272 O297 1.967 . S
Co272 O304 1.920 . S
Co273 O276 1.966 . S
Co273 N282 2.022 . S
Co273 N290 1.993 . S
Co273 O298 1.941 . S
C274 O275 1.258 . S
C274 O276 1.263 . S
O275 Co272 1.970 . S
O275 C274 1.258 . S
O276 Co273 1.966 . S
O276 C274 1.263 . S
C277 O278 1.235 . S
C277 O304 1.289 . S
O278 C277 1.235 . S
C279 C281 1.400 . S
C279 N282 1.351 . S
C279 C284 1.501 . S
C280 C281 1.387 . S
C280 N283 1.341 . S
C281 C279 1.400 . S
C281 C280 1.387 . S
N282 Co273 2.022 . S
N282 C279 1.351 . S
N282 N283 1.365 . S
N283 C280 1.341 . S
N283 N282 1.365 . S
N283 H303 0.862 . S
C284 C279 1.501 . S
C284 H285 0.961 . S
C284 H286 0.961 . S
C284 H287 0.960 . S
H285 C284 0.961 . S
H286 C284 0.961 . S
H287 C284 0.960 . S
C288 N289 1.342 . S
C288 C292 1.401 . S
C288 C293 1.499 . S
N289 Co272 1.989 . S
N289 C288 1.342 . S
N289 N290 1.388 . S
N290 Co273 1.993 . S
N290 N289 1.388 . S
N290 C291 1.346 . S
C291 N290 1.346 . S
C291 C292 1.396 . S
C291 C301 1.510 . S
C292 C288 1.401 . S
C292 C291 1.396 . S
C293 C288 1.499 . S
C293 H294 0.959 . S
C293 H295 0.960 . S
C293 H296 0.961 . S
H294 C293 0.959 . S
H295 C293 0.960 . S
H296 C293 0.961 . S
O297 Co272 1.967 . S
O297 C305 1.258 . S
O298 Co273 1.941 . S
O298 C305 1.266 . S
H299 C301 0.959 . S
H300 C301 0.961 . S
C301 C291 1.510 . S
C301 H299 0.959 . S
C301 H300 0.961 . S
C301 H302 0.960 . S
H302 C301 0.960 . S
H303 N283 0.862 . S
O304 Co272 1.920 . S
O304 C277 1.289 . S
C305 O297 1.258 . S
C305 O298 1.266 . S
Co306 O309 1.970 . S
Co306 N323 1.989 . S
Co306 O331 1.967 . S
Co306 O338 1.920 . S
Co307 O310 1.966 . S
Co307 N316 2.022 . S
Co307 N324 1.993 . S
Co307 O332 1.941 . S
C308 O309 1.258 . S
C308 O310 1.263 . S
O309 Co306 1.970 . S
O309 C308 1.258 . S
O310 Co307 1.966 . S
O310 C308 1.263 . S
C311 O312 1.235 . S
C311 O338 1.289 . S
O312 C311 1.235 . S
C313 C315 1.400 . S
C313 N316 1.351 . S
C313 C318 1.501 . S
C314 C315 1.387 . S
C314 N317 1.341 . S
C315 C313 1.400 . S
C315 C314 1.387 . S
N316 Co307 2.022 . S
N316 C313 1.351 . S
N316 N317 1.365 . S
N317 C314 1.341 . S
N317 N316 1.365 . S
N317 H337 0.862 . S
C318 C313 1.501 . S
C318 H319 0.961 . S
C318 H320 0.961 . S
C318 H321 0.960 . S
H319 C318 0.961 . S
H320 C318 0.961 . S
H321 C318 0.960 . S
C322 N323 1.342 . S
C322 C326 1.401 . S
C322 C327 1.499 . S
N323 Co306 1.989 . S
N323 C322 1.342 . S
N323 N324 1.388 . S
N324 Co307 1.993 . S
N324 N323 1.388 . S
N324 C325 1.346 . S
C325 N324 1.346 . S
C325 C326 1.396 . S
C325 C335 1.510 . S
C326 C322 1.401 . S
C326 C325 1.396 . S
C327 C322 1.499 . S
C327 H328 0.959 . S
C327 H329 0.960 . S
C327 H330 0.961 . S
H328 C327 0.959 . S
H329 C327 0.960 . S
H330 C327 0.961 . S
O331 Co306 1.967 . S
O331 C339 1.258 . S
O332 Co307 1.941 . S
O332 C339 1.266 . S
H333 C335 0.959 . S
H334 C335 0.961 . S
C335 C325 1.510 . S
C335 H333 0.959 . S
C335 H334 0.961 . S
C335 H336 0.960 . S
H336 C335 0.960 . S
H337 N317 0.862 . S
O338 Co306 1.920 . S
O338 C311 1.289 . S
C339 O331 1.258 . S
C339 O332 1.266 . S
Co340 O343 1.970 . S
Co340 N357 1.989 . S
Co340 O365 1.967 . S
Co340 O372 1.920 . S
Co341 O344 1.966 . S
Co341 N350 2.022 . S
Co341 N358 1.993 . S
Co341 O366 1.941 . S
C342 O343 1.258 . S
C342 O344 1.263 . S
O343 Co340 1.970 . S
O343 C342 1.258 . S
O344 Co341 1.966 . S
O344 C342 1.263 . S
C345 O346 1.235 . S
C345 O372 1.289 . S
O346 C345 1.235 . S
C347 C349 1.400 . S
C347 N350 1.351 . S
C347 C352 1.501 . S
C348 C349 1.387 . S
C348 N351 1.341 . S
C349 C347 1.400 . S
C349 C348 1.387 . S
N350 Co341 2.022 . S
N350 C347 1.351 . S
N350 N351 1.365 . S
N351 C348 1.341 . S
N351 N350 1.365 . S
N351 H371 0.862 . S
C352 C347 1.501 . S
C352 H353 0.961 . S
C352 H354 0.961 . S
C352 H355 0.960 . S
H353 C352 0.961 . S
H354 C352 0.961 . S
H355 C352 0.960 . S
C356 N357 1.342 . S
C356 C360 1.401 . S
C356 C361 1.499 . S
N357 Co340 1.989 . S
N357 C356 1.342 . S
N357 N358 1.388 . S
N358 Co341 1.993 . S
N358 N357 1.388 . S
N358 C359 1.346 . S
C359 N358 1.346 . S
C359 C360 1.396 . S
C359 C369 1.510 . S
C360 C356 1.401 . S
C360 C359 1.396 . S
C361 C356 1.499 . S
C361 H362 0.959 . S
C361 H363 0.960 . S
C361 H364 0.961 . S
H362 C361 0.959 . S
H363 C361 0.960 . S
H364 C361 0.961 . S
O365 Co340 1.967 . S
O365 C373 1.258 . S
O366 Co341 1.941 . S
O366 C373 1.266 . S
H367 C369 0.959 . S
H368 C369 0.961 . S
C369 C359 1.510 . S
C369 H367 0.959 . S
C369 H368 0.961 . S
C369 H370 0.960 . S
H370 C369 0.960 . S
H371 N351 0.862 . S
O372 Co340 1.920 . S
O372 C345 1.289 . S
C373 O365 1.258 . S
C373 O366 1.266 . S
Co374 O377 1.970 . S
Co374 N391 1.989 . S
Co374 O399 1.967 . S
Co374 O406 1.920 . S
Co375 O378 1.966 . S
Co375 N384 2.022 . S
Co375 N392 1.993 . S
Co375 O400 1.941 . S
C376 O377 1.258 . S
C376 O378 1.263 . S
O377 Co374 1.970 . S
O377 C376 1.258 . S
O378 Co375 1.966 . S
O378 C376 1.263 . S
C379 O380 1.235 . S
C379 O406 1.289 . S
O380 C379 1.235 . S
C381 C383 1.400 . S
C381 N384 1.351 . S
C381 C386 1.501 . S
C382 C383 1.387 . S
C382 N385 1.341 . S
C383 C381 1.400 . S
C383 C382 1.387 . S
N384 Co375 2.022 . S
N384 C381 1.351 . S
N384 N385 1.365 . S
N385 C382 1.341 . S
N385 N384 1.365 . S
N385 H405 0.862 . S
C386 C381 1.501 . S
C386 H387 0.961 . S
C386 H388 0.961 . S
C386 H389 0.960 . S
H387 C386 0.961 . S
H388 C386 0.961 . S
H389 C386 0.960 . S
C390 N391 1.342 . S
C390 C394 1.401 . S
C390 C395 1.499 . S
N391 Co374 1.989 . S
N391 C390 1.342 . S
N391 N392 1.388 . S
N392 Co375 1.993 . S
N392 N391 1.388 . S
N392 C393 1.346 . S
C393 N392 1.346 . S
C393 C394 1.396 . S
C393 C403 1.510 . S
C394 C390 1.401 . S
C394 C393 1.396 . S
C395 C390 1.499 . S
C395 H396 0.959 . S
C395 H397 0.960 . S
C395 H398 0.961 . S
H396 C395 0.959 . S
H397 C395 0.960 . S
H398 C395 0.961 . S
O399 Co374 1.967 . S
O399 C407 1.258 . S
O400 Co375 1.941 . S
O400 C407 1.266 . S
H401 C403 0.959 . S
H402 C403 0.961 . S
C403 C393 1.510 . S
C403 H401 0.959 . S
C403 H402 0.961 . S
C403 H404 0.960 . S
H404 C403 0.960 . S
H405 N385 0.862 . S
O406 Co374 1.920 . S
O406 C379 1.289 . S
C407 O399 1.258 . S
C407 O400 1.266 . S
C408 C409 1.349 . S
C408 C410 1.327 . S
C408 H433 0.950 . S
C409 C408 1.349 . S
C409 C425 1.349 . S
C410 C408 1.327 . S
C410 C429 1.429 . S
C410 H434 0.950 . S
C411 C428 1.574 . S
C411 C430 1.368 . S
C411 H435 0.949 . S
H412 C416 0.949 . S
C413 C414 1.349 . S
C413 C415 1.327 . S
C413 H436 0.950 . S
C414 C413 1.349 . S
C414 C426 1.349 . S
C415 C413 1.327 . S
C415 C431 1.429 . S
C415 H437 0.950 . S
C416 H412 0.949 . S
C416 C424 1.574 . S
C416 C432 1.368 . S
H417 C425 0.950 . S
H418 C423 0.950 . S
H419 C424 0.949 . S
H420 C426 0.950 . S
H421 C427 0.950 . S
H422 C428 0.949 . S
C423 H418 0.950 . S
C423 C425 1.327 . S
C423 C429 1.429 . S
C424 C416 1.574 . S
C424 H419 0.949 . S
C424 C430 1.368 . S
C425 C409 1.349 . S
C425 H417 0.950 . S
C425 C423 1.327 . S
C426 C414 1.349 . S
C426 H420 0.950 . S
C426 C427 1.327 . S
C427 H421 0.950 . S
C427 C426 1.327 . S
C427 C431 1.429 . S
C428 C411 1.574 . S
C428 H422 0.949 . S
C428 C432 1.368 . S
C429 C410 1.429 . S
C429 C423 1.429 . S
C429 C430 1.523 . S
C430 C411 1.368 . S
C430 C424 1.368 . S
C430 C429 1.523 . S
C431 C415 1.429 . S
C431 C427 1.429 . S
C431 C432 1.523 . S
C432 C416 1.368 . S
C432 C428 1.368 . S
C432 C431 1.523 . S
H433 C408 0.950 . S
H434 C410 0.950 . S
H435 C411 0.949 . S
H436 C413 0.950 . S
H437 C415 0.950 . S
C438 C439 1.349 . S
C438 C440 1.327 . S
C438 H463 0.950 . S
C439 C438 1.349 . S
C439 C455 1.349 . S
C440 C438 1.327 . S
C440 C459 1.429 . S
C440 H464 0.950 . S
C441 C458 1.574 . S
C441 C460 1.368 . S
C441 H465 0.949 . S
H442 C446 0.949 . S
C443 C444 1.349 . S
C443 C445 1.327 . S
C443 H466 0.950 . S
C444 C443 1.349 . S
C444 C456 1.349 . S
C445 C443 1.327 . S
C445 C461 1.429 . S
C445 H467 0.950 . S
C446 H442 0.949 . S
C446 C454 1.574 . S
C446 C462 1.368 . S
H447 C455 0.950 . S
H448 C453 0.950 . S
H449 C454 0.949 . S
H450 C456 0.950 . S
H451 C457 0.950 . S
H452 C458 0.949 . S
C453 H448 0.950 . S
C453 C455 1.327 . S
C453 C459 1.429 . S
C454 C446 1.574 . S
C454 H449 0.949 . S
C454 C460 1.368 . S
C455 C439 1.349 . S
C455 H447 0.950 . S
C455 C453 1.327 . S
C456 C444 1.349 . S
C456 H450 0.950 . S
C456 C457 1.327 . S
C457 H451 0.950 . S
C457 C456 1.327 . S
C457 C461 1.429 . S
C458 C441 1.574 . S
C458 H452 0.949 . S
C458 C462 1.368 . S
C459 C440 1.429 . S
C459 C453 1.429 . S
C459 C460 1.523 . S
C460 C441 1.368 . S
C460 C454 1.368 . S
C460 C459 1.523 . S
C461 C445 1.429 . S
C461 C457 1.429 . S
C461 C462 1.523 . S
C462 C446 1.368 . S
C462 C458 1.368 . S
C462 C461 1.523 . S
H463 C438 0.950 . S
H464 C440 0.950 . S
H465 C441 0.949 . S
H466 C443 0.950 . S
H467 C445 0.950 . S
C468 C469 1.349 . S
C468 C470 1.327 . S
C468 H493 0.950 . S
C469 C468 1.349 . S
C469 C485 1.349 . S
C470 C468 1.327 . S
C470 C489 1.429 . S
C470 H494 0.950 . S
C471 C488 1.574 . S
C471 C490 1.368 . S
C471 H495 0.949 . S
H472 C476 0.949 . S
C473 C474 1.349 . S
C473 C475 1.327 . S
C473 H496 0.950 . S
C474 C473 1.349 . S
C474 C486 1.349 . S
C475 C473 1.327 . S
C475 C491 1.429 . S
C475 H497 0.950 . S
C476 H472 0.949 . S
C476 C484 1.574 . S
C476 C492 1.368 . S
H477 C485 0.950 . S
H478 C483 0.950 . S
H479 C484 0.949 . S
H480 C486 0.950 . S
H481 C487 0.950 . S
H482 C488 0.949 . S
C483 H478 0.950 . S
C483 C485 1.327 . S
C483 C489 1.429 . S
C484 C476 1.574 . S
C484 H479 0.949 . S
C484 C490 1.368 . S
C485 C469 1.349 . S
C485 H477 0.950 . S
C485 C483 1.327 . S
C486 C474 1.349 . S
C486 H480 0.950 . S
C486 C487 1.327 . S
C487 H481 0.950 . S
C487 C486 1.327 . S
C487 C491 1.429 . S
C488 C471 1.574 . S
C488 H482 0.949 . S
C488 C492 1.368 . S
C489 C470 1.429 . S
C489 C483 1.429 . S
C489 C490 1.523 . S
C490 C471 1.368 . S
C490 C484 1.368 . S
C490 C489 1.523 . S
C491 C475 1.429 . S
C491 C487 1.429 . S
C491 C492 1.523 . S
C492 C476 1.368 . S
C492 C488 1.368 . S
C492 C491 1.523 . S
H493 C468 0.950 . S
H494 C470 0.950 . S
H495 C471 0.949 . S
H496 C473 0.950 . S
H497 C475 0.950 . S
C498 C499 1.349 . S
C498 C500 1.327 . S
C498 H523 0.950 . S
C499 C498 1.349 . S
C499 C515 1.349 . S
C500 C498 1.327 . S
C500 C519 1.429 . S
C500 H524 0.950 . S
C501 C518 1.574 . S
C501 C520 1.368 . S
C501 H525 0.949 . S
H502 C506 0.949 . S
C503 C504 1.349 . S
C503 C505 1.327 . S
C503 H526 0.950 . S
C504 C503 1.349 . S
C504 C516 1.349 . S
C505 C503 1.327 . S
C505 C521 1.429 . S
C505 H527 0.950 . S
C506 H502 0.949 . S
C506 C514 1.574 . S
C506 C522 1.368 . S
H507 C515 0.950 . S
H508 C513 0.950 . S
H509 C514 0.949 . S
H510 C516 0.950 . S
H511 C517 0.950 . S
H512 C518 0.949 . S
C513 H508 0.950 . S
C513 C515 1.327 . S
C513 C519 1.429 . S
C514 C506 1.574 . S
C514 H509 0.949 . S
C514 C520 1.368 . S
C515 C499 1.349 . S
C515 H507 0.950 . S
C515 C513 1.327 . S
C516 C504 1.349 . S
C516 H510 0.950 . S
C516 C517 1.327 . S
C517 H511 0.950 . S
C517 C516 1.327 . S
C517 C521 1.429 . S
C518 C501 1.574 . S
C518 H512 0.949 . S
C518 C522 1.368 . S
C519 C500 1.429 . S
C519 C513 1.429 . S
C519 C520 1.523 . S
C520 C501 1.368 . S
C520 C514 1.368 . S
C520 C519 1.523 . S
C521 C505 1.429 . S
C521 C517 1.429 . S
C521 C522 1.523 . S
C522 C506 1.368 . S
C522 C518 1.368 . S
C522 C521 1.523 . S
H523 C498 0.950 . S
H524 C500 0.950 . S
H525 C501 0.949 . S
H526 C503 0.950 . S
H527 C505 0.950 . S
C528 C529 1.349 . S
C528 C530 1.327 . S
C528 H553 0.950 . S
C529 C528 1.349 . S
C529 C545 1.349 . S
C530 C528 1.327 . S
C530 C549 1.429 . S
C530 H554 0.950 . S
C531 C548 1.574 . S
C531 C550 1.368 . S
C531 H555 0.949 . S
H532 C536 0.949 . S
C533 C534 1.349 . S
C533 C535 1.327 . S
C533 H556 0.950 . S
C534 C533 1.349 . S
C534 C546 1.349 . S
C535 C533 1.327 . S
C535 C551 1.429 . S
C535 H557 0.950 . S
C536 H532 0.949 . S
C536 C544 1.574 . S
C536 C552 1.368 . S
H537 C545 0.950 . S
H538 C543 0.950 . S
H539 C544 0.949 . S
H540 C546 0.950 . S
H541 C547 0.950 . S
H542 C548 0.949 . S
C543 H538 0.950 . S
C543 C545 1.327 . S
C543 C549 1.429 . S
C544 C536 1.574 . S
C544 H539 0.949 . S
C544 C550 1.368 . S
C545 C529 1.349 . S
C545 H537 0.950 . S
C545 C543 1.327 . S
C546 C534 1.349 . S
C546 H540 0.950 . S
C546 C547 1.327 . S
C547 H541 0.950 . S
C547 C546 1.327 . S
C547 C551 1.429 . S
C548 C531 1.574 . S
C548 H542 0.949 . S
C548 C552 1.368 . S
C549 C530 1.429 . S
C549 C543 1.429 . S
C549 C550 1.523 . S
C550 C531 1.368 . S
C550 C544 1.368 . S
C550 C549 1.523 . S
C551 C535 1.429 . S
C551 C547 1.429 . S
C551 C552 1.523 . S
C552 C536 1.368 . S
C552 C548 1.368 . S
C552 C551 1.523 . S
H553 C528 0.950 . S
H554 C530 0.950 . S
H555 C531 0.949 . S
H556 C533 0.950 . S
H557 C535 0.950 . S
C558 C559 1.349 . S
C558 C560 1.327 . S
C558 H583 0.950 . S
C559 C558 1.349 . S
C559 C575 1.349 . S
C560 C558 1.327 . S
C560 C579 1.429 . S
C560 H584 0.950 . S
C561 C578 1.574 . S
C561 C580 1.368 . S
C561 H585 0.949 . S
H562 C566 0.949 . S
C563 C564 1.349 . S
C563 C565 1.327 . S
C563 H586 0.950 . S
C564 C563 1.349 . S
C564 C576 1.349 . S
C565 C563 1.327 . S
C565 C581 1.429 . S
C565 H587 0.950 . S
C566 H562 0.949 . S
C566 C574 1.574 . S
C566 C582 1.368 . S
H567 C575 0.950 . S
H568 C573 0.950 . S
H569 C574 0.949 . S
H570 C576 0.950 . S
H571 C577 0.950 . S
H572 C578 0.949 . S
C573 H568 0.950 . S
C573 C575 1.327 . S
C573 C579 1.429 . S
C574 C566 1.574 . S
C574 H569 0.949 . S
C574 C580 1.368 . S
C575 C559 1.349 . S
C575 H567 0.950 . S
C575 C573 1.327 . S
C576 C564 1.349 . S
C576 H570 0.950 . S
C576 C577 1.327 . S
C577 H571 0.950 . S
C577 C576 1.327 . S
C577 C581 1.429 . S
C578 C561 1.574 . S
C578 H572 0.949 . S
C578 C582 1.368 . S
C579 C560 1.429 . S
C579 C573 1.429 . S
C579 C580 1.523 . S
C580 C561 1.368 . S
C580 C574 1.368 . S
C580 C579 1.523 . S
C581 C565 1.429 . S
C581 C577 1.429 . S
C581 C582 1.523 . S
C582 C566 1.368 . S
C582 C578 1.368 . S
C582 C581 1.523 . S
H583 C558 0.950 . S
H584 C560 0.950 . S
H585 C561 0.949 . S
H586 C563 0.950 . S
H587 C565 0.950 . S
C588 C589 1.349 . S
C588 C590 1.327 . S
C588 H613 0.950 . S
C589 C588 1.349 . S
C589 C605 1.349 . S
C590 C588 1.327 . S
C590 C609 1.429 . S
C590 H614 0.950 . S
C591 C608 1.574 . S
C591 C610 1.368 . S
C591 H615 0.949 . S
H592 C596 0.949 . S
C593 C594 1.349 . S
C593 C595 1.327 . S
C593 H616 0.950 . S
C594 C593 1.349 . S
C594 C606 1.349 . S
C595 C593 1.327 . S
C595 C611 1.429 . S
C595 H617 0.950 . S
C596 H592 0.949 . S
C596 C604 1.574 . S
C596 C612 1.368 . S
H597 C605 0.950 . S
H598 C603 0.950 . S
H599 C604 0.949 . S
H600 C606 0.950 . S
H601 C607 0.950 . S
H602 C608 0.949 . S
C603 H598 0.950 . S
C603 C605 1.327 . S
C603 C609 1.429 . S
C604 C596 1.574 . S
C604 H599 0.949 . S
C604 C610 1.368 . S
C605 C589 1.349 . S
C605 H597 0.950 . S
C605 C603 1.327 . S
C606 C594 1.349 . S
C606 H600 0.950 . S
C606 C607 1.327 . S
C607 H601 0.950 . S
C607 C606 1.327 . S
C607 C611 1.429 . S
C608 C591 1.574 . S
C608 H602 0.949 . S
C608 C612 1.368 . S
C609 C590 1.429 . S
C609 C603 1.429 . S
C609 C610 1.523 . S
C610 C591 1.368 . S
C610 C604 1.368 . S
C610 C609 1.523 . S
C611 C595 1.429 . S
C611 C607 1.429 . S
C611 C612 1.523 . S
C612 C596 1.368 . S
C612 C608 1.368 . S
C612 C611 1.523 . S
H613 C588 0.950 . S
H614 C590 0.950 . S
H615 C591 0.949 . S
H616 C593 0.950 . S
H617 C595 0.950 . S
C618 C619 1.349 . S
C618 C620 1.327 . S
C618 H643 0.950 . S
C619 C618 1.349 . S
C619 C635 1.349 . S
C620 C618 1.327 . S
C620 C639 1.429 . S
C620 H644 0.950 . S
C621 C638 1.574 . S
C621 C640 1.368 . S
C621 H645 0.949 . S
H622 C626 0.949 . S
C623 C624 1.349 . S
C623 C625 1.327 . S
C623 H646 0.950 . S
C624 C623 1.349 . S
C624 C636 1.349 . S
C625 C623 1.327 . S
C625 C641 1.429 . S
C625 H647 0.950 . S
C626 H622 0.949 . S
C626 C634 1.574 . S
C626 C642 1.368 . S
H627 C635 0.950 . S
H628 C633 0.950 . S
H629 C634 0.949 . S
H630 C636 0.950 . S
H631 C637 0.950 . S
H632 C638 0.949 . S
C633 H628 0.950 . S
C633 C635 1.327 . S
C633 C639 1.429 . S
C634 C626 1.574 . S
C634 H629 0.949 . S
C634 C640 1.368 . S
C635 C619 1.349 . S
C635 H627 0.950 . S
C635 C633 1.327 . S
C636 C624 1.349 . S
C636 H630 0.950 . S
C636 C637 1.327 . S
C637 H631 0.950 . S
C637 C636 1.327 . S
C637 C641 1.429 . S
C638 C621 1.574 . S
C638 H632 0.949 . S
C638 C642 1.368 . S
C639 C620 1.429 . S
C639 C633 1.429 . S
C639 C640 1.523 . S
C640 C621 1.368 . S
C640 C634 1.368 . S
C640 C639 1.523 . S
C641 C625 1.429 . S
C641 C637 1.429 . S
C641 C642 1.523 . S
C642 C626 1.368 . S
C642 C638 1.368 . S
C642 C641 1.523 . S
H643 C618 0.950 . S
H644 C620 0.950 . S
H645 C621 0.949 . S
H646 C623 0.950 . S
H647 C625 0.950 . S
C648 C649 1.349 . S
C648 C650 1.327 . S
C648 H673 0.950 . S
C649 C648 1.349 . S
C649 C665 1.349 . S
C650 C648 1.327 . S
C650 C669 1.429 . S
C650 H674 0.950 . S
C651 C668 1.574 . S
C651 C670 1.368 . S
C651 H675 0.949 . S
H652 C656 0.949 . S
C653 C654 1.349 . S
C653 C655 1.327 . S
C653 H676 0.950 . S
C654 C653 1.349 . S
C654 C666 1.349 . S
C655 C653 1.327 . S
C655 C671 1.429 . S
C655 H677 0.950 . S
C656 H652 0.949 . S
C656 C664 1.574 . S
C656 C672 1.368 . S
H657 C665 0.950 . S
H658 C663 0.950 . S
H659 C664 0.949 . S
H660 C666 0.950 . S
H661 C667 0.950 . S
H662 C668 0.949 . S
C663 H658 0.950 . S
C663 C665 1.327 . S
C663 C669 1.429 . S
C664 C656 1.574 . S
C664 H659 0.949 . S
C664 C670 1.368 . S
C665 C649 1.349 . S
C665 H657 0.950 . S
C665 C663 1.327 . S
C666 C654 1.349 . S
C666 H660 0.950 . S
C666 C667 1.327 . S
C667 H661 0.950 . S
C667 C666 1.327 . S
C667 C671 1.429 . S
C668 C651 1.574 . S
C668 H662 0.949 . S
C668 C672 1.368 . S
C669 C650 1.429 . S
C669 C663 1.429 . S
C669 C670 1.523 . S
C670 C651 1.368 . S
C670 C664 1.368 . S
C670 C669 1.523 . S
C671 C655 1.429 . S
C671 C667 1.429 . S
C671 C672 1.523 . S
C672 C656 1.368 . S
C672 C668 1.368 . S
C672 C671 1.523 . S
H673 C648 0.950 . S
H674 C650 0.950 . S
H675 C651 0.949 . S
H676 C653 0.950 . S
H677 C655 0.950 . S
C678 C679 1.349 . S
C678 C680 1.327 . S
C678 H703 0.950 . S
C679 C678 1.349 . S
C679 C695 1.349 . S
C680 C678 1.327 . S
C680 C699 1.429 . S
C680 H704 0.950 . S
C681 C698 1.574 . S
C681 C700 1.368 . S
C681 H705 0.949 . S
H682 C686 0.949 . S
C683 C684 1.349 . S
C683 C685 1.327 . S
C683 H706 0.950 . S
C684 C683 1.349 . S
C684 C696 1.349 . S
C685 C683 1.327 . S
C685 C701 1.429 . S
C685 H707 0.950 . S
C686 H682 0.949 . S
C686 C694 1.574 . S
C686 C702 1.368 . S
H687 C695 0.950 . S
H688 C693 0.950 . S
H689 C694 0.949 . S
H690 C696 0.950 . S
H691 C697 0.950 . S
H692 C698 0.949 . S
C693 H688 0.950 . S
C693 C695 1.327 . S
C693 C699 1.429 . S
C694 C686 1.574 . S
C694 H689 0.949 . S
C694 C700 1.368 . S
C695 C679 1.349 . S
C695 H687 0.950 . S
C695 C693 1.327 . S
C696 C684 1.349 . S
C696 H690 0.950 . S
C696 C697 1.327 . S
C697 H691 0.950 . S
C697 C696 1.327 . S
C697 C701 1.429 . S
C698 C681 1.574 . S
C698 H692 0.949 . S
C698 C702 1.368 . S
C699 C680 1.429 . S
C699 C693 1.429 . S
C699 C700 1.523 . S
C700 C681 1.368 . S
C700 C694 1.368 . S
C700 C699 1.523 . S
C701 C685 1.429 . S
C701 C697 1.429 . S
C701 C702 1.523 . S
C702 C686 1.368 . S
C702 C698 1.368 . S
C702 C701 1.523 . S
H703 C678 0.950 . S
H704 C680 0.950 . S
H705 C681 0.949 . S
H706 C683 0.950 . S
H707 C685 0.950 . S
C708 C709 1.349 . S
C708 C710 1.327 . S
C708 H733 0.950 . S
C709 C708 1.349 . S
C709 C725 1.349 . S
C710 C708 1.327 . S
C710 C729 1.429 . S
C710 H734 0.950 . S
C711 C728 1.574 . S
C711 C730 1.368 . S
C711 H735 0.949 . S
H712 C716 0.949 . S
C713 C714 1.349 . S
C713 C715 1.327 . S
C713 H736 0.950 . S
C714 C713 1.349 . S
C714 C726 1.349 . S
C715 C713 1.327 . S
C715 C731 1.429 . S
C715 H737 0.950 . S
C716 H712 0.949 . S
C716 C724 1.574 . S
C716 C732 1.368 . S
H717 C725 0.950 . S
H718 C723 0.950 . S
H719 C724 0.949 . S
H720 C726 0.950 . S
H721 C727 0.950 . S
H722 C728 0.949 . S
C723 H718 0.950 . S
C723 C725 1.327 . S
C723 C729 1.429 . S
C724 C716 1.574 . S
C724 H719 0.949 . S
C724 C730 1.368 . S
C725 C709 1.349 . S
C725 H717 0.950 . S
C725 C723 1.327 . S
C726 C714 1.349 . S
C726 H720 0.950 . S
C726 C727 1.327 . S
C727 H721 0.950 . S
C727 C726 1.327 . S
C727 C731 1.429 . S
C728 C711 1.574 . S
C728 H722 0.949 . S
C728 C732 1.368 . S
C729 C710 1.429 . S
C729 C723 1.429 . S
C729 C730 1.523 . S
C730 C711 1.368 . S
C730 C724 1.368 . S
C730 C729 1.523 . S
C731 C715 1.429 . S
C731 C727 1.429 . S
C731 C732 1.523 . S
C732 C716 1.368 . S
C732 C728 1.368 . S
C732 C731 1.523 . S
H733 C708 0.950 . S
H734 C710 0.950 . S
H735 C711 0.949 . S
H736 C713 0.950 . S
H737 C715 0.950 . S
C738 C739 1.349 . S
C738 C740 1.327 . S
C738 H763 0.950 . S
C739 C738 1.349 . S
C739 C755 1.349 . S
C740 C738 1.327 . S
C740 C759 1.429 . S
C740 H764 0.950 . S
C741 C758 1.574 . S
C741 C760 1.368 . S
C741 H765 0.949 . S
H742 C746 0.949 . S
C743 C744 1.349 . S
C743 C745 1.327 . S
C743 H766 0.950 . S
C744 C743 1.349 . S
C744 C756 1.349 . S
C745 C743 1.327 . S
C745 C761 1.429 . S
C745 H767 0.950 . S
C746 H742 0.949 . S
C746 C754 1.574 . S
C746 C762 1.368 . S
H747 C755 0.950 . S
H748 C753 0.950 . S
H749 C754 0.949 . S
H750 C756 0.950 . S
H751 C757 0.950 . S
H752 C758 0.949 . S
C753 H748 0.950 . S
C753 C755 1.327 . S
C753 C759 1.429 . S
C754 C746 1.574 . S
C754 H749 0.949 . S
C754 C760 1.368 . S
C755 C739 1.349 . S
C755 H747 0.950 . S
C755 C753 1.327 . S
C756 C744 1.349 . S
C756 H750 0.950 . S
C756 C757 1.327 . S
C757 H751 0.950 . S
C757 C756 1.327 . S
C757 C761 1.429 . S
C758 C741 1.574 . S
C758 H752 0.949 . S
C758 C762 1.368 . S
C759 C740 1.429 . S
C759 C753 1.429 . S
C759 C760 1.523 . S
C760 C741 1.368 . S
C760 C754 1.368 . S
C760 C759 1.523 . S
C761 C745 1.429 . S
C761 C757 1.429 . S
C761 C762 1.523 . S
C762 C746 1.368 . S
C762 C758 1.368 . S
C762 C761 1.523 . S
H763 C738 0.950 . S
H764 C740 0.950 . S
H765 C741 0.949 . S
H766 C743 0.950 . S
H767 C745 0.950 . S
C768 C769 1.349 . S
C768 C770 1.327 . S
C768 H793 0.950 . S
C769 C768 1.349 . S
C769 C785 1.349 . S
C770 C768 1.327 . S
C770 C789 1.429 . S
C770 H794 0.950 . S
C771 C788 1.574 . S
C771 C790 1.368 . S
C771 H795 0.949 . S
H772 C776 0.949 . S
C773 C774 1.349 . S
C773 C775 1.327 . S
C773 H796 0.950 . S
C774 C773 1.349 . S
C774 C786 1.349 . S
C775 C773 1.327 . S
C775 C791 1.429 . S
C775 H797 0.950 . S
C776 H772 0.949 . S
C776 C784 1.574 . S
C776 C792 1.368 . S
H777 C785 0.950 . S
H778 C783 0.950 . S
H779 C784 0.949 . S
H780 C786 0.950 . S
H781 C787 0.950 . S
H782 C788 0.949 . S
C783 H778 0.950 . S
C783 C785 1.327 . S
C783 C789 1.429 . S
C784 C776 1.574 . S
C784 H779 0.949 . S
C784 C790 1.368 . S
C785 C769 1.349 . S
C785 H777 0.950 . S
C785 C783 1.327 . S
C786 C774 1.349 . S
C786 H780 0.950 . S
C786 C787 1.327 . S
C787 H781 0.950 . S
C787 C786 1.327 . S
C787 C791 1.429 . S
C788 C771 1.574 . S
C788 H782 0.949 . S
C788 C792 1.368 . S
C789 C770 1.429 . S
C789 C783 1.429 . S
C789 C790 1.523 . S
C790 C771 1.368 . S
C790 C784 1.368 . S
C790 C789 1.523 . S
C791 C775 1.429 . S
C791 C787 1.429 . S
C791 C792 1.523 . S
C792 C776 1.368 . S
C792 C788 1.368 . S
C792 C791 1.523 . S
H793 C768 0.950 . S
H794 C770 0.950 . S
H795 C771 0.949 . S
H796 C773 0.950 . S
H797 C775 0.950 . S
C798 C799 1.349 . S
C798 C800 1.327 . S
C798 H823 0.950 . S
C799 C798 1.349 . S
C799 C815 1.349 . S
C800 C798 1.327 . S
C800 C819 1.429 . S
C800 H824 0.950 . S
C801 C818 1.574 . S
C801 C820 1.368 . S
C801 H825 0.949 . S
H802 C806 0.949 . S
C803 C804 1.349 . S
C803 C805 1.327 . S
C803 H826 0.950 . S
C804 C803 1.349 . S
C804 C816 1.349 . S
C805 C803 1.327 . S
C805 C821 1.429 . S
C805 H827 0.950 . S
C806 H802 0.949 . S
C806 C814 1.574 . S
C806 C822 1.368 . S
H807 C815 0.950 . S
H808 C813 0.950 . S
H809 C814 0.949 . S
H810 C816 0.950 . S
H811 C817 0.950 . S
H812 C818 0.949 . S
C813 H808 0.950 . S
C813 C815 1.327 . S
C813 C819 1.429 . S
C814 C806 1.574 . S
C814 H809 0.949 . S
C814 C820 1.368 . S
C815 C799 1.349 . S
C815 H807 0.950 . S
C815 C813 1.327 . S
C816 C804 1.349 . S
C816 H810 0.950 . S
C816 C817 1.327 . S
C817 H811 0.950 . S
C817 C816 1.327 . S
C817 C821 1.429 . S
C818 C801 1.574 . S
C818 H812 0.949 . S
C818 C822 1.368 . S
C819 C800 1.429 . S
C819 C813 1.429 . S
C819 C820 1.523 . S
C820 C801 1.368 . S
C820 C814 1.368 . S
C820 C819 1.523 . S
C821 C805 1.429 . S
C821 C817 1.429 . S
C821 C822 1.523 . S
C822 C806 1.368 . S
C822 C818 1.368 . S
C822 C821 1.523 . S
H823 C798 0.950 . S
H824 C800 0.950 . S
H825 C801 0.949 . S
H826 C803 0.950 . S
H827 C805 0.950 . S
C828 C829 1.349 . S
C828 C830 1.327 . S
C828 H853 0.950 . S
C829 C828 1.349 . S
C829 C845 1.349 . S
C830 C828 1.327 . S
C830 C849 1.429 . S
C830 H854 0.950 . S
C831 C848 1.574 . S
C831 C850 1.368 . S
C831 H855 0.949 . S
H832 C836 0.949 . S
C833 C834 1.349 . S
C833 C835 1.327 . S
C833 H856 0.950 . S
C834 C833 1.349 . S
C834 C846 1.349 . S
C835 C833 1.327 . S
C835 C851 1.429 . S
C835 H857 0.950 . S
C836 H832 0.949 . S
C836 C844 1.574 . S
C836 C852 1.368 . S
H837 C845 0.950 . S
H838 C843 0.950 . S
H839 C844 0.949 . S
H840 C846 0.950 . S
H841 C847 0.950 . S
H842 C848 0.949 . S
C843 H838 0.950 . S
C843 C845 1.327 . S
C843 C849 1.429 . S
C844 C836 1.574 . S
C844 H839 0.949 . S
C844 C850 1.368 . S
C845 C829 1.349 . S
C845 H837 0.950 . S
C845 C843 1.327 . S
C846 C834 1.349 . S
C846 H840 0.950 . S
C846 C847 1.327 . S
C847 H841 0.950 . S
C847 C846 1.327 . S
C847 C851 1.429 . S
C848 C831 1.574 . S
C848 H842 0.949 . S
C848 C852 1.368 . S
C849 C830 1.429 . S
C849 C843 1.429 . S
C849 C850 1.523 . S
C850 C831 1.368 . S
C850 C844 1.368 . S
C850 C849 1.523 . S
C851 C835 1.429 . S
C851 C847 1.429 . S
C851 C852 1.523 . S
C852 C836 1.368 . S
C852 C848 1.368 . S
C852 C851 1.523 . S
H853 C828 0.950 . S
H854 C830 0.950 . S
H855 C831 0.949 . S
H856 C833 0.950 . S
H857 C835 0.950 . S
C858 C859 1.349 . S
C858 C860 1.327 . S
C858 H883 0.950 . S
C859 C858 1.349 . S
C859 C875 1.349 . S
C860 C858 1.327 . S
C860 C879 1.429 . S
C860 H884 0.950 . S
C861 C878 1.574 . S
C861 C880 1.368 . S
C861 H885 0.949 . S
H862 C866 0.949 . S
C863 C864 1.349 . S
C863 C865 1.327 . S
C863 H886 0.950 . S
C864 C863 1.349 . S
C864 C876 1.349 . S
C865 C863 1.327 . S
C865 C881 1.429 . S
C865 H887 0.950 . S
C866 H862 0.949 . S
C866 C874 1.574 . S
C866 C882 1.368 . S
H867 C875 0.950 . S
H868 C873 0.950 . S
H869 C874 0.949 . S
H870 C876 0.950 . S
H871 C877 0.950 . S
H872 C878 0.949 . S
C873 H868 0.950 . S
C873 C875 1.327 . S
C873 C879 1.429 . S
C874 C866 1.574 . S
C874 H869 0.949 . S
C874 C880 1.368 . S
C875 C859 1.349 . S
C875 H867 0.950 . S
C875 C873 1.327 . S
C876 C864 1.349 . S
C876 H870 0.950 . S
C876 C877 1.327 . S
C877 H871 0.950 . S
C877 C876 1.327 . S
C877 C881 1.429 . S
C878 C861 1.574 . S
C878 H872 0.949 . S
C878 C882 1.368 . S
C879 C860 1.429 . S
C879 C873 1.429 . S
C879 C880 1.523 . S
C880 C861 1.368 . S
C880 C874 1.368 . S
C880 C879 1.523 . S
C881 C865 1.429 . S
C881 C877 1.429 . S
C881 C882 1.523 . S
C882 C866 1.368 . S
C882 C878 1.368 . S
C882 C881 1.523 . S
H883 C858 0.950 . S
H884 C860 0.950 . S
H885 C861 0.949 . S
H886 C863 0.950 . S
H887 C865 0.950 . S
C888 C889 1.349 . S
C888 C890 1.327 . S
C888 H913 0.950 . S
C889 C888 1.349 . S
C889 C905 1.349 . S
C890 C888 1.327 . S
C890 C909 1.429 . S
C890 H914 0.950 . S
C891 C908 1.574 . S
C891 C910 1.368 . S
C891 H915 0.949 . S
H892 C896 0.949 . S
C893 C894 1.349 . S
C893 C895 1.327 . S
C893 H916 0.950 . S
C894 C893 1.349 . S
C894 C906 1.349 . S
C895 C893 1.327 . S
C895 C911 1.429 . S
C895 H917 0.950 . S
C896 H892 0.949 . S
C896 C904 1.574 . S
C896 C912 1.368 . S
H897 C905 0.950 . S
H898 C903 0.950 . S
H899 C904 0.949 . S
H900 C906 0.950 . S
H901 C907 0.950 . S
H902 C908 0.949 . S
C903 H898 0.950 . S
C903 C905 1.327 . S
C903 C909 1.429 . S
C904 C896 1.574 . S
C904 H899 0.949 . S
C904 C910 1.368 . S
C905 C889 1.349 . S
C905 H897 0.950 . S
C905 C903 1.327 . S
C906 C894 1.349 . S
C906 H900 0.950 . S
C906 C907 1.327 . S
C907 H901 0.950 . S
C907 C906 1.327 . S
C907 C911 1.429 . S
C908 C891 1.574 . S
C908 H902 0.949 . S
C908 C912 1.368 . S
C909 C890 1.429 . S
C909 C903 1.429 . S
C909 C910 1.523 . S
C910 C891 1.368 . S
C910 C904 1.368 . S
C910 C909 1.523 . S
C911 C895 1.429 . S
C911 C907 1.429 . S
C911 C912 1.523 . S
C912 C896 1.368 . S
C912 C908 1.368 . S
C912 C911 1.523 . S
H913 C888 0.950 . S
H914 C890 0.950 . S
H915 C891 0.949 . S
H916 C893 0.950 . S
H917 C895 0.950 . S
C918 C919 1.349 . S
C918 C920 1.327 . S
C918 H943 0.950 . S
C919 C918 1.349 . S
C919 C935 1.349 . S
C920 C918 1.327 . S
C920 C939 1.429 . S
C920 H944 0.950 . S
C921 C938 1.574 . S
C921 C940 1.368 . S
C921 H945 0.949 . S
H922 C926 0.949 . S
C923 C924 1.349 . S
C923 C925 1.327 . S
C923 H946 0.950 . S
C924 C923 1.349 . S
C924 C936 1.349 . S
C925 C923 1.327 . S
C925 C941 1.429 . S
C925 H947 0.950 . S
C926 H922 0.949 . S
C926 C934 1.574 . S
C926 C942 1.368 . S
H927 C935 0.950 . S
H928 C933 0.950 . S
H929 C934 0.949 . S
H930 C936 0.950 . S
H931 C937 0.950 . S
H932 C938 0.949 . S
C933 H928 0.950 . S
C933 C935 1.327 . S
C933 C939 1.429 . S
C934 C926 1.574 . S
C934 H929 0.949 . S
C934 C940 1.368 . S
C935 C919 1.349 . S
C935 H927 0.950 . S
C935 C933 1.327 . S
C936 C924 1.349 . S
C936 H930 0.950 . S
C936 C937 1.327 . S
C937 H931 0.950 . S
C937 C936 1.327 . S
C937 C941 1.429 . S
C938 C921 1.574 . S
C938 H932 0.949 . S
C938 C942 1.368 . S
C939 C920 1.429 . S
C939 C933 1.429 . S
C939 C940 1.523 . S
C940 C921 1.368 . S
C940 C934 1.368 . S
C940 C939 1.523 . S
C941 C925 1.429 . S
C941 C937 1.429 . S
C941 C942 1.523 . S
C942 C926 1.368 . S
C942 C938 1.368 . S
C942 C941 1.523 . S
H943 C918 0.950 . S
H944 C920 0.950 . S
H945 C921 0.949 . S
H946 C923 0.950 . S
H947 C925 0.950 . S
C948 C949 1.349 . S
C948 C950 1.327 . S
C948 H973 0.950 . S
C949 C948 1.349 . S
C949 C965 1.349 . S
C950 C948 1.327 . S
C950 C969 1.429 . S
C950 H974 0.950 . S
C951 C968 1.574 . S
C951 C970 1.368 . S
C951 H975 0.949 . S
H952 C956 0.949 . S
C953 C954 1.349 . S
C953 C955 1.327 . S
C953 H976 0.950 . S
C954 C953 1.349 . S
C954 C966 1.349 . S
C955 C953 1.327 . S
C955 C971 1.429 . S
C955 H977 0.950 . S
C956 H952 0.949 . S
C956 C964 1.574 . S
C956 C972 1.368 . S
H957 C965 0.950 . S
H958 C963 0.950 . S
H959 C964 0.949 . S
H960 C966 0.950 . S
H961 C967 0.950 . S
H962 C968 0.949 . S
C963 H958 0.950 . S
C963 C965 1.327 . S
C963 C969 1.429 . S
C964 C956 1.574 . S
C964 H959 0.949 . S
C964 C970 1.368 . S
C965 C949 1.349 . S
C965 H957 0.950 . S
C965 C963 1.327 . S
C966 C954 1.349 . S
C966 H960 0.950 . S
C966 C967 1.327 . S
C967 H961 0.950 . S
C967 C966 1.327 . S
C967 C971 1.429 . S
C968 C951 1.574 . S
C968 H962 0.949 . S
C968 C972 1.368 . S
C969 C950 1.429 . S
C969 C963 1.429 . S
C969 C970 1.523 . S
C970 C951 1.368 . S
C970 C964 1.368 . S
C970 C969 1.523 . S
C971 C955 1.429 . S
C971 C967 1.429 . S
C971 C972 1.523 . S
C972 C956 1.368 . S
C972 C968 1.368 . S
C972 C971 1.523 . S
H973 C948 0.950 . S
H974 C950 0.950 . S
H975 C951 0.949 . S
H976 C953 0.950 . S
H977 C955 0.950 . S
C978 C979 1.349 . S
C978 C980 1.327 . S
C978 H1003 0.950 . S
C979 C978 1.349 . S
C979 C995 1.349 . S
C980 C978 1.327 . S
C980 C999 1.429 . S
C980 H1004 0.950 . S
C981 C998 1.574 . S
C981 C1000 1.368 . S
C981 H1005 0.949 . S
H982 C986 0.949 . S
C983 C984 1.349 . S
C983 C985 1.327 . S
C983 H1006 0.950 . S
C984 C983 1.349 . S
C984 C996 1.349 . S
C985 C983 1.327 . S
C985 C1001 1.429 . S
C985 H1007 0.950 . S
C986 H982 0.949 . S
C986 C994 1.574 . S
C986 C1002 1.368 . S
H987 C995 0.950 . S
H988 C993 0.950 . S
H989 C994 0.949 . S
H990 C996 0.950 . S
H991 C997 0.950 . S
H992 C998 0.949 . S
C993 H988 0.950 . S
C993 C995 1.327 . S
C993 C999 1.429 . S
C994 C986 1.574 . S
C994 H989 0.949 . S
C994 C1000 1.368 . S
C995 C979 1.349 . S
C995 H987 0.950 . S
C995 C993 1.327 . S
C996 C984 1.349 . S
C996 H990 0.950 . S
C996 C997 1.327 . S
C997 H991 0.950 . S
C997 C996 1.327 . S
C997 C1001 1.429 . S
C998 C981 1.574 . S
C998 H992 0.949 . S
C998 C1002 1.368 . S
C999 C980 1.429 . S
C999 C993 1.429 . S
C999 C1000 1.523 . S
C1000 C981 1.368 . S
C1000 C994 1.368 . S
C1000 C999 1.523 . S
C1001 C985 1.429 . S
C1001 C997 1.429 . S
C1001 C1002 1.523 . S
C1002 C986 1.368 . S
C1002 C998 1.368 . S
C1002 C1001 1.523 . S
H1003 C978 0.950 . S
H1004 C980 0.950 . S
H1005 C981 0.949 . S
H1006 C983 0.950 . S
H1007 C985 0.950 . S
C1008 C1009 1.349 . S
C1008 C1010 1.327 . S
C1008 H1033 0.950 . S
C1009 C1008 1.349 . S
C1009 C1025 1.349 . S
C1010 C1008 1.327 . S
C1010 C1029 1.429 . S
C1010 H1034 0.950 . S
C1011 C1028 1.574 . S
C1011 C1030 1.368 . S
C1011 H1035 0.949 . S
H1012 C1016 0.949 . S
C1013 C1014 1.349 . S
C1013 C1015 1.327 . S
C1013 H1036 0.950 . S
C1014 C1013 1.349 . S
C1014 C1026 1.349 . S
C1015 C1013 1.327 . S
C1015 C1031 1.429 . S
C1015 H1037 0.950 . S
C1016 H1012 0.949 . S
C1016 C1024 1.574 . S
C1016 C1032 1.368 . S
H1017 C1025 0.950 . S
H1018 C1023 0.950 . S
H1019 C1024 0.949 . S
H1020 C1026 0.950 . S
H1021 C1027 0.950 . S
H1022 C1028 0.949 . S
C1023 H1018 0.950 . S
C1023 C1025 1.327 . S
C1023 C1029 1.429 . S
C1024 C1016 1.574 . S
C1024 H1019 0.949 . S
C1024 C1030 1.368 . S
C1025 C1009 1.349 . S
C1025 H1017 0.950 . S
C1025 C1023 1.327 . S
C1026 C1014 1.349 . S
C1026 H1020 0.950 . S
C1026 C1027 1.327 . S
C1027 H1021 0.950 . S
C1027 C1026 1.327 . S
C1027 C1031 1.429 . S
C1028 C1011 1.574 . S
C1028 H1022 0.949 . S
C1028 C1032 1.368 . S
C1029 C1010 1.429 . S
C1029 C1023 1.429 . S
C1029 C1030 1.523 . S
C1030 C1011 1.368 . S
C1030 C1024 1.368 . S
C1030 C1029 1.523 . S
C1031 C1015 1.429 . S
C1031 C1027 1.429 . S
C1031 C1032 1.523 . S
C1032 C1016 1.368 . S
C1032 C1028 1.368 . S
C1032 C1031 1.523 . S
H1033 C1008 0.950 . S
H1034 C1010 0.950 . S
H1035 C1011 0.949 . S
H1036 C1013 0.950 . S
H1037 C1015 0.950 . S
C1038 C1039 1.349 . S
C1038 C1040 1.327 . S
C1038 H1063 0.950 . S
C1039 C1038 1.349 . S
C1039 C1055 1.349 . S
C1040 C1038 1.327 . S
C1040 C1059 1.429 . S
C1040 H1064 0.950 . S
C1041 C1058 1.574 . S
C1041 C1060 1.368 . S
C1041 H1065 0.949 . S
H1042 C1046 0.949 . S
C1043 C1044 1.349 . S
C1043 C1045 1.327 . S
C1043 H1066 0.950 . S
C1044 C1043 1.349 . S
C1044 C1056 1.349 . S
C1045 C1043 1.327 . S
C1045 C1061 1.429 . S
C1045 H1067 0.950 . S
C1046 H1042 0.949 . S
C1046 C1054 1.574 . S
C1046 C1062 1.368 . S
H1047 C1055 0.950 . S
H1048 C1053 0.950 . S
H1049 C1054 0.949 . S
H1050 C1056 0.950 . S
H1051 C1057 0.950 . S
H1052 C1058 0.949 . S
C1053 H1048 0.950 . S
C1053 C1055 1.327 . S
C1053 C1059 1.429 . S
C1054 C1046 1.574 . S
C1054 H1049 0.949 . S
C1054 C1060 1.368 . S
C1055 C1039 1.349 . S
C1055 H1047 0.950 . S
C1055 C1053 1.327 . S
C1056 C1044 1.349 . S
C1056 H1050 0.950 . S
C1056 C1057 1.327 . S
C1057 H1051 0.950 . S
C1057 C1056 1.327 . S
C1057 C1061 1.429 . S
C1058 C1041 1.574 . S
C1058 H1052 0.949 . S
C1058 C1062 1.368 . S
C1059 C1040 1.429 . S
C1059 C1053 1.429 . S
C1059 C1060 1.523 . S
C1060 C1041 1.368 . S
C1060 C1054 1.368 . S
C1060 C1059 1.523 . S
C1061 C1045 1.429 . S
C1061 C1057 1.429 . S
C1061 C1062 1.523 . S
C1062 C1046 1.368 . S
C1062 C1058 1.368 . S
C1062 C1061 1.523 . S
H1063 C1038 0.950 . S
H1064 C1040 0.950 . S
H1065 C1041 0.949 . S
H1066 C1043 0.950 . S
H1067 C1045 0.950 . S
C1068 C1069 1.349 . S
C1068 C1070 1.327 . S
C1068 H1093 0.950 . S
C1069 C1068 1.349 . S
C1069 C1085 1.349 . S
C1070 C1068 1.327 . S
C1070 C1089 1.429 . S
C1070 H1094 0.950 . S
C1071 C1088 1.574 . S
C1071 C1090 1.368 . S
C1071 H1095 0.949 . S
H1072 C1076 0.949 . S
C1073 C1074 1.349 . S
C1073 C1075 1.327 . S
C1073 H1096 0.950 . S
C1074 C1073 1.349 . S
C1074 C1086 1.349 . S
C1075 C1073 1.327 . S
C1075 C1091 1.429 . S
C1075 H1097 0.950 . S
C1076 H1072 0.949 . S
C1076 C1084 1.574 . S
C1076 C1092 1.368 . S
H1077 C1085 0.950 . S
H1078 C1083 0.950 . S
H1079 C1084 0.949 . S
H1080 C1086 0.950 . S
H1081 C1087 0.950 . S
H1082 C1088 0.949 . S
C1083 H1078 0.950 . S
C1083 C1085 1.327 . S
C1083 C1089 1.429 . S
C1084 C1076 1.574 . S
C1084 H1079 0.949 . S
C1084 C1090 1.368 . S
C1085 C1069 1.349 . S
C1085 H1077 0.950 . S
C1085 C1083 1.327 . S
C1086 C1074 1.349 . S
C1086 H1080 0.950 . S
C1086 C1087 1.327 . S
C1087 H1081 0.950 . S
C1087 C1086 1.327 . S
C1087 C1091 1.429 . S
C1088 C1071 1.574 . S
C1088 H1082 0.949 . S
C1088 C1092 1.368 . S
C1089 C1070 1.429 . S
C1089 C1083 1.429 . S
C1089 C1090 1.523 . S
C1090 C1071 1.368 . S
C1090 C1084 1.368 . S
C1090 C1089 1.523 . S
C1091 C1075 1.429 . S
C1091 C1087 1.429 . S
C1091 C1092 1.523 . S
C1092 C1076 1.368 . S
C1092 C1088 1.368 . S
C1092 C1091 1.523 . S
H1093 C1068 0.950 . S
H1094 C1070 0.950 . S
H1095 C1071 0.949 . S
H1096 C1073 0.950 . S
H1097 C1075 0.950 . S
C1098 C1099 1.349 . S
C1098 C1100 1.327 . S
C1098 H1123 0.950 . S
C1099 C1098 1.349 . S
C1099 C1115 1.349 . S
C1100 C1098 1.327 . S
C1100 C1119 1.429 . S
C1100 H1124 0.950 . S
C1101 C1118 1.574 . S
C1101 C1120 1.368 . S
C1101 H1125 0.949 . S
H1102 C1106 0.949 . S
C1103 C1104 1.349 . S
C1103 C1105 1.327 . S
C1103 H1126 0.950 . S
C1104 C1103 1.349 . S
C1104 C1116 1.349 . S
C1105 C1103 1.327 . S
C1105 C1121 1.429 . S
C1105 H1127 0.950 . S
C1106 H1102 0.949 . S
C1106 C1114 1.574 . S
C1106 C1122 1.368 . S
H1107 C1115 0.950 . S
H1108 C1113 0.950 . S
H1109 C1114 0.949 . S
H1110 C1116 0.950 . S
H1111 C1117 0.950 . S
H1112 C1118 0.949 . S
C1113 H1108 0.950 . S
C1113 C1115 1.327 . S
C1113 C1119 1.429 . S
C1114 C1106 1.574 . S
C1114 H1109 0.949 . S
C1114 C1120 1.368 . S
C1115 C1099 1.349 . S
C1115 H1107 0.950 . S
C1115 C1113 1.327 . S
C1116 C1104 1.349 . S
C1116 H1110 0.950 . S
C1116 C1117 1.327 . S
C1117 H1111 0.950 . S
C1117 C1116 1.327 . S
C1117 C1121 1.429 . S
C1118 C1101 1.574 . S
C1118 H1112 0.949 . S
C1118 C1122 1.368 . S
C1119 C1100 1.429 . S
C1119 C1113 1.429 . S
C1119 C1120 1.523 . S
C1120 C1101 1.368 . S
C1120 C1114 1.368 . S
C1120 C1119 1.523 . S
C1121 C1105 1.429 . S
C1121 C1117 1.429 . S
C1121 C1122 1.523 . S
C1122 C1106 1.368 . S
C1122 C1118 1.368 . S
C1122 C1121 1.523 . S
H1123 C1098 0.950 . S
H1124 C1100 0.950 . S
H1125 C1101 0.949 . S
H1126 C1103 0.950 . S
H1127 C1105 0.950 . S
C1128 C1129 1.349 . S
C1128 C1130 1.327 . S
C1128 H1153 0.950 . S
C1129 C1128 1.349 . S
C1129 C1145 1.349 . S
C1130 C1128 1.327 . S
C1130 C1149 1.429 . S
C1130 H1154 0.950 . S
C1131 C1148 1.574 1_455 S
C1131 C1150 1.368 . S
C1131 H1155 0.949 . S
H1132 C1136 0.949 . S
C1133 C1134 1.349 . S
C1133 C1135 1.327 . S
C1133 H1156 0.950 . S
C1134 C1133 1.349 . S
C1134 C1146 1.349 . S
C1135 C1133 1.327 . S
C1135 C1151 1.429 . S
C1135 H1157 0.950 . S
C1136 H1132 0.949 . S
C1136 C1144 1.574 1_655 S
C1136 C1152 1.368 . S
H1137 C1145 0.950 . S
H1138 C1143 0.950 . S
H1139 C1144 0.949 . S
H1140 C1146 0.950 . S
H1141 C1147 0.950 . S
H1142 C1148 0.949 . S
C1143 H1138 0.950 . S
C1143 C1145 1.327 . S
C1143 C1149 1.429 . S
C1144 C1136 1.574 1_455 S
C1144 H1139 0.949 . S
C1144 C1150 1.368 . S
C1145 C1129 1.349 . S
C1145 H1137 0.950 . S
C1145 C1143 1.327 . S
C1146 C1134 1.349 . S
C1146 H1140 0.950 . S
C1146 C1147 1.327 . S
C1147 H1141 0.950 . S
C1147 C1146 1.327 . S
C1147 C1151 1.429 . S
C1148 C1131 1.574 1_655 S
C1148 H1142 0.949 . S
C1148 C1152 1.368 . S
C1149 C1130 1.429 . S
C1149 C1143 1.429 . S
C1149 C1150 1.523 . S
C1150 C1131 1.368 . S
C1150 C1144 1.368 . S
C1150 C1149 1.523 . S
C1151 C1135 1.429 . S
C1151 C1147 1.429 . S
C1151 C1152 1.523 . S
C1152 C1136 1.368 . S
C1152 C1148 1.368 . S
C1152 C1151 1.523 . S
H1153 C1128 0.950 . S
H1154 C1130 0.950 . S
H1155 C1131 0.949 . S
H1156 C1133 0.950 . S
H1157 C1135 0.950 . S
C1158 C1159 1.349 . S
C1158 C1160 1.327 . S
C1158 H1183 0.950 . S
C1159 C1158 1.349 . S
C1159 C1175 1.349 . S
C1160 C1158 1.327 . S
C1160 C1179 1.429 . S
C1160 H1184 0.950 . S
C1161 C1178 1.574 1_565 S
C1161 C1180 1.368 . S
C1161 H1185 0.949 . S
H1162 C1166 0.949 . S
C1163 C1164 1.349 . S
C1163 C1165 1.327 . S
C1163 H1186 0.950 . S
C1164 C1163 1.349 . S
C1164 C1176 1.349 . S
C1165 C1163 1.327 . S
C1165 C1181 1.429 . S
C1165 H1187 0.950 . S
C1166 H1162 0.949 . S
C1166 C1174 1.574 1_545 S
C1166 C1182 1.368 . S
H1167 C1175 0.950 . S
H1168 C1173 0.950 . S
H1169 C1174 0.949 . S
H1170 C1176 0.950 . S
H1171 C1177 0.950 . S
H1172 C1178 0.949 . S
C1173 H1168 0.950 . S
C1173 C1175 1.327 . S
C1173 C1179 1.429 . S
C1174 C1166 1.574 1_565 S
C1174 H1169 0.949 . S
C1174 C1180 1.368 . S
C1175 C1159 1.349 . S
C1175 H1167 0.950 . S
C1175 C1173 1.327 . S
C1176 C1164 1.349 . S
C1176 H1170 0.950 . S
C1176 C1177 1.327 . S
C1177 H1171 0.950 . S
C1177 C1176 1.327 . S
C1177 C1181 1.429 . S
C1178 C1161 1.574 1_545 S
C1178 H1172 0.949 . S
C1178 C1182 1.368 . S
C1179 C1160 1.429 . S
C1179 C1173 1.429 . S
C1179 C1180 1.523 . S
C1180 C1161 1.368 . S
C1180 C1174 1.368 . S
C1180 C1179 1.523 . S
C1181 C1165 1.429 . S
C1181 C1177 1.429 . S
C1181 C1182 1.523 . S
C1182 C1166 1.368 . S
C1182 C1178 1.368 . S
C1182 C1181 1.523 . S
H1183 C1158 0.950 . S
H1184 C1160 0.950 . S
H1185 C1161 0.949 . S
H1186 C1163 0.950 . S
H1187 C1165 0.950 . S
C1188 C1189 1.349 . S
C1188 C1190 1.327 . S
C1188 H1213 0.950 . S
C1189 C1188 1.349 . S
C1189 C1205 1.349 . S
C1190 C1188 1.327 . S
C1190 C1209 1.429 . S
C1190 H1214 0.950 . S
C1191 C1208 1.574 . S
C1191 C1210 1.368 . S
C1191 H1215 0.949 . S
H1192 C1196 0.949 . S
C1193 C1194 1.349 . S
C1193 C1195 1.327 . S
C1193 H1216 0.950 . S
C1194 C1193 1.349 . S
C1194 C1206 1.349 . S
C1195 C1193 1.327 . S
C1195 C1211 1.429 . S
C1195 H1217 0.950 . S
C1196 H1192 0.949 . S
C1196 C1204 1.574 . S
C1196 C1212 1.368 . S
H1197 C1205 0.950 . S
H1198 C1203 0.950 . S
H1199 C1204 0.949 . S
H1200 C1206 0.950 . S
H1201 C1207 0.950 . S
H1202 C1208 0.949 . S
C1203 H1198 0.950 . S
C1203 C1205 1.327 . S
C1203 C1209 1.429 . S
C1204 C1196 1.574 . S
C1204 H1199 0.949 . S
C1204 C1210 1.368 . S
C1205 C1189 1.349 . S
C1205 H1197 0.950 . S
C1205 C1203 1.327 . S
C1206 C1194 1.349 . S
C1206 H1200 0.950 . S
C1206 C1207 1.327 . S
C1207 H1201 0.950 . S
C1207 C1206 1.327 . S
C1207 C1211 1.429 . S
C1208 C1191 1.574 . S
C1208 H1202 0.949 . S
C1208 C1212 1.368 . S
C1209 C1190 1.429 . S
C1209 C1203 1.429 . S
C1209 C1210 1.523 . S
C1210 C1191 1.368 . S
C1210 C1204 1.368 . S
C1210 C1209 1.523 . S
C1211 C1195 1.429 . S
C1211 C1207 1.429 . S
C1211 C1212 1.523 . S
C1212 C1196 1.368 . S
C1212 C1208 1.368 . S
C1212 C1211 1.523 . S
H1213 C1188 0.950 . S
H1214 C1190 0.950 . S
H1215 C1191 0.949 . S
H1216 C1193 0.950 . S
H1217 C1195 0.950 . S
C1218 C1219 1.349 . S
C1218 C1220 1.327 . S
C1218 H1243 0.950 . S
C1219 C1218 1.349 . S
C1219 C1235 1.349 . S
C1220 C1218 1.327 . S
C1220 C1239 1.429 . S
C1220 H1244 0.950 . S
C1221 C1238 1.574 1_455 S
C1221 C1240 1.368 . S
C1221 H1245 0.949 . S
H1222 C1226 0.949 . S
C1223 C1224 1.349 . S
C1223 C1225 1.327 . S
C1223 H1246 0.950 . S
C1224 C1223 1.349 . S
C1224 C1236 1.349 . S
C1225 C1223 1.327 . S
C1225 C1241 1.429 . S
C1225 H1247 0.950 . S
C1226 H1222 0.949 . S
C1226 C1234 1.574 1_655 S
C1226 C1242 1.368 . S
H1227 C1235 0.950 . S
H1228 C1233 0.950 . S
H1229 C1234 0.949 . S
H1230 C1236 0.950 . S
H1231 C1237 0.950 . S
H1232 C1238 0.949 . S
C1233 H1228 0.950 . S
C1233 C1235 1.327 . S
C1233 C1239 1.429 . S
C1234 C1226 1.574 1_455 S
C1234 H1229 0.949 . S
C1234 C1240 1.368 . S
C1235 C1219 1.349 . S
C1235 H1227 0.950 . S
C1235 C1233 1.327 . S
C1236 C1224 1.349 . S
C1236 H1230 0.950 . S
C1236 C1237 1.327 . S
C1237 H1231 0.950 . S
C1237 C1236 1.327 . S
C1237 C1241 1.429 . S
C1238 C1221 1.574 1_655 S
C1238 H1232 0.949 . S
C1238 C1242 1.368 . S
C1239 C1220 1.429 . S
C1239 C1233 1.429 . S
C1239 C1240 1.523 . S
C1240 C1221 1.368 . S
C1240 C1234 1.368 . S
C1240 C1239 1.523 . S
C1241 C1225 1.429 . S
C1241 C1237 1.429 . S
C1241 C1242 1.523 . S
C1242 C1226 1.368 . S
C1242 C1238 1.368 . S
C1242 C1241 1.523 . S
H1243 C1218 0.950 . S
H1244 C1220 0.950 . S
H1245 C1221 0.949 . S
H1246 C1223 0.950 . S
H1247 C1225 0.950 . S
C1248 C1249 1.349 . S
C1248 C1250 1.327 . S
C1248 H1273 0.950 . S
C1249 C1248 1.349 . S
C1249 C1265 1.349 . S
C1250 C1248 1.327 . S
C1250 C1269 1.429 . S
C1250 H1274 0.950 . S
C1251 C1268 1.574 1_565 S
C1251 C1270 1.368 . S
C1251 H1275 0.949 . S
H1252 C1256 0.949 . S
C1253 C1254 1.349 . S
C1253 C1255 1.327 . S
C1253 H1276 0.950 . S
C1254 C1253 1.349 . S
C1254 C1266 1.349 . S
C1255 C1253 1.327 . S
C1255 C1271 1.429 . S
C1255 H1277 0.950 . S
C1256 H1252 0.949 . S
C1256 C1264 1.574 1_545 S
C1256 C1272 1.368 . S
H1257 C1265 0.950 . S
H1258 C1263 0.950 . S
H1259 C1264 0.949 . S
H1260 C1266 0.950 . S
H1261 C1267 0.950 . S
H1262 C1268 0.949 . S
C1263 H1258 0.950 . S
C1263 C1265 1.327 . S
C1263 C1269 1.429 . S
C1264 C1256 1.574 1_565 S
C1264 H1259 0.949 . S
C1264 C1270 1.368 . S
C1265 C1249 1.349 . S
C1265 H1257 0.950 . S
C1265 C1263 1.327 . S
C1266 C1254 1.349 . S
C1266 H1260 0.950 . S
C1266 C1267 1.327 . S
C1267 H1261 0.950 . S
C1267 C1266 1.327 . S
C1267 C1271 1.429 . S
C1268 C1251 1.574 1_545 S
C1268 H1262 0.949 . S
C1268 C1272 1.368 . S
C1269 C1250 1.429 . S
C1269 C1263 1.429 . S
C1269 C1270 1.523 . S
C1270 C1251 1.368 . S
C1270 C1264 1.368 . S
C1270 C1269 1.523 . S
C1271 C1255 1.429 . S
C1271 C1267 1.429 . S
C1271 C1272 1.523 . S
C1272 C1256 1.368 . S
C1272 C1268 1.368 . S
C1272 C1271 1.523 . S
H1273 C1248 0.950 . S
H1274 C1250 0.950 . S
H1275 C1251 0.949 . S
H1276 C1253 0.950 . S
H1277 C1255 0.950 . S
C1278 C1279 1.349 . S
C1278 C1280 1.327 . S
C1278 H1303 0.950 . S
C1279 C1278 1.349 . S
C1279 C1295 1.349 . S
C1280 C1278 1.327 . S
C1280 C1299 1.429 . S
C1280 H1304 0.950 . S
C1281 C1298 1.574 . S
C1281 C1300 1.368 . S
C1281 H1305 0.949 . S
H1282 C1286 0.949 . S
C1283 C1284 1.349 . S
C1283 C1285 1.327 . S
C1283 H1306 0.950 . S
C1284 C1283 1.349 . S
C1284 C1296 1.349 . S
C1285 C1283 1.327 . S
C1285 C1301 1.429 . S
C1285 H1307 0.950 . S
C1286 H1282 0.949 . S
C1286 C1294 1.574 . S
C1286 C1302 1.368 . S
H1287 C1295 0.950 . S
H1288 C1293 0.950 . S
H1289 C1294 0.949 . S
H1290 C1296 0.950 . S
H1291 C1297 0.950 . S
H1292 C1298 0.949 . S
C1293 H1288 0.950 . S
C1293 C1295 1.327 . S
C1293 C1299 1.429 . S
C1294 C1286 1.574 . S
C1294 H1289 0.949 . S
C1294 C1300 1.368 . S
C1295 C1279 1.349 . S
C1295 H1287 0.950 . S
C1295 C1293 1.327 . S
C1296 C1284 1.349 . S
C1296 H1290 0.950 . S
C1296 C1297 1.327 . S
C1297 H1291 0.950 . S
C1297 C1296 1.327 . S
C1297 C1301 1.429 . S
C1298 C1281 1.574 . S
C1298 H1292 0.949 . S
C1298 C1302 1.368 . S
C1299 C1280 1.429 . S
C1299 C1293 1.429 . S
C1299 C1300 1.523 . S
C1300 C1281 1.368 . S
C1300 C1294 1.368 . S
C1300 C1299 1.523 . S
C1301 C1285 1.429 . S
C1301 C1297 1.429 . S
C1301 C1302 1.523 . S
C1302 C1286 1.368 . S
C1302 C1298 1.368 . S
C1302 C1301 1.523 . S
H1303 C1278 0.950 . S
H1304 C1280 0.950 . S
H1305 C1281 0.949 . S
H1306 C1283 0.950 . S
H1307 C1285 0.950 . S
C409 C305 1.492 . S
C414 C33 1.492 . S
C439 C67 1.492 . S
C444 C339 1.492 . S
C469 C373 1.493 . S
C474 C101 1.493 . S
C499 C407 1.492 . S
C504 C135 1.492 . S
C529 C169 1.492 . S
C534 C237 1.492 . S
C559 C271 1.493 . S
C564 C203 1.493 . S
C589 C360 1.474 . S
C594 C20 1.474 . S
C619 C394 1.473 . S
C624 C54 1.473 . S
C649 C88 1.474 . S
C654 C224 1.474 . S
C679 C258 1.474 . S
C684 C122 1.474 . S
C709 C292 1.473 . S
C714 C156 1.473 . S
C739 C326 1.474 . S
C744 C190 1.474 . S
C769 C5 1.482 . S
C774 C9 1.391 . S
C799 C39 1.482 . S
C804 C43 1.391 . S
C829 C73 1.482 . S
C834 C77 1.391 . S
C859 C107 1.482 . S
C864 C111 1.391 . S
C889 C145 1.391 . S
C894 C141 1.482 . S
C919 C175 1.482 . S
C924 C179 1.391 . S
C949 C213 1.391 . S
C954 C209 1.482 1_556 S
C979 C243 1.482 1_556 S
C984 C247 1.391 . S
C1009 C281 1.391 . S
C1014 C277 1.482 1_556 S
C1039 C315 1.391 . S
C1044 C311 1.482 1_556 S
C1069 C345 1.482 1_556 S
C1074 C349 1.391 . S
C1099 C379 1.482 1_556 S
C1104 C383 1.391 . S
C1129 C2 1.474 . S
C1134 C376 1.474 . S
C1159 C206 1.474 . S
C1164 C36 1.474 . S
C1189 C240 1.474 . S
C1194 C70 1.474 . S
C1219 C274 1.474 . S
C1224 C104 1.474 . S
C1249 C138 1.474 . S
C1254 C308 1.474 . S
C1279 C342 1.474 . S
C1284 C172 1.474 . S
