# Generated by pormake.
# Topology vbi, (5)-cn, num edge types: 1
# Building blocks:
#     Node 0, Type 0, BuildingBlock: BEQFEK_clean_sbu_0, # of connection points: 5
#     Node 1, Type 0, BuildingBlock: BEQFEK_clean_sbu_0, # of connection points: 5
#     Node 2, Type 0, BuildingBlock: BEQFEK_clean_sbu_0, # of connection points: 5
#     Node 3, Type 0, BuildingBlock: BEQFEK_clean_sbu_0, # of connection points: 5
#     Node 4, Type 0, BuildingBlock: BEQFEK_clean_sbu_0, # of connection points: 5
#     Node 5, Type 0, BuildingBlock: BEQFEK_clean_sbu_0, # of connection points: 5
#     Node 6, Type 0, BuildingBlock: BEQFEK_clean_sbu_0, # of connection points: 5
#     Node 7, Type 0, BuildingBlock: BEQFEK_clean_sbu_0, # of connection points: 5
#     Node 8, Type 0, BuildingBlock: BEQFEK_clean_sbu_0, # of connection points: 5
#     Node 9, Type 0, BuildingBlock: BEQFEK_clean_sbu_0, # of connection points: 5
#     Node 10, Type 0, BuildingBlock: BEQFEK_clean_sbu_0, # of connection points: 5
#     Node 11, Type 0, BuildingBlock: BEQFEK_clean_sbu_0, # of connection points: 5
#     Node 12, Type 0, BuildingBlock: BEQFEK_clean_sbu_0, # of connection points: 5
#     Node 13, Type 0, BuildingBlock: BEQFEK_clean_sbu_0, # of connection points: 5
#     Node 14, Type 0, BuildingBlock: BEQFEK_clean_sbu_0, # of connection points: 5
#     Node 15, Type 0, BuildingBlock: BEQFEK_clean_sbu_0, # of connection points: 5
#     Node 16, Type 0, BuildingBlock: BEQFEK_clean_sbu_0, # of connection points: 5
#     Node 17, Type 0, BuildingBlock: BEQFEK_clean_sbu_0, # of connection points: 5
#     Node 18, Type 0, BuildingBlock: BEQFEK_clean_sbu_0, # of connection points: 5
#     Node 19, Type 0, BuildingBlock: BEQFEK_clean_sbu_0, # of connection points: 5
#     Node 20, Type 0, BuildingBlock: BEQFEK_clean_sbu_0, # of connection points: 5
#     Node 21, Type 0, BuildingBlock: BEQFEK_clean_sbu_0, # of connection points: 5
#     Node 22, Type 0, BuildingBlock: BEQFEK_clean_sbu_0, # of connection points: 5
#     Node 23, Type 0, BuildingBlock: BEQFEK_clean_sbu_0, # of connection points: 5
#     Node 24, Type 0, BuildingBlock: BEQFEK_clean_sbu_0, # of connection points: 5
#     Node 25, Type 0, BuildingBlock: BEQFEK_clean_sbu_0, # of connection points: 5
#     Node 26, Type 0, BuildingBlock: BEQFEK_clean_sbu_0, # of connection points: 5
#     Node 27, Type 0, BuildingBlock: BEQFEK_clean_sbu_0, # of connection points: 5
#     Node 28, Type 0, BuildingBlock: BEQFEK_clean_sbu_0, # of connection points: 5
#     Node 29, Type 0, BuildingBlock: BEQFEK_clean_sbu_0, # of connection points: 5
#     Node 30, Type 0, BuildingBlock: BEQFEK_clean_sbu_0, # of connection points: 5
#     Node 31, Type 0, BuildingBlock: BEQFEK_clean_sbu_0, # of connection points: 5
#     Edge 32, Type (0, 0), BuildingBlock: EZIPEK_clean_linker_0, # of connection points: 2
#     Edge 33, Type (0, 0), BuildingBlock: EZIPEK_clean_linker_0, # of connection points: 2
#     Edge 34, Type (0, 0), BuildingBlock: EZIPEK_clean_linker_0, # of connection points: 2
#     Edge 35, Type (0, 0), BuildingBlock: EZIPEK_clean_linker_0, # of connection points: 2
#     Edge 36, Type (0, 0), BuildingBlock: EZIPEK_clean_linker_0, # of connection points: 2
#     Edge 37, Type (0, 0), BuildingBlock: EZIPEK_clean_linker_0, # of connection points: 2
#     Edge 38, Type (0, 0), BuildingBlock: EZIPEK_clean_linker_0, # of connection points: 2
#     Edge 39, Type (0, 0), BuildingBlock: EZIPEK_clean_linker_0, # of connection points: 2
#     Edge 40, Type (0, 0), BuildingBlock: EZIPEK_clean_linker_0, # of connection points: 2
#     Edge 41, Type (0, 0), BuildingBlock: EZIPEK_clean_linker_0, # of connection points: 2
#     Edge 42, Type (0, 0), BuildingBlock: EZIPEK_clean_linker_0, # of connection points: 2
#     Edge 43, Type (0, 0), BuildingBlock: EZIPEK_clean_linker_0, # of connection points: 2
#     Edge 44, Type (0, 0), BuildingBlock: EZIPEK_clean_linker_0, # of connection points: 2
#     Edge 45, Type (0, 0), BuildingBlock: EZIPEK_clean_linker_0, # of connection points: 2
#     Edge 46, Type (0, 0), BuildingBlock: EZIPEK_clean_linker_0, # of connection points: 2
#     Edge 47, Type (0, 0), BuildingBlock: EZIPEK_clean_linker_0, # of connection points: 2
#     Edge 48, Type (0, 0), BuildingBlock: EZIPEK_clean_linker_0, # of connection points: 2
#     Edge 49, Type (0, 0), BuildingBlock: EZIPEK_clean_linker_0, # of connection points: 2
#     Edge 50, Type (0, 0), BuildingBlock: EZIPEK_clean_linker_0, # of connection points: 2
#     Edge 51, Type (0, 0), BuildingBlock: EZIPEK_clean_linker_0, # of connection points: 2
#     Edge 52, Type (0, 0), BuildingBlock: EZIPEK_clean_linker_0, # of connection points: 2
#     Edge 53, Type (0, 0), BuildingBlock: EZIPEK_clean_linker_0, # of connection points: 2
#     Edge 54, Type (0, 0), BuildingBlock: EZIPEK_clean_linker_0, # of connection points: 2
#     Edge 55, Type (0, 0), BuildingBlock: EZIPEK_clean_linker_0, # of connection points: 2
#     Edge 56, Type (0, 0), BuildingBlock: EZIPEK_clean_linker_0, # of connection points: 2
#     Edge 57, Type (0, 0), BuildingBlock: EZIPEK_clean_linker_0, # of connection points: 2
#     Edge 58, Type (0, 0), BuildingBlock: EZIPEK_clean_linker_0, # of connection points: 2
#     Edge 59, Type (0, 0), BuildingBlock: EZIPEK_clean_linker_0, # of connection points: 2
#     Edge 60, Type (0, 0), BuildingBlock: EZIPEK_clean_linker_0, # of connection points: 2
#     Edge 61, Type (0, 0), BuildingBlock: EZIPEK_clean_linker_0, # of connection points: 2
#     Edge 62, Type (0, 0), BuildingBlock: EZIPEK_clean_linker_0, # of connection points: 2
#     Edge 63, Type (0, 0), BuildingBlock: EZIPEK_clean_linker_0, # of connection points: 2
#     Edge 64, Type (0, 0), BuildingBlock: EZIPEK_clean_linker_0, # of connection points: 2
#     Edge 65, Type (0, 0), BuildingBlock: EZIPEK_clean_linker_0, # of connection points: 2
#     Edge 66, Type (0, 0), BuildingBlock: EZIPEK_clean_linker_0, # of connection points: 2
#     Edge 67, Type (0, 0), BuildingBlock: EZIPEK_clean_linker_0, # of connection points: 2
#     Edge 68, Type (0, 0), BuildingBlock: EZIPEK_clean_linker_0, # of connection points: 2
#     Edge 69, Type (0, 0), BuildingBlock: EZIPEK_clean_linker_0, # of connection points: 2
#     Edge 70, Type (0, 0), BuildingBlock: EZIPEK_clean_linker_0, # of connection points: 2
#     Edge 71, Type (0, 0), BuildingBlock: EZIPEK_clean_linker_0, # of connection points: 2
#     Edge 72, Type (0, 0), BuildingBlock: EZIPEK_clean_linker_0, # of connection points: 2
#     Edge 73, Type (0, 0), BuildingBlock: EZIPEK_clean_linker_0, # of connection points: 2
#     Edge 74, Type (0, 0), BuildingBlock: EZIPEK_clean_linker_0, # of connection points: 2
#     Edge 75, Type (0, 0), BuildingBlock: EZIPEK_clean_linker_0, # of connection points: 2
#     Edge 76, Type (0, 0), BuildingBlock: EZIPEK_clean_linker_0, # of connection points: 2
#     Edge 77, Type (0, 0), BuildingBlock: EZIPEK_clean_linker_0, # of connection points: 2
#     Edge 78, Type (0, 0), BuildingBlock: EZIPEK_clean_linker_0, # of connection points: 2
#     Edge 79, Type (0, 0), BuildingBlock: EZIPEK_clean_linker_0, # of connection points: 2
#     Edge 80, Type (0, 0), BuildingBlock: EZIPEK_clean_linker_0, # of connection points: 2
#     Edge 81, Type (0, 0), BuildingBlock: EZIPEK_clean_linker_0, # of connection points: 2
#     Edge 82, Type (0, 0), BuildingBlock: EZIPEK_clean_linker_0, # of connection points: 2
#     Edge 83, Type (0, 0), BuildingBlock: EZIPEK_clean_linker_0, # of connection points: 2
#     Edge 84, Type (0, 0), BuildingBlock: EZIPEK_clean_linker_0, # of connection points: 2
#     Edge 85, Type (0, 0), BuildingBlock: EZIPEK_clean_linker_0, # of connection points: 2
#     Edge 86, Type (0, 0), BuildingBlock: EZIPEK_clean_linker_0, # of connection points: 2
#     Edge 87, Type (0, 0), BuildingBlock: EZIPEK_clean_linker_0, # of connection points: 2
#     Edge 88, Type (0, 0), BuildingBlock: EZIPEK_clean_linker_0, # of connection points: 2
#     Edge 89, Type (0, 0), BuildingBlock: EZIPEK_clean_linker_0, # of connection points: 2
#     Edge 90, Type (0, 0), BuildingBlock: EZIPEK_clean_linker_0, # of connection points: 2
#     Edge 91, Type (0, 0), BuildingBlock: EZIPEK_clean_linker_0, # of connection points: 2
#     Edge 92, Type (0, 0), BuildingBlock: EZIPEK_clean_linker_0, # of connection points: 2
#     Edge 93, Type (0, 0), BuildingBlock: EZIPEK_clean_linker_0, # of connection points: 2
#     Edge 94, Type (0, 0), BuildingBlock: EZIPEK_clean_linker_0, # of connection points: 2
#     Edge 95, Type (0, 0), BuildingBlock: EZIPEK_clean_linker_0, # of connection points: 2
#     Edge 96, Type (0, 0), BuildingBlock: EZIPEK_clean_linker_0, # of connection points: 2
#     Edge 97, Type (0, 0), BuildingBlock: EZIPEK_clean_linker_0, # of connection points: 2
#     Edge 98, Type (0, 0), BuildingBlock: EZIPEK_clean_linker_0, # of connection points: 2
#     Edge 99, Type (0, 0), BuildingBlock: EZIPEK_clean_linker_0, # of connection points: 2
#     Edge 100, Type (0, 0), BuildingBlock: EZIPEK_clean_linker_0, # of connection points: 2
#     Edge 101, Type (0, 0), BuildingBlock: EZIPEK_clean_linker_0, # of connection points: 2
#     Edge 102, Type (0, 0), BuildingBlock: EZIPEK_clean_linker_0, # of connection points: 2
#     Edge 103, Type (0, 0), BuildingBlock: EZIPEK_clean_linker_0, # of connection points: 2
#     Edge 104, Type (0, 0), BuildingBlock: EZIPEK_clean_linker_0, # of connection points: 2
#     Edge 105, Type (0, 0), BuildingBlock: EZIPEK_clean_linker_0, # of connection points: 2
#     Edge 106, Type (0, 0), BuildingBlock: EZIPEK_clean_linker_0, # of connection points: 2
#     Edge 107, Type (0, 0), BuildingBlock: EZIPEK_clean_linker_0, # of connection points: 2
#     Edge 108, Type (0, 0), BuildingBlock: EZIPEK_clean_linker_0, # of connection points: 2
#     Edge 109, Type (0, 0), BuildingBlock: EZIPEK_clean_linker_0, # of connection points: 2
#     Edge 110, Type (0, 0), BuildingBlock: EZIPEK_clean_linker_0, # of connection points: 2
#     Edge 111, Type (0, 0), BuildingBlock: EZIPEK_clean_linker_0, # of connection points: 2
# Relax obj value: 0.802
# Max RMSD: 0.269
# Mean RMSD: 0.269
data_MOF--net-vbi--node1-BEQFEK_clean_sbu_0--edge1-EZIPEK_clean_linker_0
_symmetry_space_group_name_H-M    P1
_symmetry_Int_Tables_number       1
_symmetry_cell_setting            triclinic
loop_
_symmetry_equiv_pos_as_xyz
'x, y, z'
_cell_length_a     22.35037
_cell_length_b     41.45939
_cell_length_c     60.991512
_cell_angle_alpha  89.992074
_cell_angle_beta   90.09775
_cell_angle_gamma 90.022328
loop_
_atom_site_label
_atom_site_type_symbol
_atom_site_fract_x
_atom_site_fract_y
_atom_site_fract_z
_atom_type_partial_charge
Co0 Co 0.38778 0.13461 0.04375 0.0
Co1 Co 0.26626 0.11086 0.02205 0.0
C2 C 0.31971 0.17352 0.00918 0.0
O3 O 0.36174 0.16819 0.02282 0.0
O4 O 0.27751 0.15311 0.00587 0.0
C5 C 0.51058 0.15688 0.03999 0.0
O6 O 0.49208 0.17713 0.02487 0.0
C7 C 0.17248 0.06946 -0.00135 0.0
C8 C 0.11743 0.0575 0.02745 0.0
C9 C 0.12627 0.04936 0.00575 0.0
N10 N 0.19236 0.08713 0.01581 0.0
N11 N 0.15699 0.08064 0.03263 0.0
C12 C 0.195 0.0726 0.97569 0.0
H13 H 0.23434 0.08889 0.97507 0.0
H14 H 0.20536 0.04847 0.96879 0.0
H15 H 0.15921 0.08317 0.96532 0.0
C16 C 0.42854 0.07171 0.02947 0.0
N17 N 0.38332 0.09287 0.03167 0.0
N18 N 0.33751 0.0837 0.01954 0.0
C19 C 0.35515 0.05711 0.00816 0.0
C20 C 0.41371 0.04946 0.01379 0.0
C21 C 0.48532 0.07167 0.04243 0.0
H22 H 0.47893 0.08334 0.0586 0.0
H23 H 0.52035 0.08408 0.03296 0.0
H24 H 0.5009 0.04654 0.04509 0.0
O25 O 0.33863 0.13752 0.06954 0.0
O26 O 0.25312 0.12283 0.05382 0.0
H27 H 0.34049 0.01617 0.98707 0.0
H28 H 0.31498 0.05426 0.97662 0.0
C29 C 0.31888 0.03934 0.99161 0.0
H30 H 0.27422 0.03408 -0.0015 0.0
H31 H 0.16218 0.09027 0.0483 0.0
O32 O 0.47281 0.14116 0.05126 0.0
C33 C 0.28283 0.13223 0.07046 0.0
Co34 Co 0.86723 0.13735 0.05012 0.0
Co35 Co 0.97993 0.16717 0.0263 0.0
C36 C 0.9451 0.1007 0.01654 0.0
O37 O 0.90305 0.10481 0.03035 0.0
O38 O 0.9826 0.12322 0.01182 0.0
C39 C 0.75396 0.1144 0.0423 0.0
O40 O 0.77918 0.11382 0.02285 0.0
C41 C 0.08611 0.20869 0.00956 0.0
C42 C 0.0448 0.25553 0.01802 0.0
C43 C 0.09545 0.2422 0.0089 0.0
N44 N 0.03118 0.20307 0.0181 0.0
N45 N 0.00812 0.23137 0.02348 0.0
C46 C 0.13006 0.18271 0.00416 0.0
H47 H 0.13693 0.16717 0.01877 0.0
H48 H 0.11141 0.16722 0.99097 0.0
H49 H 0.17356 0.19302 -0.00112 0.0
C50 C 0.80864 0.19317 0.02969 0.0
N51 N 0.85782 0.17587 0.03473 0.0
N52 N 0.90124 0.18371 0.02129 0.0
C53 C 0.8795 0.20447 0.00618 0.0
C54 C 0.8205 0.21124 0.01124 0.0
C55 C 0.75113 0.19306 0.04217 0.0
H56 H 0.75676 0.18172 0.05849 0.0
H57 H 0.71648 0.18027 0.03247 0.0
H58 H 0.73516 0.21821 0.04436 0.0
O59 O 0.91871 0.14251 0.07523 0.0
O60 O 0.99986 0.16082 0.05817 0.0
H61 H 0.92595 0.24204 0.98931 0.0
H62 H 0.88396 0.21567 0.97189 0.0
C63 C 0.91314 0.21647 0.98663 0.0
H64 H 0.95386 0.20178 0.98378 0.0
H65 H 0.96725 0.23436 0.03143 0.0
O66 O 0.7866 0.12277 0.05838 0.0
C67 C 0.97289 0.15163 0.07545 0.0
Co68 Co 0.39308 0.1407 0.18422 0.0
Co69 Co 0.27599 0.16773 0.20659 0.0
C70 C 0.3188 0.10284 0.21795 0.0
O71 O 0.36054 0.10773 0.20418 0.0
O72 O 0.27917 0.12444 0.22227 0.0
C73 C 0.50786 0.12006 0.19275 0.0
O74 O 0.48268 0.11964 0.21221 0.0
C75 C 0.16937 0.20597 0.22608 0.0
C76 C 0.19006 0.25108 0.20826 0.0
C77 C 0.15149 0.23827 0.2236 0.0
N78 N 0.21757 0.20077 0.21317 0.0
N79 N 0.22819 0.22778 0.20232 0.0
C80 C 0.14095 0.18056 0.24002 0.0
H81 H 0.12882 0.15959 0.2296 0.0
H82 H 0.17381 0.17193 0.25235 0.0
H83 H 0.1004 0.18991 0.24836 0.0
C84 C 0.44403 0.19997 0.20313 0.0
N85 N 0.39736 0.18044 0.19866 0.0
N86 N 0.35128 0.18912 0.21062 0.0
C87 C 0.36848 0.21339 0.22403 0.0
C88 C 0.42772 0.22098 0.21959 0.0
C89 C 0.50401 0.19868 0.19234 0.0
H90 H 0.50093 0.18713 0.17599 0.0
H91 H 0.53552 0.1852 0.20299 0.0
H92 H 0.52226 0.22343 0.19042 0.0
O93 O 0.34214 0.14283 0.15867 0.0
O94 O 0.25813 0.15861 0.17499 0.0
H95 H 0.30856 0.24969 0.23549 0.0
H96 H 0.35873 0.23458 0.25604 0.0
C97 C 0.33065 0.22758 0.24178 0.0
H98 H 0.29581 0.21016 0.24703 0.0
H99 H 0.26301 0.23056 0.1911 0.0
O100 O 0.47514 0.12796 0.17659 0.0
C101 C 0.28683 0.14967 0.15805 0.0
Co102 Co 0.87513 0.13759 0.19057 0.0
Co103 Co 0.99814 0.11496 0.21131 0.0
C104 C 0.94634 0.17815 0.22357 0.0
O105 O 0.90266 0.17126 0.21096 0.0
O106 O 0.98974 0.15837 0.2264 0.0
C107 C 0.75297 0.15974 0.19555 0.0
O108 O 0.77259 0.17909 0.21103 0.0
C109 C 0.09255 0.07363 0.23385 0.0
C110 C 0.14598 0.06147 0.20467 0.0
C111 C 0.13774 0.05321 0.22638 0.0
N112 N 0.07243 0.09154 0.21688 0.0
N113 N 0.1069 0.08498 0.19982 0.0
C114 C 0.07163 0.07713 0.25699 0.0
H115 H 0.03205 0.09322 0.25782 0.0
H116 H 0.06236 0.05312 0.26428 0.0
H117 H 0.10787 0.08825 0.26687 0.0
C118 C 0.83544 0.07507 0.20555 0.0
N119 N 0.88041 0.09631 0.20296 0.0
N120 N 0.92681 0.0876 0.21495 0.0
C121 C 0.90985 0.06105 0.22657 0.0
C122 C 0.85113 0.05308 0.22127 0.0
C123 C 0.77839 0.07461 0.19275 0.0
H124 H 0.78421 0.08628 0.17655 0.0
H125 H 0.74327 0.08687 0.20227 0.0
H126 H 0.76326 0.04938 0.19018 0.0
O127 O 0.92255 0.14033 0.16429 0.0
O128 O 0.00898 0.12603 0.17942 0.0
H129 H 0.92574 0.02014 0.24756 0.0
H130 H 0.95213 0.0582 0.25774 0.0
C131 C 0.94715 0.04327 0.2428 0.0
H132 H 0.99129 0.03793 0.2355 0.0
H133 H 0.10127 0.09476 0.18421 0.0
O134 O 0.78984 0.14429 0.18375 0.0
C135 C 0.97831 0.13513 0.16297 0.0
Co136 Co 0.62452 0.89195 0.93995 0.0
Co137 Co 0.74642 0.91602 0.9611 0.0
C138 C 0.69296 0.85359 0.97473 0.0
O139 O 0.65049 0.85864 0.9612 0.0
O140 O 0.73538 0.87402 0.97759 0.0
C141 C 0.50134 0.87041 0.94402 0.0
O142 O 0.51962 0.85059 0.95943 0.0
C143 C 0.83971 0.95728 0.98473 0.0
C144 C 0.89393 0.97043 0.95594 0.0
C145 C 0.88534 0.97789 0.97778 0.0
N146 N 0.81993 0.93999 0.96737 0.0
N147 N 0.85477 0.94719 0.95054 0.0
C148 C 0.81699 0.95363 0.00762 0.0
H149 H 0.77733 0.93754 0.008 0.0
H150 H 0.80699 0.97762 0.01482 0.0
H151 H 0.85248 0.94257 0.01788 0.0
C152 C 0.58432 0.95528 0.95368 0.0
N153 N 0.62934 0.93396 0.9516 0.0
N154 N 0.67531 0.94324 0.9636 0.0
C155 C 0.65797 0.97005 0.97481 0.0
C156 C 0.59943 0.97775 0.96919 0.0
C157 C 0.52772 0.95546 0.94061 0.0
H158 H 0.53388 0.94323 0.92463 0.0
H159 H 0.49211 0.94375 0.9502 0.0
H160 H 0.51308 0.98066 0.93757 0.0
O161 O 0.67353 0.88845 0.91413 0.0
O162 O 0.75945 0.90367 0.92932 0.0
H163 H 0.67309 1.01125 -0.00438 0.0
H164 H 0.69791 0.97323 0.00637 0.0
C165 C 0.69439 0.98792 0.99127 0.0
H166 H 0.73919 0.99289 0.98441 0.0
H167 H 0.84939 0.93798 0.93477 0.0
O168 O 0.53932 0.88558 0.9325 0.0
C169 C 0.72925 0.89388 0.91288 0.0
Co170 Co 0.14474 0.88842 0.9353 0.0
Co171 Co 0.03295 0.85862 0.95974 0.0
C172 C 0.0671 0.92536 0.96877 0.0
O173 O 0.10881 0.92115 0.95484 0.0
O174 O 0.0301 0.90278 0.9739 0.0
C175 C 0.25787 0.91254 0.94213 0.0
O176 O 0.23348 0.9138 0.96171 0.0
C177 C 0.92701 0.81665 0.97616 0.0
C178 C 0.96836 0.7701 0.967 0.0
C179 C 0.9177 0.78313 0.97629 0.0
N180 N 0.98196 0.82256 0.96774 0.0
N181 N 0.00504 0.79445 0.96194 0.0
C182 C 0.88297 0.84242 0.98194 0.0
H183 H 0.87736 0.85897 0.96777 0.0
H184 H 0.90083 0.85691 -0.00422 0.0
H185 H 0.83899 0.83192 0.98649 0.0
C186 C 0.20464 0.8332 0.95616 0.0
N187 N 0.15524 0.85035 0.95115 0.0
N188 N 0.11191 0.84229 0.96457 0.0
C189 C 0.13382 0.82145 0.9796 0.0
C190 C 0.1929 0.8149 0.97453 0.0
C191 C 0.26238 0.8339 0.94383 0.0
H192 H 0.25645 0.84486 0.9274 0.0
H193 H 0.29613 0.84741 0.9535 0.0
H194 H 0.27975 0.809 0.94183 0.0
O195 O 0.09264 0.88242 0.91042 0.0
O196 O 0.01211 0.86467 0.9281 0.0
H197 H 0.08736 0.78346 -0.004 0.0
H198 H 0.12893 0.80949 0.01378 0.0
C199 C 0.10002 0.80897 -0.00103 0.0
H200 H 0.05918 0.82354 0.0019 0.0
H201 H 0.04594 0.79174 0.95395 0.0
O202 O 0.22475 0.90326 0.92642 0.0
C203 C 0.03835 0.87351 0.91062 0.0
Co204 Co 0.61611 0.89291 0.79964 0.0
Co205 Co 0.72756 0.86125 0.77624 0.0
C206 C 0.69526 0.92754 0.76527 0.0
O207 O 0.65311 0.92412 0.77917 0.0
O208 O 0.73251 0.90469 0.76114 0.0
C209 C 0.50265 0.91723 0.79229 0.0
O210 O 0.52632 0.91742 0.77258 0.0
C211 C 0.83222 0.8186 0.76005 0.0
C212 C 0.78946 0.77214 0.76858 0.0
C213 C 0.84059 0.78503 0.75951 0.0
N214 N 0.77738 0.82469 0.76846 0.0
N215 N 0.75346 0.79663 0.77394 0.0
C216 C 0.87683 0.84424 0.75455 0.0
H217 H 0.88403 0.85986 0.76911 0.0
H218 H 0.85857 0.85976 0.74131 0.0
H219 H 0.92011 0.83363 0.74933 0.0
C220 C 0.55531 0.83709 0.78016 0.0
N221 N 0.60515 0.85402 0.78491 0.0
N222 N 0.64817 0.84538 0.77153 0.0
C223 C 0.62557 0.82439 0.75674 0.0
C224 C 0.56641 0.81831 0.76197 0.0
C225 C 0.49775 0.83843 0.79257 0.0
H226 H 0.50413 0.84976 0.80886 0.0
H227 H 0.46416 0.85194 0.78284 0.0
H228 H 0.47991 0.81365 0.79481 0.0
O229 O 0.66786 0.88813 0.82479 0.0
O230 O 0.74803 0.8682 0.808 0.0
H231 H 0.67031 0.78595 0.74016 0.0
H232 H 0.62921 0.81243 0.72255 0.0
C233 C 0.65851 0.8116 0.73726 0.0
H234 H 0.69979 0.82577 0.7342 0.0
H235 H 0.71243 0.79403 0.78185 0.0
O236 O 0.53615 0.90856 0.80805 0.0
C237 C 0.72163 0.87835 0.82514 0.0
Co238 Co 0.134 0.89609 0.7963 0.0
Co239 Co 0.00905 0.91831 0.77652 0.0
C240 C 0.06776 0.85801 0.76104 0.0
O241 O 0.11031 0.86337 0.77444 0.0
O242 O 0.02378 0.87761 0.75883 0.0
C243 C 0.25816 0.87669 0.79146 0.0
O244 O 0.24012 0.8571 0.77586 0.0
C245 C 0.91598 0.95908 0.7536 0.0
C246 C 0.85964 0.97038 0.7822 0.0
C247 C 0.87078 0.9798 0.76084 0.0
N248 N 0.93382 0.94044 0.77052 0.0
N249 N 0.89757 0.94634 0.78717 0.0
C250 C 0.94154 0.95692 0.731 0.0
H251 H 0.98469 0.9437 0.73123 0.0
H252 H 0.94622 0.98128 0.72363 0.0
H253 H 0.9104 0.94294 0.72049 0.0
C254 C 0.16736 0.96171 0.78495 0.0
N255 N 0.12506 0.93863 0.78601 0.0
N256 N 0.0769 0.94807 0.77526 0.0
C257 C 0.08984 0.9772 0.76609 0.0
C258 C 0.14775 0.98595 0.77149 0.0
C259 C 0.22687 0.96092 0.79611 0.0
H260 H 0.22348 0.94879 0.81226 0.0
H261 H 0.25895 0.94813 0.78552 0.0
H262 H 0.24416 0.98577 0.79861 0.0
O263 O 0.08527 0.88982 0.82201 0.0
O264 O 0.99722 0.90352 0.80769 0.0
H265 H 0.00488 0.9978 0.75862 0.0
H266 H 0.06695 0.02193 0.75018 0.0
C267 C 0.05023 0.99681 0.75165 0.0
H268 H 0.05017 0.98622 0.735 0.0
H269 H 0.90173 0.93592 0.80265 0.0
O270 O 0.21995 0.89113 0.80331 0.0
C271 C 0.02909 0.89358 0.82366 0.0
Co272 Co 0.38292 0.63564 0.54416 0.0
Co273 Co 0.25862 0.61181 0.52428 0.0
C274 C 0.31334 0.67426 0.51019 0.0
O275 O 0.35631 0.66878 0.52336 0.0
O276 O 0.27049 0.65403 0.50766 0.0
C277 C 0.50582 0.65489 0.53706 0.0
O278 O 0.4853 0.67124 0.5202 0.0
C279 C 0.1666 0.57078 0.50069 0.0
C280 C 0.10425 0.56304 0.52815 0.0
C281 C 0.11776 0.55211 0.50731 0.0
N282 N 0.18366 0.58983 0.51753 0.0
N283 N 0.14415 0.58599 0.53344 0.0
C284 C 0.19618 0.57066 0.47871 0.0
H285 H 0.24058 0.58259 0.47959 0.0
H286 H 0.19955 0.54572 0.47223 0.0
H287 H 0.16841 0.58474 0.46706 0.0
C288 C 0.41913 0.57098 0.53244 0.0
N289 N 0.37604 0.59358 0.53299 0.0
N290 N 0.32797 0.58306 0.52261 0.0
C291 C 0.34164 0.5534 0.5144 0.0
C292 C 0.40011 0.54571 0.51985 0.0
C293 C 0.47622 0.57163 0.54523 0.0
H294 H 0.47043 0.5851 0.56078 0.0
H295 H 0.51149 0.58279 0.5352 0.0
H296 H 0.49109 0.54673 0.54914 0.0
O297 O 0.33442 0.63916 0.57028 0.0
O298 O 0.24718 0.62374 0.55593 0.0
H299 H 0.25525 0.53234 0.50963 0.0
H300 H 0.31654 0.50573 0.50398 0.0
C301 C 0.30058 0.53102 0.50257 0.0
H302 H 0.3005 0.53719 0.48491 0.0
H303 H 0.14668 0.59731 0.54868 0.0
O304 O 0.46936 0.64214 0.5505 0.0
C305 C 0.27874 0.63356 0.57201 0.0
Co306 Co 0.87209 0.64258 0.54444 0.0
Co307 Co 0.99515 0.66894 0.5252 0.0
C308 C 0.94489 0.60446 0.51192 0.0
O309 O 0.90156 0.60914 0.52495 0.0
O310 O 0.98582 0.62576 0.5091 0.0
C311 C 0.75433 0.61968 0.53793 0.0
O312 O 0.77692 0.61511 0.51829 0.0
C313 C 0.08481 0.7115 0.50144 0.0
C314 C 0.15085 0.71711 0.52809 0.0
C315 C 0.13506 0.72925 0.50779 0.0
N316 N 0.0692 0.69162 0.518 0.0
N317 N 0.11078 0.69424 0.53338 0.0
C318 C 0.05264 0.71339 0.47996 0.0
H319 H 0.00772 0.70211 0.48116 0.0
H320 H 0.04981 0.73876 0.47425 0.0
H321 H 0.07845 0.69975 0.46753 0.0
C322 C 0.8273 0.70389 0.52752 0.0
N323 N 0.87319 0.68341 0.53088 0.0
N324 N 0.92321 0.69612 0.52319 0.0
C325 C 0.90938 0.72587 0.51522 0.0
C326 C 0.84834 0.73091 0.51714 0.0
C327 C 0.76364 0.6983 0.53409 0.0
H328 H 0.76169 0.68879 0.55104 0.0
H329 H 0.74285 0.68091 0.52259 0.0
H330 H 0.73731 0.72098 0.53344 0.0
O331 O 0.92183 0.64259 0.57067 0.0
O332 O 0.00877 0.65833 0.55659 0.0
H333 H 0.99687 0.74717 0.51531 0.0
H334 H 0.93645 0.77535 0.51254 0.0
C335 C 0.95254 0.75101 0.50777 0.0
H336 H 0.9548 0.75079 0.48964 0.0
H337 H 0.10999 0.68192 0.54829 0.0
O338 O 0.78881 0.63136 0.55247 0.0
C339 C 0.97717 0.64891 0.57264 0.0
Co340 Co 0.38196 0.64878 0.68933 0.0
Co341 Co 0.25607 0.67019 0.70878 0.0
C342 C 0.31066 0.60693 0.7212 0.0
O343 O 0.35496 0.61434 0.7091 0.0
O344 O 0.26653 0.62638 0.72367 0.0
C345 C 0.50494 0.62849 0.69569 0.0
O346 O 0.48465 0.60979 0.7114 0.0
C347 C 0.16289 0.71049 0.73195 0.0
C348 C 0.10832 0.72362 0.70318 0.0
C349 C 0.11872 0.732 0.7248 0.0
N350 N 0.18088 0.6924 0.71479 0.0
N351 N 0.14558 0.6994 0.69802 0.0
C352 C 0.18696 0.70685 0.75471 0.0
H353 H 0.22998 0.6935 0.75452 0.0
H354 H 0.19134 0.7307 0.76283 0.0
H355 H 0.15508 0.69226 0.76448 0.0
C356 C 0.41655 0.71257 0.70374 0.0
N357 N 0.37378 0.68993 0.7017 0.0
N358 N 0.32526 0.69893 0.71238 0.0
C359 C 0.33841 0.72746 0.7224 0.0
C360 C 0.3967 0.73619 0.71757 0.0
C361 C 0.47554 0.71268 0.69225 0.0
H362 H 0.47152 0.70144 0.67583 0.0
H363 H 0.50842 0.69947 0.70229 0.0
H364 H 0.49234 0.73773 0.6903 0.0
O365 O 0.33509 0.64628 0.66271 0.0
O366 O 0.24693 0.66016 0.67678 0.0
H367 H 0.25343 0.74857 0.72906 0.0
H368 H 0.31539 0.77192 0.73861 0.0
C369 C 0.2981 0.74699 0.73659 0.0
H370 H 0.29627 0.73593 0.75309 0.0
H371 H 0.15012 0.68969 0.68235 0.0
O372 O 0.46842 0.64316 0.6832 0.0
C373 C 0.27939 0.65151 0.6607 0.0
Co374 Co 0.8692 0.64186 0.68752 0.0
Co375 Co 0.98642 0.61246 0.70879 0.0
C376 C 0.9454 0.67657 0.72242 0.0
O377 O 0.90311 0.67278 0.70863 0.0
O378 O 0.98522 0.6547 0.72566 0.0
C379 C 0.75333 0.66319 0.69577 0.0
O380 O 0.77665 0.66249 0.71557 0.0
C381 C 0.09154 0.57307 0.7279 0.0
C382 C 0.07178 0.5289 0.70887 0.0
C383 C 0.10941 0.54091 0.72486 0.0
N384 N 0.0442 0.57894 0.71467 0.0
N385 N 0.03411 0.55253 0.7031 0.0
C386 C 0.11905 0.59776 0.74267 0.0
H387 H 0.13254 0.61906 0.73281 0.0
H388 H 0.0852 0.60611 0.75469 0.0
H389 H 0.15861 0.58788 0.75139 0.0
C390 C 0.81758 0.58181 0.70435 0.0
N391 N 0.86459 0.6013 0.70054 0.0
N392 N 0.91071 0.59142 0.71212 0.0
C393 C 0.89321 0.56624 0.72464 0.0
C394 C 0.83379 0.55946 0.71996 0.0
C395 C 0.7572 0.58463 0.69391 0.0
H396 H 0.76031 0.59681 0.67779 0.0
H397 H 0.72706 0.59824 0.70497 0.0
H398 H 0.73728 0.56032 0.6916 0.0
O399 O 0.91994 0.64085 0.66198 0.0
O400 O 0.00385 0.62292 0.67744 0.0
H401 H 0.95267 0.52893 0.73496 0.0
H402 H 0.90252 0.54261 0.7559 0.0
C403 C 0.93075 0.5506 0.74196 0.0
H404 H 0.9657 0.5675 0.74789 0.0
H405 H 0.99984 0.55034 0.69155 0.0
O406 O 0.78728 0.65566 0.67992 0.0
C407 C 0.97478 0.63313 0.66089 0.0
Co408 Co 0.61442 0.38813 0.4401 0.0
Co409 Co 0.73 0.41678 0.4628 0.0
C410 C 0.69368 0.35045 0.47296 0.0
O411 O 0.64961 0.35483 0.45988 0.0
O412 O 0.73277 0.37259 0.47683 0.0
C413 C 0.49498 0.36287 0.44373 0.0
O414 O 0.51539 0.34223 0.45827 0.0
C415 C 0.83675 0.45934 0.4782 0.0
C416 C 0.79418 0.50544 0.46873 0.0
C417 C 0.84536 0.49288 0.47798 0.0
N418 N 0.7817 0.45292 0.47 0.0
N419 N 0.75787 0.48078 0.46401 0.0
C420 C 0.88142 0.43404 0.4842 0.0
H421 H 0.89051 0.41881 0.46963 0.0
H422 H 0.86227 0.41825 0.49709 0.0
H423 H 0.92392 0.44494 0.49005 0.0
C424 C 0.56132 0.44567 0.45995 0.0
N425 N 0.60899 0.42717 0.45508 0.0
N426 N 0.65254 0.43366 0.46878 0.0
C427 C 0.63225 0.45467 0.48398 0.0
C428 C 0.57398 0.46294 0.4787 0.0
C429 C 0.50736 0.45027 0.44574 0.0
H430 H 0.5092 0.43543 0.4307 0.0
H431 H 0.46638 0.4454 0.45531 0.0
H432 H 0.50482 0.47597 0.44074 0.0
O433 O 0.66453 0.39195 0.41462 0.0
O434 O 0.74709 0.41028 0.43078 0.0
H435 H 0.6808 0.49194 0.50035 0.0
H436 H 0.63908 0.46609 0.51817 0.0
C437 C 0.6674 0.46652 0.50324 0.0
H438 H 0.70788 0.45151 0.50584 0.0
H439 H 0.71661 0.48312 0.45617 0.0
O440 O 0.53144 0.37831 0.43176 0.0
C441 C 0.71876 0.40086 0.41384 0.0
Co442 Co 0.14196 0.39073 0.43868 0.0
Co443 Co 0.02999 0.35983 0.46212 0.0
C444 C 0.06199 0.42683 0.47196 0.0
O445 O 0.10483 0.42311 0.45839 0.0
O446 O 0.02503 0.40392 0.47636 0.0
C447 C 0.25613 0.41277 0.44641 0.0
O448 O 0.23162 0.41311 0.46599 0.0
C449 C 0.92428 0.31822 0.47885 0.0
C450 C 0.96549 0.27134 0.47049 0.0
C451 C 0.91489 0.28478 0.47957 0.0
N452 N 0.97917 0.32379 0.4703 0.0
N453 N 1.00225 0.29547 0.46499 0.0
C454 C 0.88039 0.34415 0.48433 0.0
H455 H 0.87205 0.35902 0.46951 0.0
H456 H 0.89993 0.36013 0.49705 0.0
H457 H 0.83745 0.33386 0.49022 0.0
C458 C 0.20159 0.3348 0.45862 0.0
N459 N 0.15209 0.35198 0.45383 0.0
N460 N 0.10908 0.34381 0.46734 0.0
C461 C 0.13152 0.32299 0.48231 0.0
C462 C 0.19062 0.31661 0.47708 0.0
C463 C 0.258 0.33431 0.4455 0.0
H464 H 0.2521 0.3467 0.42955 0.0
H465 H 0.29456 0.34547 0.45517 0.0
H466 H 0.27144 0.30894 0.44242 0.0
O467 O 0.09123 0.38542 0.41339 0.0
O468 O 0.01056 0.36587 0.43011 0.0
H469 H 0.08629 0.28474 0.4989 0.0
H470 H 0.12746 0.31121 0.51651 0.0
C471 C 0.09829 0.31038 0.50177 0.0
H472 H 0.05709 0.32464 0.50472 0.0
H473 H 0.04324 0.29246 0.45711 0.0
O474 O 0.22238 0.40553 0.43039 0.0
C475 C 0.0375 0.37559 0.41294 0.0
Co476 Co 0.61485 0.38822 0.2983 0.0
Co477 Co 0.73693 0.36404 0.27794 0.0
C478 C 0.69012 0.42712 0.26476 0.0
O479 O 0.64657 0.42144 0.27777 0.0
O480 O 0.73261 0.40665 0.26177 0.0
C481 C 0.49318 0.41167 0.29325 0.0
O482 O 0.51408 0.43228 0.27881 0.0
C483 C 0.84269 0.32426 0.25949 0.0
C484 C 0.82313 0.28152 0.28001 0.0
C485 C 0.85968 0.29208 0.26327 0.0
N486 N 0.7968 0.33143 0.27304 0.0
N487 N 0.78698 0.3059 0.2855 0.0
C488 C 0.86869 0.34755 0.2434 0.0
H489 H 0.88397 0.36946 0.25224 0.0
H490 H 0.83344 0.35525 0.23168 0.0
H491 H 0.90677 0.33669 0.23441 0.0
C492 C 0.57432 0.32586 0.28096 0.0
N493 N 0.61768 0.34761 0.28511 0.0
N494 N 0.66458 0.34088 0.27308 0.0
C495 C 0.65091 0.31591 0.25974 0.0
C496 C 0.59323 0.30563 0.26442 0.0
C497 C 0.5154 0.32394 0.29242 0.0
H498 H 0.51697 0.33633 0.3085 0.0
H499 H 0.48057 0.33466 0.28185 0.0
H500 H 0.50289 0.2983 0.29499 0.0
O501 O 0.66373 0.38922 0.32458 0.0
O502 O 0.75042 0.37471 0.30963 0.0
H503 H 0.7164 0.28264 0.24817 0.0
H504 H 0.66339 0.29513 0.22774 0.0
C505 C 0.69049 0.30352 0.2419 0.0
H506 H 0.72213 0.32258 0.23655 0.0
H507 H 0.75322 0.30464 0.29726 0.0
O508 O 0.5292 0.39528 0.30488 0.0
C509 C 0.7195 0.38372 0.32603 0.0
Co510 Co 0.12997 0.38905 0.2954 0.0
Co511 Co 0.00353 0.41282 0.27758 0.0
C512 C 0.05805 0.34863 0.26418 0.0
O513 O 0.10316 0.35509 0.27606 0.0
O514 O 0.01455 0.36868 0.26229 0.0
C515 C 0.24938 0.36759 0.29013 0.0
O516 O 0.2273 0.36019 0.2708 0.0
C517 C 0.91347 0.45425 0.25311 0.0
C518 C 0.84504 0.4584 0.27895 0.0
C519 C 0.86197 0.47131 0.25899 0.0
N520 N 0.92853 0.43418 0.26968 0.0
N521 N 0.88564 0.43594 0.28456 0.0
C522 C 0.94743 0.45688 0.23208 0.0
H523 H 0.99353 0.44737 0.23403 0.0
H524 H 0.94759 0.48214 0.22604 0.0
H525 H 0.92476 0.4419 0.2195 0.0
C526 C 0.16995 0.4502 0.27699 0.0
N527 N 0.12545 0.42931 0.28143 0.0
N528 N 0.07373 0.44142 0.27488 0.0
C529 C 0.08492 0.47157 0.26699 0.0
C530 C 0.14606 0.47717 0.26741 0.0
C531 C 0.23499 0.44491 0.28168 0.0
H532 H 0.24105 0.43723 0.29893 0.0
H533 H 0.25246 0.42614 0.27048 0.0
H534 H 0.26157 0.4672 0.2791 0.0
O535 O 0.08051 0.38774 0.32174 0.0
O536 O 0.99122 0.40264 0.30921 0.0
H537 H 0.05514 0.52062 0.2683 0.0
H538 H 0.03541 0.49973 0.24396 0.0
C539 C 0.03957 0.49695 0.26196 0.0
H540 H 0.99622 0.49128 0.26971 0.0
H541 H 0.88593 0.42337 0.29937 0.0
O542 O 0.21387 0.38017 0.30392 0.0
C543 C 0.02521 0.39327 0.32467 0.0
Co544 Co 0.88718 0.13951 0.55 0.0
Co545 Co 0.76976 0.11082 0.52808 0.0
C546 C 0.81126 0.17574 0.51578 0.0
O547 O 0.85369 0.17139 0.52944 0.0
O548 O 0.77137 0.15398 0.51219 0.0
C549 C 0.0036 0.16163 0.54286 0.0
O550 O 0.98111 0.162 0.52293 0.0
C551 C 0.66372 0.07278 0.508 0.0
C552 C 0.68336 0.02739 0.52566 0.0
C553 C 0.64541 0.0405 0.51017 0.0
N554 N 0.71158 0.07767 0.52121 0.0
N555 N 0.72159 0.0505 0.53195 0.0
C556 C 0.63565 0.09858 0.49428 0.0
H557 H 0.62357 0.11932 0.5049 0.0
H558 H 0.66872 0.10746 0.48214 0.0
H559 H 0.59514 0.08952 0.48572 0.0
C560 C 0.9391 0.08029 0.53193 0.0
N561 N 0.89194 0.09953 0.53609 0.0
N562 N 0.84576 0.08992 0.52441 0.0
C563 C 0.86339 0.06516 0.51152 0.0
C564 C 0.92291 0.05836 0.51603 0.0
C565 C 0.99949 0.0829 0.54239 0.0
H566 H 0.99621 0.09414 0.55882 0.0
H567 H 0.02924 0.09738 0.5317 0.0
H568 H 0.01999 0.05863 0.54406 0.0
O569 O 0.8357 0.13755 0.57542 0.0
O570 O 0.75189 0.11997 0.55967 0.0
H571 H 0.80453 0.02781 0.50079 0.0
H572 H 0.85401 0.0425 0.47995 0.0
C573 C 0.82584 0.04985 0.49407 0.0
H574 H 0.79048 0.06671 0.48844 0.0
H575 H 0.75603 0.04748 0.54334 0.0
O576 O 0.96907 0.15298 0.55828 0.0
C577 C 0.78082 0.12981 0.57637 0.0
Co578 Co 0.37606 0.14767 0.54878 0.0
Co579 Co 0.50174 0.16797 0.52867 0.0
C580 C 0.44288 0.10631 0.51559 0.0
O581 O 0.39939 0.11376 0.52805 0.0
O582 O 0.48779 0.12519 0.51326 0.0
C583 C 0.25221 0.12742 0.54407 0.0
O584 O 0.27135 0.10776 0.52872 0.0
C585 C 0.59449 0.20587 0.50379 0.0
C586 C 0.65691 0.2157 0.53096 0.0
C587 C 0.64316 0.22514 0.50978 0.0
N588 N 0.57749 0.18823 0.52127 0.0
N589 N 0.61713 0.19315 0.53704 0.0
C590 C 0.56523 0.20385 0.48176 0.0
H591 H 0.52053 0.19235 0.48307 0.0
H592 H 0.56265 0.22802 0.47399 0.0
H593 H 0.59276 0.18827 0.47098 0.0
C594 C 0.34306 0.21214 0.53515 0.0
N595 N 0.38529 0.18917 0.53695 0.0
N596 N 0.43392 0.19803 0.52628 0.0
C597 C 0.42152 0.22696 0.51665 0.0
C598 C 0.36326 0.23588 0.52144 0.0
C599 C 0.28355 0.21199 0.54628 0.0
H600 H 0.28725 0.20122 0.56285 0.0
H601 H 0.25163 0.19812 0.53622 0.0
H602 H 0.26581 0.23691 0.54783 0.0
O603 O 0.42584 0.14301 0.57468 0.0
O604 O 0.51396 0.15635 0.56029 0.0
H605 H 0.50847 0.24628 0.51041 0.0
H606 H 0.44827 0.27267 0.50313 0.0
C607 C 0.46308 0.24711 0.50335 0.0
H608 H 0.46236 0.23852 0.48617 0.0
H609 H 0.61446 0.18311 0.55269 0.0
O610 O 0.28968 0.14279 0.55579 0.0
C611 C 0.482 0.14719 0.57637 0.0
Co612 Co 0.88654 0.14489 0.69078 0.0
Co613 Co 0.76547 0.16903 0.71253 0.0
C614 C 0.81883 0.10628 0.72558 0.0
O615 O 0.86068 0.11147 0.71188 0.0
O616 O 0.77675 0.12678 0.72883 0.0
C617 C 0.00905 0.12219 0.69443 0.0
O618 O 0.99026 0.10154 0.70923 0.0
C619 C 0.67301 0.21097 0.73611 0.0
C620 C 0.61877 0.22412 0.70727 0.0
C621 C 0.6278 0.23182 0.72905 0.0
N622 N 0.69223 0.19333 0.71885 0.0
N623 N 0.6573 0.20055 0.702 0.0
C624 C 0.69568 0.20736 0.75904 0.0
H625 H 0.73484 0.19094 0.75954 0.0
H626 H 0.7064 0.23133 0.76614 0.0
H627 H 0.65989 0.19669 0.76932 0.0
C628 C 0.92766 0.20808 0.70461 0.0
N629 N 0.88254 0.18675 0.70267 0.0
N630 N 0.83694 0.19603 0.71481 0.0
C631 C 0.85463 0.22285 0.72594 0.0
C632 C 0.91291 0.23059 0.72012 0.0
C633 C 0.98439 0.20787 0.69169 0.0
H634 H 0.97779 0.19604 0.67558 0.0
H635 H 0.01933 0.19544 0.70123 0.0
H636 H 1.00021 0.23294 0.68893 0.0
O637 O 0.83675 0.14186 0.66506 0.0
O638 O 0.75155 0.15683 0.6808 0.0
H639 H 0.77397 0.24595 0.73569 0.0
H640 H 0.84046 0.26387 0.74699 0.0
C641 C 0.81874 0.24069 0.74251 0.0
H642 H 0.81514 0.22581 0.75753 0.0
H643 H 0.66227 0.19114 0.68626 0.0
O644 O 0.97149 0.13825 0.68326 0.0
C645 C 0.78097 0.14727 0.66416 0.0
Co646 Co 0.36579 0.14142 0.68779 0.0
Co647 Co 0.4773 0.11164 0.71246 0.0
C648 C 0.44293 0.17828 0.72161 0.0
O649 O 0.40124 0.17414 0.70759 0.0
O650 O 0.48004 0.15572 0.72665 0.0
C651 C 0.25227 0.16501 0.69439 0.0
O652 O 0.27633 0.16609 0.71406 0.0
C653 C 0.58372 0.07039 0.7291 0.0
C654 C 0.54131 0.02331 0.72203 0.0
C655 C 0.59289 0.03693 0.73026 0.0
N656 N 0.52799 0.07575 0.72115 0.0
N657 N 0.50425 0.04729 0.71658 0.0
C658 C 0.62858 0.09647 0.73324 0.0
H659 H 0.63239 0.11193 0.71844 0.0
H660 H 0.61264 0.112 0.74684 0.0
H661 H 0.67306 0.08622 0.73742 0.0
C662 C 0.30565 0.08628 0.70846 0.0
N663 N 0.35527 0.10322 0.70346 0.0
N664 N 0.3982 0.09549 0.71719 0.0
C665 C 0.3757 0.07519 0.73242 0.0
C666 C 0.31678 0.06856 0.72715 0.0
C667 C 0.24846 0.08636 0.69572 0.0
H668 H 0.25471 0.09728 0.6793 0.0
H669 H 0.21382 0.09956 0.70511 0.0
H670 H 0.23208 0.06124 0.69373 0.0
O671 O 0.41827 0.13575 0.66307 0.0
O672 O 0.49865 0.11764 0.68077 0.0
H673 H 0.42025 0.03775 0.75014 0.0
H674 H 0.3791 0.06528 0.76691 0.0
C675 C 0.40851 0.06357 0.7523 0.0
H676 H 0.44976 0.0779 0.75506 0.0
H677 H 0.46286 0.04401 0.709 0.0
O678 O 0.28576 0.15607 0.67874 0.0
C679 C 0.47245 0.12666 0.66327 0.0
Co680 Co 0.11759 0.89281 0.43895 0.0
Co681 Co 0.23816 0.91828 0.45998 0.0
C682 C 0.19331 0.85419 0.47231 0.0
O683 O 0.14954 0.85938 0.45927 0.0
O684 O 0.23484 0.87519 0.47556 0.0
C685 C 0.99613 0.86963 0.44353 0.0
O686 O 0.01632 0.84869 0.45791 0.0
C687 C 0.34166 0.95957 0.47907 0.0
C688 C 0.3206 1.00197 0.45841 0.0
C689 C 0.35729 0.99194 0.47528 0.0
N690 N 0.29643 0.95169 0.46533 0.0
N691 N 0.28568 0.97708 0.45282 0.0
C692 C 0.36877 0.93672 0.49521 0.0
H693 H 0.39473 0.91829 0.48613 0.0
H694 H 0.33285 0.924 0.50431 0.0
H695 H 0.39923 0.94933 0.50673 0.0
C696 C 0.07455 0.95453 0.45636 0.0
N697 N 0.11866 0.93319 0.45244 0.0
N698 N 0.16488 0.94025 0.46479 0.0
C699 C 0.14995 0.96492 0.47816 0.0
C700 C 0.09223 0.97469 0.47313 0.0
C701 C 0.01642 0.95648 0.4443 0.0
H702 H 0.0188 0.94392 0.4283 0.0
H703 H 0.9807 0.94613 0.45461 0.0
H704 H 0.0045 0.98213 0.44143 0.0
O705 O 0.16669 0.89305 0.41293 0.0
O706 O 0.25237 0.90875 0.42824 0.0
H707 H 0.21373 0.99897 0.49006 0.0
H708 H 0.16089 0.98568 0.51025 0.0
C709 C 0.18864 0.97772 0.49618 0.0
H710 H 0.22097 0.95904 0.50161 0.0
H711 H 0.25212 0.97786 0.44092 0.0
O712 O 0.03269 0.88547 0.43182 0.0
C713 C 0.22207 0.89957 0.4117 0.0
Co714 Co 0.63975 0.89339 0.43737 0.0
Co715 Co 0.52427 0.86323 0.4589 0.0
C716 C 0.5565 0.92989 0.46961 0.0
O717 O 0.6009 0.92511 0.45686 0.0
O718 O 0.51787 0.9075 0.47326 0.0
C719 C 0.75445 0.91557 0.44589 0.0
O720 O 0.73014 0.91562 0.4655 0.0
C721 C 0.41936 0.81985 0.47496 0.0
C722 C 0.45964 0.77457 0.46277 0.0
C723 C 0.41067 0.78632 0.47391 0.0
N724 N 0.47238 0.82695 0.4654 0.0
N725 N 0.49477 0.79963 0.4578 0.0
C726 C 0.37682 0.84464 0.48349 0.0
H727 H 0.36728 0.86249 0.47039 0.0
H728 H 0.39812 0.85779 0.49729 0.0
H729 H 0.33437 0.83341 0.48906 0.0
C730 C 0.69571 0.8366 0.45736 0.0
N731 N 0.64746 0.8546 0.45233 0.0
N732 N 0.60253 0.84619 0.46492 0.0
C733 C 0.62223 0.82393 0.47944 0.0
C734 C 0.68168 0.81717 0.47493 0.0
C735 C 0.7543 0.83717 0.44557 0.0
H736 H 0.75014 0.84932 0.42947 0.0
H737 H 0.78814 0.8494 0.45596 0.0
H738 H 0.77037 0.81214 0.44293 0.0
O739 O 0.59136 0.88895 0.41135 0.0
O740 O 0.50825 0.87022 0.42678 0.0
H741 H 0.57185 0.78516 0.4932 0.0
H742 H 0.61337 0.80825 0.51281 0.0
C743 C 0.58585 0.80998 0.49768 0.0
H744 H 0.54565 0.82495 0.50086 0.0
H745 H 0.53474 0.79798 0.44906 0.0
O746 O 0.72082 0.90815 0.42988 0.0
C747 C 0.5373 0.87985 0.41007 0.0
Co748 Co 0.11839 0.89178 0.29587 0.0
Co749 Co 0.23811 0.86345 0.27565 0.0
C750 C 0.1926 0.92892 0.26324 0.0
O751 O 0.14982 0.9251 0.27661 0.0
O752 O 0.23144 0.90672 0.25972 0.0
C753 C 0.00338 0.91722 0.29004 0.0
O754 O 0.0266 0.92276 0.27063 0.0
C755 C 0.32826 0.82006 0.25213 0.0
C756 C 0.3888 0.81097 0.28003 0.0
C757 C 0.37628 0.801 0.25892 0.0
N758 N 0.31084 0.83894 0.26901 0.0
N759 N 0.34938 0.83416 0.28521 0.0
C760 C 0.30029 0.82023 0.22987 0.0
H761 H 0.25821 0.83445 0.22989 0.0
H762 H 0.29252 0.79516 0.22414 0.0
H763 H 0.33189 0.83154 0.21815 0.0
C764 C 0.06745 0.83241 0.27771 0.0
N765 N 0.11536 0.85134 0.28164 0.0
N766 N 0.16373 0.83826 0.27291 0.0
C767 C 0.14658 0.8101 0.26329 0.0
C768 C 0.08524 0.80631 0.26557 0.0
C769 C 0.00483 0.83885 0.28516 0.0
H770 H 0.00495 0.84808 0.30219 0.0
H771 H 0.98398 0.85664 0.27397 0.0
H772 H 0.97708 0.81667 0.28467 0.0
O773 O 0.16716 0.89035 0.32198 0.0
O774 O 0.25246 0.87396 0.30718 0.0
H775 H 0.16783 0.76109 0.25515 0.0
H776 H 0.18993 0.79042 0.23533 0.0
C777 C 0.18682 0.78567 0.25316 0.0
H778 H 0.23131 0.78636 0.26102 0.0
H779 H 0.3469 0.84521 0.30053 0.0
O780 O 0.03713 0.90454 0.30438 0.0
C781 C 0.22218 0.88342 0.32354 0.0
Co782 Co 0.64049 0.89362 0.29537 0.0
Co783 Co 0.51967 0.91738 0.27342 0.0
C784 C 0.57256 0.85421 0.26101 0.0
O785 O 0.6145 0.85978 0.27463 0.0
O786 O 0.53045 0.87464 0.25751 0.0
C787 C 0.76229 0.87161 0.29093 0.0
O788 O 0.74282 0.85155 0.27585 0.0
C789 C 0.42702 0.95921 0.24966 0.0
C790 C 0.37395 0.97315 0.27857 0.0
C791 C 0.38223 0.98032 0.25668 0.0
N792 N 0.44662 0.94185 0.26703 0.0
N793 N 0.41244 0.94959 0.28394 0.0
C794 C 0.44928 0.95527 0.22673 0.0
H795 H 0.48847 0.93886 0.22631 0.0
H796 H 0.45985 0.97913 0.21945 0.0
H797 H 0.41336 0.94441 0.21656 0.0
C798 C 0.68193 0.95654 0.28104 0.0
N799 N 0.63672 0.93529 0.28311 0.0
N800 N 0.59123 0.94434 0.27079 0.0
C801 C 0.60903 0.97095 0.25944 0.0
C802 C 0.66736 0.97877 0.26529 0.0
C803 C 0.73736 0.95742 0.29477 0.0
H804 H 0.73084 0.94452 0.31049 0.0
H805 H 0.77475 0.94695 0.28543 0.0
H806 H 0.74976 0.98281 0.29836 0.0
O807 O 0.59132 0.89095 0.32117 0.0
O808 O 0.50605 0.90569 0.30531 0.0
H809 H 0.5284 0.99414 0.24962 0.0
H810 H 0.59489 1.01176 0.23817 0.0
C811 C 0.57304 0.98869 0.24279 0.0
H812 H 0.56905 0.97365 0.22786 0.0
H813 H 0.41789 0.94054 0.29975 0.0
O814 O 0.72529 0.88694 0.30275 0.0
C815 C 0.53553 0.89629 0.32202 0.0
Co816 Co 0.88806 0.63412 0.04528 0.0
Co817 Co 0.76289 0.61042 0.02638 0.0
C818 C 0.81665 0.67242 0.01144 0.0
O819 O 0.86011 0.66699 0.02442 0.0
O820 O 0.77346 0.65229 0.00923 0.0
C821 C 0.01037 0.65475 0.03811 0.0
O822 O 0.98941 0.67243 0.02197 0.0
C823 C 0.66975 0.56864 0.00414 0.0
C824 C 0.61556 0.55669 0.0332 0.0
C825 C 0.62539 0.54759 0.01169 0.0
N826 N 0.68826 0.58729 0.02098 0.0
N827 N 0.65332 0.58092 0.03793 0.0
C828 C 0.69419 0.57093 0.98138 0.0
H829 H 0.73716 0.58435 0.98134 0.0
H830 H 0.69892 0.5466 0.974 0.0
H831 H 0.66236 0.58475 0.97106 0.0
C832 C 0.92385 0.56939 0.03296 0.0
N833 N 0.8807 0.59193 0.03431 0.0
N834 N 0.83224 0.58185 0.02399 0.0
C835 C 0.84569 0.55274 0.0149 0.0
C836 C 0.90424 0.54471 0.0199 0.0
C837 C 0.98301 0.57041 0.04438 0.0
H838 H 0.97923 0.58303 0.06033 0.0
H839 H 0.01559 0.58279 0.03378 0.0
H840 H 1.0 0.5456 0.04728 0.0
O841 O 0.84168 0.63813 0.0718 0.0
O842 O 0.75361 0.62313 0.05806 0.0
H843 H 0.76072 0.53111 0.00884 0.0
H844 H 0.82282 0.50711 0.00022 0.0
C845 C 0.80545 0.53214 0.00135 0.0
H846 H 0.8036 0.54194 0.98449 0.0
H847 H 0.65827 0.59121 0.05342 0.0
O848 O 0.97441 0.64068 0.05109 0.0
C849 C 0.78603 0.63291 0.07392 0.0
Co850 Co 0.37549 0.64055 0.04612 0.0
Co851 Co 0.49998 0.66701 0.02863 0.0
C852 C 0.44856 0.60398 0.01293 0.0
O853 O 0.4049 0.60812 0.02588 0.0
O854 O 0.49026 0.62509 0.011 0.0
C855 C 0.25796 0.6181 0.03873 0.0
O856 O 0.28128 0.61361 0.01921 0.0
C857 C 0.5894 0.70995 0.00544 0.0
C858 C 0.6519 0.7182 0.03291 0.0
C859 C 0.63739 0.72918 0.01216 0.0
N860 N 0.57365 0.69038 0.02215 0.0
N861 N 0.61317 0.6946 0.03808 0.0
C862 C 0.55848 0.71064 0.98368 0.0
H863 H 0.51331 0.69965 0.98486 0.0
H864 H 0.5563 0.73562 0.97719 0.0
H865 H 0.58476 0.69606 0.97188 0.0
C866 C 0.33269 0.70267 0.02974 0.0
N867 N 0.37799 0.68199 0.03357 0.0
N868 N 0.42887 0.69471 0.02674 0.0
C869 C 0.41623 0.72468 0.01892 0.0
C870 C 0.35515 0.72989 0.01997 0.0
C871 C 0.2681 0.69674 0.03476 0.0
H872 H 0.26337 0.68704 0.05158 0.0
H873 H 0.24967 0.67933 0.02274 0.0
H874 H 0.24158 0.71932 0.03358 0.0
O875 O 0.42383 0.6386 0.07259 0.0
O876 O 0.51243 0.65415 0.05988 0.0
H877 H 0.50376 0.74561 0.02006 0.0
H878 H 0.44411 0.77405 0.01667 0.0
C879 C 0.46027 0.74969 0.01201 0.0
H880 H 0.46409 0.74958 -0.00608 0.0
H881 H 0.61142 0.68301 0.05324 0.0
O882 O 0.29192 0.62957 0.0535 0.0
C883 C 0.47919 0.64413 0.07534 0.0
Co884 Co 0.88528 0.63475 0.1935 0.0
Co885 Co 0.76308 0.66371 0.21111 0.0
C886 C 0.80696 0.59598 0.22299 0.0
O887 O 0.85305 0.59989 0.21113 0.0
O888 O 0.76777 0.61844 0.22539 0.0
C889 C 1.00248 0.60789 0.1956 0.0
O890 O 0.98154 0.59569 0.21391 0.0
C891 C 0.67473 0.70872 0.23405 0.0
C892 C 0.61186 0.71548 0.20653 0.0
C893 C 0.62674 0.72754 0.22691 0.0
N894 N 0.68998 0.68793 0.21793 0.0
N895 N 0.65002 0.69134 0.20204 0.0
C896 C 0.70465 0.71047 0.25594 0.0
H897 H 0.74822 0.69764 0.2557 0.0
H898 H 0.70998 0.73597 0.26115 0.0
H899 H 0.67545 0.69856 0.26821 0.0
C900 C 0.93491 0.69145 0.21572 0.0
N901 N 0.88718 0.67367 0.20962 0.0
N902 N 0.83735 0.68837 0.2156 0.0
C903 C 0.85323 0.71721 0.22454 0.0
C904 C 0.91513 0.71922 0.22551 0.0
C905 C 0.99903 0.68246 0.21229 0.0
H906 H 0.00725 0.67837 0.1946 0.0
H907 H 0.00889 0.66021 0.22166 0.0
H908 H 0.03009 0.70158 0.218 0.0
O909 O 0.8384 0.63842 0.1667 0.0
O910 O 0.75169 0.65652 0.17921 0.0
H911 H 0.83247 0.76758 0.22372 0.0
H912 H 0.8068 0.74684 0.24744 0.0
C913 C 0.81221 0.74462 0.22945 0.0
H914 H 0.76883 0.74136 0.22109 0.0
H915 H 0.65087 0.67869 0.18727 0.0
O916 O 0.96685 0.6244 0.18393 0.0
C917 C 0.78464 0.64697 0.16363 0.0
Co918 Co 0.35689 0.63878 0.1879 0.0
Co919 Co 0.47016 0.61086 0.21225 0.0
C920 C 0.43175 0.67663 0.22202 0.0
O921 O 0.38945 0.67205 0.20824 0.0
O922 O 0.4706 0.65471 0.22655 0.0
C923 C 0.23777 0.66231 0.19187 0.0
O924 O 0.25766 0.68105 0.20764 0.0
C925 C 0.57741 0.57056 0.22925 0.0
C926 C 0.53926 0.52355 0.21923 0.0
C927 C 0.58848 0.53722 0.2292 0.0
N928 N 0.52286 0.57572 0.22025 0.0
N929 N 0.50169 0.54739 0.21396 0.0
C930 C 0.61939 0.59693 0.23585 0.0
H931 H 0.62633 0.61346 0.22175 0.0
H932 H 0.59889 0.61128 0.24923 0.0
H933 H 0.66308 0.58705 0.24133 0.0
C934 C 0.30281 0.58029 0.20659 0.0
N935 N 0.35043 0.59937 0.20262 0.0
N936 N 0.39256 0.59306 0.21695 0.0
C937 C 0.37122 0.57164 0.23169 0.0
C938 C 0.31369 0.5629 0.22552 0.0
C939 C 0.25224 0.57446 0.19092 0.0
H940 H 0.24896 0.59325 0.17819 0.0
H941 H 0.20958 0.5716 0.19992 0.0
H942 H 0.26034 0.55132 0.18231 0.0
O943 O 0.40956 0.63534 0.16304 0.0
O944 O 0.49045 0.61751 0.18055 0.0
H945 H 0.42017 0.53446 0.24801 0.0
H946 H 0.37565 0.55884 0.2658 0.0
C947 C 0.40512 0.55953 0.25119 0.0
H948 H 0.44453 0.57504 0.25458 0.0
H949 H 0.46145 0.5442 0.20555 0.0
O950 O 0.27468 0.64921 0.17882 0.0
C951 C 0.46401 0.62674 0.16315 0.0
Co952 Co 0.11923 0.38606 0.93848 0.0
Co953 Co 0.23212 0.41739 0.96127 0.0
C954 C 0.19854 0.3514 0.97283 0.0
O955 O 0.15622 0.35496 0.95898 0.0
O956 O 0.23644 0.37408 0.9768 0.0
C957 C 0.006 0.36194 0.94611 0.0
O958 O 0.03005 0.36181 0.96579 0.0
C959 C 0.33743 0.46079 0.97657 0.0
C960 C 0.29431 0.50674 0.96706 0.0
C961 C 0.34558 0.49442 0.97643 0.0
N962 N 0.28257 0.45418 0.96826 0.0
N963 N 0.25849 0.48193 0.96217 0.0
C964 C 0.3822 0.43551 0.98265 0.0
H965 H 0.38945 0.41926 0.96844 0.0
H966 H 0.36408 0.42058 -0.0038 0.0
H967 H 0.42543 0.44647 0.98768 0.0
C968 C 0.06001 0.44228 0.95801 0.0
N969 N 0.10935 0.4251 0.95308 0.0
N970 N 0.15321 0.43379 0.96614 0.0
C971 C 0.13174 0.45517 0.98087 0.0
C972 C 0.07239 0.46136 0.97595 0.0
C973 C 1.00163 0.44078 0.94605 0.0
H974 H 0.00701 0.4294 0.92973 0.0
H975 H 0.96883 0.42718 0.95606 0.0
H976 H 0.98344 0.4655 0.94392 0.0
O977 O 0.16999 0.39023 0.91315 0.0
O978 O 0.25145 0.40954 0.92952 0.0
H979 H 0.17827 0.49375 -0.00332 0.0
H980 H 0.13746 0.46805 0.01487 0.0
C981 C 0.166 0.46827 -1e-05 0.0
H982 H 0.20709 0.45392 0.00299 0.0
H983 H 0.21736 0.48409 0.95422 0.0
O984 O 0.03914 0.37058 0.93029 0.0
C985 C 0.22406 0.39946 0.91254 0.0
Co986 Co 0.63821 0.38332 0.94119 0.0
Co987 Co 0.51341 0.3611 0.9607 0.0
C988 C 0.57125 0.42182 0.97588 0.0
O989 O 0.61388 0.41643 0.96259 0.0
O990 O 0.52756 0.40207 0.97817 0.0
C991 C 0.76185 0.40267 0.9468 0.0
O992 O 0.74328 0.42186 0.96251 0.0
C993 C 0.41964 0.32044 0.98296 0.0
C994 C 0.3627 0.31046 0.9542 0.0
C995 C 0.37388 0.30031 0.97541 0.0
N996 N 0.43773 0.33948 0.96632 0.0
N997 N 0.40114 0.33439 0.9496 0.0
C998 C 0.44534 0.32178 0.0056 0.0
H999 H 0.489 0.33454 0.00554 0.0
H1000 H 0.44907 0.29722 0.01272 0.0
H1001 H 0.41482 0.33589 0.01622 0.0
C1002 C 0.672 0.31797 0.95309 0.0
N1003 N 0.6296 0.34095 0.95187 0.0
N1004 N 0.58114 0.33132 0.96232 0.0
C1005 C 0.59387 0.30204 0.97133 0.0
C1006 C 0.65204 0.29347 0.96622 0.0
C1007 C 0.73138 0.31865 0.9419 0.0
H1008 H 0.728 0.33095 0.92581 0.0
H1009 H 0.76378 0.33116 0.95255 0.0
H1010 H 0.74827 0.29376 0.93928 0.0
O1011 O 0.59023 0.38872 0.91513 0.0
O1012 O 0.50236 0.37508 0.92947 0.0
H1013 H 0.50828 0.28145 0.97782 0.0
H1014 H 0.56976 0.25654 0.98589 0.0
C1015 C 0.55347 0.28181 0.98503 0.0
H1016 H 0.55314 0.29137 0.00197 0.0
H1017 H 0.40536 0.34527 0.93427 0.0
O1018 O 0.72409 0.38852 0.93455 0.0
C1019 C 0.53415 0.38461 0.91344 0.0
Co1020 Co 0.12418 0.38963 0.79701 0.0
Co1021 Co 0.24561 0.3639 0.7764 0.0
C1022 C 0.19891 0.4289 0.76469 0.0
O1023 O 0.15523 0.42288 0.77739 0.0
O1024 O 0.24025 0.40798 0.7615 0.0
C1025 C 0.00682 0.41144 0.78994 0.0
O1026 O 0.0291 0.41372 0.77008 0.0
C1027 C 0.33798 0.32193 0.75276 0.0
C1028 C 0.39335 0.30931 0.78142 0.0
C1029 C 0.38406 0.30157 0.75967 0.0
N1030 N 0.3185 0.33932 0.77008 0.0
N1031 N 0.35408 0.33245 0.78682 0.0
C1032 C 0.31436 0.32512 0.72993 0.0
H1033 H 0.27415 0.34081 0.7296 0.0
H1034 H 0.30487 0.30096 0.72291 0.0
H1035 H 0.34919 0.3364 0.7195 0.0
C1036 C 0.07669 0.3297 0.77926 0.0
N1037 N 0.12376 0.34919 0.78316 0.0
N1038 N 0.17153 0.3383 0.77278 0.0
C1039 C 0.15426 0.3115 0.76151 0.0
C1040 C 0.09369 0.306 0.76493 0.0
C1041 C 0.01535 0.33331 0.78875 0.0
H1042 H 0.01758 0.34389 0.8054 0.0
H1043 H 0.98794 0.34864 0.77775 0.0
H1044 H 0.9928 0.30949 0.78983 0.0
O1045 O 0.17275 0.38932 0.82322 0.0
O1046 O 0.25855 0.37394 0.80829 0.0
H1047 H 0.23744 0.28795 0.75542 0.0
H1048 H 0.17312 0.26671 0.74508 0.0
C1049 C 0.19328 0.29093 0.74753 0.0
H1050 H 0.19771 0.30234 0.7312 0.0
H1051 H 0.34942 0.3419 0.80256 0.0
O1052 O 0.04167 0.40165 0.80497 0.0
C1053 C 0.22807 0.38303 0.82473 0.0
Co1054 Co 0.64036 0.39647 0.79912 0.0
Co1055 Co 0.5191 0.42004 0.77695 0.0
C1056 C 0.5673 0.35592 0.76618 0.0
O1057 O 0.61013 0.36215 0.77938 0.0
O1058 O 0.52521 0.37631 0.76213 0.0
C1059 C 0.76104 0.37213 0.79536 0.0
O1060 O 0.73953 0.35067 0.7816 0.0
C1061 C 0.41427 0.46008 0.75694 0.0
C1062 C 0.43335 0.50291 0.77742 0.0
C1063 C 0.39728 0.49236 0.76051 0.0
N1064 N 0.45963 0.45283 0.77082 0.0
N1065 N 0.46916 0.4785 0.7832 0.0
C1066 C 0.38833 0.43672 0.74086 0.0
H1067 H 0.37159 0.41521 0.74979 0.0
H1068 H 0.42398 0.42836 0.72956 0.0
H1069 H 0.35125 0.4478 0.73139 0.0
C1070 C 0.6821 0.45742 0.78046 0.0
N1071 N 0.63829 0.43607 0.78471 0.0
N1072 N 0.59195 0.44248 0.77224 0.0
C1073 C 0.60651 0.46679 0.75851 0.0
C1074 C 0.66408 0.47694 0.76341 0.0
C1075 C 0.74059 0.45956 0.79228 0.0
H1076 H 0.73754 0.4487 0.80883 0.0
H1077 H 0.7753 0.44729 0.78251 0.0
H1078 H 0.75441 0.48518 0.79388 0.0
O1079 O 0.59035 0.39775 0.82482 0.0
O1080 O 0.50453 0.41167 0.80879 0.0
H1081 H 0.54185 0.49994 0.74609 0.0
H1082 H 0.59541 0.48667 0.72615 0.0
C1083 C 0.56772 0.47878 0.74027 0.0
H1084 H 0.53602 0.4597 0.73498 0.0
H1085 H 0.50231 0.47975 0.79524 0.0
O1086 O 0.72551 0.38955 0.80645 0.0
C1087 C 0.53468 0.40366 0.82563 0.0
C1088 C 0.49382 0.04592 0.98503 0.0
C1089 C 0.4584 0.03028 0.00125 0.0
C1090 C 0.51974 0.98148 -0.00193 0.0
C1091 C 0.55492 0.99703 0.98175 0.0
N1092 N 0.58166 0.04449 0.96144 0.0
N1093 N 0.43169 0.98277 0.02152 0.0
C1094 C 0.54359 0.02941 0.97569 0.0
C1095 C 0.46981 0.99791 0.00733 0.0
N1096 N 0.47842 0.07622 0.97812 0.0
N1097 N 0.53558 0.95137 0.0052 0.0
H1098 H 0.39496 0.99433 0.02855 0.0
H1099 H 0.43336 0.95833 0.02527 0.0
H1100 H 0.57169 0.93854 -0.00117 0.0
H1101 H 0.51586 0.93963 0.01841 0.0
H1102 H 0.49855 0.0882 0.96511 0.0
H1103 H 0.4424 0.08905 0.98455 0.0
H1104 H 0.57999 0.0689 0.9576 0.0
H1105 H 0.61828 0.03286 0.95438 0.0
C1106 C 0.69627 0.2385 0.97265 0.0
C1107 C 0.69179 0.2714 0.97867 0.0
C1108 C 0.77565 0.26537 0.0043 0.0
C1109 C 0.77781 0.23207 -0.00072 0.0
N1110 N 0.73596 0.18547 0.98118 0.0
N1111 N 0.71835 0.31487 0.00321 0.0
C1112 C 0.73676 0.21816 0.98419 0.0
C1113 C 0.72897 0.28448 -0.00462 0.0
N1114 N 0.66308 0.22702 0.9555 0.0
N1115 N 0.81871 0.27881 0.0174 0.0
H1116 H 0.73976 0.3245 0.01689 0.0
H1117 H 0.68415 0.32962 -0.00267 0.0
H1118 H 0.8528 0.2654 0.02472 0.0
H1119 H 0.82353 0.30355 0.01969 0.0
H1120 H 0.66899 0.20425 0.94865 0.0
H1121 H 0.63173 0.24111 0.94717 0.0
H1122 H 0.76673 0.16997 0.98858 0.0
H1123 H 0.70265 0.17344 0.97248 0.0
C1124 C 0.55467 0.24992 0.25656 0.0
C1125 C 0.55432 0.28338 0.25174 0.0
C1126 C 0.46992 0.27596 0.22646 0.0
C1127 C 0.46871 0.24277 0.23174 0.0
N1128 N 0.50469 0.19797 0.25321 0.0
N1129 N 0.51385 0.32791 0.23044 0.0
C1130 C 0.50993 0.22961 0.24712 0.0
C1131 C 0.51284 0.29624 0.23638 0.0
N1132 N 0.59848 0.23766 0.26984 0.0
N1133 N 0.43004 0.2885 0.21174 0.0
H1134 H 0.54483 0.34471 0.23626 0.0
H1135 H 0.54483 0.34471 0.23626 0.0
H1136 H 0.39729 0.27465 0.20396 0.0
H1137 H 0.42956 0.3129 0.2075 0.0
H1138 H 0.60528 0.21318 0.27256 0.0
H1139 H 0.63116 0.25206 0.27716 0.0
H1140 H 0.52959 0.18722 0.26563 0.0
H1141 H 0.47217 0.18259 0.24677 0.0
C1142 C 0.79587 1.001 0.227 0.0
C1143 C 0.80733 0.03311 0.23372 0.0
C1144 C 0.72309 0.03079 0.25967 0.0
C1145 C 0.71194 0.99859 0.25309 0.0
N1146 N 0.73111 0.95394 0.22877 0.0
N1147 N 0.78762 0.07794 0.25783 0.0
C1148 C 0.74668 0.98389 0.2363 0.0
C1149 C 0.77237 0.04787 0.25043 0.0
N1150 N 0.83322 0.98677 0.21212 0.0
N1151 N 0.68515 0.04521 0.27427 0.0
H1152 H 0.8231 0.09123 0.25142 0.0
H1153 H 0.76794 0.08922 0.27122 0.0
H1154 H 0.64892 0.03317 0.28129 0.0
H1155 H 0.68649 0.06952 0.27841 0.0
H1156 H 0.8314 0.96259 0.20769 0.0
H1157 H 0.86944 0.99882 0.2051 0.0
H1158 H 0.75036 0.9428 0.21525 0.0
H1159 H 0.69583 0.94056 0.23525 0.0
C1160 C 0.30493 0.78395 0.01667 0.0
C1161 C 0.31924 0.7536 0.0074 0.0
C1162 C 0.24724 0.76255 0.97771 0.0
C1163 C 0.23544 0.79365 0.98624 0.0
N1164 N 0.25972 0.8366 0.01139 0.0
N1165 N 0.31392 0.71657 0.97692 0.0
C1166 C 0.26632 0.80519 0.00502 0.0
C1167 C 0.29344 0.74371 0.98721 0.0
N1168 N 0.32668 0.79196 0.03691 0.0
N1169 N 0.21303 0.75064 0.96095 0.0
H1170 H 0.34794 0.70214 0.98332 0.0
H1171 H 0.30124 0.70994 0.96112 0.0
H1172 H 0.17897 0.76387 0.95344 0.0
H1173 H 0.21494 0.72679 0.95566 0.0
H1174 H 0.31251 0.81208 0.04569 0.0
H1175 H 0.35639 0.77729 0.04556 0.0
H1176 H 0.28585 0.84741 0.02348 0.0
H1177 H 0.23097 0.85265 0.00347 0.0
C1178 C 0.48119 0.81155 0.73554 0.0
C1179 C 0.52297 0.79755 0.75032 0.0
C1180 C 0.4743 0.74507 0.74643 0.0
C1181 C 0.43628 0.75827 0.73005 0.0
N1182 N 0.40604 0.80284 0.70732 0.0
N1183 N 0.5649 0.75068 0.76797 0.0
C1184 C 0.44019 0.79125 0.72419 0.0
C1185 C 0.52121 0.76418 0.7552 0.0
N1186 N 0.48037 0.84424 0.73256 0.0
N1187 N 0.46431 0.71452 0.7541 0.0
H1188 H 0.59897 0.76408 0.77531 0.0
H1189 H 0.57016 0.72591 0.76999 0.0
H1190 H 0.48642 0.70473 0.76757 0.0
H1191 H 0.42999 0.69977 0.74828 0.0
H1192 H 0.51165 0.8597 0.73971 0.0
H1193 H 0.44666 0.85633 0.72411 0.0
H1194 H 0.41144 0.82569 0.70053 0.0
H1195 H 0.37427 0.78879 0.69917 0.0
C1196 C 0.23286 0.06148 0.75405 0.0
C1197 C 0.27389 0.04772 0.73894 0.0
C1198 C 0.22602 0.9952 0.74282 0.0
C1199 C 0.1876 1.0081 0.75918 0.0
N1200 N 0.15708 0.05251 0.78197 0.0
N1201 N 0.31062 1.00149 0.71898 0.0
C1202 C 0.19149 0.04107 0.76517 0.0
C1203 C 0.27097 1.01463 0.73351 0.0
N1204 N 0.23267 0.09411 0.75735 0.0
N1205 N 0.22076 0.96425 0.73552 0.0
H1206 H 0.34481 1.0147 0.71157 0.0
H1207 H 0.30983 0.97712 0.71469 0.0
H1208 H 0.18794 0.94805 0.74067 0.0
H1209 H 0.18794 0.94805 0.74067 0.0
H1210 H 0.19964 0.10622 0.76609 0.0
H1211 H 0.26386 0.10956 0.75017 0.0
H1212 H 0.16222 0.0753 0.78886 0.0
H1213 H 0.12514 0.0384 0.78993 0.0
C1214 C 0.52425 0.51635 0.48276 0.0
C1215 C 0.53219 0.48448 0.49048 0.0
C1216 C 0.45208 0.49212 0.51748 0.0
C1217 C 0.44112 0.52309 0.50854 0.0
N1218 N 0.46005 0.56325 0.48069 0.0
N1219 N 0.50267 0.44052 0.51395 0.0
C1220 C 0.47529 0.53478 0.49058 0.0
C1221 C 0.49585 0.47192 0.50755 0.0
N1222 N 0.5646 0.52923 0.46837 0.0
N1223 N 0.42155 0.48246 0.53575 0.0
H1224 H 0.47397 0.42877 0.52473 0.0
H1225 H 0.53576 0.42546 0.50761 0.0
H1226 H 0.38756 0.49624 0.54279 0.0
H1227 H 0.43163 0.46174 0.54464 0.0
H1228 H 0.56528 0.55346 0.46391 0.0
H1229 H 0.60102 0.51628 0.46231 0.0
H1230 H 0.42469 0.57768 0.48594 0.0
H1231 H 0.47911 0.57138 0.46614 0.0
C1232 C 0.79752 0.78497 0.51527 0.0
C1233 C 0.81043 0.75478 0.50549 0.0
C1234 C 0.73314 0.76396 0.47764 0.0
C1235 C 0.72315 0.79507 0.48645 0.0
N1236 N 0.7512 0.8376 0.5114 0.0
N1237 N 0.79915 0.71779 0.47522 0.0
C1238 C 0.75694 0.80632 0.50463 0.0
C1239 C 0.78079 0.74497 0.48599 0.0
N1240 N 0.82251 0.79274 0.53504 0.0
N1241 N 0.69616 0.75233 0.46159 0.0
H1242 H 0.83424 0.70333 0.48076 0.0
H1243 H 0.78347 0.71112 0.4598 0.0
H1244 H 0.66101 0.76574 0.45496 0.0
H1245 H 0.69696 0.72854 0.45614 0.0
H1246 H 0.80972 0.81271 0.54426 0.0
H1247 H 0.85363 0.77799 0.54294 0.0
H1248 H 0.77942 0.84831 0.52289 0.0
H1249 H 0.72058 0.85362 0.50446 0.0
C1250 C 0.75499 0.55059 0.74831 0.0
C1251 C 0.79221 0.53769 0.73164 0.0
C1252 C 0.74241 0.48529 0.73471 0.0
C1253 C 0.70366 0.49862 0.75077 0.0
N1254 N 0.66566 0.54438 0.77055 0.0
N1255 N 0.81858 0.49462 0.70702 0.0
C1256 C 0.70773 0.53146 0.75686 0.0
C1257 C 0.78522 0.50549 0.7243 0.0
N1258 N 0.76599 0.58084 0.75632 0.0
N1259 N 0.73874 0.45317 0.72973 0.0
H1260 H 0.85199 0.50842 0.69964 0.0
H1261 H 0.81146 0.4727 0.69916 0.0
H1262 H 0.70594 0.43799 0.73616 0.0
H1263 H 0.76937 0.44105 0.71992 0.0
H1264 H 0.74457 0.59052 0.76995 0.0
H1265 H 0.8001 0.59561 0.75038 0.0
H1266 H 0.6622 0.5689 0.77397 0.0
H1267 H 0.63077 0.53082 0.77719 0.0
C1268 C 0.2384 0.26313 0.48359 0.0
C1269 C 0.23446 0.29623 0.4889 0.0
C1270 C 0.31887 0.29076 0.51455 0.0
C1271 C 0.32364 0.25776 0.50873 0.0
N1272 N 0.29067 0.21334 0.48551 0.0
N1273 N 0.2756 0.34327 0.50667 0.0
C1274 C 0.28472 0.24431 0.49266 0.0
C1275 C 0.27614 0.3106 0.50359 0.0
N1276 N 0.19841 0.24939 0.4694 0.0
N1277 N 0.35357 0.30275 0.53113 0.0
H1278 H 0.24329 0.35832 0.49975 0.0
H1279 H 0.30908 0.35579 0.51495 0.0
H1280 H 0.3864 0.28908 0.539 0.0
H1281 H 0.3478 0.32554 0.53796 0.0
H1282 H 0.19993 0.225 0.46519 0.0
H1283 H 0.16324 0.26214 0.4622 0.0
H1284 H 0.32446 0.19761 0.49053 0.0
H1285 H 0.32446 0.19761 0.49053 0.0
C1286 C 0.25495 0.5116 0.22669 0.0
C1287 C 0.27099 0.54109 0.23682 0.0
C1288 C 0.20059 0.53014 0.2668 0.0
C1289 C 0.18132 0.50203 0.25564 0.0
N1290 N 0.18141 0.46905 0.2231 0.0
N1291 N 0.25408 0.58096 0.26499 0.0
C1292 C 0.20565 0.49384 0.23492 0.0
C1293 C 0.24241 0.55112 0.25648 0.0
N1294 N 0.28873 0.49981 0.20983 0.0
N1295 N 0.18029 0.53619 0.28752 0.0
H1296 H 0.28486 0.59689 0.25809 0.0
H1297 H 0.2301 0.59101 0.27791 0.0
H1298 H 0.14779 0.522 0.29511 0.0
H1299 H 0.19794 0.55405 0.29763 0.0
H1300 H 0.28304 0.47685 0.20323 0.0
H1301 H 0.32634 0.5118 0.20381 0.0
H1302 H 0.19339 0.46396 0.20697 0.0
H1303 H 0.1452 0.45545 0.22865 0.0
C1304 C 0.04818 0.02939 0.479 0.0
C1305 C 0.05232 0.99667 0.48545 0.0
C1306 C 0.97108 1.00421 0.512 0.0
C1307 C 0.9642 0.0363 0.50442 0.0
N1308 N 0.99041 0.07896 0.47935 0.0
N1309 N 0.01733 0.95174 0.50702 0.0
C1310 C 1.00124 0.04879 0.48754 0.0
C1311 C 0.01369 0.98374 0.50171 0.0
N1312 N 0.08993 0.04194 0.46502 0.0
N1313 N 0.93782 0.99369 0.52941 0.0
H1314 H 0.04996 0.93638 0.50069 0.0
H1315 H 0.98683 0.93985 0.51702 0.0
H1316 H 0.90452 1.00765 0.53671 0.0
H1317 H 0.94487 0.97191 0.53746 0.0
H1318 H 0.09341 0.06636 0.4613 0.0
H1319 H 0.12451 0.02818 0.45837 0.0
H1320 H 0.01162 0.08839 0.4656 0.0
H1321 H 0.95664 0.09392 0.48531 0.0
C1322 C 0.0399 0.25366 0.75886 0.0
C1323 C 0.05144 0.28565 0.7521 0.0
C1324 C 0.96781 0.28282 0.7258 0.0
C1325 C 0.95724 0.25051 0.7323 0.0
N1326 N 0.98358 0.20518 0.7558 0.0
N1327 N 0.03307 0.32974 0.72721 0.0
C1328 C 0.99322 0.23598 0.74886 0.0
C1329 C 0.01715 0.30001 0.735 0.0
N1330 N 0.07354 0.23982 0.77505 0.0
N1331 N 0.92963 0.2972 0.71123 0.0
H1332 H 0.0692 0.3428 0.73344 0.0
H1333 H 0.0138 0.3406 0.71355 0.0
H1334 H 0.89355 0.28506 0.70414 0.0
H1335 H 0.93068 0.32159 0.70727 0.0
H1336 H 0.0663 0.21627 0.78051 0.0
H1337 H 0.10891 0.25174 0.78276 0.0
H1338 H 0.94977 0.19015 0.74986 0.0
H1339 H 0.94977 0.19015 0.74986 0.0
C1340 C 0.02354 0.78933 0.23306 0.0
C1341 C 0.04444 0.78291 0.25464 0.0
C1342 C 0.97141 0.73908 0.25832 0.0
C1343 C 0.95382 0.74384 0.23619 0.0
N1344 N 0.96684 0.77069 0.20152 0.0
N1345 N 0.04476 0.74955 0.2869 0.0
C1346 C 0.98087 0.76825 0.22329 0.0
C1347 C 0.02018 0.75712 0.26701 0.0
N1348 N 0.04308 0.81618 0.22218 0.0
N1349 N 0.94085 0.71755 0.27108 0.0
H1350 H 0.08044 0.7624 0.29368 0.0
H1351 H 0.03336 0.72913 0.2959 0.0
H1352 H 0.90527 0.70376 0.26518 0.0
H1353 H 0.94726 0.71518 0.28791 0.0
H1354 H 0.02435 0.82436 0.20757 0.0
H1355 H 0.07579 0.83161 0.22842 0.0
H1356 H 0.99028 0.78514 0.19053 0.0
H1357 H 0.93356 0.75677 0.19412 0.0
C1358 C 0.02724 0.51562 0.98209 0.0
C1359 C 0.02989 0.48252 0.98768 0.0
C1360 C 0.94916 0.48972 0.01445 0.0
C1361 C 0.94407 0.52234 0.00782 0.0
N1362 N 0.96953 0.56499 0.98252 0.0
N1363 N 0.98952 0.43654 0.00688 0.0
C1364 C 0.98065 0.53492 0.99082 0.0
C1365 C 0.9896 0.46907 0.00318 0.0
N1366 N 0.06978 0.52869 0.96865 0.0
N1367 N 0.9166 0.47882 0.0319 0.0
H1368 H 0.95678 0.42472 0.01596 0.0
H1369 H 0.02035 0.42088 -0.00028 0.0
H1370 H 0.88529 0.49312 0.04003 0.0
H1371 H 0.923 0.45637 0.03916 0.0
H1372 H 0.07439 0.55337 0.96599 0.0
H1373 H 0.1037 0.51511 0.96142 0.0
H1374 H 0.93547 0.5799 0.98829 0.0
H1375 H 0.99041 0.57417 0.96861 0.0
C1376 C 0.24604 0.10997 0.10588 0.0
C1377 C 0.25321 0.13677 0.09178 0.0
C1378 C 0.25367 0.1738 0.12282 0.0
C1379 C 0.2561 0.14674 0.13686 0.0
N1380 N 0.23219 0.09118 0.14335 0.0
N1381 N 0.23976 0.19333 0.0856 0.0
C1382 C 0.24398 0.11542 0.12884 0.0
C1383 C 0.24833 0.16854 0.09994 0.0
N1384 N 0.24545 0.07951 0.09736 0.0
N1385 N 0.26038 0.20408 0.13129 0.0
H1386 H 0.23377 0.18894 0.06893 0.0
H1387 H 0.23266 0.21716 0.09029 0.0
H1388 H 0.26215 0.20833 0.14815 0.0
H1389 H 0.26564 0.22471 0.12176 0.0
H1390 H 0.24679 0.05865 0.10683 0.0
H1391 H 0.24491 0.07525 0.0805 0.0
H1392 H 0.21964 0.06797 0.13874 0.0
H1393 H 0.22981 0.09548 0.16019 0.0
C1394 C 0.00525 0.17695 0.11044 0.0
C1395 C 0.00487 0.14978 0.09646 0.0
C1396 C 0.01648 0.11338 0.12757 0.0
C1397 C 0.00712 0.1401 0.14157 0.0
N1398 N 0.01678 0.19696 0.1477 0.0
N1399 N 0.03264 0.09471 0.09021 0.0
C1400 C 0.01025 0.17193 0.13337 0.0
C1401 C 0.01896 0.11879 0.10462 0.0
N1402 N 0.99685 0.20701 0.10182 0.0
N1403 N 0.0186 0.08297 0.13614 0.0
H1404 H 0.03491 0.09893 0.07335 0.0
H1405 H 0.0467 0.0718 0.09492 0.0
H1406 H 0.01866 0.07871 0.153 0.0
H1407 H 0.01887 0.06207 0.1267 0.0
H1408 H 0.99018 0.22762 0.11125 0.0
H1409 H 0.99524 0.21103 0.08493 0.0
H1410 H 0.0224 0.22087 0.14293 0.0
H1411 H 0.02232 0.19296 0.16448 0.0
C1412 C 0.75315 0.85244 0.86006 0.0
C1413 C 0.75349 0.87977 0.84622 0.0
C1414 C 0.76804 0.91562 0.8775 0.0
C1415 C 0.75809 0.88885 0.89143 0.0
N1416 N 0.76498 0.8318 0.89712 0.0
N1417 N 0.78336 0.93458 0.84014 0.0
C1418 C 0.75929 0.8571 0.88298 0.0
C1419 C 0.76921 0.91048 0.85448 0.0
N1420 N 0.74294 0.82259 0.85135 0.0
N1421 N 0.77178 0.9459 0.8862 0.0
H1422 H 0.78455 0.93062 0.82324 0.0
H1423 H 0.79884 0.9572 0.84491 0.0
H1424 H 0.77273 0.94998 0.90307 0.0
H1425 H 0.77247 0.96689 0.87685 0.0
H1426 H 0.73555 0.80199 0.86072 0.0
H1427 H 0.74048 0.81872 0.83446 0.0
H1428 H 0.7694 0.80788 0.8922 0.0
H1429 H 0.77107 0.83556 0.91388 0.0
C1430 C 0.00654 0.85355 0.85247 0.0
C1431 C 1.00143 0.88569 0.84488 0.0
C1432 C 0.98422 0.90433 0.88226 0.0
C1433 C 0.00569 0.87424 0.88976 0.0
N1434 N 0.02671 0.81828 0.88344 0.0
N1435 N 0.97561 0.94125 0.8515 0.0
C1436 C 0.01186 0.84791 0.87529 0.0
C1437 C 0.98522 0.91086 0.85941 0.0
N1438 N 0.00795 0.82894 0.83764 0.0
N1439 N 0.96519 0.92664 0.89716 0.0
H1440 H 0.97479 0.94637 0.83477 0.0
H1441 H 0.96992 0.96146 0.86138 0.0
H1442 H 0.96455 0.92168 0.91395 0.0
H1443 H 0.9455 0.94852 0.89294 0.0
H1444 H 0.0084 0.80462 0.84186 0.0
H1445 H 0.00347 0.83324 0.82089 0.0
H1446 H 0.03823 0.79858 0.87377 0.0
H1447 H 0.02842 0.81374 0.90028 0.0
C1448 C 0.24513 0.61565 0.63083 0.0
C1449 C 0.25256 0.64735 0.63889 0.0
C1450 C 0.243 0.66892 0.60187 0.0
C1451 C 0.25154 0.63735 0.59377 0.0
N1452 N 0.25217 0.57991 0.5994 0.0
N1453 N 0.25002 0.70478 0.63326 0.0
C1454 C 0.2483 0.61033 0.60789 0.0
C1455 C 0.24725 0.67431 0.62479 0.0
N1456 N 0.23611 0.59095 0.64526 0.0
N1457 N 0.23187 0.69343 0.58749 0.0
H1458 H 0.25097 0.70917 0.65011 0.0
H1459 H 0.25299 0.72554 0.62373 0.0
H1460 H 0.22725 0.68916 0.57071 0.0
H1461 H 0.22171 0.71691 0.59221 0.0
H1462 H 0.22677 0.56734 0.64057 0.0
H1463 H 0.23251 0.595 0.6621 0.0
H1464 H 0.25688 0.55921 0.6089 0.0
H1465 H 0.25228 0.57551 0.58256 0.0
C1466 C 0.00861 0.67286 0.60825 0.0
C1467 C 0.00444 0.64556 0.59443 0.0
C1468 C 0.00935 0.60921 0.62575 0.0
C1469 C 0.00439 0.63646 0.63956 0.0
N1470 N 0.02203 0.69284 0.64543 0.0
N1471 N 0.02443 0.58939 0.58865 0.0
C1472 C 0.01239 0.66795 0.63121 0.0
C1473 C 0.01329 0.61415 0.6028 0.0
N1474 N 0.00495 0.70312 0.59949 0.0
N1475 N 0.0061 0.57892 0.63447 0.0
H1476 H 0.02904 0.59338 0.57184 0.0
H1477 H 0.03481 0.56603 0.5936 0.0
H1478 H 0.00526 0.57486 0.65135 0.0
H1479 H 1.00262 0.55802 0.6251 0.0
H1480 H 1.00112 0.72403 0.60882 0.0
H1481 H 0.0042 0.70717 0.58261 0.0
H1482 H 0.03174 0.71632 0.64055 0.0
H1483 H 0.02567 0.68899 0.6623 0.0
C1484 C 0.74986 0.42548 0.37849 0.0
C1485 C 0.74913 0.39846 0.39258 0.0
C1486 C 0.75649 0.36162 0.36157 0.0
C1487 C 0.74824 0.38836 0.34751 0.0
N1488 N 0.7618 0.44495 0.34117 0.0
N1489 N 0.77537 0.34317 0.3988 0.0
C1490 C 0.75371 0.42019 0.35558 0.0
C1491 C 0.76115 0.36723 0.38444 0.0
N1492 N 0.74299 0.45572 0.38698 0.0
N1493 N 0.75583 0.33108 0.35319 0.0
H1494 H 0.78009 0.34773 0.41555 0.0
H1495 H 0.78795 0.32004 0.39405 0.0
H1496 H 0.75437 0.32662 0.33637 0.0
H1497 H 0.75504 0.31034 0.3628 0.0
H1498 H 0.73649 0.47625 0.37744 0.0
H1499 H 0.74227 0.45996 0.40385 0.0
H1500 H 0.76932 0.46874 0.34588 0.0
H1501 H 0.76717 0.44061 0.32445 0.0
C1502 C 0.00698 0.35041 0.37762 0.0
C1503 C 0.00589 0.37732 0.39182 0.0
C1504 C 0.99117 0.41403 0.36102 0.0
C1505 C 1.0007 0.38765 0.34673 0.0
N1506 N 0.99382 0.33067 0.3404 0.0
N1507 N 0.97471 0.43174 0.39854 0.0
C1508 C 1.00015 0.35566 0.35478 0.0
C1509 C 0.98978 0.40819 0.38393 0.0
N1510 N 0.01821 0.32042 0.38592 0.0
N1511 N 0.98759 0.4446 0.35276 0.0
H1512 H 0.9726 0.42711 0.41535 0.0
H1513 H 0.95903 0.45443 0.39403 0.0
H1514 H 0.98667 0.44928 0.33595 0.0
H1515 H 0.98737 0.46527 0.36244 0.0
H1516 H 0.02623 0.30021 0.37624 0.0
H1517 H 0.02106 0.31612 0.40275 0.0
H1518 H 0.98971 0.30665 0.34513 0.0
H1519 H 0.98668 0.33469 0.3237 0.0
C1520 C 0.74696 0.11051 0.63477 0.0
C1521 C 0.75091 0.14237 0.64291 0.0
C1522 C 0.73852 0.16359 0.60589 0.0
C1523 C 0.75114 0.13241 0.59777 0.0
N1524 N 0.75792 0.07513 0.6033 0.0
N1525 N 0.74055 0.19953 0.63736 0.0
C1526 C 0.7507 0.10533 0.61184 0.0
C1527 C 0.74176 0.16907 0.62885 0.0
N1528 N 0.74092 0.08558 0.64918 0.0
N1529 N 0.72522 0.18774 0.59147 0.0
H1530 H 0.74104 0.20385 0.65421 0.0
H1531 H 0.74042 0.2204 0.62788 0.0
H1532 H 0.72239 0.1835 0.57462 0.0
H1533 H 0.71206 0.2108 0.59615 0.0
H1534 H 0.73452 0.06167 0.64454 0.0
H1535 H 0.73664 0.08973 0.66596 0.0
H1536 H 0.76468 0.05455 0.61275 0.0
H1537 H 0.75854 0.0709 0.58643 0.0
C1538 C 0.52166 0.16616 0.61237 0.0
C1539 C 0.50991 0.14045 0.59774 0.0
C1540 C 0.50374 0.1022 0.62798 0.0
C1541 C 0.50555 0.12864 0.64256 0.0
N1542 N 0.53849 0.18252 0.65022 0.0
N1543 N 0.51465 0.08373 0.59036 0.0
C1544 C 0.52294 0.15958 0.6352 0.0
C1545 C 0.5099 0.10819 0.60522 0.0
N1546 N 0.52726 0.19684 0.60448 0.0
N1547 N 0.49232 0.07201 0.63588 0.0
H1548 H 0.5213 0.08842 0.57372 0.0
H1549 H 0.51787 0.05948 0.59461 0.0
H1550 H 0.4899 0.06727 0.65268 0.0
H1551 H 0.484 0.05207 0.62597 0.0
H1552 H 0.52957 0.21724 0.61438 0.0
H1553 H 0.52831 0.20186 0.58772 0.0
H1554 H 0.5549 0.20522 0.64611 0.0
H1555 H 0.53977 0.17744 0.66698 0.0
C1556 C 0.25332 0.92383 0.37628 0.0
C1557 C 0.25079 0.89659 0.39018 0.0
C1558 C 0.2571 0.86013 0.35894 0.0
C1559 C 0.25082 0.88723 0.34506 0.0
N1560 N 0.2666 0.94375 0.33915 0.0
N1561 N 0.27347 0.84076 0.3961 0.0
C1562 C 0.25748 0.91884 0.35336 0.0
C1563 C 0.26108 0.86527 0.38188 0.0
N1564 N 0.24776 0.95406 0.38492 0.0
N1565 N 0.25526 0.82976 0.35029 0.0
H1566 H 0.27822 0.845 0.41287 0.0
H1567 H 0.28473 0.81748 0.39123 0.0
H1568 H 0.25441 0.82562 0.33341 0.0
H1569 H 0.25297 0.80887 0.3597 0.0
H1570 H 0.24245 0.9748 0.3755 0.0
H1571 H 0.24676 0.95817 0.40179 0.0
H1572 H 0.2753 0.96735 0.34402 0.0
H1573 H 0.27128 0.93972 0.32236 0.0
C1574 C 0.49657 0.91386 0.38034 0.0
C1575 C 0.50774 0.88254 0.38859 0.0
C1576 C 0.50007 0.86046 0.3517 0.0
C1577 C 0.50583 0.89212 0.34338 0.0
N1578 N 0.50025 0.94949 0.34875 0.0
N1579 N 0.51154 0.82514 0.38321 0.0
C1580 C 0.49941 0.91909 0.35737 0.0
C1581 C 0.50519 0.85537 0.37463 0.0
N1582 N 0.48486 0.93835 0.39466 0.0
N1583 N 0.49067 0.83561 0.33747 0.0
H1584 H 0.51329 0.821 0.40008 0.0
H1585 H 0.51669 0.80446 0.37373 0.0
H1586 H 0.48462 0.83983 0.32076 0.0
H1587 H 0.48282 0.81191 0.34231 0.0
H1588 H 0.47286 0.96156 0.38986 0.0
H1589 H 0.48188 0.93432 0.41153 0.0
H1590 H 0.50246 0.97039 0.35816 0.0
H1591 H 0.50024 0.95366 0.33187 0.0
C1592 C 0.75695 0.66854 0.10466 0.0
C1593 C 0.76 0.63703 0.09587 0.0
C1594 C 0.74796 0.61424 0.13245 0.0
C1595 C 0.76049 0.64506 0.14125 0.0
N1596 N 0.77 0.70249 0.13673 0.0
N1597 N 0.7518 0.57948 0.1005 0.0
C1598 C 0.76142 0.67271 0.12767 0.0
C1599 C 0.75183 0.60969 0.10945 0.0
N1600 N 0.75026 0.69414 0.09081 0.0
N1601 N 0.73312 0.58956 0.14624 0.0
H1602 H 0.75257 0.57554 0.08361 0.0
H1603 H 0.75313 0.55837 0.10972 0.0
H1604 H 0.72886 0.59307 0.16311 0.0
H1605 H 0.71946 0.56686 0.14092 0.0
H1606 H 0.74396 0.71779 0.09604 0.0
H1607 H 0.74498 0.69086 0.07396 0.0
H1608 H 0.77786 0.72326 0.12758 0.0
H1609 H 0.77121 0.70619 0.15365 0.0
C1610 C 0.49669 0.60152 0.12825 0.0
C1611 C 0.49674 0.62855 0.14235 0.0
C1612 C 0.5134 0.66504 0.11162 0.0
C1613 C 0.50429 0.63857 0.09734 0.0
N1614 N 0.5108 0.58159 0.09114 0.0
N1615 N 0.52702 0.68309 0.14926 0.0
C1616 C 0.5044 0.60663 0.10545 0.0
C1617 C 0.51324 0.65939 0.13456 0.0
N1618 N 0.48547 0.57155 0.13658 0.0
N1619 N 0.5178 0.69553 0.10328 0.0
H1620 H 0.52765 0.67866 0.16612 0.0
H1621 H 0.54293 0.70578 0.14486 0.0
H1622 H 0.51988 0.70007 0.08647 0.0
H1623 H 0.51778 0.71629 0.11287 0.0
H1624 H 0.47823 0.55119 0.12695 0.0
H1625 H 0.48196 0.56735 0.1534 0.0
H1626 H 0.5146 0.55757 0.09591 0.0
H1627 H 0.5181 0.58559 0.07448 0.0
C1628 C 0.25716 0.42421 0.87743 0.0
C1629 C 0.25519 0.39703 0.89139 0.0
C1630 C 0.26443 0.3605 0.86024 0.0
C1631 C 0.25681 0.38739 0.84625 0.0
N1632 N 0.26984 0.44408 0.8402 0.0
N1633 N 0.2795 0.34145 0.89759 0.0
C1634 C 0.26184 0.41914 0.8545 0.0
C1635 C 0.26723 0.3658 0.8832 0.0
N1636 N 0.25047 0.4544 0.88603 0.0
N1637 N 0.26477 0.3301 0.85162 0.0
H1638 H 0.28218 0.3456 0.91445 0.0
H1639 H 0.29209 0.31831 0.89287 0.0
H1640 H 0.26469 0.32592 0.83475 0.0
H1641 H 0.26374 0.30917 0.86104 0.0
H1642 H 0.24488 0.47509 0.87658 0.0
H1643 H 0.24907 0.45849 0.90291 0.0
H1644 H 0.27706 0.46785 0.84501 0.0
H1645 H 0.27493 0.44007 0.8234 0.0
C1646 C 0.51097 0.42876 0.86133 0.0
C1647 C 0.50565 0.40202 0.84712 0.0
C1648 C 0.4914 0.36546 0.87793 0.0
C1649 C 0.50622 0.39136 0.8921 0.0
N1650 N 0.50858 0.44836 0.89885 0.0
N1651 N 0.46985 0.34837 0.84054 0.0
C1652 C 0.50812 0.42343 0.88423 0.0
C1653 C 0.48795 0.37149 0.85505 0.0
N1654 N 0.52259 0.4586 0.85284 0.0
N1655 N 0.48518 0.33502 0.8862 0.0
H1656 H 0.46717 0.35297 0.82373 0.0
H1657 H 0.4528 0.32602 0.84513 0.0
H1658 H 0.48601 0.33021 0.90298 0.0
H1659 H 0.48071 0.31446 0.87655 0.0
H1660 H 0.53351 0.47868 0.86225 0.0
H1661 H 0.52239 0.46298 0.83598 0.0
H1662 H 0.50647 0.47257 0.89442 0.0
H1663 H 0.5059 0.44434 0.91568 0.0
C1664 C 0.60446 0.14566 0.06101 0.0
C1665 C 0.57353 0.14562 0.04065 0.0
C1666 C 0.65284 0.11225 0.02458 0.0
C1667 C 0.6872 0.1163 0.04387 0.0
N1668 N 0.68287 0.12161 0.08312 0.0
N1669 N 0.5686 0.12894 0.00254 0.0
C1670 C 0.65933 0.12856 0.06299 0.0
C1671 C 0.59803 0.12917 0.02221 0.0
N1672 N 0.58253 0.16319 0.0782 0.0
N1673 N 0.67005 0.08968 0.00952 0.0
H1674 H 0.52537 0.13764 0.0003 0.0
H1675 H 0.5884 0.12131 0.98799 0.0
H1676 H 0.70622 0.07428 0.01233 0.0
H1677 H 0.64446 0.08312 -0.00404 0.0
H1678 H 0.60608 0.16699 0.09271 0.0
H1679 H 0.54301 0.1765 0.07718 0.0
H1680 H 0.66242 0.12782 0.09785 0.0
H1681 H 0.71828 0.10548 0.08508 0.0
C1682 C 0.66489 0.13203 0.21286 0.0
C1683 C 0.68961 0.1493 0.19481 0.0
C1684 C 0.60271 0.13466 0.17229 0.0
C1685 C 0.57462 0.12167 0.19116 0.0
N1686 N 0.59089 0.09305 0.22483 0.0
N1687 N 0.68035 0.16948 0.15789 0.0
C1688 C 0.60909 0.1161 0.21026 0.0
C1689 C 0.65819 0.15106 0.17461 0.0
N1690 N 0.69498 0.13014 0.23236 0.0
N1691 N 0.579 0.12894 0.15201 0.0
H1692 H 0.72041 0.18229 0.15916 0.0
H1693 H 0.65649 0.17453 0.14362 0.0
H1694 H 0.54345 0.11302 0.14963 0.0
H1695 H 0.59964 0.13578 0.13744 0.0
H1696 H 0.67547 0.12177 0.24678 0.0
H1697 H 0.73867 0.13816 0.23462 0.0
H1698 H 0.61634 0.08536 0.23815 0.0
H1699 H 0.55371 0.07845 0.22181 0.0
C1700 C 0.35965 0.91581 0.95921 0.0
C1701 C 0.32458 0.91094 0.9402 0.0
C1702 C 0.40707 0.88134 0.92307 0.0
C1703 C 0.43858 0.882 0.94331 0.0
N1704 N 0.44476 0.90005 0.98111 0.0
N1705 N 0.32738 0.90436 0.90102 0.0
C1706 C 0.41465 0.89907 0.96159 0.0
C1707 C 0.35188 0.89818 0.92111 0.0
N1708 N 0.34283 0.9389 0.97396 0.0
N1709 N 0.42871 0.86346 0.906 0.0
H1710 H 0.29157 0.92023 0.89904 0.0
H1711 H 0.34726 0.89776 0.88627 0.0
H1712 H 0.46847 0.85035 0.907 0.0
H1713 H 0.40483 0.85922 0.89162 0.0
H1714 H 0.36892 0.94603 0.98726 0.0
H1715 H 0.30637 0.95407 0.97109 0.0
H1716 H 0.4254 0.90816 -0.00438 0.0
H1717 H 0.48818 0.89158 0.98327 0.0
C1718 C 0.40017 0.92188 0.77582 0.0
C1719 C 0.43593 0.91637 0.79459 0.0
C1720 C 0.35315 0.88746 0.8121 0.0
C1721 C 0.32069 0.8887 0.79208 0.0
N1722 N 0.31257 0.90789 0.7546 0.0
N1723 N 0.43422 0.90974 0.83379 0.0
C1724 C 0.34407 0.90605 0.7738 0.0
C1725 C 0.40889 0.90383 0.8138 0.0
N1726 N 0.41772 0.94465 0.76095 0.0
N1727 N 0.33194 0.86944 0.82918 0.0
H1728 H 0.47043 0.92537 0.83565 0.0
H1729 H 0.41455 0.90325 0.84861 0.0
H1730 H 0.29172 0.8567 0.82841 0.0
H1731 H 0.35658 0.86474 0.84333 0.0
H1732 H 0.39154 0.95227 0.7478 0.0
H1733 H 0.45537 0.95908 0.76354 0.0
H1734 H 0.33102 0.91616 0.73998 0.0
H1735 H 0.26855 0.90011 0.75285 0.0
C1736 C 0.60381 0.65042 0.557 0.0
C1737 C 0.56935 0.64442 0.53786 0.0
C1738 C 0.65042 0.61069 0.52325 0.0
C1739 C 0.68764 0.62063 0.54079 0.0
N1740 N 0.68886 0.63451 0.57916 0.0
N1741 N 0.55957 0.61842 0.50239 0.0
C1742 C 0.66134 0.63607 0.55918 0.0
C1743 C 0.5927 0.62458 0.5208 0.0
N1744 N 0.58264 0.67098 0.57269 0.0
N1745 N 0.66805 0.5855 0.51033 0.0
H1746 H 0.51462 0.62451 0.50074 0.0
H1747 H 0.57748 0.60815 0.48827 0.0
H1748 H 0.70672 0.57226 0.51367 0.0
H1749 H 0.64102 0.57484 0.49845 0.0
H1750 H 0.6084 0.67917 0.5858 0.0
H1751 H 0.54101 0.68224 0.57154 0.0
H1752 H 0.66989 0.64323 0.59356 0.0
H1753 H 0.72629 0.62007 0.58193 0.0
C1754 C 0.59284 0.65611 0.71348 0.0
C1755 C 0.56855 0.63881 0.69533 0.0
C1756 C 0.65912 0.6504 0.67404 0.0
C1757 C 0.68658 0.66302 0.69321 0.0
N1758 N 0.66988 0.69278 0.72636 0.0
N1759 N 0.57999 0.61721 0.65887 0.0
C1760 C 0.65065 0.67012 0.71166 0.0
C1761 C 0.60191 0.6356 0.67567 0.0
N1762 N 0.56066 0.65957 0.73238 0.0
N1763 N 0.68522 0.65501 0.65406 0.0
H1764 H 0.5386 0.60562 0.65958 0.0
H1765 H 0.60507 0.61099 0.64513 0.0
H1766 H 0.7222 0.67002 0.65197 0.0
H1767 H 0.66528 0.64838 0.63929 0.0
H1768 H 0.57919 0.66778 0.74703 0.0
H1769 H 0.51581 0.65319 0.73387 0.0
H1770 H 0.644 0.70155 0.73921 0.0
H1771 H 0.70902 0.70603 0.72387 0.0
C1772 C 0.35794 0.40873 0.46358 0.0
C1773 C 0.32252 0.4089 0.44436 0.0
C1774 C 0.40057 0.37919 0.42474 0.0
C1775 C 0.43272 0.37536 0.44469 0.0
N1776 N 0.4401 0.38577 0.48384 0.0
N1777 N 0.32455 0.4091 0.40495 0.0
C1778 C 0.41067 0.38964 0.46437 0.0
C1779 C 0.34804 0.39849 0.42433 0.0
N1780 N 0.34451 0.42963 0.48018 0.0
N1781 N 0.41886 0.36314 0.40636 0.0
H1782 H 0.29069 0.4264 0.40438 0.0
H1783 H 0.34383 0.40452 0.38974 0.0
H1784 H 0.45611 0.34797 0.40622 0.0
H1785 H 0.39396 0.36227 0.39192 0.0
H1786 H 0.37156 0.43314 0.4939 0.0
H1787 H 0.31073 0.44687 0.47866 0.0
H1788 H 0.42025 0.39085 0.49889 0.0
H1789 H 0.48278 0.37613 0.48539 0.0
C1790 C 0.3395 0.38483 0.31268 0.0
C1791 C 0.31572 0.37135 0.29311 0.0
C1792 C 0.40836 0.38421 0.27365 0.0
C1793 C 0.4299 0.40081 0.29251 0.0
N1794 N 0.41473 0.41911 0.32956 0.0
N1795 N 0.34218 0.34243 0.26037 0.0
C1796 C 0.39528 0.40146 0.312 0.0
C1797 C 0.35415 0.36656 0.275 0.0
N1798 N 0.31131 0.37919 0.33216 0.0
N1799 N 0.43992 0.38452 0.25448 0.0
H1800 H 0.30777 0.32583 0.26288 0.0
H1801 H 0.37137 0.33569 0.24788 0.0
H1802 H 0.48249 0.39435 0.25285 0.0
H1803 H 0.42193 0.37649 0.23968 0.0
H1804 H 0.3283 0.38617 0.34733 0.0
H1805 H 0.27498 0.36349 0.33341 0.0
H1806 H 0.38895 0.42344 0.34345 0.0
H1807 H 0.45494 0.43191 0.32945 0.0
C1808 C 0.16482 0.15508 0.52609 0.0
C1809 C 0.18881 0.13811 0.54443 0.0
C1810 C 0.09716 0.14938 0.56522 0.0
C1811 C 0.07028 0.16173 0.54585 0.0
N1812 N 0.08856 0.1919 0.51295 0.0
N1813 N 0.17725 0.11756 0.58116 0.0
C1814 C 0.10702 0.16907 0.52765 0.0
C1815 C 0.15504 0.13516 0.56402 0.0
N1816 N 0.19722 0.15815 0.5072 0.0
N1817 N 0.06975 0.15377 0.58499 0.0
H1818 H 0.21926 0.10662 0.5808 0.0
H1819 H 0.15219 0.11146 0.59492 0.0
H1820 H 0.03206 0.16834 0.58675 0.0
H1821 H 0.0889 0.14736 0.59994 0.0
H1822 H 0.17887 0.16622 0.49249 0.0
H1823 H 0.24196 0.15149 0.5058 0.0
H1824 H 0.11521 0.2008 0.50034 0.0
H1825 H 0.04944 0.20521 0.51529 0.0
C1826 C 0.09535 0.14992 0.71299 0.0
C1827 C 0.07191 0.13364 0.69427 0.0
C1828 C 0.15891 0.15101 0.67276 0.0
C1829 C 0.18561 0.16313 0.69219 0.0
N1830 N 0.16608 0.18966 0.72638 0.0
N1831 N 0.08261 0.11677 0.65666 0.0
C1832 C 0.15007 0.16705 0.71115 0.0
C1833 C 0.10383 0.13394 0.67416 0.0
N1834 N 0.06507 0.14976 0.73245 0.0
N1835 N 0.18381 0.15807 0.6529 0.0
H1836 H 0.04291 0.10355 0.65724 0.0
H1837 H 0.10677 0.11321 0.64228 0.0
H1838 H 0.21951 0.17412 0.65137 0.0
H1839 H 0.16437 0.152 0.63794 0.0
H1840 H 0.08415 0.15732 0.74718 0.0
H1841 H 0.02194 0.14076 0.73434 0.0
H1842 H 0.13949 0.19612 0.73968 0.0
H1843 H 0.20224 0.20519 0.72393 0.0
C1844 C 0.85691 0.91402 0.46277 0.0
C1845 C 0.82102 0.91267 0.44369 0.0
C1846 C 0.90085 0.88397 0.4243 0.0
C1847 C 0.93345 0.88145 0.44424 0.0
N1848 N 0.94129 0.89355 0.48311 0.0
N1849 N 0.82243 0.9116 0.40426 0.0
C1850 C 0.91093 0.89606 0.46372 0.0
C1851 C 0.84689 0.90209 0.42374 0.0
N1852 N 0.84234 0.93526 0.47905 0.0
N1853 N 0.92023 0.86783 0.40611 0.0
H1854 H 0.78771 0.92837 0.40348 0.0
H1855 H 0.84164 0.90678 0.38906 0.0
H1856 H 0.9588 0.85365 0.40607 0.0
H1857 H 0.89526 0.86593 0.39173 0.0
H1858 H 0.86953 0.93994 0.49257 0.0
H1859 H 0.80712 0.95161 0.47738 0.0
H1860 H 0.92196 0.89918 0.49816 0.0
H1861 H 0.98449 0.88452 0.48458 0.0
C1862 C 0.90001 0.91884 0.27401 0.0
C1863 C 0.93701 0.91448 0.29256 0.0
C1864 C 0.85793 0.88338 0.31061 0.0
C1865 C 0.82473 0.88353 0.29074 0.0
N1866 N 0.81475 0.90114 0.25293 0.0
N1867 N 0.93867 0.90734 0.33167 0.0
C1868 C 0.8462 0.90089 0.27218 0.0
C1869 C 0.91231 0.90105 0.31191 0.0
N1870 N 0.91333 0.94267 0.25933 0.0
N1871 N 0.83863 0.86519 0.32791 0.0
H1872 H 0.97444 0.92339 0.33315 0.0
H1873 H 0.92066 0.90041 0.34668 0.0
H1874 H 0.79953 0.85145 0.32734 0.0
H1875 H 0.86382 0.86138 0.34205 0.0
H1876 H 0.88545 0.94923 0.2464 0.0
H1877 H 0.94807 0.95902 0.26205 0.0
H1878 H 0.83275 0.90953 0.23825 0.0
H1879 H 0.77193 0.89167 0.25114 0.0
C1880 C 0.09735 0.62573 0.02097 0.0
C1881 C 0.07397 0.64454 0.03854 0.0
C1882 C 0.1649 0.634 0.05998 0.0
C1883 C 0.19127 0.61946 0.04128 0.0
N1884 N 0.17141 0.58639 0.00979 0.0
N1885 N 0.08679 0.66869 0.0742 0.0
C1886 C 0.15437 0.61103 0.0233 0.0
C1887 C 0.10795 0.649 0.05799 0.0
N1888 N 0.06492 0.62131 0.00218 0.0
N1889 N 0.19176 0.63094 0.08 0.0
H1890 H 0.0456 0.68043 0.07316 0.0
H1891 H 0.11224 0.67574 0.08769 0.0
H1892 H 0.22873 0.61603 0.08247 0.0
H1893 H 0.17266 0.63892 0.09459 0.0
H1894 H 0.08314 0.61179 0.98787 0.0
H1895 H 0.02047 0.6283 0.00036 0.0
H1896 H 0.14436 0.57682 -0.00251 0.0
H1897 H 0.20924 0.57239 0.01299 0.0
C1898 C 0.15935 0.62965 0.21159 0.0
C1899 C 0.17693 0.64796 0.19287 0.0
C1900 C 0.08879 0.62807 0.17295 0.0
C1901 C 0.06819 0.61311 0.19243 0.0
N1902 N 0.09947 0.58523 0.22501 0.0
N1903 N 0.15639 0.6666 0.15618 0.0
C1904 C 0.10762 0.60985 0.21041 0.0
C1905 C 0.14136 0.6474 0.17355 0.0
N1906 N 0.19234 0.63029 0.23046 0.0
N1907 N 0.05982 0.62197 0.15365 0.0
H1908 H 0.19379 0.68167 0.1563 0.0
H1909 H 0.12926 0.66985 0.14247 0.0
H1910 H 0.02455 0.60551 0.15267 0.0
H1911 H 0.07485 0.62984 0.13841 0.0
H1912 H 0.17537 0.62222 0.24538 0.0
H1913 H 0.23501 0.64008 0.23173 0.0
H1914 H 0.12943 0.57981 0.23757 0.0
H1915 H 0.06799 0.56705 0.22242 0.0
C1916 C 0.91219 0.37539 0.92466 0.0
C1917 C 0.93931 0.36286 0.94387 0.0
C1918 C 0.84766 0.37331 0.96463 0.0
C1919 C 0.8244 0.39075 0.94634 0.0
N1920 N 0.836 0.4103 0.90934 0.0
N1921 N 0.92153 0.33483 0.97761 0.0
C1922 C 0.85684 0.39202 0.92637 0.0
C1923 C 0.90377 0.3575 0.96267 0.0
N1924 N 0.93704 0.36924 0.90465 0.0
N1925 N 0.81592 0.37124 0.98373 0.0
H1926 H 0.95904 0.32034 0.975 0.0
H1927 H 0.89572 0.32738 0.99085 0.0
H1928 H 0.77172 0.37874 0.98535 0.0
H1929 H 0.83422 0.36296 -0.0016 0.0
H1930 H 0.91707 0.37568 0.88985 0.0
H1931 H 0.973 0.35346 0.90279 0.0
H1932 H 0.86079 0.41496 0.89524 0.0
H1933 H 0.79614 0.42334 0.91013 0.0
C1934 C 0.90215 0.41315 0.77478 0.0
C1935 C 0.94036 0.40979 0.79314 0.0
C1936 C 0.85933 0.38355 0.8136 0.0
C1937 C 0.82442 0.38259 0.79414 0.0
N1938 N 0.81369 0.3956 0.75554 0.0
N1939 N 0.94408 0.40724 0.83255 0.0
C1940 C 0.84633 0.39687 0.77449 0.0
C1941 C 0.91582 0.3994 0.8134 0.0
N1942 N 0.91637 0.4348 0.75871 0.0
N1943 N 0.83949 0.36812 0.83202 0.0
H1944 H 0.98097 0.42265 0.83295 0.0
H1945 H 0.9265 0.40256 0.84802 0.0
H1946 H 0.7987 0.3559 0.83262 0.0
H1947 H 0.86553 0.36491 0.84602 0.0
H1948 H 0.88779 0.44074 0.74582 0.0
H1949 H 0.95281 0.45041 0.76013 0.0
H1950 H 0.8319 0.40111 0.74027 0.0
H1951 H 0.76965 0.38757 0.75466 0.0
C1952 C 0.12483 0.98872 0.00692 0.0
C1953 C 0.1073 0.01776 -0.00378 0.0
C1954 C 0.0553 0.98563 0.96823 0.0
C1955 C 0.06809 0.95698 0.9802 0.0
N1956 N 0.10472 0.93207 0.01324 0.0
N1957 N 0.04788 0.04411 0.96856 0.0
C1958 C 0.09892 0.95892 0.00042 0.0
C1959 C 0.07009 0.01631 0.97739 0.0
N1960 N 0.16958 0.98916 0.02224 0.0
N1961 N 0.03078 0.98342 0.94775 0.0
H1962 H 0.05737 0.06682 0.97505 0.0
H1963 H 0.01613 0.0445 0.95605 0.0
H1964 H 0.01704 0.9615 0.94099 0.0
H1965 H 0.02678 1.00295 0.93712 0.0
H1966 H 0.18821 0.96832 0.02892 0.0
H1967 H 0.19328 1.00994 0.02639 0.0
H1968 H 0.12162 0.93277 0.02917 0.0
H1969 H 0.08713 0.90969 0.00882 0.0
C1970 C 0.18648 0.31745 0.00695 0.0
C1971 C 0.19946 0.3196 0.98426 0.0
C1972 C 0.16194 0.26441 0.97876 0.0
C1973 C 0.14615 0.26285 0.00125 0.0
N1974 N 0.16363 0.28246 0.03778 0.0
N1975 N 0.21895 0.29173 0.95048 0.0
C1976 C 0.16584 0.28758 0.01568 0.0
C1977 C 0.19467 0.29157 0.97099 0.0
N1978 N 0.19043 0.34418 0.01994 0.0
N1979 N 0.14072 0.24196 0.96433 0.0
H1980 H 0.24113 0.31189 0.94425 0.0
H1981 H 0.22204 0.2712 0.9407 0.0
H1982 H 0.11505 0.22226 0.96908 0.0
H1983 H 0.14485 0.24416 0.94739 0.0
H1984 H 0.17435 0.34496 0.03595 0.0
H1985 H 0.20744 0.3661 0.0144 0.0
H1986 H 0.18138 0.29845 0.04925 0.0
H1987 H 0.14981 0.26043 0.04437 0.0
C1988 C 0.08084 0.29029 0.26805 0.0
C1989 C 0.05761 0.31532 0.25458 0.0
C1990 C 0.06949 0.27937 0.22294 0.0
C1991 C 0.10738 0.2589 0.23557 0.0
N1992 N 0.15436 0.24805 0.27063 0.0
N1993 N 0.02812 0.33314 0.2185 0.0
C1994 C 0.11328 0.26457 0.25841 0.0
C1995 C 0.04987 0.30946 0.23184 0.0
N1996 N 0.07416 0.29203 0.29027 0.0
N1997 N 0.05394 0.2703 0.20218 0.0
H1998 H 0.01259 0.35515 0.22439 0.0
H1999 H 0.02833 0.3316 0.20146 0.0
H2000 H 0.06699 0.24815 0.19559 0.0
H2001 H 0.02347 0.28298 0.19254 0.0
H2002 H 0.08639 0.2734 0.30084 0.0
H2003 H 0.04983 0.31051 0.29767 0.0
H2004 H 0.16482 0.25414 0.28677 0.0
H2005 H 0.18246 0.23046 0.26427 0.0
C2006 C 0.13723 0.99256 0.22502 0.0
C2007 C 0.15602 0.02141 0.23571 0.0
C2008 C 0.20819 0.98881 0.26334 0.0
C2009 C 0.19335 0.9603 0.25155 0.0
N2010 N 0.15489 0.93558 0.21883 0.0
N2011 N 0.2165 0.04726 0.26328 0.0
C2012 C 0.16201 0.96248 0.2315 0.0
C2013 C 0.19366 0.01963 0.25439 0.0
N2014 N 0.09229 0.99348 0.20978 0.0
N2015 N 0.23468 0.98626 0.28344 0.0
H2016 H 0.20736 0.07007 0.25689 0.0
H2017 H 0.24833 0.04749 0.27575 0.0
H2018 H 0.24903 0.96418 0.28969 0.0
H2019 H 0.24022 1.00555 0.29418 0.0
H2020 H 0.07289 0.97285 0.20309 0.0
H2021 H 0.06925 1.01449 0.2057 0.0
H2022 H 0.13736 0.93624 0.20299 0.0
H2023 H 0.17219 0.91316 0.22333 0.0
C2024 C 0.91326 0.06813 0.98442 0.0
C2025 C 0.9439 0.0694 0.0047 0.0
C2026 C 0.94136 1.01 0.0067 0.0
C2027 C 0.9044 1.00918 0.98779 0.0
N2028 N 0.84259 0.03871 0.96209 0.0
N2029 N 0.98091 0.04193 0.03678 0.0
C2030 C 0.88721 0.03858 0.97747 0.0
C2031 C 0.95637 0.04037 0.01629 0.0
N2032 N 0.90781 0.09537 0.97196 0.0
N2033 N 0.96315 0.98189 0.01522 0.0
H2034 H 0.99486 0.06362 0.0438 0.0
H2035 H 0.9847 0.02211 0.04718 0.0
H2036 H 0.95364 0.9594 0.00838 0.0
H2037 H 0.99463 0.98103 0.02781 0.0
H2038 H 0.89107 0.09518 0.95601 0.0
H2039 H 0.9255 0.11757 0.97672 0.0
H2040 H 0.82418 0.05978 0.95569 0.0
H2041 H 0.81875 0.01811 0.95763 0.0
C2042 C 0.84691 0.7379 0.96933 0.0
C2043 C 0.86748 0.7622 0.98397 0.0
C2044 C 0.82213 0.73216 0.01426 0.0
C2045 C 0.81675 0.70464 0.00058 0.0
N2046 N 0.82114 0.68141 0.96449 0.0
N2047 N 0.87522 0.78192 0.02116 0.0
C2048 C 0.82706 0.70768 0.9778 0.0
C2049 C 0.85355 0.75978 0.0066 0.0
N2050 N 0.84778 0.74375 0.94731 0.0
N2051 N 0.79891 0.73124 0.03491 0.0
H2052 H 0.89967 0.80209 0.01646 0.0
H2053 H 0.87257 0.77906 0.03809 0.0
H2054 H 0.77656 0.71093 0.04078 0.0
H2055 H 0.79637 0.75136 0.0451 0.0
H2056 H 0.82951 0.72812 0.93573 0.0
H2057 H 0.86122 0.76601 0.94097 0.0
H2058 H 0.83473 0.68113 0.94817 0.0
H2059 H 0.80487 0.65935 0.97013 0.0
C2060 C 0.9069 0.76309 0.72925 0.0
C2061 C 0.89055 0.76401 0.75172 0.0
C2062 C 0.93127 0.70933 0.75686 0.0
C2063 C 0.94508 0.70799 0.73424 0.0
N2064 N 0.9649 0.73678 0.70084 0.0
N2065 N 0.9056 0.74291 0.78807 0.0
C2066 C 0.94021 0.73632 0.72128 0.0
C2067 C 0.90953 0.73875 0.76591 0.0
N2068 N 0.88546 0.78567 0.71495 0.0
N2069 N 0.93553 0.68218 0.76944 0.0
H2070 H 0.89095 0.76456 0.79498 0.0
H2071 H 0.9229 0.72659 0.79941 0.0
H2072 H 0.95342 0.66064 0.76359 0.0
H2073 H 0.91892 0.68063 0.78534 0.0
H2074 H 0.89012 0.78387 0.69801 0.0
H2075 H 0.85872 0.80493 0.71971 0.0
H2076 H 0.96807 0.75759 0.69133 0.0
H2077 H 0.98733 0.71686 0.69442 0.0
C2078 C 0.80447 0.04639 0.72424 0.0
C2079 C 0.81947 0.07427 0.73662 0.0
C2080 C 0.87051 0.04063 0.76381 0.0
C2081 C 0.85406 1.01229 0.7519 0.0
N2082 N 0.80742 0.98785 0.72048 0.0
N2083 N 0.85511 0.0979 0.77005 0.0
C2084 C 0.82148 1.01511 0.73198 0.0
C2085 C 0.84845 0.07126 0.75708 0.0
N2086 N 0.77267 0.05023 0.70526 0.0
N2087 N 0.91154 0.03873 0.78044 0.0
H2088 H 0.83998 0.12068 0.76534 0.0
H2089 H 0.8701 0.09693 0.78622 0.0
H2090 H 0.93274 0.01741 0.78503 0.0
H2091 H 0.93007 0.05883 0.78811 0.0
H2092 H 0.76195 0.03189 0.69437 0.0
H2093 H 0.75511 0.07253 0.70069 0.0
H2094 H 0.78792 0.98757 0.70502 0.0
H2095 H 0.8148 0.96474 0.72663 0.0
C2096 C 0.06961 0.51794 0.47754 0.0
C2097 C 0.09755 0.52019 0.49841 0.0
C2098 C 0.07997 0.46216 0.50443 0.0
C2099 C 0.05884 0.45908 0.4827 0.0
N2100 N 0.03044 0.48338 0.44851 0.0
N2101 N 0.143 0.49239 0.52914 0.0
C2102 C 0.05258 0.48695 0.46927 0.0
C2103 C 0.10575 0.49183 0.51132 0.0
N2104 N 0.05939 0.54544 0.46577 0.0
N2105 N 0.07693 0.43643 0.51838 0.0
H2106 H 0.16777 0.51257 0.53374 0.0
H2107 H 0.15541 0.47177 0.53778 0.0
H2108 H 0.0592 0.4142 0.51374 0.0
H2109 H 0.08613 0.43816 0.53509 0.0
H2110 H 0.03931 0.54612 0.45041 0.0
H2111 H 0.06793 0.56838 0.47202 0.0
H2112 H 0.02957 0.50148 0.43672 0.0
H2113 H 0.01313 0.46149 0.44295 0.0
C2114 C 0.14838 0.78941 0.51197 0.0
C2115 C 0.15593 0.76104 0.49904 0.0
C2116 C 0.20029 0.79395 0.46971 0.0
C2117 C 0.19421 0.82192 0.48304 0.0
N2118 N 0.17628 0.84519 0.51846 0.0
N2119 N 0.1933 0.73544 0.46645 0.0
C2120 C 0.17335 0.81914 0.50478 0.0
C2121 C 0.1834 0.76307 0.47813 0.0
N2122 N 0.11284 0.78871 0.53021 0.0
N2123 N 0.222 0.79731 0.44891 0.0
H2124 H 0.1841 0.71255 0.47268 0.0
H2125 H 0.2133 0.7346 0.45111 0.0
H2126 H 0.23915 0.81914 0.44323 0.0
H2127 H 0.22256 0.77912 0.43719 0.0
H2128 H 0.10063 0.80928 0.53891 0.0
H2129 H 0.08958 0.76829 0.53532 0.0
H2130 H 0.16747 0.84386 0.5352 0.0
H2131 H 0.19337 0.86743 0.5135 0.0
C2132 C 0.12204 0.7929 0.72283 0.0
C2133 C 0.10309 0.76444 0.73408 0.0
C2134 C 0.05114 0.79833 0.76121 0.0
C2135 C 0.06904 0.82636 0.74957 0.0
N2136 N 0.11051 0.85067 0.71737 0.0
N2137 N 0.05445 0.73986 0.76498 0.0
C2138 C 0.10086 0.82365 0.72971 0.0
C2139 C 0.06885 0.76713 0.75359 0.0
N2140 N 0.16441 0.79088 0.70671 0.0
N2141 N 0.01555 0.80191 0.77924 0.0
H2142 H 0.06191 0.71676 0.75884 0.0
H2143 H 0.03619 0.73968 0.78063 0.0
H2144 H 0.99797 0.82425 0.78373 0.0
H2145 H 1.00071 0.78319 0.78913 0.0
H2146 H 0.18467 0.81089 0.69958 0.0
H2147 H 0.18477 0.76938 0.70205 0.0
H2148 H 0.12775 0.85015 0.70152 0.0
H2149 H 0.09569 0.87345 0.7222 0.0
C2150 C 0.20854 0.46878 0.73268 0.0
C2151 C 0.20019 0.46237 0.75533 0.0
C2152 C 0.14597 0.51339 0.75956 0.0
C2153 C 0.15253 0.51966 0.73683 0.0
N2154 N 0.20781 0.50915 0.70377 0.0
N2155 N 0.18575 0.48554 0.79118 0.0
C2156 C 0.19051 0.49938 0.72417 0.0
C2157 C 0.1781 0.48741 0.76901 0.0
N2158 N 0.22927 0.44531 0.71898 0.0
N2159 N 0.10469 0.52957 0.77184 0.0
H2160 H 0.21036 0.467 0.79842 0.0
H2161 H 0.17408 0.5042 0.80181 0.0
H2162 H 0.0763 0.54711 0.76553 0.0
H2163 H 0.09432 0.52312 0.78791 0.0
H2164 H 0.22909 0.44756 0.70197 0.0
H2165 H 0.24394 0.4229 0.72445 0.0
H2166 H 0.23894 0.49666 0.69433 0.0
H2167 H 0.19572 0.53164 0.69744 0.0
C2168 C 0.91007 0.51699 0.50789 0.0
C2169 C 0.8954 0.51418 0.48533 0.0
C2170 C 0.9347 0.56875 0.47861 0.0
C2171 C 0.94626 0.57212 0.5013 0.0
N2172 N 0.96447 0.54629 0.53595 0.0
N2173 N 0.91291 0.53222 0.44845 0.0
C2174 C 0.94147 0.54481 0.51524 0.0
C2175 C 0.9149 0.53834 0.47044 0.0
N2176 N 0.88875 0.49514 0.5227 0.0
N2177 N 0.93931 0.59488 0.4651 0.0
H2178 H 0.89967 0.5098 0.44232 0.0
H2179 H 0.93 0.54784 0.43665 0.0
H2180 H 0.95571 0.61707 0.47045 0.0
H2181 H 0.92462 0.59489 0.44888 0.0
H2182 H 0.89186 0.49828 0.53961 0.0
H2183 H 0.86394 0.47494 0.51829 0.0
H2184 H 0.9677 0.52633 0.54627 0.0
H2185 H 0.98561 0.56696 0.54186 0.0
C2186 C 0.84311 0.24 0.47307 0.0
C2187 C 0.86418 0.26441 0.48747 0.0
C2188 C 0.81776 0.23548 0.51806 0.0
C2189 C 0.81129 0.20772 0.5046 0.0
N2190 N 0.81718 0.18357 0.46872 0.0
N2191 N 0.87255 0.28491 0.52441 0.0
C2192 C 0.82254 0.21012 0.48181 0.0
C2193 C 0.85005 0.26264 0.5101 0.0
N2194 N 0.84437 0.24537 0.45098 0.0
N2195 N 0.79554 0.23507 0.53889 0.0
H2196 H 0.8977 0.30472 0.51948 0.0
H2197 H 0.86992 0.28252 0.54138 0.0
H2198 H 0.77405 0.21487 0.54537 0.0
H2199 H 0.79348 0.25548 0.54883 0.0
H2200 H 0.82613 0.22955 0.43951 0.0
H2201 H 0.8582 0.26742 0.44444 0.0
H2202 H 0.83184 0.18291 0.45252 0.0
H2203 H 0.80035 0.16165 0.47434 0.0
C2204 C 0.89269 0.26281 0.22875 0.0
C2205 C 0.90037 0.26938 0.25141 0.0
C2206 C 0.95448 0.21783 0.25566 0.0
C2207 C 0.94604 0.21154 0.23299 0.0
N2208 N 0.931 0.23461 0.19712 0.0
N2209 N 0.95411 0.25785 0.28477 0.0
C2210 C 0.92398 0.23658 0.2193 0.0
C2211 C 0.93722 0.24853 0.2642 0.0
N2212 N 0.85085 0.27883 0.21657 0.0
N2213 N 0.97489 0.19415 0.26931 0.0
H2214 H 0.94329 0.2805 0.29111 0.0
H2215 H 0.98372 0.24475 0.2945 0.0
H2216 H 0.98888 0.17164 0.26381 0.0
H2217 H 0.97473 0.19616 0.28633 0.0
H2218 H 0.8399 0.27223 0.20057 0.0
H2219 H 0.82215 0.29609 0.22298 0.0
H2220 H 0.91942 0.25332 0.18651 0.0
H2221 H 0.95496 0.21591 0.18981 0.0
C2222 C 0.81518 0.56027 0.25588 0.0
C2223 C 0.80127 0.56354 0.23342 0.0
C2224 C 0.81685 0.50498 0.2284 0.0
C2225 C 0.83977 0.50287 0.25006 0.0
N2226 N 0.87224 0.53082 0.2829 0.0
N2227 N 0.78629 0.53936 0.19803 0.0
C2228 C 0.84118 0.53101 0.26356 0.0
C2229 C 0.80092 0.53581 0.21965 0.0
N2230 N 0.80519 0.58547 0.2698 0.0
N2231 N 0.80969 0.47746 0.21633 0.0
H2232 H 0.76973 0.56101 0.19178 0.0
H2233 H 0.79174 0.52149 0.18623 0.0
H2234 H 0.81847 0.45457 0.22264 0.0
H2235 H 0.79054 0.47676 0.2008 0.0
H2236 H 0.80904 0.58353 0.28678 0.0
H2237 H 0.78685 0.60726 0.26453 0.0
H2238 H 0.8797 0.55145 0.29225 0.0
H2239 H 0.897 0.51114 0.28839 0.0
C2240 C 0.57398 0.98875 0.4656 0.0
C2241 C 0.55266 0.96329 0.4791 0.0
C2242 C 0.563 0.99969 0.5106 0.0
C2243 C 0.60086 0.02019 0.49806 0.0
N2244 N 0.64631 0.0316 0.46286 0.0
N2245 N 0.52338 0.9457 0.51532 0.0
C2246 C 0.60617 1.01468 0.47519 0.0
C2247 C 0.54449 0.96932 0.50182 0.0
N2248 N 0.56575 0.98721 0.44344 0.0
N2249 N 0.5463 1.00905 0.53115 0.0
H2250 H 0.50735 0.92368 0.50964 0.0
H2251 H 0.52396 0.94753 0.53235 0.0
H2252 H 0.55882 0.03138 0.53765 0.0
H2253 H 0.51527 0.99646 0.54058 0.0
H2254 H 0.57689 1.00607 0.4329 0.0
H2255 H 0.54119 0.96865 0.43617 0.0
H2256 H 0.65608 0.02572 0.44664 0.0
H2257 H 0.67413 0.04938 0.4692 0.0
C2258 C 0.6517 0.28569 0.51286 0.0
C2259 C 0.66103 0.25709 0.50031 0.0
C2260 C 0.7028 0.29021 0.47052 0.0
C2261 C 0.69637 0.31826 0.48376 0.0
N2262 N 0.67838 0.34155 0.51923 0.0
N2263 N 0.69833 0.23159 0.46767 0.0
C2264 C 0.67603 0.31547 0.50557 0.0
C2265 C 0.68762 0.25921 0.47923 0.0
N2266 N 0.61467 0.2852 0.53069 0.0
N2267 N 0.72341 0.29357 0.44956 0.0
H2268 H 0.69103 0.20869 0.4742 0.0
H2269 H 0.7177 0.2308 0.45222 0.0
H2270 H 0.73917 0.31555 0.4436 0.0
H2271 H 0.7244 0.27521 0.43797 0.0
H2272 H 0.60153 0.30591 0.53905 0.0
H2273 H 0.59057 0.26491 0.53553 0.0
H2274 H 0.66986 0.34007 0.53599 0.0
H2275 H 0.69473 0.36395 0.51428 0.0
C2276 C 0.57254 0.2648 0.75767 0.0
C2277 C 0.60963 0.26342 0.73884 0.0
C2278 C 0.60191 0.32236 0.73491 0.0
C2279 C 0.57068 0.32414 0.75499 0.0
N2280 N 0.53302 0.29758 0.78729 0.0
N2281 N 0.67217 0.2921 0.71301 0.0
C2282 C 0.55779 0.29545 0.76689 0.0
C2283 C 0.62751 0.29253 0.72831 0.0
N2284 N 0.55016 0.23697 0.76639 0.0
N2285 N 0.60801 0.34936 0.72226 0.0
H2286 H 0.69555 0.27127 0.70878 0.0
H2287 H 0.691 0.31294 0.70642 0.0
H2288 H 0.5904 0.37168 0.7268 0.0
H2289 H 0.62524 0.34889 0.7064 0.0
H2290 H 0.51847 0.23653 0.77888 0.0
H2291 H 0.5594 0.2143 0.75982 0.0
H2292 H 0.52882 0.278 0.79787 0.0
H2293 H 0.51945 0.31947 0.79409 0.0
C2294 C 0.66195 1.01499 0.75967 0.0
C2295 C 0.64455 0.01653 0.73732 0.0
C2296 C 0.68328 0.96173 0.73131 0.0
C2297 C 0.6969 0.95939 0.75395 0.0
N2298 N 0.71835 0.98676 0.78779 0.0
N2299 N 0.65836 0.99674 0.70067 0.0
C2300 C 0.69363 0.98738 0.76732 0.0
C2301 C 0.66267 0.9917 0.72274 0.0
N2302 N 0.64313 0.03802 0.77409 0.0
N2303 N 0.6863 0.93502 0.71826 0.0
H2304 H 0.64409 0.01878 0.69422 0.0
H2305 H 0.67483 0.9807 0.68901 0.0
H2306 H 0.7033 0.91303 0.72367 0.0
H2307 H 0.66962 0.93432 0.70231 0.0
H2308 H 0.64808 0.03602 0.79101 0.0
H2309 H 0.61898 0.05828 0.76932 0.0
H2310 H 0.72265 1.00716 0.79764 0.0
H2311 H 0.73962 0.96627 0.79396 0.0
C2312 C 0.43363 0.03617 0.47472 0.0
C2313 C 0.39673 1.01512 0.4873 0.0
C2314 C 0.41865 0.048 0.51955 0.0
C2315 C 0.44116 0.07309 0.506 0.0
N2316 N 0.47005 0.09082 0.46981 0.0
N2317 N 0.34568 1.00561 0.52178 0.0
C2318 C 0.45006 0.06694 0.48337 0.0
C2319 C 0.38791 0.02174 0.50989 0.0
N2320 N 0.45149 0.02696 0.45427 0.0
N2321 N 0.42522 0.04978 0.54176 0.0
H2322 H 0.31764 0.98811 0.5152 0.0
H2323 H 0.33396 1.01225 0.53769 0.0
H2324 H 0.4488 0.06847 0.54928 0.0
H2325 H 0.41353 0.03091 0.55223 0.0
H2326 H 0.48169 0.04013 0.44485 0.0
H2327 H 0.44095 1.00436 0.44778 0.0
H2328 H 0.47041 0.08878 0.4528 0.0
H2329 H 0.48278 0.11354 0.47538 0.0
C2330 C 0.34064 0.74028 0.46804 0.0
C2331 C 0.36316 0.76431 0.48252 0.0
C2332 C 0.32085 0.7339 0.51323 0.0
C2333 C 0.31355 0.7066 0.49947 0.0
N2334 N 0.31476 0.68383 0.46318 0.0
N2335 N 0.37801 0.78228 0.5199 0.0
C2336 C 0.32175 0.70992 0.47658 0.0
C2337 C 0.35262 0.76125 0.50538 0.0
N2338 N 0.33853 0.74651 0.44606 0.0
N2339 N 0.29937 0.733 0.53415 0.0
H2340 H 0.40442 0.8017 0.51518 0.0
H2341 H 0.3772 0.77878 0.53681 0.0
H2342 H 0.27674 0.71291 0.54025 0.0
H2343 H 0.2985 0.75312 0.54439 0.0
H2344 H 0.31907 0.73097 0.43469 0.0
H2345 H 0.35067 0.76892 0.43964 0.0
H2346 H 0.32692 0.68382 0.4467 0.0
H2347 H 0.29929 0.66162 0.46884 0.0
C2348 C 0.40273 0.71031 0.25401 0.0
C2349 C 0.43145 0.70826 0.23344 0.0
C2350 C 0.4312 0.76757 0.2307 0.0
C2351 C 0.39536 0.76922 0.24982 0.0
N2352 N 0.33707 0.74127 0.27734 0.0
N2353 N 0.46995 0.73439 0.20114 0.0
C2354 C 0.37887 0.74037 0.26099 0.0
C2355 C 0.44514 0.73681 0.22153 0.0
N2356 N 0.39727 0.68336 0.26675 0.0
N2357 N 0.4528 0.79532 0.22158 0.0
H2358 H 0.48329 0.71236 0.1945 0.0
H2359 H 0.47481 0.75382 0.19048 0.0
H2360 H 0.44322 0.81812 0.2279 0.0
H2361 H 0.48398 0.7957 0.20892 0.0
H2362 H 0.38225 0.68395 0.2829 0.0
H2363 H 0.41332 0.66084 0.26193 0.0
H2364 H 0.31861 0.72066 0.28437 0.0
H2365 H 0.31574 0.76234 0.28236 0.0
C2366 C 0.35369 0.07048 0.24978 0.0
C2367 C 0.32187 0.07152 0.22974 0.0
C2368 C 0.32538 1.01211 0.22779 0.0
C2369 C 0.36304 1.01151 0.24652 0.0
N2370 N 0.42551 0.04136 0.27182 0.0
N2371 N 0.28412 0.04376 0.19789 0.0
C2372 C 0.38034 0.04104 0.25666 0.0
C2373 C 0.30951 0.04238 0.21824 0.0
N2374 N 0.35942 0.09783 0.2621 0.0
N2375 N 0.30354 0.98389 0.21945 0.0
H2376 H 0.2697 0.06536 0.1909 0.0
H2377 H 0.28022 0.0239 0.18754 0.0
H2378 H 0.31338 0.96147 0.22633 0.0
H2379 H 0.27166 0.98285 0.20701 0.0
H2380 H 0.37709 0.09787 0.27792 0.0
H2381 H 0.34106 0.11989 0.25737 0.0
H2382 H 0.44395 0.06251 0.2781 0.0
H2383 H 0.44963 0.02083 0.2762 0.0
C2384 C 0.57359 0.5127 0.98318 0.0
C2385 C 0.60812 0.51523 0.00268 0.0
C2386 C 0.60394 0.45612 0.00729 0.0
C2387 C 0.57251 0.45349 0.98731 0.0
N2388 N 0.52034 0.47806 0.95731 0.0
N2389 N 0.66844 0.48849 0.03027 0.0
C2390 C 0.55542 0.48156 0.97553 0.0
C2391 C 0.62608 0.48672 0.01409 0.0
N2392 N 0.55925 0.54006 0.97186 0.0
N2393 N 0.61249 0.42915 0.0198 0.0
H2394 H 0.68949 0.50984 0.03489 0.0
H2395 H 0.688 0.46835 0.03753 0.0
H2396 H 0.59697 0.40646 0.01502 0.0
H2397 H 0.62944 0.42969 0.03571 0.0
H2398 H 0.54032 0.54038 0.9563 0.0
H2399 H 0.56711 0.56311 0.97803 0.0
H2400 H 0.50637 0.49678 0.94724 0.0
H2401 H 0.50255 0.45578 0.95276 0.0
C2402 C 0.64555 0.78986 0.01514 0.0
C2403 C 0.65689 0.76103 0.00302 0.0
C2404 C 0.70346 0.79341 0.97382 0.0
C2405 C 0.69252 0.82187 0.98617 0.0
N2406 N 0.66645 0.84688 0.0203 0.0
N2407 N 0.69824 0.73475 0.97134 0.0
C2408 C 0.66822 0.81988 0.00746 0.0
C2409 C 0.68656 0.76266 0.98248 0.0
N2410 N 0.6088 0.78913 0.03306 0.0
N2411 N 0.73075 0.7962 0.95388 0.0
H2412 H 0.68965 0.71197 0.97786 0.0
H2413 H 0.71772 0.73356 0.95592 0.0
H2414 H 0.74817 0.81809 0.94841 0.0
H2415 H 0.73719 0.77743 0.94287 0.0
H2416 H 0.59344 0.80974 0.041 0.0
H2417 H 0.58804 0.7683 0.03877 0.0
H2418 H 0.6553 0.84652 0.03686 0.0
H2419 H 0.68187 0.86927 0.01491 0.0
C2420 C 0.57222 0.76283 0.2541 0.0
C2421 C 0.60813 0.76001 0.23507 0.0
C2422 C 0.6029 0.81892 0.22975 0.0
C2423 C 0.57366 0.82205 0.25016 0.0
N2424 N 0.53246 0.79762 0.28257 0.0
N2425 N 0.66535 0.78596 0.20639 0.0
C2426 C 0.55854 0.79409 0.26249 0.0
C2427 C 0.62508 0.7882 0.22318 0.0
N2428 N 0.55011 0.73565 0.26385 0.0
N2429 N 0.60975 0.84546 0.21671 0.0
H2430 H 0.68428 0.76429 0.20129 0.0
H2431 H 0.68452 0.80592 0.19879 0.0
H2432 H 0.59446 0.86826 0.22128 0.0
H2433 H 0.6252 0.84438 0.20063 0.0
H2434 H 0.51869 0.736 0.27642 0.0
H2435 H 0.55963 0.71247 0.25818 0.0
H2436 H 0.52665 0.77884 0.29369 0.0
H2437 H 0.51864 0.82 0.28841 0.0
C2438 C 0.68298 0.48684 0.26786 0.0
C2439 C 0.68976 0.45948 0.2541 0.0
C2440 C 0.66128 0.49302 0.22275 0.0
C2441 C 0.63907 0.51693 0.2373 0.0
N2442 N 0.62782 0.53593 0.27452 0.0
N2443 N 0.68646 0.43656 0.21783 0.0
C2444 C 0.65134 0.51428 0.26005 0.0
C2445 C 0.68053 0.46272 0.23124 0.0
N2446 N 0.70496 0.48594 0.28872 0.0
N2447 N 0.66205 0.4992 0.20077 0.0
H2448 H 0.70201 0.41432 0.22339 0.0
H2449 H 0.67347 0.43658 0.20142 0.0
H2450 H 0.64901 0.52154 0.19445 0.0
H2451 H 0.68114 0.48374 0.18929 0.0
H2452 H 0.70652 0.50604 0.29895 0.0
H2453 H 0.72717 0.46572 0.29477 0.0
H2454 H 0.6293 0.53278 0.29146 0.0
H2455 H 0.60293 0.5559 0.26973 0.0
C2456 C 0.41162 0.51735 0.00658 0.0
C2457 C 0.39501 0.51601 0.98411 0.0
C2458 C 0.43498 0.57084 0.97864 0.0
C2459 C 0.44909 0.57248 0.00122 0.0
N2460 N 0.47067 0.54407 0.03458 0.0
N2461 N 0.40946 0.53676 0.94762 0.0
C2462 C 0.44501 0.54427 0.01428 0.0
C2463 C 0.41348 0.54121 0.96976 0.0
N2464 N 0.39034 0.4951 0.02111 0.0
N2465 N 0.4391 0.59789 0.96598 0.0
H2466 H 0.39522 0.51494 0.94083 0.0
H2467 H 0.42625 0.5531 0.93621 0.0
H2468 H 0.45693 0.61947 0.97186 0.0
H2469 H 0.42258 0.59927 0.95003 0.0
H2470 H 0.39551 0.49724 0.03803 0.0
H2471 H 0.36305 0.4759 0.01662 0.0
H2472 H 0.47421 0.52339 0.04421 0.0
H2473 H 0.49374 0.56405 0.0406 0.0
C2474 C 0.3515 0.20864 0.97803 0.0
C2475 C 0.3207 0.20543 -0.0019 0.0
C2476 C 0.3238 0.26426 0.00332 0.0
C2477 C 0.35706 0.2676 0.98374 0.0
N2478 N 0.41474 0.24184 0.95506 0.0
N2479 N 0.27054 0.23107 0.02855 0.0
C2480 C 0.37365 0.23949 0.97159 0.0
C2481 C 0.30506 0.23331 0.01029 0.0
N2482 N 0.35948 0.18204 0.96512 0.0
N2483 N 0.31038 0.29064 0.01573 0.0
H2484 H 0.25164 0.20951 0.03399 0.0
H2485 H 0.25164 0.20951 0.03399 0.0
H2486 H 0.31919 0.31417 0.01066 0.0
H2487 H 0.28986 0.2888 0.03104 0.0
H2488 H 0.37602 0.18298 0.94919 0.0
H2489 H 0.34406 0.15923 0.96965 0.0
H2490 H 0.43333 0.22201 0.94715 0.0
H2491 H 0.43571 0.26334 0.95072 0.0
C2492 C 0.45455 0.23859 0.72155 0.0
C2493 C 0.44182 0.20971 0.73327 0.0
C2494 C 0.38558 0.24091 0.76033 0.0
C2495 C 0.40282 0.27015 0.74983 0.0
N2496 N 0.46153 0.29708 0.72229 0.0
N2497 N 0.40575 0.18415 0.76613 0.0
C2498 C 0.43968 0.26909 0.73095 0.0
C2499 C 0.41134 0.21124 0.75354 0.0
N2500 N 0.47929 0.23674 0.70113 0.0
N2501 N 0.34123 0.24104 0.77576 0.0
H2502 H 0.42315 0.16185 0.76148 0.0
H2503 H 0.38919 0.18453 0.78209 0.0
H2504 H 0.31773 0.26174 0.78018 0.0
H2505 H 0.32271 0.22008 0.78228 0.0
H2506 H 0.48334 0.25643 0.69064 0.0
H2507 H 0.49323 0.21496 0.69427 0.0
H2508 H 0.49314 0.29778 0.70978 0.0
H2509 H 0.45187 0.31968 0.72892 0.0
C2510 C 0.30223 0.56658 0.75292 0.0
C2511 C 0.31118 0.57333 0.73036 0.0
C2512 C 0.3646 0.52203 0.72596 0.0
C2513 C 0.35649 0.51508 0.74855 0.0
N2514 N 0.30113 0.52589 0.78159 0.0
N2515 N 0.32694 0.55086 0.69438 0.0
C2516 C 0.31909 0.53567 0.76127 0.0
C2517 C 0.33365 0.54853 0.71657 0.0
N2518 N 0.28179 0.59005 0.7667 0.0
N2519 N 0.4063 0.50596 0.71382 0.0
H2520 H 0.30314 0.5697 0.68712 0.0
H2521 H 0.33863 0.53229 0.68368 0.0
H2522 H 0.43425 0.48827 0.72019 0.0
H2523 H 0.41765 0.51276 0.6979 0.0
H2524 H 0.2814 0.58761 0.7837 0.0
H2525 H 0.26843 0.61275 0.76133 0.0
H2526 H 0.27057 0.53867 0.79109 0.0
H2527 H 0.31199 0.50317 0.78783 0.0
loop_
_geom_bond_atom_site_label_1
_geom_bond_atom_site_label_2
_geom_bond_distance
_geom_bond_site_symmetry_2
_ccdc_geom_bond_type
Co0 O3 1.970 . S
Co0 N17 1.989 . S
Co0 O25 1.967 . S
Co0 O32 1.920 . S
Co1 O4 1.966 . S
Co1 N10 2.022 . S
Co1 N18 1.993 . S
Co1 O26 1.941 . S
C2 O3 1.258 . S
C2 O4 1.263 . S
O3 Co0 1.970 . S
O3 C2 1.258 . S
O4 Co1 1.966 . S
O4 C2 1.263 . S
C5 O6 1.235 . S
C5 O32 1.289 . S
O6 C5 1.235 . S
C7 C9 1.400 . S
C7 N10 1.351 . S
C7 C12 1.501 1_554 S
C8 C9 1.387 . S
C8 N11 1.341 . S
C9 C7 1.400 . S
C9 C8 1.387 . S
N10 Co1 2.022 . S
N10 C7 1.351 . S
N10 N11 1.365 . S
N11 C8 1.341 . S
N11 N10 1.365 . S
N11 H31 0.862 . S
C12 C7 1.501 1_556 S
C12 H13 0.961 . S
C12 H14 0.961 . S
C12 H15 0.960 . S
H13 C12 0.961 . S
H14 C12 0.961 . S
H15 C12 0.960 . S
C16 N17 1.342 . S
C16 C20 1.401 . S
C16 C21 1.499 . S
N17 Co0 1.989 . S
N17 C16 1.342 . S
N17 N18 1.388 . S
N18 Co1 1.993 . S
N18 N17 1.388 . S
N18 C19 1.346 . S
C19 N18 1.346 . S
C19 C20 1.396 . S
C19 C29 1.510 . S
C20 C16 1.401 . S
C20 C19 1.396 . S
C21 C16 1.499 . S
C21 H22 0.959 . S
C21 H23 0.960 . S
C21 H24 0.961 . S
H22 C21 0.959 . S
H23 C21 0.960 . S
H24 C21 0.961 . S
O25 Co0 1.967 . S
O25 C33 1.258 . S
O26 Co1 1.941 . S
O26 C33 1.266 . S
H27 C29 0.959 . S
H28 C29 0.961 1_556 S
C29 C19 1.510 . S
C29 H27 0.959 . S
C29 H28 0.961 1_554 S
C29 H30 0.960 . S
H30 C29 0.960 . S
H31 N11 0.862 . S
O32 Co0 1.920 . S
O32 C5 1.289 . S
C33 O25 1.258 . S
C33 O26 1.266 . S
Co34 O37 1.970 . S
Co34 N51 1.989 . S
Co34 O59 1.967 . S
Co34 O66 1.920 . S
Co35 O38 1.966 . S
Co35 N44 2.022 1_655 S
Co35 N52 1.993 . S
Co35 O60 1.941 . S
C36 O37 1.258 . S
C36 O38 1.263 . S
O37 Co34 1.970 . S
O37 C36 1.258 . S
O38 Co35 1.966 . S
O38 C36 1.263 . S
C39 O40 1.235 . S
C39 O66 1.289 . S
O40 C39 1.235 . S
C41 C43 1.400 . S
C41 N44 1.351 . S
C41 C46 1.501 1_554 S
C42 C43 1.387 . S
C42 N45 1.341 . S
C43 C41 1.400 . S
C43 C42 1.387 . S
N44 Co35 2.022 1_455 S
N44 C41 1.351 . S
N44 N45 1.365 . S
N45 C42 1.341 . S
N45 N44 1.365 . S
N45 H65 0.862 . S
C46 C41 1.501 1_556 S
C46 H47 0.961 . S
C46 H48 0.961 . S
C46 H49 0.960 . S
H47 C46 0.961 . S
H48 C46 0.961 . S
H49 C46 0.960 . S
C50 N51 1.342 . S
C50 C54 1.401 . S
C50 C55 1.499 . S
N51 Co34 1.989 . S
N51 C50 1.342 . S
N51 N52 1.388 . S
N52 Co35 1.993 . S
N52 N51 1.388 . S
N52 C53 1.346 . S
C53 N52 1.346 . S
C53 C54 1.396 . S
C53 C63 1.510 . S
C54 C50 1.401 . S
C54 C53 1.396 . S
C55 C50 1.499 . S
C55 H56 0.959 . S
C55 H57 0.960 . S
C55 H58 0.961 . S
H56 C55 0.959 . S
H57 C55 0.960 . S
H58 C55 0.961 . S
O59 Co34 1.967 . S
O59 C67 1.258 . S
O60 Co35 1.941 . S
O60 C67 1.266 . S
H61 C63 0.959 . S
H62 C63 0.961 1_556 S
C63 C53 1.510 . S
C63 H61 0.959 . S
C63 H62 0.961 1_554 S
C63 H64 0.960 . S
H64 C63 0.960 . S
H65 N45 0.862 . S
O66 Co34 1.920 . S
O66 C39 1.289 . S
C67 O59 1.258 . S
C67 O60 1.266 . S
Co68 O71 1.970 . S
Co68 N85 1.989 . S
Co68 O93 1.967 . S
Co68 O100 1.920 . S
Co69 O72 1.966 . S
Co69 N78 2.022 . S
Co69 N86 1.993 . S
Co69 O94 1.941 . S
C70 O71 1.258 . S
C70 O72 1.263 . S
O71 Co68 1.970 . S
O71 C70 1.258 . S
O72 Co69 1.966 . S
O72 C70 1.263 . S
C73 O74 1.235 . S
C73 O100 1.289 . S
O74 C73 1.235 . S
C75 C77 1.400 . S
C75 N78 1.351 . S
C75 C80 1.501 . S
C76 C77 1.387 . S
C76 N79 1.341 . S
C77 C75 1.400 . S
C77 C76 1.387 . S
N78 Co69 2.022 . S
N78 C75 1.351 . S
N78 N79 1.365 . S
N79 C76 1.341 . S
N79 N78 1.365 . S
N79 H99 0.862 . S
C80 C75 1.501 . S
C80 H81 0.961 . S
C80 H82 0.961 . S
C80 H83 0.960 . S
H81 C80 0.961 . S
H82 C80 0.961 . S
H83 C80 0.960 . S
C84 N85 1.342 . S
C84 C88 1.401 . S
C84 C89 1.499 . S
N85 Co68 1.989 . S
N85 C84 1.342 . S
N85 N86 1.388 . S
N86 Co69 1.993 . S
N86 N85 1.388 . S
N86 C87 1.346 . S
C87 N86 1.346 . S
C87 C88 1.396 . S
C87 C97 1.510 . S
C88 C84 1.401 . S
C88 C87 1.396 . S
C89 C84 1.499 . S
C89 H90 0.959 . S
C89 H91 0.960 . S
C89 H92 0.961 . S
H90 C89 0.959 . S
H91 C89 0.960 . S
H92 C89 0.961 . S
O93 Co68 1.967 . S
O93 C101 1.258 . S
O94 Co69 1.941 . S
O94 C101 1.266 . S
H95 C97 0.959 . S
H96 C97 0.961 . S
C97 C87 1.510 . S
C97 H95 0.959 . S
C97 H96 0.961 . S
C97 H98 0.960 . S
H98 C97 0.960 . S
H99 N79 0.862 . S
O100 Co68 1.920 . S
O100 C73 1.289 . S
C101 O93 1.258 . S
C101 O94 1.266 . S
Co102 O105 1.970 . S
Co102 N119 1.989 . S
Co102 O127 1.967 . S
Co102 O134 1.920 . S
Co103 O106 1.966 . S
Co103 N112 2.022 1_655 S
Co103 N120 1.993 . S
Co103 O128 1.941 . S
C104 O105 1.258 . S
C104 O106 1.263 . S
O105 Co102 1.970 . S
O105 C104 1.258 . S
O106 Co103 1.966 . S
O106 C104 1.263 . S
C107 O108 1.235 . S
C107 O134 1.289 . S
O108 C107 1.235 . S
C109 C111 1.400 . S
C109 N112 1.351 . S
C109 C114 1.501 . S
C110 C111 1.387 . S
C110 N113 1.341 . S
C111 C109 1.400 . S
C111 C110 1.387 . S
N112 Co103 2.022 1_455 S
N112 C109 1.351 . S
N112 N113 1.365 . S
N113 C110 1.341 . S
N113 N112 1.365 . S
N113 H133 0.862 . S
C114 C109 1.501 . S
C114 H115 0.961 . S
C114 H116 0.961 . S
C114 H117 0.960 . S
H115 C114 0.961 . S
H116 C114 0.961 . S
H117 C114 0.960 . S
C118 N119 1.342 . S
C118 C122 1.401 . S
C118 C123 1.499 . S
N119 Co102 1.989 . S
N119 C118 1.342 . S
N119 N120 1.388 . S
N120 Co103 1.993 . S
N120 N119 1.388 . S
N120 C121 1.346 . S
C121 N120 1.346 . S
C121 C122 1.396 . S
C121 C131 1.510 . S
C122 C118 1.401 . S
C122 C121 1.396 . S
C123 C118 1.499 . S
C123 H124 0.959 . S
C123 H125 0.960 . S
C123 H126 0.961 . S
H124 C123 0.959 . S
H125 C123 0.960 . S
H126 C123 0.961 . S
O127 Co102 1.967 . S
O127 C135 1.258 . S
O128 Co103 1.941 . S
O128 C135 1.266 . S
H129 C131 0.959 . S
H130 C131 0.961 . S
C131 C121 1.510 . S
C131 H129 0.959 . S
C131 H130 0.961 . S
C131 H132 0.960 . S
H132 C131 0.960 . S
H133 N113 0.862 . S
O134 Co102 1.920 . S
O134 C107 1.289 . S
C135 O127 1.258 . S
C135 O128 1.266 . S
Co136 O139 1.970 . S
Co136 N153 1.989 . S
Co136 O161 1.967 . S
Co136 O168 1.920 . S
Co137 O140 1.966 . S
Co137 N146 2.022 . S
Co137 N154 1.993 . S
Co137 O162 1.941 . S
C138 O139 1.258 . S
C138 O140 1.263 . S
O139 Co136 1.970 . S
O139 C138 1.258 . S
O140 Co137 1.966 . S
O140 C138 1.263 . S
C141 O142 1.235 . S
C141 O168 1.289 . S
O142 C141 1.235 . S
C143 C145 1.400 . S
C143 N146 1.351 . S
C143 C148 1.501 1_556 S
C144 C145 1.387 . S
C144 N147 1.341 . S
C145 C143 1.400 . S
C145 C144 1.387 . S
N146 Co137 2.022 . S
N146 C143 1.351 . S
N146 N147 1.365 . S
N147 C144 1.341 . S
N147 N146 1.365 . S
N147 H167 0.862 . S
C148 C143 1.501 1_554 S
C148 H149 0.961 . S
C148 H150 0.961 . S
C148 H151 0.960 . S
H149 C148 0.961 . S
H150 C148 0.961 . S
H151 C148 0.960 . S
C152 N153 1.342 . S
C152 C156 1.401 . S
C152 C157 1.499 . S
N153 Co136 1.989 . S
N153 C152 1.342 . S
N153 N154 1.388 . S
N154 Co137 1.993 . S
N154 N153 1.388 . S
N154 C155 1.346 . S
C155 N154 1.346 . S
C155 C156 1.396 . S
C155 C165 1.510 . S
C156 C152 1.401 . S
C156 C155 1.396 . S
C157 C152 1.499 . S
C157 H158 0.959 . S
C157 H159 0.960 . S
C157 H160 0.961 . S
H158 C157 0.959 . S
H159 C157 0.960 . S
H160 C157 0.961 . S
O161 Co136 1.967 . S
O161 C169 1.258 . S
O162 Co137 1.941 . S
O162 C169 1.266 . S
H163 C165 0.959 . S
H164 C165 0.961 1_554 S
C165 C155 1.510 . S
C165 H163 0.959 . S
C165 H164 0.961 1_556 S
C165 H166 0.960 . S
H166 C165 0.960 . S
H167 N147 0.862 . S
O168 Co136 1.920 . S
O168 C141 1.289 . S
C169 O161 1.258 . S
C169 O162 1.266 . S
Co170 O173 1.970 . S
Co170 N187 1.989 . S
Co170 O195 1.967 . S
Co170 O202 1.920 . S
Co171 O174 1.966 . S
Co171 N180 2.022 1_455 S
Co171 N188 1.993 . S
Co171 O196 1.941 . S
C172 O173 1.258 . S
C172 O174 1.263 . S
O173 Co170 1.970 . S
O173 C172 1.258 . S
O174 Co171 1.966 . S
O174 C172 1.263 . S
C175 O176 1.235 . S
C175 O202 1.289 . S
O176 C175 1.235 . S
C177 C179 1.400 . S
C177 N180 1.351 . S
C177 C182 1.501 1_556 S
C178 C179 1.387 . S
C178 N181 1.341 . S
C179 C177 1.400 . S
C179 C178 1.387 . S
N180 Co171 2.022 1_655 S
N180 C177 1.351 . S
N180 N181 1.365 . S
N181 C178 1.341 . S
N181 N180 1.365 . S
N181 H201 0.862 . S
C182 C177 1.501 1_554 S
C182 H183 0.961 . S
C182 H184 0.961 . S
C182 H185 0.960 . S
H183 C182 0.961 . S
H184 C182 0.961 . S
H185 C182 0.960 . S
C186 N187 1.342 . S
C186 C190 1.401 . S
C186 C191 1.499 . S
N187 Co170 1.989 . S
N187 C186 1.342 . S
N187 N188 1.388 . S
N188 Co171 1.993 . S
N188 N187 1.388 . S
N188 C189 1.346 . S
C189 N188 1.346 . S
C189 C190 1.396 . S
C189 C199 1.510 . S
C190 C186 1.401 . S
C190 C189 1.396 . S
C191 C186 1.499 . S
C191 H192 0.959 . S
C191 H193 0.960 . S
C191 H194 0.961 . S
H192 C191 0.959 . S
H193 C191 0.960 . S
H194 C191 0.961 . S
O195 Co170 1.967 . S
O195 C203 1.258 . S
O196 Co171 1.941 . S
O196 C203 1.266 . S
H197 C199 0.959 . S
H198 C199 0.961 1_554 S
C199 C189 1.510 . S
C199 H197 0.959 . S
C199 H198 0.961 1_556 S
C199 H200 0.960 . S
H200 C199 0.960 . S
H201 N181 0.862 . S
O202 Co170 1.920 . S
O202 C175 1.289 . S
C203 O195 1.258 . S
C203 O196 1.266 . S
Co204 O207 1.970 . S
Co204 N221 1.989 . S
Co204 O229 1.967 . S
Co204 O236 1.920 . S
Co205 O208 1.966 . S
Co205 N214 2.022 . S
Co205 N222 1.993 . S
Co205 O230 1.941 . S
C206 O207 1.258 . S
C206 O208 1.263 . S
O207 Co204 1.970 . S
O207 C206 1.258 . S
O208 Co205 1.966 . S
O208 C206 1.263 . S
C209 O210 1.235 . S
C209 O236 1.289 . S
O210 C209 1.235 . S
C211 C213 1.400 . S
C211 N214 1.351 . S
C211 C216 1.501 . S
C212 C213 1.387 . S
C212 N215 1.341 . S
C213 C211 1.400 . S
C213 C212 1.387 . S
N214 Co205 2.022 . S
N214 C211 1.351 . S
N214 N215 1.365 . S
N215 C212 1.341 . S
N215 N214 1.365 . S
N215 H235 0.862 . S
C216 C211 1.501 . S
C216 H217 0.961 . S
C216 H218 0.961 . S
C216 H219 0.960 . S
H217 C216 0.961 . S
H218 C216 0.961 . S
H219 C216 0.960 . S
C220 N221 1.342 . S
C220 C224 1.401 . S
C220 C225 1.499 . S
N221 Co204 1.989 . S
N221 C220 1.342 . S
N221 N222 1.388 . S
N222 Co205 1.993 . S
N222 N221 1.388 . S
N222 C223 1.346 . S
C223 N222 1.346 . S
C223 C224 1.396 . S
C223 C233 1.510 . S
C224 C220 1.401 . S
C224 C223 1.396 . S
C225 C220 1.499 . S
C225 H226 0.959 . S
C225 H227 0.960 . S
C225 H228 0.961 . S
H226 C225 0.959 . S
H227 C225 0.960 . S
H228 C225 0.961 . S
O229 Co204 1.967 . S
O229 C237 1.258 . S
O230 Co205 1.941 . S
O230 C237 1.266 . S
H231 C233 0.959 . S
H232 C233 0.961 . S
C233 C223 1.510 . S
C233 H231 0.959 . S
C233 H232 0.961 . S
C233 H234 0.960 . S
H234 C233 0.960 . S
H235 N215 0.862 . S
O236 Co204 1.920 . S
O236 C209 1.289 . S
C237 O229 1.258 . S
C237 O230 1.266 . S
Co238 O241 1.970 . S
Co238 N255 1.989 . S
Co238 O263 1.967 . S
Co238 O270 1.920 . S
Co239 O242 1.966 . S
Co239 N248 2.022 1_455 S
Co239 N256 1.993 . S
Co239 O264 1.941 . S
C240 O241 1.258 . S
C240 O242 1.263 . S
O241 Co238 1.970 . S
O241 C240 1.258 . S
O242 Co239 1.966 . S
O242 C240 1.263 . S
C243 O244 1.235 . S
C243 O270 1.289 . S
O244 C243 1.235 . S
C245 C247 1.400 . S
C245 N248 1.351 . S
C245 C250 1.501 . S
C246 C247 1.387 . S
C246 N249 1.341 . S
C247 C245 1.400 . S
C247 C246 1.387 . S
N248 Co239 2.022 1_655 S
N248 C245 1.351 . S
N248 N249 1.365 . S
N249 C246 1.341 . S
N249 N248 1.365 . S
N249 H269 0.862 . S
C250 C245 1.501 . S
C250 H251 0.961 . S
C250 H252 0.961 . S
C250 H253 0.960 . S
H251 C250 0.961 . S
H252 C250 0.961 . S
H253 C250 0.960 . S
C254 N255 1.342 . S
C254 C258 1.401 . S
C254 C259 1.499 . S
N255 Co238 1.989 . S
N255 C254 1.342 . S
N255 N256 1.388 . S
N256 Co239 1.993 . S
N256 N255 1.388 . S
N256 C257 1.346 . S
C257 N256 1.346 . S
C257 C258 1.396 . S
C257 C267 1.510 . S
C258 C254 1.401 . S
C258 C257 1.396 . S
C259 C254 1.499 . S
C259 H260 0.959 . S
C259 H261 0.960 . S
C259 H262 0.961 . S
H260 C259 0.959 . S
H261 C259 0.960 . S
H262 C259 0.961 . S
O263 Co238 1.967 . S
O263 C271 1.258 . S
O264 Co239 1.941 . S
O264 C271 1.266 . S
H265 C267 0.959 . S
H266 C267 0.961 . S
C267 C257 1.510 . S
C267 H265 0.959 . S
C267 H266 0.961 . S
C267 H268 0.960 . S
H268 C267 0.960 . S
H269 N249 0.862 . S
O270 Co238 1.920 . S
O270 C243 1.289 . S
C271 O263 1.258 . S
C271 O264 1.266 . S
Co272 O275 1.970 . S
Co272 N289 1.989 . S
Co272 O297 1.967 . S
Co272 O304 1.920 . S
Co273 O276 1.966 . S
Co273 N282 2.022 . S
Co273 N290 1.993 . S
Co273 O298 1.941 . S
C274 O275 1.258 . S
C274 O276 1.263 . S
O275 Co272 1.970 . S
O275 C274 1.258 . S
O276 Co273 1.966 . S
O276 C274 1.263 . S
C277 O278 1.235 . S
C277 O304 1.289 . S
O278 C277 1.235 . S
C279 C281 1.400 . S
C279 N282 1.351 . S
C279 C284 1.501 . S
C280 C281 1.387 . S
C280 N283 1.341 . S
C281 C279 1.400 . S
C281 C280 1.387 . S
N282 Co273 2.022 . S
N282 C279 1.351 . S
N282 N283 1.365 . S
N283 C280 1.341 . S
N283 N282 1.365 . S
N283 H303 0.862 . S
C284 C279 1.501 . S
C284 H285 0.961 . S
C284 H286 0.961 . S
C284 H287 0.960 . S
H285 C284 0.961 . S
H286 C284 0.961 . S
H287 C284 0.960 . S
C288 N289 1.342 . S
C288 C292 1.401 . S
C288 C293 1.499 . S
N289 Co272 1.989 . S
N289 C288 1.342 . S
N289 N290 1.388 . S
N290 Co273 1.993 . S
N290 N289 1.388 . S
N290 C291 1.346 . S
C291 N290 1.346 . S
C291 C292 1.396 . S
C291 C301 1.510 . S
C292 C288 1.401 . S
C292 C291 1.396 . S
C293 C288 1.499 . S
C293 H294 0.959 . S
C293 H295 0.960 . S
C293 H296 0.961 . S
H294 C293 0.959 . S
H295 C293 0.960 . S
H296 C293 0.961 . S
O297 Co272 1.967 . S
O297 C305 1.258 . S
O298 Co273 1.941 . S
O298 C305 1.266 . S
H299 C301 0.959 . S
H300 C301 0.961 . S
C301 C291 1.510 . S
C301 H299 0.959 . S
C301 H300 0.961 . S
C301 H302 0.960 . S
H302 C301 0.960 . S
H303 N283 0.862 . S
O304 Co272 1.920 . S
O304 C277 1.289 . S
C305 O297 1.258 . S
C305 O298 1.266 . S
Co306 O309 1.970 . S
Co306 N323 1.989 . S
Co306 O331 1.967 . S
Co306 O338 1.920 . S
Co307 O310 1.966 . S
Co307 N316 2.022 1_655 S
Co307 N324 1.993 . S
Co307 O332 1.941 . S
C308 O309 1.258 . S
C308 O310 1.263 . S
O309 Co306 1.970 . S
O309 C308 1.258 . S
O310 Co307 1.966 . S
O310 C308 1.263 . S
C311 O312 1.235 . S
C311 O338 1.289 . S
O312 C311 1.235 . S
C313 C315 1.400 . S
C313 N316 1.351 . S
C313 C318 1.501 . S
C314 C315 1.387 . S
C314 N317 1.341 . S
C315 C313 1.400 . S
C315 C314 1.387 . S
N316 Co307 2.022 1_455 S
N316 C313 1.351 . S
N316 N317 1.365 . S
N317 C314 1.341 . S
N317 N316 1.365 . S
N317 H337 0.862 . S
C318 C313 1.501 . S
C318 H319 0.961 . S
C318 H320 0.961 . S
C318 H321 0.960 . S
H319 C318 0.961 . S
H320 C318 0.961 . S
H321 C318 0.960 . S
C322 N323 1.342 . S
C322 C326 1.401 . S
C322 C327 1.499 . S
N323 Co306 1.989 . S
N323 C322 1.342 . S
N323 N324 1.388 . S
N324 Co307 1.993 . S
N324 N323 1.388 . S
N324 C325 1.346 . S
C325 N324 1.346 . S
C325 C326 1.396 . S
C325 C335 1.510 . S
C326 C322 1.401 . S
C326 C325 1.396 . S
C327 C322 1.499 . S
C327 H328 0.959 . S
C327 H329 0.960 . S
C327 H330 0.961 . S
H328 C327 0.959 . S
H329 C327 0.960 . S
H330 C327 0.961 . S
O331 Co306 1.967 . S
O331 C339 1.258 . S
O332 Co307 1.941 . S
O332 C339 1.266 . S
H333 C335 0.959 . S
H334 C335 0.961 . S
C335 C325 1.510 . S
C335 H333 0.959 . S
C335 H334 0.961 . S
C335 H336 0.960 . S
H336 C335 0.960 . S
H337 N317 0.862 . S
O338 Co306 1.920 . S
O338 C311 1.289 . S
C339 O331 1.258 . S
C339 O332 1.266 . S
Co340 O343 1.970 . S
Co340 N357 1.989 . S
Co340 O365 1.967 . S
Co340 O372 1.920 . S
Co341 O344 1.966 . S
Co341 N350 2.022 . S
Co341 N358 1.993 . S
Co341 O366 1.941 . S
C342 O343 1.258 . S
C342 O344 1.263 . S
O343 Co340 1.970 . S
O343 C342 1.258 . S
O344 Co341 1.966 . S
O344 C342 1.263 . S
C345 O346 1.235 . S
C345 O372 1.289 . S
O346 C345 1.235 . S
C347 C349 1.400 . S
C347 N350 1.351 . S
C347 C352 1.501 . S
C348 C349 1.387 . S
C348 N351 1.341 . S
C349 C347 1.400 . S
C349 C348 1.387 . S
N350 Co341 2.022 . S
N350 C347 1.351 . S
N350 N351 1.365 . S
N351 C348 1.341 . S
N351 N350 1.365 . S
N351 H371 0.862 . S
C352 C347 1.501 . S
C352 H353 0.961 . S
C352 H354 0.961 . S
C352 H355 0.960 . S
H353 C352 0.961 . S
H354 C352 0.961 . S
H355 C352 0.960 . S
C356 N357 1.342 . S
C356 C360 1.401 . S
C356 C361 1.499 . S
N357 Co340 1.989 . S
N357 C356 1.342 . S
N357 N358 1.388 . S
N358 Co341 1.993 . S
N358 N357 1.388 . S
N358 C359 1.346 . S
C359 N358 1.346 . S
C359 C360 1.396 . S
C359 C369 1.510 . S
C360 C356 1.401 . S
C360 C359 1.396 . S
C361 C356 1.499 . S
C361 H362 0.959 . S
C361 H363 0.960 . S
C361 H364 0.961 . S
H362 C361 0.959 . S
H363 C361 0.960 . S
H364 C361 0.961 . S
O365 Co340 1.967 . S
O365 C373 1.258 . S
O366 Co341 1.941 . S
O366 C373 1.266 . S
H367 C369 0.959 . S
H368 C369 0.961 . S
C369 C359 1.510 . S
C369 H367 0.959 . S
C369 H368 0.961 . S
C369 H370 0.960 . S
H370 C369 0.960 . S
H371 N351 0.862 . S
O372 Co340 1.920 . S
O372 C345 1.289 . S
C373 O365 1.258 . S
C373 O366 1.266 . S
Co374 O377 1.970 . S
Co374 N391 1.989 . S
Co374 O399 1.967 . S
Co374 O406 1.920 . S
Co375 O378 1.966 . S
Co375 N384 2.022 1_655 S
Co375 N392 1.993 . S
Co375 O400 1.941 . S
C376 O377 1.258 . S
C376 O378 1.263 . S
O377 Co374 1.970 . S
O377 C376 1.258 . S
O378 Co375 1.966 . S
O378 C376 1.263 . S
C379 O380 1.235 . S
C379 O406 1.289 . S
O380 C379 1.235 . S
C381 C383 1.400 . S
C381 N384 1.351 . S
C381 C386 1.501 . S
C382 C383 1.387 . S
C382 N385 1.341 . S
C383 C381 1.400 . S
C383 C382 1.387 . S
N384 Co375 2.022 1_455 S
N384 C381 1.351 . S
N384 N385 1.365 . S
N385 C382 1.341 . S
N385 N384 1.365 . S
N385 H405 0.862 . S
C386 C381 1.501 . S
C386 H387 0.961 . S
C386 H388 0.961 . S
C386 H389 0.960 . S
H387 C386 0.961 . S
H388 C386 0.961 . S
H389 C386 0.960 . S
C390 N391 1.342 . S
C390 C394 1.401 . S
C390 C395 1.499 . S
N391 Co374 1.989 . S
N391 C390 1.342 . S
N391 N392 1.388 . S
N392 Co375 1.993 . S
N392 N391 1.388 . S
N392 C393 1.346 . S
C393 N392 1.346 . S
C393 C394 1.396 . S
C393 C403 1.510 . S
C394 C390 1.401 . S
C394 C393 1.396 . S
C395 C390 1.499 . S
C395 H396 0.959 . S
C395 H397 0.960 . S
C395 H398 0.961 . S
H396 C395 0.959 . S
H397 C395 0.960 . S
H398 C395 0.961 . S
O399 Co374 1.967 . S
O399 C407 1.258 . S
O400 Co375 1.941 . S
O400 C407 1.266 . S
H401 C403 0.959 . S
H402 C403 0.961 . S
C403 C393 1.510 . S
C403 H401 0.959 . S
C403 H402 0.961 . S
C403 H404 0.960 . S
H404 C403 0.960 . S
H405 N385 0.862 . S
O406 Co374 1.920 . S
O406 C379 1.289 . S
C407 O399 1.258 . S
C407 O400 1.266 . S
Co408 O411 1.970 . S
Co408 N425 1.989 . S
Co408 O433 1.967 . S
Co408 O440 1.920 . S
Co409 O412 1.966 . S
Co409 N418 2.022 . S
Co409 N426 1.993 . S
Co409 O434 1.941 . S
C410 O411 1.258 . S
C410 O412 1.263 . S
O411 Co408 1.970 . S
O411 C410 1.258 . S
O412 Co409 1.966 . S
O412 C410 1.263 . S
C413 O414 1.235 . S
C413 O440 1.289 . S
O414 C413 1.235 . S
C415 C417 1.400 . S
C415 N418 1.351 . S
C415 C420 1.501 . S
C416 C417 1.387 . S
C416 N419 1.341 . S
C417 C415 1.400 . S
C417 C416 1.387 . S
N418 Co409 2.022 . S
N418 C415 1.351 . S
N418 N419 1.365 . S
N419 C416 1.341 . S
N419 N418 1.365 . S
N419 H439 0.862 . S
C420 C415 1.501 . S
C420 H421 0.961 . S
C420 H422 0.961 . S
C420 H423 0.960 . S
H421 C420 0.961 . S
H422 C420 0.961 . S
H423 C420 0.960 . S
C424 N425 1.342 . S
C424 C428 1.401 . S
C424 C429 1.499 . S
N425 Co408 1.989 . S
N425 C424 1.342 . S
N425 N426 1.388 . S
N426 Co409 1.993 . S
N426 N425 1.388 . S
N426 C427 1.346 . S
C427 N426 1.346 . S
C427 C428 1.396 . S
C427 C437 1.510 . S
C428 C424 1.401 . S
C428 C427 1.396 . S
C429 C424 1.499 . S
C429 H430 0.959 . S
C429 H431 0.960 . S
C429 H432 0.961 . S
H430 C429 0.959 . S
H431 C429 0.960 . S
H432 C429 0.961 . S
O433 Co408 1.967 . S
O433 C441 1.258 . S
O434 Co409 1.941 . S
O434 C441 1.266 . S
H435 C437 0.959 . S
H436 C437 0.961 . S
C437 C427 1.510 . S
C437 H435 0.959 . S
C437 H436 0.961 . S
C437 H438 0.960 . S
H438 C437 0.960 . S
H439 N419 0.862 . S
O440 Co408 1.920 . S
O440 C413 1.289 . S
C441 O433 1.258 . S
C441 O434 1.266 . S
Co442 O445 1.970 . S
Co442 N459 1.989 . S
Co442 O467 1.967 . S
Co442 O474 1.920 . S
Co443 O446 1.966 . S
Co443 N452 2.022 1_455 S
Co443 N460 1.993 . S
Co443 O468 1.941 . S
C444 O445 1.258 . S
C444 O446 1.263 . S
O445 Co442 1.970 . S
O445 C444 1.258 . S
O446 Co443 1.966 . S
O446 C444 1.263 . S
C447 O448 1.235 . S
C447 O474 1.289 . S
O448 C447 1.235 . S
C449 C451 1.400 . S
C449 N452 1.351 . S
C449 C454 1.501 . S
C450 C451 1.387 . S
C450 N453 1.341 . S
C451 C449 1.400 . S
C451 C450 1.387 . S
N452 Co443 2.022 1_655 S
N452 C449 1.351 . S
N452 N453 1.365 . S
N453 C450 1.341 . S
N453 N452 1.365 . S
N453 H473 0.862 . S
C454 C449 1.501 . S
C454 H455 0.961 . S
C454 H456 0.961 . S
C454 H457 0.960 . S
H455 C454 0.961 . S
H456 C454 0.961 . S
H457 C454 0.960 . S
C458 N459 1.342 . S
C458 C462 1.401 . S
C458 C463 1.499 . S
N459 Co442 1.989 . S
N459 C458 1.342 . S
N459 N460 1.388 . S
N460 Co443 1.993 . S
N460 N459 1.388 . S
N460 C461 1.346 . S
C461 N460 1.346 . S
C461 C462 1.396 . S
C461 C471 1.510 . S
C462 C458 1.401 . S
C462 C461 1.396 . S
C463 C458 1.499 . S
C463 H464 0.959 . S
C463 H465 0.960 . S
C463 H466 0.961 . S
H464 C463 0.959 . S
H465 C463 0.960 . S
H466 C463 0.961 . S
O467 Co442 1.967 . S
O467 C475 1.258 . S
O468 Co443 1.941 . S
O468 C475 1.266 . S
H469 C471 0.959 . S
H470 C471 0.961 . S
C471 C461 1.510 . S
C471 H469 0.959 . S
C471 H470 0.961 . S
C471 H472 0.960 . S
H472 C471 0.960 . S
H473 N453 0.862 . S
O474 Co442 1.920 . S
O474 C447 1.289 . S
C475 O467 1.258 . S
C475 O468 1.266 . S
Co476 O479 1.970 . S
Co476 N493 1.989 . S
Co476 O501 1.967 . S
Co476 O508 1.920 . S
Co477 O480 1.966 . S
Co477 N486 2.022 . S
Co477 N494 1.993 . S
Co477 O502 1.941 . S
C478 O479 1.258 . S
C478 O480 1.263 . S
O479 Co476 1.970 . S
O479 C478 1.258 . S
O480 Co477 1.966 . S
O480 C478 1.263 . S
C481 O482 1.235 . S
C481 O508 1.289 . S
O482 C481 1.235 . S
C483 C485 1.400 . S
C483 N486 1.351 . S
C483 C488 1.501 . S
C484 C485 1.387 . S
C484 N487 1.341 . S
C485 C483 1.400 . S
C485 C484 1.387 . S
N486 Co477 2.022 . S
N486 C483 1.351 . S
N486 N487 1.365 . S
N487 C484 1.341 . S
N487 N486 1.365 . S
N487 H507 0.862 . S
C488 C483 1.501 . S
C488 H489 0.961 . S
C488 H490 0.961 . S
C488 H491 0.960 . S
H489 C488 0.961 . S
H490 C488 0.961 . S
H491 C488 0.960 . S
C492 N493 1.342 . S
C492 C496 1.401 . S
C492 C497 1.499 . S
N493 Co476 1.989 . S
N493 C492 1.342 . S
N493 N494 1.388 . S
N494 Co477 1.993 . S
N494 N493 1.388 . S
N494 C495 1.346 . S
C495 N494 1.346 . S
C495 C496 1.396 . S
C495 C505 1.510 . S
C496 C492 1.401 . S
C496 C495 1.396 . S
C497 C492 1.499 . S
C497 H498 0.959 . S
C497 H499 0.960 . S
C497 H500 0.961 . S
H498 C497 0.959 . S
H499 C497 0.960 . S
H500 C497 0.961 . S
O501 Co476 1.967 . S
O501 C509 1.258 . S
O502 Co477 1.941 . S
O502 C509 1.266 . S
H503 C505 0.959 . S
H504 C505 0.961 . S
C505 C495 1.510 . S
C505 H503 0.959 . S
C505 H504 0.961 . S
C505 H506 0.960 . S
H506 C505 0.960 . S
H507 N487 0.862 . S
O508 Co476 1.920 . S
O508 C481 1.289 . S
C509 O501 1.258 . S
C509 O502 1.266 . S
Co510 O513 1.970 . S
Co510 N527 1.989 . S
Co510 O535 1.967 . S
Co510 O542 1.920 . S
Co511 O514 1.966 . S
Co511 N520 2.022 1_455 S
Co511 N528 1.993 . S
Co511 O536 1.941 . S
C512 O513 1.258 . S
C512 O514 1.263 . S
O513 Co510 1.970 . S
O513 C512 1.258 . S
O514 Co511 1.966 . S
O514 C512 1.263 . S
C515 O516 1.235 . S
C515 O542 1.289 . S
O516 C515 1.235 . S
C517 C519 1.400 . S
C517 N520 1.351 . S
C517 C522 1.501 . S
C518 C519 1.387 . S
C518 N521 1.341 . S
C519 C517 1.400 . S
C519 C518 1.387 . S
N520 Co511 2.022 1_655 S
N520 C517 1.351 . S
N520 N521 1.365 . S
N521 C518 1.341 . S
N521 N520 1.365 . S
N521 H541 0.862 . S
C522 C517 1.501 . S
C522 H523 0.961 . S
C522 H524 0.961 . S
C522 H525 0.960 . S
H523 C522 0.961 . S
H524 C522 0.961 . S
H525 C522 0.960 . S
C526 N527 1.342 . S
C526 C530 1.401 . S
C526 C531 1.499 . S
N527 Co510 1.989 . S
N527 C526 1.342 . S
N527 N528 1.388 . S
N528 Co511 1.993 . S
N528 N527 1.388 . S
N528 C529 1.346 . S
C529 N528 1.346 . S
C529 C530 1.396 . S
C529 C539 1.510 . S
C530 C526 1.401 . S
C530 C529 1.396 . S
C531 C526 1.499 . S
C531 H532 0.959 . S
C531 H533 0.960 . S
C531 H534 0.961 . S
H532 C531 0.959 . S
H533 C531 0.960 . S
H534 C531 0.961 . S
O535 Co510 1.967 . S
O535 C543 1.258 . S
O536 Co511 1.941 . S
O536 C543 1.266 . S
H537 C539 0.959 . S
H538 C539 0.961 . S
C539 C529 1.510 . S
C539 H537 0.959 . S
C539 H538 0.961 . S
C539 H540 0.960 . S
H540 C539 0.960 . S
H541 N521 0.862 . S
O542 Co510 1.920 . S
O542 C515 1.289 . S
C543 O535 1.258 . S
C543 O536 1.266 . S
Co544 O547 1.970 . S
Co544 N561 1.989 . S
Co544 O569 1.967 . S
Co544 O576 1.920 . S
Co545 O548 1.966 . S
Co545 N554 2.022 . S
Co545 N562 1.993 . S
Co545 O570 1.941 . S
C546 O547 1.258 . S
C546 O548 1.263 . S
O547 Co544 1.970 . S
O547 C546 1.258 . S
O548 Co545 1.966 . S
O548 C546 1.263 . S
C549 O550 1.235 . S
C549 O576 1.289 1_455 S
O550 C549 1.235 . S
C551 C553 1.400 . S
C551 N554 1.351 . S
C551 C556 1.501 . S
C552 C553 1.387 . S
C552 N555 1.341 . S
C553 C551 1.400 . S
C553 C552 1.387 . S
N554 Co545 2.022 . S
N554 C551 1.351 . S
N554 N555 1.365 . S
N555 C552 1.341 . S
N555 N554 1.365 . S
N555 H575 0.862 . S
C556 C551 1.501 . S
C556 H557 0.961 . S
C556 H558 0.961 . S
C556 H559 0.960 . S
H557 C556 0.961 . S
H558 C556 0.961 . S
H559 C556 0.960 . S
C560 N561 1.342 . S
C560 C564 1.401 . S
C560 C565 1.504 . S
N561 Co544 1.989 . S
N561 C560 1.342 . S
N561 N562 1.388 . S
N562 Co545 1.993 . S
N562 N561 1.388 . S
N562 C563 1.346 . S
C563 N562 1.346 . S
C563 C564 1.396 . S
C563 C573 1.510 . S
C564 C560 1.401 . S
C564 C563 1.396 . S
C565 C560 1.504 . S
C565 H566 0.958 1_655 S
C565 H567 0.957 1_655 S
C565 H568 0.960 1_655 S
H566 C565 0.958 1_455 S
H567 C565 0.957 1_455 S
H568 C565 0.960 1_455 S
O569 Co544 1.967 . S
O569 C577 1.258 . S
O570 Co545 1.941 . S
O570 C577 1.266 . S
H571 C573 0.959 . S
H572 C573 0.961 . S
C573 C563 1.510 . S
C573 H571 0.959 . S
C573 H572 0.961 . S
C573 H574 0.960 . S
H574 C573 0.960 . S
H575 N555 0.862 . S
O576 Co544 1.920 . S
O576 C549 1.289 1_655 S
C577 O569 1.258 . S
C577 O570 1.266 . S
Co578 O581 1.970 . S
Co578 N595 1.989 . S
Co578 O603 1.967 . S
Co578 O610 1.920 . S
Co579 O582 1.966 . S
Co579 N588 2.022 . S
Co579 N596 1.993 . S
Co579 O604 1.941 . S
C580 O581 1.258 . S
C580 O582 1.263 . S
O581 Co578 1.970 . S
O581 C580 1.258 . S
O582 Co579 1.966 . S
O582 C580 1.263 . S
C583 O584 1.235 . S
C583 O610 1.289 . S
O584 C583 1.235 . S
C585 C587 1.400 . S
C585 N588 1.351 . S
C585 C590 1.501 . S
C586 C587 1.387 . S
C586 N589 1.341 . S
C587 C585 1.400 . S
C587 C586 1.387 . S
N588 Co579 2.022 . S
N588 C585 1.351 . S
N588 N589 1.365 . S
N589 C586 1.341 . S
N589 N588 1.365 . S
N589 H609 0.862 . S
C590 C585 1.501 . S
C590 H591 0.961 . S
C590 H592 0.961 . S
C590 H593 0.960 . S
H591 C590 0.961 . S
H592 C590 0.961 . S
H593 C590 0.960 . S
C594 N595 1.342 . S
C594 C598 1.401 . S
C594 C599 1.499 . S
N595 Co578 1.989 . S
N595 C594 1.342 . S
N595 N596 1.388 . S
N596 Co579 1.993 . S
N596 N595 1.388 . S
N596 C597 1.346 . S
C597 N596 1.346 . S
C597 C598 1.396 . S
C597 C607 1.510 . S
C598 C594 1.401 . S
C598 C597 1.396 . S
C599 C594 1.499 . S
C599 H600 0.959 . S
C599 H601 0.960 . S
C599 H602 0.961 . S
H600 C599 0.959 . S
H601 C599 0.960 . S
H602 C599 0.961 . S
O603 Co578 1.967 . S
O603 C611 1.258 . S
O604 Co579 1.941 . S
O604 C611 1.266 . S
H605 C607 0.959 . S
H606 C607 0.961 . S
C607 C597 1.510 . S
C607 H605 0.959 . S
C607 H606 0.961 . S
C607 H608 0.960 . S
H608 C607 0.960 . S
H609 N589 0.862 . S
O610 Co578 1.920 . S
O610 C583 1.289 . S
C611 O603 1.258 . S
C611 O604 1.266 . S
Co612 O615 1.970 . S
Co612 N629 1.989 . S
Co612 O637 1.967 . S
Co612 O644 1.920 . S
Co613 O616 1.966 . S
Co613 N622 2.022 . S
Co613 N630 1.993 . S
Co613 O638 1.941 . S
C614 O615 1.258 . S
C614 O616 1.263 . S
O615 Co612 1.970 . S
O615 C614 1.258 . S
O616 Co613 1.966 . S
O616 C614 1.263 . S
C617 O618 1.235 . S
C617 O644 1.289 1_455 S
O618 C617 1.235 . S
C619 C621 1.400 . S
C619 N622 1.351 . S
C619 C624 1.501 . S
C620 C621 1.387 . S
C620 N623 1.341 . S
C621 C619 1.400 . S
C621 C620 1.387 . S
N622 Co613 2.022 . S
N622 C619 1.351 . S
N622 N623 1.365 . S
N623 C620 1.341 . S
N623 N622 1.365 . S
N623 H643 0.862 . S
C624 C619 1.501 . S
C624 H625 0.961 . S
C624 H626 0.961 . S
C624 H627 0.960 . S
H625 C624 0.961 . S
H626 C624 0.961 . S
H627 C624 0.960 . S
C628 N629 1.342 . S
C628 C632 1.401 . S
C628 C633 1.504 . S
N629 Co612 1.989 . S
N629 C628 1.342 . S
N629 N630 1.388 . S
N630 Co613 1.993 . S
N630 N629 1.388 . S
N630 C631 1.346 . S
C631 N630 1.346 . S
C631 C632 1.396 . S
C631 C641 1.510 . S
C632 C628 1.401 . S
C632 C631 1.396 . S
C633 C628 1.504 . S
C633 H634 0.958 1_655 S
C633 H635 0.957 1_655 S
C633 H636 0.960 1_655 S
H634 C633 0.958 1_455 S
H635 C633 0.957 1_455 S
H636 C633 0.960 1_455 S
O637 Co612 1.967 . S
O637 C645 1.258 . S
O638 Co613 1.941 . S
O638 C645 1.266 . S
H639 C641 0.959 . S
H640 C641 0.961 . S
C641 C631 1.510 . S
C641 H639 0.959 . S
C641 H640 0.961 . S
C641 H642 0.960 . S
H642 C641 0.960 . S
H643 N623 0.862 . S
O644 Co612 1.920 . S
O644 C617 1.289 1_655 S
C645 O637 1.258 . S
C645 O638 1.266 . S
Co646 O649 1.970 . S
Co646 N663 1.989 . S
Co646 O671 1.967 . S
Co646 O678 1.920 . S
Co647 O650 1.966 . S
Co647 N656 2.022 . S
Co647 N664 1.993 . S
Co647 O672 1.941 . S
C648 O649 1.258 . S
C648 O650 1.263 . S
O649 Co646 1.970 . S
O649 C648 1.258 . S
O650 Co647 1.966 . S
O650 C648 1.263 . S
C651 O652 1.235 . S
C651 O678 1.289 . S
O652 C651 1.235 . S
C653 C655 1.400 . S
C653 N656 1.351 . S
C653 C658 1.501 . S
C654 C655 1.387 . S
C654 N657 1.341 . S
C655 C653 1.400 . S
C655 C654 1.387 . S
N656 Co647 2.022 . S
N656 C653 1.351 . S
N656 N657 1.365 . S
N657 C654 1.341 . S
N657 N656 1.365 . S
N657 H677 0.862 . S
C658 C653 1.501 . S
C658 H659 0.961 . S
C658 H660 0.961 . S
C658 H661 0.960 . S
H659 C658 0.961 . S
H660 C658 0.961 . S
H661 C658 0.960 . S
C662 N663 1.342 . S
C662 C666 1.401 . S
C662 C667 1.499 . S
N663 Co646 1.989 . S
N663 C662 1.342 . S
N663 N664 1.388 . S
N664 Co647 1.993 . S
N664 N663 1.388 . S
N664 C665 1.346 . S
C665 N664 1.346 . S
C665 C666 1.396 . S
C665 C675 1.510 . S
C666 C662 1.401 . S
C666 C665 1.396 . S
C667 C662 1.499 . S
C667 H668 0.959 . S
C667 H669 0.960 . S
C667 H670 0.961 . S
H668 C667 0.959 . S
H669 C667 0.960 . S
H670 C667 0.961 . S
O671 Co646 1.967 . S
O671 C679 1.258 . S
O672 Co647 1.941 . S
O672 C679 1.266 . S
H673 C675 0.959 . S
H674 C675 0.961 . S
C675 C665 1.510 . S
C675 H673 0.959 . S
C675 H674 0.961 . S
C675 H676 0.960 . S
H676 C675 0.960 . S
H677 N657 0.862 . S
O678 Co646 1.920 . S
O678 C651 1.289 . S
C679 O671 1.258 . S
C679 O672 1.266 . S
Co680 O683 1.970 . S
Co680 N697 1.989 . S
Co680 O705 1.967 . S
Co680 O712 1.920 . S
Co681 O684 1.966 . S
Co681 N690 2.022 . S
Co681 N698 1.993 . S
Co681 O706 1.941 . S
C682 O683 1.258 . S
C682 O684 1.263 . S
O683 Co680 1.970 . S
O683 C682 1.258 . S
O684 Co681 1.966 . S
O684 C682 1.263 . S
C685 O686 1.235 . S
C685 O712 1.289 1_655 S
O686 C685 1.235 . S
C687 C689 1.400 . S
C687 N690 1.351 . S
C687 C692 1.501 . S
C688 C689 1.387 . S
C688 N691 1.341 . S
C689 C687 1.400 . S
C689 C688 1.387 . S
N690 Co681 2.022 . S
N690 C687 1.351 . S
N690 N691 1.365 . S
N691 C688 1.341 . S
N691 N690 1.365 . S
N691 H711 0.862 . S
C692 C687 1.501 . S
C692 H693 0.961 . S
C692 H694 0.961 . S
C692 H695 0.960 . S
H693 C692 0.961 . S
H694 C692 0.961 . S
H695 C692 0.960 . S
C696 N697 1.342 . S
C696 C700 1.401 . S
C696 C701 1.504 . S
N697 Co680 1.989 . S
N697 C696 1.342 . S
N697 N698 1.388 . S
N698 Co681 1.993 . S
N698 N697 1.388 . S
N698 C699 1.346 . S
C699 N698 1.346 . S
C699 C700 1.396 . S
C699 C709 1.510 . S
C700 C696 1.401 . S
C700 C699 1.396 . S
C701 C696 1.504 . S
C701 H702 0.958 1_455 S
C701 H703 0.957 1_455 S
C701 H704 0.960 1_455 S
H702 C701 0.958 1_655 S
H703 C701 0.957 1_655 S
H704 C701 0.960 1_655 S
O705 Co680 1.967 . S
O705 C713 1.258 . S
O706 Co681 1.941 . S
O706 C713 1.266 . S
H707 C709 0.959 . S
H708 C709 0.961 . S
C709 C699 1.510 . S
C709 H707 0.959 . S
C709 H708 0.961 . S
C709 H710 0.960 . S
H710 C709 0.960 . S
H711 N691 0.862 . S
O712 Co680 1.920 . S
O712 C685 1.289 1_455 S
C713 O705 1.258 . S
C713 O706 1.266 . S
Co714 O717 1.970 . S
Co714 N731 1.989 . S
Co714 O739 1.967 . S
Co714 O746 1.920 . S
Co715 O718 1.966 . S
Co715 N724 2.022 . S
Co715 N732 1.993 . S
Co715 O740 1.941 . S
C716 O717 1.258 . S
C716 O718 1.263 . S
O717 Co714 1.970 . S
O717 C716 1.258 . S
O718 Co715 1.966 . S
O718 C716 1.263 . S
C719 O720 1.235 . S
C719 O746 1.289 . S
O720 C719 1.235 . S
C721 C723 1.400 . S
C721 N724 1.351 . S
C721 C726 1.501 . S
C722 C723 1.387 . S
C722 N725 1.341 . S
C723 C721 1.400 . S
C723 C722 1.387 . S
N724 Co715 2.022 . S
N724 C721 1.351 . S
N724 N725 1.365 . S
N725 C722 1.341 . S
N725 N724 1.365 . S
N725 H745 0.862 . S
C726 C721 1.501 . S
C726 H727 0.961 . S
C726 H728 0.961 . S
C726 H729 0.960 . S
H727 C726 0.961 . S
H728 C726 0.961 . S
H729 C726 0.960 . S
C730 N731 1.342 . S
C730 C734 1.401 . S
C730 C735 1.499 . S
N731 Co714 1.989 . S
N731 C730 1.342 . S
N731 N732 1.388 . S
N732 Co715 1.993 . S
N732 N731 1.388 . S
N732 C733 1.346 . S
C733 N732 1.346 . S
C733 C734 1.396 . S
C733 C743 1.510 . S
C734 C730 1.401 . S
C734 C733 1.396 . S
C735 C730 1.499 . S
C735 H736 0.959 . S
C735 H737 0.960 . S
C735 H738 0.961 . S
H736 C735 0.959 . S
H737 C735 0.960 . S
H738 C735 0.961 . S
O739 Co714 1.967 . S
O739 C747 1.258 . S
O740 Co715 1.941 . S
O740 C747 1.266 . S
H741 C743 0.959 . S
H742 C743 0.961 . S
C743 C733 1.510 . S
C743 H741 0.959 . S
C743 H742 0.961 . S
C743 H744 0.960 . S
H744 C743 0.960 . S
H745 N725 0.862 . S
O746 Co714 1.920 . S
O746 C719 1.289 . S
C747 O739 1.258 . S
C747 O740 1.266 . S
Co748 O751 1.970 . S
Co748 N765 1.989 . S
Co748 O773 1.967 . S
Co748 O780 1.920 . S
Co749 O752 1.966 . S
Co749 N758 2.022 . S
Co749 N766 1.993 . S
Co749 O774 1.941 . S
C750 O751 1.258 . S
C750 O752 1.263 . S
O751 Co748 1.970 . S
O751 C750 1.258 . S
O752 Co749 1.966 . S
O752 C750 1.263 . S
C753 O754 1.235 . S
C753 O780 1.289 1_655 S
O754 C753 1.235 . S
C755 C757 1.400 . S
C755 N758 1.351 . S
C755 C760 1.501 . S
C756 C757 1.387 . S
C756 N759 1.341 . S
C757 C755 1.400 . S
C757 C756 1.387 . S
N758 Co749 2.022 . S
N758 C755 1.351 . S
N758 N759 1.365 . S
N759 C756 1.341 . S
N759 N758 1.365 . S
N759 H779 0.862 . S
C760 C755 1.501 . S
C760 H761 0.961 . S
C760 H762 0.961 . S
C760 H763 0.960 . S
H761 C760 0.961 . S
H762 C760 0.961 . S
H763 C760 0.960 . S
C764 N765 1.342 . S
C764 C768 1.401 . S
C764 C769 1.504 . S
N765 Co748 1.989 . S
N765 C764 1.342 . S
N765 N766 1.388 . S
N766 Co749 1.993 . S
N766 N765 1.388 . S
N766 C767 1.346 . S
C767 N766 1.346 . S
C767 C768 1.396 . S
C767 C777 1.510 . S
C768 C764 1.401 . S
C768 C767 1.396 . S
C769 C764 1.504 . S
C769 H770 0.958 1_455 S
C769 H771 0.957 1_455 S
C769 H772 0.960 1_455 S
H770 C769 0.958 1_655 S
H771 C769 0.957 1_655 S
H772 C769 0.960 1_655 S
O773 Co748 1.967 . S
O773 C781 1.258 . S
O774 Co749 1.941 . S
O774 C781 1.266 . S
H775 C777 0.959 . S
H776 C777 0.961 . S
C777 C767 1.510 . S
C777 H775 0.959 . S
C777 H776 0.961 . S
C777 H778 0.960 . S
H778 C777 0.960 . S
H779 N759 0.862 . S
O780 Co748 1.920 . S
O780 C753 1.289 1_455 S
C781 O773 1.258 . S
C781 O774 1.266 . S
Co782 O785 1.970 . S
Co782 N799 1.989 . S
Co782 O807 1.967 . S
Co782 O814 1.920 . S
Co783 O786 1.966 . S
Co783 N792 2.022 . S
Co783 N800 1.993 . S
Co783 O808 1.941 . S
C784 O785 1.258 . S
C784 O786 1.263 . S
O785 Co782 1.970 . S
O785 C784 1.258 . S
O786 Co783 1.966 . S
O786 C784 1.263 . S
C787 O788 1.235 . S
C787 O814 1.289 . S
O788 C787 1.235 . S
C789 C791 1.400 . S
C789 N792 1.351 . S
C789 C794 1.501 . S
C790 C791 1.387 . S
C790 N793 1.341 . S
C791 C789 1.400 . S
C791 C790 1.387 . S
N792 Co783 2.022 . S
N792 C789 1.351 . S
N792 N793 1.365 . S
N793 C790 1.341 . S
N793 N792 1.365 . S
N793 H813 0.862 . S
C794 C789 1.501 . S
C794 H795 0.961 . S
C794 H796 0.961 . S
C794 H797 0.960 . S
H795 C794 0.961 . S
H796 C794 0.961 . S
H797 C794 0.960 . S
C798 N799 1.342 . S
C798 C802 1.401 . S
C798 C803 1.499 . S
N799 Co782 1.989 . S
N799 C798 1.342 . S
N799 N800 1.388 . S
N800 Co783 1.993 . S
N800 N799 1.388 . S
N800 C801 1.346 . S
C801 N800 1.346 . S
C801 C802 1.396 . S
C801 C811 1.510 . S
C802 C798 1.401 . S
C802 C801 1.396 . S
C803 C798 1.499 . S
C803 H804 0.959 . S
C803 H805 0.960 . S
C803 H806 0.961 . S
H804 C803 0.959 . S
H805 C803 0.960 . S
H806 C803 0.961 . S
O807 Co782 1.967 . S
O807 C815 1.258 . S
O808 Co783 1.941 . S
O808 C815 1.266 . S
H809 C811 0.959 . S
H810 C811 0.961 . S
C811 C801 1.510 . S
C811 H809 0.959 . S
C811 H810 0.961 . S
C811 H812 0.960 . S
H812 C811 0.960 . S
H813 N793 0.862 . S
O814 Co782 1.920 . S
O814 C787 1.289 . S
C815 O807 1.258 . S
C815 O808 1.266 . S
Co816 O819 1.970 . S
Co816 N833 1.989 . S
Co816 O841 1.967 . S
Co816 O848 1.920 . S
Co817 O820 1.966 . S
Co817 N826 2.022 . S
Co817 N834 1.993 . S
Co817 O842 1.941 . S
C818 O819 1.258 . S
C818 O820 1.263 . S
O819 Co816 1.970 . S
O819 C818 1.258 . S
O820 Co817 1.966 . S
O820 C818 1.263 . S
C821 O822 1.235 . S
C821 O848 1.289 1_455 S
O822 C821 1.235 . S
C823 C825 1.400 . S
C823 N826 1.351 . S
C823 C828 1.501 1_554 S
C824 C825 1.387 . S
C824 N827 1.341 . S
C825 C823 1.400 . S
C825 C824 1.387 . S
N826 Co817 2.022 . S
N826 C823 1.351 . S
N826 N827 1.365 . S
N827 C824 1.341 . S
N827 N826 1.365 . S
N827 H847 0.862 . S
C828 C823 1.501 1_556 S
C828 H829 0.961 . S
C828 H830 0.961 . S
C828 H831 0.960 . S
H829 C828 0.961 . S
H830 C828 0.961 . S
H831 C828 0.960 . S
C832 N833 1.342 . S
C832 C836 1.401 . S
C832 C837 1.504 . S
N833 Co816 1.989 . S
N833 C832 1.342 . S
N833 N834 1.388 . S
N834 Co817 1.993 . S
N834 N833 1.388 . S
N834 C835 1.346 . S
C835 N834 1.346 . S
C835 C836 1.396 . S
C835 C845 1.510 . S
C836 C832 1.401 . S
C836 C835 1.396 . S
C837 C832 1.504 . S
C837 H838 0.958 1_655 S
C837 H839 0.957 1_655 S
C837 H840 0.960 1_655 S
H838 C837 0.958 1_455 S
H839 C837 0.957 1_455 S
H840 C837 0.960 1_455 S
O841 Co816 1.967 . S
O841 C849 1.258 . S
O842 Co817 1.941 . S
O842 C849 1.266 . S
H843 C845 0.959 . S
H844 C845 0.961 1_556 S
C845 C835 1.510 . S
C845 H843 0.959 . S
C845 H844 0.961 1_554 S
C845 H846 0.960 . S
H846 C845 0.960 . S
H847 N827 0.862 . S
O848 Co816 1.920 . S
O848 C821 1.289 1_655 S
C849 O841 1.258 . S
C849 O842 1.266 . S
Co850 O853 1.970 . S
Co850 N867 1.989 . S
Co850 O875 1.967 . S
Co850 O882 1.920 . S
Co851 O854 1.966 . S
Co851 N860 2.022 . S
Co851 N868 1.993 . S
Co851 O876 1.941 . S
C852 O853 1.258 . S
C852 O854 1.263 . S
O853 Co850 1.970 . S
O853 C852 1.258 . S
O854 Co851 1.966 . S
O854 C852 1.263 . S
C855 O856 1.235 . S
C855 O882 1.289 . S
O856 C855 1.235 . S
C857 C859 1.400 . S
C857 N860 1.351 . S
C857 C862 1.501 1_554 S
C858 C859 1.387 . S
C858 N861 1.341 . S
C859 C857 1.400 . S
C859 C858 1.387 . S
N860 Co851 2.022 . S
N860 C857 1.351 . S
N860 N861 1.365 . S
N861 C858 1.341 . S
N861 N860 1.365 . S
N861 H881 0.862 . S
C862 C857 1.501 1_556 S
C862 H863 0.961 . S
C862 H864 0.961 . S
C862 H865 0.960 . S
H863 C862 0.961 . S
H864 C862 0.961 . S
H865 C862 0.960 . S
C866 N867 1.342 . S
C866 C870 1.401 . S
C866 C871 1.499 . S
N867 Co850 1.989 . S
N867 C866 1.342 . S
N867 N868 1.388 . S
N868 Co851 1.993 . S
N868 N867 1.388 . S
N868 C869 1.346 . S
C869 N868 1.346 . S
C869 C870 1.396 . S
C869 C879 1.510 . S
C870 C866 1.401 . S
C870 C869 1.396 . S
C871 C866 1.499 . S
C871 H872 0.959 . S
C871 H873 0.960 . S
C871 H874 0.961 . S
H872 C871 0.959 . S
H873 C871 0.960 . S
H874 C871 0.961 . S
O875 Co850 1.967 . S
O875 C883 1.258 . S
O876 Co851 1.941 . S
O876 C883 1.266 . S
H877 C879 0.959 . S
H878 C879 0.961 1_556 S
C879 C869 1.510 . S
C879 H877 0.959 . S
C879 H878 0.961 1_554 S
C879 H880 0.960 . S
H880 C879 0.960 . S
H881 N861 0.862 . S
O882 Co850 1.920 . S
O882 C855 1.289 . S
C883 O875 1.258 . S
C883 O876 1.266 . S
Co884 O887 1.970 . S
Co884 N901 1.989 . S
Co884 O909 1.967 . S
Co884 O916 1.920 . S
Co885 O888 1.966 . S
Co885 N894 2.022 . S
Co885 N902 1.993 . S
Co885 O910 1.941 . S
C886 O887 1.258 . S
C886 O888 1.263 . S
O887 Co884 1.970 . S
O887 C886 1.258 . S
O888 Co885 1.966 . S
O888 C886 1.263 . S
C889 O890 1.235 . S
C889 O916 1.289 1_455 S
O890 C889 1.235 . S
C891 C893 1.400 . S
C891 N894 1.351 . S
C891 C896 1.501 . S
C892 C893 1.387 . S
C892 N895 1.341 . S
C893 C891 1.400 . S
C893 C892 1.387 . S
N894 Co885 2.022 . S
N894 C891 1.351 . S
N894 N895 1.365 . S
N895 C892 1.341 . S
N895 N894 1.365 . S
N895 H915 0.862 . S
C896 C891 1.501 . S
C896 H897 0.961 . S
C896 H898 0.961 . S
C896 H899 0.960 . S
H897 C896 0.961 . S
H898 C896 0.961 . S
H899 C896 0.960 . S
C900 N901 1.342 . S
C900 C904 1.401 . S
C900 C905 1.504 . S
N901 Co884 1.989 . S
N901 C900 1.342 . S
N901 N902 1.388 . S
N902 Co885 1.993 . S
N902 N901 1.388 . S
N902 C903 1.346 . S
C903 N902 1.346 . S
C903 C904 1.396 . S
C903 C913 1.510 . S
C904 C900 1.401 . S
C904 C903 1.396 . S
C905 C900 1.504 . S
C905 H906 0.958 1_655 S
C905 H907 0.957 1_655 S
C905 H908 0.960 1_655 S
H906 C905 0.958 1_455 S
H907 C905 0.957 1_455 S
H908 C905 0.960 1_455 S
O909 Co884 1.967 . S
O909 C917 1.258 . S
O910 Co885 1.941 . S
O910 C917 1.266 . S
H911 C913 0.959 . S
H912 C913 0.961 . S
C913 C903 1.510 . S
C913 H911 0.959 . S
C913 H912 0.961 . S
C913 H914 0.960 . S
H914 C913 0.960 . S
H915 N895 0.862 . S
O916 Co884 1.920 . S
O916 C889 1.289 1_655 S
C917 O909 1.258 . S
C917 O910 1.266 . S
Co918 O921 1.970 . S
Co918 N935 1.989 . S
Co918 O943 1.967 . S
Co918 O950 1.920 . S
Co919 O922 1.966 . S
Co919 N928 2.022 . S
Co919 N936 1.993 . S
Co919 O944 1.941 . S
C920 O921 1.258 . S
C920 O922 1.263 . S
O921 Co918 1.970 . S
O921 C920 1.258 . S
O922 Co919 1.966 . S
O922 C920 1.263 . S
C923 O924 1.235 . S
C923 O950 1.289 . S
O924 C923 1.235 . S
C925 C927 1.400 . S
C925 N928 1.351 . S
C925 C930 1.501 . S
C926 C927 1.387 . S
C926 N929 1.341 . S
C927 C925 1.400 . S
C927 C926 1.387 . S
N928 Co919 2.022 . S
N928 C925 1.351 . S
N928 N929 1.365 . S
N929 C926 1.341 . S
N929 N928 1.365 . S
N929 H949 0.862 . S
C930 C925 1.501 . S
C930 H931 0.961 . S
C930 H932 0.961 . S
C930 H933 0.960 . S
H931 C930 0.961 . S
H932 C930 0.961 . S
H933 C930 0.960 . S
C934 N935 1.342 . S
C934 C938 1.401 . S
C934 C939 1.499 . S
N935 Co918 1.989 . S
N935 C934 1.342 . S
N935 N936 1.388 . S
N936 Co919 1.993 . S
N936 N935 1.388 . S
N936 C937 1.346 . S
C937 N936 1.346 . S
C937 C938 1.396 . S
C937 C947 1.510 . S
C938 C934 1.401 . S
C938 C937 1.396 . S
C939 C934 1.499 . S
C939 H940 0.959 . S
C939 H941 0.960 . S
C939 H942 0.961 . S
H940 C939 0.959 . S
H941 C939 0.960 . S
H942 C939 0.961 . S
O943 Co918 1.967 . S
O943 C951 1.258 . S
O944 Co919 1.941 . S
O944 C951 1.266 . S
H945 C947 0.959 . S
H946 C947 0.961 . S
C947 C937 1.510 . S
C947 H945 0.959 . S
C947 H946 0.961 . S
C947 H948 0.960 . S
H948 C947 0.960 . S
H949 N929 0.862 . S
O950 Co918 1.920 . S
O950 C923 1.289 . S
C951 O943 1.258 . S
C951 O944 1.266 . S
Co952 O955 1.970 . S
Co952 N969 1.989 . S
Co952 O977 1.967 . S
Co952 O984 1.920 . S
Co953 O956 1.966 . S
Co953 N962 2.022 . S
Co953 N970 1.993 . S
Co953 O978 1.941 . S
C954 O955 1.258 . S
C954 O956 1.263 . S
O955 Co952 1.970 . S
O955 C954 1.258 . S
O956 Co953 1.966 . S
O956 C954 1.263 . S
C957 O958 1.235 . S
C957 O984 1.289 1_655 S
O958 C957 1.235 . S
C959 C961 1.400 . S
C959 N962 1.351 . S
C959 C964 1.501 1_556 S
C960 C961 1.387 . S
C960 N963 1.341 . S
C961 C959 1.400 . S
C961 C960 1.387 . S
N962 Co953 2.022 . S
N962 C959 1.351 . S
N962 N963 1.365 . S
N963 C960 1.341 . S
N963 N962 1.365 . S
N963 H983 0.862 . S
C964 C959 1.501 1_554 S
C964 H965 0.961 . S
C964 H966 0.961 . S
C964 H967 0.960 . S
H965 C964 0.961 . S
H966 C964 0.961 . S
H967 C964 0.960 . S
C968 N969 1.342 . S
C968 C972 1.401 . S
C968 C973 1.504 . S
N969 Co952 1.989 . S
N969 C968 1.342 . S
N969 N970 1.388 . S
N970 Co953 1.993 . S
N970 N969 1.388 . S
N970 C971 1.346 . S
C971 N970 1.346 . S
C971 C972 1.396 . S
C971 C981 1.510 . S
C972 C968 1.401 . S
C972 C971 1.396 . S
C973 C968 1.504 . S
C973 H974 0.958 1_455 S
C973 H975 0.957 1_455 S
C973 H976 0.960 1_455 S
H974 C973 0.958 1_655 S
H975 C973 0.957 1_655 S
H976 C973 0.960 1_655 S
O977 Co952 1.967 . S
O977 C985 1.258 . S
O978 Co953 1.941 . S
O978 C985 1.266 . S
H979 C981 0.959 . S
H980 C981 0.961 1_554 S
C981 C971 1.510 . S
C981 H979 0.959 . S
C981 H980 0.961 1_556 S
C981 H982 0.960 . S
H982 C981 0.960 . S
H983 N963 0.862 . S
O984 Co952 1.920 . S
O984 C957 1.289 1_455 S
C985 O977 1.258 . S
C985 O978 1.266 . S
Co986 O989 1.970 . S
Co986 N1003 1.989 . S
Co986 O1011 1.967 . S
Co986 O1018 1.920 . S
Co987 O990 1.966 . S
Co987 N996 2.022 . S
Co987 N1004 1.993 . S
Co987 O1012 1.941 . S
C988 O989 1.258 . S
C988 O990 1.263 . S
O989 Co986 1.970 . S
O989 C988 1.258 . S
O990 Co987 1.966 . S
O990 C988 1.263 . S
C991 O992 1.235 . S
C991 O1018 1.289 . S
O992 C991 1.235 . S
C993 C995 1.400 . S
C993 N996 1.351 . S
C993 C998 1.501 1_556 S
C994 C995 1.387 . S
C994 N997 1.341 . S
C995 C993 1.400 . S
C995 C994 1.387 . S
N996 Co987 2.022 . S
N996 C993 1.351 . S
N996 N997 1.365 . S
N997 C994 1.341 . S
N997 N996 1.365 . S
N997 H1017 0.862 . S
C998 C993 1.501 1_554 S
C998 H999 0.961 . S
C998 H1000 0.961 . S
C998 H1001 0.960 . S
H999 C998 0.961 . S
H1000 C998 0.961 . S
H1001 C998 0.960 . S
C1002 N1003 1.342 . S
C1002 C1006 1.401 . S
C1002 C1007 1.499 . S
N1003 Co986 1.989 . S
N1003 C1002 1.342 . S
N1003 N1004 1.388 . S
N1004 Co987 1.993 . S
N1004 N1003 1.388 . S
N1004 C1005 1.346 . S
C1005 N1004 1.346 . S
C1005 C1006 1.396 . S
C1005 C1015 1.510 . S
C1006 C1002 1.401 . S
C1006 C1005 1.396 . S
C1007 C1002 1.499 . S
C1007 H1008 0.959 . S
C1007 H1009 0.960 . S
C1007 H1010 0.961 . S
H1008 C1007 0.959 . S
H1009 C1007 0.960 . S
H1010 C1007 0.961 . S
O1011 Co986 1.967 . S
O1011 C1019 1.258 . S
O1012 Co987 1.941 . S
O1012 C1019 1.266 . S
H1013 C1015 0.959 . S
H1014 C1015 0.961 1_554 S
C1015 C1005 1.510 . S
C1015 H1013 0.959 . S
C1015 H1014 0.961 1_556 S
C1015 H1016 0.960 . S
H1016 C1015 0.960 . S
H1017 N997 0.862 . S
O1018 Co986 1.920 . S
O1018 C991 1.289 . S
C1019 O1011 1.258 . S
C1019 O1012 1.266 . S
Co1020 O1023 1.970 . S
Co1020 N1037 1.989 . S
Co1020 O1045 1.967 . S
Co1020 O1052 1.920 . S
Co1021 O1024 1.966 . S
Co1021 N1030 2.022 . S
Co1021 N1038 1.993 . S
Co1021 O1046 1.941 . S
C1022 O1023 1.258 . S
C1022 O1024 1.263 . S
O1023 Co1020 1.970 . S
O1023 C1022 1.258 . S
O1024 Co1021 1.966 . S
O1024 C1022 1.263 . S
C1025 O1026 1.235 . S
C1025 O1052 1.289 1_655 S
O1026 C1025 1.235 . S
C1027 C1029 1.400 . S
C1027 N1030 1.351 . S
C1027 C1032 1.501 . S
C1028 C1029 1.387 . S
C1028 N1031 1.341 . S
C1029 C1027 1.400 . S
C1029 C1028 1.387 . S
N1030 Co1021 2.022 . S
N1030 C1027 1.351 . S
N1030 N1031 1.365 . S
N1031 C1028 1.341 . S
N1031 N1030 1.365 . S
N1031 H1051 0.862 . S
C1032 C1027 1.501 . S
C1032 H1033 0.961 . S
C1032 H1034 0.961 . S
C1032 H1035 0.960 . S
H1033 C1032 0.961 . S
H1034 C1032 0.961 . S
H1035 C1032 0.960 . S
C1036 N1037 1.342 . S
C1036 C1040 1.401 . S
C1036 C1041 1.504 . S
N1037 Co1020 1.989 . S
N1037 C1036 1.342 . S
N1037 N1038 1.388 . S
N1038 Co1021 1.993 . S
N1038 N1037 1.388 . S
N1038 C1039 1.346 . S
C1039 N1038 1.346 . S
C1039 C1040 1.396 . S
C1039 C1049 1.510 . S
C1040 C1036 1.401 . S
C1040 C1039 1.396 . S
C1041 C1036 1.504 . S
C1041 H1042 0.958 1_455 S
C1041 H1043 0.957 1_455 S
C1041 H1044 0.960 1_455 S
H1042 C1041 0.958 1_655 S
H1043 C1041 0.957 1_655 S
H1044 C1041 0.960 1_655 S
O1045 Co1020 1.967 . S
O1045 C1053 1.258 . S
O1046 Co1021 1.941 . S
O1046 C1053 1.266 . S
H1047 C1049 0.959 . S
H1048 C1049 0.961 . S
C1049 C1039 1.510 . S
C1049 H1047 0.959 . S
C1049 H1048 0.961 . S
C1049 H1050 0.960 . S
H1050 C1049 0.960 . S
H1051 N1031 0.862 . S
O1052 Co1020 1.920 . S
O1052 C1025 1.289 1_455 S
C1053 O1045 1.258 . S
C1053 O1046 1.266 . S
Co1054 O1057 1.970 . S
Co1054 N1071 1.989 . S
Co1054 O1079 1.967 . S
Co1054 O1086 1.920 . S
Co1055 O1058 1.966 . S
Co1055 N1064 2.022 . S
Co1055 N1072 1.993 . S
Co1055 O1080 1.941 . S
C1056 O1057 1.258 . S
C1056 O1058 1.263 . S
O1057 Co1054 1.970 . S
O1057 C1056 1.258 . S
O1058 Co1055 1.966 . S
O1058 C1056 1.263 . S
C1059 O1060 1.235 . S
C1059 O1086 1.289 . S
O1060 C1059 1.235 . S
C1061 C1063 1.400 . S
C1061 N1064 1.351 . S
C1061 C1066 1.501 . S
C1062 C1063 1.387 . S
C1062 N1065 1.341 . S
C1063 C1061 1.400 . S
C1063 C1062 1.387 . S
N1064 Co1055 2.022 . S
N1064 C1061 1.351 . S
N1064 N1065 1.365 . S
N1065 C1062 1.341 . S
N1065 N1064 1.365 . S
N1065 H1085 0.862 . S
C1066 C1061 1.501 . S
C1066 H1067 0.961 . S
C1066 H1068 0.961 . S
C1066 H1069 0.960 . S
H1067 C1066 0.961 . S
H1068 C1066 0.961 . S
H1069 C1066 0.960 . S
C1070 N1071 1.342 . S
C1070 C1074 1.401 . S
C1070 C1075 1.499 . S
N1071 Co1054 1.989 . S
N1071 C1070 1.342 . S
N1071 N1072 1.388 . S
N1072 Co1055 1.993 . S
N1072 N1071 1.388 . S
N1072 C1073 1.346 . S
C1073 N1072 1.346 . S
C1073 C1074 1.396 . S
C1073 C1083 1.510 . S
C1074 C1070 1.401 . S
C1074 C1073 1.396 . S
C1075 C1070 1.499 . S
C1075 H1076 0.959 . S
C1075 H1077 0.960 . S
C1075 H1078 0.961 . S
H1076 C1075 0.959 . S
H1077 C1075 0.960 . S
H1078 C1075 0.961 . S
O1079 Co1054 1.967 . S
O1079 C1087 1.258 . S
O1080 Co1055 1.941 . S
O1080 C1087 1.266 . S
H1081 C1083 0.959 . S
H1082 C1083 0.961 . S
C1083 C1073 1.510 . S
C1083 H1081 0.959 . S
C1083 H1082 0.961 . S
C1083 H1084 0.960 . S
H1084 C1083 0.960 . S
H1085 N1065 0.862 . S
O1086 Co1054 1.920 . S
O1086 C1059 1.289 . S
C1087 O1079 1.258 . S
C1087 O1080 1.266 . S
C1088 C1089 1.363 1_556 S
C1088 C1094 1.379 . S
C1088 N1096 1.356 . S
C1089 C1088 1.363 1_554 S
C1089 C1095 1.363 1_545 S
C1090 C1091 1.363 1_554 S
C1090 C1095 1.379 . S
C1090 N1097 1.356 . S
C1091 C1090 1.363 1_556 S
C1091 C1094 1.363 1_565 S
N1092 C1094 1.356 . S
N1092 H1104 0.984 . S
N1092 H1105 0.985 . S
N1093 C1095 1.356 . S
N1093 H1098 0.984 . S
N1093 H1099 0.985 . S
C1094 C1088 1.379 . S
C1094 C1091 1.363 1_545 S
C1094 N1092 1.356 . S
C1095 C1089 1.363 1_565 S
C1095 C1090 1.379 . S
C1095 N1093 1.356 . S
N1096 C1088 1.356 . S
N1096 H1102 0.984 . S
N1096 H1103 0.984 . S
N1097 C1090 1.356 . S
N1097 H1100 0.984 . S
N1097 H1101 0.985 . S
H1098 N1093 0.984 . S
H1099 N1093 0.985 . S
H1100 N1097 0.984 . S
H1101 N1097 0.985 . S
H1102 N1096 0.984 . S
H1103 N1096 0.984 . S
H1104 N1092 0.984 . S
H1105 N1092 0.985 . S
C1106 C1107 1.363 1_554 S
C1106 C1112 1.379 . S
C1106 N1114 1.359 . S
C1107 C1106 1.363 1_556 S
C1107 C1113 1.363 . S
C1108 C1109 1.363 1_556 S
C1108 C1113 1.379 . S
C1108 N1115 1.359 . S
C1109 C1108 1.363 1_554 S
C1109 C1112 1.363 . S
N1110 C1112 1.356 . S
N1110 H1122 0.984 . S
N1110 H1123 0.985 . S
N1111 C1113 1.356 . S
N1111 H1116 0.984 . S
N1111 H1117 0.985 . S
C1112 C1106 1.379 . S
C1112 C1109 1.363 . S
C1112 N1110 1.356 . S
C1113 C1107 1.363 . S
C1113 C1108 1.379 . S
C1113 N1111 1.356 . S
N1114 C1106 1.359 . S
N1114 H1120 1.003 . S
N1114 H1121 0.965 1_554 S
N1115 C1108 1.359 . S
N1115 H1118 0.965 1_556 S
N1115 H1119 1.003 . S
H1116 N1111 0.984 . S
H1117 N1111 0.985 . S
H1118 N1115 0.965 1_554 S
H1119 N1115 1.003 . S
H1120 N1114 1.003 . S
H1121 N1114 0.965 1_556 S
H1122 N1110 0.984 . S
H1123 N1110 0.985 . S
C1124 C1125 1.363 . S
C1124 C1130 1.379 . S
C1124 N1132 1.356 . S
C1125 C1124 1.363 . S
C1125 C1131 1.363 . S
C1126 C1127 1.363 . S
C1126 C1131 1.379 . S
C1126 N1133 1.356 . S
C1127 C1126 1.363 . S
C1127 C1130 1.363 . S
N1128 C1130 1.356 . S
N1128 H1140 0.984 . S
N1128 H1141 0.985 . S
N1129 C1131 1.356 . S
N1129 H1134 0.984 . S
N1129 H1135 0.985 . S
C1130 C1124 1.379 . S
C1130 C1127 1.363 . S
C1130 N1128 1.356 . S
C1131 C1125 1.363 . S
C1131 C1126 1.379 . S
C1131 N1129 1.356 . S
N1132 C1124 1.356 . S
N1132 H1138 0.984 . S
N1132 H1139 0.984 . S
N1133 C1126 1.356 . S
N1133 H1136 0.984 . S
N1133 H1137 0.985 . S
H1134 N1129 0.984 . S
H1135 N1129 0.985 . S
H1136 N1133 0.984 . S
H1137 N1133 0.985 . S
H1138 N1132 0.984 . S
H1139 N1132 0.984 . S
H1140 N1128 0.984 . S
H1141 N1128 0.985 . S
C1142 C1143 1.363 1_565 S
C1142 C1148 1.379 . S
C1142 N1150 1.356 . S
C1143 C1142 1.363 1_545 S
C1143 C1149 1.363 . S
C1144 C1145 1.363 1_545 S
C1144 C1149 1.379 . S
C1144 N1151 1.356 . S
C1145 C1144 1.363 1_565 S
C1145 C1148 1.363 . S
N1146 C1148 1.356 . S
N1146 H1158 0.984 . S
N1146 H1159 0.985 . S
N1147 C1149 1.356 . S
N1147 H1152 0.984 . S
N1147 H1153 0.985 . S
C1148 C1142 1.379 . S
C1148 C1145 1.363 . S
C1148 N1146 1.356 . S
C1149 C1143 1.363 . S
C1149 C1144 1.379 . S
C1149 N1147 1.356 . S
N1150 C1142 1.356 . S
N1150 H1156 0.984 . S
N1150 H1157 0.984 1_565 S
N1151 C1144 1.356 . S
N1151 H1154 0.984 1_545 S
N1151 H1155 0.985 . S
H1152 N1147 0.984 . S
H1153 N1147 0.985 . S
H1154 N1151 0.984 1_565 S
H1155 N1151 0.985 . S
H1156 N1150 0.984 . S
H1157 N1150 0.984 1_545 S
H1158 N1146 0.984 . S
H1159 N1146 0.985 . S
C1160 C1161 1.363 . S
C1160 C1166 1.379 . S
C1160 N1168 1.356 . S
C1161 C1160 1.363 . S
C1161 C1167 1.363 1_554 S
C1162 C1163 1.363 . S
C1162 C1167 1.379 . S
C1162 N1169 1.356 . S
C1163 C1162 1.363 . S
C1163 C1166 1.363 1_556 S
N1164 C1166 1.356 . S
N1164 H1176 0.984 . S
N1164 H1177 0.985 . S
N1165 C1167 1.356 . S
N1165 H1170 0.984 . S
N1165 H1171 0.985 . S
C1166 C1160 1.379 . S
C1166 C1163 1.363 1_554 S
C1166 N1164 1.356 . S
C1167 C1161 1.363 1_556 S
C1167 C1162 1.379 . S
C1167 N1165 1.356 . S
N1168 C1160 1.356 . S
N1168 H1174 0.984 . S
N1168 H1175 0.984 . S
N1169 C1162 1.356 . S
N1169 H1172 0.984 . S
N1169 H1173 0.985 . S
H1170 N1165 0.984 . S
H1171 N1165 0.985 . S
H1172 N1169 0.984 . S
H1173 N1169 0.985 . S
H1174 N1168 0.984 . S
H1175 N1168 0.984 . S
H1176 N1164 0.984 . S
H1177 N1164 0.985 . S
C1178 C1179 1.363 . S
C1178 C1184 1.379 . S
C1178 N1186 1.356 . S
C1179 C1178 1.363 . S
C1179 C1185 1.363 . S
C1180 C1181 1.363 . S
C1180 C1185 1.379 . S
C1180 N1187 1.356 . S
C1181 C1180 1.363 . S
C1181 C1184 1.363 . S
N1182 C1184 1.356 . S
N1182 H1194 0.984 . S
N1182 H1195 0.985 . S
N1183 C1185 1.356 . S
N1183 H1188 0.984 . S
N1183 H1189 0.985 . S
C1184 C1178 1.379 . S
C1184 C1181 1.363 . S
C1184 N1182 1.356 . S
C1185 C1179 1.363 . S
C1185 C1180 1.379 . S
C1185 N1183 1.356 . S
N1186 C1178 1.356 . S
N1186 H1192 0.984 . S
N1186 H1193 0.984 . S
N1187 C1180 1.356 . S
N1187 H1190 0.984 . S
N1187 H1191 0.985 . S
H1188 N1183 0.984 . S
H1189 N1183 0.985 . S
H1190 N1187 0.984 . S
H1191 N1187 0.985 . S
H1192 N1186 0.984 . S
H1193 N1186 0.984 . S
H1194 N1182 0.984 . S
H1195 N1182 0.985 . S
C1196 C1197 1.363 . S
C1196 C1202 1.379 . S
C1196 N1204 1.356 . S
C1197 C1196 1.363 . S
C1197 C1203 1.363 1_545 S
C1198 C1199 1.363 . S
C1198 C1203 1.379 . S
C1198 N1205 1.356 . S
C1199 C1198 1.363 . S
C1199 C1202 1.363 1_565 S
N1200 C1202 1.356 . S
N1200 H1212 0.984 . S
N1200 H1213 0.985 . S
N1201 C1203 1.356 . S
N1201 H1206 0.984 . S
N1201 H1207 0.985 . S
C1202 C1196 1.379 . S
C1202 C1199 1.363 1_545 S
C1202 N1200 1.356 . S
C1203 C1197 1.363 1_565 S
C1203 C1198 1.379 . S
C1203 N1201 1.356 . S
N1204 C1196 1.356 . S
N1204 H1210 0.984 . S
N1204 H1211 0.984 . S
N1205 C1198 1.356 . S
N1205 H1208 0.984 . S
N1205 H1209 0.985 . S
H1206 N1201 0.984 . S
H1207 N1201 0.985 . S
H1208 N1205 0.984 . S
H1209 N1205 0.985 . S
H1210 N1204 0.984 . S
H1211 N1204 0.984 . S
H1212 N1200 0.984 . S
H1213 N1200 0.985 . S
C1214 C1215 1.363 . S
C1214 C1220 1.379 . S
C1214 N1222 1.356 . S
C1215 C1214 1.363 . S
C1215 C1221 1.363 . S
C1216 C1217 1.363 . S
C1216 C1221 1.379 . S
C1216 N1223 1.356 . S
C1217 C1216 1.363 . S
C1217 C1220 1.363 . S
N1218 C1220 1.356 . S
N1218 H1230 0.984 . S
N1218 H1231 0.985 . S
N1219 C1221 1.356 . S
N1219 H1224 0.984 . S
N1219 H1225 0.985 . S
C1220 C1214 1.379 . S
C1220 C1217 1.363 . S
C1220 N1218 1.356 . S
C1221 C1215 1.363 . S
C1221 C1216 1.379 . S
C1221 N1219 1.356 . S
N1222 C1214 1.356 . S
N1222 H1228 0.984 . S
N1222 H1229 0.984 . S
N1223 C1216 1.356 . S
N1223 H1226 0.984 . S
N1223 H1227 0.985 . S
H1224 N1219 0.984 . S
H1225 N1219 0.985 . S
H1226 N1223 0.984 . S
H1227 N1223 0.985 . S
H1228 N1222 0.984 . S
H1229 N1222 0.984 . S
H1230 N1218 0.984 . S
H1231 N1218 0.985 . S
C1232 C1233 1.363 . S
C1232 C1238 1.379 . S
C1232 N1240 1.356 . S
C1233 C1232 1.363 . S
C1233 C1239 1.363 . S
C1234 C1235 1.363 . S
C1234 C1239 1.379 . S
C1234 N1241 1.356 . S
C1235 C1234 1.363 . S
C1235 C1238 1.363 . S
N1236 C1238 1.356 . S
N1236 H1248 0.984 . S
N1236 H1249 0.985 . S
N1237 C1239 1.356 . S
N1237 H1242 0.984 . S
N1237 H1243 0.985 . S
C1238 C1232 1.379 . S
C1238 C1235 1.363 . S
C1238 N1236 1.356 . S
C1239 C1233 1.363 . S
C1239 C1234 1.379 . S
C1239 N1237 1.356 . S
N1240 C1232 1.356 . S
N1240 H1246 0.984 . S
N1240 H1247 0.984 . S
N1241 C1234 1.356 . S
N1241 H1244 0.984 . S
N1241 H1245 0.985 . S
H1242 N1237 0.984 . S
H1243 N1237 0.985 . S
H1244 N1241 0.984 . S
H1245 N1241 0.985 . S
H1246 N1240 0.984 . S
H1247 N1240 0.984 . S
H1248 N1236 0.984 . S
H1249 N1236 0.985 . S
C1250 C1251 1.363 . S
C1250 C1256 1.379 . S
C1250 N1258 1.356 . S
C1251 C1250 1.363 . S
C1251 C1257 1.363 . S
C1252 C1253 1.363 . S
C1252 C1257 1.379 . S
C1252 N1259 1.356 . S
C1253 C1252 1.363 . S
C1253 C1256 1.363 . S
N1254 C1256 1.356 . S
N1254 H1266 0.984 . S
N1254 H1267 0.985 . S
N1255 C1257 1.356 . S
N1255 H1260 0.984 . S
N1255 H1261 0.985 . S
C1256 C1250 1.379 . S
C1256 C1253 1.363 . S
C1256 N1254 1.356 . S
C1257 C1251 1.363 . S
C1257 C1252 1.379 . S
C1257 N1255 1.356 . S
N1258 C1250 1.356 . S
N1258 H1264 0.984 . S
N1258 H1265 0.984 . S
N1259 C1252 1.356 . S
N1259 H1262 0.984 . S
N1259 H1263 0.985 . S
H1260 N1255 0.984 . S
H1261 N1255 0.985 . S
H1262 N1259 0.984 . S
H1263 N1259 0.985 . S
H1264 N1258 0.984 . S
H1265 N1258 0.984 . S
H1266 N1254 0.984 . S
H1267 N1254 0.985 . S
C1268 C1269 1.363 . S
C1268 C1274 1.379 . S
C1268 N1276 1.356 . S
C1269 C1268 1.363 . S
C1269 C1275 1.363 . S
C1270 C1271 1.363 . S
C1270 C1275 1.379 . S
C1270 N1277 1.356 . S
C1271 C1270 1.363 . S
C1271 C1274 1.363 . S
N1272 C1274 1.356 . S
N1272 H1284 0.984 . S
N1272 H1285 0.985 . S
N1273 C1275 1.356 . S
N1273 H1278 0.984 . S
N1273 H1279 0.985 . S
C1274 C1268 1.379 . S
C1274 C1271 1.363 . S
C1274 N1272 1.356 . S
C1275 C1269 1.363 . S
C1275 C1270 1.379 . S
C1275 N1273 1.356 . S
N1276 C1268 1.356 . S
N1276 H1282 0.984 . S
N1276 H1283 0.984 . S
N1277 C1270 1.356 . S
N1277 H1280 0.984 . S
N1277 H1281 0.985 . S
H1278 N1273 0.984 . S
H1279 N1273 0.985 . S
H1280 N1277 0.984 . S
H1281 N1277 0.985 . S
H1282 N1276 0.984 . S
H1283 N1276 0.984 . S
H1284 N1272 0.984 . S
H1285 N1272 0.985 . S
C1286 C1287 1.363 . S
C1286 C1292 1.379 . S
C1286 N1294 1.356 . S
C1287 C1286 1.363 . S
C1287 C1293 1.363 . S
C1288 C1289 1.363 . S
C1288 C1293 1.379 . S
C1288 N1295 1.356 . S
C1289 C1288 1.363 . S
C1289 C1292 1.363 . S
N1290 C1292 1.356 . S
N1290 H1302 0.984 . S
N1290 H1303 0.985 . S
N1291 C1293 1.356 . S
N1291 H1296 0.984 . S
N1291 H1297 0.985 . S
C1292 C1286 1.379 . S
C1292 C1289 1.363 . S
C1292 N1290 1.356 . S
C1293 C1287 1.363 . S
C1293 C1288 1.379 . S
C1293 N1291 1.356 . S
N1294 C1286 1.356 . S
N1294 H1300 0.984 . S
N1294 H1301 0.984 . S
N1295 C1288 1.356 . S
N1295 H1298 0.984 . S
N1295 H1299 0.985 . S
H1296 N1291 0.984 . S
H1297 N1291 0.985 . S
H1298 N1295 0.984 . S
H1299 N1295 0.985 . S
H1300 N1294 0.984 . S
H1301 N1294 0.984 . S
H1302 N1290 0.984 . S
H1303 N1290 0.985 . S
C1304 C1305 1.368 . S
C1304 C1310 1.374 1_465 S
C1304 N1312 1.359 . S
C1305 C1304 1.368 . S
C1305 C1311 1.363 . S
C1306 C1307 1.368 . S
C1306 C1311 1.374 1_645 S
C1306 N1313 1.359 . S
C1307 C1306 1.368 . S
C1307 C1310 1.363 . S
N1308 C1310 1.356 . S
N1308 H1320 0.984 . S
N1308 H1321 0.985 . S
N1309 C1311 1.356 . S
N1309 H1314 0.984 . S
N1309 H1315 0.985 . S
C1310 C1304 1.374 1_645 S
C1310 C1307 1.363 . S
C1310 N1308 1.356 . S
C1311 C1305 1.363 . S
C1311 C1306 1.374 1_465 S
C1311 N1309 1.356 . S
N1312 C1304 1.359 . S
N1312 H1318 0.984 1_465 S
N1312 H1319 0.984 . S
N1313 C1306 1.359 . S
N1313 H1316 0.984 . S
N1313 H1317 0.984 1_645 S
H1314 N1309 0.984 . S
H1315 N1309 0.985 . S
H1316 N1313 0.984 . S
H1317 N1313 0.984 1_465 S
H1318 N1312 0.984 1_645 S
H1319 N1312 0.984 . S
H1320 N1308 0.984 . S
H1321 N1308 0.985 . S
C1322 C1323 1.363 . S
C1322 C1328 1.379 1_455 S
C1322 N1330 1.356 . S
C1323 C1322 1.363 . S
C1323 C1329 1.363 . S
C1324 C1325 1.363 . S
C1324 C1329 1.379 1_655 S
C1324 N1331 1.356 . S
C1325 C1324 1.363 . S
C1325 C1328 1.363 . S
N1326 C1328 1.356 . S
N1326 H1338 0.984 . S
N1326 H1339 0.985 . S
N1327 C1329 1.356 . S
N1327 H1332 0.984 . S
N1327 H1333 0.985 . S
C1328 C1322 1.379 1_655 S
C1328 C1325 1.363 . S
C1328 N1326 1.356 . S
C1329 C1323 1.363 . S
C1329 C1324 1.379 1_455 S
C1329 N1327 1.356 . S
N1330 C1322 1.356 . S
N1330 H1336 0.984 . S
N1330 H1337 0.984 . S
N1331 C1324 1.356 . S
N1331 H1334 0.984 . S
N1331 H1335 0.985 . S
H1332 N1327 0.984 . S
H1333 N1327 0.985 . S
H1334 N1331 0.984 . S
H1335 N1331 0.985 . S
H1336 N1330 0.984 . S
H1337 N1330 0.984 . S
H1338 N1326 0.984 . S
H1339 N1326 0.985 . S
C1340 C1341 1.363 . S
C1340 C1346 1.379 1_455 S
C1340 N1348 1.356 . S
C1341 C1340 1.363 . S
C1341 C1347 1.363 . S
C1342 C1343 1.363 . S
C1342 C1347 1.379 1_655 S
C1342 N1349 1.356 . S
C1343 C1342 1.363 . S
C1343 C1346 1.363 . S
N1344 C1346 1.356 . S
N1344 H1356 0.984 1_655 S
N1344 H1357 0.985 . S
N1345 C1347 1.356 . S
N1345 H1350 0.984 . S
N1345 H1351 0.985 1_455 S
C1346 C1340 1.379 1_655 S
C1346 C1343 1.363 . S
C1346 N1344 1.356 . S
C1347 C1341 1.363 . S
C1347 C1342 1.379 1_455 S
C1347 N1345 1.356 . S
N1348 C1340 1.356 . S
N1348 H1354 0.984 . S
N1348 H1355 0.984 . S
N1349 C1342 1.356 . S
N1349 H1352 0.984 . S
N1349 H1353 0.985 . S
H1350 N1345 0.984 . S
H1351 N1345 0.985 1_655 S
H1352 N1349 0.984 . S
H1353 N1349 0.985 . S
H1354 N1348 0.984 . S
H1355 N1348 0.984 . S
H1356 N1344 0.984 1_455 S
H1357 N1344 0.985 . S
C1358 C1359 1.363 1_554 S
C1358 C1364 1.379 1_455 S
C1358 N1366 1.355 1_554 S
C1359 C1358 1.363 1_556 S
C1359 C1365 1.363 . S
C1360 C1361 1.363 1_556 S
C1360 C1365 1.379 1_655 S
C1360 N1367 1.355 1_556 S
C1361 C1360 1.363 1_554 S
C1361 C1364 1.363 . S
N1362 C1364 1.356 . S
N1362 H1374 0.986 . S
N1362 H1375 0.985 . S
N1363 C1365 1.356 . S
N1363 H1368 0.984 . S
N1363 H1369 0.986 . S
C1364 C1358 1.379 1_655 S
C1364 C1361 1.363 . S
C1364 N1362 1.356 . S
C1365 C1359 1.363 . S
C1365 C1360 1.379 1_455 S
C1365 N1363 1.356 . S
N1366 C1358 1.355 1_556 S
N1366 H1372 0.976 1_556 S
N1366 H1373 0.995 . S
N1367 C1360 1.355 1_554 S
N1367 H1370 0.995 . S
N1367 H1371 0.976 1_554 S
H1368 N1363 0.984 . S
H1369 N1363 0.986 . S
H1370 N1367 0.995 . S
H1371 N1367 0.976 1_556 S
H1372 N1366 0.976 1_554 S
H1373 N1366 0.995 . S
H1374 N1362 0.986 . S
H1375 N1362 0.985 . S
C1376 C1377 1.363 . S
C1376 C1382 1.379 . S
C1376 N1384 1.356 . S
C1377 C1376 1.363 . S
C1377 C1383 1.363 . S
C1378 C1379 1.363 . S
C1378 C1383 1.379 . S
C1378 N1385 1.356 . S
C1379 C1378 1.363 . S
C1379 C1382 1.363 . S
N1380 C1382 1.356 . S
N1380 H1392 0.984 . S
N1380 H1393 0.985 . S
N1381 C1383 1.356 . S
N1381 H1386 0.984 . S
N1381 H1387 0.985 . S
C1382 C1376 1.379 . S
C1382 C1379 1.363 . S
C1382 N1380 1.356 . S
C1383 C1377 1.363 . S
C1383 C1378 1.379 . S
C1383 N1381 1.356 . S
N1384 C1376 1.356 . S
N1384 H1390 0.984 . S
N1384 H1391 0.984 . S
N1385 C1378 1.356 . S
N1385 H1388 0.984 . S
N1385 H1389 0.985 . S
H1386 N1381 0.984 . S
H1387 N1381 0.985 . S
H1388 N1385 0.984 . S
H1389 N1385 0.985 . S
H1390 N1384 0.984 . S
H1391 N1384 0.984 . S
H1392 N1380 0.984 . S
H1393 N1380 0.985 . S
C1394 C1395 1.363 . S
C1394 C1400 1.379 . S
C1394 N1402 1.356 . S
C1395 C1394 1.363 . S
C1395 C1401 1.363 . S
C1396 C1397 1.363 . S
C1396 C1401 1.379 . S
C1396 N1403 1.356 . S
C1397 C1396 1.363 . S
C1397 C1400 1.363 . S
N1398 C1400 1.356 . S
N1398 H1410 0.984 1_655 S
N1398 H1411 0.985 . S
N1399 C1401 1.356 . S
N1399 H1404 0.984 . S
N1399 H1405 0.985 . S
C1400 C1394 1.379 . S
C1400 C1397 1.363 . S
C1400 N1398 1.356 . S
C1401 C1395 1.363 . S
C1401 C1396 1.379 . S
C1401 N1399 1.356 . S
N1402 C1394 1.356 . S
N1402 H1408 0.984 1_655 S
N1402 H1409 0.984 . S
N1403 C1396 1.356 . S
N1403 H1406 0.984 . S
N1403 H1407 0.985 . S
H1404 N1399 0.984 . S
H1405 N1399 0.985 . S
H1406 N1403 0.984 . S
H1407 N1403 0.985 . S
H1408 N1402 0.984 1_455 S
H1409 N1402 0.984 . S
H1410 N1398 0.984 1_455 S
H1411 N1398 0.985 . S
C1412 C1413 1.363 . S
C1412 C1418 1.379 . S
C1412 N1420 1.356 . S
C1413 C1412 1.363 . S
C1413 C1419 1.363 . S
C1414 C1415 1.363 . S
C1414 C1419 1.379 . S
C1414 N1421 1.356 . S
C1415 C1414 1.363 . S
C1415 C1418 1.363 . S
N1416 C1418 1.356 . S
N1416 H1428 0.984 . S
N1416 H1429 0.985 . S
N1417 C1419 1.356 . S
N1417 H1422 0.984 . S
N1417 H1423 0.985 . S
C1418 C1412 1.379 . S
C1418 C1415 1.363 . S
C1418 N1416 1.356 . S
C1419 C1413 1.363 . S
C1419 C1414 1.379 . S
C1419 N1417 1.356 . S
N1420 C1412 1.356 . S
N1420 H1426 0.984 . S
N1420 H1427 0.984 . S
N1421 C1414 1.356 . S
N1421 H1424 0.984 . S
N1421 H1425 0.985 . S
H1422 N1417 0.984 . S
H1423 N1417 0.985 . S
H1424 N1421 0.984 . S
H1425 N1421 0.985 . S
H1426 N1420 0.984 . S
H1427 N1420 0.984 . S
H1428 N1416 0.984 . S
H1429 N1416 0.985 . S
C1430 C1431 1.363 . S
C1430 C1436 1.379 . S
C1430 N1438 1.356 1_455 S
C1431 C1430 1.363 . S
C1431 C1437 1.363 . S
C1432 C1433 1.363 . S
C1432 C1437 1.379 . S
C1432 N1439 1.356 . S
C1433 C1432 1.363 . S
C1433 C1436 1.363 . S
N1434 C1436 1.356 1_655 S
N1434 H1446 0.984 . S
N1434 H1447 0.985 . S
N1435 C1437 1.356 . S
N1435 H1440 0.984 . S
N1435 H1441 0.985 . S
C1436 C1430 1.379 . S
C1436 C1433 1.363 . S
C1436 N1434 1.356 1_455 S
C1437 C1431 1.363 . S
C1437 C1432 1.379 . S
C1437 N1435 1.356 . S
N1438 C1430 1.356 1_655 S
N1438 H1444 0.984 . S
N1438 H1445 0.984 . S
N1439 C1432 1.356 . S
N1439 H1442 0.984 . S
N1439 H1443 0.985 . S
H1440 N1435 0.984 . S
H1441 N1435 0.985 . S
H1442 N1439 0.984 . S
H1443 N1439 0.985 . S
H1444 N1438 0.984 . S
H1445 N1438 0.984 . S
H1446 N1434 0.984 . S
H1447 N1434 0.985 . S
C1448 C1449 1.363 . S
C1448 C1454 1.379 . S
C1448 N1456 1.356 . S
C1449 C1448 1.363 . S
C1449 C1455 1.363 . S
C1450 C1451 1.363 . S
C1450 C1455 1.379 . S
C1450 N1457 1.356 . S
C1451 C1450 1.363 . S
C1451 C1454 1.363 . S
N1452 C1454 1.356 . S
N1452 H1464 0.984 . S
N1452 H1465 0.985 . S
N1453 C1455 1.356 . S
N1453 H1458 0.984 . S
N1453 H1459 0.985 . S
C1454 C1448 1.379 . S
C1454 C1451 1.363 . S
C1454 N1452 1.356 . S
C1455 C1449 1.363 . S
C1455 C1450 1.379 . S
C1455 N1453 1.356 . S
N1456 C1448 1.356 . S
N1456 H1462 0.984 . S
N1456 H1463 0.984 . S
N1457 C1450 1.356 . S
N1457 H1460 0.984 . S
N1457 H1461 0.985 . S
H1458 N1453 0.984 . S
H1459 N1453 0.985 . S
H1460 N1457 0.984 . S
H1461 N1457 0.985 . S
H1462 N1456 0.984 . S
H1463 N1456 0.984 . S
H1464 N1452 0.984 . S
H1465 N1452 0.985 . S
C1466 C1467 1.363 . S
C1466 C1472 1.379 . S
C1466 N1474 1.356 . S
C1467 C1466 1.363 . S
C1467 C1473 1.363 . S
C1468 C1469 1.363 . S
C1468 C1473 1.379 . S
C1468 N1475 1.356 . S
C1469 C1468 1.363 . S
C1469 C1472 1.363 . S
N1470 C1472 1.356 . S
N1470 H1482 0.984 . S
N1470 H1483 0.985 . S
N1471 C1473 1.356 . S
N1471 H1476 0.984 . S
N1471 H1477 0.985 . S
C1472 C1466 1.379 . S
C1472 C1469 1.363 . S
C1472 N1470 1.356 . S
C1473 C1467 1.363 . S
C1473 C1468 1.379 . S
C1473 N1471 1.356 . S
N1474 C1466 1.356 . S
N1474 H1480 0.984 . S
N1474 H1481 0.984 . S
N1475 C1468 1.356 . S
N1475 H1478 0.984 . S
N1475 H1479 0.985 . S
H1476 N1471 0.984 . S
H1477 N1471 0.985 . S
H1478 N1475 0.984 . S
H1479 N1475 0.985 . S
H1480 N1474 0.984 . S
H1481 N1474 0.984 . S
H1482 N1470 0.984 . S
H1483 N1470 0.985 . S
C1484 C1485 1.363 . S
C1484 C1490 1.379 . S
C1484 N1492 1.356 . S
C1485 C1484 1.363 . S
C1485 C1491 1.363 . S
C1486 C1487 1.363 . S
C1486 C1491 1.379 . S
C1486 N1493 1.356 . S
C1487 C1486 1.363 . S
C1487 C1490 1.363 . S
N1488 C1490 1.356 . S
N1488 H1500 0.984 . S
N1488 H1501 0.985 . S
N1489 C1491 1.356 . S
N1489 H1494 0.984 . S
N1489 H1495 0.985 . S
C1490 C1484 1.379 . S
C1490 C1487 1.363 . S
C1490 N1488 1.356 . S
C1491 C1485 1.363 . S
C1491 C1486 1.379 . S
C1491 N1489 1.356 . S
N1492 C1484 1.356 . S
N1492 H1498 0.984 . S
N1492 H1499 0.984 . S
N1493 C1486 1.356 . S
N1493 H1496 0.984 . S
N1493 H1497 0.985 . S
H1494 N1489 0.984 . S
H1495 N1489 0.985 . S
H1496 N1493 0.984 . S
H1497 N1493 0.985 . S
H1498 N1492 0.984 . S
H1499 N1492 0.984 . S
H1500 N1488 0.984 . S
H1501 N1488 0.985 . S
C1502 C1503 1.363 . S
C1502 C1508 1.379 . S
C1502 N1510 1.356 . S
C1503 C1502 1.363 . S
C1503 C1509 1.363 . S
C1504 C1505 1.363 . S
C1504 C1509 1.379 . S
C1504 N1511 1.356 . S
C1505 C1504 1.363 . S
C1505 C1508 1.363 . S
N1506 C1508 1.356 . S
N1506 H1518 0.984 . S
N1506 H1519 0.985 . S
N1507 C1509 1.356 . S
N1507 H1512 0.984 . S
N1507 H1513 0.985 1_455 S
C1508 C1502 1.379 . S
C1508 C1505 1.363 . S
C1508 N1506 1.356 . S
C1509 C1503 1.363 . S
C1509 C1504 1.379 . S
C1509 N1507 1.356 . S
N1510 C1502 1.356 . S
N1510 H1516 0.984 . S
N1510 H1517 0.984 . S
N1511 C1504 1.356 . S
N1511 H1514 0.984 . S
N1511 H1515 0.985 1_455 S
H1512 N1507 0.984 . S
H1513 N1507 0.985 1_655 S
H1514 N1511 0.984 . S
H1515 N1511 0.985 1_655 S
H1516 N1510 0.984 . S
H1517 N1510 0.984 . S
H1518 N1506 0.984 . S
H1519 N1506 0.985 . S
C1520 C1521 1.363 . S
C1520 C1526 1.379 . S
C1520 N1528 1.356 . S
C1521 C1520 1.363 . S
C1521 C1527 1.363 . S
C1522 C1523 1.363 . S
C1522 C1527 1.379 . S
C1522 N1529 1.356 . S
C1523 C1522 1.363 . S
C1523 C1526 1.363 . S
N1524 C1526 1.356 . S
N1524 H1536 0.984 . S
N1524 H1537 0.985 . S
N1525 C1527 1.356 . S
N1525 H1530 0.984 . S
N1525 H1531 0.985 . S
C1526 C1520 1.379 . S
C1526 C1523 1.363 . S
C1526 N1524 1.356 . S
C1527 C1521 1.363 . S
C1527 C1522 1.379 . S
C1527 N1525 1.356 . S
N1528 C1520 1.356 . S
N1528 H1534 0.984 . S
N1528 H1535 0.984 . S
N1529 C1522 1.356 . S
N1529 H1532 0.984 . S
N1529 H1533 0.985 . S
H1530 N1525 0.984 . S
H1531 N1525 0.985 . S
H1532 N1529 0.984 . S
H1533 N1529 0.985 . S
H1534 N1528 0.984 . S
H1535 N1528 0.984 . S
H1536 N1524 0.984 . S
H1537 N1524 0.985 . S
C1538 C1539 1.363 . S
C1538 C1544 1.379 . S
C1538 N1546 1.356 . S
C1539 C1538 1.363 . S
C1539 C1545 1.363 . S
C1540 C1541 1.363 . S
C1540 C1545 1.379 . S
C1540 N1547 1.356 . S
C1541 C1540 1.363 . S
C1541 C1544 1.363 . S
N1542 C1544 1.356 . S
N1542 H1554 0.984 . S
N1542 H1555 0.985 . S
N1543 C1545 1.356 . S
N1543 H1548 0.984 . S
N1543 H1549 0.985 . S
C1544 C1538 1.379 . S
C1544 C1541 1.363 . S
C1544 N1542 1.356 . S
C1545 C1539 1.363 . S
C1545 C1540 1.379 . S
C1545 N1543 1.356 . S
N1546 C1538 1.356 . S
N1546 H1552 0.984 . S
N1546 H1553 0.984 . S
N1547 C1540 1.356 . S
N1547 H1550 0.984 . S
N1547 H1551 0.985 . S
H1548 N1543 0.984 . S
H1549 N1543 0.985 . S
H1550 N1547 0.984 . S
H1551 N1547 0.985 . S
H1552 N1546 0.984 . S
H1553 N1546 0.984 . S
H1554 N1542 0.984 . S
H1555 N1542 0.985 . S
C1556 C1557 1.363 . S
C1556 C1562 1.379 . S
C1556 N1564 1.356 . S
C1557 C1556 1.363 . S
C1557 C1563 1.363 . S
C1558 C1559 1.363 . S
C1558 C1563 1.379 . S
C1558 N1565 1.356 . S
C1559 C1558 1.363 . S
C1559 C1562 1.363 . S
N1560 C1562 1.356 . S
N1560 H1572 0.984 . S
N1560 H1573 0.985 . S
N1561 C1563 1.356 . S
N1561 H1566 0.984 . S
N1561 H1567 0.985 . S
C1562 C1556 1.379 . S
C1562 C1559 1.363 . S
C1562 N1560 1.356 . S
C1563 C1557 1.363 . S
C1563 C1558 1.379 . S
C1563 N1561 1.356 . S
N1564 C1556 1.356 . S
N1564 H1570 0.984 . S
N1564 H1571 0.984 . S
N1565 C1558 1.356 . S
N1565 H1568 0.984 . S
N1565 H1569 0.985 . S
H1566 N1561 0.984 . S
H1567 N1561 0.985 . S
H1568 N1565 0.984 . S
H1569 N1565 0.985 . S
H1570 N1564 0.984 . S
H1571 N1564 0.984 . S
H1572 N1560 0.984 . S
H1573 N1560 0.985 . S
C1574 C1575 1.363 . S
C1574 C1580 1.379 . S
C1574 N1582 1.356 . S
C1575 C1574 1.363 . S
C1575 C1581 1.363 . S
C1576 C1577 1.363 . S
C1576 C1581 1.379 . S
C1576 N1583 1.356 . S
C1577 C1576 1.363 . S
C1577 C1580 1.363 . S
N1578 C1580 1.356 . S
N1578 H1590 0.984 . S
N1578 H1591 0.985 . S
N1579 C1581 1.356 . S
N1579 H1584 0.984 . S
N1579 H1585 0.985 . S
C1580 C1574 1.379 . S
C1580 C1577 1.363 . S
C1580 N1578 1.356 . S
C1581 C1575 1.363 . S
C1581 C1576 1.379 . S
C1581 N1579 1.356 . S
N1582 C1574 1.356 . S
N1582 H1588 0.984 . S
N1582 H1589 0.984 . S
N1583 C1576 1.356 . S
N1583 H1586 0.984 . S
N1583 H1587 0.985 . S
H1584 N1579 0.984 . S
H1585 N1579 0.985 . S
H1586 N1583 0.984 . S
H1587 N1583 0.985 . S
H1588 N1582 0.984 . S
H1589 N1582 0.984 . S
H1590 N1578 0.984 . S
H1591 N1578 0.985 . S
C1592 C1593 1.363 . S
C1592 C1598 1.379 . S
C1592 N1600 1.356 . S
C1593 C1592 1.363 . S
C1593 C1599 1.363 . S
C1594 C1595 1.363 . S
C1594 C1599 1.379 . S
C1594 N1601 1.356 . S
C1595 C1594 1.363 . S
C1595 C1598 1.363 . S
N1596 C1598 1.356 . S
N1596 H1608 0.984 . S
N1596 H1609 0.985 . S
N1597 C1599 1.356 . S
N1597 H1602 0.984 . S
N1597 H1603 0.985 . S
C1598 C1592 1.379 . S
C1598 C1595 1.363 . S
C1598 N1596 1.356 . S
C1599 C1593 1.363 . S
C1599 C1594 1.379 . S
C1599 N1597 1.356 . S
N1600 C1592 1.356 . S
N1600 H1606 0.984 . S
N1600 H1607 0.984 . S
N1601 C1594 1.356 . S
N1601 H1604 0.984 . S
N1601 H1605 0.985 . S
H1602 N1597 0.984 . S
H1603 N1597 0.985 . S
H1604 N1601 0.984 . S
H1605 N1601 0.985 . S
H1606 N1600 0.984 . S
H1607 N1600 0.984 . S
H1608 N1596 0.984 . S
H1609 N1596 0.985 . S
C1610 C1611 1.363 . S
C1610 C1616 1.379 . S
C1610 N1618 1.356 . S
C1611 C1610 1.363 . S
C1611 C1617 1.363 . S
C1612 C1613 1.363 . S
C1612 C1617 1.379 . S
C1612 N1619 1.356 . S
C1613 C1612 1.363 . S
C1613 C1616 1.363 . S
N1614 C1616 1.356 . S
N1614 H1626 0.984 . S
N1614 H1627 0.985 . S
N1615 C1617 1.356 . S
N1615 H1620 0.984 . S
N1615 H1621 0.985 . S
C1616 C1610 1.379 . S
C1616 C1613 1.363 . S
C1616 N1614 1.356 . S
C1617 C1611 1.363 . S
C1617 C1612 1.379 . S
C1617 N1615 1.356 . S
N1618 C1610 1.356 . S
N1618 H1624 0.984 . S
N1618 H1625 0.984 . S
N1619 C1612 1.356 . S
N1619 H1622 0.984 . S
N1619 H1623 0.985 . S
H1620 N1615 0.984 . S
H1621 N1615 0.985 . S
H1622 N1619 0.984 . S
H1623 N1619 0.985 . S
H1624 N1618 0.984 . S
H1625 N1618 0.984 . S
H1626 N1614 0.984 . S
H1627 N1614 0.985 . S
C1628 C1629 1.363 . S
C1628 C1634 1.379 . S
C1628 N1636 1.356 . S
C1629 C1628 1.363 . S
C1629 C1635 1.363 . S
C1630 C1631 1.363 . S
C1630 C1635 1.379 . S
C1630 N1637 1.356 . S
C1631 C1630 1.363 . S
C1631 C1634 1.363 . S
N1632 C1634 1.356 . S
N1632 H1644 0.984 . S
N1632 H1645 0.985 . S
N1633 C1635 1.356 . S
N1633 H1638 0.984 . S
N1633 H1639 0.985 . S
C1634 C1628 1.379 . S
C1634 C1631 1.363 . S
C1634 N1632 1.356 . S
C1635 C1629 1.363 . S
C1635 C1630 1.379 . S
C1635 N1633 1.356 . S
N1636 C1628 1.356 . S
N1636 H1642 0.984 . S
N1636 H1643 0.984 . S
N1637 C1630 1.356 . S
N1637 H1640 0.984 . S
N1637 H1641 0.985 . S
H1638 N1633 0.984 . S
H1639 N1633 0.985 . S
H1640 N1637 0.984 . S
H1641 N1637 0.985 . S
H1642 N1636 0.984 . S
H1643 N1636 0.984 . S
H1644 N1632 0.984 . S
H1645 N1632 0.985 . S
C1646 C1647 1.363 . S
C1646 C1652 1.379 . S
C1646 N1654 1.356 . S
C1647 C1646 1.363 . S
C1647 C1653 1.363 . S
C1648 C1649 1.363 . S
C1648 C1653 1.379 . S
C1648 N1655 1.356 . S
C1649 C1648 1.363 . S
C1649 C1652 1.363 . S
N1650 C1652 1.356 . S
N1650 H1662 0.984 . S
N1650 H1663 0.985 . S
N1651 C1653 1.356 . S
N1651 H1656 0.984 . S
N1651 H1657 0.985 . S
C1652 C1646 1.379 . S
C1652 C1649 1.363 . S
C1652 N1650 1.356 . S
C1653 C1647 1.363 . S
C1653 C1648 1.379 . S
C1653 N1651 1.356 . S
N1654 C1646 1.356 . S
N1654 H1660 0.984 . S
N1654 H1661 0.984 . S
N1655 C1648 1.356 . S
N1655 H1658 0.984 . S
N1655 H1659 0.985 . S
H1656 N1651 0.984 . S
H1657 N1651 0.985 . S
H1658 N1655 0.984 . S
H1659 N1655 0.985 . S
H1660 N1654 0.984 . S
H1661 N1654 0.984 . S
H1662 N1650 0.984 . S
H1663 N1650 0.985 . S
C1664 C1665 1.363 . S
C1664 C1670 1.379 . S
C1664 N1672 1.356 . S
C1665 C1664 1.363 . S
C1665 C1671 1.363 . S
C1666 C1667 1.363 . S
C1666 C1671 1.379 . S
C1666 N1673 1.356 . S
C1667 C1666 1.363 . S
C1667 C1670 1.363 . S
N1668 C1670 1.356 . S
N1668 H1680 0.984 . S
N1668 H1681 0.985 . S
N1669 C1671 1.356 . S
N1669 H1674 0.984 . S
N1669 H1675 0.983 . S
C1670 C1664 1.379 . S
C1670 C1667 1.363 . S
C1670 N1668 1.356 . S
C1671 C1665 1.363 . S
C1671 C1666 1.379 . S
C1671 N1669 1.356 . S
N1672 C1664 1.356 . S
N1672 H1678 0.984 . S
N1672 H1679 0.984 . S
N1673 C1666 1.356 . S
N1673 H1676 0.984 . S
N1673 H1677 0.983 . S
H1674 N1669 0.984 . S
H1675 N1669 0.983 . S
H1676 N1673 0.984 . S
H1677 N1673 0.983 . S
H1678 N1672 0.984 . S
H1679 N1672 0.984 . S
H1680 N1668 0.984 . S
H1681 N1668 0.985 . S
C1682 C1683 1.363 . S
C1682 C1688 1.379 . S
C1682 N1690 1.356 . S
C1683 C1682 1.363 . S
C1683 C1689 1.363 . S
C1684 C1685 1.363 . S
C1684 C1689 1.379 . S
C1684 N1691 1.356 . S
C1685 C1684 1.363 . S
C1685 C1688 1.363 . S
N1686 C1688 1.356 . S
N1686 H1698 0.984 . S
N1686 H1699 0.985 . S
N1687 C1689 1.356 . S
N1687 H1692 0.984 . S
N1687 H1693 0.985 . S
C1688 C1682 1.379 . S
C1688 C1685 1.363 . S
C1688 N1686 1.356 . S
C1689 C1683 1.363 . S
C1689 C1684 1.379 . S
C1689 N1687 1.356 . S
N1690 C1682 1.356 . S
N1690 H1696 0.984 . S
N1690 H1697 0.984 . S
N1691 C1684 1.356 . S
N1691 H1694 0.984 . S
N1691 H1695 0.985 . S
H1692 N1687 0.984 . S
H1693 N1687 0.985 . S
H1694 N1691 0.984 . S
H1695 N1691 0.985 . S
H1696 N1690 0.984 . S
H1697 N1690 0.984 . S
H1698 N1686 0.984 . S
H1699 N1686 0.985 . S
C1700 C1701 1.363 . S
C1700 C1706 1.379 . S
C1700 N1708 1.356 . S
C1701 C1700 1.363 . S
C1701 C1707 1.363 . S
C1702 C1703 1.363 . S
C1702 C1707 1.379 . S
C1702 N1709 1.356 . S
C1703 C1702 1.363 . S
C1703 C1706 1.363 . S
N1704 C1706 1.356 . S
N1704 H1716 0.983 . S
N1704 H1717 0.985 . S
N1705 C1707 1.356 . S
N1705 H1710 0.984 . S
N1705 H1711 0.985 . S
C1706 C1700 1.379 . S
C1706 C1703 1.363 . S
C1706 N1704 1.356 . S
C1707 C1701 1.363 . S
C1707 C1702 1.379 . S
C1707 N1705 1.356 . S
N1708 C1700 1.356 . S
N1708 H1714 0.983 . S
N1708 H1715 0.984 . S
N1709 C1702 1.356 . S
N1709 H1712 0.984 . S
N1709 H1713 0.985 . S
H1710 N1705 0.984 . S
H1711 N1705 0.985 . S
H1712 N1709 0.984 . S
H1713 N1709 0.985 . S
H1714 N1708 0.983 . S
H1715 N1708 0.984 . S
H1716 N1704 0.983 . S
H1717 N1704 0.985 . S
C1718 C1719 1.363 . S
C1718 C1724 1.379 . S
C1718 N1726 1.356 . S
C1719 C1718 1.363 . S
C1719 C1725 1.363 . S
C1720 C1721 1.363 . S
C1720 C1725 1.379 . S
C1720 N1727 1.356 . S
C1721 C1720 1.363 . S
C1721 C1724 1.363 . S
N1722 C1724 1.356 . S
N1722 H1734 0.984 . S
N1722 H1735 0.985 . S
N1723 C1725 1.356 . S
N1723 H1728 0.984 . S
N1723 H1729 0.985 . S
C1724 C1718 1.379 . S
C1724 C1721 1.363 . S
C1724 N1722 1.356 . S
C1725 C1719 1.363 . S
C1725 C1720 1.379 . S
C1725 N1723 1.356 . S
N1726 C1718 1.356 . S
N1726 H1732 0.984 . S
N1726 H1733 0.984 . S
N1727 C1720 1.356 . S
N1727 H1730 0.984 . S
N1727 H1731 0.985 . S
H1728 N1723 0.984 . S
H1729 N1723 0.985 . S
H1730 N1727 0.984 . S
H1731 N1727 0.985 . S
H1732 N1726 0.984 . S
H1733 N1726 0.984 . S
H1734 N1722 0.984 . S
H1735 N1722 0.985 . S
C1736 C1737 1.363 . S
C1736 C1742 1.379 . S
C1736 N1744 1.356 . S
C1737 C1736 1.363 . S
C1737 C1743 1.363 . S
C1738 C1739 1.363 . S
C1738 C1743 1.379 . S
C1738 N1745 1.356 . S
C1739 C1738 1.363 . S
C1739 C1742 1.363 . S
N1740 C1742 1.356 . S
N1740 H1752 0.984 . S
N1740 H1753 0.985 . S
N1741 C1743 1.356 . S
N1741 H1746 0.984 . S
N1741 H1747 0.985 . S
C1742 C1736 1.379 . S
C1742 C1739 1.363 . S
C1742 N1740 1.356 . S
C1743 C1737 1.363 . S
C1743 C1738 1.379 . S
C1743 N1741 1.356 . S
N1744 C1736 1.356 . S
N1744 H1750 0.984 . S
N1744 H1751 0.984 . S
N1745 C1738 1.356 . S
N1745 H1748 0.984 . S
N1745 H1749 0.985 . S
H1746 N1741 0.984 . S
H1747 N1741 0.985 . S
H1748 N1745 0.984 . S
H1749 N1745 0.985 . S
H1750 N1744 0.984 . S
H1751 N1744 0.984 . S
H1752 N1740 0.984 . S
H1753 N1740 0.985 . S
C1754 C1755 1.363 . S
C1754 C1760 1.379 . S
C1754 N1762 1.356 . S
C1755 C1754 1.363 . S
C1755 C1761 1.363 . S
C1756 C1757 1.363 . S
C1756 C1761 1.379 . S
C1756 N1763 1.356 . S
C1757 C1756 1.363 . S
C1757 C1760 1.363 . S
N1758 C1760 1.356 . S
N1758 H1770 0.984 . S
N1758 H1771 0.985 . S
N1759 C1761 1.356 . S
N1759 H1764 0.984 . S
N1759 H1765 0.985 . S
C1760 C1754 1.379 . S
C1760 C1757 1.363 . S
C1760 N1758 1.356 . S
C1761 C1755 1.363 . S
C1761 C1756 1.379 . S
C1761 N1759 1.356 . S
N1762 C1754 1.356 . S
N1762 H1768 0.984 . S
N1762 H1769 0.984 . S
N1763 C1756 1.356 . S
N1763 H1766 0.984 . S
N1763 H1767 0.985 . S
H1764 N1759 0.984 . S
H1765 N1759 0.985 . S
H1766 N1763 0.984 . S
H1767 N1763 0.985 . S
H1768 N1762 0.984 . S
H1769 N1762 0.984 . S
H1770 N1758 0.984 . S
H1771 N1758 0.985 . S
C1772 C1773 1.363 . S
C1772 C1778 1.379 . S
C1772 N1780 1.356 . S
C1773 C1772 1.363 . S
C1773 C1779 1.363 . S
C1774 C1775 1.363 . S
C1774 C1779 1.379 . S
C1774 N1781 1.356 . S
C1775 C1774 1.363 . S
C1775 C1778 1.363 . S
N1776 C1778 1.356 . S
N1776 H1788 0.984 . S
N1776 H1789 0.985 . S
N1777 C1779 1.356 . S
N1777 H1782 0.984 . S
N1777 H1783 0.985 . S
C1778 C1772 1.379 . S
C1778 C1775 1.363 . S
C1778 N1776 1.356 . S
C1779 C1773 1.363 . S
C1779 C1774 1.379 . S
C1779 N1777 1.356 . S
N1780 C1772 1.356 . S
N1780 H1786 0.984 . S
N1780 H1787 0.984 . S
N1781 C1774 1.356 . S
N1781 H1784 0.984 . S
N1781 H1785 0.985 . S
H1782 N1777 0.984 . S
H1783 N1777 0.985 . S
H1784 N1781 0.984 . S
H1785 N1781 0.985 . S
H1786 N1780 0.984 . S
H1787 N1780 0.984 . S
H1788 N1776 0.984 . S
H1789 N1776 0.985 . S
C1790 C1791 1.363 . S
C1790 C1796 1.379 . S
C1790 N1798 1.356 . S
C1791 C1790 1.363 . S
C1791 C1797 1.363 . S
C1792 C1793 1.363 . S
C1792 C1797 1.379 . S
C1792 N1799 1.356 . S
C1793 C1792 1.363 . S
C1793 C1796 1.363 . S
N1794 C1796 1.356 . S
N1794 H1806 0.984 . S
N1794 H1807 0.985 . S
N1795 C1797 1.356 . S
N1795 H1800 0.984 . S
N1795 H1801 0.985 . S
C1796 C1790 1.379 . S
C1796 C1793 1.363 . S
C1796 N1794 1.356 . S
C1797 C1791 1.363 . S
C1797 C1792 1.379 . S
C1797 N1795 1.356 . S
N1798 C1790 1.356 . S
N1798 H1804 0.984 . S
N1798 H1805 0.984 . S
N1799 C1792 1.356 . S
N1799 H1802 0.984 . S
N1799 H1803 0.985 . S
H1800 N1795 0.984 . S
H1801 N1795 0.985 . S
H1802 N1799 0.984 . S
H1803 N1799 0.985 . S
H1804 N1798 0.984 . S
H1805 N1798 0.984 . S
H1806 N1794 0.984 . S
H1807 N1794 0.985 . S
C1808 C1809 1.363 . S
C1808 C1814 1.379 . S
C1808 N1816 1.356 . S
C1809 C1808 1.363 . S
C1809 C1815 1.363 . S
C1810 C1811 1.363 . S
C1810 C1815 1.379 . S
C1810 N1817 1.356 . S
C1811 C1810 1.363 . S
C1811 C1814 1.363 . S
N1812 C1814 1.356 . S
N1812 H1824 0.984 . S
N1812 H1825 0.985 . S
N1813 C1815 1.356 . S
N1813 H1818 0.984 . S
N1813 H1819 0.985 . S
C1814 C1808 1.379 . S
C1814 C1811 1.363 . S
C1814 N1812 1.356 . S
C1815 C1809 1.363 . S
C1815 C1810 1.379 . S
C1815 N1813 1.356 . S
N1816 C1808 1.356 . S
N1816 H1822 0.984 . S
N1816 H1823 0.984 . S
N1817 C1810 1.356 . S
N1817 H1820 0.985 . S
N1817 H1821 0.985 . S
H1818 N1813 0.984 . S
H1819 N1813 0.985 . S
H1820 N1817 0.985 . S
H1821 N1817 0.985 . S
H1822 N1816 0.984 . S
H1823 N1816 0.984 . S
H1824 N1812 0.984 . S
H1825 N1812 0.985 . S
C1826 C1827 1.363 . S
C1826 C1832 1.379 . S
C1826 N1834 1.356 . S
C1827 C1826 1.363 . S
C1827 C1833 1.363 . S
C1828 C1829 1.363 . S
C1828 C1833 1.379 . S
C1828 N1835 1.356 . S
C1829 C1828 1.363 . S
C1829 C1832 1.363 . S
N1830 C1832 1.356 . S
N1830 H1842 0.984 . S
N1830 H1843 0.985 . S
N1831 C1833 1.356 . S
N1831 H1836 0.984 . S
N1831 H1837 0.985 . S
C1832 C1826 1.379 . S
C1832 C1829 1.363 . S
C1832 N1830 1.356 . S
C1833 C1827 1.363 . S
C1833 C1828 1.379 . S
C1833 N1831 1.356 . S
N1834 C1826 1.356 . S
N1834 H1840 0.984 . S
N1834 H1841 0.985 . S
N1835 C1828 1.356 . S
N1835 H1838 0.984 . S
N1835 H1839 0.985 . S
H1836 N1831 0.984 . S
H1837 N1831 0.985 . S
H1838 N1835 0.984 . S
H1839 N1835 0.985 . S
H1840 N1834 0.984 . S
H1841 N1834 0.985 . S
H1842 N1830 0.984 . S
H1843 N1830 0.985 . S
C1844 C1845 1.363 . S
C1844 C1850 1.379 . S
C1844 N1852 1.356 . S
C1845 C1844 1.363 . S
C1845 C1851 1.363 . S
C1846 C1847 1.363 . S
C1846 C1851 1.379 . S
C1846 N1853 1.356 . S
C1847 C1846 1.363 . S
C1847 C1850 1.363 . S
N1848 C1850 1.356 . S
N1848 H1860 0.984 . S
N1848 H1861 0.985 . S
N1849 C1851 1.356 . S
N1849 H1854 0.984 . S
N1849 H1855 0.985 . S
C1850 C1844 1.379 . S
C1850 C1847 1.363 . S
C1850 N1848 1.356 . S
C1851 C1845 1.363 . S
C1851 C1846 1.379 . S
C1851 N1849 1.356 . S
N1852 C1844 1.356 . S
N1852 H1858 0.984 . S
N1852 H1859 0.984 . S
N1853 C1846 1.356 . S
N1853 H1856 0.984 . S
N1853 H1857 0.985 . S
H1854 N1849 0.984 . S
H1855 N1849 0.985 . S
H1856 N1853 0.984 . S
H1857 N1853 0.985 . S
H1858 N1852 0.984 . S
H1859 N1852 0.984 . S
H1860 N1848 0.984 . S
H1861 N1848 0.985 . S
C1862 C1863 1.363 . S
C1862 C1868 1.379 . S
C1862 N1870 1.356 . S
C1863 C1862 1.363 . S
C1863 C1869 1.363 . S
C1864 C1865 1.363 . S
C1864 C1869 1.379 . S
C1864 N1871 1.356 . S
C1865 C1864 1.363 . S
C1865 C1868 1.363 . S
N1866 C1868 1.356 . S
N1866 H1878 0.984 . S
N1866 H1879 0.985 . S
N1867 C1869 1.356 . S
N1867 H1872 0.985 . S
N1867 H1873 0.985 . S
C1868 C1862 1.379 . S
C1868 C1865 1.363 . S
C1868 N1866 1.356 . S
C1869 C1863 1.363 . S
C1869 C1864 1.379 . S
C1869 N1867 1.356 . S
N1870 C1862 1.356 . S
N1870 H1876 0.984 . S
N1870 H1877 0.984 . S
N1871 C1864 1.356 . S
N1871 H1874 0.984 . S
N1871 H1875 0.985 . S
H1872 N1867 0.985 . S
H1873 N1867 0.985 . S
H1874 N1871 0.984 . S
H1875 N1871 0.985 . S
H1876 N1870 0.984 . S
H1877 N1870 0.984 . S
H1878 N1866 0.984 . S
H1879 N1866 0.985 . S
C1880 C1881 1.363 . S
C1880 C1886 1.379 . S
C1880 N1888 1.356 . S
C1881 C1880 1.363 . S
C1881 C1887 1.363 . S
C1882 C1883 1.363 . S
C1882 C1887 1.379 . S
C1882 N1889 1.356 . S
C1883 C1882 1.363 . S
C1883 C1886 1.363 . S
N1884 C1886 1.356 . S
N1884 H1896 0.983 . S
N1884 H1897 0.985 . S
N1885 C1887 1.356 . S
N1885 H1890 0.984 . S
N1885 H1891 0.985 . S
C1886 C1880 1.379 . S
C1886 C1883 1.363 . S
C1886 N1884 1.356 . S
C1887 C1881 1.363 . S
C1887 C1882 1.379 . S
C1887 N1885 1.356 . S
N1888 C1880 1.356 . S
N1888 H1894 0.983 . S
N1888 H1895 0.985 . S
N1889 C1882 1.356 . S
N1889 H1892 0.984 . S
N1889 H1893 0.985 . S
H1890 N1885 0.984 . S
H1891 N1885 0.985 . S
H1892 N1889 0.984 . S
H1893 N1889 0.985 . S
H1894 N1888 0.983 . S
H1895 N1888 0.985 . S
H1896 N1884 0.983 . S
H1897 N1884 0.985 . S
C1898 C1899 1.363 . S
C1898 C1904 1.379 . S
C1898 N1906 1.356 . S
C1899 C1898 1.363 . S
C1899 C1905 1.363 . S
C1900 C1901 1.363 . S
C1900 C1905 1.379 . S
C1900 N1907 1.356 . S
C1901 C1900 1.363 . S
C1901 C1904 1.363 . S
N1902 C1904 1.356 . S
N1902 H1914 0.984 . S
N1902 H1915 0.985 . S
N1903 C1905 1.356 . S
N1903 H1908 0.984 . S
N1903 H1909 0.985 . S
C1904 C1898 1.379 . S
C1904 C1901 1.363 . S
C1904 N1902 1.356 . S
C1905 C1899 1.363 . S
C1905 C1900 1.379 . S
C1905 N1903 1.356 . S
N1906 C1898 1.356 . S
N1906 H1912 0.984 . S
N1906 H1913 0.984 . S
N1907 C1900 1.356 . S
N1907 H1910 0.985 . S
N1907 H1911 0.985 . S
H1908 N1903 0.984 . S
H1909 N1903 0.985 . S
H1910 N1907 0.985 . S
H1911 N1907 0.985 . S
H1912 N1906 0.984 . S
H1913 N1906 0.984 . S
H1914 N1902 0.984 . S
H1915 N1902 0.985 . S
C1916 C1917 1.363 . S
C1916 C1922 1.379 . S
C1916 N1924 1.356 . S
C1917 C1916 1.363 . S
C1917 C1923 1.363 . S
C1918 C1919 1.363 . S
C1918 C1923 1.379 . S
C1918 N1925 1.356 . S
C1919 C1918 1.363 . S
C1919 C1922 1.363 . S
N1920 C1922 1.356 . S
N1920 H1932 0.984 . S
N1920 H1933 0.985 . S
N1921 C1923 1.356 . S
N1921 H1926 0.984 . S
N1921 H1927 0.983 . S
C1922 C1916 1.379 . S
C1922 C1919 1.363 . S
C1922 N1920 1.356 . S
C1923 C1917 1.363 . S
C1923 C1918 1.379 . S
C1923 N1921 1.356 . S
N1924 C1916 1.356 . S
N1924 H1930 0.984 . S
N1924 H1931 0.985 . S
N1925 C1918 1.356 . S
N1925 H1928 0.984 . S
N1925 H1929 0.983 . S
H1926 N1921 0.984 . S
H1927 N1921 0.983 . S
H1928 N1925 0.984 . S
H1929 N1925 0.983 . S
H1930 N1924 0.984 . S
H1931 N1924 0.985 . S
H1932 N1920 0.984 . S
H1933 N1920 0.985 . S
C1934 C1935 1.363 . S
C1934 C1940 1.379 . S
C1934 N1942 1.356 . S
C1935 C1934 1.363 . S
C1935 C1941 1.363 . S
C1936 C1937 1.363 . S
C1936 C1941 1.379 . S
C1936 N1943 1.356 . S
C1937 C1936 1.363 . S
C1937 C1940 1.363 . S
N1938 C1940 1.356 . S
N1938 H1950 0.984 . S
N1938 H1951 0.985 . S
N1939 C1941 1.356 . S
N1939 H1944 0.985 . S
N1939 H1945 0.985 . S
C1940 C1934 1.379 . S
C1940 C1937 1.363 . S
C1940 N1938 1.356 . S
C1941 C1935 1.363 . S
C1941 C1936 1.379 . S
C1941 N1939 1.356 . S
N1942 C1934 1.356 . S
N1942 H1948 0.984 . S
N1942 H1949 0.984 . S
N1943 C1936 1.356 . S
N1943 H1946 0.984 . S
N1943 H1947 0.985 . S
H1944 N1939 0.985 . S
H1945 N1939 0.985 . S
H1946 N1943 0.984 . S
H1947 N1943 0.985 . S
H1948 N1942 0.984 . S
H1949 N1942 0.984 . S
H1950 N1938 0.984 . S
H1951 N1938 0.985 . S
C1952 C1953 1.363 1_564 S
C1952 C1958 1.382 . S
C1952 N1960 1.356 1_565 S
C1953 C1952 1.363 1_546 S
C1953 C1959 1.363 . S
C1954 C1955 1.363 . S
C1954 C1959 1.379 1_565 S
C1954 N1961 1.356 1_455 S
C1955 C1954 1.363 . S
C1955 C1958 1.344 1_556 S
N1956 C1958 1.369 . S
N1956 H1968 0.984 . S
N1956 H1969 0.985 . S
N1957 C1959 1.356 . S
N1957 H1962 0.984 . S
N1957 H1963 0.985 1_455 S
C1958 C1952 1.382 . S
C1958 C1955 1.344 1_554 S
C1958 N1956 1.369 . S
C1959 C1953 1.363 . S
C1959 C1954 1.379 1_545 S
C1959 N1957 1.356 . S
N1960 C1952 1.356 1_545 S
N1960 H1966 0.984 . S
N1960 H1967 0.984 . S
N1961 C1954 1.356 1_655 S
N1961 H1964 0.984 . S
N1961 H1965 0.985 . S
H1962 N1957 0.984 . S
H1963 N1957 0.985 1_655 S
H1964 N1961 0.984 . S
H1965 N1961 0.985 . S
H1966 N1960 0.984 . S
H1967 N1960 0.984 . S
H1968 N1956 0.984 . S
H1969 N1956 0.985 . S
C1970 C1971 1.363 1_554 S
C1970 C1976 1.379 . S
C1970 N1978 1.356 . S
C1971 C1970 1.363 1_556 S
C1971 C1977 1.363 . S
C1972 C1973 1.363 . S
C1972 C1977 1.379 . S
C1972 N1979 1.356 . S
C1973 C1972 1.363 . S
C1973 C1976 1.363 1_556 S
N1974 C1976 1.356 . S
N1974 H1986 0.984 . S
N1974 H1987 0.985 . S
N1975 C1977 1.356 . S
N1975 H1980 0.984 . S
N1975 H1981 0.985 . S
C1976 C1970 1.379 . S
C1976 C1973 1.363 1_554 S
C1976 N1974 1.356 . S
C1977 C1971 1.363 . S
C1977 C1972 1.379 . S
C1977 N1975 1.356 . S
N1978 C1970 1.356 . S
N1978 H1984 0.984 . S
N1978 H1985 0.984 . S
N1979 C1972 1.356 . S
N1979 H1982 0.984 . S
N1979 H1983 0.985 . S
H1980 N1975 0.984 . S
H1981 N1975 0.985 . S
H1982 N1979 0.984 . S
H1983 N1979 0.985 . S
H1984 N1978 0.984 . S
H1985 N1978 0.984 . S
H1986 N1974 0.984 . S
H1987 N1974 0.985 . S
C1988 C1989 1.363 . S
C1988 C1994 1.379 . S
C1988 N1996 1.356 . S
C1989 C1988 1.363 . S
C1989 C1995 1.363 . S
C1990 C1991 1.363 . S
C1990 C1995 1.379 . S
C1990 N1997 1.356 . S
C1991 C1990 1.363 . S
C1991 C1994 1.363 . S
N1992 C1994 1.356 . S
N1992 H2004 0.984 . S
N1992 H2005 0.985 . S
N1993 C1995 1.356 . S
N1993 H1998 0.984 . S
N1993 H1999 0.985 1_455 S
C1994 C1988 1.379 . S
C1994 C1991 1.363 . S
C1994 N1992 1.356 . S
C1995 C1989 1.363 . S
C1995 C1990 1.379 . S
C1995 N1993 1.356 . S
N1996 C1988 1.356 . S
N1996 H2002 0.984 . S
N1996 H2003 0.984 . S
N1997 C1990 1.356 . S
N1997 H2000 0.984 . S
N1997 H2001 0.985 . S
H1998 N1993 0.984 . S
H1999 N1993 0.985 1_655 S
H2000 N1997 0.984 . S
H2001 N1997 0.985 . S
H2002 N1996 0.984 . S
H2003 N1996 0.984 . S
H2004 N1992 0.984 . S
H2005 N1992 0.985 . S
C2006 C2007 1.363 1_565 S
C2006 C2012 1.379 . S
C2006 N2014 1.356 1_565 S
C2007 C2006 1.363 1_545 S
C2007 C2013 1.363 . S
C2008 C2009 1.363 . S
C2008 C2013 1.379 1_565 S
C2008 N2015 1.356 . S
C2009 C2008 1.363 . S
C2009 C2012 1.363 . S
N2010 C2012 1.356 . S
N2010 H2022 0.984 . S
N2010 H2023 0.985 . S
N2011 C2013 1.356 . S
N2011 H2016 0.984 . S
N2011 H2017 0.985 . S
C2012 C2006 1.379 . S
C2012 C2009 1.363 . S
C2012 N2010 1.356 . S
C2013 C2007 1.363 . S
C2013 C2008 1.379 1_545 S
C2013 N2011 1.356 . S
N2014 C2006 1.356 1_545 S
N2014 H2020 0.984 . S
N2014 H2021 0.984 . S
N2015 C2008 1.356 . S
N2015 H2018 0.984 . S
N2015 H2019 0.985 . S
H2016 N2011 0.984 . S
H2017 N2011 0.985 . S
H2018 N2015 0.984 . S
H2019 N2015 0.985 . S
H2020 N2014 0.984 . S
H2021 N2014 0.984 . S
H2022 N2010 0.984 . S
H2023 N2010 0.985 . S
C2024 C2025 1.363 . S
C2024 C2030 1.381 . S
C2024 N2032 1.356 1_554 S
C2025 C2024 1.363 . S
C2025 C2031 1.363 . S
C2026 C2027 1.363 . S
C2026 C2031 1.379 1_565 S
C2026 N2033 1.356 . S
C2027 C2026 1.363 . S
C2027 C2030 1.371 1_565 S
N2028 C2030 1.348 1_566 S
N2028 H2040 0.984 . S
N2028 H2041 0.985 . S
N2029 C2031 1.356 1_455 S
N2029 H2034 0.984 . S
N2029 H2035 0.985 . S
C2030 C2024 1.381 . S
C2030 C2027 1.371 1_545 S
C2030 N2028 1.348 1_544 S
C2031 C2025 1.363 . S
C2031 C2026 1.379 1_545 S
C2031 N2029 1.356 1_655 S
N2032 C2024 1.356 1_556 S
N2032 H2038 0.984 . S
N2032 H2039 0.984 1_556 S
N2033 C2026 1.356 . S
N2033 H2036 0.984 . S
N2033 H2037 0.985 1_655 S
H2034 N2029 0.984 . S
H2035 N2029 0.985 . S
H2036 N2033 0.984 . S
H2037 N2033 0.985 1_455 S
H2038 N2032 0.984 . S
H2039 N2032 0.984 1_554 S
H2040 N2028 0.984 . S
H2041 N2028 0.985 . S
C2042 C2043 1.363 1_556 S
C2042 C2048 1.379 . S
C2042 N2050 1.356 . S
C2043 C2042 1.363 1_554 S
C2043 C2049 1.363 . S
C2044 C2045 1.363 . S
C2044 C2049 1.379 . S
C2044 N2051 1.356 . S
C2045 C2044 1.363 . S
C2045 C2048 1.363 1_554 S
N2046 C2048 1.356 . S
N2046 H2058 0.984 . S
N2046 H2059 0.985 . S
N2047 C2049 1.356 . S
N2047 H2052 0.984 . S
N2047 H2053 0.985 . S
C2048 C2042 1.379 . S
C2048 C2045 1.363 1_556 S
C2048 N2046 1.356 . S
C2049 C2043 1.363 . S
C2049 C2044 1.379 . S
C2049 N2047 1.356 . S
N2050 C2042 1.356 . S
N2050 H2056 0.984 . S
N2050 H2057 0.984 . S
N2051 C2044 1.356 . S
N2051 H2054 0.984 . S
N2051 H2055 0.985 . S
H2052 N2047 0.984 . S
H2053 N2047 0.985 . S
H2054 N2051 0.984 . S
H2055 N2051 0.985 . S
H2056 N2050 0.984 . S
H2057 N2050 0.984 . S
H2058 N2046 0.984 . S
H2059 N2046 0.985 . S
C2060 C2061 1.363 . S
C2060 C2066 1.379 . S
C2060 N2068 1.356 . S
C2061 C2060 1.363 . S
C2061 C2067 1.363 . S
C2062 C2063 1.363 . S
C2062 C2067 1.379 . S
C2062 N2069 1.356 . S
C2063 C2062 1.363 . S
C2063 C2066 1.363 . S
N2064 C2066 1.356 . S
N2064 H2076 0.984 . S
N2064 H2077 0.985 . S
N2065 C2067 1.356 . S
N2065 H2070 0.984 . S
N2065 H2071 0.985 . S
C2066 C2060 1.379 . S
C2066 C2063 1.363 . S
C2066 N2064 1.356 . S
C2067 C2061 1.363 . S
C2067 C2062 1.379 . S
C2067 N2065 1.356 . S
N2068 C2060 1.356 . S
N2068 H2074 0.984 . S
N2068 H2075 0.984 . S
N2069 C2062 1.356 . S
N2069 H2072 0.984 . S
N2069 H2073 0.985 1_655 S
H2070 N2065 0.984 . S
H2071 N2065 0.985 . S
H2072 N2069 0.984 . S
H2073 N2069 0.985 1_455 S
H2074 N2068 0.984 . S
H2075 N2068 0.984 . S
H2076 N2064 0.984 . S
H2077 N2064 0.985 . S
C2078 C2079 1.363 . S
C2078 C2084 1.379 1_545 S
C2078 N2086 1.356 . S
C2079 C2078 1.363 . S
C2079 C2085 1.363 . S
C2080 C2081 1.363 1_545 S
C2080 C2085 1.379 . S
C2080 N2087 1.356 1_545 S
C2081 C2080 1.363 1_565 S
C2081 C2084 1.363 . S
N2082 C2084 1.356 . S
N2082 H2094 0.984 . S
N2082 H2095 0.985 . S
N2083 C2085 1.356 . S
N2083 H2088 0.984 . S
N2083 H2089 0.985 . S
C2084 C2078 1.379 1_565 S
C2084 C2081 1.363 . S
C2084 N2082 1.356 . S
C2085 C2079 1.363 . S
C2085 C2080 1.379 . S
C2085 N2083 1.356 . S
N2086 C2078 1.356 . S
N2086 H2092 0.984 . S
N2086 H2093 0.984 . S
N2087 C2080 1.356 1_565 S
N2087 H2090 0.984 . S
N2087 H2091 0.985 . S
H2088 N2083 0.984 . S
H2089 N2083 0.985 . S
H2090 N2087 0.984 . S
H2091 N2087 0.985 . S
H2092 N2086 0.984 . S
H2093 N2086 0.984 . S
H2094 N2082 0.984 . S
H2095 N2082 0.985 . S
C2096 C2097 1.363 . S
C2096 C2102 1.379 . S
C2096 N2104 1.356 . S
C2097 C2096 1.363 . S
C2097 C2103 1.363 . S
C2098 C2099 1.363 . S
C2098 C2103 1.379 . S
C2098 N2105 1.356 . S
C2099 C2098 1.363 . S
C2099 C2102 1.363 . S
N2100 C2102 1.356 . S
N2100 H2112 0.984 1_455 S
N2100 H2113 0.985 . S
N2101 C2103 1.356 . S
N2101 H2106 0.984 . S
N2101 H2107 0.985 . S
C2102 C2096 1.379 . S
C2102 C2099 1.363 . S
C2102 N2100 1.356 . S
C2103 C2097 1.363 . S
C2103 C2098 1.379 . S
C2103 N2101 1.356 . S
N2104 C2096 1.356 . S
N2104 H2110 0.984 . S
N2104 H2111 0.984 . S
N2105 C2098 1.356 . S
N2105 H2108 0.984 . S
N2105 H2109 0.985 . S
H2106 N2101 0.984 . S
H2107 N2101 0.985 . S
H2108 N2105 0.984 . S
H2109 N2105 0.985 . S
H2110 N2104 0.984 . S
H2111 N2104 0.984 . S
H2112 N2100 0.984 1_655 S
H2113 N2100 0.985 . S
C2114 C2115 1.363 . S
C2114 C2120 1.379 . S
C2114 N2122 1.356 . S
C2115 C2114 1.363 . S
C2115 C2121 1.363 . S
C2116 C2117 1.363 . S
C2116 C2121 1.379 . S
C2116 N2123 1.356 . S
C2117 C2116 1.363 . S
C2117 C2120 1.363 . S
N2118 C2120 1.356 . S
N2118 H2130 0.984 . S
N2118 H2131 0.985 . S
N2119 C2121 1.356 . S
N2119 H2124 0.984 . S
N2119 H2125 0.985 . S
C2120 C2114 1.379 . S
C2120 C2117 1.363 . S
C2120 N2118 1.356 . S
C2121 C2115 1.363 . S
C2121 C2116 1.379 . S
C2121 N2119 1.356 . S
N2122 C2114 1.356 . S
N2122 H2128 0.984 . S
N2122 H2129 0.984 . S
N2123 C2116 1.356 . S
N2123 H2126 0.984 . S
N2123 H2127 0.985 . S
H2124 N2119 0.984 . S
H2125 N2119 0.985 . S
H2126 N2123 0.984 . S
H2127 N2123 0.985 . S
H2128 N2122 0.984 . S
H2129 N2122 0.984 . S
H2130 N2118 0.984 . S
H2131 N2118 0.985 . S
C2132 C2133 1.363 . S
C2132 C2138 1.379 . S
C2132 N2140 1.356 . S
C2133 C2132 1.363 . S
C2133 C2139 1.363 . S
C2134 C2135 1.363 . S
C2134 C2139 1.379 . S
C2134 N2141 1.356 . S
C2135 C2134 1.363 . S
C2135 C2138 1.363 . S
N2136 C2138 1.356 . S
N2136 H2148 0.984 . S
N2136 H2149 0.985 . S
N2137 C2139 1.356 . S
N2137 H2142 0.984 . S
N2137 H2143 0.985 . S
C2138 C2132 1.379 . S
C2138 C2135 1.363 . S
C2138 N2136 1.356 . S
C2139 C2133 1.363 . S
C2139 C2134 1.379 . S
C2139 N2137 1.356 . S
N2140 C2132 1.356 . S
N2140 H2146 0.984 . S
N2140 H2147 0.984 . S
N2141 C2134 1.356 . S
N2141 H2144 0.984 . S
N2141 H2145 0.985 1_455 S
H2142 N2137 0.984 . S
H2143 N2137 0.985 . S
H2144 N2141 0.984 . S
H2145 N2141 0.985 1_655 S
H2146 N2140 0.984 . S
H2147 N2140 0.984 . S
H2148 N2136 0.984 . S
H2149 N2136 0.985 . S
C2150 C2151 1.363 . S
C2150 C2156 1.379 . S
C2150 N2158 1.356 . S
C2151 C2150 1.363 . S
C2151 C2157 1.363 . S
C2152 C2153 1.363 . S
C2152 C2157 1.379 . S
C2152 N2159 1.356 . S
C2153 C2152 1.363 . S
C2153 C2156 1.363 . S
N2154 C2156 1.356 . S
N2154 H2166 0.984 . S
N2154 H2167 0.985 . S
N2155 C2157 1.356 . S
N2155 H2160 0.984 . S
N2155 H2161 0.985 . S
C2156 C2150 1.379 . S
C2156 C2153 1.363 . S
C2156 N2154 1.356 . S
C2157 C2151 1.363 . S
C2157 C2152 1.379 . S
C2157 N2155 1.356 . S
N2158 C2150 1.356 . S
N2158 H2164 0.984 . S
N2158 H2165 0.984 . S
N2159 C2152 1.356 . S
N2159 H2162 0.984 . S
N2159 H2163 0.985 . S
H2160 N2155 0.984 . S
H2161 N2155 0.985 . S
H2162 N2159 0.984 . S
H2163 N2159 0.985 . S
H2164 N2158 0.984 . S
H2165 N2158 0.984 . S
H2166 N2154 0.984 . S
H2167 N2154 0.985 . S
C2168 C2169 1.363 . S
C2168 C2174 1.379 . S
C2168 N2176 1.356 . S
C2169 C2168 1.363 . S
C2169 C2175 1.363 . S
C2170 C2171 1.363 . S
C2170 C2175 1.379 . S
C2170 N2177 1.356 . S
C2171 C2170 1.363 . S
C2171 C2174 1.363 . S
N2172 C2174 1.356 . S
N2172 H2184 0.984 . S
N2172 H2185 0.985 . S
N2173 C2175 1.356 . S
N2173 H2178 0.984 . S
N2173 H2179 0.985 . S
C2174 C2168 1.379 . S
C2174 C2171 1.363 . S
C2174 N2172 1.356 . S
C2175 C2169 1.363 . S
C2175 C2170 1.379 . S
C2175 N2173 1.356 . S
N2176 C2168 1.356 . S
N2176 H2182 0.984 . S
N2176 H2183 0.984 . S
N2177 C2170 1.356 . S
N2177 H2180 0.984 . S
N2177 H2181 0.985 1_655 S
H2178 N2173 0.984 . S
H2179 N2173 0.985 . S
H2180 N2177 0.984 . S
H2181 N2177 0.985 1_455 S
H2182 N2176 0.984 . S
H2183 N2176 0.984 . S
H2184 N2172 0.984 . S
H2185 N2172 0.985 . S
C2186 C2187 1.363 . S
C2186 C2192 1.379 . S
C2186 N2194 1.356 . S
C2187 C2186 1.363 . S
C2187 C2193 1.363 . S
C2188 C2189 1.363 . S
C2188 C2193 1.379 . S
C2188 N2195 1.356 . S
C2189 C2188 1.363 . S
C2189 C2192 1.363 . S
N2190 C2192 1.356 . S
N2190 H2202 0.984 . S
N2190 H2203 0.985 . S
N2191 C2193 1.356 . S
N2191 H2196 0.984 . S
N2191 H2197 0.985 . S
C2192 C2186 1.379 . S
C2192 C2189 1.363 . S
C2192 N2190 1.356 . S
C2193 C2187 1.363 . S
C2193 C2188 1.379 . S
C2193 N2191 1.356 . S
N2194 C2186 1.356 . S
N2194 H2200 0.984 . S
N2194 H2201 0.984 . S
N2195 C2188 1.356 . S
N2195 H2198 0.984 . S
N2195 H2199 0.985 . S
H2196 N2191 0.984 . S
H2197 N2191 0.985 . S
H2198 N2195 0.984 . S
H2199 N2195 0.985 . S
H2200 N2194 0.984 . S
H2201 N2194 0.984 . S
H2202 N2190 0.984 . S
H2203 N2190 0.985 . S
C2204 C2205 1.363 . S
C2204 C2210 1.379 . S
C2204 N2212 1.356 . S
C2205 C2204 1.363 . S
C2205 C2211 1.363 . S
C2206 C2207 1.363 . S
C2206 C2211 1.379 . S
C2206 N2213 1.356 . S
C2207 C2206 1.363 . S
C2207 C2210 1.363 . S
N2208 C2210 1.356 . S
N2208 H2220 0.984 . S
N2208 H2221 0.985 . S
N2209 C2211 1.356 . S
N2209 H2214 0.984 . S
N2209 H2215 0.985 . S
C2210 C2204 1.379 . S
C2210 C2207 1.363 . S
C2210 N2208 1.356 . S
C2211 C2205 1.363 . S
C2211 C2206 1.379 . S
C2211 N2209 1.356 . S
N2212 C2204 1.356 . S
N2212 H2218 0.984 . S
N2212 H2219 0.984 . S
N2213 C2206 1.356 . S
N2213 H2216 0.984 . S
N2213 H2217 0.985 . S
H2214 N2209 0.984 . S
H2215 N2209 0.985 . S
H2216 N2213 0.984 . S
H2217 N2213 0.985 . S
H2218 N2212 0.984 . S
H2219 N2212 0.984 . S
H2220 N2208 0.984 . S
H2221 N2208 0.985 . S
C2222 C2223 1.363 . S
C2222 C2228 1.379 . S
C2222 N2230 1.356 . S
C2223 C2222 1.363 . S
C2223 C2229 1.363 . S
C2224 C2225 1.363 . S
C2224 C2229 1.379 . S
C2224 N2231 1.356 . S
C2225 C2224 1.363 . S
C2225 C2228 1.363 . S
N2226 C2228 1.356 . S
N2226 H2238 0.984 . S
N2226 H2239 0.985 . S
N2227 C2229 1.356 . S
N2227 H2232 0.984 . S
N2227 H2233 0.985 . S
C2228 C2222 1.379 . S
C2228 C2225 1.363 . S
C2228 N2226 1.356 . S
C2229 C2223 1.363 . S
C2229 C2224 1.379 . S
C2229 N2227 1.356 . S
N2230 C2222 1.356 . S
N2230 H2236 0.984 . S
N2230 H2237 0.984 . S
N2231 C2224 1.356 . S
N2231 H2234 0.984 . S
N2231 H2235 0.985 . S
H2232 N2227 0.984 . S
H2233 N2227 0.985 . S
H2234 N2231 0.984 . S
H2235 N2231 0.985 . S
H2236 N2230 0.984 . S
H2237 N2230 0.984 . S
H2238 N2226 0.984 . S
H2239 N2226 0.985 . S
C2240 C2241 1.363 . S
C2240 C2246 1.379 1_565 S
C2240 N2248 1.356 . S
C2241 C2240 1.363 . S
C2241 C2247 1.363 . S
C2242 C2243 1.363 . S
C2242 C2247 1.379 1_545 S
C2242 N2249 1.356 . S
C2243 C2242 1.363 . S
C2243 C2246 1.363 . S
N2244 C2246 1.356 . S
N2244 H2256 0.984 . S
N2244 H2257 0.985 . S
N2245 C2247 1.356 . S
N2245 H2250 0.984 . S
N2245 H2251 0.985 . S
C2246 C2240 1.379 1_545 S
C2246 C2243 1.363 . S
C2246 N2244 1.356 . S
C2247 C2241 1.363 . S
C2247 C2242 1.379 1_565 S
C2247 N2245 1.356 . S
N2248 C2240 1.356 . S
N2248 H2254 0.984 . S
N2248 H2255 0.984 . S
N2249 C2242 1.356 . S
N2249 H2252 0.984 . S
N2249 H2253 0.985 . S
H2250 N2245 0.984 . S
H2251 N2245 0.985 . S
H2252 N2249 0.984 . S
H2253 N2249 0.985 . S
H2254 N2248 0.984 . S
H2255 N2248 0.984 . S
H2256 N2244 0.984 . S
H2257 N2244 0.985 . S
C2258 C2259 1.363 . S
C2258 C2264 1.379 . S
C2258 N2266 1.356 . S
C2259 C2258 1.363 . S
C2259 C2265 1.363 . S
C2260 C2261 1.363 . S
C2260 C2265 1.379 . S
C2260 N2267 1.356 . S
C2261 C2260 1.363 . S
C2261 C2264 1.363 . S
N2262 C2264 1.356 . S
N2262 H2274 0.984 . S
N2262 H2275 0.985 . S
N2263 C2265 1.356 . S
N2263 H2268 0.984 . S
N2263 H2269 0.985 . S
C2264 C2258 1.379 . S
C2264 C2261 1.363 . S
C2264 N2262 1.356 . S
C2265 C2259 1.363 . S
C2265 C2260 1.379 . S
C2265 N2263 1.356 . S
N2266 C2258 1.356 . S
N2266 H2272 0.984 . S
N2266 H2273 0.984 . S
N2267 C2260 1.356 . S
N2267 H2270 0.984 . S
N2267 H2271 0.985 . S
H2268 N2263 0.984 . S
H2269 N2263 0.985 . S
H2270 N2267 0.984 . S
H2271 N2267 0.985 . S
H2272 N2266 0.984 . S
H2273 N2266 0.984 . S
H2274 N2262 0.984 . S
H2275 N2262 0.985 . S
C2276 C2277 1.363 . S
C2276 C2282 1.379 . S
C2276 N2284 1.356 . S
C2277 C2276 1.363 . S
C2277 C2283 1.363 . S
C2278 C2279 1.363 . S
C2278 C2283 1.379 . S
C2278 N2285 1.356 . S
C2279 C2278 1.363 . S
C2279 C2282 1.363 . S
N2280 C2282 1.356 . S
N2280 H2292 0.984 . S
N2280 H2293 0.985 . S
N2281 C2283 1.356 . S
N2281 H2286 0.984 . S
N2281 H2287 0.985 . S
C2282 C2276 1.379 . S
C2282 C2279 1.363 . S
C2282 N2280 1.356 . S
C2283 C2277 1.363 . S
C2283 C2278 1.379 . S
C2283 N2281 1.356 . S
N2284 C2276 1.356 . S
N2284 H2290 0.984 . S
N2284 H2291 0.984 . S
N2285 C2278 1.356 . S
N2285 H2288 0.984 . S
N2285 H2289 0.985 . S
H2286 N2281 0.984 . S
H2287 N2281 0.985 . S
H2288 N2285 0.984 . S
H2289 N2285 0.985 . S
H2290 N2284 0.984 . S
H2291 N2284 0.984 . S
H2292 N2280 0.984 . S
H2293 N2280 0.985 . S
C2294 C2295 1.363 . S
C2294 C2300 1.379 1_545 S
C2294 N2302 1.356 . S
C2295 C2294 1.363 . S
C2295 C2301 1.360 1_545 S
C2296 C2297 1.363 . S
C2296 C2301 1.384 . S
C2296 N2303 1.356 . S
C2297 C2296 1.363 . S
C2297 C2300 1.363 . S
N2298 C2300 1.356 . S
N2298 H2310 0.984 . S
N2298 H2311 0.985 . S
N2299 C2301 1.353 1_545 S
N2299 H2304 0.984 . S
N2299 H2305 0.985 . S
C2300 C2294 1.379 1_565 S
C2300 C2297 1.363 . S
C2300 N2298 1.356 . S
C2301 C2295 1.360 1_565 S
C2301 C2296 1.384 . S
C2301 N2299 1.353 1_565 S
N2302 C2294 1.356 . S
N2302 H2308 0.984 . S
N2302 H2309 0.984 . S
N2303 C2296 1.356 . S
N2303 H2306 0.984 . S
N2303 H2307 0.985 . S
H2304 N2299 0.984 . S
H2305 N2299 0.985 . S
H2306 N2303 0.984 . S
H2307 N2303 0.985 . S
H2308 N2302 0.984 . S
H2309 N2302 0.984 . S
H2310 N2298 0.984 . S
H2311 N2298 0.985 . S
C2312 C2313 1.363 . S
C2312 C2318 1.379 1_565 S
C2312 N2320 1.356 . S
C2313 C2312 1.363 . S
C2313 C2319 1.385 . S
C2314 C2315 1.363 . S
C2314 C2319 1.343 1_545 S
C2314 N2321 1.356 . S
C2315 C2314 1.363 . S
C2315 C2318 1.363 . S
N2316 C2318 1.356 . S
N2316 H2328 0.984 . S
N2316 H2329 0.985 . S
N2317 C2319 1.381 . S
N2317 H2322 0.984 . S
N2317 H2323 0.985 . S
C2318 C2312 1.379 1_545 S
C2318 C2315 1.363 . S
C2318 N2316 1.356 . S
C2319 C2313 1.385 . S
C2319 C2314 1.343 1_565 S
C2319 N2317 1.381 . S
N2320 C2312 1.356 . S
N2320 H2326 0.984 . S
N2320 H2327 0.984 . S
N2321 C2314 1.356 . S
N2321 H2324 0.984 . S
N2321 H2325 0.985 . S
H2322 N2317 0.984 . S
H2323 N2317 0.985 . S
H2324 N2321 0.984 . S
H2325 N2321 0.985 . S
H2326 N2320 0.984 . S
H2327 N2320 0.984 . S
H2328 N2316 0.984 . S
H2329 N2316 0.985 . S
C2330 C2331 1.363 . S
C2330 C2336 1.379 . S
C2330 N2338 1.356 . S
C2331 C2330 1.363 . S
C2331 C2337 1.363 . S
C2332 C2333 1.363 . S
C2332 C2337 1.379 . S
C2332 N2339 1.356 . S
C2333 C2332 1.363 . S
C2333 C2336 1.363 . S
N2334 C2336 1.356 . S
N2334 H2346 0.984 . S
N2334 H2347 0.985 . S
N2335 C2337 1.356 . S
N2335 H2340 0.984 . S
N2335 H2341 0.985 . S
C2336 C2330 1.379 . S
C2336 C2333 1.363 . S
C2336 N2334 1.356 . S
C2337 C2331 1.363 . S
C2337 C2332 1.379 . S
C2337 N2335 1.356 . S
N2338 C2330 1.356 . S
N2338 H2344 0.984 . S
N2338 H2345 0.984 . S
N2339 C2332 1.356 . S
N2339 H2342 0.984 . S
N2339 H2343 0.985 . S
H2340 N2335 0.984 . S
H2341 N2335 0.985 . S
H2342 N2339 0.984 . S
H2343 N2339 0.985 . S
H2344 N2338 0.984 . S
H2345 N2338 0.984 . S
H2346 N2334 0.984 . S
H2347 N2334 0.985 . S
C2348 C2349 1.363 . S
C2348 C2354 1.379 . S
C2348 N2356 1.356 . S
C2349 C2348 1.363 . S
C2349 C2355 1.363 . S
C2350 C2351 1.363 . S
C2350 C2355 1.379 . S
C2350 N2357 1.356 . S
C2351 C2350 1.363 . S
C2351 C2354 1.363 . S
N2352 C2354 1.356 . S
N2352 H2364 0.984 . S
N2352 H2365 0.985 . S
N2353 C2355 1.356 . S
N2353 H2358 0.984 . S
N2353 H2359 0.985 . S
C2354 C2348 1.379 . S
C2354 C2351 1.363 . S
C2354 N2352 1.356 . S
C2355 C2349 1.363 . S
C2355 C2350 1.379 . S
C2355 N2353 1.356 . S
N2356 C2348 1.356 . S
N2356 H2362 0.984 . S
N2356 H2363 0.984 . S
N2357 C2350 1.356 . S
N2357 H2360 0.984 . S
N2357 H2361 0.985 . S
H2358 N2353 0.984 . S
H2359 N2353 0.985 . S
H2360 N2357 0.984 . S
H2361 N2357 0.985 . S
H2362 N2356 0.984 . S
H2363 N2356 0.984 . S
H2364 N2352 0.984 . S
H2365 N2352 0.985 . S
C2366 C2367 1.363 . S
C2366 C2372 1.379 . S
C2366 N2374 1.356 . S
C2367 C2366 1.363 . S
C2367 C2373 1.363 . S
C2368 C2369 1.363 . S
C2368 C2373 1.379 1_565 S
C2368 N2375 1.356 . S
C2369 C2368 1.363 . S
C2369 C2372 1.363 1_565 S
N2370 C2372 1.356 1_565 S
N2370 H2382 0.984 . S
N2370 H2383 0.985 . S
N2371 C2373 1.356 . S
N2371 H2376 0.984 . S
N2371 H2377 0.985 . S
C2372 C2366 1.379 . S
C2372 C2369 1.363 1_545 S
C2372 N2370 1.356 1_545 S
C2373 C2367 1.363 . S
C2373 C2368 1.379 1_545 S
C2373 N2371 1.356 . S
N2374 C2366 1.356 . S
N2374 H2380 0.984 . S
N2374 H2381 0.984 . S
N2375 C2368 1.356 . S
N2375 H2378 0.984 . S
N2375 H2379 0.985 . S
H2376 N2371 0.984 . S
H2377 N2371 0.985 . S
H2378 N2375 0.984 . S
H2379 N2375 0.985 . S
H2380 N2374 0.984 . S
H2381 N2374 0.984 . S
H2382 N2370 0.984 . S
H2383 N2370 0.985 . S
C2384 C2385 1.363 . S
C2384 C2390 1.379 . S
C2384 N2392 1.356 . S
C2385 C2384 1.363 . S
C2385 C2391 1.363 1_556 S
C2386 C2387 1.363 1_554 S
C2386 C2391 1.379 . S
C2386 N2393 1.356 . S
C2387 C2386 1.363 1_556 S
C2387 C2390 1.363 . S
N2388 C2390 1.356 . S
N2388 H2400 0.984 . S
N2388 H2401 0.985 . S
N2389 C2391 1.356 . S
N2389 H2394 0.984 . S
N2389 H2395 0.985 . S
C2390 C2384 1.379 . S
C2390 C2387 1.363 . S
C2390 N2388 1.356 . S
C2391 C2385 1.363 1_554 S
C2391 C2386 1.379 . S
C2391 N2389 1.356 . S
N2392 C2384 1.356 . S
N2392 H2398 0.984 . S
N2392 H2399 0.984 . S
N2393 C2386 1.356 . S
N2393 H2396 0.984 . S
N2393 H2397 0.985 . S
H2394 N2389 0.984 . S
H2395 N2389 0.985 . S
H2396 N2393 0.984 . S
H2397 N2393 0.985 . S
H2398 N2392 0.984 . S
H2399 N2392 0.984 . S
H2400 N2388 0.984 . S
H2401 N2388 0.985 . S
C2402 C2403 1.363 1_554 S
C2402 C2408 1.379 . S
C2402 N2410 1.356 . S
C2403 C2402 1.363 1_556 S
C2403 C2409 1.363 . S
C2404 C2405 1.363 . S
C2404 C2409 1.379 . S
C2404 N2411 1.356 . S
C2405 C2404 1.363 . S
C2405 C2408 1.363 1_556 S
N2406 C2408 1.356 . S
N2406 H2418 0.984 . S
N2406 H2419 0.985 . S
N2407 C2409 1.356 . S
N2407 H2412 0.984 . S
N2407 H2413 0.985 . S
C2408 C2402 1.379 . S
C2408 C2405 1.363 1_554 S
C2408 N2406 1.356 . S
C2409 C2403 1.363 . S
C2409 C2404 1.379 . S
C2409 N2407 1.356 . S
N2410 C2402 1.356 . S
N2410 H2416 0.984 . S
N2410 H2417 0.984 . S
N2411 C2404 1.356 . S
N2411 H2414 0.984 . S
N2411 H2415 0.985 . S
H2412 N2407 0.984 . S
H2413 N2407 0.985 . S
H2414 N2411 0.984 . S
H2415 N2411 0.985 . S
H2416 N2410 0.984 . S
H2417 N2410 0.984 . S
H2418 N2406 0.984 . S
H2419 N2406 0.985 . S
C2420 C2421 1.363 . S
C2420 C2426 1.379 . S
C2420 N2428 1.356 . S
C2421 C2420 1.363 . S
C2421 C2427 1.363 . S
C2422 C2423 1.363 . S
C2422 C2427 1.379 . S
C2422 N2429 1.356 . S
C2423 C2422 1.363 . S
C2423 C2426 1.363 . S
N2424 C2426 1.356 . S
N2424 H2436 0.984 . S
N2424 H2437 0.985 . S
N2425 C2427 1.356 . S
N2425 H2430 0.984 . S
N2425 H2431 0.985 . S
C2426 C2420 1.379 . S
C2426 C2423 1.363 . S
C2426 N2424 1.356 . S
C2427 C2421 1.363 . S
C2427 C2422 1.379 . S
C2427 N2425 1.356 . S
N2428 C2420 1.356 . S
N2428 H2434 0.984 . S
N2428 H2435 0.984 . S
N2429 C2422 1.356 . S
N2429 H2432 0.984 . S
N2429 H2433 0.985 . S
H2430 N2425 0.984 . S
H2431 N2425 0.985 . S
H2432 N2429 0.984 . S
H2433 N2429 0.985 . S
H2434 N2428 0.984 . S
H2435 N2428 0.984 . S
H2436 N2424 0.984 . S
H2437 N2424 0.985 . S
C2438 C2439 1.363 . S
C2438 C2444 1.379 . S
C2438 N2446 1.356 . S
C2439 C2438 1.363 . S
C2439 C2445 1.363 . S
C2440 C2441 1.363 . S
C2440 C2445 1.379 . S
C2440 N2447 1.356 . S
C2441 C2440 1.363 . S
C2441 C2444 1.363 . S
N2442 C2444 1.356 . S
N2442 H2454 0.984 . S
N2442 H2455 0.985 . S
N2443 C2445 1.356 . S
N2443 H2448 0.984 . S
N2443 H2449 0.985 . S
C2444 C2438 1.379 . S
C2444 C2441 1.363 . S
C2444 N2442 1.356 . S
C2445 C2439 1.363 . S
C2445 C2440 1.379 . S
C2445 N2443 1.356 . S
N2446 C2438 1.356 . S
N2446 H2452 0.984 . S
N2446 H2453 0.984 . S
N2447 C2440 1.356 . S
N2447 H2450 0.984 . S
N2447 H2451 0.985 . S
H2448 N2443 0.984 . S
H2449 N2443 0.985 . S
H2450 N2447 0.984 . S
H2451 N2447 0.985 . S
H2452 N2446 0.984 . S
H2453 N2446 0.984 . S
H2454 N2442 0.984 . S
H2455 N2442 0.985 . S
C2456 C2457 1.363 . S
C2456 C2462 1.379 . S
C2456 N2464 1.356 . S
C2457 C2456 1.363 . S
C2457 C2463 1.363 1_554 S
C2458 C2459 1.363 1_556 S
C2458 C2463 1.379 . S
C2458 N2465 1.356 . S
C2459 C2458 1.363 1_554 S
C2459 C2462 1.363 . S
N2460 C2462 1.356 . S
N2460 H2472 0.984 . S
N2460 H2473 0.985 . S
N2461 C2463 1.356 . S
N2461 H2466 0.984 . S
N2461 H2467 0.985 . S
C2462 C2456 1.379 . S
C2462 C2459 1.363 . S
C2462 N2460 1.356 . S
C2463 C2457 1.363 1_556 S
C2463 C2458 1.379 . S
C2463 N2461 1.356 . S
N2464 C2456 1.356 . S
N2464 H2470 0.984 . S
N2464 H2471 0.984 . S
N2465 C2458 1.356 . S
N2465 H2468 0.984 . S
N2465 H2469 0.985 . S
H2466 N2461 0.984 . S
H2467 N2461 0.985 . S
H2468 N2465 0.984 . S
H2469 N2465 0.985 . S
H2470 N2464 0.984 . S
H2471 N2464 0.984 . S
H2472 N2460 0.984 . S
H2473 N2460 0.985 . S
C2474 C2475 1.362 . S
C2474 C2480 1.379 1_554 S
C2474 N2482 1.357 1_554 S
C2475 C2474 1.362 . S
C2475 C2481 1.363 . S
C2476 C2477 1.363 . S
C2476 C2481 1.379 . S
C2476 N2483 1.356 . S
C2477 C2476 1.363 . S
C2477 C2480 1.363 1_554 S
N2478 C2480 1.356 . S
N2478 H2490 0.984 . S
N2478 H2491 0.985 . S
N2479 C2481 1.356 . S
N2479 H2484 0.984 . S
N2479 H2485 0.985 . S
C2480 C2474 1.379 1_556 S
C2480 C2477 1.363 1_556 S
C2480 N2478 1.356 . S
C2481 C2475 1.363 . S
C2481 C2476 1.379 . S
C2481 N2479 1.356 . S
N2482 C2474 1.357 1_556 S
N2482 H2488 0.984 . S
N2482 H2489 0.984 . S
N2483 C2476 1.356 . S
N2483 H2486 0.984 . S
N2483 H2487 0.985 . S
H2484 N2479 0.984 . S
H2485 N2479 0.985 . S
H2486 N2483 0.984 . S
H2487 N2483 0.985 . S
H2488 N2482 0.984 . S
H2489 N2482 0.984 . S
H2490 N2478 0.984 . S
H2491 N2478 0.985 . S
C2492 C2493 1.363 . S
C2492 C2498 1.379 . S
C2492 N2500 1.356 . S
C2493 C2492 1.363 . S
C2493 C2499 1.363 . S
C2494 C2495 1.363 . S
C2494 C2499 1.379 . S
C2494 N2501 1.356 . S
C2495 C2494 1.363 . S
C2495 C2498 1.363 . S
N2496 C2498 1.356 . S
N2496 H2508 0.984 . S
N2496 H2509 0.985 . S
N2497 C2499 1.356 . S
N2497 H2502 0.984 . S
N2497 H2503 0.985 . S
C2498 C2492 1.379 . S
C2498 C2495 1.363 . S
C2498 N2496 1.356 . S
C2499 C2493 1.363 . S
C2499 C2494 1.379 . S
C2499 N2497 1.356 . S
N2500 C2492 1.356 . S
N2500 H2506 0.984 . S
N2500 H2507 0.984 . S
N2501 C2494 1.356 . S
N2501 H2504 0.984 . S
N2501 H2505 0.985 . S
H2502 N2497 0.984 . S
H2503 N2497 0.985 . S
H2504 N2501 0.984 . S
H2505 N2501 0.985 . S
H2506 N2500 0.984 . S
H2507 N2500 0.984 . S
H2508 N2496 0.984 . S
H2509 N2496 0.985 . S
C2510 C2511 1.363 . S
C2510 C2516 1.379 . S
C2510 N2518 1.356 . S
C2511 C2510 1.363 . S
C2511 C2517 1.363 . S
C2512 C2513 1.363 . S
C2512 C2517 1.379 . S
C2512 N2519 1.356 . S
C2513 C2512 1.363 . S
C2513 C2516 1.363 . S
N2514 C2516 1.356 . S
N2514 H2526 0.984 . S
N2514 H2527 0.985 . S
N2515 C2517 1.356 . S
N2515 H2520 0.984 . S
N2515 H2521 0.985 . S
C2516 C2510 1.379 . S
C2516 C2513 1.363 . S
C2516 N2514 1.356 . S
C2517 C2511 1.363 . S
C2517 C2512 1.379 . S
C2517 N2515 1.356 . S
N2518 C2510 1.356 . S
N2518 H2524 0.984 . S
N2518 H2525 0.984 . S
N2519 C2512 1.356 . S
N2519 H2522 0.984 . S
N2519 H2523 0.985 . S
H2520 N2515 0.984 . S
H2521 N2515 0.985 . S
H2522 N2519 0.984 . S
H2523 N2519 0.985 . S
H2524 N2518 0.984 . S
H2525 N2518 0.984 . S
H2526 N2514 0.984 . S
H2527 N2514 0.985 . S
C1089 C20 1.403 . S
C1091 C156 1.403 . S
C1107 C1006 1.403 . S
C1109 C54 1.403 . S
C1125 C496 1.403 . S
C1127 C88 1.403 . S
C1143 C122 1.403 . S
C1145 C802 1.403 . S
C1161 C870 1.403 . S
C1163 C190 1.403 . S
C1179 C224 1.403 . S
C1181 C360 1.403 . S
C1197 C666 1.403 . S
C1199 C258 1.403 . S
C1215 C428 1.403 . S
C1217 C292 1.403 . S
C1233 C326 1.403 . S
C1235 C734 1.403 . S
C1251 C394 1.403 . S
C1253 C1074 1.403 . S
C1269 C462 1.403 . S
C1271 C598 1.403 . S
C1287 C938 1.403 . S
C1289 C530 1.403 . S
C1305 C700 1.403 . S
C1307 C564 1.403 . S
C1323 C1040 1.403 . S
C1325 C632 1.403 . S
C1341 C768 1.403 . S
C1343 C904 1.403 . S
C1359 C972 1.403 . S
C1361 C836 1.403 . S
C1377 C33 1.505 . S
C1379 C101 1.505 . S
C1395 C67 1.505 . S
C1397 C135 1.505 . S
C1413 C237 1.505 . S
C1415 C169 1.505 . S
C1431 C271 1.505 . S
C1433 C203 1.505 . S
C1449 C373 1.505 . S
C1451 C305 1.505 . S
C1467 C339 1.505 . S
C1469 C407 1.505 . S
C1485 C441 1.505 . S
C1487 C509 1.505 . S
C1503 C475 1.505 . S
C1505 C543 1.505 . S
C1521 C645 1.505 . S
C1523 C577 1.505 . S
C1539 C611 1.505 . S
C1541 C679 1.505 . S
C1557 C713 1.505 . S
C1559 C781 1.505 . S
C1575 C747 1.505 . S
C1577 C815 1.505 . S
C1593 C849 1.505 . S
C1595 C917 1.505 . S
C1611 C951 1.505 . S
C1613 C883 1.505 . S
C1629 C985 1.505 . S
C1631 C1053 1.505 . S
C1647 C1087 1.505 . S
C1649 C1019 1.505 . S
C1665 C5 1.060 . S
C1667 C39 1.060 . S
C1683 C107 1.060 . S
C1685 C73 1.060 . S
C1701 C175 1.060 . S
C1703 C141 1.060 . S
C1719 C209 1.060 . S
C1721 C243 1.060 . S
C1737 C277 1.060 . S
C1739 C311 1.060 . S
C1755 C345 1.060 . S
C1757 C379 1.060 . S
C1773 C447 1.060 . S
C1775 C413 1.060 . S
C1791 C515 1.060 . S
C1793 C481 1.060 . S
C1809 C583 1.060 . S
C1811 C549 1.060 . S
C1827 C617 1.060 . S
C1829 C651 1.060 . S
C1845 C719 1.060 . S
C1847 C685 1.060 . S
C1863 C753 1.060 . S
C1865 C787 1.060 . S
C1881 C821 1.060 . S
C1883 C855 1.060 . S
C1899 C923 1.060 . S
C1901 C889 1.060 . S
C1917 C957 1.060 . S
C1919 C991 1.060 . S
C1935 C1025 1.060 . S
C1937 C1059 1.060 . S
C1953 C9 1.788 1_556 S
C1955 C172 2.077 . S
C1971 C954 2.077 . S
C1973 C43 1.788 1_556 S
C1989 C512 2.077 . S
C1991 C77 1.788 . S
C2007 C111 1.788 . S
C2009 C750 2.077 . S
C2025 C36 2.077 . S
C2027 C145 1.788 1_554 S
C2043 C179 1.788 1_554 S
C2045 C818 2.077 . S
C2061 C213 1.788 . S
C2063 C376 2.077 . S
C2079 C614 2.077 . S
C2081 C247 1.788 . S
C2097 C281 1.788 . S
C2099 C444 2.077 . S
C2115 C315 1.788 . S
C2117 C682 2.077 . S
C2133 C349 1.788 . S
C2135 C240 2.077 . S
C2151 C1022 2.077 . S
C2153 C383 1.788 . S
C2169 C417 1.788 . S
C2171 C308 2.077 . S
C2187 C451 1.788 . S
C2189 C546 2.077 . S
C2205 C485 1.788 . S
C2207 C104 2.077 . S
C2223 C886 2.077 . S
C2225 C519 1.788 . S
C2241 C716 2.077 . S
C2243 C553 1.788 . S
C2259 C587 1.788 . S
C2261 C410 2.077 . S
C2277 C621 1.788 . S
C2279 C1056 2.077 . S
C2295 C655 1.788 . S
C2297 C206 2.077 . S
C2313 C689 1.788 . S
C2315 C580 2.077 . S
C2331 C723 1.788 . S
C2333 C274 2.077 . S
C2349 C920 2.077 . S
C2351 C757 1.788 . S
C2367 C70 2.077 . S
C2369 C791 1.788 . S
C2385 C825 1.788 1_556 S
C2387 C988 2.077 . S
C2403 C859 1.788 1_556 S
C2405 C138 2.077 . S
C2421 C893 1.788 . S
C2423 C784 2.077 . S
C2439 C478 2.077 . S
C2441 C927 1.788 . S
C2457 C961 1.788 1_554 S
C2459 C852 2.077 . S
C2475 C2 2.077 . S
C2477 C995 1.788 1_554 S
C2493 C648 2.077 . S
C2495 C1029 1.788 . S
C2511 C342 2.077 . S
C2513 C1063 1.788 . S
