# Generated by pormake.
# Topology wnr, (7)-cn, num edge types: 1
# Building blocks:
#     Node 0, Type 0, BuildingBlock: HICVOG_clean_sbu_0, # of connection points: 7
#     Node 1, Type 0, BuildingBlock: HICVOG_clean_sbu_0, # of connection points: 7
#     Node 2, Type 0, BuildingBlock: HICVOG_clean_sbu_0, # of connection points: 7
#     Node 3, Type 0, BuildingBlock: HICVOG_clean_sbu_0, # of connection points: 7
#     Node 4, Type 0, BuildingBlock: HICVOG_clean_sbu_0, # of connection points: 7
#     Node 5, Type 0, BuildingBlock: HICVOG_clean_sbu_0, # of connection points: 7
#     Edge 6, Type (0, 0), BuildingBlock: CIFDUS_clean_linker_0, # of connection points: 2
#     Edge 7, Type (0, 0), BuildingBlock: CIFDUS_clean_linker_0, # of connection points: 2
#     Edge 8, Type (0, 0), BuildingBlock: CIFDUS_clean_linker_0, # of connection points: 2
#     Edge 9, Type (0, 0), BuildingBlock: CIFDUS_clean_linker_0, # of connection points: 2
#     Edge 10, Type (0, 0), BuildingBlock: CIFDUS_clean_linker_0, # of connection points: 2
#     Edge 11, Type (0, 0), BuildingBlock: CIFDUS_clean_linker_0, # of connection points: 2
#     Edge 12, Type (0, 0), BuildingBlock: CIFDUS_clean_linker_0, # of connection points: 2
#     Edge 13, Type (0, 0), BuildingBlock: CIFDUS_clean_linker_0, # of connection points: 2
#     Edge 14, Type (0, 0), BuildingBlock: CIFDUS_clean_linker_0, # of connection points: 2
#     Edge 15, Type (0, 0), BuildingBlock: CIFDUS_clean_linker_0, # of connection points: 2
#     Edge 16, Type (0, 0), BuildingBlock: CIFDUS_clean_linker_0, # of connection points: 2
#     Edge 17, Type (0, 0), BuildingBlock: CIFDUS_clean_linker_0, # of connection points: 2
#     Edge 18, Type (0, 0), BuildingBlock: CIFDUS_clean_linker_0, # of connection points: 2
#     Edge 19, Type (0, 0), BuildingBlock: CIFDUS_clean_linker_0, # of connection points: 2
#     Edge 20, Type (0, 0), BuildingBlock: CIFDUS_clean_linker_0, # of connection points: 2
#     Edge 21, Type (0, 0), BuildingBlock: CIFDUS_clean_linker_0, # of connection points: 2
#     Edge 22, Type (0, 0), BuildingBlock: CIFDUS_clean_linker_0, # of connection points: 2
#     Edge 23, Type (0, 0), BuildingBlock: CIFDUS_clean_linker_0, # of connection points: 2
#     Edge 24, Type (0, 0), BuildingBlock: CIFDUS_clean_linker_0, # of connection points: 2
#     Edge 25, Type (0, 0), BuildingBlock: CIFDUS_clean_linker_0, # of connection points: 2
#     Edge 26, Type (0, 0), BuildingBlock: CIFDUS_clean_linker_0, # of connection points: 2
# Relax obj value: 0.161
# Max RMSD: 0.228
# Mean RMSD: 0.228
data_MOF--net-wnr--node1-HICVOG_clean_sbu_0--edge1-CIFDUS_clean_linker_0
_symmetry_space_group_name_H-M    P1
_symmetry_Int_Tables_number       1
_symmetry_cell_setting            triclinic
loop_
_symmetry_equiv_pos_as_xyz
'x, y, z'
_cell_length_a     38.277033
_cell_length_b     38.327149
_cell_length_c     15.966949
_cell_angle_alpha  90.137136
_cell_angle_beta   90.017883
_cell_angle_gamma 119.89355
loop_
_atom_site_label
_atom_site_type_symbol
_atom_site_fract_x
_atom_site_fract_y
_atom_site_fract_z
_atom_type_partial_charge
Zn0 Zn 0.16523 0.40937 0.98723 0.0
C1 C 0.08963 0.41896 0.14469 0.0
N2 N 0.06253 0.39854 0.08454 0.0
C3 C 0.08564 0.39806 0.02239 0.0
N4 N 0.12498 0.41694 0.04287 0.0
N5 N 0.12765 0.43054 0.12009 0.0
C6 C 0.18548 0.44979 0.32933 0.0
O7 O 0.19876 0.43106 0.28113 0.0
O8 O 0.16123 0.41171 0.86134 0.0
Zn9 Zn 0.17431 0.47699 0.16932 0.0
N10 N 0.15898 0.3581 0.02118 0.0
C11 C 0.12838 0.30002 0.10791 0.0
C12 C 0.12986 0.33472 0.077 0.0
C13 C 0.18662 0.34807 0.99467 0.0
N14 N 0.15611 0.29011 0.0819 0.0
C15 C 0.18529 0.31308 0.02563 0.0
O16 O 0.22967 0.48975 0.12726 0.0
C17 C 0.24385 0.4777 0.06906 0.0
O18 O 0.22135 0.44975 0.01878 0.0
H19 H 0.10851 0.34333 0.09886 0.0
H20 H 0.21008 0.36793 0.95201 0.0
C21 C 0.17638 0.55345 0.19158 0.0
C22 C 0.17032 0.58493 0.16383 0.0
C23 C 0.14804 0.55195 0.03222 0.0
C24 C 0.15449 0.52125 0.0596 0.0
N25 N 0.16819 0.52236 0.13865 0.0
N26 N 0.15609 0.58291 0.08468 0.0
H27 H 0.18694 0.55322 0.25431 0.0
C28 C 0.16959 0.44521 0.82865 0.0
O29 O 0.17907 0.47623 0.87782 0.0
O30 O 0.17332 0.47186 0.29552 0.0
H31 H 0.14844 0.49652 0.01822 0.0
H32 H 0.1056 0.28127 0.15286 0.0
H33 H 0.13689 0.55134 0.96966 0.0
Zn34 Zn 0.64547 0.76975 0.6693 0.0
C35 C 0.62769 0.67598 0.8177 0.0
N36 N 0.65494 0.67522 0.76693 0.0
C37 C 0.6625 0.70365 0.71033 0.0
N38 N 0.64064 0.72211 0.7257 0.0
N39 N 0.6186 0.70465 0.79383 0.0
C40 C 0.61529 0.75499 0.99406 0.0
O41 O 0.64943 0.76299 0.95844 0.0
O42 O 0.65402 0.76939 0.54336 0.0
Zn43 Zn 0.57304 0.70978 0.83777 0.0
N44 N 0.68985 0.81706 0.71945 0.0
C45 C 0.74064 0.84755 0.82397 0.0
C46 C 0.71034 0.81318 0.78492 0.0
C47 C 0.69848 0.85394 0.69117 0.0
N48 N 0.74941 0.8844 0.79563 0.0
C49 C 0.72934 0.88882 0.72974 0.0
O50 O 0.55175 0.73926 0.76877 0.0
C51 C 0.56371 0.76544 0.71116 0.0
O52 O 0.59753 0.77775 0.67594 0.0
H53 H 0.70288 0.78369 0.80737 0.0
H54 H 0.68076 0.85573 0.64034 0.0
C55 C 0.49771 0.64335 0.89937 0.0
C56 C 0.46551 0.60333 0.89746 0.0
C57 C 0.49686 0.58955 0.78356 0.0
C58 C 0.52792 0.62927 0.78429 0.0
N59 N 0.52819 0.65522 0.84283 0.0
N60 N 0.46649 0.57764 0.83958 0.0
H61 H 0.49872 0.66487 0.94464 0.0
C62 C 0.62423 0.75642 0.49331 0.0
O63 O 0.58769 0.74103 0.52411 0.0
O64 O 0.58251 0.73546 0.95333 0.0
H65 H 0.55163 0.6394 0.73818 0.0
H66 H 0.75707 0.84498 0.87651 0.0
H67 H 0.49647 0.56843 0.73797 0.0
Zn68 Zn 0.34062 0.86774 0.49232 0.0
C69 C 0.35318 0.95312 0.33699 0.0
N70 N 0.38168 0.97506 0.39313 0.0
C71 C 0.37227 0.95103 0.45978 0.0
N72 N 0.34045 0.91426 0.44287 0.0
N73 N 0.32758 0.91586 0.36638 0.0
C74 C 0.30287 0.8622 0.15069 0.0
O75 O 0.31657 0.84303 0.19605 0.0
O76 O 0.33466 0.8682 0.61814 0.0
Zn77 Zn 0.27872 0.87437 0.31334 0.0
N78 N 0.3926 0.87334 0.46235 0.0
C79 C 0.44066 0.8919 0.35266 0.0
C80 C 0.40447 0.88692 0.38306 0.0
C81 C 0.41533 0.86343 0.51229 0.0
N82 N 0.46329 0.88218 0.40205 0.0
C83 C 0.45179 0.86771 0.48111 0.0
O84 O 0.26581 0.81853 0.34119 0.0
C85 C 0.27331 0.79709 0.3903 0.0
O86 O 0.29961 0.81263 0.44805 0.0
H87 H 0.38575 0.89365 0.34334 0.0
H88 H 0.40533 0.85266 0.57509 0.0
C89 C 0.19492 0.85242 0.31898 0.0
C90 C 0.16112 0.85368 0.35038 0.0
C91 C 0.20451 0.90772 0.43995 0.0
C92 C 0.23776 0.90628 0.40873 0.0
N93 N 0.23238 0.87865 0.34914 0.0
N94 N 0.16714 0.88142 0.41048 0.0
H95 H 0.19155 0.83019 0.27292 0.0
C96 C 0.33008 0.83838 0.66126 0.0
O97 O 0.32883 0.80744 0.62273 0.0
O98 O 0.28504 0.87853 0.18697 0.0
H99 H 0.26759 0.92665 0.4327 0.0
H100 H 0.45054 0.90299 0.28989 0.0
H101 H 0.2083 0.92939 0.48774 0.0
Zn102 Zn 0.4689 0.1721 0.80838 0.0
C103 C 0.38088 0.09623 0.96277 0.0
N104 N 0.3732 0.06981 0.90058 0.0
C105 C 0.39656 0.09323 0.83851 0.0
N106 N 0.41838 0.1323 0.86115 0.0
N107 N 0.40761 0.13417 0.93897 0.0
C108 C 0.43873 0.18426 0.15142 0.0
O109 O 0.47085 0.19468 0.10525 0.0
O110 O 0.4608 0.1742 0.68332 0.0
Zn111 Zn 0.40873 0.18087 0.98801 0.0
N112 N 0.50723 0.15335 0.82565 0.0
C113 C 0.52243 0.10703 0.89254 0.0
C114 C 0.49568 0.12065 0.87555 0.0
C115 C 0.54519 0.17352 0.79298 0.0
N116 N 0.56026 0.12738 0.86125 0.0
C117 C 0.57277 0.16049 0.81214 0.0
O118 O 0.45896 0.23242 0.96126 0.0
C119 C 0.48969 0.24901 0.91395 0.0
O120 O 0.49587 0.22944 0.85673 0.0
H121 H 0.46622 0.10547 0.90365 0.0
H122 H 0.55413 0.20019 0.75566 0.0
C123 C 0.34768 0.2056 0.97758 0.0
C124 C 0.31759 0.2097 0.93507 0.0
C125 C 0.32096 0.17113 0.82212 0.0
C126 C 0.35074 0.16737 0.8639 0.0
N127 N 0.36375 0.18466 0.94055 0.0
N128 N 0.30528 0.19226 0.85832 0.0
H129 H 0.35902 0.21977 0.03782 0.0
C130 C 0.43739 0.18552 0.65263 0.0
O131 O 0.41774 0.19661 0.70359 0.0
O132 O 0.40589 0.17628 0.11528 0.0
H133 H 0.36381 0.1513 0.83425 0.0
H134 H 0.51354 0.08101 0.93193 0.0
H135 H 0.31062 0.15771 0.76092 0.0
Zn136 Zn 0.86062 0.24404 0.679 0.0
C137 C 0.94541 0.31191 0.51915 0.0
N138 N 0.96698 0.30471 0.57534 0.0
C139 C 0.94275 0.28996 0.64131 0.0
N140 N 0.90675 0.28675 0.62511 0.0
N141 N 0.90803 0.30092 0.54852 0.0
C142 C 0.85729 0.26825 0.34046 0.0
O143 O 0.84922 0.2379 0.39014 0.0
O144 O 0.86746 0.24728 0.80551 0.0
Zn145 Zn 0.86631 0.31067 0.49881 0.0
N146 N 0.85347 0.19377 0.63226 0.0
C147 C 0.86381 0.1627 0.51281 0.0
C148 C 0.86886 0.19681 0.55409 0.0
C149 C 0.83295 0.15736 0.67116 0.0
N150 N 0.84328 0.12654 0.55099 0.0
C151 C 0.82751 0.12251 0.62913 0.0
O152 O 0.80877 0.2793 0.54659 0.0
C153 C 0.792 0.25723 0.61029 0.0
O154 O 0.81079 0.24561 0.65758 0.0
H155 H 0.88459 0.22544 0.52304 0.0
H156 H 0.8203 0.15557 0.73263 0.0
C157 C 0.87278 0.38907 0.4729 0.0
C158 C 0.88636 0.42959 0.49424 0.0
C159 C 0.91956 0.42248 0.61352 0.0
C160 C 0.90587 0.38253 0.59246 0.0
N161 N 0.88306 0.36664 0.52252 0.0
N162 N 0.90955 0.4449 0.56422 0.0
H163 H 0.85491 0.37555 0.41727 0.0
C164 C 0.87585 0.2805 0.84028 0.0
O165 O 0.88123 0.3107 0.79263 0.0
O166 O 0.86403 0.30146 0.37251 0.0
H167 H 0.91345 0.36431 0.63162 0.0
H168 H 0.87585 0.16484 0.45053 0.0
H169 H 0.93793 0.43562 0.66876 0.0
Zn170 Zn 0.73405 0.56383 0.15788 0.0
C171 C 0.74307 0.65556 0.3028 0.0
N172 N 0.71328 0.65246 0.25383 0.0
C173 C 0.70959 0.6257 0.19503 0.0
N174 N 0.73634 0.61253 0.20737 0.0
N175 N 0.75774 0.63216 0.2745 0.0
C176 C 0.8007 0.61821 0.49641 0.0
O177 O 0.78855 0.58205 0.46629 0.0
O178 O 0.75271 0.57085 0.03577 0.0
Zn179 Zn 0.80693 0.63579 0.31989 0.0
N180 N 0.67812 0.52097 0.16986 0.0
C181 C 0.6212 0.49603 0.25973 0.0
C182 C 0.66124 0.52356 0.24279 0.0
C183 C 0.65664 0.4908 0.1135 0.0
N184 N 0.59962 0.46647 0.20356 0.0
C185 C 0.61592 0.46261 0.1307 0.0
O186 O 0.81019 0.58571 0.30687 0.0
C187 C 0.794 0.55171 0.27058 0.0
O188 O 0.76559 0.54143 0.21784 0.0
H189 H 0.67885 0.54712 0.28748 0.0
H190 H 0.67078 0.48933 0.05596 0.0
C191 C 0.89124 0.6956 0.29842 0.0
C192 C 0.92475 0.72461 0.25292 0.0
C193 C 0.88095 0.71797 0.14084 0.0
C194 C 0.84801 0.68947 0.18621 0.0
N195 N 0.8537 0.67863 0.26371 0.0
N196 N 0.91837 0.7347 0.17495 0.0
H197 H 0.8949 0.68582 0.35967 0.0
C198 C 0.76842 0.60295 0.99233 0.0
O199 O 0.7746 0.63674 0.02662 0.0
O200 O 0.8108 0.64727 0.44556 0.0
H201 H 0.81813 0.67567 0.1595 0.0
H202 H 0.60731 0.49802 0.31718 0.0
H203 H 0.87687 0.72664 0.07877 0.0
H204 H 0.03295 0.32036 0.98697 0.0
H205 H 0.09602 0.43963 0.88225 0.0
H206 H 0.05365 0.41619 0.75749 0.0
H207 H 0.99613 0.36367 0.68445 0.0
H208 H 0.9352 0.2421 0.77758 0.0
H209 H 0.97758 0.26477 0.90485 0.0
C210 C 0.03804 0.3406 0.93515 0.0
C211 C 0.06847 0.38117 0.94104 0.0
C212 C 1.0128 0.32695 0.86464 0.0
C213 C 0.0742 0.40789 0.87613 0.0
C214 C 0.04931 0.39472 0.80617 0.0
C215 C 0.99205 0.34207 0.73283 0.0
C216 C 0.96223 0.30157 0.72348 0.0
C217 C 1.01808 0.35468 0.80099 0.0
C218 C 0.9573 0.27366 0.78535 0.0
C219 C 0.98194 0.28652 0.85687 0.0
H220 H 0.75633 0.72699 0.3698 0.0
H221 H 0.72402 0.60494 0.43038 0.0
H222 H 0.69873 0.61106 0.5657 0.0
H223 H 0.67508 0.64578 0.65308 0.0
H224 H 0.71147 0.77011 0.60888 0.0
H225 H 0.74555 0.76844 0.47878 0.0
C226 C 0.74541 0.70254 0.41453 0.0
C227 C 0.7431 0.66588 0.39137 0.0
C228 C 0.72983 0.70599 0.49223 0.0
C229 C 0.72759 0.63385 0.4482 0.0
C230 C 0.71229 0.63705 0.52482 0.0
C231 C 0.69059 0.67296 0.61587 0.0
C232 C 0.68762 0.70714 0.63655 0.0
C233 C 0.71157 0.67221 0.54534 0.0
C234 C 0.70968 0.74226 0.58933 0.0
C235 C 0.73003 0.74149 0.51645 0.0
H236 H 0.41248 1.01727 0.26426 0.0
H237 H 0.28404 0.93789 0.24959 0.0
H238 H 0.27993 0.97876 0.13619 0.0
H239 H 0.31457 0.03729 0.03947 0.0
H240 H 0.44199 0.11869 0.06995 0.0
H241 H 0.4442 0.07904 0.18573 0.0
C242 C 0.38339 1.00865 0.23645 0.0
C243 C 0.34885 0.97324 0.26228 0.0
C244 C 0.3809 0.03408 0.17764 0.0
C245 C 0.31144 0.96329 0.22694 0.0
C246 C 0.30899 0.98744 0.16395 0.0
C247 C 0.3423 0.04711 0.07423 0.0
C248 C 0.37779 0.0818 0.04866 0.0
C249 C 0.34364 0.02304 0.13898 0.0
C250 C 0.41393 0.0936 0.0917 0.0
C251 C 0.41547 0.07011 0.15603 0.0
H252 H 0.22828 0.62128 0.28674 0.0
H253 H 0.13392 0.62993 0.15646 0.0
H254 H 0.15482 0.69458 0.22284 0.0
H255 H 0.20404 0.75175 0.30497 0.0
H256 H 0.29892 0.74446 0.43532 0.0
H257 H 0.27285 0.67566 0.38369 0.0
C258 C 0.21155 0.63668 0.27449 0.0
C259 C 0.1797 0.62073 0.21592 0.0
C260 C 0.22395 0.67426 0.3125 0.0
C261 C 0.15887 0.64166 0.20028 0.0
C262 C 0.17074 0.67867 0.23829 0.0
C263 C 0.21872 0.73493 0.32314 0.0
C264 C 0.25368 0.75338 0.37289 0.0
C265 C 0.20395 0.69577 0.29242 0.0
C266 C 0.27198 0.73097 0.39692 0.0
C267 C 0.25724 0.69172 0.36693 0.0
H268 H 0.30043 0.55749 0.073 0.0
H269 H 0.2848 0.43905 0.03568 0.0
H270 H 0.35478 0.46839 0.99126 0.0
H271 H 0.41709 0.5268 0.94636 0.0
H272 H 0.43181 0.64565 0.96968 0.0
H273 H 0.36622 0.61731 0.03795 0.0
C274 C 0.31282 0.53831 0.05699 0.0
C275 C 0.2877 0.49626 0.05728 0.0
C276 C 0.35283 0.55546 0.02834 0.0
C277 C 0.30368 0.47153 0.03544 0.0
C278 C 0.34361 0.48827 0.00988 0.0
C279 C 0.40627 0.54669 0.96716 0.0
C280 C 0.42946 0.58828 0.95224 0.0
C281 C 0.36797 0.5301 0.00334 0.0
C282 C 0.41504 0.61356 0.98083 0.0
C283 C 0.3772 0.5973 0.01922 0.0
H284 H 0.58509 0.83112 0.61425 0.0
H285 H 0.48338 0.73616 0.7441 0.0
H286 H 0.43992 0.76095 0.69009 0.0
H287 H 0.43003 0.80727 0.59815 0.0
H288 H 0.53284 0.90216 0.47021 0.0
H289 H 0.5764 0.87972 0.53163 0.0
C290 C 0.55343 0.81584 0.63112 0.0
C291 C 0.53754 0.78157 0.68259 0.0
C292 C 0.52868 0.83026 0.60008 0.0
C293 C 0.49649 0.76254 0.70443 0.0
C294 C 0.47156 0.77669 0.67345 0.0
C295 C 0.46207 0.82361 0.58515 0.0
C296 C 0.47799 0.85643 0.5293 0.0
C297 C 0.48722 0.8103 0.62034 0.0
C298 C 0.51959 0.87665 0.51232 0.0
C299 C 0.54464 0.86384 0.54739 0.0
H300 H 0.60592 0.19739 0.66099 0.0
H301 H 0.636 0.17293 0.90647 0.0
H302 H 0.70623 0.20253 0.86623 0.0
H303 H 0.75816 0.23135 0.7612 0.0
H304 H 0.73129 0.25598 0.51323 0.0
H305 H 0.66084 0.23083 0.55486 0.0
C306 C 0.62804 0.19917 0.70579 0.0
C307 C 0.61567 0.18272 0.78657 0.0
C308 C 0.6688 0.21593 0.68175 0.0
C309 C 0.64461 0.18491 0.84372 0.0
C310 C 0.68483 0.20188 0.82087 0.0
C311 C 0.73704 0.23128 0.71573 0.0
C312 C 0.74989 0.24494 0.63374 0.0
C313 C 0.69705 0.2167 0.73981 0.0
C314 C 0.72214 0.2454 0.57664 0.0
C315 C 0.68187 0.23093 0.60044 0.0
H316 H 0.81968 0.40951 0.39418 0.0
H317 H 0.93068 0.51076 0.48368 0.0
H318 H 0.91295 0.557 0.41835 0.0
H319 H 0.86444 0.56931 0.3447 0.0
H320 H 0.75362 0.46939 0.25242 0.0
H321 H 0.7733 0.42216 0.30837 0.0
C322 C 0.84047 0.44159 0.39794 0.0
C323 C 0.87649 0.45642 0.44454 0.0
C324 C 0.83008 0.4684 0.36005 0.0
C325 C 0.90255 0.4983 0.44934 0.0
C326 C 0.89252 0.52492 0.4118 0.0
C327 C 0.84465 0.53719 0.33614 0.0
C328 C 0.80743 0.52294 0.29516 0.0
C329 C 0.85604 0.51035 0.36857 0.0
C330 C 0.78246 0.48122 0.28373 0.0
C331 C 0.79362 0.45419 0.31608 0.0
H332 H 0.47461 0.3063 0.97124 0.0
H333 H 0.57205 0.28741 0.89614 0.0
H334 H 0.62118 0.35466 0.94842 0.0
H335 H 0.63561 0.4155 0.0317 0.0
H336 H 0.53642 0.43246 0.10455 0.0
H337 H 0.48903 0.36964 0.03639 0.0
C338 C 0.50664 0.31713 0.96515 0.0
C339 C 0.51968 0.29178 0.93085 0.0
C340 C 0.53446 0.35548 -0.00439 0.0
C341 C 0.56125 0.3064 0.92229 0.0
C342 C 0.58932 0.34476 0.95271 0.0
C343 C 0.60378 0.40597 0.03069 0.0
C344 C 0.58963 0.42858 0.07418 0.0
C345 C 0.57624 0.36918 0.99175 0.0
C346 C 0.54814 0.41546 0.0727 0.0
C347 C 0.52091 0.37946 0.03373 0.0
H348 H 1.01381 0.32087 0.45838 0.0
H349 H 0.9273 0.35979 0.4158 0.0
H350 H 0.9688 0.40303 0.30184 0.0
H351 H 0.02942 0.42729 0.21126 0.0
H352 H 0.11554 0.38899 0.26449 0.0
H353 H 0.0767 0.35158 0.3852 0.0
C354 C 1.00374 0.33895 0.42516 0.0
C355 C 0.96638 0.33582 0.44426 0.0
C356 C 0.02912 0.36573 0.3651 0.0
C357 C 0.95452 0.35978 0.40014 0.0
C358 C 0.97896 0.38542 0.33636 0.0
C359 C 0.0404 0.41221 0.25198 0.0
C360 C 0.07618 0.41222 0.23153 0.0
C361 C 1.01638 0.38855 0.31841 0.0
C362 C 0.08966 0.39159 0.28233 0.0
C363 C 0.06655 0.36887 0.34936 0.0
H364 H 0.65282 0.64813 0.1792 0.0
H365 H 0.6945 0.57523 0.05894 0.0
H366 H 0.66133 0.57538 0.9296 0.0
H367 H 0.63528 0.61053 0.84472 0.0
H368 H 0.58901 0.67906 0.96385 0.0
H369 H 0.60757 0.66546 0.1016 0.0
C370 C 0.65421 0.63158 0.12533 0.0
C371 C 0.67934 0.61431 0.12665 0.0
C372 C 0.63453 0.63172 0.05132 0.0
C373 C 0.67839 0.59122 0.05785 0.0
C374 C 0.6587 0.59086 0.98404 0.0
C375 C 0.6283 0.62186 0.90087 0.0
C376 C 0.61573 0.65067 0.89444 0.0
C377 C 0.63912 0.61341 0.97874 0.0
C378 C 0.60358 0.6617 0.96742 0.0
C379 C 0.61353 0.65299 0.04601 0.0
H380 H 0.41603 0.03529 0.81512 0.0
H381 H 0.3767 0.10883 0.68837 0.0
H382 H 0.36411 0.06907 0.56091 0.0
H383 H 0.35854 1.01072 0.49145 0.0
H384 H 0.40128 0.93776 0.60911 0.0
H385 H 0.41582 0.97836 0.73821 0.0
C386 C 0.40589 0.04311 0.75842 0.0
C387 C 0.3989 0.07589 0.75887 0.0
C388 C 0.39758 0.01919 0.68637 0.0
C389 C 0.38446 0.08526 0.68706 0.0
C390 C 0.37623 0.06185 0.61532 0.0
C391 C 0.37143 1.00373 0.54502 0.0
C392 C 0.37839 0.97101 0.54161 0.0
C393 C 0.38185 0.02837 0.61525 0.0
C394 C 0.39461 0.96208 0.61149 0.0
C395 C 0.40359 0.98575 0.68428 0.0
H396 H 0.21789 0.27749 0.11973 0.0
H397 H 0.21751 0.31968 0.86947 0.0
H398 H 0.26117 0.29421 0.82208 0.0
H399 H 0.29546 0.25589 0.84898 0.0
H400 H 0.29654 0.21345 0.09839 0.0
H401 H 0.25711 0.24357 0.14917 0.0
C402 C 0.22761 0.28131 0.05495 0.0
C403 C 0.21443 0.3005 -0.00168 0.0
C404 C 0.25283 0.26657 0.028 0.0
C405 C 0.22755 0.30555 0.91472 0.0
C406 C 0.25234 0.29073 0.88738 0.0
C407 C 0.28739 0.25355 0.91469 0.0
C408 C 0.29878 0.23234 0.96973 0.0
C409 C 0.26461 0.27068 0.94312 0.0
C410 C 0.2885 0.22993 0.05485 0.0
C411 C 0.26564 0.24685 0.08372 0.0
H412 H 0.76072 0.95772 0.82187 0.0
H413 H 0.72553 0.91279 0.56944 0.0
H414 H 0.74906 0.98073 0.5195 0.0
H415 H 0.78394 0.05309 0.54468 0.0
H416 H 0.82211 0.09953 0.79484 0.0
H417 H 0.79259 0.03081 0.84843 0.0
C418 C 0.75798 0.96277 0.75599 0.0
C419 C 0.74103 0.92992 0.69988 0.0
C420 C 0.77214 1.00222 0.72713 0.0
C421 C 0.73758 0.93708 0.61472 0.0
C422 C 0.7514 0.97611 0.58576 0.0
C423 C 0.78561 0.04826 0.61115 0.0
C424 C 0.80536 0.08149 0.66549 0.0
C425 C 0.76927 1.00887 0.64112 0.0
C426 C 0.80675 0.07461 0.75157 0.0
C427 C 0.7902 0.03528 0.78214 0.0
H428 H 0.99393 0.74879 0.16607 0.0
H429 H 0.94982 0.74658 0.41582 0.0
H430 H 1.01896 0.78473 0.46784 0.0
H431 H 0.09206 0.82199 0.44109 0.0
H432 H 0.13607 0.82367 0.19145 0.0
H433 H 0.06702 0.78239 0.14105 0.0
C434 C 0.99943 0.75644 0.23203 0.0
C435 C 0.96658 0.74468 0.28683 0.0
C436 C 0.03933 0.77844 0.26158 0.0
C437 C 0.97433 0.75463 0.37226 0.0
C438 C 1.01395 0.77679 0.402 0.0
C439 C 0.08656 0.81314 0.37569 0.0
C440 C 0.11936 0.82594 0.32033 0.0
C441 C 0.04668 0.7893 0.34704 0.0
C442 C 0.11162 0.81389 0.2359 0.0
C443 C 0.07203 0.79049 0.20681 0.0
H444 H 0.17162 0.49215 0.44914 0.0
H445 H 0.19112 0.3914 0.4153 0.0
H446 H 0.18552 0.37955 0.56609 0.0
H447 H 0.17699 0.39891 0.70843 0.0
H448 H 0.16096 0.50172 0.74284 0.0
H449 H 0.16299 0.51144 0.59135 0.0
C450 C 0.17457 0.46756 0.47476 0.0
C451 C 0.18197 0.44284 0.42096 0.0
C452 C 0.17189 0.46124 0.56179 0.0
C453 C 0.18577 0.41113 0.45526 0.0
C454 C 0.18244 0.40422 0.54155 0.0
C455 C 0.17366 0.42325 0.68264 0.0
C456 C 0.16891 0.44959 0.73673 0.0
C457 C 0.17576 0.42922 0.5955 0.0
C458 C 0.16494 0.4812 0.70252 0.0
C459 C 0.16606 0.48677 0.61589 0.0
H460 H 0.5697 0.74716 0.37463 0.0
H461 H 0.69287 0.77495 0.40556 0.0
H462 H 0.7021 0.7796 0.25359 0.0
H463 H 0.67405 0.7732 0.11139 0.0
H464 H 0.55089 0.74639 0.0829 0.0
H465 H 0.5431 0.74467 0.2344 0.0
C466 C 0.5986 0.7542 0.34829 0.0
C467 C 0.63038 0.76008 0.40144 0.0
C468 C 0.6038 0.75737 0.26113 0.0
C469 C 0.66779 0.76983 0.36609 0.0
C470 C 0.67311 0.77264 0.27914 0.0
C471 C 0.64572 0.76763 0.13832 0.0
C472 C 0.61309 0.75985 0.08565 0.0
C473 C 0.64122 0.76623 0.22595 0.0
C474 C 0.5765 0.7524 0.12179 0.0
C475 C 0.57192 0.75123 0.20854 0.0
H476 H 0.31736 0.88969 0.75872 0.0
H477 H 0.33543 0.78724 0.77156 0.0
H478 H 0.32964 0.7864 0.92364 0.0
H479 H 0.31861 0.81391 0.05293 0.0
H480 H 0.2975 0.91437 0.04161 0.0
H481 H 0.30532 0.91684 0.88914 0.0
C482 C 0.32007 0.86722 0.79486 0.0
C483 C 0.32676 0.83853 0.75368 0.0
C484 C 0.31611 0.8665 0.88256 0.0
C485 C 0.33008 0.80955 0.80145 0.0
C486 C 0.32684 0.80906 0.88854 0.0
C487 C 0.31583 0.83644 0.01718 0.0
C488 C 0.30755 0.86393 0.05852 0.0
C489 C 0.31972 0.83726 0.9297 0.0
C490 C 0.30368 0.89272 0.0112 0.0
C491 C 0.30823 0.89419 0.92406 0.0
H492 H 0.47969 0.17351 0.53001 0.0
H493 H 0.38033 0.19488 0.56851 0.0
H494 H 0.37015 0.19396 0.41722 0.0
H495 H 0.39099 0.1893 0.27287 0.0
H496 H 0.49236 0.17095 0.23608 0.0
H497 H 0.49995 0.16818 0.38713 0.0
C498 C 0.45574 0.17789 0.50541 0.0
C499 C 0.43099 0.18448 0.56071 0.0
C500 C 0.45037 0.17786 0.41829 0.0
C501 C 0.40008 0.19007 0.5275 0.0
C502 C 0.39415 0.18945 0.44087 0.0
C503 C 0.41453 0.18443 0.2981 0.0
C504 C 0.44118 0.18056 0.2433 0.0
C505 C 0.41931 0.18368 0.38551 0.0
C506 C 0.47168 0.17445 0.27686 0.0
C507 C 0.47604 0.17279 0.36332 0.0
H508 H 0.88318 0.32727 0.22238 0.0
H509 H 0.83726 0.19979 0.25143 0.0
H510 H 0.84073 0.19249 0.10016 0.0
H511 H 0.85498 0.22192 0.95865 0.0
H512 H 0.90058 0.3494 0.9303 0.0
H513 H 0.89936 0.35698 0.08175 0.0
C514 C 0.87381 0.29785 0.19568 0.0
C515 C 0.85961 0.26409 0.24838 0.0
C516 C 0.87593 0.29382 0.10849 0.0
C517 C 0.84811 0.2263 0.21253 0.0
C518 C 0.85012 0.22207 0.12589 0.0
C519 C 0.86489 0.2514 0.98562 0.0
C520 C 0.87758 0.28496 0.93286 0.0
C521 C 0.86376 0.25557 0.07312 0.0
C522 C 0.89037 0.32294 0.96912 0.0
C523 C 0.88966 0.32735 0.0559 0.0
H524 H 0.78671 0.56346 0.6171 0.0
H525 H 0.81043 0.68494 0.58158 0.0
H526 H 0.80374 0.69152 0.73257 0.0
H527 H 0.78917 0.66173 0.87439 0.0
H528 H 0.76446 0.53962 0.90653 0.0
H529 H 0.77368 0.53449 0.75705 0.0
C530 C 0.79063 0.59152 0.64219 0.0
C531 C 0.79911 0.62367 0.58801 0.0
C532 C 0.78653 0.59497 0.7286 0.0
C533 C 0.80416 0.6598 0.6219 0.0
C534 C 0.80019 0.66351 0.70822 0.0
C535 C 0.78609 0.6341 0.84878 0.0
C536 C 0.77612 0.6011 0.90187 0.0
C537 C 0.79115 0.63118 0.76217 0.0
C538 C 0.77203 0.56547 0.86738 0.0
C539 C 0.77729 0.56247 0.78177 0.0
loop_
_geom_bond_atom_site_label_1
_geom_bond_atom_site_label_2
_geom_bond_distance
_geom_bond_site_symmetry_2
_ccdc_geom_bond_type
Zn0 N4 2.020 . S
Zn0 O8 2.019 1_554 S
Zn0 N10 2.119 . S
Zn0 O18 1.975 . S
C1 N2 1.334 . S
C1 N5 1.336 . S
N2 C1 1.334 . S
N2 C3 1.334 . S
C3 N2 1.334 . S
C3 N4 1.336 . S
N4 Zn0 2.020 . S
N4 C3 1.336 . S
N4 N5 1.354 . S
N5 C1 1.336 . S
N5 N4 1.354 . S
N5 Zn9 2.020 . S
C6 O7 1.244 . S
C6 O30 1.257 . S
O7 C6 1.244 . S
O8 Zn0 2.019 1_556 S
O8 C28 1.257 . S
Zn9 N5 2.020 . S
Zn9 O16 1.975 . S
Zn9 N25 2.119 . S
Zn9 O30 2.019 . S
N10 Zn0 2.119 . S
N10 C12 1.334 . S
N10 C13 1.328 . S
C11 C12 1.391 . S
C11 N14 1.329 . S
C11 H32 0.930 . S
C12 N10 1.334 . S
C12 C11 1.391 . S
C12 H19 0.930 . S
C13 N10 1.328 . S
C13 C15 1.392 . S
C13 H20 0.930 1_554 S
N14 C11 1.329 . S
N14 C15 1.331 . S
C15 C13 1.392 . S
C15 N14 1.331 . S
O16 Zn9 1.975 . S
O16 C17 1.252 . S
C17 O16 1.252 . S
C17 O18 1.252 . S
O18 Zn0 1.975 . S
O18 C17 1.252 . S
H19 C12 0.930 . S
H20 C13 0.930 1_556 S
C21 C22 1.392 . S
C21 N25 1.328 . S
C21 H27 0.930 . S
C22 C21 1.392 . S
C22 N26 1.331 . S
C23 C24 1.391 . S
C23 N26 1.329 . S
C23 H33 0.930 . S
C24 C23 1.391 . S
C24 N25 1.334 . S
C24 H31 0.930 . S
N25 Zn9 2.119 . S
N25 C21 1.328 . S
N25 C24 1.334 . S
N26 C22 1.331 . S
N26 C23 1.329 . S
H27 C21 0.930 . S
C28 O8 1.257 . S
C28 O29 1.244 . S
O29 C28 1.244 . S
O30 C6 1.257 . S
O30 Zn9 2.019 . S
H31 C24 0.930 . S
H32 C11 0.930 . S
H33 C23 0.930 . S
Zn34 N38 2.020 . S
Zn34 O42 2.019 . S
Zn34 N44 2.119 . S
Zn34 O52 1.975 . S
C35 N36 1.334 . S
C35 N39 1.336 . S
N36 C35 1.334 . S
N36 C37 1.334 . S
C37 N36 1.334 . S
C37 N38 1.336 . S
N38 Zn34 2.020 . S
N38 C37 1.336 . S
N38 N39 1.354 . S
N39 C35 1.336 . S
N39 N38 1.354 . S
N39 Zn43 2.020 . S
C40 O41 1.244 . S
C40 O64 1.257 . S
O41 C40 1.244 . S
O42 Zn34 2.019 . S
O42 C62 1.257 . S
Zn43 N39 2.020 . S
Zn43 O50 1.975 . S
Zn43 N59 2.119 . S
Zn43 O64 2.019 1_556 S
N44 Zn34 2.119 . S
N44 C46 1.334 . S
N44 C47 1.328 . S
C45 C46 1.391 . S
C45 N48 1.329 . S
C45 H66 0.930 . S
C46 N44 1.334 . S
C46 C45 1.391 . S
C46 H53 0.930 . S
C47 N44 1.328 . S
C47 C49 1.392 . S
C47 H54 0.930 . S
N48 C45 1.329 . S
N48 C49 1.331 . S
C49 C47 1.392 . S
C49 N48 1.331 . S
O50 Zn43 1.975 . S
O50 C51 1.252 . S
C51 O50 1.252 . S
C51 O52 1.252 . S
O52 Zn34 1.975 . S
O52 C51 1.252 . S
H53 C46 0.930 . S
H54 C47 0.930 . S
C55 C56 1.392 . S
C55 N59 1.328 . S
C55 H61 0.930 1_556 S
C56 C55 1.392 . S
C56 N60 1.331 . S
C57 C58 1.391 . S
C57 N60 1.329 . S
C57 H67 0.930 . S
C58 C57 1.391 . S
C58 N59 1.334 . S
C58 H65 0.930 . S
N59 Zn43 2.119 . S
N59 C55 1.328 . S
N59 C58 1.334 . S
N60 C56 1.331 . S
N60 C57 1.329 . S
H61 C55 0.930 1_554 S
C62 O42 1.257 . S
C62 O63 1.244 . S
O63 C62 1.244 . S
O64 C40 1.257 . S
O64 Zn43 2.019 1_554 S
H65 C58 0.930 . S
H66 C45 0.930 . S
H67 C57 0.930 . S
Zn68 N72 2.020 . S
Zn68 O76 2.019 . S
Zn68 N78 2.119 . S
Zn68 O86 1.975 . S
C69 N70 1.334 . S
C69 N73 1.336 . S
N70 C69 1.334 . S
N70 C71 1.334 . S
C71 N70 1.334 . S
C71 N72 1.336 . S
N72 Zn68 2.020 . S
N72 C71 1.336 . S
N72 N73 1.354 . S
N73 C69 1.336 . S
N73 N72 1.354 . S
N73 Zn77 2.020 . S
C74 O75 1.244 . S
C74 O98 1.257 . S
O75 C74 1.244 . S
O76 Zn68 2.019 . S
O76 C96 1.257 . S
Zn77 N73 2.020 . S
Zn77 O84 1.975 . S
Zn77 N93 2.119 . S
Zn77 O98 2.019 . S
N78 Zn68 2.119 . S
N78 C80 1.334 . S
N78 C81 1.328 . S
C79 C80 1.391 . S
C79 N82 1.329 . S
C79 H100 0.930 . S
C80 N78 1.334 . S
C80 C79 1.391 . S
C80 H87 0.930 . S
C81 N78 1.328 . S
C81 C83 1.392 . S
C81 H88 0.930 . S
N82 C79 1.329 . S
N82 C83 1.331 . S
C83 C81 1.392 . S
C83 N82 1.331 . S
O84 Zn77 1.975 . S
O84 C85 1.252 . S
C85 O84 1.252 . S
C85 O86 1.252 . S
O86 Zn68 1.975 . S
O86 C85 1.252 . S
H87 C80 0.930 . S
H88 C81 0.930 . S
C89 C90 1.392 . S
C89 N93 1.328 . S
C89 H95 0.930 . S
C90 C89 1.392 . S
C90 N94 1.331 . S
C91 C92 1.391 . S
C91 N94 1.329 . S
C91 H101 0.930 . S
C92 C91 1.391 . S
C92 N93 1.334 . S
C92 H99 0.930 . S
N93 Zn77 2.119 . S
N93 C89 1.328 . S
N93 C92 1.334 . S
N94 C90 1.331 . S
N94 C91 1.329 . S
H95 C89 0.930 . S
C96 O76 1.257 . S
C96 O97 1.244 . S
O97 C96 1.244 . S
O98 C74 1.257 . S
O98 Zn77 2.019 . S
H99 C92 0.930 . S
H100 C79 0.930 . S
H101 C91 0.930 . S
Zn102 N106 2.020 . S
Zn102 O110 2.019 . S
Zn102 N112 2.119 . S
Zn102 O120 1.975 . S
C103 N104 1.334 . S
C103 N107 1.336 . S
N104 C103 1.334 . S
N104 C105 1.334 . S
C105 N104 1.334 . S
C105 N106 1.336 . S
N106 Zn102 2.020 . S
N106 C105 1.336 . S
N106 N107 1.354 . S
N107 C103 1.336 . S
N107 N106 1.354 . S
N107 Zn111 2.020 . S
C108 O109 1.244 . S
C108 O132 1.257 . S
O109 C108 1.244 . S
O110 Zn102 2.019 . S
O110 C130 1.257 . S
Zn111 N107 2.020 . S
Zn111 O118 1.975 . S
Zn111 N127 2.119 . S
Zn111 O132 2.019 1_556 S
N112 Zn102 2.119 . S
N112 C114 1.334 . S
N112 C115 1.328 . S
C113 C114 1.391 . S
C113 N116 1.329 . S
C113 H134 0.930 . S
C114 N112 1.334 . S
C114 C113 1.391 . S
C114 H121 0.930 . S
C115 N112 1.328 . S
C115 C117 1.392 . S
C115 H122 0.930 . S
N116 C113 1.329 . S
N116 C117 1.331 . S
C117 C115 1.392 . S
C117 N116 1.331 . S
O118 Zn111 1.975 . S
O118 C119 1.252 . S
C119 O118 1.252 . S
C119 O120 1.252 . S
O120 Zn102 1.975 . S
O120 C119 1.252 . S
H121 C114 0.930 . S
H122 C115 0.930 . S
C123 C124 1.392 . S
C123 N127 1.328 . S
C123 H129 0.930 1_556 S
C124 C123 1.392 . S
C124 N128 1.331 . S
C125 C126 1.391 . S
C125 N128 1.329 . S
C125 H135 0.930 . S
C126 C125 1.391 . S
C126 N127 1.334 . S
C126 H133 0.930 . S
N127 Zn111 2.119 . S
N127 C123 1.328 . S
N127 C126 1.334 . S
N128 C124 1.331 . S
N128 C125 1.329 . S
H129 C123 0.930 1_554 S
C130 O110 1.257 . S
C130 O131 1.244 . S
O131 C130 1.244 . S
O132 C108 1.257 . S
O132 Zn111 2.019 1_554 S
H133 C126 0.930 . S
H134 C113 0.930 . S
H135 C125 0.930 . S
Zn136 N140 2.020 . S
Zn136 O144 2.019 . S
Zn136 N146 2.119 . S
Zn136 O154 1.975 . S
C137 N138 1.334 . S
C137 N141 1.336 . S
N138 C137 1.334 . S
N138 C139 1.334 . S
C139 N138 1.334 . S
C139 N140 1.336 . S
N140 Zn136 2.020 . S
N140 C139 1.336 . S
N140 N141 1.354 . S
N141 C137 1.336 . S
N141 N140 1.354 . S
N141 Zn145 2.020 . S
C142 O143 1.244 . S
C142 O166 1.257 . S
O143 C142 1.244 . S
O144 Zn136 2.019 . S
O144 C164 1.257 . S
Zn145 N141 2.020 . S
Zn145 O152 1.975 . S
Zn145 N161 2.119 . S
Zn145 O166 2.019 . S
N146 Zn136 2.119 . S
N146 C148 1.334 . S
N146 C149 1.328 . S
C147 C148 1.391 . S
C147 N150 1.329 . S
C147 H168 0.930 . S
C148 N146 1.334 . S
C148 C147 1.391 . S
C148 H155 0.930 . S
C149 N146 1.328 . S
C149 C151 1.392 . S
C149 H156 0.930 . S
N150 C147 1.329 . S
N150 C151 1.331 . S
C151 C149 1.392 . S
C151 N150 1.331 . S
O152 Zn145 1.975 . S
O152 C153 1.252 . S
C153 O152 1.252 . S
C153 O154 1.252 . S
O154 Zn136 1.975 . S
O154 C153 1.252 . S
H155 C148 0.930 . S
H156 C149 0.930 . S
C157 C158 1.392 . S
C157 N161 1.328 . S
C157 H163 0.930 . S
C158 C157 1.392 . S
C158 N162 1.331 . S
C159 C160 1.391 . S
C159 N162 1.329 . S
C159 H169 0.930 . S
C160 C159 1.391 . S
C160 N161 1.334 . S
C160 H167 0.930 . S
N161 Zn145 2.119 . S
N161 C157 1.328 . S
N161 C160 1.334 . S
N162 C158 1.331 . S
N162 C159 1.329 . S
H163 C157 0.930 . S
C164 O144 1.257 . S
C164 O165 1.244 . S
O165 C164 1.244 . S
O166 C142 1.257 . S
O166 Zn145 2.019 . S
H167 C160 0.930 . S
H168 C147 0.930 . S
H169 C159 0.930 . S
Zn170 N174 2.020 . S
Zn170 O178 2.019 1_554 S
Zn170 N180 2.119 . S
Zn170 O188 1.975 . S
C171 N172 1.334 . S
C171 N175 1.336 . S
N172 C171 1.334 . S
N172 C173 1.334 . S
C173 N172 1.334 . S
C173 N174 1.336 . S
N174 Zn170 2.020 . S
N174 C173 1.336 . S
N174 N175 1.354 . S
N175 C171 1.336 . S
N175 N174 1.354 . S
N175 Zn179 2.020 . S
C176 O177 1.244 . S
C176 O200 1.257 . S
O177 C176 1.244 . S
O178 Zn170 2.019 1_556 S
O178 C198 1.257 . S
Zn179 N175 2.020 . S
Zn179 O186 1.975 . S
Zn179 N195 2.119 . S
Zn179 O200 2.019 . S
N180 Zn170 2.119 . S
N180 C182 1.334 . S
N180 C183 1.328 . S
C181 C182 1.391 . S
C181 N184 1.329 . S
C181 H202 0.930 . S
C182 N180 1.334 . S
C182 C181 1.391 . S
C182 H189 0.930 . S
C183 N180 1.328 . S
C183 C185 1.392 . S
C183 H190 0.930 1_554 S
N184 C181 1.329 . S
N184 C185 1.331 . S
C185 C183 1.392 . S
C185 N184 1.331 . S
O186 Zn179 1.975 . S
O186 C187 1.252 . S
C187 O186 1.252 . S
C187 O188 1.252 . S
O188 Zn170 1.975 . S
O188 C187 1.252 . S
H189 C182 0.930 . S
H190 C183 0.930 1_556 S
C191 C192 1.392 . S
C191 N195 1.328 . S
C191 H197 0.930 . S
C192 C191 1.392 . S
C192 N196 1.331 . S
C193 C194 1.391 . S
C193 N196 1.329 . S
C193 H203 0.930 . S
C194 C193 1.391 . S
C194 N195 1.334 . S
C194 H201 0.930 . S
N195 Zn179 2.119 . S
N195 C191 1.328 . S
N195 C194 1.334 . S
N196 C192 1.331 . S
N196 C193 1.329 . S
H197 C191 0.930 . S
C198 O178 1.257 . S
C198 O199 1.244 . S
O199 C198 1.244 . S
O200 C176 1.257 . S
O200 Zn179 2.019 . S
H201 C194 0.930 . S
H202 C181 0.930 . S
H203 C193 0.930 . S
H204 C210 0.930 . S
H205 C213 0.930 1_554 S
H206 C214 0.930 . S
H207 C215 0.930 . S
H208 C218 0.930 . S
H209 C219 0.930 . S
C210 H204 0.930 . S
C210 C211 1.355 . S
C210 C212 1.415 . S
C211 C210 1.355 . S
C211 C213 1.419 . S
C212 C210 1.415 . S
C212 C217 1.425 1_455 S
C212 C219 1.409 . S
C213 H205 0.930 1_556 S
C213 C211 1.419 . S
C213 C214 1.362 1_455 S
C214 H206 0.930 . S
C214 C213 1.362 1_655 S
C214 C217 1.409 . S
C215 H207 0.930 . S
C215 C216 1.355 . S
C215 C217 1.415 . S
C216 C215 1.355 . S
C216 C218 1.419 . S
C217 C212 1.425 1_655 S
C217 C214 1.409 . S
C217 C215 1.415 . S
C218 H208 0.930 . S
C218 C216 1.419 . S
C218 C219 1.362 1_655 S
C219 H209 0.930 . S
C219 C212 1.409 . S
C219 C218 1.362 1_455 S
H220 C226 0.930 . S
H221 C229 0.930 . S
H222 C230 0.930 . S
H223 C231 0.930 . S
H224 C234 0.930 . S
H225 C235 0.930 . S
C226 H220 0.930 . S
C226 C227 1.355 . S
C226 C228 1.415 . S
C227 C226 1.355 . S
C227 C229 1.419 . S
C228 C226 1.415 . S
C228 C233 1.425 . S
C228 C235 1.409 . S
C229 H221 0.930 . S
C229 C227 1.419 . S
C229 C230 1.362 . S
C230 H222 0.930 . S
C230 C229 1.362 . S
C230 C233 1.409 . S
C231 H223 0.930 . S
C231 C232 1.355 . S
C231 C233 1.415 . S
C232 C231 1.355 . S
C232 C234 1.419 . S
C233 C228 1.425 . S
C233 C230 1.409 . S
C233 C231 1.415 . S
C234 H224 0.930 . S
C234 C232 1.419 . S
C234 C235 1.362 . S
C235 H225 0.930 . S
C235 C228 1.409 . S
C235 C234 1.362 . S
H236 C242 0.930 . S
H237 C245 0.930 . S
H238 C246 0.930 . S
H239 C247 0.930 . S
H240 C250 0.930 . S
H241 C251 0.930 . S
C242 H236 0.930 . S
C242 C243 1.355 . S
C242 C244 1.415 1_565 S
C243 C242 1.355 . S
C243 C245 1.419 . S
C244 C242 1.415 1_545 S
C244 C249 1.425 1_545 S
C244 C251 1.409 . S
C245 H237 0.930 . S
C245 C243 1.419 . S
C245 C246 1.362 . S
C246 H238 0.930 . S
C246 C245 1.362 . S
C246 C249 1.409 . S
C247 H239 0.930 . S
C247 C248 1.355 . S
C247 C249 1.415 1_545 S
C248 C247 1.355 . S
C248 C250 1.419 . S
C249 C244 1.425 1_565 S
C249 C246 1.409 . S
C249 C247 1.415 1_565 S
C250 H240 0.930 . S
C250 C248 1.419 . S
C250 C251 1.362 . S
C251 H241 0.930 . S
C251 C244 1.409 . S
C251 C250 1.362 . S
H252 C258 0.930 . S
H253 C261 0.930 . S
H254 C262 0.930 . S
H255 C263 0.930 . S
H256 C266 0.930 . S
H257 C267 0.930 . S
C258 H252 0.930 . S
C258 C259 1.355 . S
C258 C260 1.415 . S
C259 C258 1.355 . S
C259 C261 1.419 . S
C260 C258 1.415 . S
C260 C265 1.425 . S
C260 C267 1.409 . S
C261 H253 0.930 . S
C261 C259 1.419 . S
C261 C262 1.362 . S
C262 H254 0.930 . S
C262 C261 1.362 . S
C262 C265 1.409 . S
C263 H255 0.930 . S
C263 C264 1.355 . S
C263 C265 1.415 . S
C264 C263 1.355 . S
C264 C266 1.419 . S
C265 C260 1.425 . S
C265 C262 1.409 . S
C265 C263 1.415 . S
C266 H256 0.930 . S
C266 C264 1.419 . S
C266 C267 1.362 . S
C267 H257 0.930 . S
C267 C260 1.409 . S
C267 C266 1.362 . S
H268 C274 0.930 . S
H269 C277 0.930 . S
H270 C278 0.930 . S
H271 C279 0.930 . S
H272 C282 0.930 . S
H273 C283 0.930 . S
C274 H268 0.930 . S
C274 C275 1.355 . S
C274 C276 1.415 . S
C275 C274 1.355 . S
C275 C277 1.419 . S
C276 C274 1.415 . S
C276 C281 1.425 . S
C276 C283 1.409 1_554 S
C277 H269 0.930 . S
C277 C275 1.419 . S
C277 C278 1.362 . S
C278 H270 0.930 . S
C278 C277 1.362 . S
C278 C281 1.409 . S
C279 H271 0.930 . S
C279 C280 1.360 . S
C279 C281 1.415 . S
C280 C279 1.360 . S
C280 C282 1.416 1_554 S
C281 C276 1.425 . S
C281 C278 1.409 . S
C281 C279 1.415 . S
C282 H272 0.930 . S
C282 C280 1.416 1_556 S
C282 C283 1.362 . S
C283 H273 0.930 . S
C283 C276 1.409 1_556 S
C283 C282 1.362 . S
H284 C290 0.930 . S
H285 C293 0.930 . S
H286 C294 0.930 . S
H287 C295 0.930 . S
H288 C298 0.930 . S
H289 C299 0.930 . S
C290 H284 0.930 . S
C290 C291 1.355 . S
C290 C292 1.415 . S
C291 C290 1.355 . S
C291 C293 1.419 . S
C292 C290 1.415 . S
C292 C297 1.425 . S
C292 C299 1.409 . S
C293 H285 0.930 . S
C293 C291 1.419 . S
C293 C294 1.362 . S
C294 H286 0.930 . S
C294 C293 1.362 . S
C294 C297 1.409 . S
C295 H287 0.930 . S
C295 C296 1.355 . S
C295 C297 1.415 . S
C296 C295 1.355 . S
C296 C298 1.419 . S
C297 C292 1.425 . S
C297 C294 1.409 . S
C297 C295 1.415 . S
C298 H288 0.930 . S
C298 C296 1.419 . S
C298 C299 1.362 . S
C299 H289 0.930 . S
C299 C292 1.409 . S
C299 C298 1.362 . S
H300 C306 0.930 . S
H301 C309 0.930 . S
H302 C310 0.930 . S
H303 C311 0.930 . S
H304 C314 0.930 . S
H305 C315 0.930 . S
C306 H300 0.930 . S
C306 C307 1.355 . S
C306 C308 1.415 . S
C307 C306 1.355 . S
C307 C309 1.419 . S
C308 C306 1.415 . S
C308 C313 1.425 . S
C308 C315 1.409 . S
C309 H301 0.930 . S
C309 C307 1.419 . S
C309 C310 1.362 . S
C310 H302 0.930 . S
C310 C309 1.362 . S
C310 C313 1.409 . S
C311 H303 0.930 . S
C311 C312 1.355 . S
C311 C313 1.415 . S
C312 C311 1.355 . S
C312 C314 1.419 . S
C313 C308 1.425 . S
C313 C310 1.409 . S
C313 C311 1.415 . S
C314 H304 0.930 . S
C314 C312 1.419 . S
C314 C315 1.362 . S
C315 H305 0.930 . S
C315 C308 1.409 . S
C315 C314 1.362 . S
H316 C322 0.930 . S
H317 C325 0.930 . S
H318 C326 0.930 . S
H319 C327 0.930 . S
H320 C330 0.930 . S
H321 C331 0.930 . S
C322 H316 0.930 . S
C322 C323 1.355 . S
C322 C324 1.415 . S
C323 C322 1.355 . S
C323 C325 1.419 . S
C324 C322 1.415 . S
C324 C329 1.425 . S
C324 C331 1.409 . S
C325 H317 0.930 . S
C325 C323 1.419 . S
C325 C326 1.362 . S
C326 H318 0.930 . S
C326 C325 1.362 . S
C326 C329 1.409 . S
C327 H319 0.930 . S
C327 C328 1.355 . S
C327 C329 1.415 . S
C328 C327 1.355 . S
C328 C330 1.419 . S
C329 C324 1.425 . S
C329 C326 1.409 . S
C329 C327 1.415 . S
C330 H320 0.930 . S
C330 C328 1.419 . S
C330 C331 1.362 . S
C331 H321 0.930 . S
C331 C324 1.409 . S
C331 C330 1.362 . S
H332 C338 0.930 . S
H333 C341 0.930 . S
H334 C342 0.930 . S
H335 C343 0.929 1_554 S
H336 C346 0.930 . S
H337 C347 0.930 . S
C338 H332 0.930 . S
C338 C339 1.355 . S
C338 C340 1.415 . S
C339 C338 1.355 . S
C339 C341 1.419 . S
C340 C338 1.415 . S
C340 C345 1.425 . S
C340 C347 1.409 . S
C341 H333 0.930 . S
C341 C339 1.419 . S
C341 C342 1.362 . S
C342 H334 0.930 . S
C342 C341 1.362 . S
C342 C345 1.409 . S
C343 H335 0.929 1_556 S
C343 C344 1.355 . S
C343 C345 1.416 . S
C344 C343 1.355 . S
C344 C346 1.419 . S
C345 C340 1.425 . S
C345 C342 1.409 . S
C345 C343 1.416 . S
C346 H336 0.930 . S
C346 C344 1.419 . S
C346 C347 1.362 . S
C347 H337 0.930 . S
C347 C340 1.409 . S
C347 C346 1.362 . S
H348 C354 0.930 . S
H349 C357 0.930 . S
H350 C358 0.930 . S
H351 C359 0.930 . S
H352 C362 0.930 . S
H353 C363 0.930 . S
C354 H348 0.930 . S
C354 C355 1.355 . S
C354 C356 1.415 . S
C355 C354 1.355 . S
C355 C357 1.419 . S
C356 C354 1.415 . S
C356 C361 1.425 1_655 S
C356 C363 1.409 1_655 S
C357 H349 0.930 . S
C357 C355 1.419 . S
C357 C358 1.362 . S
C358 H350 0.930 . S
C358 C357 1.362 . S
C358 C361 1.409 1_655 S
C359 H351 0.930 . S
C359 C360 1.355 . S
C359 C361 1.415 . S
C360 C359 1.355 . S
C360 C362 1.419 . S
C361 C356 1.425 1_455 S
C361 C358 1.409 1_455 S
C361 C359 1.415 . S
C362 H352 0.930 . S
C362 C360 1.419 . S
C362 C363 1.362 . S
C363 H353 0.930 . S
C363 C356 1.409 1_455 S
C363 C362 1.362 . S
H364 C370 0.930 . S
H365 C373 0.930 . S
H366 C374 0.930 . S
H367 C375 0.930 . S
H368 C378 0.930 . S
H369 C379 0.930 . S
C370 H364 0.930 . S
C370 C371 1.355 . S
C370 C372 1.415 . S
C371 C370 1.355 . S
C371 C373 1.419 1_554 S
C372 C370 1.415 . S
C372 C377 1.425 1_554 S
C372 C379 1.409 . S
C373 H365 0.930 . S
C373 C371 1.419 1_556 S
C373 C374 1.362 . S
C374 H366 0.930 . S
C374 C373 1.362 . S
C374 C377 1.409 . S
C375 H367 0.930 . S
C375 C376 1.355 . S
C375 C377 1.415 . S
C376 C375 1.355 . S
C376 C378 1.419 1_556 S
C377 C372 1.425 1_556 S
C377 C374 1.409 . S
C377 C375 1.415 . S
C378 H368 0.930 . S
C378 C376 1.419 1_554 S
C378 C379 1.362 . S
C379 H369 0.930 . S
C379 C372 1.409 . S
C379 C378 1.362 . S
H380 C386 0.930 . S
H381 C389 0.930 . S
H382 C390 0.930 . S
H383 C391 0.930 . S
H384 C394 0.930 . S
H385 C395 0.930 . S
C386 H380 0.930 . S
C386 C387 1.355 . S
C386 C388 1.415 . S
C387 C386 1.355 . S
C387 C389 1.419 . S
C388 C386 1.415 . S
C388 C393 1.425 1_545 S
C388 C395 1.409 . S
C389 H381 0.930 . S
C389 C387 1.419 . S
C389 C390 1.362 1_545 S
C390 H382 0.930 . S
C390 C389 1.362 1_565 S
C390 C393 1.409 . S
C391 H383 0.930 . S
C391 C392 1.355 . S
C391 C393 1.415 . S
C392 C391 1.355 . S
C392 C394 1.419 . S
C393 C388 1.425 1_565 S
C393 C390 1.409 . S
C393 C391 1.415 . S
C394 H384 0.930 . S
C394 C392 1.419 . S
C394 C395 1.362 1_565 S
C395 H385 0.930 . S
C395 C388 1.409 . S
C395 C394 1.362 1_545 S
H396 C402 0.930 . S
H397 C405 0.930 . S
H398 C406 0.930 . S
H399 C407 0.930 . S
H400 C410 0.930 . S
H401 C411 0.930 . S
C402 H396 0.930 . S
C402 C403 1.355 . S
C402 C404 1.415 . S
C403 C402 1.355 . S
C403 C405 1.419 1_556 S
C404 C402 1.415 . S
C404 C409 1.425 1_556 S
C404 C411 1.409 . S
C405 H397 0.930 . S
C405 C403 1.419 1_554 S
C405 C406 1.362 . S
C406 H398 0.930 . S
C406 C405 1.362 . S
C406 C409 1.409 . S
C407 H399 0.930 . S
C407 C408 1.355 . S
C407 C409 1.415 . S
C408 C407 1.355 . S
C408 C410 1.419 1_554 S
C409 C404 1.425 1_554 S
C409 C406 1.409 . S
C409 C407 1.415 . S
C410 H400 0.930 . S
C410 C408 1.419 1_556 S
C410 C411 1.362 . S
C411 H401 0.930 . S
C411 C404 1.409 . S
C411 C410 1.362 . S
H412 C418 0.930 . S
H413 C421 0.930 . S
H414 C422 0.930 . S
H415 C423 0.930 . S
H416 C426 0.930 . S
H417 C427 0.930 . S
C418 H412 0.930 . S
C418 C419 1.355 . S
C418 C420 1.415 . S
C419 C418 1.355 . S
C419 C421 1.419 . S
C420 C418 1.415 . S
C420 C425 1.425 1_565 S
C420 C427 1.409 1_565 S
C421 H413 0.930 . S
C421 C419 1.419 . S
C421 C422 1.362 . S
C422 H414 0.930 . S
C422 C421 1.362 . S
C422 C425 1.409 1_565 S
C423 H415 0.930 . S
C423 C424 1.355 . S
C423 C425 1.415 . S
C424 C423 1.355 . S
C424 C426 1.419 . S
C425 C420 1.425 1_545 S
C425 C422 1.409 1_545 S
C425 C423 1.415 . S
C426 H416 0.930 . S
C426 C424 1.419 . S
C426 C427 1.362 . S
C427 H417 0.930 . S
C427 C420 1.409 1_545 S
C427 C426 1.362 . S
H428 C434 0.930 . S
H429 C437 0.930 . S
H430 C438 0.930 . S
H431 C439 0.930 . S
H432 C442 0.930 . S
H433 C443 0.930 . S
C434 H428 0.930 . S
C434 C435 1.355 . S
C434 C436 1.415 . S
C435 C434 1.355 . S
C435 C437 1.419 . S
C436 C434 1.415 . S
C436 C441 1.425 1_655 S
C436 C443 1.409 1_655 S
C437 H429 0.930 . S
C437 C435 1.419 . S
C437 C438 1.362 . S
C438 H430 0.930 . S
C438 C437 1.362 . S
C438 C441 1.409 1_655 S
C439 H431 0.930 . S
C439 C440 1.355 . S
C439 C441 1.415 . S
C440 C439 1.355 . S
C440 C442 1.419 . S
C441 C436 1.425 1_455 S
C441 C438 1.409 1_455 S
C441 C439 1.415 . S
C442 H432 0.930 . S
C442 C440 1.419 . S
C442 C443 1.362 . S
C443 H433 0.930 . S
C443 C436 1.409 1_455 S
C443 C442 1.362 . S
H444 C450 0.930 . S
H445 C453 0.930 . S
H446 C454 0.930 . S
H447 C455 0.930 . S
H448 C458 0.930 . S
H449 C459 0.930 . S
C450 H444 0.930 . S
C450 C451 1.355 . S
C450 C452 1.415 . S
C451 C450 1.355 . S
C451 C453 1.419 . S
C452 C450 1.415 . S
C452 C457 1.425 . S
C452 C459 1.409 . S
C453 H445 0.930 . S
C453 C451 1.419 . S
C453 C454 1.362 . S
C454 H446 0.930 . S
C454 C453 1.362 . S
C454 C457 1.409 . S
C455 H447 0.930 . S
C455 C456 1.355 . S
C455 C457 1.415 . S
C456 C455 1.355 . S
C456 C458 1.419 . S
C457 C452 1.425 . S
C457 C454 1.409 . S
C457 C455 1.415 . S
C458 H448 0.930 . S
C458 C456 1.419 . S
C458 C459 1.362 . S
C459 H449 0.930 . S
C459 C452 1.409 . S
C459 C458 1.362 . S
H460 C466 0.930 . S
H461 C469 0.930 . S
H462 C470 0.930 . S
H463 C471 0.930 . S
H464 C474 0.930 . S
H465 C475 0.930 . S
C466 H460 0.930 . S
C466 C467 1.355 . S
C466 C468 1.415 . S
C467 C466 1.355 . S
C467 C469 1.419 . S
C468 C466 1.415 . S
C468 C473 1.425 . S
C468 C475 1.409 . S
C469 H461 0.930 . S
C469 C467 1.419 . S
C469 C470 1.362 . S
C470 H462 0.930 . S
C470 C469 1.362 . S
C470 C473 1.409 . S
C471 H463 0.930 . S
C471 C472 1.355 . S
C471 C473 1.415 . S
C472 C471 1.355 . S
C472 C474 1.419 . S
C473 C468 1.425 . S
C473 C470 1.409 . S
C473 C471 1.415 . S
C474 H464 0.930 . S
C474 C472 1.419 . S
C474 C475 1.362 . S
C475 H465 0.930 . S
C475 C468 1.409 . S
C475 C474 1.362 . S
H476 C482 0.930 . S
H477 C485 0.930 . S
H478 C486 0.930 . S
H479 C487 0.930 . S
H480 C490 0.930 . S
H481 C491 0.930 . S
C482 H476 0.930 . S
C482 C483 1.355 . S
C482 C484 1.415 . S
C483 C482 1.355 . S
C483 C485 1.419 . S
C484 C482 1.415 . S
C484 C489 1.425 . S
C484 C491 1.409 1_556 S
C485 H477 0.930 . S
C485 C483 1.419 . S
C485 C486 1.362 . S
C486 H478 0.930 . S
C486 C485 1.362 . S
C486 C489 1.409 . S
C487 H479 0.930 . S
C487 C488 1.355 . S
C487 C489 1.415 1_554 S
C488 C487 1.355 . S
C488 C490 1.419 . S
C489 C484 1.425 . S
C489 C486 1.409 . S
C489 C487 1.415 1_556 S
C490 H480 0.930 . S
C490 C488 1.419 . S
C490 C491 1.362 . S
C491 H481 0.930 . S
C491 C484 1.409 1_554 S
C491 C490 1.362 . S
H492 C498 0.930 . S
H493 C501 0.930 . S
H494 C502 0.930 . S
H495 C503 0.930 . S
H496 C506 0.930 . S
H497 C507 0.930 . S
C498 H492 0.930 . S
C498 C499 1.355 . S
C498 C500 1.415 . S
C499 C498 1.355 . S
C499 C501 1.419 . S
C500 C498 1.415 . S
C500 C505 1.425 . S
C500 C507 1.409 . S
C501 H493 0.930 . S
C501 C499 1.419 . S
C501 C502 1.362 . S
C502 H494 0.930 . S
C502 C501 1.362 . S
C502 C505 1.409 . S
C503 H495 0.930 . S
C503 C504 1.355 . S
C503 C505 1.415 . S
C504 C503 1.355 . S
C504 C506 1.419 . S
C505 C500 1.425 . S
C505 C502 1.409 . S
C505 C503 1.415 . S
C506 H496 0.930 . S
C506 C504 1.419 . S
C506 C507 1.362 . S
C507 H497 0.930 . S
C507 C500 1.409 . S
C507 C506 1.362 . S
H508 C514 0.930 . S
H509 C517 0.930 . S
H510 C518 0.930 . S
H511 C519 0.930 . S
H512 C522 0.930 . S
H513 C523 0.930 . S
C514 H508 0.930 . S
C514 C515 1.355 . S
C514 C516 1.415 . S
C515 C514 1.355 . S
C515 C517 1.419 . S
C516 C514 1.415 . S
C516 C521 1.425 . S
C516 C523 1.409 1_554 S
C517 H509 0.930 . S
C517 C515 1.419 . S
C517 C518 1.362 . S
C518 H510 0.930 . S
C518 C517 1.362 . S
C518 C521 1.409 . S
C519 H511 0.930 . S
C519 C520 1.355 . S
C519 C521 1.415 1_556 S
C520 C519 1.355 . S
C520 C522 1.419 . S
C521 C516 1.425 . S
C521 C518 1.409 . S
C521 C519 1.415 1_554 S
C522 H512 0.930 . S
C522 C520 1.419 . S
C522 C523 1.362 . S
C523 H513 0.930 . S
C523 C516 1.409 1_556 S
C523 C522 1.362 . S
H524 C530 0.930 . S
H525 C533 0.930 . S
H526 C534 0.930 . S
H527 C535 0.930 . S
H528 C538 0.930 . S
H529 C539 0.930 . S
C530 H524 0.930 . S
C530 C531 1.355 . S
C530 C532 1.415 . S
C531 C530 1.355 . S
C531 C533 1.419 . S
C532 C530 1.415 . S
C532 C537 1.425 . S
C532 C539 1.409 . S
C533 H525 0.930 . S
C533 C531 1.419 . S
C533 C534 1.362 . S
C534 H526 0.930 . S
C534 C533 1.362 . S
C534 C537 1.409 . S
C535 H527 0.930 . S
C535 C536 1.355 . S
C535 C537 1.415 . S
C536 C535 1.355 . S
C536 C538 1.419 . S
C537 C532 1.425 . S
C537 C534 1.409 . S
C537 C535 1.415 . S
C538 H528 0.930 . S
C538 C536 1.419 . S
C538 C539 1.362 . S
C539 H529 0.930 . S
C539 C532 1.409 . S
C539 C538 1.362 . S
C211 C3 2.602 1_556 S
C216 C139 2.634 . S
C227 C171 2.600 . S
C232 C37 2.629 . S
C243 C69 2.640 . S
C248 C103 2.611 1_554 S
C259 C22 1.790 . S
C264 C85 1.824 . S
C275 C17 1.831 . S
C280 C56 1.756 1_554 S
C291 C51 1.832 . S
C296 C83 1.778 . S
C307 C117 1.756 . S
C312 C153 1.842 . S
C323 C158 1.777 . S
C328 C187 1.833 . S
C339 C119 1.821 . S
C344 C185 1.796 1_556 S
C355 C137 1.103 . S
C360 C1 1.048 . S
C371 C173 1.156 . S
C376 C35 1.171 . S
C387 C105 1.036 . S
C392 C71 1.043 . S
C403 C15 1.354 1_556 S
C408 C124 1.320 1_554 S
C419 C49 1.406 . S
C424 C151 1.399 . S
C435 C192 1.392 . S
C440 C90 1.406 . S
C451 C6 1.183 . S
C456 C28 1.169 . S
C467 C62 1.162 . S
C472 C40 1.148 . S
C483 C96 1.166 . S
C488 C74 1.160 . S
C499 C130 1.181 . S
C504 C108 1.176 . S
C515 C142 1.183 . S
C520 C164 1.172 . S
C531 C176 1.160 . S
C536 C198 1.167 . S
