# Generated by pormake.
# Topology smd, (6)-cn, num edge types: 1
# Building blocks:
#     Node 0, Type 0, BuildingBlock: CUWYAW_clean_sbu_0, # of connection points: 6
#     Node 1, Type 0, BuildingBlock: CUWYAW_clean_sbu_0, # of connection points: 6
#     Node 2, Type 0, BuildingBlock: CUWYAW_clean_sbu_0, # of connection points: 6
#     Node 3, Type 0, BuildingBlock: CUWYAW_clean_sbu_0, # of connection points: 6
#     Node 4, Type 0, BuildingBlock: CUWYAW_clean_sbu_0, # of connection points: 6
#     Node 5, Type 0, BuildingBlock: CUWYAW_clean_sbu_0, # of connection points: 6
#     Node 6, Type 0, BuildingBlock: CUWYAW_clean_sbu_0, # of connection points: 6
#     Node 7, Type 0, BuildingBlock: CUWYAW_clean_sbu_0, # of connection points: 6
#     Node 8, Type 0, BuildingBlock: CUWYAW_clean_sbu_0, # of connection points: 6
#     Node 9, Type 0, BuildingBlock: CUWYAW_clean_sbu_0, # of connection points: 6
#     Node 10, Type 0, BuildingBlock: CUWYAW_clean_sbu_0, # of connection points: 6
#     Node 11, Type 0, BuildingBlock: CUWYAW_clean_sbu_0, # of connection points: 6
#     Node 12, Type 0, BuildingBlock: CUWYAW_clean_sbu_0, # of connection points: 6
#     Node 13, Type 0, BuildingBlock: CUWYAW_clean_sbu_0, # of connection points: 6
#     Node 14, Type 0, BuildingBlock: CUWYAW_clean_sbu_0, # of connection points: 6
#     Node 15, Type 0, BuildingBlock: CUWYAW_clean_sbu_0, # of connection points: 6
#     Node 16, Type 0, BuildingBlock: CUWYAW_clean_sbu_0, # of connection points: 6
#     Node 17, Type 0, BuildingBlock: CUWYAW_clean_sbu_0, # of connection points: 6
#     Edge 18, Type (0, 0), None
#     Edge 19, Type (0, 0), None
#     Edge 20, Type (0, 0), None
#     Edge 21, Type (0, 0), None
#     Edge 22, Type (0, 0), None
#     Edge 23, Type (0, 0), None
#     Edge 24, Type (0, 0), None
#     Edge 25, Type (0, 0), None
#     Edge 26, Type (0, 0), None
#     Edge 27, Type (0, 0), None
#     Edge 28, Type (0, 0), None
#     Edge 29, Type (0, 0), None
#     Edge 30, Type (0, 0), None
#     Edge 31, Type (0, 0), None
#     Edge 32, Type (0, 0), None
#     Edge 33, Type (0, 0), None
#     Edge 34, Type (0, 0), None
#     Edge 35, Type (0, 0), None
#     Edge 36, Type (0, 0), None
#     Edge 37, Type (0, 0), None
#     Edge 38, Type (0, 0), None
#     Edge 39, Type (0, 0), None
#     Edge 40, Type (0, 0), None
#     Edge 41, Type (0, 0), None
#     Edge 42, Type (0, 0), None
#     Edge 43, Type (0, 0), None
#     Edge 44, Type (0, 0), None
#     Edge 45, Type (0, 0), None
#     Edge 46, Type (0, 0), None
#     Edge 47, Type (0, 0), None
#     Edge 48, Type (0, 0), None
#     Edge 49, Type (0, 0), None
#     Edge 50, Type (0, 0), None
#     Edge 51, Type (0, 0), None
#     Edge 52, Type (0, 0), None
#     Edge 53, Type (0, 0), None
#     Edge 54, Type (0, 0), None
#     Edge 55, Type (0, 0), None
#     Edge 56, Type (0, 0), None
#     Edge 57, Type (0, 0), None
#     Edge 58, Type (0, 0), None
#     Edge 59, Type (0, 0), None
#     Edge 60, Type (0, 0), None
#     Edge 61, Type (0, 0), None
#     Edge 62, Type (0, 0), None
#     Edge 63, Type (0, 0), None
#     Edge 64, Type (0, 0), None
#     Edge 65, Type (0, 0), None
#     Edge 66, Type (0, 0), None
#     Edge 67, Type (0, 0), None
#     Edge 68, Type (0, 0), None
#     Edge 69, Type (0, 0), None
#     Edge 70, Type (0, 0), None
#     Edge 71, Type (0, 0), None
# Relax obj value: 0.391
# Max RMSD: 0.453
# Mean RMSD: 0.428
data_MOF--net-smd--node1-CUWYAW_clean_sbu_0--edge1-none
_symmetry_space_group_name_H-M    P1
_symmetry_Int_Tables_number       1
_symmetry_cell_setting            triclinic
loop_
_symmetry_equiv_pos_as_xyz
'x, y, z'
_cell_length_a     28.816345
_cell_length_b     29.473754
_cell_length_c     15.26654
_cell_angle_alpha  92.823532
_cell_angle_beta   92.454717
_cell_angle_gamma 119.99631
loop_
_atom_site_label
_atom_site_type_symbol
_atom_site_fract_x
_atom_site_fract_y
_atom_site_fract_z
_atom_type_partial_charge
C0 C 0.90295 0.20035 0.38052 0.0
Eu1 Eu 0.96417 0.21787 0.52218 0.0
C2 C 0.91579 0.18991 0.29148 0.0
C3 C 0.88817 0.1923 0.21617 0.0
C4 C 0.90791 0.1939 0.13353 0.0
C5 C 0.95752 0.19612 0.12511 0.0
C6 C 0.98226 0.18829 0.19962 0.0
C7 C 0.96092 0.1841 0.28145 0.0
C8 C 0.92488 0.24926 0.70594 0.0
C9 C 0.0578 0.30835 0.45947 0.0
C10 C 0.06069 0.26406 0.79901 0.0
Eu11 Eu 0.0133 0.23777 0.63841 0.0
C12 C 0.03546 0.24674 0.88323 0.0
C13 C 0.06628 0.25906 0.96373 0.0
C14 C 0.04128 0.24164 1.04194 0.0
C15 C -0.0152 0.21044 1.04123 0.0
C16 C 0.95453 0.19628 0.95981 0.0
C17 C 0.97954 0.21442 0.88255 0.0
C18 C 0.05202 0.18409 0.54394 0.0
C19 C 0.91011 0.12179 0.61818 0.0
O20 O 0.89348 0.16465 0.43571 0.0
O21 O 0.93593 0.24775 0.41648 0.0
O22 O 0.95485 0.2665 0.63803 0.0
O23 O 0.95351 0.26381 0.63894 0.0
O24 O 0.02295 0.26262 0.4259 0.0
O25 O 0.06057 0.31236 0.54863 0.0
O26 O 0.04852 0.29403 0.75571 0.0
O27 O 0.05775 0.22694 0.74637 0.0
O28 O 0.02281 0.16672 0.60944 0.0
O29 O 0.04652 0.22171 0.51997 0.0
O30 O 0.93392 0.16292 0.67536 0.0
O31 O 0.92491 0.13203 0.53967 0.0
H32 H 0.85249 0.19487 0.22134 0.0
H33 H 0.8857 0.1966 1.07724 0.0
H34 H 0.01874 0.18652 0.19534 0.0
H35 H 0.98102 0.1783 0.33759 0.0
H36 H 0.10966 0.28239 0.96682 0.0
H37 H 0.06633 0.25395 0.1031 0.0
H38 H 0.91127 0.17111 0.95519 0.0
H39 H 0.9547 0.20277 0.82215 0.0
C40 C 0.71839 0.79958 0.82107 0.0
Eu41 Eu 0.74114 0.76865 0.67528 0.0
C42 C 0.74056 0.79895 0.91069 0.0
C43 C 0.72322 0.81271 0.98686 0.0
C44 C 0.73427 0.80077 1.06902 0.0
C45 C 0.76357 0.7752 1.07737 0.0
C46 C 0.78594 0.76571 1.00393 0.0
C47 C 0.77513 0.77834 0.9211 0.0
C48 C 0.67721 0.7499 0.47559 0.0
C49 C 0.72668 0.66869 0.74253 0.0
C50 C 0.77158 0.70561 0.41907 0.0
Eu51 Eu 0.76352 0.7449 0.56964 0.0
C52 C 0.76989 0.72302 0.33066 0.0
C53 C 0.81342 0.76975 0.30529 0.0
C54 C 0.81215 0.78605 0.22154 0.0
C55 C 0.7673 0.7561 0.16237 0.0
C56 C 0.72305 0.71064 0.18811 0.0
C57 C 0.72435 0.69401 0.27161 0.0
C58 C 0.85947 0.78687 0.66392 0.0
C59 C 0.79228 0.86623 0.57847 0.0
O60 O 0.75218 0.83263 0.76925 0.0
O61 O 0.68756 0.75311 0.78029 0.0
O62 O 0.6768 0.73314 0.55545 0.0
O63 O 0.68022 0.73591 0.5542 0.0
O64 O 0.71478 0.70372 0.76541 0.0
O65 O 0.74601 0.67418 0.66273 0.0
O66 O 0.72719 0.68431 0.45868 0.0
O67 O 0.81257 0.73786 0.47201 0.0
O68 O 0.85266 0.80518 0.59196 0.0
O69 O 0.81365 0.7563 0.69087 0.0
O70 O 0.77593 0.82565 0.52081 0.0
O71 O 0.79376 0.85447 0.65839 0.0
H72 H 0.70036 0.83198 0.9857 0.0
H73 H 0.7182 0.80987 0.12591 0.0
H74 H 0.80993 0.74696 1.01011 0.0
H75 H 0.79206 0.76999 0.86494 0.0
H76 H 0.84871 0.79387 0.34979 0.0
H77 H 0.8459 0.82217 0.20324 0.0
H78 H 0.68752 0.6881 0.14344 0.0
H79 H 0.6898 0.65858 0.29001 0.0
C80 C 0.29099 0.08775 0.44393 0.0
Eu81 Eu 0.25432 0.03696 0.58125 0.0
C82 C 0.27164 0.06486 0.35267 0.0
C83 C 0.29777 0.09295 0.28256 0.0
C84 C 0.28137 0.07016 0.19645 0.0
C85 C 0.23839 0.01869 0.17842 0.0
C86 C 0.21086 -0.00939 0.24878 0.0
C87 C 0.22719 0.01374 0.33519 0.0
C88 C 0.3156 0.08266 0.75248 0.0
C89 C 0.2567 0.94845 0.48998 0.0
C90 C 0.18141 0.93945 0.81289 0.0
Eu91 Eu 0.21247 -0.00984 0.67154 0.0
C92 C 0.19554 0.95757 0.90716 0.0
C93 C 0.15515 0.94768 0.96429 0.0
C94 C 0.16861 0.96609 1.05326 0.0
C95 C 0.22281 -0.00424 1.08586 0.0
C96 C 0.26298 0.0054 1.02827 0.0
C97 C 0.24946 0.9861 0.94032 0.0
C98 C 0.12495 0.9438 0.56071 0.0
C99 C 0.18924 0.08218 0.64248 0.0
O100 O 0.25627 0.09249 0.49004 0.0
O101 O 0.31565 0.06782 0.48741 0.0
O102 O 0.3016 0.10534 0.6949 0.0
O103 O 0.29847 0.03725 0.71542 0.0
O104 O 0.28858 -0.00179 0.49703 0.0
O105 O 0.22152 0.93329 0.55415 0.0
O106 O 0.21885 0.94094 0.76646 0.0
O107 O 0.15449 0.95716 0.77144 0.0
O108 O 0.12994 0.97432 0.62839 0.0
O109 O 0.17259 0.9541 0.5443 0.0
O110 O 0.20449 0.06514 0.70941 0.0
O111 O 0.19389 0.06269 0.56817 0.0
H112 H 0.32873 0.13335 0.29388 0.0
H113 H 0.29949 0.09418 0.143 0.0
H114 H 0.1773 0.9508 0.23726 0.0
H115 H 0.20529 -0.00845 0.38836 0.0
H116 H 0.11325 0.92634 0.93987 0.0
H117 H 0.13674 0.9585 0.0957 0.0
H118 H 0.30506 0.02713 1.05168 0.0
H119 H 0.28123 -0.00698 0.89827 0.0
C120 C 0.92998 0.76227 0.38268 0.0
Eu121 Eu 0.97738 0.77001 0.53906 0.0
C122 C 0.95274 0.77632 0.29582 0.0
C123 C 0.91972 0.76297 0.21757 0.0
C124 C 0.94199 0.77505 0.13614 0.0
C125 C -0.00181 0.80313 0.13149 0.0
C126 C 0.03095 0.82035 0.2108 0.0
C127 C 0.00853 0.80676 0.29126 0.0
C128 C 0.90574 0.77719 0.67756 0.0
C129 C 0.07898 0.88856 0.56633 0.0
C130 C 0.07991 0.80597 0.79157 0.0
Eu131 Eu 0.02209 0.78803 0.64531 0.0
C132 C 0.06486 0.81545 0.87929 0.0
C133 C 0.09173 0.81344 0.9559 0.0
C134 C 0.07129 0.81161 1.03755 0.0
C135 C 0.0228 0.81163 1.04512 0.0
C136 C -0.00269 0.81693 0.96867 0.0
C137 C 0.01822 0.81891 0.88673 0.0
C138 C 0.06239 0.76686 0.45136 0.0
C139 C 0.93145 0.68544 0.6948 0.0
O140 O 0.94709 0.80192 0.44043 0.0
O141 O 0.93003 0.7229 0.41792 0.0
O142 O 0.95133 0.80647 0.64384 0.0
O143 O 0.95079 0.80456 0.64258 0.0
O144 O 0.05532 0.84935 0.50527 0.0
O145 O 0.0626 0.87476 0.64261 0.0
O146 O 0.09075 0.84189 0.73617 0.0
O147 O 0.04771 0.75875 0.75477 0.0
O148 O 0.04282 0.74869 0.52789 0.0
O149 O 0.04302 0.75132 0.52646 0.0
O150 O 0.96673 0.72966 0.73409 0.0
O151 O 0.92805 0.68702 0.60661 0.0
H152 H 0.87658 0.74189 0.2186 0.0
H153 H 0.915 0.761 1.07704 0.0
H154 H 0.07423 0.84424 0.21124 0.0
H155 H 0.03526 0.82083 0.34988 0.0
H156 H 0.12768 0.81169 0.95327 0.0
H157 H 0.09262 0.80777 0.09406 0.0
H158 H 0.96072 0.81859 0.97159 0.0
H159 H -0.00324 0.82113 0.82865 0.0
C160 C 0.20301 0.28952 0.78605 0.0
Eu161 Eu 0.20327 0.24643 0.63491 0.0
C162 C 0.19379 0.26441 0.87043 0.0
C163 C 0.14565 0.218 0.88371 0.0
C164 C 0.13971 0.19348 0.96234 0.0
C165 C 0.18255 0.21397 1.02727 0.0
C166 C 0.23097 0.25881 1.01271 0.0
C167 C 0.23664 0.28363 0.93511 0.0
C168 C 0.10501 0.1862 0.55318 0.0
C169 C 0.17536 0.12482 0.63917 0.0
C170 C 0.22113 0.15569 0.36103 0.0
Eu171 Eu 0.22046 0.20244 0.50931 0.0
C172 C 0.1995 0.15872 0.27295 0.0
C173 C 0.21872 0.14736 0.1976 0.0
C174 C 0.20965 0.16181 0.11589 0.0
C175 C 0.1799 0.18729 0.10773 0.0
C176 C 0.1561 0.19466 0.18135 0.0
C177 C 0.16556 0.18008 0.26353 0.0
C178 C 0.30413 0.24422 0.65532 0.0
C179 C 0.23452 0.30362 0.43765 0.0
O180 O 0.24714 0.29883 0.75194 0.0
O181 O 0.163 0.27204 0.72652 0.0
O182 O 0.11879 0.18038 0.63164 0.0
O183 O 0.14743 0.21612 0.51506 0.0
O184 O 0.20083 0.17043 0.6876 0.0
O185 O 0.15998 0.12852 0.56062 0.0
O186 O 0.18594 0.13164 0.41808 0.0
O187 O 0.26202 0.19964 0.39598 0.0
O188 O 0.2836 0.19837 0.6116 0.0
O189 O 0.28339 0.26621 0.61358 0.0
O190 O 0.23323 0.26074 0.41271 0.0
O191 O 0.22733 0.30992 0.5241 0.0
H192 H 0.11304 0.19977 0.83301 0.0
H193 H 0.10244 0.15789 0.97131 0.0
H194 H 0.26453 0.27462 1.06202 0.0
H195 H 0.27501 0.31761 0.92501 0.0
H196 H 0.24412 0.13091 0.20276 0.0
H197 H 0.2287 0.15603 1.0601 0.0
H198 H 0.13314 0.21453 0.17647 0.0
H199 H 0.14891 0.18828 0.32035 0.0
C200 C 0.81662 0.06142 0.38238 0.0
Eu201 Eu 0.77875 0.01352 0.52409 0.0
C202 C 0.80783 0.04673 0.28765 0.0
C203 C 0.852 0.05814 0.23868 0.0
C204 C 0.84445 0.0446 0.14822 0.0
C205 C 0.79242 0.0185 0.10689 0.0
C206 C 0.7483 0.00675 0.15581 0.0
C207 C 0.75589 0.02056 0.24571 0.0
C208 C 0.86603 0.0675 0.63256 0.0
C209 C 0.79475 0.91809 0.56497 0.0
C210 C 0.71103 0.93361 0.75579 0.0
Eu211 Eu 0.73851 0.97553 0.6098 0.0
C212 C 0.74071 0.95756 0.84194 0.0
C213 C 0.7394 0.92524 0.90567 0.0
C214 C 0.75898 0.94546 0.99209 0.0
C215 C 0.78254 -0.0006 1.01415 0.0
C216 C 0.79068 0.03331 0.94811 0.0
C217 C 0.77063 0.0123 0.86175 0.0
C218 C 0.67183 0.92793 0.44261 0.0
C219 C 0.73092 0.06155 0.69042 0.0
O220 O 0.77816 0.06223 0.42249 0.0
O221 O 0.83859 0.04001 0.4271 0.0
O222 O 0.86147 0.03198 0.57405 0.0
O223 O 0.81868 0.0587 0.64478 0.0
O224 O 0.7777 0.93221 0.49626 0.0
O225 O 0.7964 0.94583 0.63397 0.0
O226 O 0.73486 0.91867 0.70033 0.0
O227 O 0.68791 0.95707 0.71919 0.0
O228 O 0.68301 0.90462 0.50304 0.0
O229 O 0.69427 0.97491 0.4744 0.0
O230 O 0.69766 0.01207 0.68183 0.0
O231 O 0.76966 0.07443 0.63317 0.0
H232 H 0.89218 0.07682 0.27072 0.0
H233 H 0.87877 0.05321 0.11116 0.0
H234 H 0.70798 0.9869 0.1243 0.0
H235 H 0.72142 0.01176 0.28213 0.0
H236 H 0.72121 0.88428 0.88734 0.0
H237 H 0.75408 0.91923 1.04259 0.0
H238 H 0.81036 0.07541 0.96382 0.0
H239 H 0.77804 0.03875 0.81151 0.0
C240 C 0.73925 0.58926 0.12769 0.0
Eu241 Eu 0.67751 0.56004 0.98382 0.0
C242 C 0.72077 0.56918 0.21402 0.0
C243 C 0.74753 0.59979 0.29186 0.0
C244 C 0.72702 0.58359 0.37287 0.0
C245 C 0.67624 0.53888 0.37757 0.0
C246 C 0.64983 0.50693 0.29952 0.0
C247 C 0.67246 0.52143 0.21883 0.0
C248 C 0.72272 0.62862 0.80799 0.0
C249 C 0.59519 0.57907 1.05635 0.0
C250 C 0.57821 0.52029 0.70948 0.0
Eu251 Eu 0.62655 0.53694 0.86835 0.0
C252 C 0.60199 0.52392 0.6234 0.0
C253 C 0.57057 0.50673 0.5428 0.0
C254 C 0.59412 0.51007 0.46311 0.0
C255 C 0.6497 0.52925 0.4621 0.0
C256 C 0.68046 0.54348 0.54311 0.0
C257 C 0.65693 0.54115 0.62199 0.0
C258 C 0.5746 0.44702 0.95926 0.0
C259 C 0.72352 0.51262 0.8718 0.0
O260 O 0.73706 0.55474 1.06798 0.0
O261 O 0.71997 0.61741 0.09628 0.0
O262 O 0.6959 0.62154 0.87985 0.0
O263 O 0.69661 0.61945 0.87825 0.0
O264 O 0.62684 0.56388 1.08589 0.0
O265 O 0.58937 0.57625 0.9673 0.0
O266 O 0.59588 0.56371 0.75934 0.0
O267 O 0.57636 0.48378 0.75534 0.0
O268 O 0.59704 0.44983 0.88656 0.0
O269 O 0.5912 0.49411 0.98645 0.0
O270 O 0.70328 0.53483 0.82407 0.0
O271 O 0.70276 0.50194 0.94614 0.0
H272 H 0.78301 0.63772 0.29009 0.0
H273 H 0.74959 0.60824 0.43145 0.0
H274 H 0.61135 0.47125 0.30041 0.0
H275 H 0.65076 0.49659 0.15959 0.0
H276 H 0.52784 0.49053 0.54012 0.0
H277 H 0.56877 0.49875 0.40238 0.0
H278 H 0.72302 0.55684 0.54605 0.0
H279 H 0.68208 0.55261 0.68192 0.0
C280 C 0.42851 0.17449 0.15843 0.0
Eu281 Eu 0.43576 0.13172 1.00988 0.0
C282 C 0.45244 0.17564 0.24802 0.0
C283 C 0.43302 0.18767 0.32283 0.0
C284 C 0.44072 0.1726 0.4052 0.0
C285 C 0.46973 0.14641 0.41488 0.0
C286 C 0.49535 0.14034 0.34276 0.0
C287 C 0.4877 0.15595 0.26032 0.0
C288 C 0.35004 0.1106 0.84196 0.0
C289 C 0.4156 0.03039 1.08355 0.0
C290 C 0.43733 0.04179 0.73697 0.0
Eu291 Eu 0.44044 0.0878 0.88877 0.0
C292 C 0.44955 0.0672 0.65256 0.0
C293 C 0.49452 0.11766 0.64699 0.0
C294 C 0.5027 0.14311 0.56886 0.0
C295 C 0.4657 0.11882 0.4953 0.0
C296 C 0.42082 0.06898 0.50111 0.0
C297 C 0.41241 0.04381 0.5792 0.0
C298 C 0.54407 0.14616 0.95587 0.0
C299 C 0.47027 0.21064 0.87394 0.0
O300 O 0.46154 0.20187 0.10039 0.0
O301 O 0.39221 0.1277 0.12438 0.0
O302 O 0.36311 0.08764 0.90336 0.0
O303 O 0.36453 0.0897 0.90301 0.0
O304 O 0.43571 0.07876 0.11053 0.0
O305 O 0.40829 0.02127 0.99482 0.0
O306 O 0.39446 0.03636 0.77075 0.0
O307 O 0.47676 0.05738 0.79692 0.0
O308 O 0.52503 0.15498 0.88491 0.0
O309 O 0.5047 0.11512 0.99739 0.0
O310 O 0.45132 0.16448 0.82925 0.0
O311 O 0.48135 0.21094 0.95723 0.0
H312 H 0.40836 0.20502 0.31677 0.0
H313 H 0.42107 0.17838 0.46008 0.0
H314 H 0.51879 0.12103 0.34895 0.0
H315 H 0.50698 0.14981 0.20544 0.0
H316 H 0.52245 0.13837 0.70375 0.0
H317 H 0.53698 0.1822 0.56667 0.0
H318 H 0.39154 0.04997 0.44519 0.0
H319 H 0.3761 0.00649 0.58302 0.0
C320 C 0.85674 0.27421 0.10204 0.0
Eu321 Eu 0.8898 0.32338 0.96179 0.0
C322 C 0.85584 0.2959 0.18972 0.0
C323 C 0.82041 0.2642 0.24857 0.0
C324 C 0.82624 0.28204 0.33653 0.0
C325 C 0.86808 0.33269 0.36606 0.0
C326 C 0.89927 0.36672 0.304 0.0
C327 C 0.89163 0.34871 0.21609 0.0
C328 C 0.9326 0.2883 0.7844 0.0
C329 C -0.01492 0.39761 1.0562 0.0
C330 C 0.93233 0.40275 0.72943 0.0
Eu331 Eu 0.8987 0.35536 0.87168 0.0
C332 C 0.91849 0.38333 0.63731 0.0
C333 C 0.9221 0.4186 0.57788 0.0
C334 C 0.90412 0.40234 0.49024 0.0
C335 C 0.88148 0.34921 0.46073 0.0
C336 C 0.87373 0.31259 0.52246 0.0
C337 C 0.89014 0.32963 0.61081 0.0
C338 C 0.85994 0.41309 0.94282 0.0
C339 C 0.77986 0.26636 0.87733 0.0
O340 O 0.82416 0.27533 1.04184 0.0
O341 O 0.90463 0.28982 1.07561 0.0
O342 O 0.89615 0.27477 0.84284 0.0
O343 O 0.89859 0.27853 0.84343 0.0
O344 O 0.96357 0.34787 1.04989 0.0
O345 O 0.96653 0.41339 0.98946 0.0
O346 O 0.96118 0.38921 0.77764 0.0
O347 O 0.89149 0.39858 0.76756 0.0
O348 O 0.834 0.37667 0.87949 0.0
O349 O 0.89776 0.40701 0.97656 0.0
O350 O 0.81544 0.28113 0.81958 0.0
O351 O 0.80094 0.29222 0.95256 0.0
H352 H 0.78958 0.22542 0.22682 0.0
H353 H 0.79906 0.25567 0.38121 0.0
H354 H 0.93123 0.4065 0.32295 0.0
H355 H 0.9147 0.37567 0.16941 0.0
H356 H 0.93642 0.45822 0.60217 0.0
H357 H 0.90735 0.43122 0.44619 0.0
H358 H 0.855 0.27096 0.50327 0.0
H359 H 0.87827 0.30089 0.65824 0.0
C360 C 0.58182 0.06762 0.69313 0.0
Eu361 Eu 0.63456 0.09469 0.85025 0.0
C362 C 0.6041 0.08579 0.60739 0.0
C363 C 0.57149 0.0695 0.52812 0.0
C364 C 0.5947 0.08481 0.44748 0.0
C365 C 0.65091 0.11668 0.44497 0.0
C366 C 0.68255 0.13563 0.52528 0.0
C367 C 0.65942 0.12048 0.60494 0.0
C368 C 0.59493 0.14538 0.94934 0.0
C369 C 0.73173 0.21366 0.87959 0.0
C370 C 0.7409 0.12738 0.10718 0.0
Eu371 Eu 0.68471 0.11517 0.96234 0.0
C372 C 0.72211 0.13146 0.19555 0.0
C373 C 0.74574 0.12487 0.27207 0.0
C374 C 0.72442 0.12363 0.35333 0.0
C375 C 0.67727 0.12624 0.35991 0.0
C376 C 0.65579 0.1368 0.28452 0.0
C377 C 0.67942 0.14159 0.20429 0.0
C378 C 0.73037 0.09621 0.77223 0.0
C379 C 0.59529 0.02333 1.02848 0.0
O380 O 0.59755 0.03936 0.7333 0.0
O381 O 0.58499 0.10393 0.74794 0.0
O382 O 0.61993 0.16243 0.87971 0.0
O383 O 0.60158 0.10803 0.97066 0.0
O384 O 0.71144 0.17406 0.81897 0.0
O385 O 0.71618 0.20004 0.95619 0.0
O386 O 0.75233 0.16619 1.05743 0.0
O387 O 0.71198 0.08155 1.06303 0.0
O388 O 0.69983 0.07441 0.83874 0.0
O389 O 0.70088 0.07693 0.83818 0.0
O390 O 0.62568 0.07053 1.05844 0.0
O391 O 0.59367 0.01838 0.93956 0.0
H392 H 0.52846 0.04364 0.52824 0.0
H393 H 0.56893 0.06951 0.38701 0.0
H394 H 0.72562 0.16165 0.52674 0.0
H395 H 0.6852 0.13546 0.6648 0.0
H396 H 0.78109 0.12141 0.26925 0.0
H397 H 0.74407 0.11951 0.41133 0.0
H398 H 0.62113 0.14182 0.28768 0.0
H399 H 0.66338 0.15216 0.14858 0.0
C400 C 0.92089 0.53148 0.6857 0.0
Eu401 Eu 0.90042 0.55361 0.84394 0.0
C402 C 0.90378 0.53786 0.59571 0.0
C403 C 0.92752 0.53061 0.5221 0.0
C404 C 0.91008 0.53359 0.43692 0.0
C405 C 0.87008 0.54675 0.42292 0.0
C406 C 0.84519 0.55319 0.49618 0.0
C407 C 0.8611 0.54766 0.58143 0.0
C408 C 0.86229 0.46448 0.93078 0.0
C409 C 0.77928 0.5215 0.86835 0.0
C410 C 0.86812 0.62253 1.0817 0.0
Eu411 Eu 0.88829 0.58283 0.94461 0.0
C412 C 0.85976 0.59874 0.16724 0.0
C413 C 0.86318 0.62778 0.2444 0.0
C414 C 0.86172 0.60843 0.32657 0.0
C415 C 0.86042 0.56075 0.33419 0.0
C416 C 0.85677 0.53086 0.2566 0.0
C417 C 0.85567 0.54937 0.17383 0.0
C418 C 0.9009 0.63821 0.7517 0.0
C419 C -0.01313 0.59585 1.0295 0.0
O420 O 0.95429 0.57339 0.73592 0.0
O421 O 0.88238 0.49851 0.72948 0.0
O422 O 0.83955 0.46843 0.85899 0.0
O423 O 0.89929 0.51033 0.95949 0.0
O424 O 0.81522 0.54695 0.8124 0.0
O425 O 0.80214 0.51954 0.94043 0.0
O426 O 0.83179 0.59555 1.01658 0.0
O427 O 0.91686 0.64109 1.05764 0.0
O428 O 0.92171 0.63932 0.83213 0.0
O429 O 0.91892 0.63659 0.8304 0.0
O430 O 0.95077 0.60574 1.05127 0.0
O431 O 0.97923 0.57581 0.94494 0.0
H432 H 0.96094 0.52408 0.52972 0.0
H433 H 0.93009 0.5284 0.38213 0.0
H434 H 0.81372 0.56286 0.48757 0.0
H435 H 0.84027 0.55144 0.63606 0.0
H436 H 0.86608 0.66515 0.2413 0.0
H437 H 0.86305 0.63147 0.38479 0.0
H438 H 0.85592 0.49383 0.26001 0.0
H439 H 0.85403 0.52621 0.11523 0.0
C440 C 0.47045 0.38736 0.70019 0.0
Eu441 Eu 0.43284 0.35024 0.85108 0.0
C442 C 0.45701 0.37204 0.60504 0.0
C443 C 0.49752 0.37815 0.55066 0.0
C444 C 0.48528 0.36209 0.46069 0.0
C445 C 0.43188 0.33793 0.42419 0.0
C446 C 0.39143 0.33142 0.47939 0.0
C447 C 0.40419 0.34975 0.56817 0.0
C448 C 0.51589 0.40861 0.95981 0.0
C449 C 0.44878 0.24552 0.84954 0.0
C450 C 0.37599 0.24925 1.06212 0.0
Eu451 Eu 0.39792 0.29662 0.91855 0.0
C452 C 0.39039 0.27297 0.15387 0.0
C453 C 0.35905 0.24556 0.22063 0.0
C454 C 0.37248 0.2675 0.30755 0.0
C455 C 0.41759 0.31721 0.33009 0.0
C456 C 0.44915 0.34523 0.26285 0.0
C457 C 0.43562 0.32328 0.17545 0.0
C458 C 0.33409 0.26164 0.75045 0.0
C459 C 0.39015 0.38264 1.03021 0.0
O460 O 0.43942 0.39874 0.74379 0.0
O461 O 0.48388 0.35859 0.74373 0.0
O462 O 0.48485 0.42558 0.93005 0.0
O463 O 0.49342 0.35822 0.94391 0.0
O464 O 0.47543 0.29758 0.85963 0.0
O465 O 0.3987 0.22715 0.85813 0.0
O466 O 0.41679 0.25676 1.01787 0.0
O467 O 0.34085 0.25633 1.01637 0.0
O468 O 0.3556 0.23837 0.79096 0.0
O469 O 0.34678 0.30238 0.8019 0.0
O470 O 0.36527 0.33188 1.02088 0.0
O471 O 0.41867 0.40299 0.96141 0.0
H472 H 0.5387 0.39526 0.57794 0.0
H473 H 0.51728 0.36702 0.42042 0.0
H474 H 0.34997 0.31344 0.45329 0.0
H475 H 0.37292 0.34676 0.60817 0.0
H476 H 0.32584 0.20622 0.20606 0.0
H477 H 0.3506 0.24376 0.35871 0.0
H478 H 0.4841 0.38393 0.27772 0.0
H479 H 0.46059 0.34556 0.12477 0.0
C480 C 0.24652 0.87729 1.06835 0.0
Eu481 Eu 0.30034 0.89257 0.21731 0.0
C482 C 0.2654 0.87019 0.98138 0.0
C483 C 0.24081 0.87362 0.90343 0.0
C484 C 0.26215 0.87422 0.82268 0.0
C485 C 0.31199 0.87672 0.81736 0.0
C486 C 0.33585 0.87071 0.8951 0.0
C487 C 0.31161 0.86539 0.97531 0.0
C488 C 0.25712 0.91382 0.40767 0.0
C489 C 0.39283 0.98791 0.15116 0.0
C490 C 0.40519 0.92895 0.47771 0.0
Eu491 Eu 0.35196 0.91562 0.32401 0.0
C492 C 0.38367 0.91679 0.56629 0.0
C493 C 0.41698 0.93163 0.64486 0.0
C494 C 0.39443 0.9171 0.72661 0.0
C495 C 0.33808 0.88684 0.73121 0.0
C496 C 0.30581 0.86985 0.65142 0.0
C497 C 0.32808 0.88541 0.57151 0.0
C498 C 0.41047 0.89165 0.18081 0.0
C499 C 0.25086 0.79696 0.30789 0.0
O500 O 0.2329 0.83996 0.12215 0.0
O501 O 0.27642 0.9239 0.1093 0.0
O502 O 0.28597 0.93514 0.33932 0.0
O503 O 0.28515 0.93287 0.33987 0.0
O504 O 0.35772 0.94172 0.12115 0.0
O505 O 0.39694 -0.00687 0.2401 0.0
O506 O 0.40452 0.96702 0.43893 0.0
O507 O 0.38693 0.888 0.42269 0.0
O508 O 0.36675 0.8686 0.22148 0.0
O509 O 0.36741 0.87054 0.22234 0.0
O510 O 0.27854 0.83721 0.36641 0.0
O511 O 0.25766 0.80779 0.22771 0.0
H512 H 0.20366 0.87374 0.90454 0.0
H513 H 0.23982 0.874 0.76429 0.0
H514 H 0.37288 0.86973 0.89404 0.0
H515 H 0.33017 0.85931 1.03308 0.0
H516 H 0.4602 0.95515 0.64335 0.0
H517 H 0.42107 0.93116 0.78613 0.0
H518 H 0.2627 0.84443 0.64974 0.0
H519 H 0.30115 0.87218 0.51344 0.0
C520 C 0.05775 0.47531 0.46621 0.0
Eu521 Eu 0.09101 0.44814 0.32897 0.0
C522 C 0.08045 0.48371 0.55794 0.0
C523 C 0.05424 0.49064 0.62771 0.0
C524 C 0.0681 0.48527 0.71384 0.0
C525 C 0.10857 0.4727 0.73087 0.0
C526 C 0.13996 0.47363 0.66232 0.0
C527 C 0.12652 0.48003 0.57678 0.0
C528 C 0.01932 0.43106 0.14041 0.0
C529 C 0.08156 0.35281 0.39761 0.0
C530 C 0.11506 0.38516 1.05888 0.0
Eu531 Eu 0.10888 0.42127 0.21573 0.0
C532 C 0.11357 0.4078 0.97535 0.0
C533 C 0.12147 0.38752 0.89688 0.0
C534 C 0.12233 0.41009 0.8182 0.0
C535 C 0.11406 0.45321 0.81635 0.0
C536 C 0.10686 0.47422 0.89564 0.0
C537 C 0.10716 0.45197 0.97421 0.0
C538 C 0.20822 0.47184 0.29767 0.0
C539 C 0.14023 0.54399 0.24127 0.0
O540 O 0.08935 0.50855 0.41273 0.0
O541 O 0.03509 0.42663 0.4323 0.0
O542 O 0.02597 0.40858 0.20988 0.0
O543 O 0.02788 0.41116 0.20891 0.0
O544 O 0.09822 0.39946 0.42956 0.0
O545 O 0.07657 0.34793 0.30878 0.0
O546 O 0.07129 0.36443 0.09938 0.0
O547 O 0.15611 0.41508 0.11308 0.0
O548 O 0.19423 0.4876 0.22939 0.0
O549 O 0.16577 0.43776 0.33008 0.0
O550 O 0.11651 0.50317 0.18311 0.0
O551 O 0.14914 0.53213 0.31738 0.0
H552 H 0.02299 0.49984 0.61547 0.0
H553 H 0.04491 0.48778 0.7658 0.0
H554 H 0.17352 0.46723 0.67407 0.0
H555 H 0.15079 0.47969 0.52494 0.0
H556 H 0.12685 0.35411 0.89655 0.0
H557 H 0.1278 0.39259 0.75837 0.0
H558 H 0.10113 0.50787 0.89718 0.0
H559 H 0.1022 0.46936 1.03375 0.0
C560 C 0.588 0.73816 1.07449 0.0
Eu561 Eu 0.55772 0.6836 0.20927 0.0
C562 C 0.56379 0.72179 0.98317 0.0
C563 C 0.59065 0.75319 0.91717 0.0
C564 C 0.576 0.73553 0.82917 0.0
C565 C 0.53402 0.68444 0.80513 0.0
C566 C 0.50316 0.65365 0.87085 0.0
C567 C 0.51724 0.67289 0.95955 0.0
C568 C 0.62613 0.72275 0.41093 0.0
C569 C 0.57363 0.60328 0.12233 0.0
C570 C 0.52442 0.60525 0.44958 0.0
Eu571 Eu 0.54224 0.65027 0.30035 0.0
C572 C 0.53083 0.62702 0.54073 0.0
C573 C 0.52439 0.5958 0.61013 0.0
C574 C 0.52237 0.61314 0.6958 0.0
C575 C 0.52746 0.66266 0.71336 0.0
C576 C 0.53316 0.69384 0.64337 0.0
C577 C 0.5346 0.67607 0.55787 0.0
C578 C 0.44281 0.59017 0.21568 0.0
C579 C 0.51178 0.74118 0.28572 0.0
O580 O 0.55836 0.74331 0.13181 0.0
O581 O 0.61159 0.7132 0.10358 0.0
O582 O 0.62805 0.71839 0.32342 0.0
O583 O 0.62497 0.71703 0.32601 0.0
O584 O 0.5541 0.6306 0.09583 0.0
O585 O 0.57955 0.60715 0.21055 0.0
O586 O 0.56698 0.61674 0.40824 0.0
O587 O 0.48965 0.61016 0.40149 0.0
O588 O 0.45364 0.62413 0.28122 0.0
O589 O 0.48714 0.59881 0.18902 0.0
O590 O 0.5442 0.73238 0.33621 0.0
O591 O 0.49619 0.70916 0.21695 0.0
H592 H 0.62355 0.79131 0.93395 0.0
H593 H 0.59988 0.76094 0.78041 0.0
H594 H 0.46933 0.61448 0.85392 0.0
H595 H 0.49307 0.6487 1.00919 0.0
H596 H 0.51991 0.55768 0.59788 0.0
H597 H 0.51817 0.58838 0.7485 0.0
H598 H 0.53656 0.732 0.65476 0.0
H599 H 0.53732 0.70016 0.50489 0.0
C600 C 0.25314 0.39747 1.03297 0.0
Eu601 Eu 0.29934 0.41915 0.19456 0.0
C602 C 0.27856 0.4177 0.94929 0.0
C603 C 0.2479 0.40182 0.86852 0.0
C604 C 0.2715 0.4204 0.78964 0.0
C605 C 0.32706 0.45592 0.78943 0.0
C606 C 0.35746 0.47398 0.87121 0.0
C607 C 0.33346 0.45529 0.94962 0.0
C608 C 0.25841 0.46966 0.29188 0.0
C609 C 0.39677 0.53697 0.22234 0.0
C610 C 0.40942 0.46159 0.44834 0.0
Eu611 Eu 0.34757 0.43914 0.3052 0.0
C612 C 0.39515 0.47212 0.53722 0.0
C613 C 0.42268 0.47132 0.61437 0.0
C614 C 0.40368 0.4726 0.69695 0.0
C615 C 0.35365 0.46925 0.70435 0.0
C616 C 0.32764 0.47363 0.62771 0.0
C617 C 0.34917 0.47684 0.54575 0.0
C618 C 0.38853 0.41604 0.11328 0.0
C619 C 0.25638 0.34715 0.37286 0.0
O620 O 0.26528 0.36655 1.07331 0.0
O621 O 0.25506 0.43272 0.08889 0.0
O622 O 0.2844 0.48687 0.22316 0.0
O623 O 0.26446 0.43206 0.31332 0.0
O624 O 0.37814 0.49652 0.16477 0.0
O625 O 0.37902 0.52458 0.298 0.0
O626 O 0.418 0.49627 0.3912 0.0
O627 O 0.37845 0.4136 0.41301 0.0
O628 O 0.3622 0.39529 0.18434 0.0
O629 O 0.36304 0.39806 0.18334 0.0
O630 O 0.29129 0.39315 0.40452 0.0
O631 O 0.25381 0.34289 0.2835 0.0
H632 H 0.20594 0.37323 0.86568 0.0
H633 H 0.24644 0.4048 0.72849 0.0
H634 H 0.40006 0.50234 0.87494 0.0
H635 H 0.35828 0.47026 1.01025 0.0
H636 H 0.45801 0.468 0.61147 0.0
H637 H 0.42669 0.4729 0.75484 0.0
H638 H 0.29015 0.4736 0.6307 0.0
H639 H 0.32811 0.4802 0.48829 0.0
C640 C 0.53773 0.95445 0.43403 0.0
Eu641 Eu 0.54634 0.91581 0.28229 0.0
C642 C 0.53259 0.93163 0.52018 0.0
C643 C 0.48873 0.88196 0.53572 0.0
C644 C 0.48692 0.85996 0.61624 0.0
C645 C 0.52903 0.8873 0.68182 0.0
C646 C 0.57161 0.93666 0.66636 0.0
C647 C 0.57415 0.95815 0.58626 0.0
C648 C 0.45076 0.87444 0.18864 0.0
C649 C 0.5146 0.79311 0.27357 0.0
C650 C 0.59269 0.85806 1.02474 0.0
Eu651 Eu 0.56496 0.88522 0.16847 0.0
C652 C 0.56928 0.85459 0.93381 0.0
C653 C 0.59865 0.85794 0.86165 0.0
C654 C 0.58014 0.85997 0.77712 0.0
C655 C 0.53432 0.86435 0.76327 0.0
C656 C 0.50266 0.85853 0.83396 0.0
C657 C 0.5193 0.85208 0.91833 0.0
C658 C 0.63717 0.90061 0.35332 0.0
C659 C 0.57588 0.98084 0.09461 0.0
O660 O 0.58351 0.97176 0.39951 0.0
O661 O 0.49788 0.92867 0.37542 0.0
O662 O 0.45711 0.85659 0.26125 0.0
O663 O 0.4962 0.90247 0.16022 0.0
O664 O 0.53515 0.83511 0.3295 0.0
O665 O 0.50805 0.80247 0.19369 0.0
O666 O 0.56037 0.82428 1.07695 0.0
O667 O 0.62054 0.90542 1.06423 0.0
O668 O 0.62912 0.92553 0.28912 0.0
O669 O 0.6275 0.92315 0.28944 0.0
O670 O 0.55831 0.9334 1.06587 0.0
O671 O 0.58087 0.98757 0.18386 0.0
H672 H 0.45656 0.85941 0.48511 0.0
H673 H 0.45386 0.82128 0.626 0.0
H674 H 0.6034 0.9583 0.71748 0.0
H675 H 0.60919 -0.00476 0.57547 0.0
H676 H 0.63649 0.85977 0.87016 0.0
H677 H 0.60399 0.86236 0.7228 0.0
H678 H 0.46702 0.86189 0.82514 0.0
H679 H 0.49469 0.8483 0.9722 0.0
C680 C 0.14506 0.72888 1.06251 0.0
Eu681 Eu 0.11697 0.68787 0.21369 0.0
C682 C 0.13701 0.70552 0.97133 0.0
C683 C 0.15423 0.73846 0.9031 0.0
C684 C 0.14337 0.71834 0.81574 0.0
C685 C 0.11672 0.66405 0.79529 0.0
C686 C 0.1041 0.63036 0.86327 0.0
C687 C 0.115 0.6512 0.95116 0.0
C688 C 0.20849 0.74299 0.32254 0.0
C689 C 0.13935 0.59403 0.23899 0.0
C690 C 0.04285 0.59254 0.43155 0.0
Eu691 Eu 0.0888 0.64987 0.30643 0.0
C692 C 0.06085 0.60783 0.5263 0.0
C693 C 0.10481 0.60528 0.56429 0.0
C694 C 0.12224 0.62181 0.6531 0.0
C695 C 0.09753 0.64339 0.70364 0.0
C696 C 0.05606 0.64899 0.6648 0.0
C697 C 0.03764 0.63111 0.57745 0.0
C698 C 0.02928 0.60444 0.10245 0.0
C699 C 0.07626 0.73437 0.38656 0.0
O700 O 0.10325 0.72412 0.09995 0.0
O701 O 0.1751 0.71969 0.11515 0.0
O702 O 0.20176 0.70851 0.26037 0.0
O703 O 0.16185 0.73408 0.33591 0.0
O704 O 0.11528 0.6072 0.1795 0.0
O705 O 0.14624 0.61981 0.31287 0.0
O706 O 0.07395 0.58402 0.38159 0.0
O707 O 0.02443 0.62009 0.39456 0.0
O708 O 0.03001 0.62704 0.18075 0.0
O709 O 0.03226 0.62665 0.17948 0.0
O710 O 0.08107 0.6972 0.41563 0.0
O711 O 0.08619 0.73973 0.30046 0.0
H712 H 0.17594 0.77975 0.91762 0.0
H713 H 0.15476 0.74512 0.76414 0.0
H714 H 0.08444 0.5882 0.84843 0.0
H715 H 0.10625 0.62496 1.00267 0.0
H716 H 0.12614 0.59102 0.52562 0.0
H717 H 0.15563 0.61889 0.68164 0.0
H718 H 0.03763 0.667 0.70243 0.0
H719 H 0.00562 0.63639 0.54958 0.0
loop_
_geom_bond_atom_site_label_1
_geom_bond_atom_site_label_2
_geom_bond_distance
_geom_bond_site_symmetry_2
_ccdc_geom_bond_type
C0 Eu1 2.835 . S
C0 C2 1.500 . S
C0 O20 1.257 1_655 S
C0 O21 1.260 . S
Eu1 C0 2.835 . S
Eu1 O20 2.473 1_655 S
Eu1 O21 2.480 . S
Eu1 O22 2.430 . S
Eu1 O23 2.670 . S
Eu1 O24 2.394 1_655 S
Eu1 O29 2.355 1_655 S
Eu1 O31 2.374 . S
C2 C0 1.500 . S
C2 C3 1.377 . S
C2 C7 1.377 1_655 S
C3 C2 1.377 . S
C3 C4 1.395 . S
C3 H32 0.931 . S
C4 C3 1.395 . S
C4 C5 1.383 . S
C4 H33 0.931 . S
C5 C4 1.383 . S
C5 C6 1.394 1_655 S
C6 C5 1.394 1_455 S
C6 C7 1.378 . S
C6 H34 0.931 . S
C7 C2 1.377 1_455 S
C7 C6 1.378 . S
C7 H35 0.931 . S
C8 O22 1.259 . S
C8 O23 1.270 . S
C9 O24 1.251 . S
C9 O25 1.251 . S
C10 Eu11 2.835 . S
C10 C12 1.500 . S
C10 O26 1.257 . S
C10 O27 1.260 . S
Eu11 C10 2.835 . S
Eu11 O23 2.355 1_455 S
Eu11 O25 2.374 . S
Eu11 O26 2.473 . S
Eu11 O27 2.480 . S
Eu11 O28 2.430 . S
Eu11 O29 2.670 . S
Eu11 O30 2.394 . S
C12 C10 1.500 . S
C12 C13 1.377 . S
C12 C17 1.377 1_455 S
C13 C12 1.377 . S
C13 C14 1.395 . S
C13 H36 0.931 . S
C14 C13 1.395 . S
C14 C15 1.383 . S
C14 H37 0.931 . S
C15 C14 1.383 . S
C15 C16 1.394 1_455 S
C16 C15 1.394 1_655 S
C16 C17 1.378 . S
C16 H38 0.931 . S
C17 C12 1.377 1_655 S
C17 C16 1.378 . S
C17 H39 0.931 . S
C18 O28 1.259 . S
C18 O29 1.270 . S
C19 O30 1.251 1_655 S
C19 O31 1.251 . S
O20 C0 1.257 1_455 S
O20 Eu1 2.473 1_455 S
O21 C0 1.260 . S
O21 Eu1 2.480 . S
O22 Eu1 2.430 . S
O22 C8 1.259 . S
O23 Eu1 2.670 . S
O23 C8 1.270 . S
O23 Eu11 2.355 1_655 S
O24 Eu1 2.394 1_455 S
O24 C9 1.251 . S
O25 C9 1.251 . S
O25 Eu11 2.374 . S
O26 C10 1.257 . S
O26 Eu11 2.473 . S
O27 C10 1.260 . S
O27 Eu11 2.480 . S
O28 Eu11 2.430 . S
O28 C18 1.259 . S
O29 Eu1 2.355 1_455 S
O29 Eu11 2.670 . S
O29 C18 1.270 . S
O30 Eu11 2.394 . S
O30 C19 1.251 1_455 S
O31 Eu1 2.374 . S
O31 C19 1.251 . S
H32 C3 0.931 . S
H33 C4 0.931 . S
H34 C6 0.931 . S
H35 C7 0.931 . S
H36 C13 0.931 . S
H37 C14 0.931 . S
H38 C16 0.931 . S
H39 C17 0.931 . S
C40 Eu41 2.835 . S
C40 C42 1.500 . S
C40 O60 1.257 . S
C40 O61 1.260 . S
Eu41 C40 2.835 . S
Eu41 O60 2.473 . S
Eu41 O61 2.480 . S
Eu41 O62 2.430 . S
Eu41 O63 2.670 . S
Eu41 O64 2.394 . S
Eu41 O69 2.355 . S
Eu41 O71 2.374 . S
C42 C40 1.500 . S
C42 C43 1.377 . S
C42 C47 1.377 . S
C43 C42 1.377 . S
C43 C44 1.395 . S
C43 H72 0.931 . S
C44 C43 1.395 . S
C44 C45 1.383 . S
C44 H73 0.931 . S
C45 C44 1.383 . S
C45 C46 1.394 . S
C46 C45 1.394 . S
C46 C47 1.378 . S
C46 H74 0.931 . S
C47 C42 1.377 . S
C47 C46 1.378 . S
C47 H75 0.931 . S
C48 O62 1.259 . S
C48 O63 1.270 . S
C49 O64 1.251 . S
C49 O65 1.251 . S
C50 Eu51 2.835 . S
C50 C52 1.500 . S
C50 O66 1.257 . S
C50 O67 1.260 . S
Eu51 C50 2.835 . S
Eu51 O63 2.355 . S
Eu51 O65 2.374 . S
Eu51 O66 2.473 . S
Eu51 O67 2.480 . S
Eu51 O68 2.430 . S
Eu51 O69 2.670 . S
Eu51 O70 2.394 . S
C52 C50 1.500 . S
C52 C53 1.377 . S
C52 C57 1.377 . S
C53 C52 1.377 . S
C53 C54 1.395 . S
C53 H76 0.931 . S
C54 C53 1.395 . S
C54 C55 1.383 . S
C54 H77 0.931 . S
C55 C54 1.383 . S
C55 C56 1.394 . S
C56 C55 1.394 . S
C56 C57 1.378 . S
C56 H78 0.931 . S
C57 C52 1.377 . S
C57 C56 1.378 . S
C57 H79 0.931 . S
C58 O68 1.259 . S
C58 O69 1.270 . S
C59 O70 1.251 . S
C59 O71 1.251 . S
O60 C40 1.257 . S
O60 Eu41 2.473 . S
O61 C40 1.260 . S
O61 Eu41 2.480 . S
O62 Eu41 2.430 . S
O62 C48 1.259 . S
O63 Eu41 2.670 . S
O63 C48 1.270 . S
O63 Eu51 2.355 . S
O64 Eu41 2.394 . S
O64 C49 1.251 . S
O65 C49 1.251 . S
O65 Eu51 2.374 . S
O66 C50 1.257 . S
O66 Eu51 2.473 . S
O67 C50 1.260 . S
O67 Eu51 2.480 . S
O68 Eu51 2.430 . S
O68 C58 1.259 . S
O69 Eu41 2.355 . S
O69 Eu51 2.670 . S
O69 C58 1.270 . S
O70 Eu51 2.394 . S
O70 C59 1.251 . S
O71 Eu41 2.374 . S
O71 C59 1.251 . S
H72 C43 0.931 . S
H73 C44 0.931 . S
H74 C46 0.931 . S
H75 C47 0.931 . S
H76 C53 0.931 . S
H77 C54 0.931 . S
H78 C56 0.931 . S
H79 C57 0.931 . S
C80 Eu81 2.835 . S
C80 C82 1.500 . S
C80 O100 1.251 1_545 S
C80 O101 1.260 . S
Eu81 C80 2.835 . S
Eu81 O100 2.465 1_545 S
Eu81 O101 2.480 . S
Eu81 O102 2.430 . S
Eu81 O103 2.670 . S
Eu81 O104 2.394 1_545 S
Eu81 O109 2.355 1_545 S
Eu81 O111 2.374 . S
C82 C80 1.500 . S
C82 C83 1.377 . S
C82 C87 1.377 1_545 S
C83 C82 1.377 . S
C83 C84 1.395 . S
C83 H112 0.931 . S
C84 C83 1.395 . S
C84 C85 1.383 . S
C84 H113 0.931 . S
C85 C84 1.383 . S
C85 C86 1.394 1_545 S
C86 C85 1.394 1_565 S
C86 C87 1.378 . S
C86 H114 0.931 . S
C87 C82 1.377 1_565 S
C87 C86 1.378 . S
C87 H115 0.931 . S
C88 O102 1.259 . S
C88 O103 1.270 . S
C89 O104 1.251 . S
C89 O105 1.251 . S
C90 Eu91 2.835 . S
C90 C92 1.500 . S
C90 O106 1.257 1_565 S
C90 O107 1.260 . S
Eu91 C90 2.835 . S
Eu91 O103 2.355 1_565 S
Eu91 O105 2.374 . S
Eu91 O106 2.473 1_565 S
Eu91 O107 2.480 . S
Eu91 O108 2.430 . S
Eu91 O109 2.670 . S
Eu91 O110 2.394 1_565 S
C92 C90 1.500 . S
C92 C93 1.377 . S
C92 C97 1.377 1_565 S
C93 C92 1.377 . S
C93 C94 1.395 . S
C93 H116 0.931 . S
C94 C93 1.395 . S
C94 C95 1.383 1_565 S
C94 H117 0.931 . S
C95 C94 1.383 1_545 S
C95 C96 1.394 . S
C96 C95 1.394 . S
C96 C97 1.378 . S
C96 H118 0.931 . S
C97 C92 1.377 1_545 S
C97 C96 1.378 . S
C97 H119 0.931 . S
C98 O108 1.259 . S
C98 O109 1.270 . S
C99 O110 1.251 . S
C99 O111 1.251 . S
O100 C80 1.251 1_565 S
O100 Eu81 2.465 1_565 S
O101 C80 1.260 . S
O101 Eu81 2.480 . S
O102 Eu81 2.430 . S
O102 C88 1.259 . S
O103 Eu81 2.670 . S
O103 C88 1.270 . S
O103 Eu91 2.355 1_545 S
O104 Eu81 2.394 1_565 S
O104 C89 1.251 . S
O105 C89 1.251 . S
O105 Eu91 2.374 . S
O106 C90 1.257 1_545 S
O106 Eu91 2.473 1_545 S
O107 C90 1.260 . S
O107 Eu91 2.480 . S
O108 Eu91 2.430 . S
O108 C98 1.259 . S
O109 Eu81 2.355 1_565 S
O109 Eu91 2.670 . S
O109 C98 1.270 . S
O110 Eu91 2.394 1_545 S
O110 C99 1.251 . S
O111 Eu81 2.374 . S
O111 C99 1.251 . S
H112 C83 0.931 . S
H113 C84 0.931 . S
H114 C86 0.931 . S
H115 C87 0.931 . S
H116 C93 0.931 . S
H117 C94 0.931 . S
H118 C96 0.931 . S
H119 C97 0.931 . S
C120 Eu121 2.835 . S
C120 C122 1.500 . S
C120 O140 1.257 1_655 S
C120 O141 1.260 . S
Eu121 C120 2.835 . S
Eu121 O140 2.473 1_655 S
Eu121 O141 2.480 . S
Eu121 O142 2.430 . S
Eu121 O143 2.670 . S
Eu121 O144 2.394 1_655 S
Eu121 O149 2.355 1_655 S
Eu121 O151 2.374 . S
C122 C120 1.500 . S
C122 C123 1.377 . S
C122 C127 1.377 1_655 S
C123 C122 1.377 . S
C123 C124 1.395 . S
C123 H152 0.931 . S
C124 C123 1.395 . S
C124 C125 1.383 . S
C124 H153 0.931 . S
C125 C124 1.383 . S
C125 C126 1.394 1_655 S
C126 C125 1.394 1_455 S
C126 C127 1.378 . S
C126 H154 0.931 . S
C127 C122 1.377 1_455 S
C127 C126 1.378 . S
C127 H155 0.931 . S
C128 O142 1.259 . S
C128 O143 1.270 . S
C129 O144 1.251 . S
C129 O145 1.251 . S
C130 Eu131 2.835 . S
C130 C132 1.500 . S
C130 O146 1.257 . S
C130 O147 1.260 . S
Eu131 C130 2.835 . S
Eu131 O143 2.355 1_455 S
Eu131 O145 2.374 . S
Eu131 O146 2.473 . S
Eu131 O147 2.480 . S
Eu131 O148 2.430 . S
Eu131 O149 2.670 . S
Eu131 O150 2.397 . S
C132 C130 1.500 . S
C132 C133 1.377 . S
C132 C137 1.377 1_455 S
C133 C132 1.377 . S
C133 C134 1.395 . S
C133 H156 0.931 . S
C134 C133 1.395 . S
C134 C135 1.382 1_556 S
C134 H157 0.931 . S
C135 C134 1.382 1_554 S
C135 C136 1.393 1_454 S
C136 C135 1.393 1_656 S
C136 C137 1.378 . S
C136 H158 0.931 . S
C137 C132 1.377 1_655 S
C137 C136 1.378 . S
C137 H159 0.931 . S
C138 O148 1.259 . S
C138 O149 1.270 . S
C139 O150 1.236 1_655 S
C139 O151 1.251 . S
O140 C120 1.257 1_455 S
O140 Eu121 2.473 1_455 S
O141 C120 1.260 . S
O141 Eu121 2.480 . S
O142 Eu121 2.430 . S
O142 C128 1.259 . S
O143 Eu121 2.670 . S
O143 C128 1.270 . S
O143 Eu131 2.355 1_655 S
O144 Eu121 2.394 1_455 S
O144 C129 1.251 . S
O145 C129 1.251 . S
O145 Eu131 2.374 . S
O146 C130 1.257 . S
O146 Eu131 2.473 . S
O147 C130 1.260 . S
O147 Eu131 2.480 . S
O148 Eu131 2.430 . S
O148 C138 1.259 . S
O149 Eu121 2.355 1_455 S
O149 Eu131 2.670 . S
O149 C138 1.270 . S
O150 Eu131 2.397 . S
O150 C139 1.236 1_455 S
O151 Eu121 2.374 . S
O151 C139 1.251 . S
H152 C123 0.931 . S
H153 C124 0.931 . S
H154 C126 0.931 . S
H155 C127 0.931 . S
H156 C133 0.931 . S
H157 C134 0.931 . S
H158 C136 0.931 . S
H159 C137 0.931 . S
C160 Eu161 2.835 . S
C160 C162 1.500 . S
C160 O180 1.257 . S
C160 O181 1.260 . S
Eu161 C160 2.835 . S
Eu161 O180 2.473 . S
Eu161 O181 2.480 . S
Eu161 O182 2.430 . S
Eu161 O183 2.670 . S
Eu161 O184 2.394 . S
Eu161 O189 2.355 . S
Eu161 O191 2.374 . S
C162 C160 1.500 . S
C162 C163 1.377 . S
C162 C167 1.377 . S
C163 C162 1.377 . S
C163 C164 1.395 . S
C163 H192 0.931 . S
C164 C163 1.395 . S
C164 C165 1.383 1_556 S
C164 H193 0.931 . S
C165 C164 1.383 1_554 S
C165 C166 1.394 1_554 S
C166 C165 1.394 1_556 S
C166 C167 1.378 . S
C166 H194 0.939 . S
C167 C162 1.377 . S
C167 C166 1.378 . S
C167 H195 0.931 . S
C168 O182 1.259 . S
C168 O183 1.270 . S
C169 O184 1.251 . S
C169 O185 1.251 . S
C170 Eu171 2.835 . S
C170 C172 1.500 . S
C170 O186 1.257 . S
C170 O187 1.260 . S
Eu171 C170 2.835 . S
Eu171 O183 2.355 . S
Eu171 O185 2.374 . S
Eu171 O186 2.473 . S
Eu171 O187 2.480 . S
Eu171 O188 2.430 . S
Eu171 O189 2.670 . S
Eu171 O190 2.394 . S
C172 C170 1.500 . S
C172 C173 1.377 . S
C172 C177 1.377 . S
C173 C172 1.377 . S
C173 C174 1.395 . S
C173 H196 0.931 . S
C174 C173 1.395 . S
C174 C175 1.383 . S
C174 H197 0.931 . S
C175 C174 1.383 . S
C175 C176 1.394 . S
C176 C175 1.394 . S
C176 C177 1.378 . S
C176 H198 0.931 . S
C177 C172 1.377 . S
C177 C176 1.378 . S
C177 H199 0.931 . S
C178 O188 1.259 . S
C178 O189 1.270 . S
C179 O190 1.251 . S
C179 O191 1.251 . S
O180 C160 1.257 . S
O180 Eu161 2.473 . S
O181 C160 1.260 . S
O181 Eu161 2.480 . S
O182 Eu161 2.430 . S
O182 C168 1.259 . S
O183 Eu161 2.670 . S
O183 C168 1.270 . S
O183 Eu171 2.355 . S
O184 Eu161 2.394 . S
O184 C169 1.251 . S
O185 C169 1.251 . S
O185 Eu171 2.374 . S
O186 C170 1.257 . S
O186 Eu171 2.473 . S
O187 C170 1.260 . S
O187 Eu171 2.480 . S
O188 Eu171 2.430 . S
O188 C178 1.259 . S
O189 Eu161 2.355 . S
O189 Eu171 2.670 . S
O189 C178 1.270 . S
O190 Eu171 2.394 . S
O190 C179 1.251 . S
O191 Eu161 2.374 . S
O191 C179 1.251 . S
H192 C163 0.931 . S
H193 C164 0.931 . S
H194 C166 0.939 . S
H195 C167 0.931 . S
H196 C173 0.931 . S
H197 C174 0.931 . S
H198 C176 0.931 . S
H199 C177 0.931 . S
C200 Eu201 2.835 . S
C200 C202 1.500 . S
C200 O220 1.257 . S
C200 O221 1.260 . S
Eu201 C200 2.835 . S
Eu201 O220 2.473 . S
Eu201 O221 2.480 . S
Eu201 O222 2.430 . S
Eu201 O223 2.670 . S
Eu201 O224 2.392 1_545 S
Eu201 O229 2.355 1_545 S
Eu201 O231 2.374 . S
C202 C200 1.500 . S
C202 C203 1.377 . S
C202 C207 1.377 1_545 S
C203 C202 1.377 . S
C203 C204 1.395 . S
C203 H232 0.931 . S
C204 C203 1.395 . S
C204 C205 1.383 . S
C204 H233 0.931 . S
C205 C204 1.383 . S
C205 C206 1.394 1_545 S
C206 C205 1.394 1_565 S
C206 C207 1.378 . S
C206 H234 0.931 . S
C207 C202 1.377 1_565 S
C207 C206 1.378 . S
C207 H235 0.931 . S
C208 O222 1.259 . S
C208 O223 1.270 . S
C209 O224 1.253 . S
C209 O225 1.251 . S
C210 Eu211 2.835 . S
C210 C212 1.500 1_565 S
C210 O226 1.257 1_565 S
C210 O227 1.260 . S
Eu211 C210 2.835 . S
Eu211 O223 2.355 1_565 S
Eu211 O225 2.374 . S
Eu211 O226 2.473 1_565 S
Eu211 O227 2.480 . S
Eu211 O228 2.430 . S
Eu211 O229 2.670 . S
Eu211 O230 2.394 1_565 S
C212 C210 1.500 1_545 S
C212 C213 1.377 1_545 S
C212 C217 1.377 . S
C213 C212 1.377 1_565 S
C213 C214 1.395 . S
C213 H236 0.931 . S
C214 C213 1.395 . S
C214 C215 1.383 1_565 S
C214 H237 0.931 . S
C215 C214 1.383 1_545 S
C215 C216 1.394 . S
C216 C215 1.394 . S
C216 C217 1.378 . S
C216 H238 0.931 . S
C217 C212 1.377 . S
C217 C216 1.378 . S
C217 H239 0.931 . S
C218 O228 1.259 . S
C218 O229 1.270 . S
C219 O230 1.251 . S
C219 O231 1.251 . S
O220 C200 1.257 . S
O220 Eu201 2.473 . S
O221 C200 1.260 . S
O221 Eu201 2.480 . S
O222 Eu201 2.430 . S
O222 C208 1.259 . S
O223 Eu201 2.670 . S
O223 C208 1.270 . S
O223 Eu211 2.355 1_545 S
O224 Eu201 2.392 1_565 S
O224 C209 1.253 . S
O225 C209 1.251 . S
O225 Eu211 2.374 . S
O226 C210 1.257 1_545 S
O226 Eu211 2.473 1_545 S
O227 C210 1.260 . S
O227 Eu211 2.480 . S
O228 Eu211 2.430 . S
O228 C218 1.259 . S
O229 Eu201 2.355 1_565 S
O229 Eu211 2.670 . S
O229 C218 1.270 . S
O230 Eu211 2.394 1_545 S
O230 C219 1.251 . S
O231 Eu201 2.374 . S
O231 C219 1.251 . S
H232 C203 0.931 . S
H233 C204 0.931 . S
H234 C206 0.931 . S
H235 C207 0.931 . S
H236 C213 0.931 . S
H237 C214 0.931 . S
H238 C216 0.931 . S
H239 C217 0.931 . S
C240 Eu241 2.835 1_554 S
C240 C242 1.500 . S
C240 O260 1.257 . S
C240 O261 1.260 . S
Eu241 C240 2.835 1_556 S
Eu241 O260 2.473 1_556 S
Eu241 O261 2.480 1_556 S
Eu241 O262 2.430 . S
Eu241 O263 2.670 . S
Eu241 O264 2.394 . S
Eu241 O269 2.355 . S
Eu241 O271 2.374 . S
C242 C240 1.500 . S
C242 C243 1.377 . S
C242 C247 1.377 . S
C243 C242 1.377 . S
C243 C244 1.395 . S
C243 H272 0.931 . S
C244 C243 1.395 . S
C244 C245 1.383 . S
C244 H273 0.931 . S
C245 C244 1.383 . S
C245 C246 1.394 . S
C246 C245 1.394 . S
C246 C247 1.378 . S
C246 H274 0.931 . S
C247 C242 1.377 . S
C247 C246 1.378 . S
C247 H275 0.931 . S
C248 O262 1.259 . S
C248 O263 1.270 . S
C249 O264 1.251 . S
C249 O265 1.251 . S
C250 Eu251 2.835 . S
C250 C252 1.500 . S
C250 O266 1.257 . S
C250 O267 1.260 . S
Eu251 C250 2.835 . S
Eu251 O263 2.355 . S
Eu251 O265 2.374 . S
Eu251 O266 2.473 . S
Eu251 O267 2.480 . S
Eu251 O268 2.430 . S
Eu251 O269 2.670 . S
Eu251 O270 2.394 . S
C252 C250 1.500 . S
C252 C253 1.377 . S
C252 C257 1.377 . S
C253 C252 1.377 . S
C253 C254 1.395 . S
C253 H276 0.931 . S
C254 C253 1.395 . S
C254 C255 1.383 . S
C254 H277 0.931 . S
C255 C254 1.383 . S
C255 C256 1.394 . S
C256 C255 1.394 . S
C256 C257 1.378 . S
C256 H278 0.931 . S
C257 C252 1.377 . S
C257 C256 1.378 . S
C257 H279 0.931 . S
C258 O268 1.259 . S
C258 O269 1.270 . S
C259 O270 1.251 . S
C259 O271 1.251 . S
O260 C240 1.257 . S
O260 Eu241 2.473 1_554 S
O261 C240 1.260 . S
O261 Eu241 2.480 1_554 S
O262 Eu241 2.430 . S
O262 C248 1.259 . S
O263 Eu241 2.670 . S
O263 C248 1.270 . S
O263 Eu251 2.355 . S
O264 Eu241 2.394 . S
O264 C249 1.251 . S
O265 C249 1.251 . S
O265 Eu251 2.374 . S
O266 C250 1.257 . S
O266 Eu251 2.473 . S
O267 C250 1.260 . S
O267 Eu251 2.480 . S
O268 Eu251 2.430 . S
O268 C258 1.259 . S
O269 Eu241 2.355 . S
O269 Eu251 2.670 . S
O269 C258 1.270 . S
O270 Eu251 2.394 . S
O270 C259 1.251 . S
O271 Eu241 2.374 . S
O271 C259 1.251 . S
H272 C243 0.931 . S
H273 C244 0.931 . S
H274 C246 0.931 . S
H275 C247 0.931 . S
H276 C253 0.931 . S
H277 C254 0.931 . S
H278 C256 0.931 . S
H279 C257 0.931 . S
C280 Eu281 2.835 1_554 S
C280 C282 1.500 . S
C280 O300 1.257 . S
C280 O301 1.260 1_554 S
Eu281 C280 2.835 1_556 S
Eu281 O300 2.473 1_556 S
Eu281 O301 2.480 . S
Eu281 O302 2.430 . S
Eu281 O303 2.670 . S
Eu281 O304 2.394 . S
Eu281 O309 2.355 . S
Eu281 O311 2.374 . S
C282 C280 1.500 . S
C282 C283 1.377 . S
C282 C287 1.377 . S
C283 C282 1.377 . S
C283 C284 1.395 . S
C283 H312 0.931 . S
C284 C283 1.395 . S
C284 C285 1.383 . S
C284 H313 0.931 . S
C285 C284 1.383 . S
C285 C286 1.394 . S
C286 C285 1.394 . S
C286 C287 1.378 . S
C286 H314 0.931 . S
C287 C282 1.377 . S
C287 C286 1.378 . S
C287 H315 0.931 . S
C288 O302 1.259 . S
C288 O303 1.270 . S
C289 O304 1.251 . S
C289 O305 1.251 . S
C290 Eu291 2.835 . S
C290 C292 1.500 . S
C290 O306 1.257 . S
C290 O307 1.260 . S
Eu291 C290 2.835 . S
Eu291 O303 2.355 . S
Eu291 O305 2.374 . S
Eu291 O306 2.473 . S
Eu291 O307 2.480 . S
Eu291 O308 2.430 . S
Eu291 O309 2.670 . S
Eu291 O310 2.394 . S
C292 C290 1.500 . S
C292 C293 1.377 . S
C292 C297 1.377 . S
C293 C292 1.377 . S
C293 C294 1.395 . S
C293 H316 0.931 . S
C294 C293 1.395 . S
C294 C295 1.383 . S
C294 H317 0.931 . S
C295 C294 1.383 . S
C295 C296 1.394 . S
C296 C295 1.394 . S
C296 C297 1.378 . S
C296 H318 0.931 . S
C297 C292 1.377 . S
C297 C296 1.378 . S
C297 H319 0.931 . S
C298 O308 1.259 . S
C298 O309 1.270 . S
C299 O310 1.251 . S
C299 O311 1.251 . S
O300 C280 1.257 . S
O300 Eu281 2.473 1_554 S
O301 C280 1.260 1_556 S
O301 Eu281 2.480 . S
O302 Eu281 2.430 . S
O302 C288 1.259 . S
O303 Eu281 2.670 . S
O303 C288 1.270 . S
O303 Eu291 2.355 . S
O304 Eu281 2.394 . S
O304 C289 1.251 . S
O305 C289 1.251 . S
O305 Eu291 2.374 . S
O306 C290 1.257 . S
O306 Eu291 2.473 . S
O307 C290 1.260 . S
O307 Eu291 2.480 . S
O308 Eu291 2.430 . S
O308 C298 1.259 . S
O309 Eu281 2.355 . S
O309 Eu291 2.670 . S
O309 C298 1.270 . S
O310 Eu291 2.394 . S
O310 C299 1.251 . S
O311 Eu281 2.374 . S
O311 C299 1.251 . S
H312 C283 0.931 . S
H313 C284 0.931 . S
H314 C286 0.931 . S
H315 C287 0.931 . S
H316 C293 0.931 . S
H317 C294 0.931 . S
H318 C296 0.931 . S
H319 C297 0.931 . S
C320 Eu321 2.835 1_554 S
C320 C322 1.500 . S
C320 O340 1.257 . S
C320 O341 1.260 . S
Eu321 C320 2.835 1_556 S
Eu321 O340 2.473 1_556 S
Eu321 O341 2.480 1_556 S
Eu321 O342 2.430 . S
Eu321 O343 2.670 . S
Eu321 O344 2.394 . S
Eu321 O349 2.355 . S
Eu321 O351 2.374 . S
C322 C320 1.500 . S
C322 C323 1.377 . S
C322 C327 1.377 . S
C323 C322 1.377 . S
C323 C324 1.395 . S
C323 H352 0.931 . S
C324 C323 1.395 . S
C324 C325 1.383 . S
C324 H353 0.931 . S
C325 C324 1.383 . S
C325 C326 1.394 . S
C326 C325 1.394 . S
C326 C327 1.378 . S
C326 H354 0.931 . S
C327 C322 1.377 . S
C327 C326 1.378 . S
C327 H355 0.931 . S
C328 O342 1.259 . S
C328 O343 1.270 . S
C329 O344 1.251 1_455 S
C329 O345 1.251 . S
C330 Eu331 2.835 . S
C330 C332 1.500 . S
C330 O346 1.257 . S
C330 O347 1.260 . S
Eu331 C330 2.835 . S
Eu331 O343 2.355 . S
Eu331 O345 2.374 1_655 S
Eu331 O346 2.473 . S
Eu331 O347 2.480 . S
Eu331 O348 2.430 . S
Eu331 O349 2.670 . S
Eu331 O350 2.394 . S
C332 C330 1.500 . S
C332 C333 1.377 . S
C332 C337 1.377 . S
C333 C332 1.377 . S
C333 C334 1.395 . S
C333 H356 0.931 . S
C334 C333 1.395 . S
C334 C335 1.383 . S
C334 H357 0.931 . S
C335 C334 1.383 . S
C335 C336 1.394 . S
C336 C335 1.394 . S
C336 C337 1.378 . S
C336 H358 0.931 . S
C337 C332 1.377 . S
C337 C336 1.378 . S
C337 H359 0.931 . S
C338 O348 1.259 . S
C338 O349 1.270 . S
C339 O350 1.251 . S
C339 O351 1.251 . S
O340 C320 1.257 . S
O340 Eu321 2.473 1_554 S
O341 C320 1.260 . S
O341 Eu321 2.480 1_554 S
O342 Eu321 2.430 . S
O342 C328 1.259 . S
O343 Eu321 2.670 . S
O343 C328 1.270 . S
O343 Eu331 2.355 . S
O344 Eu321 2.394 . S
O344 C329 1.251 1_655 S
O345 C329 1.251 . S
O345 Eu331 2.374 1_455 S
O346 C330 1.257 . S
O346 Eu331 2.473 . S
O347 C330 1.260 . S
O347 Eu331 2.480 . S
O348 Eu331 2.430 . S
O348 C338 1.259 . S
O349 Eu321 2.355 . S
O349 Eu331 2.670 . S
O349 C338 1.270 . S
O350 Eu331 2.394 . S
O350 C339 1.251 . S
O351 Eu321 2.374 . S
O351 C339 1.251 . S
H352 C323 0.931 . S
H353 C324 0.931 . S
H354 C326 0.931 . S
H355 C327 0.931 . S
H356 C333 0.931 . S
H357 C334 0.931 . S
H358 C336 0.931 . S
H359 C337 0.931 . S
C360 Eu361 2.835 . S
C360 C362 1.500 . S
C360 O380 1.257 . S
C360 O381 1.260 . S
Eu361 C360 2.835 . S
Eu361 O380 2.473 . S
Eu361 O381 2.480 . S
Eu361 O382 2.430 . S
Eu361 O383 2.670 . S
Eu361 O384 2.394 . S
Eu361 O389 2.355 . S
Eu361 O391 2.374 . S
C362 C360 1.500 . S
C362 C363 1.377 . S
C362 C367 1.377 . S
C363 C362 1.377 . S
C363 C364 1.395 . S
C363 H392 0.931 . S
C364 C363 1.395 . S
C364 C365 1.383 . S
C364 H393 0.931 . S
C365 C364 1.383 . S
C365 C366 1.394 . S
C366 C365 1.394 . S
C366 C367 1.378 . S
C366 H394 0.931 . S
C367 C362 1.377 . S
C367 C366 1.378 . S
C367 H395 0.931 . S
C368 O382 1.259 . S
C368 O383 1.270 . S
C369 O384 1.251 . S
C369 O385 1.251 . S
C370 Eu371 2.835 1_554 S
C370 C372 1.500 . S
C370 O386 1.257 . S
C370 O387 1.260 . S
Eu371 C370 2.835 1_556 S
Eu371 O383 2.355 . S
Eu371 O385 2.374 . S
Eu371 O386 2.473 1_556 S
Eu371 O387 2.480 1_556 S
Eu371 O388 2.430 . S
Eu371 O389 2.670 . S
Eu371 O390 2.394 . S
C372 C370 1.500 . S
C372 C373 1.377 . S
C372 C377 1.377 . S
C373 C372 1.377 . S
C373 C374 1.395 . S
C373 H396 0.931 . S
C374 C373 1.395 . S
C374 C375 1.383 . S
C374 H397 0.931 . S
C375 C374 1.383 . S
C375 C376 1.394 . S
C376 C375 1.394 . S
C376 C377 1.378 . S
C376 H398 0.931 . S
C377 C372 1.377 . S
C377 C376 1.378 . S
C377 H399 0.931 . S
C378 O388 1.259 . S
C378 O389 1.270 . S
C379 O390 1.251 . S
C379 O391 1.251 . S
O380 C360 1.257 . S
O380 Eu361 2.473 . S
O381 C360 1.260 . S
O381 Eu361 2.480 . S
O382 Eu361 2.430 . S
O382 C368 1.259 . S
O383 Eu361 2.670 . S
O383 C368 1.270 . S
O383 Eu371 2.355 . S
O384 Eu361 2.394 . S
O384 C369 1.251 . S
O385 C369 1.251 . S
O385 Eu371 2.374 . S
O386 C370 1.257 . S
O386 Eu371 2.473 1_554 S
O387 C370 1.260 . S
O387 Eu371 2.480 1_554 S
O388 Eu371 2.430 . S
O388 C378 1.259 . S
O389 Eu361 2.355 . S
O389 Eu371 2.670 . S
O389 C378 1.270 . S
O390 Eu371 2.394 . S
O390 C379 1.251 . S
O391 Eu361 2.374 . S
O391 C379 1.251 . S
H392 C363 0.931 . S
H393 C364 0.931 . S
H394 C366 0.931 . S
H395 C367 0.931 . S
H396 C373 0.931 . S
H397 C374 0.931 . S
H398 C376 0.931 . S
H399 C377 0.931 . S
C400 Eu401 2.835 . S
C400 C402 1.500 . S
C400 O420 1.257 . S
C400 O421 1.260 . S
Eu401 C400 2.835 . S
Eu401 O420 2.473 . S
Eu401 O421 2.480 . S
Eu401 O422 2.430 . S
Eu401 O423 2.670 . S
Eu401 O424 2.394 . S
Eu401 O429 2.355 . S
Eu401 O431 2.374 1_655 S
C402 C400 1.500 . S
C402 C403 1.377 . S
C402 C407 1.377 . S
C403 C402 1.377 . S
C403 C404 1.395 . S
C403 H432 0.931 . S
C404 C403 1.395 . S
C404 C405 1.383 . S
C404 H433 0.931 . S
C405 C404 1.383 . S
C405 C406 1.394 . S
C406 C405 1.394 . S
C406 C407 1.378 . S
C406 H434 0.931 . S
C407 C402 1.377 . S
C407 C406 1.378 . S
C407 H435 0.931 . S
C408 O422 1.259 . S
C408 O423 1.270 . S
C409 O424 1.251 . S
C409 O425 1.251 . S
C410 Eu411 2.835 1_554 S
C410 C412 1.500 . S
C410 O426 1.257 . S
C410 O427 1.260 . S
Eu411 C410 2.835 1_556 S
Eu411 O423 2.355 . S
Eu411 O425 2.374 . S
Eu411 O426 2.473 1_556 S
Eu411 O427 2.480 1_556 S
Eu411 O428 2.430 . S
Eu411 O429 2.670 . S
Eu411 O430 2.394 . S
C412 C410 1.500 . S
C412 C413 1.377 . S
C412 C417 1.377 . S
C413 C412 1.377 . S
C413 C414 1.395 . S
C413 H436 0.931 . S
C414 C413 1.395 . S
C414 C415 1.383 . S
C414 H437 0.931 . S
C415 C414 1.383 . S
C415 C416 1.394 . S
C416 C415 1.394 . S
C416 C417 1.378 . S
C416 H438 0.931 . S
C417 C412 1.377 . S
C417 C416 1.378 . S
C417 H439 0.931 . S
C418 O428 1.259 . S
C418 O429 1.270 . S
C419 O430 1.251 1_455 S
C419 O431 1.251 . S
O420 C400 1.257 . S
O420 Eu401 2.473 . S
O421 C400 1.260 . S
O421 Eu401 2.480 . S
O422 Eu401 2.430 . S
O422 C408 1.259 . S
O423 Eu401 2.670 . S
O423 C408 1.270 . S
O423 Eu411 2.355 . S
O424 Eu401 2.394 . S
O424 C409 1.251 . S
O425 C409 1.251 . S
O425 Eu411 2.374 . S
O426 C410 1.257 . S
O426 Eu411 2.473 1_554 S
O427 C410 1.260 . S
O427 Eu411 2.480 1_554 S
O428 Eu411 2.430 . S
O428 C418 1.259 . S
O429 Eu401 2.355 . S
O429 Eu411 2.670 . S
O429 C418 1.270 . S
O430 Eu411 2.394 . S
O430 C419 1.251 1_655 S
O431 Eu401 2.374 1_455 S
O431 C419 1.251 . S
H432 C403 0.931 . S
H433 C404 0.931 . S
H434 C406 0.931 . S
H435 C407 0.931 . S
H436 C413 0.931 . S
H437 C414 0.931 . S
H438 C416 0.931 . S
H439 C417 0.931 . S
C440 Eu441 2.835 . S
C440 C442 1.500 . S
C440 O460 1.257 . S
C440 O461 1.260 . S
Eu441 C440 2.835 . S
Eu441 O460 2.473 . S
Eu441 O461 2.480 . S
Eu441 O462 2.430 . S
Eu441 O463 2.670 . S
Eu441 O464 2.394 . S
Eu441 O469 2.355 . S
Eu441 O471 2.374 . S
C442 C440 1.500 . S
C442 C443 1.377 . S
C442 C447 1.377 . S
C443 C442 1.377 . S
C443 C444 1.395 . S
C443 H472 0.931 . S
C444 C443 1.395 . S
C444 C445 1.383 . S
C444 H473 0.931 . S
C445 C444 1.383 . S
C445 C446 1.394 . S
C446 C445 1.394 . S
C446 C447 1.378 . S
C446 H474 0.931 . S
C447 C442 1.377 . S
C447 C446 1.378 . S
C447 H475 0.931 . S
C448 O462 1.259 . S
C448 O463 1.270 . S
C449 O464 1.251 . S
C449 O465 1.251 . S
C450 Eu451 2.835 1_554 S
C450 C452 1.500 . S
C450 O466 1.257 . S
C450 O467 1.260 . S
Eu451 C450 2.835 1_556 S
Eu451 O463 2.355 . S
Eu451 O465 2.374 . S
Eu451 O466 2.473 1_556 S
Eu451 O467 2.480 1_556 S
Eu451 O468 2.430 . S
Eu451 O469 2.670 . S
Eu451 O470 2.394 . S
C452 C450 1.500 . S
C452 C453 1.377 . S
C452 C457 1.377 . S
C453 C452 1.377 . S
C453 C454 1.395 . S
C453 H476 0.931 . S
C454 C453 1.395 . S
C454 C455 1.383 . S
C454 H477 0.931 . S
C455 C454 1.383 . S
C455 C456 1.394 . S
C456 C455 1.394 . S
C456 C457 1.378 . S
C456 H478 0.931 . S
C457 C452 1.377 . S
C457 C456 1.378 . S
C457 H479 0.931 . S
C458 O468 1.259 . S
C458 O469 1.270 . S
C459 O470 1.251 . S
C459 O471 1.251 . S
O460 C440 1.257 . S
O460 Eu441 2.473 . S
O461 C440 1.260 . S
O461 Eu441 2.480 . S
O462 Eu441 2.430 . S
O462 C448 1.259 . S
O463 Eu441 2.670 . S
O463 C448 1.270 . S
O463 Eu451 2.355 . S
O464 Eu441 2.394 . S
O464 C449 1.251 . S
O465 C449 1.251 . S
O465 Eu451 2.374 . S
O466 C450 1.257 . S
O466 Eu451 2.473 1_554 S
O467 C450 1.260 . S
O467 Eu451 2.480 1_554 S
O468 Eu451 2.430 . S
O468 C458 1.259 . S
O469 Eu441 2.355 . S
O469 Eu451 2.670 . S
O469 C458 1.270 . S
O470 Eu451 2.394 . S
O470 C459 1.251 . S
O471 Eu441 2.374 . S
O471 C459 1.251 . S
H472 C443 0.931 . S
H473 C444 0.931 . S
H474 C446 0.931 . S
H475 C447 0.931 . S
H476 C453 0.931 . S
H477 C454 0.931 . S
H478 C456 0.931 . S
H479 C457 0.931 . S
C480 Eu481 2.835 1_556 S
C480 C482 1.500 . S
C480 O500 1.257 . S
C480 O501 1.260 . S
Eu481 C480 2.835 1_554 S
Eu481 O500 2.473 1_554 S
Eu481 O501 2.480 1_554 S
Eu481 O502 2.430 . S
Eu481 O503 2.670 . S
Eu481 O504 2.394 . S
Eu481 O509 2.355 . S
Eu481 O511 2.374 . S
C482 C480 1.500 . S
C482 C483 1.377 . S
C482 C487 1.377 . S
C483 C482 1.377 . S
C483 C484 1.395 . S
C483 H512 0.931 . S
C484 C483 1.395 . S
C484 C485 1.383 . S
C484 H513 0.931 . S
C485 C484 1.383 . S
C485 C486 1.394 . S
C486 C485 1.394 . S
C486 C487 1.378 . S
C486 H514 0.931 . S
C487 C482 1.377 . S
C487 C486 1.378 . S
C487 H515 0.931 . S
C488 O502 1.259 . S
C488 O503 1.270 . S
C489 O504 1.251 1_545 S
C489 O505 1.251 . S
C490 Eu491 2.835 . S
C490 C492 1.500 . S
C490 O506 1.257 . S
C490 O507 1.260 . S
Eu491 C490 2.835 . S
Eu491 O503 2.355 . S
Eu491 O505 2.374 1_565 S
Eu491 O506 2.473 . S
Eu491 O507 2.480 . S
Eu491 O508 2.430 . S
Eu491 O509 2.670 . S
Eu491 O510 2.394 . S
C492 C490 1.500 . S
C492 C493 1.377 . S
C492 C497 1.377 . S
C493 C492 1.377 . S
C493 C494 1.395 . S
C493 H516 0.931 . S
C494 C493 1.395 . S
C494 C495 1.383 . S
C494 H517 0.931 . S
C495 C494 1.383 . S
C495 C496 1.394 . S
C496 C495 1.394 . S
C496 C497 1.378 . S
C496 H518 0.931 . S
C497 C492 1.377 . S
C497 C496 1.378 . S
C497 H519 0.931 . S
C498 O508 1.259 . S
C498 O509 1.270 . S
C499 O510 1.251 . S
C499 O511 1.251 . S
O500 C480 1.257 . S
O500 Eu481 2.473 1_556 S
O501 C480 1.260 . S
O501 Eu481 2.480 1_556 S
O502 Eu481 2.430 . S
O502 C488 1.259 . S
O503 Eu481 2.670 . S
O503 C488 1.270 . S
O503 Eu491 2.355 . S
O504 Eu481 2.394 . S
O504 C489 1.251 1_565 S
O505 C489 1.251 . S
O505 Eu491 2.374 1_545 S
O506 C490 1.257 . S
O506 Eu491 2.473 . S
O507 C490 1.260 . S
O507 Eu491 2.480 . S
O508 Eu491 2.430 . S
O508 C498 1.259 . S
O509 Eu481 2.355 . S
O509 Eu491 2.670 . S
O509 C498 1.270 . S
O510 Eu491 2.394 . S
O510 C499 1.251 . S
O511 Eu481 2.374 . S
O511 C499 1.251 . S
H512 C483 0.931 . S
H513 C484 0.931 . S
H514 C486 0.931 . S
H515 C487 0.931 . S
H516 C493 0.931 . S
H517 C494 0.931 . S
H518 C496 0.931 . S
H519 C497 0.931 . S
C520 Eu521 2.835 . S
C520 C522 1.500 . S
C520 O540 1.257 . S
C520 O541 1.260 . S
Eu521 C520 2.835 . S
Eu521 O540 2.473 . S
Eu521 O541 2.480 . S
Eu521 O542 2.430 . S
Eu521 O543 2.670 . S
Eu521 O544 2.394 . S
Eu521 O549 2.355 . S
Eu521 O551 2.374 . S
C522 C520 1.500 . S
C522 C523 1.377 . S
C522 C527 1.377 . S
C523 C522 1.377 . S
C523 C524 1.395 . S
C523 H552 0.931 . S
C524 C523 1.395 . S
C524 C525 1.383 . S
C524 H553 0.927 1_455 S
C525 C524 1.383 . S
C525 C526 1.394 . S
C526 C525 1.394 . S
C526 C527 1.378 . S
C526 H554 0.931 . S
C527 C522 1.377 . S
C527 C526 1.378 . S
C527 H555 0.931 . S
C528 O542 1.259 . S
C528 O543 1.270 . S
C529 O544 1.251 . S
C529 O545 1.251 . S
C530 Eu531 2.835 1_556 S
C530 C532 1.500 . S
C530 O546 1.257 . S
C530 O547 1.260 . S
Eu531 C530 2.835 1_554 S
Eu531 O543 2.355 . S
Eu531 O545 2.374 . S
Eu531 O546 2.473 1_554 S
Eu531 O547 2.480 1_554 S
Eu531 O548 2.430 . S
Eu531 O549 2.670 . S
Eu531 O550 2.394 . S
C532 C530 1.500 . S
C532 C533 1.377 . S
C532 C537 1.377 . S
C533 C532 1.377 . S
C533 C534 1.395 . S
C533 H556 0.931 . S
C534 C533 1.395 . S
C534 C535 1.383 . S
C534 H557 0.931 . S
C535 C534 1.383 . S
C535 C536 1.394 . S
C536 C535 1.394 . S
C536 C537 1.378 . S
C536 H558 0.931 . S
C537 C532 1.377 . S
C537 C536 1.378 . S
C537 H559 0.931 . S
C538 O548 1.259 . S
C538 O549 1.270 . S
C539 O550 1.251 . S
C539 O551 1.251 . S
O540 C520 1.257 . S
O540 Eu521 2.473 . S
O541 C520 1.260 . S
O541 Eu521 2.480 . S
O542 Eu521 2.430 . S
O542 C528 1.259 . S
O543 Eu521 2.670 . S
O543 C528 1.270 . S
O543 Eu531 2.355 . S
O544 Eu521 2.394 . S
O544 C529 1.251 . S
O545 C529 1.251 . S
O545 Eu531 2.374 . S
O546 C530 1.257 . S
O546 Eu531 2.473 1_556 S
O547 C530 1.260 . S
O547 Eu531 2.480 1_556 S
O548 Eu531 2.430 . S
O548 C538 1.259 . S
O549 Eu521 2.355 . S
O549 Eu531 2.670 . S
O549 C538 1.270 . S
O550 Eu531 2.394 . S
O550 C539 1.251 . S
O551 Eu521 2.374 . S
O551 C539 1.251 . S
H552 C523 0.931 . S
H553 C524 0.927 1_655 S
H554 C526 0.931 . S
H555 C527 0.931 . S
H556 C533 0.931 . S
H557 C534 0.931 . S
H558 C536 0.931 . S
H559 C537 0.931 . S
C560 Eu561 2.835 1_556 S
C560 C562 1.500 . S
C560 O580 1.257 . S
C560 O581 1.260 . S
Eu561 C560 2.835 1_554 S
Eu561 O580 2.473 1_554 S
Eu561 O581 2.480 1_554 S
Eu561 O582 2.430 . S
Eu561 O583 2.670 . S
Eu561 O584 2.394 . S
Eu561 O589 2.355 . S
Eu561 O591 2.374 . S
C562 C560 1.500 . S
C562 C563 1.377 . S
C562 C567 1.377 . S
C563 C562 1.377 . S
C563 C564 1.395 . S
C563 H592 0.931 . S
C564 C563 1.395 . S
C564 C565 1.383 . S
C564 H593 0.931 . S
C565 C564 1.383 . S
C565 C566 1.394 . S
C566 C565 1.394 . S
C566 C567 1.378 . S
C566 H594 0.931 . S
C567 C562 1.377 . S
C567 C566 1.378 . S
C567 H595 0.931 . S
C568 O582 1.259 . S
C568 O583 1.270 . S
C569 O584 1.251 . S
C569 O585 1.251 . S
C570 Eu571 2.835 . S
C570 C572 1.500 . S
C570 O586 1.257 . S
C570 O587 1.260 . S
Eu571 C570 2.835 . S
Eu571 O583 2.355 . S
Eu571 O585 2.374 . S
Eu571 O586 2.473 . S
Eu571 O587 2.480 . S
Eu571 O588 2.430 . S
Eu571 O589 2.670 . S
Eu571 O590 2.394 . S
C572 C570 1.500 . S
C572 C573 1.377 . S
C572 C577 1.377 . S
C573 C572 1.377 . S
C573 C574 1.395 . S
C573 H596 0.931 . S
C574 C573 1.395 . S
C574 C575 1.383 . S
C574 H597 0.931 . S
C575 C574 1.383 . S
C575 C576 1.394 . S
C576 C575 1.394 . S
C576 C577 1.378 . S
C576 H598 0.931 . S
C577 C572 1.377 . S
C577 C576 1.378 . S
C577 H599 0.931 . S
C578 O588 1.259 . S
C578 O589 1.270 . S
C579 O590 1.251 . S
C579 O591 1.251 . S
O580 C560 1.257 . S
O580 Eu561 2.473 1_556 S
O581 C560 1.260 . S
O581 Eu561 2.480 1_556 S
O582 Eu561 2.430 . S
O582 C568 1.259 . S
O583 Eu561 2.670 . S
O583 C568 1.270 . S
O583 Eu571 2.355 . S
O584 Eu561 2.394 . S
O584 C569 1.251 . S
O585 C569 1.251 . S
O585 Eu571 2.374 . S
O586 C570 1.257 . S
O586 Eu571 2.473 . S
O587 C570 1.260 . S
O587 Eu571 2.480 . S
O588 Eu571 2.430 . S
O588 C578 1.259 . S
O589 Eu561 2.355 . S
O589 Eu571 2.670 . S
O589 C578 1.270 . S
O590 Eu571 2.394 . S
O590 C579 1.251 . S
O591 Eu561 2.374 . S
O591 C579 1.251 . S
H592 C563 0.931 . S
H593 C564 0.931 . S
H594 C566 0.931 . S
H595 C567 0.931 . S
H596 C573 0.931 . S
H597 C574 0.931 . S
H598 C576 0.931 . S
H599 C577 0.931 . S
C600 Eu601 2.835 1_556 S
C600 C602 1.500 . S
C600 O620 1.257 . S
C600 O621 1.260 . S
Eu601 C600 2.835 1_554 S
Eu601 O620 2.473 1_554 S
Eu601 O621 2.480 1_554 S
Eu601 O622 2.430 . S
Eu601 O623 2.670 . S
Eu601 O624 2.394 . S
Eu601 O629 2.355 . S
Eu601 O631 2.374 . S
C602 C600 1.500 . S
C602 C603 1.377 . S
C602 C607 1.377 . S
C603 C602 1.377 . S
C603 C604 1.395 . S
C603 H632 0.931 . S
C604 C603 1.395 . S
C604 C605 1.383 . S
C604 H633 0.931 . S
C605 C604 1.383 . S
C605 C606 1.394 . S
C606 C605 1.394 . S
C606 C607 1.378 . S
C606 H634 0.931 . S
C607 C602 1.377 . S
C607 C606 1.378 . S
C607 H635 0.931 . S
C608 O622 1.259 . S
C608 O623 1.270 . S
C609 O624 1.251 . S
C609 O625 1.251 . S
C610 Eu611 2.835 . S
C610 C612 1.500 . S
C610 O626 1.257 . S
C610 O627 1.260 . S
Eu611 C610 2.835 . S
Eu611 O623 2.355 . S
Eu611 O625 2.374 . S
Eu611 O626 2.473 . S
Eu611 O627 2.480 . S
Eu611 O628 2.430 . S
Eu611 O629 2.670 . S
Eu611 O630 2.394 . S
C612 C610 1.500 . S
C612 C613 1.377 . S
C612 C617 1.377 . S
C613 C612 1.377 . S
C613 C614 1.395 . S
C613 H636 0.931 . S
C614 C613 1.395 . S
C614 C615 1.383 . S
C614 H637 0.931 . S
C615 C614 1.383 . S
C615 C616 1.394 . S
C616 C615 1.394 . S
C616 C617 1.378 . S
C616 H638 0.931 . S
C617 C612 1.377 . S
C617 C616 1.378 . S
C617 H639 0.931 . S
C618 O628 1.259 . S
C618 O629 1.270 . S
C619 O630 1.251 . S
C619 O631 1.251 . S
O620 C600 1.257 . S
O620 Eu601 2.473 1_556 S
O621 C600 1.260 . S
O621 Eu601 2.480 1_556 S
O622 Eu601 2.430 . S
O622 C608 1.259 . S
O623 Eu601 2.670 . S
O623 C608 1.270 . S
O623 Eu611 2.355 . S
O624 Eu601 2.394 . S
O624 C609 1.251 . S
O625 C609 1.251 . S
O625 Eu611 2.374 . S
O626 C610 1.257 . S
O626 Eu611 2.473 . S
O627 C610 1.260 . S
O627 Eu611 2.480 . S
O628 Eu611 2.430 . S
O628 C618 1.259 . S
O629 Eu601 2.355 . S
O629 Eu611 2.670 . S
O629 C618 1.270 . S
O630 Eu611 2.394 . S
O630 C619 1.251 . S
O631 Eu601 2.374 . S
O631 C619 1.251 . S
H632 C603 0.931 . S
H633 C604 0.931 . S
H634 C606 0.931 . S
H635 C607 0.931 . S
H636 C613 0.931 . S
H637 C614 0.931 . S
H638 C616 0.931 . S
H639 C617 0.931 . S
C640 Eu641 2.835 . S
C640 C642 1.500 . S
C640 O660 1.257 . S
C640 O661 1.260 . S
Eu641 C640 2.835 . S
Eu641 O660 2.473 . S
Eu641 O661 2.480 . S
Eu641 O662 2.430 . S
Eu641 O663 2.670 . S
Eu641 O664 2.394 . S
Eu641 O669 2.355 . S
Eu641 O671 2.374 1_565 S
C642 C640 1.500 . S
C642 C643 1.377 . S
C642 C647 1.377 . S
C643 C642 1.377 . S
C643 C644 1.395 . S
C643 H672 0.931 . S
C644 C643 1.395 . S
C644 C645 1.383 . S
C644 H673 0.931 . S
C645 C644 1.383 . S
C645 C646 1.394 . S
C646 C645 1.394 . S
C646 C647 1.378 . S
C646 H674 0.931 . S
C647 C642 1.377 . S
C647 C646 1.378 . S
C647 H675 0.931 . S
C648 O662 1.259 . S
C648 O663 1.270 . S
C649 O664 1.251 . S
C649 O665 1.251 . S
C650 Eu651 2.835 1_556 S
C650 C652 1.500 . S
C650 O666 1.257 . S
C650 O667 1.260 . S
Eu651 C650 2.835 1_554 S
Eu651 O663 2.355 . S
Eu651 O665 2.374 . S
Eu651 O666 2.473 1_554 S
Eu651 O667 2.480 1_554 S
Eu651 O668 2.430 . S
Eu651 O669 2.670 . S
Eu651 O670 2.394 . S
C652 C650 1.500 . S
C652 C653 1.377 . S
C652 C657 1.377 . S
C653 C652 1.377 . S
C653 C654 1.395 . S
C653 H676 0.931 . S
C654 C653 1.395 . S
C654 C655 1.383 . S
C654 H677 0.931 . S
C655 C654 1.383 . S
C655 C656 1.394 . S
C656 C655 1.394 . S
C656 C657 1.378 . S
C656 H678 0.931 . S
C657 C652 1.377 . S
C657 C656 1.378 . S
C657 H679 0.931 . S
C658 O668 1.259 . S
C658 O669 1.270 . S
C659 O670 1.251 1_545 S
C659 O671 1.251 . S
O660 C640 1.257 . S
O660 Eu641 2.473 . S
O661 C640 1.260 . S
O661 Eu641 2.480 . S
O662 Eu641 2.430 . S
O662 C648 1.259 . S
O663 Eu641 2.670 . S
O663 C648 1.270 . S
O663 Eu651 2.355 . S
O664 Eu641 2.394 . S
O664 C649 1.251 . S
O665 C649 1.251 . S
O665 Eu651 2.374 . S
O666 C650 1.257 . S
O666 Eu651 2.473 1_556 S
O667 C650 1.260 . S
O667 Eu651 2.480 1_556 S
O668 Eu651 2.430 . S
O668 C658 1.259 . S
O669 Eu641 2.355 . S
O669 Eu651 2.670 . S
O669 C658 1.270 . S
O670 Eu651 2.394 . S
O670 C659 1.251 1_565 S
O671 Eu641 2.374 1_545 S
O671 C659 1.251 . S
H672 C643 0.931 . S
H673 C644 0.931 . S
H674 C646 0.931 . S
H675 C647 0.931 . S
H676 C653 0.931 . S
H677 C654 0.931 . S
H678 C656 0.931 . S
H679 C657 0.931 . S
C680 Eu681 2.835 1_556 S
C680 C682 1.500 . S
C680 O700 1.257 . S
C680 O701 1.260 . S
Eu681 C680 2.835 1_554 S
Eu681 O700 2.473 1_554 S
Eu681 O701 2.480 1_554 S
Eu681 O702 2.430 . S
Eu681 O703 2.670 . S
Eu681 O704 2.394 . S
Eu681 O709 2.355 . S
Eu681 O711 2.374 . S
C682 C680 1.500 . S
C682 C683 1.377 . S
C682 C687 1.377 . S
C683 C682 1.377 . S
C683 C684 1.395 . S
C683 H712 0.931 . S
C684 C683 1.395 . S
C684 C685 1.383 . S
C684 H713 0.931 . S
C685 C684 1.383 . S
C685 C686 1.394 . S
C686 C685 1.394 . S
C686 C687 1.378 . S
C686 H714 0.931 . S
C687 C682 1.377 . S
C687 C686 1.378 . S
C687 H715 0.931 . S
C688 O702 1.259 . S
C688 O703 1.270 . S
C689 O704 1.251 . S
C689 O705 1.251 . S
C690 Eu691 2.835 . S
C690 C692 1.500 . S
C690 O706 1.257 . S
C690 O707 1.260 . S
Eu691 C690 2.835 . S
Eu691 O703 2.355 . S
Eu691 O705 2.374 . S
Eu691 O706 2.473 . S
Eu691 O707 2.480 . S
Eu691 O708 2.430 . S
Eu691 O709 2.670 . S
Eu691 O710 2.394 . S
C692 C690 1.500 . S
C692 C693 1.377 . S
C692 C697 1.377 . S
C693 C692 1.377 . S
C693 C694 1.395 . S
C693 H716 0.931 . S
C694 C693 1.395 . S
C694 C695 1.383 . S
C694 H717 0.931 . S
C695 C694 1.383 . S
C695 C696 1.394 . S
C696 C695 1.394 . S
C696 C697 1.378 . S
C696 H718 0.931 . S
C697 C692 1.377 . S
C697 C696 1.378 . S
C697 H719 0.931 . S
C698 O708 1.259 . S
C698 O709 1.270 . S
C699 O710 1.251 . S
C699 O711 1.251 . S
O700 C680 1.257 . S
O700 Eu681 2.473 1_556 S
O701 C680 1.260 . S
O701 Eu681 2.480 1_556 S
O702 Eu681 2.430 . S
O702 C688 1.259 . S
O703 Eu681 2.670 . S
O703 C688 1.270 . S
O703 Eu691 2.355 . S
O704 Eu681 2.394 . S
O704 C689 1.251 . S
O705 C689 1.251 . S
O705 Eu691 2.374 . S
O706 C690 1.257 . S
O706 Eu691 2.473 . S
O707 C690 1.260 . S
O707 Eu691 2.480 . S
O708 Eu691 2.430 . S
O708 C698 1.259 . S
O709 Eu681 2.355 . S
O709 Eu691 2.670 . S
O709 C698 1.270 . S
O710 Eu691 2.394 . S
O710 C699 1.251 . S
O711 Eu681 2.374 . S
O711 C699 1.251 . S
H712 C683 0.931 . S
H713 C684 0.931 . S
H714 C686 0.931 . S
H715 C687 0.931 . S
H716 C693 0.931 . S
H717 C694 0.931 . S
H718 C696 0.931 . S
H719 C697 0.931 . S
C529 C9 4.408 . S
C48 C568 4.339 . S
C89 C488 4.344 . S
C88 C288 4.147 . S
C328 C8 4.503 . S
C49 C248 4.478 . S
C139 C418 4.320 . S
C178 C458 3.944 . S
C378 C219 3.916 . S
C658 C218 4.352 . S
C138 C699 4.372 . S
C619 C179 4.418 . S
C329 C528 4.222 1_556 S
C249 C569 4.242 1_556 S
C289 C489 4.608 1_556 S
C379 C659 4.803 1_556 S
C698 C419 4.456 1_554 S
C618 C459 4.778 1_554 S
C18 C168 1.324 . S
C209 C59 2.390 . S
C129 C98 1.795 . S
C169 C99 2.441 . S
C208 C19 2.011 . S
C128 C58 1.535 . S
C409 C259 2.407 . S
C449 C299 2.564 . S
C369 C339 2.522 . S
C408 C338 1.465 . S
C448 C258 1.491 . S
C368 C298 1.329 . S
C648 C498 1.450 . S
C689 C539 2.371 . S
C578 C609 1.939 . S
C579 C649 2.580 . S
C499 C688 1.956 . S
C608 C538 1.433 . S
C5 C15 2.070 1_654 S
C55 C45 2.358 1_554 S
C85 C95 1.680 1_554 S
C135 C125 2.374 1_455 S
C175 C165 1.839 . S
C205 C215 2.329 1_554 S
C245 C255 3.071 . S
C295 C285 1.830 . S
C325 C335 2.804 . S
C375 C365 1.976 . S
C415 C405 2.775 . S
C455 C445 1.617 . S
C495 C485 2.064 . S
C535 C525 2.266 . S
C565 C575 1.862 . S
C605 C615 2.524 . S
C655 C645 1.957 . S
C695 C685 2.077 . S
