# Generated by pormake.
# Topology vbm, (6)-cn, num edge types: 1
# Building blocks:
#     Node 0, Type 0, BuildingBlock: GEDQOX_clean_sbu_0, # of connection points: 6
#     Node 1, Type 0, BuildingBlock: GEDQOX_clean_sbu_0, # of connection points: 6
#     Node 2, Type 0, BuildingBlock: GEDQOX_clean_sbu_0, # of connection points: 6
#     Node 3, Type 0, BuildingBlock: GEDQOX_clean_sbu_0, # of connection points: 6
#     Node 4, Type 0, BuildingBlock: GEDQOX_clean_sbu_0, # of connection points: 6
#     Node 5, Type 0, BuildingBlock: GEDQOX_clean_sbu_0, # of connection points: 6
#     Node 6, Type 0, BuildingBlock: GEDQOX_clean_sbu_0, # of connection points: 6
#     Node 7, Type 0, BuildingBlock: GEDQOX_clean_sbu_0, # of connection points: 6
#     Node 8, Type 0, BuildingBlock: GEDQOX_clean_sbu_0, # of connection points: 6
#     Node 9, Type 0, BuildingBlock: GEDQOX_clean_sbu_0, # of connection points: 6
#     Node 10, Type 0, BuildingBlock: GEDQOX_clean_sbu_0, # of connection points: 6
#     Node 11, Type 0, BuildingBlock: GEDQOX_clean_sbu_0, # of connection points: 6
#     Node 12, Type 0, BuildingBlock: GEDQOX_clean_sbu_0, # of connection points: 6
#     Node 13, Type 0, BuildingBlock: GEDQOX_clean_sbu_0, # of connection points: 6
#     Node 14, Type 0, BuildingBlock: GEDQOX_clean_sbu_0, # of connection points: 6
#     Node 15, Type 0, BuildingBlock: GEDQOX_clean_sbu_0, # of connection points: 6
#     Edge 16, Type (0, 0), BuildingBlock: CIFDUS_clean_linker_0, # of connection points: 2
#     Edge 17, Type (0, 0), BuildingBlock: CIFDUS_clean_linker_0, # of connection points: 2
#     Edge 18, Type (0, 0), BuildingBlock: CIFDUS_clean_linker_0, # of connection points: 2
#     Edge 19, Type (0, 0), BuildingBlock: CIFDUS_clean_linker_0, # of connection points: 2
#     Edge 20, Type (0, 0), BuildingBlock: CIFDUS_clean_linker_0, # of connection points: 2
#     Edge 21, Type (0, 0), BuildingBlock: CIFDUS_clean_linker_0, # of connection points: 2
#     Edge 22, Type (0, 0), BuildingBlock: CIFDUS_clean_linker_0, # of connection points: 2
#     Edge 23, Type (0, 0), BuildingBlock: CIFDUS_clean_linker_0, # of connection points: 2
#     Edge 24, Type (0, 0), BuildingBlock: CIFDUS_clean_linker_0, # of connection points: 2
#     Edge 25, Type (0, 0), BuildingBlock: CIFDUS_clean_linker_0, # of connection points: 2
#     Edge 26, Type (0, 0), BuildingBlock: CIFDUS_clean_linker_0, # of connection points: 2
#     Edge 27, Type (0, 0), BuildingBlock: CIFDUS_clean_linker_0, # of connection points: 2
#     Edge 28, Type (0, 0), BuildingBlock: CIFDUS_clean_linker_0, # of connection points: 2
#     Edge 29, Type (0, 0), BuildingBlock: CIFDUS_clean_linker_0, # of connection points: 2
#     Edge 30, Type (0, 0), BuildingBlock: CIFDUS_clean_linker_0, # of connection points: 2
#     Edge 31, Type (0, 0), BuildingBlock: CIFDUS_clean_linker_0, # of connection points: 2
#     Edge 32, Type (0, 0), BuildingBlock: CIFDUS_clean_linker_0, # of connection points: 2
#     Edge 33, Type (0, 0), BuildingBlock: CIFDUS_clean_linker_0, # of connection points: 2
#     Edge 34, Type (0, 0), BuildingBlock: CIFDUS_clean_linker_0, # of connection points: 2
#     Edge 35, Type (0, 0), BuildingBlock: CIFDUS_clean_linker_0, # of connection points: 2
#     Edge 36, Type (0, 0), BuildingBlock: CIFDUS_clean_linker_0, # of connection points: 2
#     Edge 37, Type (0, 0), BuildingBlock: CIFDUS_clean_linker_0, # of connection points: 2
#     Edge 38, Type (0, 0), BuildingBlock: CIFDUS_clean_linker_0, # of connection points: 2
#     Edge 39, Type (0, 0), BuildingBlock: CIFDUS_clean_linker_0, # of connection points: 2
#     Edge 40, Type (0, 0), BuildingBlock: CIFDUS_clean_linker_0, # of connection points: 2
#     Edge 41, Type (0, 0), BuildingBlock: CIFDUS_clean_linker_0, # of connection points: 2
#     Edge 42, Type (0, 0), BuildingBlock: CIFDUS_clean_linker_0, # of connection points: 2
#     Edge 43, Type (0, 0), BuildingBlock: CIFDUS_clean_linker_0, # of connection points: 2
#     Edge 44, Type (0, 0), BuildingBlock: CIFDUS_clean_linker_0, # of connection points: 2
#     Edge 45, Type (0, 0), BuildingBlock: CIFDUS_clean_linker_0, # of connection points: 2
#     Edge 46, Type (0, 0), BuildingBlock: CIFDUS_clean_linker_0, # of connection points: 2
#     Edge 47, Type (0, 0), BuildingBlock: CIFDUS_clean_linker_0, # of connection points: 2
#     Edge 48, Type (0, 0), BuildingBlock: CIFDUS_clean_linker_0, # of connection points: 2
#     Edge 49, Type (0, 0), BuildingBlock: CIFDUS_clean_linker_0, # of connection points: 2
#     Edge 50, Type (0, 0), BuildingBlock: CIFDUS_clean_linker_0, # of connection points: 2
#     Edge 51, Type (0, 0), BuildingBlock: CIFDUS_clean_linker_0, # of connection points: 2
#     Edge 52, Type (0, 0), BuildingBlock: CIFDUS_clean_linker_0, # of connection points: 2
#     Edge 53, Type (0, 0), BuildingBlock: CIFDUS_clean_linker_0, # of connection points: 2
#     Edge 54, Type (0, 0), BuildingBlock: CIFDUS_clean_linker_0, # of connection points: 2
#     Edge 55, Type (0, 0), BuildingBlock: CIFDUS_clean_linker_0, # of connection points: 2
#     Edge 56, Type (0, 0), BuildingBlock: CIFDUS_clean_linker_0, # of connection points: 2
#     Edge 57, Type (0, 0), BuildingBlock: CIFDUS_clean_linker_0, # of connection points: 2
#     Edge 58, Type (0, 0), BuildingBlock: CIFDUS_clean_linker_0, # of connection points: 2
#     Edge 59, Type (0, 0), BuildingBlock: CIFDUS_clean_linker_0, # of connection points: 2
#     Edge 60, Type (0, 0), BuildingBlock: CIFDUS_clean_linker_0, # of connection points: 2
#     Edge 61, Type (0, 0), BuildingBlock: CIFDUS_clean_linker_0, # of connection points: 2
#     Edge 62, Type (0, 0), BuildingBlock: CIFDUS_clean_linker_0, # of connection points: 2
#     Edge 63, Type (0, 0), BuildingBlock: CIFDUS_clean_linker_0, # of connection points: 2
# Relax obj value: 0.194
# Max RMSD: 0.210
# Mean RMSD: 0.210
data_MOF--net-vbm--node1-GEDQOX_clean_sbu_0--edge1-CIFDUS_clean_linker_0
_symmetry_space_group_name_H-M    P1
_symmetry_Int_Tables_number       1
_symmetry_cell_setting            triclinic
loop_
_symmetry_equiv_pos_as_xyz
'x, y, z'
_cell_length_a     97.541277
_cell_length_b     13.881153
_cell_length_c     51.51302
_cell_angle_alpha  90.071466
_cell_angle_beta   89.942091
_cell_angle_gamma 90.011597
loop_
_atom_site_label
_atom_site_type_symbol
_atom_site_fract_x
_atom_site_fract_y
_atom_site_fract_z
_atom_type_partial_charge
Nd0 Nd 0.12321 0.15333 0.12756 0.0
Nd1 Nd 0.15335 0.13585 0.12871 0.0
C2 C 0.09615 0.13836 0.13356 0.0
C3 C 0.08257 0.08906 0.13183 0.0
C4 C 0.076 0.05633 0.15454 0.0
C5 C 0.06183 1.03789 0.1547 0.0
C6 C 0.05399 0.05193 0.13217 0.0
C7 C 0.06074 0.07535 0.10895 0.0
C8 C 0.07488 0.09333 0.10872 0.0
C9 C 0.13548 0.15983 0.0788 0.0
C10 C 0.13712 0.93538 0.12647 0.0
C11 C 0.18025 0.15432 0.12124 0.0
C12 C 0.19326 0.20984 0.12421 0.0
C13 C 0.20057 0.23964 0.10203 0.0
C14 C 0.21451 0.26473 0.10372 0.0
C15 C 0.22144 0.25978 0.12763 0.0
C16 C 0.2137 0.24087 0.15014 0.0
C17 C 0.19981 0.21611 0.14848 0.0
C18 C 0.14189 0.10781 0.17675 0.0
C19 C 0.13908 0.35412 0.13088 0.0
O20 O 0.10489 0.11624 0.15184 0.0
O21 O 0.10206 0.16942 0.11242 0.0
O22 O 0.12583 0.21745 0.0864 0.0
O23 O 0.13841 0.10167 0.09677 0.0
O24 O 0.12636 0.98937 0.1321 0.0
O25 O 0.14897 0.97557 0.12022 0.0
O26 O 0.17117 0.17971 0.10385 0.0
O27 O 0.17472 0.11585 0.14189 0.0
O28 O 0.15223 0.06059 0.16748 0.0
O29 O 0.13808 0.17409 0.16118 0.0
O30 O 0.14996 0.30041 0.12603 0.0
O31 O 0.12711 0.31386 0.13571 0.0
H32 H 0.08157 0.05236 0.17268 0.0
H33 H 0.05684 1.02019 0.17288 0.0
H34 H 0.05489 0.08672 0.09134 0.0
H35 H 0.07954 0.11807 0.09084 0.0
H36 H 0.1958 0.2364 0.08307 0.0
H37 H 0.22009 0.28017 0.08602 0.0
H38 H 0.21862 0.23933 0.16899 0.0
H39 H 0.19451 0.19516 0.16608 0.0
Nd40 Nd 0.90245 0.93575 0.12677 0.0
Nd41 Nd 0.87254 0.95026 0.12906 0.0
C42 C 0.92948 0.95198 0.13277 0.0
C43 C 0.94311 1.00037 0.13095 0.0
C44 C 0.94973 1.03278 0.15365 0.0
C45 C 0.96392 0.05059 0.15373 0.0
C46 C 0.97173 1.03586 0.13116 0.0
C47 C 0.96494 1.01271 0.10796 0.0
C48 C 0.95077 0.99561 0.1078 0.0
C49 C 0.88997 0.92457 0.07833 0.0
C50 C 0.88833 0.15284 0.12454 0.0
C51 C 0.84558 0.93166 0.12269 0.0
C52 C 0.83247 0.87669 0.12479 0.0
C53 C 0.82634 0.8372 0.10243 0.0
C54 C 0.81238 0.81199 0.10239 0.0
C55 C 0.80434 0.82576 0.12471 0.0
C56 C 0.81072 0.85632 0.14768 0.0
C57 C 0.82465 0.88116 0.14778 0.0
C58 C 0.88415 0.98218 0.17687 0.0
C59 C 0.88696 0.73303 0.13156 0.0
O60 O 0.9207 0.97566 0.15087 0.0
O61 O 0.92364 0.91922 0.11174 0.0
O62 O 0.89986 0.86905 0.08593 0.0
O63 O 0.88694 0.9835 0.09612 0.0
O64 O 0.8994 0.10057 0.12892 0.0
O65 O 0.87631 0.11126 0.12063 0.0
O66 O 0.85447 0.91118 0.10444 0.0
O67 O 0.8513 0.96452 0.14382 0.0
O68 O 0.87394 1.02928 0.16713 0.0
O69 O 0.8881 0.91551 0.16142 0.0
O70 O 0.87584 0.78533 0.12779 0.0
O71 O 0.89901 0.77445 0.13455 0.0
H72 H 0.94417 1.03702 0.17183 0.0
H73 H 0.96894 0.06811 0.17189 0.0
H74 H 0.97075 1.00107 0.0903 0.0
H75 H 0.94607 0.97117 0.08994 0.0
H76 H 0.83202 0.83275 0.0844 0.0
H77 H 0.80766 0.78869 0.08443 0.0
H78 H 0.8047 0.86763 0.1651 0.0
H79 H 0.82897 0.91103 0.16539 0.0
Nd80 Nd 0.1233 0.93669 0.37597 0.0
Nd81 Nd 0.15327 0.95638 0.37421 0.0
C82 C 0.09628 0.95036 0.36978 0.0
C83 C 0.08272 0.99915 0.37206 0.0
C84 C 0.0754 1.02401 0.34948 0.0
C85 C 0.06121 1.04136 0.3505 0.0
C86 C 0.05408 1.03317 0.37413 0.0
C87 C 0.06166 1.01902 0.39702 0.0
C88 C 0.07581 1.00228 0.39603 0.0
C89 C 0.13527 0.92801 0.42469 0.0
C90 C 0.13711 0.15603 0.37757 0.0
C91 C 0.1804 0.94132 0.37984 0.0
C92 C 0.19347 0.88528 0.37775 0.0
C93 C 0.20012 0.8518 0.40027 0.0
C94 C 0.21376 0.81907 0.39929 0.0
C95 C 0.22107 0.8182 0.37571 0.0
C96 C 0.21414 0.84588 0.35297 0.0
C97 C 0.20057 0.87935 0.35397 0.0
C98 C 0.14091 0.98068 0.3265 0.0
C99 C 0.13935 0.73691 0.37267 0.0
O100 O 0.10502 0.97532 0.35175 0.0
O101 O 0.10217 0.91716 0.39068 0.0
O102 O 0.12574 0.87043 0.4166 0.0
O103 O 0.13837 0.98734 0.40698 0.0
O104 O 0.12628 0.10178 0.37257 0.0
O105 O 0.14911 0.11628 0.38267 0.0
O106 O 0.17169 0.92303 0.39855 0.0
O107 O 0.17439 0.97052 0.35862 0.0
O108 O 0.15087 1.03292 0.33528 0.0
O109 O 0.13801 0.91393 0.34246 0.0
O110 O 0.15018 0.7912 0.37755 0.0
O111 O 0.12735 0.77665 0.36784 0.0
H112 H 0.08043 1.02259 0.33072 0.0
H113 H 0.05569 0.05306 0.33255 0.0
H114 H 0.05648 1.01463 0.4156 0.0
H115 H 0.08108 0.98458 0.41388 0.0
H116 H 0.19501 0.85537 0.41892 0.0
H117 H 0.21871 0.79673 0.4171 0.0
H118 H 0.21946 0.84652 0.3345 0.0
H119 H 0.1959 0.90506 0.33622 0.0
Nd120 Nd 0.90168 0.14102 0.37707 0.0
Nd121 Nd 0.87156 0.14486 0.37485 0.0
C122 C 0.92823 0.10414 0.37457 0.0
C123 C 0.94313 0.08343 0.37315 0.0
C124 C 0.94932 0.06281 0.34915 0.0
C125 C 0.96352 0.04959 0.34737 0.0
C126 C 0.97182 0.05614 0.36958 0.0
C127 C 0.96556 0.07076 0.39385 0.0
C128 C 0.95133 0.08432 0.39563 0.0
C129 C 0.88931 0.17536 0.42498 0.0
C130 C 0.88591 0.93151 0.37817 0.0
C131 C 0.84459 0.14722 0.38305 0.0
C132 C 0.83124 0.19903 0.38001 0.0
C133 C 0.82509 0.24409 0.40164 0.0
C134 C 0.81147 0.2769 0.40058 0.0
C135 C 0.80372 0.26617 0.3778 0.0
C136 C 0.81003 0.22613 0.35577 0.0
C137 C 0.82361 0.19248 0.35688 0.0
C138 C 0.88331 0.1535 0.32566 0.0
C139 C 0.88767 0.35104 0.3726 0.0
O140 O 0.92132 0.13891 0.35489 0.0
O141 O 0.92111 0.09286 0.39583 0.0
O142 O 0.89956 0.22409 0.41572 0.0
O143 O 0.88569 0.11404 0.40825 0.0
O144 O 0.89767 0.97804 0.37821 0.0
O145 O 0.87408 0.97824 0.37717 0.0
O146 O 0.85357 0.18134 0.39954 0.0
O147 O 0.85032 0.10675 0.36276 0.0
O148 O 0.87381 0.21068 0.33435 0.0
O149 O 0.88725 0.09963 0.34401 0.0
O150 O 0.87655 0.30636 0.38087 0.0
O151 O 0.89865 0.30129 0.36563 0.0
H152 H 0.94321 0.05893 0.33164 0.0
H153 H 0.96811 1.03721 0.32849 0.0
H154 H 0.97175 0.07647 0.41123 0.0
H155 H 0.94681 0.09888 0.41445 0.0
H156 H 0.83061 0.25022 0.41981 0.0
H157 H 0.80687 0.3084 0.41776 0.0
H158 H 0.80427 0.21739 0.33796 0.0
H159 H 0.82792 0.15794 0.33987 0.0
Nd160 Nd 0.8702 0.95404 0.87459 0.0
Nd161 Nd 0.90405 0.94292 0.8752 0.0
C162 C 0.84424 0.93639 0.88871 0.0
C163 C 0.83111 0.88568 0.88375 0.0
C164 C 0.8228 0.86239 0.90501 0.0
C165 C 0.80914 0.83468 0.90145 0.0
C166 C 0.80343 0.82765 0.87635 0.0
C167 C 0.81236 0.84045 0.85496 0.0
C168 C 0.82599 0.87039 0.8586 0.0
C169 C 0.881 0.95272 0.82456 0.0
C170 C 0.88615 0.74029 0.87246 0.0
C171 C 0.92994 0.95643 0.8607 0.0
C172 C 0.94334 1.00134 0.86633 0.0
C173 C 0.95158 1.03004 0.8454 0.0
C174 C 0.96555 0.04812 0.849 0.0
C175 C 0.97151 1.03801 0.87371 0.0
C176 C 0.96285 1.02122 0.89514 0.0
C177 C 0.94888 1.0025 0.89149 0.0
C178 C 0.89349 0.95032 0.92546 0.0
C179 C 0.88819 0.15628 0.87744 0.0
O180 O 0.8542 0.88791 0.89967 0.0
O181 O 0.84851 0.99938 0.87153 0.0
O182 O 0.86795 0.95529 0.82952 0.0
O183 O 0.88731 0.9465 0.84583 0.0
O184 O 0.87478 0.79142 0.8756 0.0
O185 O 0.8984 0.78114 0.86933 0.0
O186 O 0.92025 1.01061 0.8509 0.0
O187 O 0.92541 0.89075 0.87687 0.0
O188 O 0.90647 0.94377 0.92001 0.0
O189 O 0.88702 0.95494 0.90425 0.0
O190 O 0.89954 0.10523 0.87399 0.0
O191 O 0.87591 0.11562 0.88077 0.0
H192 H 0.82661 0.87188 0.9246 0.0
H193 H 0.80296 0.82541 0.91867 0.0
H194 H 0.80876 0.83104 0.83527 0.0
H195 H 0.8323 0.88541 0.84178 0.0
H196 H 0.94744 1.03114 0.82589 0.0
H197 H 0.97183 0.06196 0.83206 0.0
H198 H 0.96703 1.01667 0.91457 0.0
H199 H 0.94265 0.98293 0.90809 0.0
Nd200 Nd 0.15508 0.13453 0.87432 0.0
Nd201 Nd 0.12129 0.14385 0.87611 0.0
C202 C 0.18122 0.14823 0.88727 0.0
C203 C 0.19417 0.20317 0.88374 0.0
C204 C 0.19968 0.25242 0.90513 0.0
C205 C 0.2133 0.28373 0.90493 0.0
C206 C 0.22178 0.26607 0.88335 0.0
C207 C 0.21584 0.22639 0.86084 0.0
C208 C 0.20215 0.19493 0.86104 0.0
C209 C 0.14414 0.13648 0.8245 0.0
C210 C 0.13897 0.34737 0.87422 0.0
C211 C 0.09511 0.13438 0.86356 0.0
C212 C 0.08175 0.08579 0.86732 0.0
C213 C 0.0753 0.04608 0.84546 0.0
C214 C 0.0613 1.0255 0.8459 0.0
C215 C 0.05354 1.04322 0.86833 0.0
C216 C 0.06026 0.07188 0.89119 0.0
C217 C 0.0743 0.0936 0.89068 0.0
C218 C 0.13239 0.13468 0.92584 0.0
C219 C 0.13731 0.93132 0.87611 0.0
O220 O 0.17132 0.18878 0.9006 0.0
O221 O 0.17682 0.09338 0.86827 0.0
O222 O 0.15718 0.1373 0.82945 0.0
O223 O 0.13772 0.14051 0.84578 0.0
O224 O 0.15041 0.29699 0.87724 0.0
O225 O 0.12683 0.30585 0.87031 0.0
O226 O 0.10471 0.08857 0.85072 0.0
O227 O 0.09981 0.19031 0.88205 0.0
O228 O 0.11935 0.13957 0.92114 0.0
O229 O 0.13857 0.13222 0.90433 0.0
O230 O 0.12586 0.98167 0.87302 0.0
O231 O 0.14949 0.97257 0.88007 0.0
H232 H 0.19375 0.26097 0.92278 0.0
H233 H 0.21743 0.31667 0.92232 0.0
H234 H 0.22203 0.21265 0.84376 0.0
H235 H 0.19816 0.15865 0.84403 0.0
H236 H 0.08081 1.03863 0.8273 0.0
H237 H 0.05632 1.00263 0.82814 0.0
H238 H 0.05444 0.08566 0.90874 0.0
H239 H 0.07904 0.12302 0.90797 0.0
Nd240 Nd 0.87116 0.1425 0.63208 0.0
Nd241 Nd 0.90298 0.15579 0.62941 0.0
C242 C 0.84411 0.15904 0.62956 0.0
C243 C 0.83103 0.21358 0.62771 0.0
C244 C 0.82575 0.24347 0.60362 0.0
C245 C 0.8119 0.26919 0.60127 0.0
C246 C 0.80315 0.26636 0.62296 0.0
C247 C 0.80872 0.2456 0.6474 0.0
C248 C 0.82251 0.21912 0.64974 0.0
C249 C 0.88441 0.10506 0.678 0.0
C250 C 0.88605 0.3588 0.63169 0.0
C251 C 0.92918 0.14403 0.64252 0.0
C252 C 0.94275 0.09817 0.63794 0.0
C253 C 0.94859 1.04209 0.65768 0.0
C254 C 0.96247 1.01691 0.65691 0.0
C255 C 0.97107 0.04955 0.63669 0.0
C256 C 0.96483 0.09771 0.61564 0.0
C257 C 0.95084 0.1213 0.61622 0.0
C258 C 0.89312 0.14684 0.57893 0.0
C259 C 0.88783 0.9412 0.62653 0.0
O260 O 0.85181 0.14503 0.60899 0.0
O261 O 0.85105 0.16298 0.65122 0.0
O262 O 0.87403 0.05686 0.66921 0.0
O263 O 0.88765 0.17307 0.66257 0.0
O264 O 0.87479 0.30626 0.62974 0.0
O265 O 0.89833 0.31861 0.63366 0.0
O266 O 0.91953 0.09275 0.65359 0.0
O267 O 0.92448 0.20612 0.62555 0.0
O268 O 0.90602 0.1491 0.58484 0.0
O269 O 0.88608 0.14548 0.59945 0.0
O270 O 0.89892 0.99259 0.63167 0.0
O271 O 0.87575 0.98265 0.62252 0.0
H272 H 0.83205 0.24076 0.58631 0.0
H273 H 0.80782 0.286 0.58225 0.0
H274 H 0.80217 0.24246 0.66439 0.0
H275 H 0.82621 0.19602 0.66855 0.0
H276 H 0.94259 1.022 0.67455 0.0
H277 H 0.96651 0.97523 0.67289 0.0
H278 H 0.97083 0.12347 0.59941 0.0
H279 H 0.9466 0.163 0.60038 0.0
Nd280 Nd 0.15381 0.93075 0.63226 0.0
Nd281 Nd 0.12216 0.94529 0.62877 0.0
C282 C 0.18068 0.90891 0.62941 0.0
C283 C 0.19432 0.86255 0.62781 0.0
C284 C 0.19933 0.82084 0.60479 0.0
C285 C 0.21313 0.79262 0.60296 0.0
C286 C 0.22215 0.807 0.62396 0.0
C287 C 0.2169 0.84462 0.64725 0.0
C288 C 0.20317 0.87192 0.64913 0.0
C289 C 0.14094 0.97956 0.67798 0.0
C290 C 0.13607 0.72791 0.6306 0.0
C291 C 0.09595 0.9596 0.64163 0.0
C292 C 0.08219 0.99837 0.63542 0.0
C293 C 0.07435 1.03962 0.65535 0.0
C294 C 0.06046 0.06067 0.65158 0.0
C295 C 0.05388 1.03858 0.62789 0.0
C296 C 0.0621 1.00278 0.60742 0.0
C297 C 0.07608 0.98367 0.61108 0.0
C298 C 0.13235 0.94573 0.57851 0.0
C299 C 0.14035 0.14614 0.62733 0.0
O300 O 0.17303 0.92165 0.60876 0.0
O301 O 0.17379 0.90448 0.65115 0.0
O302 O 0.15213 1.0183 0.66945 0.0
O303 O 0.13668 0.91492 0.6624 0.0
O304 O 0.14836 0.76842 0.63051 0.0
O305 O 0.12471 0.78005 0.63139 0.0
O306 O 0.10534 1.01846 0.65051 0.0
O307 O 0.10089 0.89135 0.62675 0.0
O308 O 0.11948 0.9553 0.58416 0.0
O309 O 0.13928 0.94098 0.59911 0.0
O310 O 0.12822 0.10636 0.63156 0.0
O311 O 0.1515 0.09318 0.62352 0.0
H312 H 0.19275 0.81312 0.588 0.0
H313 H 0.21687 0.76369 0.58475 0.0
H314 H 0.22349 0.85495 0.66393 0.0
H315 H 0.19962 0.9044 0.66706 0.0
H316 H 0.07885 0.05213 0.67429 0.0
H317 H 0.05489 0.09206 0.66766 0.0
H318 H 0.05773 0.98412 0.58882 0.0
H319 H 0.08191 0.95271 0.59523 0.0
Nd320 Nd 0.62127 0.63479 0.12764 0.0
Nd321 Nd 0.65486 0.65003 0.1303 0.0
C322 C 0.59497 0.62673 0.14031 0.0
C323 C 0.58121 0.58436 0.13576 0.0
C324 C 0.57442 0.53946 0.15656 0.0
C325 C 0.56051 0.51551 0.15477 0.0
C326 C 0.55313 0.53607 0.13211 0.0
C327 C 0.56001 0.57609 0.11074 0.0
C328 C 0.57395 0.59996 0.11249 0.0
C329 C 0.63245 0.63262 0.0781 0.0
C330 C 0.63944 0.43371 0.1278 0.0
C331 C 0.68099 0.6673 0.11696 0.0
C332 C 0.69439 0.71521 0.12182 0.0
C333 C 0.70136 0.75824 0.10091 0.0
C334 C 0.71531 0.78191 0.10291 0.0
C335 C 0.72255 0.76225 0.12584 0.0
C336 C 0.71528 0.72801 0.14754 0.0
C337 C 0.70131 0.70506 0.14562 0.0
C338 C 0.64395 0.64118 0.17998 0.0
C339 C 0.63667 0.85146 0.13034 0.0
O340 O 0.60438 0.5742 0.15171 0.0
O341 O 0.59996 0.68647 0.12303 0.0
O342 O 0.61948 0.62134 0.08289 0.0
O343 O 0.63877 0.63858 0.09946 0.0
O344 O 0.62713 0.4739 0.12952 0.0
O345 O 0.65101 0.48461 0.12586 0.0
O346 O 0.67116 0.71671 0.10587 0.0
O347 O 0.67651 0.6045 0.13397 0.0
O348 O 0.65688 0.6536 0.17498 0.0
O349 O 0.63738 0.64068 0.15878 0.0
O350 O 0.64898 0.81119 0.12978 0.0
O351 O 0.62512 0.80043 0.13108 0.0
H352 H 0.57972 0.52716 0.17473 0.0
H353 H 0.55538 0.48454 0.17145 0.0
H354 H 0.55446 0.59195 0.09304 0.0
H355 H 0.57886 0.63431 0.09607 0.0
H356 H 0.69627 0.76719 0.08238 0.0
H357 H 0.72066 0.8082 0.0859 0.0
H358 H 0.72062 0.71331 0.16553 0.0
H359 H 0.69622 0.67344 0.16224 0.0
Nd360 Nd 0.40173 0.44696 0.1287 0.0
Nd361 Nd 0.37217 0.43948 0.13073 0.0
C362 C 0.42872 0.46657 0.13163 0.0
C363 C 0.4428 0.50687 0.13164 0.0
C364 C 0.44855 0.54919 0.15394 0.0
C365 C 0.4626 0.57106 0.15479 0.0
C366 C 0.47116 0.54924 0.13357 0.0
C367 C 0.46529 0.51053 0.111 0.0
C368 C 0.45127 0.49005 0.11001 0.0
C369 C 0.39024 0.41336 0.08019 0.0
C370 C 0.38492 0.653 0.12697 0.0
C371 C 0.34524 0.41614 0.12614 0.0
C372 C 0.33169 0.36683 0.12592 0.0
C373 C 0.32593 0.33474 0.10244 0.0
C374 C 0.31192 0.31269 0.10089 0.0
C375 C 0.30342 0.32143 0.12281 0.0
C376 C 0.30937 0.34561 0.14675 0.0
C377 C 0.32335 0.36863 0.14827 0.0
C378 C 0.38363 0.48777 0.17779 0.0
C379 C 0.38918 0.23323 0.13296 0.0
O380 O 0.42079 0.46952 0.15212 0.0
O381 O 0.42207 0.45745 0.10983 0.0
O382 O 0.39979 0.36248 0.09091 0.0
O383 O 0.38601 0.47574 0.09637 0.0
O384 O 0.39679 0.61054 0.13169 0.0
O385 O 0.37384 0.60129 0.12225 0.0
O386 O 0.35366 0.41039 0.10638 0.0
O387 O 0.35142 0.43245 0.14817 0.0
O388 O 0.37301 0.52896 0.16781 0.0
O389 O 0.38802 0.42027 0.16331 0.0
O390 O 0.37724 0.27557 0.12888 0.0
O391 O 0.40031 0.28506 0.13678 0.0
H392 H 0.44232 0.56221 0.171 0.0
H393 H 0.46689 0.60091 0.17245 0.0
H394 H 0.47161 0.49415 0.09426 0.0
H395 H 0.44719 0.45681 0.09262 0.0
H396 H 0.33202 0.3326 0.08486 0.0
H397 H 0.30757 0.2934 0.08225 0.0
H398 H 0.30303 0.35336 0.16391 0.0
H399 H 0.32739 0.39397 0.16663 0.0
Nd400 Nd 0.62308 0.43357 0.37566 0.0
Nd401 Nd 0.65313 0.45052 0.37497 0.0
C402 C 0.59593 0.44732 0.37072 0.0
C403 C 0.58233 0.49671 0.37139 0.0
C404 C 0.57615 0.52765 0.34818 0.0
C405 C 0.56201 0.54635 0.34716 0.0
C406 C 0.55378 0.5356 0.36938 0.0
C407 C 0.56014 0.51425 0.39313 0.0
C408 C 0.57426 0.49463 0.39412 0.0
C409 C 0.63473 0.41023 0.42402 0.0
C410 C 0.63705 0.65115 0.37808 0.0
C411 C 0.68027 0.43486 0.38088 0.0
C412 C 0.69355 0.38085 0.37951 0.0
C413 C 0.69885 0.33272 0.40137 0.0
C414 C 0.71255 0.30093 0.40188 0.0
C415 C 0.7214 0.31703 0.38064 0.0
C416 C 0.71583 0.3599 0.35824 0.0
C417 C 0.70214 0.39125 0.35769 0.0
C418 C 0.64153 0.48081 0.32681 0.0
C419 C 0.63902 0.23254 0.37245 0.0
O420 O 0.60443 0.46001 0.35135 0.0
O421 O 0.60212 0.4267 0.39245 0.0
O422 O 0.62525 0.35583 0.41434 0.0
O423 O 0.63818 0.47567 0.40811 0.0
O424 O 0.6263 0.59763 0.37223 0.0
O425 O 0.64892 0.61062 0.38389 0.0
O426 O 0.67149 0.41843 0.3996 0.0
O427 O 0.67432 0.4614 0.35937 0.0
O428 O 0.65146 0.53048 0.33671 0.0
O429 O 0.63792 0.41333 0.3421 0.0
O430 O 0.64983 0.28611 0.3778 0.0
O431 O 0.62709 0.27303 0.36718 0.0
H432 H 0.58201 0.53036 0.33032 0.0
H433 H 0.55735 0.56336 0.32865 0.0
H434 H 0.55402 0.5052 0.41052 0.0
H435 H 0.57861 0.47082 0.41235 0.0
H436 H 0.69261 0.32373 0.4186 0.0
H437 H 0.71638 0.26821 0.41951 0.0
H438 H 0.72216 0.37147 0.34125 0.0
H439 H 0.6985 0.42799 0.3405 0.0
Nd440 Nd 0.40188 0.65194 0.37494 0.0
Nd441 Nd 0.37145 0.63497 0.37432 0.0
C442 C 0.42897 0.63671 0.36892 0.0
C443 C 0.44259 0.58819 0.37128 0.0
C444 C 0.45001 0.56267 0.3488 0.0
C445 C 0.46421 0.54519 0.35 0.0
C446 C 0.47129 0.55397 0.37367 0.0
C447 C 0.4636 0.56903 0.39644 0.0
C448 C 0.44944 0.58578 0.3953 0.0
C449 C 0.38966 0.66101 0.4238 0.0
C450 C 0.38784 0.43429 0.3767 0.0
C451 C 0.34451 0.6514 0.38186 0.0
C452 C 0.33145 0.70759 0.3809 0.0
C453 C 0.3258 0.74585 0.40379 0.0
C454 C 0.3121 0.77679 0.40462 0.0
C455 C 0.3036 0.77129 0.38247 0.0
C456 C 0.30969 0.74047 0.35901 0.0
C457 C 0.32335 0.70835 0.3583 0.0
C458 C 0.38273 0.59984 0.32664 0.0
C459 C 0.38588 0.8527 0.37208 0.0
O460 O 0.42025 0.61248 0.35077 0.0
O461 O 0.42301 0.66984 0.38979 0.0
O462 O 0.39941 0.71739 0.41601 0.0
O463 O 0.38667 0.60229 0.40595 0.0
O464 O 0.39864 0.48793 0.37113 0.0
O465 O 0.37596 0.47464 0.38278 0.0
O466 O 0.35358 0.66875 0.4 0.0
O467 O 0.35007 0.62254 0.36012 0.0
O468 O 0.37221 0.55565 0.33621 0.0
O469 O 0.38681 0.66791 0.3415 0.0
O470 O 0.37502 0.79921 0.37726 0.0
O471 O 0.3978 0.81229 0.36669 0.0
H472 H 0.44505 0.56348 0.33 0.0
H473 H 0.4698 0.53283 0.33212 0.0
H474 H 0.46871 0.57408 0.41506 0.0
H475 H 0.44411 0.60401 0.41308 0.0
H476 H 0.3317 0.74643 0.42159 0.0
H477 H 0.30805 0.79955 0.42318 0.0
H478 H 0.30385 0.73823 0.34119 0.0
H479 H 0.32732 0.67978 0.34023 0.0
Nd480 Nd 0.372 0.44023 0.87445 0.0
Nd481 Nd 0.40209 0.45117 0.87648 0.0
C482 C 0.34544 0.41471 0.88294 0.0
C483 C 0.33213 0.36525 0.87979 0.0
C484 C 0.32396 0.35104 0.90183 0.0
C485 C 0.31002 0.32921 0.89938 0.0
C486 C 0.30391 0.3195 0.87469 0.0
C487 C 0.31255 0.32413 0.8527 0.0
C488 C 0.32644 0.34805 0.85519 0.0
C489 C 0.38319 0.47496 0.82623 0.0
C490 C 0.38941 0.23589 0.87194 0.0
C491 C 0.429 0.47187 0.87216 0.0
C492 C 0.44317 0.51071 0.87162 0.0
C493 C 0.449 0.54365 0.84833 0.0
C494 C 0.46316 0.5599 0.84653 0.0
C495 C 0.47184 0.54232 0.86787 0.0
C496 C 0.4658 0.51557 0.89163 0.0
C497 C 0.45165 0.50003 0.89347 0.0
C498 C 0.39 0.42442 0.92466 0.0
C499 C 0.38497 0.65444 0.8781 0.0
O500 O 0.35485 0.37928 0.89827 0.0
O501 O 0.35042 0.46258 0.86327 0.0
O502 O 0.37158 0.50864 0.83428 0.0
O503 O 0.38818 0.41615 0.8426 0.0
O504 O 0.3774 0.27712 0.87625 0.0
O505 O 0.40046 0.28892 0.86811 0.0
O506 O 0.42071 0.47952 0.85234 0.0
O507 O 0.42277 0.45693 0.89421 0.0
O508 O 0.40077 0.37934 0.91643 0.0
O509 O 0.38582 0.48272 0.90753 0.0
O510 O 0.39672 0.6131 0.87183 0.0
O511 O 0.37423 0.6012 0.88435 0.0
H512 H 0.32813 0.36375 0.92103 0.0
H513 H 0.30399 0.32658 0.91698 0.0
H514 H 0.30854 0.31292 0.83336 0.0
H515 H 0.33255 0.35763 0.8378 0.0
H516 H 0.44275 0.55256 0.83113 0.0
H517 H 0.46735 0.58297 0.82809 0.0
H518 H 0.47206 0.50066 0.90849 0.0
H519 H 0.4475 0.47399 0.91167 0.0
Nd520 Nd 0.65327 0.63608 0.87374 0.0
Nd521 Nd 0.62351 0.65457 0.87526 0.0
C522 C 0.68037 0.64984 0.87825 0.0
C523 C 0.69334 0.70643 0.87837 0.0
C524 C 0.6985 0.74617 0.90152 0.0
C525 C 0.71223 0.77557 0.9032 0.0
C526 C 0.72117 0.76524 0.88186 0.0
C527 C 0.71564 0.7339 0.85808 0.0
C528 C 0.70191 0.70483 0.85639 0.0
C529 C 0.64137 0.60933 0.82593 0.0
C530 C 0.63929 0.85425 0.87349 0.0
C531 C 0.59648 0.64156 0.86911 0.0
C532 C 0.58299 0.59208 0.8712 0.0
C533 C 0.57481 0.58343 0.84892 0.0
C534 C 0.56075 0.56384 0.85097 0.0
C535 C 0.55449 0.55122 0.87544 0.0
C536 C 0.56312 0.54871 0.89746 0.0
C537 C 0.57714 0.57013 0.89542 0.0
C538 C 0.63573 0.66305 0.92419 0.0
C539 C 0.63731 0.43565 0.87573 0.0
O540 O 0.672 0.65383 0.8981 0.0
O541 O 0.67405 0.63598 0.85623 0.0
O542 O 0.65102 0.5561 0.83541 0.0
O543 O 0.63814 0.67683 0.84153 0.0
O544 O 0.64989 0.79991 0.8798 0.0
O545 O 0.62763 0.81408 0.86649 0.0
O546 O 0.60521 0.61706 0.85102 0.0
O547 O 0.60238 0.67371 0.89014 0.0
O548 O 0.62611 0.71999 0.91619 0.0
O549 O 0.63856 0.60357 0.90635 0.0
O550 O 0.62653 0.48991 0.87042 0.0
O551 O 0.64917 0.47567 0.88185 0.0
H552 H 0.69218 0.74917 0.9188 0.0
H553 H 0.71602 0.80199 0.92164 0.0
H554 H 0.72214 0.72485 0.8412 0.0
H555 H 0.69831 0.67456 0.83824 0.0
H556 H 0.57906 0.59919 0.82996 0.0
H557 H 0.55473 0.56582 0.83337 0.0
H558 H 0.55899 0.53452 0.91657 0.0
H559 H 0.58319 0.57465 0.91299 0.0
Nd560 Nd 0.37153 0.65543 0.63116 0.0
Nd561 Nd 0.40343 0.63337 0.62697 0.0
C562 C 0.34453 0.65312 0.62485 0.0
C563 C 0.33132 0.70618 0.62683 0.0
C564 C 0.32552 0.74897 0.60462 0.0
C565 C 0.31194 0.78183 0.6049 0.0
C566 C 0.30396 0.77314 0.62743 0.0
C567 C 0.30991 0.73543 0.65001 0.0
C568 C 0.32344 0.70187 0.64971 0.0
C569 C 0.3851 0.64736 0.67876 0.0
C570 C 0.38925 0.85217 0.63098 0.0
C571 C 0.43007 0.62548 0.63687 0.0
C572 C 0.44359 0.57755 0.63416 0.0
C573 C 0.45077 0.55049 0.65665 0.0
C574 C 0.46494 0.53396 0.65571 0.0
C575 C 0.47211 0.54508 0.63227 0.0
C576 C 0.46472 0.56192 0.60935 0.0
C577 C 0.45057 0.57757 0.61023 0.0
C578 C 0.39274 0.64784 0.57728 0.0
C579 C 0.38565 0.43473 0.62539 0.0
O580 O 0.35316 0.67731 0.60649 0.0
O581 O 0.35062 0.62523 0.64618 0.0
O582 O 0.37519 0.70661 0.67312 0.0
O583 O 0.38783 0.59913 0.65853 0.0
O584 O 0.37718 0.81431 0.62545 0.0
O585 O 0.40001 0.79668 0.63619 0.0
O586 O 0.42084 0.59102 0.65282 0.0
O587 O 0.42479 0.66666 0.6164 0.0
O588 O 0.40549 0.62973 0.58209 0.0
O589 O 0.3862 0.64984 0.59836 0.0
O590 O 0.39812 0.47228 0.62656 0.0
O591 O 0.37443 0.48962 0.62514 0.0
H592 H 0.33125 0.75298 0.58664 0.0
H593 H 0.30753 0.81122 0.58732 0.0
H594 H 0.30388 0.72812 0.66757 0.0
H595 H 0.3275 0.66866 0.66709 0.0
H596 H 0.44566 0.55002 0.67533 0.0
H597 H 0.47044 0.52105 0.67363 0.0
H598 H 0.47007 0.57001 0.59103 0.0
H599 H 0.44536 0.59739 0.59247 0.0
Nd600 Nd 0.65301 0.44236 0.62881 0.0
Nd601 Nd 0.62342 0.44928 0.62695 0.0
C602 C 0.67979 0.41723 0.62252 0.0
C603 C 0.69304 0.36558 0.62521 0.0
C604 C 0.70024 0.33665 0.60283 0.0
C605 C 0.71428 0.31499 0.60411 0.0
C606 C 0.72137 0.3229 0.62777 0.0
C607 C 0.71383 0.34189 0.6505 0.0
C608 C 0.69983 0.36303 0.64925 0.0
C609 C 0.64141 0.47522 0.67682 0.0
C610 C 0.63596 0.2363 0.63149 0.0
C611 C 0.5966 0.47135 0.63245 0.0
C612 C 0.58263 0.51305 0.63129 0.0
C613 C 0.57619 0.54331 0.65434 0.0
C614 C 0.56198 0.55688 0.65515 0.0
C615 C 0.55401 0.54075 0.63293 0.0
C616 C 0.56052 0.51868 0.60938 0.0
C617 C 0.57473 0.50494 0.60854 0.0
C618 C 0.63545 0.43218 0.57834 0.0
C619 C 0.64023 0.65511 0.62517 0.0
O620 O 0.67083 0.39163 0.60492 0.0
O621 O 0.67423 0.45584 0.64312 0.0
O622 O 0.65202 0.52014 0.66792 0.0
O623 O 0.63727 0.41225 0.66078 0.0
O624 O 0.64771 0.27859 0.62555 0.0
O625 O 0.62509 0.28896 0.63678 0.0
O626 O 0.60534 0.49593 0.65053 0.0
O627 O 0.60235 0.43756 0.61144 0.0
O628 O 0.62525 0.38036 0.58632 0.0
O629 O 0.63923 0.48907 0.59602 0.0
O630 O 0.62855 0.61257 0.63148 0.0
O631 O 0.651 0.60258 0.61882 0.0
H632 H 0.69528 0.3379 0.58403 0.0
H633 H 0.71977 0.29981 0.58628 0.0
H634 H 0.71895 0.34621 0.66911 0.0
H635 H 0.69461 0.38416 0.66693 0.0
H636 H 0.58197 0.54954 0.6722 0.0
H637 H 0.5571 0.57351 0.67353 0.0
H638 H 0.55451 0.50535 0.59207 0.0
H639 H 0.57934 0.48121 0.5905 0.0
H640 H 0.23981 0.38158 0.10321 0.0
H641 H 0.23768 0.13559 0.15416 0.0
H642 H 0.26257 0.13094 0.15698 0.0
H643 H 0.28524 0.19854 0.14592 0.0
H644 H 0.28768 0.44043 0.0939 0.0
H645 H 0.26264 0.44548 0.0907 0.0
C646 C 0.2448 0.32707 0.11492 0.0
C647 C 0.23678 0.26041 0.12893 0.0
C648 C 0.25928 0.32416 0.11635 0.0
C649 C 0.24351 0.18977 0.14382 0.0
C650 C 0.2578 0.18643 0.1453 0.0
C651 C 0.28024 0.25178 0.13378 0.0
C652 C 0.28825 0.31865 0.12003 0.0
C653 C 0.26581 0.25364 0.13186 0.0
C654 C 0.28169 0.38745 0.10438 0.0
C655 C 0.26737 0.39061 0.10265 0.0
H656 H 0.78633 0.67486 0.12904 0.0
H657 H 0.78846 0.98109 0.11668 0.0
H658 H 0.7634 0.9908 0.11514 0.0
H659 H 0.74061 0.91192 0.11827 0.0
H660 H 0.73858 0.60662 0.13259 0.0
H661 H 0.76359 0.59617 0.13214 0.0
C662 C 0.78124 0.74333 0.12589 0.0
C663 C 0.78915 0.82721 0.1229 0.0
C664 C 0.76678 0.74848 0.12543 0.0
C665 C 0.7825 0.91572 0.11895 0.0
C666 C 0.76819 0.92126 0.11811 0.0
C667 C 0.7457 0.84343 0.12135 0.0
C668 C 0.7378 0.76025 0.12579 0.0
C669 C 0.76018 0.83824 0.1215 0.0
C670 C 0.74449 0.67178 0.12959 0.0
C671 C 0.75879 0.6657 0.12923 0.0
H672 H 0.2825 0.69429 0.35319 0.0
H673 H 0.28988 0.89459 0.41603 0.0
H674 H 0.26533 0.91753 0.4212 0.0
H675 H 0.24153 0.88591 0.40713 0.0
H676 H 0.23436 0.69877 0.34169 0.0
H677 H 0.25899 0.66833 0.33793 0.0
C678 C 0.27891 0.74475 0.36773 0.0
C679 C 0.28839 0.79168 0.38426 0.0
C680 C 0.26466 0.76052 0.37014 0.0
C681 C 0.28311 0.85494 0.40328 0.0
C682 C 0.26896 0.86903 0.40618 0.0
C683 C 0.24535 0.83757 0.39224 0.0
C684 C 0.23604 0.79428 0.37481 0.0
C685 C 0.25962 0.82224 0.38975 0.0
C686 C 0.24124 0.73317 0.35534 0.0
C687 C 0.25535 0.71577 0.35318 0.0
H688 H 0.78242 0.16535 0.39826 0.0
H689 H 0.79185 0.4238 0.35573 0.0
H690 H 0.76734 0.46268 0.35288 0.0
H691 H 0.74318 0.42169 0.36195 0.0
H692 H 0.7337 0.1597 0.40329 0.0
H693 H 0.75814 0.12387 0.40714 0.0
C694 C 0.77905 0.23035 0.3885 0.0
C695 C 0.78889 0.29187 0.37725 0.0
C696 C 0.76491 0.25128 0.3866 0.0
C697 C 0.78445 0.37555 0.36451 0.0
C698 C 0.77044 0.39755 0.36285 0.0
C699 C 0.74641 0.35609 0.37156 0.0
C700 C 0.73644 0.29358 0.38226 0.0
C701 C 0.76055 0.33551 0.37362 0.0
C702 C 0.74101 0.20993 0.39507 0.0
C703 C 0.75503 0.18908 0.39722 0.0
H704 H 0.73994 0.84199 0.84772 0.0
H705 H 0.73677 0.70898 0.92319 0.0
H706 H 0.76161 0.71138 0.92753 0.0
H707 H 0.78428 0.74401 0.90931 0.0
H708 H 0.78745 0.88921 0.83523 0.0
H709 H 0.76278 0.88241 0.83042 0.0
C710 C 0.74467 0.81344 0.86513 0.0
C711 C 0.73636 0.7756 0.88509 0.0
C712 C 0.75908 0.81437 0.86752 0.0
C713 C 0.74277 0.74014 0.90763 0.0
C714 C 0.75705 0.74034 0.91003 0.0
C715 C 0.77973 0.776 0.89222 0.0
C716 C 0.78814 0.81679 0.87271 0.0
C717 C 0.76533 0.77653 0.89 0.0
C718 C 0.78163 0.85466 0.85047 0.0
C719 C 0.76736 0.85242 0.84779 0.0
H720 H 0.28492 0.24532 0.9092 0.0
H721 H 0.28779 0.38173 0.83391 0.0
H722 H 0.26305 0.37635 0.82972 0.0
H723 H 0.24024 0.33683 0.84768 0.0
H724 H 0.23757 0.21444 0.92451 0.0
H725 H 0.26241 0.21674 0.92828 0.0
C726 C 0.28028 0.27568 0.89197 0.0
C727 C 0.28857 0.31285 0.87186 0.0
C728 C 0.26589 0.27698 0.89009 0.0
C729 C 0.28199 0.34944 0.84955 0.0
C730 C 0.2677 0.34798 0.84721 0.0
C731 C 0.2451 0.31085 0.86525 0.0
C732 C 0.23696 0.27587 0.88578 0.0
C733 C 0.25952 0.31222 0.86738 0.0
C734 C 0.24349 0.24331 0.90851 0.0
C735 C 0.25775 0.24355 0.91061 0.0
H736 H 0.73971 0.19841 0.6048 0.0
H737 H 0.73734 0.45573 0.6516 0.0
H738 H 0.76227 0.46405 0.65365 0.0
H739 H 0.78498 0.39533 0.64347 0.0
H740 H 0.78757 0.14101 0.59579 0.0
H741 H 0.76254 0.13368 0.59292 0.0
C742 C 0.74468 0.25619 0.61541 0.0
C743 C 0.73664 0.32512 0.62851 0.0
C744 C 0.75912 0.26095 0.61643 0.0
C745 C 0.74326 0.40008 0.64199 0.0
C746 C 0.75754 0.4054 0.64302 0.0
C747 C 0.78001 0.33915 0.63224 0.0
C748 C 0.78805 0.26938 0.61963 0.0
C749 C 0.7656 0.33579 0.63056 0.0
C750 C 0.78155 0.1964 0.60528 0.0
C751 C 0.76724 0.19187 0.60377 0.0
H752 H 0.24318 0.92089 0.63999 0.0
H753 H 0.23476 0.64993 0.60214 0.0
H754 H 0.25938 0.61767 0.59883 0.0
H755 H 0.28339 0.66489 0.60785 0.0
H756 H 0.29164 0.93364 0.64663 0.0
H757 H 0.26701 0.96896 0.64842 0.0
C758 C 0.24672 0.85444 0.63116 0.0
C759 C 0.23712 0.78762 0.62145 0.0
C760 C 0.26087 0.83636 0.62942 0.0
C761 C 0.24191 0.70279 0.60961 0.0
C762 C 0.25599 0.68418 0.6078 0.0
C763 C 0.27972 0.73138 0.61649 0.0
C764 C 0.28919 0.79697 0.62705 0.0
C765 C 0.26556 0.75027 0.61773 0.0
C766 C 0.28446 0.88256 0.6384 0.0
C767 C 0.27041 0.90246 0.63945 0.0
H768 H 0.12769 0.11441 0.29703 0.0
H769 H 0.14948 0.84489 0.2927 0.0
H770 H 0.15086 0.85935 0.24546 0.0
H771 H 0.14792 0.95513 0.20628 0.0
H772 H 0.126 0.22462 0.20896 0.0
H773 H 0.12211 0.2023 0.25587 0.0
C774 C 0.13231 0.05749 0.28554 0.0
C775 C 0.13829 0.97767 0.29822 0.0
C776 C 0.13309 0.0667 0.25823 0.0
C777 C 0.14451 0.90535 0.28332 0.0
C778 C 0.14543 0.9143 0.25634 0.0
C779 C 0.14217 1.00899 0.217 0.0
C780 C 0.1375 0.09255 0.20418 0.0
C781 C 0.14007 0.99568 0.24372 0.0
C782 C 0.12984 0.16032 0.21835 0.0
C783 C 0.12767 0.14753 0.24519 0.0
H784 H 0.90333 0.07254 0.29308 0.0
H785 H 0.86043 0.14971 0.29678 0.0
H786 H 0.85704 0.09223 0.25301 0.0
H787 H 0.86583 1.02912 0.21295 0.0
H788 H 0.90858 0.95794 0.20477 0.0
H789 H 0.91241 1.00212 0.25075 0.0
C790 C 0.89329 0.07685 0.28417 0.0
C791 C 0.8822 0.11749 0.29833 0.0
C792 C 0.89134 0.04431 0.25816 0.0
C793 C 0.86924 0.12135 0.28647 0.0
C794 C 0.86722 0.08764 0.26135 0.0
C795 C 0.87604 1.02226 0.22114 0.0
C796 C 0.88688 0.99024 0.20533 0.0
C797 C 0.87816 0.05036 0.24696 0.0
C798 C 0.89998 0.98123 0.21652 0.0
C799 C 0.90217 1.00762 0.24277 0.0
H800 H 0.88485 0.93912 0.70406 0.0
H801 H 0.89353 0.24113 0.71366 0.0
H802 H 0.89553 0.21794 0.76095 0.0
H803 H 0.89115 0.11382 0.80007 0.0
H804 H 0.88188 0.81329 0.78864 0.0
H805 H 0.88388 0.83319 0.74172 0.0
C806 C 0.88751 0.99962 0.71644 0.0
C807 C 0.88896 0.09172 0.70537 0.0
C808 C 0.88843 0.98571 0.74342 0.0
C809 C 0.89243 0.16937 0.72163 0.0
C810 C 0.89345 0.15607 0.74872 0.0
C811 C 0.89015 0.05214 0.78727 0.0
C812 C 0.88665 0.96133 0.79788 0.0
C813 C 0.89101 0.06491 0.75996 0.0
C814 C 0.88489 0.88292 0.78104 0.0
C815 C 0.88589 0.89462 0.75416 0.0
H816 H 0.13084 0.98562 0.79965 0.0
H817 H 0.14716 0.27104 0.78823 0.0
H818 H 0.14618 0.24963 0.74137 0.0
H819 H 0.14385 0.14412 0.70402 0.0
H820 H 0.12801 0.85669 0.7131 0.0
H821 H 0.12527 0.88464 0.76015 0.0
C822 C 0.13358 0.04443 0.78682 0.0
C823 C 0.13878 0.13122 0.79751 0.0
C824 C 0.13328 1.03051 0.75944 0.0
C825 C 0.1428 0.20504 0.78058 0.0
C826 C 0.1424 0.1923 0.75373 0.0
C827 C 0.13951 0.08804 0.71619 0.0
C828 C 0.13624 0.99833 0.70508 0.0
C829 C 0.13814 0.1045 0.743 0.0
C830 C 0.13058 0.92659 0.7211 0.0
C831 C 0.12912 0.94251 0.74807 0.0
H832 H 0.64437 0.64405 0.30039 0.0
H833 H 0.62899 0.35528 0.29128 0.0
H834 H 0.62598 0.38381 0.24427 0.0
H835 H 0.63112 0.48671 0.2047 0.0
H836 H 0.64695 0.77342 0.21671 0.0
H837 H 0.6464 0.74994 0.26343 0.0
C838 C 0.64018 0.5873 0.28826 0.0
C839 C 0.63716 0.49719 0.29934 0.0
C840 C 0.63863 0.60413 0.26154 0.0
C841 C 0.63152 0.42523 0.2833 0.0
C842 C 0.62986 0.4416 0.25635 0.0
C843 C 0.63385 0.54525 0.21766 0.0
C844 C 0.6388 0.63309 0.20712 0.0
C845 C 0.6338 0.53023 0.24504 0.0
C846 C 0.64279 0.70657 0.22421 0.0
C847 C 0.64264 0.6927 0.251 0.0
H848 H 0.39044 0.70691 0.28345 0.0
H849 H 0.38673 0.41735 0.31265 0.0
H850 H 0.38865 0.35251 0.26891 0.0
H851 H 0.38761 0.37871 0.22153 0.0
H852 H 0.39064 0.6675 0.19181 0.0
H853 H 0.39323 0.73105 0.23584 0.0
C854 C 0.39066 0.62969 0.28028 0.0
C855 C 0.38848 0.56712 0.30138 0.0
C856 C 0.39151 0.59225 0.25466 0.0
C857 C 0.38845 0.46713 0.29677 0.0
C858 C 0.38945 0.42973 0.27166 0.0
C859 C 0.38937 0.45498 0.2247 0.0
C860 C 0.38904 0.51828 0.20344 0.0
C861 C 0.39044 0.49155 0.25029 0.0
C862 C 0.39094 0.61735 0.20792 0.0
C863 C 0.39231 0.65389 0.23315 0.0
H864 H 0.36825 0.44298 0.78328 0.0
H865 H 0.40767 0.5464 0.80821 0.0
H866 H 0.41239 0.60672 0.7642 0.0
H867 H 0.40403 0.64431 0.71912 0.0
H868 H 0.36449 0.53662 0.69552 0.0
H869 H 0.36116 0.46301 0.73802 0.0
C870 C 0.37804 0.47633 0.77887 0.0
C871 C 0.38767 0.48897 0.79889 0.0
C872 C 0.38056 0.5115 0.75367 0.0
C873 C 0.40023 0.53365 0.79301 0.0
C874 C 0.40283 0.56936 0.76788 0.0
C875 C 0.39477 0.60398 0.72333 0.0
C876 C 0.38437 0.59752 0.70432 0.0
C877 C 0.3929 0.56105 0.74813 0.0
C878 C 0.37251 0.54399 0.70993 0.0
C879 C 0.37061 0.50164 0.73424 0.0
H880 H 0.6394 0.44536 0.79831 0.0
H881 H 0.63477 0.75293 0.79135 0.0
H882 H 0.63304 0.73697 0.74394 0.0
H883 H 0.63587 0.63647 0.70433 0.0
H884 H 0.63927 0.32831 0.7117 0.0
H885 H 0.6384 0.34295 0.75915 0.0
C886 C 0.63772 0.50873 0.78642 0.0
C887 C 0.63735 0.6004 0.79824 0.0
C888 C 0.63666 0.49866 0.75929 0.0
C889 C 0.63506 0.68177 0.78272 0.0
C890 C 0.63418 0.67256 0.7556 0.0
C891 C 0.63605 0.57247 0.7164 0.0
C892 C 0.63764 0.48135 0.70464 0.0
C893 C 0.63539 0.58165 0.74365 0.0
C894 C 0.63789 0.39888 0.72033 0.0
C895 C 0.63751 0.40746 0.74744 0.0
H896 H 0.1398 1.00733 0.96349 0.0
H897 H 0.13617 0.31027 0.94723 0.0
H898 H 0.13759 0.34718 0.99366 0.0
H899 H 0.13652 0.29081 0.03933 0.0
H900 H 0.14118 0.98811 0.05555 0.0
H901 H 0.14276 0.9535 0.00906 0.0
C902 C 0.1399 0.08154 0.97009 0.0
C903 C 0.1381 0.15608 0.95191 0.0
C904 C 0.14055 0.10206 0.99697 0.0
C905 C 0.13784 0.25183 0.9608 0.0
C906 C 0.13846 0.27284 0.98741 0.0
C907 C 0.13811 0.21753 0.03264 0.0
C908 C 0.13852 0.14197 0.05088 0.0
C909 C 0.13927 0.19827 0.00576 0.0
C910 C 0.14077 0.04754 0.04196 0.0
C911 C 0.14165 1.02765 0.01532 0.0
H912 H 0.88112 0.06459 0.96251 0.0
H913 H 0.8954 0.77636 0.94742 0.0
H914 H 0.89465 0.73943 0.99371 0.0
H915 H 0.8933 0.79625 0.03891 0.0
H916 H 0.87844 0.08248 0.05491 0.0
H917 H 0.87585 0.11257 0.00827 0.0
C918 C 0.8835 0.99266 0.96933 0.0
C919 C 0.88819 0.92289 0.95147 0.0
C920 C 0.88326 0.97222 0.99631 0.0
C921 C 0.89158 0.83074 0.9607 0.0
C922 C 0.89131 0.80991 0.98725 0.0
C923 C 0.8893 0.86472 0.0322 0.0
C924 C 0.88635 0.93762 0.0504 0.0
C925 C 0.88773 0.88123 0.00533 0.0
C926 C 0.88095 1.02538 0.04136 0.0
C927 C 0.87948 1.04271 0.01462 0.0
H928 H 0.1429 0.80709 0.46377 0.0
H929 H 0.12953 0.09727 0.44849 0.0
H930 H 0.12981 0.13345 0.495 0.0
H931 H 0.13157 0.07811 0.54026 0.0
H932 H 0.14328 0.78531 0.5562 0.0
H933 H 0.1461 0.75436 0.50953 0.0
C934 C 0.14025 0.8785 0.47072 0.0
C935 C 0.13656 0.95031 0.45274 0.0
C936 C 0.14016 0.89815 0.49766 0.0
C937 C 0.13287 1.04201 0.46191 0.0
C938 C 0.13291 0.06239 0.48852 0.0
C939 C 0.1351 1.0084 0.53346 0.0
C940 C 0.13742 0.93453 0.55156 0.0
C941 C 0.13633 0.99074 0.5066 0.0
C942 C 0.14179 0.84395 0.54262 0.0
C943 C 0.14322 0.82598 0.51592 0.0
H944 H 0.90179 1.03862 0.53888 0.0
H945 H 0.87371 0.2669 0.55812 0.0
H946 H 0.8695 0.29601 0.51168 0.0
H947 H 0.87573 0.26529 0.46517 0.0
H948 H 0.90283 1.02923 0.44717 0.0
H949 H 0.90539 0.99332 0.49332 0.0
C950 C 0.8945 0.09321 0.53287 0.0
C951 C 0.88807 0.15052 0.5518 0.0
C952 C 0.89208 0.10864 0.50628 0.0
C953 C 0.87865 0.22113 0.54386 0.0
C954 C 0.87636 0.23835 0.5173 0.0
C955 C 0.88204 0.20544 0.47149 0.0
C956 C 0.88924 0.15054 0.45292 0.0
C957 C 0.8833 0.18412 0.49826 0.0
C958 C 0.89729 0.07264 0.46119 0.0
C959 C 0.89876 0.05216 0.48756 0.0
H960 H 0.62623 0.51707 0.03829 0.0
H961 H 0.65003 0.76829 0.05737 0.0
H962 H 0.65374 0.80016 0.01082 0.0
H963 H 0.64793 0.76378 0.96419 0.0
H964 H 0.62502 0.50617 0.94675 0.0
H965 H 0.62319 0.46945 0.99295 0.0
C966 C 0.63257 0.57727 0.03226 0.0
C967 C 0.63794 0.63957 0.05122 0.0
C968 C 0.63461 0.59468 0.00564 0.0
C969 C 0.646 0.71808 0.04317 0.0
C970 C 0.64796 0.73693 0.01651 0.0
C971 C 0.64278 0.69881 0.97062 0.0
C972 C 0.6366 0.63747 0.9521 0.0
C973 C 0.64199 0.67697 0.99749 0.0
C974 C 0.62992 0.55379 0.96061 0.0
C975 C 0.62884 0.53298 0.98704 0.0
H976 H 0.40838 0.44033 0.96314 0.0
H977 H 0.36491 0.42719 0.94951 0.0
H978 H 0.36067 0.42717 0.99671 0.0
H979 H 0.36978 0.42287 0.04252 0.0
H980 H 0.41353 0.44293 0.05384 0.0
H981 H 0.41715 0.45016 0.00726 0.0
C982 C 0.39796 0.43819 0.97048 0.0
C983 C 0.38699 0.43313 0.95289 0.0
C984 C 0.39565 0.43989 0.99743 0.0
C985 C 0.37354 0.43143 0.96269 0.0
C986 C 0.37113 0.43116 0.98969 0.0
C987 C 0.38005 0.43044 0.03469 0.0
C988 C 0.39139 0.43154 0.05176 0.0
C989 C 0.38214 0.43453 0.00739 0.0
C990 C 0.40464 0.44093 0.04126 0.0
C991 C 0.40675 0.44498 0.01454 0.0
H992 H 0.63957 0.55598 0.46002 0.0
H993 H 0.63759 0.24742 0.45091 0.0
H994 H 0.63864 0.2262 0.49776 0.0
H995 H 0.63732 0.29439 0.54157 0.0
H996 H 0.63982 0.60142 0.55224 0.0
H997 H 0.64126 0.62448 0.50502 0.0
C998 C 0.63974 0.48428 0.46834 0.0
C999 C 0.63844 0.40317 0.45195 0.0
C1000 C 0.64014 0.47234 0.49571 0.0
C1001 C 0.63851 0.31085 0.46308 0.0
C1002 C 0.63904 0.29857 0.48992 0.0
C1003 C 0.63841 0.3662 0.53353 0.0
C1004 C 0.63838 0.44596 0.55029 0.0
C1005 C 0.63939 0.37861 0.50646 0.0
C1006 C 0.63988 0.53872 0.53969 0.0
C1007 C 0.64064 0.55191 0.51265 0.0
H1008 H 0.39155 0.51369 0.53938 0.0
H1009 H 0.38294 0.81205 0.55521 0.0
H1010 H 0.38055 0.84363 0.50851 0.0
H1011 H 0.38387 0.78885 0.46276 0.0
H1012 H 0.39076 0.4873 0.44763 0.0
H1013 H 0.39081 0.45402 0.49424 0.0
C1014 C 0.38869 0.58484 0.53259 0.0
C1015 C 0.38731 0.66028 0.55064 0.0
C1016 C 0.38728 0.60207 0.50575 0.0
C1017 C 0.38381 0.75255 0.54167 0.0
C1018 C 0.38262 0.77077 0.51494 0.0
C1019 C 0.38512 0.71572 0.46975 0.0
C1020 C 0.38745 0.64069 0.4518 0.0
C1021 C 0.38479 0.69665 0.49672 0.0
C1022 C 0.38894 0.54614 0.46104 0.0
C1023 C 0.38902 0.52713 0.48771 0.0
H1024 H 0.99147 0.17652 0.13549 0.0
H1025 H 0.98579 0.86955 0.13026 0.0
H1026 H 1.01061 0.84454 0.13135 0.0
H1027 H 0.03424 0.9106 0.13219 0.0
H1028 H 0.03996 0.21782 0.13574 0.0
H1029 H 0.01511 0.24249 0.13692 0.0
C1030 C 0.99573 0.10441 0.13469 0.0
C1031 C 0.98687 1.02484 0.13269 0.0
C1032 C 1.0101 0.09068 0.13492 0.0
C1033 C 0.99247 0.93171 0.13164 0.0
C1034 C 1.00666 0.91741 0.13228 0.0
C1035 C 0.02998 0.98264 0.13335 0.0
C1036 C 0.03885 0.06246 0.13386 0.0
C1037 C 0.01562 0.99629 0.13366 0.0
C1038 C 0.03326 0.15553 0.13529 0.0
C1039 C 0.01906 0.16963 0.13595 0.0
H1040 H 0.99109 0.93372 0.38967 0.0
H1041 H 0.98637 0.19042 0.34371 0.0
H1042 H 1.01129 0.20774 0.34061 0.0
H1043 H 0.03466 0.15129 0.35178 0.0
H1044 H 0.03924 0.89226 0.39704 0.0
H1045 H 0.01441 0.87336 0.39917 0.0
C1046 C 0.99558 0.99298 0.3789 0.0
C1047 C 0.98696 0.06077 0.3669 0.0
C1048 C 1.00996 1.00202 0.37703 0.0
C1049 C 0.99285 0.13705 0.3529 0.0
C1050 C 1.0071 0.14712 0.3512 0.0
C1051 C 0.03019 0.09088 0.36209 0.0
C1052 C 0.03882 1.02448 0.37473 0.0
C1053 C 0.01579 0.08034 0.36329 0.0
C1054 C 0.03284 0.94594 0.38778 0.0
C1055 C 0.01862 0.93468 0.38888 0.0
H1056 H 0.03404 0.9399 0.89439 0.0
H1057 H 0.03948 0.16507 0.83784 0.0
H1058 H 0.01467 0.18739 0.83499 0.0
H1059 H 0.99138 0.14413 0.849 0.0
H1060 H 0.98586 0.91215 0.90376 0.0
H1061 H 1.01057 0.89184 0.907 0.0
C1062 C 0.02972 0.99341 0.88143 0.0
C1063 C 0.03847 0.05062 0.86629 0.0
C1064 C 0.01542 1.00527 0.87972 0.0
C1065 C 0.03284 0.11967 0.84947 0.0
C1066 C 0.01869 0.13277 0.84793 0.0
C1067 C 0.99557 0.08918 0.86166 0.0
C1068 C 0.98669 1.03126 0.87652 0.0
C1069 C 1.00985 0.07623 0.86304 0.0
C1070 C 0.99239 0.96017 0.89274 0.0
C1071 C 1.00656 0.94755 0.8944 0.0
H1072 H 0.99069 0.0438 0.59756 0.0
H1073 H 0.9867 1.04266 0.68126 0.0
H1074 H 1.01134 1.03617 0.68562 0.0
H1075 H 0.03407 1.03114 0.66627 0.0
H1076 H 0.0384 0.06372 0.5831 0.0
H1077 H 0.01367 0.05807 0.57838 0.0
C1078 C 0.99508 0.04348 0.61685 0.0
C1079 C 0.98645 1.0419 0.63894 0.0
C1080 C 1.00948 0.04535 0.61949 0.0
C1081 C 0.99272 1.03998 0.66364 0.0
C1082 C 1.00696 1.03793 0.66629 0.0
C1083 C 0.02981 1.03968 0.64702 0.0
C1084 C 0.03852 0.04625 0.62511 0.0
C1085 C 0.01545 1.04096 0.64437 0.0
C1086 C 0.0323 0.05508 0.60048 0.0
C1087 C 0.01802 0.05288 0.59768 0.0
H1088 H 0.4908 0.41635 0.1232 0.0
H1089 H 0.48533 0.71067 0.14785 0.0
H1090 H 0.51026 0.7327 0.14944 0.0
H1091 H 0.53369 0.66828 0.14319 0.0
H1092 H 0.53912 0.37249 0.12014 0.0
H1093 H 0.51415 0.35022 0.11862 0.0
C1094 C 0.4951 0.48534 0.12885 0.0
C1095 C 0.48627 0.5621 0.13522 0.0
C1096 C 0.50941 0.4969 0.13 0.0
C1097 C 0.49193 0.65062 0.14293 0.0
C1098 C 0.50617 0.66322 0.14376 0.0
C1099 C 0.52933 0.59918 0.13782 0.0
C1100 C 0.5381 0.52226 0.13149 0.0
C1101 C 0.51501 0.587 0.13725 0.0
C1102 C 0.53248 0.4326 0.12484 0.0
C1103 C 0.51825 0.42003 0.124 0.0
H1104 H 0.49095 0.43438 0.35218 0.0
H1105 H 0.48599 0.69644 0.39619 0.0
H1106 H 0.51079 0.71673 0.39839 0.0
H1107 H 0.53423 0.65783 0.38904 0.0
H1108 H 0.53938 0.39762 0.34456 0.0
H1109 H 0.51448 0.37795 0.34163 0.0
C1110 C 0.49533 0.49575 0.36225 0.0
C1111 C 0.48657 0.56283 0.37444 0.0
C1112 C 0.50974 0.50708 0.36352 0.0
C1113 C 0.49246 0.64239 0.38722 0.0
C1114 C 0.50668 0.65444 0.38837 0.0
C1115 C 0.52984 0.59734 0.37859 0.0
C1116 C 0.5386 0.52952 0.36688 0.0
C1117 C 0.51546 0.58688 0.37684 0.0
C1118 C 0.53281 0.45129 0.35345 0.0
C1119 C 0.51857 0.43985 0.35186 0.0
H1120 H 0.49132 0.60077 0.90303 0.0
H1121 H 0.48692 0.48328 0.82584 0.0
H1122 H 0.51174 0.47306 0.82155 0.0
H1123 H 0.53474 0.4902 0.8403 0.0
H1124 H 0.53904 0.61516 0.91686 0.0
H1125 H 0.51435 0.623 0.92117 0.0
C1126 C 0.49575 0.57237 0.88529 0.0
C1127 C 0.48711 0.54302 0.86482 0.0
C1128 C 0.51011 0.56522 0.88301 0.0
C1129 C 0.49319 0.50813 0.84184 0.0
C1130 C 0.50744 0.50105 0.83945 0.0
C1131 C 0.53041 0.52035 0.85789 0.0
C1132 C 0.5391 0.5508 0.87827 0.0
C1133 C 0.51603 0.52858 0.86 0.0
C1134 C 0.53292 0.58787 0.90098 0.0
C1135 C 0.51867 0.59408 0.9034 0.0
H1136 H 0.49208 0.41333 0.64406 0.0
H1137 H 0.48569 0.70818 0.6211 0.0
H1138 H 0.51043 0.73607 0.62027 0.0
H1139 H 0.53409 0.67479 0.62448 0.0
H1140 H 0.54062 0.37925 0.64638 0.0
H1141 H 0.51583 0.35264 0.64901 0.0
C1142 C 0.49618 0.48339 0.6389 0.0
C1143 C 0.48717 0.55838 0.63232 0.0
C1144 C 0.51046 0.49854 0.63812 0.0
C1145 C 0.49251 0.64917 0.62582 0.0
C1146 C 0.50664 0.66521 0.62541 0.0
C1147 C 0.53001 0.605 0.62993 0.0
C1148 C 0.53902 0.52897 0.6353 0.0
C1149 C 0.51574 0.59025 0.63124 0.0
C1150 C 0.53374 0.4386 0.6423 0.0
C1151 C 0.5196 0.42342 0.64376 0.0
H1152 H 0.1567 0.79356 0.12034 0.0
H1153 H 0.11361 0.83529 0.13581 0.0
H1154 H 0.11027 0.66218 0.13889 0.0
H1155 H 0.11943 0.49622 0.13714 0.0
H1156 H 0.16257 0.45489 0.12186 0.0
H1157 H 0.16587 0.62795 0.11879 0.0
C1158 C 0.14657 0.76485 0.12426 0.0
C1159 C 0.13545 0.82839 0.12765 0.0
C1160 C 0.14465 0.66406 0.12615 0.0
C1161 C 0.12242 0.789 0.13297 0.0
C1162 C 0.12045 0.68939 0.13479 0.0
C1163 C 0.12957 0.52496 0.13326 0.0
C1164 C 0.14071 0.46139 0.12989 0.0
C1165 C 0.13148 0.62585 0.13144 0.0
C1166 C 0.15374 0.50103 0.12469 0.0
C1167 C 0.15569 0.60064 0.12286 0.0
H1168 H 0.86911 0.29267 0.13522 0.0
H1169 H 0.91131 0.25357 0.11255 0.0
H1170 H 0.91494 0.42736 0.11329 0.0
H1171 H 0.90623 0.59279 0.12077 0.0
H1172 H 0.86403 0.63154 0.14353 0.0
H1173 H 0.86043 0.45782 0.14275 0.0
C1174 C 0.87905 0.32233 0.13023 0.0
C1175 C 0.8899 0.2597 0.12376 0.0
C1176 C 0.88116 0.42318 0.13103 0.0
C1177 C 0.90277 0.29971 0.1177 0.0
C1178 C 0.90488 0.39946 0.11814 0.0
C1179 C 0.89629 0.56315 0.12575 0.0
C1180 C 0.88543 0.62585 0.13226 0.0
C1181 C 0.89419 0.46222 0.12497 0.0
C1182 C 0.87257 0.58557 0.13834 0.0
C1183 C 0.87048 0.48583 0.13788 0.0
H1184 H 0.15704 0.29674 0.37947 0.0
H1185 H 0.11326 0.25705 0.37382 0.0
H1186 H 0.10994 0.43055 0.37142 0.0
H1187 H 0.11937 0.59589 0.37082 0.0
H1188 H 0.16317 0.63534 0.37642 0.0
H1189 H 0.16645 0.46183 0.37885 0.0
C1190 C 0.14677 0.32599 0.37786 0.0
C1191 C 0.13544 0.26303 0.37696 0.0
C1192 C 0.14488 0.42686 0.37633 0.0
C1193 C 0.12222 0.30301 0.37461 0.0
C1194 C 0.12028 0.40276 0.37319 0.0
C1195 C 0.12964 0.56664 0.37244 0.0
C1196 C 0.14099 0.62967 0.37333 0.0
C1197 C 0.13152 0.4657 0.37396 0.0
C1198 C 0.15419 0.58949 0.37566 0.0
C1199 C 0.15612 0.48972 0.37708 0.0
H1200 H 0.89795 0.49232 0.40458 0.0
H1201 H 0.87548 0.44934 0.33364 0.0
H1202 H 0.87222 0.62375 0.32924 0.0
H1203 H 0.87542 0.79057 0.34605 0.0
H1204 H 0.89841 0.83311 0.41645 0.0
H1205 H 0.90157 0.65901 0.42089 0.0
C1206 C 0.89248 0.52145 0.38803 0.0
C1207 C 0.88709 0.45786 0.36926 0.0
C1208 C 0.89051 0.62238 0.38581 0.0
C1209 C 0.87983 0.49673 0.34818 0.0
C1210 C 0.8779 0.59659 0.34576 0.0
C1211 C 0.88094 0.76132 0.36251 0.0
C1212 C 0.88646 0.82473 0.38118 0.0
C1213 C 0.88305 0.66041 0.36458 0.0
C1214 C 0.89394 0.78582 0.402 0.0
C1215 C 0.89581 0.68611 0.40447 0.0
H1216 H 0.86827 0.29896 0.88018 0.0
H1217 H 0.91199 0.25842 0.87281 0.0
H1218 H 0.91538 0.43122 0.87021 0.0
H1219 H 0.90615 0.59743 0.86994 0.0
H1220 H 0.86241 0.63766 0.8773 0.0
H1221 H 0.85906 0.46488 0.88 0.0
C1222 C 0.87854 0.32775 0.87814 0.0
C1223 C 0.88979 0.26406 0.87684 0.0
C1224 C 0.88054 0.42886 0.87655 0.0
C1225 C 0.90302 0.3042 0.87399 0.0
C1226 C 0.90504 0.40392 0.87244 0.0
C1227 C 0.89587 0.56861 0.872 0.0
C1228 C 0.8846 0.63231 0.87323 0.0
C1229 C 0.8939 0.46743 0.87363 0.0
C1230 C 0.87139 0.59199 0.87613 0.0
C1231 C 0.86939 0.49228 0.87775 0.0
H1232 H 0.12167 0.4914 0.85587 0.0
H1233 H 0.15907 0.44724 0.89889 0.0
H1234 H 0.16215 0.62035 0.90324 0.0
H1235 H 0.15452 0.78754 0.89459 0.0
H1236 H 0.11714 0.83187 0.85152 0.0
H1237 H 0.11401 0.65877 0.84727 0.0
C1238 C 0.13048 0.51957 0.86621 0.0
C1239 C 0.14017 0.45503 0.87674 0.0
C1240 C 0.13232 0.62073 0.86858 0.0
C1241 C 0.1515 0.4941 0.89013 0.0
C1242 C 0.1533 0.59379 0.89274 0.0
C1243 C 0.1457 0.75936 0.88425 0.0
C1244 C 0.13605 0.82386 0.87365 0.0
C1245 C 0.14385 0.65826 0.88192 0.0
C1246 C 0.12469 0.78493 0.86031 0.0
C1247 C 0.12287 0.68526 0.85775 0.0
H1248 H 0.86786 0.79964 0.62962 0.0
H1249 H 0.91163 0.83963 0.62368 0.0
H1250 H 0.91516 0.66643 0.62533 0.0
H1251 H 0.90598 0.50072 0.62836 0.0
H1252 H 0.86221 0.46067 0.63456 0.0
H1253 H 0.85869 0.63385 0.633 0.0
C1254 C 0.87816 0.7705 0.62845 0.0
C1255 C 0.88942 0.83376 0.62634 0.0
C1256 C 0.88021 0.66947 0.6296 0.0
C1257 C 0.90269 0.79368 0.62527 0.0
C1258 C 0.90477 0.69397 0.62624 0.0
C1259 C 0.89567 0.52973 0.62947 0.0
C1260 C 0.88441 0.46635 0.63152 0.0
C1261 C 0.89363 0.63077 0.62845 0.0
C1262 C 0.87114 0.50652 0.63285 0.0
C1263 C 0.86907 0.60626 0.63195 0.0
H1264 H 0.12161 0.28452 0.61349 0.0
H1265 H 0.16202 0.24948 0.64589 0.0
H1266 H 0.16425 0.42428 0.65051 0.0
H1267 H 0.1549 0.58908 0.64469 0.0
H1268 H 0.11453 0.62349 0.61188 0.0
H1269 H 0.11229 0.44898 0.6076 0.0
C1270 C 0.13094 0.31522 0.62143 0.0
C1271 C 0.14171 0.25346 0.62898 0.0
C1272 C 0.13222 0.41652 0.6238 0.0
C1273 C 0.15368 0.29492 0.63937 0.0
C1274 C 0.15494 0.39517 0.64216 0.0
C1275 C 0.1456 0.55844 0.63663 0.0
C1276 C 0.13486 0.62027 0.62879 0.0
C1277 C 0.14432 0.45703 0.63429 0.0
C1278 C 0.1229 0.57843 0.61845 0.0
C1279 C 0.12161 0.4782 0.61588 0.0
H1280 H 0.64511 0.99599 0.1635 0.0
H1281 H 0.62685 0.94719 0.08858 0.0
H1282 H 0.62654 0.12104 0.08026 0.0
H1283 H 0.63109 0.28947 0.09461 0.0
H1284 H 0.64921 0.33839 0.16963 0.0
H1285 H 0.64957 0.1645 0.17793 0.0
C1286 C 0.64096 1.02369 0.14547 0.0
C1287 C 0.63581 0.95842 0.12682 0.0
C1288 C 0.64071 0.12461 0.1409 0.0
C1289 C 0.63059 0.99569 0.10347 0.0
C1290 C 0.63049 0.09532 0.09864 0.0
C1291 C 0.63523 0.26172 0.11263 0.0
C1292 C 0.64036 0.32694 0.13131 0.0
C1293 C 0.63546 0.16084 0.11722 0.0
C1294 C 0.64552 0.2898 0.15471 0.0
C1295 C 0.64564 0.19018 0.15952 0.0
H1296 H 0.40407 0.79147 0.1153 0.0
H1297 H 0.36299 0.75501 0.14456 0.0
H1298 H 0.36062 0.92942 0.14956 0.0
H1299 H 0.37004 0.09439 0.14489 0.0
H1300 H 0.41113 0.13064 0.11557 0.0
H1301 H 0.4135 0.9563 0.11069 0.0
C1302 C 0.39459 0.82185 0.12267 0.0
C1303 C 0.38366 0.75995 0.12919 0.0
C1304 C 0.39323 0.92295 0.12529 0.0
C1305 C 0.37147 0.80077 0.13884 0.0
C1306 C 0.37012 0.90075 0.14184 0.0
C1307 C 0.37953 0.06404 0.13754 0.0
C1308 C 0.39044 0.12602 0.13093 0.0
C1309 C 0.38089 0.96288 0.13496 0.0
C1310 C 0.40264 0.08501 0.12133 0.0
C1311 C 0.404 0.98502 0.1184 0.0
H1312 H 0.61924 0.09033 0.36801 0.0
H1313 H 0.66265 0.13194 0.37993 0.0
H1314 H 0.666 0.95897 0.38317 0.0
H1315 H 0.65679 0.79316 0.38262 0.0
H1316 H 0.6134 0.75144 0.37066 0.0
H1317 H 0.61003 0.92442 0.36746 0.0
C1318 C 0.62945 0.06165 0.37116 0.0
C1319 C 0.64065 0.12527 0.37351 0.0
C1320 C 0.63138 0.96081 0.37313 0.0
C1321 C 0.65377 0.08574 0.37789 0.0
C1322 C 0.65574 0.98617 0.37981 0.0
C1323 C 0.64659 0.82185 0.37948 0.0
C1324 C 0.63539 0.75827 0.37708 0.0
C1325 C 0.64465 0.92266 0.37751 0.0
C1326 C 0.62227 0.79771 0.37271 0.0
C1327 C 0.62029 0.89726 0.37082 0.0
H1328 H 0.4054 0.99518 0.36465 0.0
H1329 H 0.36265 0.95334 0.38332 0.0
H1330 H 0.35938 0.1263 0.38679 0.0
H1331 H 0.36843 0.29213 0.38439 0.0
H1332 H 0.41115 0.33432 0.36559 0.0
H1333 H 0.41448 0.16132 0.36231 0.0
C1334 C 0.39535 1.02377 0.36936 0.0
C1335 C 0.3843 0.96003 0.37347 0.0
C1336 C 0.39345 0.12467 0.37139 0.0
C1337 C 0.3714 0.99956 0.37981 0.0
C1338 C 0.36947 0.09914 0.38188 0.0
C1339 C 0.37848 0.26355 0.3797 0.0
C1340 C 0.3895 0.32725 0.37545 0.0
C1341 C 0.3804 0.16273 0.3777 0.0
C1342 C 0.40242 0.28797 0.36915 0.0
C1343 C 0.40438 0.18838 0.3672 0.0
H1344 H 0.40514 0.79041 0.87056 0.0
H1345 H 0.36173 0.76207 0.88486 0.0
H1346 H 0.35918 0.93685 0.88392 0.0
H1347 H 0.36919 0.09955 0.87917 0.0
H1348 H 0.41264 0.12777 0.8652 0.0
H1349 H 0.41516 0.95302 0.86599 0.0
C1350 C 0.39512 0.82229 0.87353 0.0
C1351 C 0.38367 0.76209 0.87791 0.0
C1352 C 0.39368 0.92377 0.87301 0.0
C1353 C 0.37078 0.8057 0.88164 0.0
C1354 C 0.36928 0.90616 0.88104 0.0
C1355 C 0.37922 0.0677 0.87619 0.0
C1356 C 0.39068 0.12801 0.87193 0.0
C1357 C 0.38065 0.96618 0.87675 0.0
C1358 C 0.40358 0.08424 0.86833 0.0
C1359 C 0.40506 0.98376 0.86883 0.0
H1360 H 0.65476 0.29346 0.8932 0.0
H1361 H 0.61665 0.33649 0.85238 0.0
H1362 H 0.61371 0.16307 0.84797 0.0
H1363 H 0.62179 0.99669 0.85589 0.0
H1364 H 0.65992 0.95406 0.89675 0.0
H1365 H 0.66282 0.12739 0.9011 0.0
C1366 C 0.6458 0.26493 0.88337 0.0
C1367 C 0.63589 0.32876 0.87341 0.0
C1368 C 0.6441 0.16408 0.88093 0.0
C1369 C 0.62439 0.28975 0.86062 0.0
C1370 C 0.62269 0.19007 0.85799 0.0
C1371 C 0.63074 1.02524 0.86571 0.0
C1372 C 0.64066 0.96139 0.87575 0.0
C1373 C 0.63244 0.12618 0.86815 0.0
C1374 C 0.65216 1.00063 0.88851 0.0
C1375 C 0.65384 0.1003 0.8911 0.0
H1376 H 0.3695 0.99013 0.62211 0.0
H1377 H 0.41242 0.95926 0.64063 0.0
H1378 H 0.41509 0.13428 0.64042 0.0
H1379 H 0.40538 0.29733 0.63461 0.0
H1380 H 0.36239 0.32814 0.61674 0.0
H1381 H 0.3597 0.15318 0.61708 0.0
C1382 C 0.37946 1.02132 0.62616 0.0
C1383 C 0.39074 0.96015 0.63138 0.0
C1384 C 0.38096 0.12283 0.62603 0.0
C1385 C 0.40352 1.00332 0.63656 0.0
C1386 C 0.40508 0.10393 0.63641 0.0
C1387 C 0.39542 0.26603 0.63063 0.0
C1388 C 0.38414 0.32702 0.62536 0.0
C1389 C 0.39389 0.16457 0.63106 0.0
C1390 C 0.3713 0.28402 0.6207 0.0
C1391 C 0.36974 0.18348 0.62092 0.0
H1392 H 0.62051 0.7907 0.63685 0.0
H1393 H 0.66286 0.76288 0.61368 0.0
H1394 H 0.66539 0.93747 0.61383 0.0
H1395 H 0.65568 0.10006 0.6203 0.0
H1396 H 0.61332 0.12823 0.64333 0.0
H1397 H 0.6108 0.95349 0.64341 0.0
C1398 C 0.63029 0.82271 0.63176 0.0
C1399 C 0.64144 0.76268 0.62512 0.0
C1400 C 0.63173 0.92421 0.63188 0.0
C1401 C 0.65404 0.80637 0.61875 0.0
C1402 C 0.65553 0.90675 0.61886 0.0
C1403 C 0.6459 0.06819 0.62542 0.0
C1404 C 0.63475 0.12845 0.6319 0.0
C1405 C 0.64446 0.96668 0.62537 0.0
C1406 C 0.62215 0.0847 0.63834 0.0
C1407 C 0.62066 0.98421 0.63836 0.0
loop_
_geom_bond_atom_site_label_1
_geom_bond_atom_site_label_2
_geom_bond_distance
_geom_bond_site_symmetry_2
_ccdc_geom_bond_type
Nd0 C2 2.836 . S
Nd0 O20 2.500 . S
Nd0 O21 2.492 . S
Nd0 O22 2.487 . S
Nd0 O23 2.682 . S
Nd0 O24 2.410 1_545 S
Nd0 O29 2.414 . S
Nd0 O31 2.424 . S
Nd1 C11 2.836 . S
Nd1 O23 2.414 . S
Nd1 O25 2.424 1_545 S
Nd1 O26 2.500 . S
Nd1 O27 2.492 . S
Nd1 O28 2.487 . S
Nd1 O29 2.682 . S
Nd1 O30 2.410 . S
C2 Nd0 2.836 . S
C2 C3 1.498 1_545 S
C2 O20 1.258 . S
C2 O21 1.239 . S
C3 C2 1.498 1_565 S
C3 C4 1.366 . S
C3 C8 1.407 . S
C4 C3 1.366 . S
C4 C5 1.392 . S
C4 H32 0.930 . S
C5 C4 1.392 . S
C5 C6 1.398 . S
C5 H33 0.929 . S
C6 C5 1.398 . S
C6 C7 1.352 . S
C7 C6 1.352 . S
C7 C8 1.384 . S
C7 H34 0.930 . S
C8 C3 1.407 . S
C8 C7 1.384 . S
C8 H35 0.929 1_565 S
C9 O22 1.241 . S
C9 O23 1.273 . S
C10 O24 1.251 . S
C10 O25 1.268 . S
C11 Nd1 2.836 . S
C11 C12 1.498 . S
C11 O26 1.258 . S
C11 O27 1.239 . S
C12 C11 1.498 . S
C12 C13 1.366 . S
C12 C17 1.407 . S
C13 C12 1.366 . S
C13 C14 1.392 . S
C13 H36 0.930 . S
C14 C13 1.392 . S
C14 C15 1.398 . S
C14 H37 0.929 . S
C15 C14 1.398 . S
C15 C16 1.352 . S
C16 C15 1.352 . S
C16 C17 1.384 . S
C16 H38 0.930 . S
C17 C12 1.407 . S
C17 C16 1.384 . S
C17 H39 0.929 . S
C18 O28 1.241 . S
C18 O29 1.273 . S
C19 O30 1.251 . S
C19 O31 1.268 . S
O20 Nd0 2.500 . S
O20 C2 1.258 . S
O21 Nd0 2.492 . S
O21 C2 1.239 . S
O22 Nd0 2.487 . S
O22 C9 1.241 . S
O23 Nd0 2.682 . S
O23 Nd1 2.414 . S
O23 C9 1.273 . S
O24 Nd0 2.410 1_565 S
O24 C10 1.251 . S
O25 Nd1 2.424 1_565 S
O25 C10 1.268 . S
O26 Nd1 2.500 . S
O26 C11 1.258 . S
O27 Nd1 2.492 . S
O27 C11 1.239 . S
O28 Nd1 2.487 . S
O28 C18 1.241 . S
O29 Nd0 2.414 . S
O29 Nd1 2.682 . S
O29 C18 1.273 . S
O30 Nd1 2.410 . S
O30 C19 1.251 . S
O31 Nd0 2.424 . S
O31 C19 1.268 . S
H32 C4 0.930 . S
H33 C5 0.929 . S
H34 C7 0.930 . S
H35 C8 0.929 1_545 S
H36 C13 0.930 . S
H37 C14 0.929 . S
H38 C16 0.930 . S
H39 C17 0.929 . S
Nd40 C42 2.836 . S
Nd40 O60 2.500 . S
Nd40 O61 2.492 . S
Nd40 O62 2.487 . S
Nd40 O63 2.682 . S
Nd40 O64 2.410 1_565 S
Nd40 O69 2.414 . S
Nd40 O71 2.424 . S
Nd41 C51 2.836 . S
Nd41 O63 2.414 . S
Nd41 O65 2.424 1_565 S
Nd41 O66 2.500 . S
Nd41 O67 2.492 . S
Nd41 O68 2.487 . S
Nd41 O69 2.682 . S
Nd41 O70 2.410 . S
C42 Nd40 2.836 . S
C42 C43 1.498 1_565 S
C42 O60 1.258 . S
C42 O61 1.239 . S
C43 C42 1.498 1_545 S
C43 C44 1.366 . S
C43 C48 1.407 . S
C44 C43 1.366 . S
C44 C45 1.392 . S
C44 H72 0.930 . S
C45 C44 1.392 . S
C45 C46 1.398 . S
C45 H73 0.929 . S
C46 C45 1.398 . S
C46 C47 1.352 . S
C47 C46 1.352 . S
C47 C48 1.384 . S
C47 H74 0.930 . S
C48 C43 1.407 . S
C48 C47 1.384 . S
C48 H75 0.929 1_545 S
C49 O62 1.241 . S
C49 O63 1.273 . S
C50 O64 1.251 . S
C50 O65 1.268 . S
C51 Nd41 2.836 . S
C51 C52 1.498 . S
C51 O66 1.258 . S
C51 O67 1.239 . S
C52 C51 1.498 . S
C52 C53 1.366 . S
C52 C57 1.407 . S
C53 C52 1.366 . S
C53 C54 1.392 . S
C53 H76 0.930 . S
C54 C53 1.392 . S
C54 C55 1.398 . S
C54 H77 0.929 . S
C55 C54 1.398 . S
C55 C56 1.352 . S
C56 C55 1.352 . S
C56 C57 1.384 . S
C56 H78 0.930 . S
C57 C52 1.407 . S
C57 C56 1.384 . S
C57 H79 0.929 . S
C58 O68 1.241 . S
C58 O69 1.273 . S
C59 O70 1.251 . S
C59 O71 1.268 . S
O60 Nd40 2.500 . S
O60 C42 1.258 . S
O61 Nd40 2.492 . S
O61 C42 1.239 . S
O62 Nd40 2.487 . S
O62 C49 1.241 . S
O63 Nd40 2.682 . S
O63 Nd41 2.414 . S
O63 C49 1.273 . S
O64 Nd40 2.410 1_545 S
O64 C50 1.251 . S
O65 Nd41 2.424 1_545 S
O65 C50 1.268 . S
O66 Nd41 2.500 . S
O66 C51 1.258 . S
O67 Nd41 2.492 . S
O67 C51 1.239 . S
O68 Nd41 2.487 . S
O68 C58 1.241 . S
O69 Nd40 2.414 . S
O69 Nd41 2.682 . S
O69 C58 1.273 . S
O70 Nd41 2.410 . S
O70 C59 1.251 . S
O71 Nd40 2.424 . S
O71 C59 1.268 . S
H72 C44 0.930 . S
H73 C45 0.929 . S
H74 C47 0.930 . S
H75 C48 0.929 1_565 S
H76 C53 0.930 . S
H77 C54 0.929 . S
H78 C56 0.930 . S
H79 C57 0.929 . S
Nd80 C82 2.836 . S
Nd80 O100 2.500 . S
Nd80 O101 2.492 . S
Nd80 O102 2.487 . S
Nd80 O103 2.682 . S
Nd80 O104 2.410 1_565 S
Nd80 O109 2.414 . S
Nd80 O111 2.424 . S
Nd81 C91 2.836 . S
Nd81 O103 2.414 . S
Nd81 O105 2.424 1_565 S
Nd81 O106 2.500 . S
Nd81 O107 2.492 . S
Nd81 O108 2.487 . S
Nd81 O109 2.682 . S
Nd81 O110 2.410 . S
C82 Nd80 2.836 . S
C82 C83 1.498 1_565 S
C82 O100 1.258 . S
C82 O101 1.239 . S
C83 C82 1.498 1_545 S
C83 C84 1.366 . S
C83 C88 1.407 . S
C84 C83 1.366 . S
C84 C85 1.392 . S
C84 H112 0.930 . S
C85 C84 1.392 . S
C85 C86 1.398 . S
C85 H113 0.929 . S
C86 C85 1.398 . S
C86 C87 1.352 . S
C87 C86 1.352 . S
C87 C88 1.384 . S
C87 H114 0.930 . S
C88 C83 1.407 . S
C88 C87 1.384 . S
C88 H115 0.929 1_545 S
C89 O102 1.241 . S
C89 O103 1.273 . S
C90 O104 1.251 . S
C90 O105 1.268 . S
C91 Nd81 2.836 . S
C91 C92 1.498 . S
C91 O106 1.258 . S
C91 O107 1.239 . S
C92 C91 1.498 . S
C92 C93 1.366 . S
C92 C97 1.407 . S
C93 C92 1.366 . S
C93 C94 1.392 . S
C93 H116 0.930 . S
C94 C93 1.392 . S
C94 C95 1.398 . S
C94 H117 0.929 . S
C95 C94 1.398 . S
C95 C96 1.352 . S
C96 C95 1.352 . S
C96 C97 1.384 . S
C96 H118 0.930 . S
C97 C92 1.407 . S
C97 C96 1.384 . S
C97 H119 0.929 . S
C98 O108 1.241 . S
C98 O109 1.273 . S
C99 O110 1.251 . S
C99 O111 1.268 . S
O100 Nd80 2.500 . S
O100 C82 1.258 . S
O101 Nd80 2.492 . S
O101 C82 1.239 . S
O102 Nd80 2.487 . S
O102 C89 1.241 . S
O103 Nd80 2.682 . S
O103 Nd81 2.414 . S
O103 C89 1.273 . S
O104 Nd80 2.410 1_545 S
O104 C90 1.251 . S
O105 Nd81 2.424 1_545 S
O105 C90 1.268 . S
O106 Nd81 2.500 . S
O106 C91 1.258 . S
O107 Nd81 2.492 . S
O107 C91 1.239 . S
O108 Nd81 2.487 . S
O108 C98 1.241 . S
O109 Nd80 2.414 . S
O109 Nd81 2.682 . S
O109 C98 1.273 . S
O110 Nd81 2.410 . S
O110 C99 1.251 . S
O111 Nd80 2.424 . S
O111 C99 1.268 . S
H112 C84 0.930 . S
H113 C85 0.929 . S
H114 C87 0.930 . S
H115 C88 0.929 1_565 S
H116 C93 0.930 . S
H117 C94 0.929 . S
H118 C96 0.930 . S
H119 C97 0.929 . S
Nd120 C122 2.836 . S
Nd120 O140 2.500 . S
Nd120 O141 2.492 . S
Nd120 O142 2.487 . S
Nd120 O143 2.682 . S
Nd120 O144 2.410 1_545 S
Nd120 O149 2.414 . S
Nd120 O151 2.424 . S
Nd121 C131 2.836 . S
Nd121 O143 2.414 . S
Nd121 O145 2.424 1_545 S
Nd121 O146 2.500 . S
Nd121 O147 2.492 . S
Nd121 O148 2.487 . S
Nd121 O149 2.682 . S
Nd121 O150 2.410 . S
C122 Nd120 2.836 . S
C122 C123 1.498 1_545 S
C122 O140 1.258 . S
C122 O141 1.239 . S
C123 C122 1.498 1_565 S
C123 C124 1.366 . S
C123 C128 1.407 . S
C124 C123 1.366 . S
C124 C125 1.392 . S
C124 H152 0.930 . S
C125 C124 1.392 . S
C125 C126 1.398 . S
C125 H153 0.929 . S
C126 C125 1.398 . S
C126 C127 1.352 . S
C127 C126 1.352 . S
C127 C128 1.384 . S
C127 H154 0.930 . S
C128 C123 1.407 . S
C128 C127 1.384 . S
C128 H155 0.929 1_565 S
C129 O142 1.241 . S
C129 O143 1.273 . S
C130 O144 1.251 . S
C130 O145 1.268 . S
C131 Nd121 2.836 . S
C131 C132 1.498 . S
C131 O146 1.258 . S
C131 O147 1.239 . S
C132 C131 1.498 . S
C132 C133 1.366 . S
C132 C137 1.407 . S
C133 C132 1.366 . S
C133 C134 1.392 . S
C133 H156 0.930 . S
C134 C133 1.392 . S
C134 C135 1.398 . S
C134 H157 0.929 . S
C135 C134 1.398 . S
C135 C136 1.352 . S
C136 C135 1.352 . S
C136 C137 1.384 . S
C136 H158 0.930 . S
C137 C132 1.407 . S
C137 C136 1.384 . S
C137 H159 0.929 . S
C138 O148 1.241 . S
C138 O149 1.273 . S
C139 O150 1.251 . S
C139 O151 1.268 . S
O140 Nd120 2.500 . S
O140 C122 1.258 . S
O141 Nd120 2.492 . S
O141 C122 1.239 . S
O142 Nd120 2.487 . S
O142 C129 1.241 . S
O143 Nd120 2.682 . S
O143 Nd121 2.414 . S
O143 C129 1.273 . S
O144 Nd120 2.410 1_565 S
O144 C130 1.251 . S
O145 Nd121 2.424 1_565 S
O145 C130 1.268 . S
O146 Nd121 2.500 . S
O146 C131 1.258 . S
O147 Nd121 2.492 . S
O147 C131 1.239 . S
O148 Nd121 2.487 . S
O148 C138 1.241 . S
O149 Nd120 2.414 . S
O149 Nd121 2.682 . S
O149 C138 1.273 . S
O150 Nd121 2.410 . S
O150 C139 1.251 . S
O151 Nd120 2.424 . S
O151 C139 1.268 . S
H152 C124 0.930 . S
H153 C125 0.929 . S
H154 C127 0.930 . S
H155 C128 0.929 1_545 S
H156 C133 0.930 . S
H157 C134 0.929 . S
H158 C136 0.930 . S
H159 C137 0.929 . S
Nd160 C162 2.836 . S
Nd160 O180 2.500 . S
Nd160 O181 2.492 . S
Nd160 O182 2.487 . S
Nd160 O183 2.682 . S
Nd160 O184 2.410 . S
Nd160 O189 2.414 . S
Nd160 O191 2.424 1_565 S
Nd161 C171 2.836 . S
Nd161 O183 2.414 . S
Nd161 O185 2.424 . S
Nd161 O186 2.500 . S
Nd161 O187 2.492 . S
Nd161 O188 2.487 . S
Nd161 O189 2.682 . S
Nd161 O190 2.410 1_565 S
C162 Nd160 2.836 . S
C162 C163 1.498 . S
C162 O180 1.258 . S
C162 O181 1.239 . S
C163 C162 1.498 . S
C163 C164 1.366 . S
C163 C168 1.407 . S
C164 C163 1.366 . S
C164 C165 1.392 . S
C164 H192 0.930 . S
C165 C164 1.392 . S
C165 C166 1.398 . S
C165 H193 0.929 . S
C166 C165 1.398 . S
C166 C167 1.352 . S
C167 C166 1.352 . S
C167 C168 1.384 . S
C167 H194 0.930 . S
C168 C163 1.407 . S
C168 C167 1.384 . S
C168 H195 0.929 . S
C169 O182 1.241 . S
C169 O183 1.273 . S
C170 O184 1.251 . S
C170 O185 1.268 . S
C171 Nd161 2.836 . S
C171 C172 1.498 1_565 S
C171 O186 1.258 . S
C171 O187 1.239 . S
C172 C171 1.498 1_545 S
C172 C173 1.366 . S
C172 C177 1.407 . S
C173 C172 1.366 . S
C173 C174 1.392 . S
C173 H196 0.930 . S
C174 C173 1.392 . S
C174 C175 1.398 . S
C174 H197 0.929 . S
C175 C174 1.398 . S
C175 C176 1.352 . S
C176 C175 1.352 . S
C176 C177 1.384 . S
C176 H198 0.930 . S
C177 C172 1.407 . S
C177 C176 1.384 . S
C177 H199 0.929 1_545 S
C178 O188 1.241 . S
C178 O189 1.273 . S
C179 O190 1.251 . S
C179 O191 1.268 . S
O180 Nd160 2.500 . S
O180 C162 1.258 . S
O181 Nd160 2.492 . S
O181 C162 1.239 . S
O182 Nd160 2.487 . S
O182 C169 1.241 . S
O183 Nd160 2.682 . S
O183 Nd161 2.414 . S
O183 C169 1.273 . S
O184 Nd160 2.410 . S
O184 C170 1.251 . S
O185 Nd161 2.424 . S
O185 C170 1.268 . S
O186 Nd161 2.500 . S
O186 C171 1.258 . S
O187 Nd161 2.492 . S
O187 C171 1.239 . S
O188 Nd161 2.487 . S
O188 C178 1.241 . S
O189 Nd160 2.414 . S
O189 Nd161 2.682 . S
O189 C178 1.273 . S
O190 Nd161 2.410 1_545 S
O190 C179 1.251 . S
O191 Nd160 2.424 1_545 S
O191 C179 1.268 . S
H192 C164 0.930 . S
H193 C165 0.929 . S
H194 C167 0.930 . S
H195 C168 0.929 . S
H196 C173 0.930 . S
H197 C174 0.929 . S
H198 C176 0.930 . S
H199 C177 0.929 1_565 S
Nd200 C202 2.836 . S
Nd200 O220 2.500 . S
Nd200 O221 2.492 . S
Nd200 O222 2.487 . S
Nd200 O223 2.682 . S
Nd200 O224 2.410 . S
Nd200 O229 2.414 . S
Nd200 O231 2.424 1_545 S
Nd201 C211 2.836 . S
Nd201 O223 2.414 . S
Nd201 O225 2.424 . S
Nd201 O226 2.500 . S
Nd201 O227 2.492 . S
Nd201 O228 2.487 . S
Nd201 O229 2.682 . S
Nd201 O230 2.410 1_545 S
C202 Nd200 2.836 . S
C202 C203 1.498 . S
C202 O220 1.258 . S
C202 O221 1.239 . S
C203 C202 1.498 . S
C203 C204 1.366 . S
C203 C208 1.407 . S
C204 C203 1.366 . S
C204 C205 1.392 . S
C204 H232 0.930 . S
C205 C204 1.392 . S
C205 C206 1.398 . S
C205 H233 0.929 . S
C206 C205 1.398 . S
C206 C207 1.352 . S
C207 C206 1.352 . S
C207 C208 1.384 . S
C207 H234 0.930 . S
C208 C203 1.407 . S
C208 C207 1.384 . S
C208 H235 0.929 . S
C209 O222 1.241 . S
C209 O223 1.273 . S
C210 O224 1.251 . S
C210 O225 1.268 . S
C211 Nd201 2.836 . S
C211 C212 1.498 1_545 S
C211 O226 1.258 . S
C211 O227 1.239 . S
C212 C211 1.498 1_565 S
C212 C213 1.366 . S
C212 C217 1.407 . S
C213 C212 1.366 . S
C213 C214 1.392 . S
C213 H236 0.930 . S
C214 C213 1.392 . S
C214 C215 1.398 . S
C214 H237 0.929 . S
C215 C214 1.398 . S
C215 C216 1.352 . S
C216 C215 1.352 . S
C216 C217 1.384 . S
C216 H238 0.930 . S
C217 C212 1.407 . S
C217 C216 1.384 . S
C217 H239 0.929 1_565 S
C218 O228 1.241 . S
C218 O229 1.273 . S
C219 O230 1.251 . S
C219 O231 1.268 . S
O220 Nd200 2.500 . S
O220 C202 1.258 . S
O221 Nd200 2.492 . S
O221 C202 1.239 . S
O222 Nd200 2.487 . S
O222 C209 1.241 . S
O223 Nd200 2.682 . S
O223 Nd201 2.414 . S
O223 C209 1.273 . S
O224 Nd200 2.410 . S
O224 C210 1.251 . S
O225 Nd201 2.424 . S
O225 C210 1.268 . S
O226 Nd201 2.500 . S
O226 C211 1.258 . S
O227 Nd201 2.492 . S
O227 C211 1.239 . S
O228 Nd201 2.487 . S
O228 C218 1.241 . S
O229 Nd200 2.414 . S
O229 Nd201 2.682 . S
O229 C218 1.273 . S
O230 Nd201 2.410 1_565 S
O230 C219 1.251 . S
O231 Nd200 2.424 1_565 S
O231 C219 1.268 . S
H232 C204 0.930 . S
H233 C205 0.929 . S
H234 C207 0.930 . S
H235 C208 0.929 . S
H236 C213 0.930 . S
H237 C214 0.929 . S
H238 C216 0.930 . S
H239 C217 0.929 1_545 S
Nd240 C242 2.836 . S
Nd240 O260 2.500 . S
Nd240 O261 2.492 . S
Nd240 O262 2.487 . S
Nd240 O263 2.682 . S
Nd240 O264 2.410 . S
Nd240 O269 2.414 . S
Nd240 O271 2.424 1_545 S
Nd241 C251 2.836 . S
Nd241 O263 2.414 . S
Nd241 O265 2.424 . S
Nd241 O266 2.500 . S
Nd241 O267 2.492 . S
Nd241 O268 2.487 . S
Nd241 O269 2.682 . S
Nd241 O270 2.410 1_545 S
C242 Nd240 2.836 . S
C242 C243 1.498 . S
C242 O260 1.258 . S
C242 O261 1.239 . S
C243 C242 1.498 . S
C243 C244 1.366 . S
C243 C248 1.407 . S
C244 C243 1.366 . S
C244 C245 1.392 . S
C244 H272 0.930 . S
C245 C244 1.392 . S
C245 C246 1.398 . S
C245 H273 0.929 . S
C246 C245 1.398 . S
C246 C247 1.352 . S
C247 C246 1.352 . S
C247 C248 1.384 . S
C247 H274 0.930 . S
C248 C243 1.407 . S
C248 C247 1.384 . S
C248 H275 0.929 . S
C249 O262 1.241 . S
C249 O263 1.273 . S
C250 O264 1.251 . S
C250 O265 1.268 . S
C251 Nd241 2.836 . S
C251 C252 1.498 1_545 S
C251 O266 1.258 . S
C251 O267 1.239 . S
C252 C251 1.498 1_565 S
C252 C253 1.366 . S
C252 C257 1.407 . S
C253 C252 1.366 . S
C253 C254 1.392 . S
C253 H276 0.930 . S
C254 C253 1.392 . S
C254 C255 1.398 . S
C254 H277 0.929 . S
C255 C254 1.398 . S
C255 C256 1.352 . S
C256 C255 1.352 . S
C256 C257 1.384 . S
C256 H278 0.930 . S
C257 C252 1.407 . S
C257 C256 1.384 . S
C257 H279 0.929 1_565 S
C258 O268 1.241 . S
C258 O269 1.273 . S
C259 O270 1.251 . S
C259 O271 1.268 . S
O260 Nd240 2.500 . S
O260 C242 1.258 . S
O261 Nd240 2.492 . S
O261 C242 1.239 . S
O262 Nd240 2.487 . S
O262 C249 1.241 . S
O263 Nd240 2.682 . S
O263 Nd241 2.414 . S
O263 C249 1.273 . S
O264 Nd240 2.410 . S
O264 C250 1.251 . S
O265 Nd241 2.424 . S
O265 C250 1.268 . S
O266 Nd241 2.500 . S
O266 C251 1.258 . S
O267 Nd241 2.492 . S
O267 C251 1.239 . S
O268 Nd241 2.487 . S
O268 C258 1.241 . S
O269 Nd240 2.414 . S
O269 Nd241 2.682 . S
O269 C258 1.273 . S
O270 Nd241 2.410 1_565 S
O270 C259 1.251 . S
O271 Nd240 2.424 1_565 S
O271 C259 1.268 . S
H272 C244 0.930 . S
H273 C245 0.929 . S
H274 C247 0.930 . S
H275 C248 0.929 . S
H276 C253 0.930 . S
H277 C254 0.929 . S
H278 C256 0.930 . S
H279 C257 0.929 1_545 S
Nd280 C282 2.836 . S
Nd280 O300 2.500 . S
Nd280 O301 2.492 . S
Nd280 O302 2.487 . S
Nd280 O303 2.682 . S
Nd280 O304 2.410 . S
Nd280 O309 2.414 . S
Nd280 O311 2.424 1_565 S
Nd281 C291 2.836 . S
Nd281 O303 2.414 . S
Nd281 O305 2.424 . S
Nd281 O306 2.500 . S
Nd281 O307 2.492 . S
Nd281 O308 2.487 . S
Nd281 O309 2.682 . S
Nd281 O310 2.410 1_565 S
C282 Nd280 2.836 . S
C282 C283 1.498 . S
C282 O300 1.258 . S
C282 O301 1.239 . S
C283 C282 1.498 . S
C283 C284 1.366 . S
C283 C288 1.407 . S
C284 C283 1.366 . S
C284 C285 1.392 . S
C284 H312 0.930 . S
C285 C284 1.392 . S
C285 C286 1.398 . S
C285 H313 0.929 . S
C286 C285 1.398 . S
C286 C287 1.352 . S
C287 C286 1.352 . S
C287 C288 1.384 . S
C287 H314 0.930 . S
C288 C283 1.407 . S
C288 C287 1.384 . S
C288 H315 0.929 . S
C289 O302 1.241 . S
C289 O303 1.273 . S
C290 O304 1.251 . S
C290 O305 1.268 . S
C291 Nd281 2.836 . S
C291 C292 1.498 1_565 S
C291 O306 1.258 . S
C291 O307 1.239 . S
C292 C291 1.498 1_545 S
C292 C293 1.366 . S
C292 C297 1.407 . S
C293 C292 1.366 . S
C293 C294 1.392 . S
C293 H316 0.930 . S
C294 C293 1.392 . S
C294 C295 1.398 . S
C294 H317 0.929 . S
C295 C294 1.398 . S
C295 C296 1.352 . S
C296 C295 1.352 . S
C296 C297 1.384 . S
C296 H318 0.930 . S
C297 C292 1.407 . S
C297 C296 1.384 . S
C297 H319 0.929 1_545 S
C298 O308 1.241 . S
C298 O309 1.273 . S
C299 O310 1.251 . S
C299 O311 1.268 . S
O300 Nd280 2.500 . S
O300 C282 1.258 . S
O301 Nd280 2.492 . S
O301 C282 1.239 . S
O302 Nd280 2.487 . S
O302 C289 1.241 . S
O303 Nd280 2.682 . S
O303 Nd281 2.414 . S
O303 C289 1.273 . S
O304 Nd280 2.410 . S
O304 C290 1.251 . S
O305 Nd281 2.424 . S
O305 C290 1.268 . S
O306 Nd281 2.500 . S
O306 C291 1.258 . S
O307 Nd281 2.492 . S
O307 C291 1.239 . S
O308 Nd281 2.487 . S
O308 C298 1.241 . S
O309 Nd280 2.414 . S
O309 Nd281 2.682 . S
O309 C298 1.273 . S
O310 Nd281 2.410 1_545 S
O310 C299 1.251 . S
O311 Nd280 2.424 1_545 S
O311 C299 1.268 . S
H312 C284 0.930 . S
H313 C285 0.929 . S
H314 C287 0.930 . S
H315 C288 0.929 . S
H316 C293 0.930 . S
H317 C294 0.929 . S
H318 C296 0.930 . S
H319 C297 0.929 1_565 S
Nd320 C322 2.836 . S
Nd320 O340 2.500 . S
Nd320 O341 2.492 . S
Nd320 O342 2.487 . S
Nd320 O343 2.682 . S
Nd320 O344 2.410 . S
Nd320 O349 2.414 . S
Nd320 O351 2.424 . S
Nd321 C331 2.836 . S
Nd321 O343 2.414 . S
Nd321 O345 2.424 . S
Nd321 O346 2.500 . S
Nd321 O347 2.492 . S
Nd321 O348 2.487 . S
Nd321 O349 2.682 . S
Nd321 O350 2.410 . S
C322 Nd320 2.836 . S
C322 C323 1.498 . S
C322 O340 1.258 . S
C322 O341 1.239 . S
C323 C322 1.498 . S
C323 C324 1.366 . S
C323 C328 1.407 . S
C324 C323 1.366 . S
C324 C325 1.392 . S
C324 H352 0.930 . S
C325 C324 1.392 . S
C325 C326 1.398 . S
C325 H353 0.929 . S
C326 C325 1.398 . S
C326 C327 1.352 . S
C327 C326 1.352 . S
C327 C328 1.384 . S
C327 H354 0.930 . S
C328 C323 1.407 . S
C328 C327 1.384 . S
C328 H355 0.929 . S
C329 O342 1.241 . S
C329 O343 1.273 . S
C330 O344 1.251 . S
C330 O345 1.268 . S
C331 Nd321 2.836 . S
C331 C332 1.498 . S
C331 O346 1.258 . S
C331 O347 1.239 . S
C332 C331 1.498 . S
C332 C333 1.366 . S
C332 C337 1.407 . S
C333 C332 1.366 . S
C333 C334 1.392 . S
C333 H356 0.930 . S
C334 C333 1.392 . S
C334 C335 1.398 . S
C334 H357 0.929 . S
C335 C334 1.398 . S
C335 C336 1.352 . S
C336 C335 1.352 . S
C336 C337 1.384 . S
C336 H358 0.930 . S
C337 C332 1.407 . S
C337 C336 1.384 . S
C337 H359 0.929 . S
C338 O348 1.241 . S
C338 O349 1.273 . S
C339 O350 1.251 . S
C339 O351 1.268 . S
O340 Nd320 2.500 . S
O340 C322 1.258 . S
O341 Nd320 2.492 . S
O341 C322 1.239 . S
O342 Nd320 2.487 . S
O342 C329 1.241 . S
O343 Nd320 2.682 . S
O343 Nd321 2.414 . S
O343 C329 1.273 . S
O344 Nd320 2.410 . S
O344 C330 1.251 . S
O345 Nd321 2.424 . S
O345 C330 1.268 . S
O346 Nd321 2.500 . S
O346 C331 1.258 . S
O347 Nd321 2.492 . S
O347 C331 1.239 . S
O348 Nd321 2.487 . S
O348 C338 1.241 . S
O349 Nd320 2.414 . S
O349 Nd321 2.682 . S
O349 C338 1.273 . S
O350 Nd321 2.410 . S
O350 C339 1.251 . S
O351 Nd320 2.424 . S
O351 C339 1.268 . S
H352 C324 0.930 . S
H353 C325 0.929 . S
H354 C327 0.930 . S
H355 C328 0.929 . S
H356 C333 0.930 . S
H357 C334 0.929 . S
H358 C336 0.930 . S
H359 C337 0.929 . S
Nd360 C362 2.836 . S
Nd360 O380 2.500 . S
Nd360 O381 2.492 . S
Nd360 O382 2.487 . S
Nd360 O383 2.682 . S
Nd360 O384 2.410 . S
Nd360 O389 2.414 . S
Nd360 O391 2.424 . S
Nd361 C371 2.836 . S
Nd361 O383 2.414 . S
Nd361 O385 2.424 . S
Nd361 O386 2.500 . S
Nd361 O387 2.492 . S
Nd361 O388 2.487 . S
Nd361 O389 2.682 . S
Nd361 O390 2.410 . S
C362 Nd360 2.836 . S
C362 C363 1.498 . S
C362 O380 1.258 . S
C362 O381 1.239 . S
C363 C362 1.498 . S
C363 C364 1.366 . S
C363 C368 1.407 . S
C364 C363 1.366 . S
C364 C365 1.392 . S
C364 H392 0.930 . S
C365 C364 1.392 . S
C365 C366 1.398 . S
C365 H393 0.929 . S
C366 C365 1.398 . S
C366 C367 1.352 . S
C367 C366 1.352 . S
C367 C368 1.384 . S
C367 H394 0.930 . S
C368 C363 1.407 . S
C368 C367 1.384 . S
C368 H395 0.929 . S
C369 O382 1.241 . S
C369 O383 1.273 . S
C370 O384 1.251 . S
C370 O385 1.268 . S
C371 Nd361 2.836 . S
C371 C372 1.498 . S
C371 O386 1.258 . S
C371 O387 1.239 . S
C372 C371 1.498 . S
C372 C373 1.366 . S
C372 C377 1.407 . S
C373 C372 1.366 . S
C373 C374 1.392 . S
C373 H396 0.930 . S
C374 C373 1.392 . S
C374 C375 1.398 . S
C374 H397 0.929 . S
C375 C374 1.398 . S
C375 C376 1.352 . S
C376 C375 1.352 . S
C376 C377 1.384 . S
C376 H398 0.930 . S
C377 C372 1.407 . S
C377 C376 1.384 . S
C377 H399 0.929 . S
C378 O388 1.241 . S
C378 O389 1.273 . S
C379 O390 1.251 . S
C379 O391 1.268 . S
O380 Nd360 2.500 . S
O380 C362 1.258 . S
O381 Nd360 2.492 . S
O381 C362 1.239 . S
O382 Nd360 2.487 . S
O382 C369 1.241 . S
O383 Nd360 2.682 . S
O383 Nd361 2.414 . S
O383 C369 1.273 . S
O384 Nd360 2.410 . S
O384 C370 1.251 . S
O385 Nd361 2.424 . S
O385 C370 1.268 . S
O386 Nd361 2.500 . S
O386 C371 1.258 . S
O387 Nd361 2.492 . S
O387 C371 1.239 . S
O388 Nd361 2.487 . S
O388 C378 1.241 . S
O389 Nd360 2.414 . S
O389 Nd361 2.682 . S
O389 C378 1.273 . S
O390 Nd361 2.410 . S
O390 C379 1.251 . S
O391 Nd360 2.424 . S
O391 C379 1.268 . S
H392 C364 0.930 . S
H393 C365 0.929 . S
H394 C367 0.930 . S
H395 C368 0.929 . S
H396 C373 0.930 . S
H397 C374 0.929 . S
H398 C376 0.930 . S
H399 C377 0.929 . S
Nd400 C402 2.836 . S
Nd400 O420 2.500 . S
Nd400 O421 2.492 . S
Nd400 O422 2.487 . S
Nd400 O423 2.682 . S
Nd400 O424 2.410 . S
Nd400 O429 2.414 . S
Nd400 O431 2.424 . S
Nd401 C411 2.836 . S
Nd401 O423 2.414 . S
Nd401 O425 2.424 . S
Nd401 O426 2.500 . S
Nd401 O427 2.492 . S
Nd401 O428 2.487 . S
Nd401 O429 2.682 . S
Nd401 O430 2.410 . S
C402 Nd400 2.836 . S
C402 C403 1.498 . S
C402 O420 1.258 . S
C402 O421 1.239 . S
C403 C402 1.498 . S
C403 C404 1.366 . S
C403 C408 1.407 . S
C404 C403 1.366 . S
C404 C405 1.392 . S
C404 H432 0.930 . S
C405 C404 1.392 . S
C405 C406 1.398 . S
C405 H433 0.929 . S
C406 C405 1.398 . S
C406 C407 1.352 . S
C407 C406 1.352 . S
C407 C408 1.384 . S
C407 H434 0.930 . S
C408 C403 1.407 . S
C408 C407 1.384 . S
C408 H435 0.929 . S
C409 O422 1.241 . S
C409 O423 1.273 . S
C410 O424 1.251 . S
C410 O425 1.268 . S
C411 Nd401 2.836 . S
C411 C412 1.498 . S
C411 O426 1.258 . S
C411 O427 1.239 . S
C412 C411 1.498 . S
C412 C413 1.366 . S
C412 C417 1.407 . S
C413 C412 1.366 . S
C413 C414 1.392 . S
C413 H436 0.930 . S
C414 C413 1.392 . S
C414 C415 1.398 . S
C414 H437 0.929 . S
C415 C414 1.398 . S
C415 C416 1.352 . S
C416 C415 1.352 . S
C416 C417 1.384 . S
C416 H438 0.930 . S
C417 C412 1.407 . S
C417 C416 1.384 . S
C417 H439 0.929 . S
C418 O428 1.241 . S
C418 O429 1.273 . S
C419 O430 1.251 . S
C419 O431 1.268 . S
O420 Nd400 2.500 . S
O420 C402 1.258 . S
O421 Nd400 2.492 . S
O421 C402 1.239 . S
O422 Nd400 2.487 . S
O422 C409 1.241 . S
O423 Nd400 2.682 . S
O423 Nd401 2.414 . S
O423 C409 1.273 . S
O424 Nd400 2.410 . S
O424 C410 1.251 . S
O425 Nd401 2.424 . S
O425 C410 1.268 . S
O426 Nd401 2.500 . S
O426 C411 1.258 . S
O427 Nd401 2.492 . S
O427 C411 1.239 . S
O428 Nd401 2.487 . S
O428 C418 1.241 . S
O429 Nd400 2.414 . S
O429 Nd401 2.682 . S
O429 C418 1.273 . S
O430 Nd401 2.410 . S
O430 C419 1.251 . S
O431 Nd400 2.424 . S
O431 C419 1.268 . S
H432 C404 0.930 . S
H433 C405 0.929 . S
H434 C407 0.930 . S
H435 C408 0.929 . S
H436 C413 0.930 . S
H437 C414 0.929 . S
H438 C416 0.930 . S
H439 C417 0.929 . S
Nd440 C442 2.836 . S
Nd440 O460 2.500 . S
Nd440 O461 2.492 . S
Nd440 O462 2.487 . S
Nd440 O463 2.682 . S
Nd440 O464 2.410 . S
Nd440 O469 2.414 . S
Nd440 O471 2.424 . S
Nd441 C451 2.836 . S
Nd441 O463 2.414 . S
Nd441 O465 2.424 . S
Nd441 O466 2.500 . S
Nd441 O467 2.492 . S
Nd441 O468 2.487 . S
Nd441 O469 2.682 . S
Nd441 O470 2.410 . S
C442 Nd440 2.836 . S
C442 C443 1.498 . S
C442 O460 1.258 . S
C442 O461 1.239 . S
C443 C442 1.498 . S
C443 C444 1.366 . S
C443 C448 1.407 . S
C444 C443 1.366 . S
C444 C445 1.392 . S
C444 H472 0.930 . S
C445 C444 1.392 . S
C445 C446 1.398 . S
C445 H473 0.929 . S
C446 C445 1.398 . S
C446 C447 1.352 . S
C447 C446 1.352 . S
C447 C448 1.384 . S
C447 H474 0.930 . S
C448 C443 1.407 . S
C448 C447 1.384 . S
C448 H475 0.929 . S
C449 O462 1.241 . S
C449 O463 1.273 . S
C450 O464 1.251 . S
C450 O465 1.268 . S
C451 Nd441 2.836 . S
C451 C452 1.498 . S
C451 O466 1.258 . S
C451 O467 1.239 . S
C452 C451 1.498 . S
C452 C453 1.366 . S
C452 C457 1.407 . S
C453 C452 1.366 . S
C453 C454 1.392 . S
C453 H476 0.930 . S
C454 C453 1.392 . S
C454 C455 1.398 . S
C454 H477 0.929 . S
C455 C454 1.398 . S
C455 C456 1.352 . S
C456 C455 1.352 . S
C456 C457 1.384 . S
C456 H478 0.930 . S
C457 C452 1.407 . S
C457 C456 1.384 . S
C457 H479 0.929 . S
C458 O468 1.241 . S
C458 O469 1.273 . S
C459 O470 1.251 . S
C459 O471 1.268 . S
O460 Nd440 2.500 . S
O460 C442 1.258 . S
O461 Nd440 2.492 . S
O461 C442 1.239 . S
O462 Nd440 2.487 . S
O462 C449 1.241 . S
O463 Nd440 2.682 . S
O463 Nd441 2.414 . S
O463 C449 1.273 . S
O464 Nd440 2.410 . S
O464 C450 1.251 . S
O465 Nd441 2.424 . S
O465 C450 1.268 . S
O466 Nd441 2.500 . S
O466 C451 1.258 . S
O467 Nd441 2.492 . S
O467 C451 1.239 . S
O468 Nd441 2.487 . S
O468 C458 1.241 . S
O469 Nd440 2.414 . S
O469 Nd441 2.682 . S
O469 C458 1.273 . S
O470 Nd441 2.410 . S
O470 C459 1.251 . S
O471 Nd440 2.424 . S
O471 C459 1.268 . S
H472 C444 0.930 . S
H473 C445 0.929 . S
H474 C447 0.930 . S
H475 C448 0.929 . S
H476 C453 0.930 . S
H477 C454 0.929 . S
H478 C456 0.930 . S
H479 C457 0.929 . S
Nd480 C482 2.836 . S
Nd480 O500 2.500 . S
Nd480 O501 2.492 . S
Nd480 O502 2.487 . S
Nd480 O503 2.682 . S
Nd480 O504 2.410 . S
Nd480 O509 2.414 . S
Nd480 O511 2.424 . S
Nd481 C491 2.836 . S
Nd481 O503 2.414 . S
Nd481 O505 2.424 . S
Nd481 O506 2.500 . S
Nd481 O507 2.492 . S
Nd481 O508 2.487 . S
Nd481 O509 2.682 . S
Nd481 O510 2.410 . S
C482 Nd480 2.836 . S
C482 C483 1.498 . S
C482 O500 1.258 . S
C482 O501 1.239 . S
C483 C482 1.498 . S
C483 C484 1.366 . S
C483 C488 1.407 . S
C484 C483 1.366 . S
C484 C485 1.392 . S
C484 H512 0.930 . S
C485 C484 1.392 . S
C485 C486 1.398 . S
C485 H513 0.929 . S
C486 C485 1.398 . S
C486 C487 1.352 . S
C487 C486 1.352 . S
C487 C488 1.384 . S
C487 H514 0.930 . S
C488 C483 1.407 . S
C488 C487 1.384 . S
C488 H515 0.929 . S
C489 O502 1.241 . S
C489 O503 1.273 . S
C490 O504 1.251 . S
C490 O505 1.268 . S
C491 Nd481 2.836 . S
C491 C492 1.498 . S
C491 O506 1.258 . S
C491 O507 1.239 . S
C492 C491 1.498 . S
C492 C493 1.366 . S
C492 C497 1.407 . S
C493 C492 1.366 . S
C493 C494 1.392 . S
C493 H516 0.930 . S
C494 C493 1.392 . S
C494 C495 1.398 . S
C494 H517 0.929 . S
C495 C494 1.398 . S
C495 C496 1.352 . S
C496 C495 1.352 . S
C496 C497 1.384 . S
C496 H518 0.930 . S
C497 C492 1.407 . S
C497 C496 1.384 . S
C497 H519 0.929 . S
C498 O508 1.241 . S
C498 O509 1.273 . S
C499 O510 1.251 . S
C499 O511 1.268 . S
O500 Nd480 2.500 . S
O500 C482 1.258 . S
O501 Nd480 2.492 . S
O501 C482 1.239 . S
O502 Nd480 2.487 . S
O502 C489 1.241 . S
O503 Nd480 2.682 . S
O503 Nd481 2.414 . S
O503 C489 1.273 . S
O504 Nd480 2.410 . S
O504 C490 1.251 . S
O505 Nd481 2.424 . S
O505 C490 1.268 . S
O506 Nd481 2.500 . S
O506 C491 1.258 . S
O507 Nd481 2.492 . S
O507 C491 1.239 . S
O508 Nd481 2.487 . S
O508 C498 1.241 . S
O509 Nd480 2.414 . S
O509 Nd481 2.682 . S
O509 C498 1.273 . S
O510 Nd481 2.410 . S
O510 C499 1.251 . S
O511 Nd480 2.424 . S
O511 C499 1.268 . S
H512 C484 0.930 . S
H513 C485 0.929 . S
H514 C487 0.930 . S
H515 C488 0.929 . S
H516 C493 0.930 . S
H517 C494 0.929 . S
H518 C496 0.930 . S
H519 C497 0.929 . S
Nd520 C522 2.836 . S
Nd520 O540 2.500 . S
Nd520 O541 2.492 . S
Nd520 O542 2.487 . S
Nd520 O543 2.682 . S
Nd520 O544 2.410 . S
Nd520 O549 2.414 . S
Nd520 O551 2.424 . S
Nd521 C531 2.836 . S
Nd521 O543 2.414 . S
Nd521 O545 2.424 . S
Nd521 O546 2.500 . S
Nd521 O547 2.492 . S
Nd521 O548 2.487 . S
Nd521 O549 2.682 . S
Nd521 O550 2.410 . S
C522 Nd520 2.836 . S
C522 C523 1.498 . S
C522 O540 1.258 . S
C522 O541 1.239 . S
C523 C522 1.498 . S
C523 C524 1.366 . S
C523 C528 1.407 . S
C524 C523 1.366 . S
C524 C525 1.392 . S
C524 H552 0.930 . S
C525 C524 1.392 . S
C525 C526 1.398 . S
C525 H553 0.929 . S
C526 C525 1.398 . S
C526 C527 1.352 . S
C527 C526 1.352 . S
C527 C528 1.384 . S
C527 H554 0.930 . S
C528 C523 1.407 . S
C528 C527 1.384 . S
C528 H555 0.929 . S
C529 O542 1.241 . S
C529 O543 1.273 . S
C530 O544 1.251 . S
C530 O545 1.268 . S
C531 Nd521 2.836 . S
C531 C532 1.498 . S
C531 O546 1.258 . S
C531 O547 1.239 . S
C532 C531 1.498 . S
C532 C533 1.366 . S
C532 C537 1.407 . S
C533 C532 1.366 . S
C533 C534 1.392 . S
C533 H556 0.930 . S
C534 C533 1.392 . S
C534 C535 1.398 . S
C534 H557 0.929 . S
C535 C534 1.398 . S
C535 C536 1.352 . S
C536 C535 1.352 . S
C536 C537 1.384 . S
C536 H558 0.930 . S
C537 C532 1.407 . S
C537 C536 1.384 . S
C537 H559 0.929 . S
C538 O548 1.241 . S
C538 O549 1.273 . S
C539 O550 1.251 . S
C539 O551 1.268 . S
O540 Nd520 2.500 . S
O540 C522 1.258 . S
O541 Nd520 2.492 . S
O541 C522 1.239 . S
O542 Nd520 2.487 . S
O542 C529 1.241 . S
O543 Nd520 2.682 . S
O543 Nd521 2.414 . S
O543 C529 1.273 . S
O544 Nd520 2.410 . S
O544 C530 1.251 . S
O545 Nd521 2.424 . S
O545 C530 1.268 . S
O546 Nd521 2.500 . S
O546 C531 1.258 . S
O547 Nd521 2.492 . S
O547 C531 1.239 . S
O548 Nd521 2.487 . S
O548 C538 1.241 . S
O549 Nd520 2.414 . S
O549 Nd521 2.682 . S
O549 C538 1.273 . S
O550 Nd521 2.410 . S
O550 C539 1.251 . S
O551 Nd520 2.424 . S
O551 C539 1.268 . S
H552 C524 0.930 . S
H553 C525 0.929 . S
H554 C527 0.930 . S
H555 C528 0.929 . S
H556 C533 0.930 . S
H557 C534 0.929 . S
H558 C536 0.930 . S
H559 C537 0.929 . S
Nd560 C562 2.836 . S
Nd560 O580 2.500 . S
Nd560 O581 2.492 . S
Nd560 O582 2.487 . S
Nd560 O583 2.682 . S
Nd560 O584 2.410 . S
Nd560 O589 2.414 . S
Nd560 O591 2.424 . S
Nd561 C571 2.836 . S
Nd561 O583 2.414 . S
Nd561 O585 2.424 . S
Nd561 O586 2.500 . S
Nd561 O587 2.492 . S
Nd561 O588 2.487 . S
Nd561 O589 2.682 . S
Nd561 O590 2.410 . S
C562 Nd560 2.836 . S
C562 C563 1.498 . S
C562 O580 1.258 . S
C562 O581 1.239 . S
C563 C562 1.498 . S
C563 C564 1.366 . S
C563 C568 1.407 . S
C564 C563 1.366 . S
C564 C565 1.392 . S
C564 H592 0.930 . S
C565 C564 1.392 . S
C565 C566 1.398 . S
C565 H593 0.929 . S
C566 C565 1.398 . S
C566 C567 1.352 . S
C567 C566 1.352 . S
C567 C568 1.384 . S
C567 H594 0.930 . S
C568 C563 1.407 . S
C568 C567 1.384 . S
C568 H595 0.929 . S
C569 O582 1.241 . S
C569 O583 1.273 . S
C570 O584 1.251 . S
C570 O585 1.268 . S
C571 Nd561 2.836 . S
C571 C572 1.498 . S
C571 O586 1.258 . S
C571 O587 1.239 . S
C572 C571 1.498 . S
C572 C573 1.366 . S
C572 C577 1.407 . S
C573 C572 1.366 . S
C573 C574 1.392 . S
C573 H596 0.930 . S
C574 C573 1.392 . S
C574 C575 1.398 . S
C574 H597 0.929 . S
C575 C574 1.398 . S
C575 C576 1.352 . S
C576 C575 1.352 . S
C576 C577 1.384 . S
C576 H598 0.930 . S
C577 C572 1.407 . S
C577 C576 1.384 . S
C577 H599 0.929 . S
C578 O588 1.241 . S
C578 O589 1.273 . S
C579 O590 1.251 . S
C579 O591 1.268 . S
O580 Nd560 2.500 . S
O580 C562 1.258 . S
O581 Nd560 2.492 . S
O581 C562 1.239 . S
O582 Nd560 2.487 . S
O582 C569 1.241 . S
O583 Nd560 2.682 . S
O583 Nd561 2.414 . S
O583 C569 1.273 . S
O584 Nd560 2.410 . S
O584 C570 1.251 . S
O585 Nd561 2.424 . S
O585 C570 1.268 . S
O586 Nd561 2.500 . S
O586 C571 1.258 . S
O587 Nd561 2.492 . S
O587 C571 1.239 . S
O588 Nd561 2.487 . S
O588 C578 1.241 . S
O589 Nd560 2.414 . S
O589 Nd561 2.682 . S
O589 C578 1.273 . S
O590 Nd561 2.410 . S
O590 C579 1.251 . S
O591 Nd560 2.424 . S
O591 C579 1.268 . S
H592 C564 0.930 . S
H593 C565 0.929 . S
H594 C567 0.930 . S
H595 C568 0.929 . S
H596 C573 0.930 . S
H597 C574 0.929 . S
H598 C576 0.930 . S
H599 C577 0.929 . S
Nd600 C602 2.836 . S
Nd600 O620 2.500 . S
Nd600 O621 2.492 . S
Nd600 O622 2.487 . S
Nd600 O623 2.682 . S
Nd600 O624 2.410 . S
Nd600 O629 2.414 . S
Nd600 O631 2.424 . S
Nd601 C611 2.836 . S
Nd601 O623 2.414 . S
Nd601 O625 2.424 . S
Nd601 O626 2.500 . S
Nd601 O627 2.492 . S
Nd601 O628 2.487 . S
Nd601 O629 2.682 . S
Nd601 O630 2.410 . S
C602 Nd600 2.836 . S
C602 C603 1.498 . S
C602 O620 1.258 . S
C602 O621 1.239 . S
C603 C602 1.498 . S
C603 C604 1.366 . S
C603 C608 1.407 . S
C604 C603 1.366 . S
C604 C605 1.392 . S
C604 H632 0.930 . S
C605 C604 1.392 . S
C605 C606 1.398 . S
C605 H633 0.929 . S
C606 C605 1.398 . S
C606 C607 1.352 . S
C607 C606 1.352 . S
C607 C608 1.384 . S
C607 H634 0.930 . S
C608 C603 1.407 . S
C608 C607 1.384 . S
C608 H635 0.929 . S
C609 O622 1.241 . S
C609 O623 1.273 . S
C610 O624 1.251 . S
C610 O625 1.268 . S
C611 Nd601 2.836 . S
C611 C612 1.498 . S
C611 O626 1.258 . S
C611 O627 1.239 . S
C612 C611 1.498 . S
C612 C613 1.366 . S
C612 C617 1.407 . S
C613 C612 1.366 . S
C613 C614 1.392 . S
C613 H636 0.930 . S
C614 C613 1.392 . S
C614 C615 1.398 . S
C614 H637 0.929 . S
C615 C614 1.398 . S
C615 C616 1.352 . S
C616 C615 1.352 . S
C616 C617 1.384 . S
C616 H638 0.930 . S
C617 C612 1.407 . S
C617 C616 1.384 . S
C617 H639 0.929 . S
C618 O628 1.241 . S
C618 O629 1.273 . S
C619 O630 1.251 . S
C619 O631 1.268 . S
O620 Nd600 2.500 . S
O620 C602 1.258 . S
O621 Nd600 2.492 . S
O621 C602 1.239 . S
O622 Nd600 2.487 . S
O622 C609 1.241 . S
O623 Nd600 2.682 . S
O623 Nd601 2.414 . S
O623 C609 1.273 . S
O624 Nd600 2.410 . S
O624 C610 1.251 . S
O625 Nd601 2.424 . S
O625 C610 1.268 . S
O626 Nd601 2.500 . S
O626 C611 1.258 . S
O627 Nd601 2.492 . S
O627 C611 1.239 . S
O628 Nd601 2.487 . S
O628 C618 1.241 . S
O629 Nd600 2.414 . S
O629 Nd601 2.682 . S
O629 C618 1.273 . S
O630 Nd601 2.410 . S
O630 C619 1.251 . S
O631 Nd600 2.424 . S
O631 C619 1.268 . S
H632 C604 0.930 . S
H633 C605 0.929 . S
H634 C607 0.930 . S
H635 C608 0.929 . S
H636 C613 0.930 . S
H637 C614 0.929 . S
H638 C616 0.930 . S
H639 C617 0.929 . S
H640 C646 0.930 . S
H641 C649 0.930 . S
H642 C650 0.930 . S
H643 C651 0.930 . S
H644 C654 0.930 . S
H645 C655 0.930 . S
C646 H640 0.930 . S
C646 C647 1.355 . S
C646 C648 1.415 . S
C647 C646 1.355 . S
C647 C649 1.419 . S
C648 C646 1.415 . S
C648 C653 1.425 . S
C648 C655 1.409 . S
C649 H641 0.930 . S
C649 C647 1.419 . S
C649 C650 1.362 . S
C650 H642 0.930 . S
C650 C649 1.362 . S
C650 C653 1.409 . S
C651 H643 0.930 . S
C651 C652 1.355 . S
C651 C653 1.415 . S
C652 C651 1.355 . S
C652 C654 1.419 . S
C653 C648 1.425 . S
C653 C650 1.409 . S
C653 C651 1.415 . S
C654 H644 0.930 . S
C654 C652 1.419 . S
C654 C655 1.362 . S
C655 H645 0.930 . S
C655 C648 1.409 . S
C655 C654 1.362 . S
H656 C662 0.930 . S
H657 C665 0.930 . S
H658 C666 0.930 . S
H659 C667 0.930 . S
H660 C670 0.930 . S
H661 C671 0.930 . S
C662 H656 0.930 . S
C662 C663 1.355 . S
C662 C664 1.415 . S
C663 C662 1.355 . S
C663 C665 1.419 . S
C664 C662 1.415 . S
C664 C669 1.425 . S
C664 C671 1.409 . S
C665 H657 0.930 . S
C665 C663 1.419 . S
C665 C666 1.362 . S
C666 H658 0.930 . S
C666 C665 1.362 . S
C666 C669 1.409 . S
C667 H659 0.930 . S
C667 C668 1.355 . S
C667 C669 1.415 . S
C668 C667 1.355 . S
C668 C670 1.419 . S
C669 C664 1.425 . S
C669 C666 1.409 . S
C669 C667 1.415 . S
C670 H660 0.930 . S
C670 C668 1.419 . S
C670 C671 1.362 . S
C671 H661 0.930 . S
C671 C664 1.409 . S
C671 C670 1.362 . S
H672 C678 0.930 . S
H673 C681 0.930 . S
H674 C682 0.930 . S
H675 C683 0.930 . S
H676 C686 0.930 . S
H677 C687 0.930 . S
C678 H672 0.930 . S
C678 C679 1.355 . S
C678 C680 1.415 . S
C679 C678 1.355 . S
C679 C681 1.419 . S
C680 C678 1.415 . S
C680 C685 1.425 . S
C680 C687 1.409 . S
C681 H673 0.930 . S
C681 C679 1.419 . S
C681 C682 1.362 . S
C682 H674 0.930 . S
C682 C681 1.362 . S
C682 C685 1.409 . S
C683 H675 0.930 . S
C683 C684 1.355 . S
C683 C685 1.415 . S
C684 C683 1.355 . S
C684 C686 1.419 . S
C685 C680 1.425 . S
C685 C682 1.409 . S
C685 C683 1.415 . S
C686 H676 0.930 . S
C686 C684 1.419 . S
C686 C687 1.362 . S
C687 H677 0.930 . S
C687 C680 1.409 . S
C687 C686 1.362 . S
H688 C694 0.930 . S
H689 C697 0.930 . S
H690 C698 0.930 . S
H691 C699 0.930 . S
H692 C702 0.930 . S
H693 C703 0.930 . S
C694 H688 0.930 . S
C694 C695 1.355 . S
C694 C696 1.415 . S
C695 C694 1.355 . S
C695 C697 1.419 . S
C696 C694 1.415 . S
C696 C701 1.425 . S
C696 C703 1.409 . S
C697 H689 0.930 . S
C697 C695 1.419 . S
C697 C698 1.362 . S
C698 H690 0.930 . S
C698 C697 1.362 . S
C698 C701 1.409 . S
C699 H691 0.930 . S
C699 C700 1.355 . S
C699 C701 1.415 . S
C700 C699 1.355 . S
C700 C702 1.419 . S
C701 C696 1.425 . S
C701 C698 1.409 . S
C701 C699 1.415 . S
C702 H692 0.930 . S
C702 C700 1.419 . S
C702 C703 1.362 . S
C703 H693 0.930 . S
C703 C696 1.409 . S
C703 C702 1.362 . S
H704 C710 0.930 . S
H705 C713 0.930 . S
H706 C714 0.930 . S
H707 C715 0.930 . S
H708 C718 0.930 . S
H709 C719 0.930 . S
C710 H704 0.930 . S
C710 C711 1.355 . S
C710 C712 1.415 . S
C711 C710 1.355 . S
C711 C713 1.419 . S
C712 C710 1.415 . S
C712 C717 1.425 . S
C712 C719 1.409 . S
C713 H705 0.930 . S
C713 C711 1.419 . S
C713 C714 1.362 . S
C714 H706 0.930 . S
C714 C713 1.362 . S
C714 C717 1.409 . S
C715 H707 0.930 . S
C715 C716 1.355 . S
C715 C717 1.415 . S
C716 C715 1.355 . S
C716 C718 1.419 . S
C717 C712 1.425 . S
C717 C714 1.409 . S
C717 C715 1.415 . S
C718 H708 0.930 . S
C718 C716 1.419 . S
C718 C719 1.362 . S
C719 H709 0.930 . S
C719 C712 1.409 . S
C719 C718 1.362 . S
H720 C726 0.930 . S
H721 C729 0.930 . S
H722 C730 0.930 . S
H723 C731 0.930 . S
H724 C734 0.930 . S
H725 C735 0.930 . S
C726 H720 0.930 . S
C726 C727 1.355 . S
C726 C728 1.415 . S
C727 C726 1.355 . S
C727 C729 1.419 . S
C728 C726 1.415 . S
C728 C733 1.425 . S
C728 C735 1.409 . S
C729 H721 0.930 . S
C729 C727 1.419 . S
C729 C730 1.362 . S
C730 H722 0.930 . S
C730 C729 1.362 . S
C730 C733 1.409 . S
C731 H723 0.930 . S
C731 C732 1.355 . S
C731 C733 1.415 . S
C732 C731 1.355 . S
C732 C734 1.419 . S
C733 C728 1.425 . S
C733 C730 1.409 . S
C733 C731 1.415 . S
C734 H724 0.930 . S
C734 C732 1.419 . S
C734 C735 1.362 . S
C735 H725 0.930 . S
C735 C728 1.409 . S
C735 C734 1.362 . S
H736 C742 0.930 . S
H737 C745 0.930 . S
H738 C746 0.930 . S
H739 C747 0.930 . S
H740 C750 0.930 . S
H741 C751 0.930 . S
C742 H736 0.930 . S
C742 C743 1.355 . S
C742 C744 1.415 . S
C743 C742 1.355 . S
C743 C745 1.419 . S
C744 C742 1.415 . S
C744 C749 1.425 . S
C744 C751 1.409 . S
C745 H737 0.930 . S
C745 C743 1.419 . S
C745 C746 1.362 . S
C746 H738 0.930 . S
C746 C745 1.362 . S
C746 C749 1.409 . S
C747 H739 0.930 . S
C747 C748 1.355 . S
C747 C749 1.415 . S
C748 C747 1.355 . S
C748 C750 1.419 . S
C749 C744 1.425 . S
C749 C746 1.409 . S
C749 C747 1.415 . S
C750 H740 0.930 . S
C750 C748 1.419 . S
C750 C751 1.362 . S
C751 H741 0.930 . S
C751 C744 1.409 . S
C751 C750 1.362 . S
H752 C758 0.930 . S
H753 C761 0.930 . S
H754 C762 0.930 . S
H755 C763 0.930 . S
H756 C766 0.930 . S
H757 C767 0.930 . S
C758 H752 0.930 . S
C758 C759 1.355 . S
C758 C760 1.415 . S
C759 C758 1.355 . S
C759 C761 1.419 . S
C760 C758 1.415 . S
C760 C765 1.425 . S
C760 C767 1.409 . S
C761 H753 0.930 . S
C761 C759 1.419 . S
C761 C762 1.362 . S
C762 H754 0.930 . S
C762 C761 1.362 . S
C762 C765 1.409 . S
C763 H755 0.930 . S
C763 C764 1.355 . S
C763 C765 1.415 . S
C764 C763 1.355 . S
C764 C766 1.419 . S
C765 C760 1.425 . S
C765 C762 1.409 . S
C765 C763 1.415 . S
C766 H756 0.930 . S
C766 C764 1.419 . S
C766 C767 1.362 . S
C767 H757 0.930 . S
C767 C760 1.409 . S
C767 C766 1.362 . S
H768 C774 0.930 . S
H769 C777 0.930 . S
H770 C778 0.930 . S
H771 C779 0.930 . S
H772 C782 0.930 . S
H773 C783 0.930 . S
C774 H768 0.930 . S
C774 C775 1.355 1_545 S
C774 C776 1.415 . S
C775 C774 1.355 1_565 S
C775 C777 1.419 . S
C776 C774 1.415 . S
C776 C781 1.425 1_545 S
C776 C783 1.409 . S
C777 H769 0.930 . S
C777 C775 1.419 . S
C777 C778 1.362 . S
C778 H770 0.930 . S
C778 C777 1.362 . S
C778 C781 1.409 . S
C779 H771 0.930 . S
C779 C780 1.355 1_565 S
C779 C781 1.415 . S
C780 C779 1.355 1_545 S
C780 C782 1.419 . S
C781 C776 1.425 1_565 S
C781 C778 1.409 . S
C781 C779 1.415 . S
C782 H772 0.930 . S
C782 C780 1.419 . S
C782 C783 1.362 . S
C783 H773 0.930 . S
C783 C776 1.409 . S
C783 C782 1.362 . S
H784 C790 0.930 . S
H785 C793 0.930 . S
H786 C794 0.930 . S
H787 C795 0.930 . S
H788 C798 0.930 . S
H789 C799 0.930 . S
C790 H784 0.930 . S
C790 C791 1.355 . S
C790 C792 1.415 . S
C791 C790 1.355 . S
C791 C793 1.419 . S
C792 C790 1.415 . S
C792 C797 1.425 1_545 S
C792 C799 1.409 1_545 S
C793 H785 0.930 . S
C793 C791 1.419 . S
C793 C794 1.362 . S
C794 H786 0.930 . S
C794 C793 1.362 . S
C794 C797 1.409 1_545 S
C795 H787 0.930 . S
C795 C796 1.355 . S
C795 C797 1.415 . S
C796 C795 1.355 . S
C796 C798 1.419 . S
C797 C792 1.425 1_565 S
C797 C794 1.409 1_565 S
C797 C795 1.415 . S
C798 H788 0.930 . S
C798 C796 1.419 . S
C798 C799 1.362 . S
C799 H789 0.930 . S
C799 C792 1.409 1_565 S
C799 C798 1.362 . S
H800 C806 0.930 . S
H801 C809 0.930 . S
H802 C810 0.930 . S
H803 C811 0.930 . S
H804 C814 0.930 . S
H805 C815 0.930 . S
C806 H800 0.930 . S
C806 C807 1.355 1_565 S
C806 C808 1.415 . S
C807 C806 1.355 1_545 S
C807 C809 1.419 . S
C808 C806 1.415 . S
C808 C813 1.425 1_565 S
C808 C815 1.409 . S
C809 H801 0.930 . S
C809 C807 1.419 . S
C809 C810 1.362 . S
C810 H802 0.930 . S
C810 C809 1.362 . S
C810 C813 1.409 . S
C811 H803 0.930 . S
C811 C812 1.355 1_545 S
C811 C813 1.415 . S
C812 C811 1.355 1_565 S
C812 C814 1.419 . S
C813 C808 1.425 1_545 S
C813 C810 1.409 . S
C813 C811 1.415 . S
C814 H804 0.930 . S
C814 C812 1.419 . S
C814 C815 1.362 . S
C815 H805 0.930 . S
C815 C808 1.409 . S
C815 C814 1.362 . S
H816 C822 0.930 . S
H817 C825 0.930 . S
H818 C826 0.930 . S
H819 C827 0.930 . S
H820 C830 0.930 . S
H821 C831 0.930 . S
C822 H816 0.930 . S
C822 C823 1.355 1_565 S
C822 C824 1.415 . S
C823 C822 1.355 1_545 S
C823 C825 1.419 . S
C824 C822 1.415 . S
C824 C829 1.425 1_565 S
C824 C831 1.409 . S
C825 H817 0.930 . S
C825 C823 1.419 . S
C825 C826 1.362 . S
C826 H818 0.930 . S
C826 C825 1.362 . S
C826 C829 1.409 . S
C827 H819 0.930 . S
C827 C828 1.355 1_545 S
C827 C829 1.415 . S
C828 C827 1.355 1_565 S
C828 C830 1.419 . S
C829 C824 1.425 1_545 S
C829 C826 1.409 . S
C829 C827 1.415 . S
C830 H820 0.930 . S
C830 C828 1.419 . S
C830 C831 1.362 . S
C831 H821 0.930 . S
C831 C824 1.409 . S
C831 C830 1.362 . S
H832 C838 0.930 . S
H833 C841 0.930 . S
H834 C842 0.930 . S
H835 C843 0.930 . S
H836 C846 0.930 . S
H837 C847 0.930 . S
C838 H832 0.930 . S
C838 C839 1.355 . S
C838 C840 1.415 . S
C839 C838 1.355 . S
C839 C841 1.419 . S
C840 C838 1.415 . S
C840 C845 1.425 . S
C840 C847 1.409 . S
C841 H833 0.930 . S
C841 C839 1.419 . S
C841 C842 1.362 . S
C842 H834 0.930 . S
C842 C841 1.362 . S
C842 C845 1.409 . S
C843 H835 0.930 . S
C843 C844 1.355 . S
C843 C845 1.415 . S
C844 C843 1.355 . S
C844 C846 1.419 . S
C845 C840 1.425 . S
C845 C842 1.409 . S
C845 C843 1.415 . S
C846 H836 0.930 . S
C846 C844 1.419 . S
C846 C847 1.362 . S
C847 H837 0.930 . S
C847 C840 1.409 . S
C847 C846 1.362 . S
H848 C854 0.930 . S
H849 C857 0.930 . S
H850 C858 0.930 . S
H851 C859 0.930 . S
H852 C862 0.930 . S
H853 C863 0.930 . S
C854 H848 0.930 . S
C854 C855 1.355 . S
C854 C856 1.415 . S
C855 C854 1.355 . S
C855 C857 1.419 . S
C856 C854 1.415 . S
C856 C861 1.425 . S
C856 C863 1.409 . S
C857 H849 0.930 . S
C857 C855 1.419 . S
C857 C858 1.362 . S
C858 H850 0.930 . S
C858 C857 1.362 . S
C858 C861 1.409 . S
C859 H851 0.930 . S
C859 C860 1.355 . S
C859 C861 1.415 . S
C860 C859 1.355 . S
C860 C862 1.419 . S
C861 C856 1.425 . S
C861 C858 1.409 . S
C861 C859 1.415 . S
C862 H852 0.930 . S
C862 C860 1.419 . S
C862 C863 1.362 . S
C863 H853 0.930 . S
C863 C856 1.409 . S
C863 C862 1.362 . S
H864 C870 0.930 . S
H865 C873 0.930 . S
H866 C874 0.930 . S
H867 C875 0.930 . S
H868 C878 0.930 . S
H869 C879 0.930 . S
C870 H864 0.930 . S
C870 C871 1.355 . S
C870 C872 1.415 . S
C871 C870 1.355 . S
C871 C873 1.419 . S
C872 C870 1.415 . S
C872 C877 1.425 . S
C872 C879 1.409 . S
C873 H865 0.930 . S
C873 C871 1.419 . S
C873 C874 1.362 . S
C874 H866 0.930 . S
C874 C873 1.362 . S
C874 C877 1.409 . S
C875 H867 0.930 . S
C875 C876 1.355 . S
C875 C877 1.415 . S
C876 C875 1.355 . S
C876 C878 1.419 . S
C877 C872 1.425 . S
C877 C874 1.409 . S
C877 C875 1.415 . S
C878 H868 0.930 . S
C878 C876 1.419 . S
C878 C879 1.362 . S
C879 H869 0.930 . S
C879 C872 1.409 . S
C879 C878 1.362 . S
H880 C886 0.930 . S
H881 C889 0.930 . S
H882 C890 0.930 . S
H883 C891 0.930 . S
H884 C894 0.930 . S
H885 C895 0.930 . S
C886 H880 0.930 . S
C886 C887 1.355 . S
C886 C888 1.415 . S
C887 C886 1.355 . S
C887 C889 1.419 . S
C888 C886 1.415 . S
C888 C893 1.425 . S
C888 C895 1.409 . S
C889 H881 0.930 . S
C889 C887 1.419 . S
C889 C890 1.362 . S
C890 H882 0.930 . S
C890 C889 1.362 . S
C890 C893 1.409 . S
C891 H883 0.930 . S
C891 C892 1.355 . S
C891 C893 1.415 . S
C892 C891 1.355 . S
C892 C894 1.419 . S
C893 C888 1.425 . S
C893 C890 1.409 . S
C893 C891 1.415 . S
C894 H884 0.930 . S
C894 C892 1.419 . S
C894 C895 1.362 . S
C895 H885 0.930 . S
C895 C888 1.409 . S
C895 C894 1.362 . S
H896 C902 0.930 . S
H897 C905 0.930 . S
H898 C906 0.930 . S
H899 C907 0.930 . S
H900 C910 0.930 1_565 S
H901 C911 0.930 1_565 S
C902 H896 0.930 . S
C902 C903 1.355 . S
C902 C904 1.415 . S
C903 C902 1.355 . S
C903 C905 1.419 . S
C904 C902 1.415 . S
C904 C909 1.425 1_556 S
C904 C911 1.409 1_556 S
C905 H897 0.930 . S
C905 C903 1.419 . S
C905 C906 1.362 . S
C906 H898 0.930 . S
C906 C905 1.362 . S
C906 C909 1.409 1_556 S
C907 H899 0.930 . S
C907 C908 1.355 . S
C907 C909 1.415 . S
C908 C907 1.355 . S
C908 C910 1.419 . S
C909 C904 1.425 1_554 S
C909 C906 1.409 1_554 S
C909 C907 1.415 . S
C910 H900 0.930 1_545 S
C910 C908 1.419 . S
C910 C911 1.362 . S
C911 H901 0.930 1_545 S
C911 C904 1.409 1_554 S
C911 C910 1.362 . S
H912 C918 0.930 . S
H913 C921 0.930 . S
H914 C922 0.930 . S
H915 C923 0.930 . S
H916 C926 0.930 1_545 S
H917 C927 0.930 1_545 S
C918 H912 0.930 . S
C918 C919 1.355 . S
C918 C920 1.415 . S
C919 C918 1.355 . S
C919 C921 1.419 . S
C920 C918 1.415 . S
C920 C925 1.425 1_556 S
C920 C927 1.409 1_556 S
C921 H913 0.930 . S
C921 C919 1.419 . S
C921 C922 1.362 . S
C922 H914 0.930 . S
C922 C921 1.362 . S
C922 C925 1.409 1_556 S
C923 H915 0.930 . S
C923 C924 1.355 . S
C923 C925 1.415 . S
C924 C923 1.355 . S
C924 C926 1.419 . S
C925 C920 1.425 1_554 S
C925 C922 1.409 1_554 S
C925 C923 1.415 . S
C926 H916 0.930 1_565 S
C926 C924 1.419 . S
C926 C927 1.362 . S
C927 H917 0.930 1_565 S
C927 C920 1.409 1_554 S
C927 C926 1.362 . S
H928 C934 0.930 . S
H929 C937 0.930 1_545 S
H930 C938 0.930 1_545 S
H931 C939 0.930 . S
H932 C942 0.930 . S
H933 C943 0.930 . S
C934 H928 0.930 . S
C934 C935 1.355 . S
C934 C936 1.415 . S
C935 C934 1.355 . S
C935 C937 1.419 . S
C936 C934 1.415 . S
C936 C941 1.425 . S
C936 C943 1.409 . S
C937 H929 0.930 1_565 S
C937 C935 1.419 . S
C937 C938 1.362 . S
C938 H930 0.930 1_565 S
C938 C937 1.362 . S
C938 C941 1.409 . S
C939 H931 0.930 . S
C939 C940 1.355 . S
C939 C941 1.415 . S
C940 C939 1.355 . S
C940 C942 1.419 . S
C941 C936 1.425 . S
C941 C938 1.409 . S
C941 C939 1.415 . S
C942 H932 0.930 . S
C942 C940 1.419 . S
C942 C943 1.362 . S
C943 H933 0.930 . S
C943 C936 1.409 . S
C943 C942 1.362 . S
H944 C950 0.930 . S
H945 C953 0.930 . S
H946 C954 0.930 . S
H947 C955 0.930 . S
H948 C958 0.930 . S
H949 C959 0.930 1_565 S
C950 H944 0.930 . S
C950 C951 1.355 . S
C950 C952 1.415 . S
C951 C950 1.355 . S
C951 C953 1.419 . S
C952 C950 1.415 . S
C952 C957 1.425 . S
C952 C959 1.409 . S
C953 H945 0.930 . S
C953 C951 1.419 . S
C953 C954 1.362 . S
C954 H946 0.930 . S
C954 C953 1.362 . S
C954 C957 1.409 . S
C955 H947 0.930 . S
C955 C956 1.355 . S
C955 C957 1.415 . S
C956 C955 1.355 . S
C956 C958 1.419 . S
C957 C952 1.425 . S
C957 C954 1.409 . S
C957 C955 1.415 . S
C958 H948 0.930 . S
C958 C956 1.419 . S
C958 C959 1.362 . S
C959 H949 0.930 1_545 S
C959 C952 1.409 . S
C959 C958 1.362 . S
H960 C966 0.930 . S
H961 C969 0.930 . S
H962 C970 0.930 . S
H963 C971 0.930 . S
H964 C974 0.930 . S
H965 C975 0.930 . S
C966 H960 0.930 . S
C966 C967 1.355 . S
C966 C968 1.415 . S
C967 C966 1.355 . S
C967 C969 1.419 . S
C968 C966 1.415 . S
C968 C973 1.425 1_554 S
C968 C975 1.409 1_554 S
C969 H961 0.930 . S
C969 C967 1.419 . S
C969 C970 1.362 . S
C970 H962 0.930 . S
C970 C969 1.362 . S
C970 C973 1.409 1_554 S
C971 H963 0.930 . S
C971 C972 1.355 . S
C971 C973 1.415 . S
C972 C971 1.355 . S
C972 C974 1.419 . S
C973 C968 1.425 1_556 S
C973 C970 1.409 1_556 S
C973 C971 1.415 . S
C974 H964 0.930 . S
C974 C972 1.419 . S
C974 C975 1.362 . S
C975 H965 0.930 . S
C975 C968 1.409 1_556 S
C975 C974 1.362 . S
H976 C982 0.930 . S
H977 C985 0.930 . S
H978 C986 0.930 . S
H979 C987 0.930 . S
H980 C990 0.930 . S
H981 C991 0.930 . S
C982 H976 0.930 . S
C982 C983 1.355 . S
C982 C984 1.415 . S
C983 C982 1.355 . S
C983 C985 1.419 . S
C984 C982 1.415 . S
C984 C989 1.425 1_556 S
C984 C991 1.409 1_556 S
C985 H977 0.930 . S
C985 C983 1.419 . S
C985 C986 1.362 . S
C986 H978 0.930 . S
C986 C985 1.362 . S
C986 C989 1.409 1_556 S
C987 H979 0.930 . S
C987 C988 1.355 . S
C987 C989 1.415 . S
C988 C987 1.355 . S
C988 C990 1.419 . S
C989 C984 1.425 1_554 S
C989 C986 1.409 1_554 S
C989 C987 1.415 . S
C990 H980 0.930 . S
C990 C988 1.419 . S
C990 C991 1.362 . S
C991 H981 0.930 . S
C991 C984 1.409 1_554 S
C991 C990 1.362 . S
H992 C998 0.930 . S
H993 C1001 0.930 . S
H994 C1002 0.930 . S
H995 C1003 0.930 . S
H996 C1006 0.930 . S
H997 C1007 0.930 . S
C998 H992 0.930 . S
C998 C999 1.355 . S
C998 C1000 1.415 . S
C999 C998 1.355 . S
C999 C1001 1.419 . S
C1000 C998 1.415 . S
C1000 C1005 1.425 . S
C1000 C1007 1.409 . S
C1001 H993 0.930 . S
C1001 C999 1.419 . S
C1001 C1002 1.362 . S
C1002 H994 0.930 . S
C1002 C1001 1.362 . S
C1002 C1005 1.409 . S
C1003 H995 0.930 . S
C1003 C1004 1.355 . S
C1003 C1005 1.415 . S
C1004 C1003 1.355 . S
C1004 C1006 1.419 . S
C1005 C1000 1.425 . S
C1005 C1002 1.409 . S
C1005 C1003 1.415 . S
C1006 H996 0.930 . S
C1006 C1004 1.419 . S
C1006 C1007 1.362 . S
C1007 H997 0.930 . S
C1007 C1000 1.409 . S
C1007 C1006 1.362 . S
H1008 C1014 0.930 . S
H1009 C1017 0.930 . S
H1010 C1018 0.930 . S
H1011 C1019 0.930 . S
H1012 C1022 0.930 . S
H1013 C1023 0.930 . S
C1014 H1008 0.930 . S
C1014 C1015 1.355 . S
C1014 C1016 1.415 . S
C1015 C1014 1.355 . S
C1015 C1017 1.419 . S
C1016 C1014 1.415 . S
C1016 C1021 1.425 . S
C1016 C1023 1.409 . S
C1017 H1009 0.930 . S
C1017 C1015 1.419 . S
C1017 C1018 1.362 . S
C1018 H1010 0.930 . S
C1018 C1017 1.362 . S
C1018 C1021 1.409 . S
C1019 H1011 0.930 . S
C1019 C1020 1.355 . S
C1019 C1021 1.415 . S
C1020 C1019 1.355 . S
C1020 C1022 1.419 . S
C1021 C1016 1.425 . S
C1021 C1018 1.409 . S
C1021 C1019 1.415 . S
C1022 H1012 0.930 . S
C1022 C1020 1.419 . S
C1022 C1023 1.362 . S
C1023 H1013 0.930 . S
C1023 C1016 1.409 . S
C1023 C1022 1.362 . S
H1024 C1030 0.930 . S
H1025 C1033 0.930 . S
H1026 C1034 0.930 . S
H1027 C1035 0.930 . S
H1028 C1038 0.930 . S
H1029 C1039 0.930 . S
C1030 H1024 0.930 . S
C1030 C1031 1.355 . S
C1030 C1032 1.415 1_655 S
C1031 C1030 1.355 . S
C1031 C1033 1.419 1_545 S
C1032 C1030 1.415 1_455 S
C1032 C1037 1.425 1_445 S
C1032 C1039 1.409 . S
C1033 H1025 0.930 . S
C1033 C1031 1.419 1_565 S
C1033 C1034 1.362 . S
C1034 H1026 0.930 . S
C1034 C1033 1.362 . S
C1034 C1037 1.409 . S
C1035 H1027 0.930 . S
C1035 C1036 1.355 . S
C1035 C1037 1.415 1_455 S
C1036 C1035 1.355 . S
C1036 C1038 1.419 1_565 S
C1037 C1032 1.425 1_665 S
C1037 C1034 1.409 . S
C1037 C1035 1.415 1_655 S
C1038 H1028 0.930 . S
C1038 C1036 1.419 1_545 S
C1038 C1039 1.362 . S
C1039 H1029 0.930 . S
C1039 C1032 1.409 . S
C1039 C1038 1.362 . S
H1040 C1046 0.930 . S
H1041 C1049 0.930 . S
H1042 C1050 0.930 . S
H1043 C1051 0.930 . S
H1044 C1054 0.930 . S
H1045 C1055 0.930 . S
C1046 H1040 0.930 . S
C1046 C1047 1.355 . S
C1046 C1048 1.357 1_655 S
C1047 C1046 1.355 . S
C1047 C1049 1.419 1_565 S
C1048 C1046 1.357 1_455 S
C1048 C1053 1.416 1_465 S
C1048 C1055 1.476 . S
C1049 H1041 0.930 . S
C1049 C1047 1.419 1_545 S
C1049 C1050 1.362 . S
C1050 H1042 0.930 . S
C1050 C1049 1.362 . S
C1050 C1053 1.476 . S
C1051 H1043 0.930 . S
C1051 C1052 1.355 . S
C1051 C1053 1.357 1_455 S
C1052 C1051 1.355 . S
C1052 C1054 1.419 1_545 S
C1053 C1048 1.416 1_645 S
C1053 C1050 1.476 . S
C1053 C1051 1.357 1_655 S
C1054 H1044 0.930 . S
C1054 C1052 1.419 1_565 S
C1054 C1055 1.362 . S
C1055 H1045 0.930 . S
C1055 C1048 1.476 . S
C1055 C1054 1.362 . S
H1056 C1062 0.930 . S
H1057 C1065 0.930 . S
H1058 C1066 0.930 . S
H1059 C1067 0.930 . S
H1060 C1070 0.930 . S
H1061 C1071 0.930 . S
C1062 H1056 0.930 . S
C1062 C1063 1.355 . S
C1062 C1064 1.370 1_455 S
C1063 C1062 1.355 . S
C1063 C1065 1.419 1_565 S
C1064 C1062 1.370 1_655 S
C1064 C1069 1.419 1_665 S
C1064 C1071 1.459 . S
C1065 H1057 0.930 . S
C1065 C1063 1.419 1_545 S
C1065 C1066 1.362 . S
C1066 H1058 0.930 . S
C1066 C1065 1.362 . S
C1066 C1069 1.459 . S
C1067 H1059 0.930 . S
C1067 C1068 1.355 . S
C1067 C1069 1.370 1_655 S
C1068 C1067 1.355 . S
C1068 C1070 1.419 1_545 S
C1069 C1064 1.419 1_445 S
C1069 C1066 1.459 . S
C1069 C1067 1.370 1_455 S
C1070 H1060 0.930 . S
C1070 C1068 1.419 1_565 S
C1070 C1071 1.362 . S
C1071 H1061 0.930 . S
C1071 C1064 1.459 . S
C1071 C1070 1.362 . S
H1072 C1078 0.930 . S
H1073 C1081 0.930 . S
H1074 C1082 0.927 1_545 S
H1075 C1083 0.930 . S
H1076 C1086 0.930 . S
H1077 C1087 0.927 1_565 S
C1078 H1072 0.930 . S
C1078 C1079 1.355 . S
C1078 C1080 1.415 . S
C1079 C1078 1.355 . S
C1079 C1081 1.419 . S
C1080 C1078 1.415 . S
C1080 C1085 1.425 1_665 S
C1080 C1087 1.407 1_665 S
C1081 H1073 0.930 . S
C1081 C1079 1.419 . S
C1081 C1082 1.368 . S
C1082 H1074 0.927 1_565 S
C1082 C1081 1.368 . S
C1082 C1085 1.407 1_665 S
C1083 H1075 0.930 . S
C1083 C1084 1.355 . S
C1083 C1085 1.415 . S
C1084 C1083 1.355 . S
C1084 C1086 1.419 . S
C1085 C1080 1.425 1_445 S
C1085 C1082 1.407 1_445 S
C1085 C1083 1.415 . S
C1086 H1076 0.930 . S
C1086 C1084 1.419 . S
C1086 C1087 1.368 . S
C1087 H1077 0.927 1_545 S
C1087 C1080 1.407 1_445 S
C1087 C1086 1.368 . S
H1088 C1094 0.930 . S
H1089 C1097 0.930 . S
H1090 C1098 0.930 . S
H1091 C1099 0.930 . S
H1092 C1102 0.930 . S
H1093 C1103 0.930 . S
C1094 H1088 0.930 . S
C1094 C1095 1.355 . S
C1094 C1096 1.415 . S
C1095 C1094 1.355 . S
C1095 C1097 1.419 . S
C1096 C1094 1.415 . S
C1096 C1101 1.425 . S
C1096 C1103 1.409 . S
C1097 H1089 0.930 . S
C1097 C1095 1.419 . S
C1097 C1098 1.362 . S
C1098 H1090 0.930 . S
C1098 C1097 1.362 . S
C1098 C1101 1.409 . S
C1099 H1091 0.930 . S
C1099 C1100 1.355 . S
C1099 C1101 1.415 . S
C1100 C1099 1.355 . S
C1100 C1102 1.419 . S
C1101 C1096 1.425 . S
C1101 C1098 1.409 . S
C1101 C1099 1.415 . S
C1102 H1092 0.930 . S
C1102 C1100 1.419 . S
C1102 C1103 1.362 . S
C1103 H1093 0.930 . S
C1103 C1096 1.409 . S
C1103 C1102 1.362 . S
H1104 C1110 0.930 . S
H1105 C1113 0.930 . S
H1106 C1114 0.930 . S
H1107 C1115 0.930 . S
H1108 C1118 0.930 . S
H1109 C1119 0.930 . S
C1110 H1104 0.930 . S
C1110 C1111 1.355 . S
C1110 C1112 1.415 . S
C1111 C1110 1.355 . S
C1111 C1113 1.419 . S
C1112 C1110 1.415 . S
C1112 C1117 1.425 . S
C1112 C1119 1.409 . S
C1113 H1105 0.930 . S
C1113 C1111 1.419 . S
C1113 C1114 1.362 . S
C1114 H1106 0.930 . S
C1114 C1113 1.362 . S
C1114 C1117 1.409 . S
C1115 H1107 0.930 . S
C1115 C1116 1.355 . S
C1115 C1117 1.415 . S
C1116 C1115 1.355 . S
C1116 C1118 1.419 . S
C1117 C1112 1.425 . S
C1117 C1114 1.409 . S
C1117 C1115 1.415 . S
C1118 H1108 0.930 . S
C1118 C1116 1.419 . S
C1118 C1119 1.362 . S
C1119 H1109 0.930 . S
C1119 C1112 1.409 . S
C1119 C1118 1.362 . S
H1120 C1126 0.930 . S
H1121 C1129 0.930 . S
H1122 C1130 0.930 . S
H1123 C1131 0.930 . S
H1124 C1134 0.930 . S
H1125 C1135 0.930 . S
C1126 H1120 0.930 . S
C1126 C1127 1.355 . S
C1126 C1128 1.415 . S
C1127 C1126 1.355 . S
C1127 C1129 1.419 . S
C1128 C1126 1.415 . S
C1128 C1133 1.425 . S
C1128 C1135 1.409 . S
C1129 H1121 0.930 . S
C1129 C1127 1.419 . S
C1129 C1130 1.362 . S
C1130 H1122 0.930 . S
C1130 C1129 1.362 . S
C1130 C1133 1.409 . S
C1131 H1123 0.930 . S
C1131 C1132 1.355 . S
C1131 C1133 1.415 . S
C1132 C1131 1.355 . S
C1132 C1134 1.419 . S
C1133 C1128 1.425 . S
C1133 C1130 1.409 . S
C1133 C1131 1.415 . S
C1134 H1124 0.930 . S
C1134 C1132 1.419 . S
C1134 C1135 1.362 . S
C1135 H1125 0.930 . S
C1135 C1128 1.409 . S
C1135 C1134 1.362 . S
H1136 C1142 0.930 . S
H1137 C1145 0.930 . S
H1138 C1146 0.930 . S
H1139 C1147 0.930 . S
H1140 C1150 0.930 . S
H1141 C1151 0.930 . S
C1142 H1136 0.930 . S
C1142 C1143 1.355 . S
C1142 C1144 1.415 . S
C1143 C1142 1.355 . S
C1143 C1145 1.419 . S
C1144 C1142 1.415 . S
C1144 C1149 1.425 . S
C1144 C1151 1.409 . S
C1145 H1137 0.930 . S
C1145 C1143 1.419 . S
C1145 C1146 1.362 . S
C1146 H1138 0.930 . S
C1146 C1145 1.362 . S
C1146 C1149 1.409 . S
C1147 H1139 0.930 . S
C1147 C1148 1.355 . S
C1147 C1149 1.415 . S
C1148 C1147 1.355 . S
C1148 C1150 1.419 . S
C1149 C1144 1.425 . S
C1149 C1146 1.409 . S
C1149 C1147 1.415 . S
C1150 H1140 0.930 . S
C1150 C1148 1.419 . S
C1150 C1151 1.362 . S
C1151 H1141 0.930 . S
C1151 C1144 1.409 . S
C1151 C1150 1.362 . S
H1152 C1158 0.930 . S
H1153 C1161 0.930 . S
H1154 C1162 0.930 . S
H1155 C1163 0.930 . S
H1156 C1166 0.930 . S
H1157 C1167 0.930 . S
C1158 H1152 0.930 . S
C1158 C1159 1.355 . S
C1158 C1160 1.415 . S
C1159 C1158 1.355 . S
C1159 C1161 1.419 . S
C1160 C1158 1.415 . S
C1160 C1165 1.425 . S
C1160 C1167 1.409 . S
C1161 H1153 0.930 . S
C1161 C1159 1.419 . S
C1161 C1162 1.362 . S
C1162 H1154 0.930 . S
C1162 C1161 1.362 . S
C1162 C1165 1.409 . S
C1163 H1155 0.930 . S
C1163 C1164 1.355 . S
C1163 C1165 1.415 . S
C1164 C1163 1.355 . S
C1164 C1166 1.419 . S
C1165 C1160 1.425 . S
C1165 C1162 1.409 . S
C1165 C1163 1.415 . S
C1166 H1156 0.930 . S
C1166 C1164 1.419 . S
C1166 C1167 1.362 . S
C1167 H1157 0.930 . S
C1167 C1160 1.409 . S
C1167 C1166 1.362 . S
H1168 C1174 0.930 . S
H1169 C1177 0.930 . S
H1170 C1178 0.930 . S
H1171 C1179 0.930 . S
H1172 C1182 0.930 . S
H1173 C1183 0.930 . S
C1174 H1168 0.930 . S
C1174 C1175 1.355 . S
C1174 C1176 1.415 . S
C1175 C1174 1.355 . S
C1175 C1177 1.419 . S
C1176 C1174 1.415 . S
C1176 C1181 1.425 . S
C1176 C1183 1.409 . S
C1177 H1169 0.930 . S
C1177 C1175 1.419 . S
C1177 C1178 1.362 . S
C1178 H1170 0.930 . S
C1178 C1177 1.362 . S
C1178 C1181 1.409 . S
C1179 H1171 0.930 . S
C1179 C1180 1.355 . S
C1179 C1181 1.415 . S
C1180 C1179 1.355 . S
C1180 C1182 1.419 . S
C1181 C1176 1.425 . S
C1181 C1178 1.409 . S
C1181 C1179 1.415 . S
C1182 H1172 0.930 . S
C1182 C1180 1.419 . S
C1182 C1183 1.362 . S
C1183 H1173 0.930 . S
C1183 C1176 1.409 . S
C1183 C1182 1.362 . S
H1184 C1190 0.930 . S
H1185 C1193 0.930 . S
H1186 C1194 0.930 . S
H1187 C1195 0.930 . S
H1188 C1198 0.930 . S
H1189 C1199 0.930 . S
C1190 H1184 0.930 . S
C1190 C1191 1.355 . S
C1190 C1192 1.415 . S
C1191 C1190 1.355 . S
C1191 C1193 1.419 . S
C1192 C1190 1.415 . S
C1192 C1197 1.425 . S
C1192 C1199 1.409 . S
C1193 H1185 0.930 . S
C1193 C1191 1.419 . S
C1193 C1194 1.362 . S
C1194 H1186 0.930 . S
C1194 C1193 1.362 . S
C1194 C1197 1.409 . S
C1195 H1187 0.930 . S
C1195 C1196 1.355 . S
C1195 C1197 1.415 . S
C1196 C1195 1.355 . S
C1196 C1198 1.419 . S
C1197 C1192 1.425 . S
C1197 C1194 1.409 . S
C1197 C1195 1.415 . S
C1198 H1188 0.930 . S
C1198 C1196 1.419 . S
C1198 C1199 1.362 . S
C1199 H1189 0.930 . S
C1199 C1192 1.409 . S
C1199 C1198 1.362 . S
H1200 C1206 0.930 . S
H1201 C1209 0.930 . S
H1202 C1210 0.930 . S
H1203 C1211 0.930 . S
H1204 C1214 0.930 . S
H1205 C1215 0.930 . S
C1206 H1200 0.930 . S
C1206 C1207 1.355 . S
C1206 C1208 1.415 . S
C1207 C1206 1.355 . S
C1207 C1209 1.419 . S
C1208 C1206 1.415 . S
C1208 C1213 1.425 . S
C1208 C1215 1.409 . S
C1209 H1201 0.930 . S
C1209 C1207 1.419 . S
C1209 C1210 1.362 . S
C1210 H1202 0.930 . S
C1210 C1209 1.362 . S
C1210 C1213 1.409 . S
C1211 H1203 0.930 . S
C1211 C1212 1.355 . S
C1211 C1213 1.415 . S
C1212 C1211 1.355 . S
C1212 C1214 1.419 . S
C1213 C1208 1.425 . S
C1213 C1210 1.409 . S
C1213 C1211 1.415 . S
C1214 H1204 0.930 . S
C1214 C1212 1.419 . S
C1214 C1215 1.362 . S
C1215 H1205 0.930 . S
C1215 C1208 1.409 . S
C1215 C1214 1.362 . S
H1216 C1222 0.930 . S
H1217 C1225 0.930 . S
H1218 C1226 0.930 . S
H1219 C1227 0.930 . S
H1220 C1230 0.930 . S
H1221 C1231 0.930 . S
C1222 H1216 0.930 . S
C1222 C1223 1.355 . S
C1222 C1224 1.415 . S
C1223 C1222 1.355 . S
C1223 C1225 1.419 . S
C1224 C1222 1.415 . S
C1224 C1229 1.425 . S
C1224 C1231 1.409 . S
C1225 H1217 0.930 . S
C1225 C1223 1.419 . S
C1225 C1226 1.362 . S
C1226 H1218 0.930 . S
C1226 C1225 1.362 . S
C1226 C1229 1.409 . S
C1227 H1219 0.930 . S
C1227 C1228 1.355 . S
C1227 C1229 1.415 . S
C1228 C1227 1.355 . S
C1228 C1230 1.419 . S
C1229 C1224 1.425 . S
C1229 C1226 1.409 . S
C1229 C1227 1.415 . S
C1230 H1220 0.930 . S
C1230 C1228 1.419 . S
C1230 C1231 1.362 . S
C1231 H1221 0.930 . S
C1231 C1224 1.409 . S
C1231 C1230 1.362 . S
H1232 C1238 0.930 . S
H1233 C1241 0.930 . S
H1234 C1242 0.930 . S
H1235 C1243 0.930 . S
H1236 C1246 0.930 . S
H1237 C1247 0.930 . S
C1238 H1232 0.930 . S
C1238 C1239 1.355 . S
C1238 C1240 1.415 . S
C1239 C1238 1.355 . S
C1239 C1241 1.419 . S
C1240 C1238 1.415 . S
C1240 C1245 1.425 . S
C1240 C1247 1.409 . S
C1241 H1233 0.930 . S
C1241 C1239 1.419 . S
C1241 C1242 1.362 . S
C1242 H1234 0.930 . S
C1242 C1241 1.362 . S
C1242 C1245 1.409 . S
C1243 H1235 0.930 . S
C1243 C1244 1.355 . S
C1243 C1245 1.415 . S
C1244 C1243 1.355 . S
C1244 C1246 1.419 . S
C1245 C1240 1.425 . S
C1245 C1242 1.409 . S
C1245 C1243 1.415 . S
C1246 H1236 0.930 . S
C1246 C1244 1.419 . S
C1246 C1247 1.362 . S
C1247 H1237 0.930 . S
C1247 C1240 1.409 . S
C1247 C1246 1.362 . S
H1248 C1254 0.930 . S
H1249 C1257 0.930 . S
H1250 C1258 0.930 . S
H1251 C1259 0.930 . S
H1252 C1262 0.930 . S
H1253 C1263 0.930 . S
C1254 H1248 0.930 . S
C1254 C1255 1.355 . S
C1254 C1256 1.415 . S
C1255 C1254 1.355 . S
C1255 C1257 1.419 . S
C1256 C1254 1.415 . S
C1256 C1261 1.425 . S
C1256 C1263 1.409 . S
C1257 H1249 0.930 . S
C1257 C1255 1.419 . S
C1257 C1258 1.362 . S
C1258 H1250 0.930 . S
C1258 C1257 1.362 . S
C1258 C1261 1.409 . S
C1259 H1251 0.930 . S
C1259 C1260 1.355 . S
C1259 C1261 1.415 . S
C1260 C1259 1.355 . S
C1260 C1262 1.419 . S
C1261 C1256 1.425 . S
C1261 C1258 1.409 . S
C1261 C1259 1.415 . S
C1262 H1252 0.930 . S
C1262 C1260 1.419 . S
C1262 C1263 1.362 . S
C1263 H1253 0.930 . S
C1263 C1256 1.409 . S
C1263 C1262 1.362 . S
H1264 C1270 0.930 . S
H1265 C1273 0.930 . S
H1266 C1274 0.930 . S
H1267 C1275 0.930 . S
H1268 C1278 0.930 . S
H1269 C1279 0.930 . S
C1270 H1264 0.930 . S
C1270 C1271 1.355 . S
C1270 C1272 1.415 . S
C1271 C1270 1.355 . S
C1271 C1273 1.419 . S
C1272 C1270 1.415 . S
C1272 C1277 1.425 . S
C1272 C1279 1.409 . S
C1273 H1265 0.930 . S
C1273 C1271 1.419 . S
C1273 C1274 1.362 . S
C1274 H1266 0.930 . S
C1274 C1273 1.362 . S
C1274 C1277 1.409 . S
C1275 H1267 0.930 . S
C1275 C1276 1.355 . S
C1275 C1277 1.415 . S
C1276 C1275 1.355 . S
C1276 C1278 1.419 . S
C1277 C1272 1.425 . S
C1277 C1274 1.409 . S
C1277 C1275 1.415 . S
C1278 H1268 0.930 . S
C1278 C1276 1.419 . S
C1278 C1279 1.362 . S
C1279 H1269 0.930 . S
C1279 C1272 1.409 . S
C1279 C1278 1.362 . S
H1280 C1286 0.929 . S
H1281 C1289 0.930 . S
H1282 C1290 0.930 . S
H1283 C1291 0.930 . S
H1284 C1294 0.930 . S
H1285 C1295 0.930 . S
C1286 H1280 0.929 . S
C1286 C1287 1.354 . S
C1286 C1288 1.415 1_565 S
C1287 C1286 1.354 . S
C1287 C1289 1.419 . S
C1288 C1286 1.415 1_545 S
C1288 C1293 1.425 . S
C1288 C1295 1.409 . S
C1289 H1281 0.930 . S
C1289 C1287 1.419 . S
C1289 C1290 1.362 1_565 S
C1290 H1282 0.930 . S
C1290 C1289 1.362 1_545 S
C1290 C1293 1.409 . S
C1291 H1283 0.930 . S
C1291 C1292 1.355 . S
C1291 C1293 1.415 . S
C1292 C1291 1.355 . S
C1292 C1294 1.419 . S
C1293 C1288 1.425 . S
C1293 C1290 1.409 . S
C1293 C1291 1.415 . S
C1294 H1284 0.930 . S
C1294 C1292 1.419 . S
C1294 C1295 1.362 . S
C1295 H1285 0.930 . S
C1295 C1288 1.409 . S
C1295 C1294 1.362 . S
H1296 C1302 0.930 . S
H1297 C1305 0.930 . S
H1298 C1306 0.930 . S
H1299 C1307 0.930 1_545 S
H1300 C1310 0.930 . S
H1301 C1311 0.930 . S
C1302 H1296 0.930 . S
C1302 C1303 1.355 . S
C1302 C1304 1.415 . S
C1303 C1302 1.355 . S
C1303 C1305 1.419 . S
C1304 C1302 1.415 . S
C1304 C1309 1.425 . S
C1304 C1311 1.409 . S
C1305 H1297 0.930 . S
C1305 C1303 1.419 . S
C1305 C1306 1.362 . S
C1306 H1298 0.930 . S
C1306 C1305 1.362 . S
C1306 C1309 1.409 . S
C1307 H1299 0.930 1_565 S
C1307 C1308 1.355 1_565 S
C1307 C1309 1.415 . S
C1308 C1307 1.355 1_545 S
C1308 C1310 1.419 . S
C1309 C1304 1.425 . S
C1309 C1306 1.409 . S
C1309 C1307 1.415 . S
C1310 H1300 0.930 . S
C1310 C1308 1.419 . S
C1310 C1311 1.362 1_545 S
C1311 H1301 0.930 . S
C1311 C1304 1.409 . S
C1311 C1310 1.362 1_565 S
H1312 C1318 0.930 . S
H1313 C1321 0.930 . S
H1314 C1322 0.930 . S
H1315 C1323 0.930 . S
H1316 C1326 0.930 . S
H1317 C1327 0.930 . S
C1318 H1312 0.930 . S
C1318 C1319 1.355 . S
C1318 C1320 1.415 1_545 S
C1319 C1318 1.355 . S
C1319 C1321 1.419 . S
C1320 C1318 1.415 1_565 S
C1320 C1325 1.425 . S
C1320 C1327 1.409 . S
C1321 H1313 0.930 . S
C1321 C1319 1.419 . S
C1321 C1322 1.362 1_545 S
C1322 H1314 0.930 . S
C1322 C1321 1.362 1_565 S
C1322 C1325 1.409 . S
C1323 H1315 0.930 . S
C1323 C1324 1.355 . S
C1323 C1325 1.415 . S
C1324 C1323 1.355 . S
C1324 C1326 1.419 . S
C1325 C1320 1.425 . S
C1325 C1322 1.409 . S
C1325 C1323 1.415 . S
C1326 H1316 0.930 . S
C1326 C1324 1.419 . S
C1326 C1327 1.362 . S
C1327 H1317 0.930 . S
C1327 C1320 1.409 . S
C1327 C1326 1.362 . S
H1328 C1334 0.930 . S
H1329 C1337 0.930 . S
H1330 C1338 0.930 . S
H1331 C1339 0.930 . S
H1332 C1342 0.930 . S
H1333 C1343 0.930 . S
C1334 H1328 0.930 . S
C1334 C1335 1.355 . S
C1334 C1336 1.415 1_565 S
C1335 C1334 1.355 . S
C1335 C1337 1.419 . S
C1336 C1334 1.415 1_545 S
C1336 C1341 1.425 . S
C1336 C1343 1.409 . S
C1337 H1329 0.930 . S
C1337 C1335 1.419 . S
C1337 C1338 1.362 1_565 S
C1338 H1330 0.930 . S
C1338 C1337 1.362 1_545 S
C1338 C1341 1.409 . S
C1339 H1331 0.930 . S
C1339 C1340 1.355 . S
C1339 C1341 1.415 . S
C1340 C1339 1.355 . S
C1340 C1342 1.419 . S
C1341 C1336 1.425 . S
C1341 C1338 1.409 . S
C1341 C1339 1.415 . S
C1342 H1332 0.930 . S
C1342 C1340 1.419 . S
C1342 C1343 1.362 . S
C1343 H1333 0.930 . S
C1343 C1336 1.409 . S
C1343 C1342 1.362 . S
H1344 C1350 0.930 . S
H1345 C1353 0.930 . S
H1346 C1354 0.930 . S
H1347 C1355 0.929 1_545 S
H1348 C1358 0.930 . S
H1349 C1359 0.930 . S
C1350 H1344 0.930 . S
C1350 C1351 1.355 . S
C1350 C1352 1.415 . S
C1351 C1350 1.355 . S
C1351 C1353 1.419 . S
C1352 C1350 1.415 . S
C1352 C1357 1.425 . S
C1352 C1359 1.409 . S
C1353 H1345 0.930 . S
C1353 C1351 1.419 . S
C1353 C1354 1.362 . S
C1354 H1346 0.930 . S
C1354 C1353 1.362 . S
C1354 C1357 1.409 . S
C1355 H1347 0.929 1_565 S
C1355 C1356 1.355 1_565 S
C1355 C1357 1.415 . S
C1356 C1355 1.355 1_545 S
C1356 C1358 1.419 . S
C1357 C1352 1.425 . S
C1357 C1354 1.409 . S
C1357 C1355 1.415 . S
C1358 H1348 0.930 . S
C1358 C1356 1.419 . S
C1358 C1359 1.362 1_545 S
C1359 H1349 0.930 . S
C1359 C1352 1.409 . S
C1359 C1358 1.362 1_565 S
H1360 C1366 0.930 . S
H1361 C1369 0.930 . S
H1362 C1370 0.930 . S
H1363 C1371 0.930 . S
H1364 C1374 0.930 . S
H1365 C1375 0.930 . S
C1366 H1360 0.930 . S
C1366 C1367 1.355 . S
C1366 C1368 1.415 . S
C1367 C1366 1.355 . S
C1367 C1369 1.419 . S
C1368 C1366 1.415 . S
C1368 C1373 1.425 . S
C1368 C1375 1.409 . S
C1369 H1361 0.930 . S
C1369 C1367 1.419 . S
C1369 C1370 1.362 . S
C1370 H1362 0.930 . S
C1370 C1369 1.362 . S
C1370 C1373 1.409 . S
C1371 H1363 0.930 . S
C1371 C1372 1.355 . S
C1371 C1373 1.415 1_565 S
C1372 C1371 1.355 . S
C1372 C1374 1.419 . S
C1373 C1368 1.425 . S
C1373 C1370 1.409 . S
C1373 C1371 1.415 1_545 S
C1374 H1364 0.930 . S
C1374 C1372 1.419 . S
C1374 C1375 1.362 1_565 S
C1375 H1365 0.930 . S
C1375 C1368 1.409 . S
C1375 C1374 1.362 1_545 S
H1376 C1382 0.930 1_565 S
H1377 C1385 0.930 . S
H1378 C1386 0.930 . S
H1379 C1387 0.930 . S
H1380 C1390 0.930 . S
H1381 C1391 0.930 . S
C1382 H1376 0.930 1_545 S
C1382 C1383 1.355 1_545 S
C1382 C1384 1.415 . S
C1383 C1382 1.355 1_565 S
C1383 C1385 1.419 . S
C1384 C1382 1.415 . S
C1384 C1389 1.425 . S
C1384 C1391 1.409 . S
C1385 H1377 0.930 . S
C1385 C1383 1.419 . S
C1385 C1386 1.362 1_565 S
C1386 H1378 0.930 . S
C1386 C1385 1.362 1_545 S
C1386 C1389 1.409 . S
C1387 H1379 0.930 . S
C1387 C1388 1.355 . S
C1387 C1389 1.415 . S
C1388 C1387 1.355 . S
C1388 C1390 1.419 . S
C1389 C1384 1.425 . S
C1389 C1386 1.409 . S
C1389 C1387 1.415 . S
C1390 H1380 0.930 . S
C1390 C1388 1.419 . S
C1390 C1391 1.362 . S
C1391 H1381 0.930 . S
C1391 C1384 1.409 . S
C1391 C1390 1.362 . S
H1392 C1398 0.930 . S
H1393 C1401 0.930 . S
H1394 C1402 0.930 . S
H1395 C1403 0.930 1_545 S
H1396 C1406 0.930 . S
H1397 C1407 0.930 . S
C1398 H1392 0.930 . S
C1398 C1399 1.355 . S
C1398 C1400 1.415 . S
C1399 C1398 1.355 . S
C1399 C1401 1.419 . S
C1400 C1398 1.415 . S
C1400 C1405 1.425 . S
C1400 C1407 1.409 . S
C1401 H1393 0.930 . S
C1401 C1399 1.419 . S
C1401 C1402 1.362 . S
C1402 H1394 0.930 . S
C1402 C1401 1.362 . S
C1402 C1405 1.409 . S
C1403 H1395 0.930 1_565 S
C1403 C1404 1.355 1_565 S
C1403 C1405 1.415 . S
C1404 C1403 1.355 1_545 S
C1404 C1406 1.419 . S
C1405 C1400 1.425 . S
C1405 C1402 1.409 . S
C1405 C1403 1.415 . S
C1406 H1396 0.930 . S
C1406 C1404 1.419 . S
C1406 C1407 1.362 1_545 S
C1407 H1397 0.930 . S
C1407 C1400 1.409 . S
C1407 C1406 1.362 1_565 S
C647 C15 2.070 . S
C652 C375 2.071 . S
C663 C55 2.075 . S
C668 C335 2.072 . S
C679 C455 2.137 . S
C684 C95 2.134 . S
C695 C135 2.129 . S
C700 C415 2.133 . S
C711 C526 2.079 . S
C716 C166 2.076 . S
C727 C486 2.095 . S
C732 C206 2.100 . S
C743 C606 2.078 . S
C748 C246 2.082 . S
C759 C286 2.135 . S
C764 C566 2.131 . S
C775 C98 1.506 . S
C780 C18 1.530 . S
C791 C138 1.478 . S
C796 C58 1.540 . S
C807 C249 1.517 . S
C812 C169 1.521 . S
C823 C209 1.488 . S
C828 C289 1.538 . S
C839 C418 1.539 . S
C844 C338 1.487 . S
C855 C458 1.470 . S
C860 C378 1.503 . S
C871 C489 1.534 . S
C876 C569 1.466 . S
C887 C529 1.512 . S
C892 C609 1.526 . S
C903 C218 1.486 . S
C908 C9 1.504 . S
C919 C178 1.476 . S
C924 C49 1.514 . S
C935 C89 1.472 . S
C940 C298 1.517 . S
C951 C258 1.510 . S
C956 C129 1.480 . S
C967 C329 1.525 . S
C972 C538 1.465 . S
C983 C498 1.528 . S
C988 C369 1.462 . S
C999 C409 1.510 . S
C1004 C618 1.480 . S
C1015 C578 1.495 . S
C1020 C449 1.495 . S
C1031 C46 2.364 . S
C1036 C6 2.366 . S
C1047 C126 2.363 . S
C1052 C86 2.363 . S
C1063 C215 2.377 . S
C1068 C175 2.373 . S
C1079 C255 2.404 . S
C1084 C295 2.399 . S
C1095 C366 2.429 . S
C1100 C326 2.426 . S
C1111 C446 2.369 . S
C1116 C406 2.373 . S
C1127 C495 2.392 . S
C1132 C535 2.387 . S
C1143 C575 2.363 . S
C1148 C615 2.363 . S
C1159 C10 2.412 . S
C1164 C19 2.412 . S
C1175 C50 2.403 . S
C1180 C59 2.403 . S
C1191 C90 2.411 . S
C1196 C99 2.411 . S
C1207 C139 2.400 . S
C1212 C130 2.400 . S
C1223 C179 2.414 . S
C1228 C170 2.414 . S
C1239 C210 2.414 . S
C1244 C219 2.414 . S
C1255 C259 2.414 . S
C1260 C250 2.414 . S
C1271 C299 2.372 . S
C1276 C290 2.372 . S
C1287 C339 2.385 . S
C1292 C330 2.385 . S
C1303 C370 2.382 . S
C1308 C379 2.382 . S
C1319 C419 2.414 . S
C1324 C410 2.414 . S
C1335 C459 2.414 . S
C1340 C450 2.414 . S
C1351 C499 2.369 . S
C1356 C490 2.369 . S
C1367 C539 2.410 . S
C1372 C530 2.410 . S
C1383 C570 2.370 . S
C1388 C579 2.370 . S
C1399 C619 2.369 . S
C1404 C610 2.369 . S
