# Generated by pormake.
# Topology ukg, (4)-cn, num edge types: 1
# Building blocks:
#     Node 0, Type 0, BuildingBlock: GALJAG_clean_sbu_0, # of connection points: 4
#     Node 1, Type 0, BuildingBlock: GALJAG_clean_sbu_0, # of connection points: 4
#     Node 2, Type 0, BuildingBlock: GALJAG_clean_sbu_0, # of connection points: 4
#     Node 3, Type 0, BuildingBlock: GALJAG_clean_sbu_0, # of connection points: 4
#     Node 4, Type 0, BuildingBlock: GALJAG_clean_sbu_0, # of connection points: 4
#     Node 5, Type 0, BuildingBlock: GALJAG_clean_sbu_0, # of connection points: 4
#     Node 6, Type 0, BuildingBlock: GALJAG_clean_sbu_0, # of connection points: 4
#     Node 7, Type 0, BuildingBlock: GALJAG_clean_sbu_0, # of connection points: 4
#     Edge 8, Type (0, 0), BuildingBlock: UVAHIK_clean_linker_0, # of connection points: 2
#     Edge 9, Type (0, 0), BuildingBlock: UVAHIK_clean_linker_0, # of connection points: 2
#     Edge 10, Type (0, 0), BuildingBlock: UVAHIK_clean_linker_0, # of connection points: 2
#     Edge 11, Type (0, 0), BuildingBlock: UVAHIK_clean_linker_0, # of connection points: 2
#     Edge 12, Type (0, 0), BuildingBlock: UVAHIK_clean_linker_0, # of connection points: 2
#     Edge 13, Type (0, 0), BuildingBlock: UVAHIK_clean_linker_0, # of connection points: 2
#     Edge 14, Type (0, 0), BuildingBlock: UVAHIK_clean_linker_0, # of connection points: 2
#     Edge 15, Type (0, 0), BuildingBlock: UVAHIK_clean_linker_0, # of connection points: 2
#     Edge 16, Type (0, 0), BuildingBlock: UVAHIK_clean_linker_0, # of connection points: 2
#     Edge 17, Type (0, 0), BuildingBlock: UVAHIK_clean_linker_0, # of connection points: 2
#     Edge 18, Type (0, 0), BuildingBlock: UVAHIK_clean_linker_0, # of connection points: 2
#     Edge 19, Type (0, 0), BuildingBlock: UVAHIK_clean_linker_0, # of connection points: 2
#     Edge 20, Type (0, 0), BuildingBlock: UVAHIK_clean_linker_0, # of connection points: 2
#     Edge 21, Type (0, 0), BuildingBlock: UVAHIK_clean_linker_0, # of connection points: 2
#     Edge 22, Type (0, 0), BuildingBlock: UVAHIK_clean_linker_0, # of connection points: 2
#     Edge 23, Type (0, 0), BuildingBlock: UVAHIK_clean_linker_0, # of connection points: 2
# Relax obj value: 0.111
# Max RMSD: 0.188
# Mean RMSD: 0.187
data_MOF--net-ukg--node1-GALJAG_clean_sbu_0--edge1-UVAHIK_clean_linker_0
_symmetry_space_group_name_H-M    P1
_symmetry_Int_Tables_number       1
_symmetry_cell_setting            triclinic
loop_
_symmetry_equiv_pos_as_xyz
'x, y, z'
_cell_length_a     38.549173
_cell_length_b     38.547619
_cell_length_c     50.165413
_cell_angle_alpha  90.036075
_cell_angle_beta   89.932723
_cell_angle_gamma 90.101204
loop_
_atom_site_label
_atom_site_type_symbol
_atom_site_fract_x
_atom_site_fract_y
_atom_site_fract_z
_atom_type_partial_charge
In0 In 0.00089 0.67702 0.13975 0.0
O1 O 0.98527 0.65993 0.09763 0.0
O2 O 0.00982 0.6232 0.12292 0.0
C3 C 0.96691 0.7385 0.13819 0.0
C4 C 0.0695 0.68903 0.1384 0.0
C5 C 0.9754 0.64951 0.18521 0.0
O6 O 0.95133 0.70979 0.13688 0.0
O7 O -0.00059 0.73613 0.13911 0.0
O8 O 0.00091 0.67008 0.1851 0.0
O9 O 0.9632 0.64266 0.1625 0.0
C10 C 0.99683 0.62949 0.10039 0.0
O11 O 0.05431 0.67801 0.15907 0.0
O12 O 0.05008 0.69369 0.11849 0.0
In13 In 0.31475 0.5045 0.64114 0.0
O14 O 0.30307 0.55547 0.66249 0.0
O15 O 0.29457 0.55324 0.62076 0.0
C16 C 0.33941 0.48463 0.6892 0.0
C17 C 0.36445 0.49968 0.60325 0.0
C18 C 0.26039 0.4613 0.63454 0.0
O19 O 0.30746 0.48653 0.68416 0.0
O20 O 0.35899 0.49318 0.67014 0.0
O21 O 0.29072 0.4504 0.63903 0.0
O22 O 0.25807 0.49374 0.63176 0.0
C23 C 0.29336 0.57112 0.64176 0.0
O24 O 0.33588 0.48378 0.60133 0.0
O25 O 0.36782 0.51738 0.6242 0.0
In26 In 0.49346 0.81534 0.13761 0.0
O27 O 0.50589 0.83405 0.09528 0.0
O28 O 0.49296 0.87185 0.12433 0.0
C29 C 0.5258 0.75346 0.13402 0.0
C30 C 0.42572 0.79849 0.13708 0.0
C31 C 0.51993 0.83844 0.18417 0.0
O32 O 0.54034 0.7815 0.12723 0.0
O33 O 0.49467 0.75665 0.14132 0.0
O34 O 0.48927 0.84517 0.17706 0.0
O35 O 0.5372 0.821 0.16759 0.0
C36 C 0.50086 0.86568 0.10043 0.0
O37 O 0.44226 0.8039 0.15838 0.0
O38 O 0.4433 0.80189 0.116 0.0
In39 In 0.17469 0.99659 0.63949 0.0
O40 O 0.18576 0.94614 0.66132 0.0
O41 O 0.18311 0.94453 0.619 0.0
C42 C 0.15252 0.02108 0.68695 0.0
C43 C 0.12544 0.00753 0.60197 0.0
C44 C 0.23735 0.02738 0.63482 0.0
O45 O 0.14251 0.99226 0.67779 0.0
O46 O 0.17297 0.03761 0.67201 0.0
O47 O 0.20928 0.04397 0.63257 0.0
O48 O 0.2337 0.99515 0.63808 0.0
C49 C 0.18774 0.92804 0.64042 0.0
O50 O 0.15741 0.0095 0.59686 0.0
O51 O 0.11848 0.00111 0.62598 0.0
In52 In 0.99472 0.31567 0.86045 0.0
O53 O 0.94286 0.30776 0.83975 0.0
O54 O 0.94399 0.30505 0.88215 0.0
C55 C 0.02456 0.33375 0.8137 0.0
C56 C 0.00396 0.36749 0.89616 0.0
C57 C 0.02194 0.25162 0.86624 0.0
O58 O 0.99322 0.34049 0.81884 0.0
O59 O 0.04069 0.31884 0.83224 0.0
O60 O 0.03918 0.27883 0.87089 0.0
O61 O 0.99079 0.25679 0.85983 0.0
C62 C 0.92613 0.30304 0.86111 0.0
O63 O 0.00957 0.33612 0.90177 0.0
O64 O 0.99441 0.37271 0.87251 0.0
In65 In 0.67908 0.4953 0.36382 0.0
O66 O 0.68632 0.44371 0.34241 0.0
O67 O 0.68872 0.44388 0.38478 0.0
C68 C 0.66158 0.52377 0.31647 0.0
C69 C 0.62837 0.50709 0.40016 0.0
C70 C 0.74323 0.5223 0.36969 0.0
O71 O 0.64806 0.4959 0.32464 0.0
O72 O 0.683 0.5373 0.33228 0.0
O73 O 0.71609 0.54019 0.37295 0.0
O74 O 0.73781 0.49061 0.36494 0.0
C75 C 0.6905 0.42643 0.36353 0.0
O76 O 0.66001 0.51212 0.40527 0.0
O77 O 0.62244 0.49721 0.37669 0.0
In78 In 0.50214 0.17838 0.86006 0.0
O79 O 0.48692 0.16129 0.90233 0.0
O80 O 0.49916 0.1223 0.87406 0.0
C81 C 0.4764 0.24341 0.86273 0.0
C82 C 0.57103 0.18959 0.861 0.0
C83 C 0.47408 0.1568 0.81361 0.0
O84 O 0.45834 0.21712 0.86864 0.0
O85 O 0.50739 0.2368 0.85661 0.0
O86 O 0.50442 0.14853 0.82055 0.0
O87 O 0.45791 0.1752 0.83025 0.0
C88 C 0.49061 0.12934 0.89768 0.0
O89 O 0.55454 0.18428 0.83965 0.0
O90 O 0.5528 0.18877 0.88192 0.0
In91 In 0.81101 0.00106 0.36298 0.0
O92 O 0.80061 0.05209 0.34165 0.0
O93 O 0.79961 0.05205 0.38406 0.0
C94 C 0.83276 0.97446 0.31605 0.0
C95 C 0.86112 0.99206 0.40011 0.0
C96 C 0.74843 0.97006 0.3674 0.0
O97 O 0.81415 0.95789 0.33232 0.0
O98 O 0.84116 0.00459 0.32356 0.0
O99 O 0.77648 0.95394 0.3712 0.0
O100 O 0.75201 0.00197 0.36267 0.0
C101 C 0.79625 0.06926 0.36283 0.0
O102 O 0.86752 -0.00047 0.37618 0.0
O103 O 0.82934 0.9882 0.40532 0.0
C104 C 0.99701 0.42972 0.90912 0.0
C105 C 0.00635 0.39568 0.91604 0.0
C106 C 0.99708 0.45604 0.92828 0.0
C107 C 0.03197 0.47965 0.99429 0.0
H108 H 0.95284 0.54157 0.99727 0.0
C109 C 0.00836 0.56957 0.08387 0.0
C110 C 0.99658 0.60339 0.07882 0.0
C111 C 0.00971 0.54504 0.06344 0.0
C112 C 0.97534 0.52481 0.9965 0.0
H113 H 0.0237 0.36259 0.94828 0.0
H114 H 0.02383 0.40857 0.98179 0.0
H115 H 0.95597 0.49748 0.96244 0.0
H116 H 0.97666 0.63801 0.04848 0.0
H117 H 0.97938 0.59517 0.01257 0.0
H118 H 0.05138 0.50689 0.0283 0.0
C119 C 0.01667 0.41497 0.96151 0.0
C120 C 0.97713 0.49954 0.97655 0.0
C121 C 0.01647 0.38861 0.94236 0.0
C122 C 0.98574 0.61209 0.05296 0.0
C123 C 0.98719 0.58751 0.03244 0.0
C124 C 0.03024 0.50497 0.01417 0.0
C125 C 0.00662 0.4489 0.95473 0.0
C126 C 0.00535 0.47652 0.97535 0.0
C127 C -0.00054 0.55376 0.03742 0.0
C128 C 0.00176 0.52767 0.01566 0.0
H129 H 0.98915 0.43596 0.88896 0.0
H130 H 0.98966 0.482 0.92237 0.0
H131 H 0.0543 0.46266 0.99364 0.0
H132 H 0.01673 0.56203 0.10364 0.0
H133 H 0.01864 0.51912 0.06811 0.0
C134 C 0.38507 0.48412 0.55734 0.0
C135 C 0.39159 0.49882 0.58246 0.0
C136 C 0.41049 0.48508 0.5374 0.0
C137 C 0.50459 0.49437 0.52695 0.0
H138 H 0.479 0.52398 0.45581 0.0
C139 C 0.60806 0.52117 0.44639 0.0
C140 C 0.60066 0.50976 0.42043 0.0
C141 C 0.58221 0.52107 0.46598 0.0
C142 C 0.48656 0.51526 0.47547 0.0
H143 H 0.42994 0.52549 0.60661 0.0
H144 H 0.47427 0.52687 0.57196 0.0
H145 H 0.43455 0.5193 0.49028 0.0
H146 H 0.56032 0.48982 0.39448 0.0
H147 H 0.51553 0.48898 0.42865 0.0
H148 H 0.55644 0.48978 0.51221 0.0
C149 C 0.44961 0.51458 0.56764 0.0
C150 C 0.46106 0.51259 0.49521 0.0
C151 C 0.42415 0.51392 0.58743 0.0
C152 C 0.56678 0.49894 0.41429 0.0
C153 C 0.54102 0.49862 0.43389 0.0
C154 C 0.53005 0.49678 0.50719 0.0
C155 C 0.44299 0.50041 0.54235 0.0
C156 C 0.46983 0.50222 0.52117 0.0
C157 C 0.54847 0.50934 0.46006 0.0
C158 C 0.52139 0.50735 0.4812 0.0
H159 H 0.36018 0.47236 0.55296 0.0
H160 H 0.40479 0.47369 0.51815 0.0
H161 H 0.51205 0.48591 0.54672 0.0
H162 H 0.63393 0.52975 0.45166 0.0
H163 H 0.58872 0.5301 0.48581 0.0
C164 C 0.49514 0.92777 0.08688 0.0
C165 C 0.50187 0.89313 0.0799 0.0
C166 C 0.49374 0.95352 0.06733 0.0
C167 C 0.47889 0.96536 0.99536 0.0
H168 H 0.51885 0.05636 0.00762 0.0
C169 C 0.49345 0.0674 0.91199 0.0
C170 C 0.48777 0.10238 0.91849 0.0
C171 C 0.49359 0.04202 0.93183 0.0
C172 C 0.50713 0.03124 0.00403 0.0
H173 H 0.51312 0.85835 0.04705 0.0
H174 H 0.51103 0.90342 0.01286 0.0
H175 H 0.52385 0.01175 0.04183 0.0
H176 H 0.47689 0.13815 0.95077 0.0
H177 H 0.4767 0.09369 0.9855 0.0
H178 H 0.4622 0.98481 0.95755 0.0
C179 C 0.50637 0.91059 0.03343 0.0
C180 C 0.51008 0.00564 0.02361 0.0
C181 C 0.50784 0.88483 0.05302 0.0
C182 C 0.48138 0.11139 0.94518 0.0
C183 C 0.48154 0.08597 0.96507 0.0
C184 C 0.47591 0.99096 0.97579 0.0
C185 C 0.49899 0.94518 0.04035 0.0
C186 C 0.49608 0.97237 0.01947 0.0
C187 C 0.48804 0.05103 0.95866 0.0
C188 C 0.49009 0.02418 0.97985 0.0
H189 H 0.49033 0.93495 0.10744 0.0
H190 H 0.48765 0.97982 0.0733 0.0
H191 H 0.46727 0.94019 0.99174 0.0
H192 H 0.49856 0.05966 0.8916 0.0
H193 H 0.49907 0.01545 0.92623 0.0
C194 C 0.92344 0.99538 0.41344 0.0
C195 C 0.88853 0.99058 0.42063 0.0
C196 C 0.94924 0.99679 0.43294 0.0
C197 C 0.96781 0.97493 0.50329 0.0
H198 H 0.03922 0.04535 0.496 0.0
C199 C 0.06322 0.0056 0.58828 0.0
C200 C 0.0983 0.00957 0.58127 0.0
C201 C 0.03762 0.00429 0.56863 0.0
C202 C 0.01966 0.02534 0.49819 0.0
H203 H 0.85329 0.98277 0.45379 0.0
H204 H 0.89831 0.98552 0.48792 0.0
H205 H 0.99473 0.03964 0.46175 0.0
H206 H 0.13403 0.01618 0.54827 0.0
H207 H 0.08927 0.0138 0.51386 0.0
H208 H 0.9927 0.96071 0.53976 0.0
C209 C 0.90583 0.98784 0.46719 0.0
C210 C 0.99419 0.02201 0.47855 0.0
C211 C 0.88001 0.98637 0.44765 0.0
C212 C 0.10719 0.01321 0.55426 0.0
C213 C 0.08154 0.01194 0.53457 0.0
C214 C 0.99325 0.97829 0.52294 0.0
C215 C 0.9407 0.9935 0.46007 0.0
C216 C 0.96796 0.99676 0.48086 0.0
C217 C 0.04652 0.00693 0.54153 0.0
C218 C 0.01944 0.00357 0.52064 0.0
H219 H 0.93083 -0.00143 0.39274 0.0
H220 H 0.9759 0.00056 0.42674 0.0
H221 H 0.9483 0.95489 0.50549 0.0
H222 H 0.05555 0.00284 0.60895 0.0
H223 H 0.01083 0.00104 0.57468 0.0
C224 C 0.12654 0.69683 0.16125 0.0
C225 C 0.10683 0.69726 0.13775 0.0
C226 C 0.16145 0.70658 0.16079 0.0
C227 C 0.22409 0.75691 0.12057 0.0
H228 H 0.29229 0.71009 0.16439 0.0
C229 C 0.37115 0.78383 0.11272 0.0
C230 C 0.38907 0.78758 0.13691 0.0
C231 C 0.33673 0.77247 0.11256 0.0
C232 C 0.27344 0.72356 0.15222 0.0
H233 H 0.10826 0.70715 0.09522 0.0
H234 H 0.16934 0.72339 0.09427 0.0
H235 H 0.23235 0.68966 0.1643 0.0
H236 H 0.38516 0.78258 0.17987 0.0
H237 H 0.325 0.76269 0.17956 0.0
H238 H 0.26533 0.79061 0.10835 0.0
C239 C 0.15773 0.71634 0.11318 0.0
C240 C 0.23912 0.71191 0.15218 0.0
C241 C 0.1228 0.70681 0.11368 0.0
C242 C 0.37195 0.77993 0.16093 0.0
C243 C 0.33763 0.76834 0.16075 0.0
C244 C 0.25844 0.7684 0.12048 0.0
C245 C 0.17736 0.71674 0.13677 0.0
C246 C 0.21403 0.72854 0.13642 0.0
C247 C 0.31972 0.76442 0.13656 0.0
C248 C 0.2834 0.75193 0.13639 0.0
H249 H 0.11483 0.68969 0.18011 0.0
H250 H 0.17571 0.707 0.17937 0.0
H251 H 0.2053 0.7707 0.10857 0.0
H252 H 0.38375 0.78949 0.09391 0.0
H253 H 0.32361 0.76942 0.09362 0.0
C254 C 0.2791 0.62576 0.66614 0.0
C255 C 0.28128 0.60735 0.64205 0.0
C256 C 0.2676 0.66008 0.66639 0.0
C257 C 0.21856 0.72389 0.62662 0.0
H258 H 0.26651 0.79103 0.67092 0.0
C259 C 0.19792 0.87164 0.61719 0.0
C260 C 0.19599 0.89075 0.64098 0.0
C261 C 0.20688 0.83657 0.6177 0.0
C262 C 0.2526 0.7725 0.65869 0.0
H263 H 0.27322 0.61023 0.59933 0.0
H264 H 0.25361 0.67033 0.59969 0.0
H265 H 0.28514 0.73066 0.67109 0.0
H266 H 0.20134 0.88819 0.68396 0.0
H267 H 0.21684 0.82687 0.68486 0.0
H268 H 0.18624 0.7659 0.61404 0.0
C269 C 0.26028 0.65813 0.61844 0.0
C270 C 0.26325 0.73792 0.65879 0.0
C271 C 0.27172 0.62381 0.61821 0.0
C272 C 0.20275 0.8741 0.66531 0.0
C273 C 0.2118 0.83908 0.66581 0.0
C274 C 0.20795 0.7585 0.62647 0.0
C275 C 0.25813 0.67666 0.64253 0.0
C276 C 0.2464 0.71326 0.64272 0.0
C277 C 0.21416 0.82001 0.642 0.0
C278 C 0.22492 0.78315 0.64247 0.0
H279 H 0.28616 0.61364 0.68483 0.0
H280 H 0.2658 0.67353 0.6853 0.0
H281 H 0.20472 0.70538 0.61432 0.0
H282 H 0.19288 0.88385 0.59814 0.0
H283 H 0.20885 0.82261 0.59901 0.0
C284 C 0.62527 0.20497 0.88556 0.0
C285 C 0.60821 0.19859 0.86132 0.0
C286 C 0.65985 0.21582 0.88576 0.0
C287 C 0.7245 0.25958 0.84375 0.0
H288 H 0.79071 0.2223 0.89427 0.0
C289 C 0.87104 0.28865 0.83739 0.0
C290 C 0.88902 0.29372 0.8614 0.0
C291 C 0.83647 0.27779 0.83763 0.0
C292 C 0.77241 0.2333 0.88027 0.0
H293 H 0.61405 0.1978 0.81833 0.0
H294 H 0.67454 0.21657 0.81869 0.0
H295 H 0.73122 0.20064 0.89415 0.0
H296 H 0.88484 0.29224 0.90449 0.0
H297 H 0.82427 0.27381 0.90494 0.0
H298 H 0.76555 0.29237 0.82993 0.0
C299 C 0.66106 0.21356 0.83751 0.0
C300 C 0.73838 0.22082 0.88017 0.0
C301 C 0.62654 0.20258 0.83731 0.0
C302 C 0.87163 0.28841 0.88567 0.0
C303 C 0.83703 0.27762 0.88592 0.0
C304 C 0.75848 0.27213 0.8439 0.0
C305 C 0.67796 0.22064 0.86172 0.0
C306 C 0.71411 0.23376 0.86185 0.0
C307 C 0.81917 0.27187 0.8619 0.0
C308 C 0.78285 0.25907 0.86211 0.0
H309 H 0.61173 0.20216 0.90438 0.0
H310 H 0.67211 0.22135 0.90472 0.0
H311 H 0.70619 0.27047 0.8297 0.0
H312 H 0.88385 0.29242 0.81838 0.0
H313 H 0.82358 0.2732 0.81878 0.0
C314 C 0.70226 0.37118 0.33912 0.0
C315 C 0.69874 0.3891 0.36335 0.0
C316 C 0.71189 0.33629 0.33891 0.0
C317 C 0.7161 0.25804 0.38104 0.0
H318 H 0.78615 0.22882 0.33024 0.0
C319 C 0.78156 0.12402 0.3869 0.0
C320 C 0.78639 0.10619 0.36277 0.0
C321 C 0.77087 0.15861 0.38689 0.0
C322 C 0.76629 0.23648 0.34434 0.0
H323 H 0.70195 0.38454 0.40636 0.0
H324 H 0.71898 0.32363 0.406 0.0
H325 H 0.76631 0.28883 0.33022 0.0
H326 H 0.78412 0.11048 0.31972 0.0
H327 H 0.76514 0.1708 0.31967 0.0
H328 H 0.71609 0.20569 0.39517 0.0
C329 C 0.71399 0.33644 0.38718 0.0
C330 C 0.75491 0.27083 0.34432 0.0
C331 C 0.7044 0.37134 0.38738 0.0
C332 C 0.78072 0.12365 0.33862 0.0
C333 C 0.77 0.15822 0.3386 0.0
C334 C 0.72746 0.22367 0.38104 0.0
C335 C 0.71815 0.31863 0.36293 0.0
C336 C 0.72973 0.28199 0.36269 0.0
C337 C 0.76478 0.17602 0.36274 0.0
C338 C 0.75272 0.21253 0.36272 0.0
H339 H 0.69795 0.38421 0.32029 0.0
H340 H 0.71442 0.32311 0.31993 0.0
H341 H 0.69634 0.26577 0.3952 0.0
H342 H 0.78584 0.11122 0.40583 0.0
H343 H 0.76757 0.17177 0.4058 0.0
C344 C 0.80706 0.51677 0.36306 0.0
C345 C 0.7777 0.53805 0.36539 0.0
C346 C 0.83751 0.52956 0.35156 0.0
C347 C 0.87871 0.55094 0.30352 0.0
H348 H 0.90815 0.64707 0.30048 0.0
C349 C 0.93287 0.61119 0.20835 0.0
C350 C 0.96016 0.63524 0.20991 0.0
C351 C 0.91728 0.59849 0.23146 0.0
C352 C 0.90068 0.61999 0.30136 0.0
H353 H 0.75818 0.59026 0.36006 0.0
H354 H 0.8108 0.61238 0.33938 0.0
H355 H 0.87096 0.62754 0.33703 0.0
H356 H 0.99283 0.66465 0.23689 0.0
H357 H 0.9654 0.64232 0.27753 0.0
H358 H 0.90783 0.54346 0.26771 0.0
C359 C 0.81074 0.58595 0.34668 0.0
C360 C 0.87912 0.60887 0.32217 0.0
C361 C 0.78043 0.57325 0.35852 0.0
C362 C 0.97184 0.64609 0.23512 0.0
C363 C 0.95607 0.63345 0.25834 0.0
C364 C 0.90023 0.56201 0.28285 0.0
C365 C 0.83899 0.56374 0.34179 0.0
C366 C 0.867 0.57442 0.32303 0.0
C367 C 0.92857 0.60954 0.25673 0.0
C368 C 0.91048 0.5969 0.28101 0.0
H369 H 0.80578 0.4896 0.36849 0.0
H370 H 0.85914 0.51202 0.3488 0.0
H371 H 0.86968 0.52433 0.30323 0.0
H372 H 0.92321 0.60243 0.18922 0.0
H373 H 0.89574 0.58059 0.22949 0.0
C374 C 0.33105 0.45195 0.73169 0.0
C375 C 0.35281 0.47095 0.71462 0.0
C376 C 0.34463 0.43532 0.75411 0.0
C377 C 0.42806 0.40017 0.77747 0.0
H378 H 0.37539 0.37888 0.84134 0.0
C379 C 0.4836 0.30629 0.85301 0.0
C380 C 0.46148 0.27817 0.85837 0.0
C381 C 0.47042 0.33692 0.84228 0.0
C382 C 0.39043 0.38478 0.82366 0.0
H383 H 0.40523 0.48967 0.70852 0.0
H384 H 0.42879 0.4618 0.74815 0.0
H385 H 0.35245 0.42058 0.80912 0.0
H386 H 0.4079 0.2611 0.85918 0.0
H387 H 0.38483 0.31457 0.84009 0.0
H388 H 0.46561 0.36403 0.79155 0.0
C389 C 0.40146 0.45863 0.74381 0.0
C390 C 0.37727 0.40853 0.80514 0.0
C391 C 0.38797 0.47478 0.72118 0.0
C392 C 0.42554 0.28238 0.8552 0.0
C393 C 0.41233 0.31305 0.84431 0.0
C394 C 0.44128 0.37681 0.79601 0.0
C395 C 0.38021 0.43774 0.76009 0.0
C396 C 0.39564 0.41597 0.78153 0.0
C397 C 0.43488 0.33994 0.83655 0.0
C398 C 0.42238 0.36833 0.81907 0.0
H399 H 0.3038 0.44856 0.72707 0.0
H400 H 0.32751 0.41919 0.76593 0.0
H401 H 0.44265 0.40449 0.75931 0.0
H402 H 0.5114 0.30391 0.85556 0.0
H403 H 0.48833 0.3575 0.83701 0.0
C404 C 0.51824 0.87493 0.22554 0.0
C405 C 0.53454 0.84936 0.21001 0.0
C406 C 0.53316 0.8859 0.24954 0.0
C407 C 0.59642 0.8618 0.30142 0.0
H408 H 0.61629 0.96024 0.30503 0.0
C409 C 0.71462 0.91715 0.35559 0.0
C410 C 0.71504 0.95223 0.36305 0.0
C411 C 0.68487 0.90257 0.34429 0.0
C412 C 0.61024 0.9328 0.30498 0.0
H413 H 0.57836 0.81426 0.20779 0.0
H414 H 0.60414 0.83315 0.24971 0.0
H415 H 0.57782 0.93835 0.27066 0.0
H416 H 0.68376 -0.00153 0.36757 0.0
H417 H 0.63124 0.97261 0.34912 0.0
H418 H 0.62934 0.85606 0.33543 0.0
C419 C 0.57991 0.84473 0.2434 0.0
C420 C 0.58824 0.92027 0.2851 0.0
C421 C 0.56534 0.83419 0.21928 0.0
C422 C 0.6842 0.97143 0.36167 0.0
C423 C 0.65424 0.95668 0.35083 0.0
C424 C 0.61808 0.87438 0.32158 0.0
C425 C 0.56424 0.87099 0.2586 0.0
C426 C 0.58212 0.88455 0.28255 0.0
C427 C 0.65476 0.92266 0.34063 0.0
C428 C 0.62634 0.90992 0.32301 0.0
H429 H 0.49441 0.88696 0.21887 0.0
H430 H 0.5206 0.90622 0.26091 0.0
H431 H 0.59172 0.83414 0.30006 0.0
H432 H 0.73809 0.90176 0.35635 0.0
H433 H 0.68653 0.87639 0.33659 0.0
C434 C 0.07373 0.21487 0.85733 0.0
C435 C 0.03817 0.21729 0.863 0.0
C436 C 0.08746 0.18421 0.8469 0.0
C437 C 0.05597 0.11178 0.80588 0.0
H438 H 0.15348 0.0874 0.80547 0.0
C439 C 0.11342 0.01962 0.72687 0.0
C440 C 0.14137 0.03466 0.71308 0.0
C441 C 0.1019 0.03397 0.75091 0.0
C442 C 0.12611 0.09374 0.80556 0.0
H443 H 0.9899 0.18862 0.86541 0.0
H444 H 0.01413 0.13456 0.84842 0.0
H445 H 0.13106 0.12578 0.84021 0.0
H446 H 0.18019 0.07544 0.71409 0.0
H447 H 0.16021 0.10033 0.75603 0.0
H448 H 0.05126 0.08046 0.77087 0.0
C449 C 0.03121 0.15666 0.85088 0.0
C450 C 0.11327 0.1158 0.82537 0.0
C451 C 0.01736 0.18751 0.86085 0.0
C452 C 0.15842 0.06343 0.72422 0.0
C453 C 0.14723 0.07747 0.74837 0.0
C454 C 0.06873 0.08943 0.78633 0.0
C455 C 0.06596 0.15523 0.84232 0.0
C456 C 0.07829 0.12619 0.82517 0.0
C457 C 0.11851 0.06326 0.76174 0.0
C458 C 0.10414 0.08123 0.78539 0.0
H459 H 0.09035 0.23748 0.85875 0.0
H460 H 0.11427 0.18434 0.84047 0.0
H461 H 0.02903 0.11949 0.80468 0.0
H462 H 0.09991 -0.00267 0.71875 0.0
H463 H 0.07972 0.02252 0.76087 0.0
C464 C 0.07415 0.32831 0.7821 0.0
C465 C 0.04125 0.34194 0.78795 0.0
C466 C 0.09066 0.33637 0.75814 0.0
C467 C 0.09641 0.40503 0.70907 0.0
H468 H 0.15239 0.33816 0.6705 0.0
C469 C 0.19613 0.45316 0.63397 0.0
C470 C 0.22934 0.43933 0.63827 0.0
C471 C 0.16679 0.43645 0.64419 0.0
C472 C 0.13686 0.35716 0.681 0.0
H473 H -0.00057 0.37407 0.77313 0.0
H474 H 0.02877 0.3888 0.73122 0.0
H475 H 0.11237 0.31825 0.70507 0.0
H476 H 0.25765 0.39554 0.65428 0.0
H477 H 0.20686 0.36685 0.67261 0.0
H478 H 0.12219 0.44416 0.68643 0.0
C479 C 0.04162 0.37174 0.74522 0.0
C480 C 0.11391 0.34574 0.70075 0.0
C481 C 0.02487 0.36333 0.76915 0.0
C482 C 0.23239 0.40686 0.65068 0.0
C483 C 0.20311 0.39032 0.66114 0.0
C484 C 0.11952 0.41648 0.6895 0.0
C485 C 0.07479 0.35848 0.73957 0.0
C486 C 0.0943 0.36968 0.71556 0.0
C487 C 0.17015 0.40579 0.65915 0.0
C488 C 0.1409 0.39281 0.67582 0.0
H489 H 0.08734 0.31159 0.79615 0.0
H490 H 0.11643 0.32619 0.75456 0.0
H491 H 0.08187 0.42412 0.7203 0.0
H492 H 0.19297 0.47802 0.62421 0.0
H493 H 0.1417 0.44861 0.64167 0.0
C494 C 0.62227 0.53212 0.27725 0.0
C495 C 0.65333 0.53977 0.29057 0.0
C496 C 0.61358 0.54979 0.25382 0.0
C497 C 0.63382 0.63241 0.21967 0.0
H498 H 0.57517 0.5943 0.16412 0.0
C499 C 0.58161 0.72137 0.13912 0.0
C500 C 0.54519 0.72102 0.13855 0.0
C501 C 0.59974 0.69375 0.15052 0.0
C502 C 0.5918 0.60517 0.17939 0.0
H503 H 0.7008 0.56991 0.28906 0.0
H504 H 0.68647 0.59961 0.24781 0.0
H505 H 0.59808 0.55609 0.19881 0.0
H506 H 0.49939 0.69001 0.1466 0.0
H507 H 0.53099 0.64188 0.16642 0.0
H508 H 0.62705 0.68147 0.20074 0.0
C509 C 0.66804 0.5811 0.25581 0.0
C510 C 0.60472 0.58338 0.19937 0.0
C511 C 0.67637 0.56396 0.27941 0.0
C512 C 0.52747 0.69107 0.14695 0.0
C513 C 0.5456 0.6634 0.1582 0.0
C514 C 0.62126 0.65399 0.19963 0.0
C515 C 0.6361 0.57502 0.24309 0.0
C516 C 0.62528 0.59691 0.22011 0.0
C517 C 0.58176 0.66528 0.16136 0.0
C518 C 0.59951 0.64082 0.1796 0.0
H519 H 0.6041 0.51351 0.28548 0.0
H520 H 0.5886 0.54465 0.24479 0.0
H521 H 0.6489 0.64406 0.23553 0.0
H522 H 0.59597 0.74405 0.13267 0.0
H523 H 0.62768 0.69562 0.15234 0.0
C524 C 0.47351 0.11974 0.77253 0.0
C525 C 0.45852 0.14614 0.78802 0.0
C526 C 0.45754 0.10879 0.74893 0.0
C527 C 0.39309 0.13369 0.69802 0.0
H528 H 0.37122 0.0356 0.69566 0.0
C529 C 0.27218 0.07972 0.64653 0.0
C530 C 0.27108 0.04468 0.63898 0.0
C531 C 0.30243 0.09389 0.65734 0.0
C532 C 0.37778 0.06292 0.69537 0.0
H533 H 0.41598 0.18275 0.79053 0.0
H534 H 0.38835 0.16386 0.74932 0.0
H535 H 0.41124 0.05723 0.72909 0.0
H536 H 0.30166 -0.00196 0.6339 0.0
H537 H 0.35495 0.02312 0.65166 0.0
H538 H 0.3591 0.13957 0.66465 0.0
C539 C 0.41237 0.15162 0.75534 0.0
C540 C 0.40068 0.07531 0.71471 0.0
C541 C 0.428 0.16219 0.77907 0.0
C542 C 0.3017 0.02505 0.63987 0.0
C543 C 0.33213 0.03936 0.65029 0.0
C544 C 0.37049 0.12124 0.67843 0.0
C545 C 0.42668 0.1245 0.74023 0.0
C546 C 0.4076 0.11094 0.71681 0.0
C547 C 0.33237 0.0734 0.66047 0.0
C548 C 0.36153 0.08585 0.67747 0.0
H549 H 0.49709 0.10702 0.77896 0.0
H550 H 0.46909 0.08784 0.73761 0.0
H551 H 0.3984 0.16126 0.69902 0.0
H552 H 0.24893 0.09546 0.64612 0.0
H553 H 0.30137 0.12009 0.66506 0.0
C554 C 0.96776 0.80288 0.14339 0.0
C555 C 0.94892 0.77166 0.14308 0.0
C556 C 0.95296 0.83305 0.15379 0.0
C557 C 0.87073 0.87023 0.18159 0.0
H558 H 0.93376 0.91332 0.23197 0.0
C559 C 0.82764 0.92893 0.28106 0.0
C560 C 0.84364 0.95937 0.29035 0.0
C561 C 0.83863 0.91339 0.25741 0.0
C562 C 0.91595 0.90216 0.21763 0.0
H563 H 0.89901 0.74809 0.15138 0.0
H564 H 0.87347 0.80027 0.17017 0.0
H565 H 0.9562 0.87285 0.19914 0.0
H566 H 0.88304 -0.002 0.2819 0.0
H567 H 0.90291 0.97023 0.24062 0.0
H568 H 0.83019 0.89811 0.20148 0.0
C569 C 0.89946 0.80187 0.16205 0.0
C570 C 0.92881 0.87896 0.19868 0.0
C571 C 0.91414 0.7718 0.15135 0.0
C572 C 0.87035 0.97448 0.2752 0.0
C573 C 0.8817 0.95862 0.25165 0.0
C574 C 0.85784 0.89322 0.20073 0.0
C575 C 0.91918 0.8325 0.16441 0.0
C576 C 0.90622 0.86184 0.18095 0.0
C577 C 0.86612 0.92774 0.24267 0.0
C578 C 0.88021 0.90855 0.21946 0.0
H579 H 0.99455 0.80359 0.13685 0.0
H580 H 0.9686 0.85639 0.15467 0.0
H581 H 0.8527 0.85809 0.16791 0.0
H582 H 0.80685 0.91681 0.29225 0.0
H583 H 0.82647 0.88935 0.25122 0.0
loop_
_geom_bond_atom_site_label_1
_geom_bond_atom_site_label_2
_geom_bond_distance
_geom_bond_site_symmetry_2
_ccdc_geom_bond_type
In0 O1 2.293 1_455 S
In0 O2 2.327 . S
In0 O6 2.264 1_455 S
In0 O7 2.325 1_455 S
In0 O8 2.266 1_455 S
In0 O9 2.323 1_455 S
In0 O11 2.297 . S
In0 O12 2.329 . S
O1 In0 2.293 1_655 S
O1 C10 1.240 1_655 S
O2 In0 2.327 . S
O2 C10 1.252 . S
C3 O6 1.252 . S
C3 O7 1.260 . S
C4 O11 1.240 . S
C4 O12 1.252 . S
C5 O8 1.252 . S
C5 O9 1.260 . S
O6 In0 2.264 1_655 S
O6 C3 1.252 . S
O7 In0 2.325 1_655 S
O7 C3 1.260 . S
O8 In0 2.266 1_655 S
O8 C5 1.252 . S
O9 In0 2.323 1_655 S
O9 C5 1.260 . S
C10 O1 1.240 1_455 S
C10 O2 1.252 . S
O11 In0 2.297 . S
O11 C4 1.240 . S
O12 In0 2.329 . S
O12 C4 1.252 . S
In13 O14 2.294 . S
In13 O15 2.326 . S
In13 O19 2.266 . S
In13 O20 2.326 . S
In13 O21 2.266 . S
In13 O22 2.326 . S
In13 O24 2.294 . S
In13 O25 2.326 . S
O14 In13 2.294 . S
O14 C23 1.240 . S
O15 In13 2.326 . S
O15 C23 1.252 . S
C16 O19 1.252 . S
C16 O20 1.260 . S
C17 O24 1.240 . S
C17 O25 1.252 . S
C18 O21 1.252 . S
C18 O22 1.260 . S
O19 In13 2.266 . S
O19 C16 1.252 . S
O20 In13 2.326 . S
O20 C16 1.260 . S
O21 In13 2.266 . S
O21 C18 1.252 . S
O22 In13 2.326 . S
O22 C18 1.260 . S
C23 O14 1.240 . S
C23 O15 1.252 . S
O24 In13 2.294 . S
O24 C17 1.240 . S
O25 In13 2.326 . S
O25 C17 1.252 . S
In26 O27 2.294 . S
In26 O28 2.326 . S
In26 O32 2.266 . S
In26 O33 2.326 . S
In26 O34 2.266 . S
In26 O35 2.326 . S
In26 O37 2.294 . S
In26 O38 2.326 . S
O27 In26 2.294 . S
O27 C36 1.240 . S
O28 In26 2.326 . S
O28 C36 1.252 . S
C29 O32 1.252 . S
C29 O33 1.260 . S
C30 O37 1.240 . S
C30 O38 1.252 . S
C31 O34 1.252 . S
C31 O35 1.260 . S
O32 In26 2.266 . S
O32 C29 1.252 . S
O33 In26 2.326 . S
O33 C29 1.260 . S
O34 In26 2.266 . S
O34 C31 1.252 . S
O35 In26 2.326 . S
O35 C31 1.260 . S
C36 O27 1.240 . S
C36 O28 1.252 . S
O37 In26 2.294 . S
O37 C30 1.240 . S
O38 In26 2.326 . S
O38 C30 1.252 . S
In39 O40 2.297 . S
In39 O41 2.329 . S
In39 O45 2.266 1_565 S
In39 O46 2.323 1_565 S
In39 O47 2.264 1_565 S
In39 O48 2.325 1_565 S
In39 O50 2.293 1_565 S
In39 O51 2.327 . S
O40 In39 2.297 . S
O40 C49 1.240 . S
O41 In39 2.329 . S
O41 C49 1.252 . S
C42 O45 1.252 . S
C42 O46 1.260 . S
C43 O50 1.240 1_565 S
C43 O51 1.252 . S
C44 O47 1.252 . S
C44 O48 1.260 . S
O45 In39 2.266 1_545 S
O45 C42 1.252 . S
O46 In39 2.323 1_545 S
O46 C42 1.260 . S
O47 In39 2.264 1_545 S
O47 C44 1.252 . S
O48 In39 2.325 1_545 S
O48 C44 1.260 . S
C49 O40 1.240 . S
C49 O41 1.252 . S
O50 In39 2.293 1_545 S
O50 C43 1.240 1_545 S
O51 In39 2.327 . S
O51 C43 1.252 . S
In52 O53 2.297 . S
In52 O54 2.329 . S
In52 O58 2.266 1_655 S
In52 O59 2.323 1_655 S
In52 O60 2.264 1_655 S
In52 O61 2.325 1_655 S
In52 O63 2.293 1_655 S
In52 O64 2.327 . S
O53 In52 2.297 . S
O53 C62 1.240 . S
O54 In52 2.329 . S
O54 C62 1.252 . S
C55 O58 1.252 . S
C55 O59 1.260 . S
C56 O63 1.240 1_655 S
C56 O64 1.252 . S
C57 O60 1.252 . S
C57 O61 1.260 . S
O58 In52 2.266 1_455 S
O58 C55 1.252 . S
O59 In52 2.323 1_455 S
O59 C55 1.260 . S
O60 In52 2.264 1_455 S
O60 C57 1.252 . S
O61 In52 2.325 1_455 S
O61 C57 1.260 . S
C62 O53 1.240 . S
C62 O54 1.252 . S
O63 In52 2.293 1_455 S
O63 C56 1.240 1_455 S
O64 In52 2.327 . S
O64 C56 1.252 . S
In65 O66 2.294 . S
In65 O67 2.326 . S
In65 O71 2.266 . S
In65 O72 2.326 . S
In65 O73 2.266 . S
In65 O74 2.326 . S
In65 O76 2.294 . S
In65 O77 2.326 . S
O66 In65 2.294 . S
O66 C75 1.240 . S
O67 In65 2.326 . S
O67 C75 1.252 . S
C68 O71 1.252 . S
C68 O72 1.260 . S
C69 O76 1.240 . S
C69 O77 1.252 . S
C70 O73 1.252 . S
C70 O74 1.260 . S
O71 In65 2.266 . S
O71 C68 1.252 . S
O72 In65 2.326 . S
O72 C68 1.260 . S
O73 In65 2.266 . S
O73 C70 1.252 . S
O74 In65 2.326 . S
O74 C70 1.260 . S
C75 O66 1.240 . S
C75 O67 1.252 . S
O76 In65 2.294 . S
O76 C69 1.240 . S
O77 In65 2.326 . S
O77 C69 1.252 . S
In78 O79 2.294 . S
In78 O80 2.326 . S
In78 O84 2.266 . S
In78 O85 2.326 . S
In78 O86 2.266 . S
In78 O87 2.326 . S
In78 O89 2.294 . S
In78 O90 2.326 . S
O79 In78 2.294 . S
O79 C88 1.240 . S
O80 In78 2.326 . S
O80 C88 1.252 . S
C81 O84 1.252 . S
C81 O85 1.260 . S
C82 O89 1.240 . S
C82 O90 1.252 . S
C83 O86 1.252 . S
C83 O87 1.260 . S
O84 In78 2.266 . S
O84 C81 1.252 . S
O85 In78 2.326 . S
O85 C81 1.260 . S
O86 In78 2.266 . S
O86 C83 1.252 . S
O87 In78 2.326 . S
O87 C83 1.260 . S
C88 O79 1.240 . S
C88 O80 1.252 . S
O89 In78 2.294 . S
O89 C82 1.240 . S
O90 In78 2.326 . S
O90 C82 1.252 . S
In91 O92 2.297 . S
In91 O93 2.329 . S
In91 O97 2.266 1_545 S
In91 O98 2.323 1_545 S
In91 O99 2.264 1_545 S
In91 O100 2.325 1_545 S
In91 O102 2.293 1_545 S
In91 O103 2.327 . S
O92 In91 2.297 . S
O92 C101 1.240 . S
O93 In91 2.329 . S
O93 C101 1.252 . S
C94 O97 1.252 . S
C94 O98 1.260 . S
C95 O102 1.240 1_545 S
C95 O103 1.252 . S
C96 O99 1.252 . S
C96 O100 1.260 . S
O97 In91 2.266 1_565 S
O97 C94 1.252 . S
O98 In91 2.323 1_565 S
O98 C94 1.260 . S
O99 In91 2.264 1_565 S
O99 C96 1.252 . S
O100 In91 2.325 1_565 S
O100 C96 1.260 . S
C101 O92 1.240 . S
C101 O93 1.252 . S
O102 In91 2.293 1_565 S
O102 C95 1.240 1_565 S
O103 In91 2.327 . S
O103 C95 1.252 . S
C104 C105 1.349 1_455 S
C104 C106 1.327 . S
C104 H129 0.950 . S
C105 C104 1.349 1_655 S
C105 C121 1.349 . S
C106 C104 1.327 . S
C106 C125 1.429 1_455 S
C106 H130 0.950 . S
C107 C124 1.574 . S
C107 C126 1.372 1_554 S
C107 H131 0.949 . S
H108 C112 0.949 . S
C109 C110 1.349 1_655 S
C109 C111 1.327 . S
C109 H132 0.950 . S
C110 C109 1.349 1_455 S
C110 C122 1.349 . S
C111 C109 1.327 . S
C111 C127 1.423 1_655 S
C111 H133 0.950 . S
C112 H108 0.949 . S
C112 C120 1.574 . S
C112 C128 1.370 1_556 S
H113 C121 0.950 . S
H114 C119 0.950 . S
H115 C120 0.949 . S
H116 C122 0.950 . S
H117 C123 0.950 . S
H118 C124 0.949 . S
C119 H114 0.950 . S
C119 C121 1.327 . S
C119 C125 1.429 . S
C120 C112 1.574 . S
C120 H115 0.949 . S
C120 C126 1.365 1_455 S
C121 C105 1.349 . S
C121 H113 0.950 . S
C121 C119 1.327 . S
C122 C110 1.349 . S
C122 H116 0.950 . S
C122 C123 1.327 . S
C123 H117 0.950 . S
C123 C122 1.327 . S
C123 C127 1.435 . S
C124 C107 1.574 . S
C124 H118 0.949 . S
C124 C128 1.366 1_655 S
C125 C106 1.429 1_655 S
C125 C119 1.429 . S
C125 C126 1.523 . S
C126 C107 1.372 1_556 S
C126 C120 1.365 1_655 S
C126 C125 1.523 . S
C127 C111 1.423 1_455 S
C127 C123 1.435 . S
C127 C128 1.523 . S
C128 C112 1.370 1_554 S
C128 C124 1.366 1_455 S
C128 C127 1.523 . S
H129 C104 0.950 . S
H130 C106 0.950 . S
H131 C107 0.949 . S
H132 C109 0.950 . S
H133 C111 0.950 . S
C134 C135 1.349 . S
C134 C136 1.327 . S
C134 H159 0.950 . S
C135 C134 1.349 . S
C135 C151 1.349 . S
C136 C134 1.327 . S
C136 C155 1.429 . S
C136 H160 0.950 . S
C137 C154 1.574 . S
C137 C156 1.368 . S
C137 H161 0.949 . S
H138 C142 0.949 . S
C139 C140 1.349 . S
C139 C141 1.327 . S
C139 H162 0.950 . S
C140 C139 1.349 . S
C140 C152 1.349 . S
C141 C139 1.327 . S
C141 C157 1.429 . S
C141 H163 0.950 . S
C142 H138 0.949 . S
C142 C150 1.574 . S
C142 C158 1.368 . S
H143 C151 0.950 . S
H144 C149 0.950 . S
H145 C150 0.949 . S
H146 C152 0.950 . S
H147 C153 0.950 . S
H148 C154 0.949 . S
C149 H144 0.950 . S
C149 C151 1.327 . S
C149 C155 1.429 . S
C150 C142 1.574 . S
C150 H145 0.949 . S
C150 C156 1.368 . S
C151 C135 1.349 . S
C151 H143 0.950 . S
C151 C149 1.327 . S
C152 C140 1.349 . S
C152 H146 0.950 . S
C152 C153 1.327 . S
C153 H147 0.950 . S
C153 C152 1.327 . S
C153 C157 1.429 . S
C154 C137 1.574 . S
C154 H148 0.949 . S
C154 C158 1.368 . S
C155 C136 1.429 . S
C155 C149 1.429 . S
C155 C156 1.523 . S
C156 C137 1.368 . S
C156 C150 1.368 . S
C156 C155 1.523 . S
C157 C141 1.429 . S
C157 C153 1.429 . S
C157 C158 1.523 . S
C158 C142 1.368 . S
C158 C154 1.368 . S
C158 C157 1.523 . S
H159 C134 0.950 . S
H160 C136 0.950 . S
H161 C137 0.949 . S
H162 C139 0.950 . S
H163 C141 0.950 . S
C164 C165 1.349 . S
C164 C166 1.327 . S
C164 H189 0.950 . S
C165 C164 1.349 . S
C165 C181 1.349 . S
C166 C164 1.327 . S
C166 C185 1.429 . S
C166 H190 0.950 . S
C167 C184 1.574 1_565 S
C167 C186 1.368 1_556 S
C167 H191 0.949 . S
H168 C172 0.949 . S
C169 C170 1.349 . S
C169 C171 1.327 . S
C169 H192 0.950 . S
C170 C169 1.349 . S
C170 C182 1.349 . S
C171 C169 1.327 . S
C171 C187 1.429 . S
C171 H193 0.950 . S
C172 H168 0.949 . S
C172 C180 1.574 1_545 S
C172 C188 1.368 1_554 S
H173 C181 0.950 . S
H174 C179 0.950 . S
H175 C180 0.949 . S
H176 C182 0.950 . S
H177 C183 0.950 . S
H178 C184 0.949 . S
C179 H174 0.950 . S
C179 C181 1.327 . S
C179 C185 1.429 . S
C180 C172 1.574 1_565 S
C180 H175 0.949 . S
C180 C186 1.368 . S
C181 C165 1.349 . S
C181 H173 0.950 . S
C181 C179 1.327 . S
C182 C170 1.349 . S
C182 H176 0.950 . S
C182 C183 1.327 . S
C183 H177 0.950 . S
C183 C182 1.327 . S
C183 C187 1.429 . S
C184 C167 1.574 1_545 S
C184 H178 0.949 . S
C184 C188 1.368 . S
C185 C166 1.429 . S
C185 C179 1.429 . S
C185 C186 1.523 . S
C186 C167 1.368 1_554 S
C186 C180 1.368 . S
C186 C185 1.523 . S
C187 C171 1.429 . S
C187 C183 1.429 . S
C187 C188 1.523 . S
C188 C172 1.368 1_556 S
C188 C184 1.368 . S
C188 C187 1.523 . S
H189 C164 0.950 . S
H190 C166 0.950 . S
H191 C167 0.949 . S
H192 C169 0.950 . S
H193 C171 0.950 . S
C194 C195 1.349 1_565 S
C194 C196 1.327 . S
C194 H219 0.950 . S
C195 C194 1.349 1_545 S
C195 C211 1.349 . S
C196 C194 1.327 . S
C196 C215 1.429 1_565 S
C196 H220 0.950 . S
C197 C214 1.574 1_655 S
C197 C216 1.383 . S
C197 H221 0.949 . S
H198 C202 0.949 . S
C199 C200 1.349 1_545 S
C199 C201 1.327 . S
C199 H222 0.950 . S
C200 C199 1.349 1_565 S
C200 C212 1.349 . S
C201 C199 1.327 . S
C201 C217 1.429 1_545 S
C201 H223 0.950 . S
C202 H198 0.949 . S
C202 C210 1.574 1_455 S
C202 C218 1.377 . S
H203 C211 0.950 . S
H204 C209 0.950 . S
H205 C210 0.949 . S
H206 C212 0.950 . S
H207 C213 0.950 . S
H208 C214 0.949 . S
C209 H204 0.950 . S
C209 C211 1.327 . S
C209 C215 1.429 . S
C210 C202 1.574 1_655 S
C210 H205 0.949 . S
C210 C216 1.354 1_565 S
C211 C195 1.349 . S
C211 H203 0.950 . S
C211 C209 1.327 . S
C212 C200 1.349 . S
C212 H206 0.950 . S
C212 C213 1.327 . S
C213 H207 0.950 . S
C213 C212 1.327 . S
C213 C217 1.429 . S
C214 C197 1.574 1_455 S
C214 H208 0.949 . S
C214 C218 1.359 1_545 S
C215 C196 1.429 1_545 S
C215 C209 1.429 . S
C215 C216 1.523 . S
C216 C197 1.383 . S
C216 C210 1.354 1_545 S
C216 C215 1.523 . S
C217 C201 1.429 1_565 S
C217 C213 1.429 . S
C217 C218 1.523 . S
C218 C202 1.377 . S
C218 C214 1.359 1_565 S
C218 C217 1.523 . S
H219 C194 0.950 . S
H220 C196 0.950 . S
H221 C197 0.949 . S
H222 C199 0.950 . S
H223 C201 0.950 . S
C224 C225 1.349 . S
C224 C226 1.327 . S
C224 H249 0.950 . S
C225 C224 1.349 . S
C225 C241 1.349 . S
C226 C224 1.327 . S
C226 C245 1.429 . S
C226 H250 0.950 . S
C227 C244 1.574 . S
C227 C246 1.368 . S
C227 H251 0.949 . S
H228 C232 0.949 . S
C229 C230 1.349 . S
C229 C231 1.327 . S
C229 H252 0.950 . S
C230 C229 1.349 . S
C230 C242 1.349 . S
C231 C229 1.327 . S
C231 C247 1.429 . S
C231 H253 0.950 . S
C232 H228 0.949 . S
C232 C240 1.574 . S
C232 C248 1.368 . S
H233 C241 0.950 . S
H234 C239 0.950 . S
H235 C240 0.949 . S
H236 C242 0.950 . S
H237 C243 0.950 . S
H238 C244 0.949 . S
C239 H234 0.950 . S
C239 C241 1.327 . S
C239 C245 1.429 . S
C240 C232 1.574 . S
C240 H235 0.949 . S
C240 C246 1.368 . S
C241 C225 1.349 . S
C241 H233 0.950 . S
C241 C239 1.327 . S
C242 C230 1.349 . S
C242 H236 0.950 . S
C242 C243 1.327 . S
C243 H237 0.950 . S
C243 C242 1.327 . S
C243 C247 1.429 . S
C244 C227 1.574 . S
C244 H238 0.949 . S
C244 C248 1.368 . S
C245 C226 1.429 . S
C245 C239 1.429 . S
C245 C246 1.523 . S
C246 C227 1.368 . S
C246 C240 1.368 . S
C246 C245 1.523 . S
C247 C231 1.429 . S
C247 C243 1.429 . S
C247 C248 1.523 . S
C248 C232 1.368 . S
C248 C244 1.368 . S
C248 C247 1.523 . S
H249 C224 0.950 . S
H250 C226 0.950 . S
H251 C227 0.949 . S
H252 C229 0.950 . S
H253 C231 0.950 . S
C254 C255 1.349 . S
C254 C256 1.327 . S
C254 H279 0.950 . S
C255 C254 1.349 . S
C255 C271 1.349 . S
C256 C254 1.327 . S
C256 C275 1.429 . S
C256 H280 0.950 . S
C257 C274 1.574 . S
C257 C276 1.368 . S
C257 H281 0.949 . S
H258 C262 0.949 . S
C259 C260 1.349 . S
C259 C261 1.327 . S
C259 H282 0.950 . S
C260 C259 1.349 . S
C260 C272 1.349 . S
C261 C259 1.327 . S
C261 C277 1.429 . S
C261 H283 0.950 . S
C262 H258 0.949 . S
C262 C270 1.574 . S
C262 C278 1.368 . S
H263 C271 0.950 . S
H264 C269 0.950 . S
H265 C270 0.949 . S
H266 C272 0.950 . S
H267 C273 0.950 . S
H268 C274 0.949 . S
C269 H264 0.950 . S
C269 C271 1.327 . S
C269 C275 1.429 . S
C270 C262 1.574 . S
C270 H265 0.949 . S
C270 C276 1.368 . S
C271 C255 1.349 . S
C271 H263 0.950 . S
C271 C269 1.327 . S
C272 C260 1.349 . S
C272 H266 0.950 . S
C272 C273 1.327 . S
C273 H267 0.950 . S
C273 C272 1.327 . S
C273 C277 1.429 . S
C274 C257 1.574 . S
C274 H268 0.949 . S
C274 C278 1.368 . S
C275 C256 1.429 . S
C275 C269 1.429 . S
C275 C276 1.523 . S
C276 C257 1.368 . S
C276 C270 1.368 . S
C276 C275 1.523 . S
C277 C261 1.429 . S
C277 C273 1.429 . S
C277 C278 1.523 . S
C278 C262 1.368 . S
C278 C274 1.368 . S
C278 C277 1.523 . S
H279 C254 0.950 . S
H280 C256 0.950 . S
H281 C257 0.949 . S
H282 C259 0.950 . S
H283 C261 0.950 . S
C284 C285 1.349 . S
C284 C286 1.327 . S
C284 H309 0.950 . S
C285 C284 1.349 . S
C285 C301 1.349 . S
C286 C284 1.327 . S
C286 C305 1.429 . S
C286 H310 0.950 . S
C287 C304 1.574 . S
C287 C306 1.368 . S
C287 H311 0.949 . S
H288 C292 0.949 . S
C289 C290 1.349 . S
C289 C291 1.327 . S
C289 H312 0.950 . S
C290 C289 1.349 . S
C290 C302 1.349 . S
C291 C289 1.327 . S
C291 C307 1.429 . S
C291 H313 0.950 . S
C292 H288 0.949 . S
C292 C300 1.574 . S
C292 C308 1.368 . S
H293 C301 0.950 . S
H294 C299 0.950 . S
H295 C300 0.949 . S
H296 C302 0.950 . S
H297 C303 0.950 . S
H298 C304 0.949 . S
C299 H294 0.950 . S
C299 C301 1.327 . S
C299 C305 1.429 . S
C300 C292 1.574 . S
C300 H295 0.949 . S
C300 C306 1.368 . S
C301 C285 1.349 . S
C301 H293 0.950 . S
C301 C299 1.327 . S
C302 C290 1.349 . S
C302 H296 0.950 . S
C302 C303 1.327 . S
C303 H297 0.950 . S
C303 C302 1.327 . S
C303 C307 1.429 . S
C304 C287 1.574 . S
C304 H298 0.949 . S
C304 C308 1.368 . S
C305 C286 1.429 . S
C305 C299 1.429 . S
C305 C306 1.523 . S
C306 C287 1.368 . S
C306 C300 1.368 . S
C306 C305 1.523 . S
C307 C291 1.429 . S
C307 C303 1.429 . S
C307 C308 1.523 . S
C308 C292 1.368 . S
C308 C304 1.368 . S
C308 C307 1.523 . S
H309 C284 0.950 . S
H310 C286 0.950 . S
H311 C287 0.949 . S
H312 C289 0.950 . S
H313 C291 0.950 . S
C314 C315 1.349 . S
C314 C316 1.327 . S
C314 H339 0.950 . S
C315 C314 1.349 . S
C315 C331 1.349 . S
C316 C314 1.327 . S
C316 C335 1.429 . S
C316 H340 0.950 . S
C317 C334 1.574 . S
C317 C336 1.368 . S
C317 H341 0.949 . S
H318 C322 0.949 . S
C319 C320 1.349 . S
C319 C321 1.327 . S
C319 H342 0.950 . S
C320 C319 1.349 . S
C320 C332 1.349 . S
C321 C319 1.327 . S
C321 C337 1.429 . S
C321 H343 0.950 . S
C322 H318 0.949 . S
C322 C330 1.574 . S
C322 C338 1.368 . S
H323 C331 0.950 . S
H324 C329 0.950 . S
H325 C330 0.949 . S
H326 C332 0.950 . S
H327 C333 0.950 . S
H328 C334 0.949 . S
C329 H324 0.950 . S
C329 C331 1.327 . S
C329 C335 1.429 . S
C330 C322 1.574 . S
C330 H325 0.949 . S
C330 C336 1.368 . S
C331 C315 1.349 . S
C331 H323 0.950 . S
C331 C329 1.327 . S
C332 C320 1.349 . S
C332 H326 0.950 . S
C332 C333 1.327 . S
C333 H327 0.950 . S
C333 C332 1.327 . S
C333 C337 1.429 . S
C334 C317 1.574 . S
C334 H328 0.949 . S
C334 C338 1.368 . S
C335 C316 1.429 . S
C335 C329 1.429 . S
C335 C336 1.523 . S
C336 C317 1.368 . S
C336 C330 1.368 . S
C336 C335 1.523 . S
C337 C321 1.429 . S
C337 C333 1.429 . S
C337 C338 1.523 . S
C338 C322 1.368 . S
C338 C334 1.368 . S
C338 C337 1.523 . S
H339 C314 0.950 . S
H340 C316 0.950 . S
H341 C317 0.949 . S
H342 C319 0.950 . S
H343 C321 0.950 . S
C344 C345 1.349 . S
C344 C346 1.327 . S
C344 H369 0.950 . S
C345 C344 1.349 . S
C345 C361 1.349 . S
C346 C344 1.327 . S
C346 C365 1.429 . S
C346 H370 0.950 . S
C347 C364 1.574 . S
C347 C366 1.368 . S
C347 H371 0.949 . S
H348 C352 0.949 . S
C349 C350 1.349 . S
C349 C351 1.327 . S
C349 H372 0.950 . S
C350 C349 1.349 . S
C350 C362 1.349 . S
C351 C349 1.327 . S
C351 C367 1.429 . S
C351 H373 0.950 . S
C352 H348 0.949 . S
C352 C360 1.574 . S
C352 C368 1.368 . S
H353 C361 0.950 . S
H354 C359 0.950 . S
H355 C360 0.949 . S
H356 C362 0.950 . S
H357 C363 0.950 . S
H358 C364 0.949 . S
C359 H354 0.950 . S
C359 C361 1.327 . S
C359 C365 1.429 . S
C360 C352 1.574 . S
C360 H355 0.949 . S
C360 C366 1.368 . S
C361 C345 1.349 . S
C361 H353 0.950 . S
C361 C359 1.327 . S
C362 C350 1.349 . S
C362 H356 0.950 . S
C362 C363 1.327 . S
C363 H357 0.950 . S
C363 C362 1.327 . S
C363 C367 1.429 . S
C364 C347 1.574 . S
C364 H358 0.949 . S
C364 C368 1.368 . S
C365 C346 1.429 . S
C365 C359 1.429 . S
C365 C366 1.523 . S
C366 C347 1.368 . S
C366 C360 1.368 . S
C366 C365 1.523 . S
C367 C351 1.429 . S
C367 C363 1.429 . S
C367 C368 1.523 . S
C368 C352 1.368 . S
C368 C364 1.368 . S
C368 C367 1.523 . S
H369 C344 0.950 . S
H370 C346 0.950 . S
H371 C347 0.949 . S
H372 C349 0.950 . S
H373 C351 0.950 . S
C374 C375 1.349 . S
C374 C376 1.327 . S
C374 H399 0.950 . S
C375 C374 1.349 . S
C375 C391 1.349 . S
C376 C374 1.327 . S
C376 C395 1.429 . S
C376 H400 0.950 . S
C377 C394 1.574 . S
C377 C396 1.368 . S
C377 H401 0.949 . S
H378 C382 0.949 . S
C379 C380 1.349 . S
C379 C381 1.327 . S
C379 H402 0.950 . S
C380 C379 1.349 . S
C380 C392 1.349 . S
C381 C379 1.327 . S
C381 C397 1.429 . S
C381 H403 0.950 . S
C382 H378 0.949 . S
C382 C390 1.574 . S
C382 C398 1.368 . S
H383 C391 0.950 . S
H384 C389 0.950 . S
H385 C390 0.949 . S
H386 C392 0.950 . S
H387 C393 0.950 . S
H388 C394 0.949 . S
C389 H384 0.950 . S
C389 C391 1.327 . S
C389 C395 1.429 . S
C390 C382 1.574 . S
C390 H385 0.949 . S
C390 C396 1.368 . S
C391 C375 1.349 . S
C391 H383 0.950 . S
C391 C389 1.327 . S
C392 C380 1.349 . S
C392 H386 0.950 . S
C392 C393 1.327 . S
C393 H387 0.950 . S
C393 C392 1.327 . S
C393 C397 1.429 . S
C394 C377 1.574 . S
C394 H388 0.949 . S
C394 C398 1.368 . S
C395 C376 1.429 . S
C395 C389 1.429 . S
C395 C396 1.523 . S
C396 C377 1.368 . S
C396 C390 1.368 . S
C396 C395 1.523 . S
C397 C381 1.429 . S
C397 C393 1.429 . S
C397 C398 1.523 . S
C398 C382 1.368 . S
C398 C394 1.368 . S
C398 C397 1.523 . S
H399 C374 0.950 . S
H400 C376 0.950 . S
H401 C377 0.949 . S
H402 C379 0.950 . S
H403 C381 0.950 . S
C404 C405 1.349 . S
C404 C406 1.327 . S
C404 H429 0.950 . S
C405 C404 1.349 . S
C405 C421 1.349 . S
C406 C404 1.327 . S
C406 C425 1.429 . S
C406 H430 0.950 . S
C407 C424 1.574 . S
C407 C426 1.368 . S
C407 H431 0.949 . S
H408 C412 0.949 . S
C409 C410 1.349 . S
C409 C411 1.327 . S
C409 H432 0.950 . S
C410 C409 1.349 . S
C410 C422 1.349 . S
C411 C409 1.327 . S
C411 C427 1.429 . S
C411 H433 0.950 . S
C412 H408 0.949 . S
C412 C420 1.574 . S
C412 C428 1.368 . S
H413 C421 0.950 . S
H414 C419 0.950 . S
H415 C420 0.949 . S
H416 C422 0.950 1_545 S
H417 C423 0.950 . S
H418 C424 0.949 . S
C419 H414 0.950 . S
C419 C421 1.327 . S
C419 C425 1.429 . S
C420 C412 1.574 . S
C420 H415 0.949 . S
C420 C426 1.368 . S
C421 C405 1.349 . S
C421 H413 0.950 . S
C421 C419 1.327 . S
C422 C410 1.349 . S
C422 H416 0.950 1_565 S
C422 C423 1.327 . S
C423 H417 0.950 . S
C423 C422 1.327 . S
C423 C427 1.429 . S
C424 C407 1.574 . S
C424 H418 0.949 . S
C424 C428 1.368 . S
C425 C406 1.429 . S
C425 C419 1.429 . S
C425 C426 1.523 . S
C426 C407 1.368 . S
C426 C420 1.368 . S
C426 C425 1.523 . S
C427 C411 1.429 . S
C427 C423 1.429 . S
C427 C428 1.523 . S
C428 C412 1.368 . S
C428 C424 1.368 . S
C428 C427 1.523 . S
H429 C404 0.950 . S
H430 C406 0.950 . S
H431 C407 0.949 . S
H432 C409 0.950 . S
H433 C411 0.950 . S
C434 C435 1.349 . S
C434 C436 1.327 . S
C434 H459 0.950 . S
C435 C434 1.349 . S
C435 C451 1.349 . S
C436 C434 1.327 . S
C436 C455 1.429 . S
C436 H460 0.950 . S
C437 C454 1.574 . S
C437 C456 1.368 . S
C437 H461 0.949 . S
H438 C442 0.949 . S
C439 C440 1.349 . S
C439 C441 1.327 . S
C439 H462 0.950 . S
C440 C439 1.349 . S
C440 C452 1.349 . S
C441 C439 1.327 . S
C441 C457 1.429 . S
C441 H463 0.950 . S
C442 H438 0.949 . S
C442 C450 1.574 . S
C442 C458 1.368 . S
H443 C451 0.950 1_655 S
H444 C449 0.950 . S
H445 C450 0.949 . S
H446 C452 0.950 . S
H447 C453 0.950 . S
H448 C454 0.949 . S
C449 H444 0.950 . S
C449 C451 1.327 . S
C449 C455 1.429 . S
C450 C442 1.574 . S
C450 H445 0.949 . S
C450 C456 1.368 . S
C451 C435 1.349 . S
C451 H443 0.950 1_455 S
C451 C449 1.327 . S
C452 C440 1.349 . S
C452 H446 0.950 . S
C452 C453 1.327 . S
C453 H447 0.950 . S
C453 C452 1.327 . S
C453 C457 1.429 . S
C454 C437 1.574 . S
C454 H448 0.949 . S
C454 C458 1.368 . S
C455 C436 1.429 . S
C455 C449 1.429 . S
C455 C456 1.523 . S
C456 C437 1.368 . S
C456 C450 1.368 . S
C456 C455 1.523 . S
C457 C441 1.429 . S
C457 C453 1.429 . S
C457 C458 1.523 . S
C458 C442 1.368 . S
C458 C454 1.368 . S
C458 C457 1.523 . S
H459 C434 0.950 . S
H460 C436 0.950 . S
H461 C437 0.949 . S
H462 C439 0.950 . S
H463 C441 0.950 . S
C464 C465 1.349 . S
C464 C466 1.327 . S
C464 H489 0.950 . S
C465 C464 1.349 . S
C465 C481 1.349 . S
C466 C464 1.327 . S
C466 C485 1.429 . S
C466 H490 0.950 . S
C467 C484 1.574 . S
C467 C486 1.368 . S
C467 H491 0.949 . S
H468 C472 0.949 . S
C469 C470 1.349 . S
C469 C471 1.327 . S
C469 H492 0.950 . S
C470 C469 1.349 . S
C470 C482 1.349 . S
C471 C469 1.327 . S
C471 C487 1.429 . S
C471 H493 0.950 . S
C472 H468 0.949 . S
C472 C480 1.574 . S
C472 C488 1.368 . S
H473 C481 0.950 . S
H474 C479 0.950 . S
H475 C480 0.949 . S
H476 C482 0.950 . S
H477 C483 0.950 . S
H478 C484 0.949 . S
C479 H474 0.950 . S
C479 C481 1.327 . S
C479 C485 1.429 . S
C480 C472 1.574 . S
C480 H475 0.949 . S
C480 C486 1.368 . S
C481 C465 1.349 . S
C481 H473 0.950 . S
C481 C479 1.327 . S
C482 C470 1.349 . S
C482 H476 0.950 . S
C482 C483 1.327 . S
C483 H477 0.950 . S
C483 C482 1.327 . S
C483 C487 1.429 . S
C484 C467 1.574 . S
C484 H478 0.949 . S
C484 C488 1.368 . S
C485 C466 1.429 . S
C485 C479 1.429 . S
C485 C486 1.523 . S
C486 C467 1.368 . S
C486 C480 1.368 . S
C486 C485 1.523 . S
C487 C471 1.429 . S
C487 C483 1.429 . S
C487 C488 1.523 . S
C488 C472 1.368 . S
C488 C484 1.368 . S
C488 C487 1.523 . S
H489 C464 0.950 . S
H490 C466 0.950 . S
H491 C467 0.949 . S
H492 C469 0.950 . S
H493 C471 0.950 . S
C494 C495 1.349 . S
C494 C496 1.327 . S
C494 H519 0.950 . S
C495 C494 1.349 . S
C495 C511 1.349 . S
C496 C494 1.327 . S
C496 C515 1.429 . S
C496 H520 0.950 . S
C497 C514 1.574 . S
C497 C516 1.368 . S
C497 H521 0.949 . S
H498 C502 0.949 . S
C499 C500 1.349 . S
C499 C501 1.327 . S
C499 H522 0.950 . S
C500 C499 1.349 . S
C500 C512 1.349 . S
C501 C499 1.327 . S
C501 C517 1.429 . S
C501 H523 0.950 . S
C502 H498 0.949 . S
C502 C510 1.574 . S
C502 C518 1.368 . S
H503 C511 0.950 . S
H504 C509 0.950 . S
H505 C510 0.949 . S
H506 C512 0.950 . S
H507 C513 0.950 . S
H508 C514 0.949 . S
C509 H504 0.950 . S
C509 C511 1.327 . S
C509 C515 1.429 . S
C510 C502 1.574 . S
C510 H505 0.949 . S
C510 C516 1.368 . S
C511 C495 1.349 . S
C511 H503 0.950 . S
C511 C509 1.327 . S
C512 C500 1.349 . S
C512 H506 0.950 . S
C512 C513 1.327 . S
C513 H507 0.950 . S
C513 C512 1.327 . S
C513 C517 1.429 . S
C514 C497 1.574 . S
C514 H508 0.949 . S
C514 C518 1.368 . S
C515 C496 1.429 . S
C515 C509 1.429 . S
C515 C516 1.523 . S
C516 C497 1.368 . S
C516 C510 1.368 . S
C516 C515 1.523 . S
C517 C501 1.429 . S
C517 C513 1.429 . S
C517 C518 1.523 . S
C518 C502 1.368 . S
C518 C514 1.368 . S
C518 C517 1.523 . S
H519 C494 0.950 . S
H520 C496 0.950 . S
H521 C497 0.949 . S
H522 C499 0.950 . S
H523 C501 0.950 . S
C524 C525 1.349 . S
C524 C526 1.327 . S
C524 H549 0.950 . S
C525 C524 1.349 . S
C525 C541 1.349 . S
C526 C524 1.327 . S
C526 C545 1.429 . S
C526 H550 0.950 . S
C527 C544 1.574 . S
C527 C546 1.368 . S
C527 H551 0.949 . S
H528 C532 0.949 . S
C529 C530 1.349 . S
C529 C531 1.327 . S
C529 H552 0.950 . S
C530 C529 1.349 . S
C530 C542 1.349 . S
C531 C529 1.327 . S
C531 C547 1.429 . S
C531 H553 0.950 . S
C532 H528 0.949 . S
C532 C540 1.574 . S
C532 C548 1.368 . S
H533 C541 0.950 . S
H534 C539 0.950 . S
H535 C540 0.949 . S
H536 C542 0.950 . S
H537 C543 0.950 . S
H538 C544 0.949 . S
C539 H534 0.950 . S
C539 C541 1.327 . S
C539 C545 1.429 . S
C540 C532 1.574 . S
C540 H535 0.949 . S
C540 C546 1.368 . S
C541 C525 1.349 . S
C541 H533 0.950 . S
C541 C539 1.327 . S
C542 C530 1.349 . S
C542 H536 0.950 . S
C542 C543 1.327 . S
C543 H537 0.950 . S
C543 C542 1.327 . S
C543 C547 1.429 . S
C544 C527 1.574 . S
C544 H538 0.949 . S
C544 C548 1.368 . S
C545 C526 1.429 . S
C545 C539 1.429 . S
C545 C546 1.523 . S
C546 C527 1.368 . S
C546 C540 1.368 . S
C546 C545 1.523 . S
C547 C531 1.429 . S
C547 C543 1.429 . S
C547 C548 1.523 . S
C548 C532 1.368 . S
C548 C544 1.368 . S
C548 C547 1.523 . S
H549 C524 0.950 . S
H550 C526 0.950 . S
H551 C527 0.949 . S
H552 C529 0.950 . S
H553 C531 0.950 . S
C554 C555 1.349 . S
C554 C556 1.327 . S
C554 H579 0.931 1_655 S
C555 C554 1.349 . S
C555 C571 1.349 . S
C556 C554 1.327 . S
C556 C575 1.429 . S
C556 H580 0.950 . S
C557 C574 1.574 . S
C557 C576 1.368 . S
C557 H581 0.949 . S
H558 C562 0.949 . S
C559 C560 1.349 . S
C559 C561 1.327 . S
C559 H582 0.950 . S
C560 C559 1.349 . S
C560 C572 1.349 . S
C561 C559 1.327 . S
C561 C577 1.429 . S
C561 H583 0.950 . S
C562 H558 0.949 . S
C562 C570 1.574 . S
C562 C578 1.368 . S
H563 C571 0.950 . S
H564 C569 0.950 . S
H565 C570 0.949 . S
H566 C572 0.950 . S
H567 C573 0.950 . S
H568 C574 0.949 . S
C569 H564 0.950 . S
C569 C571 1.327 . S
C569 C575 1.429 . S
C570 C562 1.574 . S
C570 H565 0.949 . S
C570 C576 1.368 . S
C571 C555 1.349 . S
C571 H563 0.950 . S
C571 C569 1.327 . S
C572 C560 1.349 . S
C572 H566 0.950 . S
C572 C573 1.327 . S
C573 H567 0.950 . S
C573 C572 1.327 . S
C573 C577 1.429 . S
C574 C557 1.574 . S
C574 H568 0.949 . S
C574 C578 1.368 . S
C575 C556 1.429 . S
C575 C569 1.429 . S
C575 C576 1.523 . S
C576 C557 1.368 . S
C576 C570 1.368 . S
C576 C575 1.523 . S
C577 C561 1.429 . S
C577 C573 1.429 . S
C577 C578 1.523 . S
C578 C562 1.368 . S
C578 C574 1.368 . S
C578 C577 1.523 . S
H579 C554 0.931 1_455 S
H580 C556 0.950 . S
H581 C557 0.949 . S
H582 C559 0.950 . S
H583 C561 0.950 . S
C105 C56 1.724 . S
C110 C10 1.725 . S
C135 C17 1.728 . S
C140 C69 1.728 . S
C165 C36 1.713 . S
C170 C88 1.713 . S
C195 C95 1.710 . S
C200 C43 1.710 . S
C225 C4 1.716 . S
C230 C30 1.713 . S
C255 C23 1.716 . S
C260 C49 1.712 . S
C285 C82 1.716 . S
C290 C62 1.713 . S
C315 C75 1.716 . S
C320 C101 1.712 . S
C345 C70 0.903 . S
C350 C5 0.921 . S
C375 C16 0.926 . S
C380 C81 0.911 . S
C405 C31 0.916 . S
C410 C96 0.903 . S
C435 C57 0.894 . S
C440 C42 0.911 . S
C465 C55 0.919 . S
C470 C18 0.907 . S
C495 C68 0.926 . S
C500 C29 0.911 . S
C525 C83 0.916 . S
C530 C44 0.903 . S
C555 C3 0.894 . S
C560 C94 0.911 . S
