# Generated by pormake.
# Topology bor-e, (5)-cn, num edge types: 1
# Building blocks:
#     Node 0, Type 0, BuildingBlock: BEQFEK_clean_sbu_0, # of connection points: 5
#     Node 1, Type 0, BuildingBlock: BEQFEK_clean_sbu_0, # of connection points: 5
#     Node 2, Type 0, BuildingBlock: BEQFEK_clean_sbu_0, # of connection points: 5
#     Node 3, Type 0, BuildingBlock: BEQFEK_clean_sbu_0, # of connection points: 5
#     Node 4, Type 0, BuildingBlock: BEQFEK_clean_sbu_0, # of connection points: 5
#     Node 5, Type 0, BuildingBlock: BEQFEK_clean_sbu_0, # of connection points: 5
#     Node 6, Type 0, BuildingBlock: BEQFEK_clean_sbu_0, # of connection points: 5
#     Node 7, Type 0, BuildingBlock: BEQFEK_clean_sbu_0, # of connection points: 5
#     Node 8, Type 0, BuildingBlock: BEQFEK_clean_sbu_0, # of connection points: 5
#     Node 9, Type 0, BuildingBlock: BEQFEK_clean_sbu_0, # of connection points: 5
#     Node 10, Type 0, BuildingBlock: BEQFEK_clean_sbu_0, # of connection points: 5
#     Node 11, Type 0, BuildingBlock: BEQFEK_clean_sbu_0, # of connection points: 5
#     Edge 12, Type (0, 0), BuildingBlock: CIFDUS_clean_linker_0, # of connection points: 2
#     Edge 13, Type (0, 0), BuildingBlock: CIFDUS_clean_linker_0, # of connection points: 2
#     Edge 14, Type (0, 0), BuildingBlock: CIFDUS_clean_linker_0, # of connection points: 2
#     Edge 15, Type (0, 0), BuildingBlock: CIFDUS_clean_linker_0, # of connection points: 2
#     Edge 16, Type (0, 0), BuildingBlock: CIFDUS_clean_linker_0, # of connection points: 2
#     Edge 17, Type (0, 0), BuildingBlock: CIFDUS_clean_linker_0, # of connection points: 2
#     Edge 18, Type (0, 0), BuildingBlock: CIFDUS_clean_linker_0, # of connection points: 2
#     Edge 19, Type (0, 0), BuildingBlock: CIFDUS_clean_linker_0, # of connection points: 2
#     Edge 20, Type (0, 0), BuildingBlock: CIFDUS_clean_linker_0, # of connection points: 2
#     Edge 21, Type (0, 0), BuildingBlock: CIFDUS_clean_linker_0, # of connection points: 2
#     Edge 22, Type (0, 0), BuildingBlock: CIFDUS_clean_linker_0, # of connection points: 2
#     Edge 23, Type (0, 0), BuildingBlock: CIFDUS_clean_linker_0, # of connection points: 2
#     Edge 24, Type (0, 0), BuildingBlock: CIFDUS_clean_linker_0, # of connection points: 2
#     Edge 25, Type (0, 0), BuildingBlock: CIFDUS_clean_linker_0, # of connection points: 2
#     Edge 26, Type (0, 0), BuildingBlock: CIFDUS_clean_linker_0, # of connection points: 2
#     Edge 27, Type (0, 0), BuildingBlock: CIFDUS_clean_linker_0, # of connection points: 2
#     Edge 28, Type (0, 0), BuildingBlock: CIFDUS_clean_linker_0, # of connection points: 2
#     Edge 29, Type (0, 0), BuildingBlock: CIFDUS_clean_linker_0, # of connection points: 2
#     Edge 30, Type (0, 0), BuildingBlock: CIFDUS_clean_linker_0, # of connection points: 2
#     Edge 31, Type (0, 0), BuildingBlock: CIFDUS_clean_linker_0, # of connection points: 2
#     Edge 32, Type (0, 0), BuildingBlock: CIFDUS_clean_linker_0, # of connection points: 2
#     Edge 33, Type (0, 0), BuildingBlock: CIFDUS_clean_linker_0, # of connection points: 2
#     Edge 34, Type (0, 0), BuildingBlock: CIFDUS_clean_linker_0, # of connection points: 2
#     Edge 35, Type (0, 0), BuildingBlock: CIFDUS_clean_linker_0, # of connection points: 2
#     Edge 36, Type (0, 0), BuildingBlock: CIFDUS_clean_linker_0, # of connection points: 2
#     Edge 37, Type (0, 0), BuildingBlock: CIFDUS_clean_linker_0, # of connection points: 2
#     Edge 38, Type (0, 0), BuildingBlock: CIFDUS_clean_linker_0, # of connection points: 2
#     Edge 39, Type (0, 0), BuildingBlock: CIFDUS_clean_linker_0, # of connection points: 2
#     Edge 40, Type (0, 0), BuildingBlock: CIFDUS_clean_linker_0, # of connection points: 2
#     Edge 41, Type (0, 0), BuildingBlock: CIFDUS_clean_linker_0, # of connection points: 2
# Relax obj value: 0.556
# Max RMSD: 0.277
# Mean RMSD: 0.277
data_MOF--net-bor-e--node1-BEQFEK_clean_sbu_0--edge1-CIFDUS_clean_linker_0
_symmetry_space_group_name_H-M    P1
_symmetry_Int_Tables_number       1
_symmetry_cell_setting            triclinic
loop_
_symmetry_equiv_pos_as_xyz
'x, y, z'
_cell_length_a     40.41448
_cell_length_b     40.484092
_cell_length_c     40.622379
_cell_angle_alpha  89.782991
_cell_angle_beta   89.81023
_cell_angle_gamma 90.050913
loop_
_atom_site_label
_atom_site_type_symbol
_atom_site_fract_x
_atom_site_fract_y
_atom_site_fract_z
_atom_type_partial_charge
Co0 Co 0.12036 0.11077 0.57084 0.0
Co1 Co 0.08743 0.15824 0.6206 0.0
C2 C 0.07606 0.16343 0.54738 0.0
O3 O 0.09579 0.13989 0.54081 0.0
O4 O 0.07076 0.17253 0.57688 0.0
C5 C 0.15892 0.07847 0.51819 0.0
O6 O 0.15803 0.10583 0.50072 0.0
C7 C 0.08993 0.2207 0.65451 0.0
C8 C 0.05471 0.21287 0.6955 0.0
C9 C 0.07766 0.23508 0.68288 0.0
N10 N 0.07554 0.19108 0.65105 0.0
N11 N 0.05398 0.18675 0.67518 0.0
C12 C 0.11488 0.23456 0.63087 0.0
H13 H 0.10949 0.22587 0.60557 0.0
H14 H 0.13996 0.22572 0.63744 0.0
H15 H 0.11481 0.26198 0.63157 0.0
C16 C 0.17923 0.12598 0.60808 0.0
N17 N 0.14831 0.1341 0.59909 0.0
N18 N 0.13402 0.15093 0.62278 0.0
C19 C 0.15495 0.1525 0.64853 0.0
C20 C 0.18436 0.13676 0.63999 0.0
C21 C 0.20013 0.10155 0.58984 0.0
H22 H 0.18957 0.07644 0.59312 0.0
H23 H 0.20031 0.10787 0.56329 0.0
H24 H 0.226 0.10133 0.59874 0.0
O25 O 0.08959 0.08363 0.59813 0.0
O26 O 0.06459 0.1174 0.63324 0.0
H27 H 0.11948 0.1531 0.68805 0.0
H28 H 0.16221 0.15411 0.70158 0.0
C29 C 0.14462 0.1627 0.68251 0.0
H30 H 0.14383 0.18996 0.68385 0.0
H31 H 0.03991 0.16538 0.67858 0.0
O32 O 0.14504 0.07737 0.5462 0.0
C33 C 0.06928 0.08871 0.62159 0.0
Co34 Co 0.10893 0.87561 0.41248 0.0
Co35 Co 0.06189 0.84373 0.36155 0.0
C36 C 0.0606 0.82556 0.43386 0.0
O37 O 0.08477 0.84435 0.44104 0.0
O38 O 0.04996 0.82352 0.40449 0.0
C39 C 0.15324 0.89669 0.46582 0.0
O40 O 0.14381 0.87101 0.48338 0.0
C41 C 0.05105 0.78813 0.31986 0.0
C42 C 0.01648 0.80738 0.28244 0.0
C43 C 0.03628 0.78038 0.29003 0.0
N44 N 0.04115 0.81839 0.32869 0.0
N45 N 0.01974 0.8295 0.30684 0.0
C46 C 0.07763 0.7696 0.33777 0.0
H47 H 0.08787 0.7845 0.35816 0.0
H48 H 0.0978 0.76259 0.32057 0.0
H49 H 0.067 0.7468 0.34871 0.0
C50 C 0.15869 0.8602 0.3632 0.0
N51 N 0.12825 0.85564 0.37586 0.0
N52 N 0.10823 0.84541 0.35262 0.0
C53 C 0.12516 0.8443 0.32399 0.0
C54 C 0.15774 0.85334 0.32989 0.0
C55 C 0.1861 0.87753 0.38081 0.0
H56 H 0.18033 0.90428 0.38232 0.0
H57 H 0.18837 0.86754 0.40617 0.0
H58 H 0.21001 0.87445 0.36764 0.0
O59 O 0.07862 0.91093 0.39675 0.0
O60 O 0.04421 0.88871 0.36046 0.0
H61 H 0.08456 0.8532 0.29108 0.0
H62 H 0.12468 0.85258 0.2712 0.0
C63 C 0.10924 0.84128 0.29087 0.0
H64 H 0.10606 0.81477 0.28492 0.0
H65 H 0.00925 0.85304 0.30736 0.0
O66 O 0.14205 0.90057 0.43696 0.0
C67 C 0.05467 0.91343 0.3766 0.0
Co68 Co 0.92883 0.88987 0.61667 0.0
Co69 Co 0.96473 0.85098 0.6723 0.0
C70 C 0.96924 0.83343 0.59909 0.0
O71 O 0.94837 0.85502 0.58973 0.0
O72 O 0.97738 0.83048 0.62926 0.0
C73 C 0.88538 0.92198 0.56625 0.0
O74 O 0.88146 0.8943 0.54994 0.0
C75 C 0.95729 0.7925 0.71084 0.0
C76 C 0.9905 0.79981 0.75322 0.0
C77 C 0.96611 0.77916 0.74093 0.0
N78 N 0.97489 0.82012 0.70587 0.0
N79 N -0.00476 0.82416 0.73093 0.0
C80 C 0.93181 0.77987 0.68731 0.0
H81 H 0.93857 0.78677 0.6617 0.0
H82 H 0.9075 0.79122 0.69291 0.0
H83 H 0.92933 0.75263 0.68943 0.0
C84 C 0.8718 0.88036 0.65909 0.0
N85 N 0.90313 0.87315 0.65074 0.0
N86 N 0.9187 0.86096 0.67634 0.0
C87 C 0.89795 0.86149 0.70246 0.0
C88 C 0.86754 0.87354 0.69218 0.0
C89 C 0.8473 0.89637 0.6366 0.0
H90 H 0.84909 0.88518 0.6118 0.0
H91 H 0.82166 0.89333 0.64604 0.0
H92 H 0.85286 0.92315 0.6346 0.0
O93 O 0.96443 0.91722 0.63576 0.0
O94 O 0.99095 0.89181 0.67649 0.0
H95 H 0.93546 0.8614 0.73997 0.0
H96 H 0.89461 0.87305 0.75418 0.0
C97 C 0.9086 0.85655 0.73739 0.0
H98 H 0.9034 0.83075 0.74487 0.0
H99 H 0.01096 0.84443 0.73369 0.0
O100 O 0.90333 0.92259 0.59177 0.0
C101 C 0.98644 0.91689 0.65808 0.0
Co102 Co 0.88481 0.1069 0.40617 0.0
Co103 Co 0.92823 0.14 0.3519 0.0
C104 C 0.93185 0.15905 0.42399 0.0
O105 O 0.90865 0.13969 0.4329 0.0
O106 O 0.94101 0.16091 0.39404 0.0
C107 C 0.852 0.08099 0.46382 0.0
O108 O 0.86575 0.10577 0.47949 0.0
C109 C 0.9322 0.19605 0.30898 0.0
C110 C 0.97026 0.18235 0.2724 0.0
C111 C 0.94716 0.20643 0.2801 0.0
N112 N 0.94522 0.16692 0.31767 0.0
N113 N 0.96844 0.15901 0.29613 0.0
C114 C 0.90529 0.21305 0.32786 0.0
H115 H 0.88084 0.20478 0.31874 0.0
H116 H 0.90701 0.24024 0.32461 0.0
H117 H 0.90685 0.20653 0.35436 0.0
C118 C 0.83278 0.11779 0.35884 0.0
N119 N 0.86305 0.1253 0.37018 0.0
N120 N 0.88182 0.13535 0.34564 0.0
C121 C 0.86444 0.13299 0.31751 0.0
C122 C 0.83271 0.12216 0.32505 0.0
C123 C 0.80719 0.09953 0.37843 0.0
H124 H 0.80588 0.10965 0.40374 0.0
H125 H 0.78251 0.10143 0.36665 0.0
H126 H 0.81416 0.07305 0.37992 0.0
O127 O 0.91651 0.07358 0.38921 0.0
O128 O 0.94867 0.0961 0.35063 0.0
H129 H 0.90521 0.12364 0.28474 0.0
H130 H 0.86492 0.12038 0.26559 0.0
C131 C 0.87986 0.13406 0.28391 0.0
H132 H 0.88158 0.16006 0.27557 0.0
H133 H 0.98195 0.13706 0.29679 0.0
O134 O 0.85479 0.07951 0.43279 0.0
C135 C 0.93977 0.07151 0.36812 0.0
Co136 Co 0.56594 0.1021 0.09971 0.0
Co137 Co 0.62449 0.06651 0.13357 0.0
C138 C 0.55213 0.05467 0.15196 0.0
O139 O 0.54123 0.07778 0.13367 0.0
O140 O 0.58292 0.04798 0.15304 0.0
C141 C 0.50862 0.14228 0.07806 0.0
O142 O 0.4936 0.13756 0.10642 0.0
C143 C 0.66457 0.06308 0.19154 0.0
C144 C 0.71124 0.04162 0.1731 0.0
C145 C 0.69723 0.05713 0.2002 0.0
N146 N 0.66015 0.05308 0.16045 0.0
N147 N 0.68776 0.03929 0.14981 0.0
C148 C 0.63812 0.07977 0.2113 0.0
H149 H 0.61383 0.06809 0.20633 0.0
H150 H 0.63632 0.10606 0.20371 0.0
H151 H 0.64345 0.07824 0.23804 0.0
C152 C 0.60799 0.15996 0.10926 0.0
N153 N 0.60001 0.12845 0.11649 0.0
N154 N 0.62556 0.11354 0.12979 0.0
C155 C 0.65099 0.13515 0.13098 0.0
C156 C 0.64073 0.1652 0.11785 0.0
C157 C 0.58705 0.18207 0.08829 0.0
H158 H 0.58538 0.17153 0.06319 0.0
H159 H 0.56179 0.18345 0.09889 0.0
H160 H 0.59728 0.20739 0.08634 0.0
O161 O 0.58452 0.06999 0.06778 0.0
O162 O 0.62974 0.04749 0.08923 0.0
H163 H 0.69345 0.1037 0.12681 0.0
H164 H 0.70346 0.14638 0.13563 0.0
C165 C 0.68564 0.12609 0.14038 0.0
H166 H 0.68641 0.12077 0.16705 0.0
H167 H 0.69132 0.03063 0.1259 0.0
O168 O 0.53669 0.12935 0.07275 0.0
C169 C 0.60951 0.05097 0.06553 0.0
Co170 Co 0.10664 0.42457 0.89724 0.0
Co171 Co 0.13786 0.36018 0.92453 0.0
C172 C 0.16425 0.42925 0.93946 0.0
O173 O 0.1444 0.44366 0.91983 0.0
O174 O 0.16316 0.39808 0.94431 0.0
C175 C 0.07777 0.48584 0.86428 0.0
O176 O 0.10382 0.5049 0.86783 0.0
C177 C 0.19028 0.31218 0.91903 0.0
C178 C 0.16758 0.26768 0.94122 0.0
C179 C 0.19495 0.27843 0.92344 0.0
N180 N 0.16107 0.32042 0.9324 0.0
N181 N 0.1479 0.29395 0.9463 0.0
C182 C 0.21245 0.33664 0.90216 0.0
H183 H 0.2057 0.33847 0.87578 0.0
H184 H 0.23876 0.3291 0.90422 0.0
H185 H 0.20913 0.36147 0.91311 0.0
C186 C 0.11385 0.39043 0.83469 0.0
N187 N 0.12016 0.39291 0.86703 0.0
N188 N 0.13143 0.36461 0.87821 0.0
C189 C 0.13151 0.34268 0.85327 0.0
C190 C 0.12067 0.35854 0.82491 0.0
C191 C 0.09808 0.41691 0.81434 0.0
H192 H 0.07145 0.41859 0.82079 0.0
H193 H 0.10997 0.441 0.81962 0.0
H194 H 0.1004 0.41151 0.78766 0.0
O195 O 0.07548 0.4052 0.9298 0.0
O196 O 0.09444 0.35669 0.94653 0.0
H197 H 0.12555 0.29834 0.88197 0.0
H198 H 0.12218 0.29223 0.83818 0.0
C199 C 0.13535 0.30611 0.85765 0.0
H200 H 0.16194 0.2996 0.85615 0.0
H201 H 0.12462 0.2934 0.95747 0.0
O202 O 0.07811 0.45639 0.87493 0.0
C203 C 0.07218 0.37882 0.94661 0.0
Co204 Co 0.42196 0.86049 0.08952 0.0
Co205 Co 0.36499 0.89408 0.12798 0.0
C206 C 0.43812 0.90322 0.14468 0.0
O207 O 0.44824 0.88185 0.12405 0.0
O208 O 0.40744 0.91005 0.14751 0.0
C209 C 0.47746 0.8229 0.05852 0.0
O210 O 0.49559 0.82458 0.08525 0.0
C211 C 0.32492 0.89464 0.18687 0.0
C212 C 0.28012 0.92123 0.17061 0.0
C213 C 0.29302 0.90295 0.19652 0.0
N214 N 0.32996 0.90631 0.15633 0.0
N215 N 0.30347 0.9229 0.14698 0.0
C216 C 0.35018 0.87507 0.20546 0.0
H217 H 0.34884 0.84879 0.19797 0.0
H218 H 0.34596 0.87687 0.23241 0.0
H219 H 0.37539 0.88411 0.19937 0.0
C220 C 0.37972 0.80238 0.09753 0.0
N221 N 0.38821 0.83333 0.10612 0.0
N222 N 0.36323 0.84755 0.12119 0.0
C223 C 0.33763 0.82616 0.1221 0.0
C224 C 0.3472 0.7969 0.10698 0.0
C225 C 0.39983 0.7813 0.07485 0.0
H226 H 0.39977 0.79246 0.04986 0.0
H227 H 0.42573 0.78023 0.08371 0.0
H228 H 0.38989 0.75583 0.07326 0.0
O229 O 0.40288 0.89527 0.06089 0.0
O230 O 0.35877 0.91671 0.08533 0.0
H231 H 0.29589 0.85889 0.12103 0.0
H232 H 0.28491 0.8158 0.12639 0.0
C233 C 0.30321 0.83517 0.13263 0.0
H234 H 0.30259 0.83814 0.15966 0.0
H235 H 0.3006 0.93366 0.12378 0.0
O236 O 0.44891 0.83579 0.05811 0.0
C237 C 0.37823 0.91479 0.06076 0.0
Co238 Co 0.85531 0.57836 0.89065 0.0
Co239 Co 0.81918 0.6307 0.93322 0.0
C240 C 0.79962 0.55792 0.93185 0.0
O241 O 0.8208 0.55022 0.90994 0.0
O242 O 0.79712 0.58748 0.94226 0.0
C243 C 0.88923 0.52366 0.85921 0.0
O244 O 0.86852 0.50383 0.87457 0.0
C245 C 0.76517 0.67684 0.93443 0.0
C246 C 0.77616 0.70832 0.97728 0.0
C247 C 0.75508 0.70505 0.95066 0.0
N248 N 0.79138 0.66429 0.9502 0.0
N249 N 0.79748 0.68273 0.97627 0.0
C250 C 0.7509 0.66258 0.90362 0.0
H251 H 0.7567 0.63584 0.902 0.0
H252 H 0.76174 0.67515 0.88183 0.0
H253 H 0.72371 0.66642 0.90306 0.0
C254 C 0.84757 0.62731 0.83959 0.0
N255 N 0.83844 0.61535 0.86915 0.0
N256 N 0.82782 0.6396 0.88778 0.0
C257 C 0.83176 0.66824 0.87108 0.0
C258 C 0.84391 0.66125 0.83989 0.0
C259 C 0.86508 0.60759 0.81378 0.0
H260 H 0.8916 0.60527 0.82035 0.0
H261 H 0.85413 0.5825 0.8123 0.0
H262 H 0.86335 0.61995 0.78939 0.0
O263 O 0.88628 0.59329 0.92558 0.0
O264 O 0.8614 0.63075 0.95687 0.0
H265 H 0.82895 0.70007 0.91373 0.0
H266 H 0.85664 0.71381 0.88175 0.0
C267 C 0.83251 0.70164 0.88679 0.0
H268 H 0.81312 0.71735 0.87558 0.0
H269 H 0.8173 0.67896 0.99226 0.0
O270 O 0.88521 0.55459 0.86122 0.0
C271 C 0.88659 0.61341 0.9496 0.0
Co272 Co 0.57576 0.89595 0.85561 0.0
Co273 Co 0.63372 0.94082 0.83276 0.0
C274 C 0.5647 0.93945 0.80053 0.0
O275 O 0.55405 0.91509 0.81741 0.0
O276 O 0.59371 0.95118 0.80501 0.0
C277 C 0.52227 0.84801 0.8764 0.0
O278 O 0.50444 0.85242 0.84977 0.0
C279 C 0.68783 0.94565 0.78682 0.0
C280 C 0.7182 0.98623 0.80678 0.0
C281 C 0.71783 0.96174 0.78303 0.0
N282 N 0.67156 0.95935 0.81211 0.0
N283 N 0.68948 0.98405 0.82361 0.0
C284 C 0.67477 0.91736 0.76706 0.0
H285 H 0.64731 0.91708 0.76787 0.0
H286 H 0.68376 0.89371 0.77748 0.0
H287 H 0.68354 0.91916 0.74118 0.0
C288 C 0.62609 0.84503 0.8511 0.0
N289 N 0.61576 0.87588 0.84458 0.0
N290 N 0.64146 0.89506 0.8394 0.0
C291 C 0.66922 0.87732 0.84467 0.0
C292 C 0.66026 0.84499 0.85172 0.0
C293 C 0.60378 0.81678 0.85971 0.0
H294 H 0.59766 0.81778 0.88629 0.0
H295 H 0.58056 0.8184 0.84532 0.0
H296 H 0.61612 0.79282 0.85466 0.0
O297 O 0.58286 0.93134 0.88905 0.0
O298 O 0.62729 0.96105 0.87599 0.0
H299 H 0.7013 0.91919 0.85289 0.0
H300 H 0.71394 0.88139 0.87285 0.0
C301 C 0.70272 0.89202 0.85027 0.0
H302 H 0.71913 0.88559 0.82941 0.0
H303 H 0.68295 -0.0018 0.84405 0.0
O304 O 0.54911 0.86375 0.88009 0.0
C305 C 0.6035 0.95425 0.89541 0.0
Co306 Co 0.86632 0.41522 0.10737 0.0
Co307 Co 0.83881 0.35928 0.06303 0.0
C308 C 0.80964 0.42903 0.06603 0.0
O309 O 0.82785 0.43868 0.08962 0.0
O310 O 0.81265 0.4001 0.05413 0.0
C311 C 0.88513 0.47009 0.15101 0.0
O312 O 0.85709 0.48491 0.14404 0.0
C313 C 0.78551 0.31292 0.05592 0.0
C314 C 0.80333 0.27895 0.01738 0.0
C315 C 0.77748 0.28378 0.03955 0.0
N316 N 0.81465 0.32392 0.04436 0.0
N317 N 0.82496 0.30397 0.02087 0.0
C318 C 0.76788 0.32925 0.08399 0.0
H319 H 0.78285 0.34965 0.09428 0.0
H320 H 0.76231 0.31102 0.10372 0.0
H321 H 0.7444 0.34015 0.07502 0.0
C322 C 0.86209 0.36338 0.15753 0.0
N323 N 0.85517 0.37507 0.12732 0.0
N324 N 0.84543 0.35065 0.10849 0.0
C325 C 0.84651 0.32232 0.12601 0.0
C326 C 0.85686 0.32961 0.15768 0.0
C327 C 0.87666 0.38359 0.18463 0.0
H328 H 0.86344 0.40752 0.1864 0.0
H329 H 0.87505 0.37046 0.20862 0.0
H330 H 0.90305 0.38871 0.17894 0.0
O331 O 0.89843 0.40748 0.07099 0.0
O332 O 0.88243 0.3641 0.04157 0.0
H333 H 0.85828 0.2702 0.12537 0.0
H334 H 0.81723 0.28065 0.11227 0.0
C335 C 0.84349 0.28855 0.11138 0.0
H336 H 0.8519 0.2888 0.08539 0.0
H337 H 0.84738 0.30661 0.00832 0.0
O338 O 0.89141 0.44209 0.13858 0.0
C339 C 0.90318 0.38692 0.04778 0.0
Co340 Co 0.40707 0.09455 0.87275 0.0
Co341 Co 0.35763 0.04841 0.83747 0.0
C342 C 0.4285 0.06251 0.81315 0.0
O343 O 0.43453 0.08472 0.83436 0.0
O344 O 0.4009 0.0472 0.81318 0.0
C345 C 0.45241 0.14531 0.89939 0.0
O346 O 0.46779 0.14768 0.87093 0.0
C347 C 0.31679 0.04645 0.78084 0.0
C348 C 0.28127 0.00618 0.79087 0.0
C349 C 0.28814 0.03173 0.76889 0.0
N350 N 0.32568 0.03082 0.80854 0.0
N351 N 0.30493 0.00624 0.81415 0.0
C352 C 0.33345 0.07752 0.7692 0.0
H353 H 0.35235 0.08592 0.78697 0.0
H354 H 0.315 0.09745 0.76541 0.0
H355 H 0.34644 0.0727 0.74563 0.0
C356 C 0.35099 0.14021 0.87013 0.0
N357 N 0.36585 0.11186 0.86138 0.0
N358 N 0.34371 0.09147 0.84945 0.0
C359 C 0.31364 0.10574 0.85148 0.0
C360 C 0.31746 0.13721 0.86424 0.0
C361 C 0.36769 0.1676 0.8883 0.0
H362 H 0.37245 0.15954 0.91398 0.0
H363 H 0.39171 0.17343 0.87635 0.0
H364 H 0.35216 0.19018 0.88888 0.0
O365 O 0.40136 0.0534 0.89944 0.0
O366 O 0.36194 0.02183 0.8778 0.0
H367 H 0.26095 0.09966 0.85895 0.0
H368 H 0.27577 0.09041 0.81836 0.0
C369 C 0.28163 0.08837 0.84494 0.0
H370 H 0.28372 0.06185 0.85151 0.0
H371 H 0.30566 0.99096 0.83488 0.0
O372 O 0.42859 0.12519 0.90293 0.0
C373 C 0.38305 0.02774 0.90021 0.0
Co374 Co 0.08789 0.58072 0.09913 0.0
Co375 Co 0.13011 0.62795 0.05528 0.0
C376 C 0.14931 0.55689 0.06792 0.0
O377 O 0.12492 0.55154 0.08708 0.0
O378 O 0.15343 0.58498 0.05436 0.0
C379 C 0.06241 0.5345 0.14991 0.0
O380 O 0.09175 0.52082 0.15246 0.0
C381 C 0.18941 0.66658 0.04634 0.0
C382 C 0.17659 0.70006 0.0053 0.0
C383 C 0.2014 0.69313 0.02791 0.0
N384 N 0.15907 0.65898 0.03546 0.0
N385 N 0.15172 0.67853 0.01047 0.0
C386 C 0.20442 0.65027 0.07593 0.0
H387 H 0.1859 0.6347 0.08891 0.0
H388 H 0.21422 0.669 0.09323 0.0
H389 H 0.22506 0.6341 0.06792 0.0
C390 C 0.0899 0.63637 0.14386 0.0
N391 N 0.1014 0.62093 0.11699 0.0
N392 N 0.11856 0.64176 0.0988 0.0
C393 C 0.11896 0.6714 0.11397 0.0
C394 C 0.1009 0.66882 0.14313 0.0
C395 C 0.06324 0.62216 0.1655 0.0
H396 H 0.07309 0.60037 0.17888 0.0
H397 H 0.05322 0.64004 0.18347 0.0
H398 H 0.04235 0.61398 0.1499 0.0
O399 O 0.06019 0.59083 0.0607 0.0
O400 O 0.08923 0.62465 0.02837 0.0
H401 H 0.1256 0.70565 0.07408 0.0
H402 H 0.12913 0.72424 0.11449 0.0
C403 C 0.13436 0.70195 0.09968 0.0
H404 H 0.16152 0.69894 0.09902 0.0
H405 H 0.12927 0.67805 -0.00212 0.0
O406 O 0.05781 0.55793 0.12962 0.0
C407 C 0.06297 0.60841 0.03482 0.0
H408 H 0.15619 0.32625 0.779 0.0
H409 H 0.05692 0.35441 0.80562 0.0
H410 H 0.03463 0.32153 0.76043 0.0
H411 H 0.04332 0.2799 0.71756 0.0
H412 H 0.14269 0.25115 0.69148 0.0
H413 H 0.16515 0.28965 0.7315 0.0
C414 C 0.12978 0.32552 0.77432 0.0
C415 C 0.10809 0.34241 0.79521 0.0
C416 C 0.11723 0.30656 0.74843 0.0
C417 C 0.0739 0.34157 0.78942 0.0
C418 C 0.0612 0.32273 0.76378 0.0
C419 C 0.06988 0.28274 0.72017 0.0
C420 C 0.09127 0.26302 0.70148 0.0
C421 C 0.0826 0.30446 0.74368 0.0
C422 C 0.12567 0.2666 0.70503 0.0
C423 C 0.13856 0.2883 0.72828 0.0
H424 H 0.21097 0.82352 0.30306 0.0
H425 H 0.15574 0.91439 0.30346 0.0
H426 H 0.19444 0.93889 0.26371 0.0
H427 H 0.24313 0.93371 0.22796 0.0
H428 H 0.29639 0.84141 0.22525 0.0
H429 H 0.26009 0.8185 0.26726 0.0
C430 C 0.20761 0.84862 0.29424 0.0
C431 C 0.18078 0.86723 0.30554 0.0
C432 C 0.22987 0.8624 0.27146 0.0
C433 C 0.17634 0.89978 0.29453 0.0
C434 C 0.19842 0.91373 0.27201 0.0
C435 C 0.247 0.90871 0.23688 0.0
C436 C 0.27319 0.88982 0.22426 0.0
C437 C 0.22521 0.89521 0.26022 0.0
C438 C 0.27756 0.85723 0.23558 0.0
C439 C 0.25633 0.84378 0.25924 0.0
H440 H 0.89986 0.77277 0.74782 0.0
H441 H 0.99247 0.7294 0.77762 0.0
H442 H 0.96246 0.68791 0.81032 0.0
H443 H 0.90978 0.66507 0.83096 0.0
H444 H 0.81763 0.71026 0.80271 0.0
H445 H 0.84763 0.75037 0.76831 0.0
C446 C 0.91352 0.75389 0.76087 0.0
C447 C 0.94827 0.75351 0.75972 0.0
C448 C 0.89617 0.73073 0.77982 0.0
C449 C 0.96566 0.72978 0.77795 0.0
C450 C 0.94855 0.70618 0.79657 0.0
C451 C 0.8964 0.68346 0.81681 0.0
C452 C 0.86171 0.68462 0.8185 0.0
C453 C 0.91381 0.70651 0.79769 0.0
C454 C 0.84437 0.70896 0.80116 0.0
C455 C 0.86148 0.73177 0.78167 0.0
H456 H 0.75152 0.03179 0.22923 0.0
H457 H 0.68833 0.11771 0.22943 0.0
H458 H 0.7237 0.14437 0.26929 0.0
H459 H 0.77486 0.14513 0.30186 0.0
H460 H 0.84023 0.06131 0.29922 0.0
H461 H 0.80236 0.03223 0.26222 0.0
C462 C 0.74529 0.05615 0.2384 0.0
C463 C 0.71656 0.07202 0.22719 0.0
C464 C 0.76659 0.07206 0.26042 0.0
C465 C 0.70916 0.10393 0.23875 0.0
C466 C 0.72985 0.11964 0.26116 0.0
C467 C 0.7806 0.12052 0.29302 0.0
C468 C 0.81008 0.1053 0.30254 0.0
C469 C 0.75883 0.10416 0.27181 0.0
C470 C 0.81759 0.07337 0.29155 0.0
C471 C 0.79597 0.0568 0.27062 0.0
H472 H 0.10271 0.66625 0.20897 0.0
H473 H 0.07322 0.72876 0.12814 0.0
H474 H 0.0509 0.76927 0.16681 0.0
H475 H 0.03812 0.78557 0.22362 0.0
H476 H 0.05679 0.71674 0.30284 0.0
H477 H 0.08383 0.67926 0.2647 0.0
C478 C 0.0915 0.68887 0.19992 0.0
C479 C 0.09041 0.69505 0.16597 0.0
C480 C 0.07623 0.71047 0.22198 0.0
C481 C 0.07553 0.72412 0.15429 0.0
C482 C 0.06214 0.74691 0.17634 0.0
C483 C 0.04772 0.7622 0.23255 0.0
C484 C 0.0469 0.75477 0.2664 0.0
C485 C 0.06199 0.74008 0.21022 0.0
C486 C 0.05882 0.72407 0.27734 0.0
C487 C 0.07402 0.70241 0.25545 0.0
H488 H 0.84549 0.93595 0.69772 0.0
H489 H 0.82879 0.83676 0.73285 0.0
H490 H 0.77999 0.85542 0.76374 0.0
H491 H 0.74192 0.89969 0.77916 0.0
H492 H 0.75932 -0.00066 0.7457 0.0
H493 H 0.80835 0.98082 0.71513 0.0
C494 C 0.83101 0.91853 0.71214 0.0
C495 C 0.84001 0.88505 0.71285 0.0
C496 C 0.80326 0.92947 0.72964 0.0
C497 C 0.8219 0.86261 0.73205 0.0
C498 C 0.79407 0.87325 0.74947 0.0
C499 C 0.75609 0.91726 0.76481 0.0
C500 C 0.74666 0.95063 0.76385 0.0
C501 C 0.78435 0.90652 0.74805 0.0
C502 C 0.76602 0.97343 0.74626 0.0
C503 C 0.79397 0.96287 0.72895 0.0
H504 H 0.8845 0.21753 0.26081 0.0
H505 H 0.98441 0.2528 0.24844 0.0
H506 H 0.9649 0.29556 0.21011 0.0
H507 H 0.91922 0.3218 0.17952 0.0
H508 H 0.82004 0.28403 0.19003 0.0
H509 H 0.8393 0.24311 0.23029 0.0
C510 C 0.90191 0.23495 0.25023 0.0
C511 C 0.93567 0.23273 0.25789 0.0
C512 C 0.89059 0.25876 0.22799 0.0
C513 C 0.95824 0.25449 0.24301 0.0
C514 C 0.94709 0.27881 0.2212 0.0
C515 C 0.90192 0.30478 0.19103 0.0
C516 C 0.8683 0.3059 0.18256 0.0
C517 C 0.91332 0.28108 0.21348 0.0
C518 C 0.84597 0.28348 0.19669 0.0
C519 C 0.85698 0.2602 0.21954 0.0
H520 H 0.17024 0.09347 0.68853 0.0
H521 H 0.25115 0.14337 0.64009 0.0
H522 H 0.29092 0.11117 0.67242 0.0
H523 H 0.30197 0.0683 0.71329 0.0
H524 H 0.2211 0.02454 0.76779 0.0
H525 H 0.18165 0.05328 0.73259 0.0
C526 C 0.1966 0.09786 0.68578 0.0
C527 C 0.20801 0.12111 0.66266 0.0
C528 C 0.21908 0.07974 0.70475 0.0
C529 C 0.24208 0.12592 0.65829 0.0
C530 C 0.26468 0.10734 0.67647 0.0
C531 C 0.27588 0.06588 0.71852 0.0
C532 C 0.26476 0.04538 0.74428 0.0
C533 C 0.2534 0.08418 0.69974 0.0
C534 C 0.23053 0.04045 0.74842 0.0
C535 C 0.20789 0.05718 0.72856 0.0
H536 H 0.29807 0.8089 0.06431 0.0
H537 H 0.34771 0.73012 0.11569 0.0
H538 H 0.3097 0.68967 0.09136 0.0
H539 H 0.26089 0.67778 0.05768 0.0
H540 H 0.20726 0.75823 0.01252 0.0
H541 H 0.24935 0.79692 0.03078 0.0
C542 C 0.30028 0.78286 0.07035 0.0
C543 C 0.32491 0.77231 0.09221 0.0
C544 C 0.27793 0.76018 0.05709 0.0
C545 C 0.32846 0.73858 0.09921 0.0
C546 C 0.30684 0.7156 0.08528 0.0
C547 C 0.25769 0.70378 0.0526 0.0
C548 C 0.22991 0.71508 0.03506 0.0
C549 C 0.28108 0.72625 0.06469 0.0
C550 C 0.22802 0.74872 0.02643 0.0
C551 C 0.25196 0.771 0.03708 0.0
H552 H 0.2154 0.21945 0.94671 0.0
H553 H 0.22792 0.28592 0.86423 0.0
H554 H 0.26686 0.24815 0.839 0.0
H555 H 0.2973 0.19552 0.8398 0.0
H556 H 0.28184 0.12708 0.91972 0.0
H557 H 0.24337 0.1657 0.94609 0.0
C558 C 0.2268 0.22577 0.9233 0.0
C559 C 0.21979 0.25629 0.90829 0.0
C560 C 0.24815 0.20318 0.90811 0.0
C561 C 0.23419 0.26371 0.87756 0.0
C562 C 0.25604 0.2417 0.86262 0.0
C563 C 0.28506 0.18912 0.86276 0.0
C564 C 0.29174 0.15874 0.87783 0.0
C565 C 0.26317 0.21138 0.87765 0.0
C566 C 0.27638 0.15038 0.90771 0.0
C567 C 0.2547 0.17248 0.92281 0.0
H568 H 0.76029 0.73346 0.89112 0.0
H569 H 0.70373 0.73621 0.98107 0.0
H570 H 0.6689 0.78034 0.95813 0.0
H571 H 0.65489 0.81761 0.9121 0.0
H572 H 0.71324 0.81582 0.82313 0.0
H573 H 0.74764 0.77151 0.84607 0.0
C574 C 0.74006 0.74339 0.90547 0.0
C575 C 0.73385 0.73125 0.93729 0.0
C576 C 0.72082 0.76883 0.89234 0.0
C577 C 0.70848 0.74509 0.95631 0.0
C578 C 0.68871 0.77022 0.94323 0.0
C579 C 0.67499 0.8072 0.89775 0.0
C580 C 0.68141 0.81915 0.86586 0.0
C581 C 0.69463 0.78214 0.91122 0.0
C582 C 0.70796 0.80652 0.84765 0.0
C583 C 0.72746 0.7813 0.86071 0.0
H584 H 0.69206 0.15835 0.07589 0.0
H585 H 0.63619 0.23119 0.12948 0.0
H586 H 0.6708 0.27527 0.10607 0.0
H587 H 0.71714 0.2922 0.0713 0.0
H588 H 0.77826 0.21831 0.02464 0.0
H589 H 0.74025 0.17542 0.0431 0.0
C590 C 0.68789 0.18387 0.08282 0.0
C591 C 0.66216 0.1917 0.10473 0.0
C592 C 0.70843 0.20873 0.07016 0.0
C593 C 0.65617 0.22479 0.11284 0.0
C594 C 0.67585 0.24986 0.09943 0.0
C595 C 0.72321 0.26685 0.06609 0.0
C596 C 0.75172 0.25875 0.04782 0.0
C597 C 0.7023 0.24203 0.07837 0.0
C598 C 0.75688 0.22553 0.03905 0.0
C599 C 0.73528 0.20083 0.0498 0.0
H600 H 0.17687 0.95133 0.43528 0.0
H601 H 0.16408 0.90738 0.53152 0.0
H602 H 0.1722 0.9613 0.55702 0.0
H603 H 0.17014 0.02137 0.55095 0.0
H604 H 0.17637 0.06565 0.45425 0.0
H605 H 0.184 0.01105 0.42989 0.0
C606 C 0.17662 0.95337 0.46191 0.0
C607 C 0.1688 0.92562 0.48148 0.0
C608 C 0.17947 0.98462 0.47621 0.0
C609 C 0.16952 0.92844 0.5159 0.0
C610 C 0.17386 0.95934 0.53046 0.0
C611 C 0.17375 0.01917 0.52457 0.0
C612 C 0.17166 0.04736 0.50426 0.0
C613 C 0.17676 0.98774 0.51071 0.0
C614 C 0.17734 0.04426 0.47032 0.0
C615 C 0.18156 0.01304 0.45639 0.0
H616 H 0.94979 0.81452 0.53814 0.0
H617 H 0.03404 0.81619 0.603 0.0
H618 H 0.07113 0.80714 0.55644 0.0
H619 H 0.07978 0.8117 0.49658 0.0
H620 H -0.00466 0.80911 0.43186 0.0
H621 H 0.95828 0.80464 0.47902 0.0
C622 C 0.97617 0.81175 0.54215 0.0
C623 C 0.98926 0.8168 0.5737 0.0
C624 C -0.00259 0.80688 0.51523 0.0
C625 C 0.02339 0.8126 0.57883 0.0
C626 C 0.04468 0.80775 0.55216 0.0
C627 C 0.05334 0.80908 0.4928 0.0
C628 C 0.04029 0.81174 0.46089 0.0
C629 C 0.03205 0.80683 0.52008 0.0
C630 C 0.00605 0.80757 0.45622 0.0
C631 C 0.98474 0.80527 0.48322 0.0
H632 H 0.85749 0.06899 0.52934 0.0
H633 H 0.82776 0.0235 0.43815 0.0
H634 H 0.83125 0.96901 0.4636 0.0
H635 H 0.85319 0.93422 0.50838 0.0
H636 H 0.88436 0.98047 0.5988 0.0
H637 H 0.86971 0.03441 0.57703 0.0
C638 C 0.85087 0.04726 0.51526 0.0
C639 C 0.84342 0.05026 0.48168 0.0
C640 C 0.85393 0.01593 0.52968 0.0
C641 C 0.83427 0.02186 0.46395 0.0
C642 C 0.83647 0.9906 0.4784 0.0
C643 C 0.85619 0.95604 0.5235 0.0
C644 C 0.87081 0.95338 0.5547 0.0
C645 C 0.84806 0.98727 0.5107 0.0
C646 C 0.87397 0.98184 0.57428 0.0
C647 C 0.8655 0.0128 0.56194 0.0
H648 H -0.00378 0.17582 0.41783 0.0
H649 H 0.9156 0.17386 0.48773 0.0
H650 H 0.95451 0.18311 0.53276 0.0
H651 H 0.0117 0.18 0.55263 0.0
H652 H 0.092 0.173 0.48286 0.0
H653 H 0.05312 0.17957 0.4373 0.0
C654 C 0.98699 0.17846 0.44279 0.0
C655 C 0.95312 0.17384 0.44951 0.0
C656 C 0.00965 0.18165 0.46862 0.0
C657 C 0.94161 0.17711 0.482 0.0
C658 C 0.96387 0.18217 0.50775 0.0
C659 C 0.02075 0.18102 0.52747 0.0
C660 C 0.05455 0.17593 0.52095 0.0
C661 C -0.00195 0.18273 0.50147 0.0
C662 C 0.06602 0.17677 0.48832 0.0
C663 C 0.04379 0.18035 0.46233 0.0
H664 H 0.41953 0.15642 0.95609 0.0
H665 H 0.51515 0.16845 0.90996 0.0
H666 H 0.54038 0.17706 0.96387 0.0
H667 H 0.53681 0.16764 0.02331 0.0
H668 H 0.44193 0.14986 0.06913 0.0
H669 H 0.41457 0.15787 0.01611 0.0
C670 C 0.44577 0.16176 0.95777 0.0
C671 C 0.46571 0.16077 0.92932 0.0
C672 C 0.4602 0.16518 0.98881 0.0
C673 C 0.49943 0.16864 0.9316 0.0
C674 C 0.51387 0.17328 0.96244 0.0
C675 C 0.51004 0.16633 0.02184 0.0
C676 C 0.49142 0.15713 0.04975 0.0
C677 C 0.49478 0.16949 0.99116 0.0
C678 C 0.45678 0.15645 0.04785 0.0
C679 C 0.44119 0.16076 0.0175 0.0
H680 H 0.18977 0.55555 0.01458 0.0
H681 H 0.15111 0.49379 0.09259 0.0
H682 H 0.16373 0.44457 0.06048 0.0
H683 H 0.16929 0.42166 0.00496 0.0
H684 H 0.19864 0.48512 0.92463 0.0
H685 H 0.20718 0.53075 0.96282 0.0
C686 C 0.18515 0.5313 0.02511 0.0
C687 C 0.16834 0.52836 0.05537 0.0
C688 C 0.19037 0.5033 0.00562 0.0
C689 C 0.16325 0.49675 0.06894 0.0
C690 C 0.17027 0.46857 0.05048 0.0
C691 C 0.17911 0.44504 -0.00386 0.0
C692 C 0.18289 0.45038 0.96215 0.0
C693 C 0.18137 0.47178 0.01787 0.0
C694 C 0.19537 0.48071 0.95077 0.0
C695 C 0.19987 0.50687 0.97256 0.0
H696 H 0.44414 0.80998 0.00246 0.0
H697 H 0.54283 0.81406 0.04267 0.0
H698 H 0.56598 0.81471 0.98703 0.0
H699 H 0.5573 0.82679 0.92881 0.0
H700 H 0.4584 0.82847 0.889 0.0
H701 H 0.43608 0.8124 0.94279 0.0
C702 C 0.47078 0.81027 -0.00092 0.0
C703 C 0.49177 0.81303 0.02658 0.0
C704 C 0.48375 0.81223 0.96715 0.0
C705 C 0.52617 0.81242 0.0219 0.0
C706 C 0.53938 0.81307 0.99009 0.0
C707 C 0.5309 0.82287 0.93161 0.0
C708 C 0.5094 0.82967 0.9052 0.0
C709 C 0.51828 0.81498 0.96274 0.0
C710 C 0.47539 0.8238 0.90904 0.0
C711 C 0.46264 0.81483 0.93984 0.0
H712 H 0.7792 0.55999 -0.00471 0.0
H713 H 0.78631 0.49498 0.91164 0.0
H714 H 0.7803 0.44706 0.94785 0.0
H715 H 0.788 0.42454 0.00314 0.0
H716 H 0.78942 0.49009 0.08669 0.0
H717 H 0.77622 0.53674 0.05085 0.0
C718 C 0.77816 0.5354 0.98481 0.0
C719 C 0.78391 0.53097 0.95092 0.0
C720 C 0.77693 0.50798 0.00598 0.0
C721 C 0.7824 0.49897 0.93772 0.0
C722 C 0.77922 0.47156 0.95847 0.0
C723 C 0.7843 0.44881 0.01374 0.0
C724 C 0.79055 0.454 0.04741 0.0
C725 C 0.77879 0.47579 -0.00727 0.0
C726 C 0.78533 0.48556 0.06075 0.0
C727 C 0.77799 0.51229 0.04021 0.0
H728 H 0.94168 0.44431 0.17544 0.0
H729 H 0.89139 0.53692 0.15901 0.0
H730 H 0.94361 0.56659 0.16523 0.0
H731 H 0.00404 0.56446 0.16179 0.0
H732 H 0.05467 0.47132 0.17295 0.0
H733 H 0.0018 0.44358 0.183 0.0
C734 C 0.942 0.47108 0.17409 0.0
C735 C 0.91299 0.48836 0.16569 0.0
C736 C 0.97227 0.48776 0.17617 0.0
C737 C 0.91349 0.52303 0.16495 0.0
C738 C 0.94341 0.53997 0.1682 0.0
C739 C 0.00357 0.5382 0.16722 0.0
C740 C 0.03299 0.5197 0.16564 0.0
C741 C 0.9731 0.52235 0.17167 0.0
C742 C 0.03226 0.48596 0.1736 0.0
C743 C 0.00202 0.47008 0.1791 0.0
H744 H 0.94398 0.56025 0.84594 0.0
H745 H 0.908 0.45972 0.84853 0.0
H746 H 0.96471 0.43937 0.84377 0.0
H747 H 0.02369 0.45014 0.8488 0.0
H748 H 0.05989 0.55044 0.853 0.0
H749 H 0.00357 0.57103 0.84464 0.0
C750 C 0.94838 0.53385 0.84472 0.0
C751 C 0.92182 0.51144 0.84816 0.0
C752 C 0.98104 0.52239 0.84368 0.0
C753 C 0.92802 0.47741 0.84629 0.0
C754 C 0.96043 0.4658 0.84374 0.0
C755 C 0.01946 0.47656 0.8474 0.0
C756 C 0.04584 0.49879 0.85226 0.0
C757 C 0.98707 0.48807 0.84403 0.0
C758 C 0.03998 0.53285 0.84967 0.0
C759 C 0.00777 0.54459 0.84506 0.0
H760 H 0.42837 0.96558 0.16661 0.0
H761 H 0.5035 0.8906 0.15643 0.0
H762 H 0.54652 0.93174 0.1664 0.0
H763 H 0.56262 0.99003 0.16558 0.0
H764 H 0.48737 0.06553 0.16822 0.0
H765 H 0.44461 0.02325 0.17445 0.0
C766 C 0.45409 0.958 0.16763 0.0
C767 C 0.46277 0.92516 0.16028 0.0
C768 C 0.47873 0.9821 0.17154 0.0
C769 C 0.49621 0.91579 0.16165 0.0
C770 C 0.52083 0.93936 0.16717 0.0
C771 C 0.53698 -0.00267 0.16866 0.0
C772 C 0.52812 0.03085 0.16598 0.0
C773 C 0.51242 0.97283 0.17028 0.0
C774 C 0.49477 0.03986 0.16989 0.0
C775 C 0.4703 0.01567 0.17323 0.0
H776 H 0.43062 0.00439 0.78 0.0
H777 H 0.48959 0.09016 0.803 0.0
H778 H 0.53993 0.0596 0.7902 0.0
H779 H 0.56638 0.00528 0.78863 0.0
H780 H 0.50692 0.91823 0.77302 0.0
H781 H 0.45788 0.95252 0.76565 0.0
C782 C 0.45438 0.01682 0.7811 0.0
C783 C 0.45641 0.04913 0.79362 0.0
C784 C 0.48332 -0.00146 0.77554 0.0
C785 C 0.48736 0.06502 0.79422 0.0
C786 C 0.51623 0.04747 0.78709 0.0
C787 C 0.54298 0.99387 0.78221 0.0
C788 C 0.54004 0.95924 0.78233 0.0
C789 C 0.51452 0.0136 0.78017 0.0
C790 C 0.50964 0.94485 0.77367 0.0
C791 C 0.48152 0.96445 0.76976 0.0
H792 H 0.09182 0.02709 0.63387 0.0
H793 H 0.00453 0.08802 0.6393 0.0
H794 H 0.97131 0.03996 0.65527 0.0
H795 H 0.96634 0.97979 0.66146 0.0
H796 H 0.0537 0.91896 0.65883 0.0
H797 H 0.0881 0.96797 0.64874 0.0
C798 C 0.06558 0.02976 0.63893 0.0
C799 C 0.05034 0.06068 0.63489 0.0
C800 C 0.04687 0.0022 0.64869 0.0
C801 C 0.01658 0.06428 0.64211 0.0
C802 C -0.00236 0.03687 0.65117 0.0
C803 C 0.99304 0.97751 0.65952 0.0
C804 C 0.00767 0.94612 0.66067 0.0
C805 C 0.0124 0.00563 0.65372 0.0
C806 C 0.04215 0.94309 0.65826 0.0
C807 C 0.06167 0.971 0.65214 0.0
H808 H 0.98997 0.92489 0.36486 0.0
H809 H 0.08348 0.97401 0.37938 0.0
H810 H 0.05648 0.02786 0.37437 0.0
H811 H 0.00562 0.0609 0.3689 0.0
H812 H 0.91152 0.01151 0.361 0.0
H813 H 0.93923 0.95777 0.36001 0.0
C814 C 0.00439 0.94744 0.3666 0.0
C815 C 0.03854 0.94569 0.37235 0.0
C816 C 0.98855 0.97817 0.36488 0.0
C817 C 0.05705 0.97493 0.37509 0.0
C818 C 0.04167 0.00565 0.37216 0.0
C819 C 0.9914 0.03829 0.36649 0.0
C820 C 0.95682 0.03981 0.36467 0.0
C821 C 0.00738 0.00756 0.36744 0.0
C822 C 0.93829 0.01061 0.36229 0.0
C823 C 0.95407 0.98 0.3618 0.0
H824 H 0.56221 0.03005 0.02395 0.0
H825 H 0.66791 0.03054 0.03818 0.0
H826 H 0.67564 0.00194 0.98562 0.0
H827 H 0.65198 0.97687 0.93552 0.0
H828 H 0.54598 0.9727 0.92428 0.0
H829 H 0.53861 0.00291 0.97574 0.0
C830 C 0.58695 0.02393 0.0155 0.0
C831 C 0.61448 0.03256 0.03466 0.0
C832 C 0.59108 0.00697 0.9858 0.0
C833 C 0.64636 0.02405 0.02379 0.0
C834 C 0.65077 0.00784 -0.00627 0.0
C835 C 0.62734 0.98281 0.94436 0.0
C836 C 0.59955 0.97296 0.92616 0.0
C837 C 0.62329 -0.00073 0.97449 0.0
C838 C 0.56769 0.98013 0.93798 0.0
C839 C 0.56348 -0.00263 0.96734 0.0
H840 H 0.03163 0.42646 0.9694 0.0
H841 H 0.04397 0.32067 0.96712 0.0
H842 H 0.9915 0.31353 -0.00323 0.0
H843 H 0.94193 0.33775 0.02333 0.0
H844 H 0.93261 0.44374 0.02854 0.0
H845 H 0.98394 0.45047 -0.0026 0.0
C846 C 0.02285 0.40181 0.97536 0.0
C847 C 0.0415 0.37413 0.96594 0.0
C848 C 0.99311 0.39797 -0.00726 0.0
C849 C 0.03005 0.34237 0.97423 0.0
C850 C 1e-05 0.33829 0.99102 0.0
C851 C 0.95113 0.36224 0.01735 0.0
C852 C 0.93352 0.39022 0.02787 0.0
C853 C 0.98126 0.36593 0.0003 0.0
C854 C 0.94584 0.42187 0.02062 0.0
C855 C 0.97515 0.42574 0.00287 0.0
H856 H 0.33462 0.00191 0.93887 0.0
H857 H 0.44026 0.00328 0.92394 0.0
H858 H 0.44792 0.96739 0.97185 0.0
H859 H 0.4248 0.93704 0.01863 0.0
H860 H 0.31973 0.93944 0.03736 0.0
H861 H 0.31146 0.97275 0.98751 0.0
C862 C 0.35919 0.99396 0.94607 0.0
C863 C 0.38685 0.00469 0.92793 0.0
C864 C 0.36347 0.97439 0.97439 0.0
C865 C 0.4187 -0.00495 0.93763 0.0
C866 C 0.42307 0.97465 0.96498 0.0
C867 C 0.40006 0.94477 0.01174 0.0
C868 C 0.37288 0.93568 0.03143 0.0
C869 C 0.39567 0.96441 0.98366 0.0
C870 C 0.34103 0.94627 0.02256 0.0
C871 C 0.3363 0.96516 -0.00596 0.0
H872 H 0.94993 0.60764 0.92851 0.0
H873 H 0.89069 0.62516 0.01525 0.0
H874 H 0.94056 0.62549 0.04921 0.0
H875 H 0.00054 0.61843 0.05443 0.0
H876 H 0.06066 0.60527 0.96767 0.0
H877 H 0.01082 0.60573 0.93317 0.0
C878 C 0.94806 0.61165 0.95484 0.0
C879 C 0.9168 0.61601 0.96955 0.0
C880 C 0.97685 0.61254 0.97403 0.0
C881 C 0.91456 0.62176 0.00351 0.0
C882 C 0.94299 0.62184 0.02289 0.0
C883 C 0.00264 0.61583 0.02792 0.0
C884 C 0.0339 0.61142 0.01344 0.0
C885 C 0.97415 0.61689 0.00845 0.0
C886 C 0.03668 0.60866 0.97915 0.0
C887 C 0.00826 0.60881 0.95955 0.0
loop_
_geom_bond_atom_site_label_1
_geom_bond_atom_site_label_2
_geom_bond_distance
_geom_bond_site_symmetry_2
_ccdc_geom_bond_type
Co0 O3 1.970 . S
Co0 N17 1.989 . S
Co0 O25 1.967 . S
Co0 O32 1.920 . S
Co1 O4 1.966 . S
Co1 N10 2.022 . S
Co1 N18 1.993 . S
Co1 O26 1.941 . S
C2 O3 1.258 . S
C2 O4 1.263 . S
O3 Co0 1.970 . S
O3 C2 1.258 . S
O4 Co1 1.966 . S
O4 C2 1.263 . S
C5 O6 1.235 . S
C5 O32 1.289 . S
O6 C5 1.235 . S
C7 C9 1.400 . S
C7 N10 1.351 . S
C7 C12 1.501 . S
C8 C9 1.387 . S
C8 N11 1.341 . S
C9 C7 1.400 . S
C9 C8 1.387 . S
N10 Co1 2.022 . S
N10 C7 1.351 . S
N10 N11 1.365 . S
N11 C8 1.341 . S
N11 N10 1.365 . S
N11 H31 0.862 . S
C12 C7 1.501 . S
C12 H13 0.961 . S
C12 H14 0.961 . S
C12 H15 0.960 . S
H13 C12 0.961 . S
H14 C12 0.961 . S
H15 C12 0.960 . S
C16 N17 1.342 . S
C16 C20 1.401 . S
C16 C21 1.499 . S
N17 Co0 1.989 . S
N17 C16 1.342 . S
N17 N18 1.388 . S
N18 Co1 1.993 . S
N18 N17 1.388 . S
N18 C19 1.346 . S
C19 N18 1.346 . S
C19 C20 1.396 . S
C19 C29 1.510 . S
C20 C16 1.401 . S
C20 C19 1.396 . S
C21 C16 1.499 . S
C21 H22 0.959 . S
C21 H23 0.960 . S
C21 H24 0.961 . S
H22 C21 0.959 . S
H23 C21 0.960 . S
H24 C21 0.961 . S
O25 Co0 1.967 . S
O25 C33 1.258 . S
O26 Co1 1.941 . S
O26 C33 1.266 . S
H27 C29 0.959 . S
H28 C29 0.961 . S
C29 C19 1.510 . S
C29 H27 0.959 . S
C29 H28 0.961 . S
C29 H30 0.960 . S
H30 C29 0.960 . S
H31 N11 0.862 . S
O32 Co0 1.920 . S
O32 C5 1.289 . S
C33 O25 1.258 . S
C33 O26 1.266 . S
Co34 O37 1.970 . S
Co34 N51 1.989 . S
Co34 O59 1.967 . S
Co34 O66 1.920 . S
Co35 O38 1.966 . S
Co35 N44 2.022 . S
Co35 N52 1.993 . S
Co35 O60 1.941 . S
C36 O37 1.258 . S
C36 O38 1.263 . S
O37 Co34 1.970 . S
O37 C36 1.258 . S
O38 Co35 1.966 . S
O38 C36 1.263 . S
C39 O40 1.235 . S
C39 O66 1.289 . S
O40 C39 1.235 . S
C41 C43 1.400 . S
C41 N44 1.351 . S
C41 C46 1.501 . S
C42 C43 1.387 . S
C42 N45 1.341 . S
C43 C41 1.400 . S
C43 C42 1.387 . S
N44 Co35 2.022 . S
N44 C41 1.351 . S
N44 N45 1.365 . S
N45 C42 1.341 . S
N45 N44 1.365 . S
N45 H65 0.862 . S
C46 C41 1.501 . S
C46 H47 0.961 . S
C46 H48 0.961 . S
C46 H49 0.960 . S
H47 C46 0.961 . S
H48 C46 0.961 . S
H49 C46 0.960 . S
C50 N51 1.342 . S
C50 C54 1.401 . S
C50 C55 1.499 . S
N51 Co34 1.989 . S
N51 C50 1.342 . S
N51 N52 1.388 . S
N52 Co35 1.993 . S
N52 N51 1.388 . S
N52 C53 1.346 . S
C53 N52 1.346 . S
C53 C54 1.396 . S
C53 C63 1.510 . S
C54 C50 1.401 . S
C54 C53 1.396 . S
C55 C50 1.499 . S
C55 H56 0.959 . S
C55 H57 0.960 . S
C55 H58 0.961 . S
H56 C55 0.959 . S
H57 C55 0.960 . S
H58 C55 0.961 . S
O59 Co34 1.967 . S
O59 C67 1.258 . S
O60 Co35 1.941 . S
O60 C67 1.266 . S
H61 C63 0.959 . S
H62 C63 0.961 . S
C63 C53 1.510 . S
C63 H61 0.959 . S
C63 H62 0.961 . S
C63 H64 0.960 . S
H64 C63 0.960 . S
H65 N45 0.862 . S
O66 Co34 1.920 . S
O66 C39 1.289 . S
C67 O59 1.258 . S
C67 O60 1.266 . S
Co68 O71 1.970 . S
Co68 N85 1.989 . S
Co68 O93 1.967 . S
Co68 O100 1.920 . S
Co69 O72 1.966 . S
Co69 N78 2.022 . S
Co69 N86 1.993 . S
Co69 O94 1.941 . S
C70 O71 1.258 . S
C70 O72 1.263 . S
O71 Co68 1.970 . S
O71 C70 1.258 . S
O72 Co69 1.966 . S
O72 C70 1.263 . S
C73 O74 1.235 . S
C73 O100 1.289 . S
O74 C73 1.235 . S
C75 C77 1.400 . S
C75 N78 1.351 . S
C75 C80 1.501 . S
C76 C77 1.387 . S
C76 N79 1.341 . S
C77 C75 1.400 . S
C77 C76 1.387 . S
N78 Co69 2.022 . S
N78 C75 1.351 . S
N78 N79 1.365 . S
N79 C76 1.341 . S
N79 N78 1.365 . S
N79 H99 0.862 . S
C80 C75 1.501 . S
C80 H81 0.961 . S
C80 H82 0.961 . S
C80 H83 0.960 . S
H81 C80 0.961 . S
H82 C80 0.961 . S
H83 C80 0.960 . S
C84 N85 1.342 . S
C84 C88 1.401 . S
C84 C89 1.499 . S
N85 Co68 1.989 . S
N85 C84 1.342 . S
N85 N86 1.388 . S
N86 Co69 1.993 . S
N86 N85 1.388 . S
N86 C87 1.346 . S
C87 N86 1.346 . S
C87 C88 1.396 . S
C87 C97 1.510 . S
C88 C84 1.401 . S
C88 C87 1.396 . S
C89 C84 1.499 . S
C89 H90 0.959 . S
C89 H91 0.960 . S
C89 H92 0.961 . S
H90 C89 0.959 . S
H91 C89 0.960 . S
H92 C89 0.961 . S
O93 Co68 1.967 . S
O93 C101 1.258 . S
O94 Co69 1.941 . S
O94 C101 1.266 . S
H95 C97 0.959 . S
H96 C97 0.961 . S
C97 C87 1.510 . S
C97 H95 0.959 . S
C97 H96 0.961 . S
C97 H98 0.960 . S
H98 C97 0.960 . S
H99 N79 0.862 . S
O100 Co68 1.920 . S
O100 C73 1.289 . S
C101 O93 1.258 . S
C101 O94 1.266 . S
Co102 O105 1.970 . S
Co102 N119 1.989 . S
Co102 O127 1.967 . S
Co102 O134 1.920 . S
Co103 O106 1.966 . S
Co103 N112 2.022 . S
Co103 N120 1.993 . S
Co103 O128 1.941 . S
C104 O105 1.258 . S
C104 O106 1.263 . S
O105 Co102 1.970 . S
O105 C104 1.258 . S
O106 Co103 1.966 . S
O106 C104 1.263 . S
C107 O108 1.235 . S
C107 O134 1.289 . S
O108 C107 1.235 . S
C109 C111 1.400 . S
C109 N112 1.351 . S
C109 C114 1.501 . S
C110 C111 1.387 . S
C110 N113 1.341 . S
C111 C109 1.400 . S
C111 C110 1.387 . S
N112 Co103 2.022 . S
N112 C109 1.351 . S
N112 N113 1.365 . S
N113 C110 1.341 . S
N113 N112 1.365 . S
N113 H133 0.862 . S
C114 C109 1.501 . S
C114 H115 0.961 . S
C114 H116 0.961 . S
C114 H117 0.960 . S
H115 C114 0.961 . S
H116 C114 0.961 . S
H117 C114 0.960 . S
C118 N119 1.342 . S
C118 C122 1.401 . S
C118 C123 1.499 . S
N119 Co102 1.989 . S
N119 C118 1.342 . S
N119 N120 1.388 . S
N120 Co103 1.993 . S
N120 N119 1.388 . S
N120 C121 1.346 . S
C121 N120 1.346 . S
C121 C122 1.396 . S
C121 C131 1.510 . S
C122 C118 1.401 . S
C122 C121 1.396 . S
C123 C118 1.499 . S
C123 H124 0.959 . S
C123 H125 0.960 . S
C123 H126 0.961 . S
H124 C123 0.959 . S
H125 C123 0.960 . S
H126 C123 0.961 . S
O127 Co102 1.967 . S
O127 C135 1.258 . S
O128 Co103 1.941 . S
O128 C135 1.266 . S
H129 C131 0.959 . S
H130 C131 0.961 . S
C131 C121 1.510 . S
C131 H129 0.959 . S
C131 H130 0.961 . S
C131 H132 0.960 . S
H132 C131 0.960 . S
H133 N113 0.862 . S
O134 Co102 1.920 . S
O134 C107 1.289 . S
C135 O127 1.258 . S
C135 O128 1.266 . S
Co136 O139 1.970 . S
Co136 N153 1.989 . S
Co136 O161 1.967 . S
Co136 O168 1.920 . S
Co137 O140 1.966 . S
Co137 N146 2.022 . S
Co137 N154 1.993 . S
Co137 O162 1.941 . S
C138 O139 1.258 . S
C138 O140 1.263 . S
O139 Co136 1.970 . S
O139 C138 1.258 . S
O140 Co137 1.966 . S
O140 C138 1.263 . S
C141 O142 1.235 . S
C141 O168 1.289 . S
O142 C141 1.235 . S
C143 C145 1.400 . S
C143 N146 1.351 . S
C143 C148 1.501 . S
C144 C145 1.387 . S
C144 N147 1.341 . S
C145 C143 1.400 . S
C145 C144 1.387 . S
N146 Co137 2.022 . S
N146 C143 1.351 . S
N146 N147 1.365 . S
N147 C144 1.341 . S
N147 N146 1.365 . S
N147 H167 0.862 . S
C148 C143 1.501 . S
C148 H149 0.961 . S
C148 H150 0.961 . S
C148 H151 0.960 . S
H149 C148 0.961 . S
H150 C148 0.961 . S
H151 C148 0.960 . S
C152 N153 1.342 . S
C152 C156 1.401 . S
C152 C157 1.499 . S
N153 Co136 1.989 . S
N153 C152 1.342 . S
N153 N154 1.388 . S
N154 Co137 1.993 . S
N154 N153 1.388 . S
N154 C155 1.346 . S
C155 N154 1.346 . S
C155 C156 1.396 . S
C155 C165 1.510 . S
C156 C152 1.401 . S
C156 C155 1.396 . S
C157 C152 1.499 . S
C157 H158 0.959 . S
C157 H159 0.960 . S
C157 H160 0.961 . S
H158 C157 0.959 . S
H159 C157 0.960 . S
H160 C157 0.961 . S
O161 Co136 1.967 . S
O161 C169 1.258 . S
O162 Co137 1.941 . S
O162 C169 1.266 . S
H163 C165 0.959 . S
H164 C165 0.961 . S
C165 C155 1.510 . S
C165 H163 0.959 . S
C165 H164 0.961 . S
C165 H166 0.960 . S
H166 C165 0.960 . S
H167 N147 0.862 . S
O168 Co136 1.920 . S
O168 C141 1.289 . S
C169 O161 1.258 . S
C169 O162 1.266 . S
Co170 O173 1.970 . S
Co170 N187 1.989 . S
Co170 O195 1.967 . S
Co170 O202 1.920 . S
Co171 O174 1.966 . S
Co171 N180 2.022 . S
Co171 N188 1.993 . S
Co171 O196 1.941 . S
C172 O173 1.258 . S
C172 O174 1.263 . S
O173 Co170 1.970 . S
O173 C172 1.258 . S
O174 Co171 1.966 . S
O174 C172 1.263 . S
C175 O176 1.235 . S
C175 O202 1.289 . S
O176 C175 1.235 . S
C177 C179 1.400 . S
C177 N180 1.351 . S
C177 C182 1.501 . S
C178 C179 1.387 . S
C178 N181 1.341 . S
C179 C177 1.400 . S
C179 C178 1.387 . S
N180 Co171 2.022 . S
N180 C177 1.351 . S
N180 N181 1.365 . S
N181 C178 1.341 . S
N181 N180 1.365 . S
N181 H201 0.862 . S
C182 C177 1.501 . S
C182 H183 0.961 . S
C182 H184 0.961 . S
C182 H185 0.960 . S
H183 C182 0.961 . S
H184 C182 0.961 . S
H185 C182 0.960 . S
C186 N187 1.342 . S
C186 C190 1.401 . S
C186 C191 1.499 . S
N187 Co170 1.989 . S
N187 C186 1.342 . S
N187 N188 1.388 . S
N188 Co171 1.993 . S
N188 N187 1.388 . S
N188 C189 1.346 . S
C189 N188 1.346 . S
C189 C190 1.396 . S
C189 C199 1.510 . S
C190 C186 1.401 . S
C190 C189 1.396 . S
C191 C186 1.499 . S
C191 H192 0.959 . S
C191 H193 0.960 . S
C191 H194 0.961 . S
H192 C191 0.959 . S
H193 C191 0.960 . S
H194 C191 0.961 . S
O195 Co170 1.967 . S
O195 C203 1.258 . S
O196 Co171 1.941 . S
O196 C203 1.266 . S
H197 C199 0.959 . S
H198 C199 0.961 . S
C199 C189 1.510 . S
C199 H197 0.959 . S
C199 H198 0.961 . S
C199 H200 0.960 . S
H200 C199 0.960 . S
H201 N181 0.862 . S
O202 Co170 1.920 . S
O202 C175 1.289 . S
C203 O195 1.258 . S
C203 O196 1.266 . S
Co204 O207 1.970 . S
Co204 N221 1.989 . S
Co204 O229 1.967 . S
Co204 O236 1.920 . S
Co205 O208 1.966 . S
Co205 N214 2.022 . S
Co205 N222 1.993 . S
Co205 O230 1.941 . S
C206 O207 1.258 . S
C206 O208 1.263 . S
O207 Co204 1.970 . S
O207 C206 1.258 . S
O208 Co205 1.966 . S
O208 C206 1.263 . S
C209 O210 1.235 . S
C209 O236 1.289 . S
O210 C209 1.235 . S
C211 C213 1.400 . S
C211 N214 1.351 . S
C211 C216 1.501 . S
C212 C213 1.387 . S
C212 N215 1.341 . S
C213 C211 1.400 . S
C213 C212 1.387 . S
N214 Co205 2.022 . S
N214 C211 1.351 . S
N214 N215 1.365 . S
N215 C212 1.341 . S
N215 N214 1.365 . S
N215 H235 0.862 . S
C216 C211 1.501 . S
C216 H217 0.961 . S
C216 H218 0.961 . S
C216 H219 0.960 . S
H217 C216 0.961 . S
H218 C216 0.961 . S
H219 C216 0.960 . S
C220 N221 1.342 . S
C220 C224 1.401 . S
C220 C225 1.499 . S
N221 Co204 1.989 . S
N221 C220 1.342 . S
N221 N222 1.388 . S
N222 Co205 1.993 . S
N222 N221 1.388 . S
N222 C223 1.346 . S
C223 N222 1.346 . S
C223 C224 1.396 . S
C223 C233 1.510 . S
C224 C220 1.401 . S
C224 C223 1.396 . S
C225 C220 1.499 . S
C225 H226 0.959 . S
C225 H227 0.960 . S
C225 H228 0.961 . S
H226 C225 0.959 . S
H227 C225 0.960 . S
H228 C225 0.961 . S
O229 Co204 1.967 . S
O229 C237 1.258 . S
O230 Co205 1.941 . S
O230 C237 1.266 . S
H231 C233 0.959 . S
H232 C233 0.961 . S
C233 C223 1.510 . S
C233 H231 0.959 . S
C233 H232 0.961 . S
C233 H234 0.960 . S
H234 C233 0.960 . S
H235 N215 0.862 . S
O236 Co204 1.920 . S
O236 C209 1.289 . S
C237 O229 1.258 . S
C237 O230 1.266 . S
Co238 O241 1.970 . S
Co238 N255 1.989 . S
Co238 O263 1.967 . S
Co238 O270 1.920 . S
Co239 O242 1.966 . S
Co239 N248 2.022 . S
Co239 N256 1.993 . S
Co239 O264 1.941 . S
C240 O241 1.258 . S
C240 O242 1.263 . S
O241 Co238 1.970 . S
O241 C240 1.258 . S
O242 Co239 1.966 . S
O242 C240 1.263 . S
C243 O244 1.235 . S
C243 O270 1.289 . S
O244 C243 1.235 . S
C245 C247 1.400 . S
C245 N248 1.351 . S
C245 C250 1.501 . S
C246 C247 1.387 . S
C246 N249 1.341 . S
C247 C245 1.400 . S
C247 C246 1.387 . S
N248 Co239 2.022 . S
N248 C245 1.351 . S
N248 N249 1.365 . S
N249 C246 1.341 . S
N249 N248 1.365 . S
N249 H269 0.862 . S
C250 C245 1.501 . S
C250 H251 0.961 . S
C250 H252 0.961 . S
C250 H253 0.960 . S
H251 C250 0.961 . S
H252 C250 0.961 . S
H253 C250 0.960 . S
C254 N255 1.342 . S
C254 C258 1.401 . S
C254 C259 1.499 . S
N255 Co238 1.989 . S
N255 C254 1.342 . S
N255 N256 1.388 . S
N256 Co239 1.993 . S
N256 N255 1.388 . S
N256 C257 1.346 . S
C257 N256 1.346 . S
C257 C258 1.396 . S
C257 C267 1.510 . S
C258 C254 1.401 . S
C258 C257 1.396 . S
C259 C254 1.499 . S
C259 H260 0.959 . S
C259 H261 0.960 . S
C259 H262 0.961 . S
H260 C259 0.959 . S
H261 C259 0.960 . S
H262 C259 0.961 . S
O263 Co238 1.967 . S
O263 C271 1.258 . S
O264 Co239 1.941 . S
O264 C271 1.266 . S
H265 C267 0.959 . S
H266 C267 0.961 . S
C267 C257 1.510 . S
C267 H265 0.959 . S
C267 H266 0.961 . S
C267 H268 0.960 . S
H268 C267 0.960 . S
H269 N249 0.862 . S
O270 Co238 1.920 . S
O270 C243 1.289 . S
C271 O263 1.258 . S
C271 O264 1.266 . S
Co272 O275 1.970 . S
Co272 N289 1.989 . S
Co272 O297 1.967 . S
Co272 O304 1.920 . S
Co273 O276 1.966 . S
Co273 N282 2.022 . S
Co273 N290 1.993 . S
Co273 O298 1.941 . S
C274 O275 1.258 . S
C274 O276 1.263 . S
O275 Co272 1.970 . S
O275 C274 1.258 . S
O276 Co273 1.966 . S
O276 C274 1.263 . S
C277 O278 1.235 . S
C277 O304 1.289 . S
O278 C277 1.235 . S
C279 C281 1.400 . S
C279 N282 1.351 . S
C279 C284 1.501 . S
C280 C281 1.387 . S
C280 N283 1.341 . S
C281 C279 1.400 . S
C281 C280 1.387 . S
N282 Co273 2.022 . S
N282 C279 1.351 . S
N282 N283 1.365 . S
N283 C280 1.341 . S
N283 N282 1.365 . S
N283 H303 0.862 . S
C284 C279 1.501 . S
C284 H285 0.961 . S
C284 H286 0.961 . S
C284 H287 0.960 . S
H285 C284 0.961 . S
H286 C284 0.961 . S
H287 C284 0.960 . S
C288 N289 1.342 . S
C288 C292 1.401 . S
C288 C293 1.499 . S
N289 Co272 1.989 . S
N289 C288 1.342 . S
N289 N290 1.388 . S
N290 Co273 1.993 . S
N290 N289 1.388 . S
N290 C291 1.346 . S
C291 N290 1.346 . S
C291 C292 1.396 . S
C291 C301 1.510 . S
C292 C288 1.401 . S
C292 C291 1.396 . S
C293 C288 1.499 . S
C293 H294 0.959 . S
C293 H295 0.960 . S
C293 H296 0.961 . S
H294 C293 0.959 . S
H295 C293 0.960 . S
H296 C293 0.961 . S
O297 Co272 1.967 . S
O297 C305 1.258 . S
O298 Co273 1.941 . S
O298 C305 1.266 . S
H299 C301 0.959 . S
H300 C301 0.961 . S
C301 C291 1.510 . S
C301 H299 0.959 . S
C301 H300 0.961 . S
C301 H302 0.960 . S
H302 C301 0.960 . S
H303 N283 0.862 . S
O304 Co272 1.920 . S
O304 C277 1.289 . S
C305 O297 1.258 . S
C305 O298 1.266 . S
Co306 O309 1.970 . S
Co306 N323 1.989 . S
Co306 O331 1.967 . S
Co306 O338 1.920 . S
Co307 O310 1.966 . S
Co307 N316 2.022 . S
Co307 N324 1.993 . S
Co307 O332 1.941 . S
C308 O309 1.258 . S
C308 O310 1.263 . S
O309 Co306 1.970 . S
O309 C308 1.258 . S
O310 Co307 1.966 . S
O310 C308 1.263 . S
C311 O312 1.235 . S
C311 O338 1.289 . S
O312 C311 1.235 . S
C313 C315 1.400 . S
C313 N316 1.351 . S
C313 C318 1.501 . S
C314 C315 1.387 . S
C314 N317 1.341 . S
C315 C313 1.400 . S
C315 C314 1.387 . S
N316 Co307 2.022 . S
N316 C313 1.351 . S
N316 N317 1.365 . S
N317 C314 1.341 . S
N317 N316 1.365 . S
N317 H337 0.862 . S
C318 C313 1.501 . S
C318 H319 0.961 . S
C318 H320 0.961 . S
C318 H321 0.960 . S
H319 C318 0.961 . S
H320 C318 0.961 . S
H321 C318 0.960 . S
C322 N323 1.342 . S
C322 C326 1.401 . S
C322 C327 1.499 . S
N323 Co306 1.989 . S
N323 C322 1.342 . S
N323 N324 1.388 . S
N324 Co307 1.993 . S
N324 N323 1.388 . S
N324 C325 1.346 . S
C325 N324 1.346 . S
C325 C326 1.396 . S
C325 C335 1.510 . S
C326 C322 1.401 . S
C326 C325 1.396 . S
C327 C322 1.499 . S
C327 H328 0.959 . S
C327 H329 0.960 . S
C327 H330 0.961 . S
H328 C327 0.959 . S
H329 C327 0.960 . S
H330 C327 0.961 . S
O331 Co306 1.967 . S
O331 C339 1.258 . S
O332 Co307 1.941 . S
O332 C339 1.266 . S
H333 C335 0.959 . S
H334 C335 0.961 . S
C335 C325 1.510 . S
C335 H333 0.959 . S
C335 H334 0.961 . S
C335 H336 0.960 . S
H336 C335 0.960 . S
H337 N317 0.862 . S
O338 Co306 1.920 . S
O338 C311 1.289 . S
C339 O331 1.258 . S
C339 O332 1.266 . S
Co340 O343 1.970 . S
Co340 N357 1.989 . S
Co340 O365 1.967 . S
Co340 O372 1.920 . S
Co341 O344 1.966 . S
Co341 N350 2.022 . S
Co341 N358 1.993 . S
Co341 O366 1.941 . S
C342 O343 1.258 . S
C342 O344 1.263 . S
O343 Co340 1.970 . S
O343 C342 1.258 . S
O344 Co341 1.966 . S
O344 C342 1.263 . S
C345 O346 1.235 . S
C345 O372 1.289 . S
O346 C345 1.235 . S
C347 C349 1.400 . S
C347 N350 1.351 . S
C347 C352 1.501 . S
C348 C349 1.387 . S
C348 N351 1.341 . S
C349 C347 1.400 . S
C349 C348 1.387 . S
N350 Co341 2.022 . S
N350 C347 1.351 . S
N350 N351 1.365 . S
N351 C348 1.341 . S
N351 N350 1.365 . S
N351 H371 0.862 . S
C352 C347 1.501 . S
C352 H353 0.961 . S
C352 H354 0.961 . S
C352 H355 0.960 . S
H353 C352 0.961 . S
H354 C352 0.961 . S
H355 C352 0.960 . S
C356 N357 1.342 . S
C356 C360 1.401 . S
C356 C361 1.499 . S
N357 Co340 1.989 . S
N357 C356 1.342 . S
N357 N358 1.388 . S
N358 Co341 1.993 . S
N358 N357 1.388 . S
N358 C359 1.346 . S
C359 N358 1.346 . S
C359 C360 1.396 . S
C359 C369 1.510 . S
C360 C356 1.401 . S
C360 C359 1.396 . S
C361 C356 1.499 . S
C361 H362 0.959 . S
C361 H363 0.960 . S
C361 H364 0.961 . S
H362 C361 0.959 . S
H363 C361 0.960 . S
H364 C361 0.961 . S
O365 Co340 1.967 . S
O365 C373 1.258 . S
O366 Co341 1.941 . S
O366 C373 1.266 . S
H367 C369 0.959 . S
H368 C369 0.961 . S
C369 C359 1.510 . S
C369 H367 0.959 . S
C369 H368 0.961 . S
C369 H370 0.960 . S
H370 C369 0.960 . S
H371 N351 0.862 . S
O372 Co340 1.920 . S
O372 C345 1.289 . S
C373 O365 1.258 . S
C373 O366 1.266 . S
Co374 O377 1.970 . S
Co374 N391 1.989 . S
Co374 O399 1.967 . S
Co374 O406 1.920 . S
Co375 O378 1.966 . S
Co375 N384 2.022 . S
Co375 N392 1.993 . S
Co375 O400 1.941 . S
C376 O377 1.258 . S
C376 O378 1.263 . S
O377 Co374 1.970 . S
O377 C376 1.258 . S
O378 Co375 1.966 . S
O378 C376 1.263 . S
C379 O380 1.235 . S
C379 O406 1.289 . S
O380 C379 1.235 . S
C381 C383 1.400 . S
C381 N384 1.351 . S
C381 C386 1.501 . S
C382 C383 1.387 . S
C382 N385 1.341 . S
C383 C381 1.400 . S
C383 C382 1.387 . S
N384 Co375 2.022 . S
N384 C381 1.351 . S
N384 N385 1.365 . S
N385 C382 1.341 . S
N385 N384 1.365 . S
N385 H405 0.862 . S
C386 C381 1.501 . S
C386 H387 0.961 . S
C386 H388 0.961 . S
C386 H389 0.960 . S
H387 C386 0.961 . S
H388 C386 0.961 . S
H389 C386 0.960 . S
C390 N391 1.342 . S
C390 C394 1.401 . S
C390 C395 1.499 . S
N391 Co374 1.989 . S
N391 C390 1.342 . S
N391 N392 1.388 . S
N392 Co375 1.993 . S
N392 N391 1.388 . S
N392 C393 1.346 . S
C393 N392 1.346 . S
C393 C394 1.396 . S
C393 C403 1.510 . S
C394 C390 1.401 . S
C394 C393 1.396 . S
C395 C390 1.499 . S
C395 H396 0.959 . S
C395 H397 0.960 . S
C395 H398 0.961 . S
H396 C395 0.959 . S
H397 C395 0.960 . S
H398 C395 0.961 . S
O399 Co374 1.967 . S
O399 C407 1.258 . S
O400 Co375 1.941 . S
O400 C407 1.266 . S
H401 C403 0.959 . S
H402 C403 0.961 . S
C403 C393 1.510 . S
C403 H401 0.959 . S
C403 H402 0.961 . S
C403 H404 0.960 . S
H404 C403 0.960 . S
H405 N385 0.862 . S
O406 Co374 1.920 . S
O406 C379 1.289 . S
C407 O399 1.258 . S
C407 O400 1.266 . S
H408 C414 0.930 . S
H409 C417 0.930 . S
H410 C418 0.930 . S
H411 C419 0.930 . S
H412 C422 0.930 . S
H413 C423 0.930 . S
C414 H408 0.930 . S
C414 C415 1.355 . S
C414 C416 1.415 . S
C415 C414 1.355 . S
C415 C417 1.419 . S
C416 C414 1.415 . S
C416 C421 1.425 . S
C416 C423 1.409 . S
C417 H409 0.930 . S
C417 C415 1.419 . S
C417 C418 1.362 . S
C418 H410 0.930 . S
C418 C417 1.362 . S
C418 C421 1.409 . S
C419 H411 0.930 . S
C419 C420 1.355 . S
C419 C421 1.415 . S
C420 C419 1.355 . S
C420 C422 1.419 . S
C421 C416 1.425 . S
C421 C418 1.409 . S
C421 C419 1.415 . S
C422 H412 0.930 . S
C422 C420 1.419 . S
C422 C423 1.362 . S
C423 H413 0.930 . S
C423 C416 1.409 . S
C423 C422 1.362 . S
H424 C430 0.930 . S
H425 C433 0.930 . S
H426 C434 0.930 . S
H427 C435 0.930 . S
H428 C438 0.930 . S
H429 C439 0.930 . S
C430 H424 0.930 . S
C430 C431 1.355 . S
C430 C432 1.415 . S
C431 C430 1.355 . S
C431 C433 1.419 . S
C432 C430 1.415 . S
C432 C437 1.425 . S
C432 C439 1.409 . S
C433 H425 0.930 . S
C433 C431 1.419 . S
C433 C434 1.362 . S
C434 H426 0.930 . S
C434 C433 1.362 . S
C434 C437 1.409 . S
C435 H427 0.930 . S
C435 C436 1.355 . S
C435 C437 1.415 . S
C436 C435 1.355 . S
C436 C438 1.419 . S
C437 C432 1.425 . S
C437 C434 1.409 . S
C437 C435 1.415 . S
C438 H428 0.930 . S
C438 C436 1.419 . S
C438 C439 1.362 . S
C439 H429 0.930 . S
C439 C432 1.409 . S
C439 C438 1.362 . S
H440 C446 0.930 . S
H441 C449 0.930 . S
H442 C450 0.930 . S
H443 C451 0.930 . S
H444 C454 0.930 . S
H445 C455 0.930 . S
C446 H440 0.930 . S
C446 C447 1.355 . S
C446 C448 1.415 . S
C447 C446 1.355 . S
C447 C449 1.419 . S
C448 C446 1.415 . S
C448 C453 1.425 . S
C448 C455 1.409 . S
C449 H441 0.930 . S
C449 C447 1.419 . S
C449 C450 1.362 . S
C450 H442 0.930 . S
C450 C449 1.362 . S
C450 C453 1.409 . S
C451 H443 0.930 . S
C451 C452 1.355 . S
C451 C453 1.415 . S
C452 C451 1.355 . S
C452 C454 1.419 . S
C453 C448 1.425 . S
C453 C450 1.409 . S
C453 C451 1.415 . S
C454 H444 0.930 . S
C454 C452 1.419 . S
C454 C455 1.362 . S
C455 H445 0.930 . S
C455 C448 1.409 . S
C455 C454 1.362 . S
H456 C462 0.930 . S
H457 C465 0.930 . S
H458 C466 0.930 . S
H459 C467 0.930 . S
H460 C470 0.930 . S
H461 C471 0.930 . S
C462 H456 0.930 . S
C462 C463 1.355 . S
C462 C464 1.415 . S
C463 C462 1.355 . S
C463 C465 1.419 . S
C464 C462 1.415 . S
C464 C469 1.425 . S
C464 C471 1.409 . S
C465 H457 0.930 . S
C465 C463 1.419 . S
C465 C466 1.362 . S
C466 H458 0.930 . S
C466 C465 1.362 . S
C466 C469 1.409 . S
C467 H459 0.930 . S
C467 C468 1.355 . S
C467 C469 1.415 . S
C468 C467 1.355 . S
C468 C470 1.419 . S
C469 C464 1.425 . S
C469 C466 1.409 . S
C469 C467 1.415 . S
C470 H460 0.930 . S
C470 C468 1.419 . S
C470 C471 1.362 . S
C471 H461 0.930 . S
C471 C464 1.409 . S
C471 C470 1.362 . S
H472 C478 0.930 . S
H473 C481 0.930 . S
H474 C482 0.930 . S
H475 C483 0.930 . S
H476 C486 0.930 . S
H477 C487 0.930 . S
C478 H472 0.930 . S
C478 C479 1.355 . S
C478 C480 1.415 . S
C479 C478 1.355 . S
C479 C481 1.419 . S
C480 C478 1.415 . S
C480 C485 1.425 . S
C480 C487 1.409 . S
C481 H473 0.930 . S
C481 C479 1.419 . S
C481 C482 1.362 . S
C482 H474 0.930 . S
C482 C481 1.362 . S
C482 C485 1.409 . S
C483 H475 0.930 . S
C483 C484 1.355 . S
C483 C485 1.415 . S
C484 C483 1.355 . S
C484 C486 1.419 . S
C485 C480 1.425 . S
C485 C482 1.409 . S
C485 C483 1.415 . S
C486 H476 0.930 . S
C486 C484 1.419 . S
C486 C487 1.362 . S
C487 H477 0.930 . S
C487 C480 1.409 . S
C487 C486 1.362 . S
H488 C494 0.930 . S
H489 C497 0.930 . S
H490 C498 0.930 . S
H491 C499 0.930 . S
H492 C502 0.930 . S
H493 C503 0.930 . S
C494 H488 0.930 . S
C494 C495 1.355 . S
C494 C496 1.415 . S
C495 C494 1.355 . S
C495 C497 1.419 . S
C496 C494 1.415 . S
C496 C501 1.425 . S
C496 C503 1.409 . S
C497 H489 0.930 . S
C497 C495 1.419 . S
C497 C498 1.362 . S
C498 H490 0.930 . S
C498 C497 1.362 . S
C498 C501 1.409 . S
C499 H491 0.930 . S
C499 C500 1.355 . S
C499 C501 1.415 . S
C500 C499 1.355 . S
C500 C502 1.419 . S
C501 C496 1.425 . S
C501 C498 1.409 . S
C501 C499 1.415 . S
C502 H492 0.930 . S
C502 C500 1.419 . S
C502 C503 1.362 . S
C503 H493 0.930 . S
C503 C496 1.409 . S
C503 C502 1.362 . S
H504 C510 0.930 . S
H505 C513 0.930 . S
H506 C514 0.930 . S
H507 C515 0.930 . S
H508 C518 0.930 . S
H509 C519 0.930 . S
C510 H504 0.930 . S
C510 C511 1.355 . S
C510 C512 1.415 . S
C511 C510 1.355 . S
C511 C513 1.419 . S
C512 C510 1.415 . S
C512 C517 1.425 . S
C512 C519 1.409 . S
C513 H505 0.930 . S
C513 C511 1.419 . S
C513 C514 1.362 . S
C514 H506 0.930 . S
C514 C513 1.362 . S
C514 C517 1.409 . S
C515 H507 0.930 . S
C515 C516 1.355 . S
C515 C517 1.415 . S
C516 C515 1.355 . S
C516 C518 1.419 . S
C517 C512 1.425 . S
C517 C514 1.409 . S
C517 C515 1.415 . S
C518 H508 0.930 . S
C518 C516 1.419 . S
C518 C519 1.362 . S
C519 H509 0.930 . S
C519 C512 1.409 . S
C519 C518 1.362 . S
H520 C526 0.930 . S
H521 C529 0.930 . S
H522 C530 0.930 . S
H523 C531 0.930 . S
H524 C534 0.930 . S
H525 C535 0.930 . S
C526 H520 0.930 . S
C526 C527 1.355 . S
C526 C528 1.415 . S
C527 C526 1.355 . S
C527 C529 1.419 . S
C528 C526 1.415 . S
C528 C533 1.425 . S
C528 C535 1.409 . S
C529 H521 0.930 . S
C529 C527 1.419 . S
C529 C530 1.362 . S
C530 H522 0.930 . S
C530 C529 1.362 . S
C530 C533 1.409 . S
C531 H523 0.930 . S
C531 C532 1.355 . S
C531 C533 1.415 . S
C532 C531 1.355 . S
C532 C534 1.419 . S
C533 C528 1.425 . S
C533 C530 1.409 . S
C533 C531 1.415 . S
C534 H524 0.930 . S
C534 C532 1.419 . S
C534 C535 1.362 . S
C535 H525 0.930 . S
C535 C528 1.409 . S
C535 C534 1.362 . S
H536 C542 0.930 . S
H537 C545 0.930 . S
H538 C546 0.930 . S
H539 C547 0.930 . S
H540 C550 0.930 . S
H541 C551 0.930 . S
C542 H536 0.930 . S
C542 C543 1.355 . S
C542 C544 1.415 . S
C543 C542 1.355 . S
C543 C545 1.419 . S
C544 C542 1.415 . S
C544 C549 1.425 . S
C544 C551 1.409 . S
C545 H537 0.930 . S
C545 C543 1.419 . S
C545 C546 1.362 . S
C546 H538 0.930 . S
C546 C545 1.362 . S
C546 C549 1.409 . S
C547 H539 0.930 . S
C547 C548 1.355 . S
C547 C549 1.415 . S
C548 C547 1.355 . S
C548 C550 1.419 . S
C549 C544 1.425 . S
C549 C546 1.409 . S
C549 C547 1.415 . S
C550 H540 0.930 . S
C550 C548 1.419 . S
C550 C551 1.362 . S
C551 H541 0.930 . S
C551 C544 1.409 . S
C551 C550 1.362 . S
H552 C558 0.930 . S
H553 C561 0.930 . S
H554 C562 0.930 . S
H555 C563 0.930 . S
H556 C566 0.930 . S
H557 C567 0.930 . S
C558 H552 0.930 . S
C558 C559 1.355 . S
C558 C560 1.415 . S
C559 C558 1.355 . S
C559 C561 1.419 . S
C560 C558 1.415 . S
C560 C565 1.425 . S
C560 C567 1.409 . S
C561 H553 0.930 . S
C561 C559 1.419 . S
C561 C562 1.362 . S
C562 H554 0.930 . S
C562 C561 1.362 . S
C562 C565 1.409 . S
C563 H555 0.930 . S
C563 C564 1.355 . S
C563 C565 1.415 . S
C564 C563 1.355 . S
C564 C566 1.419 . S
C565 C560 1.425 . S
C565 C562 1.409 . S
C565 C563 1.415 . S
C566 H556 0.930 . S
C566 C564 1.419 . S
C566 C567 1.362 . S
C567 H557 0.930 . S
C567 C560 1.409 . S
C567 C566 1.362 . S
H568 C574 0.930 . S
H569 C577 0.930 . S
H570 C578 0.930 . S
H571 C579 0.930 . S
H572 C582 0.930 . S
H573 C583 0.930 . S
C574 H568 0.930 . S
C574 C575 1.355 . S
C574 C576 1.415 . S
C575 C574 1.355 . S
C575 C577 1.419 . S
C576 C574 1.415 . S
C576 C581 1.425 . S
C576 C583 1.409 . S
C577 H569 0.930 . S
C577 C575 1.419 . S
C577 C578 1.362 . S
C578 H570 0.930 . S
C578 C577 1.362 . S
C578 C581 1.409 . S
C579 H571 0.930 . S
C579 C580 1.355 . S
C579 C581 1.415 . S
C580 C579 1.355 . S
C580 C582 1.419 . S
C581 C576 1.425 . S
C581 C578 1.409 . S
C581 C579 1.415 . S
C582 H572 0.930 . S
C582 C580 1.419 . S
C582 C583 1.362 . S
C583 H573 0.930 . S
C583 C576 1.409 . S
C583 C582 1.362 . S
H584 C590 0.930 . S
H585 C593 0.930 . S
H586 C594 0.930 . S
H587 C595 0.930 . S
H588 C598 0.930 . S
H589 C599 0.930 . S
C590 H584 0.930 . S
C590 C591 1.355 . S
C590 C592 1.415 . S
C591 C590 1.355 . S
C591 C593 1.419 . S
C592 C590 1.415 . S
C592 C597 1.425 . S
C592 C599 1.409 . S
C593 H585 0.930 . S
C593 C591 1.419 . S
C593 C594 1.362 . S
C594 H586 0.930 . S
C594 C593 1.362 . S
C594 C597 1.409 . S
C595 H587 0.930 . S
C595 C596 1.355 . S
C595 C597 1.415 . S
C596 C595 1.355 . S
C596 C598 1.419 . S
C597 C592 1.425 . S
C597 C594 1.409 . S
C597 C595 1.415 . S
C598 H588 0.930 . S
C598 C596 1.419 . S
C598 C599 1.362 . S
C599 H589 0.930 . S
C599 C592 1.409 . S
C599 C598 1.362 . S
H600 C606 0.930 . S
H601 C609 0.930 . S
H602 C610 0.930 . S
H603 C611 0.930 . S
H604 C614 0.930 . S
H605 C615 0.930 . S
C606 H600 0.930 . S
C606 C607 1.355 . S
C606 C608 1.415 . S
C607 C606 1.355 . S
C607 C609 1.419 . S
C608 C606 1.415 . S
C608 C613 1.425 1_565 S
C608 C615 1.409 1_565 S
C609 H601 0.930 . S
C609 C607 1.419 . S
C609 C610 1.362 . S
C610 H602 0.930 . S
C610 C609 1.362 . S
C610 C613 1.409 1_565 S
C611 H603 0.930 . S
C611 C612 1.355 . S
C611 C613 1.415 . S
C612 C611 1.355 . S
C612 C614 1.419 . S
C613 C608 1.425 1_545 S
C613 C610 1.409 1_545 S
C613 C611 1.415 . S
C614 H604 0.930 . S
C614 C612 1.419 . S
C614 C615 1.362 . S
C615 H605 0.930 . S
C615 C608 1.409 1_545 S
C615 C614 1.362 . S
H616 C622 0.930 . S
H617 C625 0.930 . S
H618 C626 0.930 . S
H619 C627 0.930 . S
H620 C630 0.930 . S
H621 C631 0.930 . S
C622 H616 0.930 . S
C622 C623 1.355 . S
C622 C624 1.415 . S
C623 C622 1.355 . S
C623 C625 1.419 . S
C624 C622 1.415 . S
C624 C629 1.425 1_655 S
C624 C631 1.409 . S
C625 H617 0.930 . S
C625 C623 1.419 . S
C625 C626 1.362 1_655 S
C626 H618 0.930 . S
C626 C625 1.362 1_455 S
C626 C629 1.409 . S
C627 H619 0.930 . S
C627 C628 1.355 . S
C627 C629 1.415 . S
C628 C627 1.355 . S
C628 C630 1.419 . S
C629 C624 1.425 1_455 S
C629 C626 1.409 . S
C629 C627 1.415 . S
C630 H620 0.930 . S
C630 C628 1.419 . S
C630 C631 1.362 1_455 S
C631 H621 0.930 . S
C631 C624 1.409 . S
C631 C630 1.362 1_655 S
H632 C638 0.930 . S
H633 C641 0.930 . S
H634 C642 0.930 1_565 S
H635 C643 0.930 . S
H636 C646 0.930 . S
H637 C647 0.930 1_545 S
C638 H632 0.930 . S
C638 C639 1.355 . S
C638 C640 1.415 . S
C639 C638 1.355 . S
C639 C641 1.419 . S
C640 C638 1.415 . S
C640 C645 1.425 1_545 S
C640 C647 1.409 1_545 S
C641 H633 0.930 . S
C641 C639 1.419 . S
C641 C642 1.362 . S
C642 H634 0.930 1_545 S
C642 C641 1.362 . S
C642 C645 1.409 1_545 S
C643 H635 0.930 . S
C643 C644 1.355 . S
C643 C645 1.415 . S
C644 C643 1.355 . S
C644 C646 1.419 . S
C645 C640 1.425 1_565 S
C645 C642 1.409 1_565 S
C645 C643 1.415 . S
C646 H636 0.930 . S
C646 C644 1.419 . S
C646 C647 1.362 . S
C647 H637 0.930 1_565 S
C647 C640 1.409 1_565 S
C647 C646 1.362 . S
H648 C654 0.930 . S
H649 C657 0.930 . S
H650 C658 0.930 . S
H651 C659 0.930 . S
H652 C662 0.930 . S
H653 C663 0.930 . S
C654 H648 0.930 . S
C654 C655 1.355 . S
C654 C656 1.415 . S
C655 C654 1.355 . S
C655 C657 1.419 . S
C656 C654 1.415 . S
C656 C661 1.425 1_655 S
C656 C663 1.409 1_655 S
C657 H649 0.930 . S
C657 C655 1.419 . S
C657 C658 1.362 . S
C658 H650 0.930 . S
C658 C657 1.362 . S
C658 C661 1.409 1_655 S
C659 H651 0.930 . S
C659 C660 1.355 . S
C659 C661 1.415 . S
C660 C659 1.355 . S
C660 C662 1.419 . S
C661 C656 1.425 1_455 S
C661 C658 1.409 1_455 S
C661 C659 1.415 . S
C662 H652 0.930 . S
C662 C660 1.419 . S
C662 C663 1.362 . S
C663 H653 0.930 . S
C663 C656 1.409 1_455 S
C663 C662 1.362 . S
H664 C670 0.930 . S
H665 C673 0.930 . S
H666 C674 0.930 . S
H667 C675 0.930 . S
H668 C678 0.930 . S
H669 C679 0.930 . S
C670 H664 0.930 . S
C670 C671 1.355 . S
C670 C672 1.415 . S
C671 C670 1.355 . S
C671 C673 1.419 . S
C672 C670 1.415 . S
C672 C677 1.425 1_556 S
C672 C679 1.409 1_556 S
C673 H665 0.930 . S
C673 C671 1.419 . S
C673 C674 1.362 . S
C674 H666 0.930 . S
C674 C673 1.362 . S
C674 C677 1.409 1_556 S
C675 H667 0.930 . S
C675 C676 1.355 . S
C675 C677 1.415 . S
C676 C675 1.355 . S
C676 C678 1.419 . S
C677 C672 1.425 1_554 S
C677 C674 1.409 1_554 S
C677 C675 1.415 . S
C678 H668 0.930 . S
C678 C676 1.419 . S
C678 C679 1.362 . S
C679 H669 0.930 . S
C679 C672 1.409 1_554 S
C679 C678 1.362 . S
H680 C686 0.930 . S
H681 C689 0.930 . S
H682 C690 0.930 . S
H683 C691 0.930 . S
H684 C694 0.930 . S
H685 C695 0.930 . S
C686 H680 0.930 . S
C686 C687 1.355 . S
C686 C688 1.415 1_554 S
C687 C686 1.355 . S
C687 C689 1.419 . S
C688 C686 1.415 1_556 S
C688 C693 1.425 1_556 S
C688 C695 1.409 . S
C689 H681 0.930 . S
C689 C687 1.419 . S
C689 C690 1.362 . S
C690 H682 0.930 . S
C690 C689 1.362 . S
C690 C693 1.409 . S
C691 H683 0.930 . S
C691 C692 1.355 . S
C691 C693 1.415 1_556 S
C692 C691 1.355 . S
C692 C694 1.419 . S
C693 C688 1.425 1_554 S
C693 C690 1.409 . S
C693 C691 1.415 1_554 S
C694 H684 0.930 . S
C694 C692 1.419 . S
C694 C695 1.362 . S
C695 H685 0.930 . S
C695 C688 1.409 . S
C695 C694 1.362 . S
H696 C702 0.930 . S
H697 C705 0.930 . S
H698 C706 0.930 . S
H699 C707 0.930 . S
H700 C710 0.930 . S
H701 C711 0.930 . S
C702 H696 0.930 . S
C702 C703 1.355 . S
C702 C704 1.415 . S
C703 C702 1.355 . S
C703 C705 1.419 . S
C704 C702 1.415 . S
C704 C709 1.425 1_554 S
C704 C711 1.409 1_554 S
C705 H697 0.930 . S
C705 C703 1.419 . S
C705 C706 1.362 . S
C706 H698 0.930 . S
C706 C705 1.362 . S
C706 C709 1.409 1_554 S
C707 H699 0.930 . S
C707 C708 1.355 . S
C707 C709 1.415 . S
C708 C707 1.355 . S
C708 C710 1.419 . S
C709 C704 1.425 1_556 S
C709 C706 1.409 1_556 S
C709 C707 1.415 . S
C710 H700 0.930 . S
C710 C708 1.419 . S
C710 C711 1.362 . S
C711 H701 0.930 . S
C711 C704 1.409 1_556 S
C711 C710 1.362 . S
H712 C718 0.930 . S
H713 C721 0.930 . S
H714 C722 0.930 . S
H715 C723 0.930 . S
H716 C726 0.930 . S
H717 C727 0.930 . S
C718 H712 0.930 . S
C718 C719 1.355 . S
C718 C720 1.415 . S
C719 C718 1.355 . S
C719 C721 1.419 . S
C720 C718 1.415 . S
C720 C725 1.425 1_556 S
C720 C727 1.409 1_556 S
C721 H713 0.930 . S
C721 C719 1.419 . S
C721 C722 1.362 . S
C722 H714 0.930 . S
C722 C721 1.362 . S
C722 C725 1.409 1_556 S
C723 H715 0.930 . S
C723 C724 1.355 . S
C723 C725 1.415 . S
C724 C723 1.355 . S
C724 C726 1.419 . S
C725 C720 1.425 1_554 S
C725 C722 1.409 1_554 S
C725 C723 1.415 . S
C726 H716 0.930 . S
C726 C724 1.419 . S
C726 C727 1.362 . S
C727 H717 0.930 . S
C727 C720 1.409 1_554 S
C727 C726 1.362 . S
H728 C734 0.930 . S
H729 C737 0.930 . S
H730 C738 0.930 . S
H731 C739 0.930 . S
H732 C742 0.930 . S
H733 C743 0.930 . S
C734 H728 0.930 . S
C734 C735 1.355 . S
C734 C736 1.415 . S
C735 C734 1.355 . S
C735 C737 1.419 . S
C736 C734 1.415 . S
C736 C741 1.425 1_655 S
C736 C743 1.409 1_655 S
C737 H729 0.930 . S
C737 C735 1.419 . S
C737 C738 1.362 . S
C738 H730 0.930 . S
C738 C737 1.362 . S
C738 C741 1.409 1_655 S
C739 H731 0.930 . S
C739 C740 1.355 . S
C739 C741 1.415 . S
C740 C739 1.355 . S
C740 C742 1.419 . S
C741 C736 1.425 1_455 S
C741 C738 1.409 1_455 S
C741 C739 1.415 . S
C742 H732 0.930 . S
C742 C740 1.419 . S
C742 C743 1.362 . S
C743 H733 0.930 . S
C743 C736 1.409 1_455 S
C743 C742 1.362 . S
H744 C750 0.930 . S
H745 C753 0.930 . S
H746 C754 0.930 . S
H747 C755 0.930 . S
H748 C758 0.930 . S
H749 C759 0.930 . S
C750 H744 0.930 . S
C750 C751 1.355 . S
C750 C752 1.415 . S
C751 C750 1.355 . S
C751 C753 1.419 . S
C752 C750 1.415 . S
C752 C757 1.425 1_655 S
C752 C759 1.409 1_655 S
C753 H745 0.930 . S
C753 C751 1.419 . S
C753 C754 1.362 . S
C754 H746 0.930 . S
C754 C753 1.362 . S
C754 C757 1.409 1_655 S
C755 H747 0.930 . S
C755 C756 1.355 . S
C755 C757 1.415 . S
C756 C755 1.355 . S
C756 C758 1.419 . S
C757 C752 1.425 1_455 S
C757 C754 1.409 1_455 S
C757 C755 1.415 . S
C758 H748 0.930 . S
C758 C756 1.419 . S
C758 C759 1.362 . S
C759 H749 0.930 . S
C759 C752 1.409 1_455 S
C759 C758 1.362 . S
H760 C766 0.930 . S
H761 C769 0.930 . S
H762 C770 0.930 . S
H763 C771 0.930 . S
H764 C774 0.930 . S
H765 C775 0.930 . S
C766 H760 0.930 . S
C766 C767 1.355 . S
C766 C768 1.391 1_565 S
C767 C766 1.355 . S
C767 C769 1.419 . S
C768 C766 1.391 1_545 S
C768 C773 1.423 1_545 S
C768 C775 1.435 . S
C769 H761 0.930 . S
C769 C767 1.419 . S
C769 C770 1.362 . S
C770 H762 0.930 . S
C770 C769 1.362 . S
C770 C773 1.435 . S
C771 H763 0.930 . S
C771 C772 1.355 . S
C771 C773 1.391 1_545 S
C772 C771 1.355 . S
C772 C774 1.419 . S
C773 C768 1.423 1_565 S
C773 C770 1.435 . S
C773 C771 1.391 1_565 S
C774 H764 0.930 . S
C774 C772 1.419 . S
C774 C775 1.362 . S
C775 H765 0.930 . S
C775 C768 1.435 . S
C775 C774 1.362 . S
H776 C782 0.930 . S
H777 C785 0.930 . S
H778 C786 0.930 . S
H779 C787 0.930 . S
H780 C790 0.930 . S
H781 C791 0.930 . S
C782 H776 0.930 . S
C782 C783 1.355 . S
C782 C784 1.415 1_545 S
C783 C782 1.355 . S
C783 C785 1.419 . S
C784 C782 1.415 1_565 S
C784 C789 1.425 1_565 S
C784 C791 1.409 . S
C785 H777 0.930 . S
C785 C783 1.419 . S
C785 C786 1.362 . S
C786 H778 0.930 . S
C786 C785 1.362 . S
C786 C789 1.409 . S
C787 H779 0.930 . S
C787 C788 1.355 . S
C787 C789 1.415 1_565 S
C788 C787 1.355 . S
C788 C790 1.419 . S
C789 C784 1.425 1_545 S
C789 C786 1.409 . S
C789 C787 1.415 1_545 S
C790 H780 0.930 . S
C790 C788 1.419 . S
C790 C791 1.362 . S
C791 H781 0.930 . S
C791 C784 1.409 . S
C791 C790 1.362 . S
H792 C798 0.930 . S
H793 C801 0.930 . S
H794 C802 0.930 . S
H795 C803 0.930 . S
H796 C806 0.930 . S
H797 C807 0.930 . S
C798 H792 0.930 . S
C798 C799 1.355 . S
C798 C800 1.394 1_545 S
C799 C798 1.355 . S
C799 C801 1.419 1_455 S
C800 C798 1.394 1_565 S
C800 C805 1.424 1_465 S
C800 C807 1.431 . S
C801 H793 0.930 . S
C801 C799 1.419 1_655 S
C801 C802 1.362 . S
C802 H794 0.930 . S
C802 C801 1.362 . S
C802 C805 1.431 . S
C803 H795 0.930 . S
C803 C804 1.355 . S
C803 C805 1.394 1_565 S
C804 C803 1.355 . S
C804 C806 1.419 1_655 S
C805 C800 1.424 1_645 S
C805 C802 1.431 . S
C805 C803 1.394 1_545 S
C806 H796 0.930 . S
C806 C804 1.419 1_455 S
C806 C807 1.362 . S
C807 H797 0.930 . S
C807 C800 1.431 . S
C807 C806 1.362 . S
H808 C814 0.930 . S
H809 C817 0.930 . S
H810 C818 0.943 . S
H811 C819 0.930 . S
H812 C822 0.930 . S
H813 C823 0.943 . S
C814 H808 0.930 . S
C814 C815 1.355 1_655 S
C814 C816 1.415 . S
C815 C814 1.355 1_455 S
C815 C817 1.419 . S
C816 C814 1.415 . S
C816 C821 1.425 1_665 S
C816 C823 1.415 . S
C817 H809 0.930 . S
C817 C815 1.419 . S
C817 C818 1.344 1_565 S
C818 H810 0.943 . S
C818 C817 1.344 1_545 S
C818 C821 1.415 . S
C819 H811 0.930 . S
C819 C820 1.355 1_455 S
C819 C821 1.415 . S
C820 C819 1.355 1_655 S
C820 C822 1.419 . S
C821 C816 1.425 1_445 S
C821 C818 1.415 . S
C821 C819 1.415 . S
C822 H812 0.930 . S
C822 C820 1.419 . S
C822 C823 1.344 1_545 S
C823 H813 0.943 . S
C823 C816 1.415 . S
C823 C822 1.344 1_565 S
H824 C830 0.930 . S
H825 C833 0.930 . S
H826 C834 0.944 . S
H827 C835 0.930 . S
H828 C838 0.930 . S
H829 C839 0.944 . S
C830 H824 0.930 . S
C830 C831 1.355 1_565 S
C830 C832 1.415 . S
C831 C830 1.355 1_545 S
C831 C833 1.419 . S
C832 C830 1.415 . S
C832 C837 1.425 1_564 S
C832 C839 1.416 . S
C833 H825 0.930 . S
C833 C831 1.419 . S
C833 C834 1.342 1_554 S
C834 H826 0.944 . S
C834 C833 1.342 1_556 S
C834 C837 1.416 . S
C835 H827 0.930 . S
C835 C836 1.355 1_545 S
C835 C837 1.415 . S
C836 C835 1.355 1_565 S
C836 C838 1.419 . S
C837 C832 1.425 1_546 S
C837 C834 1.416 . S
C837 C835 1.415 . S
C838 H828 0.930 . S
C838 C836 1.419 . S
C838 C839 1.342 1_556 S
C839 H829 0.944 . S
C839 C832 1.416 . S
C839 C838 1.342 1_554 S
H840 C846 0.930 1_554 S
H841 C849 0.930 . S
H842 C850 0.930 1_655 S
H843 C851 0.930 1_556 S
H844 C854 0.930 . S
H845 C855 0.930 1_455 S
C846 H840 0.930 1_556 S
C846 C847 1.355 . S
C846 C848 1.415 1_556 S
C847 C846 1.355 . S
C847 C849 1.419 . S
C848 C846 1.415 1_554 S
C848 C853 1.425 1_454 S
C848 C855 1.409 1_455 S
C849 H841 0.930 . S
C849 C847 1.419 . S
C849 C850 1.362 . S
C850 H842 0.930 1_455 S
C850 C849 1.362 . S
C850 C853 1.409 1_455 S
C851 H843 0.930 1_554 S
C851 C852 1.355 . S
C851 C853 1.415 1_554 S
C852 C851 1.355 . S
C852 C854 1.419 . S
C853 C848 1.425 1_656 S
C853 C850 1.409 1_655 S
C853 C851 1.415 1_556 S
C854 H844 0.930 . S
C854 C852 1.419 . S
C854 C855 1.362 . S
C855 H845 0.930 1_655 S
C855 C848 1.409 1_655 S
C855 C854 1.362 . S
H856 C862 0.930 1_565 S
H857 C865 0.930 . S
H858 C866 0.930 1_554 S
H859 C867 0.930 1_545 S
H860 C870 0.930 . S
H861 C871 0.930 1_556 S
C862 H856 0.930 1_545 S
C862 C863 1.355 . S
C862 C864 1.415 1_545 S
C863 C862 1.355 . S
C863 C865 1.419 . S
C864 C862 1.415 1_565 S
C864 C869 1.425 1_566 S
C864 C871 1.409 1_556 S
C865 H857 0.930 . S
C865 C863 1.419 . S
C865 C866 1.362 . S
C866 H858 0.930 1_556 S
C866 C865 1.362 . S
C866 C869 1.409 1_556 S
C867 H859 0.930 1_565 S
C867 C868 1.355 . S
C867 C869 1.415 1_565 S
C868 C867 1.355 . S
C868 C870 1.419 . S
C869 C864 1.425 1_544 S
C869 C866 1.409 1_554 S
C869 C867 1.415 1_545 S
C870 H860 0.930 . S
C870 C868 1.419 . S
C870 C871 1.362 . S
C871 H861 0.930 1_554 S
C871 C864 1.409 1_554 S
C871 C870 1.362 . S
H872 C878 0.930 . S
H873 C881 0.937 . S
H874 C882 0.930 . S
H875 C883 0.930 . S
H876 C886 0.937 . S
H877 C887 0.930 . S
C878 H872 0.930 . S
C878 C879 1.355 . S
C878 C880 1.444 . S
C879 C878 1.355 . S
C879 C881 1.395 1_556 S
C880 C878 1.444 . S
C880 C885 1.423 1_656 S
C880 C887 1.382 1_655 S
C881 H873 0.937 . S
C881 C879 1.395 1_554 S
C881 C882 1.381 . S
C882 H874 0.930 . S
C882 C881 1.381 . S
C882 C885 1.382 1_655 S
C883 H875 0.930 . S
C883 C884 1.355 . S
C883 C885 1.444 . S
C884 C883 1.355 . S
C884 C886 1.395 1_554 S
C885 C880 1.423 1_454 S
C885 C882 1.382 1_455 S
C885 C883 1.444 . S
C886 H876 0.937 . S
C886 C884 1.395 1_556 S
C886 C887 1.381 . S
C887 H877 0.930 . S
C887 C880 1.382 1_455 S
C887 C886 1.381 . S
C415 C190 1.195 . S
C420 C9 1.181 . S
C431 C54 1.206 . S
C436 C213 1.120 . S
C447 C77 1.108 . S
C452 C258 1.239 . S
C463 C145 1.202 . S
C468 C122 1.199 . S
C479 C394 1.196 . S
C484 C43 1.193 . S
C495 C88 1.234 . S
C500 C281 1.178 . S
C511 C111 1.175 . S
C516 C326 1.235 . S
C527 C20 1.231 . S
C532 C349 1.093 . S
C543 C224 1.237 . S
C548 C383 1.101 . S
C559 C179 1.153 . S
C564 C360 1.197 . S
C575 C247 1.101 . S
C580 C292 1.237 . S
C591 C156 1.221 . S
C596 C315 1.095 . S
C607 C39 0.541 . S
C612 C5 0.490 . S
C623 C70 1.083 . S
C628 C36 1.142 . S
C639 C107 0.374 . S
C644 C73 0.422 . S
C655 C104 1.074 . S
C660 C2 1.167 . S
C671 C345 0.466 . S
C676 C141 0.534 . S
C687 C376 1.101 . S
C692 C172 1.169 . S
C703 C209 0.518 . S
C708 C277 0.435 . S
C719 C240 1.173 . S
C724 C308 1.091 . S
C735 C311 0.541 . S
C740 C379 0.504 . S
C751 C243 0.527 . S
C756 C175 0.533 . S
C767 C206 1.167 . S
C772 C138 1.106 . S
C783 C342 1.090 . S
C788 C274 1.173 . S
C799 C33 1.443 . S
C804 C101 1.468 . S
C815 C67 1.416 . S
C820 C135 1.418 . S
C831 C169 1.433 . S
C836 C305 1.411 . S
C847 C203 1.450 . S
C852 C339 1.417 . S
C863 C373 1.411 . S
C868 C237 1.429 . S
C879 C271 1.468 . S
C884 C407 1.451 . S
