# Generated by pormake.
# Topology yfy, (5)-cn, num edge types: 1
# Building blocks:
#     Node 0, Type 0, BuildingBlock: XOMCOT_clean_sbu_1, # of connection points: 5
#     Node 1, Type 0, BuildingBlock: XOMCOT_clean_sbu_1, # of connection points: 5
#     Node 2, Type 0, BuildingBlock: XOMCOT_clean_sbu_1, # of connection points: 5
#     Node 3, Type 0, BuildingBlock: XOMCOT_clean_sbu_1, # of connection points: 5
#     Node 4, Type 0, BuildingBlock: XOMCOT_clean_sbu_1, # of connection points: 5
#     Node 5, Type 0, BuildingBlock: XOMCOT_clean_sbu_1, # of connection points: 5
#     Node 6, Type 0, BuildingBlock: XOMCOT_clean_sbu_1, # of connection points: 5
#     Node 7, Type 0, BuildingBlock: XOMCOT_clean_sbu_1, # of connection points: 5
#     Node 8, Type 0, BuildingBlock: XOMCOT_clean_sbu_1, # of connection points: 5
#     Node 9, Type 0, BuildingBlock: XOMCOT_clean_sbu_1, # of connection points: 5
#     Node 10, Type 0, BuildingBlock: XOMCOT_clean_sbu_1, # of connection points: 5
#     Node 11, Type 0, BuildingBlock: XOMCOT_clean_sbu_1, # of connection points: 5
#     Node 12, Type 0, BuildingBlock: XOMCOT_clean_sbu_1, # of connection points: 5
#     Node 13, Type 0, BuildingBlock: XOMCOT_clean_sbu_1, # of connection points: 5
#     Node 14, Type 0, BuildingBlock: XOMCOT_clean_sbu_1, # of connection points: 5
#     Node 15, Type 0, BuildingBlock: XOMCOT_clean_sbu_1, # of connection points: 5
#     Edge 16, Type (0, 0), BuildingBlock: KIFKEQ_clean_linker_1, # of connection points: 2
#     Edge 17, Type (0, 0), BuildingBlock: KIFKEQ_clean_linker_1, # of connection points: 2
#     Edge 18, Type (0, 0), BuildingBlock: KIFKEQ_clean_linker_1, # of connection points: 2
#     Edge 19, Type (0, 0), BuildingBlock: KIFKEQ_clean_linker_1, # of connection points: 2
#     Edge 20, Type (0, 0), BuildingBlock: KIFKEQ_clean_linker_1, # of connection points: 2
#     Edge 21, Type (0, 0), BuildingBlock: KIFKEQ_clean_linker_1, # of connection points: 2
#     Edge 22, Type (0, 0), BuildingBlock: KIFKEQ_clean_linker_1, # of connection points: 2
#     Edge 23, Type (0, 0), BuildingBlock: KIFKEQ_clean_linker_1, # of connection points: 2
#     Edge 24, Type (0, 0), BuildingBlock: KIFKEQ_clean_linker_1, # of connection points: 2
#     Edge 25, Type (0, 0), BuildingBlock: KIFKEQ_clean_linker_1, # of connection points: 2
#     Edge 26, Type (0, 0), BuildingBlock: KIFKEQ_clean_linker_1, # of connection points: 2
#     Edge 27, Type (0, 0), BuildingBlock: KIFKEQ_clean_linker_1, # of connection points: 2
#     Edge 28, Type (0, 0), BuildingBlock: KIFKEQ_clean_linker_1, # of connection points: 2
#     Edge 29, Type (0, 0), BuildingBlock: KIFKEQ_clean_linker_1, # of connection points: 2
#     Edge 30, Type (0, 0), BuildingBlock: KIFKEQ_clean_linker_1, # of connection points: 2
#     Edge 31, Type (0, 0), BuildingBlock: KIFKEQ_clean_linker_1, # of connection points: 2
#     Edge 32, Type (0, 0), BuildingBlock: KIFKEQ_clean_linker_1, # of connection points: 2
#     Edge 33, Type (0, 0), BuildingBlock: KIFKEQ_clean_linker_1, # of connection points: 2
#     Edge 34, Type (0, 0), BuildingBlock: KIFKEQ_clean_linker_1, # of connection points: 2
#     Edge 35, Type (0, 0), BuildingBlock: KIFKEQ_clean_linker_1, # of connection points: 2
#     Edge 36, Type (0, 0), BuildingBlock: KIFKEQ_clean_linker_1, # of connection points: 2
#     Edge 37, Type (0, 0), BuildingBlock: KIFKEQ_clean_linker_1, # of connection points: 2
#     Edge 38, Type (0, 0), BuildingBlock: KIFKEQ_clean_linker_1, # of connection points: 2
#     Edge 39, Type (0, 0), BuildingBlock: KIFKEQ_clean_linker_1, # of connection points: 2
#     Edge 40, Type (0, 0), BuildingBlock: KIFKEQ_clean_linker_1, # of connection points: 2
#     Edge 41, Type (0, 0), BuildingBlock: KIFKEQ_clean_linker_1, # of connection points: 2
#     Edge 42, Type (0, 0), BuildingBlock: KIFKEQ_clean_linker_1, # of connection points: 2
#     Edge 43, Type (0, 0), BuildingBlock: KIFKEQ_clean_linker_1, # of connection points: 2
#     Edge 44, Type (0, 0), BuildingBlock: KIFKEQ_clean_linker_1, # of connection points: 2
#     Edge 45, Type (0, 0), BuildingBlock: KIFKEQ_clean_linker_1, # of connection points: 2
#     Edge 46, Type (0, 0), BuildingBlock: KIFKEQ_clean_linker_1, # of connection points: 2
#     Edge 47, Type (0, 0), BuildingBlock: KIFKEQ_clean_linker_1, # of connection points: 2
#     Edge 48, Type (0, 0), BuildingBlock: KIFKEQ_clean_linker_1, # of connection points: 2
#     Edge 49, Type (0, 0), BuildingBlock: KIFKEQ_clean_linker_1, # of connection points: 2
#     Edge 50, Type (0, 0), BuildingBlock: KIFKEQ_clean_linker_1, # of connection points: 2
#     Edge 51, Type (0, 0), BuildingBlock: KIFKEQ_clean_linker_1, # of connection points: 2
#     Edge 52, Type (0, 0), BuildingBlock: KIFKEQ_clean_linker_1, # of connection points: 2
#     Edge 53, Type (0, 0), BuildingBlock: KIFKEQ_clean_linker_1, # of connection points: 2
#     Edge 54, Type (0, 0), BuildingBlock: KIFKEQ_clean_linker_1, # of connection points: 2
#     Edge 55, Type (0, 0), BuildingBlock: KIFKEQ_clean_linker_1, # of connection points: 2
# Relax obj value: 0.170
# Max RMSD: 0.197
# Mean RMSD: 0.197
data_MOF--net-yfy--node1-XOMCOT_clean_sbu_1--edge1-KIFKEQ_clean_linker_1
_symmetry_space_group_name_H-M    P1
_symmetry_Int_Tables_number       1
_symmetry_cell_setting            triclinic
loop_
_symmetry_equiv_pos_as_xyz
'x, y, z'
_cell_length_a     43.325013
_cell_length_b     43.23523
_cell_length_c     51.625491
_cell_angle_alpha  89.868701
_cell_angle_beta   90.255151
_cell_angle_gamma 90.103609
loop_
_atom_site_label
_atom_site_type_symbol
_atom_site_fract_x
_atom_site_fract_y
_atom_site_fract_z
_atom_type_partial_charge
C0 C 0.98884 0.31035 0.34009 0.0
C1 C 0.96415 0.291 0.33571 0.0
N2 N 0.9647 0.28186 0.31075 0.0
N3 N 1.00545 0.31297 0.31818 0.0
C4 C 0.98934 0.29657 0.3004 0.0
H5 H 0.99509 0.32067 0.35845 0.0
Co6 Co 0.04313 0.33398 0.31413 0.0
C7 C 0.06132 0.27117 0.28892 0.0
O8 O 0.03665 0.25464 0.29402 0.0
N9 N 0.08136 0.35495 0.30946 0.0
C10 C 0.13238 0.36106 0.3074 0.0
C11 C 0.10888 0.34391 0.3178 0.0
C12 C 0.08906 0.37904 0.29382 0.0
N13 N 0.11998 0.38301 0.29212 0.0
O14 O 1.02674 0.35269 0.2833 0.0
H15 H 0.11201 0.32328 0.32938 0.0
H16 H 0.07265 0.39203 0.28234 0.0
O17 O 0.06268 0.29956 0.29574 0.0
C18 C 1.01271 0.37645 0.29212 0.0
O19 O 1.01512 0.3823 0.31704 0.0
N20 N 0.05678 0.3184 0.34623 0.0
C21 C 0.06848 0.30203 0.39753 0.0
C22 C 0.06337 0.27921 0.37879 0.0
C23 C 0.05764 0.28788 0.35312 0.0
C24 C 0.0618 0.34083 0.36429 0.0
C25 C 0.06822 0.33315 0.38997 0.0
H26 H 0.05209 0.2701 0.33937 0.0
H27 H 0.05995 0.36492 0.3588 0.0
H28 H 0.99643 0.29444 0.28042 0.0
H29 H 0.94827 0.28275 0.35031 0.0
H30 H 0.15682 0.35678 0.30997 0.0
H31 H 0.06298 0.25495 0.38407 0.0
H32 H 0.07142 0.35144 0.40405 0.0
C33 C 0.84117 0.99656 0.33672 0.0
C34 C 0.86118 0.9725 0.33278 0.0
N35 N 0.87167 0.97428 0.30834 0.0
N36 N 0.83923 1.01397 0.31503 0.0
C37 C 0.85748 0.99917 0.29777 0.0
H38 H 0.82877 1.00105 0.35443 0.0
Co39 Co 0.81304 0.0487 0.31227 0.0
C40 C 0.87022 0.0764 0.28421 0.0
O41 O 0.88999 0.05364 0.28675 0.0
N42 N 0.78651 0.08365 0.30943 0.0
C43 C 0.77067 0.13265 0.31077 0.0
C44 C 0.79284 0.11213 0.31885 0.0
C45 C 0.76027 0.08777 0.29538 0.0
N46 N 0.75017 0.11741 0.29585 0.0
O47 O 0.79476 0.03086 0.28189 0.0
H48 H 0.81327 0.11822 0.32982 0.0
H49 H 0.74921 0.06971 0.28428 0.0
O50 O 0.84289 0.0736 0.2931 0.0
C51 C 0.7744 1.01297 0.29186 0.0
O52 O 0.77168 1.01277 0.31722 0.0
N53 N 0.82843 0.06325 0.34388 0.0
C54 C 0.84614 0.06956 0.39542 0.0
C55 C 0.86794 0.07278 0.3756 0.0
C56 C 0.85863 0.06921 0.34979 0.0
C57 C 0.80679 0.06163 0.36288 0.0
C58 C 0.81511 0.06486 0.38877 0.0
H59 H 0.87602 0.06917 0.33497 0.0
H60 H 0.78313 0.05612 0.35794 0.0
H61 H 0.85991 1.00606 0.27772 0.0
H62 H 0.86803 0.95535 0.34699 0.0
H63 H 0.77077 0.15731 0.31434 0.0
H64 H 0.89216 0.07615 0.38009 0.0
H65 H 0.79754 0.06262 0.40352 0.0
C66 C 0.16158 0.83442 0.32678 0.0
C67 C 0.18118 0.85806 0.32023 0.0
N68 N 0.16638 0.87697 0.3036 0.0
N69 N 0.13446 0.83809 0.31429 0.0
C70 C 0.1379 0.86451 0.30037 0.0
H71 H 0.16693 0.81537 0.33962 0.0
Co72 Co 0.10374 0.80797 0.31698 0.0
C73 C 0.04485 0.83514 0.30028 0.0
O74 O 0.03232 0.81961 0.31943 0.0
N75 N 0.07362 0.77582 0.31949 0.0
C76 C 0.04265 0.73727 0.33166 0.0
C77 C 0.06321 0.75946 0.34003 0.0
C78 C 0.05928 0.76261 0.29888 0.0
N79 N 0.04016 0.73924 0.3057 0.0
O80 O 0.12009 0.78786 0.28691 0.0
H81 H 0.07007 0.76277 0.35992 0.0
H82 H 0.06254 0.77046 0.27917 0.0
O83 O 0.07415 0.8338 0.29658 0.0
C84 C 0.13741 0.76683 0.2966 0.0
O85 O 0.13885 0.76444 0.32196 0.0
N86 N 0.09178 0.82594 0.34837 0.0
C87 C 0.09081 0.85073 0.3981 0.0
C88 C 0.07736 0.86686 0.37738 0.0
C89 C 0.07892 0.85443 0.35236 0.0
C90 C 0.10525 0.81045 0.36842 0.0
C91 C 0.10472 0.82217 0.39342 0.0
H92 H 0.07136 0.86852 0.33632 0.0
H93 H 0.11758 0.78921 0.36478 0.0
H94 H 0.12041 0.87389 0.28756 0.0
H95 H 0.2046 0.86117 0.32716 0.0
H96 H 0.03096 0.72058 0.34382 0.0
H97 H 0.06723 0.88947 0.3803 0.0
H98 H 0.11569 0.80925 0.40893 0.0
C99 C 0.31772 0.16357 0.30845 0.0
C100 C 0.29441 0.1846 0.30483 0.0
N101 N 0.26783 0.16901 0.30093 0.0
N102 N 0.30611 0.13472 0.30682 0.0
C103 C 0.27558 0.13871 0.30221 0.0
H104 H 0.34171 0.16899 0.31211 0.0
Co105 Co 0.33052 0.09949 0.31052 0.0
C106 C 0.29305 0.06343 0.27129 0.0
O107 O 0.31096 0.06939 0.25143 0.0
N108 N 0.35577 0.06435 0.31405 0.0
C109 C 0.39246 0.0329 0.32882 0.0
C110 C 0.37198 0.05592 0.33531 0.0
C111 C 0.36664 0.04598 0.29498 0.0
N112 N 0.38914 1.02678 0.30339 0.0
O113 O 0.35131 0.11053 0.27919 0.0
H114 H 0.37038 0.06707 0.35398 0.0
H115 H 0.36006 0.04836 0.27487 0.0
O116 O 0.29939 0.07464 0.29347 0.0
C117 C 0.37734 0.12217 0.2857 0.0
O118 O 0.38533 0.12164 0.31029 0.0
N119 N 0.31243 0.09136 0.34243 0.0
C120 C 0.29244 0.08467 0.39335 0.0
C121 C 0.2842 0.06279 0.37442 0.0
C122 C 0.29462 0.06647 0.34895 0.0
C123 C 0.32068 0.11266 0.36053 0.0
C124 C 0.31087 0.10987 0.38601 0.0
H125 H 0.28909 0.04892 0.33482 0.0
H126 H 0.33573 0.1316 0.35523 0.0
H127 H 0.25932 0.11982 0.30024 0.0
H128 H 0.29701 0.20949 0.30476 0.0
H129 H 0.4093 1.02232 0.34159 0.0
H130 H 0.27024 0.04283 0.3793 0.0
H131 H 0.31874 0.12677 0.40003 0.0
C132 C 1.00373 0.848 0.64316 0.0
C133 C 0.97887 0.86722 0.64649 0.0
N134 N 0.97907 0.87731 0.67113 0.0
N135 N 1.01997 0.84623 0.66548 0.0
C136 C 1.00378 0.86368 0.68241 0.0
H137 H 1.00967 0.83612 0.62547 0.0
Co138 Co 0.05531 0.82152 0.66989 0.0
C139 C 0.07923 0.88029 0.69869 0.0
O140 O 0.05586 0.89922 0.69561 0.0
N141 N 0.091 0.79655 0.67458 0.0
C142 C 0.14094 0.78466 0.67729 0.0
C143 C 0.11976 0.80489 0.66716 0.0
C144 C 0.09555 0.77084 0.68926 0.0
N145 N 0.12576 0.76334 0.69133 0.0
O146 O 0.03661 0.80321 0.69979 0.0
H147 H 0.12543 0.82567 0.65649 0.0
H148 H 0.07754 0.75911 0.69989 0.0
O149 O 0.0778 0.85285 0.68964 0.0
C150 C 1.01995 0.7817 0.68999 0.0
O151 O 1.02097 0.77766 0.66477 0.0
N152 N 0.07114 0.8371 0.63876 0.0
C153 C 0.08575 0.85446 0.58833 0.0
C154 C 0.08282 0.87684 0.60777 0.0
C155 C 0.07549 0.86765 0.633 0.0
C156 C 0.07384 0.81513 0.62005 0.0
C157 C 0.08154 0.82324 0.5948 0.0
H158 H 0.07176 0.88521 0.6474 0.0
H159 H 0.06913 0.79117 0.62468 0.0
H160 H 1.00963 0.86599 0.70271 0.0
H161 H 0.9623 0.87385 0.63174 0.0
H162 H 0.16578 0.78642 0.67558 0.0
H163 H 0.08557 0.9012 0.60339 0.0
H164 H 0.08286 0.80532 0.58022 0.0
C165 C 0.31222 0.99977 0.64524 0.0
C166 C 0.2923 0.97566 0.64991 0.0
N167 N 0.28337 0.97694 0.67485 0.0
N168 N 0.31543 1.01683 0.66693 0.0
C169 C 0.29869 1.00146 0.68493 0.0
H170 H 0.32288 1.00508 0.62686 0.0
Co171 Co 0.33918 0.05324 0.66998 0.0
C172 C 0.27836 0.07602 0.69492 0.0
O173 O 0.26109 0.05165 0.69044 0.0
N174 N 0.36328 0.08987 0.67336 0.0
C175 C 0.37631 0.13975 0.67187 0.0
C176 C 0.35528 0.11795 0.6639 0.0
C177 C 0.38919 0.09556 0.68747 0.0
N178 N 0.39761 0.12572 0.68681 0.0
O179 O 0.35698 0.03678 0.70107 0.0
H180 H 0.33461 0.12273 0.65279 0.0
H181 H 0.40134 0.07823 0.69864 0.0
O182 O 0.30671 0.07616 0.68811 0.0
C183 C 0.37911 1.02044 0.69214 0.0
O184 O 0.384 1.02107 0.66701 0.0
N185 N 0.32435 0.06667 0.63765 0.0
C186 C 0.30853 0.073 0.58551 0.0
C187 C 0.2857 0.07348 0.60469 0.0
C188 C 0.29409 0.07015 0.63072 0.0
C189 C 0.34689 0.06741 0.61935 0.0
C190 C 0.33954 0.07094 0.59324 0.0
H191 H 0.27603 0.0682 0.64482 0.0
H192 H 0.37069 0.06389 0.62501 0.0
H193 H 0.29696 1.00877 0.7049 0.0
H194 H 0.28372 0.95952 0.63558 0.0
H195 H 0.37504 0.16436 0.6681 0.0
H196 H 0.26145 0.07458 0.59958 0.0
H197 H 0.35801 0.07103 0.57917 0.0
C198 C 0.15205 0.31548 0.64805 0.0
C199 C 0.17503 0.29378 0.65078 0.0
N200 N 0.16928 0.27672 0.67217 0.0
N201 N 0.13174 0.31211 0.6675 0.0
C202 C 0.14292 0.28857 0.682 0.0
H203 H 0.14979 0.33215 0.6325 0.0
Co204 Co 0.09556 0.3348 0.6717 0.0
C205 C 0.06054 0.29932 0.71077 0.0
O206 O 0.05877 0.3239 0.7256 0.0
N207 N 0.05861 0.35767 0.67626 0.0
C208 C 1.00857 0.36934 0.67757 0.0
C209 C 0.03002 0.34839 0.66904 0.0
C210 C 0.05371 0.38433 0.68938 0.0
N211 N 1.02348 0.39187 0.69052 0.0
O212 O 0.11339 0.35328 0.70209 0.0
H213 H 1.02485 0.32697 0.65914 0.0
H214 H 0.07174 0.39765 0.69863 0.0
O215 O 0.07651 0.3005 0.69011 0.0
C216 C 0.12889 0.37593 0.69278 0.0
O217 O 0.12707 0.38107 0.6677 0.0
N218 N 0.0809 0.31907 0.64031 0.0
C219 C 0.07024 0.3008 0.58951 0.0
C220 C 0.07507 0.27863 0.60892 0.0
C221 C 0.08015 0.28828 0.63442 0.0
C222 C 0.07605 0.34083 0.62161 0.0
C223 C 0.07006 0.33216 0.59612 0.0
H224 H 0.0854 0.27115 0.64905 0.0
H225 H 0.07796 0.36511 0.62638 0.0
H226 H 0.13174 0.2802 0.69934 0.0
H227 H 0.19386 0.29025 0.63743 0.0
H228 H 0.98376 0.36725 0.6756 0.0
H229 H 0.07584 0.25423 0.60426 0.0
H230 H 0.06703 0.34985 0.58143 0.0
C231 C 0.84074 0.15779 0.65063 0.0
C232 C 0.8649 0.17718 0.6562 0.0
N233 N 0.88062 0.16536 0.67644 0.0
N234 N 0.84096 0.13371 0.66726 0.0
C235 C 0.86575 0.13883 0.68282 0.0
H236 H 0.82336 0.16157 0.63587 0.0
Co237 Co 0.80846 0.10522 0.66746 0.0
C238 C 0.83285 0.04553 0.68517 0.0
O239 O 0.8149 0.03311 0.66744 0.0
N240 N 0.77392 0.07762 0.66794 0.0
C241 C 0.73033 0.05198 0.65929 0.0
C242 C 0.75309 0.07064 0.64922 0.0
C243 C 0.7627 0.06323 0.68935 0.0
N244 N 0.7365 0.0472 0.68452 0.0
O245 O 0.79192 0.12494 0.69748 0.0
H246 H 0.75354 0.07879 0.62951 0.0
H247 H 0.77347 0.06474 0.70827 0.0
O248 O 0.83357 0.07508 0.68788 0.0
C249 C 0.77268 0.14406 0.68757 0.0
O250 O 0.77001 0.14493 0.66221 0.0
N251 N 0.82323 0.0896 0.63592 0.0
C252 C 0.84507 0.08261 0.58555 0.0
C253 C 0.86186 0.07077 0.60659 0.0
C254 C 0.85096 0.07533 0.63179 0.0
C255 C 0.80717 0.10167 0.61557 0.0
C256 C 0.81731 0.09801 0.59028 0.0
H257 H 0.86581 0.06905 0.64775 0.0
H258 H 0.78718 0.11591 0.61906 0.0
H259 H 0.87189 0.12435 0.69917 0.0
H260 H 0.87024 0.19872 0.64643 0.0
H261 H 0.71085 0.04245 0.64879 0.0
H262 H 0.88395 0.05964 0.60368 0.0
H263 H 0.80387 0.10789 0.57458 0.0
C264 C 0.49959 0.80824 0.84112 0.0
C265 C 0.47489 0.78865 0.83782 0.0
N266 N 0.47401 0.77955 0.81287 0.0
N267 N 0.51491 0.81107 0.81855 0.0
C268 C 0.49793 0.79439 0.80146 0.0
H269 H 0.50647 0.81903 0.85912 0.0
Co270 Co 0.55115 0.83473 0.81377 0.0
C271 C 0.57176 0.77426 0.78651 0.0
O272 O 0.54758 0.75681 0.79109 0.0
N273 N 0.58749 0.85874 0.80868 0.0
C274 C 0.63731 0.87172 0.80755 0.0
C275 C 0.61629 0.85011 0.81587 0.0
C276 C 0.59191 0.88555 0.79545 0.0
N277 N 0.622 0.89394 0.79459 0.0
O278 O 0.53249 0.85321 0.78384 0.0
H279 H 0.62195 0.82879 0.82578 0.0
H280 H 0.57365 0.89848 0.78611 0.0
O281 O 0.57228 0.80237 0.79414 0.0
C282 C 0.51624 0.87483 0.79375 0.0
O283 O 0.51781 0.87885 0.81897 0.0
N284 N 0.56716 0.81907 0.84505 0.0
C285 C 0.5786 0.80157 0.89606 0.0
C286 C 0.57467 0.77914 0.87682 0.0
C287 C 0.56917 0.78839 0.85127 0.0
C288 C 0.57157 0.84112 0.86354 0.0
C289 C 0.57789 0.83287 0.88912 0.0
H290 H 0.56414 0.77086 0.83713 0.0
H291 H 0.56877 0.86528 0.85861 0.0
H292 H 0.50344 0.79266 0.7811 0.0
H293 H 0.45974 0.78055 0.85301 0.0
H294 H 0.66214 0.87041 0.80976 0.0
H295 H 0.57459 0.75476 0.88169 0.0
H296 H 0.58021 0.85079 0.90364 0.0
C297 C 0.33944 0.4979 0.83817 0.0
C298 C 0.35972 0.47454 0.8326 0.0
N299 N 0.36835 0.47732 0.80767 0.0
N300 N 0.33561 0.51599 0.81707 0.0
C301 C 0.35257 0.50205 0.79849 0.0
H302 H 0.32871 0.50179 0.85673 0.0
Co303 Co 0.31032 0.55137 0.81613 0.0
C304 C 0.36792 0.57866 0.78841 0.0
O305 O 0.38693 0.55528 0.79116 0.0
N306 N 0.28467 0.587 0.81511 0.0
C307 C 0.27039 0.63621 0.81907 0.0
C308 C 0.29196 0.61454 0.82591 0.0
C309 C 0.25849 0.59292 0.80141 0.0
N310 N 0.2493 0.62274 0.80354 0.0
O311 O 0.29078 0.53542 0.78551 0.0
H312 H 0.31267 0.61932 0.83694 0.0
H313 H 0.2469 0.5761 0.78934 0.0
O314 O 0.34033 0.57663 0.79695 0.0
C315 C 0.26988 0.51776 0.79495 0.0
O316 O 0.26692 0.51682 0.82028 0.0
N317 N 0.32699 0.56397 0.84798 0.0
C318 C 0.34609 0.56997 0.8992 0.0
C319 C 0.36704 0.57465 0.87899 0.0
C320 C 0.3571 0.5711 0.85335 0.0
C321 C 0.30615 0.56066 0.86746 0.0
C322 C 0.31521 0.5635 0.89323 0.0
H323 H 0.37398 0.57258 0.83822 0.0
H324 H 0.28256 0.55437 0.86293 0.0
H325 H 0.35376 0.51022 0.77869 0.0
H326 H 0.3686 0.45777 0.84632 0.0
H327 H 0.27138 0.66056 0.82384 0.0
H328 H 0.39115 0.57941 0.88301 0.0
H329 H 0.29835 0.55995 0.90839 0.0
C330 C 0.65382 0.35293 0.83338 0.0
C331 C 0.67807 0.37271 0.8289 0.0
N332 N 0.67533 0.38384 0.80466 0.0
N333 N 0.63545 0.3518 0.81221 0.0
C334 C 0.64977 0.37025 0.79472 0.0
H335 H 0.64982 0.34019 0.85109 0.0
Co336 Co 0.60026 0.32627 0.80962 0.0
C337 C 0.57336 0.38509 0.7833 0.0
O338 O 0.59599 0.40467 0.78757 0.0
N339 N 0.56482 0.30027 0.80684 0.0
C340 C 0.51591 0.28434 0.80918 0.0
C341 C 0.53676 0.30643 0.81697 0.0
C342 C 0.56005 0.27436 0.79253 0.0
N343 N 0.53052 0.2642 0.79368 0.0
O344 O 0.61706 0.30867 0.77886 0.0
H345 H 0.53122 0.32656 0.82842 0.0
H346 H 0.57754 0.26346 0.78085 0.0
O347 O 0.57567 0.35707 0.79097 0.0
C348 C 0.63408 0.28721 0.78827 0.0
O349 O 0.6342 0.28314 0.81353 0.0
N350 N 0.58676 0.34094 0.84167 0.0
C351 C 0.58201 0.35676 0.89367 0.0
C352 C 0.57843 0.37935 0.87436 0.0
C353 C 0.58121 0.37098 0.84831 0.0
C354 C 0.58875 0.31856 0.8602 0.0
C355 C 0.5863 0.32592 0.88629 0.0
H356 H 0.58086 0.38895 0.83389 0.0
H357 H 0.5939 0.29502 0.85468 0.0
H358 H 0.64187 0.37347 0.77499 0.0
H359 H 0.69588 0.37913 0.84266 0.0
H360 H 0.49147 0.28412 0.81345 0.0
H361 H 0.57531 0.40345 0.8794 0.0
H362 H 0.58876 0.30775 0.90063 0.0
C363 C 0.81905 0.66471 0.83088 0.0
C364 C 0.79605 0.68602 0.82685 0.0
N365 N 0.77748 0.67577 0.80761 0.0
N366 N 0.81512 0.64093 0.81443 0.0
C367 C 0.78974 0.64831 0.80039 0.0
H368 H 0.83716 0.66609 0.84532 0.0
Co369 Co 0.84019 0.60602 0.81403 0.0
C370 C 0.81112 0.5653 0.77538 0.0
O371 O 0.83676 0.5651 0.76192 0.0
N372 N 0.86575 0.57009 0.81366 0.0
C373 C 0.88168 0.52144 0.81904 0.0
C374 C 0.86062 0.54331 0.82658 0.0
C375 C 0.89017 0.56355 0.79823 0.0
N376 N 0.90012 0.53411 0.80101 0.0
O377 O 0.85965 0.62182 0.78343 0.0
H378 H 0.8417 0.53906 0.83967 0.0
H379 H 0.89971 0.57945 0.78422 0.0
O380 O 0.80903 0.58264 0.79525 0.0
C381 C 0.88182 0.63822 0.79245 0.0
O382 O 0.8864 0.63814 0.81765 0.0
N383 N 0.82325 0.5942 0.84558 0.0
C384 C 0.80275 0.58951 0.89635 0.0
C385 C 0.78283 0.58246 0.87569 0.0
C386 C 0.79345 0.58543 0.85021 0.0
C387 C 0.84304 0.60012 0.86549 0.0
C388 C 0.83329 0.59792 0.89103 0.0
H389 H 0.77744 0.5819 0.8344 0.0
H390 H 0.86632 0.60768 0.8614 0.0
H391 H 0.78039 0.63372 0.78529 0.0
H392 H 0.79283 0.70695 0.83793 0.0
H393 H 0.88205 0.49746 0.8251 0.0
H394 H 0.75902 0.57608 0.8792 0.0
H395 H 0.84938 0.60325 0.90652 0.0
C396 C 0.49797 0.34402 0.14592 0.0
C397 C 0.48146 0.37056 0.14982 0.0
N398 N 0.49252 0.38454 0.17118 0.0
N399 N 0.51982 0.34126 0.16446 0.0
C400 C 0.51567 0.36621 0.17994 0.0
H401 H 0.4942 0.32763 0.13044 0.0
Co402 Co 0.54733 0.30791 0.16459 0.0
C403 C 0.60713 0.33063 0.18397 0.0
O404 O 0.61985 0.31242 0.16674 0.0
N405 N 0.57401 0.27277 0.16478 0.0
C406 C 0.60149 0.23099 0.15475 0.0
C407 C 0.58286 0.25406 0.14523 0.0
C408 C 0.58704 0.25973 0.18615 0.0
N409 N 0.60435 0.23461 0.18053 0.0
O410 O 0.52702 0.29091 0.19421 0.0
H411 H 0.57638 0.25632 0.12517 0.0
H412 H 0.58454 0.26918 0.20541 0.0
O413 O 0.57759 0.3319 0.18575 0.0
C414 C 0.50645 0.27339 0.18413 0.0
O415 O 0.50423 0.2727 0.15874 0.0
N416 N 0.56379 0.32328 0.13346 0.0
C417 C 0.57126 0.34707 0.08362 0.0
C418 C 0.58369 0.36266 0.10504 0.0
C419 C 0.57895 0.35078 0.12997 0.0
C420 C 0.55137 0.30827 0.11272 0.0
C421 C 0.55524 0.31939 0.0877 0.0
H422 H 0.58571 0.36483 0.14624 0.0
H423 H 0.53674 0.28832 0.11577 0.0
H424 H 0.52947 0.37106 0.19698 0.0
H425 H 0.46239 0.37878 0.13807 0.0
H426 H 0.61182 0.21271 0.14345 0.0
H427 H 0.59538 0.38464 0.10265 0.0
H428 H 0.54499 0.3068 0.07169 0.0
C429 C 0.8035 0.50356 0.14432 0.0
C430 C 0.78409 0.47881 0.14774 0.0
N431 N 0.77426 0.4789 0.17241 0.0
N432 N 0.8057 0.51973 0.16661 0.0
C433 C 0.78822 0.50349 0.18363 0.0
H434 H 0.81547 0.50922 0.12661 0.0
Co435 Co 0.83169 0.55448 0.17082 0.0
C436 C 0.77319 0.57995 0.19793 0.0
O437 O 0.75439 0.55651 0.19444 0.0
N438 N 0.85799 0.58941 0.17515 0.0
C439 C 0.87398 0.63845 0.17494 0.0
C440 C 0.85213 0.61812 0.16591 0.0
C441 C 0.88355 0.59323 0.19014 0.0
N442 N 0.89374 0.62288 0.1903 0.0
O443 O 0.849 0.53543 0.20124 0.0
H444 H 0.83227 0.62446 0.15434 0.0
H445 H 0.8941 0.57493 0.20135 0.0
O446 O 0.80098 0.57846 0.18984 0.0
C447 C 0.86956 0.51775 0.19145 0.0
O448 O 0.87333 0.51859 0.16619 0.0
N449 N 0.81739 0.57022 0.13911 0.0
C450 C 0.8014 0.57886 0.08737 0.0
C451 C 0.77915 0.58206 0.1068 0.0
C452 C 0.78756 0.57725 0.13271 0.0
C453 C 0.83952 0.56868 0.12051 0.0
C454 C 0.83204 0.57292 0.09452 0.0
H455 H 0.76973 0.57727 0.14714 0.0
H456 H 0.86286 0.5624 0.12582 0.0
H457 H 0.78617 0.50921 0.20395 0.0
H458 H 0.77732 0.46224 0.13307 0.0
H459 H 0.8742 0.66318 0.1716 0.0
H460 H 0.75521 0.58637 0.10189 0.0
H461 H 0.84988 0.57052 0.08003 0.0
C462 C 0.64667 0.81134 0.14472 0.0
C463 C 0.67116 0.79174 0.14874 0.0
N464 N 0.67067 0.78209 0.17357 0.0
N465 N 0.63015 0.81362 0.16671 0.0
C466 C 0.64617 0.79662 0.18422 0.0
H467 H 0.64071 0.82239 0.12658 0.0
Co468 Co 0.59335 0.83637 0.17033 0.0
C469 C 0.57167 0.77597 0.19816 0.0
O470 O 0.59633 0.75855 0.19656 0.0
N471 N 0.55607 0.85946 0.17436 0.0
C472 C 0.50622 0.87234 0.17239 0.0
C473 C 0.5285 0.85276 0.16321 0.0
C474 C 0.5494 0.88291 0.19089 0.0
N475 N 0.51931 0.89121 0.1899 0.0
O476 O 0.61033 0.85471 0.20091 0.0
H477 H 0.52416 0.83375 0.15014 0.0
H478 H 0.56591 0.89329 0.20402 0.0
O479 O 0.57194 0.80341 0.18893 0.0
C480 C 0.62528 0.87784 0.19184 0.0
O481 O 0.62316 0.88353 0.16686 0.0
N482 N 0.57939 0.82066 0.13854 0.0
C483 C 0.56992 0.80277 0.08743 0.0
C484 C 0.57254 0.78048 0.10703 0.0
C485 C 0.57711 0.78993 0.13263 0.0
C486 C 0.57676 0.84255 0.11962 0.0
C487 C 0.57138 0.83412 0.09398 0.0
H488 H 0.58093 0.77251 0.14723 0.0
H489 H 0.57984 0.86671 0.12442 0.0
H490 H 0.63969 0.79458 0.20436 0.0
H491 H 0.68708 0.78395 0.13404 0.0
H492 H 0.48186 0.87158 0.16762 0.0
H493 H 0.57207 0.75604 0.10245 0.0
H494 H 0.57011 0.8519 0.07919 0.0
C495 C 0.32625 0.65361 0.15695 0.0
C496 C 0.34741 0.67706 0.15988 0.0
N497 N 0.37036 0.66708 0.17556 0.0
N498 N 0.33552 0.62888 0.17079 0.0
C499 C 0.36243 0.63773 0.18192 0.0
H500 H 0.30546 0.65445 0.1453 0.0
Co501 Co 0.31417 0.59145 0.17241 0.0
C502 C 0.34974 0.55388 0.21014 0.0
O503 O 0.3247 0.54794 0.22353 0.0
N504 N 0.29253 0.55324 0.17398 0.0
C505 C 0.28277 0.50274 0.17146 0.0
C506 C 0.30302 0.52592 0.16493 0.0
C507 C 0.2657 0.54583 0.18596 0.0
N508 N 0.25927 0.51523 0.18482 0.0
O509 O 0.29451 0.60565 0.20328 0.0
H510 H 0.32482 0.52268 0.1552 0.0
H511 H 0.25142 0.5623 0.19599 0.0
O512 O 0.34829 0.57217 0.19076 0.0
C513 C 0.2707 0.61992 0.19472 0.0
O514 O 0.26454 0.61827 0.1698 0.0
N515 N 0.33105 0.58068 0.14069 0.0
C516 C 0.35037 0.57712 0.08961 0.0
C517 C 0.37158 0.57297 0.10989 0.0
C518 C 0.36148 0.57534 0.13552 0.0
C519 C 0.31007 0.58363 0.12117 0.0
C520 C 0.31923 0.58197 0.09545 0.0
H521 H 0.3783 0.57421 0.15096 0.0
H522 H 0.28623 0.58855 0.12569 0.0
H523 H 0.37626 0.62271 0.19402 0.0
H524 H 0.34578 0.69973 0.15109 0.0
H525 H 0.28604 0.47834 0.16779 0.0
H526 H 0.39585 0.56942 0.10593 0.0
H527 H 0.30223 0.58509 0.08022 0.0
H528 H 0.1131 0.32027 0.43158 0.0
H529 H 0.02934 0.26646 0.42593 0.0
H530 H 0.11361 0.31265 0.47861 0.0
H531 H 0.02957 0.25927 0.47306 0.0
H532 H 1.0225 0.30982 0.55608 0.0
H533 H 1.02315 0.30305 0.50894 0.0
H534 H 0.11605 0.26749 0.51386 0.0
H535 H 0.11502 0.27356 0.56112 0.0
C536 C 0.09513 0.3064 0.44042 0.0
C537 C 0.07121 0.29392 0.42526 0.0
C538 C 0.09549 0.30192 0.46722 0.0
C539 C 0.0716 0.28539 0.47933 0.0
C540 C 0.04821 0.27208 0.46409 0.0
C541 C 0.04818 0.27605 0.43722 0.0
C542 C 0.04266 0.29978 0.54706 0.0
C543 C 0.06861 0.29198 0.562 0.0
C544 C 0.04305 0.29586 0.52021 0.0
C545 C 0.06967 0.28478 0.5079 0.0
C546 C 0.09527 0.27604 0.52298 0.0
C547 C 0.09463 0.27933 0.5499 0.0
H548 H 0.84965 0.12891 0.55014 0.0
H549 H 0.86612 0.03122 0.56047 0.0
H550 H 0.85899 0.12396 0.50392 0.0
H551 H 0.87624 1.02623 0.51401 0.0
H552 H 0.82975 1.02726 0.43169 0.0
H553 H 0.83918 0.0292 0.4781 0.0
H554 H 0.89388 0.112 0.46796 0.0
H555 H 0.88376 0.11031 0.4212 0.0
C556 C 0.8559 0.10646 0.54251 0.0
C557 C 0.85654 0.0803 0.55869 0.0
C558 C 0.86163 0.10368 0.51608 0.0
C559 C 0.86806 0.07464 0.50526 0.0
C560 C 0.87096 0.04885 0.52179 0.0
C561 C 0.86535 0.05169 0.54835 0.0
C562 C 0.84401 0.04574 0.43936 0.0
C563 C 0.8555 0.06901 0.423 0.0
C564 C 0.8498 0.0466 0.46591 0.0
C565 C 0.86719 0.07082 0.47673 0.0
C566 C 0.88018 0.0932 0.46016 0.0
C567 C 0.8745 0.09221 0.43346 0.0
H568 H 0.05614 0.89905 0.55998 0.0
H569 H 0.12673 0.82901 0.55491 0.0
H570 H 0.05955 0.90768 0.51316 0.0
H571 H 0.1297 0.837 0.50838 0.0
H572 H 0.14167 0.86193 0.42724 0.0
H573 H 0.1436 0.87195 0.47371 0.0
H574 H 0.04397 0.87647 0.47534 0.0
H575 H 0.0423 0.86726 0.42856 0.0
C576 C 0.07284 0.88601 0.54893 0.0
C577 C 0.09107 0.86323 0.56097 0.0
C578 C 0.07459 0.89075 0.52214 0.0
C579 C 0.0948 0.87298 0.50703 0.0
C580 C 0.11416 0.85139 0.51942 0.0
C581 C 0.11229 0.84657 0.54607 0.0
C582 C 0.12028 0.86589 0.4375 0.0
C583 C 0.09182 0.86349 0.42457 0.0
C584 C 0.12135 0.87147 0.46407 0.0
C585 C 0.09393 0.87438 0.47829 0.0
C586 C 0.06552 0.87447 0.46493 0.0
C587 C 0.06449 0.86915 0.4382 0.0
H588 H 0.26304 0.1058 0.56029 0.0
H589 H 0.33476 0.03826 0.54755 0.0
H590 H 0.25071 0.10523 0.51406 0.0
H591 H 0.32376 0.039 0.50154 0.0
H592 H 0.29211 0.03075 0.42134 0.0
H593 H 0.28863 1.02531 0.46817 0.0
H594 H 0.27367 0.12376 0.47512 0.0
H595 H 0.27515 0.12883 0.42827 0.0
C596 C 0.27609 0.09078 0.54767 0.0
C597 C 0.30021 0.07245 0.55757 0.0
C598 C 0.26918 0.09061 0.52116 0.0
C599 C 0.28626 0.07211 0.50401 0.0
C600 C 0.30977 0.0532 0.51412 0.0
C601 C 0.31653 0.05325 0.54052 0.0
C602 C 0.28704 0.05106 0.43278 0.0
C603 C 0.2845 0.08032 0.42109 0.0
C604 C 0.28548 0.04802 0.45969 0.0
C605 C 0.28163 0.07421 0.4755 0.0
C606 C 0.27666 0.10307 0.46364 0.0
C607 C 0.27791 0.10605 0.43674 0.0
H608 H 0.62303 0.81593 0.93151 0.0
H609 H 0.53561 0.76906 0.92271 0.0
H610 H 0.62036 0.80859 0.97858 0.0
H611 H 0.53252 0.76245 0.96985 0.0
H612 H 0.52604 0.81739 0.05168 0.0
H613 H 0.52876 0.80949 0.00473 0.0
H614 H 0.6157 0.76212 0.01426 0.0
H615 H 0.61253 0.76932 0.06134 0.0
C616 C 0.60362 0.80351 0.93969 0.0
C617 C 0.57961 0.7929 0.92369 0.0
C618 C 0.60211 0.79925 0.96648 0.0
C619 C 0.57623 0.78497 0.97766 0.0
C620 C 0.5527 0.77344 0.96158 0.0
C621 C 0.55455 0.77708 0.93473 0.0
C622 C 0.54526 0.8046 0.04371 0.0
C623 C 0.56899 0.79381 0.05991 0.0
C624 C 0.5468 0.80002 0.01699 0.0
C625 C 0.57245 0.78522 0.00606 0.0
C626 C 0.5957 0.77353 0.02234 0.0
C627 C 0.59381 0.77751 0.04915 0.0
H628 H 0.37758 0.61539 0.92495 0.0
H629 H 0.33735 0.52476 0.93478 0.0
H630 H 0.38826 0.61773 0.97167 0.0
H631 H 0.34798 0.52695 0.98116 0.0
H632 H 0.34127 0.62325 0.05495 0.0
H633 H 0.3495 0.62151 0.00827 0.0
H634 H 0.38937 0.53042 0.01597 0.0
H635 H 0.38114 0.53234 0.06298 0.0
C636 C 0.37163 0.59579 0.93706 0.0
C637 C 0.35629 0.5701 0.92651 0.0
C638 C 0.37767 0.59711 0.96369 0.0
C639 C 0.36891 0.57252 0.97999 0.0
C640 C 0.3553 0.54608 0.96905 0.0
C641 C 0.3489 0.54496 0.9426 0.0
C642 C 0.35239 0.60316 0.04667 0.0
C643 C 0.36027 0.57777 0.06232 0.0
C644 C 0.35735 0.60226 0.02003 0.0
C645 C 0.36995 0.57578 0.00852 0.0
C646 C 0.37949 0.55105 0.0244 0.0
C647 C 0.37489 0.55215 0.05119 0.0
H648 H 0.54227 0.39376 0.92071 0.0
H649 H 0.62468 0.3386 0.9291 0.0
H650 H 0.54141 0.40188 0.96769 0.0
H651 H 0.62352 0.34597 0.97573 0.0
H652 H 0.62268 0.36862 0.05884 0.0
H653 H 0.62734 0.38102 0.01269 0.0
H654 H 0.52942 0.36559 0.00271 0.0
H655 H 0.5248 0.35404 0.04865 0.0
C656 C 0.56042 0.38383 0.93257 0.0
C657 C 0.58317 0.36506 0.92143 0.0
C658 C 0.5599 0.38835 0.9594 0.0
C659 C 0.58229 0.37441 0.97544 0.0
C660 C 0.60611 0.35731 0.96397 0.0
C661 C 0.60652 0.35268 0.93729 0.0
C662 C 0.60212 0.36873 0.04683 0.0
C663 C 0.57352 0.35979 0.05709 0.0
C664 C 0.60477 0.37564 0.02044 0.0
C665 C 0.5788 0.37391 0.004 0.0
C666 C 0.54983 0.36735 0.01481 0.0
C667 C 0.54723 0.36034 0.04107 0.0
H668 H 0.81434 0.53531 0.05146 0.0
H669 H 0.76908 0.62336 0.06098 0.0
H670 H 0.80556 0.53793 0.00486 0.0
H671 H 0.76015 0.62608 0.01401 0.0
H672 H 0.80743 0.63592 0.93133 0.0
H673 H 0.79853 0.63294 0.97788 0.0
H674 H 0.76571 0.5391 0.96931 0.0
H675 H 0.77478 0.54218 0.92247 0.0
C676 C 0.80216 0.55507 0.04351 0.0
C677 C 0.79277 0.57937 0.05965 0.0
C678 C 0.7968 0.5564 0.01689 0.0
C679 C 0.78218 0.58222 0.0058 0.0
C680 C 0.77158 0.60597 0.02208 0.0
C681 C 0.77661 0.60442 0.04887 0.0
C682 C 0.79773 0.61488 0.93938 0.0
C683 C 0.79213 0.58913 0.9235 0.0
C684 C 0.79238 0.61327 0.96596 0.0
C685 C 0.78161 0.58573 0.97723 0.0
C686 C 0.77424 0.56054 0.9611 0.0
C687 C 0.77927 0.56231 0.93438 0.0
H688 H 0.07236 0.20877 0.28889 0.0
H689 H 0.11707 0.29688 0.27618 0.0
H690 H 0.12239 0.18325 0.28893 0.0
H691 H 0.16708 0.27124 0.27569 0.0
H692 H 0.24791 0.22483 0.31743 0.0
H693 H 0.19818 0.24863 0.30939 0.0
H694 H 0.16899 0.16798 0.26645 0.0
H695 H 0.21923 0.14394 0.27468 0.0
C696 C 0.09277 0.22264 0.28543 0.0
C697 C 0.09068 0.25501 0.28301 0.0
C698 C 0.12154 0.20794 0.28542 0.0
C699 C 0.14887 0.22523 0.28286 0.0
C700 C 0.14656 0.25729 0.27843 0.0
C701 C 0.11784 0.272 0.27853 0.0
C702 C 0.23112 0.21223 0.30599 0.0
C703 C 0.23775 0.18251 0.29655 0.0
C704 C 0.20252 0.22598 0.30128 0.0
C705 C 0.17962 0.21047 0.28694 0.0
C706 C 0.18605 0.18056 0.27766 0.0
C707 C 0.2148 0.16673 0.28243 0.0
H708 H 0.93008 0.09464 0.27663 0.0
H709 H 0.83701 0.13015 0.27951 0.0
H710 H 0.95014 0.14716 0.27726 0.0
H711 H 0.85715 0.18284 0.27993 0.0
H712 H 0.90843 0.2609 0.32584 0.0
H713 H 0.88371 0.21279 0.3129 0.0
H714 H 0.95565 0.1973 0.25679 0.0
H715 H 0.98092 0.24488 0.27028 0.0
C716 C 0.91381 0.11363 0.27675 0.0
C717 C 0.88191 0.10805 0.27858 0.0
C718 C 0.92536 0.14387 0.27703 0.0
C719 C 0.90529 0.1693 0.27907 0.0
C720 C 0.87329 0.16379 0.27892 0.0
C721 C 0.86173 0.13353 0.27858 0.0
C722 C 0.9189 0.24742 0.3106 0.0
C723 C 0.94712 0.25663 0.2996 0.0
C724 C 0.9045 0.21992 0.30294 0.0
C725 C 0.91789 0.20089 0.284 0.0
C726 C 0.94499 0.21111 0.27176 0.0
C727 C 0.95937 0.23866 0.27939 0.0
H728 H 0.92006 0.99169 0.27838 0.0
H729 H 0.87688 0.91283 0.31442 0.0
H730 H 0.96442 0.95935 0.26636 0.0
H731 H 0.92063 0.88071 0.30277 0.0
H732 H 0.99235 0.82176 0.27476 0.0
H733 H 0.9493 0.85709 0.26781 0.0
H734 H 1.0069 0.93366 0.29157 0.0
H735 H 0.05037 0.89812 0.29758 0.0
C736 C 0.91974 0.96729 0.28311 0.0
C737 C 0.8951 0.9547 0.29735 0.0
C738 C 0.94519 0.94885 0.27646 0.0
C739 C 0.94614 0.91737 0.28352 0.0
C740 C 0.92062 0.90466 0.29659 0.0
C741 C 0.89557 0.92309 0.30348 0.0
C742 C 0.9962 0.84637 0.27722 0.0
C743 C 1.02462 0.85725 0.28663 0.0
C744 C 0.97143 0.86658 0.2736 0.0
C745 C 0.97436 0.8981 0.27982 0.0
C746 C 1.00381 0.90954 0.28657 0.0
C747 C 0.02881 0.88922 0.2899 0.0
H748 H 0.28713 1.01649 0.23595 0.0
H749 H 0.24339 0.05623 0.30305 0.0
H750 H 0.25176 0.97236 0.23813 0.0
H751 H 0.2083 1.01216 0.30533 0.0
H752 H 0.13968 0.93325 0.29767 0.0
H753 H 0.1658 0.9813 0.28435 0.0
H754 H 0.24936 0.92971 0.27046 0.0
H755 H 0.22332 0.88228 0.28375 0.0
C756 C 0.26953 1.01618 0.25079 0.0
C757 C 0.26832 0.03968 0.26951 0.0
C758 C 0.24939 0.9908 0.25214 0.0
C759 C 0.22735 0.98859 0.27205 0.0
C760 C 0.22481 1.01318 0.28966 0.0
C761 C 0.24512 0.03835 0.28847 0.0
C762 C 0.16338 0.93228 0.29115 0.0
C763 C 0.17959 0.90419 0.29186 0.0
C764 C 0.17841 0.95971 0.28372 0.0
C765 C 0.20972 0.95937 0.27639 0.0
C766 C 0.22521 0.93085 0.2757 0.0
C767 C 0.21039 0.90369 0.28348 0.0
H768 H 0.2446 0.99579 0.71304 0.0
H769 H 0.26417 0.91924 0.66217 0.0
H770 H 0.19681 0.97066 0.72638 0.0
H771 H 0.21606 0.89454 0.6749 0.0
H772 H 0.1331 0.84866 0.70756 0.0
H773 H 0.18527 0.86994 0.70823 0.0
H774 H 0.14774 0.96235 0.70459 0.0
H775 H 0.09574 0.94115 0.70406 0.0
C776 C 0.23909 0.97334 0.70505 0.0
C777 C 0.2581 0.95979 0.68619 0.0
C778 C 0.21147 0.95905 0.71254 0.0
C779 C 0.20231 0.93074 0.70149 0.0
C780 C 0.22236 0.91624 0.68396 0.0
C781 C 0.24987 0.93057 0.67642 0.0
C782 C 0.13596 0.87353 0.70729 0.0
C783 C 0.11017 0.89313 0.70516 0.0
C784 C 0.1659 0.88574 0.70762 0.0
C785 C 0.1708 0.91786 0.706 0.0
C786 C 0.14493 0.93751 0.70599 0.0
C787 C 0.11499 0.9253 0.70562 0.0
H788 H 0.22845 0.26128 0.66055 0.0
H789 H 0.14926 0.23093 0.70451 0.0
H790 H 0.25512 0.21383 0.67161 0.0
H791 H 0.17677 0.18426 0.71692 0.0
H792 H 0.21648 0.08758 0.69802 0.0
H793 H 0.19123 0.13754 0.69706 0.0
H794 H 0.27993 0.18294 0.70325 0.0
H795 H 0.30537 0.13269 0.70325 0.0
C796 C 0.21674 0.2447 0.67277 0.0
C797 C 0.18636 0.24999 0.68119 0.0
C798 C 0.23233 0.21755 0.67952 0.0
C799 C 0.21814 0.19495 0.69511 0.0
C800 C 0.1883 0.20084 0.70453 0.0
C801 C 0.17258 0.22792 0.69761 0.0
C802 C 0.23066 0.10815 0.69968 0.0
C803 C 0.26305 0.10603 0.70026 0.0
C804 C 0.21609 0.13696 0.69924 0.0
C805 C 0.23348 0.16448 0.69966 0.0
C806 C 0.26579 0.1623 0.70222 0.0
C807 C 0.2804 0.13343 0.70245 0.0
H808 H 0.93545 0.13978 0.69015 0.0
H809 H 0.88401 0.22492 0.69042 0.0
H810 H 0.98183 0.16795 0.70483 0.0
H811 H 0.92965 0.25299 0.70502 0.0
H812 H 1.01012 0.29704 0.74259 0.0
H813 H 0.96729 0.26042 0.74054 0.0
H814 H 1.01607 0.20729 0.68313 0.0
H815 H 0.05911 0.24366 0.68539 0.0
C816 C 0.93395 0.16434 0.694 0.0
C817 C 0.9063 0.18027 0.68913 0.0
C818 C 0.96044 0.18051 0.70217 0.0
C819 C 0.95948 0.21277 0.7061 0.0
C820 C 0.93123 0.22817 0.70254 0.0
C821 C 0.90509 0.21217 0.69402 0.0
C822 C 1.01215 0.27713 0.73003 0.0
C823 C 0.03794 0.27362 0.71387 0.0
C824 C 0.98745 0.25622 0.72873 0.0
C825 C 0.98802 0.23115 0.71139 0.0
C826 C 1.01487 0.22625 0.69677 0.0
C827 C 0.0395 0.24727 0.69795 0.0
H828 H 0.9933 0.92427 0.7039 0.0
H829 H 0.91813 0.88189 0.66199 0.0
H830 H 0.95905 0.96678 0.7169 0.0
H831 H 0.88412 0.92385 0.6747 0.0
H832 H 0.8215 0.99018 0.70701 0.0
H833 H 0.85839 0.94804 0.71169 0.0
H834 H 0.93272 1.01063 0.69267 0.0
H835 H 0.89558 0.05314 0.68871 0.0
C836 C 0.9693 0.92373 0.69799 0.0
C837 C 0.95832 0.89985 0.6819 0.0
C838 C 0.94979 0.94812 0.70523 0.0
C839 C 0.91881 0.9487 0.69694 0.0
C840 C 0.90768 0.924 0.68181 0.0
C841 C 0.9272 0.90002 0.67431 0.0
C842 C 0.8459 0.99521 0.705 0.0
C843 C 0.85571 1.02481 0.69738 0.0
C844 C 0.867 0.97101 0.70738 0.0
C845 C 0.89838 0.97577 0.70184 0.0
C846 C 0.9087 1.00618 0.69704 0.0
C847 C 0.88747 0.0306 0.69489 0.0
H848 H 0.58515 0.7125 0.78742 0.0
H849 H 0.62624 0.80186 0.77256 0.0
H850 H 0.63588 0.68896 0.78754 0.0
H851 H 0.67715 0.77805 0.77145 0.0
H852 H 0.76053 0.73589 0.81338 0.0
H853 H 0.71141 0.75895 0.80253 0.0
H854 H 0.68162 0.673 0.76779 0.0
H855 H 0.73023 0.64916 0.78036 0.0
C856 C 0.60495 0.72703 0.78336 0.0
C857 C 0.60161 0.7592 0.78038 0.0
C858 C 0.63421 0.71344 0.78333 0.0
C859 C 0.66091 0.73158 0.77997 0.0
C860 C 0.65728 0.76341 0.77487 0.0
C861 C 0.62802 0.77707 0.77524 0.0
C862 C 0.74357 0.72169 0.80359 0.0
C863 C 0.74944 0.69033 0.7983 0.0
C864 C 0.71538 0.7352 0.79688 0.0
C865 C 0.69222 0.71793 0.78431 0.0
C866 C 0.6986 0.68696 0.77786 0.0
C867 C 0.72676 0.67331 0.78485 0.0
H868 H 0.41743 0.76145 0.82939 0.0
H869 H 0.48742 0.74127 0.77263 0.0
H870 H 0.38987 0.71463 0.81732 0.0
H871 H 0.45915 0.69497 0.75976 0.0
H872 H 0.42811 0.59397 0.77864 0.0
H873 H 0.45106 0.64523 0.77911 0.0
H874 H 0.36048 0.68588 0.7862 0.0
H875 H 0.33747 0.63436 0.78628 0.0
C876 C 0.42672 0.7473 0.81403 0.0
C877 C 0.45501 0.75498 0.80236 0.0
C878 C 0.41067 0.72053 0.80685 0.0
C879 C 0.42237 0.70069 0.7877 0.0
C880 C 0.44968 0.70938 0.77489 0.0
C881 C 0.46577 0.7362 0.78209 0.0
C882 C 0.41294 0.6138 0.77978 0.0
C883 C 0.38093 0.60987 0.78291 0.0
C884 C 0.42616 0.64335 0.77992 0.0
C885 C 0.40773 0.66984 0.78309 0.0
C886 C 0.37548 0.66602 0.78431 0.0
C887 C 0.36225 0.63642 0.78419 0.0
H888 H 0.55583 0.44554 0.77761 0.0
H889 H 0.52004 0.35226 0.77468 0.0
H890 H 0.50356 0.46568 0.77672 0.0
H891 H 0.46759 0.37249 0.77311 0.0
H892 H 0.38736 0.41904 0.81827 0.0
H893 H 0.43563 0.39546 0.80518 0.0
H894 H 0.45479 0.47408 0.75593 0.0
H895 H 0.40687 0.49826 0.76998 0.0
C896 C 0.53686 0.4293 0.77606 0.0
C897 C 0.54221 0.39723 0.77674 0.0
C898 C 0.50674 0.4409 0.77541 0.0
C899 C 0.48119 0.42074 0.77526 0.0
C900 C 0.48666 0.3887 0.77382 0.0
C901 C 0.51679 0.37709 0.77458 0.0
C902 C 0.40169 0.43118 0.80443 0.0
C903 C 0.39346 0.46084 0.79562 0.0
C904 C 0.4293 0.41747 0.79664 0.0
C905 C 0.44944 0.43298 0.77969 0.0
C906 C 0.44014 0.46169 0.76938 0.0
C907 C 0.41244 0.47544 0.77722 0.0
H908 H 0.81945 0.50945 0.75185 0.0
H909 H 0.75116 0.56382 0.7919 0.0
H910 H 0.78527 0.46448 0.75365 0.0
H911 H 0.71685 0.51882 0.79338 0.0
H912 H 0.65555 0.43359 0.77745 0.0
H913 H 0.68666 0.47867 0.76467 0.0
H914 H 0.76834 0.43372 0.79447 0.0
H915 H 0.73716 0.38917 0.80759 0.0
C916 C 0.79682 0.51208 0.7604 0.0
C917 C 0.78808 0.54021 0.77185 0.0
C918 C 0.77735 0.48623 0.76157 0.0
C919 C 0.74849 0.48809 0.77378 0.0
C920 C 0.73889 0.51674 0.78371 0.0
C921 C 0.75858 0.54247 0.78295 0.0
C922 C 0.68024 0.43318 0.7807 0.0
C923 C 0.69402 0.40796 0.79347 0.0
C924 C 0.69798 0.459 0.77359 0.0
C925 C 0.72992 0.4597 0.77858 0.0
C926 C 0.74385 0.43375 0.79016 0.0
C927 C 0.72604 0.40832 0.79775 0.0
H928 H 0.66225 0.31945 0.20632 0.0
H929 H 0.5993 0.39344 0.18772 0.0
H930 H 0.70394 0.35672 0.21204 0.0
H931 H 0.64141 0.43097 0.19254 0.0
H932 H 0.72673 0.49261 0.20446 0.0
H933 H 0.68434 0.4577 0.21695 0.0
H934 H 0.72903 0.38312 0.17617 0.0
H935 H 0.77082 0.41775 0.16405 0.0
C936 C 0.65712 0.34388 0.20439 0.0
C937 C 0.62766 0.35356 0.19641 0.0
C938 C 0.68107 0.36522 0.20737 0.0
C939 C 0.67626 0.39674 0.20201 0.0
C940 C 0.64594 0.40686 0.19679 0.0
C941 C 0.62174 0.38539 0.19411 0.0
C942 C 0.72768 0.46854 0.19881 0.0
C943 C 0.75198 0.45781 0.18327 0.0
C944 C 0.70335 0.44865 0.20575 0.0
C945 C 0.70327 0.41756 0.19766 0.0
C946 C 0.72845 0.40672 0.18314 0.0
C947 C 0.75235 0.42659 0.17598 0.0
H948 H 0.7125 0.59519 0.20527 0.0
H949 H 0.80392 0.63521 0.20328 0.0
H950 H 0.69012 0.64668 0.20517 0.0
H951 H 0.78146 0.68686 0.20359 0.0
H952 H 0.72793 0.76405 0.15898 0.0
H953 H 0.75427 0.71663 0.1713 0.0
H954 H 0.6817 0.69594 0.2258 0.0
H955 H 0.6548 0.74296 0.21279 0.0
C956 C 0.72791 0.61494 0.20547 0.0
C957 C 0.76005 0.61093 0.20377 0.0
C958 C 0.71502 0.6446 0.20551 0.0
C959 C 0.73393 0.67104 0.20396 0.0
C960 C 0.76616 0.66704 0.20422 0.0
C961 C 0.77906 0.63736 0.20418 0.0
C962 C 0.71767 0.74956 0.17374 0.0
C963 C 0.68888 0.75717 0.18446 0.0
C964 C 0.73299 0.72245 0.18107 0.0
C965 C 0.71999 0.70216 0.19938 0.0
C966 C 0.69215 0.71073 0.21132 0.0
C967 C 0.67684 0.73793 0.20401 0.0
H968 H 0.51481 0.80352 0.19979 0.0
H969 H 0.55952 0.71465 0.20741 0.0
H970 H 0.4647 0.77794 0.19828 0.0
H971 H 0.50932 0.68915 0.20588 0.0
H972 H 0.41013 0.65398 0.21533 0.0
H973 H 0.45778 0.68119 0.22627 0.0
H974 H 0.44121 0.74571 0.16385 0.0
H975 H 0.39422 0.71849 0.15253 0.0
C976 C 0.51399 0.77858 0.20155 0.0
C977 C 0.54131 0.76114 0.20316 0.0
C978 C 0.48523 0.76391 0.20059 0.0
C979 C 0.48308 0.73148 0.20145 0.0
C980 C 0.51018 0.71417 0.20517 0.0
C981 C 0.539 0.72884 0.206 0.0
C982 C 0.41659 0.67386 0.20382 0.0
C983 C 0.39803 0.68381 0.18292 0.0
C984 C 0.44391 0.68954 0.21021 0.0
C985 C 0.45318 0.71573 0.19605 0.0
C986 C 0.43443 0.72598 0.1755 0.0
C987 C 0.40735 0.71023 0.16898 0.0
H988 H 0.47841 0.39685 0.22127 0.0
H989 H 0.47882 0.43589 0.14445 0.0
H990 H 0.44912 0.4418 0.23694 0.0
H991 H 0.44977 0.48033 0.15964 0.0
H992 H 0.40771 0.56412 0.19122 0.0
H993 H 0.44897 0.52626 0.18663 0.0
H994 H 0.39529 0.4597 0.22979 0.0
H995 H 0.35413 0.49768 0.23458 0.0
C996 C 0.47294 0.41546 0.20796 0.0
C997 C 0.48074 0.41299 0.18167 0.0
C998 C 0.45597 0.44101 0.21681 0.0
C999 C 0.44699 0.4647 0.19955 0.0
C1000 C 0.45654 0.46285 0.1736 0.0
C1001 C 0.47304 0.4373 0.1648 0.0
C1002 C 0.40495 0.54161 0.20017 0.0
C1003 C 0.37734 0.53375 0.21282 0.0
C1004 C 0.42859 0.51987 0.1975 0.0
C1005 C 0.42524 0.4897 0.2074 0.0
C1006 C 0.39875 0.48271 0.22199 0.0
C1007 C 0.37507 0.50453 0.22471 0.0
H1008 H 0.22656 0.53305 0.22729 0.0
H1009 H 0.23573 0.4593 0.17152 0.0
H1010 H 0.18906 0.50215 0.25127 0.0
H1011 H 0.19868 0.4284 0.19573 0.0
H1012 H 0.17228 0.36913 0.26658 0.0
H1013 H 0.20248 0.40291 0.23878 0.0
H1014 H 0.13612 0.47609 0.24969 0.0
H1015 H 0.10571 0.44187 0.27801 0.0
C1016 C 0.22026 0.51054 0.21983 0.0
C1017 C 0.23463 0.49855 0.19758 0.0
C1018 C 0.19871 0.49282 0.23363 0.0
C1019 C 0.19118 0.46269 0.22557 0.0
C1020 C 0.20443 0.45132 0.2027 0.0
C1021 C 0.22578 0.46903 0.18887 0.0
C1022 C 0.16412 0.39244 0.26316 0.0
C1023 C 0.13678 0.40297 0.2747 0.0
C1024 C 0.18126 0.41171 0.24696 0.0
C1025 C 0.17167 0.44217 0.24195 0.0
C1026 C 0.14415 0.45276 0.25329 0.0
C1027 C 0.12668 0.4332 0.26933 0.0
H1028 H 0.71823 0.16938 0.30755 0.0
H1029 H 0.72578 0.09728 0.2502 0.0
H1030 H 0.68106 0.19639 0.28022 0.0
H1031 H 0.68765 0.1237 0.22328 0.0
H1032 H 0.65466 0.2005 0.16816 0.0
H1033 H 0.68676 0.16994 0.19702 0.0
H1034 H 0.62958 0.19608 0.26166 0.0
H1035 H 0.5972 0.22687 0.23257 0.0
C1036 C 0.71176 0.15911 0.28921 0.0
C1037 C 0.72537 0.13128 0.281 0.0
C1038 C 0.69013 0.17447 0.27364 0.0
C1039 C 0.68148 0.16242 0.24939 0.0
C1040 C 0.69414 0.13393 0.24164 0.0
C1041 C 0.71577 0.11854 0.25725 0.0
C1042 C 0.64853 0.19947 0.18843 0.0
C1043 C 0.62314 0.21618 0.19792 0.0
C1044 C 0.66701 0.18181 0.20504 0.0
C1045 C 0.66073 0.18031 0.2317 0.0
C1046 C 0.6353 0.19693 0.24128 0.0
C1047 C 0.61673 0.21465 0.22459 0.0
H1048 H 0.91494 0.60332 0.23725 0.0
H1049 H 0.9277 0.67356 0.17871 0.0
H1050 H 0.95272 0.6294 0.26496 0.0
H1051 H 0.96462 0.70008 0.20658 0.0
H1052 H 0.04853 0.72777 0.25439 0.0
H1053 H 1.01557 0.69707 0.22596 0.0
H1054 H 0.95525 0.677 0.29022 0.0
H1055 H 0.98807 0.70774 0.31861 0.0
C1056 C 0.92605 0.62409 0.23015 0.0
C1057 C 0.91812 0.63643 0.20579 0.0
C1058 C 0.94746 0.63926 0.24616 0.0
C1059 C 0.96159 0.66702 0.23812 0.0
C1060 C 0.95442 0.67869 0.21338 0.0
C1061 C 0.93298 0.66362 0.19747 0.0
C1062 C 0.02817 0.71701 0.26247 0.0
C1063 C 1.02101 0.72045 0.28887 0.0
C1064 C 1.00927 0.69929 0.24614 0.0
C1065 C 0.98271 0.6845 0.25575 0.0
C1066 C 0.97578 0.6876 0.28221 0.0
C1067 C 0.99464 0.70534 0.29852 0.0
H1068 H 0.45029 1.01585 0.30949 0.0
H1069 H 0.37169 0.99369 0.26148 0.0
H1070 H 0.48334 0.98476 0.28178 0.0
H1071 H 0.40422 0.9614 0.23426 0.0
H1072 H 0.47283 0.92874 0.17531 0.0
H1073 H 0.44224 0.96246 0.20281 0.0
H1074 H 0.4974 0.93507 0.26902 0.0
H1075 H 0.52877 0.90248 0.24094 0.0
C1076 C 0.44 1.00386 0.29321 0.0
C1077 C 0.40838 1.00718 0.28766 0.0
C1078 C 0.45894 0.98593 0.27729 0.0
C1079 C 0.44668 0.97046 0.25556 0.0
C1080 C 0.41484 0.97346 0.25036 0.0
C1081 C 0.39603 0.99179 0.26606 0.0
C1082 C 0.47848 0.93021 0.19572 0.0
C1083 C 0.50314 0.91301 0.20599 0.0
C1084 C 0.46078 0.94933 0.21161 0.0
C1085 C 0.46687 0.95135 0.23838 0.0
C1086 C 0.49209 0.93456 0.24852 0.0
C1087 C 0.51014 0.9158 0.23246 0.0
H1088 H 0.2241 0.60755 0.75669 0.0
H1089 H 0.2194 0.67448 0.81853 0.0
H1090 H 0.18936 0.63971 0.73047 0.0
H1091 H 0.18555 0.7067 0.79215 0.0
H1092 H 0.1757 0.77261 0.72139 0.0
H1093 H 0.2009 0.73544 0.74997 0.0
H1094 H 0.13306 0.66644 0.7293 0.0
H1095 H 0.10738 0.70429 0.70059 0.0
C1096 C 0.21521 0.6287 0.76493 0.0
C1097 C 0.22508 0.63871 0.78957 0.0
C1098 C 0.19534 0.64712 0.74989 0.0
C1099 C 0.18517 0.67588 0.75916 0.0
C1100 C 0.19345 0.68486 0.78436 0.0
C1101 C 0.21297 0.66644 0.79941 0.0
C1102 C 0.16616 0.74952 0.7229 0.0
C1103 C 0.13973 0.74123 0.70867 0.0
C1104 C 0.18042 0.72832 0.73941 0.0
C1105 C 0.16888 0.69809 0.74191 0.0
C1106 C 0.14243 0.6896 0.72768 0.0
C1107 C 0.12771 0.71118 0.71142 0.0
H1108 H 0.43008 0.17613 0.67215 0.0
H1109 H 0.41961 0.11037 0.73449 0.0
H1110 H 0.46624 0.20603 0.69844 0.0
H1111 H 0.45623 0.1401 0.76081 0.0
H1112 H 0.48224 0.22878 0.80853 0.0
H1113 H 0.45389 0.19137 0.78225 0.0
H1114 H 0.51779 0.20601 0.71943 0.0
H1115 H 0.5459 0.24386 0.7457 0.0
C1116 C 0.43581 0.16788 0.69139 0.0
C1117 C 0.4218 0.14101 0.70129 0.0
C1118 C 0.45676 0.18486 0.70639 0.0
C1119 C 0.46407 0.17554 0.73179 0.0
C1120 C 0.45089 0.14804 0.74139 0.0
C1121 C 0.43013 0.13085 0.72624 0.0
C1122 C 0.49037 0.22383 0.78918 0.0
C1123 C 0.51618 0.23948 0.77915 0.0
C1124 C 0.4743 0.20216 0.77419 0.0
C1125 C 0.48348 0.19576 0.74868 0.0
C1126 C 0.50996 0.2106 0.73894 0.0
C1127 C 0.52624 0.23209 0.75406 0.0
H1128 H 0.97055 0.42195 0.67893 0.0
H1129 H 0.04411 0.41725 0.73543 0.0
H1130 H 0.94375 0.45977 0.70564 0.0
H1131 H 1.01754 0.45551 0.76204 0.0
H1132 H 0.93642 0.48641 0.8158 0.0
H1133 H 0.96944 0.45497 0.78817 0.0
H1134 H 0.94687 0.51329 0.7228 0.0
H1135 H 0.91342 0.5444 0.75039 0.0
C1136 C 0.98112 0.42924 0.69695 0.0
C1137 C 1.00937 0.41649 0.7051 0.0
C1138 C 0.96591 0.45112 0.71216 0.0
C1139 C 0.97847 0.46061 0.73601 0.0
C1140 C 1.00715 0.4485 0.74385 0.0
C1141 C 1.02252 0.4268 0.7285 0.0
C1142 C 0.93872 0.49263 0.79558 0.0
C1143 C 0.92222 0.51782 0.78529 0.0
C1144 C 0.95784 0.47479 0.77979 0.0
C1145 C 0.96071 0.48156 0.75325 0.0
C1146 C 0.94494 0.50734 0.74312 0.0
C1147 C 0.92603 0.52535 0.75898 0.0
H1148 H 0.60496 0.91635 0.74765 0.0
H1149 H 0.67085 0.92836 0.80958 0.0
H1150 H 0.63212 0.95503 0.72188 0.0
H1151 H 0.69733 0.9682 0.78462 0.0
H1152 H 0.75918 1.01035 0.72241 0.0
H1153 H 0.73022 0.97491 0.74995 0.0
H1154 H 0.64509 1.00626 0.71459 0.0
H1155 H 0.67452 0.04046 0.68631 0.0
C1156 C 0.62488 0.92785 0.75596 0.0
C1157 C 0.63587 0.91926 0.78056 0.0
C1158 C 0.64052 0.95016 0.74123 0.0
C1159 C 0.66728 0.96486 0.75093 0.0
C1160 C 0.67741 0.95698 0.77606 0.0
C1161 C 0.66209 0.9343 0.79053 0.0
C1162 C 0.73426 1.00979 0.72078 0.0
C1163 C 0.71912 1.02807 0.70218 0.0
C1164 C 0.71751 0.98953 0.73664 0.0
C1165 C 0.68507 0.98743 0.73465 0.0
C1166 C 0.66998 1.00652 0.71643 0.0
C1167 C 0.68681 1.02633 0.70028 0.0
H1168 H 1.00556 0.785 0.74198 0.0
H1169 H 0.98899 0.73114 0.67288 0.0
H1170 H 0.97114 0.75045 0.76613 0.0
H1171 H 0.95562 0.69659 0.69686 0.0
H1172 H 0.87345 0.65713 0.74181 0.0
H1173 H 0.90616 0.69306 0.71736 0.0
H1174 H 0.96922 0.69838 0.7823 0.0
H1175 H 0.93652 0.66345 0.80663 0.0
C1176 C 0.99477 0.76577 0.73202 0.0
C1177 C 1.00004 0.76091 0.70555 0.0
C1178 C 0.97511 0.74589 0.74581 0.0
C1179 C 0.96045 0.72073 0.7334 0.0
C1180 C 0.96594 0.71598 0.70696 0.0
C1181 C 0.98538 0.73577 0.69326 0.0
C1182 C 0.89442 0.66584 0.75068 0.0
C1183 C 0.90229 0.65752 0.77614 0.0
C1184 C 0.91318 0.68644 0.73675 0.0
C1185 C 0.94023 0.69894 0.74799 0.0
C1186 C 0.94827 0.68992 0.77324 0.0
C1187 C 0.92957 0.66958 0.7871 0.0
H1188 H 0.36963 0.99969 0.74209 0.0
H1189 H 0.434 0.99584 0.67852 0.0
H1190 H 0.40184 0.96297 0.76634 0.0
H1191 H 0.46614 0.96008 0.70263 0.0
H1192 H 0.50202 0.87253 0.74158 0.0
H1193 H 0.46755 0.90737 0.71763 0.0
H1194 H 0.45117 0.95924 0.78766 0.0
H1195 H 0.4846 0.92444 0.81143 0.0
C1196 C 0.39077 0.99134 0.73347 0.0
C1197 C 0.39918 1.0006 0.70841 0.0
C1198 C 0.40923 0.97028 0.74727 0.0
C1199 C 0.43647 0.95825 0.73628 0.0
C1200 C 0.44502 0.96818 0.71145 0.0
C1201 C 0.42664 0.98898 0.69773 0.0
C1202 C 0.49101 0.89137 0.75176 0.0
C1203 C 0.49612 0.89566 0.77836 0.0
C1204 C 0.47132 0.9114 0.73809 0.0
C1205 C 0.45647 0.93612 0.75077 0.0
C1206 C 0.46168 0.94022 0.77735 0.0
C1207 C 0.48117 0.92029 0.79093 0.0
H1208 H 0.15459 0.43011 0.67753 0.0
H1209 H 0.14797 0.36901 0.74362 0.0
H1210 H 0.18871 0.46404 0.70153 0.0
H1211 H 0.18311 0.40302 0.76775 0.0
H1212 H 0.21863 0.4877 0.81126 0.0
H1213 H 0.18504 0.45335 0.78718 0.0
H1214 H 0.24018 0.46786 0.71866 0.0
H1215 H 0.27383 0.50321 0.74295 0.0
C1216 C 0.16051 0.4238 0.69725 0.0
C1217 C 0.14851 0.39674 0.70867 0.0
C1218 C 0.18039 0.44325 0.71094 0.0
C1219 C 0.18899 0.43624 0.7365 0.0
C1220 C 0.17677 0.40929 0.74813 0.0
C1221 C 0.15665 0.38976 0.73436 0.0
C1222 C 0.22371 0.48371 0.79102 0.0
C1223 C 0.24902 0.49825 0.77901 0.0
C1224 C 0.20448 0.46369 0.77726 0.0
C1225 C 0.20996 0.45748 0.75104 0.0
C1226 C 0.2351 0.47229 0.73883 0.0
C1227 C 0.25442 0.49255 0.75268 0.0
H1228 H 0.65485 0.29563 0.73835 0.0
H1229 H 0.65653 0.23147 0.80259 0.0
H1230 H 0.69001 0.26178 0.7145 0.0
H1231 H 0.69055 0.19756 0.77881 0.0
H1232 H 0.7755 0.15707 0.73991 0.0
H1233 H 0.74247 0.193 0.7638 0.0
H1234 H 0.69151 0.21272 0.69353 0.0
H1235 H 0.72461 0.17801 0.66986 0.0
C1236 C 0.66239 0.27418 0.74719 0.0
C1237 C 0.65303 0.26629 0.77231 0.0
C1238 C 0.68253 0.25477 0.73362 0.0
C1239 C 0.6934 0.22702 0.74487 0.0
C1240 C 0.68337 0.21903 0.76978 0.0
C1241 C 0.66356 0.23842 0.78332 0.0
C1242 C 0.75723 0.16913 0.72969 0.0
C1243 C 0.75278 0.16471 0.70303 0.0
C1244 C 0.73825 0.18966 0.74331 0.0
C1245 C 0.71437 0.20593 0.73053 0.0
C1246 C 0.70999 0.2012 0.70392 0.0
C1247 C 0.72894 0.18098 0.69039 0.0
H1248 H 0.99215 0.43349 0.30488 0.0
H1249 H 0.98811 0.36586 0.24351 0.0
H1250 H 0.95665 0.46652 0.28128 0.0
H1251 H 0.95169 0.39895 0.21984 0.0
H1252 H 0.91539 0.48133 0.17326 0.0
H1253 H 0.94932 0.44704 0.1969 0.0
H1254 H 0.90344 0.471 0.26822 0.0
H1255 H 0.86945 0.50643 0.24429 0.0
C1256 C 0.98363 0.42561 0.28627 0.0
C1257 C 0.99302 0.39698 0.27604 0.0
C1258 C 0.96295 0.44451 0.27285 0.0
C1259 C 0.95092 0.43536 0.24879 0.0
C1260 C 0.96066 0.40688 0.23828 0.0
C1261 C 0.98157 0.3879 0.25176 0.0
C1262 C 0.91233 0.47942 0.19401 0.0
C1263 C 0.88963 0.49681 0.20689 0.0
C1264 C 0.93176 0.4594 0.20755 0.0
C1265 C 0.92914 0.45601 0.23446 0.0
C1266 C 0.90633 0.47327 0.24748 0.0
C1267 C 0.88675 0.4935 0.23382 0.0
H1268 H 0.64789 0.93411 0.17871 0.0
H1269 H 0.6494 0.8665 0.24043 0.0
H1270 H 0.6846 0.96597 0.20218 0.0
H1271 H 0.68706 0.89831 0.26391 0.0
H1272 H 0.72677 0.97885 0.31017 0.0
H1273 H 0.69117 0.94624 0.28661 0.0
H1274 H 0.73795 0.96848 0.21518 0.0
H1275 H 0.77363 1.00227 0.23902 0.0
C1276 C 0.65611 0.926 0.19737 0.0
C1277 C 0.64568 0.89774 0.20776 0.0
C1278 C 0.67747 0.9442 0.2107 0.0
C1279 C 0.68913 0.93465 0.2348 0.0
C1280 C 0.67837 0.90653 0.24544 0.0
C1281 C 0.65676 0.88829 0.23208 0.0
C1282 C 0.72968 0.9769 0.28941 0.0
C1283 C 0.75315 0.99328 0.27646 0.0
C1284 C 0.70927 0.95786 0.27592 0.0
C1285 C 0.7117 0.95446 0.24902 0.0
C1286 C 0.73522 0.9708 0.23592 0.0
C1287 C 0.75574 0.99008 0.24952 0.0
H1288 H 0.16946 0.71744 0.31437 0.0
H1289 H 0.1474 0.76667 0.24373 0.0
H1290 H 0.2013 0.68176 0.29046 0.0
H1291 H 0.18024 0.73077 0.21954 0.0
H1292 H 0.21381 0.64121 0.18233 0.0
H1293 H 0.18176 0.67693 0.20633 0.0
H1294 H 0.24979 0.67914 0.26777 0.0
H1295 H 0.28193 0.64264 0.24369 0.0
C1296 C 0.17149 0.72079 0.29365 0.0
C1297 C 0.15587 0.74505 0.28094 0.0
C1298 C 0.19005 0.70034 0.27998 0.0
C1299 C 0.19362 0.70349 0.25315 0.0
C1300 C 0.17779 0.72757 0.24024 0.0
C1301 C 0.15904 0.74818 0.25403 0.0
C1302 C 0.22196 0.64913 0.20105 0.0
C1303 C 0.25048 0.63909 0.21114 0.0
C1304 C 0.20363 0.66989 0.21468 0.0
C1305 C 0.21331 0.68124 0.2388 0.0
C1306 C 0.24156 0.67068 0.24925 0.0
C1307 C 0.25996 0.64973 0.23556 0.0
H1308 H 0.43862 0.1329 0.28963 0.0
H1309 H 0.359 0.15393 0.24228 0.0
H1310 H 0.46926 0.1701 0.26537 0.0
H1311 H 0.38944 0.19203 0.21829 0.0
H1312 H 0.46127 0.23607 0.16556 0.0
H1313 H 0.43067 0.19832 0.18861 0.0
H1314 H 0.47474 0.22507 0.26044 0.0
H1315 H 0.50659 0.26259 0.2369 0.0
C1316 C 0.42777 0.14532 0.27378 0.0
C1317 C 0.39647 0.14047 0.26774 0.0
C1318 C 0.44523 0.16697 0.26012 0.0
C1319 C 0.43175 0.18452 0.24017 0.0
C1320 C 0.40066 0.1788 0.23345 0.0
C1321 C 0.38321 0.15685 0.24705 0.0
C1322 C 0.46451 0.23411 0.18631 0.0
C1323 C 0.48655 0.25233 0.1994 0.0
C1324 C 0.44668 0.21248 0.19957 0.0
C1325 C 0.45018 0.20851 0.22638 0.0
C1326 C 0.47179 0.22719 0.23968 0.0
C1327 C 0.48985 0.24889 0.22629 0.0
loop_
_geom_bond_atom_site_label_1
_geom_bond_atom_site_label_2
_geom_bond_distance
_geom_bond_site_symmetry_2
_ccdc_geom_bond_type
C0 C1 1.351 . S
C0 N3 1.368 . S
C0 H5 0.931 . S
C1 C0 1.351 . S
C1 N2 1.373 . S
C1 H29 0.930 . S
N2 C1 1.373 . S
N2 C4 1.340 . S
N3 C0 1.368 . S
N3 C4 1.321 . S
N3 Co6 2.135 1_655 S
C4 N2 1.340 . S
C4 N3 1.321 . S
C4 H28 0.930 1_655 S
H5 C0 0.931 . S
Co6 N3 2.135 1_455 S
Co6 N9 2.121 . S
Co6 O14 2.055 . S
Co6 O17 2.039 . S
Co6 N20 2.140 . S
C7 O8 1.227 . S
C7 O17 1.265 . S
O8 C7 1.227 . S
N9 Co6 2.121 . S
N9 C11 1.375 . S
N9 C12 1.313 . S
C10 C11 1.338 . S
C10 N13 1.377 . S
C10 H30 0.930 . S
C11 N9 1.375 . S
C11 C10 1.338 . S
C11 H15 0.931 . S
C12 N9 1.313 . S
C12 N13 1.344 . S
C12 H16 0.930 . S
N13 C10 1.377 . S
N13 C12 1.344 . S
O14 Co6 2.055 . S
O14 C18 1.253 1_455 S
H15 C11 0.931 . S
H16 C12 0.930 . S
O17 Co6 2.039 . S
O17 C7 1.265 . S
C18 O14 1.253 1_655 S
C18 O19 1.227 . S
O19 C18 1.227 . S
N20 Co6 2.140 . S
N20 C23 1.346 . S
N20 C24 1.345 . S
C21 C22 1.387 . S
C21 C25 1.391 . S
C22 C21 1.387 . S
C22 C23 1.369 . S
C22 H31 0.929 . S
C23 N20 1.346 . S
C23 C22 1.369 . S
C23 H26 0.928 . S
C24 N20 1.345 . S
C24 C25 1.371 . S
C24 H27 0.931 . S
C25 C21 1.391 . S
C25 C24 1.371 . S
C25 H32 0.930 . S
H26 C23 0.928 . S
H27 C24 0.931 . S
H28 C4 0.930 1_455 S
H29 C1 0.930 . S
H30 C10 0.930 . S
H31 C22 0.929 . S
H32 C25 0.930 . S
C33 C34 1.351 . S
C33 N36 1.368 . S
C33 H38 0.931 . S
C34 C33 1.351 . S
C34 N35 1.373 . S
C34 H62 0.930 . S
N35 C34 1.373 . S
N35 C37 1.340 . S
N36 C33 1.368 . S
N36 C37 1.321 . S
N36 Co39 2.135 1_565 S
C37 N35 1.340 . S
C37 N36 1.321 . S
C37 H61 0.930 1_565 S
H38 C33 0.931 . S
Co39 N36 2.135 1_545 S
Co39 N42 2.121 . S
Co39 O47 2.055 . S
Co39 O50 2.039 . S
Co39 N53 2.140 . S
C40 O41 1.227 . S
C40 O50 1.265 . S
O41 C40 1.227 . S
N42 Co39 2.121 . S
N42 C44 1.375 . S
N42 C45 1.313 . S
C43 C44 1.338 . S
C43 N46 1.377 . S
C43 H63 0.930 . S
C44 N42 1.375 . S
C44 C43 1.338 . S
C44 H48 0.931 . S
C45 N42 1.313 . S
C45 N46 1.344 . S
C45 H49 0.930 . S
N46 C43 1.377 . S
N46 C45 1.344 . S
O47 Co39 2.055 . S
O47 C51 1.253 1_545 S
H48 C44 0.931 . S
H49 C45 0.930 . S
O50 Co39 2.039 . S
O50 C40 1.265 . S
C51 O47 1.253 1_565 S
C51 O52 1.227 . S
O52 C51 1.227 . S
N53 Co39 2.140 . S
N53 C56 1.346 . S
N53 C57 1.345 . S
C54 C55 1.387 . S
C54 C58 1.391 . S
C55 C54 1.387 . S
C55 C56 1.369 . S
C55 H64 0.929 . S
C56 N53 1.346 . S
C56 C55 1.369 . S
C56 H59 0.928 . S
C57 N53 1.345 . S
C57 C58 1.371 . S
C57 H60 0.931 . S
C58 C54 1.391 . S
C58 C57 1.371 . S
C58 H65 0.930 . S
H59 C56 0.928 . S
H60 C57 0.931 . S
H61 C37 0.930 1_545 S
H62 C34 0.930 . S
H63 C43 0.930 . S
H64 C55 0.929 . S
H65 C58 0.930 . S
C66 C67 1.351 . S
C66 N69 1.368 . S
C66 H71 0.931 . S
C67 C66 1.351 . S
C67 N68 1.373 . S
C67 H95 0.930 . S
N68 C67 1.373 . S
N68 C70 1.340 . S
N69 C66 1.368 . S
N69 C70 1.321 . S
N69 Co72 2.135 . S
C70 N68 1.340 . S
C70 N69 1.321 . S
C70 H94 0.930 . S
H71 C66 0.931 . S
Co72 N69 2.135 . S
Co72 N75 2.121 . S
Co72 O80 2.055 . S
Co72 O83 2.039 . S
Co72 N86 2.140 . S
C73 O74 1.227 . S
C73 O83 1.265 . S
O74 C73 1.227 . S
N75 Co72 2.121 . S
N75 C77 1.375 . S
N75 C78 1.313 . S
C76 C77 1.338 1_655 S
C76 N79 1.377 1_655 S
C76 H96 0.930 . S
C77 N75 1.375 . S
C77 C76 1.338 1_455 S
C77 H81 0.931 1_455 S
C78 N75 1.313 . S
C78 N79 1.344 . S
C78 H82 0.930 . S
N79 C76 1.377 1_455 S
N79 C78 1.344 . S
O80 Co72 2.055 . S
O80 C84 1.253 . S
H81 C77 0.931 1_655 S
H82 C78 0.930 . S
O83 Co72 2.039 . S
O83 C73 1.265 . S
C84 O80 1.253 . S
C84 O85 1.227 . S
O85 C84 1.227 . S
N86 Co72 2.140 . S
N86 C89 1.346 . S
N86 C90 1.345 . S
C87 C88 1.387 . S
C87 C91 1.391 . S
C88 C87 1.387 . S
C88 C89 1.369 . S
C88 H97 0.929 . S
C89 N86 1.346 . S
C89 C88 1.369 . S
C89 H92 0.928 . S
C90 N86 1.345 . S
C90 C91 1.371 . S
C90 H93 0.931 . S
C91 C87 1.391 . S
C91 C90 1.371 . S
C91 H98 0.930 . S
H92 C89 0.928 . S
H93 C90 0.931 . S
H94 C70 0.930 . S
H95 C67 0.930 . S
H96 C76 0.930 . S
H97 C88 0.929 . S
H98 C91 0.930 . S
C99 C100 1.351 . S
C99 N102 1.368 . S
C99 H104 0.931 . S
C100 C99 1.351 . S
C100 N101 1.373 . S
C100 H128 0.930 . S
N101 C100 1.373 . S
N101 C103 1.340 . S
N102 C99 1.368 . S
N102 C103 1.321 . S
N102 Co105 2.135 . S
C103 N101 1.340 . S
C103 N102 1.321 . S
C103 H127 0.930 . S
H104 C99 0.931 . S
Co105 N102 2.135 . S
Co105 N108 2.121 . S
Co105 O113 2.055 . S
Co105 O116 2.039 . S
Co105 N119 2.140 . S
C106 O107 1.227 . S
C106 O116 1.265 . S
O107 C106 1.227 . S
N108 Co105 2.121 . S
N108 C110 1.375 . S
N108 C111 1.313 . S
C109 C110 1.338 1_565 S
C109 N112 1.377 1_565 S
C109 H129 0.930 . S
C110 N108 1.375 . S
C110 C109 1.338 1_545 S
C110 H114 0.931 1_545 S
C111 N108 1.313 . S
C111 N112 1.344 . S
C111 H115 0.930 . S
N112 C109 1.377 1_545 S
N112 C111 1.344 . S
O113 Co105 2.055 . S
O113 C117 1.253 . S
H114 C110 0.931 1_565 S
H115 C111 0.930 . S
O116 Co105 2.039 . S
O116 C106 1.265 . S
C117 O113 1.253 . S
C117 O118 1.227 . S
O118 C117 1.227 . S
N119 Co105 2.140 . S
N119 C122 1.346 . S
N119 C123 1.345 . S
C120 C121 1.387 . S
C120 C124 1.391 . S
C121 C120 1.387 . S
C121 C122 1.369 . S
C121 H130 0.929 . S
C122 N119 1.346 . S
C122 C121 1.369 . S
C122 H125 0.928 . S
C123 N119 1.345 . S
C123 C124 1.371 . S
C123 H126 0.931 . S
C124 C120 1.391 . S
C124 C123 1.371 . S
C124 H131 0.930 . S
H125 C122 0.928 . S
H126 C123 0.931 . S
H127 C103 0.930 . S
H128 C100 0.930 . S
H129 C109 0.930 . S
H130 C121 0.929 . S
H131 C124 0.930 . S
C132 C133 1.351 . S
C132 N135 1.368 . S
C132 H137 0.931 . S
C133 C132 1.351 . S
C133 N134 1.373 . S
C133 H161 0.930 . S
N134 C133 1.373 . S
N134 C136 1.340 . S
N135 C132 1.368 . S
N135 C136 1.321 . S
N135 Co138 2.135 1_655 S
C136 N134 1.340 . S
C136 N135 1.321 . S
C136 H160 0.930 1_655 S
H137 C132 0.931 . S
Co138 N135 2.135 1_455 S
Co138 N141 2.121 . S
Co138 O146 2.055 . S
Co138 O149 2.039 . S
Co138 N152 2.140 . S
C139 O140 1.227 . S
C139 O149 1.265 . S
O140 C139 1.227 . S
N141 Co138 2.121 . S
N141 C143 1.375 . S
N141 C144 1.313 . S
C142 C143 1.338 . S
C142 N145 1.377 . S
C142 H162 0.930 . S
C143 N141 1.375 . S
C143 C142 1.338 . S
C143 H147 0.931 . S
C144 N141 1.313 . S
C144 N145 1.344 . S
C144 H148 0.930 . S
N145 C142 1.377 . S
N145 C144 1.344 . S
O146 Co138 2.055 . S
O146 C150 1.253 1_455 S
H147 C143 0.931 . S
H148 C144 0.930 . S
O149 Co138 2.039 . S
O149 C139 1.265 . S
C150 O146 1.253 1_655 S
C150 O151 1.227 . S
O151 C150 1.227 . S
N152 Co138 2.140 . S
N152 C155 1.346 . S
N152 C156 1.345 . S
C153 C154 1.387 . S
C153 C157 1.391 . S
C154 C153 1.387 . S
C154 C155 1.369 . S
C154 H163 0.929 . S
C155 N152 1.346 . S
C155 C154 1.369 . S
C155 H158 0.928 . S
C156 N152 1.345 . S
C156 C157 1.371 . S
C156 H159 0.931 . S
C157 C153 1.391 . S
C157 C156 1.371 . S
C157 H164 0.930 . S
H158 C155 0.928 . S
H159 C156 0.931 . S
H160 C136 0.930 1_455 S
H161 C133 0.930 . S
H162 C142 0.930 . S
H163 C154 0.929 . S
H164 C157 0.930 . S
C165 C166 1.351 . S
C165 N168 1.368 . S
C165 H170 0.931 . S
C166 C165 1.351 . S
C166 N167 1.373 . S
C166 H194 0.930 . S
N167 C166 1.373 . S
N167 C169 1.340 . S
N168 C165 1.368 . S
N168 C169 1.321 . S
N168 Co171 2.135 1_565 S
C169 N167 1.340 . S
C169 N168 1.321 . S
C169 H193 0.930 1_565 S
H170 C165 0.931 . S
Co171 N168 2.135 1_545 S
Co171 N174 2.121 . S
Co171 O179 2.055 . S
Co171 O182 2.039 . S
Co171 N185 2.140 . S
C172 O173 1.227 . S
C172 O182 1.265 . S
O173 C172 1.227 . S
N174 Co171 2.121 . S
N174 C176 1.375 . S
N174 C177 1.313 . S
C175 C176 1.338 . S
C175 N178 1.377 . S
C175 H195 0.930 . S
C176 N174 1.375 . S
C176 C175 1.338 . S
C176 H180 0.931 . S
C177 N174 1.313 . S
C177 N178 1.344 . S
C177 H181 0.930 . S
N178 C175 1.377 . S
N178 C177 1.344 . S
O179 Co171 2.055 . S
O179 C183 1.253 1_545 S
H180 C176 0.931 . S
H181 C177 0.930 . S
O182 Co171 2.039 . S
O182 C172 1.265 . S
C183 O179 1.253 1_565 S
C183 O184 1.227 . S
O184 C183 1.227 . S
N185 Co171 2.140 . S
N185 C188 1.346 . S
N185 C189 1.345 . S
C186 C187 1.387 . S
C186 C190 1.391 . S
C187 C186 1.387 . S
C187 C188 1.369 . S
C187 H196 0.929 . S
C188 N185 1.346 . S
C188 C187 1.369 . S
C188 H191 0.928 . S
C189 N185 1.345 . S
C189 C190 1.371 . S
C189 H192 0.931 . S
C190 C186 1.391 . S
C190 C189 1.371 . S
C190 H197 0.930 . S
H191 C188 0.928 . S
H192 C189 0.931 . S
H193 C169 0.930 1_545 S
H194 C166 0.930 . S
H195 C175 0.930 . S
H196 C187 0.929 . S
H197 C190 0.930 . S
C198 C199 1.351 . S
C198 N201 1.368 . S
C198 H203 0.931 . S
C199 C198 1.351 . S
C199 N200 1.373 . S
C199 H227 0.930 . S
N200 C199 1.373 . S
N200 C202 1.340 . S
N201 C198 1.368 . S
N201 C202 1.321 . S
N201 Co204 2.135 . S
C202 N200 1.340 . S
C202 N201 1.321 . S
C202 H226 0.930 . S
H203 C198 0.931 . S
Co204 N201 2.135 . S
Co204 N207 2.121 . S
Co204 O212 2.055 . S
Co204 O215 2.039 . S
Co204 N218 2.140 . S
C205 O206 1.227 . S
C205 O215 1.265 . S
O206 C205 1.227 . S
N207 Co204 2.121 . S
N207 C209 1.375 . S
N207 C210 1.313 . S
C208 C209 1.338 1_655 S
C208 N211 1.377 1_655 S
C208 H228 0.930 . S
C209 N207 1.375 . S
C209 C208 1.338 1_455 S
C209 H213 0.931 1_455 S
C210 N207 1.313 . S
C210 N211 1.344 . S
C210 H214 0.930 . S
N211 C208 1.377 1_455 S
N211 C210 1.344 . S
O212 Co204 2.055 . S
O212 C216 1.253 . S
H213 C209 0.931 1_655 S
H214 C210 0.930 . S
O215 Co204 2.039 . S
O215 C205 1.265 . S
C216 O212 1.253 . S
C216 O217 1.227 . S
O217 C216 1.227 . S
N218 Co204 2.140 . S
N218 C221 1.346 . S
N218 C222 1.345 . S
C219 C220 1.387 . S
C219 C223 1.391 . S
C220 C219 1.387 . S
C220 C221 1.369 . S
C220 H229 0.929 . S
C221 N218 1.346 . S
C221 C220 1.369 . S
C221 H224 0.928 . S
C222 N218 1.345 . S
C222 C223 1.371 . S
C222 H225 0.931 . S
C223 C219 1.391 . S
C223 C222 1.371 . S
C223 H230 0.930 . S
H224 C221 0.928 . S
H225 C222 0.931 . S
H226 C202 0.930 . S
H227 C199 0.930 . S
H228 C208 0.930 . S
H229 C220 0.929 . S
H230 C223 0.930 . S
C231 C232 1.351 . S
C231 N234 1.368 . S
C231 H236 0.931 . S
C232 C231 1.351 . S
C232 N233 1.373 . S
C232 H260 0.930 . S
N233 C232 1.373 . S
N233 C235 1.340 . S
N234 C231 1.368 . S
N234 C235 1.321 . S
N234 Co237 2.135 . S
C235 N233 1.340 . S
C235 N234 1.321 . S
C235 H259 0.930 . S
H236 C231 0.931 . S
Co237 N234 2.135 . S
Co237 N240 2.121 . S
Co237 O245 2.055 . S
Co237 O248 2.039 . S
Co237 N251 2.140 . S
C238 O239 1.227 . S
C238 O248 1.265 . S
O239 C238 1.227 . S
N240 Co237 2.121 . S
N240 C242 1.375 . S
N240 C243 1.313 . S
C241 C242 1.338 1_565 S
C241 N244 1.377 1_565 S
C241 H261 0.930 . S
C242 N240 1.375 . S
C242 C241 1.338 1_545 S
C242 H246 0.931 1_545 S
C243 N240 1.313 . S
C243 N244 1.344 . S
C243 H247 0.930 . S
N244 C241 1.377 1_545 S
N244 C243 1.344 . S
O245 Co237 2.055 . S
O245 C249 1.253 . S
H246 C242 0.931 1_565 S
H247 C243 0.930 . S
O248 Co237 2.039 . S
O248 C238 1.265 . S
C249 O245 1.253 . S
C249 O250 1.227 . S
O250 C249 1.227 . S
N251 Co237 2.140 . S
N251 C254 1.346 . S
N251 C255 1.345 . S
C252 C253 1.387 . S
C252 C256 1.391 . S
C253 C252 1.387 . S
C253 C254 1.369 . S
C253 H262 0.929 . S
C254 N251 1.346 . S
C254 C253 1.369 . S
C254 H257 0.928 . S
C255 N251 1.345 . S
C255 C256 1.371 . S
C255 H258 0.931 . S
C256 C252 1.391 . S
C256 C255 1.371 . S
C256 H263 0.930 . S
H257 C254 0.928 . S
H258 C255 0.931 . S
H259 C235 0.930 . S
H260 C232 0.930 . S
H261 C241 0.930 . S
H262 C253 0.929 . S
H263 C256 0.930 . S
C264 C265 1.351 . S
C264 N267 1.368 . S
C264 H269 0.931 . S
C265 C264 1.351 . S
C265 N266 1.373 . S
C265 H293 0.930 . S
N266 C265 1.373 . S
N266 C268 1.340 . S
N267 C264 1.368 . S
N267 C268 1.321 . S
N267 Co270 2.135 . S
C268 N266 1.340 . S
C268 N267 1.321 . S
C268 H292 0.930 . S
H269 C264 0.931 . S
Co270 N267 2.135 . S
Co270 N273 2.121 . S
Co270 O278 2.055 . S
Co270 O281 2.039 . S
Co270 N284 2.140 . S
C271 O272 1.227 . S
C271 O281 1.265 . S
O272 C271 1.227 . S
N273 Co270 2.121 . S
N273 C275 1.375 . S
N273 C276 1.313 . S
C274 C275 1.338 . S
C274 N277 1.377 . S
C274 H294 0.930 . S
C275 N273 1.375 . S
C275 C274 1.338 . S
C275 H279 0.931 . S
C276 N273 1.313 . S
C276 N277 1.344 . S
C276 H280 0.930 . S
N277 C274 1.377 . S
N277 C276 1.344 . S
O278 Co270 2.055 . S
O278 C282 1.253 . S
H279 C275 0.931 . S
H280 C276 0.930 . S
O281 Co270 2.039 . S
O281 C271 1.265 . S
C282 O278 1.253 . S
C282 O283 1.227 . S
O283 C282 1.227 . S
N284 Co270 2.140 . S
N284 C287 1.346 . S
N284 C288 1.345 . S
C285 C286 1.387 . S
C285 C289 1.391 . S
C286 C285 1.387 . S
C286 C287 1.369 . S
C286 H295 0.929 . S
C287 N284 1.346 . S
C287 C286 1.369 . S
C287 H290 0.928 . S
C288 N284 1.345 . S
C288 C289 1.371 . S
C288 H291 0.931 . S
C289 C285 1.391 . S
C289 C288 1.371 . S
C289 H296 0.930 . S
H290 C287 0.928 . S
H291 C288 0.931 . S
H292 C268 0.930 . S
H293 C265 0.930 . S
H294 C274 0.930 . S
H295 C286 0.929 . S
H296 C289 0.930 . S
C297 C298 1.351 . S
C297 N300 1.368 . S
C297 H302 0.931 . S
C298 C297 1.351 . S
C298 N299 1.373 . S
C298 H326 0.930 . S
N299 C298 1.373 . S
N299 C301 1.340 . S
N300 C297 1.368 . S
N300 C301 1.321 . S
N300 Co303 2.135 . S
C301 N299 1.340 . S
C301 N300 1.321 . S
C301 H325 0.930 . S
H302 C297 0.931 . S
Co303 N300 2.135 . S
Co303 N306 2.121 . S
Co303 O311 2.055 . S
Co303 O314 2.039 . S
Co303 N317 2.140 . S
C304 O305 1.227 . S
C304 O314 1.265 . S
O305 C304 1.227 . S
N306 Co303 2.121 . S
N306 C308 1.375 . S
N306 C309 1.313 . S
C307 C308 1.338 . S
C307 N310 1.377 . S
C307 H327 0.930 . S
C308 N306 1.375 . S
C308 C307 1.338 . S
C308 H312 0.931 . S
C309 N306 1.313 . S
C309 N310 1.344 . S
C309 H313 0.930 . S
N310 C307 1.377 . S
N310 C309 1.344 . S
O311 Co303 2.055 . S
O311 C315 1.253 . S
H312 C308 0.931 . S
H313 C309 0.930 . S
O314 Co303 2.039 . S
O314 C304 1.265 . S
C315 O311 1.253 . S
C315 O316 1.227 . S
O316 C315 1.227 . S
N317 Co303 2.140 . S
N317 C320 1.346 . S
N317 C321 1.345 . S
C318 C319 1.387 . S
C318 C322 1.391 . S
C319 C318 1.387 . S
C319 C320 1.369 . S
C319 H328 0.929 . S
C320 N317 1.346 . S
C320 C319 1.369 . S
C320 H323 0.928 . S
C321 N317 1.345 . S
C321 C322 1.371 . S
C321 H324 0.931 . S
C322 C318 1.391 . S
C322 C321 1.371 . S
C322 H329 0.930 . S
H323 C320 0.928 . S
H324 C321 0.931 . S
H325 C301 0.930 . S
H326 C298 0.930 . S
H327 C307 0.930 . S
H328 C319 0.929 . S
H329 C322 0.930 . S
C330 C331 1.351 . S
C330 N333 1.368 . S
C330 H335 0.931 . S
C331 C330 1.351 . S
C331 N332 1.373 . S
C331 H359 0.930 . S
N332 C331 1.373 . S
N332 C334 1.340 . S
N333 C330 1.368 . S
N333 C334 1.321 . S
N333 Co336 2.135 . S
C334 N332 1.340 . S
C334 N333 1.321 . S
C334 H358 0.930 . S
H335 C330 0.931 . S
Co336 N333 2.135 . S
Co336 N339 2.121 . S
Co336 O344 2.055 . S
Co336 O347 2.039 . S
Co336 N350 2.140 . S
C337 O338 1.227 . S
C337 O347 1.265 . S
O338 C337 1.227 . S
N339 Co336 2.121 . S
N339 C341 1.375 . S
N339 C342 1.313 . S
C340 C341 1.338 . S
C340 N343 1.377 . S
C340 H360 0.930 . S
C341 N339 1.375 . S
C341 C340 1.338 . S
C341 H345 0.931 . S
C342 N339 1.313 . S
C342 N343 1.344 . S
C342 H346 0.930 . S
N343 C340 1.377 . S
N343 C342 1.344 . S
O344 Co336 2.055 . S
O344 C348 1.253 . S
H345 C341 0.931 . S
H346 C342 0.930 . S
O347 Co336 2.039 . S
O347 C337 1.265 . S
C348 O344 1.253 . S
C348 O349 1.227 . S
O349 C348 1.227 . S
N350 Co336 2.140 . S
N350 C353 1.346 . S
N350 C354 1.345 . S
C351 C352 1.387 . S
C351 C355 1.391 . S
C352 C351 1.387 . S
C352 C353 1.369 . S
C352 H361 0.929 . S
C353 N350 1.346 . S
C353 C352 1.369 . S
C353 H356 0.928 . S
C354 N350 1.345 . S
C354 C355 1.371 . S
C354 H357 0.931 . S
C355 C351 1.391 . S
C355 C354 1.371 . S
C355 H362 0.930 . S
H356 C353 0.928 . S
H357 C354 0.931 . S
H358 C334 0.930 . S
H359 C331 0.930 . S
H360 C340 0.930 . S
H361 C352 0.929 . S
H362 C355 0.930 . S
C363 C364 1.351 . S
C363 N366 1.368 . S
C363 H368 0.931 . S
C364 C363 1.351 . S
C364 N365 1.373 . S
C364 H392 0.930 . S
N365 C364 1.373 . S
N365 C367 1.340 . S
N366 C363 1.368 . S
N366 C367 1.321 . S
N366 Co369 2.135 . S
C367 N365 1.340 . S
C367 N366 1.321 . S
C367 H391 0.930 . S
H368 C363 0.931 . S
Co369 N366 2.135 . S
Co369 N372 2.121 . S
Co369 O377 2.055 . S
Co369 O380 2.039 . S
Co369 N383 2.140 . S
C370 O371 1.227 . S
C370 O380 1.265 . S
O371 C370 1.227 . S
N372 Co369 2.121 . S
N372 C374 1.375 . S
N372 C375 1.313 . S
C373 C374 1.338 . S
C373 N376 1.377 . S
C373 H393 0.930 . S
C374 N372 1.375 . S
C374 C373 1.338 . S
C374 H378 0.931 . S
C375 N372 1.313 . S
C375 N376 1.344 . S
C375 H379 0.930 . S
N376 C373 1.377 . S
N376 C375 1.344 . S
O377 Co369 2.055 . S
O377 C381 1.253 . S
H378 C374 0.931 . S
H379 C375 0.930 . S
O380 Co369 2.039 . S
O380 C370 1.265 . S
C381 O377 1.253 . S
C381 O382 1.227 . S
O382 C381 1.227 . S
N383 Co369 2.140 . S
N383 C386 1.346 . S
N383 C387 1.345 . S
C384 C385 1.387 . S
C384 C388 1.391 . S
C385 C384 1.387 . S
C385 C386 1.369 . S
C385 H394 0.929 . S
C386 N383 1.346 . S
C386 C385 1.369 . S
C386 H389 0.928 . S
C387 N383 1.345 . S
C387 C388 1.371 . S
C387 H390 0.931 . S
C388 C384 1.391 . S
C388 C387 1.371 . S
C388 H395 0.930 . S
H389 C386 0.928 . S
H390 C387 0.931 . S
H391 C367 0.930 . S
H392 C364 0.930 . S
H393 C373 0.930 . S
H394 C385 0.929 . S
H395 C388 0.930 . S
C396 C397 1.351 . S
C396 N399 1.368 . S
C396 H401 0.931 . S
C397 C396 1.351 . S
C397 N398 1.373 . S
C397 H425 0.930 . S
N398 C397 1.373 . S
N398 C400 1.340 . S
N399 C396 1.368 . S
N399 C400 1.321 . S
N399 Co402 2.135 . S
C400 N398 1.340 . S
C400 N399 1.321 . S
C400 H424 0.930 . S
H401 C396 0.931 . S
Co402 N399 2.135 . S
Co402 N405 2.121 . S
Co402 O410 2.055 . S
Co402 O413 2.039 . S
Co402 N416 2.140 . S
C403 O404 1.227 . S
C403 O413 1.265 . S
O404 C403 1.227 . S
N405 Co402 2.121 . S
N405 C407 1.375 . S
N405 C408 1.313 . S
C406 C407 1.338 . S
C406 N409 1.377 . S
C406 H426 0.930 . S
C407 N405 1.375 . S
C407 C406 1.338 . S
C407 H411 0.931 . S
C408 N405 1.313 . S
C408 N409 1.344 . S
C408 H412 0.930 . S
N409 C406 1.377 . S
N409 C408 1.344 . S
O410 Co402 2.055 . S
O410 C414 1.253 . S
H411 C407 0.931 . S
H412 C408 0.930 . S
O413 Co402 2.039 . S
O413 C403 1.265 . S
C414 O410 1.253 . S
C414 O415 1.227 . S
O415 C414 1.227 . S
N416 Co402 2.140 . S
N416 C419 1.346 . S
N416 C420 1.345 . S
C417 C418 1.387 . S
C417 C421 1.391 . S
C418 C417 1.387 . S
C418 C419 1.369 . S
C418 H427 0.929 . S
C419 N416 1.346 . S
C419 C418 1.369 . S
C419 H422 0.928 . S
C420 N416 1.345 . S
C420 C421 1.371 . S
C420 H423 0.931 . S
C421 C417 1.391 . S
C421 C420 1.371 . S
C421 H428 0.930 . S
H422 C419 0.928 . S
H423 C420 0.931 . S
H424 C400 0.930 . S
H425 C397 0.930 . S
H426 C406 0.930 . S
H427 C418 0.929 . S
H428 C421 0.930 . S
C429 C430 1.351 . S
C429 N432 1.368 . S
C429 H434 0.931 . S
C430 C429 1.351 . S
C430 N431 1.373 . S
C430 H458 0.930 . S
N431 C430 1.373 . S
N431 C433 1.340 . S
N432 C429 1.368 . S
N432 C433 1.321 . S
N432 Co435 2.135 . S
C433 N431 1.340 . S
C433 N432 1.321 . S
C433 H457 0.930 . S
H434 C429 0.931 . S
Co435 N432 2.135 . S
Co435 N438 2.121 . S
Co435 O443 2.055 . S
Co435 O446 2.039 . S
Co435 N449 2.140 . S
C436 O437 1.227 . S
C436 O446 1.265 . S
O437 C436 1.227 . S
N438 Co435 2.121 . S
N438 C440 1.375 . S
N438 C441 1.313 . S
C439 C440 1.338 . S
C439 N442 1.377 . S
C439 H459 0.930 . S
C440 N438 1.375 . S
C440 C439 1.338 . S
C440 H444 0.931 . S
C441 N438 1.313 . S
C441 N442 1.344 . S
C441 H445 0.930 . S
N442 C439 1.377 . S
N442 C441 1.344 . S
O443 Co435 2.055 . S
O443 C447 1.253 . S
H444 C440 0.931 . S
H445 C441 0.930 . S
O446 Co435 2.039 . S
O446 C436 1.265 . S
C447 O443 1.253 . S
C447 O448 1.227 . S
O448 C447 1.227 . S
N449 Co435 2.140 . S
N449 C452 1.346 . S
N449 C453 1.345 . S
C450 C451 1.387 . S
C450 C454 1.391 . S
C451 C450 1.387 . S
C451 C452 1.369 . S
C451 H460 0.929 . S
C452 N449 1.346 . S
C452 C451 1.369 . S
C452 H455 0.928 . S
C453 N449 1.345 . S
C453 C454 1.371 . S
C453 H456 0.931 . S
C454 C450 1.391 . S
C454 C453 1.371 . S
C454 H461 0.930 . S
H455 C452 0.928 . S
H456 C453 0.931 . S
H457 C433 0.930 . S
H458 C430 0.930 . S
H459 C439 0.930 . S
H460 C451 0.929 . S
H461 C454 0.930 . S
C462 C463 1.351 . S
C462 N465 1.368 . S
C462 H467 0.931 . S
C463 C462 1.351 . S
C463 N464 1.373 . S
C463 H491 0.930 . S
N464 C463 1.373 . S
N464 C466 1.340 . S
N465 C462 1.368 . S
N465 C466 1.321 . S
N465 Co468 2.135 . S
C466 N464 1.340 . S
C466 N465 1.321 . S
C466 H490 0.930 . S
H467 C462 0.931 . S
Co468 N465 2.135 . S
Co468 N471 2.121 . S
Co468 O476 2.055 . S
Co468 O479 2.039 . S
Co468 N482 2.140 . S
C469 O470 1.227 . S
C469 O479 1.265 . S
O470 C469 1.227 . S
N471 Co468 2.121 . S
N471 C473 1.375 . S
N471 C474 1.313 . S
C472 C473 1.338 . S
C472 N475 1.377 . S
C472 H492 0.930 . S
C473 N471 1.375 . S
C473 C472 1.338 . S
C473 H477 0.931 . S
C474 N471 1.313 . S
C474 N475 1.344 . S
C474 H478 0.930 . S
N475 C472 1.377 . S
N475 C474 1.344 . S
O476 Co468 2.055 . S
O476 C480 1.253 . S
H477 C473 0.931 . S
H478 C474 0.930 . S
O479 Co468 2.039 . S
O479 C469 1.265 . S
C480 O476 1.253 . S
C480 O481 1.227 . S
O481 C480 1.227 . S
N482 Co468 2.140 . S
N482 C485 1.346 . S
N482 C486 1.345 . S
C483 C484 1.387 . S
C483 C487 1.391 . S
C484 C483 1.387 . S
C484 C485 1.369 . S
C484 H493 0.929 . S
C485 N482 1.346 . S
C485 C484 1.369 . S
C485 H488 0.928 . S
C486 N482 1.345 . S
C486 C487 1.371 . S
C486 H489 0.931 . S
C487 C483 1.391 . S
C487 C486 1.371 . S
C487 H494 0.930 . S
H488 C485 0.928 . S
H489 C486 0.931 . S
H490 C466 0.930 . S
H491 C463 0.930 . S
H492 C472 0.930 . S
H493 C484 0.929 . S
H494 C487 0.930 . S
C495 C496 1.351 . S
C495 N498 1.368 . S
C495 H500 0.931 . S
C496 C495 1.351 . S
C496 N497 1.373 . S
C496 H524 0.930 . S
N497 C496 1.373 . S
N497 C499 1.340 . S
N498 C495 1.368 . S
N498 C499 1.321 . S
N498 Co501 2.135 . S
C499 N497 1.340 . S
C499 N498 1.321 . S
C499 H523 0.930 . S
H500 C495 0.931 . S
Co501 N498 2.135 . S
Co501 N504 2.121 . S
Co501 O509 2.055 . S
Co501 O512 2.039 . S
Co501 N515 2.140 . S
C502 O503 1.227 . S
C502 O512 1.265 . S
O503 C502 1.227 . S
N504 Co501 2.121 . S
N504 C506 1.375 . S
N504 C507 1.313 . S
C505 C506 1.338 . S
C505 N508 1.377 . S
C505 H525 0.930 . S
C506 N504 1.375 . S
C506 C505 1.338 . S
C506 H510 0.931 . S
C507 N504 1.313 . S
C507 N508 1.344 . S
C507 H511 0.930 . S
N508 C505 1.377 . S
N508 C507 1.344 . S
O509 Co501 2.055 . S
O509 C513 1.253 . S
H510 C506 0.931 . S
H511 C507 0.930 . S
O512 Co501 2.039 . S
O512 C502 1.265 . S
C513 O509 1.253 . S
C513 O514 1.227 . S
O514 C513 1.227 . S
N515 Co501 2.140 . S
N515 C518 1.346 . S
N515 C519 1.345 . S
C516 C517 1.387 . S
C516 C520 1.391 . S
C517 C516 1.387 . S
C517 C518 1.369 . S
C517 H526 0.929 . S
C518 N515 1.346 . S
C518 C517 1.369 . S
C518 H521 0.928 . S
C519 N515 1.345 . S
C519 C520 1.371 . S
C519 H522 0.931 . S
C520 C516 1.391 . S
C520 C519 1.371 . S
C520 H527 0.930 . S
H521 C518 0.928 . S
H522 C519 0.931 . S
H523 C499 0.930 . S
H524 C496 0.930 . S
H525 C505 0.930 . S
H526 C517 0.929 . S
H527 C520 0.930 . S
H528 C536 0.950 . S
H529 C541 0.950 1_655 S
H530 C538 0.950 . S
H531 C540 0.938 1_655 S
H532 C542 0.950 . S
H533 C544 0.950 . S
H534 C546 0.950 . S
H535 C547 0.950 . S
C536 H528 0.950 . S
C536 C537 1.386 . S
C536 C538 1.391 . S
C537 C536 1.386 . S
C537 C541 1.393 . S
C538 H530 0.950 . S
C538 C536 1.391 . S
C538 C539 1.400 . S
C539 C538 1.400 . S
C539 C540 1.398 . S
C539 C545 1.491 . S
C540 H531 0.938 1_455 S
C540 C539 1.398 . S
C540 C541 1.391 . S
C541 H529 0.950 1_455 S
C541 C537 1.393 . S
C541 C540 1.391 . S
C542 H532 0.950 . S
C542 C543 1.386 . S
C542 C544 1.391 . S
C543 C542 1.386 . S
C543 C547 1.393 . S
C544 H533 0.950 . S
C544 C542 1.391 . S
C544 C545 1.400 . S
C545 C539 1.491 . S
C545 C544 1.400 . S
C545 C546 1.398 . S
C546 H534 0.950 . S
C546 C545 1.398 . S
C546 C547 1.391 . S
C547 H535 0.950 . S
C547 C543 1.393 . S
C547 C546 1.391 . S
H548 C556 0.950 . S
H549 C561 0.950 . S
H550 C558 0.950 . S
H551 C560 0.950 . S
H552 C562 0.950 1_565 S
H553 C564 0.950 . S
H554 C566 0.950 . S
H555 C567 0.950 . S
C556 H548 0.950 . S
C556 C557 1.386 . S
C556 C558 1.391 . S
C557 C556 1.386 . S
C557 C561 1.393 . S
C558 H550 0.950 . S
C558 C556 1.391 . S
C558 C559 1.400 . S
C559 C558 1.400 . S
C559 C560 1.398 . S
C559 C565 1.491 . S
C560 H551 0.950 . S
C560 C559 1.398 . S
C560 C561 1.391 . S
C561 H549 0.950 . S
C561 C557 1.393 . S
C561 C560 1.391 . S
C562 H552 0.950 1_545 S
C562 C563 1.386 . S
C562 C564 1.391 . S
C563 C562 1.386 . S
C563 C567 1.393 . S
C564 H553 0.950 . S
C564 C562 1.391 . S
C564 C565 1.400 . S
C565 C559 1.491 . S
C565 C564 1.400 . S
C565 C566 1.398 . S
C566 H554 0.950 . S
C566 C565 1.398 . S
C566 C567 1.391 . S
C567 H555 0.950 . S
C567 C563 1.393 . S
C567 C566 1.391 . S
H568 C576 0.950 1_655 S
H569 C581 0.950 . S
H570 C578 0.942 1_655 S
H571 C580 0.950 . S
H572 C582 0.950 . S
H573 C584 0.950 . S
H574 C586 0.950 . S
H575 C587 0.950 . S
C576 H568 0.950 1_455 S
C576 C577 1.386 . S
C576 C578 1.391 . S
C577 C576 1.386 . S
C577 C581 1.393 . S
C578 H570 0.942 1_455 S
C578 C576 1.391 . S
C578 C579 1.400 . S
C579 C578 1.400 . S
C579 C580 1.398 . S
C579 C585 1.491 . S
C580 H571 0.950 . S
C580 C579 1.398 . S
C580 C581 1.391 . S
C581 H569 0.950 . S
C581 C577 1.393 . S
C581 C580 1.391 . S
C582 H572 0.950 . S
C582 C583 1.386 . S
C582 C584 1.391 . S
C583 C582 1.386 . S
C583 C587 1.393 . S
C584 H573 0.950 . S
C584 C582 1.391 . S
C584 C585 1.400 . S
C585 C579 1.491 . S
C585 C584 1.400 . S
C585 C586 1.398 . S
C586 H574 0.950 . S
C586 C585 1.398 . S
C586 C587 1.391 . S
C587 H575 0.950 . S
C587 C583 1.393 . S
C587 C586 1.391 . S
H588 C596 0.950 . S
H589 C601 0.950 1_565 S
H590 C598 0.950 . S
H591 C600 0.950 . S
H592 C602 0.950 . S
H593 C604 0.950 . S
H594 C606 0.950 . S
H595 C607 0.950 . S
C596 H588 0.950 . S
C596 C597 1.386 . S
C596 C598 1.391 . S
C597 C596 1.386 . S
C597 C601 1.393 . S
C598 H590 0.950 . S
C598 C596 1.391 . S
C598 C599 1.400 . S
C599 C598 1.400 . S
C599 C600 1.398 . S
C599 C605 1.491 . S
C600 H591 0.950 . S
C600 C599 1.398 . S
C600 C601 1.391 . S
C601 H589 0.950 1_545 S
C601 C597 1.393 . S
C601 C600 1.391 . S
C602 H592 0.950 . S
C602 C603 1.386 . S
C602 C604 1.391 . S
C603 C602 1.386 . S
C603 C607 1.393 . S
C604 H593 0.950 . S
C604 C602 1.391 . S
C604 C605 1.400 . S
C605 C599 1.491 . S
C605 C604 1.400 . S
C605 C606 1.398 . S
C606 H594 0.950 . S
C606 C605 1.398 . S
C606 C607 1.391 . S
C607 H595 0.950 . S
C607 C603 1.393 . S
C607 C606 1.391 . S
H608 C616 0.950 . S
H609 C621 0.950 . S
H610 C618 0.950 . S
H611 C620 0.950 . S
H612 C622 0.950 . S
H613 C624 0.950 . S
H614 C626 0.950 . S
H615 C627 0.950 . S
C616 H608 0.950 . S
C616 C617 1.386 . S
C616 C618 1.391 . S
C617 C616 1.386 . S
C617 C621 1.393 . S
C618 H610 0.950 . S
C618 C616 1.391 . S
C618 C619 1.400 . S
C619 C618 1.400 . S
C619 C620 1.398 . S
C619 C625 1.491 1_556 S
C620 H611 0.950 . S
C620 C619 1.398 . S
C620 C621 1.391 . S
C621 H609 0.950 . S
C621 C617 1.393 . S
C621 C620 1.391 . S
C622 H612 0.950 . S
C622 C623 1.386 . S
C622 C624 1.391 . S
C623 C622 1.386 . S
C623 C627 1.393 . S
C624 H613 0.950 . S
C624 C622 1.391 . S
C624 C625 1.400 . S
C625 C619 1.491 1_554 S
C625 C624 1.400 . S
C625 C626 1.398 . S
C626 H614 0.950 . S
C626 C625 1.398 . S
C626 C627 1.391 . S
C627 H615 0.950 . S
C627 C623 1.393 . S
C627 C626 1.391 . S
H628 C636 0.950 . S
H629 C641 0.950 . S
H630 C638 0.950 . S
H631 C640 0.950 . S
H632 C642 0.950 . S
H633 C644 0.950 . S
H634 C646 0.950 . S
H635 C647 0.950 . S
C636 H628 0.950 . S
C636 C637 1.386 . S
C636 C638 1.391 . S
C637 C636 1.386 . S
C637 C641 1.393 . S
C638 H630 0.950 . S
C638 C636 1.391 . S
C638 C639 1.400 . S
C639 C638 1.400 . S
C639 C640 1.398 . S
C639 C645 1.491 1_556 S
C640 H631 0.950 . S
C640 C639 1.398 . S
C640 C641 1.391 . S
C641 H629 0.950 . S
C641 C637 1.393 . S
C641 C640 1.391 . S
C642 H632 0.950 . S
C642 C643 1.386 . S
C642 C644 1.391 . S
C643 C642 1.386 . S
C643 C647 1.393 . S
C644 H633 0.950 . S
C644 C642 1.391 . S
C644 C645 1.400 . S
C645 C639 1.491 1_554 S
C645 C644 1.400 . S
C645 C646 1.398 . S
C646 H634 0.950 . S
C646 C645 1.398 . S
C646 C647 1.391 . S
C647 H635 0.950 . S
C647 C643 1.393 . S
C647 C646 1.391 . S
H648 C656 0.950 . S
H649 C661 0.950 . S
H650 C658 0.950 . S
H651 C660 0.950 . S
H652 C662 0.950 . S
H653 C664 0.950 . S
H654 C666 0.950 . S
H655 C667 0.950 . S
C656 H648 0.950 . S
C656 C657 1.386 . S
C656 C658 1.391 . S
C657 C656 1.386 . S
C657 C661 1.393 . S
C658 H650 0.950 . S
C658 C656 1.391 . S
C658 C659 1.400 . S
C659 C658 1.400 . S
C659 C660 1.398 . S
C659 C665 1.491 1_556 S
C660 H651 0.950 . S
C660 C659 1.398 . S
C660 C661 1.391 . S
C661 H649 0.950 . S
C661 C657 1.393 . S
C661 C660 1.391 . S
C662 H652 0.950 . S
C662 C663 1.386 . S
C662 C664 1.391 . S
C663 C662 1.386 . S
C663 C667 1.393 . S
C664 H653 0.950 . S
C664 C662 1.391 . S
C664 C665 1.400 . S
C665 C659 1.491 1_554 S
C665 C664 1.400 . S
C665 C666 1.398 . S
C666 H654 0.950 . S
C666 C665 1.398 . S
C666 C667 1.391 . S
C667 H655 0.950 . S
C667 C663 1.393 . S
C667 C666 1.391 . S
H668 C676 0.950 . S
H669 C681 0.950 . S
H670 C678 0.950 . S
H671 C680 0.950 . S
H672 C682 0.950 . S
H673 C684 0.950 . S
H674 C686 0.950 . S
H675 C687 0.950 . S
C676 H668 0.950 . S
C676 C677 1.386 . S
C676 C678 1.391 . S
C677 C676 1.386 . S
C677 C681 1.393 . S
C678 H670 0.950 . S
C678 C676 1.391 . S
C678 C679 1.400 . S
C679 C678 1.400 . S
C679 C680 1.398 . S
C679 C685 1.491 1_554 S
C680 H671 0.950 . S
C680 C679 1.398 . S
C680 C681 1.391 . S
C681 H669 0.950 . S
C681 C677 1.393 . S
C681 C680 1.391 . S
C682 H672 0.950 . S
C682 C683 1.386 . S
C682 C684 1.391 . S
C683 C682 1.386 . S
C683 C687 1.393 . S
C684 H673 0.950 . S
C684 C682 1.391 . S
C684 C685 1.400 . S
C685 C679 1.491 1_556 S
C685 C684 1.400 . S
C685 C686 1.398 . S
C686 H674 0.950 . S
C686 C685 1.398 . S
C686 C687 1.391 . S
C687 H675 0.950 . S
C687 C683 1.393 . S
C687 C686 1.391 . S
H688 C696 0.950 . S
H689 C701 0.950 . S
H690 C698 0.950 . S
H691 C700 0.950 . S
H692 C702 0.950 . S
H693 C704 0.950 . S
H694 C706 0.950 . S
H695 C707 0.950 . S
C696 H688 0.950 . S
C696 C697 1.386 . S
C696 C698 1.391 . S
C697 C696 1.386 . S
C697 C701 1.393 . S
C698 H690 0.950 . S
C698 C696 1.391 . S
C698 C699 1.400 . S
C699 C698 1.400 . S
C699 C700 1.398 . S
C699 C705 1.491 . S
C700 H691 0.950 . S
C700 C699 1.398 . S
C700 C701 1.391 . S
C701 H689 0.950 . S
C701 C697 1.393 . S
C701 C700 1.391 . S
C702 H692 0.950 . S
C702 C703 1.386 . S
C702 C704 1.391 . S
C703 C702 1.386 . S
C703 C707 1.393 . S
C704 H693 0.950 . S
C704 C702 1.391 . S
C704 C705 1.400 . S
C705 C699 1.491 . S
C705 C704 1.400 . S
C705 C706 1.398 . S
C706 H694 0.950 . S
C706 C705 1.398 . S
C706 C707 1.391 . S
C707 H695 0.950 . S
C707 C703 1.393 . S
C707 C706 1.391 . S
H708 C716 0.950 . S
H709 C721 0.950 . S
H710 C718 0.950 . S
H711 C720 0.950 . S
H712 C722 0.950 . S
H713 C724 0.950 . S
H714 C726 0.950 . S
H715 C727 0.950 . S
C716 H708 0.950 . S
C716 C717 1.386 . S
C716 C718 1.391 . S
C717 C716 1.386 . S
C717 C721 1.393 . S
C718 H710 0.950 . S
C718 C716 1.391 . S
C718 C719 1.400 . S
C719 C718 1.400 . S
C719 C720 1.398 . S
C719 C725 1.491 . S
C720 H711 0.950 . S
C720 C719 1.398 . S
C720 C721 1.391 . S
C721 H709 0.950 . S
C721 C717 1.393 . S
C721 C720 1.391 . S
C722 H712 0.950 . S
C722 C723 1.386 . S
C722 C724 1.391 . S
C723 C722 1.386 . S
C723 C727 1.393 . S
C724 H713 0.950 . S
C724 C722 1.391 . S
C724 C725 1.400 . S
C725 C719 1.491 . S
C725 C724 1.400 . S
C725 C726 1.398 . S
C726 H714 0.950 . S
C726 C725 1.398 . S
C726 C727 1.391 . S
C727 H715 0.950 . S
C727 C723 1.393 . S
C727 C726 1.391 . S
H728 C736 0.950 . S
H729 C741 0.950 . S
H730 C738 0.950 . S
H731 C740 0.950 . S
H732 C742 0.950 . S
H733 C744 0.950 . S
H734 C746 0.950 . S
H735 C747 0.950 . S
C736 H728 0.950 . S
C736 C737 1.386 . S
C736 C738 1.391 . S
C737 C736 1.386 . S
C737 C741 1.393 . S
C738 H730 0.950 . S
C738 C736 1.391 . S
C738 C739 1.400 . S
C739 C738 1.400 . S
C739 C740 1.398 . S
C739 C745 1.491 . S
C740 H731 0.950 . S
C740 C739 1.398 . S
C740 C741 1.391 . S
C741 H729 0.950 . S
C741 C737 1.393 . S
C741 C740 1.391 . S
C742 H732 0.950 . S
C742 C743 1.386 1_655 S
C742 C744 1.391 . S
C743 C742 1.386 1_455 S
C743 C747 1.393 . S
C744 H733 0.950 . S
C744 C742 1.391 . S
C744 C745 1.400 . S
C745 C739 1.491 . S
C745 C744 1.400 . S
C745 C746 1.398 . S
C746 H734 0.950 . S
C746 C745 1.398 . S
C746 C747 1.391 1_655 S
C747 H735 0.950 . S
C747 C743 1.393 . S
C747 C746 1.391 1_455 S
H748 C756 0.950 . S
H749 C761 0.950 . S
H750 C758 0.950 . S
H751 C760 0.950 . S
H752 C762 0.950 . S
H753 C764 0.950 . S
H754 C766 0.950 . S
H755 C767 0.950 . S
C756 H748 0.950 . S
C756 C757 1.386 1_565 S
C756 C758 1.391 . S
C757 C756 1.386 1_545 S
C757 C761 1.393 . S
C758 H750 0.950 . S
C758 C756 1.391 . S
C758 C759 1.400 . S
C759 C758 1.400 . S
C759 C760 1.398 . S
C759 C765 1.491 . S
C760 H751 0.950 . S
C760 C759 1.398 . S
C760 C761 1.391 1_565 S
C761 H749 0.950 . S
C761 C757 1.393 . S
C761 C760 1.391 1_545 S
C762 H752 0.950 . S
C762 C763 1.386 . S
C762 C764 1.391 . S
C763 C762 1.386 . S
C763 C767 1.393 . S
C764 H753 0.950 . S
C764 C762 1.391 . S
C764 C765 1.400 . S
C765 C759 1.491 . S
C765 C764 1.400 . S
C765 C766 1.398 . S
C766 H754 0.950 . S
C766 C765 1.398 . S
C766 C767 1.391 . S
C767 H755 0.950 . S
C767 C763 1.393 . S
C767 C766 1.391 . S
H768 C776 0.950 . S
H769 C781 0.950 . S
H770 C778 0.950 . S
H771 C780 0.950 . S
H772 C782 0.950 . S
H773 C784 0.950 . S
H774 C786 0.950 . S
H775 C787 0.950 . S
C776 H768 0.950 . S
C776 C777 1.386 . S
C776 C778 1.391 . S
C777 C776 1.386 . S
C777 C781 1.393 . S
C778 H770 0.950 . S
C778 C776 1.391 . S
C778 C779 1.400 . S
C779 C778 1.400 . S
C779 C780 1.398 . S
C779 C785 1.491 . S
C780 H771 0.950 . S
C780 C779 1.398 . S
C780 C781 1.391 . S
C781 H769 0.950 . S
C781 C777 1.393 . S
C781 C780 1.391 . S
C782 H772 0.950 . S
C782 C783 1.386 . S
C782 C784 1.391 . S
C783 C782 1.386 . S
C783 C787 1.393 . S
C784 H773 0.950 . S
C784 C782 1.391 . S
C784 C785 1.400 . S
C785 C779 1.491 . S
C785 C784 1.400 . S
C785 C786 1.398 . S
C786 H774 0.950 . S
C786 C785 1.398 . S
C786 C787 1.391 . S
C787 H775 0.950 . S
C787 C783 1.393 . S
C787 C786 1.391 . S
H788 C796 0.950 . S
H789 C801 0.950 . S
H790 C798 0.950 . S
H791 C800 0.950 . S
H792 C802 0.950 . S
H793 C804 0.950 . S
H794 C806 0.950 . S
H795 C807 0.950 . S
C796 H788 0.950 . S
C796 C797 1.386 . S
C796 C798 1.391 . S
C797 C796 1.386 . S
C797 C801 1.393 . S
C798 H790 0.950 . S
C798 C796 1.391 . S
C798 C799 1.400 . S
C799 C798 1.400 . S
C799 C800 1.398 . S
C799 C805 1.491 . S
C800 H791 0.950 . S
C800 C799 1.398 . S
C800 C801 1.391 . S
C801 H789 0.950 . S
C801 C797 1.393 . S
C801 C800 1.391 . S
C802 H792 0.950 . S
C802 C803 1.386 . S
C802 C804 1.391 . S
C803 C802 1.386 . S
C803 C807 1.393 . S
C804 H793 0.950 . S
C804 C802 1.391 . S
C804 C805 1.400 . S
C805 C799 1.491 . S
C805 C804 1.400 . S
C805 C806 1.398 . S
C806 H794 0.950 . S
C806 C805 1.398 . S
C806 C807 1.391 . S
C807 H795 0.950 . S
C807 C803 1.393 . S
C807 C806 1.391 . S
H808 C816 0.950 . S
H809 C821 0.950 . S
H810 C818 0.950 . S
H811 C820 0.950 . S
H812 C822 0.950 . S
H813 C824 0.950 . S
H814 C826 0.950 . S
H815 C827 0.950 1_455 S
C816 H808 0.950 . S
C816 C817 1.386 . S
C816 C818 1.391 . S
C817 C816 1.386 . S
C817 C821 1.393 . S
C818 H810 0.950 . S
C818 C816 1.391 . S
C818 C819 1.400 . S
C819 C818 1.400 . S
C819 C820 1.398 . S
C819 C825 1.491 . S
C820 H811 0.950 . S
C820 C819 1.398 . S
C820 C821 1.391 . S
C821 H809 0.950 . S
C821 C817 1.393 . S
C821 C820 1.391 . S
C822 H812 0.950 . S
C822 C823 1.386 1_655 S
C822 C824 1.391 . S
C823 C822 1.386 1_455 S
C823 C827 1.393 1_455 S
C824 H813 0.950 . S
C824 C822 1.391 . S
C824 C825 1.400 . S
C825 C819 1.491 . S
C825 C824 1.400 . S
C825 C826 1.398 . S
C826 H814 0.950 . S
C826 C825 1.398 . S
C826 C827 1.391 . S
C827 H815 0.950 1_655 S
C827 C823 1.393 1_655 S
C827 C826 1.391 . S
H828 C836 0.950 . S
H829 C841 0.950 . S
H830 C838 0.950 . S
H831 C840 0.950 . S
H832 C842 0.950 . S
H833 C844 0.950 . S
H834 C846 0.950 . S
H835 C847 0.950 . S
C836 H828 0.950 . S
C836 C837 1.386 . S
C836 C838 1.391 . S
C837 C836 1.386 . S
C837 C841 1.393 . S
C838 H830 0.950 . S
C838 C836 1.391 . S
C838 C839 1.400 . S
C839 C838 1.400 . S
C839 C840 1.398 . S
C839 C845 1.491 . S
C840 H831 0.950 . S
C840 C839 1.398 . S
C840 C841 1.391 . S
C841 H829 0.950 . S
C841 C837 1.393 . S
C841 C840 1.391 . S
C842 H832 0.950 . S
C842 C843 1.386 1_565 S
C842 C844 1.391 . S
C843 C842 1.386 1_545 S
C843 C847 1.393 . S
C844 H833 0.950 . S
C844 C842 1.391 . S
C844 C845 1.400 . S
C845 C839 1.491 . S
C845 C844 1.400 . S
C845 C846 1.398 . S
C846 H834 0.950 . S
C846 C845 1.398 . S
C846 C847 1.391 1_565 S
C847 H835 0.950 . S
C847 C843 1.393 . S
C847 C846 1.391 1_545 S
H848 C856 0.950 . S
H849 C861 0.950 . S
H850 C858 0.950 . S
H851 C860 0.950 . S
H852 C862 0.950 . S
H853 C864 0.950 . S
H854 C866 0.950 . S
H855 C867 0.950 . S
C856 H848 0.950 . S
C856 C857 1.386 . S
C856 C858 1.391 . S
C857 C856 1.386 . S
C857 C861 1.393 . S
C858 H850 0.950 . S
C858 C856 1.391 . S
C858 C859 1.400 . S
C859 C858 1.400 . S
C859 C860 1.398 . S
C859 C865 1.491 . S
C860 H851 0.950 . S
C860 C859 1.398 . S
C860 C861 1.391 . S
C861 H849 0.950 . S
C861 C857 1.393 . S
C861 C860 1.391 . S
C862 H852 0.950 . S
C862 C863 1.386 . S
C862 C864 1.391 . S
C863 C862 1.386 . S
C863 C867 1.393 . S
C864 H853 0.950 . S
C864 C862 1.391 . S
C864 C865 1.400 . S
C865 C859 1.491 . S
C865 C864 1.400 . S
C865 C866 1.398 . S
C866 H854 0.950 . S
C866 C865 1.398 . S
C866 C867 1.391 . S
C867 H855 0.950 . S
C867 C863 1.393 . S
C867 C866 1.391 . S
H868 C876 0.950 . S
H869 C881 0.950 . S
H870 C878 0.950 . S
H871 C880 0.950 . S
H872 C882 0.950 . S
H873 C884 0.950 . S
H874 C886 0.950 . S
H875 C887 0.950 . S
C876 H868 0.950 . S
C876 C877 1.386 . S
C876 C878 1.391 . S
C877 C876 1.386 . S
C877 C881 1.393 . S
C878 H870 0.950 . S
C878 C876 1.391 . S
C878 C879 1.400 . S
C879 C878 1.400 . S
C879 C880 1.398 . S
C879 C885 1.491 . S
C880 H871 0.950 . S
C880 C879 1.398 . S
C880 C881 1.391 . S
C881 H869 0.950 . S
C881 C877 1.393 . S
C881 C880 1.391 . S
C882 H872 0.950 . S
C882 C883 1.386 . S
C882 C884 1.391 . S
C883 C882 1.386 . S
C883 C887 1.393 . S
C884 H873 0.950 . S
C884 C882 1.391 . S
C884 C885 1.400 . S
C885 C879 1.491 . S
C885 C884 1.400 . S
C885 C886 1.398 . S
C886 H874 0.950 . S
C886 C885 1.398 . S
C886 C887 1.391 . S
C887 H875 0.950 . S
C887 C883 1.393 . S
C887 C886 1.391 . S
H888 C896 0.950 . S
H889 C901 0.950 . S
H890 C898 0.950 . S
H891 C900 0.950 . S
H892 C902 0.950 . S
H893 C904 0.950 . S
H894 C906 0.950 . S
H895 C907 0.950 . S
C896 H888 0.950 . S
C896 C897 1.386 . S
C896 C898 1.391 . S
C897 C896 1.386 . S
C897 C901 1.393 . S
C898 H890 0.950 . S
C898 C896 1.391 . S
C898 C899 1.400 . S
C899 C898 1.400 . S
C899 C900 1.398 . S
C899 C905 1.491 . S
C900 H891 0.950 . S
C900 C899 1.398 . S
C900 C901 1.391 . S
C901 H889 0.950 . S
C901 C897 1.393 . S
C901 C900 1.391 . S
C902 H892 0.950 . S
C902 C903 1.386 . S
C902 C904 1.391 . S
C903 C902 1.386 . S
C903 C907 1.393 . S
C904 H893 0.950 . S
C904 C902 1.391 . S
C904 C905 1.400 . S
C905 C899 1.491 . S
C905 C904 1.400 . S
C905 C906 1.398 . S
C906 H894 0.950 . S
C906 C905 1.398 . S
C906 C907 1.391 . S
C907 H895 0.950 . S
C907 C903 1.393 . S
C907 C906 1.391 . S
H908 C916 0.950 . S
H909 C921 0.950 . S
H910 C918 0.950 . S
H911 C920 0.950 . S
H912 C922 0.950 . S
H913 C924 0.950 . S
H914 C926 0.950 . S
H915 C927 0.950 . S
C916 H908 0.950 . S
C916 C917 1.386 . S
C916 C918 1.391 . S
C917 C916 1.386 . S
C917 C921 1.393 . S
C918 H910 0.950 . S
C918 C916 1.391 . S
C918 C919 1.400 . S
C919 C918 1.400 . S
C919 C920 1.398 . S
C919 C925 1.491 . S
C920 H911 0.950 . S
C920 C919 1.398 . S
C920 C921 1.391 . S
C921 H909 0.950 . S
C921 C917 1.393 . S
C921 C920 1.391 . S
C922 H912 0.950 . S
C922 C923 1.386 . S
C922 C924 1.391 . S
C923 C922 1.386 . S
C923 C927 1.393 . S
C924 H913 0.950 . S
C924 C922 1.391 . S
C924 C925 1.400 . S
C925 C919 1.491 . S
C925 C924 1.400 . S
C925 C926 1.398 . S
C926 H914 0.950 . S
C926 C925 1.398 . S
C926 C927 1.391 . S
C927 H915 0.950 . S
C927 C923 1.393 . S
C927 C926 1.391 . S
H928 C936 0.950 . S
H929 C941 0.950 . S
H930 C938 0.950 . S
H931 C940 0.950 . S
H932 C942 0.950 . S
H933 C944 0.950 . S
H934 C946 0.950 . S
H935 C947 0.950 . S
C936 H928 0.950 . S
C936 C937 1.386 . S
C936 C938 1.391 . S
C937 C936 1.386 . S
C937 C941 1.393 . S
C938 H930 0.950 . S
C938 C936 1.391 . S
C938 C939 1.400 . S
C939 C938 1.400 . S
C939 C940 1.398 . S
C939 C945 1.491 . S
C940 H931 0.950 . S
C940 C939 1.398 . S
C940 C941 1.391 . S
C941 H929 0.950 . S
C941 C937 1.393 . S
C941 C940 1.391 . S
C942 H932 0.950 . S
C942 C943 1.386 . S
C942 C944 1.391 . S
C943 C942 1.386 . S
C943 C947 1.393 . S
C944 H933 0.950 . S
C944 C942 1.391 . S
C944 C945 1.400 . S
C945 C939 1.491 . S
C945 C944 1.400 . S
C945 C946 1.398 . S
C946 H934 0.950 . S
C946 C945 1.398 . S
C946 C947 1.391 . S
C947 H935 0.950 . S
C947 C943 1.393 . S
C947 C946 1.391 . S
H948 C956 0.950 . S
H949 C961 0.950 . S
H950 C958 0.950 . S
H951 C960 0.950 . S
H952 C962 0.950 . S
H953 C964 0.950 . S
H954 C966 0.950 . S
H955 C967 0.950 . S
C956 H948 0.950 . S
C956 C957 1.386 . S
C956 C958 1.391 . S
C957 C956 1.386 . S
C957 C961 1.393 . S
C958 H950 0.950 . S
C958 C956 1.391 . S
C958 C959 1.400 . S
C959 C958 1.400 . S
C959 C960 1.398 . S
C959 C965 1.491 . S
C960 H951 0.950 . S
C960 C959 1.398 . S
C960 C961 1.391 . S
C961 H949 0.950 . S
C961 C957 1.393 . S
C961 C960 1.391 . S
C962 H952 0.950 . S
C962 C963 1.386 . S
C962 C964 1.391 . S
C963 C962 1.386 . S
C963 C967 1.393 . S
C964 H953 0.950 . S
C964 C962 1.391 . S
C964 C965 1.400 . S
C965 C959 1.491 . S
C965 C964 1.400 . S
C965 C966 1.398 . S
C966 H954 0.950 . S
C966 C965 1.398 . S
C966 C967 1.391 . S
C967 H955 0.950 . S
C967 C963 1.393 . S
C967 C966 1.391 . S
H968 C976 0.950 . S
H969 C981 0.950 . S
H970 C978 0.950 . S
H971 C980 0.950 . S
H972 C982 0.950 . S
H973 C984 0.950 . S
H974 C986 0.950 . S
H975 C987 0.950 . S
C976 H968 0.950 . S
C976 C977 1.386 . S
C976 C978 1.391 . S
C977 C976 1.386 . S
C977 C981 1.393 . S
C978 H970 0.950 . S
C978 C976 1.391 . S
C978 C979 1.400 . S
C979 C978 1.400 . S
C979 C980 1.398 . S
C979 C985 1.491 . S
C980 H971 0.950 . S
C980 C979 1.398 . S
C980 C981 1.391 . S
C981 H969 0.950 . S
C981 C977 1.393 . S
C981 C980 1.391 . S
C982 H972 0.950 . S
C982 C983 1.386 . S
C982 C984 1.391 . S
C983 C982 1.386 . S
C983 C987 1.393 . S
C984 H973 0.950 . S
C984 C982 1.391 . S
C984 C985 1.400 . S
C985 C979 1.491 . S
C985 C984 1.400 . S
C985 C986 1.398 . S
C986 H974 0.950 . S
C986 C985 1.398 . S
C986 C987 1.391 . S
C987 H975 0.950 . S
C987 C983 1.393 . S
C987 C986 1.391 . S
H988 C996 0.950 . S
H989 C1001 0.950 . S
H990 C998 0.950 . S
H991 C1000 0.950 . S
H992 C1002 0.950 . S
H993 C1004 0.950 . S
H994 C1006 0.950 . S
H995 C1007 0.950 . S
C996 H988 0.950 . S
C996 C997 1.386 . S
C996 C998 1.391 . S
C997 C996 1.386 . S
C997 C1001 1.393 . S
C998 H990 0.950 . S
C998 C996 1.391 . S
C998 C999 1.400 . S
C999 C998 1.400 . S
C999 C1000 1.398 . S
C999 C1005 1.491 . S
C1000 H991 0.950 . S
C1000 C999 1.398 . S
C1000 C1001 1.391 . S
C1001 H989 0.950 . S
C1001 C997 1.393 . S
C1001 C1000 1.391 . S
C1002 H992 0.950 . S
C1002 C1003 1.386 . S
C1002 C1004 1.391 . S
C1003 C1002 1.386 . S
C1003 C1007 1.393 . S
C1004 H993 0.950 . S
C1004 C1002 1.391 . S
C1004 C1005 1.400 . S
C1005 C999 1.491 . S
C1005 C1004 1.400 . S
C1005 C1006 1.398 . S
C1006 H994 0.950 . S
C1006 C1005 1.398 . S
C1006 C1007 1.391 . S
C1007 H995 0.950 . S
C1007 C1003 1.393 . S
C1007 C1006 1.391 . S
H1008 C1016 0.950 . S
H1009 C1021 0.950 . S
H1010 C1018 0.950 . S
H1011 C1020 0.950 . S
H1012 C1022 0.950 . S
H1013 C1024 0.950 . S
H1014 C1026 0.950 . S
H1015 C1027 0.950 . S
C1016 H1008 0.950 . S
C1016 C1017 1.386 . S
C1016 C1018 1.391 . S
C1017 C1016 1.386 . S
C1017 C1021 1.393 . S
C1018 H1010 0.950 . S
C1018 C1016 1.391 . S
C1018 C1019 1.400 . S
C1019 C1018 1.400 . S
C1019 C1020 1.398 . S
C1019 C1025 1.491 . S
C1020 H1011 0.950 . S
C1020 C1019 1.398 . S
C1020 C1021 1.391 . S
C1021 H1009 0.950 . S
C1021 C1017 1.393 . S
C1021 C1020 1.391 . S
C1022 H1012 0.950 . S
C1022 C1023 1.386 . S
C1022 C1024 1.391 . S
C1023 C1022 1.386 . S
C1023 C1027 1.393 . S
C1024 H1013 0.950 . S
C1024 C1022 1.391 . S
C1024 C1025 1.400 . S
C1025 C1019 1.491 . S
C1025 C1024 1.400 . S
C1025 C1026 1.398 . S
C1026 H1014 0.950 . S
C1026 C1025 1.398 . S
C1026 C1027 1.391 . S
C1027 H1015 0.950 . S
C1027 C1023 1.393 . S
C1027 C1026 1.391 . S
H1028 C1036 0.950 . S
H1029 C1041 0.950 . S
H1030 C1038 0.950 . S
H1031 C1040 0.950 . S
H1032 C1042 0.950 . S
H1033 C1044 0.950 . S
H1034 C1046 0.950 . S
H1035 C1047 0.950 . S
C1036 H1028 0.950 . S
C1036 C1037 1.386 . S
C1036 C1038 1.391 . S
C1037 C1036 1.386 . S
C1037 C1041 1.393 . S
C1038 H1030 0.950 . S
C1038 C1036 1.391 . S
C1038 C1039 1.400 . S
C1039 C1038 1.400 . S
C1039 C1040 1.398 . S
C1039 C1045 1.491 . S
C1040 H1031 0.950 . S
C1040 C1039 1.398 . S
C1040 C1041 1.391 . S
C1041 H1029 0.950 . S
C1041 C1037 1.393 . S
C1041 C1040 1.391 . S
C1042 H1032 0.950 . S
C1042 C1043 1.386 . S
C1042 C1044 1.391 . S
C1043 C1042 1.386 . S
C1043 C1047 1.393 . S
C1044 H1033 0.950 . S
C1044 C1042 1.391 . S
C1044 C1045 1.400 . S
C1045 C1039 1.491 . S
C1045 C1044 1.400 . S
C1045 C1046 1.398 . S
C1046 H1034 0.950 . S
C1046 C1045 1.398 . S
C1046 C1047 1.391 . S
C1047 H1035 0.950 . S
C1047 C1043 1.393 . S
C1047 C1046 1.391 . S
H1048 C1056 0.950 . S
H1049 C1061 0.950 . S
H1050 C1058 0.950 . S
H1051 C1060 0.950 . S
H1052 C1062 0.950 . S
H1053 C1064 0.950 . S
H1054 C1066 0.950 . S
H1055 C1067 0.950 . S
C1056 H1048 0.950 . S
C1056 C1057 1.386 . S
C1056 C1058 1.391 . S
C1057 C1056 1.386 . S
C1057 C1061 1.393 . S
C1058 H1050 0.950 . S
C1058 C1056 1.391 . S
C1058 C1059 1.400 . S
C1059 C1058 1.400 . S
C1059 C1060 1.398 . S
C1059 C1065 1.491 . S
C1060 H1051 0.950 . S
C1060 C1059 1.398 . S
C1060 C1061 1.391 . S
C1061 H1049 0.950 . S
C1061 C1057 1.393 . S
C1061 C1060 1.391 . S
C1062 H1052 0.950 . S
C1062 C1063 1.386 . S
C1062 C1064 1.391 . S
C1063 C1062 1.386 . S
C1063 C1067 1.393 . S
C1064 H1053 0.950 . S
C1064 C1062 1.391 . S
C1064 C1065 1.400 . S
C1065 C1059 1.491 . S
C1065 C1064 1.400 . S
C1065 C1066 1.398 . S
C1066 H1054 0.950 . S
C1066 C1065 1.398 . S
C1066 C1067 1.391 . S
C1067 H1055 0.950 . S
C1067 C1063 1.393 . S
C1067 C1066 1.391 . S
H1068 C1076 0.950 . S
H1069 C1081 0.950 . S
H1070 C1078 0.950 . S
H1071 C1080 0.950 . S
H1072 C1082 0.950 . S
H1073 C1084 0.950 . S
H1074 C1086 0.950 . S
H1075 C1087 0.950 . S
C1076 H1068 0.950 . S
C1076 C1077 1.386 . S
C1076 C1078 1.391 . S
C1077 C1076 1.386 . S
C1077 C1081 1.393 1_565 S
C1078 H1070 0.950 . S
C1078 C1076 1.391 . S
C1078 C1079 1.400 . S
C1079 C1078 1.400 . S
C1079 C1080 1.398 . S
C1079 C1085 1.491 . S
C1080 H1071 0.950 . S
C1080 C1079 1.398 . S
C1080 C1081 1.391 1_565 S
C1081 H1069 0.950 . S
C1081 C1077 1.393 1_545 S
C1081 C1080 1.391 1_545 S
C1082 H1072 0.950 . S
C1082 C1083 1.386 . S
C1082 C1084 1.391 . S
C1083 C1082 1.386 . S
C1083 C1087 1.393 . S
C1084 H1073 0.950 . S
C1084 C1082 1.391 . S
C1084 C1085 1.400 . S
C1085 C1079 1.491 . S
C1085 C1084 1.400 . S
C1085 C1086 1.398 . S
C1086 H1074 0.950 . S
C1086 C1085 1.398 . S
C1086 C1087 1.391 . S
C1087 H1075 0.950 . S
C1087 C1083 1.393 . S
C1087 C1086 1.391 . S
H1088 C1096 0.950 . S
H1089 C1101 0.950 . S
H1090 C1098 0.950 . S
H1091 C1100 0.950 . S
H1092 C1102 0.950 . S
H1093 C1104 0.950 . S
H1094 C1106 0.950 . S
H1095 C1107 0.950 . S
C1096 H1088 0.950 . S
C1096 C1097 1.386 . S
C1096 C1098 1.391 . S
C1097 C1096 1.386 . S
C1097 C1101 1.393 . S
C1098 H1090 0.950 . S
C1098 C1096 1.391 . S
C1098 C1099 1.400 . S
C1099 C1098 1.400 . S
C1099 C1100 1.398 . S
C1099 C1105 1.491 . S
C1100 H1091 0.950 . S
C1100 C1099 1.398 . S
C1100 C1101 1.391 . S
C1101 H1089 0.950 . S
C1101 C1097 1.393 . S
C1101 C1100 1.391 . S
C1102 H1092 0.950 . S
C1102 C1103 1.386 . S
C1102 C1104 1.391 . S
C1103 C1102 1.386 . S
C1103 C1107 1.393 . S
C1104 H1093 0.950 . S
C1104 C1102 1.391 . S
C1104 C1105 1.400 . S
C1105 C1099 1.491 . S
C1105 C1104 1.400 . S
C1105 C1106 1.398 . S
C1106 H1094 0.950 . S
C1106 C1105 1.398 . S
C1106 C1107 1.391 . S
C1107 H1095 0.950 . S
C1107 C1103 1.393 . S
C1107 C1106 1.391 . S
H1108 C1116 0.950 . S
H1109 C1121 0.950 . S
H1110 C1118 0.950 . S
H1111 C1120 0.950 . S
H1112 C1122 0.950 . S
H1113 C1124 0.950 . S
H1114 C1126 0.950 . S
H1115 C1127 0.950 . S
C1116 H1108 0.950 . S
C1116 C1117 1.386 . S
C1116 C1118 1.391 . S
C1117 C1116 1.386 . S
C1117 C1121 1.393 . S
C1118 H1110 0.950 . S
C1118 C1116 1.391 . S
C1118 C1119 1.400 . S
C1119 C1118 1.400 . S
C1119 C1120 1.398 . S
C1119 C1125 1.491 . S
C1120 H1111 0.950 . S
C1120 C1119 1.398 . S
C1120 C1121 1.391 . S
C1121 H1109 0.950 . S
C1121 C1117 1.393 . S
C1121 C1120 1.391 . S
C1122 H1112 0.950 . S
C1122 C1123 1.386 . S
C1122 C1124 1.391 . S
C1123 C1122 1.386 . S
C1123 C1127 1.393 . S
C1124 H1113 0.950 . S
C1124 C1122 1.391 . S
C1124 C1125 1.400 . S
C1125 C1119 1.491 . S
C1125 C1124 1.400 . S
C1125 C1126 1.398 . S
C1126 H1114 0.950 . S
C1126 C1125 1.398 . S
C1126 C1127 1.391 . S
C1127 H1115 0.950 . S
C1127 C1123 1.393 . S
C1127 C1126 1.391 . S
H1128 C1136 0.950 . S
H1129 C1141 0.950 . S
H1130 C1138 0.950 . S
H1131 C1140 0.950 . S
H1132 C1142 0.950 . S
H1133 C1144 0.950 . S
H1134 C1146 0.950 . S
H1135 C1147 0.950 . S
C1136 H1128 0.950 . S
C1136 C1137 1.386 . S
C1136 C1138 1.391 . S
C1137 C1136 1.386 . S
C1137 C1141 1.393 . S
C1138 H1130 0.950 . S
C1138 C1136 1.391 . S
C1138 C1139 1.400 . S
C1139 C1138 1.400 . S
C1139 C1140 1.398 . S
C1139 C1145 1.491 . S
C1140 H1131 0.950 . S
C1140 C1139 1.398 . S
C1140 C1141 1.391 . S
C1141 H1129 0.950 . S
C1141 C1137 1.393 . S
C1141 C1140 1.391 . S
C1142 H1132 0.950 . S
C1142 C1143 1.386 . S
C1142 C1144 1.391 . S
C1143 C1142 1.386 . S
C1143 C1147 1.393 . S
C1144 H1133 0.950 . S
C1144 C1142 1.391 . S
C1144 C1145 1.400 . S
C1145 C1139 1.491 . S
C1145 C1144 1.400 . S
C1145 C1146 1.398 . S
C1146 H1134 0.950 . S
C1146 C1145 1.398 . S
C1146 C1147 1.391 . S
C1147 H1135 0.950 . S
C1147 C1143 1.393 . S
C1147 C1146 1.391 . S
H1148 C1156 0.950 . S
H1149 C1161 0.950 . S
H1150 C1158 0.950 . S
H1151 C1160 0.950 . S
H1152 C1162 0.950 . S
H1153 C1164 0.950 . S
H1154 C1166 0.950 . S
H1155 C1167 0.950 . S
C1156 H1148 0.950 . S
C1156 C1157 1.386 . S
C1156 C1158 1.391 . S
C1157 C1156 1.386 . S
C1157 C1161 1.393 . S
C1158 H1150 0.950 . S
C1158 C1156 1.391 . S
C1158 C1159 1.400 . S
C1159 C1158 1.400 . S
C1159 C1160 1.398 . S
C1159 C1165 1.491 . S
C1160 H1151 0.950 . S
C1160 C1159 1.398 . S
C1160 C1161 1.391 . S
C1161 H1149 0.950 . S
C1161 C1157 1.393 . S
C1161 C1160 1.391 . S
C1162 H1152 0.950 . S
C1162 C1163 1.386 . S
C1162 C1164 1.391 . S
C1163 C1162 1.386 . S
C1163 C1167 1.393 . S
C1164 H1153 0.950 . S
C1164 C1162 1.391 . S
C1164 C1165 1.400 . S
C1165 C1159 1.491 . S
C1165 C1164 1.400 . S
C1165 C1166 1.398 . S
C1166 H1154 0.950 . S
C1166 C1165 1.398 . S
C1166 C1167 1.391 . S
C1167 H1155 0.950 . S
C1167 C1163 1.393 . S
C1167 C1166 1.391 . S
H1168 C1176 0.950 . S
H1169 C1181 0.950 . S
H1170 C1178 0.950 . S
H1171 C1180 0.950 . S
H1172 C1182 0.950 . S
H1173 C1184 0.950 . S
H1174 C1186 0.950 . S
H1175 C1187 0.950 . S
C1176 H1168 0.950 . S
C1176 C1177 1.386 . S
C1176 C1178 1.391 . S
C1177 C1176 1.386 . S
C1177 C1181 1.393 . S
C1178 H1170 0.950 . S
C1178 C1176 1.391 . S
C1178 C1179 1.400 . S
C1179 C1178 1.400 . S
C1179 C1180 1.398 . S
C1179 C1185 1.491 . S
C1180 H1171 0.950 . S
C1180 C1179 1.398 . S
C1180 C1181 1.391 . S
C1181 H1169 0.950 . S
C1181 C1177 1.393 . S
C1181 C1180 1.391 . S
C1182 H1172 0.950 . S
C1182 C1183 1.386 . S
C1182 C1184 1.391 . S
C1183 C1182 1.386 . S
C1183 C1187 1.393 . S
C1184 H1173 0.950 . S
C1184 C1182 1.391 . S
C1184 C1185 1.400 . S
C1185 C1179 1.491 . S
C1185 C1184 1.400 . S
C1185 C1186 1.398 . S
C1186 H1174 0.950 . S
C1186 C1185 1.398 . S
C1186 C1187 1.391 . S
C1187 H1175 0.950 . S
C1187 C1183 1.393 . S
C1187 C1186 1.391 . S
H1188 C1196 0.950 . S
H1189 C1201 0.950 . S
H1190 C1198 0.950 . S
H1191 C1200 0.950 . S
H1192 C1202 0.950 . S
H1193 C1204 0.950 . S
H1194 C1206 0.950 . S
H1195 C1207 0.950 . S
C1196 H1188 0.950 . S
C1196 C1197 1.386 . S
C1196 C1198 1.391 . S
C1197 C1196 1.386 . S
C1197 C1201 1.393 . S
C1198 H1190 0.950 . S
C1198 C1196 1.391 . S
C1198 C1199 1.400 . S
C1199 C1198 1.400 . S
C1199 C1200 1.398 . S
C1199 C1205 1.491 . S
C1200 H1191 0.950 . S
C1200 C1199 1.398 . S
C1200 C1201 1.391 . S
C1201 H1189 0.950 . S
C1201 C1197 1.393 . S
C1201 C1200 1.391 . S
C1202 H1192 0.950 . S
C1202 C1203 1.386 . S
C1202 C1204 1.391 . S
C1203 C1202 1.386 . S
C1203 C1207 1.393 . S
C1204 H1193 0.950 . S
C1204 C1202 1.391 . S
C1204 C1205 1.400 . S
C1205 C1199 1.491 . S
C1205 C1204 1.400 . S
C1205 C1206 1.398 . S
C1206 H1194 0.950 . S
C1206 C1205 1.398 . S
C1206 C1207 1.391 . S
C1207 H1195 0.950 . S
C1207 C1203 1.393 . S
C1207 C1206 1.391 . S
H1208 C1216 0.950 . S
H1209 C1221 0.950 . S
H1210 C1218 0.950 . S
H1211 C1220 0.950 . S
H1212 C1222 0.950 . S
H1213 C1224 0.950 . S
H1214 C1226 0.950 . S
H1215 C1227 0.950 . S
C1216 H1208 0.950 . S
C1216 C1217 1.386 . S
C1216 C1218 1.391 . S
C1217 C1216 1.386 . S
C1217 C1221 1.393 . S
C1218 H1210 0.950 . S
C1218 C1216 1.391 . S
C1218 C1219 1.400 . S
C1219 C1218 1.400 . S
C1219 C1220 1.398 . S
C1219 C1225 1.491 . S
C1220 H1211 0.950 . S
C1220 C1219 1.398 . S
C1220 C1221 1.391 . S
C1221 H1209 0.950 . S
C1221 C1217 1.393 . S
C1221 C1220 1.391 . S
C1222 H1212 0.950 . S
C1222 C1223 1.386 . S
C1222 C1224 1.391 . S
C1223 C1222 1.386 . S
C1223 C1227 1.393 . S
C1224 H1213 0.950 . S
C1224 C1222 1.391 . S
C1224 C1225 1.400 . S
C1225 C1219 1.491 . S
C1225 C1224 1.400 . S
C1225 C1226 1.398 . S
C1226 H1214 0.950 . S
C1226 C1225 1.398 . S
C1226 C1227 1.391 . S
C1227 H1215 0.950 . S
C1227 C1223 1.393 . S
C1227 C1226 1.391 . S
H1228 C1236 0.950 . S
H1229 C1241 0.950 . S
H1230 C1238 0.950 . S
H1231 C1240 0.950 . S
H1232 C1242 0.950 . S
H1233 C1244 0.950 . S
H1234 C1246 0.950 . S
H1235 C1247 0.950 . S
C1236 H1228 0.950 . S
C1236 C1237 1.386 . S
C1236 C1238 1.391 . S
C1237 C1236 1.386 . S
C1237 C1241 1.393 . S
C1238 H1230 0.950 . S
C1238 C1236 1.391 . S
C1238 C1239 1.400 . S
C1239 C1238 1.400 . S
C1239 C1240 1.398 . S
C1239 C1245 1.491 . S
C1240 H1231 0.950 . S
C1240 C1239 1.398 . S
C1240 C1241 1.391 . S
C1241 H1229 0.950 . S
C1241 C1237 1.393 . S
C1241 C1240 1.391 . S
C1242 H1232 0.950 . S
C1242 C1243 1.386 . S
C1242 C1244 1.391 . S
C1243 C1242 1.386 . S
C1243 C1247 1.393 . S
C1244 H1233 0.950 . S
C1244 C1242 1.391 . S
C1244 C1245 1.400 . S
C1245 C1239 1.491 . S
C1245 C1244 1.400 . S
C1245 C1246 1.398 . S
C1246 H1234 0.950 . S
C1246 C1245 1.398 . S
C1246 C1247 1.391 . S
C1247 H1235 0.950 . S
C1247 C1243 1.393 . S
C1247 C1246 1.391 . S
H1248 C1256 0.950 . S
H1249 C1261 0.950 . S
H1250 C1258 0.950 . S
H1251 C1260 0.950 . S
H1252 C1262 0.950 . S
H1253 C1264 0.950 . S
H1254 C1266 0.950 . S
H1255 C1267 0.950 . S
C1256 H1248 0.950 . S
C1256 C1257 1.386 . S
C1256 C1258 1.391 . S
C1257 C1256 1.386 . S
C1257 C1261 1.393 . S
C1258 H1250 0.950 . S
C1258 C1256 1.391 . S
C1258 C1259 1.400 . S
C1259 C1258 1.400 . S
C1259 C1260 1.398 . S
C1259 C1265 1.491 . S
C1260 H1251 0.950 . S
C1260 C1259 1.398 . S
C1260 C1261 1.391 . S
C1261 H1249 0.950 . S
C1261 C1257 1.393 . S
C1261 C1260 1.391 . S
C1262 H1252 0.950 . S
C1262 C1263 1.386 . S
C1262 C1264 1.391 . S
C1263 C1262 1.386 . S
C1263 C1267 1.393 . S
C1264 H1253 0.950 . S
C1264 C1262 1.391 . S
C1264 C1265 1.400 . S
C1265 C1259 1.491 . S
C1265 C1264 1.400 . S
C1265 C1266 1.398 . S
C1266 H1254 0.950 . S
C1266 C1265 1.398 . S
C1266 C1267 1.391 . S
C1267 H1255 0.950 . S
C1267 C1263 1.393 . S
C1267 C1266 1.391 . S
H1268 C1276 0.950 . S
H1269 C1281 0.950 . S
H1270 C1278 0.950 . S
H1271 C1280 0.950 . S
H1272 C1282 0.950 . S
H1273 C1284 0.950 . S
H1274 C1286 0.950 . S
H1275 C1287 0.950 . S
C1276 H1268 0.950 . S
C1276 C1277 1.386 . S
C1276 C1278 1.391 . S
C1277 C1276 1.386 . S
C1277 C1281 1.393 . S
C1278 H1270 0.950 . S
C1278 C1276 1.391 . S
C1278 C1279 1.400 . S
C1279 C1278 1.400 . S
C1279 C1280 1.398 . S
C1279 C1285 1.491 . S
C1280 H1271 0.950 . S
C1280 C1279 1.398 . S
C1280 C1281 1.391 . S
C1281 H1269 0.950 . S
C1281 C1277 1.393 . S
C1281 C1280 1.391 . S
C1282 H1272 0.950 . S
C1282 C1283 1.386 . S
C1282 C1284 1.391 . S
C1283 C1282 1.386 . S
C1283 C1287 1.393 . S
C1284 H1273 0.950 . S
C1284 C1282 1.391 . S
C1284 C1285 1.400 . S
C1285 C1279 1.491 . S
C1285 C1284 1.400 . S
C1285 C1286 1.398 . S
C1286 H1274 0.950 . S
C1286 C1285 1.398 . S
C1286 C1287 1.391 . S
C1287 H1275 0.950 . S
C1287 C1283 1.393 . S
C1287 C1286 1.391 . S
H1288 C1296 0.950 . S
H1289 C1301 0.950 . S
H1290 C1298 0.950 . S
H1291 C1300 0.950 . S
H1292 C1302 0.950 . S
H1293 C1304 0.950 . S
H1294 C1306 0.950 . S
H1295 C1307 0.950 . S
C1296 H1288 0.950 . S
C1296 C1297 1.386 . S
C1296 C1298 1.391 . S
C1297 C1296 1.386 . S
C1297 C1301 1.393 . S
C1298 H1290 0.950 . S
C1298 C1296 1.391 . S
C1298 C1299 1.400 . S
C1299 C1298 1.400 . S
C1299 C1300 1.398 . S
C1299 C1305 1.491 . S
C1300 H1291 0.950 . S
C1300 C1299 1.398 . S
C1300 C1301 1.391 . S
C1301 H1289 0.950 . S
C1301 C1297 1.393 . S
C1301 C1300 1.391 . S
C1302 H1292 0.950 . S
C1302 C1303 1.386 . S
C1302 C1304 1.391 . S
C1303 C1302 1.386 . S
C1303 C1307 1.393 . S
C1304 H1293 0.950 . S
C1304 C1302 1.391 . S
C1304 C1305 1.400 . S
C1305 C1299 1.491 . S
C1305 C1304 1.400 . S
C1305 C1306 1.398 . S
C1306 H1294 0.950 . S
C1306 C1305 1.398 . S
C1306 C1307 1.391 . S
C1307 H1295 0.950 . S
C1307 C1303 1.393 . S
C1307 C1306 1.391 . S
H1308 C1316 0.950 . S
H1309 C1321 0.950 . S
H1310 C1318 0.950 . S
H1311 C1320 0.950 . S
H1312 C1322 0.950 . S
H1313 C1324 0.950 . S
H1314 C1326 0.950 . S
H1315 C1327 0.950 . S
C1316 H1308 0.950 . S
C1316 C1317 1.386 . S
C1316 C1318 1.391 . S
C1317 C1316 1.386 . S
C1317 C1321 1.393 . S
C1318 H1310 0.950 . S
C1318 C1316 1.391 . S
C1318 C1319 1.400 . S
C1319 C1318 1.400 . S
C1319 C1320 1.398 . S
C1319 C1325 1.491 . S
C1320 H1311 0.950 . S
C1320 C1319 1.398 . S
C1320 C1321 1.391 . S
C1321 H1309 0.950 . S
C1321 C1317 1.393 . S
C1321 C1320 1.391 . S
C1322 H1312 0.950 . S
C1322 C1323 1.386 . S
C1322 C1324 1.391 . S
C1323 C1322 1.386 . S
C1323 C1327 1.393 . S
C1324 H1313 0.950 . S
C1324 C1322 1.391 . S
C1324 C1325 1.400 . S
C1325 C1319 1.491 . S
C1325 C1324 1.400 . S
C1325 C1326 1.398 . S
C1326 H1314 0.950 . S
C1326 C1325 1.398 . S
C1326 C1327 1.391 . S
C1327 H1315 0.950 . S
C1327 C1323 1.393 . S
C1327 C1326 1.391 . S
C537 C21 1.481 . S
C543 C219 1.473 . S
C557 C252 1.474 . S
C563 C54 1.481 . S
C577 C153 1.470 . S
C583 C87 1.478 . S
C597 C186 1.481 . S
C603 C120 1.475 . S
C617 C285 1.479 . S
C623 C483 1.471 . S
C637 C318 1.471 . S
C643 C516 1.471 . S
C657 C351 1.474 . S
C663 C417 1.469 . S
C677 C450 1.469 . S
C683 C384 1.475 . S
C697 C7 1.419 . S
C703 N101 1.430 . S
C717 C40 1.425 . S
C723 N2 1.433 . S
C737 N35 1.422 . S
C743 C73 1.433 . S
C757 C106 1.406 . S
C763 N68 1.408 . S
C777 N167 1.433 . S
C783 C139 1.426 . S
C797 N200 1.408 . S
C803 C172 1.406 . S
C817 N233 1.407 . S
C823 C205 1.418 . S
C837 N134 1.423 . S
C843 C238 1.433 . S
C857 C271 1.433 . S
C863 N365 1.433 . S
C877 N266 1.413 . S
C883 C304 1.406 . S
C897 C337 1.427 . S
C903 N299 1.434 . S
C917 C370 1.419 . S
C923 N332 1.429 . S
C937 C403 1.407 . S
C943 N431 1.407 . S
C957 C436 1.434 . S
C963 N464 1.432 . S
C977 C469 1.410 . S
C983 N497 1.405 . S
C997 N398 1.427 . S
C1003 C502 1.416 . S
C1017 N508 1.273 . S
C1023 N13 1.267 . S
C1037 N46 1.251 . S
C1043 N409 1.278 . S
C1057 N442 1.279 . S
C1063 N79 1.255 1_655 S
C1077 N112 1.250 1_565 S
C1083 N475 1.267 . S
C1097 N310 1.273 . S
C1103 N145 1.266 . S
C1117 N178 1.248 . S
C1123 N343 1.275 . S
C1137 N211 1.250 1_655 S
C1143 N376 1.278 . S
C1157 N277 1.277 . S
C1163 N244 1.260 1_565 S
C1177 C150 1.475 . S
C1183 C381 1.473 . S
C1197 C183 1.461 . S
C1203 C282 1.460 . S
C1217 C216 1.477 . S
C1223 C315 1.478 . S
C1237 C348 1.472 . S
C1243 C249 1.469 . S
C1257 C18 1.473 . S
C1263 C447 1.476 . S
C1277 C480 1.460 . S
C1283 C51 1.461 . S
C1297 C84 1.476 . S
C1303 C513 1.478 . S
C1317 C117 1.474 . S
C1323 C414 1.476 . S
