# Generated by pormake.
# Topology yfl, (5)-cn, num edge types: 1
# Building blocks:
#     Node 0, Type 0, BuildingBlock: BEQFEK_clean_sbu_0, # of connection points: 5
#     Node 1, Type 0, BuildingBlock: BEQFEK_clean_sbu_0, # of connection points: 5
#     Node 2, Type 0, BuildingBlock: BEQFEK_clean_sbu_0, # of connection points: 5
#     Node 3, Type 0, BuildingBlock: BEQFEK_clean_sbu_0, # of connection points: 5
#     Node 4, Type 0, BuildingBlock: BEQFEK_clean_sbu_0, # of connection points: 5
#     Node 5, Type 0, BuildingBlock: BEQFEK_clean_sbu_0, # of connection points: 5
#     Node 6, Type 0, BuildingBlock: BEQFEK_clean_sbu_0, # of connection points: 5
#     Node 7, Type 0, BuildingBlock: BEQFEK_clean_sbu_0, # of connection points: 5
#     Node 8, Type 0, BuildingBlock: BEQFEK_clean_sbu_0, # of connection points: 5
#     Node 9, Type 0, BuildingBlock: BEQFEK_clean_sbu_0, # of connection points: 5
#     Node 10, Type 0, BuildingBlock: BEQFEK_clean_sbu_0, # of connection points: 5
#     Node 11, Type 0, BuildingBlock: BEQFEK_clean_sbu_0, # of connection points: 5
#     Node 12, Type 0, BuildingBlock: BEQFEK_clean_sbu_0, # of connection points: 5
#     Node 13, Type 0, BuildingBlock: BEQFEK_clean_sbu_0, # of connection points: 5
#     Node 14, Type 0, BuildingBlock: BEQFEK_clean_sbu_0, # of connection points: 5
#     Node 15, Type 0, BuildingBlock: BEQFEK_clean_sbu_0, # of connection points: 5
#     Edge 16, Type (0, 0), BuildingBlock: TEMPAE_clean_linker_10, # of connection points: 2
#     Edge 17, Type (0, 0), BuildingBlock: TEMPAE_clean_linker_10, # of connection points: 2
#     Edge 18, Type (0, 0), BuildingBlock: TEMPAE_clean_linker_10, # of connection points: 2
#     Edge 19, Type (0, 0), BuildingBlock: TEMPAE_clean_linker_10, # of connection points: 2
#     Edge 20, Type (0, 0), BuildingBlock: TEMPAE_clean_linker_10, # of connection points: 2
#     Edge 21, Type (0, 0), BuildingBlock: TEMPAE_clean_linker_10, # of connection points: 2
#     Edge 22, Type (0, 0), BuildingBlock: TEMPAE_clean_linker_10, # of connection points: 2
#     Edge 23, Type (0, 0), BuildingBlock: TEMPAE_clean_linker_10, # of connection points: 2
#     Edge 24, Type (0, 0), BuildingBlock: TEMPAE_clean_linker_10, # of connection points: 2
#     Edge 25, Type (0, 0), BuildingBlock: TEMPAE_clean_linker_10, # of connection points: 2
#     Edge 26, Type (0, 0), BuildingBlock: TEMPAE_clean_linker_10, # of connection points: 2
#     Edge 27, Type (0, 0), BuildingBlock: TEMPAE_clean_linker_10, # of connection points: 2
#     Edge 28, Type (0, 0), BuildingBlock: TEMPAE_clean_linker_10, # of connection points: 2
#     Edge 29, Type (0, 0), BuildingBlock: TEMPAE_clean_linker_10, # of connection points: 2
#     Edge 30, Type (0, 0), BuildingBlock: TEMPAE_clean_linker_10, # of connection points: 2
#     Edge 31, Type (0, 0), BuildingBlock: TEMPAE_clean_linker_10, # of connection points: 2
#     Edge 32, Type (0, 0), BuildingBlock: TEMPAE_clean_linker_10, # of connection points: 2
#     Edge 33, Type (0, 0), BuildingBlock: TEMPAE_clean_linker_10, # of connection points: 2
#     Edge 34, Type (0, 0), BuildingBlock: TEMPAE_clean_linker_10, # of connection points: 2
#     Edge 35, Type (0, 0), BuildingBlock: TEMPAE_clean_linker_10, # of connection points: 2
#     Edge 36, Type (0, 0), BuildingBlock: TEMPAE_clean_linker_10, # of connection points: 2
#     Edge 37, Type (0, 0), BuildingBlock: TEMPAE_clean_linker_10, # of connection points: 2
#     Edge 38, Type (0, 0), BuildingBlock: TEMPAE_clean_linker_10, # of connection points: 2
#     Edge 39, Type (0, 0), BuildingBlock: TEMPAE_clean_linker_10, # of connection points: 2
#     Edge 40, Type (0, 0), BuildingBlock: TEMPAE_clean_linker_10, # of connection points: 2
#     Edge 41, Type (0, 0), BuildingBlock: TEMPAE_clean_linker_10, # of connection points: 2
#     Edge 42, Type (0, 0), BuildingBlock: TEMPAE_clean_linker_10, # of connection points: 2
#     Edge 43, Type (0, 0), BuildingBlock: TEMPAE_clean_linker_10, # of connection points: 2
#     Edge 44, Type (0, 0), BuildingBlock: TEMPAE_clean_linker_10, # of connection points: 2
#     Edge 45, Type (0, 0), BuildingBlock: TEMPAE_clean_linker_10, # of connection points: 2
#     Edge 46, Type (0, 0), BuildingBlock: TEMPAE_clean_linker_10, # of connection points: 2
#     Edge 47, Type (0, 0), BuildingBlock: TEMPAE_clean_linker_10, # of connection points: 2
#     Edge 48, Type (0, 0), BuildingBlock: TEMPAE_clean_linker_10, # of connection points: 2
#     Edge 49, Type (0, 0), BuildingBlock: TEMPAE_clean_linker_10, # of connection points: 2
#     Edge 50, Type (0, 0), BuildingBlock: TEMPAE_clean_linker_10, # of connection points: 2
#     Edge 51, Type (0, 0), BuildingBlock: TEMPAE_clean_linker_10, # of connection points: 2
#     Edge 52, Type (0, 0), BuildingBlock: TEMPAE_clean_linker_10, # of connection points: 2
#     Edge 53, Type (0, 0), BuildingBlock: TEMPAE_clean_linker_10, # of connection points: 2
#     Edge 54, Type (0, 0), BuildingBlock: TEMPAE_clean_linker_10, # of connection points: 2
#     Edge 55, Type (0, 0), BuildingBlock: TEMPAE_clean_linker_10, # of connection points: 2
# Relax obj value: 0.265
# Max RMSD: 0.177
# Mean RMSD: 0.177
data_MOF--net-yfl--node1-BEQFEK_clean_sbu_0--edge1-TEMPAE_clean_linker_10
_symmetry_space_group_name_H-M    P1
_symmetry_Int_Tables_number       1
_symmetry_cell_setting            triclinic
loop_
_symmetry_equiv_pos_as_xyz
'x, y, z'
_cell_length_a     30.405305
_cell_length_b     30.402884
_cell_length_c     114.99175
_cell_angle_alpha  90.010577
_cell_angle_beta   89.993066
_cell_angle_gamma 89.981414
loop_
_atom_site_label
_atom_site_type_symbol
_atom_site_fract_x
_atom_site_fract_y
_atom_site_fract_z
_atom_type_partial_charge
Co0 Co 0.02171 0.26311 0.29186 0.0
Co1 Co 0.10711 0.27188 0.30681 0.0
C2 C 0.03347 0.33908 0.30753 0.0
O3 O 0.00981 0.31708 0.30052 0.0
O4 O 0.0716 0.32568 0.31051 0.0
C5 C 0.9308 0.25934 0.28424 0.0
O6 O 0.92082 0.27483 0.29458 0.0
C7 C 0.15387 0.2713 0.32896 0.0
C8 C 0.22344 0.2694 0.32339 0.0
C9 C 0.19662 0.27043 0.33312 0.0
N10 N 0.15531 0.27032 0.31729 0.0
N11 N 0.19695 0.26922 0.314 0.0
C12 C 0.1124 0.2761 0.33587 0.0
H13 H 0.08445 0.28526 0.33018 0.0
H14 H 0.10435 0.2445 0.34017 0.0
H15 H 0.11691 0.30124 0.34277 0.0
C16 C 0.01862 0.17701 0.30332 0.0
N17 N 0.03667 0.21691 0.30191 0.0
N18 N 0.07317 0.21945 0.30803 0.0
C19 C 0.0799 0.18053 0.31339 0.0
C20 C 0.04533 0.1527 0.31065 0.0
C21 C 0.97764 0.162 0.29731 0.0
H22 H 0.95097 0.18611 0.29892 0.0
H23 H 0.96684 0.12917 0.3004 0.0
H24 H 0.98361 0.16073 0.28779 0.0
O25 O 0.06955 0.27467 0.28072 0.0
O26 O 0.13147 0.27752 0.29089 0.0
H27 H 0.12561 0.13187 0.31988 0.0
H28 H 0.11928 0.18001 0.32877 0.0
C29 C 0.12118 0.1681 0.31968 0.0
H30 H 0.15008 0.18341 0.31542 0.0
H31 H 0.20731 0.26859 0.30535 0.0
O32 O 0.97053 0.2498 0.28194 0.0
C33 C 0.1111 0.27902 0.28123 0.0
Co34 Co 0.25771 0.97325 0.70654 0.0
Co35 Co 0.27237 0.89452 0.68945 0.0
C36 C 0.33616 0.96931 0.6909 0.0
O37 O 0.31361 0.98797 0.6988 0.0
O38 O 0.3237 0.9332 0.68636 0.0
C39 C 0.25209 0.0623 0.71496 0.0
O40 O 0.26628 0.07318 0.70456 0.0
C41 C 0.27499 0.85212 0.66665 0.0
C42 C 0.27498 0.78163 0.67138 0.0
C43 C 0.27592 0.81009 0.66199 0.0
N44 N 0.27315 0.84863 0.67828 0.0
N45 N 0.2732 0.80645 0.68106 0.0
C46 C 0.27882 0.89485 0.66025 0.0
H47 H 0.28702 0.92203 0.66629 0.0
H48 H 0.24713 0.90278 0.65599 0.0
H49 H 0.30427 0.89222 0.65336 0.0
C50 C 0.17273 0.97682 0.69453 0.0
N51 N 0.21346 0.96041 0.69571 0.0
N52 N 0.21815 0.92609 0.68883 0.0
C53 C 0.17987 0.91916 0.68317 0.0
C54 C 0.1501 0.95124 0.68657 0.0
C55 C 0.15546 0.01499 0.70137 0.0
H56 H 0.17854 0.04302 0.70057 0.0
H57 H 0.12252 0.02554 0.6983 0.0
H58 H 0.15358 0.00578 0.7107 0.0
O59 O 0.26644 0.92234 0.71686 0.0
O60 O 0.28078 0.86681 0.70489 0.0
H61 H 0.134 0.87356 0.67533 0.0
H62 H 0.18271 0.88472 0.667 0.0
C63 C 0.16995 0.87949 0.67591 0.0
H64 H 0.18612 0.85005 0.67966 0.0
H65 H 0.27224 0.7946 0.68957 0.0
O66 O 0.24313 0.0223 0.7171 0.0
C67 C 0.276 0.88222 0.71509 0.0
Co68 Co 0.97803 0.73226 0.28909 0.0
Co69 Co 0.89498 0.72913 0.30505 0.0
C70 C 0.96048 0.65573 0.30477 0.0
O71 O 0.98399 0.67599 0.29734 0.0
O72 O 0.92473 0.6722 0.3086 0.0
C73 C 0.07003 0.73247 0.28196 0.0
O74 O 0.07976 0.72173 0.29272 0.0
C75 C 0.84186 0.72246 0.32621 0.0
C76 C 0.78516 0.76496 0.32187 0.0
C77 C 0.80307 0.73945 0.33064 0.0
N78 N 0.8467 0.73727 0.31529 0.0
N79 N 0.81245 0.76217 0.31268 0.0
C80 C 0.87607 0.69657 0.3326 0.0
H81 H 0.90933 0.70483 0.32929 0.0
H82 H 0.8746 0.70311 0.34208 0.0
H83 H 0.87016 0.661 0.33111 0.0
C84 C 0.99244 0.81533 0.30172 0.0
N85 N 0.96933 0.77851 0.29963 0.0
N86 N 0.93511 0.77699 0.30663 0.0
C87 C 0.93585 0.81274 0.31358 0.0
C88 C 0.97229 0.83804 0.31073 0.0
C89 C 0.03057 0.83026 0.29449 0.0
H90 H 0.02545 0.82077 0.28528 0.0
H91 H 0.06098 0.8141 0.29768 0.0
H92 H 0.03501 0.86644 0.29495 0.0
O93 O 0.9291 0.72747 0.27812 0.0
O94 O 0.8693 0.72604 0.28909 0.0
H95 H 0.87054 0.82918 0.31891 0.0
H96 H 0.91292 0.85036 0.32841 0.0
C97 C 0.9029 0.82206 0.32293 0.0
H98 H 0.8994 0.79276 0.32857 0.0
H99 H 0.8084 0.77834 0.30475 0.0
O100 O 0.03028 0.74001 0.27923 0.0
C101 C 0.88759 0.72513 0.27914 0.0
Co102 Co 0.73058 0.02096 0.70772 0.0
Co103 Co 0.73024 0.1047 0.69194 0.0
C104 C 0.65373 0.04322 0.69246 0.0
O105 O 0.67359 0.01847 0.69968 0.0
O106 O 0.67154 0.0783 0.68862 0.0
C107 C 0.72738 0.92827 0.71434 0.0
O108 O 0.71718 0.91964 0.70347 0.0
C109 C 0.72448 0.16014 0.67114 0.0
C110 C 0.77231 0.21264 0.67529 0.0
C111 C 0.74408 0.19767 0.66672 0.0
N112 N 0.74043 0.15315 0.68187 0.0
N113 N 0.7685 0.18499 0.68437 0.0
C114 C 0.69477 0.12886 0.66488 0.0
H115 H 0.70209 0.09456 0.66754 0.0
H116 H 0.69834 0.13201 0.65531 0.0
H117 H 0.66019 0.13629 0.66727 0.0
C118 C 0.8124 0.0034 0.69474 0.0
N119 N 0.77647 0.02777 0.69697 0.0
N120 N 0.7759 0.06216 0.69002 0.0
C121 C 0.81129 0.06022 0.68296 0.0
C122 C 0.83548 0.02291 0.68571 0.0
C123 C 0.82648 0.96485 0.70195 0.0
H124 H 0.81685 0.96992 0.71115 0.0
H125 H 0.8099 0.93481 0.69867 0.0
H126 H 0.86258 0.95976 0.70152 0.0
O127 O 0.72904 0.06964 0.71888 0.0
O128 O 0.72943 0.12961 0.70797 0.0
H129 H 0.83171 0.12456 0.67779 0.0
H130 H 0.84846 0.0815 0.66791 0.0
C131 C 0.82164 0.09314 0.67368 0.0
H132 H 0.79196 0.0992 0.66835 0.0
H133 H 0.78617 0.18697 0.69213 0.0
O134 O 0.73589 0.96758 0.71732 0.0
C135 C 0.72849 0.11125 0.71791 0.0
Co136 Co 0.01813 0.22933 0.95625 0.0
Co137 Co 0.10021 0.22213 0.93985 0.0
C138 C 0.02856 0.15425 0.93975 0.0
O139 O 0.00699 0.17509 0.94747 0.0
O140 O 0.0654 0.16842 0.936 0.0
C141 C 0.92688 0.2359 0.96397 0.0
O142 O 0.91541 0.22746 0.95318 0.0
C143 C 0.15472 0.21054 0.9189 0.0
C144 C 0.20871 0.25743 0.92235 0.0
C145 C 0.19227 0.22889 0.91402 0.0
N146 N 0.14864 0.22848 0.92946 0.0
N147 N 0.18148 0.25582 0.93156 0.0
C148 C 0.12647 0.17463 0.91407 0.0
H149 H 0.12207 0.14888 0.92078 0.0
H150 H 0.09359 0.18812 0.91186 0.0
H151 H 0.14141 0.15898 0.90631 0.0
C152 C 0.00965 0.31486 0.94443 0.0
N153 N 0.03004 0.27617 0.9461 0.0
N154 N 0.0635 0.27288 0.93888 0.0
C155 C 0.06477 0.30925 0.93217 0.0
C156 C 0.03072 0.33692 0.93547 0.0
C157 C 0.97321 0.33178 0.95196 0.0
H158 H 0.9782 0.3209 0.96107 0.0
H159 H 0.94149 0.31829 0.94881 0.0
H160 H 0.97145 0.36822 0.95179 0.0
O161 O 0.06726 0.21899 0.96688 0.0
O162 O 0.12643 0.21579 0.95567 0.0
H163 H 0.12931 0.32592 0.92633 0.0
H164 H 0.086 0.34402 0.91675 0.0
C165 C 0.09698 0.31699 0.92255 0.0
H166 H 0.10086 0.28662 0.91733 0.0
H167 H 0.1845 0.27445 0.93914 0.0
O168 O 0.96734 0.23992 0.96649 0.0
C169 C 0.10851 0.21447 0.96566 0.0
Co170 Co 0.23846 0.97897 0.04094 0.0
Co171 Co 0.22854 0.89296 0.05558 0.0
C172 C 0.15841 0.96352 0.05496 0.0
O173 O 0.18104 0.98803 0.04829 0.0
O174 O 0.17282 0.92628 0.05835 0.0
C175 C 0.24095 0.07005 0.03335 0.0
O176 O 0.22261 0.07961 0.04338 0.0
C177 C 0.22511 0.84546 0.07757 0.0
C178 C 0.23082 0.77618 0.07192 0.0
C179 C 0.22646 0.80263 0.08165 0.0
N180 N 0.22899 0.84446 0.06595 0.0
N181 N 0.23232 0.80299 0.0626 0.0
C182 C 0.21715 0.88647 0.08448 0.0
H183 H 0.20985 0.91465 0.07867 0.0
H184 H 0.24673 0.89459 0.08967 0.0
H185 H 0.18951 0.88121 0.09063 0.0
C186 C 0.31998 0.98588 0.05448 0.0
N187 N 0.28169 0.96597 0.05205 0.0
N188 N 0.27898 0.92896 0.05795 0.0
C189 C 0.31628 0.92373 0.06415 0.0
C190 C 0.34291 0.96003 0.0623 0.0
C191 C 0.33581 0.02687 0.04863 0.0
H192 H 0.33858 0.02089 0.03914 0.0
H193 H 0.31135 0.05346 0.04996 0.0
H194 H 0.36814 0.03769 0.05208 0.0
O195 O 0.23301 0.93098 0.02955 0.0
O196 O 0.2277 0.869 0.03955 0.0
H197 H 0.31612 0.85333 0.06581 0.0
H198 H 0.3651 0.87983 0.07138 0.0
C199 C 0.32885 0.88258 0.07048 0.0
H200 H 0.31442 0.88326 0.07932 0.0
H201 H 0.23544 0.79297 0.05396 0.0
O202 O 0.25262 0.03069 0.03131 0.0
C203 C 0.22921 0.88937 0.0299 0.0
Co204 Co 0.97457 0.76776 0.95608 0.0
Co205 Co 0.89045 0.76681 0.9405 0.0
C206 C 0.95768 0.83922 0.93904 0.0
O207 O 0.98193 0.82053 0.94658 0.0
O208 O 0.92099 0.82255 0.93597 0.0
C209 C 0.06607 0.76983 0.96354 0.0
O210 O 0.07615 0.77993 0.95276 0.0
C211 C 0.84139 0.76703 0.91877 0.0
C212 C 0.78098 0.73066 0.92348 0.0
C213 C 0.80254 0.75067 0.9143 0.0
N214 N 0.84298 0.75713 0.93013 0.0
N215 N 0.80653 0.73594 0.93295 0.0
C216 C 0.87809 0.78838 0.9122 0.0
H217 H 0.91024 0.77765 0.91578 0.0
H218 H 0.87636 0.78042 0.90279 0.0
H219 H 0.87557 0.82457 0.91326 0.0
C220 C 0.98656 0.68039 0.9456 0.0
N221 N 0.96465 0.71852 0.94668 0.0
N222 N 0.9296 0.71784 0.93997 0.0
C223 C 0.92828 0.67897 0.93432 0.0
C224 C 0.96432 0.65414 0.93771 0.0
C225 C 0.0277 0.66939 0.95213 0.0
H226 H 0.02168 0.67283 0.9616 0.0
H227 H 0.0538 0.69305 0.94967 0.0
H228 H 0.03954 0.63567 0.95019 0.0
O229 O 0.92543 0.77731 0.96687 0.0
O230 O 0.86461 0.77399 0.95629 0.0
H231 H 0.86004 0.66573 0.93161 0.0
H232 H 0.89611 0.63026 0.92345 0.0
C233 C 0.89128 0.66431 0.92666 0.0
H234 H 0.88862 0.6868 0.91912 0.0
H235 H 0.79977 0.72384 0.94125 0.0
O236 O 0.02639 0.76154 0.9662 0.0
C237 C 0.88378 0.77871 0.96604 0.0
Co238 Co 0.759 0.02027 0.04073 0.0
Co239 Co 0.76917 0.10466 0.05599 0.0
C240 C 0.83886 0.03405 0.05504 0.0
O241 O 0.81622 0.01041 0.04816 0.0
O242 O 0.82467 0.07107 0.05866 0.0
C243 C 0.75456 0.92908 0.03325 0.0
O244 O 0.77031 0.91916 0.04356 0.0
C245 C 0.77589 0.15065 0.0781 0.0
C246 C 0.76444 0.21991 0.07308 0.0
C247 C 0.77313 0.19293 0.0825 0.0
N248 N 0.76875 0.15241 0.0666 0.0
N249 N 0.76206 0.19388 0.06362 0.0
C250 C 0.78812 0.10957 0.08451 0.0
H251 H 0.78323 0.08019 0.07894 0.0
H252 H 0.76823 0.10605 0.09253 0.0
H253 H 0.82318 0.11155 0.08714 0.0
C254 C 0.67791 0.01148 0.05452 0.0
N255 N 0.71552 0.03236 0.05189 0.0
N256 N 0.71876 0.06836 0.0582 0.0
C257 C 0.68266 0.07183 0.06496 0.0
C258 C 0.65607 0.03551 0.06298 0.0
C259 C 0.66146 0.97166 0.04821 0.0
H260 H 0.66515 0.97655 0.03871 0.0
H261 H 0.68166 0.94283 0.05074 0.0
H262 H 0.62644 0.96468 0.05018 0.0
O263 O 0.76505 0.06904 0.02961 0.0
O264 O 0.77023 0.12995 0.04009 0.0
H265 H 0.68096 0.14108 0.06852 0.0
H266 H 0.6385 0.10984 0.07586 0.0
C267 C 0.67325 0.10959 0.07294 0.0
H268 H 0.69433 0.10673 0.08075 0.0
H269 H 0.75592 0.2044 0.05514 0.0
O270 O 0.74539 0.96887 0.03092 0.0
C271 C 0.76901 0.11058 0.03028 0.0
Co272 Co 0.51299 0.77412 0.79274 0.0
Co273 Co 0.60222 0.77347 0.80649 0.0
C274 C 0.54203 0.85169 0.80653 0.0
O275 O 0.51461 0.83177 0.8001 0.0
O276 O 0.57771 0.83335 0.80971 0.0
C277 C 0.42417 0.79376 0.78681 0.0
O278 O 0.42781 0.82224 0.79534 0.0
C279 C 0.65385 0.77049 0.82787 0.0
C280 C 0.71705 0.74275 0.82184 0.0
C281 C 0.69477 0.75623 0.83174 0.0
N282 N 0.65182 0.76461 0.81631 0.0
N283 N 0.68982 0.74843 0.81273 0.0
C284 C 0.61735 0.79016 0.83493 0.0
H285 H 0.59698 0.81239 0.82958 0.0
H286 H 0.59567 0.76354 0.83819 0.0
H287 H 0.63061 0.80881 0.84245 0.0
C288 C 0.499 0.69351 0.80595 0.0
N289 N 0.52235 0.72992 0.80371 0.0
N290 N 0.56008 0.72821 0.80929 0.0
C291 C 0.56215 0.68979 0.81514 0.0
C292 C 0.52339 0.66679 0.81326 0.0
C293 C 0.45621 0.6826 0.8002 0.0
H294 H 0.43313 0.71059 0.80124 0.0
H295 H 0.44117 0.65255 0.80397 0.0
H296 H 0.46181 0.67758 0.79076 0.0
O297 O 0.55872 0.77291 0.78062 0.0
O298 O 0.62246 0.77179 0.79004 0.0
H299 H 0.60013 0.63652 0.82268 0.0
H300 H 0.60842 0.68974 0.82912 0.0
C301 C 0.60288 0.67221 0.82081 0.0
H302 H 0.63165 0.67787 0.81508 0.0
H303 H 0.69683 0.74042 0.8041 0.0
O304 O 0.45589 0.76783 0.78463 0.0
C305 C 0.60058 0.77225 0.78059 0.0
Co306 Co 0.76366 0.47435 0.20648 0.0
Co307 Co 0.77219 0.38974 0.19119 0.0
C308 C 0.84051 0.4615 0.19094 0.0
O309 O 0.81888 0.48493 0.19811 0.0
O310 O 0.82643 0.42404 0.18764 0.0
C311 C 0.75718 0.56613 0.2138 0.0
O312 O 0.76816 0.57682 0.20312 0.0
C313 C 0.77795 0.34229 0.16929 0.0
C314 C 0.76338 0.27384 0.17453 0.0
C315 C 0.7736 0.29992 0.16504 0.0
N316 N 0.77026 0.34144 0.18077 0.0
N317 N 0.76171 0.30046 0.18388 0.0
C318 C 0.7922 0.38256 0.16281 0.0
H319 H 0.78175 0.41267 0.16752 0.0
H320 H 0.77875 0.38302 0.15386 0.0
H321 H 0.82861 0.38257 0.16216 0.0
C322 C 0.67986 0.48159 0.19371 0.0
N323 N 0.718 0.46107 0.19602 0.0
N324 N 0.72105 0.42541 0.18956 0.0
C325 C 0.68455 0.42204 0.18295 0.0
C326 C 0.65766 0.45786 0.18527 0.0
C327 C 0.66361 0.52116 0.20018 0.0
H328 H 0.67115 0.51772 0.20956 0.0
H329 H 0.68077 0.55079 0.19686 0.0
H330 H 0.62763 0.52576 0.19911 0.0
O331 O 0.77315 0.42614 0.21758 0.0
O332 O 0.77666 0.36499 0.20713 0.0
H333 H 0.6819 0.35336 0.17879 0.0
H334 H 0.64172 0.38645 0.17113 0.0
C335 C 0.67581 0.38551 0.17453 0.0
H336 H 0.69854 0.38867 0.16705 0.0
H337 H 0.75477 0.29068 0.19238 0.0
O338 O 0.75157 0.52591 0.21638 0.0
C339 C 0.77742 0.38465 0.2169 0.0
Co340 Co 0.47755 0.24096 0.78958 0.0
Co341 Co 0.39644 0.23165 0.80615 0.0
C342 C 0.4705 0.16704 0.80665 0.0
O343 O 0.49096 0.18823 0.79878 0.0
O344 O 0.43295 0.17962 0.8103 0.0
C345 C 0.56855 0.24824 0.78207 0.0
O346 O 0.57916 0.24047 0.79295 0.0
C347 C 0.34472 0.22234 0.82754 0.0
C348 C 0.28468 0.25976 0.82307 0.0
C349 C 0.30482 0.23661 0.83196 0.0
N350 N 0.34807 0.23647 0.81651 0.0
N351 N 0.31184 0.25826 0.81384 0.0
C352 C 0.38101 0.1998 0.83401 0.0
H353 H 0.41343 0.21122 0.83078 0.0
H354 H 0.37863 0.20609 0.8435 0.0
H355 H 0.37861 0.16385 0.8325 0.0
C356 C 0.48348 0.32721 0.80122 0.0
N357 N 0.46401 0.28809 0.79951 0.0
N358 N 0.43087 0.28383 0.80679 0.0
C359 C 0.42869 0.32005 0.81353 0.0
C360 C 0.46201 0.34858 0.81024 0.0
C361 C 0.52011 0.34469 0.79385 0.0
H362 H 0.51603 0.33353 0.78474 0.0
H363 H 0.55186 0.33187 0.79718 0.0
H364 H 0.52109 0.38117 0.79401 0.0
O365 O 0.42866 0.22763 0.77901 0.0
O366 O 0.37029 0.22273 0.79046 0.0
H367 H 0.3632 0.33045 0.81971 0.0
H368 H 0.40511 0.35541 0.82869 0.0
C369 C 0.39678 0.32631 0.82331 0.0
H370 H 0.39703 0.29684 0.82896 0.0
H371 H 0.30629 0.27332 0.80581 0.0
O372 O 0.52827 0.25219 0.77933 0.0
C373 C 0.3877 0.22133 0.78041 0.0
Co374 Co 0.23592 0.51466 0.20463 0.0
Co375 Co 0.22882 0.60054 0.18983 0.0
C376 C 0.15827 0.53048 0.18974 0.0
O377 O 0.17988 0.5059 0.19663 0.0
O378 O 0.17319 0.56773 0.18653 0.0
C379 C 0.23593 0.42369 0.21229 0.0
O380 O 0.21781 0.41447 0.20221 0.0
C381 C 0.22787 0.64834 0.16787 0.0
C382 C 0.23277 0.71753 0.17365 0.0
C383 C 0.22914 0.69125 0.16387 0.0
N384 N 0.23101 0.64912 0.17951 0.0
N385 N 0.23398 0.69053 0.18293 0.0
C386 C 0.22031 0.60748 0.16089 0.0
H387 H 0.21512 0.57868 0.16664 0.0
H388 H 0.24917 0.60091 0.15526 0.0
H389 H 0.19137 0.61208 0.15513 0.0
C390 C 0.31955 0.50728 0.19209 0.0
N391 N 0.28095 0.52737 0.19403 0.0
N392 N 0.2792 0.56405 0.18797 0.0
C393 C 0.31735 0.56878 0.1821 0.0
C394 C 0.34371 0.53266 0.18443 0.0
C395 C 0.33414 0.46628 0.19817 0.0
H396 H 0.30937 0.44006 0.19677 0.0
H397 H 0.36657 0.45473 0.19496 0.0
H398 H 0.33617 0.47266 0.20766 0.0
O399 O 0.22877 0.56262 0.21595 0.0
O400 O 0.22624 0.62459 0.20584 0.0
H401 H 0.36696 0.61153 0.17476 0.0
H402 H 0.31624 0.6085 0.1668 0.0
C403 C 0.33067 0.60938 0.17564 0.0
H404 H 0.3183 0.63905 0.1802 0.0
H405 H 0.23633 0.70039 0.1916 0.0
O406 O 0.24833 0.4628 0.21436 0.0
C407 C 0.22576 0.60428 0.21551 0.0
Co408 Co 0.51529 0.72554 0.45466 0.0
Co409 Co 0.59819 0.71893 0.43861 0.0
C410 C 0.53286 0.64537 0.4403 0.0
O411 O 0.50937 0.6674 0.44737 0.0
O412 O 0.56838 0.66113 0.43613 0.0
C413 C 0.42333 0.7279 0.46179 0.0
O414 O 0.41349 0.71604 0.45111 0.0
C415 C 0.65158 0.70959 0.41737 0.0
C416 C 0.70709 0.75411 0.42129 0.0
C417 C 0.68951 0.72775 0.41264 0.0
N418 N 0.64645 0.72559 0.42819 0.0
N419 N 0.68013 0.75156 0.43054 0.0
C420 C 0.62133 0.67653 0.41199 0.0
H421 H 0.61433 0.65017 0.41835 0.0
H422 H 0.58975 0.69268 0.40971 0.0
H423 H 0.63594 0.66111 0.40415 0.0
C424 C 0.50128 0.80646 0.44115 0.0
N425 N 0.52373 0.7694 0.44344 0.0
N426 N 0.55779 0.76652 0.43642 0.0
C427 C 0.55748 0.80161 0.42922 0.0
C428 C 0.52159 0.82792 0.43196 0.0
C429 C 0.46445 0.82339 0.44856 0.0
H430 H 0.47019 0.81452 0.45778 0.0
H431 H 0.43317 0.80809 0.44568 0.0
H432 H 0.4612 0.85965 0.44794 0.0
O433 O 0.56446 0.72357 0.46557 0.0
O434 O 0.62408 0.71925 0.45458 0.0
H435 H 0.62293 0.81782 0.424 0.0
H436 H 0.58089 0.83761 0.4142 0.0
C437 C 0.59084 0.80997 0.41992 0.0
H438 H 0.59482 0.78003 0.41453 0.0
H439 H 0.68394 0.76869 0.43834 0.0
O440 O 0.46318 0.73518 0.46446 0.0
C441 C 0.60596 0.72084 0.46456 0.0
Co442 Co 0.72453 0.47514 0.54005 0.0
Co443 Co 0.71883 0.39464 0.55706 0.0
C444 C 0.64801 0.46398 0.55579 0.0
O445 O 0.66923 0.48618 0.54828 0.0
O446 O 0.66307 0.42787 0.55978 0.0
C447 C 0.72915 0.56502 0.53132 0.0
O448 O 0.71895 0.57775 0.5419 0.0
C449 C 0.71625 0.3497 0.57981 0.0
C450 C 0.74255 0.28428 0.57512 0.0
C451 C 0.72808 0.30913 0.58447 0.0
N452 N 0.72431 0.34887 0.5683 0.0
N453 N 0.73963 0.30955 0.56556 0.0
C454 C 0.69659 0.38827 0.58603 0.0
H455 H 0.67639 0.40831 0.58007 0.0
H456 H 0.72334 0.40951 0.58942 0.0
H457 H 0.67581 0.37723 0.59341 0.0
C458 C 0.8097 0.48633 0.55179 0.0
N459 N 0.77083 0.46591 0.55055 0.0
N460 N 0.7688 0.43238 0.55778 0.0
C461 C 0.80661 0.43061 0.56391 0.0
C462 C 0.83343 0.46484 0.56034 0.0
C463 C 0.82442 0.52452 0.54456 0.0
H464 H 0.82056 0.51644 0.53521 0.0
H465 H 0.80326 0.55326 0.54652 0.0
H466 H 0.85908 0.53367 0.54635 0.0
O467 O 0.71644 0.42372 0.52997 0.0
O468 O 0.71498 0.36557 0.54159 0.0
H469 H 0.81384 0.3622 0.56784 0.0
H470 H 0.85342 0.39718 0.57505 0.0
C471 C 0.81872 0.39447 0.57214 0.0
H472 H 0.79703 0.396 0.57987 0.0
H473 H 0.7488 0.30021 0.55717 0.0
O474 O 0.73495 0.52439 0.52924 0.0
C475 C 0.71348 0.38241 0.53146 0.0
Co476 Co 0.47138 0.24934 0.45845 0.0
Co477 Co 0.38762 0.25914 0.44291 0.0
C478 C 0.46102 0.32637 0.44299 0.0
O479 O 0.48398 0.30425 0.45015 0.0
O480 O 0.42344 0.31283 0.43963 0.0
C481 C 0.56187 0.24381 0.46625 0.0
O482 O 0.57232 0.2583 0.45585 0.0
C483 C 0.34282 0.26167 0.42048 0.0
C484 C 0.2728 0.25883 0.42561 0.0
C485 C 0.30044 0.26165 0.41607 0.0
N486 N 0.34039 0.25857 0.43211 0.0
N487 N 0.29848 0.25684 0.43514 0.0
C488 C 0.38482 0.26797 0.41388 0.0
H489 H 0.41285 0.27304 0.41989 0.0
H490 H 0.39173 0.23854 0.40851 0.0
H491 H 0.38163 0.29652 0.40792 0.0
C492 C 0.47627 0.16428 0.44629 0.0
N493 N 0.45745 0.20368 0.44806 0.0
N494 N 0.42176 0.20688 0.44163 0.0
C495 C 0.41646 0.16904 0.43565 0.0
C496 C 0.45102 0.14112 0.43836 0.0
C497 C 0.51734 0.14916 0.45225 0.0
H498 H 0.54393 0.1733 0.45062 0.0
H499 H 0.52825 0.11644 0.44911 0.0
H500 H 0.51155 0.1478 0.46177 0.0
O501 O 0.42253 0.2603 0.46935 0.0
O502 O 0.36188 0.26434 0.4587 0.0
H503 H 0.34684 0.17184 0.43256 0.0
H504 H 0.37287 0.12161 0.4277 0.0
C505 C 0.37683 0.15776 0.42853 0.0
H506 H 0.38068 0.17173 0.4197 0.0
H507 H 0.2874 0.25478 0.44371 0.0
O508 O 0.52188 0.23547 0.46856 0.0
C509 C 0.38111 0.26515 0.46852 0.0
Co510 Co 0.25319 0.51988 0.54031 0.0
Co511 Co 0.26151 0.60672 0.55466 0.0
C512 C 0.33068 0.53585 0.55542 0.0
O513 O 0.3089 0.51125 0.54857 0.0
O514 O 0.31641 0.57365 0.55839 0.0
C515 C 0.25014 0.4274 0.53379 0.0
O516 O 0.26371 0.41877 0.54439 0.0
C517 C 0.26741 0.6577 0.57598 0.0
C518 C 0.25267 0.72522 0.56998 0.0
C519 C 0.26316 0.70072 0.57973 0.0
N520 N 0.2594 0.65664 0.56451 0.0
N521 N 0.25071 0.69706 0.56095 0.0
C522 C 0.28193 0.61857 0.58289 0.0
H523 H 0.27226 0.58766 0.57843 0.0
H524 H 0.26785 0.61911 0.59177 0.0
H525 H 0.31828 0.61927 0.58371 0.0
C526 C 0.16998 0.51381 0.55331 0.0
N527 N 0.20799 0.53414 0.55079 0.0
N528 N 0.21087 0.5708 0.55684 0.0
C529 C 0.17432 0.57508 0.56339 0.0
C530 C 0.14757 0.53882 0.56147 0.0
C531 C 0.15396 0.47338 0.54719 0.0
H532 H 0.16055 0.47623 0.53774 0.0
H533 H 0.17226 0.44442 0.55052 0.0
H534 H 0.11824 0.46801 0.54852 0.0
O535 O 0.26127 0.56643 0.52867 0.0
O536 O 0.26484 0.62903 0.53847 0.0
H537 H 0.17073 0.64446 0.56657 0.0
H538 H 0.13114 0.61243 0.57475 0.0
C539 C 0.16516 0.61315 0.57129 0.0
H540 H 0.18807 0.61185 0.57877 0.0
H541 H 0.24358 0.70543 0.55235 0.0
O542 O 0.24139 0.46683 0.53098 0.0
C543 C 0.2651 0.60803 0.52891 0.0
C544 C 0.11341 0.31343 0.2617 0.0
C545 C 0.13514 0.29005 0.27048 0.0
C546 C 0.1361 0.32859 0.25191 0.0
C547 C 0.18142 0.31889 0.25068 0.0
C548 C 0.20297 0.29288 0.25916 0.0
C549 C 0.17973 0.27948 0.26912 0.0
C550 C 0.11198 0.35708 0.24322 0.0
C551 C 0.25077 0.2804 0.25791 0.0
C552 C 0.21804 0.34912 0.22032 0.0
C553 C 0.2325 0.39239 0.2221 0.0
C554 C 0.20555 0.32257 0.22976 0.0
C555 C 0.20646 0.34031 0.24115 0.0
C556 C 0.22463 0.38254 0.24305 0.0
C557 C 0.23805 0.40777 0.23352 0.0
C558 C 0.18824 0.2769 0.22746 0.0
C559 C 0.2257 0.40303 0.25502 0.0
H560 H 0.07897 0.32183 0.26274 0.0
H561 H 0.19645 0.26095 0.27585 0.0
H562 H 0.1272 0.39025 0.24294 0.0
H563 H 0.1146 0.34277 0.23438 0.0
H564 H 0.07657 0.3609 0.24538 0.0
H565 H 0.25976 0.25268 0.26374 0.0
H566 H 0.25839 0.27102 0.2488 0.0
H567 H 0.27173 0.30898 0.26017 0.0
H568 H 0.21441 0.33669 0.21153 0.0
H569 H 0.2497 0.44099 0.23501 0.0
H570 H 0.15177 0.27739 0.22766 0.0
H571 H 0.19957 0.25361 0.23426 0.0
H572 H 0.19879 0.26449 0.21881 0.0
H573 H 0.19157 0.41015 0.2579 0.0
H574 H 0.24472 0.43422 0.25518 0.0
H575 H 0.24032 0.38004 0.26142 0.0
C576 C 0.37271 0.76386 0.77187 0.0
C577 C 0.38996 0.79988 0.77794 0.0
C578 C 0.34591 0.77025 0.76207 0.0
C579 C 0.33844 0.81352 0.75797 0.0
C580 C 0.35432 0.84997 0.7644 0.0
C581 C 0.37912 0.84263 0.77447 0.0
C582 C 0.32751 0.73071 0.75581 0.0
C583 C 0.34821 0.89667 0.76019 0.0
C584 C 0.3305 0.83814 0.72587 0.0
C585 C 0.28793 0.85525 0.72516 0.0
C586 C 0.34672 0.82189 0.73643 0.0
C587 C 0.3189 0.8212 0.74632 0.0
C588 C 0.2744 0.83433 0.74528 0.0
C589 C 0.25972 0.85246 0.73475 0.0
C590 C 0.39474 0.80946 0.73724 0.0
C591 C 0.24312 0.83188 0.75544 0.0
H592 H 0.38101 0.73079 0.77464 0.0
H593 H 0.3929 0.87045 0.77911 0.0
H594 H 0.29348 0.73718 0.75276 0.0
H595 H 0.34796 0.72339 0.74806 0.0
H596 H 0.32733 0.7011 0.76147 0.0
H597 H 0.36211 0.92124 0.76632 0.0
H598 H 0.36456 0.9008 0.75162 0.0
H599 H 0.31281 0.90397 0.75896 0.0
H600 H 0.35226 0.8409 0.71843 0.0
H601 H 0.22669 0.8657 0.73412 0.0
H602 H 0.39845 0.77627 0.74109 0.0
H603 H 0.41204 0.833 0.74303 0.0
H604 H 0.41123 0.80973 0.72861 0.0
H605 H 0.24844 0.80123 0.7605 0.0
H606 H 0.20828 0.83313 0.75256 0.0
H607 H 0.249 0.86008 0.76136 0.0
C608 C 0.76653 0.6436 0.22097 0.0
C609 C 0.76052 0.59873 0.22333 0.0
C610 C 0.7785 0.67296 0.22988 0.0
C611 C 0.78593 0.65663 0.24124 0.0
C612 C 0.77624 0.61216 0.24382 0.0
C613 C 0.76301 0.58397 0.23487 0.0
C614 C 0.78623 0.72069 0.22694 0.0
C615 C 0.78404 0.59314 0.25579 0.0
C616 C 0.88217 0.69718 0.25889 0.0
C617 C 0.86122 0.71535 0.26863 0.0
C618 C 0.8579 0.68026 0.24958 0.0
C619 C 0.81142 0.68279 0.24983 0.0
C620 C 0.79017 0.70471 0.25914 0.0
C621 C 0.81531 0.72004 0.26857 0.0
C622 C 0.88204 0.65652 0.23994 0.0
C623 C 0.74085 0.70993 0.25947 0.0
H624 H 0.76378 0.65546 0.21212 0.0
H625 H 0.75785 0.54947 0.23682 0.0
H626 H 0.77502 0.74236 0.23412 0.0
H627 H 0.82193 0.72642 0.22567 0.0
H628 H 0.76895 0.73026 0.21881 0.0
H629 H 0.77179 0.55884 0.25657 0.0
H630 H 0.81983 0.59324 0.2577 0.0
H631 H 0.76766 0.6135 0.26251 0.0
H632 H 0.91764 0.6935 0.25883 0.0
H633 H 0.79895 0.73465 0.27601 0.0
H634 H 0.87249 0.67003 0.23136 0.0
H635 H 0.87294 0.62116 0.24001 0.0
H636 H 0.91834 0.65909 0.24082 0.0
H637 H 0.72732 0.71552 0.25062 0.0
H638 H 0.73093 0.73771 0.26517 0.0
H639 H 0.72576 0.67948 0.26297 0.0
C640 C 0.58719 0.23753 0.76119 0.0
C641 C 0.60152 0.24302 0.7727 0.0
C642 C 0.61595 0.22284 0.75253 0.0
C643 C 0.66054 0.21469 0.75534 0.0
C644 C 0.67628 0.22475 0.76662 0.0
C645 C 0.64638 0.2382 0.77525 0.0
C646 C 0.59752 0.21215 0.74065 0.0
C647 C 0.724 0.21849 0.76981 0.0
C648 C 0.70327 0.11758 0.73842 0.0
C649 C 0.72023 0.13801 0.72845 0.0
C650 C 0.68646 0.14239 0.74765 0.0
C651 C 0.6878 0.18888 0.74706 0.0
C652 C 0.70902 0.20967 0.73758 0.0
C653 C 0.72437 0.18397 0.72826 0.0
C654 C 0.66369 0.11874 0.75753 0.0
C655 C 0.71302 0.25906 0.73692 0.0
H656 H 0.55269 0.24165 0.75908 0.0
H657 H 0.65787 0.24313 0.78408 0.0
H658 H 0.61748 0.22794 0.73375 0.0
H659 H 0.5989 0.17607 0.7392 0.0
H660 H 0.56285 0.22307 0.73966 0.0
H661 H 0.73305 0.23821 0.77758 0.0
H662 H 0.73009 0.18335 0.77183 0.0
H663 H 0.74585 0.22782 0.76248 0.0
H664 H 0.70019 0.08207 0.7387 0.0
H665 H 0.73814 0.19998 0.72066 0.0
H666 H 0.62795 0.12618 0.75731 0.0
H667 H 0.67652 0.13026 0.76602 0.0
H668 H 0.66798 0.08249 0.75704 0.0
H669 H 0.68157 0.27322 0.73378 0.0
H670 H 0.73946 0.26918 0.73081 0.0
H671 H 0.71991 0.27331 0.74562 0.0
C672 C 0.22452 0.14486 0.02526 0.0
C673 C 0.23809 0.10128 0.0235 0.0
C674 C 0.21182 0.17132 0.01582 0.0
C675 C 0.21153 0.15318 0.00448 0.0
C676 C 0.2292 0.11074 0.00257 0.0
C677 C 0.2429 0.08557 0.01209 0.0
C678 C 0.19524 0.21728 0.01811 0.0
C679 C 0.22909 0.08985 0.99064 0.0
C680 C 0.11495 0.1796 0.98506 0.0
C681 C 0.1349 0.20305 0.976 0.0
C682 C 0.13947 0.16438 0.99452 0.0
C683 C 0.18496 0.17408 0.99515 0.0
C684 C 0.2049 0.19995 0.98636 0.0
C685 C 0.17975 0.21339 0.97672 0.0
C686 C 0.11696 0.13602 0.00353 0.0
C687 C 0.25287 0.2124 0.98695 0.0
H688 H 0.22157 0.15756 0.03404 0.0
H689 H 0.25393 0.05213 0.01061 0.0
H690 H 0.20614 0.24015 0.01116 0.0
H691 H 0.15876 0.2172 0.01817 0.0
H692 H 0.2068 0.2299 0.02665 0.0
H693 H 0.24834 0.05879 0.99041 0.0
H694 H 0.19471 0.08235 0.98807 0.0
H695 H 0.24279 0.11271 0.98408 0.0
H696 H 0.08032 0.17131 0.9845 0.0
H697 H 0.19515 0.23191 0.96977 0.0
H698 H 0.12062 0.15084 0.01229 0.0
H699 H 0.13262 0.10304 0.00379 0.0
H700 H 0.08132 0.13167 0.00174 0.0
H701 H 0.26264 0.22071 0.99599 0.0
H702 H 0.26041 0.24082 0.98122 0.0
H703 H 0.27329 0.18418 0.98409 0.0
C704 C 0.14377 0.77721 0.97065 0.0
C705 C 0.09853 0.77566 0.97297 0.0
C706 C 0.17389 0.78849 0.97943 0.0
C707 C 0.15801 0.8 0.99061 0.0
C708 C 0.11256 0.7964 0.9931 0.0
C709 C 0.08354 0.78359 0.98431 0.0
C710 C 0.22228 0.79015 0.97657 0.0
C711 C 0.09397 0.80917 0.00483 0.0
C712 C 0.21997 0.8193 0.0186 0.0
C713 C 0.22065 0.86543 0.01893 0.0
C714 C 0.20392 0.79691 0.00879 0.0
C715 C 0.18707 0.82134 -0.00069 0.0
C716 C 0.1911 0.86771 -0.00078 0.0
C717 C 0.20837 0.88912 0.00897 0.0
C718 C 0.20213 0.74733 0.00893 0.0
C719 C 0.17322 0.89514 0.98934 0.0
H720 H 0.15555 0.77056 0.96192 0.0
H721 H 0.04862 0.78244 0.98618 0.0
H722 H 0.23176 0.82447 0.97448 0.0
H723 H 0.24251 0.77924 0.98407 0.0
H724 H 0.23024 0.76928 0.96892 0.0
H725 H 0.05802 0.80309 0.00544 0.0
H726 H 0.11056 0.7905 0.01185 0.0
H727 H 0.10005 0.84466 0.00644 0.0
H728 H 0.23024 0.80071 0.02618 0.0
H729 H 0.20923 0.92476 0.00907 0.0
H730 H 0.2105 0.73372 0.00025 0.0
H731 H 0.16827 0.73647 0.01109 0.0
H732 H 0.22493 0.73326 0.0155 0.0
H733 H 0.18548 0.88272 0.98088 0.0
H734 H 0.18237 0.93039 0.99015 0.0
H735 H 0.13679 0.89271 0.9892 0.0
C736 C 0.87842 0.81448 0.98538 0.0
C737 C 0.85804 0.79044 0.97649 0.0
C738 C 0.85432 0.83043 0.99484 0.0
C739 C 0.80881 0.82102 0.99563 0.0
C740 C 0.78848 0.79447 0.98706 0.0
C741 C 0.81322 0.78015 0.97743 0.0
C742 C 0.87727 0.85937 0.00365 0.0
C743 C 0.74044 0.7824 0.98781 0.0
C744 C 0.77002 0.85337 0.0256 0.0
C745 C 0.75704 0.89699 0.02358 0.0
C746 C 0.7823 0.82594 0.01631 0.0
C747 C 0.78262 0.84303 0.00486 0.0
C748 C 0.76539 0.88549 0.0027 0.0
C749 C 0.75226 0.91172 0.01208 0.0
C750 C 0.79846 0.78003 0.01887 0.0
C751 C 0.76532 0.90518 0.99064 0.0
H752 H 0.91301 0.82272 0.98469 0.0
H753 H 0.79744 0.7612 0.97062 0.0
H754 H 0.86206 0.89257 0.00367 0.0
H755 H 0.87345 0.8455 0.01251 0.0
H756 H 0.91296 0.86304 0.00181 0.0
H757 H 0.73271 0.75319 0.98237 0.0
H758 H 0.73065 0.77551 0.99692 0.0
H759 H 0.72018 0.81029 0.98465 0.0
H760 H 0.77291 0.84139 0.03444 0.0
H761 H 0.74154 0.94513 0.01041 0.0
H762 H 0.83495 0.77971 0.01883 0.0
H763 H 0.78709 0.75663 0.0121 0.0
H764 H 0.78705 0.76835 0.02751 0.0
H765 H 0.79969 0.91206 0.98793 0.0
H766 H 0.74638 0.9364 0.99024 0.0
H767 H 0.75117 0.8818 0.98427 0.0
C768 C 0.79472 0.11339 0.00979 0.0
C769 C 0.77807 0.13562 0.01952 0.0
C770 C 0.81137 0.13649 0.00024 0.0
C771 C 0.81014 0.18304 0.00026 0.0
C772 C 0.7895 0.20558 0.00956 0.0
C773 C 0.77439 0.1816 0.01921 0.0
C774 C 0.83371 0.11103 0.99061 0.0
C775 C 0.78568 0.25505 0.00964 0.0
C776 C 0.90969 0.2288 0.98504 0.0
C777 C 0.89456 0.23214 0.97354 0.0
C778 C 0.88156 0.21584 0.99402 0.0
C779 C 0.8368 0.20724 0.99153 0.0
C780 C 0.82025 0.21516 0.98022 0.0
C781 C 0.84953 0.22692 0.97127 0.0
C782 C 0.90081 0.20742 0.00594 0.0
C783 C 0.77231 0.20839 0.97736 0.0
H784 H 0.79756 0.07784 0.00993 0.0
H785 H 0.76089 0.19893 0.02664 0.0
H786 H 0.8204 0.1209 0.98202 0.0
H787 H 0.86943 0.11858 0.99059 0.0
H788 H 0.82958 0.07491 0.99159 0.0
H789 H 0.7594 0.26631 0.01565 0.0
H790 H 0.81723 0.2696 0.01257 0.0
H791 H 0.77867 0.26785 0.00079 0.0
H792 H 0.94432 0.23332 0.98693 0.0
H793 H 0.83742 0.23024 0.96245 0.0
H794 H 0.89956 0.17166 0.00787 0.0
H795 H 0.88133 0.22453 0.01271 0.0
H796 H 0.93554 0.21848 0.00661 0.0
H797 H 0.76589 0.17283 0.97604 0.0
H798 H 0.7628 0.22606 0.96929 0.0
H799 H 0.75103 0.21978 0.98461 0.0
C800 C 0.66921 0.77193 0.76843 0.0
C801 C 0.62372 0.77878 0.7694 0.0
C802 C 0.69225 0.78603 0.75851 0.0
C803 C 0.66943 0.80883 0.74963 0.0
C804 C 0.62307 0.81269 0.75019 0.0
C805 C 0.60076 0.79701 0.75998 0.0
C806 C 0.74135 0.77922 0.75792 0.0
C807 C 0.59736 0.83722 0.74099 0.0
C808 C 0.71946 0.90811 0.73519 0.0
C809 C 0.72119 0.89474 0.72353 0.0
C810 C 0.70528 0.87938 0.74391 0.0
C811 C 0.69374 0.83567 0.74096 0.0
C812 C 0.69957 0.82066 0.7294 0.0
C813 C 0.7126 0.85064 0.72075 0.0
C814 C 0.69911 0.89707 0.75609 0.0
C815 C 0.68956 0.77378 0.72602 0.0
H816 H 0.68706 0.7571 0.77558 0.0
H817 H 0.56556 0.80217 0.76061 0.0
H818 H 0.75194 0.77174 0.7489 0.0
H819 H 0.75834 0.80974 0.76069 0.0
H820 H 0.75212 0.75209 0.76373 0.0
H821 H 0.56125 0.83447 0.74229 0.0
H822 H 0.60642 0.87258 0.74121 0.0
H823 H 0.60551 0.82459 0.73221 0.0
H824 H 0.72646 0.942 0.73746 0.0
H825 H 0.71457 0.83986 0.71178 0.0
H826 H 0.7163 0.87587 0.76248 0.0
H827 H 0.66361 0.89689 0.75835 0.0
H828 H 0.71164 0.9312 0.75705 0.0
H829 H 0.69903 0.75058 0.73304 0.0
H830 H 0.70692 0.76434 0.71789 0.0
H831 H 0.65372 0.77018 0.7245 0.0
C832 C 0.78074 0.31462 0.22845 0.0
C833 C 0.7885 0.35996 0.22756 0.0
C834 C 0.79551 0.29078 0.23817 0.0
C835 C 0.82005 0.31262 0.24691 0.0
C836 C 0.82648 0.35867 0.24622 0.0
C837 C 0.81001 0.38181 0.23666 0.0
C838 C 0.78637 0.24207 0.23884 0.0
C839 C 0.85325 0.38325 0.2552 0.0
C840 C 0.85465 0.27309 0.27667 0.0
C841 C 0.89879 0.26228 0.27458 0.0
C842 C 0.82668 0.28511 0.26748 0.0
C843 C 0.84376 0.28752 0.25604 0.0
C844 C 0.88713 0.27294 0.25378 0.0
C845 C 0.91388 0.25988 0.26306 0.0
C846 C 0.77994 0.29841 0.27014 0.0
C847 C 0.90692 0.2754 0.24174 0.0
H848 H 0.76366 0.29771 0.22148 0.0
H849 H 0.81623 0.41684 0.23601 0.0
H850 H 0.8159 0.22356 0.236 0.0
H851 H 0.7788 0.23198 0.2479 0.0
H852 H 0.7585 0.23249 0.23313 0.0
H853 H 0.85423 0.41922 0.25351 0.0
H854 H 0.83948 0.37784 0.26401 0.0
H855 H 0.88752 0.37062 0.25523 0.0
H856 H 0.8425 0.27421 0.28553 0.0
H857 H 0.9478 0.25104 0.26132 0.0
H858 H 0.75723 0.28665 0.26325 0.0
H859 H 0.77762 0.33481 0.27043 0.0
H860 H 0.76884 0.2853 0.27866 0.0
H861 H 0.88482 0.25988 0.23527 0.0
H862 H 0.93956 0.25907 0.24127 0.0
H863 H 0.91099 0.31041 0.23922 0.0
C864 C 0.26505 0.13821 0.72272 0.0
C865 C 0.25644 0.09356 0.72476 0.0
C866 C 0.27855 0.16595 0.73182 0.0
C867 C 0.28469 0.14818 0.74309 0.0
C868 C 0.27253 0.10408 0.74536 0.0
C869 C 0.25796 0.07749 0.73619 0.0
C870 C 0.28942 0.21332 0.72918 0.0
C871 C 0.27907 0.08356 0.7572 0.0
C872 C 0.3817 0.18666 0.76091 0.0
C873 C 0.36106 0.2077 0.77029 0.0
C874 C 0.35713 0.1685 0.75182 0.0
C875 C 0.31074 0.17258 0.75191 0.0
C876 C 0.28981 0.19621 0.76097 0.0
C877 C 0.31521 0.21286 0.7702 0.0
C878 C 0.3808 0.14281 0.74246 0.0
C879 C 0.2406 0.20262 0.76113 0.0
H880 H 0.26324 0.15104 0.71394 0.0
H881 H 0.25103 0.0431 0.73788 0.0
H882 H 0.27822 0.23518 0.73632 0.0
H883 H 0.32558 0.2171 0.72838 0.0
H884 H 0.27414 0.22437 0.7209 0.0
H885 H 0.26387 0.05042 0.75782 0.0
H886 H 0.31481 0.08035 0.75898 0.0
H887 H 0.2649 0.10475 0.76409 0.0
H888 H 0.41711 0.1824 0.76096 0.0
H889 H 0.29918 0.2295 0.77738 0.0
H890 H 0.3727 0.15628 0.73376 0.0
H891 H 0.36978 0.10801 0.74261 0.0
H892 H 0.41709 0.1435 0.74356 0.0
H893 H 0.22834 0.21152 0.75235 0.0
H894 H 0.23058 0.22861 0.76739 0.0
H895 H 0.22436 0.17145 0.7637 0.0
C896 C 0.1965 0.60636 0.23566 0.0
C897 C 0.21633 0.62856 0.22635 0.0
C898 C 0.18038 0.62932 0.24529 0.0
C899 C 0.18543 0.67558 0.24581 0.0
C900 C 0.20896 0.69773 0.23695 0.0
C901 C 0.22344 0.67403 0.22717 0.0
C902 C 0.1548 0.60438 0.25444 0.0
C903 C 0.21675 0.74669 0.23746 0.0
C904 C 0.08863 0.72726 0.26094 0.0
C905 C 0.10285 0.72747 0.27255 0.0
C906 C 0.11644 0.71335 0.25198 0.0
C907 C 0.16004 0.70055 0.25464 0.0
C908 C 0.17607 0.70521 0.26614 0.0
C909 C 0.14703 0.71805 0.27503 0.0
C910 C 0.09773 0.70845 0.23987 0.0
C911 C 0.22296 0.69382 0.26919 0.0
H912 H 0.19095 0.57119 0.23509 0.0
H913 H 0.23937 0.69124 0.22007 0.0
H914 H 0.16791 0.61163 0.26322 0.0
H915 H 0.11988 0.61505 0.25429 0.0
H916 H 0.15591 0.56823 0.25305 0.0
H917 H 0.24428 0.75675 0.23169 0.0
H918 H 0.18669 0.76425 0.23458 0.0
H919 H 0.22415 0.7574 0.24648 0.0
H920 H 0.0547 0.73504 0.2589 0.0
H921 H 0.15849 0.71892 0.28395 0.0
H922 H 0.09603 0.67304 0.23756 0.0
H923 H 0.11931 0.72473 0.23341 0.0
H924 H 0.06418 0.72267 0.23911 0.0
H925 H 0.22622 0.65764 0.27008 0.0
H926 H 0.23308 0.70912 0.27755 0.0
H927 H 0.24586 0.70464 0.26224 0.0
C928 C 0.71772 0.57933 0.51026 0.0
C929 C 0.72568 0.59594 0.52144 0.0
C930 C 0.70574 0.60723 0.50113 0.0
C931 C 0.70303 0.65312 0.50312 0.0
C932 C 0.71539 0.67051 0.51407 0.0
C933 C 0.72579 0.64157 0.5232 0.0
C934 C 0.69215 0.58706 0.48966 0.0
C935 C 0.71504 0.71935 0.51637 0.0
C936 C 0.67846 0.71195 0.47485 0.0
C937 C 0.63234 0.71313 0.4752 0.0
C938 C 0.70275 0.69666 0.48444 0.0
C939 C 0.6802 0.68095 0.49438 0.0
C940 C 0.63394 0.68531 0.49509 0.0
C941 C 0.61071 0.70196 0.48557 0.0
C942 C 0.75222 0.6947 0.48362 0.0
C943 C 0.60838 0.66859 0.50547 0.0
H944 H 0.71779 0.5441 0.5088 0.0
H945 H 0.73266 0.65463 0.53178 0.0
H946 H 0.65647 0.59265 0.48823 0.0
H947 H 0.71001 0.60285 0.48237 0.0
H948 H 0.69849 0.55109 0.48934 0.0
H949 H 0.73681 0.72803 0.52378 0.0
H950 H 0.72568 0.73805 0.50857 0.0
H951 H 0.68116 0.72997 0.51858 0.0
H952 H 0.69551 0.72132 0.46695 0.0
H953 H 0.57512 0.70321 0.486 0.0
H954 H 0.76251 0.66094 0.48118 0.0
H955 H 0.76761 0.70262 0.49212 0.0
H956 H 0.76499 0.71777 0.47694 0.0
H957 H 0.61165 0.63228 0.50603 0.0
H958 H 0.57284 0.67688 0.50494 0.0
H959 H 0.62176 0.68261 0.51363 0.0
C960 C 0.57846 0.24665 0.48743 0.0
C961 C 0.59381 0.24687 0.47592 0.0
C962 C 0.60533 0.2607 0.49658 0.0
C963 C 0.64899 0.27405 0.49421 0.0
C964 C 0.66635 0.26885 0.48287 0.0
C965 C 0.63829 0.25595 0.47378 0.0
C966 C 0.58536 0.26581 0.50854 0.0
C967 C 0.7135 0.28038 0.48015 0.0
C968 C 0.68214 0.37363 0.51169 0.0
C969 C 0.70303 0.35454 0.52131 0.0
C970 C 0.66615 0.34775 0.50258 0.0
C971 C 0.67241 0.3016 0.50289 0.0
C972 C 0.6964 0.28239 0.51215 0.0
C973 C 0.7107 0.30905 0.5214 0.0
C974 C 0.64002 0.36968 0.493 0.0
C975 C 0.70542 0.23362 0.51257 0.0
H976 H 0.5443 0.239 0.48921 0.0
H977 H 0.65067 0.2552 0.46494 0.0
H978 H 0.60708 0.25115 0.51523 0.0
H979 H 0.58182 0.30132 0.51059 0.0
H980 H 0.55244 0.25015 0.50918 0.0
H981 H 0.72457 0.26508 0.47188 0.0
H982 H 0.71673 0.31657 0.47929 0.0
H983 H 0.73562 0.26961 0.48729 0.0
H984 H 0.67602 0.40876 0.51156 0.0
H985 H 0.7273 0.29421 0.52877 0.0
H986 H 0.6058 0.35696 0.49301 0.0
H987 H 0.65455 0.36194 0.4844 0.0
H988 H 0.63879 0.40602 0.49398 0.0
H989 H 0.67694 0.21654 0.51656 0.0
H990 H 0.7349 0.22627 0.51794 0.0
H991 H 0.71042 0.21987 0.50373 0.0
C992 C 0.26443 0.35015 0.52705 0.0
C993 C 0.2548 0.39419 0.52445 0.0
C994 C 0.2776 0.32085 0.51825 0.0
C995 C 0.28246 0.33649 0.50672 0.0
C996 C 0.26944 0.37992 0.50394 0.0
C997 C 0.25511 0.40797 0.51281 0.0
C998 C 0.28919 0.27414 0.52144 0.0
C999 C 0.27463 0.39824 0.4918 0.0
C1000 C 0.37766 0.29812 0.48826 0.0
C1001 C 0.356 0.27695 0.47907 0.0
C1002 C 0.35413 0.31573 0.49762 0.0
C1003 C 0.30784 0.31082 0.49801 0.0
C1004 C 0.28612 0.2864 0.48923 0.0
C1005 C 0.3104 0.27044 0.47971 0.0
C1006 C 0.37861 0.34231 0.50666 0.0
C1007 C 0.2371 0.27883 0.4896 0.0
H1008 H 0.26354 0.33904 0.536 0.0
H1009 H 0.24729 0.44181 0.51067 0.0
H1010 H 0.27818 0.25091 0.51459 0.0
H1011 H 0.3254 0.27099 0.52225 0.0
H1012 H 0.27418 0.26437 0.52986 0.0
H1013 H 0.25994 0.43154 0.4909 0.0
H1014 H 0.31013 0.40041 0.48961 0.0
H1015 H 0.25904 0.37617 0.48533 0.0
H1016 H 0.41289 0.30333 0.48781 0.0
H1017 H 0.29361 0.25358 0.47269 0.0
H1018 H 0.37135 0.32976 0.5155 0.0
H1019 H 0.36753 0.37709 0.50632 0.0
H1020 H 0.41479 0.34151 0.50532 0.0
H1021 H 0.22597 0.27188 0.49861 0.0
H1022 H 0.22715 0.2511 0.48389 0.0
H1023 H 0.21981 0.30886 0.48659 0.0
C1024 C 0.26864 0.67675 0.51685 0.0
C1025 C 0.27534 0.63131 0.51797 0.0
C1026 C 0.2837 0.69945 0.50698 0.0
C1027 C 0.30743 0.67632 0.49832 0.0
C1028 C 0.31224 0.63011 0.49916 0.0
C1029 C 0.29552 0.60814 0.50888 0.0
C1030 C 0.2762 0.7484 0.50613 0.0
C1031 C 0.33807 0.60416 0.49026 0.0
C1032 C 0.34619 0.71513 0.46881 0.0
C1033 C 0.39043 0.72449 0.47122 0.0
C1034 C 0.31702 0.70361 0.47779 0.0
C1035 C 0.33296 0.70025 0.48932 0.0
C1036 C 0.3766 0.71313 0.49189 0.0
C1037 C 0.40457 0.72569 0.48283 0.0
C1038 C 0.27009 0.69212 0.47481 0.0
C1039 C 0.39519 0.70963 0.50405 0.0
H1040 H 0.25249 0.6947 0.5238 0.0
H1041 H 0.30082 0.573 0.50969 0.0
H1042 H 0.3062 0.76604 0.50902 0.0
H1043 H 0.26934 0.75835 0.49703 0.0
H1044 H 0.24842 0.75914 0.51173 0.0
H1045 H 0.33696 0.56818 0.49192 0.0
H1046 H 0.32517 0.61041 0.4814 0.0
H1047 H 0.37298 0.61485 0.49038 0.0
H1048 H 0.3348 0.71493 0.45988 0.0
H1049 H 0.43853 0.73349 0.48482 0.0
H1050 H 0.2472 0.70425 0.48161 0.0
H1051 H 0.26656 0.65585 0.47434 0.0
H1052 H 0.26019 0.70612 0.46628 0.0
H1053 H 0.37352 0.7266 0.51037 0.0
H1054 H 0.4287 0.72397 0.50472 0.0
H1055 H 0.39693 0.6745 0.50664 0.0
C1056 C 0.04251 0.07601 0.30365 0.0
C1057 C 0.04182 0.10539 0.31298 0.0
C1058 C 0.03414 0.03133 0.30538 0.0
C1059 C 0.02459 0.01598 0.31673 0.0
C1060 C 0.02604 0.04531 0.32629 0.0
C1061 C 0.03487 0.09 0.32428 0.0
C1062 C 0.03347 0.00098 0.29497 0.0
C1063 C 0.01611 0.03001 0.33849 0.0
C1064 C 0.95242 0.91591 0.31456 0.0
C1065 C 0.98382 0.88233 0.31491 0.0
C1066 C 0.96474 0.95979 0.31627 0.0
C1067 C 0.00958 0.97001 0.31821 0.0
C1068 C 0.04073 0.9358 0.31953 0.0
C1069 C 0.02737 0.89215 0.31787 0.0
C1070 C 0.93047 0.99538 0.31492 0.0
C1071 C 0.08875 0.9454 0.32166 0.0
H1072 H 0.04841 0.08833 0.29493 0.0
H1073 H 0.03454 0.11317 0.33145 0.0
H1074 H 0.0548 0.97198 0.29655 0.0
H1075 H -0.00046 0.98868 0.29353 0.0
H1076 H 0.04473 0.01762 0.2869 0.0
H1077 H 0.02482 0.05524 0.34509 0.0
H1078 H 0.98047 0.02272 0.33926 0.0
H1079 H 0.03417 -0.00079 0.34048 0.0
H1080 H 0.91878 0.90822 0.31219 0.0
H1081 H 0.05146 0.86587 0.31825 0.0
H1082 H 0.93528 0.01235 0.30647 0.0
H1083 H 0.93386 0.02038 0.32189 0.0
H1084 H 0.89651 0.98191 0.31515 0.0
H1085 H 0.10403 0.95718 0.31347 0.0
H1086 H 0.10687 0.91569 0.32461 0.0
H1087 H 0.09276 0.97174 0.32825 0.0
C1088 C 0.08787 0.96086 0.67271 0.0
C1089 C 0.1028 0.95332 0.68404 0.0
C1090 C 0.04309 0.96874 0.67057 0.0
C1091 C 0.0132 0.96884 0.68002 0.0
C1092 C 0.02808 0.95833 0.69136 0.0
C1093 C 0.07283 0.95068 0.69322 0.0
C1094 C 0.02826 0.97936 0.65837 0.0
C1095 C 0.9972 0.95766 0.70166 0.0
C1096 C 0.91373 0.04185 0.68224 0.0
C1097 C 0.87983 0.01088 0.68166 0.0
C1098 C 0.95754 0.02913 0.68064 0.0
C1099 C 0.96738 0.98431 0.67851 0.0
C1100 C 0.9329 0.95362 0.67696 0.0
C1101 C 0.88931 0.96734 0.67859 0.0
C1102 C 0.99341 0.06291 0.68228 0.0
C1103 C 0.94211 0.9057 0.67457 0.0
H1104 H 0.11142 0.96254 0.66565 0.0
H1105 H 0.08473 0.9441 0.70194 0.0
H1106 H 0.99735 0.96174 0.65625 0.0
H1107 H 0.02144 0.01512 0.65769 0.0
H1108 H 0.05365 0.97065 0.65181 0.0
H1109 H 0.01351 0.94563 0.7097 0.0
H1110 H 0.98459 0.99135 0.70331 0.0
H1111 H 0.96844 0.93633 0.69981 0.0
H1112 H 0.9063 0.07547 0.6847 0.0
H1113 H 0.8628 0.94358 0.67805 0.0
H1114 H 0.0184 0.06012 0.6753 0.0
H1115 H 0.01032 0.05692 0.69069 0.0
H1116 H 0.98027 0.09702 0.68233 0.0
H1117 H 0.96886 0.90197 0.66808 0.0
H1118 H 0.91239 0.88825 0.67136 0.0
H1119 H 0.9531 0.88951 0.68272 0.0
C1120 C 0.98119 0.59325 0.92391 0.0
C1121 C 0.97269 0.60752 0.93525 0.0
C1122 C 0.99066 0.54887 0.92167 0.0
C1123 C 0.99144 0.51866 0.93103 0.0
C1124 C 0.98194 0.53308 0.94247 0.0
C1125 C 0.97261 0.57744 0.94443 0.0
C1126 C 0.00057 0.53446 0.90938 0.0
C1127 C 0.98223 0.50179 0.95269 0.0
C1128 C 0.9796 0.39571 0.92895 0.0
C1129 C 0.0224 0.38236 0.93167 0.0
C1130 C 0.96952 0.44037 0.92765 0.0
C1131 C 0.0032 0.47199 0.92914 0.0
C1132 C 0.04721 0.45826 0.93086 0.0
C1133 C 0.0563 0.41339 0.93214 0.0
C1134 C 0.92226 0.45376 0.92574 0.0
C1135 C 0.08403 0.49103 0.93243 0.0
H1136 H 0.98106 0.61693 0.91686 0.0
H1137 H 0.96549 0.58883 0.95317 0.0
H1138 H 0.03497 0.52248 0.90883 0.0
H1139 H 0.97889 0.50668 0.90688 0.0
H1140 H 0.99615 0.56157 0.90301 0.0
H1141 H 0.9732 0.5183 0.96097 0.0
H1142 H 0.95881 0.47443 0.95114 0.0
H1143 H 0.01542 0.48711 0.95369 0.0
H1144 H 0.95361 0.37136 0.92847 0.0
H1145 H 0.08938 0.40288 0.9343 0.0
H1146 H 0.91999 0.48065 0.91925 0.0
H1147 H 0.90835 0.46629 0.93402 0.0
H1148 H 0.90174 0.42571 0.92276 0.0
H1149 H 0.08194 0.51752 0.92582 0.0
H1150 H 0.11689 0.47521 0.93182 0.0
H1151 H 0.08108 0.50667 0.94112 0.0
C1152 C 0.57756 0.05665 0.06416 0.0
C1153 C 0.61116 0.02744 0.06716 0.0
C1154 C 0.53345 0.04508 0.06579 0.0
C1155 C 0.52313 0.00324 0.07047 0.0
C1156 C 0.55716 0.97519 0.0744 0.0
C1157 C 0.60103 0.98761 0.07263 0.0
C1158 C 0.49803 0.07593 0.06151 0.0
C1159 C 0.5474 0.93059 0.07954 0.0
C1160 C 0.40184 0.98329 0.07593 0.0
C1161 C 0.38945 0.96487 0.06529 0.0
C1162 C 0.44598 0.99406 0.07807 0.0
C1163 C 0.47773 0.98624 0.06931 0.0
C1164 C 0.46531 0.96546 0.05878 0.0
C1165 C 0.42111 0.95512 0.05689 0.0
C1166 C 0.45817 0.01585 0.08941 0.0
C1167 C 0.49824 0.95635 0.04923 0.0
H1168 H 0.5857 0.08724 0.05981 0.0
H1169 H 0.62738 0.96517 0.07491 0.0
H1170 H 0.48312 0.06236 0.05347 0.0
H1171 H 0.47145 0.07911 0.06806 0.0
H1172 H 0.51117 0.1092 0.05954 0.0
H1173 H 0.57642 0.91667 0.08411 0.0
H1174 H 0.51946 0.93246 0.08572 0.0
H1175 H 0.53788 0.90761 0.07248 0.0
H1176 H 0.37681 0.99083 0.08235 0.0
H1177 H 0.41092 0.94091 0.04867 0.0
H1178 H 0.46526 0.05115 0.08785 0.0
H1179 H 0.48838 0.00085 0.09309 0.0
H1180 H 0.43132 0.01347 0.09593 0.0
H1181 H 0.51095 0.9879 0.04573 0.0
H1182 H 0.48366 0.9373 0.04194 0.0
H1183 H 0.52672 0.93776 0.05272 0.0
C1184 C 0.43636 0.42421 0.81474 0.0
C1185 C 0.47049 0.39339 0.8145 0.0
C1186 C 0.44514 0.46865 0.81689 0.0
C1187 C 0.48914 0.48226 0.81866 0.0
C1188 C 0.52322 0.45065 0.81932 0.0
C1189 C 0.51339 0.40637 0.81724 0.0
C1190 C 0.40789 0.50141 0.81621 0.0
C1191 C 0.57052 0.46394 0.82119 0.0
C1192 C 0.51606 0.59202 0.80523 0.0
C1193 C 0.51652 0.61952 0.81496 0.0
C1194 C 0.5081 0.54705 0.80641 0.0
C1195 C 0.50028 0.52942 0.81761 0.0
C1196 C 0.5017 0.55701 0.82753 0.0
C1197 C 0.51007 0.60209 0.82607 0.0
C1198 C 0.50729 0.51861 0.79563 0.0
C1199 C 0.4934 0.53914 0.83957 0.0
H1200 H 0.40319 0.41403 0.81256 0.0
H1201 H 0.53958 0.38215 0.81719 0.0
H1202 H 0.41032 0.52585 0.82334 0.0
H1203 H 0.40994 0.51962 0.80787 0.0
H1204 H 0.37523 0.48512 0.81668 0.0
H1205 H 0.59157 0.43533 0.82347 0.0
H1206 H 0.58354 0.47894 0.8131 0.0
H1207 H 0.57316 0.48892 0.82819 0.0
H1208 H 0.52169 0.60591 0.79667 0.0
H1209 H 0.51076 0.62382 0.83355 0.0
H1210 H 0.47411 0.50406 0.79449 0.0
H1211 H 0.53096 0.49104 0.79653 0.0
H1212 H 0.51565 0.53738 0.78764 0.0
H1213 H 0.45905 0.52706 0.84019 0.0
H1214 H 0.49866 0.56438 0.84642 0.0
H1215 H 0.51531 0.51072 0.84132 0.0
C1216 C 0.57952 0.43626 0.18295 0.0
C1217 C 0.61304 0.46676 0.18095 0.0
C1218 C 0.53549 0.4477 0.18109 0.0
C1219 C 0.52515 0.49079 0.17728 0.0
C1220 C 0.55924 0.52047 0.17438 0.0
C1221 C 0.603 0.50804 0.17628 0.0
C1222 C 0.5 0.41504 0.18421 0.0
C1223 C 0.54948 0.56657 0.17025 0.0
C1224 C 0.40474 0.51306 0.17101 0.0
C1225 C 0.39065 0.52757 0.18192 0.0
C1226 C 0.44913 0.5025 0.16913 0.0
C1227 C 0.47941 0.50687 0.17841 0.0
C1228 C 0.4653 0.52373 0.18928 0.0
C1229 C 0.4209 0.53372 0.1909 0.0
C1230 C 0.46312 0.4847 0.15745 0.0
C1231 C 0.49668 0.52927 0.19936 0.0
H1232 H 0.5875 0.4045 0.18669 0.0
H1233 H 0.62928 0.53143 0.17473 0.0
H1234 H 0.48398 0.42529 0.19245 0.0
H1235 H 0.47423 0.41415 0.17739 0.0
H1236 H 0.51336 0.38132 0.18539 0.0
H1237 H 0.57893 0.58246 0.16637 0.0
H1238 H 0.52258 0.56654 0.16374 0.0
H1239 H 0.53843 0.5868 0.17774 0.0
H1240 H 0.38081 0.50834 0.16413 0.0
H1241 H 0.40943 0.54509 0.19932 0.0
H1242 H 0.4705 0.44909 0.15826 0.0
H1243 H 0.4936 0.50117 0.15443 0.0
H1244 H 0.43715 0.489 0.15075 0.0
H1245 H 0.50899 0.49659 0.20217 0.0
H1246 H 0.48091 0.54555 0.20694 0.0
H1247 H 0.52559 0.54906 0.19668 0.0
C1248 C 0.46852 0.88459 0.42518 0.0
C1249 C 0.51181 0.87285 0.42792 0.0
C1250 C 0.45638 0.92892 0.42429 0.0
C1251 C 0.48851 0.96184 0.42613 0.0
C1252 C 0.53317 0.94987 0.42762 0.0
C1253 C 0.54428 0.90532 0.42858 0.0
C1254 C 0.4085 0.94033 0.4226 0.0
C1255 C 0.56851 0.98405 0.42944 0.0
C1256 C 0.46303 0.08363 0.42324 0.0
C1257 C 0.45659 0.09494 0.43492 0.0
C1258 C 0.47228 0.03996 0.4201 0.0
C1259 C 0.47465 0.00738 0.42887 0.0
C1260 C 0.4661 0.01865 0.44061 0.0
C1261 C 0.45728 0.06243 0.44348 0.0
C1262 C 0.48123 0.02909 0.40752 0.0
C1263 C 0.46768 0.98475 0.45022 0.0
H1264 H 0.44359 0.85919 0.42456 0.0
H1265 H 0.57775 0.89617 0.43075 0.0
H1266 H 0.39393 0.94948 0.43111 0.0
H1267 H 0.40473 0.96893 0.41669 0.0
H1268 H 0.38957 0.91216 0.41902 0.0
H1269 H 0.60202 0.96991 0.42849 0.0
H1270 H 0.56472 0.01152 0.42318 0.0
H1271 H 0.56545 -0.00202 0.43833 0.0
H1272 H 0.46228 0.10916 0.41666 0.0
H1273 H 0.45166 0.07151 0.45249 0.0
H1274 H 0.46279 -0.00072 0.40485 0.0
H1275 H 0.51674 0.02186 0.40638 0.0
H1276 H 0.47225 0.05664 0.40163 0.0
H1277 H 0.44552 0.95685 0.44815 0.0
H1278 H 0.45793 -0.00137 0.45878 0.0
H1279 H 0.50151 0.97136 0.45099 0.0
C1280 C 0.06953 0.56171 0.5629 0.0
C1281 C 0.10243 0.53124 0.56556 0.0
C1282 C 0.02516 0.55106 0.56449 0.0
C1283 C 0.01386 0.50878 0.5687 0.0
C1284 C 0.04722 0.47931 0.57229 0.0
C1285 C 0.09135 0.49095 0.57065 0.0
C1286 C 0.99048 0.58348 0.56063 0.0
C1287 C 0.03643 0.43406 0.57687 0.0
C1288 C 0.8925 0.48811 0.57398 0.0
C1289 C 0.87996 0.47161 0.56313 0.0
C1290 C 0.93658 0.49899 0.57617 0.0
C1291 C 0.96819 0.49289 0.56727 0.0
C1292 C 0.95564 0.47418 0.55649 0.0
C1293 C 0.9115 0.46384 0.55455 0.0
C1294 C 0.94894 0.51872 0.58776 0.0
C1295 C 0.98846 0.46678 0.54681 0.0
H1296 H 0.07833 0.59269 0.55885 0.0
H1297 H 0.11715 0.46757 0.57271 0.0
H1298 H 0.97567 0.57205 0.55234 0.0
H1299 H 0.96369 0.58567 0.56715 0.0
H1300 H 0.00433 0.61687 0.55923 0.0
H1301 H 0.0651 0.41868 0.58126 0.0
H1302 H 0.0085 0.43541 0.58306 0.0
H1303 H 0.02644 0.41261 0.56952 0.0
H1304 H 0.86763 0.49387 0.58057 0.0
H1305 H 0.9013 0.45072 0.5462 0.0
H1306 H 0.95707 0.55401 0.58659 0.0
H1307 H 0.97862 0.50235 0.59133 0.0
H1308 H 0.92184 0.51606 0.5942 0.0
H1309 H 0.00158 0.49886 0.54379 0.0
H1310 H 0.97369 0.4495 0.53925 0.0
H1311 H 0.0167 0.44711 0.55002 0.0
C1312 C 0.00411 0.58764 0.30139 0.0
C1313 C 0.97345 0.61062 0.30818 0.0
C1314 C 0.01336 0.5433 0.3035 0.0
C1315 C 0.99214 0.52147 0.31281 0.0
C1316 C 0.96319 0.54509 0.32017 0.0
C1317 C 0.95373 0.58937 0.31768 0.0
C1318 C 0.04405 0.51923 0.29534 0.0
C1319 C 0.94094 0.52321 0.33037 0.0
C1320 C 0.97953 0.4007 0.30626 0.0
C1321 C 0.01826 0.38341 0.31108 0.0
C1322 C 0.96885 0.44522 0.30752 0.0
C1323 C 0.99719 0.47306 0.31392 0.0
C1324 C 0.034 0.455 0.31976 0.0
C1325 C 0.04434 0.41034 0.3182 0.0
C1326 C 0.92935 0.46313 0.30109 0.0
C1327 C 0.06422 0.48344 0.32695 0.0
H1328 H 0.01955 0.60375 0.29403 0.0
H1329 H 0.93037 0.60707 0.32305 0.0
H1330 H 0.07069 0.50291 0.30031 0.0
H1331 H 0.02565 0.49317 0.29065 0.0
H1332 H 0.05924 0.54148 0.28881 0.0
H1333 H 0.92577 0.54759 0.33635 0.0
H1334 H 0.91472 0.50092 0.32717 0.0
H1335 H 0.96477 0.50291 0.33533 0.0
H1336 H 0.95876 0.38009 0.30087 0.0
H1337 H 0.07397 0.39714 0.32212 0.0
H1338 H 0.94063 0.48398 0.29375 0.0
H1339 H 0.90918 0.48412 0.3069 0.0
H1340 H 0.90817 0.43655 0.29754 0.0
H1341 H 0.08556 0.50308 0.3211 0.0
H1342 H 0.08567 0.46344 0.33272 0.0
H1343 H 0.04507 0.50683 0.33236 0.0
C1344 C 0.40538 0.96849 0.67903 0.0
C1345 C 0.37996 0.98739 0.68792 0.0
C1346 C 0.4496 0.98045 0.6775 0.0
C1347 C 0.46885 0.01148 0.68513 0.0
C1348 C 0.44249 0.03297 0.69354 0.0
C1349 C 0.39828 0.0209 0.69477 0.0
C1350 C 0.47642 0.95765 0.66824 0.0
C1351 C 0.46177 0.06611 0.7019 0.0
C1352 C 0.58681 0.99664 0.69467 0.0
C1353 C 0.60777 0.03236 0.68928 0.0
C1354 C 0.54196 0.98861 0.69299 0.0
C1355 C 0.51739 0.01661 0.68562 0.0
C1356 C 0.53872 0.0512 0.67961 0.0
C1357 C 0.58371 0.05889 0.68158 0.0
C1358 C 0.52045 0.95143 0.69962 0.0
C1359 C 0.51372 0.08115 0.6715 0.0
H1360 H 0.39131 0.94304 0.67358 0.0
H1361 H 0.37885 0.03602 0.70159 0.0
H1362 H 0.49795 0.98147 0.66366 0.0
H1363 H 0.49798 0.93267 0.67236 0.0
H1364 H 0.45525 0.94082 0.66175 0.0
H1365 H 0.43602 0.08318 0.70706 0.0
H1366 H 0.48437 0.0491 0.708 0.0
H1367 H 0.48128 0.09112 0.69715 0.0
H1368 H 0.60505 0.9757 0.70058 0.0
H1369 H 0.59968 0.08635 0.67731 0.0
H1370 H 0.50267 0.92936 0.69355 0.0
H1371 H 0.4959 0.96496 0.7058 0.0
H1372 H 0.54461 0.93151 0.7046 0.0
H1373 H 0.49246 0.06169 0.66558 0.0
H1374 H 0.53608 0.10195 0.66619 0.0
H1375 H 0.49194 0.10306 0.67663 0.0
C1376 C 0.03042 0.08901 0.92635 0.0
C1377 C 0.01247 0.1105 0.93605 0.0
C1378 C 0.01966 0.04504 0.92389 0.0
C1379 C 0.99116 0.02199 0.93148 0.0
C1380 C 0.97072 0.04446 0.94081 0.0
C1381 C 0.98129 0.08853 0.9429 0.0
C1382 C 0.04082 0.02264 0.9136 0.0
C1383 C 0.94033 0.02109 0.94918 0.0
C1384 C 0.94268 0.90822 0.92767 0.0
C1385 C 0.97052 0.88352 0.93489 0.0
C1386 C 0.95109 0.95296 0.92554 0.0
C1387 C 0.98765 0.97334 0.93093 0.0
C1388 C 0.0177 0.94768 0.93743 0.0
C1389 C 0.00899 0.90305 0.93923 0.0
C1390 C 0.91919 0.97896 0.91821 0.0
C1391 C 0.05712 0.96806 0.94335 0.0
H1392 H 0.05378 0.10607 0.92086 0.0
H1393 H 0.96696 0.10493 0.95037 0.0
H1394 H 0.06874 0.00216 0.91664 0.0
H1395 H 0.0171 0.00056 0.90916 0.0
H1396 H 0.05363 0.04685 0.90721 0.0
H1397 H 0.92468 0.04405 0.95546 0.0
H1398 H 0.91405 0.00355 0.94437 0.0
H1399 H 0.95919 0.99612 0.95416 0.0
H1400 H 0.91323 0.89327 0.92412 0.0
H1401 H 0.03118 0.88414 0.94465 0.0
H1402 H 0.93681 0.00308 0.91266 0.0
H1403 H 0.89662 -0.00238 0.92396 0.0
H1404 H 0.89905 0.95718 0.91257 0.0
H1405 H 0.07647 0.98788 0.93709 0.0
H1406 H 0.07915 0.94296 0.94728 0.0
H1407 H 0.0458 0.99055 0.95035 0.0
C1408 C 0.90919 0.04307 0.06621 0.0
C1409 C 0.88419 0.02004 0.05796 0.0
C1410 C 0.95395 0.03346 0.06787 0.0
C1411 C 0.97416 0.00061 0.06097 0.0
C1412 C 0.94853 0.97574 0.05308 0.0
C1413 C 0.90381 0.98551 0.05174 0.0
C1414 C 0.98004 0.05992 0.07657 0.0
C1415 C 0.96888 0.94066 0.04547 0.0
C1416 C 0.09292 0.01133 0.0517 0.0
C1417 C 0.11288 0.97686 0.05787 0.0
C1418 C 0.04812 0.02065 0.05305 0.0
C1419 C 0.02273 0.99541 0.06091 0.0
C1420 C 0.0432 0.96251 0.06774 0.0
C1421 C 0.08805 0.95332 0.06606 0.0
C1422 C 0.02747 0.05575 0.04551 0.0
C1423 C 0.01735 0.93567 0.0764 0.0
H1424 H 0.89414 0.06946 0.07116 0.0
H1425 H 0.88478 0.96736 0.04538 0.0
H1426 H 0.00129 0.03807 0.08187 0.0
H1427 H 0.00189 0.08318 0.07189 0.0
H1428 H 0.95842 0.07914 0.08247 0.0
H1429 H 0.94386 0.92225 0.04038 0.0
H1430 H 0.99232 0.9561 0.0393 0.0
H1431 H 0.98773 0.91692 0.05083 0.0
H1432 H 0.1118 0.02981 0.04537 0.0
H1433 H 0.10334 0.92695 0.07095 0.0
H1434 H 0.00884 0.07946 0.05094 0.0
H1435 H 0.00377 0.04034 0.0394 0.0
H1436 H 0.05227 0.07419 0.04036 0.0
H1437 H 0.99615 0.95729 0.0818 0.0
H1438 H 0.03913 0.9163 0.08223 0.0
H1439 H 0.99546 0.91253 0.07171 0.0
C1440 C 0.52628 0.10721 0.80513 0.0
C1441 C 0.48886 0.12453 0.81062 0.0
C1442 C 0.53904 0.06352 0.80692 0.0
C1443 C 0.51417 0.03673 0.81453 0.0
C1444 C 0.47948 0.0554 0.82109 0.0
C1445 C 0.46692 0.09911 0.81899 0.0
C1446 C 0.57624 0.04493 0.79973 0.0
C1447 C 0.45319 0.0282 0.82958 0.0
C1448 C 0.50035 0.92091 0.80343 0.0
C1449 C 0.53296 0.89804 0.80958 0.0
C1450 C 0.49312 0.9657 0.80529 0.0
C1451 C 0.51858 0.98826 0.81369 0.0
C1452 C 0.55007 0.96506 0.82037 0.0
C1453 C 0.55732 0.92015 0.81814 0.0
C1454 C 0.45949 0.98924 0.79785 0.0
C1455 C 0.57702 0.98783 0.8296 0.0
H1456 H 0.54401 0.12679 0.7988 0.0
H1457 H 0.43855 0.11251 0.82346 0.0
H1458 H 0.59849 0.02471 0.80518 0.0
H1459 H 0.56254 0.0232 0.79287 0.0
H1460 H 0.5959 0.07115 0.79546 0.0
H1461 H 0.43415 0.0492 0.83569 0.0
H1462 H 0.42968 0.00719 0.82473 0.0
H1463 H 0.47502 0.00617 0.83467 0.0
H1464 H 0.48135 0.90419 0.79679 0.0
H1465 H 0.5823 0.90254 0.82299 0.0
H1466 H 0.47597 0.01484 0.79253 0.0
H1467 H 0.43492 0.00602 0.80343 0.0
H1468 H 0.44177 0.96654 0.7919 0.0
H1469 H 0.60314 0.00771 0.82539 0.0
H1470 H 0.593 0.96392 0.83556 0.0
H1471 H 0.5563 0.01058 0.83479 0.0
C1472 C 0.90543 0.51061 0.19342 0.0
C1473 C 0.8849 0.4762 0.18737 0.0
C1474 C 0.94987 0.52042 0.1916 0.0
C1475 C 0.97421 0.49578 0.18337 0.0
C1476 C 0.95281 0.46351 0.17654 0.0
C1477 C 0.90841 0.45373 0.17871 0.0
C1478 C 0.9715 0.5549 0.19915 0.0
C1479 C 0.97738 0.43752 0.16744 0.0
C1480 C 0.08858 0.54179 0.17841 0.0
C1481 C 0.11304 0.51733 0.18649 0.0
C1482 C 0.04371 0.53307 0.1766 0.0
C1483 C 0.02286 0.4998 0.18322 0.0
C1484 C 0.048 0.47339 0.19087 0.0
C1485 C 0.09281 0.4822 0.19232 0.0
C1486 C 0.01821 0.561 0.16811 0.0
C1487 C 0.027 0.43778 0.19817 0.0
H1488 H 0.8875 0.52839 0.20008 0.0
H1489 H 0.89259 0.42752 0.17388 0.0
H1490 H 0.99534 0.53885 0.2051 0.0
H1491 H 0.99012 0.5786 0.19372 0.0
H1492 H 0.94728 0.57345 0.20447 0.0
H1493 H 0.95464 0.42011 0.16144 0.0
H1494 H -0.00084 0.45933 0.16227 0.0
H1495 H -0.00149 0.41265 0.17175 0.0
H1496 H 0.1041 0.56862 0.17375 0.0
H1497 H 0.11142 0.46289 0.19853 0.0
H1498 H -0.00203 0.58521 0.17295 0.0
H1499 H 0.99547 0.54042 0.16288 0.0
H1500 H 0.04031 0.57931 0.16213 0.0
H1501 H 0.00368 0.45287 0.20444 0.0
H1502 H 0.05164 0.41841 0.20314 0.0
H1503 H 0.00792 0.41494 0.1926 0.0
C1504 C 0.48623 0.57953 0.4442 0.0
C1505 C 0.52034 0.59918 0.43783 0.0
C1506 C 0.4773 0.53452 0.44321 0.0
C1507 C 0.50259 0.50849 0.4355 0.0
C1508 C 0.53527 0.52848 0.42851 0.0
C1509 C 0.54404 0.57359 0.42982 0.0
C1510 C 0.44237 0.51446 0.45091 0.0
C1511 C 0.56222 0.50191 0.42001 0.0
C1512 C 0.51137 0.39046 0.44551 0.0
C1513 C 0.47633 0.37072 0.43952 0.0
C1514 C 0.52189 0.43481 0.44377 0.0
C1515 C 0.49728 0.45992 0.43571 0.0
C1516 C 0.46413 0.43939 0.42898 0.0
C1517 C 0.45375 0.39504 0.43104 0.0
C1518 C 0.55729 0.45552 0.4512 0.0
C1519 C 0.43793 0.46486 0.4201 0.0
H1520 H 0.46753 0.59891 0.45038 0.0
H1521 H 0.57019 0.58848 0.42479 0.0
H1522 H 0.41845 0.49561 0.4456 0.0
H1523 H 0.45785 0.49106 0.45708 0.0
H1524 H 0.42412 0.53962 0.45599 0.0
H1525 H 0.58152 0.52319 0.41404 0.0
H1526 H 0.58544 0.48052 0.42485 0.0
H1527 H 0.54069 0.48014 0.41476 0.0
H1528 H 0.52919 0.37194 0.45204 0.0
H1529 H 0.427 0.37989 0.42627 0.0
H1530 H 0.54209 0.47932 0.45732 0.0
H1531 H 0.58086 0.47402 0.44571 0.0
H1532 H 0.57583 0.43074 0.45634 0.0
H1533 H 0.4147 0.48722 0.42462 0.0
H1534 H 0.41869 0.44281 0.41431 0.0
H1535 H 0.45995 0.48552 0.41468 0.0
C1536 C 0.39476 0.48513 0.55367 0.0
C1537 C 0.37533 0.52187 0.55898 0.0
C1538 C 0.43928 0.47536 0.55536 0.0
C1539 C 0.46488 0.50253 0.56271 0.0
C1540 C 0.44468 0.53742 0.56887 0.0
C1541 C 0.40012 0.54698 0.56685 0.0
C1542 C 0.45958 0.43796 0.54856 0.0
C1543 C 0.47067 0.56628 0.57704 0.0
C1544 C 0.57946 0.45725 0.56785 0.0
C1545 C 0.60311 0.47842 0.55898 0.0
C1546 C 0.53489 0.46705 0.56979 0.0
C1547 C 0.51348 0.49796 0.56253 0.0
C1548 C 0.53783 0.52111 0.55402 0.0
C1549 C 0.58239 0.51137 0.55243 0.0
C1550 C 0.51026 0.44266 0.57918 0.0
C1551 C 0.51618 0.55407 0.54601 0.0
H1552 H 0.37585 0.46525 0.54766 0.0
H1553 H 0.38519 0.57503 0.57113 0.0
H1554 H 0.48274 0.4514 0.542 0.0
H1555 H 0.4787 0.41616 0.55441 0.0
H1556 H 0.4345 0.41783 0.54398 0.0
H1557 H 0.44889 0.58618 0.58275 0.0
H1558 H 0.49282 0.54615 0.58256 0.0
H1559 H 0.49155 0.58908 0.57192 0.0
H1560 H 0.59536 0.43212 0.57305 0.0
H1561 H 0.60037 0.52811 0.5456 0.0
H1562 H 0.48924 0.41702 0.57516 0.0
H1563 H 0.48836 0.46532 0.58405 0.0
H1564 H 0.53296 0.42638 0.58541 0.0
H1565 H 0.49194 0.537 0.54038 0.0
H1566 H 0.54031 0.5712 0.54035 0.0
H1567 H 0.49802 0.5791 0.55112 0.0
C1568 C 0.3059 0.23766 0.3954 0.0
C1569 C 0.28645 0.26455 0.40384 0.0
C1570 C 0.2919 0.23924 0.38379 0.0
C1571 C 0.25772 0.26847 0.38061 0.0
C1572 C 0.23809 0.29583 0.38912 0.0
C1573 C 0.25246 0.29321 0.40068 0.0
C1574 C 0.31309 0.20903 0.375 0.0
C1575 C 0.20179 0.32763 0.38601 0.0
C1576 C 0.24664 0.29754 0.34866 0.0
C1577 C 0.21163 0.2705 0.34529 0.0
C1578 C 0.26167 0.29769 0.36019 0.0
C1579 C 0.24165 0.26949 0.36843 0.0
C1580 C 0.2066 0.24171 0.36501 0.0
C1581 C 0.19196 0.24262 0.35346 0.0
C1582 C 0.29891 0.32796 0.36356 0.0
C1583 C 0.18496 0.21063 0.37351 0.0
H1584 H 0.33112 0.2144 0.39792 0.0
H1585 H 0.23738 0.31385 0.40726 0.0
H1586 H 0.288 0.18656 0.37129 0.0
H1587 H 0.32684 0.22848 0.36769 0.0
H1588 H 0.33989 0.18892 0.37885 0.0
H1589 H 0.19107 0.34766 0.39358 0.0
H1590 H 0.21301 0.35011 0.37901 0.0
H1591 H 0.17297 0.30933 0.38261 0.0
H1592 H 0.26192 0.31894 0.34229 0.0
H1593 H 0.16592 0.2206 0.35076 0.0
H1594 H 0.32715 0.30843 0.36682 0.0
H1595 H 0.28831 0.34998 0.37073 0.0
H1596 H 0.31027 0.34851 0.35616 0.0
H1597 H 0.20973 0.18738 0.37704 0.0
H1598 H 0.15796 0.19138 0.36946 0.0
H1599 H 0.17135 0.22933 0.38097 0.0
C1600 C 0.30444 0.7625 0.64612 0.0
C1601 C 0.277 0.79694 0.64967 0.0
C1602 C 0.30439 0.74798 0.63455 0.0
C1603 C 0.27556 0.76793 0.62645 0.0
C1604 C 0.24792 0.80291 0.63 0.0
C1605 C 0.249 0.81703 0.6416 0.0
C1606 C 0.33456 0.7108 0.63104 0.0
C1607 C 0.21622 0.82446 0.62165 0.0
C1608 C 0.29549 0.75235 0.59414 0.0
C1609 C 0.26684 0.71762 0.59165 0.0
C1610 C 0.29907 0.76889 0.60549 0.0
C1611 C 0.27266 0.75068 0.61441 0.0
C1612 C 0.24309 0.71605 0.61185 0.0
C1613 C 0.24057 0.6999 0.60047 0.0
C1614 C 0.33113 0.80564 0.60795 0.0
C1615 C 0.21389 0.69629 0.6211 0.0
H1616 H 0.32597 0.74692 0.6524 0.0
H1617 H 0.22669 0.84264 0.64443 0.0
H1618 H 0.31477 0.68195 0.6283 0.0
H1619 H 0.35494 0.72079 0.62348 0.0
H1620 H 0.35671 0.70055 0.63823 0.0
H1621 H 0.19846 0.85257 0.62566 0.0
H1622 H 0.23402 0.83646 0.61385 0.0
H1623 H 0.19167 0.79999 0.61863 0.0
H1624 H 0.31547 0.76612 0.58723 0.0
H1625 H 0.21746 0.67391 0.59839 0.0
H1626 H 0.35498 0.79513 0.6147 0.0
H1627 H 0.31334 0.83468 0.61141 0.0
H1628 H 0.34964 0.81576 0.60006 0.0
H1629 H 0.23428 0.68258 0.62823 0.0
H1630 H 0.19255 0.66969 0.61763 0.0
H1631 H 0.19266 0.72217 0.62495 0.0
C1632 C 0.77328 0.77362 0.34858 0.0
C1633 C 0.78613 0.73572 0.34258 0.0
C1634 C 0.75826 0.77107 0.36008 0.0
C1635 C 0.75499 0.72944 0.36553 0.0
C1636 C 0.76721 0.69094 0.3594 0.0
C1637 C 0.78308 0.69461 0.34799 0.0
C1638 C 0.74631 0.81292 0.36642 0.0
C1639 C 0.76314 0.64597 0.36486 0.0
C1640 C 0.75151 0.72713 0.39848 0.0
C1641 C 0.70617 0.7251 0.40059 0.0
C1642 C 0.76799 0.72795 0.38709 0.0
C1643 C 0.73832 0.72634 0.37762 0.0
C1644 C 0.69254 0.72383 0.37969 0.0
C1645 C 0.67698 0.72415 0.39116 0.0
C1646 C 0.81699 0.73165 0.3852 0.0
C1647 C 0.65991 0.7218 0.3698 0.0
H1648 H 0.77593 0.80539 0.34436 0.0
H1649 H 0.79253 0.66531 0.34323 0.0
H1650 H 0.71122 0.81207 0.36904 0.0
H1651 H 0.76611 0.81584 0.37449 0.0
H1652 H 0.75189 0.8427 0.36102 0.0
H1653 H 0.77353 0.61929 0.35885 0.0
H1654 H 0.78355 0.64419 0.37284 0.0
H1655 H 0.72854 0.64003 0.3675 0.0
H1656 H 0.77411 0.72858 0.40577 0.0
H1657 H 0.64186 0.72501 0.39268 0.0
H1658 H 0.82449 0.76246 0.38042 0.0
H1659 H 0.82883 0.70392 0.37977 0.0
H1660 H 0.83565 0.73172 0.3935 0.0
H1661 H 0.66067 0.75308 0.36484 0.0
H1662 H 0.62576 0.71616 0.3729 0.0
H1663 H 0.66891 0.69503 0.36368 0.0
C1664 C 0.69919 0.22538 0.65017 0.0
C1665 C 0.74042 0.2154 0.65488 0.0
C1666 C 0.6955 0.24189 0.63883 0.0
C1667 C 0.73392 0.24729 0.63201 0.0
C1668 C 0.77563 0.23693 0.63676 0.0
C1669 C 0.77841 0.22171 0.64823 0.0
C1670 C 0.65064 0.25373 0.63415 0.0
C1671 C 0.81721 0.2412 0.62966 0.0
C1672 C 0.72244 0.2492 0.59919 0.0
C1673 C 0.7277 0.29408 0.59673 0.0
C1674 C 0.72415 0.23351 0.61064 0.0
C1675 C 0.73061 0.26355 0.61988 0.0
C1676 C 0.73554 0.30891 0.6175 0.0
C1677 C 0.735 0.32349 0.60593 0.0
C1678 C 0.71992 0.18471 0.61284 0.0
C1679 C 0.74209 0.34199 0.62714 0.0
H1680 H 0.66995 0.22073 0.65543 0.0
H1681 H 0.81021 0.2136 0.65192 0.0
H1682 H 0.65036 0.2886 0.6313 0.0
H1683 H 0.64298 0.2333 0.62642 0.0
H1684 H 0.62425 0.24894 0.64072 0.0
H1685 H 0.8469 0.23089 0.63459 0.0
H1686 H 0.81468 0.22073 0.62169 0.0
H1687 H 0.82167 0.27576 0.62681 0.0
H1688 H 0.7173 0.22618 0.59212 0.0
H1689 H 0.74157 0.35775 0.60417 0.0
H1690 H 0.69175 0.17819 0.61872 0.0
H1691 H 0.74995 0.17236 0.61725 0.0
H1692 H 0.71507 0.16573 0.60468 0.0
H1693 H 0.71594 0.33827 0.63381 0.0
H1694 H 0.74167 0.37641 0.6239 0.0
H1695 H 0.77403 0.33599 0.63152 0.0
C1696 C 0.25459 0.22815 0.89995 0.0
C1697 C 0.20933 0.22462 0.90204 0.0
C1698 C 0.27122 0.22806 0.88858 0.0
C1699 C 0.24181 0.22399 0.8791 0.0
C1700 C 0.19616 0.21968 0.88116 0.0
C1701 C 0.18039 0.22096 0.8926 0.0
C1702 C 0.32004 0.23372 0.88669 0.0
C1703 C 0.1638 0.215 0.87127 0.0
C1704 C 0.2741 0.27064 0.84979 0.0
C1705 C 0.28868 0.23297 0.84397 0.0
C1706 C 0.25952 0.26826 0.86132 0.0
C1707 C 0.25842 0.22695 0.867 0.0
C1708 C 0.27251 0.18865 0.86107 0.0
C1709 C 0.28797 0.19221 0.84961 0.0
C1710 C 0.24558 0.30996 0.86744 0.0
C1711 C 0.27074 0.14396 0.86677 0.0
H1712 H 0.27697 0.23168 0.90723 0.0
H1713 H 0.14523 0.22059 0.89408 0.0
H1714 H 0.33311 0.20625 0.88136 0.0
H1715 H 0.32624 0.26458 0.8818 0.0
H1716 H 0.3386 0.23501 0.895 0.0
H1717 H 0.13 0.2077 0.87439 0.0
H1718 H 0.16283 0.24588 0.86614 0.0
H1719 H 0.17433 0.18829 0.8653 0.0
H1720 H 0.27499 0.30215 0.84537 0.0
H1721 H 0.29885 0.16308 0.84499 0.0
H1722 H 0.26503 0.31431 0.87553 0.0
H1723 H 0.2105 0.3077 0.87001 0.0
H1724 H 0.24995 0.33959 0.86191 0.0
H1725 H 0.29103 0.14388 0.87478 0.0
H1726 H 0.28265 0.11741 0.86092 0.0
H1727 H 0.23644 0.1364 0.8694 0.0
C1728 C 0.19818 0.74105 0.14881 0.0
C1729 C 0.22685 0.70684 0.15178 0.0
C1730 C 0.19608 0.75678 0.13736 0.0
C1731 C 0.22407 0.73838 0.12881 0.0
C1732 C 0.25339 0.70404 0.13182 0.0
C1733 C 0.25431 0.68856 0.14329 0.0
C1734 C 0.1641 0.79312 0.13443 0.0
C1735 C 0.28434 0.68422 0.12298 0.0
C1736 C 0.19757 0.75188 0.09678 0.0
C1737 C 0.22469 0.78728 0.09378 0.0
C1738 C 0.19632 0.73614 0.10824 0.0
C1739 C 0.22357 0.75578 0.11676 0.0
C1740 C 0.25125 0.79139 0.11372 0.0
C1741 C 0.25139 0.80679 0.10224 0.0
C1742 C 0.16607 0.6984 0.11122 0.0
C1743 C 0.28138 0.81261 0.12253 0.0
H1744 H 0.17709 0.75517 0.15544 0.0
H1745 H 0.27747 0.66306 0.1457 0.0
H1746 H 0.18227 0.8225 0.13133 0.0
H1747 H 0.14209 0.78249 0.12726 0.0
H1748 H 0.14357 0.80278 0.14201 0.0
H1749 H 0.30473 0.65739 0.12671 0.0
H1750 H 0.26543 0.67085 0.11553 0.0
H1751 H 0.30653 0.71004 0.11951 0.0
H1752 H 0.1771 0.73676 0.09018 0.0
H1753 H 0.27346 0.83319 0.09981 0.0
H1754 H 0.14378 0.70799 0.11843 0.0
H1755 H 0.18563 0.66984 0.11427 0.0
H1756 H 0.14583 0.68788 0.10367 0.0
H1757 H 0.26201 0.825 0.13002 0.0
H1758 H 0.30036 0.84042 0.11878 0.0
H1759 H 0.30488 0.78786 0.12595 0.0
C1760 C 0.78507 0.71118 0.89603 0.0
C1761 C 0.7884 0.75081 0.90213 0.0
C1762 C 0.77226 0.71082 0.88432 0.0
C1763 C 0.76126 0.75097 0.8788 0.0
C1764 C 0.76449 0.7911 0.88501 0.0
C1765 C 0.77876 0.79056 0.89659 0.0
C1766 C 0.77048 0.66757 0.87788 0.0
C1767 C 0.75191 0.83439 0.8795 0.0
C1768 C 0.75692 0.75916 0.8459 0.0
C1769 C 0.71182 0.75386 0.84378 0.0
C1770 C 0.77373 0.75741 0.85725 0.0
C1771 C 0.74458 0.7509 0.86669 0.0
C1772 C 0.69919 0.74467 0.86458 0.0
C1773 C 0.68357 0.74515 0.85313 0.0
C1774 C 0.82258 0.76274 0.85916 0.0
C1775 C 0.66699 0.73795 0.87443 0.0
H1776 H 0.79315 0.6806 0.90039 0.0
H1777 H 0.78152 0.82108 0.90143 0.0
H1778 H 0.73614 0.66031 0.87526 0.0
H1779 H 0.79035 0.6696 0.8698 0.0
H1780 H 0.78286 0.63977 0.88322 0.0
H1781 H 0.7563 0.86258 0.88553 0.0
H1782 H 0.77208 0.84028 0.87161 0.0
H1783 H 0.71699 0.83328 0.8767 0.0
H1784 H 0.77906 0.76507 0.83867 0.0
H1785 H 0.64923 0.73822 0.85157 0.0
H1786 H 0.83555 0.73448 0.86421 0.0
H1787 H 0.829 0.79287 0.86432 0.0
H1788 H 0.84105 0.76509 0.85084 0.0
H1789 H 0.67532 0.70758 0.8793 0.0
H1790 H 0.63249 0.73531 0.87133 0.0
H1791 H 0.66916 0.76581 0.88065 0.0
C1792 C 0.80483 0.24114 0.0978 0.0
C1793 C 0.7762 0.20713 0.09468 0.0
C1794 C 0.80691 0.2561 0.10933 0.0
C1795 C 0.77897 0.23708 0.1178 0.0
C1796 C 0.74985 0.20278 0.11463 0.0
C1797 C 0.74884 0.18819 0.10308 0.0
C1798 C 0.83856 0.29252 0.11242 0.0
C1799 C 0.71902 0.18223 0.12338 0.0
C1800 C 0.80411 0.25006 0.14993 0.0
C1801 C 0.77635 0.28497 0.15291 0.0
C1802 C 0.80605 0.23464 0.13844 0.0
C1803 C 0.77886 0.25416 0.12988 0.0
C1804 C 0.75048 0.28926 0.13292 0.0
C1805 C 0.74959 0.30425 0.14443 0.0
C1806 C 0.83688 0.19735 0.13548 0.0
C1807 C 0.72046 0.31038 0.12407 0.0
H1808 H 0.82569 0.25587 0.09122 0.0
H1809 H 0.72563 0.16291 0.10054 0.0
H1810 H 0.82005 0.32176 0.11548 0.0
H1811 H 0.86027 0.28191 0.11965 0.0
H1812 H 0.85939 0.30239 0.10492 0.0
H1813 H 0.69932 0.15504 0.11957 0.0
H1814 H 0.7379 0.16917 0.13088 0.0
H1815 H 0.69616 0.20757 0.12681 0.0
H1816 H 0.82447 0.23505 0.15658 0.0
H1817 H 0.72712 0.33035 0.14689 0.0
H1818 H 0.85931 0.20737 0.12834 0.0
H1819 H 0.81778 0.16864 0.13232 0.0
H1820 H 0.85696 0.18688 0.14306 0.0
H1821 H 0.74 0.32323 0.11667 0.0
H1822 H 0.70097 0.33785 0.12783 0.0
H1823 H 0.69742 0.28547 0.12053 0.0
loop_
_geom_bond_atom_site_label_1
_geom_bond_atom_site_label_2
_geom_bond_distance
_geom_bond_site_symmetry_2
_ccdc_geom_bond_type
Co0 O3 1.970 . S
Co0 N17 1.989 . S
Co0 O25 1.967 . S
Co0 O32 1.920 1_455 S
Co1 O4 1.966 . S
Co1 N10 2.022 . S
Co1 N18 1.993 . S
Co1 O26 1.941 . S
C2 O3 1.258 . S
C2 O4 1.263 . S
O3 Co0 1.970 . S
O3 C2 1.258 . S
O4 Co1 1.966 . S
O4 C2 1.263 . S
C5 O6 1.235 . S
C5 O32 1.289 . S
O6 C5 1.235 . S
C7 C9 1.400 . S
C7 N10 1.351 . S
C7 C12 1.501 . S
C8 C9 1.387 . S
C8 N11 1.341 . S
C9 C7 1.400 . S
C9 C8 1.387 . S
N10 Co1 2.022 . S
N10 C7 1.351 . S
N10 N11 1.365 . S
N11 C8 1.341 . S
N11 N10 1.365 . S
N11 H31 0.862 . S
C12 C7 1.501 . S
C12 H13 0.961 . S
C12 H14 0.961 . S
C12 H15 0.960 . S
H13 C12 0.961 . S
H14 C12 0.961 . S
H15 C12 0.960 . S
C16 N17 1.342 . S
C16 C20 1.401 . S
C16 C21 1.499 1_455 S
N17 Co0 1.989 . S
N17 C16 1.342 . S
N17 N18 1.388 . S
N18 Co1 1.993 . S
N18 N17 1.388 . S
N18 C19 1.346 . S
C19 N18 1.346 . S
C19 C20 1.396 . S
C19 C29 1.510 . S
C20 C16 1.401 . S
C20 C19 1.396 . S
C21 C16 1.499 1_655 S
C21 H22 0.959 . S
C21 H23 0.960 . S
C21 H24 0.961 . S
H22 C21 0.959 . S
H23 C21 0.960 . S
H24 C21 0.961 . S
O25 Co0 1.967 . S
O25 C33 1.258 . S
O26 Co1 1.941 . S
O26 C33 1.266 . S
H27 C29 0.959 . S
H28 C29 0.961 . S
C29 C19 1.510 . S
C29 H27 0.959 . S
C29 H28 0.961 . S
C29 H30 0.960 . S
H30 C29 0.960 . S
H31 N11 0.862 . S
O32 Co0 1.920 1_655 S
O32 C5 1.289 . S
C33 O25 1.258 . S
C33 O26 1.266 . S
Co34 O37 1.970 . S
Co34 N51 1.989 . S
Co34 O59 1.967 . S
Co34 O66 1.920 1_565 S
Co35 O38 1.966 . S
Co35 N44 2.022 . S
Co35 N52 1.993 . S
Co35 O60 1.941 . S
C36 O37 1.258 . S
C36 O38 1.263 . S
O37 Co34 1.970 . S
O37 C36 1.258 . S
O38 Co35 1.966 . S
O38 C36 1.263 . S
C39 O40 1.235 . S
C39 O66 1.289 . S
O40 C39 1.235 . S
C41 C43 1.400 . S
C41 N44 1.351 . S
C41 C46 1.501 . S
C42 C43 1.387 . S
C42 N45 1.341 . S
C43 C41 1.400 . S
C43 C42 1.387 . S
N44 Co35 2.022 . S
N44 C41 1.351 . S
N44 N45 1.365 . S
N45 C42 1.341 . S
N45 N44 1.365 . S
N45 H65 0.862 . S
C46 C41 1.501 . S
C46 H47 0.961 . S
C46 H48 0.961 . S
C46 H49 0.960 . S
H47 C46 0.961 . S
H48 C46 0.961 . S
H49 C46 0.960 . S
C50 N51 1.342 . S
C50 C54 1.401 . S
C50 C55 1.499 1_565 S
N51 Co34 1.989 . S
N51 C50 1.342 . S
N51 N52 1.388 . S
N52 Co35 1.993 . S
N52 N51 1.388 . S
N52 C53 1.346 . S
C53 N52 1.346 . S
C53 C54 1.396 . S
C53 C63 1.510 . S
C54 C50 1.401 . S
C54 C53 1.396 . S
C55 C50 1.499 1_545 S
C55 H56 0.959 . S
C55 H57 0.960 . S
C55 H58 0.961 . S
H56 C55 0.959 . S
H57 C55 0.960 . S
H58 C55 0.961 . S
O59 Co34 1.967 . S
O59 C67 1.258 . S
O60 Co35 1.941 . S
O60 C67 1.266 . S
H61 C63 0.959 . S
H62 C63 0.961 . S
C63 C53 1.510 . S
C63 H61 0.959 . S
C63 H62 0.961 . S
C63 H64 0.960 . S
H64 C63 0.960 . S
H65 N45 0.862 . S
O66 Co34 1.920 1_545 S
O66 C39 1.289 . S
C67 O59 1.258 . S
C67 O60 1.266 . S
Co68 O71 1.970 . S
Co68 N85 1.989 . S
Co68 O93 1.967 . S
Co68 O100 1.920 1_655 S
Co69 O72 1.966 . S
Co69 N78 2.022 . S
Co69 N86 1.993 . S
Co69 O94 1.941 . S
C70 O71 1.258 . S
C70 O72 1.263 . S
O71 Co68 1.970 . S
O71 C70 1.258 . S
O72 Co69 1.966 . S
O72 C70 1.263 . S
C73 O74 1.235 . S
C73 O100 1.289 . S
O74 C73 1.235 . S
C75 C77 1.400 . S
C75 N78 1.351 . S
C75 C80 1.501 . S
C76 C77 1.387 . S
C76 N79 1.341 . S
C77 C75 1.400 . S
C77 C76 1.387 . S
N78 Co69 2.022 . S
N78 C75 1.351 . S
N78 N79 1.365 . S
N79 C76 1.341 . S
N79 N78 1.365 . S
N79 H99 0.862 . S
C80 C75 1.501 . S
C80 H81 0.961 . S
C80 H82 0.961 . S
C80 H83 0.960 . S
H81 C80 0.961 . S
H82 C80 0.961 . S
H83 C80 0.960 . S
C84 N85 1.342 . S
C84 C88 1.401 . S
C84 C89 1.499 1_655 S
N85 Co68 1.989 . S
N85 C84 1.342 . S
N85 N86 1.388 . S
N86 Co69 1.993 . S
N86 N85 1.388 . S
N86 C87 1.346 . S
C87 N86 1.346 . S
C87 C88 1.396 . S
C87 C97 1.510 . S
C88 C84 1.401 . S
C88 C87 1.396 . S
C89 C84 1.499 1_455 S
C89 H90 0.959 . S
C89 H91 0.960 . S
C89 H92 0.961 . S
H90 C89 0.959 . S
H91 C89 0.960 . S
H92 C89 0.961 . S
O93 Co68 1.967 . S
O93 C101 1.258 . S
O94 Co69 1.941 . S
O94 C101 1.266 . S
H95 C97 0.959 . S
H96 C97 0.961 . S
C97 C87 1.510 . S
C97 H95 0.959 . S
C97 H96 0.961 . S
C97 H98 0.960 . S
H98 C97 0.960 . S
H99 N79 0.862 . S
O100 Co68 1.920 1_455 S
O100 C73 1.289 . S
C101 O93 1.258 . S
C101 O94 1.266 . S
Co102 O105 1.970 . S
Co102 N119 1.989 . S
Co102 O127 1.967 . S
Co102 O134 1.920 1_545 S
Co103 O106 1.966 . S
Co103 N112 2.022 . S
Co103 N120 1.993 . S
Co103 O128 1.941 . S
C104 O105 1.258 . S
C104 O106 1.263 . S
O105 Co102 1.970 . S
O105 C104 1.258 . S
O106 Co103 1.966 . S
O106 C104 1.263 . S
C107 O108 1.235 . S
C107 O134 1.289 . S
O108 C107 1.235 . S
C109 C111 1.400 . S
C109 N112 1.351 . S
C109 C114 1.501 . S
C110 C111 1.387 . S
C110 N113 1.341 . S
C111 C109 1.400 . S
C111 C110 1.387 . S
N112 Co103 2.022 . S
N112 C109 1.351 . S
N112 N113 1.365 . S
N113 C110 1.341 . S
N113 N112 1.365 . S
N113 H133 0.862 . S
C114 C109 1.501 . S
C114 H115 0.961 . S
C114 H116 0.961 . S
C114 H117 0.960 . S
H115 C114 0.961 . S
H116 C114 0.961 . S
H117 C114 0.960 . S
C118 N119 1.342 . S
C118 C122 1.401 . S
C118 C123 1.499 1_545 S
N119 Co102 1.989 . S
N119 C118 1.342 . S
N119 N120 1.388 . S
N120 Co103 1.993 . S
N120 N119 1.388 . S
N120 C121 1.346 . S
C121 N120 1.346 . S
C121 C122 1.396 . S
C121 C131 1.510 . S
C122 C118 1.401 . S
C122 C121 1.396 . S
C123 C118 1.499 1_565 S
C123 H124 0.959 . S
C123 H125 0.960 . S
C123 H126 0.961 . S
H124 C123 0.959 . S
H125 C123 0.960 . S
H126 C123 0.961 . S
O127 Co102 1.967 . S
O127 C135 1.258 . S
O128 Co103 1.941 . S
O128 C135 1.266 . S
H129 C131 0.959 . S
H130 C131 0.961 . S
C131 C121 1.510 . S
C131 H129 0.959 . S
C131 H130 0.961 . S
C131 H132 0.960 . S
H132 C131 0.960 . S
H133 N113 0.862 . S
O134 Co102 1.920 1_565 S
O134 C107 1.289 . S
C135 O127 1.258 . S
C135 O128 1.266 . S
Co136 O139 1.970 . S
Co136 N153 1.989 . S
Co136 O161 1.967 . S
Co136 O168 1.920 1_455 S
Co137 O140 1.966 . S
Co137 N146 2.022 . S
Co137 N154 1.993 . S
Co137 O162 1.941 . S
C138 O139 1.258 . S
C138 O140 1.263 . S
O139 Co136 1.970 . S
O139 C138 1.258 . S
O140 Co137 1.966 . S
O140 C138 1.263 . S
C141 O142 1.235 . S
C141 O168 1.289 . S
O142 C141 1.235 . S
C143 C145 1.400 . S
C143 N146 1.351 . S
C143 C148 1.501 . S
C144 C145 1.387 . S
C144 N147 1.341 . S
C145 C143 1.400 . S
C145 C144 1.387 . S
N146 Co137 2.022 . S
N146 C143 1.351 . S
N146 N147 1.365 . S
N147 C144 1.341 . S
N147 N146 1.365 . S
N147 H167 0.862 . S
C148 C143 1.501 . S
C148 H149 0.961 . S
C148 H150 0.961 . S
C148 H151 0.960 . S
H149 C148 0.961 . S
H150 C148 0.961 . S
H151 C148 0.960 . S
C152 N153 1.342 . S
C152 C156 1.401 . S
C152 C157 1.499 1_455 S
N153 Co136 1.989 . S
N153 C152 1.342 . S
N153 N154 1.388 . S
N154 Co137 1.993 . S
N154 N153 1.388 . S
N154 C155 1.346 . S
C155 N154 1.346 . S
C155 C156 1.396 . S
C155 C165 1.510 . S
C156 C152 1.401 . S
C156 C155 1.396 . S
C157 C152 1.499 1_655 S
C157 H158 0.959 . S
C157 H159 0.960 . S
C157 H160 0.961 . S
H158 C157 0.959 . S
H159 C157 0.960 . S
H160 C157 0.961 . S
O161 Co136 1.967 . S
O161 C169 1.258 . S
O162 Co137 1.941 . S
O162 C169 1.266 . S
H163 C165 0.959 . S
H164 C165 0.961 . S
C165 C155 1.510 . S
C165 H163 0.959 . S
C165 H164 0.961 . S
C165 H166 0.960 . S
H166 C165 0.960 . S
H167 N147 0.862 . S
O168 Co136 1.920 1_655 S
O168 C141 1.289 . S
C169 O161 1.258 . S
C169 O162 1.266 . S
Co170 O173 1.970 . S
Co170 N187 1.989 . S
Co170 O195 1.967 . S
Co170 O202 1.920 1_565 S
Co171 O174 1.966 . S
Co171 N180 2.022 . S
Co171 N188 1.993 . S
Co171 O196 1.941 . S
C172 O173 1.258 . S
C172 O174 1.263 . S
O173 Co170 1.970 . S
O173 C172 1.258 . S
O174 Co171 1.966 . S
O174 C172 1.263 . S
C175 O176 1.235 . S
C175 O202 1.289 . S
O176 C175 1.235 . S
C177 C179 1.400 . S
C177 N180 1.351 . S
C177 C182 1.501 . S
C178 C179 1.387 . S
C178 N181 1.341 . S
C179 C177 1.400 . S
C179 C178 1.387 . S
N180 Co171 2.022 . S
N180 C177 1.351 . S
N180 N181 1.365 . S
N181 C178 1.341 . S
N181 N180 1.365 . S
N181 H201 0.862 . S
C182 C177 1.501 . S
C182 H183 0.961 . S
C182 H184 0.961 . S
C182 H185 0.960 . S
H183 C182 0.961 . S
H184 C182 0.961 . S
H185 C182 0.960 . S
C186 N187 1.342 . S
C186 C190 1.401 . S
C186 C191 1.499 1_565 S
N187 Co170 1.989 . S
N187 C186 1.342 . S
N187 N188 1.388 . S
N188 Co171 1.993 . S
N188 N187 1.388 . S
N188 C189 1.346 . S
C189 N188 1.346 . S
C189 C190 1.396 . S
C189 C199 1.510 . S
C190 C186 1.401 . S
C190 C189 1.396 . S
C191 C186 1.499 1_545 S
C191 H192 0.959 . S
C191 H193 0.960 . S
C191 H194 0.961 . S
H192 C191 0.959 . S
H193 C191 0.960 . S
H194 C191 0.961 . S
O195 Co170 1.967 . S
O195 C203 1.258 . S
O196 Co171 1.941 . S
O196 C203 1.266 . S
H197 C199 0.959 . S
H198 C199 0.961 . S
C199 C189 1.510 . S
C199 H197 0.959 . S
C199 H198 0.961 . S
C199 H200 0.960 . S
H200 C199 0.960 . S
H201 N181 0.862 . S
O202 Co170 1.920 1_545 S
O202 C175 1.289 . S
C203 O195 1.258 . S
C203 O196 1.266 . S
Co204 O207 1.970 . S
Co204 N221 1.989 . S
Co204 O229 1.967 . S
Co204 O236 1.920 1_655 S
Co205 O208 1.966 . S
Co205 N214 2.022 . S
Co205 N222 1.993 . S
Co205 O230 1.941 . S
C206 O207 1.258 . S
C206 O208 1.263 . S
O207 Co204 1.970 . S
O207 C206 1.258 . S
O208 Co205 1.966 . S
O208 C206 1.263 . S
C209 O210 1.235 . S
C209 O236 1.289 . S
O210 C209 1.235 . S
C211 C213 1.400 . S
C211 N214 1.351 . S
C211 C216 1.501 . S
C212 C213 1.387 . S
C212 N215 1.341 . S
C213 C211 1.400 . S
C213 C212 1.387 . S
N214 Co205 2.022 . S
N214 C211 1.351 . S
N214 N215 1.365 . S
N215 C212 1.341 . S
N215 N214 1.365 . S
N215 H235 0.862 . S
C216 C211 1.501 . S
C216 H217 0.961 . S
C216 H218 0.961 . S
C216 H219 0.960 . S
H217 C216 0.961 . S
H218 C216 0.961 . S
H219 C216 0.960 . S
C220 N221 1.342 . S
C220 C224 1.401 . S
C220 C225 1.499 1_655 S
N221 Co204 1.989 . S
N221 C220 1.342 . S
N221 N222 1.388 . S
N222 Co205 1.993 . S
N222 N221 1.388 . S
N222 C223 1.346 . S
C223 N222 1.346 . S
C223 C224 1.396 . S
C223 C233 1.510 . S
C224 C220 1.401 . S
C224 C223 1.396 . S
C225 C220 1.499 1_455 S
C225 H226 0.959 . S
C225 H227 0.960 . S
C225 H228 0.961 . S
H226 C225 0.959 . S
H227 C225 0.960 . S
H228 C225 0.961 . S
O229 Co204 1.967 . S
O229 C237 1.258 . S
O230 Co205 1.941 . S
O230 C237 1.266 . S
H231 C233 0.959 . S
H232 C233 0.961 . S
C233 C223 1.510 . S
C233 H231 0.959 . S
C233 H232 0.961 . S
C233 H234 0.960 . S
H234 C233 0.960 . S
H235 N215 0.862 . S
O236 Co204 1.920 1_455 S
O236 C209 1.289 . S
C237 O229 1.258 . S
C237 O230 1.266 . S
Co238 O241 1.970 . S
Co238 N255 1.989 . S
Co238 O263 1.967 . S
Co238 O270 1.920 1_545 S
Co239 O242 1.966 . S
Co239 N248 2.022 . S
Co239 N256 1.993 . S
Co239 O264 1.941 . S
C240 O241 1.258 . S
C240 O242 1.263 . S
O241 Co238 1.970 . S
O241 C240 1.258 . S
O242 Co239 1.966 . S
O242 C240 1.263 . S
C243 O244 1.235 . S
C243 O270 1.289 . S
O244 C243 1.235 . S
C245 C247 1.400 . S
C245 N248 1.351 . S
C245 C250 1.501 . S
C246 C247 1.387 . S
C246 N249 1.341 . S
C247 C245 1.400 . S
C247 C246 1.387 . S
N248 Co239 2.022 . S
N248 C245 1.351 . S
N248 N249 1.365 . S
N249 C246 1.341 . S
N249 N248 1.365 . S
N249 H269 0.862 . S
C250 C245 1.501 . S
C250 H251 0.961 . S
C250 H252 0.961 . S
C250 H253 0.960 . S
H251 C250 0.961 . S
H252 C250 0.961 . S
H253 C250 0.960 . S
C254 N255 1.342 . S
C254 C258 1.401 . S
C254 C259 1.499 1_545 S
N255 Co238 1.989 . S
N255 C254 1.342 . S
N255 N256 1.388 . S
N256 Co239 1.993 . S
N256 N255 1.388 . S
N256 C257 1.346 . S
C257 N256 1.346 . S
C257 C258 1.396 . S
C257 C267 1.510 . S
C258 C254 1.401 . S
C258 C257 1.396 . S
C259 C254 1.499 1_565 S
C259 H260 0.959 . S
C259 H261 0.960 . S
C259 H262 0.961 . S
H260 C259 0.959 . S
H261 C259 0.960 . S
H262 C259 0.961 . S
O263 Co238 1.967 . S
O263 C271 1.258 . S
O264 Co239 1.941 . S
O264 C271 1.266 . S
H265 C267 0.959 . S
H266 C267 0.961 . S
C267 C257 1.510 . S
C267 H265 0.959 . S
C267 H266 0.961 . S
C267 H268 0.960 . S
H268 C267 0.960 . S
H269 N249 0.862 . S
O270 Co238 1.920 1_565 S
O270 C243 1.289 . S
C271 O263 1.258 . S
C271 O264 1.266 . S
Co272 O275 1.970 . S
Co272 N289 1.989 . S
Co272 O297 1.967 . S
Co272 O304 1.920 . S
Co273 O276 1.966 . S
Co273 N282 2.022 . S
Co273 N290 1.993 . S
Co273 O298 1.941 . S
C274 O275 1.258 . S
C274 O276 1.263 . S
O275 Co272 1.970 . S
O275 C274 1.258 . S
O276 Co273 1.966 . S
O276 C274 1.263 . S
C277 O278 1.235 . S
C277 O304 1.289 . S
O278 C277 1.235 . S
C279 C281 1.400 . S
C279 N282 1.351 . S
C279 C284 1.501 . S
C280 C281 1.387 . S
C280 N283 1.341 . S
C281 C279 1.400 . S
C281 C280 1.387 . S
N282 Co273 2.022 . S
N282 C279 1.351 . S
N282 N283 1.365 . S
N283 C280 1.341 . S
N283 N282 1.365 . S
N283 H303 0.862 . S
C284 C279 1.501 . S
C284 H285 0.961 . S
C284 H286 0.961 . S
C284 H287 0.960 . S
H285 C284 0.961 . S
H286 C284 0.961 . S
H287 C284 0.960 . S
C288 N289 1.342 . S
C288 C292 1.401 . S
C288 C293 1.499 . S
N289 Co272 1.989 . S
N289 C288 1.342 . S
N289 N290 1.388 . S
N290 Co273 1.993 . S
N290 N289 1.388 . S
N290 C291 1.346 . S
C291 N290 1.346 . S
C291 C292 1.396 . S
C291 C301 1.510 . S
C292 C288 1.401 . S
C292 C291 1.396 . S
C293 C288 1.499 . S
C293 H294 0.959 . S
C293 H295 0.960 . S
C293 H296 0.961 . S
H294 C293 0.959 . S
H295 C293 0.960 . S
H296 C293 0.961 . S
O297 Co272 1.967 . S
O297 C305 1.258 . S
O298 Co273 1.941 . S
O298 C305 1.266 . S
H299 C301 0.959 . S
H300 C301 0.961 . S
C301 C291 1.510 . S
C301 H299 0.959 . S
C301 H300 0.961 . S
C301 H302 0.960 . S
H302 C301 0.960 . S
H303 N283 0.862 . S
O304 Co272 1.920 . S
O304 C277 1.289 . S
C305 O297 1.258 . S
C305 O298 1.266 . S
Co306 O309 1.970 . S
Co306 N323 1.989 . S
Co306 O331 1.967 . S
Co306 O338 1.920 . S
Co307 O310 1.966 . S
Co307 N316 2.022 . S
Co307 N324 1.993 . S
Co307 O332 1.941 . S
C308 O309 1.258 . S
C308 O310 1.263 . S
O309 Co306 1.970 . S
O309 C308 1.258 . S
O310 Co307 1.966 . S
O310 C308 1.263 . S
C311 O312 1.235 . S
C311 O338 1.289 . S
O312 C311 1.235 . S
C313 C315 1.400 . S
C313 N316 1.351 . S
C313 C318 1.501 . S
C314 C315 1.387 . S
C314 N317 1.341 . S
C315 C313 1.400 . S
C315 C314 1.387 . S
N316 Co307 2.022 . S
N316 C313 1.351 . S
N316 N317 1.365 . S
N317 C314 1.341 . S
N317 N316 1.365 . S
N317 H337 0.862 . S
C318 C313 1.501 . S
C318 H319 0.961 . S
C318 H320 0.961 . S
C318 H321 0.960 . S
H319 C318 0.961 . S
H320 C318 0.961 . S
H321 C318 0.960 . S
C322 N323 1.342 . S
C322 C326 1.401 . S
C322 C327 1.499 . S
N323 Co306 1.989 . S
N323 C322 1.342 . S
N323 N324 1.388 . S
N324 Co307 1.993 . S
N324 N323 1.388 . S
N324 C325 1.346 . S
C325 N324 1.346 . S
C325 C326 1.396 . S
C325 C335 1.510 . S
C326 C322 1.401 . S
C326 C325 1.396 . S
C327 C322 1.499 . S
C327 H328 0.959 . S
C327 H329 0.960 . S
C327 H330 0.961 . S
H328 C327 0.959 . S
H329 C327 0.960 . S
H330 C327 0.961 . S
O331 Co306 1.967 . S
O331 C339 1.258 . S
O332 Co307 1.941 . S
O332 C339 1.266 . S
H333 C335 0.959 . S
H334 C335 0.961 . S
C335 C325 1.510 . S
C335 H333 0.959 . S
C335 H334 0.961 . S
C335 H336 0.960 . S
H336 C335 0.960 . S
H337 N317 0.862 . S
O338 Co306 1.920 . S
O338 C311 1.289 . S
C339 O331 1.258 . S
C339 O332 1.266 . S
Co340 O343 1.970 . S
Co340 N357 1.989 . S
Co340 O365 1.967 . S
Co340 O372 1.920 . S
Co341 O344 1.966 . S
Co341 N350 2.022 . S
Co341 N358 1.993 . S
Co341 O366 1.941 . S
C342 O343 1.258 . S
C342 O344 1.263 . S
O343 Co340 1.970 . S
O343 C342 1.258 . S
O344 Co341 1.966 . S
O344 C342 1.263 . S
C345 O346 1.235 . S
C345 O372 1.289 . S
O346 C345 1.235 . S
C347 C349 1.400 . S
C347 N350 1.351 . S
C347 C352 1.501 . S
C348 C349 1.387 . S
C348 N351 1.341 . S
C349 C347 1.400 . S
C349 C348 1.387 . S
N350 Co341 2.022 . S
N350 C347 1.351 . S
N350 N351 1.365 . S
N351 C348 1.341 . S
N351 N350 1.365 . S
N351 H371 0.862 . S
C352 C347 1.501 . S
C352 H353 0.961 . S
C352 H354 0.961 . S
C352 H355 0.960 . S
H353 C352 0.961 . S
H354 C352 0.961 . S
H355 C352 0.960 . S
C356 N357 1.342 . S
C356 C360 1.401 . S
C356 C361 1.499 . S
N357 Co340 1.989 . S
N357 C356 1.342 . S
N357 N358 1.388 . S
N358 Co341 1.993 . S
N358 N357 1.388 . S
N358 C359 1.346 . S
C359 N358 1.346 . S
C359 C360 1.396 . S
C359 C369 1.510 . S
C360 C356 1.401 . S
C360 C359 1.396 . S
C361 C356 1.499 . S
C361 H362 0.959 . S
C361 H363 0.960 . S
C361 H364 0.961 . S
H362 C361 0.959 . S
H363 C361 0.960 . S
H364 C361 0.961 . S
O365 Co340 1.967 . S
O365 C373 1.258 . S
O366 Co341 1.941 . S
O366 C373 1.266 . S
H367 C369 0.959 . S
H368 C369 0.961 . S
C369 C359 1.510 . S
C369 H367 0.959 . S
C369 H368 0.961 . S
C369 H370 0.960 . S
H370 C369 0.960 . S
H371 N351 0.862 . S
O372 Co340 1.920 . S
O372 C345 1.289 . S
C373 O365 1.258 . S
C373 O366 1.266 . S
Co374 O377 1.970 . S
Co374 N391 1.989 . S
Co374 O399 1.967 . S
Co374 O406 1.920 . S
Co375 O378 1.966 . S
Co375 N384 2.022 . S
Co375 N392 1.993 . S
Co375 O400 1.941 . S
C376 O377 1.258 . S
C376 O378 1.263 . S
O377 Co374 1.970 . S
O377 C376 1.258 . S
O378 Co375 1.966 . S
O378 C376 1.263 . S
C379 O380 1.235 . S
C379 O406 1.289 . S
O380 C379 1.235 . S
C381 C383 1.400 . S
C381 N384 1.351 . S
C381 C386 1.501 . S
C382 C383 1.387 . S
C382 N385 1.341 . S
C383 C381 1.400 . S
C383 C382 1.387 . S
N384 Co375 2.022 . S
N384 C381 1.351 . S
N384 N385 1.365 . S
N385 C382 1.341 . S
N385 N384 1.365 . S
N385 H405 0.862 . S
C386 C381 1.501 . S
C386 H387 0.961 . S
C386 H388 0.961 . S
C386 H389 0.960 . S
H387 C386 0.961 . S
H388 C386 0.961 . S
H389 C386 0.960 . S
C390 N391 1.342 . S
C390 C394 1.401 . S
C390 C395 1.499 . S
N391 Co374 1.989 . S
N391 C390 1.342 . S
N391 N392 1.388 . S
N392 Co375 1.993 . S
N392 N391 1.388 . S
N392 C393 1.346 . S
C393 N392 1.346 . S
C393 C394 1.396 . S
C393 C403 1.510 . S
C394 C390 1.401 . S
C394 C393 1.396 . S
C395 C390 1.499 . S
C395 H396 0.959 . S
C395 H397 0.960 . S
C395 H398 0.961 . S
H396 C395 0.959 . S
H397 C395 0.960 . S
H398 C395 0.961 . S
O399 Co374 1.967 . S
O399 C407 1.258 . S
O400 Co375 1.941 . S
O400 C407 1.266 . S
H401 C403 0.959 . S
H402 C403 0.961 . S
C403 C393 1.510 . S
C403 H401 0.959 . S
C403 H402 0.961 . S
C403 H404 0.960 . S
H404 C403 0.960 . S
H405 N385 0.862 . S
O406 Co374 1.920 . S
O406 C379 1.289 . S
C407 O399 1.258 . S
C407 O400 1.266 . S
Co408 O411 1.970 . S
Co408 N425 1.989 . S
Co408 O433 1.967 . S
Co408 O440 1.920 . S
Co409 O412 1.966 . S
Co409 N418 2.022 . S
Co409 N426 1.993 . S
Co409 O434 1.941 . S
C410 O411 1.258 . S
C410 O412 1.263 . S
O411 Co408 1.970 . S
O411 C410 1.258 . S
O412 Co409 1.966 . S
O412 C410 1.263 . S
C413 O414 1.235 . S
C413 O440 1.289 . S
O414 C413 1.235 . S
C415 C417 1.400 . S
C415 N418 1.351 . S
C415 C420 1.501 . S
C416 C417 1.387 . S
C416 N419 1.341 . S
C417 C415 1.400 . S
C417 C416 1.387 . S
N418 Co409 2.022 . S
N418 C415 1.351 . S
N418 N419 1.365 . S
N419 C416 1.341 . S
N419 N418 1.365 . S
N419 H439 0.862 . S
C420 C415 1.501 . S
C420 H421 0.961 . S
C420 H422 0.961 . S
C420 H423 0.960 . S
H421 C420 0.961 . S
H422 C420 0.961 . S
H423 C420 0.960 . S
C424 N425 1.342 . S
C424 C428 1.401 . S
C424 C429 1.499 . S
N425 Co408 1.989 . S
N425 C424 1.342 . S
N425 N426 1.388 . S
N426 Co409 1.993 . S
N426 N425 1.388 . S
N426 C427 1.346 . S
C427 N426 1.346 . S
C427 C428 1.396 . S
C427 C437 1.510 . S
C428 C424 1.401 . S
C428 C427 1.396 . S
C429 C424 1.499 . S
C429 H430 0.959 . S
C429 H431 0.960 . S
C429 H432 0.961 . S
H430 C429 0.959 . S
H431 C429 0.960 . S
H432 C429 0.961 . S
O433 Co408 1.967 . S
O433 C441 1.258 . S
O434 Co409 1.941 . S
O434 C441 1.266 . S
H435 C437 0.959 . S
H436 C437 0.961 . S
C437 C427 1.510 . S
C437 H435 0.959 . S
C437 H436 0.961 . S
C437 H438 0.960 . S
H438 C437 0.960 . S
H439 N419 0.862 . S
O440 Co408 1.920 . S
O440 C413 1.289 . S
C441 O433 1.258 . S
C441 O434 1.266 . S
Co442 O445 1.970 . S
Co442 N459 1.989 . S
Co442 O467 1.967 . S
Co442 O474 1.920 . S
Co443 O446 1.966 . S
Co443 N452 2.022 . S
Co443 N460 1.993 . S
Co443 O468 1.941 . S
C444 O445 1.258 . S
C444 O446 1.263 . S
O445 Co442 1.970 . S
O445 C444 1.258 . S
O446 Co443 1.966 . S
O446 C444 1.263 . S
C447 O448 1.235 . S
C447 O474 1.289 . S
O448 C447 1.235 . S
C449 C451 1.400 . S
C449 N452 1.351 . S
C449 C454 1.501 . S
C450 C451 1.387 . S
C450 N453 1.341 . S
C451 C449 1.400 . S
C451 C450 1.387 . S
N452 Co443 2.022 . S
N452 C449 1.351 . S
N452 N453 1.365 . S
N453 C450 1.341 . S
N453 N452 1.365 . S
N453 H473 0.862 . S
C454 C449 1.501 . S
C454 H455 0.961 . S
C454 H456 0.961 . S
C454 H457 0.960 . S
H455 C454 0.961 . S
H456 C454 0.961 . S
H457 C454 0.960 . S
C458 N459 1.342 . S
C458 C462 1.401 . S
C458 C463 1.499 . S
N459 Co442 1.989 . S
N459 C458 1.342 . S
N459 N460 1.388 . S
N460 Co443 1.993 . S
N460 N459 1.388 . S
N460 C461 1.346 . S
C461 N460 1.346 . S
C461 C462 1.396 . S
C461 C471 1.510 . S
C462 C458 1.401 . S
C462 C461 1.396 . S
C463 C458 1.499 . S
C463 H464 0.959 . S
C463 H465 0.960 . S
C463 H466 0.961 . S
H464 C463 0.959 . S
H465 C463 0.960 . S
H466 C463 0.961 . S
O467 Co442 1.967 . S
O467 C475 1.258 . S
O468 Co443 1.941 . S
O468 C475 1.266 . S
H469 C471 0.959 . S
H470 C471 0.961 . S
C471 C461 1.510 . S
C471 H469 0.959 . S
C471 H470 0.961 . S
C471 H472 0.960 . S
H472 C471 0.960 . S
H473 N453 0.862 . S
O474 Co442 1.920 . S
O474 C447 1.289 . S
C475 O467 1.258 . S
C475 O468 1.266 . S
Co476 O479 1.970 . S
Co476 N493 1.989 . S
Co476 O501 1.967 . S
Co476 O508 1.920 . S
Co477 O480 1.966 . S
Co477 N486 2.022 . S
Co477 N494 1.993 . S
Co477 O502 1.941 . S
C478 O479 1.258 . S
C478 O480 1.263 . S
O479 Co476 1.970 . S
O479 C478 1.258 . S
O480 Co477 1.966 . S
O480 C478 1.263 . S
C481 O482 1.235 . S
C481 O508 1.289 . S
O482 C481 1.235 . S
C483 C485 1.400 . S
C483 N486 1.351 . S
C483 C488 1.501 . S
C484 C485 1.387 . S
C484 N487 1.341 . S
C485 C483 1.400 . S
C485 C484 1.387 . S
N486 Co477 2.022 . S
N486 C483 1.351 . S
N486 N487 1.365 . S
N487 C484 1.341 . S
N487 N486 1.365 . S
N487 H507 0.862 . S
C488 C483 1.501 . S
C488 H489 0.961 . S
C488 H490 0.961 . S
C488 H491 0.960 . S
H489 C488 0.961 . S
H490 C488 0.961 . S
H491 C488 0.960 . S
C492 N493 1.342 . S
C492 C496 1.401 . S
C492 C497 1.499 . S
N493 Co476 1.989 . S
N493 C492 1.342 . S
N493 N494 1.388 . S
N494 Co477 1.993 . S
N494 N493 1.388 . S
N494 C495 1.346 . S
C495 N494 1.346 . S
C495 C496 1.396 . S
C495 C505 1.510 . S
C496 C492 1.401 . S
C496 C495 1.396 . S
C497 C492 1.499 . S
C497 H498 0.959 . S
C497 H499 0.960 . S
C497 H500 0.961 . S
H498 C497 0.959 . S
H499 C497 0.960 . S
H500 C497 0.961 . S
O501 Co476 1.967 . S
O501 C509 1.258 . S
O502 Co477 1.941 . S
O502 C509 1.266 . S
H503 C505 0.959 . S
H504 C505 0.961 . S
C505 C495 1.510 . S
C505 H503 0.959 . S
C505 H504 0.961 . S
C505 H506 0.960 . S
H506 C505 0.960 . S
H507 N487 0.862 . S
O508 Co476 1.920 . S
O508 C481 1.289 . S
C509 O501 1.258 . S
C509 O502 1.266 . S
Co510 O513 1.970 . S
Co510 N527 1.989 . S
Co510 O535 1.967 . S
Co510 O542 1.920 . S
Co511 O514 1.966 . S
Co511 N520 2.022 . S
Co511 N528 1.993 . S
Co511 O536 1.941 . S
C512 O513 1.258 . S
C512 O514 1.263 . S
O513 Co510 1.970 . S
O513 C512 1.258 . S
O514 Co511 1.966 . S
O514 C512 1.263 . S
C515 O516 1.235 . S
C515 O542 1.289 . S
O516 C515 1.235 . S
C517 C519 1.400 . S
C517 N520 1.351 . S
C517 C522 1.501 . S
C518 C519 1.387 . S
C518 N521 1.341 . S
C519 C517 1.400 . S
C519 C518 1.387 . S
N520 Co511 2.022 . S
N520 C517 1.351 . S
N520 N521 1.365 . S
N521 C518 1.341 . S
N521 N520 1.365 . S
N521 H541 0.862 . S
C522 C517 1.501 . S
C522 H523 0.961 . S
C522 H524 0.961 . S
C522 H525 0.960 . S
H523 C522 0.961 . S
H524 C522 0.961 . S
H525 C522 0.960 . S
C526 N527 1.342 . S
C526 C530 1.401 . S
C526 C531 1.499 . S
N527 Co510 1.989 . S
N527 C526 1.342 . S
N527 N528 1.388 . S
N528 Co511 1.993 . S
N528 N527 1.388 . S
N528 C529 1.346 . S
C529 N528 1.346 . S
C529 C530 1.396 . S
C529 C539 1.510 . S
C530 C526 1.401 . S
C530 C529 1.396 . S
C531 C526 1.499 . S
C531 H532 0.959 . S
C531 H533 0.960 . S
C531 H534 0.961 . S
H532 C531 0.959 . S
H533 C531 0.960 . S
H534 C531 0.961 . S
O535 Co510 1.967 . S
O535 C543 1.258 . S
O536 Co511 1.941 . S
O536 C543 1.266 . S
H537 C539 0.959 . S
H538 C539 0.961 . S
C539 C529 1.510 . S
C539 H537 0.959 . S
C539 H538 0.961 . S
C539 H540 0.960 . S
H540 C539 0.960 . S
H541 N521 0.862 . S
O542 Co510 1.920 . S
O542 C515 1.289 . S
C543 O535 1.258 . S
C543 O536 1.266 . S
C544 C545 1.391 . S
C544 C546 1.394 . S
C544 H560 0.931 . S
C545 C544 1.391 . S
C545 C549 1.376 . S
C546 C544 1.394 . S
C546 C547 1.369 . S
C546 C550 1.531 . S
C547 C546 1.369 . S
C547 C548 1.410 . S
C547 C555 1.503 . S
C548 C547 1.410 . S
C548 C549 1.392 . S
C548 C551 1.511 . S
C549 C545 1.376 . S
C549 C548 1.392 . S
C549 H561 0.929 . S
C550 C546 1.531 . S
C550 H562 0.960 . S
C550 H563 0.962 . S
C550 H564 0.960 . S
C551 C548 1.511 . S
C551 H565 0.961 . S
C551 H566 0.961 . S
C551 H567 0.961 . S
C552 C553 1.370 . S
C552 C554 1.363 . S
C552 H568 0.931 . S
C553 C552 1.370 . S
C553 C557 1.408 . S
C554 C552 1.363 . S
C554 C555 1.370 . S
C554 C558 1.524 . S
C555 C547 1.503 . S
C555 C554 1.370 . S
C555 C556 1.403 . S
C556 C555 1.403 . S
C556 C557 1.404 . S
C556 C559 1.539 . S
C557 C553 1.408 . S
C557 C556 1.404 . S
C557 H569 0.930 . S
C558 C554 1.524 . S
C558 H570 0.956 . S
C558 H571 0.961 . S
C558 H572 0.961 . S
C559 C556 1.539 . S
C559 H573 0.958 . S
C559 H574 0.961 . S
C559 H575 0.960 . S
H560 C544 0.931 . S
H561 C549 0.929 . S
H562 C550 0.960 . S
H563 C550 0.962 . S
H564 C550 0.960 . S
H565 C551 0.961 . S
H566 C551 0.961 . S
H567 C551 0.961 . S
H568 C552 0.931 . S
H569 C557 0.930 . S
H570 C558 0.956 . S
H571 C558 0.961 . S
H572 C558 0.961 . S
H573 C559 0.958 . S
H574 C559 0.961 . S
H575 C559 0.960 . S
C576 C577 1.391 . S
C576 C578 1.394 . S
C576 H592 0.931 . S
C577 C576 1.391 . S
C577 C581 1.376 . S
C578 C576 1.394 . S
C578 C579 1.369 . S
C578 C582 1.531 . S
C579 C578 1.369 . S
C579 C580 1.410 . S
C579 C587 1.503 . S
C580 C579 1.410 . S
C580 C581 1.392 . S
C580 C583 1.511 . S
C581 C577 1.376 . S
C581 C580 1.392 . S
C581 H593 0.929 . S
C582 C578 1.531 . S
C582 H594 0.960 . S
C582 H595 0.962 . S
C582 H596 0.960 . S
C583 C580 1.511 . S
C583 H597 0.961 . S
C583 H598 0.961 . S
C583 H599 0.961 . S
C584 C585 1.370 . S
C584 C586 1.363 . S
C584 H600 0.931 . S
C585 C584 1.370 . S
C585 C589 1.408 . S
C586 C584 1.363 . S
C586 C587 1.370 . S
C586 C590 1.524 . S
C587 C579 1.503 . S
C587 C586 1.370 . S
C587 C588 1.403 . S
C588 C587 1.403 . S
C588 C589 1.404 . S
C588 C591 1.539 . S
C589 C585 1.408 . S
C589 C588 1.404 . S
C589 H601 0.930 . S
C590 C586 1.524 . S
C590 H602 0.956 . S
C590 H603 0.961 . S
C590 H604 0.961 . S
C591 C588 1.539 . S
C591 H605 0.958 . S
C591 H606 0.961 . S
C591 H607 0.960 . S
H592 C576 0.931 . S
H593 C581 0.929 . S
H594 C582 0.960 . S
H595 C582 0.962 . S
H596 C582 0.960 . S
H597 C583 0.961 . S
H598 C583 0.961 . S
H599 C583 0.961 . S
H600 C584 0.931 . S
H601 C589 0.930 . S
H602 C590 0.956 . S
H603 C590 0.961 . S
H604 C590 0.961 . S
H605 C591 0.958 . S
H606 C591 0.961 . S
H607 C591 0.960 . S
C608 C609 1.391 . S
C608 C610 1.394 . S
C608 H624 0.931 . S
C609 C608 1.391 . S
C609 C613 1.376 . S
C610 C608 1.394 . S
C610 C611 1.369 . S
C610 C614 1.531 . S
C611 C610 1.369 . S
C611 C612 1.410 . S
C611 C619 1.503 . S
C612 C611 1.410 . S
C612 C613 1.392 . S
C612 C615 1.511 . S
C613 C609 1.376 . S
C613 C612 1.392 . S
C613 H625 0.929 . S
C614 C610 1.531 . S
C614 H626 0.960 . S
C614 H627 0.962 . S
C614 H628 0.960 . S
C615 C612 1.511 . S
C615 H629 0.961 . S
C615 H630 0.961 . S
C615 H631 0.961 . S
C616 C617 1.370 . S
C616 C618 1.363 . S
C616 H632 0.931 . S
C617 C616 1.370 . S
C617 C621 1.408 . S
C618 C616 1.363 . S
C618 C619 1.370 . S
C618 C622 1.524 . S
C619 C611 1.503 . S
C619 C618 1.370 . S
C619 C620 1.403 . S
C620 C619 1.403 . S
C620 C621 1.404 . S
C620 C623 1.539 . S
C621 C617 1.408 . S
C621 C620 1.404 . S
C621 H633 0.930 . S
C622 C618 1.524 . S
C622 H634 0.956 . S
C622 H635 0.961 . S
C622 H636 0.961 . S
C623 C620 1.539 . S
C623 H637 0.958 . S
C623 H638 0.961 . S
C623 H639 0.960 . S
H624 C608 0.931 . S
H625 C613 0.929 . S
H626 C614 0.960 . S
H627 C614 0.962 . S
H628 C614 0.960 . S
H629 C615 0.961 . S
H630 C615 0.961 . S
H631 C615 0.961 . S
H632 C616 0.931 . S
H633 C621 0.930 . S
H634 C622 0.956 . S
H635 C622 0.961 . S
H636 C622 0.961 . S
H637 C623 0.958 . S
H638 C623 0.961 . S
H639 C623 0.960 . S
C640 C641 1.391 . S
C640 C642 1.394 . S
C640 H656 0.931 . S
C641 C640 1.391 . S
C641 C645 1.376 . S
C642 C640 1.394 . S
C642 C643 1.369 . S
C642 C646 1.531 . S
C643 C642 1.369 . S
C643 C644 1.410 . S
C643 C651 1.503 . S
C644 C643 1.410 . S
C644 C645 1.392 . S
C644 C647 1.511 . S
C645 C641 1.376 . S
C645 C644 1.392 . S
C645 H657 0.929 . S
C646 C642 1.531 . S
C646 H658 0.960 . S
C646 H659 0.962 . S
C646 H660 0.960 . S
C647 C644 1.511 . S
C647 H661 0.961 . S
C647 H662 0.961 . S
C647 H663 0.961 . S
C648 C649 1.370 . S
C648 C650 1.363 . S
C648 H664 0.931 . S
C649 C648 1.370 . S
C649 C653 1.408 . S
C650 C648 1.363 . S
C650 C651 1.370 . S
C650 C654 1.524 . S
C651 C643 1.503 . S
C651 C650 1.370 . S
C651 C652 1.403 . S
C652 C651 1.403 . S
C652 C653 1.404 . S
C652 C655 1.539 . S
C653 C649 1.408 . S
C653 C652 1.404 . S
C653 H665 0.930 . S
C654 C650 1.524 . S
C654 H666 0.956 . S
C654 H667 0.961 . S
C654 H668 0.961 . S
C655 C652 1.539 . S
C655 H669 0.958 . S
C655 H670 0.961 . S
C655 H671 0.960 . S
H656 C640 0.931 . S
H657 C645 0.929 . S
H658 C646 0.960 . S
H659 C646 0.962 . S
H660 C646 0.960 . S
H661 C647 0.961 . S
H662 C647 0.961 . S
H663 C647 0.961 . S
H664 C648 0.931 . S
H665 C653 0.930 . S
H666 C654 0.956 . S
H667 C654 0.961 . S
H668 C654 0.961 . S
H669 C655 0.958 . S
H670 C655 0.961 . S
H671 C655 0.960 . S
C672 C673 1.391 . S
C672 C674 1.394 . S
C672 H688 0.931 . S
C673 C672 1.391 . S
C673 C677 1.376 . S
C674 C672 1.394 . S
C674 C675 1.369 . S
C674 C678 1.531 . S
C675 C674 1.369 . S
C675 C676 1.410 . S
C675 C683 1.503 1_554 S
C676 C675 1.410 . S
C676 C677 1.392 . S
C676 C679 1.511 1_554 S
C677 C673 1.376 . S
C677 C676 1.392 . S
C677 H689 0.929 . S
C678 C674 1.531 . S
C678 H690 0.960 . S
C678 H691 0.962 . S
C678 H692 0.960 . S
C679 C676 1.511 1_556 S
C679 H693 0.961 . S
C679 H694 0.961 . S
C679 H695 0.961 . S
C680 C681 1.370 . S
C680 C682 1.363 . S
C680 H696 0.931 . S
C681 C680 1.370 . S
C681 C685 1.408 . S
C682 C680 1.363 . S
C682 C683 1.370 . S
C682 C686 1.524 . S
C683 C675 1.503 1_556 S
C683 C682 1.370 . S
C683 C684 1.403 . S
C684 C683 1.403 . S
C684 C685 1.404 . S
C684 C687 1.539 . S
C685 C681 1.408 . S
C685 C684 1.404 . S
C685 H697 0.930 . S
C686 C682 1.524 . S
C686 H698 0.956 . S
C686 H699 0.961 . S
C686 H700 0.961 . S
C687 C684 1.539 . S
C687 H701 0.958 1_556 S
C687 H702 0.961 . S
C687 H703 0.938 1_556 S
H688 C672 0.931 . S
H689 C677 0.929 . S
H690 C678 0.960 . S
H691 C678 0.962 . S
H692 C678 0.960 . S
H693 C679 0.961 . S
H694 C679 0.961 . S
H695 C679 0.961 . S
H696 C680 0.931 . S
H697 C685 0.930 . S
H698 C686 0.956 . S
H699 C686 0.961 . S
H700 C686 0.961 . S
H701 C687 0.958 1_554 S
H702 C687 0.961 . S
H703 C687 0.938 1_554 S
C704 C705 1.391 . S
C704 C706 1.394 . S
C704 H720 0.931 . S
C705 C704 1.391 . S
C705 C709 1.376 . S
C706 C704 1.394 . S
C706 C707 1.369 . S
C706 C710 1.531 1_556 S
C707 C706 1.369 . S
C707 C708 1.410 . S
C707 C715 1.503 1_556 S
C708 C707 1.410 . S
C708 C709 1.392 . S
C708 C711 1.511 . S
C709 C705 1.376 . S
C709 C708 1.392 . S
C709 H721 0.929 . S
C710 C706 1.531 1_554 S
C710 H722 0.960 . S
C710 H723 0.962 . S
C710 H724 0.960 1_554 S
C711 C708 1.511 . S
C711 H725 0.961 . S
C711 H726 0.959 1_556 S
C711 H727 0.961 . S
C712 C713 1.370 . S
C712 C714 1.363 . S
C712 H728 0.931 . S
C713 C712 1.370 . S
C713 C717 1.408 . S
C714 C712 1.363 . S
C714 C715 1.370 . S
C714 C718 1.524 . S
C715 C707 1.503 1_554 S
C715 C714 1.370 . S
C715 C716 1.403 . S
C716 C715 1.403 . S
C716 C717 1.404 . S
C716 C719 1.539 1_554 S
C717 C713 1.408 . S
C717 C716 1.404 . S
C717 H729 0.930 . S
C718 C714 1.524 . S
C718 H730 0.956 . S
C718 H731 0.961 . S
C718 H732 0.961 . S
C719 C716 1.539 1_556 S
C719 H733 0.958 . S
C719 H734 0.961 . S
C719 H735 0.960 . S
H720 C704 0.931 . S
H721 C709 0.929 . S
H722 C710 0.960 . S
H723 C710 0.962 . S
H724 C710 0.960 1_556 S
H725 C711 0.961 . S
H726 C711 0.959 1_554 S
H727 C711 0.961 . S
H728 C712 0.931 . S
H729 C717 0.930 . S
H730 C718 0.956 . S
H731 C718 0.961 . S
H732 C718 0.961 . S
H733 C719 0.958 . S
H734 C719 0.961 . S
H735 C719 0.960 . S
C736 C737 1.391 . S
C736 C738 1.394 . S
C736 H752 0.931 . S
C737 C736 1.391 . S
C737 C741 1.376 . S
C738 C736 1.394 . S
C738 C739 1.369 . S
C738 C742 1.531 . S
C739 C738 1.369 . S
C739 C740 1.410 . S
C739 C747 1.471 1_556 S
C740 C739 1.410 . S
C740 C741 1.392 . S
C740 C743 1.511 . S
C741 C737 1.376 . S
C741 C740 1.392 . S
C741 H753 0.929 . S
C742 C738 1.531 . S
C742 H754 0.960 . S
C742 H755 0.962 . S
C742 H756 0.960 . S
C743 C740 1.511 . S
C743 H757 0.961 . S
C743 H758 0.961 . S
C743 H759 0.961 . S
C744 C745 1.370 . S
C744 C746 1.363 . S
C744 H760 0.931 . S
C745 C744 1.370 . S
C745 C749 1.408 . S
C746 C744 1.363 . S
C746 C747 1.405 . S
C746 C750 1.524 . S
C747 C739 1.471 1_554 S
C747 C746 1.405 . S
C747 C748 1.400 1_554 S
C748 C747 1.400 1_556 S
C748 C749 1.382 1_556 S
C748 C751 1.562 . S
C749 C745 1.408 . S
C749 C748 1.382 1_554 S
C749 H761 0.930 . S
C750 C746 1.524 . S
C750 H762 0.956 . S
C750 H763 0.961 . S
C750 H764 0.961 . S
C751 C748 1.562 . S
C751 H765 0.958 . S
C751 H766 0.961 . S
C751 H767 0.960 . S
H752 C736 0.931 . S
H753 C741 0.929 . S
H754 C742 0.960 . S
H755 C742 0.962 . S
H756 C742 0.960 . S
H757 C743 0.961 . S
H758 C743 0.961 . S
H759 C743 0.961 . S
H760 C744 0.931 . S
H761 C749 0.930 . S
H762 C750 0.956 . S
H763 C750 0.961 . S
H764 C750 0.961 . S
H765 C751 0.958 . S
H766 C751 0.961 . S
H767 C751 0.960 . S
C768 C769 1.391 . S
C768 C770 1.394 . S
C768 H784 0.931 . S
C769 C768 1.391 . S
C769 C773 1.376 . S
C770 C768 1.394 . S
C770 C771 1.369 . S
C770 C774 1.531 . S
C771 C770 1.369 . S
C771 C772 1.410 . S
C771 C779 1.503 1_554 S
C772 C771 1.410 . S
C772 C773 1.392 . S
C772 C775 1.511 . S
C773 C769 1.376 . S
C773 C772 1.392 . S
C773 H785 0.929 . S
C774 C770 1.531 . S
C774 H786 0.960 . S
C774 H787 0.962 . S
C774 H788 0.960 . S
C775 C772 1.511 . S
C775 H789 0.961 . S
C775 H790 0.961 1_554 S
C775 H791 0.961 1_554 S
C776 C777 1.370 . S
C776 C778 1.363 . S
C776 H792 0.931 . S
C777 C776 1.370 . S
C777 C781 1.408 . S
C778 C776 1.363 . S
C778 C779 1.370 . S
C778 C782 1.524 1_556 S
C779 C771 1.503 1_556 S
C779 C778 1.370 . S
C779 C780 1.403 . S
C780 C779 1.403 . S
C780 C781 1.404 . S
C780 C783 1.539 . S
C781 C777 1.408 . S
C781 C780 1.404 . S
C781 H793 0.930 . S
C782 C778 1.524 1_554 S
C782 H794 0.956 . S
C782 H795 0.961 . S
C782 H796 0.961 . S
C783 C780 1.539 . S
C783 H797 0.958 . S
C783 H798 0.961 . S
C783 H799 0.960 . S
H784 C768 0.931 . S
H785 C773 0.929 . S
H786 C774 0.960 . S
H787 C774 0.962 . S
H788 C774 0.960 . S
H789 C775 0.961 . S
H790 C775 0.961 1_556 S
H791 C775 0.961 1_556 S
H792 C776 0.931 . S
H793 C781 0.930 . S
H794 C782 0.956 . S
H795 C782 0.961 . S
H796 C782 0.961 . S
H797 C783 0.958 . S
H798 C783 0.961 . S
H799 C783 0.960 . S
C800 C801 1.391 . S
C800 C802 1.394 . S
C800 H816 0.931 . S
C801 C800 1.391 . S
C801 C805 1.376 . S
C802 C800 1.394 . S
C802 C803 1.369 . S
C802 C806 1.531 . S
C803 C802 1.369 . S
C803 C804 1.410 . S
C803 C811 1.503 . S
C804 C803 1.410 . S
C804 C805 1.392 . S
C804 C807 1.511 . S
C805 C801 1.376 . S
C805 C804 1.392 . S
C805 H817 0.929 . S
C806 C802 1.531 . S
C806 H818 0.960 . S
C806 H819 0.962 . S
C806 H820 0.960 . S
C807 C804 1.511 . S
C807 H821 0.961 . S
C807 H822 0.961 . S
C807 H823 0.961 . S
C808 C809 1.370 . S
C808 C810 1.363 . S
C808 H824 0.931 . S
C809 C808 1.370 . S
C809 C813 1.408 . S
C810 C808 1.363 . S
C810 C811 1.370 . S
C810 C814 1.524 . S
C811 C803 1.503 . S
C811 C810 1.370 . S
C811 C812 1.403 . S
C812 C811 1.403 . S
C812 C813 1.404 . S
C812 C815 1.539 . S
C813 C809 1.408 . S
C813 C812 1.404 . S
C813 H825 0.930 . S
C814 C810 1.524 . S
C814 H826 0.956 . S
C814 H827 0.961 . S
C814 H828 0.961 . S
C815 C812 1.539 . S
C815 H829 0.958 . S
C815 H830 0.961 . S
C815 H831 0.960 . S
H816 C800 0.931 . S
H817 C805 0.929 . S
H818 C806 0.960 . S
H819 C806 0.962 . S
H820 C806 0.960 . S
H821 C807 0.961 . S
H822 C807 0.961 . S
H823 C807 0.961 . S
H824 C808 0.931 . S
H825 C813 0.930 . S
H826 C814 0.956 . S
H827 C814 0.961 . S
H828 C814 0.961 . S
H829 C815 0.958 . S
H830 C815 0.961 . S
H831 C815 0.960 . S
C832 C833 1.391 . S
C832 C834 1.394 . S
C832 H848 0.931 . S
C833 C832 1.391 . S
C833 C837 1.376 . S
C834 C832 1.394 . S
C834 C835 1.369 . S
C834 C838 1.531 . S
C835 C834 1.369 . S
C835 C836 1.410 . S
C835 C843 1.503 . S
C836 C835 1.410 . S
C836 C837 1.392 . S
C836 C839 1.511 . S
C837 C833 1.376 . S
C837 C836 1.392 . S
C837 H849 0.929 . S
C838 C834 1.531 . S
C838 H850 0.960 . S
C838 H851 0.962 . S
C838 H852 0.960 . S
C839 C836 1.511 . S
C839 H853 0.961 . S
C839 H854 0.961 . S
C839 H855 0.961 . S
C840 C841 1.370 . S
C840 C842 1.363 . S
C840 H856 0.931 . S
C841 C840 1.370 . S
C841 C845 1.408 . S
C842 C840 1.363 . S
C842 C843 1.370 . S
C842 C846 1.524 . S
C843 C835 1.503 . S
C843 C842 1.370 . S
C843 C844 1.403 . S
C844 C843 1.403 . S
C844 C845 1.404 . S
C844 C847 1.539 . S
C845 C841 1.408 . S
C845 C844 1.404 . S
C845 H857 0.930 . S
C846 C842 1.524 . S
C846 H858 0.956 . S
C846 H859 0.961 . S
C846 H860 0.961 . S
C847 C844 1.539 . S
C847 H861 0.958 . S
C847 H862 0.961 . S
C847 H863 0.960 . S
H848 C832 0.931 . S
H849 C837 0.929 . S
H850 C838 0.960 . S
H851 C838 0.962 . S
H852 C838 0.960 . S
H853 C839 0.961 . S
H854 C839 0.961 . S
H855 C839 0.961 . S
H856 C840 0.931 . S
H857 C845 0.930 . S
H858 C846 0.956 . S
H859 C846 0.961 . S
H860 C846 0.961 . S
H861 C847 0.958 . S
H862 C847 0.961 . S
H863 C847 0.960 . S
C864 C865 1.391 . S
C864 C866 1.394 . S
C864 H880 0.931 . S
C865 C864 1.391 . S
C865 C869 1.376 . S
C866 C864 1.394 . S
C866 C867 1.369 . S
C866 C870 1.531 . S
C867 C866 1.369 . S
C867 C868 1.410 . S
C867 C875 1.503 . S
C868 C867 1.410 . S
C868 C869 1.392 . S
C868 C871 1.511 . S
C869 C865 1.376 . S
C869 C868 1.392 . S
C869 H881 0.929 . S
C870 C866 1.531 . S
C870 H882 0.960 . S
C870 H883 0.962 . S
C870 H884 0.960 . S
C871 C868 1.511 . S
C871 H885 0.961 . S
C871 H886 0.961 . S
C871 H887 0.961 . S
C872 C873 1.370 . S
C872 C874 1.363 . S
C872 H888 0.931 . S
C873 C872 1.370 . S
C873 C877 1.408 . S
C874 C872 1.363 . S
C874 C875 1.370 . S
C874 C878 1.524 . S
C875 C867 1.503 . S
C875 C874 1.370 . S
C875 C876 1.403 . S
C876 C875 1.403 . S
C876 C877 1.404 . S
C876 C879 1.539 . S
C877 C873 1.408 . S
C877 C876 1.404 . S
C877 H889 0.930 . S
C878 C874 1.524 . S
C878 H890 0.956 . S
C878 H891 0.961 . S
C878 H892 0.961 . S
C879 C876 1.539 . S
C879 H893 0.958 . S
C879 H894 0.961 . S
C879 H895 0.960 . S
H880 C864 0.931 . S
H881 C869 0.929 . S
H882 C870 0.960 . S
H883 C870 0.962 . S
H884 C870 0.960 . S
H885 C871 0.961 . S
H886 C871 0.961 . S
H887 C871 0.961 . S
H888 C872 0.931 . S
H889 C877 0.930 . S
H890 C878 0.956 . S
H891 C878 0.961 . S
H892 C878 0.961 . S
H893 C879 0.958 . S
H894 C879 0.961 . S
H895 C879 0.960 . S
C896 C897 1.391 . S
C896 C898 1.394 . S
C896 H912 0.931 . S
C897 C896 1.391 . S
C897 C901 1.376 . S
C898 C896 1.394 . S
C898 C899 1.369 . S
C898 C902 1.531 . S
C899 C898 1.369 . S
C899 C900 1.410 . S
C899 C907 1.503 . S
C900 C899 1.410 . S
C900 C901 1.392 . S
C900 C903 1.511 . S
C901 C897 1.376 . S
C901 C900 1.392 . S
C901 H913 0.929 . S
C902 C898 1.531 . S
C902 H914 0.960 . S
C902 H915 0.962 . S
C902 H916 0.960 . S
C903 C900 1.511 . S
C903 H917 0.961 . S
C903 H918 0.961 . S
C903 H919 0.961 . S
C904 C905 1.370 . S
C904 C906 1.363 . S
C904 H920 0.931 . S
C905 C904 1.370 . S
C905 C909 1.408 . S
C906 C904 1.363 . S
C906 C907 1.370 . S
C906 C910 1.524 . S
C907 C899 1.503 . S
C907 C906 1.370 . S
C907 C908 1.403 . S
C908 C907 1.403 . S
C908 C909 1.404 . S
C908 C911 1.539 . S
C909 C905 1.408 . S
C909 C908 1.404 . S
C909 H921 0.930 . S
C910 C906 1.524 . S
C910 H922 0.956 . S
C910 H923 0.961 . S
C910 H924 0.961 . S
C911 C908 1.539 . S
C911 H925 0.958 . S
C911 H926 0.961 . S
C911 H927 0.960 . S
H912 C896 0.931 . S
H913 C901 0.929 . S
H914 C902 0.960 . S
H915 C902 0.962 . S
H916 C902 0.960 . S
H917 C903 0.961 . S
H918 C903 0.961 . S
H919 C903 0.961 . S
H920 C904 0.931 . S
H921 C909 0.930 . S
H922 C910 0.956 . S
H923 C910 0.961 . S
H924 C910 0.961 . S
H925 C911 0.958 . S
H926 C911 0.961 . S
H927 C911 0.960 . S
C928 C929 1.391 . S
C928 C930 1.394 . S
C928 H944 0.931 . S
C929 C928 1.391 . S
C929 C933 1.376 . S
C930 C928 1.394 . S
C930 C931 1.369 . S
C930 C934 1.531 . S
C931 C930 1.369 . S
C931 C932 1.410 . S
C931 C939 1.503 . S
C932 C931 1.410 . S
C932 C933 1.392 . S
C932 C935 1.511 . S
C933 C929 1.376 . S
C933 C932 1.392 . S
C933 H945 0.929 . S
C934 C930 1.531 . S
C934 H946 0.960 . S
C934 H947 0.962 . S
C934 H948 0.960 . S
C935 C932 1.511 . S
C935 H949 0.961 . S
C935 H950 0.961 . S
C935 H951 0.961 . S
C936 C937 1.370 . S
C936 C938 1.363 . S
C936 H952 0.931 . S
C937 C936 1.370 . S
C937 C941 1.408 . S
C938 C936 1.363 . S
C938 C939 1.370 . S
C938 C942 1.524 . S
C939 C931 1.503 . S
C939 C938 1.370 . S
C939 C940 1.403 . S
C940 C939 1.403 . S
C940 C941 1.404 . S
C940 C943 1.539 . S
C941 C937 1.408 . S
C941 C940 1.404 . S
C941 H953 0.930 . S
C942 C938 1.524 . S
C942 H954 0.956 . S
C942 H955 0.961 . S
C942 H956 0.961 . S
C943 C940 1.539 . S
C943 H957 0.958 . S
C943 H958 0.961 . S
C943 H959 0.960 . S
H944 C928 0.931 . S
H945 C933 0.929 . S
H946 C934 0.960 . S
H947 C934 0.962 . S
H948 C934 0.960 . S
H949 C935 0.961 . S
H950 C935 0.961 . S
H951 C935 0.961 . S
H952 C936 0.931 . S
H953 C941 0.930 . S
H954 C942 0.956 . S
H955 C942 0.961 . S
H956 C942 0.961 . S
H957 C943 0.958 . S
H958 C943 0.961 . S
H959 C943 0.960 . S
C960 C961 1.391 . S
C960 C962 1.394 . S
C960 H976 0.931 . S
C961 C960 1.391 . S
C961 C965 1.376 . S
C962 C960 1.394 . S
C962 C963 1.369 . S
C962 C966 1.531 . S
C963 C962 1.369 . S
C963 C964 1.410 . S
C963 C971 1.503 . S
C964 C963 1.410 . S
C964 C965 1.392 . S
C964 C967 1.511 . S
C965 C961 1.376 . S
C965 C964 1.392 . S
C965 H977 0.929 . S
C966 C962 1.531 . S
C966 H978 0.960 . S
C966 H979 0.962 . S
C966 H980 0.960 . S
C967 C964 1.511 . S
C967 H981 0.961 . S
C967 H982 0.961 . S
C967 H983 0.961 . S
C968 C969 1.370 . S
C968 C970 1.363 . S
C968 H984 0.931 . S
C969 C968 1.370 . S
C969 C973 1.408 . S
C970 C968 1.363 . S
C970 C971 1.370 . S
C970 C974 1.524 . S
C971 C963 1.503 . S
C971 C970 1.370 . S
C971 C972 1.403 . S
C972 C971 1.403 . S
C972 C973 1.404 . S
C972 C975 1.539 . S
C973 C969 1.408 . S
C973 C972 1.404 . S
C973 H985 0.930 . S
C974 C970 1.524 . S
C974 H986 0.956 . S
C974 H987 0.961 . S
C974 H988 0.961 . S
C975 C972 1.539 . S
C975 H989 0.958 . S
C975 H990 0.961 . S
C975 H991 0.960 . S
H976 C960 0.931 . S
H977 C965 0.929 . S
H978 C966 0.960 . S
H979 C966 0.962 . S
H980 C966 0.960 . S
H981 C967 0.961 . S
H982 C967 0.961 . S
H983 C967 0.961 . S
H984 C968 0.931 . S
H985 C973 0.930 . S
H986 C974 0.956 . S
H987 C974 0.961 . S
H988 C974 0.961 . S
H989 C975 0.958 . S
H990 C975 0.961 . S
H991 C975 0.960 . S
C992 C993 1.391 . S
C992 C994 1.394 . S
C992 H1008 0.931 . S
C993 C992 1.391 . S
C993 C997 1.376 . S
C994 C992 1.394 . S
C994 C995 1.369 . S
C994 C998 1.531 . S
C995 C994 1.369 . S
C995 C996 1.410 . S
C995 C1003 1.503 . S
C996 C995 1.410 . S
C996 C997 1.392 . S
C996 C999 1.511 . S
C997 C993 1.376 . S
C997 C996 1.392 . S
C997 H1009 0.929 . S
C998 C994 1.531 . S
C998 H1010 0.960 . S
C998 H1011 0.962 . S
C998 H1012 0.960 . S
C999 C996 1.511 . S
C999 H1013 0.961 . S
C999 H1014 0.961 . S
C999 H1015 0.961 . S
C1000 C1001 1.370 . S
C1000 C1002 1.363 . S
C1000 H1016 0.931 . S
C1001 C1000 1.370 . S
C1001 C1005 1.408 . S
C1002 C1000 1.363 . S
C1002 C1003 1.370 . S
C1002 C1006 1.524 . S
C1003 C995 1.503 . S
C1003 C1002 1.370 . S
C1003 C1004 1.403 . S
C1004 C1003 1.403 . S
C1004 C1005 1.404 . S
C1004 C1007 1.539 . S
C1005 C1001 1.408 . S
C1005 C1004 1.404 . S
C1005 H1017 0.930 . S
C1006 C1002 1.524 . S
C1006 H1018 0.956 . S
C1006 H1019 0.961 . S
C1006 H1020 0.961 . S
C1007 C1004 1.539 . S
C1007 H1021 0.958 . S
C1007 H1022 0.961 . S
C1007 H1023 0.960 . S
H1008 C992 0.931 . S
H1009 C997 0.929 . S
H1010 C998 0.960 . S
H1011 C998 0.962 . S
H1012 C998 0.960 . S
H1013 C999 0.961 . S
H1014 C999 0.961 . S
H1015 C999 0.961 . S
H1016 C1000 0.931 . S
H1017 C1005 0.930 . S
H1018 C1006 0.956 . S
H1019 C1006 0.961 . S
H1020 C1006 0.961 . S
H1021 C1007 0.958 . S
H1022 C1007 0.961 . S
H1023 C1007 0.960 . S
C1024 C1025 1.391 . S
C1024 C1026 1.394 . S
C1024 H1040 0.931 . S
C1025 C1024 1.391 . S
C1025 C1029 1.376 . S
C1026 C1024 1.394 . S
C1026 C1027 1.369 . S
C1026 C1030 1.531 . S
C1027 C1026 1.369 . S
C1027 C1028 1.410 . S
C1027 C1035 1.503 . S
C1028 C1027 1.410 . S
C1028 C1029 1.392 . S
C1028 C1031 1.511 . S
C1029 C1025 1.376 . S
C1029 C1028 1.392 . S
C1029 H1041 0.929 . S
C1030 C1026 1.531 . S
C1030 H1042 0.960 . S
C1030 H1043 0.962 . S
C1030 H1044 0.960 . S
C1031 C1028 1.511 . S
C1031 H1045 0.961 . S
C1031 H1046 0.961 . S
C1031 H1047 0.961 . S
C1032 C1033 1.370 . S
C1032 C1034 1.363 . S
C1032 H1048 0.931 . S
C1033 C1032 1.370 . S
C1033 C1037 1.408 . S
C1034 C1032 1.363 . S
C1034 C1035 1.370 . S
C1034 C1038 1.524 . S
C1035 C1027 1.503 . S
C1035 C1034 1.370 . S
C1035 C1036 1.403 . S
C1036 C1035 1.403 . S
C1036 C1037 1.404 . S
C1036 C1039 1.539 . S
C1037 C1033 1.408 . S
C1037 C1036 1.404 . S
C1037 H1049 0.930 . S
C1038 C1034 1.524 . S
C1038 H1050 0.956 . S
C1038 H1051 0.961 . S
C1038 H1052 0.961 . S
C1039 C1036 1.539 . S
C1039 H1053 0.958 . S
C1039 H1054 0.961 . S
C1039 H1055 0.960 . S
H1040 C1024 0.931 . S
H1041 C1029 0.929 . S
H1042 C1030 0.960 . S
H1043 C1030 0.962 . S
H1044 C1030 0.960 . S
H1045 C1031 0.961 . S
H1046 C1031 0.961 . S
H1047 C1031 0.961 . S
H1048 C1032 0.931 . S
H1049 C1037 0.930 . S
H1050 C1038 0.956 . S
H1051 C1038 0.961 . S
H1052 C1038 0.961 . S
H1053 C1039 0.958 . S
H1054 C1039 0.961 . S
H1055 C1039 0.960 . S
C1056 C1057 1.391 . S
C1056 C1058 1.391 1_455 S
C1056 H1072 0.931 1_455 S
C1057 C1056 1.391 . S
C1057 C1061 1.376 . S
C1058 C1056 1.391 1_655 S
C1058 C1059 1.363 1_655 S
C1058 C1062 1.540 . S
C1059 C1058 1.363 1_455 S
C1059 C1060 1.410 . S
C1059 C1067 1.510 1_545 S
C1060 C1059 1.410 . S
C1060 C1061 1.392 . S
C1060 C1063 1.511 . S
C1061 C1057 1.376 . S
C1061 C1060 1.392 . S
C1061 H1073 0.929 . S
C1062 C1058 1.540 . S
C1062 H1074 0.948 1_545 S
C1062 H1075 0.962 . S
C1062 H1076 0.960 . S
C1063 C1060 1.511 . S
C1063 H1077 0.961 . S
C1063 H1078 0.961 1_545 S
C1063 H1079 0.970 . S
C1064 C1065 1.370 . S
C1064 C1066 1.363 . S
C1064 H1080 0.931 . S
C1065 C1064 1.370 . S
C1065 C1069 1.408 1_655 S
C1066 C1064 1.363 . S
C1066 C1067 1.350 1_655 S
C1066 C1070 1.524 . S
C1067 C1059 1.510 1_565 S
C1067 C1066 1.350 1_455 S
C1067 C1068 1.416 . S
C1068 C1067 1.416 . S
C1068 C1069 1.404 . S
C1068 C1071 1.539 . S
C1069 C1065 1.408 1_455 S
C1069 C1068 1.404 . S
C1069 H1081 0.930 . S
C1070 C1066 1.524 . S
C1070 H1082 0.956 1_565 S
C1070 H1083 0.961 1_565 S
C1070 H1084 0.961 . S
C1071 C1068 1.539 . S
C1071 H1085 0.958 . S
C1071 H1086 0.961 . S
C1071 H1087 0.960 . S
H1072 C1056 0.931 1_655 S
H1073 C1061 0.929 . S
H1074 C1062 0.948 1_565 S
H1075 C1062 0.962 . S
H1076 C1062 0.960 . S
H1077 C1063 0.961 . S
H1078 C1063 0.961 1_565 S
H1079 C1063 0.970 . S
H1080 C1064 0.931 . S
H1081 C1069 0.930 . S
H1082 C1070 0.956 1_545 S
H1083 C1070 0.961 1_545 S
H1084 C1070 0.961 . S
H1085 C1071 0.958 . S
H1086 C1071 0.961 . S
H1087 C1071 0.960 . S
C1088 C1089 1.391 . S
C1088 C1090 1.394 . S
C1088 H1104 0.931 . S
C1089 C1088 1.391 . S
C1089 C1093 1.376 . S
C1090 C1088 1.394 . S
C1090 C1091 1.369 . S
C1090 C1094 1.531 . S
C1091 C1090 1.369 . S
C1091 C1092 1.410 . S
C1091 C1099 1.503 1_455 S
C1092 C1091 1.410 . S
C1092 C1093 1.392 . S
C1092 C1095 1.511 1_565 S
C1093 C1089 1.376 . S
C1093 C1092 1.392 . S
C1093 H1105 0.929 1_565 S
C1094 C1090 1.531 . S
C1094 H1106 0.960 1_455 S
C1094 H1107 0.962 . S
C1094 H1108 0.960 . S
C1095 C1092 1.511 1_545 S
C1095 H1109 0.961 . S
C1095 H1110 0.961 . S
C1095 H1111 0.961 1_545 S
C1096 C1097 1.370 . S
C1096 C1098 1.363 . S
C1096 H1112 0.931 . S
C1097 C1096 1.370 . S
C1097 C1101 1.408 1_545 S
C1098 C1096 1.363 . S
C1098 C1099 1.370 1_545 S
C1098 C1102 1.524 . S
C1099 C1091 1.503 1_655 S
C1099 C1098 1.370 1_565 S
C1099 C1100 1.403 . S
C1100 C1099 1.403 . S
C1100 C1101 1.404 . S
C1100 C1103 1.539 . S
C1101 C1097 1.408 1_565 S
C1101 C1100 1.404 . S
C1101 H1113 0.930 . S
C1102 C1098 1.524 . S
C1102 H1114 0.956 1_655 S
C1102 H1115 0.961 1_655 S
C1102 H1116 0.961 . S
C1103 C1100 1.539 . S
C1103 H1117 0.958 . S
C1103 H1118 0.961 . S
C1103 H1119 0.960 . S
H1104 C1088 0.931 . S
H1105 C1093 0.929 1_545 S
H1106 C1094 0.960 1_655 S
H1107 C1094 0.962 . S
H1108 C1094 0.960 . S
H1109 C1095 0.961 . S
H1110 C1095 0.961 . S
H1111 C1095 0.961 1_565 S
H1112 C1096 0.931 . S
H1113 C1101 0.930 . S
H1114 C1102 0.956 1_455 S
H1115 C1102 0.961 1_455 S
H1116 C1102 0.961 . S
H1117 C1103 0.958 . S
H1118 C1103 0.961 . S
H1119 C1103 0.960 . S
C1120 C1121 1.391 . S
C1120 C1122 1.394 1_655 S
C1120 H1136 0.931 . S
C1121 C1120 1.391 . S
C1121 C1125 1.376 . S
C1122 C1120 1.394 1_455 S
C1122 C1123 1.369 . S
C1122 C1126 1.531 . S
C1123 C1122 1.369 . S
C1123 C1124 1.410 1_455 S
C1123 C1131 1.503 . S
C1124 C1123 1.410 1_655 S
C1124 C1125 1.392 . S
C1124 C1127 1.511 . S
C1125 C1121 1.376 . S
C1125 C1124 1.392 . S
C1125 H1137 0.929 . S
C1126 C1122 1.531 . S
C1126 H1138 0.960 . S
C1126 H1139 0.962 1_455 S
C1126 H1140 0.960 . S
C1127 C1124 1.511 . S
C1127 H1141 0.961 . S
C1127 H1142 0.961 . S
C1127 H1143 0.961 1_655 S
C1128 C1129 1.370 1_655 S
C1128 C1130 1.363 . S
C1128 H1144 0.931 . S
C1129 C1128 1.370 1_455 S
C1129 C1133 1.408 . S
C1130 C1128 1.363 . S
C1130 C1131 1.370 1_655 S
C1130 C1134 1.524 . S
C1131 C1123 1.503 . S
C1131 C1130 1.370 1_455 S
C1131 C1132 1.403 . S
C1132 C1131 1.403 . S
C1132 C1133 1.404 . S
C1132 C1135 1.539 . S
C1133 C1129 1.408 . S
C1133 C1132 1.404 . S
C1133 H1145 0.930 . S
C1134 C1130 1.524 . S
C1134 H1146 0.956 . S
C1134 H1147 0.961 . S
C1134 H1148 0.961 . S
C1135 C1132 1.539 . S
C1135 H1149 0.958 . S
C1135 H1150 0.961 . S
C1135 H1151 0.960 . S
H1136 C1120 0.931 . S
H1137 C1125 0.929 . S
H1138 C1126 0.960 . S
H1139 C1126 0.962 1_655 S
H1140 C1126 0.960 . S
H1141 C1127 0.961 . S
H1142 C1127 0.961 . S
H1143 C1127 0.961 1_455 S
H1144 C1128 0.931 . S
H1145 C1133 0.930 . S
H1146 C1134 0.956 . S
H1147 C1134 0.961 . S
H1148 C1134 0.961 . S
H1149 C1135 0.958 . S
H1150 C1135 0.961 . S
H1151 C1135 0.960 . S
C1152 C1153 1.391 . S
C1152 C1154 1.394 . S
C1152 H1168 0.931 . S
C1153 C1152 1.391 . S
C1153 C1157 1.376 1_545 S
C1154 C1152 1.394 . S
C1154 C1155 1.369 . S
C1154 C1158 1.531 . S
C1155 C1154 1.369 . S
C1155 C1156 1.410 1_545 S
C1155 C1163 1.503 1_545 S
C1156 C1155 1.410 1_565 S
C1156 C1157 1.392 . S
C1156 C1159 1.511 . S
C1157 C1153 1.376 1_565 S
C1157 C1156 1.392 . S
C1157 H1169 0.929 . S
C1158 C1154 1.531 . S
C1158 H1170 0.960 . S
C1158 H1171 0.962 . S
C1158 H1172 0.960 . S
C1159 C1156 1.511 . S
C1159 H1173 0.961 . S
C1159 H1174 0.961 . S
C1159 H1175 0.961 . S
C1160 C1161 1.370 . S
C1160 C1162 1.363 1_565 S
C1160 H1176 0.931 1_565 S
C1161 C1160 1.370 . S
C1161 C1165 1.408 . S
C1162 C1160 1.363 1_545 S
C1162 C1163 1.370 1_545 S
C1162 C1166 1.524 . S
C1163 C1155 1.503 1_565 S
C1163 C1162 1.370 1_565 S
C1163 C1164 1.403 . S
C1164 C1163 1.403 . S
C1164 C1165 1.404 . S
C1164 C1167 1.539 . S
C1165 C1161 1.408 . S
C1165 C1164 1.404 . S
C1165 H1177 0.930 . S
C1166 C1162 1.524 . S
C1166 H1178 0.956 . S
C1166 H1179 0.961 . S
C1166 H1180 0.961 . S
C1167 C1164 1.539 . S
C1167 H1181 0.958 . S
C1167 H1182 0.961 . S
C1167 H1183 0.960 . S
H1168 C1152 0.931 . S
H1169 C1157 0.929 . S
H1170 C1158 0.960 . S
H1171 C1158 0.962 . S
H1172 C1158 0.960 . S
H1173 C1159 0.961 . S
H1174 C1159 0.961 . S
H1175 C1159 0.961 . S
H1176 C1160 0.931 1_545 S
H1177 C1165 0.930 . S
H1178 C1166 0.956 . S
H1179 C1166 0.961 . S
H1180 C1166 0.961 . S
H1181 C1167 0.958 . S
H1182 C1167 0.961 . S
H1183 C1167 0.960 . S
C1184 C1185 1.391 . S
C1184 C1186 1.394 . S
C1184 H1200 0.931 . S
C1185 C1184 1.391 . S
C1185 C1189 1.376 . S
C1186 C1184 1.394 . S
C1186 C1187 1.369 . S
C1186 C1190 1.531 . S
C1187 C1186 1.369 . S
C1187 C1188 1.410 . S
C1187 C1195 1.503 . S
C1188 C1187 1.410 . S
C1188 C1189 1.392 . S
C1188 C1191 1.511 . S
C1189 C1185 1.376 . S
C1189 C1188 1.392 . S
C1189 H1201 0.929 . S
C1190 C1186 1.531 . S
C1190 H1202 0.960 . S
C1190 H1203 0.962 . S
C1190 H1204 0.960 . S
C1191 C1188 1.511 . S
C1191 H1205 0.961 . S
C1191 H1206 0.961 . S
C1191 H1207 0.961 . S
C1192 C1193 1.370 . S
C1192 C1194 1.363 . S
C1192 H1208 0.931 . S
C1193 C1192 1.370 . S
C1193 C1197 1.408 . S
C1194 C1192 1.363 . S
C1194 C1195 1.370 . S
C1194 C1198 1.524 . S
C1195 C1187 1.503 . S
C1195 C1194 1.370 . S
C1195 C1196 1.403 . S
C1196 C1195 1.403 . S
C1196 C1197 1.404 . S
C1196 C1199 1.539 . S
C1197 C1193 1.408 . S
C1197 C1196 1.404 . S
C1197 H1209 0.930 . S
C1198 C1194 1.524 . S
C1198 H1210 0.956 . S
C1198 H1211 0.961 . S
C1198 H1212 0.961 . S
C1199 C1196 1.539 . S
C1199 H1213 0.958 . S
C1199 H1214 0.961 . S
C1199 H1215 0.960 . S
H1200 C1184 0.931 . S
H1201 C1189 0.929 . S
H1202 C1190 0.960 . S
H1203 C1190 0.962 . S
H1204 C1190 0.960 . S
H1205 C1191 0.961 . S
H1206 C1191 0.961 . S
H1207 C1191 0.961 . S
H1208 C1192 0.931 . S
H1209 C1197 0.930 . S
H1210 C1198 0.956 . S
H1211 C1198 0.961 . S
H1212 C1198 0.961 . S
H1213 C1199 0.958 . S
H1214 C1199 0.961 . S
H1215 C1199 0.960 . S
C1216 C1217 1.391 . S
C1216 C1218 1.394 . S
C1216 H1232 0.931 . S
C1217 C1216 1.391 . S
C1217 C1221 1.376 . S
C1218 C1216 1.394 . S
C1218 C1219 1.369 . S
C1218 C1222 1.531 . S
C1219 C1218 1.369 . S
C1219 C1220 1.410 . S
C1219 C1227 1.503 . S
C1220 C1219 1.410 . S
C1220 C1221 1.392 . S
C1220 C1223 1.511 . S
C1221 C1217 1.376 . S
C1221 C1220 1.392 . S
C1221 H1233 0.929 . S
C1222 C1218 1.531 . S
C1222 H1234 0.960 . S
C1222 H1235 0.962 . S
C1222 H1236 0.960 . S
C1223 C1220 1.511 . S
C1223 H1237 0.961 . S
C1223 H1238 0.961 . S
C1223 H1239 0.961 . S
C1224 C1225 1.370 . S
C1224 C1226 1.363 . S
C1224 H1240 0.931 . S
C1225 C1224 1.370 . S
C1225 C1229 1.408 . S
C1226 C1224 1.363 . S
C1226 C1227 1.370 . S
C1226 C1230 1.524 . S
C1227 C1219 1.503 . S
C1227 C1226 1.370 . S
C1227 C1228 1.403 . S
C1228 C1227 1.403 . S
C1228 C1229 1.404 . S
C1228 C1231 1.539 . S
C1229 C1225 1.408 . S
C1229 C1228 1.404 . S
C1229 H1241 0.930 . S
C1230 C1226 1.524 . S
C1230 H1242 0.956 . S
C1230 H1243 0.961 . S
C1230 H1244 0.961 . S
C1231 C1228 1.539 . S
C1231 H1245 0.958 . S
C1231 H1246 0.961 . S
C1231 H1247 0.960 . S
H1232 C1216 0.931 . S
H1233 C1221 0.929 . S
H1234 C1222 0.960 . S
H1235 C1222 0.962 . S
H1236 C1222 0.960 . S
H1237 C1223 0.961 . S
H1238 C1223 0.961 . S
H1239 C1223 0.961 . S
H1240 C1224 0.931 . S
H1241 C1229 0.930 . S
H1242 C1230 0.956 . S
H1243 C1230 0.961 . S
H1244 C1230 0.961 . S
H1245 C1231 0.958 . S
H1246 C1231 0.961 . S
H1247 C1231 0.960 . S
C1248 C1249 1.391 . S
C1248 C1250 1.394 . S
C1248 H1264 0.931 . S
C1249 C1248 1.391 . S
C1249 C1253 1.376 . S
C1250 C1248 1.394 . S
C1250 C1251 1.369 . S
C1250 C1254 1.531 . S
C1251 C1250 1.369 . S
C1251 C1252 1.410 . S
C1251 C1259 1.503 1_565 S
C1252 C1251 1.410 . S
C1252 C1253 1.392 . S
C1252 C1255 1.511 . S
C1253 C1249 1.376 . S
C1253 C1252 1.392 . S
C1253 H1265 0.929 . S
C1254 C1250 1.531 . S
C1254 H1266 0.960 . S
C1254 H1267 0.962 . S
C1254 H1268 0.960 . S
C1255 C1252 1.511 . S
C1255 H1269 0.961 . S
C1255 H1270 0.961 1_565 S
C1255 H1271 0.961 1_565 S
C1256 C1257 1.370 . S
C1256 C1258 1.363 . S
C1256 H1272 0.931 . S
C1257 C1256 1.370 . S
C1257 C1261 1.408 . S
C1258 C1256 1.363 . S
C1258 C1259 1.370 . S
C1258 C1262 1.524 . S
C1259 C1251 1.503 1_545 S
C1259 C1258 1.370 . S
C1259 C1260 1.403 . S
C1260 C1259 1.403 . S
C1260 C1261 1.404 . S
C1260 C1263 1.539 . S
C1261 C1257 1.408 . S
C1261 C1260 1.404 . S
C1261 H1273 0.930 . S
C1262 C1258 1.524 . S
C1262 H1274 0.956 1_545 S
C1262 H1275 0.961 . S
C1262 H1276 0.961 . S
C1263 C1260 1.539 . S
C1263 H1277 0.958 . S
C1263 H1278 0.961 . S
C1263 H1279 0.960 . S
H1264 C1248 0.931 . S
H1265 C1253 0.929 . S
H1266 C1254 0.960 . S
H1267 C1254 0.962 . S
H1268 C1254 0.960 . S
H1269 C1255 0.961 . S
H1270 C1255 0.961 1_545 S
H1271 C1255 0.961 1_545 S
H1272 C1256 0.931 . S
H1273 C1261 0.930 . S
H1274 C1262 0.956 1_565 S
H1275 C1262 0.961 . S
H1276 C1262 0.961 . S
H1277 C1263 0.958 . S
H1278 C1263 0.961 . S
H1279 C1263 0.960 . S
C1280 C1281 1.391 . S
C1280 C1282 1.394 . S
C1280 H1296 0.931 . S
C1281 C1280 1.391 . S
C1281 C1285 1.376 . S
C1282 C1280 1.394 . S
C1282 C1283 1.369 . S
C1282 C1286 1.531 . S
C1283 C1282 1.369 . S
C1283 C1284 1.410 . S
C1283 C1291 1.503 1_455 S
C1284 C1283 1.410 . S
C1284 C1285 1.392 . S
C1284 C1287 1.511 . S
C1285 C1281 1.376 . S
C1285 C1284 1.392 . S
C1285 H1297 0.929 . S
C1286 C1282 1.531 . S
C1286 H1298 0.960 1_455 S
C1286 H1299 0.962 1_455 S
C1286 H1300 0.960 . S
C1287 C1284 1.511 . S
C1287 H1301 0.961 . S
C1287 H1302 0.961 . S
C1287 H1303 0.961 . S
C1288 C1289 1.370 . S
C1288 C1290 1.363 . S
C1288 H1304 0.931 . S
C1289 C1288 1.370 . S
C1289 C1293 1.408 . S
C1290 C1288 1.363 . S
C1290 C1291 1.370 . S
C1290 C1294 1.524 . S
C1291 C1283 1.503 1_655 S
C1291 C1290 1.370 . S
C1291 C1292 1.403 . S
C1292 C1291 1.403 . S
C1292 C1293 1.404 . S
C1292 C1295 1.539 . S
C1293 C1289 1.408 . S
C1293 C1292 1.404 . S
C1293 H1305 0.930 . S
C1294 C1290 1.524 . S
C1294 H1306 0.956 . S
C1294 H1307 0.944 1_655 S
C1294 H1308 0.961 . S
C1295 C1292 1.539 . S
C1295 H1309 0.958 . S
C1295 H1310 0.961 . S
C1295 H1311 0.960 1_655 S
H1296 C1280 0.931 . S
H1297 C1285 0.929 . S
H1298 C1286 0.960 1_655 S
H1299 C1286 0.962 1_655 S
H1300 C1286 0.960 . S
H1301 C1287 0.961 . S
H1302 C1287 0.961 . S
H1303 C1287 0.961 . S
H1304 C1288 0.931 . S
H1305 C1293 0.930 . S
H1306 C1294 0.956 . S
H1307 C1294 0.944 1_455 S
H1308 C1294 0.961 . S
H1309 C1295 0.958 . S
H1310 C1295 0.961 . S
H1311 C1295 0.960 1_455 S
C1312 C1313 1.391 . S
C1312 C1314 1.394 . S
C1312 H1328 0.931 . S
C1313 C1312 1.391 . S
C1313 C1317 1.376 1_655 S
C1314 C1312 1.394 . S
C1314 C1315 1.369 1_655 S
C1314 C1318 1.531 . S
C1315 C1314 1.369 1_455 S
C1315 C1316 1.410 . S
C1315 C1323 1.503 . S
C1316 C1315 1.410 . S
C1316 C1317 1.392 . S
C1316 C1319 1.511 . S
C1317 C1313 1.376 1_455 S
C1317 C1316 1.392 . S
C1317 H1329 0.929 . S
C1318 C1314 1.531 . S
C1318 H1330 0.960 . S
C1318 H1331 0.962 . S
C1318 H1332 0.960 . S
C1319 C1316 1.511 . S
C1319 H1333 0.961 . S
C1319 H1334 0.961 . S
C1319 H1335 0.961 . S
C1320 C1321 1.370 1_655 S
C1320 C1322 1.363 . S
C1320 H1336 0.931 . S
C1321 C1320 1.370 1_455 S
C1321 C1325 1.408 . S
C1322 C1320 1.363 . S
C1322 C1323 1.370 1_655 S
C1322 C1326 1.524 . S
C1323 C1315 1.503 . S
C1323 C1322 1.370 1_455 S
C1323 C1324 1.403 . S
C1324 C1323 1.403 . S
C1324 C1325 1.404 . S
C1324 C1327 1.539 . S
C1325 C1321 1.408 . S
C1325 C1324 1.404 . S
C1325 H1337 0.930 . S
C1326 C1322 1.524 . S
C1326 H1338 0.956 . S
C1326 H1339 0.961 . S
C1326 H1340 0.961 . S
C1327 C1324 1.539 . S
C1327 H1341 0.958 . S
C1327 H1342 0.961 . S
C1327 H1343 0.960 . S
H1328 C1312 0.931 . S
H1329 C1317 0.929 . S
H1330 C1318 0.960 . S
H1331 C1318 0.962 . S
H1332 C1318 0.960 . S
H1333 C1319 0.961 . S
H1334 C1319 0.961 . S
H1335 C1319 0.961 . S
H1336 C1320 0.931 . S
H1337 C1325 0.930 . S
H1338 C1326 0.956 . S
H1339 C1326 0.961 . S
H1340 C1326 0.961 . S
H1341 C1327 0.958 . S
H1342 C1327 0.961 . S
H1343 C1327 0.960 . S
C1344 C1345 1.391 1_545 S
C1344 C1346 1.394 . S
C1344 H1360 0.931 . S
C1345 C1344 1.391 1_565 S
C1345 C1349 1.376 . S
C1346 C1344 1.394 . S
C1346 C1347 1.369 . S
C1346 C1350 1.531 . S
C1347 C1346 1.369 . S
C1347 C1348 1.410 1_545 S
C1347 C1355 1.503 . S
C1348 C1347 1.410 1_565 S
C1348 C1349 1.392 . S
C1348 C1351 1.511 . S
C1349 C1345 1.376 . S
C1349 C1348 1.392 . S
C1349 H1361 0.929 . S
C1350 C1346 1.531 . S
C1350 H1362 0.960 . S
C1350 H1363 0.962 . S
C1350 H1364 0.960 . S
C1351 C1348 1.511 . S
C1351 H1365 0.961 . S
C1351 H1366 0.961 . S
C1351 H1367 0.961 . S
C1352 C1353 1.370 1_565 S
C1352 C1354 1.363 . S
C1352 H1368 0.931 . S
C1353 C1352 1.370 1_545 S
C1353 C1357 1.408 . S
C1354 C1352 1.363 . S
C1354 C1355 1.370 1_565 S
C1354 C1358 1.524 . S
C1355 C1347 1.503 . S
C1355 C1354 1.370 1_545 S
C1355 C1356 1.403 . S
C1356 C1355 1.403 . S
C1356 C1357 1.404 . S
C1356 C1359 1.539 . S
C1357 C1353 1.408 . S
C1357 C1356 1.404 . S
C1357 H1369 0.930 . S
C1358 C1354 1.524 . S
C1358 H1370 0.956 . S
C1358 H1371 0.961 . S
C1358 H1372 0.961 . S
C1359 C1356 1.539 . S
C1359 H1373 0.958 . S
C1359 H1374 0.961 . S
C1359 H1375 0.960 . S
H1360 C1344 0.931 . S
H1361 C1349 0.929 . S
H1362 C1350 0.960 . S
H1363 C1350 0.962 . S
H1364 C1350 0.960 . S
H1365 C1351 0.961 . S
H1366 C1351 0.961 . S
H1367 C1351 0.961 . S
H1368 C1352 0.931 . S
H1369 C1357 0.930 . S
H1370 C1358 0.956 . S
H1371 C1358 0.961 . S
H1372 C1358 0.961 . S
H1373 C1359 0.958 . S
H1374 C1359 0.961 . S
H1375 C1359 0.960 . S
C1376 C1377 1.391 . S
C1376 C1378 1.394 . S
C1376 H1392 0.931 . S
C1377 C1376 1.391 . S
C1377 C1381 1.376 . S
C1378 C1376 1.394 . S
C1378 C1379 1.369 . S
C1378 C1382 1.531 1_455 S
C1379 C1378 1.369 . S
C1379 C1380 1.410 . S
C1379 C1387 1.503 1_545 S
C1380 C1379 1.410 . S
C1380 C1381 1.392 . S
C1380 C1383 1.511 . S
C1381 C1377 1.376 . S
C1381 C1380 1.392 . S
C1381 H1393 0.929 . S
C1382 C1378 1.531 1_655 S
C1382 H1394 0.960 1_645 S
C1382 H1395 0.962 . S
C1382 H1396 0.960 1_655 S
C1383 C1380 1.511 . S
C1383 H1397 0.961 . S
C1383 H1398 0.961 1_545 S
C1383 H1399 0.961 . S
C1384 C1385 1.370 . S
C1384 C1386 1.363 . S
C1384 H1400 0.931 . S
C1385 C1384 1.370 . S
C1385 C1389 1.408 1_655 S
C1386 C1384 1.363 . S
C1386 C1387 1.370 1_655 S
C1386 C1390 1.524 . S
C1387 C1379 1.503 1_565 S
C1387 C1386 1.370 1_455 S
C1387 C1388 1.403 . S
C1388 C1387 1.403 . S
C1388 C1389 1.404 . S
C1388 C1391 1.539 . S
C1389 C1385 1.408 1_455 S
C1389 C1388 1.404 . S
C1389 H1401 0.930 . S
C1390 C1386 1.524 . S
C1390 H1402 0.956 1_565 S
C1390 H1403 0.961 1_565 S
C1390 H1404 0.961 . S
C1391 C1388 1.539 . S
C1391 H1405 0.958 . S
C1391 H1406 0.961 . S
C1391 H1407 0.960 . S
H1392 C1376 0.931 . S
H1393 C1381 0.929 . S
H1394 C1382 0.960 1_465 S
H1395 C1382 0.962 . S
H1396 C1382 0.960 1_455 S
H1397 C1383 0.961 . S
H1398 C1383 0.961 1_565 S
H1399 C1383 0.961 . S
H1400 C1384 0.931 . S
H1401 C1389 0.930 . S
H1402 C1390 0.956 1_545 S
H1403 C1390 0.961 1_545 S
H1404 C1390 0.961 . S
H1405 C1391 0.958 . S
H1406 C1391 0.961 . S
H1407 C1391 0.960 . S
C1408 C1409 1.391 . S
C1408 C1410 1.394 . S
C1408 H1424 0.931 . S
C1409 C1408 1.391 . S
C1409 C1413 1.376 1_545 S
C1410 C1408 1.394 . S
C1410 C1411 1.369 1_545 S
C1410 C1414 1.531 . S
C1411 C1410 1.369 1_565 S
C1411 C1412 1.410 . S
C1411 C1419 1.503 1_655 S
C1412 C1411 1.410 . S
C1412 C1413 1.392 . S
C1412 C1415 1.511 . S
C1413 C1409 1.376 1_565 S
C1413 C1412 1.392 . S
C1413 H1425 0.929 . S
C1414 C1410 1.531 . S
C1414 H1426 0.960 1_655 S
C1414 H1427 0.962 . S
C1414 H1428 0.960 . S
C1415 C1412 1.511 . S
C1415 H1429 0.961 . S
C1415 H1430 0.961 . S
C1415 H1431 0.961 . S
C1416 C1417 1.370 1_545 S
C1416 C1418 1.363 . S
C1416 H1432 0.931 . S
C1417 C1416 1.370 1_565 S
C1417 C1421 1.408 . S
C1418 C1416 1.363 . S
C1418 C1419 1.370 1_545 S
C1418 C1422 1.524 . S
C1419 C1411 1.503 1_455 S
C1419 C1418 1.370 1_565 S
C1419 C1420 1.403 . S
C1420 C1419 1.403 . S
C1420 C1421 1.404 . S
C1420 C1423 1.539 . S
C1421 C1417 1.408 . S
C1421 C1420 1.404 . S
C1421 H1433 0.930 . S
C1422 C1418 1.524 . S
C1422 H1434 0.956 . S
C1422 H1435 0.961 . S
C1422 H1436 0.961 . S
C1423 C1420 1.539 . S
C1423 H1437 0.958 . S
C1423 H1438 0.961 . S
C1423 H1439 0.960 1_455 S
H1424 C1408 0.931 . S
H1425 C1413 0.929 . S
H1426 C1414 0.960 1_455 S
H1427 C1414 0.962 . S
H1428 C1414 0.960 . S
H1429 C1415 0.961 . S
H1430 C1415 0.961 . S
H1431 C1415 0.961 . S
H1432 C1416 0.931 . S
H1433 C1421 0.930 . S
H1434 C1422 0.956 . S
H1435 C1422 0.961 . S
H1436 C1422 0.961 . S
H1437 C1423 0.958 . S
H1438 C1423 0.961 . S
H1439 C1423 0.960 1_655 S
C1440 C1441 1.391 . S
C1440 C1442 1.394 . S
C1440 H1456 0.931 . S
C1441 C1440 1.391 . S
C1441 C1445 1.376 . S
C1442 C1440 1.394 . S
C1442 C1443 1.369 . S
C1442 C1446 1.531 . S
C1443 C1442 1.369 . S
C1443 C1444 1.410 . S
C1443 C1451 1.503 1_545 S
C1444 C1443 1.410 . S
C1444 C1445 1.392 . S
C1444 C1447 1.511 . S
C1445 C1441 1.376 . S
C1445 C1444 1.392 . S
C1445 H1457 0.929 . S
C1446 C1442 1.531 . S
C1446 H1458 0.960 . S
C1446 H1459 0.962 . S
C1446 H1460 0.960 . S
C1447 C1444 1.511 . S
C1447 H1461 0.961 . S
C1447 H1462 0.961 1_545 S
C1447 H1463 0.961 . S
C1448 C1449 1.370 . S
C1448 C1450 1.363 . S
C1448 H1464 0.931 . S
C1449 C1448 1.370 . S
C1449 C1453 1.408 . S
C1450 C1448 1.363 . S
C1450 C1451 1.370 . S
C1450 C1454 1.524 . S
C1451 C1443 1.503 1_565 S
C1451 C1450 1.370 . S
C1451 C1452 1.403 . S
C1452 C1451 1.403 . S
C1452 C1453 1.404 . S
C1452 C1455 1.539 . S
C1453 C1449 1.408 . S
C1453 C1452 1.404 . S
C1453 H1465 0.930 . S
C1454 C1450 1.524 . S
C1454 H1466 0.956 1_565 S
C1454 H1467 0.961 1_565 S
C1454 H1468 0.961 . S
C1455 C1452 1.539 . S
C1455 H1469 0.958 . S
C1455 H1470 0.961 . S
C1455 H1471 0.960 . S
H1456 C1440 0.931 . S
H1457 C1445 0.929 . S
H1458 C1446 0.960 . S
H1459 C1446 0.962 . S
H1460 C1446 0.960 . S
H1461 C1447 0.961 . S
H1462 C1447 0.961 1_565 S
H1463 C1447 0.961 . S
H1464 C1448 0.931 . S
H1465 C1453 0.930 . S
H1466 C1454 0.956 1_545 S
H1467 C1454 0.961 1_545 S
H1468 C1454 0.961 . S
H1469 C1455 0.958 . S
H1470 C1455 0.961 . S
H1471 C1455 0.960 . S
C1472 C1473 1.391 . S
C1472 C1474 1.394 . S
C1472 H1488 0.931 . S
C1473 C1472 1.391 . S
C1473 C1477 1.376 . S
C1474 C1472 1.394 . S
C1474 C1475 1.369 . S
C1474 C1478 1.531 . S
C1475 C1474 1.369 . S
C1475 C1476 1.410 . S
C1475 C1483 1.503 1_655 S
C1476 C1475 1.410 . S
C1476 C1477 1.392 . S
C1476 C1479 1.511 . S
C1477 C1473 1.376 . S
C1477 C1476 1.392 . S
C1477 H1489 0.929 . S
C1478 C1474 1.531 . S
C1478 H1490 0.960 . S
C1478 H1491 0.962 . S
C1478 H1492 0.960 . S
C1479 C1476 1.511 . S
C1479 H1493 0.961 . S
C1479 H1494 0.961 1_655 S
C1479 H1495 0.961 . S
C1480 C1481 1.370 . S
C1480 C1482 1.363 . S
C1480 H1496 0.931 . S
C1481 C1480 1.370 . S
C1481 C1485 1.408 . S
C1482 C1480 1.363 . S
C1482 C1483 1.370 . S
C1482 C1486 1.524 . S
C1483 C1475 1.503 1_455 S
C1483 C1482 1.370 . S
C1483 C1484 1.403 . S
C1484 C1483 1.403 . S
C1484 C1485 1.404 . S
C1484 C1487 1.539 . S
C1485 C1481 1.408 . S
C1485 C1484 1.404 . S
C1485 H1497 0.930 . S
C1486 C1482 1.524 . S
C1486 H1498 0.956 1_455 S
C1486 H1499 0.961 1_455 S
C1486 H1500 0.961 . S
C1487 C1484 1.539 . S
C1487 H1501 0.958 . S
C1487 H1502 0.961 . S
C1487 H1503 0.960 . S
H1488 C1472 0.931 . S
H1489 C1477 0.929 . S
H1490 C1478 0.960 . S
H1491 C1478 0.962 . S
H1492 C1478 0.960 . S
H1493 C1479 0.961 . S
H1494 C1479 0.961 1_455 S
H1495 C1479 0.961 . S
H1496 C1480 0.931 . S
H1497 C1485 0.930 . S
H1498 C1486 0.956 1_655 S
H1499 C1486 0.961 1_655 S
H1500 C1486 0.961 . S
H1501 C1487 0.958 . S
H1502 C1487 0.961 . S
H1503 C1487 0.960 . S
C1504 C1505 1.391 . S
C1504 C1506 1.394 . S
C1504 H1520 0.931 . S
C1505 C1504 1.391 . S
C1505 C1509 1.376 . S
C1506 C1504 1.394 . S
C1506 C1507 1.369 . S
C1506 C1510 1.531 . S
C1507 C1506 1.369 . S
C1507 C1508 1.410 . S
C1507 C1515 1.503 . S
C1508 C1507 1.410 . S
C1508 C1509 1.392 . S
C1508 C1511 1.511 . S
C1509 C1505 1.376 . S
C1509 C1508 1.392 . S
C1509 H1521 0.929 . S
C1510 C1506 1.531 . S
C1510 H1522 0.960 . S
C1510 H1523 0.962 . S
C1510 H1524 0.960 . S
C1511 C1508 1.511 . S
C1511 H1525 0.961 . S
C1511 H1526 0.961 . S
C1511 H1527 0.961 . S
C1512 C1513 1.370 . S
C1512 C1514 1.363 . S
C1512 H1528 0.931 . S
C1513 C1512 1.370 . S
C1513 C1517 1.408 . S
C1514 C1512 1.363 . S
C1514 C1515 1.370 . S
C1514 C1518 1.524 . S
C1515 C1507 1.503 . S
C1515 C1514 1.370 . S
C1515 C1516 1.403 . S
C1516 C1515 1.403 . S
C1516 C1517 1.404 . S
C1516 C1519 1.539 . S
C1517 C1513 1.408 . S
C1517 C1516 1.404 . S
C1517 H1529 0.930 . S
C1518 C1514 1.524 . S
C1518 H1530 0.956 . S
C1518 H1531 0.961 . S
C1518 H1532 0.961 . S
C1519 C1516 1.539 . S
C1519 H1533 0.958 . S
C1519 H1534 0.961 . S
C1519 H1535 0.960 . S
H1520 C1504 0.931 . S
H1521 C1509 0.929 . S
H1522 C1510 0.960 . S
H1523 C1510 0.962 . S
H1524 C1510 0.960 . S
H1525 C1511 0.961 . S
H1526 C1511 0.961 . S
H1527 C1511 0.961 . S
H1528 C1512 0.931 . S
H1529 C1517 0.930 . S
H1530 C1518 0.956 . S
H1531 C1518 0.961 . S
H1532 C1518 0.961 . S
H1533 C1519 0.958 . S
H1534 C1519 0.961 . S
H1535 C1519 0.960 . S
C1536 C1537 1.391 . S
C1536 C1538 1.394 . S
C1536 H1552 0.931 . S
C1537 C1536 1.391 . S
C1537 C1541 1.376 . S
C1538 C1536 1.394 . S
C1538 C1539 1.369 . S
C1538 C1542 1.531 . S
C1539 C1538 1.369 . S
C1539 C1540 1.410 . S
C1539 C1547 1.503 . S
C1540 C1539 1.410 . S
C1540 C1541 1.392 . S
C1540 C1543 1.511 . S
C1541 C1537 1.376 . S
C1541 C1540 1.392 . S
C1541 H1553 0.929 . S
C1542 C1538 1.531 . S
C1542 H1554 0.960 . S
C1542 H1555 0.962 . S
C1542 H1556 0.960 . S
C1543 C1540 1.511 . S
C1543 H1557 0.961 . S
C1543 H1558 0.961 . S
C1543 H1559 0.961 . S
C1544 C1545 1.370 . S
C1544 C1546 1.363 . S
C1544 H1560 0.931 . S
C1545 C1544 1.370 . S
C1545 C1549 1.408 . S
C1546 C1544 1.363 . S
C1546 C1547 1.370 . S
C1546 C1550 1.524 . S
C1547 C1539 1.503 . S
C1547 C1546 1.370 . S
C1547 C1548 1.403 . S
C1548 C1547 1.403 . S
C1548 C1549 1.404 . S
C1548 C1551 1.539 . S
C1549 C1545 1.408 . S
C1549 C1548 1.404 . S
C1549 H1561 0.930 . S
C1550 C1546 1.524 . S
C1550 H1562 0.956 . S
C1550 H1563 0.961 . S
C1550 H1564 0.961 . S
C1551 C1548 1.539 . S
C1551 H1565 0.958 . S
C1551 H1566 0.961 . S
C1551 H1567 0.960 . S
H1552 C1536 0.931 . S
H1553 C1541 0.929 . S
H1554 C1542 0.960 . S
H1555 C1542 0.962 . S
H1556 C1542 0.960 . S
H1557 C1543 0.961 . S
H1558 C1543 0.961 . S
H1559 C1543 0.961 . S
H1560 C1544 0.931 . S
H1561 C1549 0.930 . S
H1562 C1550 0.956 . S
H1563 C1550 0.961 . S
H1564 C1550 0.961 . S
H1565 C1551 0.958 . S
H1566 C1551 0.961 . S
H1567 C1551 0.960 . S
C1568 C1569 1.391 . S
C1568 C1570 1.394 . S
C1568 H1584 0.931 . S
C1569 C1568 1.391 . S
C1569 C1573 1.376 . S
C1570 C1568 1.394 . S
C1570 C1571 1.369 . S
C1570 C1574 1.531 . S
C1571 C1570 1.369 . S
C1571 C1572 1.410 . S
C1571 C1579 1.503 . S
C1572 C1571 1.410 . S
C1572 C1573 1.392 . S
C1572 C1575 1.511 . S
C1573 C1569 1.376 . S
C1573 C1572 1.392 . S
C1573 H1585 0.929 . S
C1574 C1570 1.531 . S
C1574 H1586 0.960 . S
C1574 H1587 0.962 . S
C1574 H1588 0.960 . S
C1575 C1572 1.511 . S
C1575 H1589 0.961 . S
C1575 H1590 0.961 . S
C1575 H1591 0.961 . S
C1576 C1577 1.370 . S
C1576 C1578 1.363 . S
C1576 H1592 0.931 . S
C1577 C1576 1.370 . S
C1577 C1581 1.408 . S
C1578 C1576 1.363 . S
C1578 C1579 1.370 . S
C1578 C1582 1.524 . S
C1579 C1571 1.503 . S
C1579 C1578 1.370 . S
C1579 C1580 1.403 . S
C1580 C1579 1.403 . S
C1580 C1581 1.404 . S
C1580 C1583 1.539 . S
C1581 C1577 1.408 . S
C1581 C1580 1.404 . S
C1581 H1593 0.930 . S
C1582 C1578 1.524 . S
C1582 H1594 0.956 . S
C1582 H1595 0.961 . S
C1582 H1596 0.961 . S
C1583 C1580 1.539 . S
C1583 H1597 0.958 . S
C1583 H1598 0.961 . S
C1583 H1599 0.960 . S
H1584 C1568 0.931 . S
H1585 C1573 0.929 . S
H1586 C1574 0.960 . S
H1587 C1574 0.962 . S
H1588 C1574 0.960 . S
H1589 C1575 0.961 . S
H1590 C1575 0.961 . S
H1591 C1575 0.961 . S
H1592 C1576 0.931 . S
H1593 C1581 0.930 . S
H1594 C1582 0.956 . S
H1595 C1582 0.961 . S
H1596 C1582 0.961 . S
H1597 C1583 0.958 . S
H1598 C1583 0.961 . S
H1599 C1583 0.960 . S
C1600 C1601 1.391 . S
C1600 C1602 1.394 . S
C1600 H1616 0.931 . S
C1601 C1600 1.391 . S
C1601 C1605 1.376 . S
C1602 C1600 1.394 . S
C1602 C1603 1.369 . S
C1602 C1606 1.531 . S
C1603 C1602 1.369 . S
C1603 C1604 1.410 . S
C1603 C1611 1.503 . S
C1604 C1603 1.410 . S
C1604 C1605 1.392 . S
C1604 C1607 1.511 . S
C1605 C1601 1.376 . S
C1605 C1604 1.392 . S
C1605 H1617 0.929 . S
C1606 C1602 1.531 . S
C1606 H1618 0.960 . S
C1606 H1619 0.962 . S
C1606 H1620 0.960 . S
C1607 C1604 1.511 . S
C1607 H1621 0.961 . S
C1607 H1622 0.961 . S
C1607 H1623 0.961 . S
C1608 C1609 1.370 . S
C1608 C1610 1.363 . S
C1608 H1624 0.931 . S
C1609 C1608 1.370 . S
C1609 C1613 1.408 . S
C1610 C1608 1.363 . S
C1610 C1611 1.370 . S
C1610 C1614 1.524 . S
C1611 C1603 1.503 . S
C1611 C1610 1.370 . S
C1611 C1612 1.403 . S
C1612 C1611 1.403 . S
C1612 C1613 1.404 . S
C1612 C1615 1.539 . S
C1613 C1609 1.408 . S
C1613 C1612 1.404 . S
C1613 H1625 0.930 . S
C1614 C1610 1.524 . S
C1614 H1626 0.956 . S
C1614 H1627 0.961 . S
C1614 H1628 0.961 . S
C1615 C1612 1.539 . S
C1615 H1629 0.958 . S
C1615 H1630 0.961 . S
C1615 H1631 0.960 . S
H1616 C1600 0.931 . S
H1617 C1605 0.929 . S
H1618 C1606 0.960 . S
H1619 C1606 0.962 . S
H1620 C1606 0.960 . S
H1621 C1607 0.961 . S
H1622 C1607 0.961 . S
H1623 C1607 0.961 . S
H1624 C1608 0.931 . S
H1625 C1613 0.930 . S
H1626 C1614 0.956 . S
H1627 C1614 0.961 . S
H1628 C1614 0.961 . S
H1629 C1615 0.958 . S
H1630 C1615 0.961 . S
H1631 C1615 0.960 . S
C1632 C1633 1.391 . S
C1632 C1634 1.394 . S
C1632 H1648 0.931 . S
C1633 C1632 1.391 . S
C1633 C1637 1.376 . S
C1634 C1632 1.394 . S
C1634 C1635 1.369 . S
C1634 C1638 1.531 . S
C1635 C1634 1.369 . S
C1635 C1636 1.410 . S
C1635 C1643 1.503 . S
C1636 C1635 1.410 . S
C1636 C1637 1.392 . S
C1636 C1639 1.511 . S
C1637 C1633 1.376 . S
C1637 C1636 1.392 . S
C1637 H1649 0.929 . S
C1638 C1634 1.531 . S
C1638 H1650 0.960 . S
C1638 H1651 0.962 . S
C1638 H1652 0.960 . S
C1639 C1636 1.511 . S
C1639 H1653 0.961 . S
C1639 H1654 0.961 . S
C1639 H1655 0.961 . S
C1640 C1641 1.370 . S
C1640 C1642 1.363 . S
C1640 H1656 0.931 . S
C1641 C1640 1.370 . S
C1641 C1645 1.408 . S
C1642 C1640 1.363 . S
C1642 C1643 1.370 . S
C1642 C1646 1.524 . S
C1643 C1635 1.503 . S
C1643 C1642 1.370 . S
C1643 C1644 1.403 . S
C1644 C1643 1.403 . S
C1644 C1645 1.404 . S
C1644 C1647 1.539 . S
C1645 C1641 1.408 . S
C1645 C1644 1.404 . S
C1645 H1657 0.930 . S
C1646 C1642 1.524 . S
C1646 H1658 0.956 . S
C1646 H1659 0.961 . S
C1646 H1660 0.961 . S
C1647 C1644 1.539 . S
C1647 H1661 0.958 . S
C1647 H1662 0.961 . S
C1647 H1663 0.960 . S
H1648 C1632 0.931 . S
H1649 C1637 0.929 . S
H1650 C1638 0.960 . S
H1651 C1638 0.962 . S
H1652 C1638 0.960 . S
H1653 C1639 0.961 . S
H1654 C1639 0.961 . S
H1655 C1639 0.961 . S
H1656 C1640 0.931 . S
H1657 C1645 0.930 . S
H1658 C1646 0.956 . S
H1659 C1646 0.961 . S
H1660 C1646 0.961 . S
H1661 C1647 0.958 . S
H1662 C1647 0.961 . S
H1663 C1647 0.960 . S
C1664 C1665 1.391 . S
C1664 C1666 1.394 . S
C1664 H1680 0.931 . S
C1665 C1664 1.391 . S
C1665 C1669 1.376 . S
C1666 C1664 1.394 . S
C1666 C1667 1.369 . S
C1666 C1670 1.531 . S
C1667 C1666 1.369 . S
C1667 C1668 1.410 . S
C1667 C1675 1.503 . S
C1668 C1667 1.410 . S
C1668 C1669 1.392 . S
C1668 C1671 1.511 . S
C1669 C1665 1.376 . S
C1669 C1668 1.392 . S
C1669 H1681 0.929 . S
C1670 C1666 1.531 . S
C1670 H1682 0.960 . S
C1670 H1683 0.962 . S
C1670 H1684 0.960 . S
C1671 C1668 1.511 . S
C1671 H1685 0.961 . S
C1671 H1686 0.961 . S
C1671 H1687 0.961 . S
C1672 C1673 1.370 . S
C1672 C1674 1.363 . S
C1672 H1688 0.931 . S
C1673 C1672 1.370 . S
C1673 C1677 1.408 . S
C1674 C1672 1.363 . S
C1674 C1675 1.370 . S
C1674 C1678 1.524 . S
C1675 C1667 1.503 . S
C1675 C1674 1.370 . S
C1675 C1676 1.403 . S
C1676 C1675 1.403 . S
C1676 C1677 1.404 . S
C1676 C1679 1.539 . S
C1677 C1673 1.408 . S
C1677 C1676 1.404 . S
C1677 H1689 0.930 . S
C1678 C1674 1.524 . S
C1678 H1690 0.956 . S
C1678 H1691 0.961 . S
C1678 H1692 0.961 . S
C1679 C1676 1.539 . S
C1679 H1693 0.958 . S
C1679 H1694 0.961 . S
C1679 H1695 0.960 . S
H1680 C1664 0.931 . S
H1681 C1669 0.929 . S
H1682 C1670 0.960 . S
H1683 C1670 0.962 . S
H1684 C1670 0.960 . S
H1685 C1671 0.961 . S
H1686 C1671 0.961 . S
H1687 C1671 0.961 . S
H1688 C1672 0.931 . S
H1689 C1677 0.930 . S
H1690 C1678 0.956 . S
H1691 C1678 0.961 . S
H1692 C1678 0.961 . S
H1693 C1679 0.958 . S
H1694 C1679 0.961 . S
H1695 C1679 0.960 . S
C1696 C1697 1.391 . S
C1696 C1698 1.394 . S
C1696 H1712 0.931 . S
C1697 C1696 1.391 . S
C1697 C1701 1.376 . S
C1698 C1696 1.394 . S
C1698 C1699 1.369 . S
C1698 C1702 1.531 . S
C1699 C1698 1.369 . S
C1699 C1700 1.410 . S
C1699 C1707 1.503 . S
C1700 C1699 1.410 . S
C1700 C1701 1.392 . S
C1700 C1703 1.511 . S
C1701 C1697 1.376 . S
C1701 C1700 1.392 . S
C1701 H1713 0.929 . S
C1702 C1698 1.531 . S
C1702 H1714 0.960 . S
C1702 H1715 0.962 . S
C1702 H1716 0.960 . S
C1703 C1700 1.511 . S
C1703 H1717 0.961 . S
C1703 H1718 0.961 . S
C1703 H1719 0.961 . S
C1704 C1705 1.370 . S
C1704 C1706 1.363 . S
C1704 H1720 0.931 . S
C1705 C1704 1.370 . S
C1705 C1709 1.408 . S
C1706 C1704 1.363 . S
C1706 C1707 1.370 . S
C1706 C1710 1.524 . S
C1707 C1699 1.503 . S
C1707 C1706 1.370 . S
C1707 C1708 1.403 . S
C1708 C1707 1.403 . S
C1708 C1709 1.404 . S
C1708 C1711 1.539 . S
C1709 C1705 1.408 . S
C1709 C1708 1.404 . S
C1709 H1721 0.930 . S
C1710 C1706 1.524 . S
C1710 H1722 0.956 . S
C1710 H1723 0.961 . S
C1710 H1724 0.961 . S
C1711 C1708 1.539 . S
C1711 H1725 0.958 . S
C1711 H1726 0.961 . S
C1711 H1727 0.960 . S
H1712 C1696 0.931 . S
H1713 C1701 0.929 . S
H1714 C1702 0.960 . S
H1715 C1702 0.962 . S
H1716 C1702 0.960 . S
H1717 C1703 0.961 . S
H1718 C1703 0.961 . S
H1719 C1703 0.961 . S
H1720 C1704 0.931 . S
H1721 C1709 0.930 . S
H1722 C1710 0.956 . S
H1723 C1710 0.961 . S
H1724 C1710 0.961 . S
H1725 C1711 0.958 . S
H1726 C1711 0.961 . S
H1727 C1711 0.960 . S
C1728 C1729 1.391 . S
C1728 C1730 1.394 . S
C1728 H1744 0.931 . S
C1729 C1728 1.391 . S
C1729 C1733 1.376 . S
C1730 C1728 1.394 . S
C1730 C1731 1.369 . S
C1730 C1734 1.531 . S
C1731 C1730 1.369 . S
C1731 C1732 1.410 . S
C1731 C1739 1.503 . S
C1732 C1731 1.410 . S
C1732 C1733 1.392 . S
C1732 C1735 1.511 . S
C1733 C1729 1.376 . S
C1733 C1732 1.392 . S
C1733 H1745 0.929 . S
C1734 C1730 1.531 . S
C1734 H1746 0.960 . S
C1734 H1747 0.962 . S
C1734 H1748 0.960 . S
C1735 C1732 1.511 . S
C1735 H1749 0.961 . S
C1735 H1750 0.961 . S
C1735 H1751 0.961 . S
C1736 C1737 1.370 . S
C1736 C1738 1.363 . S
C1736 H1752 0.931 . S
C1737 C1736 1.370 . S
C1737 C1741 1.408 . S
C1738 C1736 1.363 . S
C1738 C1739 1.370 . S
C1738 C1742 1.524 . S
C1739 C1731 1.503 . S
C1739 C1738 1.370 . S
C1739 C1740 1.403 . S
C1740 C1739 1.403 . S
C1740 C1741 1.404 . S
C1740 C1743 1.539 . S
C1741 C1737 1.408 . S
C1741 C1740 1.404 . S
C1741 H1753 0.930 . S
C1742 C1738 1.524 . S
C1742 H1754 0.956 . S
C1742 H1755 0.961 . S
C1742 H1756 0.961 . S
C1743 C1740 1.539 . S
C1743 H1757 0.958 . S
C1743 H1758 0.961 . S
C1743 H1759 0.960 . S
H1744 C1728 0.931 . S
H1745 C1733 0.929 . S
H1746 C1734 0.960 . S
H1747 C1734 0.962 . S
H1748 C1734 0.960 . S
H1749 C1735 0.961 . S
H1750 C1735 0.961 . S
H1751 C1735 0.961 . S
H1752 C1736 0.931 . S
H1753 C1741 0.930 . S
H1754 C1742 0.956 . S
H1755 C1742 0.961 . S
H1756 C1742 0.961 . S
H1757 C1743 0.958 . S
H1758 C1743 0.961 . S
H1759 C1743 0.960 . S
C1760 C1761 1.391 . S
C1760 C1762 1.394 . S
C1760 H1776 0.931 . S
C1761 C1760 1.391 . S
C1761 C1765 1.376 . S
C1762 C1760 1.394 . S
C1762 C1763 1.369 . S
C1762 C1766 1.531 . S
C1763 C1762 1.369 . S
C1763 C1764 1.410 . S
C1763 C1771 1.503 . S
C1764 C1763 1.410 . S
C1764 C1765 1.392 . S
C1764 C1767 1.511 . S
C1765 C1761 1.376 . S
C1765 C1764 1.392 . S
C1765 H1777 0.929 . S
C1766 C1762 1.531 . S
C1766 H1778 0.960 . S
C1766 H1779 0.962 . S
C1766 H1780 0.960 . S
C1767 C1764 1.511 . S
C1767 H1781 0.961 . S
C1767 H1782 0.961 . S
C1767 H1783 0.961 . S
C1768 C1769 1.370 . S
C1768 C1770 1.363 . S
C1768 H1784 0.931 . S
C1769 C1768 1.370 . S
C1769 C1773 1.408 . S
C1770 C1768 1.363 . S
C1770 C1771 1.370 . S
C1770 C1774 1.524 . S
C1771 C1763 1.503 . S
C1771 C1770 1.370 . S
C1771 C1772 1.403 . S
C1772 C1771 1.403 . S
C1772 C1773 1.404 . S
C1772 C1775 1.539 . S
C1773 C1769 1.408 . S
C1773 C1772 1.404 . S
C1773 H1785 0.930 . S
C1774 C1770 1.524 . S
C1774 H1786 0.956 . S
C1774 H1787 0.961 . S
C1774 H1788 0.961 . S
C1775 C1772 1.539 . S
C1775 H1789 0.958 . S
C1775 H1790 0.961 . S
C1775 H1791 0.960 . S
H1776 C1760 0.931 . S
H1777 C1765 0.929 . S
H1778 C1766 0.960 . S
H1779 C1766 0.962 . S
H1780 C1766 0.960 . S
H1781 C1767 0.961 . S
H1782 C1767 0.961 . S
H1783 C1767 0.961 . S
H1784 C1768 0.931 . S
H1785 C1773 0.930 . S
H1786 C1774 0.956 . S
H1787 C1774 0.961 . S
H1788 C1774 0.961 . S
H1789 C1775 0.958 . S
H1790 C1775 0.961 . S
H1791 C1775 0.960 . S
C1792 C1793 1.391 . S
C1792 C1794 1.394 . S
C1792 H1808 0.931 . S
C1793 C1792 1.391 . S
C1793 C1797 1.376 . S
C1794 C1792 1.394 . S
C1794 C1795 1.369 . S
C1794 C1798 1.531 . S
C1795 C1794 1.369 . S
C1795 C1796 1.410 . S
C1795 C1803 1.503 . S
C1796 C1795 1.410 . S
C1796 C1797 1.392 . S
C1796 C1799 1.511 . S
C1797 C1793 1.376 . S
C1797 C1796 1.392 . S
C1797 H1809 0.929 . S
C1798 C1794 1.531 . S
C1798 H1810 0.960 . S
C1798 H1811 0.962 . S
C1798 H1812 0.960 . S
C1799 C1796 1.511 . S
C1799 H1813 0.961 . S
C1799 H1814 0.961 . S
C1799 H1815 0.961 . S
C1800 C1801 1.370 . S
C1800 C1802 1.363 . S
C1800 H1816 0.931 . S
C1801 C1800 1.370 . S
C1801 C1805 1.408 . S
C1802 C1800 1.363 . S
C1802 C1803 1.370 . S
C1802 C1806 1.524 . S
C1803 C1795 1.503 . S
C1803 C1802 1.370 . S
C1803 C1804 1.403 . S
C1804 C1803 1.403 . S
C1804 C1805 1.404 . S
C1804 C1807 1.539 . S
C1805 C1801 1.408 . S
C1805 C1804 1.404 . S
C1805 H1817 0.930 . S
C1806 C1802 1.524 . S
C1806 H1818 0.956 . S
C1806 H1819 0.961 . S
C1806 H1820 0.961 . S
C1807 C1804 1.539 . S
C1807 H1821 0.958 . S
C1807 H1822 0.961 . S
C1807 H1823 0.960 . S
H1808 C1792 0.931 . S
H1809 C1797 0.929 . S
H1810 C1798 0.960 . S
H1811 C1798 0.962 . S
H1812 C1798 0.960 . S
H1813 C1799 0.961 . S
H1814 C1799 0.961 . S
H1815 C1799 0.961 . S
H1816 C1800 0.931 . S
H1817 C1805 0.930 . S
H1818 C1806 0.956 . S
H1819 C1806 0.961 . S
H1820 C1806 0.961 . S
H1821 C1807 0.958 . S
H1822 C1807 0.961 . S
H1823 C1807 0.960 . S
C545 C33 0.832 . S
C553 C379 0.834 . S
C577 C277 0.825 . S
C585 C67 0.829 . S
C609 C311 0.856 . S
C617 C101 0.840 . S
C641 C345 0.862 . S
C649 C135 0.840 . S
C673 C175 0.850 . S
C681 C169 0.839 . S
C705 C209 0.824 . S
C713 C203 0.829 . S
C737 C237 0.830 . S
C745 C243 0.834 . S
C769 C271 0.812 . S
C777 C141 0.817 . S
C801 C305 0.811 . S
C809 C107 0.812 . S
C833 C339 0.840 . S
C841 C5 0.834 . S
C865 C39 0.859 . S
C873 C373 0.840 . S
C897 C407 0.816 . S
C905 C73 0.819 . S
C929 C447 0.800 . S
C937 C441 0.824 . S
C961 C481 0.863 . S
C969 C475 0.840 . S
C993 C515 0.858 . S
C1001 C509 0.840 . S
C1025 C543 0.843 . S
C1033 C413 0.836 . S
C1057 C20 1.351 . S
C1065 C88 1.345 . S
C1089 C54 1.352 . S
C1097 C122 1.345 . S
C1121 C224 1.336 . S
C1129 C156 1.352 . S
C1153 C258 1.338 . S
C1161 C190 1.350 . S
C1185 C360 1.345 . S
C1193 C292 1.353 . S
C1217 C326 1.346 . S
C1225 C394 1.346 . S
C1249 C428 1.342 . S
C1257 C496 1.346 . S
C1281 C530 1.338 . S
C1289 C462 1.350 . S
C1313 C70 1.132 . S
C1321 C2 1.141 . S
C1345 C36 1.139 . S
C1353 C104 1.140 . S
C1377 C138 1.148 . S
C1385 C206 1.155 . S
C1409 C240 1.175 . S
C1417 C172 1.156 . S
C1441 C342 1.173 . S
C1449 C274 1.163 . S
C1473 C308 1.121 . S
C1481 C376 1.145 . S
C1505 C410 1.177 . S
C1513 C478 1.163 . S
C1537 C512 1.126 . S
C1545 C444 1.138 . S
C1569 C485 1.465 . S
C1577 C9 1.494 . S
C1601 C43 1.457 . S
C1609 C519 1.493 . S
C1633 C77 1.452 . S
C1641 C417 1.497 . S
C1665 C111 1.452 . S
C1673 C451 1.496 . S
C1697 C145 1.486 . S
C1705 C349 1.483 . S
C1729 C383 1.452 . S
C1737 C179 1.496 . S
C1761 C213 1.449 . S
C1769 C281 1.499 . S
C1793 C247 1.456 . S
C1801 C315 1.494 . S
