# Generated by pormake.
# Topology ske, (6)-cn, num edge types: 1
# Building blocks:
#     Node 0, Type 0, BuildingBlock: BETDAH_clean_sbu_0, # of connection points: 6
#     Node 1, Type 0, BuildingBlock: BETDAH_clean_sbu_0, # of connection points: 6
#     Node 2, Type 0, BuildingBlock: BETDAH_clean_sbu_0, # of connection points: 6
#     Node 3, Type 0, BuildingBlock: BETDAH_clean_sbu_0, # of connection points: 6
#     Node 4, Type 0, BuildingBlock: BETDAH_clean_sbu_0, # of connection points: 6
#     Node 5, Type 0, BuildingBlock: BETDAH_clean_sbu_0, # of connection points: 6
#     Node 6, Type 0, BuildingBlock: BETDAH_clean_sbu_0, # of connection points: 6
#     Node 7, Type 0, BuildingBlock: BETDAH_clean_sbu_0, # of connection points: 6
#     Edge 8, Type (0, 0), BuildingBlock: KIFKEQ_clean_linker_1, # of connection points: 2
#     Edge 9, Type (0, 0), BuildingBlock: KIFKEQ_clean_linker_1, # of connection points: 2
#     Edge 10, Type (0, 0), BuildingBlock: KIFKEQ_clean_linker_1, # of connection points: 2
#     Edge 11, Type (0, 0), BuildingBlock: KIFKEQ_clean_linker_1, # of connection points: 2
#     Edge 12, Type (0, 0), BuildingBlock: KIFKEQ_clean_linker_1, # of connection points: 2
#     Edge 13, Type (0, 0), BuildingBlock: KIFKEQ_clean_linker_1, # of connection points: 2
#     Edge 14, Type (0, 0), BuildingBlock: KIFKEQ_clean_linker_1, # of connection points: 2
#     Edge 15, Type (0, 0), BuildingBlock: KIFKEQ_clean_linker_1, # of connection points: 2
#     Edge 16, Type (0, 0), BuildingBlock: KIFKEQ_clean_linker_1, # of connection points: 2
#     Edge 17, Type (0, 0), BuildingBlock: KIFKEQ_clean_linker_1, # of connection points: 2
#     Edge 18, Type (0, 0), BuildingBlock: KIFKEQ_clean_linker_1, # of connection points: 2
#     Edge 19, Type (0, 0), BuildingBlock: KIFKEQ_clean_linker_1, # of connection points: 2
#     Edge 20, Type (0, 0), BuildingBlock: KIFKEQ_clean_linker_1, # of connection points: 2
#     Edge 21, Type (0, 0), BuildingBlock: KIFKEQ_clean_linker_1, # of connection points: 2
#     Edge 22, Type (0, 0), BuildingBlock: KIFKEQ_clean_linker_1, # of connection points: 2
#     Edge 23, Type (0, 0), BuildingBlock: KIFKEQ_clean_linker_1, # of connection points: 2
#     Edge 24, Type (0, 0), BuildingBlock: KIFKEQ_clean_linker_1, # of connection points: 2
#     Edge 25, Type (0, 0), BuildingBlock: KIFKEQ_clean_linker_1, # of connection points: 2
#     Edge 26, Type (0, 0), BuildingBlock: KIFKEQ_clean_linker_1, # of connection points: 2
#     Edge 27, Type (0, 0), BuildingBlock: KIFKEQ_clean_linker_1, # of connection points: 2
#     Edge 28, Type (0, 0), BuildingBlock: KIFKEQ_clean_linker_1, # of connection points: 2
#     Edge 29, Type (0, 0), BuildingBlock: KIFKEQ_clean_linker_1, # of connection points: 2
#     Edge 30, Type (0, 0), BuildingBlock: KIFKEQ_clean_linker_1, # of connection points: 2
#     Edge 31, Type (0, 0), BuildingBlock: KIFKEQ_clean_linker_1, # of connection points: 2
# Relax obj value: 0.206
# Max RMSD: 0.210
# Mean RMSD: 0.203
data_MOF--net-ske--node1-BETDAH_clean_sbu_0--edge1-KIFKEQ_clean_linker_1
_symmetry_space_group_name_H-M    P1
_symmetry_Int_Tables_number       1
_symmetry_cell_setting            triclinic
loop_
_symmetry_equiv_pos_as_xyz
'x, y, z'
_cell_length_a     103.42627
_cell_length_b     29.285029
_cell_length_c     15.753205
_cell_angle_alpha  90.213399
_cell_angle_beta   89.95495
_cell_angle_gamma 83.700246
loop_
_atom_site_label
_atom_site_type_symbol
_atom_site_fract_x
_atom_site_fract_y
_atom_site_fract_z
_atom_type_partial_charge
Ho0 Ho 0.15924 0.26518 0.53753 0.0
Ho1 Ho 0.13017 0.25511 0.54567 0.0
C2 C 0.14546 0.25618 0.72059 0.0
C3 C 0.1825 0.29047 0.54678 0.0
C4 C 0.1949 0.28516 0.59454 0.0
C5 C 0.2013 0.32422 0.60964 0.0
C6 C 0.21382 0.32012 0.64437 0.0
C7 C 0.22029 0.27674 0.66475 0.0
C8 C 0.21365 0.2377 0.65255 0.0
C9 C 0.20109 0.24184 0.61763 0.0
C10 C 0.15309 0.17756 0.52703 0.0
C11 C 0.14412 0.26317 0.36298 0.0
C12 C 0.10715 0.22765 0.54104 0.0
C13 C 0.09375 0.23292 0.50718 0.0
C14 C 0.08696 0.19405 0.50488 0.0
C15 C 0.0736 0.19832 0.48838 0.0
C16 C 0.06672 0.24165 0.4734 0.0
C17 C 0.07367 0.2804 0.47115 0.0
C18 C 0.08707 0.27612 0.48846 0.0
C19 C 0.13611 0.34358 0.55011 0.0
O20 O 0.15517 0.27163 0.67854 0.0
O21 O 0.13575 0.23978 0.68052 0.0
O22 O 0.17954 0.25525 0.50249 0.0
O23 O 0.17234 0.31318 0.58295 0.0
O24 O 0.16276 0.19255 0.48768 0.0
O25 O 0.14776 0.20863 0.57503 0.0
O26 O 0.13468 0.24609 0.40534 0.0
O27 O 0.15354 0.28152 0.403 0.0
O28 O 0.11044 0.25985 0.59164 0.0
O29 O 0.11672 0.21031 0.49229 0.0
O30 O 0.12596 0.32972 0.58562 0.0
O31 O 0.14169 0.3111 0.50669 0.0
H32 H 0.19675 0.35797 0.59219 0.0
H33 H 0.21851 0.35101 0.6543 0.0
H34 H 0.21834 0.20372 0.66698 0.0
H35 H 0.19641 0.21107 0.60641 0.0
H36 H 0.09189 0.16043 0.51962 0.0
H37 H 0.06859 0.16774 0.48939 0.0
H38 H 0.06864 0.31427 0.46013 0.0
H39 H 0.09209 0.30669 0.4905 0.0
Ho40 Ho 0.8754 0.26118 0.5367 0.0
Ho41 Ho 0.90455 0.27225 0.54285 0.0
C42 C 0.88946 0.2696 0.71799 0.0
C43 C 0.85228 0.23476 0.54881 0.0
C44 C 0.83955 0.24421 0.59311 0.0
C45 C 0.83554 0.21196 0.6506 0.0
C46 C 0.82291 0.2171 0.68421 0.0
C47 C 0.81391 0.25445 0.66049 0.0
C48 C 0.81805 0.28739 0.60477 0.0
C49 C 0.8307 0.28234 0.57145 0.0
C50 C 0.88105 0.34967 0.53028 0.0
C51 C 0.89041 0.26421 0.36075 0.0
C52 C 0.92747 0.30053 0.53877 0.0
C53 C 0.94092 0.29399 0.50597 0.0
C54 C 0.9487 0.3298 0.51697 0.0
C55 C 0.96201 0.32328 0.4987 0.0
C56 C 0.96789 0.28068 0.46834 0.0
C57 C 0.9599 0.24525 0.45422 0.0
C58 C 0.94655 0.25178 0.47326 0.0
C59 C 0.89877 0.18359 0.54651 0.0
O60 O 0.88017 0.25163 0.67598 0.0
O61 O 0.89867 0.28871 0.67755 0.0
O62 O 0.85546 0.26522 0.49437 0.0
O63 O 0.86228 0.21633 0.59237 0.0
O64 O 0.87085 0.33516 0.49662 0.0
O65 O 0.88688 0.3179 0.57406 0.0
O66 O 0.90005 0.28039 0.40271 0.0
O67 O 0.88089 0.24655 0.40089 0.0
O68 O 0.9241 0.2696 0.59146 0.0
O69 O 0.91805 0.31597 0.4875 0.0
O70 O 0.90897 0.19763 0.58128 0.0
O71 O 0.89305 0.21601 0.50404 0.0
H72 H 0.84205 0.18185 0.66753 0.0
H73 H 0.82004 0.1908 0.72622 0.0
H74 H 0.81146 0.31694 0.58606 0.0
H75 H 0.83338 0.30777 0.52692 0.0
H76 H 0.94458 0.36248 0.54315 0.0
H77 H 0.96775 0.3512 0.51209 0.0
H78 H 0.96399 0.21219 0.42971 0.0
H79 H 0.94071 0.22357 0.46467 0.0
Ho80 Ho 0.13037 0.75521 0.50268 0.0
Ho81 Ho 0.1592 0.76565 0.51106 0.0
C82 C 0.14418 0.76323 0.68536 0.0
C83 C 0.1071 0.72978 0.50991 0.0
C84 C 0.09364 0.73999 0.54257 0.0
C85 C 0.08805 0.70601 0.58808 0.0
C86 C 0.0747 0.71076 0.60588 0.0
C87 C 0.06659 0.74955 0.57806 0.0
C88 C 0.07233 0.78466 0.53617 0.0
C89 C 0.08569 0.77993 0.51852 0.0
C90 C 0.13621 0.84373 0.49731 0.0
C91 C 0.14559 0.75505 0.32817 0.0
C92 C 0.18239 0.79138 0.50032 0.0
C93 C 0.19504 0.78242 0.45503 0.0
C94 C 0.19846 0.8129 0.39217 0.0
C95 C 0.21102 0.80845 0.3575 0.0
C96 C 0.22052 0.77367 0.38548 0.0
C97 C 0.21697 0.74241 0.44661 0.0
C98 C 0.20442 0.74677 0.48105 0.0
C99 C 0.15344 0.67731 0.52031 0.0
O100 O 0.13497 0.74516 0.64251 0.0
O101 O 0.15341 0.78254 0.64553 0.0
O102 O 0.11099 0.75691 0.45182 0.0
O103 O 0.11637 0.7151 0.5628 0.0
O104 O 0.12643 0.82903 0.45879 0.0
O105 O 0.14165 0.812 0.54251 0.0
O106 O 0.15502 0.77229 0.37023 0.0
O107 O 0.13614 0.73738 0.36869 0.0
O108 O 0.1792 0.75988 0.55252 0.0
O109 O 0.17237 0.81115 0.45851 0.0
O110 O 0.16339 0.69241 0.55631 0.0
O111 O 0.14789 0.70841 0.47388 0.0
H112 H 0.09391 0.67473 0.60681 0.0
H113 H 0.07069 0.68341 0.63965 0.0
H114 H 0.06641 0.81485 0.51311 0.0
H115 H 0.08967 0.80667 0.48277 0.0
H116 H 0.19155 0.84118 0.37171 0.0
H117 H 0.21344 0.83341 0.31118 0.0
H118 H 0.22397 0.71481 0.46876 0.0
H119 H 0.2022 0.72287 0.52988 0.0
Ho120 Ho 0.90441 0.77207 0.50623 0.0
Ho121 Ho 0.87534 0.76134 0.5124 0.0
C122 C 0.89018 0.76502 0.68815 0.0
C123 C 0.92746 0.79911 0.51314 0.0
C124 C 0.9409 0.78874 0.54513 0.0
C125 C 0.94771 0.82528 0.57076 0.0
C126 C 0.96107 0.81812 0.58734 0.0
C127 C 0.96795 0.77416 0.57836 0.0
C128 C 0.96096 0.73714 0.5565 0.0
C129 C 0.94757 0.74434 0.54002 0.0
C130 C 0.89869 0.68336 0.50227 0.0
C131 C 0.88937 0.76992 0.33109 0.0
C132 C 0.85222 0.73505 0.50011 0.0
C133 C 0.83958 0.74428 0.45522 0.0
C134 C 0.83571 0.71196 0.39695 0.0
C135 C 0.82314 0.71692 0.36271 0.0
C136 C 0.81407 0.75414 0.38658 0.0
C137 C 0.81807 0.78717 0.44304 0.0
C138 C 0.83065 0.7823 0.477 0.0
C139 C 0.88108 0.84982 0.5202 0.0
O140 O 0.89973 0.78158 0.64608 0.0
O141 O 0.88076 0.74675 0.64797 0.0
O142 O 0.92368 0.77193 0.45438 0.0
O143 O 0.91821 0.81289 0.56709 0.0
O144 O 0.90889 0.69737 0.46765 0.0
O145 O 0.89291 0.71582 0.54482 0.0
O146 O 0.88009 0.75186 0.37288 0.0
O147 O 0.89857 0.78899 0.37188 0.0
O148 O 0.85536 0.76594 0.55419 0.0
O149 O 0.86226 0.71615 0.45709 0.0
O150 O 0.87088 0.83537 0.55401 0.0
O151 O 0.88682 0.81801 0.47569 0.0
H152 H 0.9428 0.85989 0.57426 0.0
H153 H 0.96611 0.84753 0.60314 0.0
H154 H 0.96589 0.7027 0.55034 0.0
H155 H 0.94255 0.7155 0.52034 0.0
H156 H 0.84228 0.68194 0.3799 0.0
H157 H 0.82036 0.69058 0.3201 0.0
H158 H 0.81142 0.81661 0.46187 0.0
H159 H 0.83324 0.80777 0.52213 0.0
Ho160 Ho 0.66049 0.76557 0.03768 0.0
Ho161 Ho 0.63163 0.75588 0.04471 0.0
C162 C 0.64679 0.75464 0.22035 0.0
C163 C 0.68369 0.7911 0.04825 0.0
C164 C 0.6959 0.78537 0.09778 0.0
C165 C 0.70233 0.82418 0.11453 0.0
C166 C 0.71462 0.8197 0.15249 0.0
C167 C 0.72082 0.77616 0.17451 0.0
C168 C 0.71418 0.73735 0.15987 0.0
C169 C 0.70184 0.74189 0.12193 0.0
C170 C 0.65445 0.67779 0.02428 0.0
C171 C 0.64594 0.76093 0.86369 0.0
C172 C 0.60827 0.73142 0.03348 0.0
C173 C 0.59452 0.74784 1.01391 0.0
C174 C 0.58835 0.72824 0.94561 0.0
C175 C 0.57489 0.73709 0.93435 0.0
C176 C 0.56722 0.76546 0.99167 0.0
C177 C 0.57351 0.78679 0.05776 0.0
C178 C 0.58699 0.77806 0.06883 0.0
C179 C 0.63742 0.84453 0.05027 0.0
O180 O 0.65646 0.77063 0.17884 0.0
O181 O 0.63706 0.73883 0.17944 0.0
O182 O 0.68081 0.756 1.00325 0.0
O183 O 0.67347 0.81372 0.08376 0.0
O184 O 0.66414 0.69325 0.9859 0.0
O185 O 0.64905 0.7084 0.07292 0.0
O186 O 0.63707 0.74127 0.90692 0.0
O187 O 0.65478 0.78226 0.90353 0.0
O188 O 0.61322 0.74655 0.10292 0.0
O189 O 0.61666 0.72697 0.9711 0.0
O190 O 0.62725 0.83041 0.08496 0.0
O191 O 0.64305 0.81225 1.00674 0.0
H192 H 0.69799 0.85801 0.09581 0.0
H193 H 0.71946 0.8503 0.16172 0.0
H194 H 0.71857 0.70337 0.17711 0.0
H195 H 0.6971 0.71134 0.10985 0.0
H196 H 0.59388 0.70458 0.90264 0.0
H197 H 0.57044 0.72071 0.8818 0.0
H198 H 0.56795 0.80848 0.10364 0.0
H199 H 0.59139 0.79353 0.12258 0.0
Ho200 Ho 0.37392 0.76084 0.02496 0.0
Ho201 Ho 0.40301 0.76357 0.02948 0.0
C202 C 0.38869 0.76699 0.20793 0.0
C203 C 0.35045 0.73819 0.03882 0.0
C204 C 0.33834 0.74473 0.08975 0.0
C205 C 0.33233 0.70593 0.11278 0.0
C206 C 0.32008 0.71068 0.15163 0.0
C207 C 0.31352 0.75447 0.16825 0.0
C208 C 0.31975 0.79339 0.1474 0.0
C209 C 0.33203 0.7886 0.10856 0.0
C210 C 0.38114 0.84652 1.00905 0.0
C211 C 0.38836 0.76283 0.8504 0.0
C212 C 0.42738 0.77313 1.01303 0.0
C213 C 0.44148 0.77678 1.00255 0.0
C214 C 0.44689 0.81722 0.02434 0.0
C215 C 0.46039 0.81888 1.0201 0.0
C216 C 0.46873 0.78 0.99461 0.0
C217 C 0.46323 0.74004 0.97089 0.0
C218 C 0.44979 0.73846 0.97474 0.0
C219 C 0.39482 0.67918 0.04656 0.0
O220 O 0.378 0.75919 0.16632 0.0
O221 O 0.39954 0.77403 0.1682 0.0
O222 O 0.3535 0.7729 0.99387 0.0
O223 O 0.36061 0.71444 0.07254 0.0
O224 O 0.37088 0.83283 0.97445 0.0
O225 O 0.38645 0.81546 0.05701 0.0
O226 O 0.39752 0.7809 0.89355 0.0
O227 O 0.37919 0.74336 0.89024 0.0
O228 O 0.42222 0.73668 0.98773 0.0
O229 O 0.41911 0.80552 0.04579 0.0
O230 O 0.40413 0.69364 0.09049 0.0
O231 O 0.39044 0.70984 0.99514 0.0
H232 H 0.33693 0.67176 0.09816 0.0
H233 H 0.31556 0.67992 0.16566 0.0
H234 H 0.31507 0.82763 0.16038 0.0
H235 H 0.33643 0.81919 0.09153 0.0
H236 H 0.44073 0.84727 0.04617 0.0
H237 H 0.46432 0.85013 0.03918 0.0
H238 H 0.46934 0.70974 0.94959 0.0
H239 H 0.44595 0.70677 0.95738 0.0
Ho240 Ho 0.63075 0.25663 0.99565 0.0
Ho241 Ho 0.65974 0.26679 1.00402 0.0
C242 C 0.6447 0.26387 0.17906 0.0
C243 C 0.60739 0.23186 1.00067 0.0
C244 C 0.59382 0.24137 0.03215 0.0
C245 C 0.58807 0.20629 0.07343 0.0
C246 C 0.57465 0.21058 0.08916 0.0
C247 C 0.56661 0.25004 0.0635 0.0
C248 C 0.5725 0.28615 0.02593 0.0
C249 C 0.58593 0.28186 1.01032 0.0
C250 C 0.63686 0.34481 0.99067 0.0
C251 C 0.6461 0.25598 0.82173 0.0
C252 C 0.68287 0.29312 0.99303 0.0
C253 C 0.69515 0.28734 0.94378 0.0
C254 C 0.70159 0.32612 0.92748 0.0
C255 C 0.71396 0.32157 0.89032 0.0
C256 C 0.72024 0.27797 0.86863 0.0
C257 C 0.71358 0.23918 0.88277 0.0
C258 C 0.70117 0.2438 0.91993 0.0
C259 C 0.65388 0.17871 1.01404 0.0
O260 O 0.63504 0.24827 0.13631 0.0
O261 O 0.65433 0.28119 0.13966 0.0
O262 O 0.61137 0.25983 0.94437 0.0
O263 O 0.61659 0.21623 0.05345 0.0
O264 O 0.6271 0.33045 0.95123 0.0
O265 O 0.64218 0.31287 0.03587 0.0
O266 O 0.65534 0.27429 0.86374 0.0
O267 O 0.63683 0.23743 0.86243 0.0
O268 O 0.68005 0.25829 0.03845 0.0
O269 O 0.67261 0.31514 0.95731 0.0
O270 O 0.66389 0.19372 0.04942 0.0
O271 O 0.64831 0.20975 0.96742 0.0
H272 H 0.59387 0.17456 0.09033 0.0
H273 H 0.57054 0.1824 0.11966 0.0
H274 H 0.56666 0.31691 1.00463 0.0
H275 H 0.59002 0.30945 0.97774 0.0
H276 H 0.6972 0.36 0.94603 0.0
H277 H 0.7188 0.35218 0.88151 0.0
H278 H 0.71801 0.20515 0.86575 0.0
H279 H 0.69642 0.21325 0.93171 0.0
Ho280 Ho 0.40405 0.26843 0.99273 0.0
Ho281 Ho 0.37515 0.25531 1.001 0.0
C282 C 0.39017 0.25855 0.17548 0.0
C283 C 0.427 0.29661 0.99923 0.0
C284 C 0.44058 0.28639 0.02933 0.0
C285 C 0.44727 0.32278 0.05742 0.0
C286 C 0.46069 0.31611 0.0725 0.0
C287 C 0.46777 0.27279 0.05951 0.0
C288 C 0.46093 0.23584 0.03495 0.0
C289 C 0.44748 0.24255 1.01998 0.0
C290 C 0.39885 0.17929 0.98674 0.0
C291 C 0.38877 0.2667 0.81871 0.0
C292 C 0.35202 0.22898 0.98887 0.0
C293 C 0.33943 0.23807 0.94308 0.0
C294 C 0.33556 0.20534 0.88564 0.0
C295 C 0.32305 0.21044 0.85024 0.0
C296 C 0.31403 0.24828 0.87185 0.0
C297 C 0.31804 0.2816 0.92776 0.0
C298 C 0.33055 0.27655 0.96298 0.0
C299 C 0.3805 0.34381 1.01318 0.0
O300 O 0.39945 0.27667 0.1332 0.0
O301 O 0.38095 0.23914 0.13532 0.0
O302 O 0.42316 0.27027 0.93932 0.0
O303 O 0.41784 0.30903 0.05463 0.0
O304 O 0.40888 0.19423 0.95165 0.0
O305 O 0.39302 0.21098 0.03064 0.0
O306 O 0.37968 0.2477 0.86075 0.0
O307 O 0.39791 0.28618 0.85929 0.0
O308 O 0.35513 0.2603 0.0421 0.0
O309 O 0.3621 0.20956 0.94692 0.0
O310 O 0.37083 0.32775 0.05044 0.0
O311 O 0.38611 0.31348 0.96495 0.0
H312 H 0.4422 0.35701 0.06417 0.0
H313 H 0.46559 0.3455 0.09046 0.0
H314 H 0.466 0.20184 0.02569 0.0
H315 H 0.44258 0.21381 0.99828 0.0
H316 H 0.34211 0.17507 0.86967 0.0
H317 H 0.32042 0.18441 0.80649 0.0
H318 H 0.31136 0.31089 0.94692 0.0
H319 H 0.33309 0.3022 1.00783 0.0
H320 H 0.24027 0.32301 0.60866 0.0
H321 H 0.23161 0.22007 0.78936 0.0
H322 H 0.26275 0.31586 0.65689 0.0
H323 H 0.25414 0.21308 0.83822 0.0
H324 H 0.29834 0.17941 0.84804 0.0
H325 H 0.276 0.18584 0.79681 0.0
H326 H 0.2761 0.33275 0.77424 0.0
H327 H 0.29864 0.32606 0.8216 0.0
C328 C 0.24312 0.29921 0.65947 0.0
C329 C 0.23406 0.2723 0.69534 0.0
C330 C 0.25605 0.29509 0.68721 0.0
C331 C 0.26033 0.26397 0.75176 0.0
C332 C 0.25128 0.23694 0.78754 0.0
C333 C 0.23833 0.241 0.75961 0.0
C334 C 0.29368 0.21305 0.83096 0.0
C335 C 0.30038 0.25219 0.83888 0.0
C336 C 0.28077 0.21682 0.80267 0.0
C337 C 0.27415 0.25984 0.78152 0.0
C338 C 0.28088 0.29895 0.789 0.0
C339 C 0.29379 0.29518 0.81719 0.0
H340 H 0.73112 0.33348 0.75454 0.0
H341 H 0.7403 0.21171 0.90624 0.0
H342 H 0.7536 0.32825 0.70603 0.0
H343 H 0.76267 0.20532 0.85481 0.0
H344 H 0.80484 0.23681 0.8199 0.0
H345 H 0.78231 0.2417 0.8683 0.0
H346 H 0.7692 0.28427 0.61762 0.0
H347 H 0.7917 0.27973 0.56964 0.0
C348 C 0.73791 0.30546 0.7774 0.0
C349 C 0.73384 0.2731 0.83462 0.0
C350 C 0.75081 0.30216 0.74878 0.0
C351 C 0.76003 0.26639 0.77647 0.0
C352 C 0.75592 0.2337 0.83288 0.0
C353 C 0.74301 0.237 0.86151 0.0
C354 C 0.79715 0.247 0.77501 0.0
C355 C 0.80013 0.25806 0.6909 0.0
C356 C 0.7842 0.2497 0.8027 0.0
C357 C 0.77386 0.26338 0.74699 0.0
C358 C 0.77687 0.27438 0.66286 0.0
C359 C 0.7898 0.2718 0.63527 0.0
H360 H 0.30354 0.70272 0.29234 0.0
H361 H 0.29283 0.81667 0.12399 0.0
H362 H 0.2812 0.70714 0.3433 0.0
H363 H 0.27059 0.82238 0.17763 0.0
H364 H 0.22907 0.78561 0.22262 0.0
H365 H 0.25148 0.78213 0.17209 0.0
H366 H 0.26536 0.75339 0.42697 0.0
H367 H 0.24301 0.75655 0.47715 0.0
C368 C 0.29644 0.72887 0.26638 0.0
C369 C 0.30003 0.75924 0.20378 0.0
C370 C 0.28362 0.73173 0.29632 0.0
C371 C 0.27402 0.76508 0.26457 0.0
C372 C 0.27765 0.79587 0.20281 0.0
C373 C 0.29048 0.79301 0.17287 0.0
C374 C 0.23691 0.77878 0.26792 0.0
C375 C 0.2342 0.77112 0.35391 0.0
C376 C 0.24978 0.77689 0.239 0.0
C377 C 0.26029 0.76744 0.29535 0.0
C378 C 0.25756 0.75995 0.38137 0.0
C379 C 0.24471 0.76172 0.4102 0.0
H380 H 0.74095 0.71002 0.13707 0.0
H381 H 0.73142 0.83174 0.29018 0.0
H382 H 0.76324 0.70393 0.18954 0.0
H383 H 0.75383 0.82679 0.33982 0.0
H384 H 0.79175 0.77848 0.4772 0.0
H385 H 0.76932 0.78255 0.42835 0.0
H386 H 0.7828 0.74121 0.17708 0.0
H387 H 0.80527 0.73679 0.22634 0.0
C388 C 0.74357 0.73534 0.18236 0.0
C389 C 0.73434 0.77137 0.20934 0.0
C390 C 0.75643 0.73222 0.21157 0.0
C391 C 0.76041 0.765 0.26867 0.0
C392 C 0.75113 0.80066 0.29652 0.0
C393 C 0.73828 0.80379 0.26729 0.0
C394 C 0.78995 0.77073 0.41127 0.0
C395 C 0.80035 0.75748 0.35567 0.0
C396 C 0.77705 0.77303 0.3832 0.0
C397 C 0.77419 0.76224 0.29865 0.0
C398 C 0.7846 0.74904 0.24297 0.0
C399 C 0.79751 0.74662 0.27115 0.0
H400 H 0.12873 0.91165 0.38437 0.0
H401 H 0.14911 0.88641 0.62136 0.0
H402 H 0.13251 0.99283 0.39196 0.0
H403 H 0.1525 0.96805 0.63027 0.0
H404 H 0.13996 0.13069 0.64393 0.0
H405 H 0.13591 0.04947 0.63831 0.0
H406 H 0.15486 0.03507 0.39422 0.0
H407 H 0.15929 0.11548 0.40105 0.0
C408 C 0.13397 0.92352 0.43822 0.0
C409 C 0.13864 0.8927 0.50216 0.0
C410 C 0.13613 0.96992 0.4425 0.0
C411 C 0.14273 0.98675 0.51192 0.0
C412 C 0.1473 0.95604 0.57639 0.0
C413 C 0.14542 0.90934 0.57102 0.0
C414 C 0.14323 0.11011 0.58916 0.0
C415 C 0.14998 0.12932 0.52304 0.0
C416 C 0.14097 0.06368 0.58612 0.0
C417 C 0.14509 0.036 0.51585 0.0
C418 C 0.15156 0.0556 0.449 0.0
C419 C 0.15411 0.10157 0.45305 0.0
H420 H 0.86535 0.42362 0.47271 0.0
H421 H 0.90299 0.38595 0.58567 0.0
H422 H 0.86965 0.50395 0.46904 0.0
H423 H 0.90743 0.46663 0.5804 0.0
H424 H 0.91467 0.60718 0.45381 0.0
H425 H 0.91066 0.52652 0.46465 0.0
H426 H 0.87294 0.56831 0.57423 0.0
H427 H 0.87706 0.64899 0.56484 0.0
C428 C 0.87456 0.43252 0.49683 0.0
C429 C 0.88383 0.3984 0.52954 0.0
C430 C 0.87699 0.47863 0.49502 0.0
C431 C 0.88887 0.49178 0.5245 0.0
C432 C 0.89821 0.45759 0.55678 0.0
C433 C 0.89566 0.41144 0.56004 0.0
C434 C 0.90553 0.59913 0.48042 0.0
C435 C 0.89617 0.63447 0.50835 0.0
C436 C 0.90327 0.55291 0.48708 0.0
C437 C 0.89149 0.54093 0.52038 0.0
C438 C 0.88209 0.57637 0.54784 0.0
C439 C 0.88445 0.62257 0.5426 0.0
H440 H 0.90309 0.88569 0.46578 0.0
H441 H 0.86526 0.92417 0.57628 0.0
H442 H 0.9075 0.96644 0.47027 0.0
H443 H 0.86954 1.00456 0.57933 0.0
H444 H 0.87716 0.14907 0.48339 0.0
H445 H 0.873 0.06835 0.47432 0.0
H446 H 0.91058 0.02697 0.58525 0.0
H447 H 0.91463 0.10761 0.59572 0.0
C448 C 0.89571 0.91139 0.49063 0.0
C449 C 0.88383 0.89857 0.52066 0.0
C450 C 0.89824 0.95757 0.49349 0.0
C451 C 0.88885 0.992 0.52494 0.0
C452 C 0.87693 0.97905 0.55396 0.0
C453 C 0.8745 0.93292 0.55255 0.0
C454 C 0.88451 0.12271 0.50597 0.0
C455 C 0.8962 0.13472 0.54048 0.0
C456 C 0.88212 0.0765 0.50092 0.0
C457 C 0.89147 0.04116 0.52885 0.0
C458 C 0.90323 0.05326 0.56242 0.0
C459 C 0.90552 0.09949 0.56887 0.0
H460 H 0.16931 0.60359 0.57738 0.0
H461 H 0.13155 0.64076 0.46583 0.0
H462 H 0.16511 0.52308 0.58101 0.0
H463 H 0.12721 0.55996 0.47128 0.0
H464 H 0.1204 0.41962 0.60192 0.0
H465 H 0.12437 0.50029 0.59038 0.0
H466 H 0.16154 0.45878 0.47309 0.0
H467 H 0.15742 0.37806 0.4827 0.0
C468 C 0.1601 0.59453 0.55361 0.0
C469 C 0.15076 0.62851 0.52118 0.0
C470 C 0.15773 0.54836 0.55538 0.0
C471 C 0.14584 0.53508 0.52636 0.0
C472 C 0.13644 0.56914 0.49443 0.0
C473 C 0.13893 0.61533 0.49105 0.0
C474 C 0.1294 0.42772 0.57343 0.0
C475 C 0.13862 0.39245 0.54349 0.0
C476 C 0.13163 0.47394 0.56642 0.0
C477 C 0.14326 0.48597 0.5308 0.0
C478 C 0.15252 0.45063 0.50128 0.0
C479 C 0.15017 0.40442 0.50676 0.0
H480 H 0.64131 0.63038 0.13999 0.0
H481 H 0.66078 0.61619 0.89749 0.0
H482 H 0.63719 0.54931 0.13286 0.0
H483 H 0.65628 0.53583 0.88913 0.0
H484 H 0.62972 0.41306 0.87751 0.0
H485 H 0.63383 0.49393 0.88557 0.0
H486 H 0.65363 0.46789 0.12421 0.0
H487 H 0.64992 0.38659 0.11482 0.0
C488 C 0.64462 0.61004 0.08499 0.0
C489 C 0.65141 0.6295 1.01941 0.0
C490 C 0.64231 0.56369 0.08109 0.0
C491 C 0.64644 0.53632 1.01047 0.0
C492 C 0.65297 0.55614 0.94417 0.0
C493 C 0.65557 0.60205 0.94909 0.0
C494 C 0.63499 0.42459 0.93149 0.0
C495 C 0.63951 0.39354 0.99547 0.0
C496 C 0.63735 0.4708 0.93602 0.0
C497 C 0.64399 0.48719 1.00572 0.0
C498 C 0.64841 0.45622 0.0701 0.0
C499 C 0.64635 0.40972 0.06449 0.0
H500 H 0.40269 0.88264 0.07118 0.0
H501 H 0.36618 0.91997 0.94341 0.0
H502 H 0.40731 0.96313 0.06611 0.0
H503 H 0.37062 1.00014 0.94056 0.0
H504 H 0.37732 0.14422 0.04765 0.0
H505 H 0.37328 0.06343 0.05437 0.0
H506 H 0.41111 0.02299 0.94537 0.0
H507 H 0.41503 0.10393 0.9366 0.0
C508 C 0.39568 0.90796 0.04211 0.0
C509 C 0.38411 0.89494 1.00748 0.0
C510 C 0.39832 0.95396 0.03913 0.0
C511 C 0.3893 0.98792 1.00316 0.0
C512 C 0.3777 0.97483 0.96928 0.0
C513 C 0.37519 0.92886 0.97068 0.0
C514 C 0.38475 0.11809 0.02483 0.0
C515 C 0.39646 0.13038 0.9912 0.0
C516 C 0.38244 0.07189 0.02865 0.0
C517 C 0.3919 0.03691 1.00055 0.0
C518 C 0.40369 0.04918 0.96807 0.0
C519 C 0.4059 0.09548 0.96263 0.0
H520 H 0.37277 0.40532 0.13682 0.0
H521 H 0.39396 0.39205 0.90034 0.0
H522 H 0.37626 0.48651 0.14502 0.0
H523 H 0.39715 0.474 0.90744 0.0
H524 H 0.3836 0.63501 0.91709 0.0
H525 H 0.3807 0.55305 0.90763 0.0
H526 H 0.39723 0.53178 0.15759 0.0
H527 H 0.40048 0.61333 0.16614 0.0
C528 C 0.37817 0.41985 0.08655 0.0
C529 C 0.38309 0.39246 1.01793 0.0
C530 C 0.38018 0.46624 0.09138 0.0
C531 C 0.38693 0.48654 0.02674 0.0
C532 C 0.39184 0.45921 0.95784 0.0
C533 C 0.39008 0.41239 0.95399 0.0
C534 C 0.38658 0.6128 0.97002 0.0
C535 C 0.39226 0.63046 0.04241 0.0
C536 C 0.385 0.56593 0.96433 0.0
C537 C 0.3888 0.5361 0.03173 0.0
C538 C 0.39422 0.55402 0.10478 0.0
C539 C 0.39607 0.60062 0.10965 0.0
H540 H 0.66979 0.10561 0.07234 0.0
H541 H 0.63203 0.14153 0.9598 0.0
H542 H 0.66572 0.0251 0.0775 0.0
H543 H 0.62782 0.06058 0.9667 0.0
H544 H 0.62138 0.92029 0.1 0.0
H545 H 0.62506 1.00118 0.08652 0.0
H546 H 0.66241 0.9604 0.97099 0.0
H547 H 0.6586 0.87951 0.98271 0.0
C548 C 0.66061 0.09627 0.04863 0.0
C549 C 0.65124 0.12991 1.0155 0.0
C550 C 0.65831 0.05008 0.05129 0.0
C551 C 0.64647 0.03641 0.02239 0.0
C552 C 0.63702 0.0701 0.98976 0.0
C553 C 0.63944 0.11635 0.98553 0.0
C554 C 0.63036 0.92861 0.0715 0.0
C555 C 0.63973 0.89352 0.04268 0.0
C556 C 0.63242 0.97494 0.06333 0.0
C557 C 0.64401 0.98722 0.02764 0.0
C558 C 0.65341 0.95205 0.99918 0.0
C559 C 0.65123 0.90575 1.00587 0.0
H560 H 0.15761 0.31377 0.25589 0.0
H561 H 0.13063 0.2112 0.25754 0.0
H562 H 0.15792 0.3121 0.1015 0.0
H563 H 0.13135 0.20791 0.10309 0.0
H564 H 0.12511 0.2457 0.82594 0.0
H565 H 0.12465 0.24833 0.97996 0.0
H566 H 0.16548 0.26796 0.9829 0.0
H567 H 0.16575 0.26737 0.82807 0.0
C568 C 0.15179 0.29063 0.22322 0.0
C569 C 0.14405 0.26273 0.26899 0.0
C570 C 0.15205 0.28938 0.1345 0.0
C571 C 0.1447 0.25974 0.08923 0.0
C572 C 0.13697 0.23178 0.13536 0.0
C573 C 0.13658 0.23349 0.2241 0.0
C574 C 0.13401 0.25045 0.85939 0.0
C575 C 0.14547 0.25629 0.81464 0.0
C576 C 0.13377 0.2517 0.94803 0.0
C577 C 0.14503 0.25824 0.99449 0.0
C578 C 0.15655 0.26365 0.94953 0.0
C579 C 0.15674 0.26299 0.86064 0.0
H580 H 0.87011 0.25315 0.25511 0.0
H581 H 0.91063 0.27641 0.25353 0.0
H582 H 0.86973 0.25562 0.10098 0.0
H583 H 0.91046 0.27681 0.09881 0.0
H584 H 0.90286 0.32079 0.82544 0.0
H585 H 0.90299 0.31994 0.97989 0.0
H586 H 0.87658 0.21522 0.97774 0.0
H587 H 0.87602 0.21774 0.82335 0.0
C588 C 0.879 0.25826 0.22175 0.0
C589 C 0.89041 0.26456 0.26668 0.0
C590 C 0.8788 0.25942 0.13306 0.0
C591 C 0.89007 0.2663 0.08676 0.0
C592 C 0.90152 0.27225 0.13197 0.0
C593 C 0.90166 0.2717 0.22084 0.0
C594 C 0.89704 0.2977 0.85801 0.0
C595 C 0.8894 0.26943 0.81206 0.0
C596 C 0.89719 0.29693 0.94678 0.0
C597 C 0.88983 0.2674 0.99195 0.0
C598 C 0.8822 0.23904 0.94562 0.0
C599 C 0.88192 0.24028 0.85686 0.0
H600 H 0.16561 0.76932 0.22054 0.0
H601 H 0.12548 0.74123 0.22276 0.0
H602 H 0.16532 0.77019 0.06579 0.0
H603 H 0.12496 0.74419 0.06874 0.0
H604 H 0.1312 0.70934 0.7897 0.0
H605 H 0.13193 0.70567 0.94406 0.0
H606 H 0.15741 0.81331 0.94811 0.0
H607 H 0.15712 0.81531 0.79373 0.0
C608 C 0.15671 0.76356 0.18799 0.0
C609 C 0.14559 0.755 0.23404 0.0
C610 C 0.15649 0.7644 0.0991 0.0
C611 C 0.1451 0.75736 0.05408 0.0
C612 C 0.134 0.74889 0.1006 0.0
C613 C 0.13427 0.74743 0.18927 0.0
C614 C 0.13692 0.73229 0.82366 0.0
C615 C 0.1441 0.76257 0.77941 0.0
C616 C 0.13731 0.73037 0.9124 0.0
C617 C 0.14475 0.75917 0.95926 0.0
C618 C 0.15179 0.78989 0.91461 0.0
C619 C 0.15154 0.79134 0.82588 0.0
H620 H 0.91034 0.77816 0.79514 0.0
H621 H 0.86992 0.75361 0.794 0.0
H622 H 0.9102 0.77858 0.94986 0.0
H623 H 0.86956 0.75614 0.94817 0.0
H624 H 0.87599 0.71802 0.22493 0.0
H625 H 0.8765 0.71584 0.0705 0.0
H626 H 0.90273 0.82113 0.06993 0.0
H627 H 0.90266 0.8216 0.22442 0.0
C628 C 0.90139 0.77321 0.82795 0.0
C629 C 0.89016 0.76565 0.78222 0.0
C630 C 0.90127 0.77376 0.91683 0.0
C631 C 0.88986 0.76742 0.96219 0.0
C632 C 0.87861 0.76022 0.91599 0.0
C633 C 0.87879 0.75903 0.82728 0.0
C634 C 0.88184 0.74076 0.19176 0.0
C635 C 0.88929 0.76995 0.23701 0.0
C636 C 0.88209 0.73972 0.10297 0.0
C637 C 0.88965 0.76835 0.05705 0.0
C638 C 0.89698 0.79792 0.10268 0.0
C639 C 0.89687 0.79847 0.19149 0.0
H640 H 0.667 0.76717 0.3275 0.0
H641 H 0.62677 0.74019 0.3266 0.0
H642 H 0.66693 0.76685 0.48219 0.0
H643 H 0.6265 0.74177 0.48088 0.0
H644 H 0.63312 0.70603 0.75924 0.0
H645 H 0.63372 0.70234 0.60465 0.0
H646 H 0.65907 0.81032 0.60078 0.0
H647 H 0.65887 0.81252 0.75508 0.0
C648 C 0.65812 0.76137 0.3603 0.0
C649 C 0.6469 0.75363 0.31454 0.0
C650 C 0.65804 0.76151 0.4492 0.0
C651 C 0.64669 0.75446 0.49468 0.0
C652 C 0.6355 0.74655 0.44855 0.0
C653 C 0.63562 0.7459 0.35976 0.0
C654 C 0.6388 0.72899 0.72528 0.0
C655 C 0.64595 0.75953 0.76956 0.0
C656 C 0.63911 0.72706 0.63643 0.0
C657 C 0.64646 0.756 0.58957 0.0
C658 C 0.65351 0.78681 0.63427 0.0
C659 C 0.65332 0.78835 0.72301 0.0
H660 H 0.40325 0.81067 0.74663 0.0
H661 H 0.37351 0.71799 0.7413 0.0
H662 H 0.40304 0.81352 0.59205 0.0
H663 H 0.3736 0.71959 0.58689 0.0
H664 H 0.36765 0.76655 0.31372 0.0
H665 H 0.36747 0.7672 0.46837 0.0
H666 H 0.40922 0.76837 0.46992 0.0
H667 H 0.40934 0.76927 0.31559 0.0
C668 C 0.39673 0.79064 0.71247 0.0
C669 C 0.38839 0.76413 0.75638 0.0
C670 C 0.39665 0.79208 0.6237 0.0
C671 C 0.3883 0.76677 0.57664 0.0
C672 C 0.38 0.74016 0.62081 0.0
C673 C 0.38001 0.739 0.70953 0.0
C674 C 0.37679 0.76709 0.34705 0.0
C675 C 0.3885 0.76792 0.30209 0.0
C676 C 0.3767 0.76717 0.43587 0.0
C677 C 0.38834 0.76773 0.48197 0.0
C678 C 0.40004 0.76868 0.4368 0.0
C679 C 0.40012 0.76894 0.34806 0.0
H680 H 0.66509 0.27349 0.28447 0.0
H681 H 0.62451 0.2511 0.28651 0.0
H682 H 0.66561 0.26986 0.43833 0.0
H683 H 0.62483 0.24954 0.44135 0.0
H684 H 0.63262 0.20481 0.71458 0.0
H685 H 0.63234 0.20594 0.56004 0.0
H686 H 0.65894 0.31004 0.56181 0.0
H687 H 0.65964 0.30723 0.71607 0.0
C688 C 0.65621 0.26835 0.3179 0.0
C689 C 0.64474 0.26272 0.27312 0.0
C690 C 0.65649 0.26651 0.40648 0.0
C691 C 0.64525 0.25962 0.45298 0.0
C692 C 0.63374 0.25417 0.40799 0.0
C693 C 0.63352 0.2554 0.3191 0.0
C694 C 0.63846 0.22775 0.68187 0.0
C695 C 0.6462 0.25579 0.72766 0.0
C696 C 0.63822 0.22871 0.59307 0.0
C697 C 0.64558 0.25818 0.54779 0.0
C698 C 0.65332 0.28624 0.59398 0.0
C699 C 0.65369 0.28482 0.6827 0.0
H700 H 0.37007 0.24487 0.28097 0.0
H701 H 0.41003 0.27474 0.28301 0.0
H702 H 0.36949 0.24851 0.43498 0.0
H703 H 0.40971 0.27623 0.43778 0.0
H704 H 0.40157 0.31975 0.71153 0.0
H705 H 0.40179 0.31847 0.55699 0.0
H706 H 0.37653 0.21019 0.5586 0.0
H707 H 0.37585 0.21318 0.71292 0.0
C708 C 0.3788 0.25163 0.31444 0.0
C709 C 0.39011 0.25941 0.26961 0.0
C710 C 0.3785 0.25348 0.40311 0.0
C711 C 0.38956 0.26251 0.44964 0.0
C712 C 0.40091 0.26998 0.40453 0.0
C713 C 0.40115 0.26878 0.31562 0.0
C714 C 0.39601 0.29584 0.67878 0.0
C715 C 0.38865 0.26668 0.72458 0.0
C716 C 0.39622 0.2948 0.58995 0.0
C717 C 0.38922 0.2641 0.54455 0.0
C718 C 0.38186 0.23492 0.59078 0.0
C719 C 0.38151 0.23645 0.67955 0.0
H720 H 0.0512 0.29184 0.35756 0.0
H721 H 0.04949 0.20264 0.57366 0.0
H722 H 0.02748 0.29903 0.34702 0.0
H723 H 0.02591 0.21087 0.56551 0.0
H724 H 0.9843 0.20191 0.49874 0.0
H725 H 1.00788 0.191 0.49082 0.0
H726 H 1.00813 0.33189 0.41078 0.0
H727 H 0.98451 0.34173 0.41248 0.0
C728 C 0.04574 0.27398 0.40307 0.0
C729 C 0.05225 0.24638 0.46597 0.0
C730 C 0.03212 0.27818 0.39734 0.0
C731 C 0.02464 0.25536 0.45512 0.0
C732 C 0.03123 0.22807 0.51835 0.0
C733 C 0.04481 0.22347 0.52338 0.0
C734 C 0.98932 0.23032 0.47739 0.0
C735 C 0.98236 0.27285 0.45683 0.0
C736 C 1.00294 0.22429 0.47427 0.0
C737 C 1.01006 0.26073 0.45142 0.0
C738 C 1.00309 0.30282 0.42823 0.0
C739 C 0.98946 0.30869 0.43044 0.0
H740 H 0.98336 0.81347 0.69403 0.0
H741 H 0.98543 0.72096 0.47908 0.0
H742 H 1.00709 0.80658 0.70005 0.0
H743 H 1.00907 0.71414 0.48498 0.0
H744 H 0.05119 0.67978 0.55906 0.0
H745 H 0.0276 0.68381 0.567 0.0
H746 H 0.02545 0.82917 0.62093 0.0
H747 H 0.04915 0.82474 0.61661 0.0
C748 C 0.98886 0.79166 0.64803 0.0
C749 C 0.98243 0.7677 0.58618 0.0
C750 C 1.00248 0.78778 0.65138 0.0
C751 C 1.01004 0.75983 0.59297 0.0
C752 C 1.0036 0.73537 0.53197 0.0
C753 C 0.99 0.73923 0.52865 0.0
C754 C 0.04573 0.71248 0.57428 0.0
C755 C 0.05214 0.75192 0.58737 0.0
C756 C 0.03215 0.71492 0.57766 0.0
C757 C 0.02456 0.75687 0.59408 0.0
C758 C 0.03096 0.79617 0.60885 0.0
C759 C 0.04457 0.79374 0.60544 0.0
H760 H 0.54982 0.84217 1.021 0.0
H761 H 0.55166 0.69869 0.95179 0.0
H762 H 0.52608 0.84719 0.02273 0.0
H763 H 0.52807 0.70428 0.9496 0.0
H764 H 0.48698 0.7129 0.05217 0.0
H765 H 0.51053 0.71127 0.04931 0.0
H766 H 0.50682 0.8459 0.93484 0.0
H767 H 0.48311 0.84766 0.93867 0.0
C768 C 0.54518 0.81178 1.00562 0.0
C769 C 0.55271 0.77 0.98637 0.0
C770 C 0.53156 0.81479 1.00577 0.0
C771 C 0.52512 0.77607 0.98689 0.0
C772 C 0.53266 0.73465 0.96585 0.0
C773 C 0.54624 0.73162 0.96581 0.0
C774 C 0.49117 0.74206 0.0258 0.0
C775 C 0.48314 0.78022 0.99485 0.0
C776 C 0.5047 0.7411 0.024 0.0
C777 C 0.51063 0.77821 0.99088 0.0
C778 C 0.50261 0.81684 0.96136 0.0
C779 C 0.48902 0.81786 0.96348 0.0
H780 H 0.48316 0.31074 0.17735 0.0
H781 H 0.4854 0.22235 0.95656 0.0
H782 H 0.50688 0.30448 0.18328 0.0
H783 H 0.50903 0.21615 0.9624 0.0
H784 H 0.55122 0.18081 0.03655 0.0
H785 H 0.52762 0.1846 0.04228 0.0
H786 H 0.52532 0.32862 0.10766 0.0
H787 H 0.54902 0.32436 0.10545 0.0
C788 C 0.48869 0.29002 0.12995 0.0
C789 C 0.4823 0.26698 0.06658 0.0
C790 C 0.50232 0.2865 0.13327 0.0
C791 C 0.50994 0.25982 0.07331 0.0
C792 C 0.50354 0.23637 1.01061 0.0
C793 C 0.48993 0.23988 1.00731 0.0
C794 C 0.54573 0.21316 0.05372 0.0
C795 C 0.55211 0.25225 0.07077 0.0
C796 C 0.53214 0.21548 0.05583 0.0
C797 C 0.52449 0.25698 0.07495 0.0
C798 C 0.53086 0.29594 0.09342 0.0
C799 C 0.54448 0.29362 0.09124 0.0
loop_
_geom_bond_atom_site_label_1
_geom_bond_atom_site_label_2
_geom_bond_distance
_geom_bond_site_symmetry_2
_ccdc_geom_bond_type
Ho0 C3 2.811 . S
Ho0 O20 2.322 . S
Ho0 O22 2.378 . S
Ho0 O23 2.524 . S
Ho0 O24 2.381 . S
Ho0 O25 2.669 . S
Ho0 O27 2.346 . S
Ho0 O31 2.305 . S
Ho1 C12 2.811 . S
Ho1 O21 2.346 . S
Ho1 O25 2.305 . S
Ho1 O26 2.322 . S
Ho1 O28 2.378 . S
Ho1 O29 2.524 . S
Ho1 O30 2.381 . S
Ho1 O31 2.669 . S
C2 O20 1.259 . S
C2 O21 1.268 . S
C3 Ho0 2.811 . S
C3 C4 1.488 . S
C3 O22 1.215 . S
C3 O23 1.289 . S
C4 C3 1.488 . S
C4 C5 1.348 . S
C4 C9 1.413 . S
C5 C4 1.348 . S
C5 C6 1.442 . S
C5 H32 0.930 . S
C6 C5 1.442 . S
C6 C7 1.381 . S
C6 H33 0.931 . S
C7 C6 1.381 . S
C7 C8 1.321 . S
C8 C7 1.321 . S
C8 C9 1.403 . S
C8 H34 0.934 . S
C9 C4 1.413 . S
C9 C8 1.403 . S
C9 H35 0.930 . S
C10 O24 1.275 . S
C10 O25 1.256 . S
C11 O26 1.259 . S
C11 O27 1.268 . S
C12 Ho1 2.811 . S
C12 C13 1.488 . S
C12 O28 1.215 . S
C12 O29 1.289 . S
C13 C12 1.488 . S
C13 C14 1.348 . S
C13 C18 1.413 . S
C14 C13 1.348 . S
C14 C15 1.442 . S
C14 H36 0.930 . S
C15 C14 1.442 . S
C15 C16 1.381 . S
C15 H37 0.931 . S
C16 C15 1.381 . S
C16 C17 1.321 . S
C17 C16 1.321 . S
C17 C18 1.403 . S
C17 H38 0.934 . S
C18 C13 1.413 . S
C18 C17 1.403 . S
C18 H39 0.930 . S
C19 O30 1.275 . S
C19 O31 1.256 . S
O20 Ho0 2.322 . S
O20 C2 1.259 . S
O21 Ho1 2.346 . S
O21 C2 1.268 . S
O22 Ho0 2.378 . S
O22 C3 1.215 . S
O23 Ho0 2.524 . S
O23 C3 1.289 . S
O24 Ho0 2.381 . S
O24 C10 1.275 . S
O25 Ho0 2.669 . S
O25 Ho1 2.305 . S
O25 C10 1.256 . S
O26 Ho1 2.322 . S
O26 C11 1.259 . S
O27 Ho0 2.346 . S
O27 C11 1.268 . S
O28 Ho1 2.378 . S
O28 C12 1.215 . S
O29 Ho1 2.524 . S
O29 C12 1.289 . S
O30 Ho1 2.381 . S
O30 C19 1.275 . S
O31 Ho0 2.305 . S
O31 Ho1 2.669 . S
O31 C19 1.256 . S
H32 C5 0.930 . S
H33 C6 0.931 . S
H34 C8 0.934 . S
H35 C9 0.930 . S
H36 C14 0.930 . S
H37 C15 0.931 . S
H38 C17 0.934 . S
H39 C18 0.930 . S
Ho40 C43 2.811 . S
Ho40 O60 2.322 . S
Ho40 O62 2.378 . S
Ho40 O63 2.524 . S
Ho40 O64 2.381 . S
Ho40 O65 2.669 . S
Ho40 O67 2.346 . S
Ho40 O71 2.305 . S
Ho41 C52 2.811 . S
Ho41 O61 2.346 . S
Ho41 O65 2.305 . S
Ho41 O66 2.322 . S
Ho41 O68 2.378 . S
Ho41 O69 2.524 . S
Ho41 O70 2.381 . S
Ho41 O71 2.669 . S
C42 O60 1.259 . S
C42 O61 1.268 . S
C43 Ho40 2.811 . S
C43 C44 1.488 . S
C43 O62 1.215 . S
C43 O63 1.289 . S
C44 C43 1.488 . S
C44 C45 1.348 . S
C44 C49 1.413 . S
C45 C44 1.348 . S
C45 C46 1.442 . S
C45 H72 0.930 . S
C46 C45 1.442 . S
C46 C47 1.381 . S
C46 H73 0.931 . S
C47 C46 1.381 . S
C47 C48 1.321 . S
C48 C47 1.321 . S
C48 C49 1.403 . S
C48 H74 0.934 . S
C49 C44 1.413 . S
C49 C48 1.403 . S
C49 H75 0.930 . S
C50 O64 1.275 . S
C50 O65 1.256 . S
C51 O66 1.259 . S
C51 O67 1.268 . S
C52 Ho41 2.811 . S
C52 C53 1.488 . S
C52 O68 1.215 . S
C52 O69 1.289 . S
C53 C52 1.488 . S
C53 C54 1.348 . S
C53 C58 1.413 . S
C54 C53 1.348 . S
C54 C55 1.442 . S
C54 H76 0.930 . S
C55 C54 1.442 . S
C55 C56 1.381 . S
C55 H77 0.931 . S
C56 C55 1.381 . S
C56 C57 1.321 . S
C57 C56 1.321 . S
C57 C58 1.403 . S
C57 H78 0.934 . S
C58 C53 1.413 . S
C58 C57 1.403 . S
C58 H79 0.930 . S
C59 O70 1.275 . S
C59 O71 1.256 . S
O60 Ho40 2.322 . S
O60 C42 1.259 . S
O61 Ho41 2.346 . S
O61 C42 1.268 . S
O62 Ho40 2.378 . S
O62 C43 1.215 . S
O63 Ho40 2.524 . S
O63 C43 1.289 . S
O64 Ho40 2.381 . S
O64 C50 1.275 . S
O65 Ho40 2.669 . S
O65 Ho41 2.305 . S
O65 C50 1.256 . S
O66 Ho41 2.322 . S
O66 C51 1.259 . S
O67 Ho40 2.346 . S
O67 C51 1.268 . S
O68 Ho41 2.378 . S
O68 C52 1.215 . S
O69 Ho41 2.524 . S
O69 C52 1.289 . S
O70 Ho41 2.381 . S
O70 C59 1.275 . S
O71 Ho40 2.305 . S
O71 Ho41 2.669 . S
O71 C59 1.256 . S
H72 C45 0.930 . S
H73 C46 0.931 . S
H74 C48 0.934 . S
H75 C49 0.930 . S
H76 C54 0.930 . S
H77 C55 0.931 . S
H78 C57 0.934 . S
H79 C58 0.930 . S
Ho80 C83 2.811 . S
Ho80 O100 2.322 . S
Ho80 O102 2.378 . S
Ho80 O103 2.524 . S
Ho80 O104 2.381 . S
Ho80 O105 2.669 . S
Ho80 O107 2.346 . S
Ho80 O111 2.305 . S
Ho81 C92 2.811 . S
Ho81 O101 2.346 . S
Ho81 O105 2.305 . S
Ho81 O106 2.322 . S
Ho81 O108 2.378 . S
Ho81 O109 2.524 . S
Ho81 O110 2.381 . S
Ho81 O111 2.669 . S
C82 O100 1.259 . S
C82 O101 1.268 . S
C83 Ho80 2.811 . S
C83 C84 1.488 . S
C83 O102 1.215 . S
C83 O103 1.289 . S
C84 C83 1.488 . S
C84 C85 1.348 . S
C84 C89 1.413 . S
C85 C84 1.348 . S
C85 C86 1.442 . S
C85 H112 0.930 . S
C86 C85 1.442 . S
C86 C87 1.381 . S
C86 H113 0.931 . S
C87 C86 1.381 . S
C87 C88 1.321 . S
C88 C87 1.321 . S
C88 C89 1.403 . S
C88 H114 0.934 . S
C89 C84 1.413 . S
C89 C88 1.403 . S
C89 H115 0.930 . S
C90 O104 1.275 . S
C90 O105 1.256 . S
C91 O106 1.259 . S
C91 O107 1.268 . S
C92 Ho81 2.811 . S
C92 C93 1.488 . S
C92 O108 1.215 . S
C92 O109 1.289 . S
C93 C92 1.488 . S
C93 C94 1.348 . S
C93 C98 1.413 . S
C94 C93 1.348 . S
C94 C95 1.442 . S
C94 H116 0.930 . S
C95 C94 1.442 . S
C95 C96 1.381 . S
C95 H117 0.931 . S
C96 C95 1.381 . S
C96 C97 1.321 . S
C97 C96 1.321 . S
C97 C98 1.403 . S
C97 H118 0.934 . S
C98 C93 1.413 . S
C98 C97 1.403 . S
C98 H119 0.930 . S
C99 O110 1.275 . S
C99 O111 1.256 . S
O100 Ho80 2.322 . S
O100 C82 1.259 . S
O101 Ho81 2.346 . S
O101 C82 1.268 . S
O102 Ho80 2.378 . S
O102 C83 1.215 . S
O103 Ho80 2.524 . S
O103 C83 1.289 . S
O104 Ho80 2.381 . S
O104 C90 1.275 . S
O105 Ho80 2.669 . S
O105 Ho81 2.305 . S
O105 C90 1.256 . S
O106 Ho81 2.322 . S
O106 C91 1.259 . S
O107 Ho80 2.346 . S
O107 C91 1.268 . S
O108 Ho81 2.378 . S
O108 C92 1.215 . S
O109 Ho81 2.524 . S
O109 C92 1.289 . S
O110 Ho81 2.381 . S
O110 C99 1.275 . S
O111 Ho80 2.305 . S
O111 Ho81 2.669 . S
O111 C99 1.256 . S
H112 C85 0.930 . S
H113 C86 0.931 . S
H114 C88 0.934 . S
H115 C89 0.930 . S
H116 C94 0.930 . S
H117 C95 0.931 . S
H118 C97 0.934 . S
H119 C98 0.930 . S
Ho120 C123 2.811 . S
Ho120 O140 2.322 . S
Ho120 O142 2.378 . S
Ho120 O143 2.524 . S
Ho120 O144 2.381 . S
Ho120 O145 2.669 . S
Ho120 O147 2.346 . S
Ho120 O151 2.305 . S
Ho121 C132 2.811 . S
Ho121 O141 2.346 . S
Ho121 O145 2.305 . S
Ho121 O146 2.322 . S
Ho121 O148 2.378 . S
Ho121 O149 2.524 . S
Ho121 O150 2.381 . S
Ho121 O151 2.669 . S
C122 O140 1.259 . S
C122 O141 1.268 . S
C123 Ho120 2.811 . S
C123 C124 1.488 . S
C123 O142 1.215 . S
C123 O143 1.289 . S
C124 C123 1.488 . S
C124 C125 1.348 . S
C124 C129 1.413 . S
C125 C124 1.348 . S
C125 C126 1.442 . S
C125 H152 0.930 . S
C126 C125 1.442 . S
C126 C127 1.381 . S
C126 H153 0.931 . S
C127 C126 1.381 . S
C127 C128 1.321 . S
C128 C127 1.321 . S
C128 C129 1.403 . S
C128 H154 0.934 . S
C129 C124 1.413 . S
C129 C128 1.403 . S
C129 H155 0.930 . S
C130 O144 1.275 . S
C130 O145 1.256 . S
C131 O146 1.259 . S
C131 O147 1.268 . S
C132 Ho121 2.811 . S
C132 C133 1.488 . S
C132 O148 1.215 . S
C132 O149 1.289 . S
C133 C132 1.488 . S
C133 C134 1.348 . S
C133 C138 1.413 . S
C134 C133 1.348 . S
C134 C135 1.442 . S
C134 H156 0.930 . S
C135 C134 1.442 . S
C135 C136 1.381 . S
C135 H157 0.931 . S
C136 C135 1.381 . S
C136 C137 1.321 . S
C137 C136 1.321 . S
C137 C138 1.403 . S
C137 H158 0.934 . S
C138 C133 1.413 . S
C138 C137 1.403 . S
C138 H159 0.930 . S
C139 O150 1.275 . S
C139 O151 1.256 . S
O140 Ho120 2.322 . S
O140 C122 1.259 . S
O141 Ho121 2.346 . S
O141 C122 1.268 . S
O142 Ho120 2.378 . S
O142 C123 1.215 . S
O143 Ho120 2.524 . S
O143 C123 1.289 . S
O144 Ho120 2.381 . S
O144 C130 1.275 . S
O145 Ho120 2.669 . S
O145 Ho121 2.305 . S
O145 C130 1.256 . S
O146 Ho121 2.322 . S
O146 C131 1.259 . S
O147 Ho120 2.346 . S
O147 C131 1.268 . S
O148 Ho121 2.378 . S
O148 C132 1.215 . S
O149 Ho121 2.524 . S
O149 C132 1.289 . S
O150 Ho121 2.381 . S
O150 C139 1.275 . S
O151 Ho120 2.305 . S
O151 Ho121 2.669 . S
O151 C139 1.256 . S
H152 C125 0.930 . S
H153 C126 0.931 . S
H154 C128 0.934 . S
H155 C129 0.930 . S
H156 C134 0.930 . S
H157 C135 0.931 . S
H158 C137 0.934 . S
H159 C138 0.930 . S
Ho160 C163 2.811 1_556 S
Ho160 O180 2.322 1_556 S
Ho160 O182 2.378 1_556 S
Ho160 O183 2.524 1_556 S
Ho160 O184 2.381 . S
Ho160 O185 2.669 . S
Ho160 O187 2.346 . S
Ho160 O191 2.305 1_556 S
Ho161 C172 2.811 1_554 S
Ho161 O181 2.346 . S
Ho161 O185 2.305 1_554 S
Ho161 O186 2.322 1_554 S
Ho161 O188 2.378 1_554 S
Ho161 O189 2.524 1_554 S
Ho161 O190 2.381 . S
Ho161 O191 2.669 . S
C162 O180 1.259 . S
C162 O181 1.268 . S
C163 Ho160 2.811 1_554 S
C163 C164 1.488 . S
C163 O182 1.215 . S
C163 O183 1.289 . S
C164 C163 1.488 . S
C164 C165 1.348 . S
C164 C169 1.413 . S
C165 C164 1.348 . S
C165 C166 1.442 . S
C165 H192 0.930 . S
C166 C165 1.442 . S
C166 C167 1.381 . S
C166 H193 0.931 . S
C167 C166 1.381 . S
C167 C168 1.321 . S
C168 C167 1.321 . S
C168 C169 1.403 . S
C168 H194 0.934 . S
C169 C164 1.413 . S
C169 C168 1.403 . S
C169 H195 0.930 . S
C170 O184 1.275 . S
C170 O185 1.256 . S
C171 O186 1.259 . S
C171 O187 1.268 . S
C172 Ho161 2.811 1_556 S
C172 C173 1.488 . S
C172 O188 1.215 . S
C172 O189 1.289 . S
C173 C172 1.488 . S
C173 C174 1.348 . S
C173 C178 1.413 . S
C174 C173 1.348 . S
C174 C175 1.442 . S
C174 H196 0.930 . S
C175 C174 1.442 . S
C175 C176 1.381 . S
C175 H197 0.931 . S
C176 C175 1.381 . S
C176 C177 1.321 . S
C177 C176 1.321 . S
C177 C178 1.403 . S
C177 H198 0.934 . S
C178 C173 1.413 . S
C178 C177 1.403 . S
C178 H199 0.930 . S
C179 O190 1.275 . S
C179 O191 1.256 . S
O180 Ho160 2.322 1_554 S
O180 C162 1.259 . S
O181 Ho161 2.346 . S
O181 C162 1.268 . S
O182 Ho160 2.378 1_554 S
O182 C163 1.215 . S
O183 Ho160 2.524 1_554 S
O183 C163 1.289 . S
O184 Ho160 2.381 . S
O184 C170 1.275 . S
O185 Ho160 2.669 . S
O185 Ho161 2.305 1_556 S
O185 C170 1.256 . S
O186 Ho161 2.322 1_556 S
O186 C171 1.259 . S
O187 Ho160 2.346 . S
O187 C171 1.268 . S
O188 Ho161 2.378 1_556 S
O188 C172 1.215 . S
O189 Ho161 2.524 1_556 S
O189 C172 1.289 . S
O190 Ho161 2.381 . S
O190 C179 1.275 . S
O191 Ho160 2.305 1_554 S
O191 Ho161 2.669 . S
O191 C179 1.256 . S
H192 C165 0.930 . S
H193 C166 0.931 . S
H194 C168 0.934 . S
H195 C169 0.930 . S
H196 C174 0.930 . S
H197 C175 0.931 . S
H198 C177 0.934 . S
H199 C178 0.930 . S
Ho200 C203 2.811 1_556 S
Ho200 O220 2.322 1_556 S
Ho200 O222 2.378 1_556 S
Ho200 O223 2.524 1_556 S
Ho200 O224 2.381 . S
Ho200 O225 2.669 . S
Ho200 O227 2.346 . S
Ho200 O231 2.305 1_556 S
Ho201 C212 2.811 1_554 S
Ho201 O221 2.346 . S
Ho201 O225 2.305 1_554 S
Ho201 O226 2.322 1_554 S
Ho201 O228 2.378 1_554 S
Ho201 O229 2.524 1_554 S
Ho201 O230 2.381 . S
Ho201 O231 2.669 . S
C202 O220 1.259 . S
C202 O221 1.268 . S
C203 Ho200 2.811 1_554 S
C203 C204 1.488 . S
C203 O222 1.215 . S
C203 O223 1.289 . S
C204 C203 1.488 . S
C204 C205 1.348 . S
C204 C209 1.413 . S
C205 C204 1.348 . S
C205 C206 1.442 . S
C205 H232 0.930 . S
C206 C205 1.442 . S
C206 C207 1.381 . S
C206 H233 0.931 . S
C207 C206 1.381 . S
C207 C208 1.321 . S
C208 C207 1.321 . S
C208 C209 1.403 . S
C208 H234 0.934 . S
C209 C204 1.413 . S
C209 C208 1.403 . S
C209 H235 0.930 . S
C210 O224 1.275 . S
C210 O225 1.256 . S
C211 O226 1.259 . S
C211 O227 1.268 . S
C212 Ho201 2.811 1_556 S
C212 C213 1.488 . S
C212 O228 1.215 . S
C212 O229 1.289 . S
C213 C212 1.488 . S
C213 C214 1.348 . S
C213 C218 1.413 . S
C214 C213 1.348 . S
C214 C215 1.442 . S
C214 H236 0.930 . S
C215 C214 1.442 . S
C215 C216 1.381 . S
C215 H237 0.931 . S
C216 C215 1.381 . S
C216 C217 1.321 . S
C217 C216 1.321 . S
C217 C218 1.403 . S
C217 H238 0.934 . S
C218 C213 1.413 . S
C218 C217 1.403 . S
C218 H239 0.930 . S
C219 O230 1.275 . S
C219 O231 1.256 . S
O220 Ho200 2.322 1_554 S
O220 C202 1.259 . S
O221 Ho201 2.346 . S
O221 C202 1.268 . S
O222 Ho200 2.378 1_554 S
O222 C203 1.215 . S
O223 Ho200 2.524 1_554 S
O223 C203 1.289 . S
O224 Ho200 2.381 . S
O224 C210 1.275 . S
O225 Ho200 2.669 . S
O225 Ho201 2.305 1_556 S
O225 C210 1.256 . S
O226 Ho201 2.322 1_556 S
O226 C211 1.259 . S
O227 Ho200 2.346 . S
O227 C211 1.268 . S
O228 Ho201 2.378 1_556 S
O228 C212 1.215 . S
O229 Ho201 2.524 1_556 S
O229 C212 1.289 . S
O230 Ho201 2.381 . S
O230 C219 1.275 . S
O231 Ho200 2.305 1_554 S
O231 Ho201 2.669 . S
O231 C219 1.256 . S
H232 C205 0.930 . S
H233 C206 0.931 . S
H234 C208 0.934 . S
H235 C209 0.930 . S
H236 C214 0.930 . S
H237 C215 0.931 . S
H238 C217 0.934 . S
H239 C218 0.930 . S
Ho240 C243 2.811 1_556 S
Ho240 O260 2.322 1_556 S
Ho240 O262 2.378 1_556 S
Ho240 O263 2.524 1_556 S
Ho240 O264 2.381 . S
Ho240 O265 2.669 . S
Ho240 O267 2.346 . S
Ho240 O271 2.305 1_556 S
Ho241 C252 2.811 1_554 S
Ho241 O261 2.346 . S
Ho241 O265 2.305 1_554 S
Ho241 O266 2.322 1_554 S
Ho241 O268 2.378 1_554 S
Ho241 O269 2.524 1_554 S
Ho241 O270 2.381 . S
Ho241 O271 2.669 . S
C242 O260 1.259 . S
C242 O261 1.268 . S
C243 Ho240 2.811 1_554 S
C243 C244 1.488 . S
C243 O262 1.215 . S
C243 O263 1.289 . S
C244 C243 1.488 . S
C244 C245 1.348 . S
C244 C249 1.413 . S
C245 C244 1.348 . S
C245 C246 1.442 . S
C245 H272 0.930 . S
C246 C245 1.442 . S
C246 C247 1.381 . S
C246 H273 0.931 . S
C247 C246 1.381 . S
C247 C248 1.321 . S
C248 C247 1.321 . S
C248 C249 1.403 . S
C248 H274 0.934 . S
C249 C244 1.413 . S
C249 C248 1.403 . S
C249 H275 0.930 . S
C250 O264 1.275 . S
C250 O265 1.256 . S
C251 O266 1.259 . S
C251 O267 1.268 . S
C252 Ho241 2.811 1_556 S
C252 C253 1.488 . S
C252 O268 1.215 . S
C252 O269 1.289 . S
C253 C252 1.488 . S
C253 C254 1.348 . S
C253 C258 1.413 . S
C254 C253 1.348 . S
C254 C255 1.442 . S
C254 H276 0.930 . S
C255 C254 1.442 . S
C255 C256 1.381 . S
C255 H277 0.931 . S
C256 C255 1.381 . S
C256 C257 1.321 . S
C257 C256 1.321 . S
C257 C258 1.403 . S
C257 H278 0.934 . S
C258 C253 1.413 . S
C258 C257 1.403 . S
C258 H279 0.930 . S
C259 O270 1.275 . S
C259 O271 1.256 . S
O260 Ho240 2.322 1_554 S
O260 C242 1.259 . S
O261 Ho241 2.346 . S
O261 C242 1.268 . S
O262 Ho240 2.378 1_554 S
O262 C243 1.215 . S
O263 Ho240 2.524 1_554 S
O263 C243 1.289 . S
O264 Ho240 2.381 . S
O264 C250 1.275 . S
O265 Ho240 2.669 . S
O265 Ho241 2.305 1_556 S
O265 C250 1.256 . S
O266 Ho241 2.322 1_556 S
O266 C251 1.259 . S
O267 Ho240 2.346 . S
O267 C251 1.268 . S
O268 Ho241 2.378 1_556 S
O268 C252 1.215 . S
O269 Ho241 2.524 1_556 S
O269 C252 1.289 . S
O270 Ho241 2.381 . S
O270 C259 1.275 . S
O271 Ho240 2.305 1_554 S
O271 Ho241 2.669 . S
O271 C259 1.256 . S
H272 C245 0.930 . S
H273 C246 0.931 . S
H274 C248 0.934 . S
H275 C249 0.930 . S
H276 C254 0.930 . S
H277 C255 0.931 . S
H278 C257 0.934 . S
H279 C258 0.930 . S
Ho280 C283 2.811 1_556 S
Ho280 O300 2.322 1_556 S
Ho280 O302 2.378 1_556 S
Ho280 O303 2.524 1_556 S
Ho280 O304 2.381 . S
Ho280 O305 2.669 . S
Ho280 O307 2.346 . S
Ho280 O311 2.305 1_556 S
Ho281 C292 2.811 1_554 S
Ho281 O301 2.346 . S
Ho281 O305 2.305 1_554 S
Ho281 O306 2.322 1_554 S
Ho281 O308 2.378 1_554 S
Ho281 O309 2.524 1_554 S
Ho281 O310 2.381 . S
Ho281 O311 2.669 . S
C282 O300 1.259 . S
C282 O301 1.268 . S
C283 Ho280 2.811 1_554 S
C283 C284 1.488 . S
C283 O302 1.215 . S
C283 O303 1.289 . S
C284 C283 1.488 . S
C284 C285 1.348 . S
C284 C289 1.413 . S
C285 C284 1.348 . S
C285 C286 1.442 . S
C285 H312 0.930 . S
C286 C285 1.442 . S
C286 C287 1.381 . S
C286 H313 0.931 . S
C287 C286 1.381 . S
C287 C288 1.321 . S
C288 C287 1.321 . S
C288 C289 1.403 . S
C288 H314 0.934 . S
C289 C284 1.413 . S
C289 C288 1.403 . S
C289 H315 0.930 . S
C290 O304 1.275 . S
C290 O305 1.256 . S
C291 O306 1.259 . S
C291 O307 1.268 . S
C292 Ho281 2.811 1_556 S
C292 C293 1.488 . S
C292 O308 1.215 . S
C292 O309 1.289 . S
C293 C292 1.488 . S
C293 C294 1.348 . S
C293 C298 1.413 . S
C294 C293 1.348 . S
C294 C295 1.442 . S
C294 H316 0.930 . S
C295 C294 1.442 . S
C295 C296 1.381 . S
C295 H317 0.931 . S
C296 C295 1.381 . S
C296 C297 1.321 . S
C297 C296 1.321 . S
C297 C298 1.403 . S
C297 H318 0.934 . S
C298 C293 1.413 . S
C298 C297 1.403 . S
C298 H319 0.930 . S
C299 O310 1.275 . S
C299 O311 1.256 . S
O300 Ho280 2.322 1_554 S
O300 C282 1.259 . S
O301 Ho281 2.346 . S
O301 C282 1.268 . S
O302 Ho280 2.378 1_554 S
O302 C283 1.215 . S
O303 Ho280 2.524 1_554 S
O303 C283 1.289 . S
O304 Ho280 2.381 . S
O304 C290 1.275 . S
O305 Ho280 2.669 . S
O305 Ho281 2.305 1_556 S
O305 C290 1.256 . S
O306 Ho281 2.322 1_556 S
O306 C291 1.259 . S
O307 Ho280 2.346 . S
O307 C291 1.268 . S
O308 Ho281 2.378 1_556 S
O308 C292 1.215 . S
O309 Ho281 2.524 1_556 S
O309 C292 1.289 . S
O310 Ho281 2.381 . S
O310 C299 1.275 . S
O311 Ho280 2.305 1_554 S
O311 Ho281 2.669 . S
O311 C299 1.256 . S
H312 C285 0.930 . S
H313 C286 0.931 . S
H314 C288 0.934 . S
H315 C289 0.930 . S
H316 C294 0.930 . S
H317 C295 0.931 . S
H318 C297 0.934 . S
H319 C298 0.930 . S
H320 C328 0.950 . S
H321 C333 0.950 . S
H322 C330 0.950 . S
H323 C332 0.950 . S
H324 C334 0.950 . S
H325 C336 0.950 . S
H326 C338 0.950 . S
H327 C339 0.950 . S
C328 H320 0.950 . S
C328 C329 1.386 . S
C328 C330 1.391 . S
C329 C328 1.386 . S
C329 C333 1.393 . S
C330 H322 0.950 . S
C330 C328 1.391 . S
C330 C331 1.400 . S
C331 C330 1.400 . S
C331 C332 1.398 . S
C331 C337 1.491 . S
C332 H323 0.950 . S
C332 C331 1.398 . S
C332 C333 1.391 . S
C333 H321 0.950 . S
C333 C329 1.393 . S
C333 C332 1.391 . S
C334 H324 0.950 . S
C334 C335 1.386 . S
C334 C336 1.391 . S
C335 C334 1.386 . S
C335 C339 1.393 . S
C336 H325 0.950 . S
C336 C334 1.391 . S
C336 C337 1.400 . S
C337 C331 1.491 . S
C337 C336 1.400 . S
C337 C338 1.398 . S
C338 H326 0.950 . S
C338 C337 1.398 . S
C338 C339 1.391 . S
C339 H327 0.950 . S
C339 C335 1.393 . S
C339 C338 1.391 . S
H340 C348 0.950 . S
H341 C353 0.950 . S
H342 C350 0.950 . S
H343 C352 0.950 . S
H344 C354 0.950 . S
H345 C356 0.950 . S
H346 C358 0.950 . S
H347 C359 0.950 . S
C348 H340 0.950 . S
C348 C349 1.386 . S
C348 C350 1.391 . S
C349 C348 1.386 . S
C349 C353 1.393 . S
C350 H342 0.950 . S
C350 C348 1.391 . S
C350 C351 1.400 . S
C351 C350 1.400 . S
C351 C352 1.398 . S
C351 C357 1.491 . S
C352 H343 0.950 . S
C352 C351 1.398 . S
C352 C353 1.391 . S
C353 H341 0.950 . S
C353 C349 1.393 . S
C353 C352 1.391 . S
C354 H344 0.950 . S
C354 C355 1.386 . S
C354 C356 1.391 . S
C355 C354 1.386 . S
C355 C359 1.393 . S
C356 H345 0.950 . S
C356 C354 1.391 . S
C356 C357 1.400 . S
C357 C351 1.491 . S
C357 C356 1.400 . S
C357 C358 1.398 . S
C358 H346 0.950 . S
C358 C357 1.398 . S
C358 C359 1.391 . S
C359 H347 0.950 . S
C359 C355 1.393 . S
C359 C358 1.391 . S
H360 C368 0.950 . S
H361 C373 0.950 . S
H362 C370 0.950 . S
H363 C372 0.950 . S
H364 C374 0.950 . S
H365 C376 0.950 . S
H366 C378 0.950 . S
H367 C379 0.950 . S
C368 H360 0.950 . S
C368 C369 1.386 . S
C368 C370 1.391 . S
C369 C368 1.386 . S
C369 C373 1.393 . S
C370 H362 0.950 . S
C370 C368 1.391 . S
C370 C371 1.400 . S
C371 C370 1.400 . S
C371 C372 1.398 . S
C371 C377 1.491 . S
C372 H363 0.950 . S
C372 C371 1.398 . S
C372 C373 1.391 . S
C373 H361 0.950 . S
C373 C369 1.393 . S
C373 C372 1.391 . S
C374 H364 0.950 . S
C374 C375 1.386 . S
C374 C376 1.391 . S
C375 C374 1.386 . S
C375 C379 1.393 . S
C376 H365 0.950 . S
C376 C374 1.391 . S
C376 C377 1.400 . S
C377 C371 1.491 . S
C377 C376 1.400 . S
C377 C378 1.398 . S
C378 H366 0.950 . S
C378 C377 1.398 . S
C378 C379 1.391 . S
C379 H367 0.950 . S
C379 C375 1.393 . S
C379 C378 1.391 . S
H380 C388 0.950 . S
H381 C393 0.950 . S
H382 C390 0.950 . S
H383 C392 0.950 . S
H384 C394 0.950 . S
H385 C396 0.950 . S
H386 C398 0.950 . S
H387 C399 0.950 . S
C388 H380 0.950 . S
C388 C389 1.386 . S
C388 C390 1.391 . S
C389 C388 1.386 . S
C389 C393 1.393 . S
C390 H382 0.950 . S
C390 C388 1.391 . S
C390 C391 1.400 . S
C391 C390 1.400 . S
C391 C392 1.398 . S
C391 C397 1.491 . S
C392 H383 0.950 . S
C392 C391 1.398 . S
C392 C393 1.391 . S
C393 H381 0.950 . S
C393 C389 1.393 . S
C393 C392 1.391 . S
C394 H384 0.950 . S
C394 C395 1.386 . S
C394 C396 1.391 . S
C395 C394 1.386 . S
C395 C399 1.393 . S
C396 H385 0.950 . S
C396 C394 1.391 . S
C396 C397 1.400 . S
C397 C391 1.491 . S
C397 C396 1.400 . S
C397 C398 1.398 . S
C398 H386 0.950 . S
C398 C397 1.398 . S
C398 C399 1.391 . S
C399 H387 0.950 . S
C399 C395 1.393 . S
C399 C398 1.391 . S
H400 C408 0.950 . S
H401 C413 0.950 . S
H402 C410 0.950 . S
H403 C412 0.950 . S
H404 C414 0.950 . S
H405 C416 0.950 . S
H406 C418 0.950 . S
H407 C419 0.950 . S
C408 H400 0.950 . S
C408 C409 1.386 . S
C408 C410 1.391 . S
C409 C408 1.386 . S
C409 C413 1.393 . S
C410 H402 0.950 . S
C410 C408 1.391 . S
C410 C411 1.400 . S
C411 C410 1.400 . S
C411 C412 1.398 . S
C411 C417 1.491 1_565 S
C412 H403 0.950 . S
C412 C411 1.398 . S
C412 C413 1.391 . S
C413 H401 0.950 . S
C413 C409 1.393 . S
C413 C412 1.391 . S
C414 H404 0.950 . S
C414 C415 1.386 . S
C414 C416 1.391 . S
C415 C414 1.386 . S
C415 C419 1.393 . S
C416 H405 0.950 . S
C416 C414 1.391 . S
C416 C417 1.400 . S
C417 C411 1.491 1_545 S
C417 C416 1.400 . S
C417 C418 1.398 . S
C418 H406 0.950 . S
C418 C417 1.398 . S
C418 C419 1.391 . S
C419 H407 0.950 . S
C419 C415 1.393 . S
C419 C418 1.391 . S
H420 C428 0.950 . S
H421 C433 0.950 . S
H422 C430 0.950 . S
H423 C432 0.950 . S
H424 C434 0.950 . S
H425 C436 0.950 . S
H426 C438 0.950 . S
H427 C439 0.950 . S
C428 H420 0.950 . S
C428 C429 1.386 . S
C428 C430 1.391 . S
C429 C428 1.386 . S
C429 C433 1.393 . S
C430 H422 0.950 . S
C430 C428 1.391 . S
C430 C431 1.400 . S
C431 C430 1.400 . S
C431 C432 1.398 . S
C431 C437 1.491 . S
C432 H423 0.950 . S
C432 C431 1.398 . S
C432 C433 1.391 . S
C433 H421 0.950 . S
C433 C429 1.393 . S
C433 C432 1.391 . S
C434 H424 0.950 . S
C434 C435 1.386 . S
C434 C436 1.391 . S
C435 C434 1.386 . S
C435 C439 1.393 . S
C436 H425 0.950 . S
C436 C434 1.391 . S
C436 C437 1.400 . S
C437 C431 1.491 . S
C437 C436 1.400 . S
C437 C438 1.398 . S
C438 H426 0.950 . S
C438 C437 1.398 . S
C438 C439 1.391 . S
C439 H427 0.950 . S
C439 C435 1.393 . S
C439 C438 1.391 . S
H440 C448 0.950 . S
H441 C453 0.950 . S
H442 C450 0.950 . S
H443 C452 0.950 . S
H444 C454 0.950 . S
H445 C456 0.950 . S
H446 C458 0.950 . S
H447 C459 0.950 . S
C448 H440 0.950 . S
C448 C449 1.386 . S
C448 C450 1.391 . S
C449 C448 1.386 . S
C449 C453 1.393 . S
C450 H442 0.950 . S
C450 C448 1.391 . S
C450 C451 1.400 . S
C451 C450 1.400 . S
C451 C452 1.398 . S
C451 C457 1.491 1_565 S
C452 H443 0.950 . S
C452 C451 1.398 . S
C452 C453 1.391 . S
C453 H441 0.950 . S
C453 C449 1.393 . S
C453 C452 1.391 . S
C454 H444 0.950 . S
C454 C455 1.386 . S
C454 C456 1.391 . S
C455 C454 1.386 . S
C455 C459 1.393 . S
C456 H445 0.950 . S
C456 C454 1.391 . S
C456 C457 1.400 . S
C457 C451 1.491 1_545 S
C457 C456 1.400 . S
C457 C458 1.398 . S
C458 H446 0.950 . S
C458 C457 1.398 . S
C458 C459 1.391 . S
C459 H447 0.950 . S
C459 C455 1.393 . S
C459 C458 1.391 . S
H460 C468 0.950 . S
H461 C473 0.950 . S
H462 C470 0.950 . S
H463 C472 0.950 . S
H464 C474 0.950 . S
H465 C476 0.950 . S
H466 C478 0.950 . S
H467 C479 0.950 . S
C468 H460 0.950 . S
C468 C469 1.386 . S
C468 C470 1.391 . S
C469 C468 1.386 . S
C469 C473 1.393 . S
C470 H462 0.950 . S
C470 C468 1.391 . S
C470 C471 1.400 . S
C471 C470 1.400 . S
C471 C472 1.398 . S
C471 C477 1.491 . S
C472 H463 0.950 . S
C472 C471 1.398 . S
C472 C473 1.391 . S
C473 H461 0.950 . S
C473 C469 1.393 . S
C473 C472 1.391 . S
C474 H464 0.950 . S
C474 C475 1.386 . S
C474 C476 1.391 . S
C475 C474 1.386 . S
C475 C479 1.393 . S
C476 H465 0.950 . S
C476 C474 1.391 . S
C476 C477 1.400 . S
C477 C471 1.491 . S
C477 C476 1.400 . S
C477 C478 1.398 . S
C478 H466 0.950 . S
C478 C477 1.398 . S
C478 C479 1.391 . S
C479 H467 0.950 . S
C479 C475 1.393 . S
C479 C478 1.391 . S
H480 C488 0.950 . S
H481 C493 0.950 . S
H482 C490 0.950 . S
H483 C492 0.950 . S
H484 C494 0.950 . S
H485 C496 0.950 . S
H486 C498 0.950 . S
H487 C499 0.950 . S
C488 H480 0.950 . S
C488 C489 1.386 1_554 S
C488 C490 1.391 . S
C489 C488 1.386 1_556 S
C489 C493 1.393 . S
C490 H482 0.950 . S
C490 C488 1.391 . S
C490 C491 1.400 1_554 S
C491 C490 1.400 1_556 S
C491 C492 1.398 . S
C491 C497 1.491 . S
C492 H483 0.950 . S
C492 C491 1.398 . S
C492 C493 1.391 . S
C493 H481 0.950 . S
C493 C489 1.393 . S
C493 C492 1.391 . S
C494 H484 0.950 . S
C494 C495 1.386 . S
C494 C496 1.391 . S
C495 C494 1.386 . S
C495 C499 1.393 1_556 S
C496 H485 0.950 . S
C496 C494 1.391 . S
C496 C497 1.400 . S
C497 C491 1.491 . S
C497 C496 1.400 . S
C497 C498 1.398 1_556 S
C498 H486 0.950 . S
C498 C497 1.398 1_554 S
C498 C499 1.391 . S
C499 H487 0.950 . S
C499 C495 1.393 1_554 S
C499 C498 1.391 . S
H500 C508 0.950 . S
H501 C513 0.950 . S
H502 C510 0.950 . S
H503 C512 0.950 . S
H504 C514 0.950 . S
H505 C516 0.950 . S
H506 C518 0.950 . S
H507 C519 0.950 . S
C508 H500 0.950 . S
C508 C509 1.386 1_554 S
C508 C510 1.391 . S
C509 C508 1.386 1_556 S
C509 C513 1.393 . S
C510 H502 0.950 . S
C510 C508 1.391 . S
C510 C511 1.400 1_554 S
C511 C510 1.400 1_556 S
C511 C512 1.398 . S
C511 C517 1.491 1_565 S
C512 H503 0.950 . S
C512 C511 1.398 . S
C512 C513 1.391 . S
C513 H501 0.950 . S
C513 C509 1.393 . S
C513 C512 1.391 . S
C514 H504 0.950 . S
C514 C515 1.386 . S
C514 C516 1.391 . S
C515 C514 1.386 . S
C515 C519 1.393 1_556 S
C516 H505 0.950 . S
C516 C514 1.391 . S
C516 C517 1.400 . S
C517 C511 1.491 1_545 S
C517 C516 1.400 . S
C517 C518 1.398 1_556 S
C518 H506 0.950 . S
C518 C517 1.398 1_554 S
C518 C519 1.391 . S
C519 H507 0.950 . S
C519 C515 1.393 1_554 S
C519 C518 1.391 . S
H520 C528 0.950 . S
H521 C533 0.950 . S
H522 C530 0.950 . S
H523 C532 0.950 . S
H524 C534 0.950 . S
H525 C536 0.950 . S
H526 C538 0.950 . S
H527 C539 0.950 . S
C528 H520 0.950 . S
C528 C529 1.386 . S
C528 C530 1.391 . S
C529 C528 1.386 . S
C529 C533 1.393 1_554 S
C530 H522 0.950 . S
C530 C528 1.391 . S
C530 C531 1.400 . S
C531 C530 1.400 . S
C531 C532 1.398 1_554 S
C531 C537 1.491 . S
C532 H523 0.950 . S
C532 C531 1.398 1_556 S
C532 C533 1.391 . S
C533 H521 0.950 . S
C533 C529 1.393 1_556 S
C533 C532 1.391 . S
C534 H524 0.950 . S
C534 C535 1.386 1_556 S
C534 C536 1.391 . S
C535 C534 1.386 1_554 S
C535 C539 1.393 . S
C536 H525 0.950 . S
C536 C534 1.391 . S
C536 C537 1.400 1_556 S
C537 C531 1.491 . S
C537 C536 1.400 1_554 S
C537 C538 1.398 . S
C538 H526 0.950 . S
C538 C537 1.398 . S
C538 C539 1.391 . S
C539 H527 0.950 . S
C539 C535 1.393 . S
C539 C538 1.391 . S
H540 C548 0.950 . S
H541 C553 0.950 . S
H542 C550 0.950 . S
H543 C552 0.950 . S
H544 C554 0.950 . S
H545 C556 0.950 . S
H546 C558 0.950 . S
H547 C559 0.950 . S
C548 H540 0.950 . S
C548 C549 1.386 1_556 S
C548 C550 1.391 . S
C549 C548 1.386 1_554 S
C549 C553 1.393 . S
C550 H542 0.950 . S
C550 C548 1.391 . S
C550 C551 1.400 1_556 S
C551 C550 1.400 1_554 S
C551 C552 1.398 . S
C551 C557 1.491 1_545 S
C552 H543 0.950 . S
C552 C551 1.398 . S
C552 C553 1.391 . S
C553 H541 0.950 . S
C553 C549 1.393 . S
C553 C552 1.391 . S
C554 H544 0.950 . S
C554 C555 1.386 . S
C554 C556 1.391 . S
C555 C554 1.386 . S
C555 C559 1.393 1_554 S
C556 H545 0.950 . S
C556 C554 1.391 . S
C556 C557 1.400 . S
C557 C551 1.491 1_565 S
C557 C556 1.400 . S
C557 C558 1.398 1_554 S
C558 H546 0.950 . S
C558 C557 1.398 1_556 S
C558 C559 1.391 . S
C559 H547 0.950 . S
C559 C555 1.393 1_556 S
C559 C558 1.391 . S
H560 C568 0.950 . S
H561 C573 0.950 . S
H562 C570 0.950 1_556 S
H563 C572 0.950 1_556 S
H564 C574 0.950 . S
H565 C576 0.950 . S
H566 C578 0.950 . S
H567 C579 0.950 . S
C568 H560 0.950 . S
C568 C569 1.386 . S
C568 C570 1.391 . S
C569 C568 1.386 . S
C569 C573 1.393 . S
C570 H562 0.950 1_554 S
C570 C568 1.391 . S
C570 C571 1.400 1_554 S
C571 C570 1.400 1_556 S
C571 C572 1.398 1_556 S
C571 C577 1.491 . S
C572 H563 0.950 1_554 S
C572 C571 1.398 1_554 S
C572 C573 1.391 . S
C573 H561 0.950 . S
C573 C569 1.393 . S
C573 C572 1.391 . S
C574 H564 0.950 . S
C574 C575 1.386 . S
C574 C576 1.391 . S
C575 C574 1.386 . S
C575 C579 1.393 . S
C576 H565 0.950 . S
C576 C574 1.391 . S
C576 C577 1.400 . S
C577 C571 1.491 . S
C577 C576 1.400 . S
C577 C578 1.398 . S
C578 H566 0.950 . S
C578 C577 1.398 . S
C578 C579 1.391 . S
C579 H567 0.950 . S
C579 C575 1.393 . S
C579 C578 1.391 . S
H580 C588 0.950 . S
H581 C593 0.950 . S
H582 C590 0.950 . S
H583 C592 0.950 1_556 S
H584 C594 0.950 . S
H585 C596 0.950 . S
H586 C598 0.950 . S
H587 C599 0.950 . S
C588 H580 0.950 . S
C588 C589 1.386 . S
C588 C590 1.391 . S
C589 C588 1.386 . S
C589 C593 1.393 . S
C590 H582 0.950 . S
C590 C588 1.391 . S
C590 C591 1.400 1_554 S
C591 C590 1.400 1_556 S
C591 C592 1.398 1_556 S
C591 C597 1.491 . S
C592 H583 0.950 1_554 S
C592 C591 1.398 1_554 S
C592 C593 1.391 . S
C593 H581 0.950 . S
C593 C589 1.393 . S
C593 C592 1.391 . S
C594 H584 0.950 . S
C594 C595 1.386 . S
C594 C596 1.391 . S
C595 C594 1.386 . S
C595 C599 1.393 . S
C596 H585 0.950 . S
C596 C594 1.391 . S
C596 C597 1.400 . S
C597 C591 1.491 . S
C597 C596 1.400 . S
C597 C598 1.398 . S
C598 H586 0.950 . S
C598 C597 1.398 . S
C598 C599 1.391 . S
C599 H587 0.950 . S
C599 C595 1.393 . S
C599 C598 1.391 . S
H600 C608 0.950 . S
H601 C613 0.950 . S
H602 C610 0.950 . S
H603 C612 0.950 . S
H604 C614 0.950 . S
H605 C616 0.950 1_554 S
H606 C618 0.950 . S
H607 C619 0.950 . S
C608 H600 0.950 . S
C608 C609 1.386 . S
C608 C610 1.391 . S
C609 C608 1.386 . S
C609 C613 1.393 . S
C610 H602 0.950 . S
C610 C608 1.391 . S
C610 C611 1.400 . S
C611 C610 1.400 . S
C611 C612 1.398 . S
C611 C617 1.491 . S
C612 H603 0.950 . S
C612 C611 1.398 . S
C612 C613 1.391 . S
C613 H601 0.950 . S
C613 C609 1.393 . S
C613 C612 1.391 . S
C614 H604 0.950 . S
C614 C615 1.386 . S
C614 C616 1.391 . S
C615 C614 1.386 . S
C615 C619 1.393 . S
C616 H605 0.950 1_556 S
C616 C614 1.391 . S
C616 C617 1.400 1_556 S
C617 C611 1.491 . S
C617 C616 1.400 1_554 S
C617 C618 1.398 1_554 S
C618 H606 0.950 . S
C618 C617 1.398 1_556 S
C618 C619 1.391 . S
C619 H607 0.950 . S
C619 C615 1.393 . S
C619 C618 1.391 . S
H620 C628 0.950 . S
H621 C633 0.950 . S
H622 C630 0.950 1_554 S
H623 C632 0.950 . S
H624 C634 0.950 . S
H625 C636 0.950 . S
H626 C638 0.950 . S
H627 C639 0.950 . S
C628 H620 0.950 . S
C628 C629 1.386 . S
C628 C630 1.391 . S
C629 C628 1.386 . S
C629 C633 1.393 . S
C630 H622 0.950 1_556 S
C630 C628 1.391 . S
C630 C631 1.400 1_556 S
C631 C630 1.400 1_554 S
C631 C632 1.398 1_554 S
C631 C637 1.491 . S
C632 H623 0.950 . S
C632 C631 1.398 1_556 S
C632 C633 1.391 . S
C633 H621 0.950 . S
C633 C629 1.393 . S
C633 C632 1.391 . S
C634 H624 0.950 . S
C634 C635 1.386 . S
C634 C636 1.391 . S
C635 C634 1.386 . S
C635 C639 1.393 . S
C636 H625 0.950 . S
C636 C634 1.391 . S
C636 C637 1.400 . S
C637 C631 1.491 . S
C637 C636 1.400 . S
C637 C638 1.398 . S
C638 H626 0.950 . S
C638 C637 1.398 . S
C638 C639 1.391 . S
C639 H627 0.950 . S
C639 C635 1.393 . S
C639 C638 1.391 . S
H640 C648 0.950 . S
H641 C653 0.950 . S
H642 C650 0.950 . S
H643 C652 0.950 . S
H644 C654 0.950 . S
H645 C656 0.950 . S
H646 C658 0.950 . S
H647 C659 0.950 . S
C648 H640 0.950 . S
C648 C649 1.386 . S
C648 C650 1.391 . S
C649 C648 1.386 . S
C649 C653 1.393 . S
C650 H642 0.950 . S
C650 C648 1.391 . S
C650 C651 1.400 . S
C651 C650 1.400 . S
C651 C652 1.398 . S
C651 C657 1.491 . S
C652 H643 0.950 . S
C652 C651 1.398 . S
C652 C653 1.391 . S
C653 H641 0.950 . S
C653 C649 1.393 . S
C653 C652 1.391 . S
C654 H644 0.950 . S
C654 C655 1.386 . S
C654 C656 1.391 . S
C655 C654 1.386 . S
C655 C659 1.393 . S
C656 H645 0.950 . S
C656 C654 1.391 . S
C656 C657 1.400 . S
C657 C651 1.491 . S
C657 C656 1.400 . S
C657 C658 1.398 . S
C658 H646 0.950 . S
C658 C657 1.398 . S
C658 C659 1.391 . S
C659 H647 0.950 . S
C659 C655 1.393 . S
C659 C658 1.391 . S
H660 C668 0.950 . S
H661 C673 0.950 . S
H662 C670 0.950 . S
H663 C672 0.950 . S
H664 C674 0.950 . S
H665 C676 0.950 . S
H666 C678 0.950 . S
H667 C679 0.950 . S
C668 H660 0.950 . S
C668 C669 1.386 . S
C668 C670 1.391 . S
C669 C668 1.386 . S
C669 C673 1.393 . S
C670 H662 0.950 . S
C670 C668 1.391 . S
C670 C671 1.400 . S
C671 C670 1.400 . S
C671 C672 1.398 . S
C671 C677 1.491 . S
C672 H663 0.950 . S
C672 C671 1.398 . S
C672 C673 1.391 . S
C673 H661 0.950 . S
C673 C669 1.393 . S
C673 C672 1.391 . S
C674 H664 0.950 . S
C674 C675 1.386 . S
C674 C676 1.391 . S
C675 C674 1.386 . S
C675 C679 1.393 . S
C676 H665 0.950 . S
C676 C674 1.391 . S
C676 C677 1.400 . S
C677 C671 1.491 . S
C677 C676 1.400 . S
C677 C678 1.398 . S
C678 H666 0.950 . S
C678 C677 1.398 . S
C678 C679 1.391 . S
C679 H667 0.950 . S
C679 C675 1.393 . S
C679 C678 1.391 . S
H680 C688 0.950 . S
H681 C693 0.950 . S
H682 C690 0.950 . S
H683 C692 0.950 . S
H684 C694 0.950 . S
H685 C696 0.950 . S
H686 C698 0.950 . S
H687 C699 0.950 . S
C688 H680 0.950 . S
C688 C689 1.386 . S
C688 C690 1.391 . S
C689 C688 1.386 . S
C689 C693 1.393 . S
C690 H682 0.950 . S
C690 C688 1.391 . S
C690 C691 1.400 . S
C691 C690 1.400 . S
C691 C692 1.398 . S
C691 C697 1.491 . S
C692 H683 0.950 . S
C692 C691 1.398 . S
C692 C693 1.391 . S
C693 H681 0.950 . S
C693 C689 1.393 . S
C693 C692 1.391 . S
C694 H684 0.950 . S
C694 C695 1.386 . S
C694 C696 1.391 . S
C695 C694 1.386 . S
C695 C699 1.393 . S
C696 H685 0.950 . S
C696 C694 1.391 . S
C696 C697 1.400 . S
C697 C691 1.491 . S
C697 C696 1.400 . S
C697 C698 1.398 . S
C698 H686 0.950 . S
C698 C697 1.398 . S
C698 C699 1.391 . S
C699 H687 0.950 . S
C699 C695 1.393 . S
C699 C698 1.391 . S
H700 C708 0.950 . S
H701 C713 0.950 . S
H702 C710 0.950 . S
H703 C712 0.950 . S
H704 C714 0.950 . S
H705 C716 0.950 . S
H706 C718 0.950 . S
H707 C719 0.950 . S
C708 H700 0.950 . S
C708 C709 1.386 . S
C708 C710 1.391 . S
C709 C708 1.386 . S
C709 C713 1.393 . S
C710 H702 0.950 . S
C710 C708 1.391 . S
C710 C711 1.400 . S
C711 C710 1.400 . S
C711 C712 1.398 . S
C711 C717 1.491 . S
C712 H703 0.950 . S
C712 C711 1.398 . S
C712 C713 1.391 . S
C713 H701 0.950 . S
C713 C709 1.393 . S
C713 C712 1.391 . S
C714 H704 0.950 . S
C714 C715 1.386 . S
C714 C716 1.391 . S
C715 C714 1.386 . S
C715 C719 1.393 . S
C716 H705 0.950 . S
C716 C714 1.391 . S
C716 C717 1.400 . S
C717 C711 1.491 . S
C717 C716 1.400 . S
C717 C718 1.398 . S
C718 H706 0.950 . S
C718 C717 1.398 . S
C718 C719 1.391 . S
C719 H707 0.950 . S
C719 C715 1.393 . S
C719 C718 1.391 . S
H720 C728 0.950 . S
H721 C733 0.950 . S
H722 C730 0.950 . S
H723 C732 0.950 . S
H724 C734 0.950 . S
H725 C736 0.950 . S
H726 C738 0.950 . S
H727 C739 0.950 . S
C728 H720 0.950 . S
C728 C729 1.386 . S
C728 C730 1.391 . S
C729 C728 1.386 . S
C729 C733 1.393 . S
C730 H722 0.950 . S
C730 C728 1.391 . S
C730 C731 1.400 . S
C731 C730 1.400 . S
C731 C732 1.398 . S
C731 C737 1.491 1_455 S
C732 H723 0.950 . S
C732 C731 1.398 . S
C732 C733 1.391 . S
C733 H721 0.950 . S
C733 C729 1.393 . S
C733 C732 1.391 . S
C734 H724 0.950 . S
C734 C735 1.386 . S
C734 C736 1.391 . S
C735 C734 1.386 . S
C735 C739 1.393 . S
C736 H725 0.950 . S
C736 C734 1.391 . S
C736 C737 1.400 . S
C737 C731 1.491 1_655 S
C737 C736 1.400 . S
C737 C738 1.398 . S
C738 H726 0.950 . S
C738 C737 1.398 . S
C738 C739 1.391 . S
C739 H727 0.950 . S
C739 C735 1.393 . S
C739 C738 1.391 . S
H740 C748 0.950 . S
H741 C753 0.950 . S
H742 C750 0.950 . S
H743 C752 0.950 . S
H744 C754 0.950 . S
H745 C756 0.950 . S
H746 C758 0.950 . S
H747 C759 0.950 . S
C748 H740 0.950 . S
C748 C749 1.386 . S
C748 C750 1.391 . S
C749 C748 1.386 . S
C749 C753 1.393 . S
C750 H742 0.950 . S
C750 C748 1.391 . S
C750 C751 1.400 . S
C751 C750 1.400 . S
C751 C752 1.398 . S
C751 C757 1.491 1_655 S
C752 H743 0.950 . S
C752 C751 1.398 . S
C752 C753 1.391 . S
C753 H741 0.950 . S
C753 C749 1.393 . S
C753 C752 1.391 . S
C754 H744 0.950 . S
C754 C755 1.386 . S
C754 C756 1.391 . S
C755 C754 1.386 . S
C755 C759 1.393 . S
C756 H745 0.950 . S
C756 C754 1.391 . S
C756 C757 1.400 . S
C757 C751 1.491 1_455 S
C757 C756 1.400 . S
C757 C758 1.398 . S
C758 H746 0.950 . S
C758 C757 1.398 . S
C758 C759 1.391 . S
C759 H747 0.950 . S
C759 C755 1.393 . S
C759 C758 1.391 . S
H760 C768 0.950 . S
H761 C773 0.950 . S
H762 C770 0.950 . S
H763 C772 0.950 . S
H764 C774 0.950 . S
H765 C776 0.950 . S
H766 C778 0.950 . S
H767 C779 0.950 . S
C768 H760 0.950 . S
C768 C769 1.386 . S
C768 C770 1.391 . S
C769 C768 1.386 . S
C769 C773 1.393 . S
C770 H762 0.950 . S
C770 C768 1.391 . S
C770 C771 1.400 . S
C771 C770 1.400 . S
C771 C772 1.398 . S
C771 C777 1.491 . S
C772 H763 0.950 . S
C772 C771 1.398 . S
C772 C773 1.391 . S
C773 H761 0.950 . S
C773 C769 1.393 . S
C773 C772 1.391 . S
C774 H764 0.950 . S
C774 C775 1.386 . S
C774 C776 1.391 . S
C775 C774 1.386 . S
C775 C779 1.393 . S
C776 H765 0.950 . S
C776 C774 1.391 . S
C776 C777 1.400 . S
C777 C771 1.491 . S
C777 C776 1.400 . S
C777 C778 1.398 . S
C778 H766 0.950 . S
C778 C777 1.398 . S
C778 C779 1.391 . S
C779 H767 0.950 . S
C779 C775 1.393 . S
C779 C778 1.391 . S
H780 C788 0.950 . S
H781 C793 0.950 . S
H782 C790 0.950 . S
H783 C792 0.950 . S
H784 C794 0.950 . S
H785 C796 0.950 . S
H786 C798 0.950 . S
H787 C799 0.950 . S
C788 H780 0.950 . S
C788 C789 1.386 . S
C788 C790 1.391 . S
C789 C788 1.386 . S
C789 C793 1.393 . S
C790 H782 0.950 . S
C790 C788 1.391 . S
C790 C791 1.400 . S
C791 C790 1.400 . S
C791 C792 1.398 . S
C791 C797 1.491 . S
C792 H783 0.950 . S
C792 C791 1.398 . S
C792 C793 1.391 . S
C793 H781 0.950 . S
C793 C789 1.393 . S
C793 C792 1.391 . S
C794 H784 0.950 . S
C794 C795 1.386 . S
C794 C796 1.391 . S
C795 C794 1.386 . S
C795 C799 1.393 . S
C796 H785 0.950 . S
C796 C794 1.391 . S
C796 C797 1.400 . S
C797 C791 1.491 . S
C797 C796 1.400 . S
C797 C798 1.398 . S
C798 H786 0.950 . S
C798 C797 1.398 . S
C798 C799 1.391 . S
C799 H787 0.950 . S
C799 C795 1.393 . S
C799 C798 1.391 . S
C329 C7 1.685 . S
C335 C296 1.684 . S
C349 C256 1.679 . S
C355 C47 1.678 . S
C369 C207 1.680 . S
C375 C96 1.679 . S
C389 C167 1.681 . S
C395 C136 1.680 . S
C409 C90 1.561 . S
C415 C10 1.571 . S
C429 C50 1.586 . S
C435 C130 1.573 . S
C449 C139 1.572 . S
C455 C59 1.559 . S
C469 C99 1.590 . S
C475 C19 1.581 . S
C489 C170 1.460 . S
C495 C250 1.460 . S
C509 C210 1.451 . S
C515 C290 1.453 . S
C529 C299 1.459 . S
C535 C219 1.458 . S
C549 C259 1.440 . S
C555 C179 1.443 . S
C569 C11 2.067 . S
C575 C2 2.067 . S
C589 C51 2.082 . S
C595 C42 2.082 . S
C609 C91 2.066 . S
C615 C82 2.066 . S
C629 C122 2.079 . S
C635 C131 2.079 . S
C649 C162 2.079 . S
C655 C171 2.079 . S
C669 C211 2.065 . S
C675 C202 2.065 . S
C689 C242 2.074 . S
C695 C251 2.074 . S
C709 C282 2.081 . S
C715 C291 2.081 . S
C729 C16 2.321 . S
C735 C56 2.318 . S
C749 C127 2.324 . S
C755 C87 2.314 . S
C769 C176 2.326 . S
C775 C216 2.316 . S
C789 C287 2.323 . S
C795 C247 2.318 . S
