# Generated by pormake.
# Topology irl, (4)-cn, num edge types: 1
# Building blocks:
#     Node 0, Type 0, BuildingBlock: ESEHIV_clean_sbu_0, # of connection points: 4
#     Node 1, Type 0, BuildingBlock: ESEHIV_clean_sbu_0, # of connection points: 4
#     Node 2, Type 0, BuildingBlock: ESEHIV_clean_sbu_0, # of connection points: 4
#     Node 3, Type 0, BuildingBlock: ESEHIV_clean_sbu_0, # of connection points: 4
#     Node 4, Type 0, BuildingBlock: ESEHIV_clean_sbu_0, # of connection points: 4
#     Node 5, Type 0, BuildingBlock: ESEHIV_clean_sbu_0, # of connection points: 4
#     Node 6, Type 0, BuildingBlock: ESEHIV_clean_sbu_0, # of connection points: 4
#     Node 7, Type 0, BuildingBlock: ESEHIV_clean_sbu_0, # of connection points: 4
#     Edge 8, Type (0, 0), BuildingBlock: CIFDUS_clean_linker_0, # of connection points: 2
#     Edge 9, Type (0, 0), BuildingBlock: CIFDUS_clean_linker_0, # of connection points: 2
#     Edge 10, Type (0, 0), BuildingBlock: CIFDUS_clean_linker_0, # of connection points: 2
#     Edge 11, Type (0, 0), BuildingBlock: CIFDUS_clean_linker_0, # of connection points: 2
#     Edge 12, Type (0, 0), BuildingBlock: CIFDUS_clean_linker_0, # of connection points: 2
#     Edge 13, Type (0, 0), BuildingBlock: CIFDUS_clean_linker_0, # of connection points: 2
#     Edge 14, Type (0, 0), BuildingBlock: CIFDUS_clean_linker_0, # of connection points: 2
#     Edge 15, Type (0, 0), BuildingBlock: CIFDUS_clean_linker_0, # of connection points: 2
#     Edge 16, Type (0, 0), BuildingBlock: CIFDUS_clean_linker_0, # of connection points: 2
#     Edge 17, Type (0, 0), BuildingBlock: CIFDUS_clean_linker_0, # of connection points: 2
#     Edge 18, Type (0, 0), BuildingBlock: CIFDUS_clean_linker_0, # of connection points: 2
#     Edge 19, Type (0, 0), BuildingBlock: CIFDUS_clean_linker_0, # of connection points: 2
#     Edge 20, Type (0, 0), BuildingBlock: CIFDUS_clean_linker_0, # of connection points: 2
#     Edge 21, Type (0, 0), BuildingBlock: CIFDUS_clean_linker_0, # of connection points: 2
#     Edge 22, Type (0, 0), BuildingBlock: CIFDUS_clean_linker_0, # of connection points: 2
#     Edge 23, Type (0, 0), BuildingBlock: CIFDUS_clean_linker_0, # of connection points: 2
# Relax obj value: 0.080
# Max RMSD: 0.129
# Mean RMSD: 0.129
data_MOF--net-irl--node1-ESEHIV_clean_sbu_0--edge1-CIFDUS_clean_linker_0
_symmetry_space_group_name_H-M    P1
_symmetry_Int_Tables_number       1
_symmetry_cell_setting            triclinic
loop_
_symmetry_equiv_pos_as_xyz
'x, y, z'
_cell_length_a     9.5745579
_cell_length_b     60.037342
_cell_length_c     25.434957
_cell_angle_alpha  89.736756
_cell_angle_beta   90.206625
_cell_angle_gamma 90.339807
loop_
_atom_site_label
_atom_site_type_symbol
_atom_site_fract_x
_atom_site_fract_y
_atom_site_fract_z
_atom_type_partial_charge
Cu0 Cu 0.1833 0.15484 0.04776 0.0
N1 N 0.26729 0.127 0.04893 0.0
N2 N 0.26548 0.08984 0.05451 0.0
C3 C 0.18885 0.10842 0.04818 0.0
C4 C 0.39901 0.09709 0.05876 0.0
C5 C 0.39975 0.12016 0.05559 0.0
O6 O 0.06605 0.15584 0.10869 0.0
C7 C 0.13345 0.15417 0.94147 0.0
O8 O 0.26903 0.15088 0.94129 0.0
H9 H 0.07643 0.10871 0.0438 0.0
H10 H 0.48932 0.13109 0.05954 0.0
N11 N 0.30114 0.17954 0.04999 0.0
N12 N 0.34753 0.21593 0.05684 0.0
C13 C 0.25588 0.19936 0.067 0.0
C14 C 0.42686 0.18351 0.0283 0.0
C15 C 0.45585 0.20606 0.03245 0.0
C16 C 0.12786 0.15414 0.15276 0.0
O17 O 0.26467 0.15247 0.15369 0.0
H18 H 0.15258 0.20178 0.08309 0.0
H19 H 0.48913 0.17119 1.00838 0.0
O20 O 0.07172 0.15665 0.98512 0.0
H21 H 0.48887 0.0866 0.06561 0.0
H22 H 0.547 0.21459 1.01713 0.0
Cu23 Cu 0.09768 0.89531 0.04702 0.0
N24 N 0.03907 0.92483 0.04635 0.0
N25 N 0.05875 0.96194 0.04571 0.0
C26 C 0.1256 0.94239 0.05224 0.0
C27 C 0.92454 0.95641 0.03532 0.0
C28 C 0.91293 0.93348 0.03533 0.0
O29 O 0.21371 0.89328 0.11048 0.0
C30 C 0.23753 0.87514 0.95649 0.0
O31 O 0.24746 0.8565 0.98345 0.0
H32 H 0.23609 0.94078 0.06043 0.0
H33 H 0.82026 0.92385 0.0262 0.0
N34 N 0.94237 0.876 0.05395 0.0
N35 N 0.80571 0.84543 0.05536 0.0
C36 C 0.92802 0.85452 0.03893 0.0
C37 C 0.8254 0.88054 0.08093 0.0
C38 C 0.74097 0.86189 0.0816 0.0
C39 C 0.2187 0.87593 0.13941 0.0
O40 O 0.16829 0.85712 0.12092 0.0
H41 H 0.00682 0.84555 1.01754 0.0
H42 H 0.80518 0.89611 0.10061 0.0
O43 O 0.18725 0.89232 0.97834 0.0
H44 H 0.84189 0.96806 0.02632 0.0
H45 H 0.6424 0.86031 0.10202 0.0
Cu46 Cu 0.11868 0.9047 0.54467 0.0
N47 N 0.96764 0.92454 0.54662 0.0
N48 N 0.85676 0.95741 0.54844 0.0
C49 C 0.97868 0.94676 0.53956 0.0
C50 C 0.76525 0.94108 0.56141 0.0
C51 C 0.834 0.9209 0.56056 0.0
O52 O 0.2255 0.91047 0.48026 0.0
C53 C 0.16407 0.8961 0.65058 0.0
O54 O 0.04861 0.88472 0.64234 0.0
H55 H 0.07575 0.95494 0.52911 0.0
H56 H 0.79081 0.90486 0.57147 0.0
N57 N 0.06935 0.87459 0.53847 0.0
N58 N 0.10991 0.83794 0.53551 0.0
C59 C 0.16507 0.8584 0.54312 0.0
C60 C 0.94837 0.86412 0.52703 0.0
C61 C 0.97317 0.84145 0.5252 0.0
C62 C 0.1562 0.9062 0.43843 0.0
O63 O 0.02444 0.90031 0.44263 0.0
H64 H 0.27432 0.86177 0.55089 0.0
H65 H 0.84994 0.87232 0.51975 0.0
O66 O 0.21796 0.90713 0.61246 0.0
H67 H 0.6579 0.94358 0.57306 0.0
H68 H 0.8963 0.82862 0.51715 0.0
Cu69 Cu 0.76016 0.14661 0.54683 0.0
N70 N 0.65035 0.12069 0.54788 0.0
N71 N 0.60786 0.08386 0.54805 0.0
C72 C 0.70408 0.1002 0.54125 0.0
C73 C 0.48808 0.09471 0.55916 0.0
C74 C 0.51476 0.1174 0.55923 0.0
O75 O 0.87469 0.14565 0.48524 0.0
C76 C 0.81399 0.1486 0.65239 0.0
O77 O 0.67743 0.15069 0.6529 0.0
H78 H 0.81285 0.09746 0.53212 0.0
H79 H 0.44161 0.13046 0.56842 0.0
N80 N 0.66799 0.17407 0.54525 0.0
N81 N 0.65606 0.21144 0.54324 0.0
C82 C 0.73587 0.19344 0.55385 0.0
C83 C 0.53949 0.17982 0.52883 0.0
C84 C 0.53158 0.20285 0.52778 0.0
C85 C 0.81188 0.14608 0.44121 0.0
O86 O 0.67467 0.14654 0.44038 0.0
H87 H 0.84394 0.1941 0.56624 0.0
H88 H 0.45969 0.16819 0.51611 0.0
O89 O 0.87546 0.14632 0.60863 0.0
H90 H 0.38907 0.08686 0.56837 0.0
H91 H 0.44295 0.2124 0.51418 0.0
Cu92 Cu 0.38484 0.66389 0.04929 0.0
N93 N 0.45254 0.635 0.04285 0.0
N94 N 0.44639 0.5978 0.04336 0.0
C95 C 0.39064 0.61663 0.06272 0.0
C96 C 0.54876 0.60462 1.01051 0.0
C97 C 0.5522 0.62761 1.01026 0.0
O98 O 0.27749 0.66347 0.11496 0.0
C99 C 0.21608 0.65487 0.95928 0.0
O100 O 0.18276 0.63667 0.98529 0.0
H101 H 0.2993 0.61714 0.08763 0.0
H102 H 0.61728 0.63818 0.98589 0.0
N103 N 0.53614 0.68377 0.05588 0.0
N104 N 0.66883 0.71473 0.05537 0.0
C105 C 0.54216 0.70573 0.04396 0.0
C106 C 0.66275 0.67875 0.07543 0.0
C107 C 0.74456 0.69769 0.07513 0.0
C108 C 0.26935 0.67995 0.14617 0.0
O109 O 0.31254 0.69961 0.12996 0.0
H110 H 0.45528 0.71486 0.02738 0.0
H111 H 0.69283 0.66244 0.08958 0.0
O112 O 0.28705 0.66995 0.98276 0.0
H113 H 0.61325 0.59382 0.98697 0.0
H114 H 0.85066 0.69888 0.08971 0.0
Cu115 Cu 0.34891 0.40971 0.05332 0.0
N116 N 0.23673 0.43502 0.05007 0.0
N117 N 0.20283 0.47165 0.04138 0.0
C118 C 0.27878 0.45396 0.02639 0.0
C119 C 0.10725 0.46343 0.07535 0.0
C120 C 0.12836 0.44076 0.08062 0.0
O121 O 0.44938 0.40951 0.11991 0.0
C122 C 0.39792 0.40972 0.94819 0.0
O123 O 0.2608 0.4089 0.95006 0.0
H124 H 0.37346 0.45516 1.00338 0.0
H125 H 0.07731 0.42977 0.10843 0.0
N126 N 0.2493 0.38302 0.05137 0.0
N127 N 0.22218 0.3461 0.04702 0.0
C128 C 0.30732 0.3636 0.0374 0.0
C129 C 0.12232 0.37776 0.07038 0.0
C130 C 0.10525 0.35491 0.06775 0.0
C131 C 0.46131 0.4266 0.14909 0.0
O132 O 0.42642 0.44623 0.13047 0.0
H133 H 0.41366 0.36224 0.02349 0.0
H134 H 0.05009 0.38951 0.08714 0.0
O135 O 0.46601 0.4102 0.99131 0.0
H136 H 0.03373 0.47328 0.09743 0.0
H137 H 0.01552 0.34549 0.0813 0.0
Cu138 Cu 0.68395 0.4085 0.54232 0.0
N139 N 0.8062 0.43294 0.53813 0.0
N140 N 0.85028 0.46963 0.53892 0.0
C141 C 0.78546 0.45242 0.56319 0.0
C142 C 0.9155 0.46067 0.49723 0.0
C143 C 0.8885 0.43804 0.49692 0.0
O144 O 0.57087 0.40997 0.47935 0.0
C145 C 0.65017 0.40952 0.64931 0.0
O146 O 0.78637 0.40729 0.64622 0.0
H147 H 0.71022 0.45442 0.59447 0.0
H148 H 0.91371 0.42662 0.46563 0.0
N149 N 0.76829 0.38044 0.54148 0.0
N150 N 0.77695 0.34305 0.54068 0.0
C151 C 0.6975 0.36125 0.54925 0.0
C152 C 0.8979 0.37439 0.52766 0.0
C153 C 0.90376 0.35136 0.52729 0.0
C154 C 0.52211 0.42824 0.46202 0.0
O155 O 0.52548 0.44591 0.49228 0.0
H156 H 0.58835 0.36084 0.55998 0.0
H157 H 0.9806 0.38584 0.51678 0.0
O158 O 0.57925 0.41063 0.60693 0.0
H159 H 0.96982 0.47005 0.46706 0.0
H160 H 0.99334 0.34163 0.51594 0.0
Cu161 Cu 0.39158 0.65076 0.54811 0.0
N162 N 0.53842 0.63012 0.55323 0.0
N163 N 0.65209 0.59759 0.55047 0.0
C164 C 0.54005 0.60926 0.5335 0.0
C165 C 0.72387 0.61164 0.5819 0.0
C166 C 0.65389 0.63166 0.58341 0.0
O167 O 0.27831 0.64422 0.48552 0.0
C168 C 0.36085 0.66325 0.65229 0.0
O169 O 0.48151 0.67235 0.64021 0.0
H170 H 0.45743 0.60243 0.50915 0.0
H171 H 0.68305 0.64607 0.60637 0.0
N172 N 0.45185 0.67989 0.53449 0.0
N173 N 0.42538 0.7164 0.52094 0.0
C174 C 0.36107 0.69649 0.52563 0.0
C175 C 0.57923 0.68951 0.53483 0.0
C176 C 0.56296 0.71218 0.52688 0.0
C177 C 0.3477 0.64514 0.44271 0.0
O178 O 0.48332 0.64835 0.44517 0.0
H179 H 0.24893 0.69406 0.52491 0.0
H180 H 0.67614 0.68083 0.54196 0.0
O181 O 0.29658 0.65188 0.61713 0.0
H182 H 0.81925 0.60763 0.60278 0.0
H183 H 0.64541 0.72459 0.52615 0.0
H184 H 0.93228 0.99985 0.07411 0.0
H185 H 0.32338 0.97363 1.01918 0.0
H186 H 0.42529 1.01104 1.01887 0.0
H187 H 0.40021 0.05161 0.03124 0.0
H188 H 0.00855 0.07723 0.08788 0.0
H189 H 0.91 0.03988 0.08966 0.0
C190 C 0.03952 1.00235 0.06181 0.0
C191 C 0.11966 0.98397 0.04657 0.0
C192 C 0.09741 1.02389 0.06169 0.0
C193 C 0.25954 0.98744 0.03162 0.0
C194 C 0.31777 1.00887 0.03115 0.0
C195 C 0.29392 0.04898 0.04446 0.0
C196 C 0.21172 0.06737 0.05852 0.0
C197 C 0.23746 1.02727 0.04587 0.0
C198 C 0.07363 0.06358 0.07545 0.0
C199 C 0.01707 0.04214 0.07689 0.0
H200 H 0.60982 0.97885 0.53534 0.0
H201 H 0.04986 0.99021 0.56241 0.0
H202 H 0.0115 0.03021 0.56389 0.0
H203 H 0.85368 0.06207 0.55982 0.0
H204 H 0.41335 0.05127 0.53241 0.0
H205 H 0.45105 1.0111 0.53023 0.0
C206 C 0.69734 0.99003 0.54186 0.0
C207 C 0.83286 0.98126 0.54853 0.0
C208 C 0.67447 1.01323 0.54306 0.0
C209 C 0.94481 0.99623 0.55628 0.0
C210 C 0.92283 1.01923 0.55754 0.0
C211 C 0.76569 0.05108 0.5527 0.0
C212 C 0.63056 0.05998 0.54621 0.0
C213 C 0.78821 1.02793 0.55106 0.0
C214 C 0.51827 0.04511 0.53812 0.0
C215 C 0.53989 1.02204 0.53657 0.0
H216 H 0.44752 0.56436 0.97295 0.0
H217 H 0.32413 0.58106 0.1307 0.0
H218 H 0.22745 0.54362 0.14309 0.0
H219 H 0.18444 0.50572 0.10983 0.0
H220 H 0.30998 0.48902 0.95237 0.0
H221 H 0.39959 0.52684 0.93901 0.0
C222 C 0.40085 0.55973 1.01021 0.0
C223 C 0.39389 0.57545 0.05096 0.0
C224 C 0.34506 0.53821 1.01695 0.0
C225 C 0.3302 0.56931 0.09865 0.0
C226 C 0.27504 0.5479 0.10576 0.0
C227 C 0.22894 0.5105 0.07229 0.0
C228 C 0.24014 0.49462 0.03204 0.0
C229 C 0.28185 0.5322 0.06517 0.0
C230 C 0.30076 0.50095 0.98395 0.0
C231 C 0.35219 0.52254 0.97636 0.0
H232 H 0.76497 0.50043 0.46888 0.0
H233 H 0.87709 0.49077 0.63132 0.0
H234 H 0.83015 0.53017 0.64941 0.0
H235 H 0.7529 0.56726 0.61893 0.0
H236 H 0.62231 0.57616 0.45805 0.0
H237 H 0.67959 0.53726 0.4391 0.0
C238 C 0.78035 0.50711 0.50802 0.0
C239 C 0.82657 0.49293 0.54867 0.0
C240 C 0.74881 0.52957 0.5183 0.0
C241 C 0.84263 0.50151 0.59956 0.0
C242 C 0.81562 0.52397 0.6098 0.0
C243 C 0.73793 0.56067 0.5797 0.0
C244 C 0.68446 0.57459 0.53978 0.0
C245 C 0.76819 0.53816 0.56952 0.0
C246 C 0.66286 0.56573 0.48936 0.0
C247 C 0.69609 0.54354 0.47853 0.0
H248 H 0.23126 0.15001 0.25146 0.0
H249 H 0.84467 0.15618 0.16472 0.0
H250 H 0.71286 0.1539 0.24659 0.0
H251 H 0.7078 0.15011 0.34246 0.0
H252 H 0.09474 0.14407 0.42906 0.0
H253 H 0.22627 0.14627 0.34719 0.0
C254 C 0.11817 0.15089 0.25039 0.0
C255 C 0.04787 0.15327 0.20212 0.0
C256 C 0.04322 0.14953 0.29746 0.0
C257 C 0.90131 0.15438 0.20142 0.0
C258 C 0.82585 0.15305 0.24818 0.0
C259 C 0.82089 0.14921 0.34346 0.0
C260 C 0.89137 0.14691 0.39173 0.0
C261 C 0.89581 0.15059 0.29636 0.0
C262 C 0.03795 0.14584 0.39238 0.0
C263 C 0.11327 0.14711 0.34562 0.0
H264 H 0.20728 0.86864 0.38576 0.0
H265 H 0.2375 0.93997 0.37276 0.0
H266 H 0.27834 0.93685 0.27774 0.0
H267 H 0.26955 0.91386 0.197 0.0
H268 H 0.23397 0.84235 0.21164 0.0
H269 H 0.23377 0.84546 0.30707 0.0
C270 C 0.2279 0.88343 0.36228 0.0
C271 C 0.22149 0.90448 0.38608 0.0
C272 C 0.24809 0.88145 0.30773 0.0
C273 C 0.24499 0.92359 0.35535 0.0
C274 C 0.26655 0.92178 0.30094 0.0
C275 C 0.26511 0.8989 0.22102 0.0
C276 C 0.24963 0.87789 0.19677 0.0
C277 C 0.26314 0.90081 0.27638 0.0
C278 C 0.24445 0.85875 0.22885 0.0
C279 C 0.24393 0.8605 0.28363 0.0
H280 H 0.20753 0.86029 0.71203 0.0
H281 H 0.24391 0.9318 0.71063 0.0
H282 H 0.28253 0.93164 0.80623 0.0
H283 H 0.275 0.9112 0.89132 0.0
H284 H 0.24569 0.83942 0.89079 0.0
H285 H 0.23731 0.8396 0.79493 0.0
C286 C 0.22766 0.87579 0.73256 0.0
C287 C 0.22274 0.89604 0.70453 0.0
C288 C 0.24932 0.8755 0.78728 0.0
C289 C 0.24878 0.91602 0.73134 0.0
C290 C 0.2693 0.91591 0.78607 0.0
C291 C 0.26929 0.89557 0.87018 0.0
C292 C 0.25898 0.87532 0.89848 0.0
C293 C 0.2651 0.89578 0.81468 0.0
C294 C 0.25338 0.85524 0.87032 0.0
C295 C 0.24785 0.85532 0.81537 0.0
H296 H 0.23525 0.14891 0.84306 0.0
H297 H 0.85235 0.15951 0.92842 0.0
H298 H 0.72008 0.15872 0.84626 0.0
H299 H 0.71303 0.15466 0.75061 0.0
H300 H 0.0958 0.14404 0.6652 0.0
H301 H 0.22842 0.14517 0.74729 0.0
C302 C 0.12289 0.15109 0.84374 0.0
C303 C 0.05378 0.15423 0.89176 0.0
C304 C 0.04751 0.15056 0.79646 0.0
C305 C 0.90814 0.15706 0.89195 0.0
C306 C 0.83237 0.15658 0.84502 0.0
C307 C 0.82546 0.15258 0.74989 0.0
C308 C 0.89437 0.14923 0.70192 0.0
C309 C 0.90098 0.15327 0.79712 0.0
C310 C 0.04016 0.14661 0.70165 0.0
C311 C 0.11611 0.14727 0.74854 0.0
H312 H 0.25035 0.64032 0.20018 0.0
H313 H 0.22523 0.71149 0.22112 0.0
H314 H 0.22182 0.70648 0.31633 0.0
H315 H 0.26162 0.68241 0.39367 0.0
H316 H 0.30096 0.61163 0.3733 0.0
H317 H 0.26066 0.61581 0.27845 0.0
C318 C 0.24077 0.65472 0.22548 0.0
C319 C 0.23948 0.67631 0.20317 0.0
C320 C 0.24193 0.65175 0.28062 0.0
C321 C 0.22757 0.69471 0.2369 0.0
C322 C 0.2259 0.69187 0.29154 0.0
C323 C 0.25561 0.66785 0.36859 0.0
C324 C 0.28062 0.64667 0.39043 0.0
C325 C 0.23777 0.67055 0.31388 0.0
C326 C 0.27812 0.628 0.35747 0.0
C327 C 0.25697 0.63046 0.30314 0.0
H328 H 0.56759 0.39799 0.38471 0.0
H329 H 0.41004 0.46422 0.41146 0.0
H330 H 0.38458 0.46991 0.31678 0.0
H331 H 0.41146 0.45642 0.22656 0.0
H332 H 0.56777 0.39015 0.19972 0.0
H333 H 0.59183 0.38433 0.29449 0.0
C334 C 0.52606 0.41359 0.36996 0.0
C335 C 0.49035 0.43063 0.40526 0.0
C336 C 0.51383 0.4169 0.31546 0.0
C337 C 0.4379 0.45079 0.38526 0.0
C338 C 0.42413 0.45412 0.33109 0.0
C339 C 0.45229 0.44078 0.24134 0.0
C340 C 0.48883 0.4238 0.20603 0.0
C341 C 0.46337 0.43739 0.29584 0.0
C342 C 0.53957 0.40353 0.226 0.0
C343 C 0.55261 0.40014 0.28019 0.0
H344 H 0.27508 0.41156 0.85232 0.0
H345 H 0.6792 0.40877 0.92786 0.0
H346 H 0.79264 0.40875 0.84175 0.0
H347 H 0.77607 0.40901 0.74526 0.0
H348 H 0.37089 0.4119 0.67041 0.0
H349 H 0.2586 0.41243 0.75644 0.0
C350 C 0.38809 0.41095 0.85013 0.0
C351 C 0.46857 0.41009 0.89653 0.0
C352 C 0.45223 0.41096 0.80068 0.0
C353 C 0.61482 0.40942 0.89279 0.0
C354 C 0.67966 0.40939 0.84357 0.0
C355 C 0.66314 0.40978 0.74769 0.0
C356 C 0.58196 0.41035 0.70138 0.0
C357 C 0.59926 0.41008 0.79728 0.0
C358 C 0.43586 0.41143 0.70535 0.0
C359 C 0.37156 0.41172 0.75453 0.0
H360 H 0.29515 0.68777 0.89066 0.0
H361 H 0.10199 0.62271 0.89587 0.0
H362 H 0.11325 0.62028 0.80019 0.0
H363 H 0.20484 0.63478 0.71507 0.0
H364 H 0.40196 0.69956 0.71205 0.0
H365 H 0.36058 0.70396 0.80569 0.0
C366 C 0.25302 0.67322 0.87092 0.0
C367 C 0.19926 0.65539 0.90087 0.0
C368 C 0.2616 0.67174 0.81572 0.0
C369 C 0.1448 0.63671 0.87416 0.0
C370 C 0.15167 0.63523 0.81921 0.0
C371 C 0.23546 0.65004 0.73476 0.0
C372 C 0.30763 0.66671 0.70652 0.0
C373 C 0.2137 0.65236 0.78953 0.0
C374 C 0.34759 0.68633 0.73284 0.0
C375 C 0.32423 0.68889 0.78657 0.0
H376 H 0.13963 0.31218 0.10944 0.0
H377 H 0.38684 0.32796 0.97285 0.0
H378 H 0.45537 0.28893 0.96525 0.0
H379 H 0.4404 0.25006 0.99643 0.0
H380 H 0.19505 0.23457 0.13381 0.0
H381 H 0.13013 0.27363 0.14205 0.0
C382 C 0.20722 0.30701 0.07771 0.0
C383 C 0.25733 0.32291 0.04158 0.0
C384 C 0.24706 0.28459 0.07387 0.0
C385 C 0.34736 0.31604 1.00129 0.0
C386 C 0.38647 0.29373 0.99691 0.0
C387 C 0.3746 0.2553 0.02861 0.0
C388 C 0.32215 0.23937 0.06427 0.0
C389 C 0.33711 0.27784 0.03302 0.0
C390 C 0.2354 0.24643 0.10542 0.0
C391 C 0.19828 0.26878 0.11021 0.0
H392 H 0.50698 0.7517 0.05496 0.0
H393 H 0.93429 0.72987 0.04352 0.0
H394 H 0.01446 0.76844 0.04057 0.0
H395 H 0.96505 0.80853 0.04518 0.0
H396 H 0.53792 0.83052 0.05525 0.0
H397 H 0.45657 0.79192 0.05441 0.0
C398 C 0.61743 0.75533 0.05109 0.0
C399 C 0.71411 0.73771 0.04999 0.0
C400 C 0.66337 0.7777 0.0494 0.0
C401 C 0.85722 0.74294 0.04548 0.0
C402 C 0.90341 0.76507 0.04349 0.0
C403 C 0.85409 0.80495 0.04637 0.0
C404 C 0.75818 0.82256 0.05065 0.0
C405 C 0.80769 0.78261 0.04603 0.0
C406 C 0.61461 0.8174 0.05281 0.0
C407 C 0.56775 0.79527 0.05212 0.0
H408 H 0.04057 0.79953 0.48626 0.0
H409 H 0.3477 0.82905 0.58964 0.0
H410 H 0.47828 0.7944 0.59125 0.0
H411 H 0.50314 0.75519 0.5653 0.0
H412 H 0.19244 0.72514 0.46484 0.0
H413 H 0.06518 0.76031 0.4604 0.0
C414 C 0.13531 0.79835 0.50949 0.0
C415 C 0.18409 0.81704 0.53746 0.0
C416 C 0.20971 0.77821 0.51075 0.0
C417 C 0.3084 0.81517 0.5669 0.0
C418 C 0.38315 0.79526 0.56812 0.0
C419 C 0.40867 0.75648 0.5419 0.0
C420 C 0.35735 0.73763 0.51539 0.0
C421 C 0.33498 0.77667 0.54018 0.0
C422 C 0.23336 0.7394 0.4859 0.0
C423 C 0.16067 0.7595 0.48333 0.0
H424 H 0.94163 0.30633 0.54472 0.0
H425 H 0.50992 0.32676 0.53945 0.0
H426 H 0.435 0.28807 0.54141 0.0
H427 H 0.49029 0.24811 0.54357 0.0
H428 H 0.92253 0.22784 0.54385 0.0
H429 H -0.0031 0.26651 0.54487 0.0
C430 C 0.8311 0.30246 0.54358 0.0
C431 C 0.73259 0.31985 0.54211 0.0
C432 C 0.78777 0.27997 0.54392 0.0
C433 C 0.58948 0.3141 0.54138 0.0
C434 C 0.54589 0.2918 0.54214 0.0
C435 C 0.6008 0.25204 0.54349 0.0
C436 C 0.69963 0.23468 0.54396 0.0
C437 C 0.644 0.27456 0.54326 0.0
C438 C 0.84267 0.24047 0.54444 0.0
C439 C 0.88601 0.26276 0.54463 0.0
loop_
_geom_bond_atom_site_label_1
_geom_bond_atom_site_label_2
_geom_bond_distance
_geom_bond_site_symmetry_2
_ccdc_geom_bond_type
Cu0 N1 1.999 . S
Cu0 O6 1.974 . S
Cu0 N11 1.985 . S
Cu0 O20 1.959 1_554 S
N1 Cu0 1.999 . S
N1 C3 1.263 . S
N1 C5 1.389 1_554 S
N2 C3 1.358 . S
N2 C4 1.400 1_554 S
C3 N1 1.263 . S
C3 N2 1.358 . S
C3 H9 0.930 1_455 S
C4 N2 1.400 1_556 S
C4 C5 1.351 . S
C4 H21 0.930 . S
C5 N1 1.389 1_556 S
C5 C4 1.351 . S
C5 H10 0.930 . S
O6 Cu0 1.974 . S
O6 C16 1.284 . S
C7 O8 1.261 1_455 S
C7 O20 1.251 . S
O8 C7 1.261 1_655 S
H9 C3 0.930 1_655 S
H10 C5 0.930 . S
N11 Cu0 1.985 . S
N11 C13 1.335 1_554 S
N11 C14 1.390 . S
N12 C13 1.345 1_554 S
N12 C15 1.336 . S
C13 N11 1.335 1_556 S
C13 N12 1.345 1_556 S
C13 H18 0.930 . S
C14 N11 1.390 . S
C14 C15 1.346 . S
C14 H19 0.930 . S
C15 N12 1.336 . S
C15 C14 1.346 . S
C15 H22 0.929 . S
C16 O6 1.284 . S
C16 O17 1.214 1_455 S
O17 C16 1.214 1_655 S
H18 C13 0.930 . S
H19 C14 0.930 . S
O20 Cu0 1.959 1_556 S
O20 C7 1.251 . S
H21 C4 0.930 . S
H22 C15 0.929 . S
Cu23 N24 1.999 . S
Cu23 O29 1.974 . S
Cu23 N34 1.985 . S
Cu23 O43 1.959 1_554 S
N24 Cu23 1.999 . S
N24 C26 1.263 . S
N24 C28 1.389 1_554 S
N25 C26 1.358 . S
N25 C27 1.400 1_554 S
C26 N24 1.263 . S
C26 N25 1.358 . S
C26 H32 0.930 1_655 S
C27 N25 1.400 1_556 S
C27 C28 1.351 . S
C27 H44 0.930 . S
C28 N24 1.389 1_556 S
C28 C27 1.351 . S
C28 H33 0.930 . S
O29 Cu23 1.974 . S
O29 C39 1.284 . S
C30 O31 1.261 1_655 S
C30 O43 1.251 . S
O31 C30 1.261 1_455 S
H32 C26 0.930 1_455 S
H33 C28 0.930 . S
N34 Cu23 1.985 . S
N34 C36 1.335 1_554 S
N34 C37 1.390 . S
N35 C36 1.345 1_554 S
N35 C38 1.336 . S
C36 N34 1.335 1_556 S
C36 N35 1.345 1_556 S
C36 H41 0.930 . S
C37 N34 1.390 . S
C37 C38 1.346 . S
C37 H42 0.930 . S
C38 N35 1.336 . S
C38 C37 1.346 . S
C38 H45 0.929 . S
C39 O29 1.284 . S
C39 O40 1.214 1_655 S
O40 C39 1.214 1_455 S
H41 C36 0.930 . S
H42 C37 0.930 . S
O43 Cu23 1.959 1_556 S
O43 C30 1.251 . S
H44 C27 0.930 . S
H45 C38 0.929 . S
Cu46 N47 1.999 . S
Cu46 O52 1.974 . S
Cu46 N57 1.985 . S
Cu46 O66 1.959 . S
N47 Cu46 1.999 . S
N47 C49 1.263 . S
N47 C51 1.389 . S
N48 C49 1.358 . S
N48 C50 1.400 . S
C49 N47 1.263 . S
C49 N48 1.358 . S
C49 H55 0.930 1_455 S
C50 N48 1.400 . S
C50 C51 1.351 . S
C50 H67 0.930 . S
C51 N47 1.389 . S
C51 C50 1.351 . S
C51 H56 0.930 . S
O52 Cu46 1.974 . S
O52 C62 1.286 . S
C53 O54 1.261 1_455 S
C53 O66 1.251 . S
O54 C53 1.261 1_655 S
H55 C49 0.930 1_655 S
H56 C51 0.930 . S
N57 Cu46 1.985 . S
N57 C59 1.335 . S
N57 C60 1.390 . S
N58 C59 1.345 . S
N58 C61 1.336 . S
C59 N57 1.335 . S
C59 N58 1.345 . S
C59 H64 0.930 . S
C60 N57 1.390 . S
C60 C61 1.346 . S
C60 H65 0.930 . S
C61 N58 1.336 . S
C61 C60 1.346 . S
C61 H68 0.929 . S
C62 O52 1.286 . S
C62 O63 1.211 1_455 S
O63 C62 1.211 1_655 S
H64 C59 0.930 . S
H65 C60 0.930 . S
O66 Cu46 1.959 . S
O66 C53 1.251 . S
H67 C50 0.930 . S
H68 C61 0.929 . S
Cu69 N70 1.999 . S
Cu69 O75 1.974 . S
Cu69 N80 1.985 . S
Cu69 O89 1.959 . S
N70 Cu69 1.999 . S
N70 C72 1.263 . S
N70 C74 1.389 . S
N71 C72 1.358 . S
N71 C73 1.400 . S
C72 N70 1.263 . S
C72 N71 1.358 . S
C72 H78 0.930 1_655 S
C73 N71 1.400 . S
C73 C74 1.351 . S
C73 H90 0.930 . S
C74 N70 1.389 . S
C74 C73 1.351 . S
C74 H79 0.930 . S
O75 Cu69 1.974 . S
O75 C85 1.286 . S
C76 O77 1.261 1_655 S
C76 O89 1.251 . S
O77 C76 1.261 1_455 S
H78 C72 0.930 1_455 S
H79 C74 0.930 . S
N80 Cu69 1.985 . S
N80 C82 1.335 . S
N80 C83 1.390 . S
N81 C82 1.345 . S
N81 C84 1.336 . S
C82 N80 1.335 . S
C82 N81 1.345 . S
C82 H87 0.930 . S
C83 N80 1.390 . S
C83 C84 1.346 . S
C83 H88 0.930 . S
C84 N81 1.336 . S
C84 C83 1.346 . S
C84 H91 0.929 . S
C85 O75 1.286 . S
C85 O86 1.211 1_655 S
O86 C85 1.211 1_455 S
H87 C82 0.930 . S
H88 C83 0.930 . S
O89 Cu69 1.959 . S
O89 C76 1.251 . S
H90 C73 0.930 . S
H91 C84 0.929 . S
Cu92 N93 1.999 . S
Cu92 O98 1.974 . S
Cu92 N103 1.985 . S
Cu92 O112 1.959 1_554 S
N93 Cu92 1.999 . S
N93 C95 1.263 . S
N93 C97 1.389 1_554 S
N94 C95 1.358 . S
N94 C96 1.400 1_554 S
C95 N93 1.263 . S
C95 N94 1.358 . S
C95 H101 0.930 . S
C96 N94 1.400 1_556 S
C96 C97 1.351 . S
C96 H113 0.930 . S
C97 N93 1.389 1_556 S
C97 C96 1.351 . S
C97 H102 0.930 . S
O98 Cu92 1.974 . S
O98 C108 1.282 . S
C99 O100 1.261 . S
C99 O112 1.251 . S
O100 C99 1.261 . S
H101 C95 0.930 . S
H102 C97 0.930 . S
N103 Cu92 1.985 . S
N103 C105 1.335 1_554 S
N103 C106 1.390 . S
N104 C105 1.345 1_554 S
N104 C107 1.336 . S
C105 N103 1.335 1_556 S
C105 N104 1.345 1_556 S
C105 H110 0.930 . S
C106 N103 1.390 . S
C106 C107 1.346 . S
C106 H111 0.930 . S
C107 N104 1.336 . S
C107 C106 1.346 . S
C107 H114 0.929 . S
C108 O98 1.282 . S
C108 O109 1.216 . S
O109 C108 1.216 . S
H110 C105 0.930 . S
H111 C106 0.930 . S
O112 Cu92 1.959 1_556 S
O112 C99 1.251 . S
H113 C96 0.930 . S
H114 C107 0.929 . S
Cu115 N116 1.999 . S
Cu115 O121 1.974 . S
Cu115 N126 1.985 . S
Cu115 O135 1.959 1_554 S
N116 Cu115 1.999 . S
N116 C118 1.263 . S
N116 C120 1.389 1_554 S
N117 C118 1.358 . S
N117 C119 1.400 1_554 S
C118 N116 1.263 . S
C118 N117 1.358 . S
C118 H124 0.930 . S
C119 N117 1.400 1_556 S
C119 C120 1.351 . S
C119 H136 0.930 . S
C120 N116 1.389 1_556 S
C120 C119 1.351 . S
C120 H125 0.930 . S
O121 Cu115 1.974 . S
O121 C131 1.282 . S
C122 O123 1.261 . S
C122 O135 1.251 . S
O123 C122 1.261 . S
H124 C118 0.930 . S
H125 C120 0.930 . S
N126 Cu115 1.985 . S
N126 C128 1.335 1_554 S
N126 C129 1.390 . S
N127 C128 1.345 1_554 S
N127 C130 1.336 . S
C128 N126 1.335 1_556 S
C128 N127 1.345 1_556 S
C128 H133 0.930 . S
C129 N126 1.390 . S
C129 C130 1.346 . S
C129 H134 0.930 . S
C130 N127 1.336 . S
C130 C129 1.346 . S
C130 H137 0.929 . S
C131 O121 1.282 . S
C131 O132 1.216 . S
O132 C131 1.216 . S
H133 C128 0.930 . S
H134 C129 0.930 . S
O135 Cu115 1.959 1_556 S
O135 C122 1.251 . S
H136 C119 0.930 . S
H137 C130 0.929 . S
Cu138 N139 1.999 . S
Cu138 O144 1.974 . S
Cu138 N149 1.985 . S
Cu138 O158 1.959 . S
N139 Cu138 1.999 . S
N139 C141 1.263 . S
N139 C143 1.389 . S
N140 C141 1.358 . S
N140 C142 1.400 . S
C141 N139 1.263 . S
C141 N140 1.358 . S
C141 H147 0.930 . S
C142 N140 1.400 . S
C142 C143 1.351 . S
C142 H159 0.930 . S
C143 N139 1.389 . S
C143 C142 1.351 . S
C143 H148 0.930 . S
O144 Cu138 1.974 . S
O144 C154 1.282 . S
C145 O146 1.261 . S
C145 O158 1.251 . S
O146 C145 1.261 . S
H147 C141 0.930 . S
H148 C143 0.930 . S
N149 Cu138 1.985 . S
N149 C151 1.335 . S
N149 C152 1.390 . S
N150 C151 1.345 . S
N150 C153 1.336 . S
C151 N149 1.335 . S
C151 N150 1.345 . S
C151 H156 0.930 . S
C152 N149 1.390 . S
C152 C153 1.346 . S
C152 H157 0.930 . S
C153 N150 1.336 . S
C153 C152 1.346 . S
C153 H160 0.929 . S
C154 O144 1.282 . S
C154 O155 1.216 . S
O155 C154 1.216 . S
H156 C151 0.930 . S
H157 C152 0.930 . S
O158 Cu138 1.959 . S
O158 C145 1.251 . S
H159 C142 0.930 . S
H160 C153 0.929 . S
Cu161 N162 1.999 . S
Cu161 O167 1.974 . S
Cu161 N172 1.985 . S
Cu161 O181 1.959 . S
N162 Cu161 1.999 . S
N162 C164 1.263 . S
N162 C166 1.389 . S
N163 C164 1.358 . S
N163 C165 1.400 . S
C164 N162 1.263 . S
C164 N163 1.358 . S
C164 H170 0.930 . S
C165 N163 1.400 . S
C165 C166 1.351 . S
C165 H182 0.930 . S
C166 N162 1.389 . S
C166 C165 1.351 . S
C166 H171 0.930 . S
O167 Cu161 1.974 . S
O167 C177 1.282 . S
C168 O169 1.261 . S
C168 O181 1.251 . S
O169 C168 1.261 . S
H170 C164 0.930 . S
H171 C166 0.930 . S
N172 Cu161 1.985 . S
N172 C174 1.335 . S
N172 C175 1.390 . S
N173 C174 1.345 . S
N173 C176 1.336 . S
C174 N172 1.335 . S
C174 N173 1.345 . S
C174 H179 0.930 . S
C175 N172 1.390 . S
C175 C176 1.346 . S
C175 H180 0.930 . S
C176 N173 1.336 . S
C176 C175 1.346 . S
C176 H183 0.929 . S
C177 O167 1.282 . S
C177 O178 1.216 . S
O178 C177 1.216 . S
H179 C174 0.930 . S
H180 C175 0.930 . S
O181 Cu161 1.959 . S
O181 C168 1.251 . S
H182 C165 0.930 . S
H183 C176 0.929 . S
H184 C190 0.930 1_455 S
H185 C193 0.930 . S
H186 C194 0.930 . S
H187 C195 0.930 1_656 S
H188 C198 0.930 . S
H189 C199 0.930 . S
C190 H184 0.930 1_655 S
C190 C191 1.355 . S
C190 C192 1.415 1_655 S
C191 C190 1.355 . S
C191 C193 1.419 1_554 S
C192 C190 1.415 1_455 S
C192 C197 1.425 1_465 S
C192 C199 1.409 1_565 S
C193 H185 0.930 . S
C193 C191 1.419 1_556 S
C193 C194 1.362 . S
C194 H186 0.930 . S
C194 C193 1.362 . S
C194 C197 1.409 1_566 S
C195 H187 0.930 1_454 S
C195 C196 1.355 . S
C195 C197 1.415 1_455 S
C196 C195 1.355 . S
C196 C198 1.419 . S
C197 C192 1.425 1_645 S
C197 C194 1.409 1_544 S
C197 C195 1.415 1_655 S
C198 H188 0.930 . S
C198 C196 1.419 . S
C198 C199 1.362 . S
C199 H189 0.930 . S
C199 C192 1.409 1_545 S
C199 C198 1.362 . S
H200 C206 0.930 . S
H201 C209 0.930 . S
H202 C210 0.930 . S
H203 C211 0.930 . S
H204 C214 0.930 . S
H205 C215 0.930 . S
C206 H200 0.930 . S
C206 C207 1.355 1_655 S
C206 C208 1.415 . S
C207 C206 1.355 1_455 S
C207 C209 1.419 . S
C208 C206 1.415 . S
C208 C213 1.425 1_665 S
C208 C215 1.409 1_565 S
C209 H201 0.930 . S
C209 C207 1.419 . S
C209 C210 1.362 . S
C210 H202 0.930 . S
C210 C209 1.362 . S
C210 C213 1.409 1_565 S
C211 H203 0.930 . S
C211 C212 1.355 1_455 S
C211 C213 1.415 . S
C212 C211 1.355 1_655 S
C212 C214 1.419 . S
C213 C208 1.425 1_445 S
C213 C210 1.409 1_545 S
C213 C211 1.415 . S
C214 H204 0.930 . S
C214 C212 1.419 . S
C214 C215 1.362 . S
C215 H205 0.930 . S
C215 C208 1.409 1_545 S
C215 C214 1.362 . S
H216 C222 0.930 1_556 S
H217 C225 0.930 . S
H218 C226 0.930 . S
H219 C227 0.930 . S
H220 C230 0.930 . S
H221 C231 0.930 . S
C222 H216 0.930 1_554 S
C222 C223 1.355 . S
C222 C224 1.415 . S
C223 C222 1.355 . S
C223 C225 1.419 . S
C224 C222 1.415 . S
C224 C229 1.425 . S
C224 C231 1.409 1_554 S
C225 H217 0.930 . S
C225 C223 1.419 . S
C225 C226 1.362 . S
C226 H218 0.930 . S
C226 C225 1.362 . S
C226 C229 1.409 . S
C227 H219 0.930 . S
C227 C228 1.355 . S
C227 C229 1.415 . S
C228 C227 1.355 . S
C228 C230 1.419 1_554 S
C229 C224 1.425 . S
C229 C226 1.409 . S
C229 C227 1.415 . S
C230 H220 0.930 . S
C230 C228 1.419 1_556 S
C230 C231 1.362 . S
C231 H221 0.930 . S
C231 C224 1.409 1_556 S
C231 C230 1.362 . S
H232 C238 0.930 . S
H233 C241 0.930 . S
H234 C242 0.930 . S
H235 C243 0.930 . S
H236 C246 0.930 . S
H237 C247 0.930 . S
C238 H232 0.930 . S
C238 C239 1.355 . S
C238 C240 1.415 . S
C239 C238 1.355 . S
C239 C241 1.419 . S
C240 C238 1.415 . S
C240 C245 1.425 . S
C240 C247 1.409 . S
C241 H233 0.930 . S
C241 C239 1.419 . S
C241 C242 1.362 . S
C242 H234 0.930 . S
C242 C241 1.362 . S
C242 C245 1.409 . S
C243 H235 0.930 . S
C243 C244 1.355 . S
C243 C245 1.415 . S
C244 C243 1.355 . S
C244 C246 1.419 . S
C245 C240 1.425 . S
C245 C242 1.409 . S
C245 C243 1.415 . S
C246 H236 0.930 . S
C246 C244 1.419 . S
C246 C247 1.362 . S
C247 H237 0.930 . S
C247 C240 1.409 . S
C247 C246 1.362 . S
H248 C254 0.930 . S
H249 C257 0.930 . S
H250 C258 0.930 . S
H251 C259 0.930 . S
H252 C262 0.930 . S
H253 C263 0.930 . S
C254 H248 0.930 . S
C254 C255 1.355 1_655 S
C254 C256 1.415 . S
C255 C254 1.355 1_455 S
C255 C257 1.419 . S
C256 C254 1.415 . S
C256 C261 1.425 1_655 S
C256 C263 1.409 . S
C257 H249 0.930 . S
C257 C255 1.419 . S
C257 C258 1.362 . S
C258 H250 0.930 . S
C258 C257 1.362 . S
C258 C261 1.409 . S
C259 H251 0.930 . S
C259 C260 1.355 1_455 S
C259 C261 1.415 . S
C260 C259 1.355 1_655 S
C260 C262 1.419 . S
C261 C256 1.425 1_455 S
C261 C258 1.409 . S
C261 C259 1.415 . S
C262 H252 0.930 . S
C262 C260 1.419 . S
C262 C263 1.362 . S
C263 H253 0.930 . S
C263 C256 1.409 . S
C263 C262 1.362 . S
H264 C270 0.930 . S
H265 C273 0.930 . S
H266 C274 0.930 . S
H267 C275 0.930 . S
H268 C278 0.930 . S
H269 C279 0.930 . S
C270 H264 0.930 . S
C270 C271 1.355 . S
C270 C272 1.415 . S
C271 C270 1.355 . S
C271 C273 1.419 1_455 S
C272 C270 1.415 . S
C272 C277 1.425 1_455 S
C272 C279 1.409 . S
C273 H265 0.930 . S
C273 C271 1.419 1_655 S
C273 C274 1.362 . S
C274 H266 0.930 . S
C274 C273 1.362 . S
C274 C277 1.409 . S
C275 H267 0.930 . S
C275 C276 1.355 . S
C275 C277 1.415 . S
C276 C275 1.355 . S
C276 C278 1.419 1_655 S
C277 C272 1.425 1_655 S
C277 C274 1.409 . S
C277 C275 1.415 . S
C278 H268 0.930 . S
C278 C276 1.419 1_455 S
C278 C279 1.362 . S
C279 H269 0.930 . S
C279 C272 1.409 . S
C279 C278 1.362 . S
H280 C286 0.930 . S
H281 C289 0.930 . S
H282 C290 0.930 . S
H283 C291 0.930 . S
H284 C294 0.930 . S
H285 C295 0.930 . S
C286 H280 0.930 . S
C286 C287 1.355 . S
C286 C288 1.415 . S
C287 C286 1.355 . S
C287 C289 1.419 1_455 S
C288 C286 1.415 . S
C288 C293 1.425 1_455 S
C288 C295 1.409 . S
C289 H281 0.930 . S
C289 C287 1.419 1_655 S
C289 C290 1.362 . S
C290 H282 0.930 . S
C290 C289 1.362 . S
C290 C293 1.409 . S
C291 H283 0.930 . S
C291 C292 1.355 . S
C291 C293 1.415 . S
C292 C291 1.355 . S
C292 C294 1.419 1_655 S
C293 C288 1.425 1_655 S
C293 C290 1.409 . S
C293 C291 1.415 . S
C294 H284 0.930 . S
C294 C292 1.419 1_455 S
C294 C295 1.362 . S
C295 H285 0.930 . S
C295 C288 1.409 . S
C295 C294 1.362 . S
H296 C302 0.930 1_655 S
H297 C305 0.930 . S
H298 C306 0.930 . S
H299 C307 0.930 1_455 S
H300 C310 0.930 . S
H301 C311 0.930 . S
C302 H296 0.930 1_455 S
C302 C303 1.355 . S
C302 C304 1.415 1_455 S
C303 C302 1.355 . S
C303 C305 1.419 . S
C304 C302 1.415 1_655 S
C304 C309 1.425 1_655 S
C304 C311 1.409 . S
C305 H297 0.930 . S
C305 C303 1.419 . S
C305 C306 1.362 . S
C306 H298 0.930 . S
C306 C305 1.362 . S
C306 C309 1.409 . S
C307 H299 0.930 1_655 S
C307 C308 1.355 . S
C307 C309 1.415 1_655 S
C308 C307 1.355 . S
C308 C310 1.419 . S
C309 C304 1.425 1_455 S
C309 C306 1.409 . S
C309 C307 1.415 1_455 S
C310 H300 0.930 . S
C310 C308 1.419 . S
C310 C311 1.362 . S
C311 H301 0.930 . S
C311 C304 1.409 . S
C311 C310 1.362 . S
H312 C318 0.930 . S
H313 C321 0.930 . S
H314 C322 0.930 . S
H315 C323 0.930 . S
H316 C326 0.930 . S
H317 C327 0.930 . S
C318 H312 0.930 . S
C318 C319 1.355 . S
C318 C320 1.415 . S
C319 C318 1.355 . S
C319 C321 1.419 . S
C320 C318 1.415 . S
C320 C325 1.425 . S
C320 C327 1.409 . S
C321 H313 0.930 . S
C321 C319 1.419 . S
C321 C322 1.362 . S
C322 H314 0.930 . S
C322 C321 1.362 . S
C322 C325 1.409 . S
C323 H315 0.930 . S
C323 C324 1.355 . S
C323 C325 1.415 . S
C324 C323 1.355 . S
C324 C326 1.419 . S
C325 C320 1.425 . S
C325 C322 1.409 . S
C325 C323 1.415 . S
C326 H316 0.930 . S
C326 C324 1.419 . S
C326 C327 1.362 . S
C327 H317 0.930 . S
C327 C320 1.409 . S
C327 C326 1.362 . S
H328 C334 0.930 . S
H329 C337 0.930 . S
H330 C338 0.930 . S
H331 C339 0.930 . S
H332 C342 0.930 . S
H333 C343 0.930 . S
C334 H328 0.930 . S
C334 C335 1.355 . S
C334 C336 1.415 . S
C335 C334 1.355 . S
C335 C337 1.419 . S
C336 C334 1.415 . S
C336 C341 1.425 . S
C336 C343 1.409 . S
C337 H329 0.930 . S
C337 C335 1.419 . S
C337 C338 1.362 . S
C338 H330 0.930 . S
C338 C337 1.362 . S
C338 C341 1.409 . S
C339 H331 0.930 . S
C339 C340 1.355 . S
C339 C341 1.415 . S
C340 C339 1.355 . S
C340 C342 1.419 . S
C341 C336 1.425 . S
C341 C338 1.409 . S
C341 C339 1.415 . S
C342 H332 0.930 . S
C342 C340 1.419 . S
C342 C343 1.362 . S
C343 H333 0.930 . S
C343 C336 1.409 . S
C343 C342 1.362 . S
H344 C350 0.930 . S
H345 C353 0.930 . S
H346 C354 0.930 . S
H347 C355 0.930 . S
H348 C358 0.930 . S
H349 C359 0.930 . S
C350 H344 0.930 . S
C350 C351 1.355 . S
C350 C352 1.415 . S
C351 C350 1.355 . S
C351 C353 1.419 . S
C352 C350 1.415 . S
C352 C357 1.425 . S
C352 C359 1.409 . S
C353 H345 0.930 . S
C353 C351 1.419 . S
C353 C354 1.362 . S
C354 H346 0.930 . S
C354 C353 1.362 . S
C354 C357 1.409 . S
C355 H347 0.930 . S
C355 C356 1.355 . S
C355 C357 1.415 . S
C356 C355 1.355 . S
C356 C358 1.419 . S
C357 C352 1.425 . S
C357 C354 1.409 . S
C357 C355 1.415 . S
C358 H348 0.930 . S
C358 C356 1.419 . S
C358 C359 1.362 . S
C359 H349 0.930 . S
C359 C352 1.409 . S
C359 C358 1.362 . S
H360 C366 0.930 . S
H361 C369 0.930 . S
H362 C370 0.930 . S
H363 C371 0.930 . S
H364 C374 0.930 . S
H365 C375 0.930 . S
C366 H360 0.930 . S
C366 C367 1.355 . S
C366 C368 1.415 . S
C367 C366 1.355 . S
C367 C369 1.419 . S
C368 C366 1.415 . S
C368 C373 1.425 . S
C368 C375 1.409 . S
C369 H361 0.930 . S
C369 C367 1.419 . S
C369 C370 1.362 . S
C370 H362 0.930 . S
C370 C369 1.362 . S
C370 C373 1.409 . S
C371 H363 0.930 . S
C371 C372 1.355 . S
C371 C373 1.415 . S
C372 C371 1.355 . S
C372 C374 1.419 . S
C373 C368 1.425 . S
C373 C370 1.409 . S
C373 C371 1.415 . S
C374 H364 0.930 . S
C374 C372 1.419 . S
C374 C375 1.362 . S
C375 H365 0.930 . S
C375 C368 1.409 . S
C375 C374 1.362 . S
H376 C382 0.930 . S
H377 C385 0.930 . S
H378 C386 0.930 . S
H379 C387 0.930 . S
H380 C390 0.930 . S
H381 C391 0.930 . S
C382 H376 0.930 . S
C382 C383 1.355 1_554 S
C382 C384 1.415 . S
C383 C382 1.355 1_556 S
C383 C385 1.419 . S
C384 C382 1.415 . S
C384 C389 1.425 1_554 S
C384 C391 1.409 . S
C385 H377 0.930 . S
C385 C383 1.419 . S
C385 C386 1.362 . S
C386 H378 0.930 . S
C386 C385 1.362 . S
C386 C389 1.409 . S
C387 H379 0.930 . S
C387 C388 1.355 1_556 S
C387 C389 1.415 . S
C388 C387 1.355 1_554 S
C388 C390 1.419 . S
C389 C384 1.425 1_556 S
C389 C386 1.409 . S
C389 C387 1.415 . S
C390 H380 0.930 . S
C390 C388 1.419 . S
C390 C391 1.362 . S
C391 H381 0.930 . S
C391 C384 1.409 . S
C391 C390 1.362 . S
H392 C398 0.930 . S
H393 C401 0.930 . S
H394 C402 0.930 . S
H395 C403 0.930 . S
H396 C406 0.930 . S
H397 C407 0.930 . S
C398 H392 0.930 . S
C398 C399 1.355 1_554 S
C398 C400 1.415 . S
C399 C398 1.355 1_556 S
C399 C401 1.419 . S
C400 C398 1.415 . S
C400 C405 1.425 1_554 S
C400 C407 1.409 . S
C401 H393 0.930 . S
C401 C399 1.419 . S
C401 C402 1.362 . S
C402 H394 0.930 . S
C402 C401 1.362 . S
C402 C405 1.409 . S
C403 H395 0.930 . S
C403 C404 1.355 1_556 S
C403 C405 1.415 . S
C404 C403 1.355 1_554 S
C404 C406 1.419 . S
C405 C400 1.425 1_556 S
C405 C402 1.409 . S
C405 C403 1.415 . S
C406 H396 0.930 . S
C406 C404 1.419 . S
C406 C407 1.362 . S
C407 H397 0.930 . S
C407 C400 1.409 . S
C407 C406 1.362 . S
H408 C414 0.930 . S
H409 C417 0.930 . S
H410 C418 0.930 . S
H411 C419 0.930 . S
H412 C422 0.930 . S
H413 C423 0.930 . S
C414 H408 0.930 . S
C414 C415 1.355 . S
C414 C416 1.415 . S
C415 C414 1.355 . S
C415 C417 1.419 . S
C416 C414 1.415 . S
C416 C421 1.425 . S
C416 C423 1.409 . S
C417 H409 0.930 . S
C417 C415 1.419 . S
C417 C418 1.362 . S
C418 H410 0.930 . S
C418 C417 1.362 . S
C418 C421 1.409 . S
C419 H411 0.930 . S
C419 C420 1.355 . S
C419 C421 1.415 . S
C420 C419 1.355 . S
C420 C422 1.419 . S
C421 C416 1.425 . S
C421 C418 1.409 . S
C421 C419 1.415 . S
C422 H412 0.930 . S
C422 C420 1.419 . S
C422 C423 1.362 . S
C423 H413 0.930 . S
C423 C416 1.409 . S
C423 C422 1.362 . S
H424 C430 0.930 . S
H425 C433 0.930 . S
H426 C434 0.930 . S
H427 C435 0.930 . S
H428 C438 0.930 1_455 S
H429 C439 0.930 1_455 S
C430 H424 0.930 . S
C430 C431 1.355 . S
C430 C432 1.415 . S
C431 C430 1.355 . S
C431 C433 1.419 . S
C432 C430 1.415 . S
C432 C437 1.425 . S
C432 C439 1.409 . S
C433 H425 0.930 . S
C433 C431 1.419 . S
C433 C434 1.362 . S
C434 H426 0.930 . S
C434 C433 1.362 . S
C434 C437 1.409 . S
C435 H427 0.930 . S
C435 C436 1.355 . S
C435 C437 1.415 . S
C436 C435 1.355 . S
C436 C438 1.419 . S
C437 C432 1.425 . S
C437 C434 1.409 . S
C437 C435 1.415 . S
C438 H428 0.930 1_655 S
C438 C436 1.419 . S
C438 C439 1.362 . S
C439 H429 0.930 1_655 S
C439 C432 1.409 . S
C439 C438 1.362 . S
C191 N25 1.422 . S
C196 N2 1.473 . S
C207 N48 1.427 . S
C212 N71 1.444 . S
C223 N94 1.486 . S
C228 N117 1.428 . S
C239 N140 1.428 . S
C244 N163 1.485 . S
C255 C16 1.493 . S
C260 C85 1.517 . S
C271 C62 1.512 . S
C276 C39 1.477 . S
C287 C53 1.491 . S
C292 C30 1.503 . S
C303 C7 1.518 . S
C308 C76 1.494 . S
C319 C108 1.474 . S
C324 C177 1.503 . S
C335 C154 1.516 . S
C340 C131 1.483 . S
C351 C122 1.501 . S
C356 C145 1.518 . S
C367 C99 1.492 . S
C372 C168 1.503 . S
C383 N127 1.494 1_556 S
C388 N12 1.465 . S
C399 N104 1.518 1_556 S
C404 N35 1.450 . S
C415 N58 1.514 . S
C420 N173 1.449 . S
C431 N150 1.477 . S
C436 N81 1.481 . S
