# Generated by pormake.
# Topology wme, (6)-cn, num edge types: 1
# Building blocks:
#     Node 0, Type 0, BuildingBlock: PAMTUU_clean_sbu_0, # of connection points: 6
#     Node 1, Type 0, BuildingBlock: PAMTUU_clean_sbu_0, # of connection points: 6
#     Node 2, Type 0, BuildingBlock: PAMTUU_clean_sbu_0, # of connection points: 6
#     Node 3, Type 0, BuildingBlock: PAMTUU_clean_sbu_0, # of connection points: 6
#     Node 4, Type 0, BuildingBlock: PAMTUU_clean_sbu_0, # of connection points: 6
#     Node 5, Type 0, BuildingBlock: PAMTUU_clean_sbu_0, # of connection points: 6
#     Node 6, Type 0, BuildingBlock: PAMTUU_clean_sbu_0, # of connection points: 6
#     Node 7, Type 0, BuildingBlock: PAMTUU_clean_sbu_0, # of connection points: 6
#     Node 8, Type 0, BuildingBlock: PAMTUU_clean_sbu_0, # of connection points: 6
#     Node 9, Type 0, BuildingBlock: PAMTUU_clean_sbu_0, # of connection points: 6
#     Node 10, Type 0, BuildingBlock: PAMTUU_clean_sbu_0, # of connection points: 6
#     Node 11, Type 0, BuildingBlock: PAMTUU_clean_sbu_0, # of connection points: 6
#     Edge 12, Type (0, 0), BuildingBlock: OJICUG_clean_linker_0, # of connection points: 2
#     Edge 13, Type (0, 0), BuildingBlock: OJICUG_clean_linker_0, # of connection points: 2
#     Edge 14, Type (0, 0), BuildingBlock: OJICUG_clean_linker_0, # of connection points: 2
#     Edge 15, Type (0, 0), BuildingBlock: OJICUG_clean_linker_0, # of connection points: 2
#     Edge 16, Type (0, 0), BuildingBlock: OJICUG_clean_linker_0, # of connection points: 2
#     Edge 17, Type (0, 0), BuildingBlock: OJICUG_clean_linker_0, # of connection points: 2
#     Edge 18, Type (0, 0), BuildingBlock: OJICUG_clean_linker_0, # of connection points: 2
#     Edge 19, Type (0, 0), BuildingBlock: OJICUG_clean_linker_0, # of connection points: 2
#     Edge 20, Type (0, 0), BuildingBlock: OJICUG_clean_linker_0, # of connection points: 2
#     Edge 21, Type (0, 0), BuildingBlock: OJICUG_clean_linker_0, # of connection points: 2
#     Edge 22, Type (0, 0), BuildingBlock: OJICUG_clean_linker_0, # of connection points: 2
#     Edge 23, Type (0, 0), BuildingBlock: OJICUG_clean_linker_0, # of connection points: 2
#     Edge 24, Type (0, 0), BuildingBlock: OJICUG_clean_linker_0, # of connection points: 2
#     Edge 25, Type (0, 0), BuildingBlock: OJICUG_clean_linker_0, # of connection points: 2
#     Edge 26, Type (0, 0), BuildingBlock: OJICUG_clean_linker_0, # of connection points: 2
#     Edge 27, Type (0, 0), BuildingBlock: OJICUG_clean_linker_0, # of connection points: 2
#     Edge 28, Type (0, 0), BuildingBlock: OJICUG_clean_linker_0, # of connection points: 2
#     Edge 29, Type (0, 0), BuildingBlock: OJICUG_clean_linker_0, # of connection points: 2
#     Edge 30, Type (0, 0), BuildingBlock: OJICUG_clean_linker_0, # of connection points: 2
#     Edge 31, Type (0, 0), BuildingBlock: OJICUG_clean_linker_0, # of connection points: 2
#     Edge 32, Type (0, 0), BuildingBlock: OJICUG_clean_linker_0, # of connection points: 2
#     Edge 33, Type (0, 0), BuildingBlock: OJICUG_clean_linker_0, # of connection points: 2
#     Edge 34, Type (0, 0), BuildingBlock: OJICUG_clean_linker_0, # of connection points: 2
#     Edge 35, Type (0, 0), BuildingBlock: OJICUG_clean_linker_0, # of connection points: 2
#     Edge 36, Type (0, 0), BuildingBlock: OJICUG_clean_linker_0, # of connection points: 2
#     Edge 37, Type (0, 0), BuildingBlock: OJICUG_clean_linker_0, # of connection points: 2
#     Edge 38, Type (0, 0), BuildingBlock: OJICUG_clean_linker_0, # of connection points: 2
#     Edge 39, Type (0, 0), BuildingBlock: OJICUG_clean_linker_0, # of connection points: 2
#     Edge 40, Type (0, 0), BuildingBlock: OJICUG_clean_linker_0, # of connection points: 2
#     Edge 41, Type (0, 0), BuildingBlock: OJICUG_clean_linker_0, # of connection points: 2
#     Edge 42, Type (0, 0), BuildingBlock: OJICUG_clean_linker_0, # of connection points: 2
#     Edge 43, Type (0, 0), BuildingBlock: OJICUG_clean_linker_0, # of connection points: 2
#     Edge 44, Type (0, 0), BuildingBlock: OJICUG_clean_linker_0, # of connection points: 2
#     Edge 45, Type (0, 0), BuildingBlock: OJICUG_clean_linker_0, # of connection points: 2
#     Edge 46, Type (0, 0), BuildingBlock: OJICUG_clean_linker_0, # of connection points: 2
#     Edge 47, Type (0, 0), BuildingBlock: OJICUG_clean_linker_0, # of connection points: 2
# Relax obj value: 0.095
# Max RMSD: 0.223
# Mean RMSD: 0.223
data_MOF--net-wme--node1-PAMTUU_clean_sbu_0--edge1-OJICUG_clean_linker_0
_symmetry_space_group_name_H-M    P1
_symmetry_Int_Tables_number       1
_symmetry_cell_setting            triclinic
loop_
_symmetry_equiv_pos_as_xyz
'x, y, z'
_cell_length_a     31.429843
_cell_length_b     31.59212
_cell_length_c     37.972042
_cell_angle_alpha  89.930858
_cell_angle_beta   90.06907
_cell_angle_gamma 119.89466
loop_
_atom_site_label
_atom_site_type_symbol
_atom_site_fract_x
_atom_site_fract_y
_atom_site_fract_z
_atom_type_partial_charge
Tb0 Tb 0.28179 0.32834 0.13141 0.0
Tb1 Tb 0.23792 0.39224 0.09334 0.0
C2 C 0.25495 0.39266 0.17637 0.0
C3 C 0.28955 0.2183 0.14932 0.0
C4 C 0.24908 0.11659 0.13945 0.0
C5 C 0.27215 0.13887 0.1714 0.0
C6 C 0.29225 0.18928 0.17624 0.0
C7 C 0.26599 0.19607 0.11759 0.0
C8 C 0.24617 0.14586 0.11266 0.0
C9 C 0.30931 0.27113 0.15488 0.0
O10 O 0.20211 0.28991 0.13982 0.0
O11 O 0.18086 0.31636 0.0904 0.0
O12 O 0.27548 0.37156 0.0534 0.0
O13 O 0.25601 0.29962 0.07965 0.0
O14 O 0.17654 0.40077 0.08473 0.0
O15 O 0.24592 0.44939 0.06023 0.0
O16 O 0.30766 0.4455 0.11491 0.0
O17 O 0.3451 0.39887 0.11442 0.0
O18 O 0.28731 0.37858 0.17163 0.0
O19 O 0.22671 0.39257 0.15049 0.0
C20 C 0.16877 0.286 0.11698 0.0
O21 O 0.3287 0.2991 0.12737 0.0
O22 O 0.28089 0.28281 0.17226 0.0
C23 C 0.27147 0.32802 0.05223 0.0
C24 C 0.19441 0.48254 0.07619 0.0
C25 C 0.17865 0.5616 0.09242 0.0
C26 C 0.13947 0.51316 0.09273 0.0
C27 C 0.14725 0.47423 0.08463 0.0
C28 C 0.23358 0.5309 0.07568 0.0
C29 C 0.22579 0.56983 0.08364 0.0
C30 C 0.20144 0.44072 0.06655 0.0
C31 C 0.34743 0.44193 0.11465 0.0
H32 H 0.27539 0.11749 0.19245 0.0
H33 H 0.30986 0.20561 0.20103 0.0
H34 H 0.26272 0.21748 0.09657 0.0
H35 H 0.22807 0.12985 0.08795 0.0
H36 H 0.10277 0.50517 0.09959 0.0
H37 H 0.11616 0.43743 0.08489 0.0
H38 H 0.27029 0.53885 0.06886 0.0
H39 H 0.25681 0.60657 0.08233 0.0
Tb40 Tb 0.97825 0.25967 0.6302 0.0
Tb41 Tb 0.8707 0.21502 0.59085 0.0
C42 C 0.88538 0.23076 0.67387 0.0
C43 C 0.09743 0.26971 0.64935 0.0
C44 C 0.16144 0.23194 0.6395 0.0
C45 C 0.15841 0.25087 0.67238 0.0
C46 C 0.12675 0.26965 0.67721 0.0
C47 C 0.10002 0.25041 0.61661 0.0
C48 C 0.13181 0.23195 0.61171 0.0
C49 C 0.06271 0.28778 0.65493 0.0
O50 O 0.9373 0.18061 0.63856 0.0
O51 O 0.89263 0.16009 0.58771 0.0
O52 O 0.92949 0.25359 0.55146 0.0
O53 O 0.98339 0.23577 0.57824 0.0
O54 O 0.80243 0.15295 0.58054 0.0
O55 O 0.82004 0.22276 0.55881 0.0
O56 O 0.88584 0.28408 0.61256 0.0
O57 O 0.97015 0.32199 0.61283 0.0
O58 O 0.9315 0.26414 0.66949 0.0
O59 O 0.85833 0.20236 0.64779 0.0
C60 C 0.91003 0.14793 0.61488 0.0
O61 O 0.05424 0.30786 0.62773 0.0
O62 O 1.02228 0.258 0.6714 0.0
C63 C 0.97006 0.25093 0.55073 0.0
C64 C 0.73655 0.16799 0.57354 0.0
C65 C 0.64072 0.1471 0.59291 0.0
C66 C 0.65045 0.13676 0.55875 0.0
C67 C 0.69781 0.1471 0.54922 0.0
C68 C 0.72711 0.1779 0.60777 0.0
C69 C 0.67976 0.16758 0.61735 0.0
C70 C 0.78591 0.17734 0.56319 0.0
C71 C 0.92899 0.32378 0.61273 0.0
H72 H 0.18101 0.25177 0.69424 0.0
H73 H 0.12503 0.28398 0.70275 0.0
H74 H 0.07725 0.2493 0.59479 0.0
H75 H 0.13268 0.21703 0.58622 0.0
H76 H 0.62174 0.12174 0.53903 0.0
H77 H 0.70421 0.13889 0.52272 0.0
H78 H 0.75635 0.19352 0.62711 0.0
H79 H 0.67374 0.17556 0.64401 0.0
Tb80 Tb 0.74924 0.96695 0.13149 0.0
Tb81 Tb 0.68552 0.85913 0.0937 0.0
C82 C 0.68335 0.87612 0.17634 0.0
C83 C 0.85988 0.08504 0.15116 0.0
C84 C 0.96168 0.14908 0.14091 0.0
C85 C 0.92843 0.16673 0.14052 0.0
C86 C 0.87813 0.13506 0.14566 0.0
C87 C 0.89296 0.06723 0.15177 0.0
C88 C 0.94336 0.09899 0.14695 0.0
C89 C 0.8063 0.05173 0.15457 0.0
O90 O 0.78712 0.92573 0.14162 0.0
O91 O 0.76212 0.87883 0.09196 0.0
O92 O 0.70647 0.91672 0.05358 0.0
O93 O 0.77859 0.96902 0.08005 0.0
O94 O 0.67888 0.79058 0.08456 0.0
O95 O 0.62781 0.80906 0.06122 0.0
O96 O 0.63157 0.87579 0.11392 0.0
O97 O 0.67869 0.95963 0.11371 0.0
O98 O 0.69761 0.92235 0.17124 0.0
O99 O 0.68389 0.84789 0.15086 0.0
C100 C 0.79172 0.89666 0.11907 0.0
O101 O 0.7809 0.04304 0.1256 0.0
O102 O 0.7923 1.01198 0.17292 0.0
C103 C 0.75026 0.956 0.05247 0.0
C104 C 0.59823 0.72581 0.07597 0.0
C105 C 0.5224 0.63069 0.0941 0.0
C106 C 0.5458 0.63994 0.06112 0.0
C107 C 0.58327 0.68698 0.05219 0.0
C108 C 0.57557 0.71686 0.10908 0.0
C109 C 0.53803 0.66981 0.11805 0.0
C110 C 0.63874 0.77474 0.06627 0.0
C111 C 0.63537 0.91904 0.11349 0.0
H112 H 0.94135 0.20517 0.13631 0.0
H113 H 0.85336 0.14959 0.14495 0.0
H114 H 0.87983 1.02866 0.15553 0.0
H115 H 0.96785 0.08413 0.14704 0.0
H116 H 0.53439 0.61109 0.0418 0.0
H117 H 0.60052 0.69307 0.02657 0.0
H118 H 0.58699 0.74622 0.128 0.0
H119 H 0.52133 0.66407 0.14382 0.0
Tb120 Tb 0.80152 0.7277 0.62551 0.0
Tb121 Tb 0.85232 0.66508 0.59526 0.0
C122 C 0.84821 0.68387 0.6761 0.0
C123 C 0.79589 0.8393 0.63963 0.0
C124 C 0.84014 0.94189 0.63476 0.0
C125 C 0.80554 0.91606 0.66132 0.0
C126 C 0.78339 0.86507 0.66361 0.0
C127 C 0.83194 0.86541 0.61402 0.0
C128 C 0.85357 0.91605 0.6115 0.0
C129 C 0.77057 0.78538 0.6403 0.0
O130 O 0.87501 0.78096 0.60569 0.0
O131 O 0.91225 0.73466 0.61084 0.0
O132 O 0.84029 0.70573 0.55277 0.0
O133 O 0.76958 0.6909 0.57704 0.0
O134 O 0.91414 0.65644 0.59171 0.0
O135 O 0.84968 0.61193 0.56039 0.0
O136 O 0.77675 0.61069 0.60575 0.0
O137 O 0.7461 0.65206 0.6383 0.0
O138 O 0.84231 0.72109 0.66841 0.0
O139 O 0.84495 0.65204 0.65226 0.0
C140 C 0.91473 0.77696 0.6078 0.0
O141 O 0.7652 0.76483 0.60964 0.0
O142 O 0.78488 0.76535 0.66415 0.0
C143 C 0.79782 0.704 0.54969 0.0
C144 C 0.8987 0.57703 0.57864 0.0
C145 C 0.91311 0.49713 0.59361 0.0
C146 C 0.86582 0.48974 0.58647 0.0
C147 C 0.85866 0.52921 0.57918 0.0
C148 C 0.94591 0.58448 0.58551 0.0
C149 C 0.95305 0.54509 0.59302 0.0
C150 C 0.89283 0.61962 0.5702 0.0
C151 C 0.74244 0.61148 0.62518 0.0
H152 H 0.79439 0.93509 0.67952 0.0
H153 H 0.75586 0.8457 0.68363 0.0
H154 H 0.8427 0.84657 0.59535 0.0
H155 H 0.88054 0.93503 0.59107 0.0
H156 H 0.83423 0.4533 0.58598 0.0
H157 H 0.82185 0.52216 0.57377 0.0
H158 H 0.97747 0.62099 0.58508 0.0
H159 H 0.98985 0.55237 0.59873 0.0
Tb160 Tb 0.11142 0.7982 0.13308 0.0
Tb161 Tb 0.21861 0.84375 0.09336 0.0
C162 C 0.2046 0.82566 0.17618 0.0
C163 C 0.99322 0.78937 0.15332 0.0
C164 C 0.92979 0.82786 0.14315 0.0
C165 C 0.93242 0.80866 0.17607 0.0
C166 C 0.96381 0.78949 0.18106 0.0
C167 C 0.99122 0.80928 0.1207 0.0
C168 C 0.95975 0.82805 0.11561 0.0
C169 C 1.02758 0.77074 0.15874 0.0
O170 O 0.15234 0.87741 0.14137 0.0
O171 O 0.19589 0.89801 0.09019 0.0
O172 O 0.15981 0.80495 0.05431 0.0
O173 O 0.10513 0.82137 0.08102 0.0
O174 O 0.28703 0.90603 0.08395 0.0
O175 O 0.26839 0.83736 0.05966 0.0
O176 O 0.20406 0.77408 0.11372 0.0
O177 O 0.11966 0.73574 0.1156 0.0
O178 O 0.15831 0.79278 0.17183 0.0
O179 O 0.23148 0.85474 0.15033 0.0
C180 C 0.17902 0.91022 0.11754 0.0
O181 O 1.03529 0.75022 0.13151 0.0
O182 O 0.06845 0.80042 0.17478 0.0
C183 C 0.11844 0.8061 0.0536 0.0
C184 C 0.35193 0.89035 0.07462 0.0
C185 C 0.44697 0.90793 0.09254 0.0
C186 C 0.4382 0.92338 0.0599 0.0
C187 C 0.39117 0.91464 0.05107 0.0
C188 C 0.36046 0.87544 0.10742 0.0
C189 C 0.40746 0.88412 0.11629 0.0
C190 C 0.30289 0.88235 0.06508 0.0
C191 C 0.161 0.73418 0.11434 0.0
H192 H 0.90965 0.80771 0.19778 0.0
H193 H 0.96517 0.77484 0.20658 0.0
H194 H 1.01422 0.81054 0.09912 0.0
H195 H 0.95931 0.84325 0.09011 0.0
H196 H 0.46739 0.94116 0.04076 0.0
H197 H 0.38538 0.92669 0.02569 0.0
H198 H 0.33076 0.85711 0.12616 0.0
H199 H 0.41286 0.87221 0.14182 0.0
Tb200 Tb 0.33708 0.08841 0.63079 0.0
Tb201 Tb 0.40576 0.19711 0.59654 0.0
C202 C 0.40281 0.17522 0.679 0.0
C203 C 0.22037 0.97442 0.64133 0.0
C204 C 0.11847 0.92094 0.62588 0.0
C205 C 0.13513 0.93038 0.66097 0.0
C206 C 0.18551 0.95668 0.66858 0.0
C207 C 0.20369 0.96587 0.60622 0.0
C208 C 0.15344 0.93928 0.59864 0.0
C209 C 0.27358 1.00364 0.64971 0.0
O210 O 0.30198 0.13213 0.64091 0.0
O211 O 0.33019 0.18036 0.59218 0.0
O212 O 0.38679 0.14173 0.55508 0.0
O213 O 0.3122 0.09072 0.57849 0.0
O214 O 0.41422 0.2666 0.58835 0.0
O215 O 0.46668 0.24839 0.56721 0.0
O216 O 0.4569 0.1773 0.61787 0.0
O217 O 0.40777 0.09375 0.61532 0.0
O218 O 0.38612 0.12864 0.67313 0.0
O219 O 0.40506 0.20536 0.6539 0.0
C220 C 0.2991 0.16218 0.61836 0.0
O221 O 0.30422 1.01254 0.62378 0.0
O222 O 0.28677 0.04233 0.66906 0.0
C223 C 0.34246 0.10365 0.55211 0.0
C224 C 0.49595 0.33037 0.58534 0.0
C225 C 0.57043 0.42242 0.60975 0.0
C226 C 0.54072 0.419 0.58091 0.0
C227 C 0.50393 0.37345 0.56885 0.0
C228 C 0.5247 0.33343 0.61459 0.0
C229 C 0.56175 0.37903 0.62659 0.0
C230 C 0.45619 0.28299 0.57246 0.0
C231 C 0.45177 0.13353 0.61657 0.0
H232 H 0.10925 0.91629 0.68258 0.0
H233 H 0.19728 0.9631 0.69583 0.0
H234 H 0.22941 0.97969 0.5845 0.0
H235 H 0.1419 0.93304 0.57133 0.0
H236 H 0.5468 0.45147 0.56696 0.0
H237 H 0.48182 0.37185 0.54642 0.0
H238 H 0.51859 0.3006 0.62805 0.0
H239 H 0.58369 0.38034 0.64903 0.0
Tb240 Tb 0.75151 0.7983 0.36371 0.0
Tb241 Tb 0.68963 0.84384 0.40293 0.0
C242 C 0.68578 0.82531 0.3202 0.0
C243 C 0.86113 0.78978 0.34377 0.0
C244 C 0.96314 0.82838 0.35379 0.0
C245 C 0.94077 0.8068 0.3215 0.0
C246 C 0.89016 0.78755 0.31659 0.0
C247 C 0.88358 0.81212 0.37572 0.0
C248 C 0.93387 0.83092 0.38077 0.0
C249 C 0.80806 0.77088 0.33842 0.0
O250 O 0.78991 0.87749 0.35525 0.0
O251 O 0.76671 0.89801 0.40629 0.0
O252 O 0.70926 0.80513 0.44226 0.0
O253 O 0.78057 0.82149 0.41585 0.0
O254 O 0.63333 0.83765 0.43642 0.0
O255 O 0.68373 0.90623 0.41203 0.0
O256 O 0.6345 0.774 0.3828 0.0
O257 O 0.68067 0.73582 0.38116 0.0
O258 O 0.69927 0.79257 0.32477 0.0
O259 O 0.6879 0.85451 0.34589 0.0
C260 C 0.79596 0.91028 0.37902 0.0
O261 O 0.77999 0.75069 0.3658 0.0
O262 O 0.79671 0.80025 0.32212 0.0
C263 C 0.75175 0.80624 0.44318 0.0
C264 C 0.60322 0.89086 0.42126 0.0
C265 C 0.52611 0.90883 0.40319 0.0
C266 C 0.55027 0.92417 0.43586 0.0
C267 C 0.58839 0.91523 0.44476 0.0
C268 C 0.57986 0.87608 0.38843 0.0
C269 C 0.54171 0.88495 0.37949 0.0
C270 C 0.64409 0.88268 0.43089 0.0
C271 C 0.63771 0.73416 0.38233 0.0
H272 H 0.96222 0.80404 0.30025 0.0
H273 H 0.87372 0.771 0.29157 0.0
H274 H 0.86221 0.81525 0.39679 0.0
H275 H 0.94996 0.84797 0.40573 0.0
H276 H 0.53891 0.94199 0.45496 0.0
H277 H 0.60617 0.92719 0.47015 0.0
H278 H 0.59116 0.8577 0.36973 0.0
H279 H 0.52443 0.87312 0.35394 0.0
Tb280 Tb 0.98892 0.72801 0.87264 0.0
Tb281 Tb 0.87534 0.6642 0.90253 0.0
C282 C 0.89902 0.6839 0.8216 0.0
C283 C 0.10989 0.83721 0.85405 0.0
C284 C 0.17031 0.93957 0.85858 0.0
C285 C 0.19059 0.90875 0.86074 0.0
C286 C 0.16065 0.8581 0.85852 0.0
C287 C 0.08957 0.86778 0.85033 0.0
C288 C 0.11963 0.91865 0.85234 0.0
C289 C 0.07845 0.78412 0.8586 0.0
O290 O 0.967 0.78107 0.89035 0.0
O291 O 0.88352 0.73257 0.88566 0.0
O292 O 0.92805 0.70543 0.94491 0.0
O293 O 0.98348 0.6902 0.92072 0.0
O294 O 0.80497 0.65545 0.90702 0.0
O295 O 0.82475 0.60975 0.9368 0.0
O296 O 0.89611 0.60979 0.89161 0.0
O297 O 0.96979 0.65228 0.86099 0.0
O298 O 0.94211 0.72129 0.82934 0.0
O299 O 0.8703 0.65187 0.8454 0.0
C300 C 0.92259 0.7756 0.88827 0.0
O301 O 0.06109 0.771 0.89035 0.0
O302 O 1.04509 0.76022 0.83462 0.0
C303 C 0.96858 0.70337 0.9481 0.0
C304 C 0.74142 0.57608 0.91949 0.0
C305 C 0.64707 0.49824 0.90226 0.0
C306 C 0.65524 0.5238 0.93416 0.0
C307 C 0.70195 0.56232 0.94264 0.0
C308 C 0.73362 0.55103 0.88754 0.0
C309 C 0.68689 0.51245 0.879 0.0
C310 C 0.78954 0.61836 0.92827 0.0
C311 C 0.93227 0.61126 0.87316 0.0
H312 H 0.22958 0.92379 0.86506 0.0
H313 H 0.17694 0.83511 0.86177 0.0
H314 H 0.0503 0.85225 0.84733 0.0
H315 H 0.10291 0.94142 0.85075 0.0
H316 H 0.62576 0.51343 0.95294 0.0
H317 H 0.70724 0.5815 0.96734 0.0
H318 H 0.76357 0.56155 0.86913 0.0
H319 H 0.68188 0.49395 0.85406 0.0
Tb320 Tb 0.28305 0.96814 0.36466 0.0
Tb321 Tb 0.239 0.86045 0.40256 0.0
C322 C 0.25828 0.87764 0.31978 0.0
C323 C 0.29044 0.08615 0.34734 0.0
C324 C 0.25068 0.14838 0.35749 0.0
C325 C 0.27185 0.14746 0.32503 0.0
C326 C 0.2916 0.11669 0.32005 0.0
C327 C 0.26875 0.08651 0.37961 0.0
C328 C 0.2493 0.11739 0.38467 0.0
C329 C 0.31013 0.05281 0.34165 0.0
O330 O 0.20383 0.92632 0.35473 0.0
O331 O 0.18219 0.88016 0.40473 0.0
O332 O 0.27583 0.91794 0.44268 0.0
O333 O 0.25633 0.97047 0.41623 0.0
O334 O 0.17711 0.79131 0.41076 0.0
O335 O 0.24605 0.81082 0.43583 0.0
O336 O 0.30954 0.87699 0.38226 0.0
O337 O 0.34641 0.96083 0.38208 0.0
O338 O 0.2901 0.92396 0.32471 0.0
O339 O 0.2296 0.84942 0.34535 0.0
C340 C 0.17026 0.89768 0.37754 0.0
O341 O 0.32961 0.04393 0.36906 0.0
O342 O 0.2818 1.01305 0.3241 0.0
C343 C 0.27153 0.95729 0.44378 0.0
C344 C 0.19383 0.72673 0.41989 0.0
C345 C 0.17683 0.63167 0.40371 0.0
C346 C 0.22476 0.67075 0.40969 0.0
C347 C 0.23317 0.71763 0.4176 0.0
C348 C 0.14594 0.68777 0.41421 0.0
C349 C 0.13752 0.64091 0.40613 0.0
C350 C 0.20145 0.77574 0.42931 0.0
C351 C 0.34906 0.92025 0.3824 0.0
H352 H 0.27391 0.17112 0.30364 0.0
H353 H 0.30778 0.11674 0.29486 0.0
H354 H 0.26668 0.06279 0.40097 0.0
H355 H 0.23268 0.1166 0.40981 0.0
H356 H 0.25598 0.66506 0.40884 0.0
H357 H 0.2705 0.74658 0.42216 0.0
H358 H 0.11482 0.69357 0.41606 0.0
H359 H 0.10021 0.61206 0.40144 0.0
Tb360 Tb 0.34481 0.25825 0.86675 0.0
Tb361 Tb 0.40799 0.21426 0.90629 0.0
C362 C 0.40849 0.22893 0.8232 0.0
C363 C 0.23584 0.2683 0.84745 0.0
C364 C 0.13401 0.23041 0.85725 0.0
C365 C 0.15601 0.24943 0.82439 0.0
C366 C 0.2065 0.26828 0.81957 0.0
C367 C 0.21387 0.24885 0.88017 0.0
C368 C 0.16359 0.23033 0.88505 0.0
C369 C 0.28865 0.28641 0.8419 0.0
O370 O 0.30569 0.17893 0.85917 0.0
O371 O 0.33126 0.15901 0.90961 0.0
O372 O 0.38791 0.25316 0.94545 0.0
O373 O 0.31596 0.23467 0.9188 0.0
O374 O 0.41424 0.1524 0.91716 0.0
O375 O 0.46668 0.22255 0.93824 0.0
O376 O 0.46191 0.28297 0.88407 0.0
O377 O 0.41567 0.32089 0.8835 0.0
O378 O 0.3957 0.26223 0.82738 0.0
O379 O 0.40736 0.20086 0.84944 0.0
C380 C 0.30125 0.14635 0.88268 0.0
O381 O 0.31715 0.30647 0.86912 0.0
O382 O 0.29926 0.25663 0.82547 0.0
C383 C 0.34459 0.25031 0.94621 0.0
C384 C 0.49529 0.16774 0.92384 0.0
C385 C 0.57021 0.14699 0.90435 0.0
C386 C 0.54991 0.13622 0.93846 0.0
C387 C 0.5129 0.1465 0.94805 0.0
C388 C 0.51484 0.17804 0.88966 0.0
C389 C 0.55187 0.16779 0.88002 0.0
C390 C 0.45535 0.1771 0.93425 0.0
C391 C 0.45867 0.32274 0.88366 0.0
H392 H 0.13433 0.25037 0.80253 0.0
H393 H 0.22262 0.2827 0.79404 0.0
H394 H 0.23551 0.24769 0.90198 0.0
H395 H 0.14773 0.21534 0.91053 0.0
H396 H 0.56344 0.12094 0.95809 0.0
H397 H 0.49811 0.13798 0.97451 0.0
H398 H 0.5014 0.19393 0.87041 0.0
H399 H 0.56605 0.17609 0.85341 0.0
Tb400 Tb 0.11101 0.32851 0.36519 0.0
Tb401 Tb 0.21866 0.39195 0.40342 0.0
C402 C 0.2023 0.39311 0.3204 0.0
C403 C 0.9932 0.2185 0.34717 0.0
C404 C 0.9321 0.11675 0.35709 0.0
C405 C 0.93121 0.13902 0.32515 0.0
C406 C 0.96146 0.18945 0.32028 0.0
C407 C 0.9946 0.1963 0.3789 0.0
C408 C 0.96428 0.14606 0.38385 0.0
C409 C 1.0263 0.27134 0.34156 0.0
O410 O 0.15268 0.29071 0.3564 0.0
O411 O 0.19922 0.31589 0.40635 0.0
O412 O 0.16028 0.3711 0.44331 0.0
O413 O 0.10771 0.29936 0.41688 0.0
O414 O 0.26784 0.44869 0.43677 0.0
O415 O 0.28856 0.40036 0.41189 0.0
O416 O 0.20235 0.44542 0.38207 0.0
O417 O 0.11816 0.3987 0.3826 0.0
O418 O 0.15588 0.37924 0.32517 0.0
O419 O 0.2303 0.39263 0.34626 0.0
C420 C 0.1813 0.286 0.37951 0.0
O421 O 1.03478 0.29928 0.36904 0.0
O422 O 0.06651 0.28309 0.32426 0.0
C423 C 0.12063 0.32757 0.44438 0.0
C424 C 0.35256 0.48204 0.42073 0.0
C425 C 0.44744 0.56129 0.4045 0.0
C426 C 0.43827 0.51291 0.4043 0.0
C427 C 0.39152 0.47388 0.4124 0.0
C428 C 0.36166 0.53034 0.42113 0.0
C429 C 0.40841 0.56936 0.41317 0.0
C430 C 0.30365 0.4401 0.43028 0.0
C431 C 0.15895 0.44174 0.3824 0.0
H432 H 0.90657 0.11759 0.30412 0.0
H433 H 0.96012 0.20576 0.29549 0.0
H434 H 1.0193 0.21774 0.3999 0.0
H435 H 0.96644 0.13007 0.40857 0.0
H436 H 0.46706 0.50504 0.39752 0.0
H437 H 0.38586 0.43713 0.41221 0.0
H438 H 0.33281 0.53817 0.42786 0.0
H439 H 0.41407 0.60605 0.4144 0.0
Tb440 Tb 0.8148 0.08857 0.86539 0.0
Tb441 Tb 0.85551 0.19705 0.90042 0.0
C442 C 0.83677 0.17643 0.81799 0.0
C443 C 0.81602 0.97438 0.85068 0.0
C444 C 0.85962 0.91654 0.86566 0.0
C445 C 0.80998 0.89486 0.85541 0.0
C446 C 0.78848 0.92346 0.84801 0.0
C447 C 0.86584 0.99639 0.86036 0.0
C448 C 0.88753 0.96775 0.86754 0.0
C449 C 0.7921 1.00397 0.84484 0.0
O450 O 0.89378 0.13185 0.85559 0.0
O451 O 0.91398 0.17979 0.90449 0.0
O452 O 0.81915 0.14119 0.94166 0.0
O453 O 0.84181 0.08984 0.91762 0.0
O454 O 0.91668 0.2665 0.90879 0.0
O455 O 0.84602 0.24803 0.93014 0.0
O456 O 0.78444 0.17744 0.8793 0.0
O457 O 0.74966 0.09383 0.88144 0.0
O458 O 0.80627 0.12993 0.82371 0.0
O459 O 0.86498 0.20606 0.84315 0.0
C460 C 0.92674 0.16159 0.87826 0.0
O461 O 0.77332 1.01248 0.87273 0.0
O462 O 0.81645 0.04316 0.82569 0.0
C463 C 0.82495 0.10283 0.94424 0.0
C464 C 0.89878 0.33024 0.91233 0.0
C465 C 0.91623 0.42255 0.88854 0.0
C466 C 0.94191 0.41878 0.91766 0.0
C467 C 0.93321 0.37311 0.9294 0.0
C468 C 0.87369 0.33365 0.88282 0.0
C469 C 0.88219 0.37936 0.87113 0.0
C470 C 0.89116 0.28272 0.92491 0.0
C471 C 0.74566 0.1337 0.88051 0.0
H472 H 0.78758 0.85555 0.8532 0.0
H473 H 0.7501 0.90573 0.84061 0.0
H474 H 0.88777 0.03571 0.86286 0.0
H475 H 0.92567 0.98554 0.87555 0.0
H476 H 0.96776 0.45104 0.93205 0.0
H477 H 0.95325 0.37127 0.95204 0.0
H478 H 0.84749 0.301 0.86892 0.0
H479 H 0.86206 0.3809 0.84846 0.0
C480 C 0.21931 0.99665 0.09591 0.0
C481 C 0.19376 0.96239 0.12263 0.0
H482 H 0.25704 0.07174 0.08037 0.0
C483 C 0.18529 0.97909 0.15475 0.0
H484 H 0.22665 0.98521 0.07086 0.0
C485 C 0.20295 0.02902 0.16024 0.0
C486 C 0.2291 0.0633 0.13363 0.0
H487 H 0.16588 0.95375 0.17593 0.0
H488 H 0.19603 0.04077 0.1853 0.0
C489 C 0.23663 0.04637 0.10131 0.0
C490 C 0.23362 0.16591 0.6541 0.0
C491 C 0.26213 0.17789 0.62329 0.0
H492 H 0.1795 0.17351 0.68343 0.0
C493 C 0.25662 0.20706 0.59773 0.0
H494 H 0.23702 0.14362 0.67438 0.0
C495 C 0.22378 0.22419 0.60294 0.0
C496 C 0.19575 0.21284 0.63394 0.0
H497 H 0.27804 0.21716 0.57371 0.0
H498 H 0.22109 0.24721 0.58293 0.0
C499 C 0.20094 0.18336 0.65943 0.0
C500 C 0.0512 0.18066 0.15481 0.0
C501 C 1.01499 0.18274 0.13422 0.0
H502 H 0.12809 0.21159 0.16573 0.0
C503 C 1.03005 0.21764 0.10714 0.0
H504 H 1.04082 0.15434 0.17599 0.0
C505 C 0.07986 0.25011 0.10112 0.0
C506 C 0.11614 0.2489 0.12217 0.0
H507 H 1.00322 0.21978 0.09044 0.0
H508 H 0.08981 0.27677 0.08022 0.0
C509 C 0.10121 0.21355 0.14898 0.0
C510 C 0.86023 1.01372 0.5962 0.0
C511 C 0.86026 0.99516 0.62985 0.0
H512 H 0.8759 0.07637 0.56513 0.0
C513 C 0.87884 1.02764 0.65842 0.0
H514 H 0.84577 0.9895 0.57373 0.0
C515 C 0.89678 0.07769 0.65342 0.0
C516 C 0.89559 0.09598 0.61985 0.0
H517 H 0.87954 1.01432 0.6846 0.0
H518 H 0.91028 0.1018 0.67599 0.0
C519 C 0.87736 0.06346 0.5913 0.0
C520 C 0.88942 0.87611 0.1622 0.0
C521 C 0.89533 0.84672 0.13706 0.0
H522 H 0.85278 0.91571 0.17609 0.0
C523 C 0.86797 0.83533 0.10571 0.0
H524 H 0.91032 0.88597 0.18646 0.0
C525 C 0.83523 0.85238 0.09973 0.0
C526 C 0.82899 0.88149 0.12488 0.0
H527 H 0.87112 0.81232 0.08597 0.0
H528 H 0.81438 0.84216 0.07544 0.0
C529 C 0.85676 0.89348 0.15611 0.0
C530 C 1.0012 0.81731 0.5878 0.0
C531 C 0.96467 0.82004 0.60728 0.0
H532 H 0.07785 0.84679 0.57832 0.0
C533 C 0.97855 0.8591 0.63073 0.0
H534 H 0.9915 0.78723 0.56981 0.0
C535 C 1.02852 0.89307 0.63614 0.0
C536 C 0.06524 0.88891 0.61773 0.0
H537 H 0.95113 0.86154 0.64648 0.0
H538 H 1.03851 0.9218 0.65538 0.0
C539 C 0.05074 0.85146 0.59273 0.0
C540 C 0.10165 0.89246 0.33993 0.0
C541 C 0.11776 0.88241 0.3718 0.0
H542 H 1.04024 0.88325 0.30915 0.0
C543 C 0.08269 0.85512 0.39769 0.0
H544 H 0.12762 0.9132 0.31935 0.0
C545 C 1.03282 0.83798 0.39182 0.0
C546 C 1.01652 0.84739 0.35982 0.0
H547 H 0.09362 0.84646 0.42251 0.0
H548 H 1.00684 0.81643 0.41217 0.0
C549 C 0.05154 0.87494 0.33394 0.0
C550 C 0.23458 1.00894 0.89377 0.0
C551 C 0.2017 0.99283 0.86526 0.0
H552 H 0.29086 0.06944 0.92188 0.0
C553 C 0.1996 1.02782 0.8435 0.0
H554 H 0.23644 0.98294 0.91143 0.0
C555 C 0.23108 0.07788 0.84947 0.0
C556 C 0.26479 0.09384 0.87759 0.0
H557 H 0.17457 1.01646 0.82135 0.0
H558 H 0.22953 0.10397 0.83175 0.0
C559 C 0.26554 0.05868 0.89993 0.0
C560 C 0.18607 0.22207 0.34277 0.0
C561 C 0.19621 0.24853 0.37441 0.0
H562 H 0.19518 0.16974 0.31257 0.0
C563 C 0.2233 0.24081 0.40062 0.0
H564 H 0.16544 0.22718 0.32197 0.0
C565 C 0.24036 0.20803 0.39521 0.0
C566 C 0.23106 0.1822 0.36337 0.0
H567 H 0.23197 0.26058 0.42529 0.0
H568 H 0.2619 0.2038 0.41575 0.0
C569 C 0.20347 0.18944 0.33726 0.0
C570 C 1.04585 0.18182 0.83742 0.0
C571 C 0.08061 0.21139 0.86284 0.0
H572 H 0.96996 0.14222 0.82252 0.0
C573 C 0.06404 0.22298 0.89375 0.0
H574 H 0.05738 0.17178 0.8135 0.0
C575 C 1.0141 0.20608 0.89894 0.0
C576 C 0.97933 0.17689 0.87343 0.0
H577 H 0.08985 0.24606 0.9137 0.0
H578 H 1.00287 0.2164 0.92288 0.0
C579 C 0.99573 0.16458 0.84273 0.0
C580 C 0.8744 0.04639 0.39525 0.0
C581 C 0.89888 0.06343 0.36292 0.0
H582 H 0.82322 0.98511 0.4257 0.0
C583 C 0.89086 0.02923 0.33633 0.0
H584 H 0.87928 0.0717 0.41618 0.0
C585 C 0.85864 0.97927 0.34182 0.0
C586 C 0.83341 0.96246 0.37394 0.0
H587 H 0.90958 0.04109 0.31126 0.0
H588 H 0.85276 0.95399 0.32064 0.0
C589 C 0.84204 0.99664 0.40065 0.0
C590 C 0.94324 0.86065 0.86916 0.0
C591 C 0.91363 0.81751 0.88812 0.0
H592 H 0.94918 0.9261 0.84678 0.0
C593 C 0.86944 0.81046 0.90269 0.0
H594 H 0.97722 0.86686 0.85736 0.0
C595 C 0.85335 0.8437 0.89652 0.0
C596 C 0.88089 0.88513 0.87551 0.0
H597 H 0.84599 0.77785 0.91776 0.0
H598 H 0.81841 0.83614 0.90743 0.0
C599 C 0.92697 0.89431 0.86294 0.0
C600 C 0.1233 0.6457 0.09602 0.0
C601 C 0.16095 0.68712 0.11277 0.0
H602 H 0.09962 0.57394 0.07566 0.0
C603 C 0.20229 0.68534 0.12502 0.0
H604 H 0.09121 0.64609 0.08601 0.0
C605 C 0.20702 0.64419 0.11944 0.0
C606 C 0.17082 0.60356 0.10101 0.0
H607 H 0.23177 0.7164 0.13844 0.0
H608 H 0.23958 0.6446 0.12924 0.0
C609 C 0.12826 0.60439 0.09007 0.0
C610 C 0.58699 0.17439 0.62267 0.0
C611 C 0.59099 0.13944 0.60229 0.0
H612 H 0.54022 0.19921 0.64358 0.0
C613 C 0.54737 0.09903 0.5896 0.0
H614 H 0.61944 0.20625 0.63263 0.0
C615 C 0.50129 0.09489 0.59602 0.0
C616 C 0.49797 0.13133 0.61494 0.0
H617 H 0.54889 0.07103 0.57417 0.0
H618 H 0.46869 0.06455 0.58473 0.0
C619 C 0.54132 0.17044 0.62882 0.0
C620 C 0.43853 0.5773 0.11974 0.0
C621 C 0.47995 0.5813 0.10258 0.0
H622 H 0.36516 0.53057 0.13737 0.0
C623 C 0.47903 0.53796 0.09213 0.0
H624 H 0.43744 0.6096 0.12785 0.0
C625 C 0.43706 0.49202 0.09767 0.0
C626 C 0.39501 0.48859 0.11342 0.0
H627 H 0.5105 0.53959 0.0792 0.0
H628 H 0.43681 0.45954 0.0883 0.0
C629 C 0.39679 0.53176 0.125 0.0
C630 C 0.96185 0.45322 0.58874 0.0
C631 C 0.92048 0.45485 0.6014 0.0
H632 H 0.99755 0.41059 0.5828 0.0
C633 C 0.88512 0.41485 0.6208 0.0
H634 H 0.98974 0.48318 0.57351 0.0
C635 C 0.88944 0.37338 0.62571 0.0
C636 C 0.92956 0.37089 0.6118 0.0
H637 H 0.85355 0.41519 0.63186 0.0
H638 H 0.86064 0.34269 0.63989 0.0
C639 C 0.96646 0.41169 0.59407 0.0
C640 C 0.58601 0.95946 0.09675 0.0
C641 C 0.58867 0.92019 0.11182 0.0
H642 H 0.53917 0.98662 0.07882 0.0
C643 C 0.54482 0.87874 0.12257 0.0
H644 H 0.61904 0.99179 0.08805 0.0
C645 C 0.4994 0.87565 0.11725 0.0
C646 C 0.49621 0.91386 0.10087 0.0
H647 H 0.54538 0.84781 0.13443 0.0
H648 H 0.46657 0.84229 0.12477 0.0
C649 C 0.54019 0.95622 0.09115 0.0
C650 C 0.65044 0.55951 0.62524 0.0
C651 C 0.69686 0.56388 0.62938 0.0
H652 H 0.57365 0.51106 0.61576 0.0
C653 C 0.70022 0.52118 0.6313 0.0
H654 H 0.64687 0.59181 0.6233 0.0
C655 C 0.65867 0.47523 0.62696 0.0
C656 C 0.61265 0.47074 0.62021 0.0
H657 H 0.73559 0.52346 0.63441 0.0
H658 H 0.66327 0.44346 0.62673 0.0
C659 C 0.60871 0.51332 0.62047 0.0
C660 C 0.43897 0.96064 0.3989 0.0
C661 C 0.39691 0.92139 0.38393 0.0
H662 H 0.51302 0.98769 0.41677 0.0
C663 C 0.39912 0.87989 0.3732 0.0
H664 H 0.4384 0.99299 0.40759 0.0
C665 C 0.44141 0.87672 0.37849 0.0
C666 C 0.48292 0.9149 0.39481 0.0
H667 H 0.36751 0.84897 0.36142 0.0
H668 H 0.44072 0.84332 0.37102 0.0
C669 C 0.48149 0.95731 0.40447 0.0
C670 C 0.59474 0.41299 0.87959 0.0
C671 C 0.59796 0.45526 0.89426 0.0
H672 H 0.54858 0.33878 0.86435 0.0
C673 C 0.5541 0.45494 0.90274 0.0
H674 H 0.62754 0.41158 0.87305 0.0
C675 C 0.50827 0.41271 0.89776 0.0
C676 C 0.50552 0.36992 0.88452 0.0
H677 H 0.55523 0.48711 0.91369 0.0
H678 H 0.47528 0.41301 0.90555 0.0
C679 C 0.54926 0.371 0.87484 0.0
C680 C 0.12745 0.53912 0.40856 0.0
C681 C 0.1683 0.58172 0.39517 0.0
H682 H 0.09179 0.46099 0.41467 0.0
C683 C 0.2023 0.57638 0.37438 0.0
H684 H 0.10054 0.54166 0.42482 0.0
C685 C 0.1974 0.53046 0.3689 0.0
C686 C 0.15802 0.48824 0.38363 0.0
H687 H 0.23339 0.60788 0.36269 0.0
H688 H 0.22535 0.52817 0.35371 0.0
C689 C 0.12226 0.49279 0.40271 0.0
C690 C 0.69326 0.17091 0.86866 0.0
C691 C 0.6973 0.13157 0.88224 0.0
H692 H 0.65107 0.20678 0.86511 0.0
C693 C 0.65732 0.09482 0.9009 0.0
H694 H 0.72331 0.1999 0.85409 0.0
C695 C 0.61535 0.09887 0.90734 0.0
C696 C 0.61233 0.13948 0.89494 0.0
H697 H 0.65941 0.06428 0.91193 0.0
H698 H 0.58563 0.07062 0.92256 0.0
C699 C 0.65152 0.17477 0.87483 0.0
C700 C 0.50162 0.64386 0.37732 0.0
C701 C 0.49724 0.60333 0.39586 0.0
H702 H 0.54906 0.71605 0.35816 0.0
C703 C 0.54069 0.60435 0.40688 0.0
H704 H 0.46941 0.64412 0.36745 0.0
C705 C 0.58698 0.64574 0.40087 0.0
C706 C 0.5907 0.68705 0.38399 0.0
H707 H 0.53892 0.57399 0.42138 0.0
H708 H 0.61951 0.64627 0.41092 0.0
C709 C 0.54752 0.68509 0.37167 0.0
C710 C 0.88496 0.52096 0.86641 0.0
C711 C 0.9308 0.5639 0.86912 0.0
H712 H 0.84449 0.44314 0.87032 0.0
C713 C 0.97292 0.55989 0.87411 0.0
H714 H 0.8518 0.52293 0.86263 0.0
C715 C 0.96867 0.5138 0.87888 0.0
C716 C 0.92229 0.47093 0.87829 0.0
H717 H 1.00863 0.59235 0.87667 0.0
H718 H 1.00149 0.51182 0.88419 0.0
C719 C 0.88077 0.47512 0.87075 0.0
C720 C 0.26541 0.40541 0.27531 0.0
C721 C 0.2211 0.40347 0.28392 0.0
H722 H 0.31127 0.40418 0.23436 0.0
C723 C 0.19184 0.40567 0.25665 0.0
H724 H 0.28897 0.40419 0.29565 0.0
C725 C 0.20453 0.40557 0.22143 0.0
C726 C 0.24666 0.40318 0.21284 0.0
H727 H 0.15775 0.40497 0.26239 0.0
H728 H 0.17982 0.4045 0.20109 0.0
C729 C 0.27805 0.40522 0.2401 0.0
C730 C 0.82495 0.17633 0.71899 0.0
C731 C 0.86631 0.22108 0.71022 0.0
H732 H 0.78286 0.12714 0.76018 0.0
C733 C 0.8933 0.25402 0.7373 0.0
H734 H 0.80325 0.15032 0.69874 0.0
C735 C 0.88174 0.24079 0.77253 0.0
C736 C 0.84305 0.19428 0.78134 0.0
H737 H 0.92499 0.28918 0.73135 0.0
H738 H 0.90483 0.26599 0.79273 0.0
C739 C 0.81347 0.16301 0.75426 0.0
C740 C 0.67186 0.88768 0.24001 0.0
C741 C 0.67271 0.85776 0.21288 0.0
H742 H 0.67479 0.90065 0.29547 0.0
C743 C 0.6695 0.81313 0.22167 0.0
H744 H 0.67348 0.92201 0.23411 0.0
C745 C 0.67018 0.80092 0.2569 0.0
C746 C 0.67401 0.83307 0.28396 0.0
H747 H 0.66952 0.78901 0.20143 0.0
H748 H 0.6704 0.76746 0.26277 0.0
C749 C 0.67247 0.87542 0.27525 0.0
C750 C 0.88929 0.72518 0.73105 0.0
C751 C 0.86177 0.68115 0.7128 0.0
H752 H 0.92125 0.76008 0.77953 0.0
C753 C 0.84482 0.63668 0.73083 0.0
H754 H 0.90288 0.76005 0.71789 0.0
C755 C 0.85503 0.6367 0.76694 0.0
C756 C 0.88291 0.68118 0.78485 0.0
H757 H 0.82299 0.60228 0.71729 0.0
H758 H 0.84216 0.6023 0.78057 0.0
C759 C 0.89975 0.7252 0.76647 0.0
C760 C 0.19623 0.8017 0.23956 0.0
C761 C 0.22435 0.83377 0.21235 0.0
H762 H 0.18519 0.79014 0.29507 0.0
C763 C 0.26817 0.87641 0.22086 0.0
H764 H 0.16263 0.76805 0.23384 0.0
C765 C 0.28112 0.88898 0.25605 0.0
C766 C 0.25052 0.8591 0.28332 0.0
H767 H 0.2909 0.90159 0.20052 0.0
H768 H 0.31375 0.92349 0.26179 0.0
C769 C 0.20921 0.81424 0.27473 0.0
C770 C 0.41361 0.17412 0.77806 0.0
C771 C 0.41791 0.21919 0.78689 0.0
H772 H 0.40575 0.12487 0.73677 0.0
C773 C 0.42477 0.25253 0.75988 0.0
H774 H 0.40857 0.1478 0.79828 0.0
C775 C 0.42308 0.23946 0.72462 0.0
C776 C 0.41433 0.1927 0.71572 0.0
H777 H 0.42897 0.28793 0.76588 0.0
H778 H 0.42591 0.26503 0.70447 0.0
C779 C 0.41173 0.16095 0.74276 0.0
C780 C 0.27904 0.24329 0.98624 0.0
C781 C 0.32832 0.26958 0.97554 0.0
H782 H 0.22252 0.24168 0.01869 0.0
C783 C 0.35819 0.31723 0.9884 0.0
H784 H 0.25495 0.20691 0.97614 0.0
C785 C 0.33884 0.33809 0.01159 0.0
C786 C 0.28961 0.31129 0.02253 0.0
H787 H 0.39593 0.33875 0.97975 0.0
H788 H 0.36267 0.37442 0.02184 0.0
C789 C 0.26019 0.26355 0.00993 0.0
C790 C 0.06558 0.26237 0.48571 0.0
C791 C 0.08558 0.31076 0.47402 0.0
H792 H 1.01299 0.20559 0.51899 0.0
C793 C 0.06491 0.33865 0.48599 0.0
H794 H 0.08008 0.23974 0.47622 0.0
C795 C 1.02475 0.31821 0.50928 0.0
C796 C 1.0053 0.2699 0.52122 0.0
H797 H 0.07875 0.37558 0.4765 0.0
H798 H 1.00991 0.34054 0.51877 0.0
C799 C 1.02656 0.24251 0.50953 0.0
C800 C 0.73776 1.00911 0.00944 0.0
C801 C 0.76698 0.99053 0.02269 0.0
H802 H 0.73425 0.06156 0.97504 0.0
C803 C 0.816 1.01162 0.01171 0.0
H804 H 0.70024 0.99429 0.01833 0.0
C805 C 0.83526 0.04973 0.98731 0.0
C806 C 0.80649 0.06884 0.9743 0.0
H807 H 0.83952 0.99859 0.02212 0.0
H808 H 0.87273 0.06419 0.97838 0.0
C809 C 0.75755 0.04834 0.98556 0.0
C810 C 0.73874 0.72233 0.5187 0.0
C811 C 0.78631 0.72846 0.52092 0.0
H812 H 0.69073 0.74264 0.49312 0.0
C813 C 0.82285 0.76197 0.49834 0.0
H814 H 0.70969 0.69695 0.5359 0.0
C815 C 0.81197 0.78875 0.47412 0.0
C816 C 0.76431 0.78241 0.47183 0.0
H817 H 0.85999 0.76831 0.49987 0.0
H818 H 0.84103 0.81447 0.45714 0.0
C819 C 0.7279 0.74901 0.49452 0.0
C820 C 1.04589 0.72118 0.97902 0.0
C821 C 1.00488 0.72798 0.97667 0.0
H822 H 0.11427 0.74107 0.00441 0.0
C823 C 1.00271 0.76228 -0.00115 0.0
H824 H 0.0489 0.69518 0.96212 0.0
C825 C 1.04081 0.78919 0.02274 0.0
C826 C 0.0817 0.78218 0.02515 0.0
H827 H 0.97227 0.76914 0.99719 0.0
H828 H 1.03821 0.8156 0.03936 0.0
C829 C 0.08384 0.74797 0.00289 0.0
C830 C 0.33687 1.01052 0.4869 0.0
C831 C 0.28898 0.99152 0.47368 0.0
H832 H 0.39264 0.06326 0.52129 0.0
C833 C 0.26065 1.01208 0.48471 0.0
H834 H 0.35987 0.99612 0.47796 0.0
C835 C 0.27922 0.05012 0.50911 0.0
C836 C 0.32719 0.06968 0.52209 0.0
H837 H 0.22403 0.99875 0.47429 0.0
H838 H 0.25591 0.06418 0.51805 0.0
C839 C 0.35603 0.04969 0.5108 0.0
loop_
_geom_bond_atom_site_label_1
_geom_bond_atom_site_label_2
_geom_bond_distance
_geom_bond_site_symmetry_2
_ccdc_geom_bond_type
Tb0 C9 2.764 . S
Tb0 O10 2.325 . S
Tb0 O13 2.303 . S
Tb0 O17 2.322 . S
Tb0 O18 2.349 . S
Tb0 O21 2.415 . S
Tb0 O22 2.399 . S
Tb1 O11 2.322 . S
Tb1 O12 2.349 . S
Tb1 O14 2.415 . S
Tb1 O15 2.399 . S
Tb1 O16 2.325 . S
Tb1 O19 2.303 . S
Tb1 C30 2.764 . S
C2 O18 1.261 . S
C2 O19 1.257 . S
C3 C6 1.358 . S
C3 C7 1.332 . S
C3 C9 1.504 . S
C4 C5 1.373 . S
C4 C8 1.308 . S
C5 C4 1.373 . S
C5 C6 1.429 . S
C5 H32 0.932 . S
C6 C3 1.358 . S
C6 C5 1.429 . S
C6 H33 0.930 . S
C7 C3 1.332 . S
C7 C8 1.394 . S
C7 H34 0.932 . S
C8 C4 1.308 . S
C8 C7 1.394 . S
C8 H35 0.929 . S
C9 Tb0 2.764 . S
C9 C3 1.504 . S
C9 O21 1.239 . S
C9 O22 1.263 . S
O10 Tb0 2.325 . S
O10 C20 1.236 . S
O11 Tb1 2.322 . S
O11 C20 1.257 . S
O12 Tb1 2.349 . S
O12 C23 1.261 . S
O13 Tb0 2.303 . S
O13 C23 1.257 . S
O14 Tb1 2.415 . S
O14 C30 1.239 . S
O15 Tb1 2.399 . S
O15 C30 1.263 . S
O16 Tb1 2.325 . S
O16 C31 1.236 . S
O17 Tb0 2.322 . S
O17 C31 1.257 . S
O18 Tb0 2.349 . S
O18 C2 1.261 . S
O19 Tb1 2.303 . S
O19 C2 1.257 . S
C20 O10 1.236 . S
C20 O11 1.257 . S
O21 Tb0 2.415 . S
O21 C9 1.239 . S
O22 Tb0 2.399 . S
O22 C9 1.263 . S
C23 O12 1.261 . S
C23 O13 1.257 . S
C24 C27 1.358 . S
C24 C28 1.332 . S
C24 C30 1.504 . S
C25 C26 1.373 . S
C25 C29 1.308 . S
C26 C25 1.373 . S
C26 C27 1.429 . S
C26 H36 0.932 . S
C27 C24 1.358 . S
C27 C26 1.429 . S
C27 H37 0.930 . S
C28 C24 1.332 . S
C28 C29 1.394 . S
C28 H38 0.932 . S
C29 C25 1.308 . S
C29 C28 1.394 . S
C29 H39 0.929 . S
C30 Tb1 2.764 . S
C30 O14 1.239 . S
C30 O15 1.263 . S
C30 C24 1.504 . S
C31 O16 1.236 . S
C31 O17 1.257 . S
H32 C5 0.932 . S
H33 C6 0.930 . S
H34 C7 0.932 . S
H35 C8 0.929 . S
H36 C26 0.932 . S
H37 C27 0.930 . S
H38 C28 0.932 . S
H39 C29 0.929 . S
Tb40 C49 2.764 . S
Tb40 O50 2.325 . S
Tb40 O53 2.303 . S
Tb40 O57 2.322 . S
Tb40 O58 2.349 . S
Tb40 O61 2.415 . S
Tb40 O62 2.399 . S
Tb41 O51 2.322 . S
Tb41 O52 2.349 . S
Tb41 O54 2.415 . S
Tb41 O55 2.399 . S
Tb41 O56 2.325 . S
Tb41 O59 2.303 . S
Tb41 C70 2.764 . S
C42 O58 1.261 . S
C42 O59 1.257 . S
C43 C46 1.358 . S
C43 C47 1.332 . S
C43 C49 1.504 1_455 S
C44 C45 1.373 . S
C44 C48 1.308 . S
C45 C44 1.373 . S
C45 C46 1.429 . S
C45 H72 0.932 . S
C46 C43 1.358 . S
C46 C45 1.429 . S
C46 H73 0.930 . S
C47 C43 1.332 . S
C47 C48 1.394 . S
C47 H74 0.932 . S
C48 C44 1.308 . S
C48 C47 1.394 . S
C48 H75 0.929 . S
C49 Tb40 2.764 . S
C49 C43 1.504 1_655 S
C49 O61 1.239 . S
C49 O62 1.263 . S
O50 Tb40 2.325 . S
O50 C60 1.236 . S
O51 Tb41 2.322 . S
O51 C60 1.257 . S
O52 Tb41 2.349 . S
O52 C63 1.261 . S
O53 Tb40 2.303 . S
O53 C63 1.257 . S
O54 Tb41 2.415 . S
O54 C70 1.239 . S
O55 Tb41 2.399 . S
O55 C70 1.263 . S
O56 Tb41 2.325 . S
O56 C71 1.236 . S
O57 Tb40 2.322 . S
O57 C71 1.257 . S
O58 Tb40 2.349 . S
O58 C42 1.261 . S
O59 Tb41 2.303 . S
O59 C42 1.257 . S
C60 O50 1.236 . S
C60 O51 1.257 . S
O61 Tb40 2.415 . S
O61 C49 1.239 . S
O62 Tb40 2.399 . S
O62 C49 1.263 . S
C63 O52 1.261 . S
C63 O53 1.257 . S
C64 C67 1.358 . S
C64 C68 1.332 . S
C64 C70 1.504 . S
C65 C66 1.373 . S
C65 C69 1.308 . S
C66 C65 1.373 . S
C66 C67 1.429 . S
C66 H76 0.932 . S
C67 C64 1.358 . S
C67 C66 1.429 . S
C67 H77 0.930 . S
C68 C64 1.332 . S
C68 C69 1.394 . S
C68 H78 0.932 . S
C69 C65 1.308 . S
C69 C68 1.394 . S
C69 H79 0.929 . S
C70 Tb41 2.764 . S
C70 O54 1.239 . S
C70 O55 1.263 . S
C70 C64 1.504 . S
C71 O56 1.236 . S
C71 O57 1.257 . S
H72 C45 0.932 . S
H73 C46 0.930 . S
H74 C47 0.932 . S
H75 C48 0.929 . S
H76 C66 0.932 . S
H77 C67 0.930 . S
H78 C68 0.932 . S
H79 C69 0.929 . S
Tb80 C89 2.764 . S
Tb80 O90 2.325 . S
Tb80 O93 2.303 . S
Tb80 O97 2.322 . S
Tb80 O98 2.349 . S
Tb80 O101 2.415 . S
Tb80 O102 2.399 . S
Tb81 O91 2.322 . S
Tb81 O92 2.349 . S
Tb81 O94 2.415 . S
Tb81 O95 2.399 . S
Tb81 O96 2.325 . S
Tb81 O99 2.303 . S
Tb81 C110 2.764 . S
C82 O98 1.261 . S
C82 O99 1.257 . S
C83 C86 1.358 . S
C83 C87 1.332 . S
C83 C89 1.504 1_545 S
C84 C85 1.373 . S
C84 C88 1.308 . S
C85 C84 1.373 . S
C85 C86 1.429 . S
C85 H112 0.932 . S
C86 C83 1.358 . S
C86 C85 1.429 . S
C86 H113 0.930 . S
C87 C83 1.332 . S
C87 C88 1.394 . S
C87 H114 0.932 . S
C88 C84 1.308 . S
C88 C87 1.394 . S
C88 H115 0.929 . S
C89 Tb80 2.764 . S
C89 C83 1.504 1_565 S
C89 O101 1.239 . S
C89 O102 1.263 . S
O90 Tb80 2.325 . S
O90 C100 1.236 . S
O91 Tb81 2.322 . S
O91 C100 1.257 . S
O92 Tb81 2.349 . S
O92 C103 1.261 . S
O93 Tb80 2.303 . S
O93 C103 1.257 . S
O94 Tb81 2.415 . S
O94 C110 1.239 . S
O95 Tb81 2.399 . S
O95 C110 1.263 . S
O96 Tb81 2.325 . S
O96 C111 1.236 . S
O97 Tb80 2.322 . S
O97 C111 1.257 . S
O98 Tb80 2.349 . S
O98 C82 1.261 . S
O99 Tb81 2.303 . S
O99 C82 1.257 . S
C100 O90 1.236 . S
C100 O91 1.257 . S
O101 Tb80 2.415 . S
O101 C89 1.239 . S
O102 Tb80 2.399 . S
O102 C89 1.263 . S
C103 O92 1.261 . S
C103 O93 1.257 . S
C104 C107 1.358 . S
C104 C108 1.332 . S
C104 C110 1.504 . S
C105 C106 1.373 . S
C105 C109 1.308 . S
C106 C105 1.373 . S
C106 C107 1.429 . S
C106 H116 0.932 . S
C107 C104 1.358 . S
C107 C106 1.429 . S
C107 H117 0.930 . S
C108 C104 1.332 . S
C108 C109 1.394 . S
C108 H118 0.932 . S
C109 C105 1.308 . S
C109 C108 1.394 . S
C109 H119 0.929 . S
C110 Tb81 2.764 . S
C110 O94 1.239 . S
C110 O95 1.263 . S
C110 C104 1.504 . S
C111 O96 1.236 . S
C111 O97 1.257 . S
H112 C85 0.932 . S
H113 C86 0.930 . S
H114 C87 0.932 . S
H115 C88 0.929 . S
H116 C106 0.932 . S
H117 C107 0.930 . S
H118 C108 0.932 . S
H119 C109 0.929 . S
Tb120 C129 2.764 . S
Tb120 O130 2.325 . S
Tb120 O133 2.303 . S
Tb120 O137 2.322 . S
Tb120 O138 2.349 . S
Tb120 O141 2.415 . S
Tb120 O142 2.399 . S
Tb121 O131 2.322 . S
Tb121 O132 2.349 . S
Tb121 O134 2.415 . S
Tb121 O135 2.399 . S
Tb121 O136 2.325 . S
Tb121 O139 2.303 . S
Tb121 C150 2.764 . S
C122 O138 1.261 . S
C122 O139 1.257 . S
C123 C126 1.358 . S
C123 C127 1.332 . S
C123 C129 1.504 . S
C124 C125 1.373 . S
C124 C128 1.308 . S
C125 C124 1.373 . S
C125 C126 1.429 . S
C125 H152 0.932 . S
C126 C123 1.358 . S
C126 C125 1.429 . S
C126 H153 0.930 . S
C127 C123 1.332 . S
C127 C128 1.394 . S
C127 H154 0.932 . S
C128 C124 1.308 . S
C128 C127 1.394 . S
C128 H155 0.929 . S
C129 Tb120 2.764 . S
C129 C123 1.504 . S
C129 O141 1.239 . S
C129 O142 1.263 . S
O130 Tb120 2.325 . S
O130 C140 1.236 . S
O131 Tb121 2.322 . S
O131 C140 1.257 . S
O132 Tb121 2.349 . S
O132 C143 1.261 . S
O133 Tb120 2.303 . S
O133 C143 1.257 . S
O134 Tb121 2.415 . S
O134 C150 1.239 . S
O135 Tb121 2.399 . S
O135 C150 1.263 . S
O136 Tb121 2.325 . S
O136 C151 1.236 . S
O137 Tb120 2.322 . S
O137 C151 1.257 . S
O138 Tb120 2.349 . S
O138 C122 1.261 . S
O139 Tb121 2.303 . S
O139 C122 1.257 . S
C140 O130 1.236 . S
C140 O131 1.257 . S
O141 Tb120 2.415 . S
O141 C129 1.239 . S
O142 Tb120 2.399 . S
O142 C129 1.263 . S
C143 O132 1.261 . S
C143 O133 1.257 . S
C144 C147 1.358 . S
C144 C148 1.332 . S
C144 C150 1.504 . S
C145 C146 1.373 . S
C145 C149 1.308 . S
C146 C145 1.373 . S
C146 C147 1.429 . S
C146 H156 0.932 . S
C147 C144 1.358 . S
C147 C146 1.429 . S
C147 H157 0.930 . S
C148 C144 1.332 . S
C148 C149 1.394 . S
C148 H158 0.932 . S
C149 C145 1.308 . S
C149 C148 1.394 . S
C149 H159 0.929 . S
C150 Tb121 2.764 . S
C150 O134 1.239 . S
C150 O135 1.263 . S
C150 C144 1.504 . S
C151 O136 1.236 . S
C151 O137 1.257 . S
H152 C125 0.932 . S
H153 C126 0.930 . S
H154 C127 0.932 . S
H155 C128 0.929 . S
H156 C146 0.932 . S
H157 C147 0.930 . S
H158 C148 0.932 . S
H159 C149 0.929 . S
Tb160 C169 2.764 . S
Tb160 O170 2.325 . S
Tb160 O173 2.303 . S
Tb160 O177 2.322 . S
Tb160 O178 2.349 . S
Tb160 O181 2.415 . S
Tb160 O182 2.399 . S
Tb161 O171 2.322 . S
Tb161 O172 2.349 . S
Tb161 O174 2.415 . S
Tb161 O175 2.399 . S
Tb161 O176 2.325 . S
Tb161 O179 2.303 . S
Tb161 C190 2.764 . S
C162 O178 1.261 . S
C162 O179 1.257 . S
C163 C166 1.358 . S
C163 C167 1.332 . S
C163 C169 1.504 1_655 S
C164 C165 1.373 . S
C164 C168 1.308 . S
C165 C164 1.373 . S
C165 C166 1.429 . S
C165 H192 0.932 . S
C166 C163 1.358 . S
C166 C165 1.429 . S
C166 H193 0.930 . S
C167 C163 1.332 . S
C167 C168 1.394 . S
C167 H194 0.932 . S
C168 C164 1.308 . S
C168 C167 1.394 . S
C168 H195 0.929 . S
C169 Tb160 2.764 . S
C169 C163 1.504 1_455 S
C169 O181 1.239 . S
C169 O182 1.263 . S
O170 Tb160 2.325 . S
O170 C180 1.236 . S
O171 Tb161 2.322 . S
O171 C180 1.257 . S
O172 Tb161 2.349 . S
O172 C183 1.261 . S
O173 Tb160 2.303 . S
O173 C183 1.257 . S
O174 Tb161 2.415 . S
O174 C190 1.239 . S
O175 Tb161 2.399 . S
O175 C190 1.263 . S
O176 Tb161 2.325 . S
O176 C191 1.236 . S
O177 Tb160 2.322 . S
O177 C191 1.257 . S
O178 Tb160 2.349 . S
O178 C162 1.261 . S
O179 Tb161 2.303 . S
O179 C162 1.257 . S
C180 O170 1.236 . S
C180 O171 1.257 . S
O181 Tb160 2.415 . S
O181 C169 1.239 . S
O182 Tb160 2.399 . S
O182 C169 1.263 . S
C183 O172 1.261 . S
C183 O173 1.257 . S
C184 C187 1.358 . S
C184 C188 1.332 . S
C184 C190 1.504 . S
C185 C186 1.373 . S
C185 C189 1.308 . S
C186 C185 1.373 . S
C186 C187 1.429 . S
C186 H196 0.932 . S
C187 C184 1.358 . S
C187 C186 1.429 . S
C187 H197 0.930 . S
C188 C184 1.332 . S
C188 C189 1.394 . S
C188 H198 0.932 . S
C189 C185 1.308 . S
C189 C188 1.394 . S
C189 H199 0.929 . S
C190 Tb161 2.764 . S
C190 O174 1.239 . S
C190 O175 1.263 . S
C190 C184 1.504 . S
C191 O176 1.236 . S
C191 O177 1.257 . S
H192 C165 0.932 . S
H193 C166 0.930 . S
H194 C167 0.932 . S
H195 C168 0.929 . S
H196 C186 0.932 . S
H197 C187 0.930 . S
H198 C188 0.932 . S
H199 C189 0.929 . S
Tb200 C209 2.764 . S
Tb200 O210 2.325 . S
Tb200 O213 2.303 . S
Tb200 O217 2.322 . S
Tb200 O218 2.349 . S
Tb200 O221 2.415 . S
Tb200 O222 2.399 . S
Tb201 O211 2.322 . S
Tb201 O212 2.349 . S
Tb201 O214 2.415 . S
Tb201 O215 2.399 . S
Tb201 O216 2.325 . S
Tb201 O219 2.303 . S
Tb201 C230 2.764 . S
C202 O218 1.261 . S
C202 O219 1.257 . S
C203 C206 1.358 . S
C203 C207 1.332 . S
C203 C209 1.504 1_565 S
C204 C205 1.373 . S
C204 C208 1.308 . S
C205 C204 1.373 . S
C205 C206 1.429 . S
C205 H232 0.932 . S
C206 C203 1.358 . S
C206 C205 1.429 . S
C206 H233 0.930 . S
C207 C203 1.332 . S
C207 C208 1.394 . S
C207 H234 0.932 . S
C208 C204 1.308 . S
C208 C207 1.394 . S
C208 H235 0.929 . S
C209 Tb200 2.764 . S
C209 C203 1.504 1_545 S
C209 O221 1.239 . S
C209 O222 1.263 . S
O210 Tb200 2.325 . S
O210 C220 1.236 . S
O211 Tb201 2.322 . S
O211 C220 1.257 . S
O212 Tb201 2.349 . S
O212 C223 1.261 . S
O213 Tb200 2.303 . S
O213 C223 1.257 . S
O214 Tb201 2.415 . S
O214 C230 1.239 . S
O215 Tb201 2.399 . S
O215 C230 1.263 . S
O216 Tb201 2.325 . S
O216 C231 1.236 . S
O217 Tb200 2.322 . S
O217 C231 1.257 . S
O218 Tb200 2.349 . S
O218 C202 1.261 . S
O219 Tb201 2.303 . S
O219 C202 1.257 . S
C220 O210 1.236 . S
C220 O211 1.257 . S
O221 Tb200 2.415 . S
O221 C209 1.239 . S
O222 Tb200 2.399 . S
O222 C209 1.263 . S
C223 O212 1.261 . S
C223 O213 1.257 . S
C224 C227 1.358 . S
C224 C228 1.332 . S
C224 C230 1.504 . S
C225 C226 1.373 . S
C225 C229 1.308 . S
C226 C225 1.373 . S
C226 C227 1.429 . S
C226 H236 0.932 . S
C227 C224 1.358 . S
C227 C226 1.429 . S
C227 H237 0.930 . S
C228 C224 1.332 . S
C228 C229 1.394 . S
C228 H238 0.932 . S
C229 C225 1.308 . S
C229 C228 1.394 . S
C229 H239 0.929 . S
C230 Tb201 2.764 . S
C230 O214 1.239 . S
C230 O215 1.263 . S
C230 C224 1.504 . S
C231 O216 1.236 . S
C231 O217 1.257 . S
H232 C205 0.932 . S
H233 C206 0.930 . S
H234 C207 0.932 . S
H235 C208 0.929 . S
H236 C226 0.932 . S
H237 C227 0.930 . S
H238 C228 0.932 . S
H239 C229 0.929 . S
Tb240 C249 2.764 . S
Tb240 O250 2.325 . S
Tb240 O253 2.303 . S
Tb240 O257 2.322 . S
Tb240 O258 2.349 . S
Tb240 O261 2.415 . S
Tb240 O262 2.399 . S
Tb241 O251 2.322 . S
Tb241 O252 2.349 . S
Tb241 O254 2.415 . S
Tb241 O255 2.399 . S
Tb241 O256 2.325 . S
Tb241 O259 2.303 . S
Tb241 C270 2.764 . S
C242 O258 1.261 . S
C242 O259 1.257 . S
C243 C246 1.358 . S
C243 C247 1.332 . S
C243 C249 1.504 . S
C244 C245 1.373 . S
C244 C248 1.308 . S
C245 C244 1.373 . S
C245 C246 1.429 . S
C245 H272 0.932 . S
C246 C243 1.358 . S
C246 C245 1.429 . S
C246 H273 0.930 . S
C247 C243 1.332 . S
C247 C248 1.394 . S
C247 H274 0.932 . S
C248 C244 1.308 . S
C248 C247 1.394 . S
C248 H275 0.929 . S
C249 Tb240 2.764 . S
C249 C243 1.504 . S
C249 O261 1.239 . S
C249 O262 1.263 . S
O250 Tb240 2.325 . S
O250 C260 1.236 . S
O251 Tb241 2.322 . S
O251 C260 1.257 . S
O252 Tb241 2.349 . S
O252 C263 1.261 . S
O253 Tb240 2.303 . S
O253 C263 1.257 . S
O254 Tb241 2.415 . S
O254 C270 1.239 . S
O255 Tb241 2.399 . S
O255 C270 1.263 . S
O256 Tb241 2.325 . S
O256 C271 1.236 . S
O257 Tb240 2.322 . S
O257 C271 1.257 . S
O258 Tb240 2.349 . S
O258 C242 1.261 . S
O259 Tb241 2.303 . S
O259 C242 1.257 . S
C260 O250 1.236 . S
C260 O251 1.257 . S
O261 Tb240 2.415 . S
O261 C249 1.239 . S
O262 Tb240 2.399 . S
O262 C249 1.263 . S
C263 O252 1.261 . S
C263 O253 1.257 . S
C264 C267 1.358 . S
C264 C268 1.332 . S
C264 C270 1.504 . S
C265 C266 1.373 . S
C265 C269 1.308 . S
C266 C265 1.373 . S
C266 C267 1.429 . S
C266 H276 0.932 . S
C267 C264 1.358 . S
C267 C266 1.429 . S
C267 H277 0.930 . S
C268 C264 1.332 . S
C268 C269 1.394 . S
C268 H278 0.932 . S
C269 C265 1.308 . S
C269 C268 1.394 . S
C269 H279 0.929 . S
C270 Tb241 2.764 . S
C270 O254 1.239 . S
C270 O255 1.263 . S
C270 C264 1.504 . S
C271 O256 1.236 . S
C271 O257 1.257 . S
H272 C245 0.932 . S
H273 C246 0.930 . S
H274 C247 0.932 . S
H275 C248 0.929 . S
H276 C266 0.932 . S
H277 C267 0.930 . S
H278 C268 0.932 . S
H279 C269 0.929 . S
Tb280 C289 2.764 . S
Tb280 O290 2.325 . S
Tb280 O293 2.303 . S
Tb280 O297 2.322 . S
Tb280 O298 2.349 . S
Tb280 O301 2.415 . S
Tb280 O302 2.399 . S
Tb281 O291 2.322 . S
Tb281 O292 2.349 . S
Tb281 O294 2.415 . S
Tb281 O295 2.399 . S
Tb281 O296 2.325 . S
Tb281 O299 2.303 . S
Tb281 C310 2.764 . S
C282 O298 1.261 . S
C282 O299 1.257 . S
C283 C286 1.358 . S
C283 C287 1.332 . S
C283 C289 1.504 1_455 S
C284 C285 1.373 . S
C284 C288 1.308 . S
C285 C284 1.373 . S
C285 C286 1.429 . S
C285 H312 0.932 . S
C286 C283 1.358 . S
C286 C285 1.429 . S
C286 H313 0.930 . S
C287 C283 1.332 . S
C287 C288 1.394 . S
C287 H314 0.932 . S
C288 C284 1.308 . S
C288 C287 1.394 . S
C288 H315 0.929 . S
C289 Tb280 2.764 . S
C289 C283 1.504 1_655 S
C289 O301 1.239 . S
C289 O302 1.263 . S
O290 Tb280 2.325 . S
O290 C300 1.236 . S
O291 Tb281 2.322 . S
O291 C300 1.257 . S
O292 Tb281 2.349 . S
O292 C303 1.261 . S
O293 Tb280 2.303 . S
O293 C303 1.257 . S
O294 Tb281 2.415 . S
O294 C310 1.239 . S
O295 Tb281 2.399 . S
O295 C310 1.263 . S
O296 Tb281 2.325 . S
O296 C311 1.236 . S
O297 Tb280 2.322 . S
O297 C311 1.257 . S
O298 Tb280 2.349 . S
O298 C282 1.261 . S
O299 Tb281 2.303 . S
O299 C282 1.257 . S
C300 O290 1.236 . S
C300 O291 1.257 . S
O301 Tb280 2.415 . S
O301 C289 1.239 . S
O302 Tb280 2.399 . S
O302 C289 1.263 . S
C303 O292 1.261 . S
C303 O293 1.257 . S
C304 C307 1.358 . S
C304 C308 1.332 . S
C304 C310 1.504 . S
C305 C306 1.373 . S
C305 C309 1.308 . S
C306 C305 1.373 . S
C306 C307 1.429 . S
C306 H316 0.932 . S
C307 C304 1.358 . S
C307 C306 1.429 . S
C307 H317 0.930 . S
C308 C304 1.332 . S
C308 C309 1.394 . S
C308 H318 0.932 . S
C309 C305 1.308 . S
C309 C308 1.394 . S
C309 H319 0.929 . S
C310 Tb281 2.764 . S
C310 O294 1.239 . S
C310 O295 1.263 . S
C310 C304 1.504 . S
C311 O296 1.236 . S
C311 O297 1.257 . S
H312 C285 0.932 . S
H313 C286 0.930 . S
H314 C287 0.932 . S
H315 C288 0.929 . S
H316 C306 0.932 . S
H317 C307 0.930 . S
H318 C308 0.932 . S
H319 C309 0.929 . S
Tb320 C329 2.764 . S
Tb320 O330 2.325 . S
Tb320 O333 2.303 . S
Tb320 O337 2.322 . S
Tb320 O338 2.349 . S
Tb320 O341 2.415 . S
Tb320 O342 2.399 . S
Tb321 O331 2.322 . S
Tb321 O332 2.349 . S
Tb321 O334 2.415 . S
Tb321 O335 2.399 . S
Tb321 O336 2.325 . S
Tb321 O339 2.303 . S
Tb321 C350 2.764 . S
C322 O338 1.261 . S
C322 O339 1.257 . S
C323 C326 1.358 . S
C323 C327 1.332 . S
C323 C329 1.504 1_545 S
C324 C325 1.373 . S
C324 C328 1.308 . S
C325 C324 1.373 . S
C325 C326 1.429 . S
C325 H352 0.932 . S
C326 C323 1.358 . S
C326 C325 1.429 . S
C326 H353 0.930 . S
C327 C323 1.332 . S
C327 C328 1.394 . S
C327 H354 0.932 . S
C328 C324 1.308 . S
C328 C327 1.394 . S
C328 H355 0.929 . S
C329 Tb320 2.764 . S
C329 C323 1.504 1_565 S
C329 O341 1.239 . S
C329 O342 1.263 . S
O330 Tb320 2.325 . S
O330 C340 1.236 . S
O331 Tb321 2.322 . S
O331 C340 1.257 . S
O332 Tb321 2.349 . S
O332 C343 1.261 . S
O333 Tb320 2.303 . S
O333 C343 1.257 . S
O334 Tb321 2.415 . S
O334 C350 1.239 . S
O335 Tb321 2.399 . S
O335 C350 1.263 . S
O336 Tb321 2.325 . S
O336 C351 1.236 . S
O337 Tb320 2.322 . S
O337 C351 1.257 . S
O338 Tb320 2.349 . S
O338 C322 1.261 . S
O339 Tb321 2.303 . S
O339 C322 1.257 . S
C340 O330 1.236 . S
C340 O331 1.257 . S
O341 Tb320 2.415 . S
O341 C329 1.239 . S
O342 Tb320 2.399 . S
O342 C329 1.263 . S
C343 O332 1.261 . S
C343 O333 1.257 . S
C344 C347 1.358 . S
C344 C348 1.332 . S
C344 C350 1.504 . S
C345 C346 1.373 . S
C345 C349 1.308 . S
C346 C345 1.373 . S
C346 C347 1.429 . S
C346 H356 0.932 . S
C347 C344 1.358 . S
C347 C346 1.429 . S
C347 H357 0.930 . S
C348 C344 1.332 . S
C348 C349 1.394 . S
C348 H358 0.932 . S
C349 C345 1.308 . S
C349 C348 1.394 . S
C349 H359 0.929 . S
C350 Tb321 2.764 . S
C350 O334 1.239 . S
C350 O335 1.263 . S
C350 C344 1.504 . S
C351 O336 1.236 . S
C351 O337 1.257 . S
H352 C325 0.932 . S
H353 C326 0.930 . S
H354 C327 0.932 . S
H355 C328 0.929 . S
H356 C346 0.932 . S
H357 C347 0.930 . S
H358 C348 0.932 . S
H359 C349 0.929 . S
Tb360 C369 2.764 . S
Tb360 O370 2.325 . S
Tb360 O373 2.303 . S
Tb360 O377 2.322 . S
Tb360 O378 2.349 . S
Tb360 O381 2.415 . S
Tb360 O382 2.399 . S
Tb361 O371 2.322 . S
Tb361 O372 2.349 . S
Tb361 O374 2.415 . S
Tb361 O375 2.399 . S
Tb361 O376 2.325 . S
Tb361 O379 2.303 . S
Tb361 C390 2.764 . S
C362 O378 1.261 . S
C362 O379 1.257 . S
C363 C366 1.358 . S
C363 C367 1.332 . S
C363 C369 1.504 . S
C364 C365 1.373 . S
C364 C368 1.308 . S
C365 C364 1.373 . S
C365 C366 1.429 . S
C365 H392 0.932 . S
C366 C363 1.358 . S
C366 C365 1.429 . S
C366 H393 0.930 . S
C367 C363 1.332 . S
C367 C368 1.394 . S
C367 H394 0.932 . S
C368 C364 1.308 . S
C368 C367 1.394 . S
C368 H395 0.929 . S
C369 Tb360 2.764 . S
C369 C363 1.504 . S
C369 O381 1.239 . S
C369 O382 1.263 . S
O370 Tb360 2.325 . S
O370 C380 1.236 . S
O371 Tb361 2.322 . S
O371 C380 1.257 . S
O372 Tb361 2.349 . S
O372 C383 1.261 . S
O373 Tb360 2.303 . S
O373 C383 1.257 . S
O374 Tb361 2.415 . S
O374 C390 1.239 . S
O375 Tb361 2.399 . S
O375 C390 1.263 . S
O376 Tb361 2.325 . S
O376 C391 1.236 . S
O377 Tb360 2.322 . S
O377 C391 1.257 . S
O378 Tb360 2.349 . S
O378 C362 1.261 . S
O379 Tb361 2.303 . S
O379 C362 1.257 . S
C380 O370 1.236 . S
C380 O371 1.257 . S
O381 Tb360 2.415 . S
O381 C369 1.239 . S
O382 Tb360 2.399 . S
O382 C369 1.263 . S
C383 O372 1.261 . S
C383 O373 1.257 . S
C384 C387 1.358 . S
C384 C388 1.332 . S
C384 C390 1.504 . S
C385 C386 1.373 . S
C385 C389 1.308 . S
C386 C385 1.373 . S
C386 C387 1.429 . S
C386 H396 0.932 . S
C387 C384 1.358 . S
C387 C386 1.429 . S
C387 H397 0.930 . S
C388 C384 1.332 . S
C388 C389 1.394 . S
C388 H398 0.932 . S
C389 C385 1.308 . S
C389 C388 1.394 . S
C389 H399 0.929 . S
C390 Tb361 2.764 . S
C390 O374 1.239 . S
C390 O375 1.263 . S
C390 C384 1.504 . S
C391 O376 1.236 . S
C391 O377 1.257 . S
H392 C365 0.932 . S
H393 C366 0.930 . S
H394 C367 0.932 . S
H395 C368 0.929 . S
H396 C386 0.932 . S
H397 C387 0.930 . S
H398 C388 0.932 . S
H399 C389 0.929 . S
Tb400 C409 2.764 . S
Tb400 O410 2.325 . S
Tb400 O413 2.303 . S
Tb400 O417 2.322 . S
Tb400 O418 2.349 . S
Tb400 O421 2.415 . S
Tb400 O422 2.399 . S
Tb401 O411 2.322 . S
Tb401 O412 2.349 . S
Tb401 O414 2.415 . S
Tb401 O415 2.399 . S
Tb401 O416 2.325 . S
Tb401 O419 2.303 . S
Tb401 C430 2.764 . S
C402 O418 1.261 . S
C402 O419 1.257 . S
C403 C406 1.358 . S
C403 C407 1.332 . S
C403 C409 1.504 1_655 S
C404 C405 1.373 . S
C404 C408 1.308 . S
C405 C404 1.373 . S
C405 C406 1.429 . S
C405 H432 0.932 . S
C406 C403 1.358 . S
C406 C405 1.429 . S
C406 H433 0.930 . S
C407 C403 1.332 . S
C407 C408 1.394 . S
C407 H434 0.932 . S
C408 C404 1.308 . S
C408 C407 1.394 . S
C408 H435 0.929 . S
C409 Tb400 2.764 . S
C409 C403 1.504 1_455 S
C409 O421 1.239 . S
C409 O422 1.263 . S
O410 Tb400 2.325 . S
O410 C420 1.236 . S
O411 Tb401 2.322 . S
O411 C420 1.257 . S
O412 Tb401 2.349 . S
O412 C423 1.261 . S
O413 Tb400 2.303 . S
O413 C423 1.257 . S
O414 Tb401 2.415 . S
O414 C430 1.239 . S
O415 Tb401 2.399 . S
O415 C430 1.263 . S
O416 Tb401 2.325 . S
O416 C431 1.236 . S
O417 Tb400 2.322 . S
O417 C431 1.257 . S
O418 Tb400 2.349 . S
O418 C402 1.261 . S
O419 Tb401 2.303 . S
O419 C402 1.257 . S
C420 O410 1.236 . S
C420 O411 1.257 . S
O421 Tb400 2.415 . S
O421 C409 1.239 . S
O422 Tb400 2.399 . S
O422 C409 1.263 . S
C423 O412 1.261 . S
C423 O413 1.257 . S
C424 C427 1.358 . S
C424 C428 1.332 . S
C424 C430 1.504 . S
C425 C426 1.373 . S
C425 C429 1.308 . S
C426 C425 1.373 . S
C426 C427 1.429 . S
C426 H436 0.932 . S
C427 C424 1.358 . S
C427 C426 1.429 . S
C427 H437 0.930 . S
C428 C424 1.332 . S
C428 C429 1.394 . S
C428 H438 0.932 . S
C429 C425 1.308 . S
C429 C428 1.394 . S
C429 H439 0.929 . S
C430 Tb401 2.764 . S
C430 O414 1.239 . S
C430 O415 1.263 . S
C430 C424 1.504 . S
C431 O416 1.236 . S
C431 O417 1.257 . S
H432 C405 0.932 . S
H433 C406 0.930 . S
H434 C407 0.932 . S
H435 C408 0.929 . S
H436 C426 0.932 . S
H437 C427 0.930 . S
H438 C428 0.932 . S
H439 C429 0.929 . S
Tb440 C449 2.764 . S
Tb440 O450 2.325 . S
Tb440 O453 2.303 . S
Tb440 O457 2.322 . S
Tb440 O458 2.349 . S
Tb440 O461 2.415 . S
Tb440 O462 2.399 . S
Tb441 O451 2.322 . S
Tb441 O452 2.349 . S
Tb441 O454 2.415 . S
Tb441 O455 2.399 . S
Tb441 O456 2.325 . S
Tb441 O459 2.303 . S
Tb441 C470 2.764 . S
C442 O458 1.261 . S
C442 O459 1.257 . S
C443 C446 1.358 . S
C443 C447 1.332 . S
C443 C449 1.504 1_565 S
C444 C445 1.373 . S
C444 C448 1.308 . S
C445 C444 1.373 . S
C445 C446 1.429 . S
C445 H472 0.932 . S
C446 C443 1.358 . S
C446 C445 1.429 . S
C446 H473 0.930 . S
C447 C443 1.332 . S
C447 C448 1.394 . S
C447 H474 0.932 . S
C448 C444 1.308 . S
C448 C447 1.394 . S
C448 H475 0.929 . S
C449 Tb440 2.764 . S
C449 C443 1.504 1_545 S
C449 O461 1.239 . S
C449 O462 1.263 . S
O450 Tb440 2.325 . S
O450 C460 1.236 . S
O451 Tb441 2.322 . S
O451 C460 1.257 . S
O452 Tb441 2.349 . S
O452 C463 1.261 . S
O453 Tb440 2.303 . S
O453 C463 1.257 . S
O454 Tb441 2.415 . S
O454 C470 1.239 . S
O455 Tb441 2.399 . S
O455 C470 1.263 . S
O456 Tb441 2.325 . S
O456 C471 1.236 . S
O457 Tb440 2.322 . S
O457 C471 1.257 . S
O458 Tb440 2.349 . S
O458 C442 1.261 . S
O459 Tb441 2.303 . S
O459 C442 1.257 . S
C460 O450 1.236 . S
C460 O451 1.257 . S
O461 Tb440 2.415 . S
O461 C449 1.239 . S
O462 Tb440 2.399 . S
O462 C449 1.263 . S
C463 O452 1.261 . S
C463 O453 1.257 . S
C464 C467 1.358 . S
C464 C468 1.332 . S
C464 C470 1.504 . S
C465 C466 1.373 . S
C465 C469 1.308 . S
C466 C465 1.373 . S
C466 C467 1.429 . S
C466 H476 0.932 . S
C467 C464 1.358 . S
C467 C466 1.429 . S
C467 H477 0.930 . S
C468 C464 1.332 . S
C468 C469 1.394 . S
C468 H478 0.932 . S
C469 C465 1.308 . S
C469 C468 1.394 . S
C469 H479 0.929 . S
C470 Tb441 2.764 . S
C470 O454 1.239 . S
C470 O455 1.263 . S
C470 C464 1.504 . S
C471 O456 1.236 . S
C471 O457 1.257 . S
H472 C445 0.932 . S
H473 C446 0.930 . S
H474 C447 0.932 . S
H475 C448 0.929 . S
H476 C466 0.932 . S
H477 C467 0.930 . S
H478 C468 0.932 . S
H479 C469 0.929 . S
C480 C481 1.387 . S
C480 H484 0.950 . S
C480 C489 1.390 1_565 S
C481 C480 1.387 . S
C481 C483 1.387 . S
H482 C489 0.950 . S
C483 C481 1.387 . S
C483 C485 1.390 . S
C483 H487 0.950 . S
H484 C480 0.950 . S
C485 C483 1.390 . S
C485 C486 1.387 1_565 S
C485 H488 0.950 . S
C486 C485 1.387 1_545 S
C486 C489 1.387 . S
H487 C483 0.950 . S
H488 C485 0.950 . S
C489 C480 1.390 1_545 S
C489 H482 0.950 . S
C489 C486 1.387 . S
C490 C491 1.387 . S
C490 H494 0.950 . S
C490 C499 1.390 . S
C491 C490 1.387 . S
C491 C493 1.387 . S
H492 C499 0.950 . S
C493 C491 1.387 . S
C493 C495 1.390 . S
C493 H497 0.950 . S
H494 C490 0.950 . S
C495 C493 1.390 . S
C495 C496 1.387 . S
C495 H498 0.950 . S
C496 C495 1.387 . S
C496 C499 1.387 . S
H497 C493 0.950 . S
H498 C495 0.950 . S
C499 C490 1.390 . S
C499 H492 0.950 . S
C499 C496 1.387 . S
C500 C501 1.387 . S
C500 H504 0.950 . S
C500 C509 1.390 1_655 S
C501 C500 1.387 . S
C501 C503 1.387 1_655 S
H502 C509 0.950 . S
C503 C501 1.387 1_455 S
C503 C505 1.409 . S
C503 H507 0.932 1_455 S
H504 C500 0.950 . S
C505 C503 1.409 . S
C505 C506 1.387 . S
C505 H508 0.950 . S
C506 C505 1.387 . S
C506 C509 1.387 . S
H507 C503 0.932 1_655 S
H508 C505 0.950 . S
C509 C500 1.390 1_455 S
C509 H502 0.950 . S
C509 C506 1.387 . S
C510 C511 1.387 . S
C510 H514 0.950 . S
C510 C519 1.390 1_565 S
C511 C510 1.387 . S
C511 C513 1.387 1_565 S
H512 C519 0.950 . S
C513 C511 1.387 1_545 S
C513 C515 1.390 . S
C513 H517 0.950 . S
H514 C510 0.950 . S
C515 C513 1.390 . S
C515 C516 1.387 . S
C515 H518 0.950 . S
C516 C515 1.387 . S
C516 C519 1.387 . S
H517 C513 0.950 . S
H518 C515 0.950 . S
C519 C510 1.390 1_545 S
C519 H512 0.950 . S
C519 C516 1.387 . S
C520 C521 1.387 . S
C520 H524 0.950 . S
C520 C529 1.390 . S
C521 C520 1.387 . S
C521 C523 1.387 . S
H522 C529 0.950 . S
C523 C521 1.387 . S
C523 C525 1.390 . S
C523 H527 0.950 . S
H524 C520 0.950 . S
C525 C523 1.390 . S
C525 C526 1.387 . S
C525 H528 0.950 . S
C526 C525 1.387 . S
C526 C529 1.387 . S
H527 C523 0.950 . S
H528 C525 0.950 . S
C529 C520 1.390 . S
C529 H522 0.950 . S
C529 C526 1.387 . S
C530 C531 1.387 . S
C530 H534 0.950 . S
C530 C539 1.390 1_655 S
C531 C530 1.387 . S
C531 C533 1.387 . S
H532 C539 0.950 . S
C533 C531 1.387 . S
C533 C535 1.390 . S
C533 H537 0.950 . S
H534 C530 0.950 . S
C535 C533 1.390 . S
C535 C536 1.387 1_655 S
C535 H538 0.950 . S
C536 C535 1.387 1_455 S
C536 C539 1.387 . S
H537 C533 0.950 . S
H538 C535 0.950 . S
C539 C530 1.390 1_455 S
C539 H532 0.950 . S
C539 C536 1.387 . S
C540 C541 1.387 . S
C540 H544 0.950 . S
C540 C549 1.390 . S
C541 C540 1.387 . S
C541 C543 1.387 . S
H542 C549 0.950 . S
C543 C541 1.387 . S
C543 C545 1.390 1_455 S
C543 H547 0.950 . S
H544 C540 0.950 . S
C545 C543 1.390 1_655 S
C545 C546 1.387 . S
C545 H548 0.950 . S
C546 C545 1.387 . S
C546 C549 1.387 1_655 S
H547 C543 0.950 . S
H548 C545 0.950 . S
C549 C540 1.390 . S
C549 H542 0.950 . S
C549 C546 1.387 1_455 S
C550 C551 1.387 1_545 S
C550 H554 0.950 1_545 S
C550 C559 1.390 . S
C551 C550 1.387 1_565 S
C551 C553 1.387 . S
H552 C559 0.950 . S
C553 C551 1.387 . S
C553 C555 1.390 1_565 S
C553 H557 0.950 . S
H554 C550 0.950 1_565 S
C555 C553 1.390 1_545 S
C555 C556 1.387 . S
C555 H558 0.950 . S
C556 C555 1.387 . S
C556 C559 1.387 . S
H557 C553 0.950 . S
H558 C555 0.950 . S
C559 C550 1.390 . S
C559 H552 0.950 . S
C559 C556 1.387 . S
C560 C561 1.387 . S
C560 H564 0.950 . S
C560 C569 1.390 . S
C561 C560 1.387 . S
C561 C563 1.387 . S
H562 C569 0.950 . S
C563 C561 1.387 . S
C563 C565 1.390 . S
C563 H567 0.950 . S
H564 C560 0.950 . S
C565 C563 1.390 . S
C565 C566 1.387 . S
C565 H568 0.950 . S
C566 C565 1.387 . S
C566 C569 1.387 . S
H567 C563 0.950 . S
H568 C565 0.950 . S
C569 C560 1.390 . S
C569 H562 0.950 . S
C569 C566 1.387 . S
C570 C571 1.387 1_655 S
C570 H574 0.943 1_655 S
C570 C579 1.390 . S
C571 C570 1.387 1_455 S
C571 C573 1.387 . S
H572 C579 0.950 . S
C573 C571 1.387 . S
C573 C575 1.390 1_455 S
C573 H577 0.950 . S
H574 C570 0.943 1_455 S
C575 C573 1.390 1_655 S
C575 C576 1.387 . S
C575 H578 0.950 . S
C576 C575 1.387 . S
C576 C579 1.387 . S
H577 C573 0.950 . S
H578 C575 0.950 . S
C579 C570 1.390 . S
C579 H572 0.950 . S
C579 C576 1.387 . S
C580 C581 1.387 . S
C580 H584 0.950 . S
C580 C589 1.390 1_545 S
C581 C580 1.387 . S
C581 C583 1.387 1_545 S
H582 C589 0.950 . S
C583 C581 1.387 1_565 S
C583 C585 1.390 . S
C583 H587 0.950 . S
H584 C580 0.950 . S
C585 C583 1.390 . S
C585 C586 1.387 . S
C585 H588 0.950 . S
C586 C585 1.387 . S
C586 C589 1.387 . S
H587 C583 0.950 . S
H588 C585 0.950 . S
C589 C580 1.390 1_565 S
C589 H582 0.950 . S
C589 C586 1.387 . S
C590 C591 1.387 . S
C590 H594 0.950 . S
C590 C599 1.390 . S
C591 C590 1.387 . S
C591 C593 1.387 . S
H592 C599 0.950 . S
C593 C591 1.387 . S
C593 C595 1.390 . S
C593 H597 0.950 . S
H594 C590 0.950 . S
C595 C593 1.390 . S
C595 C596 1.387 . S
C595 H598 0.950 . S
C596 C595 1.387 . S
C596 C599 1.387 . S
H597 C593 0.950 . S
H598 C595 0.950 . S
C599 C590 1.390 . S
C599 H592 0.950 . S
C599 C596 1.387 . S
C600 C601 1.387 . S
C600 H604 0.950 . S
C600 C609 1.390 . S
C601 C600 1.387 . S
C601 C603 1.387 . S
H602 C609 0.950 . S
C603 C601 1.387 . S
C603 C605 1.390 . S
C603 H607 0.950 . S
H604 C600 0.950 . S
C605 C603 1.390 . S
C605 C606 1.387 . S
C605 H608 0.950 . S
C606 C605 1.387 . S
C606 C609 1.387 . S
H607 C603 0.950 . S
H608 C605 0.950 . S
C609 C600 1.390 . S
C609 H602 0.950 . S
C609 C606 1.387 . S
C610 C611 1.387 . S
C610 H614 0.950 . S
C610 C619 1.390 . S
C611 C610 1.387 . S
C611 C613 1.387 . S
H612 C619 0.950 . S
C613 C611 1.387 . S
C613 C615 1.390 . S
C613 H617 0.950 . S
H614 C610 0.950 . S
C615 C613 1.390 . S
C615 C616 1.387 . S
C615 H618 0.950 . S
C616 C615 1.387 . S
C616 C619 1.387 . S
H617 C613 0.950 . S
H618 C615 0.950 . S
C619 C610 1.390 . S
C619 H612 0.950 . S
C619 C616 1.387 . S
C620 C621 1.387 . S
C620 H624 0.950 . S
C620 C629 1.390 . S
C621 C620 1.387 . S
C621 C623 1.387 . S
H622 C629 0.950 . S
C623 C621 1.387 . S
C623 C625 1.390 . S
C623 H627 0.950 . S
H624 C620 0.950 . S
C625 C623 1.390 . S
C625 C626 1.387 . S
C625 H628 0.950 . S
C626 C625 1.387 . S
C626 C629 1.387 . S
H627 C623 0.950 . S
H628 C625 0.950 . S
C629 C620 1.390 . S
C629 H622 0.950 . S
C629 C626 1.387 . S
C630 C631 1.387 . S
C630 H634 0.950 . S
C630 C639 1.390 . S
C631 C630 1.387 . S
C631 C633 1.387 . S
H632 C639 0.950 . S
C633 C631 1.387 . S
C633 C635 1.390 . S
C633 H637 0.950 . S
H634 C630 0.950 . S
C635 C633 1.390 . S
C635 C636 1.387 . S
C635 H638 0.950 . S
C636 C635 1.387 . S
C636 C639 1.387 . S
H637 C633 0.950 . S
H638 C635 0.950 . S
C639 C630 1.390 . S
C639 H632 0.950 . S
C639 C636 1.387 . S
C640 C641 1.387 . S
C640 H644 0.950 . S
C640 C649 1.390 . S
C641 C640 1.387 . S
C641 C643 1.387 . S
H642 C649 0.950 . S
C643 C641 1.387 . S
C643 C645 1.390 . S
C643 H647 0.950 . S
H644 C640 0.950 . S
C645 C643 1.390 . S
C645 C646 1.387 . S
C645 H648 0.950 . S
C646 C645 1.387 . S
C646 C649 1.387 . S
H647 C643 0.950 . S
H648 C645 0.950 . S
C649 C640 1.390 . S
C649 H642 0.950 . S
C649 C646 1.387 . S
C650 C651 1.387 . S
C650 H654 0.950 . S
C650 C659 1.390 . S
C651 C650 1.387 . S
C651 C653 1.387 . S
H652 C659 0.950 . S
C653 C651 1.387 . S
C653 C655 1.390 . S
C653 H657 0.950 . S
H654 C650 0.950 . S
C655 C653 1.390 . S
C655 C656 1.387 . S
C655 H658 0.950 . S
C656 C655 1.387 . S
C656 C659 1.387 . S
H657 C653 0.950 . S
H658 C655 0.950 . S
C659 C650 1.390 . S
C659 H652 0.950 . S
C659 C656 1.387 . S
C660 C661 1.387 . S
C660 H664 0.950 . S
C660 C669 1.390 . S
C661 C660 1.387 . S
C661 C663 1.387 . S
H662 C669 0.950 . S
C663 C661 1.387 . S
C663 C665 1.390 . S
C663 H667 0.950 . S
H664 C660 0.950 . S
C665 C663 1.390 . S
C665 C666 1.387 . S
C665 H668 0.950 . S
C666 C665 1.387 . S
C666 C669 1.387 . S
H667 C663 0.950 . S
H668 C665 0.950 . S
C669 C660 1.390 . S
C669 H662 0.950 . S
C669 C666 1.387 . S
C670 C671 1.387 . S
C670 H674 0.950 . S
C670 C679 1.390 . S
C671 C670 1.387 . S
C671 C673 1.387 . S
H672 C679 0.950 . S
C673 C671 1.387 . S
C673 C675 1.390 . S
C673 H677 0.950 . S
H674 C670 0.950 . S
C675 C673 1.390 . S
C675 C676 1.387 . S
C675 H678 0.950 . S
C676 C675 1.387 . S
C676 C679 1.387 . S
H677 C673 0.950 . S
H678 C675 0.950 . S
C679 C670 1.390 . S
C679 H672 0.950 . S
C679 C676 1.387 . S
C680 C681 1.387 . S
C680 H684 0.950 . S
C680 C689 1.390 . S
C681 C680 1.387 . S
C681 C683 1.387 . S
H682 C689 0.950 . S
C683 C681 1.387 . S
C683 C685 1.390 . S
C683 H687 0.950 . S
H684 C680 0.950 . S
C685 C683 1.390 . S
C685 C686 1.387 . S
C685 H688 0.950 . S
C686 C685 1.387 . S
C686 C689 1.387 . S
H687 C683 0.950 . S
H688 C685 0.950 . S
C689 C680 1.390 . S
C689 H682 0.950 . S
C689 C686 1.387 . S
C690 C691 1.387 . S
C690 H694 0.950 . S
C690 C699 1.390 . S
C691 C690 1.387 . S
C691 C693 1.387 . S
H692 C699 0.950 . S
C693 C691 1.387 . S
C693 C695 1.390 . S
C693 H697 0.950 . S
H694 C690 0.950 . S
C695 C693 1.390 . S
C695 C696 1.387 . S
C695 H698 0.950 . S
C696 C695 1.387 . S
C696 C699 1.387 . S
H697 C693 0.950 . S
H698 C695 0.950 . S
C699 C690 1.390 . S
C699 H692 0.950 . S
C699 C696 1.387 . S
C700 C701 1.387 . S
C700 H704 0.950 . S
C700 C709 1.390 . S
C701 C700 1.387 . S
C701 C703 1.387 . S
H702 C709 0.950 . S
C703 C701 1.387 . S
C703 C705 1.390 . S
C703 H707 0.950 . S
H704 C700 0.950 . S
C705 C703 1.390 . S
C705 C706 1.387 . S
C705 H708 0.950 . S
C706 C705 1.387 . S
C706 C709 1.387 . S
H707 C703 0.950 . S
H708 C705 0.950 . S
C709 C700 1.390 . S
C709 H702 0.950 . S
C709 C706 1.387 . S
C710 C711 1.387 . S
C710 H714 0.950 . S
C710 C719 1.390 . S
C711 C710 1.387 . S
C711 C713 1.387 . S
H712 C719 0.950 . S
C713 C711 1.387 . S
C713 C715 1.390 . S
C713 H717 0.950 . S
H714 C710 0.950 . S
C715 C713 1.390 . S
C715 C716 1.387 . S
C715 H718 0.950 . S
C716 C715 1.387 . S
C716 C719 1.387 . S
H717 C713 0.950 . S
H718 C715 0.950 . S
C719 C710 1.390 . S
C719 H712 0.950 . S
C719 C716 1.387 . S
C720 C721 1.387 . S
C720 H724 0.950 . S
C720 C729 1.390 . S
C721 C720 1.387 . S
C721 C723 1.387 . S
H722 C729 0.950 . S
C723 C721 1.387 . S
C723 C725 1.390 . S
C723 H727 0.950 . S
H724 C720 0.950 . S
C725 C723 1.390 . S
C725 C726 1.387 . S
C725 H728 0.950 . S
C726 C725 1.387 . S
C726 C729 1.387 . S
H727 C723 0.950 . S
H728 C725 0.950 . S
C729 C720 1.390 . S
C729 H722 0.950 . S
C729 C726 1.387 . S
C730 C731 1.387 . S
C730 H734 0.950 . S
C730 C739 1.390 . S
C731 C730 1.387 . S
C731 C733 1.387 . S
H732 C739 0.950 . S
C733 C731 1.387 . S
C733 C735 1.390 . S
C733 H737 0.950 . S
H734 C730 0.950 . S
C735 C733 1.390 . S
C735 C736 1.387 . S
C735 H738 0.950 . S
C736 C735 1.387 . S
C736 C739 1.387 . S
H737 C733 0.950 . S
H738 C735 0.950 . S
C739 C730 1.390 . S
C739 H732 0.950 . S
C739 C736 1.387 . S
C740 C741 1.387 . S
C740 H744 0.950 . S
C740 C749 1.390 . S
C741 C740 1.387 . S
C741 C743 1.387 . S
H742 C749 0.950 . S
C743 C741 1.387 . S
C743 C745 1.390 . S
C743 H747 0.950 . S
H744 C740 0.950 . S
C745 C743 1.390 . S
C745 C746 1.387 . S
C745 H748 0.950 . S
C746 C745 1.387 . S
C746 C749 1.387 . S
H747 C743 0.950 . S
H748 C745 0.950 . S
C749 C740 1.390 . S
C749 H742 0.950 . S
C749 C746 1.387 . S
C750 C751 1.387 . S
C750 H754 0.950 . S
C750 C759 1.390 . S
C751 C750 1.387 . S
C751 C753 1.387 . S
H752 C759 0.950 . S
C753 C751 1.387 . S
C753 C755 1.390 . S
C753 H757 0.950 . S
H754 C750 0.950 . S
C755 C753 1.390 . S
C755 C756 1.387 . S
C755 H758 0.950 . S
C756 C755 1.387 . S
C756 C759 1.387 . S
H757 C753 0.950 . S
H758 C755 0.950 . S
C759 C750 1.390 . S
C759 H752 0.950 . S
C759 C756 1.387 . S
C760 C761 1.387 . S
C760 H764 0.950 . S
C760 C769 1.390 . S
C761 C760 1.387 . S
C761 C763 1.387 . S
H762 C769 0.950 . S
C763 C761 1.387 . S
C763 C765 1.390 . S
C763 H767 0.950 . S
H764 C760 0.950 . S
C765 C763 1.390 . S
C765 C766 1.387 . S
C765 H768 0.950 . S
C766 C765 1.387 . S
C766 C769 1.387 . S
H767 C763 0.950 . S
H768 C765 0.950 . S
C769 C760 1.390 . S
C769 H762 0.950 . S
C769 C766 1.387 . S
C770 C771 1.387 . S
C770 H774 0.950 . S
C770 C779 1.390 . S
C771 C770 1.387 . S
C771 C773 1.387 . S
H772 C779 0.950 . S
C773 C771 1.387 . S
C773 C775 1.390 . S
C773 H777 0.950 . S
H774 C770 0.950 . S
C775 C773 1.390 . S
C775 C776 1.387 . S
C775 H778 0.950 . S
C776 C775 1.387 . S
C776 C779 1.387 . S
H777 C773 0.950 . S
H778 C775 0.950 . S
C779 C770 1.390 . S
C779 H772 0.950 . S
C779 C776 1.387 . S
C780 C781 1.387 . S
C780 H784 0.950 . S
C780 C789 1.390 . S
C781 C780 1.387 . S
C781 C783 1.387 1_556 S
H782 C789 0.950 . S
C783 C781 1.387 1_554 S
C783 C785 1.390 . S
C783 H787 0.950 . S
H784 C780 0.950 . S
C785 C783 1.390 . S
C785 C786 1.387 . S
C785 H788 0.950 . S
C786 C785 1.387 . S
C786 C789 1.387 1_554 S
H787 C783 0.950 . S
H788 C785 0.950 . S
C789 C780 1.390 . S
C789 H782 0.950 . S
C789 C786 1.387 1_556 S
C790 C791 1.387 . S
C790 H794 0.950 . S
C790 C799 1.390 1_455 S
C791 C790 1.387 . S
C791 C793 1.387 . S
H792 C799 0.950 . S
C793 C791 1.387 . S
C793 C795 1.390 1_455 S
C793 H797 0.950 . S
H794 C790 0.950 . S
C795 C793 1.390 1_655 S
C795 C796 1.387 . S
C795 H798 0.950 . S
C796 C795 1.387 . S
C796 C799 1.387 . S
H797 C793 0.950 . S
H798 C795 0.950 . S
C799 C790 1.390 1_655 S
C799 H792 0.950 . S
C799 C796 1.387 . S
C800 C801 1.387 . S
C800 H804 0.950 . S
C800 C809 1.390 1_564 S
C801 C800 1.387 . S
C801 C803 1.387 . S
H802 C809 0.950 . S
C803 C801 1.387 . S
C803 C805 1.390 1_564 S
C803 H807 0.950 . S
H804 C800 0.950 . S
C805 C803 1.390 1_546 S
C805 C806 1.387 . S
C805 H808 0.950 . S
C806 C805 1.387 . S
C806 C809 1.387 . S
H807 C803 0.950 . S
H808 C805 0.950 . S
C809 C800 1.390 1_546 S
C809 H802 0.950 . S
C809 C806 1.387 . S
C810 C811 1.387 . S
C810 H814 0.950 . S
C810 C819 1.390 . S
C811 C810 1.387 . S
C811 C813 1.387 . S
H812 C819 0.950 . S
C813 C811 1.387 . S
C813 C815 1.390 . S
C813 H817 0.950 . S
H814 C810 0.950 . S
C815 C813 1.390 . S
C815 C816 1.387 . S
C815 H818 0.950 . S
C816 C815 1.387 . S
C816 C819 1.387 . S
H817 C813 0.950 . S
H818 C815 0.950 . S
C819 C810 1.390 . S
C819 H812 0.950 . S
C819 C816 1.387 . S
C820 C821 1.387 1_554 S
C820 H824 0.950 . S
C820 C829 1.390 1_655 S
C821 C820 1.387 1_556 S
C821 C823 1.387 . S
H822 C829 0.950 . S
C823 C821 1.387 . S
C823 C825 1.390 1_655 S
C823 H827 0.950 . S
H824 C820 0.950 . S
C825 C823 1.390 1_455 S
C825 C826 1.387 1_556 S
C825 H828 0.950 . S
C826 C825 1.387 1_554 S
C826 C829 1.387 . S
H827 C823 0.950 . S
H828 C825 0.950 . S
C829 C820 1.390 1_455 S
C829 H822 0.950 . S
C829 C826 1.387 . S
C830 C831 1.387 . S
C830 H834 0.950 . S
C830 C839 1.390 1_565 S
C831 C830 1.387 . S
C831 C833 1.387 . S
H832 C839 0.950 . S
C833 C831 1.387 . S
C833 C835 1.390 1_565 S
C833 H837 0.950 . S
H834 C830 0.950 . S
C835 C833 1.390 1_545 S
C835 C836 1.387 . S
C835 H838 0.950 . S
C836 C835 1.387 . S
C836 C839 1.387 . S
H837 C833 0.950 . S
H838 C835 0.950 . S
C839 C830 1.390 1_545 S
C839 H832 0.950 . S
C839 C836 1.387 . S
C481 C180 1.380 . S
C486 C4 1.395 . S
C491 C220 1.384 . S
C496 C44 1.399 . S
C501 C84 1.398 . S
C506 C20 1.382 . S
C511 C124 1.395 . S
C516 C60 1.379 . S
C521 C164 1.399 . S
C526 C100 1.384 . S
C531 C140 1.380 . S
C536 C204 1.396 . S
C541 C340 1.384 . S
C546 C244 1.399 . S
C551 C284 1.397 . S
C556 C380 1.381 . S
C561 C420 1.384 . S
C566 C324 1.399 . S
C571 C364 1.399 . S
C576 C460 1.384 . S
C581 C404 1.396 . S
C586 C260 1.380 . S
C591 C300 1.382 . S
C596 C444 1.398 . S
C601 C191 1.662 . S
C606 C25 1.668 . S
C611 C65 1.666 . S
C616 C231 1.660 . S
C621 C105 1.666 . S
C626 C31 1.660 . S
C631 C145 1.668 . S
C636 C71 1.662 . S
C641 C111 1.663 . S
C646 C185 1.669 . S
C651 C151 1.663 . S
C656 C225 1.669 . S
C661 C351 1.663 . S
C666 C265 1.669 . S
C671 C305 1.667 . S
C676 C391 1.661 . S
C681 C345 1.668 . S
C686 C431 1.662 . S
C691 C471 1.660 . S
C696 C385 1.666 . S
C701 C425 1.669 . S
C706 C271 1.663 . S
C711 C311 1.660 . S
C716 C465 1.667 . S
C721 C402 1.643 . S
C726 C2 1.643 . S
C731 C42 1.642 . S
C736 C442 1.640 . S
C741 C82 1.640 . S
C746 C242 1.642 . S
C751 C122 1.643 . S
C756 C282 1.643 . S
C761 C162 1.641 . S
C766 C322 1.643 . S
C771 C362 1.641 . S
C776 C202 1.640 . S
C781 C383 2.414 . S
C786 C23 2.415 . S
C791 C423 2.414 . S
C796 C63 2.415 . S
C801 C103 2.416 . S
C806 C463 2.416 . S
C811 C143 2.415 . S
C816 C263 2.415 . S
C821 C303 2.415 . S
C826 C183 2.415 . S
C831 C343 2.416 . S
C836 C223 2.416 . S
