# Generated by pormake.
# Topology ecf, (8)-cn, num edge types: 1
# Building blocks:
#     Node 0, Type 0, BuildingBlock: LIZSOE_clean_sbu_0, # of connection points: 8
#     Node 1, Type 0, BuildingBlock: LIZSOE_clean_sbu_0, # of connection points: 8
#     Node 2, Type 0, BuildingBlock: LIZSOE_clean_sbu_0, # of connection points: 8
#     Node 3, Type 0, BuildingBlock: LIZSOE_clean_sbu_0, # of connection points: 8
#     Node 4, Type 0, BuildingBlock: LIZSOE_clean_sbu_0, # of connection points: 8
#     Node 5, Type 0, BuildingBlock: LIZSOE_clean_sbu_0, # of connection points: 8
#     Edge 6, Type (0, 0), BuildingBlock: XIVTED_clean_linker_0, # of connection points: 2
#     Edge 7, Type (0, 0), BuildingBlock: XIVTED_clean_linker_0, # of connection points: 2
#     Edge 8, Type (0, 0), BuildingBlock: XIVTED_clean_linker_0, # of connection points: 2
#     Edge 9, Type (0, 0), BuildingBlock: XIVTED_clean_linker_0, # of connection points: 2
#     Edge 10, Type (0, 0), BuildingBlock: XIVTED_clean_linker_0, # of connection points: 2
#     Edge 11, Type (0, 0), BuildingBlock: XIVTED_clean_linker_0, # of connection points: 2
#     Edge 12, Type (0, 0), BuildingBlock: XIVTED_clean_linker_0, # of connection points: 2
#     Edge 13, Type (0, 0), BuildingBlock: XIVTED_clean_linker_0, # of connection points: 2
#     Edge 14, Type (0, 0), BuildingBlock: XIVTED_clean_linker_0, # of connection points: 2
#     Edge 15, Type (0, 0), BuildingBlock: XIVTED_clean_linker_0, # of connection points: 2
#     Edge 16, Type (0, 0), BuildingBlock: XIVTED_clean_linker_0, # of connection points: 2
#     Edge 17, Type (0, 0), BuildingBlock: XIVTED_clean_linker_0, # of connection points: 2
#     Edge 18, Type (0, 0), BuildingBlock: XIVTED_clean_linker_0, # of connection points: 2
#     Edge 19, Type (0, 0), BuildingBlock: XIVTED_clean_linker_0, # of connection points: 2
#     Edge 20, Type (0, 0), BuildingBlock: XIVTED_clean_linker_0, # of connection points: 2
#     Edge 21, Type (0, 0), BuildingBlock: XIVTED_clean_linker_0, # of connection points: 2
#     Edge 22, Type (0, 0), BuildingBlock: XIVTED_clean_linker_0, # of connection points: 2
#     Edge 23, Type (0, 0), BuildingBlock: XIVTED_clean_linker_0, # of connection points: 2
#     Edge 24, Type (0, 0), BuildingBlock: XIVTED_clean_linker_0, # of connection points: 2
#     Edge 25, Type (0, 0), BuildingBlock: XIVTED_clean_linker_0, # of connection points: 2
#     Edge 26, Type (0, 0), BuildingBlock: XIVTED_clean_linker_0, # of connection points: 2
#     Edge 27, Type (0, 0), BuildingBlock: XIVTED_clean_linker_0, # of connection points: 2
#     Edge 28, Type (0, 0), BuildingBlock: XIVTED_clean_linker_0, # of connection points: 2
#     Edge 29, Type (0, 0), BuildingBlock: XIVTED_clean_linker_0, # of connection points: 2
# Relax obj value: 0.280
# Max RMSD: 0.203
# Mean RMSD: 0.200
data_MOF--net-ecf--node1-LIZSOE_clean_sbu_0--edge1-XIVTED_clean_linker_0
_symmetry_space_group_name_H-M    P1
_symmetry_Int_Tables_number       1
_symmetry_cell_setting            triclinic
loop_
_symmetry_equiv_pos_as_xyz
'x, y, z'
_cell_length_a     37.865042
_cell_length_b     37.907355
_cell_length_c     21.223682
_cell_angle_alpha  90.307601
_cell_angle_beta   90.287987
_cell_angle_gamma 120.07093
loop_
_atom_site_label
_atom_site_type_symbol
_atom_site_fract_x
_atom_site_fract_y
_atom_site_fract_z
_atom_type_partial_charge
Co0 Co 0.10475 0.25842 0.31386 0.0
N1 N 0.06361 0.21086 0.27785 0.0
C2 C 0.06184 0.1747 0.28562 0.0
N3 N 1.01419 0.16374 0.21602 0.0
C4 C 0.0332 0.20297 0.23604 0.0
C5 C 0.03202 0.14601 0.24739 0.0
Co6 Co 0.29003 0.41043 0.29328 0.0
N7 N 0.33871 0.45551 0.3178 0.0
N8 N 0.3954 0.51611 0.33307 0.0
C9 C 0.39956 0.48772 0.36458 0.0
C10 C 0.3652 0.45076 0.35449 0.0
C11 C 0.3582 0.4958 0.30444 0.0
Co12 Co 0.19415 0.33924 0.30476 0.0
C13 C 0.26374 0.38556 0.2094 0.0
H14 H 0.36021 0.42187 0.37193 0.0
O15 O 0.14042 0.30441 0.35132 0.0
O16 O 0.19653 0.38895 0.34031 0.0
O17 O 0.16624 0.34478 0.22823 0.0
O18 O 0.19506 0.29263 0.26591 0.0
O19 O 0.14092 0.23841 0.30337 0.0
O20 O 0.25997 0.43667 0.31435 0.0
O21 O 0.24824 0.36994 0.26393 0.0
O22 O 0.28335 0.38988 0.37613 0.0
O23 O 0.11551 0.281 0.23176 0.0
O24 O 0.07437 0.28096 0.32796 0.0
O25 O 0.22213 0.33337 0.38032 0.0
O26 O 0.29278 0.42369 0.21006 0.0
C27 C 0.13574 0.31428 0.20255 0.0
C28 C 0.34111 0.51507 0.2616 0.0
H29 H 0.30758 0.49659 0.25714 0.0
H30 H 0.34978 0.54611 0.27875 0.0
H31 H 0.35371 0.51754 0.21373 0.0
C32 C 0.22443 0.42618 0.33477 0.0
C33 C 0.17524 0.25511 0.27691 0.0
H34 H 0.08123 0.16939 0.31707 0.0
H35 H 0.99774 0.23188 0.25022 0.0
H36 H 1.00634 0.22552 0.16866 0.0
H37 H 0.04611 0.2648 0.21649 0.0
C38 C 1.02055 0.23314 0.21633 0.0
C39 C 0.1069 0.30647 0.35951 0.0
C40 C 0.25752 0.35736 0.40349 0.0
H41 H 0.02288 0.11401 0.24471 0.0
H42 H 0.42621 0.49322 0.39159 0.0
Co43 Co 0.85023 0.09238 0.81489 0.0
N44 N 0.82175 0.03599 0.81432 0.0
C45 C 0.78197 1.01124 0.79945 0.0
N46 N 0.80554 0.97094 0.8276 0.0
C47 C 0.83525 1.01062 0.83197 0.0
C48 C 0.77215 0.97137 0.80674 0.0
Co49 Co 0.8701 0.27717 0.80313 0.0
N50 N 0.8963 0.33461 0.8074 0.0
N51 N 0.90351 0.3976 0.81388 0.0
C52 C 0.9407 0.40113 0.81801 0.0
C53 C 0.93621 0.36259 0.81422 0.0
C54 C 0.87724 0.35694 0.80662 0.0
Co55 Co 0.85818 0.18363 0.80727 0.0
C56 C 0.81672 0.23122 0.84121 0.0
H57 H 0.96046 0.35543 0.81727 0.0
O58 O 0.87973 0.14496 0.81227 0.0
O59 O 0.89727 0.215 0.87575 0.0
O60 O 0.81483 0.15041 0.87442 0.0
O61 O 0.81895 0.15168 0.73748 0.0
O62 O 0.81552 0.09181 0.75139 0.0
O63 O 0.90627 0.2777 0.86919 0.0
O64 O 0.83864 0.22332 0.80229 0.0
O65 O 0.90839 0.27917 0.74054 0.0
O66 O 0.81581 0.09173 0.87471 0.0
O67 O 0.88628 0.09791 0.75709 0.0
O68 O 0.90124 0.21644 0.74136 0.0
O69 O 0.83159 0.26882 0.86012 0.0
C70 C 0.80269 0.11422 0.8957 0.0
C71 C 0.83229 0.33846 0.79506 0.0
H72 H 0.81633 0.33141 0.84093 0.0
H73 H 0.82571 0.36002 0.76949 0.0
H74 H 0.82035 0.3097 0.76747 0.0
C75 C 0.91493 0.25216 0.8935 0.0
C76 C 0.80443 0.11413 0.72356 0.0
H77 H 0.76119 0.0214 0.78465 0.0
H78 H 0.89002 1.00673 0.83011 0.0
H79 H 0.87923 0.0221 0.90447 0.0
H80 H 0.89851 0.05795 0.84133 0.0
C81 C 0.87838 0.02534 0.85267 0.0
C82 C 0.90029 0.13605 0.77217 0.0
C83 C 0.91804 0.25316 0.72002 0.0
H84 H 0.74272 0.94464 0.79736 0.0
H85 H 0.96905 0.4295 0.82515 0.0
Co86 Co 0.77561 0.84379 0.27758 0.0
N87 N 0.81455 0.83828 0.23277 0.0
C88 C 0.85053 0.87027 0.21524 0.0
N89 N 0.85181 0.81548 0.18369 0.0
C90 C 0.81613 0.80509 0.21244 0.0
C91 C 0.87302 0.85649 0.18477 0.0
Co92 Co 0.62945 0.88947 0.2892 0.0
N93 N 0.58405 0.89021 0.31906 0.0
N94 N 0.52331 0.88455 0.33947 0.0
C95 C 0.55248 0.91779 0.36969 0.0
C96 C 0.58947 0.92119 0.35701 0.0
C97 C 0.54319 0.86824 0.3087 0.0
Co98 Co 0.70121 0.86546 0.28819 0.0
C99 C 0.65381 0.89379 0.20301 0.0
H100 H 0.61886 0.94556 0.37302 0.0
O101 O 0.73742 0.84474 0.32507 0.0
O102 O 0.6515 0.81618 0.31992 0.0
O103 O 0.69224 0.83551 0.20465 0.0
O104 O 0.74869 0.91462 0.25547 0.0
O105 O 0.79405 0.89496 0.23906 0.0
O106 O 0.60347 0.83226 0.29672 0.0
O107 O 0.67009 0.89107 0.25579 0.0
O108 O 0.65019 0.89679 0.37297 0.0
O109 O 0.74022 0.81835 0.2115 0.0
O110 O 0.75489 0.79662 0.31666 0.0
O111 O 0.70845 0.89509 0.36927 0.0
O112 O 0.61604 0.88558 0.20572 0.0
C113 C 0.70978 0.81646 0.18407 0.0
C114 C 0.52296 0.8323 0.26469 0.0
H115 H 0.54473 0.83241 0.23008 0.0
H116 H 0.51064 0.80394 0.29255 0.0
H117 H 0.49718 0.83205 0.23917 0.0
C118 C 0.61422 0.80654 0.31214 0.0
C119 C 0.78237 0.92083 0.23391 0.0
H120 H 0.8611 0.9018 0.22707 0.0
H121 H 0.78403 0.75284 0.27139 0.0
H122 H 0.78716 0.7408 0.19014 0.0
H123 H 0.7526 0.75825 0.21294 0.0
C124 C 0.78302 0.76174 0.22201 0.0
C125 C 0.73291 0.80957 0.34413 0.0
C126 C 0.68392 0.90373 0.39752 0.0
H127 H 0.90462 0.87512 0.17109 0.0
H128 H 0.54741 0.93874 0.39782 0.0
Co129 Co 0.94434 0.77157 0.77379 0.0
N130 N 1.00032 0.80233 0.76263 0.0
C131 C 1.01501 0.80818 0.70357 0.0
N132 N 0.06744 0.84859 0.76427 0.0
C133 C 0.03309 0.82719 0.79915 0.0
C134 C 0.05577 0.83594 0.70445 0.0
Co135 Co 0.76124 0.60489 0.78997 0.0
N136 N 0.7038 0.57352 0.79225 0.0
N137 N 0.64025 0.51811 0.78991 0.0
C138 C 0.63815 0.55043 0.81204 0.0
C139 C 0.67684 0.58423 0.81295 0.0
C140 C 0.68059 0.53317 0.7779 0.0
Co141 Co 0.85433 0.68791 0.79117 0.0
C142 C 0.80752 0.59867 0.83145 0.0
H143 H 0.6848 0.61441 0.82933 0.0
O144 O 0.89289 0.74739 0.78451 0.0
O145 O 0.82219 0.69894 0.85586 0.0
O146 O 0.89102 0.68485 0.86123 0.0
O147 O 0.88407 0.67509 0.72476 0.0
O148 O 0.9429 0.73355 0.71885 0.0
O149 O 0.76146 0.64098 0.85415 0.0
O150 O 0.81496 0.62813 0.79229 0.0
O151 O 0.75815 0.64009 0.726 0.0
O152 O 0.95023 0.74241 0.84076 0.0
O153 O 0.94076 0.80597 0.82821 0.0
O154 O 0.82096 0.69478 0.7224 0.0
O155 O 0.76972 0.57536 0.84836 0.0
C156 C 0.92938 0.71033 0.87301 0.0
C157 C 0.69849 0.50812 0.75473 0.0
H158 H 0.68524 0.47892 0.78063 0.0
H159 H 0.69104 0.50106 0.70399 0.0
H160 H 0.73217 0.5249 0.75977 0.0
C161 C 0.78541 0.67692 0.87517 0.0
C162 C 0.91957 0.69704 0.70211 0.0
H163 H 0.99663 0.7949 0.66157 0.0
H164 H 1.01837 0.85037 0.88104 0.0
H165 H 0.06174 0.84302 0.8914 0.0
H166 H 1.01069 0.80013 0.89001 0.0
C167 C 0.03107 0.83038 0.86943 0.0
C168 C 0.90234 0.77877 0.82083 0.0
C169 C 0.78372 0.6749 0.70305 0.0
H170 H 0.07462 0.84851 0.6632 0.0
H171 H 0.61051 0.54957 0.82745 0.0
Co172 Co 0.14627 0.74493 0.28881 0.0
N173 N 0.14337 0.69695 0.31319 0.0
C174 C 0.11225 0.6714 0.35027 0.0
N175 N 0.14743 0.64091 0.33113 0.0
C176 C 0.16425 0.67727 0.30137 0.0
C177 C 0.11475 0.63724 0.36158 0.0
Co178 Co 0.18634 0.93215 0.30543 0.0
N179 N 0.17677 0.97118 0.27558 0.0
N180 N 0.19493 0.03002 0.22788 0.0
C181 C 0.15383 1.00766 0.22836 0.0
C182 C 0.14266 0.97131 0.25744 0.0
C183 C 0.20798 1.00709 0.25706 0.0
Co184 Co 0.17348 0.84142 0.29858 0.0
C185 C 0.19634 0.91633 0.39128 0.0
H186 H 0.11175 0.94662 0.26378 0.0
O187 O 0.146 0.78597 0.26004 0.0
O188 O 0.20123 0.86613 0.21679 0.0
O189 O 0.22245 0.83893 0.32561 0.0
O190 O 0.14514 0.81705 0.37918 0.0
O191 O 0.1387 0.75513 0.37359 0.0
O192 O 0.19182 0.91959 0.22166 0.0
O193 O 0.19979 0.89835 0.33963 0.0
O194 O 0.12886 0.89588 0.30564 0.0
O195 O 0.20421 0.77445 0.30099 0.0
O196 O 0.15061 0.73879 0.20429 0.0
O197 O 0.12421 0.83992 0.26776 0.0
O198 O 0.18239 0.94129 0.3851 0.0
C199 C 0.23087 0.8105 0.31837 0.0
C200 C 0.25172 0.01806 0.26471 0.0
H201 H 0.25454 0.99036 0.2611 0.0
H202 H 0.27121 0.04052 0.22886 0.0
H203 H 0.26264 0.03132 0.31242 0.0
C204 C 0.20145 0.89672 0.1913 0.0
C205 C 0.13445 0.78218 0.40277 0.0
H206 H 0.08869 0.67711 0.36739 0.0
H207 H 0.19096 0.66662 0.21998 0.0
H208 H 0.22683 0.69784 0.27921 0.0
H209 H 0.20356 0.71909 0.2298 0.0
C210 C 0.19828 0.69135 0.2548 0.0
C211 C 0.14349 0.76911 0.2051 0.0
C212 C 0.1082 0.86067 0.28236 0.0
H213 H 0.09397 0.61142 0.38971 0.0
H214 H 0.13332 0.01755 0.21082 0.0
Co215 Co 0.26768 0.18582 0.79936 0.0
N216 N 0.2396 0.21345 0.78553 0.0
C217 C 0.25624 0.25384 0.77566 0.0
N218 N 0.18957 0.22805 0.7715 0.0
C219 C 0.19893 0.19855 0.78343 0.0
C220 C 0.22561 0.26286 0.76712 0.0
Co221 Co 0.43199 0.16533 0.81397 0.0
N222 N 0.46289 0.13886 0.81088 0.0
N223 N 0.51854 0.13126 0.81658 0.0
C224 C 0.48792 0.09837 0.78729 0.0
C225 C 0.45393 0.1029 0.78431 0.0
C226 C 0.50227 0.15523 0.83076 0.0
Co227 Co 0.35065 0.17773 0.81129 0.0
C228 C 0.44113 0.22003 0.77991 0.0
H229 H 0.425 0.08179 0.76238 0.0
O230 O 0.2909 0.15746 0.80861 0.0
O231 O 0.34057 0.13686 0.87828 0.0
O232 O 0.35634 0.21986 0.87907 0.0
O233 O 0.36263 0.21821 0.74246 0.0
O234 O 0.30336 0.21685 0.73637 0.0
O235 O 0.39291 0.12461 0.86945 0.0
O236 O 0.41006 0.19683 0.81594 0.0
O237 O 0.39905 0.13273 0.74177 0.0
O238 O 0.30002 0.22422 0.85929 0.0
O239 O 0.23898 0.14524 0.74373 0.0
O240 O 0.34128 0.13491 0.74517 0.0
O241 O 0.46492 0.2061 0.7628 0.0
C242 C 0.33293 0.23517 0.88981 0.0
C243 C 0.52535 0.19644 0.86161 0.0
H244 H 0.50858 0.21331 0.85752 0.0
H245 H 0.5292 0.19269 0.9125 0.0
H246 H 0.55608 0.21436 0.84054 0.0
C247 C 0.35849 0.11676 0.89269 0.0
C248 C 0.33921 0.22929 0.71749 0.0
H249 H 0.28866 0.27542 0.7747 0.0
H250 H 0.15863 0.13727 0.75283 0.0
H251 H 0.14129 0.15258 0.8211 0.0
H252 H 0.1826 0.14158 0.82805 0.0
C253 C 0.16852 0.15499 0.79758 0.0
C254 C 0.26295 0.13345 0.76837 0.0
C255 C 0.3629 0.12087 0.72165 0.0
H256 H 0.22945 0.29262 0.75756 0.0
H257 H 0.49013 0.07298 0.76833 0.0
H258 H 0.2765 0.50807 0.35247 0.0
H259 H 0.09862 0.56083 0.30988 0.0
H260 H 0.14846 0.4174 0.34154 0.0
H261 H 0.22264 0.65173 0.35489 0.0
H262 H 0.11723 0.50791 0.31827 0.0
H263 H 0.25833 0.56149 0.35302 0.0
C264 C 0.24457 0.49939 0.35064 0.0
C265 C 0.21398 0.45826 0.34592 0.0
C266 C 0.14053 0.53943 0.32595 0.0
C267 C 0.19304 0.51912 0.34635 0.0
C268 C 0.12992 0.56952 0.32081 0.0
C269 C 0.15939 0.61054 0.33031 0.0
C270 C 0.18095 0.5505 0.34096 0.0
C271 C 0.19947 0.62052 0.345 0.0
C272 C 0.23424 0.52989 0.35105 0.0
C273 C 0.17308 0.44871 0.34499 0.0
N274 N 0.20917 0.59063 0.34982 0.0
N275 N 0.16384 0.47896 0.34446 0.0
H276 H 0.56366 0.11789 0.73104 0.0
H277 H 0.76883 0.22876 0.93866 0.0
H278 H 0.56883 0.16221 0.92005 0.0
H279 H 0.7618 0.17338 0.7578 0.0
H280 H 0.69471 0.19924 0.93661 0.0
H281 H 0.63459 0.13345 0.74248 0.0
C282 C 0.5797 0.13092 0.775 0.0
C283 C 0.56034 0.13973 0.82399 0.0
C284 C 0.70913 0.19277 0.89784 0.0
C285 C 0.64201 0.15763 0.83769 0.0
C286 C 0.75156 0.20931 0.8993 0.0
C287 C 0.77184 0.2034 0.84856 0.0
C288 C 0.68642 0.17048 0.84471 0.0
C289 C 0.74767 0.17831 0.79847 0.0
C290 C 0.62028 0.13981 0.78153 0.0
C291 C 0.58274 0.15638 0.88005 0.0
N292 N 0.70646 0.16337 0.79735 0.0
N293 N 0.62226 0.165 0.88514 0.0
H294 H 0.44067 0.56252 0.43077 0.0
H295 H 0.54672 0.76755 0.23893 0.0
H296 H 0.42178 0.56562 0.23086 0.0
H297 H 0.60948 0.74816 0.39326 0.0
H298 H 0.49272 0.69642 0.24473 0.0
H299 H 0.49586 0.6338 0.427 0.0
C300 C 0.44787 0.5784 0.38629 0.0
C301 C 0.42589 0.55857 0.33137 0.0
C302 C 0.51827 0.70775 0.27736 0.0
C303 C 0.48842 0.63954 0.32685 0.0
C304 C 0.54882 0.74833 0.27456 0.0
C305 C 0.58213 0.76366 0.31634 0.0
C306 C 0.52077 0.68248 0.32287 0.0
C307 C 0.58408 0.73732 0.36046 0.0
C308 C 0.47931 0.61881 0.38419 0.0
C309 C 0.43655 0.58019 0.27475 0.0
N310 N 0.55344 0.69785 0.36307 0.0
N311 N 0.46691 0.61971 0.27402 0.0
H312 H 0.84862 0.40022 0.89253 0.0
H313 H 0.86786 0.60378 0.75209 0.0
H314 H 0.93841 0.47029 0.75305 0.0
H315 H 0.80721 0.55043 0.92636 0.0
H316 H 0.89645 0.55832 0.75185 0.0
H317 H 0.83299 0.45534 0.90377 0.0
C318 C 0.86478 0.42712 0.86381 0.0
C319 C 0.89431 0.43029 0.82093 0.0
C320 C 0.87767 0.55723 0.79095 0.0
C321 C 0.87697 0.49424 0.83399 0.0
C322 C 0.86191 0.5839 0.79175 0.0
C323 C 0.83538 0.58163 0.8398 0.0
C324 C 0.86629 0.52744 0.83792 0.0
C325 C 0.82758 0.55358 0.88841 0.0
C326 C 0.8562 0.45887 0.87068 0.0
C327 C 0.91521 0.46651 0.78628 0.0
N328 N 0.8423 0.52735 0.88568 0.0
N329 N 0.90585 0.49682 0.79296 0.0
H330 H 0.25971 0.75809 0.33954 0.0
H331 H 0.49349 0.93474 0.32094 0.0
H332 H 0.29939 0.88573 0.31859 0.0
H333 H 0.45706 0.80893 0.3528 0.0
H334 H 0.42192 0.91661 0.31997 0.0
H335 H 0.33117 0.77517 0.34511 0.0
C336 C 0.28344 0.78963 0.3358 0.0
C337 C 0.27358 0.8204 0.32747 0.0
C338 C 0.42939 0.89282 0.32699 0.0
C339 C 0.35527 0.84029 0.3346 0.0
C340 C 0.47021 0.90321 0.32755 0.0
C341 C 0.48098 0.87319 0.33622 0.0
C342 C 0.39895 0.85202 0.33541 0.0
C343 C 0.44984 0.83275 0.34455 0.0
C344 C 0.3242 0.79941 0.33938 0.0
C345 C 0.30552 0.86096 0.32488 0.0
N346 N 0.41009 0.82327 0.34389 0.0
N347 N 0.34487 0.86966 0.32803 0.0
H348 H 0.4314 0.27311 0.85798 0.0
H349 H 0.58184 0.47874 0.87735 0.0
H350 H 0.49156 0.26968 0.68835 0.0
H351 H 0.62024 0.46206 0.69452 0.0
H352 H 0.52573 0.40857 0.87373 0.0
H353 H 0.47381 0.34706 0.86055 0.0
C354 C 0.4526 0.28797 0.82005 0.0
C355 C 0.45751 0.26479 0.77273 0.0
C356 C 0.54591 0.4198 0.83387 0.0
C357 C 0.509 0.35041 0.77727 0.0
C358 C 0.57832 0.46021 0.83621 0.0
C359 C 0.60654 0.47629 0.78688 0.0
C360 C 0.54113 0.39487 0.78127 0.0
C361 C 0.60029 0.45077 0.73469 0.0
C362 C 0.47791 0.33059 0.82231 0.0
C363 C 0.4866 0.28612 0.72591 0.0
N364 N 0.56858 0.4115 0.73349 0.0
N365 N 0.51138 0.32735 0.7298 0.0
H366 H 0.18895 0.23943 0.15779 0.0
H367 H 0.25491 0.09007 0.29777 0.0
H368 H 0.20486 0.21946 0.35297 0.0
H369 H 0.18568 0.06638 0.12541 0.0
H370 H 0.2736 0.16123 0.29247 0.0
H371 H 0.21969 0.19805 0.12683 0.0
C372 C 0.19911 0.22629 0.19383 0.0
C373 C 0.19322 0.23094 0.2577 0.0
C374 C 0.25577 0.14085 0.25428 0.0
C375 C 0.2296 0.18617 0.22337 0.0
C376 C 0.24539 0.10022 0.25694 0.0
C377 C 0.21786 0.07233 0.2127 0.0
C378 C 0.23725 0.15288 0.20848 0.0
C379 C 0.20599 0.0871 0.16132 0.0
C380 C 0.21711 0.2035 0.17631 0.0
C381 C 0.20781 0.21502 0.30324 0.0
N382 N 0.2147 0.1264 0.16152 0.0
N383 N 0.22509 0.1929 0.28514 0.0
H384 H 0.95505 0.20524 0.83683 0.0
H385 H 0.16342 0.27645 0.82186 0.0
H386 H 0.94426 0.13059 0.67593 0.0
H387 H 0.12679 0.1724 0.70015 0.0
H388 H 0.09517 0.26795 0.81101 0.0
H389 H 0.02881 0.23867 0.82997 0.0
C390 C 0.96817 0.19711 0.79839 0.0
C391 C 0.94336 0.16497 0.7572 0.0
C392 C 0.10166 0.24659 0.78719 0.0
C393 C 0.0283 0.20254 0.7492 0.0
C394 C 0.14073 0.25167 0.79312 0.0
C395 C 0.15002 0.22413 0.76372 0.0
C396 C 0.07181 0.21367 0.7514 0.0
C397 C 0.1202 0.19316 0.72571 0.0
C398 C 1.01066 0.21611 0.79455 0.0
C399 C 0.96224 0.15493 0.70922 0.0
N400 N 0.08238 0.18858 0.72106 0.0
N401 N 1.00347 0.17318 0.70718 0.0
H402 H 1.00151 0.1117 0.12071 0.0
H403 H 0.78671 0.99296 0.2596 0.0
H404 H 0.94335 0.16369 0.23056 0.0
H405 H 0.83935 0.93832 0.1422 0.0
H406 H 0.83324 0.05894 0.21564 0.0
H407 H 0.9344 0.05481 0.09139 0.0
C408 C 0.97442 0.11194 0.13621 0.0
C409 C 0.97767 0.14158 0.17924 0.0
C410 C 0.83431 0.03257 0.19831 0.0
C411 C 0.90142 0.07659 0.14818 0.0
C412 C 0.80747 0.99474 0.22325 0.0
C413 C 0.80927 0.96024 0.20454 0.0
C414 C 0.86467 0.03632 0.15671 0.0
C415 C 0.83767 0.96448 0.15884 0.0
C416 C 0.93618 0.07948 0.11979 0.0
C417 C 0.94211 0.14125 0.19766 0.0
N418 N 0.86493 1.0021 0.13735 0.0
N419 N 0.90532 0.10851 0.1834 0.0
H420 H 0.77852 0.90737 0.74745 0.0
H421 H 0.89534 0.81248 0.93045 0.0
H422 H 0.83858 0.95218 0.92698 0.0
H423 H 0.84617 0.7782 0.74254 0.0
H424 H 0.86127 0.85279 0.94119 0.0
H425 H 0.78957 0.84931 0.75588 0.0
C426 C 0.79383 0.90471 0.78885 0.0
C427 C 0.80894 0.93514 0.83555 0.0
C428 C 0.85705 0.83559 0.89817 0.0
C429 C 0.8219 0.86914 0.84567 0.0
C430 C 0.87604 0.81226 0.8924 0.0
C431 C 0.87259 0.79136 0.83598 0.0
C432 C 0.83538 0.83863 0.8465 0.0
C433 C 0.84853 0.793 0.78716 0.0
C434 C 0.8002 0.87169 0.79368 0.0
C435 C 0.82809 0.93021 0.88874 0.0
N436 N 0.83127 0.8167 0.79317 0.0
N437 N 0.83453 0.89807 0.89204 0.0
H438 H 0.89613 0.81167 0.0879 0.0
H439 H 0.04284 0.83134 0.35932 0.0
H440 H 0.85637 0.76957 0.27625 0.0
H441 H 0.07827 0.84969 0.16441 0.0
H442 H 0.97102 0.79602 0.32621 0.0
H443 H 0.95723 0.80687 0.10687 0.0
C444 C 0.89929 0.79926 0.13204 0.0
C445 C 0.87211 0.79227 0.18124 0.0
C446 C 0.99442 0.80755 0.29051 0.0
C447 C 0.94228 0.78885 0.20472 0.0
C448 C 0.0352 0.8284 0.30957 0.0
C449 C 0.06578 0.84444 0.26431 0.0
C450 C 0.98456 0.80331 0.2258 0.0
C451 C 0.05502 0.83866 0.20038 0.0
C452 C 0.93443 0.79714 0.14339 0.0
C453 C 0.87704 0.77591 0.23743 0.0
N454 N 1.01517 0.81894 0.18287 0.0
N455 N 0.91244 0.77627 0.24868 0.0
H456 H 0.2304 0.0807 0.66842 0.0
H457 H 0.0804 0.90932 0.84733 0.0
H458 H 0.26067 0.08719 0.86551 0.0
H459 H 0.14098 0.8725 0.71238 0.0
H460 H 0.14113 0.97638 0.85349 0.0
H461 H 0.19205 1.0058 0.6753 0.0
C462 C 0.23023 0.06629 0.71244 0.0
C463 C 0.2496 0.08984 0.76623 0.0
C464 C 0.14141 0.95307 0.82405 0.0
C465 C 0.20507 1.00536 0.77481 0.0
C466 C 0.10691 0.91441 0.82122 0.0
C467 C 0.10562 0.88463 0.78014 0.0
C468 C 0.17395 0.96258 0.78348 0.0
C469 C 0.14065 0.8946 0.74451 0.0
C470 C 0.20849 0.02382 0.71632 0.0
C471 C 0.24764 0.06993 0.82268 0.0
N472 N 0.173 0.93321 0.74538 0.0
N473 N 0.22478 0.02875 0.82607 0.0
H474 H 0.27536 0.39935 0.0822 0.0
H475 H 0.32727 0.22044 1.01687 0.0
H476 H 0.26783 0.3158 0.22527 0.0
H477 H 0.34517 0.31178 0.88126 0.0
H478 H 0.30762 0.25545 0.09524 0.0
H479 H 0.29926 0.36629 1.00751 0.0
C480 C 0.27733 0.37315 0.09739 0.0
C481 C 0.26777 0.35947 0.15977 0.0
C482 C 0.31694 0.26854 0.04887 0.0
C483 C 0.2972 0.32228 0.07482 0.0
C484 C 0.32918 0.24903 1.0045 0.0
C485 C 0.33933 0.26385 0.94274 0.0
C486 C 0.31426 0.30297 1.03131 0.0
C487 C 0.33888 0.2999 0.92871 0.0
C488 C 0.29165 0.35461 0.05494 0.0
C489 C 0.27266 0.32628 0.17711 0.0
N490 N 0.32621 0.31783 0.97207 0.0
N491 N 0.28704 0.30903 0.13522 0.0
H492 H 0.94044 0.20535 0.65249 0.0
H493 H 0.07465 0.35517 0.38984 0.0
H494 H 0.96834 0.32996 0.66862 0.0
H495 H 0.10737 0.27159 0.47099 0.0
H496 H 0.03194 0.34637 0.48241 0.0
H497 H 0.99545 0.22617 0.57615 0.0
C498 C 0.95867 0.23724 0.64132 0.0
C499 C 0.95037 0.26589 0.66978 0.0
C500 C 0.04946 0.33094 0.48085 0.0
C501 C 1.01234 0.28991 0.57769 0.0
C502 C 0.07444 0.33647 0.42842 0.0
C503 C 0.09595 0.31519 0.42314 0.0
C504 C 0.04434 0.30246 0.52735 0.0
C505 C 0.09261 0.28972 0.47361 0.0
C506 C 0.98989 0.24909 0.59686 0.0
C507 C 0.97362 0.30659 0.64907 0.0
N508 N 0.06667 0.28334 0.52244 0.0
N509 N 1.00309 0.31725 0.60405 0.0
H510 H 0.72072 0.96726 0.22622 0.0
H511 H 0.72325 0.05639 0.8828 0.0
H512 H 0.64039 0.89511 0.0754 0.0
H513 H 0.81676 0.12199 1.02243 0.0
H514 H 0.68702 1.00091 0.95778 0.0
H515 H 0.75355 0.02578 0.15573 0.0
C516 C 0.71155 0.9631 0.17719 0.0
C517 C 0.67947 0.92536 0.15592 0.0
C518 C 0.71483 0.02791 0.97288 0.0
C519 C 0.71467 0.99365 0.07548 0.0
C520 C 0.73497 0.06023 0.93057 0.0
C521 C 0.77257 0.09473 0.94675 0.0
C522 C 0.73238 0.02976 1.03222 0.0
C523 C 0.78727 0.09678 1.00843 0.0
C524 C 0.72947 0.99695 0.13732 0.0
C525 C 0.66604 0.92308 0.09331 0.0
N526 N 0.76751 0.06467 0.04848 0.0
N527 N 0.68361 0.9566 0.05546 0.0
H528 H 0.70704 0.64512 0.64714 0.0
H529 H 0.76996 0.84985 0.45281 0.0
H530 H 0.82885 0.74906 0.64395 0.0
H531 H 0.67793 0.73244 0.38272 0.0
H532 H 0.77942 0.81665 0.54522 0.0
H533 H 0.68599 0.67894 0.56866 0.0
C534 C 0.72939 0.67507 0.6306 0.0
C535 C 0.7699 0.69421 0.6536 0.0
C536 C 0.75615 0.79822 0.51069 0.0
C537 C 0.74534 0.73379 0.56452 0.0
C538 C 0.74992 0.81735 0.45854 0.0
C539 C 0.72242 0.7942 0.40998 0.0
C540 C 0.7343 0.75543 0.51541 0.0
C541 C 0.69878 0.75175 0.41936 0.0
C542 C 0.7172 0.69443 0.58583 0.0
C543 C 0.79715 0.73316 0.6295 0.0
N544 N 0.70547 0.73377 0.47032 0.0
N545 N 0.78439 0.75157 0.58716 0.0
H546 H 0.9201 0.71722 1.00061 0.0
H547 H 0.14801 0.76106 0.07724 0.0
H548 H 0.996 0.70153 0.86641 0.0
H549 H 0.07094 0.76848 0.21875 0.0
H550 H 0.09322 0.74185 0.99906 0.0
H551 H 0.97344 0.73525 0.08186 0.0
C552 C 0.94709 0.71565 0.98891 0.0
C553 C 0.95267 0.70618 0.92687 0.0
C554 C 0.08843 0.74843 0.04693 0.0
C555 C 1.01532 0.72924 1.01904 0.0
C556 C 0.12009 0.76006 0.09151 0.0
C557 C 0.11507 0.76817 0.15454 0.0
C558 C 0.05067 0.74401 0.06517 0.0
C559 C 0.07727 0.76461 0.17036 0.0
C560 C 0.97805 0.72687 1.03504 0.0
C561 C 0.98961 0.70717 0.91393 0.0
N562 N 0.0467 0.75273 0.12637 0.0
N563 N 1.01931 0.71862 0.95906 0.0
H564 H 0.38737 0.1148 0.60043 0.0
H565 H 0.17943 0.90704 0.51709 0.0
H566 H 0.2945 0.04668 0.73651 0.0
H567 H 0.27973 0.96248 0.38823 0.0
H568 H 0.22316 0.95432 0.60002 0.0
H569 H 0.3511 0.05818 0.52394 0.0
C570 C 0.35931 0.08798 0.61427 0.0
C571 C 0.34321 0.08623 0.67454 0.0
C572 C 0.2362 0.95552 0.55423 0.0
C573 C 0.30136 0.02067 0.58704 0.0
C574 C 0.21132 0.92771 0.507 0.0
C575 C 0.22596 0.92942 0.44555 0.0
C576 C 0.27623 0.98646 0.54024 0.0
C577 C 0.26726 0.95873 0.43513 0.0
C578 C 0.33854 0.05553 0.57053 0.0
C579 C 0.30704 0.05024 0.68981 0.0
N580 N 0.29051 0.98633 0.48123 0.0
N581 N 0.28732 0.01935 0.64665 0.0
H582 H 0.78521 0.74709 0.85658 0.0
H583 H 0.66753 0.7345 0.17459 0.0
H584 H 0.74072 0.6464 0.98365 0.0
H585 H 0.7312 0.84342 0.06446 0.0
H586 H 0.6805 0.6966 0.09304 0.0
H587 H 0.75587 0.7788 0.92238 0.0
C588 C 0.77055 0.73253 0.8997 0.0
C589 C 0.76776 0.69562 0.91668 0.0
C590 C 0.69046 0.72847 0.08553 0.0
C591 C 0.73108 0.72987 0.99066 0.0
C592 C 0.68212 0.74989 0.13137 0.0
C593 C 0.69756 0.792 0.12568 0.0
C594 C 0.71457 0.74937 1.03359 0.0
C595 C 0.71788 0.81081 0.06999 0.0
C596 C 0.75277 0.74998 0.93651 0.0
C597 C 0.74471 0.67564 0.96994 0.0
N598 N 0.72642 0.78957 1.02662 0.0
N599 N 0.72757 0.6932 1.00544 0.0
H600 H 0.11979 0.72127 0.48594 0.0
H601 H 0.90762 0.70077 0.57824 0.0
H602 H 0.08235 0.80826 0.43767 0.0
H603 H 0.97156 0.6679 0.7125 0.0
H604 H 0.96291 0.7192 0.5033 0.0
H605 H 0.05971 0.68617 0.55402 0.0
C606 C 0.09951 0.73353 0.49085 0.0
C607 C 0.10621 0.76793 0.45647 0.0
C608 C 0.96409 0.70652 0.54837 0.0
C609 C 0.03682 0.72673 0.53077 0.0
C610 C 0.93207 0.69495 0.59038 0.0
C611 C 0.93518 0.68277 0.65129 0.0
C612 C 0.99898 0.70529 0.56747 0.0
C613 C 0.96807 0.67686 0.66554 0.0
C614 C 0.0651 0.71318 0.52885 0.0
C615 C 0.07872 0.78221 0.4638 0.0
N616 N 0.99937 0.68904 0.62432 0.0
N617 N 0.04487 0.76114 0.49934 0.0
H618 H 0.29238 0.09777 0.96625 0.0
H619 H 0.27475 0.9099 0.14559 0.0
H620 H 0.3747 0.05454 0.91653 0.0
H621 H 0.1709 0.92291 0.09973 0.0
H622 H 0.31468 0.96152 0.06582 0.0
H623 H 0.2515 0.03564 1.0252 0.0
C624 C 0.30187 0.07517 0.96743 0.0
C625 C 0.33665 0.08119 0.93503 0.0
C626 C 0.28276 0.952 0.07192 0.0
C627 C 0.29004 1.00983 1.00401 0.0
C628 C 0.25981 0.9221 0.11662 0.0
C629 C 0.21949 0.91216 0.12904 0.0
C630 C 0.26519 0.97218 1.04074 0.0
C631 C 0.2019 0.92972 0.09146 0.0
C632 C 0.27837 0.03956 1.00106 0.0
C633 C 0.348 0.05116 0.94044 0.0
N634 N 0.22506 0.95948 0.05013 0.0
N635 N 0.32481 0.01674 0.97448 0.0
H636 H 0.32886 0.20665 0.59572 0.0
H637 H 0.32048 0.40281 0.48604 0.0
H638 H 0.37091 0.31104 0.71859 0.0
H639 H 0.23147 0.27879 0.43555 0.0
H640 H 0.35405 0.37691 0.55626 0.0
H641 H 0.3129 0.24245 0.51489 0.0
C642 C 0.33698 0.23806 0.60414 0.0
C643 C 0.35151 0.25622 0.66329 0.0
C644 C 0.32705 0.35557 0.5299 0.0
C645 C 0.33165 0.2964 0.57294 0.0
C646 C 0.30764 0.37019 0.49051 0.0
C647 C 0.27291 0.34286 0.45537 0.0
C648 C 0.31218 0.3135 0.53264 0.0
C649 C 0.2578 0.30094 0.46233 0.0
C650 C 0.32695 0.25806 0.55875 0.0
C651 C 0.36026 0.29644 0.67296 0.0
N652 N 0.27781 0.28757 0.4996 0.0
N653 N 0.34947 0.3151 0.62854 0.0
H654 H 0.11715 0.37258 0.16535 0.0
H655 H 0.93836 0.2046 0.95622 0.0
H656 H 0.10901 0.25971 0.10696 0.0
H657 H 0.97066 0.33058 0.93579 0.0
H658 H 0.9986 0.22593 1.02094 0.0
H659 H 0.06464 0.36138 0.08582 0.0
C660 C 0.1057 0.34646 0.13391 0.0
C661 C 0.11757 0.31711 0.14234 0.0
C662 C 0.99275 0.24908 1.00227 0.0
C663 C 0.05661 0.30329 0.05392 0.0
C664 C 0.95796 0.23689 0.96551 0.0
C665 C 0.94926 0.26579 0.93969 0.0
C666 C 1.01933 0.29062 1.01472 0.0
C667 C 0.97605 0.30717 0.95452 0.0
C668 C 0.07531 0.33977 0.08928 0.0
C669 C 0.10088 0.28317 0.10172 0.0
N670 N 1.00991 0.31841 0.99125 0.0
N671 N 0.07087 0.27688 0.06022 0.0
H672 H 0.72361 0.05915 0.72285 0.0
H673 H 0.76299 0.9539 0.43402 0.0
H674 H 0.82795 0.12234 0.60275 0.0
H675 H 0.6393 0.9189 0.4839 0.0
H676 H 0.78786 1.01119 0.50769 0.0
H677 H 0.69048 1.00554 0.6421 0.0
C678 C 0.73851 0.06275 0.67795 0.0
C679 C 0.77811 0.09541 0.66856 0.0
C680 C 0.75527 0.99081 0.50268 0.0
C681 C 0.74198 0.03332 0.57863 0.0
C682 C 0.74104 0.95761 0.46156 0.0
C683 C 0.69895 0.93152 0.45269 0.0
C684 C 0.72733 0.99766 0.53603 0.0
C685 C 0.672 0.93831 0.48925 0.0
C686 C 0.72001 0.03185 0.63254 0.0
C687 C 0.79702 0.09802 0.61092 0.0
N688 N 0.68665 0.97078 0.52945 0.0
N689 N 0.7792 0.06681 0.56863 0.0
loop_
_geom_bond_atom_site_label_1
_geom_bond_atom_site_label_2
_geom_bond_distance
_geom_bond_site_symmetry_2
_ccdc_geom_bond_type
Co0 N1 2.034 1_455 S
Co0 O15 2.262 . S
Co0 O19 1.958 . S
Co0 O23 1.950 . S
Co0 O24 2.057 . S
N1 Co0 2.034 1_655 S
N1 C2 1.366 . S
N1 C4 1.332 . S
C2 N1 1.366 . S
C2 C5 1.377 . S
C2 H34 0.931 1_655 S
N3 C4 1.346 . S
N3 C5 1.337 . S
C4 N1 1.332 . S
C4 N3 1.346 . S
C4 C38 1.361 . S
C5 C2 1.377 . S
C5 N3 1.337 . S
C5 H41 0.930 . S
Co6 N7 2.034 . S
Co6 O20 1.950 . S
Co6 O21 2.262 . S
Co6 O22 1.958 . S
Co6 O26 2.057 . S
N7 Co6 2.034 . S
N7 C10 1.366 . S
N7 C11 1.332 . S
N8 C9 1.337 . S
N8 C11 1.346 . S
C9 N8 1.337 . S
C9 C10 1.377 . S
C9 H42 0.930 . S
C10 N7 1.366 . S
C10 C9 1.377 . S
C10 H14 0.931 . S
C11 N7 1.332 . S
C11 N8 1.346 . S
C11 C28 1.361 . S
Co12 O15 2.097 . S
Co12 O16 2.065 . S
Co12 O17 2.065 . S
Co12 O18 2.042 . S
Co12 O21 2.097 . S
Co12 O25 2.042 . S
C13 O21 1.253 . S
C13 O26 1.263 . S
H14 C10 0.931 . S
O15 Co0 2.262 . S
O15 Co12 2.097 . S
O15 C39 1.253 . S
O16 Co12 2.065 . S
O16 C32 1.221 . S
O17 Co12 2.065 . S
O17 C27 1.221 . S
O18 Co12 2.042 . S
O18 C33 1.237 . S
O19 Co0 1.958 . S
O19 C33 1.278 . S
O20 Co6 1.950 . S
O20 C32 1.277 . S
O21 Co6 2.262 . S
O21 Co12 2.097 . S
O21 C13 1.253 . S
O22 Co6 1.958 . S
O22 C40 1.278 . S
O23 Co0 1.950 . S
O23 C27 1.277 . S
O24 Co0 2.057 . S
O24 C39 1.263 . S
O25 Co12 2.042 . S
O25 C40 1.237 . S
O26 Co6 2.057 . S
O26 C13 1.263 . S
C27 O17 1.221 . S
C27 O23 1.277 . S
C28 C11 1.361 . S
C28 H29 0.960 . S
C28 H30 0.961 . S
C28 H31 0.961 . S
H29 C28 0.960 . S
H30 C28 0.961 . S
H31 C28 0.961 . S
C32 O16 1.221 . S
C32 O20 1.277 . S
C33 O18 1.237 . S
C33 O19 1.278 . S
H34 C2 0.931 1_455 S
H35 C38 0.961 . S
H36 C38 0.961 . S
H37 C38 0.960 . S
C38 C4 1.361 . S
C38 H35 0.961 . S
C38 H36 0.961 . S
C38 H37 0.960 . S
C39 O15 1.253 . S
C39 O24 1.263 . S
C40 O22 1.278 . S
C40 O25 1.237 . S
H41 C5 0.930 . S
H42 C9 0.930 . S
Co43 N44 2.034 1_545 S
Co43 O58 2.262 . S
Co43 O62 1.958 . S
Co43 O66 1.950 . S
Co43 O67 2.057 . S
N44 Co43 2.034 1_565 S
N44 C45 1.366 . S
N44 C47 1.332 . S
C45 N44 1.366 . S
C45 C48 1.377 . S
C45 H77 0.931 . S
N46 C47 1.346 . S
N46 C48 1.337 . S
C47 N44 1.332 . S
C47 N46 1.346 . S
C47 C81 1.361 . S
C48 C45 1.377 . S
C48 N46 1.337 . S
C48 H84 0.930 . S
Co49 N50 2.034 . S
Co49 O63 1.950 . S
Co49 O64 2.262 . S
Co49 O65 1.958 . S
Co49 O69 2.057 . S
N50 Co49 2.034 . S
N50 C53 1.366 . S
N50 C54 1.332 . S
N51 C52 1.337 . S
N51 C54 1.346 . S
C52 N51 1.337 . S
C52 C53 1.377 . S
C52 H85 0.930 . S
C53 N50 1.366 . S
C53 C52 1.377 . S
C53 H57 0.931 . S
C54 N50 1.332 . S
C54 N51 1.346 . S
C54 C71 1.361 . S
Co55 O58 2.097 . S
Co55 O59 2.065 . S
Co55 O60 2.065 . S
Co55 O61 2.042 . S
Co55 O64 2.097 . S
Co55 O68 2.042 . S
C56 O64 1.253 . S
C56 O69 1.263 . S
H57 C53 0.931 . S
O58 Co43 2.262 . S
O58 Co55 2.097 . S
O58 C82 1.253 . S
O59 Co55 2.065 . S
O59 C75 1.221 . S
O60 Co55 2.065 . S
O60 C70 1.221 . S
O61 Co55 2.042 . S
O61 C76 1.237 . S
O62 Co43 1.958 . S
O62 C76 1.278 . S
O63 Co49 1.950 . S
O63 C75 1.277 . S
O64 Co49 2.262 . S
O64 Co55 2.097 . S
O64 C56 1.253 . S
O65 Co49 1.958 . S
O65 C83 1.278 . S
O66 Co43 1.950 . S
O66 C70 1.277 . S
O67 Co43 2.057 . S
O67 C82 1.263 . S
O68 Co55 2.042 . S
O68 C83 1.237 . S
O69 Co49 2.057 . S
O69 C56 1.263 . S
C70 O60 1.221 . S
C70 O66 1.277 . S
C71 C54 1.361 . S
C71 H72 0.960 . S
C71 H73 0.961 . S
C71 H74 0.961 . S
H72 C71 0.960 . S
H73 C71 0.961 . S
H74 C71 0.961 . S
C75 O59 1.221 . S
C75 O63 1.277 . S
C76 O61 1.237 . S
C76 O62 1.278 . S
H77 C45 0.931 . S
H78 C81 0.961 . S
H79 C81 0.961 . S
H80 C81 0.991 . S
C81 C47 1.361 . S
C81 H78 0.961 . S
C81 H79 0.961 . S
C81 H80 0.991 . S
C82 O58 1.253 . S
C82 O67 1.263 . S
C83 O65 1.278 . S
C83 O68 1.237 . S
H84 C48 0.930 . S
H85 C52 0.930 . S
Co86 N87 2.034 . S
Co86 O101 2.262 . S
Co86 O105 1.958 . S
Co86 O109 1.950 . S
Co86 O110 2.057 . S
N87 Co86 2.034 . S
N87 C88 1.366 . S
N87 C90 1.332 . S
C88 N87 1.366 . S
C88 C91 1.377 . S
C88 H120 0.931 . S
N89 C90 1.346 . S
N89 C91 1.337 . S
C90 N87 1.332 . S
C90 N89 1.346 . S
C90 C124 1.361 . S
C91 C88 1.377 . S
C91 N89 1.337 . S
C91 H127 0.930 . S
Co92 N93 2.034 . S
Co92 O106 1.950 . S
Co92 O107 2.262 . S
Co92 O108 1.958 . S
Co92 O112 2.057 . S
N93 Co92 2.034 . S
N93 C96 1.366 . S
N93 C97 1.332 . S
N94 C95 1.337 . S
N94 C97 1.346 . S
C95 N94 1.337 . S
C95 C96 1.377 . S
C95 H128 0.930 . S
C96 N93 1.366 . S
C96 C95 1.377 . S
C96 H100 0.931 . S
C97 N93 1.332 . S
C97 N94 1.346 . S
C97 C114 1.361 . S
Co98 O101 2.097 . S
Co98 O102 2.065 . S
Co98 O103 2.065 . S
Co98 O104 2.042 . S
Co98 O107 2.097 . S
Co98 O111 2.042 . S
C99 O107 1.253 . S
C99 O112 1.263 . S
H100 C96 0.931 . S
O101 Co86 2.262 . S
O101 Co98 2.097 . S
O101 C125 1.253 . S
O102 Co98 2.065 . S
O102 C118 1.221 . S
O103 Co98 2.065 . S
O103 C113 1.221 . S
O104 Co98 2.042 . S
O104 C119 1.237 . S
O105 Co86 1.958 . S
O105 C119 1.278 . S
O106 Co92 1.950 . S
O106 C118 1.277 . S
O107 Co92 2.262 . S
O107 Co98 2.097 . S
O107 C99 1.253 . S
O108 Co92 1.958 . S
O108 C126 1.278 . S
O109 Co86 1.950 . S
O109 C113 1.277 . S
O110 Co86 2.057 . S
O110 C125 1.263 . S
O111 Co98 2.042 . S
O111 C126 1.237 . S
O112 Co92 2.057 . S
O112 C99 1.263 . S
C113 O103 1.221 . S
C113 O109 1.277 . S
C114 C97 1.361 . S
C114 H115 0.960 . S
C114 H116 0.961 . S
C114 H117 0.961 . S
H115 C114 0.960 . S
H116 C114 0.961 . S
H117 C114 0.961 . S
C118 O102 1.221 . S
C118 O106 1.277 . S
C119 O104 1.237 . S
C119 O105 1.278 . S
H120 C88 0.931 . S
H121 C124 0.961 . S
H122 C124 0.961 . S
H123 C124 0.960 . S
C124 C90 1.361 . S
C124 H121 0.961 . S
C124 H122 0.961 . S
C124 H123 0.960 . S
C125 O101 1.253 . S
C125 O110 1.263 . S
C126 O108 1.278 . S
C126 O111 1.237 . S
H127 C91 0.930 . S
H128 C95 0.930 . S
Co129 N130 2.034 1_655 S
Co129 O144 2.262 . S
Co129 O148 1.958 . S
Co129 O152 1.950 . S
Co129 O153 2.057 . S
N130 Co129 2.034 1_455 S
N130 C131 1.366 . S
N130 C133 1.332 . S
C131 N130 1.366 . S
C131 C134 1.377 . S
C131 H163 0.931 . S
N132 C133 1.346 . S
N132 C134 1.337 . S
C133 N130 1.332 . S
C133 N132 1.346 . S
C133 C167 1.361 . S
C134 C131 1.377 . S
C134 N132 1.337 . S
C134 H170 0.930 . S
Co135 N136 2.034 . S
Co135 O149 1.950 . S
Co135 O150 2.262 . S
Co135 O151 1.958 . S
Co135 O155 2.057 . S
N136 Co135 2.034 . S
N136 C139 1.366 . S
N136 C140 1.332 . S
N137 C138 1.337 . S
N137 C140 1.346 . S
C138 N137 1.337 . S
C138 C139 1.377 . S
C138 H171 0.930 . S
C139 N136 1.366 . S
C139 C138 1.377 . S
C139 H143 0.931 . S
C140 N136 1.332 . S
C140 N137 1.346 . S
C140 C157 1.361 . S
Co141 O144 2.097 . S
Co141 O145 2.065 . S
Co141 O146 2.065 . S
Co141 O147 2.042 . S
Co141 O150 2.097 . S
Co141 O154 2.042 . S
C142 O150 1.253 . S
C142 O155 1.263 . S
H143 C139 0.931 . S
O144 Co129 2.262 . S
O144 Co141 2.097 . S
O144 C168 1.253 . S
O145 Co141 2.065 . S
O145 C161 1.221 . S
O146 Co141 2.065 . S
O146 C156 1.221 . S
O147 Co141 2.042 . S
O147 C162 1.237 . S
O148 Co129 1.958 . S
O148 C162 1.278 . S
O149 Co135 1.950 . S
O149 C161 1.277 . S
O150 Co135 2.262 . S
O150 Co141 2.097 . S
O150 C142 1.253 . S
O151 Co135 1.958 . S
O151 C169 1.278 . S
O152 Co129 1.950 . S
O152 C156 1.277 . S
O153 Co129 2.057 . S
O153 C168 1.263 . S
O154 Co141 2.042 . S
O154 C169 1.237 . S
O155 Co135 2.057 . S
O155 C142 1.263 . S
C156 O146 1.221 . S
C156 O152 1.277 . S
C157 C140 1.361 . S
C157 H158 0.960 . S
C157 H159 0.961 . S
C157 H160 0.961 . S
H158 C157 0.960 . S
H159 C157 0.961 . S
H160 C157 0.961 . S
C161 O145 1.221 . S
C161 O149 1.277 . S
C162 O147 1.237 . S
C162 O148 1.278 . S
H163 C131 0.931 . S
H164 C167 0.961 . S
H165 C167 0.961 . S
H166 C167 0.980 . S
C167 C133 1.361 . S
C167 H164 0.961 . S
C167 H165 0.961 . S
C167 H166 0.980 . S
C168 O144 1.253 . S
C168 O153 1.263 . S
C169 O151 1.278 . S
C169 O154 1.237 . S
H170 C134 0.930 . S
H171 C138 0.930 . S
Co172 N173 2.034 . S
Co172 O187 2.262 . S
Co172 O191 1.958 . S
Co172 O195 1.950 . S
Co172 O196 2.057 . S
N173 Co172 2.034 . S
N173 C174 1.366 . S
N173 C176 1.332 . S
C174 N173 1.366 . S
C174 C177 1.377 . S
C174 H206 0.931 . S
N175 C176 1.346 . S
N175 C177 1.337 . S
C176 N173 1.332 . S
C176 N175 1.346 . S
C176 C210 1.361 . S
C177 C174 1.377 . S
C177 N175 1.337 . S
C177 H213 0.930 . S
Co178 N179 2.034 1_565 S
Co178 O192 1.950 . S
Co178 O193 2.262 . S
Co178 O194 1.958 . S
Co178 O198 2.057 . S
N179 Co178 2.034 1_545 S
N179 C182 1.366 . S
N179 C183 1.332 . S
N180 C181 1.337 . S
N180 C183 1.346 . S
C181 N180 1.337 . S
C181 C182 1.377 . S
C181 H214 0.930 . S
C182 N179 1.366 . S
C182 C181 1.377 . S
C182 H186 0.931 1_545 S
C183 N179 1.332 . S
C183 N180 1.346 . S
C183 C200 1.361 . S
Co184 O187 2.097 . S
Co184 O188 2.065 . S
Co184 O189 2.065 . S
Co184 O190 2.042 . S
Co184 O193 2.097 . S
Co184 O197 2.042 . S
C185 O193 1.253 . S
C185 O198 1.263 . S
H186 C182 0.931 1_565 S
O187 Co172 2.262 . S
O187 Co184 2.097 . S
O187 C211 1.253 . S
O188 Co184 2.065 . S
O188 C204 1.221 . S
O189 Co184 2.065 . S
O189 C199 1.221 . S
O190 Co184 2.042 . S
O190 C205 1.237 . S
O191 Co172 1.958 . S
O191 C205 1.278 . S
O192 Co178 1.950 . S
O192 C204 1.277 . S
O193 Co178 2.262 . S
O193 Co184 2.097 . S
O193 C185 1.253 . S
O194 Co178 1.958 . S
O194 C212 1.278 . S
O195 Co172 1.950 . S
O195 C199 1.277 . S
O196 Co172 2.057 . S
O196 C211 1.263 . S
O197 Co184 2.042 . S
O197 C212 1.237 . S
O198 Co178 2.057 . S
O198 C185 1.263 . S
C199 O189 1.221 . S
C199 O195 1.277 . S
C200 C183 1.361 . S
C200 H201 0.960 . S
C200 H202 0.961 . S
C200 H203 0.961 . S
H201 C200 0.960 . S
H202 C200 0.961 . S
H203 C200 0.961 . S
C204 O188 1.221 . S
C204 O192 1.277 . S
C205 O190 1.237 . S
C205 O191 1.278 . S
H206 C174 0.931 . S
H207 C210 0.961 . S
H208 C210 0.961 . S
H209 C210 0.960 . S
C210 C176 1.361 . S
C210 H207 0.961 . S
C210 H208 0.961 . S
C210 H209 0.960 . S
C211 O187 1.253 . S
C211 O196 1.263 . S
C212 O194 1.278 . S
C212 O197 1.237 . S
H213 C177 0.930 . S
H214 C181 0.930 . S
Co215 N216 2.034 . S
Co215 O230 2.262 . S
Co215 O234 1.958 . S
Co215 O238 1.950 . S
Co215 O239 2.057 . S
N216 Co215 2.034 . S
N216 C217 1.366 . S
N216 C219 1.332 . S
C217 N216 1.366 . S
C217 C220 1.377 . S
C217 H249 0.931 . S
N218 C219 1.346 . S
N218 C220 1.337 . S
C219 N216 1.332 . S
C219 N218 1.346 . S
C219 C253 1.361 . S
C220 C217 1.377 . S
C220 N218 1.337 . S
C220 H256 0.930 . S
Co221 N222 2.034 . S
Co221 O235 1.950 . S
Co221 O236 2.262 . S
Co221 O237 1.958 . S
Co221 O241 2.057 . S
N222 Co221 2.034 . S
N222 C225 1.366 . S
N222 C226 1.332 . S
N223 C224 1.337 . S
N223 C226 1.346 . S
C224 N223 1.337 . S
C224 C225 1.377 . S
C224 H257 0.930 . S
C225 N222 1.366 . S
C225 C224 1.377 . S
C225 H229 0.931 . S
C226 N222 1.332 . S
C226 N223 1.346 . S
C226 C243 1.361 . S
Co227 O230 2.097 . S
Co227 O231 2.065 . S
Co227 O232 2.065 . S
Co227 O233 2.042 . S
Co227 O236 2.097 . S
Co227 O240 2.042 . S
C228 O236 1.253 . S
C228 O241 1.263 . S
H229 C225 0.931 . S
O230 Co215 2.262 . S
O230 Co227 2.097 . S
O230 C254 1.253 . S
O231 Co227 2.065 . S
O231 C247 1.221 . S
O232 Co227 2.065 . S
O232 C242 1.221 . S
O233 Co227 2.042 . S
O233 C248 1.237 . S
O234 Co215 1.958 . S
O234 C248 1.278 . S
O235 Co221 1.950 . S
O235 C247 1.277 . S
O236 Co221 2.262 . S
O236 Co227 2.097 . S
O236 C228 1.253 . S
O237 Co221 1.958 . S
O237 C255 1.278 . S
O238 Co215 1.950 . S
O238 C242 1.277 . S
O239 Co215 2.057 . S
O239 C254 1.263 . S
O240 Co227 2.042 . S
O240 C255 1.237 . S
O241 Co221 2.057 . S
O241 C228 1.263 . S
C242 O232 1.221 . S
C242 O238 1.277 . S
C243 C226 1.361 . S
C243 H244 0.960 . S
C243 H245 0.961 . S
C243 H246 0.961 . S
H244 C243 0.960 . S
H245 C243 0.961 . S
H246 C243 0.961 . S
C247 O231 1.221 . S
C247 O235 1.277 . S
C248 O233 1.237 . S
C248 O234 1.278 . S
H249 C217 0.931 . S
H250 C253 0.961 . S
H251 C253 0.961 . S
H252 C253 0.960 . S
C253 C219 1.361 . S
C253 H250 0.961 . S
C253 H251 0.961 . S
C253 H252 0.960 . S
C254 O230 1.253 . S
C254 O239 1.263 . S
C255 O237 1.278 . S
C255 O240 1.237 . S
H256 C220 0.930 . S
H257 C224 0.930 . S
H258 C264 0.930 . S
H259 C268 0.930 . S
H260 C273 0.929 . S
H261 C271 0.929 . S
H262 C266 0.929 . S
H263 C272 0.929 . S
C264 H258 0.930 . S
C264 C265 1.367 . S
C264 C272 1.378 . S
C265 C264 1.367 . S
C265 C273 1.433 . S
C266 H262 0.929 . S
C266 C268 1.378 . S
C266 C270 1.350 . S
C267 C270 1.463 . S
C267 C272 1.350 . S
C267 N275 1.427 . S
C268 H259 0.930 . S
C268 C266 1.378 . S
C268 C269 1.367 . S
C269 C268 1.367 . S
C269 C271 1.433 . S
C270 C266 1.350 . S
C270 C267 1.463 . S
C270 N274 1.427 . S
C271 H261 0.929 . S
C271 C269 1.433 . S
C271 N274 1.384 . S
C272 H263 0.929 . S
C272 C264 1.378 . S
C272 C267 1.350 . S
C273 H260 0.929 . S
C273 C265 1.433 . S
C273 N275 1.384 . S
N274 C270 1.427 . S
N274 C271 1.384 . S
N275 C267 1.427 . S
N275 C273 1.384 . S
H276 C282 0.930 . S
H277 C286 0.930 . S
H278 C291 0.929 . S
H279 C289 0.929 . S
H280 C284 0.929 . S
H281 C290 0.929 . S
C282 H276 0.930 . S
C282 C283 1.367 . S
C282 C290 1.378 . S
C283 C282 1.367 . S
C283 C291 1.433 . S
C284 H280 0.929 . S
C284 C286 1.378 . S
C284 C288 1.350 . S
C285 C288 1.463 . S
C285 C290 1.350 . S
C285 N293 1.427 . S
C286 H277 0.930 . S
C286 C284 1.378 . S
C286 C287 1.367 . S
C287 C286 1.367 . S
C287 C289 1.433 . S
C288 C284 1.350 . S
C288 C285 1.463 . S
C288 N292 1.427 . S
C289 H279 0.929 . S
C289 C287 1.433 . S
C289 N292 1.384 . S
C290 H281 0.929 . S
C290 C282 1.378 . S
C290 C285 1.350 . S
C291 H278 0.929 . S
C291 C283 1.433 . S
C291 N293 1.384 . S
N292 C288 1.427 . S
N292 C289 1.384 . S
N293 C285 1.427 . S
N293 C291 1.384 . S
H294 C300 0.930 . S
H295 C304 0.930 . S
H296 C309 0.929 . S
H297 C307 0.929 . S
H298 C302 0.929 . S
H299 C308 0.929 . S
C300 H294 0.930 . S
C300 C301 1.367 . S
C300 C308 1.378 . S
C301 C300 1.367 . S
C301 C309 1.433 . S
C302 H298 0.929 . S
C302 C304 1.378 . S
C302 C306 1.350 . S
C303 C306 1.463 . S
C303 C308 1.350 . S
C303 N311 1.427 . S
C304 H295 0.930 . S
C304 C302 1.378 . S
C304 C305 1.367 . S
C305 C304 1.367 . S
C305 C307 1.433 . S
C306 C302 1.350 . S
C306 C303 1.463 . S
C306 N310 1.427 . S
C307 H297 0.929 . S
C307 C305 1.433 . S
C307 N310 1.384 . S
C308 H299 0.929 . S
C308 C300 1.378 . S
C308 C303 1.350 . S
C309 H296 0.929 . S
C309 C301 1.433 . S
C309 N311 1.384 . S
N310 C306 1.427 . S
N310 C307 1.384 . S
N311 C303 1.427 . S
N311 C309 1.384 . S
H312 C318 0.930 . S
H313 C322 0.930 . S
H314 C327 0.929 . S
H315 C325 0.929 . S
H316 C320 0.929 . S
H317 C326 0.929 . S
C318 H312 0.930 . S
C318 C319 1.367 . S
C318 C326 1.378 . S
C319 C318 1.367 . S
C319 C327 1.433 . S
C320 H316 0.929 . S
C320 C322 1.378 . S
C320 C324 1.350 . S
C321 C324 1.463 . S
C321 C326 1.350 . S
C321 N329 1.427 . S
C322 H313 0.930 . S
C322 C320 1.378 . S
C322 C323 1.367 . S
C323 C322 1.367 . S
C323 C325 1.433 . S
C324 C320 1.350 . S
C324 C321 1.463 . S
C324 N328 1.427 . S
C325 H315 0.929 . S
C325 C323 1.433 . S
C325 N328 1.384 . S
C326 H317 0.929 . S
C326 C318 1.378 . S
C326 C321 1.350 . S
C327 H314 0.929 . S
C327 C319 1.433 . S
C327 N329 1.384 . S
N328 C324 1.427 . S
N328 C325 1.384 . S
N329 C321 1.427 . S
N329 C327 1.384 . S
H330 C336 0.930 . S
H331 C340 0.930 . S
H332 C345 0.929 . S
H333 C343 0.929 . S
H334 C338 0.929 . S
H335 C344 0.929 . S
C336 H330 0.930 . S
C336 C337 1.367 . S
C336 C344 1.378 . S
C337 C336 1.367 . S
C337 C345 1.433 . S
C338 H334 0.929 . S
C338 C340 1.378 . S
C338 C342 1.350 . S
C339 C342 1.463 . S
C339 C344 1.350 . S
C339 N347 1.427 . S
C340 H331 0.930 . S
C340 C338 1.378 . S
C340 C341 1.367 . S
C341 C340 1.367 . S
C341 C343 1.433 . S
C342 C338 1.350 . S
C342 C339 1.463 . S
C342 N346 1.427 . S
C343 H333 0.929 . S
C343 C341 1.433 . S
C343 N346 1.384 . S
C344 H335 0.929 . S
C344 C336 1.378 . S
C344 C339 1.350 . S
C345 H332 0.929 . S
C345 C337 1.433 . S
C345 N347 1.384 . S
N346 C342 1.427 . S
N346 C343 1.384 . S
N347 C339 1.427 . S
N347 C345 1.384 . S
H348 C354 0.930 . S
H349 C358 0.930 . S
H350 C363 0.929 . S
H351 C361 0.929 . S
H352 C356 0.929 . S
H353 C362 0.929 . S
C354 H348 0.930 . S
C354 C355 1.367 . S
C354 C362 1.378 . S
C355 C354 1.367 . S
C355 C363 1.433 . S
C356 H352 0.929 . S
C356 C358 1.378 . S
C356 C360 1.350 . S
C357 C360 1.463 . S
C357 C362 1.350 . S
C357 N365 1.427 . S
C358 H349 0.930 . S
C358 C356 1.378 . S
C358 C359 1.367 . S
C359 C358 1.367 . S
C359 C361 1.433 . S
C360 C356 1.350 . S
C360 C357 1.463 . S
C360 N364 1.427 . S
C361 H351 0.929 . S
C361 C359 1.433 . S
C361 N364 1.384 . S
C362 H353 0.929 . S
C362 C354 1.378 . S
C362 C357 1.350 . S
C363 H350 0.929 . S
C363 C355 1.433 . S
C363 N365 1.384 . S
N364 C360 1.427 . S
N364 C361 1.384 . S
N365 C357 1.427 . S
N365 C363 1.384 . S
H366 C372 0.930 . S
H367 C376 0.930 . S
H368 C381 0.929 . S
H369 C379 0.929 . S
H370 C374 0.929 . S
H371 C380 0.929 . S
C372 H366 0.930 . S
C372 C373 1.367 . S
C372 C380 1.378 . S
C373 C372 1.367 . S
C373 C381 1.433 . S
C374 H370 0.929 . S
C374 C376 1.378 . S
C374 C378 1.350 . S
C375 C378 1.463 . S
C375 C380 1.350 . S
C375 N383 1.427 . S
C376 H367 0.930 . S
C376 C374 1.378 . S
C376 C377 1.367 . S
C377 C376 1.367 . S
C377 C379 1.433 . S
C378 C374 1.350 . S
C378 C375 1.463 . S
C378 N382 1.427 . S
C379 H369 0.929 . S
C379 C377 1.433 . S
C379 N382 1.384 . S
C380 H371 0.929 . S
C380 C372 1.378 . S
C380 C375 1.350 . S
C381 H368 0.929 . S
C381 C373 1.433 . S
C381 N383 1.384 . S
N382 C378 1.427 . S
N382 C379 1.384 . S
N383 C375 1.427 . S
N383 C381 1.384 . S
H384 C390 0.930 . S
H385 C394 0.930 . S
H386 C399 0.929 . S
H387 C397 0.929 . S
H388 C392 0.929 . S
H389 C398 0.929 . S
C390 H384 0.930 . S
C390 C391 1.367 . S
C390 C398 1.378 . S
C391 C390 1.367 . S
C391 C399 1.433 . S
C392 H388 0.929 . S
C392 C394 1.378 . S
C392 C396 1.350 . S
C393 C396 1.463 1_655 S
C393 C398 1.350 . S
C393 N401 1.427 . S
C394 H385 0.930 . S
C394 C392 1.378 . S
C394 C395 1.367 . S
C395 C394 1.367 . S
C395 C397 1.433 . S
C396 C392 1.350 . S
C396 C393 1.463 1_455 S
C396 N400 1.427 . S
C397 H387 0.929 . S
C397 C395 1.433 . S
C397 N400 1.384 . S
C398 H389 0.929 . S
C398 C390 1.378 . S
C398 C393 1.350 . S
C399 H386 0.929 . S
C399 C391 1.433 . S
C399 N401 1.384 . S
N400 C396 1.427 . S
N400 C397 1.384 . S
N401 C393 1.427 . S
N401 C399 1.384 . S
H402 C408 0.930 . S
H403 C412 0.930 . S
H404 C417 0.929 . S
H405 C415 0.929 . S
H406 C410 0.929 . S
H407 C416 0.929 . S
C408 H402 0.930 . S
C408 C409 1.367 . S
C408 C416 1.378 . S
C409 C408 1.367 . S
C409 C417 1.433 . S
C410 H406 0.929 . S
C410 C412 1.378 . S
C410 C414 1.350 . S
C411 C414 1.463 1_545 S
C411 C416 1.350 . S
C411 N419 1.427 . S
C412 H403 0.930 . S
C412 C410 1.378 . S
C412 C413 1.367 . S
C413 C412 1.367 . S
C413 C415 1.433 . S
C414 C410 1.350 . S
C414 C411 1.463 1_565 S
C414 N418 1.427 . S
C415 H405 0.929 . S
C415 C413 1.433 . S
C415 N418 1.384 . S
C416 H407 0.929 . S
C416 C408 1.378 . S
C416 C411 1.350 . S
C417 H404 0.929 . S
C417 C409 1.433 . S
C417 N419 1.384 . S
N418 C414 1.427 . S
N418 C415 1.384 . S
N419 C411 1.427 . S
N419 C417 1.384 . S
H420 C426 0.930 . S
H421 C430 0.930 . S
H422 C435 0.929 . S
H423 C433 0.929 . S
H424 C428 0.929 . S
H425 C434 0.929 . S
C426 H420 0.930 . S
C426 C427 1.367 . S
C426 C434 1.378 . S
C427 C426 1.367 . S
C427 C435 1.433 . S
C428 H424 0.929 . S
C428 C430 1.378 . S
C428 C432 1.350 . S
C429 C432 1.463 . S
C429 C434 1.350 . S
C429 N437 1.427 . S
C430 H421 0.930 . S
C430 C428 1.378 . S
C430 C431 1.367 . S
C431 C430 1.367 . S
C431 C433 1.433 . S
C432 C428 1.350 . S
C432 C429 1.463 . S
C432 N436 1.427 . S
C433 H423 0.929 . S
C433 C431 1.433 . S
C433 N436 1.384 . S
C434 H425 0.929 . S
C434 C426 1.378 . S
C434 C429 1.350 . S
C435 H422 0.929 . S
C435 C427 1.433 . S
C435 N437 1.384 . S
N436 C432 1.427 . S
N436 C433 1.384 . S
N437 C429 1.427 . S
N437 C435 1.384 . S
H438 C444 0.930 . S
H439 C448 0.930 . S
H440 C453 0.929 . S
H441 C451 0.929 . S
H442 C446 0.929 . S
H443 C452 0.929 . S
C444 H438 0.930 . S
C444 C445 1.367 . S
C444 C452 1.378 . S
C445 C444 1.367 . S
C445 C453 1.433 . S
C446 H442 0.929 . S
C446 C448 1.378 . S
C446 C450 1.350 . S
C447 C450 1.463 1_655 S
C447 C452 1.350 . S
C447 N455 1.427 . S
C448 H439 0.930 . S
C448 C446 1.378 . S
C448 C449 1.367 . S
C449 C448 1.367 . S
C449 C451 1.433 . S
C450 C446 1.350 . S
C450 C447 1.463 1_455 S
C450 N454 1.427 . S
C451 H441 0.929 . S
C451 C449 1.433 . S
C451 N454 1.384 . S
C452 H443 0.929 . S
C452 C444 1.378 . S
C452 C447 1.350 . S
C453 H440 0.929 . S
C453 C445 1.433 . S
C453 N455 1.384 . S
N454 C450 1.427 . S
N454 C451 1.384 . S
N455 C447 1.427 . S
N455 C453 1.384 . S
H456 C462 0.930 . S
H457 C466 0.930 . S
H458 C471 0.929 . S
H459 C469 0.929 . S
H460 C464 0.929 . S
H461 C470 0.929 . S
C462 H456 0.930 . S
C462 C463 1.367 . S
C462 C470 1.378 . S
C463 C462 1.367 . S
C463 C471 1.433 . S
C464 H460 0.929 . S
C464 C466 1.378 . S
C464 C468 1.350 . S
C465 C468 1.463 1_545 S
C465 C470 1.350 . S
C465 N473 1.427 . S
C466 H457 0.930 . S
C466 C464 1.378 . S
C466 C467 1.367 . S
C467 C466 1.367 . S
C467 C469 1.433 . S
C468 C464 1.350 . S
C468 C465 1.463 1_565 S
C468 N472 1.427 . S
C469 H459 0.929 . S
C469 C467 1.433 . S
C469 N472 1.384 . S
C470 H461 0.929 . S
C470 C462 1.378 . S
C470 C465 1.350 . S
C471 H458 0.929 . S
C471 C463 1.433 . S
C471 N473 1.384 . S
N472 C468 1.427 . S
N472 C469 1.384 . S
N473 C465 1.427 . S
N473 C471 1.384 . S
H474 C480 0.930 . S
H475 C484 0.930 . S
H476 C489 0.929 . S
H477 C487 0.929 . S
H478 C482 0.929 1_554 S
H479 C488 0.929 1_556 S
C480 H474 0.930 . S
C480 C481 1.367 . S
C480 C488 1.378 . S
C481 C480 1.367 . S
C481 C489 1.433 . S
C482 H478 0.929 1_556 S
C482 C484 1.378 . S
C482 C486 1.350 . S
C483 C486 1.463 1_554 S
C483 C488 1.350 . S
C483 N491 1.427 . S
C484 H475 0.930 . S
C484 C482 1.378 . S
C484 C485 1.367 . S
C485 C484 1.367 . S
C485 C487 1.433 . S
C486 C482 1.350 . S
C486 C483 1.463 1_556 S
C486 N490 1.427 . S
C487 H477 0.929 . S
C487 C485 1.433 . S
C487 N490 1.384 . S
C488 H479 0.929 1_554 S
C488 C480 1.378 . S
C488 C483 1.350 . S
C489 H476 0.929 . S
C489 C481 1.433 . S
C489 N491 1.384 . S
N490 C486 1.427 . S
N490 C487 1.384 . S
N491 C483 1.427 . S
N491 C489 1.384 . S
H492 C498 0.930 . S
H493 C502 0.930 . S
H494 C507 0.929 . S
H495 C505 0.929 . S
H496 C500 0.929 . S
H497 C506 0.929 . S
C498 H492 0.930 . S
C498 C499 1.367 . S
C498 C506 1.378 . S
C499 C498 1.367 . S
C499 C507 1.433 . S
C500 H496 0.929 . S
C500 C502 1.378 1_655 S
C500 C504 1.350 . S
C501 C504 1.463 . S
C501 C506 1.350 . S
C501 N509 1.427 . S
C502 H493 0.930 . S
C502 C500 1.378 1_455 S
C502 C503 1.367 . S
C503 C502 1.367 . S
C503 C505 1.433 . S
C504 C500 1.350 . S
C504 C501 1.463 . S
C504 N508 1.427 . S
C505 H495 0.929 . S
C505 C503 1.433 . S
C505 N508 1.384 1_455 S
C506 H497 0.929 . S
C506 C498 1.378 . S
C506 C501 1.350 . S
C507 H494 0.929 . S
C507 C499 1.433 . S
C507 N509 1.384 . S
N508 C504 1.427 . S
N508 C505 1.384 1_655 S
N509 C501 1.427 . S
N509 C507 1.384 . S
H510 C516 0.930 . S
H511 C520 0.930 . S
H512 C525 0.929 . S
H513 C523 0.929 . S
H514 C518 0.929 . S
H515 C524 0.929 . S
C516 H510 0.930 . S
C516 C517 1.367 . S
C516 C524 1.378 . S
C517 C516 1.367 . S
C517 C525 1.433 . S
C518 H514 0.929 . S
C518 C520 1.378 1_565 S
C518 C522 1.350 . S
C519 C522 1.463 1_554 S
C519 C524 1.350 . S
C519 N527 1.427 . S
C520 H511 0.930 . S
C520 C518 1.378 1_545 S
C520 C521 1.367 . S
C521 C520 1.367 . S
C521 C523 1.433 . S
C522 C518 1.350 . S
C522 C519 1.463 1_556 S
C522 N526 1.427 . S
C523 H513 0.929 . S
C523 C521 1.433 . S
C523 N526 1.384 1_545 S
C524 H515 0.929 . S
C524 C516 1.378 . S
C524 C519 1.350 . S
C525 H512 0.929 . S
C525 C517 1.433 . S
C525 N527 1.384 . S
N526 C522 1.427 . S
N526 C523 1.384 1_565 S
N527 C519 1.427 . S
N527 C525 1.384 . S
H528 C534 0.930 . S
H529 C538 0.930 . S
H530 C543 0.929 . S
H531 C541 0.929 . S
H532 C536 0.929 . S
H533 C542 0.929 . S
C534 H528 0.930 . S
C534 C535 1.367 . S
C534 C542 1.378 . S
C535 C534 1.367 . S
C535 C543 1.433 . S
C536 H532 0.929 . S
C536 C538 1.378 . S
C536 C540 1.350 . S
C537 C540 1.463 . S
C537 C542 1.350 . S
C537 N545 1.427 . S
C538 H529 0.930 . S
C538 C536 1.378 . S
C538 C539 1.367 . S
C539 C538 1.367 . S
C539 C541 1.433 . S
C540 C536 1.350 . S
C540 C537 1.463 . S
C540 N544 1.427 . S
C541 H531 0.929 . S
C541 C539 1.433 . S
C541 N544 1.384 . S
C542 H533 0.929 . S
C542 C534 1.378 . S
C542 C537 1.350 . S
C543 H530 0.929 . S
C543 C535 1.433 . S
C543 N545 1.384 . S
N544 C540 1.427 . S
N544 C541 1.384 . S
N545 C537 1.427 . S
N545 C543 1.384 . S
H546 C552 0.930 . S
H547 C556 0.930 . S
H548 C561 0.925 . S
H549 C559 0.929 . S
H550 C554 0.929 1_556 S
H551 C560 0.929 1_554 S
C552 H546 0.930 . S
C552 C553 1.367 . S
C552 C560 1.378 . S
C553 C552 1.367 . S
C553 C561 1.429 1_655 S
C554 H550 0.929 1_554 S
C554 C556 1.378 . S
C554 C558 1.350 . S
C555 C558 1.463 1_556 S
C555 C560 1.350 1_455 S
C555 N563 1.427 . S
C556 H547 0.930 . S
C556 C554 1.378 . S
C556 C557 1.367 . S
C557 C556 1.367 . S
C557 C559 1.433 . S
C558 C554 1.350 . S
C558 C555 1.463 1_554 S
C558 N562 1.427 . S
C559 H549 0.929 . S
C559 C557 1.433 . S
C559 N562 1.384 . S
C560 H551 0.929 1_556 S
C560 C552 1.378 . S
C560 C555 1.350 1_655 S
C561 H548 0.925 . S
C561 C553 1.429 1_455 S
C561 N563 1.392 . S
N562 C558 1.427 . S
N562 C559 1.384 . S
N563 C555 1.427 . S
N563 C561 1.392 . S
H564 C570 0.930 . S
H565 C574 0.930 . S
H566 C579 0.929 . S
H567 C577 0.929 . S
H568 C572 0.929 . S
H569 C578 0.929 . S
C570 H564 0.930 . S
C570 C571 1.367 . S
C570 C578 1.378 . S
C571 C570 1.367 . S
C571 C579 1.433 . S
C572 H568 0.929 . S
C572 C574 1.378 . S
C572 C576 1.350 1_565 S
C573 C576 1.463 . S
C573 C578 1.350 . S
C573 N581 1.427 . S
C574 H565 0.930 . S
C574 C572 1.378 . S
C574 C575 1.367 . S
C575 C574 1.367 . S
C575 C577 1.433 1_565 S
C576 C572 1.350 1_545 S
C576 C573 1.463 . S
C576 N580 1.427 . S
C577 H567 0.929 . S
C577 C575 1.433 1_545 S
C577 N580 1.384 . S
C578 H569 0.929 . S
C578 C570 1.378 . S
C578 C573 1.350 . S
C579 H566 0.929 . S
C579 C571 1.433 . S
C579 N581 1.384 . S
N580 C576 1.427 . S
N580 C577 1.384 . S
N581 C573 1.427 . S
N581 C579 1.384 . S
H582 C588 0.930 . S
H583 C592 0.930 . S
H584 C597 0.929 . S
H585 C595 0.929 . S
H586 C590 0.929 . S
H587 C596 0.929 . S
C588 H582 0.930 . S
C588 C589 1.367 . S
C588 C596 1.378 . S
C589 C588 1.367 . S
C589 C597 1.433 . S
C590 H586 0.929 . S
C590 C592 1.378 . S
C590 C594 1.350 . S
C591 C594 1.463 1_556 S
C591 C596 1.350 . S
C591 N599 1.427 . S
C592 H583 0.930 . S
C592 C590 1.378 . S
C592 C593 1.367 . S
C593 C592 1.367 . S
C593 C595 1.433 . S
C594 C590 1.350 . S
C594 C591 1.463 1_554 S
C594 N598 1.427 . S
C595 H585 0.929 . S
C595 C593 1.433 . S
C595 N598 1.384 . S
C596 H587 0.929 . S
C596 C588 1.378 . S
C596 C591 1.350 . S
C597 H584 0.929 . S
C597 C589 1.433 . S
C597 N599 1.384 . S
N598 C594 1.427 . S
N598 C595 1.384 . S
N599 C591 1.427 . S
N599 C597 1.384 . S
H600 C606 0.930 . S
H601 C610 0.923 . S
H602 C615 0.929 . S
H603 C613 0.929 . S
H604 C608 0.929 . S
H605 C614 0.929 . S
C606 H600 0.930 . S
C606 C607 1.367 . S
C606 C614 1.378 . S
C607 C606 1.367 . S
C607 C615 1.433 . S
C608 H604 0.929 . S
C608 C610 1.395 . S
C608 C612 1.350 . S
C609 C612 1.463 . S
C609 C614 1.350 . S
C609 N617 1.427 . S
C610 H601 0.923 . S
C610 C608 1.395 . S
C610 C611 1.357 1_455 S
C611 C610 1.357 1_655 S
C611 C613 1.433 . S
C612 C608 1.350 . S
C612 C609 1.463 . S
C612 N616 1.427 1_455 S
C613 H603 0.929 . S
C613 C611 1.433 . S
C613 N616 1.384 . S
C614 H605 0.929 . S
C614 C606 1.378 . S
C614 C609 1.350 . S
C615 H602 0.929 . S
C615 C607 1.433 . S
C615 N617 1.384 . S
N616 C612 1.427 1_655 S
N616 C613 1.384 . S
N617 C609 1.427 . S
N617 C615 1.384 . S
H618 C624 0.930 . S
H619 C628 0.930 . S
H620 C633 0.929 . S
H621 C631 0.929 . S
H622 C626 0.929 1_556 S
H623 C632 0.929 1_554 S
C624 H618 0.930 . S
C624 C625 1.367 . S
C624 C632 1.378 . S
C625 C624 1.367 . S
C625 C633 1.433 . S
C626 H622 0.929 1_554 S
C626 C628 1.378 . S
C626 C630 1.350 1_565 S
C627 C630 1.463 1_556 S
C627 C632 1.350 . S
C627 N635 1.427 . S
C628 H619 0.930 . S
C628 C626 1.378 . S
C628 C629 1.367 . S
C629 C628 1.367 . S
C629 C631 1.433 1_565 S
C630 C626 1.350 1_545 S
C630 C627 1.463 1_554 S
C630 N634 1.427 . S
C631 H621 0.929 . S
C631 C629 1.433 1_545 S
C631 N634 1.384 . S
C632 H623 0.929 1_556 S
C632 C624 1.378 . S
C632 C627 1.350 . S
C633 H620 0.929 . S
C633 C625 1.433 . S
C633 N635 1.384 . S
N634 C630 1.427 . S
N634 C631 1.384 . S
N635 C627 1.427 . S
N635 C633 1.384 . S
H636 C642 0.930 . S
H637 C646 0.930 . S
H638 C651 0.929 . S
H639 C649 0.929 . S
H640 C644 0.929 . S
H641 C650 0.929 . S
C642 H636 0.930 . S
C642 C643 1.367 . S
C642 C650 1.378 . S
C643 C642 1.367 . S
C643 C651 1.433 . S
C644 H640 0.929 . S
C644 C646 1.378 . S
C644 C648 1.350 . S
C645 C648 1.463 . S
C645 C650 1.350 . S
C645 N653 1.427 . S
C646 H637 0.930 . S
C646 C644 1.378 . S
C646 C647 1.367 . S
C647 C646 1.367 . S
C647 C649 1.433 . S
C648 C644 1.350 . S
C648 C645 1.463 . S
C648 N652 1.427 . S
C649 H639 0.929 . S
C649 C647 1.433 . S
C649 N652 1.384 . S
C650 H641 0.929 . S
C650 C642 1.378 . S
C650 C645 1.350 . S
C651 H638 0.929 . S
C651 C643 1.433 . S
C651 N653 1.384 . S
N652 C648 1.427 . S
N652 C649 1.384 . S
N653 C645 1.427 . S
N653 C651 1.384 . S
H654 C660 0.930 . S
H655 C664 0.930 . S
H656 C669 0.929 . S
H657 C667 0.929 . S
H658 C662 0.929 . S
H659 C668 0.929 . S
C660 H654 0.930 . S
C660 C661 1.367 1_655 S
C660 C668 1.378 . S
C661 C660 1.367 1_455 S
C661 C669 1.433 . S
C662 H658 0.929 . S
C662 C664 1.378 . S
C662 C666 1.350 . S
C663 C666 1.463 1_554 S
C663 C668 1.350 . S
C663 N671 1.433 1_655 S
C664 H655 0.930 . S
C664 C662 1.378 . S
C664 C665 1.367 . S
C665 C664 1.367 . S
C665 C667 1.433 . S
C666 C662 1.350 . S
C666 C663 1.463 1_556 S
C666 N670 1.431 . S
C667 H657 0.929 . S
C667 C665 1.433 . S
C667 N670 1.390 . S
C668 H659 0.929 . S
C668 C660 1.378 . S
C668 C663 1.350 . S
C669 H656 0.929 . S
C669 C661 1.433 . S
C669 N671 1.394 . S
N670 C666 1.431 . S
N670 C667 1.390 . S
N671 C663 1.433 1_455 S
N671 C669 1.394 . S
H672 C678 0.930 . S
H673 C682 0.930 . S
H674 C687 0.929 . S
H675 C685 0.929 . S
H676 C680 0.929 . S
H677 C686 0.929 . S
C678 H672 0.930 . S
C678 C679 1.367 . S
C678 C686 1.378 1_545 S
C679 C678 1.367 . S
C679 C687 1.433 . S
C680 H676 0.929 . S
C680 C682 1.378 . S
C680 C684 1.350 . S
C681 C684 1.463 . S
C681 C686 1.350 . S
C681 N689 1.433 . S
C682 H673 0.930 . S
C682 C680 1.378 . S
C682 C683 1.367 . S
C683 C682 1.367 . S
C683 C685 1.433 . S
C684 C680 1.350 . S
C684 C681 1.463 . S
C684 N688 1.427 . S
C685 H675 0.929 . S
C685 C683 1.433 . S
C685 N688 1.384 . S
C686 H677 0.929 . S
C686 C678 1.378 1_565 S
C686 C681 1.350 . S
C687 H674 0.929 . S
C687 C679 1.433 . S
C687 N689 1.366 1_545 S
N688 C684 1.427 . S
N688 C685 1.384 . S
N689 C681 1.433 . S
N689 C687 1.366 1_565 S
C265 C32 1.415 . S
C269 N175 1.441 . S
C283 N223 1.401 . S
C287 C56 1.278 . S
C301 N8 1.426 . S
C305 C118 1.418 . S
C319 N51 1.404 . S
C323 C142 1.270 . S
C337 C199 1.410 . S
C341 N94 1.437 . S
C355 C228 1.262 . S
C359 N137 1.395 . S
C373 C33 1.025 . S
C377 N180 0.936 . S
C391 C82 0.965 . S
C395 N218 0.980 . S
C409 N3 0.907 . S
C413 C119 1.023 . S
C427 N46 0.979 . S
C431 C168 0.967 . S
C445 N89 0.920 . S
C449 C212 1.022 . S
C463 C254 0.980 . S
C467 N132 0.987 . S
C481 C13 1.753 . S
C485 C242 1.712 . S
C499 C83 1.831 . S
C503 C39 1.583 . S
C517 C99 1.757 . S
C521 C70 1.713 . S
C535 C169 1.834 . S
C539 C125 1.583 . S
C553 C156 1.720 . S
C557 C211 1.761 . S
C571 C255 1.834 . S
C575 C185 1.589 . S
C589 C161 1.834 . S
C593 C113 1.754 . S
C607 C205 1.713 . S
C611 C162 1.620 . S
C625 C247 1.840 . S
C629 C204 1.762 . S
C643 C248 1.630 . S
C647 C40 1.720 . S
C661 C27 1.749 . S
C665 C75 1.833 . S
C679 C76 1.631 . S
C683 C126 1.714 . S
