# Generated by pormake.
# Topology bcs, (6)-cn, num edge types: 1
# Building blocks:
#     Node 0, Type 0, BuildingBlock: MIFKUJ_clean_sbu_0, # of connection points: 6
#     Node 1, Type 0, BuildingBlock: MIFKUJ_clean_sbu_0, # of connection points: 6
#     Node 2, Type 0, BuildingBlock: MIFKUJ_clean_sbu_0, # of connection points: 6
#     Node 3, Type 0, BuildingBlock: MIFKUJ_clean_sbu_0, # of connection points: 6
#     Node 4, Type 0, BuildingBlock: MIFKUJ_clean_sbu_0, # of connection points: 6
#     Node 5, Type 0, BuildingBlock: MIFKUJ_clean_sbu_0, # of connection points: 6
#     Node 6, Type 0, BuildingBlock: MIFKUJ_clean_sbu_0, # of connection points: 6
#     Node 7, Type 0, BuildingBlock: MIFKUJ_clean_sbu_0, # of connection points: 6
#     Node 8, Type 0, BuildingBlock: MIFKUJ_clean_sbu_0, # of connection points: 6
#     Node 9, Type 0, BuildingBlock: MIFKUJ_clean_sbu_0, # of connection points: 6
#     Node 10, Type 0, BuildingBlock: MIFKUJ_clean_sbu_0, # of connection points: 6
#     Node 11, Type 0, BuildingBlock: MIFKUJ_clean_sbu_0, # of connection points: 6
#     Node 12, Type 0, BuildingBlock: MIFKUJ_clean_sbu_0, # of connection points: 6
#     Node 13, Type 0, BuildingBlock: MIFKUJ_clean_sbu_0, # of connection points: 6
#     Node 14, Type 0, BuildingBlock: MIFKUJ_clean_sbu_0, # of connection points: 6
#     Node 15, Type 0, BuildingBlock: MIFKUJ_clean_sbu_0, # of connection points: 6
#     Edge 16, Type (0, 0), BuildingBlock: KIFKEQ_clean_linker_1, # of connection points: 2
#     Edge 17, Type (0, 0), BuildingBlock: KIFKEQ_clean_linker_1, # of connection points: 2
#     Edge 18, Type (0, 0), BuildingBlock: KIFKEQ_clean_linker_1, # of connection points: 2
#     Edge 19, Type (0, 0), BuildingBlock: KIFKEQ_clean_linker_1, # of connection points: 2
#     Edge 20, Type (0, 0), BuildingBlock: KIFKEQ_clean_linker_1, # of connection points: 2
#     Edge 21, Type (0, 0), BuildingBlock: KIFKEQ_clean_linker_1, # of connection points: 2
#     Edge 22, Type (0, 0), BuildingBlock: KIFKEQ_clean_linker_1, # of connection points: 2
#     Edge 23, Type (0, 0), BuildingBlock: KIFKEQ_clean_linker_1, # of connection points: 2
#     Edge 24, Type (0, 0), BuildingBlock: KIFKEQ_clean_linker_1, # of connection points: 2
#     Edge 25, Type (0, 0), BuildingBlock: KIFKEQ_clean_linker_1, # of connection points: 2
#     Edge 26, Type (0, 0), BuildingBlock: KIFKEQ_clean_linker_1, # of connection points: 2
#     Edge 27, Type (0, 0), BuildingBlock: KIFKEQ_clean_linker_1, # of connection points: 2
#     Edge 28, Type (0, 0), BuildingBlock: KIFKEQ_clean_linker_1, # of connection points: 2
#     Edge 29, Type (0, 0), BuildingBlock: KIFKEQ_clean_linker_1, # of connection points: 2
#     Edge 30, Type (0, 0), BuildingBlock: KIFKEQ_clean_linker_1, # of connection points: 2
#     Edge 31, Type (0, 0), BuildingBlock: KIFKEQ_clean_linker_1, # of connection points: 2
#     Edge 32, Type (0, 0), BuildingBlock: KIFKEQ_clean_linker_1, # of connection points: 2
#     Edge 33, Type (0, 0), BuildingBlock: KIFKEQ_clean_linker_1, # of connection points: 2
#     Edge 34, Type (0, 0), BuildingBlock: KIFKEQ_clean_linker_1, # of connection points: 2
#     Edge 35, Type (0, 0), BuildingBlock: KIFKEQ_clean_linker_1, # of connection points: 2
#     Edge 36, Type (0, 0), BuildingBlock: KIFKEQ_clean_linker_1, # of connection points: 2
#     Edge 37, Type (0, 0), BuildingBlock: KIFKEQ_clean_linker_1, # of connection points: 2
#     Edge 38, Type (0, 0), BuildingBlock: KIFKEQ_clean_linker_1, # of connection points: 2
#     Edge 39, Type (0, 0), BuildingBlock: KIFKEQ_clean_linker_1, # of connection points: 2
#     Edge 40, Type (0, 0), BuildingBlock: KIFKEQ_clean_linker_1, # of connection points: 2
#     Edge 41, Type (0, 0), BuildingBlock: KIFKEQ_clean_linker_1, # of connection points: 2
#     Edge 42, Type (0, 0), BuildingBlock: KIFKEQ_clean_linker_1, # of connection points: 2
#     Edge 43, Type (0, 0), BuildingBlock: KIFKEQ_clean_linker_1, # of connection points: 2
#     Edge 44, Type (0, 0), BuildingBlock: KIFKEQ_clean_linker_1, # of connection points: 2
#     Edge 45, Type (0, 0), BuildingBlock: KIFKEQ_clean_linker_1, # of connection points: 2
#     Edge 46, Type (0, 0), BuildingBlock: KIFKEQ_clean_linker_1, # of connection points: 2
#     Edge 47, Type (0, 0), BuildingBlock: KIFKEQ_clean_linker_1, # of connection points: 2
#     Edge 48, Type (0, 0), BuildingBlock: KIFKEQ_clean_linker_1, # of connection points: 2
#     Edge 49, Type (0, 0), BuildingBlock: KIFKEQ_clean_linker_1, # of connection points: 2
#     Edge 50, Type (0, 0), BuildingBlock: KIFKEQ_clean_linker_1, # of connection points: 2
#     Edge 51, Type (0, 0), BuildingBlock: KIFKEQ_clean_linker_1, # of connection points: 2
#     Edge 52, Type (0, 0), BuildingBlock: KIFKEQ_clean_linker_1, # of connection points: 2
#     Edge 53, Type (0, 0), BuildingBlock: KIFKEQ_clean_linker_1, # of connection points: 2
#     Edge 54, Type (0, 0), BuildingBlock: KIFKEQ_clean_linker_1, # of connection points: 2
#     Edge 55, Type (0, 0), BuildingBlock: KIFKEQ_clean_linker_1, # of connection points: 2
#     Edge 56, Type (0, 0), BuildingBlock: KIFKEQ_clean_linker_1, # of connection points: 2
#     Edge 57, Type (0, 0), BuildingBlock: KIFKEQ_clean_linker_1, # of connection points: 2
#     Edge 58, Type (0, 0), BuildingBlock: KIFKEQ_clean_linker_1, # of connection points: 2
#     Edge 59, Type (0, 0), BuildingBlock: KIFKEQ_clean_linker_1, # of connection points: 2
#     Edge 60, Type (0, 0), BuildingBlock: KIFKEQ_clean_linker_1, # of connection points: 2
#     Edge 61, Type (0, 0), BuildingBlock: KIFKEQ_clean_linker_1, # of connection points: 2
#     Edge 62, Type (0, 0), BuildingBlock: KIFKEQ_clean_linker_1, # of connection points: 2
#     Edge 63, Type (0, 0), BuildingBlock: KIFKEQ_clean_linker_1, # of connection points: 2
# Relax obj value: 0.089
# Max RMSD: 0.219
# Mean RMSD: 0.144
data_MOF--net-bcs--node1-MIFKUJ_clean_sbu_0--edge1-KIFKEQ_clean_linker_1
_symmetry_space_group_name_H-M    P1
_symmetry_Int_Tables_number       1
_symmetry_cell_setting            triclinic
loop_
_symmetry_equiv_pos_as_xyz
'x, y, z'
_cell_length_a     37.832904
_cell_length_b     41.078622
_cell_length_c     36.563
_cell_angle_alpha  96.52801
_cell_angle_beta   97.748797
_cell_angle_gamma 103.19449
loop_
_atom_site_label
_atom_site_type_symbol
_atom_site_fract_x
_atom_site_fract_y
_atom_site_fract_z
_atom_type_partial_charge
Zn0 Zn 0.95964 0.00105 0.96202 0.0
Zn1 Zn 0.02854 0.9918 0.01628 0.0
C2 C 0.91663 0.02827 0.00605 0.0
O3 O 0.89442 0.00101 0.98566 0.0
C4 C 0.06607 0.95349 0.97467 0.0
O5 O 0.09276 0.97557 -0.00242 0.0
O6 O 0.9215 0.00285 0.91805 0.0
O7 O 0.00933 0.01673 0.94535 0.0
O8 O 0.04619 0.0367 -0.00096 0.0
C9 C 0.92956 0.02798 0.90068 0.0
O10 O 0.96245 0.04869 0.90982 0.0
O11 O 0.9504 0.03541 0.00219 0.0
C12 C 0.05568 0.96029 0.07446 0.0
O13 O 0.02234 0.94071 0.06362 0.0
O14 O 0.06493 0.98703 0.05995 0.0
O15 O 0.97933 0.98191 0.03381 0.0
O16 O 0.94637 0.95537 0.98034 0.0
O17 O 0.03291 0.95514 0.97546 0.0
C18 C 0.03845 0.03684 0.96415 0.0
C19 C 0.95282 0.95831 0.01577 0.0
Zn20 Zn 0.26248 0.77971 0.19845 0.0
Zn21 Zn 0.25121 0.71392 0.28068 0.0
C22 C 0.23038 0.82507 0.15967 0.0
O23 O 0.2522 0.81834 0.13632 0.0
C24 C 0.26745 0.65078 0.28937 0.0
O25 O 0.2316 0.64045 0.27894 0.0
O26 O 0.3086 0.79559 0.17869 0.0
O27 O 0.2709 0.77554 0.25222 0.0
O28 O 0.2755 0.76131 0.30765 0.0
C29 C 0.34117 0.79325 0.18907 0.0
O30 O 0.34965 0.78016 0.21918 0.0
O31 O 0.22946 0.81084 0.18874 0.0
C32 C 0.17151 0.69373 0.29085 0.0
O33 O 0.15927 0.69806 0.25684 0.0
O34 O 0.2058 0.69882 0.30213 0.0
O35 O 0.24235 0.71478 0.22527 0.0
O36 O 0.23961 0.73273 0.17115 0.0
O37 O 0.28298 0.68203 0.29173 0.0
C38 C 0.28024 0.78427 0.28704 0.0
C39 C 0.23473 0.70835 0.18998 0.0
Zn40 Zn 0.53732 0.98733 0.47734 0.0
Zn41 Zn 0.48033 0.01513 0.51524 0.0
C42 C 0.56549 0.95575 0.53365 0.0
O43 O 0.59441 0.97811 0.52806 0.0
C44 C 0.45323 0.04387 0.456 0.0
O45 O 0.42464 0.02061 0.4606 0.0
O46 O 0.57498 0.97451 0.44889 0.0
O47 O 0.48934 0.97863 0.44234 0.0
O48 O 0.45838 0.96795 0.48811 0.0
C49 C 0.57368 0.9672 0.41399 0.0
O50 O 0.54538 0.97024 0.39072 0.0
O51 O 0.53423 0.95423 0.51465 0.0
C52 C 0.43812 0.02994 0.57648 0.0
O53 O 0.46067 0.01929 0.60015 0.0
O54 O 0.44234 0.02894 0.54256 0.0
O55 O 0.52767 0.02298 0.5509 0.0
O56 O 0.55974 0.03388 0.50603 0.0
O57 O 0.48398 0.04741 0.47698 0.0
C58 C 0.46034 0.96394 0.45354 0.0
C59 C 0.55766 0.03636 0.54058 0.0
Zn60 Zn 0.2084 0.25892 0.78996 0.0
Zn61 Zn 0.27948 0.24453 0.70687 0.0
C62 C 0.1872 0.19535 0.81775 0.0
O63 O 0.19283 0.18346 0.7847 0.0
C64 C 0.32921 0.28188 0.66712 0.0
O65 O 0.34954 0.26561 0.68635 0.0
O66 O 0.19232 0.30156 0.80401 0.0
O67 O 0.26314 0.26517 0.78621 0.0
O68 O 0.31042 0.26337 0.75738 0.0
C69 C 0.2004 0.32064 0.83536 0.0
O70 O 0.2242 0.31501 0.86197 0.0
O71 O 0.19336 0.22719 0.82693 0.0
C72 C 0.28746 0.18658 0.65758 0.0
O73 O 0.27421 0.20139 0.63075 0.0
O74 O 0.29072 0.19982 0.69138 0.0
O75 O 0.22772 0.23977 0.71645 0.0
O76 O 0.17744 0.23815 0.73951 0.0
O77 O 0.29539 0.2771 0.67047 0.0
C78 C 0.29784 0.2702 0.78722 0.0
C79 C 0.19284 0.23189 0.71165 0.0
Zn80 Zn 0.01661 0.01979 0.44729 0.0
Zn81 Zn 0.99348 0.96612 0.53414 0.0
C82 C 0.94673 0.04153 0.43803 0.0
O83 O 0.93291 0.01737 0.45648 0.0
C84 C 0.04951 0.94149 0.56987 0.0
O85 O 0.04632 0.96532 0.59549 0.0
O86 O 0.06099 0.0401 0.42487 0.0
O87 O 0.02765 0.02948 0.50407 0.0
O88 O 0.02146 0.01304 0.55868 0.0
C89 C 0.06785 0.07212 0.42682 0.0
O90 O 0.04844 0.08866 0.44552 0.0
O91 O 0.97929 0.04511 0.43117 0.0
C92 C 0.93476 0.91671 0.55079 0.0
O93 O 0.94416 0.89866 0.52342 0.0
O94 O 0.95151 0.9477 0.56012 0.0
O95 O 0.9775 0.97207 0.48191 0.0
O96 O 0.99553 0.96958 0.42825 0.0
O97 O 0.02877 0.93609 0.53828 0.0
C98 C 0.03458 0.0356 0.53955 0.0
C99 C 0.98051 0.95423 0.45253 0.0
Zn100 Zn 0.28897 0.72642 0.73397 0.0
Zn101 Zn 0.20844 0.77188 0.75633 0.0
C102 C 0.31043 0.71214 0.80918 0.0
O103 O 0.32674 0.74456 0.81645 0.0
C104 C 0.17577 0.78426 0.68528 0.0
O105 O 0.15344 0.75491 0.68643 0.0
O106 O 0.31394 0.70539 0.69481 0.0
O107 O 0.23588 0.72614 0.71477 0.0
O108 O 0.18577 0.72186 0.73914 0.0
C109 C 0.3076 0.67326 0.69028 0.0
O110 O 0.28485 0.65627 0.70956 0.0
O111 O 0.29175 0.6999 0.77701 0.0
C112 C 0.1728 0.81837 0.7926 0.0
O113 O 0.17894 0.83251 0.76288 0.0
O114 O 0.18395 0.79184 0.79728 0.0
O115 O 0.26137 0.77171 0.77188 0.0
O116 O 0.31335 0.77626 0.75169 0.0
O117 O 0.20304 0.79612 0.7115 0.0
C118 C 0.20711 0.70745 0.72279 0.0
C119 C 0.29056 0.79068 0.76525 0.0
Zn120 Zn 0.47591 0.01245 0.00623 0.0
Zn121 Zn 0.51872 0.9666 0.97351 0.0
C122 C 0.43309 0.95298 0.02948 0.0
O123 O 0.40558 0.96053 0.00906 0.0
C124 C 0.56222 0.02365 0.94725 0.0
O125 O 0.58994 0.01557 0.9667 0.0
O126 O 0.4487 0.0461 0.02673 0.0
O127 O 0.53008 0.03335 0.02069 0.0
O128 O 0.54017 0.98357 0.02813 0.0
C129 C 0.43572 0.04316 0.05688 0.0
O130 O 0.44125 0.01901 0.07585 0.0
O131 O 0.46531 0.97183 0.03266 0.0
C132 C 0.54955 0.93042 0.91934 0.0
O133 O 0.5333 0.94782 0.89746 0.0
O134 O 0.54645 0.93339 0.95371 0.0
O135 O 0.46429 0.94649 0.95735 0.0
O136 O 0.45463 -0.00321 0.95169 0.0
O137 O 0.52976 0.0061 0.94609 0.0
C138 C 0.54883 0.01555 0.03705 0.0
C139 C 0.44579 0.96494 0.94171 0.0
Zn140 Zn 0.22656 0.26533 0.24528 0.0
Zn141 Zn 0.30902 0.23168 0.26393 0.0
C142 C 0.17915 0.27498 0.29503 0.0
O143 O 0.15838 0.25157 0.26839 0.0
C144 C 0.31691 0.2062 0.18824 0.0
O145 O 0.33104 0.2381 0.1861 0.0
O146 O 0.18924 0.27559 0.20618 0.0
O147 O 0.27501 0.29279 0.23644 0.0
O148 O 0.32749 0.27892 0.25286 0.0
C149 C 0.18966 0.30681 0.21213 0.0
O150 O 0.21386 0.32642 0.23959 0.0
O151 O 0.21336 0.28463 0.29383 0.0
C152 C 0.33684 0.18684 0.30082 0.0
O153 O 0.3039 0.17034 0.28317 0.0
O154 O 0.34837 0.21783 0.2975 0.0
O155 O 0.26496 0.22118 0.29038 0.0
O156 O 0.21902 0.21512 0.24437 0.0
O157 O 0.30264 0.19858 0.21668 0.0
C158 C 0.3098 0.29887 0.23936 0.0
C159 C 0.23255 0.20612 0.27415 0.0
Zn160 Zn 0.49316 0.53063 0.94884 0.0
Zn161 Zn 0.49655 0.46668 0.03431 0.0
C162 C 0.42542 0.55347 0.93866 0.0
O163 O 0.40886 0.52165 0.93856 0.0
C164 C 0.55114 0.44079 0.06856 0.0
O165 O 0.54701 0.46341 0.09502 0.0
O166 O 0.53195 0.5445 0.91735 0.0
O167 O 0.51524 0.53398 0.00366 0.0
O168 O 0.52489 0.51386 0.05646 0.0
C169 C 0.5496 0.57528 0.92138 0.0
O170 O 0.54369 0.59705 0.94763 0.0
O171 O 0.46036 0.56243 0.94368 0.0
C172 C 0.42552 0.44536 0.06528 0.0
O173 O 0.40595 0.45263 0.03625 0.0
O174 O 0.46007 0.44972 0.0672 0.0
O175 O 0.47753 0.46986 0.98199 0.0
O176 O 0.46409 0.4829 0.92697 0.0
O177 O 0.53177 0.43702 0.03648 0.0
C178 C 0.53008 0.5384 0.03783 0.0
C179 C 0.46196 0.46057 0.94841 0.0
Zn180 Zn 0.78768 0.20808 0.24117 0.0
Zn181 Zn 0.70335 0.26291 0.24805 0.0
C182 C 0.82035 0.19727 0.31468 0.0
O183 O 0.83352 0.23024 0.32101 0.0
C184 C 0.67074 0.27517 0.17479 0.0
O185 O 0.65471 0.24268 0.16808 0.0
O186 O 0.8055 0.18719 0.19597 0.0
O187 O 0.73368 0.20613 0.23522 0.0
O188 O 0.67802 0.21263 0.23224 0.0
C189 C 0.80542 0.156 0.1938 0.0
O190 O 0.79145 0.1387 0.21879 0.0
O191 O 0.80007 0.18348 0.28371 0.0
C192 C 0.6887 0.31617 0.29636 0.0
O193 O 0.70734 0.33362 0.27416 0.0
O194 O 0.6841 0.28418 0.29206 0.0
O195 O 0.75891 0.26882 0.25495 0.0
O196 O 0.81306 0.25785 0.25565 0.0
O197 O 0.6917 0.28767 0.20572 0.0
C198 C 0.69935 0.19332 0.2268 0.0
C199 C 0.79381 0.2791 0.2614 0.0
Zn200 Zn 0.97397 0.51668 0.50312 0.0
Zn201 Zn 0.02835 0.47658 0.4748 0.0
C202 C 0.93683 0.4567 0.53067 0.0
O203 O 0.90936 0.45644 0.50439 0.0
C204 C 0.06467 0.53774 0.45052 0.0
O205 O 0.09104 0.53731 0.47765 0.0
O206 O 0.94242 0.54841 0.51817 0.0
O207 O 0.0268 0.5421 0.5198 0.0
O208 O 0.04608 0.49645 0.52913 0.0
C209 C 0.9342 0.55025 0.55086 0.0
O210 O 0.94659 0.53181 0.57423 0.0
O211 O 0.96647 0.47961 0.53467 0.0
C212 C 0.04606 0.41499 0.44373 0.0
O213 O 0.01061 0.40253 0.44205 0.0
O214 O 0.06021 0.44583 0.45767 0.0
O215 O 0.97566 0.45102 0.4607 0.0
O216 O 0.95575 0.49562 0.44895 0.0
O217 O 0.03544 0.51409 0.44363 0.0
C218 C 0.0482 0.52772 0.53828 0.0
C219 C 0.95372 0.46419 0.4414 0.0
Zn220 Zn 0.72866 0.7461 0.29202 0.0
Zn221 Zn 0.79794 0.73798 0.2059 0.0
C222 C 0.70046 0.68345 0.31944 0.0
O223 O 0.69915 0.67112 0.28438 0.0
C224 C 0.84318 0.78907 0.17446 0.0
O225 O 0.86737 0.78282 0.20032 0.0
O226 O 0.71398 0.78938 0.3054 0.0
O227 O 0.7823 0.75552 0.28683 0.0
O228 O 0.82862 0.75736 0.25647 0.0
C229 C 0.72379 0.80833 0.3368 0.0
O230 O 0.74622 0.8005 0.3631 0.0
O231 O 0.71414 0.71497 0.33011 0.0
C232 C 0.80254 0.66755 0.17351 0.0
O233 O 0.76662 0.65596 0.1671 0.0
O234 O 0.81702 0.69811 0.18806 0.0
O235 O 0.74371 0.72712 0.20999 0.0
O236 O 0.69806 0.72543 0.2418 0.0
O237 O 0.80969 0.77269 0.17079 0.0
C238 C 0.81682 0.76271 0.28696 0.0
C239 C 0.70934 0.71979 0.21099 0.0
Zn240 Zn 0.76971 0.27639 0.71503 0.0
Zn241 Zn 0.72792 0.21122 0.78731 0.0
C242 C 0.7055 0.29718 0.6832 0.0
O243 O 0.68867 0.26514 0.68115 0.0
C244 C 0.748 0.14716 0.79193 0.0
O245 O 0.7123 0.13387 0.78508 0.0
O246 O 0.82069 0.29419 0.70536 0.0
O247 O 0.76733 0.27605 0.76993 0.0
O248 O 0.75322 0.25538 0.82024 0.0
C249 C 0.83432 0.32592 0.71162 0.0
O250 O 0.81599 0.34547 0.72763 0.0
O251 O 0.73957 0.30713 0.69638 0.0
C252 C 0.64752 0.19267 0.79369 0.0
O253 O 0.63723 0.20084 0.76093 0.0
O254 O 0.68113 0.19472 0.80566 0.0
O255 O 0.72368 0.22315 0.73611 0.0
O256 O 0.74991 0.22848 0.6874 0.0
O257 O 0.76015 0.17889 0.79341 0.0
C258 C 0.768 0.28019 0.80494 0.0
C259 C 0.73203 0.20922 0.70694 0.0
Zn260 Zn 0.69285 0.75542 0.71611 0.0
Zn261 Zn 0.77439 0.72607 0.73559 0.0
C262 C 0.67326 0.77373 0.78659 0.0
O263 O 0.64941 0.74441 0.77542 0.0
C264 C 0.80869 0.71164 0.67298 0.0
O265 O 0.83246 0.73955 0.68999 0.0
O266 O 0.65172 0.77027 0.68603 0.0
O267 O 0.73563 0.77074 0.68956 0.0
O268 O 0.78334 0.77602 0.73356 0.0
C269 C 0.65663 0.80227 0.69176 0.0
O270 O 0.68619 0.82055 0.71439 0.0
O271 O 0.69846 0.78302 0.76739 0.0
C272 C 0.81427 0.68493 0.7665 0.0
O273 O 0.78765 0.66444 0.74193 0.0
O274 O 0.81569 0.71642 0.77069 0.0
O275 O 0.72887 0.7015 0.75307 0.0
O276 O 0.67661 0.70616 0.72109 0.0
O277 O 0.77882 0.70194 0.68547 0.0
C278 C 0.76899 0.78444 0.70377 0.0
C279 C 0.69401 0.69223 0.74438 0.0
Zn280 Zn 0.4628 0.5041 0.47449 0.0
Zn281 Zn 0.53777 0.48492 0.51687 0.0
C282 C 0.42853 0.52794 0.5328 0.0
O283 O 0.40658 0.49774 0.52113 0.0
C284 C 0.56876 0.45829 0.45874 0.0
O285 O 0.59261 0.4872 0.47216 0.0
O286 O 0.4216 0.50734 0.43498 0.0
O287 O 0.51035 0.52315 0.45516 0.0
O288 O 0.55491 0.53185 0.50366 0.0
C289 C 0.42556 0.51134 0.40168 0.0
O290 O 0.45677 0.50958 0.39061 0.0
O291 O 0.45708 0.53704 0.51795 0.0
C292 C 0.5639 0.44592 0.56393 0.0
O293 O 0.53161 0.42744 0.54677 0.0
O294 O 0.57553 0.47541 0.55592 0.0
O295 O 0.49109 0.47427 0.53944 0.0
O296 O 0.45072 0.45645 0.48812 0.0
O297 O 0.53919 0.4506 0.47238 0.0
C298 C 0.54294 0.53793 0.47156 0.0
C299 C 0.46172 0.4539 0.52182 0.0
Zn300 Zn 0.00727 0.4653 0.01124 0.0
Zn301 Zn 0.99064 0.52971 0.97892 0.0
C302 C 0.02501 0.43908 0.93859 0.0
O303 O 0.99086 0.42079 0.93044 0.0
C304 C 0.97492 0.5669 0.04167 0.0
O305 O 0.00208 0.58937 0.03307 0.0
O306 O 0.01841 0.42972 0.04159 0.0
O307 O 0.03235 0.50905 0.04358 0.0
O308 O 0.04481 0.53649 -0.00321 0.0
C309 C 0.05303 0.43374 0.04996 0.0
O310 O 0.07495 0.45869 0.03833 0.0
O311 O 0.03525 0.46017 0.9685 0.0
C312 C 0.94603 0.56208 0.93902 0.0
O313 O 0.9234 0.53875 0.95223 0.0
O314 O 0.98049 0.56493 0.94723 0.0
O315 O 0.96263 0.48588 0.9481 0.0
O316 O 0.95313 0.45747 -0.0053 0.0
O317 O 0.96572 0.5373 0.02322 0.0
C318 C 0.05453 0.53 0.02929 0.0
C319 C 0.94136 0.46511 0.96347 0.0
H320 H 0.16954 0.21104 0.88696 0.0
H321 H 0.16659 0.12632 0.8039 0.0
H322 H 0.1364 0.17233 0.92402 0.0
H323 H 0.13396 0.08779 0.8411 0.0
H324 H 0.03285 0.03783 0.88924 0.0
H325 H 0.07183 0.07557 0.85633 0.0
H326 H 0.1399 0.12554 0.96105 0.0
H327 H 0.10071 0.08731 -0.00562 0.0
C328 C 0.16224 0.18416 0.87681 0.0
C329 C 0.17044 0.17185 0.84225 0.0
C330 C 0.14338 0.16197 0.89815 0.0
C331 C 0.13217 0.12699 0.88534 0.0
C332 C 0.14161 0.11463 0.85146 0.0
C333 C 0.16052 0.13675 0.83023 0.0
C334 C 0.05612 0.05677 0.90542 0.0
C335 C 0.06337 0.05966 0.94457 0.0
C336 C 0.07867 0.07833 0.88644 0.0
C337 C 0.10903 0.1036 0.90602 0.0
C338 C 0.11651 0.10652 0.94519 0.0
C339 C 0.0941 0.08457 0.96426 0.0
H340 H 0.13073 0.98184 0.08244 0.0
H341 H 0.04377 0.90864 0.11527 0.0
H342 H 0.17576 0.95285 0.10835 0.0
H343 H 0.0886 0.87953 0.14064 0.0
H344 H 0.18185 0.84419 0.20168 0.0
H345 H 0.14248 0.8823 0.18797 0.0
H346 H 0.18697 0.89742 0.08668 0.0
H347 H 0.22661 0.85982 0.10052 0.0
C348 C 0.12133 0.96006 0.09594 0.0
C349 C 0.08367 0.94734 0.09655 0.0
C350 C 0.14707 0.94329 0.11045 0.0
C351 C 0.13564 0.91369 0.1261 0.0
C352 C 0.09831 0.90237 0.12896 0.0
C353 C 0.07259 0.91898 0.11427 0.0
C354 C 0.18338 0.85582 0.1766 0.0
C355 C 0.20721 0.84884 0.15208 0.0
C356 C 0.16082 0.87761 0.16877 0.0
C357 C 0.16174 0.89295 0.13634 0.0
C358 C 0.18608 0.88645 0.11222 0.0
C359 C 0.20856 0.86463 0.11999 0.0
H360 H 0.40337 0.91573 0.46654 0.0
H361 H 0.44358 0.96976 0.37986 0.0
H362 H 0.352 0.88107 0.42173 0.0
H363 H 0.39065 0.93614 0.33474 0.0
H364 H 0.26138 0.8189 0.34561 0.0
H365 H 0.29698 0.87269 0.3818 0.0
H366 H 0.37313 0.88095 0.30293 0.0
H367 H 0.33536 0.82887 0.26538 0.0
C368 C 0.40075 0.92057 0.4379 0.0
C369 C 0.42783 0.94479 0.42646 0.0
C370 C 0.37089 0.90102 0.41213 0.0
C371 C 0.367 0.90562 0.37433 0.0
C372 C 0.39309 0.93139 0.36339 0.0
C373 C 0.42344 0.95058 0.38917 0.0
C374 C 0.28515 0.83294 0.33564 0.0
C375 C 0.29654 0.81957 0.30357 0.0
C376 C 0.3057 0.86358 0.35638 0.0
C377 C 0.33894 0.88043 0.34631 0.0
C378 C 0.34792 0.86871 0.31187 0.0
C379 C 0.32652 0.83864 0.2904 0.0
H380 H 0.26837 0.14015 0.59428 0.0
H381 H 0.34156 0.16732 0.70024 0.0
H382 H 0.29864 0.09581 0.5764 0.0
H383 H 0.37341 0.12462 0.6817 0.0
H384 H 0.41875 0.03657 0.64632 0.0
H385 H 0.37613 0.06832 0.66752 0.0
H386 H 0.35394 0.09426 0.55674 0.0
H387 H 0.39457 0.06145 0.53545 0.0
C388 C 0.29089 0.13652 0.61376 0.0
C389 C 0.30284 0.15732 0.64845 0.0
C390 C 0.30846 0.11129 0.60348 0.0
C391 C 0.339 0.1069 0.62729 0.0
C392 C 0.34979 0.12683 0.66274 0.0
C393 C 0.33167 0.15154 0.67332 0.0
C394 C 0.40425 0.04865 0.62647 0.0
C395 C 0.41023 0.0466 0.58928 0.0
C396 C 0.37999 0.06706 0.63864 0.0
C397 C 0.36155 0.08406 0.61394 0.0
C398 C 0.3669 0.08106 0.57652 0.0
C399 C 0.39065 0.06241 0.56432 0.0
H400 H 0.05584 0.88336 0.52883 0.0
H401 H 0.10081 0.9513 0.63224 0.0
H402 H 0.09363 0.84535 0.54847 0.0
H403 H 0.13757 0.91336 0.65204 0.0
H404 H 0.2116 0.84891 0.67933 0.0
H405 H 0.18755 0.88785 0.64329 0.0
H406 H 0.0911 0.80791 0.59524 0.0
H407 H 0.11556 0.76883 0.63029 0.0
C408 C 0.07409 0.89038 0.55548 0.0
C409 C 0.07502 0.92011 0.57918 0.0
C410 C 0.09562 0.86859 0.56678 0.0
C411 C 0.11856 0.87624 0.60188 0.0
C412 C 0.1207 0.90683 0.62461 0.0
C413 C 0.09923 0.92847 0.6134 0.0
C414 C 0.1857 0.83944 0.66037 0.0
C415 C 0.16515 0.80594 0.65822 0.0
C416 C 0.17182 0.8618 0.63986 0.0
C417 C 0.13707 0.85117 0.61692 0.0
C418 C 0.11801 0.81696 0.61249 0.0
C419 C 0.13194 0.79457 0.63286 0.0
H420 H 0.34853 0.8384 0.7516 0.0
H421 H 0.25573 0.82574 0.81031 0.0
H422 H 0.37632 0.89292 0.79047 0.0
H423 H 0.28374 0.88014 0.84926 0.0
H424 H 0.39467 0.9076 0.94336 0.0
H425 H 0.345 0.87684 0.89344 0.0
H426 H 0.37474 0.95475 0.82525 0.0
H427 H 0.42398 0.98652 0.8764 0.0
C428 C 0.33336 0.84786 0.77174 0.0
C429 C 0.30061 0.82734 0.77886 0.0
C430 C 0.34911 0.87926 0.79374 0.0
C431 C 0.33248 0.89022 0.82333 0.0
C432 C 0.29719 0.87198 0.82679 0.0
C433 C 0.28125 0.84076 0.80454 0.0
C434 C 0.38999 0.91856 0.91808 0.0
C435 C 0.41322 0.94906 0.91333 0.0
C436 C 0.36132 0.90123 0.88971 0.0
C437 C 0.35597 0.9136 0.85564 0.0
C438 C 0.37816 0.94495 0.85144 0.0
C439 C 0.40629 0.96292 0.88048 0.0
H440 H 0.37708 0.02652 0.09193 0.0
H441 H 0.44408 0.11034 0.05181 0.0
H442 H 0.34155 0.06336 0.11717 0.0
H443 H 0.41055 0.14823 0.07965 0.0
H444 H 0.33492 0.20929 0.11844 0.0
H445 H 0.35843 0.16824 0.08143 0.0
H446 H 0.34619 0.10356 0.16684 0.0
H447 H 0.32055 0.14326 0.20198 0.0
C448 C 0.38432 0.05303 0.08881 0.0
C449 C 0.41344 0.06572 0.07026 0.0
C450 C 0.36414 0.07431 0.10354 0.0
C451 C 0.37336 0.10913 0.1012 0.0
C452 C 0.4021 0.12159 0.08169 0.0
C453 C 0.42162 0.09998 0.06595 0.0
C454 C 0.33648 0.18585 0.12869 0.0
C455 C 0.32576 0.17947 0.16302 0.0
C456 C 0.35041 0.16245 0.10773 0.0
C457 C 0.3547 0.13248 0.12107 0.0
C458 C 0.34274 0.12581 0.15495 0.0
C459 C 0.32807 0.14877 0.17537 0.0
H460 H 0.07142 0.13452 0.40746 0.0
H461 H 0.12246 0.0507 0.39601 0.0
H462 H 0.11116 0.16371 0.36801 0.0
H463 H 0.16298 0.08061 0.35688 0.0
H464 H 0.25388 0.17521 0.33256 0.0
H465 H 0.21458 0.14011 0.36828 0.0
H466 H 0.11815 0.14942 0.2966 0.0
H467 H 0.15727 0.18375 0.26003 0.0
C468 C 0.09134 0.12243 0.39679 0.0
C469 C 0.09381 0.09027 0.40481 0.0
C470 C 0.11384 0.13906 0.37397 0.0
C471 C 0.13976 0.12421 0.35922 0.0
C472 C 0.14305 0.09247 0.36792 0.0
C473 C 0.11994 0.07543 0.39023 0.0
C474 C 0.2243 0.16945 0.32408 0.0
C475 C 0.20868 0.18263 0.2937 0.0
C476 C 0.2019 0.14925 0.34446 0.0
C477 C 0.16347 0.14235 0.33525 0.0
C478 C 0.14778 0.15467 0.30433 0.0
C479 C 0.17018 0.1743 0.28346 0.0
H480 H 0.85069 0.1852 0.14716 0.0
H481 H 0.79751 0.08856 0.17501 0.0
H482 H 0.87929 0.15626 0.10117 0.0
H483 H 0.82602 0.06004 0.12975 0.0
H484 H 0.84593 0.01754 0.01782 0.0
H485 H 0.8199 0.05038 0.06132 0.0
H486 H 0.92635 0.1201 0.09838 0.0
H487 H 0.95285 0.08703 0.05397 0.0
C488 C 0.84495 0.15786 0.14335 0.0
C489 C 0.82169 0.13917 0.16463 0.0
C490 C 0.86158 0.14135 0.11731 0.0
C491 C 0.85482 0.10588 0.11177 0.0
C492 C 0.83146 0.08736 0.13301 0.0
C493 C 0.81519 0.10377 0.15909 0.0
C494 C 0.86401 0.03986 0.0351 0.0
C495 C 0.90163 0.04946 0.03256 0.0
C496 C 0.84899 0.05866 0.06017 0.0
C497 C 0.87109 0.08765 0.08354 0.0
C498 C 0.90861 0.09791 0.08057 0.0
C499 C 0.92381 0.07889 0.05535 0.0
H500 H 0.04551 0.53328 0.37552 0.0
H501 H 0.09346 0.60432 0.47574 0.0
H502 H 0.0623 0.5778 0.33773 0.0
H503 H 0.10741 0.64972 0.43854 0.0
H504 H 0.18845 0.69564 0.36523 0.0
H505 H 0.15366 0.66293 0.40461 0.0
H506 H 0.0616 0.62815 0.31368 0.0
H507 H 0.0981 0.6601 0.27308 0.0
C508 C 0.05869 0.55877 0.38938 0.0
C509 C 0.06919 0.56543 0.42826 0.0
C510 C 0.06795 0.58444 0.36781 0.0
C511 C 0.08701 0.61738 0.38496 0.0
C512 C 0.094 0.62446 0.42424 0.0
C513 C 0.08593 0.59857 0.44563 0.0
C514 C 0.16058 0.68141 0.35363 0.0
C515 C 0.14634 0.67972 0.31579 0.0
C516 C 0.14023 0.66288 0.37652 0.0
C517 C 0.10475 0.64239 0.36239 0.0
C518 C 0.08916 0.64305 0.32529 0.0
C519 C 0.10987 0.66156 0.30209 0.0
H520 H 0.52176 0.89273 0.53594 0.0
H521 H 0.62112 0.96567 0.59153 0.0
H522 H 0.53528 0.85216 0.57706 0.0
H523 H 0.63461 0.92566 0.6319 0.0
H524 H 0.6431 0.86158 0.71756 0.0
H525 H 0.61241 0.89694 0.6823 0.0
H526 H 0.58406 0.81896 0.58598 0.0
H527 H 0.61422 0.78294 0.62197 0.0
C528 C 0.5461 0.90023 0.55727 0.0
C529 C 0.57048 0.93227 0.5605 0.0
C530 C 0.55394 0.87699 0.58057 0.0
C531 C 0.58591 0.88574 0.60781 0.0
C532 C 0.60945 0.91824 0.61164 0.0
C533 C 0.60188 0.94113 0.58826 0.0
C534 C 0.62965 0.85167 0.68908 0.0
C535 C 0.63157 0.81982 0.67222 0.0
C536 C 0.61214 0.87195 0.66887 0.0
C537 C 0.59656 0.86106 0.63113 0.0
C538 C 0.59581 0.82803 0.61505 0.0
C539 C 0.61312 0.80745 0.63556 0.0
H540 H 0.42509 0.41109 0.98383 0.0
H541 H 0.45968 0.42971 0.87874 0.0
H542 H 0.38819 0.35447 0.95427 0.0
H543 H 0.42446 0.37348 0.8499 0.0
H544 H 0.28413 0.30304 0.8511 0.0
H545 H 0.32982 0.341 0.90051 0.0
H546 H 0.41662 0.30982 0.85148 0.0
H547 H 0.37101 0.27235 0.80191 0.0
C548 C 0.42541 0.40279 0.95474 0.0
C549 C 0.44447 0.42488 0.93327 0.0
C550 C 0.4045 0.37049 0.93794 0.0
C551 C 0.40358 0.35962 0.89986 0.0
C552 C 0.42495 0.38097 0.87939 0.0
C553 C 0.44482 0.41333 0.89579 0.0
C554 C 0.31283 0.30361 0.85154 0.0
C555 C 0.32402 0.28587 0.82191 0.0
C556 C 0.33901 0.32504 0.88004 0.0
C557 C 0.37675 0.32883 0.87926 0.0
C558 C 0.38767 0.30775 0.8523 0.0
C559 C 0.36154 0.28652 0.8238 0.0
H560 H 0.80358 0.7776 0.35839 0.0
H561 H 0.89048 0.78847 0.29205 0.0
H562 H 0.84564 0.81627 0.41018 0.0
H563 H 0.93189 0.82707 0.34254 0.0
H564 H 0.00562 0.89949 0.42942 0.0
H565 H 0.96792 0.84342 0.4008 0.0
H566 H 0.87001 0.875 0.42186 0.0
H567 H 0.90814 0.92972 0.45269 0.0
C568 C 0.83164 0.78813 0.35495 0.0
C569 C 0.84325 0.78095 0.3207 0.0
C570 C 0.85585 0.81022 0.38462 0.0
C571 C 0.89219 0.8255 0.38055 0.0
C572 C 0.90439 0.81585 0.34723 0.0
C573 C 0.88034 0.79382 0.31784 0.0
C574 C 0.97613 0.89381 0.42885 0.0
C575 C 0.9596 0.91873 0.44279 0.0
C576 C 0.95442 0.86186 0.41223 0.0
C577 C 0.91566 0.85482 0.40783 0.0
C578 C 0.89961 0.87912 0.4247 0.0
C579 C 0.92144 0.91069 0.4422 0.0
H580 H 0.38937 0.51233 0.58784 0.0
H581 H 0.44154 0.59691 0.53777 0.0
H582 H 0.36304 0.54933 0.62664 0.0
H583 H 0.41337 0.63403 0.57513 0.0
H584 H 0.37464 0.69602 0.66874 0.0
H585 H 0.40806 0.66254 0.63332 0.0
H586 H 0.31518 0.57565 0.61894 0.0
H587 H 0.28312 0.60851 0.65573 0.0
C588 C 0.39527 0.53897 0.58527 0.0
C589 C 0.41729 0.55171 0.55968 0.0
C590 C 0.37981 0.56021 0.60719 0.0
C591 C 0.38511 0.59465 0.60341 0.0
C592 C 0.40865 0.60774 0.57896 0.0
C593 C 0.42482 0.58648 0.5575 0.0
C594 C 0.36145 0.66979 0.65773 0.0
C595 C 0.32647 0.65475 0.6653 0.0
C596 C 0.38055 0.65057 0.63738 0.0
C597 C 0.36476 0.61605 0.62378 0.0
C598 C 0.32896 0.60171 0.63002 0.0
C599 C 0.31029 0.62068 0.65082 0.0
H600 H 0.51171 0.04255 0.89888 0.0
H601 H 0.62636 0.07106 0.95033 0.0
H602 H 0.52248 0.09002 0.86372 0.0
H603 H 0.63704 0.11809 0.91506 0.0
H604 H 0.65026 0.2095 0.86728 0.0
H605 H 0.62136 0.17257 0.90819 0.0
H606 H 0.55825 0.10279 0.81167 0.0
H607 H 0.58674 0.14044 0.77073 0.0
C608 C 0.53914 0.05908 0.90288 0.0
C609 C 0.56833 0.053 0.92714 0.0
C610 C 0.5452 0.08619 0.88276 0.0
C611 C 0.58044 0.10784 0.88689 0.0
C612 C 0.60937 0.10219 0.91185 0.0
C613 C 0.60339 0.07502 0.93174 0.0
C614 C 0.62896 0.18698 0.85494 0.0
C615 C 0.6208 0.17742 0.8161 0.0
C616 C 0.6127 0.16576 0.87828 0.0
C617 C 0.58843 0.13444 0.86304 0.0
C618 C 0.57695 0.1268 0.82412 0.0
C619 C 0.59308 0.14833 0.80067 0.0
H620 H 0.0193 0.3723 0.06855 0.0
H621 H 0.12375 0.44629 0.08395 0.0
H622 H 0.04815 0.33768 0.10823 0.0
H623 H 0.1519 0.41217 0.12304 0.0
H624 H 0.17845 0.36933 0.22679 0.0
H625 H 0.14079 0.39672 0.18782 0.0
H626 H 0.10404 0.30573 0.10711 0.0
H627 H 0.14209 0.2777 0.14659 0.0
C628 C 0.04824 0.38114 0.08036 0.0
C629 C 0.06922 0.41207 0.07332 0.0
C630 C 0.0647 0.36129 0.10277 0.0
C631 C 0.10208 0.37251 0.11882 0.0
C632 C 0.12292 0.40317 0.11134 0.0
C633 C 0.10676 0.42264 0.0888 0.0
C634 C 0.16226 0.35492 0.20089 0.0
C635 C 0.16383 0.32155 0.18938 0.0
C636 C 0.1406 0.37064 0.17866 0.0
C637 C 0.11997 0.35344 0.14435 0.0
C638 C 0.11974 0.31944 0.13356 0.0
C639 C 0.14162 0.30354 0.15597 0.0
H640 H 0.60735 0.63065 0.93277 0.0
H641 H 0.54507 0.54716 0.84905 0.0
H642 H 0.64351 0.6533 0.88664 0.0
H643 H 0.58077 0.57043 0.80264 0.0
H644 H 0.61944 0.66377 0.73404 0.0
H645 H 0.58594 0.63013 0.77546 0.0
H646 H 0.68873 0.63236 0.84424 0.0
H647 H 0.72235 0.66521 0.80293 0.0
C648 C 0.60162 0.61705 0.9046 0.0
C649 C 0.57347 0.58721 0.89444 0.0
C650 C 0.62233 0.62991 0.8783 0.0
C651 C 0.61475 0.61356 0.84121 0.0
C652 C 0.58698 0.58345 0.83109 0.0
C653 C 0.56679 0.57013 0.85765 0.0
C654 C 0.63492 0.65648 0.75752 0.0
C655 C 0.67355 0.66754 0.76536 0.0
C656 C 0.61576 0.63719 0.78112 0.0
C657 C 0.63489 0.62906 0.8131 0.0
C658 C 0.67344 0.63861 0.81988 0.0
C659 C 0.6926 0.65737 0.7961 0.0
H660 H 0.61243 0.26193 0.11753 0.0
H661 H 0.70624 0.34072 0.17493 0.0
H662 H 0.58922 0.30339 0.08498 0.0
H663 H 0.68365 0.38186 0.14164 0.0
H664 H 0.59753 0.44523 0.13334 0.0
H665 H 0.63217 0.40519 0.1514 0.0
H666 H 0.59509 0.34535 0.04201 0.0
H667 H 0.55942 0.38546 0.02399 0.0
C668 C 0.6286 0.28789 0.12241 0.0
C669 C 0.66066 0.29825 0.1494 0.0
C670 C 0.61542 0.31163 0.1036 0.0
C671 C 0.63427 0.34601 0.11132 0.0
C672 C 0.66807 0.35569 0.13579 0.0
C673 C 0.68104 0.33209 0.15478 0.0
C674 C 0.59706 0.4238 0.11289 0.0
C675 C 0.57547 0.41834 0.07736 0.0
C676 C 0.61726 0.40096 0.12314 0.0
C677 C 0.61647 0.3721 0.09809 0.0
C678 C 0.596 0.36724 0.06198 0.0
C679 C 0.57573 0.39025 0.05164 0.0
H680 H 0.93735 0.39584 0.42611 0.0
H681 H 0.90755 0.48311 0.38719 0.0
H682 H 0.89569 0.35933 0.37358 0.0
H683 H 0.86452 0.44553 0.33438 0.0
H684 H 0.76796 0.32304 0.30542 0.0
H685 H 0.80355 0.37686 0.34209 0.0
H686 H 0.89753 0.36775 0.29057 0.0
H687 H 0.86172 0.31436 0.25315 0.0
C688 C 0.92204 0.40733 0.40631 0.0
C689 C 0.92625 0.44248 0.41053 0.0
C690 C 0.89816 0.38635 0.3763 0.0
C691 C 0.87759 0.39987 0.34999 0.0
C692 C 0.88055 0.43481 0.35439 0.0
C693 C 0.90496 0.45611 0.38454 0.0
C694 C 0.79545 0.33351 0.30034 0.0
C695 C 0.8121 0.31462 0.27657 0.0
C696 C 0.8158 0.36425 0.32133 0.0
C697 C 0.85303 0.37626 0.3188 0.0
C698 C 0.86867 0.359 0.29251 0.0
C699 C 0.84834 0.32834 0.27151 0.0
H700 H 0.61304 0.57785 0.49788 0.0
H701 H 0.52929 0.54871 0.39928 0.0
H702 H 0.65398 0.61286 0.46311 0.0
H703 H 0.5699 0.58344 0.36499 0.0
H704 H 0.6634 0.61696 0.3024 0.0
H705 H 0.62763 0.58235 0.34084 0.0
H706 H 0.65909 0.66541 0.43188 0.0
H707 H 0.69527 0.70032 0.3933 0.0
C708 C 0.60327 0.57897 0.46892 0.0
C709 C 0.56779 0.56037 0.45145 0.0
C710 C 0.62671 0.59911 0.44906 0.0
C711 C 0.61533 0.60073 0.41119 0.0
C712 C 0.57978 0.58237 0.39394 0.0
C713 C 0.55634 0.56259 0.41377 0.0
C714 C 0.66308 0.62788 0.33072 0.0
C715 C 0.68205 0.66158 0.3446 0.0
C716 C 0.64234 0.60803 0.3527 0.0
C717 C 0.6401 0.62123 0.38928 0.0
C718 C 0.66032 0.65446 0.40384 0.0
C719 C 0.68096 0.67448 0.38168 0.0
H720 H 0.82445 0.32827 0.792 0.0
H721 H 0.74687 0.30706 0.86764 0.0
H722 H 0.8536 0.38258 0.82989 0.0
H723 H 0.77641 0.36173 0.90644 0.0
H724 H 0.90686 0.47627 0.89718 0.0
H725 H 0.8518 0.4393 0.85818 0.0
H726 H 0.83764 0.377 0.94533 0.0
H727 H 0.89195 0.41414 0.98449 0.0
C728 C 0.81292 0.33588 0.8161 0.0
C729 C 0.78366 0.31371 0.82699 0.0
C730 C 0.82945 0.36705 0.83782 0.0
C731 C 0.81718 0.37647 0.87113 0.0
C732 C 0.78648 0.35498 0.88099 0.0
C733 C 0.76991 0.32369 0.8591 0.0
C734 C 0.89151 0.45507 0.90829 0.0
C735 C 0.90455 0.4471 0.94316 0.0
C736 C 0.85988 0.43411 0.88607 0.0
C737 C 0.84111 0.40481 0.89834 0.0
C738 C 0.85159 0.39932 0.93502 0.0
C739 C 0.8831 0.42034 0.95728 0.0
H740 H 0.80521 0.80103 0.1095 0.0
H741 H 0.90926 0.8349 0.18444 0.0
H742 H 0.82744 0.84276 0.06944 0.0
H743 H 0.93128 0.87589 0.14471 0.0
H744 H 0.95009 0.96795 0.08986 0.0
H745 H 0.91968 0.92819 0.12683 0.0
H746 H 0.8749 0.85524 0.02724 0.0
H747 H 0.90518 0.8957 0.98968 0.0
C748 C 0.83269 0.81741 0.1175 0.0
C749 C 0.85544 0.81464 0.1502 0.0
C750 C 0.84548 0.84113 0.09445 0.0
C751 C 0.88106 0.86281 0.10397 0.0
C752 C 0.90354 0.86001 0.13679 0.0
C753 C 0.89096 0.83627 0.1595 0.0
C754 C 0.93357 0.94355 0.07563 0.0
C755 C 0.93055 0.93484 0.03682 0.0
C756 C 0.91619 0.92067 0.09693 0.0
C757 C 0.8954 0.88828 0.08014 0.0
C758 C 0.89071 0.88003 0.04103 0.0
C759 C 0.90812 0.90314 0.01953 0.0
H760 H 0.82212 0.16835 0.81515 0.0
H761 H 0.73259 0.07827 0.78925 0.0
H762 H 0.86424 0.1349 0.83494 0.0
H763 H 0.77531 0.04433 0.8081 0.0
H764 H 0.85471 0.00944 0.897 0.0
H765 H 0.80973 0.03513 0.86477 0.0
H766 H 0.89535 0.09393 0.81482 0.0
H767 H 0.94033 0.06921 0.84811 0.0
C768 C 0.8115 0.14127 0.8131 0.0
C769 C 0.77393 0.12602 0.80082 0.0
C770 C 0.83579 0.12196 0.8242 0.0
C771 C 0.82325 0.08681 0.82301 0.0
C772 C 0.7858 0.07138 0.80975 0.0
C773 C 0.76137 0.0908 0.7988 0.0
C774 C 0.86369 0.02729 0.87846 0.0
C775 C 0.90108 0.03765 0.87541 0.0
C776 C 0.83791 0.042 0.85991 0.0
C777 C 0.84904 0.06709 0.83771 0.0
C778 C 0.88599 0.07538 0.83248 0.0
C779 C 0.91174 0.06102 0.85133 0.0
H780 H 0.75878 0.17033 0.65726 0.0
H781 H 0.67582 0.16525 0.72796 0.0
H782 H 0.72496 0.11558 0.62192 0.0
H783 H 0.64098 0.11186 0.69183 0.0
H784 H 0.61997 0.0802 0.5305 0.0
H785 H 0.67203 0.11029 0.57754 0.0
H786 H 0.62392 0.05588 0.66068 0.0
H787 H 0.57078 0.02667 0.61337 0.0
C788 C 0.73374 0.1571 0.66581 0.0
C789 C 0.71898 0.17256 0.69428 0.0
C790 C 0.71428 0.12581 0.64551 0.0
C791 C 0.67933 0.11011 0.65279 0.0
C792 C 0.6675 0.12329 0.68491 0.0
C793 C 0.68734 0.15422 0.7056 0.0
C794 C 0.62069 0.07442 0.55873 0.0
C795 C 0.59083 0.05203 0.56857 0.0
C796 C 0.6509 0.09128 0.58575 0.0
C797 C 0.65215 0.08582 0.6232 0.0
C798 C 0.62352 0.06125 0.63233 0.0
C799 C 0.59299 0.04471 0.60531 0.0
H800 H 0.58467 0.95179 0.34195 0.0
H801 H 0.62458 0.94392 0.45627 0.0
H802 H 0.62621 0.91883 0.32074 0.0
H803 H 0.66414 0.90976 0.4353 0.0
H804 H 0.7469 0.86125 0.39398 0.0
H805 H 0.71599 0.90559 0.40976 0.0
H806 H 0.63035 0.86265 0.31435 0.0
H807 H 0.66242 0.81975 0.29756 0.0
C808 C 0.60243 0.94321 0.36252 0.0
C809 C 0.60121 0.95038 0.40073 0.0
C810 C 0.62605 0.92409 0.3504 0.0
C811 C 0.6485 0.91136 0.37624 0.0
C812 C 0.64795 0.91956 0.4145 0.0
C813 C 0.6249 0.93904 0.42658 0.0
C814 C 0.72174 0.86165 0.37615 0.0
C815 C 0.70693 0.83689 0.34474 0.0
C816 C 0.70385 0.88693 0.38528 0.0
C817 C 0.67032 0.88757 0.36364 0.0
C818 C 0.65631 0.86341 0.33144 0.0
C819 C 0.67458 0.83855 0.32194 0.0
H820 H 0.79574 0.129 0.31143 0.0
H821 H 0.87391 0.21674 0.37659 0.0
H822 H 0.82346 0.09238 0.34781 0.0
H823 H 0.90139 0.17995 0.41319 0.0
H824 H 0.97307 0.10175 0.41528 0.0
H825 H 0.93861 0.14058 0.39268 0.0
H826 H 0.83777 0.07503 0.41097 0.0
H827 H 0.87251 0.0357 0.43378 0.0
C828 C 0.81837 0.14052 0.334 0.0
C829 C 0.83303 0.17575 0.34075 0.0
C830 C 0.83405 0.11952 0.355 0.0
C831 C 0.86479 0.13333 0.38303 0.0
C832 C 0.87797 0.16865 0.39138 0.0
C833 C 0.86215 0.1897 0.37051 0.0
C834 C 0.94358 0.09561 0.41474 0.0
C835 C 0.92543 0.0655 0.42601 0.0
C836 C 0.92389 0.11809 0.40216 0.0
C837 C 0.88555 0.11091 0.40027 0.0
C838 C 0.86734 0.0811 0.41212 0.0
C839 C 0.88718 0.05867 0.42517 0.0
H840 H 0.63254 0.151 0.22817 0.0
H841 H 0.73213 0.15752 0.18135 0.0
H842 H 0.60369 0.09798 0.18617 0.0
H843 H 0.70356 0.1046 0.13958 0.0
H844 H 0.60223 0.07099 0.03492 0.0
H845 H 0.64691 0.10541 0.08736 0.0
H846 H 0.60791 0.03389 0.15969 0.0
H847 H 0.56382 -0.00148 0.10638 0.0
C848 C 0.64865 0.14047 0.20981 0.0
C849 C 0.68461 0.15822 0.20795 0.0
C850 C 0.63231 0.11003 0.18609 0.0
C851 C 0.65149 0.09735 0.15972 0.0
C852 C 0.68835 0.11378 0.15988 0.0
C853 C 0.70479 0.14392 0.18392 0.0
C854 C 0.60402 0.06216 0.06178 0.0
C855 C 0.57967 0.03242 0.06693 0.0
C856 C 0.62968 0.08165 0.09168 0.0
C857 C 0.63073 0.07221 0.12745 0.0
C858 C 0.60763 0.04151 0.13226 0.0
C859 C 0.58257 0.02139 0.10193 0.0
H860 H 0.63071 0.76017 0.84009 0.0
H861 H 0.69541 0.84287 0.79591 0.0
H862 H 0.60529 0.79993 0.87674 0.0
H863 H 0.66994 0.88264 0.83264 0.0
H864 H 0.56933 0.92635 0.85033 0.0
H865 H 0.60584 0.8906 0.82452 0.0
H866 H 0.61795 0.84964 0.92784 0.0
H867 H 0.58116 0.88557 0.95391 0.0
C868 C 0.6402 0.78694 0.83893 0.0
C869 C 0.66486 0.79834 0.8149 0.0
C870 C 0.6257 0.80971 0.86001 0.0
C871 C 0.63525 0.84434 0.85717 0.0
C872 C 0.66172 0.85601 0.83499 0.0
C873 C 0.67658 0.83327 0.81423 0.0
C874 C 0.57983 0.90985 0.86769 0.0
C875 C 0.57216 0.90873 0.90415 0.0
C876 C 0.6011 0.88959 0.85298 0.0
C877 C 0.61502 0.8675 0.87425 0.0
C878 C 0.60753 0.8664 0.91079 0.0
C879 C 0.58649 0.88697 0.92569 0.0
H880 H 0.88276 0.85715 0.52976 0.0
H881 H 0.9264 0.93876 0.62166 0.0
H882 H 0.84148 0.82753 0.56786 0.0
H883 H 0.88521 0.90892 0.65985 0.0
H884 H 0.8415 0.81912 0.72459 0.0
H885 H 0.87999 0.85365 0.68762 0.0
H886 H 0.78717 0.83542 0.59869 0.0
H887 H 0.74867 0.80111 0.63533 0.0
C888 C 0.88332 0.86884 0.558 0.0
C889 C 0.90778 0.90022 0.57277 0.0
C890 C 0.85963 0.85198 0.57973 0.0
C891 C 0.8603 0.86594 0.6168 0.0
C892 C 0.88438 0.89753 0.63143 0.0
C893 C 0.90769 0.91467 0.60949 0.0
C894 C 0.82924 0.82271 0.6973 0.0
C895 C 0.79208 0.80717 0.68285 0.0
C896 C 0.85122 0.84258 0.67624 0.0
C897 C 0.83652 0.84702 0.64027 0.0
C898 C 0.79926 0.83209 0.62618 0.0
C899 C 0.77723 0.81253 0.64728 0.0
H900 H 0.1369 0.86788 0.78324 0.0
H901 H 0.16299 0.80302 0.86258 0.0
H902 H 0.10598 0.89496 0.82734 0.0
H903 H 0.13168 0.83039 0.90702 0.0
H904 H 0.12436 0.92616 0.98714 0.0
H905 H 0.14565 0.88866 0.94344 0.0
H906 H 0.05136 0.88468 0.8605 0.0
H907 H 0.02981 0.92238 0.90471 0.0
C908 C 0.13585 0.8592 0.81005 0.0
C909 C 0.15271 0.83341 0.81947 0.0
C910 C 0.11773 0.87455 0.8352 0.0
C911 C 0.11622 0.86475 0.8706 0.0
C912 C 0.13252 0.83856 0.87994 0.0
C913 C 0.15041 0.82288 0.85452 0.0
C914 C 0.10789 0.91695 0.95972 0.0
C915 C 0.07561 0.92743 0.94915 0.0
C916 C 0.11995 0.89522 0.9348 0.0
C917 C 0.10031 0.88382 0.89847 0.0
C918 C 0.06721 0.89328 0.88828 0.0
C919 C 0.05476 0.91467 0.91356 0.0
H920 H 0.88403 0.39785 0.52362 0.0
H921 H 0.97952 0.46106 0.59828 0.0
H922 H 0.87191 0.36182 0.57135 0.0
H923 H 0.96705 0.42504 0.64619 0.0
H924 H 0.87488 0.39129 0.72374 0.0
H925 H 0.91122 0.41911 0.68075 0.0
H926 H 0.89749 0.32267 0.6126 0.0
H927 H 0.86145 0.29467 0.65573 0.0
C928 C 0.90274 0.4037 0.54999 0.0
C929 C 0.93234 0.43249 0.55746 0.0
C930 C 0.89606 0.38289 0.57715 0.0
C931 C 0.91861 0.39075 0.61239 0.0
C932 C 0.94932 0.41854 0.61921 0.0
C933 C 0.95634 0.43909 0.59183 0.0
C934 C 0.88067 0.3759 0.70029 0.0
C935 C 0.86462 0.34097 0.69257 0.0
C936 C 0.90164 0.39179 0.6758 0.0
C937 C 0.90651 0.373 0.64311 0.0
C938 C 0.89371 0.33767 0.63746 0.0
C939 C 0.87318 0.3217 0.66223 0.0
H940 H 0.478 0.11276 0.46467 0.0
H941 H 0.4148 0.02584 0.38633 0.0
H942 H 0.45447 0.15015 0.42504 0.0
H943 H 0.39287 0.06274 0.34598 0.0
H944 H 0.31282 0.12598 0.32212 0.0
H945 H 0.34784 0.09371 0.35641 0.0
H946 H 0.44682 0.17336 0.36513 0.0
H947 H 0.41092 0.20662 0.33087 0.0
C948 C 0.46024 0.10181 0.43828 0.0
C949 C 0.44778 0.06656 0.42858 0.0
C950 C 0.44675 0.12314 0.41562 0.0
C951 C 0.42102 0.10935 0.38287 0.0
C952 C 0.41172 0.07414 0.37161 0.0
C953 C 0.42452 0.05298 0.39449 0.0
C954 C 0.34206 0.13677 0.33115 0.0
C955 C 0.35915 0.16874 0.3234 0.0
C956 C 0.36229 0.11806 0.35063 0.0
C957 C 0.40037 0.13054 0.36272 0.0
C958 C 0.41754 0.16299 0.35596 0.0
C959 C 0.39705 0.18198 0.3364 0.0
H960 H 0.53284 0.56527 0.10921 0.0
H961 H 0.57845 0.58578 0.00988 0.0
H962 H 0.57415 0.61677 0.14397 0.0
H963 H 0.62001 0.63836 0.04474 0.0
H964 H 0.63557 0.71439 0.20062 0.0
H965 H 0.58909 0.67813 0.15124 0.0
H966 H 0.6745 0.65128 0.09578 0.0
H967 H 0.72123 0.68945 0.14428 0.0
C968 C 0.55131 0.58128 0.09464 0.0
C969 C 0.55231 0.57177 0.05684 0.0
C970 C 0.57479 0.61101 0.11445 0.0
C971 C 0.60022 0.6319 0.09707 0.0
C972 C 0.60065 0.62284 0.05886 0.0
C973 C 0.57666 0.59304 0.03882 0.0
C974 C 0.64452 0.70125 0.17756 0.0
C975 C 0.68207 0.70339 0.17726 0.0
C976 C 0.61786 0.68048 0.14925 0.0
C977 C 0.62809 0.66088 0.12035 0.0
C978 C 0.66569 0.66577 0.11788 0.0
C979 C 0.69248 0.6872 0.14597 0.0
H980 H 0.2142 0.19295 0.65762 0.0
H981 H 0.12008 0.22566 0.68747 0.0
H982 H 0.17408 0.15056 0.60786 0.0
H983 H 0.07984 0.18326 0.63797 0.0
H984 H 0.03112 0.06578 0.60847 0.0
H985 H 0.06831 0.12005 0.64173 0.0
H986 H 0.12436 0.13588 0.54747 0.0
H987 H 0.08661 0.08121 0.51376 0.0
C988 C 0.18519 0.19191 0.65258 0.0
C989 C 0.17026 0.21216 0.67665 0.0
C990 C 0.16216 0.16765 0.62415 0.0
C991 C 0.12381 0.16329 0.61957 0.0
C992 C 0.10928 0.18576 0.64137 0.0
C993 C 0.1323 0.20996 0.66969 0.0
C994 C 0.0511 0.08094 0.59466 0.0
C995 C 0.05602 0.0693 0.55859 0.0
C996 C 0.07213 0.11218 0.61353 0.0
C997 C 0.09898 0.13228 0.59702 0.0
C998 C 0.10371 0.1209 0.56071 0.0
C999 C 0.08209 0.08977 0.54147 0.0
H1000 H 0.62437 0.29147 0.32208 0.0
H1001 H 0.71275 0.38092 0.33115 0.0
H1002 H 0.59119 0.32379 0.35926 0.0
H1003 H 0.68109 0.4127 0.36981 0.0
H1004 H 0.60515 0.47372 0.402 0.0
H1005 H 0.63193 0.43725 0.36308 0.0
H1006 H 0.58591 0.3528 0.41719 0.0
H1007 H 0.55717 0.38943 0.45472 0.0
C1008 C 0.63704 0.31786 0.33275 0.0
C1009 C 0.67094 0.33379 0.32342 0.0
C1010 C 0.61805 0.33644 0.35408 0.0
C1011 C 0.6329 0.37122 0.36696 0.0
C1012 C 0.66792 0.38639 0.35929 0.0
C1013 C 0.68641 0.36806 0.33746 0.0
C1014 C 0.60015 0.44718 0.40499 0.0
C1015 C 0.57911 0.43438 0.43129 0.0
C1016 C 0.61598 0.42628 0.38308 0.0
C1017 C 0.61215 0.39212 0.38759 0.0
C1018 C 0.58952 0.37889 0.41278 0.0
C1019 C 0.57293 0.39981 0.43426 0.0
H1020 H 0.48245 0.9349 0.08011 0.0
H1021 H 0.36907 0.90511 0.02473 0.0
H1022 H 0.47017 0.88876 0.11698 0.0
H1023 H 0.3568 0.85958 0.06171 0.0
H1024 H 0.33894 0.77251 0.11643 0.0
H1025 H 0.37002 0.80597 0.07383 0.0
H1026 H 0.4334 0.87878 0.16789 0.0
H1027 H 0.4029 0.84441 0.21049 0.0
C1028 C 0.45502 0.91831 0.07555 0.0
C1029 C 0.42657 0.92378 0.04981 0.0
C1030 C 0.44807 0.89196 0.09666 0.0
C1031 C 0.41265 0.87048 0.09211 0.0
C1032 C 0.38461 0.87529 0.06538 0.0
C1033 C 0.39149 0.90165 0.04447 0.0
C1034 C 0.36082 0.79485 0.12792 0.0
C1035 C 0.36867 0.80617 0.16644 0.0
C1036 C 0.37831 0.81414 0.10361 0.0
C1037 C 0.40335 0.84539 0.11752 0.0
C1038 C 0.41422 0.85476 0.15639 0.0
C1039 C 0.39692 0.83513 0.18081 0.0
H1040 H 0.98183 0.62067 0.91593 0.0
H1041 H 0.87536 0.55055 0.90497 0.0
H1042 H 0.95466 0.6538 0.87293 0.0
H1043 H 0.84884 0.58315 0.86252 0.0
H1044 H 0.82264 0.62104 0.75545 0.0
H1045 H 0.85907 0.59412 0.79645 0.0
H1046 H 0.90171 0.68854 0.87094 0.0
H1047 H 0.86486 0.71602 0.82949 0.0
C1048 C 0.95278 0.61236 0.9044 0.0
C1049 C 0.93076 0.58295 0.91372 0.0
C1050 C 0.93728 0.63136 0.88003 0.0
C1051 C 0.89978 0.62079 0.86424 0.0
C1052 C 0.87792 0.59163 0.87393 0.0
C1053 C 0.89315 0.57304 0.89843 0.0
C1054 C 0.83996 0.63631 0.78035 0.0
C1055 C 0.84031 0.67054 0.78959 0.0
C1056 C 0.86087 0.62083 0.80379 0.0
C1057 C 0.88274 0.63915 0.83705 0.0
C1058 C 0.88504 0.67391 0.84537 0.0
C1059 C 0.86388 0.68954 0.82178 0.0
H1060 H 0.35241 0.41595 0.06401 0.0
H1061 H 0.45906 0.44031 0.13431 0.0
H1062 H 0.32544 0.3854 0.11116 0.0
H1063 H 0.43209 0.41077 0.18169 0.0
H1064 H 0.38115 0.31316 0.22699 0.0
H1065 H 0.40872 0.35294 0.18826 0.0
H1066 H 0.30955 0.38866 0.17302 0.0
H1067 H 0.28159 0.34827 0.21107 0.0
C1068 C 0.36994 0.41531 0.08978 0.0
C1069 C 0.40791 0.43017 0.0952 0.0
C1070 C 0.35449 0.39794 0.11692 0.0
C1071 C 0.37669 0.39532 0.15013 0.0
C1072 C 0.41433 0.41164 0.15616 0.0
C1073 C 0.42976 0.42872 0.12901 0.0
C1074 C 0.36545 0.32993 0.21603 0.0
C1075 C 0.32903 0.32725 0.22193 0.0
C1076 C 0.3813 0.35286 0.19381 0.0
C1077 C 0.3612 0.3738 0.17713 0.0
C1078 C 0.32553 0.37245 0.18479 0.0
C1079 C 0.30963 0.34945 0.20691 0.0
H1080 H 0.35071 0.54189 0.91799 0.0
H1081 H 0.45181 0.62046 0.93566 0.0
H1082 H 0.31681 0.58096 0.89371 0.0
H1083 H 0.41828 0.65898 0.91069 0.0
H1084 H 0.35091 0.72918 0.87946 0.0
H1085 H 0.37358 0.69137 0.91826 0.0
H1086 H 0.31317 0.60543 0.83662 0.0
H1087 H 0.28972 0.64304 0.79843 0.0
C1088 C 0.36563 0.56758 0.91715 0.0
C1089 C 0.404 0.57797 0.92843 0.0
C1090 C 0.34623 0.5899 0.90306 0.0
C1091 C 0.36483 0.62305 0.90006 0.0
C1092 C 0.40294 0.63381 0.91305 0.0
C1093 C 0.42226 0.61158 0.92712 0.0
C1094 C 0.34187 0.70217 0.87016 0.0
C1095 C 0.31896 0.68917 0.83559 0.0
C1096 C 0.35502 0.68051 0.89231 0.0
C1097 C 0.34567 0.64542 0.88028 0.0
C1098 C 0.32076 0.63229 0.8469 0.0
C1099 C 0.30747 0.65392 0.82484 0.0
H1100 H 0.07962 0.50781 0.60117 0.0
H1101 H 0.08283 0.59361 0.54233 0.0
H1102 H 0.12632 0.54375 0.65224 0.0
H1103 H 0.12984 0.62871 0.59222 0.0
H1104 H 0.23222 0.67736 0.66502 0.0
H1105 H 0.20056 0.62514 0.62396 0.0
H1106 H 0.11902 0.60574 0.69583 0.0
H1107 H 0.15111 0.6581 0.73774 0.0
C1108 C 0.09073 0.53412 0.59894 0.0
C1109 C 0.07764 0.5481 0.56801 0.0
C1110 C 0.11729 0.5545 0.628 0.0
C1111 C 0.13174 0.58869 0.62568 0.0
C1112 C 0.11938 0.60224 0.59426 0.0
C1113 C 0.09233 0.58226 0.5659 0.0
C1114 C 0.20858 0.66129 0.67317 0.0
C1115 C 0.19383 0.67205 0.70433 0.0
C1116 C 0.19048 0.63139 0.64957 0.0
C1117 C 0.1573 0.61185 0.65669 0.0
C1118 C 0.14473 0.62046 0.68999 0.0
C1119 C 0.16287 0.65053 0.71369 0.0
H1120 H 0.29653 0.32005 0.62192 0.0
H1121 H 0.40105 0.29825 0.65817 0.0
H1122 H 0.32677 0.3613 0.58518 0.0
H1123 H 0.43079 0.33884 0.62162 0.0
H1124 H 0.47995 0.44204 0.59291 0.0
H1125 H 0.44624 0.40053 0.62591 0.0
H1126 H 0.36026 0.36658 0.52966 0.0
H1127 H 0.39425 0.40865 0.49619 0.0
C1128 C 0.32582 0.32389 0.62194 0.0
C1129 C 0.34636 0.30598 0.64329 0.0
C1130 C 0.3431 0.34739 0.60075 0.0
C1131 C 0.38129 0.35363 0.60074 0.0
C1132 C 0.40148 0.33515 0.62148 0.0
C1133 C 0.3843 0.31168 0.64236 0.0
C1134 C 0.45388 0.42581 0.57856 0.0
C1135 C 0.44004 0.42861 0.54166 0.0
C1136 C 0.43457 0.40183 0.59754 0.0
C1137 C 0.40066 0.37996 0.58037 0.0
C1138 C 0.38625 0.38313 0.54374 0.0
C1139 C 0.40582 0.4071 0.5245 0.0
H1140 H 0.25118 0.6824 0.1249 0.0
H1141 H 0.18848 0.65596 0.21205 0.0
H1142 H 0.21903 0.62878 0.08615 0.0
H1143 H 0.15443 0.60339 0.17261 0.0
H1144 H 0.10362 0.58393 0.01327 0.0
H1145 H 0.15847 0.61829 0.05373 0.0
H1146 H 0.14344 0.54976 0.13507 0.0
H1147 H 0.08739 0.51593 0.09486 0.0
C1148 C 0.23073 0.66481 0.13583 0.0
C1149 C 0.22113 0.67354 0.17068 0.0
C1150 C 0.21235 0.63417 0.11373 0.0
C1151 C 0.18317 0.61242 0.12564 0.0
C1152 C 0.1766 0.61956 0.16237 0.0
C1153 C 0.19578 0.64986 0.18491 0.0
C1154 C 0.11228 0.57589 0.03951 0.0
C1155 C 0.09066 0.54787 0.05136 0.0
C1156 C 0.14413 0.59535 0.06263 0.0
C1157 C 0.15521 0.58702 0.09798 0.0
C1158 C 0.13524 0.55725 0.10839 0.0
C1159 C 0.10311 0.53794 0.08536 0.0
H1160 H 0.63537 0.28339 0.64528 0.0
H1161 H 0.73013 0.36596 0.69083 0.0
H1162 H 0.60274 0.32311 0.62148 0.0
H1163 H 0.69692 0.40599 0.66803 0.0
H1164 H 0.63902 0.4574 0.57756 0.0
H1165 H 0.67436 0.42332 0.61039 0.0
H1166 H 0.57448 0.36656 0.64118 0.0
H1167 H 0.53935 0.39957 0.6072 0.0
C1168 C 0.64908 0.31008 0.65057 0.0
C1169 C 0.68531 0.3215 0.66986 0.0
C1170 C 0.63028 0.33294 0.63718 0.0
C1171 C 0.64712 0.36783 0.64311 0.0
C1172 C 0.6833 0.37929 0.6627 0.0
C1173 C 0.70223 0.35635 0.67589 0.0
C1174 C 0.62492 0.43807 0.59203 0.0
C1175 C 0.58653 0.43071 0.58952 0.0
C1176 C 0.64507 0.41854 0.61084 0.0
C1177 C 0.62708 0.39171 0.62773 0.0
C1178 C 0.58902 0.3863 0.6275 0.0
C1179 C 0.56894 0.40538 0.60832 0.0
H1180 H 0.87518 0.6763 0.19951 0.0
H1181 H 0.78499 0.61173 0.11945 0.0
H1182 H 0.91778 0.64746 0.17396 0.0
H1183 H 0.82798 0.58357 0.0927 0.0
H1184 H 0.91253 0.52868 0.06073 0.0
H1185 H 0.87084 0.54841 0.09847 0.0
H1186 H 0.94293 0.64905 0.11823 0.0
H1187 H 0.98485 0.6292 0.08181 0.0
C1188 C 0.86443 0.65572 0.17655 0.0
C1189 C 0.82685 0.64656 0.16112 0.0
C1190 C 0.88889 0.6393 0.16178 0.0
C1191 C 0.87647 0.61364 0.13081 0.0
C1192 C 0.83848 0.6031 0.11671 0.0
C1193 C 0.81383 0.61931 0.1319 0.0
C1194 C 0.91975 0.55487 0.07376 0.0
C1195 C 0.95194 0.57742 0.06816 0.0
C1196 C 0.89571 0.56622 0.09512 0.0
C1197 C 0.90341 0.60033 0.11129 0.0
C1198 C 0.93633 0.62248 0.10675 0.0
C1199 C 0.96034 0.61114 0.08559 0.0
H1200 H 0.91811 0.60364 0.51883 0.0
H1201 H 0.89862 0.54813 0.61069 0.0
H1202 H 0.88276 0.64253 0.54179 0.0
H1203 H 0.86341 0.58664 0.6333 0.0
H1204 H 0.77815 0.64405 0.65013 0.0
H1205 H 0.80458 0.60411 0.61497 0.0
H1206 H 0.89275 0.68644 0.59992 0.0
H1207 H 0.86638 0.72647 0.63507 0.0
C1208 C 0.90601 0.59955 0.54365 0.0
C1209 C 0.91129 0.57291 0.56304 0.0
C1210 C 0.8859 0.62184 0.55682 0.0
C1211 C 0.87017 0.6175 0.58921 0.0
C1212 C 0.87474 0.59036 0.60797 0.0
C1213 C 0.8952 0.56846 0.59517 0.0
C1214 C 0.80266 0.65376 0.63856 0.0
C1215 C 0.82033 0.68843 0.64564 0.0
C1216 C 0.81794 0.63084 0.61867 0.0
C1217 C 0.85093 0.64213 0.60506 0.0
C1218 C 0.86722 0.67701 0.60992 0.0
C1219 C 0.85217 0.69991 0.63018 0.0
H1220 H 0.35709 0.51553 0.41461 0.0
H1221 H 0.4327 0.53739 0.33677 0.0
H1222 H 0.31704 0.54594 0.38258 0.0
H1223 H 0.39246 0.5677 0.30474 0.0
H1224 H 0.34227 0.66161 0.30373 0.0
H1225 H 0.37778 0.6229 0.32557 0.0
H1226 H 0.27709 0.54672 0.32193 0.0
H1227 H 0.24141 0.58544 0.3001 0.0
C1228 C 0.36482 0.52624 0.39024 0.0
C1229 C 0.39827 0.52433 0.37847 0.0
C1230 C 0.3418 0.54356 0.37182 0.0
C1231 C 0.35188 0.55949 0.34144 0.0
C1232 C 0.38431 0.55603 0.32842 0.0
C1233 C 0.40719 0.53847 0.34663 0.0
C1234 C 0.3277 0.63652 0.30728 0.0
C1235 C 0.28905 0.62664 0.30033 0.0
C1236 C 0.34804 0.61427 0.31952 0.0
C1237 C 0.33017 0.58179 0.32537 0.0
C1238 C 0.29154 0.57168 0.31783 0.0
C1239 C 0.27118 0.59382 0.30521 0.0
H1240 H 0.12826 0.31323 0.8085 0.0
H1241 H 0.22098 0.38077 0.88238 0.0
H1242 H 0.08787 0.34654 0.82973 0.0
H1243 H 0.18138 0.4165 0.90135 0.0
H1244 H 0.09588 0.443 0.96751 0.0
H1245 H 0.13964 0.41884 0.93885 0.0
H1246 H 0.0631 0.39127 0.83443 0.0
H1247 H 0.01783 0.41288 0.8649 0.0
C1248 C 0.14017 0.33598 0.82849 0.0
C1249 C 0.17765 0.34432 0.84407 0.0
C1250 C 0.11698 0.35542 0.84057 0.0
C1251 C 0.13089 0.38438 0.86777 0.0
C1252 C 0.1691 0.39387 0.88139 0.0
C1253 C 0.19206 0.37366 0.87023 0.0
C1254 C 0.08857 0.43217 0.93827 0.0
C1255 C 0.05334 0.42963 0.91848 0.0
C1256 C 0.11395 0.41843 0.92153 0.0
C1257 C 0.10528 0.40264 0.88407 0.0
C1258 C 0.07068 0.40217 0.8636 0.0
C1259 C 0.04476 0.41494 0.88084 0.0
H1260 H 0.21216 0.32204 0.35718 0.0
H1261 H 0.10615 0.27046 0.29187 0.0
H1262 H 0.18198 0.35499 0.39737 0.0
H1263 H 0.07649 0.30404 0.33033 0.0
H1264 H 0.02539 0.3472 0.41982 0.0
H1265 H 0.05951 0.31226 0.3889 0.0
H1266 H 0.15087 0.39957 0.39759 0.0
H1267 H 0.11703 0.43442 0.4302 0.0
C1268 C 0.18248 0.31764 0.35152 0.0
C1269 C 0.16157 0.29345 0.32151 0.0
C1270 C 0.16519 0.33671 0.37431 0.0
C1271 C 0.1267 0.33216 0.36729 0.0
C1272 C 0.10601 0.30777 0.33734 0.0
C1273 C 0.12314 0.28852 0.31503 0.0
C1274 C 0.05291 0.35896 0.41552 0.0
C1275 C 0.06837 0.39367 0.42729 0.0
C1276 C 0.07244 0.33892 0.39748 0.0
C1277 C 0.10782 0.35309 0.39013 0.0
C1278 C 0.12383 0.38767 0.40298 0.0
C1279 C 0.10435 0.40772 0.42149 0.0
loop_
_geom_bond_atom_site_label_1
_geom_bond_atom_site_label_2
_geom_bond_distance
_geom_bond_site_symmetry_2
_ccdc_geom_bond_type
Zn0 O6 1.969 . S
Zn0 O7 1.965 1_655 S
Zn0 O11 2.024 1_556 S
Zn0 O16 1.969 1_546 S
Zn1 O8 1.969 1_564 S
Zn1 O14 1.969 . S
Zn1 O15 1.965 1_455 S
Zn1 O17 2.024 1_554 S
C2 O3 1.229 . S
C2 O11 1.058 . S
O3 C2 1.229 . S
C4 O5 1.229 . S
C4 O17 1.058 . S
O5 C4 1.229 . S
O6 Zn0 1.969 . S
O6 C9 1.267 . S
O7 Zn0 1.965 1_455 S
O7 C18 1.260 . S
O8 Zn1 1.969 1_546 S
O8 C18 1.258 . S
C9 O6 1.267 . S
C9 O10 1.228 . S
O10 C9 1.228 . S
O11 Zn0 2.024 1_554 S
O11 C2 1.058 . S
C12 O13 1.228 . S
C12 O14 1.267 . S
O13 C12 1.228 . S
O14 Zn1 1.969 . S
O14 C12 1.267 . S
O15 Zn1 1.965 1_655 S
O15 C19 1.260 . S
O16 Zn0 1.969 1_564 S
O16 C19 1.258 . S
O17 Zn1 2.024 1_556 S
O17 C4 1.058 . S
C18 O7 1.260 . S
C18 O8 1.258 . S
C19 O15 1.260 . S
C19 O16 1.258 . S
Zn20 O26 1.969 . S
Zn20 O27 1.965 . S
Zn20 O31 2.024 . S
Zn20 O36 1.969 . S
Zn21 O28 1.969 . S
Zn21 O34 1.969 . S
Zn21 O35 1.965 . S
Zn21 O37 2.024 . S
C22 O23 1.229 . S
C22 O31 1.058 . S
O23 C22 1.229 . S
C24 O25 1.229 . S
C24 O37 1.058 . S
O25 C24 1.229 . S
O26 Zn20 1.969 . S
O26 C29 1.267 . S
O27 Zn20 1.965 . S
O27 C38 1.260 . S
O28 Zn21 1.969 . S
O28 C38 1.258 . S
C29 O26 1.267 . S
C29 O30 1.228 . S
O30 C29 1.228 . S
O31 Zn20 2.024 . S
O31 C22 1.058 . S
C32 O33 1.228 . S
C32 O34 1.267 . S
O33 C32 1.228 . S
O34 Zn21 1.969 . S
O34 C32 1.267 . S
O35 Zn21 1.965 . S
O35 C39 1.260 . S
O36 Zn20 1.969 . S
O36 C39 1.258 . S
O37 Zn21 2.024 . S
O37 C24 1.058 . S
C38 O27 1.260 . S
C38 O28 1.258 . S
C39 O35 1.260 . S
C39 O36 1.258 . S
Zn40 O46 1.969 . S
Zn40 O47 1.965 . S
Zn40 O51 2.024 . S
Zn40 O56 1.969 1_565 S
Zn41 O48 1.969 1_545 S
Zn41 O54 1.969 . S
Zn41 O55 1.965 . S
Zn41 O57 2.024 . S
C42 O43 1.229 . S
C42 O51 1.058 . S
O43 C42 1.229 . S
C44 O45 1.229 . S
C44 O57 1.058 . S
O45 C44 1.229 . S
O46 Zn40 1.969 . S
O46 C49 1.267 . S
O47 Zn40 1.965 . S
O47 C58 1.260 . S
O48 Zn41 1.969 1_565 S
O48 C58 1.258 . S
C49 O46 1.267 . S
C49 O50 1.228 . S
O50 C49 1.228 . S
O51 Zn40 2.024 . S
O51 C42 1.058 . S
C52 O53 1.228 . S
C52 O54 1.267 . S
O53 C52 1.228 . S
O54 Zn41 1.969 . S
O54 C52 1.267 . S
O55 Zn41 1.965 . S
O55 C59 1.260 . S
O56 Zn40 1.969 1_545 S
O56 C59 1.258 . S
O57 Zn41 2.024 . S
O57 C44 1.058 . S
C58 O47 1.260 . S
C58 O48 1.258 . S
C59 O55 1.260 . S
C59 O56 1.258 . S
Zn60 O66 1.969 . S
Zn60 O67 1.965 . S
Zn60 O71 2.024 . S
Zn60 O76 1.969 . S
Zn61 O68 1.969 . S
Zn61 O74 1.969 . S
Zn61 O75 1.965 . S
Zn61 O77 2.024 . S
C62 O63 1.229 . S
C62 O71 1.058 . S
O63 C62 1.229 . S
C64 O65 1.229 . S
C64 O77 1.058 . S
O65 C64 1.229 . S
O66 Zn60 1.969 . S
O66 C69 1.267 . S
O67 Zn60 1.965 . S
O67 C78 1.260 . S
O68 Zn61 1.969 . S
O68 C78 1.258 . S
C69 O66 1.267 . S
C69 O70 1.228 . S
O70 C69 1.228 . S
O71 Zn60 2.024 . S
O71 C62 1.058 . S
C72 O73 1.228 . S
C72 O74 1.267 . S
O73 C72 1.228 . S
O74 Zn61 1.969 . S
O74 C72 1.267 . S
O75 Zn61 1.965 . S
O75 C79 1.260 . S
O76 Zn60 1.969 . S
O76 C79 1.258 . S
O77 Zn61 2.024 . S
O77 C64 1.058 . S
C78 O67 1.260 . S
C78 O68 1.258 . S
C79 O75 1.260 . S
C79 O76 1.258 . S
Zn80 O86 1.969 . S
Zn80 O87 1.965 . S
Zn80 O91 2.024 1_455 S
Zn80 O96 1.969 1_445 S
Zn81 O88 1.969 1_665 S
Zn81 O94 1.969 . S
Zn81 O95 1.965 . S
Zn81 O97 2.024 1_655 S
C82 O83 1.229 . S
C82 O91 1.058 . S
O83 C82 1.229 . S
C84 O85 1.229 . S
C84 O97 1.058 . S
O85 C84 1.229 . S
O86 Zn80 1.969 . S
O86 C89 1.267 . S
O87 Zn80 1.965 . S
O87 C98 1.260 . S
O88 Zn81 1.969 1_445 S
O88 C98 1.258 . S
C89 O86 1.267 . S
C89 O90 1.228 . S
O90 C89 1.228 . S
O91 Zn80 2.024 1_655 S
O91 C82 1.058 . S
C92 O93 1.228 . S
C92 O94 1.267 . S
O93 C92 1.228 . S
O94 Zn81 1.969 . S
O94 C92 1.267 . S
O95 Zn81 1.965 . S
O95 C99 1.260 . S
O96 Zn80 1.969 1_665 S
O96 C99 1.258 . S
O97 Zn81 2.024 1_455 S
O97 C84 1.058 . S
C98 O87 1.260 . S
C98 O88 1.258 . S
C99 O95 1.260 . S
C99 O96 1.258 . S
Zn100 O106 1.969 . S
Zn100 O107 1.965 . S
Zn100 O111 2.024 . S
Zn100 O116 1.969 . S
Zn101 O108 1.969 . S
Zn101 O114 1.969 . S
Zn101 O115 1.965 . S
Zn101 O117 2.024 . S
C102 O103 1.229 . S
C102 O111 1.058 . S
O103 C102 1.229 . S
C104 O105 1.229 . S
C104 O117 1.058 . S
O105 C104 1.229 . S
O106 Zn100 1.969 . S
O106 C109 1.267 . S
O107 Zn100 1.965 . S
O107 C118 1.260 . S
O108 Zn101 1.969 . S
O108 C118 1.258 . S
C109 O106 1.267 . S
C109 O110 1.228 . S
O110 C109 1.228 . S
O111 Zn100 2.024 . S
O111 C102 1.058 . S
C112 O113 1.228 . S
C112 O114 1.267 . S
O113 C112 1.228 . S
O114 Zn101 1.969 . S
O114 C112 1.267 . S
O115 Zn101 1.965 . S
O115 C119 1.260 . S
O116 Zn100 1.969 . S
O116 C119 1.258 . S
O117 Zn101 2.024 . S
O117 C104 1.058 . S
C118 O107 1.260 . S
C118 O108 1.258 . S
C119 O115 1.260 . S
C119 O116 1.258 . S
Zn120 O126 1.969 . S
Zn120 O127 1.965 . S
Zn120 O131 2.024 1_545 S
Zn120 O136 1.969 1_544 S
Zn121 O128 1.969 1_566 S
Zn121 O134 1.969 . S
Zn121 O135 1.965 . S
Zn121 O137 2.024 1_565 S
C122 O123 1.229 . S
C122 O131 1.058 . S
O123 C122 1.229 . S
C124 O125 1.229 . S
C124 O137 1.058 . S
O125 C124 1.229 . S
O126 Zn120 1.969 . S
O126 C129 1.267 . S
O127 Zn120 1.965 . S
O127 C138 1.260 . S
O128 Zn121 1.969 1_544 S
O128 C138 1.258 . S
C129 O126 1.267 . S
C129 O130 1.228 . S
O130 C129 1.228 . S
O131 Zn120 2.024 1_565 S
O131 C122 1.058 . S
C132 O133 1.228 . S
C132 O134 1.267 . S
O133 C132 1.228 . S
O134 Zn121 1.969 . S
O134 C132 1.267 . S
O135 Zn121 1.965 . S
O135 C139 1.260 . S
O136 Zn120 1.969 1_566 S
O136 C139 1.258 . S
O137 Zn121 2.024 1_545 S
O137 C124 1.058 . S
C138 O127 1.260 . S
C138 O128 1.258 . S
C139 O135 1.260 . S
C139 O136 1.258 . S
Zn140 O146 1.969 . S
Zn140 O147 1.965 . S
Zn140 O151 2.024 . S
Zn140 O156 1.969 . S
Zn141 O148 1.969 . S
Zn141 O154 1.969 . S
Zn141 O155 1.965 . S
Zn141 O157 2.024 . S
C142 O143 1.229 . S
C142 O151 1.058 . S
O143 C142 1.229 . S
C144 O145 1.229 . S
C144 O157 1.058 . S
O145 C144 1.229 . S
O146 Zn140 1.969 . S
O146 C149 1.267 . S
O147 Zn140 1.965 . S
O147 C158 1.260 . S
O148 Zn141 1.969 . S
O148 C158 1.258 . S
C149 O146 1.267 . S
C149 O150 1.228 . S
O150 C149 1.228 . S
O151 Zn140 2.024 . S
O151 C142 1.058 . S
C152 O153 1.228 . S
C152 O154 1.267 . S
O153 C152 1.228 . S
O154 Zn141 1.969 . S
O154 C152 1.267 . S
O155 Zn141 1.965 . S
O155 C159 1.260 . S
O156 Zn140 1.969 . S
O156 C159 1.258 . S
O157 Zn141 2.024 . S
O157 C144 1.058 . S
C158 O147 1.260 . S
C158 O148 1.258 . S
C159 O155 1.260 . S
C159 O156 1.258 . S
Zn160 O166 1.969 . S
Zn160 O167 1.965 1_556 S
Zn160 O171 2.024 . S
Zn160 O176 1.969 . S
Zn161 O168 1.969 . S
Zn161 O174 1.969 . S
Zn161 O175 1.965 1_554 S
Zn161 O177 2.024 . S
C162 O163 1.229 . S
C162 O171 1.058 . S
O163 C162 1.229 . S
C164 O165 1.229 . S
C164 O177 1.058 . S
O165 C164 1.229 . S
O166 Zn160 1.969 . S
O166 C169 1.267 . S
O167 Zn160 1.965 1_554 S
O167 C178 1.260 . S
O168 Zn161 1.969 . S
O168 C178 1.258 . S
C169 O166 1.267 . S
C169 O170 1.228 . S
O170 C169 1.228 . S
O171 Zn160 2.024 . S
O171 C162 1.058 . S
C172 O173 1.228 . S
C172 O174 1.267 . S
O173 C172 1.228 . S
O174 Zn161 1.969 . S
O174 C172 1.267 . S
O175 Zn161 1.965 1_556 S
O175 C179 1.260 . S
O176 Zn160 1.969 . S
O176 C179 1.258 . S
O177 Zn161 2.024 . S
O177 C164 1.058 . S
C178 O167 1.260 . S
C178 O168 1.258 . S
C179 O175 1.260 . S
C179 O176 1.258 . S
Zn180 O186 1.969 . S
Zn180 O187 1.965 . S
Zn180 O191 2.024 . S
Zn180 O196 1.969 . S
Zn181 O188 1.969 . S
Zn181 O194 1.969 . S
Zn181 O195 1.965 . S
Zn181 O197 2.024 . S
C182 O183 1.229 . S
C182 O191 1.058 . S
O183 C182 1.229 . S
C184 O185 1.229 . S
C184 O197 1.058 . S
O185 C184 1.229 . S
O186 Zn180 1.969 . S
O186 C189 1.267 . S
O187 Zn180 1.965 . S
O187 C198 1.260 . S
O188 Zn181 1.969 . S
O188 C198 1.258 . S
C189 O186 1.267 . S
C189 O190 1.228 . S
O190 C189 1.228 . S
O191 Zn180 2.024 . S
O191 C182 1.058 . S
C192 O193 1.228 . S
C192 O194 1.267 . S
O193 C192 1.228 . S
O194 Zn181 1.969 . S
O194 C192 1.267 . S
O195 Zn181 1.965 . S
O195 C199 1.260 . S
O196 Zn180 1.969 . S
O196 C199 1.258 . S
O197 Zn181 2.024 . S
O197 C184 1.058 . S
C198 O187 1.260 . S
C198 O188 1.258 . S
C199 O195 1.260 . S
C199 O196 1.258 . S
Zn200 O206 1.969 . S
Zn200 O207 1.965 1_655 S
Zn200 O211 2.024 . S
Zn200 O216 1.969 . S
Zn201 O208 1.969 . S
Zn201 O214 1.969 . S
Zn201 O215 1.965 1_455 S
Zn201 O217 2.024 . S
C202 O203 1.229 . S
C202 O211 1.058 . S
O203 C202 1.229 . S
C204 O205 1.229 . S
C204 O217 1.058 . S
O205 C204 1.229 . S
O206 Zn200 1.969 . S
O206 C209 1.267 . S
O207 Zn200 1.965 1_455 S
O207 C218 1.260 . S
O208 Zn201 1.969 . S
O208 C218 1.258 . S
C209 O206 1.267 . S
C209 O210 1.228 . S
O210 C209 1.228 . S
O211 Zn200 2.024 . S
O211 C202 1.058 . S
C212 O213 1.228 . S
C212 O214 1.267 . S
O213 C212 1.228 . S
O214 Zn201 1.969 . S
O214 C212 1.267 . S
O215 Zn201 1.965 1_655 S
O215 C219 1.260 . S
O216 Zn200 1.969 . S
O216 C219 1.258 . S
O217 Zn201 2.024 . S
O217 C204 1.058 . S
C218 O207 1.260 . S
C218 O208 1.258 . S
C219 O215 1.260 . S
C219 O216 1.258 . S
Zn220 O226 1.969 . S
Zn220 O227 1.965 . S
Zn220 O231 2.024 . S
Zn220 O236 1.969 . S
Zn221 O228 1.969 . S
Zn221 O234 1.969 . S
Zn221 O235 1.965 . S
Zn221 O237 2.024 . S
C222 O223 1.229 . S
C222 O231 1.058 . S
O223 C222 1.229 . S
C224 O225 1.229 . S
C224 O237 1.058 . S
O225 C224 1.229 . S
O226 Zn220 1.969 . S
O226 C229 1.267 . S
O227 Zn220 1.965 . S
O227 C238 1.260 . S
O228 Zn221 1.969 . S
O228 C238 1.258 . S
C229 O226 1.267 . S
C229 O230 1.228 . S
O230 C229 1.228 . S
O231 Zn220 2.024 . S
O231 C222 1.058 . S
C232 O233 1.228 . S
C232 O234 1.267 . S
O233 C232 1.228 . S
O234 Zn221 1.969 . S
O234 C232 1.267 . S
O235 Zn221 1.965 . S
O235 C239 1.260 . S
O236 Zn220 1.969 . S
O236 C239 1.258 . S
O237 Zn221 2.024 . S
O237 C224 1.058 . S
C238 O227 1.260 . S
C238 O228 1.258 . S
C239 O235 1.260 . S
C239 O236 1.258 . S
Zn240 O246 1.969 . S
Zn240 O247 1.965 . S
Zn240 O251 2.024 . S
Zn240 O256 1.969 . S
Zn241 O248 1.969 . S
Zn241 O254 1.969 . S
Zn241 O255 1.965 . S
Zn241 O257 2.024 . S
C242 O243 1.229 . S
C242 O251 1.058 . S
O243 C242 1.229 . S
C244 O245 1.229 . S
C244 O257 1.058 . S
O245 C244 1.229 . S
O246 Zn240 1.969 . S
O246 C249 1.267 . S
O247 Zn240 1.965 . S
O247 C258 1.260 . S
O248 Zn241 1.969 . S
O248 C258 1.258 . S
C249 O246 1.267 . S
C249 O250 1.228 . S
O250 C249 1.228 . S
O251 Zn240 2.024 . S
O251 C242 1.058 . S
C252 O253 1.228 . S
C252 O254 1.267 . S
O253 C252 1.228 . S
O254 Zn241 1.969 . S
O254 C252 1.267 . S
O255 Zn241 1.965 . S
O255 C259 1.260 . S
O256 Zn240 1.969 . S
O256 C259 1.258 . S
O257 Zn241 2.024 . S
O257 C244 1.058 . S
C258 O247 1.260 . S
C258 O248 1.258 . S
C259 O255 1.260 . S
C259 O256 1.258 . S
Zn260 O266 1.969 . S
Zn260 O267 1.965 . S
Zn260 O271 2.024 . S
Zn260 O276 1.969 . S
Zn261 O268 1.969 . S
Zn261 O274 1.969 . S
Zn261 O275 1.965 . S
Zn261 O277 2.024 . S
C262 O263 1.229 . S
C262 O271 1.058 . S
O263 C262 1.229 . S
C264 O265 1.229 . S
C264 O277 1.058 . S
O265 C264 1.229 . S
O266 Zn260 1.969 . S
O266 C269 1.267 . S
O267 Zn260 1.965 . S
O267 C278 1.260 . S
O268 Zn261 1.969 . S
O268 C278 1.258 . S
C269 O266 1.267 . S
C269 O270 1.228 . S
O270 C269 1.228 . S
O271 Zn260 2.024 . S
O271 C262 1.058 . S
C272 O273 1.228 . S
C272 O274 1.267 . S
O273 C272 1.228 . S
O274 Zn261 1.969 . S
O274 C272 1.267 . S
O275 Zn261 1.965 . S
O275 C279 1.260 . S
O276 Zn260 1.969 . S
O276 C279 1.258 . S
O277 Zn261 2.024 . S
O277 C264 1.058 . S
C278 O267 1.260 . S
C278 O268 1.258 . S
C279 O275 1.260 . S
C279 O276 1.258 . S
Zn280 O286 1.969 . S
Zn280 O287 1.965 . S
Zn280 O291 2.024 . S
Zn280 O296 1.969 . S
Zn281 O288 1.969 . S
Zn281 O294 1.969 . S
Zn281 O295 1.965 . S
Zn281 O297 2.024 . S
C282 O283 1.229 . S
C282 O291 1.058 . S
O283 C282 1.229 . S
C284 O285 1.229 . S
C284 O297 1.058 . S
O285 C284 1.229 . S
O286 Zn280 1.969 . S
O286 C289 1.267 . S
O287 Zn280 1.965 . S
O287 C298 1.260 . S
O288 Zn281 1.969 . S
O288 C298 1.258 . S
C289 O286 1.267 . S
C289 O290 1.228 . S
O290 C289 1.228 . S
O291 Zn280 2.024 . S
O291 C282 1.058 . S
C292 O293 1.228 . S
C292 O294 1.267 . S
O293 C292 1.228 . S
O294 Zn281 1.969 . S
O294 C292 1.267 . S
O295 Zn281 1.965 . S
O295 C299 1.260 . S
O296 Zn280 1.969 . S
O296 C299 1.258 . S
O297 Zn281 2.024 . S
O297 C284 1.058 . S
C298 O287 1.260 . S
C298 O288 1.258 . S
C299 O295 1.260 . S
C299 O296 1.258 . S
Zn300 O306 1.969 . S
Zn300 O307 1.965 . S
Zn300 O311 2.024 1_554 S
Zn300 O316 1.969 1_454 S
Zn301 O308 1.969 1_656 S
Zn301 O314 1.969 . S
Zn301 O315 1.965 . S
Zn301 O317 2.024 1_556 S
C302 O303 1.229 . S
C302 O311 1.058 . S
O303 C302 1.229 . S
C304 O305 1.229 . S
C304 O317 1.058 . S
O305 C304 1.229 . S
O306 Zn300 1.969 . S
O306 C309 1.267 . S
O307 Zn300 1.965 . S
O307 C318 1.260 . S
O308 Zn301 1.969 1_454 S
O308 C318 1.258 . S
C309 O306 1.267 . S
C309 O310 1.228 . S
O310 C309 1.228 . S
O311 Zn300 2.024 1_556 S
O311 C302 1.058 . S
C312 O313 1.228 . S
C312 O314 1.267 . S
O313 C312 1.228 . S
O314 Zn301 1.969 . S
O314 C312 1.267 . S
O315 Zn301 1.965 . S
O315 C319 1.260 . S
O316 Zn300 1.969 1_656 S
O316 C319 1.258 . S
O317 Zn301 2.024 1_554 S
O317 C304 1.058 . S
C318 O307 1.260 . S
C318 O308 1.258 . S
C319 O315 1.260 . S
C319 O316 1.258 . S
H320 C328 0.950 . S
H321 C333 0.950 . S
H322 C330 0.950 . S
H323 C332 0.950 . S
H324 C334 0.950 . S
H325 C336 0.950 . S
H326 C338 0.950 . S
H327 C339 0.950 1_554 S
C328 H320 0.950 . S
C328 C329 1.386 . S
C328 C330 1.391 . S
C329 C328 1.386 . S
C329 C333 1.393 . S
C330 H322 0.950 . S
C330 C328 1.391 . S
C330 C331 1.400 . S
C331 C330 1.400 . S
C331 C332 1.398 . S
C331 C337 1.491 . S
C332 H323 0.950 . S
C332 C331 1.398 . S
C332 C333 1.391 . S
C333 H321 0.950 . S
C333 C329 1.393 . S
C333 C332 1.391 . S
C334 H324 0.950 . S
C334 C335 1.386 . S
C334 C336 1.391 . S
C335 C334 1.386 . S
C335 C339 1.393 . S
C336 H325 0.950 . S
C336 C334 1.391 . S
C336 C337 1.400 . S
C337 C331 1.491 . S
C337 C336 1.400 . S
C337 C338 1.398 . S
C338 H326 0.950 . S
C338 C337 1.398 . S
C338 C339 1.391 . S
C339 H327 0.950 1_556 S
C339 C335 1.393 . S
C339 C338 1.391 . S
H340 C348 0.950 . S
H341 C353 0.950 . S
H342 C350 0.950 . S
H343 C352 0.950 . S
H344 C354 0.950 . S
H345 C356 0.950 . S
H346 C358 0.950 . S
H347 C359 0.950 . S
C348 H340 0.950 . S
C348 C349 1.386 . S
C348 C350 1.391 . S
C349 C348 1.386 . S
C349 C353 1.393 . S
C350 H342 0.950 . S
C350 C348 1.391 . S
C350 C351 1.400 . S
C351 C350 1.400 . S
C351 C352 1.398 . S
C351 C357 1.491 . S
C352 H343 0.950 . S
C352 C351 1.398 . S
C352 C353 1.391 . S
C353 H341 0.950 . S
C353 C349 1.393 . S
C353 C352 1.391 . S
C354 H344 0.950 . S
C354 C355 1.386 . S
C354 C356 1.391 . S
C355 C354 1.386 . S
C355 C359 1.393 . S
C356 H345 0.950 . S
C356 C354 1.391 . S
C356 C357 1.400 . S
C357 C351 1.491 . S
C357 C356 1.400 . S
C357 C358 1.398 . S
C358 H346 0.950 . S
C358 C357 1.398 . S
C358 C359 1.391 . S
C359 H347 0.950 . S
C359 C355 1.393 . S
C359 C358 1.391 . S
H360 C368 0.950 . S
H361 C373 0.950 . S
H362 C370 0.950 . S
H363 C372 0.950 . S
H364 C374 0.950 . S
H365 C376 0.950 . S
H366 C378 0.950 . S
H367 C379 0.950 . S
C368 H360 0.950 . S
C368 C369 1.386 . S
C368 C370 1.391 . S
C369 C368 1.386 . S
C369 C373 1.393 . S
C370 H362 0.950 . S
C370 C368 1.391 . S
C370 C371 1.400 . S
C371 C370 1.400 . S
C371 C372 1.398 . S
C371 C377 1.491 . S
C372 H363 0.950 . S
C372 C371 1.398 . S
C372 C373 1.391 . S
C373 H361 0.950 . S
C373 C369 1.393 . S
C373 C372 1.391 . S
C374 H364 0.950 . S
C374 C375 1.386 . S
C374 C376 1.391 . S
C375 C374 1.386 . S
C375 C379 1.393 . S
C376 H365 0.950 . S
C376 C374 1.391 . S
C376 C377 1.400 . S
C377 C371 1.491 . S
C377 C376 1.400 . S
C377 C378 1.398 . S
C378 H366 0.950 . S
C378 C377 1.398 . S
C378 C379 1.391 . S
C379 H367 0.950 . S
C379 C375 1.393 . S
C379 C378 1.391 . S
H380 C388 0.950 . S
H381 C393 0.950 . S
H382 C390 0.950 . S
H383 C392 0.950 . S
H384 C394 0.950 . S
H385 C396 0.950 . S
H386 C398 0.950 . S
H387 C399 0.950 . S
C388 H380 0.950 . S
C388 C389 1.386 . S
C388 C390 1.391 . S
C389 C388 1.386 . S
C389 C393 1.393 . S
C390 H382 0.950 . S
C390 C388 1.391 . S
C390 C391 1.400 . S
C391 C390 1.400 . S
C391 C392 1.398 . S
C391 C397 1.491 . S
C392 H383 0.950 . S
C392 C391 1.398 . S
C392 C393 1.391 . S
C393 H381 0.950 . S
C393 C389 1.393 . S
C393 C392 1.391 . S
C394 H384 0.950 . S
C394 C395 1.386 . S
C394 C396 1.391 . S
C395 C394 1.386 . S
C395 C399 1.393 . S
C396 H385 0.950 . S
C396 C394 1.391 . S
C396 C397 1.400 . S
C397 C391 1.491 . S
C397 C396 1.400 . S
C397 C398 1.398 . S
C398 H386 0.950 . S
C398 C397 1.398 . S
C398 C399 1.391 . S
C399 H387 0.950 . S
C399 C395 1.393 . S
C399 C398 1.391 . S
H400 C408 0.950 . S
H401 C413 0.950 . S
H402 C410 0.950 . S
H403 C412 0.950 . S
H404 C414 0.950 . S
H405 C416 0.950 . S
H406 C418 0.950 . S
H407 C419 0.950 . S
C408 H400 0.950 . S
C408 C409 1.386 . S
C408 C410 1.391 . S
C409 C408 1.386 . S
C409 C413 1.393 . S
C410 H402 0.950 . S
C410 C408 1.391 . S
C410 C411 1.400 . S
C411 C410 1.400 . S
C411 C412 1.398 . S
C411 C417 1.491 . S
C412 H403 0.950 . S
C412 C411 1.398 . S
C412 C413 1.391 . S
C413 H401 0.950 . S
C413 C409 1.393 . S
C413 C412 1.391 . S
C414 H404 0.950 . S
C414 C415 1.386 . S
C414 C416 1.391 . S
C415 C414 1.386 . S
C415 C419 1.393 . S
C416 H405 0.950 . S
C416 C414 1.391 . S
C416 C417 1.400 . S
C417 C411 1.491 . S
C417 C416 1.400 . S
C417 C418 1.398 . S
C418 H406 0.950 . S
C418 C417 1.398 . S
C418 C419 1.391 . S
C419 H407 0.950 . S
C419 C415 1.393 . S
C419 C418 1.391 . S
H420 C428 0.950 . S
H421 C433 0.950 . S
H422 C430 0.950 . S
H423 C432 0.950 . S
H424 C434 0.950 . S
H425 C436 0.950 . S
H426 C438 0.950 . S
H427 C439 0.950 . S
C428 H420 0.950 . S
C428 C429 1.386 . S
C428 C430 1.391 . S
C429 C428 1.386 . S
C429 C433 1.393 . S
C430 H422 0.950 . S
C430 C428 1.391 . S
C430 C431 1.400 . S
C431 C430 1.400 . S
C431 C432 1.398 . S
C431 C437 1.491 . S
C432 H423 0.950 . S
C432 C431 1.398 . S
C432 C433 1.391 . S
C433 H421 0.950 . S
C433 C429 1.393 . S
C433 C432 1.391 . S
C434 H424 0.950 . S
C434 C435 1.386 . S
C434 C436 1.391 . S
C435 C434 1.386 . S
C435 C439 1.393 . S
C436 H425 0.950 . S
C436 C434 1.391 . S
C436 C437 1.400 . S
C437 C431 1.491 . S
C437 C436 1.400 . S
C437 C438 1.398 . S
C438 H426 0.950 . S
C438 C437 1.398 . S
C438 C439 1.391 . S
C439 H427 0.950 . S
C439 C435 1.393 . S
C439 C438 1.391 . S
H440 C448 0.950 . S
H441 C453 0.950 . S
H442 C450 0.950 . S
H443 C452 0.950 . S
H444 C454 0.950 . S
H445 C456 0.950 . S
H446 C458 0.950 . S
H447 C459 0.950 . S
C448 H440 0.950 . S
C448 C449 1.386 . S
C448 C450 1.391 . S
C449 C448 1.386 . S
C449 C453 1.393 . S
C450 H442 0.950 . S
C450 C448 1.391 . S
C450 C451 1.400 . S
C451 C450 1.400 . S
C451 C452 1.398 . S
C451 C457 1.491 . S
C452 H443 0.950 . S
C452 C451 1.398 . S
C452 C453 1.391 . S
C453 H441 0.950 . S
C453 C449 1.393 . S
C453 C452 1.391 . S
C454 H444 0.950 . S
C454 C455 1.386 . S
C454 C456 1.391 . S
C455 C454 1.386 . S
C455 C459 1.393 . S
C456 H445 0.950 . S
C456 C454 1.391 . S
C456 C457 1.400 . S
C457 C451 1.491 . S
C457 C456 1.400 . S
C457 C458 1.398 . S
C458 H446 0.950 . S
C458 C457 1.398 . S
C458 C459 1.391 . S
C459 H447 0.950 . S
C459 C455 1.393 . S
C459 C458 1.391 . S
H460 C468 0.950 . S
H461 C473 0.950 . S
H462 C470 0.950 . S
H463 C472 0.950 . S
H464 C474 0.950 . S
H465 C476 0.950 . S
H466 C478 0.950 . S
H467 C479 0.950 . S
C468 H460 0.950 . S
C468 C469 1.386 . S
C468 C470 1.391 . S
C469 C468 1.386 . S
C469 C473 1.393 . S
C470 H462 0.950 . S
C470 C468 1.391 . S
C470 C471 1.400 . S
C471 C470 1.400 . S
C471 C472 1.398 . S
C471 C477 1.491 . S
C472 H463 0.950 . S
C472 C471 1.398 . S
C472 C473 1.391 . S
C473 H461 0.950 . S
C473 C469 1.393 . S
C473 C472 1.391 . S
C474 H464 0.950 . S
C474 C475 1.386 . S
C474 C476 1.391 . S
C475 C474 1.386 . S
C475 C479 1.393 . S
C476 H465 0.950 . S
C476 C474 1.391 . S
C476 C477 1.400 . S
C477 C471 1.491 . S
C477 C476 1.400 . S
C477 C478 1.398 . S
C478 H466 0.950 . S
C478 C477 1.398 . S
C478 C479 1.391 . S
C479 H467 0.950 . S
C479 C475 1.393 . S
C479 C478 1.391 . S
H480 C488 0.950 . S
H481 C493 0.950 . S
H482 C490 0.950 . S
H483 C492 0.950 . S
H484 C494 0.950 . S
H485 C496 0.950 . S
H486 C498 0.950 . S
H487 C499 0.950 . S
C488 H480 0.950 . S
C488 C489 1.386 . S
C488 C490 1.391 . S
C489 C488 1.386 . S
C489 C493 1.393 . S
C490 H482 0.950 . S
C490 C488 1.391 . S
C490 C491 1.400 . S
C491 C490 1.400 . S
C491 C492 1.398 . S
C491 C497 1.491 . S
C492 H483 0.950 . S
C492 C491 1.398 . S
C492 C493 1.391 . S
C493 H481 0.950 . S
C493 C489 1.393 . S
C493 C492 1.391 . S
C494 H484 0.950 . S
C494 C495 1.386 . S
C494 C496 1.391 . S
C495 C494 1.386 . S
C495 C499 1.393 . S
C496 H485 0.950 . S
C496 C494 1.391 . S
C496 C497 1.400 . S
C497 C491 1.491 . S
C497 C496 1.400 . S
C497 C498 1.398 . S
C498 H486 0.950 . S
C498 C497 1.398 . S
C498 C499 1.391 . S
C499 H487 0.950 . S
C499 C495 1.393 . S
C499 C498 1.391 . S
H500 C508 0.950 . S
H501 C513 0.950 . S
H502 C510 0.950 . S
H503 C512 0.950 . S
H504 C514 0.950 . S
H505 C516 0.950 . S
H506 C518 0.950 . S
H507 C519 0.950 . S
C508 H500 0.950 . S
C508 C509 1.386 . S
C508 C510 1.391 . S
C509 C508 1.386 . S
C509 C513 1.393 . S
C510 H502 0.950 . S
C510 C508 1.391 . S
C510 C511 1.400 . S
C511 C510 1.400 . S
C511 C512 1.398 . S
C511 C517 1.491 . S
C512 H503 0.950 . S
C512 C511 1.398 . S
C512 C513 1.391 . S
C513 H501 0.950 . S
C513 C509 1.393 . S
C513 C512 1.391 . S
C514 H504 0.950 . S
C514 C515 1.386 . S
C514 C516 1.391 . S
C515 C514 1.386 . S
C515 C519 1.393 . S
C516 H505 0.950 . S
C516 C514 1.391 . S
C516 C517 1.400 . S
C517 C511 1.491 . S
C517 C516 1.400 . S
C517 C518 1.398 . S
C518 H506 0.950 . S
C518 C517 1.398 . S
C518 C519 1.391 . S
C519 H507 0.950 . S
C519 C515 1.393 . S
C519 C518 1.391 . S
H520 C528 0.950 . S
H521 C533 0.950 . S
H522 C530 0.950 . S
H523 C532 0.950 . S
H524 C534 0.950 . S
H525 C536 0.950 . S
H526 C538 0.950 . S
H527 C539 0.950 . S
C528 H520 0.950 . S
C528 C529 1.386 . S
C528 C530 1.391 . S
C529 C528 1.386 . S
C529 C533 1.393 . S
C530 H522 0.950 . S
C530 C528 1.391 . S
C530 C531 1.400 . S
C531 C530 1.400 . S
C531 C532 1.398 . S
C531 C537 1.491 . S
C532 H523 0.950 . S
C532 C531 1.398 . S
C532 C533 1.391 . S
C533 H521 0.950 . S
C533 C529 1.393 . S
C533 C532 1.391 . S
C534 H524 0.950 . S
C534 C535 1.386 . S
C534 C536 1.391 . S
C535 C534 1.386 . S
C535 C539 1.393 . S
C536 H525 0.950 . S
C536 C534 1.391 . S
C536 C537 1.400 . S
C537 C531 1.491 . S
C537 C536 1.400 . S
C537 C538 1.398 . S
C538 H526 0.950 . S
C538 C537 1.398 . S
C538 C539 1.391 . S
C539 H527 0.950 . S
C539 C535 1.393 . S
C539 C538 1.391 . S
H540 C548 0.950 . S
H541 C553 0.950 . S
H542 C550 0.950 . S
H543 C552 0.950 . S
H544 C554 0.950 . S
H545 C556 0.950 . S
H546 C558 0.950 . S
H547 C559 0.950 . S
C548 H540 0.950 . S
C548 C549 1.386 . S
C548 C550 1.391 . S
C549 C548 1.386 . S
C549 C553 1.393 . S
C550 H542 0.950 . S
C550 C548 1.391 . S
C550 C551 1.400 . S
C551 C550 1.400 . S
C551 C552 1.398 . S
C551 C557 1.491 . S
C552 H543 0.950 . S
C552 C551 1.398 . S
C552 C553 1.391 . S
C553 H541 0.950 . S
C553 C549 1.393 . S
C553 C552 1.391 . S
C554 H544 0.950 . S
C554 C555 1.386 . S
C554 C556 1.391 . S
C555 C554 1.386 . S
C555 C559 1.393 . S
C556 H545 0.950 . S
C556 C554 1.391 . S
C556 C557 1.400 . S
C557 C551 1.491 . S
C557 C556 1.400 . S
C557 C558 1.398 . S
C558 H546 0.950 . S
C558 C557 1.398 . S
C558 C559 1.391 . S
C559 H547 0.950 . S
C559 C555 1.393 . S
C559 C558 1.391 . S
H560 C568 0.950 . S
H561 C573 0.950 . S
H562 C570 0.950 . S
H563 C572 0.950 . S
H564 C574 0.950 . S
H565 C576 0.950 . S
H566 C578 0.950 . S
H567 C579 0.950 . S
C568 H560 0.950 . S
C568 C569 1.386 . S
C568 C570 1.391 . S
C569 C568 1.386 . S
C569 C573 1.393 . S
C570 H562 0.950 . S
C570 C568 1.391 . S
C570 C571 1.400 . S
C571 C570 1.400 . S
C571 C572 1.398 . S
C571 C577 1.491 . S
C572 H563 0.950 . S
C572 C571 1.398 . S
C572 C573 1.391 . S
C573 H561 0.950 . S
C573 C569 1.393 . S
C573 C572 1.391 . S
C574 H564 0.950 . S
C574 C575 1.386 . S
C574 C576 1.391 . S
C575 C574 1.386 . S
C575 C579 1.393 . S
C576 H565 0.950 . S
C576 C574 1.391 . S
C576 C577 1.400 . S
C577 C571 1.491 . S
C577 C576 1.400 . S
C577 C578 1.398 . S
C578 H566 0.950 . S
C578 C577 1.398 . S
C578 C579 1.391 . S
C579 H567 0.950 . S
C579 C575 1.393 . S
C579 C578 1.391 . S
H580 C588 0.950 . S
H581 C593 0.950 . S
H582 C590 0.950 . S
H583 C592 0.950 . S
H584 C594 0.950 . S
H585 C596 0.950 . S
H586 C598 0.950 . S
H587 C599 0.950 . S
C588 H580 0.950 . S
C588 C589 1.386 . S
C588 C590 1.391 . S
C589 C588 1.386 . S
C589 C593 1.393 . S
C590 H582 0.950 . S
C590 C588 1.391 . S
C590 C591 1.400 . S
C591 C590 1.400 . S
C591 C592 1.398 . S
C591 C597 1.491 . S
C592 H583 0.950 . S
C592 C591 1.398 . S
C592 C593 1.391 . S
C593 H581 0.950 . S
C593 C589 1.393 . S
C593 C592 1.391 . S
C594 H584 0.950 . S
C594 C595 1.386 . S
C594 C596 1.391 . S
C595 C594 1.386 . S
C595 C599 1.393 . S
C596 H585 0.950 . S
C596 C594 1.391 . S
C596 C597 1.400 . S
C597 C591 1.491 . S
C597 C596 1.400 . S
C597 C598 1.398 . S
C598 H586 0.950 . S
C598 C597 1.398 . S
C598 C599 1.391 . S
C599 H587 0.950 . S
C599 C595 1.393 . S
C599 C598 1.391 . S
H600 C608 0.950 . S
H601 C613 0.950 . S
H602 C610 0.950 . S
H603 C612 0.950 . S
H604 C614 0.950 . S
H605 C616 0.950 . S
H606 C618 0.950 . S
H607 C619 0.950 . S
C608 H600 0.950 . S
C608 C609 1.386 . S
C608 C610 1.391 . S
C609 C608 1.386 . S
C609 C613 1.393 . S
C610 H602 0.950 . S
C610 C608 1.391 . S
C610 C611 1.400 . S
C611 C610 1.400 . S
C611 C612 1.398 . S
C611 C617 1.491 . S
C612 H603 0.950 . S
C612 C611 1.398 . S
C612 C613 1.391 . S
C613 H601 0.950 . S
C613 C609 1.393 . S
C613 C612 1.391 . S
C614 H604 0.950 . S
C614 C615 1.386 . S
C614 C616 1.391 . S
C615 C614 1.386 . S
C615 C619 1.393 . S
C616 H605 0.950 . S
C616 C614 1.391 . S
C616 C617 1.400 . S
C617 C611 1.491 . S
C617 C616 1.400 . S
C617 C618 1.398 . S
C618 H606 0.950 . S
C618 C617 1.398 . S
C618 C619 1.391 . S
C619 H607 0.950 . S
C619 C615 1.393 . S
C619 C618 1.391 . S
H620 C628 0.950 . S
H621 C633 0.950 . S
H622 C630 0.950 . S
H623 C632 0.950 . S
H624 C634 0.950 . S
H625 C636 0.950 . S
H626 C638 0.950 . S
H627 C639 0.950 . S
C628 H620 0.950 . S
C628 C629 1.386 . S
C628 C630 1.391 . S
C629 C628 1.386 . S
C629 C633 1.393 . S
C630 H622 0.950 . S
C630 C628 1.391 . S
C630 C631 1.400 . S
C631 C630 1.400 . S
C631 C632 1.398 . S
C631 C637 1.491 . S
C632 H623 0.950 . S
C632 C631 1.398 . S
C632 C633 1.391 . S
C633 H621 0.950 . S
C633 C629 1.393 . S
C633 C632 1.391 . S
C634 H624 0.950 . S
C634 C635 1.386 . S
C634 C636 1.391 . S
C635 C634 1.386 . S
C635 C639 1.393 . S
C636 H625 0.950 . S
C636 C634 1.391 . S
C636 C637 1.400 . S
C637 C631 1.491 . S
C637 C636 1.400 . S
C637 C638 1.398 . S
C638 H626 0.950 . S
C638 C637 1.398 . S
C638 C639 1.391 . S
C639 H627 0.950 . S
C639 C635 1.393 . S
C639 C638 1.391 . S
H640 C648 0.950 . S
H641 C653 0.950 . S
H642 C650 0.950 . S
H643 C652 0.950 . S
H644 C654 0.950 . S
H645 C656 0.950 . S
H646 C658 0.950 . S
H647 C659 0.950 . S
C648 H640 0.950 . S
C648 C649 1.386 . S
C648 C650 1.391 . S
C649 C648 1.386 . S
C649 C653 1.393 . S
C650 H642 0.950 . S
C650 C648 1.391 . S
C650 C651 1.400 . S
C651 C650 1.400 . S
C651 C652 1.398 . S
C651 C657 1.491 . S
C652 H643 0.950 . S
C652 C651 1.398 . S
C652 C653 1.391 . S
C653 H641 0.950 . S
C653 C649 1.393 . S
C653 C652 1.391 . S
C654 H644 0.950 . S
C654 C655 1.386 . S
C654 C656 1.391 . S
C655 C654 1.386 . S
C655 C659 1.393 . S
C656 H645 0.950 . S
C656 C654 1.391 . S
C656 C657 1.400 . S
C657 C651 1.491 . S
C657 C656 1.400 . S
C657 C658 1.398 . S
C658 H646 0.950 . S
C658 C657 1.398 . S
C658 C659 1.391 . S
C659 H647 0.950 . S
C659 C655 1.393 . S
C659 C658 1.391 . S
H660 C668 0.950 . S
H661 C673 0.950 . S
H662 C670 0.950 . S
H663 C672 0.950 . S
H664 C674 0.950 . S
H665 C676 0.950 . S
H666 C678 0.950 . S
H667 C679 0.950 . S
C668 H660 0.950 . S
C668 C669 1.386 . S
C668 C670 1.391 . S
C669 C668 1.386 . S
C669 C673 1.393 . S
C670 H662 0.950 . S
C670 C668 1.391 . S
C670 C671 1.400 . S
C671 C670 1.400 . S
C671 C672 1.398 . S
C671 C677 1.491 . S
C672 H663 0.950 . S
C672 C671 1.398 . S
C672 C673 1.391 . S
C673 H661 0.950 . S
C673 C669 1.393 . S
C673 C672 1.391 . S
C674 H664 0.950 . S
C674 C675 1.386 . S
C674 C676 1.391 . S
C675 C674 1.386 . S
C675 C679 1.393 . S
C676 H665 0.950 . S
C676 C674 1.391 . S
C676 C677 1.400 . S
C677 C671 1.491 . S
C677 C676 1.400 . S
C677 C678 1.398 . S
C678 H666 0.950 . S
C678 C677 1.398 . S
C678 C679 1.391 . S
C679 H667 0.950 . S
C679 C675 1.393 . S
C679 C678 1.391 . S
H680 C688 0.950 . S
H681 C693 0.950 . S
H682 C690 0.950 . S
H683 C692 0.950 . S
H684 C694 0.950 . S
H685 C696 0.950 . S
H686 C698 0.950 . S
H687 C699 0.950 . S
C688 H680 0.950 . S
C688 C689 1.386 . S
C688 C690 1.391 . S
C689 C688 1.386 . S
C689 C693 1.393 . S
C690 H682 0.950 . S
C690 C688 1.391 . S
C690 C691 1.400 . S
C691 C690 1.400 . S
C691 C692 1.398 . S
C691 C697 1.491 . S
C692 H683 0.950 . S
C692 C691 1.398 . S
C692 C693 1.391 . S
C693 H681 0.950 . S
C693 C689 1.393 . S
C693 C692 1.391 . S
C694 H684 0.950 . S
C694 C695 1.386 . S
C694 C696 1.391 . S
C695 C694 1.386 . S
C695 C699 1.393 . S
C696 H685 0.950 . S
C696 C694 1.391 . S
C696 C697 1.400 . S
C697 C691 1.491 . S
C697 C696 1.400 . S
C697 C698 1.398 . S
C698 H686 0.950 . S
C698 C697 1.398 . S
C698 C699 1.391 . S
C699 H687 0.950 . S
C699 C695 1.393 . S
C699 C698 1.391 . S
H700 C708 0.950 . S
H701 C713 0.950 . S
H702 C710 0.950 . S
H703 C712 0.950 . S
H704 C714 0.950 . S
H705 C716 0.950 . S
H706 C718 0.950 . S
H707 C719 0.950 . S
C708 H700 0.950 . S
C708 C709 1.386 . S
C708 C710 1.391 . S
C709 C708 1.386 . S
C709 C713 1.393 . S
C710 H702 0.950 . S
C710 C708 1.391 . S
C710 C711 1.400 . S
C711 C710 1.400 . S
C711 C712 1.398 . S
C711 C717 1.491 . S
C712 H703 0.950 . S
C712 C711 1.398 . S
C712 C713 1.391 . S
C713 H701 0.950 . S
C713 C709 1.393 . S
C713 C712 1.391 . S
C714 H704 0.950 . S
C714 C715 1.386 . S
C714 C716 1.391 . S
C715 C714 1.386 . S
C715 C719 1.393 . S
C716 H705 0.950 . S
C716 C714 1.391 . S
C716 C717 1.400 . S
C717 C711 1.491 . S
C717 C716 1.400 . S
C717 C718 1.398 . S
C718 H706 0.950 . S
C718 C717 1.398 . S
C718 C719 1.391 . S
C719 H707 0.950 . S
C719 C715 1.393 . S
C719 C718 1.391 . S
H720 C728 0.950 . S
H721 C733 0.950 . S
H722 C730 0.950 . S
H723 C732 0.950 . S
H724 C734 0.950 . S
H725 C736 0.950 . S
H726 C738 0.950 . S
H727 C739 0.950 . S
C728 H720 0.950 . S
C728 C729 1.386 . S
C728 C730 1.391 . S
C729 C728 1.386 . S
C729 C733 1.393 . S
C730 H722 0.950 . S
C730 C728 1.391 . S
C730 C731 1.400 . S
C731 C730 1.400 . S
C731 C732 1.398 . S
C731 C737 1.491 . S
C732 H723 0.950 . S
C732 C731 1.398 . S
C732 C733 1.391 . S
C733 H721 0.950 . S
C733 C729 1.393 . S
C733 C732 1.391 . S
C734 H724 0.950 . S
C734 C735 1.386 . S
C734 C736 1.391 . S
C735 C734 1.386 . S
C735 C739 1.393 . S
C736 H725 0.950 . S
C736 C734 1.391 . S
C736 C737 1.400 . S
C737 C731 1.491 . S
C737 C736 1.400 . S
C737 C738 1.398 . S
C738 H726 0.950 . S
C738 C737 1.398 . S
C738 C739 1.391 . S
C739 H727 0.950 . S
C739 C735 1.393 . S
C739 C738 1.391 . S
H740 C748 0.950 . S
H741 C753 0.950 . S
H742 C750 0.950 . S
H743 C752 0.950 . S
H744 C754 0.950 . S
H745 C756 0.950 . S
H746 C758 0.950 . S
H747 C759 0.950 . S
C748 H740 0.950 . S
C748 C749 1.386 . S
C748 C750 1.391 . S
C749 C748 1.386 . S
C749 C753 1.393 . S
C750 H742 0.950 . S
C750 C748 1.391 . S
C750 C751 1.400 . S
C751 C750 1.400 . S
C751 C752 1.398 . S
C751 C757 1.491 . S
C752 H743 0.950 . S
C752 C751 1.398 . S
C752 C753 1.391 . S
C753 H741 0.950 . S
C753 C749 1.393 . S
C753 C752 1.391 . S
C754 H744 0.950 . S
C754 C755 1.386 . S
C754 C756 1.391 . S
C755 C754 1.386 . S
C755 C759 1.393 . S
C756 H745 0.950 . S
C756 C754 1.391 . S
C756 C757 1.400 . S
C757 C751 1.491 . S
C757 C756 1.400 . S
C757 C758 1.398 . S
C758 H746 0.950 . S
C758 C757 1.398 . S
C758 C759 1.391 . S
C759 H747 0.950 . S
C759 C755 1.393 . S
C759 C758 1.391 . S
H760 C768 0.950 . S
H761 C773 0.950 . S
H762 C770 0.950 . S
H763 C772 0.950 . S
H764 C774 0.950 . S
H765 C776 0.950 . S
H766 C778 0.950 . S
H767 C779 0.950 . S
C768 H760 0.950 . S
C768 C769 1.386 . S
C768 C770 1.391 . S
C769 C768 1.386 . S
C769 C773 1.393 . S
C770 H762 0.950 . S
C770 C768 1.391 . S
C770 C771 1.400 . S
C771 C770 1.400 . S
C771 C772 1.398 . S
C771 C777 1.491 . S
C772 H763 0.950 . S
C772 C771 1.398 . S
C772 C773 1.391 . S
C773 H761 0.950 . S
C773 C769 1.393 . S
C773 C772 1.391 . S
C774 H764 0.950 . S
C774 C775 1.386 . S
C774 C776 1.391 . S
C775 C774 1.386 . S
C775 C779 1.393 . S
C776 H765 0.950 . S
C776 C774 1.391 . S
C776 C777 1.400 . S
C777 C771 1.491 . S
C777 C776 1.400 . S
C777 C778 1.398 . S
C778 H766 0.950 . S
C778 C777 1.398 . S
C778 C779 1.391 . S
C779 H767 0.950 . S
C779 C775 1.393 . S
C779 C778 1.391 . S
H780 C788 0.950 . S
H781 C793 0.950 . S
H782 C790 0.950 . S
H783 C792 0.950 . S
H784 C794 0.950 . S
H785 C796 0.950 . S
H786 C798 0.950 . S
H787 C799 0.950 . S
C788 H780 0.950 . S
C788 C789 1.386 . S
C788 C790 1.391 . S
C789 C788 1.386 . S
C789 C793 1.393 . S
C790 H782 0.950 . S
C790 C788 1.391 . S
C790 C791 1.400 . S
C791 C790 1.400 . S
C791 C792 1.398 . S
C791 C797 1.491 . S
C792 H783 0.950 . S
C792 C791 1.398 . S
C792 C793 1.391 . S
C793 H781 0.950 . S
C793 C789 1.393 . S
C793 C792 1.391 . S
C794 H784 0.950 . S
C794 C795 1.386 . S
C794 C796 1.391 . S
C795 C794 1.386 . S
C795 C799 1.393 . S
C796 H785 0.950 . S
C796 C794 1.391 . S
C796 C797 1.400 . S
C797 C791 1.491 . S
C797 C796 1.400 . S
C797 C798 1.398 . S
C798 H786 0.950 . S
C798 C797 1.398 . S
C798 C799 1.391 . S
C799 H787 0.950 . S
C799 C795 1.393 . S
C799 C798 1.391 . S
H800 C808 0.950 . S
H801 C813 0.950 . S
H802 C810 0.950 . S
H803 C812 0.950 . S
H804 C814 0.950 . S
H805 C816 0.950 . S
H806 C818 0.950 . S
H807 C819 0.950 . S
C808 H800 0.950 . S
C808 C809 1.386 . S
C808 C810 1.391 . S
C809 C808 1.386 . S
C809 C813 1.393 . S
C810 H802 0.950 . S
C810 C808 1.391 . S
C810 C811 1.400 . S
C811 C810 1.400 . S
C811 C812 1.398 . S
C811 C817 1.491 . S
C812 H803 0.950 . S
C812 C811 1.398 . S
C812 C813 1.391 . S
C813 H801 0.950 . S
C813 C809 1.393 . S
C813 C812 1.391 . S
C814 H804 0.950 . S
C814 C815 1.386 . S
C814 C816 1.391 . S
C815 C814 1.386 . S
C815 C819 1.393 . S
C816 H805 0.950 . S
C816 C814 1.391 . S
C816 C817 1.400 . S
C817 C811 1.491 . S
C817 C816 1.400 . S
C817 C818 1.398 . S
C818 H806 0.950 . S
C818 C817 1.398 . S
C818 C819 1.391 . S
C819 H807 0.950 . S
C819 C815 1.393 . S
C819 C818 1.391 . S
H820 C828 0.950 . S
H821 C833 0.950 . S
H822 C830 0.950 . S
H823 C832 0.950 . S
H824 C834 0.950 . S
H825 C836 0.950 . S
H826 C838 0.950 . S
H827 C839 0.950 . S
C828 H820 0.950 . S
C828 C829 1.386 . S
C828 C830 1.391 . S
C829 C828 1.386 . S
C829 C833 1.393 . S
C830 H822 0.950 . S
C830 C828 1.391 . S
C830 C831 1.400 . S
C831 C830 1.400 . S
C831 C832 1.398 . S
C831 C837 1.491 . S
C832 H823 0.950 . S
C832 C831 1.398 . S
C832 C833 1.391 . S
C833 H821 0.950 . S
C833 C829 1.393 . S
C833 C832 1.391 . S
C834 H824 0.950 . S
C834 C835 1.386 . S
C834 C836 1.391 . S
C835 C834 1.386 . S
C835 C839 1.393 . S
C836 H825 0.950 . S
C836 C834 1.391 . S
C836 C837 1.400 . S
C837 C831 1.491 . S
C837 C836 1.400 . S
C837 C838 1.398 . S
C838 H826 0.950 . S
C838 C837 1.398 . S
C838 C839 1.391 . S
C839 H827 0.950 . S
C839 C835 1.393 . S
C839 C838 1.391 . S
H840 C848 0.950 . S
H841 C853 0.950 . S
H842 C850 0.950 . S
H843 C852 0.950 . S
H844 C854 0.950 . S
H845 C856 0.950 . S
H846 C858 0.950 . S
H847 C859 0.950 . S
C848 H840 0.950 . S
C848 C849 1.386 . S
C848 C850 1.391 . S
C849 C848 1.386 . S
C849 C853 1.393 . S
C850 H842 0.950 . S
C850 C848 1.391 . S
C850 C851 1.400 . S
C851 C850 1.400 . S
C851 C852 1.398 . S
C851 C857 1.491 . S
C852 H843 0.950 . S
C852 C851 1.398 . S
C852 C853 1.391 . S
C853 H841 0.950 . S
C853 C849 1.393 . S
C853 C852 1.391 . S
C854 H844 0.950 . S
C854 C855 1.386 . S
C854 C856 1.391 . S
C855 C854 1.386 . S
C855 C859 1.393 . S
C856 H845 0.950 . S
C856 C854 1.391 . S
C856 C857 1.400 . S
C857 C851 1.491 . S
C857 C856 1.400 . S
C857 C858 1.398 . S
C858 H846 0.950 . S
C858 C857 1.398 . S
C858 C859 1.391 . S
C859 H847 0.950 . S
C859 C855 1.393 . S
C859 C858 1.391 . S
H860 C868 0.950 . S
H861 C873 0.950 . S
H862 C870 0.950 . S
H863 C872 0.950 . S
H864 C874 0.950 . S
H865 C876 0.950 . S
H866 C878 0.950 . S
H867 C879 0.950 . S
C868 H860 0.950 . S
C868 C869 1.386 . S
C868 C870 1.391 . S
C869 C868 1.386 . S
C869 C873 1.393 . S
C870 H862 0.950 . S
C870 C868 1.391 . S
C870 C871 1.400 . S
C871 C870 1.400 . S
C871 C872 1.398 . S
C871 C877 1.491 . S
C872 H863 0.950 . S
C872 C871 1.398 . S
C872 C873 1.391 . S
C873 H861 0.950 . S
C873 C869 1.393 . S
C873 C872 1.391 . S
C874 H864 0.950 . S
C874 C875 1.386 . S
C874 C876 1.391 . S
C875 C874 1.386 . S
C875 C879 1.393 . S
C876 H865 0.950 . S
C876 C874 1.391 . S
C876 C877 1.400 . S
C877 C871 1.491 . S
C877 C876 1.400 . S
C877 C878 1.398 . S
C878 H866 0.950 . S
C878 C877 1.398 . S
C878 C879 1.391 . S
C879 H867 0.950 . S
C879 C875 1.393 . S
C879 C878 1.391 . S
H880 C888 0.950 . S
H881 C893 0.950 . S
H882 C890 0.950 . S
H883 C892 0.950 . S
H884 C894 0.950 . S
H885 C896 0.950 . S
H886 C898 0.950 . S
H887 C899 0.950 . S
C888 H880 0.950 . S
C888 C889 1.386 . S
C888 C890 1.391 . S
C889 C888 1.386 . S
C889 C893 1.393 . S
C890 H882 0.950 . S
C890 C888 1.391 . S
C890 C891 1.400 . S
C891 C890 1.400 . S
C891 C892 1.398 . S
C891 C897 1.491 . S
C892 H883 0.950 . S
C892 C891 1.398 . S
C892 C893 1.391 . S
C893 H881 0.950 . S
C893 C889 1.393 . S
C893 C892 1.391 . S
C894 H884 0.950 . S
C894 C895 1.386 . S
C894 C896 1.391 . S
C895 C894 1.386 . S
C895 C899 1.393 . S
C896 H885 0.950 . S
C896 C894 1.391 . S
C896 C897 1.400 . S
C897 C891 1.491 . S
C897 C896 1.400 . S
C897 C898 1.398 . S
C898 H886 0.950 . S
C898 C897 1.398 . S
C898 C899 1.391 . S
C899 H887 0.950 . S
C899 C895 1.393 . S
C899 C898 1.391 . S
H900 C908 0.950 . S
H901 C913 0.950 . S
H902 C910 0.950 . S
H903 C912 0.950 . S
H904 C914 0.950 . S
H905 C916 0.950 . S
H906 C918 0.950 . S
H907 C919 0.950 . S
C908 H900 0.950 . S
C908 C909 1.386 . S
C908 C910 1.391 . S
C909 C908 1.386 . S
C909 C913 1.393 . S
C910 H902 0.950 . S
C910 C908 1.391 . S
C910 C911 1.400 . S
C911 C910 1.400 . S
C911 C912 1.398 . S
C911 C917 1.491 . S
C912 H903 0.950 . S
C912 C911 1.398 . S
C912 C913 1.391 . S
C913 H901 0.950 . S
C913 C909 1.393 . S
C913 C912 1.391 . S
C914 H904 0.950 . S
C914 C915 1.386 . S
C914 C916 1.391 . S
C915 C914 1.386 . S
C915 C919 1.393 . S
C916 H905 0.950 . S
C916 C914 1.391 . S
C916 C917 1.400 . S
C917 C911 1.491 . S
C917 C916 1.400 . S
C917 C918 1.398 . S
C918 H906 0.950 . S
C918 C917 1.398 . S
C918 C919 1.391 . S
C919 H907 0.950 . S
C919 C915 1.393 . S
C919 C918 1.391 . S
H920 C928 0.950 . S
H921 C933 0.950 . S
H922 C930 0.950 . S
H923 C932 0.950 . S
H924 C934 0.950 . S
H925 C936 0.950 . S
H926 C938 0.950 . S
H927 C939 0.950 . S
C928 H920 0.950 . S
C928 C929 1.386 . S
C928 C930 1.391 . S
C929 C928 1.386 . S
C929 C933 1.393 . S
C930 H922 0.950 . S
C930 C928 1.391 . S
C930 C931 1.400 . S
C931 C930 1.400 . S
C931 C932 1.398 . S
C931 C937 1.491 . S
C932 H923 0.950 . S
C932 C931 1.398 . S
C932 C933 1.391 . S
C933 H921 0.950 . S
C933 C929 1.393 . S
C933 C932 1.391 . S
C934 H924 0.950 . S
C934 C935 1.386 . S
C934 C936 1.391 . S
C935 C934 1.386 . S
C935 C939 1.393 . S
C936 H925 0.950 . S
C936 C934 1.391 . S
C936 C937 1.400 . S
C937 C931 1.491 . S
C937 C936 1.400 . S
C937 C938 1.398 . S
C938 H926 0.950 . S
C938 C937 1.398 . S
C938 C939 1.391 . S
C939 H927 0.950 . S
C939 C935 1.393 . S
C939 C938 1.391 . S
H940 C948 0.950 . S
H941 C953 0.950 . S
H942 C950 0.950 . S
H943 C952 0.950 . S
H944 C954 0.950 . S
H945 C956 0.950 . S
H946 C958 0.950 . S
H947 C959 0.950 . S
C948 H940 0.950 . S
C948 C949 1.386 . S
C948 C950 1.391 . S
C949 C948 1.386 . S
C949 C953 1.393 . S
C950 H942 0.950 . S
C950 C948 1.391 . S
C950 C951 1.400 . S
C951 C950 1.400 . S
C951 C952 1.398 . S
C951 C957 1.491 . S
C952 H943 0.950 . S
C952 C951 1.398 . S
C952 C953 1.391 . S
C953 H941 0.950 . S
C953 C949 1.393 . S
C953 C952 1.391 . S
C954 H944 0.950 . S
C954 C955 1.386 . S
C954 C956 1.391 . S
C955 C954 1.386 . S
C955 C959 1.393 . S
C956 H945 0.950 . S
C956 C954 1.391 . S
C956 C957 1.400 . S
C957 C951 1.491 . S
C957 C956 1.400 . S
C957 C958 1.398 . S
C958 H946 0.950 . S
C958 C957 1.398 . S
C958 C959 1.391 . S
C959 H947 0.950 . S
C959 C955 1.393 . S
C959 C958 1.391 . S
H960 C968 0.950 . S
H961 C973 0.950 . S
H962 C970 0.950 . S
H963 C972 0.950 . S
H964 C974 0.950 . S
H965 C976 0.950 . S
H966 C978 0.950 . S
H967 C979 0.950 . S
C968 H960 0.950 . S
C968 C969 1.386 . S
C968 C970 1.391 . S
C969 C968 1.386 . S
C969 C973 1.393 . S
C970 H962 0.950 . S
C970 C968 1.391 . S
C970 C971 1.400 . S
C971 C970 1.400 . S
C971 C972 1.398 . S
C971 C977 1.491 . S
C972 H963 0.950 . S
C972 C971 1.398 . S
C972 C973 1.391 . S
C973 H961 0.950 . S
C973 C969 1.393 . S
C973 C972 1.391 . S
C974 H964 0.950 . S
C974 C975 1.386 . S
C974 C976 1.391 . S
C975 C974 1.386 . S
C975 C979 1.393 . S
C976 H965 0.950 . S
C976 C974 1.391 . S
C976 C977 1.400 . S
C977 C971 1.491 . S
C977 C976 1.400 . S
C977 C978 1.398 . S
C978 H966 0.950 . S
C978 C977 1.398 . S
C978 C979 1.391 . S
C979 H967 0.950 . S
C979 C975 1.393 . S
C979 C978 1.391 . S
H980 C988 0.950 . S
H981 C993 0.950 . S
H982 C990 0.950 . S
H983 C992 0.950 . S
H984 C994 0.950 . S
H985 C996 0.950 . S
H986 C998 0.950 . S
H987 C999 0.950 . S
C988 H980 0.950 . S
C988 C989 1.386 . S
C988 C990 1.391 . S
C989 C988 1.386 . S
C989 C993 1.393 . S
C990 H982 0.950 . S
C990 C988 1.391 . S
C990 C991 1.400 . S
C991 C990 1.400 . S
C991 C992 1.398 . S
C991 C997 1.491 . S
C992 H983 0.950 . S
C992 C991 1.398 . S
C992 C993 1.391 . S
C993 H981 0.950 . S
C993 C989 1.393 . S
C993 C992 1.391 . S
C994 H984 0.950 . S
C994 C995 1.386 . S
C994 C996 1.391 . S
C995 C994 1.386 . S
C995 C999 1.393 . S
C996 H985 0.950 . S
C996 C994 1.391 . S
C996 C997 1.400 . S
C997 C991 1.491 . S
C997 C996 1.400 . S
C997 C998 1.398 . S
C998 H986 0.950 . S
C998 C997 1.398 . S
C998 C999 1.391 . S
C999 H987 0.950 . S
C999 C995 1.393 . S
C999 C998 1.391 . S
H1000 C1008 0.950 . S
H1001 C1013 0.950 . S
H1002 C1010 0.950 . S
H1003 C1012 0.950 . S
H1004 C1014 0.950 . S
H1005 C1016 0.950 . S
H1006 C1018 0.950 . S
H1007 C1019 0.950 . S
C1008 H1000 0.950 . S
C1008 C1009 1.386 . S
C1008 C1010 1.391 . S
C1009 C1008 1.386 . S
C1009 C1013 1.393 . S
C1010 H1002 0.950 . S
C1010 C1008 1.391 . S
C1010 C1011 1.400 . S
C1011 C1010 1.400 . S
C1011 C1012 1.398 . S
C1011 C1017 1.491 . S
C1012 H1003 0.950 . S
C1012 C1011 1.398 . S
C1012 C1013 1.391 . S
C1013 H1001 0.950 . S
C1013 C1009 1.393 . S
C1013 C1012 1.391 . S
C1014 H1004 0.950 . S
C1014 C1015 1.386 . S
C1014 C1016 1.391 . S
C1015 C1014 1.386 . S
C1015 C1019 1.393 . S
C1016 H1005 0.950 . S
C1016 C1014 1.391 . S
C1016 C1017 1.400 . S
C1017 C1011 1.491 . S
C1017 C1016 1.400 . S
C1017 C1018 1.398 . S
C1018 H1006 0.950 . S
C1018 C1017 1.398 . S
C1018 C1019 1.391 . S
C1019 H1007 0.950 . S
C1019 C1015 1.393 . S
C1019 C1018 1.391 . S
H1020 C1028 0.950 . S
H1021 C1033 0.950 . S
H1022 C1030 0.950 . S
H1023 C1032 0.950 . S
H1024 C1034 0.950 . S
H1025 C1036 0.950 . S
H1026 C1038 0.950 . S
H1027 C1039 0.950 . S
C1028 H1020 0.950 . S
C1028 C1029 1.386 . S
C1028 C1030 1.391 . S
C1029 C1028 1.386 . S
C1029 C1033 1.393 . S
C1030 H1022 0.950 . S
C1030 C1028 1.391 . S
C1030 C1031 1.400 . S
C1031 C1030 1.400 . S
C1031 C1032 1.398 . S
C1031 C1037 1.491 . S
C1032 H1023 0.950 . S
C1032 C1031 1.398 . S
C1032 C1033 1.391 . S
C1033 H1021 0.950 . S
C1033 C1029 1.393 . S
C1033 C1032 1.391 . S
C1034 H1024 0.950 . S
C1034 C1035 1.386 . S
C1034 C1036 1.391 . S
C1035 C1034 1.386 . S
C1035 C1039 1.393 . S
C1036 H1025 0.950 . S
C1036 C1034 1.391 . S
C1036 C1037 1.400 . S
C1037 C1031 1.491 . S
C1037 C1036 1.400 . S
C1037 C1038 1.398 . S
C1038 H1026 0.950 . S
C1038 C1037 1.398 . S
C1038 C1039 1.391 . S
C1039 H1027 0.950 . S
C1039 C1035 1.393 . S
C1039 C1038 1.391 . S
H1040 C1048 0.950 . S
H1041 C1053 0.950 . S
H1042 C1050 0.950 . S
H1043 C1052 0.950 . S
H1044 C1054 0.950 . S
H1045 C1056 0.950 . S
H1046 C1058 0.950 . S
H1047 C1059 0.950 . S
C1048 H1040 0.950 . S
C1048 C1049 1.386 . S
C1048 C1050 1.391 . S
C1049 C1048 1.386 . S
C1049 C1053 1.393 . S
C1050 H1042 0.950 . S
C1050 C1048 1.391 . S
C1050 C1051 1.400 . S
C1051 C1050 1.400 . S
C1051 C1052 1.398 . S
C1051 C1057 1.491 . S
C1052 H1043 0.950 . S
C1052 C1051 1.398 . S
C1052 C1053 1.391 . S
C1053 H1041 0.950 . S
C1053 C1049 1.393 . S
C1053 C1052 1.391 . S
C1054 H1044 0.950 . S
C1054 C1055 1.386 . S
C1054 C1056 1.391 . S
C1055 C1054 1.386 . S
C1055 C1059 1.393 . S
C1056 H1045 0.950 . S
C1056 C1054 1.391 . S
C1056 C1057 1.400 . S
C1057 C1051 1.491 . S
C1057 C1056 1.400 . S
C1057 C1058 1.398 . S
C1058 H1046 0.950 . S
C1058 C1057 1.398 . S
C1058 C1059 1.391 . S
C1059 H1047 0.950 . S
C1059 C1055 1.393 . S
C1059 C1058 1.391 . S
H1060 C1068 0.950 . S
H1061 C1073 0.950 . S
H1062 C1070 0.950 . S
H1063 C1072 0.950 . S
H1064 C1074 0.950 . S
H1065 C1076 0.950 . S
H1066 C1078 0.950 . S
H1067 C1079 0.950 . S
C1068 H1060 0.950 . S
C1068 C1069 1.386 . S
C1068 C1070 1.391 . S
C1069 C1068 1.386 . S
C1069 C1073 1.393 . S
C1070 H1062 0.950 . S
C1070 C1068 1.391 . S
C1070 C1071 1.400 . S
C1071 C1070 1.400 . S
C1071 C1072 1.398 . S
C1071 C1077 1.491 . S
C1072 H1063 0.950 . S
C1072 C1071 1.398 . S
C1072 C1073 1.391 . S
C1073 H1061 0.950 . S
C1073 C1069 1.393 . S
C1073 C1072 1.391 . S
C1074 H1064 0.950 . S
C1074 C1075 1.386 . S
C1074 C1076 1.391 . S
C1075 C1074 1.386 . S
C1075 C1079 1.393 . S
C1076 H1065 0.950 . S
C1076 C1074 1.391 . S
C1076 C1077 1.400 . S
C1077 C1071 1.491 . S
C1077 C1076 1.400 . S
C1077 C1078 1.398 . S
C1078 H1066 0.950 . S
C1078 C1077 1.398 . S
C1078 C1079 1.391 . S
C1079 H1067 0.950 . S
C1079 C1075 1.393 . S
C1079 C1078 1.391 . S
H1080 C1088 0.950 . S
H1081 C1093 0.950 . S
H1082 C1090 0.950 . S
H1083 C1092 0.950 . S
H1084 C1094 0.950 . S
H1085 C1096 0.950 . S
H1086 C1098 0.950 . S
H1087 C1099 0.950 . S
C1088 H1080 0.950 . S
C1088 C1089 1.386 . S
C1088 C1090 1.391 . S
C1089 C1088 1.386 . S
C1089 C1093 1.393 . S
C1090 H1082 0.950 . S
C1090 C1088 1.391 . S
C1090 C1091 1.400 . S
C1091 C1090 1.400 . S
C1091 C1092 1.398 . S
C1091 C1097 1.491 . S
C1092 H1083 0.950 . S
C1092 C1091 1.398 . S
C1092 C1093 1.391 . S
C1093 H1081 0.950 . S
C1093 C1089 1.393 . S
C1093 C1092 1.391 . S
C1094 H1084 0.950 . S
C1094 C1095 1.386 . S
C1094 C1096 1.391 . S
C1095 C1094 1.386 . S
C1095 C1099 1.393 . S
C1096 H1085 0.950 . S
C1096 C1094 1.391 . S
C1096 C1097 1.400 . S
C1097 C1091 1.491 . S
C1097 C1096 1.400 . S
C1097 C1098 1.398 . S
C1098 H1086 0.950 . S
C1098 C1097 1.398 . S
C1098 C1099 1.391 . S
C1099 H1087 0.950 . S
C1099 C1095 1.393 . S
C1099 C1098 1.391 . S
H1100 C1108 0.950 . S
H1101 C1113 0.950 . S
H1102 C1110 0.950 . S
H1103 C1112 0.950 . S
H1104 C1114 0.950 . S
H1105 C1116 0.950 . S
H1106 C1118 0.950 . S
H1107 C1119 0.950 . S
C1108 H1100 0.950 . S
C1108 C1109 1.386 . S
C1108 C1110 1.391 . S
C1109 C1108 1.386 . S
C1109 C1113 1.393 . S
C1110 H1102 0.950 . S
C1110 C1108 1.391 . S
C1110 C1111 1.400 . S
C1111 C1110 1.400 . S
C1111 C1112 1.398 . S
C1111 C1117 1.491 . S
C1112 H1103 0.950 . S
C1112 C1111 1.398 . S
C1112 C1113 1.391 . S
C1113 H1101 0.950 . S
C1113 C1109 1.393 . S
C1113 C1112 1.391 . S
C1114 H1104 0.950 . S
C1114 C1115 1.386 . S
C1114 C1116 1.391 . S
C1115 C1114 1.386 . S
C1115 C1119 1.393 . S
C1116 H1105 0.950 . S
C1116 C1114 1.391 . S
C1116 C1117 1.400 . S
C1117 C1111 1.491 . S
C1117 C1116 1.400 . S
C1117 C1118 1.398 . S
C1118 H1106 0.950 . S
C1118 C1117 1.398 . S
C1118 C1119 1.391 . S
C1119 H1107 0.950 . S
C1119 C1115 1.393 . S
C1119 C1118 1.391 . S
H1120 C1128 0.950 . S
H1121 C1133 0.950 . S
H1122 C1130 0.950 . S
H1123 C1132 0.950 . S
H1124 C1134 0.950 . S
H1125 C1136 0.950 . S
H1126 C1138 0.950 . S
H1127 C1139 0.950 . S
C1128 H1120 0.950 . S
C1128 C1129 1.386 . S
C1128 C1130 1.391 . S
C1129 C1128 1.386 . S
C1129 C1133 1.393 . S
C1130 H1122 0.950 . S
C1130 C1128 1.391 . S
C1130 C1131 1.400 . S
C1131 C1130 1.400 . S
C1131 C1132 1.398 . S
C1131 C1137 1.491 . S
C1132 H1123 0.950 . S
C1132 C1131 1.398 . S
C1132 C1133 1.391 . S
C1133 H1121 0.950 . S
C1133 C1129 1.393 . S
C1133 C1132 1.391 . S
C1134 H1124 0.950 . S
C1134 C1135 1.386 . S
C1134 C1136 1.391 . S
C1135 C1134 1.386 . S
C1135 C1139 1.393 . S
C1136 H1125 0.950 . S
C1136 C1134 1.391 . S
C1136 C1137 1.400 . S
C1137 C1131 1.491 . S
C1137 C1136 1.400 . S
C1137 C1138 1.398 . S
C1138 H1126 0.950 . S
C1138 C1137 1.398 . S
C1138 C1139 1.391 . S
C1139 H1127 0.950 . S
C1139 C1135 1.393 . S
C1139 C1138 1.391 . S
H1140 C1148 0.950 . S
H1141 C1153 0.950 . S
H1142 C1150 0.950 . S
H1143 C1152 0.950 . S
H1144 C1154 0.950 . S
H1145 C1156 0.950 . S
H1146 C1158 0.950 . S
H1147 C1159 0.950 . S
C1148 H1140 0.950 . S
C1148 C1149 1.386 . S
C1148 C1150 1.391 . S
C1149 C1148 1.386 . S
C1149 C1153 1.393 . S
C1150 H1142 0.950 . S
C1150 C1148 1.391 . S
C1150 C1151 1.400 . S
C1151 C1150 1.400 . S
C1151 C1152 1.398 . S
C1151 C1157 1.491 . S
C1152 H1143 0.950 . S
C1152 C1151 1.398 . S
C1152 C1153 1.391 . S
C1153 H1141 0.950 . S
C1153 C1149 1.393 . S
C1153 C1152 1.391 . S
C1154 H1144 0.950 . S
C1154 C1155 1.386 . S
C1154 C1156 1.391 . S
C1155 C1154 1.386 . S
C1155 C1159 1.393 . S
C1156 H1145 0.950 . S
C1156 C1154 1.391 . S
C1156 C1157 1.400 . S
C1157 C1151 1.491 . S
C1157 C1156 1.400 . S
C1157 C1158 1.398 . S
C1158 H1146 0.950 . S
C1158 C1157 1.398 . S
C1158 C1159 1.391 . S
C1159 H1147 0.950 . S
C1159 C1155 1.393 . S
C1159 C1158 1.391 . S
H1160 C1168 0.950 . S
H1161 C1173 0.950 . S
H1162 C1170 0.950 . S
H1163 C1172 0.950 . S
H1164 C1174 0.950 . S
H1165 C1176 0.950 . S
H1166 C1178 0.950 . S
H1167 C1179 0.950 . S
C1168 H1160 0.950 . S
C1168 C1169 1.386 . S
C1168 C1170 1.391 . S
C1169 C1168 1.386 . S
C1169 C1173 1.393 . S
C1170 H1162 0.950 . S
C1170 C1168 1.391 . S
C1170 C1171 1.400 . S
C1171 C1170 1.400 . S
C1171 C1172 1.398 . S
C1171 C1177 1.491 . S
C1172 H1163 0.950 . S
C1172 C1171 1.398 . S
C1172 C1173 1.391 . S
C1173 H1161 0.950 . S
C1173 C1169 1.393 . S
C1173 C1172 1.391 . S
C1174 H1164 0.950 . S
C1174 C1175 1.386 . S
C1174 C1176 1.391 . S
C1175 C1174 1.386 . S
C1175 C1179 1.393 . S
C1176 H1165 0.950 . S
C1176 C1174 1.391 . S
C1176 C1177 1.400 . S
C1177 C1171 1.491 . S
C1177 C1176 1.400 . S
C1177 C1178 1.398 . S
C1178 H1166 0.950 . S
C1178 C1177 1.398 . S
C1178 C1179 1.391 . S
C1179 H1167 0.950 . S
C1179 C1175 1.393 . S
C1179 C1178 1.391 . S
H1180 C1188 0.950 . S
H1181 C1193 0.950 . S
H1182 C1190 0.950 . S
H1183 C1192 0.950 . S
H1184 C1194 0.950 . S
H1185 C1196 0.950 . S
H1186 C1198 0.950 . S
H1187 C1199 0.950 . S
C1188 H1180 0.950 . S
C1188 C1189 1.386 . S
C1188 C1190 1.391 . S
C1189 C1188 1.386 . S
C1189 C1193 1.393 . S
C1190 H1182 0.950 . S
C1190 C1188 1.391 . S
C1190 C1191 1.400 . S
C1191 C1190 1.400 . S
C1191 C1192 1.398 . S
C1191 C1197 1.491 . S
C1192 H1183 0.950 . S
C1192 C1191 1.398 . S
C1192 C1193 1.391 . S
C1193 H1181 0.950 . S
C1193 C1189 1.393 . S
C1193 C1192 1.391 . S
C1194 H1184 0.950 . S
C1194 C1195 1.386 . S
C1194 C1196 1.391 . S
C1195 C1194 1.386 . S
C1195 C1199 1.393 . S
C1196 H1185 0.950 . S
C1196 C1194 1.391 . S
C1196 C1197 1.400 . S
C1197 C1191 1.491 . S
C1197 C1196 1.400 . S
C1197 C1198 1.398 . S
C1198 H1186 0.950 . S
C1198 C1197 1.398 . S
C1198 C1199 1.391 . S
C1199 H1187 0.950 . S
C1199 C1195 1.393 . S
C1199 C1198 1.391 . S
H1200 C1208 0.950 . S
H1201 C1213 0.950 . S
H1202 C1210 0.950 . S
H1203 C1212 0.950 . S
H1204 C1214 0.950 . S
H1205 C1216 0.950 . S
H1206 C1218 0.950 . S
H1207 C1219 0.950 . S
C1208 H1200 0.950 . S
C1208 C1209 1.386 . S
C1208 C1210 1.391 . S
C1209 C1208 1.386 . S
C1209 C1213 1.393 . S
C1210 H1202 0.950 . S
C1210 C1208 1.391 . S
C1210 C1211 1.400 . S
C1211 C1210 1.400 . S
C1211 C1212 1.398 . S
C1211 C1217 1.491 . S
C1212 H1203 0.950 . S
C1212 C1211 1.398 . S
C1212 C1213 1.391 . S
C1213 H1201 0.950 . S
C1213 C1209 1.393 . S
C1213 C1212 1.391 . S
C1214 H1204 0.950 . S
C1214 C1215 1.386 . S
C1214 C1216 1.391 . S
C1215 C1214 1.386 . S
C1215 C1219 1.393 . S
C1216 H1205 0.950 . S
C1216 C1214 1.391 . S
C1216 C1217 1.400 . S
C1217 C1211 1.491 . S
C1217 C1216 1.400 . S
C1217 C1218 1.398 . S
C1218 H1206 0.950 . S
C1218 C1217 1.398 . S
C1218 C1219 1.391 . S
C1219 H1207 0.950 . S
C1219 C1215 1.393 . S
C1219 C1218 1.391 . S
H1220 C1228 0.950 . S
H1221 C1233 0.950 . S
H1222 C1230 0.950 . S
H1223 C1232 0.950 . S
H1224 C1234 0.950 . S
H1225 C1236 0.950 . S
H1226 C1238 0.950 . S
H1227 C1239 0.950 . S
C1228 H1220 0.950 . S
C1228 C1229 1.386 . S
C1228 C1230 1.391 . S
C1229 C1228 1.386 . S
C1229 C1233 1.393 . S
C1230 H1222 0.950 . S
C1230 C1228 1.391 . S
C1230 C1231 1.400 . S
C1231 C1230 1.400 . S
C1231 C1232 1.398 . S
C1231 C1237 1.491 . S
C1232 H1223 0.950 . S
C1232 C1231 1.398 . S
C1232 C1233 1.391 . S
C1233 H1221 0.950 . S
C1233 C1229 1.393 . S
C1233 C1232 1.391 . S
C1234 H1224 0.950 . S
C1234 C1235 1.386 . S
C1234 C1236 1.391 . S
C1235 C1234 1.386 . S
C1235 C1239 1.393 . S
C1236 H1225 0.950 . S
C1236 C1234 1.391 . S
C1236 C1237 1.400 . S
C1237 C1231 1.491 . S
C1237 C1236 1.400 . S
C1237 C1238 1.398 . S
C1238 H1226 0.950 . S
C1238 C1237 1.398 . S
C1238 C1239 1.391 . S
C1239 H1227 0.950 . S
C1239 C1235 1.393 . S
C1239 C1238 1.391 . S
H1240 C1248 0.950 . S
H1241 C1253 0.950 . S
H1242 C1250 0.950 . S
H1243 C1252 0.950 . S
H1244 C1254 0.950 . S
H1245 C1256 0.950 . S
H1246 C1258 0.950 . S
H1247 C1259 0.950 . S
C1248 H1240 0.950 . S
C1248 C1249 1.386 . S
C1248 C1250 1.391 . S
C1249 C1248 1.386 . S
C1249 C1253 1.393 . S
C1250 H1242 0.950 . S
C1250 C1248 1.391 . S
C1250 C1251 1.400 . S
C1251 C1250 1.400 . S
C1251 C1252 1.398 . S
C1251 C1257 1.491 . S
C1252 H1243 0.950 . S
C1252 C1251 1.398 . S
C1252 C1253 1.391 . S
C1253 H1241 0.950 . S
C1253 C1249 1.393 . S
C1253 C1252 1.391 . S
C1254 H1244 0.950 . S
C1254 C1255 1.386 . S
C1254 C1256 1.391 . S
C1255 C1254 1.386 . S
C1255 C1259 1.393 . S
C1256 H1245 0.950 . S
C1256 C1254 1.391 . S
C1256 C1257 1.400 . S
C1257 C1251 1.491 . S
C1257 C1256 1.400 . S
C1257 C1258 1.398 . S
C1258 H1246 0.950 . S
C1258 C1257 1.398 . S
C1258 C1259 1.391 . S
C1259 H1247 0.950 . S
C1259 C1255 1.393 . S
C1259 C1258 1.391 . S
H1260 C1268 0.950 . S
H1261 C1273 0.950 . S
H1262 C1270 0.950 . S
H1263 C1272 0.950 . S
H1264 C1274 0.950 . S
H1265 C1276 0.950 . S
H1266 C1278 0.950 . S
H1267 C1279 0.950 . S
C1268 H1260 0.950 . S
C1268 C1269 1.386 . S
C1268 C1270 1.391 . S
C1269 C1268 1.386 . S
C1269 C1273 1.393 . S
C1270 H1262 0.950 . S
C1270 C1268 1.391 . S
C1270 C1271 1.400 . S
C1271 C1270 1.400 . S
C1271 C1272 1.398 . S
C1271 C1277 1.491 . S
C1272 H1263 0.950 . S
C1272 C1271 1.398 . S
C1272 C1273 1.391 . S
C1273 H1261 0.950 . S
C1273 C1269 1.393 . S
C1273 C1272 1.391 . S
C1274 H1264 0.950 . S
C1274 C1275 1.386 . S
C1274 C1276 1.391 . S
C1275 C1274 1.386 . S
C1275 C1279 1.393 . S
C1276 H1265 0.950 . S
C1276 C1274 1.391 . S
C1276 C1277 1.400 . S
C1277 C1271 1.491 . S
C1277 C1276 1.400 . S
C1277 C1278 1.398 . S
C1278 H1266 0.950 . S
C1278 C1277 1.398 . S
C1278 C1279 1.391 . S
C1279 H1267 0.950 . S
C1279 C1275 1.393 . S
C1279 C1278 1.391 . S
C329 C62 1.721 . S
C335 C18 1.778 . S
C349 C12 1.420 . S
C355 C22 1.408 . S
C369 C58 1.125 . S
C375 C38 1.121 . S
C389 C72 1.265 . S
C395 C52 1.259 . S
C409 C84 1.539 . S
C415 C104 1.486 . S
C429 C119 1.122 . S
C435 C139 1.106 . S
C449 C129 1.453 . S
C455 C144 1.406 . S
C469 C89 1.509 . S
C475 C159 1.527 . S
C489 C189 1.414 . S
C495 C2 1.350 . S
C509 C204 0.754 . S
C515 C32 0.694 . S
C529 C42 1.198 . S
C535 C269 1.227 . S
C549 C179 1.018 . S
C555 C78 1.013 . S
C569 C238 1.190 . S
C575 C99 1.198 . S
C589 C282 1.400 . S
C595 C109 1.472 . S
C609 C124 0.689 . S
C615 C252 0.672 . S
C629 C309 1.190 . S
C635 C149 1.181 . S
C649 C169 1.520 . S
C655 C279 1.502 . S
C669 C184 1.529 . S
C675 C164 1.561 . S
C689 C219 1.082 . S
C695 C199 1.117 . S
C709 C298 1.813 . S
C715 C222 1.759 . S
C729 C258 1.086 . S
C735 C319 1.089 . S
C749 C224 1.745 . S
C755 C19 1.786 . S
C769 C244 1.392 . S
C775 C9 1.426 . S
C789 C259 1.119 . S
C795 C59 1.123 . S
C809 C49 1.260 . S
C815 C229 1.269 . S
C829 C182 1.487 . S
C835 C82 1.550 . S
C849 C198 1.103 . S
C855 C138 1.114 . S
C869 C262 1.398 . S
C875 C132 1.473 . S
C889 C92 1.507 . S
C895 C278 1.529 . S
C909 C112 1.428 . S
C915 C4 1.326 . S
C929 C202 0.752 . S
C935 C249 0.728 . S
C949 C44 1.236 . S
C955 C152 1.224 . S
C969 C178 1.015 . S
C975 C239 1.016 . S
C989 C79 1.165 . S
C995 C98 1.189 . S
C1009 C192 1.476 . S
C1015 C284 1.396 . S
C1029 C122 0.693 . S
C1035 C29 0.717 . S
C1049 C312 1.214 . S
C1055 C272 1.167 . S
C1069 C172 1.506 . S
C1075 C158 1.519 . S
C1089 C162 1.578 . S
C1095 C102 1.528 . S
C1109 C218 1.096 . S
C1115 C118 1.097 . S
C1129 C64 1.768 . S
C1135 C299 1.828 . S
C1149 C39 1.082 . S
C1155 C318 1.086 . S
C1169 C242 1.232 . S
C1175 C292 1.220 . S
C1189 C232 1.400 . S
C1195 C304 1.295 . S
C1209 C209 1.442 . S
C1215 C264 1.341 . S
C1229 C289 1.219 . S
C1235 C24 1.215 . S
C1249 C69 1.377 . S
C1255 C302 1.325 . S
C1269 C142 1.344 . S
C1275 C212 1.457 . S
