# Generated by pormake.
# Topology mer, (4)-cn, num edge types: 1
# Building blocks:
#     Node 0, Type 0, BuildingBlock: TATPOV_clean_sbu_0, # of connection points: 4
#     Node 1, Type 0, BuildingBlock: TATPOV_clean_sbu_0, # of connection points: 4
#     Node 2, Type 0, BuildingBlock: TATPOV_clean_sbu_0, # of connection points: 4
#     Node 3, Type 0, BuildingBlock: TATPOV_clean_sbu_0, # of connection points: 4
#     Node 4, Type 0, BuildingBlock: TATPOV_clean_sbu_0, # of connection points: 4
#     Node 5, Type 0, BuildingBlock: TATPOV_clean_sbu_0, # of connection points: 4
#     Node 6, Type 0, BuildingBlock: TATPOV_clean_sbu_0, # of connection points: 4
#     Node 7, Type 0, BuildingBlock: TATPOV_clean_sbu_0, # of connection points: 4
#     Node 8, Type 0, BuildingBlock: TATPOV_clean_sbu_0, # of connection points: 4
#     Node 9, Type 0, BuildingBlock: TATPOV_clean_sbu_0, # of connection points: 4
#     Node 10, Type 0, BuildingBlock: TATPOV_clean_sbu_0, # of connection points: 4
#     Node 11, Type 0, BuildingBlock: TATPOV_clean_sbu_0, # of connection points: 4
#     Node 12, Type 0, BuildingBlock: TATPOV_clean_sbu_0, # of connection points: 4
#     Node 13, Type 0, BuildingBlock: TATPOV_clean_sbu_0, # of connection points: 4
#     Node 14, Type 0, BuildingBlock: TATPOV_clean_sbu_0, # of connection points: 4
#     Node 15, Type 0, BuildingBlock: TATPOV_clean_sbu_0, # of connection points: 4
#     Node 16, Type 0, BuildingBlock: TATPOV_clean_sbu_0, # of connection points: 4
#     Node 17, Type 0, BuildingBlock: TATPOV_clean_sbu_0, # of connection points: 4
#     Node 18, Type 0, BuildingBlock: TATPOV_clean_sbu_0, # of connection points: 4
#     Node 19, Type 0, BuildingBlock: TATPOV_clean_sbu_0, # of connection points: 4
#     Node 20, Type 0, BuildingBlock: TATPOV_clean_sbu_0, # of connection points: 4
#     Node 21, Type 0, BuildingBlock: TATPOV_clean_sbu_0, # of connection points: 4
#     Node 22, Type 0, BuildingBlock: TATPOV_clean_sbu_0, # of connection points: 4
#     Node 23, Type 0, BuildingBlock: TATPOV_clean_sbu_0, # of connection points: 4
#     Node 24, Type 0, BuildingBlock: TATPOV_clean_sbu_0, # of connection points: 4
#     Node 25, Type 0, BuildingBlock: TATPOV_clean_sbu_0, # of connection points: 4
#     Node 26, Type 0, BuildingBlock: TATPOV_clean_sbu_0, # of connection points: 4
#     Node 27, Type 0, BuildingBlock: TATPOV_clean_sbu_0, # of connection points: 4
#     Node 28, Type 0, BuildingBlock: TATPOV_clean_sbu_0, # of connection points: 4
#     Node 29, Type 0, BuildingBlock: TATPOV_clean_sbu_0, # of connection points: 4
#     Node 30, Type 0, BuildingBlock: TATPOV_clean_sbu_0, # of connection points: 4
#     Node 31, Type 0, BuildingBlock: TATPOV_clean_sbu_0, # of connection points: 4
#     Edge 32, Type (0, 0), BuildingBlock: EZIPEK_clean_linker_0, # of connection points: 2
#     Edge 33, Type (0, 0), BuildingBlock: EZIPEK_clean_linker_0, # of connection points: 2
#     Edge 34, Type (0, 0), BuildingBlock: EZIPEK_clean_linker_0, # of connection points: 2
#     Edge 35, Type (0, 0), BuildingBlock: EZIPEK_clean_linker_0, # of connection points: 2
#     Edge 36, Type (0, 0), BuildingBlock: EZIPEK_clean_linker_0, # of connection points: 2
#     Edge 37, Type (0, 0), BuildingBlock: EZIPEK_clean_linker_0, # of connection points: 2
#     Edge 38, Type (0, 0), BuildingBlock: EZIPEK_clean_linker_0, # of connection points: 2
#     Edge 39, Type (0, 0), BuildingBlock: EZIPEK_clean_linker_0, # of connection points: 2
#     Edge 40, Type (0, 0), BuildingBlock: EZIPEK_clean_linker_0, # of connection points: 2
#     Edge 41, Type (0, 0), BuildingBlock: EZIPEK_clean_linker_0, # of connection points: 2
#     Edge 42, Type (0, 0), BuildingBlock: EZIPEK_clean_linker_0, # of connection points: 2
#     Edge 43, Type (0, 0), BuildingBlock: EZIPEK_clean_linker_0, # of connection points: 2
#     Edge 44, Type (0, 0), BuildingBlock: EZIPEK_clean_linker_0, # of connection points: 2
#     Edge 45, Type (0, 0), BuildingBlock: EZIPEK_clean_linker_0, # of connection points: 2
#     Edge 46, Type (0, 0), BuildingBlock: EZIPEK_clean_linker_0, # of connection points: 2
#     Edge 47, Type (0, 0), BuildingBlock: EZIPEK_clean_linker_0, # of connection points: 2
#     Edge 48, Type (0, 0), BuildingBlock: EZIPEK_clean_linker_0, # of connection points: 2
#     Edge 49, Type (0, 0), BuildingBlock: EZIPEK_clean_linker_0, # of connection points: 2
#     Edge 50, Type (0, 0), BuildingBlock: EZIPEK_clean_linker_0, # of connection points: 2
#     Edge 51, Type (0, 0), BuildingBlock: EZIPEK_clean_linker_0, # of connection points: 2
#     Edge 52, Type (0, 0), BuildingBlock: EZIPEK_clean_linker_0, # of connection points: 2
#     Edge 53, Type (0, 0), BuildingBlock: EZIPEK_clean_linker_0, # of connection points: 2
#     Edge 54, Type (0, 0), BuildingBlock: EZIPEK_clean_linker_0, # of connection points: 2
#     Edge 55, Type (0, 0), BuildingBlock: EZIPEK_clean_linker_0, # of connection points: 2
#     Edge 56, Type (0, 0), BuildingBlock: EZIPEK_clean_linker_0, # of connection points: 2
#     Edge 57, Type (0, 0), BuildingBlock: EZIPEK_clean_linker_0, # of connection points: 2
#     Edge 58, Type (0, 0), BuildingBlock: EZIPEK_clean_linker_0, # of connection points: 2
#     Edge 59, Type (0, 0), BuildingBlock: EZIPEK_clean_linker_0, # of connection points: 2
#     Edge 60, Type (0, 0), BuildingBlock: EZIPEK_clean_linker_0, # of connection points: 2
#     Edge 61, Type (0, 0), BuildingBlock: EZIPEK_clean_linker_0, # of connection points: 2
#     Edge 62, Type (0, 0), BuildingBlock: EZIPEK_clean_linker_0, # of connection points: 2
#     Edge 63, Type (0, 0), BuildingBlock: EZIPEK_clean_linker_0, # of connection points: 2
#     Edge 64, Type (0, 0), BuildingBlock: EZIPEK_clean_linker_0, # of connection points: 2
#     Edge 65, Type (0, 0), BuildingBlock: EZIPEK_clean_linker_0, # of connection points: 2
#     Edge 66, Type (0, 0), BuildingBlock: EZIPEK_clean_linker_0, # of connection points: 2
#     Edge 67, Type (0, 0), BuildingBlock: EZIPEK_clean_linker_0, # of connection points: 2
#     Edge 68, Type (0, 0), BuildingBlock: EZIPEK_clean_linker_0, # of connection points: 2
#     Edge 69, Type (0, 0), BuildingBlock: EZIPEK_clean_linker_0, # of connection points: 2
#     Edge 70, Type (0, 0), BuildingBlock: EZIPEK_clean_linker_0, # of connection points: 2
#     Edge 71, Type (0, 0), BuildingBlock: EZIPEK_clean_linker_0, # of connection points: 2
#     Edge 72, Type (0, 0), BuildingBlock: EZIPEK_clean_linker_0, # of connection points: 2
#     Edge 73, Type (0, 0), BuildingBlock: EZIPEK_clean_linker_0, # of connection points: 2
#     Edge 74, Type (0, 0), BuildingBlock: EZIPEK_clean_linker_0, # of connection points: 2
#     Edge 75, Type (0, 0), BuildingBlock: EZIPEK_clean_linker_0, # of connection points: 2
#     Edge 76, Type (0, 0), BuildingBlock: EZIPEK_clean_linker_0, # of connection points: 2
#     Edge 77, Type (0, 0), BuildingBlock: EZIPEK_clean_linker_0, # of connection points: 2
#     Edge 78, Type (0, 0), BuildingBlock: EZIPEK_clean_linker_0, # of connection points: 2
#     Edge 79, Type (0, 0), BuildingBlock: EZIPEK_clean_linker_0, # of connection points: 2
#     Edge 80, Type (0, 0), BuildingBlock: EZIPEK_clean_linker_0, # of connection points: 2
#     Edge 81, Type (0, 0), BuildingBlock: EZIPEK_clean_linker_0, # of connection points: 2
#     Edge 82, Type (0, 0), BuildingBlock: EZIPEK_clean_linker_0, # of connection points: 2
#     Edge 83, Type (0, 0), BuildingBlock: EZIPEK_clean_linker_0, # of connection points: 2
#     Edge 84, Type (0, 0), BuildingBlock: EZIPEK_clean_linker_0, # of connection points: 2
#     Edge 85, Type (0, 0), BuildingBlock: EZIPEK_clean_linker_0, # of connection points: 2
#     Edge 86, Type (0, 0), BuildingBlock: EZIPEK_clean_linker_0, # of connection points: 2
#     Edge 87, Type (0, 0), BuildingBlock: EZIPEK_clean_linker_0, # of connection points: 2
#     Edge 88, Type (0, 0), BuildingBlock: EZIPEK_clean_linker_0, # of connection points: 2
#     Edge 89, Type (0, 0), BuildingBlock: EZIPEK_clean_linker_0, # of connection points: 2
#     Edge 90, Type (0, 0), BuildingBlock: EZIPEK_clean_linker_0, # of connection points: 2
#     Edge 91, Type (0, 0), BuildingBlock: EZIPEK_clean_linker_0, # of connection points: 2
#     Edge 92, Type (0, 0), BuildingBlock: EZIPEK_clean_linker_0, # of connection points: 2
#     Edge 93, Type (0, 0), BuildingBlock: EZIPEK_clean_linker_0, # of connection points: 2
#     Edge 94, Type (0, 0), BuildingBlock: EZIPEK_clean_linker_0, # of connection points: 2
#     Edge 95, Type (0, 0), BuildingBlock: EZIPEK_clean_linker_0, # of connection points: 2
# Relax obj value: 0.148
# Max RMSD: 0.148
# Mean RMSD: 0.148
data_MOF--net-mer--node1-TATPOV_clean_sbu_0--edge1-EZIPEK_clean_linker_0
_symmetry_space_group_name_H-M    P1
_symmetry_Int_Tables_number       1
_symmetry_cell_setting            triclinic
loop_
_symmetry_equiv_pos_as_xyz
'x, y, z'
_cell_length_a     52.815509
_cell_length_b     52.116476
_cell_length_c     34.233423
_cell_angle_alpha  89.88896
_cell_angle_beta   89.996818
_cell_angle_gamma 90.136269
loop_
_atom_site_label
_atom_site_type_symbol
_atom_site_fract_x
_atom_site_fract_y
_atom_site_fract_z
_atom_type_partial_charge
Zn0 Zn 0.05651 0.20336 0.34312 0.0
Zn1 Zn 0.0783 0.24299 0.30677 0.0
O2 O 0.04129 0.24324 0.28586 0.0
O3 O 0.0237 0.2101 0.31543 0.0
O4 O 0.09621 0.26996 0.27452 0.0
O5 O 0.0823 0.1782 0.32327 0.0
O6 O 0.10116 0.21155 0.29628 0.0
C7 C 0.02195 0.22922 0.29277 0.0
C8 C 0.07415 0.24375 0.39516 0.0
O9 O 0.08102 0.25525 0.36398 0.0
O10 O 0.06357 0.22195 0.3937 0.0
C11 C 0.09509 0.29404 0.27996 0.0
O12 O 0.0809 0.30327 0.30811 0.0
C13 C 0.10065 0.18766 0.30438 0.0
Zn14 Zn 0.74735 0.06607 0.34503 0.0
Zn15 Zn 0.70762 0.08789 0.31039 0.0
O16 O 0.70705 0.05027 0.2899 0.0
O17 O 0.74065 0.03288 0.31746 0.0
O18 O 0.68 0.1058 0.27994 0.0
O19 O 0.77174 0.09235 0.32435 0.0
O20 O 0.73852 0.11125 0.29818 0.0
C21 C 0.72129 0.0309 0.29595 0.0
C22 C 0.70846 0.08356 0.39883 0.0
O23 O 0.69666 0.0906 0.36815 0.0
O24 O 0.72989 0.07283 0.39645 0.0
C25 C 0.65712 0.09833 0.27795 0.0
O26 O 0.6499 0.0776 0.29683 0.0
C27 C 0.76219 0.11084 0.30554 0.0
Zn28 Zn 0.88376 0.7535 0.34377 0.0
Zn29 Zn 0.86163 0.71379 0.30847 0.0
O30 O 0.89859 0.71318 0.28722 0.0
O31 O 0.91638 0.7465 0.31583 0.0
O32 O 0.8434 0.68627 0.27783 0.0
O33 O 0.85794 0.77863 0.32384 0.0
O34 O 0.83885 0.74532 0.29732 0.0
C35 C 0.91801 0.72719 0.29366 0.0
C36 C 0.86645 0.71356 0.39684 0.0
O37 O 0.85919 0.70202 0.36599 0.0
O38 O 0.87713 0.7353 0.39488 0.0
C39 C 0.85114 0.6634 0.27346 0.0
O40 O 0.87241 0.65604 0.28981 0.0
C41 C 0.8395 0.76923 0.30512 0.0
Zn42 Zn 0.19298 0.89026 0.34817 0.0
Zn43 Zn 0.23165 0.86863 0.31054 0.0
O44 O 0.23164 0.9063 0.29051 0.0
O45 O 0.19932 0.92383 0.32111 0.0
O46 O 0.2576 0.85128 0.27633 0.0
O47 O 0.16786 0.86435 0.32823 0.0
O48 O 0.20043 0.84549 0.30031 0.0
C49 C 0.21794 0.9258 0.29805 0.0
C50 C 0.23346 0.87194 0.39891 0.0
O51 O 0.2445 0.86527 0.3674 0.0
O52 O 0.21193 0.88259 0.39806 0.0
C53 C 0.28114 0.84901 0.28308 0.0
O54 O 0.29091 0.85885 0.31502 0.0
C55 C 0.17694 0.84595 0.30878 0.0
Zn56 Zn 0.05784 0.75233 0.60956 0.0
Zn57 Zn 0.0793 0.71328 0.64746 0.0
O58 O 0.04203 0.71283 0.66684 0.0
O59 O 0.02512 0.74664 0.63824 0.0
O60 O 0.09637 0.68641 0.6808 0.0
O61 O 0.08438 0.77732 0.62766 0.0
O62 O 0.10175 0.745 0.65926 0.0
C63 C 0.02302 0.72727 0.66035 0.0
C64 C 0.07541 0.71144 0.55887 0.0
O65 O 0.08298 0.70079 0.59033 0.0
O66 O 0.0641 0.73283 0.5597 0.0
C67 C 0.09423 0.6623 0.67641 0.0
O68 O 0.07983 0.65309 0.64845 0.0
C69 C 0.10194 0.7685 0.64884 0.0
Zn70 Zn 0.19351 0.06835 0.61005 0.0
Zn71 Zn 0.2327 0.0897 0.64675 0.0
O72 O 0.23264 0.05178 0.66593 0.0
O73 O 0.19926 0.03476 0.63713 0.0
O74 O 0.25953 0.10658 0.68008 0.0
O75 O 0.16888 0.09449 0.63012 0.0
O76 O 0.20176 0.113 0.65802 0.0
C77 C 0.21836 0.03251 0.65913 0.0
C78 C 0.23377 0.0864 0.55845 0.0
O79 O 0.245 0.09332 0.5897 0.0
O80 O 0.21226 0.07564 0.55976 0.0
C81 C 0.28316 0.1023 0.67788 0.0
O82 O 0.29182 0.08574 0.65231 0.0
C83 C 0.17821 0.11273 0.64972 0.0
Zn84 Zn 0.88527 0.20448 0.61043 0.0
Zn85 Zn 0.86329 0.24387 0.6467 0.0
O86 O 0.90044 0.24498 0.66687 0.0
O87 O 0.91776 0.21112 0.63914 0.0
O88 O 0.84495 0.27099 0.67788 0.0
O89 O 0.85908 0.17938 0.62923 0.0
O90 O 0.84116 0.212 0.65917 0.0
C91 C 0.91961 0.23066 0.66081 0.0
C92 C 0.86755 0.24434 0.55802 0.0
O93 O 0.86005 0.25547 0.58908 0.0
O94 O 0.87889 0.223 0.55969 0.0
C95 C 0.85318 0.29335 0.6856 0.0
O96 O 0.87551 0.30061 0.67273 0.0
C97 C 0.84128 0.18835 0.64972 0.0
Zn98 Zn 0.74687 0.88971 0.60519 0.0
Zn99 Zn 0.70895 0.86742 0.64434 0.0
O100 O 0.70857 0.9049 0.66471 0.0
O101 O 0.74079 0.92272 0.63391 0.0
O102 O 0.68344 0.84915 0.67824 0.0
O103 O 0.77207 0.86336 0.62339 0.0
O104 O 0.74051 0.84518 0.65519 0.0
C105 C 0.72235 0.92445 0.65734 0.0
C106 C 0.70612 0.87113 0.55572 0.0
O107 O 0.69591 0.86366 0.58755 0.0
O108 O 0.72724 0.88266 0.55588 0.0
C109 C 0.65949 0.8498 0.67506 0.0
O110 O 0.64894 0.86365 0.64744 0.0
C111 C 0.76365 0.84541 0.64467 0.0
Zn112 Zn 0.88502 0.75276 0.60973 0.0
Zn113 Zn 0.86246 0.71326 0.64542 0.0
O114 O 0.89929 0.71272 0.66731 0.0
O115 O 0.91742 0.7457 0.63807 0.0
O116 O 0.84369 0.68618 0.67653 0.0
O117 O 0.85947 0.77817 0.62914 0.0
O118 O 0.83992 0.74504 0.65562 0.0
C119 C 0.91879 0.72661 0.66084 0.0
C120 C 0.86741 0.71288 0.55704 0.0
O121 O 0.8602 0.70134 0.588 0.0
O122 O 0.87823 0.73454 0.55886 0.0
C123 C 0.85284 0.665 0.68835 0.0
O124 O 0.87635 0.65902 0.67996 0.0
C125 C 0.84084 0.76893 0.64763 0.0
Zn126 Zn 0.19368 0.89101 0.60906 0.0
Zn127 Zn 0.23238 0.86925 0.64675 0.0
O128 O 0.23249 0.90701 0.66636 0.0
O129 O 0.20005 0.92455 0.63599 0.0
O130 O 0.25841 0.85192 0.68102 0.0
O131 O 0.1686 0.86506 0.62921 0.0
O132 O 0.2011 0.84627 0.65757 0.0
C133 C 0.21875 0.92651 0.65887 0.0
C134 C 0.23389 0.87241 0.55824 0.0
O135 O 0.24489 0.86557 0.58974 0.0
O136 O 0.21251 0.88332 0.55911 0.0
C137 C 0.28128 0.84699 0.6723 0.0
O138 O 0.29032 0.85391 0.63812 0.0
C139 C 0.17762 0.84672 0.64898 0.0
Zn140 Zn 0.05791 0.20539 0.60923 0.0
Zn141 Zn 0.08002 0.24554 0.64423 0.0
O142 O 0.04319 0.24604 0.66583 0.0
O143 O 0.0256 0.21218 0.63841 0.0
O144 O 0.09849 0.27366 0.67344 0.0
O145 O 0.08472 0.18111 0.62852 0.0
O146 O 0.10264 0.21429 0.65724 0.0
C147 C 0.02393 0.23169 0.66019 0.0
C148 C 0.07469 0.24477 0.55544 0.0
O149 O 0.08242 0.25629 0.58606 0.0
O150 O 0.0636 0.22328 0.55781 0.0
C151 C 0.08828 0.29274 0.69027 0.0
O152 O 0.06365 0.29588 0.68881 0.0
C153 C 0.10264 0.19053 0.64841 0.0
Zn154 Zn 0.7501 0.06551 0.61065 0.0
Zn155 Zn 0.71118 0.08739 0.6472 0.0
O156 O 0.71036 0.04961 0.66678 0.0
O157 O 0.74348 0.03216 0.63807 0.0
O158 O 0.68527 0.10544 0.68051 0.0
O159 O 0.77529 0.09133 0.63049 0.0
O160 O 0.74257 0.11015 0.65806 0.0
C161 C 0.72431 0.03016 0.66 0.0
C162 C 0.70999 0.08383 0.55903 0.0
O163 O 0.69884 0.0909 0.59023 0.0
O164 O 0.73138 0.07293 0.56038 0.0
C165 C 0.66133 0.10425 0.67733 0.0
O166 O 0.65103 0.08992 0.65007 0.0
C167 C 0.76612 0.10969 0.64992 0.0
Zn168 Zn 0.88285 0.20339 0.34555 0.0
Zn169 Zn 0.86148 0.24337 0.30939 0.0
O170 O 0.89854 0.24371 0.28879 0.0
O171 O 0.91535 0.20948 0.31642 0.0
O172 O 0.84347 0.27085 0.2784 0.0
O173 O 0.85595 0.17897 0.32686 0.0
O174 O 0.83866 0.21205 0.29704 0.0
C175 C 0.91748 0.22903 0.29469 0.0
C176 C 0.86626 0.24367 0.39798 0.0
O177 O 0.85872 0.25492 0.367 0.0
O178 O 0.87713 0.22208 0.39629 0.0
C179 C 0.85325 0.29126 0.26463 0.0
O180 O 0.87729 0.29634 0.2708 0.0
C181 C 0.83831 0.18837 0.30644 0.0
Zn182 Zn 0.74568 0.88963 0.34638 0.0
Zn183 Zn 0.70733 0.86775 0.30813 0.0
O184 O 0.70699 0.90547 0.28835 0.0
O185 O 0.73953 0.92304 0.31855 0.0
O186 O 0.68083 0.85031 0.27493 0.0
O187 O 0.77058 0.86329 0.32743 0.0
O188 O 0.73869 0.84518 0.29644 0.0
C189 C 0.7208 0.92499 0.29571 0.0
C190 C 0.70547 0.87107 0.39687 0.0
O191 O 0.69483 0.86391 0.36524 0.0
O192 O 0.72669 0.88241 0.39622 0.0
C193 C 0.65713 0.8541 0.27727 0.0
O194 O 0.6482 0.87054 0.3028 0.0
C195 C 0.76193 0.84534 0.30648 0.0
Zn196 Zn 0.05715 0.75168 0.34834 0.0
Zn197 Zn 0.07858 0.71248 0.31079 0.0
O198 O 0.04135 0.71222 0.29098 0.0
O199 O 0.02448 0.74602 0.31953 0.0
O200 O 0.09589 0.68555 0.27787 0.0
O201 O 0.0837 0.7766 0.33002 0.0
O202 O 0.10116 0.74415 0.299 0.0
C203 C 0.02238 0.72676 0.29732 0.0
C204 C 0.07469 0.71093 0.39949 0.0
O205 O 0.08207 0.70012 0.3681 0.0
O206 O 0.06345 0.73234 0.39844 0.0
C207 C 0.09616 0.6616 0.28493 0.0
O208 O 0.08406 0.65248 0.31548 0.0
C209 C 0.10133 0.76769 0.30912 0.0
Zn210 Zn 0.19359 0.06773 0.34795 0.0
Zn211 Zn 0.23262 0.08886 0.31017 0.0
O212 O 0.23257 0.05097 0.29139 0.0
O213 O 0.19905 0.03426 0.32036 0.0
O214 O 0.25977 0.10566 0.27723 0.0
O215 O 0.16932 0.09439 0.32843 0.0
O216 O 0.20163 0.11179 0.29737 0.0
C217 C 0.2181 0.03184 0.29831 0.0
C218 C 0.23375 0.08567 0.39892 0.0
O219 O 0.24466 0.09275 0.36743 0.0
O220 O 0.21243 0.07455 0.39803 0.0
C221 C 0.28339 0.10157 0.28049 0.0
O222 O 0.2917 0.08527 0.30681 0.0
C223 C 0.17833 0.11203 0.30713 0.0
Zn224 Zn 0.55986 0.69834 0.84884 0.0
Zn225 Zn 0.57874 0.73848 0.80945 0.0
O226 O 0.54109 0.73693 0.79246 0.0
O227 O 0.52612 0.70259 0.8224 0.0
O228 O 0.59369 0.76575 0.77418 0.0
O229 O 0.58688 0.67467 0.82882 0.0
O230 O 0.60229 0.70788 0.79673 0.0
C231 C 0.52278 0.72176 0.80028 0.0
C232 C 0.57702 0.74028 0.89818 0.0
O233 O 0.58308 0.75132 0.86623 0.0
O234 O 0.56685 0.71826 0.89815 0.0
C235 C 0.60391 0.78665 0.78507 0.0
O236 O 0.60434 0.79272 0.82227 0.0
C237 C 0.60364 0.68438 0.80691 0.0
Zn238 Zn 0.24267 0.56313 0.84954 0.0
Zn239 Zn 0.20458 0.58608 0.81226 0.0
O240 O 0.20364 0.54856 0.79168 0.0
O241 O 0.23578 0.53011 0.82156 0.0
O242 O 0.17847 0.60412 0.77912 0.0
O243 O 0.26823 0.58875 0.83007 0.0
O244 O 0.23632 0.60843 0.80146 0.0
C245 C 0.21709 0.52875 0.79856 0.0
C246 C 0.20298 0.58217 0.90076 0.0
O247 O 0.19224 0.58964 0.86937 0.0
O248 O 0.22402 0.5706 0.89968 0.0
C249 C 0.15471 0.60054 0.7813 0.0
O250 O 0.14549 0.5841 0.80673 0.0
C251 C 0.25974 0.60736 0.81032 0.0
Zn252 Zn 0.38099 0.25278 0.85029 0.0
Zn253 Zn 0.36071 0.21316 0.81198 0.0
O254 O 0.39792 0.21412 0.79228 0.0
O255 O 0.41416 0.24754 0.82273 0.0
O256 O 0.344 0.18613 0.77843 0.0
O257 O 0.35432 0.27719 0.83106 0.0
O258 O 0.33752 0.24421 0.80033 0.0
C259 C 0.41672 0.2287 0.79983 0.0
C260 C 0.3641 0.21133 0.90076 0.0
O261 O 0.35746 0.20027 0.86914 0.0
O262 O 0.37441 0.23327 0.9001 0.0
C263 C 0.3453 0.162 0.7833 0.0
O264 O 0.35886 0.15253 0.81206 0.0
C265 C 0.33692 0.26778 0.81014 0.0
Zn266 Zn 0.69593 0.38923 0.84349 0.0
Zn267 Zn 0.73545 0.36724 0.80868 0.0
O268 O 0.73642 0.40477 0.78802 0.0
O269 O 0.70251 0.42215 0.81459 0.0
O270 O 0.76329 0.34931 0.77893 0.0
O271 O 0.67182 0.36221 0.82428 0.0
O272 O 0.7045 0.34422 0.79534 0.0
C273 C 0.72209 0.42413 0.79348 0.0
C274 C 0.73467 0.37219 0.89733 0.0
O275 O 0.74611 0.3645 0.86671 0.0
O276 O 0.7135 0.38339 0.89492 0.0
C277 C 0.78624 0.35666 0.77797 0.0
O278 O 0.79327 0.37715 0.79748 0.0
C279 C 0.68104 0.34415 0.80424 0.0
Zn280 Zn 0.55985 0.25197 0.10996 0.0
Zn281 Zn 0.58136 0.21215 0.14601 0.0
O282 O 0.54423 0.21154 0.16655 0.0
O283 O 0.52715 0.24534 0.13822 0.0
O284 O 0.59939 0.18466 0.17711 0.0
O285 O 0.58634 0.27668 0.1292 0.0
O286 O 0.60397 0.24362 0.1586 0.0
C287 C 0.52509 0.22587 0.16013 0.0
C288 C 0.57698 0.21224 0.05724 0.0
O289 O 0.58436 0.20081 0.08819 0.0
O290 O 0.56605 0.23379 0.05907 0.0
C291 C 0.5912 0.16218 0.18424 0.0
O292 O 0.56907 0.15492 0.17064 0.0
C293 C 0.60411 0.26735 0.14946 0.0
Zn294 Zn 0.69688 0.56438 0.1115 0.0
Zn295 Zn 0.73609 0.58719 0.14636 0.0
O296 O 0.7369 0.54983 0.16809 0.0
O297 O 0.704 0.53153 0.1399 0.0
O298 O 0.76326 0.60572 0.17691 0.0
O299 O 0.6721 0.59045 0.1315 0.0
O300 O 0.70491 0.61003 0.15788 0.0
C301 C 0.72308 0.5301 0.1621 0.0
C302 C 0.73583 0.5822 0.05791 0.0
O303 O 0.74731 0.58973 0.08861 0.0
O304 O 0.71453 0.5711 0.06018 0.0
C305 C 0.78605 0.59829 0.18042 0.0
O306 O 0.79344 0.57707 0.16325 0.0
C307 C 0.68129 0.60916 0.15022 0.0
Zn308 Zn 0.38433 0.70234 0.10749 0.0
Zn309 Zn 0.36365 0.74154 0.1461 0.0
O310 O 0.40105 0.74102 0.16514 0.0
O311 O 0.41775 0.70826 0.13381 0.0
O312 O 0.34694 0.76757 0.18132 0.0
O313 O 0.35871 0.67699 0.12773 0.0
O314 O 0.34068 0.71003 0.15645 0.0
C315 C 0.42008 0.72696 0.15704 0.0
C316 C 0.36588 0.74374 0.05766 0.0
O317 O 0.35972 0.75483 0.08944 0.0
O318 O 0.37634 0.7219 0.05805 0.0
C319 C 0.34053 0.79034 0.17246 0.0
O320 O 0.34555 0.79945 0.13751 0.0
C321 C 0.3408 0.68627 0.14768 0.0
Zn322 Zn 0.2504 0.39002 0.11589 0.0
Zn323 Zn 0.21128 0.36814 0.1522 0.0
O324 O 0.21098 0.40586 0.17189 0.0
O325 O 0.24416 0.42341 0.14317 0.0
O326 O 0.18414 0.35083 0.18446 0.0
O327 O 0.2751 0.36386 0.1358 0.0
O328 O 0.24229 0.34486 0.16328 0.0
C329 C 0.22501 0.42535 0.16512 0.0
C330 C 0.21047 0.37217 0.06392 0.0
O331 O 0.19921 0.36511 0.09509 0.0
O332 O 0.23194 0.38298 0.06534 0.0
C333 C 0.16056 0.35492 0.18068 0.0
O334 O 0.15252 0.37149 0.15454 0.0
C335 C 0.26584 0.34534 0.15499 0.0
Zn336 Zn 0.38468 0.25143 0.11038 0.0
Zn337 Zn 0.3637 0.21212 0.14865 0.0
O338 O 0.4013 0.21163 0.16686 0.0
O339 O 0.4178 0.24562 0.13789 0.0
O340 O 0.34648 0.18529 0.18214 0.0
O341 O 0.35856 0.27637 0.12973 0.0
O342 O 0.34155 0.24379 0.16138 0.0
C343 C 0.42023 0.22621 0.15981 0.0
C344 C 0.36618 0.21073 0.0599 0.0
O345 O 0.35914 0.19989 0.09154 0.0
O346 O 0.37752 0.23216 0.06053 0.0
C347 C 0.34744 0.16116 0.17719 0.0
O348 O 0.36106 0.15162 0.14862 0.0
C349 C 0.34127 0.26736 0.15135 0.0
Zn350 Zn 0.69542 0.39015 0.11186 0.0
Zn351 Zn 0.7349 0.36767 0.14636 0.0
O352 O 0.73593 0.40514 0.1672 0.0
O353 O 0.70242 0.42306 0.14019 0.0
O354 O 0.76255 0.34968 0.17637 0.0
O355 O 0.67094 0.36368 0.13209 0.0
O356 O 0.70389 0.3445 0.15859 0.0
C357 C 0.72188 0.4247 0.16158 0.0
C358 C 0.73425 0.37258 0.05798 0.0
O359 O 0.74576 0.36499 0.08861 0.0
O360 O 0.71302 0.3837 0.06036 0.0
C361 C 0.78601 0.35446 0.17235 0.0
O362 O 0.7935 0.37211 0.14744 0.0
C363 C 0.68026 0.34509 0.15095 0.0
Zn364 Zn 0.56072 0.70094 0.1086 0.0
Zn365 Zn 0.58131 0.74075 0.14572 0.0
O366 O 0.54385 0.74068 0.16425 0.0
O367 O 0.52762 0.70632 0.1362 0.0
O368 O 0.59792 0.7681 0.17872 0.0
O369 O 0.58733 0.67653 0.12784 0.0
O370 O 0.60415 0.70955 0.15846 0.0
C371 C 0.52505 0.72588 0.15764 0.0
C372 C 0.5781 0.74175 0.05716 0.0
O373 O 0.58522 0.7529 0.08844 0.0
O374 O 0.56721 0.7201 0.05839 0.0
C375 C 0.59606 0.79215 0.17347 0.0
O376 O 0.58207 0.8011 0.14482 0.0
C377 C 0.60471 0.68594 0.14883 0.0
Zn378 Zn 0.24594 0.56609 0.10931 0.0
Zn379 Zn 0.20799 0.58791 0.14849 0.0
O380 O 0.20833 0.55047 0.16946 0.0
O381 O 0.24053 0.53305 0.13839 0.0
O382 O 0.18169 0.60545 0.18188 0.0
O383 O 0.27085 0.59286 0.12691 0.0
O384 O 0.23938 0.61084 0.15894 0.0
C385 C 0.22227 0.53111 0.16215 0.0
C386 C 0.20496 0.58351 0.05978 0.0
O387 O 0.19477 0.5909 0.09161 0.0
O388 O 0.22626 0.57243 0.05992 0.0
C389 C 0.15815 0.60034 0.18163 0.0
O390 O 0.14934 0.58243 0.15832 0.0
C391 C 0.26247 0.61079 0.14806 0.0
Zn392 Zn 0.38121 0.69943 0.85145 0.0
Zn393 Zn 0.36125 0.73827 0.81076 0.0
O394 O 0.3986 0.73714 0.79198 0.0
O395 O 0.41454 0.70424 0.82411 0.0
O396 O 0.34477 0.76434 0.77523 0.0
O397 O 0.35457 0.67459 0.83312 0.0
O398 O 0.33823 0.70688 0.80018 0.0
C399 C 0.4173 0.72273 0.80048 0.0
C400 C 0.36398 0.74181 0.89941 0.0
O401 O 0.35743 0.75216 0.86717 0.0
O402 O 0.37437 0.71995 0.90004 0.0
C403 C 0.34095 0.78792 0.78246 0.0
O404 O 0.34882 0.79784 0.81555 0.0
C405 C 0.33742 0.68354 0.81126 0.0
Zn406 Zn 0.24559 0.38946 0.84781 0.0
Zn407 Zn 0.20564 0.36651 0.81508 0.0
O408 O 0.20436 0.40387 0.79357 0.0
O409 O 0.23812 0.42218 0.81933 0.0
O410 O 0.17755 0.34798 0.78655 0.0
O411 O 0.26982 0.36315 0.82715 0.0
O412 O 0.23654 0.34357 0.80214 0.0
C413 C 0.2184 0.42356 0.79849 0.0
C414 C 0.20773 0.3719 0.90335 0.0
O415 O 0.19573 0.36411 0.8733 0.0
O416 O 0.2289 0.38313 0.89999 0.0
C417 C 0.15653 0.35805 0.77705 0.0
O418 O 0.15171 0.38198 0.78634 0.0
C419 C 0.26027 0.34439 0.80895 0.0
Zn420 Zn 0.55875 0.25514 0.84613 0.0
Zn421 Zn 0.57822 0.21467 0.80893 0.0
O422 O 0.54058 0.21569 0.79121 0.0
O423 O 0.525 0.24989 0.82035 0.0
O424 O 0.59369 0.18745 0.77429 0.0
O425 O 0.58503 0.27936 0.8248 0.0
O426 O 0.60201 0.24542 0.797 0.0
C427 C 0.522 0.23053 0.79862 0.0
C428 C 0.5761 0.21388 0.89736 0.0
O429 O 0.58196 0.20221 0.86595 0.0
O430 O 0.56625 0.23601 0.89629 0.0
C431 C 0.60448 0.16698 0.7857 0.0
O432 O 0.60521 0.16132 0.82307 0.0
C433 C 0.60257 0.2693 0.80496 0.0
Zn434 Zn 0.69667 0.56387 0.84408 0.0
Zn435 Zn 0.73576 0.58673 0.80881 0.0
O436 O 0.73664 0.54945 0.78712 0.0
O437 O 0.7039 0.53105 0.81575 0.0
O438 O 0.76304 0.60535 0.77855 0.0
O439 O 0.67188 0.58994 0.82397 0.0
O440 O 0.70455 0.60954 0.79709 0.0
C441 C 0.7229 0.52968 0.79335 0.0
C442 C 0.73556 0.58176 0.8974 0.0
O443 O 0.74699 0.58918 0.86655 0.0
O444 O 0.71427 0.57063 0.89535 0.0
C445 C 0.78655 0.60051 0.78103 0.0
O446 O 0.79452 0.58227 0.80448 0.0
C447 C 0.68097 0.60865 0.80501 0.0
C448 C 0.13986 0.13023 0.27438 0.0
C449 C 0.16187 0.13416 0.29742 0.0
C450 C 0.1455 0.17564 0.31958 0.0
C451 C 0.12318 0.17144 0.29728 0.0
N452 N 0.10128 0.14822 0.24692 0.0
N453 N 0.18859 0.16303 0.33421 0.0
C454 C 0.1211 0.1498 0.27247 0.0
C455 C 0.16577 0.15782 0.31705 0.0
N456 N 0.13668 0.10746 0.25522 0.0
N457 N 0.14657 0.1955 0.34566 0.0
H458 H 0.20357 0.1501 0.33498 0.0
H459 H 0.19351 0.18106 0.34491 0.0
H460 H 0.13229 0.2091 0.34874 0.0
H461 H 0.16077 0.19753 0.36652 0.0
H462 H 0.11988 0.10193 0.24173 0.0
H463 H 0.15082 0.09352 0.25401 0.0
H464 H 0.09956 0.1341 0.22563 0.0
H465 H 0.08746 0.16245 0.2449 0.0
C466 C 0.77482 0.15618 0.32019 0.0
C467 C 0.77827 0.1336 0.29762 0.0
C468 C 0.81915 0.14981 0.27398 0.0
C469 C 0.81604 0.17201 0.29744 0.0
N470 N 0.78855 0.19939 0.33536 0.0
N471 N 0.80019 0.11124 0.24653 0.0
C472 C 0.79295 0.17632 0.31765 0.0
C473 C 0.79935 0.13122 0.2723 0.0
N474 N 0.75536 0.15753 0.34654 0.0
N475 N 0.84134 0.14628 0.25418 0.0
H476 H 0.78575 0.09759 0.24467 0.0
H477 H 0.81391 0.1093 0.22493 0.0
H478 H 0.85544 0.16033 0.25282 0.0
H479 H 0.84624 0.12926 0.24027 0.0
H480 H 0.75386 0.17179 0.36767 0.0
H481 H 0.74148 0.14343 0.34945 0.0
H482 H 0.77097 0.20472 0.34641 0.0
H483 H 0.80176 0.21422 0.33639 0.0
C484 C 0.79472 0.78162 0.32018 0.0
C485 C 0.81708 0.78563 0.29786 0.0
C486 C 0.80076 0.82703 0.27479 0.0
C487 C 0.77865 0.82323 0.2977 0.0
N488 N 0.75177 0.79459 0.33489 0.0
N489 N 0.83925 0.80876 0.24754 0.0
C490 C 0.7746 0.79962 0.31757 0.0
C491 C 0.81937 0.80731 0.27303 0.0
N492 N 0.79349 0.76176 0.34636 0.0
N493 N 0.80415 0.84979 0.25555 0.0
H494 H 0.85295 0.79441 0.2456 0.0
H495 H 0.84111 0.82288 0.22621 0.0
H496 H 0.79013 0.86384 0.2542 0.0
H497 H 0.82103 0.8552 0.24216 0.0
H498 H 0.77931 0.75987 0.36729 0.0
H499 H 0.80763 0.74801 0.34944 0.0
H500 H 0.7467 0.77658 0.34559 0.0
H501 H 0.73695 0.8077 0.33596 0.0
C502 C 0.14657 0.78016 0.32027 0.0
C503 C 0.12336 0.78445 0.30035 0.0
C504 C 0.13941 0.82582 0.27619 0.0
C505 C 0.16067 0.82331 0.30115 0.0
N506 N 0.18411 0.799 0.34914 0.0
N507 N 0.09752 0.8105 0.25814 0.0
C508 C 0.16448 0.80049 0.32312 0.0
C509 C 0.11986 0.80696 0.27757 0.0
N510 N 0.15129 0.75692 0.33737 0.0
N511 N 0.1382 0.84614 0.25096 0.0
H512 H 0.0836 0.79629 0.25651 0.0
H513 H 0.09234 0.82766 0.24481 0.0
H514 H 0.15244 0.86003 0.24931 0.0
H515 H 0.12437 0.84819 0.22955 0.0
H516 H 0.16896 0.75166 0.34818 0.0
H517 H 0.13824 0.74192 0.33813 0.0
H518 H 0.18594 0.78446 0.36984 0.0
H519 H 0.19781 0.81326 0.35227 0.0
C520 C 0.14731 0.78085 0.63844 0.0
C521 C 0.1239 0.78533 0.65768 0.0
C522 C 0.13979 0.82685 0.68124 0.0
C523 C 0.1613 0.82413 0.65686 0.0
N524 N 0.18516 0.7994 0.61 0.0
N525 N 0.0977 0.81173 0.69866 0.0
C526 C 0.16528 0.80112 0.63554 0.0
C527 C 0.12022 0.80802 0.67983 0.0
N528 N 0.15219 0.75747 0.622 0.0
N529 N 0.13836 0.84736 0.70597 0.0
H530 H 0.08375 0.79756 0.70033 0.0
H531 H 0.09241 0.82901 0.71144 0.0
H532 H 0.15262 0.86123 0.70765 0.0
H533 H 0.12431 0.84961 0.72698 0.0
H534 H 0.16998 0.7521 0.61184 0.0
H535 H 0.13913 0.7425 0.62118 0.0
H536 H 0.18714 0.78472 0.58966 0.0
H537 H 0.19893 0.81359 0.60688 0.0
C538 C 0.14104 0.13309 0.68262 0.0
C539 C 0.1622 0.13547 0.65743 0.0
C540 C 0.14791 0.17827 0.63721 0.0
C541 C 0.12476 0.17404 0.65743 0.0
N542 N 0.09922 0.14839 0.70079 0.0
N543 N 0.18551 0.15944 0.60879 0.0
C544 C 0.12144 0.15181 0.68093 0.0
C545 C 0.1659 0.15808 0.63488 0.0
N546 N 0.13995 0.113 0.7083 0.0
N547 N 0.15249 0.2013 0.6193 0.0
H548 H 0.19936 0.14534 0.60623 0.0
H549 H 0.18723 0.17368 0.58759 0.0
H550 H 0.13937 0.21614 0.61793 0.0
H551 H 0.17013 0.20659 0.6083 0.0
H552 H 0.12617 0.11102 0.72982 0.0
H553 H 0.15423 0.09924 0.71014 0.0
H554 H 0.09414 0.13139 0.71475 0.0
H555 H 0.0853 0.16254 0.70221 0.0
C556 C 0.7784 0.15515 0.63539 0.0
C557 C 0.78226 0.13241 0.65756 0.0
C558 C 0.82285 0.1491 0.68146 0.0
C559 C 0.81931 0.17152 0.6585 0.0
N560 N 0.79132 0.19876 0.62102 0.0
N561 N 0.80466 0.10984 0.70808 0.0
C562 C 0.79615 0.1756 0.63832 0.0
C563 C 0.80342 0.13011 0.68275 0.0
N564 N 0.75891 0.15643 0.6091 0.0
N565 N 0.84511 0.14578 0.70118 0.0
H566 H 0.79051 0.09585 0.70963 0.0
H567 H 0.81842 0.10792 0.72962 0.0
H568 H 0.85892 0.1601 0.70288 0.0
H569 H 0.85035 0.1287 0.7147 0.0
H570 H 0.75712 0.17087 0.58824 0.0
H571 H 0.74531 0.14208 0.6059 0.0
H572 H 0.77364 0.20387 0.61009 0.0
H573 H 0.80425 0.21385 0.62018 0.0
C574 C 0.79636 0.78166 0.63143 0.0
C575 C 0.81851 0.78549 0.65428 0.0
C576 C 0.80233 0.82703 0.67669 0.0
C577 C 0.7804 0.82336 0.65338 0.0
N578 N 0.75364 0.79494 0.61577 0.0
N579 N 0.8404 0.80845 0.70494 0.0
C580 C 0.77635 0.79979 0.63353 0.0
C581 C 0.82076 0.80716 0.67901 0.0
N582 N 0.79525 0.76184 0.60528 0.0
N583 N 0.80574 0.84978 0.6958 0.0
H584 H 0.85396 0.79399 0.70729 0.0
H585 H 0.84217 0.82257 0.72622 0.0
H586 H 0.79186 0.86399 0.69667 0.0
H587 H 0.82254 0.85506 0.70951 0.0
H588 H 0.78124 0.76006 0.58407 0.0
H589 H 0.80935 0.74802 0.6025 0.0
H590 H 0.74854 0.77697 0.60505 0.0
H591 H 0.73893 0.80816 0.61434 0.0
C592 C 0.6496 0.67391 0.81509 0.0
C593 C 0.62603 0.66858 0.79679 0.0
C594 C 0.64276 0.62758 0.77289 0.0
C595 C 0.66437 0.63094 0.79689 0.0
N596 N 0.68797 0.65652 0.84319 0.0
N597 N 0.60008 0.64128 0.75664 0.0
C598 C 0.66802 0.65415 0.81791 0.0
C599 C 0.62271 0.64577 0.77479 0.0
N600 N 0.65418 0.69759 0.83075 0.0
N601 N 0.64165 0.60707 0.74812 0.0
H602 H 0.58574 0.655 0.75536 0.0
H603 H 0.59512 0.62381 0.74408 0.0
H604 H 0.65628 0.5937 0.74605 0.0
H605 H 0.62748 0.60442 0.72741 0.0
H606 H 0.67198 0.70349 0.84035 0.0
H607 H 0.64089 0.7123 0.83123 0.0
H608 H 0.68973 0.6714 0.86327 0.0
H609 H 0.70201 0.64268 0.84644 0.0
C610 C 0.27316 0.65266 0.8236 0.0
C611 C 0.27671 0.62947 0.80257 0.0
C612 C 0.31848 0.64426 0.78056 0.0
C613 C 0.31517 0.66716 0.80232 0.0
N614 N 0.28724 0.69604 0.83677 0.0
N615 N 0.29949 0.60539 0.75423 0.0
C616 C 0.29168 0.67242 0.82085 0.0
C617 C 0.29839 0.62601 0.77877 0.0
N618 N 0.25316 0.65504 0.84876 0.0
N619 N 0.34111 0.63976 0.76245 0.0
H620 H 0.28485 0.59195 0.75226 0.0
H621 H 0.31369 0.60266 0.73361 0.0
H622 H 0.3555 0.65349 0.76106 0.0
H623 H 0.34604 0.62225 0.75005 0.0
H624 H 0.25143 0.66988 0.8689 0.0
H625 H 0.23902 0.64122 0.85185 0.0
H626 H 0.26948 0.70195 0.84635 0.0
H627 H 0.30067 0.71068 0.83769 0.0
C628 C 0.31762 0.30628 0.77774 0.0
C629 C 0.31459 0.28392 0.80103 0.0
C630 C 0.27318 0.29912 0.82353 0.0
C631 C 0.27652 0.32184 0.80106 0.0
N632 N 0.29841 0.34464 0.75014 0.0
N633 N 0.28714 0.25597 0.83843 0.0
C634 C 0.29767 0.32459 0.77591 0.0
C635 C 0.29145 0.2792 0.82097 0.0
N636 N 0.33989 0.31024 0.75826 0.0
N637 N 0.25373 0.2974 0.84985 0.0
H638 H 0.30045 0.24129 0.83942 0.0
H639 H 0.26955 0.25038 0.84926 0.0
H640 H 0.23977 0.31134 0.85284 0.0
H641 H 0.25233 0.28304 0.87091 0.0
H642 H 0.3447 0.3274 0.74453 0.0
H643 H 0.35414 0.29641 0.75703 0.0
H644 H 0.31219 0.34682 0.72865 0.0
H645 H 0.28385 0.35808 0.74814 0.0
C646 C 0.62338 0.30635 0.77104 0.0
C647 C 0.62541 0.28489 0.79629 0.0
C648 C 0.66838 0.29827 0.81474 0.0
C649 C 0.66453 0.3219 0.79487 0.0
N650 N 0.63942 0.34835 0.75222 0.0
N651 N 0.64916 0.26058 0.84391 0.0
C652 C 0.64241 0.32577 0.77204 0.0
C653 C 0.64797 0.28053 0.8179 0.0
N654 N 0.60327 0.30793 0.74601 0.0
N655 N 0.69129 0.29299 0.83154 0.0
H656 H 0.63487 0.24692 0.84711 0.0
H657 H 0.66353 0.25843 0.86446 0.0
H658 H 0.70639 0.30585 0.83191 0.0
H659 H 0.69615 0.27499 0.84237 0.0
H660 H 0.60145 0.32192 0.72449 0.0
H661 H 0.58928 0.29378 0.74468 0.0
H662 H 0.62263 0.35391 0.7388 0.0
H663 H 0.65378 0.36209 0.75027 0.0
C664 C 0.64947 0.2796 0.13843 0.0
C665 C 0.62629 0.28387 0.15846 0.0
C666 C 0.64279 0.32476 0.18359 0.0
C667 C 0.66402 0.32237 0.15854 0.0
N668 N 0.68714 0.29842 0.10989 0.0
N669 N 0.60076 0.30964 0.20136 0.0
C670 C 0.66758 0.29978 0.13604 0.0
C671 C 0.62304 0.30612 0.18178 0.0
N672 N 0.65398 0.25655 0.12073 0.0
N673 N 0.64179 0.34478 0.20927 0.0
H674 H 0.5867 0.29556 0.20269 0.0
H675 H 0.59576 0.32668 0.21511 0.0
H676 H 0.65619 0.35848 0.21123 0.0
H677 H 0.62797 0.34674 0.23071 0.0
H678 H 0.67163 0.25124 0.10993 0.0
H679 H 0.64078 0.24172 0.1194 0.0
H680 H 0.68874 0.28418 0.08875 0.0
H681 H 0.70103 0.31253 0.10713 0.0
C682 C 0.66837 0.65442 0.13565 0.0
C683 C 0.66488 0.63163 0.15787 0.0
C684 C 0.62377 0.64727 0.18107 0.0
C685 C 0.62697 0.66973 0.15806 0.0
N686 N 0.65464 0.69769 0.12104 0.0
N687 N 0.64269 0.60865 0.20831 0.0
C688 C 0.65018 0.67441 0.13828 0.0
C689 C 0.64363 0.62884 0.1828 0.0
N690 N 0.68794 0.65616 0.10953 0.0
N691 N 0.60144 0.64334 0.20038 0.0
H692 H 0.65716 0.59509 0.21023 0.0
H693 H 0.62884 0.60643 0.22967 0.0
H694 H 0.58728 0.65725 0.20172 0.0
H695 H 0.5965 0.62613 0.21386 0.0
H696 H 0.6895 0.67062 0.08863 0.0
H697 H 0.70184 0.64217 0.10652 0.0
H698 H 0.67228 0.70324 0.11035 0.0
H699 H 0.64141 0.71244 0.12009 0.0
C700 C 0.27537 0.65652 0.13719 0.0
C701 C 0.27942 0.63279 0.15669 0.0
C702 C 0.32068 0.64826 0.18012 0.0
C703 C 0.31831 0.67002 0.15552 0.0
N704 N 0.29427 0.69448 0.1084 0.0
N705 N 0.30508 0.60592 0.19796 0.0
C706 C 0.29567 0.67438 0.13412 0.0
C707 C 0.30177 0.62874 0.17889 0.0
N708 N 0.25236 0.66176 0.12071 0.0
N709 N 0.34092 0.64654 0.20486 0.0
H710 H 0.29086 0.59202 0.19975 0.0
H711 H 0.32205 0.60031 0.2108 0.0
H712 H 0.35486 0.66074 0.20638 0.0
H713 H 0.34292 0.63233 0.22602 0.0
H714 H 0.24734 0.67982 0.11024 0.0
H715 H 0.23737 0.64876 0.12017 0.0
H716 H 0.27978 0.6967 0.08808 0.0
H717 H 0.30853 0.70817 0.10511 0.0
C718 C 0.3036 0.325 0.18643 0.0
C719 C 0.28198 0.32259 0.16219 0.0
C720 C 0.29589 0.2797 0.14194 0.0
C721 C 0.3194 0.28399 0.16103 0.0
N722 N 0.34584 0.30989 0.20257 0.0
N723 N 0.258 0.29857 0.11445 0.0
C724 C 0.3232 0.30632 0.18399 0.0
C725 C 0.27792 0.29994 0.13997 0.0
N726 N 0.30513 0.34508 0.21195 0.0
N727 N 0.29092 0.25657 0.12473 0.0
H728 H 0.24425 0.31277 0.11189 0.0
H729 H 0.25599 0.28423 0.09355 0.0
H730 H 0.30397 0.24166 0.12329 0.0
H731 H 0.27308 0.25128 0.11455 0.0
H732 H 0.3193 0.34704 0.23286 0.0
H733 H 0.29086 0.35881 0.21438 0.0
H734 H 0.35117 0.32698 0.21595 0.0
H735 H 0.35985 0.29581 0.20338 0.0
C736 C 0.95674 0.25627 0.29729 0.0
C737 C 0.94313 0.23564 0.28006 0.0
C738 C -0.01725 0.21678 0.25665 0.0
C739 C -0.0036 0.23574 0.27759 0.0
N740 N -0.00298 0.27818 0.30544 0.0
N741 N 0.94188 0.20119 0.23372 0.0
C742 C -0.01644 0.25724 0.29331 0.0
C743 C 0.95581 0.21763 0.25618 0.0
N744 N 0.94436 0.27367 0.3202 0.0
N745 N -0.00428 0.19741 0.23883 0.0
H746 H 0.92212 0.2019 0.23301 0.0
H747 H 0.94966 0.1885 0.21364 0.0
H748 H 0.01546 0.19739 0.23704 0.0
H749 H -0.01281 0.18127 0.22669 0.0
H750 H 0.95354 0.28691 0.338 0.0
H751 H 0.92473 0.27412 0.32309 0.0
H752 H -0.01135 0.29532 0.31407 0.0
H753 H 0.01663 0.27943 0.30308 0.0
C754 C 0.69423 -0.00869 0.2995 0.0
C755 C 0.7145 0.00493 0.28164 0.0
C756 C 0.73308 0.96458 0.25903 0.0
C757 C 0.71449 0.95094 0.28061 0.0
N758 N 0.67287 0.95051 0.30952 0.0
N759 N 0.74826 0.0058 0.23481 0.0
C760 C 0.69336 0.96407 0.29642 0.0
C761 C 0.73218 -0.00813 0.25785 0.0
N762 N 0.67711 0.00412 0.32215 0.0
N763 N 0.75214 0.9513 0.24127 0.0
H764 H 0.74751 0.02582 0.2336 0.0
H765 H 0.76072 -0.00224 0.21476 0.0
H766 H 0.75221 0.93128 0.24 0.0
H767 H 0.76797 0.95986 0.22866 0.0
H768 H 0.66411 -0.00496 0.3404 0.0
H769 H 0.67659 0.02405 0.32423 0.0
H770 H 0.65598 0.95901 0.31824 0.0
H771 H 0.67175 0.93058 0.30805 0.0
C772 C -0.01562 0.73838 0.25806 0.0
C773 C -0.00322 0.72035 0.28237 0.0
C774 C 0.95618 0.69887 0.29489 0.0
C775 C 0.94354 0.72039 0.27871 0.0
N776 N 0.94468 0.7586 0.23948 0.0
N777 N -0.00489 0.68235 0.3227 0.0
C778 C 0.95744 0.73926 0.25785 0.0
C779 C -0.01704 0.69977 0.29945 0.0
N780 N -0.00142 0.7548 0.23586 0.0
N781 N 0.94256 0.67798 0.30687 0.0
H782 H 0.01472 0.6819 0.32599 0.0
H783 H -0.01425 0.6691 0.34037 0.0
H784 H 0.92298 0.67676 0.30394 0.0
H785 H 0.95079 0.66084 0.31589 0.0
H786 H -0.00896 0.76752 0.21554 0.0
H787 H 0.01834 0.75408 0.23566 0.0
H788 H 0.95333 0.77467 0.22727 0.0
H789 H 0.92495 0.75861 0.23722 0.0
C790 C 0.20552 0.96541 0.26178 0.0
C791 C 0.22425 0.95175 0.2829 0.0
C792 C 0.2447 -0.00792 0.30184 0.0
C793 C 0.22438 0.00572 0.28434 0.0
N794 N 0.19024 0.00666 0.23814 0.0
N795 N 0.26608 0.95132 0.31103 0.0
C796 C 0.20647 -0.0073 0.2608 0.0
C797 C 0.24552 0.96487 0.29846 0.0
N798 N 0.1863 0.95214 0.24428 0.0
N799 N 0.26197 0.00483 0.32442 0.0
H800 H 0.26717 0.93141 0.30929 0.0
H801 H 0.28305 0.95984 0.31953 0.0
H802 H 0.2625 0.02474 0.32684 0.0
H803 H 0.27506 -0.00431 0.34239 0.0
H804 H 0.17038 0.96069 0.23204 0.0
H805 H 0.18619 0.93212 0.24283 0.0
H806 H 0.17763 -0.00136 0.21826 0.0
H807 H 0.19101 0.02668 0.23705 0.0
C808 C -0.01552 0.73836 0.6986 0.0
C809 C -0.00264 0.72051 0.6747 0.0
C810 C 0.95715 0.69866 0.66093 0.0
C811 C 0.94412 0.72001 0.6767 0.0
N812 N 0.94434 0.75815 0.71589 0.0
N813 N -0.00341 0.68251 0.63448 0.0
C814 C 0.95754 0.73897 0.69798 0.0
C815 C -0.01602 0.6998 0.65727 0.0
N816 N -0.00177 0.75489 0.72117 0.0
N817 N 0.94385 0.67773 0.64841 0.0
H818 H 0.01624 0.68222 0.63183 0.0
H819 H -0.0124 0.66919 0.61658 0.0
H820 H 0.92422 0.67644 0.65051 0.0
H821 H 0.95231 0.66066 0.63968 0.0
H822 H -0.00969 0.76752 0.74121 0.0
H823 H 0.018 0.75437 0.72196 0.0
H824 H 0.95268 0.77427 0.72837 0.0
H825 H 0.92459 0.75797 0.71747 0.0
C826 C 0.20641 0.96588 0.69558 0.0
C827 C 0.22503 0.95243 0.67401 0.0
C828 C 0.24521 -0.00703 0.65512 0.0
C829 C 0.22494 0.00641 0.67303 0.0
N830 N 0.1911 0.00694 0.71975 0.0
N831 N 0.26661 0.95233 0.645 0.0
C832 C 0.20724 -0.00683 0.69675 0.0
C833 C 0.24613 0.96573 0.65816 0.0
N834 N 0.18738 0.95242 0.71334 0.0
N835 N 0.26232 0.00596 0.63248 0.0
H836 H 0.26773 0.9324 0.64643 0.0
H837 H 0.28349 0.96094 0.63624 0.0
H838 H 0.26278 0.02589 0.63037 0.0
H839 H 0.27535 -0.00298 0.61423 0.0
H840 H 0.17153 0.96083 0.72596 0.0
H841 H 0.18737 0.9324 0.71462 0.0
H842 H 0.17863 -0.00125 0.73975 0.0
H843 H 0.1918 0.02695 0.72096 0.0
C844 C -0.01467 0.25947 0.65971 0.0
C845 C -0.0015 0.23825 0.67581 0.0
C846 C 0.95831 0.22014 0.69903 0.0
C847 C 0.94523 0.23778 0.67493 0.0
N848 N 0.94564 0.27542 0.63376 0.0
N849 N -0.00143 0.20051 0.71612 0.0
C850 C 0.95846 0.25832 0.6567 0.0
C851 C -0.01476 0.2195 0.69788 0.0
N852 N -0.00151 0.28029 0.6463 0.0
N853 N 0.94472 0.20383 0.72229 0.0
H854 H 0.01833 0.20068 0.71737 0.0
H855 H -0.00967 0.18452 0.72923 0.0
H856 H 0.92497 0.2044 0.72346 0.0
H857 H 0.95279 0.19136 0.7425 0.0
H858 H -0.01009 0.29729 0.63739 0.0
H859 H 0.01812 0.28165 0.64774 0.0
H860 H 0.95445 0.28854 0.61524 0.0
H861 H 0.92596 0.27577 0.63169 0.0
C862 C 0.69665 -0.00894 0.65591 0.0
C863 C 0.71724 0.00412 0.67377 0.0
C864 C 0.73535 0.96322 0.69507 0.0
C865 C 0.71644 0.95018 0.6734 0.0
N866 N 0.67465 0.95069 0.64521 0.0
N867 N 0.75131 0.00388 0.72007 0.0
C868 C 0.6954 0.96381 0.6583 0.0
C869 C 0.73487 -0.00951 0.69696 0.0
N870 N 0.67955 0.00442 0.63388 0.0
N871 N 0.75432 0.94941 0.71219 0.0
H872 H 0.75086 0.02388 0.72178 0.0
H873 H 0.76378 -0.00462 0.73971 0.0
H874 H 0.7541 0.92937 0.7129 0.0
H875 H 0.77034 0.95755 0.72483 0.0
H876 H 0.66628 -0.00422 0.61566 0.0
H877 H 0.67931 0.02438 0.63229 0.0
H878 H 0.65782 0.95953 0.63695 0.0
H879 H 0.6733 0.93077 0.64622 0.0
C880 C 0.48335 0.74841 0.80489 0.0
C881 C 0.49657 0.7276 0.78761 0.0
C882 C 0.45649 0.70868 0.76579 0.0
C883 C 0.44326 0.72822 0.78601 0.0
N884 N 0.44355 0.77092 0.81306 0.0
N885 N 0.49691 0.69243 0.74242 0.0
C886 C 0.45654 0.74968 0.80118 0.0
C887 C 0.48343 0.70928 0.76473 0.0
N888 N 0.49605 0.76571 0.82766 0.0
N889 N 0.44315 0.68908 0.74906 0.0
H890 H 0.51667 0.69289 0.74117 0.0
H891 H 0.48874 0.6796 0.72285 0.0
H892 H 0.42341 0.68918 0.74747 0.0
H893 H 0.4514 0.67258 0.73772 0.0
H894 H 0.48709 0.77908 0.84546 0.0
H895 H 0.51566 0.76586 0.83077 0.0
H896 H 0.45231 0.78806 0.82096 0.0
H897 H 0.42393 0.77241 0.81131 0.0
C898 C 0.22826 0.46255 0.75942 0.0
C899 C 0.21097 0.44924 0.78374 0.0
C900 C 0.18955 0.48976 0.79868 0.0
C901 C 0.21049 0.50315 0.78261 0.0
N902 N 0.2477 0.50343 0.74236 0.0
N903 N 0.17378 0.44948 0.82474 0.0
C904 C 0.22893 0.48983 0.76052 0.0
C905 C 0.19067 0.46254 0.80182 0.0
N906 N 0.24424 0.44886 0.73608 0.0
N907 N 0.16907 0.5031 0.812 0.0
H908 H 0.17346 0.42955 0.82691 0.0
H909 H 0.16076 0.45837 0.84305 0.0
H910 H 0.16786 0.52301 0.81025 0.0
H911 H 0.15231 0.49442 0.82112 0.0
H912 H 0.25644 0.4571 0.71573 0.0
H913 H 0.24364 0.42883 0.73499 0.0
H914 H 0.26344 0.49512 0.72925 0.0
H915 H 0.24759 0.52346 0.74124 0.0
C916 C 0.45597 0.20192 0.8007 0.0
C917 C 0.44257 0.22312 0.78504 0.0
C918 C 0.4826 0.24206 0.76261 0.0
C919 C 0.49589 0.22412 0.78595 0.0
N920 N 0.49569 0.18635 0.82695 0.0
N921 N 0.44219 0.26175 0.74664 0.0
C922 C 0.4828 0.20338 0.80396 0.0
C923 C 0.45566 0.24247 0.76393 0.0
N924 N 0.44306 0.18075 0.81346 0.0
N925 N 0.49595 0.25875 0.73965 0.0
H926 H 0.42244 0.26147 0.74531 0.0
H927 H 0.45034 0.27813 0.73456 0.0
H928 H 0.5157 0.25841 0.73823 0.0
H929 H 0.48768 0.27132 0.71978 0.0
H930 H 0.45187 0.16376 0.82185 0.0
H931 H 0.42344 0.17913 0.81198 0.0
H932 H 0.48689 0.17308 0.84525 0.0
H933 H 0.51534 0.18631 0.82959 0.0
C934 C 0.74939 0.46359 0.79692 0.0
C935 C 0.72906 0.45007 0.77909 0.0
C936 C 0.71092 0.49051 0.75582 0.0
C937 C 0.72949 0.50404 0.77749 0.0
N938 N 0.77113 0.50425 0.80616 0.0
N939 N 0.69549 0.44936 0.73191 0.0
C940 C 0.75052 0.4908 0.7934 0.0
C941 C 0.7116 0.46322 0.75495 0.0
N942 N 0.76633 0.45075 0.81993 0.0
N943 N 0.69204 0.50392 0.73777 0.0
H944 H 0.69608 0.42934 0.73093 0.0
H945 H 0.68319 0.45748 0.71166 0.0
H946 H 0.69216 0.52394 0.73637 0.0
H947 H 0.67621 0.49548 0.72502 0.0
H948 H 0.77936 0.45984 0.83808 0.0
H949 H 0.76665 0.43084 0.82247 0.0
H950 H 0.78794 0.49564 0.81507 0.0
H951 H 0.77245 0.52414 0.80403 0.0
C952 C 0.45907 0.23737 0.19749 0.0
C953 C 0.4461 0.21963 0.17339 0.0
C954 C 0.48629 0.19817 0.15867 0.0
C955 C 0.49941 0.21936 0.17503 0.0
N956 N 0.49925 0.25719 0.21496 0.0
N957 N 0.44673 0.18218 0.13208 0.0
C958 C 0.48603 0.23811 0.19669 0.0
C959 C 0.45944 0.19924 0.15524 0.0
N960 N 0.44541 0.25361 0.22055 0.0
N961 N 0.49949 0.17742 0.14544 0.0
H962 H 0.42707 0.18185 0.12959 0.0
H963 H 0.45565 0.16914 0.11368 0.0
H964 H 0.51912 0.17611 0.14721 0.0
H965 H 0.49095 0.16043 0.13635 0.0
H966 H 0.4534 0.26607 0.24082 0.0
H967 H 0.42565 0.253 0.22152 0.0
H968 H 0.49094 0.2732 0.22768 0.0
H969 H 0.519 0.25709 0.21657 0.0
C970 C 0.75064 0.49116 0.1619 0.0
C971 C 0.72969 0.50443 0.17797 0.0
C972 C 0.71169 0.46359 0.20051 0.0
C973 C 0.72905 0.45048 0.17623 0.0
N974 N 0.76634 0.4511 0.13546 0.0
N975 N 0.69242 0.50432 0.21807 0.0
C976 C 0.74943 0.46397 0.15841 0.0
C977 C 0.71115 0.49089 0.19978 0.0
N978 N 0.77124 0.5046 0.14896 0.0
N979 N 0.69555 0.4497 0.2235 0.0
H980 H 0.69264 0.52434 0.21954 0.0
H981 H 0.67661 0.49592 0.231 0.0
H982 H 0.69605 0.42967 0.22435 0.0
H983 H 0.68327 0.45776 0.2438 0.0
H984 H 0.78799 0.49598 0.13989 0.0
H985 H 0.77259 0.52448 0.15105 0.0
H986 H 0.77942 0.46015 0.1173 0.0
H987 H 0.7666 0.43118 0.13305 0.0
C988 C 0.45902 0.71386 0.19326 0.0
C989 C 0.44585 0.73292 0.17183 0.0
C990 C 0.48597 0.75303 0.15277 0.0
C991 C 0.49914 0.73245 0.1709 0.0
N992 N 0.49941 0.69812 0.21769 0.0
N993 N 0.44604 0.77507 0.14274 0.0
C994 C 0.48595 0.71455 0.19455 0.0
C995 C 0.45912 0.75418 0.15591 0.0
N996 N 0.44564 0.69456 0.21083 0.0
N997 N 0.49881 0.77016 0.12981 0.0
H998 H 0.42639 0.77636 0.14411 0.0
H999 H 0.45469 0.79212 0.13405 0.0
H1000 H 0.51847 0.77045 0.12739 0.0
H1001 H 0.48999 0.78333 0.11143 0.0
H1002 H 0.45387 0.67836 0.22324 0.0
H1003 H 0.42588 0.69463 0.2121 0.0
H1004 H 0.49121 0.68557 0.23773 0.0
H1005 H 0.51915 0.69868 0.21905 0.0
C1006 C 0.23571 0.46517 0.20158 0.0
C1007 C 0.21797 0.45136 0.17879 0.0
C1008 C 0.19563 0.49143 0.16394 0.0
C1009 C 0.21671 0.50531 0.17852 0.0
N1010 N 0.255 0.50646 0.21627 0.0
N1011 N 0.18 0.45075 0.13948 0.0
C1012 C 0.23595 0.49245 0.19967 0.0
C1013 C 0.19712 0.46422 0.16135 0.0
N1014 N 0.25246 0.45196 0.22436 0.0
N1015 N 0.17459 0.50428 0.15151 0.0
H1016 H 0.17993 0.43081 0.13763 0.0
H1017 H 0.16655 0.45934 0.12153 0.0
H1018 H 0.17303 0.52418 0.15274 0.0
H1019 H 0.15776 0.49521 0.14371 0.0
H1020 H 0.26502 0.46059 0.24373 0.0
H1021 H 0.2522 0.43195 0.22611 0.0
H1022 H 0.27124 0.4985 0.22844 0.0
H1023 H 0.25463 0.52649 0.217 0.0
C1024 C 0.10119 0.25008 0.45389 0.0
C1025 C 0.0782 0.2552 0.43414 0.0
C1026 C 0.0578 0.26615 0.49611 0.0
C1027 C 0.07883 0.25558 0.51599 0.0
N1028 N 0.12179 0.24051 0.51582 0.0
N1029 N 0.03577 0.27166 0.43422 0.0
C1030 C 0.10123 0.24913 0.49547 0.0
C1031 C 0.057 0.26495 0.45461 0.0
N1032 N 0.12257 0.24538 0.43264 0.0
N1033 N 0.03852 0.27664 0.51731 0.0
H1034 H 0.03538 0.27196 0.40372 0.0
H1035 H 0.01859 0.27647 0.44707 0.0
H1036 H 0.03914 0.27765 0.54777 0.0
H1037 H 0.02303 0.28596 0.50509 0.0
H1038 H 0.14044 0.24285 0.44479 0.0
H1039 H 0.12265 0.246 0.40216 0.0
H1040 H 0.13791 0.23282 0.50293 0.0
H1041 H 0.12242 0.24059 0.5463 0.0
C1042 C 0.7047 0.11086 0.49938 0.0
C1043 C 0.69865 0.08809 0.52009 0.0
C1044 C 0.68839 0.06606 0.45907 0.0
C1045 C 0.69781 0.08758 0.43827 0.0
N1046 N 0.70777 0.13254 0.43642 0.0
N1047 N 0.67785 0.04717 0.5222 0.0
C1048 C 0.70325 0.11086 0.45784 0.0
C1049 C 0.68787 0.06679 0.50061 0.0
N1050 N 0.71331 0.13174 0.51951 0.0
N1051 N 0.68133 0.04461 0.43889 0.0
H1052 H 0.67733 0.04773 0.55269 0.0
H1053 H 0.66848 0.03143 0.51036 0.0
H1054 H 0.68057 0.04428 0.40841 0.0
H1055 H 0.67663 0.02718 0.45188 0.0
H1056 H 0.72063 0.1482 0.50648 0.0
H1057 H 0.71345 0.13232 0.54999 0.0
H1058 H 0.71062 0.15062 0.44844 0.0
H1059 H 0.70676 0.13266 0.40597 0.0
C1060 C 0.8837 0.69172 0.45552 0.0
C1061 C 0.86253 0.70231 0.43604 0.0
C1062 C 0.84024 0.70689 0.49836 0.0
C1063 C 0.86333 0.70174 0.51786 0.0
N1064 N 0.90586 0.68559 0.51718 0.0
N1065 N 0.81936 0.71667 0.43672 0.0
C1066 C 0.88456 0.6924 0.49704 0.0
C1067 C 0.84009 0.70824 0.45681 0.0
N1068 N 0.90306 0.68171 0.43394 0.0
N1069 N 0.81889 0.71127 0.51984 0.0
H1070 H 0.81867 0.71674 0.40625 0.0
H1071 H 0.80312 0.72396 0.44978 0.0
H1072 H 0.81887 0.71035 0.5503 0.0
H1073 H 0.80098 0.71388 0.50788 0.0
H1074 H 0.91869 0.67244 0.44581 0.0
H1075 H 0.9024 0.68107 0.40346 0.0
H1076 H 0.92305 0.68102 0.50415 0.0
H1077 H 0.90628 0.68491 0.54766 0.0
C1078 C 0.25624 0.88853 0.49933 0.0
C1079 C 0.24523 0.86757 0.51946 0.0
C1080 C 0.23952 0.84459 0.45774 0.0
C1081 C 0.24511 0.86767 0.43764 0.0
N1082 N 0.26264 0.9102 0.437 0.0
N1083 N 0.23003 0.82412 0.5201 0.0
C1084 C 0.25531 0.88904 0.45779 0.0
C1085 C 0.23863 0.84479 0.49933 0.0
N1086 N 0.2668 0.90808 0.52033 0.0
N1087 N 0.23426 0.82295 0.43676 0.0
H1088 H 0.23028 0.82373 0.55058 0.0
H1089 H 0.22242 0.80765 0.5076 0.0
H1090 H 0.23492 0.82274 0.40629 0.0
H1091 H 0.2311 0.80498 0.44911 0.0
H1092 H 0.27627 0.92362 0.50801 0.0
H1093 H 0.26759 0.90763 0.55082 0.0
H1094 H 0.26801 0.92755 0.44949 0.0
H1095 H 0.263 0.91032 0.40649 0.0
C1096 C 0.10211 0.70493 0.45787 0.0
C1097 C 0.07914 0.69931 0.43833 0.0
C1098 C 0.05897 0.68857 0.50066 0.0
C1099 C 0.07985 0.69975 0.52017 0.0
N1100 N 0.12272 0.71522 0.51954 0.0
N1101 N 0.03704 0.68189 0.43893 0.0
C1102 C 0.1022 0.70622 0.49943 0.0
C1103 C 0.05814 0.68928 0.45912 0.0
N1104 N 0.12338 0.70987 0.4364 0.0
N1105 N 0.0398 0.67807 0.52225 0.0
H1106 H 0.03668 0.68131 0.40843 0.0
H1107 H 0.01997 0.6767 0.4519 0.0
H1108 H 0.04047 0.67743 0.55274 0.0
H1109 H 0.02434 0.66844 0.5104 0.0
H1110 H 0.14124 0.71285 0.44839 0.0
H1111 H 0.1234 0.70905 0.40594 0.0
H1112 H 0.13883 0.72288 0.50646 0.0
H1113 H 0.12333 0.71539 0.55002 0.0
C1114 C 0.2398 0.11341 0.45723 0.0
C1115 C 0.24527 0.09017 0.43768 0.0
C1116 C 0.25594 0.06967 0.49993 0.0
C1117 C 0.24507 0.09083 0.5195 0.0
N1118 N 0.23019 0.13433 0.51903 0.0
N1119 N 0.26238 0.04755 0.43813 0.0
C1120 C 0.23873 0.11349 0.49881 0.0
C1121 C 0.25517 0.06888 0.4584 0.0
N1122 N 0.23482 0.13494 0.43576 0.0
N1123 N 0.26622 0.0502 0.52145 0.0
H1124 H 0.26289 0.04723 0.40764 0.0
H1125 H 0.26753 0.03025 0.45104 0.0
H1126 H 0.2669 0.05083 0.55193 0.0
H1127 H 0.27557 0.03452 0.50954 0.0
H1128 H 0.23183 0.15301 0.44771 0.0
H1129 H 0.23552 0.13496 0.40529 0.0
H1130 H 0.22274 0.15072 0.5061 0.0
H1131 H 0.23031 0.13494 0.54951 0.0
C1132 C 0.88324 0.26599 0.45638 0.0
C1133 C 0.86221 0.25493 0.43706 0.0
C1134 C 0.84012 0.24989 0.49953 0.0
C1135 C 0.86315 0.25553 0.5189 0.0
N1136 N 0.90539 0.27264 0.51792 0.0
N1137 N 0.81932 0.23947 0.43808 0.0
C1138 C 0.88418 0.26534 0.49791 0.0
C1139 C 0.83992 0.24849 0.45799 0.0
N1140 N 0.9024 0.27637 0.43464 0.0
N1141 N 0.81888 0.24506 0.52114 0.0
H1142 H 0.81859 0.23924 0.40761 0.0
H1143 H 0.80327 0.2318 0.45132 0.0
H1144 H 0.81891 0.24592 0.55159 0.0
H1145 H 0.80098 0.24215 0.50925 0.0
H1146 H 0.91792 0.28595 0.44637 0.0
H1147 H 0.90168 0.27697 0.40416 0.0
H1148 H 0.92247 0.27762 0.5048 0.0
H1149 H 0.90585 0.27332 0.5484 0.0
C1150 C 0.68285 0.88684 0.49752 0.0
C1151 C 0.69433 0.86607 0.51732 0.0
C1152 C 0.69982 0.84332 0.45537 0.0
C1153 C 0.69383 0.86637 0.43551 0.0
N1154 N 0.67568 0.90853 0.43542 0.0
N1155 N 0.71021 0.82293 0.5174 0.0
C1156 C 0.68346 0.88747 0.45597 0.0
C1157 C 0.70106 0.84345 0.49694 0.0
N1158 N 0.67219 0.90613 0.51884 0.0
N1159 N 0.70517 0.82183 0.43417 0.0
H1160 H 0.71035 0.82249 0.54788 0.0
H1161 H 0.71794 0.80665 0.50462 0.0
H1162 H 0.70433 0.8217 0.40371 0.0
H1163 H 0.70857 0.80387 0.44636 0.0
H1164 H 0.66242 0.92153 0.50679 0.0
H1165 H 0.67165 0.90558 0.54933 0.0
H1166 H 0.67012 0.92573 0.44811 0.0
H1167 H 0.67511 0.9087 0.40493 0.0
C1168 C 0.56169 0.76412 -0.00153 0.0
C1169 C 0.58257 0.75318 0.01823 0.0
C1170 C 0.60462 0.74713 0.95603 0.0
C1171 C 0.58162 0.75248 0.93647 0.0
N1172 N 0.53962 0.76995 0.93665 0.0
N1173 N 0.6254 0.73784 0.01795 0.0
C1174 C 0.56074 0.76285 0.95698 0.0
C1175 C 0.60484 0.74646 -0.00239 0.0
N1176 N 0.54264 0.77489 0.01981 0.0
N1177 N 0.62578 0.74186 0.93456 0.0
H1178 H 0.62607 0.73814 0.04842 0.0
H1179 H 0.6415 0.73009 0.00509 0.0
H1180 H 0.62566 0.7423 0.90407 0.0
H1181 H 0.64365 0.73897 0.94649 0.0
H1182 H 0.52718 0.78434 0.00773 0.0
H1183 H 0.54341 0.77591 0.05026 0.0
H1184 H 0.52263 0.77539 0.94953 0.0
H1185 H 0.53916 0.77005 0.90615 0.0
C1186 C 0.18113 0.56635 0.96028 0.0
C1187 C 0.19188 0.58723 0.93964 0.0
C1188 C 0.19794 0.61062 0.00094 0.0
C1189 C 0.19269 0.58761 0.02146 0.0
N1190 N 0.17536 0.54502 0.02302 0.0
N1191 N 0.20695 0.63074 0.93817 0.0
C1192 C 0.18241 0.56609 0.0018 0.0
C1193 C 0.19852 0.61017 0.95934 0.0
N1194 N 0.17047 0.54664 0.93975 0.0
N1195 N 0.20321 0.63242 0.02151 0.0
H1196 H 0.20653 0.63097 0.9077 0.0
H1197 H 0.21463 0.64729 0.95035 0.0
H1198 H 0.20287 0.6328 0.05199 0.0
H1199 H 0.20605 0.65035 0.00885 0.0
H1200 H 0.16118 0.53112 0.95247 0.0
H1201 H 0.16942 0.54692 0.90928 0.0
H1202 H 0.16996 0.52757 0.01087 0.0
H1203 H 0.17525 0.5451 0.05353 0.0
C1204 C 0.3813 0.18803 0.00071 0.0
C1205 C 0.36092 0.19928 0.02124 0.0
C1206 C 0.33761 0.20497 0.95999 0.0
C1207 C 0.36014 0.19926 0.93941 0.0
N1208 N 0.40199 0.18149 0.93795 0.0
N1209 N 0.31821 0.215 0.02265 0.0
C1210 C 0.38137 0.18893 0.95915 0.0
C1211 C 0.33828 0.20602 0.00156 0.0
N1212 N 0.40073 0.1773 0.02134 0.0
N1213 N 0.31606 0.21022 0.93945 0.0
H1214 H 0.31816 0.215 0.05315 0.0
H1215 H 0.30193 0.22278 0.01037 0.0
H1216 H 0.31555 0.2095 0.90898 0.0
H1217 H 0.29846 0.21336 0.95218 0.0
H1218 H 0.41585 0.16762 0.00871 0.0
H1219 H 0.40062 0.17654 0.05183 0.0
H1220 H 0.41922 0.17607 0.9501 0.0
H1221 H 0.40179 0.18111 0.90744 0.0
C1222 C 0.75539 0.38974 -0.00138 0.0
C1223 C 0.74494 0.36842 0.0186 0.0
C1224 C 0.74034 0.34525 0.95681 0.0
C1225 C 0.74549 0.36846 0.93675 0.0
N1226 N 0.7615 0.41162 0.93644 0.0
N1227 N 0.73059 0.32463 0.01891 0.0
C1228 C 0.75473 0.39021 0.95708 0.0
C1229 C 0.739 0.34548 -0.00164 0.0
N1230 N 0.76534 0.40957 0.01973 0.0
N1231 N 0.73599 0.32339 0.93585 0.0
H1232 H 0.7305 0.32417 0.04938 0.0
H1233 H 0.72331 0.30807 0.00619 0.0
H1234 H 0.73684 0.32308 0.9054 0.0
H1235 H 0.73346 0.30534 0.94827 0.0
H1236 H 0.77452 0.42532 0.00747 0.0
H1237 H 0.766 0.40921 0.05022 0.0
H1238 H 0.766 0.42919 0.94904 0.0
H1239 H 0.76221 0.41177 0.90595 0.0
C1240 C 0.56031 0.1905 -0.00181 0.0
C1241 C 0.58127 0.2013 0.018 0.0
C1242 C 0.60337 0.20752 0.95579 0.0
C1243 C 0.58037 0.20219 0.93617 0.0
N1244 N 0.53811 0.18508 0.93641 0.0
N1245 N 0.62411 0.21688 0.01768 0.0
C1246 C 0.55935 0.19195 0.9567 0.0
C1247 C 0.60355 0.20816 -0.00262 0.0
N1248 N 0.5412 0.17961 0.01946 0.0
N1249 N 0.62461 0.21268 0.93438 0.0
H1250 H 0.62481 0.21655 0.04815 0.0
H1251 H 0.64015 0.22481 0.00477 0.0
H1252 H 0.62457 0.21223 0.9039 0.0
H1253 H 0.6425 0.21545 0.94639 0.0
H1254 H 0.52575 0.17014 0.0073 0.0
H1255 H 0.54195 0.17845 0.04991 0.0
H1256 H 0.52104 0.17987 0.94936 0.0
H1257 H 0.5376 0.18504 0.90592 0.0
C1258 C 0.74017 0.60911 -0.00209 0.0
C1259 C 0.74654 0.58642 0.01853 0.0
C1260 C 0.75614 0.5644 0.95729 0.0
C1261 C 0.74649 0.58585 0.93666 0.0
N1262 N 0.73646 0.63075 0.93501 0.0
N1263 N 0.76747 0.54566 0.02015 0.0
C1264 C 0.74121 0.6091 0.95633 0.0
C1265 C 0.75713 0.56517 -0.0012 0.0
N1266 N 0.73163 0.62993 0.01818 0.0
N1267 N 0.76299 0.54295 0.93699 0.0
H1268 H 0.76835 0.54626 0.05062 0.0
H1269 H 0.77677 0.52999 0.00808 0.0
H1270 H 0.76345 0.54259 0.90649 0.0
H1271 H 0.7678 0.52555 0.9499 0.0
H1272 H 0.72404 0.64627 0.00525 0.0
H1273 H 0.73176 0.63056 0.04865 0.0
H1274 H 0.73378 0.64883 0.94711 0.0
H1275 H 0.73711 0.63087 0.90454 0.0
C1276 C 0.38042 0.76606 0.95624 0.0
C1277 C 0.35952 0.75446 0.93738 0.0
C1278 C 0.33779 0.74961 0.00014 0.0
C1279 C 0.36089 0.75552 0.0191 0.0
N1280 N 0.40272 0.77353 0.01747 0.0
N1281 N 0.3167 0.73898 0.93897 0.0
C1282 C 0.38157 0.76572 -0.00223 0.0
C1283 C 0.33736 0.74808 0.95862 0.0
N1284 N 0.39934 0.77647 0.93406 0.0
N1285 N 0.31679 0.74457 0.02217 0.0
H1286 H 0.31592 0.73866 0.9085 0.0
H1287 H 0.30062 0.73151 0.95239 0.0
H1288 H 0.31708 0.74572 0.05261 0.0
H1289 H 0.29888 0.74116 0.01067 0.0
H1290 H 0.41485 0.78628 0.94539 0.0
H1291 H 0.3984 0.77678 0.90358 0.0
H1292 H 0.41958 0.77898 0.00412 0.0
H1293 H 0.40329 0.77426 0.04795 0.0
C1294 C 0.20426 0.34501 0.96352 0.0
C1295 C 0.19776 0.36779 0.94321 0.0
C1296 C 0.18925 0.38981 0.00482 0.0
C1297 C 0.199 0.36824 0.02502 0.0
N1298 N 0.20868 0.32326 0.02621 0.0
N1299 N 0.17717 0.40875 0.94243 0.0
C1300 C 0.20382 0.34498 0.00511 0.0
C1301 C 0.18766 0.38911 0.96336 0.0
N1302 N 0.21235 0.32415 0.94291 0.0
N1303 N 0.18287 0.41129 0.02543 0.0
H1304 H 0.17585 0.40822 0.912 0.0
H1305 H 0.16819 0.42448 0.95488 0.0
H1306 H 0.18286 0.41161 0.05593 0.0
H1307 H 0.17803 0.42875 0.01274 0.0
H1308 H 0.21999 0.30774 0.95554 0.0
H1309 H 0.21179 0.32355 0.91246 0.0
H1310 H 0.21104 0.30517 0.01398 0.0
H1311 H 0.20844 0.32311 0.05669 0.0
C1312 C 0.1439 0.34366 0.24715 0.0
C1313 C 0.14233 0.34096 0.20598 0.0
C1314 C 0.10659 0.31124 0.21381 0.0
C1315 C 0.11036 0.31141 0.25486 0.0
N1316 N 0.13511 0.32491 0.3105 0.0
N1317 N 0.12458 0.31944 0.14988 0.0
C1318 C 0.12959 0.32698 0.2716 0.0
C1319 C 0.1242 0.32413 0.18916 0.0
N1320 N 0.15854 0.36268 0.2629 0.0
N1321 N 0.08577 0.29933 0.19843 0.0
H1322 H 0.13731 0.32825 0.13081 0.0
H1323 H 0.11375 0.30517 0.13666 0.0
H1324 H 0.07226 0.29002 0.21563 0.0
H1325 H 0.08059 0.3008 0.16916 0.0
H1326 H 0.15838 0.36732 0.29248 0.0
H1327 H 0.16903 0.37551 0.24591 0.0
H1328 H 0.15081 0.33358 0.32336 0.0
H1329 H 0.12536 0.3127 0.32943 0.0
C1330 C 0.61263 0.15232 0.24787 0.0
C1331 C 0.60638 0.1447 0.20925 0.0
C1332 C 0.62998 0.10456 0.21847 0.0
C1333 C 0.63857 0.1136 0.25525 0.0
N1334 N 0.63991 0.14678 0.30424 0.0
N1335 N 0.61143 0.11516 0.15565 0.0
C1336 C 0.63044 0.13771 0.26972 0.0
C1337 C 0.61545 0.1211 0.19406 0.0
N1338 N 0.60069 0.17292 0.26428 0.0
N1339 N 0.63583 0.08022 0.20676 0.0
H1340 H 0.60114 0.12684 0.1367 0.0
H1341 H 0.61995 0.09974 0.1416 0.0
H1342 H 0.64739 0.06798 0.22297 0.0
H1343 H 0.62779 0.07143 0.18244 0.0
H1344 H 0.6024 0.17791 0.29359 0.0
H1345 H 0.58709 0.18372 0.24953 0.0
H1346 H 0.63729 0.16551 0.31391 0.0
H1347 H 0.65173 0.13602 0.32233 0.0
C1348 C 0.79821 0.61733 0.24499 0.0
C1349 C 0.8039 0.61331 0.20492 0.0
C1350 C 0.84293 0.6386 0.21199 0.0
C1351 C 0.83567 0.64501 0.25065 0.0
N1352 N 0.80556 0.64245 0.30349 0.0
N1353 N 0.82985 0.6226 0.14861 0.0
C1354 C 0.81304 0.63495 0.26701 0.0
C1355 C 0.82593 0.62439 0.18801 0.0
N1356 N 0.77929 0.60346 0.2624 0.0
N1357 N 0.86606 0.64619 0.19813 0.0
H1358 H 0.81771 0.61267 0.12995 0.0
H1359 H 0.84394 0.63268 0.13381 0.0
H1360 H 0.87856 0.65751 0.21424 0.0
H1361 H 0.87368 0.63973 0.1719 0.0
H1362 H 0.77588 0.60351 0.29235 0.0
H1363 H 0.76841 0.58994 0.24745 0.0
H1364 H 0.78777 0.63839 0.31509 0.0
H1365 H 0.81659 0.65414 0.32145 0.0
C1366 C 0.33433 0.83001 0.2133 0.0
C1367 C 0.32551 0.80565 0.20065 0.0
C1368 C 0.28991 0.80842 0.24636 0.0
C1369 C 0.29707 0.83394 0.25577 0.0
N1370 N 0.32374 0.87073 0.24314 0.0
N1371 N 0.2919 0.77413 0.199 0.0
C1372 C 0.31869 0.84523 0.23794 0.0
C1373 C 0.30246 0.79551 0.21549 0.0
N1374 N 0.358 0.83824 0.20299 0.0
N1375 N 0.27176 0.79609 0.2679 0.0
H1376 H 0.29998 0.7645 0.17543 0.0
H1377 H 0.27382 0.76752 0.206 0.0
H1378 H 0.26265 0.80453 0.29164 0.0
H1379 H 0.26767 0.77663 0.26485 0.0
H1380 H 0.36649 0.85454 0.21478 0.0
H1381 H 0.37012 0.82754 0.18536 0.0
H1382 H 0.33762 0.88059 0.22753 0.0
H1383 H 0.31257 0.88264 0.26044 0.0
C1384 C 0.11974 0.63236 0.76977 0.0
C1385 C 0.13765 0.61475 0.75454 0.0
C1386 C 0.12717 0.62833 0.6878 0.0
C1387 C 0.10821 0.64481 0.70293 0.0
N1388 N 0.0827 0.65854 0.75741 0.0
N1389 N 0.1546 0.59187 0.69928 0.0
C1390 C 0.10338 0.64564 0.7437 0.0
C1391 C 0.14023 0.61151 0.71357 0.0
N1392 N 0.11916 0.63734 0.80896 0.0
N1393 N 0.13363 0.62962 0.64916 0.0
H1394 H 0.16418 0.57894 0.71727 0.0
H1395 H 0.1551 0.58687 0.66985 0.0
H1396 H 0.1247 0.6418 0.6293 0.0
H1397 H 0.14926 0.62024 0.63742 0.0
H1398 H 0.10857 0.65211 0.8212 0.0
H1399 H 0.1309 0.62815 0.82906 0.0
H1400 H 0.07668 0.65763 0.78635 0.0
H1401 H 0.07011 0.66822 0.73914 0.0
C1402 C 0.29783 0.11259 0.74574 0.0
C1403 C 0.3007 0.11581 0.7048 0.0
C1404 C 0.33608 0.14548 0.71601 0.0
C1405 C 0.33099 0.14481 0.75671 0.0
N1406 N 0.30462 0.13048 0.81014 0.0
N1407 N 0.32031 0.13786 0.65057 0.0
C1408 C 0.31132 0.12896 0.77163 0.0
C1409 C 0.31935 0.13281 0.68975 0.0
N1410 N 0.28271 0.09337 0.75991 0.0
N1411 N 0.35732 0.15766 0.70252 0.0
H1412 H 0.30831 0.12914 0.63035 0.0
H1413 H 0.33153 0.15228 0.63844 0.0
H1414 H 0.37018 0.16685 0.72095 0.0
H1415 H 0.36346 0.15658 0.67366 0.0
H1416 H 0.28192 0.08836 0.78935 0.0
H1417 H 0.27279 0.08077 0.74185 0.0
H1418 H 0.28857 0.12162 0.82163 0.0
H1419 H 0.3138 0.1424 0.83008 0.0
C1420 C 0.83094 0.30277 0.74866 0.0
C1421 C 0.83776 0.31069 0.71036 0.0
C1422 C 0.81419 0.35084 0.71936 0.0
C1423 C 0.80505 0.34152 0.75571 0.0
N1424 N 0.80289 0.30793 0.80417 0.0
N1425 N 0.83356 0.3407 0.65702 0.0
C1426 C 0.81289 0.31725 0.77011 0.0
C1427 C 0.829 0.33446 0.69521 0.0
N1428 N 0.84257 0.28197 0.76517 0.0
N1429 N 0.80861 0.37531 0.70781 0.0
H1430 H 0.84405 0.32913 0.63824 0.0
H1431 H 0.82528 0.35627 0.64291 0.0
H1432 H 0.79689 0.38746 0.72382 0.0
H1433 H 0.81703 0.38427 0.68389 0.0
H1434 H 0.84042 0.27673 0.79434 0.0
H1435 H 0.85633 0.27124 0.75072 0.0
H1436 H 0.8053 0.2891 0.81367 0.0
H1437 H 0.79083 0.31857 0.82199 0.0
C1438 C 0.62532 0.84492 0.72602 0.0
C1439 C 0.64384 0.83362 0.70141 0.0
C1440 C 0.63747 0.79216 0.73387 0.0
C1441 C 0.61744 0.80286 0.75613 0.0
N1442 N 0.58906 0.83815 0.76829 0.0
N1443 N 0.66326 0.79533 0.67565 0.0
C1444 C 0.61041 0.82891 0.75075 0.0
C1445 C 0.64865 0.80688 0.70349 0.0
N1446 N 0.62274 0.871 0.72715 0.0
N1447 N 0.64672 0.76838 0.74292 0.0
H1448 H 0.67123 0.80532 0.65222 0.0
H1449 H 0.66527 0.77551 0.67347 0.0
H1450 H 0.63967 0.75717 0.76574 0.0
H1451 H 0.66306 0.76085 0.73037 0.0
H1452 H 0.61156 0.88044 0.74763 0.0
H1453 H 0.63345 0.88343 0.70984 0.0
H1454 H 0.58149 0.85615 0.76216 0.0
H1455 H 0.57756 0.82695 0.78635 0.0
C1456 C 0.82743 0.6571 0.74912 0.0
C1457 C 0.83721 0.64778 0.71322 0.0
C1458 C 0.81691 0.60602 0.72517 0.0
C1459 C 0.8049 0.61634 0.75871 0.0
N1460 N 0.79675 0.6522 0.80132 0.0
N1461 N 0.83884 0.6146 0.66424 0.0
C1462 C 0.80955 0.64206 0.77026 0.0
C1463 C 0.83151 0.62246 0.70062 0.0
N1464 N 0.83614 0.67983 0.76393 0.0
N1465 N 0.81427 0.58052 0.71671 0.0
H1466 H 0.84925 0.62614 0.64518 0.0
H1467 H 0.83288 0.59749 0.65154 0.0
H1468 H 0.80281 0.56815 0.73295 0.0
H1469 H 0.82481 0.57119 0.69535 0.0
H1470 H 0.83179 0.68642 0.79182 0.0
H1471 H 0.84971 0.69109 0.74984 0.0
H1472 H 0.79683 0.67167 0.80811 0.0
H1473 H 0.78471 0.64141 0.81912 0.0
C1474 C 0.33593 0.82632 0.73826 0.0
C1475 C 0.32575 0.8035 0.75473 0.0
C1476 C 0.28816 0.80766 0.71324 0.0
C1477 C 0.29703 0.83187 0.6999 0.0
N1478 N 0.32737 0.86643 0.70484 0.0
N1479 N 0.28973 0.77552 0.76421 0.0
C1480 C 0.32042 0.84182 0.71375 0.0
C1481 C 0.30117 0.79501 0.74399 0.0
N1482 N 0.36069 0.83272 0.74475 0.0
N1483 N 0.2679 0.79619 0.6955 0.0
H1484 H 0.29821 0.76622 0.78781 0.0
H1485 H 0.27083 0.77038 0.76023 0.0
H1486 H 0.25829 0.80436 0.67197 0.0
H1487 H 0.2623 0.77739 0.70139 0.0
H1488 H 0.36989 0.84759 0.73011 0.0
H1489 H 0.37274 0.82174 0.76215 0.0
H1490 H 0.34284 0.87562 0.71754 0.0
H1491 H 0.3164 0.87852 0.68746 0.0
C1492 C 0.11938 0.32913 0.69261 0.0
C1493 C 0.10429 0.31081 0.71274 0.0
C1494 C 0.12316 0.32381 0.77523 0.0
C1495 C 0.13764 0.34268 0.75524 0.0
N1496 N 0.14743 0.36607 0.69633 0.0
N1497 N 0.08889 0.29266 0.77307 0.0
C1498 C 0.13504 0.34622 0.71432 0.0
C1499 C 0.10525 0.30881 0.75408 0.0
N1500 N 0.1191 0.32976 0.65265 0.0
N1501 N 0.12698 0.31988 0.81432 0.0
H1502 H 0.07625 0.28062 0.7585 0.0
H1503 H 0.08658 0.29225 0.80325 0.0
H1504 H 0.13899 0.33132 0.83113 0.0
H1505 H 0.1194 0.30451 0.82987 0.0
H1506 H 0.13174 0.34042 0.63585 0.0
H1507 H 0.10698 0.31841 0.63589 0.0
H1508 H 0.14432 0.37153 0.66748 0.0
H1509 H 0.15979 0.37835 0.71101 0.0
C1510 C 0.64964 0.14715 0.70464 0.0
C1511 C 0.64537 0.12028 0.70328 0.0
C1512 C 0.61182 0.12461 0.75246 0.0
C1513 C 0.6183 0.15087 0.75712 0.0
N1514 N 0.64684 0.18599 0.74292 0.0
N1515 N 0.62498 0.08263 0.72998 0.0
C1516 C 0.63812 0.16188 0.73457 0.0
C1517 C 0.62705 0.10875 0.72816 0.0
N1518 N 0.66406 0.1588 0.67652 0.0
N1519 N 0.59065 0.11499 0.77027 0.0
H1520 H 0.63593 0.07031 0.71302 0.0
H1521 H 0.61396 0.07309 0.75068 0.0
H1522 H 0.57895 0.12606 0.78803 0.0
H1523 H 0.58344 0.09675 0.76463 0.0
H1524 H 0.66567 0.17865 0.67378 0.0
H1525 H 0.67228 0.14879 0.65341 0.0
H1526 H 0.66304 0.19382 0.7302 0.0
H1527 H 0.6395 0.19725 0.76535 0.0
C1528 C 0.80858 0.31291 0.18401 0.0
C1529 C 0.8048 0.339 0.19421 0.0
C1530 C 0.83314 0.33406 0.25058 0.0
C1531 C 0.83773 0.30826 0.23942 0.0
N1532 N 0.83443 0.2748 0.1911 0.0
N1533 N 0.81629 0.37582 0.23295 0.0
C1534 C 0.8267 0.29813 0.20489 0.0
C1535 C 0.81811 0.35006 0.22605 0.0
N1536 N 0.7947 0.30217 0.1545 0.0
N1537 N 0.84193 0.34286 0.28568 0.0
H1538 H 0.80456 0.38792 0.21679 0.0
H1539 H 0.8277 0.38557 0.25281 0.0
H1540 H 0.8528 0.33171 0.3046 0.0
H1541 H 0.83685 0.36046 0.29761 0.0
H1542 H 0.79414 0.28253 0.14902 0.0
H1543 H 0.78249 0.3127 0.13672 0.0
H1544 H 0.82912 0.26748 0.16404 0.0
H1545 H 0.84816 0.26369 0.20501 0.0
C1546 C 0.62924 0.82612 0.18425 0.0
C1547 C 0.61006 0.80987 0.19963 0.0
C1548 C 0.62164 0.82264 0.26626 0.0
C1549 C 0.6398 0.84001 0.25075 0.0
N1550 N 0.65703 0.8625 0.19512 0.0
N1551 N 0.58425 0.79676 0.25427 0.0
C1552 C 0.64243 0.84302 0.20974 0.0
C1553 C 0.60513 0.80937 0.24039 0.0
N1554 N 0.6358 0.82451 0.1457 0.0
N1555 N 0.62097 0.81783 0.30553 0.0
H1556 H 0.57154 0.78712 0.23613 0.0
H1557 H 0.57819 0.79791 0.28317 0.0
H1558 H 0.63284 0.82697 0.3255 0.0
H1559 H 0.61017 0.80321 0.31798 0.0
H1560 H 0.65158 0.83371 0.13388 0.0
H1561 H 0.62683 0.81223 0.12604 0.0
H1562 H 0.6576 0.86732 0.16559 0.0
H1563 H 0.6667 0.87547 0.21289 0.0
C1564 C 0.1046 0.64286 0.21874 0.0
C1565 C 0.11077 0.64428 0.25904 0.0
C1566 C 0.14505 0.61328 0.24917 0.0
C1567 C 0.14092 0.61442 0.20824 0.0
N1568 N 0.11902 0.63308 0.15325 0.0
N1569 N 0.13928 0.6339 0.31187 0.0
C1570 C 0.12119 0.62984 0.19275 0.0
C1571 C 0.13156 0.63019 0.27416 0.0
N1572 N 0.0825 0.65334 0.20546 0.0
N1573 N 0.16134 0.5955 0.26431 0.0
H1574 H 0.13018 0.64634 0.33108 0.0
H1575 H 0.15603 0.62639 0.3231 0.0
H1576 H 0.17127 0.5825 0.24699 0.0
H1577 H 0.16314 0.59195 0.29413 0.0
H1578 H 0.07568 0.65063 0.17723 0.0
H1579 H 0.06972 0.66274 0.22372 0.0
H1580 H 0.10687 0.64638 0.14046 0.0
H1581 H 0.1309 0.6241 0.13318 0.0
C1582 C 0.29914 0.11193 0.21316 0.0
C1583 C 0.30132 0.11515 0.25418 0.0
C1584 C 0.33696 0.14472 0.24422 0.0
C1585 C 0.33256 0.14407 0.20333 0.0
N1586 N 0.30693 0.12995 0.14901 0.0
N1587 N 0.31995 0.1373 0.30901 0.0
C1588 C 0.31308 0.12832 0.18774 0.0
C1589 C 0.31972 0.13215 0.26986 0.0
N1590 N 0.28428 0.09273 0.19847 0.0
N1591 N 0.35802 0.15677 0.25851 0.0
H1592 H 0.30752 0.12871 0.32878 0.0
H1593 H 0.33099 0.15171 0.32144 0.0
H1594 H 0.37128 0.16586 0.24057 0.0
H1595 H 0.36364 0.15565 0.28762 0.0
H1596 H 0.284 0.08773 0.16903 0.0
H1597 H 0.27407 0.0801 0.21619 0.0
H1598 H 0.29103 0.12113 0.13699 0.0
H1599 H 0.31636 0.14194 0.1294 0.0
loop_
_geom_bond_atom_site_label_1
_geom_bond_atom_site_label_2
_geom_bond_distance
_geom_bond_site_symmetry_2
_ccdc_geom_bond_type
Zn0 O3 2.031 . S
Zn0 O5 2.049 . S
Zn0 O10 2.067 . S
Zn1 O2 1.962 . S
Zn1 O4 1.986 . S
Zn1 O6 1.996 . S
Zn1 O9 1.943 . S
O2 Zn1 1.962 . S
O2 C7 1.254 . S
O3 Zn0 2.031 . S
O3 C7 1.269 . S
O4 Zn1 1.986 . S
O4 C11 1.262 . S
O5 Zn0 2.049 . S
O5 C13 1.260 . S
O6 Zn1 1.996 . S
O6 C13 1.257 . S
C7 O2 1.254 . S
C7 O3 1.269 . S
C8 O9 1.249 . S
C8 O10 1.270 . S
O9 Zn1 1.943 . S
O9 C8 1.249 . S
O10 Zn0 2.067 . S
O10 C8 1.270 . S
C11 O4 1.262 . S
C11 O12 1.232 . S
O12 C11 1.232 . S
C13 O5 1.260 . S
C13 O6 1.257 . S
Zn14 O17 2.031 . S
Zn14 O19 2.049 . S
Zn14 O24 2.067 . S
Zn15 O16 1.962 . S
Zn15 O18 1.986 . S
Zn15 O20 1.996 . S
Zn15 O23 1.943 . S
O16 Zn15 1.962 . S
O16 C21 1.254 . S
O17 Zn14 2.031 . S
O17 C21 1.269 . S
O18 Zn15 1.986 . S
O18 C25 1.262 . S
O19 Zn14 2.049 . S
O19 C27 1.260 . S
O20 Zn15 1.996 . S
O20 C27 1.257 . S
C21 O16 1.254 . S
C21 O17 1.269 . S
C22 O23 1.249 . S
C22 O24 1.270 . S
O23 Zn15 1.943 . S
O23 C22 1.249 . S
O24 Zn14 2.067 . S
O24 C22 1.270 . S
C25 O18 1.262 . S
C25 O26 1.232 . S
O26 C25 1.232 . S
C27 O19 1.260 . S
C27 O20 1.257 . S
Zn28 O31 2.031 . S
Zn28 O33 2.049 . S
Zn28 O38 2.067 . S
Zn29 O30 1.962 . S
Zn29 O32 1.986 . S
Zn29 O34 1.996 . S
Zn29 O37 1.943 . S
O30 Zn29 1.962 . S
O30 C35 1.254 . S
O31 Zn28 2.031 . S
O31 C35 1.269 . S
O32 Zn29 1.986 . S
O32 C39 1.262 . S
O33 Zn28 2.049 . S
O33 C41 1.260 . S
O34 Zn29 1.996 . S
O34 C41 1.257 . S
C35 O30 1.254 . S
C35 O31 1.269 . S
C36 O37 1.249 . S
C36 O38 1.270 . S
O37 Zn29 1.943 . S
O37 C36 1.249 . S
O38 Zn28 2.067 . S
O38 C36 1.270 . S
C39 O32 1.262 . S
C39 O40 1.232 . S
O40 C39 1.232 . S
C41 O33 1.260 . S
C41 O34 1.257 . S
Zn42 O45 2.031 . S
Zn42 O47 2.049 . S
Zn42 O52 2.067 . S
Zn43 O44 1.962 . S
Zn43 O46 1.986 . S
Zn43 O48 1.996 . S
Zn43 O51 1.943 . S
O44 Zn43 1.962 . S
O44 C49 1.254 . S
O45 Zn42 2.031 . S
O45 C49 1.269 . S
O46 Zn43 1.986 . S
O46 C53 1.262 . S
O47 Zn42 2.049 . S
O47 C55 1.260 . S
O48 Zn43 1.996 . S
O48 C55 1.257 . S
C49 O44 1.254 . S
C49 O45 1.269 . S
C50 O51 1.249 . S
C50 O52 1.270 . S
O51 Zn43 1.943 . S
O51 C50 1.249 . S
O52 Zn42 2.067 . S
O52 C50 1.270 . S
C53 O46 1.262 . S
C53 O54 1.232 . S
O54 C53 1.232 . S
C55 O47 1.260 . S
C55 O48 1.257 . S
Zn56 O59 2.031 . S
Zn56 O61 2.049 . S
Zn56 O66 2.067 . S
Zn57 O58 1.962 . S
Zn57 O60 1.986 . S
Zn57 O62 1.996 . S
Zn57 O65 1.943 . S
O58 Zn57 1.962 . S
O58 C63 1.254 . S
O59 Zn56 2.031 . S
O59 C63 1.269 . S
O60 Zn57 1.986 . S
O60 C67 1.262 . S
O61 Zn56 2.049 . S
O61 C69 1.260 . S
O62 Zn57 1.996 . S
O62 C69 1.257 . S
C63 O58 1.254 . S
C63 O59 1.269 . S
C64 O65 1.249 . S
C64 O66 1.270 . S
O65 Zn57 1.943 . S
O65 C64 1.249 . S
O66 Zn56 2.067 . S
O66 C64 1.270 . S
C67 O60 1.262 . S
C67 O68 1.232 . S
O68 C67 1.232 . S
C69 O61 1.260 . S
C69 O62 1.257 . S
Zn70 O73 2.031 . S
Zn70 O75 2.049 . S
Zn70 O80 2.067 . S
Zn71 O72 1.962 . S
Zn71 O74 1.986 . S
Zn71 O76 1.996 . S
Zn71 O79 1.943 . S
O72 Zn71 1.962 . S
O72 C77 1.254 . S
O73 Zn70 2.031 . S
O73 C77 1.269 . S
O74 Zn71 1.986 . S
O74 C81 1.262 . S
O75 Zn70 2.049 . S
O75 C83 1.260 . S
O76 Zn71 1.996 . S
O76 C83 1.257 . S
C77 O72 1.254 . S
C77 O73 1.269 . S
C78 O79 1.249 . S
C78 O80 1.270 . S
O79 Zn71 1.943 . S
O79 C78 1.249 . S
O80 Zn70 2.067 . S
O80 C78 1.270 . S
C81 O74 1.262 . S
C81 O82 1.232 . S
O82 C81 1.232 . S
C83 O75 1.260 . S
C83 O76 1.257 . S
Zn84 O87 2.031 . S
Zn84 O89 2.049 . S
Zn84 O94 2.067 . S
Zn85 O86 1.962 . S
Zn85 O88 1.986 . S
Zn85 O90 1.996 . S
Zn85 O93 1.943 . S
O86 Zn85 1.962 . S
O86 C91 1.254 . S
O87 Zn84 2.031 . S
O87 C91 1.269 . S
O88 Zn85 1.986 . S
O88 C95 1.262 . S
O89 Zn84 2.049 . S
O89 C97 1.260 . S
O90 Zn85 1.996 . S
O90 C97 1.257 . S
C91 O86 1.254 . S
C91 O87 1.269 . S
C92 O93 1.249 . S
C92 O94 1.270 . S
O93 Zn85 1.943 . S
O93 C92 1.249 . S
O94 Zn84 2.067 . S
O94 C92 1.270 . S
C95 O88 1.262 . S
C95 O96 1.232 . S
O96 C95 1.232 . S
C97 O89 1.260 . S
C97 O90 1.257 . S
Zn98 O101 2.031 . S
Zn98 O103 2.049 . S
Zn98 O108 2.067 . S
Zn99 O100 1.962 . S
Zn99 O102 1.986 . S
Zn99 O104 1.996 . S
Zn99 O107 1.943 . S
O100 Zn99 1.962 . S
O100 C105 1.254 . S
O101 Zn98 2.031 . S
O101 C105 1.269 . S
O102 Zn99 1.986 . S
O102 C109 1.262 . S
O103 Zn98 2.049 . S
O103 C111 1.260 . S
O104 Zn99 1.996 . S
O104 C111 1.257 . S
C105 O100 1.254 . S
C105 O101 1.269 . S
C106 O107 1.249 . S
C106 O108 1.270 . S
O107 Zn99 1.943 . S
O107 C106 1.249 . S
O108 Zn98 2.067 . S
O108 C106 1.270 . S
C109 O102 1.262 . S
C109 O110 1.232 . S
O110 C109 1.232 . S
C111 O103 1.260 . S
C111 O104 1.257 . S
Zn112 O115 2.031 . S
Zn112 O117 2.049 . S
Zn112 O122 2.067 . S
Zn113 O114 1.962 . S
Zn113 O116 1.986 . S
Zn113 O118 1.996 . S
Zn113 O121 1.943 . S
O114 Zn113 1.962 . S
O114 C119 1.254 . S
O115 Zn112 2.031 . S
O115 C119 1.269 . S
O116 Zn113 1.986 . S
O116 C123 1.262 . S
O117 Zn112 2.049 . S
O117 C125 1.260 . S
O118 Zn113 1.996 . S
O118 C125 1.257 . S
C119 O114 1.254 . S
C119 O115 1.269 . S
C120 O121 1.249 . S
C120 O122 1.270 . S
O121 Zn113 1.943 . S
O121 C120 1.249 . S
O122 Zn112 2.067 . S
O122 C120 1.270 . S
C123 O116 1.262 . S
C123 O124 1.232 . S
O124 C123 1.232 . S
C125 O117 1.260 . S
C125 O118 1.257 . S
Zn126 O129 2.031 . S
Zn126 O131 2.049 . S
Zn126 O136 2.067 . S
Zn127 O128 1.962 . S
Zn127 O130 1.986 . S
Zn127 O132 1.996 . S
Zn127 O135 1.943 . S
O128 Zn127 1.962 . S
O128 C133 1.254 . S
O129 Zn126 2.031 . S
O129 C133 1.269 . S
O130 Zn127 1.986 . S
O130 C137 1.262 . S
O131 Zn126 2.049 . S
O131 C139 1.260 . S
O132 Zn127 1.996 . S
O132 C139 1.257 . S
C133 O128 1.254 . S
C133 O129 1.269 . S
C134 O135 1.249 . S
C134 O136 1.270 . S
O135 Zn127 1.943 . S
O135 C134 1.249 . S
O136 Zn126 2.067 . S
O136 C134 1.270 . S
C137 O130 1.262 . S
C137 O138 1.232 . S
O138 C137 1.232 . S
C139 O131 1.260 . S
C139 O132 1.257 . S
Zn140 O143 2.031 . S
Zn140 O145 2.049 . S
Zn140 O150 2.067 . S
Zn141 O142 1.962 . S
Zn141 O144 1.986 . S
Zn141 O146 1.996 . S
Zn141 O149 1.943 . S
O142 Zn141 1.962 . S
O142 C147 1.254 . S
O143 Zn140 2.031 . S
O143 C147 1.269 . S
O144 Zn141 1.986 . S
O144 C151 1.262 . S
O145 Zn140 2.049 . S
O145 C153 1.260 . S
O146 Zn141 1.996 . S
O146 C153 1.257 . S
C147 O142 1.254 . S
C147 O143 1.269 . S
C148 O149 1.249 . S
C148 O150 1.270 . S
O149 Zn141 1.943 . S
O149 C148 1.249 . S
O150 Zn140 2.067 . S
O150 C148 1.270 . S
C151 O144 1.262 . S
C151 O152 1.232 . S
O152 C151 1.232 . S
C153 O145 1.260 . S
C153 O146 1.257 . S
Zn154 O157 2.031 . S
Zn154 O159 2.049 . S
Zn154 O164 2.067 . S
Zn155 O156 1.962 . S
Zn155 O158 1.986 . S
Zn155 O160 1.996 . S
Zn155 O163 1.943 . S
O156 Zn155 1.962 . S
O156 C161 1.254 . S
O157 Zn154 2.031 . S
O157 C161 1.269 . S
O158 Zn155 1.986 . S
O158 C165 1.262 . S
O159 Zn154 2.049 . S
O159 C167 1.260 . S
O160 Zn155 1.996 . S
O160 C167 1.257 . S
C161 O156 1.254 . S
C161 O157 1.269 . S
C162 O163 1.249 . S
C162 O164 1.270 . S
O163 Zn155 1.943 . S
O163 C162 1.249 . S
O164 Zn154 2.067 . S
O164 C162 1.270 . S
C165 O158 1.262 . S
C165 O166 1.232 . S
O166 C165 1.232 . S
C167 O159 1.260 . S
C167 O160 1.257 . S
Zn168 O171 2.031 . S
Zn168 O173 2.049 . S
Zn168 O178 2.067 . S
Zn169 O170 1.962 . S
Zn169 O172 1.986 . S
Zn169 O174 1.996 . S
Zn169 O177 1.943 . S
O170 Zn169 1.962 . S
O170 C175 1.254 . S
O171 Zn168 2.031 . S
O171 C175 1.269 . S
O172 Zn169 1.986 . S
O172 C179 1.262 . S
O173 Zn168 2.049 . S
O173 C181 1.260 . S
O174 Zn169 1.996 . S
O174 C181 1.257 . S
C175 O170 1.254 . S
C175 O171 1.269 . S
C176 O177 1.249 . S
C176 O178 1.270 . S
O177 Zn169 1.943 . S
O177 C176 1.249 . S
O178 Zn168 2.067 . S
O178 C176 1.270 . S
C179 O172 1.262 . S
C179 O180 1.232 . S
O180 C179 1.232 . S
C181 O173 1.260 . S
C181 O174 1.257 . S
Zn182 O185 2.031 . S
Zn182 O187 2.049 . S
Zn182 O192 2.067 . S
Zn183 O184 1.962 . S
Zn183 O186 1.986 . S
Zn183 O188 1.996 . S
Zn183 O191 1.943 . S
O184 Zn183 1.962 . S
O184 C189 1.254 . S
O185 Zn182 2.031 . S
O185 C189 1.269 . S
O186 Zn183 1.986 . S
O186 C193 1.262 . S
O187 Zn182 2.049 . S
O187 C195 1.260 . S
O188 Zn183 1.996 . S
O188 C195 1.257 . S
C189 O184 1.254 . S
C189 O185 1.269 . S
C190 O191 1.249 . S
C190 O192 1.270 . S
O191 Zn183 1.943 . S
O191 C190 1.249 . S
O192 Zn182 2.067 . S
O192 C190 1.270 . S
C193 O186 1.262 . S
C193 O194 1.232 . S
O194 C193 1.232 . S
C195 O187 1.260 . S
C195 O188 1.257 . S
Zn196 O199 2.031 . S
Zn196 O201 2.049 . S
Zn196 O206 2.067 . S
Zn197 O198 1.962 . S
Zn197 O200 1.986 . S
Zn197 O202 1.996 . S
Zn197 O205 1.943 . S
O198 Zn197 1.962 . S
O198 C203 1.254 . S
O199 Zn196 2.031 . S
O199 C203 1.269 . S
O200 Zn197 1.986 . S
O200 C207 1.262 . S
O201 Zn196 2.049 . S
O201 C209 1.260 . S
O202 Zn197 1.996 . S
O202 C209 1.257 . S
C203 O198 1.254 . S
C203 O199 1.269 . S
C204 O205 1.249 . S
C204 O206 1.270 . S
O205 Zn197 1.943 . S
O205 C204 1.249 . S
O206 Zn196 2.067 . S
O206 C204 1.270 . S
C207 O200 1.262 . S
C207 O208 1.232 . S
O208 C207 1.232 . S
C209 O201 1.260 . S
C209 O202 1.257 . S
Zn210 O213 2.031 . S
Zn210 O215 2.049 . S
Zn210 O220 2.067 . S
Zn211 O212 1.962 . S
Zn211 O214 1.986 . S
Zn211 O216 1.996 . S
Zn211 O219 1.943 . S
O212 Zn211 1.962 . S
O212 C217 1.254 . S
O213 Zn210 2.031 . S
O213 C217 1.269 . S
O214 Zn211 1.986 . S
O214 C221 1.262 . S
O215 Zn210 2.049 . S
O215 C223 1.260 . S
O216 Zn211 1.996 . S
O216 C223 1.257 . S
C217 O212 1.254 . S
C217 O213 1.269 . S
C218 O219 1.249 . S
C218 O220 1.270 . S
O219 Zn211 1.943 . S
O219 C218 1.249 . S
O220 Zn210 2.067 . S
O220 C218 1.270 . S
C221 O214 1.262 . S
C221 O222 1.232 . S
O222 C221 1.232 . S
C223 O215 1.260 . S
C223 O216 1.257 . S
Zn224 O227 2.031 . S
Zn224 O229 2.049 . S
Zn224 O234 2.067 . S
Zn225 O226 1.962 . S
Zn225 O228 1.986 . S
Zn225 O230 1.996 . S
Zn225 O233 1.943 . S
O226 Zn225 1.962 . S
O226 C231 1.254 . S
O227 Zn224 2.031 . S
O227 C231 1.269 . S
O228 Zn225 1.986 . S
O228 C235 1.262 . S
O229 Zn224 2.049 . S
O229 C237 1.260 . S
O230 Zn225 1.996 . S
O230 C237 1.257 . S
C231 O226 1.254 . S
C231 O227 1.269 . S
C232 O233 1.249 . S
C232 O234 1.270 . S
O233 Zn225 1.943 . S
O233 C232 1.249 . S
O234 Zn224 2.067 . S
O234 C232 1.270 . S
C235 O228 1.262 . S
C235 O236 1.232 . S
O236 C235 1.232 . S
C237 O229 1.260 . S
C237 O230 1.257 . S
Zn238 O241 2.031 . S
Zn238 O243 2.049 . S
Zn238 O248 2.067 . S
Zn239 O240 1.962 . S
Zn239 O242 1.986 . S
Zn239 O244 1.996 . S
Zn239 O247 1.943 . S
O240 Zn239 1.962 . S
O240 C245 1.254 . S
O241 Zn238 2.031 . S
O241 C245 1.269 . S
O242 Zn239 1.986 . S
O242 C249 1.262 . S
O243 Zn238 2.049 . S
O243 C251 1.260 . S
O244 Zn239 1.996 . S
O244 C251 1.257 . S
C245 O240 1.254 . S
C245 O241 1.269 . S
C246 O247 1.249 . S
C246 O248 1.270 . S
O247 Zn239 1.943 . S
O247 C246 1.249 . S
O248 Zn238 2.067 . S
O248 C246 1.270 . S
C249 O242 1.262 . S
C249 O250 1.232 . S
O250 C249 1.232 . S
C251 O243 1.260 . S
C251 O244 1.257 . S
Zn252 O255 2.031 . S
Zn252 O257 2.049 . S
Zn252 O262 2.067 . S
Zn253 O254 1.962 . S
Zn253 O256 1.986 . S
Zn253 O258 1.996 . S
Zn253 O261 1.943 . S
O254 Zn253 1.962 . S
O254 C259 1.254 . S
O255 Zn252 2.031 . S
O255 C259 1.269 . S
O256 Zn253 1.986 . S
O256 C263 1.262 . S
O257 Zn252 2.049 . S
O257 C265 1.260 . S
O258 Zn253 1.996 . S
O258 C265 1.257 . S
C259 O254 1.254 . S
C259 O255 1.269 . S
C260 O261 1.249 . S
C260 O262 1.270 . S
O261 Zn253 1.943 . S
O261 C260 1.249 . S
O262 Zn252 2.067 . S
O262 C260 1.270 . S
C263 O256 1.262 . S
C263 O264 1.232 . S
O264 C263 1.232 . S
C265 O257 1.260 . S
C265 O258 1.257 . S
Zn266 O269 2.031 . S
Zn266 O271 2.049 . S
Zn266 O276 2.067 . S
Zn267 O268 1.962 . S
Zn267 O270 1.986 . S
Zn267 O272 1.996 . S
Zn267 O275 1.943 . S
O268 Zn267 1.962 . S
O268 C273 1.254 . S
O269 Zn266 2.031 . S
O269 C273 1.269 . S
O270 Zn267 1.986 . S
O270 C277 1.262 . S
O271 Zn266 2.049 . S
O271 C279 1.260 . S
O272 Zn267 1.996 . S
O272 C279 1.257 . S
C273 O268 1.254 . S
C273 O269 1.269 . S
C274 O275 1.249 . S
C274 O276 1.270 . S
O275 Zn267 1.943 . S
O275 C274 1.249 . S
O276 Zn266 2.067 . S
O276 C274 1.270 . S
C277 O270 1.262 . S
C277 O278 1.232 . S
O278 C277 1.232 . S
C279 O271 1.260 . S
C279 O272 1.257 . S
Zn280 O283 2.031 . S
Zn280 O285 2.049 . S
Zn280 O290 2.067 . S
Zn281 O282 1.962 . S
Zn281 O284 1.986 . S
Zn281 O286 1.996 . S
Zn281 O289 1.943 . S
O282 Zn281 1.962 . S
O282 C287 1.254 . S
O283 Zn280 2.031 . S
O283 C287 1.269 . S
O284 Zn281 1.986 . S
O284 C291 1.262 . S
O285 Zn280 2.049 . S
O285 C293 1.260 . S
O286 Zn281 1.996 . S
O286 C293 1.257 . S
C287 O282 1.254 . S
C287 O283 1.269 . S
C288 O289 1.249 . S
C288 O290 1.270 . S
O289 Zn281 1.943 . S
O289 C288 1.249 . S
O290 Zn280 2.067 . S
O290 C288 1.270 . S
C291 O284 1.262 . S
C291 O292 1.232 . S
O292 C291 1.232 . S
C293 O285 1.260 . S
C293 O286 1.257 . S
Zn294 O297 2.031 . S
Zn294 O299 2.049 . S
Zn294 O304 2.067 . S
Zn295 O296 1.962 . S
Zn295 O298 1.986 . S
Zn295 O300 1.996 . S
Zn295 O303 1.943 . S
O296 Zn295 1.962 . S
O296 C301 1.254 . S
O297 Zn294 2.031 . S
O297 C301 1.269 . S
O298 Zn295 1.986 . S
O298 C305 1.262 . S
O299 Zn294 2.049 . S
O299 C307 1.260 . S
O300 Zn295 1.996 . S
O300 C307 1.257 . S
C301 O296 1.254 . S
C301 O297 1.269 . S
C302 O303 1.249 . S
C302 O304 1.270 . S
O303 Zn295 1.943 . S
O303 C302 1.249 . S
O304 Zn294 2.067 . S
O304 C302 1.270 . S
C305 O298 1.262 . S
C305 O306 1.232 . S
O306 C305 1.232 . S
C307 O299 1.260 . S
C307 O300 1.257 . S
Zn308 O311 2.031 . S
Zn308 O313 2.049 . S
Zn308 O318 2.067 . S
Zn309 O310 1.962 . S
Zn309 O312 1.986 . S
Zn309 O314 1.996 . S
Zn309 O317 1.943 . S
O310 Zn309 1.962 . S
O310 C315 1.254 . S
O311 Zn308 2.031 . S
O311 C315 1.269 . S
O312 Zn309 1.986 . S
O312 C319 1.262 . S
O313 Zn308 2.049 . S
O313 C321 1.260 . S
O314 Zn309 1.996 . S
O314 C321 1.257 . S
C315 O310 1.254 . S
C315 O311 1.269 . S
C316 O317 1.249 . S
C316 O318 1.270 . S
O317 Zn309 1.943 . S
O317 C316 1.249 . S
O318 Zn308 2.067 . S
O318 C316 1.270 . S
C319 O312 1.262 . S
C319 O320 1.232 . S
O320 C319 1.232 . S
C321 O313 1.260 . S
C321 O314 1.257 . S
Zn322 O325 2.031 . S
Zn322 O327 2.049 . S
Zn322 O332 2.067 . S
Zn323 O324 1.962 . S
Zn323 O326 1.986 . S
Zn323 O328 1.996 . S
Zn323 O331 1.943 . S
O324 Zn323 1.962 . S
O324 C329 1.254 . S
O325 Zn322 2.031 . S
O325 C329 1.269 . S
O326 Zn323 1.986 . S
O326 C333 1.262 . S
O327 Zn322 2.049 . S
O327 C335 1.260 . S
O328 Zn323 1.996 . S
O328 C335 1.257 . S
C329 O324 1.254 . S
C329 O325 1.269 . S
C330 O331 1.249 . S
C330 O332 1.270 . S
O331 Zn323 1.943 . S
O331 C330 1.249 . S
O332 Zn322 2.067 . S
O332 C330 1.270 . S
C333 O326 1.262 . S
C333 O334 1.232 . S
O334 C333 1.232 . S
C335 O327 1.260 . S
C335 O328 1.257 . S
Zn336 O339 2.031 . S
Zn336 O341 2.049 . S
Zn336 O346 2.067 . S
Zn337 O338 1.962 . S
Zn337 O340 1.986 . S
Zn337 O342 1.996 . S
Zn337 O345 1.943 . S
O338 Zn337 1.962 . S
O338 C343 1.254 . S
O339 Zn336 2.031 . S
O339 C343 1.269 . S
O340 Zn337 1.986 . S
O340 C347 1.262 . S
O341 Zn336 2.049 . S
O341 C349 1.260 . S
O342 Zn337 1.996 . S
O342 C349 1.257 . S
C343 O338 1.254 . S
C343 O339 1.269 . S
C344 O345 1.249 . S
C344 O346 1.270 . S
O345 Zn337 1.943 . S
O345 C344 1.249 . S
O346 Zn336 2.067 . S
O346 C344 1.270 . S
C347 O340 1.262 . S
C347 O348 1.232 . S
O348 C347 1.232 . S
C349 O341 1.260 . S
C349 O342 1.257 . S
Zn350 O353 2.031 . S
Zn350 O355 2.049 . S
Zn350 O360 2.067 . S
Zn351 O352 1.962 . S
Zn351 O354 1.986 . S
Zn351 O356 1.996 . S
Zn351 O359 1.943 . S
O352 Zn351 1.962 . S
O352 C357 1.254 . S
O353 Zn350 2.031 . S
O353 C357 1.269 . S
O354 Zn351 1.986 . S
O354 C361 1.262 . S
O355 Zn350 2.049 . S
O355 C363 1.260 . S
O356 Zn351 1.996 . S
O356 C363 1.257 . S
C357 O352 1.254 . S
C357 O353 1.269 . S
C358 O359 1.249 . S
C358 O360 1.270 . S
O359 Zn351 1.943 . S
O359 C358 1.249 . S
O360 Zn350 2.067 . S
O360 C358 1.270 . S
C361 O354 1.262 . S
C361 O362 1.232 . S
O362 C361 1.232 . S
C363 O355 1.260 . S
C363 O356 1.257 . S
Zn364 O367 2.031 . S
Zn364 O369 2.049 . S
Zn364 O374 2.067 . S
Zn365 O366 1.962 . S
Zn365 O368 1.986 . S
Zn365 O370 1.996 . S
Zn365 O373 1.943 . S
O366 Zn365 1.962 . S
O366 C371 1.254 . S
O367 Zn364 2.031 . S
O367 C371 1.269 . S
O368 Zn365 1.986 . S
O368 C375 1.262 . S
O369 Zn364 2.049 . S
O369 C377 1.260 . S
O370 Zn365 1.996 . S
O370 C377 1.257 . S
C371 O366 1.254 . S
C371 O367 1.269 . S
C372 O373 1.249 . S
C372 O374 1.270 . S
O373 Zn365 1.943 . S
O373 C372 1.249 . S
O374 Zn364 2.067 . S
O374 C372 1.270 . S
C375 O368 1.262 . S
C375 O376 1.232 . S
O376 C375 1.232 . S
C377 O369 1.260 . S
C377 O370 1.257 . S
Zn378 O381 2.031 . S
Zn378 O383 2.049 . S
Zn378 O388 2.067 . S
Zn379 O380 1.962 . S
Zn379 O382 1.986 . S
Zn379 O384 1.996 . S
Zn379 O387 1.943 . S
O380 Zn379 1.962 . S
O380 C385 1.254 . S
O381 Zn378 2.031 . S
O381 C385 1.269 . S
O382 Zn379 1.986 . S
O382 C389 1.262 . S
O383 Zn378 2.049 . S
O383 C391 1.260 . S
O384 Zn379 1.996 . S
O384 C391 1.257 . S
C385 O380 1.254 . S
C385 O381 1.269 . S
C386 O387 1.249 . S
C386 O388 1.270 . S
O387 Zn379 1.943 . S
O387 C386 1.249 . S
O388 Zn378 2.067 . S
O388 C386 1.270 . S
C389 O382 1.262 . S
C389 O390 1.232 . S
O390 C389 1.232 . S
C391 O383 1.260 . S
C391 O384 1.257 . S
Zn392 O395 2.031 . S
Zn392 O397 2.049 . S
Zn392 O402 2.067 . S
Zn393 O394 1.962 . S
Zn393 O396 1.986 . S
Zn393 O398 1.996 . S
Zn393 O401 1.943 . S
O394 Zn393 1.962 . S
O394 C399 1.254 . S
O395 Zn392 2.031 . S
O395 C399 1.269 . S
O396 Zn393 1.986 . S
O396 C403 1.262 . S
O397 Zn392 2.049 . S
O397 C405 1.260 . S
O398 Zn393 1.996 . S
O398 C405 1.257 . S
C399 O394 1.254 . S
C399 O395 1.269 . S
C400 O401 1.249 . S
C400 O402 1.270 . S
O401 Zn393 1.943 . S
O401 C400 1.249 . S
O402 Zn392 2.067 . S
O402 C400 1.270 . S
C403 O396 1.262 . S
C403 O404 1.232 . S
O404 C403 1.232 . S
C405 O397 1.260 . S
C405 O398 1.257 . S
Zn406 O409 2.031 . S
Zn406 O411 2.049 . S
Zn406 O416 2.067 . S
Zn407 O408 1.962 . S
Zn407 O410 1.986 . S
Zn407 O412 1.996 . S
Zn407 O415 1.943 . S
O408 Zn407 1.962 . S
O408 C413 1.254 . S
O409 Zn406 2.031 . S
O409 C413 1.269 . S
O410 Zn407 1.986 . S
O410 C417 1.262 . S
O411 Zn406 2.049 . S
O411 C419 1.260 . S
O412 Zn407 1.996 . S
O412 C419 1.257 . S
C413 O408 1.254 . S
C413 O409 1.269 . S
C414 O415 1.249 . S
C414 O416 1.270 . S
O415 Zn407 1.943 . S
O415 C414 1.249 . S
O416 Zn406 2.067 . S
O416 C414 1.270 . S
C417 O410 1.262 . S
C417 O418 1.232 . S
O418 C417 1.232 . S
C419 O411 1.260 . S
C419 O412 1.257 . S
Zn420 O423 2.031 . S
Zn420 O425 2.049 . S
Zn420 O430 2.067 . S
Zn421 O422 1.962 . S
Zn421 O424 1.986 . S
Zn421 O426 1.996 . S
Zn421 O429 1.943 . S
O422 Zn421 1.962 . S
O422 C427 1.254 . S
O423 Zn420 2.031 . S
O423 C427 1.269 . S
O424 Zn421 1.986 . S
O424 C431 1.262 . S
O425 Zn420 2.049 . S
O425 C433 1.260 . S
O426 Zn421 1.996 . S
O426 C433 1.257 . S
C427 O422 1.254 . S
C427 O423 1.269 . S
C428 O429 1.249 . S
C428 O430 1.270 . S
O429 Zn421 1.943 . S
O429 C428 1.249 . S
O430 Zn420 2.067 . S
O430 C428 1.270 . S
C431 O424 1.262 . S
C431 O432 1.232 . S
O432 C431 1.232 . S
C433 O425 1.260 . S
C433 O426 1.257 . S
Zn434 O437 2.031 . S
Zn434 O439 2.049 . S
Zn434 O444 2.067 . S
Zn435 O436 1.962 . S
Zn435 O438 1.986 . S
Zn435 O440 1.996 . S
Zn435 O443 1.943 . S
O436 Zn435 1.962 . S
O436 C441 1.254 . S
O437 Zn434 2.031 . S
O437 C441 1.269 . S
O438 Zn435 1.986 . S
O438 C445 1.262 . S
O439 Zn434 2.049 . S
O439 C447 1.260 . S
O440 Zn435 1.996 . S
O440 C447 1.257 . S
C441 O436 1.254 . S
C441 O437 1.269 . S
C442 O443 1.249 . S
C442 O444 1.270 . S
O443 Zn435 1.943 . S
O443 C442 1.249 . S
O444 Zn434 2.067 . S
O444 C442 1.270 . S
C445 O438 1.262 . S
C445 O446 1.232 . S
O446 C445 1.232 . S
C447 O439 1.260 . S
C447 O440 1.257 . S
C448 C449 1.363 . S
C448 C454 1.379 . S
C448 N456 1.356 . S
C449 C448 1.363 . S
C449 C455 1.363 . S
C450 C451 1.363 . S
C450 C455 1.379 . S
C450 N457 1.356 . S
C451 C450 1.363 . S
C451 C454 1.363 . S
N452 C454 1.356 . S
N452 H464 0.984 . S
N452 H465 0.985 . S
N453 C455 1.356 . S
N453 H458 0.984 . S
N453 H459 0.985 . S
C454 C448 1.379 . S
C454 C451 1.363 . S
C454 N452 1.356 . S
C455 C449 1.363 . S
C455 C450 1.379 . S
C455 N453 1.356 . S
N456 C448 1.356 . S
N456 H462 0.984 . S
N456 H463 0.984 . S
N457 C450 1.356 . S
N457 H460 0.984 . S
N457 H461 0.985 . S
H458 N453 0.984 . S
H459 N453 0.985 . S
H460 N457 0.984 . S
H461 N457 0.985 . S
H462 N456 0.984 . S
H463 N456 0.984 . S
H464 N452 0.984 . S
H465 N452 0.985 . S
C466 C467 1.363 . S
C466 C472 1.379 . S
C466 N474 1.356 . S
C467 C466 1.363 . S
C467 C473 1.363 . S
C468 C469 1.363 . S
C468 C473 1.379 . S
C468 N475 1.356 . S
C469 C468 1.363 . S
C469 C472 1.363 . S
N470 C472 1.356 . S
N470 H482 0.984 . S
N470 H483 0.985 . S
N471 C473 1.356 . S
N471 H476 0.984 . S
N471 H477 0.985 . S
C472 C466 1.379 . S
C472 C469 1.363 . S
C472 N470 1.356 . S
C473 C467 1.363 . S
C473 C468 1.379 . S
C473 N471 1.356 . S
N474 C466 1.356 . S
N474 H480 0.984 . S
N474 H481 0.984 . S
N475 C468 1.356 . S
N475 H478 0.984 . S
N475 H479 0.985 . S
H476 N471 0.984 . S
H477 N471 0.985 . S
H478 N475 0.984 . S
H479 N475 0.985 . S
H480 N474 0.984 . S
H481 N474 0.984 . S
H482 N470 0.984 . S
H483 N470 0.985 . S
C484 C485 1.363 . S
C484 C490 1.379 . S
C484 N492 1.356 . S
C485 C484 1.363 . S
C485 C491 1.363 . S
C486 C487 1.363 . S
C486 C491 1.379 . S
C486 N493 1.356 . S
C487 C486 1.363 . S
C487 C490 1.363 . S
N488 C490 1.356 . S
N488 H500 0.984 . S
N488 H501 0.985 . S
N489 C491 1.356 . S
N489 H494 0.984 . S
N489 H495 0.985 . S
C490 C484 1.379 . S
C490 C487 1.363 . S
C490 N488 1.356 . S
C491 C485 1.363 . S
C491 C486 1.379 . S
C491 N489 1.356 . S
N492 C484 1.356 . S
N492 H498 0.984 . S
N492 H499 0.984 . S
N493 C486 1.356 . S
N493 H496 0.984 . S
N493 H497 0.985 . S
H494 N489 0.984 . S
H495 N489 0.985 . S
H496 N493 0.984 . S
H497 N493 0.985 . S
H498 N492 0.984 . S
H499 N492 0.984 . S
H500 N488 0.984 . S
H501 N488 0.985 . S
C502 C503 1.363 . S
C502 C508 1.379 . S
C502 N510 1.356 . S
C503 C502 1.363 . S
C503 C509 1.363 . S
C504 C505 1.363 . S
C504 C509 1.379 . S
C504 N511 1.356 . S
C505 C504 1.363 . S
C505 C508 1.363 . S
N506 C508 1.356 . S
N506 H518 0.984 . S
N506 H519 0.985 . S
N507 C509 1.356 . S
N507 H512 0.984 . S
N507 H513 0.985 . S
C508 C502 1.379 . S
C508 C505 1.363 . S
C508 N506 1.356 . S
C509 C503 1.363 . S
C509 C504 1.379 . S
C509 N507 1.356 . S
N510 C502 1.356 . S
N510 H516 0.984 . S
N510 H517 0.984 . S
N511 C504 1.356 . S
N511 H514 0.984 . S
N511 H515 0.985 . S
H512 N507 0.984 . S
H513 N507 0.985 . S
H514 N511 0.984 . S
H515 N511 0.985 . S
H516 N510 0.984 . S
H517 N510 0.984 . S
H518 N506 0.984 . S
H519 N506 0.985 . S
C520 C521 1.363 . S
C520 C526 1.379 . S
C520 N528 1.356 . S
C521 C520 1.363 . S
C521 C527 1.363 . S
C522 C523 1.363 . S
C522 C527 1.379 . S
C522 N529 1.356 . S
C523 C522 1.363 . S
C523 C526 1.363 . S
N524 C526 1.356 . S
N524 H536 0.984 . S
N524 H537 0.985 . S
N525 C527 1.356 . S
N525 H530 0.984 . S
N525 H531 0.985 . S
C526 C520 1.379 . S
C526 C523 1.363 . S
C526 N524 1.356 . S
C527 C521 1.363 . S
C527 C522 1.379 . S
C527 N525 1.356 . S
N528 C520 1.356 . S
N528 H534 0.984 . S
N528 H535 0.984 . S
N529 C522 1.356 . S
N529 H532 0.984 . S
N529 H533 0.985 . S
H530 N525 0.984 . S
H531 N525 0.985 . S
H532 N529 0.984 . S
H533 N529 0.985 . S
H534 N528 0.984 . S
H535 N528 0.984 . S
H536 N524 0.984 . S
H537 N524 0.985 . S
C538 C539 1.363 . S
C538 C544 1.379 . S
C538 N546 1.356 . S
C539 C538 1.363 . S
C539 C545 1.363 . S
C540 C541 1.363 . S
C540 C545 1.379 . S
C540 N547 1.356 . S
C541 C540 1.363 . S
C541 C544 1.363 . S
N542 C544 1.356 . S
N542 H554 0.984 . S
N542 H555 0.985 . S
N543 C545 1.356 . S
N543 H548 0.984 . S
N543 H549 0.985 . S
C544 C538 1.379 . S
C544 C541 1.363 . S
C544 N542 1.356 . S
C545 C539 1.363 . S
C545 C540 1.379 . S
C545 N543 1.356 . S
N546 C538 1.356 . S
N546 H552 0.984 . S
N546 H553 0.984 . S
N547 C540 1.356 . S
N547 H550 0.984 . S
N547 H551 0.985 . S
H548 N543 0.984 . S
H549 N543 0.985 . S
H550 N547 0.984 . S
H551 N547 0.985 . S
H552 N546 0.984 . S
H553 N546 0.984 . S
H554 N542 0.984 . S
H555 N542 0.985 . S
C556 C557 1.363 . S
C556 C562 1.379 . S
C556 N564 1.356 . S
C557 C556 1.363 . S
C557 C563 1.363 . S
C558 C559 1.363 . S
C558 C563 1.379 . S
C558 N565 1.356 . S
C559 C558 1.363 . S
C559 C562 1.363 . S
N560 C562 1.356 . S
N560 H572 0.984 . S
N560 H573 0.985 . S
N561 C563 1.356 . S
N561 H566 0.984 . S
N561 H567 0.985 . S
C562 C556 1.379 . S
C562 C559 1.363 . S
C562 N560 1.356 . S
C563 C557 1.363 . S
C563 C558 1.379 . S
C563 N561 1.356 . S
N564 C556 1.356 . S
N564 H570 0.984 . S
N564 H571 0.984 . S
N565 C558 1.356 . S
N565 H568 0.984 . S
N565 H569 0.985 . S
H566 N561 0.984 . S
H567 N561 0.985 . S
H568 N565 0.984 . S
H569 N565 0.985 . S
H570 N564 0.984 . S
H571 N564 0.984 . S
H572 N560 0.984 . S
H573 N560 0.985 . S
C574 C575 1.363 . S
C574 C580 1.379 . S
C574 N582 1.356 . S
C575 C574 1.363 . S
C575 C581 1.363 . S
C576 C577 1.363 . S
C576 C581 1.379 . S
C576 N583 1.356 . S
C577 C576 1.363 . S
C577 C580 1.363 . S
N578 C580 1.356 . S
N578 H590 0.984 . S
N578 H591 0.985 . S
N579 C581 1.356 . S
N579 H584 0.984 . S
N579 H585 0.985 . S
C580 C574 1.379 . S
C580 C577 1.363 . S
C580 N578 1.356 . S
C581 C575 1.363 . S
C581 C576 1.379 . S
C581 N579 1.356 . S
N582 C574 1.356 . S
N582 H588 0.984 . S
N582 H589 0.984 . S
N583 C576 1.356 . S
N583 H586 0.984 . S
N583 H587 0.985 . S
H584 N579 0.984 . S
H585 N579 0.985 . S
H586 N583 0.984 . S
H587 N583 0.985 . S
H588 N582 0.984 . S
H589 N582 0.984 . S
H590 N578 0.984 . S
H591 N578 0.985 . S
C592 C593 1.363 . S
C592 C598 1.379 . S
C592 N600 1.356 . S
C593 C592 1.363 . S
C593 C599 1.363 . S
C594 C595 1.363 . S
C594 C599 1.379 . S
C594 N601 1.356 . S
C595 C594 1.363 . S
C595 C598 1.363 . S
N596 C598 1.356 . S
N596 H608 0.984 . S
N596 H609 0.985 . S
N597 C599 1.356 . S
N597 H602 0.984 . S
N597 H603 0.985 . S
C598 C592 1.379 . S
C598 C595 1.363 . S
C598 N596 1.356 . S
C599 C593 1.363 . S
C599 C594 1.379 . S
C599 N597 1.356 . S
N600 C592 1.356 . S
N600 H606 0.984 . S
N600 H607 0.984 . S
N601 C594 1.356 . S
N601 H604 0.984 . S
N601 H605 0.985 . S
H602 N597 0.984 . S
H603 N597 0.985 . S
H604 N601 0.984 . S
H605 N601 0.985 . S
H606 N600 0.984 . S
H607 N600 0.984 . S
H608 N596 0.984 . S
H609 N596 0.985 . S
C610 C611 1.363 . S
C610 C616 1.379 . S
C610 N618 1.356 . S
C611 C610 1.363 . S
C611 C617 1.363 . S
C612 C613 1.363 . S
C612 C617 1.379 . S
C612 N619 1.356 . S
C613 C612 1.363 . S
C613 C616 1.363 . S
N614 C616 1.356 . S
N614 H626 0.984 . S
N614 H627 0.985 . S
N615 C617 1.356 . S
N615 H620 0.984 . S
N615 H621 0.985 . S
C616 C610 1.379 . S
C616 C613 1.363 . S
C616 N614 1.356 . S
C617 C611 1.363 . S
C617 C612 1.379 . S
C617 N615 1.356 . S
N618 C610 1.356 . S
N618 H624 0.984 . S
N618 H625 0.984 . S
N619 C612 1.356 . S
N619 H622 0.984 . S
N619 H623 0.985 . S
H620 N615 0.984 . S
H621 N615 0.985 . S
H622 N619 0.984 . S
H623 N619 0.985 . S
H624 N618 0.984 . S
H625 N618 0.984 . S
H626 N614 0.984 . S
H627 N614 0.985 . S
C628 C629 1.363 . S
C628 C634 1.379 . S
C628 N636 1.356 . S
C629 C628 1.363 . S
C629 C635 1.363 . S
C630 C631 1.363 . S
C630 C635 1.379 . S
C630 N637 1.356 . S
C631 C630 1.363 . S
C631 C634 1.363 . S
N632 C634 1.356 . S
N632 H644 0.984 . S
N632 H645 0.985 . S
N633 C635 1.356 . S
N633 H638 0.984 . S
N633 H639 0.985 . S
C634 C628 1.379 . S
C634 C631 1.363 . S
C634 N632 1.356 . S
C635 C629 1.363 . S
C635 C630 1.379 . S
C635 N633 1.356 . S
N636 C628 1.356 . S
N636 H642 0.984 . S
N636 H643 0.984 . S
N637 C630 1.356 . S
N637 H640 0.984 . S
N637 H641 0.985 . S
H638 N633 0.984 . S
H639 N633 0.985 . S
H640 N637 0.984 . S
H641 N637 0.985 . S
H642 N636 0.984 . S
H643 N636 0.984 . S
H644 N632 0.984 . S
H645 N632 0.985 . S
C646 C647 1.363 . S
C646 C652 1.379 . S
C646 N654 1.356 . S
C647 C646 1.363 . S
C647 C653 1.363 . S
C648 C649 1.363 . S
C648 C653 1.379 . S
C648 N655 1.356 . S
C649 C648 1.363 . S
C649 C652 1.363 . S
N650 C652 1.356 . S
N650 H662 0.984 . S
N650 H663 0.985 . S
N651 C653 1.356 . S
N651 H656 0.984 . S
N651 H657 0.985 . S
C652 C646 1.379 . S
C652 C649 1.363 . S
C652 N650 1.356 . S
C653 C647 1.363 . S
C653 C648 1.379 . S
C653 N651 1.356 . S
N654 C646 1.356 . S
N654 H660 0.984 . S
N654 H661 0.984 . S
N655 C648 1.356 . S
N655 H658 0.984 . S
N655 H659 0.985 . S
H656 N651 0.984 . S
H657 N651 0.985 . S
H658 N655 0.984 . S
H659 N655 0.985 . S
H660 N654 0.984 . S
H661 N654 0.984 . S
H662 N650 0.984 . S
H663 N650 0.985 . S
C664 C665 1.363 . S
C664 C670 1.379 . S
C664 N672 1.356 . S
C665 C664 1.363 . S
C665 C671 1.363 . S
C666 C667 1.363 . S
C666 C671 1.379 . S
C666 N673 1.356 . S
C667 C666 1.363 . S
C667 C670 1.363 . S
N668 C670 1.356 . S
N668 H680 0.984 . S
N668 H681 0.985 . S
N669 C671 1.356 . S
N669 H674 0.984 . S
N669 H675 0.985 . S
C670 C664 1.379 . S
C670 C667 1.363 . S
C670 N668 1.356 . S
C671 C665 1.363 . S
C671 C666 1.379 . S
C671 N669 1.356 . S
N672 C664 1.356 . S
N672 H678 0.984 . S
N672 H679 0.984 . S
N673 C666 1.356 . S
N673 H676 0.984 . S
N673 H677 0.985 . S
H674 N669 0.984 . S
H675 N669 0.985 . S
H676 N673 0.984 . S
H677 N673 0.985 . S
H678 N672 0.984 . S
H679 N672 0.984 . S
H680 N668 0.984 . S
H681 N668 0.985 . S
C682 C683 1.363 . S
C682 C688 1.379 . S
C682 N690 1.356 . S
C683 C682 1.363 . S
C683 C689 1.363 . S
C684 C685 1.363 . S
C684 C689 1.379 . S
C684 N691 1.356 . S
C685 C684 1.363 . S
C685 C688 1.363 . S
N686 C688 1.356 . S
N686 H698 0.984 . S
N686 H699 0.985 . S
N687 C689 1.356 . S
N687 H692 0.984 . S
N687 H693 0.985 . S
C688 C682 1.379 . S
C688 C685 1.363 . S
C688 N686 1.356 . S
C689 C683 1.363 . S
C689 C684 1.379 . S
C689 N687 1.356 . S
N690 C682 1.356 . S
N690 H696 0.984 . S
N690 H697 0.984 . S
N691 C684 1.356 . S
N691 H694 0.984 . S
N691 H695 0.985 . S
H692 N687 0.984 . S
H693 N687 0.985 . S
H694 N691 0.984 . S
H695 N691 0.985 . S
H696 N690 0.984 . S
H697 N690 0.984 . S
H698 N686 0.984 . S
H699 N686 0.985 . S
C700 C701 1.363 . S
C700 C706 1.379 . S
C700 N708 1.356 . S
C701 C700 1.363 . S
C701 C707 1.363 . S
C702 C703 1.363 . S
C702 C707 1.379 . S
C702 N709 1.356 . S
C703 C702 1.363 . S
C703 C706 1.363 . S
N704 C706 1.356 . S
N704 H716 0.984 . S
N704 H717 0.985 . S
N705 C707 1.356 . S
N705 H710 0.984 . S
N705 H711 0.985 . S
C706 C700 1.379 . S
C706 C703 1.363 . S
C706 N704 1.356 . S
C707 C701 1.363 . S
C707 C702 1.379 . S
C707 N705 1.356 . S
N708 C700 1.356 . S
N708 H714 0.984 . S
N708 H715 0.984 . S
N709 C702 1.356 . S
N709 H712 0.984 . S
N709 H713 0.985 . S
H710 N705 0.984 . S
H711 N705 0.985 . S
H712 N709 0.984 . S
H713 N709 0.985 . S
H714 N708 0.984 . S
H715 N708 0.984 . S
H716 N704 0.984 . S
H717 N704 0.985 . S
C718 C719 1.363 . S
C718 C724 1.379 . S
C718 N726 1.356 . S
C719 C718 1.363 . S
C719 C725 1.363 . S
C720 C721 1.363 . S
C720 C725 1.379 . S
C720 N727 1.356 . S
C721 C720 1.363 . S
C721 C724 1.363 . S
N722 C724 1.356 . S
N722 H734 0.984 . S
N722 H735 0.985 . S
N723 C725 1.356 . S
N723 H728 0.984 . S
N723 H729 0.985 . S
C724 C718 1.379 . S
C724 C721 1.363 . S
C724 N722 1.356 . S
C725 C719 1.363 . S
C725 C720 1.379 . S
C725 N723 1.356 . S
N726 C718 1.356 . S
N726 H732 0.984 . S
N726 H733 0.984 . S
N727 C720 1.356 . S
N727 H730 0.984 . S
N727 H731 0.985 . S
H728 N723 0.984 . S
H729 N723 0.985 . S
H730 N727 0.984 . S
H731 N727 0.985 . S
H732 N726 0.984 . S
H733 N726 0.984 . S
H734 N722 0.984 . S
H735 N722 0.985 . S
C736 C737 1.363 . S
C736 C742 1.379 1_655 S
C736 N744 1.356 . S
C737 C736 1.363 . S
C737 C743 1.363 . S
C738 C739 1.363 . S
C738 C743 1.379 1_455 S
C738 N745 1.356 . S
C739 C738 1.363 . S
C739 C742 1.363 . S
N740 C742 1.356 . S
N740 H752 0.984 . S
N740 H753 0.985 . S
N741 C743 1.356 . S
N741 H746 0.984 . S
N741 H747 0.985 . S
C742 C736 1.379 1_455 S
C742 C739 1.363 . S
C742 N740 1.356 . S
C743 C737 1.363 . S
C743 C738 1.379 1_655 S
C743 N741 1.356 . S
N744 C736 1.356 . S
N744 H750 0.984 . S
N744 H751 0.984 . S
N745 C738 1.356 . S
N745 H748 0.984 . S
N745 H749 0.985 . S
H746 N741 0.984 . S
H747 N741 0.985 . S
H748 N745 0.984 . S
H749 N745 0.985 . S
H750 N744 0.984 . S
H751 N744 0.984 . S
H752 N740 0.984 . S
H753 N740 0.985 . S
C754 C755 1.363 . S
C754 C760 1.379 1_545 S
C754 N762 1.356 . S
C755 C754 1.363 . S
C755 C761 1.363 . S
C756 C757 1.363 . S
C756 C761 1.379 1_565 S
C756 N763 1.356 . S
C757 C756 1.363 . S
C757 C760 1.363 . S
N758 C760 1.356 . S
N758 H770 0.984 . S
N758 H771 0.985 . S
N759 C761 1.356 . S
N759 H764 0.984 . S
N759 H765 0.985 . S
C760 C754 1.379 1_565 S
C760 C757 1.363 . S
C760 N758 1.356 . S
C761 C755 1.363 . S
C761 C756 1.379 1_545 S
C761 N759 1.356 . S
N762 C754 1.356 . S
N762 H768 0.984 . S
N762 H769 0.984 . S
N763 C756 1.356 . S
N763 H766 0.984 . S
N763 H767 0.985 . S
H764 N759 0.984 . S
H765 N759 0.985 . S
H766 N763 0.984 . S
H767 N763 0.985 . S
H768 N762 0.984 . S
H769 N762 0.984 . S
H770 N758 0.984 . S
H771 N758 0.985 . S
C772 C773 1.363 . S
C772 C778 1.379 1_455 S
C772 N780 1.356 . S
C773 C772 1.363 . S
C773 C779 1.363 . S
C774 C775 1.363 . S
C774 C779 1.379 1_655 S
C774 N781 1.356 . S
C775 C774 1.363 . S
C775 C778 1.363 . S
N776 C778 1.356 . S
N776 H788 0.984 . S
N776 H789 0.985 . S
N777 C779 1.356 . S
N777 H782 0.984 . S
N777 H783 0.985 . S
C778 C772 1.379 1_655 S
C778 C775 1.363 . S
C778 N776 1.356 . S
C779 C773 1.363 . S
C779 C774 1.379 1_455 S
C779 N777 1.356 . S
N780 C772 1.356 . S
N780 H786 0.984 . S
N780 H787 0.984 . S
N781 C774 1.356 . S
N781 H784 0.984 . S
N781 H785 0.985 . S
H782 N777 0.984 . S
H783 N777 0.985 . S
H784 N781 0.984 . S
H785 N781 0.985 . S
H786 N780 0.984 . S
H787 N780 0.984 . S
H788 N776 0.984 . S
H789 N776 0.985 . S
C790 C791 1.363 . S
C790 C796 1.379 1_565 S
C790 N798 1.356 . S
C791 C790 1.363 . S
C791 C797 1.363 . S
C792 C793 1.363 . S
C792 C797 1.379 1_545 S
C792 N799 1.356 . S
C793 C792 1.363 . S
C793 C796 1.363 . S
N794 C796 1.356 . S
N794 H806 0.984 . S
N794 H807 0.985 . S
N795 C797 1.356 . S
N795 H800 0.984 . S
N795 H801 0.985 . S
C796 C790 1.379 1_545 S
C796 C793 1.363 . S
C796 N794 1.356 . S
C797 C791 1.363 . S
C797 C792 1.379 1_565 S
C797 N795 1.356 . S
N798 C790 1.356 . S
N798 H804 0.984 . S
N798 H805 0.984 . S
N799 C792 1.356 . S
N799 H802 0.984 . S
N799 H803 0.985 . S
H800 N795 0.984 . S
H801 N795 0.985 . S
H802 N799 0.984 . S
H803 N799 0.985 . S
H804 N798 0.984 . S
H805 N798 0.984 . S
H806 N794 0.984 . S
H807 N794 0.985 . S
C808 C809 1.363 . S
C808 C814 1.379 1_455 S
C808 N816 1.356 . S
C809 C808 1.363 . S
C809 C815 1.363 . S
C810 C811 1.363 . S
C810 C815 1.379 1_655 S
C810 N817 1.356 . S
C811 C810 1.363 . S
C811 C814 1.363 . S
N812 C814 1.356 . S
N812 H824 0.984 . S
N812 H825 0.985 . S
N813 C815 1.356 . S
N813 H818 0.984 . S
N813 H819 0.985 . S
C814 C808 1.379 1_655 S
C814 C811 1.363 . S
C814 N812 1.356 . S
C815 C809 1.363 . S
C815 C810 1.379 1_455 S
C815 N813 1.356 . S
N816 C808 1.356 . S
N816 H822 0.984 . S
N816 H823 0.984 . S
N817 C810 1.356 . S
N817 H820 0.984 . S
N817 H821 0.985 . S
H818 N813 0.984 . S
H819 N813 0.985 . S
H820 N817 0.984 . S
H821 N817 0.985 . S
H822 N816 0.984 . S
H823 N816 0.984 . S
H824 N812 0.984 . S
H825 N812 0.985 . S
C826 C827 1.363 . S
C826 C832 1.379 1_565 S
C826 N834 1.356 . S
C827 C826 1.363 . S
C827 C833 1.363 . S
C828 C829 1.363 . S
C828 C833 1.379 1_545 S
C828 N835 1.356 . S
C829 C828 1.363 . S
C829 C832 1.363 . S
N830 C832 1.356 . S
N830 H842 0.984 . S
N830 H843 0.985 . S
N831 C833 1.356 . S
N831 H836 0.984 . S
N831 H837 0.985 . S
C832 C826 1.379 1_545 S
C832 C829 1.363 . S
C832 N830 1.356 . S
C833 C827 1.363 . S
C833 C828 1.379 1_565 S
C833 N831 1.356 . S
N834 C826 1.356 . S
N834 H840 0.984 . S
N834 H841 0.984 . S
N835 C828 1.356 . S
N835 H838 0.984 . S
N835 H839 0.985 . S
H836 N831 0.984 . S
H837 N831 0.985 . S
H838 N835 0.984 . S
H839 N835 0.985 . S
H840 N834 0.984 . S
H841 N834 0.984 . S
H842 N830 0.984 . S
H843 N830 0.985 . S
C844 C845 1.363 . S
C844 C850 1.379 1_455 S
C844 N852 1.356 . S
C845 C844 1.363 . S
C845 C851 1.363 . S
C846 C847 1.363 . S
C846 C851 1.379 1_655 S
C846 N853 1.356 . S
C847 C846 1.363 . S
C847 C850 1.363 . S
N848 C850 1.356 . S
N848 H860 0.984 . S
N848 H861 0.985 . S
N849 C851 1.356 . S
N849 H854 0.984 . S
N849 H855 0.985 . S
C850 C844 1.379 1_655 S
C850 C847 1.363 . S
C850 N848 1.356 . S
C851 C845 1.363 . S
C851 C846 1.379 1_455 S
C851 N849 1.356 . S
N852 C844 1.356 . S
N852 H858 0.984 . S
N852 H859 0.984 . S
N853 C846 1.356 . S
N853 H856 0.984 . S
N853 H857 0.985 . S
H854 N849 0.984 . S
H855 N849 0.985 . S
H856 N853 0.984 . S
H857 N853 0.985 . S
H858 N852 0.984 . S
H859 N852 0.984 . S
H860 N848 0.984 . S
H861 N848 0.985 . S
C862 C863 1.363 . S
C862 C868 1.379 1_545 S
C862 N870 1.356 . S
C863 C862 1.363 . S
C863 C869 1.363 . S
C864 C865 1.363 . S
C864 C869 1.379 1_565 S
C864 N871 1.356 . S
C865 C864 1.363 . S
C865 C868 1.363 . S
N866 C868 1.356 . S
N866 H878 0.984 . S
N866 H879 0.985 . S
N867 C869 1.356 . S
N867 H872 0.984 . S
N867 H873 0.985 . S
C868 C862 1.379 1_565 S
C868 C865 1.363 . S
C868 N866 1.356 . S
C869 C863 1.363 . S
C869 C864 1.379 1_545 S
C869 N867 1.356 . S
N870 C862 1.356 . S
N870 H876 0.984 . S
N870 H877 0.984 . S
N871 C864 1.356 . S
N871 H874 0.984 . S
N871 H875 0.985 . S
H872 N867 0.984 . S
H873 N867 0.985 . S
H874 N871 0.984 . S
H875 N871 0.985 . S
H876 N870 0.984 . S
H877 N870 0.984 . S
H878 N866 0.984 . S
H879 N866 0.985 . S
C880 C881 1.363 . S
C880 C886 1.379 . S
C880 N888 1.356 . S
C881 C880 1.363 . S
C881 C887 1.363 . S
C882 C883 1.363 . S
C882 C887 1.379 . S
C882 N889 1.356 . S
C883 C882 1.363 . S
C883 C886 1.363 . S
N884 C886 1.356 . S
N884 H896 0.984 . S
N884 H897 0.985 . S
N885 C887 1.356 . S
N885 H890 0.984 . S
N885 H891 0.985 . S
C886 C880 1.379 . S
C886 C883 1.363 . S
C886 N884 1.356 . S
C887 C881 1.363 . S
C887 C882 1.379 . S
C887 N885 1.356 . S
N888 C880 1.356 . S
N888 H894 0.984 . S
N888 H895 0.984 . S
N889 C882 1.356 . S
N889 H892 0.984 . S
N889 H893 0.985 . S
H890 N885 0.984 . S
H891 N885 0.985 . S
H892 N889 0.984 . S
H893 N889 0.985 . S
H894 N888 0.984 . S
H895 N888 0.984 . S
H896 N884 0.984 . S
H897 N884 0.985 . S
C898 C899 1.363 . S
C898 C904 1.379 . S
C898 N906 1.356 . S
C899 C898 1.363 . S
C899 C905 1.363 . S
C900 C901 1.363 . S
C900 C905 1.379 . S
C900 N907 1.356 . S
C901 C900 1.363 . S
C901 C904 1.363 . S
N902 C904 1.356 . S
N902 H914 0.984 . S
N902 H915 0.985 . S
N903 C905 1.356 . S
N903 H908 0.984 . S
N903 H909 0.985 . S
C904 C898 1.379 . S
C904 C901 1.363 . S
C904 N902 1.356 . S
C905 C899 1.363 . S
C905 C900 1.379 . S
C905 N903 1.356 . S
N906 C898 1.356 . S
N906 H912 0.984 . S
N906 H913 0.984 . S
N907 C900 1.356 . S
N907 H910 0.984 . S
N907 H911 0.985 . S
H908 N903 0.984 . S
H909 N903 0.985 . S
H910 N907 0.984 . S
H911 N907 0.985 . S
H912 N906 0.984 . S
H913 N906 0.984 . S
H914 N902 0.984 . S
H915 N902 0.985 . S
C916 C917 1.363 . S
C916 C922 1.379 . S
C916 N924 1.356 . S
C917 C916 1.363 . S
C917 C923 1.363 . S
C918 C919 1.363 . S
C918 C923 1.379 . S
C918 N925 1.356 . S
C919 C918 1.363 . S
C919 C922 1.363 . S
N920 C922 1.356 . S
N920 H932 0.984 . S
N920 H933 0.985 . S
N921 C923 1.356 . S
N921 H926 0.984 . S
N921 H927 0.985 . S
C922 C916 1.379 . S
C922 C919 1.363 . S
C922 N920 1.356 . S
C923 C917 1.363 . S
C923 C918 1.379 . S
C923 N921 1.356 . S
N924 C916 1.356 . S
N924 H930 0.984 . S
N924 H931 0.984 . S
N925 C918 1.356 . S
N925 H928 0.984 . S
N925 H929 0.985 . S
H926 N921 0.984 . S
H927 N921 0.985 . S
H928 N925 0.984 . S
H929 N925 0.985 . S
H930 N924 0.984 . S
H931 N924 0.984 . S
H932 N920 0.984 . S
H933 N920 0.985 . S
C934 C935 1.363 . S
C934 C940 1.379 . S
C934 N942 1.356 . S
C935 C934 1.363 . S
C935 C941 1.363 . S
C936 C937 1.363 . S
C936 C941 1.379 . S
C936 N943 1.356 . S
C937 C936 1.363 . S
C937 C940 1.363 . S
N938 C940 1.356 . S
N938 H950 0.984 . S
N938 H951 0.985 . S
N939 C941 1.356 . S
N939 H944 0.984 . S
N939 H945 0.985 . S
C940 C934 1.379 . S
C940 C937 1.363 . S
C940 N938 1.356 . S
C941 C935 1.363 . S
C941 C936 1.379 . S
C941 N939 1.356 . S
N942 C934 1.356 . S
N942 H948 0.984 . S
N942 H949 0.984 . S
N943 C936 1.356 . S
N943 H946 0.984 . S
N943 H947 0.985 . S
H944 N939 0.984 . S
H945 N939 0.985 . S
H946 N943 0.984 . S
H947 N943 0.985 . S
H948 N942 0.984 . S
H949 N942 0.984 . S
H950 N938 0.984 . S
H951 N938 0.985 . S
C952 C953 1.363 . S
C952 C958 1.379 . S
C952 N960 1.356 . S
C953 C952 1.363 . S
C953 C959 1.363 . S
C954 C955 1.363 . S
C954 C959 1.379 . S
C954 N961 1.356 . S
C955 C954 1.363 . S
C955 C958 1.363 . S
N956 C958 1.356 . S
N956 H968 0.984 . S
N956 H969 0.985 . S
N957 C959 1.356 . S
N957 H962 0.984 . S
N957 H963 0.985 . S
C958 C952 1.379 . S
C958 C955 1.363 . S
C958 N956 1.356 . S
C959 C953 1.363 . S
C959 C954 1.379 . S
C959 N957 1.356 . S
N960 C952 1.356 . S
N960 H966 0.984 . S
N960 H967 0.984 . S
N961 C954 1.356 . S
N961 H964 0.984 . S
N961 H965 0.985 . S
H962 N957 0.984 . S
H963 N957 0.985 . S
H964 N961 0.984 . S
H965 N961 0.985 . S
H966 N960 0.984 . S
H967 N960 0.984 . S
H968 N956 0.984 . S
H969 N956 0.985 . S
C970 C971 1.363 . S
C970 C976 1.379 . S
C970 N978 1.356 . S
C971 C970 1.363 . S
C971 C977 1.363 . S
C972 C973 1.363 . S
C972 C977 1.379 . S
C972 N979 1.356 . S
C973 C972 1.363 . S
C973 C976 1.363 . S
N974 C976 1.356 . S
N974 H986 0.984 . S
N974 H987 0.985 . S
N975 C977 1.356 . S
N975 H980 0.984 . S
N975 H981 0.985 . S
C976 C970 1.379 . S
C976 C973 1.363 . S
C976 N974 1.356 . S
C977 C971 1.363 . S
C977 C972 1.379 . S
C977 N975 1.356 . S
N978 C970 1.356 . S
N978 H984 0.984 . S
N978 H985 0.984 . S
N979 C972 1.356 . S
N979 H982 0.984 . S
N979 H983 0.985 . S
H980 N975 0.984 . S
H981 N975 0.985 . S
H982 N979 0.984 . S
H983 N979 0.985 . S
H984 N978 0.984 . S
H985 N978 0.984 . S
H986 N974 0.984 . S
H987 N974 0.985 . S
C988 C989 1.363 . S
C988 C994 1.379 . S
C988 N996 1.356 . S
C989 C988 1.363 . S
C989 C995 1.363 . S
C990 C991 1.363 . S
C990 C995 1.379 . S
C990 N997 1.356 . S
C991 C990 1.363 . S
C991 C994 1.363 . S
N992 C994 1.356 . S
N992 H1004 0.984 . S
N992 H1005 0.985 . S
N993 C995 1.356 . S
N993 H998 0.984 . S
N993 H999 0.985 . S
C994 C988 1.379 . S
C994 C991 1.363 . S
C994 N992 1.356 . S
C995 C989 1.363 . S
C995 C990 1.379 . S
C995 N993 1.356 . S
N996 C988 1.356 . S
N996 H1002 0.984 . S
N996 H1003 0.984 . S
N997 C990 1.356 . S
N997 H1000 0.984 . S
N997 H1001 0.985 . S
H998 N993 0.984 . S
H999 N993 0.985 . S
H1000 N997 0.984 . S
H1001 N997 0.985 . S
H1002 N996 0.984 . S
H1003 N996 0.984 . S
H1004 N992 0.984 . S
H1005 N992 0.985 . S
C1006 C1007 1.363 . S
C1006 C1012 1.379 . S
C1006 N1014 1.356 . S
C1007 C1006 1.363 . S
C1007 C1013 1.363 . S
C1008 C1009 1.363 . S
C1008 C1013 1.379 . S
C1008 N1015 1.356 . S
C1009 C1008 1.363 . S
C1009 C1012 1.363 . S
N1010 C1012 1.356 . S
N1010 H1022 0.984 . S
N1010 H1023 0.985 . S
N1011 C1013 1.356 . S
N1011 H1016 0.984 . S
N1011 H1017 0.985 . S
C1012 C1006 1.379 . S
C1012 C1009 1.363 . S
C1012 N1010 1.356 . S
C1013 C1007 1.363 . S
C1013 C1008 1.379 . S
C1013 N1011 1.356 . S
N1014 C1006 1.356 . S
N1014 H1020 0.984 . S
N1014 H1021 0.984 . S
N1015 C1008 1.356 . S
N1015 H1018 0.984 . S
N1015 H1019 0.985 . S
H1016 N1011 0.984 . S
H1017 N1011 0.985 . S
H1018 N1015 0.984 . S
H1019 N1015 0.985 . S
H1020 N1014 0.984 . S
H1021 N1014 0.984 . S
H1022 N1010 0.984 . S
H1023 N1010 0.985 . S
C1024 C1025 1.363 . S
C1024 C1030 1.379 . S
C1024 N1032 1.356 . S
C1025 C1024 1.363 . S
C1025 C1031 1.363 . S
C1026 C1027 1.363 . S
C1026 C1031 1.379 . S
C1026 N1033 1.356 . S
C1027 C1026 1.363 . S
C1027 C1030 1.363 . S
N1028 C1030 1.356 . S
N1028 H1040 0.984 . S
N1028 H1041 0.985 . S
N1029 C1031 1.356 . S
N1029 H1034 0.984 . S
N1029 H1035 0.985 . S
C1030 C1024 1.379 . S
C1030 C1027 1.363 . S
C1030 N1028 1.356 . S
C1031 C1025 1.363 . S
C1031 C1026 1.379 . S
C1031 N1029 1.356 . S
N1032 C1024 1.356 . S
N1032 H1038 0.984 . S
N1032 H1039 0.984 . S
N1033 C1026 1.356 . S
N1033 H1036 0.984 . S
N1033 H1037 0.985 . S
H1034 N1029 0.984 . S
H1035 N1029 0.985 . S
H1036 N1033 0.984 . S
H1037 N1033 0.985 . S
H1038 N1032 0.984 . S
H1039 N1032 0.984 . S
H1040 N1028 0.984 . S
H1041 N1028 0.985 . S
C1042 C1043 1.363 . S
C1042 C1048 1.379 . S
C1042 N1050 1.356 . S
C1043 C1042 1.363 . S
C1043 C1049 1.363 . S
C1044 C1045 1.363 . S
C1044 C1049 1.379 . S
C1044 N1051 1.356 . S
C1045 C1044 1.363 . S
C1045 C1048 1.363 . S
N1046 C1048 1.356 . S
N1046 H1058 0.984 . S
N1046 H1059 0.985 . S
N1047 C1049 1.356 . S
N1047 H1052 0.984 . S
N1047 H1053 0.985 . S
C1048 C1042 1.379 . S
C1048 C1045 1.363 . S
C1048 N1046 1.356 . S
C1049 C1043 1.363 . S
C1049 C1044 1.379 . S
C1049 N1047 1.356 . S
N1050 C1042 1.356 . S
N1050 H1056 0.984 . S
N1050 H1057 0.984 . S
N1051 C1044 1.356 . S
N1051 H1054 0.984 . S
N1051 H1055 0.985 . S
H1052 N1047 0.984 . S
H1053 N1047 0.985 . S
H1054 N1051 0.984 . S
H1055 N1051 0.985 . S
H1056 N1050 0.984 . S
H1057 N1050 0.984 . S
H1058 N1046 0.984 . S
H1059 N1046 0.985 . S
C1060 C1061 1.363 . S
C1060 C1066 1.379 . S
C1060 N1068 1.356 . S
C1061 C1060 1.363 . S
C1061 C1067 1.363 . S
C1062 C1063 1.363 . S
C1062 C1067 1.379 . S
C1062 N1069 1.356 . S
C1063 C1062 1.363 . S
C1063 C1066 1.363 . S
N1064 C1066 1.356 . S
N1064 H1076 0.984 . S
N1064 H1077 0.985 . S
N1065 C1067 1.356 . S
N1065 H1070 0.984 . S
N1065 H1071 0.985 . S
C1066 C1060 1.379 . S
C1066 C1063 1.363 . S
C1066 N1064 1.356 . S
C1067 C1061 1.363 . S
C1067 C1062 1.379 . S
C1067 N1065 1.356 . S
N1068 C1060 1.356 . S
N1068 H1074 0.984 . S
N1068 H1075 0.984 . S
N1069 C1062 1.356 . S
N1069 H1072 0.984 . S
N1069 H1073 0.985 . S
H1070 N1065 0.984 . S
H1071 N1065 0.985 . S
H1072 N1069 0.984 . S
H1073 N1069 0.985 . S
H1074 N1068 0.984 . S
H1075 N1068 0.984 . S
H1076 N1064 0.984 . S
H1077 N1064 0.985 . S
C1078 C1079 1.363 . S
C1078 C1084 1.379 . S
C1078 N1086 1.356 . S
C1079 C1078 1.363 . S
C1079 C1085 1.363 . S
C1080 C1081 1.363 . S
C1080 C1085 1.379 . S
C1080 N1087 1.356 . S
C1081 C1080 1.363 . S
C1081 C1084 1.363 . S
N1082 C1084 1.356 . S
N1082 H1094 0.984 . S
N1082 H1095 0.985 . S
N1083 C1085 1.356 . S
N1083 H1088 0.984 . S
N1083 H1089 0.985 . S
C1084 C1078 1.379 . S
C1084 C1081 1.363 . S
C1084 N1082 1.356 . S
C1085 C1079 1.363 . S
C1085 C1080 1.379 . S
C1085 N1083 1.356 . S
N1086 C1078 1.356 . S
N1086 H1092 0.984 . S
N1086 H1093 0.984 . S
N1087 C1080 1.356 . S
N1087 H1090 0.984 . S
N1087 H1091 0.985 . S
H1088 N1083 0.984 . S
H1089 N1083 0.985 . S
H1090 N1087 0.984 . S
H1091 N1087 0.985 . S
H1092 N1086 0.984 . S
H1093 N1086 0.984 . S
H1094 N1082 0.984 . S
H1095 N1082 0.985 . S
C1096 C1097 1.363 . S
C1096 C1102 1.379 . S
C1096 N1104 1.356 . S
C1097 C1096 1.363 . S
C1097 C1103 1.363 . S
C1098 C1099 1.363 . S
C1098 C1103 1.379 . S
C1098 N1105 1.356 . S
C1099 C1098 1.363 . S
C1099 C1102 1.363 . S
N1100 C1102 1.356 . S
N1100 H1112 0.984 . S
N1100 H1113 0.985 . S
N1101 C1103 1.356 . S
N1101 H1106 0.984 . S
N1101 H1107 0.985 . S
C1102 C1096 1.379 . S
C1102 C1099 1.363 . S
C1102 N1100 1.356 . S
C1103 C1097 1.363 . S
C1103 C1098 1.379 . S
C1103 N1101 1.356 . S
N1104 C1096 1.356 . S
N1104 H1110 0.984 . S
N1104 H1111 0.984 . S
N1105 C1098 1.356 . S
N1105 H1108 0.984 . S
N1105 H1109 0.985 . S
H1106 N1101 0.984 . S
H1107 N1101 0.985 . S
H1108 N1105 0.984 . S
H1109 N1105 0.985 . S
H1110 N1104 0.984 . S
H1111 N1104 0.984 . S
H1112 N1100 0.984 . S
H1113 N1100 0.985 . S
C1114 C1115 1.363 . S
C1114 C1120 1.379 . S
C1114 N1122 1.356 . S
C1115 C1114 1.363 . S
C1115 C1121 1.363 . S
C1116 C1117 1.363 . S
C1116 C1121 1.379 . S
C1116 N1123 1.356 . S
C1117 C1116 1.363 . S
C1117 C1120 1.363 . S
N1118 C1120 1.356 . S
N1118 H1130 0.984 . S
N1118 H1131 0.985 . S
N1119 C1121 1.356 . S
N1119 H1124 0.984 . S
N1119 H1125 0.985 . S
C1120 C1114 1.379 . S
C1120 C1117 1.363 . S
C1120 N1118 1.356 . S
C1121 C1115 1.363 . S
C1121 C1116 1.379 . S
C1121 N1119 1.356 . S
N1122 C1114 1.356 . S
N1122 H1128 0.984 . S
N1122 H1129 0.984 . S
N1123 C1116 1.356 . S
N1123 H1126 0.984 . S
N1123 H1127 0.985 . S
H1124 N1119 0.984 . S
H1125 N1119 0.985 . S
H1126 N1123 0.984 . S
H1127 N1123 0.985 . S
H1128 N1122 0.984 . S
H1129 N1122 0.984 . S
H1130 N1118 0.984 . S
H1131 N1118 0.985 . S
C1132 C1133 1.363 . S
C1132 C1138 1.379 . S
C1132 N1140 1.356 . S
C1133 C1132 1.363 . S
C1133 C1139 1.363 . S
C1134 C1135 1.363 . S
C1134 C1139 1.379 . S
C1134 N1141 1.356 . S
C1135 C1134 1.363 . S
C1135 C1138 1.363 . S
N1136 C1138 1.356 . S
N1136 H1148 0.984 . S
N1136 H1149 0.985 . S
N1137 C1139 1.356 . S
N1137 H1142 0.984 . S
N1137 H1143 0.985 . S
C1138 C1132 1.379 . S
C1138 C1135 1.363 . S
C1138 N1136 1.356 . S
C1139 C1133 1.363 . S
C1139 C1134 1.379 . S
C1139 N1137 1.356 . S
N1140 C1132 1.356 . S
N1140 H1146 0.984 . S
N1140 H1147 0.984 . S
N1141 C1134 1.356 . S
N1141 H1144 0.984 . S
N1141 H1145 0.985 . S
H1142 N1137 0.984 . S
H1143 N1137 0.985 . S
H1144 N1141 0.984 . S
H1145 N1141 0.985 . S
H1146 N1140 0.984 . S
H1147 N1140 0.984 . S
H1148 N1136 0.984 . S
H1149 N1136 0.985 . S
C1150 C1151 1.363 . S
C1150 C1156 1.379 . S
C1150 N1158 1.356 . S
C1151 C1150 1.363 . S
C1151 C1157 1.363 . S
C1152 C1153 1.363 . S
C1152 C1157 1.379 . S
C1152 N1159 1.356 . S
C1153 C1152 1.363 . S
C1153 C1156 1.363 . S
N1154 C1156 1.356 . S
N1154 H1166 0.984 . S
N1154 H1167 0.985 . S
N1155 C1157 1.356 . S
N1155 H1160 0.984 . S
N1155 H1161 0.985 . S
C1156 C1150 1.379 . S
C1156 C1153 1.363 . S
C1156 N1154 1.356 . S
C1157 C1151 1.363 . S
C1157 C1152 1.379 . S
C1157 N1155 1.356 . S
N1158 C1150 1.356 . S
N1158 H1164 0.984 . S
N1158 H1165 0.984 . S
N1159 C1152 1.356 . S
N1159 H1162 0.984 . S
N1159 H1163 0.985 . S
H1160 N1155 0.984 . S
H1161 N1155 0.985 . S
H1162 N1159 0.984 . S
H1163 N1159 0.985 . S
H1164 N1158 0.984 . S
H1165 N1158 0.984 . S
H1166 N1154 0.984 . S
H1167 N1154 0.985 . S
C1168 C1169 1.363 . S
C1168 C1174 1.379 1_554 S
C1168 N1176 1.356 . S
C1169 C1168 1.363 . S
C1169 C1175 1.363 . S
C1170 C1171 1.363 . S
C1170 C1175 1.379 1_556 S
C1170 N1177 1.356 . S
C1171 C1170 1.363 . S
C1171 C1174 1.363 . S
N1172 C1174 1.356 . S
N1172 H1184 0.984 . S
N1172 H1185 0.985 . S
N1173 C1175 1.356 . S
N1173 H1178 0.984 . S
N1173 H1179 0.985 . S
C1174 C1168 1.379 1_556 S
C1174 C1171 1.363 . S
C1174 N1172 1.356 . S
C1175 C1169 1.363 . S
C1175 C1170 1.379 1_554 S
C1175 N1173 1.356 . S
N1176 C1168 1.356 . S
N1176 H1182 0.984 . S
N1176 H1183 0.984 . S
N1177 C1170 1.356 . S
N1177 H1180 0.984 . S
N1177 H1181 0.985 . S
H1178 N1173 0.984 . S
H1179 N1173 0.985 . S
H1180 N1177 0.984 . S
H1181 N1177 0.985 . S
H1182 N1176 0.984 . S
H1183 N1176 0.984 . S
H1184 N1172 0.984 . S
H1185 N1172 0.985 . S
C1186 C1187 1.363 . S
C1186 C1192 1.379 1_556 S
C1186 N1194 1.356 . S
C1187 C1186 1.363 . S
C1187 C1193 1.363 . S
C1188 C1189 1.363 . S
C1188 C1193 1.379 1_554 S
C1188 N1195 1.356 . S
C1189 C1188 1.363 . S
C1189 C1192 1.363 . S
N1190 C1192 1.356 . S
N1190 H1202 0.984 . S
N1190 H1203 0.985 . S
N1191 C1193 1.356 . S
N1191 H1196 0.984 . S
N1191 H1197 0.985 . S
C1192 C1186 1.379 1_554 S
C1192 C1189 1.363 . S
C1192 N1190 1.356 . S
C1193 C1187 1.363 . S
C1193 C1188 1.379 1_556 S
C1193 N1191 1.356 . S
N1194 C1186 1.356 . S
N1194 H1200 0.984 . S
N1194 H1201 0.984 . S
N1195 C1188 1.356 . S
N1195 H1198 0.984 . S
N1195 H1199 0.985 . S
H1196 N1191 0.984 . S
H1197 N1191 0.985 . S
H1198 N1195 0.984 . S
H1199 N1195 0.985 . S
H1200 N1194 0.984 . S
H1201 N1194 0.984 . S
H1202 N1190 0.984 . S
H1203 N1190 0.985 . S
C1204 C1205 1.363 . S
C1204 C1210 1.379 1_554 S
C1204 N1212 1.356 . S
C1205 C1204 1.363 . S
C1205 C1211 1.363 . S
C1206 C1207 1.363 . S
C1206 C1211 1.379 1_556 S
C1206 N1213 1.356 . S
C1207 C1206 1.363 . S
C1207 C1210 1.363 . S
N1208 C1210 1.356 . S
N1208 H1220 0.984 . S
N1208 H1221 0.985 . S
N1209 C1211 1.356 . S
N1209 H1214 0.984 . S
N1209 H1215 0.985 . S
C1210 C1204 1.379 1_556 S
C1210 C1207 1.363 . S
C1210 N1208 1.356 . S
C1211 C1205 1.363 . S
C1211 C1206 1.379 1_554 S
C1211 N1209 1.356 . S
N1212 C1204 1.356 . S
N1212 H1218 0.984 . S
N1212 H1219 0.984 . S
N1213 C1206 1.356 . S
N1213 H1216 0.984 . S
N1213 H1217 0.985 . S
H1214 N1209 0.984 . S
H1215 N1209 0.985 . S
H1216 N1213 0.984 . S
H1217 N1213 0.985 . S
H1218 N1212 0.984 . S
H1219 N1212 0.984 . S
H1220 N1208 0.984 . S
H1221 N1208 0.985 . S
C1222 C1223 1.363 . S
C1222 C1228 1.379 1_554 S
C1222 N1230 1.356 . S
C1223 C1222 1.363 . S
C1223 C1229 1.363 . S
C1224 C1225 1.363 . S
C1224 C1229 1.379 1_556 S
C1224 N1231 1.356 . S
C1225 C1224 1.363 . S
C1225 C1228 1.363 . S
N1226 C1228 1.356 . S
N1226 H1238 0.984 . S
N1226 H1239 0.985 . S
N1227 C1229 1.356 . S
N1227 H1232 0.984 . S
N1227 H1233 0.985 . S
C1228 C1222 1.379 1_556 S
C1228 C1225 1.363 . S
C1228 N1226 1.356 . S
C1229 C1223 1.363 . S
C1229 C1224 1.379 1_554 S
C1229 N1227 1.356 . S
N1230 C1222 1.356 . S
N1230 H1236 0.984 . S
N1230 H1237 0.984 . S
N1231 C1224 1.356 . S
N1231 H1234 0.984 . S
N1231 H1235 0.985 . S
H1232 N1227 0.984 . S
H1233 N1227 0.985 . S
H1234 N1231 0.984 . S
H1235 N1231 0.985 . S
H1236 N1230 0.984 . S
H1237 N1230 0.984 . S
H1238 N1226 0.984 . S
H1239 N1226 0.985 . S
C1240 C1241 1.363 . S
C1240 C1246 1.379 1_554 S
C1240 N1248 1.356 . S
C1241 C1240 1.363 . S
C1241 C1247 1.363 . S
C1242 C1243 1.363 . S
C1242 C1247 1.379 1_556 S
C1242 N1249 1.356 . S
C1243 C1242 1.363 . S
C1243 C1246 1.363 . S
N1244 C1246 1.356 . S
N1244 H1256 0.984 . S
N1244 H1257 0.985 . S
N1245 C1247 1.356 . S
N1245 H1250 0.984 . S
N1245 H1251 0.985 . S
C1246 C1240 1.379 1_556 S
C1246 C1243 1.363 . S
C1246 N1244 1.356 . S
C1247 C1241 1.363 . S
C1247 C1242 1.379 1_554 S
C1247 N1245 1.356 . S
N1248 C1240 1.356 . S
N1248 H1254 0.984 . S
N1248 H1255 0.984 . S
N1249 C1242 1.356 . S
N1249 H1252 0.984 . S
N1249 H1253 0.985 . S
H1250 N1245 0.984 . S
H1251 N1245 0.985 . S
H1252 N1249 0.984 . S
H1253 N1249 0.985 . S
H1254 N1248 0.984 . S
H1255 N1248 0.984 . S
H1256 N1244 0.984 . S
H1257 N1244 0.985 . S
C1258 C1259 1.363 . S
C1258 C1264 1.379 1_554 S
C1258 N1266 1.356 . S
C1259 C1258 1.363 . S
C1259 C1265 1.363 . S
C1260 C1261 1.363 . S
C1260 C1265 1.379 1_556 S
C1260 N1267 1.356 . S
C1261 C1260 1.363 . S
C1261 C1264 1.363 . S
N1262 C1264 1.356 . S
N1262 H1274 0.984 . S
N1262 H1275 0.985 . S
N1263 C1265 1.356 . S
N1263 H1268 0.984 . S
N1263 H1269 0.985 . S
C1264 C1258 1.379 1_556 S
C1264 C1261 1.363 . S
C1264 N1262 1.356 . S
C1265 C1259 1.363 . S
C1265 C1260 1.379 1_554 S
C1265 N1263 1.356 . S
N1266 C1258 1.356 . S
N1266 H1272 0.984 . S
N1266 H1273 0.984 . S
N1267 C1260 1.356 . S
N1267 H1270 0.984 . S
N1267 H1271 0.985 . S
H1268 N1263 0.984 . S
H1269 N1263 0.985 . S
H1270 N1267 0.984 . S
H1271 N1267 0.985 . S
H1272 N1266 0.984 . S
H1273 N1266 0.984 . S
H1274 N1262 0.984 . S
H1275 N1262 0.985 . S
C1276 C1277 1.363 . S
C1276 C1282 1.379 1_556 S
C1276 N1284 1.356 . S
C1277 C1276 1.363 . S
C1277 C1283 1.363 . S
C1278 C1279 1.363 . S
C1278 C1283 1.379 1_554 S
C1278 N1285 1.356 . S
C1279 C1278 1.363 . S
C1279 C1282 1.363 . S
N1280 C1282 1.356 . S
N1280 H1292 0.984 . S
N1280 H1293 0.985 . S
N1281 C1283 1.356 . S
N1281 H1286 0.984 . S
N1281 H1287 0.985 . S
C1282 C1276 1.379 1_554 S
C1282 C1279 1.363 . S
C1282 N1280 1.356 . S
C1283 C1277 1.363 . S
C1283 C1278 1.379 1_556 S
C1283 N1281 1.356 . S
N1284 C1276 1.356 . S
N1284 H1290 0.984 . S
N1284 H1291 0.984 . S
N1285 C1278 1.356 . S
N1285 H1288 0.984 . S
N1285 H1289 0.985 . S
H1286 N1281 0.984 . S
H1287 N1281 0.985 . S
H1288 N1285 0.984 . S
H1289 N1285 0.985 . S
H1290 N1284 0.984 . S
H1291 N1284 0.984 . S
H1292 N1280 0.984 . S
H1293 N1280 0.985 . S
C1294 C1295 1.363 . S
C1294 C1300 1.379 1_556 S
C1294 N1302 1.356 . S
C1295 C1294 1.363 . S
C1295 C1301 1.363 . S
C1296 C1297 1.363 . S
C1296 C1301 1.379 1_554 S
C1296 N1303 1.356 . S
C1297 C1296 1.363 . S
C1297 C1300 1.363 . S
N1298 C1300 1.356 . S
N1298 H1310 0.984 . S
N1298 H1311 0.985 . S
N1299 C1301 1.356 . S
N1299 H1304 0.984 . S
N1299 H1305 0.985 . S
C1300 C1294 1.379 1_554 S
C1300 C1297 1.363 . S
C1300 N1298 1.356 . S
C1301 C1295 1.363 . S
C1301 C1296 1.379 1_556 S
C1301 N1299 1.356 . S
N1302 C1294 1.356 . S
N1302 H1308 0.984 . S
N1302 H1309 0.984 . S
N1303 C1296 1.356 . S
N1303 H1306 0.984 . S
N1303 H1307 0.985 . S
H1304 N1299 0.984 . S
H1305 N1299 0.985 . S
H1306 N1303 0.984 . S
H1307 N1303 0.985 . S
H1308 N1302 0.984 . S
H1309 N1302 0.984 . S
H1310 N1298 0.984 . S
H1311 N1298 0.985 . S
C1312 C1313 1.363 . S
C1312 C1318 1.379 . S
C1312 N1320 1.356 . S
C1313 C1312 1.363 . S
C1313 C1319 1.363 . S
C1314 C1315 1.363 . S
C1314 C1319 1.379 . S
C1314 N1321 1.356 . S
C1315 C1314 1.363 . S
C1315 C1318 1.363 . S
N1316 C1318 1.356 . S
N1316 H1328 0.984 . S
N1316 H1329 0.985 . S
N1317 C1319 1.356 . S
N1317 H1322 0.984 . S
N1317 H1323 0.985 . S
C1318 C1312 1.379 . S
C1318 C1315 1.363 . S
C1318 N1316 1.356 . S
C1319 C1313 1.363 . S
C1319 C1314 1.379 . S
C1319 N1317 1.356 . S
N1320 C1312 1.356 . S
N1320 H1326 0.984 . S
N1320 H1327 0.984 . S
N1321 C1314 1.356 . S
N1321 H1324 0.984 . S
N1321 H1325 0.985 . S
H1322 N1317 0.984 . S
H1323 N1317 0.985 . S
H1324 N1321 0.984 . S
H1325 N1321 0.985 . S
H1326 N1320 0.984 . S
H1327 N1320 0.984 . S
H1328 N1316 0.984 . S
H1329 N1316 0.985 . S
C1330 C1331 1.363 . S
C1330 C1336 1.379 . S
C1330 N1338 1.356 . S
C1331 C1330 1.363 . S
C1331 C1337 1.363 . S
C1332 C1333 1.363 . S
C1332 C1337 1.379 . S
C1332 N1339 1.356 . S
C1333 C1332 1.363 . S
C1333 C1336 1.363 . S
N1334 C1336 1.356 . S
N1334 H1346 0.984 . S
N1334 H1347 0.985 . S
N1335 C1337 1.356 . S
N1335 H1340 0.984 . S
N1335 H1341 0.985 . S
C1336 C1330 1.379 . S
C1336 C1333 1.363 . S
C1336 N1334 1.356 . S
C1337 C1331 1.363 . S
C1337 C1332 1.379 . S
C1337 N1335 1.356 . S
N1338 C1330 1.356 . S
N1338 H1344 0.984 . S
N1338 H1345 0.984 . S
N1339 C1332 1.356 . S
N1339 H1342 0.984 . S
N1339 H1343 0.985 . S
H1340 N1335 0.984 . S
H1341 N1335 0.985 . S
H1342 N1339 0.984 . S
H1343 N1339 0.985 . S
H1344 N1338 0.984 . S
H1345 N1338 0.984 . S
H1346 N1334 0.984 . S
H1347 N1334 0.985 . S
C1348 C1349 1.363 . S
C1348 C1354 1.379 . S
C1348 N1356 1.356 . S
C1349 C1348 1.363 . S
C1349 C1355 1.363 . S
C1350 C1351 1.363 . S
C1350 C1355 1.379 . S
C1350 N1357 1.356 . S
C1351 C1350 1.363 . S
C1351 C1354 1.363 . S
N1352 C1354 1.356 . S
N1352 H1364 0.984 . S
N1352 H1365 0.985 . S
N1353 C1355 1.356 . S
N1353 H1358 0.984 . S
N1353 H1359 0.985 . S
C1354 C1348 1.379 . S
C1354 C1351 1.363 . S
C1354 N1352 1.356 . S
C1355 C1349 1.363 . S
C1355 C1350 1.379 . S
C1355 N1353 1.356 . S
N1356 C1348 1.356 . S
N1356 H1362 0.984 . S
N1356 H1363 0.984 . S
N1357 C1350 1.356 . S
N1357 H1360 0.984 . S
N1357 H1361 0.985 . S
H1358 N1353 0.984 . S
H1359 N1353 0.985 . S
H1360 N1357 0.984 . S
H1361 N1357 0.985 . S
H1362 N1356 0.984 . S
H1363 N1356 0.984 . S
H1364 N1352 0.984 . S
H1365 N1352 0.985 . S
C1366 C1367 1.363 . S
C1366 C1372 1.379 . S
C1366 N1374 1.356 . S
C1367 C1366 1.363 . S
C1367 C1373 1.363 . S
C1368 C1369 1.363 . S
C1368 C1373 1.379 . S
C1368 N1375 1.356 . S
C1369 C1368 1.363 . S
C1369 C1372 1.363 . S
N1370 C1372 1.356 . S
N1370 H1382 0.984 . S
N1370 H1383 0.985 . S
N1371 C1373 1.356 . S
N1371 H1376 0.984 . S
N1371 H1377 0.985 . S
C1372 C1366 1.379 . S
C1372 C1369 1.363 . S
C1372 N1370 1.356 . S
C1373 C1367 1.363 . S
C1373 C1368 1.379 . S
C1373 N1371 1.356 . S
N1374 C1366 1.356 . S
N1374 H1380 0.984 . S
N1374 H1381 0.984 . S
N1375 C1368 1.356 . S
N1375 H1378 0.984 . S
N1375 H1379 0.985 . S
H1376 N1371 0.984 . S
H1377 N1371 0.985 . S
H1378 N1375 0.984 . S
H1379 N1375 0.985 . S
H1380 N1374 0.984 . S
H1381 N1374 0.984 . S
H1382 N1370 0.984 . S
H1383 N1370 0.985 . S
C1384 C1385 1.363 . S
C1384 C1390 1.379 . S
C1384 N1392 1.356 . S
C1385 C1384 1.363 . S
C1385 C1391 1.363 . S
C1386 C1387 1.363 . S
C1386 C1391 1.379 . S
C1386 N1393 1.356 . S
C1387 C1386 1.363 . S
C1387 C1390 1.363 . S
N1388 C1390 1.356 . S
N1388 H1400 0.984 . S
N1388 H1401 0.985 . S
N1389 C1391 1.356 . S
N1389 H1394 0.984 . S
N1389 H1395 0.985 . S
C1390 C1384 1.379 . S
C1390 C1387 1.363 . S
C1390 N1388 1.356 . S
C1391 C1385 1.363 . S
C1391 C1386 1.379 . S
C1391 N1389 1.356 . S
N1392 C1384 1.356 . S
N1392 H1398 0.984 . S
N1392 H1399 0.984 . S
N1393 C1386 1.356 . S
N1393 H1396 0.984 . S
N1393 H1397 0.985 . S
H1394 N1389 0.984 . S
H1395 N1389 0.985 . S
H1396 N1393 0.984 . S
H1397 N1393 0.985 . S
H1398 N1392 0.984 . S
H1399 N1392 0.984 . S
H1400 N1388 0.984 . S
H1401 N1388 0.985 . S
C1402 C1403 1.363 . S
C1402 C1408 1.379 . S
C1402 N1410 1.356 . S
C1403 C1402 1.363 . S
C1403 C1409 1.363 . S
C1404 C1405 1.363 . S
C1404 C1409 1.379 . S
C1404 N1411 1.356 . S
C1405 C1404 1.363 . S
C1405 C1408 1.363 . S
N1406 C1408 1.356 . S
N1406 H1418 0.984 . S
N1406 H1419 0.985 . S
N1407 C1409 1.356 . S
N1407 H1412 0.984 . S
N1407 H1413 0.985 . S
C1408 C1402 1.379 . S
C1408 C1405 1.363 . S
C1408 N1406 1.356 . S
C1409 C1403 1.363 . S
C1409 C1404 1.379 . S
C1409 N1407 1.356 . S
N1410 C1402 1.356 . S
N1410 H1416 0.984 . S
N1410 H1417 0.984 . S
N1411 C1404 1.356 . S
N1411 H1414 0.984 . S
N1411 H1415 0.985 . S
H1412 N1407 0.984 . S
H1413 N1407 0.985 . S
H1414 N1411 0.984 . S
H1415 N1411 0.985 . S
H1416 N1410 0.984 . S
H1417 N1410 0.984 . S
H1418 N1406 0.984 . S
H1419 N1406 0.985 . S
C1420 C1421 1.363 . S
C1420 C1426 1.379 . S
C1420 N1428 1.356 . S
C1421 C1420 1.363 . S
C1421 C1427 1.363 . S
C1422 C1423 1.363 . S
C1422 C1427 1.379 . S
C1422 N1429 1.356 . S
C1423 C1422 1.363 . S
C1423 C1426 1.363 . S
N1424 C1426 1.356 . S
N1424 H1436 0.984 . S
N1424 H1437 0.985 . S
N1425 C1427 1.356 . S
N1425 H1430 0.984 . S
N1425 H1431 0.985 . S
C1426 C1420 1.379 . S
C1426 C1423 1.363 . S
C1426 N1424 1.356 . S
C1427 C1421 1.363 . S
C1427 C1422 1.379 . S
C1427 N1425 1.356 . S
N1428 C1420 1.356 . S
N1428 H1434 0.984 . S
N1428 H1435 0.984 . S
N1429 C1422 1.356 . S
N1429 H1432 0.984 . S
N1429 H1433 0.985 . S
H1430 N1425 0.984 . S
H1431 N1425 0.985 . S
H1432 N1429 0.984 . S
H1433 N1429 0.985 . S
H1434 N1428 0.984 . S
H1435 N1428 0.984 . S
H1436 N1424 0.984 . S
H1437 N1424 0.985 . S
C1438 C1439 1.363 . S
C1438 C1444 1.379 . S
C1438 N1446 1.356 . S
C1439 C1438 1.363 . S
C1439 C1445 1.363 . S
C1440 C1441 1.363 . S
C1440 C1445 1.379 . S
C1440 N1447 1.356 . S
C1441 C1440 1.363 . S
C1441 C1444 1.363 . S
N1442 C1444 1.356 . S
N1442 H1454 0.984 . S
N1442 H1455 0.985 . S
N1443 C1445 1.356 . S
N1443 H1448 0.984 . S
N1443 H1449 0.985 . S
C1444 C1438 1.379 . S
C1444 C1441 1.363 . S
C1444 N1442 1.356 . S
C1445 C1439 1.363 . S
C1445 C1440 1.379 . S
C1445 N1443 1.356 . S
N1446 C1438 1.356 . S
N1446 H1452 0.984 . S
N1446 H1453 0.984 . S
N1447 C1440 1.356 . S
N1447 H1450 0.984 . S
N1447 H1451 0.985 . S
H1448 N1443 0.984 . S
H1449 N1443 0.985 . S
H1450 N1447 0.984 . S
H1451 N1447 0.985 . S
H1452 N1446 0.984 . S
H1453 N1446 0.984 . S
H1454 N1442 0.984 . S
H1455 N1442 0.985 . S
C1456 C1457 1.363 . S
C1456 C1462 1.379 . S
C1456 N1464 1.356 . S
C1457 C1456 1.363 . S
C1457 C1463 1.363 . S
C1458 C1459 1.363 . S
C1458 C1463 1.379 . S
C1458 N1465 1.356 . S
C1459 C1458 1.363 . S
C1459 C1462 1.363 . S
N1460 C1462 1.356 . S
N1460 H1472 0.984 . S
N1460 H1473 0.985 . S
N1461 C1463 1.356 . S
N1461 H1466 0.984 . S
N1461 H1467 0.985 . S
C1462 C1456 1.379 . S
C1462 C1459 1.363 . S
C1462 N1460 1.356 . S
C1463 C1457 1.363 . S
C1463 C1458 1.379 . S
C1463 N1461 1.356 . S
N1464 C1456 1.356 . S
N1464 H1470 0.984 . S
N1464 H1471 0.984 . S
N1465 C1458 1.356 . S
N1465 H1468 0.984 . S
N1465 H1469 0.985 . S
H1466 N1461 0.984 . S
H1467 N1461 0.985 . S
H1468 N1465 0.984 . S
H1469 N1465 0.985 . S
H1470 N1464 0.984 . S
H1471 N1464 0.984 . S
H1472 N1460 0.984 . S
H1473 N1460 0.985 . S
C1474 C1475 1.363 . S
C1474 C1480 1.379 . S
C1474 N1482 1.356 . S
C1475 C1474 1.363 . S
C1475 C1481 1.363 . S
C1476 C1477 1.363 . S
C1476 C1481 1.379 . S
C1476 N1483 1.356 . S
C1477 C1476 1.363 . S
C1477 C1480 1.363 . S
N1478 C1480 1.356 . S
N1478 H1490 0.984 . S
N1478 H1491 0.985 . S
N1479 C1481 1.356 . S
N1479 H1484 0.984 . S
N1479 H1485 0.985 . S
C1480 C1474 1.379 . S
C1480 C1477 1.363 . S
C1480 N1478 1.356 . S
C1481 C1475 1.363 . S
C1481 C1476 1.379 . S
C1481 N1479 1.356 . S
N1482 C1474 1.356 . S
N1482 H1488 0.984 . S
N1482 H1489 0.984 . S
N1483 C1476 1.356 . S
N1483 H1486 0.984 . S
N1483 H1487 0.985 . S
H1484 N1479 0.984 . S
H1485 N1479 0.985 . S
H1486 N1483 0.984 . S
H1487 N1483 0.985 . S
H1488 N1482 0.984 . S
H1489 N1482 0.984 . S
H1490 N1478 0.984 . S
H1491 N1478 0.985 . S
C1492 C1493 1.363 . S
C1492 C1498 1.379 . S
C1492 N1500 1.356 . S
C1493 C1492 1.363 . S
C1493 C1499 1.363 . S
C1494 C1495 1.363 . S
C1494 C1499 1.379 . S
C1494 N1501 1.356 . S
C1495 C1494 1.363 . S
C1495 C1498 1.363 . S
N1496 C1498 1.356 . S
N1496 H1508 0.984 . S
N1496 H1509 0.985 . S
N1497 C1499 1.356 . S
N1497 H1502 0.984 . S
N1497 H1503 0.985 . S
C1498 C1492 1.379 . S
C1498 C1495 1.363 . S
C1498 N1496 1.356 . S
C1499 C1493 1.363 . S
C1499 C1494 1.379 . S
C1499 N1497 1.356 . S
N1500 C1492 1.356 . S
N1500 H1506 0.984 . S
N1500 H1507 0.984 . S
N1501 C1494 1.356 . S
N1501 H1504 0.984 . S
N1501 H1505 0.985 . S
H1502 N1497 0.984 . S
H1503 N1497 0.985 . S
H1504 N1501 0.984 . S
H1505 N1501 0.985 . S
H1506 N1500 0.984 . S
H1507 N1500 0.984 . S
H1508 N1496 0.984 . S
H1509 N1496 0.985 . S
C1510 C1511 1.363 . S
C1510 C1516 1.379 . S
C1510 N1518 1.356 . S
C1511 C1510 1.363 . S
C1511 C1517 1.363 . S
C1512 C1513 1.363 . S
C1512 C1517 1.379 . S
C1512 N1519 1.356 . S
C1513 C1512 1.363 . S
C1513 C1516 1.363 . S
N1514 C1516 1.356 . S
N1514 H1526 0.984 . S
N1514 H1527 0.985 . S
N1515 C1517 1.356 . S
N1515 H1520 0.984 . S
N1515 H1521 0.985 . S
C1516 C1510 1.379 . S
C1516 C1513 1.363 . S
C1516 N1514 1.356 . S
C1517 C1511 1.363 . S
C1517 C1512 1.379 . S
C1517 N1515 1.356 . S
N1518 C1510 1.356 . S
N1518 H1524 0.984 . S
N1518 H1525 0.984 . S
N1519 C1512 1.356 . S
N1519 H1522 0.984 . S
N1519 H1523 0.985 . S
H1520 N1515 0.984 . S
H1521 N1515 0.985 . S
H1522 N1519 0.984 . S
H1523 N1519 0.985 . S
H1524 N1518 0.984 . S
H1525 N1518 0.984 . S
H1526 N1514 0.984 . S
H1527 N1514 0.985 . S
C1528 C1529 1.363 . S
C1528 C1534 1.379 . S
C1528 N1536 1.356 . S
C1529 C1528 1.363 . S
C1529 C1535 1.363 . S
C1530 C1531 1.363 . S
C1530 C1535 1.379 . S
C1530 N1537 1.356 . S
C1531 C1530 1.363 . S
C1531 C1534 1.363 . S
N1532 C1534 1.356 . S
N1532 H1544 0.984 . S
N1532 H1545 0.985 . S
N1533 C1535 1.356 . S
N1533 H1538 0.984 . S
N1533 H1539 0.985 . S
C1534 C1528 1.379 . S
C1534 C1531 1.363 . S
C1534 N1532 1.356 . S
C1535 C1529 1.363 . S
C1535 C1530 1.379 . S
C1535 N1533 1.356 . S
N1536 C1528 1.356 . S
N1536 H1542 0.984 . S
N1536 H1543 0.984 . S
N1537 C1530 1.356 . S
N1537 H1540 0.984 . S
N1537 H1541 0.985 . S
H1538 N1533 0.984 . S
H1539 N1533 0.985 . S
H1540 N1537 0.984 . S
H1541 N1537 0.985 . S
H1542 N1536 0.984 . S
H1543 N1536 0.984 . S
H1544 N1532 0.984 . S
H1545 N1532 0.985 . S
C1546 C1547 1.363 . S
C1546 C1552 1.379 . S
C1546 N1554 1.356 . S
C1547 C1546 1.363 . S
C1547 C1553 1.363 . S
C1548 C1549 1.363 . S
C1548 C1553 1.379 . S
C1548 N1555 1.356 . S
C1549 C1548 1.363 . S
C1549 C1552 1.363 . S
N1550 C1552 1.356 . S
N1550 H1562 0.984 . S
N1550 H1563 0.985 . S
N1551 C1553 1.356 . S
N1551 H1556 0.984 . S
N1551 H1557 0.985 . S
C1552 C1546 1.379 . S
C1552 C1549 1.363 . S
C1552 N1550 1.356 . S
C1553 C1547 1.363 . S
C1553 C1548 1.379 . S
C1553 N1551 1.356 . S
N1554 C1546 1.356 . S
N1554 H1560 0.984 . S
N1554 H1561 0.984 . S
N1555 C1548 1.356 . S
N1555 H1558 0.984 . S
N1555 H1559 0.985 . S
H1556 N1551 0.984 . S
H1557 N1551 0.985 . S
H1558 N1555 0.984 . S
H1559 N1555 0.985 . S
H1560 N1554 0.984 . S
H1561 N1554 0.984 . S
H1562 N1550 0.984 . S
H1563 N1550 0.985 . S
C1564 C1565 1.363 . S
C1564 C1570 1.379 . S
C1564 N1572 1.356 . S
C1565 C1564 1.363 . S
C1565 C1571 1.363 . S
C1566 C1567 1.363 . S
C1566 C1571 1.379 . S
C1566 N1573 1.356 . S
C1567 C1566 1.363 . S
C1567 C1570 1.363 . S
N1568 C1570 1.356 . S
N1568 H1580 0.984 . S
N1568 H1581 0.985 . S
N1569 C1571 1.356 . S
N1569 H1574 0.984 . S
N1569 H1575 0.985 . S
C1570 C1564 1.379 . S
C1570 C1567 1.363 . S
C1570 N1568 1.356 . S
C1571 C1565 1.363 . S
C1571 C1566 1.379 . S
C1571 N1569 1.356 . S
N1572 C1564 1.356 . S
N1572 H1578 0.984 . S
N1572 H1579 0.984 . S
N1573 C1566 1.356 . S
N1573 H1576 0.984 . S
N1573 H1577 0.985 . S
H1574 N1569 0.984 . S
H1575 N1569 0.985 . S
H1576 N1573 0.984 . S
H1577 N1573 0.985 . S
H1578 N1572 0.984 . S
H1579 N1572 0.984 . S
H1580 N1568 0.984 . S
H1581 N1568 0.985 . S
C1582 C1583 1.363 . S
C1582 C1588 1.379 . S
C1582 N1590 1.356 . S
C1583 C1582 1.363 . S
C1583 C1589 1.363 . S
C1584 C1585 1.363 . S
C1584 C1589 1.379 . S
C1584 N1591 1.356 . S
C1585 C1584 1.363 . S
C1585 C1588 1.363 . S
N1586 C1588 1.356 . S
N1586 H1598 0.984 . S
N1586 H1599 0.985 . S
N1587 C1589 1.356 . S
N1587 H1592 0.984 . S
N1587 H1593 0.985 . S
C1588 C1582 1.379 . S
C1588 C1585 1.363 . S
C1588 N1586 1.356 . S
C1589 C1583 1.363 . S
C1589 C1584 1.379 . S
C1589 N1587 1.356 . S
N1590 C1582 1.356 . S
N1590 H1596 0.984 . S
N1590 H1597 0.984 . S
N1591 C1584 1.356 . S
N1591 H1594 0.984 . S
N1591 H1595 0.985 . S
H1592 N1587 0.984 . S
H1593 N1587 0.985 . S
H1594 N1591 0.984 . S
H1595 N1591 0.985 . S
H1596 N1590 0.984 . S
H1597 N1590 0.984 . S
H1598 N1586 0.984 . S
H1599 N1586 0.985 . S
C449 C223 1.365 . S
C451 C13 1.365 . S
C467 C27 1.365 . S
C469 C181 1.365 . S
C485 C41 1.365 . S
C487 C195 1.365 . S
C503 C209 1.365 . S
C505 C55 1.365 . S
C521 C69 1.365 . S
C523 C139 1.365 . S
C539 C83 1.365 . S
C541 C153 1.365 . S
C557 C167 1.365 . S
C559 C97 1.365 . S
C575 C125 1.365 . S
C577 C111 1.365 . S
C593 C237 1.365 . S
C595 C447 1.365 . S
C611 C251 1.365 . S
C613 C405 1.365 . S
C629 C265 1.365 . S
C631 C419 1.365 . S
C647 C433 1.365 . S
C649 C279 1.365 . S
C665 C293 1.365 . S
C667 C363 1.365 . S
C683 C307 1.365 . S
C685 C377 1.365 . S
C701 C391 1.365 . S
C703 C321 1.365 . S
C719 C335 1.365 . S
C721 C349 1.365 . S
C737 C175 1.175 . S
C739 C7 1.175 . S
C755 C21 1.175 . S
C757 C189 1.175 . S
C773 C203 1.175 . S
C775 C35 1.175 . S
C791 C49 1.175 . S
C793 C217 1.175 . S
C809 C63 1.175 . S
C811 C119 1.175 . S
C827 C133 1.175 . S
C829 C77 1.175 . S
C845 C147 1.175 . S
C847 C91 1.175 . S
C863 C161 1.175 . S
C865 C105 1.175 . S
C881 C231 1.175 . S
C883 C399 1.175 . S
C899 C413 1.175 . S
C901 C245 1.175 . S
C917 C259 1.175 . S
C919 C427 1.175 . S
C935 C273 1.175 . S
C937 C441 1.175 . S
C953 C343 1.175 . S
C955 C287 1.175 . S
C971 C301 1.175 . S
C973 C357 1.175 . S
C989 C315 1.175 . S
C991 C371 1.175 . S
C1007 C329 1.175 . S
C1009 C385 1.175 . S
C1025 C8 1.407 . S
C1027 C148 1.407 . S
C1043 C162 1.407 . S
C1045 C22 1.407 . S
C1061 C36 1.407 . S
C1063 C120 1.407 . S
C1079 C134 1.407 . S
C1081 C50 1.407 . S
C1097 C204 1.407 . S
C1099 C64 1.407 . S
C1115 C218 1.407 . S
C1117 C78 1.407 . S
C1133 C176 1.407 . S
C1135 C92 1.407 . S
C1151 C106 1.407 . S
C1153 C190 1.407 . S
C1169 C372 1.407 . S
C1171 C232 1.407 . S
C1187 C246 1.407 . S
C1189 C386 1.407 . S
C1205 C344 1.407 . S
C1207 C260 1.407 . S
C1223 C358 1.407 . S
C1225 C274 1.407 . S
C1241 C288 1.407 . S
C1243 C428 1.407 . S
C1259 C302 1.407 . S
C1261 C442 1.407 . S
C1277 C400 1.407 . S
C1279 C316 1.407 . S
C1295 C414 1.407 . S
C1297 C330 1.407 . S
C1313 C333 1.408 . S
C1315 C11 1.408 . S
C1331 C291 1.408 . S
C1333 C25 1.408 . S
C1349 C305 1.408 . S
C1351 C39 1.408 . S
C1367 C319 1.408 . S
C1369 C53 1.408 . S
C1385 C249 1.408 . S
C1387 C67 1.408 . S
C1403 C81 1.408 . S
C1405 C263 1.408 . S
C1421 C95 1.408 . S
C1423 C277 1.408 . S
C1439 C109 1.408 . S
C1441 C235 1.408 . S
C1457 C123 1.408 . S
C1459 C445 1.408 . S
C1475 C403 1.408 . S
C1477 C137 1.408 . S
C1493 C151 1.408 . S
C1495 C417 1.408 . S
C1511 C165 1.408 . S
C1513 C431 1.408 . S
C1529 C361 1.408 . S
C1531 C179 1.408 . S
C1547 C375 1.408 . S
C1549 C193 1.408 . S
C1565 C207 1.408 . S
C1567 C389 1.408 . S
C1583 C221 1.408 . S
C1585 C347 1.408 . S
