# Generated by pormake.
# Topology wmb, (6)-cn, num edge types: 1
# Building blocks:
#     Node 0, Type 0, BuildingBlock: IZENUY_clean_sbu_0, # of connection points: 6
#     Node 1, Type 0, BuildingBlock: IZENUY_clean_sbu_0, # of connection points: 6
#     Node 2, Type 0, BuildingBlock: IZENUY_clean_sbu_0, # of connection points: 6
#     Node 3, Type 0, BuildingBlock: IZENUY_clean_sbu_0, # of connection points: 6
#     Node 4, Type 0, BuildingBlock: IZENUY_clean_sbu_0, # of connection points: 6
#     Node 5, Type 0, BuildingBlock: IZENUY_clean_sbu_0, # of connection points: 6
#     Edge 6, Type (0, 0), BuildingBlock: AJUNOK_clean_linker_0, # of connection points: 2
#     Edge 7, Type (0, 0), BuildingBlock: AJUNOK_clean_linker_0, # of connection points: 2
#     Edge 8, Type (0, 0), BuildingBlock: AJUNOK_clean_linker_0, # of connection points: 2
#     Edge 9, Type (0, 0), BuildingBlock: AJUNOK_clean_linker_0, # of connection points: 2
#     Edge 10, Type (0, 0), BuildingBlock: AJUNOK_clean_linker_0, # of connection points: 2
#     Edge 11, Type (0, 0), BuildingBlock: AJUNOK_clean_linker_0, # of connection points: 2
#     Edge 12, Type (0, 0), BuildingBlock: AJUNOK_clean_linker_0, # of connection points: 2
#     Edge 13, Type (0, 0), BuildingBlock: AJUNOK_clean_linker_0, # of connection points: 2
#     Edge 14, Type (0, 0), BuildingBlock: AJUNOK_clean_linker_0, # of connection points: 2
#     Edge 15, Type (0, 0), BuildingBlock: AJUNOK_clean_linker_0, # of connection points: 2
#     Edge 16, Type (0, 0), BuildingBlock: AJUNOK_clean_linker_0, # of connection points: 2
#     Edge 17, Type (0, 0), BuildingBlock: AJUNOK_clean_linker_0, # of connection points: 2
#     Edge 18, Type (0, 0), BuildingBlock: AJUNOK_clean_linker_0, # of connection points: 2
#     Edge 19, Type (0, 0), BuildingBlock: AJUNOK_clean_linker_0, # of connection points: 2
#     Edge 20, Type (0, 0), BuildingBlock: AJUNOK_clean_linker_0, # of connection points: 2
#     Edge 21, Type (0, 0), BuildingBlock: AJUNOK_clean_linker_0, # of connection points: 2
#     Edge 22, Type (0, 0), BuildingBlock: AJUNOK_clean_linker_0, # of connection points: 2
#     Edge 23, Type (0, 0), BuildingBlock: AJUNOK_clean_linker_0, # of connection points: 2
# Relax obj value: 0.257
# Max RMSD: 0.257
# Mean RMSD: 0.257
data_MOF--net-wmb--node1-IZENUY_clean_sbu_0--edge1-AJUNOK_clean_linker_0
_symmetry_space_group_name_H-M    P1
_symmetry_Int_Tables_number       1
_symmetry_cell_setting            triclinic
loop_
_symmetry_equiv_pos_as_xyz
'x, y, z'
_cell_length_a     19.877902
_cell_length_b     19.87177
_cell_length_c     31.616431
_cell_angle_alpha  89.869745
_cell_angle_beta   89.800259
_cell_angle_gamma 119.91782
loop_
_atom_site_label
_atom_site_type_symbol
_atom_site_fract_x
_atom_site_fract_y
_atom_site_fract_z
_atom_type_partial_charge
Fe0 Fe 0.49868 0.19987 0.05788 0.0
Fe1 Fe 0.61026 0.16198 0.0099 0.0
O2 O 0.58294 0.22982 0.02662 0.0
Fe3 Fe 0.64103 0.32919 0.01289 0.0
O4 O 0.66317 0.35454 0.06864 0.0
O5 O 0.54058 0.29088 0.08739 0.0
O6 O 0.5361 0.16462 0.09898 0.0
C7 C 0.55983 0.11706 0.09455 0.0
C8 C 0.48739 0.30733 0.0111 0.0
O9 O 0.57618 0.10182 0.05831 0.0
C10 C 0.634 0.25725 0.93815 0.0
O11 O 0.44342 0.10211 0.0346 0.0
O12 O 0.51879 0.10374 0.98351 0.0
O13 O 0.56047 0.34993 0.01411 0.0
O14 O 0.45574 0.23549 0.01912 0.0
C15 C 0.75368 0.28417 0.02599 0.0
O16 O 0.64782 0.21075 0.95894 0.0
O17 O 0.62178 0.30656 0.95691 0.0
C18 C 0.45383 0.07177 1.0018 0.0
O19 O 0.7049 0.21475 0.03466 0.0
O20 O 0.7327 0.32827 0.00902 0.0
C21 C 0.61117 0.33456 0.0968 0.0
Fe22 Fe 0.90526 0.46399 0.67788 0.0
Fe23 Fe 0.73754 0.32968 0.67927 0.0
O24 O 0.83548 0.36917 0.69434 0.0
Fe25 Fe 0.8625 0.31357 0.72652 0.0
O26 O 0.8954 0.38561 0.76751 0.0
O27 O 0.96282 0.48804 0.72698 0.0
O28 O 0.85264 0.50727 0.70189 0.0
C29 C 0.78387 0.4878 0.6925 0.0
C30 C 0.99302 0.39464 0.6709 0.0
O31 O 0.73996 0.42308 0.67538 0.0
C32 C 0.75804 0.19685 0.67777 0.0
O33 O 0.85973 0.4551 0.62616 0.0
O34 O 0.76329 0.33402 0.62387 0.0
O35 O 0.96181 0.35543 0.70426 0.0
O36 O 0.96295 0.42895 0.65224 0.0
C37 C 0.72213 0.28836 0.76231 0.0
O38 O 0.71577 0.228 0.68014 0.0
O39 O 0.82884 0.23558 0.68784 0.0
C40 C 0.81203 0.3959 0.60525 0.0
O41 O 0.70844 0.32516 0.73425 0.0
O42 O 0.76964 0.26457 0.75542 0.0
C43 C 0.94424 0.45652 0.7633 0.0
Fe44 Fe 0.75552 0.56902 0.39326 0.0
Fe45 Fe 0.60866 0.45861 0.34369 0.0
O46 O 0.70373 0.48644 0.3606 0.0
Fe47 Fe 0.74708 0.43115 0.34562 0.0
O48 O 0.7524 0.40805 0.40069 0.0
O49 O 0.80762 0.52889 0.4222 0.0
O50 O 0.68182 0.52643 0.43391 0.0
C51 C 0.61106 0.50433 0.42886 0.0
C52 C 0.87397 0.5867 0.34297 0.0
O53 O 0.58142 0.49086 0.39226 0.0
C54 C 0.67869 0.43242 0.27165 0.0
O55 O 0.71074 0.62329 0.37082 0.0
O56 O 0.64264 0.55099 0.31788 0.0
O57 O 0.84662 0.51393 0.3457 0.0
O58 O 0.83429 0.61682 0.35507 0.0
C59 C 0.5896 0.31537 0.35881 0.0
O60 O 0.61999 0.42232 0.29273 0.0
O61 O 0.74206 0.45006 0.28964 0.0
C62 C 0.67308 0.61473 0.33703 0.0
O63 O 0.56687 0.36266 0.36756 0.0
O64 O 0.65605 0.33833 0.34289 0.0
C65 C 0.78566 0.45817 0.42915 0.0
Fe66 Fe 0.34054 0.62855 0.99472 0.0
Fe67 Fe 0.21262 0.48749 0.94883 0.0
O68 O 0.24215 0.57136 0.9802 0.0
Fe69 Fe 0.17408 0.59895 0.99634 0.0
O70 O 0.22727 0.69329 0.97082 0.0
O71 O 0.34033 0.72075 0.99664 0.0
O72 O 0.36927 0.65008 0.93949 0.0
C73 C 0.35393 0.59857 0.91197 0.0
C74 C 0.26823 0.62605 0.06872 0.0
O75 O 0.30472 0.52807 0.91946 0.0
C76 C 0.08411 0.44279 0.00543 0.0
O77 O 0.3596 0.54691 0.99561 0.0
O78 O 0.24546 0.44252 0.98773 0.0
O79 O 0.22123 0.63779 0.04726 0.0
O80 O 0.31571 0.61049 0.05059 0.0
C81 C 0.13118 0.54913 0.91185 0.0
O82 O 0.11376 0.43282 0.97202 0.0
O83 O 0.11619 0.50771 0.02338 0.0
C84 C 0.31565 0.47397 0.99901 0.0
O85 O 0.18 0.52696 0.90741 0.0
O86 O 0.11473 0.56404 0.94812 0.0
C87 C 0.29672 0.74191 0.97923 0.0
Fe88 Fe 0.43487 0.72466 0.66225 0.0
Fe89 Fe 0.57682 0.74081 0.61526 0.0
O90 O 0.49324 0.68484 0.64682 0.0
Fe91 Fe 0.46688 0.58926 0.66233 0.0
O92 O 0.3719 0.54789 0.6378 0.0
O93 O 0.34367 0.63152 0.66576 0.0
O94 O 0.41174 0.73061 0.60708 0.0
C95 C 0.46308 0.76726 0.57918 0.0
C96 C 0.44273 0.65647 0.73572 0.0
O97 O 0.534 0.79068 0.5866 0.0
C98 C 0.62371 0.65744 0.67044 0.0
O99 O 0.51483 0.82611 0.66192 0.0
O100 O 0.62007 0.81788 0.65451 0.0
O101 O 0.42924 0.59741 0.71398 0.0
O102 O 0.45525 0.71887 0.71782 0.0
C103 C 0.51618 0.59867 0.57722 0.0
O104 O 0.63324 0.69808 0.63753 0.0
O105 O 0.55854 0.62224 0.68837 0.0
C106 C 0.58802 0.85686 0.66457 0.0
O107 O 0.53914 0.66991 0.5736 0.0
O108 O 0.50134 0.56595 0.6132 0.0
C109 C 0.32267 0.56722 0.64797 0.0
Fe110 Fe 0.33908 0.72472 0.3283 0.0
Fe111 Fe 0.32835 0.85619 0.28383 0.0
O112 O 0.38165 0.82357 0.31393 0.0
Fe113 Fe 0.47718 0.88917 0.32966 0.0
O114 O 0.51658 0.8357 0.30314 0.0
O115 O 0.43099 0.72355 0.33035 0.0
O116 O 0.33268 0.69823 0.27295 0.0
C117 C 0.29899 0.71674 0.24527 0.0
C118 C 0.40809 0.79562 0.40218 0.0
O119 O 0.27662 0.76504 0.25375 0.0
C120 C 0.41612 0.98246 0.34053 0.0
O121 O 0.23904 0.70696 0.32848 0.0
O122 O 0.2515 0.82273 0.32354 0.0
O123 O 0.46777 0.83969 0.38024 0.0
O124 O 0.345 0.74833 0.38434 0.0
C125 C 0.47049 0.93458 0.24543 0.0
O126 O 0.37472 0.95529 0.30757 0.0
O127 O 0.44408 0.94531 0.35784 0.0
C128 C 0.21031 0.75116 0.33175 0.0
O129 O 0.39895 0.88882 0.24191 0.0
O130 O 0.50262 0.95064 0.28146 0.0
C131 C 0.49556 0.76636 0.31226 0.0
C132 C 0.32505 0.35275 0.988 0.0
C133 C 0.35263 0.42588 0.00726 0.0
C134 C 0.36765 0.31334 0.98988 0.0
C135 C 0.43966 0.34611 0.01066 0.0
H136 H 0.2719 0.32727 0.96987 0.0
H137 H 0.34544 0.25828 0.97378 0.0
S138 S 0.53066 0.52969 0.07211 0.0
N139 N 0.45166 0.52436 0.05202 0.0
N140 N 0.53144 0.45153 0.05531 0.0
C141 C 0.46541 0.41706 0.03194 0.0
C142 C 0.42202 0.45654 0.0303 0.0
C143 C 0.63706 0.06758 0.67173 0.0
C144 C 0.71877 0.11051 0.67284 0.0
C145 C 0.59646 0.98641 0.67041 0.0
C146 C 0.63507 0.94316 0.6696 0.0
H147 H 0.60328 0.09669 0.67241 0.0
H148 H 0.53369 0.95756 0.66948 0.0
S149 S 0.84896 0.0264 0.67167 0.0
N150 N 0.83731 0.10306 0.67316 0.0
N151 N 0.76073 0.94998 0.66991 0.0
C152 C 0.71693 0.98495 0.67051 0.0
C153 C 0.75868 0.06841 0.67224 0.0
C154 C 0.08546 0.74503 0.35477 0.0
C155 C 0.12441 0.71432 0.33157 0.0
C156 C 1.00363 0.70618 0.35643 0.0
C157 C 0.95842 0.63593 0.33455 0.0
H158 H 0.1183 0.79754 0.37302 0.0
H159 H 0.97582 0.72929 0.37656 0.0
S160 S 1.03259 0.5401 0.2627 0.0
N161 N 0.11132 0.61529 0.28174 0.0
N162 N 0.95888 0.5434 0.28469 0.0
C163 C 0.99699 0.60804 0.30896 0.0
C164 C 0.07959 0.6469 0.30751 0.0
C165 C 0.55566 0.06063 0.20897 0.0
C166 C 0.51127 0.97931 0.20728 0.0
C167 C 0.57616 0.10518 0.17172 0.0
C168 C 0.55431 0.06972 0.13174 0.0
H169 H 0.5691 0.09013 0.23916 0.0
H170 H 0.60577 0.16788 0.1743 0.0
S171 S 0.44482 0.85836 0.11049 0.0
N172 N 0.45144 0.8648 0.16255 0.0
N173 N 0.49134 0.94865 0.09264 0.0
C174 C 0.51537 0.98842 0.12958 0.0
C175 C 0.49345 0.94315 0.16742 0.0
C176 C 0.07145 0.54041 0.79798 0.0
C177 C 0.99015 0.49682 0.80088 0.0
C178 C 0.11713 0.56183 0.83453 0.0
C179 C 0.08287 0.54188 0.87503 0.0
H180 H 0.10004 0.55273 0.76739 0.0
H181 H 0.1797 0.59083 0.83106 0.0
S182 S 0.87216 0.43561 0.89941 0.0
N183 N 0.87703 0.43993 0.84723 0.0
N184 N 0.96296 0.48182 0.91592 0.0
C185 C 1.00164 0.50378 0.87835 0.0
C186 C 0.95521 0.48076 0.8412 0.0
C187 C 0.5808 0.48992 0.50583 0.0
C188 C 0.56899 0.51169 0.46535 0.0
C189 C 0.55684 0.51227 0.54233 0.0
C190 C 0.52204 0.55868 0.53939 0.0
H191 H 0.61236 0.45881 0.50937 0.0
H192 H 0.5711 0.49827 0.57295 0.0
S193 S 0.47184 0.62504 0.44079 0.0
N194 N 0.51414 0.57626 0.42436 0.0
N195 N 0.47077 0.61994 0.49296 0.0
C196 C 0.50552 0.57661 0.49905 0.0
C197 C 0.52855 0.55261 0.46194 0.0
C198 C 0.41293 0.95601 0.95527 0.0
C199 C 0.39847 0.98923 0.99118 0.0
C200 C 0.37578 0.87529 0.94993 0.0
C201 C 0.32157 0.825 0.97972 0.0
H202 H 0.45698 0.99234 0.93238 0.0
H203 H 0.39235 0.85202 0.92345 0.0
S204 S 0.25708 0.88011 0.07708 0.0
N205 N 0.32131 0.96373 0.05553 0.0
N206 N 0.25106 0.81228 0.04469 0.0
C207 C 0.3023 0.85677 0.01407 0.0
C208 C 0.34052 0.93889 0.01988 0.0
C209 C 0.20689 0.46864 0.68741 0.0
C210 C 0.23975 0.50824 0.6493 0.0
C211 C 0.12605 0.42481 0.69285 0.0
C212 C 0.07535 0.42017 0.66049 0.0
H213 H 0.24392 0.47527 0.71402 0.0
H214 H 0.10351 0.39967 0.7237 0.0
S215 S 0.13397 0.50641 0.55292 0.0
N216 N 0.21693 0.53459 0.57756 0.0
N217 N 0.06491 0.45255 0.58731 0.0
C218 C 0.10813 0.45518 0.62115 0.0
C219 C 0.19042 0.49944 0.61572 0.0
C220 C 0.55358 0.69025 0.28397 0.0
C221 C 0.55428 0.74235 0.31386 0.0
C222 C 0.59876 0.65493 0.28972 0.0
C223 C 0.64482 0.66917 0.32618 0.0
H224 H 0.51527 0.67398 0.25702 0.0
H225 H 0.59348 0.61232 0.26668 0.0
S226 S 0.67073 0.8077 0.41185 0.0
N227 N 0.60871 0.81235 0.37905 0.0
N228 N 0.69287 0.74522 0.39072 0.0
C229 C 0.64973 0.72563 0.35487 0.0
C230 C 0.60419 0.76207 0.34862 0.0
C231 C 0.95219 0.33314 0.98664 0.0
C232 C 1.00165 0.38753 0.01669 0.0
C233 C 0.87117 0.29521 0.99145 0.0
C234 C 0.83696 0.30986 0.02655 0.0
H235 H 0.9757 0.32391 0.95769 0.0
H236 H 0.83503 0.25789 0.96628 0.0
S237 S 0.93881 0.43729 0.11714 0.0
N238 N 1.00918 0.44626 0.0855 0.0
N239 N 0.85693 0.37567 0.09358 0.0
C240 C 0.88503 0.35927 0.05822 0.0
C241 C 0.96744 0.39763 0.05362 0.0
C242 C 0.73118 0.63257 0.64986 0.0
C243 C 0.68073 0.63248 0.68133 0.0
C244 C 0.76938 0.58977 0.65509 0.0
C245 C 0.75928 0.54639 0.6921 0.0
H246 H 0.73655 0.66074 0.61966 0.0
H247 H 0.80322 0.58671 0.62898 0.0
S248 S 0.64365 0.53569 0.7864 0.0
N249 N 0.63061 0.59213 0.75296 0.0
N250 N 0.70234 0.51162 0.76218 0.0
C251 C 0.71427 0.5505 0.72501 0.0
C252 C 0.67528 0.59392 0.71984 0.0
C253 C 0.46526 0.19454 0.34038 0.0
C254 C 0.53648 0.23093 0.36201 0.0
C255 C 0.42354 0.11324 0.33519 0.0
C256 C 0.45079 0.06586 0.35251 0.0
H257 H 0.44444 0.22937 0.32497 0.0
H258 H 0.37156 0.08783 0.31608 0.0
S259 S 0.63181 0.13511 0.41552 0.0
N260 N 0.6309 0.21476 0.40201 0.0
N261 N 0.55145 0.06326 0.39577 0.0
C262 C 0.51948 0.10233 0.37698 0.0
C263 C 0.56265 0.18453 0.38074 0.0
C264 C 0.70227 0.42418 0.15256 0.0
C265 C 0.63064 0.35936 0.14135 0.0
C266 C 0.71949 0.44724 0.1951 0.0
C267 C 0.6656 0.40586 0.22743 0.0
H268 H 0.74455 0.45795 0.12836 0.0
H269 H 0.77408 0.49859 0.2026 0.0
S270 S 0.47614 0.2247 0.21581 0.0
N271 N 0.50949 0.24969 0.16712 0.0
N272 N 0.54265 0.29225 0.24616 0.0
C273 C 0.59589 0.33893 0.21679 0.0
C274 C 0.57815 0.3159 0.17397 0.0
C275 C 0.65964 0.32686 0.86828 0.0
C276 C 0.64363 0.25991 0.89154 0.0
C277 C 0.67984 0.33373 0.82523 0.0
C278 C 0.68491 0.27407 0.80424 0.0
H279 H 0.66049 0.3758 0.88381 0.0
H280 H 0.69633 0.38789 0.80905 0.0
S281 S 0.63477 0.08173 0.84842 0.0
N282 N 0.62334 0.12845 0.8884 0.0
N283 N 0.663 0.14268 0.80802 0.0
C284 C 0.66378 0.20499 0.82624 0.0
C285 C 0.6426 0.19755 0.86976 0.0
C286 C 0.86219 0.48372 0.49521 0.0
C287 C 0.79561 0.43475 0.47185 0.0
C288 C 0.86817 0.46851 0.53785 0.0
C289 C 0.80733 0.40422 0.55891 0.0
H290 H 0.9093 0.53521 0.48066 0.0
H291 H 0.9202 0.5088 0.55468 0.0
S292 S 0.61978 0.25923 0.51153 0.0
N293 N 0.66738 0.32024 0.47256 0.0
N294 N 0.67859 0.29049 0.55256 0.0
C295 C 0.74124 0.35348 0.53543 0.0
C296 C 0.73534 0.36914 0.49195 0.0
C297 C 0.401 0.68748 0.84939 0.0
C298 C 0.39037 0.61979 0.8697 0.0
C299 C 0.42124 0.70097 0.80635 0.0
C300 C 0.43187 0.64735 0.7823 0.0
H301 H 0.3893 0.72805 0.86618 0.0
H302 H 0.42519 0.75201 0.7915 0.0
S303 S 0.42442 0.46817 0.82333 0.0
N304 N 0.40096 0.5036 0.86435 0.0
N305 N 0.44046 0.52914 0.78395 0.0
C306 C 0.42702 0.58236 0.80333 0.0
C307 C 0.4058 0.5685 0.84689 0.0
C308 C 0.37439 0.72491 0.51665 0.0
C309 C 0.44207 0.78171 0.53669 0.0
C310 C 0.3619 0.7308 0.47337 0.0
C311 C 0.41669 0.79378 0.44879 0.0
H312 H 0.33305 0.67348 0.53387 0.0
H313 H 0.31069 0.68408 0.45879 0.0
S314 S 0.59728 0.96387 0.48851 0.0
N315 N 0.55985 0.90683 0.53019 0.0
N316 N 0.53673 0.91864 0.4494 0.0
C317 C 0.48201 0.85338 0.46941 0.0
C318 C 0.49461 0.84715 0.5132 0.0
C319 C 0.22494 0.66651 0.13324 0.0
C320 C 0.27313 0.64109 0.11494 0.0
C321 C 0.23163 0.68761 0.1758 0.0
C322 C 0.28629 0.68365 0.20216 0.0
H323 H 0.18268 0.67224 0.11438 0.0
H324 H 0.19454 0.7088 0.18786 0.0
S325 S 0.42319 0.61623 0.17099 0.0
N326 N 0.37499 0.60941 0.12731 0.0
N327 N 0.38736 0.64897 0.20755 0.0
C328 C 0.33276 0.65529 0.18493 0.0
C329 C 0.32629 0.63414 0.14131 0.0
loop_
_geom_bond_atom_site_label_1
_geom_bond_atom_site_label_2
_geom_bond_distance
_geom_bond_site_symmetry_2
_ccdc_geom_bond_type
Fe0 O2 1.918 . S
Fe0 O5 1.997 . S
Fe0 O6 2.002 . S
Fe0 O11 1.976 . S
Fe0 O14 1.996 . S
Fe1 O2 1.918 . S
Fe1 O9 1.997 . S
Fe1 O12 1.996 1_554 S
Fe1 O16 1.976 1_554 S
Fe1 O19 2.002 . S
O2 Fe0 1.918 . S
O2 Fe1 1.918 . S
O2 Fe3 1.918 . S
Fe3 O2 1.918 . S
Fe3 O4 2.002 . S
Fe3 O13 1.980 . S
Fe3 O17 1.996 1_554 S
Fe3 O20 1.997 . S
O4 Fe3 2.002 . S
O4 C21 1.295 . S
O5 Fe0 1.997 . S
O5 C21 1.235 . S
O6 Fe0 2.002 . S
O6 C7 1.295 . S
C7 O6 1.295 . S
C7 O9 1.235 . S
C8 O13 1.292 . S
C8 O14 1.255 . S
O9 Fe1 1.997 . S
O9 C7 1.235 . S
C10 O16 1.287 . S
C10 O17 1.255 . S
O11 Fe0 1.976 . S
O11 C18 1.303 . S
O12 Fe1 1.996 1_556 S
O12 C18 1.248 1_556 S
O13 Fe3 1.980 . S
O13 C8 1.292 . S
O14 Fe0 1.996 . S
O14 C8 1.255 . S
C15 O19 1.295 . S
C15 O20 1.235 . S
O16 Fe1 1.976 1_556 S
O16 C10 1.287 . S
O17 Fe3 1.996 1_556 S
O17 C10 1.255 . S
C18 O11 1.303 . S
C18 O12 1.248 1_554 S
O19 Fe1 2.002 . S
O19 C15 1.295 . S
O20 Fe3 1.997 . S
O20 C15 1.235 . S
C21 O4 1.295 . S
C21 O5 1.235 . S
Fe22 O24 1.918 . S
Fe22 O27 1.997 . S
Fe22 O28 2.002 . S
Fe22 O33 1.976 . S
Fe22 O36 1.996 . S
Fe23 O24 1.918 . S
Fe23 O31 1.997 . S
Fe23 O34 1.996 . S
Fe23 O38 1.976 . S
Fe23 O41 2.002 . S
O24 Fe22 1.918 . S
O24 Fe23 1.918 . S
O24 Fe25 1.918 . S
Fe25 O24 1.918 . S
Fe25 O26 2.002 . S
Fe25 O35 1.976 . S
Fe25 O39 1.996 . S
Fe25 O42 1.997 . S
O26 Fe25 2.002 . S
O26 C43 1.295 . S
O27 Fe22 1.997 . S
O27 C43 1.235 . S
O28 Fe22 2.002 . S
O28 C29 1.295 . S
C29 O28 1.295 . S
C29 O31 1.235 . S
C30 O35 1.287 . S
C30 O36 1.255 . S
O31 Fe23 1.997 . S
O31 C29 1.235 . S
C32 O38 1.287 . S
C32 O39 1.255 . S
O33 Fe22 1.976 . S
O33 C40 1.287 . S
O34 Fe23 1.996 . S
O34 C40 1.255 . S
O35 Fe25 1.976 . S
O35 C30 1.287 . S
O36 Fe22 1.996 . S
O36 C30 1.255 . S
C37 O41 1.295 . S
C37 O42 1.235 . S
O38 Fe23 1.976 . S
O38 C32 1.287 . S
O39 Fe25 1.996 . S
O39 C32 1.255 . S
C40 O33 1.287 . S
C40 O34 1.255 . S
O41 Fe23 2.002 . S
O41 C37 1.295 . S
O42 Fe25 1.997 . S
O42 C37 1.235 . S
C43 O26 1.295 . S
C43 O27 1.235 . S
Fe44 O46 1.918 . S
Fe44 O49 1.997 . S
Fe44 O50 2.002 . S
Fe44 O55 1.976 . S
Fe44 O58 1.996 . S
Fe45 O46 1.918 . S
Fe45 O53 1.997 . S
Fe45 O56 1.996 . S
Fe45 O60 1.976 . S
Fe45 O63 2.002 . S
O46 Fe44 1.918 . S
O46 Fe45 1.918 . S
O46 Fe47 1.918 . S
Fe47 O46 1.918 . S
Fe47 O48 2.002 . S
Fe47 O57 1.976 . S
Fe47 O61 1.996 . S
Fe47 O64 1.997 . S
O48 Fe47 2.002 . S
O48 C65 1.295 . S
O49 Fe44 1.997 . S
O49 C65 1.235 . S
O50 Fe44 2.002 . S
O50 C51 1.295 . S
C51 O50 1.295 . S
C51 O53 1.235 . S
C52 O57 1.287 . S
C52 O58 1.255 . S
O53 Fe45 1.997 . S
O53 C51 1.235 . S
C54 O60 1.287 . S
C54 O61 1.255 . S
O55 Fe44 1.976 . S
O55 C62 1.287 . S
O56 Fe45 1.996 . S
O56 C62 1.255 . S
O57 Fe47 1.976 . S
O57 C52 1.287 . S
O58 Fe44 1.996 . S
O58 C52 1.255 . S
C59 O63 1.295 . S
C59 O64 1.235 . S
O60 Fe45 1.976 . S
O60 C54 1.287 . S
O61 Fe47 1.996 . S
O61 C54 1.255 . S
C62 O55 1.287 . S
C62 O56 1.255 . S
O63 Fe45 2.002 . S
O63 C59 1.295 . S
O64 Fe47 1.997 . S
O64 C59 1.235 . S
C65 O48 1.295 . S
C65 O49 1.235 . S
Fe66 O68 1.918 . S
Fe66 O71 1.997 . S
Fe66 O72 2.002 . S
Fe66 O77 1.980 . S
Fe66 O80 1.996 1_556 S
Fe67 O68 1.918 . S
Fe67 O75 1.997 . S
Fe67 O78 1.996 . S
Fe67 O82 1.976 . S
Fe67 O85 2.002 . S
O68 Fe66 1.918 . S
O68 Fe67 1.918 . S
O68 Fe69 1.918 . S
Fe69 O68 1.918 . S
Fe69 O70 2.002 . S
Fe69 O79 1.976 1_556 S
Fe69 O83 1.996 1_556 S
Fe69 O86 1.997 . S
O70 Fe69 2.002 . S
O70 C87 1.295 . S
O71 Fe66 1.997 . S
O71 C87 1.235 . S
O72 Fe66 2.002 . S
O72 C73 1.295 . S
C73 O72 1.295 . S
C73 O75 1.235 . S
C74 O79 1.287 . S
C74 O80 1.255 . S
O75 Fe67 1.997 . S
O75 C73 1.235 . S
C76 O82 1.303 . S
C76 O83 1.248 1_556 S
O77 Fe66 1.980 . S
O77 C84 1.292 . S
O78 Fe67 1.996 . S
O78 C84 1.255 . S
O79 Fe69 1.976 1_554 S
O79 C74 1.287 . S
O80 Fe66 1.996 1_554 S
O80 C74 1.255 . S
C81 O85 1.295 . S
C81 O86 1.235 . S
O82 Fe67 1.976 . S
O82 C76 1.303 . S
O83 Fe69 1.996 1_554 S
O83 C76 1.248 1_554 S
C84 O77 1.292 . S
C84 O78 1.255 . S
O85 Fe67 2.002 . S
O85 C81 1.295 . S
O86 Fe69 1.997 . S
O86 C81 1.235 . S
C87 O70 1.295 . S
C87 O71 1.235 . S
Fe88 O90 1.918 . S
Fe88 O93 1.997 . S
Fe88 O94 2.002 . S
Fe88 O99 1.976 . S
Fe88 O102 1.996 . S
Fe89 O90 1.918 . S
Fe89 O97 1.997 . S
Fe89 O100 1.996 . S
Fe89 O104 1.976 . S
Fe89 O107 2.002 . S
O90 Fe88 1.918 . S
O90 Fe89 1.918 . S
O90 Fe91 1.918 . S
Fe91 O90 1.918 . S
Fe91 O92 2.002 . S
Fe91 O101 1.976 . S
Fe91 O105 1.996 . S
Fe91 O108 1.997 . S
O92 Fe91 2.002 . S
O92 C109 1.295 . S
O93 Fe88 1.997 . S
O93 C109 1.235 . S
O94 Fe88 2.002 . S
O94 C95 1.295 . S
C95 O94 1.295 . S
C95 O97 1.235 . S
C96 O101 1.287 . S
C96 O102 1.255 . S
O97 Fe89 1.997 . S
O97 C95 1.235 . S
C98 O104 1.287 . S
C98 O105 1.255 . S
O99 Fe88 1.976 . S
O99 C106 1.287 . S
O100 Fe89 1.996 . S
O100 C106 1.255 . S
O101 Fe91 1.976 . S
O101 C96 1.287 . S
O102 Fe88 1.996 . S
O102 C96 1.255 . S
C103 O107 1.295 . S
C103 O108 1.235 . S
O104 Fe89 1.976 . S
O104 C98 1.287 . S
O105 Fe91 1.996 . S
O105 C98 1.255 . S
C106 O99 1.287 . S
C106 O100 1.255 . S
O107 Fe89 2.002 . S
O107 C103 1.295 . S
O108 Fe91 1.997 . S
O108 C103 1.235 . S
C109 O92 1.295 . S
C109 O93 1.235 . S
Fe110 O112 1.918 . S
Fe110 O115 1.997 . S
Fe110 O116 2.002 . S
Fe110 O121 1.976 . S
Fe110 O124 1.996 . S
Fe111 O112 1.918 . S
Fe111 O119 1.997 . S
Fe111 O122 1.996 . S
Fe111 O126 1.976 . S
Fe111 O129 2.002 . S
O112 Fe110 1.918 . S
O112 Fe111 1.918 . S
O112 Fe113 1.918 . S
Fe113 O112 1.918 . S
Fe113 O114 2.002 . S
Fe113 O123 1.976 . S
Fe113 O127 1.996 . S
Fe113 O130 1.997 . S
O114 Fe113 2.002 . S
O114 C131 1.295 . S
O115 Fe110 1.997 . S
O115 C131 1.235 . S
O116 Fe110 2.002 . S
O116 C117 1.295 . S
C117 O116 1.295 . S
C117 O119 1.235 . S
C118 O123 1.287 . S
C118 O124 1.255 . S
O119 Fe111 1.997 . S
O119 C117 1.235 . S
C120 O126 1.287 . S
C120 O127 1.255 . S
O121 Fe110 1.976 . S
O121 C128 1.287 . S
O122 Fe111 1.996 . S
O122 C128 1.255 . S
O123 Fe113 1.976 . S
O123 C118 1.287 . S
O124 Fe110 1.996 . S
O124 C118 1.255 . S
C125 O129 1.295 . S
C125 O130 1.235 . S
O126 Fe111 1.976 . S
O126 C120 1.287 . S
O127 Fe113 1.996 . S
O127 C120 1.255 . S
C128 O121 1.287 . S
C128 O122 1.255 . S
O129 Fe111 2.002 . S
O129 C125 1.295 . S
O130 Fe113 1.997 . S
O130 C125 1.235 . S
C131 O114 1.295 . S
C131 O115 1.235 . S
C132 C133 1.369 . S
C132 C134 1.419 . S
C132 H136 0.930 . S
C133 C132 1.369 . S
C133 C142 1.429 1_556 S
C134 C132 1.419 . S
C134 C135 1.363 1_556 S
C134 H137 0.929 . S
C135 C134 1.363 1_554 S
C135 C141 1.428 . S
H136 C132 0.930 . S
H137 C134 0.929 . S
S138 N139 1.613 . S
S138 N140 1.610 . S
N139 S138 1.613 . S
N139 C142 1.350 . S
N140 S138 1.610 . S
N140 C141 1.351 . S
C141 C135 1.428 . S
C141 N140 1.351 . S
C141 C142 1.434 . S
C142 C133 1.429 1_554 S
C142 N139 1.350 . S
C142 C141 1.434 . S
C143 C144 1.369 . S
C143 C145 1.419 1_545 S
C143 H147 0.930 . S
C144 C143 1.369 . S
C144 C153 1.429 . S
C145 C143 1.419 1_565 S
C145 C146 1.363 . S
C145 H148 0.929 . S
C146 C145 1.363 . S
C146 C152 1.428 . S
H147 C143 0.930 . S
H148 C145 0.929 . S
S149 N150 1.613 1_565 S
S149 N151 1.610 . S
N150 S149 1.613 1_545 S
N150 C153 1.350 . S
N151 S149 1.610 . S
N151 C152 1.351 . S
C152 C146 1.428 . S
C152 N151 1.351 . S
C152 C153 1.434 1_565 S
C153 C144 1.429 . S
C153 N150 1.350 . S
C153 C152 1.434 1_545 S
C154 C155 1.369 . S
C154 C156 1.419 1_455 S
C154 H158 0.930 . S
C155 C154 1.369 . S
C155 C164 1.429 . S
C156 C154 1.419 1_655 S
C156 C157 1.363 . S
C156 H159 0.929 . S
C157 C156 1.363 . S
C157 C163 1.428 . S
H158 C154 0.930 . S
H159 C156 0.929 . S
S160 N161 1.613 1_655 S
S160 N162 1.610 . S
N161 S160 1.613 1_455 S
N161 C164 1.350 . S
N162 S160 1.610 . S
N162 C163 1.351 . S
C163 C157 1.428 . S
C163 N162 1.351 . S
C163 C164 1.434 1_655 S
C164 C155 1.429 . S
C164 N161 1.350 . S
C164 C163 1.434 1_455 S
C165 C166 1.369 1_545 S
C165 C167 1.419 . S
C165 H169 0.930 . S
C166 C165 1.369 1_565 S
C166 C175 1.429 . S
C167 C165 1.419 . S
C167 C168 1.363 . S
C167 H170 0.929 . S
C168 C167 1.363 . S
C168 C174 1.428 1_545 S
H169 C165 0.930 . S
H170 C167 0.929 . S
S171 N172 1.613 . S
S171 N173 1.610 . S
N172 S171 1.613 . S
N172 C175 1.350 . S
N173 S171 1.610 . S
N173 C174 1.351 . S
C174 C168 1.428 1_565 S
C174 N173 1.351 . S
C174 C175 1.434 . S
C175 C166 1.429 . S
C175 N172 1.350 . S
C175 C174 1.434 . S
C176 C177 1.369 . S
C176 C178 1.419 1_655 S
C176 H180 0.930 . S
C177 C176 1.369 . S
C177 C186 1.429 . S
C178 C176 1.419 1_455 S
C178 C179 1.363 . S
C178 H181 0.929 . S
C179 C178 1.363 . S
C179 C185 1.428 . S
H180 C176 0.930 . S
H181 C178 0.929 . S
S182 N183 1.613 . S
S182 N184 1.610 1_655 S
N183 S182 1.613 . S
N183 C186 1.350 . S
N184 S182 1.610 1_455 S
N184 C185 1.351 . S
C185 C179 1.428 . S
C185 N184 1.351 . S
C185 C186 1.434 1_455 S
C186 C177 1.429 . S
C186 N183 1.350 . S
C186 C185 1.434 1_655 S
C187 C188 1.369 . S
C187 C189 1.419 . S
C187 H191 0.930 . S
C188 C187 1.369 . S
C188 C197 1.429 . S
C189 C187 1.419 . S
C189 C190 1.363 . S
C189 H192 0.929 . S
C190 C189 1.363 . S
C190 C196 1.428 . S
H191 C187 0.930 . S
H192 C189 0.929 . S
S193 N194 1.613 . S
S193 N195 1.610 . S
N194 S193 1.613 . S
N194 C197 1.350 . S
N195 S193 1.610 . S
N195 C196 1.351 . S
C196 C190 1.428 . S
C196 N195 1.351 . S
C196 C197 1.434 . S
C197 C188 1.429 . S
C197 N194 1.350 . S
C197 C196 1.434 . S
C198 C199 1.369 . S
C198 C200 1.419 . S
C198 H202 0.930 . S
C199 C198 1.369 . S
C199 C208 1.429 1_556 S
C200 C198 1.419 . S
C200 C201 1.363 . S
C200 H203 0.929 . S
C201 C200 1.363 . S
C201 C207 1.428 . S
H202 C198 0.930 . S
H203 C200 0.929 . S
S204 N205 1.613 . S
S204 N206 1.610 . S
N205 S204 1.613 . S
N205 C208 1.350 . S
N206 S204 1.610 . S
N206 C207 1.351 1_554 S
C207 C201 1.428 . S
C207 N206 1.351 1_556 S
C207 C208 1.434 1_556 S
C208 C199 1.429 1_554 S
C208 N205 1.350 . S
C208 C207 1.434 1_554 S
C209 C210 1.369 . S
C209 C211 1.419 . S
C209 H213 0.930 . S
C210 C209 1.369 . S
C210 C219 1.429 . S
C211 C209 1.419 . S
C211 C212 1.363 . S
C211 H214 0.929 . S
C212 C211 1.363 . S
C212 C218 1.428 . S
H213 C209 0.930 . S
H214 C211 0.929 . S
S215 N216 1.613 . S
S215 N217 1.610 . S
N216 S215 1.613 . S
N216 C219 1.350 . S
N217 S215 1.610 . S
N217 C218 1.351 . S
C218 C212 1.428 . S
C218 N217 1.351 . S
C218 C219 1.434 . S
C219 C210 1.429 . S
C219 N216 1.350 . S
C219 C218 1.434 . S
C220 C221 1.369 . S
C220 C222 1.419 . S
C220 H224 0.930 . S
C221 C220 1.369 . S
C221 C230 1.429 . S
C222 C220 1.419 . S
C222 C223 1.363 . S
C222 H225 0.929 . S
C223 C222 1.363 . S
C223 C229 1.428 . S
H224 C220 0.930 . S
H225 C222 0.929 . S
S226 N227 1.613 . S
S226 N228 1.610 . S
N227 S226 1.613 . S
N227 C230 1.350 . S
N228 S226 1.610 . S
N228 C229 1.351 . S
C229 C223 1.428 . S
C229 N228 1.351 . S
C229 C230 1.434 . S
C230 C221 1.429 . S
C230 N227 1.350 . S
C230 C229 1.434 . S
C231 C232 1.369 . S
C231 C233 1.419 . S
C231 H235 0.930 1_554 S
C232 C231 1.369 . S
C232 C241 1.429 . S
C233 C231 1.419 . S
C233 C234 1.363 . S
C233 H236 0.929 . S
C234 C233 1.363 . S
C234 C240 1.428 . S
H235 C231 0.930 1_556 S
H236 C233 0.929 . S
S237 N238 1.613 . S
S237 N239 1.610 . S
N238 S237 1.613 . S
N238 C241 1.350 . S
N239 S237 1.610 . S
N239 C240 1.351 . S
C240 C234 1.428 . S
C240 N239 1.351 . S
C240 C241 1.434 . S
C241 C232 1.429 . S
C241 N238 1.350 . S
C241 C240 1.434 . S
C242 C243 1.369 . S
C242 C244 1.419 . S
C242 H246 0.930 . S
C243 C242 1.369 . S
C243 C252 1.429 . S
C244 C242 1.419 . S
C244 C245 1.363 . S
C244 H247 0.929 . S
C245 C244 1.363 . S
C245 C251 1.428 . S
H246 C242 0.930 . S
H247 C244 0.929 . S
S248 N249 1.613 . S
S248 N250 1.610 . S
N249 S248 1.613 . S
N249 C252 1.350 . S
N250 S248 1.610 . S
N250 C251 1.351 . S
C251 C245 1.428 . S
C251 N250 1.351 . S
C251 C252 1.434 . S
C252 C243 1.429 . S
C252 N249 1.350 . S
C252 C251 1.434 . S
C253 C254 1.369 . S
C253 C255 1.419 . S
C253 H257 0.930 . S
C254 C253 1.369 . S
C254 C263 1.429 . S
C255 C253 1.419 . S
C255 C256 1.363 . S
C255 H258 0.929 . S
C256 C255 1.363 . S
C256 C262 1.428 . S
H257 C253 0.930 . S
H258 C255 0.929 . S
S259 N260 1.613 . S
S259 N261 1.610 . S
N260 S259 1.613 . S
N260 C263 1.350 . S
N261 S259 1.610 . S
N261 C262 1.351 . S
C262 C256 1.428 . S
C262 N261 1.351 . S
C262 C263 1.434 . S
C263 C254 1.429 . S
C263 N260 1.350 . S
C263 C262 1.434 . S
C264 C265 1.369 . S
C264 C266 1.419 . S
C264 H268 0.930 . S
C265 C264 1.369 . S
C265 C274 1.429 . S
C266 C264 1.419 . S
C266 C267 1.363 . S
C266 H269 0.929 . S
C267 C266 1.363 . S
C267 C273 1.428 . S
H268 C264 0.930 . S
H269 C266 0.929 . S
S270 N271 1.613 . S
S270 N272 1.610 . S
N271 S270 1.613 . S
N271 C274 1.350 . S
N272 S270 1.610 . S
N272 C273 1.351 . S
C273 C267 1.428 . S
C273 N272 1.351 . S
C273 C274 1.434 . S
C274 C265 1.429 . S
C274 N271 1.350 . S
C274 C273 1.434 . S
C275 C276 1.369 . S
C275 C277 1.419 . S
C275 H279 0.930 . S
C276 C275 1.369 . S
C276 C285 1.429 . S
C277 C275 1.419 . S
C277 C278 1.363 . S
C277 H280 0.929 . S
C278 C277 1.363 . S
C278 C284 1.428 . S
H279 C275 0.930 . S
H280 C277 0.929 . S
S281 N282 1.613 . S
S281 N283 1.610 . S
N282 S281 1.613 . S
N282 C285 1.350 . S
N283 S281 1.610 . S
N283 C284 1.351 . S
C284 C278 1.428 . S
C284 N283 1.351 . S
C284 C285 1.434 . S
C285 C276 1.429 . S
C285 N282 1.350 . S
C285 C284 1.434 . S
C286 C287 1.369 . S
C286 C288 1.419 . S
C286 H290 0.930 . S
C287 C286 1.369 . S
C287 C296 1.429 . S
C288 C286 1.419 . S
C288 C289 1.363 . S
C288 H291 0.929 . S
C289 C288 1.363 . S
C289 C295 1.428 . S
H290 C286 0.930 . S
H291 C288 0.929 . S
S292 N293 1.613 . S
S292 N294 1.610 . S
N293 S292 1.613 . S
N293 C296 1.350 . S
N294 S292 1.610 . S
N294 C295 1.351 . S
C295 C289 1.428 . S
C295 N294 1.351 . S
C295 C296 1.434 . S
C296 C287 1.429 . S
C296 N293 1.350 . S
C296 C295 1.434 . S
C297 C298 1.369 . S
C297 C299 1.419 . S
C297 H301 0.930 . S
C298 C297 1.369 . S
C298 C307 1.429 . S
C299 C297 1.419 . S
C299 C300 1.363 . S
C299 H302 0.929 . S
C300 C299 1.363 . S
C300 C306 1.428 . S
H301 C297 0.930 . S
H302 C299 0.929 . S
S303 N304 1.613 . S
S303 N305 1.610 . S
N304 S303 1.613 . S
N304 C307 1.350 . S
N305 S303 1.610 . S
N305 C306 1.351 . S
C306 C300 1.428 . S
C306 N305 1.351 . S
C306 C307 1.434 . S
C307 C298 1.429 . S
C307 N304 1.350 . S
C307 C306 1.434 . S
C308 C309 1.369 . S
C308 C310 1.419 . S
C308 H312 0.930 . S
C309 C308 1.369 . S
C309 C318 1.429 . S
C310 C308 1.419 . S
C310 C311 1.363 . S
C310 H313 0.929 . S
C311 C310 1.363 . S
C311 C317 1.428 . S
H312 C308 0.930 . S
H313 C310 0.929 . S
S314 N315 1.613 . S
S314 N316 1.610 . S
N315 S314 1.613 . S
N315 C318 1.350 . S
N316 S314 1.610 . S
N316 C317 1.351 . S
C317 C311 1.428 . S
C317 N316 1.351 . S
C317 C318 1.434 . S
C318 C309 1.429 . S
C318 N315 1.350 . S
C318 C317 1.434 . S
C319 C320 1.369 . S
C319 C321 1.419 . S
C319 H323 0.930 . S
C320 C319 1.369 . S
C320 C329 1.429 . S
C321 C319 1.419 . S
C321 C322 1.363 . S
C321 H324 0.929 . S
C322 C321 1.363 . S
C322 C328 1.428 . S
H323 C319 0.930 . S
H324 C321 0.929 . S
S325 N326 1.613 . S
S325 N327 1.610 . S
N326 S325 1.613 . S
N326 C329 1.350 . S
N327 S325 1.610 . S
N327 C328 1.351 . S
C328 C322 1.428 . S
C328 N327 1.351 . S
C328 C329 1.434 . S
C329 C320 1.429 . S
C329 N326 1.350 . S
C329 C328 1.434 . S
C133 C84 1.739 . S
C135 C8 1.737 . S
C144 C32 1.738 . S
C146 C106 1.741 . S
C155 C128 1.737 . S
C157 C52 1.739 . S
C166 C125 1.099 . S
C168 C7 1.100 . S
C177 C43 1.104 . S
C179 C81 1.103 . S
C188 C51 1.094 . S
C190 C103 1.095 . S
C199 C18 1.445 1_566 S
C201 C87 1.457 . S
C210 C109 1.463 . S
C212 C30 1.450 1_455 S
C221 C131 1.460 . S
C223 C62 1.454 . S
C232 C76 1.442 1_654 S
C234 C15 1.462 . S
C243 C98 1.451 . S
C245 C29 1.462 . S
C254 C59 1.458 . S
C256 C120 1.448 1_545 S
C265 C21 1.376 . S
C267 C54 1.372 . S
C276 C10 1.373 . S
C278 C37 1.379 . S
C287 C65 1.378 . S
C289 C40 1.375 . S
C298 C73 1.379 . S
C300 C96 1.372 . S
C309 C95 1.379 . S
C311 C118 1.374 . S
C320 C74 1.376 . S
C322 C117 1.377 . S
