# Generated by pormake.
# Topology gis, (4)-cn, num edge types: 1
# Building blocks:
#     Node 0, Type 0, BuildingBlock: CEKHIL_clean_sbu_0, # of connection points: 4
#     Node 1, Type 0, BuildingBlock: CEKHIL_clean_sbu_0, # of connection points: 4
#     Node 2, Type 0, BuildingBlock: CEKHIL_clean_sbu_0, # of connection points: 4
#     Node 3, Type 0, BuildingBlock: CEKHIL_clean_sbu_0, # of connection points: 4
#     Node 4, Type 0, BuildingBlock: CEKHIL_clean_sbu_0, # of connection points: 4
#     Node 5, Type 0, BuildingBlock: CEKHIL_clean_sbu_0, # of connection points: 4
#     Node 6, Type 0, BuildingBlock: CEKHIL_clean_sbu_0, # of connection points: 4
#     Node 7, Type 0, BuildingBlock: CEKHIL_clean_sbu_0, # of connection points: 4
#     Node 8, Type 0, BuildingBlock: CEKHIL_clean_sbu_0, # of connection points: 4
#     Node 9, Type 0, BuildingBlock: CEKHIL_clean_sbu_0, # of connection points: 4
#     Node 10, Type 0, BuildingBlock: CEKHIL_clean_sbu_0, # of connection points: 4
#     Node 11, Type 0, BuildingBlock: CEKHIL_clean_sbu_0, # of connection points: 4
#     Node 12, Type 0, BuildingBlock: CEKHIL_clean_sbu_0, # of connection points: 4
#     Node 13, Type 0, BuildingBlock: CEKHIL_clean_sbu_0, # of connection points: 4
#     Node 14, Type 0, BuildingBlock: CEKHIL_clean_sbu_0, # of connection points: 4
#     Node 15, Type 0, BuildingBlock: CEKHIL_clean_sbu_0, # of connection points: 4
#     Edge 16, Type (0, 0), BuildingBlock: OJICUG_clean_linker_0, # of connection points: 2
#     Edge 17, Type (0, 0), BuildingBlock: OJICUG_clean_linker_0, # of connection points: 2
#     Edge 18, Type (0, 0), BuildingBlock: OJICUG_clean_linker_0, # of connection points: 2
#     Edge 19, Type (0, 0), BuildingBlock: OJICUG_clean_linker_0, # of connection points: 2
#     Edge 20, Type (0, 0), BuildingBlock: OJICUG_clean_linker_0, # of connection points: 2
#     Edge 21, Type (0, 0), BuildingBlock: OJICUG_clean_linker_0, # of connection points: 2
#     Edge 22, Type (0, 0), BuildingBlock: OJICUG_clean_linker_0, # of connection points: 2
#     Edge 23, Type (0, 0), BuildingBlock: OJICUG_clean_linker_0, # of connection points: 2
#     Edge 24, Type (0, 0), BuildingBlock: OJICUG_clean_linker_0, # of connection points: 2
#     Edge 25, Type (0, 0), BuildingBlock: OJICUG_clean_linker_0, # of connection points: 2
#     Edge 26, Type (0, 0), BuildingBlock: OJICUG_clean_linker_0, # of connection points: 2
#     Edge 27, Type (0, 0), BuildingBlock: OJICUG_clean_linker_0, # of connection points: 2
#     Edge 28, Type (0, 0), BuildingBlock: OJICUG_clean_linker_0, # of connection points: 2
#     Edge 29, Type (0, 0), BuildingBlock: OJICUG_clean_linker_0, # of connection points: 2
#     Edge 30, Type (0, 0), BuildingBlock: OJICUG_clean_linker_0, # of connection points: 2
#     Edge 31, Type (0, 0), BuildingBlock: OJICUG_clean_linker_0, # of connection points: 2
#     Edge 32, Type (0, 0), BuildingBlock: OJICUG_clean_linker_0, # of connection points: 2
#     Edge 33, Type (0, 0), BuildingBlock: OJICUG_clean_linker_0, # of connection points: 2
#     Edge 34, Type (0, 0), BuildingBlock: OJICUG_clean_linker_0, # of connection points: 2
#     Edge 35, Type (0, 0), BuildingBlock: OJICUG_clean_linker_0, # of connection points: 2
#     Edge 36, Type (0, 0), BuildingBlock: OJICUG_clean_linker_0, # of connection points: 2
#     Edge 37, Type (0, 0), BuildingBlock: OJICUG_clean_linker_0, # of connection points: 2
#     Edge 38, Type (0, 0), BuildingBlock: OJICUG_clean_linker_0, # of connection points: 2
#     Edge 39, Type (0, 0), BuildingBlock: OJICUG_clean_linker_0, # of connection points: 2
#     Edge 40, Type (0, 0), BuildingBlock: OJICUG_clean_linker_0, # of connection points: 2
#     Edge 41, Type (0, 0), BuildingBlock: OJICUG_clean_linker_0, # of connection points: 2
#     Edge 42, Type (0, 0), BuildingBlock: OJICUG_clean_linker_0, # of connection points: 2
#     Edge 43, Type (0, 0), BuildingBlock: OJICUG_clean_linker_0, # of connection points: 2
#     Edge 44, Type (0, 0), BuildingBlock: OJICUG_clean_linker_0, # of connection points: 2
#     Edge 45, Type (0, 0), BuildingBlock: OJICUG_clean_linker_0, # of connection points: 2
#     Edge 46, Type (0, 0), BuildingBlock: OJICUG_clean_linker_0, # of connection points: 2
#     Edge 47, Type (0, 0), BuildingBlock: OJICUG_clean_linker_0, # of connection points: 2
# Relax obj value: 0.063
# Max RMSD: 0.132
# Mean RMSD: 0.127
data_MOF--net-gis--node1-CEKHIL_clean_sbu_0--edge1-OJICUG_clean_linker_0
_symmetry_space_group_name_H-M    P1
_symmetry_Int_Tables_number       1
_symmetry_cell_setting            triclinic
loop_
_symmetry_equiv_pos_as_xyz
'x, y, z'
_cell_length_a     39.612804
_cell_length_b     37.577691
_cell_length_c     25.700371
_cell_angle_alpha  90.51298
_cell_angle_beta   90.449541
_cell_angle_gamma 90.002415
loop_
_atom_site_label
_atom_site_type_symbol
_atom_site_fract_x
_atom_site_fract_y
_atom_site_fract_z
_atom_type_partial_charge
Co0 Co 0.14751 0.59658 0.13377 0.0
O1 O 0.19582 0.59954 0.13647 0.0
O2 O 0.16308 0.59673 0.20566 0.0
C3 C 0.14554 0.55404 0.07208 0.0
O4 O 0.0964 0.59182 0.14434 0.0
Co5 Co 0.1111 0.61764 0.03161 0.0
O6 O 0.07345 0.5912 0.06386 0.0
C7 C 0.1367 0.67379 0.10168 0.0
C8 C 0.19345 0.59848 0.18662 0.0
C9 C 0.07141 0.58644 0.11277 0.0
O10 O 0.14432 0.64982 0.13507 0.0
O11 O 0.12514 0.66647 0.05615 0.0
O12 O 0.14999 0.54585 0.12064 0.0
O13 O 0.14568 0.58766 0.06182 0.0
Co14 Co 0.64867 0.89666 0.35683 0.0
O15 O 0.69708 0.89438 0.35638 0.0
O16 O 0.66479 0.89435 0.28575 0.0
C17 C 0.64514 0.94095 0.41608 0.0
O18 O 0.59766 0.89975 0.34353 0.0
Co19 Co 0.61167 0.87738 0.45824 0.0
O20 O 0.57295 0.90011 0.4221 0.0
C21 C 0.63865 0.81991 0.39261 0.0
C22 C 0.69502 0.89315 0.3061 0.0
C23 C 0.57161 0.90379 0.37285 0.0
O24 O 0.64635 0.84331 0.35855 0.0
O25 O 0.6265 0.82807 0.43719 0.0
O26 O 0.65012 0.94802 0.36735 0.0
O27 O 0.64578 0.90757 0.42792 0.0
Co28 Co 0.36108 0.39601 0.63204 0.0
O29 O 0.3126 0.393 0.63329 0.0
O30 O 0.34571 0.38986 0.70282 0.0
C31 C 0.36297 0.4431 0.57843 0.0
O32 O 0.41216 0.39931 0.64519 0.0
Co33 Co 0.39914 0.38641 0.52686 0.0
O34 O 0.43739 0.40638 0.56774 0.0
C35 C 0.3695 0.32425 0.5797 0.0
C36 C 0.31525 0.38971 0.68329 0.0
C37 C 0.43833 0.40612 0.61735 0.0
O38 O 0.36405 0.34287 0.6211 0.0
O39 O 0.38034 0.33757 0.53727 0.0
O40 O 0.35856 0.44817 0.62803 0.0
O41 O 0.36343 0.41041 0.56324 0.0
Co42 Co 0.86007 0.097 0.87164 0.0
O43 O 0.81172 0.09976 0.86787 0.0
O44 O 0.84535 0.10141 0.79966 0.0
C45 C 0.86069 0.05132 0.92714 0.0
O46 O 0.91148 0.09339 0.86201 0.0
Co47 Co 0.89608 0.10854 0.97935 0.0
O48 O 0.93416 0.08603 0.94199 0.0
C49 C 0.86674 0.16922 0.92187 0.0
C50 C 0.81471 0.10153 0.81787 0.0
C51 C 0.93644 0.0857 0.89254 0.0
O52 O 0.86278 0.15008 0.88053 0.0
O53 O 0.87658 0.15671 0.96564 0.0
O54 O 0.85742 0.04524 0.87747 0.0
O55 O 0.86108 0.08422 0.94118 0.0
Co56 Co 0.15075 0.39468 0.86453 0.0
O57 O 0.19907 0.3918 0.86136 0.0
O58 O 0.16506 0.38795 0.7929 0.0
C59 C 0.14987 0.44234 0.91824 0.0
O60 O 0.0993 0.3979 0.8544 0.0
Co61 Co 0.11579 0.38594 0.97246 0.0
O62 O 0.07755 0.40768 0.93415 0.0
C63 C 0.14417 0.32344 0.91736 0.0
C64 C 0.1958 0.38824 0.81145 0.0
C65 C 0.07473 0.40664 0.88471 0.0
O66 O 0.14818 0.3416 0.87558 0.0
O67 O 0.13456 0.33717 0.96057 0.0
O68 O 0.15325 0.44691 0.86848 0.0
O69 O 0.14994 0.40982 0.93331 0.0
Co70 Co 0.86293 0.89402 0.13327 0.0
O71 O 0.8147 0.88849 0.13302 0.0
O72 O 0.84682 0.88836 0.20381 0.0
C73 C 0.86225 0.94016 0.07846 0.0
O74 O 0.91364 0.90034 0.14794 0.0
Co75 Co 0.9036 0.88734 0.02974 0.0
O76 O 0.93931 0.91088 0.07178 0.0
C77 C 0.87854 0.82296 0.08393 0.0
C78 C 0.81666 0.88694 0.18325 0.0
C79 C 0.93966 0.90966 0.12132 0.0
O80 O 0.86892 0.8412 0.12378 0.0
O81 O 0.89011 0.83696 0.04243 0.0
O82 O 0.85758 0.94562 0.12789 0.0
O83 O 0.86518 0.9075 0.06402 0.0
Co84 Co 0.36158 0.59575 0.36423 0.0
O85 O 0.3131 0.59749 0.36323 0.0
O86 O 0.34508 0.59539 0.29304 0.0
C87 C 0.36565 0.55359 0.42527 0.0
O88 O 0.41248 0.59259 0.35101 0.0
Co89 Co 0.39992 0.61804 0.46442 0.0
O90 O 0.43845 0.59462 0.42911 0.0
C91 C 0.37187 0.67333 0.39651 0.0
C92 C 0.31494 0.59674 0.31294 0.0
C93 C 0.43903 0.58957 0.38 0.0
O94 O 0.36356 0.64897 0.36354 0.0
O95 O 0.38476 0.66657 0.44121 0.0
O96 O 0.36058 0.54503 0.37675 0.0
O97 O 0.365 0.58727 0.43604 0.0
Co98 Co 0.64973 0.09517 0.63303 0.0
O99 O 0.6981 0.09753 0.63687 0.0
O100 O 0.66456 0.0964 0.70524 0.0
C101 C 0.64721 0.05163 0.57249 0.0
O102 O 0.59841 0.09159 0.64228 0.0
Co103 Co 0.61531 0.11609 0.52915 0.0
O104 O 0.57654 0.09125 0.56104 0.0
C105 C 0.64029 0.17254 0.59901 0.0
C106 C 0.69515 0.09782 0.68698 0.0
C107 C 0.57369 0.08689 0.60995 0.0
O108 O 0.64731 0.1486 0.6328 0.0
O109 O 0.62925 0.1651 0.55323 0.0
O110 O 0.65145 0.04399 0.62128 0.0
O111 O 0.64829 0.08514 0.56149 0.0
Co112 Co 0.85926 0.39233 0.86818 0.0
O113 O 0.81099 0.38856 0.86568 0.0
O114 O 0.84393 0.3863 0.79663 0.0
C115 C 0.85929 0.43908 0.92299 0.0
O116 O 0.91045 0.39676 0.8572 0.0
Co117 Co 0.89661 0.38372 0.97502 0.0
O118 O 0.93385 0.40631 0.9364 0.0
C119 C 0.86731 0.32142 0.91959 0.0
C120 C 0.8135 0.38603 0.81564 0.0
C121 C 0.93557 0.40564 0.8869 0.0
O122 O 0.86295 0.33952 0.87785 0.0
O123 O 0.87739 0.33506 0.96286 0.0
O124 O 0.85564 0.44412 0.87328 0.0
O125 O 0.86064 0.40648 0.9375 0.0
Co126 Co 0.35859 0.09967 0.62912 0.0
O127 O 0.31044 0.10403 0.63339 0.0
O128 O 0.34518 0.10635 0.70113 0.0
C129 C 0.35738 0.05233 0.57505 0.0
O130 O 0.41004 0.09472 0.63779 0.0
Co131 Co 0.39266 0.10772 0.52055 0.0
O132 O 0.43025 0.0837 0.55746 0.0
C133 C 0.36729 0.17107 0.57736 0.0
C134 C 0.31427 0.10704 0.68326 0.0
C135 C 0.43384 0.08474 0.60681 0.0
O136 O 0.36258 0.15268 0.61874 0.0
O137 O 0.37634 0.15734 0.53384 0.0
O138 O 0.35459 0.04763 0.62486 0.0
O139 O 0.3581 0.08491 0.5602 0.0
Co140 Co 0.64773 0.59315 0.36018 0.0
O141 O 0.65163 0.54313 0.37331 0.0
O142 O 0.64161 0.58451 0.43331 0.0
C143 C 0.69373 0.59819 0.30996 0.0
O144 O 0.64329 0.6471 0.36149 0.0
Co145 Co 0.63232 0.61895 0.24982 0.0
O146 O 0.64468 0.66626 0.27906 0.0
C147 C 0.5766 0.59058 0.31086 0.0
C148 C 0.64602 0.55106 0.42172 0.0
C149 C 0.64503 0.67223 0.32794 0.0
O150 O 0.59772 0.58745 0.3487 0.0
O151 O 0.58536 0.60139 0.26583 0.0
O152 O 0.69637 0.59839 0.36033 0.0
O153 O 0.66389 0.59092 0.29132 0.0
Co154 Co 0.14667 0.89933 0.13726 0.0
O155 O 0.15117 0.94894 0.12308 0.0
O156 O 0.13909 0.90738 0.06395 0.0
C157 C 0.19385 0.89454 0.18598 0.0
O158 O 0.14141 0.84562 0.13697 0.0
Co159 Co 0.1342 0.87398 0.24842 0.0
O160 O 0.14515 0.8264 0.2192 0.0
C161 C 0.07727 0.90356 0.18978 0.0
C162 C 0.14468 0.94075 0.07486 0.0
C163 C 0.14392 0.82047 0.17034 0.0
O164 O 0.09714 0.90619 0.15073 0.0
O165 O 0.08717 0.89243 0.23428 0.0
O166 O 0.19518 0.89336 0.13556 0.0
O167 O 0.16451 0.90203 0.20553 0.0
Co168 Co 0.85742 0.59897 0.12869 0.0
O169 O 0.80942 0.60558 0.13152 0.0
O170 O 0.84318 0.60536 0.20042 0.0
C171 C 0.85439 0.55248 0.07348 0.0
O172 O 0.90849 0.59151 0.13922 0.0
Co173 Co 0.89454 0.60436 0.02185 0.0
O174 O 0.92952 0.57755 0.06046 0.0
C175 C 0.87404 0.66959 0.0801 0.0
C176 C 0.81256 0.60727 0.18162 0.0
C177 C 0.93237 0.57964 0.10982 0.0
O178 O 0.86438 0.6516 0.11971 0.0
O179 O 0.88417 0.65534 0.03752 0.0
O180 O 0.85093 0.54745 0.12311 0.0
O181 O 0.85725 0.585 0.05921 0.0
Co182 Co 0.15186 0.09827 0.8682 0.0
O183 O 0.20009 0.10172 0.86423 0.0
O184 O 0.16553 0.10429 0.79635 0.0
C185 C 0.15197 0.05139 0.92206 0.0
O186 O 0.10035 0.09432 0.85927 0.0
Co187 Co 0.11812 0.10863 0.97685 0.0
O188 O 0.07955 0.08602 0.93976 0.0
C189 C 0.14494 0.17048 0.92009 0.0
C190 C 0.19639 0.10483 0.81442 0.0
C191 C 0.07616 0.08608 0.89038 0.0
O192 O 0.14881 0.15143 0.8787 0.0
O193 O 0.13593 0.15759 0.96382 0.0
O194 O 0.15488 0.04617 0.87223 0.0
O195 O 0.15191 0.08413 0.93705 0.0
Co196 Co 0.64667 0.39886 0.63782 0.0
O197 O 0.65031 0.44899 0.62527 0.0
O198 O 0.63992 0.40785 0.56479 0.0
C199 C 0.69315 0.39391 0.68792 0.0
O200 O 0.6425 0.34487 0.63569 0.0
Co201 Co 0.63272 0.37184 0.74762 0.0
O202 O 0.64516 0.32487 0.71761 0.0
C203 C 0.57623 0.40081 0.68751 0.0
C204 C 0.64452 0.44124 0.57671 0.0
C205 C 0.64494 0.3194 0.66862 0.0
O206 O 0.5968 0.40435 0.64953 0.0
O207 O 0.58554 0.38943 0.73217 0.0
O208 O 0.69527 0.39387 0.63756 0.0
O209 O 0.66346 0.40077 0.70671 0.0
Co210 Co 0.3629 0.89819 0.3595 0.0
O211 O 0.35898 0.94801 0.37352 0.0
O212 O 0.37017 0.90699 0.43283 0.0
C213 C 0.31587 0.8935 0.31029 0.0
O214 O 0.36744 0.84447 0.36011 0.0
Co215 Co 0.37566 0.87109 0.24884 0.0
O216 O 0.36401 0.82401 0.27802 0.0
C217 C 0.43271 0.90061 0.3081 0.0
C218 C 0.36499 0.94028 0.42183 0.0
C219 C 0.36486 0.81885 0.32692 0.0
O220 O 0.41262 0.90404 0.3468 0.0
O221 O 0.42285 0.88917 0.26343 0.0
O222 O 0.31436 0.89297 0.36068 0.0
O223 O 0.34538 0.90027 0.29096 0.0
C224 C 0.15093 0.75538 0.18631 0.0
C225 C 0.14389 0.78314 0.15165 0.0
H226 H 0.15447 0.69939 0.19776 0.0
C227 C 0.1358 0.77474 0.09958 0.0
H228 H 0.15746 0.76087 0.2266 0.0
C229 C 0.13392 0.73926 0.08294 0.0
C230 C 0.14032 0.71149 0.11795 0.0
H231 H 0.13024 0.79551 0.07186 0.0
H232 H 0.12708 0.73365 0.04282 0.0
C233 C 0.14927 0.72003 0.16965 0.0
C234 C 0.47895 0.9253 0.36425 0.0
C235 C 0.46914 0.90763 0.3181 0.0
H236 H 0.51905 0.93845 0.41698 0.0
C237 C 0.49444 0.89364 0.28556 0.0
H238 H 0.46032 0.93703 0.38984 0.0
C239 C 0.52852 0.89471 0.3012 0.0
C240 C 0.53771 0.90967 0.34965 0.0
H241 H 0.48777 0.88 0.24963 0.0
H242 H 0.54725 0.88174 0.27712 0.0
C243 C 0.51272 0.92621 0.37984 0.0
C244 C 0.36374 0.26637 0.62763 0.0
C245 C 0.36461 0.28527 0.58065 0.0
H246 H 0.36394 0.21504 0.66371 0.0
C247 C 0.36302 0.26629 0.53339 0.0
H248 H 0.3648 0.2803 0.66469 0.0
C249 C 0.36251 0.22934 0.53283 0.0
C250 C 0.36362 0.21022 0.57951 0.0
H251 H 0.363 0.27997 0.49646 0.0
H252 H 0.36211 0.21578 0.49545 0.0
C253 C 0.36326 0.22905 0.62707 0.0
C254 C 0.02348 0.10593 0.84482 0.0
C255 C 0.04165 0.07915 0.87068 0.0
H256 H 0.97446 0.12871 0.83049 0.0
C257 C 0.024 0.05016 0.89119 0.0
H258 H 0.03653 0.12885 0.82948 0.0
C259 C 0.98879 0.05008 0.8918 0.0
C260 C 0.97053 0.07898 0.87187 0.0
H261 H 0.03744 0.02931 0.91158 0.0
H262 H 0.97594 0.02918 0.91263 0.0
C263 C 0.98797 0.10585 0.8454 0.0
C264 C 0.14828 0.26493 0.86918 0.0
C265 C 0.14916 0.28447 0.91611 0.0
H266 H 0.14625 0.21311 0.83341 0.0
C267 C 0.15236 0.26613 0.96327 0.0
H268 H 0.14598 0.27835 0.8322 0.0
C269 C 0.15248 0.22918 0.96397 0.0
C270 C 0.14942 0.20946 0.91753 0.0
H271 H 0.15382 0.28032 0.0001 0.0
H272 H 0.15402 0.21609 0.0013 0.0
C273 C 0.14841 0.22762 0.86989 0.0
C274 C 0.99814 0.93391 0.12107 0.0
C275 C 0.97291 0.91496 0.14719 0.0
H276 H 0.05064 0.9456 0.11459 0.0
C277 C 0.9816 0.89691 0.19312 0.0
H278 H 0.99223 0.94858 0.08604 0.0
C279 C 0.01546 0.89516 0.20966 0.0
C280 C 0.04102 0.91142 0.18044 0.0
H281 H 0.96273 0.88204 0.21408 0.0
H282 H 0.02183 0.87912 0.24313 0.0
C283 C 0.03171 0.93214 0.13741 0.0
C284 C 0.3583 0.71856 0.32879 0.0
C285 C 0.36785 0.71079 0.38031 0.0
H286 H 0.34989 0.75854 0.27165 0.0
C287 C 0.37482 0.73906 0.41492 0.0
H288 H 0.35267 0.69752 0.30098 0.0
C289 C 0.37302 0.77426 0.39798 0.0
C290 C 0.3645 0.78187 0.34601 0.0
H291 H 0.38213 0.73403 0.45487 0.0
H292 H 0.3791 0.79544 0.42535 0.0
C293 C 0.35678 0.75363 0.31182 0.0
C294 C 0.52117 0.10376 0.65746 0.0
C295 C 0.53944 0.07857 0.62828 0.0
H296 H 0.47205 0.12514 0.67447 0.0
C297 C 0.52199 0.05051 0.6038 0.0
H298 H 0.53411 0.12597 0.67596 0.0
C299 C 0.48678 0.05002 0.60297 0.0
C300 C 0.46834 0.07768 0.6264 0.0
H301 H 0.53552 0.03093 0.58082 0.0
H302 H 0.47402 0.02996 0.57948 0.0
C303 C 0.48567 0.10329 0.65659 0.0
C304 C 0.85771 0.22749 0.96551 0.0
C305 C 0.86158 0.20795 0.91916 0.0
H306 H 0.85599 0.2786 0.0017 0.0
C307 C 0.8632 0.22607 0.87163 0.0
H308 H 0.85562 0.2143 0.00266 0.0
C309 C 0.8634 0.2633 0.87109 0.0
C310 C 0.86201 0.28267 0.91807 0.0
H311 H 0.86598 0.21161 0.83527 0.0
H312 H 0.86631 0.27678 0.83431 0.0
C313 C 0.85794 0.2644 0.96497 0.0
C314 C 0.65356 0.737 0.31131 0.0
C315 C 0.64579 0.70971 0.34623 0.0
H316 H 0.65777 0.79278 0.29853 0.0
C317 C 0.63737 0.71883 0.39773 0.0
H318 H 0.66041 0.73097 0.27147 0.0
C319 C 0.63564 0.75458 0.41337 0.0
C320 C 0.64258 0.78188 0.37792 0.0
H321 H 0.63123 0.69842 0.42561 0.0
H322 H 0.62835 0.76078 0.45295 0.0
C323 C 0.6521 0.77257 0.32697 0.0
C324 C 0.85921 0.72793 0.12365 0.0
C325 C 0.87489 0.7088 0.0832 0.0
H326 H 0.8478 0.7795 0.15575 0.0
C327 C 0.89209 0.72753 0.04454 0.0
H328 H 0.84584 0.71416 0.15408 0.0
C329 C 0.89323 0.76434 0.04551 0.0
C330 C 0.8772 0.78373 0.08517 0.0
H331 H 0.90496 0.71382 0.01319 0.0
H332 H 0.90691 0.7775 0.01484 0.0
C333 C 0.86034 0.76523 0.12461 0.0
C334 C 0.63844 0.27369 0.59713 0.0
C335 C 0.64595 0.28212 0.6494 0.0
H336 H 0.63066 0.23253 0.54005 0.0
C337 C 0.65326 0.25434 0.68395 0.0
H338 H 0.63272 0.29445 0.56947 0.0
C339 C 0.65225 0.21898 0.6671 0.0
C340 C 0.6437 0.21037 0.61526 0.0
H341 H 0.6594 0.25982 0.72438 0.0
H342 H 0.65754 0.19838 0.69522 0.0
C343 C 0.63721 0.23817 0.58028 0.0
C344 C 0.02251 0.44237 0.88298 0.0
C345 C 0.04041 0.41282 0.864 0.0
H346 H 0.97426 0.46355 0.90354 0.0
C347 C 0.0225 0.38501 0.83937 0.0
H348 H 0.03577 0.464 0.90244 0.0
C349 C 0.98701 0.38476 0.83998 0.0
C350 C 0.96935 0.41231 0.86524 0.0
H351 H 0.03575 0.36168 0.82525 0.0
H352 H 0.97372 0.36124 0.82628 0.0
C353 C 0.98731 0.44211 0.88362 0.0
C354 C 0.51431 0.59697 0.29013 0.0
C355 C 0.54038 0.5841 0.32247 0.0
H356 H 0.46129 0.60847 0.28273 0.0
C357 C 0.53166 0.56817 0.36984 0.0
H358 H 0.5201 0.60925 0.25331 0.0
C359 C 0.49828 0.56789 0.38658 0.0
C360 C 0.47255 0.58324 0.35634 0.0
H361 H 0.55087 0.55735 0.39543 0.0
H362 H 0.49283 0.55699 0.4245 0.0
C363 C 0.48061 0.59645 0.3069 0.0
C364 C 0.53096 0.42702 0.6318 0.0
C365 C 0.53996 0.4079 0.67657 0.0
H366 H 0.49183 0.44199 0.57884 0.0
C367 C 0.51415 0.3927 0.70651 0.0
H368 H 0.55003 0.43967 0.60828 0.0
C369 C 0.48036 0.39417 0.68947 0.0
C370 C 0.47198 0.41079 0.64225 0.0
H371 H 0.52022 0.3779 0.74131 0.0
H372 H 0.46124 0.38038 0.71145 0.0
C373 C 0.49749 0.4284 0.61488 0.0
C374 C 0.02117 0.54774 0.10894 0.0
C375 C 0.03771 0.57688 0.13214 0.0
H376 H 0.97386 0.52508 0.0856 0.0
C377 C 0.01871 0.6018 0.16064 0.0
H378 H 0.03529 0.52833 0.0865 0.0
C379 C 0.98325 0.60002 0.16002 0.0
C380 C 0.9667 0.57337 0.13073 0.0
H381 H 0.03093 0.62481 0.17815 0.0
H382 H 0.969 0.62174 0.17703 0.0
C383 C 0.98599 0.54591 0.10842 0.0
C384 C 0.14526 0.53468 0.97835 0.0
C385 C 0.14317 0.52631 0.03144 0.0
H386 H 0.14914 0.51439 0.90018 0.0
C387 C 0.14096 0.49057 0.04618 0.0
H388 H 0.1469 0.56211 0.96602 0.0
C389 C 0.1422 0.4636 0.00893 0.0
C390 C 0.14575 0.47169 0.95601 0.0
H391 H 0.13905 0.4833 0.08675 0.0
H392 H 0.14123 0.43629 0.02197 0.0
C393 C 0.14661 0.50747 0.94078 0.0
C394 C 0.72413 0.88862 0.2199 0.0
C395 C 0.72595 0.89025 0.27438 0.0
H396 H 0.75139 0.88594 0.14845 0.0
C397 C 0.75788 0.88919 0.29884 0.0
H398 H 0.69996 0.88924 0.19994 0.0
C399 C 0.78739 0.88722 0.26943 0.0
C400 C 0.78561 0.88622 0.21492 0.0
H401 H 0.76017 0.89027 0.34085 0.0
H402 H 0.81157 0.88706 0.2894 0.0
C403 C 0.75365 0.88661 0.19048 0.0
C404 C 0.3704 0.46365 0.48777 0.0
C405 C 0.36688 0.47215 0.54079 0.0
H406 H 0.37301 0.48274 0.41001 0.0
C407 C 0.36563 0.50807 0.55623 0.0
H408 H 0.37163 0.43623 0.47456 0.0
C409 C 0.36659 0.53496 0.51884 0.0
C410 C 0.3686 0.52617 0.46565 0.0
H411 H 0.3631 0.51533 0.59689 0.0
H412 H 0.36465 0.56247 0.53141 0.0
C413 C 0.37119 0.49033 0.45066 0.0
C414 C 0.72289 0.09918 0.77511 0.0
C415 C 0.72557 0.09974 0.72076 0.0
H416 H 0.74894 0.09946 0.84826 0.0
C417 C 0.75788 0.10191 0.69845 0.0
H418 H 0.69842 0.09755 0.79346 0.0
C419 C 0.78691 0.10304 0.72978 0.0
C420 C 0.78424 0.10206 0.78411 0.0
H421 H 0.76084 0.10251 0.6566 0.0
H422 H 0.8114 0.10434 0.71143 0.0
C423 C 0.75191 0.10033 0.80643 0.0
C424 C 0.85899 0.50368 0.94516 0.0
C425 C 0.86034 0.46823 0.96128 0.0
H426 H 0.85604 0.55823 0.96843 0.0
C427 C 0.86098 0.46057 0.01477 0.0
H428 H 0.85852 0.51027 0.90421 0.0
C429 C 0.85929 0.48795 0.05159 0.0
C430 C 0.85719 0.52335 0.03541 0.0
H431 H 0.86211 0.43337 0.02826 0.0
H432 H 0.85936 0.48139 0.09255 0.0
C433 C 0.85752 0.53105 0.98196 0.0
C434 C 0.25903 0.10759 0.80296 0.0
C435 C 0.22639 0.10776 0.78072 0.0
H436 H 0.31243 0.10741 0.78979 0.0
C437 C 0.22303 0.1096 0.72648 0.0
H438 H 0.26252 0.10628 0.84474 0.0
C439 C 0.2517 0.11031 0.69509 0.0
C440 C 0.28434 0.10921 0.71726 0.0
H441 H 0.1983 0.10987 0.70822 0.0
H442 H 0.24822 0.1111 0.65328 0.0
C443 C 0.2877 0.10832 0.77157 0.0
C444 C 0.64483 0.48701 0.44646 0.0
C445 C 0.64466 0.52307 0.46145 0.0
H446 H 0.6446 0.43277 0.47124 0.0
C447 C 0.64351 0.53201 0.51453 0.0
H448 H 0.64555 0.47932 0.40576 0.0
C449 C 0.64322 0.50533 0.552 0.0
C450 C 0.64372 0.46927 0.537 0.0
H451 H 0.64328 0.55958 0.52719 0.0
H452 H 0.64268 0.51299 0.59272 0.0
C453 C 0.64419 0.46034 0.4839 0.0
C454 C 0.25298 0.89142 0.30227 0.0
C455 C 0.2848 0.89102 0.27822 0.0
H456 H 0.19922 0.89298 0.29205 0.0
C457 C 0.28635 0.88979 0.22376 0.0
H458 H 0.25092 0.89232 0.34427 0.0
C459 C 0.25667 0.88985 0.19393 0.0
C460 C 0.22487 0.89151 0.21798 0.0
H461 H 0.31047 0.88929 0.20418 0.0
H462 H 0.2587 0.88947 0.15192 0.0
C463 C 0.22331 0.89184 0.27245 0.0
C464 C 0.64143 0.98768 0.54671 0.0
C465 C 0.64336 0.02361 0.53228 0.0
H466 H 0.64014 0.93332 0.52117 0.0
C467 C 0.64325 0.03223 0.47925 0.0
H468 H 0.6412 0.98025 0.58733 0.0
C469 C 0.64273 0.00531 0.44134 0.0
C470 C 0.64217 0.96933 0.45584 0.0
H471 H 0.64453 0.0597 0.467 0.0
H472 H 0.64362 0.0127 0.40074 0.0
C473 C 0.64077 0.9608 0.50884 0.0
C474 C 0.28748 0.38629 0.77041 0.0
C475 C 0.28474 0.38708 0.716 0.0
H476 H 0.26157 0.38588 0.84302 0.0
C477 C 0.25236 0.38655 0.69292 0.0
H478 H 0.312 0.38664 0.78937 0.0
C479 C 0.22333 0.38606 0.72367 0.0
C480 C 0.22611 0.38617 0.77812 0.0
H481 H 0.24937 0.38703 0.651 0.0
H482 H 0.19878 0.38628 0.70481 0.0
C483 C 0.25851 0.38588 0.80111 0.0
C484 C 0.86299 0.03146 0.01915 0.0
C485 C 0.86348 0.02294 0.96574 0.0
H486 H 0.86212 0.01176 0.09707 0.0
C487 C 0.86534 0.98727 0.94993 0.0
H488 H 0.86166 0.05887 0.03239 0.0
C489 C 0.86582 0.96044 0.98695 0.0
C490 C 0.86419 0.96888 0.04032 0.0
H491 H 0.86591 0.98005 0.90904 0.0
H492 H 0.86669 0.93303 0.97361 0.0
C493 C 0.86321 0.00459 0.0562 0.0
C494 C 0.2224 0.59845 0.27389 0.0
C495 C 0.22431 0.59856 0.21943 0.0
H496 H 0.24962 0.59785 0.34613 0.0
C497 C 0.25631 0.59827 0.1959 0.0
H498 H 0.19817 0.59867 0.29312 0.0
C499 C 0.28577 0.59769 0.22613 0.0
C500 C 0.2839 0.59748 0.28057 0.0
H501 H 0.25868 0.59829 0.15395 0.0
H502 H 0.30998 0.59736 0.20682 0.0
C503 C 0.25192 0.59796 0.30416 0.0
C504 C 0.36367 0.98748 0.55271 0.0
C505 C 0.36071 0.02306 0.53709 0.0
H506 H 0.36774 0.93292 0.52805 0.0
C507 C 0.36052 0.03104 0.48385 0.0
H508 H 0.36405 0.98071 0.59359 0.0
C509 C 0.36252 0.00403 0.44679 0.0
C510 C 0.36492 0.96839 0.46203 0.0
H511 H 0.35831 0.05822 0.47055 0.0
H512 H 0.36184 0.01119 0.40605 0.0
C513 C 0.36589 0.96025 0.51532 0.0
C514 C 0.78486 0.60973 0.26919 0.0
C515 C 0.78214 0.60823 0.21478 0.0
H516 H 0.75895 0.60804 0.34188 0.0
C517 C 0.74982 0.60529 0.19181 0.0
H518 H 0.80933 0.61201 0.28804 0.0
C519 C 0.72096 0.60273 0.22255 0.0
C520 C 0.72377 0.60325 0.27694 0.0
H521 H 0.7468 0.60402 0.14991 0.0
H522 H 0.69656 0.59971 0.2037 0.0
C523 C 0.75595 0.6074 0.29995 0.0
C524 C 0.14356 0.95982 0.98141 0.0
C525 C 0.14453 0.96847 0.03474 0.0
H526 H 0.14536 0.97952 0.90323 0.0
C527 C 0.14665 0.0043 0.05014 0.0
H528 H 0.1419 0.93235 0.96854 0.0
C529 C 0.14847 0.03097 0.01319 0.0
C530 C 0.14841 0.02249 0.9599 0.0
H531 H 0.14726 0.01186 0.09091 0.0
H532 H 0.15051 0.0583 0.02663 0.0
C533 C 0.14563 0.98671 0.94413 0.0
C534 C 0.75548 0.3851 0.69768 0.0
C535 C 0.72359 0.3893 0.72082 0.0
H536 H 0.80899 0.3807 0.70936 0.0
C537 C 0.72145 0.39042 0.77521 0.0
H538 H 0.75794 0.38403 0.65575 0.0
C539 C 0.75069 0.38832 0.80582 0.0
C540 C 0.7827 0.38519 0.78268 0.0
H541 H 0.69728 0.39353 0.79414 0.0
H542 H 0.7482 0.38995 0.84771 0.0
C543 C 0.78476 0.38315 0.7283 0.0
loop_
_geom_bond_atom_site_label_1
_geom_bond_atom_site_label_2
_geom_bond_distance
_geom_bond_site_symmetry_2
_ccdc_geom_bond_type
Co0 O1 2.216 . S
Co0 O2 2.091 . S
Co0 O4 2.004 . S
Co0 O10 2.021 . S
Co0 O12 2.137 . S
Co0 O13 2.244 . S
O1 Co0 2.216 . S
O1 C8 1.247 . S
O2 Co0 2.091 . S
O2 C8 1.261 . S
C3 O12 1.247 . S
C3 O13 1.272 . S
O4 Co0 2.004 . S
O4 C9 1.259 . S
Co5 O6 2.061 . S
Co5 O11 2.052 . S
Co5 O13 2.135 . S
O6 Co5 2.061 . S
O6 C9 1.235 . S
C7 O10 1.238 . S
C7 O11 1.241 . S
C8 O1 1.247 . S
C8 O2 1.261 . S
C9 O4 1.259 . S
C9 O6 1.235 . S
O10 Co0 2.021 . S
O10 C7 1.238 . S
O11 Co5 2.052 . S
O11 C7 1.241 . S
O12 Co0 2.137 . S
O12 C3 1.247 . S
O13 Co0 2.244 . S
O13 C3 1.272 . S
O13 Co5 2.135 . S
Co14 O15 2.216 . S
Co14 O16 2.091 . S
Co14 O18 2.004 . S
Co14 O24 2.021 . S
Co14 O26 2.137 . S
Co14 O27 2.244 . S
O15 Co14 2.216 . S
O15 C22 1.247 . S
O16 Co14 2.091 . S
O16 C22 1.261 . S
C17 O26 1.247 . S
C17 O27 1.272 . S
O18 Co14 2.004 . S
O18 C23 1.259 . S
Co19 O20 2.061 . S
Co19 O25 2.052 . S
Co19 O27 2.135 . S
O20 Co19 2.061 . S
O20 C23 1.235 . S
C21 O24 1.238 . S
C21 O25 1.241 . S
C22 O15 1.247 . S
C22 O16 1.261 . S
C23 O18 1.259 . S
C23 O20 1.235 . S
O24 Co14 2.021 . S
O24 C21 1.238 . S
O25 Co19 2.052 . S
O25 C21 1.241 . S
O26 Co14 2.137 . S
O26 C17 1.247 . S
O27 Co14 2.244 . S
O27 C17 1.272 . S
O27 Co19 2.135 . S
Co28 O29 2.216 . S
Co28 O30 2.091 . S
Co28 O32 2.004 . S
Co28 O38 2.021 . S
Co28 O40 2.137 . S
Co28 O41 2.244 . S
O29 Co28 2.216 . S
O29 C36 1.247 . S
O30 Co28 2.091 . S
O30 C36 1.261 . S
C31 O40 1.247 . S
C31 O41 1.272 . S
O32 Co28 2.004 . S
O32 C37 1.259 . S
Co33 O34 2.061 . S
Co33 O39 2.052 . S
Co33 O41 2.135 . S
O34 Co33 2.061 . S
O34 C37 1.235 . S
C35 O38 1.238 . S
C35 O39 1.241 . S
C36 O29 1.247 . S
C36 O30 1.261 . S
C37 O32 1.259 . S
C37 O34 1.235 . S
O38 Co28 2.021 . S
O38 C35 1.238 . S
O39 Co33 2.052 . S
O39 C35 1.241 . S
O40 Co28 2.137 . S
O40 C31 1.247 . S
O41 Co28 2.244 . S
O41 C31 1.272 . S
O41 Co33 2.135 . S
Co42 O43 2.216 . S
Co42 O44 2.091 . S
Co42 O46 2.004 . S
Co42 O52 2.021 . S
Co42 O54 2.137 . S
Co42 O55 2.244 . S
O43 Co42 2.216 . S
O43 C50 1.247 . S
O44 Co42 2.091 . S
O44 C50 1.261 . S
C45 O54 1.247 . S
C45 O55 1.272 . S
O46 Co42 2.004 . S
O46 C51 1.259 . S
Co47 O48 2.061 . S
Co47 O53 2.052 . S
Co47 O55 2.135 . S
O48 Co47 2.061 . S
O48 C51 1.235 . S
C49 O52 1.238 . S
C49 O53 1.241 . S
C50 O43 1.247 . S
C50 O44 1.261 . S
C51 O46 1.259 . S
C51 O48 1.235 . S
O52 Co42 2.021 . S
O52 C49 1.238 . S
O53 Co47 2.052 . S
O53 C49 1.241 . S
O54 Co42 2.137 . S
O54 C45 1.247 . S
O55 Co42 2.244 . S
O55 C45 1.272 . S
O55 Co47 2.135 . S
Co56 O57 2.216 . S
Co56 O58 2.091 . S
Co56 O60 2.004 . S
Co56 O66 2.021 . S
Co56 O68 2.137 . S
Co56 O69 2.244 . S
O57 Co56 2.216 . S
O57 C64 1.247 . S
O58 Co56 2.091 . S
O58 C64 1.261 . S
C59 O68 1.247 . S
C59 O69 1.272 . S
O60 Co56 2.004 . S
O60 C65 1.259 . S
Co61 O62 2.061 . S
Co61 O67 2.052 . S
Co61 O69 2.135 . S
O62 Co61 2.061 . S
O62 C65 1.235 . S
C63 O66 1.238 . S
C63 O67 1.241 . S
C64 O57 1.247 . S
C64 O58 1.261 . S
C65 O60 1.259 . S
C65 O62 1.235 . S
O66 Co56 2.021 . S
O66 C63 1.238 . S
O67 Co61 2.052 . S
O67 C63 1.241 . S
O68 Co56 2.137 . S
O68 C59 1.247 . S
O69 Co56 2.244 . S
O69 C59 1.272 . S
O69 Co61 2.135 . S
Co70 O71 2.216 . S
Co70 O72 2.091 . S
Co70 O74 2.004 . S
Co70 O80 2.021 . S
Co70 O82 2.137 . S
Co70 O83 2.244 . S
O71 Co70 2.216 . S
O71 C78 1.247 . S
O72 Co70 2.091 . S
O72 C78 1.261 . S
C73 O82 1.247 . S
C73 O83 1.272 . S
O74 Co70 2.004 . S
O74 C79 1.259 . S
Co75 O76 2.061 . S
Co75 O81 2.052 . S
Co75 O83 2.135 . S
O76 Co75 2.061 . S
O76 C79 1.235 . S
C77 O80 1.238 . S
C77 O81 1.241 . S
C78 O71 1.247 . S
C78 O72 1.261 . S
C79 O74 1.259 . S
C79 O76 1.235 . S
O80 Co70 2.021 . S
O80 C77 1.238 . S
O81 Co75 2.052 . S
O81 C77 1.241 . S
O82 Co70 2.137 . S
O82 C73 1.247 . S
O83 Co70 2.244 . S
O83 C73 1.272 . S
O83 Co75 2.135 . S
Co84 O85 2.216 . S
Co84 O86 2.091 . S
Co84 O88 2.004 . S
Co84 O94 2.021 . S
Co84 O96 2.137 . S
Co84 O97 2.244 . S
O85 Co84 2.216 . S
O85 C92 1.247 . S
O86 Co84 2.091 . S
O86 C92 1.261 . S
C87 O96 1.247 . S
C87 O97 1.272 . S
O88 Co84 2.004 . S
O88 C93 1.259 . S
Co89 O90 2.061 . S
Co89 O95 2.052 . S
Co89 O97 2.135 . S
O90 Co89 2.061 . S
O90 C93 1.235 . S
C91 O94 1.238 . S
C91 O95 1.241 . S
C92 O85 1.247 . S
C92 O86 1.261 . S
C93 O88 1.259 . S
C93 O90 1.235 . S
O94 Co84 2.021 . S
O94 C91 1.238 . S
O95 Co89 2.052 . S
O95 C91 1.241 . S
O96 Co84 2.137 . S
O96 C87 1.247 . S
O97 Co84 2.244 . S
O97 C87 1.272 . S
O97 Co89 2.135 . S
Co98 O99 2.216 . S
Co98 O100 2.091 . S
Co98 O102 2.004 . S
Co98 O108 2.021 . S
Co98 O110 2.137 . S
Co98 O111 2.244 . S
O99 Co98 2.216 . S
O99 C106 1.247 . S
O100 Co98 2.091 . S
O100 C106 1.261 . S
C101 O110 1.247 . S
C101 O111 1.272 . S
O102 Co98 2.004 . S
O102 C107 1.259 . S
Co103 O104 2.061 . S
Co103 O109 2.052 . S
Co103 O111 2.135 . S
O104 Co103 2.061 . S
O104 C107 1.235 . S
C105 O108 1.238 . S
C105 O109 1.241 . S
C106 O99 1.247 . S
C106 O100 1.261 . S
C107 O102 1.259 . S
C107 O104 1.235 . S
O108 Co98 2.021 . S
O108 C105 1.238 . S
O109 Co103 2.052 . S
O109 C105 1.241 . S
O110 Co98 2.137 . S
O110 C101 1.247 . S
O111 Co98 2.244 . S
O111 C101 1.272 . S
O111 Co103 2.135 . S
Co112 O113 2.216 . S
Co112 O114 2.091 . S
Co112 O116 2.004 . S
Co112 O122 2.021 . S
Co112 O124 2.137 . S
Co112 O125 2.244 . S
O113 Co112 2.216 . S
O113 C120 1.247 . S
O114 Co112 2.091 . S
O114 C120 1.261 . S
C115 O124 1.247 . S
C115 O125 1.272 . S
O116 Co112 2.004 . S
O116 C121 1.259 . S
Co117 O118 2.061 . S
Co117 O123 2.052 . S
Co117 O125 2.135 . S
O118 Co117 2.061 . S
O118 C121 1.235 . S
C119 O122 1.238 . S
C119 O123 1.241 . S
C120 O113 1.247 . S
C120 O114 1.261 . S
C121 O116 1.259 . S
C121 O118 1.235 . S
O122 Co112 2.021 . S
O122 C119 1.238 . S
O123 Co117 2.052 . S
O123 C119 1.241 . S
O124 Co112 2.137 . S
O124 C115 1.247 . S
O125 Co112 2.244 . S
O125 C115 1.272 . S
O125 Co117 2.135 . S
Co126 O127 2.216 . S
Co126 O128 2.091 . S
Co126 O130 2.004 . S
Co126 O136 2.021 . S
Co126 O138 2.137 . S
Co126 O139 2.244 . S
O127 Co126 2.216 . S
O127 C134 1.247 . S
O128 Co126 2.091 . S
O128 C134 1.261 . S
C129 O138 1.247 . S
C129 O139 1.272 . S
O130 Co126 2.004 . S
O130 C135 1.259 . S
Co131 O132 2.061 . S
Co131 O137 2.052 . S
Co131 O139 2.135 . S
O132 Co131 2.061 . S
O132 C135 1.235 . S
C133 O136 1.238 . S
C133 O137 1.241 . S
C134 O127 1.247 . S
C134 O128 1.261 . S
C135 O130 1.259 . S
C135 O132 1.235 . S
O136 Co126 2.021 . S
O136 C133 1.238 . S
O137 Co131 2.052 . S
O137 C133 1.241 . S
O138 Co126 2.137 . S
O138 C129 1.247 . S
O139 Co126 2.244 . S
O139 C129 1.272 . S
O139 Co131 2.135 . S
Co140 O141 2.216 . S
Co140 O142 2.091 . S
Co140 O144 2.004 . S
Co140 O150 2.021 . S
Co140 O152 2.137 . S
Co140 O153 2.244 . S
O141 Co140 2.216 . S
O141 C148 1.247 . S
O142 Co140 2.091 . S
O142 C148 1.261 . S
C143 O152 1.247 . S
C143 O153 1.272 . S
O144 Co140 2.004 . S
O144 C149 1.259 . S
Co145 O146 2.061 . S
Co145 O151 2.052 . S
Co145 O153 2.135 . S
O146 Co145 2.061 . S
O146 C149 1.235 . S
C147 O150 1.238 . S
C147 O151 1.241 . S
C148 O141 1.247 . S
C148 O142 1.261 . S
C149 O144 1.259 . S
C149 O146 1.235 . S
O150 Co140 2.021 . S
O150 C147 1.238 . S
O151 Co145 2.052 . S
O151 C147 1.241 . S
O152 Co140 2.137 . S
O152 C143 1.247 . S
O153 Co140 2.244 . S
O153 C143 1.272 . S
O153 Co145 2.135 . S
Co154 O155 2.216 . S
Co154 O156 2.091 . S
Co154 O158 2.004 . S
Co154 O164 2.021 . S
Co154 O166 2.137 . S
Co154 O167 2.244 . S
O155 Co154 2.216 . S
O155 C162 1.247 . S
O156 Co154 2.091 . S
O156 C162 1.261 . S
C157 O166 1.247 . S
C157 O167 1.272 . S
O158 Co154 2.004 . S
O158 C163 1.259 . S
Co159 O160 2.061 . S
Co159 O165 2.052 . S
Co159 O167 2.135 . S
O160 Co159 2.061 . S
O160 C163 1.235 . S
C161 O164 1.238 . S
C161 O165 1.241 . S
C162 O155 1.247 . S
C162 O156 1.261 . S
C163 O158 1.259 . S
C163 O160 1.235 . S
O164 Co154 2.021 . S
O164 C161 1.238 . S
O165 Co159 2.052 . S
O165 C161 1.241 . S
O166 Co154 2.137 . S
O166 C157 1.247 . S
O167 Co154 2.244 . S
O167 C157 1.272 . S
O167 Co159 2.135 . S
Co168 O169 2.216 . S
Co168 O170 2.091 . S
Co168 O172 2.004 . S
Co168 O178 2.021 . S
Co168 O180 2.137 . S
Co168 O181 2.244 . S
O169 Co168 2.216 . S
O169 C176 1.247 . S
O170 Co168 2.091 . S
O170 C176 1.261 . S
C171 O180 1.247 . S
C171 O181 1.272 . S
O172 Co168 2.004 . S
O172 C177 1.259 . S
Co173 O174 2.061 . S
Co173 O179 2.052 . S
Co173 O181 2.135 . S
O174 Co173 2.061 . S
O174 C177 1.235 . S
C175 O178 1.238 . S
C175 O179 1.241 . S
C176 O169 1.247 . S
C176 O170 1.261 . S
C177 O172 1.259 . S
C177 O174 1.235 . S
O178 Co168 2.021 . S
O178 C175 1.238 . S
O179 Co173 2.052 . S
O179 C175 1.241 . S
O180 Co168 2.137 . S
O180 C171 1.247 . S
O181 Co168 2.244 . S
O181 C171 1.272 . S
O181 Co173 2.135 . S
Co182 O183 2.216 . S
Co182 O184 2.091 . S
Co182 O186 2.004 . S
Co182 O192 2.021 . S
Co182 O194 2.137 . S
Co182 O195 2.244 . S
O183 Co182 2.216 . S
O183 C190 1.247 . S
O184 Co182 2.091 . S
O184 C190 1.261 . S
C185 O194 1.247 . S
C185 O195 1.272 . S
O186 Co182 2.004 . S
O186 C191 1.259 . S
Co187 O188 2.061 . S
Co187 O193 2.052 . S
Co187 O195 2.135 . S
O188 Co187 2.061 . S
O188 C191 1.235 . S
C189 O192 1.238 . S
C189 O193 1.241 . S
C190 O183 1.247 . S
C190 O184 1.261 . S
C191 O186 1.259 . S
C191 O188 1.235 . S
O192 Co182 2.021 . S
O192 C189 1.238 . S
O193 Co187 2.052 . S
O193 C189 1.241 . S
O194 Co182 2.137 . S
O194 C185 1.247 . S
O195 Co182 2.244 . S
O195 C185 1.272 . S
O195 Co187 2.135 . S
Co196 O197 2.216 . S
Co196 O198 2.091 . S
Co196 O200 2.004 . S
Co196 O206 2.021 . S
Co196 O208 2.137 . S
Co196 O209 2.244 . S
O197 Co196 2.216 . S
O197 C204 1.247 . S
O198 Co196 2.091 . S
O198 C204 1.261 . S
C199 O208 1.247 . S
C199 O209 1.272 . S
O200 Co196 2.004 . S
O200 C205 1.259 . S
Co201 O202 2.061 . S
Co201 O207 2.052 . S
Co201 O209 2.135 . S
O202 Co201 2.061 . S
O202 C205 1.235 . S
C203 O206 1.238 . S
C203 O207 1.241 . S
C204 O197 1.247 . S
C204 O198 1.261 . S
C205 O200 1.259 . S
C205 O202 1.235 . S
O206 Co196 2.021 . S
O206 C203 1.238 . S
O207 Co201 2.052 . S
O207 C203 1.241 . S
O208 Co196 2.137 . S
O208 C199 1.247 . S
O209 Co196 2.244 . S
O209 C199 1.272 . S
O209 Co201 2.135 . S
Co210 O211 2.216 . S
Co210 O212 2.091 . S
Co210 O214 2.004 . S
Co210 O220 2.021 . S
Co210 O222 2.137 . S
Co210 O223 2.244 . S
O211 Co210 2.216 . S
O211 C218 1.247 . S
O212 Co210 2.091 . S
O212 C218 1.261 . S
C213 O222 1.247 . S
C213 O223 1.272 . S
O214 Co210 2.004 . S
O214 C219 1.259 . S
Co215 O216 2.061 . S
Co215 O221 2.052 . S
Co215 O223 2.135 . S
O216 Co215 2.061 . S
O216 C219 1.235 . S
C217 O220 1.238 . S
C217 O221 1.241 . S
C218 O211 1.247 . S
C218 O212 1.261 . S
C219 O214 1.259 . S
C219 O216 1.235 . S
O220 Co210 2.021 . S
O220 C217 1.238 . S
O221 Co215 2.052 . S
O221 C217 1.241 . S
O222 Co210 2.137 . S
O222 C213 1.247 . S
O223 Co210 2.244 . S
O223 C213 1.272 . S
O223 Co215 2.135 . S
C224 C225 1.387 . S
C224 H228 0.950 . S
C224 C233 1.390 . S
C225 C224 1.387 . S
C225 C227 1.387 . S
H226 C233 0.950 . S
C227 C225 1.387 . S
C227 C229 1.390 . S
C227 H231 0.950 . S
H228 C224 0.950 . S
C229 C227 1.390 . S
C229 C230 1.387 . S
C229 H232 0.950 . S
C230 C229 1.387 . S
C230 C233 1.387 . S
H231 C227 0.950 . S
H232 C229 0.950 . S
C233 C224 1.390 . S
C233 H226 0.950 . S
C233 C230 1.387 . S
C234 C235 1.387 . S
C234 H238 0.950 . S
C234 C243 1.390 . S
C235 C234 1.387 . S
C235 C237 1.387 . S
H236 C243 0.950 . S
C237 C235 1.387 . S
C237 C239 1.390 . S
C237 H241 0.950 . S
H238 C234 0.950 . S
C239 C237 1.390 . S
C239 C240 1.387 . S
C239 H242 0.950 . S
C240 C239 1.387 . S
C240 C243 1.387 . S
H241 C237 0.950 . S
H242 C239 0.950 . S
C243 C234 1.390 . S
C243 H236 0.950 . S
C243 C240 1.387 . S
C244 C245 1.387 . S
C244 H248 0.950 . S
C244 C253 1.390 . S
C245 C244 1.387 . S
C245 C247 1.387 . S
H246 C253 0.950 . S
C247 C245 1.387 . S
C247 C249 1.390 . S
C247 H251 0.950 . S
H248 C244 0.950 . S
C249 C247 1.390 . S
C249 C250 1.387 . S
C249 H252 0.950 . S
C250 C249 1.387 . S
C250 C253 1.387 . S
H251 C247 0.950 . S
H252 C249 0.950 . S
C253 C244 1.390 . S
C253 H246 0.950 . S
C253 C250 1.387 . S
C254 C255 1.387 . S
C254 H258 0.950 . S
C254 C263 1.390 1_455 S
C255 C254 1.387 . S
C255 C257 1.387 . S
H256 C263 0.950 . S
C257 C255 1.387 . S
C257 C259 1.390 1_455 S
C257 H261 0.950 . S
H258 C254 0.950 . S
C259 C257 1.390 1_655 S
C259 C260 1.387 . S
C259 H262 0.950 . S
C260 C259 1.387 . S
C260 C263 1.387 . S
H261 C257 0.950 . S
H262 C259 0.950 . S
C263 C254 1.390 1_655 S
C263 H256 0.950 . S
C263 C260 1.387 . S
C264 C265 1.387 . S
C264 H268 0.950 . S
C264 C273 1.390 . S
C265 C264 1.387 . S
C265 C267 1.387 . S
H266 C273 0.950 . S
C267 C265 1.387 . S
C267 C269 1.390 . S
C267 H271 0.950 . S
H268 C264 0.950 . S
C269 C267 1.390 . S
C269 C270 1.387 . S
C269 H272 0.950 . S
C270 C269 1.387 . S
C270 C273 1.387 . S
H271 C267 0.950 . S
H272 C269 0.950 . S
C273 C264 1.390 . S
C273 H266 0.950 . S
C273 C270 1.387 . S
C274 C275 1.387 . S
C274 H278 0.950 . S
C274 C283 1.390 1_655 S
C275 C274 1.387 . S
C275 C277 1.387 . S
H276 C283 0.950 . S
C277 C275 1.387 . S
C277 C279 1.390 1_655 S
C277 H281 0.950 . S
H278 C274 0.950 . S
C279 C277 1.390 1_455 S
C279 C280 1.387 . S
C279 H282 0.950 . S
C280 C279 1.387 . S
C280 C283 1.387 . S
H281 C277 0.950 . S
H282 C279 0.950 . S
C283 C274 1.390 1_455 S
C283 H276 0.950 . S
C283 C280 1.387 . S
C284 C285 1.387 . S
C284 H288 0.950 . S
C284 C293 1.390 . S
C285 C284 1.387 . S
C285 C287 1.387 . S
H286 C293 0.950 . S
C287 C285 1.387 . S
C287 C289 1.390 . S
C287 H291 0.950 . S
H288 C284 0.950 . S
C289 C287 1.390 . S
C289 C290 1.387 . S
C289 H292 0.950 . S
C290 C289 1.387 . S
C290 C293 1.387 . S
H291 C287 0.950 . S
H292 C289 0.950 . S
C293 C284 1.390 . S
C293 H286 0.950 . S
C293 C290 1.387 . S
C294 C295 1.387 . S
C294 H298 0.950 . S
C294 C303 1.390 . S
C295 C294 1.387 . S
C295 C297 1.387 . S
H296 C303 0.950 . S
C297 C295 1.387 . S
C297 C299 1.390 . S
C297 H301 0.950 . S
H298 C294 0.950 . S
C299 C297 1.390 . S
C299 C300 1.387 . S
C299 H302 0.950 . S
C300 C299 1.387 . S
C300 C303 1.387 . S
H301 C297 0.950 . S
H302 C299 0.950 . S
C303 C294 1.390 . S
C303 H296 0.950 . S
C303 C300 1.387 . S
C304 C305 1.387 . S
C304 H308 0.950 . S
C304 C313 1.390 . S
C305 C304 1.387 . S
C305 C307 1.387 . S
H306 C313 0.950 . S
C307 C305 1.387 . S
C307 C309 1.390 . S
C307 H311 0.950 . S
H308 C304 0.950 . S
C309 C307 1.390 . S
C309 C310 1.387 . S
C309 H312 0.950 . S
C310 C309 1.387 . S
C310 C313 1.387 . S
H311 C307 0.950 . S
H312 C309 0.950 . S
C313 C304 1.390 . S
C313 H306 0.950 . S
C313 C310 1.387 . S
C314 C315 1.387 . S
C314 H318 0.950 . S
C314 C323 1.390 . S
C315 C314 1.387 . S
C315 C317 1.387 . S
H316 C323 0.950 . S
C317 C315 1.387 . S
C317 C319 1.390 . S
C317 H321 0.950 . S
H318 C314 0.950 . S
C319 C317 1.390 . S
C319 C320 1.387 . S
C319 H322 0.950 . S
C320 C319 1.387 . S
C320 C323 1.387 . S
H321 C317 0.950 . S
H322 C319 0.950 . S
C323 C314 1.390 . S
C323 H316 0.950 . S
C323 C320 1.387 . S
C324 C325 1.387 . S
C324 H328 0.950 . S
C324 C333 1.390 . S
C325 C324 1.387 . S
C325 C327 1.387 . S
H326 C333 0.950 . S
C327 C325 1.387 . S
C327 C329 1.390 . S
C327 H331 0.950 . S
H328 C324 0.950 . S
C329 C327 1.390 . S
C329 C330 1.387 . S
C329 H332 0.950 . S
C330 C329 1.387 . S
C330 C333 1.387 . S
H331 C327 0.950 . S
H332 C329 0.950 . S
C333 C324 1.390 . S
C333 H326 0.950 . S
C333 C330 1.387 . S
C334 C335 1.387 . S
C334 H338 0.950 . S
C334 C343 1.390 . S
C335 C334 1.387 . S
C335 C337 1.387 . S
H336 C343 0.950 . S
C337 C335 1.387 . S
C337 C339 1.390 . S
C337 H341 0.950 . S
H338 C334 0.950 . S
C339 C337 1.390 . S
C339 C340 1.387 . S
C339 H342 0.950 . S
C340 C339 1.387 . S
C340 C343 1.387 . S
H341 C337 0.950 . S
H342 C339 0.950 . S
C343 C334 1.390 . S
C343 H336 0.950 . S
C343 C340 1.387 . S
C344 C345 1.387 . S
C344 H348 0.950 . S
C344 C353 1.390 1_455 S
C345 C344 1.387 . S
C345 C347 1.387 . S
H346 C353 0.950 . S
C347 C345 1.387 . S
C347 C349 1.390 1_455 S
C347 H351 0.950 . S
H348 C344 0.950 . S
C349 C347 1.390 1_655 S
C349 C350 1.387 . S
C349 H352 0.950 . S
C350 C349 1.387 . S
C350 C353 1.387 . S
H351 C347 0.950 . S
H352 C349 0.950 . S
C353 C344 1.390 1_655 S
C353 H346 0.950 . S
C353 C350 1.387 . S
C354 C355 1.387 . S
C354 H358 0.950 . S
C354 C363 1.390 . S
C355 C354 1.387 . S
C355 C357 1.387 . S
H356 C363 0.950 . S
C357 C355 1.387 . S
C357 C359 1.390 . S
C357 H361 0.950 . S
H358 C354 0.950 . S
C359 C357 1.390 . S
C359 C360 1.387 . S
C359 H362 0.950 . S
C360 C359 1.387 . S
C360 C363 1.387 . S
H361 C357 0.950 . S
H362 C359 0.950 . S
C363 C354 1.390 . S
C363 H356 0.950 . S
C363 C360 1.387 . S
C364 C365 1.387 . S
C364 H368 0.950 . S
C364 C373 1.390 . S
C365 C364 1.387 . S
C365 C367 1.387 . S
H366 C373 0.950 . S
C367 C365 1.387 . S
C367 C369 1.390 . S
C367 H371 0.950 . S
H368 C364 0.950 . S
C369 C367 1.390 . S
C369 C370 1.387 . S
C369 H372 0.950 . S
C370 C369 1.387 . S
C370 C373 1.387 . S
H371 C367 0.950 . S
H372 C369 0.950 . S
C373 C364 1.390 . S
C373 H366 0.950 . S
C373 C370 1.387 . S
C374 C375 1.387 . S
C374 H378 0.950 . S
C374 C383 1.390 1_455 S
C375 C374 1.387 . S
C375 C377 1.387 . S
H376 C383 0.950 . S
C377 C375 1.387 . S
C377 C379 1.390 1_455 S
C377 H381 0.950 . S
H378 C374 0.950 . S
C379 C377 1.390 1_655 S
C379 C380 1.387 . S
C379 H382 0.950 . S
C380 C379 1.387 . S
C380 C383 1.387 . S
H381 C377 0.950 . S
H382 C379 0.950 . S
C383 C374 1.390 1_655 S
C383 H376 0.950 . S
C383 C380 1.387 . S
C384 C385 1.387 . S
C384 H388 0.950 . S
C384 C393 1.390 1_554 S
C385 C384 1.387 . S
C385 C387 1.387 . S
H386 C393 0.950 . S
C387 C385 1.387 . S
C387 C389 1.390 1_554 S
C387 H391 0.950 . S
H388 C384 0.950 . S
C389 C387 1.390 1_556 S
C389 C390 1.387 . S
C389 H392 0.950 . S
C390 C389 1.387 . S
C390 C393 1.387 . S
H391 C387 0.950 . S
H392 C389 0.950 . S
C393 C384 1.390 1_556 S
C393 H386 0.950 . S
C393 C390 1.387 . S
C394 C395 1.387 . S
C394 H398 0.950 . S
C394 C403 1.390 . S
C395 C394 1.387 . S
C395 C397 1.387 . S
H396 C403 0.950 . S
C397 C395 1.387 . S
C397 C399 1.390 . S
C397 H401 0.950 . S
H398 C394 0.950 . S
C399 C397 1.390 . S
C399 C400 1.387 . S
C399 H402 0.950 . S
C400 C399 1.387 . S
C400 C403 1.387 . S
H401 C397 0.950 . S
H402 C399 0.950 . S
C403 C394 1.390 . S
C403 H396 0.950 . S
C403 C400 1.387 . S
C404 C405 1.387 . S
C404 H408 0.950 . S
C404 C413 1.390 . S
C405 C404 1.387 . S
C405 C407 1.387 . S
H406 C413 0.950 . S
C407 C405 1.387 . S
C407 C409 1.390 . S
C407 H411 0.950 . S
H408 C404 0.950 . S
C409 C407 1.390 . S
C409 C410 1.387 . S
C409 H412 0.950 . S
C410 C409 1.387 . S
C410 C413 1.387 . S
H411 C407 0.950 . S
H412 C409 0.950 . S
C413 C404 1.390 . S
C413 H406 0.950 . S
C413 C410 1.387 . S
C414 C415 1.387 . S
C414 H418 0.950 . S
C414 C423 1.390 . S
C415 C414 1.387 . S
C415 C417 1.387 . S
H416 C423 0.950 . S
C417 C415 1.387 . S
C417 C419 1.390 . S
C417 H421 0.950 . S
H418 C414 0.950 . S
C419 C417 1.390 . S
C419 C420 1.387 . S
C419 H422 0.950 . S
C420 C419 1.387 . S
C420 C423 1.387 . S
H421 C417 0.950 . S
H422 C419 0.950 . S
C423 C414 1.390 . S
C423 H416 0.950 . S
C423 C420 1.387 . S
C424 C425 1.387 . S
C424 H428 0.950 . S
C424 C433 1.390 1_556 S
C425 C424 1.387 . S
C425 C427 1.387 . S
H426 C433 0.950 . S
C427 C425 1.387 . S
C427 C429 1.390 1_556 S
C427 H431 0.950 . S
H428 C424 0.950 . S
C429 C427 1.390 1_554 S
C429 C430 1.387 . S
C429 H432 0.950 . S
C430 C429 1.387 . S
C430 C433 1.387 . S
H431 C427 0.950 . S
H432 C429 0.950 . S
C433 C424 1.390 1_554 S
C433 H426 0.950 . S
C433 C430 1.387 . S
C434 C435 1.387 . S
C434 H438 0.950 . S
C434 C443 1.390 . S
C435 C434 1.387 . S
C435 C437 1.387 . S
H436 C443 0.950 . S
C437 C435 1.387 . S
C437 C439 1.390 . S
C437 H441 0.950 . S
H438 C434 0.950 . S
C439 C437 1.390 . S
C439 C440 1.387 . S
C439 H442 0.950 . S
C440 C439 1.387 . S
C440 C443 1.387 . S
H441 C437 0.950 . S
H442 C439 0.950 . S
C443 C434 1.390 . S
C443 H436 0.950 . S
C443 C440 1.387 . S
C444 C445 1.387 . S
C444 H448 0.950 . S
C444 C453 1.390 . S
C445 C444 1.387 . S
C445 C447 1.387 . S
H446 C453 0.950 . S
C447 C445 1.387 . S
C447 C449 1.390 . S
C447 H451 0.950 . S
H448 C444 0.950 . S
C449 C447 1.390 . S
C449 C450 1.387 . S
C449 H452 0.950 . S
C450 C449 1.387 . S
C450 C453 1.387 . S
H451 C447 0.950 . S
H452 C449 0.950 . S
C453 C444 1.390 . S
C453 H446 0.950 . S
C453 C450 1.387 . S
C454 C455 1.387 . S
C454 H458 0.950 . S
C454 C463 1.390 . S
C455 C454 1.387 . S
C455 C457 1.387 . S
H456 C463 0.950 . S
C457 C455 1.387 . S
C457 C459 1.390 . S
C457 H461 0.950 . S
H458 C454 0.950 . S
C459 C457 1.390 . S
C459 C460 1.387 . S
C459 H462 0.950 . S
C460 C459 1.387 . S
C460 C463 1.387 . S
H461 C457 0.950 . S
H462 C459 0.950 . S
C463 C454 1.390 . S
C463 H456 0.950 . S
C463 C460 1.387 . S
C464 C465 1.387 . S
C464 H468 0.950 . S
C464 C473 1.390 1_545 S
C465 C464 1.387 . S
C465 C467 1.387 . S
H466 C473 0.950 . S
C467 C465 1.387 . S
C467 C469 1.390 1_545 S
C467 H471 0.950 . S
H468 C464 0.950 . S
C469 C467 1.390 1_565 S
C469 C470 1.387 . S
C469 H472 0.950 . S
C470 C469 1.387 . S
C470 C473 1.387 . S
H471 C467 0.950 . S
H472 C469 0.950 . S
C473 C464 1.390 1_565 S
C473 H466 0.950 . S
C473 C470 1.387 . S
C474 C475 1.387 . S
C474 H478 0.950 . S
C474 C483 1.390 . S
C475 C474 1.387 . S
C475 C477 1.387 . S
H476 C483 0.950 . S
C477 C475 1.387 . S
C477 C479 1.390 . S
C477 H481 0.950 . S
H478 C474 0.950 . S
C479 C477 1.390 . S
C479 C480 1.387 . S
C479 H482 0.950 . S
C480 C479 1.387 . S
C480 C483 1.387 . S
H481 C477 0.950 . S
H482 C479 0.950 . S
C483 C474 1.390 . S
C483 H476 0.950 . S
C483 C480 1.387 . S
C484 C485 1.387 1_554 S
C484 H488 0.950 . S
C484 C493 1.390 1_545 S
C485 C484 1.387 1_556 S
C485 C487 1.387 . S
H486 C493 0.950 . S
C487 C485 1.387 . S
C487 C489 1.380 1_546 S
C487 H491 0.950 . S
H488 C484 0.950 . S
C489 C487 1.380 1_564 S
C489 C490 1.399 . S
C489 H492 0.949 1_554 S
C490 C489 1.399 . S
C490 C493 1.387 . S
H491 C487 0.950 . S
H492 C489 0.949 1_556 S
C493 C484 1.390 1_565 S
C493 H486 0.950 . S
C493 C490 1.387 . S
C494 C495 1.387 . S
C494 H498 0.950 . S
C494 C503 1.390 . S
C495 C494 1.387 . S
C495 C497 1.387 . S
H496 C503 0.950 . S
C497 C495 1.387 . S
C497 C499 1.390 . S
C497 H501 0.950 . S
H498 C494 0.950 . S
C499 C497 1.390 . S
C499 C500 1.387 . S
C499 H502 0.950 . S
C500 C499 1.387 . S
C500 C503 1.387 . S
H501 C497 0.950 . S
H502 C499 0.950 . S
C503 C494 1.390 . S
C503 H496 0.950 . S
C503 C500 1.387 . S
C504 C505 1.387 . S
C504 H508 0.950 . S
C504 C513 1.390 1_545 S
C505 C504 1.387 . S
C505 C507 1.387 . S
H506 C513 0.950 . S
C507 C505 1.387 . S
C507 C509 1.390 1_545 S
C507 H511 0.950 . S
H508 C504 0.950 . S
C509 C507 1.390 1_565 S
C509 C510 1.387 . S
C509 H512 0.950 . S
C510 C509 1.387 . S
C510 C513 1.387 . S
H511 C507 0.950 . S
H512 C509 0.950 . S
C513 C504 1.390 1_565 S
C513 H506 0.950 . S
C513 C510 1.387 . S
C514 C515 1.387 . S
C514 H518 0.950 . S
C514 C523 1.390 . S
C515 C514 1.387 . S
C515 C517 1.387 . S
H516 C523 0.950 . S
C517 C515 1.387 . S
C517 C519 1.390 . S
C517 H521 0.950 . S
H518 C514 0.950 . S
C519 C517 1.390 . S
C519 C520 1.387 . S
C519 H522 0.950 . S
C520 C519 1.387 . S
C520 C523 1.387 . S
H521 C517 0.950 . S
H522 C519 0.950 . S
C523 C514 1.390 . S
C523 H516 0.950 . S
C523 C520 1.387 . S
C524 C525 1.387 . S
C524 H528 0.950 . S
C524 C533 1.390 1_564 S
C525 C524 1.387 . S
C525 C527 1.387 . S
H526 C533 0.950 . S
C527 C525 1.387 . S
C527 C529 1.390 1_564 S
C527 H531 0.950 . S
H528 C524 0.950 . S
C529 C527 1.390 1_546 S
C529 C530 1.387 . S
C529 H532 0.950 . S
C530 C529 1.387 . S
C530 C533 1.387 . S
H531 C527 0.950 . S
H532 C529 0.950 . S
C533 C524 1.390 1_546 S
C533 H526 0.950 . S
C533 C530 1.387 . S
C534 C535 1.387 . S
C534 H538 0.950 . S
C534 C543 1.390 . S
C535 C534 1.387 . S
C535 C537 1.387 . S
H536 C543 0.950 . S
C537 C535 1.387 . S
C537 C539 1.390 . S
C537 H541 0.950 . S
H538 C534 0.950 . S
C539 C537 1.390 . S
C539 C540 1.387 . S
C539 H542 0.950 . S
C540 C539 1.387 . S
C540 C543 1.387 . S
H541 C537 0.950 . S
H542 C539 0.950 . S
C543 C534 1.390 . S
C543 H536 0.950 . S
C543 C540 1.387 . S
C225 C163 1.419 . S
C230 C7 1.423 . S
C235 C217 1.439 . S
C240 C23 1.410 . S
C245 C35 1.425 . S
C250 C133 1.426 . S
C255 C191 1.329 . S
C260 C51 1.328 . S
C265 C63 1.413 . S
C270 C189 1.419 . S
C275 C79 1.430 . S
C280 C161 1.450 . S
C285 C91 1.436 . S
C290 C219 1.431 . S
C295 C107 1.310 . S
C300 C135 1.320 . S
C305 C49 1.461 . S
C310 C119 1.456 . S
C315 C149 1.387 . S
C320 C21 1.391 . S
C325 C175 1.474 . S
C330 C77 1.480 . S
C335 C205 1.372 . S
C340 C105 1.373 . S
C345 C65 1.369 . S
C350 C121 1.385 . S
C355 C147 1.388 . S
C360 C93 1.366 . S
C365 C203 1.394 . S
C370 C37 1.372 . S
C375 C9 1.363 . S
C380 C177 1.376 . S
C385 C3 1.356 . S
C390 C59 1.355 . S
C395 C22 1.386 . S
C400 C78 1.388 . S
C405 C31 1.455 . S
C410 C87 1.456 . S
C415 C106 1.323 . S
C420 C50 1.325 . S
C425 C115 1.406 . S
C430 C171 1.405 . S
C435 C190 1.308 . S
C440 C134 1.308 . S
C445 C148 1.316 . S
C450 C204 1.316 . S
C455 C213 1.421 . S
C460 C157 1.419 . S
C465 C101 1.398 . S
C470 C17 1.400 . S
C475 C36 1.398 . S
C480 C64 1.399 . S
C485 C45 1.413 . S
C490 C73 1.415 . S
C495 C8 1.308 . S
C500 C92 1.308 . S
C505 C129 1.347 . S
C510 C218 1.356 . S
C515 C176 1.383 . S
C520 C143 1.365 . S
C525 C162 1.375 . S
C530 C185 1.365 . S
C535 C199 1.347 . S
C540 C120 1.364 . S
