# Generated by pormake.
# Topology wjd, (6)-cn, num edge types: 1
# Building blocks:
#     Node 0, Type 0, BuildingBlock: BETDIP_clean_sbu_0, # of connection points: 6
#     Node 1, Type 0, BuildingBlock: BETDIP_clean_sbu_0, # of connection points: 6
#     Node 2, Type 0, BuildingBlock: BETDIP_clean_sbu_0, # of connection points: 6
#     Node 3, Type 0, BuildingBlock: BETDIP_clean_sbu_0, # of connection points: 6
#     Node 4, Type 0, BuildingBlock: BETDIP_clean_sbu_0, # of connection points: 6
#     Node 5, Type 0, BuildingBlock: BETDIP_clean_sbu_0, # of connection points: 6
#     Node 6, Type 0, BuildingBlock: BETDIP_clean_sbu_0, # of connection points: 6
#     Node 7, Type 0, BuildingBlock: BETDIP_clean_sbu_0, # of connection points: 6
#     Node 8, Type 0, BuildingBlock: BETDIP_clean_sbu_0, # of connection points: 6
#     Node 9, Type 0, BuildingBlock: BETDIP_clean_sbu_0, # of connection points: 6
#     Node 10, Type 0, BuildingBlock: BETDIP_clean_sbu_0, # of connection points: 6
#     Node 11, Type 0, BuildingBlock: BETDIP_clean_sbu_0, # of connection points: 6
#     Edge 12, Type (0, 0), BuildingBlock: EZIPEK_clean_linker_0, # of connection points: 2
#     Edge 13, Type (0, 0), BuildingBlock: EZIPEK_clean_linker_0, # of connection points: 2
#     Edge 14, Type (0, 0), BuildingBlock: EZIPEK_clean_linker_0, # of connection points: 2
#     Edge 15, Type (0, 0), BuildingBlock: EZIPEK_clean_linker_0, # of connection points: 2
#     Edge 16, Type (0, 0), BuildingBlock: EZIPEK_clean_linker_0, # of connection points: 2
#     Edge 17, Type (0, 0), BuildingBlock: EZIPEK_clean_linker_0, # of connection points: 2
#     Edge 18, Type (0, 0), BuildingBlock: EZIPEK_clean_linker_0, # of connection points: 2
#     Edge 19, Type (0, 0), BuildingBlock: EZIPEK_clean_linker_0, # of connection points: 2
#     Edge 20, Type (0, 0), BuildingBlock: EZIPEK_clean_linker_0, # of connection points: 2
#     Edge 21, Type (0, 0), BuildingBlock: EZIPEK_clean_linker_0, # of connection points: 2
#     Edge 22, Type (0, 0), BuildingBlock: EZIPEK_clean_linker_0, # of connection points: 2
#     Edge 23, Type (0, 0), BuildingBlock: EZIPEK_clean_linker_0, # of connection points: 2
#     Edge 24, Type (0, 0), BuildingBlock: EZIPEK_clean_linker_0, # of connection points: 2
#     Edge 25, Type (0, 0), BuildingBlock: EZIPEK_clean_linker_0, # of connection points: 2
#     Edge 26, Type (0, 0), BuildingBlock: EZIPEK_clean_linker_0, # of connection points: 2
#     Edge 27, Type (0, 0), BuildingBlock: EZIPEK_clean_linker_0, # of connection points: 2
#     Edge 28, Type (0, 0), BuildingBlock: EZIPEK_clean_linker_0, # of connection points: 2
#     Edge 29, Type (0, 0), BuildingBlock: EZIPEK_clean_linker_0, # of connection points: 2
#     Edge 30, Type (0, 0), BuildingBlock: EZIPEK_clean_linker_0, # of connection points: 2
#     Edge 31, Type (0, 0), BuildingBlock: EZIPEK_clean_linker_0, # of connection points: 2
#     Edge 32, Type (0, 0), BuildingBlock: EZIPEK_clean_linker_0, # of connection points: 2
#     Edge 33, Type (0, 0), BuildingBlock: EZIPEK_clean_linker_0, # of connection points: 2
#     Edge 34, Type (0, 0), BuildingBlock: EZIPEK_clean_linker_0, # of connection points: 2
#     Edge 35, Type (0, 0), BuildingBlock: EZIPEK_clean_linker_0, # of connection points: 2
#     Edge 36, Type (0, 0), BuildingBlock: EZIPEK_clean_linker_0, # of connection points: 2
#     Edge 37, Type (0, 0), BuildingBlock: EZIPEK_clean_linker_0, # of connection points: 2
#     Edge 38, Type (0, 0), BuildingBlock: EZIPEK_clean_linker_0, # of connection points: 2
#     Edge 39, Type (0, 0), BuildingBlock: EZIPEK_clean_linker_0, # of connection points: 2
#     Edge 40, Type (0, 0), BuildingBlock: EZIPEK_clean_linker_0, # of connection points: 2
#     Edge 41, Type (0, 0), BuildingBlock: EZIPEK_clean_linker_0, # of connection points: 2
#     Edge 42, Type (0, 0), BuildingBlock: EZIPEK_clean_linker_0, # of connection points: 2
#     Edge 43, Type (0, 0), BuildingBlock: EZIPEK_clean_linker_0, # of connection points: 2
#     Edge 44, Type (0, 0), BuildingBlock: EZIPEK_clean_linker_0, # of connection points: 2
#     Edge 45, Type (0, 0), BuildingBlock: EZIPEK_clean_linker_0, # of connection points: 2
#     Edge 46, Type (0, 0), BuildingBlock: EZIPEK_clean_linker_0, # of connection points: 2
#     Edge 47, Type (0, 0), BuildingBlock: EZIPEK_clean_linker_0, # of connection points: 2
# Relax obj value: 0.114
# Max RMSD: 0.236
# Mean RMSD: 0.236
data_MOF--net-wjd--node1-BETDIP_clean_sbu_0--edge1-EZIPEK_clean_linker_0
_symmetry_space_group_name_H-M    P1
_symmetry_Int_Tables_number       1
_symmetry_cell_setting            triclinic
loop_
_symmetry_equiv_pos_as_xyz
'x, y, z'
_cell_length_a     32.109348
_cell_length_b     32.161267
_cell_length_c     38.184244
_cell_angle_alpha  90.049032
_cell_angle_beta   89.822539
_cell_angle_gamma 119.98403
loop_
_atom_site_label
_atom_site_type_symbol
_atom_site_fract_x
_atom_site_fract_y
_atom_site_fract_z
_atom_type_partial_charge
Tb0 Tb 0.39344 0.18208 0.1052 0.0
Tb1 Tb 0.33067 0.08169 0.12919 0.0
C2 C 0.43899 0.27276 0.09608 0.0
C3 C 0.48107 0.3215 0.10342 0.0
C4 C 0.51538 0.33054 0.12962 0.0
C5 C 0.55348 0.37782 0.13588 0.0
C6 C 0.55782 0.41707 0.11629 0.0
C7 C 0.52307 0.4077 0.09047 0.0
C8 C 0.48546 0.36075 0.08413 0.0
C9 C 0.35124 0.11344 0.05398 0.0
C10 C 0.4466 0.1262 0.11995 0.0
C11 C 0.27224 0.99249 0.12984 0.0
C12 C 0.2184 0.96337 0.12791 0.0
C13 C 0.19542 0.94131 0.09625 0.0
C14 C 0.14501 0.91354 0.09424 0.0
C15 C 0.1162 0.90681 0.12387 0.0
C16 C 0.13889 0.92906 0.15543 0.0
C17 C 0.18928 0.95698 0.15744 0.0
C18 C 0.36396 0.14272 0.18265 0.0
C19 C 0.28545 0.14956 0.12549 0.0
O20 O 0.40769 0.25073 0.12109 0.0
O21 O 0.44467 0.24261 0.0764 0.0
O22 O 0.33433 0.11772 0.08271 0.0
O23 O 0.39275 0.15233 0.05196 0.0
O24 O 0.45052 0.16898 0.1202 0.0
O25 O 0.40297 0.08634 0.12063 0.0
O26 O 0.29474 1.01634 0.10165 0.0
O27 O 0.29129 1.01785 0.15819 0.0
O28 O 0.38739 0.14523 0.1548 0.0
O29 O 0.32244 0.10403 0.18069 0.0
O30 O 0.27618 0.1045 0.12694 0.0
O31 O 0.329 0.1852 0.11873 0.0
H32 H 0.51281 0.30116 0.14514 0.0
H33 H 0.57982 0.38372 0.15579 0.0
H34 H 0.52543 0.43686 0.07479 0.0
H35 H 0.45946 0.35509 0.06398 0.0
H36 H 0.21649 0.94517 0.07301 0.0
H37 H 0.1285 0.89643 0.06969 0.0
H38 H 0.11756 0.92407 0.17873 0.0
H39 H 0.20538 0.97318 0.1823 0.0
Tb40 Tb 0.79643 0.72395 0.38083 0.0
Tb41 Tb 0.84214 0.66937 0.40753 0.0
C42 C 0.77437 0.78904 0.37822 0.0
C43 C 0.80186 0.84247 0.38116 0.0
C44 C 0.83332 0.86563 0.40936 0.0
C45 C 0.85711 0.91579 0.41274 0.0
C46 C 0.84989 0.944 0.38808 0.0
C47 C 0.81937 0.9211 0.35951 0.0
C48 C 0.79562 0.87089 0.3561 0.0
C49 C 0.81469 0.68062 0.32953 0.0
C50 C 0.91262 0.77631 0.39209 0.0
C51 C 0.87669 0.61435 0.41795 0.0
C52 C 0.87765 0.56949 0.4083 0.0
C53 C 0.90217 0.56727 0.37834 0.0
C54 C 0.90885 0.52769 0.37213 0.0
C55 C 0.88911 0.48701 0.3946 0.0
C56 C 0.86896 0.49257 0.42633 0.0
C57 C 0.86218 0.53191 0.43251 0.0
C58 C 0.81519 0.71385 0.45578 0.0
C59 C 0.73176 0.61161 0.38928 0.0
O60 O 0.77121 0.76476 0.40656 0.0
O61 O 0.78201 0.77007 0.35033 0.0
O62 O 0.84136 0.69991 0.35642 0.0
O63 O 0.7775 0.68648 0.33156 0.0
O64 O 0.87403 0.78032 0.38567 0.0
O65 O 0.90865 0.73495 0.40035 0.0
O66 O 0.89355 0.64951 0.39529 0.0
O67 O 0.84028 0.61149 0.43566 0.0
O68 O 0.79429 0.69153 0.42865 0.0
O69 O 0.85257 0.70853 0.4587 0.0
O70 O 0.77301 0.61172 0.38865 0.0
O71 O 0.73115 0.65287 0.38984 0.0
H72 H 0.83897 0.84496 0.42918 0.0
H73 H 0.88029 0.93254 0.43507 0.0
H74 H 0.81306 0.94205 0.34027 0.0
H75 H 0.77165 0.85415 0.33415 0.0
H76 H 0.91818 0.59718 0.36022 0.0
H77 H 0.93181 0.53125 0.35038 0.0
H78 H 0.85962 0.46755 0.44773 0.0
H79 H 0.84655 0.53383 0.45723 0.0
Tb80 Tb 0.88246 0.2262 0.10971 0.0
Tb81 Tb 0.98075 0.26483 0.13921 0.0
C82 C 0.79464 0.19298 0.09286 0.0
C83 C 0.7448 0.18497 0.09823 0.0
C84 C 0.73059 0.20052 0.12791 0.0
C85 C 0.68242 0.19012 0.13193 0.0
C86 C 0.64686 0.16618 0.10549 0.0
C87 C 0.66104 0.14554 0.07838 0.0
C88 C 0.70894 0.15608 0.07421 0.0
C89 C 0.95737 0.25856 0.0619 0.0
C90 C 0.93418 0.33329 0.13486 0.0
C91 C 0.06969 0.2941 0.14395 0.0
C92 C 0.09866 0.27042 0.15069 0.0
C93 C 0.07717 0.22012 0.14851 0.0
C94 C 0.1053 0.198 0.14636 0.0
C95 C 0.15571 0.22562 0.14659 0.0
C96 C 0.17733 0.27574 0.15036 0.0
C97 C 0.14908 0.29792 0.15217 0.0
C98 C 0.91276 0.21855 0.18789 0.0
C99 C 0.91681 0.15377 0.12278 0.0
O100 O 0.81001 0.17153 0.11389 0.0
O101 O 0.82964 0.23471 0.08232 0.0
O102 O 0.95484 0.27471 0.09116 0.0
O103 O 0.9147 0.22154 0.05826 0.0
O104 O 0.8927 0.29409 0.12846 0.0
O105 O 0.97489 0.33173 0.13936 0.0
O106 O 0.04468 0.2792 0.11518 0.0
O107 O 0.04463 0.2984 0.16962 0.0
O108 O 0.91124 0.24412 0.16299 0.0
O109 O 0.95375 0.22039 0.18567 0.0
O110 O 0.96061 0.19157 0.12113 0.0
O111 O 0.87934 0.15965 0.12387 0.0
H112 H 0.7564 0.21981 0.14841 0.0
H113 H 0.67363 0.19994 0.15671 0.0
H114 H 0.63537 0.11971 0.06036 0.0
H115 H 0.71772 0.14034 0.05232 0.0
H116 H 0.03863 0.19803 0.14646 0.0
H117 H 0.08773 0.15938 0.14337 0.0
H118 H 0.21614 0.29785 0.15047 0.0
H119 H 0.16672 0.33673 0.15302 0.0
Tb120 Tb 0.33207 0.08285 0.38284 0.0
Tb121 Tb 0.39599 0.18214 0.408 0.0
C122 C 0.2735 0.99404 0.38055 0.0
C123 C 0.21974 0.96607 0.38122 0.0
C124 C 0.19501 0.94155 0.41181 0.0
C125 C 0.14452 0.9152 0.41271 0.0
C126 C 0.11757 0.91267 0.38304 0.0
C127 C 0.14203 0.93764 0.35265 0.0
C128 C 0.19247 0.96399 0.35171 0.0
C129 C 0.36584 0.14474 0.33017 0.0
C130 C 0.28722 0.15065 0.39066 0.0
C131 C 0.4422 0.2728 0.41632 0.0
C132 C 0.4869 0.32045 0.41123 0.0
C133 C 0.51223 0.33462 0.3792 0.0
C134 C 0.55098 0.38185 0.37449 0.0
C135 C 0.56495 0.41619 0.4015 0.0
C136 C 0.53967 0.40177 0.43344 0.0
C137 C 0.50136 0.35469 0.43821 0.0
C138 C 0.35385 0.11233 0.45805 0.0
C139 C 0.4477 0.12469 0.39286 0.0
O140 O 0.29462 1.01679 0.40936 0.0
O141 O 0.29422 1.02011 0.35272 0.0
O142 O 0.38942 0.1464 0.35767 0.0
O143 O 0.32346 0.10725 0.3324 0.0
O144 O 0.27779 0.10572 0.38719 0.0
O145 O 0.33098 0.18572 0.39761 0.0
O146 O 0.41596 0.25096 0.38892 0.0
O147 O 0.44179 0.24239 0.43929 0.0
O148 O 0.3367 0.11783 0.42997 0.0
O149 O 0.39587 0.15065 0.46033 0.0
O150 O 0.45309 0.16797 0.39543 0.0
O151 O 0.40358 0.08586 0.38995 0.0
H152 H 0.21476 0.94247 0.43504 0.0
H153 H 0.12648 0.89597 0.43637 0.0
H154 H 0.12202 0.93593 0.32938 0.0
H155 H 0.21002 0.98244 0.32772 0.0
H156 H 0.50176 0.30941 0.35769 0.0
H157 H 0.56995 0.39169 0.34968 0.0
H158 H 0.54962 0.42714 0.45481 0.0
H159 H 0.48223 0.34526 0.46298 0.0
Tb160 Tb 0.83174 0.66409 0.10387 0.0
Tb161 Tb 0.79548 0.72439 0.13284 0.0
C162 C 0.86336 0.60676 0.09252 0.0
C163 C 0.86766 0.56402 0.10278 0.0
C164 C 0.88028 0.55765 0.13679 0.0
C165 C 0.89086 0.52085 0.1443 0.0
C166 C 0.88676 0.48691 0.11858 0.0
C167 C 0.87911 0.49775 0.08388 0.0
C168 C 0.86829 0.53409 0.07642 0.0
C169 C 0.79695 0.70238 0.05543 0.0
C170 C 0.72487 0.61148 0.12991 0.0
C171 C 0.77968 0.7941 0.13471 0.0
C172 C 0.8079 0.84772 0.13572 0.0
C173 C 0.84381 0.87402 0.11051 0.0
C174 C 0.86581 0.92419 0.10861 0.0
C175 C 0.85242 0.94941 0.13178 0.0
C176 C 0.81773 0.92357 0.15768 0.0
C177 C 0.79563 0.87324 0.15958 0.0
C178 C 0.81518 0.6821 0.18344 0.0
C179 C 0.90949 0.77009 0.11464 0.0
O180 O 0.88427 0.6448 0.11239 0.0
O181 O 0.82365 0.60134 0.07864 0.0
O182 O 0.78161 0.6859 0.08551 0.0
O183 O 0.83344 0.69584 0.05119 0.0
O184 O 0.76442 0.60887 0.12671 0.0
O185 O 0.72694 0.65408 0.12998 0.0
O186 O 0.78424 0.77438 0.10619 0.0
O187 O 0.77844 0.76983 0.16263 0.0
O188 O 0.8398 0.69848 0.15508 0.0
O189 O 0.7802 0.69148 0.18358 0.0
O190 O 0.87434 0.7761 0.1275 0.0
O191 O 0.90065 0.7286 0.10214 0.0
H192 H 0.88393 0.58236 0.15744 0.0
H193 H 0.90456 0.52165 0.17011 0.0
H194 H 0.88294 0.47944 0.06149 0.0
H195 H 0.86253 0.54021 0.04941 0.0
H196 H 0.85387 0.85576 0.09139 0.0
H197 H 0.89239 0.94327 0.08841 0.0
H198 H 0.80678 0.94225 0.17582 0.0
H199 H 0.76785 0.85412 0.17902 0.0
Tb200 Tb 0.9769 0.25986 0.38467 0.0
Tb201 Tb 0.87665 0.21665 0.41288 0.0
C202 C 0.06631 0.29226 0.38116 0.0
C203 C 0.09507 0.26739 0.37857 0.0
C204 C 0.07907 0.22266 0.39508 0.0
C205 C 0.10784 0.20118 0.39569 0.0
C206 C 0.15345 0.22377 0.37985 0.0
C207 C 0.16918 0.26787 0.3626 0.0
C208 C 0.1403 0.28948 0.36201 0.0
C209 C 0.91063 0.21389 0.33515 0.0
C210 C 0.91467 0.14772 0.39896 0.0
C211 C 0.78794 0.1827 0.42737 0.0
C212 C 0.74009 0.17763 0.41789 0.0
C213 C 0.7171 0.15732 0.38581 0.0
C214 C 0.66917 0.14589 0.37969 0.0
C215 C 0.64265 0.15419 0.40547 0.0
C216 C 0.6658 0.17517 0.43724 0.0
C217 C 0.7137 0.18663 0.44335 0.0
C218 C 0.95002 0.24461 0.46021 0.0
C219 C 0.92678 0.32497 0.38896 0.0
O220 O 0.04244 0.2848 0.4105 0.0
O221 O 0.04057 0.29074 0.35399 0.0
O222 O 0.90774 0.23832 0.36037 0.0
O223 O 0.95187 0.21619 0.33768 0.0
O224 O 0.95797 0.18633 0.40157 0.0
O225 O 0.87641 0.15224 0.39682 0.0
O226 O 0.80502 0.16169 0.40727 0.0
O227 O 0.82232 0.22316 0.44026 0.0
O228 O 0.94773 0.2641 0.43264 0.0
O229 O 0.90751 0.20738 0.46373 0.0
O230 O 0.88602 0.28462 0.39485 0.0
O231 O 0.96842 0.32512 0.3847 0.0
H232 H 0.04478 0.20474 0.40847 0.0
H233 H 0.09491 0.16732 0.40924 0.0
H234 H 0.20429 0.28608 0.35028 0.0
H235 H 0.1538 0.32399 0.34933 0.0
H236 H 0.73572 0.14914 0.36566 0.0
H237 H 0.65253 0.12998 0.3549 0.0
H238 H 0.64655 0.18223 0.45757 0.0
H239 H 0.72972 0.20135 0.46855 0.0
Tb240 Tb 0.0954 0.32243 0.62815 0.0
Tb241 Tb 0.19445 0.37719 0.60029 0.0
C242 C 1.00903 0.25533 0.63056 0.0
C243 C 0.98422 0.20163 0.62984 0.0
C244 C 0.96336 0.17657 0.59856 0.0
C245 C 0.93741 0.12617 0.59787 0.0
C246 C 0.93145 0.09947 0.62844 0.0
C247 C 0.95336 0.12423 0.65951 0.0
C248 C 0.97936 0.1747 0.66023 0.0
C249 C 0.15789 0.36468 0.67923 0.0
C250 C 0.15914 0.27015 0.61608 0.0
C251 C 0.28419 0.4311 0.58963 0.0
C252 C 0.33194 0.47575 0.5947 0.0
C253 C 0.34659 0.49998 0.62705 0.0
C254 C 0.39428 0.53794 0.63193 0.0
C255 C 0.4287 0.55209 0.6048 0.0
C256 C 0.41373 0.52787 0.57254 0.0
C257 C 0.36619 0.49049 0.56758 0.0
C258 C 0.12276 0.33206 0.55269 0.0
C259 C 0.14031 0.43451 0.61993 0.0
O260 O 1.03096 0.2775 0.60173 0.0
O261 O 1.03401 0.27763 0.65842 0.0
O262 O 0.16466 0.34592 0.65165 0.0
O263 O 0.11492 0.35918 0.67773 0.0
O264 O 0.11744 0.26668 0.62494 0.0
O265 O 0.19537 0.31105 0.60529 0.0
O266 O 0.26543 0.40175 0.61614 0.0
O267 O 0.25123 0.43067 0.5692 0.0
O268 O 0.12407 0.35494 0.57967 0.0
O269 O 0.16516 0.3365 0.54993 0.0
O270 O 0.18196 0.43558 0.61668 0.0
O271 O 0.09903 0.39276 0.62192 0.0
H272 H 0.96621 0.19596 0.57466 0.0
H273 H 0.92066 0.10801 0.57366 0.0
H274 H 0.94903 0.10446 0.68348 0.0
H275 H 0.9948 0.19254 0.6848 0.0
H276 H 0.32144 0.48914 0.64871 0.0
H277 H 0.40441 0.55609 0.65698 0.0
H278 H 0.43906 0.53795 0.55104 0.0
H279 H 0.35646 0.47211 0.54259 0.0
Tb280 Tb 0.2377 0.87175 0.90671 0.0
Tb281 Tb 0.28333 0.97228 0.8807 0.0
C282 C 0.20173 0.78203 0.91776 0.0
C283 C 0.1963 0.73343 0.9115 0.0
C284 C 0.21112 0.72089 0.88038 0.0
C285 C 0.20059 0.67306 0.87449 0.0
C286 C 0.17427 0.63643 0.89927 0.0
C287 C 0.15949 0.64933 0.93019 0.0
C288 C 0.1705 0.69693 0.93622 0.0
C289 C 0.2663 0.94276 0.95617 0.0
C290 C 0.34749 0.92322 0.88759 0.0
C291 C 0.3063 0.0601 0.88006 0.0
C292 C 0.28035 0.08782 0.88026 0.0
C293 C 0.23354 0.06815 0.89403 0.0
C294 C 0.21045 0.09548 0.89595 0.0
C295 C 0.23393 0.14351 0.88453 0.0
C296 C 0.2806 0.16307 0.87045 0.0
C297 C 0.30349 0.13554 0.86832 0.0
C298 C 0.26545 0.91202 0.82835 0.0
C299 C 0.16658 0.90741 0.89003 0.0
O300 O 0.18753 0.80053 0.89335 0.0
O301 O 0.2381 0.81516 0.93549 0.0
O302 O 0.28644 0.94168 0.92827 0.0
O303 O 0.22838 0.90031 0.95848 0.0
O304 O 0.30628 0.88228 0.88732 0.0
O305 O 0.34832 0.96525 0.88885 0.0
O306 O 0.30226 0.03563 0.90845 0.0
O307 O 0.3033 0.03566 0.85181 0.0
O308 O 0.23873 0.90394 0.85557 0.0
O309 O 0.30221 0.95525 0.83067 0.0
O310 O 0.20515 0.94993 0.88342 0.0
O311 O 0.17074 0.87051 0.89954 0.0
H312 H 0.2304 0.74788 0.86051 0.0
H313 H 0.21284 0.66459 0.8505 0.0
H314 H 0.13938 0.62236 0.94988 0.0
H315 H 0.15784 0.70508 0.96017 0.0
H316 H 0.21514 0.03185 0.90379 0.0
H317 H 0.17449 0.07936 0.90682 0.0
H318 H 0.29953 0.19992 0.86137 0.0
H319 H 0.33964 0.15182 0.85779 0.0
Tb320 Tb 0.74091 0.77853 0.62263 0.0
Tb321 Tb 0.68451 0.82743 0.59601 0.0
C322 C 0.80534 0.75616 0.61528 0.0
C323 C 0.85913 0.78397 0.6173 0.0
C324 C 0.88634 0.81983 0.5923 0.0
C325 C 0.93668 0.84398 0.59257 0.0
C326 C 0.96142 0.83285 0.61766 0.0
C327 C 0.9347 0.79781 0.64311 0.0
C328 C 0.88406 0.7736 0.64293 0.0
C329 C 0.71354 0.80712 0.67823 0.0
C330 C 0.79115 0.89529 0.61665 0.0
C331 C 0.63088 0.86288 0.58461 0.0
C332 C 0.58739 0.86711 0.59168 0.0
C333 C 0.56507 0.85823 0.6248 0.0
C334 C 0.52739 0.868 0.63105 0.0
C335 C 0.5118 0.8875 0.60447 0.0
C336 C 0.53426 0.89618 0.57149 0.0
C337 C 0.57132 0.88598 0.5652 0.0
C338 C 0.72942 0.80067 0.54819 0.0
C339 C 0.62659 0.71638 0.61587 0.0
O340 O 0.78651 0.76784 0.58954 0.0
O341 O 0.78027 0.74786 0.64429 0.0
O342 O 0.70492 0.81263 0.64634 0.0
O343 O 0.73556 0.78255 0.67887 0.0
O344 O 0.79592 0.85671 0.62094 0.0
O345 O 0.75001 0.89185 0.60808 0.0
O346 O 0.66445 0.87845 0.60855 0.0
O347 O 0.62719 0.82587 0.56737 0.0
O348 O 0.70762 0.78025 0.57578 0.0
O349 O 0.72395 0.83786 0.54493 0.0
O350 O 0.62685 0.75775 0.61409 0.0
O351 O 0.66753 0.71462 0.61719 0.0
H352 H 0.86886 0.82872 0.57188 0.0
H353 H 0.95639 0.87051 0.5725 0.0
H354 H 0.95302 0.7883 0.66254 0.0
H355 H 0.86439 0.74607 0.66237 0.0
H356 H 0.57708 0.84431 0.6459 0.0
H357 H 0.5105 0.86051 0.65663 0.0
H358 H 0.52294 0.91084 0.55045 0.0
H359 H 0.58826 0.89389 0.5396 0.0
Tb360 Tb 0.19091 0.38319 0.90592 0.0
Tb361 Tb 0.09507 0.32614 0.87803 0.0
C362 C 0.27994 0.43978 0.91745 0.0
C363 C 0.32688 0.48366 0.90859 0.0
C364 C 0.34375 0.49644 0.87405 0.0
C365 C 0.3909 0.5343 0.86708 0.0
C366 C 0.42264 0.56291 0.89427 0.0
C367 C 0.40624 0.54554 0.92872 0.0
C368 C 0.35926 0.50819 0.93569 0.0
C369 C 0.11802 0.34531 0.95507 0.0
C370 C 0.1392 0.43896 0.88282 0.0
C371 C 1.00999 0.2557 0.87875 0.0
C372 C 0.98354 0.20219 0.87587 0.0
C373 C 0.9717 0.17449 0.9068 0.0
C374 C 0.94343 0.12447 0.90583 0.0
C375 C 0.92575 0.10048 0.87399 0.0
C376 C 0.93822 0.12761 0.84282 0.0
C377 C 0.96679 0.17805 0.84374 0.0
C378 C 0.15529 0.36618 0.82611 0.0
C379 C 0.16136 0.27759 0.89438 0.0
O380 O 0.26285 0.4039 0.89548 0.0
O381 O 0.24564 0.44357 0.93313 0.0
O382 O 0.11973 0.3635 0.92561 0.0
O383 O 0.16026 0.34955 0.95834 0.0
O384 O 0.18064 0.43977 0.88367 0.0
O385 O 0.09804 0.39691 0.88385 0.0
O386 O 0.03828 0.27236 0.90578 0.0
O387 O 1.02921 0.28286 0.85099 0.0
O388 O 0.16405 0.34961 0.85421 0.0
O389 O 0.11193 0.3597 0.8277 0.0
O390 O 0.12168 0.27374 0.88056 0.0
O391 O 0.19425 0.31812 0.90784 0.0
H392 H 0.32115 0.47598 0.85233 0.0
H393 H 0.40221 0.53871 0.8401 0.0
H394 H 0.42982 0.5591 0.95103 0.0
H395 H 0.34894 0.49695 0.9626 0.0
H396 H 0.98326 0.19161 0.93213 0.0
H397 H 0.93396 0.1045 0.93019 0.0
H398 H 0.92458 0.10983 0.81793 0.0
H399 H 0.97475 0.1981 0.8195 0.0
Tb400 Tb 0.28224 0.96629 0.62671 0.0
Tb401 Tb 0.23914 0.86739 0.60132 0.0
C402 C 0.30269 0.05288 0.63105 0.0
C403 C 0.27436 0.07833 0.62959 0.0
C404 C 0.2684 0.09685 0.59771 0.0
C405 C 0.24433 0.12325 0.59663 0.0
C406 C 0.22572 0.13192 0.62737 0.0
C407 C 0.23052 0.11253 0.65908 0.0
C408 C 0.25458 0.08614 0.6602 0.0
C409 C 0.26425 0.90652 0.67966 0.0
C410 C 0.16716 0.90252 0.61257 0.0
C411 C 0.20661 0.77826 0.58883 0.0
C412 C 0.20274 0.73092 0.5983 0.0
C413 C 0.17985 0.70617 0.6294 0.0
C414 C 0.16869 0.65826 0.63495 0.0
C415 C 0.17987 0.63347 0.60957 0.0
C416 C 0.2038 0.65851 0.57894 0.0
C417 C 0.21496 0.70638 0.57339 0.0
C418 C 0.26841 0.93856 0.5518 0.0
C419 C 0.34807 0.91992 0.62047 0.0
O420 O 0.30602 0.03296 0.60209 0.0
O421 O 0.29638 0.02566 0.65828 0.0
O422 O 0.23734 0.89801 0.65261 0.0
O423 O 0.30158 0.94903 0.67631 0.0
O424 O 0.20588 0.94584 0.61538 0.0
O425 O 0.17169 0.86438 0.61018 0.0
O426 O 0.18617 0.79533 0.60933 0.0
O427 O 0.24589 0.81272 0.57469 0.0
O428 O 0.28832 0.93716 0.57944 0.0
O429 O 0.23005 0.89658 0.54967 0.0
O430 O 0.30697 0.87902 0.6229 0.0
O431 O 0.34811 0.96135 0.61758 0.0
H432 H 0.28318 0.09178 0.5736 0.0
H433 H 0.24142 0.13811 0.57191 0.0
H434 H 0.2168 0.11901 0.68318 0.0
H435 H 0.25848 0.07267 0.68524 0.0
H436 H 0.1691 0.72325 0.64908 0.0
H437 H 0.15029 0.64012 0.65881 0.0
H438 H 0.21295 0.64058 0.55887 0.0
H439 H 0.23169 0.7237 0.54888 0.0
Tb440 Tb 0.67834 0.81941 0.90248 0.0
Tb441 Tb 0.73658 0.78274 0.87206 0.0
C442 C 0.61979 0.84876 0.91758 0.0
C443 C 0.58086 0.85877 0.9059 0.0
C444 C 0.5924 0.90651 0.89905 0.0
C445 C 0.55634 0.91859 0.89379 0.0
C446 C 0.50739 0.88335 0.89511 0.0
C447 C 0.49565 0.83533 0.90087 0.0
C448 C 0.53181 0.82323 0.90638 0.0
C449 C 0.71602 0.7826 0.94993 0.0
C450 C 0.6241 0.71458 0.87454 0.0
C451 C 0.80754 0.76894 0.87365 0.0
C452 C 0.86116 0.79589 0.87171 0.0
C453 C 0.88695 0.7982 0.90211 0.0
C454 C 0.93721 0.82187 0.90208 0.0
C455 C 0.96337 0.84398 0.87161 0.0
C456 C 0.93798 0.84276 0.84117 0.0
C457 C 0.88725 0.81883 0.84118 0.0
C458 C 0.69593 0.80423 0.82142 0.0
C459 C 0.78377 0.89669 0.88776 0.0
O460 O 0.66277 0.87551 0.90459 0.0
O461 O 0.61065 0.80478 0.92301 0.0
O462 O 0.69876 0.76798 0.91999 0.0
O463 O 0.71015 0.81923 0.95475 0.0
O464 O 0.62351 0.75518 0.87638 0.0
O465 O 0.66582 0.71491 0.8761 0.0
O466 O 0.79012 0.78011 0.90063 0.0
O467 O 0.78127 0.76148 0.84548 0.0
O468 O 0.7114 0.82816 0.85023 0.0
O469 O 0.7052 0.76912 0.82103 0.0
O470 O 0.78797 0.86132 0.87359 0.0
O471 O 0.74348 0.88813 0.90265 0.0
H472 H 0.62956 0.93514 0.89914 0.0
H473 H 0.56669 0.95587 0.88977 0.0
H474 H 0.45829 0.80733 0.90232 0.0
H475 H 0.52123 0.78627 0.91215 0.0
H476 H 0.86806 0.78119 0.92612 0.0
H477 H 0.95576 0.82212 0.92581 0.0
H478 H 0.95741 0.85948 0.81727 0.0
H479 H 0.86861 0.81798 0.81737 0.0
C480 C 0.20508 0.20344 0.10693 0.0
C481 C 0.18577 0.20231 0.14075 0.0
C482 C 0.22762 0.16157 0.16412 0.0
C483 C 0.2464 0.16197 0.1302 0.0
N484 N 0.24709 0.17624 0.06829 0.0
N485 N 0.17204 0.17365 0.20025 0.0
C486 C 0.2333 0.18088 0.10132 0.0
C487 C 0.19489 0.17911 0.16888 0.0
N488 N 0.1971 0.22694 0.08024 0.0
N489 N 0.24311 0.14686 0.19224 0.0
H490 H 0.14987 0.18806 0.20532 0.0
H491 H 0.17233 0.1522 0.22054 0.0
H492 H 0.26541 0.13226 0.18975 0.0
H493 H 0.23637 0.15168 0.21818 0.0
H494 H 0.21454 0.2344 0.05613 0.0
H495 H 0.17457 0.24147 0.08272 0.0
H496 H 0.23492 0.1844 0.04553 0.0
H497 H 0.26815 0.16057 0.06335 0.0
C498 C 1.03348 0.89464 0.39998 0.0
C499 C 0.06396 0.88066 0.38281 0.0
C500 C 0.99277 0.8066 0.3632 0.0
C501 C 0.96278 0.81657 0.38496 0.0
N502 N 0.95435 0.87079 0.42399 0.0
N503 N 0.07278 0.82039 0.35138 0.0
C504 C 0.98297 0.86115 0.40302 0.0
C505 C 0.04359 0.83598 0.36512 0.0
N506 N 0.05278 0.94024 0.41281 0.0
N507 N 0.97247 0.76953 0.3398 0.0
H508 H 0.11021 0.84056 0.35218 0.0
H509 H 0.05992 0.78569 0.34196 0.0
H510 H 0.9354 0.74795 0.33686 0.0
H511 H 0.99211 0.76351 0.32071 0.0
H512 H 1.03231 0.95458 0.42252 0.0
H513 H 0.08945 0.9652 0.41129 0.0
H514 H 0.96739 0.8996 0.44129 0.0
H515 H 0.91724 0.84857 0.42509 0.0
C516 C 0.92437 0.08499 0.14949 0.0
C517 C 0.9078 0.10315 0.12212 0.0
C518 C 0.85525 1.02047 0.10106 0.0
C519 C 0.87289 1.00257 0.1277 0.0
N520 N 0.93148 1.01834 0.17251 0.0
N521 N 0.86708 0.08909 0.06681 0.0
C522 C 0.90977 0.03509 0.1504 0.0
C523 C 0.87613 0.07104 0.09638 0.0
N524 N 0.95194 0.1147 0.17575 0.0
N525 N 0.81724 0.98913 0.08096 0.0
H526 H 0.88288 0.12584 0.06207 0.0
H527 H 0.84818 0.06803 0.04543 0.0
H528 H 0.80122 0.95194 0.08327 0.0
H529 H 0.79907 0.99985 0.06396 0.0
H530 H 0.95975 0.10259 0.19874 0.0
H531 H 0.96453 0.15135 0.17569 0.0
H532 H 0.96216 0.04066 0.18693 0.0
H533 H 0.92125 0.98209 0.17421 0.0
C534 C 0.22384 0.15948 0.35667 0.0
C535 C 0.24806 0.16332 0.38873 0.0
C536 C 0.21137 0.20803 0.41445 0.0
C537 C 0.18552 0.20225 0.38297 0.0
N538 N 0.16041 0.16526 0.32631 0.0
N539 N 0.25751 0.18309 0.45015 0.0
C540 C 0.18973 0.17572 0.35476 0.0
C541 C 0.23956 0.18521 0.4182 0.0
N542 N 0.23518 0.14263 0.32745 0.0
N543 N 0.21037 0.23684 0.44041 0.0
H544 H 0.27825 0.16682 0.45395 0.0
H545 H 0.24838 0.19346 0.47344 0.0
H546 H 0.18982 0.25365 0.43892 0.0
H547 H 0.23269 0.2472 0.46224 0.0
H548 H 0.22364 0.14459 0.30237 0.0
H549 H 0.25903 0.12964 0.32784 0.0
H550 H 0.15772 0.14169 0.30657 0.0
H551 H 0.13579 0.17725 0.32376 0.0
C552 C 1.03161 0.88765 0.10715 0.0
C553 C 0.06266 0.87322 0.12266 0.0
C554 C 0.99214 0.79557 0.13823 0.0
C555 C 0.9615 0.8077 0.11927 0.0
N556 N 0.95316 0.86334 0.08195 0.0
N557 N 0.073 0.81044 0.14813 0.0
C558 C 0.98148 0.85345 0.10294 0.0
C559 C 0.04299 0.82638 0.13694 0.0
N560 N 0.04995 0.9343 0.09694 0.0
N561 N 0.97262 0.75514 0.15858 0.0
H562 H 0.11037 0.83175 0.14791 0.0
H563 H 0.0611 0.77482 0.15475 0.0
H564 H 0.93577 0.73151 0.16067 0.0
H565 H 0.99258 0.74741 0.17614 0.0
H566 H 1.02872 0.94856 0.08886 0.0
H567 H 0.08635 0.95985 0.09918 0.0
H568 H 0.9663 0.89397 0.06642 0.0
H569 H 0.91685 0.83887 0.07786 0.0
C570 C 0.8514 1.01426 0.41888 0.0
C571 C 0.87146 0.99709 0.39345 0.0
C572 C 0.92648 0.08042 0.37433 0.0
C573 C 0.90672 0.09754 0.40021 0.0
N574 N 0.8607 0.0815 0.45346 0.0
N575 N 0.93471 1.01388 0.35213 0.0
C576 C 0.87238 0.06457 0.42443 0.0
C577 C 0.91116 0.03028 0.3728 0.0
N578 N 0.81082 0.98258 0.43676 0.0
N579 N 0.95806 0.11147 0.35009 0.0
H580 H 0.92415 0.97755 0.35025 0.0
H581 H 0.96687 0.03633 0.33919 0.0
H582 H 0.97162 0.14836 0.35104 0.0
H583 H 0.96883 0.10046 0.32789 0.0
H584 H 0.7912 0.99316 0.45249 0.0
H585 H 0.79427 0.94546 0.4337 0.0
H586 H 0.83977 0.05961 0.47396 0.0
H587 H 0.87635 0.11799 0.45886 0.0
C588 C 0.23355 0.21252 0.63977 0.0
C589 C 0.20535 0.16503 0.62697 0.0
C590 C 0.14128 0.18289 0.61094 0.0
C591 C 0.16992 0.23053 0.62387 0.0
N592 N 0.2344 0.28316 0.66237 0.0
N593 N 0.12882 0.10175 0.6067 0.0
C594 C 0.21337 0.24298 0.64184 0.0
C595 C 0.15804 0.14922 0.61444 0.0
N596 N 0.28047 0.2294 0.64885 0.0
N597 N 0.09874 0.17003 0.59469 0.0
H598 H 0.1402 0.07661 0.60867 0.0
H599 H 0.09244 0.08649 0.60086 0.0
H600 H 0.08337 0.19182 0.59446 0.0
H601 H 0.0792 0.13836 0.5806 0.0
H602 H 0.30428 0.2654 0.6544 0.0
H603 H 0.29694 0.20851 0.64781 0.0
H604 H 0.26341 0.29157 0.6788 0.0
H605 H 0.21932 0.30496 0.66632 0.0
C606 C 0.09533 0.92113 0.8987 0.0
C607 C 0.11675 0.89739 0.88126 0.0
C608 C 0.03809 0.84061 0.85537 0.0
C609 C 1.01707 0.86538 0.87172 0.0
N610 N 1.02775 0.93526 0.90266 0.0
N611 N 0.11066 0.84243 0.83567 0.0
C612 C 0.04649 0.9077 0.89133 0.0
C613 C 0.08874 0.85967 0.85728 0.0
N614 N 0.12056 0.95445 0.92383 0.0
N615 N 1.00946 0.79732 0.83957 0.0
H616 H 0.1475 0.85512 0.836 0.0
H617 H 0.09312 0.81899 0.81501 0.0
H618 H 0.97228 0.78188 0.83743 0.0
H619 H 1.02203 0.77474 0.83117 0.0
H620 H 0.1055 0.96935 0.94022 0.0
H621 H 0.15581 0.9644 0.93017 0.0
H622 H 0.04832 0.96889 0.91413 0.0
H623 H 0.99231 0.92638 0.89763 0.0
C624 C 0.82099 0.9759 0.64502 0.0
C625 C 0.83153 0.94537 0.62428 0.0
C626 C 0.9122 1.01485 0.61249 0.0
C627 C 0.89832 0.046 0.62858 0.0
N628 N 0.83646 0.0565 0.65605 0.0
N629 N 0.88706 0.93706 0.58618 0.0
C630 C 0.85202 0.02654 0.64394 0.0
C631 C 0.87742 0.96505 0.6078 0.0
N632 N 0.78157 0.95642 0.66653 0.0
N633 N 0.95886 0.03281 0.60212 0.0
H634 H 0.86318 0.90069 0.58248 0.0
H635 H 0.91734 0.95046 0.57014 0.0
H636 H 0.98484 0.06895 0.60493 0.0
H637 H 0.97275 1.01143 0.59355 0.0
H638 H 0.77515 0.9763 0.68512 0.0
H639 H 0.75783 0.91964 0.66853 0.0
H640 H 0.801 0.04453 0.66349 0.0
H641 H 0.85767 0.09381 0.65576 0.0
C642 C 0.18381 0.22514 0.85844 0.0
C643 C 0.1728 0.23773 0.89152 0.0
C644 C 0.20217 0.18868 0.92048 0.0
C645 C 0.21004 0.17359 0.88725 0.0
N646 N 0.1973 0.16883 0.82488 0.0
N647 N 0.16321 0.22439 0.95374 0.0
C648 C 0.19724 0.18907 0.85634 0.0
C649 C 0.17935 0.21714 0.92245 0.0
N650 N 0.18481 0.24995 0.82915 0.0
N651 N 0.21864 0.17791 0.95013 0.0
H652 H 0.14631 0.24483 0.95597 0.0
H653 H 0.16251 0.20671 0.97677 0.0
H654 H 0.2359 0.15775 0.94986 0.0
H655 H 0.21886 0.19226 0.97463 0.0
H656 H 0.19742 0.24591 0.80494 0.0
H657 H 0.17778 0.2782 0.82984 0.0
H658 H 0.18366 0.17507 0.802 0.0
H659 H 0.20658 0.14216 0.82234 0.0
C660 C 0.097 0.91184 0.63598 0.0
C661 C 0.11667 0.89438 0.61017 0.0
C662 C 1.03475 0.83781 0.58937 0.0
C663 C 1.01503 0.85491 0.61505 0.0
N664 N 1.0271 0.91467 0.65798 0.0
N665 N 0.10446 0.85297 0.55519 0.0
C666 C 0.04615 0.89396 0.63691 0.0
C667 C 0.08546 0.8611 0.58472 0.0
N668 N 0.12637 0.94427 0.66032 0.0
N669 N 1.00508 0.79804 0.57008 0.0
H670 H 0.14124 0.87083 0.55015 0.0
H671 H 0.08379 0.83305 0.53397 0.0
H672 H 0.96771 0.77995 0.57238 0.0
H673 H 1.01762 0.78049 0.55395 0.0
H674 H 0.11386 0.95286 0.68281 0.0
H675 H 0.16361 0.96207 0.65851 0.0
H676 H 0.04775 0.94641 0.67176 0.0
H677 H 0.99023 0.90195 0.65967 0.0
C678 C 0.84097 0.03107 0.869 0.0
C679 C 0.89051 0.04758 0.87423 0.0
C680 C 0.87085 0.96507 0.88926 0.0
C681 C 0.82158 0.94813 0.88162 0.0
N682 N 0.76302 0.96435 0.85435 0.0
N683 N 0.95386 0.02929 0.88304 0.0
C684 C 0.8076 0.98093 0.86862 0.0
C685 C 0.90582 1.01416 0.88237 0.0
N686 N 0.82517 0.06327 0.8658 0.0
N687 N 0.88405 0.9351 0.90472 0.0
H688 H 0.98016 0.06485 0.87822 0.0
H689 H 0.96747 1.00603 0.88525 0.0
H690 H 0.85961 0.89946 0.91095 0.0
H691 H 0.91849 0.94657 0.91418 0.0
H692 H 0.78888 0.05323 0.8663 0.0
H693 H 0.84809 0.10036 0.86589 0.0
H694 H 0.75315 0.98643 0.84115 0.0
H695 H 0.73762 0.92808 0.85194 0.0
C696 C 0.37889 0.19244 0.27465 0.0
C697 C 0.38631 0.15873 0.29371 0.0
C698 C 0.3958 0.12539 0.23783 0.0
C699 C 0.38513 0.15695 0.21878 0.0
N700 N 0.37741 0.22726 0.21813 0.0
N701 N 0.41289 0.10072 0.29354 0.0
C702 C 0.38081 0.19308 0.23704 0.0
C703 C 0.39916 0.12831 0.27522 0.0
N704 N 0.36728 0.22199 0.29267 0.0
N705 N 0.39864 0.08976 0.22035 0.0
H706 H 0.41302 0.09971 0.32075 0.0
H707 H 0.42791 0.08189 0.28202 0.0
H708 H 0.39794 0.08729 0.19313 0.0
H709 H 0.39937 0.06123 0.23257 0.0
H710 H 0.3559 0.24375 0.28093 0.0
H711 H 0.36779 0.22352 0.31999 0.0
H712 H 0.37728 0.25679 0.22914 0.0
H713 H 0.37854 0.22784 0.1908 0.0
C714 C 0.85887 0.72443 0.27437 0.0
C715 C 0.83321 0.68057 0.29334 0.0
C716 C 0.8121 0.63602 0.23751 0.0
C717 C 0.83482 0.67997 0.21864 0.0
N718 N 0.8926 0.76442 0.21902 0.0
N719 N 0.79667 0.59483 0.29377 0.0
C720 C 0.86301 0.7235 0.23715 0.0
C721 C 0.81397 0.63639 0.27503 0.0
N722 N 0.87573 0.76723 0.29141 0.0
N723 N 0.78656 0.59411 0.2194 0.0
H724 H 0.79811 0.59477 0.32109 0.0
H725 H 0.7849 0.56131 0.28251 0.0
H726 H 0.78711 0.59303 0.19209 0.0
H727 H 0.76413 0.56105 0.23112 0.0
H728 H 0.88866 0.80003 0.27866 0.0
H729 H 0.87422 0.76993 0.31845 0.0
H730 H 0.91779 0.79631 0.23091 0.0
H731 H 0.89538 0.7651 0.19188 0.0
C732 C 0.87997 0.16773 0.24155 0.0
C733 C 0.89029 0.21078 0.224 0.0
C734 C 0.8863 0.24467 0.28144 0.0
C735 C 0.88882 0.20697 0.29895 0.0
N736 N 0.88039 0.12851 0.29593 0.0
N737 N 0.89837 0.28949 0.22763 0.0
C738 C 0.8824 0.16686 0.27896 0.0
C739 C 0.8911 0.24872 0.24398 0.0
N740 N 0.86813 0.12768 0.22208 0.0
N741 N 0.87805 0.27585 0.30038 0.0
H742 H 0.89622 0.29195 0.20067 0.0
H743 H 0.90714 0.32114 0.24086 0.0
H744 H 0.86982 0.27092 0.32694 0.0
H745 H 0.87272 0.30233 0.2892 0.0
H746 H 0.85688 0.09392 0.23272 0.0
H747 H 0.86527 0.12754 0.19484 0.0
H748 H 0.88224 0.10075 0.28336 0.0
H749 H 0.87806 0.12527 0.32316 0.0
C750 C 0.14943 0.31777 0.73397 0.0
C751 C 0.17519 0.36159 0.71531 0.0
C752 C 0.20576 0.40373 0.77179 0.0
C753 C 0.17173 0.36182 0.79002 0.0
N754 N 0.10964 0.27834 0.78786 0.0
N755 N 0.2349 0.44492 0.71553 0.0
C756 C 0.14408 0.31836 0.77099 0.0
C757 C 0.20617 0.40412 0.73407 0.0
N758 N 0.12942 0.2754 0.71612 0.0
N759 N 0.23655 0.44326 0.79075 0.0
H760 H 0.23739 0.4445 0.68826 0.0
H761 H 0.2558 0.47865 0.72666 0.0
H762 H 0.23651 0.44299 0.8181 0.0
H763 H 0.26377 0.47488 0.77987 0.0
H764 H 0.11405 0.24195 0.72827 0.0
H765 H 0.13324 0.27399 0.6892 0.0
H766 H 0.08372 0.24784 0.77493 0.0
H767 H 0.10497 0.2765 0.81491 0.0
C768 C 0.264 0.86668 0.77346 0.0
C769 C 0.24731 0.89413 0.79178 0.0
C770 C 0.22668 0.91647 0.73514 0.0
C771 C 0.2462 0.89158 0.71669 0.0
N772 N 0.27283 0.83408 0.71783 0.0
N773 N 0.20194 0.93528 0.79024 0.0
C774 C 0.26102 0.86342 0.73587 0.0
C775 C 0.22455 0.91518 0.7726 0.0
N776 N 0.28478 0.84562 0.79208 0.0
N777 N 0.21373 0.94472 0.71686 0.0
H778 H 0.20171 0.93728 0.81738 0.0
H779 H 0.17992 0.94625 0.7783 0.0
H780 H 0.2135 0.94551 0.68965 0.0
H781 H 0.20581 0.96932 0.72835 0.0
H782 H 0.30273 0.82954 0.78077 0.0
H783 H 0.28503 0.84547 0.81942 0.0
H784 H 0.281 0.80989 0.72962 0.0
H785 H 0.2705 0.8313 0.69056 0.0
C786 C 0.65796 0.80147 0.72719 0.0
C787 C 0.70434 0.82572 0.71172 0.0
C788 C 0.73875 0.85791 0.76988 0.0
C789 C 0.69468 0.82459 0.7861 0.0
N790 N 0.61031 0.76876 0.78045 0.0
N791 N 0.78967 0.87818 0.71846 0.0
C792 C 0.65339 0.79842 0.76468 0.0
C793 C 0.74472 0.85535 0.73306 0.0
N794 N 0.61871 0.78015 0.70592 0.0
N795 N 0.77539 0.89126 0.78978 0.0
H796 H 0.79546 0.87809 0.6916 0.0
H797 H 0.82126 0.89489 0.73299 0.0
H798 H 0.77173 0.894 0.81651 0.0
H799 H 0.80697 0.91938 0.7794 0.0
H800 H 0.58339 0.76379 0.71491 0.0
H801 H 0.62205 0.7828 0.67873 0.0
H802 H 0.57951 0.74435 0.76705 0.0
H803 H 0.60605 0.76818 0.80759 0.0
C804 C 0.25723 0.99976 1.00033 0.0
C805 C 0.28679 0.98448 0.98305 0.0
C806 C 0.35839 0.05589 0.00894 0.0
C807 C 0.32895 0.06967 0.02853 0.0
N808 N 0.24785 0.05076 0.04293 0.0
N809 N 0.36539 0.99261 0.97978 0.0
C810 C 0.27773 0.04014 0.02433 0.0
C811 C 0.33725 1.01138 0.98967 0.0
N812 N 0.20938 0.97727 0.99246 0.0
N813 N 0.4072 0.08497 0.00815 0.0
H814 H 0.35164 0.95934 0.96778 0.0
H815 H 0.40108 1.00685 0.98744 0.0
H816 H 0.4264 0.11475 0.02396 0.0
H817 H 0.42904 0.08086 0.98986 0.0
H818 H 0.1866 0.9901 0.99978 0.0
H819 H 0.19266 0.9472 0.9764 0.0
H820 H 0.21128 0.02683 0.04633 0.0
H821 H 0.25951 0.08305 0.05595 0.0
C822 C 0.82289 0.78479 0.49281 0.0
C823 C 0.79511 0.73613 0.4815 0.0
C824 C 0.72382 0.73188 0.51091 0.0
C825 C 0.75139 0.78045 0.52228 0.0
N826 N 0.82529 0.8558 0.51796 0.0
N827 N 0.72165 0.66058 0.48742 0.0
C828 C 0.80042 0.80762 0.51141 0.0
C829 C 0.74616 0.70915 0.49249 0.0
N830 N 0.87135 0.80881 0.48699 0.0
N831 N 0.67513 0.70812 0.51574 0.0
H832 H 0.73725 0.64233 0.47587 0.0
H833 H 0.68792 0.63755 0.49806 0.0
H834 H 0.65737 0.72417 0.52737 0.0
H835 H 0.6517 0.67479 0.50486 0.0
H836 H 0.89496 0.84222 0.49766 0.0
H837 H 0.88879 0.79358 0.47367 0.0
H838 H 0.85914 0.87916 0.50766 0.0
H839 H 0.81045 0.87335 0.53164 0.0
C840 C 0.0855 0.33277 0.01972 0.0
C841 C 0.07699 0.32848 0.98285 0.0
C842 C 0.98971 0.27896 0.99707 0.0
C843 C 0.99786 0.28492 0.03402 0.0
N844 N 0.05436 0.34782 0.07259 0.0
N845 N 1.01589 0.32575 0.94426 0.0
C846 C 0.04608 0.32021 0.04355 0.0
C847 C 1.02762 0.30948 0.97333 0.0
N848 N 0.13095 0.35266 0.03273 0.0
N849 N 0.94574 0.24738 0.98366 0.0
H850 H 0.04155 0.35383 0.92936 0.0
H851 H 0.98043 0.31563 0.93804 0.0
H852 H 0.91541 0.22612 0.99866 0.0
H853 H 0.94066 0.24092 0.95677 0.0
H854 H 0.13726 0.35251 0.05953 0.0
H855 H 0.16175 0.36787 0.01727 0.0
H856 H 0.08835 0.37634 0.07878 0.0
H857 H 1.0268 0.34682 0.08745 0.0
C858 C 0.2806 0.04078 0.48906 0.0
C859 C 0.33146 0.06758 0.48229 0.0
C860 C 0.3384 1.00516 0.51664 0.0
C861 C 0.28872 0.98107 0.52593 0.0
N862 N 0.21447 0.98224 0.52518 0.0
N863 N 0.40936 0.07682 0.49636 0.0
C864 C 0.26033 1.00037 0.51292 0.0
C865 C 0.36037 0.05038 0.49828 0.0
N866 N 0.25098 0.05406 0.47321 0.0
N867 N 0.36463 0.98324 0.52336 0.0
H868 H 0.42831 0.10675 0.48053 0.0
H869 H 0.43178 0.07016 0.51218 0.0
H870 H 0.34993 0.9496 0.53506 0.0
H871 H 0.39922 0.99553 0.51366 0.0
H872 H 0.21377 0.03201 0.47219 0.0
H873 H 0.26331 0.0862 0.45979 0.0
H874 H 0.19359 0.99813 0.52063 0.0
H875 H 0.19863 0.95363 0.54266 0.0
C876 C 0.73765 0.73209 0.0375 0.0
C877 C 0.77116 0.71703 0.02765 0.0
C878 C 0.74893 0.72525 0.96688 0.0
C879 C 0.7312 0.75657 0.97712 0.0
N880 N 0.70887 0.7874 0.02779 0.0
N881 N 0.80604 0.69868 0.9774 0.0
C882 C 0.7269 0.76043 0.01411 0.0
C883 C 0.77701 0.71455 0.9907 0.0
N884 N 0.70986 0.71352 0.0666 0.0
N885 N 0.73407 0.70004 0.93644 0.0
H886 H 0.82321 0.68484 0.99235 0.0
H887 H 0.81386 0.70067 0.9507 0.0
H888 H 0.70774 0.70008 0.92095 0.0
H889 H 0.74273 0.6739 0.92944 0.0
H890 H 0.68274 0.7209 0.07347 0.0
H891 H 0.70828 0.68481 0.08001 0.0
H892 H 0.70985 0.79392 0.05465 0.0
H893 H 0.69422 0.80398 0.01303 0.0
C894 C 0.05657 0.25912 0.51886 0.0
C895 C 0.08073 0.3092 0.52676 0.0
C896 C 1.01636 0.31478 0.49492 0.0
C897 C 0.99318 0.26529 0.48531 0.0
N898 N 0.99552 0.19164 0.48517 0.0
N899 N 0.08941 0.38615 0.51361 0.0
C900 C 1.01444 0.23779 0.49668 0.0
C901 C 0.06209 0.33727 0.51233 0.0
N902 N 0.07331 0.23149 0.53325 0.0
N903 N 0.99345 0.34022 0.48907 0.0
H904 H 0.12338 0.4039 0.52512 0.0
H905 H 0.08073 0.40895 0.50015 0.0
H906 H 0.95931 0.3248 0.47815 0.0
H907 H 1.00571 0.37474 0.49868 0.0
H908 H 0.05467 0.19415 0.53265 0.0
H909 H 0.10525 0.24617 0.54739 0.0
H910 H 1.01211 0.17119 0.48847 0.0
H911 H 0.96432 0.17449 0.47024 0.0
C912 C 0.55922 0.13336 0.08139 0.0
C913 C 0.59479 0.1584 0.1078 0.0
C914 C 0.52983 0.15687 0.14408 0.0
C915 C 0.49398 0.12644 0.11979 0.0
N916 N 0.47538 0.07937 0.06722 0.0
N917 N 0.61133 0.22147 0.14915 0.0
C918 C 0.50897 0.11215 0.08937 0.0
C919 C 0.57975 0.17751 0.13569 0.0
N920 N 0.57289 0.13886 0.04707 0.0
N921 N 0.51622 0.1672 0.17528 0.0
H922 H 0.64438 0.24383 0.13713 0.0
H923 H 0.60158 0.2391 0.16751 0.0
H924 H 0.48019 0.1531 0.1822 0.0
H925 H 0.54059 0.1857 0.19529 0.0
H926 H 0.5485 0.12503 0.02644 0.0
H927 H 0.60756 0.16445 0.03921 0.0
H928 H 0.48445 0.06493 0.04603 0.0
H929 H 0.43859 0.06326 0.07219 0.0
C930 C 0.68563 0.53052 0.41889 0.0
C931 C 0.68658 0.56319 0.39321 0.0
C932 C 0.60527 0.5006 0.37456 0.0
C933 C 0.60725 0.4666 0.39743 0.0
N934 N 0.6548 0.44764 0.4359 0.0
N935 N 0.64943 0.57606 0.34281 0.0
C936 C 0.64904 0.48121 0.418 0.0
C937 C 0.64682 0.54741 0.37007 0.0
N938 N 0.7187 0.54687 0.44529 0.0
N939 N 0.56324 0.48874 0.35784 0.0
H940 H 0.67905 0.61005 0.33854 0.0
H941 H 0.62407 0.56459 0.32282 0.0
H942 H 0.53237 0.45517 0.36044 0.0
H943 H 0.5578 0.51339 0.34382 0.0
H944 H 0.71668 0.52588 0.46671 0.0
H945 H 0.74511 0.58276 0.44797 0.0
H946 H 0.68682 0.45535 0.44816 0.0
H947 H 0.62946 0.41109 0.43547 0.0
C948 C 0.91284 0.38458 0.0993 0.0
C949 C 0.93257 0.37914 0.13096 0.0
C950 C 0.91039 0.43488 0.15891 0.0
C951 C 0.89527 0.44405 0.12587 0.0
N952 N 0.84941 0.39556 0.07689 0.0
N953 N 0.9548 0.40351 0.19053 0.0
C954 C 0.88756 0.41029 0.09897 0.0
C955 C 0.93329 0.40615 0.16055 0.0
N956 N 0.91691 0.36378 0.06929 0.0
N957 N 0.8935 0.44385 0.18908 0.0
H958 H 0.97104 0.38243 0.19228 0.0
H959 H 0.96044 0.42555 0.21212 0.0
H960 H 0.86464 0.45017 0.18877 0.0
H961 H 0.90059 0.43556 0.21392 0.0
H962 H 0.90564 0.3694 0.04503 0.0
H963 H 0.93594 0.34531 0.06829 0.0
H964 H 0.83952 0.36778 0.05889 0.0
H965 H 0.82369 0.40602 0.08048 0.0
C966 C 0.53216 0.15756 0.36943 0.0
C967 C 0.49406 0.12285 0.39077 0.0
C968 C 0.55211 0.10174 0.41625 0.0
C969 C 0.59102 0.1417 0.39911 0.0
N970 N 0.61796 0.21081 0.36173 0.0
N971 N 0.46848 0.06159 0.4352 0.0
C972 C 0.58089 0.17015 0.3761 0.0
C973 C 0.50411 0.09435 0.41404 0.0
N974 N 0.52159 0.17793 0.34199 0.0
N975 N 0.56092 0.07015 0.43412 0.0
H976 H 0.43279 0.05313 0.43308 0.0
H977 H 0.47455 0.04441 0.45599 0.0
H978 H 0.59528 0.07457 0.43636 0.0
H979 H 0.53397 0.03764 0.44416 0.0
H980 H 0.54675 0.19947 0.32321 0.0
H981 H 0.48657 0.1692 0.33581 0.0
H982 H 0.61314 0.23622 0.34825 0.0
H983 H 0.65402 0.22141 0.3658 0.0
C984 C 0.60474 0.4957 0.15094 0.0
C985 C 0.60006 0.46758 0.12069 0.0
C986 C 0.67006 0.53818 0.09455 0.0
C987 C 0.67817 0.56462 0.12616 0.0
N988 N 0.656 0.56653 0.18605 0.0
N989 N 0.63455 0.46022 0.06651 0.0
C990 C 0.64609 0.54287 0.15479 0.0
C991 C 0.63446 0.48846 0.09327 0.0
N992 N 0.56902 0.4779 0.17555 0.0
N993 N 0.69577 0.56104 0.06518 0.0
H994 H 0.60993 0.42356 0.06487 0.0
H995 H 0.6619 0.47199 0.04788 0.0
H996 H 0.72137 0.59746 0.06475 0.0
H997 H 0.68822 0.54526 0.04046 0.0
H998 H 0.5676 0.49815 0.19632 0.0
H999 H 0.53871 0.44382 0.17368 0.0
H1000 H 0.63744 0.55081 0.20914 0.0
H1001 H 0.685 0.60121 0.1893 0.0
C1002 C 0.91903 0.43603 0.35905 0.0
C1003 C 0.89381 0.44179 0.388 0.0
C1004 C 0.89186 0.37214 0.41597 0.0
C1005 C 0.92238 0.36979 0.38981 0.0
N1006 N 0.9662 0.40177 0.33592 0.0
N1007 N 0.82665 0.38739 0.42377 0.0
C1008 C 0.93681 0.40281 0.36136 0.0
C1009 C 0.87169 0.40207 0.41113 0.0
N1010 N 0.91666 0.45359 0.32709 0.0
N1011 N 0.88153 0.34559 0.44591 0.0
H1012 H 0.8066 0.40289 0.41528 0.0
H1013 H 0.80708 0.35585 0.43821 0.0
H1014 H 0.89629 0.32399 0.45155 0.0
H1015 H 0.86205 0.34912 0.4665 0.0
H1016 H 0.93108 0.44808 0.30427 0.0
H1017 H 0.89232 0.46543 0.3223 0.0
H1018 H 0.98217 0.42823 0.31674 0.0
H1019 H 0.97744 0.3765 0.3355 0.0
C1020 C 0.18931 0.56772 0.63971 0.0
C1021 C 0.16556 0.58111 0.61456 0.0
C1022 C 0.11903 0.49607 0.59547 0.0
C1023 C 0.14219 0.48264 0.62119 0.0
N1024 N 0.18831 0.50382 0.67425 0.0
N1025 N 0.09998 0.55591 0.57402 0.0
C1026 C 0.17404 0.51807 0.64521 0.0
C1027 C 0.12803 0.54455 0.59412 0.0
N1028 N 0.22787 0.60254 0.65751 0.0
N1029 N 0.08989 0.46314 0.57128 0.0
H1030 H 0.10534 0.59064 0.57243 0.0
H1031 H 0.0689 0.53042 0.56142 0.0
H1032 H 0.08047 0.42716 0.57233 0.0
H1033 H 0.07712 0.47194 0.5491 0.0
H1034 H 0.25005 0.59544 0.67322 0.0
H1035 H 0.24023 0.63909 0.65427 0.0
H1036 H 0.20803 0.52692 0.69453 0.0
H1037 H 0.17537 0.46767 0.67988 0.0
C1038 C 0.39949 0.89809 0.92111 0.0
C1039 C 0.39246 0.9195 0.89064 0.0
C1040 C 0.4599 0.91572 0.86211 0.0
C1041 C 0.46865 0.89722 0.89344 0.0
N1042 N 0.45392 0.88279 0.95537 0.0
N1043 N 0.42035 0.95464 0.83372 0.0
C1044 C 0.4405 0.89196 0.92366 0.0
C1045 C 0.42437 0.93052 0.86174 0.0
N1046 N 0.36619 0.88205 0.94751 0.0
N1047 N 0.48391 0.91696 0.83217 0.0
H1048 H 0.39403 0.96451 0.83226 0.0
H1049 H 0.44516 0.96809 0.81328 0.0
H1050 H 0.50947 0.906 0.83134 0.0
H1051 H 0.47592 0.92509 0.8076 0.0
H1052 H 0.3661 0.86072 0.96805 0.0
H1053 H 0.33634 0.88669 0.94767 0.0
H1054 H 0.43819 0.88394 0.97898 0.0
H1055 H 0.48404 0.87891 0.95861 0.0
C1056 C 0.56054 0.63241 0.63634 0.0
C1057 C 0.57748 0.6716 0.61248 0.0
C1058 C 0.49534 0.63532 0.58789 0.0
C1059 C 0.47965 0.59375 0.60892 0.0
N1060 N 0.50043 0.54956 0.6494 0.0
N1061 N 0.56201 0.70272 0.55936 0.0
C1062 C 0.51319 0.59141 0.63212 0.0
C1063 C 0.5451 0.67073 0.58651 0.0
N1064 N 0.58855 0.63508 0.66404 0.0
N1065 N 0.46239 0.64214 0.57004 0.0
H1066 H 0.59812 0.72836 0.55624 0.0
H1067 H 0.54107 0.70036 0.53783 0.0
H1068 H 0.42552 0.61791 0.57101 0.0
H1069 H 0.4711 0.6742 0.55739 0.0
H1070 H 0.57628 0.61016 0.68439 0.0
H1071 H 0.6227 0.66445 0.66829 0.0
H1072 H 0.52466 0.54384 0.66375 0.0
H1073 H 0.46656 0.51907 0.64693 0.0
C1074 C 0.13244 0.55488 0.86729 0.0
C1075 C 0.16377 0.58508 0.89424 0.0
C1076 C 0.16756 0.51535 0.91732 0.0
C1077 C 0.1416 0.48685 0.888 0.0
N1078 N 0.10343 0.48161 0.83284 0.0
N1079 N 0.21891 0.59513 0.94057 0.0
C1080 C 0.12495 0.50717 0.86241 0.0
C1081 C 0.18337 0.56548 0.91805 0.0
N1082 N 0.10853 0.57111 0.84705 0.0
N1083 N 0.17594 0.49409 0.9453 0.0
H1084 H 0.23276 0.63217 0.94127 0.0
H1085 H 0.23817 0.58378 0.95588 0.0
H1086 H 0.16341 0.45732 0.9465 0.0
H1087 H 0.19042 0.51185 0.96883 0.0
H1088 H 0.08164 0.54946 0.82944 0.0
H1089 H 0.11274 0.60524 0.84998 0.0
H1090 H 0.09531 0.49612 0.81132 0.0
H1091 H 0.09661 0.44664 0.82897 0.0
C1092 C 0.392 0.88357 0.58989 0.0
C1093 C 0.39281 0.91629 0.61542 0.0
C1094 C 0.47425 0.93375 0.63243 0.0
C1095 C 0.47032 0.89655 0.60991 0.0
N1096 N 0.41987 0.82902 0.57307 0.0
N1097 N 0.43291 0.96826 0.66432 0.0
C1098 C 0.42754 0.86947 0.59038 0.0
C1099 C 0.4336 0.94043 0.63756 0.0
N1100 N 0.3583 0.86732 0.56394 0.0
N1101 N 0.51721 0.9637 0.64809 0.0
H1102 H 0.40413 0.97404 0.66865 0.0
H1103 H 0.45913 0.98255 0.68371 0.0
H1104 H 0.54746 0.95999 0.64495 0.0
H1105 H 0.52394 0.99445 0.6618 0.0
H1106 H 0.35889 0.84728 0.54268 0.0
H1107 H 0.33311 0.87849 0.56142 0.0
H1108 H 0.38712 0.80507 0.56152 0.0
H1109 H 0.44432 0.81663 0.57343 0.0
C1110 C 0.55475 0.65888 0.91223 0.0
C1111 C 0.57586 0.66972 0.87842 0.0
C1112 C 0.49419 0.62252 0.85345 0.0
C1113 C 0.47391 0.6064 0.8876 0.0
N1114 N 0.48409 0.64437 0.94387 0.0
N1115 N 0.5656 0.65844 0.81631 0.0
C1116 C 0.50383 0.63384 0.91597 0.0
C1117 C 0.54548 0.65008 0.8489 0.0
N1118 N 0.5833 0.67368 0.94121 0.0
N1119 N 0.46528 0.62104 0.82684 0.0
H1120 H 0.60274 0.67869 0.81245 0.0
H1121 H 0.54594 0.64165 0.79386 0.0
H1122 H 0.43039 0.61416 0.83165 0.0
H1123 H 0.47803 0.63525 0.80203 0.0
H1124 H 0.56944 0.66376 0.9665 0.0
H1125 H 0.62069 0.69124 0.93956 0.0
H1126 H 0.50466 0.66786 0.96377 0.0
H1127 H 0.44813 0.63578 0.94398 0.0
loop_
_geom_bond_atom_site_label_1
_geom_bond_atom_site_label_2
_geom_bond_distance
_geom_bond_site_symmetry_2
_ccdc_geom_bond_type
Tb0 C2 2.809 . S
Tb0 O20 2.484 . S
Tb0 O21 2.440 . S
Tb0 O22 2.658 . S
Tb0 O23 2.409 . S
Tb0 O24 2.378 . S
Tb0 O28 2.325 . S
Tb0 O31 2.341 . S
Tb1 C11 2.809 . S
Tb1 O22 2.325 . S
Tb1 O25 2.341 . S
Tb1 O26 2.484 . S
Tb1 O27 2.440 . S
Tb1 O28 2.658 . S
Tb1 O29 2.409 . S
Tb1 O30 2.378 . S
C2 Tb0 2.809 . S
C2 C3 1.514 . S
C2 O20 1.248 . S
C2 O21 1.266 . S
C3 C2 1.514 . S
C3 C4 1.359 . S
C3 C8 1.348 . S
C4 C3 1.359 . S
C4 C5 1.380 . S
C4 H32 0.929 . S
C5 C4 1.380 . S
C5 C6 1.347 . S
C5 H33 0.931 . S
C6 C5 1.347 . S
C6 C7 1.369 . S
C7 C6 1.369 . S
C7 C8 1.408 . S
C7 H34 0.930 . S
C8 C3 1.348 . S
C8 C7 1.408 . S
C8 H35 0.930 . S
C9 O22 1.281 . S
C9 O23 1.254 . S
C10 O24 1.236 . S
C10 O25 1.266 . S
C11 Tb1 2.809 . S
C11 C12 1.514 1_545 S
C11 O26 1.248 . S
C11 O27 1.266 . S
C12 C11 1.514 1_565 S
C12 C13 1.359 . S
C12 C17 1.348 . S
C13 C12 1.359 . S
C13 C14 1.380 . S
C13 H36 0.929 . S
C14 C13 1.380 . S
C14 C15 1.347 . S
C14 H37 0.931 . S
C15 C14 1.347 . S
C15 C16 1.369 . S
C16 C15 1.369 . S
C16 C17 1.408 . S
C16 H38 0.930 . S
C17 C12 1.348 . S
C17 C16 1.408 . S
C17 H39 0.930 . S
C18 O28 1.281 . S
C18 O29 1.254 . S
C19 O30 1.236 . S
C19 O31 1.266 . S
O20 Tb0 2.484 . S
O20 C2 1.248 . S
O21 Tb0 2.440 . S
O21 C2 1.266 . S
O22 Tb0 2.658 . S
O22 Tb1 2.325 . S
O22 C9 1.281 . S
O23 Tb0 2.409 . S
O23 C9 1.254 . S
O24 Tb0 2.378 . S
O24 C10 1.236 . S
O25 Tb1 2.341 . S
O25 C10 1.266 . S
O26 Tb1 2.484 . S
O26 C11 1.248 . S
O27 Tb1 2.440 . S
O27 C11 1.266 . S
O28 Tb0 2.325 . S
O28 Tb1 2.658 . S
O28 C18 1.281 . S
O29 Tb1 2.409 . S
O29 C18 1.254 . S
O30 Tb1 2.378 . S
O30 C19 1.236 . S
O31 Tb0 2.341 . S
O31 C19 1.266 . S
H32 C4 0.929 . S
H33 C5 0.931 . S
H34 C7 0.930 . S
H35 C8 0.930 . S
H36 C13 0.929 . S
H37 C14 0.931 . S
H38 C16 0.930 . S
H39 C17 0.930 . S
Tb40 C42 2.809 . S
Tb40 O60 2.484 . S
Tb40 O61 2.440 . S
Tb40 O62 2.658 . S
Tb40 O63 2.409 . S
Tb40 O64 2.378 . S
Tb40 O68 2.325 . S
Tb40 O71 2.341 . S
Tb41 C51 2.809 . S
Tb41 O62 2.325 . S
Tb41 O65 2.341 . S
Tb41 O66 2.484 . S
Tb41 O67 2.440 . S
Tb41 O68 2.658 . S
Tb41 O69 2.409 . S
Tb41 O70 2.378 . S
C42 Tb40 2.809 . S
C42 C43 1.514 . S
C42 O60 1.248 . S
C42 O61 1.266 . S
C43 C42 1.514 . S
C43 C44 1.359 . S
C43 C48 1.348 . S
C44 C43 1.359 . S
C44 C45 1.380 . S
C44 H72 0.929 . S
C45 C44 1.380 . S
C45 C46 1.347 . S
C45 H73 0.931 . S
C46 C45 1.347 . S
C46 C47 1.369 . S
C47 C46 1.369 . S
C47 C48 1.408 . S
C47 H74 0.930 . S
C48 C43 1.348 . S
C48 C47 1.408 . S
C48 H75 0.930 . S
C49 O62 1.281 . S
C49 O63 1.254 . S
C50 O64 1.236 . S
C50 O65 1.266 . S
C51 Tb41 2.809 . S
C51 C52 1.514 . S
C51 O66 1.248 . S
C51 O67 1.266 . S
C52 C51 1.514 . S
C52 C53 1.359 . S
C52 C57 1.348 . S
C53 C52 1.359 . S
C53 C54 1.380 . S
C53 H76 0.929 . S
C54 C53 1.380 . S
C54 C55 1.347 . S
C54 H77 0.931 . S
C55 C54 1.347 . S
C55 C56 1.369 . S
C56 C55 1.369 . S
C56 C57 1.408 . S
C56 H78 0.930 . S
C57 C52 1.348 . S
C57 C56 1.408 . S
C57 H79 0.930 . S
C58 O68 1.281 . S
C58 O69 1.254 . S
C59 O70 1.236 . S
C59 O71 1.266 . S
O60 Tb40 2.484 . S
O60 C42 1.248 . S
O61 Tb40 2.440 . S
O61 C42 1.266 . S
O62 Tb40 2.658 . S
O62 Tb41 2.325 . S
O62 C49 1.281 . S
O63 Tb40 2.409 . S
O63 C49 1.254 . S
O64 Tb40 2.378 . S
O64 C50 1.236 . S
O65 Tb41 2.341 . S
O65 C50 1.266 . S
O66 Tb41 2.484 . S
O66 C51 1.248 . S
O67 Tb41 2.440 . S
O67 C51 1.266 . S
O68 Tb40 2.325 . S
O68 Tb41 2.658 . S
O68 C58 1.281 . S
O69 Tb41 2.409 . S
O69 C58 1.254 . S
O70 Tb41 2.378 . S
O70 C59 1.236 . S
O71 Tb40 2.341 . S
O71 C59 1.266 . S
H72 C44 0.929 . S
H73 C45 0.931 . S
H74 C47 0.930 . S
H75 C48 0.930 . S
H76 C53 0.929 . S
H77 C54 0.931 . S
H78 C56 0.930 . S
H79 C57 0.930 . S
Tb80 C82 2.809 . S
Tb80 O100 2.484 . S
Tb80 O101 2.440 . S
Tb80 O102 2.658 . S
Tb80 O103 2.409 . S
Tb80 O104 2.378 . S
Tb80 O108 2.325 . S
Tb80 O111 2.341 . S
Tb81 C91 2.809 . S
Tb81 O102 2.325 . S
Tb81 O105 2.341 . S
Tb81 O106 2.484 . S
Tb81 O107 2.440 . S
Tb81 O108 2.658 . S
Tb81 O109 2.409 . S
Tb81 O110 2.378 . S
C82 Tb80 2.809 . S
C82 C83 1.514 . S
C82 O100 1.248 . S
C82 O101 1.266 . S
C83 C82 1.514 . S
C83 C84 1.359 . S
C83 C88 1.348 . S
C84 C83 1.359 . S
C84 C85 1.380 . S
C84 H112 0.929 . S
C85 C84 1.380 . S
C85 C86 1.347 . S
C85 H113 0.931 . S
C86 C85 1.347 . S
C86 C87 1.369 . S
C87 C86 1.369 . S
C87 C88 1.408 . S
C87 H114 0.930 . S
C88 C83 1.348 . S
C88 C87 1.408 . S
C88 H115 0.930 . S
C89 O102 1.281 . S
C89 O103 1.254 . S
C90 O104 1.236 . S
C90 O105 1.266 . S
C91 Tb81 2.809 . S
C91 C92 1.514 1_655 S
C91 O106 1.248 . S
C91 O107 1.266 . S
C92 C91 1.514 1_455 S
C92 C93 1.359 . S
C92 C97 1.348 . S
C93 C92 1.359 . S
C93 C94 1.380 . S
C93 H116 0.929 . S
C94 C93 1.380 . S
C94 C95 1.347 . S
C94 H117 0.931 . S
C95 C94 1.347 . S
C95 C96 1.369 . S
C96 C95 1.369 . S
C96 C97 1.408 . S
C96 H118 0.930 . S
C97 C92 1.348 . S
C97 C96 1.408 . S
C97 H119 0.930 . S
C98 O108 1.281 . S
C98 O109 1.254 . S
C99 O110 1.236 . S
C99 O111 1.266 . S
O100 Tb80 2.484 . S
O100 C82 1.248 . S
O101 Tb80 2.440 . S
O101 C82 1.266 . S
O102 Tb80 2.658 . S
O102 Tb81 2.325 . S
O102 C89 1.281 . S
O103 Tb80 2.409 . S
O103 C89 1.254 . S
O104 Tb80 2.378 . S
O104 C90 1.236 . S
O105 Tb81 2.341 . S
O105 C90 1.266 . S
O106 Tb81 2.484 . S
O106 C91 1.248 . S
O107 Tb81 2.440 . S
O107 C91 1.266 . S
O108 Tb80 2.325 . S
O108 Tb81 2.658 . S
O108 C98 1.281 . S
O109 Tb81 2.409 . S
O109 C98 1.254 . S
O110 Tb81 2.378 . S
O110 C99 1.236 . S
O111 Tb80 2.341 . S
O111 C99 1.266 . S
H112 C84 0.929 . S
H113 C85 0.931 . S
H114 C87 0.930 . S
H115 C88 0.930 . S
H116 C93 0.929 . S
H117 C94 0.931 . S
H118 C96 0.930 . S
H119 C97 0.930 . S
Tb120 C122 2.809 . S
Tb120 O140 2.484 . S
Tb120 O141 2.440 . S
Tb120 O142 2.658 . S
Tb120 O143 2.409 . S
Tb120 O144 2.378 . S
Tb120 O148 2.325 . S
Tb120 O151 2.341 . S
Tb121 C131 2.809 . S
Tb121 O142 2.325 . S
Tb121 O145 2.341 . S
Tb121 O146 2.484 . S
Tb121 O147 2.440 . S
Tb121 O148 2.658 . S
Tb121 O149 2.409 . S
Tb121 O150 2.378 . S
C122 Tb120 2.809 . S
C122 C123 1.514 1_545 S
C122 O140 1.248 . S
C122 O141 1.266 . S
C123 C122 1.514 1_565 S
C123 C124 1.359 . S
C123 C128 1.348 . S
C124 C123 1.359 . S
C124 C125 1.380 . S
C124 H152 0.929 . S
C125 C124 1.380 . S
C125 C126 1.347 . S
C125 H153 0.931 . S
C126 C125 1.347 . S
C126 C127 1.369 . S
C127 C126 1.369 . S
C127 C128 1.408 . S
C127 H154 0.930 . S
C128 C123 1.348 . S
C128 C127 1.408 . S
C128 H155 0.930 . S
C129 O142 1.281 . S
C129 O143 1.254 . S
C130 O144 1.236 . S
C130 O145 1.266 . S
C131 Tb121 2.809 . S
C131 C132 1.514 . S
C131 O146 1.248 . S
C131 O147 1.266 . S
C132 C131 1.514 . S
C132 C133 1.359 . S
C132 C137 1.348 . S
C133 C132 1.359 . S
C133 C134 1.380 . S
C133 H156 0.929 . S
C134 C133 1.380 . S
C134 C135 1.347 . S
C134 H157 0.931 . S
C135 C134 1.347 . S
C135 C136 1.369 . S
C136 C135 1.369 . S
C136 C137 1.408 . S
C136 H158 0.930 . S
C137 C132 1.348 . S
C137 C136 1.408 . S
C137 H159 0.930 . S
C138 O148 1.281 . S
C138 O149 1.254 . S
C139 O150 1.236 . S
C139 O151 1.266 . S
O140 Tb120 2.484 . S
O140 C122 1.248 . S
O141 Tb120 2.440 . S
O141 C122 1.266 . S
O142 Tb120 2.658 . S
O142 Tb121 2.325 . S
O142 C129 1.281 . S
O143 Tb120 2.409 . S
O143 C129 1.254 . S
O144 Tb120 2.378 . S
O144 C130 1.236 . S
O145 Tb121 2.341 . S
O145 C130 1.266 . S
O146 Tb121 2.484 . S
O146 C131 1.248 . S
O147 Tb121 2.440 . S
O147 C131 1.266 . S
O148 Tb120 2.325 . S
O148 Tb121 2.658 . S
O148 C138 1.281 . S
O149 Tb121 2.409 . S
O149 C138 1.254 . S
O150 Tb121 2.378 . S
O150 C139 1.236 . S
O151 Tb120 2.341 . S
O151 C139 1.266 . S
H152 C124 0.929 . S
H153 C125 0.931 . S
H154 C127 0.930 . S
H155 C128 0.930 . S
H156 C133 0.929 . S
H157 C134 0.931 . S
H158 C136 0.930 . S
H159 C137 0.930 . S
Tb160 C162 2.809 . S
Tb160 O180 2.484 . S
Tb160 O181 2.440 . S
Tb160 O182 2.658 . S
Tb160 O183 2.409 . S
Tb160 O184 2.378 . S
Tb160 O188 2.325 . S
Tb160 O191 2.341 . S
Tb161 C171 2.809 . S
Tb161 O182 2.325 . S
Tb161 O185 2.341 . S
Tb161 O186 2.484 . S
Tb161 O187 2.440 . S
Tb161 O188 2.658 . S
Tb161 O189 2.409 . S
Tb161 O190 2.378 . S
C162 Tb160 2.809 . S
C162 C163 1.514 . S
C162 O180 1.248 . S
C162 O181 1.266 . S
C163 C162 1.514 . S
C163 C164 1.359 . S
C163 C168 1.348 . S
C164 C163 1.359 . S
C164 C165 1.380 . S
C164 H192 0.929 . S
C165 C164 1.380 . S
C165 C166 1.347 . S
C165 H193 0.931 . S
C166 C165 1.347 . S
C166 C167 1.369 . S
C167 C166 1.369 . S
C167 C168 1.408 . S
C167 H194 0.930 . S
C168 C163 1.348 . S
C168 C167 1.408 . S
C168 H195 0.930 . S
C169 O182 1.281 . S
C169 O183 1.254 . S
C170 O184 1.236 . S
C170 O185 1.266 . S
C171 Tb161 2.809 . S
C171 C172 1.514 . S
C171 O186 1.248 . S
C171 O187 1.266 . S
C172 C171 1.514 . S
C172 C173 1.359 . S
C172 C177 1.348 . S
C173 C172 1.359 . S
C173 C174 1.380 . S
C173 H196 0.929 . S
C174 C173 1.380 . S
C174 C175 1.347 . S
C174 H197 0.931 . S
C175 C174 1.347 . S
C175 C176 1.369 . S
C176 C175 1.369 . S
C176 C177 1.408 . S
C176 H198 0.930 . S
C177 C172 1.348 . S
C177 C176 1.408 . S
C177 H199 0.930 . S
C178 O188 1.281 . S
C178 O189 1.254 . S
C179 O190 1.236 . S
C179 O191 1.266 . S
O180 Tb160 2.484 . S
O180 C162 1.248 . S
O181 Tb160 2.440 . S
O181 C162 1.266 . S
O182 Tb160 2.658 . S
O182 Tb161 2.325 . S
O182 C169 1.281 . S
O183 Tb160 2.409 . S
O183 C169 1.254 . S
O184 Tb160 2.378 . S
O184 C170 1.236 . S
O185 Tb161 2.341 . S
O185 C170 1.266 . S
O186 Tb161 2.484 . S
O186 C171 1.248 . S
O187 Tb161 2.440 . S
O187 C171 1.266 . S
O188 Tb160 2.325 . S
O188 Tb161 2.658 . S
O188 C178 1.281 . S
O189 Tb161 2.409 . S
O189 C178 1.254 . S
O190 Tb161 2.378 . S
O190 C179 1.236 . S
O191 Tb160 2.341 . S
O191 C179 1.266 . S
H192 C164 0.929 . S
H193 C165 0.931 . S
H194 C167 0.930 . S
H195 C168 0.930 . S
H196 C173 0.929 . S
H197 C174 0.931 . S
H198 C176 0.930 . S
H199 C177 0.930 . S
Tb200 C202 2.809 . S
Tb200 O220 2.484 . S
Tb200 O221 2.440 . S
Tb200 O222 2.658 . S
Tb200 O223 2.409 . S
Tb200 O224 2.378 . S
Tb200 O228 2.325 . S
Tb200 O231 2.341 . S
Tb201 C211 2.809 . S
Tb201 O222 2.325 . S
Tb201 O225 2.341 . S
Tb201 O226 2.484 . S
Tb201 O227 2.440 . S
Tb201 O228 2.658 . S
Tb201 O229 2.409 . S
Tb201 O230 2.378 . S
C202 Tb200 2.809 . S
C202 C203 1.514 1_655 S
C202 O220 1.248 . S
C202 O221 1.266 . S
C203 C202 1.514 1_455 S
C203 C204 1.359 . S
C203 C208 1.348 . S
C204 C203 1.359 . S
C204 C205 1.380 . S
C204 H232 0.929 . S
C205 C204 1.380 . S
C205 C206 1.347 . S
C205 H233 0.931 . S
C206 C205 1.347 . S
C206 C207 1.369 . S
C207 C206 1.369 . S
C207 C208 1.408 . S
C207 H234 0.930 . S
C208 C203 1.348 . S
C208 C207 1.408 . S
C208 H235 0.930 . S
C209 O222 1.281 . S
C209 O223 1.254 . S
C210 O224 1.236 . S
C210 O225 1.266 . S
C211 Tb201 2.809 . S
C211 C212 1.514 . S
C211 O226 1.248 . S
C211 O227 1.266 . S
C212 C211 1.514 . S
C212 C213 1.359 . S
C212 C217 1.348 . S
C213 C212 1.359 . S
C213 C214 1.380 . S
C213 H236 0.929 . S
C214 C213 1.380 . S
C214 C215 1.347 . S
C214 H237 0.931 . S
C215 C214 1.347 . S
C215 C216 1.369 . S
C216 C215 1.369 . S
C216 C217 1.408 . S
C216 H238 0.930 . S
C217 C212 1.348 . S
C217 C216 1.408 . S
C217 H239 0.930 . S
C218 O228 1.281 . S
C218 O229 1.254 . S
C219 O230 1.236 . S
C219 O231 1.266 . S
O220 Tb200 2.484 . S
O220 C202 1.248 . S
O221 Tb200 2.440 . S
O221 C202 1.266 . S
O222 Tb200 2.658 . S
O222 Tb201 2.325 . S
O222 C209 1.281 . S
O223 Tb200 2.409 . S
O223 C209 1.254 . S
O224 Tb200 2.378 . S
O224 C210 1.236 . S
O225 Tb201 2.341 . S
O225 C210 1.266 . S
O226 Tb201 2.484 . S
O226 C211 1.248 . S
O227 Tb201 2.440 . S
O227 C211 1.266 . S
O228 Tb200 2.325 . S
O228 Tb201 2.658 . S
O228 C218 1.281 . S
O229 Tb201 2.409 . S
O229 C218 1.254 . S
O230 Tb201 2.378 . S
O230 C219 1.236 . S
O231 Tb200 2.341 . S
O231 C219 1.266 . S
H232 C204 0.929 . S
H233 C205 0.931 . S
H234 C207 0.930 . S
H235 C208 0.930 . S
H236 C213 0.929 . S
H237 C214 0.931 . S
H238 C216 0.930 . S
H239 C217 0.930 . S
Tb240 C242 2.809 . S
Tb240 O260 2.484 . S
Tb240 O261 2.440 . S
Tb240 O262 2.658 . S
Tb240 O263 2.409 . S
Tb240 O264 2.378 . S
Tb240 O268 2.325 . S
Tb240 O271 2.341 . S
Tb241 C251 2.809 . S
Tb241 O262 2.325 . S
Tb241 O265 2.341 . S
Tb241 O266 2.484 . S
Tb241 O267 2.440 . S
Tb241 O268 2.658 . S
Tb241 O269 2.409 . S
Tb241 O270 2.378 . S
C242 Tb240 2.809 . S
C242 C243 1.514 1_455 S
C242 O260 1.248 . S
C242 O261 1.266 . S
C243 C242 1.514 1_655 S
C243 C244 1.359 . S
C243 C248 1.348 . S
C244 C243 1.359 . S
C244 C245 1.380 . S
C244 H272 0.929 . S
C245 C244 1.380 . S
C245 C246 1.347 . S
C245 H273 0.931 . S
C246 C245 1.347 . S
C246 C247 1.369 . S
C247 C246 1.369 . S
C247 C248 1.408 . S
C247 H274 0.930 . S
C248 C243 1.348 . S
C248 C247 1.408 . S
C248 H275 0.930 . S
C249 O262 1.281 . S
C249 O263 1.254 . S
C250 O264 1.236 . S
C250 O265 1.266 . S
C251 Tb241 2.809 . S
C251 C252 1.514 . S
C251 O266 1.248 . S
C251 O267 1.266 . S
C252 C251 1.514 . S
C252 C253 1.359 . S
C252 C257 1.348 . S
C253 C252 1.359 . S
C253 C254 1.380 . S
C253 H276 0.929 . S
C254 C253 1.380 . S
C254 C255 1.347 . S
C254 H277 0.931 . S
C255 C254 1.347 . S
C255 C256 1.369 . S
C256 C255 1.369 . S
C256 C257 1.408 . S
C256 H278 0.930 . S
C257 C252 1.348 . S
C257 C256 1.408 . S
C257 H279 0.930 . S
C258 O268 1.281 . S
C258 O269 1.254 . S
C259 O270 1.236 . S
C259 O271 1.266 . S
O260 Tb240 2.484 . S
O260 C242 1.248 . S
O261 Tb240 2.440 . S
O261 C242 1.266 . S
O262 Tb240 2.658 . S
O262 Tb241 2.325 . S
O262 C249 1.281 . S
O263 Tb240 2.409 . S
O263 C249 1.254 . S
O264 Tb240 2.378 . S
O264 C250 1.236 . S
O265 Tb241 2.341 . S
O265 C250 1.266 . S
O266 Tb241 2.484 . S
O266 C251 1.248 . S
O267 Tb241 2.440 . S
O267 C251 1.266 . S
O268 Tb240 2.325 . S
O268 Tb241 2.658 . S
O268 C258 1.281 . S
O269 Tb241 2.409 . S
O269 C258 1.254 . S
O270 Tb241 2.378 . S
O270 C259 1.236 . S
O271 Tb240 2.341 . S
O271 C259 1.266 . S
H272 C244 0.929 . S
H273 C245 0.931 . S
H274 C247 0.930 . S
H275 C248 0.930 . S
H276 C253 0.929 . S
H277 C254 0.931 . S
H278 C256 0.930 . S
H279 C257 0.930 . S
Tb280 C282 2.809 . S
Tb280 O300 2.484 . S
Tb280 O301 2.440 . S
Tb280 O302 2.658 . S
Tb280 O303 2.409 . S
Tb280 O304 2.378 . S
Tb280 O308 2.325 . S
Tb280 O311 2.341 . S
Tb281 C291 2.809 . S
Tb281 O302 2.325 . S
Tb281 O305 2.341 . S
Tb281 O306 2.484 . S
Tb281 O307 2.440 . S
Tb281 O308 2.658 . S
Tb281 O309 2.409 . S
Tb281 O310 2.378 . S
C282 Tb280 2.809 . S
C282 C283 1.514 . S
C282 O300 1.248 . S
C282 O301 1.266 . S
C283 C282 1.514 . S
C283 C284 1.359 . S
C283 C288 1.348 . S
C284 C283 1.359 . S
C284 C285 1.380 . S
C284 H312 0.929 . S
C285 C284 1.380 . S
C285 C286 1.347 . S
C285 H313 0.931 . S
C286 C285 1.347 . S
C286 C287 1.369 . S
C287 C286 1.369 . S
C287 C288 1.408 . S
C287 H314 0.930 . S
C288 C283 1.348 . S
C288 C287 1.408 . S
C288 H315 0.930 . S
C289 O302 1.281 . S
C289 O303 1.254 . S
C290 O304 1.236 . S
C290 O305 1.266 . S
C291 Tb281 2.809 . S
C291 C292 1.514 1_565 S
C291 O306 1.248 . S
C291 O307 1.266 . S
C292 C291 1.514 1_545 S
C292 C293 1.359 . S
C292 C297 1.348 . S
C293 C292 1.359 . S
C293 C294 1.380 . S
C293 H316 0.929 . S
C294 C293 1.380 . S
C294 C295 1.347 . S
C294 H317 0.931 . S
C295 C294 1.347 . S
C295 C296 1.369 . S
C296 C295 1.369 . S
C296 C297 1.408 . S
C296 H318 0.930 . S
C297 C292 1.348 . S
C297 C296 1.408 . S
C297 H319 0.930 . S
C298 O308 1.281 . S
C298 O309 1.254 . S
C299 O310 1.236 . S
C299 O311 1.266 . S
O300 Tb280 2.484 . S
O300 C282 1.248 . S
O301 Tb280 2.440 . S
O301 C282 1.266 . S
O302 Tb280 2.658 . S
O302 Tb281 2.325 . S
O302 C289 1.281 . S
O303 Tb280 2.409 . S
O303 C289 1.254 . S
O304 Tb280 2.378 . S
O304 C290 1.236 . S
O305 Tb281 2.341 . S
O305 C290 1.266 . S
O306 Tb281 2.484 . S
O306 C291 1.248 . S
O307 Tb281 2.440 . S
O307 C291 1.266 . S
O308 Tb280 2.325 . S
O308 Tb281 2.658 . S
O308 C298 1.281 . S
O309 Tb281 2.409 . S
O309 C298 1.254 . S
O310 Tb281 2.378 . S
O310 C299 1.236 . S
O311 Tb280 2.341 . S
O311 C299 1.266 . S
H312 C284 0.929 . S
H313 C285 0.931 . S
H314 C287 0.930 . S
H315 C288 0.930 . S
H316 C293 0.929 . S
H317 C294 0.931 . S
H318 C296 0.930 . S
H319 C297 0.930 . S
Tb320 C322 2.809 . S
Tb320 O340 2.484 . S
Tb320 O341 2.440 . S
Tb320 O342 2.658 . S
Tb320 O343 2.409 . S
Tb320 O344 2.378 . S
Tb320 O348 2.325 . S
Tb320 O351 2.341 . S
Tb321 C331 2.809 . S
Tb321 O342 2.325 . S
Tb321 O345 2.341 . S
Tb321 O346 2.484 . S
Tb321 O347 2.440 . S
Tb321 O348 2.658 . S
Tb321 O349 2.409 . S
Tb321 O350 2.378 . S
C322 Tb320 2.809 . S
C322 C323 1.514 . S
C322 O340 1.248 . S
C322 O341 1.266 . S
C323 C322 1.514 . S
C323 C324 1.359 . S
C323 C328 1.348 . S
C324 C323 1.359 . S
C324 C325 1.380 . S
C324 H352 0.929 . S
C325 C324 1.380 . S
C325 C326 1.347 . S
C325 H353 0.931 . S
C326 C325 1.347 . S
C326 C327 1.369 . S
C327 C326 1.369 . S
C327 C328 1.408 . S
C327 H354 0.930 . S
C328 C323 1.348 . S
C328 C327 1.408 . S
C328 H355 0.930 . S
C329 O342 1.281 . S
C329 O343 1.254 . S
C330 O344 1.236 . S
C330 O345 1.266 . S
C331 Tb321 2.809 . S
C331 C332 1.514 . S
C331 O346 1.248 . S
C331 O347 1.266 . S
C332 C331 1.514 . S
C332 C333 1.359 . S
C332 C337 1.348 . S
C333 C332 1.359 . S
C333 C334 1.380 . S
C333 H356 0.929 . S
C334 C333 1.380 . S
C334 C335 1.347 . S
C334 H357 0.931 . S
C335 C334 1.347 . S
C335 C336 1.369 . S
C336 C335 1.369 . S
C336 C337 1.408 . S
C336 H358 0.930 . S
C337 C332 1.348 . S
C337 C336 1.408 . S
C337 H359 0.930 . S
C338 O348 1.281 . S
C338 O349 1.254 . S
C339 O350 1.236 . S
C339 O351 1.266 . S
O340 Tb320 2.484 . S
O340 C322 1.248 . S
O341 Tb320 2.440 . S
O341 C322 1.266 . S
O342 Tb320 2.658 . S
O342 Tb321 2.325 . S
O342 C329 1.281 . S
O343 Tb320 2.409 . S
O343 C329 1.254 . S
O344 Tb320 2.378 . S
O344 C330 1.236 . S
O345 Tb321 2.341 . S
O345 C330 1.266 . S
O346 Tb321 2.484 . S
O346 C331 1.248 . S
O347 Tb321 2.440 . S
O347 C331 1.266 . S
O348 Tb320 2.325 . S
O348 Tb321 2.658 . S
O348 C338 1.281 . S
O349 Tb321 2.409 . S
O349 C338 1.254 . S
O350 Tb321 2.378 . S
O350 C339 1.236 . S
O351 Tb320 2.341 . S
O351 C339 1.266 . S
H352 C324 0.929 . S
H353 C325 0.931 . S
H354 C327 0.930 . S
H355 C328 0.930 . S
H356 C333 0.929 . S
H357 C334 0.931 . S
H358 C336 0.930 . S
H359 C337 0.930 . S
Tb360 C362 2.809 . S
Tb360 O380 2.484 . S
Tb360 O381 2.440 . S
Tb360 O382 2.658 . S
Tb360 O383 2.409 . S
Tb360 O384 2.378 . S
Tb360 O388 2.325 . S
Tb360 O391 2.341 . S
Tb361 C371 2.809 . S
Tb361 O382 2.325 . S
Tb361 O385 2.341 . S
Tb361 O386 2.484 . S
Tb361 O387 2.440 . S
Tb361 O388 2.658 . S
Tb361 O389 2.409 . S
Tb361 O390 2.378 . S
C362 Tb360 2.809 . S
C362 C363 1.514 . S
C362 O380 1.248 . S
C362 O381 1.266 . S
C363 C362 1.514 . S
C363 C364 1.359 . S
C363 C368 1.348 . S
C364 C363 1.359 . S
C364 C365 1.380 . S
C364 H392 0.929 . S
C365 C364 1.380 . S
C365 C366 1.347 . S
C365 H393 0.931 . S
C366 C365 1.347 . S
C366 C367 1.369 . S
C367 C366 1.369 . S
C367 C368 1.408 . S
C367 H394 0.930 . S
C368 C363 1.348 . S
C368 C367 1.408 . S
C368 H395 0.930 . S
C369 O382 1.281 . S
C369 O383 1.254 . S
C370 O384 1.236 . S
C370 O385 1.266 . S
C371 Tb361 2.809 . S
C371 C372 1.514 1_455 S
C371 O386 1.248 . S
C371 O387 1.266 . S
C372 C371 1.514 1_655 S
C372 C373 1.359 . S
C372 C377 1.348 . S
C373 C372 1.359 . S
C373 C374 1.380 . S
C373 H396 0.929 . S
C374 C373 1.380 . S
C374 C375 1.347 . S
C374 H397 0.931 . S
C375 C374 1.347 . S
C375 C376 1.369 . S
C376 C375 1.369 . S
C376 C377 1.408 . S
C376 H398 0.930 . S
C377 C372 1.348 . S
C377 C376 1.408 . S
C377 H399 0.930 . S
C378 O388 1.281 . S
C378 O389 1.254 . S
C379 O390 1.236 . S
C379 O391 1.266 . S
O380 Tb360 2.484 . S
O380 C362 1.248 . S
O381 Tb360 2.440 . S
O381 C362 1.266 . S
O382 Tb360 2.658 . S
O382 Tb361 2.325 . S
O382 C369 1.281 . S
O383 Tb360 2.409 . S
O383 C369 1.254 . S
O384 Tb360 2.378 . S
O384 C370 1.236 . S
O385 Tb361 2.341 . S
O385 C370 1.266 . S
O386 Tb361 2.484 . S
O386 C371 1.248 . S
O387 Tb361 2.440 . S
O387 C371 1.266 . S
O388 Tb360 2.325 . S
O388 Tb361 2.658 . S
O388 C378 1.281 . S
O389 Tb361 2.409 . S
O389 C378 1.254 . S
O390 Tb361 2.378 . S
O390 C379 1.236 . S
O391 Tb360 2.341 . S
O391 C379 1.266 . S
H392 C364 0.929 . S
H393 C365 0.931 . S
H394 C367 0.930 . S
H395 C368 0.930 . S
H396 C373 0.929 . S
H397 C374 0.931 . S
H398 C376 0.930 . S
H399 C377 0.930 . S
Tb400 C402 2.809 . S
Tb400 O420 2.484 . S
Tb400 O421 2.440 . S
Tb400 O422 2.658 . S
Tb400 O423 2.409 . S
Tb400 O424 2.378 . S
Tb400 O428 2.325 . S
Tb400 O431 2.341 . S
Tb401 C411 2.809 . S
Tb401 O422 2.325 . S
Tb401 O425 2.341 . S
Tb401 O426 2.484 . S
Tb401 O427 2.440 . S
Tb401 O428 2.658 . S
Tb401 O429 2.409 . S
Tb401 O430 2.378 . S
C402 Tb400 2.809 . S
C402 C403 1.514 1_565 S
C402 O420 1.248 . S
C402 O421 1.266 . S
C403 C402 1.514 1_545 S
C403 C404 1.359 . S
C403 C408 1.348 . S
C404 C403 1.359 . S
C404 C405 1.380 . S
C404 H432 0.929 . S
C405 C404 1.380 . S
C405 C406 1.347 . S
C405 H433 0.931 . S
C406 C405 1.347 . S
C406 C407 1.369 . S
C407 C406 1.369 . S
C407 C408 1.408 . S
C407 H434 0.930 . S
C408 C403 1.348 . S
C408 C407 1.408 . S
C408 H435 0.930 . S
C409 O422 1.281 . S
C409 O423 1.254 . S
C410 O424 1.236 . S
C410 O425 1.266 . S
C411 Tb401 2.809 . S
C411 C412 1.514 . S
C411 O426 1.248 . S
C411 O427 1.266 . S
C412 C411 1.514 . S
C412 C413 1.359 . S
C412 C417 1.348 . S
C413 C412 1.359 . S
C413 C414 1.380 . S
C413 H436 0.929 . S
C414 C413 1.380 . S
C414 C415 1.347 . S
C414 H437 0.931 . S
C415 C414 1.347 . S
C415 C416 1.369 . S
C416 C415 1.369 . S
C416 C417 1.408 . S
C416 H438 0.930 . S
C417 C412 1.348 . S
C417 C416 1.408 . S
C417 H439 0.930 . S
C418 O428 1.281 . S
C418 O429 1.254 . S
C419 O430 1.236 . S
C419 O431 1.266 . S
O420 Tb400 2.484 . S
O420 C402 1.248 . S
O421 Tb400 2.440 . S
O421 C402 1.266 . S
O422 Tb400 2.658 . S
O422 Tb401 2.325 . S
O422 C409 1.281 . S
O423 Tb400 2.409 . S
O423 C409 1.254 . S
O424 Tb400 2.378 . S
O424 C410 1.236 . S
O425 Tb401 2.341 . S
O425 C410 1.266 . S
O426 Tb401 2.484 . S
O426 C411 1.248 . S
O427 Tb401 2.440 . S
O427 C411 1.266 . S
O428 Tb400 2.325 . S
O428 Tb401 2.658 . S
O428 C418 1.281 . S
O429 Tb401 2.409 . S
O429 C418 1.254 . S
O430 Tb401 2.378 . S
O430 C419 1.236 . S
O431 Tb400 2.341 . S
O431 C419 1.266 . S
H432 C404 0.929 . S
H433 C405 0.931 . S
H434 C407 0.930 . S
H435 C408 0.930 . S
H436 C413 0.929 . S
H437 C414 0.931 . S
H438 C416 0.930 . S
H439 C417 0.930 . S
Tb440 C442 2.809 . S
Tb440 O460 2.484 . S
Tb440 O461 2.440 . S
Tb440 O462 2.658 . S
Tb440 O463 2.409 . S
Tb440 O464 2.378 . S
Tb440 O468 2.325 . S
Tb440 O471 2.341 . S
Tb441 C451 2.809 . S
Tb441 O462 2.325 . S
Tb441 O465 2.341 . S
Tb441 O466 2.484 . S
Tb441 O467 2.440 . S
Tb441 O468 2.658 . S
Tb441 O469 2.409 . S
Tb441 O470 2.378 . S
C442 Tb440 2.809 . S
C442 C443 1.514 . S
C442 O460 1.248 . S
C442 O461 1.266 . S
C443 C442 1.514 . S
C443 C444 1.359 . S
C443 C448 1.348 . S
C444 C443 1.359 . S
C444 C445 1.380 . S
C444 H472 0.929 . S
C445 C444 1.380 . S
C445 C446 1.347 . S
C445 H473 0.931 . S
C446 C445 1.347 . S
C446 C447 1.369 . S
C447 C446 1.369 . S
C447 C448 1.408 . S
C447 H474 0.930 . S
C448 C443 1.348 . S
C448 C447 1.408 . S
C448 H475 0.930 . S
C449 O462 1.281 . S
C449 O463 1.254 . S
C450 O464 1.236 . S
C450 O465 1.266 . S
C451 Tb441 2.809 . S
C451 C452 1.514 . S
C451 O466 1.248 . S
C451 O467 1.266 . S
C452 C451 1.514 . S
C452 C453 1.359 . S
C452 C457 1.348 . S
C453 C452 1.359 . S
C453 C454 1.380 . S
C453 H476 0.929 . S
C454 C453 1.380 . S
C454 C455 1.347 . S
C454 H477 0.931 . S
C455 C454 1.347 . S
C455 C456 1.369 . S
C456 C455 1.369 . S
C456 C457 1.408 . S
C456 H478 0.930 . S
C457 C452 1.348 . S
C457 C456 1.408 . S
C457 H479 0.930 . S
C458 O468 1.281 . S
C458 O469 1.254 . S
C459 O470 1.236 . S
C459 O471 1.266 . S
O460 Tb440 2.484 . S
O460 C442 1.248 . S
O461 Tb440 2.440 . S
O461 C442 1.266 . S
O462 Tb440 2.658 . S
O462 Tb441 2.325 . S
O462 C449 1.281 . S
O463 Tb440 2.409 . S
O463 C449 1.254 . S
O464 Tb440 2.378 . S
O464 C450 1.236 . S
O465 Tb441 2.341 . S
O465 C450 1.266 . S
O466 Tb441 2.484 . S
O466 C451 1.248 . S
O467 Tb441 2.440 . S
O467 C451 1.266 . S
O468 Tb440 2.325 . S
O468 Tb441 2.658 . S
O468 C458 1.281 . S
O469 Tb441 2.409 . S
O469 C458 1.254 . S
O470 Tb441 2.378 . S
O470 C459 1.236 . S
O471 Tb440 2.341 . S
O471 C459 1.266 . S
H472 C444 0.929 . S
H473 C445 0.931 . S
H474 C447 0.930 . S
H475 C448 0.930 . S
H476 C453 0.929 . S
H477 C454 0.931 . S
H478 C456 0.930 . S
H479 C457 0.930 . S
C480 C481 1.363 . S
C480 C486 1.379 . S
C480 N488 1.356 . S
C481 C480 1.363 . S
C481 C487 1.363 . S
C482 C483 1.363 . S
C482 C487 1.379 . S
C482 N489 1.356 . S
C483 C482 1.363 . S
C483 C486 1.363 . S
N484 C486 1.356 . S
N484 H496 0.984 . S
N484 H497 0.985 . S
N485 C487 1.356 . S
N485 H490 0.984 . S
N485 H491 0.985 . S
C486 C480 1.379 . S
C486 C483 1.363 . S
C486 N484 1.356 . S
C487 C481 1.363 . S
C487 C482 1.379 . S
C487 N485 1.356 . S
N488 C480 1.356 . S
N488 H494 0.984 . S
N488 H495 0.984 . S
N489 C482 1.356 . S
N489 H492 0.984 . S
N489 H493 0.985 . S
H490 N485 0.984 . S
H491 N485 0.985 . S
H492 N489 0.984 . S
H493 N489 0.985 . S
H494 N488 0.984 . S
H495 N488 0.984 . S
H496 N484 0.984 . S
H497 N484 0.985 . S
C498 C499 1.363 1_655 S
C498 C504 1.379 . S
C498 N506 1.356 1_655 S
C499 C498 1.363 1_455 S
C499 C505 1.363 . S
C500 C501 1.363 . S
C500 C505 1.379 1_655 S
C500 N507 1.356 . S
C501 C500 1.363 . S
C501 C504 1.363 . S
N502 C504 1.356 . S
N502 H514 0.984 . S
N502 H515 0.985 . S
N503 C505 1.356 . S
N503 H508 0.984 . S
N503 H509 0.985 . S
C504 C498 1.379 . S
C504 C501 1.363 . S
C504 N502 1.356 . S
C505 C499 1.363 . S
C505 C500 1.379 1_455 S
C505 N503 1.356 . S
N506 C498 1.356 1_455 S
N506 H512 0.984 1_455 S
N506 H513 0.984 . S
N507 C500 1.356 . S
N507 H510 0.984 . S
N507 H511 0.985 . S
H508 N503 0.984 . S
H509 N503 0.985 . S
H510 N507 0.984 . S
H511 N507 0.985 . S
H512 N506 0.984 1_655 S
H513 N506 0.984 . S
H514 N502 0.984 . S
H515 N502 0.985 . S
C516 C517 1.363 . S
C516 C522 1.379 . S
C516 N524 1.356 . S
C517 C516 1.363 . S
C517 C523 1.363 . S
C518 C519 1.363 . S
C518 C523 1.379 1_565 S
C518 N525 1.356 . S
C519 C518 1.363 . S
C519 C522 1.363 1_565 S
N520 C522 1.356 1_565 S
N520 H532 0.984 1_565 S
N520 H533 0.985 . S
N521 C523 1.356 . S
N521 H526 0.984 . S
N521 H527 0.985 . S
C522 C516 1.379 . S
C522 C519 1.363 1_545 S
C522 N520 1.356 1_545 S
C523 C517 1.363 . S
C523 C518 1.379 1_545 S
C523 N521 1.356 . S
N524 C516 1.356 . S
N524 H530 0.984 . S
N524 H531 0.984 . S
N525 C518 1.356 . S
N525 H528 0.984 . S
N525 H529 0.985 . S
H526 N521 0.984 . S
H527 N521 0.985 . S
H528 N525 0.984 . S
H529 N525 0.985 . S
H530 N524 0.984 . S
H531 N524 0.984 . S
H532 N520 0.984 1_545 S
H533 N520 0.985 . S
C534 C535 1.363 . S
C534 C540 1.379 . S
C534 N542 1.356 . S
C535 C534 1.363 . S
C535 C541 1.363 . S
C536 C537 1.363 . S
C536 C541 1.379 . S
C536 N543 1.356 . S
C537 C536 1.363 . S
C537 C540 1.363 . S
N538 C540 1.356 . S
N538 H550 0.984 . S
N538 H551 0.985 . S
N539 C541 1.356 . S
N539 H544 0.984 . S
N539 H545 0.985 . S
C540 C534 1.379 . S
C540 C537 1.363 . S
C540 N538 1.356 . S
C541 C535 1.363 . S
C541 C536 1.379 . S
C541 N539 1.356 . S
N542 C534 1.356 . S
N542 H548 0.984 . S
N542 H549 0.984 . S
N543 C536 1.356 . S
N543 H546 0.984 . S
N543 H547 0.985 . S
H544 N539 0.984 . S
H545 N539 0.985 . S
H546 N543 0.984 . S
H547 N543 0.985 . S
H548 N542 0.984 . S
H549 N542 0.984 . S
H550 N538 0.984 . S
H551 N538 0.985 . S
C552 C553 1.363 1_655 S
C552 C558 1.379 . S
C552 N560 1.356 1_655 S
C553 C552 1.363 1_455 S
C553 C559 1.363 1_455 S
C554 C555 1.363 . S
C554 C559 1.379 . S
C554 N561 1.356 . S
C555 C554 1.363 . S
C555 C558 1.363 . S
N556 C558 1.356 . S
N556 H568 0.984 . S
N556 H569 0.985 . S
N557 C559 1.356 1_455 S
N557 H562 0.984 . S
N557 H563 0.985 . S
C558 C552 1.379 . S
C558 C555 1.363 . S
C558 N556 1.356 . S
C559 C553 1.363 1_655 S
C559 C554 1.379 . S
C559 N557 1.356 1_655 S
N560 C552 1.356 1_455 S
N560 H566 0.984 . S
N560 H567 0.984 . S
N561 C554 1.356 . S
N561 H564 0.984 . S
N561 H565 0.985 . S
H562 N557 0.984 . S
H563 N557 0.985 . S
H564 N561 0.984 . S
H565 N561 0.985 . S
H566 N560 0.984 . S
H567 N560 0.984 . S
H568 N556 0.984 . S
H569 N556 0.985 . S
C570 C571 1.363 . S
C570 C576 1.379 1_565 S
C570 N578 1.356 . S
C571 C570 1.363 . S
C571 C577 1.363 1_565 S
C572 C573 1.363 . S
C572 C577 1.379 . S
C572 N579 1.356 . S
C573 C572 1.363 . S
C573 C576 1.363 . S
N574 C576 1.356 . S
N574 H586 0.984 . S
N574 H587 0.985 . S
N575 C577 1.356 1_565 S
N575 H580 0.984 . S
N575 H581 0.985 1_565 S
C576 C570 1.379 1_545 S
C576 C573 1.363 . S
C576 N574 1.356 . S
C577 C571 1.363 1_545 S
C577 C572 1.379 . S
C577 N575 1.356 1_545 S
N578 C570 1.356 . S
N578 H584 0.984 . S
N578 H585 0.984 . S
N579 C572 1.356 . S
N579 H582 0.984 . S
N579 H583 0.985 . S
H580 N575 0.984 . S
H581 N575 0.985 1_545 S
H582 N579 0.984 . S
H583 N579 0.985 . S
H584 N578 0.984 . S
H585 N578 0.984 . S
H586 N574 0.984 . S
H587 N574 0.985 . S
C588 C589 1.363 . S
C588 C594 1.379 . S
C588 N596 1.356 . S
C589 C588 1.363 . S
C589 C595 1.363 . S
C590 C591 1.363 . S
C590 C595 1.379 . S
C590 N597 1.356 . S
C591 C590 1.363 . S
C591 C594 1.363 . S
N592 C594 1.356 . S
N592 H604 0.984 . S
N592 H605 0.985 . S
N593 C595 1.356 . S
N593 H598 0.984 . S
N593 H599 0.985 . S
C594 C588 1.379 . S
C594 C591 1.363 . S
C594 N592 1.356 . S
C595 C589 1.363 . S
C595 C590 1.379 . S
C595 N593 1.356 . S
N596 C588 1.356 . S
N596 H602 0.984 . S
N596 H603 0.984 . S
N597 C590 1.356 . S
N597 H600 0.984 . S
N597 H601 0.985 . S
H598 N593 0.984 . S
H599 N593 0.985 . S
H600 N597 0.984 . S
H601 N597 0.985 . S
H602 N596 0.984 . S
H603 N596 0.984 . S
H604 N592 0.984 . S
H605 N592 0.985 . S
C606 C607 1.363 . S
C606 C612 1.379 . S
C606 N614 1.356 . S
C607 C606 1.363 . S
C607 C613 1.363 . S
C608 C609 1.363 . S
C608 C613 1.379 1_655 S
C608 N615 1.356 . S
C609 C608 1.363 . S
C609 C612 1.363 1_655 S
N610 C612 1.356 1_655 S
N610 H622 0.984 1_655 S
N610 H623 0.985 . S
N611 C613 1.356 . S
N611 H616 0.984 . S
N611 H617 0.985 . S
C612 C606 1.379 . S
C612 C609 1.363 1_455 S
C612 N610 1.356 1_455 S
C613 C607 1.363 . S
C613 C608 1.379 1_455 S
C613 N611 1.356 . S
N614 C606 1.356 . S
N614 H620 0.984 . S
N614 H621 0.984 . S
N615 C608 1.356 . S
N615 H618 0.984 . S
N615 H619 0.985 . S
H616 N611 0.984 . S
H617 N611 0.985 . S
H618 N615 0.984 . S
H619 N615 0.985 . S
H620 N614 0.984 . S
H621 N614 0.984 . S
H622 N610 0.984 1_455 S
H623 N610 0.985 . S
C624 C625 1.363 . S
C624 C630 1.379 . S
C624 N632 1.356 . S
C625 C624 1.363 . S
C625 C631 1.363 . S
C626 C627 1.363 1_565 S
C626 C631 1.379 . S
C626 N633 1.356 1_565 S
C627 C626 1.363 1_545 S
C627 C630 1.363 1_545 S
N628 C630 1.356 1_545 S
N628 H640 0.984 . S
N628 H641 0.985 . S
N629 C631 1.356 . S
N629 H634 0.984 . S
N629 H635 0.985 . S
C630 C624 1.379 . S
C630 C627 1.363 1_565 S
C630 N628 1.356 1_565 S
C631 C625 1.363 . S
C631 C626 1.379 . S
C631 N629 1.356 . S
N632 C624 1.356 . S
N632 H638 0.984 . S
N632 H639 0.984 . S
N633 C626 1.356 1_545 S
N633 H636 0.984 . S
N633 H637 0.985 . S
H634 N629 0.984 . S
H635 N629 0.985 . S
H636 N633 0.984 . S
H637 N633 0.985 . S
H638 N632 0.984 . S
H639 N632 0.984 . S
H640 N628 0.984 . S
H641 N628 0.985 . S
C642 C643 1.363 . S
C642 C648 1.379 . S
C642 N650 1.356 . S
C643 C642 1.363 . S
C643 C649 1.363 . S
C644 C645 1.363 . S
C644 C649 1.379 . S
C644 N651 1.356 . S
C645 C644 1.363 . S
C645 C648 1.363 . S
N646 C648 1.356 . S
N646 H658 0.984 . S
N646 H659 0.985 . S
N647 C649 1.356 . S
N647 H652 0.984 . S
N647 H653 0.985 . S
C648 C642 1.379 . S
C648 C645 1.363 . S
C648 N646 1.356 . S
C649 C643 1.363 . S
C649 C644 1.379 . S
C649 N647 1.356 . S
N650 C642 1.356 . S
N650 H656 0.984 . S
N650 H657 0.984 . S
N651 C644 1.356 . S
N651 H654 0.984 . S
N651 H655 0.985 . S
H652 N647 0.984 . S
H653 N647 0.985 . S
H654 N651 0.984 . S
H655 N651 0.985 . S
H656 N650 0.984 . S
H657 N650 0.984 . S
H658 N646 0.984 . S
H659 N646 0.985 . S
C660 C661 1.363 . S
C660 C666 1.379 . S
C660 N668 1.356 . S
C661 C660 1.363 . S
C661 C667 1.363 . S
C662 C663 1.363 . S
C662 C667 1.379 1_655 S
C662 N669 1.356 . S
C663 C662 1.363 . S
C663 C666 1.363 1_655 S
N664 C666 1.356 1_655 S
N664 H676 0.984 1_655 S
N664 H677 0.985 . S
N665 C667 1.356 . S
N665 H670 0.984 . S
N665 H671 0.985 . S
C666 C660 1.379 . S
C666 C663 1.363 1_455 S
C666 N664 1.356 1_455 S
C667 C661 1.363 . S
C667 C662 1.379 1_455 S
C667 N665 1.356 . S
N668 C660 1.356 . S
N668 H674 0.984 . S
N668 H675 0.984 . S
N669 C662 1.356 . S
N669 H672 0.984 . S
N669 H673 0.985 . S
H670 N665 0.984 . S
H671 N665 0.985 . S
H672 N669 0.984 . S
H673 N669 0.985 . S
H674 N668 0.984 . S
H675 N668 0.984 . S
H676 N664 0.984 1_455 S
H677 N664 0.985 . S
C678 C679 1.363 1_565 S
C678 C684 1.379 . S
C678 N686 1.356 1_565 S
C679 C678 1.363 1_545 S
C679 C685 1.363 1_545 S
C680 C681 1.363 . S
C680 C685 1.379 . S
C680 N687 1.356 . S
C681 C680 1.363 . S
C681 C684 1.363 . S
N682 C684 1.356 . S
N682 H694 0.984 . S
N682 H695 0.985 . S
N683 C685 1.356 1_545 S
N683 H688 0.984 . S
N683 H689 0.985 . S
C684 C678 1.379 . S
C684 C681 1.363 . S
C684 N682 1.356 . S
C685 C679 1.363 1_565 S
C685 C680 1.379 . S
C685 N683 1.356 1_565 S
N686 C678 1.356 1_545 S
N686 H692 0.984 . S
N686 H693 0.984 . S
N687 C680 1.356 . S
N687 H690 0.984 . S
N687 H691 0.985 . S
H688 N683 0.984 . S
H689 N683 0.985 . S
H690 N687 0.984 . S
H691 N687 0.985 . S
H692 N686 0.984 . S
H693 N686 0.984 . S
H694 N682 0.984 . S
H695 N682 0.985 . S
C696 C697 1.363 . S
C696 C702 1.379 . S
C696 N704 1.356 . S
C697 C696 1.363 . S
C697 C703 1.363 . S
C698 C699 1.363 . S
C698 C703 1.379 . S
C698 N705 1.356 . S
C699 C698 1.363 . S
C699 C702 1.363 . S
N700 C702 1.356 . S
N700 H712 0.984 . S
N700 H713 0.985 . S
N701 C703 1.356 . S
N701 H706 0.984 . S
N701 H707 0.985 . S
C702 C696 1.379 . S
C702 C699 1.363 . S
C702 N700 1.356 . S
C703 C697 1.363 . S
C703 C698 1.379 . S
C703 N701 1.356 . S
N704 C696 1.356 . S
N704 H710 0.984 . S
N704 H711 0.984 . S
N705 C698 1.356 . S
N705 H708 0.984 . S
N705 H709 0.985 . S
H706 N701 0.984 . S
H707 N701 0.985 . S
H708 N705 0.984 . S
H709 N705 0.985 . S
H710 N704 0.984 . S
H711 N704 0.984 . S
H712 N700 0.984 . S
H713 N700 0.985 . S
C714 C715 1.363 . S
C714 C720 1.379 . S
C714 N722 1.356 . S
C715 C714 1.363 . S
C715 C721 1.363 . S
C716 C717 1.363 . S
C716 C721 1.379 . S
C716 N723 1.356 . S
C717 C716 1.363 . S
C717 C720 1.363 . S
N718 C720 1.356 . S
N718 H730 0.984 . S
N718 H731 0.985 . S
N719 C721 1.356 . S
N719 H724 0.984 . S
N719 H725 0.985 . S
C720 C714 1.379 . S
C720 C717 1.363 . S
C720 N718 1.356 . S
C721 C715 1.363 . S
C721 C716 1.379 . S
C721 N719 1.356 . S
N722 C714 1.356 . S
N722 H728 0.984 . S
N722 H729 0.984 . S
N723 C716 1.356 . S
N723 H726 0.984 . S
N723 H727 0.985 . S
H724 N719 0.984 . S
H725 N719 0.985 . S
H726 N723 0.984 . S
H727 N723 0.985 . S
H728 N722 0.984 . S
H729 N722 0.984 . S
H730 N718 0.984 . S
H731 N718 0.985 . S
C732 C733 1.363 . S
C732 C738 1.379 . S
C732 N740 1.356 . S
C733 C732 1.363 . S
C733 C739 1.363 . S
C734 C735 1.363 . S
C734 C739 1.379 . S
C734 N741 1.356 . S
C735 C734 1.363 . S
C735 C738 1.363 . S
N736 C738 1.356 . S
N736 H748 0.984 . S
N736 H749 0.985 . S
N737 C739 1.356 . S
N737 H742 0.984 . S
N737 H743 0.985 . S
C738 C732 1.379 . S
C738 C735 1.363 . S
C738 N736 1.356 . S
C739 C733 1.363 . S
C739 C734 1.379 . S
C739 N737 1.356 . S
N740 C732 1.356 . S
N740 H746 0.984 . S
N740 H747 0.984 . S
N741 C734 1.356 . S
N741 H744 0.984 . S
N741 H745 0.985 . S
H742 N737 0.984 . S
H743 N737 0.985 . S
H744 N741 0.984 . S
H745 N741 0.985 . S
H746 N740 0.984 . S
H747 N740 0.984 . S
H748 N736 0.984 . S
H749 N736 0.985 . S
C750 C751 1.363 . S
C750 C756 1.379 . S
C750 N758 1.356 . S
C751 C750 1.363 . S
C751 C757 1.363 . S
C752 C753 1.363 . S
C752 C757 1.379 . S
C752 N759 1.356 . S
C753 C752 1.363 . S
C753 C756 1.363 . S
N754 C756 1.356 . S
N754 H766 0.984 . S
N754 H767 0.985 . S
N755 C757 1.356 . S
N755 H760 0.984 . S
N755 H761 0.985 . S
C756 C750 1.379 . S
C756 C753 1.363 . S
C756 N754 1.356 . S
C757 C751 1.363 . S
C757 C752 1.379 . S
C757 N755 1.356 . S
N758 C750 1.356 . S
N758 H764 0.984 . S
N758 H765 0.984 . S
N759 C752 1.356 . S
N759 H762 0.984 . S
N759 H763 0.985 . S
H760 N755 0.984 . S
H761 N755 0.985 . S
H762 N759 0.984 . S
H763 N759 0.985 . S
H764 N758 0.984 . S
H765 N758 0.984 . S
H766 N754 0.984 . S
H767 N754 0.985 . S
C768 C769 1.363 . S
C768 C774 1.379 . S
C768 N776 1.356 . S
C769 C768 1.363 . S
C769 C775 1.363 . S
C770 C771 1.363 . S
C770 C775 1.379 . S
C770 N777 1.356 . S
C771 C770 1.363 . S
C771 C774 1.363 . S
N772 C774 1.356 . S
N772 H784 0.984 . S
N772 H785 0.985 . S
N773 C775 1.356 . S
N773 H778 0.984 . S
N773 H779 0.985 . S
C774 C768 1.379 . S
C774 C771 1.363 . S
C774 N772 1.356 . S
C775 C769 1.363 . S
C775 C770 1.379 . S
C775 N773 1.356 . S
N776 C768 1.356 . S
N776 H782 0.984 . S
N776 H783 0.984 . S
N777 C770 1.356 . S
N777 H780 0.984 . S
N777 H781 0.985 . S
H778 N773 0.984 . S
H779 N773 0.985 . S
H780 N777 0.984 . S
H781 N777 0.985 . S
H782 N776 0.984 . S
H783 N776 0.984 . S
H784 N772 0.984 . S
H785 N772 0.985 . S
C786 C787 1.363 . S
C786 C792 1.379 . S
C786 N794 1.356 . S
C787 C786 1.363 . S
C787 C793 1.363 . S
C788 C789 1.363 . S
C788 C793 1.379 . S
C788 N795 1.356 . S
C789 C788 1.363 . S
C789 C792 1.363 . S
N790 C792 1.356 . S
N790 H802 0.984 . S
N790 H803 0.985 . S
N791 C793 1.356 . S
N791 H796 0.984 . S
N791 H797 0.985 . S
C792 C786 1.379 . S
C792 C789 1.363 . S
C792 N790 1.356 . S
C793 C787 1.363 . S
C793 C788 1.379 . S
C793 N791 1.356 . S
N794 C786 1.356 . S
N794 H800 0.984 . S
N794 H801 0.984 . S
N795 C788 1.356 . S
N795 H798 0.984 . S
N795 H799 0.985 . S
H796 N791 0.984 . S
H797 N791 0.985 . S
H798 N795 0.984 . S
H799 N795 0.985 . S
H800 N794 0.984 . S
H801 N794 0.984 . S
H802 N790 0.984 . S
H803 N790 0.985 . S
C804 C805 1.363 1_554 S
C804 C810 1.379 1_565 S
C804 N812 1.356 . S
C805 C804 1.363 1_556 S
C805 C811 1.363 . S
C806 C807 1.363 1_556 S
C806 C811 1.379 1_545 S
C806 N813 1.356 . S
C807 C806 1.363 1_554 S
C807 C810 1.363 . S
N808 C810 1.356 . S
N808 H820 0.984 . S
N808 H821 0.985 . S
N809 C811 1.356 . S
N809 H814 0.984 . S
N809 H815 0.985 . S
C810 C804 1.379 1_545 S
C810 C807 1.363 . S
C810 N808 1.356 . S
C811 C805 1.363 . S
C811 C806 1.379 1_565 S
C811 N809 1.356 . S
N812 C804 1.356 . S
N812 H818 0.984 . S
N812 H819 0.984 . S
N813 C806 1.356 . S
N813 H816 0.984 . S
N813 H817 0.985 . S
H814 N809 0.984 . S
H815 N809 0.985 . S
H816 N813 0.984 . S
H817 N813 0.985 . S
H818 N812 0.984 . S
H819 N812 0.984 . S
H820 N808 0.984 . S
H821 N808 0.985 . S
C822 C823 1.363 . S
C822 C828 1.379 . S
C822 N830 1.356 . S
C823 C822 1.363 . S
C823 C829 1.363 . S
C824 C825 1.363 . S
C824 C829 1.379 . S
C824 N831 1.356 . S
C825 C824 1.363 . S
C825 C828 1.363 . S
N826 C828 1.356 . S
N826 H838 0.984 . S
N826 H839 0.985 . S
N827 C829 1.356 . S
N827 H832 0.984 . S
N827 H833 0.985 . S
C828 C822 1.379 . S
C828 C825 1.363 . S
C828 N826 1.356 . S
C829 C823 1.363 . S
C829 C824 1.379 . S
C829 N827 1.356 . S
N830 C822 1.356 . S
N830 H836 0.984 . S
N830 H837 0.984 . S
N831 C824 1.356 . S
N831 H834 0.984 . S
N831 H835 0.985 . S
H832 N827 0.984 . S
H833 N827 0.985 . S
H834 N831 0.984 . S
H835 N831 0.985 . S
H836 N830 0.984 . S
H837 N830 0.984 . S
H838 N826 0.984 . S
H839 N826 0.985 . S
C840 C841 1.363 1_554 S
C840 C846 1.379 1_455 S
C840 N848 1.356 . S
C841 C840 1.363 1_556 S
C841 C847 1.363 . S
C842 C843 1.363 1_556 S
C842 C847 1.379 1_655 S
C842 N849 1.356 . S
C843 C842 1.363 1_554 S
C843 C846 1.363 . S
N844 C846 1.356 . S
N844 H856 0.984 . S
N844 H857 0.985 . S
N845 C847 1.356 . S
N845 H850 0.984 . S
N845 H851 0.985 . S
C846 C840 1.379 1_655 S
C846 C843 1.363 . S
C846 N844 1.356 . S
C847 C841 1.363 . S
C847 C842 1.379 1_455 S
C847 N845 1.356 . S
N848 C840 1.356 . S
N848 H854 0.984 . S
N848 H855 0.984 . S
N849 C842 1.356 . S
N849 H852 0.984 . S
N849 H853 0.985 . S
H850 N845 0.984 . S
H851 N845 0.985 . S
H852 N849 0.984 . S
H853 N849 0.985 . S
H854 N848 0.984 . S
H855 N848 0.984 . S
H856 N844 0.984 . S
H857 N844 0.985 . S
C858 C859 1.363 . S
C858 C864 1.379 1_545 S
C858 N866 1.356 . S
C859 C858 1.363 . S
C859 C865 1.363 . S
C860 C861 1.363 . S
C860 C865 1.379 1_565 S
C860 N867 1.356 . S
C861 C860 1.363 . S
C861 C864 1.363 . S
N862 C864 1.356 . S
N862 H874 0.984 . S
N862 H875 0.985 . S
N863 C865 1.356 . S
N863 H868 0.984 . S
N863 H869 0.985 . S
C864 C858 1.379 1_565 S
C864 C861 1.363 . S
C864 N862 1.356 . S
C865 C859 1.363 . S
C865 C860 1.379 1_545 S
C865 N863 1.356 . S
N866 C858 1.356 . S
N866 H872 0.984 . S
N866 H873 0.984 . S
N867 C860 1.356 . S
N867 H870 0.984 . S
N867 H871 0.985 . S
H868 N863 0.984 . S
H869 N863 0.985 . S
H870 N867 0.984 . S
H871 N867 0.985 . S
H872 N866 0.984 . S
H873 N866 0.984 . S
H874 N862 0.984 . S
H875 N862 0.985 . S
C876 C877 1.363 . S
C876 C882 1.379 . S
C876 N884 1.356 . S
C877 C876 1.363 . S
C877 C883 1.363 1_554 S
C878 C879 1.363 . S
C878 C883 1.379 . S
C878 N885 1.356 . S
C879 C878 1.363 . S
C879 C882 1.363 1_556 S
N880 C882 1.356 . S
N880 H892 0.984 . S
N880 H893 0.985 . S
N881 C883 1.356 . S
N881 H886 0.984 . S
N881 H887 0.985 . S
C882 C876 1.379 . S
C882 C879 1.363 1_554 S
C882 N880 1.356 . S
C883 C877 1.363 1_556 S
C883 C878 1.379 . S
C883 N881 1.356 . S
N884 C876 1.356 . S
N884 H890 0.984 . S
N884 H891 0.984 . S
N885 C878 1.356 . S
N885 H888 0.984 . S
N885 H889 0.985 . S
H886 N881 0.984 . S
H887 N881 0.985 . S
H888 N885 0.984 . S
H889 N885 0.985 . S
H890 N884 0.984 . S
H891 N884 0.984 . S
H892 N880 0.984 . S
H893 N880 0.985 . S
C894 C895 1.363 . S
C894 C900 1.379 1_455 S
C894 N902 1.356 . S
C895 C894 1.363 . S
C895 C901 1.363 . S
C896 C897 1.363 . S
C896 C901 1.379 1_655 S
C896 N903 1.356 . S
C897 C896 1.363 . S
C897 C900 1.363 . S
N898 C900 1.356 . S
N898 H910 0.984 . S
N898 H911 0.985 . S
N899 C901 1.356 . S
N899 H904 0.984 . S
N899 H905 0.985 . S
C900 C894 1.379 1_655 S
C900 C897 1.363 . S
C900 N898 1.356 . S
C901 C895 1.363 . S
C901 C896 1.379 1_455 S
C901 N899 1.356 . S
N902 C894 1.356 . S
N902 H908 0.984 . S
N902 H909 0.984 . S
N903 C896 1.356 . S
N903 H906 0.984 . S
N903 H907 0.985 . S
H904 N899 0.984 . S
H905 N899 0.985 . S
H906 N903 0.984 . S
H907 N903 0.985 . S
H908 N902 0.984 . S
H909 N902 0.984 . S
H910 N898 0.984 . S
H911 N898 0.985 . S
C912 C913 1.363 . S
C912 C918 1.379 . S
C912 N920 1.356 . S
C913 C912 1.363 . S
C913 C919 1.363 . S
C914 C915 1.363 . S
C914 C919 1.379 . S
C914 N921 1.356 . S
C915 C914 1.363 . S
C915 C918 1.363 . S
N916 C918 1.356 . S
N916 H928 0.984 . S
N916 H929 0.985 . S
N917 C919 1.356 . S
N917 H922 0.984 . S
N917 H923 0.985 . S
C918 C912 1.379 . S
C918 C915 1.363 . S
C918 N916 1.356 . S
C919 C913 1.363 . S
C919 C914 1.379 . S
C919 N917 1.356 . S
N920 C912 1.356 . S
N920 H926 0.984 . S
N920 H927 0.984 . S
N921 C914 1.356 . S
N921 H924 0.984 . S
N921 H925 0.985 . S
H922 N917 0.984 . S
H923 N917 0.985 . S
H924 N921 0.984 . S
H925 N921 0.985 . S
H926 N920 0.984 . S
H927 N920 0.984 . S
H928 N916 0.984 . S
H929 N916 0.985 . S
C930 C931 1.363 . S
C930 C936 1.379 . S
C930 N938 1.356 . S
C931 C930 1.363 . S
C931 C937 1.363 . S
C932 C933 1.363 . S
C932 C937 1.379 . S
C932 N939 1.356 . S
C933 C932 1.363 . S
C933 C936 1.363 . S
N934 C936 1.356 . S
N934 H946 0.984 . S
N934 H947 0.985 . S
N935 C937 1.356 . S
N935 H940 0.984 . S
N935 H941 0.985 . S
C936 C930 1.379 . S
C936 C933 1.363 . S
C936 N934 1.356 . S
C937 C931 1.363 . S
C937 C932 1.379 . S
C937 N935 1.356 . S
N938 C930 1.356 . S
N938 H944 0.984 . S
N938 H945 0.984 . S
N939 C932 1.356 . S
N939 H942 0.984 . S
N939 H943 0.985 . S
H940 N935 0.984 . S
H941 N935 0.985 . S
H942 N939 0.984 . S
H943 N939 0.985 . S
H944 N938 0.984 . S
H945 N938 0.984 . S
H946 N934 0.984 . S
H947 N934 0.985 . S
C948 C949 1.363 . S
C948 C954 1.379 . S
C948 N956 1.356 . S
C949 C948 1.363 . S
C949 C955 1.363 . S
C950 C951 1.363 . S
C950 C955 1.379 . S
C950 N957 1.356 . S
C951 C950 1.363 . S
C951 C954 1.363 . S
N952 C954 1.356 . S
N952 H964 0.984 . S
N952 H965 0.985 . S
N953 C955 1.356 . S
N953 H958 0.984 . S
N953 H959 0.985 . S
C954 C948 1.379 . S
C954 C951 1.363 . S
C954 N952 1.356 . S
C955 C949 1.363 . S
C955 C950 1.379 . S
C955 N953 1.356 . S
N956 C948 1.356 . S
N956 H962 0.984 . S
N956 H963 0.984 . S
N957 C950 1.356 . S
N957 H960 0.984 . S
N957 H961 0.985 . S
H958 N953 0.984 . S
H959 N953 0.985 . S
H960 N957 0.984 . S
H961 N957 0.985 . S
H962 N956 0.984 . S
H963 N956 0.984 . S
H964 N952 0.984 . S
H965 N952 0.985 . S
C966 C967 1.363 . S
C966 C972 1.379 . S
C966 N974 1.356 . S
C967 C966 1.363 . S
C967 C973 1.363 . S
C968 C969 1.363 . S
C968 C973 1.379 . S
C968 N975 1.356 . S
C969 C968 1.363 . S
C969 C972 1.363 . S
N970 C972 1.356 . S
N970 H982 0.984 . S
N970 H983 0.985 . S
N971 C973 1.356 . S
N971 H976 0.984 . S
N971 H977 0.985 . S
C972 C966 1.379 . S
C972 C969 1.363 . S
C972 N970 1.356 . S
C973 C967 1.363 . S
C973 C968 1.379 . S
C973 N971 1.356 . S
N974 C966 1.356 . S
N974 H980 0.984 . S
N974 H981 0.984 . S
N975 C968 1.356 . S
N975 H978 0.984 . S
N975 H979 0.985 . S
H976 N971 0.984 . S
H977 N971 0.985 . S
H978 N975 0.984 . S
H979 N975 0.985 . S
H980 N974 0.984 . S
H981 N974 0.984 . S
H982 N970 0.984 . S
H983 N970 0.985 . S
C984 C985 1.363 . S
C984 C990 1.379 . S
C984 N992 1.356 . S
C985 C984 1.363 . S
C985 C991 1.363 . S
C986 C987 1.363 . S
C986 C991 1.379 . S
C986 N993 1.356 . S
C987 C986 1.363 . S
C987 C990 1.363 . S
N988 C990 1.356 . S
N988 H1000 0.984 . S
N988 H1001 0.985 . S
N989 C991 1.356 . S
N989 H994 0.984 . S
N989 H995 0.985 . S
C990 C984 1.379 . S
C990 C987 1.363 . S
C990 N988 1.356 . S
C991 C985 1.363 . S
C991 C986 1.379 . S
C991 N989 1.356 . S
N992 C984 1.356 . S
N992 H998 0.984 . S
N992 H999 0.984 . S
N993 C986 1.356 . S
N993 H996 0.984 . S
N993 H997 0.985 . S
H994 N989 0.984 . S
H995 N989 0.985 . S
H996 N993 0.984 . S
H997 N993 0.985 . S
H998 N992 0.984 . S
H999 N992 0.984 . S
H1000 N988 0.984 . S
H1001 N988 0.985 . S
C1002 C1003 1.363 . S
C1002 C1008 1.379 . S
C1002 N1010 1.356 . S
C1003 C1002 1.363 . S
C1003 C1009 1.363 . S
C1004 C1005 1.363 . S
C1004 C1009 1.379 . S
C1004 N1011 1.356 . S
C1005 C1004 1.363 . S
C1005 C1008 1.363 . S
N1006 C1008 1.356 . S
N1006 H1018 0.984 . S
N1006 H1019 0.985 . S
N1007 C1009 1.356 . S
N1007 H1012 0.984 . S
N1007 H1013 0.985 . S
C1008 C1002 1.379 . S
C1008 C1005 1.363 . S
C1008 N1006 1.356 . S
C1009 C1003 1.363 . S
C1009 C1004 1.379 . S
C1009 N1007 1.356 . S
N1010 C1002 1.356 . S
N1010 H1016 0.984 . S
N1010 H1017 0.984 . S
N1011 C1004 1.356 . S
N1011 H1014 0.984 . S
N1011 H1015 0.985 . S
H1012 N1007 0.984 . S
H1013 N1007 0.985 . S
H1014 N1011 0.984 . S
H1015 N1011 0.985 . S
H1016 N1010 0.984 . S
H1017 N1010 0.984 . S
H1018 N1006 0.984 . S
H1019 N1006 0.985 . S
C1020 C1021 1.363 . S
C1020 C1026 1.379 . S
C1020 N1028 1.356 . S
C1021 C1020 1.363 . S
C1021 C1027 1.363 . S
C1022 C1023 1.363 . S
C1022 C1027 1.379 . S
C1022 N1029 1.356 . S
C1023 C1022 1.363 . S
C1023 C1026 1.363 . S
N1024 C1026 1.356 . S
N1024 H1036 0.984 . S
N1024 H1037 0.985 . S
N1025 C1027 1.356 . S
N1025 H1030 0.984 . S
N1025 H1031 0.985 . S
C1026 C1020 1.379 . S
C1026 C1023 1.363 . S
C1026 N1024 1.356 . S
C1027 C1021 1.363 . S
C1027 C1022 1.379 . S
C1027 N1025 1.356 . S
N1028 C1020 1.356 . S
N1028 H1034 0.984 . S
N1028 H1035 0.984 . S
N1029 C1022 1.356 . S
N1029 H1032 0.984 . S
N1029 H1033 0.985 . S
H1030 N1025 0.984 . S
H1031 N1025 0.985 . S
H1032 N1029 0.984 . S
H1033 N1029 0.985 . S
H1034 N1028 0.984 . S
H1035 N1028 0.984 . S
H1036 N1024 0.984 . S
H1037 N1024 0.985 . S
C1038 C1039 1.363 . S
C1038 C1044 1.379 . S
C1038 N1046 1.356 . S
C1039 C1038 1.363 . S
C1039 C1045 1.363 . S
C1040 C1041 1.363 . S
C1040 C1045 1.379 . S
C1040 N1047 1.356 . S
C1041 C1040 1.363 . S
C1041 C1044 1.363 . S
N1042 C1044 1.356 . S
N1042 H1054 0.984 . S
N1042 H1055 0.985 . S
N1043 C1045 1.356 . S
N1043 H1048 0.984 . S
N1043 H1049 0.985 . S
C1044 C1038 1.379 . S
C1044 C1041 1.363 . S
C1044 N1042 1.356 . S
C1045 C1039 1.363 . S
C1045 C1040 1.379 . S
C1045 N1043 1.356 . S
N1046 C1038 1.356 . S
N1046 H1052 0.984 . S
N1046 H1053 0.984 . S
N1047 C1040 1.356 . S
N1047 H1050 0.984 . S
N1047 H1051 0.985 . S
H1048 N1043 0.984 . S
H1049 N1043 0.985 . S
H1050 N1047 0.984 . S
H1051 N1047 0.985 . S
H1052 N1046 0.984 . S
H1053 N1046 0.984 . S
H1054 N1042 0.984 . S
H1055 N1042 0.985 . S
C1056 C1057 1.363 . S
C1056 C1062 1.379 . S
C1056 N1064 1.356 . S
C1057 C1056 1.363 . S
C1057 C1063 1.363 . S
C1058 C1059 1.363 . S
C1058 C1063 1.379 . S
C1058 N1065 1.356 . S
C1059 C1058 1.363 . S
C1059 C1062 1.363 . S
N1060 C1062 1.356 . S
N1060 H1072 0.984 . S
N1060 H1073 0.985 . S
N1061 C1063 1.356 . S
N1061 H1066 0.984 . S
N1061 H1067 0.985 . S
C1062 C1056 1.379 . S
C1062 C1059 1.363 . S
C1062 N1060 1.356 . S
C1063 C1057 1.363 . S
C1063 C1058 1.379 . S
C1063 N1061 1.356 . S
N1064 C1056 1.356 . S
N1064 H1070 0.984 . S
N1064 H1071 0.984 . S
N1065 C1058 1.356 . S
N1065 H1068 0.984 . S
N1065 H1069 0.985 . S
H1066 N1061 0.984 . S
H1067 N1061 0.985 . S
H1068 N1065 0.984 . S
H1069 N1065 0.985 . S
H1070 N1064 0.984 . S
H1071 N1064 0.984 . S
H1072 N1060 0.984 . S
H1073 N1060 0.985 . S
C1074 C1075 1.363 . S
C1074 C1080 1.379 . S
C1074 N1082 1.356 . S
C1075 C1074 1.363 . S
C1075 C1081 1.363 . S
C1076 C1077 1.363 . S
C1076 C1081 1.379 . S
C1076 N1083 1.356 . S
C1077 C1076 1.363 . S
C1077 C1080 1.363 . S
N1078 C1080 1.356 . S
N1078 H1090 0.984 . S
N1078 H1091 0.985 . S
N1079 C1081 1.356 . S
N1079 H1084 0.984 . S
N1079 H1085 0.985 . S
C1080 C1074 1.379 . S
C1080 C1077 1.363 . S
C1080 N1078 1.356 . S
C1081 C1075 1.363 . S
C1081 C1076 1.379 . S
C1081 N1079 1.356 . S
N1082 C1074 1.356 . S
N1082 H1088 0.984 . S
N1082 H1089 0.984 . S
N1083 C1076 1.356 . S
N1083 H1086 0.984 . S
N1083 H1087 0.985 . S
H1084 N1079 0.984 . S
H1085 N1079 0.985 . S
H1086 N1083 0.984 . S
H1087 N1083 0.985 . S
H1088 N1082 0.984 . S
H1089 N1082 0.984 . S
H1090 N1078 0.984 . S
H1091 N1078 0.985 . S
C1092 C1093 1.363 . S
C1092 C1098 1.379 . S
C1092 N1100 1.356 . S
C1093 C1092 1.363 . S
C1093 C1099 1.363 . S
C1094 C1095 1.363 . S
C1094 C1099 1.379 . S
C1094 N1101 1.356 . S
C1095 C1094 1.363 . S
C1095 C1098 1.363 . S
N1096 C1098 1.356 . S
N1096 H1108 0.984 . S
N1096 H1109 0.985 . S
N1097 C1099 1.356 . S
N1097 H1102 0.984 . S
N1097 H1103 0.985 . S
C1098 C1092 1.379 . S
C1098 C1095 1.363 . S
C1098 N1096 1.356 . S
C1099 C1093 1.363 . S
C1099 C1094 1.379 . S
C1099 N1097 1.356 . S
N1100 C1092 1.356 . S
N1100 H1106 0.984 . S
N1100 H1107 0.984 . S
N1101 C1094 1.356 . S
N1101 H1104 0.984 . S
N1101 H1105 0.985 . S
H1102 N1097 0.984 . S
H1103 N1097 0.985 . S
H1104 N1101 0.984 . S
H1105 N1101 0.985 . S
H1106 N1100 0.984 . S
H1107 N1100 0.984 . S
H1108 N1096 0.984 . S
H1109 N1096 0.985 . S
C1110 C1111 1.363 . S
C1110 C1116 1.379 . S
C1110 N1118 1.356 . S
C1111 C1110 1.363 . S
C1111 C1117 1.363 . S
C1112 C1113 1.363 . S
C1112 C1117 1.379 . S
C1112 N1119 1.356 . S
C1113 C1112 1.363 . S
C1113 C1116 1.363 . S
N1114 C1116 1.356 . S
N1114 H1126 0.984 . S
N1114 H1127 0.985 . S
N1115 C1117 1.356 . S
N1115 H1120 0.984 . S
N1115 H1121 0.985 . S
C1116 C1110 1.379 . S
C1116 C1113 1.363 . S
C1116 N1114 1.356 . S
C1117 C1111 1.363 . S
C1117 C1112 1.379 . S
C1117 N1115 1.356 . S
N1118 C1110 1.356 . S
N1118 H1124 0.984 . S
N1118 H1125 0.984 . S
N1119 C1112 1.356 . S
N1119 H1122 0.984 . S
N1119 H1123 0.985 . S
H1120 N1115 0.984 . S
H1121 N1115 0.985 . S
H1122 N1119 0.984 . S
H1123 N1119 0.985 . S
H1124 N1118 0.984 . S
H1125 N1118 0.984 . S
H1126 N1114 0.984 . S
H1127 N1114 0.985 . S
C481 C95 1.396 . S
C483 C19 1.344 . S
C499 C126 1.396 . S
C501 C50 1.344 . S
C517 C99 1.344 . S
C519 C175 1.396 . S
C535 C130 1.344 . S
C537 C206 1.396 . S
C553 C15 1.396 . S
C555 C179 1.344 . S
C571 C46 1.396 . S
C573 C210 1.344 . S
C589 C406 1.396 . S
C591 C250 1.344 . S
C607 C299 1.344 . S
C609 C455 1.396 . S
C625 C330 1.344 . S
C627 C246 1.396 . S
C643 C379 1.344 . S
C645 C295 1.396 . S
C661 C410 1.344 . S
C663 C326 1.396 . S
C679 C375 1.396 . S
C681 C459 1.344 . S
C697 C129 1.686 . S
C699 C18 1.686 . S
C715 C49 1.686 . S
C717 C178 1.686 . S
C733 C98 1.686 . S
C735 C209 1.686 . S
C751 C249 1.686 . S
C753 C378 1.686 . S
C769 C298 1.686 . S
C771 C409 1.686 . S
C787 C329 1.686 . S
C789 C458 1.686 . S
C805 C289 2.530 . S
C807 C9 2.530 . S
C823 C58 2.530 . S
C825 C338 2.530 . S
C841 C369 2.530 . S
C843 C89 2.530 . S
C859 C138 2.530 . S
C861 C418 2.530 . S
C877 C169 2.530 . S
C879 C449 2.530 . S
C895 C258 2.530 . S
C897 C218 2.530 . S
C913 C86 1.798 . S
C915 C10 1.832 . S
C931 C59 1.832 . S
C933 C135 1.798 . S
C949 C90 1.832 . S
C951 C166 1.798 . S
C967 C139 1.832 . S
C969 C215 1.798 . S
C985 C6 1.798 . S
C987 C170 1.832 . S
C1003 C55 1.798 . S
C1005 C219 1.832 . S
C1021 C415 1.798 . S
C1023 C259 1.832 . S
C1039 C290 1.832 . S
C1041 C446 1.798 . S
C1057 C339 1.832 . S
C1059 C255 1.798 . S
C1075 C286 1.798 . S
C1077 C370 1.832 . S
C1093 C419 1.832 . S
C1095 C335 1.798 . S
C1111 C450 1.832 . S
C1113 C366 1.798 . S
