# Generated by pormake.
# Topology ecn, (8)-cn, num edge types: 1
# Building blocks:
#     Node 0, Type 0, BuildingBlock: EBIMEJ_clean_sbu_0, # of connection points: 8
#     Node 1, Type 0, BuildingBlock: EBIMEJ_clean_sbu_0, # of connection points: 8
#     Node 2, Type 0, BuildingBlock: EBIMEJ_clean_sbu_0, # of connection points: 8
#     Node 3, Type 0, BuildingBlock: EBIMEJ_clean_sbu_0, # of connection points: 8
#     Node 4, Type 0, BuildingBlock: EBIMEJ_clean_sbu_0, # of connection points: 8
#     Node 5, Type 0, BuildingBlock: EBIMEJ_clean_sbu_0, # of connection points: 8
#     Node 6, Type 0, BuildingBlock: EBIMEJ_clean_sbu_0, # of connection points: 8
#     Node 7, Type 0, BuildingBlock: EBIMEJ_clean_sbu_0, # of connection points: 8
#     Node 8, Type 0, BuildingBlock: EBIMEJ_clean_sbu_0, # of connection points: 8
#     Edge 9, Type (0, 0), BuildingBlock: XIVTED_clean_linker_0, # of connection points: 2
#     Edge 10, Type (0, 0), BuildingBlock: XIVTED_clean_linker_0, # of connection points: 2
#     Edge 11, Type (0, 0), BuildingBlock: XIVTED_clean_linker_0, # of connection points: 2
#     Edge 12, Type (0, 0), BuildingBlock: XIVTED_clean_linker_0, # of connection points: 2
#     Edge 13, Type (0, 0), BuildingBlock: XIVTED_clean_linker_0, # of connection points: 2
#     Edge 14, Type (0, 0), BuildingBlock: XIVTED_clean_linker_0, # of connection points: 2
#     Edge 15, Type (0, 0), BuildingBlock: XIVTED_clean_linker_0, # of connection points: 2
#     Edge 16, Type (0, 0), BuildingBlock: XIVTED_clean_linker_0, # of connection points: 2
#     Edge 17, Type (0, 0), BuildingBlock: XIVTED_clean_linker_0, # of connection points: 2
#     Edge 18, Type (0, 0), BuildingBlock: XIVTED_clean_linker_0, # of connection points: 2
#     Edge 19, Type (0, 0), BuildingBlock: XIVTED_clean_linker_0, # of connection points: 2
#     Edge 20, Type (0, 0), BuildingBlock: XIVTED_clean_linker_0, # of connection points: 2
#     Edge 21, Type (0, 0), BuildingBlock: XIVTED_clean_linker_0, # of connection points: 2
#     Edge 22, Type (0, 0), BuildingBlock: XIVTED_clean_linker_0, # of connection points: 2
#     Edge 23, Type (0, 0), BuildingBlock: XIVTED_clean_linker_0, # of connection points: 2
#     Edge 24, Type (0, 0), BuildingBlock: XIVTED_clean_linker_0, # of connection points: 2
#     Edge 25, Type (0, 0), BuildingBlock: XIVTED_clean_linker_0, # of connection points: 2
#     Edge 26, Type (0, 0), BuildingBlock: XIVTED_clean_linker_0, # of connection points: 2
#     Edge 27, Type (0, 0), BuildingBlock: XIVTED_clean_linker_0, # of connection points: 2
#     Edge 28, Type (0, 0), BuildingBlock: XIVTED_clean_linker_0, # of connection points: 2
#     Edge 29, Type (0, 0), BuildingBlock: XIVTED_clean_linker_0, # of connection points: 2
#     Edge 30, Type (0, 0), BuildingBlock: XIVTED_clean_linker_0, # of connection points: 2
#     Edge 31, Type (0, 0), BuildingBlock: XIVTED_clean_linker_0, # of connection points: 2
#     Edge 32, Type (0, 0), BuildingBlock: XIVTED_clean_linker_0, # of connection points: 2
#     Edge 33, Type (0, 0), BuildingBlock: XIVTED_clean_linker_0, # of connection points: 2
#     Edge 34, Type (0, 0), BuildingBlock: XIVTED_clean_linker_0, # of connection points: 2
#     Edge 35, Type (0, 0), BuildingBlock: XIVTED_clean_linker_0, # of connection points: 2
#     Edge 36, Type (0, 0), BuildingBlock: XIVTED_clean_linker_0, # of connection points: 2
#     Edge 37, Type (0, 0), BuildingBlock: XIVTED_clean_linker_0, # of connection points: 2
#     Edge 38, Type (0, 0), BuildingBlock: XIVTED_clean_linker_0, # of connection points: 2
#     Edge 39, Type (0, 0), BuildingBlock: XIVTED_clean_linker_0, # of connection points: 2
#     Edge 40, Type (0, 0), BuildingBlock: XIVTED_clean_linker_0, # of connection points: 2
#     Edge 41, Type (0, 0), BuildingBlock: XIVTED_clean_linker_0, # of connection points: 2
#     Edge 42, Type (0, 0), BuildingBlock: XIVTED_clean_linker_0, # of connection points: 2
#     Edge 43, Type (0, 0), BuildingBlock: XIVTED_clean_linker_0, # of connection points: 2
#     Edge 44, Type (0, 0), BuildingBlock: XIVTED_clean_linker_0, # of connection points: 2
# Relax obj value: 0.176
# Max RMSD: 0.239
# Mean RMSD: 0.239
data_MOF--net-ecn--node1-EBIMEJ_clean_sbu_0--edge1-XIVTED_clean_linker_0
_symmetry_space_group_name_H-M    P1
_symmetry_Int_Tables_number       1
_symmetry_cell_setting            triclinic
loop_
_symmetry_equiv_pos_as_xyz
'x, y, z'
_cell_length_a     54.128704
_cell_length_b     54.129746
_cell_length_c     15.653671
_cell_angle_alpha  90.054901
_cell_angle_beta   90.019397
_cell_angle_gamma 120.01298
loop_
_atom_site_label
_atom_site_type_symbol
_atom_site_fract_x
_atom_site_fract_y
_atom_site_fract_z
_atom_type_partial_charge
Co0 Co 0.18057 0.2972 0.95003 0.0
Co1 Co 0.14332 0.23317 0.02189 0.0
Co2 Co 0.11274 0.26555 0.98805 0.0
H3 H 0.1466 0.27785 0.98835 0.0
O4 O 0.15117 0.27249 0.03453 0.0
H5 H 0.11022 0.22004 0.01515 0.0
O6 O 0.1053 0.22626 0.97176 0.0
Co7 Co 0.07662 0.19662 0.04748 0.0
O8 O 0.09109 0.16827 0.0589 0.0
O9 O 0.13533 0.19353 0.0078 0.0
O10 O 0.05195 0.21493 0.0562 0.0
O11 O 0.07144 0.25411 0.97246 0.0
O12 O 0.21741 0.30985 0.8804 0.0
O13 O 0.21212 0.33961 0.94939 0.0
O14 O 0.08939 0.21996 0.15409 0.0
O15 O 0.13363 0.22768 0.14712 0.0
C16 C 0.1439 0.32659 0.95055 0.0
C17 C 0.20627 0.26547 0.04639 0.0
C18 C 0.03276 0.14946 0.02699 0.0
C19 C 0.13784 0.26581 0.8187 0.0
C20 C 0.11438 0.17013 0.03344 0.0
C21 C 0.05082 0.23522 0.01797 0.0
C22 C 0.22826 0.33568 0.90053 0.0
C23 C 0.11313 0.2271 0.18909 0.0
O24 O 0.16569 0.32482 0.92723 0.0
O25 O 0.12292 0.30645 0.99118 0.0
O26 O 0.182 0.24333 0.05699 0.0
O27 O 0.20941 0.28772 0.00763 0.0
O28 O 0.03367 0.16959 0.06932 0.0
O29 O 0.05665 0.15615 -0.00414 0.0
O30 O 0.16103 0.27024 0.85258 0.0
O31 O 0.11925 0.26869 0.86111 0.0
Co32 Co 0.73659 0.88981 0.95284 0.0
Co33 Co 0.80067 0.91699 0.02358 0.0
Co34 Co 0.76856 0.85395 0.99127 0.0
H35 H 0.75611 0.87539 0.99122 0.0
O36 O 0.76153 0.88542 0.03726 0.0
H37 H 0.81401 0.89716 0.0178 0.0
O38 O 0.80782 0.88589 0.97463 0.0
Co39 Co 0.83755 0.88726 0.05127 0.0
O40 O 0.86669 0.93007 0.04729 0.0
O41 O 0.84 0.94887 0.00835 0.0
O42 O 0.81942 0.84427 0.05923 0.0
O43 O 0.7801 0.82421 0.9759 0.0
O44 O 0.69384 0.87674 0.93961 0.0
O45 O 0.72454 0.91625 0.89354 0.0
O46 O 0.8138 0.87671 0.15707 0.0
O47 O 0.80664 0.91353 0.14878 0.0
C48 C 0.70743 0.82379 0.9546 0.0
C49 C 0.76797 0.94711 0.04965 0.0
C50 C 0.88541 0.89139 0.04657 0.0
C51 C 0.76738 0.87784 0.82064 0.0
C52 C 0.86407 0.95131 0.02533 0.0
C53 C 0.79915 0.82272 0.02123 0.0
C54 C 0.69831 0.89905 0.90166 0.0
C55 C 0.80687 0.89357 0.1914 0.0
O56 O 0.70904 0.84725 0.93112 0.0
O57 O 0.72772 0.82309 -0.00514 0.0
O58 O 0.79041 0.94542 0.05794 0.0
O59 O 0.7455 0.9277 0.01238 0.0
O60 O 0.87909 0.90633 0.09301 0.0
O61 O 0.86459 0.87418 0.00183 0.0
O62 O 0.76257 0.89653 0.85331 0.0
O63 O 0.76521 0.85691 0.86429 0.0
Co64 Co 0.1441 0.85367 0.9516 0.0
Co65 Co 0.11711 0.89063 0.0236 0.0
Co66 Co 0.18009 0.92141 0.99025 0.0
H67 H 0.15861 0.88757 0.99049 0.0
O68 O 0.14865 0.88294 0.03662 0.0
H69 H 0.13709 0.92376 0.01821 0.0
O70 O 0.14823 0.92887 0.97481 0.0
Co71 Co 0.14728 0.95713 0.05293 0.0
O72 O 0.10443 0.943 0.05712 0.0
O73 O 0.08543 0.89847 0.00838 0.0
O74 O 0.19028 0.98229 0.0579 0.0
O75 O 0.20989 0.96266 0.97427 0.0
O76 O 0.11855 0.81595 0.88706 0.0
O77 O 0.15634 0.82323 0.94312 0.0
O78 O 0.1588 0.94339 0.15544 0.0
O79 O 0.12082 0.90014 0.14905 0.0
C80 C 0.21009 0.89045 0.9516 0.0
C81 C 0.08688 0.82769 0.0485 0.0
C82 C 0.14292 1.00077 0.04849 0.0
C83 C 0.15499 0.8963 0.82101 0.0
C84 C 0.08311 0.91976 0.03113 0.0
C85 C 0.21161 0.98341 0.01911 0.0
C86 C 0.1349 0.80614 0.90016 0.0
C87 C 0.14153 0.91998 0.19074 0.0
O88 O 0.18656 0.86865 0.92807 0.0
O89 O 0.21087 0.91132 0.99282 0.0
O90 O 0.08855 0.85181 0.05773 0.0
O91 O 0.10626 0.82474 0.01073 0.0
O92 O 0.1291 0.98008 0.09789 0.0
O93 O 0.15913 0.99663 0.00073 0.0
O94 O 0.13627 0.87312 0.85492 0.0
O95 O 0.17655 0.91485 0.86327 0.0
Co96 Co 0.847 0.63088 0.28505 0.0
Co97 Co 0.81 0.56667 0.35533 0.0
Co98 Co 0.77928 0.59908 0.32447 0.0
H99 H 0.81312 0.61139 0.32401 0.0
O100 O 0.81784 0.60592 0.36971 0.0
H101 H 0.77687 0.55363 0.35117 0.0
O102 O 0.7716 0.55969 0.30822 0.0
Co103 Co 0.74366 0.53053 0.38694 0.0
O104 O 0.7578 0.50179 0.39044 0.0
O105 O 0.80195 0.52711 0.33901 0.0
O106 O 0.71843 0.5483 0.39216 0.0
O107 O 0.73802 0.58776 0.30954 0.0
O108 O 0.88428 0.6434 0.21785 0.0
O109 O 0.87792 0.67349 0.28087 0.0
O110 O 0.75795 0.55578 0.48949 0.0
O111 O 0.80105 0.56079 0.48103 0.0
C112 C 0.8103 0.66009 0.28628 0.0
C113 C 0.87298 0.59935 0.38014 0.0
C114 C 0.69997 0.48256 0.38401 0.0
C115 C 0.80403 0.5995 0.15412 0.0
C116 C 0.78082 0.50358 0.36294 0.0
C117 C 0.71731 0.5686 0.35408 0.0
C118 C 0.89455 0.6694 0.23478 0.0
C119 C 0.7815 0.56182 0.52376 0.0
O120 O 0.83202 0.65834 0.26217 0.0
O121 O 0.78951 0.64001 0.32765 0.0
O122 O 0.8489 0.57677 0.38794 0.0
O123 O 0.87591 0.62191 0.34408 0.0
O124 O 0.72097 0.48945 0.4322 0.0
O125 O 0.70382 0.50288 0.33658 0.0
O126 O 0.82744 0.60417 0.18706 0.0
O127 O 0.78545 0.60212 0.19739 0.0
Co128 Co 0.40461 0.22406 0.27902 0.0
Co129 Co 0.46714 0.25004 0.36033 0.0
Co130 Co 0.43491 0.18722 0.3249 0.0
H131 H 0.42291 0.20895 0.32183 0.0
O132 O 0.42764 0.21874 0.36829 0.0
H133 H 0.48059 0.23018 0.35434 0.0
O134 O 0.47437 0.21903 0.3109 0.0
Co135 Co 0.50473 0.22061 0.38528 0.0
O136 O 0.5331 0.26318 0.39659 0.0
O137 O 0.507 0.28195 0.35125 0.0
O138 O 0.4859 0.17749 0.39373 0.0
O139 O 0.4463 0.15735 0.3113 0.0
O140 O 0.39278 0.24949 0.21234 0.0
O141 O 0.36198 0.21195 0.26852 0.0
O142 O 0.49148 0.21867 0.5047 0.0
O143 O 0.47022 0.24461 0.48609 0.0
C144 C 0.37441 0.1578 0.28219 0.0
C145 C 0.43511 0.28107 0.378 0.0
C146 C 0.55088 0.22256 0.35756 0.0
C147 C 0.43746 0.21237 0.15578 0.0
C148 C 0.53072 0.28453 0.37421 0.0
C149 C 0.46544 0.15593 0.35634 0.0
C150 C 0.36657 0.23329 0.22485 0.0
C151 C 0.47878 0.23121 0.53344 0.0
O152 O 0.37684 0.18146 0.2567 0.0
O153 O 0.39395 0.15673 0.3257 0.0
O154 O 0.45666 0.2784 0.39409 0.0
O155 O 0.41371 0.26253 0.3347 0.0
O156 O 0.53085 0.20327 0.39997 0.0
O157 O 0.5445 0.24037 0.32966 0.0
O158 O 0.43401 0.23195 0.18815 0.0
O159 O 0.43225 0.19013 0.1979 0.0
Co160 Co 0.81097 0.18702 0.28506 0.0
Co161 Co 0.78389 0.22365 0.35781 0.0
Co162 Co 0.84678 0.25486 0.32287 0.0
H163 H 0.82549 0.22096 0.3235 0.0
O164 O 0.81572 0.21638 0.36999 0.0
H165 H 0.80349 0.25687 0.35074 0.0
O166 O 0.81455 0.26181 0.30716 0.0
Co167 Co 0.81335 0.29048 0.38285 0.0
O168 O 0.77052 0.27666 0.37757 0.0
O169 O 0.7517 0.23071 0.34376 0.0
O170 O 0.85636 0.31553 0.39027 0.0
O171 O 0.87627 0.2962 0.30665 0.0
O172 O 0.78482 0.14945 0.22075 0.0
O173 O 0.82282 0.15633 0.27428 0.0
O174 O 0.82451 0.27794 0.48885 0.0
O175 O 0.78802 0.23367 0.48262 0.0
C176 C 0.87705 0.22414 0.28454 0.0
C177 C 0.75422 0.1609 0.38468 0.0
C178 C 0.80909 0.33415 0.37802 0.0
C179 C 0.82196 0.22951 0.1535 0.0
C180 C 0.74922 0.25247 0.3581 0.0
C181 C 0.87783 0.31679 0.35192 0.0
C182 C 0.80107 0.13944 0.23211 0.0
C183 C 0.808 0.25426 0.52423 0.0
O184 O 0.8535 0.20218 0.2618 0.0
O185 O 0.87783 0.24511 0.3252 0.0
O186 O 0.75585 0.18498 0.39387 0.0
O187 O 0.77342 0.15794 0.34578 0.0
O188 O 0.79411 0.31283 0.42413 0.0
O189 O 0.8264 0.33061 0.33367 0.0
O190 O 0.80336 0.20621 0.18717 0.0
O191 O 0.8433 0.24825 0.19603 0.0
Co192 Co 0.514 0.96422 0.61787 0.0
Co193 Co 0.4768 0.89997 0.68858 0.0
Co194 Co 0.4463 0.93253 0.65754 0.0
H195 H 0.48013 0.94478 0.65681 0.0
O196 O 0.48482 0.93929 0.7025 0.0
H197 H 0.4437 0.88696 0.68331 0.0
O198 O 0.43862 0.89321 0.64037 0.0
Co199 Co 0.41028 0.86363 0.71698 0.0
O200 O 0.4249 0.83543 0.7289 0.0
O201 O 0.46858 0.86028 0.67368 0.0
O202 O 0.38545 0.88178 0.72534 0.0
O203 O 0.40503 0.92128 0.6429 0.0
O204 O 0.551 0.97588 0.55014 0.0
O205 O 0.54552 1.00661 0.61256 0.0
O206 O 0.42362 0.88707 0.82334 0.0
O207 O 0.46769 0.89444 0.81417 0.0
C208 C 0.47722 0.99342 0.61947 0.0
C209 C 0.5397 0.9325 0.71399 0.0
C210 C 0.36657 0.8163 0.69742 0.0
C211 C 0.47093 0.93319 0.48679 0.0
C212 C 0.44789 0.83707 0.70149 0.0
C213 C 0.38436 0.90217 0.6877 0.0
C214 C 0.56177 1.00198 0.5664 0.0
C215 C 0.44749 0.89408 0.85723 0.0
O216 O 0.49885 0.99159 0.59469 0.0
O217 O 0.45664 0.97345 0.66177 0.0
O218 O 0.51558 0.90997 0.72168 0.0
O219 O 0.54272 0.95512 0.67804 0.0
O220 O 0.36751 0.83624 0.74085 0.0
O221 O 0.39031 0.82329 0.66464 0.0
O222 O 0.49435 0.9378 0.51943 0.0
O223 O 0.45239 0.93577 0.53041 0.0
Co224 Co 0.06964 0.55615 0.61724 0.0
Co225 Co 0.13362 0.58379 0.68982 0.0
Co226 Co 0.102 0.52077 0.65695 0.0
H227 H 0.08928 0.54197 0.65633 0.0
O228 O 0.09451 0.55199 0.70241 0.0
H229 H 0.14727 0.56425 0.68334 0.0
O230 O 0.14107 0.55299 0.64016 0.0
Co231 Co 0.17124 0.55469 0.7151 0.0
O232 O 0.19962 0.59766 0.72142 0.0
O233 O 0.17297 0.61587 0.67633 0.0
O234 O 0.1532 0.51176 0.72615 0.0
O235 O 0.114 0.49133 0.64231 0.0
O236 O 0.0572 0.58116 0.55121 0.0
O237 O 0.02696 0.54412 0.61119 0.0
O238 O 0.14924 0.54495 0.82419 0.0
O239 O 0.13924 0.57996 0.81493 0.0
C240 C 0.04108 0.49013 0.61843 0.0
C241 C 0.10053 0.61355 0.71437 0.0
C242 C 0.21825 0.55792 0.693 0.0
C243 C 0.10121 0.54471 0.48657 0.0
C244 C 0.19686 0.61879 0.69856 0.0
C245 C 0.13307 0.49006 0.68828 0.0
C246 C 0.03113 0.56512 0.56643 0.0
C247 C 0.14118 0.561 0.85805 0.0
O248 O 0.0426 0.51351 0.59432 0.0
O249 O 0.06125 0.48968 0.66019 0.0
O250 O 0.12295 0.61192 0.72452 0.0
O251 O 0.07837 0.59415 0.67579 0.0
O252 O 0.1991 0.54014 0.74122 0.0
O253 O 0.21068 0.57379 0.65708 0.0
O254 O 0.09629 0.56332 0.5192 0.0
O255 O 0.09874 0.52361 0.52997 0.0
Co256 Co 0.47807 0.52053 0.61889 0.0
Co257 Co 0.45023 0.55642 0.69203 0.0
Co258 Co 0.51325 0.58815 0.65941 0.0
H259 H 0.49216 0.55425 0.65868 0.0
O260 O 0.48218 0.54939 0.70479 0.0
H261 H 0.46968 0.5897 0.68616 0.0
O262 O 0.48091 0.59487 0.64296 0.0
Co263 Co 0.47924 0.62316 0.71917 0.0
O264 O 0.4364 0.60912 0.71264 0.0
O265 O 0.41795 0.56328 0.67768 0.0
O266 O 0.5222 0.6483 0.72853 0.0
O267 O 0.5426 0.62957 0.64463 0.0
O268 O 0.45322 0.48346 0.5507 0.0
O269 O 0.49009 0.48994 0.61136 0.0
O270 O 0.48997 0.61034 0.82545 0.0
O271 O 0.45381 0.56594 0.81707 0.0
C272 C 0.54405 0.55805 0.62066 0.0
C273 C 0.42092 0.49359 0.71657 0.0
C274 C 0.47485 0.66676 0.71478 0.0
C275 C 0.48919 0.56348 0.48896 0.0
C276 C 0.41528 0.58489 0.69248 0.0
C277 C 0.54388 0.6499 0.69059 0.0
C278 C 0.46922 0.47337 0.56555 0.0
C279 C 0.47346 0.58646 0.85974 0.0
O280 O 0.5207 0.53617 0.59635 0.0
O281 O 0.54445 0.57865 0.6625 0.0
O282 O 0.42227 0.51752 0.72658 0.0
O283 O 0.44038 0.49101 0.67782 0.0
O284 O 0.45944 0.64512 0.7592 0.0
O285 O 0.49266 0.66359 0.67187 0.0
O286 O 0.47055 0.53999 0.52156 0.0
O287 O 0.51035 0.58205 0.5324 0.0
H288 H 0.20542 0.2255 0.15331 0.0
H289 H 0.37284 0.28033 0.1387 0.0
H290 H 0.26417 0.30108 0.01328 0.0
H291 H 0.30917 0.20068 0.24897 0.0
H292 H 0.33493 0.29048 0.09763 0.0
H293 H 0.24461 0.2189 0.19606 0.0
C294 C 0.22666 0.24092 0.13166 0.0
C295 C 0.2313 0.26384 0.07874 0.0
C296 C 0.32931 0.27079 0.13067 0.0
C297 C 0.27689 0.25614 0.12826 0.0
C298 C 0.35089 0.26495 0.15398 0.0
C299 C 0.3441 0.23958 0.19723 0.0
C300 C 0.30079 0.25116 0.15113 0.0
C301 C 0.31539 0.22048 0.21578 0.0
C302 C 0.24915 0.23703 0.15623 0.0
C303 C 0.25952 0.28311 0.054 0.0
N304 N 0.29489 0.22668 0.19276 0.0
N305 N 0.28128 0.27875 0.07864 0.0
H306 H 0.75323 0.09847 0.14929 0.0
H307 H 0.80838 0.98622 0.15558 0.0
H308 H 0.83389 0.11476 0.25262 0.0
H309 H 0.73187 0.96909 0.01994 0.0
H310 H 0.81512 0.03193 0.1995 0.0
H311 H 0.74274 0.05035 0.10749 0.0
C312 C 0.76875 0.09195 0.16292 0.0
C313 C 0.79451 0.11063 0.20444 0.0
C314 C 0.79675 0.01829 0.16043 0.0
C315 C 0.78256 0.05571 0.15747 0.0
C316 C 0.79277 0.99194 0.13518 0.0
C317 C 0.76956 0.97363 0.08306 0.0
C318 C 0.77742 0.02683 0.13402 0.0
C319 C 0.75006 0.98246 0.05998 0.0
C320 C 0.76271 0.0645 0.13918 0.0
C321 C 0.81379 0.10109 0.22087 0.0
N322 N 0.75451 1.00856 0.08529 0.0
N323 N 0.8074 0.07437 0.19747 0.0
H324 H 0.06502 0.77002 0.01411 0.0
H325 H 0.9197 0.72638 0.26712 0.0
H326 H 0.04802 0.82809 0.15765 0.0
H327 H 0.93483 0.66409 0.14248 0.0
H328 H 0.96732 0.76369 0.22563 0.0
H329 H 1.01844 0.73038 0.06057 0.0
C330 C 0.05174 0.77443 0.0559 0.0
C331 C 0.06048 0.80254 0.08135 0.0
C332 C 0.96037 0.74188 0.20726 0.0
C333 C 1.00723 0.7575 0.13384 0.0
C334 C 0.93309 0.72057 0.23091 0.0
C335 C 0.92329 0.69212 0.20819 0.0
C336 C 0.97816 0.73483 0.16025 0.0
C337 C 0.94159 0.68582 0.16111 0.0
C338 C 0.02511 0.75184 0.08202 0.0
C339 C 0.04226 0.80693 0.13537 0.0
N340 N 0.96816 0.70701 0.13856 0.0
N341 N 1.01664 0.78481 0.15919 0.0
H342 H 0.75223 0.7709 0.06377 0.0
H343 H 0.85306 0.71069 0.22494 0.0
H344 H 0.84322 0.81259 0.02658 0.0
H345 H 0.76219 0.66535 0.26921 0.0
H346 H 0.84866 0.74767 0.15061 0.0
H347 H 0.75376 0.73046 0.13108 0.0
C348 C 0.77233 0.77112 0.0672 0.0
C349 C 0.79761 0.79506 0.03898 0.0
C350 C 0.8296 0.72977 0.17676 0.0
C351 C 0.7997 0.74951 0.11814 0.0
C352 C 0.83214 0.70863 0.21998 0.0
C353 C 0.80798 0.68475 0.25379 0.0
C354 C 0.80264 0.72725 0.16634 0.0
C355 C 0.78146 0.68346 0.24491 0.0
C356 C 0.77328 0.74828 0.10685 0.0
C357 C 0.82319 0.79456 0.0471 0.0
N358 N 0.77947 0.70432 0.20166 0.0
N359 N 0.82358 0.77239 0.08624 0.0
H360 H 0.26327 0.98833 0.06329 0.0
H361 H 0.32493 0.15081 0.21342 0.0
H362 H 0.222 0.03774 0.02033 0.0
H363 H 0.368 0.10384 0.27047 0.0
H364 H 0.28798 0.10932 0.13887 0.0
H365 H 0.30378 0.0306 0.12947 0.0
C366 C 0.26318 1.00829 0.06511 0.0
C367 C 0.23935 1.00961 0.03557 0.0
C368 C 0.30538 0.10788 0.16789 0.0
C369 C 0.28498 0.05761 0.1135 0.0
C370 C 0.3265 0.13163 0.2112 0.0
C371 C 0.34973 0.13096 0.24877 0.0
C372 C 0.30727 0.08298 0.16116 0.0
C373 C 0.3504 0.10533 0.24325 0.0
C374 C 0.28605 0.03227 0.10417 0.0
C375 C 0.23999 0.0358 0.04178 0.0
N376 N 0.32959 0.08242 0.19989 0.0
N377 N 0.2622 0.05855 0.08035 0.0
H378 H 0.04635 0.28215 0.06385 0.0
H379 H 0.88465 0.18148 0.22016 0.0
H380 H 0.99635 0.19153 0.02012 0.0
H381 H 0.93065 0.27214 0.26874 0.0
H382 H 0.92602 0.18595 0.14546 0.0
H383 H 1.00438 0.28064 0.13131 0.0
C384 C 0.02633 0.26216 0.06584 0.0
C385 C 0.02478 0.23696 0.03568 0.0
C386 C 0.92727 0.20495 0.17262 0.0
C387 C 0.97711 0.23485 0.11513 0.0
C388 C 0.90359 0.20237 0.21606 0.0
C389 C 0.90399 0.22645 0.25126 0.0
C390 C 0.95187 0.23187 0.16338 0.0
C391 C 0.92935 0.25292 0.24336 0.0
C392 C 1.00252 0.2612 0.1056 0.0
C393 C 0.99851 0.21149 0.04213 0.0
N394 N 0.95221 0.25495 0.19995 0.0
N395 N 0.97594 0.21108 0.08143 0.0
H396 H 0.93075 0.63568 0.34863 0.0
H397 H 0.97403 0.53271 0.59543 0.0
H398 H 0.87238 0.55939 0.48646 0.0
H399 H 0.03663 0.61132 0.47736 0.0
H400 H 0.93673 0.54304 0.55392 0.0
H401 H 0.97037 0.62869 0.39515 0.0
C402 C 0.92627 0.6177 0.38915 0.0
C403 C 0.89809 0.59801 0.41296 0.0
C404 C 0.9586 0.55815 0.53699 0.0
C405 C 0.9431 0.58976 0.4655 0.0
C406 C 0.97991 0.55217 0.56064 0.0
C407 C 1.00843 0.57115 0.53976 0.0
C408 C 0.96574 0.58333 0.49185 0.0
C409 C 1.01482 0.59608 0.49451 0.0
C410 C 0.94884 0.61364 0.41531 0.0
C411 C 0.8936 0.57504 0.46542 0.0
N412 N 0.99364 0.60147 0.47192 0.0
N413 N 0.91571 0.57154 0.4893 0.0
H414 H 0.5015 0.44857 0.59422 0.0
H415 H 0.39994 0.30344 0.33967 0.0
H416 H 0.42337 0.43314 0.47366 0.0
H417 H 0.47402 0.31998 0.48801 0.0
H418 H 0.40695 0.35015 0.38552 0.0
H419 H 0.49127 0.40112 0.55108 0.0
C420 C 0.48216 0.43515 0.55851 0.0
C421 C 0.46328 0.44479 0.53751 0.0
C422 C 0.4215 0.34333 0.40805 0.0
C423 C 0.45121 0.39012 0.48771 0.0
C424 C 0.41744 0.31665 0.38221 0.0
C425 C 0.43647 0.3077 0.40937 0.0
C426 C 0.44477 0.36107 0.46108 0.0
C427 C 0.45883 0.32583 0.46444 0.0
C428 C 0.47624 0.40796 0.53394 0.0
C429 C 0.43852 0.42648 0.49098 0.0
N430 N 0.46237 0.35149 0.48782 0.0
N431 N 0.43318 0.39998 0.4675 0.0
H432 H 0.60117 0.99539 0.47353 0.0
H433 H 0.71711 0.16172 0.49971 0.0
H434 H 0.5883 0.05911 0.59845 0.0
H435 H 0.73089 0.10313 0.34742 0.0
H436 H 0.67137 0.12276 0.5441 0.0
H437 H 0.64944 0.03283 0.43255 0.0
C438 C 0.60848 0.01726 0.49214 0.0
C439 C 0.5907 0.02419 0.5394 0.0
C440 C 0.6843 0.1182 0.50131 0.0
C441 C 0.64582 0.06696 0.49335 0.0
C442 C 0.71063 0.14054 0.47581 0.0
C443 C 0.72798 0.13587 0.41888 0.0
C444 C 0.6748 0.0906 0.47015 0.0
C445 C 0.71829 0.10776 0.39133 0.0
C446 C 0.63602 0.03857 0.46885 0.0
C447 C 0.60125 0.05278 0.56209 0.0
N448 N 0.6922 0.08615 0.41682 0.0
N449 N 0.62803 0.07302 0.53894 0.0
H450 H 0.50847 0.14445 0.34381 0.0
H451 H 0.43019 1.00093 0.62212 0.0
H452 H 0.42004 0.10589 0.41591 0.0
H453 H 0.51774 0.04122 0.53749 0.0
H454 H 0.42507 0.03816 0.54802 0.0
H455 H 0.51062 0.10467 0.40858 0.0
C456 C 0.48923 0.1271 0.37137 0.0
C457 C 0.46395 0.1283 0.37345 0.0
C458 C 0.44539 0.03883 0.54604 0.0
C459 C 0.46648 0.08291 0.45151 0.0
C460 C 0.44845 0.01774 0.58913 0.0
C461 C 0.47448 0.01781 0.58643 0.0
C462 C 0.46851 0.06015 0.4998 0.0
C463 C 0.49723 0.04008 0.54169 0.0
C464 C 0.49054 0.1045 0.40939 0.0
C465 C 0.43979 0.10549 0.41144 0.0
N466 N 0.49367 0.06013 0.50024 0.0
N467 N 0.44173 0.08385 0.44994 0.0
H468 H 0.03533 0.43634 0.61019 0.0
H469 H 0.88835 0.37111 0.34792 0.0
H470 H 0.99153 0.48214 0.54684 0.0
H471 H 0.92901 0.32186 0.40273 0.0
H472 H 0.9283 0.41268 0.41358 0.0
H473 H 0.9979 0.39432 0.53474 0.0
C474 C 1.01769 0.43749 0.58174 0.0
C475 C 1.01669 0.46297 0.58526 0.0
C476 C 0.9289 0.393 0.41038 0.0
C477 C 0.97412 0.4151 0.49708 0.0
C478 C 0.90618 0.36929 0.37178 0.0
C479 C 0.90547 0.34304 0.36886 0.0
C480 C 0.95118 0.3906 0.44799 0.0
C481 C 0.92896 0.34183 0.40224 0.0
C482 C 0.99649 0.41356 0.53782 0.0
C483 C 0.99342 0.46315 0.54602 0.0
N484 N 0.95074 0.3652 0.44139 0.0
N485 N 0.97328 0.43977 0.50368 0.0
H486 H 0.59778 0.60619 0.61279 0.0
H487 H 0.66298 0.52486 0.34866 0.0
H488 H 0.55211 0.51658 0.54887 0.0
H489 H 0.71228 0.61467 0.40558 0.0
H490 H 0.62141 0.52313 0.4144 0.0
H491 H 0.63977 0.61092 0.53716 0.0
C492 C 0.59665 0.58743 0.58418 0.0
C493 C 0.57122 0.56091 0.58757 0.0
C494 C 0.6411 0.54341 0.41162 0.0
C495 C 0.61905 0.56637 0.49917 0.0
C496 C 0.6648 0.54446 0.37295 0.0
C497 C 0.69107 0.57001 0.37065 0.0
C498 C 0.64353 0.56803 0.44989 0.0
C499 C 0.69229 0.59465 0.4046 0.0
C500 C 0.62057 0.59023 0.54016 0.0
C501 C 0.57107 0.53748 0.54815 0.0
N502 N 0.66893 0.593 0.44381 0.0
N503 N 0.59443 0.54081 0.50569 0.0
H504 H 0.59774 0.97098 0.69368 0.0
H505 H 0.64088 0.86363 0.91241 0.0
H506 H 0.53879 0.88982 0.80798 0.0
H507 H 0.70405 0.94782 0.82876 0.0
H508 H 0.60341 0.8735 0.86956 0.0
H509 H 0.63746 0.96411 0.7401 0.0
C510 C 0.59311 0.95192 0.72889 0.0
C511 C 0.56476 0.93093 0.74632 0.0
C512 C 0.62544 0.88994 0.86055 0.0
C513 C 0.60991 0.92283 0.79853 0.0
C514 C 0.64685 0.88424 0.88497 0.0
C515 C 0.67558 0.90491 0.87418 0.0
C516 C 0.63268 0.91658 0.82482 0.0
C517 C 0.68209 0.93126 0.83799 0.0
C518 C 0.61576 0.94796 0.75505 0.0
C519 C 0.56013 0.90661 0.79213 0.0
N520 N 0.66079 0.93637 0.8145 0.0
N521 N 0.58232 0.90325 0.81597 0.0
H522 H 0.06404 0.63486 0.68242 0.0
H523 H 0.16815 0.78212 0.92379 0.0
H524 H 0.14049 0.65316 0.82048 0.0
H525 H 0.08781 0.76482 0.81518 0.0
H526 H 0.15779 0.73451 0.88186 0.0
H527 H 0.07107 0.68158 0.72834 0.0
C528 C 0.08205 0.64844 0.72284 0.0
C529 C 0.10176 0.64 0.74693 0.0
C530 C 0.1423 0.74097 0.86713 0.0
C531 C 0.11009 0.69341 0.79861 0.0
C532 C 0.14829 0.76825 0.89102 0.0
C533 C 0.12883 0.77743 0.873 0.0
C534 C 0.11661 0.72256 0.82461 0.0
C535 C 0.10342 0.75854 0.83013 0.0
C536 C 0.08613 0.67514 0.74867 0.0
C537 C 0.12478 0.65862 0.79926 0.0
N538 N 0.09802 0.73197 0.80727 0.0
N539 N 0.12832 0.68429 0.82265 0.0
H540 H 0.25487 0.39219 0.94094 0.0
H541 H 0.39806 0.43624 0.67538 0.0
H542 H 0.26739 0.33056 0.80152 0.0
H543 H 0.38362 0.49332 0.83306 0.0
H544 H 0.3514 0.39659 0.72146 0.0
H545 H 0.30273 0.42925 0.90048 0.0
C546 C 0.26773 0.38647 0.90169 0.0
C547 C 0.25713 0.35828 0.87454 0.0
C548 C 0.35866 0.41782 0.74615 0.0
C549 C 0.31227 0.40071 0.82774 0.0
C550 C 0.38534 0.44039 0.72028 0.0
C551 C 0.39477 0.46825 0.74972 0.0
C552 C 0.34145 0.42325 0.80174 0.0
C553 C 0.37727 0.47236 0.80762 0.0
C554 C 0.29515 0.40764 0.87863 0.0
C555 C 0.27477 0.3521 0.82366 0.0
N556 N 0.35159 0.45027 0.83108 0.0
N557 N 0.30149 0.37315 0.80175 0.0
H558 H 0.18679 0.37709 0.8887 0.0
H559 H 0.08621 0.4379 0.72908 0.0
H560 H 0.096 0.33226 0.93426 0.0
H561 H 0.17744 0.48039 0.69647 0.0
H562 H 0.08775 0.39735 0.79557 0.0
H563 H 0.18259 0.4144 0.81554 0.0
C564 C 0.16594 0.3752 0.88425 0.0
C565 C 0.14174 0.35137 0.91816 0.0
C566 C 0.10733 0.41539 0.77262 0.0
C567 C 0.13663 0.39427 0.83208 0.0
C568 C 0.10639 0.43831 0.73346 0.0
C569 C 0.13172 0.46249 0.7067 0.0
C570 C 0.13379 0.41675 0.78481 0.0
C571 C 0.15738 0.46219 0.71596 0.0
C572 C 0.16351 0.39653 0.84175 0.0
C573 C 0.1153 0.35031 0.9099 0.0
N574 N 0.15775 0.43991 0.75448 0.0
N575 N 0.11342 0.37134 0.86733 0.0
H576 H 0.65643 0.81582 0.89628 0.0
H577 H 0.59616 0.65523 0.72962 0.0
H578 H 0.70221 0.77049 0.93557 0.0
H579 H 0.55343 0.70386 0.70075 0.0
H580 H 0.63678 0.69719 0.7968 0.0
H581 H 0.61909 0.77443 0.8226 0.0
C582 C 0.65852 0.79701 0.89038 0.0
C583 C 0.68262 0.79679 0.92261 0.0
C584 C 0.61866 0.69874 0.7745 0.0
C585 C 0.6397 0.74892 0.83587 0.0
C586 C 0.59571 0.67495 0.73494 0.0
C587 C 0.57145 0.67611 0.70908 0.0
C588 C 0.61723 0.72374 0.78799 0.0
C589 C 0.57169 0.702 0.7195 0.0
C590 C 0.63717 0.77332 0.84754 0.0
C591 C 0.68393 0.77161 0.91254 0.0
N592 N 0.59399 0.72456 0.75842 0.0
N593 N 0.66287 0.74874 0.86965 0.0
H594 H 0.37966 0.94897 0.73343 0.0
H595 H 0.2177 0.8479 0.88649 0.0
H596 H 0.32999 0.85833 0.68927 0.0
H597 H 0.26371 0.93842 0.93744 0.0
H598 H 0.25921 0.85251 0.81238 0.0
H599 H 0.33752 0.94725 0.80022 0.0
C600 C 0.35968 0.92893 0.73522 0.0
C601 C 0.35825 0.90378 0.70518 0.0
C602 C 0.26044 0.87144 0.83995 0.0
C603 C 0.3104 0.90146 0.78375 0.0
C604 C 0.23667 0.86878 0.88303 0.0
C605 C 0.23704 0.89278 0.91868 0.0
C606 C 0.28508 0.89837 0.83156 0.0
C607 C 0.26244 0.91925 0.91166 0.0
C608 C 0.33578 0.92786 0.77458 0.0
C609 C 0.33203 0.87825 0.71126 0.0
N610 N 0.28538 0.92137 0.86857 0.0
N611 N 0.30937 0.87774 0.75016 0.0
H612 H 0.17354 0.0496 0.95519 0.0
H613 H 0.07672 0.11642 0.09363 0.0
H614 H 0.10304 1.0086 0.13102 0.0
H615 H 0.15885 0.16496 0.97124 0.0
H616 H 0.08317 0.07477 0.0948 0.0
H617 H 0.16584 0.0905 0.94797 0.0
C618 C 0.15644 0.04922 0.99216 0.0
C619 C 0.13892 0.02577 0.04384 0.0
C620 C 0.09975 0.09457 0.06775 0.0
C621 C 0.12983 0.07221 0.03551 0.0
C622 C 0.09606 0.11835 0.06688 0.0
C623 C 0.11733 0.14433 0.03274 0.0
C624 C 0.12478 0.09673 0.0337 0.0
C625 C 0.14191 0.14546 -0.00135 0.0
C626 C 0.15206 0.07253 0.98812 0.0
C627 C 0.11705 0.0263 0.09047 0.0
N628 N 0.14493 0.12203 -0.0 0.0
N629 N 0.11307 0.04912 0.08503 0.0
H630 H 0.9776 0.13304 0.06696 0.0
H631 H 0.92076 0.96626 0.02003 0.0
H632 H 0.03098 0.10038 0.97595 0.0
H633 H 0.86536 1.00232 0.0233 0.0
H634 H 0.96214 0.01475 0.0166 0.0
H635 H 0.93654 0.08454 0.06381 0.0
C636 C 0.98061 0.11564 0.04601 0.0
C637 C 1.0076 0.12063 0.02144 0.0
C638 C 0.94088 1.01193 0.0177 0.0
C639 C 0.96097 0.06517 0.01877 0.0
C640 C 0.91729 0.98431 0.02002 0.0
C641 C 0.88955 0.9802 0.02184 0.0
C642 C 0.93664 0.03553 0.01854 0.0
C643 C 0.88632 1.00439 0.02144 0.0
C644 C 0.95722 0.088 0.04411 0.0
C645 C 1.01042 0.09738 -0.00509 0.0
N646 N 0.90955 0.03096 0.02035 0.0
N647 N 0.98741 0.07058 -0.00514 0.0
H648 H 0.90268 0.8586 0.96053 0.0
H649 H 0.0672 0.95791 0.08738 0.0
H650 H 0.93392 0.93342 0.11993 0.0
H651 H 0.03344 0.87496 0.96982 0.0
H652 H 1.0192 0.95154 0.08789 0.0
H653 H 0.95125 0.86627 0.95223 0.0
C654 C 0.91978 0.87662 0.99371 0.0
C655 C 0.91435 0.89534 0.04123 0.0
C656 C 0.02234 0.93476 0.06193 0.0
C657 C 0.96982 0.90438 0.03167 0.0
C658 C 0.04978 0.93843 0.06139 0.0
C659 C 0.05443 0.91692 0.02892 0.0
C660 C 0.99939 0.90945 0.02942 0.0
C661 C 0.03093 0.89211 -0.00407 0.0
C662 C 0.94746 0.881 0.98903 0.0
C663 C 0.93721 0.91839 0.08297 0.0
N664 N 1.00446 0.88906 -0.00287 0.0
N665 N 0.96396 0.9223 0.0771 0.0
H666 H 0.84193 0.38425 0.29251 0.0
H667 H 0.74289 0.44965 0.42046 0.0
H668 H 0.767 0.34058 0.4509 0.0
H669 H 0.8253 0.4985 0.3001 0.0
H670 H 0.74923 0.40801 0.42093 0.0
H671 H 0.83428 0.42517 0.28429 0.0
C672 C 0.82388 0.38332 0.32549 0.0
C673 C 0.80513 0.35913 0.3727 0.0
C674 C 0.7659 0.42785 0.39434 0.0
C675 C 0.79612 0.4056 0.36327 0.0
C676 C 0.76225 0.45163 0.39383 0.0
C677 C 0.78362 0.47771 0.36056 0.0
C678 C 0.79106 0.4301 0.36106 0.0
C679 C 0.80827 0.47892 0.3268 0.0
C680 C 0.81952 0.40663 0.32085 0.0
C681 C 0.78205 0.35892 0.41419 0.0
N682 N 0.81131 0.45549 0.32803 0.0
N683 N 0.77817 0.38179 0.40841 0.0
H684 H 0.65044 0.46433 0.29401 0.0
H685 H 0.585 0.3007 0.42917 0.0
H686 H 0.69272 0.43492 0.46532 0.0
H687 H 0.53497 0.33428 0.31665 0.0
H688 H 0.62655 0.34885 0.42907 0.0
H689 H 0.60943 0.41572 0.28837 0.0
C690 C 0.65107 0.44762 0.33031 0.0
C691 C 0.67492 0.45358 0.38026 0.0
C692 C 0.60644 0.34562 0.40453 0.0
C693 C 0.62838 0.39807 0.37369 0.0
C694 C 0.58272 0.31813 0.40441 0.0
C695 C 0.55635 0.31339 0.37338 0.0
C696 C 0.60386 0.3685 0.37277 0.0
C697 C 0.55477 0.33686 0.34167 0.0
C698 C 0.6277 0.41993 0.32718 0.0
C699 C 0.67471 0.43121 0.42608 0.0
N700 N 0.57817 0.36335 0.34214 0.0
N701 N 0.65184 0.40442 0.4215 0.0
H702 H 0.56713 0.18343 0.39457 0.0
H703 H 0.73396 0.29396 0.35043 0.0
H704 H 0.59993 0.26976 0.30634 0.0
H705 H 0.6983 0.20257 0.35714 0.0
H706 H 0.6854 0.28657 0.34551 0.0
H707 H 0.61564 0.19089 0.39169 0.0
C708 C 0.58455 0.20388 0.37406 0.0
C709 C 0.57959 0.22597 0.35036 0.0
C710 C 0.68831 0.26819 0.34768 0.0
C711 C 0.63508 0.23485 0.34816 0.0
C712 C 0.71599 0.2724 0.35085 0.0
C713 C 0.72026 0.24887 0.35405 0.0
C714 C 0.66479 0.24031 0.34894 0.0
C715 C 0.69613 0.22138 0.35422 0.0
C716 C 0.6122 0.20815 0.37241 0.0
C717 C 0.60288 0.25211 0.32455 0.0
N718 N 0.6695 0.21788 0.35218 0.0
N719 N 0.62968 0.25592 0.32476 0.0
H720 H 0.40954 0.78314 0.75839 0.0
H721 H 0.50873 0.71754 0.63391 0.0
H722 H 0.49283 0.83202 0.64301 0.0
H723 H 0.43208 0.67278 0.78462 0.0
H724 H 0.50155 0.75875 0.62735 0.0
H725 H 0.4156 0.74129 0.75893 0.0
C726 C 0.42907 0.7851 0.73307 0.0
C727 C 0.45074 0.81123 0.7009 0.0
C728 C 0.4863 0.73991 0.66189 0.0
C729 C 0.45779 0.76338 0.70136 0.0
C730 C 0.4904 0.71642 0.66554 0.0
C731 C 0.47104 0.69185 0.71016 0.0
C732 C 0.46257 0.73869 0.7027 0.0
C733 C 0.44761 0.69143 0.74998 0.0
C734 C 0.43253 0.7612 0.73352 0.0
C735 C 0.47555 0.8124 0.6687 0.0
N736 N 0.444 0.71449 0.74523 0.0
N737 N 0.47838 0.78886 0.66982 0.0
H738 H 0.19712 0.66926 0.69123 0.0
H739 H 0.36543 0.76758 0.6462 0.0
H740 H 0.25387 0.6349 0.70402 0.0
H741 H 0.3113 0.79912 0.73905 0.0
H742 H 0.32425 0.71904 0.64609 0.0
H743 H 0.23836 0.71729 0.68829 0.0
C744 C 0.21827 0.67177 0.6931 0.0
C745 C 0.22202 0.64792 0.69753 0.0
C746 C 0.32143 0.73661 0.66634 0.0
C747 C 0.26936 0.70304 0.69376 0.0
C748 C 0.34481 0.76428 0.66593 0.0
C749 C 0.34165 0.7873 0.6927 0.0
C750 C 0.29466 0.73206 0.69231 0.0
C751 C 0.31458 0.7819 0.71812 0.0
C752 C 0.24178 0.69924 0.69178 0.0
C753 C 0.24998 0.65262 0.70044 0.0
N754 N 0.29206 0.75482 0.71692 0.0
N755 N 0.27263 0.67968 0.69796 0.0
H756 H 0.36476 0.5349 0.70108 0.0
H757 H 0.26555 0.60232 0.62067 0.0
H758 H 0.39949 0.62582 0.67591 0.0
H759 H 0.23645 0.5221 0.75003 0.0
H760 H 0.31404 0.60952 0.61833 0.0
H761 H 0.31678 0.52818 0.69694 0.0
C762 C 0.36232 0.55349 0.69421 0.0
C763 C 0.38623 0.58101 0.68879 0.0
C764 C 0.297 0.59036 0.6471 0.0
C765 C 0.33118 0.57331 0.68368 0.0
C766 C 0.26936 0.58617 0.64816 0.0
C767 C 0.24707 0.56164 0.68603 0.0
C768 C 0.30218 0.56961 0.68275 0.0
C769 C 0.25309 0.54135 0.72051 0.0
C770 C 0.33489 0.54959 0.69229 0.0
C771 C 0.38167 0.60426 0.68063 0.0
N772 N 0.28008 0.54574 0.71778 0.0
N773 N 0.35461 0.59987 0.67786 0.0
H774 H 0.17404 0.26043 0.70886 0.0
H775 H 0.07421 0.22789 0.29934 0.0
H776 H 0.09184 0.25536 0.71832 0.0
H777 H 0.15921 0.23962 0.29056 0.0
H778 H 0.07945 0.23646 0.4531 0.0
H779 H 0.16784 0.25091 0.55636 0.0
C780 C 0.15459 0.25721 0.67901 0.0
C781 C 0.13343 0.25878 0.72669 0.0
C782 C 0.09695 0.23719 0.41748 0.0
C783 C 0.12628 0.24792 0.5512 0.0
C784 C 0.09401 0.23231 0.32962 0.0
C785 C 0.11632 0.233 0.28184 0.0
C786 C 0.12235 0.24274 0.45799 0.0
C787 C 0.14145 0.23886 0.32467 0.0
C788 C 0.15111 0.25183 0.59165 0.0
C789 C 0.10872 0.25439 0.68415 0.0
N790 N 0.14375 0.24346 0.41031 0.0
N791 N 0.10584 0.24919 0.59867 0.0
H792 H 0.79177 0.92594 0.28885 0.0
H793 H 0.78113 0.84381 0.72473 0.0
H794 H 0.80796 0.8556 0.30508 0.0
H795 H 0.76891 0.91663 0.70623 0.0
H796 H 0.79077 0.84733 0.57113 0.0
H797 H 0.78265 0.92214 0.44208 0.0
C798 C 0.7934 0.90968 0.32456 0.0
C799 C 0.8007 0.89111 0.28395 0.0
C800 C 0.78601 0.86253 0.60089 0.0
C801 C 0.79031 0.88666 0.45974 0.0
C802 C 0.78052 0.86055 0.68856 0.0
C803 C 0.77418 0.87994 0.72855 0.0
C804 C 0.78505 0.88398 0.553 0.0
C805 C 0.77374 0.90122 0.67841 0.0
C806 C 0.78821 0.90754 0.41217 0.0
C807 C 0.80241 0.8704 0.33365 0.0
N808 N 0.77902 0.90261 0.59339 0.0
N809 N 0.79727 0.86875 0.41897 0.0
H810 H 0.1122 0.86103 0.71255 0.0
H811 H 0.18264 0.95788 0.29985 0.0
H812 H 0.19159 0.94126 0.71934 0.0
H813 H 0.10639 0.87493 0.29336 0.0
H814 H 0.18572 0.95295 0.45376 0.0
H815 H 0.10896 0.86692 0.55979 0.0
C816 C 0.12895 0.87998 0.68206 0.0
C817 C 0.15229 0.90066 0.72903 0.0
C818 C 0.16835 0.93582 0.41865 0.0
C819 C 0.14869 0.90743 0.55331 0.0
C820 C 0.16656 0.93858 0.33067 0.0
C821 C 0.14418 0.91677 0.28349 0.0
C822 C 0.14759 0.9111 0.45991 0.0
C823 C 0.12401 0.89228 0.32702 0.0
C824 C 0.12709 0.88328 0.59457 0.0
C825 C 0.17325 0.92476 0.68573 0.0
N826 N 0.12618 0.89014 0.41279 0.0
N827 N 0.17098 0.92746 0.60017 0.0
H828 H 0.82774 0.57329 0.62319 0.0
H829 H 0.75755 0.58871 0.05585 0.0
H830 H 0.74369 0.56382 0.63575 0.0
H831 H 0.84011 0.59472 0.04214 0.0
H832 H 0.75182 0.57944 0.90203 0.0
H833 H 0.83269 0.58165 0.77706 0.0
C834 C 0.81035 0.57302 0.6582 0.0
C835 C 0.78525 0.5678 0.61642 0.0
C836 C 0.77115 0.58274 0.93289 0.0
C837 C 0.79074 0.57729 0.79273 0.0
C838 C 0.77441 0.58798 0.0207 0.0
C839 C 0.79936 0.59257 0.06206 0.0
C840 C 0.79303 0.58214 0.8862 0.0
C841 C 0.8205 0.59135 0.01318 0.0
C842 C 0.81316 0.57774 0.74614 0.0
C843 C 0.76342 0.56773 0.66521 0.0
N844 N 0.81687 0.58634 0.92794 0.0
N845 N 0.76667 0.57238 0.75076 0.0
H846 H 0.41379 0.17065 0.03556 0.0
H847 H 0.51836 0.25058 0.65971 0.0
H848 H 0.47786 0.25897 0.07133 0.0
H849 H 0.42772 0.20849 0.61415 0.0
H850 H 0.50917 0.24624 0.81468 0.0
H851 H 0.42407 0.17588 0.8814 0.0
C852 C 0.43029 0.19096 0.01091 0.0
C853 C 0.44508 0.21445 0.06528 0.0
C854 C 0.49141 0.23808 0.7704 0.0
C855 C 0.45704 0.22032 0.89152 0.0
C856 C 0.49658 0.24051 0.68274 0.0
C857 C 0.47368 0.23002 0.62535 0.0
C858 C 0.46319 0.22417 0.7998 0.0
C859 C 0.44581 0.217 0.65719 0.0
C860 C 0.43592 0.19396 0.9235 0.0
C861 C 0.46603 0.24046 0.0308 0.0
N862 N 0.44125 0.21405 0.74281 0.0
N863 N 0.47165 0.24269 0.94575 0.0
H864 H 0.84736 0.29354 0.63492 0.0
H865 H 0.78076 0.19301 0.04294 0.0
H866 H 0.77491 0.20802 0.62516 0.0
H867 H 0.85712 0.27582 0.05402 0.0
H868 H 0.77749 0.19929 0.89052 0.0
H869 H 0.85069 0.28831 0.78875 0.0
C870 C 0.83218 0.27364 0.66499 0.0
C871 C 0.81079 0.25118 0.61695 0.0
C872 C 0.79496 0.21614 0.92615 0.0
C873 C 0.81447 0.24515 0.79304 0.0
C874 C 0.79683 0.21261 0.01346 0.0
C875 C 0.81932 0.23391 0.06155 0.0
C876 C 0.81568 0.24117 0.88618 0.0
C877 C 0.83945 0.25882 0.01949 0.0
C878 C 0.8341 0.2707 0.75287 0.0
C879 C 0.79174 0.22591 0.65948 0.0
N880 N 0.83718 0.26175 0.93406 0.0
N881 N 0.79402 0.22362 0.74507 0.0
H882 H 0.42384 0.92124 0.3897 0.0
H883 H 0.49447 0.90763 0.9556 0.0
H884 H 0.50735 0.92951 0.37376 0.0
H885 H 0.40892 0.89427 0.97019 0.0
H886 H 0.49964 0.91649 0.10911 0.0
H887 H 0.41781 0.91161 0.23601 0.0
C888 C 0.44085 0.92096 0.35408 0.0
C889 C 0.46615 0.92624 0.39478 0.0
C890 C 0.47972 0.91161 0.07875 0.0
C891 C 0.45945 0.91539 0.21917 0.0
C892 C 0.47678 0.90659 0.99098 0.0
C893 C 0.45121 0.90015 0.94986 0.0
C894 C 0.45697 0.91023 0.12585 0.0
C895 C 0.42902 0.89913 -0.00085 0.0
C896 C 0.43741 0.91548 0.26638 0.0
C897 C 0.48747 0.92557 0.34535 0.0
N898 N 0.43242 0.90411 0.08456 0.0
N899 N 0.48365 0.92033 0.26027 0.0
H900 H 0.1134 0.50971 0.38979 0.0
H901 H 0.12714 0.59399 0.95639 0.0
H902 H 0.10543 0.58512 0.37399 0.0
H903 H 0.14191 0.5227 0.9711 0.0
H904 H 0.11828 0.59025 0.10967 0.0
H905 H 0.1235 0.51355 0.23647 0.0
C906 C 0.11385 0.5271 0.35428 0.0
C907 C 0.10848 0.54707 0.39487 0.0
C908 C 0.12348 0.57543 0.07943 0.0
C909 C 0.11989 0.5515 0.21972 0.0
C910 C 0.12849 0.57752 0.99176 0.0
C911 C 0.13531 0.55865 0.95072 0.0
C912 C 0.1252 0.55426 0.12656 0.0
C913 C 0.13676 0.53774 5e-05 0.0
C914 C 0.11961 0.52927 0.2668 0.0
C915 C 0.10939 0.56919 0.34562 0.0
N916 N 0.13173 0.5361 0.08542 0.0
N917 N 0.11489 0.57073 0.26073 0.0
H918 H 0.52462 0.61034 0.39192 0.0
H919 H 0.43991 0.53979 0.95845 0.0
H920 H 0.44847 0.52747 0.37644 0.0
H921 H 0.51238 0.62523 0.9724 0.0
H922 H 0.44351 0.53487 0.11192 0.0
H923 H 0.52099 0.61641 0.23837 0.0
C924 C 0.50711 0.59348 0.35644 0.0
C925 C 0.48688 0.56833 0.39718 0.0
C926 C 0.45863 0.55471 0.08147 0.0
C927 C 0.48269 0.57507 0.22175 0.0
C928 C 0.45662 0.55752 0.9937 0.0
C929 C 0.47585 0.58298 0.9524 0.0
C930 C 0.48006 0.57749 0.12845 0.0
C931 C 0.49707 0.60521 0.00155 0.0
C932 C 0.50506 0.59695 0.26882 0.0
C933 C 0.46461 0.54722 0.34795 0.0
N934 N 0.49861 0.60194 0.08704 0.0
N935 N 0.46319 0.55104 0.26292 0.0
loop_
_geom_bond_atom_site_label_1
_geom_bond_atom_site_label_2
_geom_bond_distance
_geom_bond_site_symmetry_2
_ccdc_geom_bond_type
Co0 H3 2.400 1_556 S
Co0 O4 2.009 1_556 S
Co0 O12 2.115 . S
Co0 O13 2.315 1_556 S
Co0 O24 2.053 . S
Co0 O27 2.094 . S
Co0 O30 2.122 . S
Co1 O4 2.126 . S
Co1 H5 2.388 1_554 S
Co1 O6 2.053 1_554 S
Co1 O9 2.047 . S
Co1 O15 2.113 . S
Co1 O26 2.063 . S
Co2 H3 2.388 1_556 S
Co2 O4 2.053 1_556 S
Co2 O6 2.126 . S
Co2 O11 2.063 . S
Co2 O25 2.047 . S
Co2 O31 2.113 . S
H3 Co0 2.400 1_554 S
H3 Co2 2.388 1_554 S
H3 O4 0.760 . S
O4 Co0 2.009 1_554 S
O4 Co1 2.126 . S
O4 Co2 2.053 1_554 S
O4 H3 0.760 . S
H5 Co1 2.388 1_556 S
H5 O6 0.760 . S
H5 Co7 2.400 1_556 S
O6 Co1 2.053 1_556 S
O6 Co2 2.126 . S
O6 H5 0.760 . S
O6 Co7 2.009 1_556 S
Co7 H5 2.400 1_554 S
Co7 O6 2.009 1_554 S
Co7 O8 2.053 . S
Co7 O10 2.094 . S
Co7 O14 2.122 . S
Co7 O28 2.115 . S
Co7 O29 2.315 1_554 S
O8 Co7 2.053 . S
O8 C20 1.259 . S
O9 Co1 2.047 . S
O9 C20 1.257 . S
O10 Co7 2.094 . S
O10 C21 1.253 . S
O11 Co2 2.063 . S
O11 C21 1.268 1_556 S
O12 Co0 2.115 . S
O12 C22 1.281 . S
O13 Co0 2.315 1_554 S
O13 C22 1.252 1_554 S
O14 Co7 2.122 . S
O14 C23 1.272 . S
O15 Co1 2.113 . S
O15 C23 1.245 . S
C16 O24 1.259 . S
C16 O25 1.257 . S
C17 O26 1.268 1_556 S
C17 O27 1.253 . S
C18 O28 1.281 . S
C18 O29 1.252 1_554 S
C19 O30 1.272 . S
C19 O31 1.245 . S
C20 O8 1.259 . S
C20 O9 1.257 . S
C21 O10 1.253 . S
C21 O11 1.268 1_554 S
C22 O12 1.281 . S
C22 O13 1.252 1_556 S
C23 O14 1.272 . S
C23 O15 1.245 . S
O24 Co0 2.053 . S
O24 C16 1.259 . S
O25 Co2 2.047 . S
O25 C16 1.257 . S
O26 Co1 2.063 . S
O26 C17 1.268 1_554 S
O27 Co0 2.094 . S
O27 C17 1.253 . S
O28 Co7 2.115 . S
O28 C18 1.281 . S
O29 Co7 2.315 1_556 S
O29 C18 1.252 1_556 S
O30 Co0 2.122 . S
O30 C19 1.272 . S
O31 Co2 2.113 . S
O31 C19 1.245 . S
Co32 H35 2.400 1_556 S
Co32 O36 2.009 1_556 S
Co32 O44 2.115 . S
Co32 O45 2.315 1_556 S
Co32 O56 2.053 . S
Co32 O59 2.094 . S
Co32 O62 2.122 . S
Co33 O36 2.126 . S
Co33 H37 2.388 1_554 S
Co33 O38 2.053 1_554 S
Co33 O41 2.047 . S
Co33 O47 2.113 . S
Co33 O58 2.063 . S
Co34 H35 2.388 1_556 S
Co34 O36 2.053 1_556 S
Co34 O38 2.126 . S
Co34 O43 2.063 . S
Co34 O57 2.047 . S
Co34 O63 2.113 . S
H35 Co32 2.400 1_554 S
H35 Co34 2.388 1_554 S
H35 O36 0.760 . S
O36 Co32 2.009 1_554 S
O36 Co33 2.126 . S
O36 Co34 2.053 1_554 S
O36 H35 0.760 . S
H37 Co33 2.388 1_556 S
H37 O38 0.760 . S
H37 Co39 2.400 1_556 S
O38 Co33 2.053 1_556 S
O38 Co34 2.126 . S
O38 H37 0.760 . S
O38 Co39 2.009 1_556 S
Co39 H37 2.400 1_554 S
Co39 O38 2.009 1_554 S
Co39 O40 2.053 . S
Co39 O42 2.094 . S
Co39 O46 2.122 . S
Co39 O60 2.115 . S
Co39 O61 2.315 1_554 S
O40 Co39 2.053 . S
O40 C52 1.259 . S
O41 Co33 2.047 . S
O41 C52 1.257 . S
O42 Co39 2.094 . S
O42 C53 1.253 . S
O43 Co34 2.063 . S
O43 C53 1.268 1_556 S
O44 Co32 2.115 . S
O44 C54 1.281 . S
O45 Co32 2.315 1_554 S
O45 C54 1.252 1_554 S
O46 Co39 2.122 . S
O46 C55 1.272 . S
O47 Co33 2.113 . S
O47 C55 1.245 . S
C48 O56 1.259 . S
C48 O57 1.257 . S
C49 O58 1.268 1_556 S
C49 O59 1.253 . S
C50 O60 1.281 . S
C50 O61 1.252 1_554 S
C51 O62 1.272 . S
C51 O63 1.245 . S
C52 O40 1.259 . S
C52 O41 1.257 . S
C53 O42 1.253 . S
C53 O43 1.268 1_554 S
C54 O44 1.281 . S
C54 O45 1.252 1_556 S
C55 O46 1.272 . S
C55 O47 1.245 . S
O56 Co32 2.053 . S
O56 C48 1.259 . S
O57 Co34 2.047 . S
O57 C48 1.257 . S
O58 Co33 2.063 . S
O58 C49 1.268 1_554 S
O59 Co32 2.094 . S
O59 C49 1.253 . S
O60 Co39 2.115 . S
O60 C50 1.281 . S
O61 Co39 2.315 1_556 S
O61 C50 1.252 1_556 S
O62 Co32 2.122 . S
O62 C51 1.272 . S
O63 Co34 2.113 . S
O63 C51 1.245 . S
Co64 H67 2.400 1_556 S
Co64 O68 2.009 1_556 S
Co64 O76 2.115 . S
Co64 O77 2.315 1_556 S
Co64 O88 2.053 . S
Co64 O91 2.094 . S
Co64 O94 2.122 . S
Co65 O68 2.126 . S
Co65 H69 2.388 1_554 S
Co65 O70 2.053 1_554 S
Co65 O73 2.047 . S
Co65 O79 2.113 . S
Co65 O90 2.063 . S
Co66 H67 2.388 1_556 S
Co66 O68 2.053 1_556 S
Co66 O70 2.126 . S
Co66 O75 2.063 . S
Co66 O89 2.047 . S
Co66 O95 2.113 . S
H67 Co64 2.400 1_554 S
H67 Co66 2.388 1_554 S
H67 O68 0.760 . S
O68 Co64 2.009 1_554 S
O68 Co65 2.126 . S
O68 Co66 2.053 1_554 S
O68 H67 0.760 . S
H69 Co65 2.388 1_556 S
H69 O70 0.760 . S
H69 Co71 2.400 1_556 S
O70 Co65 2.053 1_556 S
O70 Co66 2.126 . S
O70 H69 0.760 . S
O70 Co71 2.009 1_556 S
Co71 H69 2.400 1_554 S
Co71 O70 2.009 1_554 S
Co71 O72 2.053 . S
Co71 O74 2.094 . S
Co71 O78 2.122 . S
Co71 O92 2.115 . S
Co71 O93 2.315 1_554 S
O72 Co71 2.053 . S
O72 C84 1.259 . S
O73 Co65 2.047 . S
O73 C84 1.257 . S
O74 Co71 2.094 . S
O74 C85 1.253 . S
O75 Co66 2.063 . S
O75 C85 1.268 1_556 S
O76 Co64 2.115 . S
O76 C86 1.281 . S
O77 Co64 2.315 1_554 S
O77 C86 1.252 1_554 S
O78 Co71 2.122 . S
O78 C87 1.272 . S
O79 Co65 2.113 . S
O79 C87 1.245 . S
C80 O88 1.259 . S
C80 O89 1.257 . S
C81 O90 1.268 1_556 S
C81 O91 1.253 . S
C82 O92 1.281 . S
C82 O93 1.252 1_554 S
C83 O94 1.272 . S
C83 O95 1.245 . S
C84 O72 1.259 . S
C84 O73 1.257 . S
C85 O74 1.253 . S
C85 O75 1.268 1_554 S
C86 O76 1.281 . S
C86 O77 1.252 1_556 S
C87 O78 1.272 . S
C87 O79 1.245 . S
O88 Co64 2.053 . S
O88 C80 1.259 . S
O89 Co66 2.047 . S
O89 C80 1.257 . S
O90 Co65 2.063 . S
O90 C81 1.268 1_554 S
O91 Co64 2.094 . S
O91 C81 1.253 . S
O92 Co71 2.115 . S
O92 C82 1.281 . S
O93 Co71 2.315 1_556 S
O93 C82 1.252 1_556 S
O94 Co64 2.122 . S
O94 C83 1.272 . S
O95 Co66 2.113 . S
O95 C83 1.245 . S
Co96 H99 2.400 . S
Co96 O100 2.009 . S
Co96 O108 2.115 . S
Co96 O109 2.315 . S
Co96 O120 2.053 . S
Co96 O123 2.094 . S
Co96 O126 2.122 . S
Co97 O100 2.126 . S
Co97 H101 2.388 . S
Co97 O102 2.053 . S
Co97 O105 2.047 . S
Co97 O111 2.113 . S
Co97 O122 2.063 . S
Co98 H99 2.388 . S
Co98 O100 2.053 . S
Co98 O102 2.126 . S
Co98 O107 2.063 . S
Co98 O121 2.047 . S
Co98 O127 2.113 . S
H99 Co96 2.400 . S
H99 Co98 2.388 . S
H99 O100 0.760 . S
O100 Co96 2.009 . S
O100 Co97 2.126 . S
O100 Co98 2.053 . S
O100 H99 0.760 . S
H101 Co97 2.388 . S
H101 O102 0.760 . S
H101 Co103 2.400 . S
O102 Co97 2.053 . S
O102 Co98 2.126 . S
O102 H101 0.760 . S
O102 Co103 2.009 . S
Co103 H101 2.400 . S
Co103 O102 2.009 . S
Co103 O104 2.053 . S
Co103 O106 2.094 . S
Co103 O110 2.122 . S
Co103 O124 2.115 . S
Co103 O125 2.315 . S
O104 Co103 2.053 . S
O104 C116 1.259 . S
O105 Co97 2.047 . S
O105 C116 1.257 . S
O106 Co103 2.094 . S
O106 C117 1.253 . S
O107 Co98 2.063 . S
O107 C117 1.268 . S
O108 Co96 2.115 . S
O108 C118 1.281 . S
O109 Co96 2.315 . S
O109 C118 1.252 . S
O110 Co103 2.122 . S
O110 C119 1.272 . S
O111 Co97 2.113 . S
O111 C119 1.245 . S
C112 O120 1.259 . S
C112 O121 1.257 . S
C113 O122 1.268 . S
C113 O123 1.253 . S
C114 O124 1.281 . S
C114 O125 1.252 . S
C115 O126 1.272 . S
C115 O127 1.245 . S
C116 O104 1.259 . S
C116 O105 1.257 . S
C117 O106 1.253 . S
C117 O107 1.268 . S
C118 O108 1.281 . S
C118 O109 1.252 . S
C119 O110 1.272 . S
C119 O111 1.245 . S
O120 Co96 2.053 . S
O120 C112 1.259 . S
O121 Co98 2.047 . S
O121 C112 1.257 . S
O122 Co97 2.063 . S
O122 C113 1.268 . S
O123 Co96 2.094 . S
O123 C113 1.253 . S
O124 Co103 2.115 . S
O124 C114 1.281 . S
O125 Co103 2.315 . S
O125 C114 1.252 . S
O126 Co96 2.122 . S
O126 C115 1.272 . S
O127 Co98 2.113 . S
O127 C115 1.245 . S
Co128 H131 2.400 . S
Co128 O132 2.009 . S
Co128 O140 2.115 . S
Co128 O141 2.315 . S
Co128 O152 2.053 . S
Co128 O155 2.094 . S
Co128 O158 2.122 . S
Co129 O132 2.126 . S
Co129 H133 2.388 . S
Co129 O134 2.053 . S
Co129 O137 2.047 . S
Co129 O143 2.113 . S
Co129 O154 2.063 . S
Co130 H131 2.388 . S
Co130 O132 2.053 . S
Co130 O134 2.126 . S
Co130 O139 2.063 . S
Co130 O153 2.047 . S
Co130 O159 2.113 . S
H131 Co128 2.400 . S
H131 Co130 2.388 . S
H131 O132 0.760 . S
O132 Co128 2.009 . S
O132 Co129 2.126 . S
O132 Co130 2.053 . S
O132 H131 0.760 . S
H133 Co129 2.388 . S
H133 O134 0.760 . S
H133 Co135 2.400 . S
O134 Co129 2.053 . S
O134 Co130 2.126 . S
O134 H133 0.760 . S
O134 Co135 2.009 . S
Co135 H133 2.400 . S
Co135 O134 2.009 . S
Co135 O136 2.053 . S
Co135 O138 2.094 . S
Co135 O142 2.122 . S
Co135 O156 2.115 . S
Co135 O157 2.315 . S
O136 Co135 2.053 . S
O136 C148 1.259 . S
O137 Co129 2.047 . S
O137 C148 1.257 . S
O138 Co135 2.094 . S
O138 C149 1.253 . S
O139 Co130 2.063 . S
O139 C149 1.268 . S
O140 Co128 2.115 . S
O140 C150 1.281 . S
O141 Co128 2.315 . S
O141 C150 1.252 . S
O142 Co135 2.122 . S
O142 C151 1.272 . S
O143 Co129 2.113 . S
O143 C151 1.245 . S
C144 O152 1.259 . S
C144 O153 1.257 . S
C145 O154 1.268 . S
C145 O155 1.253 . S
C146 O156 1.281 . S
C146 O157 1.252 . S
C147 O158 1.272 . S
C147 O159 1.245 . S
C148 O136 1.259 . S
C148 O137 1.257 . S
C149 O138 1.253 . S
C149 O139 1.268 . S
C150 O140 1.281 . S
C150 O141 1.252 . S
C151 O142 1.272 . S
C151 O143 1.245 . S
O152 Co128 2.053 . S
O152 C144 1.259 . S
O153 Co130 2.047 . S
O153 C144 1.257 . S
O154 Co129 2.063 . S
O154 C145 1.268 . S
O155 Co128 2.094 . S
O155 C145 1.253 . S
O156 Co135 2.115 . S
O156 C146 1.281 . S
O157 Co135 2.315 . S
O157 C146 1.252 . S
O158 Co128 2.122 . S
O158 C147 1.272 . S
O159 Co130 2.113 . S
O159 C147 1.245 . S
Co160 H163 2.400 . S
Co160 O164 2.009 . S
Co160 O172 2.115 . S
Co160 O173 2.315 . S
Co160 O184 2.053 . S
Co160 O187 2.094 . S
Co160 O190 2.122 . S
Co161 O164 2.126 . S
Co161 H165 2.388 . S
Co161 O166 2.053 . S
Co161 O169 2.047 . S
Co161 O175 2.113 . S
Co161 O186 2.063 . S
Co162 H163 2.388 . S
Co162 O164 2.053 . S
Co162 O166 2.126 . S
Co162 O171 2.063 . S
Co162 O185 2.047 . S
Co162 O191 2.113 . S
H163 Co160 2.400 . S
H163 Co162 2.388 . S
H163 O164 0.760 . S
O164 Co160 2.009 . S
O164 Co161 2.126 . S
O164 Co162 2.053 . S
O164 H163 0.760 . S
H165 Co161 2.388 . S
H165 O166 0.760 . S
H165 Co167 2.400 . S
O166 Co161 2.053 . S
O166 Co162 2.126 . S
O166 H165 0.760 . S
O166 Co167 2.009 . S
Co167 H165 2.400 . S
Co167 O166 2.009 . S
Co167 O168 2.053 . S
Co167 O170 2.094 . S
Co167 O174 2.122 . S
Co167 O188 2.115 . S
Co167 O189 2.315 . S
O168 Co167 2.053 . S
O168 C180 1.259 . S
O169 Co161 2.047 . S
O169 C180 1.257 . S
O170 Co167 2.094 . S
O170 C181 1.253 . S
O171 Co162 2.063 . S
O171 C181 1.268 . S
O172 Co160 2.115 . S
O172 C182 1.281 . S
O173 Co160 2.315 . S
O173 C182 1.252 . S
O174 Co167 2.122 . S
O174 C183 1.272 . S
O175 Co161 2.113 . S
O175 C183 1.245 . S
C176 O184 1.259 . S
C176 O185 1.257 . S
C177 O186 1.268 . S
C177 O187 1.253 . S
C178 O188 1.281 . S
C178 O189 1.252 . S
C179 O190 1.272 . S
C179 O191 1.245 . S
C180 O168 1.259 . S
C180 O169 1.257 . S
C181 O170 1.253 . S
C181 O171 1.268 . S
C182 O172 1.281 . S
C182 O173 1.252 . S
C183 O174 1.272 . S
C183 O175 1.245 . S
O184 Co160 2.053 . S
O184 C176 1.259 . S
O185 Co162 2.047 . S
O185 C176 1.257 . S
O186 Co161 2.063 . S
O186 C177 1.268 . S
O187 Co160 2.094 . S
O187 C177 1.253 . S
O188 Co167 2.115 . S
O188 C178 1.281 . S
O189 Co167 2.315 . S
O189 C178 1.252 . S
O190 Co160 2.122 . S
O190 C179 1.272 . S
O191 Co162 2.113 . S
O191 C179 1.245 . S
Co192 H195 2.400 . S
Co192 O196 2.009 . S
Co192 O204 2.115 . S
Co192 O205 2.315 . S
Co192 O216 2.053 . S
Co192 O219 2.094 . S
Co192 O222 2.122 . S
Co193 O196 2.126 . S
Co193 H197 2.388 . S
Co193 O198 2.053 . S
Co193 O201 2.047 . S
Co193 O207 2.113 . S
Co193 O218 2.063 . S
Co194 H195 2.388 . S
Co194 O196 2.053 . S
Co194 O198 2.126 . S
Co194 O203 2.063 . S
Co194 O217 2.047 . S
Co194 O223 2.113 . S
H195 Co192 2.400 . S
H195 Co194 2.388 . S
H195 O196 0.760 . S
O196 Co192 2.009 . S
O196 Co193 2.126 . S
O196 Co194 2.053 . S
O196 H195 0.760 . S
H197 Co193 2.388 . S
H197 O198 0.760 . S
H197 Co199 2.400 . S
O198 Co193 2.053 . S
O198 Co194 2.126 . S
O198 H197 0.760 . S
O198 Co199 2.009 . S
Co199 H197 2.400 . S
Co199 O198 2.009 . S
Co199 O200 2.053 . S
Co199 O202 2.094 . S
Co199 O206 2.122 . S
Co199 O220 2.115 . S
Co199 O221 2.315 . S
O200 Co199 2.053 . S
O200 C212 1.259 . S
O201 Co193 2.047 . S
O201 C212 1.257 . S
O202 Co199 2.094 . S
O202 C213 1.253 . S
O203 Co194 2.063 . S
O203 C213 1.268 . S
O204 Co192 2.115 . S
O204 C214 1.281 . S
O205 Co192 2.315 . S
O205 C214 1.252 . S
O206 Co199 2.122 . S
O206 C215 1.272 . S
O207 Co193 2.113 . S
O207 C215 1.245 . S
C208 O216 1.259 . S
C208 O217 1.257 . S
C209 O218 1.268 . S
C209 O219 1.253 . S
C210 O220 1.281 . S
C210 O221 1.252 . S
C211 O222 1.272 . S
C211 O223 1.245 . S
C212 O200 1.259 . S
C212 O201 1.257 . S
C213 O202 1.253 . S
C213 O203 1.268 . S
C214 O204 1.281 . S
C214 O205 1.252 . S
C215 O206 1.272 . S
C215 O207 1.245 . S
O216 Co192 2.053 . S
O216 C208 1.259 . S
O217 Co194 2.047 . S
O217 C208 1.257 . S
O218 Co193 2.063 . S
O218 C209 1.268 . S
O219 Co192 2.094 . S
O219 C209 1.253 . S
O220 Co199 2.115 . S
O220 C210 1.281 . S
O221 Co199 2.315 . S
O221 C210 1.252 . S
O222 Co192 2.122 . S
O222 C211 1.272 . S
O223 Co194 2.113 . S
O223 C211 1.245 . S
Co224 H227 2.400 . S
Co224 O228 2.009 . S
Co224 O236 2.115 . S
Co224 O237 2.315 . S
Co224 O248 2.053 . S
Co224 O251 2.094 . S
Co224 O254 2.122 . S
Co225 O228 2.126 . S
Co225 H229 2.388 . S
Co225 O230 2.053 . S
Co225 O233 2.047 . S
Co225 O239 2.113 . S
Co225 O250 2.063 . S
Co226 H227 2.388 . S
Co226 O228 2.053 . S
Co226 O230 2.126 . S
Co226 O235 2.063 . S
Co226 O249 2.047 . S
Co226 O255 2.113 . S
H227 Co224 2.400 . S
H227 Co226 2.388 . S
H227 O228 0.760 . S
O228 Co224 2.009 . S
O228 Co225 2.126 . S
O228 Co226 2.053 . S
O228 H227 0.760 . S
H229 Co225 2.388 . S
H229 O230 0.760 . S
H229 Co231 2.400 . S
O230 Co225 2.053 . S
O230 Co226 2.126 . S
O230 H229 0.760 . S
O230 Co231 2.009 . S
Co231 H229 2.400 . S
Co231 O230 2.009 . S
Co231 O232 2.053 . S
Co231 O234 2.094 . S
Co231 O238 2.122 . S
Co231 O252 2.115 . S
Co231 O253 2.315 . S
O232 Co231 2.053 . S
O232 C244 1.259 . S
O233 Co225 2.047 . S
O233 C244 1.257 . S
O234 Co231 2.094 . S
O234 C245 1.253 . S
O235 Co226 2.063 . S
O235 C245 1.268 . S
O236 Co224 2.115 . S
O236 C246 1.281 . S
O237 Co224 2.315 . S
O237 C246 1.252 . S
O238 Co231 2.122 . S
O238 C247 1.272 . S
O239 Co225 2.113 . S
O239 C247 1.245 . S
C240 O248 1.259 . S
C240 O249 1.257 . S
C241 O250 1.268 . S
C241 O251 1.253 . S
C242 O252 1.281 . S
C242 O253 1.252 . S
C243 O254 1.272 . S
C243 O255 1.245 . S
C244 O232 1.259 . S
C244 O233 1.257 . S
C245 O234 1.253 . S
C245 O235 1.268 . S
C246 O236 1.281 . S
C246 O237 1.252 . S
C247 O238 1.272 . S
C247 O239 1.245 . S
O248 Co224 2.053 . S
O248 C240 1.259 . S
O249 Co226 2.047 . S
O249 C240 1.257 . S
O250 Co225 2.063 . S
O250 C241 1.268 . S
O251 Co224 2.094 . S
O251 C241 1.253 . S
O252 Co231 2.115 . S
O252 C242 1.281 . S
O253 Co231 2.315 . S
O253 C242 1.252 . S
O254 Co224 2.122 . S
O254 C243 1.272 . S
O255 Co226 2.113 . S
O255 C243 1.245 . S
Co256 H259 2.400 . S
Co256 O260 2.009 . S
Co256 O268 2.115 . S
Co256 O269 2.315 . S
Co256 O280 2.053 . S
Co256 O283 2.094 . S
Co256 O286 2.122 . S
Co257 O260 2.126 . S
Co257 H261 2.388 . S
Co257 O262 2.053 . S
Co257 O265 2.047 . S
Co257 O271 2.113 . S
Co257 O282 2.063 . S
Co258 H259 2.388 . S
Co258 O260 2.053 . S
Co258 O262 2.126 . S
Co258 O267 2.063 . S
Co258 O281 2.047 . S
Co258 O287 2.113 . S
H259 Co256 2.400 . S
H259 Co258 2.388 . S
H259 O260 0.760 . S
O260 Co256 2.009 . S
O260 Co257 2.126 . S
O260 Co258 2.053 . S
O260 H259 0.760 . S
H261 Co257 2.388 . S
H261 O262 0.760 . S
H261 Co263 2.400 . S
O262 Co257 2.053 . S
O262 Co258 2.126 . S
O262 H261 0.760 . S
O262 Co263 2.009 . S
Co263 H261 2.400 . S
Co263 O262 2.009 . S
Co263 O264 2.053 . S
Co263 O266 2.094 . S
Co263 O270 2.122 . S
Co263 O284 2.115 . S
Co263 O285 2.315 . S
O264 Co263 2.053 . S
O264 C276 1.259 . S
O265 Co257 2.047 . S
O265 C276 1.257 . S
O266 Co263 2.094 . S
O266 C277 1.253 . S
O267 Co258 2.063 . S
O267 C277 1.268 . S
O268 Co256 2.115 . S
O268 C278 1.281 . S
O269 Co256 2.315 . S
O269 C278 1.252 . S
O270 Co263 2.122 . S
O270 C279 1.272 . S
O271 Co257 2.113 . S
O271 C279 1.245 . S
C272 O280 1.259 . S
C272 O281 1.257 . S
C273 O282 1.268 . S
C273 O283 1.253 . S
C274 O284 1.281 . S
C274 O285 1.252 . S
C275 O286 1.272 . S
C275 O287 1.245 . S
C276 O264 1.259 . S
C276 O265 1.257 . S
C277 O266 1.253 . S
C277 O267 1.268 . S
C278 O268 1.281 . S
C278 O269 1.252 . S
C279 O270 1.272 . S
C279 O271 1.245 . S
O280 Co256 2.053 . S
O280 C272 1.259 . S
O281 Co258 2.047 . S
O281 C272 1.257 . S
O282 Co257 2.063 . S
O282 C273 1.268 . S
O283 Co256 2.094 . S
O283 C273 1.253 . S
O284 Co263 2.115 . S
O284 C274 1.281 . S
O285 Co263 2.315 . S
O285 C274 1.252 . S
O286 Co256 2.122 . S
O286 C275 1.272 . S
O287 Co258 2.113 . S
O287 C275 1.245 . S
H288 C294 0.930 . S
H289 C298 0.930 . S
H290 C303 0.929 1_556 S
H291 C301 0.929 . S
H292 C296 0.929 . S
H293 C302 0.929 . S
C294 H288 0.930 . S
C294 C295 1.367 . S
C294 C302 1.378 . S
C295 C294 1.367 . S
C295 C303 1.433 . S
C296 H292 0.929 . S
C296 C298 1.378 . S
C296 C300 1.350 . S
C297 C300 1.463 . S
C297 C302 1.350 . S
C297 N305 1.427 . S
C298 H289 0.930 . S
C298 C296 1.378 . S
C298 C299 1.367 . S
C299 C298 1.367 . S
C299 C301 1.433 . S
C300 C296 1.350 . S
C300 C297 1.463 . S
C300 N304 1.427 . S
C301 H291 0.929 . S
C301 C299 1.433 . S
C301 N304 1.384 . S
C302 H293 0.929 . S
C302 C294 1.378 . S
C302 C297 1.350 . S
C303 H290 0.929 1_554 S
C303 C295 1.433 . S
C303 N305 1.384 . S
N304 C300 1.427 . S
N304 C301 1.384 . S
N305 C297 1.427 . S
N305 C303 1.384 . S
H306 C312 0.930 . S
H307 C316 0.930 . S
H308 C321 0.929 . S
H309 C319 0.929 . S
H310 C314 0.929 . S
H311 C320 0.929 . S
C312 H306 0.930 . S
C312 C313 1.367 . S
C312 C320 1.378 . S
C313 C312 1.367 . S
C313 C321 1.433 . S
C314 H310 0.929 . S
C314 C316 1.378 1_545 S
C314 C318 1.350 . S
C315 C318 1.463 . S
C315 C320 1.350 . S
C315 N323 1.427 . S
C316 H307 0.930 . S
C316 C314 1.378 1_565 S
C316 C317 1.367 . S
C317 C316 1.367 . S
C317 C319 1.433 . S
C318 C314 1.350 . S
C318 C315 1.463 . S
C318 N322 1.438 . S
C319 H309 0.929 . S
C319 C317 1.433 . S
C319 N322 1.352 1_565 S
C320 H311 0.929 . S
C320 C312 1.378 . S
C320 C315 1.350 . S
C321 H308 0.929 . S
C321 C313 1.433 . S
C321 N323 1.384 . S
N322 C318 1.438 . S
N322 C319 1.352 1_545 S
N323 C315 1.427 . S
N323 C321 1.384 . S
H324 C330 0.930 . S
H325 C334 0.930 . S
H326 C339 0.929 . S
H327 C337 0.929 . S
H328 C332 0.929 . S
H329 C338 0.929 1_556 S
C330 H324 0.930 . S
C330 C331 1.367 1_556 S
C330 C338 1.378 1_456 S
C331 C330 1.367 1_554 S
C331 C339 1.433 . S
C332 H328 0.929 . S
C332 C334 1.378 . S
C332 C336 1.350 . S
C333 C336 1.463 . S
C333 C338 1.350 . S
C333 N341 1.428 . S
C334 H325 0.930 . S
C334 C332 1.378 . S
C334 C335 1.367 . S
C335 C334 1.367 . S
C335 C337 1.433 . S
C336 C332 1.350 . S
C336 C333 1.463 . S
C336 N340 1.427 . S
C337 H327 0.929 . S
C337 C335 1.433 . S
C337 N340 1.384 . S
C338 H329 0.929 1_554 S
C338 C330 1.378 1_654 S
C338 C333 1.350 . S
C339 H326 0.929 . S
C339 C331 1.433 . S
C339 N341 1.383 1_455 S
N340 C336 1.427 . S
N340 C337 1.384 . S
N341 C333 1.428 . S
N341 C339 1.383 1_655 S
H342 C348 0.930 . S
H343 C352 0.930 . S
H344 C357 0.929 . S
H345 C355 0.929 . S
H346 C350 0.929 . S
H347 C356 0.929 1_556 S
C348 H342 0.930 . S
C348 C349 1.367 1_556 S
C348 C356 1.378 1_556 S
C349 C348 1.367 1_554 S
C349 C357 1.433 . S
C350 H346 0.929 . S
C350 C352 1.378 . S
C350 C354 1.350 . S
C351 C354 1.463 . S
C351 C356 1.350 . S
C351 N359 1.427 . S
C352 H343 0.930 . S
C352 C350 1.378 . S
C352 C353 1.367 . S
C353 C352 1.367 . S
C353 C355 1.433 . S
C354 C350 1.350 . S
C354 C351 1.463 . S
C354 N358 1.427 . S
C355 H345 0.929 . S
C355 C353 1.433 . S
C355 N358 1.384 . S
C356 H347 0.929 1_554 S
C356 C348 1.378 1_554 S
C356 C351 1.350 . S
C357 H344 0.929 . S
C357 C349 1.433 . S
C357 N359 1.384 . S
N358 C354 1.427 . S
N358 C355 1.384 . S
N359 C351 1.427 . S
N359 C357 1.384 . S
H360 C366 0.930 1_565 S
H361 C370 0.930 . S
H362 C375 0.929 . S
H363 C373 0.929 . S
H364 C368 0.929 . S
H365 C374 0.929 . S
C366 H360 0.930 1_545 S
C366 C367 1.367 . S
C366 C374 1.378 . S
C367 C366 1.367 . S
C367 C375 1.433 1_554 S
C368 H364 0.929 . S
C368 C370 1.378 . S
C368 C372 1.350 . S
C369 C372 1.463 . S
C369 C374 1.350 . S
C369 N377 1.427 . S
C370 H361 0.930 . S
C370 C368 1.378 . S
C370 C371 1.367 . S
C371 C370 1.367 . S
C371 C373 1.433 . S
C372 C368 1.350 . S
C372 C369 1.463 . S
C372 N376 1.427 . S
C373 H363 0.929 . S
C373 C371 1.433 . S
C373 N376 1.384 . S
C374 H365 0.929 . S
C374 C366 1.378 . S
C374 C369 1.350 . S
C375 H362 0.929 . S
C375 C367 1.433 1_556 S
C375 N377 1.384 1_556 S
N376 C372 1.427 . S
N376 C373 1.384 . S
N377 C369 1.427 . S
N377 C375 1.384 1_554 S
H378 C384 0.930 1_455 S
H379 C388 0.930 . S
H380 C393 0.929 . S
H381 C391 0.929 . S
H382 C386 0.929 . S
H383 C392 0.929 . S
C384 H378 0.930 1_655 S
C384 C385 1.367 . S
C384 C392 1.378 . S
C385 C384 1.367 . S
C385 C393 1.433 1_554 S
C386 H382 0.929 . S
C386 C388 1.378 . S
C386 C390 1.350 . S
C387 C390 1.463 . S
C387 C392 1.350 . S
C387 N395 1.427 . S
C388 H379 0.930 . S
C388 C386 1.378 . S
C388 C389 1.367 . S
C389 C388 1.367 . S
C389 C391 1.433 . S
C390 C386 1.350 . S
C390 C387 1.463 . S
C390 N394 1.427 . S
C391 H381 0.929 . S
C391 C389 1.433 . S
C391 N394 1.384 . S
C392 H383 0.929 . S
C392 C384 1.378 . S
C392 C387 1.350 . S
C393 H380 0.929 . S
C393 C385 1.433 1_556 S
C393 N395 1.384 1_556 S
N394 C390 1.427 . S
N394 C391 1.384 . S
N395 C387 1.427 . S
N395 C393 1.384 1_554 S
H396 C402 0.930 . S
H397 C406 0.930 . S
H398 C411 0.929 . S
H399 C409 0.929 1_455 S
H400 C404 0.929 . S
H401 C410 0.929 . S
C402 H396 0.930 . S
C402 C403 1.367 . S
C402 C410 1.378 . S
C403 C402 1.367 . S
C403 C411 1.433 . S
C404 H400 0.929 . S
C404 C406 1.378 . S
C404 C408 1.350 . S
C405 C408 1.463 . S
C405 C410 1.350 . S
C405 N413 1.427 . S
C406 H397 0.930 . S
C406 C404 1.378 . S
C406 C407 1.367 . S
C407 C406 1.367 . S
C407 C409 1.433 . S
C408 C404 1.350 . S
C408 C405 1.463 . S
C408 N412 1.427 . S
C409 H399 0.929 1_655 S
C409 C407 1.433 . S
C409 N412 1.384 . S
C410 H401 0.929 . S
C410 C402 1.378 . S
C410 C405 1.350 . S
C411 H398 0.929 . S
C411 C403 1.433 . S
C411 N413 1.384 . S
N412 C408 1.427 . S
N412 C409 1.384 . S
N413 C405 1.427 . S
N413 C411 1.384 . S
H414 C420 0.930 . S
H415 C424 0.930 . S
H416 C429 0.929 . S
H417 C427 0.929 . S
H418 C422 0.929 . S
H419 C428 0.929 . S
C420 H414 0.930 . S
C420 C421 1.367 . S
C420 C428 1.378 . S
C421 C420 1.367 . S
C421 C429 1.433 . S
C422 H418 0.929 . S
C422 C424 1.378 . S
C422 C426 1.350 . S
C423 C426 1.463 . S
C423 C428 1.350 . S
C423 N431 1.427 . S
C424 H415 0.930 . S
C424 C422 1.378 . S
C424 C425 1.367 . S
C425 C424 1.367 . S
C425 C427 1.433 . S
C426 C422 1.350 . S
C426 C423 1.463 . S
C426 N430 1.427 . S
C427 H417 0.929 . S
C427 C425 1.433 . S
C427 N430 1.384 . S
C428 H419 0.929 . S
C428 C420 1.378 . S
C428 C423 1.350 . S
C429 H416 0.929 . S
C429 C421 1.433 . S
C429 N431 1.384 . S
N430 C426 1.427 . S
N430 C427 1.384 . S
N431 C423 1.427 . S
N431 C429 1.384 . S
H432 C438 0.930 1_565 S
H433 C442 0.930 . S
H434 C447 0.929 . S
H435 C445 0.929 . S
H436 C440 0.929 . S
H437 C446 0.929 . S
C438 H432 0.930 1_545 S
C438 C439 1.367 . S
C438 C446 1.378 . S
C439 C438 1.367 . S
C439 C447 1.433 . S
C440 H436 0.929 . S
C440 C442 1.378 . S
C440 C444 1.350 . S
C441 C444 1.463 . S
C441 C446 1.350 . S
C441 N449 1.427 . S
C442 H433 0.930 . S
C442 C440 1.378 . S
C442 C443 1.367 . S
C443 C442 1.367 . S
C443 C445 1.433 . S
C444 C440 1.350 . S
C444 C441 1.463 . S
C444 N448 1.427 . S
C445 H435 0.929 . S
C445 C443 1.433 . S
C445 N448 1.384 . S
C446 H437 0.929 . S
C446 C438 1.378 . S
C446 C441 1.350 . S
C447 H434 0.929 . S
C447 C439 1.433 . S
C447 N449 1.384 . S
N448 C444 1.427 . S
N448 C445 1.384 . S
N449 C441 1.427 . S
N449 C447 1.384 . S
H450 C456 0.930 . S
H451 C460 0.930 . S
H452 C465 0.929 . S
H453 C463 0.935 . S
H454 C458 0.929 . S
H455 C464 0.929 . S
C456 H450 0.930 . S
C456 C457 1.367 . S
C456 C464 1.378 . S
C457 C456 1.367 . S
C457 C465 1.433 . S
C458 H454 0.929 . S
C458 C460 1.378 . S
C458 C462 1.350 . S
C459 C462 1.463 . S
C459 C464 1.350 . S
C459 N467 1.427 . S
C460 H451 0.930 . S
C460 C458 1.378 . S
C460 C461 1.367 . S
C461 C460 1.367 . S
C461 C463 1.433 . S
C462 C458 1.350 . S
C462 C459 1.463 . S
C462 N466 1.427 . S
C463 H453 0.935 . S
C463 C461 1.433 . S
C463 N466 1.384 . S
C464 H455 0.929 . S
C464 C456 1.378 . S
C464 C459 1.350 . S
C465 H452 0.929 . S
C465 C457 1.433 . S
C465 N467 1.384 . S
N466 C462 1.427 . S
N466 C463 1.384 . S
N467 C459 1.427 . S
N467 C465 1.384 . S
H468 C474 0.930 1_455 S
H469 C478 0.930 . S
H470 C483 0.929 . S
H471 C481 0.929 . S
H472 C476 0.929 . S
H473 C482 0.929 . S
C474 H468 0.930 1_655 S
C474 C475 1.367 . S
C474 C482 1.378 . S
C475 C474 1.367 . S
C475 C483 1.433 . S
C476 H472 0.929 . S
C476 C478 1.378 . S
C476 C480 1.350 . S
C477 C480 1.463 . S
C477 C482 1.350 . S
C477 N485 1.427 . S
C478 H469 0.930 . S
C478 C476 1.378 . S
C478 C479 1.367 . S
C479 C478 1.367 . S
C479 C481 1.433 . S
C480 C476 1.350 . S
C480 C477 1.463 . S
C480 N484 1.427 . S
C481 H471 0.929 . S
C481 C479 1.433 . S
C481 N484 1.384 . S
C482 H473 0.929 . S
C482 C474 1.378 . S
C482 C477 1.350 . S
C483 H470 0.929 . S
C483 C475 1.433 . S
C483 N485 1.384 . S
N484 C480 1.427 . S
N484 C481 1.384 . S
N485 C477 1.427 . S
N485 C483 1.384 . S
H486 C492 0.930 . S
H487 C496 0.930 . S
H488 C501 0.929 . S
H489 C499 0.929 . S
H490 C494 0.929 . S
H491 C500 0.929 . S
C492 H486 0.930 . S
C492 C493 1.367 . S
C492 C500 1.378 . S
C493 C492 1.367 . S
C493 C501 1.433 . S
C494 H490 0.929 . S
C494 C496 1.378 . S
C494 C498 1.350 . S
C495 C498 1.463 . S
C495 C500 1.350 . S
C495 N503 1.427 . S
C496 H487 0.930 . S
C496 C494 1.378 . S
C496 C497 1.367 . S
C497 C496 1.367 . S
C497 C499 1.433 . S
C498 C494 1.350 . S
C498 C495 1.463 . S
C498 N502 1.427 . S
C499 H489 0.929 . S
C499 C497 1.433 . S
C499 N502 1.384 . S
C500 H491 0.929 . S
C500 C492 1.378 . S
C500 C495 1.350 . S
C501 H488 0.929 . S
C501 C493 1.433 . S
C501 N503 1.384 . S
N502 C498 1.427 . S
N502 C499 1.384 . S
N503 C495 1.427 . S
N503 C501 1.384 . S
H504 C510 0.930 . S
H505 C514 0.930 . S
H506 C519 0.929 . S
H507 C517 0.929 . S
H508 C512 0.929 . S
H509 C518 0.929 . S
C510 H504 0.930 . S
C510 C511 1.367 . S
C510 C518 1.378 . S
C511 C510 1.367 . S
C511 C519 1.433 . S
C512 H508 0.929 . S
C512 C514 1.378 . S
C512 C516 1.350 . S
C513 C516 1.463 . S
C513 C518 1.350 . S
C513 N521 1.427 . S
C514 H505 0.930 . S
C514 C512 1.378 . S
C514 C515 1.367 . S
C515 C514 1.367 . S
C515 C517 1.433 . S
C516 C512 1.350 . S
C516 C513 1.463 . S
C516 N520 1.427 . S
C517 H507 0.929 . S
C517 C515 1.433 . S
C517 N520 1.384 . S
C518 H509 0.929 . S
C518 C510 1.378 . S
C518 C513 1.350 . S
C519 H506 0.929 . S
C519 C511 1.433 . S
C519 N521 1.384 . S
N520 C516 1.427 . S
N520 C517 1.384 . S
N521 C513 1.427 . S
N521 C519 1.384 . S
H522 C528 0.930 . S
H523 C532 0.930 . S
H524 C537 0.929 . S
H525 C535 0.929 . S
H526 C530 0.929 . S
H527 C536 0.929 . S
C528 H522 0.930 . S
C528 C529 1.367 . S
C528 C536 1.378 . S
C529 C528 1.367 . S
C529 C537 1.433 . S
C530 H526 0.929 . S
C530 C532 1.378 . S
C530 C534 1.350 . S
C531 C534 1.463 . S
C531 C536 1.350 . S
C531 N539 1.427 . S
C532 H523 0.930 . S
C532 C530 1.378 . S
C532 C533 1.367 . S
C533 C532 1.367 . S
C533 C535 1.433 . S
C534 C530 1.350 . S
C534 C531 1.463 . S
C534 N538 1.427 . S
C535 H525 0.929 . S
C535 C533 1.433 . S
C535 N538 1.384 . S
C536 H527 0.929 . S
C536 C528 1.378 . S
C536 C531 1.350 . S
C537 H524 0.929 . S
C537 C529 1.433 . S
C537 N539 1.384 . S
N538 C534 1.427 . S
N538 C535 1.384 . S
N539 C531 1.427 . S
N539 C537 1.384 . S
H540 C546 0.930 1_554 S
H541 C550 0.930 . S
H542 C555 0.929 . S
H543 C553 0.929 . S
H544 C548 0.929 . S
H545 C554 0.929 . S
C546 H540 0.930 1_556 S
C546 C547 1.367 . S
C546 C554 1.378 . S
C547 C546 1.367 . S
C547 C555 1.433 . S
C548 H544 0.929 . S
C548 C550 1.378 . S
C548 C552 1.350 . S
C549 C552 1.463 . S
C549 C554 1.350 . S
C549 N557 1.427 . S
C550 H541 0.930 . S
C550 C548 1.378 . S
C550 C551 1.367 . S
C551 C550 1.367 . S
C551 C553 1.433 . S
C552 C548 1.350 . S
C552 C549 1.463 . S
C552 N556 1.427 . S
C553 H543 0.929 . S
C553 C551 1.433 . S
C553 N556 1.384 . S
C554 H545 0.929 . S
C554 C546 1.378 . S
C554 C549 1.350 . S
C555 H542 0.929 . S
C555 C547 1.433 . S
C555 N557 1.384 . S
N556 C552 1.427 . S
N556 C553 1.384 . S
N557 C549 1.427 . S
N557 C555 1.384 . S
H558 C564 0.930 . S
H559 C568 0.930 . S
H560 C573 0.929 . S
H561 C571 0.929 . S
H562 C566 0.929 . S
H563 C572 0.929 . S
C564 H558 0.930 . S
C564 C565 1.367 . S
C564 C572 1.378 . S
C565 C564 1.367 . S
C565 C573 1.433 . S
C566 H562 0.929 . S
C566 C568 1.378 . S
C566 C570 1.350 . S
C567 C570 1.463 . S
C567 C572 1.350 . S
C567 N575 1.427 . S
C568 H559 0.930 . S
C568 C566 1.378 . S
C568 C569 1.367 . S
C569 C568 1.367 . S
C569 C571 1.433 . S
C570 C566 1.350 . S
C570 C567 1.463 . S
C570 N574 1.427 . S
C571 H561 0.929 . S
C571 C569 1.433 . S
C571 N574 1.384 . S
C572 H563 0.929 . S
C572 C564 1.378 . S
C572 C567 1.350 . S
C573 H560 0.929 . S
C573 C565 1.433 . S
C573 N575 1.384 . S
N574 C570 1.427 . S
N574 C571 1.384 . S
N575 C567 1.427 . S
N575 C573 1.384 . S
H576 C582 0.930 . S
H577 C586 0.930 . S
H578 C591 0.929 . S
H579 C589 0.929 . S
H580 C584 0.929 . S
H581 C590 0.929 . S
C582 H576 0.930 . S
C582 C583 1.367 . S
C582 C590 1.378 . S
C583 C582 1.367 . S
C583 C591 1.433 . S
C584 H580 0.929 . S
C584 C586 1.378 . S
C584 C588 1.350 . S
C585 C588 1.463 . S
C585 C590 1.350 . S
C585 N593 1.427 . S
C586 H577 0.930 . S
C586 C584 1.378 . S
C586 C587 1.367 . S
C587 C586 1.367 . S
C587 C589 1.433 . S
C588 C584 1.350 . S
C588 C585 1.463 . S
C588 N592 1.427 . S
C589 H579 0.929 . S
C589 C587 1.433 . S
C589 N592 1.384 . S
C590 H581 0.929 . S
C590 C582 1.378 . S
C590 C585 1.350 . S
C591 H578 0.929 . S
C591 C583 1.433 . S
C591 N593 1.384 . S
N592 C588 1.427 . S
N592 C589 1.384 . S
N593 C585 1.427 . S
N593 C591 1.384 . S
H594 C600 0.930 . S
H595 C604 0.930 . S
H596 C609 0.929 . S
H597 C607 0.929 . S
H598 C602 0.929 . S
H599 C608 0.929 . S
C600 H594 0.930 . S
C600 C601 1.367 . S
C600 C608 1.378 . S
C601 C600 1.367 . S
C601 C609 1.433 . S
C602 H598 0.929 . S
C602 C604 1.378 . S
C602 C606 1.350 . S
C603 C606 1.463 . S
C603 C608 1.350 . S
C603 N611 1.427 . S
C604 H595 0.930 . S
C604 C602 1.378 . S
C604 C605 1.367 . S
C605 C604 1.367 . S
C605 C607 1.433 . S
C606 C602 1.350 . S
C606 C603 1.463 . S
C606 N610 1.427 . S
C607 H597 0.929 . S
C607 C605 1.433 . S
C607 N610 1.384 . S
C608 H599 0.929 . S
C608 C600 1.378 . S
C608 C603 1.350 . S
C609 H596 0.929 . S
C609 C601 1.433 . S
C609 N611 1.384 . S
N610 C606 1.427 . S
N610 C607 1.384 . S
N611 C603 1.427 . S
N611 C609 1.384 . S
H612 C618 0.930 . S
H613 C622 0.930 . S
H614 C627 0.929 . S
H615 C625 0.929 1_556 S
H616 C620 0.929 . S
H617 C626 0.929 1_556 S
C618 H612 0.930 . S
C618 C619 1.367 1_556 S
C618 C626 1.378 1_556 S
C619 C618 1.367 1_554 S
C619 C627 1.433 . S
C620 H616 0.929 . S
C620 C622 1.378 . S
C620 C624 1.350 . S
C621 C624 1.463 . S
C621 C626 1.350 . S
C621 N629 1.427 . S
C622 H613 0.930 . S
C622 C620 1.378 . S
C622 C623 1.367 . S
C623 C622 1.367 . S
C623 C625 1.433 . S
C624 C620 1.350 . S
C624 C621 1.463 . S
C624 N628 1.427 . S
C625 H615 0.929 1_554 S
C625 C623 1.433 . S
C625 N628 1.384 . S
C626 H617 0.929 1_554 S
C626 C618 1.378 1_554 S
C626 C621 1.350 . S
C627 H614 0.929 . S
C627 C619 1.433 . S
C627 N629 1.384 . S
N628 C624 1.427 . S
N628 C625 1.384 . S
N629 C621 1.427 . S
N629 C627 1.384 . S
H630 C636 0.930 . S
H631 C640 0.930 . S
H632 C645 0.929 1_455 S
H633 C643 0.914 . S
H634 C638 0.929 . S
H635 C644 0.929 . S
C636 H630 0.930 . S
C636 C637 1.367 . S
C636 C644 1.378 . S
C637 C636 1.367 . S
C637 C645 1.433 . S
C638 H634 0.929 . S
C638 C640 1.378 1_545 S
C638 C642 1.350 . S
C639 C642 1.463 . S
C639 C644 1.350 . S
C639 N647 1.427 . S
C640 H631 0.930 . S
C640 C638 1.378 1_565 S
C640 C641 1.367 . S
C641 C640 1.367 . S
C641 C643 1.433 1_565 S
C642 C638 1.350 . S
C642 C639 1.463 . S
C642 N646 1.427 . S
C643 H633 0.914 . S
C643 C641 1.433 1_545 S
C643 N646 1.384 . S
C644 H635 0.929 . S
C644 C636 1.378 . S
C644 C639 1.350 . S
C645 H632 0.929 1_655 S
C645 C637 1.433 . S
C645 N647 1.384 . S
N646 C642 1.427 . S
N646 C643 1.384 . S
N647 C639 1.427 . S
N647 C645 1.384 . S
H648 C654 0.930 . S
H649 C658 0.930 . S
H650 C663 0.929 . S
H651 C661 0.929 1_556 S
H652 C656 0.929 . S
H653 C662 0.937 . S
C654 H648 0.930 . S
C654 C655 1.367 1_556 S
C654 C662 1.378 . S
C655 C654 1.367 1_554 S
C655 C663 1.433 . S
C656 H652 0.929 . S
C656 C658 1.378 1_655 S
C656 C660 1.350 . S
C657 C660 1.463 . S
C657 C662 1.341 1_554 S
C657 N665 1.427 . S
C658 H649 0.930 . S
C658 C656 1.378 1_455 S
C658 C659 1.367 . S
C659 C658 1.367 . S
C659 C661 1.433 . S
C660 C656 1.350 . S
C660 C657 1.463 . S
C660 N664 1.427 . S
C661 H651 0.929 1_554 S
C661 C659 1.433 . S
C661 N664 1.384 1_455 S
C662 H653 0.937 . S
C662 C654 1.378 . S
C662 C657 1.341 1_556 S
C663 H650 0.929 . S
C663 C655 1.433 . S
C663 N665 1.384 . S
N664 C660 1.427 . S
N664 C661 1.384 1_655 S
N665 C657 1.427 . S
N665 C663 1.384 . S
H666 C672 0.930 . S
H667 C676 0.930 . S
H668 C681 0.929 . S
H669 C679 0.929 . S
H670 C674 0.929 . S
H671 C680 0.929 . S
C672 H666 0.930 . S
C672 C673 1.367 . S
C672 C680 1.378 . S
C673 C672 1.367 . S
C673 C681 1.433 . S
C674 H670 0.929 . S
C674 C676 1.378 . S
C674 C678 1.350 . S
C675 C678 1.463 . S
C675 C680 1.350 . S
C675 N683 1.427 . S
C676 H667 0.930 . S
C676 C674 1.378 . S
C676 C677 1.367 . S
C677 C676 1.367 . S
C677 C679 1.433 . S
C678 C674 1.350 . S
C678 C675 1.463 . S
C678 N682 1.427 . S
C679 H669 0.929 . S
C679 C677 1.433 . S
C679 N682 1.384 . S
C680 H671 0.929 . S
C680 C672 1.378 . S
C680 C675 1.350 . S
C681 H668 0.929 . S
C681 C673 1.433 . S
C681 N683 1.384 . S
N682 C678 1.427 . S
N682 C679 1.384 . S
N683 C675 1.427 . S
N683 C681 1.384 . S
H684 C690 0.930 . S
H685 C694 0.930 . S
H686 C699 0.929 . S
H687 C697 0.929 . S
H688 C692 0.929 . S
H689 C698 0.929 . S
C690 H684 0.930 . S
C690 C691 1.367 . S
C690 C698 1.378 . S
C691 C690 1.367 . S
C691 C699 1.433 . S
C692 H688 0.929 . S
C692 C694 1.378 . S
C692 C696 1.350 . S
C693 C696 1.463 . S
C693 C698 1.350 . S
C693 N701 1.427 . S
C694 H685 0.930 . S
C694 C692 1.378 . S
C694 C695 1.367 . S
C695 C694 1.367 . S
C695 C697 1.433 . S
C696 C692 1.350 . S
C696 C693 1.463 . S
C696 N700 1.427 . S
C697 H687 0.929 . S
C697 C695 1.433 . S
C697 N700 1.384 . S
C698 H689 0.929 . S
C698 C690 1.378 . S
C698 C693 1.350 . S
C699 H686 0.929 . S
C699 C691 1.433 . S
C699 N701 1.384 . S
N700 C696 1.427 . S
N700 C697 1.384 . S
N701 C693 1.427 . S
N701 C699 1.384 . S
H702 C708 0.930 . S
H703 C712 0.930 . S
H704 C717 0.929 . S
H705 C715 0.929 . S
H706 C710 0.929 . S
H707 C716 0.929 . S
C708 H702 0.930 . S
C708 C709 1.367 . S
C708 C716 1.378 . S
C709 C708 1.367 . S
C709 C717 1.433 . S
C710 H706 0.929 . S
C710 C712 1.378 . S
C710 C714 1.350 . S
C711 C714 1.463 . S
C711 C716 1.350 . S
C711 N719 1.427 . S
C712 H703 0.930 . S
C712 C710 1.378 . S
C712 C713 1.367 . S
C713 C712 1.367 . S
C713 C715 1.433 . S
C714 C710 1.350 . S
C714 C711 1.463 . S
C714 N718 1.427 . S
C715 H705 0.929 . S
C715 C713 1.433 . S
C715 N718 1.384 . S
C716 H707 0.929 . S
C716 C708 1.378 . S
C716 C711 1.350 . S
C717 H704 0.929 . S
C717 C709 1.433 . S
C717 N719 1.384 . S
N718 C714 1.427 . S
N718 C715 1.384 . S
N719 C711 1.427 . S
N719 C717 1.384 . S
H720 C726 0.930 . S
H721 C730 0.930 . S
H722 C735 0.929 . S
H723 C733 0.929 . S
H724 C728 0.929 . S
H725 C734 0.929 . S
C726 H720 0.930 . S
C726 C727 1.367 . S
C726 C734 1.378 . S
C727 C726 1.367 . S
C727 C735 1.433 . S
C728 H724 0.929 . S
C728 C730 1.378 . S
C728 C732 1.350 . S
C729 C732 1.463 . S
C729 C734 1.350 . S
C729 N737 1.427 . S
C730 H721 0.930 . S
C730 C728 1.378 . S
C730 C731 1.367 . S
C731 C730 1.367 . S
C731 C733 1.433 . S
C732 C728 1.350 . S
C732 C729 1.463 . S
C732 N736 1.427 . S
C733 H723 0.929 . S
C733 C731 1.433 . S
C733 N736 1.384 . S
C734 H725 0.929 . S
C734 C726 1.378 . S
C734 C729 1.350 . S
C735 H722 0.929 . S
C735 C727 1.433 . S
C735 N737 1.384 . S
N736 C732 1.427 . S
N736 C733 1.384 . S
N737 C729 1.427 . S
N737 C735 1.384 . S
H738 C744 0.930 . S
H739 C748 0.930 . S
H740 C753 0.929 . S
H741 C751 0.929 . S
H742 C746 0.929 . S
H743 C752 0.929 . S
C744 H738 0.930 . S
C744 C745 1.367 . S
C744 C752 1.378 . S
C745 C744 1.367 . S
C745 C753 1.433 . S
C746 H742 0.929 . S
C746 C748 1.378 . S
C746 C750 1.350 . S
C747 C750 1.463 . S
C747 C752 1.350 . S
C747 N755 1.427 . S
C748 H739 0.930 . S
C748 C746 1.378 . S
C748 C749 1.367 . S
C749 C748 1.367 . S
C749 C751 1.433 . S
C750 C746 1.350 . S
C750 C747 1.463 . S
C750 N754 1.427 . S
C751 H741 0.929 . S
C751 C749 1.433 . S
C751 N754 1.384 . S
C752 H743 0.929 . S
C752 C744 1.378 . S
C752 C747 1.350 . S
C753 H740 0.929 . S
C753 C745 1.433 . S
C753 N755 1.384 . S
N754 C750 1.427 . S
N754 C751 1.384 . S
N755 C747 1.427 . S
N755 C753 1.384 . S
H756 C762 0.930 . S
H757 C766 0.930 . S
H758 C771 0.929 . S
H759 C769 0.929 . S
H760 C764 0.929 . S
H761 C770 0.929 . S
C762 H756 0.930 . S
C762 C763 1.367 . S
C762 C770 1.378 . S
C763 C762 1.367 . S
C763 C771 1.433 . S
C764 H760 0.929 . S
C764 C766 1.378 . S
C764 C768 1.350 . S
C765 C768 1.463 . S
C765 C770 1.350 . S
C765 N773 1.427 . S
C766 H757 0.930 . S
C766 C764 1.378 . S
C766 C767 1.367 . S
C767 C766 1.367 . S
C767 C769 1.433 . S
C768 C764 1.350 . S
C768 C765 1.463 . S
C768 N772 1.427 . S
C769 H759 0.929 . S
C769 C767 1.433 . S
C769 N772 1.384 . S
C770 H761 0.929 . S
C770 C762 1.378 . S
C770 C765 1.350 . S
C771 H758 0.929 . S
C771 C763 1.433 . S
C771 N773 1.384 . S
N772 C768 1.427 . S
N772 C769 1.384 . S
N773 C765 1.427 . S
N773 C771 1.384 . S
H774 C780 0.930 . S
H775 C784 0.930 . S
H776 C789 0.929 . S
H777 C787 0.929 . S
H778 C782 0.929 . S
H779 C788 0.929 . S
C780 H774 0.930 . S
C780 C781 1.367 . S
C780 C788 1.378 . S
C781 C780 1.367 . S
C781 C789 1.433 . S
C782 H778 0.929 . S
C782 C784 1.378 . S
C782 C786 1.350 . S
C783 C786 1.463 . S
C783 C788 1.350 . S
C783 N791 1.427 . S
C784 H775 0.930 . S
C784 C782 1.378 . S
C784 C785 1.367 . S
C785 C784 1.367 . S
C785 C787 1.433 . S
C786 C782 1.350 . S
C786 C783 1.463 . S
C786 N790 1.427 . S
C787 H777 0.929 . S
C787 C785 1.433 . S
C787 N790 1.384 . S
C788 H779 0.929 . S
C788 C780 1.378 . S
C788 C783 1.350 . S
C789 H776 0.929 . S
C789 C781 1.433 . S
C789 N791 1.384 . S
N790 C786 1.427 . S
N790 C787 1.384 . S
N791 C783 1.427 . S
N791 C789 1.384 . S
H792 C798 0.930 . S
H793 C802 0.930 . S
H794 C807 0.929 . S
H795 C805 0.929 . S
H796 C800 0.929 . S
H797 C806 0.929 . S
C798 H792 0.930 . S
C798 C799 1.367 . S
C798 C806 1.378 . S
C799 C798 1.367 . S
C799 C807 1.433 . S
C800 H796 0.929 . S
C800 C802 1.378 . S
C800 C804 1.350 . S
C801 C804 1.463 . S
C801 C806 1.350 . S
C801 N809 1.427 . S
C802 H793 0.930 . S
C802 C800 1.378 . S
C802 C803 1.367 . S
C803 C802 1.367 . S
C803 C805 1.433 . S
C804 C800 1.350 . S
C804 C801 1.463 . S
C804 N808 1.427 . S
C805 H795 0.929 . S
C805 C803 1.433 . S
C805 N808 1.384 . S
C806 H797 0.929 . S
C806 C798 1.378 . S
C806 C801 1.350 . S
C807 H794 0.929 . S
C807 C799 1.433 . S
C807 N809 1.384 . S
N808 C804 1.427 . S
N808 C805 1.384 . S
N809 C801 1.427 . S
N809 C807 1.384 . S
H810 C816 0.930 . S
H811 C820 0.930 . S
H812 C825 0.929 . S
H813 C823 0.929 . S
H814 C818 0.929 . S
H815 C824 0.929 . S
C816 H810 0.930 . S
C816 C817 1.367 . S
C816 C824 1.378 . S
C817 C816 1.367 . S
C817 C825 1.433 . S
C818 H814 0.929 . S
C818 C820 1.378 . S
C818 C822 1.350 . S
C819 C822 1.463 . S
C819 C824 1.350 . S
C819 N827 1.427 . S
C820 H811 0.930 . S
C820 C818 1.378 . S
C820 C821 1.367 . S
C821 C820 1.367 . S
C821 C823 1.433 . S
C822 C818 1.350 . S
C822 C819 1.463 . S
C822 N826 1.427 . S
C823 H813 0.929 . S
C823 C821 1.433 . S
C823 N826 1.384 . S
C824 H815 0.929 . S
C824 C816 1.378 . S
C824 C819 1.350 . S
C825 H812 0.929 . S
C825 C817 1.433 . S
C825 N827 1.384 . S
N826 C822 1.427 . S
N826 C823 1.384 . S
N827 C819 1.427 . S
N827 C825 1.384 . S
H828 C834 0.930 . S
H829 C838 0.930 . S
H830 C843 0.929 . S
H831 C841 0.929 . S
H832 C836 0.929 . S
H833 C842 0.929 . S
C834 H828 0.930 . S
C834 C835 1.367 . S
C834 C842 1.378 . S
C835 C834 1.367 . S
C835 C843 1.433 . S
C836 H832 0.929 . S
C836 C838 1.378 1_556 S
C836 C840 1.350 . S
C837 C840 1.463 . S
C837 C842 1.350 . S
C837 N845 1.427 . S
C838 H829 0.930 . S
C838 C836 1.378 1_554 S
C838 C839 1.367 . S
C839 C838 1.367 . S
C839 C841 1.433 . S
C840 C836 1.350 . S
C840 C837 1.463 . S
C840 N844 1.427 . S
C841 H831 0.929 . S
C841 C839 1.433 . S
C841 N844 1.384 1_554 S
C842 H833 0.929 . S
C842 C834 1.378 . S
C842 C837 1.350 . S
C843 H830 0.929 . S
C843 C835 1.433 . S
C843 N845 1.384 . S
N844 C840 1.427 . S
N844 C841 1.384 1_556 S
N845 C837 1.427 . S
N845 C843 1.384 . S
H846 C852 0.930 1_554 S
H847 C856 0.930 . S
H848 C861 0.929 . S
H849 C859 0.929 . S
H850 C854 0.929 . S
H851 C860 0.929 . S
C852 H846 0.930 1_556 S
C852 C853 1.367 1_556 S
C852 C860 1.378 . S
C853 C852 1.367 1_554 S
C853 C861 1.433 . S
C854 H850 0.929 . S
C854 C856 1.378 . S
C854 C858 1.350 . S
C855 C858 1.463 . S
C855 C860 1.350 . S
C855 N863 1.427 . S
C856 H847 0.930 . S
C856 C854 1.378 . S
C856 C857 1.367 . S
C857 C856 1.367 . S
C857 C859 1.433 . S
C858 C854 1.350 . S
C858 C855 1.463 . S
C858 N862 1.427 . S
C859 H849 0.929 . S
C859 C857 1.433 . S
C859 N862 1.384 . S
C860 H851 0.929 . S
C860 C852 1.378 . S
C860 C855 1.350 . S
C861 H848 0.929 . S
C861 C853 1.433 . S
C861 N863 1.384 1_554 S
N862 C858 1.427 . S
N862 C859 1.384 . S
N863 C855 1.427 . S
N863 C861 1.384 1_556 S
H864 C870 0.930 . S
H865 C874 0.930 . S
H866 C879 0.929 . S
H867 C877 0.929 . S
H868 C872 0.929 . S
H869 C878 0.929 . S
C870 H864 0.930 . S
C870 C871 1.367 . S
C870 C878 1.378 . S
C871 C870 1.367 . S
C871 C879 1.433 . S
C872 H868 0.929 . S
C872 C874 1.378 1_556 S
C872 C876 1.350 . S
C873 C876 1.463 . S
C873 C878 1.350 . S
C873 N881 1.427 . S
C874 H865 0.930 . S
C874 C872 1.378 1_554 S
C874 C875 1.367 . S
C875 C874 1.367 . S
C875 C877 1.433 . S
C876 C872 1.350 . S
C876 C873 1.463 . S
C876 N880 1.427 . S
C877 H867 0.929 . S
C877 C875 1.433 . S
C877 N880 1.384 1_554 S
C878 H869 0.929 . S
C878 C870 1.378 . S
C878 C873 1.350 . S
C879 H866 0.929 . S
C879 C871 1.433 . S
C879 N881 1.384 . S
N880 C876 1.427 . S
N880 C877 1.384 1_556 S
N881 C873 1.427 . S
N881 C879 1.384 . S
H882 C888 0.930 . S
H883 C892 0.930 . S
H884 C897 0.929 . S
H885 C895 0.929 1_556 S
H886 C890 0.929 . S
H887 C896 0.929 . S
C888 H882 0.930 . S
C888 C889 1.367 . S
C888 C896 1.378 . S
C889 C888 1.367 . S
C889 C897 1.433 . S
C890 H886 0.929 . S
C890 C892 1.378 1_554 S
C890 C894 1.350 . S
C891 C894 1.463 . S
C891 C896 1.350 . S
C891 N899 1.427 . S
C892 H883 0.930 . S
C892 C890 1.378 1_556 S
C892 C893 1.367 . S
C893 C892 1.367 . S
C893 C895 1.433 1_556 S
C894 C890 1.350 . S
C894 C891 1.463 . S
C894 N898 1.427 . S
C895 H885 0.929 1_554 S
C895 C893 1.433 1_554 S
C895 N898 1.384 . S
C896 H887 0.929 . S
C896 C888 1.378 . S
C896 C891 1.350 . S
C897 H884 0.929 . S
C897 C889 1.433 . S
C897 N899 1.384 . S
N898 C894 1.427 . S
N898 C895 1.384 . S
N899 C891 1.427 . S
N899 C897 1.384 . S
H900 C906 0.930 . S
H901 C910 0.930 1_556 S
H902 C915 0.929 . S
H903 C913 0.929 . S
H904 C908 0.929 . S
H905 C914 0.929 . S
C906 H900 0.930 . S
C906 C907 1.367 . S
C906 C914 1.378 . S
C907 C906 1.367 . S
C907 C915 1.433 . S
C908 H904 0.929 . S
C908 C910 1.378 . S
C908 C912 1.350 . S
C909 C912 1.463 . S
C909 C914 1.350 . S
C909 N917 1.427 . S
C910 H901 0.930 1_554 S
C910 C908 1.378 . S
C910 C911 1.367 1_554 S
C911 C910 1.367 1_556 S
C911 C913 1.433 . S
C912 C908 1.350 . S
C912 C909 1.463 . S
C912 N916 1.427 . S
C913 H903 0.929 . S
C913 C911 1.433 . S
C913 N916 1.384 1_556 S
C914 H905 0.929 . S
C914 C906 1.378 . S
C914 C909 1.350 . S
C915 H902 0.929 . S
C915 C907 1.433 . S
C915 N917 1.384 . S
N916 C912 1.427 . S
N916 C913 1.384 1_554 S
N917 C909 1.427 . S
N917 C915 1.384 . S
H918 C924 0.930 . S
H919 C928 0.930 1_556 S
H920 C933 0.929 . S
H921 C931 0.929 . S
H922 C926 0.929 . S
H923 C932 0.929 . S
C924 H918 0.930 . S
C924 C925 1.367 . S
C924 C932 1.378 . S
C925 C924 1.367 . S
C925 C933 1.433 . S
C926 H922 0.929 . S
C926 C928 1.378 . S
C926 C930 1.350 . S
C927 C930 1.463 . S
C927 C932 1.350 . S
C927 N935 1.427 . S
C928 H919 0.930 1_554 S
C928 C926 1.378 . S
C928 C929 1.367 1_554 S
C929 C928 1.367 1_556 S
C929 C931 1.433 . S
C930 C926 1.350 . S
C930 C927 1.463 . S
C930 N934 1.427 . S
C931 H921 0.929 . S
C931 C929 1.433 . S
C931 N934 1.384 1_556 S
C932 H923 0.929 . S
C932 C924 1.378 . S
C932 C927 1.350 . S
C933 H920 0.929 . S
C933 C925 1.433 . S
C933 N935 1.384 . S
N934 C930 1.427 . S
N934 C931 1.384 1_554 S
N935 C927 1.427 . S
N935 C933 1.384 . S
C295 C17 1.603 1_554 S
C299 C150 1.581 . S
C313 C182 1.584 . S
C317 C49 1.605 1_554 S
C331 C81 1.613 1_554 S
C335 C118 1.588 . S
C349 C53 2.315 . S
C353 C112 2.364 . S
C367 C85 2.308 1_545 S
C371 C144 2.363 . S
C385 C21 2.308 1_655 S
C389 C176 2.362 . S
C403 C113 1.613 . S
C407 C246 1.587 1_655 S
C421 C278 1.585 . S
C425 C145 1.613 . S
C439 C214 1.581 1_545 S
C443 C177 1.603 . S
C457 C149 2.316 . S
C461 C208 2.364 1_545 S
C475 C240 2.364 1_655 S
C479 C181 2.313 . S
C493 C272 2.364 . S
C497 C117 2.309 . S
C511 C209 1.607 . S
C515 C54 1.576 . S
C529 C241 1.612 . S
C533 C86 1.582 . S
C547 C22 1.588 . S
C551 C273 1.613 . S
C565 C16 2.363 . S
C569 C245 2.312 . S
C583 C48 2.364 . S
C587 C277 2.315 . S
C601 C213 2.309 . S
C605 C80 2.362 . S
C619 C82 1.431 1_545 S
C623 C20 1.446 . S
C637 C18 1.436 1_655 S
C641 C52 1.439 . S
C655 C50 1.431 . S
C659 C84 1.446 . S
C673 C178 1.431 . S
C677 C116 1.445 . S
C691 C114 1.433 . S
C695 C148 1.445 . S
C709 C146 1.433 . S
C713 C180 1.437 . S
C727 C212 1.444 . S
C731 C274 1.435 . S
C745 C244 1.443 . S
C749 C210 1.426 . S
C763 C276 1.442 . S
C767 C242 1.425 . S
C781 C19 1.120 . S
C785 C23 1.120 . S
C799 C55 1.126 . S
C803 C51 1.126 . S
C817 C83 1.119 . S
C821 C87 1.119 . S
C835 C119 1.130 . S
C839 C115 1.130 . S
C853 C147 1.125 . S
C857 C151 1.125 . S
C871 C183 1.120 . S
C875 C179 1.120 . S
C889 C211 1.129 . S
C893 C215 1.129 . S
C907 C243 1.128 . S
C911 C247 1.128 . S
C925 C275 1.130 . S
C929 C279 1.130 . S
