# Generated by pormake.
# Topology vby, (6)-cn, num edge types: 1
# Building blocks:
#     Node 0, Type 0, BuildingBlock: CUWYAW_clean_sbu_0, # of connection points: 6
#     Node 1, Type 0, BuildingBlock: CUWYAW_clean_sbu_0, # of connection points: 6
#     Node 2, Type 0, BuildingBlock: CUWYAW_clean_sbu_0, # of connection points: 6
#     Node 3, Type 0, BuildingBlock: CUWYAW_clean_sbu_0, # of connection points: 6
#     Node 4, Type 0, BuildingBlock: CUWYAW_clean_sbu_0, # of connection points: 6
#     Node 5, Type 0, BuildingBlock: CUWYAW_clean_sbu_0, # of connection points: 6
#     Node 6, Type 0, BuildingBlock: CUWYAW_clean_sbu_0, # of connection points: 6
#     Node 7, Type 0, BuildingBlock: CUWYAW_clean_sbu_0, # of connection points: 6
#     Edge 8, Type (0, 0), BuildingBlock: XIVTED_clean_linker_0, # of connection points: 2
#     Edge 9, Type (0, 0), BuildingBlock: XIVTED_clean_linker_0, # of connection points: 2
#     Edge 10, Type (0, 0), BuildingBlock: XIVTED_clean_linker_0, # of connection points: 2
#     Edge 11, Type (0, 0), BuildingBlock: XIVTED_clean_linker_0, # of connection points: 2
#     Edge 12, Type (0, 0), BuildingBlock: XIVTED_clean_linker_0, # of connection points: 2
#     Edge 13, Type (0, 0), BuildingBlock: XIVTED_clean_linker_0, # of connection points: 2
#     Edge 14, Type (0, 0), BuildingBlock: XIVTED_clean_linker_0, # of connection points: 2
#     Edge 15, Type (0, 0), BuildingBlock: XIVTED_clean_linker_0, # of connection points: 2
#     Edge 16, Type (0, 0), BuildingBlock: XIVTED_clean_linker_0, # of connection points: 2
#     Edge 17, Type (0, 0), BuildingBlock: XIVTED_clean_linker_0, # of connection points: 2
#     Edge 18, Type (0, 0), BuildingBlock: XIVTED_clean_linker_0, # of connection points: 2
#     Edge 19, Type (0, 0), BuildingBlock: XIVTED_clean_linker_0, # of connection points: 2
#     Edge 20, Type (0, 0), BuildingBlock: XIVTED_clean_linker_0, # of connection points: 2
#     Edge 21, Type (0, 0), BuildingBlock: XIVTED_clean_linker_0, # of connection points: 2
#     Edge 22, Type (0, 0), BuildingBlock: XIVTED_clean_linker_0, # of connection points: 2
#     Edge 23, Type (0, 0), BuildingBlock: XIVTED_clean_linker_0, # of connection points: 2
#     Edge 24, Type (0, 0), BuildingBlock: XIVTED_clean_linker_0, # of connection points: 2
#     Edge 25, Type (0, 0), BuildingBlock: XIVTED_clean_linker_0, # of connection points: 2
#     Edge 26, Type (0, 0), BuildingBlock: XIVTED_clean_linker_0, # of connection points: 2
#     Edge 27, Type (0, 0), BuildingBlock: XIVTED_clean_linker_0, # of connection points: 2
#     Edge 28, Type (0, 0), BuildingBlock: XIVTED_clean_linker_0, # of connection points: 2
#     Edge 29, Type (0, 0), BuildingBlock: XIVTED_clean_linker_0, # of connection points: 2
#     Edge 30, Type (0, 0), BuildingBlock: XIVTED_clean_linker_0, # of connection points: 2
#     Edge 31, Type (0, 0), BuildingBlock: XIVTED_clean_linker_0, # of connection points: 2
# Relax obj value: 0.630
# Max RMSD: 0.248
# Mean RMSD: 0.203
data_MOF--net-vby--node1-CUWYAW_clean_sbu_0--edge1-XIVTED_clean_linker_0
_symmetry_space_group_name_H-M    P1
_symmetry_Int_Tables_number       1
_symmetry_cell_setting            triclinic
loop_
_symmetry_equiv_pos_as_xyz
'x, y, z'
_cell_length_a     18.346193
_cell_length_b     73.464769
_cell_length_c     30.696469
_cell_angle_alpha  86.653727
_cell_angle_beta   88.637865
_cell_angle_gamma 78.362301
loop_
_atom_site_label
_atom_site_type_symbol
_atom_site_fract_x
_atom_site_fract_y
_atom_site_fract_z
_atom_type_partial_charge
C0 C 0.96508 0.45287 0.97093 0.0
Eu1 Eu 0.10069 0.45656 -0.01868 0.0
C2 C 0.9424 0.43477 0.96971 0.0
C3 C 0.97639 0.41969 -0.00245 0.0
C4 C 0.96212 0.40194 -0.00651 0.0
C5 C 0.91282 0.39882 0.96179 0.0
C6 C 0.87924 0.41393 0.93368 0.0
C7 C 0.89429 0.4317 0.93746 0.0
C8 C 0.15644 0.4526 0.06426 0.0
C9 C 0.12467 0.50354 -0.02158 0.0
C10 C 0.37702 0.45285 -0.00718 0.0
Eu11 Eu 0.23573 0.45997 0.97703 0.0
C12 C 0.42842 0.43456 -0.0087 0.0
C13 C 0.47951 0.43111 0.95666 0.0
C14 C 0.52155 0.41326 0.95173 0.0
C15 C 0.51365 0.39837 -0.0186 0.0
C16 C 0.46338 0.4019 0.01654 0.0
C17 C 0.42115 0.41976 0.02142 0.0
C18 C 0.1867 0.46151 0.89304 0.0
C19 C 0.21214 0.41325 -0.02181 0.0
O20 O 0.98958 0.45659 0.0083 0.0
O21 O 1.00724 0.45676 0.93825 0.0
O22 O 0.12531 0.44054 0.04681 0.0
O23 O 0.16217 0.46555 0.03596 0.0
O24 O 0.07658 0.49156 0.97613 0.0
O25 O 0.19583 0.49384 -0.01929 0.0
O26 O 0.32625 0.45432 0.02363 0.0
O27 O 0.34996 0.4603 0.95546 0.0
O28 O 0.22335 0.47311 0.90818 0.0
O29 O 0.17479 0.44995 0.92349 0.0
O30 O 0.25973 0.42523 -0.02069 0.0
O31 O 0.14128 0.42283 0.97739 0.0
H32 H 1.01487 0.42154 0.02233 0.0
H33 H 0.98924 0.39069 0.01552 0.0
H34 H 0.83943 0.41221 0.90954 0.0
H35 H 0.86851 0.44302 0.91517 0.0
H36 H 0.48624 0.44219 0.93296 0.0
H37 H 0.56168 0.41128 0.92512 0.0
H38 H 0.45613 0.39082 0.04008 0.0
H39 H 0.38169 0.42184 0.04836 0.0
C40 C 0.12119 0.71485 0.97156 0.0
Eu41 Eu 0.98474 0.71075 -0.01921 0.0
C42 C 0.14687 0.73206 -0.01982 0.0
C43 C 0.11652 0.74259 0.01551 0.0
C44 C 0.13296 0.76001 0.02112 0.0
C45 C 0.18117 0.76726 -0.0081 0.0
C46 C 0.21133 0.75674 0.95634 0.0
C47 C 0.1939 0.73936 0.9504 0.0
C48 C 0.92887 0.71436 0.06446 0.0
C49 C 0.96148 0.66383 -0.01975 0.0
C50 C 0.71057 0.71353 0.00039 0.0
Eu51 Eu 0.85135 0.70741 -0.01884 0.0
C52 C 0.66221 0.73179 0.00761 0.0
C53 C 0.60544 0.73907 -0.02198 0.0
C54 C 0.56551 0.75725 -0.01921 0.0
C55 C 0.58111 0.76858 0.01341 0.0
C56 C 0.63739 0.76125 0.04343 0.0
C57 C 0.67793 0.74307 0.04041 0.0
C58 C 0.89862 0.7064 0.89584 0.0
C59 C 0.87455 0.7542 -0.02077 0.0
O60 O 0.098 0.70596 0.00549 0.0
O61 O 0.07632 0.71634 0.93861 0.0
O62 O 0.95791 0.72662 0.04247 0.0
O63 O 0.92411 0.70134 0.03998 0.0
O64 O 1.00914 0.67599 0.97557 0.0
O65 O 0.89069 0.67337 -0.01476 0.0
O66 O 0.76195 0.70739 0.02931 0.0
O67 O 0.73584 0.71122 0.96063 0.0
O68 O 0.86237 0.69472 0.91519 0.0
O69 O 0.91151 0.71779 0.9229 0.0
O70 O 0.82703 0.74214 -0.01742 0.0
O71 O 0.94522 0.74465 0.97624 0.0
H72 H 0.07943 0.73747 0.03885 0.0
H73 H 0.10834 0.7677 0.04866 0.0
H74 H 0.25015 0.76166 0.93368 0.0
H75 H 0.2169 0.73166 0.92251 0.0
H76 H 0.59263 0.73077 0.95228 0.0
H77 H 0.52079 0.76224 0.95799 0.0
H78 H 0.65 0.76958 0.06916 0.0
H79 H 0.72233 0.738 0.06337 0.0
C80 C 0.95125 0.67087 0.47155 0.0
Eu81 Eu 0.91759 0.70643 0.48072 0.0
C82 C 1.02696 0.65948 0.47132 0.0
C83 C 0.08146 0.66355 0.49859 0.0
C84 C 0.15543 0.65431 0.49512 0.0
C85 C 0.17647 0.64081 0.46425 0.0
C86 C 0.12185 0.63682 0.43681 0.0
C87 C 0.04776 0.64613 0.44025 0.0
C88 C 0.91919 0.71854 0.56345 0.0
C89 C 0.72003 0.72427 0.47842 0.0
C90 C 0.87828 0.77657 0.48679 0.0
Eu91 Eu 0.88316 0.74137 0.47569 0.0
C92 C 0.93802 0.7872 0.48966 0.0
C93 C 0.93559 0.80363 0.4636 0.0
C94 C 0.99611 0.81261 0.46215 0.0
C95 C 0.06024 0.80523 0.48666 0.0
C96 C 0.06139 0.78911 0.51381 0.0
C97 C 1.00102 0.78018 0.51529 0.0
C98 C 0.88217 0.72919 0.39285 0.0
C99 C 0.0807 0.72364 0.47747 0.0
O100 O 0.9279 0.67802 0.50849 0.0
O101 O 0.93665 0.68296 0.43852 0.0
O102 O 0.97477 0.70799 0.54488 0.0
O103 O 0.86734 0.72374 0.53602 0.0
O104 O 0.77762 0.70907 0.47641 0.0
O105 O 0.74922 0.73983 0.48046 0.0
O106 O 0.87331 0.76435 0.51877 0.0
O107 O 0.8714 0.77004 0.44888 0.0
O108 O 0.82898 0.74108 0.41004 0.0
O109 O 0.93304 0.72365 0.42071 0.0
O110 O 1.02307 0.73876 0.47881 0.0
O111 O 0.05139 0.70813 0.4762 0.0
H112 H 0.06721 0.67408 0.52231 0.0
H113 H 0.19614 0.65772 0.51659 0.0
H114 H 0.13599 0.62619 0.41331 0.0
H115 H 1.00687 0.64303 0.41841 0.0
H116 H 0.8878 0.80922 0.44336 0.0
H117 H 0.99369 0.82494 0.44066 0.0
H118 H 0.10935 0.78325 0.53367 0.0
H119 H 1.00463 0.76751 0.53572 0.0
C120 C 0.20079 0.39216 0.47337 0.0
Eu121 Eu 0.19577 0.42739 0.48419 0.0
C122 C 0.14138 0.3815 0.46949 0.0
C123 C 0.14402 0.3648 0.49449 0.0
C124 C 0.08408 0.35565 0.49468 0.0
C125 C 1.02031 0.36312 0.46993 0.0
C126 C 1.01889 0.37957 0.44392 0.0
C127 C 0.07871 0.38867 0.4437 0.0
C128 C 0.19414 0.43936 0.56743 0.0
C129 C 0.99834 0.44531 0.48308 0.0
C130 C 0.16268 0.49649 0.49409 0.0
Eu131 Eu 0.16202 0.46194 0.48064 0.0
C132 C 0.22139 0.50749 0.48741 0.0
C133 C 0.21232 0.522 0.45515 0.0
C134 C 0.26734 0.53243 0.44773 0.0
C135 C 0.33262 0.52868 0.47269 0.0
C136 C 0.34259 0.51386 0.5044 0.0
C137 C 0.28761 0.50328 0.51158 0.0
C138 C 0.1618 0.45181 0.39631 0.0
C139 C 0.35975 0.4439 0.48116 0.0
O140 O 0.20719 0.40427 0.44142 0.0
O141 O 0.20573 0.39881 0.51134 0.0
O142 O 0.25055 0.42875 0.54948 0.0
O143 O 0.14294 0.4444 0.53962 0.0
O144 O 0.05606 0.43031 0.47985 0.0
O145 O 1.02756 0.46078 0.48651 0.0
O146 O 0.17328 0.48329 0.52496 0.0
O147 O 0.13639 0.4913 0.4588 0.0
O148 O 0.10942 0.46352 0.41454 0.0
O149 O 0.21198 0.44508 0.42414 0.0
O150 O 0.30207 0.45902 0.48216 0.0
O151 O 0.3305 0.42833 0.48015 0.0
H152 H 0.19158 0.3591 0.51482 0.0
H153 H 0.08666 0.34308 0.51533 0.0
H154 H 0.97118 0.38553 0.42393 0.0
H155 H 0.07502 0.40155 0.42404 0.0
H156 H 0.16205 0.52547 0.436 0.0
H157 H 0.25679 0.54408 0.42386 0.0
H158 H 0.392 0.51076 0.5243 0.0
H159 H 0.29673 0.49199 0.5364 0.0
C160 C 0.47601 0.94826 0.96031 0.0
Eu161 Eu 0.60046 0.95814 0.97606 0.0
C162 C 0.45685 0.93025 0.97374 0.0
C163 C 0.49201 0.91976 0.00991 0.0
C164 C 0.47693 0.90228 0.02206 0.0
C165 C 0.42539 0.89504 -0.00131 0.0
C166 C 0.39213 0.90537 0.96154 0.0
C167 C 0.40808 0.92278 0.94908 0.0
C168 C 0.63536 0.95818 0.06257 0.0
C169 C 0.62086 1.00362 0.97512 0.0
C170 C 0.86934 0.95909 0.00348 0.0
Eu171 Eu 0.73558 0.95853 -0.02015 0.0
C172 C 0.92469 0.9425 0.01849 0.0
C173 C 0.98301 0.93509 -0.00967 0.0
C174 C 1.02659 0.9175 -0.00021 0.0
C175 C 1.01332 0.90696 0.03784 0.0
C176 C 0.9572 0.91466 0.06708 0.0
C177 C 0.91297 0.93222 0.0574 0.0
C178 C 0.70374 0.95516 0.89405 0.0
C179 C 0.71559 0.91328 -0.01979 0.0
O180 O 0.48338 0.95884 -0.00808 0.0
O181 O 0.53005 0.94737 0.93168 0.0
O182 O 0.58136 0.96961 0.04327 0.0
O183 O 0.67198 0.94773 0.03478 0.0
O184 O 0.57197 0.9924 0.96907 0.0
O185 O 0.69055 0.99305 -0.0187 0.0
O186 O 0.81147 0.96392 0.02899 0.0
O187 O 0.85078 0.9596 0.96258 0.0
O188 O 0.75771 0.9448 0.91568 0.0
O189 O 0.66576 0.96685 0.91908 0.0
O190 O 0.76458 0.92439 -0.01438 0.0
O191 O 0.64626 0.92383 0.97458 0.0
H192 H 0.53088 0.92515 0.02911 0.0
H193 H 0.50399 0.89471 0.05053 0.0
H194 H 0.35087 0.90048 0.94321 0.0
H195 H 0.38138 0.93053 0.92068 0.0
H196 H 0.99325 0.94262 0.96014 0.0
H197 H 0.07127 0.91221 0.97734 0.0
H198 H 0.94666 0.90696 0.09697 0.0
H199 H 0.86819 0.93745 0.0798 0.0
C200 C 0.62116 0.21541 0.96772 0.0
Eu201 Eu 0.4849 0.21104 0.97759 0.0
C202 C 0.64674 0.23276 0.97512 0.0
C203 C 0.61153 0.24454 0.00718 0.0
C204 C 0.62936 0.26188 0.01181 0.0
C205 C 0.68401 0.2678 -0.01502 0.0
C206 C 0.71906 0.25601 0.95262 0.0
C207 C 0.70013 0.23872 0.94754 0.0
C208 C 0.42968 0.21453 0.06145 0.0
C209 C 0.46292 0.16393 0.97737 0.0
C210 C 0.2115 0.21329 -0.00163 0.0
Eu211 Eu 0.35203 0.20731 -0.02136 0.0
C212 C 0.1634 0.23156 0.00614 0.0
C213 C 0.11049 0.23977 0.97496 0.0
C214 C 0.07145 0.25798 -0.02138 0.0
C215 C 0.08388 0.26841 0.01378 0.0
C216 C 0.13619 0.26017 0.04535 0.0
C217 C 0.17601 0.24196 0.04143 0.0
C218 C 0.39844 0.20622 0.89315 0.0
C219 C 0.37344 0.25426 0.97623 0.0
O220 O 0.59799 0.20694 0.0023 0.0
O221 O 0.57619 0.2165 0.93496 0.0
O222 O 0.45732 0.22695 0.03916 0.0
O223 O 0.42557 0.20141 0.03712 0.0
O224 O 0.51003 0.17625 0.97262 0.0
O225 O 0.39195 0.1733 -0.01748 0.0
O226 O 0.26317 0.20699 0.02704 0.0
O227 O 0.23636 0.21111 0.95849 0.0
O228 O 0.36303 0.19445 0.9129 0.0
O229 O 0.41102 0.21777 0.91991 0.0
O230 O 0.3267 0.24202 -0.01958 0.0
O231 O 0.44421 0.24491 0.97237 0.0
H232 H 0.56974 0.24044 0.02876 0.0
H233 H 0.6007 0.27055 0.03678 0.0
H234 H 0.76276 0.25985 0.93193 0.0
H235 H 0.7272 0.23001 0.92218 0.0
H236 H 0.10001 0.23217 0.94733 0.0
H237 H 1.02965 0.2637 0.95449 0.0
H238 H 0.1461 0.26778 0.07306 0.0
H239 H 0.21733 0.23617 0.06577 0.0
C240 C 0.42715 0.17078 0.46763 0.0
Eu241 Eu 0.42539 0.2057 0.47811 0.0
C242 C 0.36658 0.16035 0.46673 0.0
C243 C 0.36649 0.14538 0.49702 0.0
C244 C 0.30973 0.13533 0.49702 0.0
C245 C 0.25196 0.13997 0.46646 0.0
C246 C 0.25082 0.15533 0.43687 0.0
C247 C 0.30744 0.16553 0.43716 0.0
C248 C 0.42666 0.21741 0.56094 0.0
C249 C 0.22789 0.22402 0.47614 0.0
C250 C 0.38836 0.27571 0.48422 0.0
Eu251 Eu 0.39198 0.24056 0.47302 0.0
C252 C 0.44815 0.28626 0.48783 0.0
C253 C 0.44529 0.30303 0.46304 0.0
C254 C 0.50537 0.31213 0.46267 0.0
C255 C 0.5695 0.30456 0.48701 0.0
C256 C 0.5712 0.28803 0.51278 0.0
C257 C 0.51124 0.27897 0.51317 0.0
C258 C 0.39122 0.22834 0.39021 0.0
C259 C 0.58944 0.22228 0.47471 0.0
O260 O 0.43069 0.18287 0.4352 0.0
O261 O 0.43823 0.17711 0.50516 0.0
O262 O 0.48155 0.20641 0.54277 0.0
O263 O 0.37519 0.22303 0.53333 0.0
O264 O 0.28528 0.20882 0.47495 0.0
O265 O 0.25743 0.23955 0.47739 0.0
O266 O 0.38225 0.26354 0.5161 0.0
O267 O 0.38248 0.26918 0.4462 0.0
O268 O 0.33795 0.24025 0.40731 0.0
O269 O 0.44197 0.22279 0.41815 0.0
O270 O 0.53204 0.23745 0.47647 0.0
O271 O 0.55991 0.20677 0.47297 0.0
H272 H 0.4111 0.14125 0.52029 0.0
H273 H 0.31345 0.12328 0.51956 0.0
H274 H 0.2073 0.15913 0.41285 0.0
H275 H 0.30536 0.17726 0.41383 0.0
H276 H 0.3974 0.30883 0.44305 0.0
H277 H 0.50257 0.32477 0.4422 0.0
H278 H 0.61919 0.28199 0.53246 0.0
H279 H 0.5151 0.26604 0.53265 0.0
C280 C 0.69739 0.89017 0.47455 0.0
Eu281 Eu 0.69118 0.92559 0.48362 0.0
C282 C 0.63849 0.87958 0.46862 0.0
C283 C 0.63932 0.86285 0.4932 0.0
C284 C 0.57893 0.85391 0.49208 0.0
C285 C 0.51648 0.86163 0.46645 0.0
C286 C 0.51705 0.87807 0.44072 0.0
C287 C 0.57736 0.88696 0.44181 0.0
C288 C 0.69649 0.93818 0.56594 0.0
C289 C 0.49344 0.94307 0.48152 0.0
C290 C 0.62288 0.996 0.48414 0.0
Eu291 Eu 0.65635 0.96024 0.47798 0.0
C292 C 0.54886 1.00791 0.4776 0.0
C293 C 0.50253 1.00442 0.44449 0.0
C294 C 0.42915 1.01418 0.44132 0.0
C295 C 0.40046 1.02754 0.47139 0.0
C296 C 0.44683 1.03097 0.50461 0.0
C297 C 0.52037 1.02121 0.50771 0.0
C298 C 0.64881 0.94807 0.39568 0.0
C299 C 0.85404 0.94268 0.48039 0.0
O300 O 0.70833 0.90181 0.44246 0.0
O301 O 0.69695 0.8974 0.51229 0.0
O302 O 0.74962 0.92666 0.54763 0.0
O303 O 0.64379 0.94342 0.53917 0.0
O304 O 0.55142 0.92802 0.48055 0.0
O305 O 0.52235 0.95865 0.48239 0.0
O306 O 0.6552 0.98824 0.44966 0.0
O307 O 0.62766 0.98431 0.51808 0.0
O308 O 0.59531 0.95875 0.41553 0.0
O309 O 0.70251 0.94273 0.42185 0.0
O310 O 0.79611 0.95779 0.48249 0.0
O311 O 0.8252 0.92708 0.47836 0.0
H312 H 0.68563 0.85701 0.51435 0.0
H313 H 0.57996 0.84136 0.51257 0.0
H314 H 0.4704 0.88422 0.42012 0.0
H315 H 0.57513 0.89988 0.42254 0.0
H316 H 0.52256 0.99394 0.42129 0.0
H317 H 0.39481 1.01126 0.41542 0.0
H318 H 0.42678 1.0415 0.52771 0.0
H319 H 0.5547 1.02387 0.53391 0.0
H320 H 0.58129 0.37463 0.04802 0.0
H321 H 0.87897 0.38011 0.89184 0.0
H322 H 0.5631 0.37943 0.90786 0.0
H323 H 0.89086 0.37557 0.03234 0.0
H324 H 0.79019 0.35943 0.89554 0.0
H325 H 0.70095 0.35374 0.04079 0.0
C326 C 0.60104 0.37086 0.01562 0.0
C327 C 0.5651 0.38005 -0.02173 0.0
C328 C 0.81418 0.36241 0.92557 0.0
C329 C 0.70431 0.35722 0.97 0.0
C330 C 0.86443 0.3744 0.92345 0.0
C331 C 0.88762 0.3808 0.96198 0.0
C332 C 0.78484 0.35765 0.96645 0.0
C333 C 0.87124 0.37192 0.00171 0.0
C334 C 0.66996 0.35887 0.01146 0.0
C335 C 0.59217 0.37382 0.93748 0.0
N336 N 0.8188 0.36126 0.00306 0.0
N337 N 0.66181 0.36335 0.93423 0.0
H338 H 0.21241 0.79512 0.93448 0.0
H339 H 0.51749 0.78276 0.08915 0.0
H340 H 0.21027 0.77903 0.07187 0.0
H341 H 0.52898 0.79633 0.95106 0.0
H342 H 0.39405 0.80239 0.09182 0.0
H343 H 0.29947 0.81513 0.94866 0.0
C344 C 0.22879 0.79612 0.96778 0.0
C345 C 0.20826 0.78435 0.00153 0.0
C346 C 0.42441 0.8017 0.06106 0.0
C347 C 0.30877 0.80683 0.01777 0.0
C348 C 0.49546 0.79049 0.0596 0.0
C349 C 0.5307 0.78679 0.01912 0.0
C350 C 0.38805 0.80813 0.02157 0.0
C351 C 0.50084 0.79781 -0.01755 0.0
C352 C 0.27795 0.80772 0.97599 0.0
C353 C 0.22727 0.78713 0.04433 0.0
N354 N 0.4296 0.80746 -0.01592 0.0
N355 N 0.2784 0.79764 0.05107 0.0
H356 H 0.579 0.75385 0.4815 0.0
H357 H 0.22162 0.69408 0.47489 0.0
H358 H 0.62307 0.69468 0.47496 0.0
H359 H 0.17736 0.7533 0.4804 0.0
H360 H 0.35728 0.69394 0.47503 0.0
H361 H 0.44332 0.75402 0.4813 0.0
C362 C 0.56319 0.74048 0.47999 0.0
C363 C 0.62433 0.72421 0.47827 0.0
C364 C 0.31966 0.7073 0.47623 0.0
C365 C 0.44787 0.7243 0.47802 0.0
C366 C 0.23742 0.70745 0.47615 0.0
C367 C 0.1763 0.72374 0.47758 0.0
C368 C 0.35264 0.72369 0.47783 0.0
C369 C 0.21362 0.73976 0.47916 0.0
C370 C 0.48091 0.74066 0.47988 0.0
C371 C 0.58689 0.70821 0.47642 0.0
N372 N 0.293 0.73916 0.47922 0.0
N373 N 0.50749 0.70883 0.47639 0.0
H374 H 0.90725 0.4152 0.47757 0.0
H375 H 0.45097 0.47406 0.48506 0.0
H376 H 0.85275 0.47418 0.48773 0.0
H377 H 0.50526 0.41492 0.47789 0.0
H378 H 0.58627 0.47449 0.48553 0.0
H379 H 0.77198 0.41474 0.47714 0.0
C380 C 0.86923 0.42845 0.47978 0.0
C381 C 0.90308 0.4448 0.48276 0.0
C382 C 0.57086 0.46109 0.4838 0.0
C383 C 0.72712 0.44435 0.48215 0.0
C384 C 0.48895 0.46077 0.48349 0.0
C385 C 0.45504 0.44439 0.48136 0.0
C386 C 0.63102 0.44481 0.48193 0.0
C387 C 0.51894 0.42851 0.4796 0.0
C388 C 0.78733 0.42811 0.47951 0.0
C389 C 0.83912 0.46063 0.48533 0.0
N390 N 0.59715 0.42927 0.47989 0.0
N391 N 0.76094 0.45986 0.48494 0.0
H392 H 0.08161 0.89416 0.11529 0.0
H393 H 0.38242 0.867 0.95534 0.0
H394 H 0.05934 0.87816 -0.0158 0.0
H395 H 0.40073 0.88537 0.08483 0.0
H396 H 0.28319 0.85143 -0.0182 0.0
H397 H 0.19918 0.87186 0.12123 0.0
C398 C 0.10006 0.88545 0.08827 0.0
C399 C 0.06358 0.88883 0.04813 0.0
C400 C 0.31077 0.85829 0.00489 0.0
C401 C 0.19946 0.86409 0.05391 0.0
C402 C 0.36724 0.8673 -0.01035 0.0
C403 C 0.3956 0.87879 0.01706 0.0
C404 C 0.28118 0.86153 0.04709 0.0
C405 C 0.37757 0.87759 0.06171 0.0
C406 C 0.1675 0.87268 0.0916 0.0
C407 C 0.08861 0.87673 0.01482 0.0
N408 N 0.31947 0.86973 0.07509 0.0
N409 N 0.15652 0.86531 0.01782 0.0
H410 H 1.04078 0.29777 0.95388 0.0
H411 H 0.69745 0.28221 0.06464 0.0
H412 H 1.01049 0.2806 0.08853 0.0
H413 H 0.73184 0.29319 0.92682 0.0
H414 H 0.78197 0.30232 0.08029 0.0
H415 H 0.91603 0.31718 0.95454 0.0
C416 C 1.00896 0.29867 -0.01586 0.0
C417 C 1.03325 0.28651 0.02021 0.0
C418 C 0.76934 0.30086 0.04652 0.0
C419 C 0.89046 0.30787 0.02058 0.0
C420 C 0.72071 0.28928 0.03744 0.0
C421 C 0.71153 0.2849 -0.00582 0.0
C422 C 0.81171 0.30721 0.01233 0.0
C423 C 0.74165 0.29508 0.96074 0.0
C424 C 0.93767 0.30979 -0.01543 0.0
C425 C 0.99201 0.28897 0.05916 0.0
N426 N 0.79255 0.30527 0.97046 0.0
N427 N 0.92109 0.29888 0.05794 0.0
H428 H 0.08615 0.25344 0.47906 0.0
H429 H 0.73124 0.19291 0.47146 0.0
H430 H 0.13205 0.19425 0.47266 0.0
H431 H 0.68518 0.25207 0.4784 0.0
H432 H 0.86669 0.19303 0.47174 0.0
H433 H 0.95067 0.25335 0.47878 0.0
C434 C 0.07078 0.24003 0.47758 0.0
C435 C 0.13231 0.22385 0.47596 0.0
C436 C 0.8287 0.20632 0.47324 0.0
C437 C 0.95617 0.22358 0.47554 0.0
C438 C 0.74657 0.20632 0.47308 0.0
C439 C 0.685 0.22249 0.47487 0.0
C440 C 0.86111 0.22279 0.47526 0.0
C441 C 0.72179 0.23859 0.47686 0.0
C442 C 0.98863 0.24004 0.47741 0.0
C443 C 0.09547 0.20775 0.4741 0.0
N444 N 0.80106 0.23815 0.47696 0.0
N445 N 1.01619 0.20821 0.47398 0.0
H446 H 0.94637 0.97271 0.48378 0.0
H447 H 0.40152 0.91294 0.47887 0.0
H448 H 0.99884 0.91353 0.47747 0.0
H449 H 0.34867 0.97219 0.48355 0.0
H450 H 0.26599 0.91272 0.47857 0.0
H451 H 0.08192 0.97287 0.48399 0.0
C452 C 0.98397 0.95935 0.4824 0.0
C453 C 0.94946 0.94306 0.48058 0.0
C454 C 0.28178 0.9261 0.47971 0.0
C455 C 0.12575 0.94313 0.48087 0.0
C456 C 0.36381 0.9263 0.4799 0.0
C457 C 0.39815 0.94264 0.48132 0.0
C458 C 0.22198 0.94249 0.48097 0.0
C459 C 0.3346 0.95862 0.48247 0.0
C460 C 0.06603 0.95952 0.48253 0.0
C461 C 1.01297 0.92707 0.47895 0.0
N462 N 0.25629 0.95799 0.48229 0.0
N463 N 0.09133 0.92767 0.47915 0.0
H464 H 0.87563 0.63321 -0.01548 0.0
H465 H 0.21068 0.53405 -0.02154 0.0
H466 H 0.10675 0.63543 0.97498 0.0
H467 H 0.9792 0.53205 -0.02135 0.0
H468 H 0.17661 0.56856 -0.02139 0.0
H469 H 0.90968 0.59871 -0.01609 0.0
C470 C 0.93429 0.62706 -0.01773 0.0
C471 C 0.9858 0.63986 -0.02021 0.0
C472 C 0.13172 0.561 -0.02137 0.0
C473 C 1.02992 0.59566 -0.02077 0.0
C474 C 0.15194 0.54025 -0.02147 0.0
C475 C 0.10033 0.52751 -0.02155 0.0
C476 C 0.0562 0.57172 -0.0211 0.0
C477 C 1.0252 0.53923 -0.02138 0.0
C478 C 0.9545 0.60631 -0.01809 0.0
C479 C 0.06083 0.62821 0.97703 0.0
N480 N 1.00744 0.55922 -0.02109 0.0
N481 N 0.0786 0.60822 0.97695 0.0
H482 H 0.38959 0.54374 0.54042 0.0
H483 H 0.26437 0.62931 0.39332 0.0
H484 H 0.38731 0.5453 0.39988 0.0
H485 H 0.26352 0.62636 0.53408 0.0
H486 H 0.36886 0.60281 0.39402 0.0
H487 H 0.41209 0.57526 0.53684 0.0
C488 C 0.3971 0.55039 0.50866 0.0
C489 C 0.38184 0.5424 0.47036 0.0
C490 C 0.34746 0.60831 0.4248 0.0
C491 C 0.40362 0.57874 0.46617 0.0
C492 C 0.28737 0.62336 0.42437 0.0
C493 C 0.25286 0.62939 0.4637 0.0
C494 C 0.37127 0.59895 0.46481 0.0
C495 C 0.28688 0.62179 0.50292 0.0
C496 C 0.40942 0.56854 0.5066 0.0
C497 C 0.39452 0.55147 0.43026 0.0
N498 N 0.34279 0.60658 0.50252 0.0
N499 N 0.4017 0.56951 0.42911 0.0
H500 H 0.47717 1.0315 0.97031 0.0
H501 H 0.60898 0.13649 0.97424 0.0
H502 H 0.70637 1.03475 -0.01973 0.0
H503 H 0.37949 0.13245 -0.02079 0.0
H504 H 0.64396 0.10195 0.97395 0.0
H505 H 0.44295 1.066 0.97097 0.0
C506 C 0.52225 1.03888 0.9726 0.0
C507 C 0.59735 1.0276 0.9752 0.0
C508 C 0.58528 0.10817 0.97509 0.0
C509 C 0.55402 1.0718 0.97578 0.0
C510 C 0.56402 0.12894 0.97524 0.0
C511 C 0.48849 0.13999 0.97682 0.0
C512 C 0.53277 0.0958 0.97615 0.0
C513 C 0.43851 0.12664 -0.02201 0.0
C514 C 0.50141 1.05962 0.97301 0.0
C515 C 0.64759 1.04074 -0.02192 0.0
N516 N 0.46061 0.10673 0.97751 0.0
N517 N 0.6259 1.06068 -0.02188 0.0
H518 H 0.21447 0.12654 0.39071 0.0
H519 H 0.29392 1.03839 0.53412 0.0
H520 H 0.17758 0.12261 0.52982 0.0
H521 H 0.3354 1.04356 0.39553 0.0
H522 H 0.19188 1.06539 0.52701 0.0
H523 H 0.19077 0.09535 0.38614 0.0
C524 C 0.19807 0.11946 0.42015 0.0
C525 C 0.20253 0.12664 0.46113 0.0
C526 C 0.22167 1.06029 0.49785 0.0
C527 C 0.17919 0.09068 0.45635 0.0
C528 C 0.2803 1.04495 0.50201 0.0
C529 C 0.32541 1.03937 0.46572 0.0
C530 C 0.21006 1.07039 0.45743 0.0
C531 C 0.30349 1.04777 0.42464 0.0
C532 C 0.18505 0.1015 0.41758 0.0
C533 C 0.17875 0.11705 0.49786 0.0
N534 N 0.24879 1.06325 0.42178 0.0
N535 N 0.17095 0.09919 0.49493 0.0
H536 H 0.35747 0.38626 0.97339 0.0
H537 H 0.22762 0.28113 -0.01842 0.0
H538 H 0.12824 0.38207 -0.01854 0.0
H539 H 0.45668 0.28552 0.97166 0.0
H540 H 0.1921 0.31564 -0.01792 0.0
H541 H 0.39281 0.35176 0.9733 0.0
C542 C 0.31282 0.37864 0.97546 0.0
C543 C 0.23735 0.38951 0.97782 0.0
C544 C 0.25074 0.30948 -0.02026 0.0
C545 C 0.2816 0.34565 0.97728 0.0
C546 C 0.27222 0.2888 -0.02052 0.0
C547 C 0.34776 0.27799 0.97652 0.0
C548 C 0.30316 0.32184 0.9771 0.0
C549 C 0.3977 0.29129 0.97397 0.0
C550 C 0.33416 0.35796 0.97521 0.0
C551 C 0.18721 0.37626 -0.02032 0.0
N552 N 0.37539 0.31113 0.97434 0.0
N553 N 0.20936 0.3564 -0.02058 0.0
H554 H 0.62732 0.88348 0.97471 0.0
H555 H 0.96095 0.78432 -0.02044 0.0
H556 H 0.8584 0.8848 -0.01426 0.0
H557 H 0.72932 0.78231 -0.02049 0.0
H558 H 0.92683 0.81881 -0.01995 0.0
H559 H 0.66064 0.84893 0.97475 0.0
C560 C 0.68573 0.87709 0.97717 0.0
C561 C 0.73782 0.88949 -0.01974 0.0
C562 C 0.88203 0.81123 -0.02009 0.0
C563 C 0.78065 0.8456 -0.01998 0.0
C564 C 0.90223 0.79056 -0.02042 0.0
C565 C 0.85035 0.77797 -0.02054 0.0
C566 C 0.80652 0.82184 -0.02011 0.0
C567 C 0.77521 0.78953 -0.02037 0.0
C568 C 0.70546 0.85638 0.97717 0.0
C569 C 0.81245 0.87773 -0.01678 0.0
N570 N 0.75745 0.80946 -0.0203 0.0
N571 N 0.82977 0.85782 -0.01711 0.0
H572 H 0.06545 0.84241 0.48243 0.0
H573 H 0.51083 0.82452 0.46771 0.0
H574 H 0.20677 0.78778 0.48196 0.0
H575 H 0.36983 0.87918 0.46893 0.0
H576 H 0.39991 0.8108 0.47217 0.0
H577 H 0.17618 0.8562 0.47604 0.0
C578 C 0.11971 0.83332 0.48081 0.0
C579 C 0.12676 0.81391 0.48293 0.0
C580 C 0.39322 0.8258 0.47135 0.0
C581 C 0.25385 0.82958 0.47591 0.0
C582 C 0.45658 0.83364 0.469 0.0
C583 C 0.44972 0.85303 0.46789 0.0
C584 C 0.32236 0.83743 0.47272 0.0
C585 C 0.37785 0.86417 0.46908 0.0
C586 C 0.18295 0.84119 0.47737 0.0
C587 C 0.19863 0.8028 0.48117 0.0
N588 N 0.31707 0.85621 0.47151 0.0
N589 N 0.25928 0.8108 0.47777 0.0
H590 H 1.01744 0.32586 0.47112 0.0
H591 H 0.57246 0.34181 0.48619 0.0
H592 H 0.87307 0.38002 0.4743 0.0
H593 H 0.71674 0.28767 0.48205 0.0
H594 H 0.68195 0.35609 0.48158 0.0
H595 H 0.90794 0.31157 0.47563 0.0
C596 C 0.96275 0.33474 0.47292 0.0
C597 C 0.95449 0.35417 0.47221 0.0
C598 C 0.68966 0.34108 0.48173 0.0
C599 C 0.82879 0.33793 0.47707 0.0
C600 C 0.62712 0.33293 0.48414 0.0
C601 C 0.63535 0.3135 0.48463 0.0
C602 C 0.76105 0.32975 0.47967 0.0
C603 C 0.7077 0.30268 0.48246 0.0
C604 C 0.90021 0.32659 0.47528 0.0
C605 C 0.88212 0.365 0.47409 0.0
N606 N 0.76766 0.31095 0.48005 0.0
N607 N 0.82216 0.35674 0.47647 0.0
H608 H 0.15675 0.48258 0.11521 0.0
H609 H 0.23685 0.42369 0.34495 0.0
H610 H 0.17838 0.42302 0.12465 0.0
H611 H 0.10477 0.47931 0.33526 0.0
H612 H 0.24111 0.42371 0.26426 0.0
H613 H 0.16322 0.48229 0.19546 0.0
C614 C 0.16383 0.46941 0.134 0.0
C615 C 0.1668 0.45281 0.11282 0.0
C616 C 0.2116 0.43594 0.2799 0.0
C617 C 0.17542 0.45232 0.20523 0.0
C618 C 0.20947 0.43596 0.32602 0.0
C619 C 0.17025 0.45149 0.34731 0.0
C620 C 0.17604 0.45177 0.2546 0.0
C621 C 0.13544 0.46695 0.32064 0.0
C622 C 0.16714 0.46926 0.17993 0.0
C623 C 0.17555 0.43618 0.13935 0.0
N624 N 0.13961 0.46675 0.27613 0.0
N625 N 0.17994 0.43635 0.18381 0.0
H626 H 0.94382 0.68524 0.12854 0.0
H627 H 0.80703 0.75103 0.32645 0.0
H628 H 0.88705 0.745 0.11171 0.0
H629 H 0.97033 0.70043 0.34844 0.0
H630 H 0.81572 0.74659 0.24786 0.0
H631 H 0.93387 0.68796 0.20869 0.0
C632 C 0.92818 0.69889 0.14155 0.0
C633 C 0.91598 0.71492 0.11307 0.0
C634 C 0.84966 0.7364 0.26977 0.0
C635 C 0.90389 0.71813 0.20492 0.0
C636 C 0.84469 0.73891 0.31486 0.0
C637 C 0.88836 0.72618 0.34455 0.0
C638 C 0.89732 0.72074 0.25351 0.0
C639 C 0.93596 0.71072 0.327 0.0
C640 C 0.92319 0.70045 0.18735 0.0
C641 C 0.89691 0.73225 0.13215 0.0
N642 N 0.93875 0.70836 0.28286 0.0
N643 N 0.8909 0.73337 0.17641 0.0
H644 H 0.99406 0.72377 0.84477 0.0
H645 H 0.79301 0.72081 0.61626 0.0
H646 H 0.80976 0.69612 0.8346 0.0
H647 H 1.02971 0.71727 0.6227 0.0
H648 H 0.7872 0.71852 0.69682 0.0
H649 H 0.99794 0.72797 0.76434 0.0
C650 C 0.95419 0.71866 0.82576 0.0
C651 C 0.9018 0.70946 0.84684 0.0
C652 C 0.8403 0.71841 0.68057 0.0
C653 C 0.90465 0.71469 0.75437 0.0
C654 C 0.84356 0.71987 0.63451 0.0
C655 C 0.91197 0.71927 0.61237 0.0
C656 C 0.90557 0.71685 0.70506 0.0
C657 C 0.97572 0.71779 0.63816 0.0
C658 C 0.95653 0.72103 0.77978 0.0
C659 C 0.85155 0.70317 0.82008 0.0
N660 N 0.97094 0.71678 0.68279 0.0
N661 N 0.85376 0.70603 0.77564 0.0
H662 H 0.3089 0.44107 0.62121 0.0
H663 H 0.09124 0.44408 0.84934 0.0
H664 H 0.07064 0.44671 0.62308 0.0
H665 H 0.27471 0.47205 0.82639 0.0
H666 H 0.0888 0.43949 0.77019 0.0
H667 H 0.30452 0.44688 0.69934 0.0
C668 C 0.25552 0.44351 0.63802 0.0
C669 C 0.19003 0.44347 0.61511 0.0
C670 C 0.12941 0.44667 0.78256 0.0
C671 C 0.18486 0.44967 0.70575 0.0
C672 C 0.13104 0.44924 0.82781 0.0
C673 C 0.18311 0.45855 0.84492 0.0
C674 C 0.18175 0.4529 0.75407 0.0
C675 C 0.23325 0.46489 0.81503 0.0
C676 C 0.25309 0.44687 0.68274 0.0
C677 C 0.12254 0.44674 0.63908 0.0
N678 N 0.23193 0.46176 0.77157 0.0
N679 N 0.12178 0.44946 0.68301 0.0
H680 H 0.5425 0.97664 0.1232 0.0
H681 H 0.76258 0.93084 0.34006 0.0
H682 H 0.74142 0.93422 0.11462 0.0
H683 H 0.54103 0.96446 0.33837 0.0
H684 H 0.76282 0.93231 0.25916 0.0
H685 H 0.54832 0.97317 0.2025 0.0
C686 C 0.58773 0.96655 0.13793 0.0
C687 C 0.64141 0.95571 0.11162 0.0
C688 C 0.71415 0.9393 0.27661 0.0
C689 C 0.64883 0.95164 0.20419 0.0
C690 C 0.71397 0.93844 0.32289 0.0
C691 C 0.65172 0.94756 0.34654 0.0
C692 C 0.65191 0.94949 0.25362 0.0
C693 C 0.5905 0.95721 0.32208 0.0
C694 C 0.59096 0.96454 0.18359 0.0
C695 C 0.69866 0.9429 0.13331 0.0
N696 N 0.59241 0.95797 0.27757 0.0
N697 N 0.70101 0.94126 0.17816 0.0
H698 H 0.37976 0.24518 0.10722 0.0
H699 H 0.48202 0.19984 0.34663 0.0
H700 H 0.45292 0.18584 0.12684 0.0
H701 H 0.31289 0.24921 0.32339 0.0
H702 H 0.48725 0.19515 0.26733 0.0
H703 H 0.36913 0.24773 0.18644 0.0
C704 C 0.39306 0.23261 0.12823 0.0
C705 C 0.41652 0.21524 0.10998 0.0
C706 C 0.44893 0.20697 0.27968 0.0
C707 C 0.40678 0.21817 0.20187 0.0
C708 C 0.4462 0.20973 0.32498 0.0
C709 C 0.39703 0.225 0.34208 0.0
C710 C 0.40348 0.21982 0.25086 0.0
C711 C 0.35171 0.23725 0.3121 0.0
C712 C 0.38707 0.2341 0.17363 0.0
C713 C 0.43359 0.1995 0.13923 0.0
N714 N 0.35663 0.23452 0.26836 0.0
N715 N 0.42934 0.20135 0.18358 0.0
H716 H 0.30998 0.1952 0.833 0.0
H717 H 0.53734 0.21698 0.61929 0.0
H718 H 0.49215 0.22376 0.84074 0.0
H719 H 0.30121 0.21939 0.61455 0.0
H720 H 0.52965 0.21568 0.69952 0.0
H721 H 0.3133 0.19977 0.75311 0.0
C722 C 0.35094 0.2024 0.81799 0.0
C723 C 0.40086 0.2091 0.84409 0.0
C724 C 0.47936 0.21665 0.681 0.0
C725 C 0.40576 0.2141 0.75163 0.0
C726 C 0.48363 0.2174 0.63509 0.0
C727 C 0.41973 0.21847 0.60978 0.0
C728 C 0.41098 0.21633 0.7024 0.0
C729 C 0.35184 0.2188 0.63243 0.0
C730 C 0.35246 0.20509 0.77221 0.0
C731 C 0.45239 0.21839 0.82225 0.0
N732 N 0.34948 0.21745 0.67721 0.0
N733 N 0.45413 0.22039 0.77752 0.0
H734 H 0.80202 0.92398 0.62675 0.0
H735 H 0.59518 0.97478 0.83596 0.0
H736 H 0.58704 0.96049 0.6155 0.0
H737 H 0.79786 0.9332 0.83998 0.0
H738 H 0.59014 0.97151 0.75616 0.0
H739 H 0.80095 0.92892 0.70464 0.0
C740 C 0.75431 0.93308 0.6406 0.0
C741 C 0.69445 0.94173 0.614 0.0
C742 C 0.63571 0.96314 0.77462 0.0
C743 C 0.69278 0.94762 0.70488 0.0
C744 C 0.63869 0.96505 0.82026 0.0
C745 C 0.6972 0.95431 0.84522 0.0
C746 C 0.69184 0.95047 0.75354 0.0
C747 C 0.75161 0.94186 0.82264 0.0
C748 C 0.75369 0.93591 0.68545 0.0
C749 C 0.63446 0.95344 0.63448 0.0
N750 N 0.74761 0.94036 0.77872 0.0
N751 N 0.63513 0.95604 0.67848 0.0
loop_
_geom_bond_atom_site_label_1
_geom_bond_atom_site_label_2
_geom_bond_distance
_geom_bond_site_symmetry_2
_ccdc_geom_bond_type
C0 Eu1 2.835 . S
C0 C2 1.500 1_554 S
C0 O20 1.257 1_554 S
C0 O21 1.260 . S
Eu1 C0 2.835 . S
Eu1 O20 2.473 1_554 S
Eu1 O21 2.480 . S
Eu1 O22 2.430 1_655 S
Eu1 O23 2.670 1_655 S
Eu1 O24 2.394 . S
Eu1 O29 2.355 1_654 S
Eu1 O31 2.374 1_655 S
C2 C0 1.500 1_556 S
C2 C3 1.377 1_556 S
C2 C7 1.377 . S
C3 C2 1.377 1_554 S
C3 C4 1.395 . S
C3 H32 0.931 . S
C4 C3 1.395 . S
C4 C5 1.383 1_554 S
C4 H33 0.931 . S
C5 C4 1.383 1_556 S
C5 C6 1.394 . S
C6 C5 1.394 . S
C6 C7 1.378 . S
C6 H34 0.931 . S
C7 C2 1.377 . S
C7 C6 1.378 . S
C7 H35 0.931 . S
C8 O22 1.259 . S
C8 O23 1.270 . S
C9 O24 1.251 1_455 S
C9 O25 1.256 . S
C10 Eu11 2.835 1_554 S
C10 C12 1.500 . S
C10 O26 1.257 . S
C10 O27 1.260 1_554 S
Eu11 C10 2.835 1_556 S
Eu11 O23 2.355 1_556 S
Eu11 O25 2.371 1_556 S
Eu11 O26 2.473 1_556 S
Eu11 O27 2.480 . S
Eu11 O28 2.430 . S
Eu11 O29 2.670 . S
Eu11 O30 2.394 . S
C12 C10 1.500 . S
C12 C13 1.377 1_554 S
C12 C17 1.377 . S
C13 C12 1.377 1_556 S
C13 C14 1.395 . S
C13 H36 0.931 . S
C14 C13 1.395 . S
C14 C15 1.383 1_556 S
C14 H37 0.931 . S
C15 C14 1.383 1_554 S
C15 C16 1.394 . S
C16 C15 1.394 . S
C16 C17 1.378 . S
C16 H38 0.931 . S
C17 C12 1.377 . S
C17 C16 1.378 . S
C17 H39 0.931 . S
C18 O28 1.259 . S
C18 O29 1.270 . S
C19 O30 1.246 1_554 S
C19 O31 1.254 . S
O20 C0 1.257 1_556 S
O20 Eu1 2.473 1_556 S
O21 C0 1.260 . S
O21 Eu1 2.480 . S
O22 Eu1 2.430 1_455 S
O22 C8 1.259 . S
O23 Eu1 2.670 1_455 S
O23 C8 1.270 . S
O23 Eu11 2.355 1_554 S
O24 Eu1 2.394 . S
O24 C9 1.251 1_655 S
O25 C9 1.256 . S
O25 Eu11 2.371 1_554 S
O26 C10 1.257 . S
O26 Eu11 2.473 1_554 S
O27 C10 1.260 1_556 S
O27 Eu11 2.480 . S
O28 Eu11 2.430 . S
O28 C18 1.259 . S
O29 Eu1 2.355 1_456 S
O29 Eu11 2.670 . S
O29 C18 1.270 . S
O30 Eu11 2.394 . S
O30 C19 1.246 1_556 S
O31 Eu1 2.374 1_455 S
O31 C19 1.254 . S
H32 C3 0.931 . S
H33 C4 0.931 . S
H34 C6 0.931 . S
H35 C7 0.931 . S
H36 C13 0.931 . S
H37 C14 0.931 . S
H38 C16 0.931 . S
H39 C17 0.931 . S
C40 Eu41 2.837 . S
C40 C42 1.498 1_554 S
C40 O60 1.244 1_554 S
C40 O61 1.276 . S
Eu41 C40 2.837 . S
Eu41 O60 2.473 1_554 S
Eu41 O61 2.480 . S
Eu41 O62 2.430 1_455 S
Eu41 O63 2.670 1_455 S
Eu41 O64 2.394 . S
Eu41 O69 2.355 1_454 S
Eu41 O71 2.372 1_454 S
C42 C40 1.498 1_556 S
C42 C43 1.377 1_556 S
C42 C47 1.377 . S
C43 C42 1.377 1_554 S
C43 C44 1.395 . S
C43 H72 0.931 . S
C44 C43 1.395 . S
C44 C45 1.383 1_554 S
C44 H73 0.931 . S
C45 C44 1.383 1_556 S
C45 C46 1.394 . S
C46 C45 1.394 . S
C46 C47 1.378 . S
C46 H74 0.931 . S
C47 C42 1.377 . S
C47 C46 1.378 . S
C47 H75 0.931 . S
C48 O62 1.259 . S
C48 O63 1.270 . S
C49 O64 1.251 1_655 S
C49 O65 1.251 . S
C50 Eu51 2.835 1_554 S
C50 C52 1.500 . S
C50 O66 1.257 . S
C50 O67 1.260 1_554 S
Eu51 C50 2.835 1_556 S
Eu51 O63 2.355 1_556 S
Eu51 O65 2.374 1_556 S
Eu51 O66 2.473 1_556 S
Eu51 O67 2.480 . S
Eu51 O68 2.430 . S
Eu51 O69 2.670 . S
Eu51 O70 2.394 . S
C52 C50 1.500 . S
C52 C53 1.377 1_554 S
C52 C57 1.377 . S
C53 C52 1.377 1_556 S
C53 C54 1.395 . S
C53 H76 0.931 . S
C54 C53 1.395 . S
C54 C55 1.383 1_556 S
C54 H77 0.931 . S
C55 C54 1.383 1_554 S
C55 C56 1.394 . S
C56 C55 1.394 . S
C56 C57 1.378 . S
C56 H78 0.931 . S
C57 C52 1.377 . S
C57 C56 1.378 . S
C57 H79 0.931 . S
C58 O68 1.259 . S
C58 O69 1.270 . S
C59 O70 1.251 . S
C59 O71 1.255 . S
O60 C40 1.244 1_556 S
O60 Eu41 2.473 1_556 S
O61 C40 1.276 . S
O61 Eu41 2.480 . S
O62 Eu41 2.430 1_655 S
O62 C48 1.259 . S
O63 Eu41 2.670 1_655 S
O63 C48 1.270 . S
O63 Eu51 2.355 1_554 S
O64 Eu41 2.394 . S
O64 C49 1.251 1_455 S
O65 C49 1.251 . S
O65 Eu51 2.374 1_554 S
O66 C50 1.257 . S
O66 Eu51 2.473 1_554 S
O67 C50 1.260 1_556 S
O67 Eu51 2.480 . S
O68 Eu51 2.430 . S
O68 C58 1.259 . S
O69 Eu41 2.355 1_656 S
O69 Eu51 2.670 . S
O69 C58 1.270 . S
O70 Eu51 2.394 . S
O70 C59 1.251 . S
O71 Eu41 2.372 1_656 S
O71 C59 1.255 . S
H72 C43 0.931 . S
H73 C44 0.931 . S
H74 C46 0.931 . S
H75 C47 0.931 . S
H76 C53 0.931 . S
H77 C54 0.931 . S
H78 C56 0.931 . S
H79 C57 0.931 . S
C80 Eu81 2.835 . S
C80 C82 1.500 1_455 S
C80 O100 1.257 . S
C80 O101 1.260 . S
Eu81 C80 2.835 . S
Eu81 O100 2.473 . S
Eu81 O101 2.480 . S
Eu81 O102 2.430 . S
Eu81 O103 2.670 . S
Eu81 O104 2.394 1_455 S
Eu81 O109 2.355 . S
Eu81 O111 2.374 . S
C82 C80 1.500 1_655 S
C82 C83 1.377 . S
C82 C87 1.377 . S
C83 C82 1.377 . S
C83 C84 1.395 . S
C83 H112 0.931 . S
C84 C83 1.395 . S
C84 C85 1.383 . S
C84 H113 0.931 . S
C85 C84 1.383 . S
C85 C86 1.394 . S
C86 C85 1.394 . S
C86 C87 1.378 . S
C86 H114 0.931 . S
C87 C82 1.377 . S
C87 C86 1.378 . S
C87 H115 0.931 . S
C88 O102 1.259 . S
C88 O103 1.270 . S
C89 O104 1.251 . S
C89 O105 1.251 . S
C90 Eu91 2.835 . S
C90 C92 1.500 . S
C90 O106 1.257 . S
C90 O107 1.260 . S
Eu91 C90 2.835 . S
Eu91 O103 2.355 . S
Eu91 O105 2.374 1_455 S
Eu91 O106 2.473 . S
Eu91 O107 2.480 . S
Eu91 O108 2.430 . S
Eu91 O109 2.670 . S
Eu91 O110 2.394 . S
C92 C90 1.500 . S
C92 C93 1.377 . S
C92 C97 1.377 . S
C93 C92 1.377 . S
C93 C94 1.395 . S
C93 H116 0.931 . S
C94 C93 1.395 . S
C94 C95 1.383 . S
C94 H117 0.931 . S
C95 C94 1.383 . S
C95 C96 1.394 . S
C96 C95 1.394 . S
C96 C97 1.378 . S
C96 H118 0.931 . S
C97 C92 1.377 . S
C97 C96 1.378 . S
C97 H119 0.931 . S
C98 O108 1.259 . S
C98 O109 1.270 . S
C99 O110 1.251 . S
C99 O111 1.251 . S
O100 C80 1.257 . S
O100 Eu81 2.473 . S
O101 C80 1.260 . S
O101 Eu81 2.480 . S
O102 Eu81 2.430 . S
O102 C88 1.259 . S
O103 Eu81 2.670 . S
O103 C88 1.270 . S
O103 Eu91 2.355 . S
O104 Eu81 2.394 1_655 S
O104 C89 1.251 . S
O105 C89 1.251 . S
O105 Eu91 2.374 1_655 S
O106 C90 1.257 . S
O106 Eu91 2.473 . S
O107 C90 1.260 . S
O107 Eu91 2.480 . S
O108 Eu91 2.430 . S
O108 C98 1.259 . S
O109 Eu81 2.355 . S
O109 Eu91 2.670 . S
O109 C98 1.270 . S
O110 Eu91 2.394 . S
O110 C99 1.251 . S
O111 Eu81 2.374 . S
O111 C99 1.251 . S
H112 C83 0.931 . S
H113 C84 0.931 . S
H114 C86 0.931 . S
H115 C87 0.931 . S
H116 C93 0.931 . S
H117 C94 0.931 . S
H118 C96 0.931 . S
H119 C97 0.931 . S
C120 Eu121 2.835 . S
C120 C122 1.500 . S
C120 O140 1.257 . S
C120 O141 1.260 . S
Eu121 C120 2.835 . S
Eu121 O140 2.473 . S
Eu121 O141 2.480 . S
Eu121 O142 2.430 . S
Eu121 O143 2.670 . S
Eu121 O144 2.394 . S
Eu121 O149 2.355 . S
Eu121 O151 2.374 1_655 S
C122 C120 1.500 . S
C122 C123 1.377 . S
C122 C127 1.377 . S
C123 C122 1.377 . S
C123 C124 1.395 . S
C123 H152 0.931 . S
C124 C123 1.395 . S
C124 C125 1.383 . S
C124 H153 0.931 . S
C125 C124 1.383 . S
C125 C126 1.394 . S
C126 C125 1.394 . S
C126 C127 1.378 . S
C126 H154 0.931 . S
C127 C122 1.377 . S
C127 C126 1.378 . S
C127 H155 0.931 . S
C128 O142 1.259 . S
C128 O143 1.270 . S
C129 O144 1.251 . S
C129 O145 1.251 . S
C130 Eu131 2.835 . S
C130 C132 1.500 1_655 S
C130 O146 1.257 . S
C130 O147 1.260 . S
Eu131 C130 2.835 . S
Eu131 O143 2.355 . S
Eu131 O145 2.374 . S
Eu131 O146 2.473 . S
Eu131 O147 2.480 . S
Eu131 O148 2.430 . S
Eu131 O149 2.670 . S
Eu131 O150 2.394 1_655 S
C132 C130 1.500 1_455 S
C132 C133 1.377 . S
C132 C137 1.377 . S
C133 C132 1.377 . S
C133 C134 1.395 . S
C133 H156 0.931 . S
C134 C133 1.395 . S
C134 C135 1.383 . S
C134 H157 0.931 . S
C135 C134 1.383 . S
C135 C136 1.394 . S
C136 C135 1.394 . S
C136 C137 1.378 . S
C136 H158 0.931 . S
C137 C132 1.377 . S
C137 C136 1.378 . S
C137 H159 0.931 . S
C138 O148 1.259 . S
C138 O149 1.270 . S
C139 O150 1.251 . S
C139 O151 1.251 . S
O140 C120 1.257 . S
O140 Eu121 2.473 . S
O141 C120 1.260 . S
O141 Eu121 2.480 . S
O142 Eu121 2.430 . S
O142 C128 1.259 . S
O143 Eu121 2.670 . S
O143 C128 1.270 . S
O143 Eu131 2.355 . S
O144 Eu121 2.394 . S
O144 C129 1.251 . S
O145 C129 1.251 . S
O145 Eu131 2.374 . S
O146 C130 1.257 . S
O146 Eu131 2.473 . S
O147 C130 1.260 . S
O147 Eu131 2.480 . S
O148 Eu131 2.430 . S
O148 C138 1.259 . S
O149 Eu121 2.355 . S
O149 Eu131 2.670 . S
O149 C138 1.270 . S
O150 Eu131 2.394 1_455 S
O150 C139 1.251 . S
O151 Eu121 2.374 1_455 S
O151 C139 1.251 . S
H152 C123 0.931 . S
H153 C124 0.931 . S
H154 C126 0.931 . S
H155 C127 0.931 . S
H156 C133 0.931 . S
H157 C134 0.931 . S
H158 C136 0.931 . S
H159 C137 0.931 . S
C160 Eu161 2.835 . S
C160 C162 1.500 1_554 S
C160 O180 1.257 1_554 S
C160 O181 1.260 . S
Eu161 C160 2.835 . S
Eu161 O180 2.473 1_554 S
Eu161 O181 2.480 . S
Eu161 O182 2.430 . S
Eu161 O183 2.670 . S
Eu161 O184 2.394 . S
Eu161 O189 2.355 1_554 S
Eu161 O191 2.374 . S
C162 C160 1.500 1_556 S
C162 C163 1.377 1_556 S
C162 C167 1.377 . S
C163 C162 1.377 1_554 S
C163 C164 1.395 . S
C163 H192 0.931 . S
C164 C163 1.395 . S
C164 C165 1.383 1_554 S
C164 H193 0.931 . S
C165 C164 1.383 1_556 S
C165 C166 1.394 . S
C166 C165 1.394 . S
C166 C167 1.378 . S
C166 H194 0.931 . S
C167 C162 1.377 . S
C167 C166 1.378 . S
C167 H195 0.931 . S
C168 O182 1.259 . S
C168 O183 1.270 . S
C169 O184 1.251 . S
C169 O185 1.256 . S
C170 Eu171 2.835 1_554 S
C170 C172 1.500 . S
C170 O186 1.257 . S
C170 O187 1.260 1_554 S
Eu171 C170 2.835 1_556 S
Eu171 O183 2.355 1_556 S
Eu171 O185 2.371 1_556 S
Eu171 O186 2.473 1_556 S
Eu171 O187 2.480 . S
Eu171 O188 2.430 . S
Eu171 O189 2.670 . S
Eu171 O190 2.394 . S
C172 C170 1.500 . S
C172 C173 1.377 1_554 S
C172 C177 1.377 . S
C173 C172 1.377 1_556 S
C173 C174 1.395 . S
C173 H196 0.931 . S
C174 C173 1.395 . S
C174 C175 1.383 1_556 S
C174 H197 0.931 . S
C175 C174 1.383 1_554 S
C175 C176 1.394 . S
C176 C175 1.394 . S
C176 C177 1.378 . S
C176 H198 0.931 . S
C177 C172 1.377 . S
C177 C176 1.378 . S
C177 H199 0.931 . S
C178 O188 1.259 . S
C178 O189 1.270 . S
C179 O190 1.247 1_554 S
C179 O191 1.254 . S
O180 C160 1.257 1_556 S
O180 Eu161 2.473 1_556 S
O181 C160 1.260 . S
O181 Eu161 2.480 . S
O182 Eu161 2.430 . S
O182 C168 1.259 . S
O183 Eu161 2.670 . S
O183 C168 1.270 . S
O183 Eu171 2.355 1_554 S
O184 Eu161 2.394 . S
O184 C169 1.251 . S
O185 C169 1.256 . S
O185 Eu171 2.371 1_554 S
O186 C170 1.257 . S
O186 Eu171 2.473 1_554 S
O187 C170 1.260 1_556 S
O187 Eu171 2.480 . S
O188 Eu171 2.430 . S
O188 C178 1.259 . S
O189 Eu161 2.355 1_556 S
O189 Eu171 2.670 . S
O189 C178 1.270 . S
O190 Eu171 2.394 . S
O190 C179 1.247 1_556 S
O191 Eu161 2.374 . S
O191 C179 1.254 . S
H192 C163 0.931 . S
H193 C164 0.931 . S
H194 C166 0.931 . S
H195 C167 0.931 . S
H196 C173 0.931 . S
H197 C174 0.931 . S
H198 C176 0.931 . S
H199 C177 0.931 . S
C200 Eu201 2.837 . S
C200 C202 1.498 1_554 S
C200 O220 1.244 1_554 S
C200 O221 1.276 . S
Eu201 C200 2.837 . S
Eu201 O220 2.473 1_554 S
Eu201 O221 2.480 . S
Eu201 O222 2.430 . S
Eu201 O223 2.670 . S
Eu201 O224 2.394 . S
Eu201 O229 2.355 1_554 S
Eu201 O231 2.372 1_554 S
C202 C200 1.498 1_556 S
C202 C203 1.377 1_556 S
C202 C207 1.377 . S
C203 C202 1.377 1_554 S
C203 C204 1.395 . S
C203 H232 0.931 . S
C204 C203 1.395 . S
C204 C205 1.383 1_554 S
C204 H233 0.931 . S
C205 C204 1.383 1_556 S
C205 C206 1.394 . S
C206 C205 1.394 . S
C206 C207 1.378 . S
C206 H234 0.931 . S
C207 C202 1.377 . S
C207 C206 1.378 . S
C207 H235 0.931 . S
C208 O222 1.259 . S
C208 O223 1.270 . S
C209 O224 1.251 . S
C209 O225 1.251 . S
C210 Eu211 2.835 1_554 S
C210 C212 1.500 . S
C210 O226 1.257 . S
C210 O227 1.260 1_554 S
Eu211 C210 2.835 1_556 S
Eu211 O223 2.355 1_556 S
Eu211 O225 2.374 1_556 S
Eu211 O226 2.473 1_556 S
Eu211 O227 2.480 . S
Eu211 O228 2.430 . S
Eu211 O229 2.670 . S
Eu211 O230 2.394 . S
C212 C210 1.500 . S
C212 C213 1.377 1_554 S
C212 C217 1.377 . S
C213 C212 1.377 1_556 S
C213 C214 1.395 . S
C213 H236 0.931 . S
C214 C213 1.395 . S
C214 C215 1.383 1_556 S
C214 H237 0.931 . S
C215 C214 1.383 1_554 S
C215 C216 1.394 . S
C216 C215 1.394 . S
C216 C217 1.378 . S
C216 H238 0.931 . S
C217 C212 1.377 . S
C217 C216 1.378 . S
C217 H239 0.931 . S
C218 O228 1.259 . S
C218 O229 1.270 . S
C219 O230 1.251 . S
C219 O231 1.255 . S
O220 C200 1.244 1_556 S
O220 Eu201 2.473 1_556 S
O221 C200 1.276 . S
O221 Eu201 2.480 . S
O222 Eu201 2.430 . S
O222 C208 1.259 . S
O223 Eu201 2.670 . S
O223 C208 1.270 . S
O223 Eu211 2.355 1_554 S
O224 Eu201 2.394 . S
O224 C209 1.251 . S
O225 C209 1.251 . S
O225 Eu211 2.374 1_554 S
O226 C210 1.257 . S
O226 Eu211 2.473 1_554 S
O227 C210 1.260 1_556 S
O227 Eu211 2.480 . S
O228 Eu211 2.430 . S
O228 C218 1.259 . S
O229 Eu201 2.355 1_556 S
O229 Eu211 2.670 . S
O229 C218 1.270 . S
O230 Eu211 2.394 . S
O230 C219 1.251 . S
O231 Eu201 2.372 1_556 S
O231 C219 1.255 . S
H232 C203 0.931 . S
H233 C204 0.931 . S
H234 C206 0.931 . S
H235 C207 0.931 . S
H236 C213 0.931 . S
H237 C214 0.931 . S
H238 C216 0.931 . S
H239 C217 0.931 . S
C240 Eu241 2.835 . S
C240 C242 1.500 . S
C240 O260 1.257 . S
C240 O261 1.260 . S
Eu241 C240 2.835 . S
Eu241 O260 2.473 . S
Eu241 O261 2.480 . S
Eu241 O262 2.430 . S
Eu241 O263 2.670 . S
Eu241 O264 2.394 . S
Eu241 O269 2.355 . S
Eu241 O271 2.374 . S
C242 C240 1.500 . S
C242 C243 1.377 . S
C242 C247 1.377 . S
C243 C242 1.377 . S
C243 C244 1.395 . S
C243 H272 0.931 . S
C244 C243 1.395 . S
C244 C245 1.383 . S
C244 H273 0.931 . S
C245 C244 1.383 . S
C245 C246 1.394 . S
C246 C245 1.394 . S
C246 C247 1.378 . S
C246 H274 0.931 . S
C247 C242 1.377 . S
C247 C246 1.378 . S
C247 H275 0.931 . S
C248 O262 1.259 . S
C248 O263 1.270 . S
C249 O264 1.251 . S
C249 O265 1.251 . S
C250 Eu251 2.835 . S
C250 C252 1.500 . S
C250 O266 1.257 . S
C250 O267 1.260 . S
Eu251 C250 2.835 . S
Eu251 O263 2.355 . S
Eu251 O265 2.374 . S
Eu251 O266 2.473 . S
Eu251 O267 2.480 . S
Eu251 O268 2.430 . S
Eu251 O269 2.670 . S
Eu251 O270 2.394 . S
C252 C250 1.500 . S
C252 C253 1.377 . S
C252 C257 1.377 . S
C253 C252 1.377 . S
C253 C254 1.395 . S
C253 H276 0.931 . S
C254 C253 1.395 . S
C254 C255 1.383 . S
C254 H277 0.931 . S
C255 C254 1.383 . S
C255 C256 1.394 . S
C256 C255 1.394 . S
C256 C257 1.378 . S
C256 H278 0.931 . S
C257 C252 1.377 . S
C257 C256 1.378 . S
C257 H279 0.931 . S
C258 O268 1.259 . S
C258 O269 1.270 . S
C259 O270 1.251 . S
C259 O271 1.251 . S
O260 C240 1.257 . S
O260 Eu241 2.473 . S
O261 C240 1.260 . S
O261 Eu241 2.480 . S
O262 Eu241 2.430 . S
O262 C248 1.259 . S
O263 Eu241 2.670 . S
O263 C248 1.270 . S
O263 Eu251 2.355 . S
O264 Eu241 2.394 . S
O264 C249 1.251 . S
O265 C249 1.251 . S
O265 Eu251 2.374 . S
O266 C250 1.257 . S
O266 Eu251 2.473 . S
O267 C250 1.260 . S
O267 Eu251 2.480 . S
O268 Eu251 2.430 . S
O268 C258 1.259 . S
O269 Eu241 2.355 . S
O269 Eu251 2.670 . S
O269 C258 1.270 . S
O270 Eu251 2.394 . S
O270 C259 1.251 . S
O271 Eu241 2.374 . S
O271 C259 1.251 . S
H272 C243 0.931 . S
H273 C244 0.931 . S
H274 C246 0.931 . S
H275 C247 0.931 . S
H276 C253 0.931 . S
H277 C254 0.931 . S
H278 C256 0.931 . S
H279 C257 0.931 . S
C280 Eu281 2.835 . S
C280 C282 1.500 . S
C280 O300 1.257 . S
C280 O301 1.260 . S
Eu281 C280 2.835 . S
Eu281 O300 2.473 . S
Eu281 O301 2.480 . S
Eu281 O302 2.430 . S
Eu281 O303 2.670 . S
Eu281 O304 2.394 . S
Eu281 O309 2.355 . S
Eu281 O311 2.374 . S
C282 C280 1.500 . S
C282 C283 1.377 . S
C282 C287 1.377 . S
C283 C282 1.377 . S
C283 C284 1.395 . S
C283 H312 0.931 . S
C284 C283 1.395 . S
C284 C285 1.383 . S
C284 H313 0.931 . S
C285 C284 1.383 . S
C285 C286 1.394 . S
C286 C285 1.394 . S
C286 C287 1.378 . S
C286 H314 0.931 . S
C287 C282 1.377 . S
C287 C286 1.378 . S
C287 H315 0.931 . S
C288 O302 1.259 . S
C288 O303 1.270 . S
C289 O304 1.251 . S
C289 O305 1.251 . S
C290 Eu291 2.835 . S
C290 C292 1.500 . S
C290 O306 1.257 . S
C290 O307 1.260 . S
Eu291 C290 2.835 . S
Eu291 O303 2.355 . S
Eu291 O305 2.374 . S
Eu291 O306 2.473 . S
Eu291 O307 2.480 . S
Eu291 O308 2.430 . S
Eu291 O309 2.670 . S
Eu291 O310 2.394 . S
C292 C290 1.500 . S
C292 C293 1.377 . S
C292 C297 1.377 . S
C293 C292 1.377 . S
C293 C294 1.395 . S
C293 H316 0.931 . S
C294 C293 1.395 . S
C294 C295 1.383 . S
C294 H317 0.931 . S
C295 C294 1.383 . S
C295 C296 1.394 . S
C296 C295 1.394 . S
C296 C297 1.378 . S
C296 H318 0.931 . S
C297 C292 1.377 . S
C297 C296 1.378 . S
C297 H319 0.931 . S
C298 O308 1.259 . S
C298 O309 1.270 . S
C299 O310 1.251 . S
C299 O311 1.251 . S
O300 C280 1.257 . S
O300 Eu281 2.473 . S
O301 C280 1.260 . S
O301 Eu281 2.480 . S
O302 Eu281 2.430 . S
O302 C288 1.259 . S
O303 Eu281 2.670 . S
O303 C288 1.270 . S
O303 Eu291 2.355 . S
O304 Eu281 2.394 . S
O304 C289 1.251 . S
O305 C289 1.251 . S
O305 Eu291 2.374 . S
O306 C290 1.257 . S
O306 Eu291 2.473 . S
O307 C290 1.260 . S
O307 Eu291 2.480 . S
O308 Eu291 2.430 . S
O308 C298 1.259 . S
O309 Eu281 2.355 . S
O309 Eu291 2.670 . S
O309 C298 1.270 . S
O310 Eu291 2.394 . S
O310 C299 1.251 . S
O311 Eu281 2.374 . S
O311 C299 1.251 . S
H312 C283 0.931 . S
H313 C284 0.931 . S
H314 C286 0.931 . S
H315 C287 0.931 . S
H316 C293 0.931 . S
H317 C294 0.931 . S
H318 C296 0.931 . S
H319 C297 0.931 . S
H320 C326 0.937 . S
H321 C330 0.930 . S
H322 C335 0.929 . S
H323 C333 0.929 . S
H324 C328 0.929 . S
H325 C334 0.929 . S
C326 H320 0.937 . S
C326 C327 1.358 1_556 S
C326 C334 1.380 . S
C327 C326 1.358 1_554 S
C327 C335 1.433 . S
C328 H324 0.929 . S
C328 C330 1.378 . S
C328 C332 1.354 . S
C329 C332 1.464 . S
C329 C334 1.350 1_554 S
C329 N337 1.427 . S
C330 H321 0.930 . S
C330 C328 1.378 . S
C330 C331 1.367 1_554 S
C331 C330 1.367 1_556 S
C331 C333 1.433 . S
C332 C328 1.354 . S
C332 C329 1.464 . S
C332 N336 1.421 1_554 S
C333 H323 0.929 . S
C333 C331 1.433 . S
C333 N336 1.384 . S
C334 H325 0.929 . S
C334 C326 1.380 . S
C334 C329 1.350 1_556 S
C335 H322 0.929 . S
C335 C327 1.433 . S
C335 N337 1.384 . S
N336 C332 1.421 1_556 S
N336 C333 1.384 . S
N337 C329 1.427 . S
N337 C335 1.384 . S
H338 C344 0.930 . S
H339 C348 0.930 . S
H340 C353 0.929 . S
H341 C351 0.929 . S
H342 C346 0.929 . S
H343 C352 0.929 . S
C344 H338 0.930 . S
C344 C345 1.367 . S
C344 C352 1.378 . S
C345 C344 1.367 . S
C345 C353 1.433 1_556 S
C346 H342 0.929 . S
C346 C348 1.378 . S
C346 C350 1.350 . S
C347 C350 1.463 1_556 S
C347 C352 1.350 . S
C347 N355 1.427 1_556 S
C348 H339 0.930 . S
C348 C346 1.378 . S
C348 C349 1.367 . S
C349 C348 1.367 . S
C349 C351 1.433 1_554 S
C350 C346 1.350 . S
C350 C347 1.463 1_554 S
C350 N354 1.427 1_554 S
C351 H341 0.929 . S
C351 C349 1.433 1_556 S
C351 N354 1.384 . S
C352 H343 0.929 . S
C352 C344 1.378 . S
C352 C347 1.350 . S
C353 H340 0.929 . S
C353 C345 1.433 1_554 S
C353 N355 1.384 . S
N354 C350 1.427 1_556 S
N354 C351 1.384 . S
N355 C347 1.427 1_554 S
N355 C353 1.384 . S
H356 C362 0.930 . S
H357 C366 0.930 . S
H358 C371 0.929 . S
H359 C369 0.929 . S
H360 C364 0.929 . S
H361 C370 0.929 . S
C362 H356 0.930 . S
C362 C363 1.367 . S
C362 C370 1.378 . S
C363 C362 1.367 . S
C363 C371 1.433 . S
C364 H360 0.929 . S
C364 C366 1.378 . S
C364 C368 1.350 . S
C365 C368 1.463 . S
C365 C370 1.350 . S
C365 N373 1.427 . S
C366 H357 0.930 . S
C366 C364 1.378 . S
C366 C367 1.367 . S
C367 C366 1.367 . S
C367 C369 1.433 . S
C368 C364 1.350 . S
C368 C365 1.463 . S
C368 N372 1.427 . S
C369 H359 0.929 . S
C369 C367 1.433 . S
C369 N372 1.384 . S
C370 H361 0.929 . S
C370 C362 1.378 . S
C370 C365 1.350 . S
C371 H358 0.929 . S
C371 C363 1.433 . S
C371 N373 1.384 . S
N372 C368 1.427 . S
N372 C369 1.384 . S
N373 C365 1.427 . S
N373 C371 1.384 . S
H374 C380 0.930 . S
H375 C384 0.930 . S
H376 C389 0.929 . S
H377 C387 0.929 . S
H378 C382 0.929 . S
H379 C388 0.929 . S
C380 H374 0.930 . S
C380 C381 1.367 . S
C380 C388 1.378 . S
C381 C380 1.367 . S
C381 C389 1.433 . S
C382 H378 0.929 . S
C382 C384 1.378 . S
C382 C386 1.350 . S
C383 C386 1.463 . S
C383 C388 1.350 . S
C383 N391 1.427 . S
C384 H375 0.930 . S
C384 C382 1.378 . S
C384 C385 1.367 . S
C385 C384 1.367 . S
C385 C387 1.433 . S
C386 C382 1.350 . S
C386 C383 1.463 . S
C386 N390 1.427 . S
C387 H377 0.929 . S
C387 C385 1.433 . S
C387 N390 1.384 . S
C388 H379 0.929 . S
C388 C380 1.378 . S
C388 C383 1.350 . S
C389 H376 0.929 . S
C389 C381 1.433 . S
C389 N391 1.384 . S
N390 C386 1.427 . S
N390 C387 1.384 . S
N391 C383 1.427 . S
N391 C389 1.384 . S
H392 C398 0.930 . S
H393 C402 0.930 . S
H394 C407 0.929 . S
H395 C405 0.929 . S
H396 C400 0.929 . S
H397 C406 0.929 . S
C398 H392 0.930 . S
C398 C399 1.367 1_455 S
C398 C406 1.378 . S
C399 C398 1.367 1_655 S
C399 C407 1.433 1_554 S
C400 H396 0.929 . S
C400 C402 1.378 . S
C400 C404 1.350 . S
C401 C404 1.463 1_554 S
C401 C406 1.350 . S
C401 N409 1.427 1_554 S
C402 H393 0.930 . S
C402 C400 1.378 . S
C402 C403 1.367 . S
C403 C402 1.367 . S
C403 C405 1.433 1_556 S
C404 C400 1.350 . S
C404 C401 1.463 1_556 S
C404 N408 1.427 1_556 S
C405 H395 0.929 . S
C405 C403 1.433 1_554 S
C405 N408 1.384 . S
C406 H397 0.929 . S
C406 C398 1.378 . S
C406 C401 1.350 . S
C407 H394 0.929 . S
C407 C399 1.433 1_556 S
C407 N409 1.384 1_655 S
N408 C404 1.427 1_554 S
N408 C405 1.384 . S
N409 C401 1.427 1_556 S
N409 C407 1.384 1_455 S
H410 C416 0.930 . S
H411 C420 0.930 . S
H412 C425 0.929 . S
H413 C423 0.929 . S
H414 C418 0.929 . S
H415 C424 0.929 1_455 S
C416 H410 0.930 . S
C416 C417 1.367 1_556 S
C416 C424 1.378 1_455 S
C417 C416 1.367 1_554 S
C417 C425 1.433 1_455 S
C418 H414 0.929 . S
C418 C420 1.378 . S
C418 C422 1.338 1_554 S
C419 C422 1.457 1_554 S
C419 C424 1.350 1_554 S
C419 N427 1.427 . S
C420 H411 0.930 . S
C420 C418 1.378 . S
C420 C421 1.367 1_554 S
C421 C420 1.367 1_556 S
C421 C423 1.433 . S
C422 C418 1.338 1_556 S
C422 C419 1.457 1_556 S
C422 N426 1.446 . S
C423 H413 0.929 . S
C423 C421 1.433 . S
C423 N426 1.384 . S
C424 H415 0.929 1_655 S
C424 C416 1.378 1_655 S
C424 C419 1.350 1_556 S
C425 H412 0.929 . S
C425 C417 1.433 1_655 S
C425 N427 1.384 . S
N426 C422 1.446 . S
N426 C423 1.384 . S
N427 C419 1.427 . S
N427 C425 1.384 . S
H428 C434 0.930 . S
H429 C438 0.930 . S
H430 C443 0.929 . S
H431 C441 0.929 . S
H432 C436 0.929 1_455 S
H433 C442 0.929 . S
C434 H428 0.930 . S
C434 C435 1.367 . S
C434 C442 1.378 . S
C435 C434 1.367 . S
C435 C443 1.433 . S
C436 H432 0.929 1_655 S
C436 C438 1.378 . S
C436 C440 1.350 1_655 S
C437 C440 1.463 . S
C437 C442 1.350 . S
C437 N445 1.427 . S
C438 H429 0.930 . S
C438 C436 1.378 . S
C438 C439 1.367 . S
C439 C438 1.367 . S
C439 C441 1.433 . S
C440 C436 1.350 1_455 S
C440 C437 1.463 . S
C440 N444 1.427 1_455 S
C441 H431 0.929 . S
C441 C439 1.433 . S
C441 N444 1.384 . S
C442 H433 0.929 . S
C442 C434 1.378 . S
C442 C437 1.350 . S
C443 H430 0.929 . S
C443 C435 1.433 . S
C443 N445 1.384 . S
N444 C440 1.427 1_655 S
N444 C441 1.384 . S
N445 C437 1.427 . S
N445 C443 1.384 . S
H446 C452 0.930 . S
H447 C456 0.930 . S
H448 C461 0.929 . S
H449 C459 0.929 . S
H450 C454 0.926 1_655 S
H451 C460 0.929 . S
C452 H446 0.930 . S
C452 C453 1.367 . S
C452 C460 1.378 . S
C453 C452 1.367 . S
C453 C461 1.433 . S
C454 H450 0.926 1_455 S
C454 C456 1.378 . S
C454 C458 1.350 1_455 S
C455 C458 1.463 . S
C455 C460 1.350 . S
C455 N463 1.427 . S
C456 H447 0.930 . S
C456 C454 1.378 . S
C456 C457 1.367 . S
C457 C456 1.367 . S
C457 C459 1.433 . S
C458 C454 1.350 1_655 S
C458 C455 1.463 . S
C458 N462 1.427 1_655 S
C459 H449 0.929 . S
C459 C457 1.433 . S
C459 N462 1.384 . S
C460 H451 0.929 . S
C460 C452 1.378 . S
C460 C455 1.350 . S
C461 H448 0.929 . S
C461 C453 1.433 . S
C461 N463 1.384 . S
N462 C458 1.427 1_455 S
N462 C459 1.384 . S
N463 C455 1.427 . S
N463 C461 1.384 . S
H464 C470 0.930 . S
H465 C474 0.930 . S
H466 C479 0.929 . S
H467 C477 0.929 . S
H468 C472 0.929 . S
H469 C478 0.929 . S
C470 H464 0.930 . S
C470 C471 1.367 1_655 S
C470 C478 1.378 . S
C471 C470 1.367 1_455 S
C471 C479 1.433 1_554 S
C472 H468 0.929 . S
C472 C474 1.378 . S
C472 C476 1.353 1_556 S
C473 C476 1.466 1_655 S
C473 C478 1.356 . S
C473 N481 1.418 1_654 S
C474 H465 0.930 . S
C474 C472 1.378 . S
C474 C475 1.367 1_456 S
C475 C474 1.367 1_654 S
C475 C477 1.433 . S
C476 C472 1.353 1_554 S
C476 C473 1.466 1_455 S
C476 N480 1.423 1_455 S
C477 H467 0.929 . S
C477 C475 1.433 . S
C477 N480 1.384 . S
C478 H469 0.929 . S
C478 C470 1.378 . S
C478 C473 1.356 . S
C479 H466 0.929 . S
C479 C471 1.433 1_556 S
C479 N481 1.384 . S
N480 C476 1.423 1_655 S
N480 C477 1.384 . S
N481 C473 1.418 1_456 S
N481 C479 1.384 . S
H482 C488 0.930 . S
H483 C492 0.930 . S
H484 C497 0.929 . S
H485 C495 0.929 . S
H486 C490 0.929 . S
H487 C496 0.929 . S
C488 H482 0.930 . S
C488 C489 1.367 . S
C488 C496 1.378 1_455 S
C489 C488 1.367 . S
C489 C497 1.433 . S
C490 H486 0.929 . S
C490 C492 1.378 1_455 S
C490 C494 1.350 1_455 S
C491 C494 1.463 1_455 S
C491 C496 1.350 1_455 S
C491 N499 1.427 . S
C492 H483 0.930 . S
C492 C490 1.378 1_655 S
C492 C493 1.367 . S
C493 C492 1.367 . S
C493 C495 1.433 . S
C494 C490 1.350 1_655 S
C494 C491 1.463 1_655 S
C494 N498 1.427 . S
C495 H485 0.929 . S
C495 C493 1.433 . S
C495 N498 1.384 . S
C496 H487 0.929 . S
C496 C488 1.378 1_655 S
C496 C491 1.350 1_655 S
C497 H484 0.929 . S
C497 C489 1.433 . S
C497 N499 1.384 . S
N498 C494 1.427 . S
N498 C495 1.384 . S
N499 C491 1.427 . S
N499 C497 1.384 . S
H500 C506 0.930 . S
H501 C510 0.930 . S
H502 C515 0.929 . S
H503 C513 0.929 . S
H504 C508 0.929 . S
H505 C514 0.929 . S
C506 H500 0.930 . S
C506 C507 1.367 1_556 S
C506 C514 1.378 . S
C507 C506 1.367 1_554 S
C507 C515 1.433 . S
C508 H504 0.929 . S
C508 C510 1.378 . S
C508 C512 1.350 . S
C509 C512 1.463 1_565 S
C509 C514 1.350 1_554 S
C509 N517 1.427 . S
C510 H501 0.930 . S
C510 C508 1.378 . S
C510 C511 1.367 . S
C511 C510 1.367 . S
C511 C513 1.433 1_554 S
C512 C508 1.350 . S
C512 C509 1.463 1_545 S
C512 N516 1.427 1_554 S
C513 H503 0.929 . S
C513 C511 1.433 1_556 S
C513 N516 1.384 . S
C514 H505 0.929 . S
C514 C506 1.378 . S
C514 C509 1.350 1_556 S
C515 H502 0.929 . S
C515 C507 1.433 . S
C515 N517 1.384 . S
N516 C512 1.427 1_556 S
N516 C513 1.384 . S
N517 C509 1.427 . S
N517 C515 1.384 . S
H518 C524 0.930 . S
H519 C528 0.930 . S
H520 C533 0.929 . S
H521 C531 0.929 . S
H522 C526 0.929 . S
H523 C532 0.929 . S
C524 H518 0.930 . S
C524 C525 1.367 . S
C524 C532 1.378 . S
C525 C524 1.367 . S
C525 C533 1.433 . S
C526 H522 0.929 . S
C526 C528 1.378 . S
C526 C530 1.350 . S
C527 C530 1.463 1_545 S
C527 C532 1.350 . S
C527 N535 1.427 . S
C528 H519 0.930 . S
C528 C526 1.378 . S
C528 C529 1.367 . S
C529 C528 1.367 . S
C529 C531 1.433 . S
C530 C526 1.350 . S
C530 C527 1.463 1_565 S
C530 N534 1.427 . S
C531 H521 0.929 . S
C531 C529 1.433 . S
C531 N534 1.384 . S
C532 H523 0.929 . S
C532 C524 1.378 . S
C532 C527 1.350 . S
C533 H520 0.929 . S
C533 C525 1.433 . S
C533 N535 1.384 . S
N534 C530 1.427 . S
N534 C531 1.384 . S
N535 C527 1.427 . S
N535 C533 1.384 . S
H536 C542 0.930 . S
H537 C546 0.930 . S
H538 C551 0.929 . S
H539 C549 0.929 . S
H540 C544 0.929 . S
H541 C550 0.929 . S
C542 H536 0.930 . S
C542 C543 1.367 . S
C542 C550 1.378 . S
C543 C542 1.367 . S
C543 C551 1.433 1_554 S
C544 H540 0.929 . S
C544 C546 1.378 . S
C544 C548 1.351 . S
C545 C548 1.462 1_554 S
C545 C550 1.350 . S
C545 N553 1.427 1_554 S
C546 H537 0.930 . S
C546 C544 1.378 . S
C546 C547 1.367 . S
C547 C546 1.367 . S
C547 C549 1.433 1_556 S
C548 C544 1.351 . S
C548 C545 1.462 1_556 S
C548 N552 1.426 1_556 S
C549 H539 0.929 . S
C549 C547 1.433 1_554 S
C549 N552 1.384 . S
C550 H541 0.929 . S
C550 C542 1.378 . S
C550 C545 1.350 . S
C551 H538 0.929 . S
C551 C543 1.433 1_556 S
C551 N553 1.384 . S
N552 C548 1.426 1_554 S
N552 C549 1.384 . S
N553 C545 1.427 1_556 S
N553 C551 1.384 . S
H554 C560 0.930 . S
H555 C564 0.930 . S
H556 C569 0.929 . S
H557 C567 0.929 . S
H558 C562 0.929 . S
H559 C568 0.929 . S
C560 H554 0.930 . S
C560 C561 1.367 1_556 S
C560 C568 1.378 . S
C561 C560 1.367 1_554 S
C561 C569 1.433 . S
C562 H558 0.929 . S
C562 C564 1.378 . S
C562 C566 1.350 . S
C563 C566 1.462 . S
C563 C568 1.339 1_554 S
C563 N571 1.440 . S
C564 H555 0.930 . S
C564 C562 1.378 . S
C564 C565 1.364 1_554 S
C565 C564 1.364 1_556 S
C565 C567 1.436 . S
C566 C562 1.350 . S
C566 C563 1.462 . S
C566 N570 1.427 1_554 S
C567 H557 0.929 . S
C567 C565 1.436 . S
C567 N570 1.384 . S
C568 H559 0.929 . S
C568 C560 1.378 . S
C568 C563 1.339 1_556 S
C569 H556 0.929 . S
C569 C561 1.433 . S
C569 N571 1.384 . S
N570 C566 1.427 1_556 S
N570 C567 1.384 . S
N571 C563 1.440 . S
N571 C569 1.384 . S
H572 C578 0.930 . S
H573 C582 0.930 . S
H574 C587 0.929 . S
H575 C585 0.929 . S
H576 C580 0.929 . S
H577 C586 0.929 . S
C578 H572 0.930 . S
C578 C579 1.367 . S
C578 C586 1.378 . S
C579 C578 1.367 . S
C579 C587 1.433 . S
C580 H576 0.929 . S
C580 C582 1.378 . S
C580 C584 1.350 . S
C581 C584 1.463 . S
C581 C586 1.350 . S
C581 N589 1.427 . S
C582 H573 0.930 . S
C582 C580 1.378 . S
C582 C583 1.367 . S
C583 C582 1.367 . S
C583 C585 1.433 . S
C584 C580 1.350 . S
C584 C581 1.463 . S
C584 N588 1.427 . S
C585 H575 0.929 . S
C585 C583 1.433 . S
C585 N588 1.384 . S
C586 H577 0.929 . S
C586 C578 1.378 . S
C586 C581 1.350 . S
C587 H574 0.929 . S
C587 C579 1.433 . S
C587 N589 1.384 . S
N588 C584 1.427 . S
N588 C585 1.384 . S
N589 C581 1.427 . S
N589 C587 1.384 . S
H590 C596 0.930 . S
H591 C600 0.930 . S
H592 C605 0.929 . S
H593 C603 0.929 . S
H594 C598 0.929 . S
H595 C604 0.929 . S
C596 H590 0.930 . S
C596 C597 1.367 . S
C596 C604 1.378 . S
C597 C596 1.367 . S
C597 C605 1.433 . S
C598 H594 0.929 . S
C598 C600 1.378 . S
C598 C602 1.350 . S
C599 C602 1.463 . S
C599 C604 1.350 . S
C599 N607 1.427 . S
C600 H591 0.930 . S
C600 C598 1.378 . S
C600 C601 1.367 . S
C601 C600 1.367 . S
C601 C603 1.433 . S
C602 C598 1.350 . S
C602 C599 1.463 . S
C602 N606 1.427 . S
C603 H593 0.929 . S
C603 C601 1.433 . S
C603 N606 1.384 . S
C604 H595 0.929 . S
C604 C596 1.378 . S
C604 C599 1.350 . S
C605 H592 0.929 . S
C605 C597 1.433 . S
C605 N607 1.384 . S
N606 C602 1.427 . S
N606 C603 1.384 . S
N607 C599 1.427 . S
N607 C605 1.384 . S
H608 C614 0.930 . S
H609 C618 0.930 . S
H610 C623 0.929 . S
H611 C621 0.929 . S
H612 C616 0.929 . S
H613 C622 0.929 . S
C614 H608 0.930 . S
C614 C615 1.367 . S
C614 C622 1.378 . S
C615 C614 1.367 . S
C615 C623 1.433 . S
C616 H612 0.929 . S
C616 C618 1.378 1_455 S
C616 C620 1.350 . S
C617 C620 1.463 . S
C617 C622 1.350 . S
C617 N625 1.427 . S
C618 H609 0.930 . S
C618 C616 1.378 1_655 S
C618 C619 1.367 . S
C619 C618 1.367 . S
C619 C621 1.433 . S
C620 C616 1.350 . S
C620 C617 1.463 . S
C620 N624 1.427 1_455 S
C621 H611 0.929 . S
C621 C619 1.433 . S
C621 N624 1.384 . S
C622 H613 0.929 . S
C622 C614 1.378 . S
C622 C617 1.350 . S
C623 H610 0.929 . S
C623 C615 1.433 . S
C623 N625 1.384 . S
N624 C620 1.427 1_655 S
N624 C621 1.384 . S
N625 C617 1.427 . S
N625 C623 1.384 . S
H626 C632 0.930 1_455 S
H627 C636 0.930 . S
H628 C641 0.929 . S
H629 C639 0.929 . S
H630 C634 0.929 . S
H631 C640 0.929 . S
C632 H626 0.930 1_655 S
C632 C633 1.367 . S
C632 C640 1.378 1_655 S
C633 C632 1.367 . S
C633 C641 1.433 . S
C634 H630 0.929 . S
C634 C636 1.378 . S
C634 C638 1.350 . S
C635 C638 1.463 . S
C635 C640 1.350 1_655 S
C635 N643 1.427 . S
C636 H627 0.930 . S
C636 C634 1.378 . S
C636 C637 1.367 1_655 S
C637 C636 1.367 1_455 S
C637 C639 1.433 . S
C638 C634 1.350 . S
C638 C635 1.463 . S
C638 N642 1.427 1_655 S
C639 H629 0.929 . S
C639 C637 1.433 . S
C639 N642 1.384 . S
C640 H631 0.929 . S
C640 C632 1.378 1_455 S
C640 C635 1.350 1_455 S
C641 H628 0.929 . S
C641 C633 1.433 . S
C641 N643 1.384 . S
N642 C638 1.427 1_455 S
N642 C639 1.384 . S
N643 C635 1.427 . S
N643 C641 1.384 . S
H644 C650 0.930 . S
H645 C654 0.930 1_655 S
H646 C659 0.929 . S
H647 C657 0.929 . S
H648 C652 0.929 . S
H649 C658 0.929 1_455 S
C650 H644 0.930 . S
C650 C651 1.367 . S
C650 C658 1.378 . S
C651 C650 1.367 . S
C651 C659 1.433 . S
C652 H648 0.929 . S
C652 C654 1.378 1_655 S
C652 C656 1.350 . S
C653 C656 1.463 . S
C653 C658 1.350 . S
C653 N661 1.427 . S
C654 H645 0.930 1_455 S
C654 C652 1.378 1_455 S
C654 C655 1.367 . S
C655 C654 1.367 . S
C655 C657 1.433 . S
C656 C652 1.350 . S
C656 C653 1.463 . S
C656 N660 1.427 1_655 S
C657 H647 0.929 . S
C657 C655 1.433 . S
C657 N660 1.384 . S
C658 H649 0.929 1_655 S
C658 C650 1.378 . S
C658 C653 1.350 . S
C659 H646 0.929 . S
C659 C651 1.433 . S
C659 N661 1.384 . S
N660 C656 1.427 1_455 S
N660 C657 1.384 . S
N661 C653 1.427 . S
N661 C659 1.384 . S
H662 C668 0.930 . S
H663 C672 0.930 . S
H664 C677 0.929 . S
H665 C675 0.929 . S
H666 C670 0.929 . S
H667 C676 0.929 . S
C668 H662 0.930 . S
C668 C669 1.367 1_455 S
C668 C676 1.378 . S
C669 C668 1.367 1_655 S
C669 C677 1.433 . S
C670 H666 0.929 . S
C670 C672 1.378 . S
C670 C674 1.350 1_655 S
C671 C674 1.458 1_655 S
C671 C676 1.338 1_655 S
C671 N679 1.445 . S
C672 H663 0.930 . S
C672 C670 1.378 . S
C672 C673 1.367 1_655 S
C673 C672 1.367 1_455 S
C673 C675 1.433 . S
C674 C670 1.350 1_455 S
C674 C671 1.458 1_455 S
C674 N678 1.427 . S
C675 H665 0.929 . S
C675 C673 1.433 . S
C675 N678 1.384 . S
C676 H667 0.929 . S
C676 C668 1.378 . S
C676 C671 1.338 1_455 S
C677 H664 0.929 . S
C677 C669 1.433 . S
C677 N679 1.384 . S
N678 C674 1.427 . S
N678 C675 1.384 . S
N679 C671 1.445 . S
N679 C677 1.384 . S
H680 C686 0.930 . S
H681 C690 0.930 . S
H682 C695 0.929 . S
H683 C693 0.929 . S
H684 C688 0.929 . S
H685 C694 0.929 . S
C686 H680 0.930 . S
C686 C687 1.367 . S
C686 C694 1.378 . S
C687 C686 1.367 . S
C687 C695 1.433 . S
C688 H684 0.929 . S
C688 C690 1.378 . S
C688 C692 1.350 . S
C689 C692 1.463 . S
C689 C694 1.350 . S
C689 N697 1.427 . S
C690 H681 0.930 . S
C690 C688 1.378 . S
C690 C691 1.367 . S
C691 C690 1.367 . S
C691 C693 1.433 . S
C692 C688 1.350 . S
C692 C689 1.463 . S
C692 N696 1.427 . S
C693 H683 0.929 . S
C693 C691 1.433 . S
C693 N696 1.384 . S
C694 H685 0.929 . S
C694 C686 1.378 . S
C694 C689 1.350 . S
C695 H682 0.929 . S
C695 C687 1.433 . S
C695 N697 1.384 . S
N696 C692 1.427 . S
N696 C693 1.384 . S
N697 C689 1.427 . S
N697 C695 1.384 . S
H698 C704 0.930 . S
H699 C708 0.930 . S
H700 C713 0.929 . S
H701 C711 0.929 . S
H702 C706 0.929 . S
H703 C712 0.929 . S
C704 H698 0.930 . S
C704 C705 1.367 . S
C704 C712 1.378 . S
C705 C704 1.367 . S
C705 C713 1.433 . S
C706 H702 0.929 . S
C706 C708 1.378 . S
C706 C710 1.350 . S
C707 C710 1.463 . S
C707 C712 1.350 . S
C707 N715 1.427 . S
C708 H699 0.930 . S
C708 C706 1.378 . S
C708 C709 1.367 . S
C709 C708 1.367 . S
C709 C711 1.433 . S
C710 C706 1.350 . S
C710 C707 1.463 . S
C710 N714 1.427 . S
C711 H701 0.929 . S
C711 C709 1.433 . S
C711 N714 1.384 . S
C712 H703 0.929 . S
C712 C704 1.378 . S
C712 C707 1.350 . S
C713 H700 0.929 . S
C713 C705 1.433 . S
C713 N715 1.384 . S
N714 C710 1.427 . S
N714 C711 1.384 . S
N715 C707 1.427 . S
N715 C713 1.384 . S
H716 C722 0.930 . S
H717 C726 0.930 . S
H718 C731 0.929 . S
H719 C729 0.929 . S
H720 C724 0.929 . S
H721 C730 0.929 . S
C722 H716 0.930 . S
C722 C723 1.367 . S
C722 C730 1.378 . S
C723 C722 1.367 . S
C723 C731 1.433 . S
C724 H720 0.929 . S
C724 C726 1.378 . S
C724 C728 1.350 . S
C725 C728 1.463 . S
C725 C730 1.350 . S
C725 N733 1.427 . S
C726 H717 0.930 . S
C726 C724 1.378 . S
C726 C727 1.367 . S
C727 C726 1.367 . S
C727 C729 1.433 . S
C728 C724 1.350 . S
C728 C725 1.463 . S
C728 N732 1.427 . S
C729 H719 0.929 . S
C729 C727 1.433 . S
C729 N732 1.384 . S
C730 H721 0.929 . S
C730 C722 1.378 . S
C730 C725 1.350 . S
C731 H718 0.929 . S
C731 C723 1.433 . S
C731 N733 1.384 . S
N732 C728 1.427 . S
N732 C729 1.384 . S
N733 C725 1.427 . S
N733 C731 1.384 . S
H734 C740 0.930 . S
H735 C744 0.930 . S
H736 C749 0.929 . S
H737 C747 0.929 . S
H738 C742 0.929 . S
H739 C748 0.929 . S
C740 H734 0.930 . S
C740 C741 1.367 . S
C740 C748 1.378 . S
C741 C740 1.367 . S
C741 C749 1.433 . S
C742 H738 0.929 . S
C742 C744 1.378 . S
C742 C746 1.350 . S
C743 C746 1.463 . S
C743 C748 1.350 . S
C743 N751 1.427 . S
C744 H735 0.930 . S
C744 C742 1.378 . S
C744 C745 1.367 . S
C745 C744 1.367 . S
C745 C747 1.433 . S
C746 C742 1.350 . S
C746 C743 1.463 . S
C746 N750 1.427 . S
C747 H737 0.929 . S
C747 C745 1.433 . S
C747 N750 1.384 . S
C748 H739 0.929 . S
C748 C740 1.378 . S
C748 C743 1.350 . S
C749 H736 0.929 . S
C749 C741 1.433 . S
C749 N751 1.384 . S
N750 C746 1.427 . S
N750 C747 1.384 . S
N751 C743 1.427 . S
N751 C749 1.384 . S
C327 C15 0.646 . S
C331 C5 0.646 . S
C345 C45 0.681 . S
C349 C55 0.681 . S
C363 C89 5.021 . S
C367 C99 5.021 . S
C381 C129 5.022 . S
C385 C139 5.022 . S
C399 C175 0.686 . S
C403 C165 0.686 . S
C417 C215 0.662 . S
C421 C205 0.662 . S
C435 C249 5.022 . S
C439 C259 5.022 . S
C453 C299 5.022 . S
C457 C289 5.022 . S
C471 C49 4.823 1_455 S
C475 C9 4.807 1_655 S
C489 C135 0.671 . S
C493 C85 0.671 . S
C507 C169 4.810 . S
C511 C209 4.828 . S
C525 C245 0.683 . S
C529 C295 0.683 . S
C543 C19 4.320 . S
C547 C219 4.337 . S
C561 C179 4.317 . S
C565 C59 4.337 . S
C579 C95 0.445 . S
C583 C285 0.445 . S
C597 C125 0.459 . S
C601 C255 0.459 . S
C615 C8 1.544 . S
C619 C138 1.636 . S
C633 C48 1.546 . S
C637 C98 1.625 . S
C651 C58 1.610 . S
C655 C88 1.563 . S
C669 C128 1.563 . S
C673 C18 1.636 . S
C687 C168 1.545 . S
C691 C298 1.637 . S
C705 C208 1.551 . S
C709 C258 1.641 . S
C723 C218 1.600 . S
C727 C248 1.576 . S
C741 C288 1.558 . S
C745 C178 1.633 . S
