# Generated by pormake.
# Topology sma, (6)-cn, num edge types: 1
# Building blocks:
#     Node 0, Type 0, BuildingBlock: NUHQIS_clean_sbu_0, # of connection points: 6
#     Node 1, Type 0, BuildingBlock: NUHQIS_clean_sbu_0, # of connection points: 6
#     Node 2, Type 0, BuildingBlock: NUHQIS_clean_sbu_0, # of connection points: 6
#     Edge 3, Type (0, 0), BuildingBlock: EZIPEK_clean_linker_0, # of connection points: 2
#     Edge 4, Type (0, 0), BuildingBlock: EZIPEK_clean_linker_0, # of connection points: 2
#     Edge 5, Type (0, 0), BuildingBlock: EZIPEK_clean_linker_0, # of connection points: 2
#     Edge 6, Type (0, 0), BuildingBlock: EZIPEK_clean_linker_0, # of connection points: 2
#     Edge 7, Type (0, 0), BuildingBlock: EZIPEK_clean_linker_0, # of connection points: 2
#     Edge 8, Type (0, 0), BuildingBlock: EZIPEK_clean_linker_0, # of connection points: 2
#     Edge 9, Type (0, 0), BuildingBlock: EZIPEK_clean_linker_0, # of connection points: 2
#     Edge 10, Type (0, 0), BuildingBlock: EZIPEK_clean_linker_0, # of connection points: 2
#     Edge 11, Type (0, 0), BuildingBlock: EZIPEK_clean_linker_0, # of connection points: 2
# Relax obj value: 0.053
# Max RMSD: 0.165
# Mean RMSD: 0.160
data_MOF--net-sma--node1-NUHQIS_clean_sbu_0--edge1-EZIPEK_clean_linker_0
_symmetry_space_group_name_H-M    P1
_symmetry_Int_Tables_number       1
_symmetry_cell_setting            triclinic
loop_
_symmetry_equiv_pos_as_xyz
'x, y, z'
_cell_length_a     32.035365
_cell_length_b     32.252612
_cell_length_c     10.845626
_cell_angle_alpha  91.372493
_cell_angle_beta   93.572202
_cell_angle_gamma 120.93414
loop_
_atom_site_label
_atom_site_type_symbol
_atom_site_fract_x
_atom_site_fract_y
_atom_site_fract_z
_atom_type_partial_charge
Tb0 Tb 0.10938 0.53418 0.15777 0.0
Eu1 Eu 1.03158 0.57348 0.12934 0.0
C2 C 0.07251 0.56029 0.39257 0.0
C3 C 0.99478 0.46263 0.18958 0.0
C4 C 0.21156 0.51681 0.07887 0.0
C5 C 0.29233 0.57717 0.02317 0.0
C6 C 0.24886 0.56553 0.07465 0.0
C7 C 0.2175 0.48023 0.02609 0.0
C8 C 0.26075 0.49187 -0.02595 0.0
C9 C 0.29875 0.5403 -0.02567 0.0
C10 C 0.16675 0.50303 0.13985 0.0
O11 O 0.10562 0.56144 -0.01855 0.0
O12 O 1.02532 0.52991 -0.04185 0.0
O13 O 0.10756 0.63868 0.12481 0.0
O14 O 0.15656 0.61107 0.20638 0.0
C15 C 0.06514 0.53859 0.91031 0.0
O16 O 1.00825 0.61365 0.01383 0.0
O17 O 0.97411 0.58557 0.18374 0.0
O18 O 1.05794 0.58574 0.33062 0.0
O19 O 0.08835 0.53423 0.34166 0.0
O20 O 1.03728 0.46855 0.16455 0.0
O21 O 0.98504 0.49754 0.18591 0.0
C22 C 0.14965 0.64624 0.17414 0.0
O23 O 0.1702 0.53188 0.23168 0.0
O24 O 0.12712 0.48782 0.06639 0.0
C25 C 0.92658 0.59571 0.02148 0.0
C26 C 0.83805 0.58557 0.92392 0.0
C27 C 0.88194 0.61812 0.87497 0.0
C28 C 0.92589 0.62322 0.92361 0.0
C29 C 0.88214 0.56128 0.06596 0.0
C30 C 0.83819 0.55632 0.01749 0.0
C31 C 0.97408 0.6075 0.08401 0.0
H32 H 0.32149 0.61472 0.02477 0.0
H33 H 0.24489 0.59442 0.1137 0.0
H34 H 0.18905 0.44251 0.02777 0.0
H35 H 0.26532 0.46301 -0.06241 0.0
H36 H 0.88246 0.64131 0.8037 0.0
H37 H 0.95965 0.65026 0.88839 0.0
H38 H 0.88144 0.53962 0.14148 0.0
H39 H 0.80458 0.53132 0.05691 0.0
Tb40 Tb 0.63875 0.10987 0.53098 0.0
Eu41 Eu 0.51473 0.0409 0.49294 0.0
C42 C 0.57353 0.0798 0.75539 0.0
C43 C 0.5822 0.99525 0.54342 0.0
C44 C 0.76686 0.20402 0.48041 0.0
C45 C 0.8212 0.29159 0.48313 0.0
C46 C 0.78595 0.25059 0.53781 0.0
C47 C 0.78378 0.19955 0.36686 0.0
C48 C 0.81891 0.24054 0.31226 0.0
C49 C 0.83803 0.28678 0.37033 0.0
C50 C 0.73071 0.16014 0.53972 0.0
O51 O 0.61566 0.11784 0.34929 0.0
O52 O 0.5495 0.0414 0.32191 0.0
O53 O 0.5315 0.1176 0.51159 0.0
O54 O 0.61629 0.16325 0.53961 0.0
C55 C 0.58202 0.08164 0.27799 0.0
O56 O 0.44865 1.01661 0.3689 0.0
O57 O 0.44372 0.98783 0.55006 0.0
O58 O 0.53385 0.06984 0.68797 0.0
O59 O 0.61352 0.0864 0.71058 0.0
O60 O 0.61988 1.03426 0.50523 0.0
O61 O 0.54028 0.99194 0.55744 0.0
C62 C 0.57305 0.1592 0.5332 0.0
O63 O 0.70517 0.1655 0.6213 0.0
O64 O 0.70385 0.12124 0.4664 0.0
C65 C 0.38601 0.93457 0.38784 0.0
C66 C 0.31315 0.84082 0.29359 0.0
C67 C 0.32199 0.8813 0.22873 0.0
C68 C 0.35803 0.9279 0.27593 0.0
C69 C 0.37826 0.8936 0.44967 0.0
C70 C 0.342 0.84716 0.40303 0.0
C71 C 0.42066 0.98413 0.44296 0.0
H72 H 0.83604 0.32705 0.52985 0.0
H73 H 0.77413 0.25535 0.62569 0.0
H74 H 0.77034 0.16427 0.32067 0.0
H75 H 0.83195 0.23616 0.22597 0.0
H76 H 0.29973 0.87692 0.14442 0.0
H77 H 0.36312 0.9588 0.22674 0.0
H78 H 0.39919 0.89733 0.53592 0.0
H79 H 0.33544 0.81622 0.45425 0.0
Tb80 Tb 0.59269 0.63145 0.79165 0.0
Eu81 Eu 0.53952 0.5109 0.79179 0.0
C82 C 0.58439 0.58114 0.04176 0.0
C83 C 0.65706 0.58244 0.81266 0.0
C84 C 0.6153 0.75726 0.74637 0.0
C85 C 0.63631 0.8409 0.77214 0.0
C86 C 0.6469 0.80469 0.79509 0.0
C87 C 0.57362 0.74689 0.67063 0.0
C88 C 0.56314 0.78322 0.647 0.0
C89 C 0.59235 0.83066 0.70441 0.0
C90 C 0.62984 0.72104 0.76304 0.0
O91 O 0.60105 0.60119 0.62382 0.0
O92 O 0.52673 0.53273 0.60564 0.0
O93 O 0.4863 0.52904 0.86354 0.0
O94 O 0.51358 0.60162 0.77284 0.0
C95 C 0.56364 0.56734 0.55564 0.0
O96 O 0.49438 0.44114 0.68775 0.0
O97 O 0.52223 0.44346 0.87584 0.0
O98 O 0.57182 0.5396 -0.01559 0.0
O99 O 0.58437 0.61643 -0.01596 0.0
O100 O 0.65346 0.62071 0.83707 0.0
O101 O 0.61936 0.54005 0.77014 0.0
C102 C 0.48054 0.56477 0.83008 0.0
O103 O 0.62589 0.70305 0.87095 0.0
O104 O 0.61559 0.68796 0.6731 0.0
C105 C 0.51513 0.38269 0.73584 0.0
C106 C 0.54209 0.31632 0.65987 0.0
C107 C 0.5663 0.36352 0.61968 0.0
C108 C 0.55322 0.39668 0.65847 0.0
C109 C 0.49121 0.33562 0.77645 0.0
C110 C 0.50471 0.30267 0.73907 0.0
C111 C 0.49986 0.41662 0.77434 0.0
H112 H 0.66417 0.87729 0.80509 0.0
H113 H 0.68082 0.81422 0.84801 0.0
H114 H 0.5499 0.71101 0.62591 0.0
H115 H 0.53311 0.77329 0.57901 0.0
H116 H 0.59528 0.3746 0.55871 0.0
H117 H 0.57263 0.43309 0.62771 0.0
H118 H 0.46192 0.32429 0.83658 0.0
H119 H 0.48565 0.26633 0.77066 0.0
C120 C 0.35699 0.55707 0.81046 0.0
C121 C 0.34711 0.55153 -0.06329 0.0
C122 C 0.42853 0.56492 -0.00718 0.0
C123 C 0.43616 0.56426 0.86531 0.0
N124 N 0.4065 0.55597 0.65093 0.0
N125 N 0.3709 0.54504 0.14756 0.0
C126 C 0.40029 0.55986 0.77337 0.0
C127 C 0.38225 0.55421 0.02783 0.0
N128 N 0.32512 0.56003 0.72659 0.0
N129 N 0.46621 0.5776 0.08085 0.0
H130 H 0.33802 0.53862 0.17848 0.0
H131 H 0.39254 0.54028 0.21458 0.0
H132 H 0.50091 0.58682 0.05866 0.0
H133 H 0.46466 0.58385 0.17464 0.0
H134 H 0.33235 0.56895 0.63561 0.0
H135 H 0.29278 0.55724 0.75082 0.0
H136 H 0.37947 0.5474 0.5797 0.0
H137 H 0.43771 0.55801 0.62046 0.0
C138 C 0.86878 0.35153 0.21653 0.0
C139 C 0.87853 0.32989 0.31795 0.0
C140 C 0.96488 0.39405 0.3335 0.0
C141 C 0.95594 0.41459 0.22754 0.0
N142 N 0.9015 0.40672 0.05265 0.0
N143 N 0.93707 0.32397 0.45525 0.0
C144 C 0.90841 0.39149 0.16451 0.0
C145 C 0.92697 0.34916 0.37085 0.0
N146 N 0.82155 0.33478 0.17225 0.0
N147 N 1.00866 0.41839 0.40334 0.0
H148 H 0.9103 0.29116 0.48622 0.0
H149 H 0.97246 0.33329 0.48613 0.0
H150 H 1.03832 0.45033 0.37892 0.0
H151 H 1.01447 0.40873 0.4909 0.0
H152 H 0.81166 0.35233 0.10785 0.0
H153 H 0.79176 0.3052 0.20693 0.0
H154 H 0.86887 0.38852 -0.00376 0.0
H155 H 0.92991 0.43496 0.01034 0.0
C156 C 0.61745 0.95912 0.68826 0.0
C157 C 0.58664 0.9536 0.58109 0.0
C158 C 0.54417 0.86552 0.59393 0.0
C159 C 0.58142 0.87098 0.6826 0.0
N160 N 0.62383 0.92023 0.86973 0.0
N161 N 0.52233 0.90031 0.4256 0.0
C162 C 0.61031 0.91723 0.74646 0.0
C163 C 0.55061 0.90638 0.53187 0.0
N164 N 0.65303 1.00403 0.73667 0.0
N165 N 0.49896 0.82476 0.58806 0.0
H166 H 0.52661 0.92938 0.37588 0.0
H167 H 0.49817 0.86627 0.38154 0.0
H168 H 0.48969 0.79936 0.65493 0.0
H169 H 0.46917 0.8206 0.53222 0.0
H170 H 0.67916 1.00914 0.80732 0.0
H171 H 0.65894 1.03609 0.70094 0.0
H172 H 0.64055 0.95247 0.92512 0.0
H173 H 0.61197 0.88924 0.91914 0.0
C174 C 0.73391 0.60816 -0.04827 0.0
C175 C 0.70556 0.58688 0.83651 0.0
C176 C 0.76391 0.56333 0.77882 0.0
C177 C 0.79327 0.58711 0.89029 0.0
N178 N 0.81276 0.64244 0.06768 0.0
N179 N 0.70078 0.55561 0.6281 0.0
C180 C 0.78031 0.61279 -0.0282 0.0
C181 C 0.72259 0.56762 0.74636 0.0
N182 N 0.71578 0.62154 0.04553 0.0
N183 N 0.77492 0.53589 0.70524 0.0
H184 H 0.67228 0.56084 0.59885 0.0
H185 H 0.7143 0.54549 0.55577 0.0
H186 H 0.80546 0.53281 0.72522 0.0
H187 H 0.75186 0.51337 0.62996 0.0
H188 H 0.73237 0.63118 0.13567 0.0
H189 H 0.68193 0.61865 0.03832 0.0
H190 H 0.80759 0.66647 0.12105 0.0
H191 H 0.84707 0.64656 0.08677 0.0
C192 C 0.27648 0.7592 0.17891 0.0
C193 C 0.27062 0.7921 0.25431 0.0
C194 C 0.1861 0.72912 0.27974 0.0
C195 C 0.19083 0.69691 0.19817 0.0
N196 N 0.23721 0.68344 0.05246 0.0
N197 N 0.21813 0.81174 0.35913 0.0
C198 C 0.23518 0.71252 0.14281 0.0
C199 C 0.22479 0.7781 0.29885 0.0
N200 N 0.3217 0.77231 0.14385 0.0
N201 N 0.14585 0.71233 0.34491 0.0
H202 H 0.24603 0.84764 0.37952 0.0
H203 H 0.18405 0.80515 0.38024 0.0
H204 H 0.11678 0.67668 0.33537 0.0
H205 H 0.14304 0.73253 0.41675 0.0
H206 H 0.32967 0.74823 0.10118 0.0
H207 H 0.35226 0.80683 0.16464 0.0
H208 H 0.26687 0.69447 -5e-05 0.0
H209 H 0.20744 0.64945 0.02217 0.0
C210 C 0.52598 0.24636 0.51704 0.0
C211 C 0.5547 0.28032 0.61704 0.0
C212 C 0.59809 0.23724 0.65926 0.0
C213 C 0.5703 0.20363 0.55611 0.0
N214 N 0.51653 0.18423 0.36923 0.0
N215 N 0.62518 0.31522 0.7651 0.0
C216 C 0.53682 0.21059 0.47979 0.0
C217 C 0.59328 0.2782 0.6815 0.0
N218 N 0.48751 0.2476 0.45908 0.0
N219 N 0.62629 0.22856 0.74211 0.0
H220 H 0.6216 0.34478 0.78778 0.0
H221 H 0.65755 0.3188 0.80381 0.0
H222 H 0.62983 0.19832 0.73583 0.0
H223 H 0.64229 0.24871 0.826 0.0
H224 H 0.46118 0.22003 0.39702 0.0
H225 H 0.48003 0.27483 0.47877 0.0
H226 H 0.49656 0.19164 0.3034 0.0
H227 H 0.52329 0.15777 0.3372 0.0
C228 C 0.11177 0.55853 0.72128 0.0
C229 C 0.0663 0.5352 0.77393 0.0
C230 C 1.02377 0.52905 0.5733 0.0
C231 C 0.06981 0.55831 0.52632 0.0
N232 N 0.15751 0.60716 0.55804 0.0
N233 N 0.9802 0.47741 0.73526 0.0
C234 C 0.1138 0.57493 0.60123 0.0
C235 C 1.02228 0.51451 0.69596 0.0
N236 N 0.15177 0.56048 0.78017 0.0
N237 N 0.98165 0.51558 0.50134 0.0
H238 H 0.9799 0.46143 0.81794 0.0
H239 H 0.94747 0.45795 0.6797 0.0
H240 H 0.98129 0.5254 0.41074 0.0
H241 H 0.94724 0.49839 0.53459 0.0
H242 H 0.18501 0.57424 0.74151 0.0
H243 H 0.14949 0.54121 0.85779 0.0
H244 H 0.19046 0.62417 0.61343 0.0
H245 H 0.16001 0.62063 0.4705 0.0
C246 C 0.5867 0.04802 0.07788 0.0
C247 C 0.58346 0.08415 0.14512 0.0
C248 C 0.56876 0.11519 -0.04472 0.0
C249 C 0.57184 0.07878 0.88856 0.0
N250 N 0.56864 1.00245 0.88302 0.0
N251 N 0.58143 0.15818 0.15238 0.0
C252 C 0.57685 0.04298 -0.05125 0.0
C253 C 0.57733 0.11957 0.08544 0.0
N254 N 0.60175 1.02033 0.13715 0.0
N255 N 0.55547 0.14394 0.89479 0.0
H256 H 0.58762 0.16299 0.24821 0.0
H257 H 0.58303 0.18802 0.11306 0.0
H258 H 0.54851 0.14162 0.79912 0.0
H259 H 0.54712 0.16742 -0.06094 0.0
H260 H 0.60979 0.99695 0.09088 0.0
H261 H 0.61131 1.02444 0.23231 0.0
H262 H 0.56671 0.97263 0.92357 0.0
H263 H 0.55794 0.9962 0.78869 0.0
C264 C 0.57963 0.53809 0.36175 0.0
C265 C 0.56602 0.56815 0.42228 0.0
C266 C 0.58569 0.61904 0.24802 0.0
C267 C 0.5914 0.5847 0.17906 0.0
N268 N 0.61737 0.52657 0.18801 0.0
N269 N 0.54887 0.63265 0.41977 0.0
C270 C 0.59507 0.5482 0.24085 0.0
C271 C 0.56687 0.60727 0.36431 0.0
N272 N 0.57721 0.49977 0.41943 0.0
N273 N 0.60276 0.66451 0.20885 0.0
H274 H 0.53377 0.62412 0.50475 0.0
H275 H 0.54438 0.65863 0.37565 0.0
H276 H 0.62524 0.6775 0.13648 0.0
H277 H 0.60198 0.69175 0.26042 0.0
H278 H 0.58167 0.47336 0.37589 0.0
H279 H 0.56712 0.49223 0.50937 0.0
H280 H 0.62475 0.50237 0.23159 0.0
H281 H 0.6341 0.53739 0.1058 0.0
loop_
_geom_bond_atom_site_label_1
_geom_bond_atom_site_label_2
_geom_bond_distance
_geom_bond_site_symmetry_2
_ccdc_geom_bond_type
Tb0 C10 2.825 . S
Tb0 O11 2.347 . S
Tb0 O14 2.366 . S
Tb0 O19 2.418 . S
Tb0 O20 2.384 1_455 S
Tb0 O23 2.479 . S
Tb0 O24 2.471 . S
Eu1 O12 2.418 1_554 S
Eu1 O13 2.384 1_655 S
Eu1 O16 2.479 . S
Eu1 O17 2.471 . S
Eu1 O18 2.347 1_655 S
Eu1 O21 2.366 . S
Eu1 C31 2.825 . S
C2 O18 1.259 . S
C2 O19 1.265 . S
C3 O20 1.255 . S
C3 O21 1.265 . S
C4 C6 1.380 . S
C4 C7 1.374 . S
C4 C10 1.507 . S
C5 C6 1.384 . S
C5 C9 1.387 . S
C5 H32 0.930 . S
C6 C4 1.380 . S
C6 C5 1.384 . S
C6 H33 0.931 . S
C7 C4 1.374 . S
C7 C8 1.390 . S
C7 H34 0.930 1_554 S
C8 C7 1.390 . S
C8 C9 1.391 . S
C8 H35 0.930 1_554 S
C9 C5 1.387 . S
C9 C8 1.391 . S
C10 Tb0 2.825 . S
C10 C4 1.507 . S
C10 O23 1.238 . S
C10 O24 1.247 . S
O11 Tb0 2.347 . S
O11 C15 1.259 1_554 S
O12 Eu1 2.418 1_556 S
O12 C15 1.265 1_655 S
O13 Eu1 2.384 1_455 S
O13 C22 1.255 . S
O14 Tb0 2.366 . S
O14 C22 1.265 . S
C15 O11 1.259 1_556 S
C15 O12 1.265 1_455 S
O16 Eu1 2.479 . S
O16 C31 1.238 . S
O17 Eu1 2.471 . S
O17 C31 1.247 . S
O18 Eu1 2.347 1_455 S
O18 C2 1.259 . S
O19 Tb0 2.418 . S
O19 C2 1.265 . S
O20 Tb0 2.384 1_655 S
O20 C3 1.255 . S
O21 Eu1 2.366 . S
O21 C3 1.265 . S
C22 O13 1.255 . S
C22 O14 1.265 . S
O23 Tb0 2.479 . S
O23 C10 1.238 . S
O24 Tb0 2.471 . S
O24 C10 1.247 . S
C25 C28 1.380 . S
C25 C29 1.374 . S
C25 C31 1.507 . S
C26 C27 1.387 . S
C26 C30 1.391 . S
C27 C26 1.387 . S
C27 C28 1.384 . S
C27 H36 0.930 . S
C28 C25 1.380 . S
C28 C27 1.384 . S
C28 H37 0.931 1_554 S
C29 C25 1.374 . S
C29 C30 1.390 . S
C29 H38 0.930 . S
C30 C26 1.391 . S
C30 C29 1.390 . S
C30 H39 0.930 . S
C31 Eu1 2.825 . S
C31 O16 1.238 . S
C31 O17 1.247 . S
C31 C25 1.507 . S
H32 C5 0.930 . S
H33 C6 0.931 . S
H34 C7 0.930 1_556 S
H35 C8 0.930 1_556 S
H36 C27 0.930 . S
H37 C28 0.931 1_556 S
H38 C29 0.930 . S
H39 C30 0.930 . S
Tb40 C50 2.825 . S
Tb40 O51 2.347 . S
Tb40 O54 2.366 . S
Tb40 O59 2.418 . S
Tb40 O60 2.384 1_545 S
Tb40 O63 2.479 . S
Tb40 O64 2.471 . S
Eu41 O52 2.417 . S
Eu41 O53 2.384 1_565 S
Eu41 O56 2.479 . S
Eu41 O57 2.471 . S
Eu41 O58 2.347 1_565 S
Eu41 O61 2.366 . S
Eu41 C71 2.825 . S
C42 O58 1.259 . S
C42 O59 1.265 . S
C43 O60 1.255 . S
C43 O61 1.265 . S
C44 C46 1.380 . S
C44 C47 1.374 . S
C44 C50 1.507 . S
C45 C46 1.384 . S
C45 C49 1.387 . S
C45 H72 0.930 . S
C46 C44 1.380 . S
C46 C45 1.384 . S
C46 H73 0.931 . S
C47 C44 1.374 . S
C47 C48 1.390 . S
C47 H74 0.930 . S
C48 C47 1.390 . S
C48 C49 1.391 . S
C48 H75 0.930 . S
C49 C45 1.387 . S
C49 C48 1.391 . S
C50 Tb40 2.825 . S
C50 C44 1.507 . S
C50 O63 1.238 . S
C50 O64 1.247 . S
O51 Tb40 2.347 . S
O51 C55 1.259 . S
O52 Eu41 2.417 . S
O52 C55 1.263 1_565 S
O53 Eu41 2.384 1_545 S
O53 C62 1.255 . S
O54 Tb40 2.366 . S
O54 C62 1.265 . S
C55 O51 1.259 . S
C55 O52 1.263 1_545 S
O56 Eu41 2.479 . S
O56 C71 1.238 . S
O57 Eu41 2.471 . S
O57 C71 1.247 . S
O58 Eu41 2.347 1_545 S
O58 C42 1.259 . S
O59 Tb40 2.418 . S
O59 C42 1.265 . S
O60 Tb40 2.384 1_565 S
O60 C43 1.255 . S
O61 Eu41 2.366 . S
O61 C43 1.265 . S
C62 O53 1.255 . S
C62 O54 1.265 . S
O63 Tb40 2.479 . S
O63 C50 1.238 . S
O64 Tb40 2.471 . S
O64 C50 1.247 . S
C65 C68 1.380 . S
C65 C69 1.374 . S
C65 C71 1.507 . S
C66 C67 1.387 . S
C66 C70 1.391 . S
C67 C66 1.387 . S
C67 C68 1.384 . S
C67 H76 0.930 . S
C68 C65 1.380 . S
C68 C67 1.384 . S
C68 H77 0.931 . S
C69 C65 1.374 . S
C69 C70 1.390 . S
C69 H78 0.930 . S
C70 C66 1.391 . S
C70 C69 1.390 . S
C70 H79 0.930 . S
C71 Eu41 2.825 . S
C71 O56 1.238 . S
C71 O57 1.247 . S
C71 C65 1.507 . S
H72 C45 0.930 . S
H73 C46 0.931 . S
H74 C47 0.930 . S
H75 C48 0.930 . S
H76 C67 0.930 . S
H77 C68 0.931 . S
H78 C69 0.930 . S
H79 C70 0.930 . S
Tb80 C90 2.825 . S
Tb80 O91 2.347 . S
Tb80 O94 2.366 . S
Tb80 O99 2.418 1_556 S
Tb80 O100 2.384 . S
Tb80 O103 2.479 . S
Tb80 O104 2.471 . S
Eu81 O92 2.418 . S
Eu81 O93 2.384 . S
Eu81 O96 2.479 . S
Eu81 O97 2.471 . S
Eu81 O98 2.347 . S
Eu81 O101 2.366 . S
Eu81 C111 2.825 . S
C82 O98 1.259 1_554 S
C82 O99 1.265 . S
C83 O100 1.255 . S
C83 O101 1.265 . S
C84 C86 1.380 . S
C84 C87 1.374 . S
C84 C90 1.507 . S
C85 C86 1.384 . S
C85 C89 1.387 . S
C85 H112 0.930 . S
C86 C84 1.380 . S
C86 C85 1.384 . S
C86 H113 0.931 1_556 S
C87 C84 1.374 . S
C87 C88 1.390 . S
C87 H114 0.930 . S
C88 C87 1.390 . S
C88 C89 1.391 . S
C88 H115 0.930 . S
C89 C85 1.387 . S
C89 C88 1.391 . S
C90 Tb80 2.825 . S
C90 C84 1.507 . S
C90 O103 1.238 . S
C90 O104 1.247 . S
O91 Tb80 2.347 . S
O91 C95 1.259 . S
O92 Eu81 2.418 . S
O92 C95 1.265 . S
O93 Eu81 2.384 . S
O93 C102 1.255 . S
O94 Tb80 2.366 . S
O94 C102 1.265 . S
C95 O91 1.259 . S
C95 O92 1.265 . S
O96 Eu81 2.479 . S
O96 C111 1.238 . S
O97 Eu81 2.471 . S
O97 C111 1.247 . S
O98 Eu81 2.347 . S
O98 C82 1.259 1_556 S
O99 Tb80 2.418 1_554 S
O99 C82 1.265 . S
O100 Tb80 2.384 . S
O100 C83 1.255 . S
O101 Eu81 2.366 . S
O101 C83 1.265 . S
C102 O93 1.255 . S
C102 O94 1.265 . S
O103 Tb80 2.479 . S
O103 C90 1.238 . S
O104 Tb80 2.471 . S
O104 C90 1.247 . S
C105 C108 1.380 . S
C105 C109 1.374 . S
C105 C111 1.507 . S
C106 C107 1.387 . S
C106 C110 1.391 . S
C107 C106 1.387 . S
C107 C108 1.384 . S
C107 H116 0.930 . S
C108 C105 1.380 . S
C108 C107 1.384 . S
C108 H117 0.931 . S
C109 C105 1.374 . S
C109 C110 1.390 . S
C109 H118 0.930 1_556 S
C110 C106 1.391 . S
C110 C109 1.390 . S
C110 H119 0.930 1_556 S
C111 Eu81 2.825 . S
C111 O96 1.238 . S
C111 O97 1.247 . S
C111 C105 1.507 . S
H112 C85 0.930 . S
H113 C86 0.931 1_554 S
H114 C87 0.930 . S
H115 C88 0.930 . S
H116 C107 0.930 . S
H117 C108 0.931 . S
H118 C109 0.930 1_554 S
H119 C110 0.930 1_554 S
C120 C121 1.363 1_556 S
C120 C126 1.379 . S
C120 N128 1.356 . S
C121 C120 1.363 1_554 S
C121 C127 1.363 . S
C122 C123 1.363 . S
C122 C127 1.379 1_556 S
C122 N129 1.356 . S
C123 C122 1.363 . S
C123 C126 1.363 . S
N124 C126 1.356 . S
N124 H136 0.984 . S
N124 H137 0.985 . S
N125 C127 1.356 . S
N125 H130 0.984 . S
N125 H131 0.985 . S
C126 C120 1.379 . S
C126 C123 1.363 . S
C126 N124 1.356 . S
C127 C121 1.363 . S
C127 C122 1.379 1_554 S
C127 N125 1.356 . S
N128 C120 1.356 . S
N128 H134 0.984 . S
N128 H135 0.984 1_556 S
N129 C122 1.356 . S
N129 H132 0.984 . S
N129 H133 0.985 1_556 S
H130 N125 0.984 . S
H131 N125 0.985 . S
H132 N129 0.984 . S
H133 N129 0.985 1_554 S
H134 N128 0.984 . S
H135 N128 0.984 1_554 S
H136 N124 0.984 . S
H137 N124 0.985 . S
C138 C139 1.363 . S
C138 C144 1.379 . S
C138 N146 1.356 . S
C139 C138 1.363 . S
C139 C145 1.363 . S
C140 C141 1.363 . S
C140 C145 1.379 . S
C140 N147 1.356 . S
C141 C140 1.363 . S
C141 C144 1.363 . S
N142 C144 1.356 . S
N142 H154 0.984 . S
N142 H155 0.985 . S
N143 C145 1.356 . S
N143 H148 0.984 . S
N143 H149 0.985 . S
C144 C138 1.379 . S
C144 C141 1.363 . S
C144 N142 1.356 . S
C145 C139 1.363 . S
C145 C140 1.379 . S
C145 N143 1.356 . S
N146 C138 1.356 . S
N146 H152 0.984 . S
N146 H153 0.984 . S
N147 C140 1.356 . S
N147 H150 0.984 . S
N147 H151 0.985 . S
H148 N143 0.984 . S
H149 N143 0.985 . S
H150 N147 0.984 . S
H151 N147 0.985 . S
H152 N146 0.984 . S
H153 N146 0.984 . S
H154 N142 0.984 . S
H155 N142 0.985 . S
C156 C157 1.363 . S
C156 C162 1.379 . S
C156 N164 1.356 . S
C157 C156 1.363 . S
C157 C163 1.363 . S
C158 C159 1.363 . S
C158 C163 1.379 . S
C158 N165 1.356 . S
C159 C158 1.363 . S
C159 C162 1.363 . S
N160 C162 1.356 . S
N160 H172 0.984 . S
N160 H173 0.985 . S
N161 C163 1.356 . S
N161 H166 0.984 . S
N161 H167 0.985 . S
C162 C156 1.379 . S
C162 C159 1.363 . S
C162 N160 1.356 . S
C163 C157 1.363 . S
C163 C158 1.379 . S
C163 N161 1.356 . S
N164 C156 1.356 . S
N164 H170 0.984 . S
N164 H171 0.984 . S
N165 C158 1.356 . S
N165 H168 0.984 . S
N165 H169 0.985 . S
H166 N161 0.984 . S
H167 N161 0.985 . S
H168 N165 0.984 . S
H169 N165 0.985 . S
H170 N164 0.984 . S
H171 N164 0.984 . S
H172 N160 0.984 . S
H173 N160 0.985 . S
C174 C175 1.363 1_554 S
C174 C180 1.379 . S
C174 N182 1.356 . S
C175 C174 1.363 1_556 S
C175 C181 1.363 . S
C176 C177 1.363 1_556 S
C176 C181 1.379 . S
C176 N183 1.356 1_556 S
C177 C176 1.363 1_554 S
C177 C180 1.363 . S
N178 C180 1.356 . S
N178 H190 0.984 . S
N178 H191 0.985 . S
N179 C181 1.356 . S
N179 H184 0.984 . S
N179 H185 0.985 . S
C180 C174 1.379 . S
C180 C177 1.363 . S
C180 N178 1.356 . S
C181 C175 1.363 . S
C181 C176 1.379 . S
C181 N179 1.356 . S
N182 C174 1.356 . S
N182 H188 0.984 . S
N182 H189 0.984 1_554 S
N183 C176 1.356 1_554 S
N183 H186 0.984 . S
N183 H187 0.985 1_554 S
H184 N179 0.984 . S
H185 N179 0.985 . S
H186 N183 0.984 . S
H187 N183 0.985 1_556 S
H188 N182 0.984 . S
H189 N182 0.984 1_556 S
H190 N178 0.984 . S
H191 N178 0.985 . S
C192 C193 1.363 . S
C192 C198 1.379 . S
C192 N200 1.356 . S
C193 C192 1.363 . S
C193 C199 1.363 . S
C194 C195 1.363 . S
C194 C199 1.379 . S
C194 N201 1.356 . S
C195 C194 1.363 . S
C195 C198 1.363 . S
N196 C198 1.356 . S
N196 H208 0.984 . S
N196 H209 0.985 . S
N197 C199 1.356 . S
N197 H202 0.984 . S
N197 H203 0.985 . S
C198 C192 1.379 . S
C198 C195 1.363 . S
C198 N196 1.356 . S
C199 C193 1.363 . S
C199 C194 1.379 . S
C199 N197 1.356 . S
N200 C192 1.356 . S
N200 H206 0.984 . S
N200 H207 0.984 . S
N201 C194 1.356 . S
N201 H204 0.984 . S
N201 H205 0.985 . S
H202 N197 0.984 . S
H203 N197 0.985 . S
H204 N201 0.984 . S
H205 N201 0.985 . S
H206 N200 0.984 . S
H207 N200 0.984 . S
H208 N196 0.984 . S
H209 N196 0.985 . S
C210 C211 1.363 . S
C210 C216 1.379 . S
C210 N218 1.356 . S
C211 C210 1.363 . S
C211 C217 1.363 . S
C212 C213 1.363 . S
C212 C217 1.379 . S
C212 N219 1.356 . S
C213 C212 1.363 . S
C213 C216 1.363 . S
N214 C216 1.356 . S
N214 H226 0.984 . S
N214 H227 0.985 . S
N215 C217 1.356 . S
N215 H220 0.984 . S
N215 H221 0.985 . S
C216 C210 1.379 . S
C216 C213 1.363 . S
C216 N214 1.356 . S
C217 C211 1.363 . S
C217 C212 1.379 . S
C217 N215 1.356 . S
N218 C210 1.356 . S
N218 H224 0.984 . S
N218 H225 0.984 . S
N219 C212 1.356 . S
N219 H222 0.984 . S
N219 H223 0.985 . S
H220 N215 0.984 . S
H221 N215 0.985 . S
H222 N219 0.984 . S
H223 N219 0.985 . S
H224 N218 0.984 . S
H225 N218 0.984 . S
H226 N214 0.984 . S
H227 N214 0.985 . S
C228 C229 1.363 . S
C228 C234 1.379 . S
C228 N236 1.356 . S
C229 C228 1.363 . S
C229 C235 1.363 . S
C230 C231 1.363 . S
C230 C235 1.379 . S
C230 N237 1.356 . S
C231 C230 1.363 . S
C231 C234 1.363 . S
N232 C234 1.356 . S
N232 H244 0.984 . S
N232 H245 0.985 . S
N233 C235 1.360 . S
N233 H238 0.986 . S
N233 H239 0.979 1_455 S
C234 C228 1.379 . S
C234 C231 1.363 . S
C234 N232 1.356 . S
C235 C229 1.363 . S
C235 C230 1.379 . S
C235 N233 1.360 . S
N236 C228 1.356 . S
N236 H242 0.984 . S
N236 H243 0.984 . S
N237 C230 1.356 . S
N237 H240 0.984 . S
N237 H241 0.985 1_455 S
H238 N233 0.986 . S
H239 N233 0.979 1_655 S
H240 N237 0.984 . S
H241 N237 0.985 1_655 S
H242 N236 0.984 . S
H243 N236 0.984 . S
H244 N232 0.984 . S
H245 N232 0.985 . S
C246 C247 1.363 1_565 S
C246 C252 1.379 1_554 S
C246 N254 1.356 . S
C247 C246 1.363 1_545 S
C247 C253 1.363 . S
C248 C249 1.363 . S
C248 C253 1.379 1_556 S
C248 N255 1.356 . S
C249 C248 1.363 . S
C249 C252 1.363 1_545 S
N250 C252 1.356 . S
N250 H262 0.984 . S
N250 H263 0.985 . S
N251 C253 1.356 . S
N251 H256 0.984 . S
N251 H257 0.985 . S
C252 C246 1.379 1_556 S
C252 C249 1.363 1_565 S
C252 N250 1.356 . S
C253 C247 1.363 . S
C253 C248 1.379 1_554 S
C253 N251 1.356 . S
N254 C246 1.356 . S
N254 H260 0.984 . S
N254 H261 0.984 . S
N255 C248 1.356 . S
N255 H258 0.984 . S
N255 H259 0.985 . S
H256 N251 0.984 . S
H257 N251 0.985 . S
H258 N255 0.984 . S
H259 N255 0.985 . S
H260 N254 0.984 . S
H261 N254 0.984 . S
H262 N250 0.984 . S
H263 N250 0.985 . S
C264 C265 1.363 . S
C264 C270 1.379 . S
C264 N272 1.356 . S
C265 C264 1.363 . S
C265 C271 1.363 . S
C266 C267 1.363 . S
C266 C271 1.379 . S
C266 N273 1.356 . S
C267 C266 1.363 . S
C267 C270 1.363 . S
N268 C270 1.356 . S
N268 H280 0.984 . S
N268 H281 0.985 . S
N269 C271 1.356 . S
N269 H274 0.984 . S
N269 H275 0.985 . S
C270 C264 1.379 . S
C270 C267 1.363 . S
C270 N268 1.356 . S
C271 C265 1.363 . S
C271 C266 1.379 . S
C271 N269 1.356 . S
N272 C264 1.356 . S
N272 H278 0.984 . S
N272 H279 0.984 . S
N273 C266 1.356 . S
N273 H276 0.984 . S
N273 H277 0.985 . S
H274 N269 0.984 . S
H275 N269 0.985 . S
H276 N273 0.984 . S
H277 N273 0.985 . S
H278 N272 0.984 . S
H279 N272 0.984 . S
H280 N268 0.984 . S
H281 N268 0.985 . S
C121 C9 1.895 . S
C123 C102 1.881 . S
C139 C49 2.014 . S
C141 C3 1.989 . S
C157 C43 1.915 . S
C159 C89 1.927 . S
C175 C83 2.111 . S
C177 C26 2.041 . S
C193 C66 1.911 . S
C195 C22 1.977 . S
C211 C106 2.001 . S
C213 C62 2.061 . S
C229 C15 0.774 . S
C231 C2 0.774 . S
C247 C55 0.764 . S
C249 C42 0.764 . S
C265 C95 0.770 . S
C267 C82 0.770 . S
