# Generated by pormake.
# Topology uot, (4)-cn, num edge types: 1
# Building blocks:
#     Node 0, Type 0, BuildingBlock: ESEHIV_clean_sbu_0, # of connection points: 4
#     Node 1, Type 0, BuildingBlock: ESEHIV_clean_sbu_0, # of connection points: 4
#     Node 2, Type 0, BuildingBlock: ESEHIV_clean_sbu_0, # of connection points: 4
#     Node 3, Type 0, BuildingBlock: ESEHIV_clean_sbu_0, # of connection points: 4
#     Node 4, Type 0, BuildingBlock: ESEHIV_clean_sbu_0, # of connection points: 4
#     Node 5, Type 0, BuildingBlock: ESEHIV_clean_sbu_0, # of connection points: 4
#     Node 6, Type 0, BuildingBlock: ESEHIV_clean_sbu_0, # of connection points: 4
#     Node 7, Type 0, BuildingBlock: ESEHIV_clean_sbu_0, # of connection points: 4
#     Node 8, Type 0, BuildingBlock: ESEHIV_clean_sbu_0, # of connection points: 4
#     Node 9, Type 0, BuildingBlock: ESEHIV_clean_sbu_0, # of connection points: 4
#     Node 10, Type 0, BuildingBlock: ESEHIV_clean_sbu_0, # of connection points: 4
#     Node 11, Type 0, BuildingBlock: ESEHIV_clean_sbu_0, # of connection points: 4
#     Node 12, Type 0, BuildingBlock: ESEHIV_clean_sbu_0, # of connection points: 4
#     Node 13, Type 0, BuildingBlock: ESEHIV_clean_sbu_0, # of connection points: 4
#     Node 14, Type 0, BuildingBlock: ESEHIV_clean_sbu_0, # of connection points: 4
#     Node 15, Type 0, BuildingBlock: ESEHIV_clean_sbu_0, # of connection points: 4
#     Edge 16, Type (0, 0), BuildingBlock: EZIPEK_clean_linker_0, # of connection points: 2
#     Edge 17, Type (0, 0), BuildingBlock: EZIPEK_clean_linker_0, # of connection points: 2
#     Edge 18, Type (0, 0), BuildingBlock: EZIPEK_clean_linker_0, # of connection points: 2
#     Edge 19, Type (0, 0), BuildingBlock: EZIPEK_clean_linker_0, # of connection points: 2
#     Edge 20, Type (0, 0), BuildingBlock: EZIPEK_clean_linker_0, # of connection points: 2
#     Edge 21, Type (0, 0), BuildingBlock: EZIPEK_clean_linker_0, # of connection points: 2
#     Edge 22, Type (0, 0), BuildingBlock: EZIPEK_clean_linker_0, # of connection points: 2
#     Edge 23, Type (0, 0), BuildingBlock: EZIPEK_clean_linker_0, # of connection points: 2
#     Edge 24, Type (0, 0), BuildingBlock: EZIPEK_clean_linker_0, # of connection points: 2
#     Edge 25, Type (0, 0), BuildingBlock: EZIPEK_clean_linker_0, # of connection points: 2
#     Edge 26, Type (0, 0), BuildingBlock: EZIPEK_clean_linker_0, # of connection points: 2
#     Edge 27, Type (0, 0), BuildingBlock: EZIPEK_clean_linker_0, # of connection points: 2
#     Edge 28, Type (0, 0), BuildingBlock: EZIPEK_clean_linker_0, # of connection points: 2
#     Edge 29, Type (0, 0), BuildingBlock: EZIPEK_clean_linker_0, # of connection points: 2
#     Edge 30, Type (0, 0), BuildingBlock: EZIPEK_clean_linker_0, # of connection points: 2
#     Edge 31, Type (0, 0), BuildingBlock: EZIPEK_clean_linker_0, # of connection points: 2
#     Edge 32, Type (0, 0), BuildingBlock: EZIPEK_clean_linker_0, # of connection points: 2
#     Edge 33, Type (0, 0), BuildingBlock: EZIPEK_clean_linker_0, # of connection points: 2
#     Edge 34, Type (0, 0), BuildingBlock: EZIPEK_clean_linker_0, # of connection points: 2
#     Edge 35, Type (0, 0), BuildingBlock: EZIPEK_clean_linker_0, # of connection points: 2
#     Edge 36, Type (0, 0), BuildingBlock: EZIPEK_clean_linker_0, # of connection points: 2
#     Edge 37, Type (0, 0), BuildingBlock: EZIPEK_clean_linker_0, # of connection points: 2
#     Edge 38, Type (0, 0), BuildingBlock: EZIPEK_clean_linker_0, # of connection points: 2
#     Edge 39, Type (0, 0), BuildingBlock: EZIPEK_clean_linker_0, # of connection points: 2
#     Edge 40, Type (0, 0), BuildingBlock: EZIPEK_clean_linker_0, # of connection points: 2
#     Edge 41, Type (0, 0), BuildingBlock: EZIPEK_clean_linker_0, # of connection points: 2
#     Edge 42, Type (0, 0), BuildingBlock: EZIPEK_clean_linker_0, # of connection points: 2
#     Edge 43, Type (0, 0), BuildingBlock: EZIPEK_clean_linker_0, # of connection points: 2
#     Edge 44, Type (0, 0), BuildingBlock: EZIPEK_clean_linker_0, # of connection points: 2
#     Edge 45, Type (0, 0), BuildingBlock: EZIPEK_clean_linker_0, # of connection points: 2
#     Edge 46, Type (0, 0), BuildingBlock: EZIPEK_clean_linker_0, # of connection points: 2
#     Edge 47, Type (0, 0), BuildingBlock: EZIPEK_clean_linker_0, # of connection points: 2
# Relax obj value: 0.097
# Max RMSD: 0.251
# Mean RMSD: 0.251
data_MOF--net-uot--node1-ESEHIV_clean_sbu_0--edge1-EZIPEK_clean_linker_0
_symmetry_space_group_name_H-M    P1
_symmetry_Int_Tables_number       1
_symmetry_cell_setting            triclinic
loop_
_symmetry_equiv_pos_as_xyz
'x, y, z'
_cell_length_a     36.938613
_cell_length_b     36.951754
_cell_length_c     34.161444
_cell_angle_alpha  89.959189
_cell_angle_beta   90.005882
_cell_angle_gamma 90.05399
loop_
_atom_site_label
_atom_site_type_symbol
_atom_site_fract_x
_atom_site_fract_y
_atom_site_fract_z
_atom_type_partial_charge
Cu0 Cu 0.19445 0.46766 0.37188 0.0
N1 N 0.1984 0.50423 0.33435 0.0
N2 N 0.18267 0.54581 0.29026 0.0
C3 C 0.17083 0.52255 0.31785 0.0
C4 C 0.21891 0.54217 0.28918 0.0
C5 C 0.22857 0.51632 0.31638 0.0
O6 O 0.15732 0.43456 0.3532 0.0
C7 C 0.18915 0.47353 0.4542 0.0
O8 O 0.2032 0.4409 0.45341 0.0
H9 H 0.14266 0.51861 0.3255 0.0
H10 H 0.25565 0.50664 0.32212 0.0
N11 N 0.23931 0.44465 0.37713 0.0
N12 N 0.28348 0.40374 0.3815 0.0
C13 C 0.24809 0.40934 0.37359 0.0
C14 C 0.2701 0.46154 0.38772 0.0
C15 C 0.29742 0.43639 0.39031 0.0
C16 C 0.16226 0.41912 0.32033 0.0
O17 O 0.19309 0.42406 0.30188 0.0
H18 H 0.22903 0.3882 0.36605 0.0
H19 H 0.27233 0.4902 0.39363 0.0
O20 O 0.18196 0.48957 0.42212 0.0
H21 H 0.23689 0.55688 0.26984 0.0
H22 H 0.32529 0.44149 0.39844 0.0
Cu23 Cu 0.46646 0.82304 0.65231 0.0
N24 N 0.51127 0.82309 0.67795 0.0
N25 N 0.557 0.83968 0.71663 0.0
C26 C 0.52184 0.84482 0.70751 0.0
C27 C 0.56902 0.81366 0.69241 0.0
C28 C 0.54075 0.80343 0.6686 0.0
O29 O 0.43491 0.85722 0.67946 0.0
C30 C 0.49024 0.81204 0.57499 0.0
O31 O 0.49718 0.77962 0.58875 0.0
H32 H 0.50457 0.86465 0.72128 0.0
H33 H 0.542 0.78358 0.64548 0.0
N34 N 0.44589 0.77676 0.65647 0.0
N35 N 0.40597 0.73148 0.66092 0.0
C36 C 0.41072 0.76709 0.65334 0.0
C37 C 0.46362 0.74619 0.66616 0.0
C38 C 0.43911 0.71826 0.66881 0.0
C39 C 0.43716 0.89153 0.67689 0.0
O40 O 0.46013 0.90621 0.65218 0.0
H41 H 0.38903 0.7858 0.64676 0.0
H42 H 0.49234 0.74439 0.67174 0.0
O43 O 0.4754 0.83543 0.59728 0.0
H44 H 0.59653 0.80364 0.69132 0.0
H45 H 0.44494 0.69049 0.67672 0.0
Cu46 Cu 0.82353 0.55966 0.36168 0.0
N47 N 0.82296 0.51352 0.33914 0.0
N48 N 0.84067 0.46407 0.30696 0.0
C49 C 0.84621 0.49977 0.31263 0.0
C50 C 0.81291 0.4549 0.33051 0.0
C51 C 0.80204 0.4855 0.35038 0.0
O52 O 0.8601 0.58878 0.33507 0.0
C53 C 0.85667 0.53179 0.43002 0.0
O54 O 0.87967 0.51765 0.40501 0.0
H55 H 0.86776 0.51505 0.29911 0.0
H56 H 0.78142 0.48695 0.3728 0.0
N57 N 0.77829 0.58163 0.35433 0.0
N58 N 0.73375 0.62248 0.35136 0.0
C59 C 0.76823 0.61593 0.36264 0.0
C60 C 0.74914 0.5662 0.33752 0.0
C61 C 0.72165 0.5913 0.3357 0.0
C62 C 0.88812 0.60315 0.35023 0.0
O63 O 0.89498 0.59869 0.38763 0.0
H64 H 0.78594 0.63585 0.37582 0.0
H65 H 0.74812 0.53875 0.32666 0.0
O66 O 0.83189 0.55281 0.41754 0.0
H67 H 0.80245 0.42775 0.33433 0.0
H68 H 0.69499 0.58726 0.32326 0.0
Cu69 Cu 0.57021 0.19204 0.67364 0.0
N70 N 0.52574 0.18956 0.69908 0.0
N71 N 0.4813 0.17025 0.7379 0.0
C72 C 0.51684 0.1679 0.72928 0.0
C73 C 0.46728 0.19427 0.71238 0.0
C74 C 0.49486 0.20619 0.6884 0.0
O75 O 0.60015 0.15338 0.69485 0.0
C76 C 0.54468 0.15824 0.60494 0.0
O77 O 0.53791 0.13109 0.6287 0.0
H78 H 0.53553 0.14957 0.74348 0.0
H79 H 0.49242 0.2247 0.66401 0.0
N80 N 0.59075 0.23755 0.68278 0.0
N81 N 0.62804 0.28506 0.68324 0.0
C82 C 0.62268 0.25098 0.67015 0.0
C83 C 0.57577 0.26396 0.70454 0.0
C84 C 0.59874 0.29331 0.70489 0.0
C85 C 0.61952 0.1585 0.7252 0.0
O86 O 0.62173 0.19108 0.74034 0.0
H87 H 0.64154 0.23621 0.65193 0.0
H88 H 0.54994 0.26191 0.71928 0.0
O89 O 0.56052 0.18632 0.61809 0.0
H90 H 0.43898 0.20167 0.71052 0.0
H91 H 0.59442 0.31874 0.71988 0.0
Cu92 Cu 0.20121 0.57038 0.67893 0.0
N93 N 0.20121 0.52622 0.70594 0.0
N94 N 0.18439 0.47902 0.74242 0.0
C95 C 0.17446 0.5113 0.72747 0.0
C96 C 0.21845 0.47317 0.72994 0.0
C97 C 0.22871 0.50231 0.70725 0.0
O98 O 0.16398 0.60174 0.70046 0.0
C99 C 0.17759 0.5344 0.60991 0.0
O100 O 0.1585 0.51455 0.63422 0.0
H101 H 0.14821 0.52349 0.73195 0.0
H102 H 0.2544 0.50582 0.69252 0.0
N103 N 0.24561 0.59332 0.6881 0.0
N104 N 0.29249 0.63142 0.6852 0.0
C105 C 0.26084 0.62129 0.66864 0.0
C106 C 0.26823 0.58604 0.71799 0.0
C107 C 0.2972 0.60942 0.71621 0.0
C108 C 0.13013 0.5955 0.69959 0.0
O109 O 0.11767 0.56736 0.68039 0.0
H110 H 0.24886 0.63423 0.64333 0.0
H111 H 0.26361 0.56557 0.74007 0.0
O112 O 0.1962 0.56085 0.62297 0.0
H113 H 0.23438 0.4493 0.73629 0.0
H114 H 0.31975 0.61065 0.73642 0.0
Cu115 Cu 0.5753 0.83081 0.3437 0.0
N116 N 0.53193 0.83138 0.31505 0.0
N117 N 0.48513 0.85001 0.27906 0.0
C118 C 0.51543 0.86 0.29825 0.0
C119 C 0.48218 0.814 0.28382 0.0
C120 C 0.51109 0.80256 0.3061 0.0
O121 O 0.60628 0.8693 0.32379 0.0
C122 C 0.5391 0.81787 0.41504 0.0
O123 O 0.52185 0.79377 0.39386 0.0
H124 H 0.5254 0.88749 0.29964 0.0
H125 H 0.51668 0.77503 0.31498 0.0
N126 N 0.59911 0.78688 0.33383 0.0
N127 N 0.63671 0.73951 0.33571 0.0
C128 C 0.62445 0.76907 0.35496 0.0
C129 C 0.59588 0.7681 0.30023 0.0
C130 C 0.61885 0.73888 0.30138 0.0
C131 C 0.60031 0.90286 0.32897 0.0
O132 O 0.57326 0.91311 0.35131 0.0
H133 H 0.63428 0.77795 0.38322 0.0
H134 H 0.57872 0.77577 0.27597 0.0
O135 O 0.56408 0.83679 0.39932 0.0
H136 H 0.46074 0.79731 0.27193 0.0
H137 H 0.6229 0.71912 0.27841 0.0
Cu138 Cu 0.82482 0.45469 0.66044 0.0
N139 N 0.82557 0.49886 0.68731 0.0
N140 N 0.84096 0.54362 0.72778 0.0
C141 C 0.84573 0.5085 0.71852 0.0
C142 C 0.81707 0.55676 0.70163 0.0
C143 C 0.80762 0.52904 0.67668 0.0
O144 O 0.85806 0.42046 0.68505 0.0
C145 C 0.85718 0.48864 0.59396 0.0
O146 O 0.8771 0.50581 0.61984 0.0
H147 H 0.86458 0.49082 0.73328 0.0
H148 H 0.79 0.53109 0.6515 0.0
N149 N 0.77804 0.43543 0.66353 0.0
N150 N 0.7316 0.39687 0.66699 0.0
C151 C 0.76796 0.40032 0.66502 0.0
C152 C 0.74698 0.45449 0.66435 0.0
C153 C 0.7183 0.43077 0.66649 0.0
C154 C 0.89116 0.42728 0.69241 0.0
O155 O 0.90565 0.45767 0.68009 0.0
H156 H 0.78674 0.37785 0.66475 0.0
H157 H 0.74522 0.48365 0.66338 0.0
O158 O 0.83506 0.46432 0.60535 0.0
H159 H 0.80839 0.58468 0.69981 0.0
H160 H 0.68985 0.43773 0.66759 0.0
Cu161 Cu 0.44627 0.20026 0.38843 0.0
N162 N 0.48695 0.21023 0.35777 0.0
N163 N 0.53448 0.2031 0.31833 0.0
C164 C 0.50441 0.18766 0.33325 0.0
C165 C 0.53609 0.23659 0.33374 0.0
C166 C 0.50662 0.24094 0.35807 0.0
O167 O 0.41426 0.16752 0.36012 0.0
C168 C 0.4906 0.16392 0.4453 0.0
O169 O 0.50885 0.15115 0.41539 0.0
H170 H 0.49616 0.16007 0.32757 0.0
H171 H 0.50052 0.26447 0.37567 0.0
N172 N 0.42233 0.24373 0.39835 0.0
N173 N 0.38357 0.28994 0.39824 0.0
C174 C 0.39193 0.25755 0.3823 0.0
C175 C 0.43312 0.26806 0.42524 0.0
C176 C 0.40926 0.29662 0.42524 0.0
C177 C 0.42119 0.13419 0.35454 0.0
O178 O 0.44999 0.11964 0.37063 0.0
H179 H 0.37637 0.24434 0.35957 0.0
H180 H 0.45679 0.2651 0.44361 0.0
O181 O 0.46214 0.18258 0.43944 0.0
H182 H 0.5576 0.25594 0.32866 0.0
H183 H 0.41056 0.32048 0.44356 0.0
Cu184 Cu 0.68749 0.95328 0.87756 0.0
N185 N 0.69709 0.99312 0.84557 0.0
N186 N 0.68842 0.04138 0.80757 0.0
C187 C 0.67248 0.01516 0.82896 0.0
C188 C 0.72434 0.03577 0.81076 0.0
C189 C 0.72963 1.00579 0.83418 0.0
O190 O 0.65223 0.9231 0.85103 0.0
C191 C 0.68199 0.99799 0.94371 0.0
O192 O 0.70616 0.01724 0.92469 0.0
H193 H 0.64352 0.01225 0.8327 0.0
H194 H 0.75534 0.99412 0.84252 0.0
N195 N 0.73037 0.92796 0.88726 0.0
N196 N 0.77541 0.88782 0.88662 0.0
C197 C 0.74325 0.89733 0.87083 0.0
C198 C 0.75521 0.93775 0.91411 0.0
C199 C 0.78299 0.91303 0.91379 0.0
C200 C 0.65656 0.91632 0.81483 0.0
O201 O 0.68549 0.9285 0.79672 0.0
H202 H 0.72953 0.88238 0.84798 0.0
H203 H 0.75324 0.9613 0.93273 0.0
O204 O 0.66876 0.96977 0.92779 0.0
H205 H 0.74511 0.05227 0.79725 0.0
H206 H 0.807 0.91347 0.93197 0.0
Cu207 Cu 0.96706 0.3222 0.1692 0.0
N208 N 1.00796 0.31883 0.20129 0.0
N209 N 0.05452 0.33504 0.23911 0.0
C210 C 0.0255 0.34653 0.21857 0.0
C211 C 0.05528 0.2988 0.23472 0.0
C212 C 0.02635 0.28883 0.21154 0.0
O213 O 0.93616 0.36017 0.19016 0.0
C214 C 1.00867 0.31693 0.09971 0.0
O215 O 0.02898 0.29565 0.12125 0.0
H216 H 0.01756 0.37459 0.21564 0.0
H217 H 0.01947 0.26169 0.20236 0.0
N218 N 0.94194 0.27813 0.16845 0.0
N219 N 0.89714 0.23738 0.16917 0.0
C220 C 0.90772 0.27095 0.18008 0.0
C221 C 0.95332 0.24793 0.15022 0.0
C222 C 0.92581 0.22281 0.1506 0.0
C223 C 0.92676 0.35854 0.22598 0.0
O224 O 0.93753 0.33105 0.24742 0.0
H225 H 0.89029 0.29042 0.19432 0.0
H226 H 0.97932 0.24491 0.13611 0.0
O227 O 0.98157 0.33278 0.11524 0.0
H228 H 0.07548 0.28097 0.24719 0.0
H229 H 0.92627 0.19631 0.1371 0.0
Cu230 Cu 0.32545 0.05514 0.858 0.0
N231 N 0.33048 1.01105 0.83132 0.0
N232 N 0.35145 0.96925 0.78979 0.0
C233 C 0.35129 1.00465 0.79959 0.0
C234 C 0.32969 0.95274 0.81595 0.0
C235 C 0.31672 0.97861 0.84148 0.0
O236 O 0.36048 0.08819 0.83555 0.0
C237 C 0.30978 0.0342 0.9357 0.0
O238 O 0.2784 0.02539 0.92032 0.0
H239 H 0.36676 0.02528 0.78458 0.0
H240 H 0.29915 0.97394 0.86626 0.0
N241 N 0.27902 0.0742 0.84999 0.0
N242 N 0.23169 0.11177 0.84835 0.0
C243 C 0.26636 0.10723 0.85996 0.0
C244 C 0.2514 0.05755 0.8316 0.0
C245 C 0.22216 0.08069 0.83055 0.0
C246 C 0.3942 0.08573 0.84248 0.0
O247 O 0.40603 0.06204 0.86814 0.0
H248 H 0.28224 0.12759 0.87494 0.0
H249 H 0.25259 0.03054 0.8195 0.0
O250 O 0.33428 0.0477 0.91387 0.0
H251 H 0.32439 0.92394 0.81704 0.0
H252 H 0.19599 0.07531 0.8175 0.0
Cu253 Cu 0.06092 0.70401 0.17129 0.0
N254 N 0.01906 0.70466 0.20259 0.0
N255 N 0.97612 0.68702 0.24466 0.0
C256 C 1.00833 0.67897 0.2282 0.0
C257 C 0.96615 0.71901 0.22913 0.0
C258 C 0.99278 0.72993 0.20341 0.0
O259 O 0.09621 0.67275 0.19636 0.0
C260 C 0.02439 0.70105 0.09865 0.0
O261 O 1.00517 0.72705 0.11445 0.0
H262 H 0.02329 0.65446 0.23418 0.0
H263 H 0.99261 0.75445 0.18621 0.0
N264 N 0.08074 0.7507 0.16721 0.0
N265 N 0.11983 0.79687 0.16747 0.0
C266 C 0.11494 0.76137 0.17535 0.0
C267 C 0.06385 0.78057 0.15384 0.0
C268 C 0.08788 0.80904 0.15399 0.0
C269 C 0.09216 0.63857 0.19723 0.0
O270 O 0.06472 0.62374 0.17875 0.0
H271 H 0.13583 0.74354 0.18636 0.0
H272 H 0.03606 0.78175 0.14425 0.0
O273 O 0.04929 0.68612 0.1188 0.0
H274 H 0.94131 0.73324 0.2358 0.0
H275 H 0.08248 0.83654 0.14473 0.0
Cu276 Cu 0.6772 0.09447 0.16701 0.0
N277 N 0.68835 0.05738 0.20207 0.0
N278 N 0.67939 1.01137 0.24321 0.0
C279 C 0.66377 0.03534 0.21879 0.0
C280 C 0.7152 0.01836 0.24189 0.0
C281 C 0.72068 0.04697 0.21642 0.0
O282 O 0.63979 0.1235 0.19134 0.0
C283 C 0.67976 0.05132 0.10046 0.0
O284 O 0.71138 0.04317 0.11571 0.0
H285 H 0.63496 0.03683 0.21317 0.0
H286 H 0.74632 0.05929 0.20887 0.0
N287 N 0.71785 0.12274 0.15398 0.0
N288 N 0.76724 0.15781 0.15494 0.0
C289 C 0.74175 0.14085 0.17674 0.0
C290 C 0.72866 0.12898 0.11693 0.0
C291 C 0.759 0.15042 0.11742 0.0
C292 C 0.64532 0.13603 0.22549 0.0
O293 O 0.67694 0.13097 0.2422 0.0
H294 H 0.74073 0.14153 0.20838 0.0
H295 H 0.71537 0.1187 0.09111 0.0
O296 O 0.6589 0.07263 0.11906 0.0
H297 H 0.73574 1.00378 0.25805 0.0
H298 H 0.77388 0.16012 0.09219 0.0
Cu299 Cu 0.06721 0.31451 0.85779 0.0
N300 N 0.02213 0.31803 0.83243 0.0
N301 N 0.9767 0.33785 0.79488 0.0
C302 C 1.01108 0.34352 0.80674 0.0
C303 C 0.96538 0.308 0.81392 0.0
C304 C 0.99337 0.29597 0.83722 0.0
O305 O 0.10085 0.34791 0.83288 0.0
C306 C 0.04442 0.30362 0.93554 0.0
O307 O 0.03441 0.27211 0.92143 0.0
H308 H 0.02742 0.36617 0.79737 0.0
H309 H 0.99261 0.27289 0.85666 0.0
N310 N 0.08588 0.2674 0.85224 0.0
N311 N 0.1235 0.22001 0.8513 0.0
C312 C 0.11944 0.25524 0.86103 0.0
C313 C 0.06859 0.23884 0.83633 0.0
C314 C 0.09166 0.20962 0.83584 0.0
C315 C 0.0966 0.38205 0.83394 0.0
O316 O 0.06994 0.39585 0.85452 0.0
H317 H 0.14057 0.27192 0.87355 0.0
H318 H 0.04132 0.23929 0.82497 0.0
O319 O 0.06007 0.32627 0.91305 0.0
H320 H 0.9386 0.29628 0.81163 0.0
H321 H 0.08586 0.18296 0.82428 0.0
Cu322 Cu 0.31719 0.96753 0.17314 0.0
N323 N 0.31598 1.00803 0.2062 0.0
N324 N 0.33366 0.04983 0.24933 0.0
C325 C 0.34443 0.02428 0.2237 0.0
C326 C 0.29726 0.04993 0.24806 0.0
C327 C 0.2864 0.02408 0.22143 0.0
O328 O 0.35163 0.93356 0.19537 0.0
C329 C 0.31581 1.008 0.10281 0.0
O330 O 0.29483 0.02969 0.12306 0.0
H331 H 0.37236 0.01665 0.21902 0.0
H332 H 0.25878 0.01662 0.21484 0.0
N333 N 0.27122 0.94613 0.17095 0.0
N334 N 0.22591 0.90611 0.17078 0.0
C335 C 0.26153 0.91142 0.17777 0.0
C336 C 0.24075 0.96285 0.15904 0.0
C337 C 0.21276 0.93828 0.15906 0.0
C338 C 0.3856 0.93834 0.19203 0.0
O339 O 0.39788 0.96531 0.17076 0.0
H340 H 0.28016 0.89045 0.18687 0.0
H341 H 0.23911 0.99091 0.15029 0.0
O342 O 0.33023 0.9808 0.11963 0.0
H343 H 0.2799 0.06671 0.26599 0.0
H344 H 0.18501 0.94336 0.15048 0.0
Cu345 Cu 0.9495 0.69554 0.86534 0.0
N346 N 0.98993 0.6993 0.83261 0.0
N347 N 0.03435 0.68347 0.79191 0.0
C348 C 1.00984 0.6718 0.81827 0.0
C349 C 0.0301 0.71959 0.78961 0.0
C350 C 1.00254 0.7293 0.81474 0.0
O351 O 0.91564 0.66317 0.83966 0.0
C352 C 0.98994 0.69384 0.93473 0.0
O353 O 1.00918 0.71807 0.91578 0.0
H354 H 1.00564 0.64367 0.82579 0.0
H355 H 0.9916 0.75619 0.81859 0.0
N356 N 0.92796 0.74108 0.87103 0.0
N357 N 0.88745 0.7858 0.87366 0.0
C358 C 0.89316 0.75065 0.86473 0.0
C359 C 0.94448 0.77125 0.88413 0.0
C360 C 0.91959 0.79886 0.88571 0.0
C361 C 0.92045 0.62912 0.83866 0.0
O362 O 0.94724 0.61458 0.8584 0.0
H363 H 0.87243 0.73228 0.85437 0.0
H364 H 0.97272 0.77312 0.89205 0.0
O365 O 0.96368 0.67843 0.91719 0.0
H366 H 0.04507 0.73735 0.77027 0.0
H367 H 0.92453 0.82638 0.89517 0.0
C368 C 0.30132 0.34698 0.41446 0.0
C369 C 0.30328 0.37022 0.38157 0.0
C370 C 0.3552 0.33634 0.35617 0.0
C371 C 0.35359 0.31342 0.38935 0.0
N372 N 0.32153 0.29125 0.44544 0.0
N373 N 0.32603 0.38325 0.31742 0.0
C374 C 0.32522 0.31689 0.41692 0.0
C375 C 0.32826 0.36343 0.35107 0.0
N376 N 0.278 0.35501 0.44423 0.0
N377 N 0.38369 0.33345 0.3309 0.0
H378 H 0.30643 0.40325 0.31346 0.0
H379 H 0.3414 0.37804 0.29251 0.0
H380 H 0.40365 0.31372 0.33396 0.0
H381 H 0.38876 0.35169 0.30832 0.0
H382 H 0.2777 0.34149 0.47097 0.0
H383 H 0.26012 0.37678 0.44295 0.0
H384 H 0.29982 0.29023 0.46484 0.0
H385 H 0.33893 0.2691 0.44749 0.0
C386 C 0.34922 0.71493 0.69515 0.0
C387 C 0.37274 0.71105 0.66265 0.0
C388 C 0.33968 0.65682 0.64165 0.0
C389 C 0.31625 0.66068 0.67419 0.0
N390 N 0.29277 0.69718 0.72631 0.0
N391 N 0.38616 0.68397 0.60061 0.0
C392 C 0.3191 0.69118 0.69904 0.0
C393 C 0.3664 0.68379 0.63437 0.0
N394 N 0.35702 0.73983 0.72344 0.0
N395 N 0.33765 0.62635 0.61918 0.0
H396 H 0.40573 0.70369 0.59492 0.0
H397 H 0.38114 0.66677 0.5771 0.0
H398 H 0.31833 0.60624 0.62393 0.0
H399 H 0.35634 0.61989 0.59748 0.0
H400 H 0.34324 0.74146 0.74997 0.0
H401 H 0.37902 0.75741 0.72154 0.0
H402 H 0.29131 0.72051 0.7433 0.0
H403 H 0.27046 0.68006 0.72932 0.0
C404 C 0.65734 0.68613 0.37341 0.0
C405 C 0.66491 0.71451 0.34678 0.0
C406 C 0.72126 0.68447 0.3271 0.0
C407 C 0.71353 0.65585 0.35345 0.0
N408 N 0.67933 0.63272 0.40762 0.0
N409 N 0.70714 0.74555 0.30541 0.0
C410 C 0.68317 0.65792 0.37868 0.0
C411 C 0.69811 0.71525 0.32611 0.0
N412 N 0.6246 0.68524 0.39192 0.0
N413 N 0.74933 0.68113 0.30136 0.0
H414 H 0.69041 0.76829 0.30456 0.0
H415 H 0.73224 0.74941 0.29219 0.0
H416 H 0.76652 0.65878 0.30115 0.0
H417 H 0.75418 0.69919 0.27857 0.0
H418 H 0.61556 0.66341 0.40854 0.0
H419 H 0.60547 0.70578 0.38878 0.0
H420 H 0.6595 0.63401 0.42922 0.0
H421 H 0.69816 0.61204 0.41185 0.0
C422 C 0.68281 0.31557 0.70771 0.0
C423 C 0.6586 0.30849 0.67653 0.0
C424 C 0.68964 0.35367 0.63607 0.0
C425 C 0.71036 0.3642 0.66901 0.0
N426 N 0.72599 0.35721 0.73686 0.0
N427 N 0.63697 0.32136 0.6117 0.0
C428 C 0.70717 0.34534 0.70494 0.0
C429 C 0.66179 0.32735 0.6406 0.0
N430 N 0.68233 0.29357 0.73982 0.0
N431 N 0.69691 0.36896 0.60054 0.0
H432 H 0.61641 0.30212 0.61431 0.0
H433 H 0.63529 0.33677 0.58627 0.0
H434 H 0.71733 0.38824 0.59684 0.0
H435 H 0.68504 0.36056 0.57446 0.0
H436 H 0.70116 0.29509 0.76241 0.0
H437 H 0.66462 0.27162 0.74216 0.0
H438 H 0.72219 0.34716 0.76501 0.0
H439 H 0.74402 0.37893 0.73554 0.0
C440 C 0.79824 0.82708 0.90243 0.0
C441 C 0.79815 0.85745 0.87721 0.0
C442 C 0.85102 0.83352 0.84262 0.0
C443 C 0.85434 0.80625 0.8715 0.0
N444 N 0.83237 0.77681 0.92958 0.0
N445 N 0.82376 0.89075 0.82364 0.0
C446 C 0.82785 0.80248 0.90123 0.0
C447 C 0.82403 0.86068 0.84688 0.0
N448 N 0.77004 0.82236 0.92774 0.0
N449 N 0.87398 0.8332 0.81132 0.0
H450 H 0.80378 0.91058 0.82586 0.0
H451 H 0.84403 0.89698 0.80358 0.0
H452 H 0.8938 0.81333 0.8079 0.0
H453 H 0.87166 0.85055 0.78744 0.0
H454 H 0.76656 0.79939 0.94499 0.0
H455 H 0.74841 0.84049 0.92906 0.0
H456 H 0.81619 0.77481 0.95441 0.0
H457 H 0.85384 0.75852 0.92934 0.0
C458 C 0.79783 0.21689 0.15471 0.0
C459 C 0.79698 0.18042 0.1673 0.0
C460 C 0.85894 0.18677 0.19194 0.0
C461 C 0.86191 0.22067 0.17276 0.0
N462 N 0.83498 0.26635 0.13146 0.0
N463 N 0.82754 0.1292 0.19555 0.0
C464 C 0.83138 0.2357 0.15348 0.0
C465 C 0.82758 0.16505 0.18591 0.0
N466 N 0.76636 0.23321 0.14354 0.0
N467 N 0.88623 0.17556 0.21598 0.0
H468 H 0.80514 0.11251 0.19119 0.0
H469 H 0.85047 0.11547 0.20523 0.0
H470 H 0.90909 0.19146 0.22126 0.0
H471 H 0.88458 0.15248 0.23342 0.0
H472 H 0.76444 0.26072 0.13717 0.0
H473 H 0.7415 0.21977 0.14462 0.0
H474 H 0.81446 0.27639 0.1136 0.0
H475 H 0.85946 0.27995 0.12802 0.0
C476 C 0.17941 0.1955 0.82187 0.0
C477 C 0.15539 0.19765 0.85411 0.0
C478 C 0.18576 0.14614 0.88545 0.0
C479 C 0.20902 0.14328 0.85264 0.0
N480 N 0.23281 0.16765 0.79291 0.0
N481 N 0.13833 0.1799 0.91898 0.0
C482 C 0.20744 0.16901 0.82195 0.0
C483 C 0.15965 0.17454 0.88685 0.0
N484 N 0.17414 0.21792 0.79057 0.0
N485 N 0.18798 0.1207 0.91437 0.0
H486 H 0.11892 0.20038 0.92009 0.0
H487 H 0.14113 0.16586 0.94519 0.0
H488 H 0.20754 0.10034 0.91418 0.0
H489 H 0.17001 0.11878 0.93771 0.0
H490 H 0.18817 0.21593 0.76427 0.0
H491 H 0.15436 0.23805 0.79048 0.0
H492 H 0.23534 0.18695 0.7709 0.0
H493 H 0.25309 0.14802 0.7923 0.0
C494 C 0.18524 0.86553 0.20735 0.0
C495 C 0.20536 0.87304 0.17305 0.0
C496 C 0.1754 0.8228 0.13905 0.0
C497 C 0.15214 0.81839 0.17163 0.0
N498 N 0.13439 0.83373 0.23701 0.0
N499 N 0.22121 0.85955 0.10659 0.0
C500 C 0.15735 0.83889 0.20617 0.0
C501 C 0.20132 0.85138 0.13913 0.0
N502 N 0.1928 0.88446 0.24068 0.0
N503 N 0.17204 0.79978 0.10801 0.0
H504 H 0.24088 0.87983 0.10653 0.0
H505 H 0.21764 0.84735 0.07944 0.0
H506 H 0.15276 0.77912 0.10743 0.0
H507 H 0.18945 0.79947 0.08409 0.0
H508 H 0.18103 0.87924 0.26776 0.0
H509 H 0.2129 0.9043 0.24164 0.0
H510 H 0.13407 0.84971 0.26205 0.0
H511 H 0.1145 0.81364 0.23689 0.0
C512 C 0.15459 0.56124 0.22685 0.0
C513 C 0.16095 0.56963 0.26665 0.0
C514 C 0.12128 0.62247 0.26167 0.0
C515 C 0.11688 0.61564 0.22093 0.0
N516 N 0.13474 0.58247 0.16323 0.0
N517 N 0.15626 0.61092 0.32052 0.0
C518 C 0.135 0.58603 0.20306 0.0
C519 C 0.14602 0.6011 0.28361 0.0
N520 N 0.16652 0.52902 0.21219 0.0
N521 N 0.10057 0.64805 0.27991 0.0
H522 H 0.17427 0.59558 0.33721 0.0
H523 H 0.14948 0.63561 0.33322 0.0
H524 H 0.08175 0.66411 0.26532 0.0
H525 H 0.09971 0.65129 0.31017 0.0
H526 H 0.15938 0.51927 0.18465 0.0
H527 H 0.18137 0.51065 0.2289 0.0
H528 H 0.15034 0.56356 0.14824 0.0
H529 H 0.1215 0.60063 0.14475 0.0
C530 C 0.59121 0.84376 0.77835 0.0
C531 C 0.57881 0.86025 0.74348 0.0
C532 C 0.61182 0.91566 0.75983 0.0
C533 C 0.62797 0.89758 0.79211 0.0
N534 N 0.63596 0.84318 0.83032 0.0
N535 N 0.58035 0.90982 0.6979 0.0
C536 C 0.6182 0.86135 0.80122 0.0
C537 C 0.58974 0.89577 0.73347 0.0
N538 N 0.57669 0.8114 0.78961 0.0
N539 N 0.61672 0.95208 0.75503 0.0
H540 H 0.56439 0.89581 0.6778 0.0
H541 H 0.59076 0.934 0.68697 0.0
H542 H 0.63216 0.96774 0.77416 0.0
H543 H 0.60273 0.9674 0.73438 0.0
H544 H 0.58183 0.7993 0.81657 0.0
H545 H 0.55694 0.79814 0.77311 0.0
H546 H 0.63277 0.8156 0.83557 0.0
H547 H 0.65607 0.85501 0.8475 0.0
C548 C 0.91988 0.4059 0.27797 0.0
C549 C 0.90556 0.38811 0.24449 0.0
C550 C 0.85043 0.425 0.24935 0.0
C551 C 0.86315 0.43949 0.28511 0.0
N552 N 0.9072 0.44021 0.33685 0.0
N553 N 0.85531 0.37748 0.20069 0.0
C554 C 0.89721 0.42907 0.30029 0.0
C555 C 0.87039 0.39699 0.23053 0.0
N556 N 0.95554 0.40161 0.28768 0.0
N557 N 0.81942 0.43853 0.2333 0.0
H558 H 0.86883 0.35659 0.18636 0.0
H559 H 0.8284 0.38005 0.19207 0.0
H560 H 0.80431 0.4588 0.2469 0.0
H561 H 0.81031 0.43189 0.20537 0.0
H562 H 0.96841 0.41669 0.30936 0.0
H563 H 0.97327 0.38552 0.27157 0.0
H564 H 0.92993 0.43043 0.35145 0.0
H565 H 0.891 0.45694 0.35406 0.0
C566 C 0.45741 0.11111 0.75945 0.0
C567 C 0.46149 0.14873 0.76575 0.0
C568 C 0.42241 0.1451 0.82363 0.0
C569 C 0.41996 0.10705 0.8185 0.0
N570 N 0.44111 0.05276 0.78642 0.0
N571 N 0.45388 0.20079 0.80685 0.0
C572 C 0.43955 0.08968 0.78807 0.0
C573 C 0.44566 0.16554 0.79879 0.0
N574 N 0.46882 0.09626 0.72497 0.0
N575 N 0.40225 0.16168 0.85197 0.0
H576 H 0.47122 0.21606 0.78925 0.0
H577 H 0.4461 0.21396 0.83242 0.0
H578 H 0.38653 0.14734 0.87208 0.0
H579 H 0.39961 0.18964 0.85435 0.0
H580 H 0.46323 0.06972 0.71671 0.0
H581 H 0.48093 0.11147 0.70283 0.0
H582 H 0.45792 0.03869 0.76728 0.0
H583 H 0.42806 0.03606 0.8065 0.0
C584 C 0.14466 0.42555 0.74663 0.0
C585 C 0.16244 0.45473 0.76528 0.0
C586 C 0.14028 0.43411 0.82919 0.0
C587 C 0.1203 0.40623 0.81031 0.0
N588 N 0.0997 0.37792 0.75048 0.0
N589 N 0.17487 0.48983 0.82273 0.0
C590 C 0.12167 0.40241 0.76885 0.0
C591 C 0.15946 0.45992 0.80616 0.0
N592 N 0.15006 0.42 0.70752 0.0
N593 N 0.14228 0.43484 0.86917 0.0
H594 H 0.1903 0.50826 0.80666 0.0
H595 H 0.17055 0.4977 0.8516 0.0
H596 H 0.12934 0.41589 0.88697 0.0
H597 H 0.15913 0.45222 0.88474 0.0
H598 H 0.14166 0.39687 0.6927 0.0
H599 H 0.16499 0.43779 0.69013 0.0
H600 H 0.09613 0.37684 0.72028 0.0
H601 H 0.08287 0.35999 0.76535 0.0
C602 C 0.40973 0.91508 0.25615 0.0
C603 C 0.41127 0.91546 0.21452 0.0
C604 C 0.46449 0.87575 0.21635 0.0
C605 C 0.46082 0.8729 0.25743 0.0
N606 N 0.42822 0.88561 0.31652 0.0
N607 N 0.4369 0.89253 0.1545 0.0
C608 C 0.4329 0.8914 0.27735 0.0
C609 C 0.43793 0.89493 0.19443 0.0
N610 N 0.38739 0.93854 0.27547 0.0
N611 N 0.49388 0.86053 0.19856 0.0
H612 H 0.41753 0.90576 0.13751 0.0
H613 H 0.45327 0.87516 0.13835 0.0
H614 H 0.51336 0.84595 0.21408 0.0
H615 H 0.50045 0.86459 0.16926 0.0
H616 H 0.38789 0.94227 0.30567 0.0
H617 H 0.37035 0.95669 0.26116 0.0
H618 H 0.406 0.89504 0.33224 0.0
H619 H 0.44542 0.86903 0.33281 0.0
C620 C 0.89012 0.58639 0.74276 0.0
C621 C 0.86133 0.56426 0.75585 0.0
C622 C 0.873 0.58228 0.82379 0.0
C623 C 0.89985 0.60684 0.8103 0.0
N624 N 0.93211 0.63506 0.75679 0.0
N625 N 0.82255 0.54278 0.8071 0.0
C626 C 0.90782 0.60976 0.76968 0.0
C627 C 0.85209 0.56253 0.796 0.0
N628 N 0.90132 0.58388 0.70473 0.0
N629 N 0.86772 0.57777 0.86311 0.0
H630 H 0.80717 0.52789 0.78716 0.0
H631 H 0.81183 0.54289 0.83527 0.0
H632 H 0.88155 0.59287 0.88414 0.0
H633 H 0.85127 0.55775 0.87507 0.0
H634 H 0.92459 0.59626 0.69393 0.0
H635 H 0.8889 0.56678 0.68448 0.0
H636 H 0.93592 0.64144 0.7274 0.0
H637 H 0.94702 0.65153 0.77554 0.0
C638 C 0.59593 0.18269 0.23321 0.0
C639 C 0.61538 0.15255 0.24824 0.0
C640 C 0.58318 0.15809 0.31061 0.0
C641 C 0.5616 0.18594 0.2945 0.0
N642 N 0.5427 0.22088 0.2389 0.0
N643 N 0.62073 0.10596 0.29767 0.0
C644 C 0.56659 0.1971 0.25524 0.0
C645 C 0.60708 0.1386 0.28597 0.0
N646 N 0.60647 0.19859 0.19892 0.0
N647 N 0.58182 0.15125 0.34985 0.0
H648 H 0.63691 0.08985 0.27976 0.0
H649 H 0.61278 0.09304 0.3234 0.0
H650 H 0.56551 0.16607 0.36886 0.0
H651 H 0.59952 0.1336 0.36398 0.0
H652 H 0.59561 0.2228 0.18863 0.0
H653 H 0.62827 0.18936 0.18234 0.0
H654 H 0.54258 0.22743 0.20925 0.0
H655 H 0.52097 0.23167 0.25453 0.0
C656 C 0.67295 0.07189 0.74534 0.0
C657 C 0.67073 0.07024 0.78667 0.0
C658 C 0.63056 0.12281 0.78673 0.0
C659 C 0.63655 0.12743 0.74588 0.0
N660 N 0.66853 0.10936 0.68734 0.0
N661 N 0.6532 0.09775 0.84751 0.0
C662 C 0.65905 0.10269 0.72533 0.0
C663 C 0.65114 0.09675 0.80761 0.0
N664 N 0.68738 0.04346 0.72521 0.0
N665 N 0.60401 0.14197 0.80534 0.0
H666 H 0.66882 0.07953 0.86359 0.0
H667 H 0.64238 0.11868 0.86423 0.0
H668 H 0.58694 0.16003 0.79092 0.0
H669 H 0.59629 0.13699 0.83418 0.0
H670 H 0.68654 0.04138 0.69482 0.0
H671 H 0.69711 0.02031 0.73918 0.0
H672 H 0.68771 0.09413 0.67228 0.0
H673 H 0.65987 0.13214 0.67195 0.0
C674 C 0.12368 0.40711 0.26125 0.0
C675 C 0.13257 0.39874 0.30072 0.0
C676 C 0.08517 0.35215 0.30092 0.0
C677 C 0.08034 0.35702 0.2601 0.0
N678 N 0.10026 0.3844 0.19987 0.0
N679 N 0.12523 0.35918 0.35654 0.0
C680 C 0.10103 0.38325 0.23981 0.0
C681 C 0.11413 0.37022 0.3203 0.0
N682 N 0.13553 0.43864 0.24468 0.0
N683 N 0.06135 0.3311 0.32131 0.0
H684 H 0.14693 0.37096 0.37133 0.0
H685 H 0.11507 0.33616 0.37034 0.0
H686 H 0.03931 0.31843 0.308 0.0
H687 H 0.06135 0.32922 0.35174 0.0
H688 H 0.12708 0.4475 0.21719 0.0
H689 H 0.15035 0.45795 0.26013 0.0
H690 H 0.11751 0.40074 0.1834 0.0
H691 H 0.08511 0.3663 0.18312 0.0
C692 C 0.35611 0.93651 0.72683 0.0
C693 C 0.3731 0.95185 0.76006 0.0
C694 C 0.43251 0.93366 0.73468 0.0
C695 C 0.41525 0.91462 0.70366 0.0
N696 N 0.36039 0.89603 0.67102 0.0
N697 N 0.42635 0.95977 0.79947 0.0
C698 C 0.37691 0.91548 0.7 0.0
C699 C 0.41106 0.94924 0.76489 0.0
N700 N 0.32021 0.9431 0.7205 0.0
N701 N 0.46937 0.93693 0.73542 0.0
H702 H 0.4112 0.97028 0.82256 0.0
H703 H 0.45333 0.9551 0.80667 0.0
H704 H 0.48626 0.92544 0.71446 0.0
H705 H 0.48308 0.95371 0.75492 0.0
H706 H 0.30657 0.93578 0.69504 0.0
H707 H 0.30465 0.95865 0.73963 0.0
H708 H 0.33253 0.89206 0.66944 0.0
H709 H 0.37476 0.88224 0.64941 0.0
C710 C 0.92714 0.60806 0.29029 0.0
C711 C 0.9134 0.62414 0.32495 0.0
C712 C 0.94694 0.67968 0.30946 0.0
C713 C 0.95578 0.6654 0.27218 0.0
N714 N 0.94832 0.61825 0.2242 0.0
N715 N 0.90612 0.67762 0.36488 0.0
C716 C 0.9443 0.63014 0.26177 0.0
C717 C 0.92232 0.6606 0.33402 0.0
N718 N 0.92525 0.57145 0.28537 0.0
N719 N 0.96298 0.71094 0.32183 0.0
H720 H 0.88732 0.66498 0.38308 0.0
H721 H 0.90886 0.70524 0.37024 0.0
H722 H 0.98197 0.72483 0.30492 0.0
H723 H 0.96026 0.72094 0.35018 0.0
H724 H 0.9375 0.55796 0.2621 0.0
H725 H 0.91536 0.55429 0.30712 0.0
H726 H 0.93732 0.59399 0.21418 0.0
H727 H 0.95932 0.63432 0.2021 0.0
C728 C 0.64665 0.95324 0.24511 0.0
C729 C 0.66123 0.98339 0.26511 0.0
C730 C 0.63966 0.95868 0.32756 0.0
C731 C 0.62184 0.9303 0.30708 0.0
N732 N 0.60269 0.90467 0.24527 0.0
N733 N 0.66745 0.0182 0.32402 0.0
C734 C 0.62392 0.92854 0.26551 0.0
C735 C 0.65663 0.98703 0.30603 0.0
N736 N 0.65523 0.94795 0.20665 0.0
N737 N 0.64157 0.95783 0.36751 0.0
H738 H 0.68006 0.03926 0.3089 0.0
H739 H 0.66137 0.02438 0.35302 0.0
H740 H 0.63017 0.93715 0.38425 0.0
H741 H 0.65721 0.97578 0.38384 0.0
H742 H 0.64856 0.92455 0.19127 0.0
H743 H 0.67197 0.96564 0.19114 0.0
H744 H 0.60029 0.90486 0.2149 0.0
H745 H 0.58469 0.88688 0.25875 0.0
C746 C 0.90322 0.40003 0.75871 0.0
C747 C 0.91242 0.40291 0.71836 0.0
C748 C 0.96307 0.36076 0.72842 0.0
C749 C 0.95548 0.36027 0.76904 0.0
N750 N 0.92306 0.38391 0.8242 0.0
N751 N 0.95286 0.38882 0.66506 0.0
C752 C 0.92673 0.38105 0.78452 0.0
C753 C 0.94301 0.38419 0.70332 0.0
N754 N 0.87201 0.41528 0.77248 0.0
N755 N 0.98856 0.33767 0.71382 0.0
H756 H 0.93757 0.40385 0.64519 0.0
H757 H 0.97711 0.37938 0.65341 0.0
H758 H 1.00338 0.32017 0.73162 0.0
H759 H 0.99318 0.33379 0.68406 0.0
H760 H 0.86184 0.41051 0.80044 0.0
H761 H 0.85459 0.43063 0.75523 0.0
H762 H 0.90518 0.40167 0.83779 0.0
H763 H 0.94038 0.37086 0.84376 0.0
C764 C 0.39495 0.12318 0.28757 0.0
C765 C 0.39847 0.11243 0.3274 0.0
C766 C 0.36221 0.05807 0.31402 0.0
C767 C 0.35615 0.07056 0.27542 0.0
N768 N 0.36244 0.11634 0.22616 0.0
N769 N 0.38147 0.07238 0.38013 0.0
C770 C 0.3713 0.10357 0.26243 0.0
C771 C 0.38115 0.08047 0.34106 0.0
N772 N 0.41555 0.15097 0.27324 0.0
N773 N 0.35028 0.02442 0.32443 0.0
H774 H 0.39453 0.08844 0.40089 0.0
H775 H 0.36635 0.05152 0.3925 0.0
H776 H 0.33575 1.00787 0.30531 0.0
H777 H 0.35704 0.01183 0.3507 0.0
H778 H 0.41699 0.1576 0.24366 0.0
H779 H 0.43379 0.16557 0.29034 0.0
H780 H 0.36921 0.14213 0.21626 0.0
H781 H 0.34592 0.1019 0.2069 0.0
C782 C 0.11116 0.62187 0.76432 0.0
C783 C 0.1052 0.61814 0.72334 0.0
C784 C 0.05012 0.65489 0.72886 0.0
C785 C 0.05821 0.66143 0.76873 0.0
N786 N 0.09847 0.65596 0.82347 0.0
N787 N 0.07208 0.63552 0.66538 0.0
C788 C 0.08937 0.64626 0.78617 0.0
C789 C 0.0754 0.63575 0.70524 0.0
N790 N 0.1364 0.60083 0.78275 0.0
N791 N 0.01773 0.66619 0.71399 0.0
H792 H 0.09038 0.62236 0.64702 0.0
H793 H 0.05307 0.65094 0.65027 0.0
H794 H 0.99885 0.68037 0.73068 0.0
H795 H 1.00832 0.65896 0.68634 0.0
H796 H 0.13923 0.59965 0.81306 0.0
H797 H 0.15235 0.5819 0.7682 0.0
H798 H 0.12293 0.649 0.83662 0.0
H799 H 0.08273 0.6736 0.84015 0.0
C800 C 0.215 0.5104 0.55418 0.0
C801 C 0.18106 0.5227 0.56844 0.0
C802 C 0.15192 0.50355 0.50708 0.0
C803 C 0.1862 0.49292 0.49223 0.0
N804 N 0.25128 0.49456 0.49771 0.0
N805 N 0.11857 0.53742 0.5562 0.0
C806 C 0.21802 0.49892 0.51462 0.0
C807 C 0.14989 0.52122 0.54415 0.0
N808 N 0.24399 0.50769 0.57894 0.0
N809 N 0.1212 0.49532 0.48663 0.0
H810 H 0.11629 0.5507 0.58304 0.0
H811 H 0.09593 0.54053 0.53836 0.0
H812 H 0.12165 0.48266 0.45936 0.0
H813 H 0.0952 0.49859 0.49786 0.0
H814 H 0.26809 0.4949 0.5713 0.0
H815 H 0.24307 0.51519 0.60833 0.0
H816 H 0.27538 0.50223 0.51122 0.0
H817 H 0.25464 0.48672 0.46863 0.0
C818 C 0.55293 0.81661 0.48745 0.0
C819 C 0.5281 0.82329 0.45657 0.0
C820 C 0.47832 0.82795 0.5042 0.0
C821 C 0.50322 0.82144 0.535 0.0
N822 N 0.56509 0.8201 0.55713 0.0
N823 N 0.46947 0.84476 0.43613 0.0
C824 C 0.54085 0.81917 0.52692 0.0
C825 C 0.49147 0.83197 0.46519 0.0
N826 N 0.58746 0.80571 0.47921 0.0
N827 N 0.44202 0.8285 0.51187 0.0
H828 H 0.47847 0.84868 0.40748 0.0
H829 H 0.44354 0.85479 0.44113 0.0
H830 H 0.43148 0.82637 0.5401 0.0
H831 H 0.42228 0.82874 0.49011 0.0
H832 H 0.60539 0.79632 0.50043 0.0
H833 H 0.59743 0.80329 0.45079 0.0
H834 H 0.59297 0.82198 0.55312 0.0
H835 H 0.55705 0.8229 0.58624 0.0
C836 C 0.8581 0.48356 0.48235 0.0
C837 C 0.85772 0.52087 0.47202 0.0
C838 C 0.85335 0.53678 0.5416 0.0
C839 C 0.85811 0.49979 0.55201 0.0
N840 N 0.87274 0.43896 0.53184 0.0
N841 N 0.86264 0.58318 0.49254 0.0
C842 C 0.86274 0.47344 0.52224 0.0
C843 C 0.85757 0.54756 0.50187 0.0
N844 N 0.8521 0.45768 0.45451 0.0
N845 N 0.84289 0.56146 0.56916 0.0
H846 H 0.86665 0.59217 0.46394 0.0
H847 H 0.86654 0.60326 0.51353 0.0
H848 H 0.83786 0.55469 0.59827 0.0
H849 H 0.83543 0.58789 0.56226 0.0
H850 H 0.84847 0.4304 0.46123 0.0
H851 H 0.84677 0.46371 0.42526 0.0
H852 H 0.88008 0.4197 0.51104 0.0
H853 H 0.87734 0.43067 0.5606 0.0
C854 C 0.48252 0.14717 0.51622 0.0
C855 C 0.50516 0.16017 0.48575 0.0
C856 C 0.55532 0.16576 0.53258 0.0
C857 C 0.53135 0.15749 0.56379 0.0
N858 N 0.4698 0.14772 0.58565 0.0
N859 N 0.56118 0.18941 0.4669 0.0
C860 C 0.4943 0.15002 0.55576 0.0
C861 C 0.54113 0.1714 0.49436 0.0
N862 N 0.45013 0.13123 0.50742 0.0
N863 N 0.59179 0.16729 0.53913 0.0
H864 H 0.55143 0.19593 0.43915 0.0
H865 H 0.58608 0.20137 0.4731 0.0
H866 H 0.60334 0.16245 0.5665 0.0
H867 H 0.61072 0.16961 0.51664 0.0
H868 H 0.43424 0.11803 0.52821 0.0
H869 H 0.44093 0.12792 0.47877 0.0
H870 H 0.44196 0.14604 0.58106 0.0
H871 H 0.47668 0.15136 0.61498 0.0
C872 C 0.67528 0.99868 0.0551 0.0
C873 C 0.67006 0.03624 0.06142 0.0
C874 C 0.65941 0.04428 0.99098 0.0
C875 C 0.67224 1.00869 0.98424 0.0
N876 N 0.69464 0.95204 1.01013 0.0
N877 N 0.65749 0.09567 0.03469 0.0
C878 C 0.68015 0.98557 1.01635 0.0
C879 C 0.66146 0.05925 0.0293 0.0
N880 N 0.67526 0.97552 0.08631 0.0
N881 N 0.64494 0.0636 0.96064 0.0
H882 H 0.65751 0.10803 0.06201 0.0
H883 H 0.65625 0.11413 1.01168 0.0
H884 H 0.6427 0.05306 0.9324 0.0
H885 H 0.6319 0.08836 0.96421 0.0
H886 H 0.67564 0.94745 0.0834 0.0
H887 H 0.67085 0.98434 0.11494 0.0
H888 H 0.70503 0.93598 0.03253 0.0
H889 H 0.69888 0.94118 0.98239 0.0
C890 C 0.06172 0.3222 1.00443 0.0
C891 C 0.03465 0.31313 0.9766 0.0
C892 C 0.98945 0.3091 0.02916 0.0
C893 C 0.01615 0.31959 0.05691 0.0
N894 N 0.07518 0.34483 0.06953 0.0
N895 N 0.97114 0.30855 0.96107 0.0
C896 C 0.05153 0.32892 0.04403 0.0
C897 C 0.99799 0.30998 0.98857 0.0
N898 N 0.09736 0.32249 0.9937 0.0
N899 N 0.95672 0.29599 0.04139 0.0
H900 H 0.9763 0.31008 0.93108 0.0
H901 H 0.94372 0.30982 0.96806 0.0
H902 H 0.94937 0.29377 0.07072 0.0
H903 H 0.93804 0.28412 0.02248 0.0
H904 H 0.11853 0.32479 1.01368 0.0
H905 H 0.10603 0.31752 0.96517 0.0
H906 H 0.10011 0.35542 0.06103 0.0
H907 H 0.06833 0.35074 0.09847 0.0
C908 C 0.31063 0.99125 0.99256 0.0
C909 C 0.31652 0.02674 0.97796 0.0
C910 C 0.33053 0.04725 0.0447 0.0
C911 C 0.31903 0.01327 0.05971 0.0
N912 N 0.29199 0.95465 0.04765 0.0
N913 N 0.32812 0.08994 0.99083 0.0
C914 C 0.30771 0.98556 0.03359 0.0
C915 C 0.32578 0.05513 1.00415 0.0
N916 N 0.30866 0.96273 0.9672 0.0
N917 N 0.34667 0.07174 0.06907 0.0
H918 H 0.32445 0.09701 0.96156 0.0
H919 H 0.3307 0.11221 1.00931 0.0
H920 H 0.35105 0.06661 0.09874 0.0
H921 H 0.35885 0.09548 0.05919 0.0
H922 H 0.30796 0.93584 0.9764 0.0
H923 H 0.31176 0.9657 0.93703 0.0
H924 H 0.27964 0.93552 0.02965 0.0
H925 H 0.28796 0.94959 0.07734 0.0
C926 C 0.03457 0.68301 0.98876 0.0
C927 C 0.99795 0.68707 0.97691 0.0
C928 C 0.97988 0.68593 0.04598 0.0
C929 C 0.01655 0.69027 0.05744 0.0
N930 N 0.07935 0.69669 0.03817 0.0
N931 N 0.93547 0.69737 0.99571 0.0
C932 C 0.04422 0.68924 0.02853 0.0
C933 C 0.97033 0.68929 1.00584 0.0
N934 N 0.06013 0.67291 0.96202 0.0
N935 N 0.95412 0.67842 0.07352 0.0
H936 H 0.92703 0.70196 0.96707 0.0
H937 H 0.91548 0.70312 1.01632 0.0
H938 H 0.96045 0.67468 0.10303 0.0
H939 H 0.92748 0.67185 0.06638 0.0
H940 H 0.08665 0.66643 0.96971 0.0
H941 H 0.05372 0.66709 0.93293 0.0
H942 H 0.09961 0.70027 1.0173 0.0
H943 H 0.08787 0.70255 0.06651 0.0
loop_
_geom_bond_atom_site_label_1
_geom_bond_atom_site_label_2
_geom_bond_distance
_geom_bond_site_symmetry_2
_ccdc_geom_bond_type
Cu0 N1 1.999 . S
Cu0 O6 1.974 . S
Cu0 N11 1.985 . S
Cu0 O20 1.959 . S
N1 Cu0 1.999 . S
N1 C3 1.263 . S
N1 C5 1.389 . S
N2 C3 1.358 . S
N2 C4 1.400 . S
C3 N1 1.263 . S
C3 N2 1.358 . S
C3 H9 0.930 . S
C4 N2 1.400 . S
C4 C5 1.351 . S
C4 H21 0.930 . S
C5 N1 1.389 . S
C5 C4 1.351 . S
C5 H10 0.930 . S
O6 Cu0 1.974 . S
O6 C16 1.282 . S
C7 O8 1.261 . S
C7 O20 1.251 . S
O8 C7 1.261 . S
H9 C3 0.930 . S
H10 C5 0.930 . S
N11 Cu0 1.985 . S
N11 C13 1.335 . S
N11 C14 1.390 . S
N12 C13 1.345 . S
N12 C15 1.336 . S
C13 N11 1.335 . S
C13 N12 1.345 . S
C13 H18 0.930 . S
C14 N11 1.390 . S
C14 C15 1.346 . S
C14 H19 0.930 . S
C15 N12 1.336 . S
C15 C14 1.346 . S
C15 H22 0.929 . S
C16 O6 1.282 . S
C16 O17 1.216 . S
O17 C16 1.216 . S
H18 C13 0.930 . S
H19 C14 0.930 . S
O20 Cu0 1.959 . S
O20 C7 1.251 . S
H21 C4 0.930 . S
H22 C15 0.929 . S
Cu23 N24 1.999 . S
Cu23 O29 1.974 . S
Cu23 N34 1.985 . S
Cu23 O43 1.959 . S
N24 Cu23 1.999 . S
N24 C26 1.263 . S
N24 C28 1.389 . S
N25 C26 1.358 . S
N25 C27 1.400 . S
C26 N24 1.263 . S
C26 N25 1.358 . S
C26 H32 0.930 . S
C27 N25 1.400 . S
C27 C28 1.351 . S
C27 H44 0.930 . S
C28 N24 1.389 . S
C28 C27 1.351 . S
C28 H33 0.930 . S
O29 Cu23 1.974 . S
O29 C39 1.282 . S
C30 O31 1.261 . S
C30 O43 1.251 . S
O31 C30 1.261 . S
H32 C26 0.930 . S
H33 C28 0.930 . S
N34 Cu23 1.985 . S
N34 C36 1.335 . S
N34 C37 1.390 . S
N35 C36 1.345 . S
N35 C38 1.336 . S
C36 N34 1.335 . S
C36 N35 1.345 . S
C36 H41 0.930 . S
C37 N34 1.390 . S
C37 C38 1.346 . S
C37 H42 0.930 . S
C38 N35 1.336 . S
C38 C37 1.346 . S
C38 H45 0.929 . S
C39 O29 1.282 . S
C39 O40 1.216 . S
O40 C39 1.216 . S
H41 C36 0.930 . S
H42 C37 0.930 . S
O43 Cu23 1.959 . S
O43 C30 1.251 . S
H44 C27 0.930 . S
H45 C38 0.929 . S
Cu46 N47 1.999 . S
Cu46 O52 1.974 . S
Cu46 N57 1.985 . S
Cu46 O66 1.959 . S
N47 Cu46 1.999 . S
N47 C49 1.263 . S
N47 C51 1.389 . S
N48 C49 1.358 . S
N48 C50 1.400 . S
C49 N47 1.263 . S
C49 N48 1.358 . S
C49 H55 0.930 . S
C50 N48 1.400 . S
C50 C51 1.351 . S
C50 H67 0.930 . S
C51 N47 1.389 . S
C51 C50 1.351 . S
C51 H56 0.930 . S
O52 Cu46 1.974 . S
O52 C62 1.282 . S
C53 O54 1.261 . S
C53 O66 1.251 . S
O54 C53 1.261 . S
H55 C49 0.930 . S
H56 C51 0.930 . S
N57 Cu46 1.985 . S
N57 C59 1.335 . S
N57 C60 1.390 . S
N58 C59 1.345 . S
N58 C61 1.336 . S
C59 N57 1.335 . S
C59 N58 1.345 . S
C59 H64 0.930 . S
C60 N57 1.390 . S
C60 C61 1.346 . S
C60 H65 0.930 . S
C61 N58 1.336 . S
C61 C60 1.346 . S
C61 H68 0.929 . S
C62 O52 1.282 . S
C62 O63 1.216 . S
O63 C62 1.216 . S
H64 C59 0.930 . S
H65 C60 0.930 . S
O66 Cu46 1.959 . S
O66 C53 1.251 . S
H67 C50 0.930 . S
H68 C61 0.929 . S
Cu69 N70 1.999 . S
Cu69 O75 1.974 . S
Cu69 N80 1.985 . S
Cu69 O89 1.959 . S
N70 Cu69 1.999 . S
N70 C72 1.263 . S
N70 C74 1.389 . S
N71 C72 1.358 . S
N71 C73 1.400 . S
C72 N70 1.263 . S
C72 N71 1.358 . S
C72 H78 0.930 . S
C73 N71 1.400 . S
C73 C74 1.351 . S
C73 H90 0.930 . S
C74 N70 1.389 . S
C74 C73 1.351 . S
C74 H79 0.930 . S
O75 Cu69 1.974 . S
O75 C85 1.282 . S
C76 O77 1.261 . S
C76 O89 1.251 . S
O77 C76 1.261 . S
H78 C72 0.930 . S
H79 C74 0.930 . S
N80 Cu69 1.985 . S
N80 C82 1.335 . S
N80 C83 1.390 . S
N81 C82 1.345 . S
N81 C84 1.336 . S
C82 N80 1.335 . S
C82 N81 1.345 . S
C82 H87 0.930 . S
C83 N80 1.390 . S
C83 C84 1.346 . S
C83 H88 0.930 . S
C84 N81 1.336 . S
C84 C83 1.346 . S
C84 H91 0.929 . S
C85 O75 1.282 . S
C85 O86 1.216 . S
O86 C85 1.216 . S
H87 C82 0.930 . S
H88 C83 0.930 . S
O89 Cu69 1.959 . S
O89 C76 1.251 . S
H90 C73 0.930 . S
H91 C84 0.929 . S
Cu92 N93 1.999 . S
Cu92 O98 1.974 . S
Cu92 N103 1.985 . S
Cu92 O112 1.959 . S
N93 Cu92 1.999 . S
N93 C95 1.263 . S
N93 C97 1.389 . S
N94 C95 1.358 . S
N94 C96 1.400 . S
C95 N93 1.263 . S
C95 N94 1.358 . S
C95 H101 0.930 . S
C96 N94 1.400 . S
C96 C97 1.351 . S
C96 H113 0.930 . S
C97 N93 1.389 . S
C97 C96 1.351 . S
C97 H102 0.930 . S
O98 Cu92 1.974 . S
O98 C108 1.282 . S
C99 O100 1.261 . S
C99 O112 1.251 . S
O100 C99 1.261 . S
H101 C95 0.930 . S
H102 C97 0.930 . S
N103 Cu92 1.985 . S
N103 C105 1.335 . S
N103 C106 1.390 . S
N104 C105 1.345 . S
N104 C107 1.336 . S
C105 N103 1.335 . S
C105 N104 1.345 . S
C105 H110 0.930 . S
C106 N103 1.390 . S
C106 C107 1.346 . S
C106 H111 0.930 . S
C107 N104 1.336 . S
C107 C106 1.346 . S
C107 H114 0.929 . S
C108 O98 1.282 . S
C108 O109 1.216 . S
O109 C108 1.216 . S
H110 C105 0.930 . S
H111 C106 0.930 . S
O112 Cu92 1.959 . S
O112 C99 1.251 . S
H113 C96 0.930 . S
H114 C107 0.929 . S
Cu115 N116 1.999 . S
Cu115 O121 1.974 . S
Cu115 N126 1.985 . S
Cu115 O135 1.959 . S
N116 Cu115 1.999 . S
N116 C118 1.263 . S
N116 C120 1.389 . S
N117 C118 1.358 . S
N117 C119 1.400 . S
C118 N116 1.263 . S
C118 N117 1.358 . S
C118 H124 0.930 . S
C119 N117 1.400 . S
C119 C120 1.351 . S
C119 H136 0.930 . S
C120 N116 1.389 . S
C120 C119 1.351 . S
C120 H125 0.930 . S
O121 Cu115 1.974 . S
O121 C131 1.282 . S
C122 O123 1.261 . S
C122 O135 1.251 . S
O123 C122 1.261 . S
H124 C118 0.930 . S
H125 C120 0.930 . S
N126 Cu115 1.985 . S
N126 C128 1.335 . S
N126 C129 1.390 . S
N127 C128 1.345 . S
N127 C130 1.336 . S
C128 N126 1.335 . S
C128 N127 1.345 . S
C128 H133 0.930 . S
C129 N126 1.390 . S
C129 C130 1.346 . S
C129 H134 0.930 . S
C130 N127 1.336 . S
C130 C129 1.346 . S
C130 H137 0.929 . S
C131 O121 1.282 . S
C131 O132 1.216 . S
O132 C131 1.216 . S
H133 C128 0.930 . S
H134 C129 0.930 . S
O135 Cu115 1.959 . S
O135 C122 1.251 . S
H136 C119 0.930 . S
H137 C130 0.929 . S
Cu138 N139 1.999 . S
Cu138 O144 1.974 . S
Cu138 N149 1.985 . S
Cu138 O158 1.959 . S
N139 Cu138 1.999 . S
N139 C141 1.263 . S
N139 C143 1.389 . S
N140 C141 1.358 . S
N140 C142 1.400 . S
C141 N139 1.263 . S
C141 N140 1.358 . S
C141 H147 0.930 . S
C142 N140 1.400 . S
C142 C143 1.351 . S
C142 H159 0.930 . S
C143 N139 1.389 . S
C143 C142 1.351 . S
C143 H148 0.930 . S
O144 Cu138 1.974 . S
O144 C154 1.282 . S
C145 O146 1.261 . S
C145 O158 1.251 . S
O146 C145 1.261 . S
H147 C141 0.930 . S
H148 C143 0.930 . S
N149 Cu138 1.985 . S
N149 C151 1.335 . S
N149 C152 1.390 . S
N150 C151 1.345 . S
N150 C153 1.336 . S
C151 N149 1.335 . S
C151 N150 1.345 . S
C151 H156 0.930 . S
C152 N149 1.390 . S
C152 C153 1.346 . S
C152 H157 0.930 . S
C153 N150 1.336 . S
C153 C152 1.346 . S
C153 H160 0.929 . S
C154 O144 1.282 . S
C154 O155 1.216 . S
O155 C154 1.216 . S
H156 C151 0.930 . S
H157 C152 0.930 . S
O158 Cu138 1.959 . S
O158 C145 1.251 . S
H159 C142 0.930 . S
H160 C153 0.929 . S
Cu161 N162 1.999 . S
Cu161 O167 1.974 . S
Cu161 N172 1.985 . S
Cu161 O181 1.959 . S
N162 Cu161 1.999 . S
N162 C164 1.263 . S
N162 C166 1.389 . S
N163 C164 1.358 . S
N163 C165 1.400 . S
C164 N162 1.263 . S
C164 N163 1.358 . S
C164 H170 0.930 . S
C165 N163 1.400 . S
C165 C166 1.351 . S
C165 H182 0.930 . S
C166 N162 1.389 . S
C166 C165 1.351 . S
C166 H171 0.930 . S
O167 Cu161 1.974 . S
O167 C177 1.282 . S
C168 O169 1.261 . S
C168 O181 1.251 . S
O169 C168 1.261 . S
H170 C164 0.930 . S
H171 C166 0.930 . S
N172 Cu161 1.985 . S
N172 C174 1.335 . S
N172 C175 1.390 . S
N173 C174 1.345 . S
N173 C176 1.336 . S
C174 N172 1.335 . S
C174 N173 1.345 . S
C174 H179 0.930 . S
C175 N172 1.390 . S
C175 C176 1.346 . S
C175 H180 0.930 . S
C176 N173 1.336 . S
C176 C175 1.346 . S
C176 H183 0.929 . S
C177 O167 1.282 . S
C177 O178 1.216 . S
O178 C177 1.216 . S
H179 C174 0.930 . S
H180 C175 0.930 . S
O181 Cu161 1.959 . S
O181 C168 1.251 . S
H182 C165 0.930 . S
H183 C176 0.929 . S
Cu184 N185 1.999 1_565 S
Cu184 O190 1.974 . S
Cu184 N195 1.985 . S
Cu184 O204 1.959 . S
N185 Cu184 1.999 1_545 S
N185 C187 1.263 . S
N185 C189 1.389 . S
N186 C187 1.358 . S
N186 C188 1.400 . S
C187 N185 1.263 . S
C187 N186 1.358 . S
C187 H193 0.930 . S
C188 N186 1.400 . S
C188 C189 1.351 . S
C188 H205 0.930 . S
C189 N185 1.389 . S
C189 C188 1.351 . S
C189 H194 0.930 . S
O190 Cu184 1.974 . S
O190 C200 1.282 . S
C191 O192 1.261 . S
C191 O204 1.251 . S
O192 C191 1.261 . S
H193 C187 0.930 . S
H194 C189 0.930 . S
N195 Cu184 1.985 . S
N195 C197 1.335 . S
N195 C198 1.390 . S
N196 C197 1.345 . S
N196 C199 1.336 . S
C197 N195 1.335 . S
C197 N196 1.345 . S
C197 H202 0.930 . S
C198 N195 1.390 . S
C198 C199 1.346 . S
C198 H203 0.930 . S
C199 N196 1.336 . S
C199 C198 1.346 . S
C199 H206 0.929 . S
C200 O190 1.282 . S
C200 O201 1.216 . S
O201 C200 1.216 . S
H202 C197 0.930 . S
H203 C198 0.930 . S
O204 Cu184 1.959 . S
O204 C191 1.251 . S
H205 C188 0.930 . S
H206 C199 0.929 . S
Cu207 N208 1.999 1_655 S
Cu207 O213 1.974 . S
Cu207 N218 1.985 . S
Cu207 O227 1.959 . S
N208 Cu207 1.999 1_455 S
N208 C210 1.263 . S
N208 C212 1.389 . S
N209 C210 1.358 . S
N209 C211 1.400 . S
C210 N208 1.263 . S
C210 N209 1.358 . S
C210 H216 0.930 . S
C211 N209 1.400 . S
C211 C212 1.351 . S
C211 H228 0.930 . S
C212 N208 1.389 . S
C212 C211 1.351 . S
C212 H217 0.930 . S
O213 Cu207 1.974 . S
O213 C223 1.282 . S
C214 O215 1.261 . S
C214 O227 1.251 . S
O215 C214 1.261 . S
H216 C210 0.930 . S
H217 C212 0.930 . S
N218 Cu207 1.985 . S
N218 C220 1.335 . S
N218 C221 1.390 . S
N219 C220 1.345 . S
N219 C222 1.336 . S
C220 N218 1.335 . S
C220 N219 1.345 . S
C220 H225 0.930 . S
C221 N218 1.390 . S
C221 C222 1.346 . S
C221 H226 0.930 . S
C222 N219 1.336 . S
C222 C221 1.346 . S
C222 H229 0.929 . S
C223 O213 1.282 . S
C223 O224 1.216 . S
O224 C223 1.216 . S
H225 C220 0.930 . S
H226 C221 0.930 . S
O227 Cu207 1.959 . S
O227 C214 1.251 . S
H228 C211 0.930 . S
H229 C222 0.929 . S
Cu230 N231 1.999 1_545 S
Cu230 O236 1.974 . S
Cu230 N241 1.985 . S
Cu230 O250 1.959 . S
N231 Cu230 1.999 1_565 S
N231 C233 1.263 . S
N231 C235 1.389 . S
N232 C233 1.358 . S
N232 C234 1.400 . S
C233 N231 1.263 . S
C233 N232 1.358 . S
C233 H239 0.930 . S
C234 N232 1.400 . S
C234 C235 1.351 . S
C234 H251 0.930 . S
C235 N231 1.389 . S
C235 C234 1.351 . S
C235 H240 0.930 . S
O236 Cu230 1.974 . S
O236 C246 1.282 . S
C237 O238 1.261 . S
C237 O250 1.251 . S
O238 C237 1.261 . S
H239 C233 0.930 . S
H240 C235 0.930 . S
N241 Cu230 1.985 . S
N241 C243 1.335 . S
N241 C244 1.390 . S
N242 C243 1.345 . S
N242 C245 1.336 . S
C243 N241 1.335 . S
C243 N242 1.345 . S
C243 H248 0.930 . S
C244 N241 1.390 . S
C244 C245 1.346 . S
C244 H249 0.930 . S
C245 N242 1.336 . S
C245 C244 1.346 . S
C245 H252 0.929 . S
C246 O236 1.282 . S
C246 O247 1.216 . S
O247 C246 1.216 . S
H248 C243 0.930 . S
H249 C244 0.930 . S
O250 Cu230 1.959 . S
O250 C237 1.251 . S
H251 C234 0.930 . S
H252 C245 0.929 . S
Cu253 N254 1.999 1_455 S
Cu253 O259 1.974 . S
Cu253 N264 1.985 . S
Cu253 O273 1.959 . S
N254 Cu253 1.999 1_655 S
N254 C256 1.263 . S
N254 C258 1.389 . S
N255 C256 1.358 . S
N255 C257 1.400 . S
C256 N254 1.263 . S
C256 N255 1.358 . S
C256 H262 0.930 . S
C257 N255 1.400 . S
C257 C258 1.351 . S
C257 H274 0.930 . S
C258 N254 1.389 . S
C258 C257 1.351 . S
C258 H263 0.930 . S
O259 Cu253 1.974 . S
O259 C269 1.282 . S
C260 O261 1.261 . S
C260 O273 1.251 . S
O261 C260 1.261 . S
H262 C256 0.930 . S
H263 C258 0.930 . S
N264 Cu253 1.985 . S
N264 C266 1.335 . S
N264 C267 1.390 . S
N265 C266 1.345 . S
N265 C268 1.336 . S
C266 N264 1.335 . S
C266 N265 1.345 . S
C266 H271 0.930 . S
C267 N264 1.390 . S
C267 C268 1.346 . S
C267 H272 0.930 . S
C268 N265 1.336 . S
C268 C267 1.346 . S
C268 H275 0.929 . S
C269 O259 1.282 . S
C269 O270 1.216 . S
O270 C269 1.216 . S
H271 C266 0.930 . S
H272 C267 0.930 . S
O273 Cu253 1.959 . S
O273 C260 1.251 . S
H274 C257 0.930 . S
H275 C268 0.929 . S
Cu276 N277 1.999 1_545 S
Cu276 O282 1.974 . S
Cu276 N287 1.985 . S
Cu276 O296 1.959 . S
N277 Cu276 1.999 1_565 S
N277 C279 1.263 . S
N277 C281 1.389 . S
N278 C279 1.358 . S
N278 C280 1.400 . S
C279 N277 1.263 . S
C279 N278 1.358 . S
C279 H285 0.930 . S
C280 N278 1.400 . S
C280 C281 1.351 . S
C280 H297 0.930 . S
C281 N277 1.389 . S
C281 C280 1.351 . S
C281 H286 0.930 . S
O282 Cu276 1.974 . S
O282 C292 1.282 . S
C283 O284 1.261 . S
C283 O296 1.251 . S
O284 C283 1.261 . S
H285 C279 0.930 . S
H286 C281 0.930 . S
N287 Cu276 1.985 . S
N287 C289 1.335 . S
N287 C290 1.390 . S
N288 C289 1.345 . S
N288 C291 1.336 . S
C289 N287 1.335 . S
C289 N288 1.345 . S
C289 H294 0.930 . S
C290 N287 1.390 . S
C290 C291 1.346 . S
C290 H295 0.930 . S
C291 N288 1.336 . S
C291 C290 1.346 . S
C291 H298 0.929 . S
C292 O282 1.282 . S
C292 O293 1.216 . S
O293 C292 1.216 . S
H294 C289 0.930 . S
H295 C290 0.930 . S
O296 Cu276 1.959 . S
O296 C283 1.251 . S
H297 C280 0.930 . S
H298 C291 0.929 . S
Cu299 N300 1.999 1_455 S
Cu299 O305 1.974 . S
Cu299 N310 1.985 . S
Cu299 O319 1.959 . S
N300 Cu299 1.999 1_655 S
N300 C302 1.263 . S
N300 C304 1.389 . S
N301 C302 1.358 . S
N301 C303 1.400 . S
C302 N300 1.263 . S
C302 N301 1.358 . S
C302 H308 0.930 . S
C303 N301 1.400 . S
C303 C304 1.351 . S
C303 H320 0.930 . S
C304 N300 1.389 . S
C304 C303 1.351 . S
C304 H309 0.930 . S
O305 Cu299 1.974 . S
O305 C315 1.282 . S
C306 O307 1.261 . S
C306 O319 1.251 . S
O307 C306 1.261 . S
H308 C302 0.930 . S
H309 C304 0.930 . S
N310 Cu299 1.985 . S
N310 C312 1.335 . S
N310 C313 1.390 . S
N311 C312 1.345 . S
N311 C314 1.336 . S
C312 N310 1.335 . S
C312 N311 1.345 . S
C312 H317 0.930 . S
C313 N310 1.390 . S
C313 C314 1.346 . S
C313 H318 0.930 . S
C314 N311 1.336 . S
C314 C313 1.346 . S
C314 H321 0.929 . S
C315 O305 1.282 . S
C315 O316 1.216 . S
O316 C315 1.216 . S
H317 C312 0.930 . S
H318 C313 0.930 . S
O319 Cu299 1.959 . S
O319 C306 1.251 . S
H320 C303 0.930 . S
H321 C314 0.929 . S
Cu322 N323 1.999 1_565 S
Cu322 O328 1.974 . S
Cu322 N333 1.985 . S
Cu322 O342 1.959 . S
N323 Cu322 1.999 1_545 S
N323 C325 1.263 . S
N323 C327 1.389 . S
N324 C325 1.358 . S
N324 C326 1.400 . S
C325 N323 1.263 . S
C325 N324 1.358 . S
C325 H331 0.930 . S
C326 N324 1.400 . S
C326 C327 1.351 . S
C326 H343 0.930 . S
C327 N323 1.389 . S
C327 C326 1.351 . S
C327 H332 0.930 . S
O328 Cu322 1.974 . S
O328 C338 1.282 . S
C329 O330 1.261 . S
C329 O342 1.251 . S
O330 C329 1.261 . S
H331 C325 0.930 . S
H332 C327 0.930 . S
N333 Cu322 1.985 . S
N333 C335 1.335 . S
N333 C336 1.390 . S
N334 C335 1.345 . S
N334 C337 1.336 . S
C335 N333 1.335 . S
C335 N334 1.345 . S
C335 H340 0.930 . S
C336 N333 1.390 . S
C336 C337 1.346 . S
C336 H341 0.930 . S
C337 N334 1.336 . S
C337 C336 1.346 . S
C337 H344 0.929 . S
C338 O328 1.282 . S
C338 O339 1.216 . S
O339 C338 1.216 . S
H340 C335 0.930 . S
H341 C336 0.930 . S
O342 Cu322 1.959 . S
O342 C329 1.251 . S
H343 C326 0.930 . S
H344 C337 0.929 . S
Cu345 N346 1.999 1_655 S
Cu345 O351 1.974 . S
Cu345 N356 1.985 . S
Cu345 O365 1.959 . S
N346 Cu345 1.999 1_455 S
N346 C348 1.263 . S
N346 C350 1.389 . S
N347 C348 1.358 . S
N347 C349 1.400 . S
C348 N346 1.263 . S
C348 N347 1.358 . S
C348 H354 0.930 . S
C349 N347 1.400 . S
C349 C350 1.351 . S
C349 H366 0.930 . S
C350 N346 1.389 . S
C350 C349 1.351 . S
C350 H355 0.930 . S
O351 Cu345 1.974 . S
O351 C361 1.282 . S
C352 O353 1.261 . S
C352 O365 1.251 . S
O353 C352 1.261 . S
H354 C348 0.930 . S
H355 C350 0.930 . S
N356 Cu345 1.985 . S
N356 C358 1.335 . S
N356 C359 1.390 . S
N357 C358 1.345 . S
N357 C360 1.336 . S
C358 N356 1.335 . S
C358 N357 1.345 . S
C358 H363 0.930 . S
C359 N356 1.390 . S
C359 C360 1.346 . S
C359 H364 0.930 . S
C360 N357 1.336 . S
C360 C359 1.346 . S
C360 H367 0.929 . S
C361 O351 1.282 . S
C361 O362 1.216 . S
O362 C361 1.216 . S
H363 C358 0.930 . S
H364 C359 0.930 . S
O365 Cu345 1.959 . S
O365 C352 1.251 . S
H366 C349 0.930 . S
H367 C360 0.929 . S
C368 C369 1.363 . S
C368 C374 1.379 . S
C368 N376 1.356 . S
C369 C368 1.363 . S
C369 C375 1.363 . S
C370 C371 1.363 . S
C370 C375 1.379 . S
C370 N377 1.356 . S
C371 C370 1.363 . S
C371 C374 1.363 . S
N372 C374 1.356 . S
N372 H384 0.984 . S
N372 H385 0.985 . S
N373 C375 1.356 . S
N373 H378 0.984 . S
N373 H379 0.985 . S
C374 C368 1.379 . S
C374 C371 1.363 . S
C374 N372 1.356 . S
C375 C369 1.363 . S
C375 C370 1.379 . S
C375 N373 1.356 . S
N376 C368 1.356 . S
N376 H382 0.984 . S
N376 H383 0.984 . S
N377 C370 1.356 . S
N377 H380 0.984 . S
N377 H381 0.985 . S
H378 N373 0.984 . S
H379 N373 0.985 . S
H380 N377 0.984 . S
H381 N377 0.985 . S
H382 N376 0.984 . S
H383 N376 0.984 . S
H384 N372 0.984 . S
H385 N372 0.985 . S
C386 C387 1.363 . S
C386 C392 1.379 . S
C386 N394 1.356 . S
C387 C386 1.363 . S
C387 C393 1.363 . S
C388 C389 1.363 . S
C388 C393 1.379 . S
C388 N395 1.356 . S
C389 C388 1.363 . S
C389 C392 1.363 . S
N390 C392 1.356 . S
N390 H402 0.984 . S
N390 H403 0.985 . S
N391 C393 1.356 . S
N391 H396 0.984 . S
N391 H397 0.985 . S
C392 C386 1.379 . S
C392 C389 1.363 . S
C392 N390 1.356 . S
C393 C387 1.363 . S
C393 C388 1.379 . S
C393 N391 1.356 . S
N394 C386 1.356 . S
N394 H400 0.984 . S
N394 H401 0.984 . S
N395 C388 1.356 . S
N395 H398 0.984 . S
N395 H399 0.985 . S
H396 N391 0.984 . S
H397 N391 0.985 . S
H398 N395 0.984 . S
H399 N395 0.985 . S
H400 N394 0.984 . S
H401 N394 0.984 . S
H402 N390 0.984 . S
H403 N390 0.985 . S
C404 C405 1.363 . S
C404 C410 1.379 . S
C404 N412 1.356 . S
C405 C404 1.363 . S
C405 C411 1.363 . S
C406 C407 1.363 . S
C406 C411 1.379 . S
C406 N413 1.356 . S
C407 C406 1.363 . S
C407 C410 1.363 . S
N408 C410 1.356 . S
N408 H420 0.984 . S
N408 H421 0.985 . S
N409 C411 1.356 . S
N409 H414 0.984 . S
N409 H415 0.985 . S
C410 C404 1.379 . S
C410 C407 1.363 . S
C410 N408 1.356 . S
C411 C405 1.363 . S
C411 C406 1.379 . S
C411 N409 1.356 . S
N412 C404 1.356 . S
N412 H418 0.984 . S
N412 H419 0.984 . S
N413 C406 1.356 . S
N413 H416 0.984 . S
N413 H417 0.985 . S
H414 N409 0.984 . S
H415 N409 0.985 . S
H416 N413 0.984 . S
H417 N413 0.985 . S
H418 N412 0.984 . S
H419 N412 0.984 . S
H420 N408 0.984 . S
H421 N408 0.985 . S
C422 C423 1.363 . S
C422 C428 1.379 . S
C422 N430 1.356 . S
C423 C422 1.363 . S
C423 C429 1.363 . S
C424 C425 1.363 . S
C424 C429 1.379 . S
C424 N431 1.356 . S
C425 C424 1.363 . S
C425 C428 1.363 . S
N426 C428 1.356 . S
N426 H438 0.984 . S
N426 H439 0.985 . S
N427 C429 1.356 . S
N427 H432 0.984 . S
N427 H433 0.985 . S
C428 C422 1.379 . S
C428 C425 1.363 . S
C428 N426 1.356 . S
C429 C423 1.363 . S
C429 C424 1.379 . S
C429 N427 1.356 . S
N430 C422 1.356 . S
N430 H436 0.984 . S
N430 H437 0.984 . S
N431 C424 1.356 . S
N431 H434 0.984 . S
N431 H435 0.985 . S
H432 N427 0.984 . S
H433 N427 0.985 . S
H434 N431 0.984 . S
H435 N431 0.985 . S
H436 N430 0.984 . S
H437 N430 0.984 . S
H438 N426 0.984 . S
H439 N426 0.985 . S
C440 C441 1.363 . S
C440 C446 1.379 . S
C440 N448 1.356 . S
C441 C440 1.363 . S
C441 C447 1.363 . S
C442 C443 1.363 . S
C442 C447 1.379 . S
C442 N449 1.356 . S
C443 C442 1.363 . S
C443 C446 1.363 . S
N444 C446 1.356 . S
N444 H456 0.984 . S
N444 H457 0.985 . S
N445 C447 1.356 . S
N445 H450 0.984 . S
N445 H451 0.985 . S
C446 C440 1.379 . S
C446 C443 1.363 . S
C446 N444 1.356 . S
C447 C441 1.363 . S
C447 C442 1.379 . S
C447 N445 1.356 . S
N448 C440 1.356 . S
N448 H454 0.984 . S
N448 H455 0.984 . S
N449 C442 1.356 . S
N449 H452 0.984 . S
N449 H453 0.985 . S
H450 N445 0.984 . S
H451 N445 0.985 . S
H452 N449 0.984 . S
H453 N449 0.985 . S
H454 N448 0.984 . S
H455 N448 0.984 . S
H456 N444 0.984 . S
H457 N444 0.985 . S
C458 C459 1.363 . S
C458 C464 1.379 . S
C458 N466 1.356 . S
C459 C458 1.363 . S
C459 C465 1.363 . S
C460 C461 1.363 . S
C460 C465 1.379 . S
C460 N467 1.356 . S
C461 C460 1.363 . S
C461 C464 1.363 . S
N462 C464 1.356 . S
N462 H474 0.984 . S
N462 H475 0.985 . S
N463 C465 1.356 . S
N463 H468 0.984 . S
N463 H469 0.985 . S
C464 C458 1.379 . S
C464 C461 1.363 . S
C464 N462 1.356 . S
C465 C459 1.363 . S
C465 C460 1.379 . S
C465 N463 1.356 . S
N466 C458 1.356 . S
N466 H472 0.984 . S
N466 H473 0.984 . S
N467 C460 1.356 . S
N467 H470 0.984 . S
N467 H471 0.985 . S
H468 N463 0.984 . S
H469 N463 0.985 . S
H470 N467 0.984 . S
H471 N467 0.985 . S
H472 N466 0.984 . S
H473 N466 0.984 . S
H474 N462 0.984 . S
H475 N462 0.985 . S
C476 C477 1.363 . S
C476 C482 1.379 . S
C476 N484 1.356 . S
C477 C476 1.363 . S
C477 C483 1.363 . S
C478 C479 1.363 . S
C478 C483 1.379 . S
C478 N485 1.356 . S
C479 C478 1.363 . S
C479 C482 1.363 . S
N480 C482 1.356 . S
N480 H492 0.984 . S
N480 H493 0.985 . S
N481 C483 1.356 . S
N481 H486 0.984 . S
N481 H487 0.985 . S
C482 C476 1.379 . S
C482 C479 1.363 . S
C482 N480 1.356 . S
C483 C477 1.363 . S
C483 C478 1.379 . S
C483 N481 1.356 . S
N484 C476 1.356 . S
N484 H490 0.984 . S
N484 H491 0.984 . S
N485 C478 1.356 . S
N485 H488 0.984 . S
N485 H489 0.985 . S
H486 N481 0.984 . S
H487 N481 0.985 . S
H488 N485 0.984 . S
H489 N485 0.985 . S
H490 N484 0.984 . S
H491 N484 0.984 . S
H492 N480 0.984 . S
H493 N480 0.985 . S
C494 C495 1.363 . S
C494 C500 1.379 . S
C494 N502 1.356 . S
C495 C494 1.363 . S
C495 C501 1.363 . S
C496 C497 1.363 . S
C496 C501 1.379 . S
C496 N503 1.356 . S
C497 C496 1.363 . S
C497 C500 1.363 . S
N498 C500 1.356 . S
N498 H510 0.984 . S
N498 H511 0.985 . S
N499 C501 1.356 . S
N499 H504 0.984 . S
N499 H505 0.985 . S
C500 C494 1.379 . S
C500 C497 1.363 . S
C500 N498 1.356 . S
C501 C495 1.363 . S
C501 C496 1.379 . S
C501 N499 1.356 . S
N502 C494 1.356 . S
N502 H508 0.984 . S
N502 H509 0.984 . S
N503 C496 1.356 . S
N503 H506 0.984 . S
N503 H507 0.985 . S
H504 N499 0.984 . S
H505 N499 0.985 . S
H506 N503 0.984 . S
H507 N503 0.985 . S
H508 N502 0.984 . S
H509 N502 0.984 . S
H510 N498 0.984 . S
H511 N498 0.985 . S
C512 C513 1.363 . S
C512 C518 1.379 . S
C512 N520 1.356 . S
C513 C512 1.363 . S
C513 C519 1.363 . S
C514 C515 1.363 . S
C514 C519 1.379 . S
C514 N521 1.356 . S
C515 C514 1.363 . S
C515 C518 1.363 . S
N516 C518 1.356 . S
N516 H528 0.984 . S
N516 H529 0.985 . S
N517 C519 1.356 . S
N517 H522 0.984 . S
N517 H523 0.985 . S
C518 C512 1.379 . S
C518 C515 1.363 . S
C518 N516 1.356 . S
C519 C513 1.363 . S
C519 C514 1.379 . S
C519 N517 1.356 . S
N520 C512 1.356 . S
N520 H526 0.984 . S
N520 H527 0.984 . S
N521 C514 1.356 . S
N521 H524 0.984 . S
N521 H525 0.985 . S
H522 N517 0.984 . S
H523 N517 0.985 . S
H524 N521 0.984 . S
H525 N521 0.985 . S
H526 N520 0.984 . S
H527 N520 0.984 . S
H528 N516 0.984 . S
H529 N516 0.985 . S
C530 C531 1.363 . S
C530 C536 1.379 . S
C530 N538 1.356 . S
C531 C530 1.363 . S
C531 C537 1.363 . S
C532 C533 1.363 . S
C532 C537 1.379 . S
C532 N539 1.356 . S
C533 C532 1.363 . S
C533 C536 1.363 . S
N534 C536 1.356 . S
N534 H546 0.984 . S
N534 H547 0.985 . S
N535 C537 1.356 . S
N535 H540 0.984 . S
N535 H541 0.985 . S
C536 C530 1.379 . S
C536 C533 1.363 . S
C536 N534 1.356 . S
C537 C531 1.363 . S
C537 C532 1.379 . S
C537 N535 1.356 . S
N538 C530 1.356 . S
N538 H544 0.984 . S
N538 H545 0.984 . S
N539 C532 1.356 . S
N539 H542 0.984 . S
N539 H543 0.985 . S
H540 N535 0.984 . S
H541 N535 0.985 . S
H542 N539 0.984 . S
H543 N539 0.985 . S
H544 N538 0.984 . S
H545 N538 0.984 . S
H546 N534 0.984 . S
H547 N534 0.985 . S
C548 C549 1.363 . S
C548 C554 1.379 . S
C548 N556 1.356 . S
C549 C548 1.363 . S
C549 C555 1.363 . S
C550 C551 1.363 . S
C550 C555 1.379 . S
C550 N557 1.356 . S
C551 C550 1.363 . S
C551 C554 1.363 . S
N552 C554 1.356 . S
N552 H564 0.984 . S
N552 H565 0.985 . S
N553 C555 1.356 . S
N553 H558 0.984 . S
N553 H559 0.985 . S
C554 C548 1.379 . S
C554 C551 1.363 . S
C554 N552 1.356 . S
C555 C549 1.363 . S
C555 C550 1.379 . S
C555 N553 1.356 . S
N556 C548 1.356 . S
N556 H562 0.984 . S
N556 H563 0.984 . S
N557 C550 1.356 . S
N557 H560 0.984 . S
N557 H561 0.985 . S
H558 N553 0.984 . S
H559 N553 0.985 . S
H560 N557 0.984 . S
H561 N557 0.985 . S
H562 N556 0.984 . S
H563 N556 0.984 . S
H564 N552 0.984 . S
H565 N552 0.985 . S
C566 C567 1.363 . S
C566 C572 1.379 . S
C566 N574 1.356 . S
C567 C566 1.363 . S
C567 C573 1.363 . S
C568 C569 1.363 . S
C568 C573 1.379 . S
C568 N575 1.356 . S
C569 C568 1.363 . S
C569 C572 1.363 . S
N570 C572 1.356 . S
N570 H582 0.984 . S
N570 H583 0.985 . S
N571 C573 1.356 . S
N571 H576 0.984 . S
N571 H577 0.985 . S
C572 C566 1.379 . S
C572 C569 1.363 . S
C572 N570 1.356 . S
C573 C567 1.363 . S
C573 C568 1.379 . S
C573 N571 1.356 . S
N574 C566 1.356 . S
N574 H580 0.984 . S
N574 H581 0.984 . S
N575 C568 1.356 . S
N575 H578 0.984 . S
N575 H579 0.985 . S
H576 N571 0.984 . S
H577 N571 0.985 . S
H578 N575 0.984 . S
H579 N575 0.985 . S
H580 N574 0.984 . S
H581 N574 0.984 . S
H582 N570 0.984 . S
H583 N570 0.985 . S
C584 C585 1.363 . S
C584 C590 1.379 . S
C584 N592 1.356 . S
C585 C584 1.363 . S
C585 C591 1.363 . S
C586 C587 1.363 . S
C586 C591 1.379 . S
C586 N593 1.356 . S
C587 C586 1.363 . S
C587 C590 1.363 . S
N588 C590 1.356 . S
N588 H600 0.984 . S
N588 H601 0.985 . S
N589 C591 1.356 . S
N589 H594 0.984 . S
N589 H595 0.985 . S
C590 C584 1.379 . S
C590 C587 1.363 . S
C590 N588 1.356 . S
C591 C585 1.363 . S
C591 C586 1.379 . S
C591 N589 1.356 . S
N592 C584 1.356 . S
N592 H598 0.984 . S
N592 H599 0.984 . S
N593 C586 1.356 . S
N593 H596 0.984 . S
N593 H597 0.985 . S
H594 N589 0.984 . S
H595 N589 0.985 . S
H596 N593 0.984 . S
H597 N593 0.985 . S
H598 N592 0.984 . S
H599 N592 0.984 . S
H600 N588 0.984 . S
H601 N588 0.985 . S
C602 C603 1.363 . S
C602 C608 1.379 . S
C602 N610 1.356 . S
C603 C602 1.363 . S
C603 C609 1.363 . S
C604 C605 1.363 . S
C604 C609 1.379 . S
C604 N611 1.356 . S
C605 C604 1.363 . S
C605 C608 1.363 . S
N606 C608 1.356 . S
N606 H618 0.984 . S
N606 H619 0.985 . S
N607 C609 1.356 . S
N607 H612 0.984 . S
N607 H613 0.985 . S
C608 C602 1.379 . S
C608 C605 1.363 . S
C608 N606 1.356 . S
C609 C603 1.363 . S
C609 C604 1.379 . S
C609 N607 1.356 . S
N610 C602 1.356 . S
N610 H616 0.984 . S
N610 H617 0.984 . S
N611 C604 1.356 . S
N611 H614 0.984 . S
N611 H615 0.985 . S
H612 N607 0.984 . S
H613 N607 0.985 . S
H614 N611 0.984 . S
H615 N611 0.985 . S
H616 N610 0.984 . S
H617 N610 0.984 . S
H618 N606 0.984 . S
H619 N606 0.985 . S
C620 C621 1.363 . S
C620 C626 1.379 . S
C620 N628 1.356 . S
C621 C620 1.363 . S
C621 C627 1.363 . S
C622 C623 1.363 . S
C622 C627 1.379 . S
C622 N629 1.356 . S
C623 C622 1.363 . S
C623 C626 1.363 . S
N624 C626 1.356 . S
N624 H636 0.984 . S
N624 H637 0.985 . S
N625 C627 1.356 . S
N625 H630 0.984 . S
N625 H631 0.985 . S
C626 C620 1.379 . S
C626 C623 1.363 . S
C626 N624 1.356 . S
C627 C621 1.363 . S
C627 C622 1.379 . S
C627 N625 1.356 . S
N628 C620 1.356 . S
N628 H634 0.984 . S
N628 H635 0.984 . S
N629 C622 1.356 . S
N629 H632 0.984 . S
N629 H633 0.985 . S
H630 N625 0.984 . S
H631 N625 0.985 . S
H632 N629 0.984 . S
H633 N629 0.985 . S
H634 N628 0.984 . S
H635 N628 0.984 . S
H636 N624 0.984 . S
H637 N624 0.985 . S
C638 C639 1.363 . S
C638 C644 1.379 . S
C638 N646 1.356 . S
C639 C638 1.363 . S
C639 C645 1.363 . S
C640 C641 1.363 . S
C640 C645 1.379 . S
C640 N647 1.356 . S
C641 C640 1.363 . S
C641 C644 1.363 . S
N642 C644 1.356 . S
N642 H654 0.984 . S
N642 H655 0.985 . S
N643 C645 1.356 . S
N643 H648 0.984 . S
N643 H649 0.985 . S
C644 C638 1.379 . S
C644 C641 1.363 . S
C644 N642 1.356 . S
C645 C639 1.363 . S
C645 C640 1.379 . S
C645 N643 1.356 . S
N646 C638 1.356 . S
N646 H652 0.984 . S
N646 H653 0.984 . S
N647 C640 1.356 . S
N647 H650 0.984 . S
N647 H651 0.985 . S
H648 N643 0.984 . S
H649 N643 0.985 . S
H650 N647 0.984 . S
H651 N647 0.985 . S
H652 N646 0.984 . S
H653 N646 0.984 . S
H654 N642 0.984 . S
H655 N642 0.985 . S
C656 C657 1.363 . S
C656 C662 1.379 . S
C656 N664 1.356 . S
C657 C656 1.363 . S
C657 C663 1.363 . S
C658 C659 1.363 . S
C658 C663 1.379 . S
C658 N665 1.356 . S
C659 C658 1.363 . S
C659 C662 1.363 . S
N660 C662 1.356 . S
N660 H672 0.984 . S
N660 H673 0.985 . S
N661 C663 1.356 . S
N661 H666 0.984 . S
N661 H667 0.985 . S
C662 C656 1.379 . S
C662 C659 1.363 . S
C662 N660 1.356 . S
C663 C657 1.363 . S
C663 C658 1.379 . S
C663 N661 1.356 . S
N664 C656 1.356 . S
N664 H670 0.984 . S
N664 H671 0.984 . S
N665 C658 1.356 . S
N665 H668 0.984 . S
N665 H669 0.985 . S
H666 N661 0.984 . S
H667 N661 0.985 . S
H668 N665 0.984 . S
H669 N665 0.985 . S
H670 N664 0.984 . S
H671 N664 0.984 . S
H672 N660 0.984 . S
H673 N660 0.985 . S
C674 C675 1.363 . S
C674 C680 1.379 . S
C674 N682 1.356 . S
C675 C674 1.363 . S
C675 C681 1.363 . S
C676 C677 1.363 . S
C676 C681 1.379 . S
C676 N683 1.356 . S
C677 C676 1.363 . S
C677 C680 1.363 . S
N678 C680 1.356 . S
N678 H690 0.984 . S
N678 H691 0.985 . S
N679 C681 1.356 . S
N679 H684 0.984 . S
N679 H685 0.985 . S
C680 C674 1.379 . S
C680 C677 1.363 . S
C680 N678 1.356 . S
C681 C675 1.363 . S
C681 C676 1.379 . S
C681 N679 1.356 . S
N682 C674 1.356 . S
N682 H688 0.984 . S
N682 H689 0.984 . S
N683 C676 1.356 . S
N683 H686 0.984 . S
N683 H687 0.985 . S
H684 N679 0.984 . S
H685 N679 0.985 . S
H686 N683 0.984 . S
H687 N683 0.985 . S
H688 N682 0.984 . S
H689 N682 0.984 . S
H690 N678 0.984 . S
H691 N678 0.985 . S
C692 C693 1.363 . S
C692 C698 1.379 . S
C692 N700 1.356 . S
C693 C692 1.363 . S
C693 C699 1.363 . S
C694 C695 1.363 . S
C694 C699 1.379 . S
C694 N701 1.356 . S
C695 C694 1.363 . S
C695 C698 1.363 . S
N696 C698 1.356 . S
N696 H708 0.984 . S
N696 H709 0.985 . S
N697 C699 1.356 . S
N697 H702 0.984 . S
N697 H703 0.985 . S
C698 C692 1.379 . S
C698 C695 1.363 . S
C698 N696 1.356 . S
C699 C693 1.363 . S
C699 C694 1.379 . S
C699 N697 1.356 . S
N700 C692 1.356 . S
N700 H706 0.984 . S
N700 H707 0.984 . S
N701 C694 1.356 . S
N701 H704 0.984 . S
N701 H705 0.985 . S
H702 N697 0.984 . S
H703 N697 0.985 . S
H704 N701 0.984 . S
H705 N701 0.985 . S
H706 N700 0.984 . S
H707 N700 0.984 . S
H708 N696 0.984 . S
H709 N696 0.985 . S
C710 C711 1.363 . S
C710 C716 1.379 . S
C710 N718 1.356 . S
C711 C710 1.363 . S
C711 C717 1.363 . S
C712 C713 1.363 . S
C712 C717 1.379 . S
C712 N719 1.356 . S
C713 C712 1.363 . S
C713 C716 1.363 . S
N714 C716 1.356 . S
N714 H726 0.984 . S
N714 H727 0.985 . S
N715 C717 1.356 . S
N715 H720 0.984 . S
N715 H721 0.985 . S
C716 C710 1.379 . S
C716 C713 1.363 . S
C716 N714 1.356 . S
C717 C711 1.363 . S
C717 C712 1.379 . S
C717 N715 1.356 . S
N718 C710 1.356 . S
N718 H724 0.984 . S
N718 H725 0.984 . S
N719 C712 1.356 . S
N719 H722 0.984 . S
N719 H723 0.985 . S
H720 N715 0.984 . S
H721 N715 0.985 . S
H722 N719 0.984 . S
H723 N719 0.985 . S
H724 N718 0.984 . S
H725 N718 0.984 . S
H726 N714 0.984 . S
H727 N714 0.985 . S
C728 C729 1.363 . S
C728 C734 1.379 . S
C728 N736 1.356 . S
C729 C728 1.363 . S
C729 C735 1.363 . S
C730 C731 1.363 . S
C730 C735 1.379 . S
C730 N737 1.356 . S
C731 C730 1.363 . S
C731 C734 1.363 . S
N732 C734 1.356 . S
N732 H744 0.984 . S
N732 H745 0.985 . S
N733 C735 1.356 . S
N733 H738 0.984 . S
N733 H739 0.985 . S
C734 C728 1.379 . S
C734 C731 1.363 . S
C734 N732 1.356 . S
C735 C729 1.363 . S
C735 C730 1.379 . S
C735 N733 1.356 . S
N736 C728 1.356 . S
N736 H742 0.984 . S
N736 H743 0.984 . S
N737 C730 1.356 . S
N737 H740 0.984 . S
N737 H741 0.985 . S
H738 N733 0.984 . S
H739 N733 0.985 . S
H740 N737 0.984 . S
H741 N737 0.985 . S
H742 N736 0.984 . S
H743 N736 0.984 . S
H744 N732 0.984 . S
H745 N732 0.985 . S
C746 C747 1.363 . S
C746 C752 1.379 . S
C746 N754 1.356 . S
C747 C746 1.363 . S
C747 C753 1.363 . S
C748 C749 1.363 . S
C748 C753 1.379 . S
C748 N755 1.356 . S
C749 C748 1.363 . S
C749 C752 1.363 . S
N750 C752 1.356 . S
N750 H762 0.984 . S
N750 H763 0.985 . S
N751 C753 1.356 . S
N751 H756 0.984 . S
N751 H757 0.985 . S
C752 C746 1.379 . S
C752 C749 1.363 . S
C752 N750 1.356 . S
C753 C747 1.363 . S
C753 C748 1.379 . S
C753 N751 1.356 . S
N754 C746 1.356 . S
N754 H760 0.984 . S
N754 H761 0.984 . S
N755 C748 1.356 . S
N755 H758 0.984 . S
N755 H759 0.985 . S
H756 N751 0.984 . S
H757 N751 0.985 . S
H758 N755 0.984 . S
H759 N755 0.985 . S
H760 N754 0.984 . S
H761 N754 0.984 . S
H762 N750 0.984 . S
H763 N750 0.985 . S
C764 C765 1.363 . S
C764 C770 1.379 . S
C764 N772 1.356 . S
C765 C764 1.363 . S
C765 C771 1.363 . S
C766 C767 1.363 . S
C766 C771 1.379 . S
C766 N773 1.356 . S
C767 C766 1.363 . S
C767 C770 1.363 . S
N768 C770 1.356 . S
N768 H780 0.984 . S
N768 H781 0.985 . S
N769 C771 1.356 . S
N769 H774 0.984 . S
N769 H775 0.985 . S
C770 C764 1.379 . S
C770 C767 1.363 . S
C770 N768 1.356 . S
C771 C765 1.363 . S
C771 C766 1.379 . S
C771 N769 1.356 . S
N772 C764 1.356 . S
N772 H778 0.984 . S
N772 H779 0.984 . S
N773 C766 1.356 . S
N773 H776 0.984 . S
N773 H777 0.985 . S
H774 N769 0.984 . S
H775 N769 0.985 . S
H776 N773 0.984 . S
H777 N773 0.985 . S
H778 N772 0.984 . S
H779 N772 0.984 . S
H780 N768 0.984 . S
H781 N768 0.985 . S
C782 C783 1.363 . S
C782 C788 1.379 . S
C782 N790 1.356 . S
C783 C782 1.363 . S
C783 C789 1.363 . S
C784 C785 1.363 . S
C784 C789 1.379 . S
C784 N791 1.356 . S
C785 C784 1.363 . S
C785 C788 1.363 . S
N786 C788 1.356 . S
N786 H798 0.984 . S
N786 H799 0.985 . S
N787 C789 1.356 . S
N787 H792 0.984 . S
N787 H793 0.985 . S
C788 C782 1.379 . S
C788 C785 1.363 . S
C788 N786 1.356 . S
C789 C783 1.363 . S
C789 C784 1.379 . S
C789 N787 1.356 . S
N790 C782 1.356 . S
N790 H796 0.984 . S
N790 H797 0.984 . S
N791 C784 1.356 . S
N791 H794 0.984 . S
N791 H795 0.985 . S
H792 N787 0.984 . S
H793 N787 0.985 . S
H794 N791 0.984 . S
H795 N791 0.985 . S
H796 N790 0.984 . S
H797 N790 0.984 . S
H798 N786 0.984 . S
H799 N786 0.985 . S
C800 C801 1.363 . S
C800 C806 1.379 . S
C800 N808 1.356 . S
C801 C800 1.363 . S
C801 C807 1.363 . S
C802 C803 1.363 . S
C802 C807 1.379 . S
C802 N809 1.356 . S
C803 C802 1.363 . S
C803 C806 1.363 . S
N804 C806 1.356 . S
N804 H816 0.984 . S
N804 H817 0.985 . S
N805 C807 1.356 . S
N805 H810 0.984 . S
N805 H811 0.985 . S
C806 C800 1.379 . S
C806 C803 1.363 . S
C806 N804 1.356 . S
C807 C801 1.363 . S
C807 C802 1.379 . S
C807 N805 1.356 . S
N808 C800 1.356 . S
N808 H814 0.984 . S
N808 H815 0.984 . S
N809 C802 1.356 . S
N809 H812 0.984 . S
N809 H813 0.985 . S
H810 N805 0.984 . S
H811 N805 0.985 . S
H812 N809 0.984 . S
H813 N809 0.985 . S
H814 N808 0.984 . S
H815 N808 0.984 . S
H816 N804 0.984 . S
H817 N804 0.985 . S
C818 C819 1.363 . S
C818 C824 1.379 . S
C818 N826 1.356 . S
C819 C818 1.363 . S
C819 C825 1.363 . S
C820 C821 1.363 . S
C820 C825 1.379 . S
C820 N827 1.356 . S
C821 C820 1.363 . S
C821 C824 1.363 . S
N822 C824 1.356 . S
N822 H834 0.984 . S
N822 H835 0.985 . S
N823 C825 1.356 . S
N823 H828 0.984 . S
N823 H829 0.985 . S
C824 C818 1.379 . S
C824 C821 1.363 . S
C824 N822 1.356 . S
C825 C819 1.363 . S
C825 C820 1.379 . S
C825 N823 1.356 . S
N826 C818 1.356 . S
N826 H832 0.984 . S
N826 H833 0.984 . S
N827 C820 1.356 . S
N827 H830 0.984 . S
N827 H831 0.985 . S
H828 N823 0.984 . S
H829 N823 0.985 . S
H830 N827 0.984 . S
H831 N827 0.985 . S
H832 N826 0.984 . S
H833 N826 0.984 . S
H834 N822 0.984 . S
H835 N822 0.985 . S
C836 C837 1.363 . S
C836 C842 1.379 . S
C836 N844 1.356 . S
C837 C836 1.363 . S
C837 C843 1.363 . S
C838 C839 1.363 . S
C838 C843 1.379 . S
C838 N845 1.356 . S
C839 C838 1.363 . S
C839 C842 1.363 . S
N840 C842 1.356 . S
N840 H852 0.984 . S
N840 H853 0.985 . S
N841 C843 1.356 . S
N841 H846 0.984 . S
N841 H847 0.985 . S
C842 C836 1.379 . S
C842 C839 1.363 . S
C842 N840 1.356 . S
C843 C837 1.363 . S
C843 C838 1.379 . S
C843 N841 1.356 . S
N844 C836 1.356 . S
N844 H850 0.984 . S
N844 H851 0.984 . S
N845 C838 1.356 . S
N845 H848 0.984 . S
N845 H849 0.985 . S
H846 N841 0.984 . S
H847 N841 0.985 . S
H848 N845 0.984 . S
H849 N845 0.985 . S
H850 N844 0.984 . S
H851 N844 0.984 . S
H852 N840 0.984 . S
H853 N840 0.985 . S
C854 C855 1.363 . S
C854 C860 1.379 . S
C854 N862 1.356 . S
C855 C854 1.363 . S
C855 C861 1.363 . S
C856 C857 1.363 . S
C856 C861 1.379 . S
C856 N863 1.356 . S
C857 C856 1.363 . S
C857 C860 1.363 . S
N858 C860 1.356 . S
N858 H870 0.984 . S
N858 H871 0.985 . S
N859 C861 1.356 . S
N859 H864 0.984 . S
N859 H865 0.985 . S
C860 C854 1.379 . S
C860 C857 1.363 . S
C860 N858 1.356 . S
C861 C855 1.363 . S
C861 C856 1.379 . S
C861 N859 1.356 . S
N862 C854 1.356 . S
N862 H868 0.984 . S
N862 H869 0.984 . S
N863 C856 1.356 . S
N863 H866 0.984 . S
N863 H867 0.985 . S
H864 N859 0.984 . S
H865 N859 0.985 . S
H866 N863 0.984 . S
H867 N863 0.985 . S
H868 N862 0.984 . S
H869 N862 0.984 . S
H870 N858 0.984 . S
H871 N858 0.985 . S
C872 C873 1.364 . S
C872 C878 1.379 1_554 S
C872 N880 1.356 . S
C873 C872 1.364 . S
C873 C879 1.362 1_545 S
C874 C875 1.364 . S
C874 C879 1.379 1_556 S
C874 N881 1.356 . S
C875 C874 1.364 . S
C875 C878 1.362 1_565 S
N876 C878 1.356 . S
N876 H888 0.984 . S
N876 H889 0.985 . S
N877 C879 1.356 . S
N877 H882 0.984 . S
N877 H883 0.985 . S
C878 C872 1.379 1_556 S
C878 C875 1.362 1_545 S
C878 N876 1.356 . S
C879 C873 1.362 1_565 S
C879 C874 1.379 1_554 S
C879 N877 1.356 . S
N880 C872 1.356 . S
N880 H886 0.984 . S
N880 H887 0.984 . S
N881 C874 1.356 . S
N881 H884 0.984 . S
N881 H885 0.985 . S
H882 N877 0.984 . S
H883 N877 0.985 . S
H884 N881 0.984 . S
H885 N881 0.985 . S
H886 N880 0.984 . S
H887 N880 0.984 . S
H888 N876 0.984 . S
H889 N876 0.985 . S
C890 C891 1.362 1_655 S
C890 C896 1.379 1_556 S
C890 N898 1.356 . S
C891 C890 1.362 1_455 S
C891 C897 1.364 . S
C892 C893 1.362 1_455 S
C892 C897 1.379 1_554 S
C892 N899 1.356 . S
C893 C892 1.362 1_655 S
C893 C896 1.364 . S
N894 C896 1.356 . S
N894 H906 0.984 . S
N894 H907 0.985 . S
N895 C897 1.356 . S
N895 H900 0.984 . S
N895 H901 0.985 . S
C896 C890 1.379 1_554 S
C896 C893 1.364 . S
C896 N894 1.356 . S
C897 C891 1.364 . S
C897 C892 1.379 1_556 S
C897 N895 1.356 . S
N898 C890 1.356 . S
N898 H904 0.984 . S
N898 H905 0.984 . S
N899 C892 1.356 . S
N899 H902 0.984 . S
N899 H903 0.985 . S
H900 N895 0.984 . S
H901 N895 0.985 . S
H902 N899 0.984 . S
H903 N899 0.985 . S
H904 N898 0.984 . S
H905 N898 0.984 . S
H906 N894 0.984 . S
H907 N894 0.985 . S
C908 C909 1.364 . S
C908 C914 1.379 1_556 S
C908 N916 1.356 . S
C909 C908 1.364 . S
C909 C915 1.362 1_545 S
C910 C911 1.364 . S
C910 C915 1.379 1_554 S
C910 N917 1.356 . S
C911 C910 1.364 . S
C911 C914 1.362 1_565 S
N912 C914 1.356 . S
N912 H924 0.984 . S
N912 H925 0.985 . S
N913 C915 1.356 . S
N913 H918 0.984 . S
N913 H919 0.985 . S
C914 C908 1.379 1_554 S
C914 C911 1.362 1_545 S
C914 N912 1.356 . S
C915 C909 1.362 1_565 S
C915 C910 1.379 1_556 S
C915 N913 1.356 . S
N916 C908 1.356 . S
N916 H922 0.984 . S
N916 H923 0.984 . S
N917 C910 1.356 . S
N917 H920 0.984 . S
N917 H921 0.985 . S
H918 N913 0.984 . S
H919 N913 0.985 . S
H920 N917 0.984 . S
H921 N917 0.985 . S
H922 N916 0.984 . S
H923 N916 0.984 . S
H924 N912 0.984 . S
H925 N912 0.985 . S
C926 C927 1.364 . S
C926 C932 1.379 1_556 S
C926 N934 1.356 . S
C927 C926 1.364 . S
C927 C933 1.362 1_655 S
C928 C929 1.364 . S
C928 C933 1.379 1_554 S
C928 N935 1.356 . S
C929 C928 1.364 . S
C929 C932 1.362 1_455 S
N930 C932 1.356 . S
N930 H942 0.984 . S
N930 H943 0.985 . S
N931 C933 1.356 . S
N931 H936 0.984 . S
N931 H937 0.985 . S
C932 C926 1.379 1_554 S
C932 C929 1.362 1_655 S
C932 N930 1.356 . S
C933 C927 1.362 1_455 S
C933 C928 1.379 1_556 S
C933 N931 1.356 . S
N934 C926 1.356 . S
N934 H940 0.984 . S
N934 H941 0.984 . S
N935 C928 1.356 . S
N935 H938 0.984 . S
N935 H939 0.985 . S
H936 N931 0.984 . S
H937 N931 0.985 . S
H938 N935 0.984 . S
H939 N935 0.985 . S
H940 N934 0.984 . S
H941 N934 0.984 . S
H942 N930 0.984 . S
H943 N930 0.985 . S
C369 N12 1.674 . S
C371 N173 1.674 . S
C387 N35 1.674 . S
C389 N104 1.674 . S
C405 N127 1.674 . S
C407 N58 1.674 . S
C423 N81 1.674 . S
C425 N150 1.674 . S
C441 N196 1.674 . S
C443 N357 1.674 . S
C459 N288 1.674 . S
C461 N219 1.674 . S
C477 N311 1.674 . S
C479 N242 1.674 . S
C495 N334 1.674 . S
C497 N265 1.674 . S
C513 N2 1.712 . S
C515 C269 1.710 . S
C531 N25 1.712 . S
C533 C200 1.710 . S
C549 C223 1.710 . S
C551 N48 1.712 . S
C567 N71 1.712 . S
C569 C246 1.710 . S
C585 N94 1.712 . S
C587 C315 1.710 . S
C603 C338 1.710 . S
C605 N117 1.712 . S
C621 N140 1.712 . S
C623 C361 1.710 . S
C639 C292 1.710 . S
C641 N163 1.712 . S
C657 N186 1.712 . S
C659 C85 1.710 . S
C675 C16 1.710 . S
C677 N209 1.712 . S
C693 N232 1.712 . S
C695 C39 1.710 . S
C711 C62 1.710 . S
C713 N255 1.712 . S
C729 N278 1.712 . S
C731 C131 1.710 . S
C747 C154 1.710 . S
C749 N301 1.712 . S
C765 C177 1.710 . S
C767 N324 1.712 . S
C783 C108 1.710 . S
C785 N347 1.712 . S
C801 C99 1.927 . S
C803 C7 1.927 . S
C819 C122 1.927 . S
C821 C30 1.927 . S
C837 C53 1.927 . S
C839 C145 1.927 . S
C855 C168 1.927 . S
C857 C76 1.927 . S
C873 C283 1.928 . S
C875 C191 1.928 . S
C891 C306 1.928 . S
C893 C214 1.928 . S
C909 C237 1.928 . S
C911 C329 1.928 . S
C927 C352 1.928 . S
C929 C260 1.928 . S
