# Generated by pormake.
# Topology can, (4)-cn, num edge types: 1
# Building blocks:
#     Node 0, Type 0, BuildingBlock: AZAVOO_clean_sbu_0, # of connection points: 4
#     Node 1, Type 0, BuildingBlock: AZAVOO_clean_sbu_0, # of connection points: 4
#     Node 2, Type 0, BuildingBlock: AZAVOO_clean_sbu_0, # of connection points: 4
#     Node 3, Type 0, BuildingBlock: AZAVOO_clean_sbu_0, # of connection points: 4
#     Node 4, Type 0, BuildingBlock: AZAVOO_clean_sbu_0, # of connection points: 4
#     Node 5, Type 0, BuildingBlock: AZAVOO_clean_sbu_0, # of connection points: 4
#     Node 6, Type 0, BuildingBlock: AZAVOO_clean_sbu_0, # of connection points: 4
#     Node 7, Type 0, BuildingBlock: AZAVOO_clean_sbu_0, # of connection points: 4
#     Node 8, Type 0, BuildingBlock: AZAVOO_clean_sbu_0, # of connection points: 4
#     Node 9, Type 0, BuildingBlock: AZAVOO_clean_sbu_0, # of connection points: 4
#     Node 10, Type 0, BuildingBlock: AZAVOO_clean_sbu_0, # of connection points: 4
#     Node 11, Type 0, BuildingBlock: AZAVOO_clean_sbu_0, # of connection points: 4
#     Edge 12, Type (0, 0), BuildingBlock: OJICUG_clean_linker_0, # of connection points: 2
#     Edge 13, Type (0, 0), BuildingBlock: OJICUG_clean_linker_0, # of connection points: 2
#     Edge 14, Type (0, 0), BuildingBlock: OJICUG_clean_linker_0, # of connection points: 2
#     Edge 15, Type (0, 0), BuildingBlock: OJICUG_clean_linker_0, # of connection points: 2
#     Edge 16, Type (0, 0), BuildingBlock: OJICUG_clean_linker_0, # of connection points: 2
#     Edge 17, Type (0, 0), BuildingBlock: OJICUG_clean_linker_0, # of connection points: 2
#     Edge 18, Type (0, 0), BuildingBlock: OJICUG_clean_linker_0, # of connection points: 2
#     Edge 19, Type (0, 0), BuildingBlock: OJICUG_clean_linker_0, # of connection points: 2
#     Edge 20, Type (0, 0), BuildingBlock: OJICUG_clean_linker_0, # of connection points: 2
#     Edge 21, Type (0, 0), BuildingBlock: OJICUG_clean_linker_0, # of connection points: 2
#     Edge 22, Type (0, 0), BuildingBlock: OJICUG_clean_linker_0, # of connection points: 2
#     Edge 23, Type (0, 0), BuildingBlock: OJICUG_clean_linker_0, # of connection points: 2
#     Edge 24, Type (0, 0), BuildingBlock: OJICUG_clean_linker_0, # of connection points: 2
#     Edge 25, Type (0, 0), BuildingBlock: OJICUG_clean_linker_0, # of connection points: 2
#     Edge 26, Type (0, 0), BuildingBlock: OJICUG_clean_linker_0, # of connection points: 2
#     Edge 27, Type (0, 0), BuildingBlock: OJICUG_clean_linker_0, # of connection points: 2
#     Edge 28, Type (0, 0), BuildingBlock: OJICUG_clean_linker_0, # of connection points: 2
#     Edge 29, Type (0, 0), BuildingBlock: OJICUG_clean_linker_0, # of connection points: 2
#     Edge 30, Type (0, 0), BuildingBlock: OJICUG_clean_linker_0, # of connection points: 2
#     Edge 31, Type (0, 0), BuildingBlock: OJICUG_clean_linker_0, # of connection points: 2
#     Edge 32, Type (0, 0), BuildingBlock: OJICUG_clean_linker_0, # of connection points: 2
#     Edge 33, Type (0, 0), BuildingBlock: OJICUG_clean_linker_0, # of connection points: 2
#     Edge 34, Type (0, 0), BuildingBlock: OJICUG_clean_linker_0, # of connection points: 2
#     Edge 35, Type (0, 0), BuildingBlock: OJICUG_clean_linker_0, # of connection points: 2
# Relax obj value: 0.085
# Max RMSD: 0.100
# Mean RMSD: 0.100
data_MOF--net-can--node1-AZAVOO_clean_sbu_0--edge1-OJICUG_clean_linker_0
_symmetry_space_group_name_H-M    P1
_symmetry_Int_Tables_number       1
_symmetry_cell_setting            triclinic
loop_
_symmetry_equiv_pos_as_xyz
'x, y, z'
_cell_length_a     43.062674
_cell_length_b     43.203389
_cell_length_c     19.878898
_cell_angle_alpha  89.912921
_cell_angle_beta   89.912968
_cell_angle_gamma 119.93848
loop_
_atom_site_label
_atom_site_type_symbol
_atom_site_fract_x
_atom_site_fract_y
_atom_site_fract_z
_atom_type_partial_charge
Mg0 Mg 0.05926 0.38956 0.24411 0.0
O1 O 0.06203 0.44363 0.24354 0.0
O2 O 0.08465 0.47116 0.34122 0.0
Mg3 Mg 0.09651 0.43452 0.40577 0.0
C4 C 0.07203 0.47025 0.28277 0.0
C5 C 0.01551 0.35759 0.11481 0.0
O6 O -0.00448 0.3345 0.16123 0.0
O7 O 0.11983 0.41749 0.22859 0.0
O8 O 0.13937 0.43982 0.33162 0.0
O9 O 0.00578 0.36394 0.29463 0.0
O10 O 0.0574 0.38806 0.34848 0.0
C11 C 0.14511 0.43374 0.27133 0.0
C12 C 0.02309 0.37245 0.35097 0.0
O13 O 0.04567 0.38393 0.13175 0.0
Mg14 Mg 0.65577 0.05693 0.75123 0.0
O15 O 0.60563 0.06221 0.74864 0.0
O16 O 0.60275 0.08789 0.84421 0.0
Mg17 Mg 0.65129 0.09952 0.90837 0.0
C18 C 0.59016 0.07411 0.78689 0.0
C19 C 0.66427 0.02559 0.61767 0.0
O20 O 0.68807 0.02365 0.656 0.0
O21 O 0.69031 0.11645 0.72993 0.0
O22 O 0.68948 0.13938 0.83062 0.0
O23 O 0.62625 0.00497 0.80487 0.0
O24 O 0.65552 0.05733 0.85556 0.0
C25 C 0.70074 0.14294 0.77005 0.0
C26 C 0.63536 0.02329 0.86005 0.0
O27 O 0.64734 0.04039 0.64079 0.0
Mg28 Mg 0.59619 0.66731 0.26088 0.0
O29 O 0.54092 0.61721 0.2562 0.0
O30 O 0.51194 0.61286 0.35231 0.0
Mg31 Mg 0.54837 0.66002 0.41935 0.0
C32 C 0.51338 0.60124 0.29406 0.0
C33 C 0.60711 0.6342 0.13154 0.0
O34 O 0.60243 0.6104 0.17757 0.0
O35 O 0.57035 0.7015 0.2433 0.0
O36 O 0.54609 0.69901 0.34455 0.0
O37 O 0.61909 0.6374 0.3123 0.0
O38 O 0.59508 0.66528 0.36534 0.0
C39 C 0.55378 0.71101 0.28445 0.0
C40 C 0.60927 0.64531 0.36823 0.0
O41 O 0.60487 0.66142 0.1488 0.0
Mg42 Mg 0.91387 0.58464 0.74856 0.0
O43 O 0.91096 0.53044 0.74389 0.0
O44 O 0.88619 0.50077 0.83922 0.0
Mg45 Mg 0.87352 0.53597 0.90618 0.0
C46 C 0.89995 0.5029 0.78131 0.0
C47 C 0.94452 0.62592 0.61553 0.0
O48 O 0.94615 0.65098 0.65522 0.0
O49 O 0.85368 0.5576 0.72972 0.0
O50 O 0.83224 0.53332 0.83108 0.0
O51 O 0.96642 0.60912 0.8012 0.0
O52 O 0.91396 0.58351 0.85288 0.0
C53 C 0.82767 0.54088 0.77109 0.0
C54 C 0.94825 0.59923 0.85677 0.0
O55 O 0.93008 0.59404 0.63755 0.0
Mg56 Mg 0.31057 0.91815 0.25736 0.0
O57 O 0.3605 0.91251 0.25339 0.0
O58 O 0.36371 0.88679 0.34877 0.0
Mg59 Mg 0.31577 0.87586 0.41469 0.0
C60 C 0.37599 0.90041 0.29105 0.0
C61 C 0.30286 0.95086 0.12479 0.0
O62 O 0.2804 0.95429 0.16468 0.0
O63 O 0.27563 0.85854 0.23761 0.0
O64 O 0.27673 0.83589 0.33863 0.0
O65 O 0.34036 0.97021 0.31019 0.0
O66 O 0.3113 0.91793 0.36168 0.0
C67 C 0.26513 0.83221 0.2784 0.0
C68 C 0.33132 0.95198 0.36567 0.0
O69 O 0.31859 0.93456 0.14655 0.0
Mg70 Mg 0.37963 0.31304 0.76355 0.0
O71 O 0.43518 0.3627 0.75704 0.0
O72 O 0.46447 0.36684 0.85238 0.0
Mg73 Mg 0.42795 0.3201 0.92081 0.0
C74 C 0.46292 0.37847 0.79414 0.0
C75 C 0.36852 0.34588 0.63401 0.0
O76 O 0.37353 0.3699 0.67962 0.0
O77 O 0.40448 0.27803 0.74596 0.0
O78 O 0.42887 0.28017 0.84674 0.0
O79 O 0.3576 0.34367 0.81497 0.0
O80 O 0.38127 0.31543 0.86791 0.0
C81 C 0.4207 0.26806 0.78692 0.0
C82 C 0.36747 0.33574 0.87081 0.0
O83 O 0.37057 0.3186 0.65163 0.0
Mg84 Mg 0.58711 0.92171 0.22804 0.0
O85 O 0.53102 0.91486 0.23241 0.0
O86 O 0.50226 0.88864 0.1374 0.0
Mg87 Mg 0.53985 0.87869 0.07143 0.0
C88 C 0.50334 0.90218 0.19495 0.0
C89 C 0.62739 0.95294 0.36104 0.0
O90 O 0.65301 0.95498 0.32202 0.0
O91 O 0.56352 0.86231 0.24865 0.0
O92 O 0.53987 0.83924 0.14802 0.0
O93 O 0.60853 0.97367 0.1747 0.0
O94 O 0.58603 0.92145 0.12377 0.0
C95 C 0.54801 0.83586 0.20829 0.0
C96 C 0.59961 0.95544 0.11942 0.0
O97 O 0.59554 0.93808 0.33855 0.0
Mg98 Mg 0.65645 0.58507 0.7304 0.0
O99 O 0.60555 0.53064 0.73272 0.0
O100 O 0.60068 0.50239 0.6359 0.0
Mg101 Mg 0.64862 0.53922 0.56979 0.0
C102 C 0.5891 0.50359 0.6944 0.0
C103 C 0.64573 0.61808 0.85955 0.0
O104 O 0.64885 0.64101 0.81285 0.0
O105 O 0.68985 0.55805 0.74588 0.0
O106 O 0.6873 0.5354 0.64319 0.0
O107 O 0.62796 0.60991 0.67999 0.0
O108 O 0.65551 0.58583 0.62603 0.0
C109 C 0.69928 0.54204 0.7033 0.0
C110 C 0.63669 0.6013 0.62361 0.0
O111 O 0.64909 0.59145 0.8428 0.0
Mg112 Mg 0.05013 0.65937 0.22389 0.0
O113 O 0.05666 0.61012 0.22673 0.0
O114 O 0.08239 0.60753 0.13077 0.0
Mg115 Mg 0.09273 0.65536 0.06573 0.0
C116 C 0.06898 0.59505 0.18854 0.0
C117 C 0.01743 0.66596 0.35812 0.0
O118 O 0.01404 0.68891 0.31983 0.0
O119 O 0.10996 0.69469 0.24363 0.0
O120 O 0.13262 0.69383 0.1424 0.0
O121 O -0.00204 0.62907 0.17088 0.0
O122 O 0.05033 0.65908 0.1195 0.0
C123 C 0.13637 0.70523 0.20275 0.0
C124 C 0.01627 0.63847 0.11545 0.0
O125 O 0.03367 0.65048 0.33479 0.0
Mg126 Mg 0.379 0.05395 0.73268 0.0
O127 O 0.4347 0.05973 0.73449 0.0
O128 O 0.46272 0.08515 0.63808 0.0
Mg129 Mg 0.42526 0.09601 0.57398 0.0
C130 C 0.46194 0.07175 0.69572 0.0
C131 C 0.33965 0.02368 0.86749 0.0
O132 O 0.31409 0.02263 0.82983 0.0
O133 O 0.404 0.11359 0.75261 0.0
O134 O 0.42727 0.136 0.65112 0.0
O135 O 0.35635 0.00182 0.67982 0.0
O136 O 0.37919 0.05406 0.62835 0.0
C137 C 0.41989 0.13987 0.71169 0.0
C138 C 0.3652 0.02002 0.62432 0.0
O139 O 0.37122 0.03759 0.84351 0.0
Mg140 Mg 0.31944 0.39491 0.23286 0.0
O141 O 0.37023 0.44942 0.23502 0.0
O142 O 0.37515 0.47778 0.1381 0.0
Mg143 Mg 0.32736 0.44104 0.07224 0.0
C144 C 0.38669 0.47651 0.19653 0.0
C145 C 0.32982 0.36173 0.36216 0.0
O146 O 0.32671 0.33878 0.31567 0.0
O147 O 0.28568 0.42152 0.24836 0.0
O148 O 0.2883 0.44432 0.14565 0.0
O149 O 0.34831 0.37046 0.18252 0.0
O150 O 0.32062 0.3944 0.12855 0.0
C151 C 0.27615 0.43744 0.20576 0.0
C152 C 0.33965 0.37916 0.12615 0.0
O153 O 0.32657 0.38841 0.34519 0.0
Mg154 Mg 0.91624 0.31102 0.71457 0.0
O155 O 0.91254 0.36191 0.71937 0.0
O156 O 0.88796 0.36672 0.62378 0.0
Mg157 Mg 0.87614 0.3192 0.55668 0.0
C158 C 0.90138 0.37827 0.6818 0.0
C159 C 0.96073 0.34342 0.84359 0.0
O160 O 0.98023 0.36708 0.79756 0.0
O161 O 0.85614 0.27796 0.73273 0.0
O162 O 0.83441 0.28054 0.63165 0.0
O163 O 0.96907 0.33966 0.66273 0.0
O164 O 0.91704 0.31288 0.61013 0.0
C165 C 0.83004 0.26869 0.69187 0.0
C166 C 0.95131 0.33198 0.60692 0.0
O167 O 0.93091 0.31664 0.82644 0.0
C168 C 0.02168 0.37951 -0.0043 0.0
C169 C 0.0019 0.35379 0.04505 0.0
H170 H 0.02412 0.39655 0.89376 0.0
C171 C 0.96825 0.32472 0.02773 0.0
H172 H 0.0476 0.40229 0.00738 0.0
C173 C 0.95469 0.32145 0.9626 0.0
C174 C 0.97446 0.34718 0.91325 0.0
H175 H 0.95222 0.30443 0.06454 0.0
H176 H 0.92875 0.29869 0.95096 0.0
C177 C 0.00811 0.37625 0.93057 0.0
C178 C 0.66922 0.98025 0.45825 0.0
C179 C 0.63628 0.97069 0.42752 0.0
H180 H 0.70383 0.005 0.54242 0.0
C181 C 0.61281 0.97988 0.45929 0.0
H182 H 0.68791 0.97362 0.43494 0.0
C183 C 0.62227 -0.00147 0.52023 0.0
C184 C 0.6551 0.00781 0.55122 0.0
H185 H 0.58737 0.97317 0.43657 0.0
H186 H 0.60361 0.00519 0.54355 0.0
C187 C 0.67838 -0.00168 0.51972 0.0
C188 C 0.62048 0.6005 0.0444 0.0
C189 C 0.61662 0.63 0.0617 0.0
H190 H 0.63288 0.57366 0.96745 0.0
C191 C 0.62281 0.65566 0.01213 0.0
H192 H 0.616 0.58024 0.08138 0.0
C193 C 0.63259 0.6519 0.9468 0.0
C194 C 0.63644 0.62241 0.92949 0.0
H195 H 0.62018 0.67874 0.02375 0.0
H196 H 0.63704 0.67215 0.9098 0.0
C197 C 0.6303 0.59676 0.97909 0.0
C198 C -0.01097 0.67822 0.45684 0.0
C199 C -0.00038 0.65598 0.42478 0.0
H200 H 0.96344 0.68619 0.5422 0.0
C201 C -0.00867 0.62337 0.45539 0.0
H202 H -0.00507 0.70346 0.43446 0.0
C203 C 0.97257 0.6131 0.51647 0.0
C204 C 0.9623 0.63554 0.54881 0.0
H205 H -0.00117 0.6055 0.43162 0.0
H206 H 0.96663 0.58786 0.53889 0.0
C207 C 0.97089 0.66827 0.51846 0.0
C208 C 0.35359 -0.00474 0.9643 0.0
C209 C 0.33087 0.00589 0.93414 0.0
H210 H 0.36217 0.96875 0.04745 0.0
C211 C 0.29865 -0.0023 0.96663 0.0
H212 H 0.37846 0.00089 0.94019 0.0
C213 C 0.28948 0.97959 0.02824 0.0
C214 C 0.31199 0.96865 0.05814 0.0
H215 H 0.28053 0.00545 0.94461 0.0
H216 H 0.26461 0.974 0.0523 0.0
C217 C 0.34409 0.97654 0.02539 0.0
C218 C 0.34533 0.38319 0.48132 0.0
C219 C 0.33905 0.35742 0.4321 0.0
H220 H 0.35978 0.39988 0.58327 0.0
C221 C 0.34274 0.32786 0.44976 0.0
H222 H 0.34287 0.40634 0.46939 0.0
C223 C 0.35254 0.32416 0.51507 0.0
C224 C 0.35891 0.34997 0.56425 0.0
H225 H 0.33818 0.30752 0.41305 0.0
H226 H 0.35507 0.30105 0.52698 0.0
C227 C 0.35517 0.37951 0.5466 0.0
C228 C 0.94535 0.59482 0.98213 0.0
C229 C 0.96591 0.60632 0.92278 0.0
H230 H 0.94518 0.59548 0.08966 0.0
C231 C 0.00329 0.62698 0.92743 0.0
H232 H 0.91645 0.57941 0.98052 0.0
C233 C 0.01969 0.63691 0.99019 0.0
C234 C -0.00093 0.62582 0.04952 0.0
H235 H 0.01982 0.63655 0.88264 0.0
H236 H 0.04842 0.65415 -0.00824 0.0
C237 C 0.96179 0.60423 0.0449 0.0
C238 C 0.36176 0.00673 0.43623 0.0
C239 C 0.34304 0.9694 0.4316 0.0
H240 H 0.38264 0.05197 0.50055 0.0
C241 C 0.33338 0.94886 0.49093 0.0
H242 H 0.36927 0.02328 0.39147 0.0
C243 C 0.34182 0.96533 0.55369 0.0
C244 C 0.35949 0.00264 0.55832 0.0
H245 H 0.31838 0.92004 0.48936 0.0
H246 H 0.33342 0.94878 0.59847 0.0
C247 C 0.36961 0.02319 0.49898 0.0
C248 C 0.3472 0.37077 0.93875 0.0
C249 C 0.36341 0.34962 0.93577 0.0
H250 H 0.32646 0.39618 0.00111 0.0
C251 C 0.37382 0.34014 -0.00415 0.0
H252 H 0.3387 0.37833 0.89339 0.0
C253 C 0.36755 0.35109 0.05783 0.0
C254 C 0.35022 0.3712 0.06088 0.0
H255 H 0.38583 0.32336 -0.00449 0.0
H256 H 0.37512 0.34269 0.10332 0.0
C257 C 0.34042 0.38122 0.00071 0.0
C258 C 0.00701 0.36425 0.53845 0.0
C259 C 0.96952 0.34476 0.54167 0.0
H260 H 0.05328 0.38757 0.47586 0.0
C261 C 0.94967 0.33585 0.48164 0.0
H262 H 0.02304 0.37125 0.58376 0.0
C263 C 0.96702 0.34594 0.41952 0.0
C264 C 0.00454 0.36462 0.41631 0.0
H265 H 0.92074 0.32029 0.4822 0.0
H266 H 0.95105 0.33818 0.3741 0.0
C267 C 0.02434 0.37383 0.47639 0.0
C268 C 0.63335 0.02659 0.98526 0.0
C269 C 0.62318 0.00601 0.92618 0.0
H270 H 0.63321 0.02674 0.09278 0.0
C271 C 0.60322 0.9687 0.93123 0.0
H272 H 0.64927 0.05538 0.98334 0.0
C273 C 0.5947 0.95227 -0.00582 0.0
C274 C 0.60545 0.97284 0.05327 0.0
H275 H 0.59519 0.95212 0.88666 0.0
H276 H 0.58066 0.92345 -0.00389 0.0
C277 C 0.62429 0.01017 0.0482 0.0
C278 C 0.62956 0.61022 0.43617 0.0
C279 C 0.61353 0.63154 0.43325 0.0
H280 H 0.64994 0.58443 0.49846 0.0
C281 C 0.60326 0.64111 0.49341 0.0
H282 H 0.63794 0.60259 0.39074 0.0
C283 C 0.60938 0.62998 0.55536 0.0
C284 C 0.62642 0.60959 0.55834 0.0
H285 H 0.59144 0.65806 0.49312 0.0
H286 H 0.60188 0.63841 0.60089 0.0
C287 C 0.63619 0.59959 0.49812 0.0
C288 C 0.06953 0.53836 0.16667 0.0
C289 C 0.06844 0.56246 0.21264 0.0
H290 H 0.07093 0.48997 0.15288 0.0
C291 C 0.0676 0.55553 0.28191 0.0
H292 H 0.07001 0.54293 0.11298 0.0
C293 C 0.0687 0.52551 0.3048 0.0
C294 C 0.06991 0.50148 0.25881 0.0
H295 H 0.06687 0.57371 0.31852 0.0
H296 H 0.06851 0.52108 0.35849 0.0
C297 C 0.06989 0.50797 0.18952 0.0
C298 C 0.51872 0.0712 0.67243 0.0
C299 C 0.49407 0.07101 0.71903 0.0
H300 H 0.56823 0.07175 0.65748 0.0
C301 C 0.50084 0.07103 0.78814 0.0
H302 H 0.51408 0.07103 0.61885 0.0
C303 C 0.53212 0.07208 0.81023 0.0
C304 C 0.55681 0.07235 0.76362 0.0
H305 H 0.48236 0.07103 0.82519 0.0
H306 H 0.53689 0.07253 0.8638 0.0
C307 C 0.54961 0.07147 0.69453 0.0
C308 C 0.47599 0.56242 0.19957 0.0
C309 C 0.4817 0.56865 0.26903 0.0
H310 H 0.44114 0.52856 0.12211 0.0
C311 C 0.45641 0.5439 0.31434 0.0
H312 H 0.49499 0.58111 0.16346 0.0
C313 C 0.42592 0.51358 0.2907 0.0
C314 C 0.41975 0.50779 0.22126 0.0
H315 H 0.46021 0.54792 0.36815 0.0
H316 H 0.4068 0.49506 0.32687 0.0
C317 C 0.44511 0.53246 0.1759 0.0
C318 C 0.90279 0.46651 0.68639 0.0
C319 C 0.90218 0.47198 0.75592 0.0
H320 H 0.9026 0.43229 0.6084 0.0
C321 C 0.90265 0.44709 0.80086 0.0
H322 H 0.90235 0.4852 0.65056 0.0
C323 C 0.9034 0.41713 0.77673 0.0
C324 C 0.90292 0.4111 0.7072 0.0
H325 H 0.9024 0.45075 0.85472 0.0
H326 H 0.90343 0.39822 0.81257 0.0
C327 C 0.90278 0.43616 0.66226 0.0
C328 C 0.41553 0.90221 0.19716 0.0
C329 C 0.40899 0.90174 0.26653 0.0
H330 H 0.45034 0.90222 0.12012 0.0
C331 C 0.43402 0.90206 0.31217 0.0
H332 H 0.39663 0.90185 0.16083 0.0
C333 C 0.46505 0.90291 0.28887 0.0
C334 C 0.47123 0.90264 0.21951 0.0
H335 H 0.42975 0.90189 0.36592 0.0
H336 H 0.48387 0.90307 0.3252 0.0
C337 C 0.44617 0.90226 0.17387 0.0
C338 C 0.53078 0.44746 0.67472 0.0
C339 C 0.55616 0.47219 0.71964 0.0
H340 H 0.481 0.39865 0.66316 0.0
C341 C 0.55022 0.46628 0.78918 0.0
H342 H 0.5346 0.45143 0.62086 0.0
C343 C 0.51991 0.43582 0.81335 0.0
C344 C 0.49457 0.41103 0.76848 0.0
H345 H 0.56938 0.48482 0.82503 0.0
H346 H 0.51626 0.43176 0.86722 0.0
C347 C 0.50006 0.41735 0.69893 0.0
C348 C 0.19199 0.44286 0.18682 0.0
C349 C 0.1816 0.44149 0.25409 0.0
H350 H 0.23077 0.44365 0.11883 0.0
C351 C 0.20504 0.44365 0.30556 0.0
H352 H 0.17458 0.4415 0.14624 0.0
C353 C 0.23691 0.44424 0.29004 0.0
C354 C 0.24628 0.44347 0.22279 0.0
H355 H 0.19779 0.44268 0.35805 0.0
H356 H 0.25349 0.44388 0.33064 0.0
C357 C 0.22425 0.44425 0.17129 0.0
C358 C 0.77018 0.21734 0.66246 0.0
C359 C 0.79413 0.24001 0.71174 0.0
H360 H 0.72168 0.16844 0.64229 0.0
C361 C 0.78483 0.23272 0.77983 0.0
H362 H 0.77669 0.22231 0.60944 0.0
C363 C 0.75302 0.20225 0.79846 0.0
C364 C 0.73038 0.17814 0.74934 0.0
H365 H 0.80269 0.24989 0.81874 0.0
H366 H 0.7473 0.19658 0.85157 0.0
C367 C 0.73874 0.18643 0.68112 0.0
C368 C 0.54482 0.74729 0.19695 0.0
C369 C 0.54667 0.73976 0.26492 0.0
H370 H 0.54283 0.7833 0.12583 0.0
C371 C 0.54484 0.76199 0.31458 0.0
H372 H 0.54593 0.73047 0.15776 0.0
C373 C 0.54369 0.7926 0.29644 0.0
C374 C 0.54355 0.80104 0.22838 0.0
H375 H 0.54625 0.75684 0.36752 0.0
H376 H 0.54405 0.8102 0.33558 0.0
C377 C 0.54287 0.77746 0.17884 0.0
C378 C 0.76805 0.53239 0.80398 0.0
C379 C 0.79179 0.53454 0.75297 0.0
H380 H 0.72008 0.53337 0.82828 0.0
C381 C 0.78244 0.53464 0.68552 0.0
H382 H 0.77452 0.53231 0.85659 0.0
C383 C 0.75088 0.53456 0.66945 0.0
C384 C 0.72857 0.53521 0.72062 0.0
H385 H 0.80012 0.53609 0.64527 0.0
H386 H 0.74514 0.53617 0.61694 0.0
C387 C 0.73691 0.53314 0.78796 0.0
C388 C 0.22718 0.78822 0.19081 0.0
C389 C 0.23527 0.79704 0.25877 0.0
H390 H 0.18977 0.75166 0.11988 0.0
C391 C 0.21238 0.77336 0.30851 0.0
H392 H 0.24443 0.80589 0.15155 0.0
C393 C 0.18072 0.74263 0.29054 0.0
C394 C 0.17183 0.73466 0.22256 0.0
H395 H 0.2179 0.7795 0.36146 0.0
H396 H 0.16276 0.7257 0.32979 0.0
C397 C 0.19592 0.75709 0.17285 0.0
C398 C 0.42699 0.21551 0.81754 0.0
C399 C 0.42643 0.2384 0.76771 0.0
H400 H 0.42507 0.16597 0.83889 0.0
C401 C 0.42782 0.23057 0.69979 0.0
H402 H 0.42587 0.22088 0.87043 0.0
C403 C 0.42802 0.19949 0.6819 0.0
C404 C 0.42601 0.1753 0.73162 0.0
H405 H 0.42764 0.24787 0.66048 0.0
H406 H 0.42774 0.19352 0.62893 0.0
C407 C 0.42639 0.184 0.79962 0.0
loop_
_geom_bond_atom_site_label_1
_geom_bond_atom_site_label_2
_geom_bond_distance
_geom_bond_site_symmetry_2
_ccdc_geom_bond_type
Mg0 O1 2.028 . S
Mg0 O7 1.986 . S
Mg0 O9 2.114 . S
Mg0 O10 2.251 . S
Mg0 O13 2.010 . S
O1 Mg0 2.028 . S
O1 C4 1.250 . S
O2 Mg3 2.028 . S
O2 C4 1.248 . S
Mg3 O2 2.028 . S
Mg3 O8 2.032 . S
Mg3 O10 2.079 . S
C4 O1 1.250 . S
C4 O2 1.248 . S
C5 O6 1.264 . S
C5 O13 1.249 . S
O6 C5 1.264 . S
O7 Mg0 1.986 . S
O7 C11 1.246 . S
O8 Mg3 2.032 . S
O8 C11 1.259 . S
O9 Mg0 2.114 . S
O9 C12 1.252 . S
O10 Mg0 2.251 . S
O10 Mg3 2.079 . S
O10 C12 1.273 . S
C11 O7 1.246 . S
C11 O8 1.259 . S
C12 O9 1.252 . S
C12 O10 1.273 . S
O13 Mg0 2.010 . S
O13 C5 1.249 . S
Mg14 O15 2.028 . S
Mg14 O21 1.986 . S
Mg14 O23 2.114 . S
Mg14 O24 2.251 . S
Mg14 O27 2.010 . S
O15 Mg14 2.028 . S
O15 C18 1.250 . S
O16 Mg17 2.028 . S
O16 C18 1.248 . S
Mg17 O16 2.028 . S
Mg17 O22 2.032 . S
Mg17 O24 2.079 . S
C18 O15 1.250 . S
C18 O16 1.248 . S
C19 O20 1.264 . S
C19 O27 1.249 . S
O20 C19 1.264 . S
O21 Mg14 1.986 . S
O21 C25 1.246 . S
O22 Mg17 2.032 . S
O22 C25 1.259 . S
O23 Mg14 2.114 . S
O23 C26 1.252 . S
O24 Mg14 2.251 . S
O24 Mg17 2.079 . S
O24 C26 1.273 . S
C25 O21 1.246 . S
C25 O22 1.259 . S
C26 O23 1.252 . S
C26 O24 1.273 . S
O27 Mg14 2.010 . S
O27 C19 1.249 . S
Mg28 O29 2.028 . S
Mg28 O35 1.986 . S
Mg28 O37 2.114 . S
Mg28 O38 2.251 . S
Mg28 O41 2.010 . S
O29 Mg28 2.028 . S
O29 C32 1.250 . S
O30 Mg31 2.028 . S
O30 C32 1.248 . S
Mg31 O30 2.028 . S
Mg31 O36 2.032 . S
Mg31 O38 2.079 . S
C32 O29 1.250 . S
C32 O30 1.248 . S
C33 O34 1.264 . S
C33 O41 1.249 . S
O34 C33 1.264 . S
O35 Mg28 1.986 . S
O35 C39 1.246 . S
O36 Mg31 2.032 . S
O36 C39 1.259 . S
O37 Mg28 2.114 . S
O37 C40 1.252 . S
O38 Mg28 2.251 . S
O38 Mg31 2.079 . S
O38 C40 1.273 . S
C39 O35 1.246 . S
C39 O36 1.259 . S
C40 O37 1.252 . S
C40 O38 1.273 . S
O41 Mg28 2.010 . S
O41 C33 1.249 . S
Mg42 O43 2.028 . S
Mg42 O49 1.986 . S
Mg42 O51 2.114 . S
Mg42 O52 2.251 . S
Mg42 O55 2.010 . S
O43 Mg42 2.028 . S
O43 C46 1.250 . S
O44 Mg45 2.028 . S
O44 C46 1.248 . S
Mg45 O44 2.028 . S
Mg45 O50 2.032 . S
Mg45 O52 2.079 . S
C46 O43 1.250 . S
C46 O44 1.248 . S
C47 O48 1.264 . S
C47 O55 1.249 . S
O48 C47 1.264 . S
O49 Mg42 1.986 . S
O49 C53 1.246 . S
O50 Mg45 2.032 . S
O50 C53 1.259 . S
O51 Mg42 2.114 . S
O51 C54 1.252 . S
O52 Mg42 2.251 . S
O52 Mg45 2.079 . S
O52 C54 1.273 . S
C53 O49 1.246 . S
C53 O50 1.259 . S
C54 O51 1.252 . S
C54 O52 1.273 . S
O55 Mg42 2.010 . S
O55 C47 1.249 . S
Mg56 O57 2.028 . S
Mg56 O63 1.986 . S
Mg56 O65 2.114 . S
Mg56 O66 2.251 . S
Mg56 O69 2.010 . S
O57 Mg56 2.028 . S
O57 C60 1.250 . S
O58 Mg59 2.028 . S
O58 C60 1.248 . S
Mg59 O58 2.028 . S
Mg59 O64 2.032 . S
Mg59 O66 2.079 . S
C60 O57 1.250 . S
C60 O58 1.248 . S
C61 O62 1.264 . S
C61 O69 1.249 . S
O62 C61 1.264 . S
O63 Mg56 1.986 . S
O63 C67 1.246 . S
O64 Mg59 2.032 . S
O64 C67 1.259 . S
O65 Mg56 2.114 . S
O65 C68 1.252 . S
O66 Mg56 2.251 . S
O66 Mg59 2.079 . S
O66 C68 1.273 . S
C67 O63 1.246 . S
C67 O64 1.259 . S
C68 O65 1.252 . S
C68 O66 1.273 . S
O69 Mg56 2.010 . S
O69 C61 1.249 . S
Mg70 O71 2.028 . S
Mg70 O77 1.986 . S
Mg70 O79 2.114 . S
Mg70 O80 2.251 . S
Mg70 O83 2.010 . S
O71 Mg70 2.028 . S
O71 C74 1.250 . S
O72 Mg73 2.028 . S
O72 C74 1.248 . S
Mg73 O72 2.028 . S
Mg73 O78 2.032 . S
Mg73 O80 2.079 . S
C74 O71 1.250 . S
C74 O72 1.248 . S
C75 O76 1.264 . S
C75 O83 1.249 . S
O76 C75 1.264 . S
O77 Mg70 1.986 . S
O77 C81 1.246 . S
O78 Mg73 2.032 . S
O78 C81 1.259 . S
O79 Mg70 2.114 . S
O79 C82 1.252 . S
O80 Mg70 2.251 . S
O80 Mg73 2.079 . S
O80 C82 1.273 . S
C81 O77 1.246 . S
C81 O78 1.259 . S
C82 O79 1.252 . S
C82 O80 1.273 . S
O83 Mg70 2.010 . S
O83 C75 1.249 . S
Mg84 O85 2.028 . S
Mg84 O91 1.986 . S
Mg84 O93 2.114 . S
Mg84 O94 2.251 . S
Mg84 O97 2.010 . S
O85 Mg84 2.028 . S
O85 C88 1.250 . S
O86 Mg87 2.028 . S
O86 C88 1.248 . S
Mg87 O86 2.028 . S
Mg87 O92 2.032 . S
Mg87 O94 2.079 . S
C88 O85 1.250 . S
C88 O86 1.248 . S
C89 O90 1.264 . S
C89 O97 1.249 . S
O90 C89 1.264 . S
O91 Mg84 1.986 . S
O91 C95 1.246 . S
O92 Mg87 2.032 . S
O92 C95 1.259 . S
O93 Mg84 2.114 . S
O93 C96 1.252 . S
O94 Mg84 2.251 . S
O94 Mg87 2.079 . S
O94 C96 1.273 . S
C95 O91 1.246 . S
C95 O92 1.259 . S
C96 O93 1.252 . S
C96 O94 1.273 . S
O97 Mg84 2.010 . S
O97 C89 1.249 . S
Mg98 O99 2.028 . S
Mg98 O105 1.986 . S
Mg98 O107 2.114 . S
Mg98 O108 2.251 . S
Mg98 O111 2.010 . S
O99 Mg98 2.028 . S
O99 C102 1.250 . S
O100 Mg101 2.028 . S
O100 C102 1.248 . S
Mg101 O100 2.028 . S
Mg101 O106 2.032 . S
Mg101 O108 2.079 . S
C102 O99 1.250 . S
C102 O100 1.248 . S
C103 O104 1.264 . S
C103 O111 1.249 . S
O104 C103 1.264 . S
O105 Mg98 1.986 . S
O105 C109 1.246 . S
O106 Mg101 2.032 . S
O106 C109 1.259 . S
O107 Mg98 2.114 . S
O107 C110 1.252 . S
O108 Mg98 2.251 . S
O108 Mg101 2.079 . S
O108 C110 1.273 . S
C109 O105 1.246 . S
C109 O106 1.259 . S
C110 O107 1.252 . S
C110 O108 1.273 . S
O111 Mg98 2.010 . S
O111 C103 1.249 . S
Mg112 O113 2.028 . S
Mg112 O119 1.986 . S
Mg112 O121 2.114 . S
Mg112 O122 2.251 . S
Mg112 O125 2.010 . S
O113 Mg112 2.028 . S
O113 C116 1.250 . S
O114 Mg115 2.028 . S
O114 C116 1.248 . S
Mg115 O114 2.028 . S
Mg115 O120 2.032 . S
Mg115 O122 2.079 . S
C116 O113 1.250 . S
C116 O114 1.248 . S
C117 O118 1.264 . S
C117 O125 1.249 . S
O118 C117 1.264 . S
O119 Mg112 1.986 . S
O119 C123 1.246 . S
O120 Mg115 2.032 . S
O120 C123 1.259 . S
O121 Mg112 2.114 . S
O121 C124 1.252 . S
O122 Mg112 2.251 . S
O122 Mg115 2.079 . S
O122 C124 1.273 . S
C123 O119 1.246 . S
C123 O120 1.259 . S
C124 O121 1.252 . S
C124 O122 1.273 . S
O125 Mg112 2.010 . S
O125 C117 1.249 . S
Mg126 O127 2.028 . S
Mg126 O133 1.986 . S
Mg126 O135 2.114 . S
Mg126 O136 2.251 . S
Mg126 O139 2.010 . S
O127 Mg126 2.028 . S
O127 C130 1.250 . S
O128 Mg129 2.028 . S
O128 C130 1.248 . S
Mg129 O128 2.028 . S
Mg129 O134 2.032 . S
Mg129 O136 2.079 . S
C130 O127 1.250 . S
C130 O128 1.248 . S
C131 O132 1.264 . S
C131 O139 1.249 . S
O132 C131 1.264 . S
O133 Mg126 1.986 . S
O133 C137 1.246 . S
O134 Mg129 2.032 . S
O134 C137 1.259 . S
O135 Mg126 2.114 . S
O135 C138 1.252 . S
O136 Mg126 2.251 . S
O136 Mg129 2.079 . S
O136 C138 1.273 . S
C137 O133 1.246 . S
C137 O134 1.259 . S
C138 O135 1.252 . S
C138 O136 1.273 . S
O139 Mg126 2.010 . S
O139 C131 1.249 . S
Mg140 O141 2.028 . S
Mg140 O147 1.986 . S
Mg140 O149 2.114 . S
Mg140 O150 2.251 . S
Mg140 O153 2.010 . S
O141 Mg140 2.028 . S
O141 C144 1.250 . S
O142 Mg143 2.028 . S
O142 C144 1.248 . S
Mg143 O142 2.028 . S
Mg143 O148 2.032 . S
Mg143 O150 2.079 . S
C144 O141 1.250 . S
C144 O142 1.248 . S
C145 O146 1.264 . S
C145 O153 1.249 . S
O146 C145 1.264 . S
O147 Mg140 1.986 . S
O147 C151 1.246 . S
O148 Mg143 2.032 . S
O148 C151 1.259 . S
O149 Mg140 2.114 . S
O149 C152 1.252 . S
O150 Mg140 2.251 . S
O150 Mg143 2.079 . S
O150 C152 1.273 . S
C151 O147 1.246 . S
C151 O148 1.259 . S
C152 O149 1.252 . S
C152 O150 1.273 . S
O153 Mg140 2.010 . S
O153 C145 1.249 . S
Mg154 O155 2.028 . S
Mg154 O161 1.986 . S
Mg154 O163 2.114 . S
Mg154 O164 2.251 . S
Mg154 O167 2.010 . S
O155 Mg154 2.028 . S
O155 C158 1.250 . S
O156 Mg157 2.028 . S
O156 C158 1.248 . S
Mg157 O156 2.028 . S
Mg157 O162 2.032 . S
Mg157 O164 2.079 . S
C158 O155 1.250 . S
C158 O156 1.248 . S
C159 O160 1.264 . S
C159 O167 1.249 . S
O160 C159 1.264 . S
O161 Mg154 1.986 . S
O161 C165 1.246 . S
O162 Mg157 2.032 . S
O162 C165 1.259 . S
O163 Mg154 2.114 . S
O163 C166 1.252 . S
O164 Mg154 2.251 . S
O164 Mg157 2.079 . S
O164 C166 1.273 . S
C165 O161 1.246 . S
C165 O162 1.259 . S
C166 O163 1.252 . S
C166 O164 1.273 . S
O167 Mg154 2.010 . S
O167 C159 1.249 . S
C168 C169 1.387 . S
C168 H172 0.950 . S
C168 C177 1.390 1_554 S
C169 C168 1.387 . S
C169 C171 1.387 1_455 S
H170 C177 0.950 . S
C171 C169 1.387 1_655 S
C171 C173 1.390 1_554 S
C171 H175 0.950 . S
H172 C168 0.950 . S
C173 C171 1.390 1_556 S
C173 C174 1.387 . S
C173 H176 0.950 . S
C174 C173 1.387 . S
C174 C177 1.387 1_655 S
H175 C171 0.950 . S
H176 C173 0.950 . S
C177 C168 1.390 1_556 S
C177 H170 0.950 . S
C177 C174 1.387 1_455 S
C178 C179 1.387 . S
C178 H182 0.950 . S
C178 C187 1.390 1_565 S
C179 C178 1.387 . S
C179 C181 1.387 . S
H180 C187 0.950 . S
C181 C179 1.387 . S
C181 C183 1.390 1_565 S
C181 H185 0.950 . S
H182 C178 0.950 . S
C183 C181 1.390 1_545 S
C183 C184 1.387 . S
C183 H186 0.950 . S
C184 C183 1.387 . S
C184 C187 1.387 . S
H185 C181 0.950 . S
H186 C183 0.950 . S
C187 C178 1.390 1_545 S
C187 H180 0.950 . S
C187 C184 1.387 . S
C188 C189 1.387 . S
C188 H192 0.950 . S
C188 C197 1.390 1_554 S
C189 C188 1.387 . S
C189 C191 1.387 . S
H190 C197 0.950 . S
C191 C189 1.387 . S
C191 C193 1.390 1_554 S
C191 H195 0.950 . S
H192 C188 0.950 . S
C193 C191 1.390 1_556 S
C193 C194 1.387 . S
C193 H196 0.950 . S
C194 C193 1.387 . S
C194 C197 1.387 . S
H195 C191 0.950 . S
H196 C193 0.950 . S
C197 C188 1.390 1_556 S
C197 H190 0.950 . S
C197 C194 1.387 . S
C198 C199 1.387 . S
C198 H202 0.950 . S
C198 C207 1.390 1_455 S
C199 C198 1.387 . S
C199 C201 1.387 . S
H200 C207 0.950 . S
C201 C199 1.387 . S
C201 C203 1.390 1_455 S
C201 H205 0.950 . S
H202 C198 0.950 . S
C203 C201 1.390 1_655 S
C203 C204 1.387 . S
C203 H206 0.950 . S
C204 C203 1.387 . S
C204 C207 1.387 . S
H205 C201 0.950 . S
H206 C203 0.950 . S
C207 C198 1.390 1_655 S
C207 H200 0.950 . S
C207 C204 1.387 . S
C208 C209 1.387 . S
C208 H212 0.950 . S
C208 C217 1.390 1_546 S
C209 C208 1.387 . S
C209 C211 1.387 . S
H210 C217 0.950 . S
C211 C209 1.387 . S
C211 C213 1.390 1_546 S
C211 H215 0.950 . S
H212 C208 0.950 . S
C213 C211 1.390 1_564 S
C213 C214 1.387 . S
C213 H216 0.950 . S
C214 C213 1.387 . S
C214 C217 1.387 . S
H215 C211 0.950 . S
H216 C213 0.950 . S
C217 C208 1.390 1_564 S
C217 H210 0.950 . S
C217 C214 1.387 . S
C218 C219 1.387 . S
C218 H222 0.950 . S
C218 C227 1.390 . S
C219 C218 1.387 . S
C219 C221 1.387 . S
H220 C227 0.950 . S
C221 C219 1.387 . S
C221 C223 1.390 . S
C221 H225 0.950 . S
H222 C218 0.950 . S
C223 C221 1.390 . S
C223 C224 1.387 . S
C223 H226 0.950 . S
C224 C223 1.387 . S
C224 C227 1.387 . S
H225 C221 0.950 . S
H226 C223 0.950 . S
C227 C218 1.390 . S
C227 H220 0.950 . S
C227 C224 1.387 . S
C228 C229 1.387 . S
C228 H232 0.950 . S
C228 C237 1.390 1_556 S
C229 C228 1.387 . S
C229 C231 1.387 1_655 S
H230 C237 0.950 . S
C231 C229 1.387 1_455 S
C231 C233 1.390 1_556 S
C231 H235 0.950 . S
H232 C228 0.950 . S
C233 C231 1.390 1_554 S
C233 C234 1.387 . S
C233 H236 0.950 . S
C234 C233 1.387 . S
C234 C237 1.387 1_455 S
H235 C231 0.950 . S
H236 C233 0.950 . S
C237 C228 1.390 1_554 S
C237 H230 0.950 . S
C237 C234 1.387 1_655 S
C238 C239 1.387 . S
C238 H242 0.950 . S
C238 C247 1.390 1_565 S
C239 C238 1.387 . S
C239 C241 1.387 . S
H240 C247 0.950 . S
C241 C239 1.387 . S
C241 C243 1.390 1_565 S
C241 H245 0.950 . S
H242 C238 0.950 . S
C243 C241 1.390 1_545 S
C243 C244 1.387 . S
C243 H246 0.950 . S
C244 C243 1.387 . S
C244 C247 1.387 . S
H245 C241 0.950 . S
H246 C243 0.950 . S
C247 C238 1.390 1_545 S
C247 H240 0.950 . S
C247 C244 1.387 . S
C248 C249 1.387 . S
C248 H252 0.950 . S
C248 C257 1.390 1_556 S
C249 C248 1.387 . S
C249 C251 1.387 . S
H250 C257 0.950 . S
C251 C249 1.387 . S
C251 C253 1.390 1_556 S
C251 H255 0.950 . S
H252 C248 0.950 . S
C253 C251 1.390 1_554 S
C253 C254 1.387 . S
C253 H256 0.950 . S
C254 C253 1.387 . S
C254 C257 1.387 . S
H255 C251 0.950 . S
H256 C253 0.950 . S
C257 C248 1.390 1_554 S
C257 H250 0.950 . S
C257 C254 1.387 . S
C258 C259 1.387 . S
C258 H262 0.950 . S
C258 C267 1.390 1_655 S
C259 C258 1.387 . S
C259 C261 1.387 . S
H260 C267 0.950 . S
C261 C259 1.387 . S
C261 C263 1.390 1_655 S
C261 H265 0.950 . S
H262 C258 0.950 . S
C263 C261 1.390 1_455 S
C263 C264 1.387 . S
C263 H266 0.950 . S
C264 C263 1.387 . S
C264 C267 1.387 . S
H265 C261 0.950 . S
H266 C263 0.950 . S
C267 C258 1.390 1_455 S
C267 H260 0.950 . S
C267 C264 1.387 . S
C268 C269 1.387 . S
C268 H272 0.950 . S
C268 C277 1.390 1_546 S
C269 C268 1.387 . S
C269 C271 1.387 . S
H270 C277 0.950 . S
C271 C269 1.387 . S
C271 C273 1.390 1_546 S
C271 H275 0.950 . S
H272 C268 0.950 . S
C273 C271 1.390 1_564 S
C273 C274 1.387 . S
C273 H276 0.950 . S
C274 C273 1.387 . S
C274 C277 1.387 . S
H275 C271 0.950 . S
H276 C273 0.950 . S
C277 C268 1.390 1_564 S
C277 H270 0.950 . S
C277 C274 1.387 . S
C278 C279 1.387 . S
C278 H282 0.950 . S
C278 C287 1.390 . S
C279 C278 1.387 . S
C279 C281 1.387 . S
H280 C287 0.950 . S
C281 C279 1.387 . S
C281 C283 1.390 . S
C281 H285 0.950 . S
H282 C278 0.950 . S
C283 C281 1.390 . S
C283 C284 1.387 . S
C283 H286 0.950 . S
C284 C283 1.387 . S
C284 C287 1.387 . S
H285 C281 0.950 . S
H286 C283 0.950 . S
C287 C278 1.390 . S
C287 H280 0.950 . S
C287 C284 1.387 . S
C288 C289 1.387 . S
C288 H292 0.950 . S
C288 C297 1.390 . S
C289 C288 1.387 . S
C289 C291 1.387 . S
H290 C297 0.950 . S
C291 C289 1.387 . S
C291 C293 1.390 . S
C291 H295 0.950 . S
H292 C288 0.950 . S
C293 C291 1.390 . S
C293 C294 1.387 . S
C293 H296 0.950 . S
C294 C293 1.387 . S
C294 C297 1.387 . S
H295 C291 0.950 . S
H296 C293 0.950 . S
C297 C288 1.390 . S
C297 H290 0.950 . S
C297 C294 1.387 . S
C298 C299 1.387 . S
C298 H302 0.950 . S
C298 C307 1.390 . S
C299 C298 1.387 . S
C299 C301 1.387 . S
H300 C307 0.950 . S
C301 C299 1.387 . S
C301 C303 1.390 . S
C301 H305 0.950 . S
H302 C298 0.950 . S
C303 C301 1.390 . S
C303 C304 1.387 . S
C303 H306 0.950 . S
C304 C303 1.387 . S
C304 C307 1.387 . S
H305 C301 0.950 . S
H306 C303 0.950 . S
C307 C298 1.390 . S
C307 H300 0.950 . S
C307 C304 1.387 . S
C308 C309 1.387 . S
C308 H312 0.950 . S
C308 C317 1.390 . S
C309 C308 1.387 . S
C309 C311 1.387 . S
H310 C317 0.950 . S
C311 C309 1.387 . S
C311 C313 1.390 . S
C311 H315 0.950 . S
H312 C308 0.950 . S
C313 C311 1.390 . S
C313 C314 1.387 . S
C313 H316 0.950 . S
C314 C313 1.387 . S
C314 C317 1.387 . S
H315 C311 0.950 . S
H316 C313 0.950 . S
C317 C308 1.390 . S
C317 H310 0.950 . S
C317 C314 1.387 . S
C318 C319 1.387 . S
C318 H322 0.950 . S
C318 C327 1.390 . S
C319 C318 1.387 . S
C319 C321 1.387 . S
H320 C327 0.950 . S
C321 C319 1.387 . S
C321 C323 1.390 . S
C321 H325 0.950 . S
H322 C318 0.950 . S
C323 C321 1.390 . S
C323 C324 1.387 . S
C323 H326 0.950 . S
C324 C323 1.387 . S
C324 C327 1.387 . S
H325 C321 0.950 . S
H326 C323 0.950 . S
C327 C318 1.390 . S
C327 H320 0.950 . S
C327 C324 1.387 . S
C328 C329 1.387 . S
C328 H332 0.950 . S
C328 C337 1.390 . S
C329 C328 1.387 . S
C329 C331 1.387 . S
H330 C337 0.950 . S
C331 C329 1.387 . S
C331 C333 1.390 . S
C331 H335 0.950 . S
H332 C328 0.950 . S
C333 C331 1.390 . S
C333 C334 1.387 . S
C333 H336 0.950 . S
C334 C333 1.387 . S
C334 C337 1.387 . S
H335 C331 0.950 . S
H336 C333 0.950 . S
C337 C328 1.390 . S
C337 H330 0.950 . S
C337 C334 1.387 . S
C338 C339 1.387 . S
C338 H342 0.950 . S
C338 C347 1.390 . S
C339 C338 1.387 . S
C339 C341 1.387 . S
H340 C347 0.950 . S
C341 C339 1.387 . S
C341 C343 1.390 . S
C341 H345 0.950 . S
H342 C338 0.950 . S
C343 C341 1.390 . S
C343 C344 1.387 . S
C343 H346 0.950 . S
C344 C343 1.387 . S
C344 C347 1.387 . S
H345 C341 0.950 . S
H346 C343 0.950 . S
C347 C338 1.390 . S
C347 H340 0.950 . S
C347 C344 1.387 . S
C348 C349 1.387 . S
C348 H352 0.950 . S
C348 C357 1.390 . S
C349 C348 1.387 . S
C349 C351 1.387 . S
H350 C357 0.950 . S
C351 C349 1.387 . S
C351 C353 1.390 . S
C351 H355 0.950 . S
H352 C348 0.950 . S
C353 C351 1.390 . S
C353 C354 1.387 . S
C353 H356 0.950 . S
C354 C353 1.387 . S
C354 C357 1.387 . S
H355 C351 0.950 . S
H356 C353 0.950 . S
C357 C348 1.390 . S
C357 H350 0.950 . S
C357 C354 1.387 . S
C358 C359 1.387 . S
C358 H362 0.950 . S
C358 C367 1.390 . S
C359 C358 1.387 . S
C359 C361 1.387 . S
H360 C367 0.950 . S
C361 C359 1.387 . S
C361 C363 1.390 . S
C361 H365 0.950 . S
H362 C358 0.950 . S
C363 C361 1.390 . S
C363 C364 1.387 . S
C363 H366 0.950 . S
C364 C363 1.387 . S
C364 C367 1.387 . S
H365 C361 0.950 . S
H366 C363 0.950 . S
C367 C358 1.390 . S
C367 H360 0.950 . S
C367 C364 1.387 . S
C368 C369 1.387 . S
C368 H372 0.950 . S
C368 C377 1.390 . S
C369 C368 1.387 . S
C369 C371 1.387 . S
H370 C377 0.950 . S
C371 C369 1.387 . S
C371 C373 1.390 . S
C371 H375 0.950 . S
H372 C368 0.950 . S
C373 C371 1.390 . S
C373 C374 1.387 . S
C373 H376 0.950 . S
C374 C373 1.387 . S
C374 C377 1.387 . S
H375 C371 0.950 . S
H376 C373 0.950 . S
C377 C368 1.390 . S
C377 H370 0.950 . S
C377 C374 1.387 . S
C378 C379 1.387 . S
C378 H382 0.950 . S
C378 C387 1.390 . S
C379 C378 1.387 . S
C379 C381 1.387 . S
H380 C387 0.950 . S
C381 C379 1.387 . S
C381 C383 1.390 . S
C381 H385 0.950 . S
H382 C378 0.950 . S
C383 C381 1.390 . S
C383 C384 1.387 . S
C383 H386 0.950 . S
C384 C383 1.387 . S
C384 C387 1.387 . S
H385 C381 0.950 . S
H386 C383 0.950 . S
C387 C378 1.390 . S
C387 H380 0.950 . S
C387 C384 1.387 . S
C388 C389 1.387 . S
C388 H392 0.950 . S
C388 C397 1.390 . S
C389 C388 1.387 . S
C389 C391 1.387 . S
H390 C397 0.950 . S
C391 C389 1.387 . S
C391 C393 1.390 . S
C391 H395 0.950 . S
H392 C388 0.950 . S
C393 C391 1.390 . S
C393 C394 1.387 . S
C393 H396 0.950 . S
C394 C393 1.387 . S
C394 C397 1.387 . S
H395 C391 0.950 . S
H396 C393 0.950 . S
C397 C388 1.390 . S
C397 H390 0.950 . S
C397 C394 1.387 . S
C398 C399 1.387 . S
C398 H402 0.950 . S
C398 C407 1.390 . S
C399 C398 1.387 . S
C399 C401 1.387 . S
H400 C407 0.950 . S
C401 C399 1.387 . S
C401 C403 1.390 . S
C401 H405 0.950 . S
H402 C398 0.950 . S
C403 C401 1.390 . S
C403 C404 1.387 . S
C403 H406 0.950 . S
C404 C403 1.387 . S
C404 C407 1.387 . S
H405 C401 0.950 . S
H406 C403 0.950 . S
C407 C398 1.390 . S
C407 H400 0.950 . S
C407 C404 1.387 . S
C169 C5 1.211 . S
C174 C159 1.207 . S
C179 C89 1.210 . S
C184 C19 1.210 . S
C189 C33 1.207 . S
C194 C103 1.211 . S
C199 C117 1.211 . S
C204 C47 1.209 . S
C209 C131 1.209 . S
C214 C61 1.209 . S
C219 C145 1.210 . S
C224 C75 1.208 . S
C229 C54 1.608 . S
C234 C124 1.607 . S
C239 C68 1.607 . S
C244 C138 1.607 . S
C249 C82 1.607 . S
C254 C152 1.608 . S
C259 C166 1.608 . S
C264 C12 1.608 . S
C269 C26 1.607 . S
C274 C96 1.607 . S
C279 C40 1.607 . S
C284 C110 1.608 . S
C289 C116 1.397 . S
C294 C4 1.396 . S
C299 C130 1.397 . S
C304 C18 1.397 . S
C309 C32 1.396 . S
C314 C144 1.396 . S
C319 C46 1.397 . S
C324 C158 1.397 . S
C329 C60 1.395 . S
C334 C88 1.395 . S
C339 C102 1.396 . S
C344 C74 1.396 . S
C349 C11 1.335 . S
C354 C151 1.335 . S
C359 C165 1.335 . S
C364 C25 1.336 . S
C369 C39 1.337 . S
C374 C95 1.335 . S
C379 C53 1.337 . S
C384 C109 1.337 . S
C389 C67 1.337 . S
C394 C123 1.335 . S
C399 C81 1.336 . S
C404 C137 1.337 . S
