# Generated by pormake.
# Topology snk, (6)-cn, num edge types: 1
# Building blocks:
#     Node 0, Type 0, BuildingBlock: GEDQOX_clean_sbu_0, # of connection points: 6
#     Node 1, Type 0, BuildingBlock: GEDQOX_clean_sbu_0, # of connection points: 6
#     Node 2, Type 0, BuildingBlock: GEDQOX_clean_sbu_0, # of connection points: 6
#     Node 3, Type 0, BuildingBlock: GEDQOX_clean_sbu_0, # of connection points: 6
#     Node 4, Type 0, BuildingBlock: GEDQOX_clean_sbu_0, # of connection points: 6
#     Node 5, Type 0, BuildingBlock: GEDQOX_clean_sbu_0, # of connection points: 6
#     Node 6, Type 0, BuildingBlock: GEDQOX_clean_sbu_0, # of connection points: 6
#     Node 7, Type 0, BuildingBlock: GEDQOX_clean_sbu_0, # of connection points: 6
#     Edge 8, Type (0, 0), BuildingBlock: AJUNOK_clean_linker_0, # of connection points: 2
#     Edge 9, Type (0, 0), BuildingBlock: AJUNOK_clean_linker_0, # of connection points: 2
#     Edge 10, Type (0, 0), BuildingBlock: AJUNOK_clean_linker_0, # of connection points: 2
#     Edge 11, Type (0, 0), BuildingBlock: AJUNOK_clean_linker_0, # of connection points: 2
#     Edge 12, Type (0, 0), BuildingBlock: AJUNOK_clean_linker_0, # of connection points: 2
#     Edge 13, Type (0, 0), BuildingBlock: AJUNOK_clean_linker_0, # of connection points: 2
#     Edge 14, Type (0, 0), BuildingBlock: AJUNOK_clean_linker_0, # of connection points: 2
#     Edge 15, Type (0, 0), BuildingBlock: AJUNOK_clean_linker_0, # of connection points: 2
#     Edge 16, Type (0, 0), BuildingBlock: AJUNOK_clean_linker_0, # of connection points: 2
#     Edge 17, Type (0, 0), BuildingBlock: AJUNOK_clean_linker_0, # of connection points: 2
#     Edge 18, Type (0, 0), BuildingBlock: AJUNOK_clean_linker_0, # of connection points: 2
#     Edge 19, Type (0, 0), BuildingBlock: AJUNOK_clean_linker_0, # of connection points: 2
#     Edge 20, Type (0, 0), BuildingBlock: AJUNOK_clean_linker_0, # of connection points: 2
#     Edge 21, Type (0, 0), BuildingBlock: AJUNOK_clean_linker_0, # of connection points: 2
#     Edge 22, Type (0, 0), BuildingBlock: AJUNOK_clean_linker_0, # of connection points: 2
#     Edge 23, Type (0, 0), BuildingBlock: AJUNOK_clean_linker_0, # of connection points: 2
#     Edge 24, Type (0, 0), BuildingBlock: AJUNOK_clean_linker_0, # of connection points: 2
#     Edge 25, Type (0, 0), BuildingBlock: AJUNOK_clean_linker_0, # of connection points: 2
#     Edge 26, Type (0, 0), BuildingBlock: AJUNOK_clean_linker_0, # of connection points: 2
#     Edge 27, Type (0, 0), BuildingBlock: AJUNOK_clean_linker_0, # of connection points: 2
#     Edge 28, Type (0, 0), BuildingBlock: AJUNOK_clean_linker_0, # of connection points: 2
#     Edge 29, Type (0, 0), BuildingBlock: AJUNOK_clean_linker_0, # of connection points: 2
#     Edge 30, Type (0, 0), BuildingBlock: AJUNOK_clean_linker_0, # of connection points: 2
#     Edge 31, Type (0, 0), BuildingBlock: AJUNOK_clean_linker_0, # of connection points: 2
# Relax obj value: 0.115
# Max RMSD: 0.189
# Mean RMSD: 0.189
data_MOF--net-snk--node1-GEDQOX_clean_sbu_0--edge1-AJUNOK_clean_linker_0
_symmetry_space_group_name_H-M    P1
_symmetry_Int_Tables_number       1
_symmetry_cell_setting            triclinic
loop_
_symmetry_equiv_pos_as_xyz
'x, y, z'
_cell_length_a     45.73043
_cell_length_b     45.870208
_cell_length_c     11.528906
_cell_angle_alpha  89.939045
_cell_angle_beta   90.210978
_cell_angle_gamma 90.003221
loop_
_atom_site_label
_atom_site_type_symbol
_atom_site_fract_x
_atom_site_fract_y
_atom_site_fract_z
_atom_type_partial_charge
Nd0 Nd 0.04002 0.0414 0.51768 0.0
Nd1 Nd 0.99716 0.98714 0.51224 0.0
C2 C 0.07372 0.08658 0.47587 0.0
C3 C 0.09305 0.11124 0.44545 0.0
C4 C 0.09947 0.13314 0.52662 0.0
C5 C 0.12109 0.15397 0.50295 0.0
C6 C 0.13624 0.15355 0.39694 0.0
C7 C 0.12874 0.13248 0.31376 0.0
C8 C 0.10746 0.11147 0.33797 0.0
C9 C 0.06442 0.98838 0.57449 0.0
C10 C 1.0177 1.0143 0.26915 0.0
C11 C 0.97535 0.93373 0.52712 0.0
C12 C 0.94926 0.91735 0.56776 0.0
C13 C 0.95093 0.89986 0.66802 0.0
C14 C 0.92688 0.88316 0.70376 0.0
C15 C 0.90063 0.8836 0.64 0.0
C16 C 0.89916 0.90076 0.53887 0.0
C17 C 0.9231 0.91746 0.50335 0.0
C18 C 0.96467 0.03856 0.49927 0.0
C19 C 1.01387 0.01923 0.76136 0.0
O20 O 0.05128 0.08855 0.5464 0.0
O21 O 0.07776 0.06091 0.42907 0.0
O22 O 0.07133 1.01282 0.62336 0.0
O23 O 0.04609 0.99244 0.49358 0.0
O24 O 0.02461 0.03819 0.32713 0.0
O25 O 1.0117 0.9897 0.32345 0.0
O26 O 0.99262 0.94506 0.60613 0.0
O27 O 0.97239 0.95043 0.43539 0.0
O28 O 0.95311 1.01271 0.50093 0.0
O29 O 0.99192 0.03578 0.50749 0.0
O30 O 1.00613 0.99528 0.70529 0.0
O31 O 0.02377 0.04264 0.70623 0.0
H32 H 0.08878 0.13333 0.61032 0.0
H33 H 0.12655 0.16996 0.56866 0.0
H34 H 0.14036 0.13133 0.23216 0.0
H35 H 0.10293 0.09482 0.2738 0.0
H36 H 0.97093 0.89895 0.71852 0.0
H37 H 0.92871 0.8701 0.78178 0.0
H38 H 0.87952 0.90101 0.48607 0.0
H39 H 0.92112 0.93021 0.42458 0.0
Nd40 Nd 0.23849 0.78682 0.80288 0.0
Nd41 Nd 0.29607 0.74628 0.80166 0.0
C42 C 0.18546 0.80979 0.77544 0.0
C43 C 0.16874 0.83588 0.73855 0.0
C44 C 0.14213 0.83215 0.67921 0.0
C45 C 0.12465 0.85622 0.65038 0.0
C46 C 0.13334 0.88458 0.68105 0.0
C47 C 0.16049 0.88833 0.73745 0.0
C48 C 0.17799 0.86424 0.76616 0.0
C49 C 0.29078 0.81646 0.83239 0.0
C50 C 0.26841 0.76722 0.55318 0.0
C51 C 0.35044 0.72627 0.81671 0.0
C52 C 0.36793 0.70076 0.85497 0.0
C53 C 0.39592 0.70511 0.9026 0.0
C54 C 0.41398 0.6813 0.92983 0.0
C55 C 0.40447 0.65263 0.909 0.0
C56 C 0.37596 0.64833 0.86544 0.0
C57 C 0.3579 0.67211 0.83861 0.0
C58 C 0.245 0.71227 0.80567 0.0
C59 C 0.26467 0.76324 0.04548 0.0
O60 O 0.19869 0.79469 0.69519 0.0
O61 O 0.20045 0.81121 0.87216 0.0
O62 O 0.26568 0.8255 0.87023 0.0
O63 O 0.28706 0.79437 0.76813 0.0
O64 O 0.24518 0.77745 0.60811 0.0
O65 O 0.29193 0.75784 0.60913 0.0
O66 O 0.3384 0.74246 0.89702 0.0
O67 O 0.33369 0.72291 0.72516 0.0
O68 O 0.27122 0.70138 0.80301 0.0
O69 O 0.24778 0.73947 0.80901 0.0
O70 O 0.2897 0.75993 0.99046 0.0
O71 O 0.23988 0.76801 0.98847 0.0
H72 H 0.13454 0.81046 0.65712 0.0
H73 H 0.10393 0.85256 0.60694 0.0
H74 H 0.16816 0.90995 0.75986 0.0
H75 H 0.19852 0.86777 0.81116 0.0
H76 H 0.40413 0.72702 0.91607 0.0
H77 H 0.43575 0.68534 0.96345 0.0
H78 H 0.36774 0.62649 0.8508 0.0
H79 H 0.33632 0.6681 0.803 0.0
Nd80 Nd 0.49569 0.99166 1.02235 0.0
Nd81 Nd 0.53757 0.04883 1.02267 0.0
C82 C 0.47314 0.93821 1.00828 0.0
C83 C 0.44627 0.92127 0.97636 0.0
C84 C 0.44136 0.91138 0.86216 0.0
C85 C 0.41708 0.89371 0.83525 0.0
C86 C 0.39712 0.88528 0.92188 0.0
C87 C 0.4021 0.89522 1.03581 0.0
C88 C 0.42631 0.91278 0.06268 0.0
C89 C 0.46277 0.04322 1.02184 0.0
C90 C 0.51316 0.02349 0.77895 0.0
C91 C 0.56342 0.10031 0.05793 0.0
C92 C 0.5915 0.11546 0.08513 0.0
C93 C 0.59952 0.14051 1.02232 0.0
C94 C 0.62451 0.1567 0.05306 0.0
C95 C 0.64218 0.14824 0.14754 0.0
C96 C 0.63398 0.12322 0.21072 0.0
C97 C 0.60908 0.10701 0.1798 0.0
C98 C 0.56603 0.99643 0.98612 0.0
C99 C 0.51596 0.01932 0.27061 0.0
O100 O 0.48864 0.95019 0.92542 0.0
O101 O 0.4723 0.95428 0.10219 0.0
O102 O 0.45128 1.01734 1.02204 0.0
O103 O 0.48996 0.04003 1.01795 0.0
O104 O 0.50937 0.99847 0.83373 0.0
O105 O 0.51877 0.04806 0.83604 0.0
O106 O 0.5517 0.08444 0.13966 0.0
O107 O 0.55952 0.08909 0.95465 0.0
O108 O 0.57536 0.02163 0.95142 0.0
O109 O 0.54431 0.99993 0.05262 0.0
O110 O 0.52523 0.04282 0.21506 0.0
O111 O 0.50779 0.99539 0.2151 0.0
H112 H 0.45639 0.91713 0.79343 0.0
H113 H 0.41375 0.88696 0.74621 0.0
H114 H 0.38738 0.88906 0.10506 0.0
H115 H 0.42956 0.91943 0.15193 0.0
H116 H 0.58619 0.14783 0.9501 0.0
H117 H 0.63013 0.17575 1.00223 0.0
H118 H 0.64659 0.11635 0.28558 0.0
H119 H 0.60336 0.08812 0.23137 0.0
Nd120 Nd 0.29532 0.24877 0.29233 0.0
Nd121 Nd 0.24182 0.28761 0.27944 0.0
C122 C 0.34641 0.22134 0.2706 0.0
C123 C 0.3611 0.19542 0.21902 0.0
C124 C 0.38342 0.19923 0.1368 0.0
C125 C 0.39968 0.17535 0.09658 0.0
C126 C 0.39426 0.14703 0.1386 0.0
C127 C 0.37139 0.14316 0.21861 0.0
C128 C 0.35507 0.167 0.25845 0.0
C129 C 0.243 0.21947 0.3173 0.0
C130 C 0.26575 0.26407 0.03921 0.0
C131 C 0.19052 0.31466 0.30183 0.0
C132 C 0.17556 0.34077 0.35094 0.0
C133 C 0.15697 0.33806 0.44752 0.0
C134 C 0.14057 0.36197 0.48716 0.0
C135 C 0.14237 0.38919 0.43119 0.0
C136 C 0.16092 0.39179 0.33452 0.0
C137 C 0.17731 0.368 0.29516 0.0
C138 C 0.29416 0.31691 0.25339 0.0
C139 C 0.27042 0.27165 0.53296 0.0
O140 O 0.338 0.24244 0.20173 0.0
O141 O 0.32818 0.21699 0.35581 0.0
O142 O 0.26687 0.21257 0.37108 0.0
O143 O 0.24761 0.23969 0.24568 0.0
O144 O 0.29031 0.25888 0.09642 0.0
O145 O 0.2413 0.26923 0.09583 0.0
O146 O 0.19963 0.29432 0.37282 0.0
O147 O 0.20828 0.31854 0.21461 0.0
O148 O 0.27021 0.32371 0.1999 0.0
O149 O 0.2896 0.29681 0.32579 0.0
O150 O 0.24631 0.27686 0.47346 0.0
O151 O 0.2952 0.26605 0.47888 0.0
H152 H 0.38871 0.22084 0.10515 0.0
H153 H 0.41661 0.17912 1.03288 0.0
H154 H 0.36661 0.12173 0.25318 0.0
H155 H 0.33818 0.16317 0.32228 0.0
H156 H 0.1547 0.31728 0.49132 0.0
H157 H 0.12644 0.35916 0.56153 0.0
H158 H 0.16227 0.41213 0.28703 0.0
H159 H 0.19086 0.37087 0.21915 0.0
Nd160 Nd 0.74267 0.28946 0.26598 0.0
Nd161 Nd 0.80122 0.24609 0.26728 0.0
C162 C 0.68898 0.31144 0.25746 0.0
C163 C 0.6726 0.33828 0.22594 0.0
C164 C 0.64844 0.34664 0.29291 0.0
C165 C 0.6319 0.37131 0.26333 0.0
C166 C 0.63901 0.38819 0.16536 0.0
C167 C 0.66351 0.37997 0.09911 0.0
C168 C 0.6801 0.35527 0.1289 0.0
C169 C 0.79501 0.32106 0.27023 0.0
C170 C 0.77359 0.2697 1.02098 0.0
C171 C 0.85466 0.22366 0.27865 0.0
C172 C 0.87012 0.19682 0.31683 0.0
C173 C 0.89429 0.18681 0.25355 0.0
C174 C 0.9096 0.16178 0.28853 0.0
C175 C 0.90101 0.14604 0.38756 0.0
C176 C 0.87691 0.15629 0.45159 0.0
C177 C 0.86158 0.18135 0.41647 0.0
C178 C 0.74892 0.21437 0.26023 0.0
C179 C 0.77062 0.26539 0.51288 0.0
O180 O 0.70071 0.29637 0.17301 0.0
O181 O 0.70551 0.31241 0.35049 0.0
O182 O 0.76925 0.333 0.26691 0.0
O183 O 0.79143 0.29388 0.26651 0.0
O184 O 0.74925 0.27789 0.07395 0.0
O185 O 0.79761 0.26196 0.07828 0.0
O186 O 0.84342 0.24028 0.35949 0.0
O187 O 0.83794 0.22165 0.18639 0.0
O188 O 0.77477 0.20265 0.26307 0.0
O189 O 0.75236 0.24158 0.26624 0.0
O190 O 0.79459 0.25706 0.45834 0.0
O191 O 0.74673 0.2744 0.45726 0.0
H192 H 0.64228 0.33398 0.36839 0.0
H193 H 0.61374 0.37738 0.31826 0.0
H194 H 0.66967 0.39249 1.02333 0.0
H195 H 0.69867 0.34939 0.07576 0.0
H196 H 0.90137 0.1984 0.17667 0.0
H197 H 0.92792 0.15445 0.23691 0.0
H198 H 0.87002 0.14507 0.52952 0.0
H199 H 0.84312 0.18864 0.46739 0.0
Nd200 Nd 0.79786 0.74526 0.79046 0.0
Nd201 Nd 0.74367 0.78956 0.7881 0.0
C202 C 0.85106 0.72219 0.77582 0.0
C203 C 0.86746 0.69649 0.73295 0.0
C204 C 0.89781 0.69861 0.71703 0.0
C205 C 0.91428 0.67422 0.68386 0.0
C206 C 0.90074 0.64705 0.66522 0.0
C207 C 0.87016 0.64516 0.6792 0.0
C208 C 0.85369 0.66961 0.71254 0.0
C209 C 0.74542 0.71452 0.79995 0.0
C210 C 0.76513 0.76306 0.54272 0.0
C211 C 0.69968 0.82487 0.83543 0.0
C212 C 0.67628 0.84596 0.86786 0.0
C213 C 0.64844 0.84555 0.81526 0.0
C214 C 0.62785 0.86757 0.83953 0.0
C215 C 0.63483 0.89032 0.91655 0.0
C216 C 0.66212 0.88996 0.97248 0.0
C217 C 0.68251 0.86808 0.94882 0.0
C218 C 0.79749 0.8134 0.73782 0.0
C219 C 0.77006 0.76491 1.03502 0.0
O220 O 0.84029 0.74019 0.69838 0.0
O221 O 0.83356 0.71818 0.86421 0.0
O222 O 0.7709 0.70206 0.7974 0.0
O223 O 0.74917 0.74157 0.79343 0.0
O224 O 0.78921 0.75481 0.59786 0.0
O225 O 0.74211 0.77384 0.59829 0.0
O226 O 0.69656 0.80319 0.76184 0.0
O227 O 0.72579 0.82716 0.88138 0.0
O228 O 0.77309 0.82097 0.68927 0.0
O229 O 0.79306 0.79417 0.81476 0.0
O230 O 0.74643 0.77285 0.97659 0.0
O231 O 0.79476 0.75832 0.98175 0.0
H232 H 0.90894 0.71909 0.7329 0.0
H233 H 0.93778 0.67644 0.6767 0.0
H234 H 0.85896 0.62465 0.66527 0.0
H235 H 0.83029 0.6674 0.72408 0.0
H236 H 0.64293 0.8288 0.75273 0.0
H237 H 0.60704 0.86754 0.79438 0.0
H238 H 0.66808 0.90731 1.03176 0.0
H239 H 0.7036 0.86912 0.99166 0.0
Nd240 Nd 0.54286 0.54769 0.05449 0.0
Nd241 Nd 0.49828 0.49492 0.05019 0.0
C242 C 0.56595 0.60063 0.04425 0.0
C243 C 0.59157 0.61699 1.00133 0.0
C244 C 0.60127 0.64141 0.06359 0.0
C245 C 0.62514 0.65775 1.0247 0.0
C246 C 0.63978 0.65011 0.92204 0.0
C247 C 0.63019 0.6254 0.86022 0.0
C248 C 0.60625 0.609 0.89936 0.0
C249 C 0.57369 0.4953 0.06485 0.0
C250 C 0.52558 0.51524 0.80627 0.0
C251 C 0.46339 0.45063 0.09299 0.0
C252 C 0.44356 0.42626 0.12263 0.0
C253 C 0.43628 0.40498 0.04002 0.0
C254 C 0.41465 0.38418 0.06407 0.0
C255 C 0.40028 0.38401 0.17182 0.0
C256 C 0.40858 0.40451 0.25617 0.0
C257 C 0.42991 0.42548 0.23167 0.0
C258 C 0.47535 0.54884 0.99507 0.0
C259 C 0.52277 0.51971 0.29812 0.0
O260 O 0.54748 0.59046 0.96698 0.0
O261 O 0.57031 0.58273 0.13119 0.0
O262 O 0.58617 0.52072 0.06209 0.0
O263 O 0.54652 0.49898 0.05802 0.0
O264 O 0.53419 0.53938 0.85979 0.0
O265 O 0.51521 0.49248 0.86395 0.0
O266 O 0.48421 0.44889 1.01497 0.0
O267 O 0.46139 0.47574 0.14623 0.0
O268 O 0.46764 0.52461 0.9464 0.0
O269 O 0.49371 0.54406 0.07538 0.0
O270 O 0.51527 0.49647 0.23765 0.0
O271 O 0.52971 0.54446 0.24621 0.0
H272 H 0.59036 0.64785 0.14282 0.0
H273 H 0.63243 0.67613 0.07614 0.0
H274 H 0.64108 0.61889 0.78111 0.0
H275 H 0.59921 0.59016 0.85001 0.0
H276 H 0.44641 0.40514 0.95523 0.0
H277 H 0.40863 0.36864 0.99745 0.0
H278 H 0.3976 0.4052 0.33922 0.0
H279 H 0.43516 0.4416 0.29715 0.0
Nd280 Nd 1.00005 0.48914 0.55885 0.0
Nd281 Nd 0.03883 0.54253 0.55117 0.0
C282 C 0.97288 0.43789 0.53404 0.0
C283 C 0.94738 0.42247 0.48087 0.0
C284 C 0.95177 0.39604 0.42156 0.0
C285 C 0.92795 0.37965 0.37991 0.0
C286 C 0.89903 0.38928 0.39619 0.0
C287 C 0.89471 0.41585 0.45532 0.0
C288 C 0.91851 0.43224 0.49673 0.0
C289 C 0.96977 0.54112 0.58422 0.0
C290 C 1.0161 0.51852 0.30805 0.0
C291 C 0.065 0.59433 0.57359 0.0
C292 C 0.09094 0.61072 0.61629 0.0
C293 C 0.0966 0.63843 0.56977 0.0
C294 C 0.12068 0.65487 0.60745 0.0
C295 C 0.13981 0.64407 0.69319 0.0
C296 C 0.13426 0.61608 0.7392 0.0
C297 C 0.10999 0.59961 0.70152 0.0
C298 C 0.06962 0.49091 0.52698 0.0
C299 C 0.02229 0.51393 0.80198 0.0
O300 O 0.99413 0.44655 0.46675 0.0
O301 O 0.96784 0.4562 0.61829 0.0
O302 O 0.96297 0.5169 0.63483 0.0
O303 O 0.9906 0.53705 0.51433 0.0
O304 O 1.01062 0.49408 0.3643 0.0
O305 O 0.02133 0.54284 0.36534 0.0
O306 O 0.04673 0.58364 0.64946 0.0
O307 O 0.06843 0.57724 0.48424 0.0
O308 O 0.07659 0.51538 0.4789 0.0
O309 O 0.04845 0.4945 0.59577 0.0
O310 O 0.02712 0.53815 0.74363 0.0
O311 O 1.01688 0.48926 0.74684 0.0
H312 H 0.97372 0.38775 0.40915 0.0
H313 H 0.9322 0.35939 0.33486 0.0
H314 H 0.87281 0.42369 0.47232 0.0
H315 H 0.91424 0.45229 0.54322 0.0
H316 H 0.08235 0.64742 0.50348 0.0
H317 H 0.12459 0.67591 0.56773 0.0
H318 H 0.14856 0.60703 0.80506 0.0
H319 H 0.10613 0.57827 0.73874 0.0
C320 C 0.18498 0.17262 0.45905 0.0
C321 C 0.16195 0.17279 0.37793 0.0
C322 C 0.2109 0.18806 0.43856 0.0
C323 C 0.21469 0.20463 0.33693 0.0
H324 H 0.18334 0.15965 0.53736 0.0
H325 H 0.22822 0.1868 0.50275 0.0
S326 S 0.16028 0.21378 0.1004 0.0
N327 N 0.1441 0.19179 0.19393 0.0
N328 N 0.1927 0.22133 0.15645 0.0
C329 C 0.19148 0.20582 0.25675 0.0
C330 C 0.16518 0.18971 0.27687 0.0
C331 C 0.08401 0.93884 0.52024 0.0
C332 C 0.07909 0.96048 0.60431 0.0
C333 C 0.10119 0.91411 0.54585 0.0
C334 C 0.11392 0.91011 0.6565 0.0
H335 H 0.07549 0.94156 0.43311 0.0
H336 H 0.10523 0.89843 0.47757 0.0
S337 S 0.10332 0.95818 0.91172 0.0
N338 N 0.0856 0.97477 0.80557 0.0
N339 N 0.11724 0.92834 0.854 0.0
C340 C 0.10774 0.9309 0.7426 0.0
C341 C 0.09048 0.95603 0.71643 0.0
C342 C 0.31788 0.85871 0.91822 0.0
C343 C 0.31857 0.83309 0.85086 0.0
C344 C 0.34317 0.87527 0.9395 0.0
C345 C 0.37057 0.86711 0.89455 0.0
H346 H 0.2975 0.8662 0.95537 0.0
H347 H 0.34115 0.89486 0.99125 0.0
S348 S 0.38475 0.80128 0.71564 0.0
N349 N 0.34921 0.80008 0.74035 0.0
N350 N 0.39689 0.83094 0.78131 0.0
C351 C 0.37168 0.84147 0.82695 0.0
C352 C 0.34574 0.82452 0.80517 0.0
C353 C 0.41546 0.07006 0.0439 0.0
C354 C 0.44624 0.07073 0.04251 0.0
C355 C 0.39894 0.09486 0.07246 0.0
C356 C 0.41245 0.12152 0.10118 0.0
H357 H 0.40392 0.05002 1.02433 0.0
H358 H 0.37533 0.09307 0.0727 0.0
S359 S 0.49256 0.13485 0.11115 0.0
N360 N 0.4896 0.10042 0.07099 0.0
N361 N 0.45876 0.14685 0.12701 0.0
C362 C 0.44327 0.12261 0.09837 0.0
C363 C 0.46009 0.09731 0.06861 0.0
C364 C 0.8772 0.83648 0.70611 0.0
C365 C 0.87468 0.86633 0.67768 0.0
C366 C 0.8523 0.81945 0.73105 0.0
C367 C 0.82412 0.83168 0.72726 0.0
H368 H 0.89842 0.826 0.70507 0.0
H369 H 0.85504 0.79644 0.74876 0.0
S370 S 0.8062 0.90968 0.67727 0.0
N371 N 0.84205 0.90795 0.6627 0.0
N372 N 0.79552 0.87609 0.7062 0.0
C373 C 0.82156 0.86176 0.70512 0.0
C374 C 0.84675 0.87904 0.68116 0.0
C375 C 0.96312 0.09236 0.45411 0.0
C376 C 0.94826 0.06619 0.47842 0.0
C377 C 0.94777 0.11809 0.42599 0.0
C378 C 0.91692 0.11878 0.42214 0.0
H379 H 0.98681 0.09287 0.4546 0.0
H380 H 0.96018 0.13762 0.40699 0.0
S381 S 0.86767 0.05608 0.47898 0.0
N382 N 0.90086 0.04269 0.4976 0.0
N383 N 0.87223 0.09071 0.44454 0.0
C384 C 0.90187 0.09281 0.44788 0.0
C385 C 0.91746 0.06665 0.47592 0.0
C386 C 0.69449 0.21182 0.21576 0.0
C387 C 0.72133 0.1977 0.2373 0.0
C388 C 0.66903 0.19585 0.18678 0.0
C389 C 0.66931 0.16509 0.17896 0.0
H390 H 0.69321 0.23537 0.2199 0.0
H391 H 0.64891 0.20768 0.17101 0.0
S392 S 0.7342 0.11771 0.22385 0.0
N393 N 0.74648 0.15101 0.24745 0.0
N394 N 0.6992 0.12145 0.19197 0.0
C395 C 0.69603 0.15084 0.20045 0.0
C396 C 0.72182 0.167 0.22979 0.0
C397 C 0.58899 0.91585 0.98751 0.0
C398 C 0.61586 0.91658 0.92799 0.0
C399 C 0.57262 0.9416 1.00605 0.0
C400 C 0.58251 0.96882 0.96482 0.0
H401 H 0.58098 0.89542 1.0222 0.0
H402 H 0.55228 0.94022 0.05364 0.0
S403 S 0.65079 0.98159 0.79746 0.0
N404 N 0.65094 0.94627 0.82448 0.0
N405 N 0.62056 0.99421 0.85685 0.0
C406 C 0.60901 0.9694 0.90237 0.0
C407 C 0.62558 0.94343 0.88466 0.0
C408 C 0.69173 0.65273 0.85253 0.0
C409 C 0.6657 0.6672 0.88253 0.0
C410 C 0.71709 0.66831 0.82324 0.0
C411 C 0.71746 0.699 0.82186 0.0
H412 H 0.69279 0.62914 0.85511 0.0
H413 H 0.73675 0.65613 0.80351 0.0
S414 S 0.65456 0.74739 0.88529 0.0
N415 N 0.64144 0.71412 0.90242 0.0
N416 N 0.68917 0.74327 0.84844 0.0
C417 C 0.6914 0.71376 0.84823 0.0
C418 C 0.66555 0.69791 0.87845 0.0
C419 C 0.63593 0.44115 0.10833 0.0
C420 C 0.62157 0.41479 0.13457 0.0
C421 C 0.62019 0.46679 0.08413 0.0
C422 C 0.58939 0.46723 0.08412 0.0
H423 H 0.65959 0.44218 0.10921 0.0
H424 H 0.63235 0.48656 0.06653 0.0
S425 S 0.54108 0.40388 0.14102 0.0
N426 N 0.5745 0.39057 0.15394 0.0
N427 N 0.54509 0.43877 0.10943 0.0
C428 C 0.5747 0.44096 0.10782 0.0
C429 C 0.59072 0.41481 0.13295 0.0
C430 C 0.87213 0.34108 0.37405 0.0
C431 C 0.87342 0.37148 0.35421 0.0
C432 C 0.84732 0.32446 0.34238 0.0
C433 C 0.82278 0.33757 0.28984 0.0
H434 H 0.89003 0.33017 0.41793 0.0
H435 H 0.84694 0.30144 0.3632 0.0
S436 S 0.81644 0.4154 0.20449 0.0
N437 N 0.84888 0.41313 0.26713 0.0
N438 N 0.80241 0.38228 0.21047 0.0
C439 C 0.8243 0.36761 0.26523 0.0
C440 C 0.84951 0.38444 0.29664 0.0
C441 C 0.91323 0.59438 0.70077 0.0
C442 C 0.91854 0.62036 0.6392 0.0
C443 C 0.92993 0.56916 0.68171 0.0
C444 C 0.95275 0.56859 0.59995 0.0
H445 H 0.89628 0.59362 0.76612 0.0
H446 H 0.92492 0.54993 0.73249 0.0
S447 S 0.9752 0.63031 0.41222 0.0
N448 N 0.94799 0.64359 0.48987 0.0
N449 N 0.97954 0.59622 0.4553 0.0
C450 C 0.95833 0.59428 0.53709 0.0
C451 C 0.94124 0.6201 0.55646 0.0
C452 C 0.32556 0.34929 0.13322 0.0
C453 C 0.32232 0.33212 0.2336 0.0
C454 C 0.35125 0.36509 0.11237 0.0
C455 C 0.37464 0.36468 0.1918 0.0
H456 H 0.30798 0.35076 0.07022 0.0
H457 H 0.35243 0.37846 1.03501 0.0
S458 S 0.37786 0.32211 0.4654 0.0
N459 N 0.34524 0.31462 0.41101 0.0
N460 N 0.39344 0.34479 0.37281 0.0
C461 C 0.37197 0.34718 0.29163 0.0
C462 C 0.34587 0.33072 0.31213 0.0
C463 C 0.45733 0.59879 0.05428 0.0
C464 C 0.46025 0.57686 0.96975 0.0
C465 C 0.43974 0.62358 1.03374 0.0
C466 C 0.42449 0.62727 0.92803 0.0
H467 H 0.4678 0.59628 0.13813 0.0
H468 H 0.43735 0.63951 0.1023 0.0
S469 S 0.42878 0.57836 0.67245 0.0
N470 N 0.44897 0.56207 0.77223 0.0
N471 N 0.41641 0.60842 0.73371 0.0
C472 C 0.42858 0.60619 0.84111 0.0
C473 C 0.44633 0.5811 0.86194 0.0
C474 C 0.21905 0.66515 0.76245 0.0
C475 C 0.21749 0.69528 0.7859 0.0
C476 C 0.1939 0.64869 0.73575 0.0
C477 C 0.16597 0.66161 0.73075 0.0
H478 H 0.24004 0.6542 0.76239 0.0
H479 H 0.19649 0.62578 0.7155 0.0
S480 S 0.14938 0.73909 0.79723 0.0
N481 N 0.18528 0.73684 0.81083 0.0
N482 N 0.13813 0.70612 0.76078 0.0
C483 C 0.16398 0.69155 0.75783 0.0
C484 C 0.18963 0.70828 0.78542 0.0
C485 C 0.09428 0.41185 0.49292 0.0
C486 C 0.1245 0.41474 0.47044 0.0
C487 C 0.07667 0.43636 0.51758 0.0
C488 C 0.08861 0.46463 0.51963 0.0
H489 H 0.08393 0.39067 0.48684 0.0
H490 H 0.0534 0.4333 0.5297 0.0
S491 S 0.16707 0.48354 0.48628 0.0
N492 N 0.16595 0.44788 0.46756 0.0
N493 N 0.13297 0.49366 0.50994 0.0
C494 C 0.11896 0.46757 0.50352 0.0
C495 C 0.13685 0.44274 0.47997 0.0
C496 C 0.02502 0.04141 0.95695 0.0
C497 C 1.01332 0.01835 0.89091 0.0
C498 C 0.02627 0.03999 0.07881 0.0
C499 C 1.01601 1.01539 0.13994 0.0
H500 H 0.03366 0.0606 0.91439 0.0
H501 H 0.03569 0.05826 0.1252 0.0
S502 S 0.98198 0.94952 1.00913 0.0
N503 N 0.99018 0.97043 0.89754 0.0
N504 N 0.99279 0.96781 0.12457 0.0
C505 C 1.00387 0.99236 0.0751 0.0
C506 C 1.00245 0.99383 0.95138 0.0
C507 C 0.24358 0.77668 0.36102 0.0
C508 C 0.26783 0.76583 0.42371 0.0
C509 C 0.2423 0.7752 0.2392 0.0
C510 C 0.26525 0.76287 0.17476 0.0
H511 H 0.22537 0.78656 0.40611 0.0
H512 H 0.22339 0.78426 0.1953 0.0
S513 S 0.33299 0.72964 0.29614 0.0
N514 N 0.31491 0.74122 0.41067 0.0
N515 N 0.31244 0.73833 0.1835 0.0
C516 C 0.2894 0.75146 0.23635 0.0
C517 C 0.29071 0.75298 0.36008 0.0
C518 C 0.52515 0.04546 0.58392 0.0
C519 C 0.51228 0.023 0.64945 0.0
C520 C 0.52625 0.04407 0.462 0.0
C521 C 0.5145 0.02018 0.40017 0.0
H522 H 0.535 0.064 0.62705 0.0
H523 H 0.5367 0.06184 0.41614 0.0
S524 S 0.4762 0.95666 0.53038 0.0
N525 N 0.48594 0.97684 0.64233 0.0
N526 N 0.48816 0.97423 0.41503 0.0
C527 C 0.50097 0.9979 0.46476 0.0
C528 C 0.49981 0.99932 0.58861 0.0
C529 C 0.29193 0.25896 0.84891 0.0
C530 C 0.26612 0.26551 0.91009 0.0
C531 C 0.29331 0.26143 0.72757 0.0
C532 C 0.26896 0.27062 0.66204 0.0
H533 H 0.31137 0.25188 0.89491 0.0
H534 H 0.31362 0.25586 0.68499 0.0
S535 S 0.19621 0.29123 0.78008 0.0
N536 N 0.21566 0.28206 0.8952 0.0
N537 N 0.21823 0.28685 0.66851 0.0
C538 C 0.24302 0.27744 0.72223 0.0
C539 C 0.2416 0.27482 0.84566 0.0
C540 C 0.75063 0.28158 0.82768 0.0
C541 C 0.77348 0.26846 0.89157 0.0
C542 C 0.74956 0.28012 0.70591 0.0
C543 C 0.77128 0.26543 0.64245 0.0
H544 H 0.73339 0.29329 0.87185 0.0
H545 H 0.73172 0.29095 0.66134 0.0
S546 S 0.83494 0.22567 0.76804 0.0
N547 N 0.81778 0.23919 0.88148 0.0
N548 N 0.81579 0.23629 0.65412 0.0
C549 C 0.79405 0.25179 0.70544 0.0
C550 C 0.79516 0.25337 0.82931 0.0
C551 C 0.74447 0.77682 0.34667 0.0
C552 C 0.76539 0.76164 0.41317 0.0
C553 C 0.74596 0.77753 0.22473 0.0
C554 C 0.76852 0.7632 0.16407 0.0
H555 H 0.72712 0.78881 0.38895 0.0
H556 H 0.72956 0.78991 0.17788 0.0
S557 S 0.82718 0.71789 0.29587 0.0
N558 N 0.80826 0.73002 0.40735 0.0
N559 N 0.8111 0.73173 0.17996 0.0
C560 C 0.78909 0.74727 0.22924 0.0
C561 C 0.7875 0.74637 0.35305 0.0
C562 C 0.53643 0.53932 0.61517 0.0
C563 C 0.52585 0.51491 0.67665 0.0
C564 C 0.53541 0.54065 0.49354 0.0
C565 C 0.52382 0.5176 0.42734 0.0
H566 H 0.54539 0.55788 0.66116 0.0
H567 H 0.54377 0.56002 0.45132 0.0
S568 S 0.49321 0.44847 0.54476 0.0
N569 N 0.50345 0.46693 0.66076 0.0
N570 N 0.50152 0.46935 0.43306 0.0
C571 C 0.51338 0.49287 0.48742 0.0
C572 C 0.5144 0.49154 0.61151 0.0
C573 C 1.0102 0.49187 0.99573 0.0
C574 C 0.02174 0.51519 0.93102 0.0
C575 C 1.00814 0.49331 0.11714 0.0
C576 C 1.01746 0.51814 0.17906 0.0
H577 H 1.00236 0.47243 0.9524 0.0
H578 H 0.99905 0.47474 0.16261 0.0
S579 S 0.05082 0.58465 0.05146 0.0
N580 N 0.04369 0.56357 0.93906 0.0
N581 N 0.03963 0.56626 0.16602 0.0
C582 C 0.0293 0.54152 0.1155 0.0
C583 C 0.03151 0.54003 0.99201 0.0
loop_
_geom_bond_atom_site_label_1
_geom_bond_atom_site_label_2
_geom_bond_distance
_geom_bond_site_symmetry_2
_ccdc_geom_bond_type
Nd0 C2 2.836 . S
Nd0 O20 2.500 . S
Nd0 O21 2.492 . S
Nd0 O22 2.487 1_545 S
Nd0 O23 2.682 1_545 S
Nd0 O24 2.410 . S
Nd0 O29 2.414 1_455 S
Nd0 O31 2.424 . S
Nd1 C11 2.836 . S
Nd1 O23 2.414 1_655 S
Nd1 O25 2.424 . S
Nd1 O26 2.500 . S
Nd1 O27 2.492 . S
Nd1 O28 2.487 1_565 S
Nd1 O29 2.682 1_565 S
Nd1 O30 2.410 . S
C2 Nd0 2.836 . S
C2 C3 1.498 . S
C2 O20 1.258 . S
C2 O21 1.239 . S
C3 C2 1.498 . S
C3 C4 1.366 . S
C3 C8 1.407 . S
C4 C3 1.366 . S
C4 C5 1.392 . S
C4 H32 0.930 . S
C5 C4 1.392 . S
C5 C6 1.398 . S
C5 H33 0.929 . S
C6 C5 1.398 . S
C6 C7 1.352 . S
C7 C6 1.352 . S
C7 C8 1.384 . S
C7 H34 0.930 . S
C8 C3 1.407 . S
C8 C7 1.384 . S
C8 H35 0.929 . S
C9 O22 1.241 . S
C9 O23 1.273 . S
C10 O24 1.251 . S
C10 O25 1.268 1_445 S
C11 Nd1 2.836 . S
C11 C12 1.498 . S
C11 O26 1.258 . S
C11 O27 1.239 . S
C12 C11 1.498 . S
C12 C13 1.366 . S
C12 C17 1.407 . S
C13 C12 1.366 . S
C13 C14 1.392 . S
C13 H36 0.930 . S
C14 C13 1.392 . S
C14 C15 1.398 . S
C14 H37 0.929 . S
C15 C14 1.398 . S
C15 C16 1.352 . S
C16 C15 1.352 . S
C16 C17 1.384 . S
C16 H38 0.930 . S
C17 C12 1.407 . S
C17 C16 1.384 . S
C17 H39 0.929 . S
C18 O28 1.241 . S
C18 O29 1.273 . S
C19 O30 1.251 . S
C19 O31 1.268 1_665 S
O20 Nd0 2.500 . S
O20 C2 1.258 . S
O21 Nd0 2.492 . S
O21 C2 1.239 . S
O22 Nd0 2.487 1_565 S
O22 C9 1.241 . S
O23 Nd0 2.682 1_565 S
O23 Nd1 2.414 1_455 S
O23 C9 1.273 . S
O24 Nd0 2.410 . S
O24 C10 1.251 . S
O25 Nd1 2.424 . S
O25 C10 1.268 1_665 S
O26 Nd1 2.500 . S
O26 C11 1.258 . S
O27 Nd1 2.492 . S
O27 C11 1.239 . S
O28 Nd1 2.487 1_545 S
O28 C18 1.241 . S
O29 Nd0 2.414 1_655 S
O29 Nd1 2.682 1_545 S
O29 C18 1.273 . S
O30 Nd1 2.410 . S
O30 C19 1.251 . S
O31 Nd0 2.424 . S
O31 C19 1.268 1_445 S
H32 C4 0.930 . S
H33 C5 0.929 . S
H34 C7 0.930 . S
H35 C8 0.929 . S
H36 C13 0.930 . S
H37 C14 0.929 . S
H38 C16 0.930 . S
H39 C17 0.929 . S
Nd40 C42 2.836 . S
Nd40 O60 2.500 . S
Nd40 O61 2.492 . S
Nd40 O62 2.487 . S
Nd40 O63 2.682 . S
Nd40 O64 2.410 . S
Nd40 O69 2.414 . S
Nd40 O71 2.424 . S
Nd41 C51 2.836 . S
Nd41 O63 2.414 . S
Nd41 O65 2.424 . S
Nd41 O66 2.500 . S
Nd41 O67 2.492 . S
Nd41 O68 2.487 . S
Nd41 O69 2.682 . S
Nd41 O70 2.410 . S
C42 Nd40 2.836 . S
C42 C43 1.498 . S
C42 O60 1.258 . S
C42 O61 1.239 . S
C43 C42 1.498 . S
C43 C44 1.366 . S
C43 C48 1.407 . S
C44 C43 1.366 . S
C44 C45 1.392 . S
C44 H72 0.930 . S
C45 C44 1.392 . S
C45 C46 1.398 . S
C45 H73 0.929 . S
C46 C45 1.398 . S
C46 C47 1.352 . S
C47 C46 1.352 . S
C47 C48 1.384 . S
C47 H74 0.930 . S
C48 C43 1.407 . S
C48 C47 1.384 . S
C48 H75 0.929 . S
C49 O62 1.241 . S
C49 O63 1.273 . S
C50 O64 1.251 . S
C50 O65 1.268 . S
C51 Nd41 2.836 . S
C51 C52 1.498 . S
C51 O66 1.258 . S
C51 O67 1.239 . S
C52 C51 1.498 . S
C52 C53 1.366 . S
C52 C57 1.407 . S
C53 C52 1.366 . S
C53 C54 1.392 1_556 S
C53 H76 0.930 . S
C54 C53 1.392 1_554 S
C54 C55 1.398 . S
C54 H77 0.929 . S
C55 C54 1.398 . S
C55 C56 1.352 1_554 S
C56 C55 1.352 1_556 S
C56 C57 1.384 . S
C56 H78 0.930 . S
C57 C52 1.407 . S
C57 C56 1.384 . S
C57 H79 0.929 . S
C58 O68 1.241 . S
C58 O69 1.273 . S
C59 O70 1.251 . S
C59 O71 1.268 . S
O60 Nd40 2.500 . S
O60 C42 1.258 . S
O61 Nd40 2.492 . S
O61 C42 1.239 . S
O62 Nd40 2.487 . S
O62 C49 1.241 . S
O63 Nd40 2.682 . S
O63 Nd41 2.414 . S
O63 C49 1.273 . S
O64 Nd40 2.410 . S
O64 C50 1.251 . S
O65 Nd41 2.424 . S
O65 C50 1.268 . S
O66 Nd41 2.500 . S
O66 C51 1.258 . S
O67 Nd41 2.492 . S
O67 C51 1.239 . S
O68 Nd41 2.487 . S
O68 C58 1.241 . S
O69 Nd40 2.414 . S
O69 Nd41 2.682 . S
O69 C58 1.273 . S
O70 Nd41 2.410 . S
O70 C59 1.251 . S
O71 Nd40 2.424 . S
O71 C59 1.268 . S
H72 C44 0.930 . S
H73 C45 0.929 . S
H74 C47 0.930 . S
H75 C48 0.929 . S
H76 C53 0.930 . S
H77 C54 0.929 . S
H78 C56 0.930 . S
H79 C57 0.929 . S
Nd80 C82 2.836 1_554 S
Nd80 O100 2.500 1_554 S
Nd80 O101 2.492 1_554 S
Nd80 O102 2.487 1_565 S
Nd80 O103 2.682 1_565 S
Nd80 O104 2.410 1_554 S
Nd80 O109 2.414 1_554 S
Nd80 O111 2.424 . S
Nd81 C91 2.836 1_556 S
Nd81 O103 2.414 1_556 S
Nd81 O105 2.424 . S
Nd81 O106 2.500 1_556 S
Nd81 O107 2.492 1_556 S
Nd81 O108 2.487 1_545 S
Nd81 O109 2.682 1_545 S
Nd81 O110 2.410 1_556 S
C82 Nd80 2.836 1_556 S
C82 C83 1.498 . S
C82 O100 1.258 . S
C82 O101 1.239 . S
C83 C82 1.498 . S
C83 C84 1.366 . S
C83 C88 1.407 . S
C84 C83 1.366 . S
C84 C85 1.392 . S
C84 H112 0.930 . S
C85 C84 1.392 . S
C85 C86 1.398 . S
C85 H113 0.929 . S
C86 C85 1.398 . S
C86 C87 1.352 . S
C87 C86 1.352 . S
C87 C88 1.384 . S
C87 H114 0.930 . S
C88 C83 1.407 . S
C88 C87 1.384 . S
C88 H115 0.929 . S
C89 O102 1.241 . S
C89 O103 1.273 . S
C90 O104 1.251 . S
C90 O105 1.268 1_565 S
C91 Nd81 2.836 1_554 S
C91 C92 1.498 . S
C91 O106 1.258 . S
C91 O107 1.239 . S
C92 C91 1.498 . S
C92 C93 1.366 . S
C92 C97 1.407 . S
C93 C92 1.366 . S
C93 C94 1.392 . S
C93 H116 0.930 . S
C94 C93 1.392 . S
C94 C95 1.398 . S
C94 H117 0.929 . S
C95 C94 1.398 . S
C95 C96 1.352 . S
C96 C95 1.352 . S
C96 C97 1.384 . S
C96 H118 0.930 . S
C97 C92 1.407 . S
C97 C96 1.384 . S
C97 H119 0.929 . S
C98 O108 1.241 . S
C98 O109 1.273 . S
C99 O110 1.251 . S
C99 O111 1.268 1_545 S
O100 Nd80 2.500 1_556 S
O100 C82 1.258 . S
O101 Nd80 2.492 1_556 S
O101 C82 1.239 . S
O102 Nd80 2.487 1_545 S
O102 C89 1.241 . S
O103 Nd80 2.682 1_545 S
O103 Nd81 2.414 1_554 S
O103 C89 1.273 . S
O104 Nd80 2.410 1_556 S
O104 C90 1.251 . S
O105 Nd81 2.424 . S
O105 C90 1.268 1_545 S
O106 Nd81 2.500 1_554 S
O106 C91 1.258 . S
O107 Nd81 2.492 1_554 S
O107 C91 1.239 . S
O108 Nd81 2.487 1_565 S
O108 C98 1.241 . S
O109 Nd80 2.414 1_556 S
O109 Nd81 2.682 1_565 S
O109 C98 1.273 . S
O110 Nd81 2.410 1_554 S
O110 C99 1.251 . S
O111 Nd80 2.424 . S
O111 C99 1.268 1_565 S
H112 C84 0.930 . S
H113 C85 0.929 . S
H114 C87 0.930 . S
H115 C88 0.929 . S
H116 C93 0.930 . S
H117 C94 0.929 . S
H118 C96 0.930 . S
H119 C97 0.929 . S
Nd120 C122 2.836 . S
Nd120 O140 2.500 . S
Nd120 O141 2.492 . S
Nd120 O142 2.487 . S
Nd120 O143 2.682 . S
Nd120 O144 2.410 . S
Nd120 O149 2.414 . S
Nd120 O151 2.424 . S
Nd121 C131 2.836 . S
Nd121 O143 2.414 . S
Nd121 O145 2.424 . S
Nd121 O146 2.500 . S
Nd121 O147 2.492 . S
Nd121 O148 2.487 . S
Nd121 O149 2.682 . S
Nd121 O150 2.410 . S
C122 Nd120 2.836 . S
C122 C123 1.498 . S
C122 O140 1.258 . S
C122 O141 1.239 . S
C123 C122 1.498 . S
C123 C124 1.366 . S
C123 C128 1.407 . S
C124 C123 1.366 . S
C124 C125 1.392 1_554 S
C124 H152 0.930 . S
C125 C124 1.392 1_556 S
C125 C126 1.398 . S
C125 H153 0.929 . S
C126 C125 1.398 . S
C126 C127 1.352 1_556 S
C127 C126 1.352 1_554 S
C127 C128 1.384 . S
C127 H154 0.930 . S
C128 C123 1.407 . S
C128 C127 1.384 . S
C128 H155 0.929 . S
C129 O142 1.241 . S
C129 O143 1.273 . S
C130 O144 1.251 . S
C130 O145 1.268 . S
C131 Nd121 2.836 . S
C131 C132 1.498 . S
C131 O146 1.258 . S
C131 O147 1.239 . S
C132 C131 1.498 . S
C132 C133 1.366 . S
C132 C137 1.407 . S
C133 C132 1.366 . S
C133 C134 1.392 . S
C133 H156 0.930 . S
C134 C133 1.392 . S
C134 C135 1.398 . S
C134 H157 0.929 . S
C135 C134 1.398 . S
C135 C136 1.352 . S
C136 C135 1.352 . S
C136 C137 1.384 . S
C136 H158 0.930 . S
C137 C132 1.407 . S
C137 C136 1.384 . S
C137 H159 0.929 . S
C138 O148 1.241 . S
C138 O149 1.273 . S
C139 O150 1.251 . S
C139 O151 1.268 . S
O140 Nd120 2.500 . S
O140 C122 1.258 . S
O141 Nd120 2.492 . S
O141 C122 1.239 . S
O142 Nd120 2.487 . S
O142 C129 1.241 . S
O143 Nd120 2.682 . S
O143 Nd121 2.414 . S
O143 C129 1.273 . S
O144 Nd120 2.410 . S
O144 C130 1.251 . S
O145 Nd121 2.424 . S
O145 C130 1.268 . S
O146 Nd121 2.500 . S
O146 C131 1.258 . S
O147 Nd121 2.492 . S
O147 C131 1.239 . S
O148 Nd121 2.487 . S
O148 C138 1.241 . S
O149 Nd120 2.414 . S
O149 Nd121 2.682 . S
O149 C138 1.273 . S
O150 Nd121 2.410 . S
O150 C139 1.251 . S
O151 Nd120 2.424 . S
O151 C139 1.268 . S
H152 C124 0.930 . S
H153 C125 0.929 . S
H154 C127 0.930 . S
H155 C128 0.929 . S
H156 C133 0.930 . S
H157 C134 0.929 . S
H158 C136 0.930 . S
H159 C137 0.929 . S
Nd160 C162 2.836 . S
Nd160 O180 2.500 . S
Nd160 O181 2.492 . S
Nd160 O182 2.487 . S
Nd160 O183 2.682 . S
Nd160 O184 2.410 . S
Nd160 O189 2.414 . S
Nd160 O191 2.424 . S
Nd161 C171 2.836 . S
Nd161 O183 2.414 . S
Nd161 O185 2.424 . S
Nd161 O186 2.500 . S
Nd161 O187 2.492 . S
Nd161 O188 2.487 . S
Nd161 O189 2.682 . S
Nd161 O190 2.410 . S
C162 Nd160 2.836 . S
C162 C163 1.498 . S
C162 O180 1.258 . S
C162 O181 1.239 . S
C163 C162 1.498 . S
C163 C164 1.366 . S
C163 C168 1.407 . S
C164 C163 1.366 . S
C164 C165 1.392 1_554 S
C164 H192 0.930 . S
C165 C164 1.392 1_556 S
C165 C166 1.398 . S
C165 H193 0.929 . S
C166 C165 1.398 . S
C166 C167 1.352 1_556 S
C167 C166 1.352 1_554 S
C167 C168 1.384 . S
C167 H194 0.930 . S
C168 C163 1.407 . S
C168 C167 1.384 . S
C168 H195 0.929 . S
C169 O182 1.241 . S
C169 O183 1.273 . S
C170 O184 1.251 . S
C170 O185 1.268 . S
C171 Nd161 2.836 . S
C171 C172 1.498 . S
C171 O186 1.258 . S
C171 O187 1.239 . S
C172 C171 1.498 . S
C172 C173 1.366 . S
C172 C177 1.407 . S
C173 C172 1.366 . S
C173 C174 1.392 . S
C173 H196 0.930 . S
C174 C173 1.392 . S
C174 C175 1.398 . S
C174 H197 0.929 . S
C175 C174 1.398 . S
C175 C176 1.352 . S
C176 C175 1.352 . S
C176 C177 1.384 . S
C176 H198 0.930 . S
C177 C172 1.407 . S
C177 C176 1.384 . S
C177 H199 0.929 . S
C178 O188 1.241 . S
C178 O189 1.273 . S
C179 O190 1.251 . S
C179 O191 1.268 . S
O180 Nd160 2.500 . S
O180 C162 1.258 . S
O181 Nd160 2.492 . S
O181 C162 1.239 . S
O182 Nd160 2.487 . S
O182 C169 1.241 . S
O183 Nd160 2.682 . S
O183 Nd161 2.414 . S
O183 C169 1.273 . S
O184 Nd160 2.410 . S
O184 C170 1.251 . S
O185 Nd161 2.424 . S
O185 C170 1.268 . S
O186 Nd161 2.500 . S
O186 C171 1.258 . S
O187 Nd161 2.492 . S
O187 C171 1.239 . S
O188 Nd161 2.487 . S
O188 C178 1.241 . S
O189 Nd160 2.414 . S
O189 Nd161 2.682 . S
O189 C178 1.273 . S
O190 Nd161 2.410 . S
O190 C179 1.251 . S
O191 Nd160 2.424 . S
O191 C179 1.268 . S
H192 C164 0.930 . S
H193 C165 0.929 . S
H194 C167 0.930 . S
H195 C168 0.929 . S
H196 C173 0.930 . S
H197 C174 0.929 . S
H198 C176 0.930 . S
H199 C177 0.929 . S
Nd200 C202 2.836 . S
Nd200 O220 2.500 . S
Nd200 O221 2.492 . S
Nd200 O222 2.487 . S
Nd200 O223 2.682 . S
Nd200 O224 2.410 . S
Nd200 O229 2.414 . S
Nd200 O231 2.424 . S
Nd201 C211 2.836 . S
Nd201 O223 2.414 . S
Nd201 O225 2.424 . S
Nd201 O226 2.500 . S
Nd201 O227 2.492 . S
Nd201 O228 2.487 . S
Nd201 O229 2.682 . S
Nd201 O230 2.410 . S
C202 Nd200 2.836 . S
C202 C203 1.498 . S
C202 O220 1.258 . S
C202 O221 1.239 . S
C203 C202 1.498 . S
C203 C204 1.366 . S
C203 C208 1.407 . S
C204 C203 1.366 . S
C204 C205 1.392 . S
C204 H232 0.930 . S
C205 C204 1.392 . S
C205 C206 1.398 . S
C205 H233 0.929 . S
C206 C205 1.398 . S
C206 C207 1.352 . S
C207 C206 1.352 . S
C207 C208 1.384 . S
C207 H234 0.930 . S
C208 C203 1.407 . S
C208 C207 1.384 . S
C208 H235 0.929 . S
C209 O222 1.241 . S
C209 O223 1.273 . S
C210 O224 1.251 . S
C210 O225 1.268 . S
C211 Nd201 2.836 . S
C211 C212 1.498 . S
C211 O226 1.258 . S
C211 O227 1.239 . S
C212 C211 1.498 . S
C212 C213 1.366 . S
C212 C217 1.407 . S
C213 C212 1.366 . S
C213 C214 1.392 1_556 S
C213 H236 0.930 . S
C214 C213 1.392 1_554 S
C214 C215 1.398 . S
C214 H237 0.929 . S
C215 C214 1.398 . S
C215 C216 1.352 1_554 S
C216 C215 1.352 1_556 S
C216 C217 1.384 . S
C216 H238 0.930 . S
C217 C212 1.407 . S
C217 C216 1.384 . S
C217 H239 0.929 . S
C218 O228 1.241 . S
C218 O229 1.273 . S
C219 O230 1.251 . S
C219 O231 1.268 . S
O220 Nd200 2.500 . S
O220 C202 1.258 . S
O221 Nd200 2.492 . S
O221 C202 1.239 . S
O222 Nd200 2.487 . S
O222 C209 1.241 . S
O223 Nd200 2.682 . S
O223 Nd201 2.414 . S
O223 C209 1.273 . S
O224 Nd200 2.410 . S
O224 C210 1.251 . S
O225 Nd201 2.424 . S
O225 C210 1.268 . S
O226 Nd201 2.500 . S
O226 C211 1.258 . S
O227 Nd201 2.492 . S
O227 C211 1.239 . S
O228 Nd201 2.487 . S
O228 C218 1.241 . S
O229 Nd200 2.414 . S
O229 Nd201 2.682 . S
O229 C218 1.273 . S
O230 Nd201 2.410 . S
O230 C219 1.251 . S
O231 Nd200 2.424 . S
O231 C219 1.268 . S
H232 C204 0.930 . S
H233 C205 0.929 . S
H234 C207 0.930 . S
H235 C208 0.929 . S
H236 C213 0.930 . S
H237 C214 0.929 . S
H238 C216 0.930 . S
H239 C217 0.929 . S
Nd240 C242 2.836 1_554 S
Nd240 O260 2.500 1_554 S
Nd240 O261 2.492 1_554 S
Nd240 O262 2.487 . S
Nd240 O263 2.682 . S
Nd240 O264 2.410 1_554 S
Nd240 O269 2.414 1_554 S
Nd240 O271 2.424 . S
Nd241 C251 2.836 1_556 S
Nd241 O263 2.414 1_556 S
Nd241 O265 2.424 . S
Nd241 O266 2.500 1_556 S
Nd241 O267 2.492 1_556 S
Nd241 O268 2.487 . S
Nd241 O269 2.682 . S
Nd241 O270 2.410 1_556 S
C242 Nd240 2.836 1_556 S
C242 C243 1.498 . S
C242 O260 1.258 . S
C242 O261 1.239 . S
C243 C242 1.498 . S
C243 C244 1.366 . S
C243 C248 1.407 . S
C244 C243 1.366 . S
C244 C245 1.392 . S
C244 H272 0.930 . S
C245 C244 1.392 . S
C245 C246 1.398 . S
C245 H273 0.929 . S
C246 C245 1.398 . S
C246 C247 1.352 . S
C247 C246 1.352 . S
C247 C248 1.384 . S
C247 H274 0.930 . S
C248 C243 1.407 . S
C248 C247 1.384 . S
C248 H275 0.929 . S
C249 O262 1.241 . S
C249 O263 1.273 . S
C250 O264 1.251 . S
C250 O265 1.268 . S
C251 Nd241 2.836 1_554 S
C251 C252 1.498 . S
C251 O266 1.258 . S
C251 O267 1.239 . S
C252 C251 1.498 . S
C252 C253 1.366 . S
C252 C257 1.407 . S
C253 C252 1.366 . S
C253 C254 1.392 . S
C253 H276 0.930 . S
C254 C253 1.392 . S
C254 C255 1.398 . S
C254 H277 0.929 . S
C255 C254 1.398 . S
C255 C256 1.352 . S
C256 C255 1.352 . S
C256 C257 1.384 . S
C256 H278 0.930 . S
C257 C252 1.407 . S
C257 C256 1.384 . S
C257 H279 0.929 . S
C258 O268 1.241 . S
C258 O269 1.273 . S
C259 O270 1.251 . S
C259 O271 1.268 . S
O260 Nd240 2.500 1_556 S
O260 C242 1.258 . S
O261 Nd240 2.492 1_556 S
O261 C242 1.239 . S
O262 Nd240 2.487 . S
O262 C249 1.241 . S
O263 Nd240 2.682 . S
O263 Nd241 2.414 1_554 S
O263 C249 1.273 . S
O264 Nd240 2.410 1_556 S
O264 C250 1.251 . S
O265 Nd241 2.424 . S
O265 C250 1.268 . S
O266 Nd241 2.500 1_554 S
O266 C251 1.258 . S
O267 Nd241 2.492 1_554 S
O267 C251 1.239 . S
O268 Nd241 2.487 . S
O268 C258 1.241 . S
O269 Nd240 2.414 1_556 S
O269 Nd241 2.682 . S
O269 C258 1.273 . S
O270 Nd241 2.410 1_554 S
O270 C259 1.251 . S
O271 Nd240 2.424 . S
O271 C259 1.268 . S
H272 C244 0.930 . S
H273 C245 0.929 . S
H274 C247 0.930 . S
H275 C248 0.929 . S
H276 C253 0.930 . S
H277 C254 0.929 . S
H278 C256 0.930 . S
H279 C257 0.929 . S
Nd280 C282 2.836 . S
Nd280 O300 2.500 . S
Nd280 O301 2.492 . S
Nd280 O302 2.487 . S
Nd280 O303 2.682 . S
Nd280 O304 2.410 . S
Nd280 O309 2.414 1_655 S
Nd280 O311 2.424 . S
Nd281 C291 2.836 . S
Nd281 O303 2.414 1_455 S
Nd281 O305 2.424 . S
Nd281 O306 2.500 . S
Nd281 O307 2.492 . S
Nd281 O308 2.487 . S
Nd281 O309 2.682 . S
Nd281 O310 2.410 . S
C282 Nd280 2.836 . S
C282 C283 1.498 . S
C282 O300 1.258 . S
C282 O301 1.239 . S
C283 C282 1.498 . S
C283 C284 1.366 . S
C283 C288 1.407 . S
C284 C283 1.366 . S
C284 C285 1.392 . S
C284 H312 0.930 . S
C285 C284 1.392 . S
C285 C286 1.398 . S
C285 H313 0.929 . S
C286 C285 1.398 . S
C286 C287 1.352 . S
C287 C286 1.352 . S
C287 C288 1.384 . S
C287 H314 0.930 . S
C288 C283 1.407 . S
C288 C287 1.384 . S
C288 H315 0.929 . S
C289 O302 1.241 . S
C289 O303 1.273 . S
C290 O304 1.251 . S
C290 O305 1.268 1_655 S
C291 Nd281 2.836 . S
C291 C292 1.498 . S
C291 O306 1.258 . S
C291 O307 1.239 . S
C292 C291 1.498 . S
C292 C293 1.366 . S
C292 C297 1.407 . S
C293 C292 1.366 . S
C293 C294 1.392 . S
C293 H316 0.930 . S
C294 C293 1.392 . S
C294 C295 1.398 . S
C294 H317 0.929 . S
C295 C294 1.398 . S
C295 C296 1.352 . S
C296 C295 1.352 . S
C296 C297 1.384 . S
C296 H318 0.930 . S
C297 C292 1.407 . S
C297 C296 1.384 . S
C297 H319 0.929 . S
C298 O308 1.241 . S
C298 O309 1.273 . S
C299 O310 1.251 . S
C299 O311 1.268 1_455 S
O300 Nd280 2.500 . S
O300 C282 1.258 . S
O301 Nd280 2.492 . S
O301 C282 1.239 . S
O302 Nd280 2.487 . S
O302 C289 1.241 . S
O303 Nd280 2.682 . S
O303 Nd281 2.414 1_655 S
O303 C289 1.273 . S
O304 Nd280 2.410 . S
O304 C290 1.251 . S
O305 Nd281 2.424 . S
O305 C290 1.268 1_455 S
O306 Nd281 2.500 . S
O306 C291 1.258 . S
O307 Nd281 2.492 . S
O307 C291 1.239 . S
O308 Nd281 2.487 . S
O308 C298 1.241 . S
O309 Nd280 2.414 1_455 S
O309 Nd281 2.682 . S
O309 C298 1.273 . S
O310 Nd281 2.410 . S
O310 C299 1.251 . S
O311 Nd280 2.424 . S
O311 C299 1.268 1_655 S
H312 C284 0.930 . S
H313 C285 0.929 . S
H314 C287 0.930 . S
H315 C288 0.929 . S
H316 C293 0.930 . S
H317 C294 0.929 . S
H318 C296 0.930 . S
H319 C297 0.929 . S
C320 C321 1.369 . S
C320 C322 1.419 . S
C320 H324 0.930 . S
C321 C320 1.369 . S
C321 C330 1.429 . S
C322 C320 1.419 . S
C322 C323 1.363 . S
C322 H325 0.929 . S
C323 C322 1.363 . S
C323 C329 1.428 . S
H324 C320 0.930 . S
H325 C322 0.929 . S
S326 N327 1.613 . S
S326 N328 1.610 . S
N327 S326 1.613 . S
N327 C330 1.350 . S
N328 S326 1.610 . S
N328 C329 1.351 . S
C329 C323 1.428 . S
C329 N328 1.351 . S
C329 C330 1.434 . S
C330 C321 1.429 . S
C330 N327 1.350 . S
C330 C329 1.434 . S
C331 C332 1.369 . S
C331 C333 1.419 . S
C331 H335 0.930 . S
C332 C331 1.369 . S
C332 C341 1.429 . S
C333 C331 1.419 . S
C333 C334 1.363 . S
C333 H336 0.929 . S
C334 C333 1.363 . S
C334 C340 1.428 . S
H335 C331 0.930 . S
H336 C333 0.929 . S
S337 N338 1.613 . S
S337 N339 1.610 . S
N338 S337 1.613 . S
N338 C341 1.350 . S
N339 S337 1.610 . S
N339 C340 1.351 . S
C340 C334 1.428 . S
C340 N339 1.351 . S
C340 C341 1.434 . S
C341 C332 1.429 . S
C341 N338 1.350 . S
C341 C340 1.434 . S
C342 C343 1.369 . S
C342 C344 1.419 . S
C342 H346 0.930 . S
C343 C342 1.369 . S
C343 C352 1.429 . S
C344 C342 1.419 . S
C344 C345 1.363 . S
C344 H347 0.929 . S
C345 C344 1.363 . S
C345 C351 1.428 . S
H346 C342 0.930 . S
H347 C344 0.929 . S
S348 N349 1.613 . S
S348 N350 1.610 . S
N349 S348 1.613 . S
N349 C352 1.350 . S
N350 S348 1.610 . S
N350 C351 1.351 . S
C351 C345 1.428 . S
C351 N350 1.351 . S
C351 C352 1.434 . S
C352 C343 1.429 . S
C352 N349 1.350 . S
C352 C351 1.434 . S
C353 C354 1.369 1_556 S
C353 C355 1.419 . S
C353 H357 0.930 . S
C354 C353 1.369 1_554 S
C354 C363 1.429 . S
C355 C353 1.419 . S
C355 C356 1.363 . S
C355 H358 0.929 . S
C356 C355 1.363 . S
C356 C362 1.428 1_556 S
H357 C353 0.930 . S
H358 C355 0.929 . S
S359 N360 1.613 . S
S359 N361 1.610 . S
N360 S359 1.613 . S
N360 C363 1.350 . S
N361 S359 1.610 . S
N361 C362 1.351 . S
C362 C356 1.428 1_554 S
C362 N361 1.351 . S
C362 C363 1.434 . S
C363 C354 1.429 . S
C363 N360 1.350 . S
C363 C362 1.434 . S
C364 C365 1.369 . S
C364 C366 1.419 . S
C364 H368 0.930 . S
C365 C364 1.369 . S
C365 C374 1.429 . S
C366 C364 1.419 . S
C366 C367 1.363 . S
C366 H369 0.929 . S
C367 C366 1.363 . S
C367 C373 1.428 . S
H368 C364 0.930 . S
H369 C366 0.929 . S
S370 N371 1.613 . S
S370 N372 1.610 . S
N371 S370 1.613 . S
N371 C374 1.350 . S
N372 S370 1.610 . S
N372 C373 1.351 . S
C373 C367 1.428 . S
C373 N372 1.351 . S
C373 C374 1.434 . S
C374 C365 1.429 . S
C374 N371 1.350 . S
C374 C373 1.434 . S
C375 C376 1.369 . S
C375 C377 1.419 . S
C375 H379 0.930 . S
C376 C375 1.369 . S
C376 C385 1.429 . S
C377 C375 1.419 . S
C377 C378 1.363 . S
C377 H380 0.929 . S
C378 C377 1.363 . S
C378 C384 1.428 . S
H379 C375 0.930 . S
H380 C377 0.929 . S
S381 N382 1.613 . S
S381 N383 1.610 . S
N382 S381 1.613 . S
N382 C385 1.350 . S
N383 S381 1.610 . S
N383 C384 1.351 . S
C384 C378 1.428 . S
C384 N383 1.351 . S
C384 C385 1.434 . S
C385 C376 1.429 . S
C385 N382 1.350 . S
C385 C384 1.434 . S
C386 C387 1.369 . S
C386 C388 1.419 . S
C386 H390 0.930 . S
C387 C386 1.369 . S
C387 C396 1.429 . S
C388 C386 1.419 . S
C388 C389 1.363 . S
C388 H391 0.929 . S
C389 C388 1.363 . S
C389 C395 1.428 . S
H390 C386 0.930 . S
H391 C388 0.929 . S
S392 N393 1.613 . S
S392 N394 1.610 . S
N393 S392 1.613 . S
N393 C396 1.350 . S
N394 S392 1.610 . S
N394 C395 1.351 . S
C395 C389 1.428 . S
C395 N394 1.351 . S
C395 C396 1.434 . S
C396 C387 1.429 . S
C396 N393 1.350 . S
C396 C395 1.434 . S
C397 C398 1.369 . S
C397 C399 1.419 . S
C397 H401 0.930 . S
C398 C397 1.369 . S
C398 C407 1.429 1_554 S
C399 C397 1.419 . S
C399 C400 1.363 1_554 S
C399 H402 0.929 . S
C400 C399 1.363 1_556 S
C400 C406 1.428 . S
H401 C397 0.930 . S
H402 C399 0.929 . S
S403 N404 1.613 . S
S403 N405 1.610 . S
N404 S403 1.613 . S
N404 C407 1.350 . S
N405 S403 1.610 . S
N405 C406 1.351 . S
C406 C400 1.428 . S
C406 N405 1.351 . S
C406 C407 1.434 . S
C407 C398 1.429 1_556 S
C407 N404 1.350 . S
C407 C406 1.434 . S
C408 C409 1.369 . S
C408 C410 1.419 . S
C408 H412 0.930 . S
C409 C408 1.369 . S
C409 C418 1.429 . S
C410 C408 1.419 . S
C410 C411 1.363 . S
C410 H413 0.929 . S
C411 C410 1.363 . S
C411 C417 1.428 . S
H412 C408 0.930 . S
H413 C410 0.929 . S
S414 N415 1.613 . S
S414 N416 1.610 . S
N415 S414 1.613 . S
N415 C418 1.350 . S
N416 S414 1.610 . S
N416 C417 1.351 . S
C417 C411 1.428 . S
C417 N416 1.351 . S
C417 C418 1.434 . S
C418 C409 1.429 . S
C418 N415 1.350 . S
C418 C417 1.434 . S
C419 C420 1.369 1_554 S
C419 C421 1.419 . S
C419 H423 0.930 . S
C420 C419 1.369 1_556 S
C420 C429 1.429 . S
C421 C419 1.419 . S
C421 C422 1.363 . S
C421 H424 0.929 . S
C422 C421 1.363 . S
C422 C428 1.428 1_554 S
H423 C419 0.930 . S
H424 C421 0.929 . S
S425 N426 1.613 . S
S425 N427 1.610 . S
N426 S425 1.613 . S
N426 C429 1.350 . S
N427 S425 1.610 . S
N427 C428 1.351 . S
C428 C422 1.428 1_556 S
C428 N427 1.351 . S
C428 C429 1.434 . S
C429 C420 1.429 . S
C429 N426 1.350 . S
C429 C428 1.434 . S
C430 C431 1.369 . S
C430 C432 1.419 . S
C430 H434 0.930 . S
C431 C430 1.369 . S
C431 C440 1.429 . S
C432 C430 1.419 . S
C432 C433 1.363 . S
C432 H435 0.929 . S
C433 C432 1.363 . S
C433 C439 1.428 . S
H434 C430 0.930 . S
H435 C432 0.929 . S
S436 N437 1.613 . S
S436 N438 1.610 . S
N437 S436 1.613 . S
N437 C440 1.350 . S
N438 S436 1.610 . S
N438 C439 1.351 . S
C439 C433 1.428 . S
C439 N438 1.351 . S
C439 C440 1.434 . S
C440 C431 1.429 . S
C440 N437 1.350 . S
C440 C439 1.434 . S
C441 C442 1.369 . S
C441 C443 1.419 . S
C441 H445 0.930 . S
C442 C441 1.369 . S
C442 C451 1.429 . S
C443 C441 1.419 . S
C443 C444 1.363 . S
C443 H446 0.929 . S
C444 C443 1.363 . S
C444 C450 1.428 . S
H445 C441 0.930 . S
H446 C443 0.929 . S
S447 N448 1.613 . S
S447 N449 1.610 . S
N448 S447 1.613 . S
N448 C451 1.350 . S
N449 S447 1.610 . S
N449 C450 1.351 . S
C450 C444 1.428 . S
C450 N449 1.351 . S
C450 C451 1.434 . S
C451 C442 1.429 . S
C451 N448 1.350 . S
C451 C450 1.434 . S
C452 C453 1.369 . S
C452 C454 1.419 . S
C452 H456 0.930 . S
C453 C452 1.369 . S
C453 C462 1.429 . S
C454 C452 1.419 . S
C454 C455 1.363 . S
C454 H457 0.929 . S
C455 C454 1.363 . S
C455 C461 1.428 . S
H456 C452 0.930 . S
H457 C454 0.929 . S
S458 N459 1.613 . S
S458 N460 1.610 . S
N459 S458 1.613 . S
N459 C462 1.350 . S
N460 S458 1.610 . S
N460 C461 1.351 . S
C461 C455 1.428 . S
C461 N460 1.351 . S
C461 C462 1.434 . S
C462 C453 1.429 . S
C462 N459 1.350 . S
C462 C461 1.434 . S
C463 C464 1.369 1_554 S
C463 C465 1.419 . S
C463 H467 0.930 . S
C464 C463 1.369 1_556 S
C464 C473 1.429 . S
C465 C463 1.419 . S
C465 C466 1.363 . S
C465 H468 0.929 . S
C466 C465 1.363 . S
C466 C472 1.428 1_554 S
H467 C463 0.930 . S
H468 C465 0.929 . S
S469 N470 1.613 . S
S469 N471 1.610 . S
N470 S469 1.613 . S
N470 C473 1.350 . S
N471 S469 1.610 . S
N471 C472 1.351 . S
C472 C466 1.428 1_556 S
C472 N471 1.351 . S
C472 C473 1.434 . S
C473 C464 1.429 . S
C473 N470 1.350 . S
C473 C472 1.434 . S
C474 C475 1.369 . S
C474 C476 1.419 . S
C474 H478 0.930 . S
C475 C474 1.369 . S
C475 C484 1.429 . S
C476 C474 1.419 . S
C476 C477 1.363 . S
C476 H479 0.929 . S
C477 C476 1.363 . S
C477 C483 1.428 . S
H478 C474 0.930 . S
H479 C476 0.929 . S
S480 N481 1.613 . S
S480 N482 1.610 . S
N481 S480 1.613 . S
N481 C484 1.350 . S
N482 S480 1.610 . S
N482 C483 1.351 . S
C483 C477 1.428 . S
C483 N482 1.351 . S
C483 C484 1.434 . S
C484 C475 1.429 . S
C484 N481 1.350 . S
C484 C483 1.434 . S
C485 C486 1.369 . S
C485 C487 1.419 . S
C485 H489 0.930 . S
C486 C485 1.369 . S
C486 C495 1.429 . S
C487 C485 1.419 . S
C487 C488 1.363 . S
C487 H490 0.929 . S
C488 C487 1.363 . S
C488 C494 1.428 . S
H489 C485 0.930 . S
H490 C487 0.929 . S
S491 N492 1.613 . S
S491 N493 1.610 . S
N492 S491 1.613 . S
N492 C495 1.350 . S
N493 S491 1.610 . S
N493 C494 1.351 . S
C494 C488 1.428 . S
C494 N493 1.351 . S
C494 C495 1.434 . S
C495 C486 1.429 . S
C495 N492 1.350 . S
C495 C494 1.434 . S
C496 C497 1.369 1_545 S
C496 C498 1.419 1_556 S
C496 H500 0.930 . S
C497 C496 1.369 1_565 S
C497 C506 1.429 1_655 S
C498 C496 1.419 1_554 S
C498 C499 1.363 1_655 S
C498 H501 0.929 . S
C499 C498 1.363 1_455 S
C499 C505 1.428 1_545 S
H500 C496 0.930 . S
H501 C498 0.929 . S
S502 N503 1.613 1_554 S
S502 N504 1.610 . S
N503 S502 1.613 1_556 S
N503 C506 1.350 . S
N504 S502 1.610 . S
N504 C505 1.351 . S
C505 C499 1.428 1_565 S
C505 N504 1.351 . S
C505 C506 1.434 1_554 S
C506 C497 1.429 1_455 S
C506 N503 1.350 . S
C506 C505 1.434 1_556 S
C507 C508 1.369 . S
C507 C509 1.419 . S
C507 H511 0.930 . S
C508 C507 1.369 . S
C508 C517 1.429 . S
C509 C507 1.419 . S
C509 C510 1.363 . S
C509 H512 0.929 . S
C510 C509 1.363 . S
C510 C516 1.428 . S
H511 C507 0.930 . S
H512 C509 0.929 . S
S513 N514 1.613 . S
S513 N515 1.610 . S
N514 S513 1.613 . S
N514 C517 1.350 . S
N515 S513 1.610 . S
N515 C516 1.351 . S
C516 C510 1.428 . S
C516 N515 1.351 . S
C516 C517 1.434 . S
C517 C508 1.429 . S
C517 N514 1.350 . S
C517 C516 1.434 . S
C518 C519 1.369 . S
C518 C520 1.419 . S
C518 H522 0.930 . S
C519 C518 1.369 . S
C519 C528 1.429 1_565 S
C520 C518 1.419 . S
C520 C521 1.363 1_565 S
C520 H523 0.929 . S
C521 C520 1.363 1_545 S
C521 C527 1.428 . S
H522 C518 0.930 . S
H523 C520 0.929 . S
S524 N525 1.613 . S
S524 N526 1.610 . S
N525 S524 1.613 . S
N525 C528 1.350 . S
N526 S524 1.610 . S
N526 C527 1.351 . S
C527 C521 1.428 . S
C527 N526 1.351 . S
C527 C528 1.434 . S
C528 C519 1.429 1_545 S
C528 N525 1.350 . S
C528 C527 1.434 . S
C529 C530 1.369 . S
C529 C531 1.419 . S
C529 H533 0.930 . S
C530 C529 1.369 . S
C530 C539 1.429 . S
C531 C529 1.419 . S
C531 C532 1.363 . S
C531 H534 0.929 . S
C532 C531 1.363 . S
C532 C538 1.428 . S
H533 C529 0.930 . S
H534 C531 0.929 . S
S535 N536 1.613 . S
S535 N537 1.610 . S
N536 S535 1.613 . S
N536 C539 1.350 . S
N537 S535 1.610 . S
N537 C538 1.351 . S
C538 C532 1.428 . S
C538 N537 1.351 . S
C538 C539 1.434 . S
C539 C530 1.429 . S
C539 N536 1.350 . S
C539 C538 1.434 . S
C540 C541 1.369 . S
C540 C542 1.419 . S
C540 H544 0.930 . S
C541 C540 1.369 . S
C541 C550 1.429 . S
C542 C540 1.419 . S
C542 C543 1.363 . S
C542 H545 0.929 . S
C543 C542 1.363 . S
C543 C549 1.428 . S
H544 C540 0.930 . S
H545 C542 0.929 . S
S546 N547 1.613 . S
S546 N548 1.610 . S
N547 S546 1.613 . S
N547 C550 1.350 . S
N548 S546 1.610 . S
N548 C549 1.351 . S
C549 C543 1.428 . S
C549 N548 1.351 . S
C549 C550 1.434 . S
C550 C541 1.429 . S
C550 N547 1.350 . S
C550 C549 1.434 . S
C551 C552 1.369 . S
C551 C553 1.419 . S
C551 H555 0.930 . S
C552 C551 1.369 . S
C552 C561 1.429 . S
C553 C551 1.419 . S
C553 C554 1.363 . S
C553 H556 0.929 . S
C554 C553 1.363 . S
C554 C560 1.428 . S
H555 C551 0.930 . S
H556 C553 0.929 . S
S557 N558 1.613 . S
S557 N559 1.610 . S
N558 S557 1.613 . S
N558 C561 1.350 . S
N559 S557 1.610 . S
N559 C560 1.351 . S
C560 C554 1.428 . S
C560 N559 1.351 . S
C560 C561 1.434 . S
C561 C552 1.429 . S
C561 N558 1.350 . S
C561 C560 1.434 . S
C562 C563 1.369 . S
C562 C564 1.419 . S
C562 H566 0.930 . S
C563 C562 1.369 . S
C563 C572 1.429 . S
C564 C562 1.419 . S
C564 C565 1.363 . S
C564 H567 0.929 . S
C565 C564 1.363 . S
C565 C571 1.428 . S
H566 C562 0.930 . S
H567 C564 0.929 . S
S568 N569 1.613 . S
S568 N570 1.610 . S
N569 S568 1.613 . S
N569 C572 1.350 . S
N570 S568 1.610 . S
N570 C571 1.351 . S
C571 C565 1.428 . S
C571 N570 1.351 . S
C571 C572 1.434 . S
C572 C563 1.429 . S
C572 N569 1.350 . S
C572 C571 1.434 . S
C573 C574 1.369 . S
C573 C575 1.419 1_556 S
C573 H577 0.930 . S
C574 C573 1.369 . S
C574 C583 1.429 1_455 S
C575 C573 1.419 1_554 S
C575 C576 1.363 1_455 S
C575 H578 0.929 . S
C576 C575 1.363 1_655 S
C576 C582 1.428 . S
H577 C573 0.930 . S
H578 C575 0.929 . S
S579 N580 1.613 . S
S579 N581 1.610 1_556 S
N580 S579 1.613 . S
N580 C583 1.350 . S
N581 S579 1.610 1_554 S
N581 C582 1.351 . S
C582 C576 1.428 . S
C582 N581 1.351 . S
C582 C583 1.434 1_554 S
C583 C574 1.429 1_655 S
C583 N580 1.350 . S
C583 C582 1.434 1_556 S
C321 C6 1.722 . S
C323 C129 1.762 . S
C332 C9 1.769 . S
C334 C46 1.720 . S
C343 C49 1.773 . S
C345 C86 1.724 . S
C354 C89 1.773 . S
C356 C126 1.718 . S
C365 C15 1.726 . S
C367 C218 1.769 . S
C376 C18 1.768 . S
C378 C175 1.718 . S
C387 C178 1.768 . S
C389 C95 1.716 . S
C398 C215 1.719 . S
C400 C98 1.771 . S
C409 C246 1.727 . S
C411 C209 1.769 . S
C420 C166 1.727 . S
C422 C249 1.769 . S
C431 C286 1.719 . S
C433 C169 1.769 . S
C442 C206 1.727 . S
C444 C289 1.767 . S
C453 C138 1.765 . S
C455 C255 1.725 . S
C464 C258 1.772 . S
C466 C55 1.719 . S
C475 C58 1.768 . S
C477 C295 1.725 . S
C486 C135 1.726 . S
C488 C298 1.764 . S
C497 C19 2.096 . S
C499 C10 2.090 . S
C508 C50 2.089 . S
C510 C59 2.095 1_554 S
C519 C90 2.095 . S
C521 C99 2.091 . S
C530 C130 2.090 1_556 S
C532 C139 2.094 . S
C541 C170 2.090 1_556 S
C543 C179 2.095 . S
C552 C210 2.096 . S
C554 C219 2.091 1_554 S
C563 C250 2.090 . S
C565 C259 2.095 . S
C574 C299 2.095 . S
C576 C290 2.091 . S
