# Generated by pormake.
# Topology wfs, (7)-cn, num edge types: 1
# Building blocks:
#     Node 0, Type 0, BuildingBlock: NUHQUE_clean_sbu_2, # of connection points: 7
#     Node 1, Type 0, BuildingBlock: NUHQUE_clean_sbu_2, # of connection points: 7
#     Node 2, Type 0, BuildingBlock: NUHQUE_clean_sbu_2, # of connection points: 7
#     Node 3, Type 0, BuildingBlock: NUHQUE_clean_sbu_2, # of connection points: 7
#     Node 4, Type 0, BuildingBlock: NUHQUE_clean_sbu_2, # of connection points: 7
#     Node 5, Type 0, BuildingBlock: NUHQUE_clean_sbu_2, # of connection points: 7
#     Node 6, Type 0, BuildingBlock: NUHQUE_clean_sbu_2, # of connection points: 7
#     Node 7, Type 0, BuildingBlock: NUHQUE_clean_sbu_2, # of connection points: 7
#     Edge 8, Type (0, 0), BuildingBlock: UVAHIK_clean_linker_0, # of connection points: 2
#     Edge 9, Type (0, 0), BuildingBlock: UVAHIK_clean_linker_0, # of connection points: 2
#     Edge 10, Type (0, 0), BuildingBlock: UVAHIK_clean_linker_0, # of connection points: 2
#     Edge 11, Type (0, 0), BuildingBlock: UVAHIK_clean_linker_0, # of connection points: 2
#     Edge 12, Type (0, 0), BuildingBlock: UVAHIK_clean_linker_0, # of connection points: 2
#     Edge 13, Type (0, 0), BuildingBlock: UVAHIK_clean_linker_0, # of connection points: 2
#     Edge 14, Type (0, 0), BuildingBlock: UVAHIK_clean_linker_0, # of connection points: 2
#     Edge 15, Type (0, 0), BuildingBlock: UVAHIK_clean_linker_0, # of connection points: 2
#     Edge 16, Type (0, 0), BuildingBlock: UVAHIK_clean_linker_0, # of connection points: 2
#     Edge 17, Type (0, 0), BuildingBlock: UVAHIK_clean_linker_0, # of connection points: 2
#     Edge 18, Type (0, 0), BuildingBlock: UVAHIK_clean_linker_0, # of connection points: 2
#     Edge 19, Type (0, 0), BuildingBlock: UVAHIK_clean_linker_0, # of connection points: 2
#     Edge 20, Type (0, 0), BuildingBlock: UVAHIK_clean_linker_0, # of connection points: 2
#     Edge 21, Type (0, 0), BuildingBlock: UVAHIK_clean_linker_0, # of connection points: 2
#     Edge 22, Type (0, 0), BuildingBlock: UVAHIK_clean_linker_0, # of connection points: 2
#     Edge 23, Type (0, 0), BuildingBlock: UVAHIK_clean_linker_0, # of connection points: 2
#     Edge 24, Type (0, 0), BuildingBlock: UVAHIK_clean_linker_0, # of connection points: 2
#     Edge 25, Type (0, 0), BuildingBlock: UVAHIK_clean_linker_0, # of connection points: 2
#     Edge 26, Type (0, 0), BuildingBlock: UVAHIK_clean_linker_0, # of connection points: 2
#     Edge 27, Type (0, 0), BuildingBlock: UVAHIK_clean_linker_0, # of connection points: 2
#     Edge 28, Type (0, 0), BuildingBlock: UVAHIK_clean_linker_0, # of connection points: 2
#     Edge 29, Type (0, 0), BuildingBlock: UVAHIK_clean_linker_0, # of connection points: 2
#     Edge 30, Type (0, 0), BuildingBlock: UVAHIK_clean_linker_0, # of connection points: 2
#     Edge 31, Type (0, 0), BuildingBlock: UVAHIK_clean_linker_0, # of connection points: 2
#     Edge 32, Type (0, 0), BuildingBlock: UVAHIK_clean_linker_0, # of connection points: 2
#     Edge 33, Type (0, 0), BuildingBlock: UVAHIK_clean_linker_0, # of connection points: 2
#     Edge 34, Type (0, 0), BuildingBlock: UVAHIK_clean_linker_0, # of connection points: 2
#     Edge 35, Type (0, 0), BuildingBlock: UVAHIK_clean_linker_0, # of connection points: 2
# Relax obj value: 0.216
# Max RMSD: 0.189
# Mean RMSD: 0.189
data_MOF--net-wfs--node1-NUHQUE_clean_sbu_2--edge1-UVAHIK_clean_linker_0
_symmetry_space_group_name_H-M    P1
_symmetry_Int_Tables_number       1
_symmetry_cell_setting            triclinic
loop_
_symmetry_equiv_pos_as_xyz
'x, y, z'
_cell_length_a     39.405604
_cell_length_b     45.690488
_cell_length_c     37.805586
_cell_angle_alpha  89.511864
_cell_angle_beta   89.719813
_cell_angle_gamma 90.172746
loop_
_atom_site_label
_atom_site_type_symbol
_atom_site_fract_x
_atom_site_fract_y
_atom_site_fract_z
_atom_type_partial_charge
O0 O 0.20582 0.11408 0.20688 0.0
Tb1 Tb 0.18432 0.13966 0.16359 0.0
Eu2 Eu 0.19647 0.20837 0.11686 0.0
C3 C 0.23608 0.10211 0.20421 0.0
O4 O 0.25537 0.10878 0.17689 0.0
C5 C 0.21878 0.14723 0.09406 0.0
O6 O 0.19088 0.25115 0.08765 0.0
C7 C 0.24807 0.21361 0.15917 0.0
C8 C 0.16286 0.26104 0.07301 0.0
O9 O 0.16286 0.28797 0.06053 0.0
C10 C 0.13913 0.19417 0.17571 0.0
C11 C 0.26898 0.23772 0.17297 0.0
C12 C 0.30277 0.23221 0.1829 0.0
C13 C 0.3241 0.25539 0.19271 0.0
C14 C 0.31134 0.28394 0.19301 0.0
C15 C 0.27757 0.28978 0.18388 0.0
C16 C 0.25635 0.26652 0.17388 0.0
O17 O 0.22618 0.14726 0.12781 0.0
O18 O 0.20114 0.16927 0.08172 0.0
O19 O 0.15845 0.09803 0.15536 0.0
O20 O 0.14425 0.13466 0.12393 0.0
C21 C 0.13873 0.10701 0.1301 0.0
O22 O 0.14522 0.2042 0.14344 0.0
O23 O 0.15926 0.17507 0.19141 0.0
O24 O 0.25108 0.20905 0.12511 0.0
O25 O 0.21653 0.21192 0.17037 0.0
H26 H 0.31268 0.21011 0.1821 0.0
H27 H 0.32773 0.30172 0.20127 0.0
H28 H 0.2304 0.27091 0.16609 0.0
O29 O 0.19091 0.92089 0.80123 0.0
Tb30 Tb 0.17971 0.88501 0.83839 0.0
Eu31 Eu 0.19555 0.81511 0.88071 0.0
C32 C 0.2218 0.9319 0.79821 0.0
O33 O 0.24691 0.91848 0.81424 0.0
C34 C 0.21972 0.87621 0.90321 0.0
O35 O 0.18014 0.77481 0.91147 0.0
C36 C 0.25121 0.80235 0.84705 0.0
C37 C 0.15081 0.76965 0.92716 0.0
O38 O 0.14579 0.74372 0.94154 0.0
C39 C 0.14442 0.82711 0.81472 0.0
C40 C 0.26805 0.77873 0.82723 0.0
C41 C 0.29955 0.78497 0.8112 0.0
C42 C 0.31843 0.76276 0.795 0.0
C43 C 0.30547 0.73419 0.79498 0.0
C44 C 0.2744 0.72735 0.81122 0.0
C45 C 0.25536 0.74976 0.82717 0.0
O46 O 0.22475 0.8772 0.86895 0.0
O47 O 0.20204 0.85411 0.91582 0.0
O48 O 0.15117 0.91929 0.86512 0.0
O49 O 0.13796 0.87503 0.87533 0.0
C50 C 0.13107 0.90204 0.88295 0.0
O51 O 0.14896 0.81502 0.84625 0.0
O52 O 0.16111 0.85072 0.80372 0.0
O53 O 0.24655 0.79751 0.88099 0.0
O54 O 0.2258 0.81617 0.83198 0.0
H55 H 0.30971 0.80705 0.81199 0.0
H56 H 0.3204 0.71671 0.78351 0.0
H57 H 0.23168 0.74455 0.84053 0.0
O58 O 0.8023 0.91065 0.20416 0.0
Tb59 Tb 0.82663 0.88752 0.16077 0.0
Eu60 Eu 0.81248 0.81863 0.10966 0.0
C61 C 0.77036 0.91888 0.20228 0.0
O62 O 0.75161 0.90935 0.17616 0.0
C63 C 0.79616 0.88179 0.09028 0.0
O64 O 0.81799 0.7774 0.07813 0.0
C65 C 0.76006 0.81204 0.15142 0.0
C66 C 0.84583 0.7684 0.06224 0.0
O67 O 0.84568 0.7423 0.04794 0.0
C68 C 0.87045 0.83085 0.16938 0.0
C69 C 0.73823 0.78783 0.16453 0.0
C70 C 0.7042 0.79364 0.17376 0.0
C71 C 0.68231 0.77069 0.18386 0.0
C72 C 0.69468 0.74203 0.18504 0.0
C73 C 0.72859 0.7358 0.17672 0.0
C74 C 0.75044 0.75884 0.1665 0.0
O75 O 0.78721 0.87852 0.12345 0.0
O76 O 0.81087 0.85925 0.07581 0.0
O77 O 0.84995 0.93059 0.15385 0.0
O78 O 0.86747 0.89561 0.12219 0.0
C79 C 0.8708 0.92334 0.12875 0.0
O80 O 0.8633 0.82155 0.13717 0.0
O81 O 0.85214 0.85072 0.1861 0.0
O82 O 0.75762 0.81819 0.11756 0.0
O83 O 0.79149 0.81286 0.16282 0.0
H84 H 0.69464 0.81585 0.1725 0.0
H85 H 0.67785 0.72447 0.19357 0.0
H86 H 0.77657 0.75417 0.15954 0.0
O87 O 0.81043 0.07788 0.80219 0.0
Tb88 Tb 0.83746 0.10422 0.84072 0.0
Eu89 Eu 0.83395 0.20655 0.85618 0.0
C90 C 0.78315 0.06317 0.81206 0.0
O91 O 0.77067 0.06756 0.84386 0.0
C92 C 0.82248 0.1484 0.89864 0.0
O93 O 0.87461 0.24097 0.84896 0.0
C94 C 0.77427 0.22903 0.84564 0.0
C95 C 0.902 0.24563 0.86792 0.0
O96 O 0.92165 0.26778 0.859 0.0
C97 C 0.87084 0.15738 0.80756 0.0
C98 C 0.75536 0.25501 0.83327 0.0
C99 C 0.72264 0.25067 0.81938 0.0
C100 C 0.70333 0.27449 0.80732 0.0
C101 C 0.71677 0.30276 0.81005 0.0
C102 C 0.74913 0.30762 0.82404 0.0
C103 C 0.76878 0.28363 0.83531 0.0
O104 O 0.81254 0.14066 0.86691 0.0
O105 O 0.83271 0.17563 0.90367 0.0
O106 O 0.83814 0.06776 0.87883 0.0
O107 O 0.88371 0.09112 0.86809 0.0
C108 C 0.87019 0.06984 0.88637 0.0
O109 O 0.84232 0.16827 0.81978 0.0
O110 O 0.87332 0.12865 0.80756 0.0
O111 O 0.79032 0.23067 0.87603 0.0
O112 O 0.79076 0.21402 0.82158 0.0
H113 H 0.71236 0.22869 0.8176 0.0
H114 H 0.70175 0.32135 0.80145 0.0
H115 H 0.79389 0.28723 0.84602 0.0
O116 O 0.69476 0.60832 0.70532 0.0
Tb117 Tb 0.6764 0.63882 0.6649 0.0
Eu118 Eu 0.69753 0.69538 0.60501 0.0
C119 C 0.72633 0.59883 0.70607 0.0
O120 O 0.74897 0.61057 0.68464 0.0
C121 C 0.7102 0.6292 0.59439 0.0
O122 O 0.6901 0.73153 0.56501 0.0
C123 C 0.75359 0.70674 0.63825 0.0
C124 C 0.6667 0.73286 0.54032 0.0
O125 O 0.66809 0.75458 0.51737 0.0
C126 C 0.64722 0.70144 0.67155 0.0
C127 C 0.76947 0.73217 0.65538 0.0
C128 C 0.80294 0.72969 0.66783 0.0
C129 C 0.81934 0.75388 0.68285 0.0
C130 C 0.80224 0.78066 0.68449 0.0
C131 C 0.7691 0.78368 0.67192 0.0
C132 C 0.75239 0.75923 0.65773 0.0
O133 O 0.71785 0.63185 0.62794 0.0
O134 O 0.69606 0.65159 0.5784 0.0
O135 O 0.63125 0.61118 0.66867 0.0
O136 O 0.64102 0.63432 0.62075 0.0
C137 C 0.62056 0.6162 0.63674 0.0
O138 O 0.65151 0.70649 0.63745 0.0
O139 O 0.66426 0.68085 0.68851 0.0
O140 O 0.75052 0.70863 0.60375 0.0
O141 O 0.72676 0.69531 0.65391 0.0
H142 H 0.81615 0.70898 0.66586 0.0
H143 H 0.81507 0.79964 0.69524 0.0
H144 H 0.72677 0.76141 0.64775 0.0
O145 O 0.69177 0.4345 0.30869 0.0
Tb146 Tb 0.66926 0.40395 0.34664 0.0
Eu147 Eu 0.6764 0.30392 0.36305 0.0
C148 C 0.7183 0.45029 0.31773 0.0
O149 O 0.73258 0.44519 0.34849 0.0
C150 C 0.69376 0.36182 0.40285 0.0
O151 O 0.63414 0.27086 0.35902 0.0
C152 C 0.73445 0.27985 0.34904 0.0
C153 C 0.60841 0.26625 0.38069 0.0
O154 O 0.58805 0.24418 0.37405 0.0
C155 C 0.63718 0.35153 0.31425 0.0
C156 C 0.75157 0.25323 0.33648 0.0
C157 C 0.78448 0.25618 0.32233 0.0
C158 C 0.80249 0.23157 0.31076 0.0
C159 C 0.78741 0.20389 0.31423 0.0
C160 C 0.7546 0.20043 0.3282 0.0
C161 C 0.73636 0.22529 0.33895 0.0
O162 O 0.70031 0.36965 0.36996 0.0
O163 O 0.6823 0.33505 0.4093 0.0
O164 O 0.66307 0.43986 0.38423 0.0
O165 O 0.62552 0.4065 0.38193 0.0
C166 C 0.63463 0.43036 0.39764 0.0
O167 O 0.66627 0.34167 0.32607 0.0
O168 O 0.63369 0.38011 0.31374 0.0
O169 O 0.72011 0.27884 0.38054 0.0
O170 O 0.7172 0.29509 0.32563 0.0
H171 H 0.79594 0.27772 0.32006 0.0
H172 H 0.80136 0.18467 0.30598 0.0
H173 H 0.71095 0.22287 0.34971 0.0
O174 O 0.32448 0.41936 0.70543 0.0
Tb175 Tb 0.33937 0.38463 0.66896 0.0
Eu176 Eu 0.3108 0.3187 0.61791 0.0
C177 C 0.29333 0.42976 0.70734 0.0
O178 O 0.2689 0.41674 0.68994 0.0
C179 C 0.29817 0.38535 0.60201 0.0
O180 O 0.31602 0.27956 0.58265 0.0
C181 C 0.25858 0.30853 0.65886 0.0
C182 C 0.34414 0.27011 0.56775 0.0
O183 O 0.34313 0.24502 0.55106 0.0
C184 C 0.36924 0.32267 0.67712 0.0
C185 C 0.23946 0.28407 0.67564 0.0
C186 C 0.20666 0.28993 0.68865 0.0
C187 C 0.18689 0.26751 0.70376 0.0
C188 C 0.19972 0.23907 0.70532 0.0
C189 C 0.23175 0.23228 0.69143 0.0
C190 C 0.25208 0.25505 0.67704 0.0
O191 O 0.2942 0.38514 0.63647 0.0
O192 O 0.30884 0.36122 0.58701 0.0
O193 O 0.38901 0.406 0.66718 0.0
O194 O 0.36769 0.39086 0.61935 0.0
C195 C 0.39356 0.40392 0.63326 0.0
O196 O 0.36165 0.31445 0.64471 0.0
O197 O 0.35147 0.34281 0.69381 0.0
O198 O 0.25662 0.3107 0.6243 0.0
O199 O 0.28895 0.31461 0.67102 0.0
H200 H 0.19639 0.31188 0.68677 0.0
H201 H 0.18398 0.22173 0.71646 0.0
H202 H 0.27683 0.25013 0.66604 0.0
O203 O 0.3167 0.58641 0.30658 0.0
Tb204 Tb 0.34036 0.61615 0.34359 0.0
Eu205 Eu 0.32924 0.71575 0.3649 0.0
C206 C 0.28876 0.57239 0.31568 0.0
O207 O 0.27438 0.57836 0.34618 0.0
C208 C 0.31619 0.65573 0.40264 0.0
O209 O 0.36843 0.75167 0.36172 0.0
C210 C 0.26948 0.73722 0.35226 0.0
C211 C 0.40035 0.75084 0.37171 0.0
O212 O 0.41969 0.77352 0.36401 0.0
C213 C 0.37008 0.67124 0.31239 0.0
C214 C 0.25124 0.76351 0.34002 0.0
C215 C 0.21876 0.75988 0.32536 0.0
C216 C 0.2003 0.78416 0.31318 0.0
C217 C 0.21433 0.81217 0.31668 0.0
C218 C 0.24658 0.81623 0.33132 0.0
C219 C 0.26536 0.7918 0.34265 0.0
O220 O 0.31006 0.64951 0.36942 0.0
O221 O 0.32558 0.68272 0.41039 0.0
O222 O 0.34784 0.58302 0.38514 0.0
O223 O 0.38903 0.61039 0.36955 0.0
C224 C 0.37948 0.58955 0.3909 0.0
O225 O 0.34115 0.68036 0.32564 0.0
O226 O 0.37351 0.64274 0.31002 0.0
O227 O 0.28397 0.73817 0.38353 0.0
O228 O 0.28749 0.72324 0.32849 0.0
H229 H 0.20808 0.73809 0.32293 0.0
H230 H 0.20002 0.83114 0.30796 0.0
H231 H 0.29041 0.7948 0.35378 0.0
C232 C 0.27292 0.05921 0.21933 0.0
C233 C 0.24577 0.07771 0.22822 0.0
C234 C 0.27895 0.03356 0.23875 0.0
C235 C 0.23233 0.98102 0.29595 0.0
H236 H 0.32058 0.94438 0.30486 0.0
C237 C 0.24202 0.86648 0.35522 0.0
C238 C 0.25948 0.84653 0.33384 0.0
C239 C 0.24635 0.89657 0.35016 0.0
C240 C 0.2958 0.95438 0.30261 0.0
H241 H 0.2052 0.08482 0.26605 0.0
H242 H 0.21635 0.04065 0.30064 0.0
H243 H 0.31649 0.99449 0.28193 0.0
H244 H 0.29665 0.84204 0.29201 0.0
H245 H 0.30439 0.89483 0.283 0.0
H246 H 0.21154 0.94095 0.31595 0.0
C247 C 0.23237 0.04541 0.27795 0.0
C248 C 0.29339 0.98307 0.28936 0.0
C249 C 0.2261 0.0709 0.25827 0.0
C250 C 0.28338 0.85707 0.3092 0.0
C251 C 0.28766 0.88728 0.304 0.0
C252 C 0.23477 0.95257 0.3094 0.0
C253 C 0.25819 0.02589 0.26779 0.0
C254 C 0.26153 0.99661 0.28531 0.0
C255 C 0.26797 0.90733 0.32332 0.0
C256 C 0.26644 0.93871 0.31246 0.0
H257 H 0.28857 0.06374 0.19628 0.0
H258 H 0.29883 0.01906 0.2298 0.0
H259 H 0.20729 0.99027 0.29252 0.0
H260 H 0.22323 0.85877 0.37418 0.0
H261 H 0.23128 0.91141 0.36591 0.0
C262 C 0.10258 0.78759 0.80092 0.0
C263 C 0.11683 0.8151 0.79261 0.0
C264 C 0.07371 0.77765 0.78339 0.0
C265 C 0.99832 0.80719 0.74198 0.0
H266 H 0.98011 0.72669 0.71588 0.0
C267 C 0.86294 0.76558 0.72823 0.0
C268 C 0.85475 0.75242 0.6959 0.0
C269 C 0.89669 0.76995 0.73768 0.0
C270 C 0.98497 0.74926 0.72286 0.0
H271 H 0.11286 0.85305 0.75804 0.0
H272 H 0.06213 0.83571 0.72758 0.0
H273 H 0.03765 0.74124 0.73341 0.0
H274 H 0.87545 0.73149 0.64937 0.0
H275 H 0.93499 0.7387 0.66638 0.0
H276 H 0.94571 0.81516 0.73237 0.0
C277 C 0.07338 0.82194 0.7478 0.0
C278 C 0.01777 0.75756 0.73298 0.0
C279 C 0.10251 0.8318 0.76512 0.0
C280 C 0.88107 0.7416 0.67449 0.0
C281 C 0.91506 0.74584 0.68412 0.0
C282 C 0.96561 0.79884 0.73233 0.0
C283 C 0.05824 0.79507 0.75735 0.0
C284 C 0.02465 0.78657 0.74301 0.0
C285 C 0.92307 0.76106 0.71517 0.0
C286 C 0.95846 0.76972 0.72322 0.0
H287 H 0.11308 0.77406 0.82181 0.0
H288 H 0.0625 0.75698 0.79154 0.0
H289 H 1.00268 0.82961 0.74994 0.0
H290 H 0.84315 0.77368 0.74553 0.0
H291 H 0.90218 0.78115 0.76215 0.0
C292 C 0.71196 0.16255 0.31031 0.0
C293 C 0.74044 0.17036 0.33031 0.0
C294 C 0.70465 0.13297 0.30409 0.0
C295 C 0.7315 0.05616 0.32743 0.0
H296 H 0.71538 0.04265 0.22784 0.0
C297 C 0.77786 0.95394 0.25253 0.0
C298 C 0.75755 0.94258 0.22539 0.0
C299 C 0.76794 0.97908 0.27075 0.0
C300 C 0.71928 0.0459 0.25588 0.0
H301 H 0.78175 0.15369 0.36204 0.0
H302 H 0.76946 0.10249 0.35114 0.0
H303 H 0.71019 0.09182 0.25113 0.0
H304 H 0.70992 0.94795 0.19749 0.0
H305 H 0.6928 0.99182 0.22918 0.0
H306 H 0.74247 0.01029 0.33148 0.0
C307 C 0.75241 0.11876 0.34033 0.0
C308 C 0.71615 0.07418 0.26935 0.0
C309 C 0.7596 0.14819 0.34654 0.0
C310 C 0.72628 0.95611 0.21815 0.0
C311 C 0.71651 0.98138 0.23617 0.0
C312 C 0.73494 0.02789 0.31385 0.0
C313 C 0.72575 0.11072 0.31773 0.0
C314 C 0.7231 0.07989 0.30513 0.0
C315 C 0.7376 0.99356 0.26209 0.0
C316 C 0.72966 0.02257 0.27773 0.0
H317 H 0.69691 0.17926 0.29736 0.0
H318 H 0.68349 0.1276 0.28714 0.0
H319 H 0.73642 0.05955 0.35525 0.0
H320 H 0.80207 0.94407 0.25882 0.0
H321 H 0.78491 0.98802 0.29038 0.0
C322 C 0.89628 0.20538 0.78803 0.0
C323 C 0.90031 0.17579 0.79743 0.0
C324 C 0.92441 0.22236 0.77774 0.0
C325 C 1.00293 0.21855 0.73175 0.0
H326 H 0.04177 0.27911 0.79056 0.0
C327 C 0.12597 0.27636 0.69018 0.0
C328 C 0.1515 0.27224 0.71545 0.0
C329 C 0.09184 0.27235 0.69952 0.0
C330 C 0.0309 0.26253 0.77367 0.0
H331 H 0.93674 0.14048 0.80234 0.0
H332 H 0.98544 0.16984 0.78314 0.0
H333 H 0.98785 0.25564 0.80802 0.0
H334 H 0.1617 0.26274 0.77052 0.0
H335 H 0.10201 0.25656 0.78717 0.0
H336 H 0.04601 0.22467 0.69782 0.0
C337 C 0.96069 0.18004 0.78461 0.0
C338 C 1.00014 0.24923 0.7836 0.0
C339 C 0.93281 0.16329 0.79552 0.0
C340 C 0.14233 0.2664 0.75074 0.0
C341 C 0.1082 0.26285 0.76021 0.0
C342 C 0.03322 0.23217 0.72149 0.0
C343 C 0.95674 0.20967 0.77569 0.0
C344 C 0.98644 0.22666 0.7631 0.0
C345 C 0.08274 0.26451 0.73438 0.0
C346 C 0.04796 0.25382 0.74274 0.0
H347 H 0.87134 0.21525 0.78808 0.0
H348 H 0.92082 0.24514 0.77057 0.0
H349 H 0.99279 0.20109 0.71566 0.0
H350 H 0.13255 0.28043 0.66271 0.0
H351 H 0.07269 0.27386 0.67913 0.0
C352 C 0.20243 0.97471 0.76071 0.0
C353 C 0.22781 0.9609 0.78082 0.0
C354 C 0.20762 1.00293 0.74659 0.0
C355 C 0.25613 0.07064 0.76186 0.0
H356 H 0.22976 0.09123 0.66628 0.0
C357 C 0.26906 0.19035 0.71095 0.0
C358 C 0.24158 0.20081 0.69107 0.0
C359 C 0.27261 0.16015 0.71767 0.0
C360 C 0.23699 0.08606 0.69319 0.0
H361 H 0.27874 0.96609 0.80149 0.0
H362 H 0.28748 0.01523 0.77735 0.0
H363 H 0.22396 0.04074 0.68692 0.0
H364 H 0.19757 0.18788 0.6609 0.0
H365 H 0.20326 0.13592 0.67274 0.0
H366 H 0.26781 0.11599 0.76887 0.0
C367 C 0.2636 1.00423 0.77241 0.0
C368 C 0.2337 0.05699 0.70497 0.0
C369 C 0.25862 0.97591 0.78605 0.0
C370 C 0.21914 0.18042 0.67617 0.0
C371 C 0.22252 0.15046 0.68296 0.0
C372 C 0.25898 0.09981 0.75027 0.0
C373 C 0.2381 0.01822 0.7527 0.0
C374 C 0.24292 0.04894 0.73956 0.0
C375 C 0.24868 0.13981 0.70473 0.0
C376 C 0.24906 0.10812 0.71586 0.0
H377 H 0.17837 0.96387 0.75622 0.0
H378 H 0.18735 0.01314 0.73174 0.0
H379 H 0.26321 0.06527 0.78878 0.0
H380 H 0.28656 0.20557 0.72303 0.0
H381 H 0.29353 0.15288 0.73395 0.0
C382 C 0.15875 0.79658 0.26562 0.0
C383 C 0.16637 0.78089 0.29669 0.0
C384 C 0.12601 0.79629 0.25178 0.0
C385 C 0.03718 0.78601 0.27892 0.0
H386 H 0.0217 0.78953 0.17777 0.0
C387 C 0.91388 0.83197 0.2179 0.0
C388 C 0.90171 0.81958 0.18647 0.0
C389 C 0.94471 0.82277 0.23239 0.0
C390 C 0.02539 0.78817 0.2061 0.0
H391 H 0.1459 0.75172 0.33695 0.0
H392 H 0.08837 0.75097 0.31251 0.0
H393 H 0.07848 0.77989 0.19988 0.0
H394 H 0.91189 0.78684 0.14653 0.0
H395 H 0.96523 0.77062 0.17201 0.0
H396 H 0.98401 0.79433 0.28509 0.0
C397 C 0.1078 0.76376 0.2991 0.0
C398 C 0.05808 0.78295 0.21878 0.0
C399 C 0.14076 0.76394 0.3129 0.0
C400 C 0.92058 0.79711 0.17056 0.0
C401 C 0.95132 0.78786 0.1851 0.0
C402 C 1.00442 0.79121 0.26621 0.0
C403 C 0.09995 0.7803 0.26864 0.0
C404 C 0.06453 0.78238 0.25533 0.0
C405 C 0.96407 0.80089 0.21589 0.0
C406 C 0.99822 0.79287 0.22963 0.0
H407 H 0.17806 0.80961 0.25234 0.0
H408 H 0.12086 0.80953 0.22853 0.0
H409 H 0.04127 0.78592 0.30722 0.0
H410 H 0.9001 0.84936 0.23086 0.0
H411 H 0.95392 0.83355 0.25588 0.0
C412 C 0.74266 0.02149 0.80266 0.0
C413 C 0.76998 0.0387 0.79032 0.0
C414 C 0.73314 0.99599 0.78498 0.0
C415 C 0.74387 0.95442 0.7013 0.0
H416 H 0.73279 0.88667 0.76274 0.0
C417 C 0.76976 0.83667 0.65663 0.0
C418 C 0.75351 0.81309 0.6738 0.0
C419 C 0.76256 0.86548 0.6661 0.0
C420 C 0.73495 0.90535 0.74505 0.0
H421 H 0.80757 0.04329 0.74854 0.0
H422 H 0.79107 0.99876 0.71778 0.0
H423 H 0.73809 0.935 0.78837 0.0
H424 H 0.71531 0.80103 0.71251 0.0
H425 H 0.70186 0.8516 0.72865 0.0
H426 H 0.74161 0.92456 0.65798 0.0
C427 C 0.77684 1.00507 0.74106 0.0
C428 C 0.73812 0.93318 0.75983 0.0
C429 C 0.78641 0.03058 0.75881 0.0
C430 C 0.72788 0.81888 0.69863 0.0
C431 C 0.72063 0.84782 0.70819 0.0
C432 C 0.74054 0.92655 0.68648 0.0
C433 C 0.75063 0.98704 0.75443 0.0
C434 C 0.7434 0.95801 0.73822 0.0
C435 C 0.73895 0.87143 0.69311 0.0
C436 C 0.73686 0.90152 0.7082 0.0
H437 H 0.72925 0.02715 0.82671 0.0
H438 H 0.71247 0.98292 0.79569 0.0
H439 H 0.74735 0.97312 0.68385 0.0
H440 H 0.78992 0.83269 0.63768 0.0
H441 H 0.77746 0.88287 0.65406 0.0
C442 C 0.84631 0.21695 0.26618 0.0
C443 C 0.83721 0.2341 0.29542 0.0
C444 C 0.87983 0.21605 0.25432 0.0
C445 C 0.96215 0.25322 0.254 0.0
H446 H 0.99723 0.17463 0.24202 0.0
C447 C 0.08673 0.2251 0.17904 0.0
C448 C 0.10737 0.20309 0.19373 0.0
C449 C 0.05531 0.23174 0.19429 0.0
C450 C 0.98794 0.19671 0.24554 0.0
H451 H 0.85595 0.26512 0.33383 0.0
H452 H 0.91482 0.26394 0.31248 0.0
H453 H 0.93888 0.18148 0.26181 0.0
H454 H 0.11162 0.17157 0.23675 0.0
H455 H 0.05669 0.18305 0.2631 0.0
H456 H 0.01132 0.26835 0.23711 0.0
C457 C 0.8958 0.25104 0.29905 0.0
C458 C 0.95444 0.20063 0.25652 0.0
C459 C 0.86213 0.25176 0.31118 0.0
C460 C 0.09637 0.18858 0.22467 0.0
C461 C 0.06484 0.19506 0.23971 0.0
C462 C 0.99568 0.24928 0.24253 0.0
C463 C 0.90507 0.23252 0.27114 0.0
C464 C 0.94109 0.22889 0.2606 0.0
C465 C 0.04374 0.21635 0.22435 0.0
C466 C 0.00884 0.22096 0.23809 0.0
H467 H 0.82757 0.20364 0.25288 0.0
H468 H 0.88615 0.20206 0.23226 0.0
H469 H 0.95244 0.27523 0.25691 0.0
H470 H 0.09445 0.23679 0.15528 0.0
H471 H 0.03948 0.24811 0.18172 0.0
C472 C 0.76412 0.55601 0.71879 0.0
C473 C 0.73516 0.57248 0.72729 0.0
C474 C 0.7705 0.52928 0.73583 0.0
C475 C 0.72503 0.47099 0.7866 0.0
H476 H 0.81558 0.43941 0.7985 0.0
C477 C 0.74245 0.35772 0.84775 0.0
C478 C 0.76082 0.33833 0.82639 0.0
C479 C 0.74476 0.38791 0.84211 0.0
C480 C 0.79017 0.448 0.79537 0.0
H481 H 0.6912 0.57455 0.76176 0.0
H482 H 0.703 0.52867 0.7926 0.0
H483 H 0.80843 0.4897 0.7771 0.0
H484 H 0.79766 0.33515 0.78405 0.0
H485 H 0.80221 0.38823 0.77438 0.0
H486 H 0.70681 0.4294 0.80488 0.0
C487 C 0.72024 0.53576 0.77185 0.0
C488 C 0.78598 0.47678 0.78292 0.0
C489 C 0.71357 0.56227 0.75438 0.0
C490 C 0.78376 0.34973 0.80127 0.0
C491 C 0.78616 0.38007 0.79564 0.0
C492 C 0.72924 0.44249 0.79945 0.0
C493 C 0.74834 0.51847 0.76222 0.0
C494 C 0.75329 0.4886 0.77796 0.0
C495 C 0.76541 0.39936 0.81488 0.0
C496 C 0.7618 0.43053 0.80372 0.0
H497 H 0.78118 0.56312 0.69785 0.0
H498 H 0.79212 0.5166 0.72718 0.0
H499 H 0.69944 0.47877 0.78237 0.0
H500 H 0.72432 0.34939 0.86701 0.0
H501 H 0.72886 0.40222 0.85771 0.0
C502 C 0.36797 0.23609 0.23448 0.0
C503 C 0.35991 0.25074 0.20286 0.0
C504 C 0.40099 0.23752 0.24802 0.0
C505 C 0.46099 0.26919 0.28194 0.0
H506 H 0.5427 0.27122 0.22431 0.0
C507 C 0.57479 0.34307 0.3116 0.0
C508 C 0.60785 0.33237 0.30683 0.0
C509 C 0.54671 0.32605 0.30265 0.0
C510 C 0.52026 0.27026 0.24095 0.0
H511 H 0.37999 0.27677 0.15949 0.0
H512 H 0.43764 0.27887 0.18259 0.0
H513 H 0.48996 0.25196 0.19962 0.0
H514 H 0.63757 0.29558 0.28883 0.0
H515 H 0.58812 0.2658 0.2723 0.0
H516 H 0.49088 0.28871 0.32271 0.0
C517 C 0.41876 0.26624 0.19703 0.0
C518 C 0.49001 0.25944 0.22674 0.0
C519 C 0.38576 0.26512 0.1838 0.0
C520 C 0.6123 0.30418 0.29308 0.0
C521 C 0.58408 0.28725 0.28351 0.0
C522 C 0.49112 0.28026 0.29602 0.0
C523 C 0.42652 0.25333 0.22989 0.0
C524 C 0.45981 0.25957 0.24674 0.0
C525 C 0.55098 0.29813 0.28802 0.0
C526 C 0.52082 0.28173 0.27533 0.0
H527 H 0.3483 0.22513 0.24977 0.0
H528 H 0.40626 0.22722 0.27331 0.0
H529 H 0.43816 0.26983 0.29798 0.0
H530 H 0.57059 0.36474 0.32214 0.0
H531 H 0.5216 0.33524 0.30598 0.0
C532 C 0.24081 0.68443 0.78955 0.0
C533 C 0.26462 0.69603 0.81316 0.0
C534 C 0.23913 0.65409 0.78395 0.0
C535 C 0.29701 0.59186 0.78454 0.0
H536 H 0.21702 0.5436 0.7722 0.0
C537 C 0.3103 0.46988 0.74895 0.0
C538 C 0.28658 0.45792 0.72548 0.0
C539 C 0.30504 0.49754 0.76372 0.0
C540 C 0.23967 0.55679 0.77511 0.0
H541 H 0.30392 0.68525 0.85078 0.0
H542 H 0.30078 0.63248 0.84143 0.0
H543 H 0.21085 0.59443 0.79092 0.0
H544 H 0.23847 0.46563 0.69945 0.0
H545 H 0.2299 0.51405 0.72402 0.0
H546 H 0.32592 0.55517 0.76737 0.0
C547 C 0.28354 0.64662 0.82706 0.0
C548 C 0.23605 0.58592 0.78604 0.0
C549 C 0.28507 0.67677 0.83275 0.0
C550 C 0.25716 0.47405 0.71769 0.0
C551 C 0.25215 0.50189 0.732 0.0
C552 C 0.30062 0.56299 0.77317 0.0
C553 C 0.26154 0.635 0.80158 0.0
C554 C 0.26472 0.60376 0.79097 0.0
C555 C 0.27621 0.51428 0.75492 0.0
C556 C 0.27205 0.54491 0.76826 0.0
H557 H 0.22528 0.69891 0.77363 0.0
H558 H 0.22199 0.64581 0.76405 0.0
H559 H 0.3196 0.60518 0.78736 0.0
H560 H 0.33312 0.45796 0.75571 0.0
H561 H 0.32383 0.50585 0.78189 0.0
C562 C 0.39477 0.71948 0.29175 0.0
C563 C 0.39924 0.69058 0.3038 0.0
C564 C 0.42283 0.73622 0.28036 0.0
C565 C 0.51588 0.74146 0.28813 0.0
H566 H 0.51588 0.77392 0.19303 0.0
C567 C 0.63843 0.78859 0.22652 0.0
C568 C 0.64644 0.7756 0.19404 0.0
C569 C 0.60542 0.78647 0.2404 0.0
C570 C 0.51617 0.76525 0.21979 0.0
H571 H 0.43647 0.65668 0.3138 0.0
H572 H 0.48501 0.68573 0.29442 0.0
H573 H 0.46327 0.75383 0.21836 0.0
H574 H 0.62624 0.75172 0.14968 0.0
H575 H 0.56857 0.74852 0.17336 0.0
H576 H 0.5689 0.75166 0.28923 0.0
C577 C 0.46005 0.6956 0.29377 0.0
C578 C 0.48601 0.75395 0.23435 0.0
C579 C 0.43218 0.67892 0.30477 0.0
C580 C 0.6205 0.76224 0.17458 0.0
C581 C 0.58749 0.76043 0.18818 0.0
C582 C 0.54588 0.75305 0.27378 0.0
C583 C 0.45577 0.72437 0.2813 0.0
C584 C 0.48585 0.74107 0.26824 0.0
C585 C 0.57982 0.77155 0.22186 0.0
C586 C 0.54666 0.76427 0.23903 0.0
H587 H 0.36959 0.72883 0.29025 0.0
H588 H 0.41883 0.75834 0.27079 0.0
H589 H 0.51645 0.73184 0.31442 0.0
H590 H 0.65816 0.79864 0.24221 0.0
H591 H 0.60026 0.79543 0.26631 0.0
C592 C 0.75661 0.49343 0.3068 0.0
C593 C 0.72909 0.47601 0.29608 0.0
C594 C 0.7644 0.51961 0.28904 0.0
C595 C 0.74728 0.56302 0.20707 0.0
H596 H 0.76382 0.62932 0.268 0.0
C597 C 0.72094 0.68231 0.16582 0.0
C598 C 0.74039 0.70506 0.18025 0.0
C599 C 0.72711 0.65318 0.17521 0.0
C600 C 0.76 0.61103 0.25043 0.0
H601 H 0.68908 0.47192 0.25725 0.0
H602 H 0.70241 0.51769 0.22651 0.0
H603 H 0.75999 0.58042 0.29351 0.0
H604 H 0.78303 0.71506 0.21397 0.0
H605 H 0.79425 0.66393 0.23018 0.0
H606 H 0.74627 0.5939 0.1641 0.0
C607 C 0.71824 0.511 0.24846 0.0
C608 C 0.75772 0.58288 0.26511 0.0
C609 C 0.71047 0.48477 0.26621 0.0
C610 C 0.76774 0.69794 0.20235 0.0
C611 C 0.77386 0.6687 0.21193 0.0
C612 C 0.74957 0.5912 0.19236 0.0
C613 C 0.74486 0.52909 0.26012 0.0
C614 C 0.75067 0.55855 0.24375 0.0
C615 C 0.75287 0.64605 0.19937 0.0
C616 C 0.75526 0.61567 0.21396 0.0
H617 H 0.77167 0.48727 0.32955 0.0
H618 H 0.78544 0.53269 0.29838 0.0
H619 H 0.74241 0.54475 0.18973 0.0
H620 H 0.69976 0.6872 0.14861 0.0
H621 H 0.71025 0.63647 0.16517 0.0
C622 C 0.418 0.28755 0.67758 0.0
C623 C 0.40027 0.31056 0.69377 0.0
C624 C 0.44906 0.27798 0.69104 0.0
C625 C 0.50586 0.28188 0.76943 0.0
H626 H 0.57658 0.26878 0.69972 0.0
C627 C 0.64391 0.2541 0.80996 0.0
C628 C 0.66893 0.2706 0.79213 0.0
C629 C 0.61036 0.25389 0.79774 0.0
C630 C 0.55714 0.27233 0.71956 0.0
H631 H 0.4009 0.34089 0.73758 0.0
H632 H 0.45528 0.32448 0.76079 0.0
H633 H 0.51897 0.27872 0.68031 0.0
H634 H 0.67892 0.29841 0.74653 0.0
H635 H 0.62075 0.29823 0.72539 0.0
H636 H 0.54454 0.2768 0.80862 0.0
C637 C 0.44496 0.31353 0.73793 0.0
C638 C 0.52395 0.27772 0.70844 0.0
C639 C 0.41379 0.32305 0.72451 0.0
C640 C 0.66011 0.28569 0.76098 0.0
C641 C 0.62678 0.28537 0.74871 0.0
C642 C 0.53912 0.2765 0.78057 0.0
C643 C 0.46329 0.29122 0.72099 0.0
C644 C 0.49796 0.28305 0.73319 0.0
C645 C 0.60131 0.26995 0.76727 0.0
C646 C 0.5653 0.27222 0.75573 0.0
H647 H 0.40822 0.27721 0.65406 0.0
H648 H 0.46212 0.26039 0.67768 0.0
H649 H 0.48641 0.2855 0.78924 0.0
H650 H 0.64998 0.24237 0.83412 0.0
H651 H 0.59141 0.24154 0.81243 0.0
C652 C 0.29439 0.53838 0.26427 0.0
C653 C 0.27623 0.54763 0.29422 0.0
C654 C 0.28504 0.51281 0.24667 0.0
C655 C 0.24243 0.44263 0.26484 0.0
H656 H 0.25618 0.43093 0.16435 0.0
C657 C 0.23635 0.32715 0.20624 0.0
C658 C 0.26512 0.32031 0.1859 0.0
C659 C 0.22886 0.35635 0.21407 0.0
C660 C 0.25212 0.43386 0.19245 0.0
H661 H 0.23273 0.5382 0.32787 0.0
H662 H 0.21621 0.49382 0.29693 0.0
H663 H 0.25964 0.48024 0.18854 0.0
H664 H 0.30688 0.3385 0.15533 0.0
H665 H 0.29402 0.38922 0.16897 0.0
H666 H 0.23619 0.39625 0.26906 0.0
C667 C 0.23808 0.50602 0.28743 0.0
C668 C 0.25418 0.46211 0.20632 0.0
C669 C 0.24747 0.53156 0.30507 0.0
C670 C 0.28468 0.3432 0.17132 0.0
C671 C 0.27713 0.37229 0.17895 0.0
C672 C 0.24035 0.41444 0.25098 0.0
C673 C 0.25725 0.49592 0.25856 0.0
C674 C 0.25029 0.46673 0.24285 0.0
C675 C 0.24986 0.3792 0.20145 0.0
C676 C 0.24612 0.40959 0.21478 0.0
H677 H 0.31666 0.55024 0.25517 0.0
H678 H 0.30063 0.50557 0.22478 0.0
H679 H 0.23972 0.44526 0.29315 0.0
H680 H 0.22091 0.3099 0.21786 0.0
H681 H 0.2074 0.36099 0.23112 0.0
C682 C 0.3776 0.78265 0.80077 0.0
C683 C 0.35297 0.76821 0.78053 0.0
C684 C 0.4116 0.78314 0.78979 0.0
C685 C 0.46836 0.76809 0.71296 0.0
H686 H 0.53346 0.74627 0.78504 0.0
C687 C 0.606 0.74279 0.67475 0.0
C688 C 0.61963 0.71724 0.68991 0.0
C689 C 0.57653 0.75527 0.68857 0.0
C690 C 0.51562 0.75236 0.76458 0.0
H691 H 0.34411 0.7447 0.73191 0.0
H692 H 0.40315 0.74528 0.7129 0.0
H693 H 0.4751 0.75723 0.80197 0.0
H694 H 0.61401 0.6856 0.73259 0.0
H695 H 0.56214 0.70692 0.75627 0.0
H696 H 0.50811 0.76158 0.67533 0.0
C697 C 0.39646 0.75637 0.73714 0.0
C698 C 0.48224 0.75904 0.77434 0.0
C699 C 0.36261 0.75583 0.74814 0.0
C700 C 0.60423 0.70536 0.72041 0.0
C701 C 0.57449 0.71769 0.73404 0.0
C702 C 0.50162 0.76132 0.7032 0.0
C703 C 0.42154 0.76935 0.75826 0.0
C704 C 0.458 0.76632 0.74853 0.0
C705 C 0.55972 0.74231 0.71765 0.0
C706 C 0.52554 0.75277 0.72879 0.0
H707 H 0.37092 0.79221 0.82597 0.0
H708 H 0.43023 0.79364 0.80643 0.0
H709 H 0.45048 0.77399 0.69245 0.0
H710 H 0.61751 0.75269 0.65146 0.0
H711 H 0.56637 0.77463 0.67579 0.0
C712 C 0.11039 0.05898 0.12186 0.0
C713 C 0.11344 0.08856 0.11226 0.0
C714 C 0.08487 0.04167 0.10745 0.0
C715 C 0.99938 0.04874 0.07093 0.0
H716 H 0.00832 0.96434 0.06828 0.0
C717 C 0.8961 0.97287 0.12153 0.0
C718 C 0.8942 0.94371 0.11055 0.0
C719 C 0.92027 0.9918 0.1069 0.0
C720 C 1.00519 0.98787 0.06799 0.0
H721 H 0.09359 0.12302 0.07862 0.0
H722 H 0.04879 0.0926 0.05301 0.0
H723 H 0.05885 0.99479 0.06798 0.0
H724 H 0.91378 0.91198 0.07349 0.0
H725 H 0.95608 0.94526 0.0474 0.0
H726 H 0.94567 0.04177 0.07107 0.0
C727 C 0.06586 0.08287 0.07211 0.0
C728 C 0.03429 1.00537 0.06833 0.0
C729 C 0.09149 0.10027 0.08669 0.0
C730 C 0.9153 0.93426 0.08291 0.0
C731 C 0.93946 0.95332 0.06801 0.0
C732 C 0.97024 0.03125 0.07002 0.0
C733 C 0.06181 0.05347 0.08288 0.0
C734 C 0.03174 0.03588 0.07215 0.0
C735 C 0.94299 0.98206 0.0807 0.0
C736 C 0.97282 1.00054 0.07086 0.0
H737 H 0.1271 0.04936 0.14141 0.0
H738 H 0.08229 0.01936 0.117 0.0
H739 H 0.99632 0.07216 0.07353 0.0
H740 H 0.87979 0.98081 0.14248 0.0
H741 H 0.92235 0.01357 0.11776 0.0
C742 C 0.92247 0.05677 0.91922 0.0
C743 C 0.88929 0.04961 0.90926 0.0
C744 C 0.94287 0.03607 0.93604 0.0
C745 C 0.95443 0.9577 0.93318 0.0
H746 H 0.0334 0.97766 0.98885 0.0
C747 C 0.07676 0.89301 0.91601 0.0
C748 C 0.10321 0.91203 0.90591 0.0
C749 C 0.04795 0.90391 0.93324 0.0
C750 C 0.01129 0.97151 0.97367 0.0
H751 H 0.85017 0.01625 0.91164 0.0
H752 H 0.8861 0.97964 0.94077 0.0
H753 H 0.98376 0.00951 0.98982 0.0
H754 H 0.1219 0.95656 0.90841 0.0
H755 H 0.0719 0.97564 0.938 0.0
H756 H 0.9827 0.92098 0.91493 0.0
C757 C 0.89646 1.0012 0.93531 0.0
C758 C 0.98286 0.98974 0.97423 0.0
C759 C 0.87591 0.02211 0.91869 0.0
C760 C 0.10165 0.94153 0.91561 0.0
C761 C 0.07311 0.95236 0.933 0.0
C762 C 0.98281 0.93948 0.93265 0.0
C763 C 0.93058 1.00763 0.94301 0.0
C764 C 0.95503 0.98404 0.95215 0.0
C765 C 0.04535 0.93394 0.94085 0.0
C766 C 0.01236 0.94724 0.95105 0.0
H767 H 0.93323 0.07797 0.91254 0.0
H768 H 0.96907 0.04178 0.94116 0.0
H769 H 0.93349 0.95258 0.91583 0.0
H770 H 0.07753 0.8701 0.90893 0.0
H771 H 0.02709 0.88915 0.93916 0.0
C772 C 0.59489 0.5936 0.58332 0.0
C773 C 0.59332 0.59963 0.6197 0.0
C774 C 0.57256 0.57326 0.56854 0.0
C775 C 0.5433 0.50745 0.57328 0.0
H776 H 0.44516 0.51368 0.57378 0.0
C777 C 0.45178 0.42428 0.62991 0.0
C778 C 0.42062 0.419 0.61349 0.0
C779 C 0.47521 0.44342 0.61443 0.0
C780 C 0.47252 0.51169 0.57241 0.0
H781 H 0.56618 0.59108 0.66863 0.0
H782 H 0.52615 0.55656 0.64244 0.0
H783 H 0.47995 0.55796 0.57803 0.0
H784 H 0.38993 0.42794 0.56726 0.0
H785 H 0.43054 0.46284 0.54084 0.0
H786 H 0.53588 0.46098 0.57153 0.0
C787 C 0.54492 0.56715 0.62559 0.0
C788 C 0.49231 0.53697 0.57503 0.0
C789 C 0.56777 0.58675 0.64054 0.0
C790 C 0.41399 0.43166 0.58024 0.0
C791 C 0.4371 0.45153 0.56516 0.0
C792 C 0.5235 0.48212 0.57132 0.0
C793 C 0.54783 0.55963 0.58982 0.0
C794 C 0.52773 0.53485 0.57683 0.0
C795 C 0.46745 0.45817 0.58273 0.0
C796 C 0.48796 0.48401 0.5726 0.0
H797 H 0.6146 0.60322 0.56684 0.0
H798 H 0.57528 0.56749 0.54095 0.0
H799 H 0.57064 0.50544 0.57491 0.0
H800 H 0.45733 0.4147 0.65555 0.0
H801 H 0.49823 0.44848 0.62873 0.0
C802 C 0.59025 0.42927 0.4444 0.0
C803 C 0.6141 0.44522 0.42442 0.0
C804 C 0.56622 0.4438 0.46496 0.0
C805 C 0.53472 0.51908 0.4877 0.0
H806 H 0.44966 0.48534 0.45707 0.0
C807 C 0.43471 0.58635 0.4217 0.0
C808 C 0.40173 0.57556 0.41708 0.0
C809 C 0.45767 0.57127 0.4429 0.0
C810 C 0.47274 0.49505 0.46709 0.0
H811 H 0.63411 0.48835 0.41263 0.0
H812 H 0.59106 0.51399 0.44651 0.0
H813 H 0.49946 0.4554 0.45885 0.0
H814 H 0.36566 0.54228 0.43333 0.0
H815 H 0.40539 0.51624 0.47172 0.0
H816 H 0.50789 0.5593 0.49403 0.0
C817 C 0.59107 0.49031 0.44743 0.0
C818 C 0.50169 0.47767 0.46809 0.0
C819 C 0.61562 0.47568 0.4276 0.0
C820 C 0.39111 0.55081 0.43633 0.0
C821 C 0.41397 0.53588 0.45812 0.0
C822 C 0.50562 0.53647 0.48695 0.0
C823 C 0.56496 0.47458 0.46484 0.0
C824 C 0.53351 0.49 0.47596 0.0
C825 C 0.44806 0.5451 0.46024 0.0
C826 C 0.47486 0.52518 0.47399 0.0
H827 H 0.58924 0.4056 0.44291 0.0
H828 H 0.54723 0.43095 0.47894 0.0
H829 H 0.55858 0.52898 0.49524 0.0
H830 H 0.44336 0.60572 0.40752 0.0
H831 H 0.48361 0.57911 0.44338 0.0
C832 C 0.22205 0.09269 0.09245 0.0
C833 C 0.22021 0.11957 0.07423 0.0
C834 C 0.22199 0.06638 0.07406 0.0
C835 C 0.24386 0.03421 0.98958 0.0
H836 H 0.1821 0.97185 0.01765 0.0
C837 C 0.22842 0.93031 0.90652 0.0
C838 C 0.22236 0.90348 0.92384 0.0
C839 C 0.22859 0.95643 0.92528 0.0
C840 C 0.19992 0.98882 0.00983 0.0
H841 H 0.21698 0.14004 0.02247 0.0
H842 H 0.21784 0.09377 0.99002 0.0
H843 H 0.18119 0.01822 0.04921 0.0
H844 H 0.21242 0.88293 0.97472 0.0
H845 H 0.21393 0.92855 0.00793 0.0
H846 H 0.26333 1.00483 0.95089 0.0
C847 C 0.21912 0.09323 0.01864 0.0
C848 C 0.1992 0.01542 0.02777 0.0
C849 C 0.21856 0.11963 0.03714 0.0
C850 C 0.2171 0.90329 0.96061 0.0
C851 C 0.21769 0.92947 0.97956 0.0
C852 C 0.24491 1.0075 0.97195 0.0
C853 C 0.22065 0.06639 0.037 0.0
C854 C 0.22108 0.03837 0.0177 0.0
C855 C 0.22319 0.95641 0.96204 0.0
C856 C 0.22282 0.98449 0.9817 0.0
H857 H 0.22278 0.09185 0.12102 0.0
H858 H 0.22335 0.04599 0.08882 0.0
H859 H 0.26131 0.05146 0.98167 0.0
H860 H 0.23212 0.93138 0.87823 0.0
H861 H 0.23219 0.97671 0.9107 0.0
C862 C 0.09169 0.78475 0.91589 0.0
C863 C 0.12349 0.79145 0.93025 0.0
C864 C 0.06222 0.7977 0.92922 0.0
C865 C 0.0326 0.82079 0.01558 0.0
H866 H 0.94693 0.82799 0.96637 0.0
C867 C 0.877 0.81327 0.04139 0.0
C868 C 0.87705 0.78623 0.05934 0.0
C869 C 0.90765 0.8258 0.02944 0.0
C870 C 0.97062 0.82671 0.98069 0.0
H871 H 0.14995 0.8186 0.96776 0.0
H872 H 0.09837 0.8415 0.99117 0.0
H873 H 1.00011 0.83077 0.93302 0.0
H874 H 0.90886 0.75216 0.08114 0.0
H875 H 0.96208 0.7742 0.06155 0.0
H876 H 1.00311 0.81516 0.06295 0.0
C877 C 0.09613 0.82617 0.96961 0.0
C878 C 1.00114 0.82804 0.96149 0.0
C879 C 0.12572 0.81341 0.95588 0.0
C880 C 0.9082 0.77317 0.06765 0.0
C881 C 0.93872 0.78588 0.05641 0.0
C882 C 1.00212 0.8193 0.03472 0.0
C883 C 0.0639 0.81726 0.95773 0.0
C884 C 0.03246 0.82376 0.97848 0.0
C885 C 0.93881 0.81167 0.0358 0.0
C886 C 0.97071 0.82089 0.01731 0.0
H887 H 0.08931 0.76754 0.89649 0.0
H888 H 0.03798 0.79011 0.91946 0.0
H889 H 0.05613 0.81726 0.02965 0.0
H890 H 0.85324 0.82347 0.0341 0.0
H891 H 0.90687 0.84575 0.0138 0.0
C892 C 0.79717 0.10518 0.92796 0.0
C893 C 0.82345 0.1259 0.92677 0.0
C894 C 0.79776 0.08223 0.95232 0.0
C895 C 0.85404 0.03632 0.00501 0.0
H896 H 0.76802 0.01078 0.04506 0.0
C897 C 0.82392 0.91638 0.04652 0.0
C898 C 0.8028 0.91167 0.07616 0.0
C899 C 0.83095 0.94487 0.03447 0.0
C900 C 0.79243 0.01768 0.0346 0.0
H901 H 0.8708 0.13942 0.95052 0.0
H902 H 0.87207 0.09856 0.99368 0.0
H903 H 0.77175 0.05771 0.01491 0.0
H904 H 0.77306 0.93326 0.11659 0.0
H905 H 0.78532 0.98262 0.09579 0.0
H906 H 0.87444 0.99563 0.02422 0.0
C907 C 0.85099 0.10029 0.97552 0.0
C908 C 0.79448 0.04455 0.01703 0.0
C909 C 0.85017 0.1237 0.95111 0.0
C910 C 0.78922 0.93603 0.0936 0.0
C911 C 0.79627 0.96439 0.08165 0.0
C912 C 0.85194 1.00914 0.02248 0.0
C913 C 0.82467 0.07932 0.9763 0.0
C914 C 0.82491 0.05371 1.00083 0.0
C915 C 0.81683 0.96919 0.05168 0.0
C916 C 0.82081 0.99922 0.03666 0.0
H917 H 0.77626 0.10643 0.9095 0.0
H918 H 0.77745 0.06622 0.95162 0.0
H919 H 0.87796 0.04299 0.99322 0.0
H920 H 0.83509 0.8981 0.03267 0.0
H921 H 0.84662 0.94779 0.01108 0.0
C922 C 0.13329 0.2155 0.05285 0.0
C923 C 0.13189 0.2431 0.06884 0.0
C924 C 0.1036 0.20243 0.03981 0.0
C925 C 0.00887 0.20932 0.03645 0.0
H926 H 0.02117 0.19435 0.9365 0.0
C927 C 0.91164 0.24116 0.93205 0.0
C928 C 0.91185 0.22783 0.8988 0.0
C929 C 0.93288 0.23106 0.95901 0.0
C930 C 0.01701 0.19757 0.96453 0.0
H931 H 0.09841 0.27754 0.08639 0.0
H932 H 0.04684 0.25474 0.06452 0.0
H933 H 0.07042 0.198 0.97451 0.0
H934 H 0.93258 0.19233 0.86819 0.0
H935 H 0.96915 0.17394 0.91559 0.0
H936 H 0.95547 0.21024 0.0261 0.0
C937 C 0.07054 0.243 0.06182 0.0
C938 C 0.04546 0.19971 0.98642 0.0
C939 C 0.10014 0.25618 0.07428 0.0
C940 C 0.93139 0.20256 0.89389 0.0
C941 C 0.95279 0.1924 0.9209 0.0
C942 C 0.98038 0.207 0.01459 0.0
C943 C 0.07203 0.21664 0.04294 0.0
C944 C 0.04184 0.20695 0.02232 0.0
C945 C 0.95518 0.20754 0.95316 0.0
C946 C 0.98413 0.20247 0.97797 0.0
H947 H 0.15752 0.20522 0.04779 0.0
H948 H 0.1056 0.18201 0.02563 0.0
H949 H 1.00515 0.21442 0.06413 0.0
H950 H 0.89741 0.26112 0.93614 0.0
H951 H 0.93405 0.24357 0.98317 0.0
C952 C 0.67144 0.38568 0.45844 0.0
C953 C 0.69493 0.38455 0.43039 0.0
C954 C 0.67185 0.40941 0.48191 0.0
C955 C 0.66663 0.47389 0.50769 0.0
H956 H 0.75322 0.50415 0.53969 0.0
C957 C 0.68888 0.59453 0.54827 0.0
C958 C 0.70847 0.59962 0.57862 0.0
C959 C 0.68525 0.5662 0.53494 0.0
C960 C 0.72878 0.49589 0.53128 0.0
H961 H 0.73813 0.40621 0.40594 0.0
H962 H 0.73907 0.447 0.44661 0.0
H963 H 0.75084 0.45714 0.50976 0.0
H964 H 0.73971 0.5789 0.61865 0.0
H965 H 0.73415 0.52961 0.59477 0.0
H966 H 0.64477 0.5133 0.52825 0.0
C967 C 0.72025 0.42995 0.45064 0.0
C968 C 0.72744 0.46902 0.51398 0.0
C969 C 0.71954 0.40668 0.42714 0.0
C970 C 0.72461 0.57577 0.59511 0.0
C971 C 0.72139 0.54753 0.58148 0.0
C972 C 0.66803 0.50109 0.52455 0.0
C973 C 0.69625 0.43186 0.47807 0.0
C974 C 0.6965 0.45803 0.50123 0.0
C975 C 0.70157 0.5424 0.55132 0.0
C976 C 0.69926 0.51259 0.53598 0.0
H977 H 0.65209 0.36894 0.46137 0.0
H978 H 0.65301 0.41035 0.50282 0.0
H979 H 0.64241 0.46588 0.49843 0.0
H980 H 0.67585 0.61235 0.53508 0.0
H981 H 0.67012 0.563 0.51143 0.0
C982 C 0.40655 0.27105 0.57468 0.0
C983 C 0.3765 0.28648 0.56813 0.0
C984 C 0.43802 0.2831 0.56556 0.0
C985 C 0.4719 0.32858 0.49513 0.0
H986 H 0.55729 0.30658 0.53817 0.0
C987 C 0.58875 0.31302 0.40753 0.0
C988 C 0.60083 0.28434 0.41182 0.0
C989 C 0.56885 0.32587 0.43413 0.0
C990 C 0.53375 0.31323 0.52584 0.0
H991 H 0.35569 0.32736 0.54896 0.0
H992 H 0.41098 0.34855 0.53239 0.0
H993 H 0.50544 0.30657 0.57382 0.0
H994 H 0.60463 0.24774 0.44813 0.0
H995 H 0.57109 0.27003 0.49457 0.0
H996 H 0.49959 0.33312 0.44659 0.0
C997 C 0.41019 0.32715 0.54491 0.0
C998 C 0.50402 0.31324 0.5463 0.0
C999 C 0.37857 0.31519 0.55472 0.0
C1000 C 0.59597 0.27004 0.4444 0.0
C1001 C 0.5766 0.28291 0.47105 0.0
C1002 C 0.50162 0.3285 0.47464 0.0
C1003 C 0.44016 0.31069 0.54889 0.0
C1004 C 0.47244 0.31934 0.53072 0.0
C1005 C 0.56109 0.31026 0.46551 0.0
C1006 C 0.5326 0.31922 0.48927 0.0
H1007 H 0.40557 0.2488 0.58482 0.0
H1008 H 0.46037 0.26963 0.56881 0.0
H1009 H 0.44806 0.33329 0.48215 0.0
H1010 H 0.59186 0.32435 0.3825 0.0
H1011 H 0.55767 0.34712 0.42915 0.0
C1012 C 0.29204 0.44018 0.59936 0.0
C1013 C 0.30088 0.41384 0.5827 0.0
C1014 C 0.29615 0.46714 0.58188 0.0
C1015 C 0.30415 0.49913 0.49184 0.0
H1016 H 0.33073 0.56935 0.54174 0.0
C1017 C 0.28848 0.61097 0.42602 0.0
C1018 C 0.3145 0.63178 0.4292 0.0
C1019 C 0.2879 0.58588 0.44722 0.0
C1020 C 0.32353 0.54993 0.52734 0.0
H1021 H 0.32153 0.39543 0.53452 0.0
H1022 H 0.3289 0.44229 0.50417 0.0
H1023 H 0.32928 0.52224 0.57307 0.0
H1024 H 0.35949 0.64356 0.45851 0.0
H1025 H 0.359 0.59897 0.49564 0.0
H1026 H 0.29894 0.52637 0.44608 0.0
C1027 C 0.31823 0.44215 0.53062 0.0
C1028 C 0.32235 0.52292 0.54539 0.0
C1029 C 0.31402 0.41519 0.54807 0.0
C1030 C 0.3391 0.62783 0.45559 0.0
C1031 C 0.33875 0.6023 0.47679 0.0
C1032 C 0.3053 0.52598 0.47391 0.0
C1033 C 0.30924 0.46853 0.54721 0.0
C1034 C 0.31227 0.49719 0.52794 0.0
C1035 C 0.31361 0.58059 0.47209 0.0
C1036 C 0.31446 0.55188 0.49146 0.0
H1037 H 0.28186 0.44006 0.62599 0.0
H1038 H 0.28845 0.48687 0.59537 0.0
H1039 H 0.29605 0.47996 0.47746 0.0
H1040 H 0.26877 0.61382 0.40641 0.0
H1041 H 0.26748 0.57029 0.44358 0.0
C1042 C 0.63433 0.69729 0.50485 0.0
C1043 C 0.63885 0.71146 0.53721 0.0
C1044 C 0.60303 0.68484 0.4963 0.0
C1045 C 0.5137 0.70051 0.51593 0.0
H1046 H 0.50141 0.64813 0.43688 0.0
C1047 C 0.40132 0.71599 0.42325 0.0
C1048 C 0.41552 0.72612 0.39127 0.0
C1049 C 0.42116 0.69975 0.44714 0.0
C1050 C 0.50412 0.66233 0.45951 0.0
H1051 H 0.61464 0.72285 0.5866 0.0
H1052 H 0.5605 0.69962 0.57283 0.0
H1053 H 0.55306 0.64507 0.47223 0.0
H1054 H 0.46039 0.72576 0.35818 0.0
H1055 H 0.49394 0.69601 0.39817 0.0
H1056 H 0.4655 0.71863 0.5021 0.0
C1057 C 0.58098 0.69826 0.55372 0.0
C1058 C 0.53387 0.66083 0.47958 0.0
C1059 C 0.61234 0.71097 0.5621 0.0
C1060 C 0.44849 0.71746 0.3821 0.0
C1061 C 0.46779 0.70049 0.4052 0.0
C1062 C 0.48377 0.70165 0.49624 0.0
C1063 C 0.5753 0.68649 0.51989 0.0
C1064 C 0.54008 0.68127 0.50654 0.0
C1065 C 0.45507 0.69283 0.43877 0.0
C1066 C 0.47965 0.68386 0.46647 0.0
H1067 H 0.65422 0.69791 0.48495 0.0
H1068 H 0.59992 0.67641 0.46984 0.0
H1069 H 0.51726 0.71673 0.53628 0.0
H1070 H 0.37622 0.723 0.43126 0.0
H1071 H 0.41084 0.69431 0.47298 0.0
loop_
_geom_bond_atom_site_label_1
_geom_bond_atom_site_label_2
_geom_bond_distance
_geom_bond_site_symmetry_2
_ccdc_geom_bond_type
O0 Tb1 2.292 . S
O0 C3 1.255 . S
Tb1 O0 2.292 . S
Tb1 O17 2.326 . S
Tb1 O19 2.500 . S
Tb1 O20 2.473 . S
Tb1 O23 2.324 . S
Eu2 O6 2.292 . S
Eu2 C7 2.852 . S
Eu2 O18 2.324 . S
Eu2 O22 2.326 . S
Eu2 O24 2.500 . S
Eu2 O25 2.473 . S
C3 O0 1.255 . S
C3 O4 1.247 . S
O4 C3 1.247 . S
C5 O17 1.242 . S
C5 O18 1.258 . S
O6 Eu2 2.292 . S
O6 C8 1.255 . S
C7 Eu2 2.852 . S
C7 C11 1.503 . S
C7 O24 1.273 . S
C7 O25 1.257 . S
C8 O6 1.255 . S
C8 O9 1.247 . S
O9 C8 1.247 . S
C10 O22 1.242 . S
C10 O23 1.258 . S
C11 C7 1.503 . S
C11 C12 1.379 . S
C11 C16 1.392 . S
C12 C11 1.379 . S
C12 C13 1.404 . S
C12 H26 0.929 . S
C13 C12 1.404 . S
C13 C14 1.389 . S
C14 C13 1.389 . S
C14 C15 1.399 . S
C14 H27 0.931 . S
C15 C14 1.399 . S
C15 C16 1.390 . S
C16 C11 1.392 . S
C16 C15 1.390 . S
C16 H28 0.929 . S
O17 Tb1 2.326 . S
O17 C5 1.242 . S
O18 Eu2 2.324 . S
O18 C5 1.258 . S
O19 Tb1 2.500 . S
O19 C21 1.273 . S
O20 Tb1 2.473 . S
O20 C21 1.257 . S
C21 O19 1.273 . S
C21 O20 1.257 . S
O22 Eu2 2.326 . S
O22 C10 1.242 . S
O23 Tb1 2.324 . S
O23 C10 1.258 . S
O24 Eu2 2.500 . S
O24 C7 1.273 . S
O25 Eu2 2.473 . S
O25 C7 1.257 . S
H26 C12 0.929 . S
H27 C14 0.931 . S
H28 C16 0.929 . S
O29 Tb30 2.292 . S
O29 C32 1.255 . S
Tb30 O29 2.292 . S
Tb30 O46 2.326 . S
Tb30 O48 2.500 . S
Tb30 O49 2.473 . S
Tb30 O52 2.324 . S
Eu31 O35 2.292 . S
Eu31 C36 2.852 . S
Eu31 O47 2.324 . S
Eu31 O51 2.326 . S
Eu31 O53 2.500 . S
Eu31 O54 2.473 . S
C32 O29 1.255 . S
C32 O33 1.247 . S
O33 C32 1.247 . S
C34 O46 1.242 . S
C34 O47 1.258 . S
O35 Eu31 2.292 . S
O35 C37 1.255 . S
C36 Eu31 2.852 . S
C36 C40 1.503 . S
C36 O53 1.273 . S
C36 O54 1.257 . S
C37 O35 1.255 . S
C37 O38 1.247 . S
O38 C37 1.247 . S
C39 O51 1.242 . S
C39 O52 1.258 . S
C40 C36 1.503 . S
C40 C41 1.379 . S
C40 C45 1.392 . S
C41 C40 1.379 . S
C41 C42 1.404 . S
C41 H55 0.929 . S
C42 C41 1.404 . S
C42 C43 1.389 . S
C43 C42 1.389 . S
C43 C44 1.399 . S
C43 H56 0.931 . S
C44 C43 1.399 . S
C44 C45 1.390 . S
C45 C40 1.392 . S
C45 C44 1.390 . S
C45 H57 0.929 . S
O46 Tb30 2.326 . S
O46 C34 1.242 . S
O47 Eu31 2.324 . S
O47 C34 1.258 . S
O48 Tb30 2.500 . S
O48 C50 1.273 . S
O49 Tb30 2.473 . S
O49 C50 1.257 . S
C50 O48 1.273 . S
C50 O49 1.257 . S
O51 Eu31 2.326 . S
O51 C39 1.242 . S
O52 Tb30 2.324 . S
O52 C39 1.258 . S
O53 Eu31 2.500 . S
O53 C36 1.273 . S
O54 Eu31 2.473 . S
O54 C36 1.257 . S
H55 C41 0.929 . S
H56 C43 0.931 . S
H57 C45 0.929 . S
O58 Tb59 2.292 . S
O58 C61 1.255 . S
Tb59 O58 2.292 . S
Tb59 O75 2.326 . S
Tb59 O77 2.500 . S
Tb59 O78 2.473 . S
Tb59 O81 2.324 . S
Eu60 O64 2.292 . S
Eu60 C65 2.852 . S
Eu60 O76 2.324 . S
Eu60 O80 2.326 . S
Eu60 O82 2.500 . S
Eu60 O83 2.473 . S
C61 O58 1.255 . S
C61 O62 1.247 . S
O62 C61 1.247 . S
C63 O75 1.242 . S
C63 O76 1.258 . S
O64 Eu60 2.292 . S
O64 C66 1.255 . S
C65 Eu60 2.852 . S
C65 C69 1.503 . S
C65 O82 1.273 . S
C65 O83 1.257 . S
C66 O64 1.255 . S
C66 O67 1.247 . S
O67 C66 1.247 . S
C68 O80 1.242 . S
C68 O81 1.258 . S
C69 C65 1.503 . S
C69 C70 1.379 . S
C69 C74 1.392 . S
C70 C69 1.379 . S
C70 C71 1.404 . S
C70 H84 0.929 . S
C71 C70 1.404 . S
C71 C72 1.389 . S
C72 C71 1.389 . S
C72 C73 1.399 . S
C72 H85 0.931 . S
C73 C72 1.399 . S
C73 C74 1.390 . S
C74 C69 1.392 . S
C74 C73 1.390 . S
C74 H86 0.929 . S
O75 Tb59 2.326 . S
O75 C63 1.242 . S
O76 Eu60 2.324 . S
O76 C63 1.258 . S
O77 Tb59 2.500 . S
O77 C79 1.273 . S
O78 Tb59 2.473 . S
O78 C79 1.257 . S
C79 O77 1.273 . S
C79 O78 1.257 . S
O80 Eu60 2.326 . S
O80 C68 1.242 . S
O81 Tb59 2.324 . S
O81 C68 1.258 . S
O82 Eu60 2.500 . S
O82 C65 1.273 . S
O83 Eu60 2.473 . S
O83 C65 1.257 . S
H84 C70 0.929 . S
H85 C72 0.931 . S
H86 C74 0.929 . S
O87 Tb88 2.292 . S
O87 C90 1.255 . S
Tb88 O87 2.292 . S
Tb88 O104 2.326 . S
Tb88 O106 2.500 . S
Tb88 O107 2.473 . S
Tb88 O110 2.324 . S
Eu89 O93 2.292 . S
Eu89 C94 2.852 . S
Eu89 O105 2.324 . S
Eu89 O109 2.326 . S
Eu89 O111 2.500 . S
Eu89 O112 2.473 . S
C90 O87 1.255 . S
C90 O91 1.247 . S
O91 C90 1.247 . S
C92 O104 1.242 . S
C92 O105 1.258 . S
O93 Eu89 2.292 . S
O93 C95 1.255 . S
C94 Eu89 2.852 . S
C94 C98 1.503 . S
C94 O111 1.273 . S
C94 O112 1.257 . S
C95 O93 1.255 . S
C95 O96 1.247 . S
O96 C95 1.247 . S
C97 O109 1.242 . S
C97 O110 1.258 . S
C98 C94 1.503 . S
C98 C99 1.379 . S
C98 C103 1.392 . S
C99 C98 1.379 . S
C99 C100 1.404 . S
C99 H113 0.929 . S
C100 C99 1.404 . S
C100 C101 1.389 . S
C101 C100 1.389 . S
C101 C102 1.399 . S
C101 H114 0.931 . S
C102 C101 1.399 . S
C102 C103 1.390 . S
C103 C98 1.392 . S
C103 C102 1.390 . S
C103 H115 0.929 . S
O104 Tb88 2.326 . S
O104 C92 1.242 . S
O105 Eu89 2.324 . S
O105 C92 1.258 . S
O106 Tb88 2.500 . S
O106 C108 1.273 . S
O107 Tb88 2.473 . S
O107 C108 1.257 . S
C108 O106 1.273 . S
C108 O107 1.257 . S
O109 Eu89 2.326 . S
O109 C97 1.242 . S
O110 Tb88 2.324 . S
O110 C97 1.258 . S
O111 Eu89 2.500 . S
O111 C94 1.273 . S
O112 Eu89 2.473 . S
O112 C94 1.257 . S
H113 C99 0.929 . S
H114 C101 0.931 . S
H115 C103 0.929 . S
O116 Tb117 2.292 . S
O116 C119 1.255 . S
Tb117 O116 2.292 . S
Tb117 O133 2.326 . S
Tb117 O135 2.500 . S
Tb117 O136 2.473 . S
Tb117 O139 2.324 . S
Eu118 O122 2.292 . S
Eu118 C123 2.852 . S
Eu118 O134 2.324 . S
Eu118 O138 2.326 . S
Eu118 O140 2.500 . S
Eu118 O141 2.473 . S
C119 O116 1.255 . S
C119 O120 1.247 . S
O120 C119 1.247 . S
C121 O133 1.242 . S
C121 O134 1.258 . S
O122 Eu118 2.292 . S
O122 C124 1.255 . S
C123 Eu118 2.852 . S
C123 C127 1.503 . S
C123 O140 1.273 . S
C123 O141 1.257 . S
C124 O122 1.255 . S
C124 O125 1.247 . S
O125 C124 1.247 . S
C126 O138 1.242 . S
C126 O139 1.258 . S
C127 C123 1.503 . S
C127 C128 1.379 . S
C127 C132 1.392 . S
C128 C127 1.379 . S
C128 C129 1.404 . S
C128 H142 0.929 . S
C129 C128 1.404 . S
C129 C130 1.389 . S
C130 C129 1.389 . S
C130 C131 1.399 . S
C130 H143 0.931 . S
C131 C130 1.399 . S
C131 C132 1.390 . S
C132 C127 1.392 . S
C132 C131 1.390 . S
C132 H144 0.929 . S
O133 Tb117 2.326 . S
O133 C121 1.242 . S
O134 Eu118 2.324 . S
O134 C121 1.258 . S
O135 Tb117 2.500 . S
O135 C137 1.273 . S
O136 Tb117 2.473 . S
O136 C137 1.257 . S
C137 O135 1.273 . S
C137 O136 1.257 . S
O138 Eu118 2.326 . S
O138 C126 1.242 . S
O139 Tb117 2.324 . S
O139 C126 1.258 . S
O140 Eu118 2.500 . S
O140 C123 1.273 . S
O141 Eu118 2.473 . S
O141 C123 1.257 . S
H142 C128 0.929 . S
H143 C130 0.931 . S
H144 C132 0.929 . S
O145 Tb146 2.292 . S
O145 C148 1.255 . S
Tb146 O145 2.292 . S
Tb146 O162 2.326 . S
Tb146 O164 2.500 . S
Tb146 O165 2.473 . S
Tb146 O168 2.324 . S
Eu147 O151 2.292 . S
Eu147 C152 2.852 . S
Eu147 O163 2.324 . S
Eu147 O167 2.326 . S
Eu147 O169 2.500 . S
Eu147 O170 2.473 . S
C148 O145 1.255 . S
C148 O149 1.247 . S
O149 C148 1.247 . S
C150 O162 1.242 . S
C150 O163 1.258 . S
O151 Eu147 2.292 . S
O151 C153 1.255 . S
C152 Eu147 2.852 . S
C152 C156 1.503 . S
C152 O169 1.273 . S
C152 O170 1.257 . S
C153 O151 1.255 . S
C153 O154 1.247 . S
O154 C153 1.247 . S
C155 O167 1.242 . S
C155 O168 1.258 . S
C156 C152 1.503 . S
C156 C157 1.379 . S
C156 C161 1.392 . S
C157 C156 1.379 . S
C157 C158 1.404 . S
C157 H171 0.929 . S
C158 C157 1.404 . S
C158 C159 1.389 . S
C159 C158 1.389 . S
C159 C160 1.399 . S
C159 H172 0.931 . S
C160 C159 1.399 . S
C160 C161 1.390 . S
C161 C156 1.392 . S
C161 C160 1.390 . S
C161 H173 0.929 . S
O162 Tb146 2.326 . S
O162 C150 1.242 . S
O163 Eu147 2.324 . S
O163 C150 1.258 . S
O164 Tb146 2.500 . S
O164 C166 1.273 . S
O165 Tb146 2.473 . S
O165 C166 1.257 . S
C166 O164 1.273 . S
C166 O165 1.257 . S
O167 Eu147 2.326 . S
O167 C155 1.242 . S
O168 Tb146 2.324 . S
O168 C155 1.258 . S
O169 Eu147 2.500 . S
O169 C152 1.273 . S
O170 Eu147 2.473 . S
O170 C152 1.257 . S
H171 C157 0.929 . S
H172 C159 0.931 . S
H173 C161 0.929 . S
O174 Tb175 2.292 . S
O174 C177 1.255 . S
Tb175 O174 2.292 . S
Tb175 O191 2.326 . S
Tb175 O193 2.500 . S
Tb175 O194 2.473 . S
Tb175 O197 2.324 . S
Eu176 O180 2.292 . S
Eu176 C181 2.852 . S
Eu176 O192 2.324 . S
Eu176 O196 2.326 . S
Eu176 O198 2.500 . S
Eu176 O199 2.473 . S
C177 O174 1.255 . S
C177 O178 1.247 . S
O178 C177 1.247 . S
C179 O191 1.242 . S
C179 O192 1.258 . S
O180 Eu176 2.292 . S
O180 C182 1.255 . S
C181 Eu176 2.852 . S
C181 C185 1.503 . S
C181 O198 1.273 . S
C181 O199 1.257 . S
C182 O180 1.255 . S
C182 O183 1.247 . S
O183 C182 1.247 . S
C184 O196 1.242 . S
C184 O197 1.258 . S
C185 C181 1.503 . S
C185 C186 1.379 . S
C185 C190 1.392 . S
C186 C185 1.379 . S
C186 C187 1.404 . S
C186 H200 0.929 . S
C187 C186 1.404 . S
C187 C188 1.389 . S
C188 C187 1.389 . S
C188 C189 1.399 . S
C188 H201 0.931 . S
C189 C188 1.399 . S
C189 C190 1.390 . S
C190 C185 1.392 . S
C190 C189 1.390 . S
C190 H202 0.929 . S
O191 Tb175 2.326 . S
O191 C179 1.242 . S
O192 Eu176 2.324 . S
O192 C179 1.258 . S
O193 Tb175 2.500 . S
O193 C195 1.273 . S
O194 Tb175 2.473 . S
O194 C195 1.257 . S
C195 O193 1.273 . S
C195 O194 1.257 . S
O196 Eu176 2.326 . S
O196 C184 1.242 . S
O197 Tb175 2.324 . S
O197 C184 1.258 . S
O198 Eu176 2.500 . S
O198 C181 1.273 . S
O199 Eu176 2.473 . S
O199 C181 1.257 . S
H200 C186 0.929 . S
H201 C188 0.931 . S
H202 C190 0.929 . S
O203 Tb204 2.292 . S
O203 C206 1.255 . S
Tb204 O203 2.292 . S
Tb204 O220 2.326 . S
Tb204 O222 2.500 . S
Tb204 O223 2.473 . S
Tb204 O226 2.324 . S
Eu205 O209 2.292 . S
Eu205 C210 2.852 . S
Eu205 O221 2.324 . S
Eu205 O225 2.326 . S
Eu205 O227 2.500 . S
Eu205 O228 2.473 . S
C206 O203 1.255 . S
C206 O207 1.247 . S
O207 C206 1.247 . S
C208 O220 1.242 . S
C208 O221 1.258 . S
O209 Eu205 2.292 . S
O209 C211 1.255 . S
C210 Eu205 2.852 . S
C210 C214 1.503 . S
C210 O227 1.273 . S
C210 O228 1.257 . S
C211 O209 1.255 . S
C211 O212 1.247 . S
O212 C211 1.247 . S
C213 O225 1.242 . S
C213 O226 1.258 . S
C214 C210 1.503 . S
C214 C215 1.379 . S
C214 C219 1.392 . S
C215 C214 1.379 . S
C215 C216 1.404 . S
C215 H229 0.929 . S
C216 C215 1.404 . S
C216 C217 1.389 . S
C217 C216 1.389 . S
C217 C218 1.399 . S
C217 H230 0.931 . S
C218 C217 1.399 . S
C218 C219 1.390 . S
C219 C214 1.392 . S
C219 C218 1.390 . S
C219 H231 0.929 . S
O220 Tb204 2.326 . S
O220 C208 1.242 . S
O221 Eu205 2.324 . S
O221 C208 1.258 . S
O222 Tb204 2.500 . S
O222 C224 1.273 . S
O223 Tb204 2.473 . S
O223 C224 1.257 . S
C224 O222 1.273 . S
C224 O223 1.257 . S
O225 Eu205 2.326 . S
O225 C213 1.242 . S
O226 Tb204 2.324 . S
O226 C213 1.258 . S
O227 Eu205 2.500 . S
O227 C210 1.273 . S
O228 Eu205 2.473 . S
O228 C210 1.257 . S
H229 C215 0.929 . S
H230 C217 0.931 . S
H231 C219 0.929 . S
C232 C233 1.349 . S
C232 C234 1.327 . S
C232 H257 0.950 . S
C233 C232 1.349 . S
C233 C249 1.349 . S
C234 C232 1.327 . S
C234 C253 1.429 1_545 S
C234 H258 0.950 1_545 S
C235 C252 1.574 . S
C235 C254 1.368 . S
C235 H259 0.949 . S
H236 C240 0.949 . S
C237 C238 1.349 . S
C237 C239 1.327 . S
C237 H260 0.950 . S
C238 C237 1.349 . S
C238 C250 1.349 . S
C239 C237 1.327 . S
C239 C255 1.429 . S
C239 H261 0.950 . S
C240 H236 0.949 . S
C240 C248 1.574 . S
C240 C256 1.368 . S
H241 C249 0.950 . S
H242 C247 0.950 . S
H243 C248 0.949 . S
H244 C250 0.950 . S
H245 C251 0.950 . S
H246 C252 0.949 . S
C247 H242 0.950 . S
C247 C249 1.327 . S
C247 C253 1.429 1_545 S
C248 C240 1.574 . S
C248 H243 0.949 . S
C248 C254 1.368 . S
C249 C233 1.349 . S
C249 H241 0.950 . S
C249 C247 1.327 . S
C250 C238 1.349 . S
C250 H244 0.950 . S
C250 C251 1.327 . S
C251 H245 0.950 . S
C251 C250 1.327 . S
C251 C255 1.429 . S
C252 C235 1.574 . S
C252 H246 0.949 . S
C252 C256 1.368 . S
C253 C234 1.429 1_565 S
C253 C247 1.429 1_565 S
C253 C254 1.523 . S
C254 C235 1.368 . S
C254 C248 1.368 . S
C254 C253 1.523 . S
C255 C239 1.429 . S
C255 C251 1.429 . S
C255 C256 1.523 . S
C256 C240 1.368 . S
C256 C252 1.368 . S
C256 C255 1.523 . S
H257 C232 0.950 . S
H258 C234 0.950 1_565 S
H259 C235 0.949 . S
H260 C237 0.950 . S
H261 C239 0.950 . S
C262 C263 1.349 . S
C262 C264 1.327 . S
C262 H287 0.950 . S
C263 C262 1.349 . S
C263 C279 1.349 . S
C264 C262 1.327 . S
C264 C283 1.429 . S
C264 H288 0.950 . S
C265 C282 1.574 . S
C265 C284 1.368 . S
C265 H289 0.949 . S
H266 C270 0.949 . S
C267 C268 1.349 . S
C267 C269 1.327 . S
C267 H290 0.950 . S
C268 C267 1.349 . S
C268 C280 1.349 . S
C269 C267 1.327 . S
C269 C285 1.429 . S
C269 H291 0.950 . S
C270 H266 0.949 . S
C270 C278 1.574 . S
C270 C286 1.368 . S
H271 C279 0.950 . S
H272 C277 0.928 1_655 S
H273 C278 0.949 . S
H274 C280 0.950 . S
H275 C281 0.950 . S
H276 C282 0.949 . S
C277 H272 0.928 1_455 S
C277 C279 1.327 . S
C277 C283 1.429 . S
C278 C270 1.574 . S
C278 H273 0.949 . S
C278 C284 1.368 . S
C279 C263 1.349 . S
C279 H271 0.950 . S
C279 C277 1.327 . S
C280 C268 1.349 . S
C280 H274 0.950 . S
C280 C281 1.327 . S
C281 H275 0.950 . S
C281 C280 1.327 . S
C281 C285 1.429 . S
C282 C265 1.574 . S
C282 H276 0.949 . S
C282 C286 1.368 . S
C283 C264 1.429 . S
C283 C277 1.429 . S
C283 C284 1.523 1_455 S
C284 C265 1.368 . S
C284 C278 1.368 . S
C284 C283 1.523 1_655 S
C285 C269 1.429 . S
C285 C281 1.429 . S
C285 C286 1.523 . S
C286 C270 1.368 . S
C286 C282 1.368 . S
C286 C285 1.523 . S
H287 C262 0.950 . S
H288 C264 0.950 . S
H289 C265 0.949 . S
H290 C267 0.950 . S
H291 C269 0.950 . S
C292 C293 1.349 . S
C292 C294 1.327 . S
C292 H317 0.950 . S
C293 C292 1.349 . S
C293 C309 1.349 . S
C294 C292 1.327 . S
C294 C313 1.429 . S
C294 H318 0.950 . S
C295 C312 1.574 . S
C295 C314 1.368 . S
C295 H319 0.949 . S
H296 C300 0.949 . S
C297 C298 1.349 . S
C297 C299 1.327 . S
C297 H320 0.950 . S
C298 C297 1.349 . S
C298 C310 1.349 . S
C299 C297 1.327 . S
C299 C315 1.429 1_565 S
C299 H321 0.950 . S
C300 H296 0.949 . S
C300 C308 1.574 . S
C300 C316 1.368 . S
H301 C309 0.950 . S
H302 C307 0.950 . S
H303 C308 0.949 . S
H304 C310 0.950 . S
H305 C311 0.922 1_545 S
H306 C312 0.949 . S
C307 H302 0.950 . S
C307 C309 1.327 . S
C307 C313 1.429 . S
C308 C300 1.574 . S
C308 H303 0.949 . S
C308 C314 1.368 . S
C309 C293 1.349 . S
C309 H301 0.950 . S
C309 C307 1.327 . S
C310 C298 1.349 . S
C310 H304 0.950 . S
C310 C311 1.363 . S
C311 H305 0.922 1_565 S
C311 C310 1.363 . S
C311 C315 1.421 1_565 S
C312 C295 1.574 . S
C312 H306 0.949 . S
C312 C316 1.368 . S
C313 C294 1.429 . S
C313 C307 1.429 . S
C313 C314 1.523 . S
C314 C295 1.368 . S
C314 C308 1.368 . S
C314 C313 1.523 . S
C315 C299 1.429 1_545 S
C315 C311 1.421 1_545 S
C315 C316 1.523 . S
C316 C300 1.368 . S
C316 C312 1.368 . S
C316 C315 1.523 . S
H317 C292 0.950 . S
H318 C294 0.950 . S
H319 C295 0.949 . S
H320 C297 0.950 . S
H321 C299 0.950 . S
C322 C323 1.349 . S
C322 C324 1.327 . S
C322 H347 0.950 . S
C323 C322 1.349 . S
C323 C339 1.349 . S
C324 C322 1.327 . S
C324 C343 1.429 . S
C324 H348 0.950 . S
C325 C342 1.574 . S
C325 C344 1.368 . S
C325 H349 0.949 . S
H326 C330 0.949 . S
C327 C328 1.349 . S
C327 C329 1.327 . S
C327 H350 0.950 . S
C328 C327 1.349 . S
C328 C340 1.349 . S
C329 C327 1.327 . S
C329 C345 1.429 . S
C329 H351 0.950 . S
C330 H326 0.949 . S
C330 C338 1.574 . S
C330 C346 1.368 . S
H331 C339 0.950 . S
H332 C337 0.950 . S
H333 C338 0.949 . S
H334 C340 0.950 . S
H335 C341 0.950 . S
H336 C342 0.949 . S
C337 H332 0.950 . S
C337 C339 1.327 . S
C337 C343 1.429 . S
C338 C330 1.574 . S
C338 H333 0.949 . S
C338 C344 1.368 . S
C339 C323 1.349 . S
C339 H331 0.950 . S
C339 C337 1.327 . S
C340 C328 1.349 . S
C340 H334 0.950 . S
C340 C341 1.327 . S
C341 H335 0.950 . S
C341 C340 1.327 . S
C341 C345 1.429 . S
C342 C325 1.574 . S
C342 H336 0.949 . S
C342 C346 1.368 . S
C343 C324 1.429 . S
C343 C337 1.429 . S
C343 C344 1.523 1_655 S
C344 C325 1.368 . S
C344 C338 1.368 . S
C344 C343 1.523 1_455 S
C345 C329 1.429 . S
C345 C341 1.429 . S
C345 C346 1.523 . S
C346 C330 1.368 . S
C346 C342 1.368 . S
C346 C345 1.523 . S
H347 C322 0.950 . S
H348 C324 0.950 . S
H349 C325 0.949 . S
H350 C327 0.950 . S
H351 C329 0.950 . S
C352 C353 1.349 . S
C352 C354 1.327 . S
C352 H377 0.950 . S
C353 C352 1.349 . S
C353 C369 1.349 . S
C354 C352 1.327 . S
C354 C373 1.429 1_565 S
C354 H378 0.950 . S
C355 C372 1.574 . S
C355 C374 1.368 . S
C355 H379 0.949 . S
H356 C360 0.949 . S
C357 C358 1.349 . S
C357 C359 1.327 . S
C357 H380 0.950 . S
C358 C357 1.349 . S
C358 C370 1.349 . S
C359 C357 1.327 . S
C359 C375 1.429 . S
C359 H381 0.950 . S
C360 H356 0.949 . S
C360 C368 1.574 . S
C360 C376 1.368 . S
H361 C369 0.950 . S
H362 C367 0.950 1_545 S
H363 C368 0.949 . S
H364 C370 0.950 . S
H365 C371 0.950 . S
H366 C372 0.949 . S
C367 H362 0.950 1_565 S
C367 C369 1.327 . S
C367 C373 1.429 1_565 S
C368 C360 1.574 . S
C368 H363 0.949 . S
C368 C374 1.368 . S
C369 C353 1.349 . S
C369 H361 0.950 . S
C369 C367 1.327 . S
C370 C358 1.349 . S
C370 H364 0.950 . S
C370 C371 1.327 . S
C371 H365 0.950 . S
C371 C370 1.327 . S
C371 C375 1.429 . S
C372 C355 1.574 . S
C372 H366 0.949 . S
C372 C376 1.368 . S
C373 C354 1.429 1_545 S
C373 C367 1.429 1_545 S
C373 C374 1.523 . S
C374 C355 1.368 . S
C374 C368 1.368 . S
C374 C373 1.523 . S
C375 C359 1.429 . S
C375 C371 1.429 . S
C375 C376 1.523 . S
C376 C360 1.368 . S
C376 C372 1.368 . S
C376 C375 1.523 . S
H377 C352 0.950 . S
H378 C354 0.950 . S
H379 C355 0.949 . S
H380 C357 0.950 . S
H381 C359 0.950 . S
C382 C383 1.349 . S
C382 C384 1.327 . S
C382 H407 0.950 . S
C383 C382 1.349 . S
C383 C399 1.349 . S
C384 C382 1.327 . S
C384 C403 1.429 . S
C384 H408 0.950 . S
C385 C402 1.574 . S
C385 C404 1.368 . S
C385 H409 0.949 . S
H386 C390 0.949 . S
C387 C388 1.349 . S
C387 C389 1.327 . S
C387 H410 0.950 . S
C388 C387 1.349 . S
C388 C400 1.349 . S
C389 C387 1.327 . S
C389 C405 1.429 . S
C389 H411 0.950 . S
C390 H386 0.949 . S
C390 C398 1.574 . S
C390 C406 1.368 . S
H391 C399 0.950 . S
H392 C397 0.950 . S
H393 C398 0.949 . S
H394 C400 0.950 . S
H395 C401 0.950 . S
H396 C402 0.949 . S
C397 H392 0.950 . S
C397 C399 1.327 . S
C397 C403 1.429 . S
C398 C390 1.574 . S
C398 H393 0.949 . S
C398 C404 1.368 . S
C399 C383 1.349 . S
C399 H391 0.950 . S
C399 C397 1.327 . S
C400 C388 1.349 . S
C400 H394 0.950 . S
C400 C401 1.327 . S
C401 H395 0.950 . S
C401 C400 1.327 . S
C401 C405 1.429 . S
C402 C385 1.574 . S
C402 H396 0.949 . S
C402 C406 1.368 . S
C403 C384 1.429 . S
C403 C397 1.429 . S
C403 C404 1.523 . S
C404 C385 1.368 . S
C404 C398 1.368 . S
C404 C403 1.523 . S
C405 C389 1.429 . S
C405 C401 1.429 . S
C405 C406 1.523 1_655 S
C406 C390 1.368 . S
C406 C402 1.368 . S
C406 C405 1.523 1_455 S
H407 C382 0.950 . S
H408 C384 0.950 . S
H409 C385 0.949 . S
H410 C387 0.950 . S
H411 C389 0.950 . S
C412 C413 1.349 . S
C412 C414 1.327 . S
C412 H437 0.950 . S
C413 C412 1.349 . S
C413 C429 1.349 . S
C414 C412 1.327 . S
C414 C433 1.429 1_545 S
C414 H438 0.950 1_545 S
C415 C432 1.574 . S
C415 C434 1.368 . S
C415 H439 0.949 . S
H416 C420 0.949 . S
C417 C418 1.349 . S
C417 C419 1.327 . S
C417 H440 0.950 . S
C418 C417 1.349 . S
C418 C430 1.349 . S
C419 C417 1.327 . S
C419 C435 1.429 . S
C419 H441 0.950 . S
C420 H416 0.949 . S
C420 C428 1.574 . S
C420 C436 1.368 . S
H421 C429 0.950 . S
H422 C427 0.950 . S
H423 C428 0.949 . S
H424 C430 0.950 . S
H425 C431 0.950 . S
H426 C432 0.949 . S
C427 H422 0.950 . S
C427 C429 1.327 . S
C427 C433 1.429 1_545 S
C428 C420 1.574 . S
C428 H423 0.949 . S
C428 C434 1.368 . S
C429 C413 1.349 . S
C429 H421 0.950 . S
C429 C427 1.327 . S
C430 C418 1.349 . S
C430 H424 0.950 . S
C430 C431 1.327 . S
C431 H425 0.950 . S
C431 C430 1.327 . S
C431 C435 1.429 . S
C432 C415 1.574 . S
C432 H426 0.949 . S
C432 C436 1.368 . S
C433 C414 1.429 1_565 S
C433 C427 1.429 1_565 S
C433 C434 1.523 . S
C434 C415 1.368 . S
C434 C428 1.368 . S
C434 C433 1.523 . S
C435 C419 1.429 . S
C435 C431 1.429 . S
C435 C436 1.523 . S
C436 C420 1.368 . S
C436 C432 1.368 . S
C436 C435 1.523 . S
H437 C412 0.950 . S
H438 C414 0.950 1_565 S
H439 C415 0.949 . S
H440 C417 0.950 . S
H441 C419 0.950 . S
C442 C443 1.349 . S
C442 C444 1.327 . S
C442 H467 0.950 . S
C443 C442 1.349 . S
C443 C459 1.349 . S
C444 C442 1.327 . S
C444 C463 1.429 . S
C444 H468 0.950 . S
C445 C462 1.574 . S
C445 C464 1.368 . S
C445 H469 0.949 . S
H446 C450 0.949 . S
C447 C448 1.349 . S
C447 C449 1.327 . S
C447 H470 0.950 . S
C448 C447 1.349 . S
C448 C460 1.349 . S
C449 C447 1.327 . S
C449 C465 1.429 . S
C449 H471 0.950 . S
C450 H446 0.949 . S
C450 C458 1.574 . S
C450 C466 1.368 . S
H451 C459 0.950 . S
H452 C457 0.950 . S
H453 C458 0.949 . S
H454 C460 0.950 . S
H455 C461 0.953 . S
H456 C462 0.949 . S
C457 H452 0.950 . S
C457 C459 1.327 . S
C457 C463 1.429 . S
C458 C450 1.574 . S
C458 H453 0.949 . S
C458 C464 1.368 . S
C459 C443 1.349 . S
C459 H451 0.950 . S
C459 C457 1.327 . S
C460 C448 1.349 . S
C460 H454 0.950 . S
C460 C461 1.327 . S
C461 H455 0.953 . S
C461 C460 1.327 . S
C461 C465 1.429 . S
C462 C445 1.574 . S
C462 H456 0.949 . S
C462 C466 1.368 . S
C463 C444 1.429 . S
C463 C457 1.429 . S
C463 C464 1.523 . S
C464 C445 1.368 . S
C464 C458 1.368 . S
C464 C463 1.523 . S
C465 C449 1.429 . S
C465 C461 1.429 . S
C465 C466 1.523 1_455 S
C466 C450 1.368 . S
C466 C462 1.368 . S
C466 C465 1.523 1_655 S
H467 C442 0.950 . S
H468 C444 0.950 . S
H469 C445 0.949 . S
H470 C447 0.950 . S
H471 C449 0.950 . S
C472 C473 1.349 . S
C472 C474 1.327 . S
C472 H497 0.950 . S
C473 C472 1.349 . S
C473 C489 1.349 . S
C474 C472 1.327 . S
C474 C493 1.429 . S
C474 H498 0.950 . S
C475 C492 1.574 . S
C475 C494 1.368 . S
C475 H499 0.949 . S
H476 C480 0.949 . S
C477 C478 1.349 . S
C477 C479 1.327 . S
C477 H500 0.950 . S
C478 C477 1.349 . S
C478 C490 1.349 . S
C479 C477 1.327 . S
C479 C495 1.429 . S
C479 H501 0.950 . S
C480 H476 0.949 . S
C480 C488 1.574 . S
C480 C496 1.368 . S
H481 C489 0.950 . S
H482 C487 0.950 . S
H483 C488 0.949 . S
H484 C490 0.950 . S
H485 C491 0.950 . S
H486 C492 0.949 . S
C487 H482 0.950 . S
C487 C489 1.327 . S
C487 C493 1.429 . S
C488 C480 1.574 . S
C488 H483 0.949 . S
C488 C494 1.368 . S
C489 C473 1.349 . S
C489 H481 0.950 . S
C489 C487 1.327 . S
C490 C478 1.349 . S
C490 H484 0.950 . S
C490 C491 1.327 . S
C491 H485 0.950 . S
C491 C490 1.327 . S
C491 C495 1.429 . S
C492 C475 1.574 . S
C492 H486 0.949 . S
C492 C496 1.368 . S
C493 C474 1.429 . S
C493 C487 1.429 . S
C493 C494 1.523 . S
C494 C475 1.368 . S
C494 C488 1.368 . S
C494 C493 1.523 . S
C495 C479 1.429 . S
C495 C491 1.429 . S
C495 C496 1.523 . S
C496 C480 1.368 . S
C496 C492 1.368 . S
C496 C495 1.523 . S
H497 C472 0.950 . S
H498 C474 0.950 . S
H499 C475 0.949 . S
H500 C477 0.950 . S
H501 C479 0.950 . S
C502 C503 1.349 . S
C502 C504 1.327 . S
C502 H527 0.950 . S
C503 C502 1.349 . S
C503 C519 1.349 . S
C504 C502 1.327 . S
C504 C523 1.429 . S
C504 H528 0.950 . S
C505 C522 1.574 . S
C505 C524 1.368 . S
C505 H529 0.949 . S
H506 C510 0.949 . S
C507 C508 1.349 . S
C507 C509 1.327 . S
C507 H530 0.950 . S
C508 C507 1.349 . S
C508 C520 1.349 . S
C509 C507 1.327 . S
C509 C525 1.429 . S
C509 H531 0.950 . S
C510 H506 0.949 . S
C510 C518 1.574 . S
C510 C526 1.368 . S
H511 C519 0.950 . S
H512 C517 0.950 . S
H513 C518 0.949 . S
H514 C520 0.950 . S
H515 C521 0.950 . S
H516 C522 0.949 . S
C517 H512 0.950 . S
C517 C519 1.327 . S
C517 C523 1.429 . S
C518 C510 1.574 . S
C518 H513 0.949 . S
C518 C524 1.368 . S
C519 C503 1.349 . S
C519 H511 0.950 . S
C519 C517 1.327 . S
C520 C508 1.349 . S
C520 H514 0.950 . S
C520 C521 1.327 . S
C521 H515 0.950 . S
C521 C520 1.327 . S
C521 C525 1.429 . S
C522 C505 1.574 . S
C522 H516 0.949 . S
C522 C526 1.368 . S
C523 C504 1.429 . S
C523 C517 1.429 . S
C523 C524 1.523 . S
C524 C505 1.368 . S
C524 C518 1.368 . S
C524 C523 1.523 . S
C525 C509 1.429 . S
C525 C521 1.429 . S
C525 C526 1.523 . S
C526 C510 1.368 . S
C526 C522 1.368 . S
C526 C525 1.523 . S
H527 C502 0.950 . S
H528 C504 0.950 . S
H529 C505 0.949 . S
H530 C507 0.950 . S
H531 C509 0.950 . S
C532 C533 1.349 . S
C532 C534 1.327 . S
C532 H557 0.950 . S
C533 C532 1.349 . S
C533 C549 1.349 . S
C534 C532 1.327 . S
C534 C553 1.429 . S
C534 H558 0.950 . S
C535 C552 1.574 . S
C535 C554 1.368 . S
C535 H559 0.949 . S
H536 C540 0.949 . S
C537 C538 1.349 . S
C537 C539 1.327 . S
C537 H560 0.950 . S
C538 C537 1.349 . S
C538 C550 1.349 . S
C539 C537 1.327 . S
C539 C555 1.429 . S
C539 H561 0.950 . S
C540 H536 0.949 . S
C540 C548 1.574 . S
C540 C556 1.368 . S
H541 C549 0.950 . S
H542 C547 0.950 . S
H543 C548 0.949 . S
H544 C550 0.950 . S
H545 C551 0.950 . S
H546 C552 0.949 . S
C547 H542 0.950 . S
C547 C549 1.327 . S
C547 C553 1.429 . S
C548 C540 1.574 . S
C548 H543 0.949 . S
C548 C554 1.368 . S
C549 C533 1.349 . S
C549 H541 0.950 . S
C549 C547 1.327 . S
C550 C538 1.349 . S
C550 H544 0.950 . S
C550 C551 1.327 . S
C551 H545 0.950 . S
C551 C550 1.327 . S
C551 C555 1.429 . S
C552 C535 1.574 . S
C552 H546 0.949 . S
C552 C556 1.368 . S
C553 C534 1.429 . S
C553 C547 1.429 . S
C553 C554 1.523 . S
C554 C535 1.368 . S
C554 C548 1.368 . S
C554 C553 1.523 . S
C555 C539 1.429 . S
C555 C551 1.429 . S
C555 C556 1.523 . S
C556 C540 1.368 . S
C556 C552 1.368 . S
C556 C555 1.523 . S
H557 C532 0.950 . S
H558 C534 0.950 . S
H559 C535 0.949 . S
H560 C537 0.950 . S
H561 C539 0.950 . S
C562 C563 1.349 . S
C562 C564 1.327 . S
C562 H587 0.950 . S
C563 C562 1.349 . S
C563 C579 1.349 . S
C564 C562 1.327 . S
C564 C583 1.429 . S
C564 H588 0.950 . S
C565 C582 1.574 . S
C565 C584 1.368 . S
C565 H589 0.949 . S
H566 C570 0.949 . S
C567 C568 1.349 . S
C567 C569 1.327 . S
C567 H590 0.950 . S
C568 C567 1.349 . S
C568 C580 1.349 . S
C569 C567 1.327 . S
C569 C585 1.429 . S
C569 H591 0.950 . S
C570 H566 0.949 . S
C570 C578 1.574 . S
C570 C586 1.368 . S
H571 C579 0.950 . S
H572 C577 0.950 . S
H573 C578 0.949 . S
H574 C580 0.950 . S
H575 C581 0.950 . S
H576 C582 0.949 . S
C577 H572 0.950 . S
C577 C579 1.327 . S
C577 C583 1.429 . S
C578 C570 1.574 . S
C578 H573 0.949 . S
C578 C584 1.368 . S
C579 C563 1.349 . S
C579 H571 0.950 . S
C579 C577 1.327 . S
C580 C568 1.349 . S
C580 H574 0.950 . S
C580 C581 1.327 . S
C581 H575 0.950 . S
C581 C580 1.327 . S
C581 C585 1.429 . S
C582 C565 1.574 . S
C582 H576 0.949 . S
C582 C586 1.368 . S
C583 C564 1.429 . S
C583 C577 1.429 . S
C583 C584 1.523 . S
C584 C565 1.368 . S
C584 C578 1.368 . S
C584 C583 1.523 . S
C585 C569 1.429 . S
C585 C581 1.429 . S
C585 C586 1.523 . S
C586 C570 1.368 . S
C586 C582 1.368 . S
C586 C585 1.523 . S
H587 C562 0.950 . S
H588 C564 0.950 . S
H589 C565 0.949 . S
H590 C567 0.950 . S
H591 C569 0.950 . S
C592 C593 1.349 . S
C592 C594 1.327 . S
C592 H617 0.950 . S
C593 C592 1.349 . S
C593 C609 1.349 . S
C594 C592 1.327 . S
C594 C613 1.429 . S
C594 H618 0.950 . S
C595 C612 1.574 . S
C595 C614 1.368 . S
C595 H619 0.949 . S
H596 C600 0.949 . S
C597 C598 1.349 . S
C597 C599 1.327 . S
C597 H620 0.950 . S
C598 C597 1.349 . S
C598 C610 1.349 . S
C599 C597 1.327 . S
C599 C615 1.429 . S
C599 H621 0.950 . S
C600 H596 0.949 . S
C600 C608 1.574 . S
C600 C616 1.368 . S
H601 C609 0.950 . S
H602 C607 0.950 . S
H603 C608 0.949 . S
H604 C610 0.950 . S
H605 C611 0.950 . S
H606 C612 0.949 . S
C607 H602 0.950 . S
C607 C609 1.327 . S
C607 C613 1.429 . S
C608 C600 1.574 . S
C608 H603 0.949 . S
C608 C614 1.368 . S
C609 C593 1.349 . S
C609 H601 0.950 . S
C609 C607 1.327 . S
C610 C598 1.349 . S
C610 H604 0.950 . S
C610 C611 1.327 . S
C611 H605 0.950 . S
C611 C610 1.327 . S
C611 C615 1.429 . S
C612 C595 1.574 . S
C612 H606 0.949 . S
C612 C616 1.368 . S
C613 C594 1.429 . S
C613 C607 1.429 . S
C613 C614 1.523 . S
C614 C595 1.368 . S
C614 C608 1.368 . S
C614 C613 1.523 . S
C615 C599 1.429 . S
C615 C611 1.429 . S
C615 C616 1.523 . S
C616 C600 1.368 . S
C616 C612 1.368 . S
C616 C615 1.523 . S
H617 C592 0.950 . S
H618 C594 0.950 . S
H619 C595 0.949 . S
H620 C597 0.950 . S
H621 C599 0.950 . S
C622 C623 1.349 . S
C622 C624 1.327 . S
C622 H647 0.950 . S
C623 C622 1.349 . S
C623 C639 1.349 . S
C624 C622 1.327 . S
C624 C643 1.429 . S
C624 H648 0.950 . S
C625 C642 1.574 . S
C625 C644 1.368 . S
C625 H649 0.949 . S
H626 C630 0.949 . S
C627 C628 1.349 . S
C627 C629 1.327 . S
C627 H650 0.950 . S
C628 C627 1.349 . S
C628 C640 1.349 . S
C629 C627 1.327 . S
C629 C645 1.429 . S
C629 H651 0.950 . S
C630 H626 0.949 . S
C630 C638 1.574 . S
C630 C646 1.368 . S
H631 C639 0.950 . S
H632 C637 0.950 . S
H633 C638 0.949 . S
H634 C640 0.950 . S
H635 C641 0.950 . S
H636 C642 0.949 . S
C637 H632 0.950 . S
C637 C639 1.327 . S
C637 C643 1.429 . S
C638 C630 1.574 . S
C638 H633 0.949 . S
C638 C644 1.368 . S
C639 C623 1.349 . S
C639 H631 0.950 . S
C639 C637 1.327 . S
C640 C628 1.349 . S
C640 H634 0.950 . S
C640 C641 1.327 . S
C641 H635 0.950 . S
C641 C640 1.327 . S
C641 C645 1.429 . S
C642 C625 1.574 . S
C642 H636 0.949 . S
C642 C646 1.368 . S
C643 C624 1.429 . S
C643 C637 1.429 . S
C643 C644 1.523 . S
C644 C625 1.368 . S
C644 C638 1.368 . S
C644 C643 1.523 . S
C645 C629 1.429 . S
C645 C641 1.429 . S
C645 C646 1.523 . S
C646 C630 1.368 . S
C646 C642 1.368 . S
C646 C645 1.523 . S
H647 C622 0.950 . S
H648 C624 0.950 . S
H649 C625 0.949 . S
H650 C627 0.950 . S
H651 C629 0.950 . S
C652 C653 1.349 . S
C652 C654 1.327 . S
C652 H677 0.950 . S
C653 C652 1.349 . S
C653 C669 1.349 . S
C654 C652 1.327 . S
C654 C673 1.429 . S
C654 H678 0.950 . S
C655 C672 1.574 . S
C655 C674 1.368 . S
C655 H679 0.949 . S
H656 C660 0.949 . S
C657 C658 1.349 . S
C657 C659 1.327 . S
C657 H680 0.950 . S
C658 C657 1.349 . S
C658 C670 1.349 . S
C659 C657 1.327 . S
C659 C675 1.429 . S
C659 H681 0.950 . S
C660 H656 0.949 . S
C660 C668 1.574 . S
C660 C676 1.368 . S
H661 C669 0.950 . S
H662 C667 0.950 . S
H663 C668 0.949 . S
H664 C670 0.950 . S
H665 C671 0.950 . S
H666 C672 0.949 . S
C667 H662 0.950 . S
C667 C669 1.327 . S
C667 C673 1.429 . S
C668 C660 1.574 . S
C668 H663 0.949 . S
C668 C674 1.368 . S
C669 C653 1.349 . S
C669 H661 0.950 . S
C669 C667 1.327 . S
C670 C658 1.349 . S
C670 H664 0.950 . S
C670 C671 1.327 . S
C671 H665 0.950 . S
C671 C670 1.327 . S
C671 C675 1.429 . S
C672 C655 1.574 . S
C672 H666 0.949 . S
C672 C676 1.368 . S
C673 C654 1.429 . S
C673 C667 1.429 . S
C673 C674 1.523 . S
C674 C655 1.368 . S
C674 C668 1.368 . S
C674 C673 1.523 . S
C675 C659 1.429 . S
C675 C671 1.429 . S
C675 C676 1.523 . S
C676 C660 1.368 . S
C676 C672 1.368 . S
C676 C675 1.523 . S
H677 C652 0.950 . S
H678 C654 0.950 . S
H679 C655 0.949 . S
H680 C657 0.950 . S
H681 C659 0.950 . S
C682 C683 1.349 . S
C682 C684 1.327 . S
C682 H707 0.950 . S
C683 C682 1.349 . S
C683 C699 1.349 . S
C684 C682 1.327 . S
C684 C703 1.429 . S
C684 H708 0.950 . S
C685 C702 1.574 . S
C685 C704 1.368 . S
C685 H709 0.949 . S
H686 C690 0.949 . S
C687 C688 1.349 . S
C687 C689 1.327 . S
C687 H710 0.950 . S
C688 C687 1.349 . S
C688 C700 1.349 . S
C689 C687 1.327 . S
C689 C705 1.429 . S
C689 H711 0.950 . S
C690 H686 0.949 . S
C690 C698 1.574 . S
C690 C706 1.368 . S
H691 C699 0.950 . S
H692 C697 0.950 . S
H693 C698 0.949 . S
H694 C700 0.950 . S
H695 C701 0.950 . S
H696 C702 0.949 . S
C697 H692 0.950 . S
C697 C699 1.327 . S
C697 C703 1.429 . S
C698 C690 1.574 . S
C698 H693 0.949 . S
C698 C704 1.368 . S
C699 C683 1.349 . S
C699 H691 0.950 . S
C699 C697 1.327 . S
C700 C688 1.349 . S
C700 H694 0.950 . S
C700 C701 1.327 . S
C701 H695 0.950 . S
C701 C700 1.327 . S
C701 C705 1.429 . S
C702 C685 1.574 . S
C702 H696 0.949 . S
C702 C706 1.368 . S
C703 C684 1.429 . S
C703 C697 1.429 . S
C703 C704 1.523 . S
C704 C685 1.368 . S
C704 C698 1.368 . S
C704 C703 1.523 . S
C705 C689 1.429 . S
C705 C701 1.429 . S
C705 C706 1.523 . S
C706 C690 1.368 . S
C706 C702 1.368 . S
C706 C705 1.523 . S
H707 C682 0.950 . S
H708 C684 0.950 . S
H709 C685 0.949 . S
H710 C687 0.950 . S
H711 C689 0.950 . S
C712 C713 1.349 . S
C712 C714 1.327 . S
C712 H737 0.950 . S
C713 C712 1.349 . S
C713 C729 1.349 . S
C714 C712 1.327 . S
C714 C733 1.429 . S
C714 H738 0.950 . S
C715 C732 1.570 1_445 S
C715 C734 1.372 . S
C715 H739 0.949 . S
H716 C720 0.949 . S
C717 C718 1.349 . S
C717 C719 1.327 . S
C717 H740 0.950 . S
C718 C717 1.349 . S
C718 C730 1.349 . S
C719 C717 1.327 . S
C719 C735 1.429 . S
C719 H741 0.950 . S
C720 H716 0.949 . S
C720 C728 1.570 1_665 S
C720 C736 1.372 . S
H721 C729 0.950 . S
H722 C727 0.950 . S
H723 C728 0.949 . S
H724 C730 0.950 . S
H725 C731 0.950 . S
H726 C732 0.949 . S
C727 H722 0.950 . S
C727 C729 1.327 . S
C727 C733 1.429 . S
C728 C720 1.570 1_445 S
C728 H723 0.949 . S
C728 C734 1.368 . S
C729 C713 1.349 . S
C729 H721 0.950 . S
C729 C727 1.327 . S
C730 C718 1.349 . S
C730 H724 0.950 . S
C730 C731 1.327 . S
C731 H725 0.950 . S
C731 C730 1.327 . S
C731 C735 1.429 . S
C732 C715 1.570 1_665 S
C732 H726 0.949 . S
C732 C736 1.368 . S
C733 C714 1.429 . S
C733 C727 1.429 . S
C733 C734 1.523 . S
C734 C715 1.372 . S
C734 C728 1.368 . S
C734 C733 1.523 . S
C735 C719 1.429 . S
C735 C731 1.429 . S
C735 C736 1.523 . S
C736 C720 1.372 . S
C736 C732 1.368 . S
C736 C735 1.523 . S
H737 C712 0.950 . S
H738 C714 0.950 . S
H739 C715 0.949 . S
H740 C717 0.950 . S
H741 C719 0.950 . S
C742 C743 1.349 . S
C742 C744 1.327 . S
C742 H767 0.950 . S
C743 C742 1.349 . S
C743 C759 1.349 . S
C744 C742 1.327 . S
C744 C763 1.429 . S
C744 H768 0.950 . S
C745 C762 1.574 . S
C745 C764 1.368 1_565 S
C745 H769 0.949 . S
H746 C750 0.949 . S
C747 C748 1.349 . S
C747 C749 1.327 . S
C747 H770 0.950 . S
C748 C747 1.349 . S
C748 C760 1.349 . S
C749 C747 1.327 . S
C749 C765 1.429 . S
C749 H771 0.950 . S
C750 H746 0.949 . S
C750 C758 1.574 . S
C750 C766 1.368 1_545 S
H751 C759 0.950 . S
H752 C757 0.950 . S
H753 C758 0.949 . S
H754 C760 0.950 . S
H755 C761 0.950 . S
H756 C762 0.949 . S
C757 H752 0.950 . S
C757 C759 1.327 . S
C757 C763 1.429 . S
C758 C750 1.574 . S
C758 H753 0.949 . S
C758 C764 1.368 1_455 S
C759 C743 1.349 . S
C759 H751 0.950 . S
C759 C757 1.327 . S
C760 C748 1.349 . S
C760 H754 0.950 . S
C760 C761 1.327 . S
C761 H755 0.950 . S
C761 C760 1.327 . S
C761 C765 1.429 . S
C762 C745 1.574 . S
C762 H756 0.949 . S
C762 C766 1.368 1_655 S
C763 C744 1.429 . S
C763 C757 1.429 . S
C763 C764 1.523 . S
C764 C745 1.368 1_545 S
C764 C758 1.368 1_655 S
C764 C763 1.523 . S
C765 C749 1.429 . S
C765 C761 1.429 . S
C765 C766 1.523 . S
C766 C750 1.368 1_565 S
C766 C762 1.368 1_455 S
C766 C765 1.523 . S
H767 C742 0.950 . S
H768 C744 0.950 . S
H769 C745 0.949 . S
H770 C747 0.950 . S
H771 C749 0.950 . S
C772 C773 1.349 . S
C772 C774 1.327 . S
C772 H797 0.950 . S
C773 C772 1.349 . S
C773 C789 1.349 . S
C774 C772 1.327 . S
C774 C793 1.429 . S
C774 H798 0.950 . S
C775 C792 1.574 . S
C775 C794 1.368 . S
C775 H799 0.949 . S
H776 C780 0.949 . S
C777 C778 1.349 . S
C777 C779 1.327 . S
C777 H800 0.950 . S
C778 C777 1.349 . S
C778 C790 1.349 . S
C779 C777 1.327 . S
C779 C795 1.429 . S
C779 H801 0.950 . S
C780 H776 0.949 . S
C780 C788 1.574 . S
C780 C796 1.368 . S
H781 C789 0.950 . S
H782 C787 0.950 . S
H783 C788 0.949 . S
H784 C790 0.950 . S
H785 C791 0.950 . S
H786 C792 0.949 . S
C787 H782 0.950 . S
C787 C789 1.327 . S
C787 C793 1.429 . S
C788 C780 1.574 . S
C788 H783 0.949 . S
C788 C794 1.368 . S
C789 C773 1.349 . S
C789 H781 0.950 . S
C789 C787 1.327 . S
C790 C778 1.349 . S
C790 H784 0.950 . S
C790 C791 1.327 . S
C791 H785 0.950 . S
C791 C790 1.327 . S
C791 C795 1.429 . S
C792 C775 1.574 . S
C792 H786 0.949 . S
C792 C796 1.368 . S
C793 C774 1.429 . S
C793 C787 1.429 . S
C793 C794 1.523 . S
C794 C775 1.368 . S
C794 C788 1.368 . S
C794 C793 1.523 . S
C795 C779 1.429 . S
C795 C791 1.429 . S
C795 C796 1.523 . S
C796 C780 1.368 . S
C796 C792 1.368 . S
C796 C795 1.523 . S
H797 C772 0.950 . S
H798 C774 0.950 . S
H799 C775 0.949 . S
H800 C777 0.950 . S
H801 C779 0.950 . S
C802 C803 1.349 . S
C802 C804 1.327 . S
C802 H827 0.950 . S
C803 C802 1.349 . S
C803 C819 1.349 . S
C804 C802 1.327 . S
C804 C823 1.429 . S
C804 H828 0.950 . S
C805 C822 1.574 . S
C805 C824 1.368 . S
C805 H829 0.949 . S
H806 C810 0.949 . S
C807 C808 1.349 . S
C807 C809 1.327 . S
C807 H830 0.950 . S
C808 C807 1.349 . S
C808 C820 1.349 . S
C809 C807 1.327 . S
C809 C825 1.429 . S
C809 H831 0.950 . S
C810 H806 0.949 . S
C810 C818 1.574 . S
C810 C826 1.368 . S
H811 C819 0.950 . S
H812 C817 0.950 . S
H813 C818 0.949 . S
H814 C820 0.950 . S
H815 C821 0.950 . S
H816 C822 0.949 . S
C817 H812 0.950 . S
C817 C819 1.327 . S
C817 C823 1.429 . S
C818 C810 1.574 . S
C818 H813 0.949 . S
C818 C824 1.368 . S
C819 C803 1.349 . S
C819 H811 0.950 . S
C819 C817 1.327 . S
C820 C808 1.349 . S
C820 H814 0.950 . S
C820 C821 1.327 . S
C821 H815 0.950 . S
C821 C820 1.327 . S
C821 C825 1.429 . S
C822 C805 1.574 . S
C822 H816 0.949 . S
C822 C826 1.368 . S
C823 C804 1.429 . S
C823 C817 1.429 . S
C823 C824 1.523 . S
C824 C805 1.368 . S
C824 C818 1.368 . S
C824 C823 1.523 . S
C825 C809 1.429 . S
C825 C821 1.429 . S
C825 C826 1.523 . S
C826 C810 1.368 . S
C826 C822 1.368 . S
C826 C825 1.523 . S
H827 C802 0.950 . S
H828 C804 0.950 . S
H829 C805 0.949 . S
H830 C807 0.950 . S
H831 C809 0.950 . S
C832 C833 1.349 . S
C832 C834 1.327 . S
C832 H857 0.950 . S
C833 C832 1.349 . S
C833 C849 1.349 . S
C834 C832 1.327 . S
C834 C853 1.429 . S
C834 H858 0.950 . S
C835 C852 1.574 1_545 S
C835 C854 1.368 1_556 S
C835 H859 0.949 . S
H836 C840 0.949 . S
C837 C838 1.349 . S
C837 C839 1.327 . S
C837 H860 0.950 . S
C838 C837 1.349 . S
C838 C850 1.349 . S
C839 C837 1.327 . S
C839 C855 1.429 . S
C839 H861 0.950 . S
C840 H836 0.949 . S
C840 C848 1.574 1_565 S
C840 C856 1.368 1_554 S
H841 C849 0.950 . S
H842 C847 0.950 . S
H843 C848 0.949 . S
H844 C850 0.950 . S
H845 C851 0.950 . S
H846 C852 0.949 . S
C847 H842 0.950 . S
C847 C849 1.327 . S
C847 C853 1.429 . S
C848 C840 1.574 1_545 S
C848 H843 0.949 . S
C848 C854 1.368 . S
C849 C833 1.349 . S
C849 H841 0.950 . S
C849 C847 1.327 . S
C850 C838 1.349 . S
C850 H844 0.950 . S
C850 C851 1.327 . S
C851 H845 0.950 . S
C851 C850 1.327 . S
C851 C855 1.429 . S
C852 C835 1.574 1_565 S
C852 H846 0.949 . S
C852 C856 1.368 . S
C853 C834 1.429 . S
C853 C847 1.429 . S
C853 C854 1.523 . S
C854 C835 1.368 1_554 S
C854 C848 1.368 . S
C854 C853 1.523 . S
C855 C839 1.429 . S
C855 C851 1.429 . S
C855 C856 1.523 . S
C856 C840 1.368 1_556 S
C856 C852 1.368 . S
C856 C855 1.523 . S
H857 C832 0.950 . S
H858 C834 0.950 . S
H859 C835 0.949 . S
H860 C837 0.950 . S
H861 C839 0.950 . S
C862 C863 1.349 . S
C862 C864 1.327 . S
C862 H887 0.950 . S
C863 C862 1.349 . S
C863 C879 1.349 . S
C864 C862 1.327 . S
C864 C883 1.429 . S
C864 H888 0.950 . S
C865 C882 1.563 1_456 S
C865 C884 1.368 . S
C865 H889 0.949 . S
H866 C870 0.949 . S
C867 C868 1.349 . S
C867 C869 1.327 . S
C867 H890 0.950 . S
C868 C867 1.349 . S
C868 C880 1.349 . S
C869 C867 1.327 . S
C869 C885 1.429 . S
C869 H891 0.950 . S
C870 H866 0.949 . S
C870 C878 1.563 1_654 S
C870 C886 1.368 . S
H871 C879 0.950 . S
H872 C877 0.950 . S
H873 C878 0.950 . S
H874 C880 0.950 . S
H875 C881 0.950 . S
H876 C882 0.950 . S
C877 H872 0.950 . S
C877 C879 1.327 . S
C877 C883 1.429 . S
C878 C870 1.563 1_456 S
C878 H873 0.950 . S
C878 C884 1.378 . S
C879 C863 1.349 . S
C879 H871 0.950 . S
C879 C877 1.327 . S
C880 C868 1.349 . S
C880 H874 0.950 . S
C880 C881 1.327 . S
C881 H875 0.950 . S
C881 C880 1.327 . S
C881 C885 1.429 . S
C882 C865 1.563 1_654 S
C882 H876 0.950 . S
C882 C886 1.378 . S
C883 C864 1.429 . S
C883 C877 1.429 . S
C883 C884 1.523 . S
C884 C865 1.368 . S
C884 C878 1.378 . S
C884 C883 1.523 . S
C885 C869 1.429 . S
C885 C881 1.429 . S
C885 C886 1.523 . S
C886 C870 1.368 . S
C886 C882 1.378 . S
C886 C885 1.523 . S
H887 C862 0.950 . S
H888 C864 0.950 . S
H889 C865 0.949 . S
H890 C867 0.950 . S
H891 C869 0.950 . S
C892 C893 1.349 . S
C892 C894 1.327 . S
C892 H917 0.950 . S
C893 C892 1.349 . S
C893 C909 1.349 . S
C894 C892 1.327 . S
C894 C913 1.429 . S
C894 H918 0.950 . S
C895 C912 1.574 1_546 S
C895 C914 1.368 . S
C895 H919 0.949 . S
H896 C900 0.949 . S
C897 C898 1.349 . S
C897 C899 1.327 . S
C897 H920 0.950 . S
C898 C897 1.349 . S
C898 C910 1.349 . S
C899 C897 1.327 . S
C899 C915 1.429 . S
C899 H921 0.950 . S
C900 H896 0.949 . S
C900 C908 1.574 1_564 S
C900 C916 1.368 . S
H901 C909 0.950 . S
H902 C907 0.950 . S
H903 C908 0.949 . S
H904 C910 0.950 . S
H905 C911 0.950 . S
H906 C912 0.949 . S
C907 H902 0.950 . S
C907 C909 1.327 . S
C907 C913 1.429 . S
C908 C900 1.574 1_546 S
C908 H903 0.949 . S
C908 C914 1.368 . S
C909 C893 1.349 . S
C909 H901 0.950 . S
C909 C907 1.327 . S
C910 C898 1.349 . S
C910 H904 0.950 . S
C910 C911 1.327 . S
C911 H905 0.950 . S
C911 C910 1.327 . S
C911 C915 1.429 . S
C912 C895 1.574 1_564 S
C912 H906 0.949 . S
C912 C916 1.368 . S
C913 C894 1.429 . S
C913 C907 1.429 . S
C913 C914 1.523 . S
C914 C895 1.368 . S
C914 C908 1.368 . S
C914 C913 1.523 . S
C915 C899 1.429 . S
C915 C911 1.429 . S
C915 C916 1.523 . S
C916 C900 1.368 . S
C916 C912 1.368 . S
C916 C915 1.523 . S
H917 C892 0.950 . S
H918 C894 0.950 . S
H919 C895 0.949 . S
H920 C897 0.950 . S
H921 C899 0.950 . S
C922 C923 1.349 . S
C922 C924 1.327 . S
C922 H947 0.950 . S
C923 C922 1.349 . S
C923 C939 1.349 . S
C924 C922 1.327 . S
C924 C943 1.429 . S
C924 H948 0.950 . S
C925 C942 1.563 1_454 S
C925 C944 1.378 . S
C925 H949 0.950 . S
H926 C930 0.950 . S
C927 C928 1.349 . S
C927 C929 1.327 . S
C927 H950 0.950 . S
C928 C927 1.349 . S
C928 C940 1.349 . S
C929 C927 1.327 . S
C929 C945 1.429 . S
C929 H951 0.950 . S
C930 H926 0.950 . S
C930 C938 1.563 1_656 S
C930 C946 1.378 . S
H931 C939 0.950 . S
H932 C937 0.950 . S
H933 C938 0.949 . S
H934 C940 0.950 . S
H935 C941 0.950 . S
H936 C942 0.949 . S
C937 H932 0.950 . S
C937 C939 1.327 . S
C937 C943 1.429 . S
C938 C930 1.563 1_454 S
C938 H933 0.949 . S
C938 C944 1.368 . S
C939 C923 1.349 . S
C939 H931 0.950 . S
C939 C937 1.327 . S
C940 C928 1.349 . S
C940 H934 0.950 . S
C940 C941 1.327 . S
C941 H935 0.950 . S
C941 C940 1.327 . S
C941 C945 1.429 . S
C942 C925 1.563 1_656 S
C942 H936 0.949 . S
C942 C946 1.368 . S
C943 C924 1.429 . S
C943 C937 1.429 . S
C943 C944 1.523 . S
C944 C925 1.378 . S
C944 C938 1.368 . S
C944 C943 1.523 . S
C945 C929 1.429 . S
C945 C941 1.429 . S
C945 C946 1.523 . S
C946 C930 1.378 . S
C946 C942 1.368 . S
C946 C945 1.523 . S
H947 C922 0.950 . S
H948 C924 0.950 . S
H949 C925 0.950 . S
H950 C927 0.950 . S
H951 C929 0.950 . S
C952 C953 1.349 . S
C952 C954 1.327 . S
C952 H977 0.950 . S
C953 C952 1.349 . S
C953 C969 1.349 . S
C954 C952 1.327 . S
C954 C973 1.429 . S
C954 H978 0.950 . S
C955 C972 1.574 . S
C955 C974 1.368 . S
C955 H979 0.949 . S
H956 C960 0.949 . S
C957 C958 1.349 . S
C957 C959 1.327 . S
C957 H980 0.950 . S
C958 C957 1.349 . S
C958 C970 1.349 . S
C959 C957 1.327 . S
C959 C975 1.429 . S
C959 H981 0.950 . S
C960 H956 0.949 . S
C960 C968 1.574 . S
C960 C976 1.368 . S
H961 C969 0.950 . S
H962 C967 0.950 . S
H963 C968 0.949 . S
H964 C970 0.950 . S
H965 C971 0.950 . S
H966 C972 0.949 . S
C967 H962 0.950 . S
C967 C969 1.327 . S
C967 C973 1.429 . S
C968 C960 1.574 . S
C968 H963 0.949 . S
C968 C974 1.368 . S
C969 C953 1.349 . S
C969 H961 0.950 . S
C969 C967 1.327 . S
C970 C958 1.349 . S
C970 H964 0.950 . S
C970 C971 1.327 . S
C971 H965 0.950 . S
C971 C970 1.327 . S
C971 C975 1.429 . S
C972 C955 1.574 . S
C972 H966 0.949 . S
C972 C976 1.368 . S
C973 C954 1.429 . S
C973 C967 1.429 . S
C973 C974 1.523 . S
C974 C955 1.368 . S
C974 C968 1.368 . S
C974 C973 1.523 . S
C975 C959 1.429 . S
C975 C971 1.429 . S
C975 C976 1.523 . S
C976 C960 1.368 . S
C976 C972 1.368 . S
C976 C975 1.523 . S
H977 C952 0.950 . S
H978 C954 0.950 . S
H979 C955 0.949 . S
H980 C957 0.950 . S
H981 C959 0.950 . S
C982 C983 1.349 . S
C982 C984 1.327 . S
C982 H1007 0.950 . S
C983 C982 1.349 . S
C983 C999 1.349 . S
C984 C982 1.327 . S
C984 C1003 1.429 . S
C984 H1008 0.950 . S
C985 C1002 1.574 . S
C985 C1004 1.368 . S
C985 H1009 0.949 . S
H986 C990 0.949 . S
C987 C988 1.349 . S
C987 C989 1.327 . S
C987 H1010 0.950 . S
C988 C987 1.349 . S
C988 C1000 1.349 . S
C989 C987 1.327 . S
C989 C1005 1.429 . S
C989 H1011 0.950 . S
C990 H986 0.949 . S
C990 C998 1.574 . S
C990 C1006 1.368 . S
H991 C999 0.950 . S
H992 C997 0.950 . S
H993 C998 0.949 . S
H994 C1000 0.950 . S
H995 C1001 0.950 . S
H996 C1002 0.949 . S
C997 H992 0.950 . S
C997 C999 1.327 . S
C997 C1003 1.429 . S
C998 C990 1.574 . S
C998 H993 0.949 . S
C998 C1004 1.368 . S
C999 C983 1.349 . S
C999 H991 0.950 . S
C999 C997 1.327 . S
C1000 C988 1.349 . S
C1000 H994 0.950 . S
C1000 C1001 1.327 . S
C1001 H995 0.950 . S
C1001 C1000 1.327 . S
C1001 C1005 1.429 . S
C1002 C985 1.574 . S
C1002 H996 0.949 . S
C1002 C1006 1.368 . S
C1003 C984 1.429 . S
C1003 C997 1.429 . S
C1003 C1004 1.523 . S
C1004 C985 1.368 . S
C1004 C998 1.368 . S
C1004 C1003 1.523 . S
C1005 C989 1.429 . S
C1005 C1001 1.429 . S
C1005 C1006 1.523 . S
C1006 C990 1.368 . S
C1006 C1002 1.368 . S
C1006 C1005 1.523 . S
H1007 C982 0.950 . S
H1008 C984 0.950 . S
H1009 C985 0.949 . S
H1010 C987 0.950 . S
H1011 C989 0.950 . S
C1012 C1013 1.349 . S
C1012 C1014 1.327 . S
C1012 H1037 0.950 . S
C1013 C1012 1.349 . S
C1013 C1029 1.349 . S
C1014 C1012 1.327 . S
C1014 C1033 1.429 . S
C1014 H1038 0.950 . S
C1015 C1032 1.574 . S
C1015 C1034 1.368 . S
C1015 H1039 0.949 . S
H1016 C1020 0.949 . S
C1017 C1018 1.349 . S
C1017 C1019 1.327 . S
C1017 H1040 0.950 . S
C1018 C1017 1.349 . S
C1018 C1030 1.349 . S
C1019 C1017 1.327 . S
C1019 C1035 1.429 . S
C1019 H1041 0.950 . S
C1020 H1016 0.949 . S
C1020 C1028 1.574 . S
C1020 C1036 1.368 . S
H1021 C1029 0.950 . S
H1022 C1027 0.950 . S
H1023 C1028 0.949 . S
H1024 C1030 0.950 . S
H1025 C1031 0.950 . S
H1026 C1032 0.949 . S
C1027 H1022 0.950 . S
C1027 C1029 1.327 . S
C1027 C1033 1.429 . S
C1028 C1020 1.574 . S
C1028 H1023 0.949 . S
C1028 C1034 1.368 . S
C1029 C1013 1.349 . S
C1029 H1021 0.950 . S
C1029 C1027 1.327 . S
C1030 C1018 1.349 . S
C1030 H1024 0.950 . S
C1030 C1031 1.327 . S
C1031 H1025 0.950 . S
C1031 C1030 1.327 . S
C1031 C1035 1.429 . S
C1032 C1015 1.574 . S
C1032 H1026 0.949 . S
C1032 C1036 1.368 . S
C1033 C1014 1.429 . S
C1033 C1027 1.429 . S
C1033 C1034 1.523 . S
C1034 C1015 1.368 . S
C1034 C1028 1.368 . S
C1034 C1033 1.523 . S
C1035 C1019 1.429 . S
C1035 C1031 1.429 . S
C1035 C1036 1.523 . S
C1036 C1020 1.368 . S
C1036 C1032 1.368 . S
C1036 C1035 1.523 . S
H1037 C1012 0.950 . S
H1038 C1014 0.950 . S
H1039 C1015 0.949 . S
H1040 C1017 0.950 . S
H1041 C1019 0.950 . S
C1042 C1043 1.349 . S
C1042 C1044 1.327 . S
C1042 H1067 0.950 . S
C1043 C1042 1.349 . S
C1043 C1059 1.349 . S
C1044 C1042 1.327 . S
C1044 C1063 1.429 . S
C1044 H1068 0.950 . S
C1045 C1062 1.574 . S
C1045 C1064 1.368 . S
C1045 H1069 0.949 . S
H1046 C1050 0.949 . S
C1047 C1048 1.349 . S
C1047 C1049 1.327 . S
C1047 H1070 0.950 . S
C1048 C1047 1.349 . S
C1048 C1060 1.349 . S
C1049 C1047 1.327 . S
C1049 C1065 1.429 . S
C1049 H1071 0.950 . S
C1050 H1046 0.949 . S
C1050 C1058 1.574 . S
C1050 C1066 1.368 . S
H1051 C1059 0.950 . S
H1052 C1057 0.950 . S
H1053 C1058 0.949 . S
H1054 C1060 0.950 . S
H1055 C1061 0.950 . S
H1056 C1062 0.949 . S
C1057 H1052 0.950 . S
C1057 C1059 1.327 . S
C1057 C1063 1.429 . S
C1058 C1050 1.574 . S
C1058 H1053 0.949 . S
C1058 C1064 1.368 . S
C1059 C1043 1.349 . S
C1059 H1051 0.950 . S
C1059 C1057 1.327 . S
C1060 C1048 1.349 . S
C1060 H1054 0.950 . S
C1060 C1061 1.327 . S
C1061 H1055 0.950 . S
C1061 C1060 1.327 . S
C1061 C1065 1.429 . S
C1062 C1045 1.574 . S
C1062 H1056 0.949 . S
C1062 C1066 1.368 . S
C1063 C1044 1.429 . S
C1063 C1057 1.429 . S
C1063 C1064 1.523 . S
C1064 C1045 1.368 . S
C1064 C1058 1.368 . S
C1064 C1063 1.523 . S
C1065 C1049 1.429 . S
C1065 C1061 1.429 . S
C1065 C1066 1.523 . S
C1066 C1050 1.368 . S
C1066 C1062 1.368 . S
C1066 C1065 1.523 . S
H1067 C1042 0.950 . S
H1068 C1044 0.950 . S
H1069 C1045 0.949 . S
H1070 C1047 0.950 . S
H1071 C1049 0.950 . S
C233 C3 1.884 . S
C238 C218 1.874 . S
C263 C39 2.084 . S
C268 C129 2.049 . S
C293 C160 1.874 . S
C298 C61 1.884 . S
C323 C97 2.084 . S
C328 C187 2.049 . S
C353 C32 1.884 . S
C358 C189 1.874 . S
C383 C216 2.049 . S
C388 C68 2.084 . S
C413 C90 1.884 . S
C418 C131 1.874 . S
C443 C158 2.049 . S
C448 C10 2.084 . S
C473 C119 1.884 . S
C478 C102 1.874 . S
C503 C13 2.049 . S
C508 C155 2.084 . S
C533 C44 1.874 . S
C538 C177 1.884 . S
C563 C213 2.084 . S
C568 C71 2.049 . S
C593 C148 1.884 . S
C598 C73 1.874 . S
C623 C184 2.084 . S
C628 C100 2.049 . S
C653 C206 1.884 . S
C658 C15 1.874 . S
C683 C42 2.049 . S
C688 C126 2.084 . S
C713 C21 0.444 . S
C718 C79 0.444 . S
C743 C108 0.444 . S
C748 C50 0.444 . S
C773 C137 0.444 . S
C778 C195 0.444 . S
C803 C166 0.444 . S
C808 C224 0.444 . S
C833 C5 1.327 . S
C838 C34 1.327 . S
C863 C37 1.436 . S
C868 C66 1.436 . S
C893 C92 1.327 . S
C898 C63 1.327 . S
C923 C8 1.436 . S
C928 C95 1.436 . S
C953 C150 1.327 . S
C958 C121 1.327 . S
C983 C182 1.436 . S
C988 C153 1.436 . S
C1013 C179 1.327 . S
C1018 C208 1.327 . S
C1043 C124 1.436 . S
C1048 C211 1.436 . S
