# Generated by pormake.
# Topology snk, (6)-cn, num edge types: 1
# Building blocks:
#     Node 0, Type 0, BuildingBlock: VOLQOD_clean_sbu_1, # of connection points: 6
#     Node 1, Type 0, BuildingBlock: VOLQOD_clean_sbu_1, # of connection points: 6
#     Node 2, Type 0, BuildingBlock: VOLQOD_clean_sbu_1, # of connection points: 6
#     Node 3, Type 0, BuildingBlock: VOLQOD_clean_sbu_1, # of connection points: 6
#     Node 4, Type 0, BuildingBlock: VOLQOD_clean_sbu_1, # of connection points: 6
#     Node 5, Type 0, BuildingBlock: VOLQOD_clean_sbu_1, # of connection points: 6
#     Node 6, Type 0, BuildingBlock: VOLQOD_clean_sbu_1, # of connection points: 6
#     Node 7, Type 0, BuildingBlock: VOLQOD_clean_sbu_1, # of connection points: 6
#     Edge 8, Type (0, 0), BuildingBlock: MIFKUJ_clean_linker_0, # of connection points: 2
#     Edge 9, Type (0, 0), BuildingBlock: MIFKUJ_clean_linker_0, # of connection points: 2
#     Edge 10, Type (0, 0), BuildingBlock: MIFKUJ_clean_linker_0, # of connection points: 2
#     Edge 11, Type (0, 0), BuildingBlock: MIFKUJ_clean_linker_0, # of connection points: 2
#     Edge 12, Type (0, 0), BuildingBlock: MIFKUJ_clean_linker_0, # of connection points: 2
#     Edge 13, Type (0, 0), BuildingBlock: MIFKUJ_clean_linker_0, # of connection points: 2
#     Edge 14, Type (0, 0), BuildingBlock: MIFKUJ_clean_linker_0, # of connection points: 2
#     Edge 15, Type (0, 0), BuildingBlock: MIFKUJ_clean_linker_0, # of connection points: 2
#     Edge 16, Type (0, 0), BuildingBlock: MIFKUJ_clean_linker_0, # of connection points: 2
#     Edge 17, Type (0, 0), BuildingBlock: MIFKUJ_clean_linker_0, # of connection points: 2
#     Edge 18, Type (0, 0), BuildingBlock: MIFKUJ_clean_linker_0, # of connection points: 2
#     Edge 19, Type (0, 0), BuildingBlock: MIFKUJ_clean_linker_0, # of connection points: 2
#     Edge 20, Type (0, 0), BuildingBlock: MIFKUJ_clean_linker_0, # of connection points: 2
#     Edge 21, Type (0, 0), BuildingBlock: MIFKUJ_clean_linker_0, # of connection points: 2
#     Edge 22, Type (0, 0), BuildingBlock: MIFKUJ_clean_linker_0, # of connection points: 2
#     Edge 23, Type (0, 0), BuildingBlock: MIFKUJ_clean_linker_0, # of connection points: 2
#     Edge 24, Type (0, 0), BuildingBlock: MIFKUJ_clean_linker_0, # of connection points: 2
#     Edge 25, Type (0, 0), BuildingBlock: MIFKUJ_clean_linker_0, # of connection points: 2
#     Edge 26, Type (0, 0), BuildingBlock: MIFKUJ_clean_linker_0, # of connection points: 2
#     Edge 27, Type (0, 0), BuildingBlock: MIFKUJ_clean_linker_0, # of connection points: 2
#     Edge 28, Type (0, 0), BuildingBlock: MIFKUJ_clean_linker_0, # of connection points: 2
#     Edge 29, Type (0, 0), BuildingBlock: MIFKUJ_clean_linker_0, # of connection points: 2
#     Edge 30, Type (0, 0), BuildingBlock: MIFKUJ_clean_linker_0, # of connection points: 2
#     Edge 31, Type (0, 0), BuildingBlock: MIFKUJ_clean_linker_0, # of connection points: 2
# Relax obj value: 0.177
# Max RMSD: 0.167
# Mean RMSD: 0.167
data_MOF--net-snk--node1-VOLQOD_clean_sbu_1--edge1-MIFKUJ_clean_linker_0
_symmetry_space_group_name_H-M    P1
_symmetry_Int_Tables_number       1
_symmetry_cell_setting            triclinic
loop_
_symmetry_equiv_pos_as_xyz
'x, y, z'
_cell_length_a     58.781061
_cell_length_b     58.872733
_cell_length_c     19.916166
_cell_angle_alpha  90.133047
_cell_angle_beta   90.083418
_cell_angle_gamma 89.721401
loop_
_atom_site_label
_atom_site_type_symbol
_atom_site_fract_x
_atom_site_fract_y
_atom_site_fract_z
_atom_type_partial_charge
O0 O 0.02706 0.00098 0.52393 0.0
Zn1 Zn -0.00135 0.0136 0.48145 0.0
O2 O 0.99624 0.0461 0.49741 0.0
Zn3 Zn 0.96682 0.05201 0.53559 0.0
Zn4 Zn 0.01979 0.05586 0.55887 0.0
Zn5 Zn -0.00096 0.06323 0.41617 0.0
O6 O 0.95185 0.07928 0.49556 0.0
O7 O 0.97191 0.08386 0.40224 0.0
O8 O 0.9708 0.99692 0.51315 0.0
O9 O 0.94634 0.0255 0.5249 0.0
O10 O 0.9697 0.05475 0.63437 0.0
O11 O 0.00688 0.0581 0.65149 0.0
O12 O 0.03484 0.08493 0.52912 0.0
O13 O 0.00111 0.00751 0.383 0.0
O14 O 0.02548 0.08425 0.4211 0.0
O15 O 0.00321 0.04214 0.3386 0.0
C16 C 0.04399 0.01055 0.55207 0.0
C17 C 0.95529 0.08935 0.44006 0.0
C18 C 0.98665 0.05649 0.67365 0.0
C19 C 0.95069 0.00433 0.52318 0.0
C20 C 0.03677 0.09264 0.46966 0.0
C21 C 0.00341 0.02059 0.3328 0.0
O22 O 0.04396 0.03177 0.56475 0.0
O23 O 0.33411 0.8587 0.75755 0.0
Zn24 Zn 0.31624 0.83031 0.73747 0.0
O25 O 0.28387 0.83419 0.75419 0.0
Zn26 Zn 0.27336 0.81238 0.81919 0.0
Zn27 Zn 0.27948 0.86459 0.78794 0.0
Zn28 Zn 0.26598 0.82972 0.67459 0.0
O29 O 0.24383 0.79742 0.79257 0.0
O30 O 0.24535 0.80289 0.68241 0.0
O31 O 0.3285 0.80371 0.78932 0.0
O32 O 0.2972 0.78816 0.83156 0.0
O33 O 0.27063 0.82734 0.90847 0.0
O34 O 0.27742 0.86377 0.88794 0.0
O35 O 0.25206 0.87917 0.74693 0.0
O36 O 0.32145 0.82435 0.63979 0.0
O37 O 0.24503 0.85651 0.65988 0.0
O38 O 0.28649 0.82473 0.59642 0.0
C39 C 0.32739 0.87921 0.76334 0.0
C40 C 0.23653 0.79349 0.73349 0.0
C41 C 0.27372 0.84761 0.92871 0.0
C42 C 0.31858 0.7878 0.82097 0.0
C43 C 0.24075 0.87431 0.69431 0.0
C44 C 0.30796 0.82269 0.59009 0.0
O45 O 0.30637 0.88406 0.76904 0.0
O46 O 0.47547 0.16111 0.00018 0.0
Zn47 Zn 0.50506 0.14506 0.97652 0.0
O48 O 0.50292 0.11242 -0.00798 0.0
Zn49 Zn 0.52358 0.10239 0.0609 0.0
Zn50 Zn 0.47204 0.10564 0.01879 0.0
Zn51 Zn 0.51154 0.09542 0.91343 0.0
O52 O 0.54151 0.07437 0.03583 0.0
O53 O 0.54061 0.07782 0.92509 0.0
O54 O 0.5318 0.15799 0.02877 0.0
O55 O 0.54566 0.1272 0.07937 0.0
O56 O 0.50697 0.09753 0.14622 0.0
O57 O 0.47052 0.10136 0.11907 0.0
O58 O 0.46053 0.07814 0.96925 0.0
O59 O 0.5093 0.15094 0.87736 0.0
O60 O 0.48775 0.07198 0.89367 0.0
O61 O 0.51444 0.1162 0.83538 0.0
C62 C 0.45522 0.15342 0.00206 0.0
C63 C 0.54862 0.06863 0.97787 0.0
C64 C 0.48609 0.09833 0.16266 0.0
C65 C 0.54668 0.1483 0.06592 0.0
C66 C 0.46875 0.06686 0.92013 0.0
C67 C 0.51301 0.13763 0.82802 0.0
O68 O 0.45139 0.13214 0.00168 0.0
O69 O 0.17074 0.29935 0.27216 0.0
Zn70 Zn 0.18585 0.32636 0.23016 0.0
O71 O 0.21821 0.32575 0.24778 0.0
Zn72 Zn 0.22562 0.34732 0.3171 0.0
Zn73 Zn 0.22648 0.29515 0.2741 0.0
Zn74 Zn 0.23453 0.33455 0.16866 0.0
O75 O 0.25278 0.36613 0.2923 0.0
O76 O 0.25108 0.36385 0.18107 0.0
O77 O 0.17194 0.35531 0.26578 0.0
O78 O 0.19943 0.36908 0.33067 0.0
O79 O 0.23195 0.33087 0.40232 0.0
O80 O 0.23534 0.29466 0.37169 0.0
O81 O 0.25186 0.2826 0.21669 0.0
O82 O 0.18031 0.32446 0.13052 0.0
O83 O 0.25834 0.31107 0.14624 0.0
O84 O 0.21352 0.3363 0.09043 0.0
C85 C 0.17837 0.27919 0.27887 0.0
C86 C 0.25904 0.37272 0.23442 0.0
C87 C 0.23585 0.31013 0.41646 0.0
C88 C 0.17944 0.37039 0.30606 0.0
C89 C 0.26297 0.29129 0.16829 0.0
C90 C 0.19292 0.33042 0.08182 0.0
O91 O 0.1994 0.27459 0.27096 0.0
O92 O 0.82837 0.35937 0.27085 0.0
Zn93 Zn 0.81294 0.33135 0.23457 0.0
O94 O 0.78037 0.33182 0.25084 0.0
Zn95 Zn 0.7725 0.30916 0.31663 0.0
Zn96 Zn 0.77281 0.36198 0.28237 0.0
Zn97 Zn 0.76347 0.32505 0.17052 0.0
O98 O 0.74489 0.29108 0.28993 0.0
O99 O 0.74444 0.29711 0.18006 0.0
O100 O 0.8271 0.30317 0.27332 0.0
O101 O 0.79842 0.28712 0.32777 0.0
O102 O 0.76757 0.32432 0.40477 0.0
O103 O 0.76711 0.36122 0.38126 0.0
O104 O 0.74608 0.37494 0.2332 0.0
O105 O 0.81872 0.33089 0.13559 0.0
O106 O 0.74093 0.34997 0.15078 0.0
O107 O 0.78477 0.32209 0.09318 0.0
C108 C 0.82034 0.37941 0.27672 0.0
C109 C 0.73702 0.28681 0.23165 0.0
C110 C 0.76601 0.34499 0.42319 0.0
C111 C 0.81907 0.28704 0.30842 0.0
C112 C 0.73561 0.36837 0.18069 0.0
C113 C 0.80596 0.32585 0.08619 0.0
O114 O 0.79905 0.38324 0.27309 0.0
O115 O 0.66607 0.80009 0.76085 0.0
Zn116 Zn 0.68319 0.82811 0.73406 0.0
O117 O 0.71607 0.82441 0.74668 0.0
Zn118 Zn 0.72705 0.8496 0.80054 0.0
Zn119 Zn 0.72198 0.7956 0.79 0.0
Zn120 Zn 0.73239 0.82435 0.66286 0.0
O121 O 0.75476 0.86441 0.76171 0.0
O122 O 0.75711 0.84744 0.66243 0.0
O123 O 0.67098 0.85539 0.78459 0.0
O124 O 0.70285 0.87353 0.81121 0.0
O125 O 0.7341 0.83836 0.89264 0.0
O126 O 0.73066 0.80086 0.88526 0.0
O127 O 0.74613 0.77735 0.74319 0.0
O128 O 0.67629 0.83328 0.63672 0.0
O129 O 0.74883 0.79482 0.64504 0.0
O130 O 0.71071 0.83172 0.58972 0.0
C131 C 0.67286 0.78074 0.78129 0.0
C132 C 0.76439 0.86175 0.70509 0.0
C133 C 0.73468 0.81872 0.91925 0.0
C134 C 0.68125 0.87276 0.80755 0.0
C135 C 0.75415 0.77852 0.68398 0.0
C136 C 0.6893 0.83479 0.58604 0.0
O137 O 0.69382 0.77674 0.79238 0.0
O138 O 0.52256 0.49997 0.02428 0.0
Zn139 Zn 0.49321 0.51583 -2e-05 0.0
O140 O 0.49479 0.54844 0.01682 0.0
Zn141 Zn 0.47307 0.55773 0.08404 0.0
Zn142 Zn 0.52518 0.55555 0.04738 0.0
Zn143 Zn 0.48746 0.5654 0.93709 0.0
O144 O 0.4549 0.58534 0.05774 0.0
O145 O 0.45915 0.58404 0.94722 0.0
O146 O 0.46671 0.50228 0.04972 0.0
O147 O 0.45129 0.53243 0.09991 0.0
O148 O 0.48872 0.56323 0.17091 0.0
O149 O 0.52551 0.56088 0.14689 0.0
O150 O 0.53753 0.58243 -0.00155 0.0
O151 O 0.48913 0.50982 0.90133 0.0
O152 O 0.51215 0.58788 0.91713 0.0
O153 O 0.48385 0.54448 0.85949 0.0
C154 C 0.54256 0.50788 0.03104 0.0
C155 C 0.44957 0.59218 -0.00077 0.0
C156 C 0.50947 0.56351 0.18902 0.0
C157 C 0.45117 0.51135 0.08561 0.0
C158 C 0.53064 0.59311 0.94666 0.0
C159 C 0.48518 0.52304 0.85222 0.0
O160 O 0.54611 0.52916 0.03423 0.0
O161 O 0.97137 0.656 0.52912 0.0
Zn162 Zn 0.00157 0.64471 0.49452 0.0
O163 O 0.00423 0.61186 0.50565 0.0
Zn164 Zn 0.03369 0.60556 0.54473 0.0
Zn165 Zn 0.97997 0.60091 0.56287 0.0
Zn166 Zn 0.00225 0.59618 0.42097 0.0
O167 O 0.05044 0.58073 0.49652 0.0
O168 O 0.0293 0.57556 0.40554 0.0
O169 O 0.02737 0.66122 0.54044 0.0
O170 O 0.05303 0.63345 0.547 0.0
O171 O 0.0298 0.59706 0.64078 0.0
O172 O 0.99242 0.59416 0.65413 0.0
O173 O 0.96436 0.5734 0.52351 0.0
O174 O 0.00302 0.65277 0.39644 0.0
O175 O 0.97526 0.57576 0.41713 0.0
O176 O 0.00026 0.61878 0.3475 0.0
C177 C 0.95496 0.64617 0.55884 0.0
C178 C 0.04677 0.5708 0.44077 0.0
C179 C 0.01256 0.59348 0.67775 0.0
C180 C 0.04761 0.65435 0.55172 0.0
C181 C 0.96302 0.56688 0.46258 0.0
C182 C 0.00129 0.64032 0.34444 0.0
O183 O 0.956 0.62519 0.57417 0.0
H184 H 0.04908 0.10893 0.34741 0.0
H185 H 0.07268 0.14165 0.32301 0.0
H186 H 0.08178 0.15375 0.53512 0.0
H187 H 0.05836 0.1205 0.5603 0.0
H188 H 0.06645 0.18497 0.35023 0.0
H189 H 0.13474 0.17811 0.55691 0.0
H190 H 0.1532 0.14898 0.6277 0.0
H191 H 0.1404 0.09837 0.47686 0.0
H192 H 0.12215 0.12725 0.4049 0.0
H193 H 0.13614 0.28351 0.33501 0.0
H194 H 0.11161 0.25308 0.37564 0.0
H195 H 0.161 0.20324 0.31049 0.0
H196 H 0.18586 0.23353 0.27163 0.0
H197 H 0.14602 0.19261 0.43012 0.0
H198 H 0.11179 0.21506 0.21965 0.0
H199 H 0.09462 0.24197 0.13925 0.0
H200 H 0.04147 0.25733 0.28017 0.0
H201 H 0.0585 0.2307 0.36174 0.0
C202 C 0.05612 0.11845 0.3891 0.0
C203 C 0.05183 0.1121 0.45589 0.0
C204 C 0.06954 0.13723 0.37497 0.0
C205 C 0.07896 0.15013 0.42718 0.0
C206 C 0.07482 0.14387 0.49406 0.0
C207 C 0.06145 0.1249 0.50835 0.0
C208 C 0.09307 0.17008 0.41057 0.0
C209 C 0.08381 0.18672 0.36805 0.0
C210 C 0.11574 0.17226 0.43343 0.0
C211 C 0.12683 0.15478 0.47598 0.0
C212 C 0.13592 0.16077 0.53885 0.0
C213 C 0.14634 0.14431 0.57916 0.0
C214 C 0.14789 0.12182 0.5569 0.0
C215 C 0.1391 0.11577 0.49417 0.0
C216 C 0.12869 0.13217 0.45365 0.0
C217 C 0.14169 0.26605 0.32893 0.0
C218 C 0.16287 0.26089 0.29981 0.0
C219 C 0.12767 0.2487 0.35223 0.0
C220 C 0.13442 0.22589 0.34568 0.0
C221 C 0.15551 0.22073 0.31638 0.0
C222 C 0.16964 0.23805 0.29384 0.0
C223 C 0.11954 0.20727 0.36872 0.0
C224 C 0.12858 0.19099 0.41289 0.0
C225 C 0.09683 0.20511 0.34606 0.0
C226 C 0.08656 0.22109 0.29703 0.0
C227 C 0.09654 0.22431 0.23366 0.0
C228 C 0.08681 0.23948 0.18786 0.0
C229 C 0.067 0.2514 0.20467 0.0
C230 C 0.05684 0.24812 0.26726 0.0
C231 C 0.06651 0.23298 0.31328 0.0
H232 H 0.0595 0.26314 0.16914 0.0
H233 H 0.15595 0.10911 0.5882 0.0
H234 H 0.05003 0.96475 0.53597 0.0
H235 H 0.08395 0.94237 0.56196 0.0
H236 H 0.11773 0.00266 0.63356 0.0
H237 H 0.08398 0.02529 0.60711 0.0
H238 H 0.14496 0.9783 0.55238 0.0
H239 H 0.09916 0.96432 0.74413 0.0
H240 H 0.0648 0.95392 0.80765 0.0
H241 H 0.06653 0.88712 0.72074 0.0
H242 H 0.10077 0.89722 0.656 0.0
H243 H 0.23408 0.91879 0.72768 0.0
H244 H 0.20097 0.94256 0.70127 0.0
H245 H 0.17067 0.88686 0.59294 0.0
H246 H 0.20389 0.86305 0.61801 0.0
H247 H 0.14226 0.90945 0.69543 0.0
H248 H 0.18949 0.92556 0.50301 0.0
H249 H 0.22493 0.93728 0.44712 0.0
H250 H 0.22144 0.0021 0.54592 0.0
H251 H 0.18613 0.99063 0.6032 0.0
C252 C 0.06462 0.97328 0.55745 0.0
C253 C 0.06427 0.99682 0.56947 0.0
C254 C 0.08396 0.96043 0.57252 0.0
C255 C 0.10325 0.97085 0.60017 0.0
C256 C 0.10299 0.99432 0.61225 0.0
C257 C 0.08365 0.00719 0.59727 0.0
C258 C 0.12387 0.95727 0.61496 0.0
C259 C 0.14443 0.96342 0.58439 0.0
C260 C 0.12308 0.93775 0.65617 0.0
C261 C 0.1024 0.93161 0.69464 0.0
C262 C 0.09209 0.94748 0.73805 0.0
C263 C 0.07266 0.94163 0.7744 0.0
C264 C 0.06345 0.9199 0.76807 0.0
C265 C 0.07367 0.90396 0.7255 0.0
C266 C 0.09311 0.90973 0.68902 0.0
C267 C 0.22044 0.91166 0.69778 0.0
C268 C 0.22154 0.88908 0.67485 0.0
C269 C 0.20162 0.92525 0.68272 0.0
C270 C 0.1835 0.91637 0.64529 0.0
C271 C 0.18457 0.89392 0.62192 0.0
C272 C 0.20357 0.88043 0.63596 0.0
C273 C 0.16313 0.93037 0.63222 0.0
C274 C 0.14268 0.92432 0.66337 0.0
C275 C 0.16412 0.95019 0.59253 0.0
C276 C 0.1853 0.95714 0.55795 0.0
C277 C 0.19639 0.94223 0.51333 0.0
C278 C 0.21643 0.94885 0.48128 0.0
C279 C 0.22547 0.9704 0.49311 0.0
C280 C 0.21444 0.9854 0.53688 0.0
C281 C 0.1944 0.97886 0.56911 0.0
H282 H 0.24098 0.97549 0.46824 0.0
H283 H 0.04841 0.91539 0.79628 0.0
H284 H 0.31909 0.92418 0.78559 0.0
H285 H 0.3466 0.95469 0.79492 0.0
H286 H 0.4012 0.90738 0.75427 0.0
H287 H 0.37365 0.87641 0.74626 0.0
H288 H 0.41127 0.93285 0.85829 0.0
H289 H 0.38579 0.94764 0.63765 0.0
H290 H 0.35847 0.95323 0.5451 0.0
H291 H 0.33091 0.01191 0.64491 0.0
H292 H 0.35785 0.0065 0.73862 0.0
H293 H 0.48609 0.02999 0.8541 0.0
H294 H 0.46526 0.99673 0.81324 0.0
H295 H 0.40244 0.02609 0.88502 0.0
H296 H 0.42315 0.05916 0.92719 0.0
H297 H 0.40151 0.00788 0.74873 0.0
H298 H 0.42661 0.98937 0.97453 0.0
H299 H 0.45482 0.98239 0.06382 0.0
H300 H 0.48451 0.92848 0.94717 0.0
H301 H 0.4571 0.93579 0.85596 0.0
C302 C 0.33691 0.9202 0.77801 0.0
C303 C 0.34417 0.89782 0.7653 0.0
C304 C 0.35263 0.93775 0.78287 0.0
C305 C 0.37592 0.93339 0.77423 0.0
C306 C 0.38327 0.91112 0.76076 0.0
C307 C 0.36751 0.89346 0.75622 0.0
C308 C 0.39252 0.95194 0.78423 0.0
C309 C 0.4095 0.94909 0.83309 0.0
C310 C 0.39005 0.97317 0.75174 0.0
C311 C 0.37378 0.97656 0.69544 0.0
C312 C 0.3738 0.96164 0.64015 0.0
C313 C 0.35839 0.9648 0.58742 0.0
C314 C 0.34294 0.98289 0.58917 0.0
C315 C 0.34289 -0.0021 0.64363 0.0
C316 C 0.35826 0.99482 0.69653 0.0
C317 C 0.46782 0.02939 0.86084 0.0
C318 C 0.4562 0.04712 0.89387 0.0
C319 C 0.456 0.0104 0.83762 0.0
C320 C 0.43238 0.00907 0.84622 0.0
C321 C 0.42069 0.02693 0.87789 0.0
C322 C 0.43253 0.0457 0.90222 0.0
C323 C 0.41972 0.98885 0.82382 0.0
C324 C 0.40352 0.99146 0.77268 0.0
C325 C 0.42315 0.96731 0.85346 0.0
C326 C 0.44005 0.96343 0.90776 0.0
C327 C 0.43945 0.97635 0.96725 0.0
C328 C 0.45529 0.97231 0.01831 0.0
C329 C 0.47158 0.95512 0.01099 0.0
C330 C 0.47202 0.94192 0.95262 0.0
C331 C 0.45641 0.94608 0.90109 0.0
H332 H 0.48377 0.95195 0.05068 0.0
H333 H 0.33103 0.98531 0.54829 0.0
H334 H 0.45548 0.20004 -0.00426 0.0
H335 H 0.42308 0.2259 0.00954 0.0
H336 H 0.37848 0.1686 0.03532 0.0
H337 H 0.4105 0.14273 0.02007 0.0
H338 H 0.35824 0.19968 0.96048 0.0
H339 H 0.39929 0.19899 0.17029 0.0
H340 H 0.43291 0.20341 0.2433 0.0
H341 H 0.43846 0.27333 0.18489 0.0
H342 H 0.40502 0.26923 0.11081 0.0
H343 H 0.26993 0.24539 0.16887 0.0
H344 H 0.30277 0.22452 0.12421 0.0
H345 H 0.33241 0.28738 0.05756 0.0
H346 H 0.29937 0.30836 0.10049 0.0
H347 H 0.36103 0.25715 0.14293 0.0
H348 H 0.3168 0.25789 0.94094 0.0
H349 H 0.2825 0.25256 0.87137 0.0
H350 H 0.28183 0.18162 0.92083 0.0
H351 H 0.31605 0.18656 0.99119 0.0
C352 C 0.43876 0.19295 0.00394 0.0
C353 C 0.43565 0.1693 0.00726 0.0
C354 C 0.42026 0.20775 0.01197 0.0
C355 C 0.39838 0.19919 0.0243 0.0
C356 C 0.39517 0.17561 0.02578 0.0
C357 C 0.41357 0.16083 0.01732 0.0
C358 C 0.3789 0.21462 0.03832 0.0
C359 C 0.35884 0.21216 0.0006 0.0
C360 C 0.37978 0.23123 0.08983 0.0
C361 C 0.39984 0.23373 0.13442 0.0
C362 C 0.4078 0.21526 0.17262 0.0
C363 C 0.4268 0.21771 0.21426 0.0
C364 C 0.43786 0.23862 0.21856 0.0
C365 C 0.42991 0.25713 0.18139 0.0
C366 C 0.41093 0.25476 0.1396 0.0
C367 C 0.28336 0.25474 0.14427 0.0
C368 C 0.28215 0.2785 0.13846 0.0
C369 C 0.30202 0.24281 0.11857 0.0
C370 C 0.31992 0.25448 0.08769 0.0
C371 C 0.3187 0.27814 0.08119 0.0
C372 C 0.29981 0.29005 0.1056 0.0
C373 C 0.34044 0.24194 0.06569 0.0
C374 C 0.36062 0.2449 0.10215 0.0
C375 C 0.33958 0.22566 0.01359 0.0
C376 C 0.3189 0.22263 0.97178 0.0
C377 C 0.30923 0.24119 0.93747 0.0
C378 C 0.28986 0.23822 0.89767 0.0
C379 C 0.27999 0.21677 0.89172 0.0
C380 C 0.2895 0.19823 0.92548 0.0
C381 C 0.30892 0.20109 0.96519 0.0
H382 H 0.26499 0.21451 0.8609 0.0
H383 H 0.45257 0.24049 0.25084 0.0
H384 H 0.91009 0.01398 0.58208 0.0
H385 H 0.88014 0.98747 0.61257 0.0
H386 H 0.91904 0.93206 0.52843 0.0
H387 H 0.94951 0.95853 0.49825 0.0
H388 H 0.86955 0.93556 0.49208 0.0
H389 H 0.92054 0.934 0.68265 0.0
H390 H 0.94379 0.95221 0.77058 0.0
H391 H 0.88404 0.98384 0.85293 0.0
H392 H 0.86046 0.96612 0.76479 0.0
H393 H 0.79838 0.85022 0.61908 0.0
H394 H 0.83167 0.87261 0.58938 0.0
H395 H 0.80896 0.92636 0.72149 0.0
H396 H 0.77614 0.90345 0.75397 0.0
H397 H 0.85232 0.92228 0.73273 0.0
H398 H 0.80145 0.92794 0.54573 0.0
H399 H 0.77645 0.91403 0.45515 0.0
H400 H 0.83304 0.87955 0.36371 0.0
H401 H 0.85833 0.89301 0.4543 0.0
C402 C 0.91228 0.99619 0.5695 0.0
C403 C 0.93217 0.9883 0.53778 0.0
C404 C 0.89518 0.9811 0.58724 0.0
C405 C 0.89757 0.95792 0.57306 0.0
C406 C 0.91705 0.94996 0.53979 0.0
C407 C 0.93439 0.96505 0.5228 0.0
C408 C 0.87965 0.9421 0.59409 0.0
C409 C 0.86597 0.93222 0.54457 0.0
C410 C 0.87468 0.93863 0.66267 0.0
C411 C 0.88875 0.94886 0.71676 0.0
C412 C 0.91237 0.94496 0.71923 0.0
C413 C 0.92561 0.95518 0.76914 0.0
C414 C 0.91541 0.96921 0.81722 0.0
C415 C 0.89192 0.97298 0.81564 0.0
C416 C 0.87861 0.96282 0.76575 0.0
C417 C 0.80051 0.86681 0.64184 0.0
C418 C 0.78462 0.87523 0.68835 0.0
C419 C 0.81949 0.87962 0.62464 0.0
C420 C 0.82256 0.90138 0.65206 0.0
C421 C 0.80691 0.90964 0.69956 0.0
C422 C 0.78816 0.89659 0.71794 0.0
C423 C 0.84195 0.9156 0.63062 0.0
C424 C 0.85592 0.92531 0.68011 0.0
C425 C 0.84688 0.91936 0.56188 0.0
C426 C 0.83173 0.91128 0.5072 0.0
C427 C 0.80853 0.91725 0.50658 0.0
C428 C 0.79431 0.90947 0.4552 0.0
C429 C 0.80314 0.89586 0.40382 0.0
C430 C 0.82622 0.89006 0.40361 0.0
C431 C 0.84051 0.89777 0.45493 0.0
H432 H 0.79211 0.88985 0.36408 0.0
H433 H 0.9257 0.9771 0.85575 0.0
H434 H 0.91484 0.1017 0.49702 0.0
H435 H 0.8916 0.13505 0.47123 0.0
H436 H 0.93876 0.15407 0.31571 0.0
H437 H 0.96219 0.1207 0.34106 0.0
H438 H 0.92786 0.18948 0.40399 0.0
H439 H 0.88924 0.13323 0.27123 0.0
H440 H 0.8701 0.09666 0.25111 0.0
H441 H 0.81898 0.1141 0.3964 0.0
H442 H 0.838 0.15066 0.41809 0.0
H443 H 0.86118 0.27705 0.25799 0.0
H444 H 0.88431 0.24335 0.27987 0.0
H445 H 0.83354 0.2189 0.41794 0.0
H446 H 0.81 0.25229 0.39506 0.0
H447 H 0.84659 0.18598 0.3372 0.0
H448 H 0.88447 0.24117 0.47327 0.0
H449 H 0.90343 0.27746 0.49876 0.0
H450 H 0.95558 0.26196 0.35478 0.0
H451 H 0.93676 0.2257 0.32775 0.0
C452 C 0.9202 0.11285 0.45694 0.0
C453 C 0.94037 0.10856 0.4211 0.0
C454 C 0.90687 0.13186 0.44219 0.0
C455 C 0.91347 0.14691 0.39146 0.0
C456 C 0.93343 0.14259 0.35504 0.0
C457 C 0.9467 0.12347 0.36939 0.0
C458 C 0.89991 0.16761 0.37819 0.0
C459 C 0.91018 0.18879 0.38834 0.0
C460 C 0.8767 0.16653 0.35994 0.0
C461 C 0.86517 0.1446 0.34672 0.0
C462 C 0.87402 0.12919 0.29929 0.0
C463 C 0.86317 0.10848 0.28753 0.0
C464 C 0.84337 0.10304 0.32257 0.0
C465 C 0.83433 0.11833 0.36934 0.0
C466 C 0.84513 0.13906 0.38134 0.0
C467 C 0.855 0.2646 0.29343 0.0
C468 C 0.83374 0.26736 0.32479 0.0
C469 C 0.86828 0.24537 0.30605 0.0
C470 C 0.86074 0.22872 0.35102 0.0
C471 C 0.83966 0.23154 0.38297 0.0
C472 C 0.82626 0.25067 0.36997 0.0
C473 C 0.8745 0.20798 0.36304 0.0
C474 C 0.86428 0.18675 0.35272 0.0
C475 C 0.8977 0.20902 0.38187 0.0
C476 C 0.90907 0.23082 0.39799 0.0
C477 C 0.89988 0.24558 0.44663 0.0
C478 C 0.91062 0.26613 0.46144 0.0
C479 C 0.93066 0.27204 0.42827 0.0
C480 C 0.94003 0.25738 0.38036 0.0
C481 C 0.92935 0.23682 0.36531 0.0
H482 H 0.93895 0.28795 0.43982 0.0
H483 H 0.83499 0.08699 0.3134 0.0
H484 H 0.71519 0.26244 0.32955 0.0
H485 H 0.68338 0.23613 0.31484 0.0
H486 H 0.68437 0.24819 0.10132 0.0
H487 H 0.71616 0.2741 0.11514 0.0
H488 H 0.64087 0.24259 0.2664 0.0
H489 H 0.67245 0.20037 0.0182 0.0
H490 H 0.70878 0.18939 0.96515 0.0
H491 H 0.74059 0.18533 0.15899 0.0
H492 H 0.70439 0.19596 0.21327 0.0
H493 H 0.55234 0.19461 0.06693 0.0
H494 H 0.58488 0.21577 0.11142 0.0
H495 H 0.61673 0.15297 0.17249 0.0
H496 H 0.58447 0.13174 0.12869 0.0
H497 H 0.64527 0.17955 0.10101 0.0
H498 H 0.59699 0.18581 0.28957 0.0
H499 H 0.56178 0.19375 0.35263 0.0
H500 H 0.56521 0.26402 0.29653 0.0
H501 H 0.6002 0.25642 0.23185 0.0
C502 C 0.70873 0.25936 0.27941 0.0
C503 C 0.71831 0.2703 0.22348 0.0
C504 C 0.6905 0.24442 0.2712 0.0
C505 C 0.68169 0.24007 0.20697 0.0
C506 C 0.69115 0.25103 0.15123 0.0
C507 C 0.70932 0.2659 0.15931 0.0
C508 C 0.66244 0.22427 0.19741 0.0
C509 C 0.64181 0.22875 0.23048 0.0
C510 C 0.66392 0.20581 0.15199 0.0
C511 C 0.68573 0.19915 0.11974 0.0
C512 C 0.68717 0.19703 0.04953 0.0
C513 C 0.70775 0.19089 0.01924 0.0
C514 C 0.727 0.18673 0.05866 0.0
C515 C 0.72569 0.18864 0.12849 0.0
C516 C 0.70515 0.19475 0.15903 0.0
C517 C 0.56622 0.18533 0.0901 0.0
C518 C 0.56584 0.16149 0.09396 0.0
C519 C 0.58471 0.19744 0.11586 0.0
C520 C 0.60311 0.18589 0.14546 0.0
C521 C 0.60266 0.16217 0.1499 0.0
C522 C 0.58417 0.15009 0.1248 0.0
C523 C 0.62348 0.19842 0.16799 0.0
C524 C 0.64433 0.1933 0.13729 0.0
C525 C 0.62231 0.21583 0.2169 0.0
C526 C 0.60113 0.22049 0.25525 0.0
C527 C 0.59012 0.20292 0.29004 0.0
C528 C 0.57023 0.20736 0.32626 0.0
C529 C 0.56127 0.22937 0.3286 0.0
C530 C 0.57217 0.24697 0.29465 0.0
C531 C 0.59204 0.24261 0.25819 0.0
H532 H 0.54589 0.23278 0.35679 0.0
H533 H 0.74291 0.18199 0.03511 0.0
H534 H 0.69189 0.91707 0.79016 0.0
H535 H 0.67019 0.9503 0.82617 0.0
H536 H 0.61986 0.90651 0.91554 0.0
H537 H 0.64065 0.87322 0.87374 0.0
H538 H 0.59853 0.93824 0.86728 0.0
H539 H 0.66401 0.93856 0.0081 0.0
H540 H 0.70487 0.93728 0.03689 0.0
H541 H 0.71571 -0.00091 0.92796 0.0
H542 H 0.67507 0.0005 0.89729 0.0
H543 H 0.55589 0.03317 0.06347 0.0
H544 H 0.5803 -0.00014 0.04422 0.0
H545 H 0.60344 0.02881 0.858 0.0
H546 H 0.57863 0.06183 0.87571 0.0
H547 H 0.63792 0.00438 0.96871 0.0
H548 H 0.56996 0.99723 0.81814 0.0
H549 H 0.52812 -0.00153 0.80677 0.0
H550 H 0.52191 0.94813 0.96136 0.0
H551 H 0.5636 0.9468 0.97386 0.0
C552 C 0.67616 0.91461 0.8174 0.0
C553 C 0.66797 0.89267 0.82967 0.0
C554 C 0.66386 0.93361 0.83873 0.0
C555 C 0.64368 0.93108 0.87576 0.0
C556 C 0.63538 0.90904 0.88737 0.0
C557 C 0.64726 0.89001 0.86364 0.0
C558 C 0.63096 0.95141 0.90044 0.0
C559 C 0.60729 0.95244 0.89029 0.0
C560 C 0.64207 0.97018 0.93102 0.0
C561 C 0.66651 0.96951 0.94993 0.0
C562 C 0.67515 0.95178 0.9899 0.0
C563 C 0.69826 0.95104 0.00658 0.0
C564 C 0.71286 0.96806 0.98422 0.0
C565 C 0.70438 0.9859 0.9452 0.0
C566 C 0.68131 0.98668 0.92817 0.0
C567 C 0.56647 0.0326 0.01899 0.0
C568 C 0.56531 0.05 0.97086 0.0
C569 C 0.58035 0.01361 0.00815 0.0
C570 C 0.59358 0.01204 0.94983 0.0
C571 C 0.59336 0.02988 0.90341 0.0
C572 C 0.57913 0.04862 0.91345 0.0
C573 C 0.60609 0.99095 0.93404 0.0
C574 C 0.62951 0.98989 0.94608 0.0
C575 C 0.59476 0.97193 0.90719 0.0
C576 C 0.56981 0.97201 0.89718 0.0
C577 C 0.55961 0.98648 0.84972 0.0
C578 C 0.53593 0.98719 0.84303 0.0
C579 C 0.52231 0.9734 0.8833 0.0
C580 C 0.53239 0.95878 0.93003 0.0
C581 C 0.55604 0.95801 0.93688 0.0
H582 H 0.50398 0.97406 0.87825 0.0
H583 H 0.73073 0.96746 -0.00278 0.0
H584 H 0.51692 0.62653 0.86008 0.0
H585 H 0.53843 0.65998 0.82562 0.0
H586 H 0.59597 0.63677 0.94209 0.0
H587 H 0.57445 0.60368 0.97805 0.0
H588 H 0.58742 0.67989 0.96693 0.0
H589 H 0.59456 0.63322 0.76782 0.0
H590 H 0.58015 0.61058 0.67253 0.0
H591 H 0.54395 0.66883 0.59798 0.0
H592 H 0.55796 0.69176 0.69321 0.0
H593 H 0.68029 0.74025 0.84364 0.0
H594 H 0.65285 0.71028 0.8652 0.0
H595 H 0.60036 0.74952 0.7673 0.0
H596 H 0.6278 0.77987 0.74538 0.0
H597 H 0.60198 0.70195 0.73056 0.0
H598 H 0.59846 0.74927 0.92623 0.0
H599 H 0.61439 0.7714 0.02031 0.0
H600 H 0.64493 0.71093 0.10105 0.0
H601 H 0.62948 0.68849 0.00686 0.0
C602 C 0.53423 0.62846 0.87783 0.0
C603 C 0.544 0.6125 0.92192 0.0
C604 C 0.5465 0.64755 0.85796 0.0
C605 C 0.56883 0.65078 0.88104 0.0
C606 C 0.57872 0.63464 0.92396 0.0
C607 C 0.56641 0.61572 0.94437 0.0
C608 C 0.58177 0.67135 0.86293 0.0
C609 C 0.59074 0.68458 0.91521 0.0
C610 C 0.58544 0.67788 0.79546 0.0
C611 C 0.5771 0.66413 0.73803 0.0
C612 C 0.58339 0.64115 0.73137 0.0
C613 C 0.57533 0.62828 0.67732 0.0
C614 C 0.56108 0.63824 0.62938 0.0
C615 C 0.55495 0.66113 0.63522 0.0
C616 C 0.56297 0.67407 0.68917 0.0
C617 C 0.66295 0.74256 0.82642 0.0
C618 C 0.65619 0.76251 0.79309 0.0
C619 C 0.6473 0.72542 0.83889 0.0
C620 C 0.62462 0.72785 0.81822 0.0
C621 C 0.61783 0.74745 0.78363 0.0
C622 C 0.63348 0.76476 0.77152 0.0
C623 C 0.6081 0.70993 0.83458 0.0
C624 C 0.59839 0.69732 0.78216 0.0
C625 C 0.60383 0.70383 0.90194 0.0
C626 C 0.61294 0.71723 0.95917 0.0
C627 C 0.60871 0.74072 0.96378 0.0
C628 C 0.61764 0.75331 0.01717 0.0
C629 C 0.6307 0.74259 0.06656 0.0
C630 C 0.63481 0.71922 0.06274 0.0
C631 C 0.62595 0.70655 0.0094 0.0
H632 H 0.63761 0.75237 0.10783 0.0
H633 H 0.55483 0.62825 0.58765 0.0
H634 H 0.72723 0.41327 0.20299 0.0
H635 H 0.69382 0.43511 0.16877 0.0
H636 H 0.66639 0.37584 0.07034 0.0
H637 H 0.7003 0.35409 0.10218 0.0
H638 H 0.65743 0.41198 -0.00189 0.0
H639 H 0.64811 0.39221 0.22808 0.0
H640 H 0.65879 0.38851 0.34734 0.0
H641 H 0.664 0.46102 0.36436 0.0
H642 H 0.65365 0.46514 0.24491 0.0
H643 H 0.54399 0.46205 0.00569 0.0
H644 H 0.5764 0.43623 0.02246 0.0
H645 H 0.61736 0.49249 0.0895 0.0
H646 H 0.58539 0.51833 0.07256 0.0
H647 H 0.61663 0.45436 0.17723 0.0
H648 H 0.62684 0.47248 0.94138 0.0
H649 H 0.61461 0.47444 0.82303 0.0
H650 H 0.60497 0.40219 0.81988 0.0
H651 H 0.61684 0.39986 0.93859 0.0
C652 C 0.71415 0.40493 0.17366 0.0
C653 C 0.71623 0.38194 0.15584 0.0
C654 C 0.69504 0.4174 0.15436 0.0
C655 C 0.67735 0.40694 0.11848 0.0
C656 C 0.67977 0.3842 0.09836 0.0
C657 C 0.69912 0.3718 0.11665 0.0
C658 C 0.65612 0.41965 0.104 0.0
C659 C 0.64831 0.42096 0.03744 0.0
C660 C 0.64419 0.43135 0.15532 0.0
C661 C 0.65027 0.42896 0.22738 0.0
C662 C 0.65167 0.40736 0.25714 0.0
C663 C 0.65765 0.40518 0.32479 0.0
C664 C 0.66212 0.42451 0.36337 0.0
C665 C 0.66055 0.44606 0.33441 0.0
C666 C 0.6546 0.44833 0.26675 0.0
C667 C 0.55995 0.46891 0.02364 0.0
C668 C 0.56211 0.49221 0.038 0.0
C669 C 0.57842 0.45418 0.0329 0.0
C670 C 0.59917 0.46256 0.05711 0.0
C671 C 0.60143 0.48578 0.07079 0.0
C672 C 0.58314 0.50051 0.0609 0.0
C673 C 0.6184 0.44714 0.07139 0.0
C674 C 0.62571 0.44522 0.13811 0.0
C675 C 0.62954 0.43461 0.02044 0.0
C676 C 0.62246 0.43604 0.94909 0.0
C677 C 0.62189 0.45705 0.91566 0.0
C678 C 0.61508 0.45822 0.84847 0.0
C679 C 0.60895 0.43846 0.81402 0.0
C680 C 0.60968 0.41748 0.84666 0.0
C681 C 0.61647 0.41623 0.91388 0.0
H682 H 0.60368 0.4394 0.762 0.0
H683 H 0.66675 0.4228 0.41573 0.0
H684 H 0.95124 0.55331 0.33635 0.0
H685 H 0.9267 0.52186 0.30437 0.0
H686 H 0.91575 0.50615 0.51334 0.0
H687 H 0.93992 0.53805 0.54597 0.0
H688 H 0.93084 0.47823 0.3223 0.0
H689 H 0.86292 0.4836 0.53247 0.0
H690 H 0.84475 0.51247 0.60494 0.0
H691 H 0.8585 0.56392 0.4582 0.0
H692 H 0.87646 0.53531 0.38452 0.0
H693 H 0.86439 0.37764 0.3214 0.0
H694 H 0.88865 0.40963 0.3523 0.0
H695 H 0.83543 0.45643 0.29438 0.0
H696 H 0.81088 0.4246 0.26546 0.0
H697 H 0.85226 0.46918 0.40833 0.0
H698 H 0.88347 0.44698 0.19586 0.0
H699 H 0.89994 0.42065 0.11238 0.0
H700 H 0.95656 0.40761 0.24346 0.0
H701 H 0.94026 0.43364 0.32813 0.0
C702 C 0.94354 0.54326 0.37565 0.0
C703 C 0.94751 0.54821 0.44378 0.0
C704 C 0.92958 0.52522 0.35721 0.0
C705 C 0.91932 0.51171 0.40639 0.0
C706 C 0.92324 0.51656 0.47452 0.0
C707 C 0.93708 0.53477 0.4931 0.0
C708 C 0.90474 0.49243 0.38593 0.0
C709 C 0.91366 0.47623 0.34118 0.0
C710 C 0.88222 0.49003 0.4097 0.0
C711 C 0.87127 0.50734 0.45338 0.0
C712 C 0.862 0.50106 0.51562 0.0
C713 C 0.85175 0.51738 0.5569 0.0
C714 C 0.85055 0.54003 0.5363 0.0
C715 C 0.85953 0.54639 0.47424 0.0
C716 C 0.86977 0.53013 0.43274 0.0
C717 C 0.85793 0.39475 0.31476 0.0
C718 C 0.83572 0.3986 0.291 0.0
C719 C 0.87183 0.41302 0.33234 0.0
C720 C 0.86391 0.43544 0.32524 0.0
C721 C 0.84186 0.43928 0.30061 0.0
C722 C 0.82788 0.42106 0.28385 0.0
C723 C 0.87835 0.45496 0.34466 0.0
C724 C 0.86945 0.47115 0.38953 0.0
C725 C 0.90066 0.45771 0.31944 0.0
C726 C 0.91052 0.44208 0.26859 0.0
C727 C 0.89934 0.43836 0.20709 0.0
C728 C 0.90867 0.42352 0.15952 0.0
C729 C 0.92925 0.41242 0.17268 0.0
C730 C 0.94059 0.41619 0.23338 0.0
C731 C 0.93133 0.431 0.28115 0.0
H732 H 0.93644 0.40093 0.13579 0.0
H733 H 0.84262 0.55264 0.56835 0.0
H734 H 0.7637 0.73721 0.73995 0.0
H735 H 0.79581 0.71219 0.71439 0.0
H736 H 0.81689 0.75761 0.55674 0.0
H737 H 0.78428 0.78222 0.5802 0.0
H738 H 0.82472 0.71585 0.51937 0.0
H739 H 0.84039 0.75933 0.71855 0.0
H740 H 0.8331 0.77393 0.83272 0.0
H741 H 0.83424 0.7059 0.90997 0.0
H742 H 0.84124 0.69087 0.79604 0.0
H743 H 0.94228 0.68758 0.50893 0.0
H744 H 0.90646 0.70787 0.52773 0.0
H745 H 0.88404 0.6545 0.65958 0.0
H746 H 0.9198 0.63398 0.64095 0.0
H747 H 0.87633 0.69848 0.71013 0.0
H748 H 0.86323 0.65585 0.50756 0.0
H749 H 0.87193 0.64278 0.39268 0.0
H750 H 0.86775 0.71142 0.32114 0.0
H751 H 0.85935 0.72495 0.43584 0.0
C752 C 0.77499 0.7417 0.69919 0.0
C753 C 0.77163 0.76185 0.6627 0.0
C754 C 0.79341 0.72744 0.68487 0.0
C755 C 0.80914 0.73334 0.6349 0.0
C756 C 0.80508 0.75278 0.59586 0.0
C757 C 0.78643 0.76686 0.6094 0.0
C758 C 0.83041 0.71997 0.62562 0.0
C759 C 0.83609 0.71225 0.56101 0.0
C760 C 0.84515 0.71496 0.68008 0.0
C761 C 0.8411 0.72397 0.74869 0.0
C762 C 0.83894 0.74748 0.75983 0.0
C763 C 0.83487 0.75583 0.82449 0.0
C764 C 0.83314 0.74085 0.87853 0.0
C765 C 0.83554 0.71748 0.86805 0.0
C766 C 0.83957 0.70904 0.80345 0.0
C767 C 0.92981 0.68019 0.54225 0.0
C768 C 0.93386 0.6591 0.57321 0.0
C769 C 0.90931 0.69176 0.55261 0.0
C770 C 0.89254 0.68252 0.59438 0.0
C771 C 0.89676 0.66182 0.62689 0.0
C772 C 0.91717 0.65012 0.61606 0.0
C773 C 0.8706 0.69451 0.60404 0.0
C774 C 0.86485 0.70199 0.66869 0.0
C775 C 0.85598 0.69955 0.54952 0.0
C776 C 0.86087 0.69143 0.48042 0.0
C777 C 0.86435 0.66818 0.46744 0.0
C778 C 0.86919 0.66068 0.40233 0.0
C779 C 0.87045 0.67627 0.34967 0.0
C780 C 0.8668 0.69937 0.36199 0.0
C781 C 0.86197 0.70696 0.42703 0.0
H782 H 0.87421 0.67043 0.2993 0.0
H783 H 0.82999 0.74735 0.92856 0.0
H784 H 0.29385 0.38094 0.32146 0.0
H785 H 0.32628 0.40604 0.30359 0.0
H786 H 0.29658 0.42878 0.11682 0.0
H787 H 0.2648 0.40281 0.13288 0.0
H788 H 0.33772 0.41902 0.09556 0.0
H789 H 0.29972 0.46272 0.26495 0.0
H790 H 0.28147 0.47011 0.37432 0.0
H791 H 0.34376 0.45325 0.47592 0.0
H792 H 0.3623 0.44545 0.36718 0.0
H793 H 0.41138 0.5262 0.14083 0.0
H794 H 0.37873 0.5035 0.17374 0.0
H795 H 0.41521 0.44228 0.12047 0.0
H796 H 0.4478 0.46496 0.08532 0.0
H797 H 0.37055 0.47216 0.26283 0.0
H798 H 0.37886 0.40457 0.05248 0.0
H799 H 0.39423 0.40113 0.93763 0.0
H800 H 0.38547 0.47288 0.90831 0.0
H801 H 0.36977 0.47669 0.02258 0.0
C802 C 0.29414 0.39156 0.27713 0.0
C803 C 0.27695 0.38993 0.22835 0.0
C804 C 0.31262 0.40596 0.26706 0.0
C805 C 0.31383 0.41941 0.209 0.0
C806 C 0.29611 0.41844 0.16174 0.0
C807 C 0.27794 0.40368 0.17102 0.0
C808 C 0.33421 0.4333 0.19491 0.0
C809 C 0.34481 0.43067 0.13222 0.0
C810 C 0.34344 0.44864 0.24242 0.0
C811 C 0.33232 0.45328 0.30791 0.0
C812 C 0.30947 0.46041 0.31064 0.0
C813 C 0.29908 0.4647 0.37252 0.0
C814 C 0.31143 0.46209 0.43203 0.0
C815 C 0.33421 0.45523 0.42978 0.0
C816 C 0.34466 0.45089 0.36804 0.0
C817 C 0.41254 0.5079 0.13638 0.0
C818 C 0.43208 0.49738 0.10971 0.0
C819 C 0.39389 0.49495 0.15553 0.0
C820 C 0.39444 0.47125 0.14874 0.0
C821 C 0.41429 0.4606 0.12491 0.0
C822 C 0.4329 0.47357 0.10493 0.0
C823 C 0.37383 0.45789 0.16359 0.0
C824 C 0.36334 0.46049 0.22642 0.0
C825 C 0.3642 0.44308 0.11543 0.0
C826 C 0.37339 0.44093 0.04634 0.0
C827 C 0.38015 0.41959 0.02142 0.0
C828 C 0.38893 0.41758 0.95644 0.0
C829 C 0.3909 0.43679 0.9158 0.0
C830 C 0.38402 0.45803 0.93994 0.0
C831 C 0.3752 0.46013 0.00482 0.0
H832 H 0.39772 0.43519 0.86554 0.0
H833 H 0.30336 0.46543 0.47989 0.0
H834 H 0.42509 0.60281 0.88763 0.0
H835 H 0.40211 0.6368 0.8687 0.0
H836 H 0.41509 0.65885 0.07193 0.0
H837 H 0.43754 0.62437 0.09199 0.0
H838 H 0.37321 0.67007 0.0368 0.0
H839 H 0.4467 0.67946 0.94389 0.0
H840 H 0.48059 0.66916 0.87735 0.0
H841 H 0.44055 0.67004 0.69688 0.0
H842 H 0.40633 0.67997 0.76248 0.0
H843 H 0.36447 0.78622 0.84177 0.0
H844 H 0.38691 0.7544 0.88487 0.0
H845 H 0.32607 0.71386 0.89796 0.0
H846 H 0.30345 0.74589 0.8575 0.0
H847 H 0.39558 0.71517 0.83744 0.0
H848 H 0.32945 0.67576 0.02195 0.0
H849 H 0.2986 0.68914 0.09625 0.0
H850 H 0.33013 0.75461 0.11074 0.0
H851 H 0.3614 0.7415 0.03782 0.0
C852 C 0.4228 0.61474 0.92859 0.0
C853 C 0.43333 0.61112 0.99101 0.0
C854 C 0.40973 0.63418 0.91766 0.0
C855 C 0.40741 0.65061 0.96838 0.0
C856 C 0.41681 0.64644 0.032 0.0
C857 C 0.42963 0.62676 0.04335 0.0
C858 C 0.3963 0.67262 0.95332 0.0
C859 C 0.37808 0.67999 -0.00664 0.0
C860 C 0.4033 0.68599 0.89814 0.0
C861 C 0.4239 0.68031 0.85821 0.0
C862 C 0.44509 0.67733 0.89006 0.0
C863 C 0.46436 0.67156 0.85252 0.0
C864 C 0.46271 0.66891 0.78296 0.0
C865 C 0.4418 0.67208 0.75078 0.0
C866 C 0.42246 0.6778 0.78811 0.0
C867 C 0.35587 0.77055 0.85412 0.0
C868 C 0.3322 0.76855 0.84646 0.0
C869 C 0.36872 0.75238 0.87873 0.0
C870 C 0.35815 0.73183 0.89551 0.0
C871 C 0.33454 0.72972 0.88697 0.0
C872 C 0.32164 0.748 0.86344 0.0
C873 C 0.3719 0.7123 0.9195 0.0
C874 C 0.39072 0.7054 0.88121 0.0
C875 C 0.36601 0.69993 0.97783 0.0
C876 C 0.34766 0.70769 0.02382 0.0
C877 C 0.3299 0.69295 0.04143 0.0
C878 C 0.31233 0.7005 0.08328 0.0
C879 C 0.31236 0.72273 0.10799 0.0
C880 C 0.33008 0.73741 0.09143 0.0
C881 C 0.34773 0.72993 0.04985 0.0
H882 H 0.29867 0.72857 0.14005 0.0
H883 H 0.47765 0.66444 0.75398 0.0
H884 H 0.19869 0.78985 0.81174 0.0
H885 H 0.16421 0.76823 0.7865 0.0
H886 H 0.1962 0.74125 0.60796 0.0
H887 H 0.22993 0.76401 0.63087 0.0
H888 H 0.1568 0.75297 0.57617 0.0
H889 H 0.18647 0.70985 0.76231 0.0
H890 H 0.20046 0.7037 0.8777 0.0
H891 H 0.13658 0.72709 0.95689 0.0
H892 H 0.12231 0.73364 0.84193 0.0
H893 H 0.09316 0.65081 0.53144 0.0
H894 H 0.12275 0.67716 0.56818 0.0
H895 H 0.07177 0.72063 0.65708 0.0
H896 H 0.04183 0.69458 0.61877 0.0
H897 H 0.11663 0.70364 0.7386 0.0
H898 H 0.08754 0.74398 0.54342 0.0
H899 H 0.07522 0.74611 0.42516 0.0
H900 H 0.14114 0.72311 0.36087 0.0
H901 H 0.15372 0.7205 0.47888 0.0
C902 C 0.19835 0.77907 0.7676 0.0
C903 C 0.21687 0.77851 0.72319 0.0
C904 C 0.17869 0.76666 0.75327 0.0
C905 C 0.17759 0.75289 0.69553 0.0
C906 C 0.19649 0.75185 0.6525 0.0
C907 C 0.21581 0.76474 0.66575 0.0
C908 C 0.15656 0.74026 0.67783 0.0
C909 C 0.1482 0.74209 0.61187 0.0
C910 C 0.14487 0.72641 0.72447 0.0
C911 C 0.15343 0.72248 0.79357 0.0
C912 C 0.17548 0.71384 0.80436 0.0
C913 C 0.18344 0.71025 0.86967 0.0
C914 C 0.16945 0.71507 0.9246 0.0
C915 C 0.14742 0.72341 0.91431 0.0
C916 C 0.13938 0.72705 0.84909 0.0
C917 C 0.08822 0.66602 0.55856 0.0
C918 C 0.06523 0.67072 0.57212 0.0
C919 C 0.10511 0.681 0.57947 0.0
C920 C 0.09933 0.7007 0.61526 0.0
C921 C 0.07644 0.70544 0.62944 0.0
C922 C 0.05943 0.69067 0.60723 0.0
C923 C 0.11748 0.71619 0.63733 0.0
C924 C 0.12523 0.71483 0.70375 0.0
C925 C 0.12895 0.73007 0.59094 0.0
C926 C 0.12148 0.73183 0.51998 0.0
C927 C 0.09933 0.73916 0.50409 0.0
C928 C 0.09232 0.74051 0.4371 0.0
C929 C 0.10737 0.7347 0.38554 0.0
C930 C 0.12949 0.72759 0.40086 0.0
C931 C 0.13657 0.72619 0.46778 0.0
H932 H 0.10191 0.73575 0.33371 0.0
H933 H 0.17565 0.71228 0.97512 0.0
H934 H 0.13904 0.38288 0.24792 0.0
H935 H 0.11697 0.41748 0.26856 0.0
H936 H 0.16541 0.43814 0.41936 0.0
H937 H 0.18754 0.40354 0.3995 0.0
H938 H 0.12146 0.44487 0.45973 0.0
H939 H 0.16726 0.46129 0.26613 0.0
H940 H 0.18245 0.45467 0.15239 0.0
H941 H 0.11499 0.45916 0.07034 0.0
H942 H 0.09935 0.46548 0.1838 0.0
H943 H 0.08757 0.55859 0.49632 0.0
H944 H 0.11077 0.52534 0.4694 0.0
H945 H 0.06395 0.50721 0.31136 0.0
H946 H 0.04087 0.54079 0.33684 0.0
H947 H 0.10691 0.49902 0.27372 0.0
H948 H 0.06087 0.48214 0.46592 0.0
H949 H 0.04521 0.48849 0.57925 0.0
H950 H 0.11238 0.48426 0.66347 0.0
H951 H 0.12849 0.4782 0.55045 0.0
C952 C 0.14494 0.39468 0.28586 0.0
C953 C 0.16516 0.3905 0.32176 0.0
C954 C 0.13236 0.41451 0.29728 0.0
C955 C 0.13976 0.43051 0.34477 0.0
C956 C 0.1595 0.42605 0.38223 0.0
C957 C 0.17214 0.40628 0.37068 0.0
C958 C 0.12701 0.452 0.35508 0.0
C959 C 0.11852 0.45685 0.41929 0.0
C960 C 0.12273 0.46734 0.30185 0.0
C961 C 0.13211 0.46362 0.23355 0.0
C962 C 0.15564 0.46067 0.22391 0.0
C963 C 0.16434 0.45701 0.15948 0.0
C964 C 0.14969 0.45643 0.10419 0.0
C965 C 0.12631 0.45957 0.11322 0.0
C966 C 0.11752 0.46322 0.17757 0.0
C967 C 0.0823 0.54769 0.45533 0.0
C968 C 0.06217 0.55218 0.41936 0.0
C969 C 0.09555 0.52863 0.4402 0.0
C970 C 0.08879 0.5135 0.38946 0.0
C971 C 0.06938 0.51856 0.35108 0.0
C972 C 0.05618 0.53775 0.36582 0.0
C973 C 0.10142 0.49195 0.37849 0.0
C974 C 0.10985 0.48705 0.31417 0.0
C975 C 0.10556 0.47648 0.43157 0.0
C976 C 0.0959 0.47993 0.49965 0.0
C977 C 0.07232 0.48272 0.50855 0.0
C978 C 0.06336 0.48625 0.57274 0.0
C979 C 0.0778 0.48683 0.62851 0.0
C980 C 0.10122 0.48383 0.62022 0.0
C981 C 0.11027 0.48033 0.55612 0.0
H982 H 0.07083 0.48957 0.67816 0.0
H983 H 0.15645 0.45359 0.05434 0.0
H984 H 0.95286 0.03085 0.72644 0.0
H985 H 0.9538 0.01147 0.83426 0.0
H986 H 0.01442 0.0484 0.88853 0.0
H987 H 0.01421 0.06707 0.77914 0.0
H988 H 0.02033 0.00403 0.9065 0.0
H989 H 0.95903 0.05912 0.95572 0.0
H990 H 0.92117 0.0761 0.93566 0.0
H991 H 0.89009 0.01081 0.96066 0.0
H992 H 0.92781 0.99343 0.9803 0.0
H993 H 0.02928 0.03591 0.23103 0.0
H994 H 0.02634 0.02514 0.11339 0.0
H995 H 0.97784 0.97312 0.16437 0.0
H996 H 0.98121 0.98364 0.28341 0.0
H997 H 0.96063 0.00634 0.08191 0.0
H998 H 0.02192 0.95601 0.07439 0.0
H999 H 0.05978 0.93976 0.09825 0.0
H1000 H 0.09146 0.99587 -0.00151 0.0
H1001 H 0.05387 0.01271 0.97498 0.0
C1002 C 0.96601 0.03539 0.76213 0.0
C1003 C 0.98352 0.05048 0.74453 0.0
C1004 C 0.96659 0.02414 0.82356 0.0
C1005 C 0.9843 0.02833 0.86897 0.0
C1006 C 0.0008 0.04469 0.85353 0.0
C1007 C 0.00051 0.05558 0.79157 0.0
C1008 C 0.98645 0.01524 0.93171 0.0
C1009 C 0.00735 0.00453 0.94514 0.0
C1010 C 0.96884 0.0144 0.97984 0.0
C1011 C 0.94623 0.02494 0.96845 0.0
C1012 C 0.94413 0.04838 0.95643 0.0
C1013 C 0.9227 0.05807 0.94525 0.0
C1014 C 0.90325 0.04452 0.94657 0.0
C1015 C 0.90517 0.02127 0.95941 0.0
C1016 C 0.92656 0.01149 0.97063 0.0
C1017 C 0.01858 0.02169 0.21733 0.0
C1018 C 0.00521 0.01079 0.26548 0.0
C1019 C 0.0171 0.01534 0.15031 0.0
C1020 C 0.00193 -0.00174 0.13039 0.0
C1021 C 0.98979 0.98617 0.1791 0.0
C1022 C 0.99166 0.99224 0.24673 0.0
C1023 C 0.99538 0.99728 0.05914 0.0
C1024 C 0.97345 0.00504 0.04289 0.0
C1025 C 0.01211 0.99554 0.00864 0.0
C1026 C 0.03495 0.98562 0.02274 0.0
C1027 C 0.03694 0.96498 0.05783 0.0
C1028 C 0.05838 0.95565 0.07128 0.0
C1029 C 0.07801 0.96676 0.04983 0.0
C1030 C 0.07623 0.98725 0.01492 0.0
C1031 C 0.05484 0.99667 0.00136 0.0
H1032 H 0.09459 0.95951 0.06029 0.0
H1033 H 0.88668 0.05206 0.93787 0.0
H1034 H 0.28998 0.79856 0.48789 0.0
H1035 H 0.29951 0.80217 0.36967 0.0
H1036 H 0.35566 0.846 0.42053 0.0
H1037 H 0.3463 0.84206 0.54003 0.0
H1038 H 0.32291 0.86662 0.34328 0.0
H1039 H 0.3686 0.80142 0.32153 0.0
H1040 H 0.38123 0.76205 0.34205 0.0
H1041 H 0.31977 0.73686 0.25302 0.0
H1042 H 0.30675 0.77604 0.23162 0.0
H1043 H 0.30173 0.87908 0.98472 0.0
H1044 H 0.31935 0.87632 0.09554 0.0
H1045 H 0.27501 0.82053 0.1445 0.0
H1046 H 0.25781 0.82276 0.03315 0.0
H1047 H 0.31917 0.80924 0.16107 0.0
H1048 H 0.26994 0.87407 0.21686 0.0
H1049 H 0.25587 0.91333 0.20296 0.0
H1050 H 0.32341 0.93882 0.23395 0.0
H1051 H 0.33791 0.89966 0.24731 0.0
C1052 C 0.30485 0.80827 0.47396 0.0
C1053 C 0.31725 0.82028 0.52236 0.0
C1054 C 0.31046 0.81016 0.40653 0.0
C1055 C 0.32835 0.82431 0.38654 0.0
C1056 C 0.34194 0.83486 0.43527 0.0
C1057 C 0.33657 0.83261 0.50321 0.0
C1058 C 0.32897 0.83163 0.31598 0.0
C1059 C 0.32294 0.85428 0.3027 0.0
C1060 C 0.32889 0.81548 0.26358 0.0
C1061 C 0.33673 0.79174 0.2748 0.0
C1062 C 0.35776 0.78749 0.30626 0.0
C1063 C 0.36502 0.7652 0.31791 0.0
C1064 C 0.35135 0.74697 0.29855 0.0
C1065 C 0.33041 0.751 0.26746 0.0
C1066 C 0.32313 0.77326 0.25525 0.0
C1067 C 0.29518 0.86677 0.02 0.0
C1068 C 0.27853 0.85098 0.00036 0.0
C1069 C 0.30541 0.8651 0.08305 0.0
C1070 C 0.29874 0.84796 0.12747 0.0
C1071 C 0.28065 0.83361 0.11021 0.0
C1072 C 0.27065 0.83506 0.04703 0.0
C1073 C 0.31134 0.84371 0.19023 0.0
C1074 C 0.32006 0.82176 0.20104 0.0
C1075 C 0.31379 0.86049 0.24048 0.0
C1076 C 0.30505 0.88396 0.23209 0.0
C1077 C 0.28182 0.88805 0.22007 0.0
C1078 C 0.27376 0.91028 0.21244 0.0
C1079 C 0.28876 0.92856 0.21729 0.0
C1080 C 0.31183 0.92465 0.23001 0.0
C1081 C 0.31997 0.90245 0.23763 0.0
H1082 H 0.28248 0.94575 0.21141 0.0
H1083 H 0.35696 0.72972 0.30779 0.0
H1084 H 0.53964 0.12406 0.72492 0.0
H1085 H 0.53172 0.12973 0.60609 0.0
H1086 H 0.47651 0.17527 0.65627 0.0
H1087 H 0.48476 0.16989 0.77609 0.0
H1088 H 0.46251 0.13803 0.58616 0.0
H1089 H 0.51652 0.19521 0.55318 0.0
H1090 H 0.55252 0.21633 0.56106 0.0
H1091 H 0.58774 0.16167 0.46231 0.0
H1092 H 0.55205 0.14006 0.45455 0.0
H1093 H 0.45065 0.12161 0.21947 0.0
H1094 H 0.45025 0.13683 0.33412 0.0
H1095 H 0.50998 0.09712 0.38154 0.0
H1096 H 0.51056 0.08195 0.26757 0.0
H1097 H 0.51532 0.14495 0.3936 0.0
H1098 H 0.46165 0.08516 0.45463 0.0
H1099 H 0.42513 0.06494 0.44535 0.0
H1100 H 0.38896 0.12668 0.49003 0.0
H1101 H 0.4253 0.14733 0.49873 0.0
C1102 C 0.52646 0.13603 0.71049 0.0
C1103 C 0.51272 0.14644 0.75919 0.0
C1104 C 0.52198 0.13936 0.64261 0.0
C1105 C 0.5035 0.15291 0.62243 0.0
C1106 C 0.49092 0.16486 0.67097 0.0
C1107 C 0.4957 0.16185 0.7392 0.0
C1108 C 0.49505 0.15056 0.55291 0.0
C1109 C 0.47376 0.14022 0.54355 0.0
C1110 C 0.50976 0.15333 0.49757 0.0
C1111 C 0.53152 0.16597 0.50345 0.0
C1112 C 0.53196 0.18758 0.53368 0.0
C1113 C 0.55233 0.19967 0.53798 0.0
C1114 C 0.57241 0.19034 0.51226 0.0
C1115 C 0.57217 0.16888 0.48225 0.0
C1116 C 0.55185 0.15672 0.4777 0.0
C1117 C 0.46311 0.11539 0.25521 0.0
C1118 C 0.48085 0.10085 0.23454 0.0
C1119 C 0.46295 0.12425 0.32043 0.0
C1120 C 0.48039 0.11842 0.36538 0.0
C1121 C 0.4966 0.10204 0.34693 0.0
C1122 C 0.49681 0.09326 0.28205 0.0
C1123 C 0.48367 0.13107 0.42858 0.0
C1124 C 0.50386 0.14346 0.43599 0.0
C1125 C 0.46794 0.13027 0.4819 0.0
C1126 C 0.44615 0.11785 0.47636 0.0
C1127 C 0.4459 0.09447 0.46174 0.0
C1128 C 0.42524 0.08292 0.45678 0.0
C1129 C 0.40473 0.09453 0.46683 0.0
C1130 C 0.40485 0.11771 0.48208 0.0
C1131 C 0.42547 0.12935 0.48706 0.0
H1132 H 0.38875 0.08556 0.463 0.0
H1133 H 0.58814 0.19976 0.51547 0.0
H1134 H 0.17124 0.29359 0.03149 0.0
H1135 H 0.17137 0.28211 0.91299 0.0
H1136 H 0.19872 0.34739 0.85865 0.0
H1137 H 0.19921 0.35863 0.97676 0.0
H1138 H 0.16826 0.32721 0.75979 0.0
H1139 H 0.23665 0.31107 0.89776 0.0
H1140 H 0.25469 0.29394 -0.00226 0.0
H1141 H 0.22799 0.22871 0.94284 0.0
H1142 H 0.20977 0.24553 0.84258 0.0
H1143 H 0.24783 0.33685 0.52187 0.0
H1144 H 0.23663 0.3309 0.63823 0.0
H1145 H 0.21347 0.26351 0.58913 0.0
H1146 H 0.22475 0.26924 0.47205 0.0
H1147 H 0.23429 0.27477 0.73505 0.0
H1148 H 0.17427 0.29248 0.57547 0.0
H1149 H 0.16019 0.31264 0.47512 0.0
H1150 H 0.172 0.37674 0.57209 0.0
H1151 H 0.18658 0.35693 0.67258 0.0
C1152 C 0.17625 0.30581 -0.00622 0.0
C1153 C 0.18533 0.32691 0.01262 0.0
C1154 C 0.17642 0.29921 0.92638 0.0
C1155 C 0.18527 0.31386 0.87766 0.0
C1156 C 0.19177 0.33592 0.89576 0.0
C1157 C 0.19206 0.34233 0.96304 0.0
C1158 C 0.19195 0.30529 0.81108 0.0
C1159 C 0.18232 0.31536 0.7541 0.0
C1160 C 0.21031 0.28979 0.8041 0.0
C1161 C 0.2217 0.27956 0.86322 0.0
C1162 C 0.23459 0.29309 0.90722 0.0
C1163 C 0.24484 0.28345 0.96387 0.0
C1164 C 0.24238 0.26028 0.97682 0.0
C1165 C 0.22979 0.24668 0.93289 0.0
C1166 C 0.21956 0.25623 0.87605 0.0
C1167 C 0.2412 0.32043 0.53626 0.0
C1168 C 0.23668 0.30371 0.48779 0.0
C1169 C 0.23488 0.31704 0.60271 0.0
C1170 C 0.22389 0.29696 0.62137 0.0
C1171 C 0.22193 0.27911 0.57519 0.0
C1172 C 0.22839 0.28244 0.50842 0.0
C1173 C 0.21071 0.29691 0.68406 0.0
C1174 C 0.21937 0.28556 0.74025 0.0
C1175 C 0.19142 0.31123 0.69037 0.0
C1176 C 0.1816 0.32321 0.63142 0.0
C1177 C 0.17394 0.31088 0.5753 0.0
C1178 C 0.16588 0.32224 0.51838 0.0
C1179 C 0.16523 0.34596 0.51719 0.0
C1180 C 0.17251 0.35836 0.5731 0.0
C1181 C 0.18064 0.34707 0.63009 0.0
H1182 H 0.15907 0.35474 0.473 0.0
H1183 H 0.25035 0.25283 0.02062 0.0
H1184 H 0.79538 0.29831 0.98236 0.0
H1185 H 0.80176 0.30627 0.86402 0.0
H1186 H 0.84192 0.36484 0.9172 0.0
H1187 H 0.83591 0.35655 0.03659 0.0
H1188 H 0.80314 0.37503 0.84407 0.0
H1189 H 0.86672 0.32758 0.81773 0.0
H1190 H 0.89136 0.29394 0.83189 0.0
H1191 H 0.842 0.25257 0.73084 0.0
H1192 H 0.81686 0.28583 0.71697 0.0
H1193 H 0.78301 0.3834 0.48093 0.0
H1194 H 0.79867 0.38592 0.59445 0.0
H1195 H 0.77058 0.32023 0.64077 0.0
H1196 H 0.75517 0.31741 0.52737 0.0
H1197 H 0.81753 0.32221 0.65451 0.0
H1198 H 0.75058 0.36766 0.71442 0.0
H1199 H 0.72511 0.40088 0.70381 0.0
H1200 H 0.78112 0.44551 0.74379 0.0
H1201 H 0.80698 0.41252 0.75384 0.0
C1202 C 0.80631 0.31233 0.96875 0.0
C1203 C 0.81499 0.32696 0.01793 0.0
C1204 C 0.8101 0.31681 0.90126 0.0
C1205 C 0.82233 0.33615 0.88212 0.0
C1206 C 0.83259 0.34976 0.93129 0.0
C1207 C 0.82918 0.34499 -0.00082 0.0
C1208 C 0.81995 0.34414 0.81251 0.0
C1209 C 0.80697 0.36391 0.80199 0.0
C1210 C 0.82486 0.32953 0.75815 0.0
C1211 C 0.83988 0.3093 0.76625 0.0
C1212 C 0.86103 0.3113 0.79884 0.0
C1213 C 0.8751 0.29228 0.80678 0.0
C1214 C 0.86825 0.27114 0.78224 0.0
C1215 C 0.84731 0.26897 0.74969 0.0
C1216 C 0.83316 0.28793 0.74163 0.0
C1217 C 0.77942 0.36988 0.51611 0.0
C1218 C 0.76821 0.35001 0.49518 0.0
C1219 C 0.78853 0.3713 0.58073 0.0
C1220 C 0.78618 0.35302 0.625 0.0
C1221 C 0.77288 0.33431 0.60652 0.0
C1222 C 0.76393 0.3328 0.54203 0.0
C1223 C 0.79929 0.35198 0.68788 0.0
C1224 C 0.81444 0.3337 0.69621 0.0
C1225 C 0.79631 0.3679 0.74021 0.0
C1226 C 0.78076 0.38767 0.7339 0.0
C1227 C 0.75751 0.38457 0.72025 0.0
C1228 C 0.74299 0.40335 0.71452 0.0
C1229 C 0.75151 0.4253 0.72285 0.0
C1230 C 0.77455 0.4285 0.73716 0.0
C1231 C 0.78914 0.40978 0.74291 0.0
H1232 H 0.74024 0.43981 0.71842 0.0
H1233 H 0.87918 0.25644 0.78844 0.0
H1234 H 0.66074 0.80689 0.51966 0.0
H1235 H 0.65928 0.80399 0.397 0.0
H1236 H 0.69616 0.86692 0.38087 0.0
H1237 H 0.69806 0.86954 0.503 0.0
H1238 H 0.66769 0.85606 0.26579 0.0
H1239 H 0.72889 0.82549 0.4092 0.0
H1240 H 0.7424 0.8028 0.50544 0.0
H1241 H 0.70876 0.74395 0.42603 0.0
H1242 H 0.69496 0.76643 0.32938 0.0
H1243 H 0.746 0.85186 0.00922 0.0
H1244 H 0.73341 0.85344 0.12583 0.0
H1245 H 0.70988 0.78429 0.11166 0.0
H1246 H 0.72293 0.78228 -0.00416 0.0
H1247 H 0.72528 0.79473 0.23671 0.0
H1248 H 0.67532 0.82776 0.07031 0.0
H1249 H 0.66619 0.8537 0.97683 0.0
H1250 H 0.68044 0.91116 0.10291 0.0
H1251 H 0.69044 0.88564 0.19622 0.0
C1252 C 0.66728 0.82073 0.48967 0.0
C1253 C 0.6797 0.8383 0.51961 0.0
C1254 C 0.66647 0.81905 0.41987 0.0
C1255 C 0.67798 0.83505 0.38058 0.0
C1256 C 0.6872 0.85447 0.41069 0.0
C1257 C 0.68833 0.85594 0.48026 0.0
C1258 C 0.68606 0.82884 0.31335 0.0
C1259 C 0.68008 0.84254 0.25884 0.0
C1260 C 0.70233 0.81126 0.30524 0.0
C1261 C 0.71072 0.79764 0.36268 0.0
C1262 C 0.72429 0.80774 0.41255 0.0
C1263 C 0.73201 0.79493 0.46709 0.0
C1264 C 0.72637 0.77196 0.47204 0.0
C1265 C 0.71307 0.76175 0.42223 0.0
C1266 C 0.70532 0.77451 0.36753 0.0
C1267 C 0.73889 0.83673 0.03162 0.0
C1268 C 0.73482 0.81719 -0.0071 0.0
C1269 C 0.73156 0.83772 0.09798 0.0
C1270 C 0.71989 0.81929 0.12581 0.0
C1271 C 0.71849 0.79881 0.09026 0.0
C1272 C 0.72604 0.7977 0.02412 0.0
C1273 C 0.70713 0.82214 0.18871 0.0
C1274 C 0.71235 0.80781 0.24257 0.0
C1275 C 0.69039 0.83939 0.19618 0.0
C1276 C 0.68383 0.85474 0.14019 0.0
C1277 C 0.67669 0.84593 0.07793 0.0
C1278 C 0.67141 0.86057 0.02487 0.0
C1279 C 0.67288 0.88406 0.0338 0.0
C1280 C 0.67948 0.89297 0.09584 0.0
C1281 C 0.68498 0.87842 0.14881 0.0
H1282 H 0.66891 0.89539 -0.00724 0.0
H1283 H 0.73236 0.76208 0.51434 0.0
H1284 H 0.45743 0.53572 0.7509 0.0
H1285 H 0.46505 0.5305 0.63174 0.0
H1286 H 0.52178 0.48652 0.6792 0.0
H1287 H 0.51382 0.49141 0.79933 0.0
H1288 H 0.53392 0.52573 0.61289 0.0
H1289 H 0.48266 0.46582 0.57668 0.0
H1290 H 0.44729 0.44374 0.586 0.0
H1291 H 0.41006 0.49726 0.4886 0.0
H1292 H 0.44508 0.51986 0.47965 0.0
H1293 H 0.54632 0.54369 0.24903 0.0
H1294 H 0.54716 0.52913 0.36402 0.0
H1295 H 0.48404 0.56398 0.40616 0.0
H1296 H 0.48297 0.57845 0.29163 0.0
H1297 H 0.48195 0.51658 0.41864 0.0
H1298 H 0.53052 0.57951 0.48515 0.0
H1299 H 0.56507 0.60306 0.48093 0.0
H1300 H 0.60635 0.54452 0.52431 0.0
H1301 H 0.57203 0.52055 0.52792 0.0
C1302 C 0.47086 0.52413 0.73575 0.0
C1303 C 0.48516 0.51409 0.78365 0.0
C1304 C 0.47517 0.52105 0.66774 0.0
C1305 C 0.49403 0.50816 0.64687 0.0
C1306 C 0.50709 0.49641 0.69459 0.0
C1307 C 0.50248 0.49915 0.76293 0.0
C1308 C 0.50238 0.51129 0.57783 0.0
C1309 C 0.52294 0.52304 0.56978 0.0
C1310 C 0.48785 0.50805 0.5222 0.0
C1311 C 0.46659 0.49457 0.52752 0.0
C1312 C 0.46691 0.47297 0.55763 0.0
C1313 C 0.44691 0.46034 0.5628 0.0
C1314 C 0.42645 0.46909 0.5379 0.0
C1315 C 0.42593 0.49049 0.50777 0.0
C1316 C 0.44588 0.5032 0.50251 0.0
C1317 C 0.53313 0.54903 0.28365 0.0
C1318 C 0.51434 0.56185 0.26126 0.0
C1319 C 0.53358 0.54056 0.34911 0.0
C1320 C 0.51539 0.5451 0.39259 0.0
C1321 C 0.49803 0.56003 0.37262 0.0
C1322 C 0.49751 0.5684 0.30742 0.0
C1323 C 0.51262 0.53225 0.45531 0.0
C1324 C 0.49325 0.51855 0.46138 0.0
C1325 C 0.52813 0.53386 0.50917 0.0
C1326 C 0.54876 0.54818 0.50575 0.0
C1327 C 0.54699 0.57161 0.49294 0.0
C1328 C 0.56652 0.58505 0.49093 0.0
C1329 C 0.5879 0.57528 0.50213 0.0
C1330 C 0.58978 0.55205 0.51547 0.0
C1331 C 0.5703 0.53854 0.51751 0.0
H1332 H 0.60299 0.58572 0.50067 0.0
H1333 H 0.41098 0.45928 0.54193 0.0
H1334 H 0.97984 0.58893 0.77388 0.0
H1335 H 0.98299 0.60195 0.88968 0.0
H1336 H 0.05505 0.61206 0.86404 0.0
H1337 H 0.05223 0.59893 0.74799 0.0
H1338 H 0.04117 0.59739 -0.00352 0.0
H1339 H 0.02521 0.65525 0.83357 0.0
H1340 H 0.00492 0.67075 0.73524 0.0
H1341 H 0.94182 0.66837 0.8433 0.0
H1342 H 0.96168 0.65247 0.94194 0.0
H1343 H 0.03733 0.66082 0.28721 0.0
H1344 H 0.04402 0.66176 0.16577 0.0
H1345 H 0.97453 0.64156 0.13085 0.0
H1346 H 0.96803 0.6402 0.25177 0.0
H1347 H 0.99441 0.66745 0.02271 0.0
H1348 H 0.00782 0.60038 0.16573 0.0
H1349 H 0.02547 0.58172 0.26375 0.0
H1350 H 0.09174 0.60049 0.193 0.0
H1351 H 0.07437 0.61944 0.09473 0.0
C1352 C 0.99652 0.59317 0.79331 0.0
C1353 C 0.01566 0.59355 0.75119 0.0
C1354 C 0.99824 0.60069 0.85939 0.0
C1355 C 0.0191 0.60861 0.88405 0.0
C1356 C 0.03877 0.60628 0.84513 0.0
C1357 C 0.03708 0.59874 0.77889 0.0
C1358 C 0.01962 0.6218 0.94678 0.0
C1359 C 0.03147 0.61302 0.0019 0.0
C1360 C 0.00683 0.64213 0.95332 0.0
C1361 C 0.99493 0.65255 0.89506 0.0
C1362 C 0.00699 0.65795 0.8363 0.0
C1363 C 0.99557 0.6668 0.78048 0.0
C1364 C 0.97209 0.67051 0.78298 0.0
C1365 C 0.96001 0.66549 0.84145 0.0
C1366 C 0.97135 0.65658 0.89737 0.0
C1367 C 0.0232 0.65792 0.25329 0.0
C1368 C 0.00223 0.65036 0.27781 0.0
C1369 C 0.02704 0.65839 0.18417 0.0
C1370 C 0.00984 0.65138 0.1399 0.0
C1371 C 0.98795 0.64706 0.16444 0.0
C1372 C 0.98424 0.64626 0.23335 0.0
C1373 C 0.01565 0.64283 0.07263 0.0
C1374 C 0.00486 0.65235 0.0166 0.0
C1375 C 0.02933 0.62312 0.06515 0.0
C1376 C 0.03982 0.6115 0.12347 0.0
C1377 C 0.02614 0.60062 0.17134 0.0
C1378 C 0.03609 0.58999 0.22689 0.0
C1379 C 0.05971 0.59 0.23477 0.0
C1380 C 0.07344 0.60055 0.18692 0.0
C1381 C 0.06356 0.61122 0.13127 0.0
H1382 H 0.06738 0.58178 0.27783 0.0
H1383 H 0.96325 0.67728 0.73964 0.0
loop_
_geom_bond_atom_site_label_1
_geom_bond_atom_site_label_2
_geom_bond_distance
_geom_bond_site_symmetry_2
_ccdc_geom_bond_type
O0 Zn1 1.953 1_455 S
O0 C16 1.225 . S
Zn1 O0 1.953 1_655 S
Zn1 O2 1.949 1_655 S
Zn1 O8 1.919 . S
Zn1 O13 1.924 1_655 S
O2 Zn1 1.949 1_455 S
O2 Zn3 1.923 1_455 S
O2 Zn4 1.950 . S
O2 Zn5 1.945 1_455 S
Zn3 O2 1.923 1_655 S
Zn3 O6 1.933 . S
Zn3 O9 1.941 . S
Zn3 O10 1.965 . S
Zn4 O2 1.950 . S
Zn4 O11 1.938 . S
Zn4 O12 1.906 . S
Zn4 O22 1.953 . S
Zn5 O2 1.945 1_655 S
Zn5 O7 1.932 . S
Zn5 O14 1.977 1_655 S
Zn5 O15 1.910 1_655 S
O6 Zn3 1.933 . S
O6 C17 1.226 . S
O7 Zn5 1.932 . S
O7 C17 1.307 . S
O8 Zn1 1.919 . S
O8 C19 1.253 . S
O9 Zn3 1.941 . S
O9 C19 1.283 . S
O10 Zn3 1.965 . S
O10 C18 1.303 1_655 S
O11 Zn4 1.938 . S
O11 C18 1.247 . S
O12 Zn4 1.906 . S
O12 C20 1.304 . S
O13 Zn1 1.924 1_455 S
O13 C21 1.311 . S
O14 Zn5 1.977 1_455 S
O14 C20 1.272 . S
O15 Zn5 1.910 1_455 S
O15 C21 1.231 . S
C16 O0 1.225 . S
C16 O22 1.298 . S
C17 O6 1.226 . S
C17 O7 1.307 . S
C18 O10 1.303 1_455 S
C18 O11 1.247 . S
C19 O8 1.253 . S
C19 O9 1.283 . S
C20 O12 1.304 . S
C20 O14 1.272 . S
C21 O13 1.311 . S
C21 O15 1.231 . S
O22 Zn4 1.953 . S
O22 C16 1.298 . S
O23 Zn24 1.953 . S
O23 C39 1.225 . S
Zn24 O23 1.953 . S
Zn24 O25 1.949 . S
Zn24 O31 1.919 . S
Zn24 O36 1.924 . S
O25 Zn24 1.949 . S
O25 Zn26 1.923 . S
O25 Zn27 1.950 . S
O25 Zn28 1.945 . S
Zn26 O25 1.923 . S
Zn26 O29 1.933 . S
Zn26 O32 1.941 . S
Zn26 O33 1.965 . S
Zn27 O25 1.950 . S
Zn27 O34 1.938 . S
Zn27 O35 1.906 . S
Zn27 O45 1.953 . S
Zn28 O25 1.945 . S
Zn28 O30 1.932 . S
Zn28 O37 1.977 . S
Zn28 O38 1.910 . S
O29 Zn26 1.933 . S
O29 C40 1.226 . S
O30 Zn28 1.932 . S
O30 C40 1.307 . S
O31 Zn24 1.919 . S
O31 C42 1.253 . S
O32 Zn26 1.941 . S
O32 C42 1.283 . S
O33 Zn26 1.965 . S
O33 C41 1.303 . S
O34 Zn27 1.938 . S
O34 C41 1.247 . S
O35 Zn27 1.906 . S
O35 C43 1.304 . S
O36 Zn24 1.924 . S
O36 C44 1.311 . S
O37 Zn28 1.977 . S
O37 C43 1.272 . S
O38 Zn28 1.910 . S
O38 C44 1.231 . S
C39 O23 1.225 . S
C39 O45 1.298 . S
C40 O29 1.226 . S
C40 O30 1.307 . S
C41 O33 1.303 . S
C41 O34 1.247 . S
C42 O31 1.253 . S
C42 O32 1.283 . S
C43 O35 1.304 . S
C43 O37 1.272 . S
C44 O36 1.311 . S
C44 O38 1.231 . S
O45 Zn27 1.953 . S
O45 C39 1.298 . S
O46 Zn47 1.953 1_554 S
O46 C62 1.225 . S
Zn47 O46 1.953 1_556 S
Zn47 O48 1.949 1_556 S
Zn47 O54 1.919 1_556 S
Zn47 O59 1.924 . S
O48 Zn47 1.949 1_554 S
O48 Zn49 1.923 . S
O48 Zn50 1.950 . S
O48 Zn51 1.945 1_554 S
Zn49 O48 1.923 . S
Zn49 O52 1.933 . S
Zn49 O55 1.941 . S
Zn49 O56 1.965 . S
Zn50 O48 1.950 . S
Zn50 O57 1.938 . S
Zn50 O58 1.906 . S
Zn50 O68 1.953 . S
Zn51 O48 1.945 1_556 S
Zn51 O53 1.932 . S
Zn51 O60 1.977 . S
Zn51 O61 1.910 . S
O52 Zn49 1.933 . S
O52 C63 1.226 1_554 S
O53 Zn51 1.932 . S
O53 C63 1.307 . S
O54 Zn47 1.919 1_554 S
O54 C65 1.253 . S
O55 Zn49 1.941 . S
O55 C65 1.283 . S
O56 Zn49 1.965 . S
O56 C64 1.303 . S
O57 Zn50 1.938 . S
O57 C64 1.247 . S
O58 Zn50 1.906 . S
O58 C66 1.304 1_554 S
O59 Zn47 1.924 . S
O59 C67 1.311 . S
O60 Zn51 1.977 . S
O60 C66 1.272 . S
O61 Zn51 1.910 . S
O61 C67 1.231 . S
C62 O46 1.225 . S
C62 O68 1.298 . S
C63 O52 1.226 1_556 S
C63 O53 1.307 . S
C64 O56 1.303 . S
C64 O57 1.247 . S
C65 O54 1.253 . S
C65 O55 1.283 . S
C66 O58 1.304 1_556 S
C66 O60 1.272 . S
C67 O59 1.311 . S
C67 O61 1.231 . S
O68 Zn50 1.953 . S
O68 C62 1.298 . S
O69 Zn70 1.953 . S
O69 C85 1.225 . S
Zn70 O69 1.953 . S
Zn70 O71 1.949 . S
Zn70 O77 1.919 . S
Zn70 O82 1.924 . S
O71 Zn70 1.949 . S
O71 Zn72 1.923 . S
O71 Zn73 1.950 . S
O71 Zn74 1.945 . S
Zn72 O71 1.923 . S
Zn72 O75 1.933 . S
Zn72 O78 1.941 . S
Zn72 O79 1.965 . S
Zn73 O71 1.950 . S
Zn73 O80 1.938 . S
Zn73 O81 1.906 . S
Zn73 O91 1.953 . S
Zn74 O71 1.945 . S
Zn74 O76 1.932 . S
Zn74 O83 1.977 . S
Zn74 O84 1.910 . S
O75 Zn72 1.933 . S
O75 C86 1.226 . S
O76 Zn74 1.932 . S
O76 C86 1.307 . S
O77 Zn70 1.919 . S
O77 C88 1.253 . S
O78 Zn72 1.941 . S
O78 C88 1.283 . S
O79 Zn72 1.965 . S
O79 C87 1.303 . S
O80 Zn73 1.938 . S
O80 C87 1.247 . S
O81 Zn73 1.906 . S
O81 C89 1.304 . S
O82 Zn70 1.924 . S
O82 C90 1.311 . S
O83 Zn74 1.977 . S
O83 C89 1.272 . S
O84 Zn74 1.910 . S
O84 C90 1.231 . S
C85 O69 1.225 . S
C85 O91 1.298 . S
C86 O75 1.226 . S
C86 O76 1.307 . S
C87 O79 1.303 . S
C87 O80 1.247 . S
C88 O77 1.253 . S
C88 O78 1.283 . S
C89 O81 1.304 . S
C89 O83 1.272 . S
C90 O82 1.311 . S
C90 O84 1.231 . S
O91 Zn73 1.953 . S
O91 C85 1.298 . S
O92 Zn93 1.953 . S
O92 C108 1.225 . S
Zn93 O92 1.953 . S
Zn93 O94 1.949 . S
Zn93 O100 1.919 . S
Zn93 O105 1.924 . S
O94 Zn93 1.949 . S
O94 Zn95 1.923 . S
O94 Zn96 1.950 . S
O94 Zn97 1.945 . S
Zn95 O94 1.923 . S
Zn95 O98 1.933 . S
Zn95 O101 1.941 . S
Zn95 O102 1.965 . S
Zn96 O94 1.950 . S
Zn96 O103 1.938 . S
Zn96 O104 1.906 . S
Zn96 O114 1.953 . S
Zn97 O94 1.945 . S
Zn97 O99 1.932 . S
Zn97 O106 1.977 . S
Zn97 O107 1.910 . S
O98 Zn95 1.933 . S
O98 C109 1.226 . S
O99 Zn97 1.932 . S
O99 C109 1.307 . S
O100 Zn93 1.919 . S
O100 C111 1.253 . S
O101 Zn95 1.941 . S
O101 C111 1.283 . S
O102 Zn95 1.965 . S
O102 C110 1.303 . S
O103 Zn96 1.938 . S
O103 C110 1.247 . S
O104 Zn96 1.906 . S
O104 C112 1.304 . S
O105 Zn93 1.924 . S
O105 C113 1.311 . S
O106 Zn97 1.977 . S
O106 C112 1.272 . S
O107 Zn97 1.910 . S
O107 C113 1.231 . S
C108 O92 1.225 . S
C108 O114 1.298 . S
C109 O98 1.226 . S
C109 O99 1.307 . S
C110 O102 1.303 . S
C110 O103 1.247 . S
C111 O100 1.253 . S
C111 O101 1.283 . S
C112 O104 1.304 . S
C112 O106 1.272 . S
C113 O105 1.311 . S
C113 O107 1.231 . S
O114 Zn96 1.953 . S
O114 C108 1.298 . S
O115 Zn116 1.953 . S
O115 C131 1.225 . S
Zn116 O115 1.953 . S
Zn116 O117 1.949 . S
Zn116 O123 1.919 . S
Zn116 O128 1.924 . S
O117 Zn116 1.949 . S
O117 Zn118 1.923 . S
O117 Zn119 1.950 . S
O117 Zn120 1.945 . S
Zn118 O117 1.923 . S
Zn118 O121 1.933 . S
Zn118 O124 1.941 . S
Zn118 O125 1.965 . S
Zn119 O117 1.950 . S
Zn119 O126 1.938 . S
Zn119 O127 1.906 . S
Zn119 O137 1.953 . S
Zn120 O117 1.945 . S
Zn120 O122 1.932 . S
Zn120 O129 1.977 . S
Zn120 O130 1.910 . S
O121 Zn118 1.933 . S
O121 C132 1.226 . S
O122 Zn120 1.932 . S
O122 C132 1.307 . S
O123 Zn116 1.919 . S
O123 C134 1.253 . S
O124 Zn118 1.941 . S
O124 C134 1.283 . S
O125 Zn118 1.965 . S
O125 C133 1.303 . S
O126 Zn119 1.938 . S
O126 C133 1.247 . S
O127 Zn119 1.906 . S
O127 C135 1.304 . S
O128 Zn116 1.924 . S
O128 C136 1.311 . S
O129 Zn120 1.977 . S
O129 C135 1.272 . S
O130 Zn120 1.910 . S
O130 C136 1.231 . S
C131 O115 1.225 . S
C131 O137 1.298 . S
C132 O121 1.226 . S
C132 O122 1.307 . S
C133 O125 1.303 . S
C133 O126 1.247 . S
C134 O123 1.253 . S
C134 O124 1.283 . S
C135 O127 1.304 . S
C135 O129 1.272 . S
C136 O128 1.311 . S
C136 O130 1.231 . S
O137 Zn119 1.953 . S
O137 C131 1.298 . S
O138 Zn139 1.953 1_554 S
O138 C154 1.225 . S
Zn139 O138 1.953 1_556 S
Zn139 O140 1.949 1_556 S
Zn139 O146 1.919 1_556 S
Zn139 O151 1.924 . S
O140 Zn139 1.949 1_554 S
O140 Zn141 1.923 . S
O140 Zn142 1.950 . S
O140 Zn143 1.945 1_554 S
Zn141 O140 1.923 . S
Zn141 O144 1.933 . S
Zn141 O147 1.941 . S
Zn141 O148 1.965 . S
Zn142 O140 1.950 . S
Zn142 O149 1.938 . S
Zn142 O150 1.906 . S
Zn142 O160 1.953 . S
Zn143 O140 1.945 1_556 S
Zn143 O145 1.932 . S
Zn143 O152 1.977 . S
Zn143 O153 1.910 . S
O144 Zn141 1.933 . S
O144 C155 1.226 1_554 S
O145 Zn143 1.932 . S
O145 C155 1.307 . S
O146 Zn139 1.919 1_554 S
O146 C157 1.253 . S
O147 Zn141 1.941 . S
O147 C157 1.283 . S
O148 Zn141 1.965 . S
O148 C156 1.303 . S
O149 Zn142 1.938 . S
O149 C156 1.247 . S
O150 Zn142 1.906 . S
O150 C158 1.304 1_554 S
O151 Zn139 1.924 . S
O151 C159 1.311 . S
O152 Zn143 1.977 . S
O152 C158 1.272 . S
O153 Zn143 1.910 . S
O153 C159 1.231 . S
C154 O138 1.225 . S
C154 O160 1.298 . S
C155 O144 1.226 1_556 S
C155 O145 1.307 . S
C156 O148 1.303 . S
C156 O149 1.247 . S
C157 O146 1.253 . S
C157 O147 1.283 . S
C158 O150 1.304 1_556 S
C158 O152 1.272 . S
C159 O151 1.311 . S
C159 O153 1.231 . S
O160 Zn142 1.953 . S
O160 C154 1.298 . S
O161 Zn162 1.953 1_655 S
O161 C177 1.225 . S
Zn162 O161 1.953 1_455 S
Zn162 O163 1.949 . S
Zn162 O169 1.919 . S
Zn162 O174 1.924 . S
O163 Zn162 1.949 . S
O163 Zn164 1.923 . S
O163 Zn165 1.950 1_455 S
O163 Zn166 1.945 . S
Zn164 O163 1.923 . S
Zn164 O167 1.933 . S
Zn164 O170 1.941 . S
Zn164 O171 1.965 . S
Zn165 O163 1.950 1_655 S
Zn165 O172 1.938 . S
Zn165 O173 1.906 . S
Zn165 O183 1.953 . S
Zn166 O163 1.945 . S
Zn166 O168 1.932 . S
Zn166 O175 1.977 1_455 S
Zn166 O176 1.910 . S
O167 Zn164 1.933 . S
O167 C178 1.226 . S
O168 Zn166 1.932 . S
O168 C178 1.307 . S
O169 Zn162 1.919 . S
O169 C180 1.253 . S
O170 Zn164 1.941 . S
O170 C180 1.283 . S
O171 Zn164 1.965 . S
O171 C179 1.303 1_455 S
O172 Zn165 1.938 . S
O172 C179 1.247 . S
O173 Zn165 1.906 . S
O173 C181 1.304 . S
O174 Zn162 1.924 . S
O174 C182 1.311 1_455 S
O175 Zn166 1.977 1_655 S
O175 C181 1.272 . S
O176 Zn166 1.910 . S
O176 C182 1.231 1_455 S
C177 O161 1.225 . S
C177 O183 1.298 . S
C178 O167 1.226 . S
C178 O168 1.307 . S
C179 O171 1.303 1_655 S
C179 O172 1.247 . S
C180 O169 1.253 . S
C180 O170 1.283 . S
C181 O173 1.304 . S
C181 O175 1.272 . S
C182 O174 1.311 1_655 S
C182 O176 1.231 1_655 S
O183 Zn165 1.953 . S
O183 C177 1.298 . S
H184 C202 0.951 . S
H185 C204 0.951 . S
H186 C206 0.950 . S
H187 C207 0.950 . S
H188 C209 0.950 . S
H189 C212 0.950 . S
H190 C213 0.950 . S
H191 C215 0.950 . S
H192 C216 0.950 . S
H193 C217 0.951 . S
H194 C219 0.951 . S
H195 C221 0.950 . S
H196 C222 0.950 . S
H197 C224 0.950 . S
H198 C227 0.950 . S
H199 C228 0.950 . S
H200 C230 0.950 . S
H201 C231 0.950 . S
C202 H184 0.951 . S
C202 C203 1.366 . S
C202 C204 1.388 . S
C203 C202 1.366 . S
C203 C207 1.385 . S
C204 H185 0.951 . S
C204 C202 1.388 . S
C204 C205 1.366 . S
C205 C204 1.366 . S
C205 C206 1.414 . S
C205 C208 1.499 . S
C206 H186 0.950 . S
C206 C205 1.414 . S
C206 C207 1.374 . S
C207 H187 0.950 . S
C207 C203 1.385 . S
C207 C206 1.374 . S
C208 C205 1.499 . S
C208 C209 1.373 . S
C208 C210 1.389 . S
C209 H188 0.950 . S
C209 C208 1.373 . S
C209 C225 1.377 . S
C210 C208 1.389 . S
C210 C211 1.524 . S
C210 C224 1.377 . S
C211 C210 1.524 . S
C211 C212 1.397 . S
C211 C216 1.363 . S
C212 H189 0.950 . S
C212 C211 1.397 . S
C212 C213 1.334 . S
C213 H190 0.950 . S
C213 C212 1.334 . S
C213 C214 1.287 . S
C214 C213 1.287 . S
C214 C215 1.524 . S
C214 H233 0.913 . S
C215 H191 0.950 . S
C215 C214 1.524 . S
C215 C216 1.415 . S
C216 H192 0.950 . S
C216 C211 1.363 . S
C216 C215 1.415 . S
C217 H193 0.951 . S
C217 C218 1.366 . S
C217 C219 1.388 . S
C218 C217 1.366 . S
C218 C222 1.385 . S
C219 H194 0.951 . S
C219 C217 1.388 . S
C219 C220 1.366 . S
C220 C219 1.366 . S
C220 C221 1.414 . S
C220 C223 1.499 . S
C221 H195 0.950 . S
C221 C220 1.414 . S
C221 C222 1.374 . S
C222 H196 0.950 . S
C222 C218 1.385 . S
C222 C221 1.374 . S
C223 C220 1.499 . S
C223 C224 1.373 . S
C223 C225 1.389 . S
C224 H197 0.950 . S
C224 C210 1.377 . S
C224 C223 1.373 . S
C225 C209 1.377 . S
C225 C223 1.389 . S
C225 C226 1.524 . S
C226 C225 1.524 . S
C226 C227 1.397 . S
C226 C231 1.363 . S
C227 H198 0.950 . S
C227 C226 1.397 . S
C227 C228 1.334 . S
C228 H199 0.950 . S
C228 C227 1.334 . S
C228 C229 1.287 . S
C229 C228 1.287 . S
C229 C230 1.524 . S
C229 H232 0.999 . S
C230 H200 0.950 . S
C230 C229 1.524 . S
C230 C231 1.415 . S
C231 H201 0.950 . S
C231 C226 1.363 . S
C231 C230 1.415 . S
H232 C229 0.999 . S
H233 C214 0.913 . S
H234 C252 0.951 . S
H235 C254 0.951 . S
H236 C256 0.943 1_545 S
H237 C257 0.950 . S
H238 C259 0.950 . S
H239 C262 0.950 . S
H240 C263 0.950 . S
H241 C265 0.950 . S
H242 C266 0.950 . S
H243 C267 0.951 . S
H244 C269 0.951 . S
H245 C271 0.950 . S
H246 C272 0.950 . S
H247 C274 0.950 . S
H248 C277 0.950 . S
H249 C278 0.950 . S
H250 C280 0.950 . S
H251 C281 0.950 . S
C252 H234 0.951 . S
C252 C253 1.376 . S
C252 C254 1.388 . S
C253 C252 1.376 . S
C253 C257 1.381 1_565 S
C254 H235 0.951 . S
C254 C252 1.388 . S
C254 C255 1.366 . S
C255 C254 1.366 . S
C255 C256 1.414 . S
C255 C258 1.499 . S
C256 H236 0.943 1_565 S
C256 C255 1.414 . S
C256 C257 1.374 1_565 S
C257 H237 0.950 . S
C257 C253 1.381 1_545 S
C257 C256 1.374 1_545 S
C258 C255 1.499 . S
C258 C259 1.373 . S
C258 C260 1.389 . S
C259 H238 0.950 . S
C259 C258 1.373 . S
C259 C275 1.377 . S
C260 C258 1.389 . S
C260 C261 1.524 . S
C260 C274 1.377 . S
C261 C260 1.524 . S
C261 C262 1.397 . S
C261 C266 1.363 . S
C262 H239 0.950 . S
C262 C261 1.397 . S
C262 C263 1.334 . S
C263 H240 0.950 . S
C263 C262 1.334 . S
C263 C264 1.287 . S
C264 C263 1.287 . S
C264 C265 1.524 . S
C264 H283 0.913 . S
C265 H241 0.950 . S
C265 C264 1.524 . S
C265 C266 1.415 . S
C266 H242 0.950 . S
C266 C261 1.363 . S
C266 C265 1.415 . S
C267 H243 0.951 . S
C267 C268 1.366 . S
C267 C269 1.388 . S
C268 C267 1.366 . S
C268 C272 1.385 . S
C269 H244 0.951 . S
C269 C267 1.388 . S
C269 C270 1.366 . S
C270 C269 1.366 . S
C270 C271 1.414 . S
C270 C273 1.499 . S
C271 H245 0.950 . S
C271 C270 1.414 . S
C271 C272 1.374 . S
C272 H246 0.950 . S
C272 C268 1.385 . S
C272 C271 1.374 . S
C273 C270 1.499 . S
C273 C274 1.373 . S
C273 C275 1.389 . S
C274 H247 0.950 . S
C274 C260 1.377 . S
C274 C273 1.373 . S
C275 C259 1.377 . S
C275 C273 1.389 . S
C275 C276 1.524 . S
C276 C275 1.524 . S
C276 C277 1.397 . S
C276 C281 1.363 . S
C277 H248 0.950 . S
C277 C276 1.397 . S
C277 C278 1.334 . S
C278 H249 0.950 . S
C278 C277 1.334 . S
C278 C279 1.287 . S
C279 C278 1.287 . S
C279 C280 1.524 . S
C279 H282 0.999 . S
C280 H250 0.950 . S
C280 C279 1.524 . S
C280 C281 1.415 . S
C281 H251 0.950 . S
C281 C276 1.363 . S
C281 C280 1.415 . S
H282 C279 0.999 . S
H283 C264 0.913 . S
H284 C302 0.951 . S
H285 C304 0.951 . S
H286 C306 0.950 . S
H287 C307 0.950 . S
H288 C309 0.950 . S
H289 C312 0.950 . S
H290 C313 0.950 . S
H291 C315 0.950 1_545 S
H292 C316 0.967 . S
H293 C317 0.951 . S
H294 C319 0.951 . S
H295 C321 0.950 . S
H296 C322 0.950 . S
H297 C324 0.950 . S
H298 C327 0.950 . S
H299 C328 0.950 . S
H300 C330 0.950 . S
H301 C331 0.950 1_556 S
C302 H284 0.951 . S
C302 C303 1.366 . S
C302 C304 1.388 . S
C303 C302 1.366 . S
C303 C307 1.385 . S
C304 H285 0.951 . S
C304 C302 1.388 . S
C304 C305 1.366 . S
C305 C304 1.366 . S
C305 C306 1.414 . S
C305 C308 1.499 . S
C306 H286 0.950 . S
C306 C305 1.414 . S
C306 C307 1.374 . S
C307 H287 0.950 . S
C307 C303 1.385 . S
C307 C306 1.374 . S
C308 C305 1.499 . S
C308 C309 1.373 . S
C308 C310 1.389 . S
C309 H288 0.950 . S
C309 C308 1.373 . S
C309 C325 1.377 . S
C310 C308 1.389 . S
C310 C311 1.524 . S
C310 C324 1.377 . S
C311 C310 1.524 . S
C311 C312 1.397 . S
C311 C316 1.363 . S
C312 H289 0.950 . S
C312 C311 1.397 . S
C312 C313 1.334 . S
C313 H290 0.950 . S
C313 C312 1.334 . S
C313 C314 1.287 . S
C314 C313 1.287 . S
C314 C315 1.524 . S
C314 H333 0.913 . S
C315 H291 0.950 1_565 S
C315 C314 1.524 . S
C315 C316 1.415 . S
C316 H292 0.967 . S
C316 C311 1.363 . S
C316 C315 1.415 . S
C317 H293 0.951 . S
C317 C318 1.366 . S
C317 C319 1.388 1_545 S
C318 C317 1.366 . S
C318 C322 1.385 . S
C319 H294 0.951 . S
C319 C317 1.388 1_565 S
C319 C320 1.374 . S
C320 C319 1.374 . S
C320 C321 1.377 1_565 S
C320 C323 1.526 . S
C321 H295 0.950 . S
C321 C320 1.377 1_545 S
C321 C322 1.374 . S
C322 H296 0.950 . S
C322 C318 1.385 . S
C322 C321 1.374 . S
C323 C320 1.526 . S
C323 C324 1.373 . S
C323 C325 1.389 . S
C324 H297 0.950 . S
C324 C310 1.377 . S
C324 C323 1.373 . S
C325 C309 1.377 . S
C325 C323 1.389 . S
C325 C326 1.524 1_556 S
C326 C325 1.524 1_554 S
C326 C327 1.397 . S
C326 C331 1.363 . S
C327 H298 0.950 . S
C327 C326 1.397 . S
C327 C328 1.334 . S
C328 H299 0.950 . S
C328 C327 1.334 . S
C328 C329 1.287 . S
C329 C328 1.287 . S
C329 C330 1.524 . S
C329 H332 0.999 . S
C330 H300 0.950 . S
C330 C329 1.524 . S
C330 C331 1.415 . S
C331 H301 0.950 1_554 S
C331 C326 1.363 . S
C331 C330 1.415 . S
H332 C329 0.999 . S
H333 C314 0.913 . S
H334 C352 0.951 . S
H335 C354 0.951 . S
H336 C356 0.950 . S
H337 C357 0.950 . S
H338 C359 0.950 . S
H339 C362 0.950 . S
H340 C363 0.950 . S
H341 C365 0.950 . S
H342 C366 0.950 . S
H343 C367 0.951 . S
H344 C369 0.951 . S
H345 C371 0.950 . S
H346 C372 0.950 . S
H347 C374 0.950 . S
H348 C377 0.950 . S
H349 C378 0.950 . S
H350 C380 0.950 . S
H351 C381 0.950 . S
C352 H334 0.951 . S
C352 C353 1.366 . S
C352 C354 1.388 . S
C353 C352 1.366 . S
C353 C357 1.385 . S
C354 H335 0.951 . S
C354 C352 1.388 . S
C354 C355 1.366 . S
C355 C354 1.366 . S
C355 C356 1.414 . S
C355 C358 1.499 . S
C356 H336 0.950 . S
C356 C355 1.414 . S
C356 C357 1.374 . S
C357 H337 0.950 . S
C357 C353 1.385 . S
C357 C356 1.374 . S
C358 C355 1.499 . S
C358 C359 1.373 . S
C358 C360 1.389 . S
C359 H338 0.950 . S
C359 C358 1.373 . S
C359 C375 1.377 . S
C360 C358 1.389 . S
C360 C361 1.524 . S
C360 C374 1.377 . S
C361 C360 1.524 . S
C361 C362 1.397 . S
C361 C366 1.363 . S
C362 H339 0.950 . S
C362 C361 1.397 . S
C362 C363 1.334 . S
C363 H340 0.950 . S
C363 C362 1.334 . S
C363 C364 1.287 . S
C364 C363 1.287 . S
C364 C365 1.524 . S
C364 H383 0.913 . S
C365 H341 0.950 . S
C365 C364 1.524 . S
C365 C366 1.415 . S
C366 H342 0.950 . S
C366 C361 1.363 . S
C366 C365 1.415 . S
C367 H343 0.951 . S
C367 C368 1.366 . S
C367 C369 1.388 . S
C368 C367 1.366 . S
C368 C372 1.385 . S
C369 H344 0.951 . S
C369 C367 1.388 . S
C369 C370 1.366 . S
C370 C369 1.366 . S
C370 C371 1.414 . S
C370 C373 1.499 . S
C371 H345 0.950 . S
C371 C370 1.414 . S
C371 C372 1.374 . S
C372 H346 0.950 . S
C372 C368 1.385 . S
C372 C371 1.374 . S
C373 C370 1.499 . S
C373 C374 1.373 . S
C373 C375 1.389 . S
C374 H347 0.950 . S
C374 C360 1.377 . S
C374 C373 1.373 . S
C375 C359 1.377 . S
C375 C373 1.389 . S
C375 C376 1.524 . S
C376 C375 1.524 . S
C376 C377 1.397 . S
C376 C381 1.363 . S
C377 H348 0.950 . S
C377 C376 1.397 . S
C377 C378 1.334 1_554 S
C378 H349 0.950 . S
C378 C377 1.334 1_556 S
C378 C379 1.287 . S
C379 C378 1.287 . S
C379 C380 1.524 . S
C379 H382 0.999 . S
C380 H350 0.950 . S
C380 C379 1.524 . S
C380 C381 1.415 1_556 S
C381 H351 0.950 . S
C381 C376 1.363 . S
C381 C380 1.415 1_554 S
H382 C379 0.999 . S
H383 C364 0.913 . S
H384 C402 0.951 . S
H385 C404 0.951 . S
H386 C406 0.950 . S
H387 C407 0.950 . S
H388 C409 0.950 . S
H389 C412 0.950 . S
H390 C413 0.950 . S
H391 C415 0.950 . S
H392 C416 0.950 . S
H393 C417 0.951 . S
H394 C419 0.951 . S
H395 C421 0.950 . S
H396 C422 0.950 . S
H397 C424 0.950 . S
H398 C427 0.950 . S
H399 C428 0.950 . S
H400 C430 0.950 . S
H401 C431 0.950 . S
C402 H384 0.951 . S
C402 C403 1.366 . S
C402 C404 1.388 . S
C403 C402 1.366 . S
C403 C407 1.385 1_545 S
C404 H385 0.951 . S
C404 C402 1.388 . S
C404 C405 1.366 1_545 S
C405 C404 1.366 1_565 S
C405 C406 1.414 . S
C405 C408 1.499 . S
C406 H386 0.950 . S
C406 C405 1.414 . S
C406 C407 1.374 . S
C407 H387 0.950 . S
C407 C403 1.385 1_565 S
C407 C406 1.374 . S
C408 C405 1.499 . S
C408 C409 1.373 . S
C408 C410 1.389 . S
C409 H388 0.950 . S
C409 C408 1.373 . S
C409 C425 1.377 . S
C410 C408 1.389 . S
C410 C411 1.524 . S
C410 C424 1.377 . S
C411 C410 1.524 . S
C411 C412 1.397 . S
C411 C416 1.363 . S
C412 H389 0.950 . S
C412 C411 1.397 . S
C412 C413 1.334 . S
C413 H390 0.950 . S
C413 C412 1.334 . S
C413 C414 1.288 1_565 S
C414 C413 1.288 1_545 S
C414 C415 1.524 . S
C414 H433 0.912 . S
C415 H391 0.950 . S
C415 C414 1.524 . S
C415 C416 1.415 1_545 S
C416 H392 0.950 . S
C416 C411 1.363 . S
C416 C415 1.415 1_565 S
C417 H393 0.951 . S
C417 C418 1.366 . S
C417 C419 1.388 . S
C418 C417 1.366 . S
C418 C422 1.385 . S
C419 H394 0.951 . S
C419 C417 1.388 . S
C419 C420 1.366 . S
C420 C419 1.366 . S
C420 C421 1.414 . S
C420 C423 1.499 . S
C421 H395 0.950 . S
C421 C420 1.414 . S
C421 C422 1.374 . S
C422 H396 0.950 . S
C422 C418 1.385 . S
C422 C421 1.374 . S
C423 C420 1.499 . S
C423 C424 1.373 . S
C423 C425 1.389 . S
C424 H397 0.950 . S
C424 C410 1.377 . S
C424 C423 1.373 . S
C425 C409 1.377 . S
C425 C423 1.389 . S
C425 C426 1.524 . S
C426 C425 1.524 . S
C426 C427 1.397 . S
C426 C431 1.363 . S
C427 H398 0.950 . S
C427 C426 1.397 . S
C427 C428 1.334 . S
C428 H399 0.950 . S
C428 C427 1.334 . S
C428 C429 1.287 . S
C429 C428 1.287 . S
C429 C430 1.524 . S
C429 H432 0.999 . S
C430 H400 0.950 . S
C430 C429 1.524 . S
C430 C431 1.415 . S
C431 H401 0.950 . S
C431 C426 1.363 . S
C431 C430 1.415 . S
H432 C429 0.999 . S
H433 C414 0.912 . S
H434 C452 0.951 . S
H435 C454 0.951 . S
H436 C456 0.950 . S
H437 C457 0.950 . S
H438 C459 0.950 . S
H439 C462 0.950 . S
H440 C463 0.950 . S
H441 C465 0.950 . S
H442 C466 0.950 . S
H443 C467 0.951 . S
H444 C469 0.951 . S
H445 C471 0.950 . S
H446 C472 0.950 . S
H447 C474 0.950 . S
H448 C477 0.950 . S
H449 C478 0.950 . S
H450 C480 0.950 . S
H451 C481 0.950 . S
C452 H434 0.951 . S
C452 C453 1.366 . S
C452 C454 1.388 . S
C453 C452 1.366 . S
C453 C457 1.385 . S
C454 H435 0.951 . S
C454 C452 1.388 . S
C454 C455 1.366 . S
C455 C454 1.366 . S
C455 C456 1.414 . S
C455 C458 1.499 . S
C456 H436 0.950 . S
C456 C455 1.414 . S
C456 C457 1.374 . S
C457 H437 0.950 . S
C457 C453 1.385 . S
C457 C456 1.374 . S
C458 C455 1.499 . S
C458 C459 1.373 . S
C458 C460 1.389 . S
C459 H438 0.950 . S
C459 C458 1.373 . S
C459 C475 1.377 . S
C460 C458 1.389 . S
C460 C461 1.524 . S
C460 C474 1.377 . S
C461 C460 1.524 . S
C461 C462 1.397 . S
C461 C466 1.363 . S
C462 H439 0.950 . S
C462 C461 1.397 . S
C462 C463 1.334 . S
C463 H440 0.950 . S
C463 C462 1.334 . S
C463 C464 1.287 . S
C464 C463 1.287 . S
C464 C465 1.524 . S
C464 H483 0.913 . S
C465 H441 0.950 . S
C465 C464 1.524 . S
C465 C466 1.415 . S
C466 H442 0.950 . S
C466 C461 1.363 . S
C466 C465 1.415 . S
C467 H443 0.951 . S
C467 C468 1.366 . S
C467 C469 1.388 . S
C468 C467 1.366 . S
C468 C472 1.385 . S
C469 H444 0.951 . S
C469 C467 1.388 . S
C469 C470 1.366 . S
C470 C469 1.366 . S
C470 C471 1.414 . S
C470 C473 1.499 . S
C471 H445 0.950 . S
C471 C470 1.414 . S
C471 C472 1.374 . S
C472 H446 0.950 . S
C472 C468 1.385 . S
C472 C471 1.374 . S
C473 C470 1.499 . S
C473 C474 1.373 . S
C473 C475 1.389 . S
C474 H447 0.950 . S
C474 C460 1.377 . S
C474 C473 1.373 . S
C475 C459 1.377 . S
C475 C473 1.389 . S
C475 C476 1.524 . S
C476 C475 1.524 . S
C476 C477 1.397 . S
C476 C481 1.363 . S
C477 H448 0.950 . S
C477 C476 1.397 . S
C477 C478 1.334 . S
C478 H449 0.950 . S
C478 C477 1.334 . S
C478 C479 1.287 . S
C479 C478 1.287 . S
C479 C480 1.524 . S
C479 H482 0.999 . S
C480 H450 0.950 . S
C480 C479 1.524 . S
C480 C481 1.415 . S
C481 H451 0.950 . S
C481 C476 1.363 . S
C481 C480 1.415 . S
H482 C479 0.999 . S
H483 C464 0.913 . S
H484 C502 0.951 . S
H485 C504 0.951 . S
H486 C506 0.950 . S
H487 C507 0.950 . S
H488 C509 0.950 . S
H489 C512 0.950 . S
H490 C513 0.950 . S
H491 C515 0.950 . S
H492 C516 0.950 . S
H493 C517 0.951 . S
H494 C519 0.951 . S
H495 C521 0.950 . S
H496 C522 0.950 . S
H497 C524 0.950 . S
H498 C527 0.950 . S
H499 C528 0.950 . S
H500 C530 0.950 . S
H501 C531 0.950 . S
C502 H484 0.951 . S
C502 C503 1.366 . S
C502 C504 1.388 . S
C503 C502 1.366 . S
C503 C507 1.385 . S
C504 H485 0.951 . S
C504 C502 1.388 . S
C504 C505 1.366 . S
C505 C504 1.366 . S
C505 C506 1.414 . S
C505 C508 1.499 . S
C506 H486 0.950 . S
C506 C505 1.414 . S
C506 C507 1.374 . S
C507 H487 0.950 . S
C507 C503 1.385 . S
C507 C506 1.374 . S
C508 C505 1.499 . S
C508 C509 1.373 . S
C508 C510 1.389 . S
C509 H488 0.950 . S
C509 C508 1.373 . S
C509 C525 1.377 . S
C510 C508 1.389 . S
C510 C511 1.524 . S
C510 C524 1.377 . S
C511 C510 1.524 . S
C511 C512 1.397 . S
C511 C516 1.363 . S
C512 H489 0.950 . S
C512 C511 1.397 . S
C512 C513 1.334 1_554 S
C513 H490 0.950 . S
C513 C512 1.334 1_556 S
C513 C514 1.287 . S
C514 C513 1.287 . S
C514 C515 1.524 . S
C514 H533 0.913 . S
C515 H491 0.950 . S
C515 C514 1.524 . S
C515 C516 1.415 1_556 S
C516 H492 0.950 . S
C516 C511 1.363 . S
C516 C515 1.415 1_554 S
C517 H493 0.951 . S
C517 C518 1.366 . S
C517 C519 1.388 . S
C518 C517 1.366 . S
C518 C522 1.385 . S
C519 H494 0.951 . S
C519 C517 1.388 . S
C519 C520 1.366 . S
C520 C519 1.366 . S
C520 C521 1.414 . S
C520 C523 1.499 . S
C521 H495 0.950 . S
C521 C520 1.414 . S
C521 C522 1.374 . S
C522 H496 0.950 . S
C522 C518 1.385 . S
C522 C521 1.374 . S
C523 C520 1.499 . S
C523 C524 1.373 . S
C523 C525 1.389 . S
C524 H497 0.950 . S
C524 C510 1.377 . S
C524 C523 1.373 . S
C525 C509 1.377 . S
C525 C523 1.389 . S
C525 C526 1.524 . S
C526 C525 1.524 . S
C526 C527 1.397 . S
C526 C531 1.363 . S
C527 H498 0.950 . S
C527 C526 1.397 . S
C527 C528 1.334 . S
C528 H499 0.950 . S
C528 C527 1.334 . S
C528 C529 1.287 . S
C529 C528 1.287 . S
C529 C530 1.524 . S
C529 H532 0.999 . S
C530 H500 0.950 . S
C530 C529 1.524 . S
C530 C531 1.415 . S
C531 H501 0.950 . S
C531 C526 1.363 . S
C531 C530 1.415 . S
H532 C529 0.999 . S
H533 C514 0.913 . S
H534 C552 0.951 . S
H535 C554 0.951 . S
H536 C556 0.950 . S
H537 C557 0.950 . S
H538 C559 0.950 . S
H539 C562 0.950 . S
H540 C563 0.950 1_554 S
H541 C565 0.950 1_545 S
H542 C566 0.950 1_545 S
H543 C567 0.951 1_554 S
H544 C569 0.951 1_565 S
H545 C571 0.950 . S
H546 C572 0.950 . S
H547 C574 0.950 1_545 S
H548 C577 0.950 . S
H549 C578 0.950 . S
H550 C580 0.950 . S
H551 C581 0.950 . S
C552 H534 0.951 . S
C552 C553 1.366 . S
C552 C554 1.388 . S
C553 C552 1.366 . S
C553 C557 1.385 . S
C554 H535 0.951 . S
C554 C552 1.388 . S
C554 C555 1.366 . S
C555 C554 1.366 . S
C555 C556 1.414 . S
C555 C558 1.499 . S
C556 H536 0.950 . S
C556 C555 1.414 . S
C556 C557 1.374 . S
C557 H537 0.950 . S
C557 C553 1.385 . S
C557 C556 1.374 . S
C558 C555 1.499 . S
C558 C559 1.373 . S
C558 C560 1.389 . S
C559 H538 0.950 . S
C559 C558 1.373 . S
C559 C575 1.377 . S
C560 C558 1.389 . S
C560 C561 1.524 . S
C560 C574 1.377 . S
C561 C560 1.524 . S
C561 C562 1.397 . S
C561 C566 1.363 . S
C562 H539 0.950 . S
C562 C561 1.397 . S
C562 C563 1.334 . S
C563 H540 0.950 1_556 S
C563 C562 1.334 . S
C563 C564 1.287 . S
C564 C563 1.287 . S
C564 C565 1.524 . S
C564 H583 0.913 . S
C565 H541 0.950 1_565 S
C565 C564 1.524 . S
C565 C566 1.415 . S
C566 H542 0.950 1_565 S
C566 C561 1.363 . S
C566 C565 1.415 . S
C567 H543 0.951 1_556 S
C567 C568 1.366 . S
C567 C569 1.388 . S
C568 C567 1.366 . S
C568 C572 1.385 . S
C569 H544 0.951 1_545 S
C569 C567 1.388 . S
C569 C570 1.366 . S
C570 C569 1.366 . S
C570 C571 1.414 . S
C570 C573 1.499 1_545 S
C571 H545 0.950 . S
C571 C570 1.414 . S
C571 C572 1.374 . S
C572 H546 0.950 . S
C572 C568 1.385 . S
C572 C571 1.374 . S
C573 C570 1.499 1_565 S
C573 C574 1.373 . S
C573 C575 1.389 . S
C574 H547 0.950 1_565 S
C574 C560 1.377 . S
C574 C573 1.373 . S
C575 C559 1.377 . S
C575 C573 1.389 . S
C575 C576 1.524 . S
C576 C575 1.524 . S
C576 C577 1.397 . S
C576 C581 1.363 . S
C577 H548 0.950 . S
C577 C576 1.397 . S
C577 C578 1.334 . S
C578 H549 0.950 . S
C578 C577 1.334 . S
C578 C579 1.287 . S
C579 C578 1.287 . S
C579 C580 1.524 . S
C579 H582 0.999 . S
C580 H550 0.950 . S
C580 C579 1.524 . S
C580 C581 1.415 . S
C581 H551 0.950 . S
C581 C576 1.363 . S
C581 C580 1.415 . S
H582 C579 0.999 . S
H583 C564 0.913 . S
H584 C602 0.951 . S
H585 C604 0.951 . S
H586 C606 0.950 . S
H587 C607 0.950 . S
H588 C609 0.950 . S
H589 C612 0.950 . S
H590 C613 0.950 . S
H591 C615 0.950 . S
H592 C616 0.950 . S
H593 C617 0.951 . S
H594 C619 0.951 . S
H595 C621 0.950 . S
H596 C622 0.950 . S
H597 C624 0.950 . S
H598 C627 0.952 . S
H599 C628 0.950 . S
H600 C630 0.950 . S
H601 C631 0.950 . S
C602 H584 0.951 . S
C602 C603 1.366 . S
C602 C604 1.388 . S
C603 C602 1.366 . S
C603 C607 1.385 . S
C604 H585 0.951 . S
C604 C602 1.388 . S
C604 C605 1.366 . S
C605 C604 1.366 . S
C605 C606 1.414 . S
C605 C608 1.499 . S
C606 H586 0.950 . S
C606 C605 1.414 . S
C606 C607 1.374 . S
C607 H587 0.950 . S
C607 C603 1.385 . S
C607 C606 1.374 . S
C608 C605 1.499 . S
C608 C609 1.373 . S
C608 C610 1.389 . S
C609 H588 0.950 . S
C609 C608 1.373 . S
C609 C625 1.377 . S
C610 C608 1.389 . S
C610 C611 1.524 . S
C610 C624 1.377 . S
C611 C610 1.524 . S
C611 C612 1.397 . S
C611 C616 1.363 . S
C612 H589 0.950 . S
C612 C611 1.397 . S
C612 C613 1.334 . S
C613 H590 0.950 . S
C613 C612 1.334 . S
C613 C614 1.287 . S
C614 C613 1.287 . S
C614 C615 1.524 . S
C614 H633 0.913 . S
C615 H591 0.950 . S
C615 C614 1.524 . S
C615 C616 1.415 . S
C616 H592 0.950 . S
C616 C611 1.363 . S
C616 C615 1.415 . S
C617 H593 0.951 . S
C617 C618 1.366 . S
C617 C619 1.388 . S
C618 C617 1.366 . S
C618 C622 1.385 . S
C619 H594 0.951 . S
C619 C617 1.388 . S
C619 C620 1.366 . S
C620 C619 1.366 . S
C620 C621 1.414 . S
C620 C623 1.499 . S
C621 H595 0.950 . S
C621 C620 1.414 . S
C621 C622 1.374 . S
C622 H596 0.950 . S
C622 C618 1.385 . S
C622 C621 1.374 . S
C623 C620 1.499 . S
C623 C624 1.373 . S
C623 C625 1.389 . S
C624 H597 0.950 . S
C624 C610 1.377 . S
C624 C623 1.373 . S
C625 C609 1.377 . S
C625 C623 1.389 . S
C625 C626 1.524 . S
C626 C625 1.524 . S
C626 C627 1.399 . S
C626 C631 1.363 . S
C627 H598 0.952 . S
C627 C626 1.399 . S
C627 C628 1.329 1_556 S
C628 H599 0.950 . S
C628 C627 1.329 1_554 S
C628 C629 1.287 . S
C629 C628 1.287 . S
C629 C630 1.524 . S
C629 H632 0.999 . S
C630 H600 0.950 . S
C630 C629 1.524 . S
C630 C631 1.415 1_554 S
C631 H601 0.950 . S
C631 C626 1.363 . S
C631 C630 1.415 1_556 S
H632 C629 0.999 . S
H633 C614 0.913 . S
H634 C652 0.951 . S
H635 C654 0.951 . S
H636 C656 0.950 . S
H637 C657 0.950 . S
H638 C659 0.950 . S
H639 C662 0.950 . S
H640 C663 0.950 . S
H641 C665 0.950 . S
H642 C666 0.950 . S
H643 C667 0.951 . S
H644 C669 0.951 . S
H645 C671 0.950 . S
H646 C672 0.950 . S
H647 C674 0.950 . S
H648 C677 0.950 . S
H649 C678 0.950 . S
H650 C680 0.950 . S
H651 C681 0.950 . S
C652 H634 0.951 . S
C652 C653 1.366 . S
C652 C654 1.388 . S
C653 C652 1.366 . S
C653 C657 1.385 . S
C654 H635 0.951 . S
C654 C652 1.388 . S
C654 C655 1.366 . S
C655 C654 1.366 . S
C655 C656 1.414 . S
C655 C658 1.499 . S
C656 H636 0.950 . S
C656 C655 1.414 . S
C656 C657 1.374 . S
C657 H637 0.950 . S
C657 C653 1.385 . S
C657 C656 1.374 . S
C658 C655 1.499 . S
C658 C659 1.373 . S
C658 C660 1.389 . S
C659 H638 0.950 . S
C659 C658 1.373 . S
C659 C675 1.377 . S
C660 C658 1.389 . S
C660 C661 1.524 . S
C660 C674 1.377 . S
C661 C660 1.524 . S
C661 C662 1.397 . S
C661 C666 1.363 . S
C662 H639 0.950 . S
C662 C661 1.397 . S
C662 C663 1.334 . S
C663 H640 0.950 . S
C663 C662 1.334 . S
C663 C664 1.287 . S
C664 C663 1.287 . S
C664 C665 1.524 . S
C664 H683 0.913 . S
C665 H641 0.950 . S
C665 C664 1.524 . S
C665 C666 1.415 . S
C666 H642 0.950 . S
C666 C661 1.363 . S
C666 C665 1.415 . S
C667 H643 0.951 . S
C667 C668 1.366 . S
C667 C669 1.388 . S
C668 C667 1.366 . S
C668 C672 1.385 . S
C669 H644 0.951 . S
C669 C667 1.388 . S
C669 C670 1.366 . S
C670 C669 1.366 . S
C670 C671 1.414 . S
C670 C673 1.499 . S
C671 H645 0.950 . S
C671 C670 1.414 . S
C671 C672 1.374 . S
C672 H646 0.950 . S
C672 C668 1.385 . S
C672 C671 1.374 . S
C673 C670 1.499 . S
C673 C674 1.373 . S
C673 C675 1.389 . S
C674 H647 0.950 . S
C674 C660 1.377 . S
C674 C673 1.373 . S
C675 C659 1.377 . S
C675 C673 1.389 . S
C675 C676 1.524 . S
C676 C675 1.524 . S
C676 C677 1.397 1_554 S
C676 C681 1.363 . S
C677 H648 0.950 . S
C677 C676 1.397 1_556 S
C677 C678 1.334 . S
C678 H649 0.950 . S
C678 C677 1.334 . S
C678 C679 1.287 . S
C679 C678 1.287 . S
C679 C680 1.524 . S
C679 H682 0.999 . S
C680 H650 0.950 . S
C680 C679 1.524 . S
C680 C681 1.415 1_556 S
C681 H651 0.950 . S
C681 C676 1.363 . S
C681 C680 1.415 1_554 S
H682 C679 0.999 . S
H683 C664 0.913 . S
H684 C702 0.951 . S
H685 C704 0.951 . S
H686 C706 0.950 . S
H687 C707 0.950 . S
H688 C709 0.950 . S
H689 C712 0.950 . S
H690 C713 0.950 . S
H691 C715 0.950 . S
H692 C716 0.950 . S
H693 C717 0.951 . S
H694 C719 0.951 . S
H695 C721 0.950 . S
H696 C722 0.950 . S
H697 C724 0.950 . S
H698 C727 0.950 . S
H699 C728 0.950 . S
H700 C730 0.950 . S
H701 C731 0.950 . S
C702 H684 0.951 . S
C702 C703 1.366 . S
C702 C704 1.388 . S
C703 C702 1.366 . S
C703 C707 1.385 . S
C704 H685 0.951 . S
C704 C702 1.388 . S
C704 C705 1.366 . S
C705 C704 1.366 . S
C705 C706 1.414 . S
C705 C708 1.499 . S
C706 H686 0.950 . S
C706 C705 1.414 . S
C706 C707 1.374 . S
C707 H687 0.950 . S
C707 C703 1.385 . S
C707 C706 1.374 . S
C708 C705 1.499 . S
C708 C709 1.373 . S
C708 C710 1.389 . S
C709 H688 0.950 . S
C709 C708 1.373 . S
C709 C725 1.377 . S
C710 C708 1.389 . S
C710 C711 1.524 . S
C710 C724 1.377 . S
C711 C710 1.524 . S
C711 C712 1.397 . S
C711 C716 1.363 . S
C712 H689 0.950 . S
C712 C711 1.397 . S
C712 C713 1.334 . S
C713 H690 0.950 . S
C713 C712 1.334 . S
C713 C714 1.287 . S
C714 C713 1.287 . S
C714 C715 1.524 . S
C714 H733 0.913 . S
C715 H691 0.950 . S
C715 C714 1.524 . S
C715 C716 1.415 . S
C716 H692 0.950 . S
C716 C711 1.363 . S
C716 C715 1.415 . S
C717 H693 0.951 . S
C717 C718 1.366 . S
C717 C719 1.388 . S
C718 C717 1.366 . S
C718 C722 1.385 . S
C719 H694 0.951 . S
C719 C717 1.388 . S
C719 C720 1.366 . S
C720 C719 1.366 . S
C720 C721 1.414 . S
C720 C723 1.499 . S
C721 H695 0.950 . S
C721 C720 1.414 . S
C721 C722 1.374 . S
C722 H696 0.950 . S
C722 C718 1.385 . S
C722 C721 1.374 . S
C723 C720 1.499 . S
C723 C724 1.373 . S
C723 C725 1.389 . S
C724 H697 0.950 . S
C724 C710 1.377 . S
C724 C723 1.373 . S
C725 C709 1.377 . S
C725 C723 1.389 . S
C725 C726 1.524 . S
C726 C725 1.524 . S
C726 C727 1.397 . S
C726 C731 1.363 . S
C727 H698 0.950 . S
C727 C726 1.397 . S
C727 C728 1.334 . S
C728 H699 0.950 . S
C728 C727 1.334 . S
C728 C729 1.287 . S
C729 C728 1.287 . S
C729 C730 1.524 . S
C729 H732 0.999 . S
C730 H700 0.950 . S
C730 C729 1.524 . S
C730 C731 1.415 . S
C731 H701 0.950 . S
C731 C726 1.363 . S
C731 C730 1.415 . S
H732 C729 0.999 . S
H733 C714 0.913 . S
H734 C752 0.951 . S
H735 C754 0.951 . S
H736 C756 0.950 . S
H737 C757 0.950 . S
H738 C759 0.950 . S
H739 C762 0.950 . S
H740 C763 0.950 . S
H741 C765 0.950 . S
H742 C766 0.950 . S
H743 C767 0.951 . S
H744 C769 0.951 . S
H745 C771 0.950 . S
H746 C772 0.950 . S
H747 C774 0.950 . S
H748 C777 0.950 . S
H749 C778 0.950 . S
H750 C780 0.950 . S
H751 C781 0.950 . S
C752 H734 0.951 . S
C752 C753 1.366 . S
C752 C754 1.388 . S
C753 C752 1.366 . S
C753 C757 1.385 . S
C754 H735 0.951 . S
C754 C752 1.388 . S
C754 C755 1.366 . S
C755 C754 1.366 . S
C755 C756 1.414 . S
C755 C758 1.499 . S
C756 H736 0.950 . S
C756 C755 1.414 . S
C756 C757 1.374 . S
C757 H737 0.950 . S
C757 C753 1.385 . S
C757 C756 1.374 . S
C758 C755 1.499 . S
C758 C759 1.373 . S
C758 C760 1.389 . S
C759 H738 0.950 . S
C759 C758 1.373 . S
C759 C775 1.377 . S
C760 C758 1.389 . S
C760 C761 1.524 . S
C760 C774 1.377 . S
C761 C760 1.524 . S
C761 C762 1.397 . S
C761 C766 1.363 . S
C762 H739 0.950 . S
C762 C761 1.397 . S
C762 C763 1.334 . S
C763 H740 0.950 . S
C763 C762 1.334 . S
C763 C764 1.287 . S
C764 C763 1.287 . S
C764 C765 1.524 . S
C764 H783 0.913 . S
C765 H741 0.950 . S
C765 C764 1.524 . S
C765 C766 1.415 . S
C766 H742 0.950 . S
C766 C761 1.363 . S
C766 C765 1.415 . S
C767 H743 0.951 . S
C767 C768 1.366 . S
C767 C769 1.388 . S
C768 C767 1.366 . S
C768 C772 1.385 . S
C769 H744 0.951 . S
C769 C767 1.388 . S
C769 C770 1.366 . S
C770 C769 1.366 . S
C770 C771 1.414 . S
C770 C773 1.499 . S
C771 H745 0.950 . S
C771 C770 1.414 . S
C771 C772 1.374 . S
C772 H746 0.950 . S
C772 C768 1.385 . S
C772 C771 1.374 . S
C773 C770 1.499 . S
C773 C774 1.373 . S
C773 C775 1.389 . S
C774 H747 0.950 . S
C774 C760 1.377 . S
C774 C773 1.373 . S
C775 C759 1.377 . S
C775 C773 1.389 . S
C775 C776 1.524 . S
C776 C775 1.524 . S
C776 C777 1.397 . S
C776 C781 1.363 . S
C777 H748 0.950 . S
C777 C776 1.397 . S
C777 C778 1.334 . S
C778 H749 0.950 . S
C778 C777 1.334 . S
C778 C779 1.287 . S
C779 C778 1.287 . S
C779 C780 1.524 . S
C779 H782 0.999 . S
C780 H750 0.950 . S
C780 C779 1.524 . S
C780 C781 1.415 . S
C781 H751 0.950 . S
C781 C776 1.363 . S
C781 C780 1.415 . S
H782 C779 0.999 . S
H783 C764 0.913 . S
H784 C802 0.951 . S
H785 C804 0.951 . S
H786 C806 0.950 . S
H787 C807 0.950 . S
H788 C809 0.950 . S
H789 C812 0.950 . S
H790 C813 0.950 . S
H791 C815 0.950 . S
H792 C816 0.950 . S
H793 C817 0.951 1_556 S
H794 C819 0.951 . S
H795 C821 0.950 . S
H796 C822 0.950 . S
H797 C824 0.950 . S
H798 C827 0.950 1_554 S
H799 C828 0.950 . S
H800 C830 0.950 . S
H801 C831 0.950 . S
C802 H784 0.951 . S
C802 C803 1.366 . S
C802 C804 1.388 . S
C803 C802 1.366 . S
C803 C807 1.385 . S
C804 H785 0.951 . S
C804 C802 1.388 . S
C804 C805 1.366 . S
C805 C804 1.366 . S
C805 C806 1.414 . S
C805 C808 1.499 . S
C806 H786 0.950 . S
C806 C805 1.414 . S
C806 C807 1.374 . S
C807 H787 0.950 . S
C807 C803 1.385 . S
C807 C806 1.374 . S
C808 C805 1.499 . S
C808 C809 1.373 . S
C808 C810 1.389 . S
C809 H788 0.950 . S
C809 C808 1.373 . S
C809 C825 1.377 . S
C810 C808 1.389 . S
C810 C811 1.524 . S
C810 C824 1.377 . S
C811 C810 1.524 . S
C811 C812 1.397 . S
C811 C816 1.363 . S
C812 H789 0.950 . S
C812 C811 1.397 . S
C812 C813 1.334 . S
C813 H790 0.950 . S
C813 C812 1.334 . S
C813 C814 1.287 . S
C814 C813 1.287 . S
C814 C815 1.524 . S
C814 H833 0.913 . S
C815 H791 0.950 . S
C815 C814 1.524 . S
C815 C816 1.415 . S
C816 H792 0.950 . S
C816 C811 1.363 . S
C816 C815 1.415 . S
C817 H793 0.951 1_554 S
C817 C818 1.366 . S
C817 C819 1.388 . S
C818 C817 1.366 . S
C818 C822 1.385 . S
C819 H794 0.951 . S
C819 C817 1.388 . S
C819 C820 1.366 . S
C820 C819 1.366 . S
C820 C821 1.414 . S
C820 C823 1.499 . S
C821 H795 0.950 . S
C821 C820 1.414 . S
C821 C822 1.374 . S
C822 H796 0.950 . S
C822 C818 1.385 . S
C822 C821 1.374 . S
C823 C820 1.499 . S
C823 C824 1.373 . S
C823 C825 1.389 . S
C824 H797 0.950 . S
C824 C810 1.377 . S
C824 C823 1.373 . S
C825 C809 1.377 . S
C825 C823 1.389 . S
C825 C826 1.524 1_554 S
C826 C825 1.524 1_556 S
C826 C827 1.397 . S
C826 C831 1.363 . S
C827 H798 0.950 1_556 S
C827 C826 1.397 . S
C827 C828 1.334 . S
C828 H799 0.950 . S
C828 C827 1.334 . S
C828 C829 1.287 . S
C829 C828 1.287 . S
C829 C830 1.524 . S
C829 H832 0.999 . S
C830 H800 0.950 . S
C830 C829 1.524 . S
C830 C831 1.415 . S
C831 H801 0.950 . S
C831 C826 1.363 . S
C831 C830 1.415 . S
H832 C829 0.999 . S
H833 C814 0.913 . S
H834 C852 0.951 . S
H835 C854 0.951 . S
H836 C856 0.950 . S
H837 C857 0.950 1_554 S
H838 C859 0.950 . S
H839 C862 0.950 . S
H840 C863 0.950 . S
H841 C865 0.950 . S
H842 C866 0.950 . S
H843 C867 0.951 . S
H844 C869 0.951 . S
H845 C871 0.950 . S
H846 C872 0.950 . S
H847 C874 0.950 . S
H848 C877 0.950 1_556 S
H849 C878 0.950 . S
H850 C880 0.950 . S
H851 C881 0.950 . S
C852 H834 0.951 . S
C852 C853 1.366 . S
C852 C854 1.388 . S
C853 C852 1.366 . S
C853 C857 1.385 . S
C854 H835 0.951 . S
C854 C852 1.388 . S
C854 C855 1.366 . S
C855 C854 1.366 . S
C855 C856 1.414 . S
C855 C858 1.499 . S
C856 H836 0.950 . S
C856 C855 1.414 . S
C856 C857 1.374 . S
C857 H837 0.950 1_556 S
C857 C853 1.385 . S
C857 C856 1.374 . S
C858 C855 1.499 . S
C858 C859 1.373 . S
C858 C860 1.389 . S
C859 H838 0.950 . S
C859 C858 1.373 . S
C859 C875 1.377 . S
C860 C858 1.389 . S
C860 C861 1.524 . S
C860 C874 1.377 . S
C861 C860 1.524 . S
C861 C862 1.397 . S
C861 C866 1.363 . S
C862 H839 0.950 . S
C862 C861 1.397 . S
C862 C863 1.334 . S
C863 H840 0.950 . S
C863 C862 1.334 . S
C863 C864 1.287 . S
C864 C863 1.287 . S
C864 C865 1.524 . S
C864 H883 0.913 . S
C865 H841 0.950 . S
C865 C864 1.524 . S
C865 C866 1.415 . S
C866 H842 0.950 . S
C866 C861 1.363 . S
C866 C865 1.415 . S
C867 H843 0.951 . S
C867 C868 1.366 . S
C867 C869 1.388 . S
C868 C867 1.366 . S
C868 C872 1.385 . S
C869 H844 0.951 . S
C869 C867 1.388 . S
C869 C870 1.366 . S
C870 C869 1.366 . S
C870 C871 1.414 . S
C870 C873 1.499 . S
C871 H845 0.950 . S
C871 C870 1.414 . S
C871 C872 1.374 . S
C872 H846 0.950 . S
C872 C868 1.385 . S
C872 C871 1.374 . S
C873 C870 1.499 . S
C873 C874 1.373 . S
C873 C875 1.389 . S
C874 H847 0.950 . S
C874 C860 1.377 . S
C874 C873 1.373 . S
C875 C859 1.377 . S
C875 C873 1.389 . S
C875 C876 1.524 . S
C876 C875 1.524 . S
C876 C877 1.397 1_556 S
C876 C881 1.363 1_556 S
C877 H848 0.950 1_554 S
C877 C876 1.397 1_554 S
C877 C878 1.334 . S
C878 H849 0.950 . S
C878 C877 1.334 . S
C878 C879 1.287 . S
C879 C878 1.287 . S
C879 C880 1.524 . S
C879 H882 0.999 . S
C880 H850 0.950 . S
C880 C879 1.524 . S
C880 C881 1.415 . S
C881 H851 0.950 . S
C881 C876 1.363 1_554 S
C881 C880 1.415 . S
H882 C879 0.999 . S
H883 C864 0.913 . S
H884 C902 0.951 . S
H885 C904 0.951 . S
H886 C906 0.950 . S
H887 C907 0.950 . S
H888 C909 0.950 . S
H889 C912 0.950 . S
H890 C913 0.950 . S
H891 C915 0.950 . S
H892 C916 0.950 . S
H893 C917 0.951 . S
H894 C919 0.951 . S
H895 C921 0.950 . S
H896 C922 0.950 . S
H897 C924 0.950 . S
H898 C927 0.950 . S
H899 C928 0.950 . S
H900 C930 0.950 . S
H901 C931 0.950 . S
C902 H884 0.951 . S
C902 C903 1.366 . S
C902 C904 1.388 . S
C903 C902 1.366 . S
C903 C907 1.385 . S
C904 H885 0.951 . S
C904 C902 1.388 . S
C904 C905 1.366 . S
C905 C904 1.366 . S
C905 C906 1.414 . S
C905 C908 1.499 . S
C906 H886 0.950 . S
C906 C905 1.414 . S
C906 C907 1.374 . S
C907 H887 0.950 . S
C907 C903 1.385 . S
C907 C906 1.374 . S
C908 C905 1.499 . S
C908 C909 1.373 . S
C908 C910 1.389 . S
C909 H888 0.950 . S
C909 C908 1.373 . S
C909 C925 1.377 . S
C910 C908 1.389 . S
C910 C911 1.524 . S
C910 C924 1.377 . S
C911 C910 1.524 . S
C911 C912 1.397 . S
C911 C916 1.363 . S
C912 H889 0.950 . S
C912 C911 1.397 . S
C912 C913 1.334 . S
C913 H890 0.950 . S
C913 C912 1.334 . S
C913 C914 1.287 . S
C914 C913 1.287 . S
C914 C915 1.524 . S
C914 H933 0.913 . S
C915 H891 0.950 . S
C915 C914 1.524 . S
C915 C916 1.415 . S
C916 H892 0.950 . S
C916 C911 1.363 . S
C916 C915 1.415 . S
C917 H893 0.951 . S
C917 C918 1.366 . S
C917 C919 1.388 . S
C918 C917 1.366 . S
C918 C922 1.385 . S
C919 H894 0.951 . S
C919 C917 1.388 . S
C919 C920 1.366 . S
C920 C919 1.366 . S
C920 C921 1.414 . S
C920 C923 1.499 . S
C921 H895 0.950 . S
C921 C920 1.414 . S
C921 C922 1.374 . S
C922 H896 0.950 . S
C922 C918 1.385 . S
C922 C921 1.374 . S
C923 C920 1.499 . S
C923 C924 1.373 . S
C923 C925 1.389 . S
C924 H897 0.950 . S
C924 C910 1.377 . S
C924 C923 1.373 . S
C925 C909 1.377 . S
C925 C923 1.389 . S
C925 C926 1.524 . S
C926 C925 1.524 . S
C926 C927 1.397 . S
C926 C931 1.363 . S
C927 H898 0.950 . S
C927 C926 1.397 . S
C927 C928 1.334 . S
C928 H899 0.950 . S
C928 C927 1.334 . S
C928 C929 1.287 . S
C929 C928 1.287 . S
C929 C930 1.524 . S
C929 H932 0.999 . S
C930 H900 0.950 . S
C930 C929 1.524 . S
C930 C931 1.415 . S
C931 H901 0.950 . S
C931 C926 1.363 . S
C931 C930 1.415 . S
H932 C929 0.999 . S
H933 C914 0.913 . S
H934 C952 0.951 . S
H935 C954 0.951 . S
H936 C956 0.950 . S
H937 C957 0.950 . S
H938 C959 0.950 . S
H939 C962 0.950 . S
H940 C963 0.950 . S
H941 C965 0.950 . S
H942 C966 0.950 . S
H943 C967 0.951 . S
H944 C969 0.951 . S
H945 C971 0.950 . S
H946 C972 0.950 . S
H947 C974 0.950 . S
H948 C977 0.950 . S
H949 C978 0.950 . S
H950 C980 0.950 . S
H951 C981 0.950 . S
C952 H934 0.951 . S
C952 C953 1.366 . S
C952 C954 1.388 . S
C953 C952 1.366 . S
C953 C957 1.385 . S
C954 H935 0.951 . S
C954 C952 1.388 . S
C954 C955 1.366 . S
C955 C954 1.366 . S
C955 C956 1.414 . S
C955 C958 1.499 . S
C956 H936 0.950 . S
C956 C955 1.414 . S
C956 C957 1.374 . S
C957 H937 0.950 . S
C957 C953 1.385 . S
C957 C956 1.374 . S
C958 C955 1.499 . S
C958 C959 1.373 . S
C958 C960 1.389 . S
C959 H938 0.950 . S
C959 C958 1.373 . S
C959 C975 1.377 . S
C960 C958 1.389 . S
C960 C961 1.524 . S
C960 C974 1.377 . S
C961 C960 1.524 . S
C961 C962 1.397 . S
C961 C966 1.363 . S
C962 H939 0.950 . S
C962 C961 1.397 . S
C962 C963 1.334 . S
C963 H940 0.950 . S
C963 C962 1.334 . S
C963 C964 1.287 . S
C964 C963 1.287 . S
C964 C965 1.524 . S
C964 H983 0.913 . S
C965 H941 0.950 . S
C965 C964 1.524 . S
C965 C966 1.415 . S
C966 H942 0.950 . S
C966 C961 1.363 . S
C966 C965 1.415 . S
C967 H943 0.951 . S
C967 C968 1.366 . S
C967 C969 1.388 . S
C968 C967 1.366 . S
C968 C972 1.385 . S
C969 H944 0.951 . S
C969 C967 1.388 . S
C969 C970 1.366 . S
C970 C969 1.366 . S
C970 C971 1.414 . S
C970 C973 1.499 . S
C971 H945 0.950 . S
C971 C970 1.414 . S
C971 C972 1.374 . S
C972 H946 0.950 . S
C972 C968 1.385 . S
C972 C971 1.374 . S
C973 C970 1.499 . S
C973 C974 1.373 . S
C973 C975 1.389 . S
C974 H947 0.950 . S
C974 C960 1.377 . S
C974 C973 1.373 . S
C975 C959 1.377 . S
C975 C973 1.389 . S
C975 C976 1.524 . S
C976 C975 1.524 . S
C976 C977 1.397 . S
C976 C981 1.363 . S
C977 H948 0.950 . S
C977 C976 1.397 . S
C977 C978 1.334 . S
C978 H949 0.950 . S
C978 C977 1.334 . S
C978 C979 1.287 . S
C979 C978 1.287 . S
C979 C980 1.524 . S
C979 H982 0.999 . S
C980 H950 0.950 . S
C980 C979 1.524 . S
C980 C981 1.415 . S
C981 H951 0.950 . S
C981 C976 1.363 . S
C981 C980 1.415 . S
H982 C979 0.999 . S
H983 C964 0.913 . S
H984 C1002 0.951 . S
H985 C1004 0.962 . S
H986 C1006 0.950 . S
H987 C1007 0.950 . S
H988 C1009 0.950 . S
H989 C1012 0.950 . S
H990 C1013 0.950 . S
H991 C1015 0.950 1_565 S
H992 C1016 0.950 . S
H993 C1017 0.951 . S
H994 C1019 0.951 . S
H995 C1021 0.950 . S
H996 C1022 0.950 . S
H997 C1024 0.950 . S
H998 C1027 0.950 . S
H999 C1028 0.950 . S
H1000 C1030 0.950 . S
H1001 C1031 0.950 . S
C1002 H984 0.951 . S
C1002 C1003 1.366 . S
C1002 C1004 1.388 . S
C1003 C1002 1.366 . S
C1003 C1007 1.385 . S
C1004 H985 0.962 . S
C1004 C1002 1.388 . S
C1004 C1005 1.366 . S
C1005 C1004 1.366 . S
C1005 C1006 1.414 . S
C1005 C1008 1.499 . S
C1006 H986 0.950 . S
C1006 C1005 1.414 . S
C1006 C1007 1.374 . S
C1007 H987 0.950 . S
C1007 C1003 1.385 . S
C1007 C1006 1.374 . S
C1008 C1005 1.499 . S
C1008 C1009 1.373 . S
C1008 C1010 1.389 1_455 S
C1009 H988 0.950 . S
C1009 C1008 1.373 . S
C1009 C1025 1.377 1_556 S
C1010 C1008 1.389 1_655 S
C1010 C1011 1.524 . S
C1010 C1024 1.377 1_556 S
C1011 C1010 1.524 . S
C1011 C1012 1.397 . S
C1011 C1016 1.363 . S
C1012 H989 0.950 . S
C1012 C1011 1.397 . S
C1012 C1013 1.334 . S
C1013 H990 0.950 . S
C1013 C1012 1.334 . S
C1013 C1014 1.287 . S
C1014 C1013 1.287 . S
C1014 C1015 1.524 . S
C1014 H1033 0.913 . S
C1015 H991 0.950 1_545 S
C1015 C1014 1.524 . S
C1015 C1016 1.415 . S
C1016 H992 0.950 . S
C1016 C1011 1.363 . S
C1016 C1015 1.415 . S
C1017 H993 0.951 . S
C1017 C1018 1.366 . S
C1017 C1019 1.388 . S
C1018 C1017 1.366 . S
C1018 C1022 1.385 . S
C1019 H994 0.951 . S
C1019 C1017 1.388 . S
C1019 C1020 1.366 . S
C1020 C1019 1.366 . S
C1020 C1021 1.414 . S
C1020 C1023 1.499 . S
C1021 H995 0.950 . S
C1021 C1020 1.414 . S
C1021 C1022 1.374 . S
C1022 H996 0.950 . S
C1022 C1018 1.385 . S
C1022 C1021 1.374 . S
C1023 C1020 1.499 . S
C1023 C1024 1.373 1_455 S
C1023 C1025 1.389 . S
C1024 H997 0.950 . S
C1024 C1010 1.377 1_554 S
C1024 C1023 1.373 1_655 S
C1025 C1009 1.377 1_554 S
C1025 C1023 1.389 . S
C1025 C1026 1.524 . S
C1026 C1025 1.524 . S
C1026 C1027 1.397 . S
C1026 C1031 1.363 . S
C1027 H998 0.950 . S
C1027 C1026 1.397 . S
C1027 C1028 1.334 . S
C1028 H999 0.950 . S
C1028 C1027 1.334 . S
C1028 C1029 1.287 . S
C1029 C1028 1.287 . S
C1029 C1030 1.524 . S
C1029 H1032 0.999 . S
C1030 H1000 0.950 . S
C1030 C1029 1.524 . S
C1030 C1031 1.415 . S
C1031 H1001 0.950 . S
C1031 C1026 1.363 . S
C1031 C1030 1.415 . S
H1032 C1029 0.999 . S
H1033 C1014 0.913 . S
H1034 C1052 0.951 . S
H1035 C1054 0.951 . S
H1036 C1056 0.950 . S
H1037 C1057 0.950 . S
H1038 C1059 0.950 . S
H1039 C1062 0.950 . S
H1040 C1063 0.950 . S
H1041 C1065 0.950 . S
H1042 C1066 0.950 . S
H1043 C1067 0.951 1_556 S
H1044 C1069 0.951 . S
H1045 C1071 0.950 . S
H1046 C1072 0.950 1_556 S
H1047 C1074 0.950 . S
H1048 C1077 0.950 . S
H1049 C1078 0.950 . S
H1050 C1080 0.950 . S
H1051 C1081 0.950 . S
C1052 H1034 0.951 . S
C1052 C1053 1.366 . S
C1052 C1054 1.388 . S
C1053 C1052 1.366 . S
C1053 C1057 1.385 . S
C1054 H1035 0.951 . S
C1054 C1052 1.388 . S
C1054 C1055 1.366 . S
C1055 C1054 1.366 . S
C1055 C1056 1.414 . S
C1055 C1058 1.499 . S
C1056 H1036 0.950 . S
C1056 C1055 1.414 . S
C1056 C1057 1.374 . S
C1057 H1037 0.950 . S
C1057 C1053 1.385 . S
C1057 C1056 1.374 . S
C1058 C1055 1.499 . S
C1058 C1059 1.373 . S
C1058 C1060 1.389 . S
C1059 H1038 0.950 . S
C1059 C1058 1.373 . S
C1059 C1075 1.377 . S
C1060 C1058 1.389 . S
C1060 C1061 1.524 . S
C1060 C1074 1.377 . S
C1061 C1060 1.524 . S
C1061 C1062 1.397 . S
C1061 C1066 1.363 . S
C1062 H1039 0.950 . S
C1062 C1061 1.397 . S
C1062 C1063 1.334 . S
C1063 H1040 0.950 . S
C1063 C1062 1.334 . S
C1063 C1064 1.287 . S
C1064 C1063 1.287 . S
C1064 C1065 1.524 . S
C1064 H1083 0.913 . S
C1065 H1041 0.950 . S
C1065 C1064 1.524 . S
C1065 C1066 1.415 . S
C1066 H1042 0.950 . S
C1066 C1061 1.363 . S
C1066 C1065 1.415 . S
C1067 H1043 0.951 1_554 S
C1067 C1068 1.366 1_554 S
C1067 C1069 1.388 . S
C1068 C1067 1.366 1_556 S
C1068 C1072 1.385 1_556 S
C1069 H1044 0.951 . S
C1069 C1067 1.388 . S
C1069 C1070 1.366 . S
C1070 C1069 1.366 . S
C1070 C1071 1.414 . S
C1070 C1073 1.499 . S
C1071 H1045 0.950 . S
C1071 C1070 1.414 . S
C1071 C1072 1.374 . S
C1072 H1046 0.950 1_554 S
C1072 C1068 1.385 1_554 S
C1072 C1071 1.374 . S
C1073 C1070 1.499 . S
C1073 C1074 1.373 . S
C1073 C1075 1.389 . S
C1074 H1047 0.950 . S
C1074 C1060 1.377 . S
C1074 C1073 1.373 . S
C1075 C1059 1.377 . S
C1075 C1073 1.389 . S
C1075 C1076 1.524 . S
C1076 C1075 1.524 . S
C1076 C1077 1.397 . S
C1076 C1081 1.363 . S
C1077 H1048 0.950 . S
C1077 C1076 1.397 . S
C1077 C1078 1.334 . S
C1078 H1049 0.950 . S
C1078 C1077 1.334 . S
C1078 C1079 1.287 . S
C1079 C1078 1.287 . S
C1079 C1080 1.524 . S
C1079 H1082 0.999 . S
C1080 H1050 0.950 . S
C1080 C1079 1.524 . S
C1080 C1081 1.415 . S
C1081 H1051 0.950 . S
C1081 C1076 1.363 . S
C1081 C1080 1.415 . S
H1082 C1079 0.999 . S
H1083 C1064 0.913 . S
H1084 C1102 0.951 . S
H1085 C1104 0.951 . S
H1086 C1106 0.950 . S
H1087 C1107 0.950 . S
H1088 C1109 0.950 . S
H1089 C1112 0.950 . S
H1090 C1113 0.950 . S
H1091 C1115 0.950 . S
H1092 C1116 0.950 . S
H1093 C1117 0.951 . S
H1094 C1119 0.951 . S
H1095 C1121 0.950 . S
H1096 C1122 0.950 . S
H1097 C1124 0.950 . S
H1098 C1127 0.950 . S
H1099 C1128 0.950 . S
H1100 C1130 0.950 . S
H1101 C1131 0.950 . S
C1102 H1084 0.951 . S
C1102 C1103 1.366 . S
C1102 C1104 1.388 . S
C1103 C1102 1.366 . S
C1103 C1107 1.385 . S
C1104 H1085 0.951 . S
C1104 C1102 1.388 . S
C1104 C1105 1.366 . S
C1105 C1104 1.366 . S
C1105 C1106 1.414 . S
C1105 C1108 1.499 . S
C1106 H1086 0.950 . S
C1106 C1105 1.414 . S
C1106 C1107 1.374 . S
C1107 H1087 0.950 . S
C1107 C1103 1.385 . S
C1107 C1106 1.374 . S
C1108 C1105 1.499 . S
C1108 C1109 1.373 . S
C1108 C1110 1.389 . S
C1109 H1088 0.950 . S
C1109 C1108 1.373 . S
C1109 C1125 1.377 . S
C1110 C1108 1.389 . S
C1110 C1111 1.524 . S
C1110 C1124 1.377 . S
C1111 C1110 1.524 . S
C1111 C1112 1.397 . S
C1111 C1116 1.363 . S
C1112 H1089 0.950 . S
C1112 C1111 1.397 . S
C1112 C1113 1.334 . S
C1113 H1090 0.950 . S
C1113 C1112 1.334 . S
C1113 C1114 1.287 . S
C1114 C1113 1.287 . S
C1114 C1115 1.524 . S
C1114 H1133 0.913 . S
C1115 H1091 0.950 . S
C1115 C1114 1.524 . S
C1115 C1116 1.415 . S
C1116 H1092 0.950 . S
C1116 C1111 1.363 . S
C1116 C1115 1.415 . S
C1117 H1093 0.951 . S
C1117 C1118 1.366 . S
C1117 C1119 1.388 . S
C1118 C1117 1.366 . S
C1118 C1122 1.385 . S
C1119 H1094 0.951 . S
C1119 C1117 1.388 . S
C1119 C1120 1.366 . S
C1120 C1119 1.366 . S
C1120 C1121 1.414 . S
C1120 C1123 1.499 . S
C1121 H1095 0.950 . S
C1121 C1120 1.414 . S
C1121 C1122 1.374 . S
C1122 H1096 0.950 . S
C1122 C1118 1.385 . S
C1122 C1121 1.374 . S
C1123 C1120 1.499 . S
C1123 C1124 1.373 . S
C1123 C1125 1.389 . S
C1124 H1097 0.950 . S
C1124 C1110 1.377 . S
C1124 C1123 1.373 . S
C1125 C1109 1.377 . S
C1125 C1123 1.389 . S
C1125 C1126 1.524 . S
C1126 C1125 1.524 . S
C1126 C1127 1.397 . S
C1126 C1131 1.363 . S
C1127 H1098 0.950 . S
C1127 C1126 1.397 . S
C1127 C1128 1.334 . S
C1128 H1099 0.950 . S
C1128 C1127 1.334 . S
C1128 C1129 1.287 . S
C1129 C1128 1.287 . S
C1129 C1130 1.524 . S
C1129 H1132 0.999 . S
C1130 H1100 0.950 . S
C1130 C1129 1.524 . S
C1130 C1131 1.415 . S
C1131 H1101 0.950 . S
C1131 C1126 1.363 . S
C1131 C1130 1.415 . S
H1132 C1129 0.999 . S
H1133 C1114 0.913 . S
H1134 C1152 0.951 . S
H1135 C1154 0.951 . S
H1136 C1156 0.950 . S
H1137 C1157 0.950 . S
H1138 C1159 0.950 . S
H1139 C1162 0.950 . S
H1140 C1163 0.950 . S
H1141 C1165 0.950 . S
H1142 C1166 0.950 . S
H1143 C1167 0.951 . S
H1144 C1169 0.951 . S
H1145 C1171 0.950 . S
H1146 C1172 0.950 . S
H1147 C1174 0.950 . S
H1148 C1177 0.950 . S
H1149 C1178 0.950 . S
H1150 C1180 0.950 . S
H1151 C1181 0.950 . S
C1152 H1134 0.951 . S
C1152 C1153 1.366 . S
C1152 C1154 1.388 1_554 S
C1153 C1152 1.366 . S
C1153 C1157 1.385 . S
C1154 H1135 0.951 . S
C1154 C1152 1.388 1_556 S
C1154 C1155 1.366 . S
C1155 C1154 1.366 . S
C1155 C1156 1.414 . S
C1155 C1158 1.499 . S
C1156 H1136 0.950 . S
C1156 C1155 1.414 . S
C1156 C1157 1.374 1_556 S
C1157 H1137 0.950 . S
C1157 C1153 1.385 . S
C1157 C1156 1.374 1_554 S
C1158 C1155 1.499 . S
C1158 C1159 1.373 . S
C1158 C1160 1.389 . S
C1159 H1138 0.950 . S
C1159 C1158 1.373 . S
C1159 C1175 1.377 . S
C1160 C1158 1.389 . S
C1160 C1161 1.524 . S
C1160 C1174 1.377 . S
C1161 C1160 1.524 . S
C1161 C1162 1.397 . S
C1161 C1166 1.363 . S
C1162 H1139 0.950 . S
C1162 C1161 1.397 . S
C1162 C1163 1.334 . S
C1163 H1140 0.950 . S
C1163 C1162 1.334 . S
C1163 C1164 1.287 . S
C1164 C1163 1.287 . S
C1164 C1165 1.524 . S
C1164 H1183 0.913 . S
C1165 H1141 0.950 . S
C1165 C1164 1.524 . S
C1165 C1166 1.415 . S
C1166 H1142 0.950 . S
C1166 C1161 1.363 . S
C1166 C1165 1.415 . S
C1167 H1143 0.951 . S
C1167 C1168 1.366 . S
C1167 C1169 1.388 . S
C1168 C1167 1.366 . S
C1168 C1172 1.385 . S
C1169 H1144 0.951 . S
C1169 C1167 1.388 . S
C1169 C1170 1.366 . S
C1170 C1169 1.366 . S
C1170 C1171 1.414 . S
C1170 C1173 1.499 . S
C1171 H1145 0.950 . S
C1171 C1170 1.414 . S
C1171 C1172 1.374 . S
C1172 H1146 0.950 . S
C1172 C1168 1.385 . S
C1172 C1171 1.374 . S
C1173 C1170 1.499 . S
C1173 C1174 1.373 . S
C1173 C1175 1.389 . S
C1174 H1147 0.950 . S
C1174 C1160 1.377 . S
C1174 C1173 1.373 . S
C1175 C1159 1.377 . S
C1175 C1173 1.389 . S
C1175 C1176 1.524 . S
C1176 C1175 1.524 . S
C1176 C1177 1.397 . S
C1176 C1181 1.363 . S
C1177 H1148 0.950 . S
C1177 C1176 1.397 . S
C1177 C1178 1.334 . S
C1178 H1149 0.950 . S
C1178 C1177 1.334 . S
C1178 C1179 1.287 . S
C1179 C1178 1.287 . S
C1179 C1180 1.524 . S
C1179 H1182 0.999 . S
C1180 H1150 0.950 . S
C1180 C1179 1.524 . S
C1180 C1181 1.415 . S
C1181 H1151 0.950 . S
C1181 C1176 1.363 . S
C1181 C1180 1.415 . S
H1182 C1179 0.999 . S
H1183 C1164 0.913 . S
H1184 C1202 0.951 . S
H1185 C1204 0.951 . S
H1186 C1206 0.950 . S
H1187 C1207 0.950 . S
H1188 C1209 0.950 . S
H1189 C1212 0.950 . S
H1190 C1213 0.950 . S
H1191 C1215 0.950 . S
H1192 C1216 0.950 . S
H1193 C1217 0.951 . S
H1194 C1219 0.951 . S
H1195 C1221 0.950 . S
H1196 C1222 0.950 . S
H1197 C1224 0.950 . S
H1198 C1227 0.950 . S
H1199 C1228 0.950 . S
H1200 C1230 0.950 . S
H1201 C1231 0.950 . S
C1202 H1184 0.951 . S
C1202 C1203 1.366 . S
C1202 C1204 1.388 1_554 S
C1203 C1202 1.366 . S
C1203 C1207 1.385 . S
C1204 H1185 0.951 . S
C1204 C1202 1.388 1_556 S
C1204 C1205 1.366 . S
C1205 C1204 1.366 . S
C1205 C1206 1.414 . S
C1205 C1208 1.499 . S
C1206 H1186 0.950 . S
C1206 C1205 1.414 . S
C1206 C1207 1.374 1_556 S
C1207 H1187 0.950 . S
C1207 C1203 1.385 . S
C1207 C1206 1.374 1_554 S
C1208 C1205 1.499 . S
C1208 C1209 1.373 . S
C1208 C1210 1.389 . S
C1209 H1188 0.950 . S
C1209 C1208 1.373 . S
C1209 C1225 1.377 . S
C1210 C1208 1.389 . S
C1210 C1211 1.524 . S
C1210 C1224 1.377 . S
C1211 C1210 1.524 . S
C1211 C1212 1.397 . S
C1211 C1216 1.363 . S
C1212 H1189 0.950 . S
C1212 C1211 1.397 . S
C1212 C1213 1.334 . S
C1213 H1190 0.950 . S
C1213 C1212 1.334 . S
C1213 C1214 1.287 . S
C1214 C1213 1.287 . S
C1214 C1215 1.524 . S
C1214 H1233 0.913 . S
C1215 H1191 0.950 . S
C1215 C1214 1.524 . S
C1215 C1216 1.415 . S
C1216 H1192 0.950 . S
C1216 C1211 1.363 . S
C1216 C1215 1.415 . S
C1217 H1193 0.951 . S
C1217 C1218 1.366 . S
C1217 C1219 1.388 . S
C1218 C1217 1.366 . S
C1218 C1222 1.385 . S
C1219 H1194 0.951 . S
C1219 C1217 1.388 . S
C1219 C1220 1.366 . S
C1220 C1219 1.366 . S
C1220 C1221 1.414 . S
C1220 C1223 1.499 . S
C1221 H1195 0.950 . S
C1221 C1220 1.414 . S
C1221 C1222 1.374 . S
C1222 H1196 0.950 . S
C1222 C1218 1.385 . S
C1222 C1221 1.374 . S
C1223 C1220 1.499 . S
C1223 C1224 1.373 . S
C1223 C1225 1.389 . S
C1224 H1197 0.950 . S
C1224 C1210 1.377 . S
C1224 C1223 1.373 . S
C1225 C1209 1.377 . S
C1225 C1223 1.389 . S
C1225 C1226 1.524 . S
C1226 C1225 1.524 . S
C1226 C1227 1.397 . S
C1226 C1231 1.363 . S
C1227 H1198 0.950 . S
C1227 C1226 1.397 . S
C1227 C1228 1.334 . S
C1228 H1199 0.950 . S
C1228 C1227 1.334 . S
C1228 C1229 1.287 . S
C1229 C1228 1.287 . S
C1229 C1230 1.524 . S
C1229 H1232 0.999 . S
C1230 H1200 0.950 . S
C1230 C1229 1.524 . S
C1230 C1231 1.415 . S
C1231 H1201 0.950 . S
C1231 C1226 1.363 . S
C1231 C1230 1.415 . S
H1232 C1229 0.999 . S
H1233 C1214 0.913 . S
H1234 C1252 0.951 . S
H1235 C1254 0.951 . S
H1236 C1256 0.950 . S
H1237 C1257 0.950 . S
H1238 C1259 0.950 . S
H1239 C1262 0.950 . S
H1240 C1263 0.950 . S
H1241 C1265 0.950 . S
H1242 C1266 0.950 . S
H1243 C1267 0.951 1_556 S
H1244 C1269 0.951 . S
H1245 C1271 0.950 . S
H1246 C1272 0.950 1_556 S
H1247 C1274 0.950 . S
H1248 C1277 0.950 . S
H1249 C1278 0.950 . S
H1250 C1280 0.950 . S
H1251 C1281 0.950 . S
C1252 H1234 0.951 . S
C1252 C1253 1.366 . S
C1252 C1254 1.388 . S
C1253 C1252 1.366 . S
C1253 C1257 1.385 . S
C1254 H1235 0.951 . S
C1254 C1252 1.388 . S
C1254 C1255 1.366 . S
C1255 C1254 1.366 . S
C1255 C1256 1.414 . S
C1255 C1258 1.499 . S
C1256 H1236 0.950 . S
C1256 C1255 1.414 . S
C1256 C1257 1.374 . S
C1257 H1237 0.950 . S
C1257 C1253 1.385 . S
C1257 C1256 1.374 . S
C1258 C1255 1.499 . S
C1258 C1259 1.373 . S
C1258 C1260 1.389 . S
C1259 H1238 0.950 . S
C1259 C1258 1.373 . S
C1259 C1275 1.377 . S
C1260 C1258 1.389 . S
C1260 C1261 1.524 . S
C1260 C1274 1.377 . S
C1261 C1260 1.524 . S
C1261 C1262 1.397 . S
C1261 C1266 1.363 . S
C1262 H1239 0.950 . S
C1262 C1261 1.397 . S
C1262 C1263 1.334 . S
C1263 H1240 0.950 . S
C1263 C1262 1.334 . S
C1263 C1264 1.287 . S
C1264 C1263 1.287 . S
C1264 C1265 1.524 . S
C1264 H1283 0.913 . S
C1265 H1241 0.950 . S
C1265 C1264 1.524 . S
C1265 C1266 1.415 . S
C1266 H1242 0.950 . S
C1266 C1261 1.363 . S
C1266 C1265 1.415 . S
C1267 H1243 0.951 1_554 S
C1267 C1268 1.366 1_554 S
C1267 C1269 1.388 . S
C1268 C1267 1.366 1_556 S
C1268 C1272 1.385 1_556 S
C1269 H1244 0.951 . S
C1269 C1267 1.388 . S
C1269 C1270 1.366 . S
C1270 C1269 1.366 . S
C1270 C1271 1.414 . S
C1270 C1273 1.499 . S
C1271 H1245 0.950 . S
C1271 C1270 1.414 . S
C1271 C1272 1.374 . S
C1272 H1246 0.950 1_554 S
C1272 C1268 1.385 1_554 S
C1272 C1271 1.374 . S
C1273 C1270 1.499 . S
C1273 C1274 1.373 . S
C1273 C1275 1.389 . S
C1274 H1247 0.950 . S
C1274 C1260 1.377 . S
C1274 C1273 1.373 . S
C1275 C1259 1.377 . S
C1275 C1273 1.389 . S
C1275 C1276 1.524 . S
C1276 C1275 1.524 . S
C1276 C1277 1.397 . S
C1276 C1281 1.363 . S
C1277 H1248 0.950 . S
C1277 C1276 1.397 . S
C1277 C1278 1.334 . S
C1278 H1249 0.950 . S
C1278 C1277 1.334 . S
C1278 C1279 1.287 . S
C1279 C1278 1.287 . S
C1279 C1280 1.524 . S
C1279 H1282 0.999 . S
C1280 H1250 0.950 . S
C1280 C1279 1.524 . S
C1280 C1281 1.415 . S
C1281 H1251 0.950 . S
C1281 C1276 1.363 . S
C1281 C1280 1.415 . S
H1282 C1279 0.999 . S
H1283 C1264 0.913 . S
H1284 C1302 0.951 . S
H1285 C1304 0.951 . S
H1286 C1306 0.950 . S
H1287 C1307 0.950 . S
H1288 C1309 0.950 . S
H1289 C1312 0.950 . S
H1290 C1313 0.950 . S
H1291 C1315 0.950 . S
H1292 C1316 0.950 . S
H1293 C1317 0.951 . S
H1294 C1319 0.951 . S
H1295 C1321 0.950 . S
H1296 C1322 0.950 . S
H1297 C1324 0.950 . S
H1298 C1327 0.950 . S
H1299 C1328 0.950 . S
H1300 C1330 0.950 . S
H1301 C1331 0.950 . S
C1302 H1284 0.951 . S
C1302 C1303 1.366 . S
C1302 C1304 1.388 . S
C1303 C1302 1.366 . S
C1303 C1307 1.385 . S
C1304 H1285 0.951 . S
C1304 C1302 1.388 . S
C1304 C1305 1.366 . S
C1305 C1304 1.366 . S
C1305 C1306 1.414 . S
C1305 C1308 1.499 . S
C1306 H1286 0.950 . S
C1306 C1305 1.414 . S
C1306 C1307 1.374 . S
C1307 H1287 0.950 . S
C1307 C1303 1.385 . S
C1307 C1306 1.374 . S
C1308 C1305 1.499 . S
C1308 C1309 1.373 . S
C1308 C1310 1.389 . S
C1309 H1288 0.950 . S
C1309 C1308 1.373 . S
C1309 C1325 1.377 . S
C1310 C1308 1.389 . S
C1310 C1311 1.524 . S
C1310 C1324 1.377 . S
C1311 C1310 1.524 . S
C1311 C1312 1.397 . S
C1311 C1316 1.363 . S
C1312 H1289 0.950 . S
C1312 C1311 1.397 . S
C1312 C1313 1.334 . S
C1313 H1290 0.950 . S
C1313 C1312 1.334 . S
C1313 C1314 1.287 . S
C1314 C1313 1.287 . S
C1314 C1315 1.524 . S
C1314 H1333 0.913 . S
C1315 H1291 0.950 . S
C1315 C1314 1.524 . S
C1315 C1316 1.415 . S
C1316 H1292 0.950 . S
C1316 C1311 1.363 . S
C1316 C1315 1.415 . S
C1317 H1293 0.951 . S
C1317 C1318 1.366 . S
C1317 C1319 1.388 . S
C1318 C1317 1.366 . S
C1318 C1322 1.385 . S
C1319 H1294 0.951 . S
C1319 C1317 1.388 . S
C1319 C1320 1.366 . S
C1320 C1319 1.366 . S
C1320 C1321 1.414 . S
C1320 C1323 1.499 . S
C1321 H1295 0.950 . S
C1321 C1320 1.414 . S
C1321 C1322 1.374 . S
C1322 H1296 0.950 . S
C1322 C1318 1.385 . S
C1322 C1321 1.374 . S
C1323 C1320 1.499 . S
C1323 C1324 1.373 . S
C1323 C1325 1.389 . S
C1324 H1297 0.950 . S
C1324 C1310 1.377 . S
C1324 C1323 1.373 . S
C1325 C1309 1.377 . S
C1325 C1323 1.389 . S
C1325 C1326 1.524 . S
C1326 C1325 1.524 . S
C1326 C1327 1.397 . S
C1326 C1331 1.363 . S
C1327 H1298 0.950 . S
C1327 C1326 1.397 . S
C1327 C1328 1.334 . S
C1328 H1299 0.950 . S
C1328 C1327 1.334 . S
C1328 C1329 1.287 . S
C1329 C1328 1.287 . S
C1329 C1330 1.524 . S
C1329 H1332 0.999 . S
C1330 H1300 0.950 . S
C1330 C1329 1.524 . S
C1330 C1331 1.415 . S
C1331 H1301 0.950 . S
C1331 C1326 1.363 . S
C1331 C1330 1.415 . S
H1332 C1329 0.999 . S
H1333 C1314 0.913 . S
H1334 C1352 0.951 . S
H1335 C1354 0.951 . S
H1336 C1356 0.950 . S
H1337 C1357 0.950 . S
H1338 C1359 0.950 . S
H1339 C1362 0.950 . S
H1340 C1363 0.950 . S
H1341 C1365 0.950 . S
H1342 C1366 0.950 1_554 S
H1343 C1367 0.951 . S
H1344 C1369 0.951 . S
H1345 C1371 0.950 . S
H1346 C1372 0.950 . S
H1347 C1374 0.950 . S
H1348 C1377 0.950 . S
H1349 C1378 0.950 . S
H1350 C1380 0.950 . S
H1351 C1381 0.950 . S
C1352 H1334 0.951 . S
C1352 C1353 1.366 . S
C1352 C1354 1.388 . S
C1353 C1352 1.366 . S
C1353 C1357 1.385 1_655 S
C1354 H1335 0.951 . S
C1354 C1352 1.388 . S
C1354 C1355 1.366 . S
C1355 C1354 1.366 . S
C1355 C1356 1.414 1_655 S
C1355 C1358 1.499 . S
C1356 H1336 0.950 . S
C1356 C1355 1.414 1_455 S
C1356 C1357 1.374 . S
C1357 H1337 0.950 . S
C1357 C1353 1.385 1_455 S
C1357 C1356 1.374 . S
C1358 C1355 1.499 . S
C1358 C1359 1.373 1_655 S
C1358 C1360 1.389 . S
C1359 H1338 0.950 . S
C1359 C1358 1.373 1_455 S
C1359 C1375 1.377 1_556 S
C1360 C1358 1.389 . S
C1360 C1361 1.524 . S
C1360 C1374 1.377 1_556 S
C1361 C1360 1.524 . S
C1361 C1362 1.397 . S
C1361 C1366 1.363 . S
C1362 H1339 0.950 . S
C1362 C1361 1.397 . S
C1362 C1363 1.334 . S
C1363 H1340 0.950 . S
C1363 C1362 1.334 . S
C1363 C1364 1.287 . S
C1364 C1363 1.287 . S
C1364 C1365 1.524 . S
C1364 H1383 0.913 . S
C1365 H1341 0.950 . S
C1365 C1364 1.524 . S
C1365 C1366 1.415 . S
C1366 H1342 0.950 1_556 S
C1366 C1361 1.363 . S
C1366 C1365 1.415 . S
C1367 H1343 0.951 . S
C1367 C1368 1.366 1_455 S
C1367 C1369 1.388 . S
C1368 C1367 1.366 1_655 S
C1368 C1372 1.385 . S
C1369 H1344 0.951 . S
C1369 C1367 1.388 . S
C1369 C1370 1.366 1_455 S
C1370 C1369 1.366 1_655 S
C1370 C1371 1.414 . S
C1370 C1373 1.499 . S
C1371 H1345 0.950 . S
C1371 C1370 1.414 . S
C1371 C1372 1.374 . S
C1372 H1346 0.950 . S
C1372 C1368 1.385 . S
C1372 C1371 1.374 . S
C1373 C1370 1.499 . S
C1373 C1374 1.373 . S
C1373 C1375 1.389 1_655 S
C1374 H1347 0.950 . S
C1374 C1360 1.377 1_554 S
C1374 C1373 1.373 . S
C1375 C1359 1.377 1_554 S
C1375 C1373 1.389 1_455 S
C1375 C1376 1.524 . S
C1376 C1375 1.524 . S
C1376 C1377 1.397 . S
C1376 C1381 1.363 . S
C1377 H1348 0.950 . S
C1377 C1376 1.397 . S
C1377 C1378 1.334 . S
C1378 H1349 0.950 . S
C1378 C1377 1.334 . S
C1378 C1379 1.287 . S
C1379 C1378 1.287 . S
C1379 C1380 1.524 . S
C1379 H1382 0.999 . S
C1380 H1350 0.950 . S
C1380 C1379 1.524 . S
C1380 C1381 1.415 . S
C1381 H1351 0.950 . S
C1381 C1376 1.363 . S
C1381 C1380 1.415 . S
H1382 C1379 0.999 . S
H1383 C1364 0.913 . S
C203 C20 1.493 . S
C218 C85 1.522 . S
C253 C16 1.516 1_565 S
C268 C43 1.493 . S
C303 C39 1.522 . S
C318 C66 1.492 . S
C353 C62 1.523 . S
C368 C89 1.493 . S
C403 C19 1.481 . S
C418 C132 1.524 . S
C453 C17 1.524 . S
C468 C111 1.481 . S
C503 C109 1.524 . S
C518 C65 1.481 . S
C553 C134 1.480 . S
C568 C63 1.524 . S
C603 C158 1.493 . S
C618 C131 1.523 . S
C653 C112 1.492 . S
C668 C154 1.522 . S
C703 C181 1.493 . S
C718 C108 1.523 . S
C753 C135 1.492 . S
C768 C177 1.522 . S
C803 C86 1.524 . S
C818 C157 1.480 . S
C853 C155 1.524 . S
C868 C42 1.480 . S
C903 C40 1.524 . S
C918 C180 1.480 . S
C953 C88 1.480 . S
C968 C178 1.524 . S
C1003 C18 0.803 . S
C1018 C21 0.794 . S
C1053 C44 0.796 . S
C1068 C41 0.803 . S
C1103 C67 0.795 . S
C1118 C64 0.803 . S
C1153 C90 0.794 . S
C1168 C87 0.803 . S
C1203 C113 0.795 . S
C1218 C110 0.803 . S
C1253 C136 0.795 . S
C1268 C133 0.803 . S
C1303 C159 0.796 . S
C1318 C156 0.803 . S
C1353 C179 0.803 . S
C1368 C182 0.796 . S
