# Generated by pormake.
# Topology sod, (4)-cn, num edge types: 1
# Building blocks:
#     Node 0, Type 0, BuildingBlock: GALJAG_clean_sbu_0, # of connection points: 4
#     Node 1, Type 0, BuildingBlock: GALJAG_clean_sbu_0, # of connection points: 4
#     Node 2, Type 0, BuildingBlock: GALJAG_clean_sbu_0, # of connection points: 4
#     Node 3, Type 0, BuildingBlock: GALJAG_clean_sbu_0, # of connection points: 4
#     Node 4, Type 0, BuildingBlock: GALJAG_clean_sbu_0, # of connection points: 4
#     Node 5, Type 0, BuildingBlock: GALJAG_clean_sbu_0, # of connection points: 4
#     Node 6, Type 0, BuildingBlock: GALJAG_clean_sbu_0, # of connection points: 4
#     Node 7, Type 0, BuildingBlock: GALJAG_clean_sbu_0, # of connection points: 4
#     Node 8, Type 0, BuildingBlock: GALJAG_clean_sbu_0, # of connection points: 4
#     Node 9, Type 0, BuildingBlock: GALJAG_clean_sbu_0, # of connection points: 4
#     Node 10, Type 0, BuildingBlock: GALJAG_clean_sbu_0, # of connection points: 4
#     Node 11, Type 0, BuildingBlock: GALJAG_clean_sbu_0, # of connection points: 4
#     Edge 12, Type (0, 0), BuildingBlock: EYOCIG_clean_linker_4, # of connection points: 2
#     Edge 13, Type (0, 0), BuildingBlock: EYOCIG_clean_linker_4, # of connection points: 2
#     Edge 14, Type (0, 0), BuildingBlock: EYOCIG_clean_linker_4, # of connection points: 2
#     Edge 15, Type (0, 0), BuildingBlock: EYOCIG_clean_linker_4, # of connection points: 2
#     Edge 16, Type (0, 0), BuildingBlock: EYOCIG_clean_linker_4, # of connection points: 2
#     Edge 17, Type (0, 0), BuildingBlock: EYOCIG_clean_linker_4, # of connection points: 2
#     Edge 18, Type (0, 0), BuildingBlock: EYOCIG_clean_linker_4, # of connection points: 2
#     Edge 19, Type (0, 0), BuildingBlock: EYOCIG_clean_linker_4, # of connection points: 2
#     Edge 20, Type (0, 0), BuildingBlock: EYOCIG_clean_linker_4, # of connection points: 2
#     Edge 21, Type (0, 0), BuildingBlock: EYOCIG_clean_linker_4, # of connection points: 2
#     Edge 22, Type (0, 0), BuildingBlock: EYOCIG_clean_linker_4, # of connection points: 2
#     Edge 23, Type (0, 0), BuildingBlock: EYOCIG_clean_linker_4, # of connection points: 2
#     Edge 24, Type (0, 0), BuildingBlock: EYOCIG_clean_linker_4, # of connection points: 2
#     Edge 25, Type (0, 0), BuildingBlock: EYOCIG_clean_linker_4, # of connection points: 2
#     Edge 26, Type (0, 0), BuildingBlock: EYOCIG_clean_linker_4, # of connection points: 2
#     Edge 27, Type (0, 0), BuildingBlock: EYOCIG_clean_linker_4, # of connection points: 2
#     Edge 28, Type (0, 0), BuildingBlock: EYOCIG_clean_linker_4, # of connection points: 2
#     Edge 29, Type (0, 0), BuildingBlock: EYOCIG_clean_linker_4, # of connection points: 2
#     Edge 30, Type (0, 0), BuildingBlock: EYOCIG_clean_linker_4, # of connection points: 2
#     Edge 31, Type (0, 0), BuildingBlock: EYOCIG_clean_linker_4, # of connection points: 2
#     Edge 32, Type (0, 0), BuildingBlock: EYOCIG_clean_linker_4, # of connection points: 2
#     Edge 33, Type (0, 0), BuildingBlock: EYOCIG_clean_linker_4, # of connection points: 2
#     Edge 34, Type (0, 0), BuildingBlock: EYOCIG_clean_linker_4, # of connection points: 2
#     Edge 35, Type (0, 0), BuildingBlock: EYOCIG_clean_linker_4, # of connection points: 2
# Relax obj value: 0.078
# Max RMSD: 0.153
# Mean RMSD: 0.153
data_MOF--net-sod--node1-GALJAG_clean_sbu_0--edge1-EYOCIG_clean_linker_4
_symmetry_space_group_name_H-M    P1
_symmetry_Int_Tables_number       1
_symmetry_cell_setting            triclinic
loop_
_symmetry_equiv_pos_as_xyz
'x, y, z'
_cell_length_a     34.15415
_cell_length_b     34.110915
_cell_length_c     34.114738
_cell_angle_alpha  90.024035
_cell_angle_beta   90.055095
_cell_angle_gamma 89.974045
loop_
_atom_site_label
_atom_site_type_symbol
_atom_site_fract_x
_atom_site_fract_y
_atom_site_fract_z
_atom_type_partial_charge
In0 In 0.00107 0.25094 0.50041 0.0
O1 O 0.95515 0.213 0.53074 0.0
O2 O 0.95743 0.21141 0.46839 0.0
C3 C 0.00143 0.3027 0.56012 0.0
C4 C 0.06032 0.19875 0.50104 0.0
C5 C 0.00097 0.30307 0.44107 0.0
O6 O 0.97022 0.2893 0.54574 0.0
O7 O 0.03254 0.29002 0.54488 0.0
O8 O 0.03212 0.2894 0.45535 0.0
O9 O 0.9698 0.29048 0.45622 0.0
C10 C 0.94153 0.19914 0.49935 0.0
O11 O 0.04685 0.21299 0.46977 0.0
O12 O 0.04443 0.21083 0.53209 0.0
In13 In 0.75149 0.00086 0.50037 0.0
O14 O 0.71343 0.96989 0.54581 0.0
O15 O 0.71221 0.03228 0.54464 0.0
C16 C 0.80364 0.94155 0.49955 0.0
C17 C 0.6994 0.00024 0.44102 0.0
C18 C 0.80318 0.06052 0.50075 0.0
O19 O 0.78982 0.95528 0.53089 0.0
O20 O 0.79117 0.95723 0.46853 0.0
O21 O 0.78904 0.04679 0.46953 0.0
O22 O 0.79126 0.04466 0.53187 0.0
C23 C 0.69978 0.00111 0.56 0.0
O24 O 0.71289 0.03155 0.45515 0.0
O25 O 0.71217 0.96915 0.45632 0.0
In26 In 0.00127 0.75061 0.50101 0.0
O27 O 0.03152 0.71199 0.54656 0.0
O28 O 0.96922 0.71136 0.54485 0.0
C29 C 0.06082 0.80244 0.50086 0.0
C30 C 0.00195 0.69882 0.44132 0.0
C31 C 0.94204 0.80282 0.50125 0.0
O32 O 0.04701 0.78837 0.53203 0.0
O33 O 0.04513 0.79035 0.46969 0.0
O34 O 0.95575 0.78866 0.47006 0.0
O35 O 0.95768 0.79065 0.53241 0.0
C36 C 1.00013 0.69856 0.56045 0.0
O37 O 0.97068 0.71254 0.45523 0.0
O38 O 0.03298 0.71117 0.45704 0.0
In39 In 0.25093 0.00075 0.50055 0.0
O40 O 0.21319 0.95436 0.47052 0.0
O41 O 0.21133 0.95742 0.53282 0.0
C42 C 0.30252 0.00173 0.44081 0.0
C43 C 0.19881 0.06008 0.4997 0.0
C44 C 0.30324 0.0002 0.55976 0.0
O45 O 0.28878 0.97036 0.45451 0.0
O46 O 0.29021 0.03271 0.4567 0.0
O47 O 0.28901 0.03146 0.54624 0.0
O48 O 0.29109 0.96912 0.54394 0.0
C49 C 0.19921 0.94111 0.50197 0.0
O50 O 0.21328 0.04692 0.531 0.0
O51 O 0.21062 0.04383 0.46872 0.0
In52 In 0.50091 0.00098 0.25092 0.0
O53 O 0.54657 0.97031 0.28904 0.0
O54 O 0.54463 0.03268 0.29061 0.0
C55 C 0.49992 0.94142 0.19898 0.0
C56 C 0.44134 0.00051 0.30269 0.0
C57 C 0.50218 0.06044 0.19894 0.0
O58 O 0.53123 0.95473 0.21323 0.0
O59 O 0.46901 0.95764 0.21091 0.0
O60 O 0.47079 0.0471 0.21291 0.0
O61 O 0.53304 0.04429 0.21116 0.0
C62 C 0.56036 0.00162 0.30291 0.0
O63 O 0.45511 0.03175 0.28874 0.0
O64 O 0.45714 0.96941 0.29058 0.0
In65 In 0.00123 0.50099 0.25036 0.0
O66 O 0.95572 0.46993 0.21236 0.0
O67 O 0.95708 0.53231 0.21081 0.0
C68 C 0.00236 0.44162 0.30244 0.0
C69 C 0.06063 0.50058 0.19841 0.0
C70 C 0.00049 0.56059 0.30225 0.0
O71 O 0.97098 0.45526 0.28864 0.0
O72 O 0.03326 0.45743 0.28999 0.0
O73 O 0.03176 0.54699 0.28821 0.0
O74 O 0.9695 0.54466 0.29011 0.0
C75 C 0.94161 0.50111 0.19854 0.0
O76 O 0.04654 0.53184 0.21207 0.0
O77 O 0.04522 0.46945 0.21088 0.0
In78 In 0.50161 0.00062 0.75011 0.0
O79 O 0.54755 0.03105 0.71225 0.0
O80 O 0.5453 0.9687 0.71058 0.0
C81 C 0.50079 0.05999 0.80229 0.0
C82 C 0.44228 0.00157 0.69796 0.0
C83 C 0.50218 0.94106 0.80199 0.0
O84 O 0.53208 0.04642 0.78829 0.0
O85 O 0.46982 0.04417 0.78995 0.0
O86 O 0.47095 0.95473 0.78789 0.0
O87 O 0.53322 0.95689 0.78992 0.0
C88 C 0.5612 0.99969 0.69837 0.0
O89 O 0.4558 0.97021 0.71198 0.0
O90 O 0.45819 0.03255 0.71023 0.0
In91 In 0.00078 0.50049 0.75111 0.0
O92 O 0.04671 0.46976 0.78887 0.0
O93 O 0.04432 0.53208 0.79113 0.0
C94 C 1.00001 0.44105 0.69905 0.0
C95 C 0.94141 0.49961 0.80307 0.0
C96 C 0.00122 0.56009 0.69922 0.0
O97 O 0.03131 0.45501 0.71268 0.0
O98 O 0.969 0.45658 0.71166 0.0
O99 O 0.97001 0.54622 0.7131 0.0
O100 O 0.03229 0.54442 0.71152 0.0
C101 C 0.06025 0.501 0.80312 0.0
O102 O 0.95504 0.53097 0.78921 0.0
O103 O 0.95723 0.46861 0.79074 0.0
In104 In 0.2513 0.50094 0.00083 0.0
O105 O 0.21356 0.47053 0.04689 0.0
O106 O 0.21159 0.53286 0.04434 0.0
C107 C 0.30336 0.44151 0.00045 0.0
C108 C 0.19916 0.49979 0.94147 0.0
C109 C 0.30304 0.56058 0.00114 0.0
O110 O 0.28953 0.45547 0.03168 0.0
O111 O 0.29094 0.45702 0.96931 0.0
O112 O 0.28928 0.5465 0.96992 0.0
O113 O 0.29072 0.54509 0.03229 0.0
C114 C 0.1995 0.50188 0.06036 0.0
O115 O 0.21315 0.53119 0.9549 0.0
O116 O 0.21148 0.46886 0.95744 0.0
In117 In 0.50115 0.25065 0.00056 0.0
O118 O 0.53206 0.21303 0.04648 0.0
O119 O 0.4698 0.21091 0.04443 0.0
C120 C 0.56038 0.30279 0.99916 0.0
C121 C 0.50182 0.19845 0.94121 0.0
C122 C 0.44165 0.3026 0.00168 0.0
O123 O 0.54724 0.28869 0.03061 0.0
O124 O 0.54418 0.29058 0.9683 0.0
O125 O 0.45489 0.28839 0.9703 0.0
O126 O 0.45787 0.29058 0.03259 0.0
C127 C 0.50092 0.19892 0.06025 0.0
O128 O 0.47055 0.2123 0.95499 0.0
O129 O 0.53284 0.21091 0.95685 0.0
In130 In 0.75078 0.50082 0.00072 0.0
O131 O 0.71273 0.45542 0.96959 0.0
O132 O 0.71073 0.45717 0.03194 0.0
C133 C 0.80284 0.50115 0.94142 0.0
C134 C 0.69919 0.56063 1.00015 0.0
C135 C 0.80258 0.4997 0.06036 0.0
O136 O 0.78883 0.46993 0.95519 0.0
O137 O 0.79061 0.53229 0.95704 0.0
O138 O 0.78919 0.53113 0.04639 0.0
O139 O 0.78983 0.46874 0.04479 0.0
C140 C 0.69858 0.44161 0.00073 0.0
O141 O 0.7128 0.54655 0.03144 0.0
O142 O 0.71161 0.54506 0.96906 0.0
In143 In 0.50102 0.75102 0.00058 0.0
O144 O 0.45535 0.71288 0.03107 0.0
O145 O 0.45733 0.7114 0.96871 0.0
C146 C 0.5014 0.80297 0.06013 0.0
C147 C 0.56058 0.69915 0.00137 0.0
C148 C 0.50052 0.80292 0.94103 0.0
O149 O 0.4702 0.78911 0.04616 0.0
O150 O 0.53249 0.79067 0.04456 0.0
O151 O 0.53175 0.78912 0.955 0.0
O152 O 0.46946 0.79059 0.95661 0.0
C153 C 0.44159 0.69906 0.99972 0.0
O154 O 0.54682 0.713 0.97004 0.0
O155 O 0.54477 0.71142 0.03239 0.0
C156 C 0.00167 0.35598 0.38464 0.0
C157 C 0.0011 0.33183 0.4104 0.0
C158 C 0.00243 0.38522 0.35539 0.0
C159 C 0.00273 0.41098 0.33122 0.0
C160 C 0.64637 0.00055 0.3847 0.0
C161 C 0.67057 0.00011 0.41042 0.0
C162 C 0.61701 0.00131 0.35557 0.0
C163 C 0.59114 0.00174 0.33154 0.0
C164 C 0.00081 0.61705 0.3552 0.0
C165 C 0.00036 0.59126 0.33103 0.0
C166 C 0.00162 0.6462 0.38455 0.0
C167 C 0.00208 0.67022 0.41048 0.0
C168 C 0.35534 0.00168 0.38437 0.0
C169 C 0.33123 0.00201 0.41015 0.0
C170 C 0.38466 0.00095 0.35524 0.0
C171 C 0.41054 0.00048 0.33126 0.0
C172 C 0.00074 0.61654 0.6463 0.0
C173 C 0.00122 0.59076 0.67045 0.0
C174 C 1.00003 0.64575 0.617 0.0
C175 C 0.99974 0.66986 0.59118 0.0
C176 C 0.3858 0.00143 0.64508 0.0
C177 C 0.4116 0.00182 0.66921 0.0
C178 C 0.35646 0.00065 0.61593 0.0
C179 C 0.33217 0.00016 0.59027 0.0
C180 C 0.00094 0.35539 0.6168 0.0
C181 C 0.00144 0.33134 0.59092 0.0
C182 C 1.00018 0.38459 0.64612 0.0
C183 C 0.9998 0.41037 0.67028 0.0
C184 C 0.61777 0.99976 0.6457 0.0
C185 C 0.59193 0.99942 0.66973 0.0
C186 C 0.64702 0.00052 0.6165 0.0
C187 C 0.6711 0.00105 0.5907 0.0
C188 C 0.38535 0.35566 0.00169 0.0
C189 C 0.41107 0.33145 0.002 0.0
C190 C 0.35618 0.38498 0.00095 0.0
C191 C 0.33207 0.4108 0.00046 0.0
C192 C 0.3558 0.61712 0.00061 0.0
C193 C 0.33172 0.5913 0.00111 0.0
C194 C 0.38505 0.64633 0.99985 0.0
C195 C 0.41087 0.67039 0.99949 0.0
C196 C 0.61656 0.3559 0.99901 0.0
C197 C 0.5909 0.33167 0.99871 0.0
C198 C 0.64571 0.38521 0.99985 0.0
C199 C 0.66984 0.41096 0.00051 0.0
C200 C 0.64648 0.61725 0.00047 0.0
C201 C 0.67054 0.5914 1.00005 0.0
C202 C 0.61721 0.64647 0.00119 0.0
C203 C 0.59135 0.67051 0.00156 0.0
C204 C 0.50095 0.85555 0.88432 0.0
C205 C 0.50047 0.83153 0.91022 0.0
C206 C 0.50177 0.88468 0.85497 0.0
C207 C 0.50224 0.91043 0.83079 0.0
C208 C 0.14604 0.49977 0.8852 0.0
C209 C 0.17028 0.49945 0.9109 0.0
C210 C 0.11673 0.50052 0.85601 0.0
C211 C 0.09094 0.50101 0.83187 0.0
C212 C 0.50092 0.11628 0.85543 0.0
C213 C 0.50058 0.09057 0.83118 0.0
C214 C 0.5016 0.14548 0.88476 0.0
C215 C 0.50197 0.16966 0.91054 0.0
C216 C 0.88499 0.49975 0.85589 0.0
C217 C 0.91076 0.49938 0.83178 0.0
C218 C 0.85575 0.50056 0.88508 0.0
C219 C 0.8316 0.5011 0.91081 0.0
C220 C 0.50233 0.11695 0.14611 0.0
C221 C 0.5026 0.09114 0.17022 0.0
C222 C 0.50158 0.14619 0.11685 0.0
C223 C 0.50103 0.17025 0.091 0.0
C224 C 0.88487 0.5004 0.14594 0.0
C225 C 0.91078 0.50096 0.16995 0.0
C226 C 0.85552 0.49963 0.1168 0.0
C227 C 0.83136 0.49933 0.09103 0.0
C228 C 0.50085 0.85573 0.11676 0.0
C229 C 0.50137 0.83165 0.0909 0.0
C230 C 0.50005 0.88494 0.14607 0.0
C231 C 0.49967 0.91074 0.17021 0.0
C232 C 0.14658 0.50178 0.11669 0.0
C233 C 0.17073 0.50213 0.09097 0.0
C234 C 0.11725 0.50103 0.1458 0.0
C235 C 0.09139 0.50055 0.16981 0.0
C236 C 0.85658 0.88516 0.49974 0.0
C237 C 0.83241 0.91092 0.49933 0.0
C238 C 0.88577 0.85589 0.50058 0.0
C239 C 0.91147 0.83167 0.50115 0.0
C240 C 0.88507 0.14635 0.49939 0.0
C241 C 0.91086 0.17044 0.49904 0.0
C242 C 0.85587 0.11709 0.50018 0.0
C243 C 0.83183 0.09126 0.5007 0.0
C244 C 0.11726 0.8553 0.50155 0.0
C245 C 0.09149 0.83118 0.50099 0.0
C246 C 0.14646 0.88457 0.50227 0.0
C247 C 0.17053 0.91039 0.50247 0.0
C248 C 0.11662 0.14571 0.50068 0.0
C249 C 0.09091 0.16991 0.50113 0.0
C250 C 0.14584 0.11645 0.49991 0.0
C251 C 0.17001 0.0907 0.49951 0.0
loop_
_geom_bond_atom_site_label_1
_geom_bond_atom_site_label_2
_geom_bond_distance
_geom_bond_site_symmetry_2
_ccdc_geom_bond_type
In0 O1 2.274 1_455 S
In0 O2 2.317 1_455 S
In0 O6 2.259 1_455 S
In0 O7 2.340 . S
In0 O8 2.273 . S
In0 O9 2.312 1_455 S
In0 O11 2.314 . S
In0 O12 2.336 . S
O1 In0 2.274 1_655 S
O1 C10 1.240 . S
O2 In0 2.317 1_655 S
O2 C10 1.252 . S
C3 O6 1.252 1_455 S
C3 O7 1.260 . S
C4 O11 1.240 . S
C4 O12 1.252 . S
C5 O8 1.252 1_655 S
C5 O9 1.260 . S
O6 In0 2.259 1_655 S
O6 C3 1.252 1_655 S
O7 In0 2.340 . S
O7 C3 1.260 . S
O8 In0 2.273 . S
O8 C5 1.252 1_455 S
O9 In0 2.312 1_655 S
O9 C5 1.260 . S
C10 O1 1.240 . S
C10 O2 1.252 . S
O11 In0 2.314 . S
O11 C4 1.240 . S
O12 In0 2.336 . S
O12 C4 1.252 . S
In13 O14 2.286 1_545 S
In13 O15 2.341 . S
In13 O19 2.244 1_545 S
In13 O20 2.315 1_545 S
In13 O21 2.288 . S
In13 O22 2.336 . S
In13 O24 2.302 . S
In13 O25 2.312 1_545 S
O14 In13 2.286 1_565 S
O14 C23 1.240 1_565 S
O15 In13 2.341 . S
O15 C23 1.252 . S
C16 O19 1.252 . S
C16 O20 1.260 . S
C17 O24 1.240 1_565 S
C17 O25 1.252 . S
C18 O21 1.252 . S
C18 O22 1.260 . S
O19 In13 2.244 1_565 S
O19 C16 1.252 . S
O20 In13 2.315 1_565 S
O20 C16 1.260 . S
O21 In13 2.288 . S
O21 C18 1.252 . S
O22 In13 2.336 . S
O22 C18 1.260 . S
C23 O14 1.240 1_545 S
C23 O15 1.252 . S
O24 In13 2.302 . S
O24 C17 1.240 1_545 S
O25 In13 2.312 1_565 S
O25 C17 1.252 . S
In26 O27 2.301 . S
In26 O28 2.313 1_455 S
In26 O32 2.287 . S
In26 O33 2.335 . S
In26 O34 2.246 1_455 S
In26 O35 2.316 1_455 S
In26 O37 2.287 1_455 S
In26 O38 2.340 . S
O27 In26 2.301 . S
O27 C36 1.240 1_455 S
O28 In26 2.313 1_655 S
O28 C36 1.252 . S
C29 O32 1.252 . S
C29 O33 1.260 . S
C30 O37 1.240 1_455 S
C30 O38 1.252 . S
C31 O34 1.252 . S
C31 O35 1.260 . S
O32 In26 2.287 . S
O32 C29 1.252 . S
O33 In26 2.335 . S
O33 C29 1.260 . S
O34 In26 2.246 1_655 S
O34 C31 1.252 . S
O35 In26 2.316 1_655 S
O35 C31 1.260 . S
C36 O27 1.240 1_655 S
C36 O28 1.252 . S
O37 In26 2.287 1_655 S
O37 C30 1.240 1_655 S
O38 In26 2.340 . S
O38 C30 1.252 . S
In39 O40 2.272 1_545 S
In39 O41 2.316 1_545 S
In39 O45 2.259 1_545 S
In39 O46 2.341 . S
In39 O47 2.274 . S
In39 O48 2.310 1_545 S
In39 O50 2.316 . S
In39 O51 2.337 . S
O40 In39 2.272 1_565 S
O40 C49 1.240 . S
O41 In39 2.316 1_565 S
O41 C49 1.252 . S
C42 O45 1.252 1_545 S
C42 O46 1.260 . S
C43 O50 1.240 . S
C43 O51 1.252 . S
C44 O47 1.252 1_565 S
C44 O48 1.260 . S
O45 In39 2.259 1_565 S
O45 C42 1.252 1_565 S
O46 In39 2.341 . S
O46 C42 1.260 . S
O47 In39 2.274 . S
O47 C44 1.252 1_545 S
O48 In39 2.310 1_565 S
O48 C44 1.260 . S
C49 O40 1.240 . S
C49 O41 1.252 . S
O50 In39 2.316 . S
O50 C43 1.240 . S
O51 In39 2.337 . S
O51 C43 1.252 . S
In52 O53 2.287 1_545 S
In52 O54 2.340 . S
In52 O58 2.245 1_545 S
In52 O59 2.316 1_545 S
In52 O60 2.287 . S
In52 O61 2.336 . S
In52 O63 2.301 . S
In52 O64 2.312 1_545 S
O53 In52 2.287 1_565 S
O53 C62 1.240 1_565 S
O54 In52 2.340 . S
O54 C62 1.252 . S
C55 O58 1.252 . S
C55 O59 1.260 . S
C56 O63 1.240 1_565 S
C56 O64 1.252 . S
C57 O60 1.252 . S
C57 O61 1.260 . S
O58 In52 2.245 1_565 S
O58 C55 1.252 . S
O59 In52 2.316 1_565 S
O59 C55 1.260 . S
O60 In52 2.287 . S
O60 C57 1.252 . S
O61 In52 2.336 . S
O61 C57 1.260 . S
C62 O53 1.240 1_545 S
C62 O54 1.252 . S
O63 In52 2.301 . S
O63 C56 1.240 1_545 S
O64 In52 2.312 1_565 S
O64 C56 1.252 . S
In65 O66 2.272 1_455 S
In65 O67 2.316 1_455 S
In65 O71 2.259 1_455 S
In65 O72 2.341 . S
In65 O73 2.274 . S
In65 O74 2.311 1_455 S
In65 O76 2.315 . S
In65 O77 2.337 . S
O66 In65 2.272 1_655 S
O66 C75 1.240 . S
O67 In65 2.316 1_655 S
O67 C75 1.252 . S
C68 O71 1.252 1_455 S
C68 O72 1.260 . S
C69 O76 1.240 . S
C69 O77 1.252 . S
C70 O73 1.252 1_655 S
C70 O74 1.260 . S
O71 In65 2.259 1_655 S
O71 C68 1.252 1_655 S
O72 In65 2.341 . S
O72 C68 1.260 . S
O73 In65 2.274 . S
O73 C70 1.252 1_455 S
O74 In65 2.311 1_655 S
O74 C70 1.260 . S
C75 O66 1.240 . S
C75 O67 1.252 . S
O76 In65 2.315 . S
O76 C69 1.240 . S
O77 In65 2.337 . S
O77 C69 1.252 . S
In78 O79 2.302 . S
In78 O80 2.311 1_545 S
In78 O84 2.289 . S
In78 O85 2.337 . S
In78 O86 2.243 1_545 S
In78 O87 2.315 1_545 S
In78 O89 2.286 1_545 S
In78 O90 2.342 . S
O79 In78 2.302 . S
O79 C88 1.240 1_545 S
O80 In78 2.311 1_565 S
O80 C88 1.252 . S
C81 O84 1.252 . S
C81 O85 1.260 . S
C82 O89 1.240 1_545 S
C82 O90 1.252 . S
C83 O86 1.252 . S
C83 O87 1.260 . S
O84 In78 2.289 . S
O84 C81 1.252 . S
O85 In78 2.337 . S
O85 C81 1.260 . S
O86 In78 2.243 1_565 S
O86 C83 1.252 . S
O87 In78 2.315 1_565 S
O87 C83 1.260 . S
C88 O79 1.240 1_565 S
C88 O80 1.252 . S
O89 In78 2.286 1_565 S
O89 C82 1.240 1_565 S
O90 In78 2.342 . S
O90 C82 1.252 . S
In91 O92 2.313 . S
In91 O93 2.335 . S
In91 O97 2.273 . S
In91 O98 2.312 1_455 S
In91 O99 2.260 1_455 S
In91 O100 2.339 . S
In91 O102 2.275 1_455 S
In91 O103 2.317 1_455 S
O92 In91 2.313 . S
O92 C101 1.240 . S
O93 In91 2.335 . S
O93 C101 1.252 . S
C94 O97 1.252 1_655 S
C94 O98 1.260 . S
C95 O102 1.240 . S
C95 O103 1.252 . S
C96 O99 1.252 1_455 S
C96 O100 1.260 . S
O97 In91 2.273 . S
O97 C94 1.252 1_455 S
O98 In91 2.312 1_655 S
O98 C94 1.260 . S
O99 In91 2.260 1_655 S
O99 C96 1.252 1_655 S
O100 In91 2.339 . S
O100 C96 1.260 . S
C101 O92 1.240 . S
C101 O93 1.252 . S
O102 In91 2.275 1_655 S
O102 C95 1.240 . S
O103 In91 2.317 1_655 S
O103 C95 1.252 . S
In104 O105 2.297 . S
In104 O106 2.328 . S
In104 O110 2.267 . S
In104 O111 2.323 1_554 S
In104 O112 2.265 1_554 S
In104 O113 2.328 . S
In104 O115 2.291 1_554 S
In104 O116 2.325 1_554 S
O105 In104 2.297 . S
O105 C114 1.240 . S
O106 In104 2.328 . S
O106 C114 1.252 . S
C107 O110 1.252 1_556 S
C107 O111 1.260 . S
C108 O115 1.240 . S
C108 O116 1.252 . S
C109 O112 1.252 1_554 S
C109 O113 1.260 . S
O110 In104 2.267 . S
O110 C107 1.252 1_554 S
O111 In104 2.323 1_556 S
O111 C107 1.260 . S
O112 In104 2.265 1_556 S
O112 C109 1.252 1_556 S
O113 In104 2.328 . S
O113 C109 1.260 . S
C114 O105 1.240 . S
C114 O106 1.252 . S
O115 In104 2.291 1_556 S
O115 C108 1.240 . S
O116 In104 2.325 1_556 S
O116 C108 1.252 . S
In117 O118 2.299 . S
In117 O119 2.329 . S
In117 O123 2.268 . S
In117 O124 2.322 1_554 S
In117 O125 2.264 1_554 S
In117 O126 2.329 . S
In117 O128 2.289 1_554 S
In117 O129 2.324 1_554 S
O118 In117 2.299 . S
O118 C127 1.240 . S
O119 In117 2.329 . S
O119 C127 1.252 . S
C120 O123 1.252 1_556 S
C120 O124 1.260 . S
C121 O128 1.240 . S
C121 O129 1.252 . S
C122 O125 1.252 1_554 S
C122 O126 1.260 . S
O123 In117 2.268 . S
O123 C120 1.252 1_554 S
O124 In117 2.322 1_556 S
O124 C120 1.260 . S
O125 In117 2.264 1_556 S
O125 C122 1.252 1_556 S
O126 In117 2.329 . S
O126 C122 1.260 . S
C127 O118 1.240 . S
C127 O119 1.252 . S
O128 In117 2.289 1_556 S
O128 C121 1.240 . S
O129 In117 2.324 1_556 S
O129 C121 1.252 . S
In130 O131 2.292 1_554 S
In130 O132 2.330 . S
In130 O136 2.261 1_554 S
In130 O137 2.323 1_554 S
In130 O138 2.271 . S
In130 O139 2.328 . S
In130 O141 2.296 . S
In130 O142 2.323 1_554 S
O131 In130 2.292 1_556 S
O131 C140 1.240 1_556 S
O132 In130 2.330 . S
O132 C140 1.252 . S
C133 O136 1.252 . S
C133 O137 1.260 . S
C134 O141 1.240 1_556 S
C134 O142 1.252 . S
C135 O138 1.252 . S
C135 O139 1.260 . S
O136 In130 2.261 1_556 S
O136 C133 1.252 . S
O137 In130 2.323 1_556 S
O137 C133 1.260 . S
O138 In130 2.271 . S
O138 C135 1.252 . S
O139 In130 2.328 . S
O139 C135 1.260 . S
C140 O131 1.240 1_554 S
C140 O132 1.252 . S
O141 In130 2.296 . S
O141 C134 1.240 1_554 S
O142 In130 2.323 1_556 S
O142 C134 1.252 . S
In143 O144 2.295 . S
In143 O145 2.324 1_554 S
In143 O149 2.269 . S
In143 O150 2.327 . S
In143 O151 2.263 1_554 S
In143 O152 2.324 1_554 S
In143 O154 2.293 1_554 S
In143 O155 2.328 . S
O144 In143 2.295 . S
O144 C153 1.240 1_554 S
O145 In143 2.324 1_556 S
O145 C153 1.252 . S
C146 O149 1.252 . S
C146 O150 1.260 . S
C147 O154 1.240 1_554 S
C147 O155 1.252 . S
C148 O151 1.252 . S
C148 O152 1.260 . S
O149 In143 2.269 . S
O149 C146 1.252 . S
O150 In143 2.327 . S
O150 C146 1.260 . S
O151 In143 2.263 1_556 S
O151 C148 1.252 . S
O152 In143 2.324 1_556 S
O152 C148 1.260 . S
C153 O144 1.240 1_556 S
C153 O145 1.252 . S
O154 In143 2.293 1_556 S
O154 C147 1.240 1_556 S
O155 In143 2.328 . S
O155 C147 1.252 . S
C156 C157 1.170 . S
C156 C158 1.381 1_655 S
C157 C156 1.170 . S
C158 C156 1.381 1_455 S
C158 C159 1.170 . S
C159 C158 1.170 . S
C160 C161 1.170 . S
C160 C162 1.380 1_565 S
C161 C160 1.170 . S
C162 C160 1.380 1_545 S
C162 C163 1.170 . S
C163 C162 1.170 . S
C164 C165 1.170 . S
C164 C166 1.380 1_655 S
C165 C164 1.170 . S
C166 C164 1.380 1_455 S
C166 C167 1.170 . S
C167 C166 1.170 . S
C168 C169 1.170 . S
C168 C170 1.380 1_545 S
C169 C168 1.170 . S
C170 C168 1.380 1_565 S
C170 C171 1.170 . S
C171 C170 1.170 . S
C172 C173 1.170 . S
C172 C174 1.380 1_455 S
C173 C172 1.170 . S
C174 C172 1.380 1_655 S
C174 C175 1.170 . S
C175 C174 1.170 . S
C176 C177 1.170 . S
C176 C178 1.380 1_545 S
C177 C176 1.170 . S
C178 C176 1.380 1_565 S
C178 C179 1.170 . S
C179 C178 1.170 . S
C180 C181 1.170 . S
C180 C182 1.380 1_455 S
C181 C180 1.170 . S
C182 C180 1.380 1_655 S
C182 C183 1.170 . S
C183 C182 1.170 . S
C184 C185 1.170 . S
C184 C186 1.380 1_565 S
C185 C184 1.170 . S
C186 C184 1.380 1_545 S
C186 C187 1.170 . S
C187 C186 1.170 . S
C188 C189 1.170 . S
C188 C190 1.378 1_554 S
C189 C188 1.170 . S
C190 C188 1.378 1_556 S
C190 C191 1.173 . S
C191 C190 1.173 . S
C192 C193 1.170 . S
C192 C194 1.380 1_554 S
C193 C192 1.170 . S
C194 C192 1.380 1_556 S
C194 C195 1.170 . S
C195 C194 1.170 . S
C196 C197 1.170 . S
C196 C198 1.376 1_556 S
C197 C196 1.170 . S
C198 C196 1.376 1_554 S
C198 C199 1.176 . S
C199 C198 1.176 . S
C200 C201 1.170 . S
C200 C202 1.380 1_556 S
C201 C200 1.170 . S
C202 C200 1.380 1_554 S
C202 C203 1.170 . S
C203 C202 1.170 . S
C204 C205 1.170 . S
C204 C206 1.380 . S
C205 C204 1.170 . S
C206 C204 1.380 . S
C206 C207 1.170 . S
C207 C206 1.170 . S
C208 C209 1.170 . S
C208 C210 1.380 . S
C209 C208 1.170 . S
C210 C208 1.380 . S
C210 C211 1.170 . S
C211 C210 1.170 . S
C212 C213 1.170 . S
C212 C214 1.380 . S
C213 C212 1.170 . S
C214 C212 1.380 . S
C214 C215 1.170 . S
C215 C214 1.170 . S
C216 C217 1.170 . S
C216 C218 1.380 . S
C217 C216 1.170 . S
C218 C216 1.380 . S
C218 C219 1.170 . S
C219 C218 1.170 . S
C220 C221 1.170 . S
C220 C222 1.380 . S
C221 C220 1.170 . S
C222 C220 1.380 . S
C222 C223 1.170 . S
C223 C222 1.170 . S
C224 C225 1.170 . S
C224 C226 1.380 . S
C225 C224 1.170 . S
C226 C224 1.380 . S
C226 C227 1.170 . S
C227 C226 1.170 . S
C228 C229 1.170 . S
C228 C230 1.380 . S
C229 C228 1.170 . S
C230 C228 1.380 . S
C230 C231 1.170 . S
C231 C230 1.170 . S
C232 C233 1.170 . S
C232 C234 1.380 . S
C233 C232 1.170 . S
C234 C232 1.380 . S
C234 C235 1.170 . S
C235 C234 1.170 . S
C236 C237 1.170 . S
C236 C238 1.380 . S
C237 C236 1.170 . S
C238 C236 1.380 . S
C238 C239 1.170 . S
C239 C238 1.170 . S
C240 C241 1.170 . S
C240 C242 1.380 . S
C241 C240 1.170 . S
C242 C240 1.380 . S
C242 C243 1.170 . S
C243 C242 1.170 . S
C244 C245 1.170 . S
C244 C246 1.380 . S
C245 C244 1.170 . S
C246 C244 1.380 . S
C246 C247 1.170 . S
C247 C246 1.170 . S
C248 C249 1.170 . S
C248 C250 1.380 . S
C249 C248 1.170 . S
C250 C248 1.380 . S
C250 C251 1.170 . S
C251 C250 1.170 . S
C157 C5 1.586 . S
C159 C68 1.604 . S
C161 C17 1.578 . S
C163 C62 1.586 . S
C165 C70 1.584 . S
C167 C30 1.587 . S
C169 C42 1.600 . S
C171 C56 1.585 . S
C173 C96 1.576 . S
C175 C36 1.591 . S
C177 C82 1.582 . S
C179 C44 1.589 . S
C181 C3 1.588 . S
C183 C94 1.603 . S
C185 C88 1.589 . S
C187 C23 1.573 . S
C189 C122 1.604 . S
C191 C107 1.587 . S
C193 C109 1.590 . S
C195 C153 1.589 . S
C197 C120 1.597 . S
C199 C140 1.571 . S
C201 C134 1.580 . S
C203 C147 1.577 . S
C205 C148 1.592 . S
C207 C83 1.600 . S
C209 C108 1.581 . S
C211 C101 1.567 . S
C213 C81 1.575 . S
C215 C121 1.583 . S
C217 C95 1.599 . S
C219 C133 1.584 . S
C221 C57 1.594 . S
C223 C127 1.573 . S
C225 C75 1.583 . S
C227 C135 1.602 . S
C229 C146 1.591 . S
C231 C55 1.601 . S
C233 C114 1.587 . S
C235 C69 1.577 . S
C237 C16 1.600 . S
C239 C31 1.589 . S
C241 C10 1.594 . S
C243 C18 1.578 . S
C245 C29 1.577 . S
C247 C49 1.592 . S
C249 C4 1.562 . S
C251 C43 1.578 . S
