# Generated by pormake.
# Topology fny, (5)-cn, num edge types: 1
# Building blocks:
#     Node 0, Type 0, BuildingBlock: BEQFEK_clean_sbu_0, # of connection points: 5
#     Node 1, Type 0, BuildingBlock: BEQFEK_clean_sbu_0, # of connection points: 5
#     Node 2, Type 0, BuildingBlock: BEQFEK_clean_sbu_0, # of connection points: 5
#     Node 3, Type 0, BuildingBlock: BEQFEK_clean_sbu_0, # of connection points: 5
#     Node 4, Type 0, BuildingBlock: BEQFEK_clean_sbu_0, # of connection points: 5
#     Node 5, Type 0, BuildingBlock: BEQFEK_clean_sbu_0, # of connection points: 5
#     Node 6, Type 0, BuildingBlock: BEQFEK_clean_sbu_0, # of connection points: 5
#     Node 7, Type 0, BuildingBlock: BEQFEK_clean_sbu_0, # of connection points: 5
#     Node 8, Type 0, BuildingBlock: BEQFEK_clean_sbu_0, # of connection points: 5
#     Node 9, Type 0, BuildingBlock: BEQFEK_clean_sbu_0, # of connection points: 5
#     Node 10, Type 0, BuildingBlock: BEQFEK_clean_sbu_0, # of connection points: 5
#     Node 11, Type 0, BuildingBlock: BEQFEK_clean_sbu_0, # of connection points: 5
#     Edge 12, Type (0, 0), None
#     Edge 13, Type (0, 0), None
#     Edge 14, Type (0, 0), None
#     Edge 15, Type (0, 0), None
#     Edge 16, Type (0, 0), None
#     Edge 17, Type (0, 0), None
#     Edge 18, Type (0, 0), None
#     Edge 19, Type (0, 0), None
#     Edge 20, Type (0, 0), None
#     Edge 21, Type (0, 0), None
#     Edge 22, Type (0, 0), None
#     Edge 23, Type (0, 0), None
#     Edge 24, Type (0, 0), None
#     Edge 25, Type (0, 0), None
#     Edge 26, Type (0, 0), None
#     Edge 27, Type (0, 0), None
#     Edge 28, Type (0, 0), None
#     Edge 29, Type (0, 0), None
#     Edge 30, Type (0, 0), None
#     Edge 31, Type (0, 0), None
#     Edge 32, Type (0, 0), None
#     Edge 33, Type (0, 0), None
#     Edge 34, Type (0, 0), None
#     Edge 35, Type (0, 0), None
#     Edge 36, Type (0, 0), None
#     Edge 37, Type (0, 0), None
#     Edge 38, Type (0, 0), None
#     Edge 39, Type (0, 0), None
#     Edge 40, Type (0, 0), None
#     Edge 41, Type (0, 0), None
# Relax obj value: 0.601
# Max RMSD: 0.112
# Mean RMSD: 0.112
data_MOF--net-fny--node1-BEQFEK_clean_sbu_0--edge1-none
_symmetry_space_group_name_H-M    P1
_symmetry_Int_Tables_number       1
_symmetry_cell_setting            triclinic
loop_
_symmetry_equiv_pos_as_xyz
'x, y, z'
_cell_length_a     29.621772
_cell_length_b     29.621682
_cell_length_c     11.673786
_cell_angle_alpha  90.001636
_cell_angle_beta   89.996727
_cell_angle_gamma 119.99972
loop_
_atom_site_label
_atom_site_type_symbol
_atom_site_fract_x
_atom_site_fract_y
_atom_site_fract_z
_atom_type_partial_charge
Co0 Co 0.47734 0.58318 0.35321 0.0
Co1 Co 0.41043 0.5039 0.20679 0.0
C2 C 0.49213 0.61531 0.10991 0.0
O3 O 0.50256 0.62961 0.21317 0.0
O4 O 0.4558 0.56804 0.09084 0.0
C5 C 0.47661 0.65591 0.50217 0.0
O6 O 0.43406 0.65071 0.45484 0.0
C7 C 0.33229 0.44721 1.05281 0.0
C8 C 0.29053 0.37054 0.13923 0.0
C9 C 0.28362 0.403 0.06501 0.0
N10 N 0.3639 0.4438 0.12762 0.0
N11 N 0.34048 0.39682 0.17403 0.0
C12 C 0.34838 0.49654 0.98737 0.0
H13 H 0.364 0.53009 1.0468 0.0
H14 H 0.3162 0.49568 0.93896 0.0
H15 H 0.38036 0.5035 0.9276 0.0
C16 C 0.38502 0.53808 0.52025 0.0
N17 N 0.40629 0.54145 0.41442 0.0
N18 N 0.37011 0.51006 0.34373 0.0
C19 C 0.32323 0.48974 0.40285 0.0
C20 C 0.33093 0.50929 0.51595 0.0
C21 C 0.41375 0.54308 0.62869 0.0
H22 H 0.45443 0.55343 0.60995 0.0
H23 H 0.41041 0.57055 0.68788 0.0
H24 H 0.39573 0.5049 0.67275 0.0
O25 O 0.51801 0.54564 0.35835 0.0
O26 O 0.45935 0.48064 0.25452 0.0
H27 H 0.25958 0.41342 0.44064 0.0
H28 H 0.24288 0.45199 0.3524 0.0
C29 C 0.27364 0.44212 0.36942 0.0
H30 H 0.27939 0.42422 0.29328 0.0
H31 H 0.35579 0.38569 0.24176 0.0
O32 O 0.50104 0.63494 0.45922 0.0
C33 C 0.50238 0.50234 0.30742 0.0
Co34 Co 0.95134 0.44876 0.85321 0.0
Co35 Co 0.9637 0.38185 0.70678 0.0
C36 C 0.934 0.46355 0.6099 0.0
O37 O 0.93013 0.47397 0.71317 0.0
O38 O 0.94494 0.42722 0.59083 0.0
C39 C 0.87786 0.44802 1.00217 0.0
O40 O 0.84053 0.40547 0.95483 0.0
C41 C 0.94225 0.3037 0.5528 0.0
C42 C 0.97716 0.26194 0.63921 0.0
C43 C 0.9378 0.25503 0.56499 0.0
N44 N 0.97727 0.33531 0.62761 0.0
N45 N 1.00084 0.3119 0.67401 0.0
C46 C 0.90901 0.31979 0.48736 0.0
H47 H 0.89108 0.33541 0.5468 0.0
H48 H 0.87769 0.28761 0.43896 0.0
H49 H 0.93404 0.35178 0.4276 0.0
C50 C 0.90412 0.35643 1.02024 0.0
N51 N 0.92201 0.3777 0.91441 0.0
N52 N 0.91723 0.34153 0.84372 0.0
C53 C 0.89067 0.29465 0.90284 0.0
C54 C 0.87881 0.30235 1.01594 0.0
C55 C 0.92784 0.38516 0.12868 0.0
H56 H 0.95818 0.42585 0.10994 0.0
H57 H 0.89705 0.38183 0.18788 0.0
H58 H 0.94801 0.36714 0.17274 0.0
O59 O 1.02954 0.48942 0.85835 0.0
O60 O 1.03588 0.43077 0.75452 0.0
H61 H 0.90334 0.231 0.94062 0.0
H62 H 0.84807 0.21429 0.85239 0.0
C63 C 0.88869 0.24505 0.8694 0.0
H64 H 0.91235 0.2508 0.79327 0.0
H65 H 1.02728 0.32721 0.74174 0.0
O66 O 0.92327 0.47246 0.95922 0.0
C67 C 1.05721 0.47379 0.80742 0.0
Co68 Co 0.55976 0.92275 0.35322 0.0
Co69 Co 0.63903 0.93511 0.20679 0.0
C70 C 0.52763 0.90542 0.10991 0.0
O71 O 0.51333 0.90154 0.21317 0.0
O72 O 0.57489 0.91635 0.09084 0.0
C73 C 0.48702 0.84928 0.50216 0.0
O74 O 0.49223 0.81194 0.45481 0.0
C75 C 0.69572 0.91366 1.0528 0.0
C76 C 0.77239 0.94857 0.13922 0.0
C77 C 0.73994 0.90921 0.06499 0.0
N78 N 0.69913 0.94869 0.12762 0.0
N79 N 0.74611 0.97225 0.17402 0.0
C80 C 0.6464 0.88043 0.98736 0.0
H81 H 0.61285 0.8625 1.0468 0.0
H82 H 0.64725 0.8491 0.93896 0.0
H83 H 0.63944 0.90545 0.9276 0.0
C84 C 0.60486 0.87553 0.52024 0.0
N85 N 0.60148 0.89343 0.41442 0.0
N86 N 0.63288 0.88864 0.34372 0.0
C87 C 0.65319 0.86208 0.40284 0.0
C88 C 0.63364 0.85023 0.51595 0.0
C89 C 0.59985 0.89926 0.62869 0.0
H90 H 0.5895 0.92959 0.60995 0.0
H91 H 0.57239 0.86846 0.68789 0.0
H92 H 0.63804 0.91942 0.67274 0.0
O93 O 0.5973 1.00096 0.35836 0.0
O94 O 0.66229 1.0073 0.25453 0.0
H95 H 0.72952 0.87476 0.44063 0.0
H96 H 0.69095 0.81948 0.35239 0.0
C97 C 0.70081 0.8601 0.36941 0.0
H98 H 0.71872 0.88376 0.29327 0.0
H99 H 0.75724 0.99869 0.24176 0.0
O100 O 0.50799 0.89468 0.45923 0.0
C101 C 0.64059 1.02863 0.30743 0.0
Co102 Co 0.69418 0.53117 0.85322 0.0
Co103 Co 0.76109 0.61044 0.7068 0.0
C104 C 0.67939 0.49904 0.60992 0.0
O105 O 0.66896 0.48474 0.71318 0.0
O106 O 0.71572 0.54631 0.59084 0.0
C107 C 0.69491 0.45843 1.00216 0.0
O108 O 0.73746 0.46364 0.95481 0.0
C109 C 0.83923 0.66714 0.55281 0.0
C110 C 0.88099 0.74381 0.63925 0.0
C111 C 0.8879 0.71136 0.56501 0.0
N112 N 0.80762 0.67055 0.62764 0.0
N113 N 0.83104 0.71753 0.67405 0.0
C114 C 0.82315 0.61781 0.48737 0.0
H115 H 0.80753 0.58427 0.5468 0.0
H116 H 0.85533 0.61867 0.43896 0.0
H117 H 0.79117 0.61086 0.4276 0.0
C118 C 0.7865 0.57627 1.02025 0.0
N119 N 0.76523 0.5729 0.91443 0.0
N120 N 0.80141 0.60429 0.84374 0.0
C121 C 0.84829 0.6246 0.90286 0.0
C122 C 0.84059 0.60505 1.01596 0.0
C123 C 0.75777 0.57127 0.1287 0.0
H124 H 0.71708 0.56092 0.10997 0.0
H125 H 0.7611 0.5438 0.18789 0.0
H126 H 0.77579 0.60945 0.17277 0.0
O127 O 0.65351 0.56871 0.85836 0.0
O128 O 0.71217 0.6337 0.75454 0.0
H129 H 0.91193 0.70093 0.94065 0.0
H130 H 0.92864 0.66236 0.85241 0.0
C131 C 0.89788 0.67222 0.86942 0.0
H132 H 0.89213 0.69013 0.79329 0.0
H133 H 0.81573 0.72866 0.7418 0.0
O134 O 0.67048 0.4794 0.95923 0.0
C135 C 0.66914 0.61201 0.80743 0.0
Co136 Co 0.22018 0.66559 0.35322 0.0
Co137 Co 0.20782 0.73251 0.20681 0.0
C138 C 0.23752 0.6508 0.10992 0.0
O139 O 0.2414 0.64038 0.21318 0.0
O140 O 0.22659 0.68713 0.09085 0.0
C141 C 0.29365 0.66633 0.50216 0.0
O142 O 0.33099 0.70887 0.45481 0.0
C143 C 0.22927 0.81065 1.05283 0.0
C144 C 0.19436 0.85241 0.13927 0.0
C145 C 0.23372 0.85932 0.06503 0.0
N146 N 0.19425 0.77904 0.12765 0.0
N147 N 0.17069 0.80246 0.17407 0.0
C148 C 0.2625 0.79456 0.98737 0.0
H149 H 0.28044 0.77894 1.0468 0.0
H150 H 0.29383 0.82674 0.93897 0.0
H151 H 0.23748 0.76258 0.92761 0.0
C152 C 0.2674 0.75791 0.52026 0.0
N153 N 0.24951 0.73664 0.41443 0.0
N154 N 0.25429 0.77282 0.34375 0.0
C155 C 0.28086 0.8197 0.40287 0.0
C156 C 0.29271 0.812 0.51597 0.0
C157 C 0.24368 0.72919 0.62871 0.0
H158 H 0.21334 0.6885 0.60997 0.0
H159 H 0.27448 0.73252 0.68789 0.0
H160 H 0.22352 0.74721 0.67278 0.0
O161 O 0.14197 0.62493 0.35836 0.0
O162 O 0.13564 0.68358 0.25454 0.0
H163 H 0.26819 0.88335 0.44066 0.0
H164 H 0.32346 0.90006 0.35242 0.0
C165 C 0.28284 0.8693 0.36943 0.0
H166 H 0.25918 0.86355 0.29331 0.0
H167 H 0.14425 0.78715 0.24182 0.0
O168 O 0.24824 0.64189 0.45923 0.0
C169 C 0.11431 0.64056 0.30742 0.0
Co170 Co 0.61176 0.19159 0.85322 0.0
Co171 Co 0.53249 0.17923 0.70681 0.0
C172 C 0.64389 0.20894 0.60991 0.0
O173 O 0.65819 0.21281 0.71317 0.0
O174 O 0.59663 0.198 0.59084 0.0
C175 C 0.6845 0.26506 1.00217 0.0
O176 O 0.67929 0.3024 0.95482 0.0
C177 C 0.4758 0.20068 0.55282 0.0
C178 C 0.39913 0.16578 0.63926 0.0
C179 C 0.43158 0.20514 0.56503 0.0
N180 N 0.47239 0.16566 0.62764 0.0
N181 N 0.42541 0.1421 0.67406 0.0
C182 C 0.52512 0.23392 0.48737 0.0
H183 H 0.55867 0.25185 0.5468 0.0
H184 H 0.52427 0.26524 0.43897 0.0
H185 H 0.53208 0.20889 0.4276 0.0
C186 C 0.56666 0.23882 1.02026 0.0
N187 N 0.57003 0.22092 0.91443 0.0
N188 N 0.53864 0.2257 0.84374 0.0
C189 C 0.51833 0.25227 0.90287 0.0
C190 C 0.53788 0.26412 1.01597 0.0
C191 C 0.57166 0.21509 0.12871 0.0
H192 H 0.58202 0.18476 0.10996 0.0
H193 H 0.59913 0.24589 0.18789 0.0
H194 H 0.53348 0.19493 0.17277 0.0
O195 O 0.57422 0.11339 0.85835 0.0
O196 O 0.50923 0.10705 0.75453 0.0
H197 H 0.44201 0.2396 0.94066 0.0
H198 H 0.48058 0.29487 0.85241 0.0
C199 C 0.47071 0.25425 0.86943 0.0
H200 H 0.45281 0.23059 0.7933 0.0
H201 H 0.41428 0.11566 0.7418 0.0
O202 O 0.66353 0.21966 0.95923 0.0
C203 C 0.53092 0.08572 0.80742 0.0
Co204 Co 0.55968 0.66566 0.77086 0.0
Co205 Co 0.63929 0.73264 0.91665 0.0
C206 C 0.52786 0.65108 1.01412 0.0
O207 O 0.5134 0.64071 0.91096 0.0
O208 O 0.5752 0.68732 1.03293 0.0
C209 C 0.48669 0.66605 0.62222 0.0
O210 O 0.49201 0.70871 0.66919 0.0
C211 C 0.6953 0.81135 0.06902 0.0
C212 C 0.77258 0.85267 0.98477 0.0
C213 C 0.73966 0.85991 1.05682 0.0
N214 N 0.69918 0.77937 0.9961 0.0
N215 N 0.74642 0.80255 0.95096 0.0
C216 C 0.64553 0.79551 0.13242 0.0
H217 H 0.61247 0.78017 0.07159 0.0
H218 H 0.64626 0.82767 0.18075 0.0
H219 H 0.63782 0.76328 0.19215 0.0
C220 C 0.6045 0.75777 0.60335 0.0
N221 N 0.60129 0.73664 0.70927 0.0
N222 N 0.63309 0.77283 0.77944 0.0
C223 C 0.65359 0.81961 0.71985 0.0
C224 C 0.63355 0.81184 0.60722 0.0
C225 C 0.59951 0.72888 0.49516 0.0
H226 H 0.58915 0.68823 0.51427 0.0
H227 H 0.57209 0.73216 0.43573 0.0
H228 H 0.63772 0.74677 0.45126 0.0
O229 O 0.59728 0.62501 0.7661 0.0
O230 O 0.66261 0.68377 0.86911 0.0
H231 H 0.73037 0.88198 0.68042 0.0
H232 H 0.69279 0.90038 0.76749 0.0
C233 C 0.70182 0.86893 0.75189 0.0
H234 H 0.71957 0.86325 0.82837 0.0
H235 H 0.75793 0.7869 0.88459 0.0
O236 O 0.50771 0.64167 0.66522 0.0
C237 C 0.64068 0.64064 0.81661 0.0
Co238 Co 0.95119 0.53109 0.27086 0.0
Co239 Co 0.96382 0.61071 0.41665 0.0
C240 C 0.93396 0.49928 0.51412 0.0
O241 O 0.92986 0.48482 0.41096 0.0
O242 O 0.94506 0.54662 0.53294 0.0
C243 C 0.87781 0.4581 0.12222 0.0
O244 O 0.84047 0.46342 0.16919 0.0
C245 C 0.94113 0.66672 0.56903 0.0
C246 C 0.97708 0.74399 0.48479 0.0
C247 C 0.93692 0.71107 0.55684 0.0
N248 N 0.97698 0.67059 0.49612 0.0
N249 N 1.00104 0.71784 0.45098 0.0
C250 C 0.90719 0.61694 0.63243 0.0
H251 H 0.88948 0.58389 0.57159 0.0
H252 H 0.87576 0.61768 0.68075 0.0
H253 H 0.93171 0.60924 0.69215 0.0
C254 C 0.9039 0.57591 0.10335 0.0
N255 N 0.92183 0.57271 0.20927 0.0
N256 N 0.91743 0.60451 0.27945 0.0
C257 C 0.89115 0.625 0.21986 0.0
C258 C 0.87888 0.60496 0.10723 0.0
C259 C 0.9278 0.57092 0.99517 0.0
H260 H 0.9581 0.56056 1.01427 0.0
H261 H 0.89711 0.5435 0.93573 0.0
H262 H 0.94812 0.60914 0.95127 0.0
O263 O 1.02945 0.5687 0.2661 0.0
O264 O 1.03601 0.63402 0.36911 0.0
H265 H 0.90557 0.70179 0.18044 0.0
H266 H 0.84959 0.66421 0.2675 0.0
C267 C 0.89007 0.67324 0.2519 0.0
H268 H 0.91349 0.69099 0.32838 0.0
H269 H 1.0282 0.72934 0.38461 0.0
O270 O 0.92321 0.47912 0.16522 0.0
C271 C 1.05722 0.6121 0.31661 0.0
Co272 Co 0.47727 0.9226 0.77087 0.0
Co273 Co 0.41029 0.93524 0.91667 0.0
C274 C 0.49186 0.90537 1.01412 0.0
O275 O 0.50222 0.90128 0.91097 0.0
O276 O 0.45562 0.91648 1.03295 0.0
C277 C 0.47688 0.84922 0.62222 0.0
O278 O 0.43422 0.81188 0.66917 0.0
C279 C 0.33158 0.91254 0.06905 0.0
C280 C 0.29026 0.9485 0.98482 0.0
C281 C 0.28303 0.90834 1.05686 0.0
N282 N 0.36357 0.9484 0.99614 0.0
N283 N 0.34038 0.97246 0.95101 0.0
C284 C 0.34743 0.87861 0.13243 0.0
H285 H 0.36277 0.86089 0.07159 0.0
H286 H 0.31526 0.84718 0.18076 0.0
H287 H 0.37965 0.90313 0.19216 0.0
C288 C 0.38517 0.87532 0.60336 0.0
N289 N 0.4063 0.89324 0.70929 0.0
N290 N 0.3701 0.88885 0.77947 0.0
C291 C 0.32333 0.86257 0.71987 0.0
C292 C 0.33109 0.85029 0.60725 0.0
C293 C 0.41405 0.89921 0.49518 0.0
H294 H 0.45471 0.92951 0.51429 0.0
H295 H 0.41078 0.86852 0.43573 0.0
H296 H 0.39616 0.91954 0.45129 0.0
O297 O 0.51792 1.00086 0.7661 0.0
O298 O 0.45917 1.00743 0.86912 0.0
H299 H 0.26097 0.877 0.68045 0.0
H300 H 0.24256 0.82101 0.76751 0.0
C301 C 0.27401 0.86149 0.75192 0.0
H302 H 0.27969 0.88491 0.8284 0.0
H303 H 0.35604 0.99962 0.88465 0.0
O304 O 0.50126 0.89462 0.66522 0.0
C305 C 0.50229 1.02863 0.81661 0.0
Co306 Co 0.61185 0.44869 0.27088 0.0
Co307 Co 0.53223 0.38171 0.41668 0.0
C308 C 0.64366 0.46327 0.51413 0.0
O309 O 0.65812 0.47364 0.41097 0.0
O310 O 0.59632 0.42704 0.53295 0.0
C311 C 0.68484 0.4483 0.12221 0.0
O312 O 0.67951 0.40563 0.16916 0.0
C313 C 0.47622 0.303 0.56905 0.0
C314 C 0.39894 0.26168 0.48483 0.0
C315 C 0.43187 0.25444 0.55686 0.0
N316 N 0.47234 0.33498 0.49615 0.0
N317 N 0.4251 0.3118 0.45102 0.0
C318 C 0.526 0.31885 0.63243 0.0
H319 H 0.55905 0.33418 0.57159 0.0
H320 H 0.52526 0.28668 0.68076 0.0
H321 H 0.53371 0.35107 0.69216 0.0
C322 C 0.56702 0.35658 0.10337 0.0
N323 N 0.57023 0.37771 0.20929 0.0
N324 N 0.53843 0.34152 0.27947 0.0
C325 C 0.51793 0.29474 0.21988 0.0
C326 C 0.53797 0.3025 0.10725 0.0
C327 C 0.57201 0.38546 0.99519 0.0
H328 H 0.58237 0.42612 1.0143 0.0
H329 H 0.59943 0.38219 0.93574 0.0
H330 H 0.5338 0.36758 0.9513 0.0
O331 O 0.57424 0.48933 0.26611 0.0
O332 O 0.50891 0.43058 0.36912 0.0
H333 H 0.44115 0.23238 0.18046 0.0
H334 H 0.47872 0.21397 0.26751 0.0
C335 C 0.46969 0.24542 0.25192 0.0
H336 H 0.45195 0.2511 0.32841 0.0
H337 H 0.41359 0.32745 0.38467 0.0
O338 O 0.66382 0.47268 0.16522 0.0
C339 C 0.53084 0.47371 0.31661 0.0
Co340 Co 0.22033 0.58326 0.77087 0.0
Co341 Co 0.20769 0.50364 0.91667 0.0
C342 C 0.23756 0.61507 1.01413 0.0
O343 O 0.24166 0.62953 0.91097 0.0
O344 O 0.22646 0.56773 1.03294 0.0
C345 C 0.29371 0.65625 0.62221 0.0
O346 O 0.33105 0.65092 0.66916 0.0
C347 C 0.2304 0.44764 0.06904 0.0
C348 C 0.19444 0.37036 0.98481 0.0
C349 C 0.2346 0.40328 1.05684 0.0
N350 N 0.19454 0.44376 0.99613 0.0
N351 N 0.17047 0.39651 0.951 0.0
C352 C 0.26433 0.49741 0.13243 0.0
H353 H 0.28204 0.53046 0.07159 0.0
H354 H 0.29575 0.49668 0.18075 0.0
H355 H 0.23981 0.50512 0.19215 0.0
C356 C 0.26761 0.53844 0.60336 0.0
N357 N 0.24969 0.54164 0.70929 0.0
N358 N 0.25408 0.50984 0.77946 0.0
C359 C 0.28036 0.48934 0.71986 0.0
C360 C 0.29264 0.50938 0.60724 0.0
C361 C 0.24372 0.54342 0.49518 0.0
H362 H 0.21342 0.55378 0.51429 0.0
H363 H 0.27442 0.57084 0.43573 0.0
H364 H 0.2234 0.50521 0.45129 0.0
O365 O 0.14208 0.54565 0.76611 0.0
O366 O 0.1355 0.48033 0.86912 0.0
H367 H 0.26595 0.41256 0.68044 0.0
H368 H 0.32193 0.45014 0.7675 0.0
C369 C 0.28145 0.44111 0.75191 0.0
H370 H 0.25802 0.42336 0.82839 0.0
H371 H 0.14332 0.385 0.88465 0.0
O372 O 0.24831 0.63523 0.66522 0.0
C373 C 0.1143 0.50225 0.81662 0.0
Co374 Co 0.69425 0.19175 0.27087 0.0
Co375 Co 0.76123 0.17911 0.41665 0.0
C376 C 0.67967 0.20898 0.51412 0.0
O377 O 0.6693 0.21307 0.41097 0.0
O378 O 0.7159 0.19787 0.53294 0.0
C379 C 0.69463 0.26512 0.12221 0.0
O380 O 0.73729 0.30246 0.16917 0.0
C381 C 0.83994 0.20181 0.56902 0.0
C382 C 0.88126 0.16585 0.48478 0.0
C383 C 0.88849 0.20601 0.55682 0.0
N384 N 0.80796 0.16595 0.49611 0.0
N385 N 0.83114 0.14189 0.45097 0.0
C386 C 0.82409 0.23574 0.63242 0.0
H387 H 0.80875 0.25345 0.57159 0.0
H388 H 0.85625 0.26717 0.68075 0.0
H389 H 0.79186 0.21122 0.69215 0.0
C390 C 0.78635 0.23903 0.10335 0.0
N391 N 0.76522 0.22111 0.20927 0.0
N392 N 0.80142 0.2255 0.27945 0.0
C393 C 0.84819 0.25178 0.21985 0.0
C394 C 0.84043 0.26405 0.10722 0.0
C395 C 0.75747 0.21514 0.99517 0.0
H396 H 0.71682 0.18484 1.01428 0.0
H397 H 0.76075 0.24584 0.93573 0.0
H398 H 0.77536 0.19482 0.95126 0.0
O399 O 0.6536 0.11349 0.26611 0.0
O400 O 0.71235 0.10692 0.36911 0.0
H401 H 0.91056 0.23736 0.18043 0.0
H402 H 0.92896 0.29334 0.26749 0.0
C403 C 0.89752 0.25287 0.25189 0.0
H404 H 0.89183 0.22944 0.32837 0.0
H405 H 0.81549 0.11474 0.38461 0.0
O406 O 0.67025 0.21972 0.16522 0.0
C407 C 0.66923 0.08572 0.31662 0.0
loop_
_geom_bond_atom_site_label_1
_geom_bond_atom_site_label_2
_geom_bond_distance
_geom_bond_site_symmetry_2
_ccdc_geom_bond_type
Co0 O3 1.970 . S
Co0 N17 1.989 . S
Co0 O25 1.967 . S
Co0 O32 1.920 . S
Co1 O4 1.966 . S
Co1 N10 2.022 . S
Co1 N18 1.993 . S
Co1 O26 1.941 . S
C2 O3 1.258 . S
C2 O4 1.263 . S
O3 Co0 1.970 . S
O3 C2 1.258 . S
O4 Co1 1.966 . S
O4 C2 1.263 . S
C5 O6 1.235 . S
C5 O32 1.289 . S
O6 C5 1.235 . S
C7 C9 1.400 . S
C7 N10 1.351 1_556 S
C7 C12 1.501 . S
C8 C9 1.387 1_554 S
C8 N11 1.341 . S
C9 C7 1.400 . S
C9 C8 1.387 1_556 S
N10 Co1 2.022 . S
N10 C7 1.351 1_554 S
N10 N11 1.365 . S
N11 C8 1.341 . S
N11 N10 1.365 . S
N11 H31 0.862 . S
C12 C7 1.501 . S
C12 H13 0.961 . S
C12 H14 0.961 . S
C12 H15 0.960 . S
H13 C12 0.961 . S
H14 C12 0.961 . S
H15 C12 0.960 . S
C16 N17 1.342 . S
C16 C20 1.401 . S
C16 C21 1.499 . S
N17 Co0 1.989 . S
N17 C16 1.342 . S
N17 N18 1.388 . S
N18 Co1 1.993 . S
N18 N17 1.388 . S
N18 C19 1.346 . S
C19 N18 1.346 . S
C19 C20 1.396 . S
C19 C29 1.510 . S
C20 C16 1.401 . S
C20 C19 1.396 . S
C21 C16 1.499 . S
C21 H22 0.959 . S
C21 H23 0.960 . S
C21 H24 0.961 . S
H22 C21 0.959 . S
H23 C21 0.960 . S
H24 C21 0.961 . S
O25 Co0 1.967 . S
O25 C33 1.258 . S
O26 Co1 1.941 . S
O26 C33 1.266 . S
H27 C29 0.959 . S
H28 C29 0.961 . S
C29 C19 1.510 . S
C29 H27 0.959 . S
C29 H28 0.961 . S
C29 H30 0.960 . S
H30 C29 0.960 . S
H31 N11 0.862 . S
O32 Co0 1.920 . S
O32 C5 1.289 . S
C33 O25 1.258 . S
C33 O26 1.266 . S
Co34 O37 1.970 . S
Co34 N51 1.989 . S
Co34 O59 1.967 . S
Co34 O66 1.920 . S
Co35 O38 1.966 . S
Co35 N44 2.022 . S
Co35 N52 1.993 . S
Co35 O60 1.941 . S
C36 O37 1.258 . S
C36 O38 1.263 . S
O37 Co34 1.970 . S
O37 C36 1.258 . S
O38 Co35 1.966 . S
O38 C36 1.263 . S
C39 O40 1.235 . S
C39 O66 1.289 . S
O40 C39 1.235 . S
C41 C43 1.400 . S
C41 N44 1.351 . S
C41 C46 1.501 . S
C42 C43 1.387 . S
C42 N45 1.341 . S
C43 C41 1.400 . S
C43 C42 1.387 . S
N44 Co35 2.022 . S
N44 C41 1.351 . S
N44 N45 1.365 . S
N45 C42 1.341 . S
N45 N44 1.365 . S
N45 H65 0.862 . S
C46 C41 1.501 . S
C46 H47 0.961 . S
C46 H48 0.961 . S
C46 H49 0.960 . S
H47 C46 0.961 . S
H48 C46 0.961 . S
H49 C46 0.960 . S
C50 N51 1.342 . S
C50 C54 1.401 . S
C50 C55 1.499 1_556 S
N51 Co34 1.989 . S
N51 C50 1.342 . S
N51 N52 1.388 . S
N52 Co35 1.993 . S
N52 N51 1.388 . S
N52 C53 1.346 . S
C53 N52 1.346 . S
C53 C54 1.396 . S
C53 C63 1.510 . S
C54 C50 1.401 . S
C54 C53 1.396 . S
C55 C50 1.499 1_554 S
C55 H56 0.959 . S
C55 H57 0.960 . S
C55 H58 0.961 . S
H56 C55 0.959 . S
H57 C55 0.960 . S
H58 C55 0.961 . S
O59 Co34 1.967 . S
O59 C67 1.258 . S
O60 Co35 1.941 . S
O60 C67 1.266 . S
H61 C63 0.959 . S
H62 C63 0.961 . S
C63 C53 1.510 . S
C63 H61 0.959 . S
C63 H62 0.961 . S
C63 H64 0.960 . S
H64 C63 0.960 . S
H65 N45 0.862 . S
O66 Co34 1.920 . S
O66 C39 1.289 . S
C67 O59 1.258 . S
C67 O60 1.266 . S
Co68 O71 1.970 . S
Co68 N85 1.989 . S
Co68 O93 1.967 . S
Co68 O100 1.920 . S
Co69 O72 1.966 . S
Co69 N78 2.022 . S
Co69 N86 1.993 . S
Co69 O94 1.941 . S
C70 O71 1.258 . S
C70 O72 1.263 . S
O71 Co68 1.970 . S
O71 C70 1.258 . S
O72 Co69 1.966 . S
O72 C70 1.263 . S
C73 O74 1.235 . S
C73 O100 1.289 . S
O74 C73 1.235 . S
C75 C77 1.400 . S
C75 N78 1.351 1_556 S
C75 C80 1.501 . S
C76 C77 1.387 1_554 S
C76 N79 1.341 . S
C77 C75 1.400 . S
C77 C76 1.387 1_556 S
N78 Co69 2.022 . S
N78 C75 1.351 1_554 S
N78 N79 1.365 . S
N79 C76 1.341 . S
N79 N78 1.365 . S
N79 H99 0.862 . S
C80 C75 1.501 . S
C80 H81 0.961 . S
C80 H82 0.961 . S
C80 H83 0.960 . S
H81 C80 0.961 . S
H82 C80 0.961 . S
H83 C80 0.960 . S
C84 N85 1.342 . S
C84 C88 1.401 . S
C84 C89 1.499 . S
N85 Co68 1.989 . S
N85 C84 1.342 . S
N85 N86 1.388 . S
N86 Co69 1.993 . S
N86 N85 1.388 . S
N86 C87 1.346 . S
C87 N86 1.346 . S
C87 C88 1.396 . S
C87 C97 1.510 . S
C88 C84 1.401 . S
C88 C87 1.396 . S
C89 C84 1.499 . S
C89 H90 0.959 . S
C89 H91 0.960 . S
C89 H92 0.961 . S
H90 C89 0.959 . S
H91 C89 0.960 . S
H92 C89 0.961 . S
O93 Co68 1.967 . S
O93 C101 1.258 . S
O94 Co69 1.941 . S
O94 C101 1.266 . S
H95 C97 0.959 . S
H96 C97 0.961 . S
C97 C87 1.510 . S
C97 H95 0.959 . S
C97 H96 0.961 . S
C97 H98 0.960 . S
H98 C97 0.960 . S
H99 N79 0.862 . S
O100 Co68 1.920 . S
O100 C73 1.289 . S
C101 O93 1.258 . S
C101 O94 1.266 . S
Co102 O105 1.970 . S
Co102 N119 1.989 . S
Co102 O127 1.967 . S
Co102 O134 1.920 . S
Co103 O106 1.966 . S
Co103 N112 2.022 . S
Co103 N120 1.993 . S
Co103 O128 1.941 . S
C104 O105 1.258 . S
C104 O106 1.263 . S
O105 Co102 1.970 . S
O105 C104 1.258 . S
O106 Co103 1.966 . S
O106 C104 1.263 . S
C107 O108 1.235 . S
C107 O134 1.289 . S
O108 C107 1.235 . S
C109 C111 1.400 . S
C109 N112 1.351 . S
C109 C114 1.501 . S
C110 C111 1.387 . S
C110 N113 1.341 . S
C111 C109 1.400 . S
C111 C110 1.387 . S
N112 Co103 2.022 . S
N112 C109 1.351 . S
N112 N113 1.365 . S
N113 C110 1.341 . S
N113 N112 1.365 . S
N113 H133 0.862 . S
C114 C109 1.501 . S
C114 H115 0.961 . S
C114 H116 0.961 . S
C114 H117 0.960 . S
H115 C114 0.961 . S
H116 C114 0.961 . S
H117 C114 0.960 . S
C118 N119 1.342 . S
C118 C122 1.401 . S
C118 C123 1.499 1_556 S
N119 Co102 1.989 . S
N119 C118 1.342 . S
N119 N120 1.388 . S
N120 Co103 1.993 . S
N120 N119 1.388 . S
N120 C121 1.346 . S
C121 N120 1.346 . S
C121 C122 1.396 . S
C121 C131 1.510 . S
C122 C118 1.401 . S
C122 C121 1.396 . S
C123 C118 1.499 1_554 S
C123 H124 0.959 . S
C123 H125 0.960 . S
C123 H126 0.961 . S
H124 C123 0.959 . S
H125 C123 0.960 . S
H126 C123 0.961 . S
O127 Co102 1.967 . S
O127 C135 1.258 . S
O128 Co103 1.941 . S
O128 C135 1.266 . S
H129 C131 0.959 . S
H130 C131 0.961 . S
C131 C121 1.510 . S
C131 H129 0.959 . S
C131 H130 0.961 . S
C131 H132 0.960 . S
H132 C131 0.960 . S
H133 N113 0.862 . S
O134 Co102 1.920 . S
O134 C107 1.289 . S
C135 O127 1.258 . S
C135 O128 1.266 . S
Co136 O139 1.970 . S
Co136 N153 1.989 . S
Co136 O161 1.967 . S
Co136 O168 1.920 . S
Co137 O140 1.966 . S
Co137 N146 2.022 . S
Co137 N154 1.993 . S
Co137 O162 1.941 . S
C138 O139 1.258 . S
C138 O140 1.263 . S
O139 Co136 1.970 . S
O139 C138 1.258 . S
O140 Co137 1.966 . S
O140 C138 1.263 . S
C141 O142 1.235 . S
C141 O168 1.289 . S
O142 C141 1.235 . S
C143 C145 1.400 . S
C143 N146 1.351 1_556 S
C143 C148 1.501 . S
C144 C145 1.387 1_554 S
C144 N147 1.341 . S
C145 C143 1.400 . S
C145 C144 1.387 1_556 S
N146 Co137 2.022 . S
N146 C143 1.351 1_554 S
N146 N147 1.365 . S
N147 C144 1.341 . S
N147 N146 1.365 . S
N147 H167 0.862 . S
C148 C143 1.501 . S
C148 H149 0.961 . S
C148 H150 0.961 . S
C148 H151 0.960 . S
H149 C148 0.961 . S
H150 C148 0.961 . S
H151 C148 0.960 . S
C152 N153 1.342 . S
C152 C156 1.401 . S
C152 C157 1.499 . S
N153 Co136 1.989 . S
N153 C152 1.342 . S
N153 N154 1.388 . S
N154 Co137 1.993 . S
N154 N153 1.388 . S
N154 C155 1.346 . S
C155 N154 1.346 . S
C155 C156 1.396 . S
C155 C165 1.510 . S
C156 C152 1.401 . S
C156 C155 1.396 . S
C157 C152 1.499 . S
C157 H158 0.959 . S
C157 H159 0.960 . S
C157 H160 0.961 . S
H158 C157 0.959 . S
H159 C157 0.960 . S
H160 C157 0.961 . S
O161 Co136 1.967 . S
O161 C169 1.258 . S
O162 Co137 1.941 . S
O162 C169 1.266 . S
H163 C165 0.959 . S
H164 C165 0.961 . S
C165 C155 1.510 . S
C165 H163 0.959 . S
C165 H164 0.961 . S
C165 H166 0.960 . S
H166 C165 0.960 . S
H167 N147 0.862 . S
O168 Co136 1.920 . S
O168 C141 1.289 . S
C169 O161 1.258 . S
C169 O162 1.266 . S
Co170 O173 1.970 . S
Co170 N187 1.989 . S
Co170 O195 1.967 . S
Co170 O202 1.920 . S
Co171 O174 1.966 . S
Co171 N180 2.022 . S
Co171 N188 1.993 . S
Co171 O196 1.941 . S
C172 O173 1.258 . S
C172 O174 1.263 . S
O173 Co170 1.970 . S
O173 C172 1.258 . S
O174 Co171 1.966 . S
O174 C172 1.263 . S
C175 O176 1.235 . S
C175 O202 1.289 . S
O176 C175 1.235 . S
C177 C179 1.400 . S
C177 N180 1.351 . S
C177 C182 1.501 . S
C178 C179 1.387 . S
C178 N181 1.341 . S
C179 C177 1.400 . S
C179 C178 1.387 . S
N180 Co171 2.022 . S
N180 C177 1.351 . S
N180 N181 1.365 . S
N181 C178 1.341 . S
N181 N180 1.365 . S
N181 H201 0.862 . S
C182 C177 1.501 . S
C182 H183 0.961 . S
C182 H184 0.961 . S
C182 H185 0.960 . S
H183 C182 0.961 . S
H184 C182 0.961 . S
H185 C182 0.960 . S
C186 N187 1.342 . S
C186 C190 1.401 . S
C186 C191 1.499 1_556 S
N187 Co170 1.989 . S
N187 C186 1.342 . S
N187 N188 1.388 . S
N188 Co171 1.993 . S
N188 N187 1.388 . S
N188 C189 1.346 . S
C189 N188 1.346 . S
C189 C190 1.396 . S
C189 C199 1.510 . S
C190 C186 1.401 . S
C190 C189 1.396 . S
C191 C186 1.499 1_554 S
C191 H192 0.959 . S
C191 H193 0.960 . S
C191 H194 0.961 . S
H192 C191 0.959 . S
H193 C191 0.960 . S
H194 C191 0.961 . S
O195 Co170 1.967 . S
O195 C203 1.258 . S
O196 Co171 1.941 . S
O196 C203 1.266 . S
H197 C199 0.959 . S
H198 C199 0.961 . S
C199 C189 1.510 . S
C199 H197 0.959 . S
C199 H198 0.961 . S
C199 H200 0.960 . S
H200 C199 0.960 . S
H201 N181 0.862 . S
O202 Co170 1.920 . S
O202 C175 1.289 . S
C203 O195 1.258 . S
C203 O196 1.266 . S
Co204 O207 1.970 . S
Co204 N221 1.989 . S
Co204 O229 1.967 . S
Co204 O236 1.920 . S
Co205 O208 1.966 . S
Co205 N214 2.022 . S
Co205 N222 1.993 . S
Co205 O230 1.941 . S
C206 O207 1.258 . S
C206 O208 1.263 . S
O207 Co204 1.970 . S
O207 C206 1.258 . S
O208 Co205 1.966 . S
O208 C206 1.263 . S
C209 O210 1.235 . S
C209 O236 1.289 . S
O210 C209 1.235 . S
C211 C213 1.400 . S
C211 N214 1.351 1_554 S
C211 C216 1.501 . S
C212 C213 1.387 1_556 S
C212 N215 1.341 . S
C213 C211 1.400 . S
C213 C212 1.387 1_554 S
N214 Co205 2.022 . S
N214 C211 1.351 1_556 S
N214 N215 1.365 . S
N215 C212 1.341 . S
N215 N214 1.365 . S
N215 H235 0.862 . S
C216 C211 1.501 . S
C216 H217 0.961 . S
C216 H218 0.961 . S
C216 H219 0.960 . S
H217 C216 0.961 . S
H218 C216 0.961 . S
H219 C216 0.960 . S
C220 N221 1.342 . S
C220 C224 1.401 . S
C220 C225 1.499 . S
N221 Co204 1.989 . S
N221 C220 1.342 . S
N221 N222 1.388 . S
N222 Co205 1.993 . S
N222 N221 1.388 . S
N222 C223 1.346 . S
C223 N222 1.346 . S
C223 C224 1.396 . S
C223 C233 1.510 . S
C224 C220 1.401 . S
C224 C223 1.396 . S
C225 C220 1.499 . S
C225 H226 0.959 . S
C225 H227 0.960 . S
C225 H228 0.961 . S
H226 C225 0.959 . S
H227 C225 0.960 . S
H228 C225 0.961 . S
O229 Co204 1.967 . S
O229 C237 1.258 . S
O230 Co205 1.941 . S
O230 C237 1.266 . S
H231 C233 0.959 . S
H232 C233 0.961 . S
C233 C223 1.510 . S
C233 H231 0.959 . S
C233 H232 0.961 . S
C233 H234 0.960 . S
H234 C233 0.960 . S
H235 N215 0.862 . S
O236 Co204 1.920 . S
O236 C209 1.289 . S
C237 O229 1.258 . S
C237 O230 1.266 . S
Co238 O241 1.970 . S
Co238 N255 1.989 . S
Co238 O263 1.967 . S
Co238 O270 1.920 . S
Co239 O242 1.966 . S
Co239 N248 2.022 . S
Co239 N256 1.993 . S
Co239 O264 1.941 . S
C240 O241 1.258 . S
C240 O242 1.263 . S
O241 Co238 1.970 . S
O241 C240 1.258 . S
O242 Co239 1.966 . S
O242 C240 1.263 . S
C243 O244 1.235 . S
C243 O270 1.289 . S
O244 C243 1.235 . S
C245 C247 1.400 . S
C245 N248 1.351 . S
C245 C250 1.501 . S
C246 C247 1.387 . S
C246 N249 1.341 . S
C247 C245 1.400 . S
C247 C246 1.387 . S
N248 Co239 2.022 . S
N248 C245 1.351 . S
N248 N249 1.365 . S
N249 C246 1.341 . S
N249 N248 1.365 . S
N249 H269 0.862 . S
C250 C245 1.501 . S
C250 H251 0.961 . S
C250 H252 0.961 . S
C250 H253 0.960 . S
H251 C250 0.961 . S
H252 C250 0.961 . S
H253 C250 0.960 . S
C254 N255 1.342 . S
C254 C258 1.401 . S
C254 C259 1.499 1_554 S
N255 Co238 1.989 . S
N255 C254 1.342 . S
N255 N256 1.388 . S
N256 Co239 1.993 . S
N256 N255 1.388 . S
N256 C257 1.346 . S
C257 N256 1.346 . S
C257 C258 1.396 . S
C257 C267 1.510 . S
C258 C254 1.401 . S
C258 C257 1.396 . S
C259 C254 1.499 1_556 S
C259 H260 0.959 . S
C259 H261 0.960 . S
C259 H262 0.961 . S
H260 C259 0.959 . S
H261 C259 0.960 . S
H262 C259 0.961 . S
O263 Co238 1.967 . S
O263 C271 1.258 . S
O264 Co239 1.941 . S
O264 C271 1.266 . S
H265 C267 0.959 . S
H266 C267 0.961 . S
C267 C257 1.510 . S
C267 H265 0.959 . S
C267 H266 0.961 . S
C267 H268 0.960 . S
H268 C267 0.960 . S
H269 N249 0.862 . S
O270 Co238 1.920 . S
O270 C243 1.289 . S
C271 O263 1.258 . S
C271 O264 1.266 . S
Co272 O275 1.970 . S
Co272 N289 1.989 . S
Co272 O297 1.967 . S
Co272 O304 1.920 . S
Co273 O276 1.966 . S
Co273 N282 2.022 . S
Co273 N290 1.993 . S
Co273 O298 1.941 . S
C274 O275 1.258 . S
C274 O276 1.263 . S
O275 Co272 1.970 . S
O275 C274 1.258 . S
O276 Co273 1.966 . S
O276 C274 1.263 . S
C277 O278 1.235 . S
C277 O304 1.289 . S
O278 C277 1.235 . S
C279 C281 1.400 . S
C279 N282 1.351 1_554 S
C279 C284 1.501 . S
C280 C281 1.387 1_556 S
C280 N283 1.341 . S
C281 C279 1.400 . S
C281 C280 1.387 1_554 S
N282 Co273 2.022 . S
N282 C279 1.351 1_556 S
N282 N283 1.365 . S
N283 C280 1.341 . S
N283 N282 1.365 . S
N283 H303 0.862 . S
C284 C279 1.501 . S
C284 H285 0.961 . S
C284 H286 0.961 . S
C284 H287 0.960 . S
H285 C284 0.961 . S
H286 C284 0.961 . S
H287 C284 0.960 . S
C288 N289 1.342 . S
C288 C292 1.401 . S
C288 C293 1.499 . S
N289 Co272 1.989 . S
N289 C288 1.342 . S
N289 N290 1.388 . S
N290 Co273 1.993 . S
N290 N289 1.388 . S
N290 C291 1.346 . S
C291 N290 1.346 . S
C291 C292 1.396 . S
C291 C301 1.510 . S
C292 C288 1.401 . S
C292 C291 1.396 . S
C293 C288 1.499 . S
C293 H294 0.959 . S
C293 H295 0.960 . S
C293 H296 0.961 . S
H294 C293 0.959 . S
H295 C293 0.960 . S
H296 C293 0.961 . S
O297 Co272 1.967 . S
O297 C305 1.258 . S
O298 Co273 1.941 . S
O298 C305 1.266 . S
H299 C301 0.959 . S
H300 C301 0.961 . S
C301 C291 1.510 . S
C301 H299 0.959 . S
C301 H300 0.961 . S
C301 H302 0.960 . S
H302 C301 0.960 . S
H303 N283 0.862 . S
O304 Co272 1.920 . S
O304 C277 1.289 . S
C305 O297 1.258 . S
C305 O298 1.266 . S
Co306 O309 1.970 . S
Co306 N323 1.989 . S
Co306 O331 1.967 . S
Co306 O338 1.920 . S
Co307 O310 1.966 . S
Co307 N316 2.022 . S
Co307 N324 1.993 . S
Co307 O332 1.941 . S
C308 O309 1.258 . S
C308 O310 1.263 . S
O309 Co306 1.970 . S
O309 C308 1.258 . S
O310 Co307 1.966 . S
O310 C308 1.263 . S
C311 O312 1.235 . S
C311 O338 1.289 . S
O312 C311 1.235 . S
C313 C315 1.400 . S
C313 N316 1.351 . S
C313 C318 1.501 . S
C314 C315 1.387 . S
C314 N317 1.341 . S
C315 C313 1.400 . S
C315 C314 1.387 . S
N316 Co307 2.022 . S
N316 C313 1.351 . S
N316 N317 1.365 . S
N317 C314 1.341 . S
N317 N316 1.365 . S
N317 H337 0.862 . S
C318 C313 1.501 . S
C318 H319 0.961 . S
C318 H320 0.961 . S
C318 H321 0.960 . S
H319 C318 0.961 . S
H320 C318 0.961 . S
H321 C318 0.960 . S
C322 N323 1.342 . S
C322 C326 1.401 . S
C322 C327 1.499 1_554 S
N323 Co306 1.989 . S
N323 C322 1.342 . S
N323 N324 1.388 . S
N324 Co307 1.993 . S
N324 N323 1.388 . S
N324 C325 1.346 . S
C325 N324 1.346 . S
C325 C326 1.396 . S
C325 C335 1.510 . S
C326 C322 1.401 . S
C326 C325 1.396 . S
C327 C322 1.499 1_556 S
C327 H328 0.959 . S
C327 H329 0.960 . S
C327 H330 0.961 . S
H328 C327 0.959 . S
H329 C327 0.960 . S
H330 C327 0.961 . S
O331 Co306 1.967 . S
O331 C339 1.258 . S
O332 Co307 1.941 . S
O332 C339 1.266 . S
H333 C335 0.959 . S
H334 C335 0.961 . S
C335 C325 1.510 . S
C335 H333 0.959 . S
C335 H334 0.961 . S
C335 H336 0.960 . S
H336 C335 0.960 . S
H337 N317 0.862 . S
O338 Co306 1.920 . S
O338 C311 1.289 . S
C339 O331 1.258 . S
C339 O332 1.266 . S
Co340 O343 1.970 . S
Co340 N357 1.989 . S
Co340 O365 1.967 . S
Co340 O372 1.920 . S
Co341 O344 1.966 . S
Co341 N350 2.022 . S
Co341 N358 1.993 . S
Co341 O366 1.941 . S
C342 O343 1.258 . S
C342 O344 1.263 . S
O343 Co340 1.970 . S
O343 C342 1.258 . S
O344 Co341 1.966 . S
O344 C342 1.263 . S
C345 O346 1.235 . S
C345 O372 1.289 . S
O346 C345 1.235 . S
C347 C349 1.400 . S
C347 N350 1.351 1_554 S
C347 C352 1.501 . S
C348 C349 1.387 1_556 S
C348 N351 1.341 . S
C349 C347 1.400 . S
C349 C348 1.387 1_554 S
N350 Co341 2.022 . S
N350 C347 1.351 1_556 S
N350 N351 1.365 . S
N351 C348 1.341 . S
N351 N350 1.365 . S
N351 H371 0.862 . S
C352 C347 1.501 . S
C352 H353 0.961 . S
C352 H354 0.961 . S
C352 H355 0.960 . S
H353 C352 0.961 . S
H354 C352 0.961 . S
H355 C352 0.960 . S
C356 N357 1.342 . S
C356 C360 1.401 . S
C356 C361 1.499 . S
N357 Co340 1.989 . S
N357 C356 1.342 . S
N357 N358 1.388 . S
N358 Co341 1.993 . S
N358 N357 1.388 . S
N358 C359 1.346 . S
C359 N358 1.346 . S
C359 C360 1.396 . S
C359 C369 1.510 . S
C360 C356 1.401 . S
C360 C359 1.396 . S
C361 C356 1.499 . S
C361 H362 0.959 . S
C361 H363 0.960 . S
C361 H364 0.961 . S
H362 C361 0.959 . S
H363 C361 0.960 . S
H364 C361 0.961 . S
O365 Co340 1.967 . S
O365 C373 1.258 . S
O366 Co341 1.941 . S
O366 C373 1.266 . S
H367 C369 0.959 . S
H368 C369 0.961 . S
C369 C359 1.510 . S
C369 H367 0.959 . S
C369 H368 0.961 . S
C369 H370 0.960 . S
H370 C369 0.960 . S
H371 N351 0.862 . S
O372 Co340 1.920 . S
O372 C345 1.289 . S
C373 O365 1.258 . S
C373 O366 1.266 . S
Co374 O377 1.970 . S
Co374 N391 1.989 . S
Co374 O399 1.967 . S
Co374 O406 1.920 . S
Co375 O378 1.966 . S
Co375 N384 2.022 . S
Co375 N392 1.993 . S
Co375 O400 1.941 . S
C376 O377 1.258 . S
C376 O378 1.263 . S
O377 Co374 1.970 . S
O377 C376 1.258 . S
O378 Co375 1.966 . S
O378 C376 1.263 . S
C379 O380 1.235 . S
C379 O406 1.289 . S
O380 C379 1.235 . S
C381 C383 1.400 . S
C381 N384 1.351 . S
C381 C386 1.501 . S
C382 C383 1.387 . S
C382 N385 1.341 . S
C383 C381 1.400 . S
C383 C382 1.387 . S
N384 Co375 2.022 . S
N384 C381 1.351 . S
N384 N385 1.365 . S
N385 C382 1.341 . S
N385 N384 1.365 . S
N385 H405 0.862 . S
C386 C381 1.501 . S
C386 H387 0.961 . S
C386 H388 0.961 . S
C386 H389 0.960 . S
H387 C386 0.961 . S
H388 C386 0.961 . S
H389 C386 0.960 . S
C390 N391 1.342 . S
C390 C394 1.401 . S
C390 C395 1.499 1_554 S
N391 Co374 1.989 . S
N391 C390 1.342 . S
N391 N392 1.388 . S
N392 Co375 1.993 . S
N392 N391 1.388 . S
N392 C393 1.346 . S
C393 N392 1.346 . S
C393 C394 1.396 . S
C393 C403 1.510 . S
C394 C390 1.401 . S
C394 C393 1.396 . S
C395 C390 1.499 1_556 S
C395 H396 0.959 . S
C395 H397 0.960 . S
C395 H398 0.961 . S
H396 C395 0.959 . S
H397 C395 0.960 . S
H398 C395 0.961 . S
O399 Co374 1.967 . S
O399 C407 1.258 . S
O400 Co375 1.941 . S
O400 C407 1.266 . S
H401 C403 0.959 . S
H402 C403 0.961 . S
C403 C393 1.510 . S
C403 H401 0.959 . S
C403 H402 0.961 . S
C403 H404 0.960 . S
H404 C403 0.960 . S
H405 N385 0.862 . S
O406 Co374 1.920 . S
O406 C379 1.289 . S
C407 O399 1.258 . S
C407 O400 1.266 . S
C2 C206 4.344 1_554 S
C36 C240 4.344 . S
C70 C274 4.344 1_554 S
C308 C104 4.344 . S
C138 C342 4.344 1_554 S
C376 C172 4.344 . S
C311 C107 0.450 1_554 S
C141 C345 0.450 . S
C379 C175 0.450 1_554 S
C209 C5 0.450 . S
C243 C39 0.450 1_554 S
C73 C277 0.450 . S
C349 C9 1.210 1_554 S
C43 C383 1.210 . S
C77 C213 1.210 1_556 S
C111 C247 1.210 . S
C145 C281 1.210 1_556 S
C179 C315 1.210 . S
C122 C258 3.227 1_556 S
C156 C292 3.227 . S
C326 C190 3.227 1_554 S
C20 C360 3.227 . S
C394 C54 3.227 1_554 S
C88 C224 3.227 . S
C33 C339 0.545 . S
C373 C67 0.546 1_455 S
C407 C101 0.545 1_545 S
C237 C135 0.545 . S
C169 C271 0.546 1_455 S
C305 C203 0.545 1_565 S
