# Generated by pormake.
# Topology acs-g, (3)-cn, num edge types: 1
# Building blocks:
#     Node 0, Type 0, BuildingBlock: OLANEW_clean_sbu_2, # of connection points: 3
#     Node 1, Type 0, BuildingBlock: OLANEW_clean_sbu_2, # of connection points: 3
#     Node 2, Type 0, BuildingBlock: OLANEW_clean_sbu_2, # of connection points: 3
#     Node 3, Type 0, BuildingBlock: OLANEW_clean_sbu_2, # of connection points: 3
#     Node 4, Type 0, BuildingBlock: OLANEW_clean_sbu_2, # of connection points: 3
#     Node 5, Type 0, BuildingBlock: OLANEW_clean_sbu_2, # of connection points: 3
#     Node 6, Type 0, BuildingBlock: OLANEW_clean_sbu_2, # of connection points: 3
#     Node 7, Type 0, BuildingBlock: OLANEW_clean_sbu_2, # of connection points: 3
#     Node 8, Type 0, BuildingBlock: OLANEW_clean_sbu_2, # of connection points: 3
#     Node 9, Type 0, BuildingBlock: OLANEW_clean_sbu_2, # of connection points: 3
#     Node 10, Type 0, BuildingBlock: OLANEW_clean_sbu_2, # of connection points: 3
#     Node 11, Type 0, BuildingBlock: OLANEW_clean_sbu_2, # of connection points: 3
#     Edge 12, Type (0, 0), BuildingBlock: XIVTED_clean_linker_0, # of connection points: 2
#     Edge 13, Type (0, 0), BuildingBlock: XIVTED_clean_linker_0, # of connection points: 2
#     Edge 14, Type (0, 0), BuildingBlock: XIVTED_clean_linker_0, # of connection points: 2
#     Edge 15, Type (0, 0), BuildingBlock: XIVTED_clean_linker_0, # of connection points: 2
#     Edge 16, Type (0, 0), BuildingBlock: XIVTED_clean_linker_0, # of connection points: 2
#     Edge 17, Type (0, 0), BuildingBlock: XIVTED_clean_linker_0, # of connection points: 2
#     Edge 18, Type (0, 0), BuildingBlock: XIVTED_clean_linker_0, # of connection points: 2
#     Edge 19, Type (0, 0), BuildingBlock: XIVTED_clean_linker_0, # of connection points: 2
#     Edge 20, Type (0, 0), BuildingBlock: XIVTED_clean_linker_0, # of connection points: 2
#     Edge 21, Type (0, 0), BuildingBlock: XIVTED_clean_linker_0, # of connection points: 2
#     Edge 22, Type (0, 0), BuildingBlock: XIVTED_clean_linker_0, # of connection points: 2
#     Edge 23, Type (0, 0), BuildingBlock: XIVTED_clean_linker_0, # of connection points: 2
#     Edge 24, Type (0, 0), BuildingBlock: XIVTED_clean_linker_0, # of connection points: 2
#     Edge 25, Type (0, 0), BuildingBlock: XIVTED_clean_linker_0, # of connection points: 2
#     Edge 26, Type (0, 0), BuildingBlock: XIVTED_clean_linker_0, # of connection points: 2
#     Edge 27, Type (0, 0), BuildingBlock: XIVTED_clean_linker_0, # of connection points: 2
#     Edge 28, Type (0, 0), BuildingBlock: XIVTED_clean_linker_0, # of connection points: 2
#     Edge 29, Type (0, 0), BuildingBlock: XIVTED_clean_linker_0, # of connection points: 2
# Relax obj value: 0.001
# Max RMSD: 0.043
# Mean RMSD: 0.043
data_MOF--net-acs-g--node1-OLANEW_clean_sbu_2--edge1-XIVTED_clean_linker_0
_symmetry_space_group_name_H-M    P1
_symmetry_Int_Tables_number       1
_symmetry_cell_setting            triclinic
loop_
_symmetry_equiv_pos_as_xyz
'x, y, z'
_cell_length_a     54.301247
_cell_length_b     54.305884
_cell_length_c     46.956124
_cell_angle_alpha  89.951681
_cell_angle_beta   90.053171
_cell_angle_gamma 120.04068
loop_
_atom_site_label
_atom_site_type_symbol
_atom_site_fract_x
_atom_site_fract_y
_atom_site_fract_z
_atom_type_partial_charge
O0 O 0.38017 0.46153 0.18856 0.0
Cd1 Cd 0.33793 0.4321 0.15944 0.0
O2 O 0.3881 0.42743 0.20247 0.0
Cd3 Cd 0.34408 0.3973 0.19096 0.0
O4 O 0.30169 0.38811 0.20424 0.0
C5 C 0.30242 0.40403 0.22446 0.0
O6 O 0.32732 0.42312 0.23464 0.0
C7 C 0.39583 0.45371 0.20125 0.0
C8 C 0.35193 0.41891 0.10648 0.0
O9 O 0.35435 0.44326 0.11117 0.0
O10 O 0.34291 0.40067 0.12678 0.0
O11 O 0.95853 0.39267 0.68673 0.0
Cd12 Cd 0.94073 0.34765 0.66105 0.0
O13 O 0.95361 0.37492 0.72992 0.0
Cd14 Cd 0.93445 0.33051 0.71675 0.0
O15 O 0.90293 0.28533 0.72084 0.0
C16 C 0.88165 0.2739 0.70416 0.0
O17 O 0.87988 0.28917 0.68339 0.0
C18 C 0.9609 0.39617 0.71359 0.0
C19 C 0.96184 0.35645 0.60541 0.0
O20 O 0.94103 0.36015 0.61197 0.0
O21 O 0.97272 0.34848 0.62507 0.0
O22 O 0.57393 0.95938 0.19216 0.0
Cd23 Cd 0.60956 0.95102 0.1692 0.0
O24 O 0.58815 0.95762 0.23566 0.0
Cd25 Cd 0.61585 0.94093 0.22347 0.0
O26 O 0.62428 0.90584 0.22957 0.0
C27 C 0.60305 0.88332 0.23917 0.0
O28 O 0.5791 0.88325 0.24349 0.0
C29 C 0.57217 0.9618 0.21892 0.0
C30 C 0.61653 0.96658 0.11169 0.0
O31 O 0.59911 0.94097 0.1194 0.0
O32 O 0.63067 0.98481 0.13114 0.0
O33 O 0.60579 0.57797 0.68836 0.0
Cd34 Cd 0.64997 0.61215 0.66449 0.0
O35 O 0.6232 0.59144 0.73156 0.0
Cd36 Cd 0.66745 0.61824 0.71843 0.0
O37 O 0.71189 0.62881 0.72148 0.0
C38 C 0.72 0.61454 0.70677 0.0
O39 O 0.70197 0.59541 0.68886 0.0
C40 C 0.60233 0.57619 0.71523 0.0
C41 C 0.64099 0.61952 0.60717 0.0
O42 O 0.63822 0.63438 0.62675 0.0
O43 O 0.64801 0.60116 0.61467 0.0
O44 O 0.02702 0.59508 0.18928 0.0
Cd45 Cd 0.03593 0.64009 0.16821 0.0
O46 O 0.02832 0.60938 0.23341 0.0
Cd47 Cd 0.04454 0.65408 0.2229 0.0
O48 O 0.07705 0.6987 0.22877 0.0
C49 C 0.09717 0.71098 0.21089 0.0
O50 O 0.09697 0.6971 0.1879 0.0
C51 C 0.02433 0.58988 0.21587 0.0
C52 C 0.02212 0.6342 0.11026 0.0
O53 O 0.0475 0.64207 0.11856 0.0
O54 O 0.0033 0.62917 0.12934 0.0
O55 O 0.43195 0.03382 0.68984 0.0
Cd56 Cd 0.40594 0.05245 0.66332 0.0
O57 O 0.41986 0.04001 0.73289 0.0
Cd58 Cd 0.39587 0.06049 0.71963 0.0
O59 O 0.38442 0.09344 0.72555 0.0
C60 C 0.39315 0.11425 0.70839 0.0
O61 O 0.40773 0.11483 0.68582 0.0
C62 C 0.4331 0.03176 0.71674 0.0
C63 C 0.39443 0.0311 0.60773 0.0
O64 O 0.41896 0.05174 0.61462 0.0
O65 O 0.37516 0.02057 0.627 0.0
O66 O 0.56532 0.61826 0.3218 0.0
Cd67 Cd 0.60441 0.66026 0.34463 0.0
O68 O 0.59152 0.61771 0.28634 0.0
Cd69 Cd 0.62366 0.66181 0.29518 0.0
O70 O 0.63077 0.70492 0.28983 0.0
C71 C 0.60803 0.70619 0.29035 0.0
O72 O 0.58381 0.68268 0.29509 0.0
C73 C 0.56804 0.60615 0.29979 0.0
C74 C 0.61108 0.65067 0.40194 0.0
O75 O 0.5955 0.66119 0.39463 0.0
O76 O 0.62344 0.64462 0.38217 0.0
O77 O 0.96506 0.56995 0.8221 0.0
Cd78 Cd 0.95537 0.60476 0.84489 0.0
O79 O 0.96091 0.5824 0.77848 0.0
Cd80 Cd 0.94351 0.60966 0.78998 0.0
O81 O 0.91056 0.62059 0.78093 0.0
C82 C 0.89689 0.60995 0.75797 0.0
O83 O 0.90393 0.59446 0.74219 0.0
C84 C 0.96661 0.56756 0.7953 0.0
C85 C 0.96929 0.61095 0.90284 0.0
O86 O 0.944 0.59336 0.89436 0.0
O87 O 0.98797 0.62565 0.88395 0.0
O88 O 0.3949 0.94889 0.32799 0.0
Cd89 Cd 0.35005 0.93083 0.354 0.0
O90 O 0.37662 0.9418 0.28483 0.0
Cd91 Cd 0.33193 0.92205 0.29731 0.0
O92 O 0.28727 0.89111 0.28854 0.0
C93 C 0.28141 0.88377 0.2626 0.0
O94 O 0.30182 0.89569 0.24359 0.0
C95 C 0.39811 0.95032 0.30109 0.0
C96 C 0.35923 0.95245 0.40946 0.0
O97 O 0.36309 0.93172 0.403 0.0
O98 O 0.35091 0.963 0.3898 0.0
O99 O 0.43932 0.40525 0.83318 0.0
Cd100 Cd 0.41304 0.36137 0.86085 0.0
O101 O 0.42853 0.38558 0.79058 0.0
Cd102 Cd 0.40423 0.34115 0.80399 0.0
O103 O 0.39261 0.29723 0.7942 0.0
C104 C 0.39703 0.29299 0.76855 0.0
O105 O 0.40708 0.31444 0.7506 0.0
C106 C 0.44114 0.4076 0.8062 0.0
C107 C 0.39876 0.37227 0.91478 0.0
O108 O 0.4238 0.37672 0.9095 0.0
O109 O 0.38032 0.36253 0.89468 0.0
O110 O 0.03847 0.42588 0.32401 0.0
Cd111 Cd 0.05785 0.4003 0.35005 0.0
O112 O 0.0462 0.4158 0.28064 0.0
Cd113 Cd 0.06752 0.39235 0.293 0.0
O114 O 0.10173 0.38278 0.28635 0.0
C115 C 0.12658 0.40117 0.29448 0.0
O116 O 0.13011 0.42387 0.30805 0.0
C117 C 0.03696 0.42791 0.29715 0.0
C118 C 0.03766 0.38943 0.40608 0.0
O119 O 0.05813 0.41389 0.39873 0.0
O120 O 0.02677 0.36992 0.38706 0.0
O121 O 0.60176 0.02595 0.82508 0.0
Cd122 Cd 0.64677 0.03595 0.84703 0.0
O123 O 0.61709 0.02774 0.7813 0.0
Cd124 Cd 0.66198 0.0456 0.79211 0.0
O125 O 0.7053 0.07941 0.78235 0.0
C126 C 0.70825 0.0906 0.75788 0.0
O127 O 0.68602 0.08058 0.74093 0.0
C128 C 0.59707 0.02312 0.7984 0.0
C129 C 0.63997 0.02037 0.90454 0.0
O130 O 0.64708 0.04577 0.89698 0.0
O131 O 0.63608 0.00236 0.88494 0.0
H132 H 0.29812 0.43616 0.26662 0.0
H133 H 0.12827 0.36112 0.26003 0.0
H134 H 0.24676 0.36697 0.20935 0.0
H135 H 0.18198 0.43566 0.31025 0.0
H136 H 0.17065 0.36001 0.24408 0.0
H137 H 0.25511 0.43349 0.28541 0.0
C138 C 0.27777 0.42032 0.258 0.0
C139 C 0.2761 0.40183 0.23626 0.0
C140 C 0.17311 0.37651 0.2587 0.0
C141 C 0.22652 0.39865 0.25782 0.0
C142 C 0.14892 0.3771 0.2679 0.0
C143 C 0.15157 0.39861 0.28642 0.0
C144 C 0.20011 0.39751 0.26816 0.0
C145 C 0.17888 0.41876 0.29588 0.0
C146 C 0.25316 0.41882 0.26878 0.0
C147 C 0.24906 0.38171 0.22604 0.0
N148 N 0.20204 0.41776 0.28658 0.0
N149 N 0.22531 0.38069 0.23687 0.0
H150 H 0.75856 0.11824 0.78772 0.0
H151 H 0.83354 0.24275 0.67233 0.0
H152 H 0.72009 0.11998 0.7078 0.0
H153 H 0.87527 0.23881 0.74909 0.0
H154 H 0.79266 0.19654 0.68413 0.0
H155 H 0.80232 0.1612 0.77327 0.0
C156 C 0.75935 0.12753 0.76709 0.0
C157 C 0.73554 0.11555 0.74903 0.0
C158 C 0.81083 0.20566 0.69832 0.0
C159 C 0.78549 0.16475 0.7324 0.0
C160 C 0.83422 0.23208 0.69157 0.0
C161 C 0.85784 0.24479 0.70982 0.0
C162 C 0.81091 0.19184 0.7236 0.0
C163 C 0.8575 0.22987 0.73442 0.0
C164 C 0.78434 0.15206 0.75884 0.0
C165 C 0.73783 0.1285 0.7225 0.0
N166 N 0.83432 0.2043 0.7407 0.0
N167 N 0.76226 0.15243 0.71508 0.0
H168 H 0.56309 0.71534 0.29226 0.0
H169 H 0.64987 0.87627 0.23637 0.0
H170 H 0.65306 0.75804 0.27402 0.0
H171 H 0.56073 0.83217 0.25845 0.0
H172 H 0.65209 0.83367 0.24957 0.0
H173 H 0.56252 0.75853 0.27989 0.0
C174 C 0.58281 0.73386 0.28574 0.0
C175 C 0.60816 0.733 0.28414 0.0
C176 C 0.63208 0.83339 0.2515 0.0
C177 C 0.60763 0.78279 0.26974 0.0
C178 C 0.63078 0.85766 0.24391 0.0
C179 C 0.60507 0.85781 0.2463 0.0
C180 C 0.60748 0.80914 0.26147 0.0
C181 C 0.58103 0.83311 0.25625 0.0
C182 C 0.58245 0.75858 0.27863 0.0
C183 C 0.63303 0.75776 0.27557 0.0
N184 N 0.58284 0.80986 0.26344 0.0
N185 N 0.63213 0.78165 0.2686 0.0
H186 H 0.74437 0.58852 0.67783 0.0
H187 H 0.87575 0.64034 0.78523 0.0
H188 H 0.75966 0.64625 0.74753 0.0
H189 H 0.86278 0.58804 0.71125 0.0
H190 H 0.83432 0.64423 0.77125 0.0
H191 H 0.78882 0.58972 0.68899 0.0
C192 C 0.75718 0.60163 0.69537 0.0
C193 C 0.74816 0.6172 0.71184 0.0
C194 C 0.84066 0.63203 0.75802 0.0
C195 C 0.79914 0.61851 0.72494 0.0
C196 C 0.86429 0.62979 0.76601 0.0
C197 C 0.8727 0.61374 0.74947 0.0
C198 C 0.82528 0.61804 0.73339 0.0
C199 C 0.85708 0.60057 0.72474 0.0
C200 C 0.7826 0.6023 0.70176 0.0
C201 C 0.76574 0.63387 0.73428 0.0
N202 N 0.83411 0.60291 0.71755 0.0
N203 N 0.79029 0.63392 0.7403 0.0
H204 H 0.2635 0.86174 0.20935 0.0
H205 H 0.10816 0.7423 0.25991 0.0
H206 H 0.23393 0.85361 0.29603 0.0
H207 H 0.14317 0.74382 0.17698 0.0
H208 H 0.15164 0.78652 0.27189 0.0
H209 H 0.21724 0.82207 0.19572 0.0
C210 C 0.24723 0.85173 0.22553 0.0
C211 C 0.25272 0.86092 0.25395 0.0
C212 C 0.14972 0.77727 0.25101 0.0
C213 C 0.19955 0.81532 0.23841 0.0
C214 C 0.12485 0.75206 0.2441 0.0
C215 C 0.12207 0.73918 0.21744 0.0
C216 C 0.17195 0.78978 0.23111 0.0
C217 C 0.14442 0.75285 0.19784 0.0
C218 C 0.22079 0.82901 0.2177 0.0
C219 C 0.23071 0.84715 0.27391 0.0
N220 N 0.16843 0.77731 0.20511 0.0
N221 N 0.20512 0.82495 0.26578 0.0
H222 H 0.37699 0.24373 0.79973 0.0
H223 H 0.40812 0.16168 0.67606 0.0
H224 H 0.4072 0.27856 0.71594 0.0
H225 H 0.37043 0.1232 0.75678 0.0
H226 H 0.40602 0.20395 0.68975 0.0
H227 H 0.37266 0.19873 0.78402 0.0
C228 C 0.38256 0.24189 0.778 0.0
C229 C 0.39263 0.26503 0.75919 0.0
C230 C 0.39801 0.18619 0.70441 0.0
C231 C 0.38782 0.21365 0.7411 0.0
C232 C 0.39919 0.16201 0.69658 0.0
C233 C 0.3896 0.13889 0.71535 0.0
C234 C 0.38733 0.1874 0.7313 0.0
C235 C 0.37816 0.14054 0.74164 0.0
C236 C 0.38007 0.21618 0.76904 0.0
C237 C 0.39946 0.26137 0.73125 0.0
N238 N 0.37755 0.16446 0.74892 0.0
N239 N 0.39709 0.23627 0.72313 0.0
H240 H 0.40641 0.50479 0.22186 0.0
H241 H 0.56726 0.5669 0.26232 0.0
H242 H 0.44386 0.45123 0.21503 0.0
H243 H 0.51202 0.58735 0.31018 0.0
H244 H 0.52516 0.52768 0.23935 0.0
H245 H 0.44828 0.53969 0.24806 0.0
C246 C 0.42355 0.50046 0.22571 0.0
C247 C 0.42171 0.4751 0.21622 0.0
C248 C 0.52239 0.54062 0.25515 0.0
C249 C 0.46973 0.51508 0.24604 0.0
C250 C 0.54631 0.56297 0.2682 0.0
C251 C 0.54312 0.58044 0.28815 0.0
C252 C 0.49528 0.53631 0.26157 0.0
C253 C 0.51549 0.5744 0.29501 0.0
C254 C 0.44731 0.52028 0.24085 0.0
C255 C 0.44447 0.47051 0.22205 0.0
N256 N 0.49268 0.55313 0.28141 0.0
N257 N 0.46778 0.4905 0.23638 0.0
H258 H 0.96813 0.4114 0.76997 0.0
H259 H 0.97489 0.55919 0.73945 0.0
H260 H 0.97269 0.4453 0.68569 0.0
H261 H 0.97252 0.52667 0.82395 0.0
H262 H 0.97981 0.52037 0.71968 0.0
H263 H 0.97556 0.45599 0.79027 0.0
C264 C 0.97104 0.42833 0.75569 0.0
C265 C 0.96943 0.42441 0.72604 0.0
C266 C 0.97849 0.52185 0.74257 0.0
C267 C 0.97771 0.47552 0.74923 0.0
C268 C 0.97567 0.54405 0.7539 0.0
C269 C 0.97295 0.54605 0.78343 0.0
C270 C 0.9784 0.5013 0.76082 0.0
C271 C 0.97436 0.52589 0.80106 0.0
C272 C 0.97525 0.4538 0.76733 0.0
C273 C 0.97355 0.44723 0.70866 0.0
N274 N 0.97667 0.50419 0.78947 0.0
N275 N 0.97718 0.47166 0.72052 0.0
H276 H 0.56374 0.97014 0.27479 0.0
H277 H 0.41295 0.95697 0.24464 0.0
H278 H 0.52994 0.9655 0.19044 0.0
H279 H 0.44784 0.9639 0.32886 0.0
H280 H 0.45793 0.96566 0.22425 0.0
H281 H 0.52397 0.9734 0.29467 0.0
C282 C 0.54812 0.97009 0.26039 0.0
C283 C 0.55006 0.96722 0.23088 0.0
C284 C 0.45587 0.96558 0.24719 0.0
C285 C 0.50425 0.97075 0.25361 0.0
C286 C 0.43016 0.96064 0.25889 0.0
C287 C 0.42644 0.95937 0.28856 0.0
C288 C 0.47804 0.96911 0.26526 0.0
C289 C 0.44963 0.96449 0.30588 0.0
C290 C 0.52538 0.97195 0.27179 0.0
C291 C 0.52925 0.96749 0.21332 0.0
N292 N 0.47431 0.96882 0.29398 0.0
N293 N 0.50707 0.9689 0.22498 0.0
H294 H 0.47653 0.45843 0.8326 0.0
H295 H 0.55481 0.53512 0.68766 0.0
H296 H 0.44957 0.42058 0.74932 0.0
H297 H 0.58692 0.56842 0.77148 0.0
H298 H 0.51179 0.49672 0.70947 0.0
H299 H 0.51248 0.50245 0.81009 0.0
C300 C 0.47788 0.45946 0.80958 0.0
C301 C 0.4602 0.43559 0.79287 0.0
C302 C 0.52814 0.5126 0.72306 0.0
C303 C 0.5015 0.48593 0.76696 0.0
C304 C 0.5527 0.53459 0.71062 0.0
C305 C 0.57471 0.55487 0.72776 0.0
C306 C 0.52553 0.51087 0.75287 0.0
C307 C 0.57068 0.55311 0.75741 0.0
C308 C 0.4985 0.4846 0.79673 0.0
C309 C 0.46291 0.4383 0.7631 0.0
N310 N 0.54671 0.53137 0.76901 0.0
N311 N 0.48334 0.4629 0.75113 0.0
H312 H 0.02078 0.54497 0.18555 0.0
H313 H 0.01967 0.4607 0.32573 0.0
H314 H 0.01549 0.57108 0.27108 0.0
H315 H 0.03226 0.43846 0.24085 0.0
H316 H 0.01027 0.49659 0.30541 0.0
H317 H 0.01736 0.50151 0.2048 0.0
C318 C 0.01856 0.54144 0.20834 0.0
C319 C 0.01879 0.56192 0.22674 0.0
C320 C 0.0148 0.48365 0.29121 0.0
C321 C 0.01498 0.51224 0.24892 0.0
C322 C 0.0201 0.46307 0.3028 0.0
C323 C 0.02715 0.44674 0.28502 0.0
C324 C 0.01661 0.48803 0.26161 0.0
C325 C 0.0272 0.45072 0.25544 0.0
C326 C 0.01666 0.51663 0.21932 0.0
C327 C 0.01572 0.55607 0.25608 0.0
N328 N 0.02233 0.47114 0.24469 0.0
N329 N 0.0142 0.53192 0.26626 0.0
H330 H 0.44133 0.02537 0.7733 0.0
H331 H 0.57896 0.01251 0.74301 0.0
H332 H 0.46875 0.01747 0.68921 0.0
H333 H 0.55141 0.01951 0.82734 0.0
H334 H 0.53527 0.00801 0.72348 0.0
H335 H 0.47774 0.01689 0.79384 0.0
C336 C 0.45475 0.02149 0.75912 0.0
C337 C 0.45217 0.02251 0.72943 0.0
C338 C 0.53861 0.01023 0.74629 0.0
C339 C 0.49413 0.013 0.75289 0.0
C340 C 0.5636 0.01281 0.7575 0.0
C341 C 0.56908 0.01675 0.78687 0.0
C342 C 0.51896 0.0118 0.76452 0.0
C343 C 0.54821 0.01671 0.80455 0.0
C344 C 0.47559 0.01668 0.7709 0.0
C345 C 0.47007 0.01713 0.7122 0.0
N346 N 0.52423 0.01462 0.79307 0.0
N347 N 0.49048 0.01293 0.72417 0.0
H348 H 0.3906 0.45564 0.06806 0.0
H349 H 0.34668 0.34694 0.94074 0.0
H350 H 0.32984 0.36676 0.08108 0.0
H351 H 0.43431 0.41178 0.95329 0.0
H352 H 0.33529 0.35777 0.98811 0.0
H353 H 0.40237 0.44392 0.02138 0.0
C354 C 0.37969 0.43369 0.06104 0.0
C355 C 0.35928 0.4121 0.07841 0.0
C356 C 0.35698 0.36953 0.98041 0.0
C357 C 0.37221 0.39876 0.02506 0.0
C358 C 0.36347 0.36349 0.95343 0.0
C359 C 0.39148 0.37846 0.94319 0.0
C360 C 0.37851 0.39123 0.99681 0.0
C361 C 0.41248 0.39964 0.9605 0.0
C362 C 0.3865 0.42705 0.03454 0.0
C363 C 0.34583 0.38399 0.06837 0.0
N364 N 0.40551 0.40565 0.98636 0.0
N365 N 0.35229 0.37813 0.04216 0.0
H366 H 0.01205 0.3389 0.43502 0.0
H367 H 0.96105 0.39293 0.56591 0.0
H368 H 0.0382 0.42773 0.44402 0.0
H369 H 0.98798 0.3312 0.57814 0.0
H370 H 0.98009 0.40117 0.51726 0.0
H371 H 0.99392 0.33069 0.48413 0.0
C372 C 0.01389 0.35661 0.44731 0.0
C373 C 0.02669 0.38404 0.43556 0.0
C374 C 0.98179 0.38585 0.53067 0.0
C375 C 0.00557 0.37468 0.49116 0.0
C376 C 0.97085 0.38104 0.5583 0.0
C377 C 0.97304 0.36142 0.57603 0.0
C378 C 0.99424 0.37034 0.52048 0.0
C379 C 0.98604 0.34664 0.56517 0.0
C380 C 0.00368 0.35194 0.47526 0.0
C381 C 0.02863 0.4063 0.45238 0.0
N382 N 0.99591 0.35117 0.53793 0.0
N383 N 0.01788 0.40108 0.47926 0.0
H384 H 0.61871 0.967 0.92712 0.0
H385 H 0.64651 0.02015 0.08898 0.0
H386 H 0.65304 0.05485 0.95134 0.0
H387 H 0.59499 0.93193 0.06501 0.0
H388 H 0.65226 0.03335 0.0386 0.0
H389 H 0.61297 0.95381 0.97749 0.0
C390 C 0.62507 0.98353 0.94302 0.0
C391 C 0.63636 0.01209 0.93497 0.0
C392 C 0.63966 0.01111 0.04437 0.0
C393 C 0.62995 0.99712 0.99272 0.0
C394 C 0.63643 0.00354 0.07313 0.0
C395 C 0.62022 0.97488 0.08125 0.0
C396 C 0.62682 0.98985 0.0235 0.0
C397 C 0.60761 0.95429 0.05975 0.0
C398 C 0.62172 0.97597 0.97178 0.0
C399 C 0.64419 0.03257 0.95655 0.0
N400 N 0.61125 0.96217 0.03188 0.0
N401 N 0.64092 0.02471 0.98441 0.0
H402 H 0.65072 0.59562 0.56025 0.0
H403 H 0.59261 0.66652 0.44905 0.0
H404 H 0.62055 0.65248 0.58491 0.0
H405 H 0.63809 0.62373 0.42406 0.0
H406 H 0.59948 0.65866 0.49901 0.0
H407 H 0.64309 0.60278 0.5103 0.0
C408 C 0.64246 0.60958 0.55518 0.0
C409 C 0.63631 0.6235 0.57682 0.0
C410 C 0.60797 0.65101 0.4826 0.0
C411 C 0.62743 0.63172 0.51964 0.0
C412 C 0.604 0.65543 0.45405 0.0
C413 C 0.61483 0.64581 0.4323 0.0
C414 C 0.6227 0.63667 0.48951 0.0
C415 C 0.62944 0.63158 0.4401 0.0
C416 C 0.63816 0.6137 0.52663 0.0
C417 C 0.62566 0.64137 0.56894 0.0
N418 N 0.63289 0.6274 0.46804 0.0
N419 N 0.62151 0.64491 0.54102 0.0
H420 H 0.05814 0.64922 0.06452 0.0
H421 H 0.9334 0.5878 0.94842 0.0
H422 H 0.96926 0.61179 0.08608 0.0
H423 H 0.02209 0.64144 0.92716 0.0
H424 H 0.94618 0.59342 0.99891 0.0
H425 H 0.04539 0.64363 0.01401 0.0
C426 C 0.03594 0.63981 0.05865 0.0
C427 C 0.01474 0.63098 0.07959 0.0
C428 C 0.96284 0.604 0.9832 0.0
C429 C 0.99999 0.62441 0.02178 0.0
C430 C 0.95557 0.60074 0.95435 0.0
C431 C 0.9767 0.61419 0.9335 0.0
C432 C 0.99149 0.62062 0.9913 0.0
C433 C 0.00508 0.63074 0.94249 0.0
C434 C 0.02868 0.63668 0.0298 0.0
C435 C 0.98632 0.61896 0.07069 0.0
N436 N 0.01164 0.63341 0.97069 0.0
N437 N 0.97978 0.61595 0.04248 0.0
H438 H 0.39623 0.95228 0.44871 0.0
H439 H 0.34352 0.00489 0.57946 0.0
H440 H 0.33407 0.97868 0.43671 0.0
H441 H 0.43227 0.03103 0.56958 0.0
H442 H 0.33471 0.98597 0.53064 0.0
H443 H 0.40497 0.97191 0.49714 0.0
C444 C 0.38434 0.96209 0.45633 0.0
C445 C 0.36446 0.96396 0.43873 0.0
C446 C 0.35607 0.9959 0.53926 0.0
C447 C 0.37395 0.98584 0.49402 0.0
C448 C 0.36109 0.00655 0.56704 0.0
C449 C 0.38867 0.01959 0.57845 0.0
C450 C 0.37864 0.99758 0.52319 0.0
C451 C 0.41073 0.02129 0.56148 0.0
C452 C 0.38944 0.97336 0.48383 0.0
C453 C 0.3497 0.97698 0.44959 0.0
N454 N 0.40519 0.01011 0.53477 0.0
N455 N 0.35452 0.98719 0.4767 0.0
loop_
_geom_bond_atom_site_label_1
_geom_bond_atom_site_label_2
_geom_bond_distance
_geom_bond_site_symmetry_2
_ccdc_geom_bond_type
O0 Cd1 2.300 . S
O0 C7 1.275 . S
Cd1 O0 2.300 . S
Cd1 O9 2.381 . S
Cd1 O10 2.378 . S
O2 Cd3 2.385 . S
O2 C7 1.255 . S
Cd3 O2 2.385 . S
Cd3 O4 2.317 . S
O4 Cd3 2.317 . S
O4 C5 1.232 . S
C5 O4 1.232 . S
C5 O6 1.218 . S
O6 C5 1.218 . S
C7 O0 1.275 . S
C7 O2 1.255 . S
C8 O9 1.258 . S
C8 O10 1.256 . S
O9 Cd1 2.381 . S
O9 C8 1.258 . S
O10 Cd1 2.378 . S
O10 C8 1.256 . S
O11 Cd12 2.300 . S
O11 C18 1.275 . S
Cd12 O11 2.300 . S
Cd12 O20 2.381 . S
Cd12 O21 2.378 . S
O13 Cd14 2.385 . S
O13 C18 1.255 . S
Cd14 O13 2.385 . S
Cd14 O15 2.317 . S
O15 Cd14 2.317 . S
O15 C16 1.232 . S
C16 O15 1.232 . S
C16 O17 1.218 . S
O17 C16 1.218 . S
C18 O11 1.275 . S
C18 O13 1.255 . S
C19 O20 1.258 . S
C19 O21 1.256 . S
O20 Cd12 2.381 . S
O20 C19 1.258 . S
O21 Cd12 2.378 . S
O21 C19 1.256 . S
O22 Cd23 2.300 . S
O22 C29 1.275 . S
Cd23 O22 2.300 . S
Cd23 O31 2.381 . S
Cd23 O32 2.378 . S
O24 Cd25 2.385 . S
O24 C29 1.255 . S
Cd25 O24 2.385 . S
Cd25 O26 2.317 . S
O26 Cd25 2.317 . S
O26 C27 1.232 . S
C27 O26 1.232 . S
C27 O28 1.218 . S
O28 C27 1.218 . S
C29 O22 1.275 . S
C29 O24 1.255 . S
C30 O31 1.258 . S
C30 O32 1.256 . S
O31 Cd23 2.381 . S
O31 C30 1.258 . S
O32 Cd23 2.378 . S
O32 C30 1.256 . S
O33 Cd34 2.300 . S
O33 C40 1.275 . S
Cd34 O33 2.300 . S
Cd34 O42 2.381 . S
Cd34 O43 2.378 . S
O35 Cd36 2.385 . S
O35 C40 1.255 . S
Cd36 O35 2.385 . S
Cd36 O37 2.317 . S
O37 Cd36 2.317 . S
O37 C38 1.232 . S
C38 O37 1.232 . S
C38 O39 1.218 . S
O39 C38 1.218 . S
C40 O33 1.275 . S
C40 O35 1.255 . S
C41 O42 1.258 . S
C41 O43 1.256 . S
O42 Cd34 2.381 . S
O42 C41 1.258 . S
O43 Cd34 2.378 . S
O43 C41 1.256 . S
O44 Cd45 2.300 . S
O44 C51 1.275 . S
Cd45 O44 2.300 . S
Cd45 O53 2.381 . S
Cd45 O54 2.378 . S
O46 Cd47 2.385 . S
O46 C51 1.255 . S
Cd47 O46 2.385 . S
Cd47 O48 2.317 . S
O48 Cd47 2.317 . S
O48 C49 1.232 . S
C49 O48 1.232 . S
C49 O50 1.218 . S
O50 C49 1.218 . S
C51 O44 1.275 . S
C51 O46 1.255 . S
C52 O53 1.258 . S
C52 O54 1.256 . S
O53 Cd45 2.381 . S
O53 C52 1.258 . S
O54 Cd45 2.378 . S
O54 C52 1.256 . S
O55 Cd56 2.300 . S
O55 C62 1.275 . S
Cd56 O55 2.300 . S
Cd56 O64 2.381 . S
Cd56 O65 2.378 . S
O57 Cd58 2.385 . S
O57 C62 1.255 . S
Cd58 O57 2.385 . S
Cd58 O59 2.317 . S
O59 Cd58 2.317 . S
O59 C60 1.232 . S
C60 O59 1.232 . S
C60 O61 1.218 . S
O61 C60 1.218 . S
C62 O55 1.275 . S
C62 O57 1.255 . S
C63 O64 1.258 . S
C63 O65 1.256 . S
O64 Cd56 2.381 . S
O64 C63 1.258 . S
O65 Cd56 2.378 . S
O65 C63 1.256 . S
O66 Cd67 2.300 . S
O66 C73 1.275 . S
Cd67 O66 2.300 . S
Cd67 O75 2.381 . S
Cd67 O76 2.378 . S
O68 Cd69 2.385 . S
O68 C73 1.255 . S
Cd69 O68 2.385 . S
Cd69 O70 2.317 . S
O70 Cd69 2.317 . S
O70 C71 1.232 . S
C71 O70 1.232 . S
C71 O72 1.218 . S
O72 C71 1.218 . S
C73 O66 1.275 . S
C73 O68 1.255 . S
C74 O75 1.258 . S
C74 O76 1.256 . S
O75 Cd67 2.381 . S
O75 C74 1.258 . S
O76 Cd67 2.378 . S
O76 C74 1.256 . S
O77 Cd78 2.300 . S
O77 C84 1.275 . S
Cd78 O77 2.300 . S
Cd78 O86 2.381 . S
Cd78 O87 2.378 . S
O79 Cd80 2.385 . S
O79 C84 1.255 . S
Cd80 O79 2.385 . S
Cd80 O81 2.317 . S
O81 Cd80 2.317 . S
O81 C82 1.232 . S
C82 O81 1.232 . S
C82 O83 1.218 . S
O83 C82 1.218 . S
C84 O77 1.275 . S
C84 O79 1.255 . S
C85 O86 1.258 . S
C85 O87 1.256 . S
O86 Cd78 2.381 . S
O86 C85 1.258 . S
O87 Cd78 2.378 . S
O87 C85 1.256 . S
O88 Cd89 2.300 . S
O88 C95 1.275 . S
Cd89 O88 2.300 . S
Cd89 O97 2.381 . S
Cd89 O98 2.378 . S
O90 Cd91 2.385 . S
O90 C95 1.255 . S
Cd91 O90 2.385 . S
Cd91 O92 2.317 . S
O92 Cd91 2.317 . S
O92 C93 1.232 . S
C93 O92 1.232 . S
C93 O94 1.218 . S
O94 C93 1.218 . S
C95 O88 1.275 . S
C95 O90 1.255 . S
C96 O97 1.258 . S
C96 O98 1.256 . S
O97 Cd89 2.381 . S
O97 C96 1.258 . S
O98 Cd89 2.378 . S
O98 C96 1.256 . S
O99 Cd100 2.300 . S
O99 C106 1.275 . S
Cd100 O99 2.300 . S
Cd100 O108 2.381 . S
Cd100 O109 2.378 . S
O101 Cd102 2.385 . S
O101 C106 1.255 . S
Cd102 O101 2.385 . S
Cd102 O103 2.317 . S
O103 Cd102 2.317 . S
O103 C104 1.232 . S
C104 O103 1.232 . S
C104 O105 1.218 . S
O105 C104 1.218 . S
C106 O99 1.275 . S
C106 O101 1.255 . S
C107 O108 1.258 . S
C107 O109 1.256 . S
O108 Cd100 2.381 . S
O108 C107 1.258 . S
O109 Cd100 2.378 . S
O109 C107 1.256 . S
O110 Cd111 2.300 . S
O110 C117 1.275 . S
Cd111 O110 2.300 . S
Cd111 O119 2.381 . S
Cd111 O120 2.378 . S
O112 Cd113 2.385 . S
O112 C117 1.255 . S
Cd113 O112 2.385 . S
Cd113 O114 2.317 . S
O114 Cd113 2.317 . S
O114 C115 1.232 . S
C115 O114 1.232 . S
C115 O116 1.218 . S
O116 C115 1.218 . S
C117 O110 1.275 . S
C117 O112 1.255 . S
C118 O119 1.258 . S
C118 O120 1.256 . S
O119 Cd111 2.381 . S
O119 C118 1.258 . S
O120 Cd111 2.378 . S
O120 C118 1.256 . S
O121 Cd122 2.300 . S
O121 C128 1.275 . S
Cd122 O121 2.300 . S
Cd122 O130 2.381 . S
Cd122 O131 2.378 . S
O123 Cd124 2.385 . S
O123 C128 1.255 . S
Cd124 O123 2.385 . S
Cd124 O125 2.317 . S
O125 Cd124 2.317 . S
O125 C126 1.232 . S
C126 O125 1.232 . S
C126 O127 1.218 . S
O127 C126 1.218 . S
C128 O121 1.275 . S
C128 O123 1.255 . S
C129 O130 1.258 . S
C129 O131 1.256 . S
O130 Cd122 2.381 . S
O130 C129 1.258 . S
O131 Cd122 2.378 . S
O131 C129 1.256 . S
H132 C138 0.930 . S
H133 C142 0.930 . S
H134 C147 0.929 . S
H135 C145 0.929 . S
H136 C140 0.929 . S
H137 C146 0.929 . S
C138 H132 0.930 . S
C138 C139 1.367 . S
C138 C146 1.378 . S
C139 C138 1.367 . S
C139 C147 1.433 . S
C140 H136 0.929 . S
C140 C142 1.378 . S
C140 C144 1.350 . S
C141 C144 1.463 . S
C141 C146 1.350 . S
C141 N149 1.427 . S
C142 H133 0.930 . S
C142 C140 1.378 . S
C142 C143 1.367 . S
C143 C142 1.367 . S
C143 C145 1.433 . S
C144 C140 1.350 . S
C144 C141 1.463 . S
C144 N148 1.427 . S
C145 H135 0.929 . S
C145 C143 1.433 . S
C145 N148 1.384 . S
C146 H137 0.929 . S
C146 C138 1.378 . S
C146 C141 1.350 . S
C147 H134 0.929 . S
C147 C139 1.433 . S
C147 N149 1.384 . S
N148 C144 1.427 . S
N148 C145 1.384 . S
N149 C141 1.427 . S
N149 C147 1.384 . S
H150 C156 0.930 . S
H151 C160 0.930 . S
H152 C165 0.929 . S
H153 C163 0.929 . S
H154 C158 0.929 . S
H155 C164 0.929 . S
C156 H150 0.930 . S
C156 C157 1.367 . S
C156 C164 1.378 . S
C157 C156 1.367 . S
C157 C165 1.433 . S
C158 H154 0.929 . S
C158 C160 1.378 . S
C158 C162 1.350 . S
C159 C162 1.463 . S
C159 C164 1.350 . S
C159 N167 1.427 . S
C160 H151 0.930 . S
C160 C158 1.378 . S
C160 C161 1.367 . S
C161 C160 1.367 . S
C161 C163 1.433 . S
C162 C158 1.350 . S
C162 C159 1.463 . S
C162 N166 1.427 . S
C163 H153 0.929 . S
C163 C161 1.433 . S
C163 N166 1.384 . S
C164 H155 0.929 . S
C164 C156 1.378 . S
C164 C159 1.350 . S
C165 H152 0.929 . S
C165 C157 1.433 . S
C165 N167 1.384 . S
N166 C162 1.427 . S
N166 C163 1.384 . S
N167 C159 1.427 . S
N167 C165 1.384 . S
H168 C174 0.930 . S
H169 C178 0.930 . S
H170 C183 0.929 . S
H171 C181 0.929 . S
H172 C176 0.929 . S
H173 C182 0.929 . S
C174 H168 0.930 . S
C174 C175 1.367 . S
C174 C182 1.378 . S
C175 C174 1.367 . S
C175 C183 1.433 . S
C176 H172 0.929 . S
C176 C178 1.378 . S
C176 C180 1.350 . S
C177 C180 1.463 . S
C177 C182 1.350 . S
C177 N185 1.427 . S
C178 H169 0.930 . S
C178 C176 1.378 . S
C178 C179 1.367 . S
C179 C178 1.367 . S
C179 C181 1.433 . S
C180 C176 1.350 . S
C180 C177 1.463 . S
C180 N184 1.427 . S
C181 H171 0.929 . S
C181 C179 1.433 . S
C181 N184 1.384 . S
C182 H173 0.929 . S
C182 C174 1.378 . S
C182 C177 1.350 . S
C183 H170 0.929 . S
C183 C175 1.433 . S
C183 N185 1.384 . S
N184 C180 1.427 . S
N184 C181 1.384 . S
N185 C177 1.427 . S
N185 C183 1.384 . S
H186 C192 0.930 . S
H187 C196 0.930 . S
H188 C201 0.929 . S
H189 C199 0.929 . S
H190 C194 0.929 . S
H191 C200 0.929 . S
C192 H186 0.930 . S
C192 C193 1.367 . S
C192 C200 1.378 . S
C193 C192 1.367 . S
C193 C201 1.433 . S
C194 H190 0.929 . S
C194 C196 1.378 . S
C194 C198 1.350 . S
C195 C198 1.463 . S
C195 C200 1.350 . S
C195 N203 1.427 . S
C196 H187 0.930 . S
C196 C194 1.378 . S
C196 C197 1.367 . S
C197 C196 1.367 . S
C197 C199 1.433 . S
C198 C194 1.350 . S
C198 C195 1.463 . S
C198 N202 1.427 . S
C199 H189 0.929 . S
C199 C197 1.433 . S
C199 N202 1.384 . S
C200 H191 0.929 . S
C200 C192 1.378 . S
C200 C195 1.350 . S
C201 H188 0.929 . S
C201 C193 1.433 . S
C201 N203 1.384 . S
N202 C198 1.427 . S
N202 C199 1.384 . S
N203 C195 1.427 . S
N203 C201 1.384 . S
H204 C210 0.930 . S
H205 C214 0.930 . S
H206 C219 0.929 . S
H207 C217 0.929 . S
H208 C212 0.929 . S
H209 C218 0.929 . S
C210 H204 0.930 . S
C210 C211 1.367 . S
C210 C218 1.378 . S
C211 C210 1.367 . S
C211 C219 1.433 . S
C212 H208 0.929 . S
C212 C214 1.378 . S
C212 C216 1.350 . S
C213 C216 1.463 . S
C213 C218 1.350 . S
C213 N221 1.427 . S
C214 H205 0.930 . S
C214 C212 1.378 . S
C214 C215 1.367 . S
C215 C214 1.367 . S
C215 C217 1.433 . S
C216 C212 1.350 . S
C216 C213 1.463 . S
C216 N220 1.427 . S
C217 H207 0.929 . S
C217 C215 1.433 . S
C217 N220 1.384 . S
C218 H209 0.929 . S
C218 C210 1.378 . S
C218 C213 1.350 . S
C219 H206 0.929 . S
C219 C211 1.433 . S
C219 N221 1.384 . S
N220 C216 1.427 . S
N220 C217 1.384 . S
N221 C213 1.427 . S
N221 C219 1.384 . S
H222 C228 0.930 . S
H223 C232 0.930 . S
H224 C237 0.929 . S
H225 C235 0.929 . S
H226 C230 0.929 . S
H227 C236 0.929 . S
C228 H222 0.930 . S
C228 C229 1.367 . S
C228 C236 1.378 . S
C229 C228 1.367 . S
C229 C237 1.433 . S
C230 H226 0.929 . S
C230 C232 1.378 . S
C230 C234 1.350 . S
C231 C234 1.463 . S
C231 C236 1.350 . S
C231 N239 1.427 . S
C232 H223 0.930 . S
C232 C230 1.378 . S
C232 C233 1.367 . S
C233 C232 1.367 . S
C233 C235 1.433 . S
C234 C230 1.350 . S
C234 C231 1.463 . S
C234 N238 1.427 . S
C235 H225 0.929 . S
C235 C233 1.433 . S
C235 N238 1.384 . S
C236 H227 0.929 . S
C236 C228 1.378 . S
C236 C231 1.350 . S
C237 H224 0.929 . S
C237 C229 1.433 . S
C237 N239 1.384 . S
N238 C234 1.427 . S
N238 C235 1.384 . S
N239 C231 1.427 . S
N239 C237 1.384 . S
H240 C246 0.930 . S
H241 C250 0.930 . S
H242 C255 0.929 . S
H243 C253 0.929 . S
H244 C248 0.929 . S
H245 C254 0.929 . S
C246 H240 0.930 . S
C246 C247 1.367 . S
C246 C254 1.378 . S
C247 C246 1.367 . S
C247 C255 1.433 . S
C248 H244 0.929 . S
C248 C250 1.378 . S
C248 C252 1.350 . S
C249 C252 1.463 . S
C249 C254 1.350 . S
C249 N257 1.427 . S
C250 H241 0.930 . S
C250 C248 1.378 . S
C250 C251 1.367 . S
C251 C250 1.367 . S
C251 C253 1.433 . S
C252 C248 1.350 . S
C252 C249 1.463 . S
C252 N256 1.427 . S
C253 H243 0.929 . S
C253 C251 1.433 . S
C253 N256 1.384 . S
C254 H245 0.929 . S
C254 C246 1.378 . S
C254 C249 1.350 . S
C255 H242 0.929 . S
C255 C247 1.433 . S
C255 N257 1.384 . S
N256 C252 1.427 . S
N256 C253 1.384 . S
N257 C249 1.427 . S
N257 C255 1.384 . S
H258 C264 0.930 . S
H259 C268 0.930 . S
H260 C273 0.929 . S
H261 C271 0.929 . S
H262 C266 0.929 . S
H263 C272 0.929 . S
C264 H258 0.930 . S
C264 C265 1.367 . S
C264 C272 1.378 . S
C265 C264 1.367 . S
C265 C273 1.433 . S
C266 H262 0.929 . S
C266 C268 1.378 . S
C266 C270 1.350 . S
C267 C270 1.463 . S
C267 C272 1.350 . S
C267 N275 1.427 . S
C268 H259 0.930 . S
C268 C266 1.378 . S
C268 C269 1.367 . S
C269 C268 1.367 . S
C269 C271 1.433 . S
C270 C266 1.350 . S
C270 C267 1.463 . S
C270 N274 1.427 . S
C271 H261 0.929 . S
C271 C269 1.433 . S
C271 N274 1.384 . S
C272 H263 0.929 . S
C272 C264 1.378 . S
C272 C267 1.350 . S
C273 H260 0.929 . S
C273 C265 1.433 . S
C273 N275 1.384 . S
N274 C270 1.427 . S
N274 C271 1.384 . S
N275 C267 1.427 . S
N275 C273 1.384 . S
H276 C282 0.930 . S
H277 C286 0.930 . S
H278 C291 0.929 . S
H279 C289 0.929 . S
H280 C284 0.929 . S
H281 C290 0.929 . S
C282 H276 0.930 . S
C282 C283 1.367 . S
C282 C290 1.378 . S
C283 C282 1.367 . S
C283 C291 1.433 . S
C284 H280 0.929 . S
C284 C286 1.378 . S
C284 C288 1.350 . S
C285 C288 1.463 . S
C285 C290 1.350 . S
C285 N293 1.427 . S
C286 H277 0.930 . S
C286 C284 1.378 . S
C286 C287 1.367 . S
C287 C286 1.367 . S
C287 C289 1.433 . S
C288 C284 1.350 . S
C288 C285 1.463 . S
C288 N292 1.427 . S
C289 H279 0.929 . S
C289 C287 1.433 . S
C289 N292 1.384 . S
C290 H281 0.929 . S
C290 C282 1.378 . S
C290 C285 1.350 . S
C291 H278 0.929 . S
C291 C283 1.433 . S
C291 N293 1.384 . S
N292 C288 1.427 . S
N292 C289 1.384 . S
N293 C285 1.427 . S
N293 C291 1.384 . S
H294 C300 0.930 . S
H295 C304 0.930 . S
H296 C309 0.929 . S
H297 C307 0.929 . S
H298 C302 0.929 . S
H299 C308 0.929 . S
C300 H294 0.930 . S
C300 C301 1.367 . S
C300 C308 1.378 . S
C301 C300 1.367 . S
C301 C309 1.433 . S
C302 H298 0.929 . S
C302 C304 1.378 . S
C302 C306 1.350 . S
C303 C306 1.463 . S
C303 C308 1.350 . S
C303 N311 1.427 . S
C304 H295 0.930 . S
C304 C302 1.378 . S
C304 C305 1.367 . S
C305 C304 1.367 . S
C305 C307 1.433 . S
C306 C302 1.350 . S
C306 C303 1.463 . S
C306 N310 1.427 . S
C307 H297 0.929 . S
C307 C305 1.433 . S
C307 N310 1.384 . S
C308 H299 0.929 . S
C308 C300 1.378 . S
C308 C303 1.350 . S
C309 H296 0.929 . S
C309 C301 1.433 . S
C309 N311 1.384 . S
N310 C306 1.427 . S
N310 C307 1.384 . S
N311 C303 1.427 . S
N311 C309 1.384 . S
H312 C318 0.930 . S
H313 C322 0.930 . S
H314 C327 0.929 . S
H315 C325 0.929 . S
H316 C320 0.929 . S
H317 C326 0.929 . S
C318 H312 0.930 . S
C318 C319 1.367 . S
C318 C326 1.378 . S
C319 C318 1.367 . S
C319 C327 1.433 . S
C320 H316 0.929 . S
C320 C322 1.378 . S
C320 C324 1.350 . S
C321 C324 1.463 . S
C321 C326 1.350 . S
C321 N329 1.427 . S
C322 H313 0.930 . S
C322 C320 1.378 . S
C322 C323 1.367 . S
C323 C322 1.367 . S
C323 C325 1.433 . S
C324 C320 1.350 . S
C324 C321 1.463 . S
C324 N328 1.427 . S
C325 H315 0.929 . S
C325 C323 1.433 . S
C325 N328 1.384 . S
C326 H317 0.929 . S
C326 C318 1.378 . S
C326 C321 1.350 . S
C327 H314 0.929 . S
C327 C319 1.433 . S
C327 N329 1.384 . S
N328 C324 1.427 . S
N328 C325 1.384 . S
N329 C321 1.427 . S
N329 C327 1.384 . S
H330 C336 0.930 . S
H331 C340 0.930 . S
H332 C345 0.929 . S
H333 C343 0.929 . S
H334 C338 0.929 . S
H335 C344 0.929 . S
C336 H330 0.930 . S
C336 C337 1.367 . S
C336 C344 1.378 . S
C337 C336 1.367 . S
C337 C345 1.433 . S
C338 H334 0.929 . S
C338 C340 1.378 . S
C338 C342 1.350 . S
C339 C342 1.463 . S
C339 C344 1.350 . S
C339 N347 1.427 . S
C340 H331 0.930 . S
C340 C338 1.378 . S
C340 C341 1.367 . S
C341 C340 1.367 . S
C341 C343 1.433 . S
C342 C338 1.350 . S
C342 C339 1.463 . S
C342 N346 1.427 . S
C343 H333 0.929 . S
C343 C341 1.433 . S
C343 N346 1.384 . S
C344 H335 0.929 . S
C344 C336 1.378 . S
C344 C339 1.350 . S
C345 H332 0.929 . S
C345 C337 1.433 . S
C345 N347 1.384 . S
N346 C342 1.427 . S
N346 C343 1.384 . S
N347 C339 1.427 . S
N347 C345 1.384 . S
H348 C354 0.930 . S
H349 C358 0.930 . S
H350 C363 0.929 . S
H351 C361 0.929 . S
H352 C356 0.929 . S
H353 C362 0.929 . S
C354 H348 0.930 . S
C354 C355 1.367 . S
C354 C362 1.378 . S
C355 C354 1.367 . S
C355 C363 1.433 . S
C356 H352 0.929 . S
C356 C358 1.378 . S
C356 C360 1.350 . S
C357 C360 1.463 1_554 S
C357 C362 1.350 . S
C357 N365 1.427 . S
C358 H349 0.930 . S
C358 C356 1.378 . S
C358 C359 1.367 . S
C359 C358 1.367 . S
C359 C361 1.433 . S
C360 C356 1.350 . S
C360 C357 1.463 1_556 S
C360 N364 1.427 . S
C361 H351 0.929 . S
C361 C359 1.433 . S
C361 N364 1.384 . S
C362 H353 0.929 . S
C362 C354 1.378 . S
C362 C357 1.350 . S
C363 H350 0.929 . S
C363 C355 1.433 . S
C363 N365 1.384 . S
N364 C360 1.427 . S
N364 C361 1.384 . S
N365 C357 1.427 . S
N365 C363 1.384 . S
H366 C372 0.930 . S
H367 C376 0.930 . S
H368 C381 0.929 . S
H369 C379 0.929 . S
H370 C374 0.929 . S
H371 C380 0.929 . S
C372 H366 0.930 . S
C372 C373 1.367 . S
C372 C380 1.378 . S
C373 C372 1.367 . S
C373 C381 1.433 . S
C374 H370 0.929 . S
C374 C376 1.378 . S
C374 C378 1.350 . S
C375 C378 1.463 1_455 S
C375 C380 1.350 . S
C375 N383 1.427 . S
C376 H367 0.930 . S
C376 C374 1.378 . S
C376 C377 1.367 . S
C377 C376 1.367 . S
C377 C379 1.433 . S
C378 C374 1.350 . S
C378 C375 1.463 1_655 S
C378 N382 1.427 . S
C379 H369 0.929 . S
C379 C377 1.433 . S
C379 N382 1.384 . S
C380 H371 0.929 . S
C380 C372 1.378 . S
C380 C375 1.350 . S
C381 H368 0.929 . S
C381 C373 1.433 . S
C381 N383 1.384 . S
N382 C378 1.427 . S
N382 C379 1.384 . S
N383 C375 1.427 . S
N383 C381 1.384 . S
H384 C390 0.934 1_565 S
H385 C394 0.941 . S
H386 C399 0.929 . S
H387 C397 0.929 . S
H388 C392 0.929 . S
H389 C398 0.929 . S
C390 H384 0.934 1_545 S
C390 C391 1.361 . S
C390 C398 1.379 1_545 S
C391 C390 1.361 . S
C391 C399 1.433 . S
C392 H388 0.929 . S
C392 C394 1.383 . S
C392 C396 1.350 1_545 S
C393 C396 1.463 1_546 S
C393 C398 1.350 1_545 S
C393 N401 1.427 . S
C394 H385 0.941 . S
C394 C392 1.383 . S
C394 C395 1.351 1_545 S
C395 C394 1.351 1_565 S
C395 C397 1.433 . S
C396 C392 1.350 1_565 S
C396 C393 1.463 1_564 S
C396 N400 1.427 . S
C397 H387 0.929 . S
C397 C395 1.433 . S
C397 N400 1.384 . S
C398 H389 0.929 . S
C398 C390 1.379 1_565 S
C398 C393 1.350 1_565 S
C399 H386 0.929 . S
C399 C391 1.433 . S
C399 N401 1.384 . S
N400 C396 1.427 . S
N400 C397 1.384 . S
N401 C393 1.427 . S
N401 C399 1.384 . S
H402 C408 0.930 . S
H403 C412 0.930 . S
H404 C417 0.929 . S
H405 C415 0.929 . S
H406 C410 0.929 . S
H407 C416 0.929 . S
C408 H402 0.930 . S
C408 C409 1.367 . S
C408 C416 1.378 . S
C409 C408 1.367 . S
C409 C417 1.433 . S
C410 H406 0.929 . S
C410 C412 1.378 . S
C410 C414 1.350 . S
C411 C414 1.463 . S
C411 C416 1.350 . S
C411 N419 1.427 . S
C412 H403 0.930 . S
C412 C410 1.378 . S
C412 C413 1.367 . S
C413 C412 1.367 . S
C413 C415 1.433 . S
C414 C410 1.350 . S
C414 C411 1.463 . S
C414 N418 1.427 . S
C415 H405 0.929 . S
C415 C413 1.433 . S
C415 N418 1.384 . S
C416 H407 0.929 . S
C416 C408 1.378 . S
C416 C411 1.350 . S
C417 H404 0.929 . S
C417 C409 1.433 . S
C417 N419 1.384 . S
N418 C414 1.427 . S
N418 C415 1.384 . S
N419 C411 1.427 . S
N419 C417 1.384 . S
H420 C426 0.930 . S
H421 C430 0.930 . S
H422 C435 0.936 . S
H423 C433 0.942 . S
H424 C428 0.929 . S
H425 C434 0.929 . S
C426 H420 0.930 . S
C426 C427 1.367 . S
C426 C434 1.378 . S
C427 C426 1.367 . S
C427 C435 1.419 1_455 S
C428 H424 0.929 . S
C428 C430 1.378 . S
C428 C432 1.350 . S
C429 C432 1.463 1_454 S
C429 C434 1.350 . S
C429 N437 1.427 1_455 S
C430 H421 0.930 . S
C430 C428 1.378 . S
C430 C431 1.367 . S
C431 C430 1.367 . S
C431 C433 1.408 1_655 S
C432 C428 1.350 . S
C432 C429 1.463 1_656 S
C432 N436 1.427 1_655 S
C433 H423 0.942 . S
C433 C431 1.408 1_455 S
C433 N436 1.398 . S
C434 H425 0.929 . S
C434 C426 1.378 . S
C434 C429 1.350 . S
C435 H422 0.936 . S
C435 C427 1.419 1_655 S
C435 N437 1.391 . S
N436 C432 1.427 1_455 S
N436 C433 1.398 . S
N437 C429 1.427 1_655 S
N437 C435 1.391 . S
H438 C444 0.930 . S
H439 C448 0.930 . S
H440 C453 0.929 . S
H441 C451 0.929 . S
H442 C446 0.929 . S
H443 C452 0.929 . S
C444 H438 0.930 . S
C444 C445 1.367 . S
C444 C452 1.378 . S
C445 C444 1.367 . S
C445 C453 1.433 . S
C446 H442 0.929 . S
C446 C448 1.378 . S
C446 C450 1.350 . S
C447 C450 1.463 1_565 S
C447 C452 1.350 . S
C447 N455 1.427 . S
C448 H439 0.930 . S
C448 C446 1.378 . S
C448 C449 1.367 . S
C449 C448 1.367 . S
C449 C451 1.433 . S
C450 C446 1.350 . S
C450 C447 1.463 1_545 S
C450 N454 1.427 . S
C451 H441 0.929 . S
C451 C449 1.433 . S
C451 N454 1.384 . S
C452 H443 0.929 . S
C452 C444 1.378 . S
C452 C447 1.350 . S
C453 H440 0.929 . S
C453 C445 1.433 . S
C453 N455 1.384 . S
N454 C450 1.427 . S
N454 C451 1.384 . S
N455 C447 1.427 . S
N455 C453 1.384 . S
C139 C5 1.419 . S
C143 C115 1.408 . S
C157 C126 1.412 . S
C161 C16 1.419 . S
C175 C71 1.419 . S
C179 C27 1.409 . S
C193 C38 1.418 . S
C197 C82 1.407 . S
C211 C93 1.403 . S
C215 C49 1.396 . S
C229 C104 1.414 . S
C233 C60 1.421 . S
C247 C7 1.534 . S
C251 C73 1.525 . S
C265 C18 1.532 . S
C269 C84 1.532 . S
C283 C29 1.535 . S
C287 C95 1.529 . S
C301 C106 1.531 . S
C305 C40 1.525 . S
C319 C51 1.527 . S
C323 C117 1.529 . S
C337 C62 1.530 . S
C341 C128 1.533 . S
C355 C8 1.576 . S
C359 C107 1.576 . S
C373 C118 1.577 . S
C377 C19 1.576 . S
C391 C129 1.576 . S
C395 C30 1.576 . S
C409 C41 1.577 . S
C413 C74 1.576 . S
C427 C52 1.577 . S
C431 C85 1.577 . S
C445 C96 1.576 . S
C449 C63 1.577 . S
