# Generated by pormake.
# Topology sxb, (6)-cn, num edge types: 1
# Building blocks:
#     Node 0, Type 0, BuildingBlock: HISSIN_clean_sbu_0, # of connection points: 6
#     Node 1, Type 0, BuildingBlock: HISSIN_clean_sbu_0, # of connection points: 6
#     Node 2, Type 0, BuildingBlock: HISSIN_clean_sbu_0, # of connection points: 6
#     Node 3, Type 0, BuildingBlock: HISSIN_clean_sbu_0, # of connection points: 6
#     Edge 4, Type (0, 0), BuildingBlock: TEMPAE_clean_linker_10, # of connection points: 2
#     Edge 5, Type (0, 0), BuildingBlock: TEMPAE_clean_linker_10, # of connection points: 2
#     Edge 6, Type (0, 0), BuildingBlock: TEMPAE_clean_linker_10, # of connection points: 2
#     Edge 7, Type (0, 0), BuildingBlock: TEMPAE_clean_linker_10, # of connection points: 2
#     Edge 8, Type (0, 0), BuildingBlock: TEMPAE_clean_linker_10, # of connection points: 2
#     Edge 9, Type (0, 0), BuildingBlock: TEMPAE_clean_linker_10, # of connection points: 2
#     Edge 10, Type (0, 0), BuildingBlock: TEMPAE_clean_linker_10, # of connection points: 2
#     Edge 11, Type (0, 0), BuildingBlock: TEMPAE_clean_linker_10, # of connection points: 2
#     Edge 12, Type (0, 0), BuildingBlock: TEMPAE_clean_linker_10, # of connection points: 2
#     Edge 13, Type (0, 0), BuildingBlock: TEMPAE_clean_linker_10, # of connection points: 2
#     Edge 14, Type (0, 0), BuildingBlock: TEMPAE_clean_linker_10, # of connection points: 2
#     Edge 15, Type (0, 0), BuildingBlock: TEMPAE_clean_linker_10, # of connection points: 2
# Relax obj value: 0.409
# Max RMSD: 0.120
# Mean RMSD: 0.091
data_MOF--net-sxb--node1-HISSIN_clean_sbu_0--edge1-TEMPAE_clean_linker_10
_symmetry_space_group_name_H-M    P1
_symmetry_Int_Tables_number       1
_symmetry_cell_setting            triclinic
loop_
_symmetry_equiv_pos_as_xyz
'x, y, z'
_cell_length_a     16.494088
_cell_length_b     34.671057
_cell_length_c     31.450701
_cell_angle_alpha  98.114511
_cell_angle_beta   95.85814
_cell_angle_gamma 67.23652
loop_
_atom_site_label
_atom_site_type_symbol
_atom_site_fract_x
_atom_site_fract_y
_atom_site_fract_z
_atom_type_partial_charge
Eu0 Eu 0.98234 0.09517 0.93603 0.0
Eu1 Eu 0.17063 0.1027 0.94682 0.0
C2 C 1.07359 0.09924 0.02874 0.0
C3 C 0.82432 1.06438 0.97808 0.0
C4 C 0.89503 1.04509 0.00689 0.0
C5 C 0.72291 1.06947 0.03109 0.0
C6 C 0.88004 1.03913 0.04785 0.0
C7 C 0.7381 1.0757 -0.0099 0.0
C8 C 0.79378 1.05245 0.06093 0.0
C9 C 0.84194 0.07967 0.94009 0.0
O10 O 0.20601 1.03261 0.92585 0.0
O11 O 1.08411 1.03041 0.95127 0.0
C12 C 0.16428 1.01062 0.93755 0.0
O13 O 1.01537 0.09187 0.8668 0.0
O14 O 0.2435 0.13772 -0.01569 0.0
O15 O 0.31234 0.08281 0.94078 0.0
O16 O 0.14403 0.10475 0.87529 0.0
C17 C 1.08025 0.09775 0.85078 0.0
O18 O 0.93993 0.16533 0.93065 0.0
O19 O 1.07421 0.17143 0.94468 0.0
O20 O 0.14765 0.08385 0.00929 0.0
O21 O 0.84233 0.11751 0.94739 0.0
O22 O 0.90927 1.05384 0.91862 0.0
O23 O 0.99963 0.11514 0.00643 0.0
C24 C 0.37365 0.08931 0.01165 0.0
C25 C 0.38018 1.04937 0.02006 0.0
C26 C 0.44719 0.09754 0.08127 0.0
C27 C 0.42121 1.03339 0.05838 0.0
C28 C 0.40699 0.11335 0.04268 0.0
C29 C 0.45485 1.05738 0.08936 0.0
C30 C 0.31929 0.1085 0.97434 0.0
C31 C 0.98794 0.18869 0.93727 0.0
H32 H 0.96224 1.03684 -0.00121 0.0
H33 H 0.65548 1.07923 0.03992 0.0
H34 H 0.93609 1.02638 0.06995 0.0
H35 H 0.68269 0.09111 0.96864 0.0
H36 H 0.35238 1.03069 -0.00269 0.0
H37 H 0.47454 0.11621 0.1043 0.0
H38 H 0.42691 1.00225 0.0638 0.0
H39 H 0.40069 0.1446 0.03733 0.0
Eu40 Eu 0.12558 1.03274 0.43253 0.0
Eu41 Eu 1.04548 0.13304 0.44418 0.0
C42 C 1.09617 0.08293 0.52596 0.0
C43 C 0.1719 0.9243 0.45843 0.0
C44 C 0.17261 0.9324 0.50358 0.0
C45 C 1.10043 0.8756 0.46173 0.0
C46 C 0.13414 0.91359 0.52738 0.0
C47 C 0.13927 0.8943 0.43794 0.0
C48 C 1.09397 0.88654 0.50646 0.0
C49 C 0.19219 0.95128 0.43245 0.0
O50 O 0.19224 0.11877 0.43351 0.0
O51 O 0.25137 1.04881 0.4421 0.0
C52 C 0.26265 0.08386 0.43769 0.0
O53 O 0.12654 1.04853 0.36536 0.0
O54 O 0.98655 0.19135 0.48642 0.0
O55 O 1.00724 0.19407 0.42034 0.0
O56 O 1.02539 0.1163 0.37294 0.0
C57 C 1.07397 0.08282 0.34872 0.0
O58 O 0.97448 1.04772 0.4245 0.0
O59 O 0.92161 0.11783 0.44964 0.0
O60 O 0.10734 0.11269 0.50887 0.0
O61 O 0.12963 0.97052 0.40493 0.0
O62 O 0.22877 0.97611 0.45337 0.0
O63 O 1.08277 1.05228 0.50087 0.0
C64 C 1.04805 0.23877 0.4737 0.0
C65 C 0.134 0.22411 0.45961 0.0
C66 C 1.08026 0.29113 0.52476 0.0
C67 C 0.193 0.24187 0.47854 0.0
C68 C 1.02106 0.27271 0.50612 0.0
C69 C 0.16724 0.27499 0.51169 0.0
C70 C 0.99266 0.21455 0.45868 0.0
C71 C 0.90718 0.08275 0.43686 0.0
H72 H 0.19798 0.95519 0.52044 0.0
H73 H 1.06941 0.85516 0.44452 0.0
H74 H 0.13135 0.92209 0.56185 0.0
H75 H 0.1382 0.88753 0.40323 0.0
H76 H 0.15669 0.19813 0.43458 0.0
H77 H 1.05907 0.31711 0.54996 0.0
H78 H 0.25913 0.22966 0.46719 0.0
H79 H 0.95529 0.28414 0.51771 0.0
Eu80 Eu 0.49135 0.58923 0.92615 0.0
Eu81 Eu 0.66467 0.60805 0.95328 0.0
C82 C 0.55321 0.6017 0.0256 0.0
C83 C 0.36471 0.5232 0.92601 0.0
C84 C 0.40962 0.51102 0.96523 0.0
C85 C 0.3231 0.46251 0.91832 0.0
C86 C 0.40784 0.4763 -0.01811 0.0
C87 C 0.32454 0.49772 0.90174 0.0
C88 C 0.36088 0.45262 0.95972 0.0
C89 C 0.366 0.56084 0.90993 0.0
O90 O 0.69695 0.53934 0.96475 0.0
O91 O 0.60594 0.52687 0.9112 0.0
C92 C 0.67436 0.51215 0.93779 0.0
O93 O 0.51546 0.61045 0.86607 0.0
O94 O 0.7322 0.64302 -0.00431 0.0
O95 O 0.80672 0.59006 0.95167 0.0
O96 O 0.66142 0.59999 0.87985 0.0
C97 C 0.59159 0.60659 0.85297 0.0
O98 O 0.43752 0.66198 0.93472 0.0
O99 O 0.5676 0.6729 0.93862 0.0
O100 O 0.58971 0.62513 0.01309 0.0
O101 O 0.36124 0.59245 0.93909 0.0
O102 O 0.42709 0.55318 0.88317 0.0
O103 O 0.52466 0.57813 -0.00328 0.0
C104 C 0.86198 0.594 0.02374 0.0
C105 C 0.86706 0.55372 0.02942 0.0
C106 C 0.95494 0.59348 0.08887 0.0
C107 C 0.91893 0.53265 0.06303 0.0
C108 C 0.90244 0.61467 0.05497 0.0
C109 C 0.969 0.55098 0.09149 0.0
C110 C 0.80956 0.61484 -0.01326 0.0
C111 C 0.48062 0.68763 0.93643 0.0
H112 H 0.44361 0.52927 -0.01597 0.0
H113 H 0.28837 0.44441 0.89966 0.0
H114 H 0.4375 0.47039 0.01385 0.0
H115 H 0.2925 0.50562 0.87056 0.0
H116 H 0.83443 0.5374 0.00666 0.0
H117 H 0.98927 0.60946 0.11117 0.0
H118 H 0.92629 0.50031 0.06354 0.0
H119 H 0.89597 0.64657 0.05235 0.0
Eu120 Eu 0.62338 0.54971 0.43523 0.0
Eu121 Eu 0.53946 0.65147 0.44473 0.0
C122 C 0.59688 0.60216 0.52918 0.0
C123 C 0.67197 0.44034 0.45829 0.0
C124 C 0.61156 0.45793 0.49068 0.0
C125 C 0.67774 0.37104 0.46699 0.0
C126 C 0.58267 0.43243 0.5104 0.0
C127 C 0.70676 0.39673 0.44723 0.0
C128 C 0.61344 0.38887 0.49786 0.0
C129 C 0.69321 0.46818 0.43449 0.0
O130 O 0.68867 0.63858 0.44392 0.0
O131 O 0.74693 0.56637 0.43514 0.0
C132 C 0.75812 0.60263 0.43946 0.0
O133 O 0.61205 0.56368 0.36644 0.0
O134 O 0.45093 0.70887 0.47945 0.0
O135 O 0.52025 0.71285 0.42634 0.0
O136 O 0.52708 0.63443 0.37282 0.0
C137 C 0.56621 0.59859 0.34917 0.0
O138 O 0.47405 0.56286 0.43675 0.0
O139 O 0.4151 0.63501 0.44136 0.0
O140 O 0.59381 0.63476 0.51157 0.0
O141 O 0.632 0.48733 0.40639 0.0
O142 O 0.72512 0.49363 0.45809 0.0
O143 O 0.5928 0.56887 0.50518 0.0
C144 C 0.50869 0.76137 0.48705 0.0
C145 C 0.58455 0.74382 0.51338 0.0
C146 C 0.51601 0.83013 0.50616 0.0
C147 C 0.62779 0.7689 0.53471 0.0
C148 C 0.47278 0.80481 0.48459 0.0
C149 C 0.59597 0.81207 0.53002 0.0
C150 C 0.47359 0.73329 0.45934 0.0
C151 C 0.4042 0.59881 0.43896 0.0
H152 H 0.5838 0.49165 0.49943 0.0
H153 H 0.70286 0.33751 0.45693 0.0
H154 H 0.53204 0.44724 0.53345 0.0
H155 H 0.75374 0.38277 0.42235 0.0
H156 H 0.61326 0.71023 0.51549 0.0
H157 H 0.48949 0.86339 0.50232 0.0
H158 H 0.68981 0.75372 0.55211 0.0
H159 H 0.41388 0.81877 0.4645 0.0
C160 C 0.34932 0.75216 0.91396 0.0
C161 C 0.43097 0.73486 0.93667 0.0
C162 C 0.30512 0.79642 0.91293 0.0
C163 C 0.34092 0.82495 0.93646 0.0
C164 C 0.42232 0.80753 0.96026 0.0
C165 C 0.46658 0.76322 0.95941 0.0
C166 C 0.22056 0.81264 0.88582 0.0
C167 C 0.46267 0.83581 -0.01282 0.0
C168 C 0.27543 0.9391 0.90843 0.0
C169 C 0.20906 0.96312 0.937 0.0
C170 C 0.31666 0.89456 0.90713 0.0
C171 C 0.29411 0.87271 0.93615 0.0
C172 C 0.22801 0.89697 0.96553 0.0
C173 C 0.18564 0.9413 0.96507 0.0
C174 C 0.38418 0.87076 0.87423 0.0
C175 C 0.20296 0.87617 -0.00177 0.0
H176 H 0.32095 0.73098 0.89592 0.0
H177 H 0.52905 0.7507 0.97741 0.0
H178 H 0.16595 0.8331 0.90643 0.0
H179 H 0.22698 0.83219 0.86227 0.0
H180 H 0.20261 0.78678 0.86807 0.0
H181 H 0.47958 0.8545 0.96624 0.0
H182 H 0.41444 0.85841 0.00988 0.0
H183 H 0.52321 0.81782 0.00589 0.0
H184 H 0.29417 0.95512 0.88629 0.0
H185 H 0.13516 0.9591 -0.01241 0.0
H186 H 0.36601 0.84561 0.855 0.0
H187 H 0.44938 0.85523 0.89062 0.0
H188 H 0.39052 0.89157 0.85204 0.0
H189 H 0.17684 0.85261 -0.01828 0.0
H190 H 0.15257 0.89919 0.01973 0.0
H191 H 0.26217 0.85908 0.01822 0.0
C192 C 0.71447 0.43657 0.90268 0.0
C193 C 0.72374 0.46487 0.93789 0.0
C194 C 0.75896 0.39227 0.90217 0.0
C195 C 0.81308 0.37467 0.93826 0.0
C196 C 0.8223 0.40311 0.97406 0.0
C197 C 0.77895 0.44742 0.97321 0.0
C198 C 0.74835 0.36419 0.86254 0.0
C199 C 0.8771 0.38674 0.01382 0.0
C200 C 0.8558 0.2581 0.94939 0.0
C201 C 0.94328 0.23623 0.93725 0.0
C202 C 0.81403 0.30265 0.95091 0.0
C203 C 0.85877 0.32682 0.93852 0.0
C204 C 0.94669 0.30479 0.92558 0.0
C205 C 0.98796 0.26036 0.92587 0.0
C206 C 0.72183 0.324 0.9664 0.0
C207 C 0.99713 0.32814 0.91067 0.0
H208 H 0.6728 0.44912 0.87498 0.0
H209 H 0.78692 0.46844 0.00081 0.0
H210 H 0.81395 0.34328 0.85079 0.0
H211 H 0.71572 0.34372 0.8705 0.0
H212 H 0.70871 0.38242 0.83614 0.0
H213 H 0.87381 0.41241 0.03993 0.0
H214 H 0.85443 0.36424 0.02592 0.0
H215 H 0.94688 0.3694 0.00589 0.0
H216 H 0.82023 0.24037 0.95877 0.0
H217 H 1.05519 0.24432 0.91623 0.0
H218 H 0.67613 0.33993 0.94024 0.0
H219 H 0.71988 0.34861 -0.00655 0.0
H220 H 0.69742 0.3015 0.97727 0.0
H221 H 1.06286 0.30662 0.89945 0.0
H222 H 1.00635 0.35098 0.93725 0.0
H223 H 0.95913 0.34638 0.884 0.0
C224 C 0.21569 0.33515 0.52622 0.0
C225 C 0.23183 0.29318 0.53032 0.0
C226 C 0.28495 0.34956 0.53148 0.0
C227 C 0.37148 0.3212 0.54139 0.0
C228 C 0.38581 0.28024 0.55054 0.0
C229 C 0.31556 0.26656 0.5446 0.0
C230 C 0.26707 0.3936 0.52162 0.0
C231 C 0.47668 0.24969 0.56251 0.0
C232 C 0.5385 0.33831 0.48118 0.0
C233 C 0.56795 0.36394 0.51202 0.0
C234 C 0.47833 0.32203 0.49129 0.0
C235 C 0.44723 0.33154 0.53336 0.0
C236 C 0.48233 0.35436 0.56561 0.0
C237 C 0.54222 0.37053 0.55448 0.0
C238 C 0.4431 0.29735 0.45598 0.0
C239 C 0.45242 0.3642 0.61103 0.0
H240 H 0.15078 0.35557 0.51511 0.0
H241 H 0.3273 0.23414 0.5482 0.0
H242 H 0.30078 0.40928 0.54618 0.0
H243 H 0.2934 0.39203 0.49004 0.0
H244 H 0.19554 0.41329 0.52023 0.0
H245 H 0.47512 0.22073 0.57304 0.0
H246 H 0.5184 0.24049 0.53441 0.0
H247 H 0.50857 0.26481 0.58865 0.0
H248 H 0.55742 0.33345 0.44824 0.0
H249 H 0.56589 0.38991 0.57853 0.0
H250 H 0.37205 0.31538 0.44898 0.0
H251 H 0.44945 0.26699 0.46634 0.0
H252 H 0.47798 0.29068 0.42576 0.0
H253 H 0.38829 0.39125 0.61245 0.0
H254 H 0.50026 0.37274 0.63396 0.0
H255 H 0.44289 0.33712 0.62165 0.0
C256 C 1.02731 0.83586 0.51915 0.0
C257 C 1.03336 0.87532 0.52931 0.0
C258 C 0.95501 0.82884 0.53094 0.0
C259 C 0.88795 0.86205 0.55379 0.0
C260 C 0.89913 0.90017 0.56862 0.0
C261 C 0.97162 0.90652 0.55593 0.0
C262 C 0.94625 0.78734 0.5151 0.0
C263 C 0.83052 0.93583 0.59417 0.0
C264 C 0.66764 0.85914 0.5137 0.0
C265 C 0.65474 0.83544 0.54308 0.0
C266 C 0.7399 0.8713 0.519 0.0
C267 C 0.80066 0.85937 0.55453 0.0
C268 C 0.78274 0.83964 0.58678 0.0
C269 C 0.70968 0.82786 0.58067 0.0
C270 C 0.75561 0.89326 0.48426 0.0
C271 C 0.84437 0.82775 0.62584 0.0
H272 H 1.07611 0.81136 0.4995 0.0
H273 H 0.97568 0.93718 0.564 0.0
H274 H 0.92691 0.7749 0.54134 0.0
H275 H 0.89376 0.79211 0.48902 0.0
H276 H 1.00841 0.76331 0.50235 0.0
H277 H 0.85872 0.958 0.61246 0.0
H278 H 0.77675 0.95366 0.57189 0.0
H279 H 0.80116 0.92388 0.61698 0.0
H280 H 0.62589 0.86505 0.4845 0.0
H281 H 0.69879 0.81035 0.60399 0.0
H282 H 0.8137 0.87153 0.46641 0.0
H283 H 0.76997 0.92118 0.4986 0.0
H284 H 0.69817 0.90366 0.46093 0.0
H285 H 0.9007 0.79806 0.6171 0.0
H286 H 0.81102 0.82265 0.65227 0.0
H287 H 0.87121 0.85233 0.6378 0.0
C288 C 0.49784 1.06003 0.1686 0.0
C289 C 0.5097 1.0386 0.12689 0.0
C290 C 0.56779 1.04848 0.19999 0.0
C291 C 0.65208 1.02131 0.18631 0.0
C292 C 0.65067 0.98996 0.15212 0.0
C293 C 0.58218 1.00068 0.12041 0.0
C294 C 0.5548 1.06808 0.24583 0.0
C295 C 0.72296 0.94708 0.14678 0.0
C296 C 0.70849 0.08453 0.1265 0.0
C297 C 0.77661 1.05092 0.10598 0.0
C298 C 0.68361 0.08144 0.16665 0.0
C299 C 0.71745 1.04156 0.18275 0.0
C300 C 0.80286 1.01483 0.17018 0.0
C301 C 0.82971 1.01797 0.13012 0.0
C302 C 0.62393 0.12091 0.19152 0.0
C303 C 0.86339 0.98243 0.19806 0.0
H304 H 0.43707 0.08645 0.17596 0.0
H305 H 0.58801 0.98072 0.09014 0.0
H306 H 0.61858 1.06405 0.26386 0.0
H307 H 0.51143 0.10194 0.24733 0.0
H308 H 0.52107 1.05235 0.26189 0.0
H309 H 0.69571 0.92326 0.13211 0.0
H310 H 0.77125 0.94685 0.12455 0.0
H311 H 0.7564 0.93765 0.17823 0.0
H312 H 0.67573 0.11345 0.11168 0.0
H313 H 0.88966 0.9941 0.11757 0.0
H314 H 0.63412 0.11859 0.22659 0.0
H315 H 0.5542 0.12711 0.18106 0.0
H316 H 0.63724 0.14856 0.18509 0.0
H317 H 0.91755 0.99255 0.21202 0.0
H318 H 0.89436 0.95162 0.17862 0.0
H319 H 0.82878 0.97896 0.22493 0.0
C320 C 0.4327 1.05158 0.45326 0.0
C321 C 0.35713 0.08392 0.4375 0.0
C322 C 0.52008 1.05152 0.45397 0.0
C323 C 0.5368 0.08376 0.43685 0.0
C324 C 0.46054 0.11618 0.42018 0.0
C325 C 0.37358 0.11625 0.42152 0.0
C326 C 0.59453 1.01638 0.47364 0.0
C327 C 0.46868 0.15146 0.40015 0.0
C328 C 0.74875 0.1117 0.46465 0.0
C329 C 0.81253 0.08286 0.43671 0.0
C330 C 0.66173 0.11174 0.46564 0.0
C331 C 0.63238 0.08351 0.43657 0.0
C332 C 0.69601 1.05508 0.40739 0.0
C333 C 0.78398 1.05442 0.4086 0.0
C334 C 0.60125 0.1425 0.49845 0.0
C335 C 0.67229 1.02505 0.37381 0.0
H336 H 0.42363 1.02617 0.46603 0.0
H337 H 0.31799 0.14173 0.40898 0.0
H338 H 0.64664 1.02707 0.48952 0.0
H339 H 0.57067 1.00316 0.49768 0.0
H340 H 0.62437 0.99058 0.448 0.0
H341 H 0.44844 0.18034 0.42337 0.0
H342 H 0.53642 0.1443 0.39074 0.0
H343 H 0.42324 0.15864 0.37117 0.0
H344 H 0.76748 0.13409 0.48686 0.0
H345 H 0.83015 1.03191 0.38632 0.0
H346 H 0.55966 0.12857 0.51122 0.0
H347 H 0.55718 0.17066 0.48303 0.0
H348 H 0.63865 0.1531 0.52582 0.0
H349 H 0.69457 0.99384 0.38591 0.0
H350 H 0.70663 1.02062 0.34382 0.0
H351 H 0.60044 1.03595 0.3657 0.0
C352 C 1.0587 0.48233 0.12133 0.0
C353 C 1.05108 0.52253 0.11309 0.0
C354 C 0.13671 0.44725 0.11238 0.0
C355 C 0.20571 0.45333 0.09469 0.0
C356 C 0.20692 0.49449 0.10025 0.0
C357 C 0.12903 0.52886 0.10984 0.0
C358 C 0.13988 0.40386 0.11613 0.0
C359 C 0.28348 0.50343 0.08795 0.0
C360 C 0.38436 0.40852 0.02056 0.0
C361 C 0.33328 0.42642 -0.01557 0.0
C362 C 0.34306 0.40711 0.05698 0.0
C363 C 0.25014 0.42463 0.05672 0.0
C364 C 0.20227 0.43 0.01633 0.0
C365 C 0.24472 0.43109 0.98052 0.0
C366 C 0.39839 0.39234 0.09704 0.0
C367 C 0.10362 0.44291 0.01197 0.0
H368 H 1.00081 0.47732 0.12847 0.0
H369 H 0.12693 0.56001 0.10711 0.0
H370 H 1.08425 0.3985 0.09678 0.0
H371 H 0.20307 0.37878 0.10594 0.0
H372 H 0.13134 0.40155 0.15012 0.0
H373 H 0.27777 0.53608 0.0998 0.0
H374 H 0.3464 0.48151 0.1014 0.0
H375 H 0.28539 0.49966 0.05243 0.0
H376 H 0.45479 0.4009 0.02264 0.0
H377 H 0.2047 0.44217 0.95192 0.0
H378 H 0.3579 0.39467 0.12412 0.0
H379 H 0.44068 0.41072 0.10686 0.0
H380 H 0.44327 0.35901 0.08989 0.0
H381 H 1.08179 0.42453 0.03102 0.0
H382 H 1.08009 0.43827 0.97797 0.0
H383 H 1.07215 0.47678 0.02348 0.0
C384 C 0.23549 0.63051 0.42112 0.0
C385 C 0.30972 0.59896 0.43881 0.0
C386 C 0.14777 0.63107 0.42014 0.0
C387 C 0.12904 0.60059 0.4395 0.0
C388 C 0.20401 0.56922 0.45851 0.0
C389 C 0.29166 0.5682 0.45688 0.0
C390 C 1.07571 0.66489 0.39761 0.0
C391 C 0.19356 0.53624 0.48153 0.0
C392 C 0.87764 0.63437 0.46296 0.0
C393 C 0.85244 0.6026 0.43927 0.0
C394 C 0.96566 0.63362 0.46432 0.0
C395 C 1.03299 0.60136 0.43954 0.0
C396 C 1.00658 0.56989 0.41449 0.0
C397 C 0.9194 0.5703 0.41566 0.0
C398 C 0.98487 0.66801 0.49316 0.0
C399 C 1.06952 0.53522 0.38547 0.0
H400 H 0.24606 0.65472 0.40677 0.0
H401 H 0.34635 0.54357 0.47118 0.0
H402 H 1.01862 0.65606 0.38632 0.0
H403 H 1.05283 0.69423 0.42007 0.0
H404 H 1.10098 0.67204 0.36949 0.0
H405 H 0.23982 0.52978 0.51029 0.0
H406 H 0.12573 0.54545 0.49195 0.0
H407 H 0.21084 0.50638 0.45983 0.0
H408 H 0.8287 0.65969 0.48178 0.0
H409 H 0.9031 0.54536 0.3968 0.0
H410 H 0.96027 0.6969 0.47656 0.0
H411 H 1.05607 0.65953 0.50183 0.0
H412 H 0.94917 0.67583 0.52326 0.0
H413 H 1.03387 0.52669 0.35607 0.0
H414 H 1.10037 0.50673 0.4026 0.0
H415 H 0.12219 0.54396 0.37551 0.0
C416 C 1.05612 0.12279 0.2857 0.0
C417 C 1.07149 0.08459 0.30158 0.0
C418 C 1.05715 0.125 0.24142 0.0
C419 C 1.07136 0.08837 0.21195 0.0
C420 C 1.08476 1.04987 0.22773 0.0
C421 C 1.08617 1.04829 0.27237 0.0
C422 C 1.04397 0.16653 0.22623 0.0
C423 C 1.09717 1.01041 0.1974 0.0
C424 C 0.99401 0.10502 0.09488 0.0
C425 C 1.07315 0.09659 0.07562 0.0
C426 C 0.99267 0.10177 0.1389 0.0
C427 C 1.07225 0.09047 0.16471 0.0
C428 C 0.15234 0.08218 0.1455 0.0
C429 C 0.15189 0.08505 0.10124 0.0
C430 C 0.90599 0.11028 0.15775 0.0
C431 C 0.23857 1.07075 0.1718 0.0
H432 H 1.04547 0.1509 0.30809 0.0
H433 H 1.09742 1.01874 0.2844 0.0
H434 H 1.10157 0.16311 0.20846 0.0
H435 H 0.98529 0.17628 0.20363 0.0
H436 H 1.03513 0.19195 0.25324 0.0
H437 H 0.10472 0.98325 0.2146 0.0
H438 H 1.03983 1.01593 0.17397 0.0
H439 H 0.15633 1.00206 0.17875 0.0
H440 H 0.9328 0.11381 0.07544 0.0
H441 H 0.21338 1.07861 0.08678 0.0
H442 H 0.89356 0.13555 0.18501 0.0
H443 H 0.90851 0.08164 0.17065 0.0
H444 H 0.84977 0.11984 0.13366 0.0
H445 H 0.23534 0.09673 0.19745 0.0
H446 H 0.29521 1.06454 0.15194 0.0
H447 H 0.25083 1.04235 0.18785 0.0
C448 C 1.00558 0.10231 0.77653 0.0
C449 C 1.08247 0.09569 0.80312 0.0
C450 C 1.00709 0.1005 0.73152 0.0
C451 C 1.08777 0.09088 0.71228 0.0
C452 C 0.16574 0.08368 0.73894 0.0
C453 C 0.16199 0.08662 0.7839 0.0
C454 C 0.92206 0.10926 0.70455 0.0
C455 C 0.25347 1.07249 0.71991 0.0
C456 C 0.10337 1.04913 0.59281 0.0
C457 C 1.09582 0.08466 0.57364 0.0
C458 C 1.10181 1.05055 0.63775 0.0
C459 C 1.09057 0.08868 0.66437 0.0
C460 C 1.08222 0.12473 0.64512 0.0
C461 C 1.08581 0.12218 0.60019 0.0
C462 C 0.11259 1.01111 0.65675 0.0
C463 C 1.06847 0.16623 0.67199 0.0
H464 H 0.94372 0.10956 0.79097 0.0
H465 H 0.22198 0.08106 0.804 0.0
H466 H 0.91015 0.13587 0.6857 0.0
H467 H 0.9267 0.08143 0.68121 0.0
H468 H 0.8646 0.1171 0.72437 0.0
H469 H 0.30842 1.06671 0.74482 0.0
H470 H 0.26756 1.04386 0.69651 0.0
H471 H 0.25146 0.09829 0.70209 0.0
H472 H 0.11121 1.01996 0.57269 0.0
H473 H 1.07914 0.14994 0.58576 0.0
H474 H 1.05336 1.01642 0.67417 0.0
H475 H 0.16958 1.00317 0.68049 0.0
H476 H 0.12288 0.98374 0.63186 0.0
H477 H 1.00859 0.17612 0.69051 0.0
H478 H 1.06126 0.19157 0.65214 0.0
H479 H 0.1249 0.16276 0.69561 0.0
C480 C 0.61772 0.56346 0.27568 0.0
C481 C 0.55951 0.59751 0.30127 0.0
C482 C 0.61436 0.56261 0.23062 0.0
C483 C 0.55038 0.59632 0.21023 0.0
C484 C 0.48993 0.63024 0.23575 0.0
C485 C 0.49567 0.63061 0.28084 0.0
C486 C 0.6806 0.52599 0.20485 0.0
C487 C 0.41976 0.66647 0.21541 0.0
C488 C 0.59884 0.61863 0.1022 0.0
C489 C 0.55056 0.60028 0.07266 0.0
C490 C 0.59965 0.61724 0.14671 0.0
C491 C 0.55025 0.59734 0.16263 0.0
C492 C 0.50156 0.57855 0.13304 0.0
C493 C 0.50239 0.58018 0.08846 0.0
C494 C 0.65418 0.63686 0.17672 0.0
C495 C 0.4474 0.55724 0.14837 0.0
H496 H 0.66747 0.53771 0.29095 0.0
H497 H 0.44979 0.65691 0.3001 0.0
H498 H 0.64616 0.51118 0.17971 0.0
H499 H 0.72183 0.53736 0.18817 0.0
H500 H 0.72448 0.50162 0.22524 0.0
H501 H 0.37463 0.68926 0.23929 0.0
H502 H 0.45095 0.68338 0.19941 0.0
H503 H 0.3804 0.65446 0.19027 0.0
H504 H 0.63727 0.63384 0.09053 0.0
H505 H 0.46488 0.5659 0.06603 0.0
H506 H 0.70254 0.61295 0.19621 0.0
H507 H 0.61114 0.66227 0.1994 0.0
H508 H 0.69046 0.65032 0.15923 0.0
H509 H 0.4846 0.53677 0.17356 0.0
H510 H 0.42681 0.53786 0.12164 0.0
H511 H 0.38749 0.58153 0.1628 0.0
C512 C 0.61199 0.56751 0.59639 0.0
C513 C 0.60368 0.60311 0.57707 0.0
C514 C 0.6156 0.56825 0.64144 0.0
C515 C 0.61042 0.60555 0.66822 0.0
C516 C 0.60361 0.64137 0.64898 0.0
C517 C 0.60051 0.63971 0.6038 0.0
C518 C 0.62313 0.52925 0.66036 0.0
C519 C 0.59744 0.68186 0.67611 0.0
C520 C 0.52083 0.62006 0.77904 0.0
C521 C 0.59765 0.60857 0.80621 0.0
C522 C 0.5242 0.61987 0.7345 0.0
C523 C 0.60649 0.60778 0.71608 0.0
C524 C 0.68433 0.59687 0.74329 0.0
C525 C 0.67901 0.59748 0.78796 0.0
C526 C 0.43939 0.63199 0.707 0.0
C527 C 0.77343 0.58375 0.72506 0.0
H528 H 0.61496 0.53896 0.57627 0.0
H529 H 0.59422 0.66743 0.58942 0.0
H530 H 0.68004 0.5203 0.68408 0.0
H531 H 0.56319 0.53574 0.67775 0.0
H532 H 0.63131 0.50211 0.6354 0.0
H533 H 0.59735 0.70614 0.65651 0.0
H534 H 0.5361 0.69461 0.69389 0.0
H535 H 0.65341 0.67589 0.70038 0.0
H536 H 0.45736 0.62893 0.79251 0.0
H537 H 0.73884 0.58846 0.80843 0.0
H538 H 0.44004 0.60491 0.68336 0.0
H539 H 0.43304 0.65809 0.68851 0.0
H540 H 0.38052 0.64198 0.72635 0.0
H541 H 0.78642 0.5547 0.70236 0.0
H542 H 0.82739 0.57772 0.75051 0.0
H543 H 0.77456 0.60852 0.7066 0.0
loop_
_geom_bond_atom_site_label_1
_geom_bond_atom_site_label_2
_geom_bond_distance
_geom_bond_site_symmetry_2
_ccdc_geom_bond_type
Eu0 C9 2.828 . S
Eu0 O11 2.392 1_655 S
Eu0 O13 2.418 . S
Eu0 O18 2.373 1_565 S
Eu0 O21 2.488 . S
Eu0 O22 2.471 1_556 S
Eu0 O23 2.349 1_556 S
Eu1 O10 2.373 1_545 S
Eu1 O14 2.488 . S
Eu1 O15 2.471 1_554 S
Eu1 O16 2.349 1_554 S
Eu1 O19 2.392 1_455 S
Eu1 O20 2.418 . S
Eu1 C30 2.828 . S
C2 O20 1.244 . S
C2 O23 1.265 1_445 S
C3 C4 1.379 1_556 S
C3 C7 1.373 . S
C3 C9 1.505 1_545 S
C4 C3 1.379 1_554 S
C4 C6 1.369 . S
C4 H32 0.930 . S
C5 C7 1.383 . S
C5 C8 1.382 1_556 S
C5 H33 0.930 . S
C6 C4 1.369 . S
C6 C8 1.392 . S
C6 H34 0.930 . S
C7 C3 1.373 . S
C7 C5 1.383 . S
C7 H35 0.931 1_545 S
C8 C5 1.382 1_554 S
C8 C6 1.392 . S
C9 Eu0 2.828 . S
C9 C3 1.505 1_565 S
C9 O21 1.249 . S
C9 O22 1.244 1_556 S
O10 Eu1 2.373 1_565 S
O10 C12 1.258 . S
O11 Eu0 2.392 1_455 S
O11 C12 1.241 1_556 S
C12 O10 1.258 . S
C12 O11 1.241 1_554 S
O13 Eu0 2.418 . S
O13 C17 1.244 . S
O14 Eu1 2.488 . S
O14 C30 1.249 . S
O15 Eu1 2.471 1_556 S
O15 C30 1.244 1_556 S
O16 Eu1 2.349 1_556 S
O16 C17 1.265 1_445 S
C17 O13 1.244 . S
C17 O16 1.265 1_665 S
O18 Eu0 2.373 1_545 S
O18 C31 1.258 1_556 S
O19 Eu1 2.392 1_655 S
O19 C31 1.241 . S
O20 Eu1 2.418 . S
O20 C2 1.244 . S
O21 Eu0 2.488 . S
O21 C9 1.249 . S
O22 Eu0 2.471 1_554 S
O22 C9 1.244 1_554 S
O23 Eu0 2.349 1_554 S
O23 C2 1.265 1_665 S
C24 C25 1.379 1_554 S
C24 C28 1.380 . S
C24 C30 1.505 1_565 S
C25 C24 1.379 1_556 S
C25 C27 1.369 . S
C25 H36 0.930 . S
C26 C28 1.384 . S
C26 C29 1.382 1_554 S
C26 H37 0.930 . S
C27 C25 1.369 . S
C27 C29 1.392 . S
C27 H38 0.930 . S
C28 C24 1.380 . S
C28 C26 1.384 . S
C28 H39 0.923 1_565 S
C29 C26 1.382 1_556 S
C29 C27 1.392 . S
C30 Eu1 2.828 . S
C30 O14 1.249 . S
C30 O15 1.244 1_554 S
C30 C24 1.505 1_545 S
C31 O18 1.258 1_554 S
C31 O19 1.241 . S
H32 C4 0.930 . S
H33 C5 0.930 . S
H34 C6 0.930 . S
H35 C7 0.931 1_565 S
H36 C25 0.930 . S
H37 C26 0.930 . S
H38 C27 0.930 . S
H39 C28 0.923 1_545 S
Eu40 C49 2.828 1_455 S
Eu40 O51 2.392 . S
Eu40 O53 2.418 1_455 S
Eu40 O58 2.373 1_455 S
Eu40 O61 2.488 1_455 S
Eu40 O62 2.471 1_455 S
Eu40 O63 2.349 . S
Eu41 O50 2.373 1_655 S
Eu41 O54 2.488 1_655 S
Eu41 O55 2.471 1_655 S
Eu41 O56 2.349 . S
Eu41 O59 2.392 . S
Eu41 O60 2.418 1_655 S
Eu41 C70 2.828 1_655 S
C42 O60 1.241 . S
C42 O63 1.265 1_545 S
C43 C44 1.379 . S
C43 C47 1.373 . S
C43 C49 1.505 . S
C44 C43 1.379 . S
C44 C46 1.369 . S
C44 H72 0.930 . S
C45 C47 1.383 . S
C45 C48 1.382 . S
C45 H73 0.930 . S
C46 C44 1.369 . S
C46 C48 1.392 . S
C46 H74 0.930 . S
C47 C43 1.373 . S
C47 C45 1.383 . S
C47 H75 0.931 . S
C48 C45 1.382 . S
C48 C46 1.392 . S
C49 Eu40 2.828 1_655 S
C49 C43 1.505 . S
C49 O61 1.249 . S
C49 O62 1.244 . S
O50 Eu41 2.373 1_455 S
O50 C52 1.258 1_545 S
O51 Eu40 2.392 . S
O51 C52 1.242 . S
C52 O50 1.258 1_565 S
C52 O51 1.242 . S
O53 Eu40 2.418 1_655 S
O53 C57 1.241 . S
O54 Eu41 2.488 1_455 S
O54 C70 1.249 . S
O55 Eu41 2.471 1_455 S
O55 C70 1.244 . S
O56 Eu41 2.349 . S
O56 C57 1.265 1_545 S
C57 O53 1.241 . S
C57 O56 1.265 1_565 S
O58 Eu40 2.373 1_655 S
O58 C71 1.258 1_565 S
O59 Eu41 2.392 . S
O59 C71 1.242 . S
O60 Eu41 2.418 1_455 S
O60 C42 1.241 . S
O61 Eu40 2.488 1_655 S
O61 C49 1.249 . S
O62 Eu40 2.471 1_655 S
O62 C49 1.244 . S
O63 Eu40 2.349 . S
O63 C42 1.265 1_565 S
C64 C65 1.379 . S
C64 C68 1.373 . S
C64 C70 1.505 . S
C65 C64 1.379 . S
C65 C67 1.369 . S
C65 H76 0.930 . S
C66 C68 1.383 . S
C66 C69 1.382 . S
C66 H77 0.930 . S
C67 C65 1.369 . S
C67 C69 1.392 . S
C67 H78 0.930 . S
C68 C64 1.373 . S
C68 C66 1.383 . S
C68 H79 0.931 . S
C69 C66 1.382 . S
C69 C67 1.392 . S
C70 Eu41 2.828 1_455 S
C70 O54 1.249 . S
C70 O55 1.244 . S
C70 C64 1.505 . S
C71 O58 1.258 1_545 S
C71 O59 1.242 . S
H72 C44 0.930 . S
H73 C45 0.930 . S
H74 C46 0.930 . S
H75 C47 0.931 . S
H76 C65 0.930 . S
H77 C66 0.930 . S
H78 C67 0.930 . S
H79 C68 0.931 . S
Eu80 C89 2.828 . S
Eu80 O91 2.392 . S
Eu80 O93 2.418 . S
Eu80 O98 2.373 . S
Eu80 O101 2.488 . S
Eu80 O102 2.471 1_556 S
Eu80 O103 2.349 1_556 S
Eu81 O90 2.373 . S
Eu81 O94 2.488 . S
Eu81 O95 2.471 1_554 S
Eu81 O96 2.349 1_554 S
Eu81 O99 2.392 . S
Eu81 O100 2.418 . S
Eu81 C110 2.828 . S
C82 O100 1.244 . S
C82 O103 1.265 . S
C83 C84 1.379 1_556 S
C83 C87 1.373 . S
C83 C89 1.505 . S
C84 C83 1.379 1_554 S
C84 C86 1.369 . S
C84 H112 0.930 . S
C85 C87 1.383 . S
C85 C88 1.382 1_556 S
C85 H113 0.930 . S
C86 C84 1.369 . S
C86 C88 1.392 . S
C86 H114 0.930 . S
C87 C83 1.373 . S
C87 C85 1.383 . S
C87 H115 0.931 . S
C88 C85 1.382 1_554 S
C88 C86 1.392 . S
C89 Eu80 2.828 . S
C89 C83 1.505 . S
C89 O101 1.249 . S
C89 O102 1.244 1_556 S
O90 Eu81 2.373 . S
O90 C92 1.258 . S
O91 Eu80 2.392 . S
O91 C92 1.241 1_556 S
C92 O90 1.258 . S
C92 O91 1.241 1_554 S
O93 Eu80 2.418 . S
O93 C97 1.244 . S
O94 Eu81 2.488 . S
O94 C110 1.249 . S
O95 Eu81 2.471 1_556 S
O95 C110 1.244 1_556 S
O96 Eu81 2.349 1_556 S
O96 C97 1.265 . S
C97 O93 1.244 . S
C97 O96 1.265 . S
O98 Eu80 2.373 . S
O98 C111 1.258 1_556 S
O99 Eu81 2.392 . S
O99 C111 1.241 . S
O100 Eu81 2.418 . S
O100 C82 1.244 . S
O101 Eu80 2.488 . S
O101 C89 1.249 . S
O102 Eu80 2.471 1_554 S
O102 C89 1.244 1_554 S
O103 Eu80 2.349 1_554 S
O103 C82 1.265 . S
C104 C105 1.379 1_554 S
C104 C108 1.373 . S
C104 C110 1.505 . S
C105 C104 1.379 1_556 S
C105 C107 1.369 . S
C105 H116 0.930 . S
C106 C108 1.383 . S
C106 C109 1.382 1_554 S
C106 H117 0.930 . S
C107 C105 1.369 . S
C107 C109 1.392 . S
C107 H118 0.930 . S
C108 C104 1.373 . S
C108 C106 1.383 . S
C108 H119 0.931 . S
C109 C106 1.382 1_556 S
C109 C107 1.392 . S
C110 Eu81 2.828 . S
C110 O94 1.249 . S
C110 O95 1.244 1_554 S
C110 C104 1.505 . S
C111 O98 1.258 1_554 S
C111 O99 1.241 . S
H112 C84 0.930 . S
H113 C85 0.930 . S
H114 C86 0.930 . S
H115 C87 0.931 . S
H116 C105 0.930 . S
H117 C106 0.930 . S
H118 C107 0.930 . S
H119 C108 0.931 . S
Eu120 C129 2.828 . S
Eu120 O131 2.392 . S
Eu120 O133 2.418 . S
Eu120 O138 2.373 . S
Eu120 O141 2.488 . S
Eu120 O142 2.471 . S
Eu120 O143 2.349 . S
Eu121 O130 2.373 . S
Eu121 O134 2.488 . S
Eu121 O135 2.471 . S
Eu121 O136 2.349 . S
Eu121 O139 2.392 . S
Eu121 O140 2.418 . S
Eu121 C150 2.828 . S
C122 O140 1.244 . S
C122 O143 1.265 . S
C123 C124 1.379 . S
C123 C127 1.373 . S
C123 C129 1.505 . S
C124 C123 1.379 . S
C124 C126 1.369 . S
C124 H152 0.930 . S
C125 C127 1.383 . S
C125 C128 1.382 . S
C125 H153 0.930 . S
C126 C124 1.369 . S
C126 C128 1.392 . S
C126 H154 0.930 . S
C127 C123 1.373 . S
C127 C125 1.383 . S
C127 H155 0.931 . S
C128 C125 1.382 . S
C128 C126 1.392 . S
C129 Eu120 2.828 . S
C129 C123 1.505 . S
C129 O141 1.249 . S
C129 O142 1.244 . S
O130 Eu121 2.373 . S
O130 C132 1.258 . S
O131 Eu120 2.392 . S
O131 C132 1.242 . S
C132 O130 1.258 . S
C132 O131 1.242 . S
O133 Eu120 2.418 . S
O133 C137 1.244 . S
O134 Eu121 2.488 . S
O134 C150 1.249 . S
O135 Eu121 2.471 . S
O135 C150 1.244 . S
O136 Eu121 2.349 . S
O136 C137 1.265 . S
C137 O133 1.244 . S
C137 O136 1.265 . S
O138 Eu120 2.373 . S
O138 C151 1.258 . S
O139 Eu121 2.392 . S
O139 C151 1.242 . S
O140 Eu121 2.418 . S
O140 C122 1.244 . S
O141 Eu120 2.488 . S
O141 C129 1.249 . S
O142 Eu120 2.471 . S
O142 C129 1.244 . S
O143 Eu120 2.349 . S
O143 C122 1.265 . S
C144 C145 1.379 . S
C144 C148 1.373 . S
C144 C150 1.505 . S
C145 C144 1.379 . S
C145 C147 1.369 . S
C145 H156 0.930 . S
C146 C148 1.383 . S
C146 C149 1.382 . S
C146 H157 0.930 . S
C147 C145 1.369 . S
C147 C149 1.392 . S
C147 H158 0.930 . S
C148 C144 1.373 . S
C148 C146 1.383 . S
C148 H159 0.931 . S
C149 C146 1.382 . S
C149 C147 1.392 . S
C150 Eu121 2.828 . S
C150 O134 1.249 . S
C150 O135 1.244 . S
C150 C144 1.505 . S
C151 O138 1.258 . S
C151 O139 1.242 . S
H152 C124 0.930 . S
H153 C125 0.930 . S
H154 C126 0.930 . S
H155 C127 0.931 . S
H156 C145 0.930 . S
H157 C146 0.930 . S
H158 C147 0.930 . S
H159 C148 0.931 . S
C160 C161 1.391 1_556 S
C160 C162 1.394 . S
C160 H176 0.931 . S
C161 C160 1.391 1_554 S
C161 C165 1.376 . S
C162 C160 1.394 . S
C162 C163 1.369 1_556 S
C162 C166 1.531 . S
C163 C162 1.369 1_554 S
C163 C164 1.410 . S
C163 C171 1.503 . S
C164 C163 1.410 . S
C164 C165 1.392 . S
C164 C167 1.511 . S
C165 C161 1.376 . S
C165 C164 1.392 . S
C165 H177 0.929 . S
C166 C162 1.531 . S
C166 H178 0.960 . S
C166 H179 0.962 . S
C166 H180 0.960 . S
C167 C164 1.511 . S
C167 H181 0.961 . S
C167 H182 0.961 . S
C167 H183 0.961 . S
C168 C169 1.370 1_556 S
C168 C170 1.363 . S
C168 H184 0.931 . S
C169 C168 1.370 1_554 S
C169 C173 1.408 . S
C170 C168 1.363 . S
C170 C171 1.370 1_556 S
C170 C174 1.524 . S
C171 C163 1.503 . S
C171 C170 1.370 1_554 S
C171 C172 1.403 . S
C172 C171 1.403 . S
C172 C173 1.404 . S
C172 C175 1.539 . S
C173 C169 1.408 . S
C173 C172 1.404 . S
C173 H185 0.930 . S
C174 C170 1.524 . S
C174 H186 0.956 . S
C174 H187 0.961 . S
C174 H188 0.961 . S
C175 C172 1.539 . S
C175 H189 0.958 . S
C175 H190 0.961 . S
C175 H191 0.960 . S
H176 C160 0.931 . S
H177 C165 0.929 . S
H178 C166 0.960 . S
H179 C166 0.962 . S
H180 C166 0.960 . S
H181 C167 0.961 . S
H182 C167 0.961 . S
H183 C167 0.961 . S
H184 C168 0.931 . S
H185 C173 0.930 . S
H186 C174 0.956 . S
H187 C174 0.961 . S
H188 C174 0.961 . S
H189 C175 0.958 . S
H190 C175 0.961 . S
H191 C175 0.960 . S
C192 C193 1.391 . S
C192 C194 1.394 . S
C192 H208 0.931 . S
C193 C192 1.391 . S
C193 C197 1.376 1_556 S
C194 C192 1.394 . S
C194 C195 1.369 . S
C194 C198 1.531 . S
C195 C194 1.369 . S
C195 C196 1.410 1_556 S
C195 C203 1.503 . S
C196 C195 1.410 1_554 S
C196 C197 1.392 . S
C196 C199 1.511 . S
C197 C193 1.376 1_554 S
C197 C196 1.392 . S
C197 H209 0.929 . S
C198 C194 1.531 . S
C198 H210 0.960 . S
C198 H211 0.962 . S
C198 H212 0.960 . S
C199 C196 1.511 . S
C199 H213 0.961 . S
C199 H214 0.961 . S
C199 H215 0.961 . S
C200 C201 1.362 1_554 S
C200 C202 1.363 . S
C200 H216 0.931 . S
C201 C200 1.362 1_556 S
C201 C205 1.419 . S
C202 C200 1.363 . S
C202 C203 1.370 1_554 S
C202 C206 1.524 . S
C203 C195 1.503 . S
C203 C202 1.370 1_556 S
C203 C204 1.403 . S
C204 C203 1.403 . S
C204 C205 1.404 . S
C204 C207 1.539 . S
C205 C201 1.419 . S
C205 C204 1.404 . S
C205 H217 0.930 . S
C206 C202 1.524 . S
C206 H218 0.956 . S
C206 H219 0.961 . S
C206 H220 0.961 . S
C207 C204 1.539 . S
C207 H221 0.958 . S
C207 H222 0.961 . S
C207 H223 0.960 . S
H208 C192 0.931 . S
H209 C197 0.929 . S
H210 C198 0.960 . S
H211 C198 0.962 . S
H212 C198 0.960 . S
H213 C199 0.961 . S
H214 C199 0.961 . S
H215 C199 0.961 . S
H216 C200 0.931 . S
H217 C205 0.930 . S
H218 C206 0.956 . S
H219 C206 0.961 . S
H220 C206 0.961 . S
H221 C207 0.958 . S
H222 C207 0.961 . S
H223 C207 0.960 . S
C224 C225 1.391 . S
C224 C226 1.394 . S
C224 H240 0.931 . S
C225 C224 1.391 . S
C225 C229 1.376 . S
C226 C224 1.394 . S
C226 C227 1.369 . S
C226 C230 1.531 . S
C227 C226 1.369 . S
C227 C228 1.410 . S
C227 C235 1.503 . S
C228 C227 1.410 . S
C228 C229 1.392 . S
C228 C231 1.511 . S
C229 C225 1.376 . S
C229 C228 1.392 . S
C229 H241 0.929 . S
C230 C226 1.531 . S
C230 H242 0.960 . S
C230 H243 0.962 . S
C230 H244 0.960 . S
C231 C228 1.511 . S
C231 H245 0.961 . S
C231 H246 0.961 . S
C231 H247 0.961 . S
C232 C233 1.370 . S
C232 C234 1.363 . S
C232 H248 0.931 . S
C233 C232 1.370 . S
C233 C237 1.408 . S
C234 C232 1.363 . S
C234 C235 1.370 . S
C234 C238 1.524 . S
C235 C227 1.503 . S
C235 C234 1.370 . S
C235 C236 1.403 . S
C236 C235 1.403 . S
C236 C237 1.404 . S
C236 C239 1.539 . S
C237 C233 1.408 . S
C237 C236 1.404 . S
C237 H249 0.930 . S
C238 C234 1.524 . S
C238 H250 0.956 . S
C238 H251 0.961 . S
C238 H252 0.961 . S
C239 C236 1.539 . S
C239 H253 0.958 . S
C239 H254 0.961 . S
C239 H255 0.960 . S
H240 C224 0.931 . S
H241 C229 0.929 . S
H242 C230 0.960 . S
H243 C230 0.962 . S
H244 C230 0.960 . S
H245 C231 0.961 . S
H246 C231 0.961 . S
H247 C231 0.961 . S
H248 C232 0.931 . S
H249 C237 0.930 . S
H250 C238 0.956 . S
H251 C238 0.961 . S
H252 C238 0.961 . S
H253 C239 0.958 . S
H254 C239 0.961 . S
H255 C239 0.960 . S
C256 C257 1.391 . S
C256 C258 1.394 . S
C256 H272 0.931 . S
C257 C256 1.391 . S
C257 C261 1.376 . S
C258 C256 1.394 . S
C258 C259 1.369 . S
C258 C262 1.531 . S
C259 C258 1.369 . S
C259 C260 1.410 . S
C259 C267 1.503 . S
C260 C259 1.410 . S
C260 C261 1.392 . S
C260 C263 1.511 . S
C261 C257 1.376 . S
C261 C260 1.392 . S
C261 H273 0.929 . S
C262 C258 1.531 . S
C262 H274 0.960 . S
C262 H275 0.962 . S
C262 H276 0.960 . S
C263 C260 1.511 . S
C263 H277 0.961 . S
C263 H278 0.961 . S
C263 H279 0.961 . S
C264 C265 1.370 . S
C264 C266 1.363 . S
C264 H280 0.931 . S
C265 C264 1.370 . S
C265 C269 1.408 . S
C266 C264 1.363 . S
C266 C267 1.370 . S
C266 C270 1.524 . S
C267 C259 1.503 . S
C267 C266 1.370 . S
C267 C268 1.403 . S
C268 C267 1.403 . S
C268 C269 1.404 . S
C268 C271 1.539 . S
C269 C265 1.408 . S
C269 C268 1.404 . S
C269 H281 0.930 . S
C270 C266 1.524 . S
C270 H282 0.956 . S
C270 H283 0.961 . S
C270 H284 0.961 . S
C271 C268 1.539 . S
C271 H285 0.958 . S
C271 H286 0.961 . S
C271 H287 0.960 . S
H272 C256 0.931 . S
H273 C261 0.929 . S
H274 C262 0.960 . S
H275 C262 0.962 . S
H276 C262 0.960 . S
H277 C263 0.961 . S
H278 C263 0.961 . S
H279 C263 0.961 . S
H280 C264 0.931 . S
H281 C269 0.930 . S
H282 C270 0.956 . S
H283 C270 0.961 . S
H284 C270 0.961 . S
H285 C271 0.958 . S
H286 C271 0.961 . S
H287 C271 0.960 . S
C288 C289 1.391 1_554 S
C288 C290 1.394 . S
C288 H304 0.931 . S
C289 C288 1.391 1_556 S
C289 C293 1.376 . S
C290 C288 1.394 . S
C290 C291 1.369 . S
C290 C294 1.531 1_565 S
C291 C290 1.369 . S
C291 C292 1.410 1_554 S
C291 C299 1.503 1_565 S
C292 C291 1.410 1_556 S
C292 C293 1.392 . S
C292 C295 1.511 . S
C293 C289 1.376 . S
C293 C292 1.392 . S
C293 H305 0.929 . S
C294 C290 1.531 1_545 S
C294 H306 0.960 . S
C294 H307 0.962 . S
C294 H308 0.960 . S
C295 C292 1.511 . S
C295 H309 0.961 . S
C295 H310 0.961 . S
C295 H311 0.961 . S
C296 C297 1.370 1_556 S
C296 C298 1.363 . S
C296 H312 0.931 . S
C297 C296 1.370 1_554 S
C297 C301 1.408 . S
C298 C296 1.363 . S
C298 C299 1.370 1_556 S
C298 C302 1.524 . S
C299 C291 1.503 1_545 S
C299 C298 1.370 1_554 S
C299 C300 1.403 . S
C300 C299 1.403 . S
C300 C301 1.415 . S
C300 C303 1.528 1_545 S
C301 C297 1.408 . S
C301 C300 1.415 . S
C301 H313 0.930 . S
C302 C298 1.524 . S
C302 H314 0.956 . S
C302 H315 0.961 . S
C302 H316 0.961 . S
C303 C300 1.528 1_565 S
C303 H317 0.958 . S
C303 H318 0.961 . S
C303 H319 0.960 . S
H304 C288 0.931 . S
H305 C293 0.929 . S
H306 C294 0.960 . S
H307 C294 0.962 . S
H308 C294 0.960 . S
H309 C295 0.961 . S
H310 C295 0.961 . S
H311 C295 0.961 . S
H312 C296 0.931 . S
H313 C301 0.930 . S
H314 C302 0.956 . S
H315 C302 0.961 . S
H316 C302 0.961 . S
H317 C303 0.958 . S
H318 C303 0.961 . S
H319 C303 0.960 . S
C320 C321 1.391 . S
C320 C322 1.394 . S
C320 H336 0.931 . S
C321 C320 1.391 . S
C321 C325 1.376 1_565 S
C322 C320 1.394 . S
C322 C323 1.369 . S
C322 C326 1.531 . S
C323 C322 1.369 . S
C323 C324 1.410 1_565 S
C323 C331 1.503 . S
C324 C323 1.410 1_545 S
C324 C325 1.392 . S
C324 C327 1.511 . S
C325 C321 1.376 1_545 S
C325 C324 1.392 . S
C325 H337 0.929 . S
C326 C322 1.531 . S
C326 H338 0.960 . S
C326 H339 0.962 . S
C326 H340 0.960 . S
C327 C324 1.511 . S
C327 H341 0.961 . S
C327 H342 0.961 . S
C327 H343 0.961 . S
C328 C329 1.370 . S
C328 C330 1.363 . S
C328 H344 0.931 . S
C329 C328 1.370 . S
C329 C333 1.408 1_545 S
C330 C328 1.363 . S
C330 C331 1.370 1_545 S
C330 C334 1.524 . S
C331 C323 1.503 . S
C331 C330 1.370 1_565 S
C331 C332 1.403 . S
C332 C331 1.403 . S
C332 C333 1.404 . S
C332 C335 1.539 . S
C333 C329 1.408 1_565 S
C333 C332 1.404 . S
C333 H345 0.930 . S
C334 C330 1.524 . S
C334 H346 0.960 . S
C334 H347 0.961 . S
C334 H348 0.961 . S
C335 C332 1.539 . S
C335 H349 0.958 . S
C335 H350 0.961 . S
C335 H351 0.960 . S
H336 C320 0.931 . S
H337 C325 0.929 . S
H338 C326 0.960 . S
H339 C326 0.962 . S
H340 C326 0.960 . S
H341 C327 0.961 . S
H342 C327 0.961 . S
H343 C327 0.961 . S
H344 C328 0.931 . S
H345 C333 0.930 . S
H346 C334 0.960 . S
H347 C334 0.961 . S
H348 C334 0.961 . S
H349 C335 0.958 . S
H350 C335 0.961 . S
H351 C335 0.960 . S
C352 C353 1.391 . S
C352 C354 1.394 . S
C352 H368 0.931 . S
C353 C352 1.391 . S
C353 C357 1.376 1_556 S
C354 C352 1.394 . S
C354 C355 1.369 . S
C354 C358 1.531 1_655 S
C355 C354 1.369 . S
C355 C356 1.410 1_556 S
C355 C363 1.503 1_655 S
C356 C355 1.410 1_554 S
C356 C357 1.392 . S
C356 C359 1.511 . S
C357 C353 1.376 1_554 S
C357 C356 1.392 . S
C357 H369 0.929 . S
C358 C354 1.531 1_455 S
C358 H370 0.960 . S
C358 H371 0.962 . S
C358 H372 0.964 . S
C359 C356 1.511 . S
C359 H373 0.961 . S
C359 H374 0.961 . S
C359 H375 0.961 . S
C360 C361 1.370 . S
C360 C362 1.363 . S
C360 H376 0.931 . S
C361 C360 1.370 . S
C361 C365 1.408 1_554 S
C362 C360 1.363 . S
C362 C363 1.370 1_554 S
C362 C366 1.524 . S
C363 C355 1.503 1_455 S
C363 C362 1.370 1_556 S
C363 C364 1.403 . S
C364 C363 1.403 . S
C364 C365 1.404 . S
C364 C367 1.539 1_455 S
C365 C361 1.408 1_556 S
C365 C364 1.404 . S
C365 H377 0.930 . S
C366 C362 1.524 . S
C366 H378 0.956 . S
C366 H379 0.961 . S
C366 H380 0.961 . S
C367 C364 1.539 1_655 S
C367 H381 0.958 . S
C367 H382 0.961 . S
C367 H383 0.960 . S
H368 C352 0.931 . S
H369 C357 0.929 . S
H370 C358 0.960 . S
H371 C358 0.962 . S
H372 C358 0.964 . S
H373 C359 0.961 . S
H374 C359 0.961 . S
H375 C359 0.961 . S
H376 C360 0.931 . S
H377 C365 0.930 . S
H378 C366 0.956 . S
H379 C366 0.961 . S
H380 C366 0.961 . S
H381 C367 0.958 . S
H382 C367 0.961 . S
H383 C367 0.960 . S
C384 C385 1.391 . S
C384 C386 1.394 . S
C384 H400 0.931 . S
C385 C384 1.391 . S
C385 C389 1.376 . S
C386 C384 1.394 . S
C386 C387 1.369 . S
C386 C390 1.531 1_455 S
C387 C386 1.369 . S
C387 C388 1.410 . S
C387 C395 1.503 1_455 S
C388 C387 1.410 . S
C388 C389 1.392 . S
C388 C391 1.511 . S
C389 C385 1.376 . S
C389 C388 1.392 . S
C389 H401 0.929 . S
C390 C386 1.531 1_655 S
C390 H402 0.960 . S
C390 H403 0.962 . S
C390 H404 0.960 1_655 S
C391 C388 1.511 . S
C391 H405 0.961 . S
C391 H406 0.961 . S
C391 H407 0.961 . S
C392 C393 1.370 . S
C392 C394 1.363 . S
C392 H408 0.931 . S
C393 C392 1.370 . S
C393 C397 1.408 . S
C394 C392 1.363 . S
C394 C395 1.370 . S
C394 C398 1.524 . S
C395 C387 1.503 1_655 S
C395 C394 1.370 . S
C395 C396 1.403 . S
C396 C395 1.403 . S
C396 C397 1.404 . S
C396 C399 1.539 . S
C397 C393 1.408 . S
C397 C396 1.404 . S
C397 H409 0.930 . S
C398 C394 1.524 . S
C398 H410 0.956 . S
C398 H411 0.961 1_655 S
C398 H412 0.961 . S
C399 C396 1.539 . S
C399 H413 0.958 . S
C399 H414 0.961 . S
C399 H415 0.960 . S
H400 C384 0.931 . S
H401 C389 0.929 . S
H402 C390 0.960 . S
H403 C390 0.962 . S
H404 C390 0.960 1_455 S
H405 C391 0.961 . S
H406 C391 0.961 . S
H407 C391 0.961 . S
H408 C392 0.931 . S
H409 C397 0.930 . S
H410 C398 0.956 . S
H411 C398 0.961 1_455 S
H412 C398 0.961 . S
H413 C399 0.958 . S
H414 C399 0.961 . S
H415 C399 0.960 . S
C416 C417 1.391 . S
C416 C418 1.394 . S
C416 H432 0.931 . S
C417 C416 1.391 . S
C417 C421 1.376 1_645 S
C418 C416 1.394 . S
C418 C419 1.369 1_655 S
C418 C422 1.531 . S
C419 C418 1.369 1_455 S
C419 C420 1.410 1_545 S
C419 C427 1.503 . S
C420 C419 1.410 1_565 S
C420 C421 1.392 . S
C420 C423 1.511 . S
C421 C417 1.376 1_465 S
C421 C420 1.392 . S
C421 H433 0.929 . S
C422 C418 1.531 . S
C422 H434 0.960 . S
C422 H435 0.962 . S
C422 H436 0.960 . S
C423 C420 1.511 . S
C423 H437 0.961 . S
C423 H438 0.961 . S
C423 H439 0.961 . S
C424 C425 1.362 1_565 S
C424 C426 1.363 . S
C424 H440 0.931 . S
C425 C424 1.362 1_545 S
C425 C429 1.416 1_655 S
C426 C424 1.363 . S
C426 C427 1.370 1_665 S
C426 C430 1.524 . S
C427 C419 1.503 . S
C427 C426 1.370 1_445 S
C427 C428 1.403 . S
C428 C427 1.403 . S
C428 C429 1.404 . S
C428 C431 1.539 . S
C429 C425 1.416 1_455 S
C429 C428 1.404 . S
C429 H441 0.930 . S
C430 C426 1.524 . S
C430 H442 0.956 1_565 S
C430 H443 0.961 . S
C430 H444 0.961 . S
C431 C428 1.539 . S
C431 H445 0.958 . S
C431 H446 0.961 . S
C431 H447 0.960 . S
H432 C416 0.931 . S
H433 C421 0.929 . S
H434 C422 0.960 . S
H435 C422 0.962 . S
H436 C422 0.960 . S
H437 C423 0.961 . S
H438 C423 0.961 . S
H439 C423 0.961 . S
H440 C424 0.931 . S
H441 C429 0.930 . S
H442 C430 0.956 1_545 S
H443 C430 0.961 . S
H444 C430 0.961 . S
H445 C431 0.958 . S
H446 C431 0.961 . S
H447 C431 0.960 . S
C448 C449 1.391 1_655 S
C448 C450 1.394 . S
C448 H464 0.931 . S
C449 C448 1.391 1_455 S
C449 C453 1.376 . S
C450 C448 1.394 . S
C450 C451 1.369 1_655 S
C450 C454 1.531 . S
C451 C450 1.369 1_455 S
C451 C452 1.410 . S
C451 C459 1.503 . S
C452 C451 1.410 . S
C452 C453 1.392 . S
C452 C455 1.511 . S
C453 C449 1.376 . S
C453 C452 1.392 . S
C453 H465 0.929 . S
C454 C450 1.531 . S
C454 H466 0.960 . S
C454 H467 0.962 1_545 S
C454 H468 0.960 . S
C455 C452 1.511 . S
C455 H469 0.961 1_545 S
C455 H470 0.961 1_545 S
C455 H471 0.961 . S
C456 C457 1.371 . S
C456 C458 1.363 . S
C456 H472 0.931 . S
C457 C456 1.371 . S
C457 C461 1.407 1_465 S
C458 C456 1.363 . S
C458 C459 1.370 1_565 S
C458 C462 1.524 . S
C459 C451 1.503 . S
C459 C458 1.370 1_545 S
C459 C460 1.403 1_455 S
C460 C459 1.403 1_655 S
C460 C461 1.404 . S
C460 C463 1.539 . S
C461 C457 1.407 1_645 S
C461 C460 1.404 . S
C461 H473 0.930 . S
C462 C458 1.524 . S
C462 H474 0.956 1_455 S
C462 H475 0.961 . S
C462 H476 0.961 . S
C463 C460 1.539 . S
C463 H477 0.958 . S
C463 H478 0.961 . S
C463 H479 0.960 . S
H464 C448 0.931 . S
H465 C453 0.929 . S
H466 C454 0.960 . S
H467 C454 0.962 1_565 S
H468 C454 0.960 . S
H469 C455 0.961 1_565 S
H470 C455 0.961 1_565 S
H471 C455 0.961 . S
H472 C456 0.931 . S
H473 C461 0.930 . S
H474 C462 0.956 1_655 S
H475 C462 0.961 . S
H476 C462 0.961 . S
H477 C463 0.958 . S
H478 C463 0.961 . S
H479 C463 0.960 . S
C480 C481 1.391 . S
C480 C482 1.394 . S
C480 H496 0.931 . S
C481 C480 1.391 . S
C481 C485 1.376 . S
C482 C480 1.394 . S
C482 C483 1.369 . S
C482 C486 1.531 . S
C483 C482 1.369 . S
C483 C484 1.410 . S
C483 C491 1.503 . S
C484 C483 1.410 . S
C484 C485 1.392 . S
C484 C487 1.511 . S
C485 C481 1.376 . S
C485 C484 1.392 . S
C485 H497 0.929 . S
C486 C482 1.531 . S
C486 H498 0.960 . S
C486 H499 0.962 . S
C486 H500 0.960 . S
C487 C484 1.511 . S
C487 H501 0.961 . S
C487 H502 0.961 . S
C487 H503 0.961 . S
C488 C489 1.370 . S
C488 C490 1.363 . S
C488 H504 0.931 . S
C489 C488 1.370 . S
C489 C493 1.408 . S
C490 C488 1.363 . S
C490 C491 1.370 . S
C490 C494 1.524 . S
C491 C483 1.503 . S
C491 C490 1.370 . S
C491 C492 1.403 . S
C492 C491 1.403 . S
C492 C493 1.404 . S
C492 C495 1.539 . S
C493 C489 1.408 . S
C493 C492 1.404 . S
C493 H505 0.930 . S
C494 C490 1.524 . S
C494 H506 0.956 . S
C494 H507 0.961 . S
C494 H508 0.961 . S
C495 C492 1.539 . S
C495 H509 0.958 . S
C495 H510 0.961 . S
C495 H511 0.960 . S
H496 C480 0.931 . S
H497 C485 0.929 . S
H498 C486 0.960 . S
H499 C486 0.962 . S
H500 C486 0.960 . S
H501 C487 0.961 . S
H502 C487 0.961 . S
H503 C487 0.961 . S
H504 C488 0.931 . S
H505 C493 0.930 . S
H506 C494 0.956 . S
H507 C494 0.961 . S
H508 C494 0.961 . S
H509 C495 0.958 . S
H510 C495 0.961 . S
H511 C495 0.960 . S
C512 C513 1.391 . S
C512 C514 1.394 . S
C512 H528 0.931 . S
C513 C512 1.391 . S
C513 C517 1.376 . S
C514 C512 1.394 . S
C514 C515 1.369 . S
C514 C518 1.531 . S
C515 C514 1.369 . S
C515 C516 1.410 . S
C515 C523 1.503 . S
C516 C515 1.410 . S
C516 C517 1.392 . S
C516 C519 1.511 . S
C517 C513 1.376 . S
C517 C516 1.392 . S
C517 H529 0.929 . S
C518 C514 1.531 . S
C518 H530 0.960 . S
C518 H531 0.962 . S
C518 H532 0.960 . S
C519 C516 1.511 . S
C519 H533 0.961 . S
C519 H534 0.961 . S
C519 H535 0.961 . S
C520 C521 1.370 . S
C520 C522 1.363 . S
C520 H536 0.931 . S
C521 C520 1.370 . S
C521 C525 1.408 . S
C522 C520 1.363 . S
C522 C523 1.370 . S
C522 C526 1.524 . S
C523 C515 1.503 . S
C523 C522 1.370 . S
C523 C524 1.403 . S
C524 C523 1.403 . S
C524 C525 1.404 . S
C524 C527 1.539 . S
C525 C521 1.408 . S
C525 C524 1.404 . S
C525 H537 0.930 . S
C526 C522 1.524 . S
C526 H538 0.956 . S
C526 H539 0.961 . S
C526 H540 0.961 . S
C527 C524 1.539 . S
C527 H541 0.958 . S
C527 H542 0.961 . S
C527 H543 0.960 . S
H528 C512 0.931 . S
H529 C517 0.929 . S
H530 C518 0.960 . S
H531 C518 0.962 . S
H532 C518 0.960 . S
H533 C519 0.961 . S
H534 C519 0.961 . S
H535 C519 0.961 . S
H536 C520 0.931 . S
H537 C525 0.930 . S
H538 C526 0.956 . S
H539 C526 0.961 . S
H540 C526 0.961 . S
H541 C527 0.958 . S
H542 C527 0.961 . S
H543 C527 0.960 . S
C161 C111 3.573 . S
C169 C12 3.572 . S
C193 C92 3.573 1_556 S
C201 C31 3.571 1_556 S
C225 C69 0.149 . S
C233 C128 0.234 . S
C257 C48 0.256 . S
C265 C149 0.188 . S
C289 C29 1.105 . S
C297 C8 1.022 . S
C321 C52 4.808 . S
C329 C71 4.816 . S
C353 C109 1.005 . S
C361 C88 1.071 . S
C385 C151 4.811 . S
C393 C132 4.815 . S
C417 C57 1.469 1_545 S
C425 C2 1.456 1_655 S
C449 C17 1.471 1_445 S
C457 C42 1.454 1_565 S
C481 C137 1.436 . S
C489 C82 1.472 . S
C513 C122 1.450 . S
C521 C97 1.476 . S
