# Generated by pormake.
# Topology smn, (6)-cn, num edge types: 1
# Building blocks:
#     Node 0, Type 0, BuildingBlock: VOLQOD_clean_sbu_1, # of connection points: 6
#     Node 1, Type 0, BuildingBlock: VOLQOD_clean_sbu_1, # of connection points: 6
#     Node 2, Type 0, BuildingBlock: VOLQOD_clean_sbu_1, # of connection points: 6
#     Node 3, Type 0, BuildingBlock: VOLQOD_clean_sbu_1, # of connection points: 6
#     Node 4, Type 0, BuildingBlock: VOLQOD_clean_sbu_1, # of connection points: 6
#     Node 5, Type 0, BuildingBlock: VOLQOD_clean_sbu_1, # of connection points: 6
#     Node 6, Type 0, BuildingBlock: VOLQOD_clean_sbu_1, # of connection points: 6
#     Node 7, Type 0, BuildingBlock: VOLQOD_clean_sbu_1, # of connection points: 6
#     Node 8, Type 0, BuildingBlock: VOLQOD_clean_sbu_1, # of connection points: 6
#     Node 9, Type 0, BuildingBlock: VOLQOD_clean_sbu_1, # of connection points: 6
#     Node 10, Type 0, BuildingBlock: VOLQOD_clean_sbu_1, # of connection points: 6
#     Node 11, Type 0, BuildingBlock: VOLQOD_clean_sbu_1, # of connection points: 6
#     Node 12, Type 0, BuildingBlock: VOLQOD_clean_sbu_1, # of connection points: 6
#     Node 13, Type 0, BuildingBlock: VOLQOD_clean_sbu_1, # of connection points: 6
#     Node 14, Type 0, BuildingBlock: VOLQOD_clean_sbu_1, # of connection points: 6
#     Node 15, Type 0, BuildingBlock: VOLQOD_clean_sbu_1, # of connection points: 6
#     Node 16, Type 0, BuildingBlock: VOLQOD_clean_sbu_1, # of connection points: 6
#     Node 17, Type 0, BuildingBlock: VOLQOD_clean_sbu_1, # of connection points: 6
#     Edge 18, Type (0, 0), BuildingBlock: EZIPEK_clean_linker_0, # of connection points: 2
#     Edge 19, Type (0, 0), BuildingBlock: EZIPEK_clean_linker_0, # of connection points: 2
#     Edge 20, Type (0, 0), BuildingBlock: EZIPEK_clean_linker_0, # of connection points: 2
#     Edge 21, Type (0, 0), BuildingBlock: EZIPEK_clean_linker_0, # of connection points: 2
#     Edge 22, Type (0, 0), BuildingBlock: EZIPEK_clean_linker_0, # of connection points: 2
#     Edge 23, Type (0, 0), BuildingBlock: EZIPEK_clean_linker_0, # of connection points: 2
#     Edge 24, Type (0, 0), BuildingBlock: EZIPEK_clean_linker_0, # of connection points: 2
#     Edge 25, Type (0, 0), BuildingBlock: EZIPEK_clean_linker_0, # of connection points: 2
#     Edge 26, Type (0, 0), BuildingBlock: EZIPEK_clean_linker_0, # of connection points: 2
#     Edge 27, Type (0, 0), BuildingBlock: EZIPEK_clean_linker_0, # of connection points: 2
#     Edge 28, Type (0, 0), BuildingBlock: EZIPEK_clean_linker_0, # of connection points: 2
#     Edge 29, Type (0, 0), BuildingBlock: EZIPEK_clean_linker_0, # of connection points: 2
#     Edge 30, Type (0, 0), BuildingBlock: EZIPEK_clean_linker_0, # of connection points: 2
#     Edge 31, Type (0, 0), BuildingBlock: EZIPEK_clean_linker_0, # of connection points: 2
#     Edge 32, Type (0, 0), BuildingBlock: EZIPEK_clean_linker_0, # of connection points: 2
#     Edge 33, Type (0, 0), BuildingBlock: EZIPEK_clean_linker_0, # of connection points: 2
#     Edge 34, Type (0, 0), BuildingBlock: EZIPEK_clean_linker_0, # of connection points: 2
#     Edge 35, Type (0, 0), BuildingBlock: EZIPEK_clean_linker_0, # of connection points: 2
#     Edge 36, Type (0, 0), BuildingBlock: EZIPEK_clean_linker_0, # of connection points: 2
#     Edge 37, Type (0, 0), BuildingBlock: EZIPEK_clean_linker_0, # of connection points: 2
#     Edge 38, Type (0, 0), BuildingBlock: EZIPEK_clean_linker_0, # of connection points: 2
#     Edge 39, Type (0, 0), BuildingBlock: EZIPEK_clean_linker_0, # of connection points: 2
#     Edge 40, Type (0, 0), BuildingBlock: EZIPEK_clean_linker_0, # of connection points: 2
#     Edge 41, Type (0, 0), BuildingBlock: EZIPEK_clean_linker_0, # of connection points: 2
#     Edge 42, Type (0, 0), BuildingBlock: EZIPEK_clean_linker_0, # of connection points: 2
#     Edge 43, Type (0, 0), BuildingBlock: EZIPEK_clean_linker_0, # of connection points: 2
#     Edge 44, Type (0, 0), BuildingBlock: EZIPEK_clean_linker_0, # of connection points: 2
#     Edge 45, Type (0, 0), BuildingBlock: EZIPEK_clean_linker_0, # of connection points: 2
#     Edge 46, Type (0, 0), BuildingBlock: EZIPEK_clean_linker_0, # of connection points: 2
#     Edge 47, Type (0, 0), BuildingBlock: EZIPEK_clean_linker_0, # of connection points: 2
#     Edge 48, Type (0, 0), BuildingBlock: EZIPEK_clean_linker_0, # of connection points: 2
#     Edge 49, Type (0, 0), BuildingBlock: EZIPEK_clean_linker_0, # of connection points: 2
#     Edge 50, Type (0, 0), BuildingBlock: EZIPEK_clean_linker_0, # of connection points: 2
#     Edge 51, Type (0, 0), BuildingBlock: EZIPEK_clean_linker_0, # of connection points: 2
#     Edge 52, Type (0, 0), BuildingBlock: EZIPEK_clean_linker_0, # of connection points: 2
#     Edge 53, Type (0, 0), BuildingBlock: EZIPEK_clean_linker_0, # of connection points: 2
#     Edge 54, Type (0, 0), BuildingBlock: EZIPEK_clean_linker_0, # of connection points: 2
#     Edge 55, Type (0, 0), BuildingBlock: EZIPEK_clean_linker_0, # of connection points: 2
#     Edge 56, Type (0, 0), BuildingBlock: EZIPEK_clean_linker_0, # of connection points: 2
#     Edge 57, Type (0, 0), BuildingBlock: EZIPEK_clean_linker_0, # of connection points: 2
#     Edge 58, Type (0, 0), BuildingBlock: EZIPEK_clean_linker_0, # of connection points: 2
#     Edge 59, Type (0, 0), BuildingBlock: EZIPEK_clean_linker_0, # of connection points: 2
#     Edge 60, Type (0, 0), BuildingBlock: EZIPEK_clean_linker_0, # of connection points: 2
#     Edge 61, Type (0, 0), BuildingBlock: EZIPEK_clean_linker_0, # of connection points: 2
#     Edge 62, Type (0, 0), BuildingBlock: EZIPEK_clean_linker_0, # of connection points: 2
#     Edge 63, Type (0, 0), BuildingBlock: EZIPEK_clean_linker_0, # of connection points: 2
#     Edge 64, Type (0, 0), BuildingBlock: EZIPEK_clean_linker_0, # of connection points: 2
#     Edge 65, Type (0, 0), BuildingBlock: EZIPEK_clean_linker_0, # of connection points: 2
#     Edge 66, Type (0, 0), BuildingBlock: EZIPEK_clean_linker_0, # of connection points: 2
#     Edge 67, Type (0, 0), BuildingBlock: EZIPEK_clean_linker_0, # of connection points: 2
#     Edge 68, Type (0, 0), BuildingBlock: EZIPEK_clean_linker_0, # of connection points: 2
#     Edge 69, Type (0, 0), BuildingBlock: EZIPEK_clean_linker_0, # of connection points: 2
#     Edge 70, Type (0, 0), BuildingBlock: EZIPEK_clean_linker_0, # of connection points: 2
#     Edge 71, Type (0, 0), BuildingBlock: EZIPEK_clean_linker_0, # of connection points: 2
# Relax obj value: 0.237
# Max RMSD: 0.243
# Mean RMSD: 0.242
data_MOF--net-smn--node1-VOLQOD_clean_sbu_1--edge1-EZIPEK_clean_linker_0
_symmetry_space_group_name_H-M    P1
_symmetry_Int_Tables_number       1
_symmetry_cell_setting            triclinic
loop_
_symmetry_equiv_pos_as_xyz
'x, y, z'
_cell_length_a     49.31586
_cell_length_b     48.993175
_cell_length_c     16.300317
_cell_angle_alpha  89.852481
_cell_angle_beta   90.129059
_cell_angle_gamma 120.11489
loop_
_atom_site_label
_atom_site_type_symbol
_atom_site_fract_x
_atom_site_fract_y
_atom_site_fract_z
_atom_type_partial_charge
O0 O 0.00593 0.26079 0.62684 0.0
Zn1 Zn 0.97397 0.21887 0.67714 0.0
O2 O -0.00326 0.20586 0.74688 0.0
Zn3 Zn -0.01164 0.16364 0.72807 0.0
Zn4 Zn 0.04054 0.23384 0.74633 0.0
Zn5 Zn -0.01546 0.20811 0.85445 0.0
O6 O 0.95751 0.13352 0.81646 0.0
O7 O 0.94689 0.16777 0.87747 0.0
O8 O 0.95062 0.18479 0.5887 0.0
O9 O 0.96323 0.14875 0.6263 0.0
O10 O 0.02929 0.1643 0.69552 0.0
O11 O 0.05841 0.21597 0.67063 0.0
O12 O 0.05886 0.23233 0.85693 0.0
O13 O 0.94466 0.22761 0.74861 0.0
O14 O 0.01622 0.21086 0.93498 0.0
O15 O 0.97234 0.24096 0.86421 0.0
C16 C 0.03426 0.28125 0.64481 0.0
C17 C 0.94052 0.1397 0.86384 0.0
C18 C 0.05332 0.188 0.6632 0.0
C19 C 0.94962 0.15841 0.57783 0.0
C20 C 0.04517 0.22054 0.92494 0.0
C21 C 0.95076 0.24038 0.81979 0.0
O22 O 0.05016 0.27585 0.69795 0.0
O23 O 0.74147 0.77186 0.62928 0.0
Zn24 Zn 0.78338 0.78232 0.67934 0.0
O25 O 0.79589 0.81829 0.74844 0.0
Zn26 Zn 0.83749 0.85272 0.72889 0.0
Zn27 Zn 0.76782 0.83385 0.74694 0.0
Zn28 Zn 0.79374 0.80399 0.85642 0.0
O29 O 0.86768 0.85263 0.81749 0.0
O30 O 0.83418 0.80747 0.87971 0.0
O31 O 0.81748 0.79337 0.59115 0.0
O32 O 0.8525 0.84256 0.62764 0.0
O33 O 0.83619 0.89282 0.69473 0.0
O34 O 0.78482 0.86934 0.66978 0.0
O35 O 0.76881 0.85377 0.8563 0.0
O36 O 0.77492 0.74415 0.75133 0.0
O37 O 0.79022 0.83283 0.93609 0.0
O38 O 0.76167 0.75853 0.86684 0.0
C39 C 0.72104 0.7796 0.64794 0.0
C40 C 0.86191 0.82952 0.86553 0.0
C41 C 0.8124 0.89261 0.66188 0.0
C42 C 0.84343 0.81913 0.57988 0.0
C43 C 0.78026 0.85195 0.92489 0.0
C44 C 0.76221 0.73742 0.82249 0.0
O45 O 0.72639 0.80106 0.70048 0.0
O46 O 0.2271 0.99094 0.63034 0.0
Zn47 Zn 0.21897 0.02437 0.67789 0.0
O48 O 0.18321 0.00327 0.74924 0.0
Zn49 Zn 0.14957 0.01132 0.7248 0.0
Zn50 Zn 0.1664 0.95901 0.75133 0.0
Zn51 Zn 0.19675 0.01679 0.85764 0.0
O52 O 0.14921 0.04267 0.8087 0.0
O53 O 0.19265 0.05379 0.87768 0.0
O54 O 0.20949 0.04833 0.58714 0.0
O55 O 0.16098 0.03598 0.62249 0.0
O56 O 0.10919 0.9705 0.69084 0.0
O57 O 0.13098 0.94053 0.67517 0.0
O58 O 0.14682 0.94142 0.86178 0.0
O59 O 0.25828 0.05218 0.7472 0.0
O60 O 0.168 0.98474 0.93841 0.0
O61 O 0.24192 0.03094 0.87142 0.0
C62 C 0.21843 0.96251 0.6509 0.0
C63 C 0.17122 0.05983 0.85914 0.0
C64 C 0.10858 0.94576 0.66298 0.0
C65 C 0.18433 0.04936 0.5746 0.0
C66 C 0.14881 0.95548 0.92909 0.0
C67 C 0.26381 0.04863 0.82215 0.0
O68 O 0.19716 0.9477 0.70472 0.0
O69 O 0.03812 0.78941 0.23721 0.0
Zn70 Zn 0.00889 0.79759 0.31131 0.0
O71 O -0.01391 0.81129 0.24388 0.0
Zn72 Zn -0.00508 0.85351 0.26582 0.0
Zn73 Zn -0.00231 0.80953 0.13502 0.0
Zn74 Zn 0.94218 0.78382 0.24621 0.0
O75 O 0.95445 0.85351 0.29815 0.0
O76 O 0.92502 0.80194 0.32368 0.0
O77 O 0.03211 0.83066 0.40208 0.0
O78 O 0.01996 0.86737 0.36797 0.0
O79 O 0.02563 0.88414 0.17909 0.0
O80 O 0.035 0.85017 0.11175 0.0
O81 O 0.96541 0.80678 0.05659 0.0
O82 O 0.97688 0.75548 0.36048 0.0
O83 O 0.92337 0.78568 0.13686 0.0
O84 O 0.93219 0.74152 0.2929 0.0
C85 C 0.03207 0.7774 0.16507 0.0
C86 C 0.93046 0.83004 0.33112 0.0
C87 C 0.04191 0.87818 0.12868 0.0
C88 C 0.03307 0.85688 0.41547 0.0
C89 C 0.93657 0.79726 0.06823 0.0
C90 C 0.94826 0.7355 0.34393 0.0
O91 O 0.01033 0.77706 0.12188 0.0
O92 O 0.20922 0.27379 0.23958 0.0
Zn93 Zn 0.20015 0.23549 0.31161 0.0
O94 O 0.1866 0.19915 0.24266 0.0
Zn95 Zn 0.14478 0.16511 0.26405 0.0
Zn96 Zn 0.18754 0.21316 0.13476 0.0
Zn97 Zn 0.21449 0.18319 0.24141 0.0
O98 O 0.14552 0.12465 0.29783 0.0
O99 O 0.19719 0.1468 0.3154 0.0
O100 O 0.16657 0.22505 0.4015 0.0
O101 O 0.13082 0.17596 0.36603 0.0
O102 O 0.11396 0.16537 0.1773 0.0
O103 O 0.14728 0.21025 0.11398 0.0
O104 O 0.18997 0.18406 0.05454 0.0
O105 O 0.24233 0.24587 0.35962 0.0
O106 O 0.21386 0.16451 0.12983 0.0
O107 O 0.25577 0.21485 0.2916 0.0
C108 C 0.22069 0.27983 0.16696 0.0
C109 C 0.16953 0.12408 0.32627 0.0
C110 C 0.11957 0.18844 0.1293 0.0
C111 C 0.14049 0.19949 0.41368 0.0
C112 C 0.20113 0.16585 0.06287 0.0
C113 C 0.2621 0.23706 0.34261 0.0
O114 O 0.21971 0.25825 0.12152 0.0
O115 O 0.7246 0.96128 0.23551 0.0
Zn116 Zn 0.76235 0.99063 0.30943 0.0
O117 O 0.7984 0.0144 0.24138 0.0
Zn118 Zn 0.83231 0.00658 0.26125 0.0
Zn119 Zn 0.7847 0.00254 0.13292 0.0
Zn120 Zn 0.81432 0.05844 0.2439 0.0
O121 O 0.87244 0.04766 0.29437 0.0
O122 O 0.84974 0.07622 0.32116 0.0
O123 O 0.7731 0.9672 0.3984 0.0
O124 O 0.822 0.98118 0.36253 0.0
O125 O 0.83234 0.97626 0.17353 0.0
O126 O 0.78786 0.96509 0.1099 0.0
O127 O 0.81414 0.03523 0.0545 0.0
O128 O 0.75219 0.02229 0.36027 0.0
O129 O 0.83467 0.07767 0.13433 0.0
O130 O 0.78178 0.06744 0.29179 0.0
C131 C 0.71835 0.96763 0.16395 0.0
C132 C 0.87267 0.07142 0.32792 0.0
C133 C 0.80959 0.95909 0.12498 0.0
C134 C 0.79868 0.96694 0.41025 0.0
C135 C 0.83325 0.06439 0.06596 0.0
C136 C 0.76022 0.05092 0.34369 0.0
O137 O 0.73965 0.98961 0.12065 0.0
O138 O 0.67518 0.59585 0.96332 0.0
Zn139 Zn 0.64166 0.55432 0.01129 0.0
O140 O 0.66246 0.53828 0.07947 0.0
Zn141 Zn 0.65271 0.4958 0.05395 0.0
Zn142 Zn 0.70672 0.56479 0.07976 0.0
Zn143 Zn 0.64982 0.53843 0.18863 0.0
O144 O 0.62158 0.46432 0.13951 0.0
O145 O 0.61229 0.49787 0.20913 0.0
O146 O 0.61729 0.52183 0.91969 0.0
O147 O 0.62772 0.48369 0.95143 0.0
O148 O 0.69274 0.49492 0.01988 0.0
O149 O 0.72406 0.54672 0.00286 0.0
O150 O 0.72431 0.56206 0.19029 0.0
O151 O 0.61455 0.56582 0.08372 0.0
O152 O 0.68146 0.54033 0.26775 0.0
O153 O 0.63708 0.57045 0.20572 0.0
C154 C 0.70391 0.61484 0.98115 0.0
C155 C 0.60532 0.46998 0.1908 0.0
C156 C 0.71768 0.51854 0.99091 0.0
C157 C 0.6153 0.4952 0.90488 0.0
C158 C 0.71041 0.54995 0.25786 0.0
C159 C 0.61883 0.5747 0.15885 0.0
O160 O 0.71883 0.60756 0.03279 0.0
O161 O 0.40634 0.10492 0.95816 0.0
Zn162 Zn 0.4469 0.11309 0.01175 0.0
O163 O 0.46049 0.14916 0.08178 0.0
Zn164 Zn 0.50183 0.18377 0.05811 0.0
Zn165 Zn 0.43199 0.16445 0.08282 0.0
Zn166 Zn 0.46095 0.13638 0.19053 0.0
O167 O 0.53383 0.18493 0.14265 0.0
O168 O 0.50177 0.14054 0.20954 0.0
O169 O 0.48139 0.12313 0.92426 0.0
O170 O 0.51585 0.17309 0.95603 0.0
O171 O 0.49993 0.22357 0.02494 0.0
O172 O 0.44823 0.20014 0.00563 0.0
O173 O 0.43382 0.18455 0.19325 0.0
O174 O 0.43432 0.07358 0.08384 0.0
O175 O 0.45813 0.16572 0.26973 0.0
O176 O 0.43017 0.09111 0.20683 0.0
C177 C 0.38538 0.11155 0.97964 0.0
C178 C 0.52913 0.16245 0.19168 0.0
C179 C 0.4757 0.22333 0.99514 0.0
C180 C 0.50691 0.14911 0.9104 0.0
C181 C 0.44698 0.18393 0.26014 0.0
C182 C 0.42559 0.06863 0.15915 0.0
O183 O 0.39011 0.13143 0.03653 0.0
O184 O 0.89513 0.32548 0.96488 0.0
Zn185 Zn 0.88539 0.35779 0.01264 0.0
O186 O 0.84894 0.33505 0.08051 0.0
Zn187 Zn 0.81563 0.34357 0.05764 0.0
Zn188 Zn 0.83226 0.29082 0.08064 0.0
Zn189 Zn 0.86276 0.34774 0.18875 0.0
O190 O 0.8161 0.3749 0.14304 0.0
O191 O 0.85964 0.38534 0.21061 0.0
O192 O 0.87574 0.38117 0.92167 0.0
O193 O 0.827 0.36854 0.95545 0.0
O194 O 0.77497 0.30266 0.02491 0.0
O195 O 0.79641 0.27252 0.00523 0.0
O196 O 0.81271 0.27263 0.19155 0.0
O197 O 0.92325 0.38723 0.08523 0.0
O198 O 0.83375 0.31582 0.26858 0.0
O199 O 0.90758 0.36012 0.20184 0.0
C200 C 0.88586 0.29655 0.98104 0.0
C201 C 0.83837 0.39177 0.1932 0.0
C202 C 0.77403 0.27795 0.99537 0.0
C203 C 0.85058 0.38204 0.90827 0.0
C204 C 0.8146 0.28659 0.25906 0.0
C205 C 0.92915 0.38137 0.15766 0.0
O206 O 0.86356 0.28053 0.03153 0.0
O207 O 0.69876 0.1161 0.57867 0.0
Zn208 Zn 0.67151 0.12853 0.64712 0.0
O209 O 0.65128 0.14397 0.57477 0.0
Zn210 Zn 0.65994 0.18622 0.59727 0.0
Zn211 Zn 0.66472 0.14337 0.46693 0.0
Zn212 Zn 0.60726 0.11732 0.57191 0.0
O213 O 0.61952 0.18644 0.63099 0.0
O214 O 0.5891 0.13457 0.64851 0.0
O215 O 0.69582 0.16236 0.73671 0.0
O216 O 0.6846 0.19944 0.69942 0.0
O217 O 0.69147 0.21748 0.512 0.0
O218 O 0.70213 0.18395 0.44724 0.0
O219 O 0.63368 0.14109 0.38476 0.0
O220 O 0.63748 0.0872 0.69565 0.0
O221 O 0.59048 0.12027 0.46074 0.0
O222 O 0.59541 0.07473 0.61779 0.0
C223 C 0.69549 0.10718 0.50366 0.0
C224 C 0.59487 0.16256 0.66029 0.0
C225 C 0.70856 0.21184 0.46359 0.0
C226 C 0.69755 0.18911 0.74796 0.0
C227 C 0.60477 0.13195 0.39338 0.0
C228 C 0.6093 0.06788 0.67357 0.0
O229 O 0.67811 0.11167 0.45404 0.0
O230 O 0.88017 0.60752 0.57666 0.0
Zn231 Zn 0.86727 0.56766 0.64626 0.0
O232 O 0.85386 0.53227 0.57398 0.0
Zn233 Zn 0.81242 0.4976 0.59564 0.0
Zn234 Zn 0.85387 0.54584 0.46601 0.0
Zn235 Zn 0.88255 0.51727 0.57179 0.0
O236 O 0.81436 0.45795 0.62925 0.0
O237 O 0.86612 0.48124 0.64762 0.0
O238 O 0.83238 0.55726 0.73262 0.0
O239 O 0.79771 0.50781 0.69725 0.0
O240 O 0.78099 0.49662 0.50927 0.0
O241 O 0.81322 0.54197 0.44636 0.0
O242 O 0.85676 0.51685 0.38559 0.0
O243 O 0.90786 0.57582 0.69962 0.0
O244 O 0.88138 0.49805 0.46076 0.0
O245 O 0.92427 0.55018 0.61849 0.0
C246 C 0.88942 0.61316 0.50188 0.0
C247 C 0.83863 0.45809 0.65826 0.0
C248 C 0.78582 0.51956 0.46176 0.0
C249 C 0.80651 0.5314 0.74428 0.0
C250 C 0.86829 0.49893 0.39402 0.0
C251 C 0.92898 0.5697 0.67628 0.0
O252 O 0.88496 0.59115 0.4526 0.0
O253 O 0.39049 0.29519 0.5698 0.0
Zn254 Zn 0.4284 0.32423 0.64222 0.0
O255 O 0.46479 0.34711 0.57431 0.0
Zn256 Zn 0.49853 0.33923 0.59735 0.0
Zn257 Zn 0.45113 0.33415 0.46643 0.0
Zn258 Zn 0.48064 0.39114 0.5722 0.0
O259 O 0.53855 0.38053 0.63294 0.0
O260 O 0.51603 0.4099 0.64809 0.0
O261 O 0.43821 0.30056 0.73273 0.0
O262 O 0.48717 0.31393 0.6991 0.0
O263 O 0.49857 0.30823 0.51063 0.0
O264 O 0.45394 0.29639 0.44668 0.0
O265 O 0.48043 0.36569 0.3862 0.0
O266 O 0.41812 0.35634 0.68887 0.0
O267 O 0.50043 0.40926 0.46149 0.0
O268 O 0.44888 0.40098 0.62026 0.0
C269 C 0.38474 0.30126 0.49746 0.0
C270 C 0.53867 0.40508 0.66074 0.0
C271 C 0.47577 0.29062 0.46246 0.0
C272 C 0.46351 0.29988 0.7459 0.0
C273 C 0.49916 0.39505 0.39489 0.0
C274 C 0.42676 0.38503 0.67127 0.0
O275 O 0.40648 0.32203 0.45269 0.0
O276 O 0.33998 0.92761 0.30553 0.0
Zn277 Zn 0.30726 0.88523 0.35159 0.0
O278 O 0.32894 0.87051 0.41988 0.0
Zn279 Zn 0.32197 0.82937 0.3909 0.0
Zn280 Zn 0.37248 0.8999 0.4294 0.0
Zn281 Zn 0.31354 0.86786 0.52648 0.0
O282 O 0.29332 0.7965 0.47784 0.0
O283 O 0.27611 0.82594 0.53758 0.0
O284 O 0.2842 0.85314 0.25977 0.0
O285 O 0.29564 0.81565 0.29036 0.0
O286 O 0.36351 0.83316 0.35091 0.0
O287 O 0.39322 0.88564 0.35285 0.0
O288 O 0.38857 0.89563 0.54146 0.0
O289 O 0.27737 0.89305 0.42232 0.0
O290 O 0.34378 0.86839 0.6093 0.0
O291 O 0.30077 0.90014 0.54323 0.0
C292 C 0.36772 0.9482 0.32777 0.0
C293 C 0.27341 0.79927 0.52248 0.0
C294 C 0.38846 0.85877 0.33082 0.0
C295 C 0.28244 0.82667 0.24493 0.0
C296 C 0.3733 0.88027 0.60485 0.0
C297 C 0.28151 0.90286 0.49646 0.0
O298 O 0.38242 0.94272 0.38443 0.0
O299 O 0.07207 0.44114 0.2935 0.0
Zn300 Zn 0.11328 0.44962 0.344 0.0
O301 O 0.1259 0.48452 0.41599 0.0
Zn302 Zn 0.16764 0.51992 0.4031 0.0
Zn303 Zn 0.09734 0.49892 0.42642 0.0
Zn304 Zn 0.12802 0.46968 0.51837 0.0
O305 O 0.19557 0.52228 0.50372 0.0
O306 O 0.16793 0.47059 0.51938 0.0
O307 O 0.14954 0.46195 0.26072 0.0
O308 O 0.18532 0.50953 0.30749 0.0
O309 O 0.16478 0.55841 0.36117 0.0
O310 O 0.11272 0.53536 0.35397 0.0
O311 O 0.10059 0.51698 0.54089 0.0
O312 O 0.10125 0.40936 0.4114 0.0
O313 O 0.12938 0.49984 0.60332 0.0
O314 O 0.09562 0.42517 0.53495 0.0
C315 C 0.05111 0.44757 0.31694 0.0
C316 C 0.19268 0.49656 0.53298 0.0
C317 C 0.13982 0.55804 0.33709 0.0
C318 C 0.17662 0.48705 0.25647 0.0
C319 C 0.11684 0.51704 0.60218 0.0
C320 C 0.09165 0.40333 0.48579 0.0
O321 O 0.05609 0.46694 0.37555 0.0
O322 O 0.56105 0.65787 0.30138 0.0
Zn323 Zn 0.55378 0.69098 0.35294 0.0
O324 O 0.5187 0.67023 0.42548 0.0
Zn325 Zn 0.48362 0.67546 0.39625 0.0
Zn326 Zn 0.50608 0.62679 0.43721 0.0
Zn327 Zn 0.53123 0.68722 0.53107 0.0
O328 O 0.47803 0.70357 0.48177 0.0
O329 O 0.52518 0.72365 0.53992 0.0
O330 O 0.54461 0.71528 0.26477 0.0
O331 O 0.49528 0.70162 0.29506 0.0
O332 O 0.4466 0.63277 0.35894 0.0
O333 O 0.47027 0.60413 0.36352 0.0
O334 O 0.48766 0.61079 0.55063 0.0
O335 O 0.59344 0.71809 0.42021 0.0
O336 O 0.50236 0.65618 0.61428 0.0
O337 O 0.57651 0.70256 0.54817 0.0
C338 C 0.5564 0.63136 0.3282 0.0
C339 C 0.50046 0.7247 0.52515 0.0
C340 C 0.44765 0.60784 0.34136 0.0
C341 C 0.51947 0.71601 0.25016 0.0
C342 C 0.48655 0.62622 0.61228 0.0
C343 C 0.59866 0.71721 0.49683 0.0
O344 O 0.5391 0.61783 0.39077 0.0
O345 O 0.36982 0.45386 0.90467 0.0
Zn346 Zn 0.3426 0.46313 0.98127 0.0
O347 O 0.32195 0.48088 0.91969 0.0
Zn348 Zn 0.33296 0.52311 0.95174 0.0
Zn349 Zn 0.33223 0.4805 0.80738 0.0
Zn350 Zn 0.27798 0.45591 0.92647 0.0
O351 O 0.29382 0.52519 0.98953 0.0
O352 O 0.26267 0.4736 0.00958 0.0
O353 O 0.36737 0.49291 0.07526 0.0
O354 O 0.35813 0.53253 0.05351 0.0
O355 O 0.36425 0.55504 0.86784 0.0
O356 O 0.36975 0.52191 0.78492 0.0
O357 O 0.29845 0.47731 0.73192 0.0
O358 O 0.30936 0.42096 0.02588 0.0
O359 O 0.25986 0.46187 0.82179 0.0
O360 O 0.26471 0.41199 0.967 0.0
C361 C 0.36405 0.44434 0.83029 0.0
C362 C 0.2692 0.50184 0.02063 0.0
C363 C 0.37852 0.54967 0.80995 0.0
C364 C 0.37021 0.51943 0.09539 0.0
C365 C 0.27101 0.47153 0.75018 0.0
C366 C 0.28008 0.40311 0.01227 0.0
O367 O 0.34444 0.44787 0.78711 0.0
O368 O 0.54175 0.9398 0.90592 0.0
Zn369 Zn 0.53518 0.90256 0.9773 0.0
O370 O 0.51924 0.86554 0.91019 0.0
Zn371 Zn 0.47818 0.83163 0.94216 0.0
Zn372 Zn 0.51595 0.87776 0.8024 0.0
Zn373 Zn 0.54766 0.85013 0.90254 0.0
O374 O 0.48118 0.79342 0.98489 0.0
O375 O 0.53314 0.81517 0.98059 0.0
O376 O 0.50432 0.89436 0.07128 0.0
O377 O 0.46592 0.84563 0.04223 0.0
O378 O 0.44454 0.82672 0.85718 0.0
O379 O 0.47384 0.87194 0.79011 0.0
O380 O 0.51752 0.84819 0.72055 0.0
O381 O 0.57772 0.91244 0.02045 0.0
O382 O 0.54329 0.82954 0.79143 0.0
O383 O 0.59049 0.88216 0.94657 0.0
C384 C 0.54722 0.94521 0.82932 0.0
C385 C 0.50644 0.79356 0.00451 0.0
C386 C 0.44731 0.84869 0.80882 0.0
C387 C 0.47775 0.87004 0.08718 0.0
C388 C 0.52881 0.82997 0.72684 0.0
C389 C 0.59729 0.90379 -5e-05 0.0
O390 O 0.5453 0.92353 0.78242 0.0
O391 O 0.05593 0.6311 0.90566 0.0
Zn392 Zn 0.0947 0.65854 0.97593 0.0
O393 O 0.1313 0.67847 0.90727 0.0
Zn394 Zn 0.1645 0.6705 0.9399 0.0
Zn395 Zn 0.1192 0.66272 0.79958 0.0
Zn396 Zn 0.14759 0.72282 0.8993 0.0
O397 O 0.20323 0.71143 0.98071 0.0
O398 O 0.18261 0.74276 0.9768 0.0
O399 O 0.10175 0.63443 0.06935 0.0
O400 O 0.15023 0.64464 0.0411 0.0
O401 O 0.16892 0.64126 0.85583 0.0
O402 O 0.12408 0.62551 0.78838 0.0
O403 O 0.14931 0.69391 0.71817 0.0
O404 O 0.08745 0.69259 0.0216 0.0
O405 O 0.168 0.73874 0.78788 0.0
O406 O 0.11669 0.73496 0.94379 0.0
C407 C 0.05143 0.63276 0.82891 0.0
C408 C 0.20384 0.73707 -2e-05 0.0
C409 C 0.14713 0.62206 0.80752 0.0
C410 C 0.12595 0.63222 0.08605 0.0
C411 C 0.16756 0.72355 0.72387 0.0
C412 C 0.09602 0.72082 -0.00036 0.0
O413 O 0.07406 0.64829 0.77942 0.0
C414 C 0.10514 0.19341 0.62648 0.0
C415 C 0.07375 0.18383 0.60438 0.0
C416 C 0.08769 0.18874 0.45901 0.0
C417 C 0.11878 0.1967 0.48051 0.0
N418 N 0.15554 0.20062 0.58417 0.0
N419 N 0.03348 0.16587 0.50105 0.0
C420 C 0.12714 0.19737 0.56422 0.0
C421 C 0.06451 0.17917 0.521 0.0
N422 N 0.114 0.1994 0.70691 0.0
N423 N 0.08068 0.19186 0.37953 0.0
H424 H 0.01592 0.1588 0.54509 0.0
H425 H 0.02484 0.15902 0.44176 0.0
H426 H 0.0972 0.19967 0.33253 0.0
H427 H 0.05946 0.18975 0.36139 0.0
H428 H 0.13724 0.21006 0.72633 0.0
H429 H 0.09799 0.19491 0.75406 0.0
H430 H 0.16167 0.19793 0.64357 0.0
H431 H 0.17221 0.2037 0.54029 0.0
C432 C 0.8023 0.9568 0.56089 0.0
C433 C 0.80194 0.94827 0.4775 0.0
C434 C 0.81961 0.91145 0.51846 0.0
C435 C 0.81602 0.9169 0.6019 0.0
N436 N 0.80196 0.94286 0.70428 0.0
N437 N 0.80568 0.91406 0.37745 0.0
C438 C 0.80692 0.93918 0.62365 0.0
C439 C 0.80953 0.92475 0.45645 0.0
N440 N 0.79938 0.98236 0.57992 0.0
N441 N 0.83243 0.89323 0.49862 0.0
H442 H 0.79755 0.92261 0.33057 0.0
H443 H 0.80757 0.89467 0.35977 0.0
H444 H 0.83992 0.88304 0.54281 0.0
H445 H 0.83845 0.89072 0.43906 0.0
H446 H 0.80284 -0.0082 0.63871 0.0
H447 H 0.79577 -0.00437 0.53568 0.0
H448 H 0.7917 0.95582 0.72382 0.0
H449 H 0.80691 0.93161 0.75162 0.0
C450 C 0.09612 0.93035 0.51798 0.0
C451 C 0.08555 0.92567 0.60032 0.0
C452 C 0.03979 0.87488 0.56252 0.0
C453 C 0.05239 0.87816 0.48244 0.0
N454 N 0.0948 0.90642 0.38725 0.0
N455 N 0.04892 0.89308 0.70409 0.0
C456 C 0.0812 0.90524 0.46113 0.0
C457 C 0.05768 0.89785 0.62351 0.0
N458 N 0.12049 0.95901 0.49433 0.0
N459 N 0.01056 0.85023 0.57956 0.0
H460 H 0.06085 0.9102 0.74893 0.0
H461 H 0.03085 0.87186 0.72698 0.0
H462 H -0.00254 0.8325 0.53709 0.0
H463 H -0.00143 0.8483 0.63373 0.0
H464 H 0.12751 0.96498 0.43358 0.0
H465 H 0.13182 0.97797 0.5347 0.0
H466 H 0.11728 0.92403 0.37103 0.0
H467 H 0.08475 0.88797 0.34519 0.0
C468 C 0.15343 0.08595 0.95977 0.0
C469 C 0.17413 0.08875 0.89606 0.0
C470 C 0.20959 0.14445 0.93183 0.0
C471 C 0.19139 0.14009 0.00267 0.0
N472 N 0.14573 0.10761 0.08552 0.0
N473 N 0.22184 0.12013 0.81949 0.0
C474 C 0.16298 0.11119 0.0165 0.0
C475 C 0.20199 0.11805 0.88079 0.0
N476 N 0.12489 0.05901 0.96648 0.0
N477 N 0.23397 0.17381 0.91342 0.0
H478 H 0.21636 0.10179 0.77841 0.0
H479 H 0.2443 0.13931 0.81143 0.0
H480 H 0.24047 0.19335 0.95104 0.0
H481 H 0.24631 0.17942 0.85841 0.0
H482 H 0.10739 0.05637 0.0067 0.0
H483 H 0.11757 0.0399 0.92694 0.0
H484 H 0.127 0.08619 0.10497 0.0
H485 H 0.15105 0.12593 0.12656 0.0
C486 C 0.88634 0.07744 0.01632 0.0
C487 C 0.85939 0.08072 0.00707 0.0
C488 C 0.88299 0.11423 0.88661 0.0
C489 C 0.91154 0.11458 0.90287 0.0
N490 N 0.94149 0.09852 0.98633 0.0
N491 N 0.83184 0.10264 0.93642 0.0
C492 C 0.91339 0.09629 0.96772 0.0
C493 C 0.85752 0.09902 0.94252 0.0
N494 N 0.88603 0.05622 0.07161 0.0
N495 N 0.88036 0.12844 0.81712 0.0
H496 H 0.81251 0.09106 0.97524 0.0
H497 H 0.83038 0.11848 0.89656 0.0
H498 H 0.89869 0.13999 0.77536 0.0
H499 H 0.85948 0.12666 0.79715 0.0
H500 H 0.9034 0.05009 0.0746 0.0
H501 H 0.86722 0.0428 0.11074 0.0
H502 H 0.94543 0.08914 0.03939 0.0
H503 H 0.96162 0.11149 0.95112 0.0
C504 C 0.88826 0.79813 0.88683 0.0
C505 C 0.88717 0.82601 0.90424 0.0
C506 C 0.92332 0.8375 0.01923 0.0
C507 C 0.92061 0.80738 0.00894 0.0
N508 N 0.90046 0.75853 0.93537 0.0
N509 N 0.90192 0.87151 0.98919 0.0
C510 C 0.90332 0.78766 0.94281 0.0
C511 C 0.90468 0.84584 0.97019 0.0
N512 N 0.87482 0.78178 0.81633 0.0
N513 N 0.94387 0.8582 0.07573 0.0
H514 H 0.88917 0.87881 0.95338 0.0
H515 H 0.91071 0.88453 0.04285 0.0
H516 H 0.95729 0.85272 0.11469 0.0
H517 H 0.9495 0.88167 0.07985 0.0
H518 H 0.87712 0.76297 0.79563 0.0
H519 H 0.86335 0.78874 0.77463 0.0
H520 H 0.88537 0.74145 0.89406 0.0
H521 H 0.91192 0.75064 0.97435 0.0
C522 C 0.89693 0.83209 0.53413 0.0
C523 C 0.86535 0.8224 0.51316 0.0
C524 C 0.87817 0.82342 0.3673 0.0
C525 C 0.90994 0.83459 0.38871 0.0
N526 N 0.95101 0.85671 0.49002 0.0
N527 N 0.82748 0.81545 0.40925 0.0
C528 C 0.91978 0.84149 0.47135 0.0
C529 C 0.85634 0.81992 0.42946 0.0
N530 N 0.9048 0.83061 0.61389 0.0
N531 N 0.86881 0.81557 0.28769 0.0
H532 H 0.81101 0.81301 0.45299 0.0
H533 H 0.82081 0.81672 0.34934 0.0
H534 H 0.88463 0.81975 0.24024 0.0
H535 H 0.8454 0.80369 0.26945 0.0
H536 H 0.92661 0.83409 0.63167 0.0
H537 H 0.8886 0.82272 0.66164 0.0
H538 H 0.95977 0.86531 0.54834 0.0
H539 H 0.9684 0.86365 0.44553 0.0
C540 C 0.1755 0.09293 0.53021 0.0
C541 C 0.18181 0.06865 0.50782 0.0
C542 C 0.17453 0.07705 0.36264 0.0
C543 C 0.16641 0.09993 0.38606 0.0
N544 N 0.15303 0.12523 0.4921 0.0
N545 N 0.18232 0.03381 0.40445 0.0
C546 C 0.16472 0.10622 0.47001 0.0
C547 C 0.17996 0.05961 0.42437 0.0
N548 N 0.18116 0.10423 0.60876 0.0
N549 N 0.17776 0.07263 0.28131 0.0
H550 H 0.18691 0.02095 0.44785 0.0
H551 H 0.17774 0.02392 0.34603 0.0
H552 H 0.17217 0.08376 0.23502 0.0
H553 H 0.18717 0.05913 0.25997 0.0
H554 H 0.18021 0.12408 0.62714 0.0
H555 H 0.18989 0.09566 0.65404 0.0
H556 H 0.14838 0.12839 0.55253 0.0
H557 H 0.14509 0.1355 0.44935 0.0
C558 C 0.91997 0.12299 0.36514 0.0
C559 C 0.89724 0.09168 0.38727 0.0
C560 C 0.90666 0.10556 0.53268 0.0
C561 C 0.93057 0.13655 0.51114 0.0
N562 N 0.96438 0.173 0.40773 0.0
N563 N 0.87357 0.05121 0.4905 0.0
C564 C 0.93852 0.14484 0.42748 0.0
C565 C 0.8923 0.08234 0.47066 0.0
N566 N 0.92322 0.13194 0.28466 0.0
N567 N 0.89654 0.09873 0.61214 0.0
H568 H 0.86253 0.03364 0.44636 0.0
H569 H 0.8714 0.04238 0.5498 0.0
H570 H 0.90584 0.11528 0.65921 0.0
H571 H 0.87696 0.07767 0.63022 0.0
H572 H 0.9366 0.15527 0.26519 0.0
H573 H 0.91122 0.11598 0.23746 0.0
H574 H 0.97329 0.17896 0.34844 0.0
H575 H 0.97843 0.18954 0.45171 0.0
C576 C 0.82712 0.93243 0.0242 0.0
C577 C 0.80626 0.93019 0.08689 0.0
C578 C 0.76879 0.87549 0.04721 0.0
C579 C 0.7896 0.87779 0.98458 0.0
N580 N 0.8412 0.90534 0.92357 0.0
N581 N 0.76079 0.89822 0.17046 0.0
C582 C 0.8197 0.90526 0.97669 0.0
C583 C 0.77823 0.90114 0.1024 0.0
N584 N 0.85287 0.96097 0.00637 0.0
N585 N 0.73968 0.84923 0.05207 0.0
H586 H 0.76701 0.91667 0.21173 0.0
H587 H 0.74176 0.877 0.18991 0.0
H588 H 0.73256 0.8297 0.01396 0.0
H589 H 0.72196 0.84741 0.09024 0.0
H590 H 0.86673 0.9651 0.95457 0.0
H591 H 0.85941 0.98127 0.04072 0.0
H592 H 0.86459 0.92318 0.92179 0.0
H593 H 0.83639 0.88641 0.88526 0.0
C594 C 0.12487 0.91934 0.04958 0.0
C595 C 0.12339 0.93946 0.98976 0.0
C596 C 0.06966 0.92386 0.03151 0.0
C597 C 0.07105 0.90356 0.09125 0.0
N598 N 0.10144 0.88651 0.16962 0.0
N599 N 0.09756 0.96622 0.93355 0.0
C600 C 0.09927 0.9029 0.10433 0.0
C601 C 0.09685 0.94359 0.98436 0.0
N602 N 0.15029 0.91519 0.05208 0.0
N603 N 0.04183 0.92266 0.01576 0.0
H604 H 0.11635 0.98019 0.89494 0.0
H605 H 0.08053 0.97284 0.93382 0.0
H606 H 0.02155 0.90891 0.04981 0.0
H607 H 0.03818 0.93371 0.96579 0.0
H608 H 0.15139 0.89811 0.08768 0.0
H609 H 0.16987 0.92784 0.01465 0.0
H610 H 0.12214 0.88748 0.18783 0.0
H611 H 0.08289 0.87375 0.20994 0.0
C612 C 0.07927 0.23102 0.04907 0.0
C613 C 0.06085 0.2105 0.98544 0.0
C614 C 0.07564 0.17148 0.02765 0.0
C615 C 0.09427 0.1921 0.09115 0.0
N616 N 0.10878 0.23805 0.17428 0.0
N617 N 0.03569 0.15863 0.924 0.0
C618 C 0.09429 0.22075 0.10576 0.0
C619 C 0.05706 0.17981 0.97826 0.0
N620 N 0.08322 0.26067 0.05345 0.0
N621 N 0.07735 0.14505 0.01084 0.0
H622 H 0.02252 0.16411 0.88417 0.0
H623 H 0.02923 0.13489 0.92254 0.0
H624 H 0.09009 0.13778 0.04672 0.0
H625 H 0.06769 0.1313 0.95865 0.0
H626 H 0.09916 0.27819 0.09248 0.0
H627 H 0.07175 0.26845 0.01412 0.0
H628 H 0.1073 0.25754 0.19314 0.0
H629 H 0.1203 0.23131 0.21637 0.0
C630 C 0.75269 0.51814 0.78832 0.0
C631 C 0.78423 0.52802 0.81036 0.0
C632 C 0.77037 0.52576 0.9559 0.0
C633 C 0.73864 0.5145 0.9334 0.0
N634 N 0.69829 0.49298 0.83003 0.0
N635 N 0.8216 0.53476 0.91547 0.0
C636 C 0.7294 0.5082 0.85019 0.0
C637 C 0.79272 0.53003 0.89438 0.0
N638 N 0.74525 0.51985 0.70831 0.0
N639 N 0.77916 0.53292 0.03609 0.0
H640 H 0.83849 0.53792 0.87223 0.0
H641 H 0.82796 0.5331 0.97544 0.0
H642 H 0.76298 0.52806 0.08304 0.0
H643 H 0.80244 0.54484 0.05542 0.0
H644 H 0.72352 0.51636 0.68965 0.0
H645 H 0.76172 0.52789 0.66122 0.0
H646 H 0.68998 0.48467 0.77125 0.0
H647 H 0.68055 0.48576 0.87356 0.0
C648 C 0.48297 0.24294 0.8521 0.0
C649 C 0.47864 0.24755 0.93569 0.0
C650 C 0.46499 0.28769 0.89625 0.0
C651 C 0.4658 0.28032 0.81242 0.0
N652 N 0.47035 0.24705 0.71085 0.0
N653 N 0.46312 0.27208 0.03876 0.0
C654 C 0.47351 0.25696 0.79049 0.0
C655 C 0.46901 0.26938 0.95821 0.0
N656 N 0.49592 0.22491 0.83153 0.0
N657 N 0.46158 0.31285 0.91658 0.0
H658 H 0.46763 0.26036 0.08576 0.0
H659 H 0.45248 0.28465 0.05849 0.0
H660 H 0.45833 0.32656 0.87295 0.0
H661 H 0.46419 0.32152 0.97607 0.0
H662 H 0.50264 0.22323 0.77208 0.0
H663 H 0.50277 0.21393 0.87505 0.0
H664 H 0.47225 0.22776 0.6923 0.0
H665 H 0.46272 0.25614 0.66413 0.0
C666 C 0.75495 0.26564 0.8524 0.0
C667 C 0.74953 0.25717 0.93632 0.0
C668 C 0.70867 0.20346 0.89814 0.0
C669 C 0.71699 0.21097 0.81436 0.0
N670 N 0.75164 0.24782 0.71265 0.0
N671 N 0.72319 0.21781 0.04082 0.0
C672 C 0.74105 0.24177 0.79179 0.0
C673 C 0.72683 0.22599 0.95973 0.0
N674 N 0.77369 0.29657 0.83067 0.0
N675 N 0.68283 0.1754 0.91863 0.0
H676 H 0.73486 0.23427 0.08728 0.0
H677 H 0.70983 0.19466 0.06162 0.0
H678 H 0.6692 0.15832 0.87527 0.0
H679 H 0.67359 0.16999 0.97769 0.0
H680 H 0.77617 0.30474 0.77056 0.0
H681 H 0.78443 0.31464 0.87367 0.0
H682 H 0.77131 0.26871 0.69402 0.0
H683 H 0.74266 0.23072 0.66685 0.0
C684 C 0.83032 0.44392 0.34945 0.0
C685 C 0.85859 0.47286 0.33468 0.0
C686 C 0.86948 0.45008 0.21473 0.0
C687 C 0.84168 0.4208 0.23073 0.0
N688 N 0.79259 0.3912 0.30202 0.0
N689 N 0.90128 0.50607 0.24522 0.0
C690 C 0.82097 0.41826 0.29417 0.0
C691 C 0.87693 0.47678 0.26445 0.0
N692 N 0.81302 0.44071 0.41815 0.0
N693 N 0.88935 0.45191 0.15376 0.0
H694 H 0.9076 0.52584 0.28179 0.0
H695 H 0.91377 0.51139 0.19051 0.0
H696 H 0.88392 0.43341 0.11326 0.0
H697 H 0.91177 0.4711 0.14526 0.0
H698 H 0.79445 0.41935 0.43851 0.0
H699 H 0.81817 0.45931 0.45805 0.0
H700 H 0.77502 0.38873 0.34175 0.0
H701 H 0.78546 0.37168 0.26409 0.0
C702 C 0.55143 0.40698 0.34139 0.0
C703 C 0.5248 0.41095 0.33463 0.0
C704 C 0.54802 0.44496 0.21497 0.0
C705 C 0.57631 0.44454 0.22867 0.0
N706 N 0.60606 0.42682 0.30688 0.0
N707 N 0.49742 0.43384 0.26774 0.0
C708 C 0.57816 0.42551 0.29143 0.0
C709 C 0.52285 0.42975 0.27161 0.0
N710 N 0.55121 0.38561 0.396 0.0
N711 N 0.54547 0.46008 0.14735 0.0
H712 H 0.47823 0.42221 0.30699 0.0
H713 H 0.49597 0.45003 0.22918 0.0
H714 H 0.56379 0.47178 0.10572 0.0
H715 H 0.52477 0.45906 0.12889 0.0
H716 H 0.56822 0.37897 0.39727 0.0
H717 H 0.53286 0.37271 0.43682 0.0
H718 H 0.61025 0.41692 0.35849 0.0
H719 H 0.62583 0.43941 0.27014 0.0
C720 C 0.59392 0.17287 0.3364 0.0
C721 C 0.58963 0.14194 0.3313 0.0
C722 C 0.55478 0.13048 0.2137 0.0
C723 C 0.55512 0.15936 0.22716 0.0
N724 N 0.57372 0.20765 0.3031 0.0
N725 N 0.56628 0.09101 0.26698 0.0
C726 C 0.57487 0.18081 0.28783 0.0
C727 C 0.57043 0.12076 0.26976 0.0
N728 N 0.61607 0.19456 0.38826 0.0
N729 N 0.53922 0.11236 0.14717 0.0
H730 H 0.57831 0.08365 0.3056 0.0
H731 H 0.54978 0.07306 0.22992 0.0
H732 H 0.52708 0.11861 0.10582 0.0
H733 H 0.54029 0.09257 0.12909 0.0
H734 H 0.62276 0.21837 0.38814 0.0
H735 H 0.62962 0.18937 0.42748 0.0
H736 H 0.58429 0.22214 0.35361 0.0
H737 H 0.56063 0.21462 0.26766 0.0
C738 C 0.52041 0.15136 0.76 0.0
C739 C 0.52881 0.15216 0.84371 0.0
C740 C 0.58336 0.17074 0.80321 0.0
C741 C 0.57416 0.16611 0.71971 0.0
N742 N 0.53384 0.15011 0.61719 0.0
N743 N 0.56727 0.15826 0.94493 0.0
C744 C 0.54262 0.15598 0.6977 0.0
C745 C 0.5601 0.16086 0.86523 0.0
N746 N 0.49171 0.14738 0.7401 0.0
N747 N 0.6144 0.18433 0.82327 0.0
H748 H 0.5508 0.15056 0.992 0.0
H749 H 0.58863 0.1608 0.96342 0.0
H750 H 0.63204 0.19156 0.77942 0.0
H751 H 0.62301 0.19122 0.88256 0.0
H752 H 0.48546 0.15002 0.6808 0.0
H753 H 0.47483 0.14369 0.78397 0.0
H754 H 0.5106 0.13903 0.59768 0.0
H755 H 0.54996 0.15516 0.56996 0.0
C756 C 0.84414 0.42702 0.86354 0.0
C757 C 0.8486 0.40153 0.84148 0.0
C758 C 0.84192 0.41017 0.69614 0.0
C759 C 0.83566 0.43438 0.71917 0.0
N760 N 0.82487 0.46199 0.82455 0.0
N761 N 0.84662 0.36517 0.73905 0.0
C762 C 0.83472 0.44141 0.80297 0.0
C763 C 0.84609 0.39203 0.75827 0.0
N764 N 0.85018 0.43832 0.9421 0.0
N765 N 0.84455 0.40509 0.61492 0.0
H766 H 0.85018 0.35171 0.78287 0.0
H767 H 0.84149 0.35507 0.68087 0.0
H768 H 0.83996 0.41688 0.56832 0.0
H769 H 0.85263 0.39039 0.5939 0.0
H770 H 0.85066 0.45892 0.96023 0.0
H771 H 0.85771 0.42875 0.98788 0.0
H772 H 0.82065 0.46578 0.88484 0.0
H773 H 0.81804 0.47317 0.78155 0.0
C774 C 0.56541 0.44937 0.85787 0.0
C775 C 0.59551 0.4746 0.83737 0.0
C776 C 0.5906 0.45209 0.69967 0.0
C777 C 0.56157 0.42569 0.72321 0.0
N778 N 0.5245 0.39579 0.82948 0.0
N779 N 0.63879 0.49877 0.74288 0.0
C780 C 0.55009 0.42328 0.80411 0.0
C781 C 0.60877 0.47562 0.75931 0.0
N782 N 0.55105 0.45095 0.9278 0.0
N783 N 0.6002 0.45506 0.61999 0.0
H784 H 0.65203 0.51703 0.78395 0.0
H785 H 0.65107 0.49903 0.69074 0.0
H786 H 0.58793 0.43753 0.57633 0.0
H787 H 0.61935 0.47532 0.59638 0.0
H788 H 0.52796 0.43462 0.94302 0.0
H789 H 0.56121 0.47067 0.9659 0.0
H790 H 0.51664 0.39148 0.88994 0.0
H791 H 0.51299 0.37604 0.7916 0.0
C792 C 0.43508 0.20732 0.38214 0.0
C793 C 0.45612 0.20977 0.31997 0.0
C794 C 0.49371 0.26417 0.36187 0.0
C795 C 0.47265 0.26176 0.42425 0.0
N796 N 0.42653 0.2296 0.50547 0.0
N797 N 0.50789 0.23756 0.25996 0.0
C798 C 0.44439 0.23272 0.43817 0.0
C799 C 0.48631 0.23721 0.31325 0.0
N800 N 0.40588 0.18113 0.38585 0.0
N801 N 0.51963 0.29272 0.34518 0.0
H802 H 0.50303 0.21901 0.22018 0.0
H803 H 0.53135 0.25526 0.25914 0.0
H804 H 0.5262 0.31284 0.38032 0.0
H805 H 0.53365 0.29708 0.2936 0.0
H806 H 0.38801 0.17923 0.42354 0.0
H807 H 0.39883 0.16175 0.34723 0.0
H808 H 0.40734 0.20834 0.52407 0.0
H809 H 0.43245 0.24792 0.54693 0.0
C810 C 0.79086 0.25157 0.38178 0.0
C811 C 0.78909 0.27079 0.3197 0.0
C812 C 0.73599 0.2567 0.36394 0.0
C813 C 0.73763 0.23726 0.4259 0.0
N814 N 0.76838 0.22111 0.50592 0.0
N815 N 0.76332 0.29725 0.26118 0.0
C816 C 0.76581 0.23647 0.4388 0.0
C817 C 0.76277 0.27529 0.31426 0.0
N818 N 0.81599 0.24696 0.38437 0.0
N819 N 0.70822 0.25569 0.34862 0.0
H820 H 0.78171 0.31028 0.22061 0.0
H821 H 0.74658 0.30427 0.26128 0.0
H822 H 0.68832 0.24299 0.38478 0.0
H823 H 0.70425 0.26591 0.29733 0.0
H824 H 0.8172 0.23041 0.42203 0.0
H825 H 0.8351 0.25849 0.34485 0.0
H826 H 0.78908 0.22197 0.52363 0.0
H827 H 0.75023 0.20939 0.54805 0.0
C828 C 0.75937 0.55075 0.4394 0.0
C829 C 0.75996 0.52243 0.42451 0.0
C830 C 0.72266 0.50959 0.31164 0.0
C831 C 0.72605 0.5401 0.31875 0.0
N832 N 0.74747 0.5901 0.38729 0.0
N833 N 0.74365 0.47544 0.34439 0.0
C834 C 0.74409 0.56068 0.38269 0.0
C835 C 0.7415 0.50162 0.3611 0.0
N836 N 0.77366 0.56812 0.50799 0.0
N837 N 0.70146 0.48825 0.25736 0.0
H838 H 0.75658 0.46842 0.38038 0.0
H839 H 0.73412 0.46161 0.29225 0.0
H840 H 0.68806 0.49348 0.21766 0.0
H841 H 0.69534 0.46459 0.25584 0.0
H842 H 0.77181 0.58739 0.52696 0.0
H843 H 0.78546 0.56167 0.54995 0.0
H844 H 0.76314 0.60771 0.42656 0.0
H845 H 0.73578 0.59762 0.34795 0.0
C846 C 0.43122 0.84811 0.28639 0.0
C847 C 0.41017 0.859 0.26798 0.0
C848 C 0.43866 0.8833 0.14057 0.0
C849 C 0.45805 0.87016 0.15521 0.0
N850 N 0.47164 0.83775 0.23714 0.0
N851 N 0.38994 0.88178 0.17114 0.0
C852 C 0.45397 0.85185 0.22682 0.0
C853 C 0.41285 0.87518 0.1932 0.0
N854 N 0.43019 0.8353 0.3617 0.0
N855 N 0.44504 0.90371 0.07646 0.0
H856 H 0.37035 0.87581 0.20746 0.0
H857 H 0.3887 0.89042 0.11368 0.0
H858 H 0.46345 0.90978 0.03558 0.0
H859 H 0.43387 0.91676 0.06782 0.0
H860 H 0.44703 0.83005 0.38257 0.0
H861 H 0.41334 0.83162 0.40564 0.0
H862 H 0.46745 0.82113 0.28259 0.0
H863 H 0.4898 0.84176 0.19739 0.0
C864 C 0.12967 0.56658 0.1938 0.0
C865 C 0.1408 0.57975 0.27263 0.0
C866 C 0.13969 0.62739 0.23183 0.0
C867 C 0.12611 0.6129 0.1556 0.0
N868 N 0.10194 0.5665 0.071 0.0
N869 N 0.15346 0.6209 0.37115 0.0
C870 C 0.11922 0.58179 0.13878 0.0
C871 C 0.14513 0.60978 0.29297 0.0
N872 N 0.12965 0.53969 0.17117 0.0
N873 N 0.14764 0.65804 0.24506 0.0
H874 H 0.15869 0.60895 0.41584 0.0
H875 H 0.15375 0.64102 0.39276 0.0
H876 H 0.14186 0.67061 0.20376 0.0
H877 H 0.16086 0.67126 0.295 0.0
H878 H 0.12463 0.53058 0.11188 0.0
H879 H 0.13771 0.52819 0.20964 0.0
H880 H 0.09336 0.54263 0.05975 0.0
H881 H 0.09353 0.57696 0.0301 0.0
C882 C 0.37649 0.53919 0.23971 0.0
C883 C 0.39033 0.53777 0.1647 0.0
C884 C 0.43969 0.5845 0.2026 0.0
C885 C 0.42642 0.58539 0.27918 0.0
N886 N 0.38412 0.56183 0.3765 0.0
N887 N 0.43631 0.55417 0.08191 0.0
C888 C 0.39528 0.56222 0.29955 0.0
C889 C 0.42238 0.55889 0.1486 0.0
N890 N 0.34534 0.51868 0.25287 0.0
N891 N 0.46855 0.60881 0.18041 0.0
H892 H 0.4242 0.53538 0.0415 0.0
H893 H 0.46034 0.56684 0.07099 0.0
H894 H 0.482 0.62824 0.21796 0.0
H895 H 0.47806 0.61127 0.12206 0.0
H896 H 0.33286 0.5201 0.30245 0.0
H897 H 0.33157 0.50054 0.212 0.0
H898 H 0.36278 0.54385 0.39852 0.0
H899 H 0.39715 0.57893 0.42045 0.0
C900 C 0.52887 0.80806 0.58684 0.0
C901 C 0.51751 0.80328 0.66846 0.0
C902 C 0.48609 0.74615 0.64501 0.0
C903 C 0.49854 0.75076 0.56479 0.0
N904 N 0.52493 0.78532 0.45154 0.0
N905 N 0.47827 0.76953 0.76694 0.0
C906 C 0.51759 0.78164 0.53309 0.0
C907 C 0.49384 0.77283 0.69492 0.0
N908 N 0.55132 0.83753 0.56212 0.0
N909 N 0.46824 0.71619 0.67491 0.0
H910 H 0.48307 0.78849 0.80512 0.0
H911 H 0.4587 0.74852 0.78533 0.0
H912 H 0.46087 0.69621 0.63838 0.0
H913 H 0.46198 0.71109 0.73638 0.0
H914 H 0.5629 0.84226 0.50609 0.0
H915 H 0.55971 0.85726 0.60005 0.0
H916 H 0.53688 0.80708 0.4221 0.0
H917 H 0.51641 0.76608 0.41173 0.0
C918 C 0.251 0.76362 0.64322 0.0
C919 C 0.24684 0.77188 0.56284 0.0
C920 C 0.18991 0.74591 0.58424 0.0
C921 C 0.19425 0.73874 0.66581 0.0
N922 N 0.22707 0.73205 0.76467 0.0
N923 N 0.21293 0.76485 0.44925 0.0
C924 C 0.22426 0.74485 0.69269 0.0
C925 C 0.21632 0.76081 0.53082 0.0
N926 N 0.28062 0.77515 0.67365 0.0
N927 N 0.16087 0.73962 0.55921 0.0
H928 H 0.23212 0.77536 0.4096 0.0
H929 H 0.19139 0.7555 0.41961 0.0
H930 H 0.14115 0.7284 0.59685 0.0
H931 H 0.15652 0.74696 0.50325 0.0
H932 H 0.28542 0.77369 0.73524 0.0
H933 H 0.30063 0.78761 0.63752 0.0
H934 H 0.2477 0.73291 0.78324 0.0
H935 H 0.20806 0.71801 0.80261 0.0
C936 C 0.24767 0.51064 0.57993 0.0
C937 C 0.21485 0.49521 0.59294 0.0
C938 C 0.2193 0.46081 0.69421 0.0
C939 C 0.25241 0.4788 0.69058 0.0
N940 N 0.2977 0.528 0.64495 0.0
N941 N 0.17232 0.46395 0.68691 0.0
C942 C 0.2667 0.50581 0.63758 0.0
C943 C 0.20163 0.47304 0.65813 0.0
N944 N 0.26076 0.52906 0.51226 0.0
N945 N 0.20443 0.4315 0.72918 0.0
H946 H 0.15941 0.47416 0.6663 0.0
H947 H 0.16281 0.44937 0.7381 0.0
H948 H 0.21637 0.42021 0.74957 0.0
H949 H 0.18012 0.41696 0.72769 0.0
H950 H 0.28423 0.53808 0.49652 0.0
H951 H 0.24772 0.53303 0.46841 0.0
H952 H 0.30802 0.54901 0.61159 0.0
H953 H 0.31219 0.52769 0.69098 0.0
C954 C 0.23081 0.4997 0.21871 0.0
C955 C 0.19994 0.49104 0.19291 0.0
C956 C 0.21666 0.49588 0.04918 0.0
C957 C 0.24776 0.50608 0.07567 0.0
N958 N 0.28597 0.52532 0.18406 0.0
N959 N 0.16526 0.48775 0.08365 0.0
C960 C 0.25532 0.5107 0.16001 0.0
C961 C 0.19329 0.49106 0.10803 0.0
N962 N 0.23641 0.49576 0.29889 0.0
N963 N 0.20938 0.49014 0.96778 0.0
H964 H 0.14767 0.48438 0.12473 0.0
H965 H 0.16042 0.4909 0.02327 0.0
H966 H 0.22637 0.49535 0.92287 0.0
H967 H 0.1865 0.47897 0.94543 0.0
H968 H 0.25775 0.49882 0.31969 0.0
H969 H 0.2188 0.48617 0.34322 0.0
H970 H 0.2931 0.53241 0.24426 0.0
H971 H 0.30441 0.53338 0.14227 0.0
C972 C 0.49893 0.72095 0.11296 0.0
C973 C 0.51808 0.73564 0.18288 0.0
C974 C 0.52344 0.7862 0.1423 0.0
C975 C 0.50664 0.77223 0.06875 0.0
N976 N 0.48138 0.72748 0.97856 0.0
N977 N 0.55227 0.78285 0.25869 0.0
C978 C 0.49501 0.73983 0.05264 0.0
C979 C 0.53155 0.76849 0.19569 0.0
N980 N 0.48431 0.6889 0.10476 0.0
N981 N 0.53074 0.81625 0.16238 0.0
H982 H 0.55818 0.77058 0.30065 0.0
H983 H 0.56558 0.80723 0.26573 0.0
H984 H 0.52494 0.82995 0.12528 0.0
H985 H 0.53984 0.8266 0.21904 0.0
H986 H 0.46719 0.67628 0.06082 0.0
H987 H 0.48827 0.67466 0.1449 0.0
H988 H 0.47558 0.70498 0.959 0.0
H989 H 0.47755 0.74056 0.93417 0.0
C990 C 0.23002 0.7869 0.19126 0.0
C991 C 0.26261 0.80621 0.17742 0.0
C992 C 0.25759 0.77917 0.04639 0.0
C993 C 0.22549 0.75837 0.06371 0.0
N994 N 0.18245 0.73814 0.15953 0.0
N995 N 0.30856 0.81914 0.09725 0.0
C996 C 0.2121 0.76106 0.13823 0.0
C997 C 0.27676 0.80183 0.1065 0.0
N998 N 0.21611 0.79341 0.25485 0.0
N999 N 0.26939 0.77801 0.97154 0.0
H1000 H 0.32296 0.83717 0.13752 0.0
H1001 H 0.32079 0.8147 0.05227 0.0
H1002 H 0.25609 0.76115 0.92738 0.0
H1003 H 0.29166 0.79475 0.95129 0.0
H1004 H 0.19193 0.78233 0.26278 0.0
H1005 H 0.22854 0.8118 0.29612 0.0
H1006 H 0.17253 0.73686 0.21676 0.0
H1007 H 0.16873 0.71852 0.12283 0.0
C1008 C 0.16027 0.60058 0.68558 0.0
C1009 C 0.1483 0.59582 0.76636 0.0
C1010 C 0.11766 0.53859 0.74337 0.0
C1011 C 0.1286 0.54354 0.66135 0.0
N1012 N 0.16741 0.57742 0.56234 0.0
N1013 N 0.12259 0.56101 0.87952 0.0
C1014 C 0.1522 0.57402 0.63498 0.0
C1015 C 0.12934 0.56489 0.79771 0.0
N1016 N 0.17811 0.6306 0.65605 0.0
N1017 N 0.09534 0.50907 0.76807 0.0
H1018 H 0.13161 0.58017 0.91964 0.0
H1019 H 0.11075 0.53916 0.90858 0.0
H1020 H 0.08683 0.48942 0.72977 0.0
H1021 H 0.08404 0.50422 0.82454 0.0
H1022 H 0.18402 0.63583 0.59443 0.0
H1023 H 0.18582 0.6505 0.69314 0.0
H1024 H 0.1869 0.59844 0.54362 0.0
H1025 H 0.16238 0.55846 0.52397 0.0
C1026 C 0.40567 0.59324 0.70805 0.0
C1027 C 0.40774 0.57537 0.77343 0.0
C1028 C 0.46356 0.59583 0.74294 0.0
C1029 C 0.4602 0.61004 0.67089 0.0
N1030 N 0.42836 0.62218 0.58198 0.0
N1031 N 0.43796 0.55935 0.85588 0.0
C1032 C 0.43142 0.60907 0.65318 0.0
C1033 C 0.43667 0.57692 0.79227 0.0
N1034 N 0.37895 0.59484 0.69847 0.0
N1035 N 0.49248 0.60071 0.76422 0.0
H1036 H 0.41919 0.54676 0.89583 0.0
H1037 H 0.45699 0.55624 0.86759 0.0
H1038 H 0.51235 0.61401 0.7282 0.0
H1039 H 0.49736 0.59354 0.81975 0.0
H1040 H 0.37664 0.60962 0.65663 0.0
H1041 H 0.35976 0.58323 0.73767 0.0
H1042 H 0.40716 0.61917 0.56042 0.0
H1043 H 0.44678 0.63468 0.54106 0.0
C1044 C 0.39544 0.88029 0.74482 0.0
C1045 C 0.3883 0.86861 0.66346 0.0
C1046 C 0.41176 0.83539 0.6885 0.0
C1047 C 0.42006 0.84801 0.76859 0.0
N1048 N 0.41404 0.87623 0.88049 0.0
N1049 N 0.38121 0.82852 0.56571 0.0
C1050 C 0.40975 0.86833 0.79926 0.0
C1051 C 0.3938 0.84405 0.63779 0.0
N1052 N 0.38966 0.90361 0.76868 0.0
N1053 N 0.42252 0.81639 0.65956 0.0
H1054 H 0.36789 0.8341 0.52668 0.0
H1055 H 0.38161 0.80834 0.54783 0.0
H1056 H 0.43428 0.80829 0.69678 0.0
H1057 H 0.4211 0.80987 0.59825 0.0
H1058 H 0.39691 0.91541 0.82445 0.0
H1059 H 0.3789 0.91245 0.73027 0.0
H1060 H 0.40535 0.88918 0.90931 0.0
H1061 H 0.42421 0.86732 0.92082 0.0
C1062 C 0.03493 0.33123 0.60723 0.0
C1063 C 0.04899 0.31217 0.60207 0.0
C1064 C 0.09158 0.35294 0.51901 0.0
C1065 C 0.07586 0.37056 0.51793 0.0
N1066 N 0.0289 0.37274 0.54483 0.0
N1067 N 0.08713 0.3018 0.53872 0.0
C1068 C 0.04635 0.3585 0.55706 0.0
C1069 C 0.0763 0.3221 0.55371 0.0
N1070 N 0.01174 0.32424 0.66319 0.0
N1071 N 0.12168 0.36612 0.49099 0.0
H1072 H 0.0764 0.27889 0.56211 0.0
H1073 H 0.10495 0.30666 0.49692 0.0
H1074 H 0.13401 0.38878 0.46624 0.0
H1075 H 0.13539 0.35564 0.49899 0.0
H1076 H 0.0027 0.33902 0.67502 0.0
H1077 H 0.00397 0.30539 0.70413 0.0
H1078 H 0.00593 0.36322 0.56562 0.0
H1079 H 0.03616 0.39228 0.50651 0.0
C1080 C 0.66998 0.73073 0.61737 0.0
C1081 C 0.6903 0.76356 0.60598 0.0
C1082 C 0.65054 0.76637 0.52166 0.0
C1083 C 0.63122 0.73312 0.5281 0.0
N1084 N 0.62552 0.68284 0.56579 0.0
N1085 N 0.70286 0.81162 0.53406 0.0
C1086 C 0.64187 0.71503 0.57101 0.0
C1087 C 0.68146 0.78112 0.55412 0.0
N1088 N 0.67674 0.71484 0.67543 0.0
N1089 N 0.63892 0.78405 0.48828 0.0
H1090 H 0.72581 0.8232 0.55623 0.0
H1091 H 0.69876 0.82447 0.48972 0.0
H1092 H 0.61632 0.77425 0.46431 0.0
H1093 H 0.65073 0.80861 0.49054 0.0
H1094 H 0.66123 0.69154 0.69212 0.0
H1095 H 0.69655 0.72588 0.71282 0.0
H1096 H 0.63384 0.6686 0.58911 0.0
H1097 H 0.60512 0.67052 0.53092 0.0
C1098 C 0.2374 0.94825 0.52328 0.0
C1099 C 0.23311 0.94607 0.60975 0.0
C1100 C 0.25229 0.90881 0.61456 0.0
C1101 C 0.26263 0.91608 0.53184 0.0
N1102 N 0.26895 0.94786 0.411 0.0
N1103 N 0.24359 0.92924 0.73993 0.0
C1104 C 0.25622 0.93716 0.4868 0.0
C1105 C 0.24252 0.92772 0.65621 0.0
N1106 N 0.22252 0.95962 0.47522 0.0
N1107 N 0.25043 0.88305 0.65267 0.0
H1108 H 0.23868 0.94436 0.77334 0.0
H1109 H 0.25295 0.91818 0.77533 0.0
H1110 H 0.2546 0.86681 0.62227 0.0
H1111 H 0.24074 0.87567 0.71092 0.0
H1112 H 0.22274 0.95892 0.41131 0.0
H1113 H 0.20693 0.96615 0.49855 0.0
H1114 H 0.26747 0.96582 0.38059 0.0
H1115 H 0.28353 0.94134 0.38172 0.0
C1116 C 0.30887 0.0471 0.88772 0.0
C1117 C 0.29631 0.06519 0.85435 0.0
C1118 C 0.34409 0.11387 0.89387 0.0
C1119 C 0.35473 0.09566 0.93651 0.0
N1120 N 0.3448 0.04486 0.98522 0.0
N1121 N 0.29976 0.11576 0.83597 0.0
C1122 C 0.33652 0.06221 0.93622 0.0
C1123 C 0.31337 0.09862 0.85978 0.0
N1124 N 0.29474 0.01552 0.87128 0.0
N1125 N 0.36371 0.14558 0.88329 0.0
H1126 H 0.27733 0.10556 0.81074 0.0
H1127 H 0.30968 0.13981 0.84743 0.0
H1128 H 0.38657 0.15758 0.906 0.0
H1129 H 0.35838 0.15941 0.84544 0.0
H1130 H 0.30454 0.00169 0.88698 0.0
H1131 H 0.27476 0.00378 0.83463 0.0
H1132 H 0.33057 0.02065 0.99422 0.0
H1133 H 0.3645 0.05498 0.02315 0.0
C1134 C 0.92337 0.27264 0.81246 0.0
C1135 C 0.93097 0.25226 0.85641 0.0
C1136 C 0.91082 0.26263 0.98274 0.0
C1137 C 0.90089 0.28087 0.93792 0.0
N1138 N 0.88971 0.29533 0.80535 0.0
N1139 N 0.92118 0.21953 0.97661 0.0
C1140 C 0.9048 0.28359 0.85127 0.0
C1141 C 0.9214 0.24469 0.93955 0.0
N1142 N 0.9347 0.28264 0.73516 0.0
N1143 N 0.91162 0.26339 0.06655 0.0
H1144 H 0.9265 0.20427 0.94533 0.0
H1145 H 0.91187 0.21155 0.03493 0.0
H1146 H 0.90572 0.27754 0.10107 0.0
H1147 H 0.9215 0.25267 0.10122 0.0
H1148 H 0.93281 0.30038 0.70491 0.0
H1149 H 0.94823 0.2753 0.70367 0.0
H1150 H 0.88941 0.29495 0.74142 0.0
H1151 H 0.87458 0.3021 0.83058 0.0
C1152 C 0.75695 0.7028 0.94199 0.0
C1153 C 0.74992 0.70536 0.85865 0.0
C1154 C 0.71834 0.64764 0.85213 0.0
C1155 C 0.72052 0.64593 0.93883 0.0
N1156 N 0.73745 0.67359 0.06821 0.0
N1157 N 0.71994 0.67942 0.73664 0.0
C1158 C 0.73868 0.67396 0.98444 0.0
C1159 C 0.72963 0.67757 0.81396 0.0
N1160 N 0.78187 0.72752 0.98 0.0
N1161 N 0.7067 0.62091 0.80562 0.0
H1162 H 0.72729 0.70061 0.7058 0.0
H1163 H 0.70234 0.65992 0.70584 0.0
H1164 H 0.69967 0.59871 0.83049 0.0
H1165 H 0.7074 0.62133 0.7417 0.0
H1166 H 0.78942 0.72577 0.03855 0.0
H1167 H 0.79729 0.74833 0.9494 0.0
H1168 H 0.74809 0.69412 0.10333 0.0
H1169 H 0.72306 0.65334 0.10218 0.0
C1170 C 0.93497 0.65751 0.42984 0.0
C1171 C 0.90558 0.64588 0.46942 0.0
C1172 C 0.90613 0.69493 0.43525 0.0
C1173 C 0.93329 0.70453 0.38646 0.0
N1174 N 0.97003 0.6919 0.32453 0.0
N1175 N 0.86033 0.6512 0.49738 0.0
C1176 C 0.94685 0.68504 0.38047 0.0
C1177 C 0.89038 0.66399 0.46921 0.0
N1178 N 0.95188 0.64262 0.4408 0.0
N1179 N 0.89592 0.71564 0.45153 0.0
H1180 H 0.84765 0.62846 0.5215 0.0
H1181 H 0.84698 0.6621 0.48999 0.0
H1182 H 0.90708 0.73871 0.42915 0.0
H1183 H 0.87822 0.71094 0.49362 0.0
H1184 H 0.97482 0.65188 0.42013 0.0
H1185 H 0.9442 0.62266 0.47774 0.0
H1186 H 0.97867 0.67683 0.31193 0.0
H1187 H 0.9783 0.71104 0.2844 0.0
C1188 C 0.29573 0.25892 0.46968 0.0
C1189 C 0.29327 0.2529 0.3838 0.0
C1190 C 0.34949 0.27174 0.37954 0.0
C1191 C 0.3528 0.28286 0.46141 0.0
N1192 N 0.32884 0.29237 0.57903 0.0
N1193 N 0.3201 0.26145 0.25388 0.0
C1194 C 0.32586 0.27793 0.5053 0.0
C1195 C 0.32079 0.2615 0.33769 0.0
N1196 N 0.26963 0.24547 0.51817 0.0
N1197 N 0.37329 0.26981 0.34238 0.0
H1198 H 0.30012 0.25634 0.22016 0.0
H1199 H 0.34032 0.27021 0.21827 0.0
H1200 H 0.39397 0.27499 0.37268 0.0
H1201 H 0.3708 0.25935 0.28513 0.0
H1202 H 0.27075 0.24702 0.58198 0.0
H1203 H 0.24729 0.22975 0.49591 0.0
H1204 H 0.30992 0.2918 0.60909 0.0
H1205 H 0.35043 0.30762 0.60595 0.0
C1206 C 0.71091 0.05097 0.38078 0.0
C1207 C 0.74395 0.06528 0.38678 0.0
C1208 C 0.7457 0.10762 0.47096 0.0
C1209 C 0.71241 0.09161 0.47115 0.0
N1210 N 0.66331 0.0444 0.44193 0.0
N1211 N 0.79226 0.10356 0.45192 0.0
C1212 C 0.69501 0.06211 0.43088 0.0
C1213 C 0.76124 0.09256 0.4361 0.0
N1214 N 0.69483 0.02783 0.32411 0.0
N1215 N 0.76257 0.13778 0.50001 0.0
H1216 H 0.80443 0.09297 0.42862 0.0
H1217 H 0.80512 0.12133 0.49434 0.0
H1218 H 0.75224 0.14993 0.52504 0.0
H1219 H 0.78674 0.15177 0.49265 0.0
H1220 H 0.67109 0.01865 0.31164 0.0
H1221 H 0.70592 0.02024 0.28328 0.0
H1222 H 0.64987 0.02138 0.42039 0.0
H1223 H 0.65099 0.05149 0.47994 0.0
C1224 C 0.65629 0.92888 -0.00142 0.0
C1225 C 0.62808 0.91813 0.0432 0.0
C1226 C 0.65868 0.93948 0.16986 0.0
C1227 C 0.68672 0.94796 0.12603 0.0
N1228 N 0.70968 0.9397 0.00432 0.0
N1229 N 0.60255 0.90445 0.17569 0.0
C1230 C 0.68476 0.93929 0.04204 0.0
C1231 C 0.62926 0.92082 0.13024 0.0
N1232 N 0.65639 0.93058 0.9149 0.0
N1233 N 0.65977 0.9501 0.24786 0.0
H1234 H 0.58078 0.88902 0.1498 0.0
H1235 H 0.6027 0.90331 0.23954 0.0
H1236 H 0.68053 0.96399 0.27974 0.0
H1237 H 0.63999 0.94742 0.27823 0.0
H1238 H 0.677 0.94109 0.88059 0.0
H1239 H 0.63639 0.92475 0.8804 0.0
H1240 H 0.7084 0.93106 0.94519 0.0
H1241 H 0.73017 0.94479 0.03552 0.0
C1242 C 0.06056 0.77297 0.04275 0.0
C1243 C 0.05182 0.76573 0.12659 0.0
C1244 C 0.07957 0.73594 0.13016 0.0
C1245 C 0.08224 0.73773 0.04314 0.0
N1246 N 0.0692 0.75362 0.91521 0.0
N1247 N 0.04959 0.7357 0.24734 0.0
C1248 C 0.07117 0.75515 -0.00114 0.0
C1249 C 0.0605 0.74606 0.16992 0.0
N1250 N 0.05995 0.79767 0.00555 0.0
N1251 N 0.09617 0.72575 0.17541 0.0
H1252 H 0.03498 0.74169 0.27875 0.0
H1253 H 0.05267 0.71862 0.27729 0.0
H1254 H 0.1119 0.71994 0.1493 0.0
H1255 H 0.09714 0.72674 0.23929 0.0
H1256 H 0.06855 0.80533 0.94651 0.0
H1257 H 0.05472 0.81294 0.03712 0.0
H1258 H 0.05848 0.76372 0.8814 0.0
H1259 H 0.07497 0.73947 0.88031 0.0
C1260 C 0.22454 0.31546 0.0514 0.0
C1261 C 0.23391 0.31199 0.13144 0.0
C1262 C 0.26849 0.36923 0.13847 0.0
C1263 C 0.26339 0.37179 0.0535 0.0
N1264 N 0.24071 0.34531 0.92521 0.0
N1265 N 0.2695 0.33559 0.24574 0.0
C1266 C 0.24247 0.34436 0.00875 0.0
C1267 C 0.25713 0.33888 0.17382 0.0
N1268 N 0.19792 0.29156 0.01692 0.0
N1269 N 0.283 0.3956 0.18645 0.0
H1270 H 0.26276 0.31378 0.2726 0.0
H1271 H 0.28874 0.35437 0.27426 0.0
H1272 H 0.29 0.41819 0.16445 0.0
H1273 H 0.28469 0.3946 0.25002 0.0
H1274 H 0.18869 0.29408 0.96171 0.0
H1275 H 0.18311 0.27064 0.04795 0.0
H1276 H 0.22791 0.32512 0.8897 0.0
H1277 H 0.25465 0.36552 0.89065 0.0
C1278 C -0.0114 0.4085 0.1505 0.0
C1279 C 0.96087 0.40069 0.19488 0.0
C1280 C -0.008 0.42062 0.32052 0.0
C1281 C 0.02008 0.43199 0.27464 0.0
N1282 N 0.04434 0.44475 0.14029 0.0
N1283 N 0.93874 0.41004 0.31682 0.0
C1284 C 0.01823 0.42835 0.18781 0.0
C1285 C 0.96333 0.41005 0.2783 0.0
N1286 N -0.013 0.396 0.07464 0.0
N1287 N -0.00788 0.41825 0.40404 0.0
H1288 H 0.9181 0.40495 0.28645 0.0
H1289 H 0.94054 0.41904 0.37575 0.0
H1290 H 0.01207 0.42325 0.43774 0.0
H1291 H 0.97156 0.40755 0.43859 0.0
H1292 H 0.00678 0.3989 0.04379 0.0
H1293 H 0.96596 0.38 0.0465 0.0
H1294 H 0.04343 0.44472 0.07638 0.0
H1295 H 0.06609 0.46133 0.16416 0.0
C1296 C 0.61998 0.6207 0.22802 0.0
C1297 C 0.60213 0.58993 0.19473 0.0
C1298 C 0.55376 0.58719 0.24351 0.0
C1299 C 0.57197 0.61638 0.28481 0.0
N1300 N 0.62264 0.6586 0.32759 0.0
N1301 N 0.55243 0.54166 0.18124 0.0
C1302 C 0.60518 0.63256 0.27998 0.0
C1303 C 0.56907 0.57257 0.20492 0.0
N1304 N 0.65097 0.63892 0.20809 0.0
N1305 N 0.52193 0.574 0.2385 0.0
H1306 H 0.56268 0.53006 0.15258 0.0
H1307 H 0.52891 0.52681 0.19586 0.0
H1308 H 0.50982 0.58399 0.26568 0.0
H1309 H 0.50783 0.55465 0.20151 0.0
H1310 H 0.66449 0.66266 0.22369 0.0
H1311 H 0.66244 0.63117 0.16894 0.0
H1312 H 0.6469 0.66942 0.33327 0.0
H1313 H 0.61269 0.6677 0.36763 0.0
C1314 C 0.41029 0.98826 0.23597 0.0
C1315 C 0.3832 0.97912 0.28472 0.0
C1316 C 0.38064 0.02499 0.23481 0.0
C1317 C 0.40982 0.03626 0.19438 0.0
N1318 N 0.45524 0.03108 0.16809 0.0
N1319 N 0.34636 -0.00785 0.34354 0.0
C1320 C 0.42541 0.01851 0.19766 0.0
C1321 C 0.36935 -0.0016 0.28757 0.0
N1322 N 0.42104 0.96771 0.22403 0.0
N1323 N 0.36331 0.03929 0.22127 0.0
H1324 H 0.3387 0.97378 0.38597 0.0
H1325 H 0.33739 0.00709 0.3538 0.0
H1326 H 0.37048 0.0584 0.18141 0.0
H1327 H 0.3405 0.03022 0.2428 0.0
H1328 H 0.43853 0.97175 0.1819 0.0
H1329 H 0.41067 0.94538 0.25088 0.0
H1330 H 0.46897 0.02069 0.17735 0.0
H1331 H 0.46735 0.05322 0.14036 0.0
C1332 C 0.55656 0.97983 0.70593 0.0
C1333 C 0.55712 0.97716 0.79263 0.0
C1334 C 0.58749 0.03517 0.80208 0.0
C1335 C 0.59158 0.03683 0.71535 0.0
N1336 N 0.5835 0.00993 0.5858 0.0
N1337 N 0.55948 0.00343 0.92029 0.0
C1338 C 0.5769 0.00898 0.66753 0.0
C1339 C 0.56893 0.00514 0.8407 0.0
N1340 N 0.53448 0.95523 0.66061 0.0
N1341 N 0.60096 0.06231 0.84743 0.0
H1342 H 0.54089 0.98321 0.94558 0.0
H1343 H 0.56614 0.02286 0.958 0.0
H1344 H 0.61111 0.08478 0.82156 0.0
H1345 H 0.60327 0.06284 0.91095 0.0
H1346 H 0.53138 0.95684 0.59788 0.0
H1347 H 0.51624 0.93503 0.68767 0.0
H1348 H 0.57592 0.98965 0.55052 0.0
H1349 H 0.59917 0.03062 0.55515 0.0
C1350 C 0.00696 0.63461 0.76029 0.0
C1351 C 0.01913 0.61646 0.79553 0.0
C1352 C 0.97047 0.56775 0.7615 0.0
C1353 C 0.95988 0.5858 0.71794 0.0
N1354 N 0.96982 0.63615 0.66562 0.0
N1355 N 0.01464 0.56578 0.82034 0.0
C1356 C 0.97855 0.6192 0.7148 0.0
C1357 C 0.00143 0.583 0.79396 0.0
N1358 N 0.02214 0.66653 0.77238 0.0
N1359 N 0.95056 0.53624 0.77445 0.0
H1360 H 0.0372 0.57602 0.84485 0.0
H1361 H 0.00425 0.5415 0.8119 0.0
H1362 H 0.92758 0.52427 0.75251 0.0
H1363 H 0.95579 0.52256 0.81317 0.0
H1364 H 0.01275 0.68062 0.75567 0.0
H1365 H 0.04285 0.67858 0.80615 0.0
H1366 H -0.01579 0.66012 0.65355 0.0
H1367 H 0.94926 0.6258 0.63097 0.0
C1368 C 0.40451 0.39606 0.7982 0.0
C1369 C 0.41104 0.40045 0.71267 0.0
C1370 C 0.39263 0.43843 0.71006 0.0
C1371 C 0.38111 0.42984 0.79146 0.0
N1372 N 0.36996 0.39406 0.90574 0.0
N1373 N 0.40331 0.42018 0.58357 0.0
C1374 C 0.38529 0.40682 0.83372 0.0
C1375 C 0.40282 0.42003 0.66737 0.0
N1376 N 0.4177 0.38303 0.84667 0.0
N1377 N 0.3952 0.46489 0.67433 0.0
H1378 H 0.40843 0.40542 0.54922 0.0
H1379 H 0.39489 0.43218 0.54847 0.0
H1380 H 0.39032 0.48051 0.70537 0.0
H1381 H 0.40591 0.4733 0.61755 0.0
H1382 H 0.41559 0.38194 0.91039 0.0
H1383 H 0.43379 0.37691 0.82485 0.0
H1384 H 0.37028 0.37518 0.93444 0.0
H1385 H 0.35412 0.39971 0.93178 0.0
loop_
_geom_bond_atom_site_label_1
_geom_bond_atom_site_label_2
_geom_bond_distance
_geom_bond_site_symmetry_2
_ccdc_geom_bond_type
O0 Zn1 1.953 1_455 S
O0 C16 1.225 . S
Zn1 O0 1.953 1_655 S
Zn1 O2 1.949 1_655 S
Zn1 O8 1.919 . S
Zn1 O13 1.924 . S
O2 Zn1 1.949 1_455 S
O2 Zn3 1.923 1_455 S
O2 Zn4 1.950 . S
O2 Zn5 1.945 1_455 S
Zn3 O2 1.923 1_655 S
Zn3 O6 1.933 . S
Zn3 O9 1.941 . S
Zn3 O10 1.965 1_655 S
Zn4 O2 1.950 . S
Zn4 O11 1.938 . S
Zn4 O12 1.906 . S
Zn4 O22 1.953 . S
Zn5 O2 1.945 1_655 S
Zn5 O7 1.932 . S
Zn5 O14 1.977 1_655 S
Zn5 O15 1.910 . S
O6 Zn3 1.933 . S
O6 C17 1.226 . S
O7 Zn5 1.932 . S
O7 C17 1.307 . S
O8 Zn1 1.919 . S
O8 C19 1.253 . S
O9 Zn3 1.941 . S
O9 C19 1.283 . S
O10 Zn3 1.965 1_455 S
O10 C18 1.303 . S
O11 Zn4 1.938 . S
O11 C18 1.247 . S
O12 Zn4 1.906 . S
O12 C20 1.304 . S
O13 Zn1 1.924 . S
O13 C21 1.311 . S
O14 Zn5 1.977 1_455 S
O14 C20 1.272 . S
O15 Zn5 1.910 . S
O15 C21 1.231 . S
C16 O0 1.225 . S
C16 O22 1.298 . S
C17 O6 1.226 . S
C17 O7 1.307 . S
C18 O10 1.303 . S
C18 O11 1.247 . S
C19 O8 1.253 . S
C19 O9 1.283 . S
C20 O12 1.304 . S
C20 O14 1.272 . S
C21 O13 1.311 . S
C21 O15 1.231 . S
O22 Zn4 1.953 . S
O22 C16 1.298 . S
O23 Zn24 1.953 . S
O23 C39 1.225 . S
Zn24 O23 1.953 . S
Zn24 O25 1.949 . S
Zn24 O31 1.919 . S
Zn24 O36 1.924 . S
O25 Zn24 1.949 . S
O25 Zn26 1.923 . S
O25 Zn27 1.950 . S
O25 Zn28 1.945 . S
Zn26 O25 1.923 . S
Zn26 O29 1.933 . S
Zn26 O32 1.941 . S
Zn26 O33 1.965 . S
Zn27 O25 1.950 . S
Zn27 O34 1.938 . S
Zn27 O35 1.906 . S
Zn27 O45 1.953 . S
Zn28 O25 1.945 . S
Zn28 O30 1.932 . S
Zn28 O37 1.977 . S
Zn28 O38 1.910 . S
O29 Zn26 1.933 . S
O29 C40 1.226 . S
O30 Zn28 1.932 . S
O30 C40 1.307 . S
O31 Zn24 1.919 . S
O31 C42 1.253 . S
O32 Zn26 1.941 . S
O32 C42 1.283 . S
O33 Zn26 1.965 . S
O33 C41 1.303 . S
O34 Zn27 1.938 . S
O34 C41 1.247 . S
O35 Zn27 1.906 . S
O35 C43 1.304 . S
O36 Zn24 1.924 . S
O36 C44 1.311 . S
O37 Zn28 1.977 . S
O37 C43 1.272 . S
O38 Zn28 1.910 . S
O38 C44 1.231 . S
C39 O23 1.225 . S
C39 O45 1.298 . S
C40 O29 1.226 . S
C40 O30 1.307 . S
C41 O33 1.303 . S
C41 O34 1.247 . S
C42 O31 1.253 . S
C42 O32 1.283 . S
C43 O35 1.304 . S
C43 O37 1.272 . S
C44 O36 1.311 . S
C44 O38 1.231 . S
O45 Zn27 1.953 . S
O45 C39 1.298 . S
O46 Zn47 1.953 . S
O46 C62 1.225 1_545 S
Zn47 O46 1.953 . S
Zn47 O48 1.949 . S
Zn47 O54 1.919 . S
Zn47 O59 1.924 . S
O48 Zn47 1.949 . S
O48 Zn49 1.923 . S
O48 Zn50 1.950 1_545 S
O48 Zn51 1.945 . S
Zn49 O48 1.923 . S
Zn49 O52 1.933 . S
Zn49 O55 1.941 . S
Zn49 O56 1.965 1_545 S
Zn50 O48 1.950 1_565 S
Zn50 O57 1.938 . S
Zn50 O58 1.906 . S
Zn50 O68 1.953 . S
Zn51 O48 1.945 . S
Zn51 O53 1.932 . S
Zn51 O60 1.977 1_545 S
Zn51 O61 1.910 . S
O52 Zn49 1.933 . S
O52 C63 1.226 . S
O53 Zn51 1.932 . S
O53 C63 1.307 . S
O54 Zn47 1.919 . S
O54 C65 1.253 . S
O55 Zn49 1.941 . S
O55 C65 1.283 . S
O56 Zn49 1.965 1_565 S
O56 C64 1.303 . S
O57 Zn50 1.938 . S
O57 C64 1.247 . S
O58 Zn50 1.906 . S
O58 C66 1.304 . S
O59 Zn47 1.924 . S
O59 C67 1.311 . S
O60 Zn51 1.977 1_565 S
O60 C66 1.272 . S
O61 Zn51 1.910 . S
O61 C67 1.231 . S
C62 O46 1.225 1_565 S
C62 O68 1.298 . S
C63 O52 1.226 . S
C63 O53 1.307 . S
C64 O56 1.303 . S
C64 O57 1.247 . S
C65 O54 1.253 . S
C65 O55 1.283 . S
C66 O58 1.304 . S
C66 O60 1.272 . S
C67 O59 1.311 . S
C67 O61 1.231 . S
O68 Zn50 1.953 . S
O68 C62 1.298 . S
O69 Zn70 1.953 . S
O69 C85 1.225 . S
Zn70 O69 1.953 . S
Zn70 O71 1.949 . S
Zn70 O77 1.919 . S
Zn70 O82 1.924 . S
O71 Zn70 1.949 . S
O71 Zn72 1.923 . S
O71 Zn73 1.950 . S
O71 Zn74 1.945 1_455 S
Zn72 O71 1.923 . S
Zn72 O75 1.933 1_455 S
Zn72 O78 1.941 . S
Zn72 O79 1.965 . S
Zn73 O71 1.950 . S
Zn73 O80 1.938 . S
Zn73 O81 1.906 1_455 S
Zn73 O91 1.953 . S
Zn74 O71 1.945 1_655 S
Zn74 O76 1.932 . S
Zn74 O83 1.977 . S
Zn74 O84 1.910 . S
O75 Zn72 1.933 1_655 S
O75 C86 1.226 . S
O76 Zn74 1.932 . S
O76 C86 1.307 . S
O77 Zn70 1.919 . S
O77 C88 1.253 . S
O78 Zn72 1.941 . S
O78 C88 1.283 . S
O79 Zn72 1.965 . S
O79 C87 1.303 . S
O80 Zn73 1.938 . S
O80 C87 1.247 . S
O81 Zn73 1.906 1_655 S
O81 C89 1.304 . S
O82 Zn70 1.924 . S
O82 C90 1.311 1_455 S
O83 Zn74 1.977 . S
O83 C89 1.272 . S
O84 Zn74 1.910 . S
O84 C90 1.231 . S
C85 O69 1.225 . S
C85 O91 1.298 . S
C86 O75 1.226 . S
C86 O76 1.307 . S
C87 O79 1.303 . S
C87 O80 1.247 . S
C88 O77 1.253 . S
C88 O78 1.283 . S
C89 O81 1.304 . S
C89 O83 1.272 . S
C90 O82 1.311 1_655 S
C90 O84 1.231 . S
O91 Zn73 1.953 . S
O91 C85 1.298 . S
O92 Zn93 1.953 . S
O92 C108 1.225 . S
Zn93 O92 1.953 . S
Zn93 O94 1.949 . S
Zn93 O100 1.919 . S
Zn93 O105 1.924 . S
O94 Zn93 1.949 . S
O94 Zn95 1.923 . S
O94 Zn96 1.950 . S
O94 Zn97 1.945 . S
Zn95 O94 1.923 . S
Zn95 O98 1.933 . S
Zn95 O101 1.941 . S
Zn95 O102 1.965 . S
Zn96 O94 1.950 . S
Zn96 O103 1.938 . S
Zn96 O104 1.906 . S
Zn96 O114 1.953 . S
Zn97 O94 1.945 . S
Zn97 O99 1.932 . S
Zn97 O106 1.977 . S
Zn97 O107 1.910 . S
O98 Zn95 1.933 . S
O98 C109 1.226 . S
O99 Zn97 1.932 . S
O99 C109 1.307 . S
O100 Zn93 1.919 . S
O100 C111 1.253 . S
O101 Zn95 1.941 . S
O101 C111 1.283 . S
O102 Zn95 1.965 . S
O102 C110 1.303 . S
O103 Zn96 1.938 . S
O103 C110 1.247 . S
O104 Zn96 1.906 . S
O104 C112 1.304 . S
O105 Zn93 1.924 . S
O105 C113 1.311 . S
O106 Zn97 1.977 . S
O106 C112 1.272 . S
O107 Zn97 1.910 . S
O107 C113 1.231 . S
C108 O92 1.225 . S
C108 O114 1.298 . S
C109 O98 1.226 . S
C109 O99 1.307 . S
C110 O102 1.303 . S
C110 O103 1.247 . S
C111 O100 1.253 . S
C111 O101 1.283 . S
C112 O104 1.304 . S
C112 O106 1.272 . S
C113 O105 1.311 . S
C113 O107 1.231 . S
O114 Zn96 1.953 . S
O114 C108 1.298 . S
O115 Zn116 1.953 . S
O115 C131 1.225 . S
Zn116 O115 1.953 . S
Zn116 O117 1.949 1_565 S
Zn116 O123 1.919 . S
Zn116 O128 1.924 1_565 S
O117 Zn116 1.949 1_545 S
O117 Zn118 1.923 1_545 S
O117 Zn119 1.950 . S
O117 Zn120 1.945 . S
Zn118 O117 1.923 1_565 S
Zn118 O121 1.933 1_565 S
Zn118 O124 1.941 . S
Zn118 O125 1.965 . S
Zn119 O117 1.950 . S
Zn119 O126 1.938 1_545 S
Zn119 O127 1.906 . S
Zn119 O137 1.953 1_545 S
Zn120 O117 1.945 . S
Zn120 O122 1.932 . S
Zn120 O129 1.977 . S
Zn120 O130 1.910 . S
O121 Zn118 1.933 1_545 S
O121 C132 1.226 . S
O122 Zn120 1.932 . S
O122 C132 1.307 . S
O123 Zn116 1.919 . S
O123 C134 1.253 . S
O124 Zn118 1.941 . S
O124 C134 1.283 . S
O125 Zn118 1.965 . S
O125 C133 1.303 . S
O126 Zn119 1.938 1_565 S
O126 C133 1.247 . S
O127 Zn119 1.906 . S
O127 C135 1.304 . S
O128 Zn116 1.924 1_545 S
O128 C136 1.311 . S
O129 Zn120 1.977 . S
O129 C135 1.272 . S
O130 Zn120 1.910 . S
O130 C136 1.231 . S
C131 O115 1.225 . S
C131 O137 1.298 . S
C132 O121 1.226 . S
C132 O122 1.307 . S
C133 O125 1.303 . S
C133 O126 1.247 . S
C134 O123 1.253 . S
C134 O124 1.283 . S
C135 O127 1.304 . S
C135 O129 1.272 . S
C136 O128 1.311 . S
C136 O130 1.231 . S
O137 Zn119 1.953 1_565 S
O137 C131 1.298 . S
O138 Zn139 1.953 1_556 S
O138 C154 1.225 . S
Zn139 O138 1.953 1_554 S
Zn139 O140 1.949 . S
Zn139 O146 1.919 1_554 S
Zn139 O151 1.924 . S
O140 Zn139 1.949 . S
O140 Zn141 1.923 . S
O140 Zn142 1.950 . S
O140 Zn143 1.945 . S
Zn141 O140 1.923 . S
Zn141 O144 1.933 . S
Zn141 O147 1.941 1_554 S
Zn141 O148 1.965 1_554 S
Zn142 O140 1.950 . S
Zn142 O149 1.938 . S
Zn142 O150 1.906 . S
Zn142 O160 1.953 . S
Zn143 O140 1.945 . S
Zn143 O145 1.932 . S
Zn143 O152 1.977 . S
Zn143 O153 1.910 . S
O144 Zn141 1.933 . S
O144 C155 1.226 . S
O145 Zn143 1.932 . S
O145 C155 1.307 . S
O146 Zn139 1.919 1_556 S
O146 C157 1.253 . S
O147 Zn141 1.941 1_556 S
O147 C157 1.283 . S
O148 Zn141 1.965 1_556 S
O148 C156 1.303 . S
O149 Zn142 1.938 . S
O149 C156 1.247 1_554 S
O150 Zn142 1.906 . S
O150 C158 1.304 . S
O151 Zn139 1.924 . S
O151 C159 1.311 . S
O152 Zn143 1.977 . S
O152 C158 1.272 . S
O153 Zn143 1.910 . S
O153 C159 1.231 . S
C154 O138 1.225 . S
C154 O160 1.298 1_556 S
C155 O144 1.226 . S
C155 O145 1.307 . S
C156 O148 1.303 . S
C156 O149 1.247 1_556 S
C157 O146 1.253 . S
C157 O147 1.283 . S
C158 O150 1.304 . S
C158 O152 1.272 . S
C159 O151 1.311 . S
C159 O153 1.231 . S
O160 Zn142 1.953 . S
O160 C154 1.298 1_554 S
O161 Zn162 1.953 1_556 S
O161 C177 1.225 . S
Zn162 O161 1.953 1_554 S
Zn162 O163 1.949 . S
Zn162 O169 1.919 1_554 S
Zn162 O174 1.924 . S
O163 Zn162 1.949 . S
O163 Zn164 1.923 . S
O163 Zn165 1.950 . S
O163 Zn166 1.945 . S
Zn164 O163 1.923 . S
Zn164 O167 1.933 . S
Zn164 O170 1.941 1_554 S
Zn164 O171 1.965 1_554 S
Zn165 O163 1.950 . S
Zn165 O172 1.938 . S
Zn165 O173 1.906 . S
Zn165 O183 1.953 . S
Zn166 O163 1.945 . S
Zn166 O168 1.932 . S
Zn166 O175 1.977 . S
Zn166 O176 1.910 . S
O167 Zn164 1.933 . S
O167 C178 1.226 . S
O168 Zn166 1.932 . S
O168 C178 1.307 . S
O169 Zn162 1.919 1_556 S
O169 C180 1.253 . S
O170 Zn164 1.941 1_556 S
O170 C180 1.283 . S
O171 Zn164 1.965 1_556 S
O171 C179 1.303 . S
O172 Zn165 1.938 . S
O172 C179 1.247 1_554 S
O173 Zn165 1.906 . S
O173 C181 1.304 . S
O174 Zn162 1.924 . S
O174 C182 1.311 . S
O175 Zn166 1.977 . S
O175 C181 1.272 . S
O176 Zn166 1.910 . S
O176 C182 1.231 . S
C177 O161 1.225 . S
C177 O183 1.298 1_556 S
C178 O167 1.226 . S
C178 O168 1.307 . S
C179 O171 1.303 . S
C179 O172 1.247 1_556 S
C180 O169 1.253 . S
C180 O170 1.283 . S
C181 O173 1.304 . S
C181 O175 1.272 . S
C182 O174 1.311 . S
C182 O176 1.231 . S
O183 Zn165 1.953 . S
O183 C177 1.298 1_554 S
O184 Zn185 1.953 1_556 S
O184 C200 1.225 . S
Zn185 O184 1.953 1_554 S
Zn185 O186 1.949 . S
Zn185 O192 1.919 1_554 S
Zn185 O197 1.924 . S
O186 Zn185 1.949 . S
O186 Zn187 1.923 . S
O186 Zn188 1.950 . S
O186 Zn189 1.945 . S
Zn187 O186 1.923 . S
Zn187 O190 1.933 . S
Zn187 O193 1.941 1_554 S
Zn187 O194 1.965 1_554 S
Zn188 O186 1.950 . S
Zn188 O195 1.938 . S
Zn188 O196 1.906 . S
Zn188 O206 1.953 . S
Zn189 O186 1.945 . S
Zn189 O191 1.932 . S
Zn189 O198 1.977 . S
Zn189 O199 1.910 . S
O190 Zn187 1.933 . S
O190 C201 1.226 . S
O191 Zn189 1.932 . S
O191 C201 1.307 . S
O192 Zn185 1.919 1_556 S
O192 C203 1.253 . S
O193 Zn187 1.941 1_556 S
O193 C203 1.283 . S
O194 Zn187 1.965 1_556 S
O194 C202 1.303 . S
O195 Zn188 1.938 . S
O195 C202 1.247 1_554 S
O196 Zn188 1.906 . S
O196 C204 1.304 . S
O197 Zn185 1.924 . S
O197 C205 1.311 . S
O198 Zn189 1.977 . S
O198 C204 1.272 . S
O199 Zn189 1.910 . S
O199 C205 1.231 . S
C200 O184 1.225 . S
C200 O206 1.298 1_556 S
C201 O190 1.226 . S
C201 O191 1.307 . S
C202 O194 1.303 . S
C202 O195 1.247 1_556 S
C203 O192 1.253 . S
C203 O193 1.283 . S
C204 O196 1.304 . S
C204 O198 1.272 . S
C205 O197 1.311 . S
C205 O199 1.231 . S
O206 Zn188 1.953 . S
O206 C200 1.298 1_554 S
O207 Zn208 1.953 . S
O207 C223 1.225 . S
Zn208 O207 1.953 . S
Zn208 O209 1.949 . S
Zn208 O215 1.919 . S
Zn208 O220 1.924 . S
O209 Zn208 1.949 . S
O209 Zn210 1.923 . S
O209 Zn211 1.950 . S
O209 Zn212 1.945 . S
Zn210 O209 1.923 . S
Zn210 O213 1.933 . S
Zn210 O216 1.941 . S
Zn210 O217 1.965 . S
Zn211 O209 1.950 . S
Zn211 O218 1.938 . S
Zn211 O219 1.906 . S
Zn211 O229 1.953 . S
Zn212 O209 1.945 . S
Zn212 O214 1.932 . S
Zn212 O221 1.977 . S
Zn212 O222 1.910 . S
O213 Zn210 1.933 . S
O213 C224 1.226 . S
O214 Zn212 1.932 . S
O214 C224 1.307 . S
O215 Zn208 1.919 . S
O215 C226 1.253 . S
O216 Zn210 1.941 . S
O216 C226 1.283 . S
O217 Zn210 1.965 . S
O217 C225 1.303 . S
O218 Zn211 1.938 . S
O218 C225 1.247 . S
O219 Zn211 1.906 . S
O219 C227 1.304 . S
O220 Zn208 1.924 . S
O220 C228 1.311 . S
O221 Zn212 1.977 . S
O221 C227 1.272 . S
O222 Zn212 1.910 . S
O222 C228 1.231 . S
C223 O207 1.225 . S
C223 O229 1.298 . S
C224 O213 1.226 . S
C224 O214 1.307 . S
C225 O217 1.303 . S
C225 O218 1.247 . S
C226 O215 1.253 . S
C226 O216 1.283 . S
C227 O219 1.304 . S
C227 O221 1.272 . S
C228 O220 1.311 . S
C228 O222 1.231 . S
O229 Zn211 1.953 . S
O229 C223 1.298 . S
O230 Zn231 1.953 . S
O230 C246 1.225 . S
Zn231 O230 1.953 . S
Zn231 O232 1.949 . S
Zn231 O238 1.919 . S
Zn231 O243 1.924 . S
O232 Zn231 1.949 . S
O232 Zn233 1.923 . S
O232 Zn234 1.950 . S
O232 Zn235 1.945 . S
Zn233 O232 1.923 . S
Zn233 O236 1.933 . S
Zn233 O239 1.941 . S
Zn233 O240 1.965 . S
Zn234 O232 1.950 . S
Zn234 O241 1.938 . S
Zn234 O242 1.906 . S
Zn234 O252 1.953 . S
Zn235 O232 1.945 . S
Zn235 O237 1.932 . S
Zn235 O244 1.977 . S
Zn235 O245 1.910 . S
O236 Zn233 1.933 . S
O236 C247 1.226 . S
O237 Zn235 1.932 . S
O237 C247 1.307 . S
O238 Zn231 1.919 . S
O238 C249 1.253 . S
O239 Zn233 1.941 . S
O239 C249 1.283 . S
O240 Zn233 1.965 . S
O240 C248 1.303 . S
O241 Zn234 1.938 . S
O241 C248 1.247 . S
O242 Zn234 1.906 . S
O242 C250 1.304 . S
O243 Zn231 1.924 . S
O243 C251 1.311 . S
O244 Zn235 1.977 . S
O244 C250 1.272 . S
O245 Zn235 1.910 . S
O245 C251 1.231 . S
C246 O230 1.225 . S
C246 O252 1.298 . S
C247 O236 1.226 . S
C247 O237 1.307 . S
C248 O240 1.303 . S
C248 O241 1.247 . S
C249 O238 1.253 . S
C249 O239 1.283 . S
C250 O242 1.304 . S
C250 O244 1.272 . S
C251 O243 1.311 . S
C251 O245 1.231 . S
O252 Zn234 1.953 . S
O252 C246 1.298 . S
O253 Zn254 1.953 . S
O253 C269 1.225 . S
Zn254 O253 1.953 . S
Zn254 O255 1.949 . S
Zn254 O261 1.919 . S
Zn254 O266 1.924 . S
O255 Zn254 1.949 . S
O255 Zn256 1.923 . S
O255 Zn257 1.950 . S
O255 Zn258 1.945 . S
Zn256 O255 1.923 . S
Zn256 O259 1.933 . S
Zn256 O262 1.941 . S
Zn256 O263 1.965 . S
Zn257 O255 1.950 . S
Zn257 O264 1.938 . S
Zn257 O265 1.906 . S
Zn257 O275 1.953 . S
Zn258 O255 1.945 . S
Zn258 O260 1.932 . S
Zn258 O267 1.977 . S
Zn258 O268 1.910 . S
O259 Zn256 1.933 . S
O259 C270 1.226 . S
O260 Zn258 1.932 . S
O260 C270 1.307 . S
O261 Zn254 1.919 . S
O261 C272 1.253 . S
O262 Zn256 1.941 . S
O262 C272 1.283 . S
O263 Zn256 1.965 . S
O263 C271 1.303 . S
O264 Zn257 1.938 . S
O264 C271 1.247 . S
O265 Zn257 1.906 . S
O265 C273 1.304 . S
O266 Zn254 1.924 . S
O266 C274 1.311 . S
O267 Zn258 1.977 . S
O267 C273 1.272 . S
O268 Zn258 1.910 . S
O268 C274 1.231 . S
C269 O253 1.225 . S
C269 O275 1.298 . S
C270 O259 1.226 . S
C270 O260 1.307 . S
C271 O263 1.303 . S
C271 O264 1.247 . S
C272 O261 1.253 . S
C272 O262 1.283 . S
C273 O265 1.304 . S
C273 O267 1.272 . S
C274 O266 1.311 . S
C274 O268 1.231 . S
O275 Zn257 1.953 . S
O275 C269 1.298 . S
O276 Zn277 1.953 . S
O276 C292 1.225 . S
Zn277 O276 1.953 . S
Zn277 O278 1.949 . S
Zn277 O284 1.919 . S
Zn277 O289 1.924 . S
O278 Zn277 1.949 . S
O278 Zn279 1.923 . S
O278 Zn280 1.950 . S
O278 Zn281 1.945 . S
Zn279 O278 1.923 . S
Zn279 O282 1.933 . S
Zn279 O285 1.941 . S
Zn279 O286 1.965 . S
Zn280 O278 1.950 . S
Zn280 O287 1.938 . S
Zn280 O288 1.906 . S
Zn280 O298 1.953 . S
Zn281 O278 1.945 . S
Zn281 O283 1.932 . S
Zn281 O290 1.977 . S
Zn281 O291 1.910 . S
O282 Zn279 1.933 . S
O282 C293 1.226 . S
O283 Zn281 1.932 . S
O283 C293 1.307 . S
O284 Zn277 1.919 . S
O284 C295 1.253 . S
O285 Zn279 1.941 . S
O285 C295 1.283 . S
O286 Zn279 1.965 . S
O286 C294 1.303 . S
O287 Zn280 1.938 . S
O287 C294 1.247 . S
O288 Zn280 1.906 . S
O288 C296 1.304 . S
O289 Zn277 1.924 . S
O289 C297 1.311 . S
O290 Zn281 1.977 . S
O290 C296 1.272 . S
O291 Zn281 1.910 . S
O291 C297 1.231 . S
C292 O276 1.225 . S
C292 O298 1.298 . S
C293 O282 1.226 . S
C293 O283 1.307 . S
C294 O286 1.303 . S
C294 O287 1.247 . S
C295 O284 1.253 . S
C295 O285 1.283 . S
C296 O288 1.304 . S
C296 O290 1.272 . S
C297 O289 1.311 . S
C297 O291 1.231 . S
O298 Zn280 1.953 . S
O298 C292 1.298 . S
O299 Zn300 1.953 . S
O299 C315 1.225 . S
Zn300 O299 1.953 . S
Zn300 O301 1.949 . S
Zn300 O307 1.919 . S
Zn300 O312 1.924 . S
O301 Zn300 1.949 . S
O301 Zn302 1.923 . S
O301 Zn303 1.950 . S
O301 Zn304 1.945 . S
Zn302 O301 1.923 . S
Zn302 O305 1.933 . S
Zn302 O308 1.941 . S
Zn302 O309 1.965 . S
Zn303 O301 1.950 . S
Zn303 O310 1.938 . S
Zn303 O311 1.906 . S
Zn303 O321 1.953 . S
Zn304 O301 1.945 . S
Zn304 O306 1.932 . S
Zn304 O313 1.977 . S
Zn304 O314 1.910 . S
O305 Zn302 1.933 . S
O305 C316 1.226 . S
O306 Zn304 1.932 . S
O306 C316 1.307 . S
O307 Zn300 1.919 . S
O307 C318 1.253 . S
O308 Zn302 1.941 . S
O308 C318 1.283 . S
O309 Zn302 1.965 . S
O309 C317 1.303 . S
O310 Zn303 1.938 . S
O310 C317 1.247 . S
O311 Zn303 1.906 . S
O311 C319 1.304 . S
O312 Zn300 1.924 . S
O312 C320 1.311 . S
O313 Zn304 1.977 . S
O313 C319 1.272 . S
O314 Zn304 1.910 . S
O314 C320 1.231 . S
C315 O299 1.225 . S
C315 O321 1.298 . S
C316 O305 1.226 . S
C316 O306 1.307 . S
C317 O309 1.303 . S
C317 O310 1.247 . S
C318 O307 1.253 . S
C318 O308 1.283 . S
C319 O311 1.304 . S
C319 O313 1.272 . S
C320 O312 1.311 . S
C320 O314 1.231 . S
O321 Zn303 1.953 . S
O321 C315 1.298 . S
O322 Zn323 1.953 . S
O322 C338 1.225 . S
Zn323 O322 1.953 . S
Zn323 O324 1.949 . S
Zn323 O330 1.919 . S
Zn323 O335 1.924 . S
O324 Zn323 1.949 . S
O324 Zn325 1.923 . S
O324 Zn326 1.950 . S
O324 Zn327 1.945 . S
Zn325 O324 1.923 . S
Zn325 O328 1.933 . S
Zn325 O331 1.941 . S
Zn325 O332 1.965 . S
Zn326 O324 1.950 . S
Zn326 O333 1.938 . S
Zn326 O334 1.906 . S
Zn326 O344 1.953 . S
Zn327 O324 1.945 . S
Zn327 O329 1.932 . S
Zn327 O336 1.977 . S
Zn327 O337 1.910 . S
O328 Zn325 1.933 . S
O328 C339 1.226 . S
O329 Zn327 1.932 . S
O329 C339 1.307 . S
O330 Zn323 1.919 . S
O330 C341 1.253 . S
O331 Zn325 1.941 . S
O331 C341 1.283 . S
O332 Zn325 1.965 . S
O332 C340 1.303 . S
O333 Zn326 1.938 . S
O333 C340 1.247 . S
O334 Zn326 1.906 . S
O334 C342 1.304 . S
O335 Zn323 1.924 . S
O335 C343 1.311 . S
O336 Zn327 1.977 . S
O336 C342 1.272 . S
O337 Zn327 1.910 . S
O337 C343 1.231 . S
C338 O322 1.225 . S
C338 O344 1.298 . S
C339 O328 1.226 . S
C339 O329 1.307 . S
C340 O332 1.303 . S
C340 O333 1.247 . S
C341 O330 1.253 . S
C341 O331 1.283 . S
C342 O334 1.304 . S
C342 O336 1.272 . S
C343 O335 1.311 . S
C343 O337 1.231 . S
O344 Zn326 1.953 . S
O344 C338 1.298 . S
O345 Zn346 1.953 . S
O345 C361 1.225 . S
Zn346 O345 1.953 . S
Zn346 O347 1.949 . S
Zn346 O353 1.919 1_556 S
Zn346 O358 1.924 1_556 S
O347 Zn346 1.949 . S
O347 Zn348 1.923 . S
O347 Zn349 1.950 . S
O347 Zn350 1.945 . S
Zn348 O347 1.923 . S
Zn348 O351 1.933 1_556 S
Zn348 O354 1.941 1_556 S
Zn348 O355 1.965 . S
Zn349 O347 1.950 . S
Zn349 O356 1.938 . S
Zn349 O357 1.906 . S
Zn349 O367 1.953 . S
Zn350 O347 1.945 . S
Zn350 O352 1.932 1_556 S
Zn350 O359 1.977 . S
Zn350 O360 1.910 1_556 S
O351 Zn348 1.933 1_554 S
O351 C362 1.226 . S
O352 Zn350 1.932 1_554 S
O352 C362 1.307 . S
O353 Zn346 1.919 1_554 S
O353 C364 1.253 . S
O354 Zn348 1.941 1_554 S
O354 C364 1.283 . S
O355 Zn348 1.965 . S
O355 C363 1.303 . S
O356 Zn349 1.938 . S
O356 C363 1.247 . S
O357 Zn349 1.906 . S
O357 C365 1.304 . S
O358 Zn346 1.924 1_554 S
O358 C366 1.311 . S
O359 Zn350 1.977 . S
O359 C365 1.272 . S
O360 Zn350 1.910 1_554 S
O360 C366 1.231 . S
C361 O345 1.225 . S
C361 O367 1.298 . S
C362 O351 1.226 . S
C362 O352 1.307 . S
C363 O355 1.303 . S
C363 O356 1.247 . S
C364 O353 1.253 . S
C364 O354 1.283 . S
C365 O357 1.304 . S
C365 O359 1.272 . S
C366 O358 1.311 . S
C366 O360 1.231 . S
O367 Zn349 1.953 . S
O367 C361 1.298 . S
O368 Zn369 1.953 . S
O368 C384 1.225 . S
Zn369 O368 1.953 . S
Zn369 O370 1.949 . S
Zn369 O376 1.919 1_556 S
Zn369 O381 1.924 1_556 S
O370 Zn369 1.949 . S
O370 Zn371 1.923 . S
O370 Zn372 1.950 . S
O370 Zn373 1.945 . S
Zn371 O370 1.923 . S
Zn371 O374 1.933 1_556 S
Zn371 O377 1.941 1_556 S
Zn371 O378 1.965 . S
Zn372 O370 1.950 . S
Zn372 O379 1.938 . S
Zn372 O380 1.906 . S
Zn372 O390 1.953 . S
Zn373 O370 1.945 . S
Zn373 O375 1.932 1_556 S
Zn373 O382 1.977 . S
Zn373 O383 1.910 1_556 S
O374 Zn371 1.933 1_554 S
O374 C385 1.226 . S
O375 Zn373 1.932 1_554 S
O375 C385 1.307 . S
O376 Zn369 1.919 1_554 S
O376 C387 1.253 . S
O377 Zn371 1.941 1_554 S
O377 C387 1.283 . S
O378 Zn371 1.965 . S
O378 C386 1.303 . S
O379 Zn372 1.938 . S
O379 C386 1.247 . S
O380 Zn372 1.906 . S
O380 C388 1.304 . S
O381 Zn369 1.924 1_554 S
O381 C389 1.311 . S
O382 Zn373 1.977 . S
O382 C388 1.272 . S
O383 Zn373 1.910 1_554 S
O383 C389 1.231 . S
C384 O368 1.225 . S
C384 O390 1.298 . S
C385 O374 1.226 . S
C385 O375 1.307 . S
C386 O378 1.303 . S
C386 O379 1.247 . S
C387 O376 1.253 . S
C387 O377 1.283 . S
C388 O380 1.304 . S
C388 O382 1.272 . S
C389 O381 1.311 . S
C389 O383 1.231 . S
O390 Zn372 1.953 . S
O390 C384 1.298 . S
O391 Zn392 1.953 . S
O391 C407 1.225 . S
Zn392 O391 1.953 . S
Zn392 O393 1.949 . S
Zn392 O399 1.919 1_556 S
Zn392 O404 1.924 1_556 S
O393 Zn392 1.949 . S
O393 Zn394 1.923 . S
O393 Zn395 1.950 . S
O393 Zn396 1.945 . S
Zn394 O393 1.923 . S
Zn394 O397 1.933 1_556 S
Zn394 O400 1.941 1_556 S
Zn394 O401 1.965 . S
Zn395 O393 1.950 . S
Zn395 O402 1.938 . S
Zn395 O403 1.906 . S
Zn395 O413 1.953 . S
Zn396 O393 1.945 . S
Zn396 O398 1.932 1_556 S
Zn396 O405 1.977 . S
Zn396 O406 1.910 1_556 S
O397 Zn394 1.933 1_554 S
O397 C408 1.226 . S
O398 Zn396 1.932 1_554 S
O398 C408 1.307 . S
O399 Zn392 1.919 1_554 S
O399 C410 1.253 . S
O400 Zn394 1.941 1_554 S
O400 C410 1.283 . S
O401 Zn394 1.965 . S
O401 C409 1.303 . S
O402 Zn395 1.938 . S
O402 C409 1.247 . S
O403 Zn395 1.906 . S
O403 C411 1.304 . S
O404 Zn392 1.924 1_554 S
O404 C412 1.311 . S
O405 Zn396 1.977 . S
O405 C411 1.272 . S
O406 Zn396 1.910 1_554 S
O406 C412 1.231 . S
C407 O391 1.225 . S
C407 O413 1.298 . S
C408 O397 1.226 . S
C408 O398 1.307 . S
C409 O401 1.303 . S
C409 O402 1.247 . S
C410 O399 1.253 . S
C410 O400 1.283 . S
C411 O403 1.304 . S
C411 O405 1.272 . S
C412 O404 1.311 . S
C412 O406 1.231 . S
O413 Zn395 1.953 . S
O413 C407 1.298 . S
C414 C415 1.363 . S
C414 C420 1.379 . S
C414 N422 1.356 . S
C415 C414 1.363 . S
C415 C421 1.363 . S
C416 C417 1.363 . S
C416 C421 1.379 . S
C416 N423 1.356 . S
C417 C416 1.363 . S
C417 C420 1.363 . S
N418 C420 1.356 . S
N418 H430 0.984 . S
N418 H431 0.985 . S
N419 C421 1.356 . S
N419 H424 0.984 . S
N419 H425 0.985 . S
C420 C414 1.379 . S
C420 C417 1.363 . S
C420 N418 1.356 . S
C421 C415 1.363 . S
C421 C416 1.379 . S
C421 N419 1.356 . S
N422 C414 1.356 . S
N422 H428 0.984 . S
N422 H429 0.984 . S
N423 C416 1.356 . S
N423 H426 0.984 . S
N423 H427 0.985 . S
H424 N419 0.984 . S
H425 N419 0.985 . S
H426 N423 0.984 . S
H427 N423 0.985 . S
H428 N422 0.984 . S
H429 N422 0.984 . S
H430 N418 0.984 . S
H431 N418 0.985 . S
C432 C433 1.363 . S
C432 C438 1.379 . S
C432 N440 1.356 . S
C433 C432 1.363 . S
C433 C439 1.363 . S
C434 C435 1.363 . S
C434 C439 1.379 . S
C434 N441 1.356 . S
C435 C434 1.363 . S
C435 C438 1.363 . S
N436 C438 1.356 . S
N436 H448 0.984 . S
N436 H449 0.985 . S
N437 C439 1.356 . S
N437 H442 0.984 . S
N437 H443 0.985 . S
C438 C432 1.379 . S
C438 C435 1.363 . S
C438 N436 1.356 . S
C439 C433 1.363 . S
C439 C434 1.379 . S
C439 N437 1.356 . S
N440 C432 1.356 . S
N440 H446 0.984 . S
N440 H447 0.984 . S
N441 C434 1.356 . S
N441 H444 0.984 . S
N441 H445 0.985 . S
H442 N437 0.984 . S
H443 N437 0.985 . S
H444 N441 0.984 . S
H445 N441 0.985 . S
H446 N440 0.984 . S
H447 N440 0.984 . S
H448 N436 0.984 . S
H449 N436 0.985 . S
C450 C451 1.363 . S
C450 C456 1.379 . S
C450 N458 1.356 . S
C451 C450 1.363 . S
C451 C457 1.363 . S
C452 C453 1.363 . S
C452 C457 1.379 . S
C452 N459 1.356 . S
C453 C452 1.363 . S
C453 C456 1.363 . S
N454 C456 1.356 . S
N454 H466 0.984 . S
N454 H467 0.985 . S
N455 C457 1.356 . S
N455 H460 0.984 . S
N455 H461 0.985 . S
C456 C450 1.379 . S
C456 C453 1.363 . S
C456 N454 1.356 . S
C457 C451 1.363 . S
C457 C452 1.379 . S
C457 N455 1.356 . S
N458 C450 1.356 . S
N458 H464 0.984 . S
N458 H465 0.984 . S
N459 C452 1.356 . S
N459 H462 0.984 . S
N459 H463 0.985 . S
H460 N455 0.984 . S
H461 N455 0.985 . S
H462 N459 0.984 . S
H463 N459 0.985 . S
H464 N458 0.984 . S
H465 N458 0.984 . S
H466 N454 0.984 . S
H467 N454 0.985 . S
C468 C469 1.363 1_554 S
C468 C474 1.379 . S
C468 N476 1.356 . S
C469 C468 1.363 1_556 S
C469 C475 1.363 . S
C470 C471 1.363 1_556 S
C470 C475 1.379 . S
C470 N477 1.356 . S
C471 C470 1.363 1_554 S
C471 C474 1.363 . S
N472 C474 1.356 . S
N472 H484 0.984 . S
N472 H485 0.985 . S
N473 C475 1.356 . S
N473 H478 0.984 . S
N473 H479 0.985 . S
C474 C468 1.379 . S
C474 C471 1.363 . S
C474 N472 1.356 . S
C475 C469 1.363 . S
C475 C470 1.379 . S
C475 N473 1.356 . S
N476 C468 1.356 . S
N476 H482 0.984 . S
N476 H483 0.984 1_554 S
N477 C470 1.356 . S
N477 H480 0.984 1_556 S
N477 H481 0.985 . S
H478 N473 0.984 . S
H479 N473 0.985 . S
H480 N477 0.984 1_554 S
H481 N477 0.985 . S
H482 N476 0.984 . S
H483 N476 0.984 1_556 S
H484 N472 0.984 . S
H485 N472 0.985 . S
C486 C487 1.363 . S
C486 C492 1.379 1_554 S
C486 N494 1.356 . S
C487 C486 1.363 . S
C487 C493 1.363 . S
C488 C489 1.363 . S
C488 C493 1.379 1_556 S
C488 N495 1.356 . S
C489 C488 1.363 . S
C489 C492 1.363 . S
N490 C492 1.356 . S
N490 H502 0.984 . S
N490 H503 0.985 . S
N491 C493 1.356 . S
N491 H496 0.984 . S
N491 H497 0.985 . S
C492 C486 1.379 1_556 S
C492 C489 1.363 . S
C492 N490 1.356 . S
C493 C487 1.363 . S
C493 C488 1.379 1_554 S
C493 N491 1.356 . S
N494 C486 1.356 . S
N494 H500 0.984 . S
N494 H501 0.984 . S
N495 C488 1.356 . S
N495 H498 0.984 . S
N495 H499 0.985 . S
H496 N491 0.984 . S
H497 N491 0.985 . S
H498 N495 0.984 . S
H499 N495 0.985 . S
H500 N494 0.984 . S
H501 N494 0.984 . S
H502 N490 0.984 . S
H503 N490 0.985 . S
C504 C505 1.363 . S
C504 C510 1.379 . S
C504 N512 1.356 . S
C505 C504 1.363 . S
C505 C511 1.363 . S
C506 C507 1.363 . S
C506 C511 1.379 1_554 S
C506 N513 1.356 . S
C507 C506 1.363 . S
C507 C510 1.363 1_554 S
N508 C510 1.356 1_554 S
N508 H520 0.984 . S
N508 H521 0.985 . S
N509 C511 1.356 . S
N509 H514 0.984 . S
N509 H515 0.985 . S
C510 C504 1.379 . S
C510 C507 1.363 1_556 S
C510 N508 1.356 1_556 S
C511 C505 1.363 . S
C511 C506 1.379 1_556 S
C511 N509 1.356 . S
N512 C504 1.356 . S
N512 H518 0.984 . S
N512 H519 0.984 . S
N513 C506 1.356 . S
N513 H516 0.984 . S
N513 H517 0.985 . S
H514 N509 0.984 . S
H515 N509 0.985 . S
H516 N513 0.984 . S
H517 N513 0.985 . S
H518 N512 0.984 . S
H519 N512 0.984 . S
H520 N508 0.984 . S
H521 N508 0.985 . S
C522 C523 1.363 . S
C522 C528 1.379 . S
C522 N530 1.356 . S
C523 C522 1.363 . S
C523 C529 1.363 . S
C524 C525 1.363 . S
C524 C529 1.379 . S
C524 N531 1.356 . S
C525 C524 1.363 . S
C525 C528 1.363 . S
N526 C528 1.356 . S
N526 H538 0.984 . S
N526 H539 0.985 . S
N527 C529 1.356 . S
N527 H532 0.984 . S
N527 H533 0.985 . S
C528 C522 1.379 . S
C528 C525 1.363 . S
C528 N526 1.356 . S
C529 C523 1.363 . S
C529 C524 1.379 . S
C529 N527 1.356 . S
N530 C522 1.356 . S
N530 H536 0.984 . S
N530 H537 0.984 . S
N531 C524 1.356 . S
N531 H534 0.984 . S
N531 H535 0.985 . S
H532 N527 0.984 . S
H533 N527 0.985 . S
H534 N531 0.984 . S
H535 N531 0.985 . S
H536 N530 0.984 . S
H537 N530 0.984 . S
H538 N526 0.984 . S
H539 N526 0.985 . S
C540 C541 1.363 . S
C540 C546 1.379 . S
C540 N548 1.356 . S
C541 C540 1.363 . S
C541 C547 1.363 . S
C542 C543 1.363 . S
C542 C547 1.379 . S
C542 N549 1.356 . S
C543 C542 1.363 . S
C543 C546 1.363 . S
N544 C546 1.356 . S
N544 H556 0.984 . S
N544 H557 0.985 . S
N545 C547 1.356 . S
N545 H550 0.984 . S
N545 H551 0.985 . S
C546 C540 1.379 . S
C546 C543 1.363 . S
C546 N544 1.356 . S
C547 C541 1.363 . S
C547 C542 1.379 . S
C547 N545 1.356 . S
N548 C540 1.356 . S
N548 H554 0.984 . S
N548 H555 0.984 . S
N549 C542 1.356 . S
N549 H552 0.984 . S
N549 H553 0.985 . S
H550 N545 0.984 . S
H551 N545 0.985 . S
H552 N549 0.984 . S
H553 N549 0.985 . S
H554 N548 0.984 . S
H555 N548 0.984 . S
H556 N544 0.984 . S
H557 N544 0.985 . S
C558 C559 1.363 . S
C558 C564 1.379 . S
C558 N566 1.356 . S
C559 C558 1.363 . S
C559 C565 1.363 . S
C560 C561 1.363 . S
C560 C565 1.379 . S
C560 N567 1.356 . S
C561 C560 1.363 . S
C561 C564 1.363 . S
N562 C564 1.356 . S
N562 H574 0.984 . S
N562 H575 0.985 . S
N563 C565 1.356 . S
N563 H568 0.984 . S
N563 H569 0.985 . S
C564 C558 1.379 . S
C564 C561 1.363 . S
C564 N562 1.356 . S
C565 C559 1.363 . S
C565 C560 1.379 . S
C565 N563 1.356 . S
N566 C558 1.356 . S
N566 H572 0.984 . S
N566 H573 0.984 . S
N567 C560 1.356 . S
N567 H570 0.984 . S
N567 H571 0.985 . S
H568 N563 0.984 . S
H569 N563 0.985 . S
H570 N567 0.984 . S
H571 N567 0.985 . S
H572 N566 0.984 . S
H573 N566 0.984 . S
H574 N562 0.984 . S
H575 N562 0.985 . S
C576 C577 1.363 . S
C576 C582 1.379 . S
C576 N584 1.356 . S
C577 C576 1.363 . S
C577 C583 1.363 . S
C578 C579 1.363 . S
C578 C583 1.379 1_556 S
C578 N585 1.356 . S
C579 C578 1.363 . S
C579 C582 1.363 1_556 S
N580 C582 1.356 . S
N580 H592 0.984 . S
N580 H593 0.985 1_554 S
N581 C583 1.356 . S
N581 H586 0.984 . S
N581 H587 0.985 . S
C582 C576 1.379 . S
C582 C579 1.363 1_554 S
C582 N580 1.356 . S
C583 C577 1.363 . S
C583 C578 1.379 1_554 S
C583 N581 1.356 . S
N584 C576 1.356 . S
N584 H590 0.984 . S
N584 H591 0.984 . S
N585 C578 1.356 . S
N585 H588 0.984 . S
N585 H589 0.985 . S
H586 N581 0.984 . S
H587 N581 0.985 . S
H588 N585 0.984 . S
H589 N585 0.985 . S
H590 N584 0.984 . S
H591 N584 0.984 . S
H592 N580 0.984 . S
H593 N580 0.985 1_556 S
C594 C595 1.363 . S
C594 C600 1.379 1_556 S
C594 N602 1.356 . S
C595 C594 1.363 . S
C595 C601 1.363 1_556 S
C596 C597 1.363 . S
C596 C601 1.379 . S
C596 N603 1.356 . S
C597 C596 1.363 . S
C597 C600 1.363 . S
N598 C600 1.356 . S
N598 H610 0.984 1_554 S
N598 H611 0.985 . S
N599 C601 1.356 . S
N599 H604 0.984 1_554 S
N599 H605 0.985 1_565 S
C600 C594 1.379 1_554 S
C600 C597 1.363 . S
C600 N598 1.356 . S
C601 C595 1.363 1_554 S
C601 C596 1.379 . S
C601 N599 1.356 . S
N602 C594 1.356 . S
N602 H608 0.984 . S
N602 H609 0.984 . S
N603 C596 1.356 . S
N603 H606 0.984 . S
N603 H607 0.985 . S
H604 N599 0.984 1_556 S
H605 N599 0.985 1_545 S
H606 N603 0.984 . S
H607 N603 0.985 . S
H608 N602 0.984 . S
H609 N602 0.984 . S
H610 N598 0.984 1_556 S
H611 N598 0.985 . S
C612 C613 1.363 . S
C612 C618 1.379 1_556 S
C612 N620 1.356 . S
C613 C612 1.363 . S
C613 C619 1.363 1_556 S
C614 C615 1.363 . S
C614 C619 1.379 . S
C614 N621 1.356 . S
C615 C614 1.363 . S
C615 C618 1.363 . S
N616 C618 1.356 . S
N616 H628 0.984 1_554 S
N616 H629 0.985 . S
N617 C619 1.356 . S
N617 H622 0.984 1_554 S
N617 H623 0.985 . S
C618 C612 1.379 1_554 S
C618 C615 1.363 . S
C618 N616 1.356 . S
C619 C613 1.363 1_554 S
C619 C614 1.379 . S
C619 N617 1.356 . S
N620 C612 1.356 . S
N620 H626 0.984 . S
N620 H627 0.984 . S
N621 C614 1.356 . S
N621 H624 0.984 . S
N621 H625 0.985 . S
H622 N617 0.984 1_556 S
H623 N617 0.985 . S
H624 N621 0.984 . S
H625 N621 0.985 . S
H626 N620 0.984 . S
H627 N620 0.984 . S
H628 N616 0.984 1_556 S
H629 N616 0.985 . S
C630 C631 1.363 . S
C630 C636 1.379 . S
C630 N638 1.356 . S
C631 C630 1.363 . S
C631 C637 1.363 . S
C632 C633 1.363 . S
C632 C637 1.379 . S
C632 N639 1.356 1_556 S
C633 C632 1.363 . S
C633 C636 1.363 . S
N634 C636 1.356 . S
N634 H646 0.984 . S
N634 H647 0.985 . S
N635 C637 1.356 . S
N635 H640 0.984 . S
N635 H641 0.985 . S
C636 C630 1.379 . S
C636 C633 1.363 . S
C636 N634 1.356 . S
C637 C631 1.363 . S
C637 C632 1.379 . S
C637 N635 1.356 . S
N638 C630 1.356 . S
N638 H644 0.984 . S
N638 H645 0.984 . S
N639 C632 1.356 1_554 S
N639 H642 0.984 . S
N639 H643 0.985 . S
H640 N635 0.984 . S
H641 N635 0.985 . S
H642 N639 0.984 . S
H643 N639 0.985 . S
H644 N638 0.984 . S
H645 N638 0.984 . S
H646 N634 0.984 . S
H647 N634 0.985 . S
C648 C649 1.363 . S
C648 C654 1.379 . S
C648 N656 1.356 . S
C649 C648 1.363 . S
C649 C655 1.363 . S
C650 C651 1.363 . S
C650 C655 1.379 . S
C650 N657 1.356 . S
C651 C650 1.363 . S
C651 C654 1.363 . S
N652 C654 1.356 . S
N652 H664 0.984 . S
N652 H665 0.985 . S
N653 C655 1.356 1_554 S
N653 H658 0.984 . S
N653 H659 0.985 . S
C654 C648 1.379 . S
C654 C651 1.363 . S
C654 N652 1.356 . S
C655 C649 1.363 . S
C655 C650 1.379 . S
C655 N653 1.356 1_556 S
N656 C648 1.356 . S
N656 H662 0.984 . S
N656 H663 0.984 . S
N657 C650 1.356 . S
N657 H660 0.984 . S
N657 H661 0.985 . S
H658 N653 0.984 . S
H659 N653 0.985 . S
H660 N657 0.984 . S
H661 N657 0.985 . S
H662 N656 0.984 . S
H663 N656 0.984 . S
H664 N652 0.984 . S
H665 N652 0.985 . S
C666 C667 1.363 . S
C666 C672 1.379 . S
C666 N674 1.356 . S
C667 C666 1.363 . S
C667 C673 1.363 . S
C668 C669 1.363 . S
C668 C673 1.379 . S
C668 N675 1.356 . S
C669 C668 1.363 . S
C669 C672 1.363 . S
N670 C672 1.356 . S
N670 H682 0.984 . S
N670 H683 0.985 . S
N671 C673 1.356 1_554 S
N671 H676 0.984 . S
N671 H677 0.985 . S
C672 C666 1.379 . S
C672 C669 1.363 . S
C672 N670 1.356 . S
C673 C667 1.363 . S
C673 C668 1.379 . S
C673 N671 1.356 1_556 S
N674 C666 1.356 . S
N674 H680 0.984 . S
N674 H681 0.984 . S
N675 C668 1.356 . S
N675 H678 0.984 . S
N675 H679 0.985 . S
H676 N671 0.984 . S
H677 N671 0.985 . S
H678 N675 0.984 . S
H679 N675 0.985 . S
H680 N674 0.984 . S
H681 N674 0.984 . S
H682 N670 0.984 . S
H683 N670 0.985 . S
C684 C685 1.363 . S
C684 C690 1.379 . S
C684 N692 1.356 . S
C685 C684 1.363 . S
C685 C691 1.363 . S
C686 C687 1.363 . S
C686 C691 1.379 . S
C686 N693 1.356 . S
C687 C686 1.363 . S
C687 C690 1.363 . S
N688 C690 1.356 . S
N688 H700 0.984 . S
N688 H701 0.985 . S
N689 C691 1.356 . S
N689 H694 0.984 . S
N689 H695 0.985 . S
C690 C684 1.379 . S
C690 C687 1.363 . S
C690 N688 1.356 . S
C691 C685 1.363 . S
C691 C686 1.379 . S
C691 N689 1.356 . S
N692 C684 1.356 . S
N692 H698 0.984 . S
N692 H699 0.984 . S
N693 C686 1.356 . S
N693 H696 0.984 . S
N693 H697 0.985 . S
H694 N689 0.984 . S
H695 N689 0.985 . S
H696 N693 0.984 . S
H697 N693 0.985 . S
H698 N692 0.984 . S
H699 N692 0.984 . S
H700 N688 0.984 . S
H701 N688 0.985 . S
C702 C703 1.363 . S
C702 C708 1.379 . S
C702 N710 1.356 . S
C703 C702 1.363 . S
C703 C709 1.363 . S
C704 C705 1.363 . S
C704 C709 1.379 . S
C704 N711 1.356 . S
C705 C704 1.363 . S
C705 C708 1.363 . S
N706 C708 1.356 . S
N706 H718 0.984 . S
N706 H719 0.985 . S
N707 C709 1.356 . S
N707 H712 0.984 . S
N707 H713 0.985 . S
C708 C702 1.379 . S
C708 C705 1.363 . S
C708 N706 1.356 . S
C709 C703 1.363 . S
C709 C704 1.379 . S
C709 N707 1.356 . S
N710 C702 1.356 . S
N710 H716 0.984 . S
N710 H717 0.984 . S
N711 C704 1.356 . S
N711 H714 0.984 . S
N711 H715 0.985 . S
H712 N707 0.984 . S
H713 N707 0.985 . S
H714 N711 0.984 . S
H715 N711 0.985 . S
H716 N710 0.984 . S
H717 N710 0.984 . S
H718 N706 0.984 . S
H719 N706 0.985 . S
C720 C721 1.363 . S
C720 C726 1.379 . S
C720 N728 1.356 . S
C721 C720 1.363 . S
C721 C727 1.363 . S
C722 C723 1.363 . S
C722 C727 1.379 . S
C722 N729 1.356 . S
C723 C722 1.363 . S
C723 C726 1.363 . S
N724 C726 1.356 . S
N724 H736 0.984 . S
N724 H737 0.985 . S
N725 C727 1.356 . S
N725 H730 0.984 . S
N725 H731 0.985 . S
C726 C720 1.379 . S
C726 C723 1.363 . S
C726 N724 1.356 . S
C727 C721 1.363 . S
C727 C722 1.379 . S
C727 N725 1.356 . S
N728 C720 1.356 . S
N728 H734 0.984 . S
N728 H735 0.984 . S
N729 C722 1.356 . S
N729 H732 0.984 . S
N729 H733 0.985 . S
H730 N725 0.984 . S
H731 N725 0.985 . S
H732 N729 0.984 . S
H733 N729 0.985 . S
H734 N728 0.984 . S
H735 N728 0.984 . S
H736 N724 0.984 . S
H737 N724 0.985 . S
C738 C739 1.363 . S
C738 C744 1.379 . S
C738 N746 1.356 . S
C739 C738 1.363 . S
C739 C745 1.363 . S
C740 C741 1.363 . S
C740 C745 1.379 . S
C740 N747 1.356 . S
C741 C740 1.363 . S
C741 C744 1.363 . S
N742 C744 1.356 . S
N742 H754 0.984 . S
N742 H755 0.985 . S
N743 C745 1.356 . S
N743 H748 0.984 . S
N743 H749 0.985 . S
C744 C738 1.379 . S
C744 C741 1.363 . S
C744 N742 1.356 . S
C745 C739 1.363 . S
C745 C740 1.379 . S
C745 N743 1.356 . S
N746 C738 1.356 . S
N746 H752 0.984 . S
N746 H753 0.984 . S
N747 C740 1.356 . S
N747 H750 0.984 . S
N747 H751 0.985 . S
H748 N743 0.984 . S
H749 N743 0.985 . S
H750 N747 0.984 . S
H751 N747 0.985 . S
H752 N746 0.984 . S
H753 N746 0.984 . S
H754 N742 0.984 . S
H755 N742 0.985 . S
C756 C757 1.363 . S
C756 C762 1.379 . S
C756 N764 1.356 . S
C757 C756 1.363 . S
C757 C763 1.363 . S
C758 C759 1.363 . S
C758 C763 1.379 . S
C758 N765 1.356 . S
C759 C758 1.363 . S
C759 C762 1.363 . S
N760 C762 1.356 . S
N760 H772 0.984 . S
N760 H773 0.985 . S
N761 C763 1.356 . S
N761 H766 0.984 . S
N761 H767 0.985 . S
C762 C756 1.379 . S
C762 C759 1.363 . S
C762 N760 1.356 . S
C763 C757 1.363 . S
C763 C758 1.379 . S
C763 N761 1.356 . S
N764 C756 1.356 . S
N764 H770 0.984 . S
N764 H771 0.984 . S
N765 C758 1.356 . S
N765 H768 0.984 . S
N765 H769 0.985 . S
H766 N761 0.984 . S
H767 N761 0.985 . S
H768 N765 0.984 . S
H769 N765 0.985 . S
H770 N764 0.984 . S
H771 N764 0.984 . S
H772 N760 0.984 . S
H773 N760 0.985 . S
C774 C775 1.363 . S
C774 C780 1.379 . S
C774 N782 1.356 . S
C775 C774 1.363 . S
C775 C781 1.363 . S
C776 C777 1.363 . S
C776 C781 1.379 . S
C776 N783 1.356 . S
C777 C776 1.363 . S
C777 C780 1.363 . S
N778 C780 1.356 . S
N778 H790 0.984 . S
N778 H791 0.985 . S
N779 C781 1.356 . S
N779 H784 0.984 . S
N779 H785 0.985 . S
C780 C774 1.379 . S
C780 C777 1.363 . S
C780 N778 1.356 . S
C781 C775 1.363 . S
C781 C776 1.379 . S
C781 N779 1.356 . S
N782 C774 1.356 . S
N782 H788 0.984 . S
N782 H789 0.984 . S
N783 C776 1.356 . S
N783 H786 0.984 . S
N783 H787 0.985 . S
H784 N779 0.984 . S
H785 N779 0.985 . S
H786 N783 0.984 . S
H787 N783 0.985 . S
H788 N782 0.984 . S
H789 N782 0.984 . S
H790 N778 0.984 . S
H791 N778 0.985 . S
C792 C793 1.363 . S
C792 C798 1.379 . S
C792 N800 1.356 . S
C793 C792 1.363 . S
C793 C799 1.363 . S
C794 C795 1.363 . S
C794 C799 1.379 . S
C794 N801 1.356 . S
C795 C794 1.363 . S
C795 C798 1.363 . S
N796 C798 1.356 . S
N796 H808 0.984 . S
N796 H809 0.985 . S
N797 C799 1.356 . S
N797 H802 0.984 . S
N797 H803 0.985 . S
C798 C792 1.379 . S
C798 C795 1.363 . S
C798 N796 1.356 . S
C799 C793 1.363 . S
C799 C794 1.379 . S
C799 N797 1.356 . S
N800 C792 1.356 . S
N800 H806 0.984 . S
N800 H807 0.984 . S
N801 C794 1.356 . S
N801 H804 0.984 . S
N801 H805 0.985 . S
H802 N797 0.984 . S
H803 N797 0.985 . S
H804 N801 0.984 . S
H805 N801 0.985 . S
H806 N800 0.984 . S
H807 N800 0.984 . S
H808 N796 0.984 . S
H809 N796 0.985 . S
C810 C811 1.363 . S
C810 C816 1.379 . S
C810 N818 1.356 . S
C811 C810 1.363 . S
C811 C817 1.363 . S
C812 C813 1.363 . S
C812 C817 1.379 . S
C812 N819 1.356 . S
C813 C812 1.363 . S
C813 C816 1.363 . S
N814 C816 1.356 . S
N814 H826 0.984 . S
N814 H827 0.985 . S
N815 C817 1.356 . S
N815 H820 0.984 . S
N815 H821 0.985 . S
C816 C810 1.379 . S
C816 C813 1.363 . S
C816 N814 1.356 . S
C817 C811 1.363 . S
C817 C812 1.379 . S
C817 N815 1.356 . S
N818 C810 1.356 . S
N818 H824 0.984 . S
N818 H825 0.984 . S
N819 C812 1.356 . S
N819 H822 0.984 . S
N819 H823 0.985 . S
H820 N815 0.984 . S
H821 N815 0.985 . S
H822 N819 0.984 . S
H823 N819 0.985 . S
H824 N818 0.984 . S
H825 N818 0.984 . S
H826 N814 0.984 . S
H827 N814 0.985 . S
C828 C829 1.363 . S
C828 C834 1.379 . S
C828 N836 1.356 . S
C829 C828 1.363 . S
C829 C835 1.363 . S
C830 C831 1.363 . S
C830 C835 1.379 . S
C830 N837 1.356 . S
C831 C830 1.363 . S
C831 C834 1.363 . S
N832 C834 1.356 . S
N832 H844 0.984 . S
N832 H845 0.985 . S
N833 C835 1.356 . S
N833 H838 0.984 . S
N833 H839 0.985 . S
C834 C828 1.379 . S
C834 C831 1.363 . S
C834 N832 1.356 . S
C835 C829 1.363 . S
C835 C830 1.379 . S
C835 N833 1.356 . S
N836 C828 1.356 . S
N836 H842 0.984 . S
N836 H843 0.984 . S
N837 C830 1.356 . S
N837 H840 0.984 . S
N837 H841 0.985 . S
H838 N833 0.984 . S
H839 N833 0.985 . S
H840 N837 0.984 . S
H841 N837 0.985 . S
H842 N836 0.984 . S
H843 N836 0.984 . S
H844 N832 0.984 . S
H845 N832 0.985 . S
C846 C847 1.363 . S
C846 C852 1.379 . S
C846 N854 1.356 . S
C847 C846 1.363 . S
C847 C853 1.363 . S
C848 C849 1.363 . S
C848 C853 1.379 . S
C848 N855 1.356 . S
C849 C848 1.363 . S
C849 C852 1.363 . S
N850 C852 1.356 . S
N850 H862 0.984 . S
N850 H863 0.985 . S
N851 C853 1.356 . S
N851 H856 0.984 . S
N851 H857 0.985 . S
C852 C846 1.379 . S
C852 C849 1.363 . S
C852 N850 1.356 . S
C853 C847 1.363 . S
C853 C848 1.379 . S
C853 N851 1.356 . S
N854 C846 1.356 . S
N854 H860 0.984 . S
N854 H861 0.984 . S
N855 C848 1.356 . S
N855 H858 0.984 . S
N855 H859 0.985 . S
H856 N851 0.984 . S
H857 N851 0.985 . S
H858 N855 0.984 . S
H859 N855 0.985 . S
H860 N854 0.984 . S
H861 N854 0.984 . S
H862 N850 0.984 . S
H863 N850 0.985 . S
C864 C865 1.363 . S
C864 C870 1.379 . S
C864 N872 1.356 . S
C865 C864 1.363 . S
C865 C871 1.363 . S
C866 C867 1.363 . S
C866 C871 1.379 . S
C866 N873 1.356 . S
C867 C866 1.363 . S
C867 C870 1.363 . S
N868 C870 1.356 . S
N868 H880 0.984 1_554 S
N868 H881 0.985 . S
N869 C871 1.356 . S
N869 H874 0.984 . S
N869 H875 0.985 . S
C870 C864 1.379 . S
C870 C867 1.363 . S
C870 N868 1.356 . S
C871 C865 1.363 . S
C871 C866 1.379 . S
C871 N869 1.356 . S
N872 C864 1.356 . S
N872 H878 0.984 . S
N872 H879 0.984 . S
N873 C866 1.356 . S
N873 H876 0.984 . S
N873 H877 0.985 . S
H874 N869 0.984 . S
H875 N869 0.985 . S
H876 N873 0.984 . S
H877 N873 0.985 . S
H878 N872 0.984 . S
H879 N872 0.984 . S
H880 N868 0.984 1_556 S
H881 N868 0.985 . S
C882 C883 1.363 . S
C882 C888 1.379 . S
C882 N890 1.356 . S
C883 C882 1.363 . S
C883 C889 1.363 . S
C884 C885 1.363 . S
C884 C889 1.379 . S
C884 N891 1.356 . S
C885 C884 1.363 . S
C885 C888 1.363 . S
N886 C888 1.356 . S
N886 H898 0.984 . S
N886 H899 0.985 . S
N887 C889 1.356 . S
N887 H892 0.984 . S
N887 H893 0.985 . S
C888 C882 1.379 . S
C888 C885 1.363 . S
C888 N886 1.356 . S
C889 C883 1.363 . S
C889 C884 1.379 . S
C889 N887 1.356 . S
N890 C882 1.356 . S
N890 H896 0.984 . S
N890 H897 0.984 . S
N891 C884 1.356 . S
N891 H894 0.984 . S
N891 H895 0.985 . S
H892 N887 0.984 . S
H893 N887 0.985 . S
H894 N891 0.984 . S
H895 N891 0.985 . S
H896 N890 0.984 . S
H897 N890 0.984 . S
H898 N886 0.984 . S
H899 N886 0.985 . S
C900 C901 1.363 . S
C900 C906 1.379 . S
C900 N908 1.356 . S
C901 C900 1.363 . S
C901 C907 1.363 . S
C902 C903 1.363 . S
C902 C907 1.379 . S
C902 N909 1.356 . S
C903 C902 1.363 . S
C903 C906 1.363 . S
N904 C906 1.356 . S
N904 H916 0.984 . S
N904 H917 0.985 . S
N905 C907 1.356 . S
N905 H910 0.984 . S
N905 H911 0.985 . S
C906 C900 1.379 . S
C906 C903 1.363 . S
C906 N904 1.356 . S
C907 C901 1.363 . S
C907 C902 1.379 . S
C907 N905 1.356 . S
N908 C900 1.356 . S
N908 H914 0.984 . S
N908 H915 0.984 . S
N909 C902 1.356 . S
N909 H912 0.984 . S
N909 H913 0.985 . S
H910 N905 0.984 . S
H911 N905 0.985 . S
H912 N909 0.984 . S
H913 N909 0.985 . S
H914 N908 0.984 . S
H915 N908 0.984 . S
H916 N904 0.984 . S
H917 N904 0.985 . S
C918 C919 1.363 . S
C918 C924 1.379 . S
C918 N926 1.356 . S
C919 C918 1.363 . S
C919 C925 1.363 . S
C920 C921 1.363 . S
C920 C925 1.379 . S
C920 N927 1.356 . S
C921 C920 1.363 . S
C921 C924 1.363 . S
N922 C924 1.356 . S
N922 H934 0.984 . S
N922 H935 0.985 . S
N923 C925 1.356 . S
N923 H928 0.984 . S
N923 H929 0.985 . S
C924 C918 1.379 . S
C924 C921 1.363 . S
C924 N922 1.356 . S
C925 C919 1.363 . S
C925 C920 1.379 . S
C925 N923 1.356 . S
N926 C918 1.356 . S
N926 H932 0.984 . S
N926 H933 0.984 . S
N927 C920 1.356 . S
N927 H930 0.984 . S
N927 H931 0.985 . S
H928 N923 0.984 . S
H929 N923 0.985 . S
H930 N927 0.984 . S
H931 N927 0.985 . S
H932 N926 0.984 . S
H933 N926 0.984 . S
H934 N922 0.984 . S
H935 N922 0.985 . S
C936 C937 1.363 . S
C936 C942 1.379 . S
C936 N944 1.356 . S
C937 C936 1.363 . S
C937 C943 1.363 . S
C938 C939 1.363 . S
C938 C943 1.379 . S
C938 N945 1.356 . S
C939 C938 1.363 . S
C939 C942 1.363 . S
N940 C942 1.356 . S
N940 H952 0.984 . S
N940 H953 0.985 . S
N941 C943 1.356 . S
N941 H946 0.984 . S
N941 H947 0.985 . S
C942 C936 1.379 . S
C942 C939 1.363 . S
C942 N940 1.356 . S
C943 C937 1.363 . S
C943 C938 1.379 . S
C943 N941 1.356 . S
N944 C936 1.356 . S
N944 H950 0.984 . S
N944 H951 0.984 . S
N945 C938 1.356 . S
N945 H948 0.984 . S
N945 H949 0.985 . S
H946 N941 0.984 . S
H947 N941 0.985 . S
H948 N945 0.984 . S
H949 N945 0.985 . S
H950 N944 0.984 . S
H951 N944 0.984 . S
H952 N940 0.984 . S
H953 N940 0.985 . S
C954 C955 1.363 . S
C954 C960 1.379 . S
C954 N962 1.356 . S
C955 C954 1.363 . S
C955 C961 1.363 . S
C956 C957 1.363 . S
C956 C961 1.379 . S
C956 N963 1.356 . S
C957 C956 1.363 . S
C957 C960 1.363 . S
N958 C960 1.356 . S
N958 H970 0.984 . S
N958 H971 0.985 . S
N959 C961 1.356 . S
N959 H964 0.984 . S
N959 H965 0.985 . S
C960 C954 1.379 . S
C960 C957 1.363 . S
C960 N958 1.356 . S
C961 C955 1.363 . S
C961 C956 1.379 . S
C961 N959 1.356 . S
N962 C954 1.356 . S
N962 H968 0.984 . S
N962 H969 0.984 . S
N963 C956 1.356 . S
N963 H966 0.984 . S
N963 H967 0.985 . S
H964 N959 0.984 . S
H965 N959 0.985 . S
H966 N963 0.984 . S
H967 N963 0.985 . S
H968 N962 0.984 . S
H969 N962 0.984 . S
H970 N958 0.984 . S
H971 N958 0.985 . S
C972 C973 1.363 . S
C972 C978 1.379 . S
C972 N980 1.356 . S
C973 C972 1.363 . S
C973 C979 1.363 . S
C974 C975 1.363 . S
C974 C979 1.379 . S
C974 N981 1.356 . S
C975 C974 1.363 . S
C975 C978 1.363 . S
N976 C978 1.356 . S
N976 H988 0.984 1_554 S
N976 H989 0.985 1_554 S
N977 C979 1.356 . S
N977 H982 0.984 . S
N977 H983 0.985 . S
C978 C972 1.379 . S
C978 C975 1.363 . S
C978 N976 1.356 . S
C979 C973 1.363 . S
C979 C974 1.379 . S
C979 N977 1.356 . S
N980 C972 1.356 . S
N980 H986 0.984 . S
N980 H987 0.984 . S
N981 C974 1.356 . S
N981 H984 0.984 . S
N981 H985 0.985 . S
H982 N977 0.984 . S
H983 N977 0.985 . S
H984 N981 0.984 . S
H985 N981 0.985 . S
H986 N980 0.984 . S
H987 N980 0.984 . S
H988 N976 0.984 1_556 S
H989 N976 0.985 1_556 S
C990 C991 1.363 . S
C990 C996 1.379 . S
C990 N998 1.356 . S
C991 C990 1.363 . S
C991 C997 1.363 . S
C992 C993 1.363 . S
C992 C997 1.379 . S
C992 N999 1.356 . S
C993 C992 1.363 . S
C993 C996 1.363 . S
N994 C996 1.356 . S
N994 H1006 0.984 . S
N994 H1007 0.985 . S
N995 C997 1.356 . S
N995 H1000 0.984 . S
N995 H1001 0.985 . S
C996 C990 1.379 . S
C996 C993 1.363 . S
C996 N994 1.356 . S
C997 C991 1.363 . S
C997 C992 1.379 . S
C997 N995 1.356 . S
N998 C990 1.356 . S
N998 H1004 0.984 . S
N998 H1005 0.984 . S
N999 C992 1.356 . S
N999 H1002 0.984 . S
N999 H1003 0.985 . S
H1000 N995 0.984 . S
H1001 N995 0.985 . S
H1002 N999 0.984 . S
H1003 N999 0.985 . S
H1004 N998 0.984 . S
H1005 N998 0.984 . S
H1006 N994 0.984 . S
H1007 N994 0.985 . S
C1008 C1009 1.363 . S
C1008 C1014 1.379 . S
C1008 N1016 1.356 . S
C1009 C1008 1.363 . S
C1009 C1015 1.363 . S
C1010 C1011 1.363 . S
C1010 C1015 1.379 . S
C1010 N1017 1.356 . S
C1011 C1010 1.363 . S
C1011 C1014 1.363 . S
N1012 C1014 1.356 . S
N1012 H1024 0.984 . S
N1012 H1025 0.985 . S
N1013 C1015 1.356 . S
N1013 H1018 0.984 . S
N1013 H1019 0.985 . S
C1014 C1008 1.379 . S
C1014 C1011 1.363 . S
C1014 N1012 1.356 . S
C1015 C1009 1.363 . S
C1015 C1010 1.379 . S
C1015 N1013 1.356 . S
N1016 C1008 1.356 . S
N1016 H1022 0.984 . S
N1016 H1023 0.984 . S
N1017 C1010 1.356 . S
N1017 H1020 0.984 . S
N1017 H1021 0.985 . S
H1018 N1013 0.984 . S
H1019 N1013 0.985 . S
H1020 N1017 0.984 . S
H1021 N1017 0.985 . S
H1022 N1016 0.984 . S
H1023 N1016 0.984 . S
H1024 N1012 0.984 . S
H1025 N1012 0.985 . S
C1026 C1027 1.363 . S
C1026 C1032 1.379 . S
C1026 N1034 1.356 . S
C1027 C1026 1.363 . S
C1027 C1033 1.363 . S
C1028 C1029 1.363 . S
C1028 C1033 1.379 . S
C1028 N1035 1.356 . S
C1029 C1028 1.363 . S
C1029 C1032 1.363 . S
N1030 C1032 1.356 . S
N1030 H1042 0.984 . S
N1030 H1043 0.985 . S
N1031 C1033 1.356 . S
N1031 H1036 0.984 . S
N1031 H1037 0.985 . S
C1032 C1026 1.379 . S
C1032 C1029 1.363 . S
C1032 N1030 1.356 . S
C1033 C1027 1.363 . S
C1033 C1028 1.379 . S
C1033 N1031 1.356 . S
N1034 C1026 1.356 . S
N1034 H1040 0.984 . S
N1034 H1041 0.984 . S
N1035 C1028 1.356 . S
N1035 H1038 0.984 . S
N1035 H1039 0.985 . S
H1036 N1031 0.984 . S
H1037 N1031 0.985 . S
H1038 N1035 0.984 . S
H1039 N1035 0.985 . S
H1040 N1034 0.984 . S
H1041 N1034 0.984 . S
H1042 N1030 0.984 . S
H1043 N1030 0.985 . S
C1044 C1045 1.363 . S
C1044 C1050 1.379 . S
C1044 N1052 1.356 . S
C1045 C1044 1.363 . S
C1045 C1051 1.363 . S
C1046 C1047 1.363 . S
C1046 C1051 1.379 . S
C1046 N1053 1.356 . S
C1047 C1046 1.363 . S
C1047 C1050 1.363 . S
N1048 C1050 1.356 . S
N1048 H1060 0.984 . S
N1048 H1061 0.985 . S
N1049 C1051 1.356 . S
N1049 H1054 0.984 . S
N1049 H1055 0.985 . S
C1050 C1044 1.379 . S
C1050 C1047 1.363 . S
C1050 N1048 1.356 . S
C1051 C1045 1.363 . S
C1051 C1046 1.379 . S
C1051 N1049 1.356 . S
N1052 C1044 1.356 . S
N1052 H1058 0.984 . S
N1052 H1059 0.984 . S
N1053 C1046 1.356 . S
N1053 H1056 0.984 . S
N1053 H1057 0.985 . S
H1054 N1049 0.984 . S
H1055 N1049 0.985 . S
H1056 N1053 0.984 . S
H1057 N1053 0.985 . S
H1058 N1052 0.984 . S
H1059 N1052 0.984 . S
H1060 N1048 0.984 . S
H1061 N1048 0.985 . S
C1062 C1063 1.363 . S
C1062 C1068 1.379 . S
C1062 N1070 1.356 . S
C1063 C1062 1.363 . S
C1063 C1069 1.363 . S
C1064 C1065 1.363 . S
C1064 C1069 1.379 . S
C1064 N1071 1.356 . S
C1065 C1064 1.363 . S
C1065 C1068 1.363 . S
N1066 C1068 1.356 . S
N1066 H1078 0.984 . S
N1066 H1079 0.985 . S
N1067 C1069 1.356 . S
N1067 H1072 0.984 . S
N1067 H1073 0.985 . S
C1068 C1062 1.379 . S
C1068 C1065 1.363 . S
C1068 N1066 1.356 . S
C1069 C1063 1.363 . S
C1069 C1064 1.379 . S
C1069 N1067 1.356 . S
N1070 C1062 1.356 . S
N1070 H1076 0.984 . S
N1070 H1077 0.984 . S
N1071 C1064 1.356 . S
N1071 H1074 0.984 . S
N1071 H1075 0.985 . S
H1072 N1067 0.984 . S
H1073 N1067 0.985 . S
H1074 N1071 0.984 . S
H1075 N1071 0.985 . S
H1076 N1070 0.984 . S
H1077 N1070 0.984 . S
H1078 N1066 0.984 . S
H1079 N1066 0.985 . S
C1080 C1081 1.363 . S
C1080 C1086 1.379 . S
C1080 N1088 1.356 . S
C1081 C1080 1.363 . S
C1081 C1087 1.363 . S
C1082 C1083 1.363 . S
C1082 C1087 1.379 . S
C1082 N1089 1.356 . S
C1083 C1082 1.363 . S
C1083 C1086 1.363 . S
N1084 C1086 1.356 . S
N1084 H1096 0.984 . S
N1084 H1097 0.985 . S
N1085 C1087 1.356 . S
N1085 H1090 0.984 . S
N1085 H1091 0.985 . S
C1086 C1080 1.379 . S
C1086 C1083 1.363 . S
C1086 N1084 1.356 . S
C1087 C1081 1.363 . S
C1087 C1082 1.379 . S
C1087 N1085 1.356 . S
N1088 C1080 1.356 . S
N1088 H1094 0.984 . S
N1088 H1095 0.984 . S
N1089 C1082 1.356 . S
N1089 H1092 0.984 . S
N1089 H1093 0.985 . S
H1090 N1085 0.984 . S
H1091 N1085 0.985 . S
H1092 N1089 0.984 . S
H1093 N1089 0.985 . S
H1094 N1088 0.984 . S
H1095 N1088 0.984 . S
H1096 N1084 0.984 . S
H1097 N1084 0.985 . S
C1098 C1099 1.363 . S
C1098 C1104 1.379 . S
C1098 N1106 1.356 . S
C1099 C1098 1.363 . S
C1099 C1105 1.363 . S
C1100 C1101 1.363 . S
C1100 C1105 1.379 . S
C1100 N1107 1.356 . S
C1101 C1100 1.363 . S
C1101 C1104 1.363 . S
N1102 C1104 1.356 . S
N1102 H1114 0.984 . S
N1102 H1115 0.985 . S
N1103 C1105 1.356 . S
N1103 H1108 0.984 . S
N1103 H1109 0.985 . S
C1104 C1098 1.379 . S
C1104 C1101 1.363 . S
C1104 N1102 1.356 . S
C1105 C1099 1.363 . S
C1105 C1100 1.379 . S
C1105 N1103 1.356 . S
N1106 C1098 1.356 . S
N1106 H1112 0.992 . S
N1106 H1113 0.984 . S
N1107 C1100 1.356 . S
N1107 H1110 0.984 . S
N1107 H1111 0.985 . S
H1108 N1103 0.984 . S
H1109 N1103 0.985 . S
H1110 N1107 0.984 . S
H1111 N1107 0.985 . S
H1112 N1106 0.992 . S
H1113 N1106 0.984 . S
H1114 N1102 0.984 . S
H1115 N1102 0.985 . S
C1116 C1117 1.363 . S
C1116 C1122 1.379 . S
C1116 N1124 1.356 . S
C1117 C1116 1.363 . S
C1117 C1123 1.363 . S
C1118 C1119 1.363 . S
C1118 C1123 1.379 . S
C1118 N1125 1.356 . S
C1119 C1118 1.363 . S
C1119 C1122 1.363 . S
N1120 C1122 1.356 1_554 S
N1120 H1132 0.984 . S
N1120 H1133 0.985 . S
N1121 C1123 1.356 . S
N1121 H1126 0.984 . S
N1121 H1127 0.985 . S
C1122 C1116 1.379 . S
C1122 C1119 1.363 . S
C1122 N1120 1.356 1_556 S
C1123 C1117 1.363 . S
C1123 C1118 1.379 . S
C1123 N1121 1.356 . S
N1124 C1116 1.356 . S
N1124 H1130 0.984 1_556 S
N1124 H1131 0.984 . S
N1125 C1118 1.356 . S
N1125 H1128 0.984 . S
N1125 H1129 0.985 . S
H1126 N1121 0.984 . S
H1127 N1121 0.985 . S
H1128 N1125 0.984 . S
H1129 N1125 0.985 . S
H1130 N1124 0.984 1_554 S
H1131 N1124 0.984 . S
H1132 N1120 0.984 . S
H1133 N1120 0.985 . S
C1134 C1135 1.363 . S
C1134 C1140 1.379 . S
C1134 N1142 1.356 . S
C1135 C1134 1.363 . S
C1135 C1141 1.363 . S
C1136 C1137 1.363 . S
C1136 C1141 1.379 . S
C1136 N1143 1.356 1_556 S
C1137 C1136 1.363 . S
C1137 C1140 1.363 . S
N1138 C1140 1.356 . S
N1138 H1150 0.984 . S
N1138 H1151 0.985 . S
N1139 C1141 1.356 . S
N1139 H1144 0.984 . S
N1139 H1145 0.985 1_556 S
C1140 C1134 1.379 . S
C1140 C1137 1.363 . S
C1140 N1138 1.356 . S
C1141 C1135 1.363 . S
C1141 C1136 1.379 . S
C1141 N1139 1.356 . S
N1142 C1134 1.356 . S
N1142 H1148 0.984 . S
N1142 H1149 0.984 . S
N1143 C1136 1.356 1_554 S
N1143 H1146 0.984 . S
N1143 H1147 0.985 . S
H1144 N1139 0.984 . S
H1145 N1139 0.985 1_554 S
H1146 N1143 0.984 . S
H1147 N1143 0.985 . S
H1148 N1142 0.984 . S
H1149 N1142 0.984 . S
H1150 N1138 0.984 . S
H1151 N1138 0.985 . S
C1152 C1153 1.363 . S
C1152 C1158 1.379 . S
C1152 N1160 1.356 . S
C1153 C1152 1.363 . S
C1153 C1159 1.363 . S
C1154 C1155 1.363 . S
C1154 C1159 1.379 . S
C1154 N1161 1.356 . S
C1155 C1154 1.363 . S
C1155 C1158 1.363 . S
N1156 C1158 1.356 1_554 S
N1156 H1168 0.984 . S
N1156 H1169 0.985 . S
N1157 C1159 1.356 . S
N1157 H1162 0.984 . S
N1157 H1163 0.985 . S
C1158 C1152 1.379 . S
C1158 C1155 1.363 . S
C1158 N1156 1.356 1_556 S
C1159 C1153 1.363 . S
C1159 C1154 1.379 . S
C1159 N1157 1.356 . S
N1160 C1152 1.356 . S
N1160 H1166 0.984 1_556 S
N1160 H1167 0.984 . S
N1161 C1154 1.356 . S
N1161 H1164 0.984 . S
N1161 H1165 0.985 . S
H1162 N1157 0.984 . S
H1163 N1157 0.985 . S
H1164 N1161 0.984 . S
H1165 N1161 0.985 . S
H1166 N1160 0.984 1_554 S
H1167 N1160 0.984 . S
H1168 N1156 0.984 . S
H1169 N1156 0.985 . S
C1170 C1171 1.363 . S
C1170 C1176 1.379 . S
C1170 N1178 1.356 . S
C1171 C1170 1.363 . S
C1171 C1177 1.363 . S
C1172 C1173 1.363 . S
C1172 C1177 1.379 . S
C1172 N1179 1.356 . S
C1173 C1172 1.363 . S
C1173 C1176 1.363 . S
N1174 C1176 1.356 . S
N1174 H1186 0.984 . S
N1174 H1187 0.985 . S
N1175 C1177 1.356 . S
N1175 H1180 0.984 . S
N1175 H1181 0.985 . S
C1176 C1170 1.379 . S
C1176 C1173 1.363 . S
C1176 N1174 1.356 . S
C1177 C1171 1.363 . S
C1177 C1172 1.379 . S
C1177 N1175 1.356 . S
N1178 C1170 1.356 . S
N1178 H1184 0.984 . S
N1178 H1185 0.984 . S
N1179 C1172 1.356 . S
N1179 H1182 0.984 . S
N1179 H1183 0.985 . S
H1180 N1175 0.984 . S
H1181 N1175 0.985 . S
H1182 N1179 0.984 . S
H1183 N1179 0.985 . S
H1184 N1178 0.984 . S
H1185 N1178 0.984 . S
H1186 N1174 0.984 . S
H1187 N1174 0.985 . S
C1188 C1189 1.363 . S
C1188 C1194 1.379 . S
C1188 N1196 1.356 . S
C1189 C1188 1.363 . S
C1189 C1195 1.363 . S
C1190 C1191 1.363 . S
C1190 C1195 1.379 . S
C1190 N1197 1.356 . S
C1191 C1190 1.363 . S
C1191 C1194 1.363 . S
N1192 C1194 1.356 . S
N1192 H1204 0.984 . S
N1192 H1205 0.985 . S
N1193 C1195 1.356 . S
N1193 H1198 0.984 . S
N1193 H1199 0.985 . S
C1194 C1188 1.379 . S
C1194 C1191 1.363 . S
C1194 N1192 1.356 . S
C1195 C1189 1.363 . S
C1195 C1190 1.379 . S
C1195 N1193 1.356 . S
N1196 C1188 1.356 . S
N1196 H1202 0.984 . S
N1196 H1203 0.984 . S
N1197 C1190 1.356 . S
N1197 H1200 0.984 . S
N1197 H1201 0.985 . S
H1198 N1193 0.984 . S
H1199 N1193 0.985 . S
H1200 N1197 0.984 . S
H1201 N1197 0.985 . S
H1202 N1196 0.984 . S
H1203 N1196 0.984 . S
H1204 N1192 0.984 . S
H1205 N1192 0.985 . S
C1206 C1207 1.363 . S
C1206 C1212 1.379 . S
C1206 N1214 1.356 . S
C1207 C1206 1.363 . S
C1207 C1213 1.363 . S
C1208 C1209 1.363 . S
C1208 C1213 1.379 . S
C1208 N1215 1.356 . S
C1209 C1208 1.363 . S
C1209 C1212 1.363 . S
N1210 C1212 1.356 . S
N1210 H1222 0.984 . S
N1210 H1223 0.985 . S
N1211 C1213 1.356 . S
N1211 H1216 0.984 . S
N1211 H1217 0.985 . S
C1212 C1206 1.379 . S
C1212 C1209 1.363 . S
C1212 N1210 1.356 . S
C1213 C1207 1.363 . S
C1213 C1208 1.379 . S
C1213 N1211 1.356 . S
N1214 C1206 1.356 . S
N1214 H1220 0.984 . S
N1214 H1221 0.984 . S
N1215 C1208 1.356 . S
N1215 H1218 0.984 . S
N1215 H1219 0.985 . S
H1216 N1211 0.984 . S
H1217 N1211 0.985 . S
H1218 N1215 0.984 . S
H1219 N1215 0.985 . S
H1220 N1214 0.984 . S
H1221 N1214 0.984 . S
H1222 N1210 0.984 . S
H1223 N1210 0.985 . S
C1224 C1225 1.363 1_556 S
C1224 C1230 1.379 1_556 S
C1224 N1232 1.356 . S
C1225 C1224 1.363 1_554 S
C1225 C1231 1.363 . S
C1226 C1227 1.363 . S
C1226 C1231 1.379 . S
C1226 N1233 1.356 . S
C1227 C1226 1.363 . S
C1227 C1230 1.363 . S
N1228 C1230 1.356 1_556 S
N1228 H1240 0.984 . S
N1228 H1241 0.985 1_556 S
N1229 C1231 1.356 . S
N1229 H1234 0.984 . S
N1229 H1235 0.985 . S
C1230 C1224 1.379 1_554 S
C1230 C1227 1.363 . S
C1230 N1228 1.356 1_554 S
C1231 C1225 1.363 . S
C1231 C1226 1.379 . S
C1231 N1229 1.356 . S
N1232 C1224 1.356 . S
N1232 H1238 0.984 . S
N1232 H1239 0.984 . S
N1233 C1226 1.356 . S
N1233 H1236 0.984 . S
N1233 H1237 0.985 . S
H1234 N1229 0.984 . S
H1235 N1229 0.985 . S
H1236 N1233 0.984 . S
H1237 N1233 0.985 . S
H1238 N1232 0.984 . S
H1239 N1232 0.984 . S
H1240 N1228 0.984 . S
H1241 N1228 0.985 1_554 S
C1242 C1243 1.363 . S
C1242 C1248 1.379 1_554 S
C1242 N1250 1.356 1_554 S
C1243 C1242 1.363 . S
C1243 C1249 1.363 . S
C1244 C1245 1.363 . S
C1244 C1249 1.379 . S
C1244 N1251 1.356 . S
C1245 C1244 1.363 . S
C1245 C1248 1.363 1_554 S
N1246 C1248 1.356 . S
N1246 H1258 0.984 . S
N1246 H1259 0.985 . S
N1247 C1249 1.356 . S
N1247 H1252 0.984 . S
N1247 H1253 0.985 . S
C1248 C1242 1.379 1_556 S
C1248 C1245 1.363 1_556 S
C1248 N1246 1.356 . S
C1249 C1243 1.363 . S
C1249 C1244 1.379 . S
C1249 N1247 1.356 . S
N1250 C1242 1.356 1_556 S
N1250 H1256 0.984 . S
N1250 H1257 0.984 1_556 S
N1251 C1244 1.356 . S
N1251 H1254 0.984 . S
N1251 H1255 0.985 . S
H1252 N1247 0.984 . S
H1253 N1247 0.985 . S
H1254 N1251 0.984 . S
H1255 N1251 0.985 . S
H1256 N1250 0.984 . S
H1257 N1250 0.984 1_554 S
H1258 N1246 0.984 . S
H1259 N1246 0.985 . S
C1260 C1261 1.363 . S
C1260 C1266 1.379 1_554 S
C1260 N1268 1.356 1_554 S
C1261 C1260 1.363 . S
C1261 C1267 1.363 . S
C1262 C1263 1.363 . S
C1262 C1267 1.379 . S
C1262 N1269 1.356 . S
C1263 C1262 1.363 . S
C1263 C1266 1.363 1_554 S
N1264 C1266 1.356 . S
N1264 H1276 0.984 . S
N1264 H1277 0.985 . S
N1265 C1267 1.356 . S
N1265 H1270 0.984 . S
N1265 H1271 0.985 . S
C1266 C1260 1.379 1_556 S
C1266 C1263 1.363 1_556 S
C1266 N1264 1.356 . S
C1267 C1261 1.363 . S
C1267 C1262 1.379 . S
C1267 N1265 1.356 . S
N1268 C1260 1.356 1_556 S
N1268 H1274 0.984 . S
N1268 H1275 0.984 1_556 S
N1269 C1262 1.356 . S
N1269 H1272 0.984 . S
N1269 H1273 0.985 . S
H1270 N1265 0.984 . S
H1271 N1265 0.985 . S
H1272 N1269 0.984 . S
H1273 N1269 0.985 . S
H1274 N1268 0.984 . S
H1275 N1268 0.984 1_554 S
H1276 N1264 0.984 . S
H1277 N1264 0.985 . S
C1278 C1279 1.363 1_455 S
C1278 C1284 1.379 . S
C1278 N1286 1.356 1_455 S
C1279 C1278 1.363 1_655 S
C1279 C1285 1.363 . S
C1280 C1281 1.363 . S
C1280 C1285 1.379 1_455 S
C1280 N1287 1.356 . S
C1281 C1280 1.363 . S
C1281 C1284 1.363 . S
N1282 C1284 1.356 . S
N1282 H1294 0.984 . S
N1282 H1295 0.985 . S
N1283 C1285 1.356 . S
N1283 H1288 0.984 . S
N1283 H1289 0.985 . S
C1284 C1278 1.379 . S
C1284 C1281 1.363 . S
C1284 N1282 1.356 . S
C1285 C1279 1.363 . S
C1285 C1280 1.379 1_655 S
C1285 N1283 1.356 . S
N1286 C1278 1.356 1_655 S
N1286 H1292 0.984 1_655 S
N1286 H1293 0.984 . S
N1287 C1280 1.356 . S
N1287 H1290 0.984 . S
N1287 H1291 0.985 . S
H1288 N1283 0.984 . S
H1289 N1283 0.985 . S
H1290 N1287 0.984 . S
H1291 N1287 0.985 . S
H1292 N1286 0.984 1_455 S
H1293 N1286 0.984 . S
H1294 N1282 0.984 . S
H1295 N1282 0.985 . S
C1296 C1297 1.363 . S
C1296 C1302 1.379 . S
C1296 N1304 1.356 . S
C1297 C1296 1.363 . S
C1297 C1303 1.363 . S
C1298 C1299 1.363 . S
C1298 C1303 1.379 . S
C1298 N1305 1.356 . S
C1299 C1298 1.363 . S
C1299 C1302 1.363 . S
N1300 C1302 1.356 . S
N1300 H1312 0.984 . S
N1300 H1313 0.985 . S
N1301 C1303 1.356 . S
N1301 H1306 0.984 . S
N1301 H1307 0.985 . S
C1302 C1296 1.379 . S
C1302 C1299 1.363 . S
C1302 N1300 1.356 . S
C1303 C1297 1.363 . S
C1303 C1298 1.379 . S
C1303 N1301 1.356 . S
N1304 C1296 1.356 . S
N1304 H1310 0.984 . S
N1304 H1311 0.984 . S
N1305 C1298 1.356 . S
N1305 H1308 0.984 . S
N1305 H1309 0.985 . S
H1306 N1301 0.984 . S
H1307 N1301 0.985 . S
H1308 N1305 0.984 . S
H1309 N1305 0.985 . S
H1310 N1304 0.984 . S
H1311 N1304 0.984 . S
H1312 N1300 0.984 . S
H1313 N1300 0.985 . S
C1314 C1315 1.363 . S
C1314 C1320 1.379 1_565 S
C1314 N1322 1.356 . S
C1315 C1314 1.363 . S
C1315 C1321 1.363 1_565 S
C1316 C1317 1.363 . S
C1316 C1321 1.379 . S
C1316 N1323 1.356 . S
C1317 C1316 1.363 . S
C1317 C1320 1.363 . S
N1318 C1320 1.356 . S
N1318 H1330 0.984 . S
N1318 H1331 0.985 . S
N1319 C1321 1.356 1_565 S
N1319 H1324 0.984 . S
N1319 H1325 0.985 . S
C1320 C1314 1.379 1_545 S
C1320 C1317 1.363 . S
C1320 N1318 1.356 . S
C1321 C1315 1.363 1_545 S
C1321 C1316 1.379 . S
C1321 N1319 1.356 1_545 S
N1322 C1314 1.356 . S
N1322 H1328 0.984 . S
N1322 H1329 0.984 . S
N1323 C1316 1.356 . S
N1323 H1326 0.984 . S
N1323 H1327 0.985 . S
H1324 N1319 0.984 . S
H1325 N1319 0.985 . S
H1326 N1323 0.984 . S
H1327 N1323 0.985 . S
H1328 N1322 0.984 . S
H1329 N1322 0.984 . S
H1330 N1318 0.984 . S
H1331 N1318 0.985 . S
C1332 C1333 1.363 . S
C1332 C1338 1.379 1_565 S
C1332 N1340 1.356 . S
C1333 C1332 1.363 . S
C1333 C1339 1.363 1_565 S
C1334 C1335 1.363 . S
C1334 C1339 1.379 . S
C1334 N1341 1.356 . S
C1335 C1334 1.363 . S
C1335 C1338 1.363 . S
N1336 C1338 1.356 . S
N1336 H1348 0.984 . S
N1336 H1349 0.985 . S
N1337 C1339 1.361 . S
N1337 H1342 0.961 1_545 S
N1337 H1343 1.004 . S
C1338 C1332 1.379 1_545 S
C1338 C1335 1.363 . S
C1338 N1336 1.356 . S
C1339 C1333 1.363 1_545 S
C1339 C1334 1.379 . S
C1339 N1337 1.361 . S
N1340 C1332 1.356 . S
N1340 H1346 0.984 . S
N1340 H1347 0.984 . S
N1341 C1334 1.356 . S
N1341 H1344 0.984 . S
N1341 H1345 0.985 . S
H1342 N1337 0.961 1_565 S
H1343 N1337 1.004 . S
H1344 N1341 0.984 . S
H1345 N1341 0.985 . S
H1346 N1340 0.984 . S
H1347 N1340 0.984 . S
H1348 N1336 0.984 . S
H1349 N1336 0.985 . S
C1350 C1351 1.363 . S
C1350 C1356 1.379 . S
C1350 N1358 1.356 . S
C1351 C1350 1.363 . S
C1351 C1357 1.363 . S
C1352 C1353 1.363 . S
C1352 C1357 1.379 1_655 S
C1352 N1359 1.356 . S
C1353 C1352 1.363 . S
C1353 C1356 1.363 1_655 S
N1354 C1356 1.356 1_655 S
N1354 H1366 0.984 1_655 S
N1354 H1367 0.985 . S
N1355 C1357 1.356 . S
N1355 H1360 0.984 . S
N1355 H1361 0.985 . S
C1356 C1350 1.379 . S
C1356 C1353 1.363 1_455 S
C1356 N1354 1.356 1_455 S
C1357 C1351 1.363 . S
C1357 C1352 1.379 1_455 S
C1357 N1355 1.356 . S
N1358 C1350 1.356 . S
N1358 H1364 0.984 . S
N1358 H1365 0.984 . S
N1359 C1352 1.356 . S
N1359 H1362 0.984 . S
N1359 H1363 0.985 . S
H1360 N1355 0.984 . S
H1361 N1355 0.985 . S
H1362 N1359 0.984 . S
H1363 N1359 0.985 . S
H1364 N1358 0.984 . S
H1365 N1358 0.984 . S
H1366 N1354 0.984 1_455 S
H1367 N1354 0.985 . S
C1368 C1369 1.363 . S
C1368 C1374 1.379 . S
C1368 N1376 1.356 . S
C1369 C1368 1.363 . S
C1369 C1375 1.363 . S
C1370 C1371 1.363 . S
C1370 C1375 1.379 . S
C1370 N1377 1.356 . S
C1371 C1370 1.363 . S
C1371 C1374 1.363 . S
N1372 C1374 1.356 . S
N1372 H1384 0.984 . S
N1372 H1385 0.985 . S
N1373 C1375 1.356 . S
N1373 H1378 0.984 . S
N1373 H1379 0.985 . S
C1374 C1368 1.379 . S
C1374 C1371 1.363 . S
C1374 N1372 1.356 . S
C1375 C1369 1.363 . S
C1375 C1370 1.379 . S
C1375 N1373 1.356 . S
N1376 C1368 1.356 . S
N1376 H1382 0.984 . S
N1376 H1383 0.984 . S
N1377 C1370 1.356 . S
N1377 H1380 0.984 . S
N1377 H1381 0.985 . S
H1378 N1373 0.984 . S
H1379 N1373 0.985 . S
H1380 N1377 0.984 . S
H1381 N1377 0.985 . S
H1382 N1376 0.984 . S
H1383 N1376 0.984 . S
H1384 N1372 0.984 . S
H1385 N1372 0.985 . S
C415 C18 1.483 . S
C417 C111 1.475 . S
C433 C134 1.475 . S
C435 C41 1.483 . S
C451 C64 1.483 . S
C453 C88 1.475 . S
C469 C63 1.784 . S
C471 C112 1.889 . S
C487 C135 1.889 . S
C489 C17 1.784 . S
C505 C40 1.784 . S
C507 C89 1.888 . S
C523 C42 1.837 . S
C525 C86 1.831 . S
C541 C65 1.837 . S
C543 C109 1.831 . S
C559 C132 1.831 . S
C561 C19 1.838 . S
C577 C133 1.497 . S
C579 C43 1.486 . S
C595 C66 1.486 . S
C597 C87 1.497 . S
C613 C20 1.486 . S
C615 C110 1.497 . S
C631 C249 1.475 . S
C633 C156 1.483 . S
C649 C179 1.483 . S
C651 C272 1.475 . S
C667 C202 1.483 . S
C669 C226 1.475 . S
C685 C250 1.889 . S
C687 C201 1.784 . S
C703 C273 1.889 . S
C705 C155 1.784 . S
C721 C227 1.888 . S
C723 C178 1.784 . S
C739 C180 1.837 . S
C741 C224 1.831 . S
C757 C203 1.837 . S
C759 C247 1.831 . S
C775 C157 1.838 . S
C777 C270 1.831 . S
C793 C181 1.486 . S
C795 C271 1.497 . S
C811 C204 1.486 . S
C813 C225 1.497 . S
C829 C248 1.496 . S
C831 C158 1.486 . S
C847 C294 1.483 . S
C849 C387 1.475 . S
C865 C317 1.483 . S
C867 C410 1.475 . S
C883 C364 1.475 . S
C885 C340 1.483 . S
C901 C388 1.888 . S
C903 C339 1.784 . S
C919 C293 1.784 . S
C921 C411 1.889 . S
C937 C316 1.784 . S
C939 C365 1.888 . S
C955 C318 1.837 . S
C957 C362 1.831 . S
C973 C341 1.838 . S
C975 C385 1.831 . S
C991 C295 1.838 . S
C993 C408 1.831 . S
C1009 C409 1.497 . S
C1011 C319 1.487 . S
C1027 C363 1.497 . S
C1029 C342 1.486 . S
C1045 C296 1.486 . S
C1047 C386 1.496 . S
C1063 C16 1.393 . S
C1065 C320 1.369 . S
C1081 C39 1.392 . S
C1083 C343 1.369 . S
C1099 C62 1.392 . S
C1101 C297 1.369 . S
C1117 C67 1.369 . S
C1119 C177 1.392 . S
C1135 C21 1.369 . S
C1137 C200 1.392 . S
C1153 C44 1.369 . S
C1155 C154 1.393 . S
C1171 C246 1.445 . S
C1173 C90 1.432 . S
C1189 C113 1.432 . S
C1191 C269 1.445 . S
C1207 C136 1.432 . S
C1209 C223 1.445 . S
C1225 C389 1.432 . S
C1227 C131 1.445 . S
C1243 C85 1.445 . S
C1245 C412 1.432 . S
C1261 C108 1.445 . S
C1263 C366 1.432 . S
C1279 C205 1.369 . S
C1281 C315 1.392 . S
C1297 C159 1.369 . S
C1299 C338 1.392 . S
C1315 C292 1.393 . S
C1317 C182 1.369 . S
C1333 C384 1.445 . S
C1335 C228 1.432 . S
C1351 C407 1.445 . S
C1353 C251 1.432 . S
C1369 C274 1.432 . S
C1371 C361 1.445 . S
