# Generated by pormake.
# Topology crb, (4)-cn, num edge types: 1
# Building blocks:
#     Node 0, Type 0, BuildingBlock: QUQFOY_clean_sbu_3, # of connection points: 4
#     Node 1, Type 0, BuildingBlock: QUQFOY_clean_sbu_3, # of connection points: 4
#     Node 2, Type 0, BuildingBlock: QUQFOY_clean_sbu_3, # of connection points: 4
#     Node 3, Type 0, BuildingBlock: QUQFOY_clean_sbu_3, # of connection points: 4
#     Node 4, Type 0, BuildingBlock: QUQFOY_clean_sbu_3, # of connection points: 4
#     Node 5, Type 0, BuildingBlock: QUQFOY_clean_sbu_3, # of connection points: 4
#     Node 6, Type 0, BuildingBlock: QUQFOY_clean_sbu_3, # of connection points: 4
#     Node 7, Type 0, BuildingBlock: QUQFOY_clean_sbu_3, # of connection points: 4
#     Edge 8, Type (0, 0), BuildingBlock: XUDNAN_clean_linker_2, # of connection points: 2
#     Edge 9, Type (0, 0), BuildingBlock: XUDNAN_clean_linker_2, # of connection points: 2
#     Edge 10, Type (0, 0), BuildingBlock: XUDNAN_clean_linker_2, # of connection points: 2
#     Edge 11, Type (0, 0), BuildingBlock: XUDNAN_clean_linker_2, # of connection points: 2
#     Edge 12, Type (0, 0), BuildingBlock: XUDNAN_clean_linker_2, # of connection points: 2
#     Edge 13, Type (0, 0), BuildingBlock: XUDNAN_clean_linker_2, # of connection points: 2
#     Edge 14, Type (0, 0), BuildingBlock: XUDNAN_clean_linker_2, # of connection points: 2
#     Edge 15, Type (0, 0), BuildingBlock: XUDNAN_clean_linker_2, # of connection points: 2
#     Edge 16, Type (0, 0), BuildingBlock: XUDNAN_clean_linker_2, # of connection points: 2
#     Edge 17, Type (0, 0), BuildingBlock: XUDNAN_clean_linker_2, # of connection points: 2
#     Edge 18, Type (0, 0), BuildingBlock: XUDNAN_clean_linker_2, # of connection points: 2
#     Edge 19, Type (0, 0), BuildingBlock: XUDNAN_clean_linker_2, # of connection points: 2
#     Edge 20, Type (0, 0), BuildingBlock: XUDNAN_clean_linker_2, # of connection points: 2
#     Edge 21, Type (0, 0), BuildingBlock: XUDNAN_clean_linker_2, # of connection points: 2
#     Edge 22, Type (0, 0), BuildingBlock: XUDNAN_clean_linker_2, # of connection points: 2
#     Edge 23, Type (0, 0), BuildingBlock: XUDNAN_clean_linker_2, # of connection points: 2
# Relax obj value: 0.113
# Max RMSD: 0.155
# Mean RMSD: 0.155
data_MOF--net-crb--node1-QUQFOY_clean_sbu_3--edge1-XUDNAN_clean_linker_2
_symmetry_space_group_name_H-M    P1
_symmetry_Int_Tables_number       1
_symmetry_cell_setting            triclinic
loop_
_symmetry_equiv_pos_as_xyz
'x, y, z'
_cell_length_a     45.100429
_cell_length_b     44.461925
_cell_length_c     24.206879
_cell_angle_alpha  89.907794
_cell_angle_beta   89.858808
_cell_angle_gamma 89.916219
loop_
_atom_site_label
_atom_site_type_symbol
_atom_site_fract_x
_atom_site_fract_y
_atom_site_fract_z
_atom_type_partial_charge
C0 C 0.37806 0.30194 0.03906 0.0
O1 O 0.37164 0.30165 0.09018 0.0
Cd2 Cd 0.32137 0.30788 0.12355 0.0
O3 O 0.35778 0.30516 0.00307 0.0
Cd4 Cd 0.3039 0.3124 -0.00251 0.0
C5 C 0.30741 0.37737 0.07074 0.0
O6 O 0.2886 0.2769 0.06923 0.0
O7 O 0.2547 0.30647 0.03734 0.0
O8 O 0.30182 0.28316 0.91194 0.0
C9 C 0.26148 0.28455 0.06836 0.0
O10 O 0.31029 0.3617 0.11449 0.0
C11 C 0.2897 0.30405 0.88406 0.0
O12 O 0.30667 0.36489 0.02354 0.0
O13 O 0.28457 0.3286 0.90904 0.0
C14 C 0.59254 0.32296 0.98236 0.0
O15 O 0.60546 0.33202 0.93876 0.0
Cd16 Cd 0.65749 0.33794 0.92842 0.0
O17 O 0.60743 0.31684 0.02577 0.0
Cd18 Cd 0.66144 0.3171 0.04993 0.0
C19 C 0.67154 0.39135 0.02488 0.0
O20 O 0.67559 0.29129 0.9661 0.0
O21 O 0.71229 0.30731 0.0142 0.0
O22 O 0.65055 0.27724 0.11763 0.0
C23 C 0.7032 0.29133 0.97448 0.0
O24 O 0.67138 0.38527 0.97354 0.0
C25 C 0.66785 0.28785 0.15405 0.0
O26 O 0.66662 0.37089 0.06035 0.0
O27 O 0.68116 0.31212 0.14228 0.0
C28 C 0.60889 0.67884 0.09811 0.0
O29 O 0.62226 0.68055 0.14406 0.0
Cd30 Cd 0.67475 0.67665 0.15166 0.0
O31 O 0.6235 0.67648 0.05312 0.0
Cd32 Cd 0.67641 0.67525 0.02334 0.0
C33 C 0.68425 0.60864 0.08674 0.0
O34 O 0.6948 0.71243 0.08729 0.0
O35 O 0.72827 0.68339 0.05274 0.0
O36 O 0.66283 0.70657 0.94389 0.0
C37 C 0.72201 0.70694 0.07971 0.0
O38 O 0.6856 0.62356 0.13155 0.0
C39 C 0.67849 0.69194 0.90953 0.0
O40 O 0.67931 0.62186 0.04106 0.0
O41 O 0.69233 0.66916 0.92787 0.0
C42 C 0.39613 0.66079 0.02099 0.0
O43 O 0.39291 0.65182 0.97161 0.0
Cd44 Cd 0.34507 0.64707 0.93105 0.0
O45 O 0.3736 0.66767 0.05031 0.0
Cd46 Cd 0.31881 0.67046 0.04036 0.0
C47 C 0.31417 0.59575 0.01881 0.0
O48 O 0.32234 0.69488 0.95174 0.0
O49 O 0.278 0.6815 0.97449 0.0
O50 O 0.32431 0.71202 0.10504 0.0
C51 C 0.29479 0.69649 0.94273 0.0
O52 O 0.32392 0.60096 0.97037 0.0
C53 C 0.30128 0.70592 0.13305 0.0
O54 O 0.31142 0.61702 0.05341 0.0
O55 O 0.28636 0.68317 0.11808 0.0
C56 C 0.88157 0.80851 0.58949 0.0
O57 O 0.86811 0.81418 0.63445 0.0
Cd58 Cd 0.81543 0.81838 0.6446 0.0
O59 O 0.86716 0.8045 0.5448 0.0
Cd60 Cd 0.81419 0.80439 0.51637 0.0
C61 C 0.8003 0.87646 0.55884 0.0
O62 O 0.79693 0.77537 0.59437 0.0
O63 O 0.76224 0.79308 0.54268 0.0
O64 O 0.81937 0.76849 0.43904 0.0
C65 C 0.7696 0.77646 0.58295 0.0
O66 O 0.80102 0.86846 0.60933 0.0
C67 C 0.81211 0.7879 0.40281 0.0
O68 O 0.80557 0.85759 0.52083 0.0
O69 O 0.80631 0.81419 0.41987 0.0
C70 C 0.09502 0.82191 0.51635 0.0
O71 O 0.09842 0.83114 0.46707 0.0
Cd72 Cd 0.14565 0.84361 0.42749 0.0
O73 O 0.11737 0.81857 0.54788 0.0
Cd74 Cd 0.17163 0.82596 0.53891 0.0
C75 C 0.16635 0.9004 0.51124 0.0
O76 O 0.17884 0.80232 0.44832 0.0
O77 O 0.21603 0.82694 0.48066 0.0
O78 O 0.18146 0.78624 0.60825 0.0
C79 C 0.20606 0.80902 0.44466 0.0
O80 O 0.15969 0.89371 0.46171 0.0
C81 C 0.19897 0.80277 0.63588 0.0
O82 O 0.16949 0.87987 0.5472 0.0
O83 O 0.20278 0.82943 0.61876 0.0
C84 C 0.08675 0.18067 0.57147 0.0
O85 O 0.10012 0.18181 0.61748 0.0
Cd86 Cd 0.15217 0.18483 0.62854 0.0
O87 O 0.10132 0.18142 0.5262 0.0
Cd88 Cd 0.1553 0.18471 0.50218 0.0
C89 C 0.16916 0.11879 0.56492 0.0
O90 O 0.16723 0.22416 0.56665 0.0
O91 O 0.20501 0.19925 0.53771 0.0
O92 O 0.14284 0.21372 0.41927 0.0
C93 C 0.19506 0.22227 0.56237 0.0
O94 O 0.16986 0.13364 0.60981 0.0
C95 C 0.16145 0.20029 0.38849 0.0
O96 O 0.16233 0.13165 0.5198 0.0
O97 O 0.17613 0.17898 0.41014 0.0
C98 C 0.87225 0.16429 0.50638 0.0
O99 O 0.86633 0.16346 0.45517 0.0
Cd100 Cd 0.81553 0.158 0.42591 0.0
O101 O 0.85144 0.1638 0.54192 0.0
Cd102 Cd 0.79727 0.16307 0.55138 0.0
C103 C 0.79586 0.09382 0.49778 0.0
O104 O 0.78567 0.19499 0.47238 0.0
O105 O 0.74905 0.1703 0.50785 0.0
O106 O 0.80711 0.19968 0.62334 0.0
C107 C 0.75802 0.18972 0.47329 0.0
O108 O 0.8007 0.10687 0.45172 0.0
C109 C 0.78915 0.18851 0.65812 0.0
O110 O 0.79557 0.10864 0.54271 0.0
O111 O 0.7749 0.16524 0.64339 0.0
H112 H 0.31256 0.41783 0.98621 0.0
H113 H 0.29746 0.41179 0.16311 0.0
H114 H 0.29418 0.46725 0.16808 0.0
H115 H 0.35922 0.48168 0.99091 0.0
H116 H 0.34538 0.49771 0.92756 0.0
H117 H 0.34455 0.45762 0.93771 0.0
H118 H 0.28797 0.45743 0.91902 0.0
H119 H 0.2886 0.49758 0.90899 0.0
H120 H 0.26397 0.48126 0.95951 0.0
H121 H 0.2938 0.52339 0.15372 0.0
H122 H 0.29934 0.57593 0.12253 0.0
H123 H 0.31582 0.54472 0.95528 0.0
C124 C 0.30826 0.42809 0.02599 0.0
C125 C 0.30509 0.41048 0.07426 0.0
C126 C 0.29994 0.42485 0.12559 0.0
C127 C 0.29791 0.4563 0.12877 0.0
C128 C 0.30119 0.47296 0.08031 0.0
C129 C 0.30642 0.45934 0.02996 0.0
C130 C 0.31069 0.48231 0.98447 0.0
C131 C 0.34181 0.47967 0.95867 0.0
C132 C 0.28635 0.47947 0.94041 0.0
C133 C 0.30734 0.51106 0.01716 0.0
C134 C 0.30155 0.50521 0.07223 0.0
C135 C 0.29822 0.52824 0.11067 0.0
C136 C 0.30136 0.55802 0.09247 0.0
C137 C 0.30803 0.56449 0.03641 0.0
C138 C 0.31065 0.54059 -0.00167 0.0
H139 H 0.42854 0.30177 0.10333 0.0
H140 H 0.39847 0.30017 0.93291 0.0
H141 H 0.45014 0.30344 0.90094 0.0
H142 H 0.4853 0.35495 0.08447 0.0
H143 H 0.5113 0.33746 0.13101 0.0
H144 H 0.47208 0.33251 0.14151 0.0
H145 H 0.47866 0.27464 0.13869 0.0
H146 H 0.51799 0.2794 0.12868 0.0
H147 H 0.4968 0.25753 0.08017 0.0
H148 H 0.50381 0.31125 0.88685 0.0
H149 H 0.55759 0.3198 0.89106 0.0
H150 H 0.55412 0.31523 0.07029 0.0
C151 C 0.43285 0.30157 0.0593 0.0
C152 C 0.40937 0.30073 0.02066 0.0
C153 C 0.41599 0.30081 0.96338 0.0
C154 C 0.4453 0.30266 0.94473 0.0
C155 C 0.46781 0.30418 0.98379 0.0
C156 C 0.46208 0.30332 0.03985 0.0
C157 C 0.49049 0.3063 0.07286 0.0
C158 C 0.48973 0.33448 0.10962 0.0
C159 C 0.49633 0.27776 0.10712 0.0
C160 C 0.51291 0.30956 0.02648 0.0
C161 C 0.49924 0.30825 0.97552 0.0
C162 C 0.51488 0.31198 0.92644 0.0
C163 C 0.54542 0.31701 0.92935 0.0
C164 C 0.56011 0.31813 0.98101 0.0
C165 C 0.54357 0.31425 0.0302 0.0
H166 H 0.67315 0.44317 0.96277 0.0
H167 H 0.68249 0.40975 0.13056 0.0
H168 H 0.69014 0.46152 0.1637 0.0
H169 H 0.72774 0.50378 0.97317 0.0
H170 H 0.70607 0.5293 0.93169 0.0
H171 H 0.70352 0.48934 0.92037 0.0
H172 H 0.64659 0.49188 0.93464 0.0
H173 H 0.64897 0.53179 0.94598 0.0
H174 H 0.63191 0.508 -0.00269 0.0
H175 H 0.69427 0.51695 0.17953 0.0
H176 H 0.6933 0.57243 0.17702 0.0
H177 H 0.68082 0.56973 -0.00082 0.0
C178 C 0.67718 0.44668 0.00638 0.0
C179 C 0.67729 0.42237 0.04402 0.0
C180 C 0.68227 0.428 0.10089 0.0
C181 C 0.68676 0.45732 0.12014 0.0
C182 C 0.68622 0.48079 0.08206 0.0
C183 C 0.68155 0.47584 0.02639 0.0
C184 C 0.68048 0.50517 -0.00539 0.0
C185 C 0.70598 0.507 0.95247 0.0
C186 C 0.65018 0.50945 0.9665 0.0
C187 C 0.68478 0.52735 0.04127 0.0
C188 C 0.68833 0.51283 0.09129 0.0
C189 C 0.69171 0.52861 0.14054 0.0
C190 C 0.69112 0.56012 0.13871 0.0
C191 C 0.68701 0.57548 0.08795 0.0
C192 C 0.68415 0.55873 0.03866 0.0
H193 H 0.44901 0.65514 0.96602 0.0
H194 H 0.41149 0.67476 0.12747 0.0
H195 H 0.46192 0.68207 0.1646 0.0
H196 H 0.51293 0.61443 0.01389 0.0
H197 H 0.53707 0.62945 0.96124 0.0
H198 H 0.49804 0.62539 0.94779 0.0
H199 H 0.49475 0.68198 0.92253 0.0
H200 H 0.53375 0.68625 0.93618 0.0
H201 H 0.50718 0.7097 0.97153 0.0
H202 H 0.51637 0.68714 0.18402 0.0
H203 H 0.57101 0.68942 0.18457 0.0
H204 H 0.57259 0.66739 0.0098 0.0
C205 C 0.45133 0.66082 0.00928 0.0
C206 C 0.42628 0.66429 0.04388 0.0
C207 C 0.43035 0.67195 0.10016 0.0
C208 C 0.45888 0.67617 0.12163 0.0
C209 C 0.48305 0.67277 0.08623 0.0
C210 C 0.47957 0.66527 0.03128 0.0
C211 C 0.50914 0.66321 0.00185 0.0
C212 C 0.51461 0.63122 0.97992 0.0
C213 C 0.51132 0.68669 0.95528 0.0
C214 C 0.52985 0.67065 0.04891 0.0
C215 C 0.51437 0.67606 0.09723 0.0
C216 C 0.52874 0.683 0.14641 0.0
C217 C 0.55979 0.68424 0.14628 0.0
C218 C 0.57611 0.67865 0.0972 0.0
C219 C 0.56079 0.67195 0.04792 0.0
H220 H 0.80245 0.92771 0.62321 0.0
H221 H 0.78335 0.89606 0.45738 0.0
H222 H 0.77613 0.94816 0.42634 0.0
H223 H 0.7499 0.9923 0.62118 0.0
H224 H 0.77481 0.01626 0.65904 0.0
H225 H 0.77534 0.97619 0.6704 0.0
H226 H 0.83153 0.97503 0.64794 0.0
H227 H 0.83115 0.01501 0.63627 0.0
H228 H 0.84448 0.99009 0.58302 0.0
H229 H 0.77585 0.00288 0.41024 0.0
H230 H 0.78135 0.05797 0.4107 0.0
H231 H 0.80005 0.05536 0.58659 0.0
C232 C 0.79614 0.93177 0.58071 0.0
C233 C 0.79348 0.9078 0.54277 0.0
C234 C 0.78565 0.91403 0.48721 0.0
C235 C 0.78136 0.94357 0.46914 0.0
C236 C 0.78482 0.9667 0.50709 0.0
C237 C 0.79185 0.96128 0.56177 0.0
C238 C 0.7961 0.99054 0.59288 0.0
C239 C 0.77263 0.99402 0.63858 0.0
C240 C 0.82769 0.99279 0.61639 0.0
C241 C 0.79119 0.01306 0.54667 0.0
C242 C 0.78447 -0.00126 0.49771 0.0
C243 C 0.78069 0.01446 0.44845 0.0
C244 C 0.78401 0.04573 0.44909 0.0
C245 C 0.79102 0.06097 0.49868 0.0
C246 C 0.7943 0.04437 0.5482 0.0
H247 H 0.0431 0.82062 0.45768 0.0
H248 H 0.07851 0.81033 0.62336 0.0
H249 H 0.02773 0.80354 0.65957 0.0
H250 H 0.97971 0.86273 0.49424 0.0
H251 H 0.95566 0.84514 0.44451 0.0
H252 H -0.00514 0.84754 0.43116 0.0
H253 H -0.00267 0.78973 0.41823 0.0
H254 H 0.95808 0.78716 0.43139 0.0
H255 H 0.98371 0.76541 0.47226 0.0
H256 H 0.97305 0.80149 0.67851 0.0
H257 H 0.91833 0.80209 0.67841 0.0
H258 H 0.9188 0.8122 0.49996 0.0
C259 C 0.04025 0.81668 0.50153 0.0
C260 C 0.06481 0.81605 0.5377 0.0
C261 C 0.06007 0.81083 0.59481 0.0
C262 C 0.03131 0.80696 0.61578 0.0
C263 C 0.0076 0.80809 0.57905 0.0
C264 C 0.01177 0.81256 0.52308 0.0
C265 C 0.98251 0.81346 0.4926 0.0
C266 C 0.97792 0.84404 0.46396 0.0
C267 C 0.98028 0.78738 0.45118 0.0
C268 C 0.96118 0.80932 0.54033 0.0
C269 C 0.9761 0.80626 0.58983 0.0
C270 C 0.96112 0.80353 0.63995 0.0
C271 C 0.93005 0.80401 0.63946 0.0
C272 C 0.91431 0.80703 0.58915 0.0
C273 C 0.93019 0.80947 0.539 0.0
H274 H 0.16112 0.07896 0.47998 0.0
H275 H 0.18837 0.08423 0.6517 0.0
H276 H 0.19311 0.02894 0.65471 0.0
H277 H 0.11648 0.01492 0.49446 0.0
H278 H 0.12614 -0.00116 0.42851 0.0
H279 H 0.12753 0.03895 0.438 0.0
H280 H 0.1825 0.03947 0.40658 0.0
H281 H 0.18124 -0.00066 0.39658 0.0
H282 H 0.20895 0.01552 0.44102 0.0
H283 H 0.1916 0.97336 0.64109 0.0
H284 H 0.18478 0.92089 0.61174 0.0
H285 H 0.1581 0.95162 0.44874 0.0
C286 C 0.16858 0.06858 0.51802 0.0
C287 C 0.17447 0.08596 0.56561 0.0
C288 C 0.18378 0.07141 0.61472 0.0
C289 C 0.18658 0.04003 0.6168 0.0
C290 C 0.18004 0.02358 0.56944 0.0
C291 C 0.17137 0.03732 0.52089 0.0
C292 C 0.16421 0.01436 0.47671 0.0
C293 C 0.13166 0.01693 0.45837 0.0
C294 C 0.1855 0.01735 0.42731 0.0
C295 C 0.16972 0.98552 0.50835 0.0
C296 C 0.17901 0.99139 0.56163 0.0
C297 C 0.18457 0.96846 0.59936 0.0
C298 C 0.18052 0.93871 0.58224 0.0
C299 C 0.1709 0.93207 0.52784 0.0
C300 C 0.1656 0.9559 0.49045 0.0
H301 H 0.92337 0.16893 0.44377 0.0
H302 H 0.89138 0.16366 0.61308 0.0
H303 H 0.94258 0.16705 0.64687 0.0
H304 H 0.98981 0.12468 0.4646 0.0
H305 H 0.01229 0.14728 0.41902 0.0
H306 H 0.97298 0.14417 0.4073 0.0
H307 H 0.96806 0.20222 0.41031 0.0
H308 H 0.00734 0.20551 0.42211 0.0
H309 H 0.98147 0.22241 0.46974 0.0
H310 H -0.00371 0.17144 0.66314 0.0
H311 H 0.05049 0.17632 0.66135 0.0
H312 H 0.0489 0.17883 0.48181 0.0
C313 C 0.92715 0.16841 0.48793 0.0
C314 C 0.90328 0.16604 0.52573 0.0
C315 C 0.9092 0.1655 0.58322 0.0
C316 C 0.93824 0.1674 0.60292 0.0
C317 C 0.96117 0.16983 0.5647 0.0
C318 C 0.9561 0.17033 0.50846 0.0
C319 C 0.98496 0.17333 0.4766 0.0
C320 C -0.00968 0.14572 0.43971 0.0
C321 C 0.98548 0.20261 0.4427 0.0
C322 C 0.00693 0.17446 0.52387 0.0
C323 C -0.00741 0.17239 0.57422 0.0
C324 C 0.00784 0.17305 0.62402 0.0
C325 C 0.03868 0.17587 0.62247 0.0
C326 C 0.05405 0.17799 0.57142 0.0
C327 C 0.03785 0.17726 0.52148 0.0
H328 H 0.21026 0.18741 0.32634 0.0
H329 H 0.12807 0.23822 0.32452 0.0
H330 H 0.14251 0.26099 0.23517 0.0
H331 H 0.25457 0.24526 0.28125 0.0
H332 H 0.2792 0.22251 0.23999 0.0
H333 H 0.26027 0.20617 0.29814 0.0
H334 H 0.23791 0.16511 0.23487 0.0
H335 H 0.25701 0.18121 0.1764 0.0
H336 H 0.21739 0.17606 0.17424 0.0
H337 H 0.16821 0.28219 0.152 0.0
H338 H 0.20363 0.30135 0.08257 0.0
H339 H 0.26988 0.23799 0.141 0.0
C340 C 0.19487 0.20261 0.30631 0.0
C341 C 0.16789 0.21082 0.33191 0.0
C342 C 0.14874 0.23148 0.30529 0.0
C343 C 0.15672 0.24443 0.25452 0.0
C344 C 0.18391 0.2365 0.23114 0.0
C345 C 0.20267 0.21601 0.25612 0.0
C346 C 0.23199 0.21376 0.22578 0.0
C347 C 0.25802 0.22246 0.26354 0.0
C348 C 0.23632 0.18216 0.20136 0.0
C349 C 0.22717 0.2369 0.18082 0.0
C350 C 0.19911 0.24936 0.18401 0.0
C351 C 0.1901 0.27234 0.14865 0.0
C352 C 0.21041 0.28311 0.10945 0.0
C353 C 0.23951 0.27115 0.10642 0.0
C354 C 0.24774 0.24745 0.1421 0.0
H355 H 0.71503 0.29599 0.22203 0.0
H356 H 0.63493 0.24315 0.20272 0.0
H357 H 0.6474 0.21462 0.28757 0.0
H358 H 0.76039 0.23583 0.26165 0.0
H359 H 0.78223 0.2573 0.30976 0.0
H360 H 0.76521 0.27572 0.25169 0.0
H361 H 0.73871 0.31294 0.3178 0.0
H362 H 0.75575 0.29467 0.37618 0.0
H363 H 0.71599 0.29853 0.37318 0.0
H364 H 0.66997 0.19063 0.3723 0.0
H365 H 0.70217 0.17084 0.44647 0.0
H366 H 0.76861 0.23793 0.40607 0.0
C367 C 0.69978 0.27882 0.23621 0.0
C368 C 0.67384 0.27195 0.20632 0.0
C369 C 0.65484 0.24883 0.22535 0.0
C370 C 0.66169 0.23262 0.2735 0.0
C371 C 0.6877 0.23973 0.30163 0.0
C372 C 0.70651 0.2622 0.28347 0.0
C373 C 0.73426 0.26389 0.31828 0.0
C374 C 0.76216 0.25781 0.28325 0.0
C375 C 0.73628 0.29432 0.34814 0.0
C376 C 0.72838 0.23855 0.35848 0.0
C377 C 0.70122 0.2252 0.34884 0.0
C378 C 0.69122 0.20098 0.38033 0.0
C379 C 0.70965 0.18993 0.42235 0.0
C380 C 0.73789 0.20282 0.43179 0.0
C381 C 0.74716 0.2276 0.39969 0.0
H382 H 0.80839 0.73179 0.35607 0.0
H383 H 0.80582 0.82706 0.31725 0.0
H384 H 0.7909 0.81534 0.22205 0.0
H385 H 0.83265 0.70544 0.21286 0.0
H386 H 0.80929 0.67267 0.21762 0.0
H387 H 0.82606 0.68797 0.27901 0.0
H388 H 0.7742 0.69223 0.32464 0.0
H389 H 0.75732 0.67717 0.26356 0.0
H390 H 0.7454 0.71311 0.28997 0.0
H391 H 0.76608 0.79485 0.14004 0.0
H392 H 0.73544 0.76607 0.07411 0.0
H393 H 0.75586 0.68373 0.1618 0.0
C394 C 0.80578 0.75006 0.32687 0.0
C395 C 0.80833 0.78029 0.34393 0.0
C396 C 0.80401 0.80371 0.30503 0.0
C397 C 0.79568 0.79729 0.25072 0.0
C398 C 0.79211 0.76732 0.23568 0.0
C399 C 0.79742 0.744 0.27229 0.0
C400 C 0.7885 0.71405 0.24762 0.0
C401 C 0.81576 0.69384 0.23874 0.0
C402 C 0.76496 0.69824 0.28357 0.0
C403 C 0.77572 0.72442 0.19297 0.0
C404 C 0.77846 0.75522 0.18659 0.0
C405 C 0.76474 0.77062 0.14339 0.0
C406 C 0.74736 0.75421 0.10629 0.0
C407 C 0.74427 0.72281 0.11237 0.0
C408 C 0.75909 0.70762 0.15533 0.0
H409 H 0.19274 0.7648 0.37011 0.0
H410 H 0.2622 0.82699 0.41787 0.0
H411 H 0.29409 0.80747 0.34297 0.0
H412 H 0.241 0.7029 0.33812 0.0
H413 H 0.2192 0.69025 0.28037 0.0
H414 H 0.20157 0.70957 0.33696 0.0
H415 H 0.18 0.74889 0.26879 0.0
H416 H 0.19753 0.72966 0.21197 0.0
H417 H 0.20469 0.76905 0.22327 0.0
H418 H 0.31812 0.78168 0.26242 0.0
H419 H 0.3333 0.75025 0.18318 0.0
H420 H 0.24871 0.70385 0.18992 0.0
C421 C 0.21461 0.77439 0.36466 0.0
C422 C 0.22498 0.79748 0.39959 0.0
C423 C 0.25382 0.80929 0.3915 0.0
C424 C 0.27208 0.79838 0.34908 0.0
C425 C 0.26121 0.77556 0.31544 0.0
C426 C 0.23321 0.7636 0.32286 0.0
C427 C 0.22707 0.73884 0.2816 0.0
C428 C 0.22191 0.7086 0.31103 0.0
C429 C 0.20077 0.74712 0.24419 0.0
C430 C 0.25598 0.7388 0.24974 0.0
C431 C 0.27531 0.76025 0.26975 0.0
C432 C 0.30323 0.76474 0.24647 0.0
C433 C 0.31162 0.74682 0.20148 0.0
C434 C 0.29222 0.72457 0.18058 0.0
C435 C 0.26409 0.72055 0.20522 0.0
H436 H 0.18862 0.75156 0.69775 0.0
H437 H 0.24695 0.82884 0.68284 0.0
H438 H 0.27666 0.81021 0.7607 0.0
H439 H 0.19009 0.74868 0.84888 0.0
H440 H 0.18959 0.70817 0.85166 0.0
H441 H 0.17228 0.72757 0.7948 0.0
H442 H 0.2044 0.69715 0.72576 0.0
H443 H 0.22186 0.67772 0.78238 0.0
H444 H 0.24421 0.69758 0.73246 0.0
H445 H 0.3021 0.78225 0.83426 0.0
H446 H 0.32004 0.74794 0.90685 0.0
H447 H 0.24402 0.68995 0.88069 0.0
C448 C 0.20756 0.76455 0.71116 0.0
C449 C 0.21554 0.7916 0.68419 0.0
C450 C 0.24037 0.80812 0.70298 0.0
C451 C 0.25745 0.79771 0.7471 0.0
C452 C 0.24919 0.77095 0.77255 0.0
C453 C 0.22468 0.75471 0.75597 0.0
C454 C 0.22081 0.72673 0.79123 0.0
C455 C 0.19145 0.72787 0.82357 0.0
C456 C 0.22296 0.6981 0.75583 0.0
C457 C 0.24725 0.72967 0.82945 0.0
C458 C 0.26335 0.75529 0.81743 0.0
C459 C 0.28954 0.76231 0.84467 0.0
C460 C 0.29959 0.74263 0.88559 0.0
C461 C 0.28327 0.71652 0.89941 0.0
C462 C 0.25664 0.71003 0.87128 0.0
H463 H 0.29564 0.25322 0.82085 0.0
H464 H 0.26163 0.34459 0.81748 0.0
H465 H 0.24028 0.33546 0.72552 0.0
H466 H 0.31112 0.24751 0.66777 0.0
H467 H 0.29959 0.20872 0.66626 0.0
H468 H 0.31665 0.22389 0.72747 0.0
H469 H 0.2713 0.20701 0.78567 0.0
H470 H 0.25415 0.19191 0.72485 0.0
H471 H 0.23473 0.2194 0.76598 0.0
H472 H 0.21504 0.31417 0.64408 0.0
H473 H 0.18929 0.28234 0.5758 0.0
H474 H 0.24145 0.20548 0.62765 0.0
C475 C 0.28442 0.27154 0.80005 0.0
C476 C 0.28031 0.29961 0.82626 0.0
C477 C 0.26512 0.32292 0.79814 0.0
C478 C 0.25301 0.318 0.74575 0.0
C479 C 0.25668 0.28981 0.72168 0.0
C480 C 0.27234 0.26706 0.74751 0.0
C481 C 0.27063 0.23801 0.715 0.0
C482 C 0.30133 0.22901 0.6928 0.0
C483 C 0.25687 0.21261 0.74996 0.0
C484 C 0.25024 0.24759 0.66854 0.0
C485 C 0.24278 0.27769 0.67286 0.0
C486 C 0.22139 0.29085 0.63909 0.0
C487 C 0.20685 0.27266 0.60062 0.0
C488 C 0.214 0.24182 0.59594 0.0
C489 C 0.23646 0.2293 0.62925 0.0
H490 H 0.68965 0.2449 0.90667 0.0
H491 H 0.76209 0.30309 0.95538 0.0
H492 H 0.79409 0.27972 0.88392 0.0
H493 H 0.73589 0.17815 0.87599 0.0
H494 H 0.71278 0.16739 0.8187 0.0
H495 H 0.69685 0.18688 0.87689 0.0
H496 H 0.67633 0.22794 0.81105 0.0
H497 H 0.69226 0.20871 0.75281 0.0
H498 H 0.70146 0.24752 0.76553 0.0
H499 H 0.81556 0.25448 0.79933 0.0
H500 H 0.82605 0.22701 0.71264 0.0
H501 H 0.74025 0.18346 0.7238 0.0
C502 C 0.7124 0.25242 0.90285 0.0
C503 C 0.72346 0.27583 0.93616 0.0
C504 C 0.7533 0.28507 0.93023 0.0
C505 C 0.77158 0.27194 0.88984 0.0
C506 C 0.75974 0.24927 0.8568 0.0
C507 C 0.73096 0.23927 0.86357 0.0
C508 C 0.72307 0.21546 0.82161 0.0
C509 C 0.71679 0.18517 0.85001 0.0
C510 C 0.69674 0.22553 0.78563 0.0
C511 C 0.75155 0.21435 0.78871 0.0
C512 C 0.77249 0.23393 0.80966 0.0
C513 C 0.79959 0.23862 0.78327 0.0
C514 C 0.80529 0.22304 0.73402 0.0
C515 C 0.78407 0.20292 0.71207 0.0
C516 C 0.75711 0.19822 0.74034 0.0
H517 H 0.72408 0.67802 0.84059 0.0
H518 H 0.64354 0.7311 0.85089 0.0
H519 H 0.65473 0.75357 0.75956 0.0
H520 H 0.7676 0.73492 0.79133 0.0
H521 H 0.7903 0.71188 0.7469 0.0
H522 H 0.77301 0.69561 0.80681 0.0
H523 H 0.7477 0.65545 0.74541 0.0
H524 H 0.76509 0.67155 0.68512 0.0
H525 H 0.72538 0.66723 0.68759 0.0
H526 H 0.6776 0.77404 0.67171 0.0
H527 H 0.7117 0.7933 0.59948 0.0
H528 H 0.77837 0.7289 0.65131 0.0
C529 C 0.70829 0.69363 0.82281 0.0
C530 C 0.68275 0.70253 0.85228 0.0
C531 C 0.66312 0.72379 0.8286 0.0
C532 C 0.66923 0.73656 0.77671 0.0
C533 C 0.69512 0.72789 0.74934 0.0
C534 C 0.71435 0.70692 0.77174 0.0
C535 C 0.74249 0.70426 0.73804 0.0
C536 C 0.76995 0.71216 0.77285 0.0
C537 C 0.74532 0.67275 0.71252 0.0
C538 C 0.73662 0.72776 0.69426 0.0
C539 C 0.70888 0.74062 0.70044 0.0
C540 C 0.69922 0.76389 0.66612 0.0
C541 C 0.71868 0.77466 0.62524 0.0
C542 C 0.7476 0.76257 0.62011 0.0
C543 C 0.75634 0.73849 0.65437 0.0
loop_
_geom_bond_atom_site_label_1
_geom_bond_atom_site_label_2
_geom_bond_distance
_geom_bond_site_symmetry_2
_ccdc_geom_bond_type
C0 O1 1.306 . S
C0 O3 1.160 1_554 S
O1 C0 1.306 . S
O1 Cd2 2.228 . S
Cd2 O1 2.228 . S
Cd2 O6 2.273 . S
Cd2 O10 2.277 . S
O3 C0 1.160 1_556 S
O3 Cd4 2.203 1_556 S
Cd4 O3 2.203 1_554 S
Cd4 O6 2.411 . S
Cd4 O7 2.333 . S
Cd4 O8 2.352 1_554 S
Cd4 O12 2.277 . S
Cd4 O13 2.356 1_554 S
C5 O10 1.209 . S
C5 O12 1.226 . S
O6 Cd2 2.273 . S
O6 Cd4 2.411 . S
O6 C9 1.320 . S
O7 Cd4 2.333 . S
O7 C9 1.214 . S
O8 Cd4 2.352 1_556 S
O8 C11 1.258 . S
C9 O6 1.320 . S
C9 O7 1.214 . S
O10 Cd2 2.277 . S
O10 C5 1.209 . S
C11 O8 1.258 . S
C11 O13 1.282 . S
O12 Cd4 2.277 . S
O12 C5 1.226 . S
O13 Cd4 2.356 1_556 S
O13 C11 1.282 . S
C14 O15 1.306 . S
C14 O17 1.160 . S
O15 C14 1.306 . S
O15 Cd16 2.228 1_554 S
Cd16 O15 2.228 1_556 S
Cd16 O20 2.273 . S
Cd16 O24 2.277 . S
O17 C14 1.160 . S
O17 Cd18 2.203 . S
Cd18 O17 2.203 . S
Cd18 O20 2.411 1_554 S
Cd18 O21 2.333 . S
Cd18 O22 2.352 . S
Cd18 O26 2.277 . S
Cd18 O27 2.356 . S
C19 O24 1.209 1_554 S
C19 O26 1.226 . S
O20 Cd16 2.273 . S
O20 Cd18 2.411 1_556 S
O20 C23 1.320 . S
O21 Cd18 2.333 . S
O21 C23 1.214 1_554 S
O22 Cd18 2.352 . S
O22 C25 1.258 . S
C23 O20 1.320 . S
C23 O21 1.214 1_556 S
O24 Cd16 2.277 . S
O24 C19 1.209 1_556 S
C25 O22 1.258 . S
C25 O27 1.282 . S
O26 Cd18 2.277 . S
O26 C19 1.226 . S
O27 Cd18 2.356 . S
O27 C25 1.282 . S
C28 O29 1.306 . S
C28 O31 1.160 1_554 S
O29 C28 1.306 . S
O29 Cd30 2.228 . S
Cd30 O29 2.228 . S
Cd30 O34 2.273 . S
Cd30 O38 2.277 . S
O31 C28 1.160 1_556 S
O31 Cd32 2.203 1_556 S
Cd32 O31 2.203 1_554 S
Cd32 O34 2.411 . S
Cd32 O35 2.333 . S
Cd32 O36 2.352 1_554 S
Cd32 O40 2.277 . S
Cd32 O41 2.356 1_554 S
C33 O38 1.209 . S
C33 O40 1.226 . S
O34 Cd30 2.273 . S
O34 Cd32 2.411 . S
O34 C37 1.320 . S
O35 Cd32 2.333 . S
O35 C37 1.214 . S
O36 Cd32 2.352 1_556 S
O36 C39 1.258 . S
C37 O34 1.320 . S
C37 O35 1.214 . S
O38 Cd30 2.277 . S
O38 C33 1.209 . S
C39 O36 1.258 . S
C39 O41 1.282 . S
O40 Cd32 2.277 . S
O40 C33 1.226 . S
O41 Cd32 2.356 1_556 S
O41 C39 1.282 . S
C42 O43 1.306 . S
C42 O45 1.160 . S
O43 C42 1.306 . S
O43 Cd44 2.228 1_554 S
Cd44 O43 2.228 1_556 S
Cd44 O48 2.273 . S
Cd44 O52 2.277 . S
O45 C42 1.160 . S
O45 Cd46 2.203 . S
Cd46 O45 2.203 . S
Cd46 O48 2.411 1_554 S
Cd46 O49 2.333 . S
Cd46 O50 2.352 . S
Cd46 O54 2.277 . S
Cd46 O55 2.356 . S
C47 O52 1.209 1_554 S
C47 O54 1.226 . S
O48 Cd44 2.273 . S
O48 Cd46 2.411 1_556 S
O48 C51 1.320 . S
O49 Cd46 2.333 . S
O49 C51 1.214 1_554 S
O50 Cd46 2.352 . S
O50 C53 1.258 . S
C51 O48 1.320 . S
C51 O49 1.214 1_556 S
O52 Cd44 2.277 . S
O52 C47 1.209 1_556 S
C53 O50 1.258 . S
C53 O55 1.282 . S
O54 Cd46 2.277 . S
O54 C47 1.226 . S
O55 Cd46 2.356 . S
O55 C53 1.282 . S
C56 O57 1.306 . S
C56 O59 1.160 . S
O57 C56 1.306 . S
O57 Cd58 2.228 . S
Cd58 O57 2.228 . S
Cd58 O62 2.273 . S
Cd58 O66 2.277 . S
O59 C56 1.160 . S
O59 Cd60 2.203 . S
Cd60 O59 2.203 . S
Cd60 O62 2.411 . S
Cd60 O63 2.333 . S
Cd60 O64 2.352 . S
Cd60 O68 2.277 . S
Cd60 O69 2.356 . S
C61 O66 1.209 . S
C61 O68 1.226 . S
O62 Cd58 2.273 . S
O62 Cd60 2.411 . S
O62 C65 1.320 . S
O63 Cd60 2.333 . S
O63 C65 1.214 . S
O64 Cd60 2.352 . S
O64 C67 1.258 . S
C65 O62 1.320 . S
C65 O63 1.214 . S
O66 Cd58 2.277 . S
O66 C61 1.209 . S
C67 O64 1.258 . S
C67 O69 1.282 . S
O68 Cd60 2.277 . S
O68 C61 1.226 . S
O69 Cd60 2.356 . S
O69 C67 1.282 . S
C70 O71 1.306 . S
C70 O73 1.160 . S
O71 C70 1.306 . S
O71 Cd72 2.228 . S
Cd72 O71 2.228 . S
Cd72 O76 2.273 . S
Cd72 O80 2.277 . S
O73 C70 1.160 . S
O73 Cd74 2.203 . S
Cd74 O73 2.203 . S
Cd74 O76 2.411 . S
Cd74 O77 2.333 . S
Cd74 O78 2.352 . S
Cd74 O82 2.277 . S
Cd74 O83 2.356 . S
C75 O80 1.209 . S
C75 O82 1.226 . S
O76 Cd72 2.273 . S
O76 Cd74 2.411 . S
O76 C79 1.320 . S
O77 Cd74 2.333 . S
O77 C79 1.214 . S
O78 Cd74 2.352 . S
O78 C81 1.258 . S
C79 O76 1.320 . S
C79 O77 1.214 . S
O80 Cd72 2.277 . S
O80 C75 1.209 . S
C81 O78 1.258 . S
C81 O83 1.282 . S
O82 Cd74 2.277 . S
O82 C75 1.226 . S
O83 Cd74 2.356 . S
O83 C81 1.282 . S
C84 O85 1.306 . S
C84 O87 1.160 . S
O85 C84 1.306 . S
O85 Cd86 2.228 . S
Cd86 O85 2.228 . S
Cd86 O90 2.273 . S
Cd86 O94 2.277 . S
O87 C84 1.160 . S
O87 Cd88 2.203 . S
Cd88 O87 2.203 . S
Cd88 O90 2.411 . S
Cd88 O91 2.333 . S
Cd88 O92 2.352 . S
Cd88 O96 2.277 . S
Cd88 O97 2.356 . S
C89 O94 1.209 . S
C89 O96 1.226 . S
O90 Cd86 2.273 . S
O90 Cd88 2.411 . S
O90 C93 1.320 . S
O91 Cd88 2.333 . S
O91 C93 1.214 . S
O92 Cd88 2.352 . S
O92 C95 1.258 . S
C93 O90 1.320 . S
C93 O91 1.214 . S
O94 Cd86 2.277 . S
O94 C89 1.209 . S
C95 O92 1.258 . S
C95 O97 1.282 . S
O96 Cd88 2.277 . S
O96 C89 1.226 . S
O97 Cd88 2.356 . S
O97 C95 1.282 . S
C98 O99 1.306 . S
C98 O101 1.160 . S
O99 C98 1.306 . S
O99 Cd100 2.228 . S
Cd100 O99 2.228 . S
Cd100 O104 2.273 . S
Cd100 O108 2.277 . S
O101 C98 1.160 . S
O101 Cd102 2.203 . S
Cd102 O101 2.203 . S
Cd102 O104 2.411 . S
Cd102 O105 2.333 . S
Cd102 O106 2.352 . S
Cd102 O110 2.277 . S
Cd102 O111 2.356 . S
C103 O108 1.209 . S
C103 O110 1.226 . S
O104 Cd100 2.273 . S
O104 Cd102 2.411 . S
O104 C107 1.320 . S
O105 Cd102 2.333 . S
O105 C107 1.214 . S
O106 Cd102 2.352 . S
O106 C109 1.258 . S
C107 O104 1.320 . S
C107 O105 1.214 . S
O108 Cd100 2.277 . S
O108 C103 1.209 . S
C109 O106 1.258 . S
C109 O111 1.282 . S
O110 Cd102 2.277 . S
O110 C103 1.226 . S
O111 Cd102 2.356 . S
O111 C109 1.282 . S
H112 C124 0.930 1_556 S
H113 C126 0.930 . S
H114 C127 0.930 . S
H115 C131 0.959 . S
H116 C131 0.959 . S
H117 C131 0.961 . S
H118 C132 0.960 . S
H119 C132 0.961 . S
H120 C132 0.959 . S
H121 C135 0.929 . S
H122 C136 0.931 . S
H123 C138 0.930 . S
C124 H112 0.930 1_554 S
C124 C125 1.399 . S
C124 C129 1.399 . S
C125 C124 1.399 . S
C125 C126 1.376 . S
C126 H113 0.930 . S
C126 C125 1.376 . S
C126 C127 1.388 . S
C127 H114 0.930 . S
C127 C126 1.388 . S
C127 C128 1.390 . S
C128 C127 1.390 . S
C128 C129 1.394 . S
C128 C134 1.465 . S
C129 C124 1.399 . S
C129 C128 1.394 . S
C129 C130 1.516 1_554 S
C130 C129 1.516 1_556 S
C130 C131 1.502 . S
C130 C132 1.561 . S
C130 C133 1.526 1_556 S
C131 H115 0.959 . S
C131 H116 0.959 . S
C131 H117 0.961 . S
C131 C130 1.502 . S
C132 H118 0.960 . S
C132 H119 0.961 . S
C132 H120 0.959 . S
C132 C130 1.561 . S
C133 C130 1.526 1_554 S
C133 C134 1.396 . S
C133 C138 1.390 1_554 S
C134 C128 1.465 . S
C134 C133 1.396 . S
C134 C135 1.399 . S
C135 H121 0.929 . S
C135 C134 1.399 . S
C135 C136 1.385 . S
C136 H122 0.931 . S
C136 C135 1.385 . S
C136 C137 1.389 . S
C137 C136 1.389 . S
C137 C138 1.387 1_554 S
C138 H123 0.930 . S
C138 C133 1.390 1_556 S
C138 C137 1.387 1_556 S
H139 C151 0.930 . S
H140 C153 0.930 . S
H141 C154 0.930 . S
H142 C158 0.959 . S
H143 C158 0.959 . S
H144 C158 0.961 . S
H145 C159 0.960 . S
H146 C159 0.961 . S
H147 C159 0.959 1_556 S
H148 C162 0.929 1_556 S
H149 C163 0.931 . S
H150 C165 0.930 . S
C151 H139 0.930 . S
C151 C152 1.399 . S
C151 C156 1.399 . S
C152 C151 1.399 . S
C152 C153 1.376 1_554 S
C153 H140 0.930 . S
C153 C152 1.376 1_556 S
C153 C154 1.388 . S
C154 H141 0.930 . S
C154 C153 1.388 . S
C154 C155 1.390 1_556 S
C155 C154 1.390 1_554 S
C155 C156 1.394 . S
C155 C161 1.465 . S
C156 C151 1.399 . S
C156 C155 1.394 . S
C156 C157 1.516 . S
C157 C156 1.516 . S
C157 C158 1.502 . S
C157 C159 1.561 . S
C157 C160 1.526 . S
C158 H142 0.959 . S
C158 H143 0.959 . S
C158 H144 0.961 . S
C158 C157 1.502 . S
C159 H145 0.960 . S
C159 H146 0.961 . S
C159 H147 0.959 1_554 S
C159 C157 1.561 . S
C160 C157 1.526 . S
C160 C161 1.396 . S
C160 C165 1.390 . S
C161 C155 1.465 . S
C161 C160 1.396 . S
C161 C162 1.399 . S
C162 H148 0.929 1_554 S
C162 C161 1.399 . S
C162 C163 1.385 . S
C163 H149 0.931 . S
C163 C162 1.385 . S
C163 C164 1.389 . S
C164 C163 1.389 . S
C164 C165 1.387 . S
C165 H150 0.930 . S
C165 C160 1.390 . S
C165 C164 1.387 . S
H166 C178 0.930 . S
H167 C180 0.930 . S
H168 C181 0.930 . S
H169 C185 0.959 . S
H170 C185 0.959 . S
H171 C185 0.961 . S
H172 C186 0.960 . S
H173 C186 0.961 . S
H174 C186 0.959 . S
H175 C189 0.929 . S
H176 C190 0.931 . S
H177 C192 0.930 1_556 S
C178 H166 0.930 . S
C178 C179 1.399 1_556 S
C178 C183 1.399 1_556 S
C179 C178 1.399 1_554 S
C179 C180 1.376 . S
C180 H167 0.930 . S
C180 C179 1.376 . S
C180 C181 1.388 . S
C181 H168 0.930 . S
C181 C180 1.388 . S
C181 C182 1.390 . S
C182 C181 1.390 . S
C182 C183 1.394 . S
C182 C188 1.465 . S
C183 C178 1.399 1_554 S
C183 C182 1.394 . S
C183 C184 1.516 1_554 S
C184 C183 1.516 1_556 S
C184 C185 1.502 . S
C184 C186 1.561 . S
C184 C187 1.526 1_556 S
C185 H169 0.959 . S
C185 H170 0.959 . S
C185 H171 0.961 . S
C185 C184 1.502 . S
C186 H172 0.960 . S
C186 H173 0.961 . S
C186 H174 0.959 . S
C186 C184 1.561 . S
C187 C184 1.526 1_554 S
C187 C188 1.396 . S
C187 C192 1.390 . S
C188 C182 1.465 . S
C188 C187 1.396 . S
C188 C189 1.399 . S
C189 H175 0.929 . S
C189 C188 1.399 . S
C189 C190 1.385 . S
C190 H176 0.931 . S
C190 C189 1.385 . S
C190 C191 1.389 . S
C191 C190 1.389 . S
C191 C192 1.387 . S
C192 H177 0.930 1_554 S
C192 C187 1.390 . S
C192 C191 1.387 . S
H193 C205 0.930 . S
H194 C207 0.930 . S
H195 C208 0.930 . S
H196 C212 0.959 . S
H197 C212 0.959 . S
H198 C212 0.961 . S
H199 C213 0.960 . S
H200 C213 0.961 . S
H201 C213 0.959 . S
H202 C216 0.929 . S
H203 C217 0.931 . S
H204 C219 0.930 1_556 S
C205 H193 0.930 . S
C205 C206 1.399 . S
C205 C210 1.399 . S
C206 C205 1.399 . S
C206 C207 1.376 . S
C207 H194 0.930 . S
C207 C206 1.376 . S
C207 C208 1.388 . S
C208 H195 0.930 . S
C208 C207 1.388 . S
C208 C209 1.390 . S
C209 C208 1.390 . S
C209 C210 1.394 . S
C209 C215 1.465 . S
C210 C205 1.399 . S
C210 C209 1.394 . S
C210 C211 1.516 . S
C211 C210 1.516 . S
C211 C212 1.502 1_554 S
C211 C213 1.561 . S
C211 C214 1.526 . S
C212 H196 0.959 . S
C212 H197 0.959 . S
C212 H198 0.961 . S
C212 C211 1.502 1_556 S
C213 H199 0.960 . S
C213 H200 0.961 . S
C213 H201 0.959 . S
C213 C211 1.561 . S
C214 C211 1.526 . S
C214 C215 1.396 . S
C214 C219 1.390 . S
C215 C209 1.465 . S
C215 C214 1.396 . S
C215 C216 1.399 . S
C216 H202 0.929 . S
C216 C215 1.399 . S
C216 C217 1.385 . S
C217 H203 0.931 . S
C217 C216 1.385 . S
C217 C218 1.389 . S
C218 C217 1.389 . S
C218 C219 1.387 . S
C219 H204 0.930 1_554 S
C219 C214 1.390 . S
C219 C218 1.387 . S
H220 C232 0.930 . S
H221 C234 0.930 . S
H222 C235 0.930 . S
H223 C239 0.959 . S
H224 C239 0.959 . S
H225 C239 0.961 1_565 S
H226 C240 0.960 1_565 S
H227 C240 0.961 . S
H228 C240 0.959 . S
H229 C243 0.929 . S
H230 C244 0.931 . S
H231 C246 0.930 . S
C232 H220 0.930 . S
C232 C233 1.399 . S
C232 C237 1.399 . S
C233 C232 1.399 . S
C233 C234 1.376 . S
C234 H221 0.930 . S
C234 C233 1.376 . S
C234 C235 1.388 . S
C235 H222 0.930 . S
C235 C234 1.388 . S
C235 C236 1.390 . S
C236 C235 1.390 . S
C236 C237 1.394 . S
C236 C242 1.465 1_565 S
C237 C232 1.399 . S
C237 C236 1.394 . S
C237 C238 1.516 1_565 S
C238 C237 1.516 1_545 S
C238 C239 1.502 . S
C238 C240 1.561 . S
C238 C241 1.526 . S
C239 H223 0.959 . S
C239 H224 0.959 . S
C239 H225 0.961 1_545 S
C239 C238 1.502 . S
C240 H226 0.960 1_545 S
C240 H227 0.961 . S
C240 H228 0.959 . S
C240 C238 1.561 . S
C241 C238 1.526 . S
C241 C242 1.396 . S
C241 C246 1.390 . S
C242 C236 1.465 1_545 S
C242 C241 1.396 . S
C242 C243 1.399 . S
C243 H229 0.929 . S
C243 C242 1.399 . S
C243 C244 1.385 . S
C244 H230 0.931 . S
C244 C243 1.385 . S
C244 C245 1.389 . S
C245 C244 1.389 . S
C245 C246 1.387 . S
C246 H231 0.930 . S
C246 C241 1.390 . S
C246 C245 1.387 . S
H247 C259 0.930 . S
H248 C261 0.930 . S
H249 C262 0.930 . S
H250 C266 0.959 . S
H251 C266 0.959 1_655 S
H252 C266 0.961 . S
H253 C267 0.960 1_455 S
H254 C267 0.961 . S
H255 C267 0.959 . S
H256 C270 0.929 . S
H257 C271 0.931 . S
H258 C273 0.930 . S
C259 H247 0.930 . S
C259 C260 1.399 . S
C259 C264 1.399 . S
C260 C259 1.399 . S
C260 C261 1.376 . S
C261 H248 0.930 . S
C261 C260 1.376 . S
C261 C262 1.388 . S
C262 H249 0.930 . S
C262 C261 1.388 . S
C262 C263 1.390 . S
C263 C262 1.390 . S
C263 C264 1.394 . S
C263 C269 1.465 1_455 S
C264 C259 1.399 . S
C264 C263 1.394 . S
C264 C265 1.516 . S
C265 C264 1.516 . S
C265 C266 1.502 . S
C265 C267 1.561 1_455 S
C265 C268 1.526 1_455 S
C266 H250 0.959 . S
C266 H251 0.959 1_455 S
C266 H252 0.961 . S
C266 C265 1.502 . S
C267 H253 0.960 1_655 S
C267 H254 0.961 . S
C267 H255 0.959 . S
C267 C265 1.561 1_655 S
C268 C265 1.526 1_655 S
C268 C269 1.396 . S
C268 C273 1.390 . S
C269 C263 1.465 1_655 S
C269 C268 1.396 . S
C269 C270 1.399 . S
C270 H256 0.929 . S
C270 C269 1.399 . S
C270 C271 1.385 . S
C271 H257 0.931 . S
C271 C270 1.385 . S
C271 C272 1.389 . S
C272 C271 1.389 . S
C272 C273 1.387 . S
C273 H258 0.930 . S
C273 C268 1.390 . S
C273 C272 1.387 . S
H274 C286 0.930 . S
H275 C288 0.930 . S
H276 C289 0.930 . S
H277 C293 0.959 . S
H278 C293 0.959 . S
H279 C293 0.961 1_545 S
H280 C294 0.960 . S
H281 C294 0.961 1_565 S
H282 C294 0.959 . S
H283 C297 0.929 . S
H284 C298 0.931 . S
H285 C300 0.930 . S
C286 H274 0.930 . S
C286 C287 1.399 . S
C286 C291 1.399 . S
C287 C286 1.399 . S
C287 C288 1.376 . S
C288 H275 0.930 . S
C288 C287 1.376 . S
C288 C289 1.388 . S
C289 H276 0.930 . S
C289 C288 1.388 . S
C289 C290 1.390 . S
C290 C289 1.390 . S
C290 C291 1.394 . S
C290 C296 1.465 1_545 S
C291 C286 1.399 . S
C291 C290 1.394 . S
C291 C292 1.530 . S
C292 C291 1.530 . S
C292 C293 1.500 1_545 S
C292 C294 1.563 . S
C292 C295 1.512 1_545 S
C293 H277 0.959 . S
C293 H278 0.959 . S
C293 H279 0.961 1_565 S
C293 C292 1.500 1_565 S
C294 H280 0.960 . S
C294 H281 0.961 1_545 S
C294 H282 0.959 . S
C294 C292 1.563 . S
C295 C292 1.512 1_565 S
C295 C296 1.396 . S
C295 C300 1.390 . S
C296 C290 1.465 1_565 S
C296 C295 1.396 . S
C296 C297 1.399 . S
C297 H283 0.929 . S
C297 C296 1.399 . S
C297 C298 1.385 . S
C298 H284 0.931 . S
C298 C297 1.385 . S
C298 C299 1.389 . S
C299 C298 1.389 . S
C299 C300 1.387 . S
C300 H285 0.930 . S
C300 C295 1.390 . S
C300 C299 1.387 . S
H301 C313 0.930 . S
H302 C315 0.930 . S
H303 C316 0.930 . S
H304 C320 0.959 . S
H305 C320 0.959 1_455 S
H306 C320 0.961 . S
H307 C321 0.960 1_655 S
H308 C321 0.961 . S
H309 C321 0.959 . S
H310 C324 0.929 . S
H311 C325 0.931 . S
H312 C327 0.930 . S
C313 H301 0.930 . S
C313 C314 1.399 . S
C313 C318 1.399 . S
C314 C313 1.399 . S
C314 C315 1.376 . S
C315 H302 0.930 . S
C315 C314 1.376 . S
C315 C316 1.388 . S
C316 H303 0.930 . S
C316 C315 1.388 . S
C316 C317 1.390 . S
C317 C316 1.390 . S
C317 C318 1.394 . S
C317 C323 1.465 1_655 S
C318 C313 1.399 . S
C318 C317 1.394 . S
C318 C319 1.516 . S
C319 C318 1.516 . S
C319 C320 1.502 . S
C319 C321 1.561 1_655 S
C319 C322 1.526 1_655 S
C320 H304 0.959 . S
C320 H305 0.959 1_655 S
C320 H306 0.961 . S
C320 C319 1.502 . S
C321 H307 0.960 1_455 S
C321 H308 0.961 . S
C321 H309 0.959 . S
C321 C319 1.561 1_455 S
C322 C319 1.526 1_455 S
C322 C323 1.396 . S
C322 C327 1.390 . S
C323 C317 1.465 1_455 S
C323 C322 1.396 . S
C323 C324 1.399 . S
C324 H310 0.929 . S
C324 C323 1.399 . S
C324 C325 1.385 . S
C325 H311 0.931 . S
C325 C324 1.385 . S
C325 C326 1.389 . S
C326 C325 1.389 . S
C326 C327 1.387 . S
C327 H312 0.930 . S
C327 C322 1.390 . S
C327 C326 1.387 . S
H328 C340 0.930 . S
H329 C342 0.930 . S
H330 C343 0.930 . S
H331 C347 0.959 . S
H332 C347 0.959 . S
H333 C347 0.961 . S
H334 C348 0.960 . S
H335 C348 0.961 . S
H336 C348 0.959 . S
H337 C351 0.929 . S
H338 C352 0.931 . S
H339 C354 0.930 . S
C340 H328 0.930 . S
C340 C341 1.399 . S
C340 C345 1.399 . S
C341 C340 1.399 . S
C341 C342 1.376 . S
C342 H329 0.930 . S
C342 C341 1.376 . S
C342 C343 1.388 . S
C343 H330 0.930 . S
C343 C342 1.388 . S
C343 C344 1.390 . S
C344 C343 1.390 . S
C344 C345 1.394 . S
C344 C350 1.465 . S
C345 C340 1.399 . S
C345 C344 1.394 . S
C345 C346 1.516 . S
C346 C345 1.516 . S
C346 C347 1.502 . S
C346 C348 1.561 . S
C346 C349 1.526 . S
C347 H331 0.959 . S
C347 H332 0.959 . S
C347 H333 0.961 . S
C347 C346 1.502 . S
C348 H334 0.960 . S
C348 H335 0.961 . S
C348 H336 0.959 . S
C348 C346 1.561 . S
C349 C346 1.526 . S
C349 C350 1.396 . S
C349 C354 1.390 . S
C350 C344 1.465 . S
C350 C349 1.396 . S
C350 C351 1.399 . S
C351 H337 0.929 . S
C351 C350 1.399 . S
C351 C352 1.385 . S
C352 H338 0.931 . S
C352 C351 1.385 . S
C352 C353 1.389 . S
C353 C352 1.389 . S
C353 C354 1.387 . S
C354 H339 0.930 . S
C354 C349 1.390 . S
C354 C353 1.387 . S
H355 C367 0.930 . S
H356 C369 0.930 . S
H357 C370 0.930 . S
H358 C374 0.959 . S
H359 C374 0.959 . S
H360 C374 0.961 . S
H361 C375 0.960 . S
H362 C375 0.961 . S
H363 C375 0.959 . S
H364 C378 0.929 . S
H365 C379 0.931 . S
H366 C381 0.930 . S
C367 H355 0.930 . S
C367 C368 1.399 . S
C367 C372 1.399 . S
C368 C367 1.399 . S
C368 C369 1.376 . S
C369 H356 0.930 . S
C369 C368 1.376 . S
C369 C370 1.388 . S
C370 H357 0.930 . S
C370 C369 1.388 . S
C370 C371 1.390 . S
C371 C370 1.390 . S
C371 C372 1.394 . S
C371 C377 1.465 . S
C372 C367 1.399 . S
C372 C371 1.394 . S
C372 C373 1.516 . S
C373 C372 1.516 . S
C373 C374 1.502 . S
C373 C375 1.561 . S
C373 C376 1.526 . S
C374 H358 0.959 . S
C374 H359 0.959 . S
C374 H360 0.961 . S
C374 C373 1.502 . S
C375 H361 0.960 . S
C375 H362 0.961 . S
C375 H363 0.959 . S
C375 C373 1.561 . S
C376 C373 1.526 . S
C376 C377 1.396 . S
C376 C381 1.390 . S
C377 C371 1.465 . S
C377 C376 1.396 . S
C377 C378 1.399 . S
C378 H364 0.929 . S
C378 C377 1.399 . S
C378 C379 1.385 . S
C379 H365 0.931 . S
C379 C378 1.385 . S
C379 C380 1.389 . S
C380 C379 1.389 . S
C380 C381 1.387 . S
C381 H366 0.930 . S
C381 C376 1.390 . S
C381 C380 1.387 . S
H382 C394 0.930 . S
H383 C396 0.930 . S
H384 C397 0.930 . S
H385 C401 0.959 . S
H386 C401 0.959 . S
H387 C401 0.961 . S
H388 C402 0.960 . S
H389 C402 0.961 . S
H390 C402 0.959 . S
H391 C405 0.929 . S
H392 C406 0.931 . S
H393 C408 0.930 . S
C394 H382 0.930 . S
C394 C395 1.399 . S
C394 C399 1.399 . S
C395 C394 1.399 . S
C395 C396 1.376 . S
C396 H383 0.930 . S
C396 C395 1.376 . S
C396 C397 1.388 . S
C397 H384 0.930 . S
C397 C396 1.388 . S
C397 C398 1.390 . S
C398 C397 1.390 . S
C398 C399 1.394 . S
C398 C404 1.465 . S
C399 C394 1.399 . S
C399 C398 1.394 . S
C399 C400 1.516 . S
C400 C399 1.516 . S
C400 C401 1.502 . S
C400 C402 1.561 . S
C400 C403 1.526 . S
C401 H385 0.959 . S
C401 H386 0.959 . S
C401 H387 0.961 . S
C401 C400 1.502 . S
C402 H388 0.960 . S
C402 H389 0.961 . S
C402 H390 0.959 . S
C402 C400 1.561 . S
C403 C400 1.526 . S
C403 C404 1.396 . S
C403 C408 1.390 . S
C404 C398 1.465 . S
C404 C403 1.396 . S
C404 C405 1.399 . S
C405 H391 0.929 . S
C405 C404 1.399 . S
C405 C406 1.385 . S
C406 H392 0.931 . S
C406 C405 1.385 . S
C406 C407 1.389 . S
C407 C406 1.389 . S
C407 C408 1.387 . S
C408 H393 0.930 . S
C408 C403 1.390 . S
C408 C407 1.387 . S
H409 C421 0.930 . S
H410 C423 0.930 . S
H411 C424 0.930 . S
H412 C428 0.959 . S
H413 C428 0.959 . S
H414 C428 0.961 . S
H415 C429 0.960 . S
H416 C429 0.961 . S
H417 C429 0.959 . S
H418 C432 0.929 . S
H419 C433 0.931 . S
H420 C435 0.930 . S
C421 H409 0.930 . S
C421 C422 1.399 . S
C421 C426 1.399 . S
C422 C421 1.399 . S
C422 C423 1.376 . S
C423 H410 0.930 . S
C423 C422 1.376 . S
C423 C424 1.388 . S
C424 H411 0.930 . S
C424 C423 1.388 . S
C424 C425 1.390 . S
C425 C424 1.390 . S
C425 C426 1.394 . S
C425 C431 1.465 . S
C426 C421 1.399 . S
C426 C425 1.394 . S
C426 C427 1.516 . S
C427 C426 1.516 . S
C427 C428 1.502 . S
C427 C429 1.561 . S
C427 C430 1.526 . S
C428 H412 0.959 . S
C428 H413 0.959 . S
C428 H414 0.961 . S
C428 C427 1.502 . S
C429 H415 0.960 . S
C429 H416 0.961 . S
C429 H417 0.959 . S
C429 C427 1.561 . S
C430 C427 1.526 . S
C430 C431 1.396 . S
C430 C435 1.390 . S
C431 C425 1.465 . S
C431 C430 1.396 . S
C431 C432 1.399 . S
C432 H418 0.929 . S
C432 C431 1.399 . S
C432 C433 1.385 . S
C433 H419 0.931 . S
C433 C432 1.385 . S
C433 C434 1.389 . S
C434 C433 1.389 . S
C434 C435 1.387 . S
C435 H420 0.930 . S
C435 C430 1.390 . S
C435 C434 1.387 . S
H436 C448 0.930 . S
H437 C450 0.930 . S
H438 C451 0.930 . S
H439 C455 0.959 . S
H440 C455 0.959 . S
H441 C455 0.961 . S
H442 C456 0.960 . S
H443 C456 0.961 . S
H444 C456 0.959 . S
H445 C459 0.929 . S
H446 C460 0.931 . S
H447 C462 0.930 . S
C448 H436 0.930 . S
C448 C449 1.399 . S
C448 C453 1.399 . S
C449 C448 1.399 . S
C449 C450 1.376 . S
C450 H437 0.930 . S
C450 C449 1.376 . S
C450 C451 1.388 . S
C451 H438 0.930 . S
C451 C450 1.388 . S
C451 C452 1.390 . S
C452 C451 1.390 . S
C452 C453 1.394 . S
C452 C458 1.465 . S
C453 C448 1.399 . S
C453 C452 1.394 . S
C453 C454 1.516 . S
C454 C453 1.516 . S
C454 C455 1.502 . S
C454 C456 1.561 . S
C454 C457 1.526 . S
C455 H439 0.959 . S
C455 H440 0.959 . S
C455 H441 0.961 . S
C455 C454 1.502 . S
C456 H442 0.960 . S
C456 H443 0.961 . S
C456 H444 0.959 . S
C456 C454 1.561 . S
C457 C454 1.526 . S
C457 C458 1.396 . S
C457 C462 1.390 . S
C458 C452 1.465 . S
C458 C457 1.396 . S
C458 C459 1.399 . S
C459 H445 0.929 . S
C459 C458 1.399 . S
C459 C460 1.385 . S
C460 H446 0.931 . S
C460 C459 1.385 . S
C460 C461 1.389 . S
C461 C460 1.389 . S
C461 C462 1.387 . S
C462 H447 0.930 . S
C462 C457 1.390 . S
C462 C461 1.387 . S
H463 C475 0.930 . S
H464 C477 0.930 . S
H465 C478 0.930 . S
H466 C482 0.959 . S
H467 C482 0.959 . S
H468 C482 0.961 . S
H469 C483 0.960 . S
H470 C483 0.961 . S
H471 C483 0.959 . S
H472 C486 0.929 . S
H473 C487 0.931 . S
H474 C489 0.930 . S
C475 H463 0.930 . S
C475 C476 1.399 . S
C475 C480 1.399 . S
C476 C475 1.399 . S
C476 C477 1.376 . S
C477 H464 0.930 . S
C477 C476 1.376 . S
C477 C478 1.388 . S
C478 H465 0.930 . S
C478 C477 1.388 . S
C478 C479 1.390 . S
C479 C478 1.390 . S
C479 C480 1.394 . S
C479 C485 1.465 . S
C480 C475 1.399 . S
C480 C479 1.394 . S
C480 C481 1.516 . S
C481 C480 1.516 . S
C481 C482 1.502 . S
C481 C483 1.561 . S
C481 C484 1.526 . S
C482 H466 0.959 . S
C482 H467 0.959 . S
C482 H468 0.961 . S
C482 C481 1.502 . S
C483 H469 0.960 . S
C483 H470 0.961 . S
C483 H471 0.959 . S
C483 C481 1.561 . S
C484 C481 1.526 . S
C484 C485 1.396 . S
C484 C489 1.390 . S
C485 C479 1.465 . S
C485 C484 1.396 . S
C485 C486 1.399 . S
C486 H472 0.929 . S
C486 C485 1.399 . S
C486 C487 1.385 . S
C487 H473 0.931 . S
C487 C486 1.385 . S
C487 C488 1.389 . S
C488 C487 1.389 . S
C488 C489 1.387 . S
C489 H474 0.930 . S
C489 C484 1.390 . S
C489 C488 1.387 . S
H490 C502 0.930 . S
H491 C504 0.930 . S
H492 C505 0.930 . S
H493 C509 0.959 . S
H494 C509 0.959 . S
H495 C509 0.961 . S
H496 C510 0.960 . S
H497 C510 0.961 . S
H498 C510 0.959 . S
H499 C513 0.929 . S
H500 C514 0.931 . S
H501 C516 0.930 . S
C502 H490 0.930 . S
C502 C503 1.399 . S
C502 C507 1.399 . S
C503 C502 1.399 . S
C503 C504 1.376 . S
C504 H491 0.930 . S
C504 C503 1.376 . S
C504 C505 1.388 . S
C505 H492 0.930 . S
C505 C504 1.388 . S
C505 C506 1.390 . S
C506 C505 1.390 . S
C506 C507 1.394 . S
C506 C512 1.465 . S
C507 C502 1.399 . S
C507 C506 1.394 . S
C507 C508 1.516 . S
C508 C507 1.516 . S
C508 C509 1.502 . S
C508 C510 1.561 . S
C508 C511 1.526 . S
C509 H493 0.959 . S
C509 H494 0.959 . S
C509 H495 0.961 . S
C509 C508 1.502 . S
C510 H496 0.960 . S
C510 H497 0.961 . S
C510 H498 0.959 . S
C510 C508 1.561 . S
C511 C508 1.526 . S
C511 C512 1.396 . S
C511 C516 1.390 . S
C512 C506 1.465 . S
C512 C511 1.396 . S
C512 C513 1.399 . S
C513 H499 0.929 . S
C513 C512 1.399 . S
C513 C514 1.385 . S
C514 H500 0.931 . S
C514 C513 1.385 . S
C514 C515 1.389 . S
C515 C514 1.389 . S
C515 C516 1.387 . S
C516 H501 0.930 . S
C516 C511 1.390 . S
C516 C515 1.387 . S
H517 C529 0.930 . S
H518 C531 0.930 . S
H519 C532 0.930 . S
H520 C536 0.959 . S
H521 C536 0.959 . S
H522 C536 0.961 . S
H523 C537 0.960 . S
H524 C537 0.961 . S
H525 C537 0.959 . S
H526 C540 0.929 . S
H527 C541 0.931 . S
H528 C543 0.930 . S
C529 H517 0.930 . S
C529 C530 1.399 . S
C529 C534 1.399 . S
C530 C529 1.399 . S
C530 C531 1.376 . S
C531 H518 0.930 . S
C531 C530 1.376 . S
C531 C532 1.388 . S
C532 H519 0.930 . S
C532 C531 1.388 . S
C532 C533 1.390 . S
C533 C532 1.390 . S
C533 C534 1.394 . S
C533 C539 1.465 . S
C534 C529 1.399 . S
C534 C533 1.394 . S
C534 C535 1.516 . S
C535 C534 1.516 . S
C535 C536 1.502 . S
C535 C537 1.561 . S
C535 C538 1.526 . S
C536 H520 0.959 . S
C536 H521 0.959 . S
C536 H522 0.961 . S
C536 C535 1.502 . S
C537 H523 0.960 . S
C537 H524 0.961 . S
C537 H525 0.959 . S
C537 C535 1.561 . S
C538 C535 1.526 . S
C538 C539 1.396 . S
C538 C543 1.390 . S
C539 C533 1.465 . S
C539 C538 1.396 . S
C539 C540 1.399 . S
C540 H526 0.929 . S
C540 C539 1.399 . S
C540 C541 1.385 . S
C541 H527 0.931 . S
C541 C540 1.385 . S
C541 C542 1.389 . S
C542 C541 1.389 . S
C542 C543 1.387 . S
C543 H528 0.930 . S
C543 C538 1.390 . S
C543 C542 1.387 . S
C125 C5 1.547 . S
C137 C47 1.516 . S
C152 C0 1.508 . S
C164 C14 1.469 . S
C179 C19 1.514 . S
C191 C33 1.544 . S
C206 C42 1.508 . S
C218 C28 1.469 . S
C233 C61 1.515 . S
C245 C103 1.542 . S
C260 C70 1.511 . S
C272 C56 1.467 . S
C287 C89 1.529 . S
C299 C75 1.537 . S
C314 C98 1.509 . S
C326 C84 1.468 . S
C341 C95 1.494 . S
C353 C9 1.496 . S
C368 C25 1.496 . S
C380 C107 1.494 . S
C395 C67 1.456 . S
C407 C37 1.482 . S
C422 C79 1.482 . S
C434 C53 1.476 . S
C449 C81 1.460 . S
C461 C51 1.485 . S
C476 C11 1.469 . S
C488 C93 1.489 . S
C503 C23 1.495 . S
C515 C109 1.486 . S
C530 C39 1.494 . S
C542 C65 1.492 . S
