# Generated by pormake.
# Topology atn, (4)-cn, num edge types: 1
# Building blocks:
#     Node 0, Type 0, BuildingBlock: QUQFOY_clean_sbu_3, # of connection points: 4
#     Node 1, Type 0, BuildingBlock: QUQFOY_clean_sbu_3, # of connection points: 4
#     Node 2, Type 0, BuildingBlock: QUQFOY_clean_sbu_3, # of connection points: 4
#     Node 3, Type 0, BuildingBlock: QUQFOY_clean_sbu_3, # of connection points: 4
#     Node 4, Type 0, BuildingBlock: QUQFOY_clean_sbu_3, # of connection points: 4
#     Node 5, Type 0, BuildingBlock: QUQFOY_clean_sbu_3, # of connection points: 4
#     Node 6, Type 0, BuildingBlock: QUQFOY_clean_sbu_3, # of connection points: 4
#     Node 7, Type 0, BuildingBlock: QUQFOY_clean_sbu_3, # of connection points: 4
#     Node 8, Type 0, BuildingBlock: QUQFOY_clean_sbu_3, # of connection points: 4
#     Node 9, Type 0, BuildingBlock: QUQFOY_clean_sbu_3, # of connection points: 4
#     Node 10, Type 0, BuildingBlock: QUQFOY_clean_sbu_3, # of connection points: 4
#     Node 11, Type 0, BuildingBlock: QUQFOY_clean_sbu_3, # of connection points: 4
#     Node 12, Type 0, BuildingBlock: QUQFOY_clean_sbu_3, # of connection points: 4
#     Node 13, Type 0, BuildingBlock: QUQFOY_clean_sbu_3, # of connection points: 4
#     Node 14, Type 0, BuildingBlock: QUQFOY_clean_sbu_3, # of connection points: 4
#     Node 15, Type 0, BuildingBlock: QUQFOY_clean_sbu_3, # of connection points: 4
#     Edge 16, Type (0, 0), BuildingBlock: TEMPAE_clean_linker_10, # of connection points: 2
#     Edge 17, Type (0, 0), BuildingBlock: TEMPAE_clean_linker_10, # of connection points: 2
#     Edge 18, Type (0, 0), BuildingBlock: TEMPAE_clean_linker_10, # of connection points: 2
#     Edge 19, Type (0, 0), BuildingBlock: TEMPAE_clean_linker_10, # of connection points: 2
#     Edge 20, Type (0, 0), BuildingBlock: TEMPAE_clean_linker_10, # of connection points: 2
#     Edge 21, Type (0, 0), BuildingBlock: TEMPAE_clean_linker_10, # of connection points: 2
#     Edge 22, Type (0, 0), BuildingBlock: TEMPAE_clean_linker_10, # of connection points: 2
#     Edge 23, Type (0, 0), BuildingBlock: TEMPAE_clean_linker_10, # of connection points: 2
#     Edge 24, Type (0, 0), BuildingBlock: TEMPAE_clean_linker_10, # of connection points: 2
#     Edge 25, Type (0, 0), BuildingBlock: TEMPAE_clean_linker_10, # of connection points: 2
#     Edge 26, Type (0, 0), BuildingBlock: TEMPAE_clean_linker_10, # of connection points: 2
#     Edge 27, Type (0, 0), BuildingBlock: TEMPAE_clean_linker_10, # of connection points: 2
#     Edge 28, Type (0, 0), BuildingBlock: TEMPAE_clean_linker_10, # of connection points: 2
#     Edge 29, Type (0, 0), BuildingBlock: TEMPAE_clean_linker_10, # of connection points: 2
#     Edge 30, Type (0, 0), BuildingBlock: TEMPAE_clean_linker_10, # of connection points: 2
#     Edge 31, Type (0, 0), BuildingBlock: TEMPAE_clean_linker_10, # of connection points: 2
#     Edge 32, Type (0, 0), BuildingBlock: TEMPAE_clean_linker_10, # of connection points: 2
#     Edge 33, Type (0, 0), BuildingBlock: TEMPAE_clean_linker_10, # of connection points: 2
#     Edge 34, Type (0, 0), BuildingBlock: TEMPAE_clean_linker_10, # of connection points: 2
#     Edge 35, Type (0, 0), BuildingBlock: TEMPAE_clean_linker_10, # of connection points: 2
#     Edge 36, Type (0, 0), BuildingBlock: TEMPAE_clean_linker_10, # of connection points: 2
#     Edge 37, Type (0, 0), BuildingBlock: TEMPAE_clean_linker_10, # of connection points: 2
#     Edge 38, Type (0, 0), BuildingBlock: TEMPAE_clean_linker_10, # of connection points: 2
#     Edge 39, Type (0, 0), BuildingBlock: TEMPAE_clean_linker_10, # of connection points: 2
#     Edge 40, Type (0, 0), BuildingBlock: TEMPAE_clean_linker_10, # of connection points: 2
#     Edge 41, Type (0, 0), BuildingBlock: TEMPAE_clean_linker_10, # of connection points: 2
#     Edge 42, Type (0, 0), BuildingBlock: TEMPAE_clean_linker_10, # of connection points: 2
#     Edge 43, Type (0, 0), BuildingBlock: TEMPAE_clean_linker_10, # of connection points: 2
#     Edge 44, Type (0, 0), BuildingBlock: TEMPAE_clean_linker_10, # of connection points: 2
#     Edge 45, Type (0, 0), BuildingBlock: TEMPAE_clean_linker_10, # of connection points: 2
#     Edge 46, Type (0, 0), BuildingBlock: TEMPAE_clean_linker_10, # of connection points: 2
#     Edge 47, Type (0, 0), BuildingBlock: TEMPAE_clean_linker_10, # of connection points: 2
# Relax obj value: 0.028
# Max RMSD: 0.057
# Mean RMSD: 0.057
data_MOF--net-atn--node1-QUQFOY_clean_sbu_3--edge1-TEMPAE_clean_linker_10
_symmetry_space_group_name_H-M    P1
_symmetry_Int_Tables_number       1
_symmetry_cell_setting            triclinic
loop_
_symmetry_equiv_pos_as_xyz
'x, y, z'
_cell_length_a     62.829541
_cell_length_b     62.784451
_cell_length_c     28.453711
_cell_angle_alpha  89.937776
_cell_angle_beta   89.987437
_cell_angle_gamma 89.994868
loop_
_atom_site_label
_atom_site_type_symbol
_atom_site_fract_x
_atom_site_fract_y
_atom_site_fract_z
_atom_type_partial_charge
C0 C 0.15571 0.35133 0.91093 0.0
O1 O 0.14511 0.34019 0.93991 0.0
Cd2 Cd 0.15552 0.33632 0.02041 0.0
O3 O 0.17129 0.36275 0.92447 0.0
Cd4 Cd 0.18899 0.37374 -0.00194 0.0
C5 C 0.2089 0.32433 0.00451 0.0
O6 O 0.15843 0.3716 0.05008 0.0
O7 O 0.189 0.37327 0.08388 0.0
O8 O 0.18678 0.40985 0.96916 0.0
C9 C 0.16893 0.37271 0.08797 0.0
O10 O 0.19042 0.31862 0.01812 0.0
C11 C 0.20557 0.41509 0.9808 0.0
O12 O 0.21261 0.34346 -0.00785 0.0
O13 O 0.21713 0.40072 -0.0008 0.0
C14 C 0.63409 0.16376 0.91557 0.0
O15 O 0.64823 0.15723 0.94404 0.0
Cd16 Cd 0.64899 0.16634 0.02566 0.0
O17 O 0.61932 0.17622 0.92914 0.0
Cd18 Cd 0.60831 0.19454 0.00202 0.0
C19 C 0.6553 0.22012 0.01036 0.0
O20 O 0.6131 0.16386 0.0529 0.0
O21 O 0.60802 0.19382 0.08787 0.0
O22 O 0.57246 0.18993 0.97278 0.0
C23 C 0.61003 0.17379 0.09098 0.0
O24 O 0.66274 0.2027 0.02646 0.0
C25 C 0.56589 0.2082 0.98518 0.0
O26 O 0.63627 0.22123 -0.00476 0.0
O27 O 0.57936 0.22056 0.00418 0.0
C28 C 0.83443 0.64063 0.94007 0.0
O29 O 0.83957 0.65564 0.96769 0.0
Cd30 Cd 0.8293 0.658 0.0484 0.0
O31 O 0.8225 0.62545 0.95379 0.0
Cd32 Cd 0.80304 0.61553 0.02582 0.0
C33 C 0.77568 0.66199 0.02963 0.0
O34 O 0.83164 0.62287 0.07951 0.0
O35 O 0.80085 0.61803 0.11141 0.0
O36 O 0.81082 0.57814 0.01999 0.0
C37 C 0.82075 0.62056 0.11659 0.0
O38 O 0.79261 0.67047 0.04563 0.0
C39 C 0.79174 0.57211 0.01448 0.0
O40 O 0.77543 0.64261 0.01648 0.0
O41 O 0.77749 0.58644 0.01261 0.0
C42 C 0.34907 0.82561 0.91137 0.0
O43 O 0.33813 0.83668 0.93982 0.0
Cd44 Cd 0.33355 0.82661 0.02041 0.0
O45 O 0.35979 0.80963 0.92552 0.0
Cd46 Cd 0.36957 0.79149 -0.00072 0.0
C47 C 0.31924 0.77383 0.00486 0.0
O48 O 0.36867 0.82235 0.05043 0.0
O49 O 0.36922 0.79189 0.08511 0.0
O50 O 0.40559 0.7922 0.97 0.0
C51 C 0.36948 0.81201 0.08859 0.0
O52 O 0.31424 0.79254 0.01835 0.0
C53 C 0.41019 0.77327 0.98205 0.0
O54 O 0.33823 0.76931 -0.00706 0.0
O55 O 0.3955 0.76232 0.001 0.0
C56 C 0.15232 0.63258 0.07343 0.0
O57 O 0.14164 0.64369 0.04454 0.0
Cd58 Cd 0.15234 0.64811 0.96437 0.0
O59 O 0.16822 0.62161 0.05991 0.0
Cd60 Cd 0.1867 0.61157 0.98669 0.0
C61 C 0.20517 0.66165 0.98176 0.0
O62 O 0.15623 0.61294 0.93446 0.0
O63 O 0.18688 0.61209 0.90084 0.0
O64 O 0.18539 0.57546 0.01572 0.0
C65 C 0.1668 0.61208 0.89664 0.0
O66 O 0.18665 0.66692 0.96757 0.0
C67 C 0.20428 0.57064 0.00396 0.0
O68 O 0.20931 0.64257 -0.0061 0.0
O69 O 0.21549 0.58525 0.98545 0.0
C70 C 0.34449 0.15426 0.0745 0.0
O71 O 0.33033 0.14707 0.0469 0.0
Cd72 Cd 0.32833 0.15545 0.96488 0.0
O73 O 0.35854 0.16734 0.06009 0.0
Cd74 Cd 0.36788 0.18617 0.98696 0.0
C75 C 0.31923 0.20883 0.97838 0.0
O76 O 0.36417 0.15516 0.93687 0.0
O77 O 0.36841 0.18515 0.90134 0.0
O78 O 0.4041 0.18389 0.0153 0.0
C79 C 0.36675 0.16508 0.89856 0.0
O80 O 0.31265 0.19099 0.96282 0.0
C81 C 0.40937 0.20258 0.00286 0.0
O82 O 0.33821 0.21101 -0.00672 0.0
O83 O 0.39502 0.21405 0.98421 0.0
C84 C 0.83042 0.3448 0.04751 0.0
O85 O 0.83523 0.32983 0.01946 0.0
Cd86 Cd 0.82516 0.32823 0.93856 0.0
O87 O 0.81906 0.36046 0.03401 0.0
Cd88 Cd 0.80039 0.37155 0.96162 0.0
C89 C 0.77125 0.32631 0.95621 0.0
O90 O 0.82897 0.36339 0.90831 0.0
O91 O 0.79852 0.36945 0.87589 0.0
O92 O 0.80936 0.40867 0.96884 0.0
C93 C 0.81833 0.36622 0.87105 0.0
O94 O 0.78797 0.31725 0.94068 0.0
C95 C 0.79043 0.41529 0.97366 0.0
O96 O 0.77164 0.34565 0.96958 0.0
O97 O 0.77573 0.40141 0.97449 0.0
C98 C 0.62912 0.81944 0.07425 0.0
O99 O 0.6403 0.8301 0.04548 0.0
Cd100 Cd 0.64434 0.81957 0.96516 0.0
O101 O 0.61779 0.80382 0.06047 0.0
Cd102 Cd 0.60701 0.78621 0.9864 0.0
C103 C 0.6563 0.76612 0.98159 0.0
O104 O 0.60905 0.81714 0.93533 0.0
O105 O 0.60782 0.78672 0.90057 0.0
O106 O 0.57105 0.78852 0.01566 0.0
C107 C 0.60789 0.80685 0.89717 0.0
O108 O 0.66209 0.78463 0.96819 0.0
C109 C 0.56558 0.76987 0.00336 0.0
O110 O 0.63709 0.76241 -0.00683 0.0
O111 O 0.57976 0.75832 0.98432 0.0
C112 C 0.65119 0.84566 0.41808 0.0
O113 O 0.64122 0.83372 0.44659 0.0
Cd114 Cd 0.65087 0.83059 0.52778 0.0
O115 O 0.66572 0.85824 0.43231 0.0
Cd116 Cd 0.68164 0.87037 0.5071 0.0
C117 C 0.7052 0.82266 0.51582 0.0
O118 O 0.65072 0.86595 0.55759 0.0
O119 O 0.68082 0.86991 0.59266 0.0
O120 O 0.6774 0.90635 0.4783 0.0
C121 C 0.6608 0.86791 0.59588 0.0
O122 O 0.68705 0.81556 0.52837 0.0
C123 C 0.69576 0.91264 0.49073 0.0
O124 O 0.70755 0.84196 0.50314 0.0
O125 O 0.70797 0.89896 0.50958 0.0
C126 C 0.12898 0.65668 0.41669 0.0
O127 O 0.14042 0.64574 0.44445 0.0
Cd128 Cd 0.14642 0.65577 0.52449 0.0
O129 O 0.11846 0.6727 0.43135 0.0
Cd130 Cd 0.11008 0.69094 0.50596 0.0
C131 C 0.16052 0.7085 0.50695 0.0
O132 O 0.11181 0.66 0.55698 0.0
O133 O 0.1121 0.69048 0.59154 0.0
O134 O 0.07342 0.69066 0.4806 0.0
C135 C 0.11165 0.67037 0.59511 0.0
O136 O 0.16573 0.68984 0.52046 0.0
C137 C 0.06934 0.70962 0.49322 0.0
O138 O 0.14134 0.71299 0.49647 0.0
O139 O 0.08459 0.72037 0.51039 0.0
C140 C 0.32851 0.13327 0.42064 0.0
O141 O 0.33573 0.1467 0.44992 0.0
Cd142 Cd 0.32598 0.14756 0.53125 0.0
O143 O 0.31488 0.11933 0.43296 0.0
Cd144 Cd 0.29486 0.10886 0.50368 0.0
C145 C 0.2731 0.15793 0.51314 0.0
O146 O 0.32489 0.1113 0.55673 0.0
O147 O 0.29431 0.10715 0.58946 0.0
O148 O 0.29725 0.07307 0.47283 0.0
C149 C 0.31432 0.10854 0.59409 0.0
O150 O 0.29077 0.16395 0.53058 0.0
C151 C 0.27832 0.06778 0.48321 0.0
O152 O 0.27075 0.13912 0.4972 0.0
O153 O 0.26666 0.08196 0.50193 0.0
C154 C 0.84953 0.32212 0.39254 0.0
O155 O 0.83583 0.32931 0.42125 0.0
Cd156 Cd 0.83454 0.32014 0.50279 0.0
O157 O 0.86354 0.30869 0.40561 0.0
Cd158 Cd 0.87371 0.28925 0.4777 0.0
C159 C 0.82529 0.26664 0.48878 0.0
O160 O 0.87051 0.31986 0.52898 0.0
O161 O 0.87463 0.28964 0.56346 0.0
O162 O 0.90972 0.29193 0.44833 0.0
C163 C 0.873 0.30968 0.56698 0.0
O164 O 0.81903 0.28456 0.50457 0.0
C165 C 0.9152 0.27322 0.46017 0.0
O166 O 0.84405 0.2643 0.47266 0.0
O167 O 0.90101 0.26151 0.47869 0.0
C168 C 0.65248 0.13979 0.56982 0.0
O169 O 0.646 0.15372 0.54075 0.0
Cd170 Cd 0.65394 0.15369 0.45837 0.0
O171 O 0.66441 0.12452 0.55664 0.0
Cd172 Cd 0.68173 0.11223 0.48365 0.0
C173 C 0.70803 0.1587 0.4696 0.0
O174 O 0.65115 0.11764 0.43271 0.0
O175 O 0.68084 0.11078 0.39816 0.0
O176 O 0.67694 0.07636 0.51325 0.0
C177 C 0.66101 0.11405 0.39472 0.0
O178 O 0.69059 0.16637 0.4542 0.0
C179 C 0.6954 0.06993 0.50192 0.0
O180 O 0.70889 0.13989 0.48627 0.0
O181 O 0.70785 0.08347 0.48337 0.0
C182 C 0.85184 0.66136 0.59487 0.0
O183 O 0.8385 0.65359 0.56608 0.0
Cd184 Cd 0.83668 0.66318 0.48483 0.0
O185 O 0.86502 0.67566 0.58217 0.0
Cd186 Cd 0.87418 0.69629 0.51129 0.0
C187 C 0.82441 0.71599 0.50064 0.0
O188 O 0.87265 0.66593 0.45928 0.0
O189 O 0.8756 0.69638 0.42539 0.0
O190 O 0.91003 0.695 0.54175 0.0
C191 C 0.87475 0.67631 0.42146 0.0
O192 O 0.81924 0.69783 0.4843 0.0
C193 C 0.91498 0.71386 0.52996 0.0
O194 O 0.843 0.71939 0.51686 0.0
O195 O 0.9005 0.7251 0.51108 0.0
C196 C 0.32679 0.84911 0.56706 0.0
O197 O 0.33761 0.83787 0.53872 0.0
Cd198 Cd 0.32735 0.8334 0.45825 0.0
O199 O 0.3111 0.86022 0.55278 0.0
Cd200 Cd 0.29324 0.87052 0.47899 0.0
C201 C 0.2742 0.82064 0.47494 0.0
O202 O 0.32404 0.86854 0.4278 0.0
O203 O 0.29356 0.86988 0.39333 0.0
O204 O 0.29525 0.90641 0.50859 0.0
C205 C 0.31366 0.86957 0.38971 0.0
O206 O 0.29273 0.81509 0.46133 0.0
C207 C 0.27659 0.91178 0.49624 0.0
O208 O 0.2702 0.83982 0.4864 0.0
O209 O 0.26515 0.89758 0.47691 0.0
C210 C 0.13308 0.32518 0.56778 0.0
O211 O 0.14502 0.33549 0.53987 0.0
Cd212 Cd 0.15024 0.32509 0.45985 0.0
O213 O 0.12169 0.30975 0.55324 0.0
Cd214 Cd 0.11224 0.29223 0.47823 0.0
C215 C 0.16141 0.2716 0.47647 0.0
O216 O 0.11534 0.32323 0.4276 0.0
O217 O 0.11426 0.29289 0.39253 0.0
O218 O 0.07564 0.29416 0.50394 0.0
C219 C 0.11456 0.31302 0.3893 0.0
O220 O 0.16768 0.28999 0.46336 0.0
C221 C 0.0707 0.27546 0.491 0.0
O222 O 0.14201 0.26823 0.48694 0.0
O223 O 0.08541 0.26411 0.47342 0.0
C224 C 0.22794 0.54109 0.9771 0.0
C225 C 0.21174 0.54842 0.0069 0.0
C226 C 0.23194 0.51919 0.97233 0.0
C227 C 0.21955 0.50449 -0.00169 0.0
C228 C 0.20456 0.51199 0.0316 0.0
C229 C 0.20075 0.53388 0.03526 0.0
C230 C 0.24814 0.51181 0.93674 0.0
C231 C 0.1913 0.49684 0.0607 0.0
C232 C 0.20112 0.45183 0.94992 0.0
C233 C 0.21257 0.43746 0.97781 0.0
C234 C 0.20458 0.47378 0.95353 0.0
C235 C 0.21969 0.48151 0.98627 0.0
C236 C 0.2325 0.46701 0.01177 0.0
C237 C 0.22884 0.44506 0.00707 0.0
C238 C 0.19085 0.48872 0.92496 0.0
C239 C 0.24884 0.47465 0.04676 0.0
H240 H 0.23651 0.55232 0.95518 0.0
H241 H 0.18842 0.53954 0.05882 0.0
H242 H 0.25754 0.49822 0.95055 0.0
H243 H 0.23978 0.50625 0.90467 0.0
H244 H 0.25921 0.52482 0.92657 0.0
H245 H 0.18231 0.5052 0.0888 0.0
H246 H 0.17973 0.48853 0.03765 0.0
H247 H 0.20153 0.48452 0.07719 0.0
H248 H 0.18872 0.44597 0.92679 0.0
H249 H 0.23778 0.43396 0.02862 0.0
H250 H 0.20076 0.5012 0.90808 0.0
H251 H 0.17934 0.49685 0.94847 0.0
H252 H 0.18178 0.48022 0.89721 0.0
H253 H 0.25792 0.48839 0.03262 0.0
H254 H 0.2602 0.46182 0.05653 0.0
H255 H 0.24063 0.48008 0.07913 0.0
C256 C 0.43919 0.22596 0.97632 0.0
C257 C 0.4317 0.20965 0.0057 0.0
C258 C 0.46108 0.23007 0.97235 0.0
C259 C 0.47562 0.21772 -0.00118 0.0
C260 C 0.46796 0.20243 0.03131 0.0
C261 C 0.44607 0.19848 0.0341 0.0
C262 C 0.46866 0.24649 0.93739 0.0
C263 C 0.48294 0.1892 0.06087 0.0
C264 C 0.52965 0.20163 0.95345 0.0
C265 C 0.54314 0.21373 0.98205 0.0
C266 C 0.50753 0.20399 0.95613 0.0
C267 C 0.49875 0.21859 -0.01131 0.0
C268 C 0.51233 0.23191 0.0153 0.0
C269 C 0.53446 0.2294 0.01145 0.0
C270 C 0.49357 0.18977 0.92643 0.0
C271 C 0.50354 0.24766 0.05033 0.0
H272 H 0.42809 0.23465 0.95431 0.0
H273 H 0.44028 0.18604 0.05728 0.0
H274 H 0.48156 0.25639 0.95258 0.0
H275 H 0.47529 0.2383 0.9061 0.0
H276 H 0.45555 0.2571 0.92563 0.0
H277 H 0.4744 0.17981 0.08808 0.0
H278 H 0.4918 0.17799 0.03793 0.0
H279 H 0.49482 0.19954 0.07851 0.0
H280 H 0.53634 0.18969 0.93026 0.0
H281 H 0.54487 0.2388 0.03361 0.0
H282 H 0.48096 0.19924 0.90889 0.0
H283 H 0.48559 0.17785 0.94924 0.0
H284 H 0.5028 0.18113 0.89912 0.0
H285 H 0.48995 0.2566 0.03517 0.0
H286 H 0.51583 0.25919 0.06216 0.0
H287 H 0.49754 0.23893 0.08157 0.0
C288 C 0.79882 0.45248 0.95201 0.0
C289 C 0.78598 0.4382 0.97693 0.0
C290 C 0.79609 0.47447 0.95674 0.0
C291 C 0.78059 0.48231 -0.0116 0.0
C292 C 0.76703 0.46794 0.01247 0.0
C293 C 0.76971 0.44593 0.00589 0.0
C294 C 0.81051 0.48927 0.92949 0.0
C295 C 0.75066 0.47573 0.04723 0.0
C296 C 0.79846 0.53487 0.03836 0.0
C297 C 0.78664 0.54933 0.01154 0.0
C298 C 0.79537 0.51293 0.03365 0.0
C299 C 0.7806 0.50531 0.00011 0.0
C300 C 0.76799 0.51988 0.9742 0.0
C301 C 0.77096 0.54186 0.98076 0.0
C302 C 0.80874 0.49793 0.06287 0.0
C303 C 0.75241 0.51233 0.93746 0.0
H304 H 0.81119 0.44643 0.92902 0.0
H305 H 0.7598 0.43478 0.02512 0.0
H306 H 0.80107 0.50203 0.91232 0.0
H307 H 0.82186 0.49705 0.9539 0.0
H308 H 0.81978 0.48074 0.90211 0.0
H309 H 0.73962 0.46285 0.05834 0.0
H310 H 0.75886 0.48198 0.07889 0.0
H311 H 0.74122 0.489 0.03211 0.0
H312 H 0.81037 0.54075 0.06271 0.0
H313 H 0.76185 0.55315 0.96007 0.0
H314 H 0.82067 0.48997 0.04011 0.0
H315 H 0.79865 0.48532 0.07869 0.0
H316 H 0.81734 0.50634 0.09149 0.0
H317 H 0.76133 0.50598 0.90685 0.0
H318 H 0.74186 0.52537 0.92504 0.0
H319 H 0.74242 0.49919 0.95134 0.0
C320 C 0.52901 0.77457 0.03477 0.0
C321 C 0.54317 0.76309 0.00646 0.0
C322 C 0.50704 0.77136 0.03136 0.0
C323 C 0.49905 0.75647 -0.00156 0.0
C324 C 0.51332 0.74359 0.97254 0.0
C325 C 0.53532 0.74701 0.977 0.0
C326 C 0.49235 0.78517 0.06032 0.0
C327 C 0.50541 0.72745 0.9374 0.0
C328 C 0.43944 0.74906 0.00828 0.0
C329 C 0.43227 0.76547 0.97878 0.0
C330 C 0.46127 0.7447 0.01267 0.0
C331 C 0.47606 0.75695 0.98663 0.0
C332 C 0.4687 0.77216 0.95364 0.0
C333 C 0.44688 0.77631 0.95031 0.0
C334 C 0.46851 0.72825 0.04789 0.0
C335 C 0.48394 0.7853 0.92452 0.0
H336 H 0.53507 0.7868 0.05808 0.0
H337 H 0.54624 0.73804 0.95513 0.0
H338 H 0.48428 0.79686 0.03708 0.0
H339 H 0.47982 0.77534 0.07721 0.0
H340 H 0.50102 0.79406 0.08809 0.0
H341 H 0.51807 0.71596 0.92737 0.0
H342 H 0.4916 0.7185 0.95153 0.0
H343 H 0.50003 0.73584 0.90517 0.0
H344 H 0.42816 0.7406 0.03026 0.0
H345 H 0.44134 0.7888 0.92697 0.0
H346 H 0.47426 0.73641 0.08005 0.0
H347 H 0.48193 0.7187 0.03378 0.0
H348 H 0.45539 0.71731 0.05802 0.0
H349 H 0.49249 0.79667 0.94764 0.0
H350 H 0.47564 0.79452 0.89668 0.0
H351 H 0.49605 0.77494 0.90772 0.0
C352 C 0.71744 0.03874 0.47777 0.0
C353 C 0.70121 0.04726 0.50591 0.0
C354 C 0.72056 0.01665 0.47503 0.0
C355 C 0.70732 0.00293 0.50155 0.0
C356 C 0.69203 0.01159 0.53272 0.0
C357 C 0.68905 0.03367 0.53423 0.0
C358 C 0.73696 0.00798 0.44131 0.0
C359 C 0.67788 -0.00251 0.56232 0.0
C360 C 0.69007 0.9489 0.45801 0.0
C361 C 0.70163 0.93531 0.48752 0.0
C362 C 0.69292 0.97099 0.46 0.0
C363 C 0.70744 0.97965 0.49288 0.0
C364 C 0.72012 0.96595 0.52074 0.0
C365 C 0.71716 0.94384 0.51747 0.0
C366 C 0.67941 0.98508 0.42897 0.0
C367 C 0.73569 0.97462 0.55627 0.0
H368 H 0.72688 0.04923 0.45579 0.0
H369 H 0.67666 0.04026 0.55643 0.0
H370 H 0.74631 -0.00499 0.45791 0.0
H371 H 0.72878 0.00112 0.41025 0.0
H372 H 0.74809 0.02055 0.42894 0.0
H373 H 0.66858 0.00672 0.58852 0.0
H374 H 0.66656 0.98885 0.53925 0.0
H375 H 0.68752 0.98538 0.58116 0.0
H376 H 0.67822 0.94231 0.43444 0.0
H377 H 0.72612 0.93334 0.54039 0.0
H378 H 0.68942 -0.00279 0.41119 0.0
H379 H 0.66758 -0.00631 0.45081 0.0
H380 H 0.67071 0.97585 0.40178 0.0
H381 H 0.74536 0.98763 0.5408 0.0
H382 H 0.74656 0.96207 0.56979 0.0
H383 H 0.72679 0.98142 0.58641 0.0
C384 C 0.94464 0.73718 0.50233 0.0
C385 C 0.93728 0.72108 0.53242 0.0
C386 C 0.96655 0.74058 0.49609 0.0
C387 C 0.98122 0.72766 0.52082 0.0
C388 C 0.97377 0.71291 0.55474 0.0
C389 C 0.95186 0.70973 0.55994 0.0
C390 C 0.97389 0.75661 0.46002 0.0
C391 C 0.98891 0.6991 0.58258 0.0
C392 C 0.03181 0.70694 0.46654 0.0
C393 C 0.04729 0.71766 0.49281 0.0
C394 C 0.01017 0.71137 0.47269 0.0
C395 C 0.00389 0.72676 0.50631 0.0
C396 C 0.0195 0.73886 0.53016 0.0
C397 C 0.04112 0.73421 0.52298 0.0
C398 C -0.00599 0.69837 0.44583 0.0
C399 C 0.01343 0.75551 0.56595 0.0
H400 H 0.93339 0.74607 0.4811 0.0
H401 H 0.94618 0.69748 0.58376 0.0
H402 H 0.98814 0.76536 0.47251 0.0
H403 H 0.97837 0.74816 0.42726 0.0
H404 H 0.96118 0.76828 0.45141 0.0
H405 H 0.98074 0.69052 0.6116 0.0
H406 H -0.00373 0.68714 0.55892 0.0
H407 H 0.00194 0.70885 0.59769 0.0
H408 H 0.03656 0.69434 0.4427 0.0
H409 H 0.05308 0.74259 0.54329 0.0
H410 H 0.98172 0.70888 0.43014 0.0
H411 H 0.98582 0.68728 0.47027 0.0
H412 H 0.00146 0.68886 0.41732 0.0
H413 H -0.00029 0.76512 0.55357 0.0
H414 H 0.02691 0.76636 0.57392 0.0
H415 H 0.00857 0.74752 0.59906 0.0
C416 C 0.28288 0.03144 0.4503 0.0
C417 C 0.27119 0.04552 0.47833 0.0
C418 C 0.27907 0.00949 0.45204 0.0
C419 C 0.26334 0.00148 0.48303 0.0
C420 C 0.25035 0.01575 0.50864 0.0
C421 C 0.25437 0.03771 0.50582 0.0
C422 C 0.29301 -0.00519 0.42341 0.0
C423 C 0.23337 0.00781 0.54184 0.0
C424 C 0.25411 0.94222 0.4692 0.0
C425 C 0.26966 0.93414 0.49975 0.0
C426 C 0.25067 0.96426 0.46549 0.0
C427 C 0.26294 0.97832 0.49334 0.0
C428 C 0.27725 0.97005 0.52717 0.0
C429 C 0.28054 0.94804 0.52973 0.0
C430 C 0.23519 0.97249 0.42922 0.0
C431 C 0.29035 0.98449 0.55823 0.0
H432 H 0.2957 0.03747 0.42851 0.0
H433 H 0.24525 0.04859 0.52746 0.0
H434 H 0.30405 0.98615 0.44713 0.0
H435 H 0.2832 0.98276 0.40493 0.0
H436 H 0.30262 0.00361 0.39697 0.0
H437 H 0.22212 0.02067 0.55193 0.0
H438 H 0.22425 -0.00548 0.52593 0.0
H439 H 0.24102 0.00163 0.57426 0.0
H440 H 0.24564 0.93148 0.446 0.0
H441 H 0.29236 0.94178 0.55383 0.0
H442 H 0.24417 0.97844 0.39829 0.0
H443 H 0.22578 0.986 0.4433 0.0
H444 H 0.2241 0.95985 0.41716 0.0
H445 H 0.30239 -0.00706 0.53658 0.0
H446 H 0.29878 0.97555 0.58632 0.0
H447 H 0.28011 -0.00326 0.57487 0.0
C448 C 0.03347 0.27938 0.51907 0.0
C449 C 0.04836 0.26831 0.49184 0.0
C450 C 0.01165 0.2756 0.51396 0.0
C451 C 0.00459 0.26056 0.48033 0.0
C452 C 0.01959 0.24821 0.45521 0.0
C453 C 0.0414 0.25217 0.46145 0.0
C454 C -0.00386 0.28882 0.54215 0.0
C455 C 0.01266 0.232 0.41921 0.0
C456 C 0.94532 0.25036 0.48717 0.0
C457 C 0.93766 0.26654 0.45766 0.0
C458 C 0.96728 0.24705 0.49258 0.0
C459 C 0.98171 0.2601 0.46751 0.0
C460 C 0.97396 0.2751 0.43448 0.0
C461 C 0.95199 0.27823 0.43019 0.0
C462 C 0.97496 0.23084 0.52793 0.0
C463 C 0.98885 0.28905 0.40634 0.0
H464 H 0.03884 0.29168 0.54303 0.0
H465 H 0.0529 0.24355 0.44036 0.0
H466 H 0.98792 0.30024 0.51854 0.0
H467 H 0.9838 0.27851 0.55829 0.0
H468 H 0.00417 0.29798 0.57045 0.0
H469 H 0.02586 0.22112 0.4093 0.0
H470 H -0.00087 0.22238 0.43249 0.0
H471 H 0.00717 0.24038 0.38707 0.0
H472 H 0.93426 0.24125 0.50842 0.0
H473 H 0.94609 0.29055 0.40687 0.0
H474 H 0.98019 0.23917 0.56029 0.0
H475 H 0.98882 0.22186 0.51414 0.0
H476 H 0.96222 0.21937 0.53761 0.0
H477 H -0.00342 0.30076 0.43004 0.0
H478 H 0.9804 0.29793 0.37817 0.0
H479 H 0.00163 0.27934 0.39007 0.0
C480 C 0.2248 0.28947 0.02796 0.0
C481 C 0.22612 0.30836 0.00186 0.0
C482 C 0.24075 0.27392 0.02484 0.0
C483 C 0.25819 0.2772 -0.00583 0.0
C484 C 0.25968 0.2963 0.96793 0.0
C485 C 0.24371 0.31176 0.97243 0.0
C486 C 0.23884 0.25389 0.054 0.0
C487 C 0.27787 0.30017 0.93427 0.0
C488 C 0.30775 0.24366 0.01245 0.0
C489 C 0.3043 0.22697 0.98065 0.0
C490 C 0.29293 0.26024 0.01705 0.0
C491 C 0.27449 0.2603 -0.01151 0.0
C492 C 0.27126 0.24383 0.95532 0.0
C493 C 0.28611 0.22724 0.95213 0.0
C494 C 0.29671 0.27738 0.0533 0.0
C495 C 0.25198 0.24358 0.92363 0.0
H496 H 0.21132 0.28685 0.05105 0.0
H497 H 0.24473 0.3263 0.95196 0.0
H498 H 0.23729 0.23985 0.03062 0.0
H499 H 0.25344 0.25158 0.07535 0.0
H500 H 0.22488 0.25431 0.07795 0.0
H501 H 0.27689 0.31604 0.91713 0.0
H502 H 0.29329 0.29898 0.95306 0.0
H503 H 0.27787 0.28774 0.90657 0.0
H504 H 0.32173 0.24343 0.03477 0.0
H505 H 0.28347 0.21446 0.92722 0.0
H506 H 0.28366 0.27719 0.07957 0.0
H507 H 0.2966 0.2933 0.03639 0.0
H508 H 0.31209 0.27528 0.072 0.0
H509 H 0.23731 0.24204 0.94508 0.0
H510 H 0.25244 0.23027 0.89797 0.0
H511 H 0.25082 0.25882 0.904 0.0
C512 C 0.73562 0.31989 -0.00704 0.0
C513 C 0.75156 0.31363 0.96133 0.0
C514 C 0.71803 0.30669 0.00188 0.0
C515 C 0.71629 0.28698 0.9781 0.0
C516 C 0.73179 0.28112 0.94441 0.0
C517 C 0.74931 0.29445 0.93667 0.0
C518 C 0.70188 0.31336 0.0383 0.0
C519 C 0.73031 0.26037 0.91779 0.0
C520 C 0.68855 0.23943 0.03207 0.0
C521 C 0.66956 0.23875 0.00628 0.0
C522 C 0.7034 0.25576 0.02495 0.0
C523 C 0.69927 0.27161 -0.00925 0.0
C524 C 0.67973 0.27155 0.96602 0.0
C525 C 0.66501 0.25516 0.97433 0.0
C526 C 0.72393 0.25548 0.05257 0.0
C527 C 0.67487 0.28812 0.92906 0.0
H528 H 0.7373 0.33468 0.01221 0.0
H529 H 0.76147 0.28965 0.9118 0.0
H530 H 0.68551 0.31193 0.02408 0.0
H531 H 0.70297 0.30261 0.06919 0.0
H532 H 0.70441 0.32999 0.05038 0.0
H533 H 0.74269 0.25902 0.89007 0.0
H534 H 0.7322 0.24682 0.94253 0.0
H535 H 0.71443 0.25879 0.90114 0.0
H536 H 0.69204 0.22692 0.05721 0.0
H537 H 0.65036 0.25471 0.95424 0.0
H538 H 0.7269 0.2713 0.06859 0.0
H539 H 0.73743 0.25203 0.02862 0.0
H540 H 0.7238 0.24328 0.08089 0.0
H541 H 0.67781 0.30436 0.94294 0.0
H542 H 0.65815 0.28716 0.91654 0.0
H543 H 0.68562 0.28583 0.89852 0.0
C544 C 0.74093 0.67011 -0.00927 0.0
C545 C 0.75645 0.67529 0.02422 0.0
C546 C 0.72358 0.68369 0.98247 0.0
C547 C 0.72156 0.70264 0.00902 0.0
C548 C 0.73676 0.70752 0.0441 0.0
C549 C 0.75413 0.69388 0.05096 0.0
C550 C 0.70784 0.67815 0.94431 0.0
C551 C 0.73491 0.72738 0.07375 0.0
C552 C 0.6917 0.75049 0.96162 0.0
C553 C 0.67233 0.74902 0.98585 0.0
C554 C 0.70756 0.735 0.96749 0.0
C555 C 0.70409 0.71789 -0.00098 0.0
C556 C 0.68441 0.71609 0.02289 0.0
C557 C 0.66867 0.7316 0.01567 0.0
C558 C 0.72822 0.73723 0.94077 0.0
C559 C 0.68029 0.69825 0.05734 0.0
H560 H 0.74274 0.65581 0.96978 0.0
H561 H 0.766 0.69785 0.07718 0.0
H562 H 0.69142 0.67804 0.95862 0.0
H563 H 0.70838 0.69047 0.91632 0.0
H564 H 0.71116 0.66239 0.92822 0.0
H565 H 0.7473 0.72813 0.10156 0.0
H566 H 0.73645 0.7417 0.05113 0.0
H567 H 0.71901 0.72808 0.09067 0.0
H568 H 0.69453 0.76382 0.93821 0.0
H569 H 0.65376 0.73044 0.03467 0.0
H570 H 0.73188 0.72224 0.92178 0.0
H571 H 0.74146 0.74016 0.96573 0.0
H572 H 0.72776 0.75052 0.91498 0.0
H573 H 0.68318 0.6826 0.04044 0.0
H574 H 0.66376 0.69851 0.0712 0.0
H575 H 0.69149 0.69956 0.08735 0.0
C576 C 0.22086 0.69651 0.95752 0.0
C577 C 0.22199 0.678 0.98496 0.0
C578 C 0.23676 0.71214 0.96024 0.0
C579 C 0.2539 0.70935 -0.00808 0.0
C580 C 0.25501 0.69079 0.02007 0.0
C581 C 0.23915 0.67521 0.01586 0.0
C582 C 0.2353 0.73154 0.92899 0.0
C583 C 0.27285 0.68748 0.0549 0.0
C584 C 0.30519 0.73985 0.9717 0.0
C585 C 0.30264 0.75724 0.00206 0.0
C586 C 0.28934 0.72424 0.96771 0.0
C587 C 0.27074 0.72585 -0.00446 0.0
C588 C 0.26821 0.7432 0.02676 0.0
C589 C 0.2841 0.75884 0.02925 0.0
C590 C 0.29239 0.70617 0.93337 0.0
C591 C 0.24877 0.74519 0.05767 0.0
H592 H 0.20768 0.69865 0.93337 0.0
H593 H 0.23998 0.66099 0.03744 0.0
H594 H 0.2344 0.74616 0.95075 0.0
H595 H 0.24984 0.73284 0.90701 0.0
H596 H 0.22119 0.73106 0.90549 0.0
H597 H 0.27111 0.67237 0.07491 0.0
H598 H 0.28837 0.68724 0.03634 0.0
H599 H 0.2733 0.70092 0.08017 0.0
H600 H 0.31942 0.73866 0.95032 0.0
H601 H 0.28215 0.7722 0.05299 0.0
H602 H 0.27907 0.70592 0.90779 0.0
H603 H 0.29219 0.69072 0.95228 0.0
H604 H 0.30761 0.70748 0.91368 0.0
H605 H 0.23425 0.74636 0.03564 0.0
H606 H 0.2495 0.75936 0.08095 0.0
H607 H 0.24708 0.73074 0.07985 0.0
C608 C 0.80991 0.74985 0.53401 0.0
C609 C 0.80826 0.73307 0.50177 0.0
C610 C 0.79388 0.76534 0.53731 0.0
C611 C 0.77604 0.76418 0.50702 0.0
C612 C 0.77465 0.74764 0.47342 0.0
C613 C 0.79068 0.73217 0.4715 0.0
C614 C 0.79571 0.7826 0.57402 0.0
C615 C 0.75606 0.74611 0.43992 0.0
C616 C 0.72342 0.78923 0.54129 0.0
C617 C 0.72372 0.80816 0.51512 0.0
C618 C 0.74066 0.77508 0.54006 0.0
C619 C 0.75843 0.7798 0.51129 0.0
C620 C 0.75892 0.79897 0.48511 0.0
C621 C 0.74162 0.81303 0.48766 0.0
C622 C 0.73974 0.75493 0.56906 0.0
C623 C 0.77746 0.80434 0.45344 0.0
H624 H 0.82343 0.75053 0.55764 0.0
H625 H 0.78944 0.71933 0.44621 0.0
H626 H 0.79468 0.79852 0.55727 0.0
H627 H 0.78226 0.78134 0.59915 0.0
H628 H 0.81087 0.7816 0.594 0.0
H629 H 0.75798 0.73295 0.41418 0.0
H630 H 0.74114 0.74343 0.45993 0.0
H631 H 0.75418 0.76129 0.42035 0.0
H632 H 0.7097 0.78549 0.5629 0.0
H633 H 0.74189 0.82759 0.46719 0.0
H634 H 0.75408 0.7537 0.59168 0.0
H635 H 0.73968 0.74085 0.54556 0.0
H636 H 0.72536 0.75426 0.59175 0.0
H637 H 0.79252 0.80417 0.47373 0.0
H638 H 0.77567 0.82019 0.43652 0.0
H639 H 0.77893 0.7921 0.42551 0.0
C640 C 0.24028 0.80742 0.51002 0.0
C641 C 0.25727 0.80443 0.47875 0.0
C642 C 0.22446 0.79185 0.51527 0.0
C643 C 0.22542 0.77311 0.48778 0.0
C644 C 0.24234 0.77016 0.45556 0.0
C645 C 0.25822 0.78577 0.45183 0.0
C646 C 0.20689 0.79533 0.55066 0.0
C647 C 0.24362 0.75057 0.42494 0.0
C648 C 0.19588 0.72376 0.52868 0.0
C649 C 0.17705 0.72508 0.50244 0.0
C650 C 0.21167 0.73944 0.52467 0.0
C651 C 0.20874 0.75653 0.49284 0.0
C652 C 0.18985 0.75783 0.4659 0.0
C653 C 0.17411 0.7422 0.47143 0.0
C654 C 0.23143 0.7378 0.5547 0.0
C655 C 0.18637 0.7756 0.43091 0.0
H656 H 0.2396 0.82175 0.53119 0.0
H657 H 0.27126 0.78349 0.4274 0.0
H658 H 0.19121 0.79526 0.53276 0.0
H659 H 0.20677 0.78213 0.57661 0.0
H660 H 0.20865 0.81063 0.56985 0.0
H661 H 0.25746 0.75103 0.40065 0.0
H662 H 0.2449 0.73611 0.44719 0.0
H663 H 0.22885 0.749 0.40384 0.0
H664 H 0.19813 0.71061 0.55291 0.0
H665 H 0.15965 0.74317 0.45077 0.0
H666 H 0.23323 0.75242 0.57622 0.0
H667 H 0.24573 0.73656 0.53202 0.0
H668 H 0.23101 0.72379 0.57856 0.0
H669 H 0.18661 0.7912 0.44913 0.0
H670 H 0.171 0.77402 0.41193 0.0
H671 H 0.19948 0.77575 0.40476 0.0
C672 C 0.23943 0.17064 0.47577 0.0
C673 C 0.25547 0.17339 0.50948 0.0
C674 C 0.22348 0.18603 0.46967 0.0
C675 C 0.22337 0.20434 0.49863 0.0
C676 C 0.23914 0.20687 0.53369 0.0
C677 C 0.25513 0.19145 0.53839 0.0
C678 C 0.20709 0.18298 0.43145 0.0
C679 C 0.23928 0.226 0.56584 0.0
C680 C 0.19647 0.25502 0.45701 0.0
C681 C 0.17696 0.25406 0.48083 0.0
C682 C 0.21153 0.23867 0.46165 0.0
C683 C 0.20711 0.22118 0.49155 0.0
C684 C 0.18743 0.22008 0.51558 0.0
C685 C 0.17249 0.23646 0.50958 0.0
C686 C 0.23222 0.24018 0.43484 0.0
C687 C 0.18233 0.20185 0.54838 0.0
H688 H 0.23972 0.15676 0.45313 0.0
H689 H 0.26741 0.19356 0.56474 0.0
H690 H 0.19083 0.18348 0.44659 0.0
H691 H 0.20824 0.19618 0.40562 0.0
H692 H 0.20914 0.16764 0.41256 0.0
H693 H 0.25199 0.225 0.59289 0.0
H694 H 0.24174 0.24072 0.54495 0.0
H695 H 0.22369 0.22753 0.58382 0.0
H696 H 0.19993 0.26852 0.43447 0.0
H697 H 0.15748 0.2357 0.52831 0.0
H698 H 0.23458 0.22565 0.41329 0.0
H699 H 0.24575 0.24115 0.4598 0.0
H700 H 0.23276 0.25432 0.41134 0.0
H701 H 0.18341 0.18649 0.52934 0.0
H702 H 0.16618 0.20325 0.56396 0.0
H703 H 0.19417 0.20133 0.57729 0.0
C704 C 0.81339 0.23137 0.45741 0.0
C705 C 0.81017 0.24863 0.48784 0.0
C706 C 0.79818 0.21508 0.45366 0.0
C707 C 0.77954 0.21599 0.48151 0.0
C708 C 0.77665 0.23292 0.51367 0.0
C709 C 0.79192 0.24911 0.51619 0.0
C710 C 0.80167 0.19736 0.41865 0.0
C711 C 0.75711 0.23427 0.54449 0.0
C712 C 0.72806 0.19056 0.44154 0.0
C713 C 0.72725 0.17226 0.46975 0.0
C714 C 0.74548 0.20445 0.44361 0.0
C715 C 0.76234 0.20008 0.47516 0.0
C716 C 0.76193 0.18132 0.50276 0.0
C717 C 0.74442 0.16752 0.49948 0.0
C718 C 0.74551 0.22416 0.4131 0.0
C719 C 0.77953 0.17628 0.53713 0.0
H720 H 0.82745 0.23094 0.43534 0.0
H721 H 0.78946 0.2623 0.54017 0.0
H722 H 0.7999 0.18164 0.436 0.0
H723 H 0.78941 0.1983 0.39065 0.0
H724 H 0.81764 0.19818 0.40198 0.0
H725 H 0.75803 0.24761 0.57003 0.0
H726 H 0.74277 0.23657 0.52231 0.0
H727 H 0.75493 0.21917 0.56422 0.0
H728 H 0.71495 0.19418 0.41811 0.0
H729 H 0.74385 0.15341 0.52144 0.0
H730 H 0.76064 0.22527 0.39315 0.0
H731 H 0.74437 0.23855 0.43554 0.0
H732 H 0.73205 0.22433 0.38779 0.0
H733 H 0.79523 0.17697 0.51938 0.0
H734 H 0.77761 0.1603 0.5534 0.0
H735 H 0.77969 0.18841 0.56548 0.0
C736 C 0.12298 0.31169 0.30379 0.0
C737 C 0.11834 0.32374 0.34392 0.0
C738 C 0.12924 0.3216 0.2619 0.0
C739 C 0.13062 0.34409 0.26005 0.0
C740 C 0.12476 0.35639 0.29959 0.0
C741 C 0.1188 0.34604 0.34126 0.0
C742 C 0.13545 0.30793 0.22042 0.0
C743 C 0.12569 0.38042 0.29855 0.0
C744 C 0.17142 0.36441 0.17338 0.0
C745 C 0.15879 0.36841 0.13376 0.0
C746 C 0.16228 0.35733 0.21546 0.0
C747 C 0.13997 0.35444 0.21803 0.0
C748 C 0.127 0.35973 0.1791 0.0
C749 C 0.1366 0.36656 0.13722 0.0
C750 C 0.17665 0.3518 0.25627 0.0
C751 C 0.10312 0.3572 0.18094 0.0
H752 H 0.12257 0.29445 0.30559 0.0
H753 H 0.11502 0.35543 0.37212 0.0
H754 H 0.12666 0.31302 0.18853 0.0
H755 H 0.15268 0.30994 0.21304 0.0
H756 H 0.13224 0.29076 0.22668 0.0
H757 H 0.11816 0.38764 0.33006 0.0
H758 H 0.14253 0.38567 0.297 0.0
H759 H 0.11764 0.38664 0.26666 0.0
H760 H 0.18857 0.36593 0.17099 0.0
H761 H 0.12676 0.36982 0.10676 0.0
H762 H 0.17594 0.3344 0.26304 0.0
H763 H 0.17119 0.35995 0.28865 0.0
H764 H 0.19349 0.35628 0.2496 0.0
H765 H 0.09902 0.34001 0.18181 0.0
H766 H 0.09517 0.36454 0.15005 0.0
H767 H 0.09664 0.36449 0.21342 0.0
C768 C 0.629 0.12116 0.34518 0.0
C769 C 0.65109 0.1185 0.34881 0.0
C770 C 0.61971 0.12799 0.30296 0.0
C771 C 0.63292 0.13261 0.264 0.0
C772 C 0.65512 0.12903 0.2669 0.0
C773 C 0.66392 0.1218 0.30919 0.0
C774 C 0.59591 0.13115 0.30068 0.0
C775 C 0.66977 0.13397 0.22618 0.0
C776 C 0.61302 0.14092 0.13982 0.0
C777 C 0.61307 0.16321 0.13672 0.0
C778 C 0.61823 0.13063 0.18203 0.0
C779 C 0.62402 0.14298 0.22156 0.0
C780 C 0.6232 0.16549 0.21916 0.0
C781 C 0.61752 0.17534 0.17681 0.0
C782 C 0.61844 0.1066 0.18373 0.0
C783 C 0.62949 0.1792 0.26049 0.0
H784 H 0.61901 0.11842 0.37567 0.0
H785 H 0.68101 0.11973 0.31179 0.0
H786 H 0.59225 0.14843 0.29936 0.0
H787 H 0.58935 0.12387 0.26825 0.0
H788 H 0.58767 0.12416 0.3316 0.0
H789 H 0.68649 0.12922 0.23336 0.0
H790 H 0.6643 0.12566 0.194 0.0
H791 H 0.66942 0.15132 0.21873 0.0
H792 H 0.60935 0.1315 0.10895 0.0
H793 H 0.61755 0.19258 0.17457 0.0
H794 H 0.61011 0.10079 0.21565 0.0
H795 H 0.63511 0.10085 0.18564 0.0
H796 H 0.6108 0.09944 0.15228 0.0
H797 H 0.62035 0.17454 0.29222 0.0
H798 H 0.62679 0.19642 0.2537 0.0
H799 H 0.6466 0.17677 0.26849 0.0
C800 C 0.86733 0.67871 0.33573 0.0
C801 C 0.87099 0.66613 0.37562 0.0
C802 C 0.86071 0.66946 0.29347 0.0
C803 C 0.85798 0.64712 0.29105 0.0
C804 C 0.86287 0.63422 0.33035 0.0
C805 C 0.86923 0.64392 0.37239 0.0
C806 C 0.85559 0.68372 0.25218 0.0
C807 C 0.8605 0.6103 0.32862 0.0
C808 C 0.81729 0.62929 0.20164 0.0
C809 C 0.83026 0.62474 0.16292 0.0
C810 C 0.82621 0.63584 0.24433 0.0
C811 C 0.8486 0.63757 0.24832 0.0
C812 C 0.86182 0.63182 0.21019 0.0
C813 C 0.85246 0.62559 0.16773 0.0
C814 C 0.81163 0.64197 0.28433 0.0
C815 C 0.88577 0.63313 0.21356 0.0
H816 H 0.86875 0.69588 0.33802 0.0
H817 H 0.87223 0.63414 0.4031 0.0
H818 H 0.86439 0.6784 0.2205 0.0
H819 H 0.83835 0.68268 0.244 0.0
H820 H 0.85964 0.70066 0.25908 0.0
H821 H 0.8672 0.60244 0.36034 0.0
H822 H 0.8434 0.60609 0.32596 0.0
H823 H 0.86854 0.60378 0.29703 0.0
H824 H 0.80012 0.62859 0.19804 0.0
H825 H 0.86254 0.62184 0.13793 0.0
H826 H 0.81321 0.65926 0.29154 0.0
H827 H 0.81621 0.63337 0.31685 0.0
H828 H 0.79467 0.63846 0.2765 0.0
H829 H 0.89071 0.65006 0.21571 0.0
H830 H 0.89376 0.62577 0.18276 0.0
H831 H 0.89146 0.62511 0.24598 0.0
C832 C 0.31177 0.8616 0.30409 0.0
C833 C 0.32411 0.86572 0.34407 0.0
C834 C 0.32128 0.85494 0.26211 0.0
C835 C 0.34367 0.85262 0.26001 0.0
C836 C 0.35632 0.85806 0.2993 0.0
C837 C 0.34635 0.86445 0.34108 0.0
C838 C 0.30725 0.84923 0.22088 0.0
C839 C 0.38026 0.85614 0.29797 0.0
C840 C 0.36161 0.8104 0.17427 0.0
C841 C 0.36595 0.8226 0.13416 0.0
C842 C 0.35524 0.82011 0.21624 0.0
C843 C 0.35344 0.84256 0.21817 0.0
C844 C 0.35912 0.85505 0.17872 0.0
C845 C 0.36521 0.84489 0.13696 0.0
C846 C 0.34927 0.80624 0.25762 0.0
C847 C 0.35776 0.87905 0.17986 0.0
H848 H 0.29457 0.86268 0.30612 0.0
H849 H 0.35597 0.86783 0.37181 0.0
H850 H 0.31268 0.85762 0.18873 0.0
H851 H 0.30839 0.83188 0.21392 0.0
H852 H 0.29028 0.8533 0.22719 0.0
H853 H 0.38788 0.86368 0.329 0.0
H854 H 0.3848 0.83906 0.29728 0.0
H855 H 0.38671 0.8636 0.2656 0.0
H856 H 0.36228 0.79317 0.17237 0.0
H857 H 0.36876 0.8544 0.10612 0.0
H858 H 0.33196 0.80779 0.26471 0.0
H859 H 0.35781 0.81152 0.28966 0.0
H860 H 0.35294 0.78917 0.25142 0.0
H861 H 0.34081 0.88398 0.18065 0.0
H862 H 0.36544 0.88647 0.14871 0.0
H863 H 0.36539 0.88536 0.21213 0.0
C864 C 0.12008 0.67182 0.68057 0.0
C865 C 0.11545 0.6597 0.64054 0.0
C866 C 0.12644 0.66199 0.72245 0.0
C867 C 0.12798 0.63951 0.72438 0.0
C868 C 0.12213 0.62713 0.68496 0.0
C869 C 0.11602 0.6374 0.64331 0.0
C870 C 0.1326 0.67574 0.76384 0.0
C871 C 0.12326 0.60311 0.68609 0.0
C872 C 0.16912 0.61993 0.811 0.0
C873 C 0.15658 0.61596 0.85078 0.0
C874 C 0.15984 0.62669 0.76882 0.0
C875 C 0.13749 0.62929 0.76635 0.0
C876 C 0.12463 0.62398 0.80544 0.0
C877 C 0.13436 0.61745 0.84739 0.0
C878 C 0.17409 0.63223 0.72781 0.0
C879 C 0.10072 0.62623 0.80373 0.0
H880 H 0.11955 0.68905 0.6787 0.0
H881 H 0.11227 0.62795 0.61254 0.0
H882 H 0.1239 0.6706 0.79582 0.0
H883 H 0.14985 0.67389 0.77108 0.0
H884 H 0.12923 0.69288 0.75756 0.0
H885 H 0.11568 0.5958 0.65476 0.0
H886 H 0.14016 0.59801 0.68732 0.0
H887 H 0.1154 0.59684 0.71816 0.0
H888 H 0.18629 0.61867 0.81334 0.0
H889 H 0.12459 0.61419 0.87798 0.0
H890 H 0.17328 0.64961 0.72093 0.0
H891 H 0.16861 0.624 0.69554 0.0
H892 H 0.19096 0.62784 0.73433 0.0
H893 H 0.09642 0.64336 0.8029 0.0
H894 H 0.09289 0.61879 0.83468 0.0
H895 H 0.09428 0.61886 0.77129 0.0
C896 C 0.31124 0.11571 0.67979 0.0
C897 C 0.32412 0.11187 0.64052 0.0
C898 C 0.32017 0.12213 0.72253 0.0
C899 C 0.34252 0.12438 0.72615 0.0
C900 C 0.3557 0.11907 0.68761 0.0
C901 C 0.34631 0.11302 0.64499 0.0
C902 C 0.30558 0.12779 0.76285 0.0
C903 C 0.37963 0.12083 0.69062 0.0
C904 C 0.35968 0.16661 0.81258 0.0
C905 C 0.36342 0.15444 0.85303 0.0
C906 C 0.35367 0.15688 0.7704 0.0
C907 C 0.35172 0.13443 0.76857 0.0
C908 C 0.35678 0.12197 0.80846 0.0
C909 C 0.36241 0.13216 0.85047 0.0
C910 C 0.34827 0.17072 0.72859 0.0
C911 C 0.35532 0.09797 0.80736 0.0
H912 H 0.29407 0.11475 0.67655 0.0
H913 H 0.35633 0.10981 0.61478 0.0
H914 H 0.31056 0.11937 0.79531 0.0
H915 H 0.30662 0.14514 0.76995 0.0
H916 H 0.2887 0.12372 0.7554 0.0
H917 H 0.38764 0.11319 0.66019 0.0
H918 H 0.38427 0.13788 0.69146 0.0
H919 H 0.38556 0.11339 0.72348 0.0
H920 H 0.36051 0.18383 0.81436 0.0
H921 H 0.36552 0.12269 0.88161 0.0
H922 H 0.33109 0.16909 0.72018 0.0
H923 H 0.35734 0.16549 0.69723 0.0
H924 H 0.35175 0.18781 0.73505 0.0
H925 H 0.33837 0.0931 0.8054 0.0
H926 H 0.36251 0.09056 0.83908 0.0
H927 H 0.3634 0.09159 0.77569 0.0
C928 C 0.81493 0.35736 0.78607 0.0
C929 C 0.82789 0.36184 0.82484 0.0
C930 C 0.82386 0.35062 0.7435 0.0
C931 C 0.84625 0.3487 0.73964 0.0
C932 C 0.85945 0.35438 0.77785 0.0
C933 C 0.85008 0.36074 0.82022 0.0
C934 C 0.80929 0.34455 0.70347 0.0
C935 C 0.8834 0.35288 0.77462 0.0
C936 C 0.86509 0.3074 0.65258 0.0
C937 C 0.86894 0.31992 0.61269 0.0
C938 C 0.8583 0.3167 0.69467 0.0
C939 C 0.85563 0.33906 0.69697 0.0
C940 C 0.86065 0.3519 0.65765 0.0
C941 C 0.86714 0.34214 0.61575 0.0
C942 C 0.85299 0.3025 0.73595 0.0
C943 C 0.85838 0.37583 0.65927 0.0
H944 H 0.79777 0.35822 0.78955 0.0
H945 H 0.86014 0.36444 0.85008 0.0
H946 H 0.81395 0.3531 0.67093 0.0
H947 H 0.81079 0.32724 0.69633 0.0
H948 H 0.79234 0.34815 0.71123 0.0
H949 H 0.89139 0.36017 0.80549 0.0
H950 H 0.88822 0.33591 0.77248 0.0
H951 H 0.88919 0.36087 0.74225 0.0
H952 H 0.8665 0.29022 0.65041 0.0
H953 H 0.87028 0.35188 0.58503 0.0
H954 H 0.83576 0.3037 0.74404 0.0
H955 H 0.8618 0.30774 0.76767 0.0
H956 H 0.8569 0.28552 0.72909 0.0
H957 H 0.84129 0.38012 0.662 0.0
H958 H 0.86508 0.38363 0.62748 0.0
H959 H 0.86647 0.38234 0.69079 0.0
C960 C 0.61082 0.83983 0.84851 0.0
C961 C 0.61115 0.81753 0.85154 0.0
C962 C 0.61639 0.85024 0.80664 0.0
C963 C 0.6227 0.83801 0.7673 0.0
C964 C 0.62208 0.81549 0.76952 0.0
C965 C 0.61615 0.80552 0.81157 0.0
C966 C 0.61647 0.87427 0.8052 0.0
C967 C 0.62882 0.80191 0.72832 0.0
C968 C 0.62847 0.86042 0.64428 0.0
C969 C 0.65059 0.86314 0.64138 0.0
C970 C 0.61892 0.85329 0.68601 0.0
C971 C 0.63188 0.84854 0.7253 0.0
C972 C 0.65408 0.85223 0.72321 0.0
C973 C 0.66315 0.85964 0.68133 0.0
C974 C 0.59514 0.84994 0.68735 0.0
C975 C 0.66845 0.84725 0.76437 0.0
H976 H 0.60674 0.84918 0.87923 0.0
H977 H 0.61635 0.78828 0.81367 0.0
H978 H 0.63312 0.88012 0.80399 0.0
H979 H 0.60837 0.88011 0.77301 0.0
H980 H 0.60853 0.88133 0.83641 0.0
H981 H 0.62612 0.78467 0.73477 0.0
H982 H 0.61999 0.80664 0.69623 0.0
H983 H 0.64601 0.80442 0.72117 0.0
H984 H 0.61867 0.86329 0.61357 0.0
H985 H 0.68025 0.86181 0.67937 0.0
H986 H 0.58826 0.85712 0.71957 0.0
H987 H 0.59162 0.83263 0.68844 0.0
H988 H 0.58708 0.85691 0.65617 0.0
H989 H 0.66264 0.85538 0.7965 0.0
H990 H 0.68518 0.85218 0.75793 0.0
H991 H 0.6682 0.82987 0.77148 0.0
C992 C 0.83174 0.6499 0.66563 0.0
C993 C 0.85124 0.65474 0.64439 0.0
C994 C 0.83052 0.64594 0.71399 0.0
C995 C 0.84938 0.64619 0.74122 0.0
C996 C 0.86928 0.64981 0.71937 0.0
C997 C 0.86994 0.65444 0.67119 0.0
C998 C 0.80894 0.64269 0.73628 0.0
C999 C 0.88977 0.64946 0.74709 0.0
C1000 C 0.84257 0.66176 0.86858 0.0
C1001 C 0.84065 0.64183 0.8903 0.0
C1002 C 0.84585 0.66337 0.82007 0.0
C1003 C 0.84793 0.64457 0.79304 0.0
C1004 C 0.84719 0.6244 0.81522 0.0
C1005 C 0.84316 0.62326 0.86364 0.0
C1006 C 0.84602 0.68517 0.79747 0.0
C1007 C 0.85007 0.60407 0.78765 0.0
H1008 H 0.81728 0.65026 0.64484 0.0
H1009 H 0.88505 0.65798 0.65451 0.0
H1010 H 0.80867 0.62764 0.75668 0.0
H1011 H 0.80565 0.65587 0.76124 0.0
H1012 H 0.79593 0.6422 0.70986 0.0
H1013 H 0.904 0.64979 0.72392 0.0
H1014 H 0.89041 0.66348 0.77072 0.0
H1015 H 0.89051 0.63501 0.76953 0.0
H1016 H 0.84044 0.67613 0.88916 0.0
H1017 H 0.84183 0.60784 0.88061 0.0
H1018 H 0.8326 0.68648 0.77226 0.0
H1019 H 0.86093 0.68753 0.77731 0.0
H1020 H 0.84457 0.69819 0.82368 0.0
H1021 H 0.83622 0.60163 0.76411 0.0
H1022 H 0.8516 0.58993 0.81091 0.0
H1023 H 0.86445 0.60515 0.7651 0.0
C1024 C 0.3148 0.8484 0.65008 0.0
C1025 C 0.33154 0.84826 0.61761 0.0
C1026 C 0.31873 0.84574 0.69816 0.0
C1027 C 0.33997 0.84366 0.7141 0.0
C1028 C 0.35701 0.84451 0.68159 0.0
C1029 C 0.35255 0.84639 0.63345 0.0
C1030 C 0.3001 0.84424 0.73159 0.0
C1031 C 0.37988 0.84309 0.69757 0.0
C1032 C 0.34706 0.85159 0.8452 0.0
C1033 C 0.34836 0.83048 0.86087 0.0
C1034 C 0.34538 0.85621 0.7971 0.0
C1035 C 0.34414 0.83926 0.76444 0.0
C1036 C 0.34561 0.81792 0.78021 0.0
C1037 C 0.3481 0.81381 0.82826 0.0
C1038 C 0.3446 0.87916 0.7813 0.0
C1039 C 0.34367 0.7994 0.74661 0.0
H1040 H 0.29853 0.84967 0.63765 0.0
H1041 H 0.36548 0.84647 0.6082 0.0
H1042 H 0.30014 0.82844 0.74916 0.0
H1043 H 0.30149 0.85648 0.75947 0.0
H1044 H 0.28458 0.84637 0.71348 0.0
H1045 H 0.39125 0.84622 0.66847 0.0
H1046 H 0.38289 0.85469 0.72622 0.0
H1047 H 0.38311 0.82698 0.7119 0.0
H1048 H 0.34746 0.86446 0.87056 0.0
H1049 H 0.34892 0.79747 0.84057 0.0
H1050 H 0.32863 0.88285 0.76684 0.0
H1051 H 0.35634 0.88193 0.75279 0.0
H1052 H 0.34795 0.89039 0.81053 0.0
H1053 H 0.32795 0.79993 0.72888 0.0
H1054 H 0.34532 0.78377 0.76461 0.0
H1055 H 0.35601 0.80051 0.71886 0.0
C1056 C 0.13324 0.31381 0.65131 0.0
C1057 C 0.13343 0.33029 0.61815 0.0
C1058 C 0.13574 0.31817 0.69927 0.0
C1059 C 0.13766 0.33957 0.71433 0.0
C1060 C 0.13675 0.35634 0.68108 0.0
C1061 C 0.13508 0.35146 0.63314 0.0
C1062 C 0.13732 0.29982 0.73349 0.0
C1063 C 0.13797 0.37937 0.69607 0.0
C1064 C 0.12974 0.34816 0.84508 0.0
C1065 C 0.15083 0.34993 0.86052 0.0
C1066 C 0.12512 0.34575 0.79714 0.0
C1067 C 0.14205 0.34423 0.76447 0.0
C1068 C 0.16337 0.34613 0.78003 0.0
C1069 C 0.16747 0.34936 0.82786 0.0
C1070 C 0.10218 0.34457 0.78153 0.0
C1071 C 0.18188 0.34391 0.74647 0.0
H1072 H 0.13214 0.29743 0.6395 0.0
H1073 H 0.13504 0.36418 0.60733 0.0
H1074 H 0.15314 0.30005 0.75086 0.0
H1075 H 0.12514 0.30144 0.76146 0.0
H1076 H 0.13518 0.28414 0.71609 0.0
H1077 H 0.13465 0.39047 0.66653 0.0
H1078 H 0.12643 0.38251 0.72476 0.0
H1079 H 0.15408 0.38289 0.70998 0.0
H1080 H 0.11689 0.34876 0.87049 0.0
H1081 H 0.18379 0.35054 0.84002 0.0
H1082 H 0.09866 0.32843 0.76781 0.0
H1083 H 0.09927 0.35603 0.75251 0.0
H1084 H 0.09094 0.34807 0.81066 0.0
H1085 H 0.18137 0.32803 0.72941 0.0
H1086 H 0.19749 0.34573 0.76435 0.0
H1087 H 0.18074 0.35603 0.71821 0.0
C1088 C 0.617 0.15649 0.83812 0.0
C1089 C 0.63545 0.15781 0.86562 0.0
C1090 C 0.61826 0.15194 0.78995 0.0
C1091 C 0.63848 0.14939 0.76876 0.0
C1092 C 0.65714 0.15049 0.79654 0.0
C1093 C 0.65536 0.15437 0.84485 0.0
C1094 C 0.59801 0.15023 0.76163 0.0
C1095 C 0.67901 0.14838 0.77496 0.0
C1096 C 0.64585 0.12403 0.649 0.0
C1097 C 0.6472 0.14203 0.62 0.0
C1098 C 0.64206 0.12612 0.69735 0.0
C1099 C 0.6403 0.14672 0.71714 0.0
C1100 C 0.64141 0.16493 0.68785 0.0
C1101 C 0.64453 0.16234 0.63945 0.0
C1102 C 0.64032 0.10635 0.72735 0.0
C1103 C 0.64014 0.18717 0.70786 0.0
H1104 H 0.60158 0.15897 0.85433 0.0
H1105 H 0.66965 0.15557 0.86606 0.0
H1106 H 0.59713 0.16354 0.73604 0.0
H1107 H 0.59794 0.13518 0.74119 0.0
H1108 H 0.58358 0.1507 0.78415 0.0
H1109 H 0.69189 0.14936 0.80161 0.0
H1110 H 0.68044 0.13297 0.75621 0.0
H1111 H 0.68147 0.16121 0.74865 0.0
H1112 H 0.64775 0.10831 0.63383 0.0
H1113 H 0.64575 0.17627 0.61707 0.0
H1114 H 0.62562 0.10695 0.74897 0.0
H1115 H 0.654 0.10551 0.75191 0.0
H1116 H 0.64008 0.09156 0.70594 0.0
H1117 H 0.62509 0.18925 0.72769 0.0
H1118 H 0.64099 0.19963 0.68016 0.0
H1119 H 0.65343 0.18972 0.73294 0.0
C1120 C 0.8288 0.33312 0.3222 0.0
C1121 C 0.8485 0.32849 0.34281 0.0
C1122 C 0.82722 0.33719 0.27394 0.0
C1123 C 0.84589 0.33726 0.24608 0.0
C1124 C 0.86597 0.3337 0.26721 0.0
C1125 C 0.867 0.32898 0.31533 0.0
C1126 C 0.80546 0.34039 0.25243 0.0
C1127 C 0.88626 0.33431 0.23879 0.0
C1128 C 0.8385 0.32295 0.11809 0.0
C1129 C 0.83652 0.34309 0.09732 0.0
C1130 C 0.84196 0.32086 0.16646 0.0
C1131 C 0.84411 0.33938 0.19437 0.0
C1132 C 0.8432 0.35977 0.1732 0.0
C1133 C 0.83905 0.36139 0.12488 0.0
C1134 C 0.84232 0.29885 0.18797 0.0
C1135 C 0.84609 0.37982 0.20172 0.0
H1136 H 0.81448 0.3326 0.34345 0.0
H1137 H 0.88227 0.32562 0.33146 0.0
H1138 H 0.80492 0.35563 0.23274 0.0
H1139 H 0.80218 0.32742 0.22696 0.0
H1140 H 0.79261 0.3405 0.27925 0.0
H1141 H 0.90066 0.33366 0.26139 0.0
H1142 H 0.88668 0.3206 0.21428 0.0
H1143 H 0.88687 0.34904 0.21722 0.0
H1144 H 0.83637 0.30878 0.09686 0.0
H1145 H 0.83767 0.37698 0.1087 0.0
H1146 H 0.82902 0.29722 0.21341 0.0
H1147 H 0.85733 0.29635 0.2077 0.0
H1148 H 0.84082 0.28608 0.16117 0.0
H1149 H 0.83244 0.38184 0.22602 0.0
H1150 H 0.84725 0.39424 0.17919 0.0
H1151 H 0.86068 0.37866 0.22355 0.0
C1152 C 0.63096 0.80789 0.15756 0.0
C1153 C 0.63016 0.82445 0.12464 0.0
C1154 C 0.63368 0.81221 0.20547 0.0
C1155 C 0.63479 0.83364 0.22079 0.0
C1156 C 0.63308 0.85044 0.18779 0.0
C1157 C 0.63122 0.84562 0.13983 0.0
C1158 C 0.63615 0.79386 0.23941 0.0
C1159 C 0.63343 0.87346 0.20307 0.0
C1160 C 0.62583 0.84139 0.35145 0.0
C1161 C 0.64672 0.84409 0.36751 0.0
C1162 C 0.62159 0.83896 0.30335 0.0
C1163 C 0.63874 0.83833 0.27112 0.0
C1164 C 0.65987 0.84113 0.2873 0.0
C1165 C 0.66356 0.84439 0.33531 0.0
C1166 C 0.59881 0.83681 0.28712 0.0
C1167 C 0.67863 0.83985 0.25421 0.0
H1168 H 0.63034 0.79151 0.14558 0.0
H1169 H 0.63043 0.85839 0.1142 0.0
H1170 H 0.65182 0.79492 0.25725 0.0
H1171 H 0.62373 0.79467 0.26704 0.0
H1172 H 0.63501 0.77814 0.22168 0.0
H1173 H 0.62999 0.88454 0.17356 0.0
H1174 H 0.62154 0.87612 0.23131 0.0
H1175 H 0.64928 0.87747 0.21775 0.0
H1176 H 0.61283 0.84134 0.37651 0.0
H1177 H 0.67973 0.84628 0.34797 0.0
H1178 H 0.59609 0.82058 0.27302 0.0
H1179 H 0.59554 0.84824 0.25823 0.0
H1180 H 0.58727 0.83968 0.316 0.0
H1181 H 0.67897 0.82398 0.23707 0.0
H1182 H 0.69404 0.84239 0.27251 0.0
H1183 H 0.67707 0.85193 0.22597 0.0
C1184 C 0.13047 0.63059 0.35083 0.0
C1185 C 0.12909 0.65172 0.36623 0.0
C1186 C 0.13211 0.62588 0.30279 0.0
C1187 C 0.13325 0.64278 0.2699 0.0
C1188 C 0.13152 0.66414 0.28535 0.0
C1189 C 0.12907 0.66832 0.33337 0.0
C1190 C 0.13314 0.60291 0.28735 0.0
C1191 C 0.13332 0.6826 0.25149 0.0
C1192 C 0.16361 0.63365 0.15687 0.0
C1193 C 0.14714 0.63348 0.12375 0.0
C1194 C 0.15925 0.63643 0.20472 0.0
C1195 C 0.13786 0.63832 0.21978 0.0
C1196 C 0.1211 0.63715 0.18664 0.0
C1197 C 0.12598 0.63517 0.13873 0.0
C1198 C 0.17759 0.63825 0.23883 0.0
C1199 C 0.09809 0.63833 0.2017 0.0
H1200 H 0.1303 0.61776 0.37638 0.0
H1201 H 0.12819 0.68467 0.34546 0.0
H1202 H 0.12176 0.60002 0.25821 0.0
H1203 H 0.1493 0.59925 0.27391 0.0
H1204 H 0.12948 0.59173 0.31656 0.0
H1205 H 0.13117 0.69823 0.26914 0.0
H1206 H 0.14922 0.68238 0.23447 0.0
H1207 H 0.12127 0.68115 0.22323 0.0
H1208 H 0.17999 0.63252 0.1451 0.0
H1209 H 0.11327 0.63485 0.11297 0.0
H1210 H 0.17617 0.626 0.26674 0.0
H1211 H 0.17715 0.65405 0.25629 0.0
H1212 H 0.19328 0.63636 0.22133 0.0
H1213 H 0.09499 0.62678 0.23045 0.0
H1214 H 0.08699 0.63498 0.17223 0.0
H1215 H 0.09454 0.65444 0.21561 0.0
C1216 C 0.33547 0.11658 0.34279 0.0
C1217 C 0.33457 0.13486 0.37087 0.0
C1218 C 0.33928 0.11815 0.29436 0.0
C1219 C 0.34142 0.13853 0.2736 0.0
C1220 C 0.34101 0.15701 0.30207 0.0
C1221 C 0.33793 0.15491 0.3506 0.0
C1222 C 0.34037 0.09808 0.26527 0.0
C1223 C 0.34267 0.17904 0.28101 0.0
C1224 C 0.36281 0.14701 0.15048 0.0
C1225 C 0.34391 0.14846 0.12455 0.0
C1226 C 0.36232 0.14276 0.19886 0.0
C1227 C 0.34244 0.14073 0.2218 0.0
C1228 C 0.32332 0.14194 0.19556 0.0
C1229 C 0.32433 0.14545 0.14701 0.0
C1230 C 0.383 0.14083 0.22552 0.0
C1231 C 0.3018 0.14042 0.21902 0.0
H1232 H 0.33303 0.10106 0.35867 0.0
H1233 H 0.33704 0.16905 0.37235 0.0
H1234 H 0.32616 0.09704 0.24226 0.0
H1235 H 0.35458 0.0984 0.24211 0.0
H1236 H 0.34102 0.08353 0.28746 0.0
H1237 H 0.34273 0.19172 0.30823 0.0
H1238 H 0.35739 0.18048 0.25975 0.0
H1239 H 0.32901 0.18185 0.25705 0.0
H1240 H 0.37797 0.14918 0.13289 0.0
H1241 H 0.30972 0.14676 0.12691 0.0
H1242 H 0.38309 0.12601 0.24679 0.0
H1243 H 0.38467 0.15438 0.25022 0.0
H1244 H 0.39703 0.14071 0.20174 0.0
H1245 H 0.30037 0.12513 0.23829 0.0
H1246 H 0.28849 0.14156 0.19345 0.0
H1247 H 0.30007 0.15341 0.24516 0.0
loop_
_geom_bond_atom_site_label_1
_geom_bond_atom_site_label_2
_geom_bond_distance
_geom_bond_site_symmetry_2
_ccdc_geom_bond_type
C0 O1 1.306 . S
C0 O3 1.160 . S
O1 C0 1.306 . S
O1 Cd2 2.228 1_556 S
Cd2 O1 2.228 1_554 S
Cd2 O6 2.273 . S
Cd2 O10 2.277 . S
O3 C0 1.160 . S
O3 Cd4 2.203 1_556 S
Cd4 O3 2.203 1_554 S
Cd4 O6 2.411 . S
Cd4 O7 2.333 . S
Cd4 O8 2.352 . S
Cd4 O12 2.277 . S
Cd4 O13 2.356 . S
C5 O10 1.209 . S
C5 O12 1.226 . S
O6 Cd2 2.273 . S
O6 Cd4 2.411 . S
O6 C9 1.320 . S
O7 Cd4 2.333 . S
O7 C9 1.214 . S
O8 Cd4 2.352 . S
O8 C11 1.258 . S
C9 O6 1.320 . S
C9 O7 1.214 . S
O10 Cd2 2.277 . S
O10 C5 1.209 . S
C11 O8 1.258 . S
C11 O13 1.282 . S
O12 Cd4 2.277 . S
O12 C5 1.226 . S
O13 Cd4 2.356 . S
O13 C11 1.282 . S
C14 O15 1.306 . S
C14 O17 1.160 . S
O15 C14 1.306 . S
O15 Cd16 2.228 1_556 S
Cd16 O15 2.228 1_554 S
Cd16 O20 2.273 . S
Cd16 O24 2.277 . S
O17 C14 1.160 . S
O17 Cd18 2.203 1_556 S
Cd18 O17 2.203 1_554 S
Cd18 O20 2.411 . S
Cd18 O21 2.333 . S
Cd18 O22 2.352 . S
Cd18 O26 2.277 . S
Cd18 O27 2.356 . S
C19 O24 1.209 . S
C19 O26 1.226 . S
O20 Cd16 2.273 . S
O20 Cd18 2.411 . S
O20 C23 1.320 . S
O21 Cd18 2.333 . S
O21 C23 1.214 . S
O22 Cd18 2.352 . S
O22 C25 1.258 . S
C23 O20 1.320 . S
C23 O21 1.214 . S
O24 Cd16 2.277 . S
O24 C19 1.209 . S
C25 O22 1.258 . S
C25 O27 1.282 . S
O26 Cd18 2.277 . S
O26 C19 1.226 . S
O27 Cd18 2.356 . S
O27 C25 1.282 . S
C28 O29 1.306 . S
C28 O31 1.160 . S
O29 C28 1.306 . S
O29 Cd30 2.228 1_556 S
Cd30 O29 2.228 1_554 S
Cd30 O34 2.273 . S
Cd30 O38 2.277 . S
O31 C28 1.160 . S
O31 Cd32 2.203 1_556 S
Cd32 O31 2.203 1_554 S
Cd32 O34 2.411 . S
Cd32 O35 2.333 . S
Cd32 O36 2.352 . S
Cd32 O40 2.277 . S
Cd32 O41 2.356 . S
C33 O38 1.209 . S
C33 O40 1.226 . S
O34 Cd30 2.273 . S
O34 Cd32 2.411 . S
O34 C37 1.320 . S
O35 Cd32 2.333 . S
O35 C37 1.214 . S
O36 Cd32 2.352 . S
O36 C39 1.258 . S
C37 O34 1.320 . S
C37 O35 1.214 . S
O38 Cd30 2.277 . S
O38 C33 1.209 . S
C39 O36 1.258 . S
C39 O41 1.282 . S
O40 Cd32 2.277 . S
O40 C33 1.226 . S
O41 Cd32 2.356 . S
O41 C39 1.282 . S
C42 O43 1.306 . S
C42 O45 1.160 . S
O43 C42 1.306 . S
O43 Cd44 2.228 1_556 S
Cd44 O43 2.228 1_554 S
Cd44 O48 2.273 . S
Cd44 O52 2.277 . S
O45 C42 1.160 . S
O45 Cd46 2.203 1_556 S
Cd46 O45 2.203 1_554 S
Cd46 O48 2.411 . S
Cd46 O49 2.333 . S
Cd46 O50 2.352 . S
Cd46 O54 2.277 . S
Cd46 O55 2.356 . S
C47 O52 1.209 . S
C47 O54 1.226 . S
O48 Cd44 2.273 . S
O48 Cd46 2.411 . S
O48 C51 1.320 . S
O49 Cd46 2.333 . S
O49 C51 1.214 . S
O50 Cd46 2.352 . S
O50 C53 1.258 . S
C51 O48 1.320 . S
C51 O49 1.214 . S
O52 Cd44 2.277 . S
O52 C47 1.209 . S
C53 O50 1.258 . S
C53 O55 1.282 . S
O54 Cd46 2.277 . S
O54 C47 1.226 . S
O55 Cd46 2.356 . S
O55 C53 1.282 . S
C56 O57 1.306 . S
C56 O59 1.160 . S
O57 C56 1.306 . S
O57 Cd58 2.228 1_554 S
Cd58 O57 2.228 1_556 S
Cd58 O62 2.273 . S
Cd58 O66 2.277 1_556 S
O59 C56 1.160 . S
O59 Cd60 2.203 . S
Cd60 O59 2.203 . S
Cd60 O62 2.411 1_554 S
Cd60 O63 2.333 1_554 S
Cd60 O64 2.352 . S
Cd60 O68 2.277 . S
Cd60 O69 2.356 1_554 S
C61 O66 1.209 . S
C61 O68 1.226 . S
O62 Cd58 2.273 . S
O62 Cd60 2.411 1_556 S
O62 C65 1.320 . S
O63 Cd60 2.333 1_556 S
O63 C65 1.214 . S
O64 Cd60 2.352 . S
O64 C67 1.258 . S
C65 O62 1.320 . S
C65 O63 1.214 . S
O66 Cd58 2.277 1_554 S
O66 C61 1.209 . S
C67 O64 1.258 . S
C67 O69 1.282 1_554 S
O68 Cd60 2.277 . S
O68 C61 1.226 . S
O69 Cd60 2.356 1_556 S
O69 C67 1.282 1_556 S
C70 O71 1.306 . S
C70 O73 1.160 . S
O71 C70 1.306 . S
O71 Cd72 2.228 1_554 S
Cd72 O71 2.228 1_556 S
Cd72 O76 2.273 . S
Cd72 O80 2.277 1_556 S
O73 C70 1.160 . S
O73 Cd74 2.203 . S
Cd74 O73 2.203 . S
Cd74 O76 2.411 1_554 S
Cd74 O77 2.333 1_554 S
Cd74 O78 2.352 . S
Cd74 O82 2.277 . S
Cd74 O83 2.356 1_554 S
C75 O80 1.209 . S
C75 O82 1.226 . S
O76 Cd72 2.273 . S
O76 Cd74 2.411 1_556 S
O76 C79 1.320 . S
O77 Cd74 2.333 1_556 S
O77 C79 1.214 . S
O78 Cd74 2.352 . S
O78 C81 1.258 . S
C79 O76 1.320 . S
C79 O77 1.214 . S
O80 Cd72 2.277 1_554 S
O80 C75 1.209 . S
C81 O78 1.258 . S
C81 O83 1.282 1_554 S
O82 Cd74 2.277 . S
O82 C75 1.226 . S
O83 Cd74 2.356 1_556 S
O83 C81 1.282 1_556 S
C84 O85 1.306 . S
C84 O87 1.160 . S
O85 C84 1.306 . S
O85 Cd86 2.228 1_554 S
Cd86 O85 2.228 1_556 S
Cd86 O90 2.273 . S
Cd86 O94 2.277 1_556 S
O87 C84 1.160 . S
O87 Cd88 2.203 . S
Cd88 O87 2.203 . S
Cd88 O90 2.411 1_554 S
Cd88 O91 2.333 1_554 S
Cd88 O92 2.352 . S
Cd88 O96 2.277 . S
Cd88 O97 2.356 1_554 S
C89 O94 1.209 . S
C89 O96 1.226 . S
O90 Cd86 2.273 . S
O90 Cd88 2.411 1_556 S
O90 C93 1.320 . S
O91 Cd88 2.333 1_556 S
O91 C93 1.214 . S
O92 Cd88 2.352 . S
O92 C95 1.258 . S
C93 O90 1.320 . S
C93 O91 1.214 . S
O94 Cd86 2.277 1_554 S
O94 C89 1.209 . S
C95 O92 1.258 . S
C95 O97 1.282 1_554 S
O96 Cd88 2.277 . S
O96 C89 1.226 . S
O97 Cd88 2.356 1_556 S
O97 C95 1.282 1_556 S
C98 O99 1.306 . S
C98 O101 1.160 . S
O99 C98 1.306 . S
O99 Cd100 2.228 1_554 S
Cd100 O99 2.228 1_556 S
Cd100 O104 2.273 . S
Cd100 O108 2.277 1_556 S
O101 C98 1.160 . S
O101 Cd102 2.203 . S
Cd102 O101 2.203 . S
Cd102 O104 2.411 1_554 S
Cd102 O105 2.333 1_554 S
Cd102 O106 2.352 . S
Cd102 O110 2.277 . S
Cd102 O111 2.356 1_554 S
C103 O108 1.209 . S
C103 O110 1.226 . S
O104 Cd100 2.273 . S
O104 Cd102 2.411 1_556 S
O104 C107 1.320 . S
O105 Cd102 2.333 1_556 S
O105 C107 1.214 . S
O106 Cd102 2.352 . S
O106 C109 1.258 . S
C107 O104 1.320 . S
C107 O105 1.214 . S
O108 Cd100 2.277 1_554 S
O108 C103 1.209 . S
C109 O106 1.258 . S
C109 O111 1.282 1_554 S
O110 Cd102 2.277 . S
O110 C103 1.226 . S
O111 Cd102 2.356 1_556 S
O111 C109 1.282 1_556 S
C112 O113 1.306 . S
C112 O115 1.160 . S
O113 C112 1.306 . S
O113 Cd114 2.228 . S
Cd114 O113 2.228 . S
Cd114 O118 2.273 . S
Cd114 O122 2.277 . S
O115 C112 1.160 . S
O115 Cd116 2.203 . S
Cd116 O115 2.203 . S
Cd116 O118 2.411 . S
Cd116 O119 2.333 . S
Cd116 O120 2.352 . S
Cd116 O124 2.277 . S
Cd116 O125 2.356 . S
C117 O122 1.209 . S
C117 O124 1.226 . S
O118 Cd114 2.273 . S
O118 Cd116 2.411 . S
O118 C121 1.320 . S
O119 Cd116 2.333 . S
O119 C121 1.214 . S
O120 Cd116 2.352 . S
O120 C123 1.258 . S
C121 O118 1.320 . S
C121 O119 1.214 . S
O122 Cd114 2.277 . S
O122 C117 1.209 . S
C123 O120 1.258 . S
C123 O125 1.282 . S
O124 Cd116 2.277 . S
O124 C117 1.226 . S
O125 Cd116 2.356 . S
O125 C123 1.282 . S
C126 O127 1.306 . S
C126 O129 1.160 . S
O127 C126 1.306 . S
O127 Cd128 2.228 . S
Cd128 O127 2.228 . S
Cd128 O132 2.273 . S
Cd128 O136 2.277 . S
O129 C126 1.160 . S
O129 Cd130 2.203 . S
Cd130 O129 2.203 . S
Cd130 O132 2.411 . S
Cd130 O133 2.333 . S
Cd130 O134 2.352 . S
Cd130 O138 2.277 . S
Cd130 O139 2.356 . S
C131 O136 1.209 . S
C131 O138 1.226 . S
O132 Cd128 2.273 . S
O132 Cd130 2.411 . S
O132 C135 1.320 . S
O133 Cd130 2.333 . S
O133 C135 1.214 . S
O134 Cd130 2.352 . S
O134 C137 1.258 . S
C135 O132 1.320 . S
C135 O133 1.214 . S
O136 Cd128 2.277 . S
O136 C131 1.209 . S
C137 O134 1.258 . S
C137 O139 1.282 . S
O138 Cd130 2.277 . S
O138 C131 1.226 . S
O139 Cd130 2.356 . S
O139 C137 1.282 . S
C140 O141 1.306 . S
C140 O143 1.160 . S
O141 C140 1.306 . S
O141 Cd142 2.228 . S
Cd142 O141 2.228 . S
Cd142 O146 2.273 . S
Cd142 O150 2.277 . S
O143 C140 1.160 . S
O143 Cd144 2.203 . S
Cd144 O143 2.203 . S
Cd144 O146 2.411 . S
Cd144 O147 2.333 . S
Cd144 O148 2.352 . S
Cd144 O152 2.277 . S
Cd144 O153 2.356 . S
C145 O150 1.209 . S
C145 O152 1.226 . S
O146 Cd142 2.273 . S
O146 Cd144 2.411 . S
O146 C149 1.320 . S
O147 Cd144 2.333 . S
O147 C149 1.214 . S
O148 Cd144 2.352 . S
O148 C151 1.258 . S
C149 O146 1.320 . S
C149 O147 1.214 . S
O150 Cd142 2.277 . S
O150 C145 1.209 . S
C151 O148 1.258 . S
C151 O153 1.282 . S
O152 Cd144 2.277 . S
O152 C145 1.226 . S
O153 Cd144 2.356 . S
O153 C151 1.282 . S
C154 O155 1.306 . S
C154 O157 1.160 . S
O155 C154 1.306 . S
O155 Cd156 2.228 . S
Cd156 O155 2.228 . S
Cd156 O160 2.273 . S
Cd156 O164 2.277 . S
O157 C154 1.160 . S
O157 Cd158 2.203 . S
Cd158 O157 2.203 . S
Cd158 O160 2.411 . S
Cd158 O161 2.333 . S
Cd158 O162 2.352 . S
Cd158 O166 2.277 . S
Cd158 O167 2.356 . S
C159 O164 1.209 . S
C159 O166 1.226 . S
O160 Cd156 2.273 . S
O160 Cd158 2.411 . S
O160 C163 1.320 . S
O161 Cd158 2.333 . S
O161 C163 1.214 . S
O162 Cd158 2.352 . S
O162 C165 1.258 . S
C163 O160 1.320 . S
C163 O161 1.214 . S
O164 Cd156 2.277 . S
O164 C159 1.209 . S
C165 O162 1.258 . S
C165 O167 1.282 . S
O166 Cd158 2.277 . S
O166 C159 1.226 . S
O167 Cd158 2.356 . S
O167 C165 1.282 . S
C168 O169 1.306 . S
C168 O171 1.160 . S
O169 C168 1.306 . S
O169 Cd170 2.228 . S
Cd170 O169 2.228 . S
Cd170 O174 2.273 . S
Cd170 O178 2.277 . S
O171 C168 1.160 . S
O171 Cd172 2.203 . S
Cd172 O171 2.203 . S
Cd172 O174 2.411 . S
Cd172 O175 2.333 . S
Cd172 O176 2.352 . S
Cd172 O180 2.277 . S
Cd172 O181 2.356 . S
C173 O178 1.209 . S
C173 O180 1.226 . S
O174 Cd170 2.273 . S
O174 Cd172 2.411 . S
O174 C177 1.320 . S
O175 Cd172 2.333 . S
O175 C177 1.214 . S
O176 Cd172 2.352 . S
O176 C179 1.258 . S
C177 O174 1.320 . S
C177 O175 1.214 . S
O178 Cd170 2.277 . S
O178 C173 1.209 . S
C179 O176 1.258 . S
C179 O181 1.282 . S
O180 Cd172 2.277 . S
O180 C173 1.226 . S
O181 Cd172 2.356 . S
O181 C179 1.282 . S
C182 O183 1.306 . S
C182 O185 1.160 . S
O183 C182 1.306 . S
O183 Cd184 2.228 . S
Cd184 O183 2.228 . S
Cd184 O188 2.273 . S
Cd184 O192 2.277 . S
O185 C182 1.160 . S
O185 Cd186 2.203 . S
Cd186 O185 2.203 . S
Cd186 O188 2.411 . S
Cd186 O189 2.333 . S
Cd186 O190 2.352 . S
Cd186 O194 2.277 . S
Cd186 O195 2.356 . S
C187 O192 1.209 . S
C187 O194 1.226 . S
O188 Cd184 2.273 . S
O188 Cd186 2.411 . S
O188 C191 1.320 . S
O189 Cd186 2.333 . S
O189 C191 1.214 . S
O190 Cd186 2.352 . S
O190 C193 1.258 . S
C191 O188 1.320 . S
C191 O189 1.214 . S
O192 Cd184 2.277 . S
O192 C187 1.209 . S
C193 O190 1.258 . S
C193 O195 1.282 . S
O194 Cd186 2.277 . S
O194 C187 1.226 . S
O195 Cd186 2.356 . S
O195 C193 1.282 . S
C196 O197 1.306 . S
C196 O199 1.160 . S
O197 C196 1.306 . S
O197 Cd198 2.228 . S
Cd198 O197 2.228 . S
Cd198 O202 2.273 . S
Cd198 O206 2.277 . S
O199 C196 1.160 . S
O199 Cd200 2.203 . S
Cd200 O199 2.203 . S
Cd200 O202 2.411 . S
Cd200 O203 2.333 . S
Cd200 O204 2.352 . S
Cd200 O208 2.277 . S
Cd200 O209 2.356 . S
C201 O206 1.209 . S
C201 O208 1.226 . S
O202 Cd198 2.273 . S
O202 Cd200 2.411 . S
O202 C205 1.320 . S
O203 Cd200 2.333 . S
O203 C205 1.214 . S
O204 Cd200 2.352 . S
O204 C207 1.258 . S
C205 O202 1.320 . S
C205 O203 1.214 . S
O206 Cd198 2.277 . S
O206 C201 1.209 . S
C207 O204 1.258 . S
C207 O209 1.282 . S
O208 Cd200 2.277 . S
O208 C201 1.226 . S
O209 Cd200 2.356 . S
O209 C207 1.282 . S
C210 O211 1.306 . S
C210 O213 1.160 . S
O211 C210 1.306 . S
O211 Cd212 2.228 . S
Cd212 O211 2.228 . S
Cd212 O216 2.273 . S
Cd212 O220 2.277 . S
O213 C210 1.160 . S
O213 Cd214 2.203 . S
Cd214 O213 2.203 . S
Cd214 O216 2.411 . S
Cd214 O217 2.333 . S
Cd214 O218 2.352 . S
Cd214 O222 2.277 . S
Cd214 O223 2.356 . S
C215 O220 1.209 . S
C215 O222 1.226 . S
O216 Cd212 2.273 . S
O216 Cd214 2.411 . S
O216 C219 1.320 . S
O217 Cd214 2.333 . S
O217 C219 1.214 . S
O218 Cd214 2.352 . S
O218 C221 1.258 . S
C219 O216 1.320 . S
C219 O217 1.214 . S
O220 Cd212 2.277 . S
O220 C215 1.209 . S
C221 O218 1.258 . S
C221 O223 1.282 . S
O222 Cd214 2.277 . S
O222 C215 1.226 . S
O223 Cd214 2.356 . S
O223 C221 1.282 . S
C224 C225 1.391 1_556 S
C224 C226 1.394 . S
C224 H240 0.931 . S
C225 C224 1.391 1_554 S
C225 C229 1.376 . S
C226 C224 1.394 . S
C226 C227 1.369 1_556 S
C226 C230 1.531 . S
C227 C226 1.369 1_554 S
C227 C228 1.410 . S
C227 C235 1.503 . S
C228 C227 1.410 . S
C228 C229 1.392 . S
C228 C231 1.511 . S
C229 C225 1.376 . S
C229 C228 1.392 . S
C229 H241 0.929 . S
C230 C226 1.531 . S
C230 H242 0.960 . S
C230 H243 0.962 . S
C230 H244 0.960 . S
C231 C228 1.511 . S
C231 H245 0.961 . S
C231 H246 0.961 . S
C231 H247 0.961 . S
C232 C233 1.370 1_556 S
C232 C234 1.363 . S
C232 H248 0.931 . S
C233 C232 1.370 1_554 S
C233 C237 1.408 . S
C234 C232 1.363 . S
C234 C235 1.370 1_556 S
C234 C238 1.524 . S
C235 C227 1.503 . S
C235 C234 1.370 1_554 S
C235 C236 1.403 . S
C236 C235 1.403 . S
C236 C237 1.404 . S
C236 C239 1.539 . S
C237 C233 1.408 . S
C237 C236 1.404 . S
C237 H249 0.930 . S
C238 C234 1.524 . S
C238 H250 0.956 . S
C238 H251 0.961 . S
C238 H252 0.961 . S
C239 C236 1.539 . S
C239 H253 0.958 . S
C239 H254 0.961 . S
C239 H255 0.960 . S
H240 C224 0.931 . S
H241 C229 0.929 . S
H242 C230 0.960 . S
H243 C230 0.962 . S
H244 C230 0.960 . S
H245 C231 0.961 . S
H246 C231 0.961 . S
H247 C231 0.961 . S
H248 C232 0.931 . S
H249 C237 0.930 . S
H250 C238 0.956 . S
H251 C238 0.961 . S
H252 C238 0.961 . S
H253 C239 0.958 . S
H254 C239 0.961 . S
H255 C239 0.960 . S
C256 C257 1.391 1_556 S
C256 C258 1.394 . S
C256 H272 0.931 . S
C257 C256 1.391 1_554 S
C257 C261 1.376 . S
C258 C256 1.394 . S
C258 C259 1.369 1_556 S
C258 C262 1.531 . S
C259 C258 1.369 1_554 S
C259 C260 1.410 . S
C259 C267 1.503 . S
C260 C259 1.410 . S
C260 C261 1.392 . S
C260 C263 1.511 . S
C261 C257 1.376 . S
C261 C260 1.392 . S
C261 H273 0.929 . S
C262 C258 1.531 . S
C262 H274 0.960 . S
C262 H275 0.962 . S
C262 H276 0.960 . S
C263 C260 1.511 . S
C263 H277 0.961 . S
C263 H278 0.961 . S
C263 H279 0.961 . S
C264 C265 1.370 . S
C264 C266 1.363 . S
C264 H280 0.931 . S
C265 C264 1.370 . S
C265 C269 1.408 . S
C266 C264 1.363 . S
C266 C267 1.370 . S
C266 C270 1.524 . S
C267 C259 1.503 . S
C267 C266 1.370 . S
C267 C268 1.403 . S
C268 C267 1.403 . S
C268 C269 1.404 . S
C268 C271 1.539 . S
C269 C265 1.408 . S
C269 C268 1.404 . S
C269 H281 0.930 . S
C270 C266 1.524 . S
C270 H282 0.956 1_554 S
C270 H283 0.961 . S
C270 H284 0.961 . S
C271 C268 1.539 . S
C271 H285 0.958 1_554 S
C271 H286 0.961 . S
C271 H287 0.960 . S
H272 C256 0.931 . S
H273 C261 0.929 . S
H274 C262 0.960 . S
H275 C262 0.962 . S
H276 C262 0.960 . S
H277 C263 0.961 . S
H278 C263 0.961 . S
H279 C263 0.961 . S
H280 C264 0.931 . S
H281 C269 0.930 . S
H282 C270 0.956 1_556 S
H283 C270 0.961 . S
H284 C270 0.961 . S
H285 C271 0.958 1_556 S
H286 C271 0.961 . S
H287 C271 0.960 . S
C288 C289 1.391 1_556 S
C288 C290 1.394 . S
C288 H304 0.931 . S
C289 C288 1.391 1_554 S
C289 C293 1.376 . S
C290 C288 1.394 . S
C290 C291 1.369 . S
C290 C294 1.531 . S
C291 C290 1.369 . S
C291 C292 1.410 1_556 S
C291 C299 1.503 1_556 S
C292 C291 1.410 1_554 S
C292 C293 1.392 . S
C292 C295 1.511 . S
C293 C289 1.376 . S
C293 C292 1.392 . S
C293 H305 0.929 . S
C294 C290 1.531 . S
C294 H306 0.960 . S
C294 H307 0.962 . S
C294 H308 0.960 . S
C295 C292 1.511 . S
C295 H309 0.961 . S
C295 H310 0.961 . S
C295 H311 0.961 . S
C296 C297 1.370 . S
C296 C298 1.363 . S
C296 H312 0.931 . S
C297 C296 1.370 . S
C297 C301 1.408 1_554 S
C298 C296 1.363 . S
C298 C299 1.377 . S
C298 C302 1.524 . S
C299 C291 1.503 1_554 S
C299 C298 1.377 . S
C299 C300 1.397 1_554 S
C300 C299 1.397 1_556 S
C300 C301 1.404 . S
C300 C303 1.539 . S
C301 C297 1.408 1_556 S
C301 C300 1.404 . S
C301 H313 0.930 . S
C302 C298 1.524 . S
C302 H314 0.956 . S
C302 H315 0.961 . S
C302 H316 0.961 . S
C303 C300 1.539 . S
C303 H317 0.958 . S
C303 H318 0.961 . S
C303 H319 0.960 . S
H304 C288 0.931 . S
H305 C293 0.929 . S
H306 C294 0.960 . S
H307 C294 0.962 . S
H308 C294 0.960 . S
H309 C295 0.961 . S
H310 C295 0.961 . S
H311 C295 0.961 . S
H312 C296 0.931 . S
H313 C301 0.930 . S
H314 C302 0.956 . S
H315 C302 0.961 . S
H316 C302 0.961 . S
H317 C303 0.958 . S
H318 C303 0.961 . S
H319 C303 0.960 . S
C320 C321 1.391 . S
C320 C322 1.394 . S
C320 H336 0.931 . S
C321 C320 1.391 . S
C321 C325 1.376 1_554 S
C322 C320 1.394 . S
C322 C323 1.369 . S
C322 C326 1.531 . S
C323 C322 1.369 . S
C323 C324 1.410 1_554 S
C323 C331 1.503 . S
C324 C323 1.410 1_556 S
C324 C325 1.392 . S
C324 C327 1.511 . S
C325 C321 1.376 1_556 S
C325 C324 1.392 . S
C325 H337 0.929 . S
C326 C322 1.531 . S
C326 H338 0.960 . S
C326 H339 0.962 . S
C326 H340 0.960 . S
C327 C324 1.511 . S
C327 H341 0.961 . S
C327 H342 0.961 . S
C327 H343 0.961 . S
C328 C329 1.370 . S
C328 C330 1.363 . S
C328 H344 0.931 . S
C329 C328 1.370 . S
C329 C333 1.408 . S
C330 C328 1.363 . S
C330 C331 1.370 . S
C330 C334 1.524 . S
C331 C323 1.503 . S
C331 C330 1.370 . S
C331 C332 1.403 . S
C332 C331 1.403 . S
C332 C333 1.404 . S
C332 C335 1.539 . S
C333 C329 1.408 . S
C333 C332 1.404 . S
C333 H345 0.930 . S
C334 C330 1.524 . S
C334 H346 0.956 . S
C334 H347 0.961 1_554 S
C334 H348 0.961 1_554 S
C335 C332 1.539 . S
C335 H349 0.958 . S
C335 H350 0.961 1_554 S
C335 H351 0.960 1_554 S
H336 C320 0.931 . S
H337 C325 0.929 . S
H338 C326 0.960 . S
H339 C326 0.962 . S
H340 C326 0.960 . S
H341 C327 0.961 . S
H342 C327 0.961 . S
H343 C327 0.961 . S
H344 C328 0.931 . S
H345 C333 0.930 . S
H346 C334 0.956 . S
H347 C334 0.961 1_556 S
H348 C334 0.961 1_556 S
H349 C335 0.958 . S
H350 C335 0.961 1_556 S
H351 C335 0.960 1_556 S
C352 C353 1.391 . S
C352 C354 1.394 . S
C352 H368 0.931 . S
C353 C352 1.391 . S
C353 C357 1.376 . S
C354 C352 1.394 . S
C354 C355 1.369 . S
C354 C358 1.531 . S
C355 C354 1.369 . S
C355 C356 1.410 . S
C355 C363 1.503 1_545 S
C356 C355 1.410 . S
C356 C357 1.392 . S
C356 C359 1.511 . S
C357 C353 1.376 . S
C357 C356 1.392 . S
C357 H369 0.929 . S
C358 C354 1.531 . S
C358 H370 0.960 1_545 S
C358 H371 0.962 . S
C358 H372 0.960 . S
C359 C356 1.511 . S
C359 H373 0.961 . S
C359 H374 0.961 1_545 S
C359 H375 0.961 . S
C360 C361 1.370 . S
C360 C362 1.363 . S
C360 H376 0.931 . S
C361 C360 1.370 . S
C361 C365 1.408 . S
C362 C360 1.363 . S
C362 C363 1.370 . S
C362 C366 1.524 . S
C363 C355 1.503 1_565 S
C363 C362 1.370 . S
C363 C364 1.403 . S
C364 C363 1.403 . S
C364 C365 1.404 . S
C364 C367 1.539 . S
C365 C361 1.408 . S
C365 C364 1.404 . S
C365 H377 0.930 . S
C366 C362 1.524 . S
C366 H378 0.956 . S
C366 H379 0.941 1_565 S
C366 H380 0.961 . S
C367 C364 1.539 . S
C367 H381 0.958 . S
C367 H382 0.961 . S
C367 H383 0.946 1_565 S
H368 C352 0.931 . S
H369 C357 0.929 . S
H370 C358 0.960 1_565 S
H371 C358 0.962 . S
H372 C358 0.960 . S
H373 C359 0.961 . S
H374 C359 0.961 1_565 S
H375 C359 0.961 . S
H376 C360 0.931 . S
H377 C365 0.930 . S
H378 C366 0.956 . S
H379 C366 0.941 1_545 S
H380 C366 0.961 . S
H381 C367 0.958 . S
H382 C367 0.961 . S
H383 C367 0.946 1_545 S
C384 C385 1.391 . S
C384 C386 1.394 . S
C384 H400 0.931 . S
C385 C384 1.391 . S
C385 C389 1.376 . S
C386 C384 1.394 . S
C386 C387 1.369 . S
C386 C390 1.531 . S
C387 C386 1.369 . S
C387 C388 1.410 . S
C387 C395 1.503 1_655 S
C388 C387 1.410 . S
C388 C389 1.392 . S
C388 C391 1.511 . S
C389 C385 1.376 . S
C389 C388 1.392 . S
C389 H401 0.929 . S
C390 C386 1.531 . S
C390 H402 0.960 1_655 S
C390 H403 0.962 . S
C390 H404 0.960 . S
C391 C388 1.511 . S
C391 H405 0.961 . S
C391 H406 0.961 1_655 S
C391 H407 0.961 . S
C392 C393 1.370 . S
C392 C394 1.363 . S
C392 H408 0.931 . S
C393 C392 1.370 . S
C393 C397 1.408 . S
C394 C392 1.363 . S
C394 C395 1.370 . S
C394 C398 1.524 . S
C395 C387 1.503 1_455 S
C395 C394 1.370 . S
C395 C396 1.403 . S
C396 C395 1.403 . S
C396 C397 1.404 . S
C396 C399 1.539 . S
C397 C393 1.408 . S
C397 C396 1.404 . S
C397 H409 0.930 . S
C398 C394 1.524 . S
C398 H410 0.956 . S
C398 H411 0.961 1_455 S
C398 H412 0.961 . S
C399 C396 1.539 . S
C399 H413 0.958 . S
C399 H414 0.961 . S
C399 H415 0.961 1_455 S
H400 C384 0.931 . S
H401 C389 0.929 . S
H402 C390 0.960 1_455 S
H403 C390 0.962 . S
H404 C390 0.960 . S
H405 C391 0.961 . S
H406 C391 0.961 1_455 S
H407 C391 0.961 . S
H408 C392 0.931 . S
H409 C397 0.930 . S
H410 C398 0.956 . S
H411 C398 0.961 1_655 S
H412 C398 0.961 . S
H413 C399 0.958 . S
H414 C399 0.961 . S
H415 C399 0.961 1_655 S
C416 C417 1.391 . S
C416 C418 1.394 . S
C416 H432 0.931 . S
C417 C416 1.391 . S
C417 C421 1.376 . S
C418 C416 1.394 . S
C418 C419 1.369 . S
C418 C422 1.531 . S
C419 C418 1.369 . S
C419 C420 1.410 . S
C419 C427 1.503 1_545 S
C420 C419 1.410 . S
C420 C421 1.392 . S
C420 C423 1.511 . S
C421 C417 1.376 . S
C421 C420 1.392 . S
C421 H433 0.929 . S
C422 C418 1.531 . S
C422 H434 0.960 1_545 S
C422 H435 0.962 . S
C422 H436 0.960 . S
C423 C420 1.511 . S
C423 H437 0.961 . S
C423 H438 0.961 1_545 S
C423 H439 0.961 . S
C424 C425 1.370 . S
C424 C426 1.363 . S
C424 H440 0.931 . S
C425 C424 1.370 . S
C425 C429 1.408 . S
C426 C424 1.363 . S
C426 C427 1.370 . S
C426 C430 1.524 . S
C427 C419 1.503 1_565 S
C427 C426 1.370 . S
C427 C428 1.403 . S
C428 C427 1.403 . S
C428 C429 1.404 . S
C428 C431 1.539 . S
C429 C425 1.408 . S
C429 C428 1.404 . S
C429 H441 0.930 . S
C430 C426 1.524 . S
C430 H442 0.970 . S
C430 H443 0.961 1_565 S
C430 H444 0.961 . S
C431 C428 1.539 . S
C431 H445 0.958 . S
C431 H446 0.961 . S
C431 H447 1.000 . S
H432 C416 0.931 . S
H433 C421 0.929 . S
H434 C422 0.960 1_565 S
H435 C422 0.962 . S
H436 C422 0.960 . S
H437 C423 0.961 . S
H438 C423 0.961 1_565 S
H439 C423 0.961 . S
H440 C424 0.931 . S
H441 C429 0.930 . S
H442 C430 0.970 . S
H443 C430 0.961 1_545 S
H444 C430 0.961 . S
H445 C431 0.958 . S
H446 C431 0.961 . S
H447 C431 1.000 . S
C448 C449 1.391 . S
C448 C450 1.394 . S
C448 H464 0.931 . S
C449 C448 1.391 . S
C449 C453 1.376 . S
C450 C448 1.394 . S
C450 C451 1.369 . S
C450 C454 1.531 . S
C451 C450 1.369 . S
C451 C452 1.410 . S
C451 C459 1.503 1_455 S
C452 C451 1.410 . S
C452 C453 1.392 . S
C452 C455 1.511 . S
C453 C449 1.376 . S
C453 C452 1.392 . S
C453 H465 0.929 . S
C454 C450 1.531 . S
C454 H466 0.960 1_455 S
C454 H467 0.962 . S
C454 H468 0.960 . S
C455 C452 1.511 . S
C455 H469 0.961 . S
C455 H470 0.961 1_455 S
C455 H471 0.961 . S
C456 C457 1.370 . S
C456 C458 1.363 . S
C456 H472 0.931 . S
C457 C456 1.370 . S
C457 C461 1.408 . S
C458 C456 1.363 . S
C458 C459 1.370 . S
C458 C462 1.524 . S
C459 C451 1.503 1_655 S
C459 C458 1.370 . S
C459 C460 1.403 . S
C460 C459 1.403 . S
C460 C461 1.404 . S
C460 C463 1.539 . S
C461 C457 1.408 . S
C461 C460 1.404 . S
C461 H473 0.930 . S
C462 C458 1.524 . S
C462 H474 0.970 . S
C462 H475 0.961 1_655 S
C462 H476 0.961 . S
C463 C460 1.539 . S
C463 H477 0.958 . S
C463 H478 0.961 . S
C463 H479 0.992 . S
H464 C448 0.931 . S
H465 C453 0.929 . S
H466 C454 0.960 1_655 S
H467 C454 0.962 . S
H468 C454 0.960 . S
H469 C455 0.961 . S
H470 C455 0.961 1_655 S
H471 C455 0.961 . S
H472 C456 0.931 . S
H473 C461 0.930 . S
H474 C462 0.970 . S
H475 C462 0.961 1_455 S
H476 C462 0.961 . S
H477 C463 0.958 . S
H478 C463 0.961 . S
H479 C463 0.992 . S
C480 C481 1.391 . S
C480 C482 1.394 . S
C480 H496 0.931 . S
C481 C480 1.391 . S
C481 C485 1.376 1_554 S
C482 C480 1.394 . S
C482 C483 1.369 1_554 S
C482 C486 1.531 . S
C483 C482 1.369 1_556 S
C483 C484 1.410 . S
C483 C491 1.504 . S
C484 C483 1.410 . S
C484 C485 1.392 . S
C484 C487 1.511 . S
C485 C481 1.376 1_556 S
C485 C484 1.392 . S
C485 H497 0.929 . S
C486 C482 1.531 . S
C486 H498 0.960 . S
C486 H499 0.962 . S
C486 H500 0.960 . S
C487 C484 1.511 . S
C487 H501 0.961 . S
C487 H502 0.961 . S
C487 H503 0.961 . S
C488 C489 1.370 . S
C488 C490 1.363 . S
C488 H504 0.931 . S
C489 C488 1.370 . S
C489 C493 1.408 1_554 S
C490 C488 1.363 . S
C490 C491 1.359 1_554 S
C490 C494 1.524 . S
C491 C483 1.504 . S
C491 C490 1.359 1_556 S
C491 C492 1.413 . S
C492 C491 1.413 . S
C492 C493 1.404 . S
C492 C495 1.539 . S
C493 C489 1.408 1_556 S
C493 C492 1.404 . S
C493 H505 0.930 . S
C494 C490 1.524 . S
C494 H506 0.956 . S
C494 H507 0.961 . S
C494 H508 0.961 . S
C495 C492 1.539 . S
C495 H509 0.958 . S
C495 H510 0.961 . S
C495 H511 0.960 . S
H496 C480 0.931 . S
H497 C485 0.929 . S
H498 C486 0.960 . S
H499 C486 0.962 . S
H500 C486 0.960 . S
H501 C487 0.961 . S
H502 C487 0.961 . S
H503 C487 0.961 . S
H504 C488 0.931 . S
H505 C493 0.930 . S
H506 C494 0.956 . S
H507 C494 0.961 . S
H508 C494 0.961 . S
H509 C495 0.958 . S
H510 C495 0.961 . S
H511 C495 0.960 . S
C512 C513 1.391 1_556 S
C512 C514 1.394 . S
C512 H528 0.931 . S
C513 C512 1.391 1_554 S
C513 C517 1.376 . S
C514 C512 1.394 . S
C514 C515 1.369 . S
C514 C518 1.531 . S
C515 C514 1.369 . S
C515 C516 1.410 1_556 S
C515 C523 1.503 . S
C516 C515 1.410 1_554 S
C516 C517 1.392 . S
C516 C519 1.511 . S
C517 C513 1.376 . S
C517 C516 1.392 . S
C517 H529 0.929 . S
C518 C514 1.531 . S
C518 H530 0.960 . S
C518 H531 0.962 . S
C518 H532 0.960 . S
C519 C516 1.511 . S
C519 H533 0.961 . S
C519 H534 0.961 . S
C519 H535 0.961 . S
C520 C521 1.370 . S
C520 C522 1.363 . S
C520 H536 0.931 . S
C521 C520 1.370 . S
C521 C525 1.408 1_554 S
C522 C520 1.363 . S
C522 C523 1.370 1_554 S
C522 C526 1.524 . S
C523 C515 1.503 . S
C523 C522 1.370 1_556 S
C523 C524 1.403 . S
C524 C523 1.403 . S
C524 C525 1.404 . S
C524 C527 1.539 . S
C525 C521 1.408 1_556 S
C525 C524 1.404 . S
C525 H537 0.930 . S
C526 C522 1.524 . S
C526 H538 0.956 . S
C526 H539 0.961 . S
C526 H540 0.961 . S
C527 C524 1.539 . S
C527 H541 0.958 . S
C527 H542 0.961 . S
C527 H543 0.960 . S
H528 C512 0.931 . S
H529 C517 0.929 . S
H530 C518 0.960 . S
H531 C518 0.962 . S
H532 C518 0.960 . S
H533 C519 0.961 . S
H534 C519 0.961 . S
H535 C519 0.961 . S
H536 C520 0.931 . S
H537 C525 0.930 . S
H538 C526 0.956 . S
H539 C526 0.961 . S
H540 C526 0.961 . S
H541 C527 0.958 . S
H542 C527 0.961 . S
H543 C527 0.960 . S
C544 C545 1.391 1_556 S
C544 C546 1.394 . S
C544 H560 0.931 . S
C545 C544 1.391 1_554 S
C545 C549 1.376 . S
C546 C544 1.394 . S
C546 C547 1.369 1_556 S
C546 C550 1.531 . S
C547 C546 1.369 1_554 S
C547 C548 1.410 . S
C547 C555 1.503 . S
C548 C547 1.410 . S
C548 C549 1.392 . S
C548 C551 1.511 . S
C549 C545 1.376 . S
C549 C548 1.392 . S
C549 H561 0.929 . S
C550 C546 1.531 . S
C550 H562 0.960 . S
C550 H563 0.962 . S
C550 H564 0.960 . S
C551 C548 1.511 . S
C551 H565 0.961 . S
C551 H566 0.961 . S
C551 H567 0.961 . S
C552 C553 1.367 1_556 S
C552 C554 1.363 1_556 S
C552 H568 0.935 . S
C553 C552 1.367 1_554 S
C553 C557 1.408 . S
C554 C552 1.363 1_554 S
C554 C555 1.370 . S
C554 C558 1.524 1_554 S
C555 C547 1.503 . S
C555 C554 1.370 . S
C555 C556 1.403 . S
C556 C555 1.403 . S
C556 C557 1.404 . S
C556 C559 1.539 . S
C557 C553 1.408 . S
C557 C556 1.404 . S
C557 H569 0.930 . S
C558 C554 1.524 1_556 S
C558 H570 0.956 . S
C558 H571 0.961 1_556 S
C558 H572 0.961 . S
C559 C556 1.539 . S
C559 H573 0.958 1_554 S
C559 H574 0.961 . S
C559 H575 0.960 . S
H560 C544 0.931 . S
H561 C549 0.929 . S
H562 C550 0.960 . S
H563 C550 0.962 . S
H564 C550 0.960 . S
H565 C551 0.961 . S
H566 C551 0.961 . S
H567 C551 0.961 . S
H568 C552 0.935 . S
H569 C557 0.930 . S
H570 C558 0.956 . S
H571 C558 0.961 1_554 S
H572 C558 0.961 . S
H573 C559 0.958 1_556 S
H574 C559 0.961 . S
H575 C559 0.960 . S
C576 C577 1.391 1_556 S
C576 C578 1.394 . S
C576 H592 0.931 . S
C577 C576 1.391 1_554 S
C577 C581 1.376 . S
C578 C576 1.394 . S
C578 C579 1.369 1_556 S
C578 C582 1.531 . S
C579 C578 1.369 1_554 S
C579 C580 1.410 . S
C579 C587 1.503 . S
C580 C579 1.410 . S
C580 C581 1.392 . S
C580 C583 1.511 . S
C581 C577 1.376 . S
C581 C580 1.392 . S
C581 H593 0.929 . S
C582 C578 1.531 . S
C582 H594 0.960 . S
C582 H595 0.962 . S
C582 H596 0.960 . S
C583 C580 1.511 . S
C583 H597 0.961 . S
C583 H598 0.961 . S
C583 H599 0.961 . S
C584 C585 1.370 1_556 S
C584 C586 1.363 . S
C584 H600 0.931 . S
C585 C584 1.370 1_554 S
C585 C589 1.408 . S
C586 C584 1.363 . S
C586 C587 1.370 1_556 S
C586 C590 1.524 . S
C587 C579 1.503 . S
C587 C586 1.370 1_554 S
C587 C588 1.403 . S
C588 C587 1.403 . S
C588 C589 1.404 . S
C588 C591 1.539 . S
C589 C585 1.408 . S
C589 C588 1.404 . S
C589 H601 0.930 . S
C590 C586 1.524 . S
C590 H602 0.956 . S
C590 H603 0.961 . S
C590 H604 0.961 . S
C591 C588 1.539 . S
C591 H605 0.958 . S
C591 H606 0.961 . S
C591 H607 0.960 . S
H592 C576 0.931 . S
H593 C581 0.929 . S
H594 C582 0.960 . S
H595 C582 0.962 . S
H596 C582 0.960 . S
H597 C583 0.961 . S
H598 C583 0.961 . S
H599 C583 0.961 . S
H600 C584 0.931 . S
H601 C589 0.930 . S
H602 C590 0.956 . S
H603 C590 0.961 . S
H604 C590 0.961 . S
H605 C591 0.958 . S
H606 C591 0.961 . S
H607 C591 0.960 . S
C608 C609 1.391 . S
C608 C610 1.394 . S
C608 H624 0.931 . S
C609 C608 1.391 . S
C609 C613 1.376 . S
C610 C608 1.394 . S
C610 C611 1.369 . S
C610 C614 1.531 . S
C611 C610 1.369 . S
C611 C612 1.410 . S
C611 C619 1.503 . S
C612 C611 1.410 . S
C612 C613 1.392 . S
C612 C615 1.511 . S
C613 C609 1.376 . S
C613 C612 1.392 . S
C613 H625 0.929 . S
C614 C610 1.531 . S
C614 H626 0.960 . S
C614 H627 0.962 . S
C614 H628 0.960 . S
C615 C612 1.511 . S
C615 H629 0.961 . S
C615 H630 0.961 . S
C615 H631 0.961 . S
C616 C617 1.370 . S
C616 C618 1.363 . S
C616 H632 0.931 . S
C617 C616 1.370 . S
C617 C621 1.408 . S
C618 C616 1.363 . S
C618 C619 1.370 . S
C618 C622 1.524 . S
C619 C611 1.503 . S
C619 C618 1.370 . S
C619 C620 1.403 . S
C620 C619 1.403 . S
C620 C621 1.404 . S
C620 C623 1.539 . S
C621 C617 1.408 . S
C621 C620 1.404 . S
C621 H633 0.930 . S
C622 C618 1.524 . S
C622 H634 0.956 . S
C622 H635 0.961 . S
C622 H636 0.961 . S
C623 C620 1.539 . S
C623 H637 0.958 . S
C623 H638 0.961 . S
C623 H639 0.960 . S
H624 C608 0.931 . S
H625 C613 0.929 . S
H626 C614 0.960 . S
H627 C614 0.962 . S
H628 C614 0.960 . S
H629 C615 0.961 . S
H630 C615 0.961 . S
H631 C615 0.961 . S
H632 C616 0.931 . S
H633 C621 0.930 . S
H634 C622 0.956 . S
H635 C622 0.961 . S
H636 C622 0.961 . S
H637 C623 0.958 . S
H638 C623 0.961 . S
H639 C623 0.960 . S
C640 C641 1.391 . S
C640 C642 1.394 . S
C640 H656 0.931 . S
C641 C640 1.391 . S
C641 C645 1.376 . S
C642 C640 1.394 . S
C642 C643 1.369 . S
C642 C646 1.531 . S
C643 C642 1.369 . S
C643 C644 1.410 . S
C643 C651 1.503 . S
C644 C643 1.410 . S
C644 C645 1.392 . S
C644 C647 1.511 . S
C645 C641 1.376 . S
C645 C644 1.392 . S
C645 H657 0.929 . S
C646 C642 1.531 . S
C646 H658 0.960 . S
C646 H659 0.962 . S
C646 H660 0.960 . S
C647 C644 1.511 . S
C647 H661 0.961 . S
C647 H662 0.961 . S
C647 H663 0.961 . S
C648 C649 1.370 . S
C648 C650 1.363 . S
C648 H664 0.931 . S
C649 C648 1.370 . S
C649 C653 1.408 . S
C650 C648 1.363 . S
C650 C651 1.370 . S
C650 C654 1.524 . S
C651 C643 1.503 . S
C651 C650 1.370 . S
C651 C652 1.403 . S
C652 C651 1.403 . S
C652 C653 1.404 . S
C652 C655 1.539 . S
C653 C649 1.408 . S
C653 C652 1.404 . S
C653 H665 0.930 . S
C654 C650 1.524 . S
C654 H666 0.956 . S
C654 H667 0.961 . S
C654 H668 0.961 . S
C655 C652 1.539 . S
C655 H669 0.958 . S
C655 H670 0.961 . S
C655 H671 0.960 . S
H656 C640 0.931 . S
H657 C645 0.929 . S
H658 C646 0.960 . S
H659 C646 0.962 . S
H660 C646 0.960 . S
H661 C647 0.961 . S
H662 C647 0.961 . S
H663 C647 0.961 . S
H664 C648 0.931 . S
H665 C653 0.930 . S
H666 C654 0.956 . S
H667 C654 0.961 . S
H668 C654 0.961 . S
H669 C655 0.958 . S
H670 C655 0.961 . S
H671 C655 0.960 . S
C672 C673 1.391 . S
C672 C674 1.394 . S
C672 H688 0.931 . S
C673 C672 1.391 . S
C673 C677 1.376 . S
C674 C672 1.394 . S
C674 C675 1.369 . S
C674 C678 1.531 . S
C675 C674 1.369 . S
C675 C676 1.410 . S
C675 C683 1.503 . S
C676 C675 1.410 . S
C676 C677 1.392 . S
C676 C679 1.511 . S
C677 C673 1.376 . S
C677 C676 1.392 . S
C677 H689 0.929 . S
C678 C674 1.531 . S
C678 H690 0.960 . S
C678 H691 0.962 . S
C678 H692 0.960 . S
C679 C676 1.511 . S
C679 H693 0.961 . S
C679 H694 0.961 . S
C679 H695 0.961 . S
C680 C681 1.370 . S
C680 C682 1.363 . S
C680 H696 0.931 . S
C681 C680 1.370 . S
C681 C685 1.408 . S
C682 C680 1.363 . S
C682 C683 1.370 . S
C682 C686 1.524 . S
C683 C675 1.503 . S
C683 C682 1.370 . S
C683 C684 1.403 . S
C684 C683 1.403 . S
C684 C685 1.404 . S
C684 C687 1.539 . S
C685 C681 1.408 . S
C685 C684 1.404 . S
C685 H697 0.930 . S
C686 C682 1.524 . S
C686 H698 0.956 . S
C686 H699 0.961 . S
C686 H700 0.961 . S
C687 C684 1.539 . S
C687 H701 0.958 . S
C687 H702 0.961 . S
C687 H703 0.960 . S
H688 C672 0.931 . S
H689 C677 0.929 . S
H690 C678 0.960 . S
H691 C678 0.962 . S
H692 C678 0.960 . S
H693 C679 0.961 . S
H694 C679 0.961 . S
H695 C679 0.961 . S
H696 C680 0.931 . S
H697 C685 0.930 . S
H698 C686 0.956 . S
H699 C686 0.961 . S
H700 C686 0.961 . S
H701 C687 0.958 . S
H702 C687 0.961 . S
H703 C687 0.960 . S
C704 C705 1.391 . S
C704 C706 1.394 . S
C704 H720 0.931 . S
C705 C704 1.391 . S
C705 C709 1.376 . S
C706 C704 1.394 . S
C706 C707 1.369 . S
C706 C710 1.531 . S
C707 C706 1.369 . S
C707 C708 1.410 . S
C707 C715 1.503 . S
C708 C707 1.410 . S
C708 C709 1.392 . S
C708 C711 1.511 . S
C709 C705 1.376 . S
C709 C708 1.392 . S
C709 H721 0.929 . S
C710 C706 1.531 . S
C710 H722 0.960 . S
C710 H723 0.962 . S
C710 H724 0.960 . S
C711 C708 1.511 . S
C711 H725 0.961 . S
C711 H726 0.961 . S
C711 H727 0.961 . S
C712 C713 1.370 . S
C712 C714 1.363 . S
C712 H728 0.931 . S
C713 C712 1.370 . S
C713 C717 1.408 . S
C714 C712 1.363 . S
C714 C715 1.370 . S
C714 C718 1.524 . S
C715 C707 1.503 . S
C715 C714 1.370 . S
C715 C716 1.403 . S
C716 C715 1.403 . S
C716 C717 1.404 . S
C716 C719 1.539 . S
C717 C713 1.408 . S
C717 C716 1.404 . S
C717 H729 0.930 . S
C718 C714 1.524 . S
C718 H730 0.956 . S
C718 H731 0.961 . S
C718 H732 0.961 . S
C719 C716 1.539 . S
C719 H733 0.958 . S
C719 H734 0.961 . S
C719 H735 0.960 . S
H720 C704 0.931 . S
H721 C709 0.929 . S
H722 C710 0.960 . S
H723 C710 0.962 . S
H724 C710 0.960 . S
H725 C711 0.961 . S
H726 C711 0.961 . S
H727 C711 0.961 . S
H728 C712 0.931 . S
H729 C717 0.930 . S
H730 C718 0.956 . S
H731 C718 0.961 . S
H732 C718 0.961 . S
H733 C719 0.958 . S
H734 C719 0.961 . S
H735 C719 0.960 . S
C736 C737 1.391 . S
C736 C738 1.394 . S
C736 H752 0.931 . S
C737 C736 1.391 . S
C737 C741 1.376 . S
C738 C736 1.394 . S
C738 C739 1.369 . S
C738 C742 1.531 . S
C739 C738 1.369 . S
C739 C740 1.410 . S
C739 C747 1.503 . S
C740 C739 1.410 . S
C740 C741 1.392 . S
C740 C743 1.511 . S
C741 C737 1.376 . S
C741 C740 1.392 . S
C741 H753 0.929 . S
C742 C738 1.531 . S
C742 H754 0.960 . S
C742 H755 0.962 . S
C742 H756 0.960 . S
C743 C740 1.511 . S
C743 H757 0.961 . S
C743 H758 0.961 . S
C743 H759 0.961 . S
C744 C745 1.370 . S
C744 C746 1.363 . S
C744 H760 0.931 . S
C745 C744 1.370 . S
C745 C749 1.408 . S
C746 C744 1.363 . S
C746 C747 1.370 . S
C746 C750 1.524 . S
C747 C739 1.503 . S
C747 C746 1.370 . S
C747 C748 1.403 . S
C748 C747 1.403 . S
C748 C749 1.404 . S
C748 C751 1.539 . S
C749 C745 1.408 . S
C749 C748 1.404 . S
C749 H761 0.930 . S
C750 C746 1.524 . S
C750 H762 0.956 . S
C750 H763 0.961 . S
C750 H764 0.961 . S
C751 C748 1.539 . S
C751 H765 0.958 . S
C751 H766 0.961 . S
C751 H767 0.960 . S
H752 C736 0.931 . S
H753 C741 0.929 . S
H754 C742 0.960 . S
H755 C742 0.962 . S
H756 C742 0.960 . S
H757 C743 0.961 . S
H758 C743 0.961 . S
H759 C743 0.961 . S
H760 C744 0.931 . S
H761 C749 0.930 . S
H762 C750 0.956 . S
H763 C750 0.961 . S
H764 C750 0.961 . S
H765 C751 0.958 . S
H766 C751 0.961 . S
H767 C751 0.960 . S
C768 C769 1.391 . S
C768 C770 1.394 . S
C768 H784 0.931 . S
C769 C768 1.391 . S
C769 C773 1.376 . S
C770 C768 1.394 . S
C770 C771 1.369 . S
C770 C774 1.531 . S
C771 C770 1.369 . S
C771 C772 1.410 . S
C771 C779 1.503 . S
C772 C771 1.410 . S
C772 C773 1.392 . S
C772 C775 1.511 . S
C773 C769 1.376 . S
C773 C772 1.392 . S
C773 H785 0.929 . S
C774 C770 1.531 . S
C774 H786 0.960 . S
C774 H787 0.962 . S
C774 H788 0.960 . S
C775 C772 1.511 . S
C775 H789 0.961 . S
C775 H790 0.961 . S
C775 H791 0.961 . S
C776 C777 1.370 . S
C776 C778 1.363 . S
C776 H792 0.931 . S
C777 C776 1.370 . S
C777 C781 1.408 . S
C778 C776 1.363 . S
C778 C779 1.370 . S
C778 C782 1.524 . S
C779 C771 1.503 . S
C779 C778 1.370 . S
C779 C780 1.403 . S
C780 C779 1.403 . S
C780 C781 1.404 . S
C780 C783 1.539 . S
C781 C777 1.408 . S
C781 C780 1.404 . S
C781 H793 0.930 . S
C782 C778 1.524 . S
C782 H794 0.956 . S
C782 H795 0.961 . S
C782 H796 0.961 . S
C783 C780 1.539 . S
C783 H797 0.958 . S
C783 H798 0.961 . S
C783 H799 0.960 . S
H784 C768 0.931 . S
H785 C773 0.929 . S
H786 C774 0.960 . S
H787 C774 0.962 . S
H788 C774 0.960 . S
H789 C775 0.961 . S
H790 C775 0.961 . S
H791 C775 0.961 . S
H792 C776 0.931 . S
H793 C781 0.930 . S
H794 C782 0.956 . S
H795 C782 0.961 . S
H796 C782 0.961 . S
H797 C783 0.958 . S
H798 C783 0.961 . S
H799 C783 0.960 . S
C800 C801 1.391 . S
C800 C802 1.394 . S
C800 H816 0.931 . S
C801 C800 1.391 . S
C801 C805 1.376 . S
C802 C800 1.394 . S
C802 C803 1.369 . S
C802 C806 1.531 . S
C803 C802 1.369 . S
C803 C804 1.410 . S
C803 C811 1.503 . S
C804 C803 1.410 . S
C804 C805 1.392 . S
C804 C807 1.511 . S
C805 C801 1.376 . S
C805 C804 1.392 . S
C805 H817 0.929 . S
C806 C802 1.531 . S
C806 H818 0.960 . S
C806 H819 0.962 . S
C806 H820 0.960 . S
C807 C804 1.511 . S
C807 H821 0.961 . S
C807 H822 0.961 . S
C807 H823 0.961 . S
C808 C809 1.370 . S
C808 C810 1.363 . S
C808 H824 0.931 . S
C809 C808 1.370 . S
C809 C813 1.408 . S
C810 C808 1.363 . S
C810 C811 1.370 . S
C810 C814 1.524 . S
C811 C803 1.503 . S
C811 C810 1.370 . S
C811 C812 1.403 . S
C812 C811 1.403 . S
C812 C813 1.404 . S
C812 C815 1.539 . S
C813 C809 1.408 . S
C813 C812 1.404 . S
C813 H825 0.930 . S
C814 C810 1.524 . S
C814 H826 0.956 . S
C814 H827 0.961 . S
C814 H828 0.961 . S
C815 C812 1.539 . S
C815 H829 0.958 . S
C815 H830 0.961 . S
C815 H831 0.960 . S
H816 C800 0.931 . S
H817 C805 0.929 . S
H818 C806 0.960 . S
H819 C806 0.962 . S
H820 C806 0.960 . S
H821 C807 0.961 . S
H822 C807 0.961 . S
H823 C807 0.961 . S
H824 C808 0.931 . S
H825 C813 0.930 . S
H826 C814 0.956 . S
H827 C814 0.961 . S
H828 C814 0.961 . S
H829 C815 0.958 . S
H830 C815 0.961 . S
H831 C815 0.960 . S
C832 C833 1.391 . S
C832 C834 1.394 . S
C832 H848 0.931 . S
C833 C832 1.391 . S
C833 C837 1.376 . S
C834 C832 1.394 . S
C834 C835 1.369 . S
C834 C838 1.531 . S
C835 C834 1.369 . S
C835 C836 1.410 . S
C835 C843 1.503 . S
C836 C835 1.410 . S
C836 C837 1.392 . S
C836 C839 1.511 . S
C837 C833 1.376 . S
C837 C836 1.392 . S
C837 H849 0.929 . S
C838 C834 1.531 . S
C838 H850 0.960 . S
C838 H851 0.962 . S
C838 H852 0.960 . S
C839 C836 1.511 . S
C839 H853 0.961 . S
C839 H854 0.961 . S
C839 H855 0.961 . S
C840 C841 1.370 . S
C840 C842 1.363 . S
C840 H856 0.931 . S
C841 C840 1.370 . S
C841 C845 1.408 . S
C842 C840 1.363 . S
C842 C843 1.370 . S
C842 C846 1.524 . S
C843 C835 1.503 . S
C843 C842 1.370 . S
C843 C844 1.403 . S
C844 C843 1.403 . S
C844 C845 1.404 . S
C844 C847 1.539 . S
C845 C841 1.408 . S
C845 C844 1.404 . S
C845 H857 0.930 . S
C846 C842 1.524 . S
C846 H858 0.956 . S
C846 H859 0.961 . S
C846 H860 0.961 . S
C847 C844 1.539 . S
C847 H861 0.958 . S
C847 H862 0.961 . S
C847 H863 0.960 . S
H848 C832 0.931 . S
H849 C837 0.929 . S
H850 C838 0.960 . S
H851 C838 0.962 . S
H852 C838 0.960 . S
H853 C839 0.961 . S
H854 C839 0.961 . S
H855 C839 0.961 . S
H856 C840 0.931 . S
H857 C845 0.930 . S
H858 C846 0.956 . S
H859 C846 0.961 . S
H860 C846 0.961 . S
H861 C847 0.958 . S
H862 C847 0.961 . S
H863 C847 0.960 . S
C864 C865 1.391 . S
C864 C866 1.394 . S
C864 H880 0.931 . S
C865 C864 1.391 . S
C865 C869 1.376 . S
C866 C864 1.394 . S
C866 C867 1.369 . S
C866 C870 1.531 . S
C867 C866 1.369 . S
C867 C868 1.410 . S
C867 C875 1.503 . S
C868 C867 1.410 . S
C868 C869 1.392 . S
C868 C871 1.511 . S
C869 C865 1.376 . S
C869 C868 1.392 . S
C869 H881 0.929 . S
C870 C866 1.531 . S
C870 H882 0.960 . S
C870 H883 0.962 . S
C870 H884 0.960 . S
C871 C868 1.511 . S
C871 H885 0.961 . S
C871 H886 0.961 . S
C871 H887 0.961 . S
C872 C873 1.370 . S
C872 C874 1.363 . S
C872 H888 0.931 . S
C873 C872 1.370 . S
C873 C877 1.408 . S
C874 C872 1.363 . S
C874 C875 1.370 . S
C874 C878 1.524 . S
C875 C867 1.503 . S
C875 C874 1.370 . S
C875 C876 1.403 . S
C876 C875 1.403 . S
C876 C877 1.404 . S
C876 C879 1.539 . S
C877 C873 1.408 . S
C877 C876 1.404 . S
C877 H889 0.930 . S
C878 C874 1.524 . S
C878 H890 0.956 . S
C878 H891 0.961 . S
C878 H892 0.961 . S
C879 C876 1.539 . S
C879 H893 0.958 . S
C879 H894 0.961 . S
C879 H895 0.960 . S
H880 C864 0.931 . S
H881 C869 0.929 . S
H882 C870 0.960 . S
H883 C870 0.962 . S
H884 C870 0.960 . S
H885 C871 0.961 . S
H886 C871 0.961 . S
H887 C871 0.961 . S
H888 C872 0.931 . S
H889 C877 0.930 . S
H890 C878 0.956 . S
H891 C878 0.961 . S
H892 C878 0.961 . S
H893 C879 0.958 . S
H894 C879 0.961 . S
H895 C879 0.960 . S
C896 C897 1.391 . S
C896 C898 1.394 . S
C896 H912 0.931 . S
C897 C896 1.391 . S
C897 C901 1.376 . S
C898 C896 1.394 . S
C898 C899 1.369 . S
C898 C902 1.531 . S
C899 C898 1.369 . S
C899 C900 1.410 . S
C899 C907 1.503 . S
C900 C899 1.410 . S
C900 C901 1.392 . S
C900 C903 1.511 . S
C901 C897 1.376 . S
C901 C900 1.392 . S
C901 H913 0.929 . S
C902 C898 1.531 . S
C902 H914 0.960 . S
C902 H915 0.962 . S
C902 H916 0.960 . S
C903 C900 1.511 . S
C903 H917 0.961 . S
C903 H918 0.961 . S
C903 H919 0.961 . S
C904 C905 1.370 . S
C904 C906 1.363 . S
C904 H920 0.931 . S
C905 C904 1.370 . S
C905 C909 1.408 . S
C906 C904 1.363 . S
C906 C907 1.370 . S
C906 C910 1.524 . S
C907 C899 1.503 . S
C907 C906 1.370 . S
C907 C908 1.403 . S
C908 C907 1.403 . S
C908 C909 1.404 . S
C908 C911 1.539 . S
C909 C905 1.408 . S
C909 C908 1.404 . S
C909 H921 0.930 . S
C910 C906 1.524 . S
C910 H922 0.956 . S
C910 H923 0.961 . S
C910 H924 0.961 . S
C911 C908 1.539 . S
C911 H925 0.958 . S
C911 H926 0.961 . S
C911 H927 0.960 . S
H912 C896 0.931 . S
H913 C901 0.929 . S
H914 C902 0.960 . S
H915 C902 0.962 . S
H916 C902 0.960 . S
H917 C903 0.961 . S
H918 C903 0.961 . S
H919 C903 0.961 . S
H920 C904 0.931 . S
H921 C909 0.930 . S
H922 C910 0.956 . S
H923 C910 0.961 . S
H924 C910 0.961 . S
H925 C911 0.958 . S
H926 C911 0.961 . S
H927 C911 0.960 . S
C928 C929 1.391 . S
C928 C930 1.394 . S
C928 H944 0.931 . S
C929 C928 1.391 . S
C929 C933 1.376 . S
C930 C928 1.394 . S
C930 C931 1.369 . S
C930 C934 1.531 . S
C931 C930 1.369 . S
C931 C932 1.410 . S
C931 C939 1.503 . S
C932 C931 1.410 . S
C932 C933 1.392 . S
C932 C935 1.511 . S
C933 C929 1.376 . S
C933 C932 1.392 . S
C933 H945 0.929 . S
C934 C930 1.531 . S
C934 H946 0.960 . S
C934 H947 0.962 . S
C934 H948 0.960 . S
C935 C932 1.511 . S
C935 H949 0.961 . S
C935 H950 0.961 . S
C935 H951 0.961 . S
C936 C937 1.370 . S
C936 C938 1.363 . S
C936 H952 0.931 . S
C937 C936 1.370 . S
C937 C941 1.408 . S
C938 C936 1.363 . S
C938 C939 1.370 . S
C938 C942 1.524 . S
C939 C931 1.503 . S
C939 C938 1.370 . S
C939 C940 1.403 . S
C940 C939 1.403 . S
C940 C941 1.404 . S
C940 C943 1.539 . S
C941 C937 1.408 . S
C941 C940 1.404 . S
C941 H953 0.930 . S
C942 C938 1.524 . S
C942 H954 0.956 . S
C942 H955 0.961 . S
C942 H956 0.961 . S
C943 C940 1.539 . S
C943 H957 0.958 . S
C943 H958 0.961 . S
C943 H959 0.960 . S
H944 C928 0.931 . S
H945 C933 0.929 . S
H946 C934 0.960 . S
H947 C934 0.962 . S
H948 C934 0.960 . S
H949 C935 0.961 . S
H950 C935 0.961 . S
H951 C935 0.961 . S
H952 C936 0.931 . S
H953 C941 0.930 . S
H954 C942 0.956 . S
H955 C942 0.961 . S
H956 C942 0.961 . S
H957 C943 0.958 . S
H958 C943 0.961 . S
H959 C943 0.960 . S
C960 C961 1.391 . S
C960 C962 1.394 . S
C960 H976 0.931 . S
C961 C960 1.391 . S
C961 C965 1.376 . S
C962 C960 1.394 . S
C962 C963 1.369 . S
C962 C966 1.531 . S
C963 C962 1.369 . S
C963 C964 1.410 . S
C963 C971 1.503 . S
C964 C963 1.410 . S
C964 C965 1.392 . S
C964 C967 1.511 . S
C965 C961 1.376 . S
C965 C964 1.392 . S
C965 H977 0.929 . S
C966 C962 1.531 . S
C966 H978 0.960 . S
C966 H979 0.962 . S
C966 H980 0.960 . S
C967 C964 1.511 . S
C967 H981 0.961 . S
C967 H982 0.961 . S
C967 H983 0.961 . S
C968 C969 1.370 . S
C968 C970 1.363 . S
C968 H984 0.931 . S
C969 C968 1.370 . S
C969 C973 1.408 . S
C970 C968 1.363 . S
C970 C971 1.370 . S
C970 C974 1.524 . S
C971 C963 1.503 . S
C971 C970 1.370 . S
C971 C972 1.403 . S
C972 C971 1.403 . S
C972 C973 1.404 . S
C972 C975 1.539 . S
C973 C969 1.408 . S
C973 C972 1.404 . S
C973 H985 0.930 . S
C974 C970 1.524 . S
C974 H986 0.956 . S
C974 H987 0.961 . S
C974 H988 0.961 . S
C975 C972 1.539 . S
C975 H989 0.958 . S
C975 H990 0.961 . S
C975 H991 0.960 . S
H976 C960 0.931 . S
H977 C965 0.929 . S
H978 C966 0.960 . S
H979 C966 0.962 . S
H980 C966 0.960 . S
H981 C967 0.961 . S
H982 C967 0.961 . S
H983 C967 0.961 . S
H984 C968 0.931 . S
H985 C973 0.930 . S
H986 C974 0.956 . S
H987 C974 0.961 . S
H988 C974 0.961 . S
H989 C975 0.958 . S
H990 C975 0.961 . S
H991 C975 0.960 . S
C992 C993 1.391 . S
C992 C994 1.394 . S
C992 H1008 0.931 . S
C993 C992 1.391 . S
C993 C997 1.376 . S
C994 C992 1.394 . S
C994 C995 1.369 . S
C994 C998 1.531 . S
C995 C994 1.369 . S
C995 C996 1.410 . S
C995 C1003 1.503 . S
C996 C995 1.410 . S
C996 C997 1.392 . S
C996 C999 1.511 . S
C997 C993 1.376 . S
C997 C996 1.392 . S
C997 H1009 0.929 . S
C998 C994 1.531 . S
C998 H1010 0.960 . S
C998 H1011 0.962 . S
C998 H1012 0.960 . S
C999 C996 1.511 . S
C999 H1013 0.961 . S
C999 H1014 0.961 . S
C999 H1015 0.961 . S
C1000 C1001 1.370 . S
C1000 C1002 1.363 . S
C1000 H1016 0.931 . S
C1001 C1000 1.370 . S
C1001 C1005 1.408 . S
C1002 C1000 1.363 . S
C1002 C1003 1.370 . S
C1002 C1006 1.524 . S
C1003 C995 1.503 . S
C1003 C1002 1.370 . S
C1003 C1004 1.403 . S
C1004 C1003 1.403 . S
C1004 C1005 1.404 . S
C1004 C1007 1.539 . S
C1005 C1001 1.408 . S
C1005 C1004 1.404 . S
C1005 H1017 0.930 . S
C1006 C1002 1.524 . S
C1006 H1018 0.956 . S
C1006 H1019 0.961 . S
C1006 H1020 0.961 . S
C1007 C1004 1.539 . S
C1007 H1021 0.958 . S
C1007 H1022 0.961 . S
C1007 H1023 0.960 . S
H1008 C992 0.931 . S
H1009 C997 0.929 . S
H1010 C998 0.960 . S
H1011 C998 0.962 . S
H1012 C998 0.960 . S
H1013 C999 0.961 . S
H1014 C999 0.961 . S
H1015 C999 0.961 . S
H1016 C1000 0.931 . S
H1017 C1005 0.930 . S
H1018 C1006 0.956 . S
H1019 C1006 0.961 . S
H1020 C1006 0.961 . S
H1021 C1007 0.958 . S
H1022 C1007 0.961 . S
H1023 C1007 0.960 . S
C1024 C1025 1.391 . S
C1024 C1026 1.394 . S
C1024 H1040 0.931 . S
C1025 C1024 1.391 . S
C1025 C1029 1.376 . S
C1026 C1024 1.394 . S
C1026 C1027 1.369 . S
C1026 C1030 1.531 . S
C1027 C1026 1.369 . S
C1027 C1028 1.410 . S
C1027 C1035 1.503 . S
C1028 C1027 1.410 . S
C1028 C1029 1.392 . S
C1028 C1031 1.511 . S
C1029 C1025 1.376 . S
C1029 C1028 1.392 . S
C1029 H1041 0.929 . S
C1030 C1026 1.531 . S
C1030 H1042 0.960 . S
C1030 H1043 0.962 . S
C1030 H1044 0.960 . S
C1031 C1028 1.511 . S
C1031 H1045 0.961 . S
C1031 H1046 0.961 . S
C1031 H1047 0.961 . S
C1032 C1033 1.370 . S
C1032 C1034 1.363 . S
C1032 H1048 0.931 . S
C1033 C1032 1.370 . S
C1033 C1037 1.408 . S
C1034 C1032 1.363 . S
C1034 C1035 1.370 . S
C1034 C1038 1.524 . S
C1035 C1027 1.503 . S
C1035 C1034 1.370 . S
C1035 C1036 1.403 . S
C1036 C1035 1.403 . S
C1036 C1037 1.404 . S
C1036 C1039 1.539 . S
C1037 C1033 1.408 . S
C1037 C1036 1.404 . S
C1037 H1049 0.930 . S
C1038 C1034 1.524 . S
C1038 H1050 0.956 . S
C1038 H1051 0.961 . S
C1038 H1052 0.961 . S
C1039 C1036 1.539 . S
C1039 H1053 0.958 . S
C1039 H1054 0.961 . S
C1039 H1055 0.960 . S
H1040 C1024 0.931 . S
H1041 C1029 0.929 . S
H1042 C1030 0.960 . S
H1043 C1030 0.962 . S
H1044 C1030 0.960 . S
H1045 C1031 0.961 . S
H1046 C1031 0.961 . S
H1047 C1031 0.961 . S
H1048 C1032 0.931 . S
H1049 C1037 0.930 . S
H1050 C1038 0.956 . S
H1051 C1038 0.961 . S
H1052 C1038 0.961 . S
H1053 C1039 0.958 . S
H1054 C1039 0.961 . S
H1055 C1039 0.960 . S
C1056 C1057 1.391 . S
C1056 C1058 1.394 . S
C1056 H1072 0.931 . S
C1057 C1056 1.391 . S
C1057 C1061 1.376 . S
C1058 C1056 1.394 . S
C1058 C1059 1.369 . S
C1058 C1062 1.531 . S
C1059 C1058 1.369 . S
C1059 C1060 1.410 . S
C1059 C1067 1.503 . S
C1060 C1059 1.410 . S
C1060 C1061 1.392 . S
C1060 C1063 1.511 . S
C1061 C1057 1.376 . S
C1061 C1060 1.392 . S
C1061 H1073 0.929 . S
C1062 C1058 1.531 . S
C1062 H1074 0.960 . S
C1062 H1075 0.962 . S
C1062 H1076 0.960 . S
C1063 C1060 1.511 . S
C1063 H1077 0.961 . S
C1063 H1078 0.961 . S
C1063 H1079 0.961 . S
C1064 C1065 1.370 . S
C1064 C1066 1.363 . S
C1064 H1080 0.931 . S
C1065 C1064 1.370 . S
C1065 C1069 1.408 . S
C1066 C1064 1.363 . S
C1066 C1067 1.370 . S
C1066 C1070 1.524 . S
C1067 C1059 1.503 . S
C1067 C1066 1.370 . S
C1067 C1068 1.403 . S
C1068 C1067 1.403 . S
C1068 C1069 1.404 . S
C1068 C1071 1.539 . S
C1069 C1065 1.408 . S
C1069 C1068 1.404 . S
C1069 H1081 0.930 . S
C1070 C1066 1.524 . S
C1070 H1082 0.956 . S
C1070 H1083 0.961 . S
C1070 H1084 0.961 . S
C1071 C1068 1.539 . S
C1071 H1085 0.958 . S
C1071 H1086 0.961 . S
C1071 H1087 0.960 . S
H1072 C1056 0.931 . S
H1073 C1061 0.929 . S
H1074 C1062 0.960 . S
H1075 C1062 0.962 . S
H1076 C1062 0.960 . S
H1077 C1063 0.961 . S
H1078 C1063 0.961 . S
H1079 C1063 0.961 . S
H1080 C1064 0.931 . S
H1081 C1069 0.930 . S
H1082 C1070 0.956 . S
H1083 C1070 0.961 . S
H1084 C1070 0.961 . S
H1085 C1071 0.958 . S
H1086 C1071 0.961 . S
H1087 C1071 0.960 . S
C1088 C1089 1.391 . S
C1088 C1090 1.394 . S
C1088 H1104 0.931 . S
C1089 C1088 1.391 . S
C1089 C1093 1.376 . S
C1090 C1088 1.394 . S
C1090 C1091 1.369 . S
C1090 C1094 1.531 . S
C1091 C1090 1.369 . S
C1091 C1092 1.410 . S
C1091 C1099 1.503 . S
C1092 C1091 1.410 . S
C1092 C1093 1.392 . S
C1092 C1095 1.511 . S
C1093 C1089 1.376 . S
C1093 C1092 1.392 . S
C1093 H1105 0.929 . S
C1094 C1090 1.531 . S
C1094 H1106 0.960 . S
C1094 H1107 0.962 . S
C1094 H1108 0.960 . S
C1095 C1092 1.511 . S
C1095 H1109 0.961 . S
C1095 H1110 0.961 . S
C1095 H1111 0.961 . S
C1096 C1097 1.370 . S
C1096 C1098 1.363 . S
C1096 H1112 0.931 . S
C1097 C1096 1.370 . S
C1097 C1101 1.408 . S
C1098 C1096 1.363 . S
C1098 C1099 1.370 . S
C1098 C1102 1.524 . S
C1099 C1091 1.503 . S
C1099 C1098 1.370 . S
C1099 C1100 1.403 . S
C1100 C1099 1.403 . S
C1100 C1101 1.404 . S
C1100 C1103 1.539 . S
C1101 C1097 1.408 . S
C1101 C1100 1.404 . S
C1101 H1113 0.930 . S
C1102 C1098 1.524 . S
C1102 H1114 0.956 . S
C1102 H1115 0.961 . S
C1102 H1116 0.961 . S
C1103 C1100 1.539 . S
C1103 H1117 0.958 . S
C1103 H1118 0.961 . S
C1103 H1119 0.960 . S
H1104 C1088 0.931 . S
H1105 C1093 0.929 . S
H1106 C1094 0.960 . S
H1107 C1094 0.962 . S
H1108 C1094 0.960 . S
H1109 C1095 0.961 . S
H1110 C1095 0.961 . S
H1111 C1095 0.961 . S
H1112 C1096 0.931 . S
H1113 C1101 0.930 . S
H1114 C1102 0.956 . S
H1115 C1102 0.961 . S
H1116 C1102 0.961 . S
H1117 C1103 0.958 . S
H1118 C1103 0.961 . S
H1119 C1103 0.960 . S
C1120 C1121 1.391 . S
C1120 C1122 1.394 . S
C1120 H1136 0.931 . S
C1121 C1120 1.391 . S
C1121 C1125 1.376 . S
C1122 C1120 1.394 . S
C1122 C1123 1.369 . S
C1122 C1126 1.531 . S
C1123 C1122 1.369 . S
C1123 C1124 1.410 . S
C1123 C1131 1.503 . S
C1124 C1123 1.410 . S
C1124 C1125 1.392 . S
C1124 C1127 1.511 . S
C1125 C1121 1.376 . S
C1125 C1124 1.392 . S
C1125 H1137 0.929 . S
C1126 C1122 1.531 . S
C1126 H1138 0.960 . S
C1126 H1139 0.962 . S
C1126 H1140 0.960 . S
C1127 C1124 1.511 . S
C1127 H1141 0.961 . S
C1127 H1142 0.961 . S
C1127 H1143 0.961 . S
C1128 C1129 1.370 . S
C1128 C1130 1.363 . S
C1128 H1144 0.931 . S
C1129 C1128 1.370 . S
C1129 C1133 1.408 . S
C1130 C1128 1.363 . S
C1130 C1131 1.370 . S
C1130 C1134 1.524 . S
C1131 C1123 1.503 . S
C1131 C1130 1.370 . S
C1131 C1132 1.403 . S
C1132 C1131 1.403 . S
C1132 C1133 1.404 . S
C1132 C1135 1.539 . S
C1133 C1129 1.408 . S
C1133 C1132 1.404 . S
C1133 H1145 0.930 . S
C1134 C1130 1.524 . S
C1134 H1146 0.956 . S
C1134 H1147 0.961 . S
C1134 H1148 0.961 . S
C1135 C1132 1.539 . S
C1135 H1149 0.958 . S
C1135 H1150 0.961 . S
C1135 H1151 0.960 . S
H1136 C1120 0.931 . S
H1137 C1125 0.929 . S
H1138 C1126 0.960 . S
H1139 C1126 0.962 . S
H1140 C1126 0.960 . S
H1141 C1127 0.961 . S
H1142 C1127 0.961 . S
H1143 C1127 0.961 . S
H1144 C1128 0.931 . S
H1145 C1133 0.930 . S
H1146 C1134 0.956 . S
H1147 C1134 0.961 . S
H1148 C1134 0.961 . S
H1149 C1135 0.958 . S
H1150 C1135 0.961 . S
H1151 C1135 0.960 . S
C1152 C1153 1.391 . S
C1152 C1154 1.394 . S
C1152 H1168 0.931 . S
C1153 C1152 1.391 . S
C1153 C1157 1.376 . S
C1154 C1152 1.394 . S
C1154 C1155 1.369 . S
C1154 C1158 1.531 . S
C1155 C1154 1.369 . S
C1155 C1156 1.410 . S
C1155 C1163 1.503 . S
C1156 C1155 1.410 . S
C1156 C1157 1.392 . S
C1156 C1159 1.511 . S
C1157 C1153 1.376 . S
C1157 C1156 1.392 . S
C1157 H1169 0.929 . S
C1158 C1154 1.531 . S
C1158 H1170 0.960 . S
C1158 H1171 0.962 . S
C1158 H1172 0.960 . S
C1159 C1156 1.511 . S
C1159 H1173 0.961 . S
C1159 H1174 0.961 . S
C1159 H1175 0.961 . S
C1160 C1161 1.370 . S
C1160 C1162 1.363 . S
C1160 H1176 0.931 . S
C1161 C1160 1.370 . S
C1161 C1165 1.408 . S
C1162 C1160 1.363 . S
C1162 C1163 1.370 . S
C1162 C1166 1.524 . S
C1163 C1155 1.503 . S
C1163 C1162 1.370 . S
C1163 C1164 1.403 . S
C1164 C1163 1.403 . S
C1164 C1165 1.404 . S
C1164 C1167 1.539 . S
C1165 C1161 1.408 . S
C1165 C1164 1.404 . S
C1165 H1177 0.930 . S
C1166 C1162 1.524 . S
C1166 H1178 0.956 . S
C1166 H1179 0.961 . S
C1166 H1180 0.961 . S
C1167 C1164 1.539 . S
C1167 H1181 0.958 . S
C1167 H1182 0.961 . S
C1167 H1183 0.960 . S
H1168 C1152 0.931 . S
H1169 C1157 0.929 . S
H1170 C1158 0.960 . S
H1171 C1158 0.962 . S
H1172 C1158 0.960 . S
H1173 C1159 0.961 . S
H1174 C1159 0.961 . S
H1175 C1159 0.961 . S
H1176 C1160 0.931 . S
H1177 C1165 0.930 . S
H1178 C1166 0.956 . S
H1179 C1166 0.961 . S
H1180 C1166 0.961 . S
H1181 C1167 0.958 . S
H1182 C1167 0.961 . S
H1183 C1167 0.960 . S
C1184 C1185 1.391 . S
C1184 C1186 1.394 . S
C1184 H1200 0.931 . S
C1185 C1184 1.391 . S
C1185 C1189 1.376 . S
C1186 C1184 1.394 . S
C1186 C1187 1.369 . S
C1186 C1190 1.531 . S
C1187 C1186 1.369 . S
C1187 C1188 1.410 . S
C1187 C1195 1.503 . S
C1188 C1187 1.410 . S
C1188 C1189 1.392 . S
C1188 C1191 1.511 . S
C1189 C1185 1.376 . S
C1189 C1188 1.392 . S
C1189 H1201 0.929 . S
C1190 C1186 1.531 . S
C1190 H1202 0.960 . S
C1190 H1203 0.962 . S
C1190 H1204 0.960 . S
C1191 C1188 1.511 . S
C1191 H1205 0.961 . S
C1191 H1206 0.961 . S
C1191 H1207 0.961 . S
C1192 C1193 1.370 . S
C1192 C1194 1.363 . S
C1192 H1208 0.931 . S
C1193 C1192 1.370 . S
C1193 C1197 1.408 . S
C1194 C1192 1.363 . S
C1194 C1195 1.370 . S
C1194 C1198 1.524 . S
C1195 C1187 1.503 . S
C1195 C1194 1.370 . S
C1195 C1196 1.403 . S
C1196 C1195 1.403 . S
C1196 C1197 1.404 . S
C1196 C1199 1.539 . S
C1197 C1193 1.408 . S
C1197 C1196 1.404 . S
C1197 H1209 0.930 . S
C1198 C1194 1.524 . S
C1198 H1210 0.956 . S
C1198 H1211 0.961 . S
C1198 H1212 0.961 . S
C1199 C1196 1.539 . S
C1199 H1213 0.958 . S
C1199 H1214 0.961 . S
C1199 H1215 0.960 . S
H1200 C1184 0.931 . S
H1201 C1189 0.929 . S
H1202 C1190 0.960 . S
H1203 C1190 0.962 . S
H1204 C1190 0.960 . S
H1205 C1191 0.961 . S
H1206 C1191 0.961 . S
H1207 C1191 0.961 . S
H1208 C1192 0.931 . S
H1209 C1197 0.930 . S
H1210 C1198 0.956 . S
H1211 C1198 0.961 . S
H1212 C1198 0.961 . S
H1213 C1199 0.958 . S
H1214 C1199 0.961 . S
H1215 C1199 0.960 . S
C1216 C1217 1.391 . S
C1216 C1218 1.394 . S
C1216 H1232 0.931 . S
C1217 C1216 1.391 . S
C1217 C1221 1.376 . S
C1218 C1216 1.394 . S
C1218 C1219 1.369 . S
C1218 C1222 1.531 . S
C1219 C1218 1.369 . S
C1219 C1220 1.410 . S
C1219 C1227 1.503 . S
C1220 C1219 1.410 . S
C1220 C1221 1.392 . S
C1220 C1223 1.511 . S
C1221 C1217 1.376 . S
C1221 C1220 1.392 . S
C1221 H1233 0.929 . S
C1222 C1218 1.531 . S
C1222 H1234 0.960 . S
C1222 H1235 0.962 . S
C1222 H1236 0.960 . S
C1223 C1220 1.511 . S
C1223 H1237 0.961 . S
C1223 H1238 0.961 . S
C1223 H1239 0.961 . S
C1224 C1225 1.370 . S
C1224 C1226 1.363 . S
C1224 H1240 0.931 . S
C1225 C1224 1.370 . S
C1225 C1229 1.408 . S
C1226 C1224 1.363 . S
C1226 C1227 1.370 . S
C1226 C1230 1.524 . S
C1227 C1219 1.503 . S
C1227 C1226 1.370 . S
C1227 C1228 1.403 . S
C1228 C1227 1.403 . S
C1228 C1229 1.404 . S
C1228 C1231 1.539 . S
C1229 C1225 1.408 . S
C1229 C1228 1.404 . S
C1229 H1241 0.930 . S
C1230 C1226 1.524 . S
C1230 H1242 0.956 . S
C1230 H1243 0.961 . S
C1230 H1244 0.961 . S
C1231 C1228 1.539 . S
C1231 H1245 0.958 . S
C1231 H1246 0.961 . S
C1231 H1247 0.960 . S
H1232 C1216 0.931 . S
H1233 C1221 0.929 . S
H1234 C1222 0.960 . S
H1235 C1222 0.962 . S
H1236 C1222 0.960 . S
H1237 C1223 0.961 . S
H1238 C1223 0.961 . S
H1239 C1223 0.961 . S
H1240 C1224 0.931 . S
H1241 C1229 0.930 . S
H1242 C1230 0.956 . S
H1243 C1230 0.961 . S
H1244 C1230 0.961 . S
H1245 C1231 0.958 . S
H1246 C1231 0.961 . S
H1247 C1231 0.960 . S
C225 C67 1.400 . S
C233 C11 1.404 . S
C257 C81 1.395 . S
C265 C25 1.402 . S
C289 C95 1.396 . S
C297 C39 1.403 . S
C321 C109 1.408 . S
C329 C53 1.408 . S
C353 C179 1.406 . S
C361 C123 1.406 . S
C385 C193 1.396 . S
C393 C137 1.402 . S
C417 C151 1.396 . S
C425 C207 1.404 . S
C449 C221 1.407 . S
C457 C165 1.408 . S
C481 C5 1.460 . S
C489 C75 1.466 . S
C513 C89 1.459 . S
C521 C19 1.465 . S
C545 C33 1.470 . S
C553 C103 1.470 . S
C577 C61 1.461 . S
C585 C47 1.466 . S
C609 C187 1.459 . S
C617 C117 1.465 . S
C641 C201 1.462 . S
C649 C131 1.466 . S
C673 C145 1.470 . S
C681 C215 1.470 . S
C705 C159 1.459 . S
C713 C173 1.465 . S
C737 C219 1.428 . S
C745 C9 1.450 . S
C769 C177 1.440 . S
C777 C23 1.442 . S
C801 C191 1.427 . S
C809 C37 1.449 . S
C833 C205 1.442 . S
C841 C51 1.447 . S
C865 C135 1.431 . S
C873 C65 1.450 . S
C897 C149 1.447 . S
C905 C79 1.446 . S
C929 C93 1.446 . S
C937 C163 1.446 . S
C961 C107 1.454 . S
C969 C121 1.439 . S
C993 C182 1.372 . S
C1001 C28 1.371 . S
C1025 C196 1.349 . S
C1033 C42 1.363 . S
C1057 C210 1.347 . S
C1065 C0 1.361 . S
C1089 C14 1.353 . S
C1097 C168 1.359 . S
C1121 C154 1.376 . S
C1129 C84 1.371 . S
C1153 C98 1.346 . S
C1161 C112 1.360 . S
C1185 C126 1.375 . S
C1193 C56 1.368 . S
C1217 C140 1.367 . S
C1225 C70 1.363 . S
