# Generated by pormake.
# Topology unf, (4)-cn, num edge types: 1
# Building blocks:
#     Node 0, Type 0, BuildingBlock: QUQFOY_clean_sbu_3, # of connection points: 4
#     Node 1, Type 0, BuildingBlock: QUQFOY_clean_sbu_3, # of connection points: 4
#     Node 2, Type 0, BuildingBlock: QUQFOY_clean_sbu_3, # of connection points: 4
#     Node 3, Type 0, BuildingBlock: QUQFOY_clean_sbu_3, # of connection points: 4
#     Node 4, Type 0, BuildingBlock: QUQFOY_clean_sbu_3, # of connection points: 4
#     Node 5, Type 0, BuildingBlock: QUQFOY_clean_sbu_3, # of connection points: 4
#     Node 6, Type 0, BuildingBlock: QUQFOY_clean_sbu_3, # of connection points: 4
#     Node 7, Type 0, BuildingBlock: QUQFOY_clean_sbu_3, # of connection points: 4
#     Node 8, Type 0, BuildingBlock: QUQFOY_clean_sbu_3, # of connection points: 4
#     Node 9, Type 0, BuildingBlock: QUQFOY_clean_sbu_3, # of connection points: 4
#     Node 10, Type 0, BuildingBlock: QUQFOY_clean_sbu_3, # of connection points: 4
#     Node 11, Type 0, BuildingBlock: QUQFOY_clean_sbu_3, # of connection points: 4
#     Edge 12, Type (0, 0), BuildingBlock: OJICUG_clean_linker_0, # of connection points: 2
#     Edge 13, Type (0, 0), BuildingBlock: OJICUG_clean_linker_0, # of connection points: 2
#     Edge 14, Type (0, 0), BuildingBlock: OJICUG_clean_linker_0, # of connection points: 2
#     Edge 15, Type (0, 0), BuildingBlock: OJICUG_clean_linker_0, # of connection points: 2
#     Edge 16, Type (0, 0), BuildingBlock: OJICUG_clean_linker_0, # of connection points: 2
#     Edge 17, Type (0, 0), BuildingBlock: OJICUG_clean_linker_0, # of connection points: 2
#     Edge 18, Type (0, 0), BuildingBlock: OJICUG_clean_linker_0, # of connection points: 2
#     Edge 19, Type (0, 0), BuildingBlock: OJICUG_clean_linker_0, # of connection points: 2
#     Edge 20, Type (0, 0), BuildingBlock: OJICUG_clean_linker_0, # of connection points: 2
#     Edge 21, Type (0, 0), BuildingBlock: OJICUG_clean_linker_0, # of connection points: 2
#     Edge 22, Type (0, 0), BuildingBlock: OJICUG_clean_linker_0, # of connection points: 2
#     Edge 23, Type (0, 0), BuildingBlock: OJICUG_clean_linker_0, # of connection points: 2
#     Edge 24, Type (0, 0), BuildingBlock: OJICUG_clean_linker_0, # of connection points: 2
#     Edge 25, Type (0, 0), BuildingBlock: OJICUG_clean_linker_0, # of connection points: 2
#     Edge 26, Type (0, 0), BuildingBlock: OJICUG_clean_linker_0, # of connection points: 2
#     Edge 27, Type (0, 0), BuildingBlock: OJICUG_clean_linker_0, # of connection points: 2
#     Edge 28, Type (0, 0), BuildingBlock: OJICUG_clean_linker_0, # of connection points: 2
#     Edge 29, Type (0, 0), BuildingBlock: OJICUG_clean_linker_0, # of connection points: 2
#     Edge 30, Type (0, 0), BuildingBlock: OJICUG_clean_linker_0, # of connection points: 2
#     Edge 31, Type (0, 0), BuildingBlock: OJICUG_clean_linker_0, # of connection points: 2
#     Edge 32, Type (0, 0), BuildingBlock: OJICUG_clean_linker_0, # of connection points: 2
#     Edge 33, Type (0, 0), BuildingBlock: OJICUG_clean_linker_0, # of connection points: 2
#     Edge 34, Type (0, 0), BuildingBlock: OJICUG_clean_linker_0, # of connection points: 2
#     Edge 35, Type (0, 0), BuildingBlock: OJICUG_clean_linker_0, # of connection points: 2
# Relax obj value: 0.221
# Max RMSD: 0.170
# Mean RMSD: 0.170
data_MOF--net-unf--node1-QUQFOY_clean_sbu_3--edge1-OJICUG_clean_linker_0
_symmetry_space_group_name_H-M    P1
_symmetry_Int_Tables_number       1
_symmetry_cell_setting            triclinic
loop_
_symmetry_equiv_pos_as_xyz
'x, y, z'
_cell_length_a     29.801533
_cell_length_b     29.644306
_cell_length_c     29.359847
_cell_angle_alpha  90.373444
_cell_angle_beta   89.734116
_cell_angle_gamma 119.82954
loop_
_atom_site_label
_atom_site_type_symbol
_atom_site_fract_x
_atom_site_fract_y
_atom_site_fract_z
_atom_type_partial_charge
C0 C 0.02735 0.43957 -0.01942 0.0
O1 O 0.04223 0.42513 0.94565 0.0
Cd2 Cd 0.07288 0.36445 0.94771 0.0
O3 O 0.03716 0.42997 0.02041 0.0
Cd4 Cd 0.07915 0.38316 0.05191 0.0
C5 C -0.02955 0.28363 0.01433 0.0
O6 O 0.14197 0.38289 -0.00223 0.0
O7 O 0.09525 0.31329 0.03718 0.0
O8 O 0.13953 0.44167 0.11113 0.0
C9 C 0.13388 0.33879 0.01135 0.0
O10 O -0.00477 0.28987 0.97725 0.0
C11 C 0.11989 0.40664 0.14156 0.0
O12 O -0.01007 0.31545 0.04737 0.0
O13 O 0.07907 0.3648 0.13106 0.0
C14 C 0.47112 0.56561 -0.0014 0.0
O15 O 0.46758 0.58875 0.96377 0.0
Cd16 Cd 0.52402 0.67931 0.95304 0.0
O17 O 0.49608 0.59159 0.03349 0.0
Cd18 Cd 0.54593 0.68495 0.05438 0.0
C19 C 0.62832 0.67026 -0.01012 0.0
O20 O 0.52023 0.73608 0.00817 0.0
O21 O 0.60234 0.76766 0.02 0.0
O22 O 0.49978 0.68739 0.12287 0.0
C23 C 0.5658 0.77485 0.00721 0.0
O24 O 0.60608 0.68011 0.95759 0.0
C25 C 0.54037 0.71131 0.14704 0.0
O26 O 0.61256 0.66603 0.03085 0.0
O27 O 0.58236 0.71815 0.12942 0.0
C28 C 0.34473 0.88105 -0.01378 0.0
O29 O 0.31952 0.85776 0.95066 0.0
Cd30 Cd 0.22745 0.82286 0.94652 0.0
O31 O 0.32152 0.875 0.02408 0.0
Cd32 Cd 0.23345 0.82958 0.05437 0.0
C33 C 0.24419 0.9328 0.00086 0.0
O34 O 0.17253 0.76312 0.00208 0.0
O35 O 0.14873 0.81193 0.0383 0.0
O36 O 0.2335 0.77436 0.11704 0.0
C37 C 0.13678 0.77308 0.01258 0.0
O38 O 0.22993 0.90382 0.96549 0.0
C39 C 0.21881 0.79624 0.14631 0.0
O40 O 0.25268 0.91743 0.0386 0.0
O41 O 0.21666 0.83593 0.13332 0.0
C42 C 0.4727 0.89165 0.46387 0.0
O43 O 0.46931 0.86551 0.49905 0.0
Cd44 Cd 0.52536 0.83097 0.50991 0.0
O45 O 0.49736 0.88996 0.42895 0.0
Cd46 Cd 0.54685 0.84592 0.40868 0.0
C47 C 0.62995 0.94351 0.47204 0.0
O48 O 0.52076 0.76936 0.45546 0.0
O49 O 0.60295 0.8196 0.44347 0.0
O50 O 0.50042 0.79685 0.34058 0.0
C51 C 0.56626 0.77597 0.45637 0.0
O52 O 0.6078 0.91182 0.50466 0.0
C53 C 0.54095 0.81303 0.31629 0.0
O54 O 0.61387 0.9316 0.43123 0.0
O55 O 0.58308 0.84811 0.33365 0.0
C56 C 0.02931 0.57387 0.47765 0.0
O57 O 0.04463 0.60331 0.51245 0.0
Cd58 Cd 0.07534 0.69469 0.51029 0.0
O59 O 0.03864 0.59316 0.43774 0.0
Cd60 Cd 0.08027 0.68182 0.40571 0.0
C61 C -0.02792 0.67292 0.44509 0.0
O62 O 0.14371 0.74502 0.45924 0.0
O63 O 0.09704 0.76807 0.42011 0.0
O64 O 0.13969 0.68336 0.34547 0.0
C65 C 0.1357 0.7811 0.44574 0.0
O66 O -0.00274 0.69148 0.48193 0.0
C67 C 0.11928 0.69814 0.3153 0.0
O68 O -0.00876 0.66064 0.4117 0.0
O69 O 0.07856 0.69908 0.3265 0.0
C70 C 0.3462 0.44885 0.46955 0.0
O71 O 0.32066 0.44646 0.50509 0.0
Cd72 Cd 0.22848 0.38997 0.50925 0.0
O73 O 0.32338 0.43224 0.43151 0.0
Cd74 Cd 0.23551 0.38984 0.40103 0.0
C75 C 0.2449 0.29661 0.4548 0.0
O76 O 0.17466 0.39563 0.45331 0.0
O77 O 0.15035 0.32319 0.4167 0.0
O78 O 0.23576 0.44526 0.33846 0.0
C79 C 0.13868 0.3501 0.44271 0.0
O80 O 0.23043 0.31127 0.49011 0.0
C81 C 0.22159 0.40892 0.30907 0.0
O82 O 0.25395 0.32072 0.41712 0.0
O83 O 0.2197 0.36716 0.32198 0.0
C84 C 0.86764 0.4936 0.95614 0.0
O85 O 0.84496 0.49832 -0.00893 0.0
Cd86 Cd 0.81363 0.55868 -0.00432 0.0
O87 O 0.86559 0.5131 0.91823 0.0
Cd88 Cd 0.829 0.56512 0.88808 0.0
C89 C 0.92866 0.65106 0.94989 0.0
O90 O 0.75811 0.55498 0.93672 0.0
O91 O 0.80584 0.62986 0.90458 0.0
O92 O 0.77909 0.51177 0.82293 0.0
C93 C 0.76585 0.60024 0.92759 0.0
O94 O 0.89694 0.6356 -0.01682 0.0
C95 C 0.80166 0.54875 0.79457 0.0
O96 O 0.91565 0.62994 0.91066 0.0
O97 O 0.83964 0.59085 0.80928 0.0
C98 C 0.42433 0.35281 0.97698 0.0
O99 O 0.42016 0.32669 0.01243 0.0
Cd100 Cd 0.35775 0.23589 0.01636 0.0
O101 O 0.40473 0.32982 0.93941 0.0
Cd102 Cd 0.35431 0.24057 0.90963 0.0
C103 C 0.26705 0.2579 0.96515 0.0
O104 O 0.36207 0.17997 0.96061 0.0
O105 O 0.28761 0.15576 0.9293 0.0
O106 O 0.4066 0.23918 0.8446 0.0
C107 C 0.31623 0.14382 0.95202 0.0
O108 O 0.28181 0.24337 3e-05 0.0
C109 C 0.36917 0.22326 0.81663 0.0
O110 O 0.2892 0.2641 0.92667 0.0
O111 O 0.32769 0.22052 0.83125 0.0
C112 C 0.54767 0.06063 0.96557 0.0
O113 O 0.56691 0.09231 -0.00141 0.0
Cd114 Cd 0.64731 0.09917 0.01872 0.0
O115 O 0.57761 0.0564 0.93706 0.0
Cd116 Cd 0.67135 0.09826 0.92263 0.0
C117 C 0.62675 -0.01506 0.96756 0.0
O118 O 0.72528 0.16084 -0.01844 0.0
O119 O 0.74485 0.10302 0.95842 0.0
O120 O 0.684 0.15964 0.86104 0.0
C121 C 0.75796 0.14503 -0.02017 0.0
O122 O 0.62621 0.00983 0.00288 0.0
C123 C 0.70671 0.14275 0.83503 0.0
O124 O 0.64307 0.00749 0.92947 0.0
O125 O 0.70923 0.10348 0.84865 0.0
C126 C 0.42577 0.05781 0.48289 0.0
O127 O 0.42234 0.07981 0.44719 0.0
Cd128 Cd 0.35981 0.10794 0.44196 0.0
O129 O 0.40535 0.06107 0.52006 0.0
Cd130 Cd 0.35436 0.0997 0.54877 0.0
C131 C 0.26838 -0.00502 0.49273 0.0
O132 O 0.36259 0.16785 0.49729 0.0
O133 O 0.28777 0.11752 0.52821 0.0
O134 O 0.40645 0.15366 0.61358 0.0
C135 C 0.31656 0.15797 0.50534 0.0
O136 O 0.28381 0.02436 0.45787 0.0
C137 C 0.36889 0.13251 0.64156 0.0
O138 O 0.28971 0.01088 0.53148 0.0
O139 O 0.32732 0.09385 0.62708 0.0
C140 C 0.87011 0.36005 0.50361 0.0
O141 O 0.84675 0.33269 0.46893 0.0
Cd142 Cd 0.81566 0.24107 0.4641 0.0
O143 O 0.86873 0.33845 0.54134 0.0
Cd144 Cd 0.83231 0.24967 0.57137 0.0
C145 C 0.93134 0.2638 0.50821 0.0
O146 O 0.76092 0.18885 0.52341 0.0
O147 O 0.80933 0.16192 0.55448 0.0
O148 O 0.78256 0.25296 0.63678 0.0
C149 C 0.76894 0.15143 0.53214 0.0
O150 O 0.89921 0.24772 0.47532 0.0
C151 C 0.80486 0.23813 0.66497 0.0
O152 O 0.91882 0.27167 0.54779 0.0
O153 O 0.84281 0.23397 0.65013 0.0
C154 C 0.54879 0.47171 0.49081 0.0
O155 O 0.56875 0.46052 0.45747 0.0
Cd156 Cd 0.6495 0.5348 0.43928 0.0
O157 O 0.57808 0.50484 0.52022 0.0
Cd158 Cd 0.67145 0.55663 0.53616 0.0
C159 C 0.62738 0.62641 0.49261 0.0
O160 O 0.72646 0.54961 0.47725 0.0
O161 O 0.7457 0.62638 0.50188 0.0
O162 O 0.68327 0.507 0.59751 0.0
C163 C 0.75917 0.59803 0.47999 0.0
O164 O 0.62769 0.60226 0.45669 0.0
C165 C 0.70533 0.54628 0.62389 0.0
O166 O 0.64298 0.61899 0.53054 0.0
O167 O 0.7078 0.58811 0.61053 0.0
C168 C 0.15999 0.27177 0.01839 0.0
C169 C 0.16497 0.31568 -0.00416 0.0
H170 H 0.18833 0.21873 0.02585 0.0
C171 C 0.20024 0.3372 0.95968 0.0
H172 H 0.13294 0.25419 0.04629 0.0
C173 C 0.23136 0.31608 0.94739 0.0
C174 C 0.22808 0.27384 0.97168 0.0
H175 H 0.20446 0.37081 0.94155 0.0
H176 H 0.25977 0.33444 0.92058 0.0
C177 C 0.19152 0.25131 0.00665 0.0
C178 C 0.62275 0.85663 0.9661 0.0
C179 C 0.57692 0.82567 -0.00955 0.0
H180 H 0.67386 0.932 0.93841 0.0
C181 C 0.545 0.84588 0.00306 0.0
H182 H 0.64776 0.84146 0.95603 0.0
C183 C 0.5607 0.8978 -0.00574 0.0
C184 C 0.60753 0.92928 0.97149 0.0
H185 H 0.50967 0.82255 0.02208 0.0
H186 H 0.53695 0.91375 0.00616 0.0
C187 C 0.63759 0.90806 0.95598 0.0
C188 C 0.07317 0.71023 0.95614 0.0
C189 C 0.0846 0.74468 -0.00705 0.0
H190 H 0.01403 0.65424 0.91233 0.0
C191 C 0.04535 0.75231 0.01158 0.0
H192 H 0.10291 0.70413 0.9409 0.0
C193 C -0.00498 0.72408 -0.00461 0.0
C194 C -0.01697 0.68817 0.95984 0.0
H195 H 0.05308 0.77889 0.03981 0.0
H196 H -0.03494 0.72901 0.01176 0.0
C197 C 0.02263 0.68237 0.93941 0.0
C198 C 0.63758 0.71356 0.50625 0.0
C199 C 0.60795 0.66275 0.48962 0.0
H200 H 0.64739 0.79018 0.50789 0.0
C201 C 0.56134 0.64783 0.46676 0.0
H202 H 0.67365 0.72553 0.52393 0.0
C203 C 0.54552 0.68412 0.4589 0.0
C204 C 0.57709 0.7359 0.47256 0.0
H205 H 0.53791 0.60846 0.45403 0.0
H206 H 0.51043 0.67253 0.4397 0.0
C207 C 0.62264 0.75026 0.49706 0.0
C208 C 0.20165 0.84881 0.4977 0.0
C209 C 0.1668 0.83526 0.46132 0.0
H210 H 0.26066 0.9109 0.53723 0.0
C211 C 0.16212 0.87432 0.43871 0.0
H212 H 0.20563 0.81932 0.51588 0.0
C213 C 0.19349 0.92626 0.45066 0.0
C214 C 0.22958 0.94009 0.48592 0.0
H215 H 0.13541 0.865 0.41063 0.0
H216 H 0.19053 0.95575 0.43144 0.0
C217 C 0.2326 0.901 0.51022 0.0
C218 C 0.02547 0.32634 0.51768 0.0
C219 C -0.01443 0.28111 0.49741 0.0
H220 H 0.10575 0.38479 0.51545 0.0
C221 C -0.00294 0.25746 0.46126 0.0
H222 H 0.01725 0.34567 0.54523 0.0
C223 C 0.04717 0.27966 0.44436 0.0
C224 C 0.0867 0.32635 0.4629 0.0
H225 H -0.03313 0.2227 0.44498 0.0
H226 H 0.05451 0.26101 0.4157 0.0
C227 C 0.07578 0.3491 0.50027 0.0
C228 C 0.6702 0.61643 0.00085 0.0
C229 C 0.66814 0.65685 0.978 0.0
H230 H 0.70213 0.56562 0.00195 0.0
C231 C 0.69978 0.67968 0.93989 0.0
H232 H 0.64551 0.59775 0.02997 0.0
C233 C 0.7323 0.66175 0.92425 0.0
C234 C 0.73281 0.61988 0.94582 0.0
H235 H 0.69858 0.71071 0.92162 0.0
H236 H 0.75588 0.67966 0.89438 0.0
C237 C 0.70195 0.59763 -0.01547 0.0
C238 C 0.24852 0.05081 0.95146 0.0
C239 C 0.29535 0.09066 0.9692 0.0
H240 H 0.1953 -0.03087 0.94821 0.0
C241 C 0.32196 0.07869 0.00195 0.0
H242 H 0.227 0.05894 0.92633 0.0
C243 C 0.30298 0.02714 0.01524 0.0
C244 C 0.25778 -0.01285 -0.00472 0.0
H245 H 0.35792 0.10883 0.01638 0.0
H246 H 0.32526 0.01826 0.03893 0.0
C247 C 0.23016 -0.00053 0.96408 0.0
C248 C 0.9003 0.19594 -0.00668 0.0
C249 C 0.91595 0.24332 0.01558 0.0
H250 H 0.83754 0.12695 0.96563 0.0
C251 C 0.87861 0.25519 0.03187 0.0
H252 H 0.92861 0.18615 -0.01941 0.0
C253 C 0.8263 0.2219 0.02234 0.0
C254 C 0.811 0.1761 -0.0028 0.0
H255 H 0.89012 0.29193 0.04881 0.0
H256 H 0.79831 0.23317 0.03268 0.0
C257 C 0.84819 0.16228 -0.01532 0.0
C258 C 0.32283 0.22873 0.45492 0.0
C259 C 0.29572 0.19 0.48751 0.0
H260 H 0.32664 0.29255 0.41769 0.0
C261 C 0.24843 0.18269 0.50452 0.0
H262 H 0.35915 0.23479 0.44103 0.0
C263 C 0.23014 0.21558 0.49143 0.0
C264 C 0.25831 0.25574 0.4605 0.0
H265 H 0.2265 0.15292 0.52949 0.0
H266 H 0.19494 0.21087 0.50682 0.0
C267 C 0.30395 0.26121 0.44117 0.0
C268 C 0.70416 0.08979 0.47614 0.0
C269 C 0.73554 0.09863 0.51442 0.0
H270 H 0.64694 0.03295 0.43155 0.0
C271 C 0.73514 0.05635 0.53609 0.0
H272 H 0.70423 0.12189 0.45865 0.0
C273 C 0.70222 0.00579 0.521 0.0
C274 C 0.67008 -0.00324 0.48331 0.0
H275 H 0.75912 0.06221 0.56564 0.0
H276 H 0.70111 -0.02635 0.53935 0.0
C277 C 0.67202 0.03912 0.46033 0.0
C278 C 0.88025 0.61005 0.42711 0.0
C279 C 0.91753 0.65865 0.44448 0.0
H280 H 0.79992 0.55193 0.42538 0.0
C281 C 0.90177 0.68959 0.46803 0.0
H282 H 0.89181 0.58541 0.40914 0.0
C283 C 0.8496 0.6709 0.47675 0.0
C284 C 0.81244 0.62042 0.46297 0.0
H285 H 0.93001 0.72723 0.48159 0.0
H286 H 0.83884 0.69492 0.49673 0.0
C287 C 0.82788 0.59077 0.4367 0.0
C288 C 0.16771 0.3641 0.24161 0.0
C289 C 0.2001 0.41103 0.26432 0.0
H290 H 0.11625 0.32627 0.18631 0.0
C291 C 0.2066 0.45776 0.24611 0.0
H292 H 0.1614 0.32732 0.25476 0.0
C293 C 0.1809 0.45718 0.20585 0.0
C294 C 0.14711 0.40971 0.18437 0.0
H295 H 0.23109 0.49449 0.26311 0.0
H296 H 0.18661 0.49348 0.19209 0.0
C297 C 0.14114 0.3634 0.2026 0.0
C298 C 0.49316 0.72553 0.21177 0.0
C299 C 0.53993 0.73524 0.19142 0.0
H300 H 0.45667 0.74275 0.26706 0.0
C301 C 0.58677 0.77172 0.21185 0.0
H302 H 0.45641 0.69798 0.19665 0.0
C303 C 0.58692 0.79813 0.2515 0.0
C304 C 0.54024 0.78831 0.27204 0.0
H305 H 0.62351 0.7806 0.19681 0.0
H306 H 0.62377 0.82574 0.26644 0.0
C307 C 0.49331 0.75154 0.25185 0.0
C308 C 0.16342 0.78572 0.21313 0.0
C309 C 0.19725 0.77257 0.19109 0.0
H310 H 0.11153 0.77141 0.26835 0.0
C311 C 0.20552 0.73384 0.21015 0.0
H312 H 0.15567 0.81494 0.19925 0.0
C313 C 0.1804 0.70907 0.25078 0.0
C314 C 0.14543 0.72152 0.27181 0.0
H315 H 0.23114 0.72268 0.19365 0.0
H316 H 0.18765 0.6798 0.26529 0.0
C317 C 0.13744 0.76015 0.25253 0.0
C318 C 0.7409 0.49895 0.73042 0.0
C319 C 0.78035 0.54607 0.7486 0.0
H320 H 0.68618 0.46181 0.67615 0.0
C321 C 0.79559 0.59236 0.72467 0.0
H322 H 0.72818 0.4627 0.74825 0.0
C323 C 0.77072 0.59199 0.6845 0.0
C324 C 0.73068 0.54522 0.66667 0.0
H325 H 0.82557 0.62938 0.73781 0.0
H326 H 0.783 0.62857 0.66734 0.0
C327 C 0.71666 0.49846 0.68941 0.0
C328 C 0.41772 0.21349 0.7501 0.0
C329 C 0.37082 0.20248 0.77105 0.0
H330 H 0.45419 0.20024 0.69211 0.0
C331 C 0.32409 0.16767 0.74956 0.0
H332 H 0.45432 0.23988 0.76608 0.0
C333 C 0.324 0.14395 0.70843 0.0
C334 C 0.37064 0.15518 0.68704 0.0
H335 H 0.28725 0.15778 0.765 0.0
H336 H 0.28711 0.11742 0.69294 0.0
C337 C 0.41764 0.19056 0.70803 0.0
C338 C 0.71906 0.20266 0.76986 0.0
C339 C 0.73253 0.16939 0.79237 0.0
H340 H 0.73146 0.25078 0.71144 0.0
C341 C 0.77251 0.1625 0.77449 0.0
H342 H 0.68866 0.20898 0.78315 0.0
C343 C 0.79784 0.1874 0.73449 0.0
C344 C 0.78317 0.21903 0.71083 0.0
H345 H 0.78435 0.13777 0.79145 0.0
H346 H 0.82774 0.18023 0.72128 0.0
C347 C 0.74378 0.22682 0.72907 0.0
C348 C -0.04019 0.45789 0.01204 0.0
C349 C -0.01081 0.45723 0.9747 0.0
H350 H 0.89721 0.46781 0.03535 0.0
C351 C -0.02366 0.466 0.93087 0.0
H352 H -0.03204 0.45036 0.04619 0.0
C353 C 0.93519 0.47526 0.92454 0.0
C354 C 0.90575 0.47583 0.96188 0.0
H355 H -0.00232 0.46507 0.90125 0.0
H356 H 0.92698 0.48273 0.89039 0.0
C357 C 0.91849 0.46687 0.00569 0.0
C358 C 0.46589 0.48461 0.03014 0.0
C359 C 0.45603 0.51002 -0.00543 0.0
H360 H 0.46514 0.41552 0.05221 0.0
C361 C 0.43854 0.48415 0.95256 0.0
H362 H 0.48019 0.50369 0.06272 0.0
C363 C 0.43129 0.43432 0.94616 0.0
C364 C 0.44074 0.40866 -0.01825 0.0
H365 H 0.43124 0.5027 0.92413 0.0
H366 H 0.417 0.41547 0.9135 0.0
C367 C 0.45818 0.43441 0.02385 0.0
C368 C 0.41853 0.96385 0.01553 0.0
C369 C 0.39803 0.92526 -0.01859 0.0
H370 H 0.48033 0.03789 0.03642 0.0
C371 C 0.42549 0.93379 0.94038 0.0
H372 H 0.39791 0.95929 0.04718 0.0
C373 C 0.4728 -0.02055 0.934 0.0
C374 C 0.49343 0.01781 0.96834 0.0
H375 H 0.41033 0.90534 0.91308 0.0
H376 H 0.49375 -0.01585 0.90252 0.0
C377 C 0.46537 0.00966 0.00894 0.0
C378 C 0.44017 0.94116 0.50912 0.0
C379 C 0.45769 0.93225 0.46731 0.0
H380 H 0.41852 -0.01123 0.54739 0.0
C381 C 0.46762 0.96706 0.4313 0.0
H382 H 0.43283 0.91568 0.53786 0.0
C383 C 0.45989 0.00961 0.43695 0.0
C384 C 0.44232 0.01841 0.47882 0.0
H385 H 0.48195 0.96186 0.39886 0.0
H386 H 0.46687 0.03507 0.40826 0.0
C387 C 0.43286 -0.0162 0.51487 0.0
C388 C 0.93821 0.446 0.53455 0.0
C389 C 0.90813 0.41594 0.49758 0.0
H390 H 0.00106 0.51876 0.55715 0.0
C391 C 0.92008 0.43763 0.4537 0.0
H392 H 0.93062 0.43033 0.56873 0.0
C393 C -0.03875 0.48795 0.44692 0.0
C394 C -0.00873 0.51804 0.48388 0.0
H395 H 0.89829 0.4154 0.4243 0.0
H396 H -0.03122 0.50361 0.41273 0.0
C397 C -0.02079 0.49645 0.52779 0.0
C398 C 0.42058 0.44081 0.44002 0.0
C399 C 0.39945 0.45789 0.47448 0.0
H400 H 0.48277 0.4292 0.41895 0.0
C401 C 0.42619 0.47564 0.5159 0.0
H402 H 0.40052 0.42568 0.40803 0.0
C403 C 0.47335 0.47707 0.52237 0.0
C404 C 0.4946 0.46033 0.48771 0.0
H405 H 0.41055 0.48814 0.54345 0.0
H406 H 0.49371 0.49238 0.5542 0.0
C407 C 0.4673 0.44166 0.44667 0.0
loop_
_geom_bond_atom_site_label_1
_geom_bond_atom_site_label_2
_geom_bond_distance
_geom_bond_site_symmetry_2
_ccdc_geom_bond_type
C0 O1 1.306 . S
C0 O3 1.160 . S
O1 C0 1.306 . S
O1 Cd2 2.228 1_554 S
Cd2 O1 2.228 1_556 S
Cd2 O6 2.273 1_556 S
Cd2 O10 2.277 1_556 S
O3 C0 1.160 . S
O3 Cd4 2.203 . S
Cd4 O3 2.203 . S
Cd4 O6 2.411 . S
Cd4 O7 2.333 . S
Cd4 O8 2.352 . S
Cd4 O12 2.277 1_455 S
Cd4 O13 2.356 . S
C5 O10 1.209 1_655 S
C5 O12 1.226 . S
O6 Cd2 2.273 1_554 S
O6 Cd4 2.411 . S
O6 C9 1.320 . S
O7 Cd4 2.333 . S
O7 C9 1.214 . S
O8 Cd4 2.352 . S
O8 C11 1.258 . S
C9 O6 1.320 . S
C9 O7 1.214 . S
O10 Cd2 2.277 1_554 S
O10 C5 1.209 1_455 S
C11 O8 1.258 . S
C11 O13 1.282 . S
O12 Cd4 2.277 1_655 S
O12 C5 1.226 . S
O13 Cd4 2.356 . S
O13 C11 1.282 . S
C14 O15 1.306 . S
C14 O17 1.160 . S
O15 C14 1.306 . S
O15 Cd16 2.228 1_554 S
Cd16 O15 2.228 1_556 S
Cd16 O20 2.273 1_556 S
Cd16 O24 2.277 1_556 S
O17 C14 1.160 . S
O17 Cd18 2.203 . S
Cd18 O17 2.203 . S
Cd18 O20 2.411 . S
Cd18 O21 2.333 . S
Cd18 O22 2.352 . S
Cd18 O26 2.277 . S
Cd18 O27 2.356 . S
C19 O24 1.209 . S
C19 O26 1.226 . S
O20 Cd16 2.273 1_554 S
O20 Cd18 2.411 . S
O20 C23 1.320 . S
O21 Cd18 2.333 . S
O21 C23 1.214 . S
O22 Cd18 2.352 . S
O22 C25 1.258 . S
C23 O20 1.320 . S
C23 O21 1.214 . S
O24 Cd16 2.277 1_554 S
O24 C19 1.209 . S
C25 O22 1.258 . S
C25 O27 1.282 . S
O26 Cd18 2.277 . S
O26 C19 1.226 . S
O27 Cd18 2.356 . S
O27 C25 1.282 . S
C28 O29 1.306 . S
C28 O31 1.160 . S
O29 C28 1.306 . S
O29 Cd30 2.228 1_554 S
Cd30 O29 2.228 1_556 S
Cd30 O34 2.273 1_556 S
Cd30 O38 2.277 1_556 S
O31 C28 1.160 . S
O31 Cd32 2.203 . S
Cd32 O31 2.203 . S
Cd32 O34 2.411 . S
Cd32 O35 2.333 . S
Cd32 O36 2.352 . S
Cd32 O40 2.277 1_565 S
Cd32 O41 2.356 . S
C33 O38 1.209 1_545 S
C33 O40 1.226 . S
O34 Cd30 2.273 1_554 S
O34 Cd32 2.411 . S
O34 C37 1.320 . S
O35 Cd32 2.333 . S
O35 C37 1.214 . S
O36 Cd32 2.352 . S
O36 C39 1.258 . S
C37 O34 1.320 . S
C37 O35 1.214 . S
O38 Cd30 2.277 1_554 S
O38 C33 1.209 1_565 S
C39 O36 1.258 . S
C39 O41 1.282 . S
O40 Cd32 2.277 1_545 S
O40 C33 1.226 . S
O41 Cd32 2.356 . S
O41 C39 1.282 . S
C42 O43 1.306 . S
C42 O45 1.160 . S
O43 C42 1.306 . S
O43 Cd44 2.228 . S
Cd44 O43 2.228 . S
Cd44 O48 2.273 . S
Cd44 O52 2.277 . S
O45 C42 1.160 . S
O45 Cd46 2.203 . S
Cd46 O45 2.203 . S
Cd46 O48 2.411 . S
Cd46 O49 2.333 . S
Cd46 O50 2.352 . S
Cd46 O54 2.277 1_565 S
Cd46 O55 2.356 . S
C47 O52 1.209 1_545 S
C47 O54 1.226 . S
O48 Cd44 2.273 . S
O48 Cd46 2.411 . S
O48 C51 1.320 . S
O49 Cd46 2.333 . S
O49 C51 1.214 . S
O50 Cd46 2.352 . S
O50 C53 1.258 . S
C51 O48 1.320 . S
C51 O49 1.214 . S
O52 Cd44 2.277 . S
O52 C47 1.209 1_565 S
C53 O50 1.258 . S
C53 O55 1.282 . S
O54 Cd46 2.277 1_545 S
O54 C47 1.226 . S
O55 Cd46 2.356 . S
O55 C53 1.282 . S
C56 O57 1.306 . S
C56 O59 1.160 . S
O57 C56 1.306 . S
O57 Cd58 2.228 . S
Cd58 O57 2.228 . S
Cd58 O62 2.273 . S
Cd58 O66 2.277 . S
O59 C56 1.160 . S
O59 Cd60 2.203 . S
Cd60 O59 2.203 . S
Cd60 O62 2.411 . S
Cd60 O63 2.333 . S
Cd60 O64 2.352 . S
Cd60 O68 2.277 1_455 S
Cd60 O69 2.356 . S
C61 O66 1.209 1_655 S
C61 O68 1.226 . S
O62 Cd58 2.273 . S
O62 Cd60 2.411 . S
O62 C65 1.320 . S
O63 Cd60 2.333 . S
O63 C65 1.214 . S
O64 Cd60 2.352 . S
O64 C67 1.258 . S
C65 O62 1.320 . S
C65 O63 1.214 . S
O66 Cd58 2.277 . S
O66 C61 1.209 1_455 S
C67 O64 1.258 . S
C67 O69 1.282 . S
O68 Cd60 2.277 1_655 S
O68 C61 1.226 . S
O69 Cd60 2.356 . S
O69 C67 1.282 . S
C70 O71 1.306 . S
C70 O73 1.160 . S
O71 C70 1.306 . S
O71 Cd72 2.228 . S
Cd72 O71 2.228 . S
Cd72 O76 2.273 . S
Cd72 O80 2.277 . S
O73 C70 1.160 . S
O73 Cd74 2.203 . S
Cd74 O73 2.203 . S
Cd74 O76 2.411 . S
Cd74 O77 2.333 . S
Cd74 O78 2.352 . S
Cd74 O82 2.277 . S
Cd74 O83 2.356 . S
C75 O80 1.209 . S
C75 O82 1.226 . S
O76 Cd72 2.273 . S
O76 Cd74 2.411 . S
O76 C79 1.320 . S
O77 Cd74 2.333 . S
O77 C79 1.214 . S
O78 Cd74 2.352 . S
O78 C81 1.258 . S
C79 O76 1.320 . S
C79 O77 1.214 . S
O80 Cd72 2.277 . S
O80 C75 1.209 . S
C81 O78 1.258 . S
C81 O83 1.282 . S
O82 Cd74 2.277 . S
O82 C75 1.226 . S
O83 Cd74 2.356 . S
O83 C81 1.282 . S
C84 O85 1.306 . S
C84 O87 1.160 . S
O85 C84 1.306 . S
O85 Cd86 2.228 1_556 S
Cd86 O85 2.228 1_554 S
Cd86 O90 2.273 1_554 S
Cd86 O94 2.277 1_554 S
O87 C84 1.160 . S
O87 Cd88 2.203 . S
Cd88 O87 2.203 . S
Cd88 O90 2.411 . S
Cd88 O91 2.333 . S
Cd88 O92 2.352 . S
Cd88 O96 2.277 1_655 S
Cd88 O97 2.356 . S
C89 O94 1.209 1_455 S
C89 O96 1.226 . S
O90 Cd86 2.273 1_556 S
O90 Cd88 2.411 . S
O90 C93 1.320 . S
O91 Cd88 2.333 . S
O91 C93 1.214 . S
O92 Cd88 2.352 . S
O92 C95 1.258 . S
C93 O90 1.320 . S
C93 O91 1.214 . S
O94 Cd86 2.277 1_556 S
O94 C89 1.209 1_655 S
C95 O92 1.258 . S
C95 O97 1.282 . S
O96 Cd88 2.277 1_455 S
O96 C89 1.226 . S
O97 Cd88 2.356 . S
O97 C95 1.282 . S
C98 O99 1.306 . S
C98 O101 1.160 . S
O99 C98 1.306 . S
O99 Cd100 2.228 1_556 S
Cd100 O99 2.228 1_554 S
Cd100 O104 2.273 1_554 S
Cd100 O108 2.277 1_554 S
O101 C98 1.160 . S
O101 Cd102 2.203 . S
Cd102 O101 2.203 . S
Cd102 O104 2.411 . S
Cd102 O105 2.333 . S
Cd102 O106 2.352 . S
Cd102 O110 2.277 . S
Cd102 O111 2.356 . S
C103 O108 1.209 . S
C103 O110 1.226 . S
O104 Cd100 2.273 1_556 S
O104 Cd102 2.411 . S
O104 C107 1.320 . S
O105 Cd102 2.333 . S
O105 C107 1.214 . S
O106 Cd102 2.352 . S
O106 C109 1.258 . S
C107 O104 1.320 . S
C107 O105 1.214 . S
O108 Cd100 2.277 1_556 S
O108 C103 1.209 . S
C109 O106 1.258 . S
C109 O111 1.282 . S
O110 Cd102 2.277 . S
O110 C103 1.226 . S
O111 Cd102 2.356 . S
O111 C109 1.282 . S
C112 O113 1.306 . S
C112 O115 1.160 . S
O113 C112 1.306 . S
O113 Cd114 2.228 1_556 S
Cd114 O113 2.228 1_554 S
Cd114 O118 2.273 1_554 S
Cd114 O122 2.277 1_554 S
O115 C112 1.160 . S
O115 Cd116 2.203 . S
Cd116 O115 2.203 . S
Cd116 O118 2.411 . S
Cd116 O119 2.333 . S
Cd116 O120 2.352 . S
Cd116 O124 2.277 1_545 S
Cd116 O125 2.356 . S
C117 O122 1.209 1_565 S
C117 O124 1.226 . S
O118 Cd114 2.273 1_556 S
O118 Cd116 2.411 . S
O118 C121 1.320 . S
O119 Cd116 2.333 . S
O119 C121 1.214 . S
O120 Cd116 2.352 . S
O120 C123 1.258 . S
C121 O118 1.320 . S
C121 O119 1.214 . S
O122 Cd114 2.277 1_556 S
O122 C117 1.209 1_545 S
C123 O120 1.258 . S
C123 O125 1.282 . S
O124 Cd116 2.277 1_565 S
O124 C117 1.226 . S
O125 Cd116 2.356 . S
O125 C123 1.282 . S
C126 O127 1.306 . S
C126 O129 1.160 . S
O127 C126 1.306 . S
O127 Cd128 2.228 . S
Cd128 O127 2.228 . S
Cd128 O132 2.273 . S
Cd128 O136 2.277 . S
O129 C126 1.160 . S
O129 Cd130 2.203 . S
Cd130 O129 2.203 . S
Cd130 O132 2.411 . S
Cd130 O133 2.333 . S
Cd130 O134 2.352 . S
Cd130 O138 2.277 1_545 S
Cd130 O139 2.356 . S
C131 O136 1.209 1_565 S
C131 O138 1.226 . S
O132 Cd128 2.273 . S
O132 Cd130 2.411 . S
O132 C135 1.320 . S
O133 Cd130 2.333 . S
O133 C135 1.214 . S
O134 Cd130 2.352 . S
O134 C137 1.258 . S
C135 O132 1.320 . S
C135 O133 1.214 . S
O136 Cd128 2.277 . S
O136 C131 1.209 1_545 S
C137 O134 1.258 . S
C137 O139 1.282 . S
O138 Cd130 2.277 1_565 S
O138 C131 1.226 . S
O139 Cd130 2.356 . S
O139 C137 1.282 . S
C140 O141 1.306 . S
C140 O143 1.160 . S
O141 C140 1.306 . S
O141 Cd142 2.228 . S
Cd142 O141 2.228 . S
Cd142 O146 2.273 . S
Cd142 O150 2.277 . S
O143 C140 1.160 . S
O143 Cd144 2.203 . S
Cd144 O143 2.203 . S
Cd144 O146 2.411 . S
Cd144 O147 2.333 . S
Cd144 O148 2.352 . S
Cd144 O152 2.277 1_655 S
Cd144 O153 2.356 . S
C145 O150 1.209 1_455 S
C145 O152 1.226 . S
O146 Cd142 2.273 . S
O146 Cd144 2.411 . S
O146 C149 1.320 . S
O147 Cd144 2.333 . S
O147 C149 1.214 . S
O148 Cd144 2.352 . S
O148 C151 1.258 . S
C149 O146 1.320 . S
C149 O147 1.214 . S
O150 Cd142 2.277 . S
O150 C145 1.209 1_655 S
C151 O148 1.258 . S
C151 O153 1.282 . S
O152 Cd144 2.277 1_455 S
O152 C145 1.226 . S
O153 Cd144 2.356 . S
O153 C151 1.282 . S
C154 O155 1.306 . S
C154 O157 1.160 . S
O155 C154 1.306 . S
O155 Cd156 2.228 . S
Cd156 O155 2.228 . S
Cd156 O160 2.273 . S
Cd156 O164 2.277 . S
O157 C154 1.160 . S
O157 Cd158 2.203 . S
Cd158 O157 2.203 . S
Cd158 O160 2.411 . S
Cd158 O161 2.333 . S
Cd158 O162 2.352 . S
Cd158 O166 2.277 . S
Cd158 O167 2.356 . S
C159 O164 1.209 . S
C159 O166 1.226 . S
O160 Cd156 2.273 . S
O160 Cd158 2.411 . S
O160 C163 1.320 . S
O161 Cd158 2.333 . S
O161 C163 1.214 . S
O162 Cd158 2.352 . S
O162 C165 1.258 . S
C163 O160 1.320 . S
C163 O161 1.214 . S
O164 Cd156 2.277 . S
O164 C159 1.209 . S
C165 O162 1.258 . S
C165 O167 1.282 . S
O166 Cd158 2.277 . S
O166 C159 1.226 . S
O167 Cd158 2.356 . S
O167 C165 1.282 . S
C168 C169 1.387 . S
C168 H172 0.950 . S
C168 C177 1.390 . S
C169 C168 1.387 . S
C169 C171 1.387 1_554 S
H170 C177 0.950 . S
C171 C169 1.387 1_556 S
C171 C173 1.390 . S
C171 H175 0.950 . S
H172 C168 0.950 . S
C173 C171 1.390 . S
C173 C174 1.387 . S
C173 H176 0.950 . S
C174 C173 1.387 . S
C174 C177 1.387 1_556 S
H175 C171 0.950 . S
H176 C173 0.950 . S
C177 C168 1.390 . S
C177 H170 0.950 . S
C177 C174 1.387 1_554 S
C178 C179 1.387 1_556 S
C178 H182 0.950 . S
C178 C187 1.390 . S
C179 C178 1.387 1_554 S
C179 C181 1.387 . S
H180 C187 0.950 . S
C181 C179 1.387 . S
C181 C183 1.390 . S
C181 H185 0.950 . S
H182 C178 0.950 . S
C183 C181 1.390 . S
C183 C184 1.387 1_554 S
C183 H186 0.950 . S
C184 C183 1.387 1_556 S
C184 C187 1.387 . S
H185 C181 0.950 . S
H186 C183 0.950 . S
C187 C178 1.390 . S
C187 H180 0.950 . S
C187 C184 1.387 . S
C188 C189 1.387 . S
C188 H192 0.950 . S
C188 C197 1.390 1_554 S
C189 C188 1.387 . S
C189 C191 1.387 . S
H190 C197 0.950 . S
C191 C189 1.387 . S
C191 C193 1.390 1_554 S
C191 H195 0.950 . S
H192 C188 0.950 . S
C193 C191 1.390 1_556 S
C193 C194 1.387 . S
C193 H196 0.950 . S
C194 C193 1.387 . S
C194 C197 1.387 . S
H195 C191 0.950 . S
H196 C193 0.950 . S
C197 C188 1.390 1_556 S
C197 H190 0.950 . S
C197 C194 1.387 . S
C198 C199 1.387 . S
C198 H202 0.950 . S
C198 C207 1.390 . S
C199 C198 1.387 . S
C199 C201 1.387 . S
H200 C207 0.950 . S
C201 C199 1.387 . S
C201 C203 1.390 . S
C201 H205 0.950 . S
H202 C198 0.950 . S
C203 C201 1.390 . S
C203 C204 1.387 . S
C203 H206 0.950 . S
C204 C203 1.387 . S
C204 C207 1.387 . S
H205 C201 0.950 . S
H206 C203 0.950 . S
C207 C198 1.390 . S
C207 H200 0.950 . S
C207 C204 1.387 . S
C208 C209 1.387 . S
C208 H212 0.950 . S
C208 C217 1.390 . S
C209 C208 1.387 . S
C209 C211 1.387 . S
H210 C217 0.950 . S
C211 C209 1.387 . S
C211 C213 1.390 . S
C211 H215 0.950 . S
H212 C208 0.950 . S
C213 C211 1.390 . S
C213 C214 1.387 . S
C213 H216 0.950 . S
C214 C213 1.387 . S
C214 C217 1.387 . S
H215 C211 0.950 . S
H216 C213 0.950 . S
C217 C208 1.390 . S
C217 H210 0.950 . S
C217 C214 1.387 . S
C218 C219 1.387 . S
C218 H222 0.950 . S
C218 C227 1.390 . S
C219 C218 1.387 . S
C219 C221 1.387 . S
H220 C227 0.950 . S
C221 C219 1.387 . S
C221 C223 1.390 . S
C221 H225 0.950 . S
H222 C218 0.950 . S
C223 C221 1.390 . S
C223 C224 1.387 . S
C223 H226 0.950 . S
C224 C223 1.387 . S
C224 C227 1.387 . S
H225 C221 0.950 . S
H226 C223 0.950 . S
C227 C218 1.390 . S
C227 H220 0.950 . S
C227 C224 1.387 . S
C228 C229 1.387 . S
C228 H232 0.950 . S
C228 C237 1.390 . S
C229 C228 1.387 . S
C229 C231 1.387 1_554 S
H230 C237 0.950 . S
C231 C229 1.387 1_556 S
C231 C233 1.390 . S
C231 H235 0.950 . S
H232 C228 0.950 . S
C233 C231 1.390 . S
C233 C234 1.387 . S
C233 H236 0.950 . S
C234 C233 1.387 . S
C234 C237 1.387 1_556 S
H235 C231 0.950 . S
H236 C233 0.950 . S
C237 C228 1.390 . S
C237 H230 0.950 . S
C237 C234 1.387 1_554 S
C238 C239 1.387 . S
C238 H242 0.950 . S
C238 C247 1.390 . S
C239 C238 1.387 . S
C239 C241 1.387 1_556 S
H240 C247 0.950 . S
C241 C239 1.387 1_554 S
C241 C243 1.390 . S
C241 H245 0.950 . S
H242 C238 0.950 . S
C243 C241 1.390 . S
C243 C244 1.387 . S
C243 H246 0.950 . S
C244 C243 1.387 . S
C244 C247 1.387 1_554 S
H245 C241 0.950 . S
H246 C243 0.950 . S
C247 C238 1.390 . S
C247 H240 0.950 . S
C247 C244 1.387 1_556 S
C248 C249 1.387 . S
C248 H252 0.950 . S
C248 C257 1.390 . S
C249 C248 1.387 . S
C249 C251 1.387 . S
H250 C257 0.950 . S
C251 C249 1.387 . S
C251 C253 1.390 1_554 S
C251 H255 0.950 . S
H252 C248 0.950 . S
C253 C251 1.390 1_556 S
C253 C254 1.387 . S
C253 H256 0.950 . S
C254 C253 1.387 . S
C254 C257 1.387 1_556 S
H255 C251 0.950 . S
H256 C253 0.950 . S
C257 C248 1.390 . S
C257 H250 0.950 . S
C257 C254 1.387 1_554 S
C258 C259 1.387 . S
C258 H262 0.950 . S
C258 C267 1.390 . S
C259 C258 1.387 . S
C259 C261 1.387 . S
H260 C267 0.950 . S
C261 C259 1.387 . S
C261 C263 1.390 . S
C261 H265 0.950 . S
H262 C258 0.950 . S
C263 C261 1.390 . S
C263 C264 1.387 . S
C263 H266 0.950 . S
C264 C263 1.387 . S
C264 C267 1.387 . S
H265 C261 0.950 . S
H266 C263 0.950 . S
C267 C258 1.390 . S
C267 H260 0.950 . S
C267 C264 1.387 . S
C268 C269 1.387 . S
C268 H272 0.950 . S
C268 C277 1.390 . S
C269 C268 1.387 . S
C269 C271 1.387 . S
H270 C277 0.950 . S
C271 C269 1.387 . S
C271 C273 1.390 . S
C271 H275 0.950 . S
H272 C268 0.950 . S
C273 C271 1.390 . S
C273 C274 1.387 . S
C273 H276 0.950 . S
C274 C273 1.387 . S
C274 C277 1.387 . S
H275 C271 0.950 . S
H276 C273 0.950 . S
C277 C268 1.390 . S
C277 H270 0.950 . S
C277 C274 1.387 . S
C278 C279 1.387 . S
C278 H282 0.950 . S
C278 C287 1.390 . S
C279 C278 1.387 . S
C279 C281 1.387 . S
H280 C287 0.950 . S
C281 C279 1.387 . S
C281 C283 1.390 . S
C281 H285 0.950 . S
H282 C278 0.950 . S
C283 C281 1.390 . S
C283 C284 1.387 . S
C283 H286 0.950 . S
C284 C283 1.387 . S
C284 C287 1.387 . S
H285 C281 0.950 . S
H286 C283 0.950 . S
C287 C278 1.390 . S
C287 H280 0.950 . S
C287 C284 1.387 . S
C288 C289 1.387 . S
C288 H292 0.950 . S
C288 C297 1.390 . S
C289 C288 1.387 . S
C289 C291 1.387 . S
H290 C297 0.950 . S
C291 C289 1.387 . S
C291 C293 1.390 . S
C291 H295 0.950 . S
H292 C288 0.950 . S
C293 C291 1.390 . S
C293 C294 1.387 . S
C293 H296 0.950 . S
C294 C293 1.387 . S
C294 C297 1.387 . S
H295 C291 0.950 . S
H296 C293 0.950 . S
C297 C288 1.390 . S
C297 H290 0.950 . S
C297 C294 1.387 . S
C298 C299 1.387 . S
C298 H302 0.950 . S
C298 C307 1.390 . S
C299 C298 1.387 . S
C299 C301 1.387 . S
H300 C307 0.950 . S
C301 C299 1.387 . S
C301 C303 1.390 . S
C301 H305 0.950 . S
H302 C298 0.950 . S
C303 C301 1.390 . S
C303 C304 1.387 . S
C303 H306 0.950 . S
C304 C303 1.387 . S
C304 C307 1.387 . S
H305 C301 0.950 . S
H306 C303 0.950 . S
C307 C298 1.390 . S
C307 H300 0.950 . S
C307 C304 1.387 . S
C308 C309 1.387 . S
C308 H312 0.950 . S
C308 C317 1.390 . S
C309 C308 1.387 . S
C309 C311 1.387 . S
H310 C317 0.950 . S
C311 C309 1.387 . S
C311 C313 1.390 . S
C311 H315 0.950 . S
H312 C308 0.950 . S
C313 C311 1.390 . S
C313 C314 1.387 . S
C313 H316 0.950 . S
C314 C313 1.387 . S
C314 C317 1.387 . S
H315 C311 0.950 . S
H316 C313 0.950 . S
C317 C308 1.390 . S
C317 H310 0.950 . S
C317 C314 1.387 . S
C318 C319 1.387 . S
C318 H322 0.950 . S
C318 C327 1.390 . S
C319 C318 1.387 . S
C319 C321 1.387 . S
H320 C327 0.950 . S
C321 C319 1.387 . S
C321 C323 1.390 . S
C321 H325 0.950 . S
H322 C318 0.950 . S
C323 C321 1.390 . S
C323 C324 1.387 . S
C323 H326 0.950 . S
C324 C323 1.387 . S
C324 C327 1.387 . S
H325 C321 0.950 . S
H326 C323 0.950 . S
C327 C318 1.390 . S
C327 H320 0.950 . S
C327 C324 1.387 . S
C328 C329 1.387 . S
C328 H332 0.950 . S
C328 C337 1.390 . S
C329 C328 1.387 . S
C329 C331 1.387 . S
H330 C337 0.950 . S
C331 C329 1.387 . S
C331 C333 1.390 . S
C331 H335 0.950 . S
H332 C328 0.950 . S
C333 C331 1.390 . S
C333 C334 1.387 . S
C333 H336 0.950 . S
C334 C333 1.387 . S
C334 C337 1.387 . S
H335 C331 0.950 . S
H336 C333 0.950 . S
C337 C328 1.390 . S
C337 H330 0.950 . S
C337 C334 1.387 . S
C338 C339 1.387 . S
C338 H342 0.950 . S
C338 C347 1.390 . S
C339 C338 1.387 . S
C339 C341 1.387 . S
H340 C347 0.950 . S
C341 C339 1.387 . S
C341 C343 1.390 . S
C341 H345 0.950 . S
H342 C338 0.950 . S
C343 C341 1.390 . S
C343 C344 1.387 . S
C343 H346 0.950 . S
C344 C343 1.387 . S
C344 C347 1.387 . S
H345 C341 0.950 . S
H346 C343 0.950 . S
C347 C338 1.390 . S
C347 H340 0.950 . S
C347 C344 1.387 . S
C348 C349 1.387 . S
C348 H352 0.950 . S
C348 C357 1.390 1_455 S
C349 C348 1.387 . S
C349 C351 1.387 1_554 S
H350 C357 0.950 . S
C351 C349 1.387 1_556 S
C351 C353 1.390 1_455 S
C351 H355 0.950 . S
H352 C348 0.950 . S
C353 C351 1.390 1_655 S
C353 C354 1.387 . S
C353 H356 0.950 . S
C354 C353 1.387 . S
C354 C357 1.387 1_556 S
H355 C351 0.950 . S
H356 C353 0.950 . S
C357 C348 1.390 1_655 S
C357 H350 0.950 . S
C357 C354 1.387 1_554 S
C358 C359 1.387 . S
C358 H362 0.950 . S
C358 C367 1.390 . S
C359 C358 1.387 . S
C359 C361 1.387 1_554 S
H360 C367 0.950 . S
C361 C359 1.387 1_556 S
C361 C363 1.390 . S
C361 H365 0.950 . S
H362 C358 0.950 . S
C363 C361 1.390 . S
C363 C364 1.387 . S
C363 H366 0.950 . S
C364 C363 1.387 . S
C364 C367 1.387 1_556 S
H365 C361 0.950 . S
H366 C363 0.950 . S
C367 C358 1.390 . S
C367 H360 0.950 . S
C367 C364 1.387 1_554 S
C368 C369 1.387 1_546 S
C368 H372 0.950 . S
C368 C377 1.390 . S
C369 C368 1.387 1_564 S
C369 C371 1.387 . S
H370 C377 0.950 . S
C371 C369 1.387 . S
C371 C373 1.390 . S
C371 H375 0.950 . S
H372 C368 0.950 . S
C373 C371 1.390 . S
C373 C374 1.387 1_564 S
C373 H376 0.950 . S
C374 C373 1.387 1_546 S
C374 C377 1.387 . S
H375 C371 0.950 . S
H376 C373 0.950 . S
C377 C368 1.390 . S
C377 H370 0.950 . S
C377 C374 1.387 . S
C378 C379 1.387 . S
C378 H382 0.950 . S
C378 C387 1.390 . S
C379 C378 1.387 . S
C379 C381 1.387 1_565 S
H380 C387 0.950 . S
C381 C379 1.387 1_545 S
C381 C383 1.390 . S
C381 H385 0.950 . S
H382 C378 0.950 . S
C383 C381 1.390 . S
C383 C384 1.387 . S
C383 H386 0.950 . S
C384 C383 1.387 . S
C384 C387 1.387 1_545 S
H385 C381 0.950 . S
H386 C383 0.950 . S
C387 C378 1.390 . S
C387 H380 0.950 . S
C387 C384 1.387 1_565 S
C388 C389 1.387 1_455 S
C388 H392 0.950 . S
C388 C397 1.390 . S
C389 C388 1.387 1_655 S
C389 C391 1.387 . S
H390 C397 0.950 . S
C391 C389 1.387 . S
C391 C393 1.390 . S
C391 H395 0.950 . S
H392 C388 0.950 . S
C393 C391 1.390 . S
C393 C394 1.387 1_655 S
C393 H396 0.950 . S
C394 C393 1.387 1_455 S
C394 C397 1.387 . S
H395 C391 0.950 . S
H396 C393 0.950 . S
C397 C388 1.390 . S
C397 H390 0.950 . S
C397 C394 1.387 . S
C398 C399 1.387 . S
C398 H402 0.950 . S
C398 C407 1.390 . S
C399 C398 1.387 . S
C399 C401 1.387 . S
H400 C407 0.950 . S
C401 C399 1.387 . S
C401 C403 1.390 . S
C401 H405 0.950 . S
H402 C398 0.950 . S
C403 C401 1.390 . S
C403 C404 1.387 . S
C403 H406 0.950 . S
C404 C403 1.387 . S
C404 C407 1.387 . S
H405 C401 0.950 . S
H406 C403 0.950 . S
C407 C398 1.390 . S
C407 H400 0.950 . S
C407 C404 1.387 . S
C169 C9 0.973 . S
C174 C103 0.981 . S
C179 C23 0.972 . S
C184 C117 0.980 . S
C189 C37 0.974 . S
C194 C89 0.980 . S
C199 C159 0.980 . S
C204 C51 0.972 . S
C209 C65 0.972 . S
C214 C131 0.980 . S
C219 C145 0.980 . S
C224 C79 0.974 . S
C229 C19 0.981 . S
C234 C93 0.972 . S
C239 C107 0.974 . S
C244 C33 0.980 . S
C249 C5 0.981 . S
C254 C121 0.974 . S
C259 C135 0.973 . S
C264 C75 0.981 . S
C269 C149 0.971 . S
C274 C47 0.980 . S
C279 C61 0.981 . S
C284 C163 0.972 . S
C289 C81 1.620 . S
C294 C11 1.620 . S
C299 C25 1.619 . S
C304 C53 1.617 . S
C309 C39 1.619 . S
C314 C67 1.618 . S
C319 C95 1.620 . S
C324 C165 1.620 . S
C329 C109 1.618 . S
C334 C137 1.620 . S
C339 C123 1.618 . S
C344 C151 1.619 . S
C349 C0 1.631 . S
C354 C84 1.631 . S
C359 C14 1.630 . S
C364 C98 1.630 . S
C369 C28 1.631 . S
C374 C112 1.631 . S
C379 C42 1.634 . S
C384 C126 1.634 . S
C389 C140 1.633 . S
C394 C56 1.633 . S
C399 C70 1.632 . S
C404 C154 1.632 . S
