# Generated by pormake.
# Topology qtz-e, (6)-cn, num edge types: 1
# Building blocks:
#     Node 0, Type 0, BuildingBlock: MIFKUJ_clean_sbu_0, # of connection points: 6
#     Node 1, Type 0, BuildingBlock: MIFKUJ_clean_sbu_0, # of connection points: 6
#     Node 2, Type 0, BuildingBlock: MIFKUJ_clean_sbu_0, # of connection points: 6
#     Node 3, Type 0, BuildingBlock: MIFKUJ_clean_sbu_0, # of connection points: 6
#     Node 4, Type 0, BuildingBlock: MIFKUJ_clean_sbu_0, # of connection points: 6
#     Node 5, Type 0, BuildingBlock: MIFKUJ_clean_sbu_0, # of connection points: 6
#     Edge 6, Type (0, 0), BuildingBlock: XUDNAN_clean_linker_2, # of connection points: 2
#     Edge 7, Type (0, 0), BuildingBlock: XUDNAN_clean_linker_2, # of connection points: 2
#     Edge 8, Type (0, 0), BuildingBlock: XUDNAN_clean_linker_2, # of connection points: 2
#     Edge 9, Type (0, 0), BuildingBlock: XUDNAN_clean_linker_2, # of connection points: 2
#     Edge 10, Type (0, 0), BuildingBlock: XUDNAN_clean_linker_2, # of connection points: 2
#     Edge 11, Type (0, 0), BuildingBlock: XUDNAN_clean_linker_2, # of connection points: 2
#     Edge 12, Type (0, 0), BuildingBlock: XUDNAN_clean_linker_2, # of connection points: 2
#     Edge 13, Type (0, 0), BuildingBlock: XUDNAN_clean_linker_2, # of connection points: 2
#     Edge 14, Type (0, 0), BuildingBlock: XUDNAN_clean_linker_2, # of connection points: 2
#     Edge 15, Type (0, 0), BuildingBlock: XUDNAN_clean_linker_2, # of connection points: 2
#     Edge 16, Type (0, 0), BuildingBlock: XUDNAN_clean_linker_2, # of connection points: 2
#     Edge 17, Type (0, 0), BuildingBlock: XUDNAN_clean_linker_2, # of connection points: 2
#     Edge 18, Type (0, 0), BuildingBlock: XUDNAN_clean_linker_2, # of connection points: 2
#     Edge 19, Type (0, 0), BuildingBlock: XUDNAN_clean_linker_2, # of connection points: 2
#     Edge 20, Type (0, 0), BuildingBlock: XUDNAN_clean_linker_2, # of connection points: 2
#     Edge 21, Type (0, 0), BuildingBlock: XUDNAN_clean_linker_2, # of connection points: 2
#     Edge 22, Type (0, 0), BuildingBlock: XUDNAN_clean_linker_2, # of connection points: 2
#     Edge 23, Type (0, 0), BuildingBlock: XUDNAN_clean_linker_2, # of connection points: 2
# Relax obj value: 0.216
# Max RMSD: 0.226
# Mean RMSD: 0.226
data_MOF--net-qtz-e--node1-MIFKUJ_clean_sbu_0--edge1-XUDNAN_clean_linker_2
_symmetry_space_group_name_H-M    P1
_symmetry_Int_Tables_number       1
_symmetry_cell_setting            triclinic
loop_
_symmetry_equiv_pos_as_xyz
'x, y, z'
_cell_length_a     24.199233
_cell_length_b     24.232739
_cell_length_c     42.968336
_cell_angle_alpha  90.147419
_cell_angle_beta   89.905708
_cell_angle_gamma 119.94359
loop_
_atom_site_label
_atom_site_type_symbol
_atom_site_fract_x
_atom_site_fract_y
_atom_site_fract_z
_atom_type_partial_charge
Zn0 Zn 0.19602 0.33699 0.9844 0.0
Zn1 Zn 0.16132 0.41087 0.04551 0.0
C2 C 0.21679 0.38997 0.92503 0.0
O3 O 0.16384 0.33521 0.92156 0.0
C4 C 0.1308 0.30601 0.08633 0.0
O5 O 0.19152 0.34154 0.09318 0.0
O6 O 0.19903 0.26638 0.96079 0.0
O7 O 0.25741 0.3608 0.02035 0.0
O8 O 0.25232 0.43693 0.04676 0.0
C9 C 0.25579 0.28 0.95433 0.0
O10 O 0.30232 0.32248 0.97166 0.0
O11 O 0.23915 0.40736 0.95234 0.0
C12 C 0.12266 0.46737 0.09666 0.0
O13 O 0.083 0.40864 0.1054 0.0
O14 O 0.15628 0.47719 0.07228 0.0
O15 O 0.13048 0.41423 0.00317 0.0
O16 O 0.10406 0.31665 0.98863 0.0
O17 O 0.10708 0.32472 0.06529 0.0
C18 C 0.28166 0.40824 0.03872 0.0
C19 C 0.09378 0.36318 0.98873 0.0
Zn20 Zn 0.85272 0.19709 0.31513 0.0
Zn21 Zn 0.8195 0.14059 0.41038 0.0
C22 C 0.82022 0.2601 0.27116 0.0
O23 O 0.79387 0.20175 0.26015 0.0
C24 C 0.90912 0.10865 0.43688 0.0
O25 O 0.94797 0.17017 0.4339 0.0
O26 O 0.88998 0.16757 0.28193 0.0
O27 O 0.88479 0.20538 0.35817 0.0
O28 O 0.89137 0.23186 0.40638 0.0
C29 C 0.93615 0.15745 0.27817 0.0
O30 O 0.97618 0.16821 0.30108 0.0
O31 O 0.84815 0.27194 0.29738 0.0
C32 C 0.71569 0.08514 0.45396 0.0
O33 O 0.71032 0.0324 0.44243 0.0
O34 O 0.76015 0.13844 0.4441 0.0
O35 O 0.76356 0.1098 0.37087 0.0
O36 O 0.76441 0.12656 0.31996 0.0
O37 O 0.85342 0.08407 0.42521 0.0
C38 C 0.90747 0.24911 0.37848 0.0
C39 C 0.73565 0.09623 0.34442 0.0
Zn40 Zn 0.6497 0.85664 0.65924 0.0
Zn41 Zn 0.57686 0.7798 0.72787 0.0
C42 C 0.55545 0.82166 0.60607 0.0
O43 O 0.58984 0.80424 0.58951 0.0
C44 C 0.70393 0.85427 0.75638 0.0
O45 O 0.69477 0.90319 0.755 0.0
O46 O 0.72843 0.90449 0.63253 0.0
O47 O 0.65262 0.91532 0.6937 0.0
O48 O 0.56637 0.85486 0.72181 0.0
C49 C 0.74336 0.8733 0.61376 0.0
O50 O 0.70685 0.81119 0.61183 0.0
O51 O 0.57192 0.84099 0.63391 0.0
C52 C 0.50973 0.66545 0.76181 0.0
O53 O 0.54038 0.65042 0.7413 0.0
O54 O 0.51692 0.72125 0.76141 0.0
O55 O 0.55077 0.72618 0.68943 0.0
O56 O 0.64703 0.77393 0.66964 0.0
O57 O 0.66404 0.802 0.74351 0.0
C58 C 0.60391 0.90761 0.70885 0.0
C59 C 0.59317 0.72431 0.67299 0.0
Zn60 Zn 0.8009 0.64642 0.97364 0.0
Zn61 Zn 0.86426 0.63708 0.05797 0.0
C62 C 0.69308 0.54483 0.94047 0.0
O63 O 0.70643 0.50704 0.95666 0.0
C64 C 0.92251 0.76961 0.07335 0.0
O65 O 0.865 0.76118 0.06935 0.0
O66 O 0.85328 0.73644 0.95848 0.0
O67 O 0.76657 0.6351 0.01597 0.0
O68 O 0.77893 0.6287 0.06559 0.0
C69 C 0.82275 0.76626 0.95638 0.0
O70 O 0.77024 0.74532 0.9728 0.0
O71 O 0.7262 0.60469 0.94447 0.0
C72 C 0.83846 0.53417 0.09958 0.0
O73 O 0.7969 0.50006 0.07796 0.0
O74 O 0.87442 0.59356 0.0954 0.0
O75 O 0.87173 0.59114 0.01933 0.0
O76 O 0.84693 0.59827 0.97003 0.0
O77 O 0.93464 0.72757 0.063 0.0
C78 C 0.74473 0.62786 0.04327 0.0
C79 C 0.86835 0.57615 0.99057 0.0
Zn80 Zn 0.14012 0.79897 0.32081 0.0
Zn81 Zn 0.1785 0.81765 0.41122 0.0
C82 C 0.17774 0.76773 0.26455 0.0
O83 O 0.212 0.83021 0.26466 0.0
C84 C 0.08275 0.83356 0.44129 0.0
O85 O 0.06216 0.77332 0.44756 0.0
O86 O 0.11221 0.8517 0.29655 0.0
O87 O 0.07652 0.74775 0.35413 0.0
O88 O 0.12246 0.72986 0.39421 0.0
C89 C 0.05924 0.81891 0.28275 0.0
O90 O 0.02449 0.75827 0.28975 0.0
O91 O 0.14188 0.74005 0.28775 0.0
C92 C 0.23883 0.84745 0.47246 0.0
O93 O 0.22529 0.89361 0.472 0.0
O94 O 0.22078 0.80793 0.44999 0.0
O95 O 0.25459 0.86981 0.3846 0.0
O96 O 0.23089 0.85347 0.3343 0.0
O97 O 0.13042 0.8626 0.42324 0.0
C98 C 0.08319 0.70944 0.3717 0.0
C99 C 0.27107 0.87915 0.35619 0.0
Zn100 Zn 0.33463 0.14251 0.63683 0.0
Zn101 Zn 0.35966 0.2139 0.72188 0.0
C102 C 0.43845 0.15421 0.597 0.0
O103 O 0.45367 0.21428 0.59543 0.0
C104 C 0.23719 0.21742 0.72973 0.0
O105 O 0.18278 0.20817 0.71852 0.0
O106 O 0.25272 0.11113 0.6131 0.0
O107 O 0.32366 0.12384 0.68243 0.0
O108 O 0.34005 0.1239 0.73144 0.0
C109 C 0.20002 0.06021 0.61745 0.0
O110 O 0.19457 0.02284 0.64077 0.0
O111 O 0.39102 0.11603 0.6135 0.0
C112 C 0.44578 0.33052 0.75463 0.0
O113 O 0.44831 0.35648 0.7275 0.0
O114 O 0.4099 0.27071 0.75798 0.0
O115 O 0.4199 0.24491 0.68382 0.0
O116 O 0.37808 0.23741 0.63708 0.0
O117 O 0.27622 0.21217 0.71172 0.0
C118 C 0.33379 0.09706 0.70532 0.0
C119 C 0.41208 0.27093 0.65978 0.0
H120 H 0.09974 0.63953 0.25178 0.0
H121 H 0.25502 0.81458 0.21387 0.0
H122 H 0.25279 0.75773 0.16596 0.0
H123 H 0.15201 0.53511 0.22141 0.0
H124 H 0.0728 0.4711 0.21273 0.0
H125 H 0.08486 0.52583 0.24388 0.0
H126 H 0.00344 0.5514 0.21852 0.0
H127 H 0.99135 0.49702 0.18713 0.0
H128 H 0.01494 0.57875 0.17878 0.0
H129 H 0.23495 0.68328 0.12235 0.0
H130 H 0.2075 0.59341 0.08682 0.0
H131 H 0.06469 0.46482 0.15251 0.0
C132 C 0.13343 0.66578 0.23345 0.0
C133 C 0.17757 0.73164 0.23662 0.0
C134 C 0.22074 0.76422 0.21204 0.0
C135 C 0.21973 0.7324 0.18463 0.0
C136 C 0.17533 0.66785 0.18207 0.0
C137 C 0.13324 0.63462 0.20582 0.0
C138 C 0.09154 0.56492 0.19719 0.0
C139 C 0.10091 0.52171 0.22017 0.0
C140 C 0.02114 0.54698 0.19529 0.0
C141 C 0.11785 0.56413 0.16519 0.0
C142 C 0.16553 0.62429 0.15684 0.0
C143 C 0.19765 0.63589 0.12858 0.0
C144 C 0.18158 0.58443 0.10852 0.0
C145 C 0.13405 0.52187 0.11682 0.0
C146 C 0.10118 0.51198 0.14541 0.0
H147 H 0.54628 0.22482 0.5623 0.0
H148 H 0.41092 0.03048 0.58908 0.0
H149 H 0.46969 0.99181 0.55714 0.0
H150 H 0.56168 0.18989 0.48351 0.0
H151 H 0.64543 0.24779 0.481 0.0
H152 H 0.59511 0.26034 0.50756 0.0
H153 H 0.66951 0.27116 0.55338 0.0
H154 H 0.72019 0.25885 0.52691 0.0
H155 H 0.68722 0.20832 0.5605 0.0
H156 H 0.54205 0.97454 0.52109 0.0
H157 H 0.61992 0.97904 0.48237 0.0
H158 H 0.70649 0.18486 0.47865 0.0
C159 C 0.52918 0.17414 0.5617 0.0
C160 C 0.47446 0.13078 0.5786 0.0
C161 C 0.45342 0.06476 0.57686 0.0
C162 C 0.48631 0.04228 0.55864 0.0
C163 C 0.53996 0.08641 0.54219 0.0
C164 C 0.56118 0.15093 0.54353 0.0
C165 C 0.61869 0.18826 0.52279 0.0
C166 C 0.60433 0.22364 0.4972 0.0
C167 C 0.67737 0.23436 0.54205 0.0
C168 C 0.62629 0.13465 0.50934 0.0
C169 C 0.58064 0.07631 0.52092 0.0
C170 C 0.57777 0.01982 0.51166 0.0
C171 C 0.62235 0.02298 0.48973 0.0
C172 C 0.66948 0.08234 0.47748 0.0
C173 C 0.67132 0.13876 0.48761 0.0
H174 H 0.31744 0.51372 0.92025 0.0
H175 H 0.20329 0.34079 0.86687 0.0
H176 H 0.26931 0.39133 0.82072 0.0
H177 H 0.33488 0.621 0.8587 0.0
H178 H 0.41568 0.6798 0.86853 0.0
H179 H 0.36218 0.62909 0.89835 0.0
H180 H 0.44293 0.59285 0.91294 0.0
H181 H 0.49661 0.64248 0.88283 0.0
H182 H 0.4697 0.55845 0.8835 0.0
H183 H 0.35015 0.45725 0.78105 0.0
H184 H 0.43011 0.54188 0.74734 0.0
H185 H 0.48671 0.67653 0.82376 0.0
C186 C 0.3065 0.48664 0.89883 0.0
C187 C 0.25511 0.42327 0.89722 0.0
C188 C 0.24198 0.38951 0.8687 0.0
C189 C 0.27973 0.41752 0.84238 0.0
C190 C 0.33024 0.47965 0.84474 0.0
C191 C 0.34315 0.51438 0.87199 0.0
C192 C 0.3979 0.58189 0.86738 0.0
C193 C 0.37635 0.63083 0.8736 0.0
C194 C 0.45518 0.59467 0.88788 0.0
C195 C 0.41252 0.57982 0.83316 0.0
C196 C 0.37406 0.51968 0.82091 0.0
C197 C 0.37989 0.50481 0.7902 0.0
C198 C 0.42542 0.55308 0.77126 0.0
C199 C 0.46343 0.61574 0.78283 0.0
C200 C 0.45716 0.62923 0.81424 0.0
H201 H 0.7723 0.24856 0.21267 0.0
H202 H 0.87648 0.3882 0.28472 0.0
H203 H 0.88945 0.47419 0.2492 0.0
H204 H 0.86806 0.33817 0.15023 0.0
H205 H 0.80323 0.31159 0.12289 0.0
H206 H 0.79765 0.26116 0.15483 0.0
H207 H 0.69202 0.25438 0.17278 0.0
H208 H 0.69693 0.30433 0.14069 0.0
H209 H 0.69004 0.3267 0.17993 0.0
H210 H 0.8948 0.54502 0.20436 0.0
H211 H 0.89415 0.59453 0.15426 0.0
H212 H 0.78653 0.4072 0.11219 0.0
C213 C 0.79701 0.29707 0.22127 0.0
C214 C 0.82325 0.31163 0.25152 0.0
C215 C 0.85582 0.3759 0.26166 0.0
C216 C 0.86336 0.42501 0.24165 0.0
C217 C 0.83777 0.40889 0.21173 0.0
C218 C 0.80505 0.34637 0.20168 0.0
C219 C 0.7847 0.34147 0.16805 0.0
C220 C 0.81525 0.31133 0.14782 0.0
C221 C 0.71158 0.30455 0.16521 0.0
C222 C 0.8118 0.41111 0.16047 0.0
C223 C 0.84184 0.44933 0.18597 0.0
C224 C 0.8715 0.51547 0.18427 0.0
C225 C 0.87113 0.54316 0.15568 0.0
C226 C 0.84045 0.5047 0.12932 0.0
C227 C 0.81023 0.43785 0.13193 0.0
H228 H 0.50412 0.78291 0.54721 0.0
H229 H 0.48356 0.86767 0.63234 0.0
H230 H 0.40166 0.88448 0.60741 0.0
H231 H 0.47892 0.87964 0.4919 0.0
H232 H 0.43271 0.81405 0.46607 0.0
H233 H 0.49218 0.81278 0.49072 0.0
H234 H 0.40441 0.70339 0.51245 0.0
H235 H 0.34536 0.70686 0.48835 0.0
H236 H 0.33377 0.6974 0.52985 0.0
H237 H 0.32652 0.89795 0.5723 0.0
H238 H 0.25504 0.89715 0.53104 0.0
H239 H 0.31605 0.79441 0.4702 0.0
C240 C 0.48222 0.80475 0.56066 0.0
C241 C 0.50164 0.82547 0.59161 0.0
C242 C 0.47089 0.85292 0.60844 0.0
C243 C 0.42395 0.86236 0.5945 0.0
C244 C 0.40677 0.84248 0.56386 0.0
C245 C 0.43406 0.81322 0.54727 0.0
C246 C 0.40473 0.79385 0.51507 0.0
C247 C 0.45518 0.82708 0.48947 0.0
C248 C 0.37 0.72105 0.51122 0.0
C249 C 0.35788 0.81819 0.51599 0.0
C250 C 0.36019 0.84648 0.54428 0.0
C251 C 0.3235 0.87503 0.55022 0.0
C252 C 0.28316 0.87447 0.52664 0.0
C253 C 0.27927 0.84491 0.49762 0.0
C254 C 0.317 0.81619 0.49238 0.0
H255 H 0.63403 0.42421 0.91555 0.0
H256 H 0.64348 0.60712 0.90857 0.0
H257 H 0.57715 0.57077 0.86107 0.0
H258 H 0.64623 0.40045 0.83701 0.0
H259 H 0.59008 0.31614 0.83676 0.0
H260 H 0.63308 0.35404 0.8718 0.0
H261 H 0.52683 0.31187 0.90183 0.0
H262 H 0.48291 0.2733 0.867 0.0
H263 H 0.46682 0.3287 0.88756 0.0
H264 H 0.52342 0.52007 0.81068 0.0
H265 H 0.47331 0.45297 0.76425 0.0
H266 H 0.49064 0.29973 0.80625 0.0
C267 C 0.62097 0.45614 0.90445 0.0
C268 C 0.64506 0.51912 0.91528 0.0
C269 C 0.62684 0.55935 0.90011 0.0
C270 C 0.58885 0.53896 0.87329 0.0
C271 C 0.56821 0.47756 0.8624 0.0
C272 C 0.58235 0.43618 0.87787 0.0
C273 C 0.55583 0.37332 0.86073 0.0
C274 C 0.60951 0.36026 0.851 0.0
C275 C 0.50506 0.31856 0.88045 0.0
C276 C 0.52634 0.38658 0.83274 0.0
C277 C 0.53425 0.44711 0.83407 0.0
C278 C 0.5158 0.47212 0.80965 0.0
C279 C 0.48798 0.43397 0.78328 0.0
C280 C 0.47781 0.37117 0.78187 0.0
C281 C 0.49701 0.34725 0.807 0.0
H282 H 0.37872 0.43621 0.99921 0.0
H283 H 0.33532 0.4501 0.09582 0.0
H284 H 0.45101 0.51265 0.10758 0.0
H285 H 0.52069 0.42471 0.01096 0.0
H286 H 0.56086 0.47379 0.97772 0.0
H287 H 0.47522 0.42643 0.97813 0.0
H288 H 0.46825 0.52798 0.96751 0.0
H289 H 0.55391 0.57577 0.96776 0.0
H290 H 0.50717 0.59501 0.99361 0.0
H291 H 0.57089 0.57293 0.10831 0.0
H292 H 0.68687 0.62534 0.09837 0.0
H293 H 0.64953 0.57863 1.00023 0.0
C294 C 0.39377 0.45085 0.02299 0.0
C295 C 0.34898 0.43724 0.04689 0.0
C296 C 0.36966 0.45949 0.07747 0.0
C297 C 0.43493 0.49516 0.08425 0.0
C298 C 0.47812 0.50907 0.05994 0.0
C299 C 0.45838 0.48769 0.02991 0.0
C300 C 0.51403 0.51159 0.00767 0.0
C301 C 0.51793 0.45581 0.99277 0.0
C302 C 0.5106 0.55518 0.98268 0.0
C303 C 0.56838 0.54881 0.03002 0.0
C304 C 0.54678 0.54682 0.06003 0.0
C305 C 0.58845 0.57531 0.08489 0.0
C306 C 0.65408 0.60507 0.07901 0.0
C307 C 0.67696 0.60636 0.04852 0.0
C308 C 0.63346 0.57928 0.02368 0.0
H309 H 0.03452 0.61448 0.41432 0.0
H310 H 0.0523 0.6491 0.31498 0.0
H311 H 0.0134 0.53478 0.30524 0.0
H312 H 0.07966 0.49949 0.41831 0.0
H313 H 0.0204 0.44987 0.44649 0.0
H314 H 0.04858 0.53403 0.44549 0.0
H315 H 0.93292 0.51233 0.43875 0.0
H316 H 0.90413 0.42803 0.44053 0.0
H317 H 0.88416 0.46094 0.40772 0.0
H318 H 0.98994 0.41908 0.3081 0.0
H319 H 0.95417 0.30671 0.32176 0.0
H320 H 0.93395 0.34714 0.4181 0.0
C321 C 0.02935 0.59776 0.39051 0.0
C322 C 0.04822 0.64057 0.36538 0.0
C323 C 0.03957 0.61713 0.33452 0.0
C324 C 0.01757 0.55234 0.32881 0.0
C325 C 0.00213 0.5117 0.35428 0.0
C326 C 0.00517 0.5332 0.38442 0.0
C327 C 0.98276 0.47971 0.40769 0.0
C328 C 0.03604 0.49151 0.43085 0.0
C329 C 0.9224 0.46965 0.42466 0.0
C330 C 0.96834 0.42496 0.38608 0.0
C331 C 0.98101 0.4443 0.35541 0.0
C332 C 0.97686 0.40275 0.33182 0.0
C333 C 0.95599 0.33904 0.33967 0.0
C334 C 0.93713 0.3173 0.37049 0.0
C335 C 0.94555 0.36156 0.39404 0.0
H336 H 0.38599 0.05589 0.74997 0.0
H337 H 0.33811 0.03669 0.65215 0.0
H338 H 0.41667 0.00113 0.64179 0.0
H339 H 0.54544 0.10399 0.74805 0.0
H340 H 0.54497 0.05218 0.77821 0.0
H341 H 0.48595 0.07673 0.77834 0.0
H342 H 0.39435 0.95924 0.77829 0.0
H343 H 0.45305 0.93431 0.77968 0.0
H344 H 0.39381 0.90508 0.74929 0.0
H345 H 0.51682 0.9916 0.64195 0.0
H346 H 0.59312 0.95459 0.65342 0.0
H347 H 0.55505 0.95428 0.75204 0.0
C348 C 0.39126 0.04343 0.72636 0.0
C349 C 0.36114 0.05505 0.70107 0.0
C350 C 0.3663 0.03449 0.67101 0.0
C351 C 0.40992 0.01362 0.6651 0.0
C352 C 0.44444 0.00974 0.69005 0.0
C353 C 0.43201 0.01943 0.72033 0.0
C354 C 0.46989 0.00427 0.74331 0.0
C355 C 0.51418 0.06281 0.76314 0.0
C356 C 0.42512 0.94733 0.76385 0.0
C357 C 0.50757 0.98715 0.72109 0.0
C358 C 0.49381 0.99287 0.69047 0.0
C359 C 0.52634 0.98461 0.66579 0.0
C360 C 0.5702 0.96454 0.67254 0.0
C361 C 0.57878 0.9507 0.70352 0.0
C362 C 0.54892 0.96437 0.72815 0.0
H363 H 0.47992 0.62274 0.65718 0.0
H364 H 0.68128 0.68571 0.66593 0.0
H365 H 0.65815 0.5752 0.65691 0.0
H366 H 0.42334 0.4843 0.69773 0.0
H367 H 0.3542 0.43818 0.67374 0.0
H368 H 0.38848 0.5231 0.67614 0.0
H369 H 0.40063 0.53063 0.61581 0.0
H370 H 0.36641 0.44543 0.61357 0.0
H371 H 0.44355 0.49716 0.59664 0.0
H372 H 0.60996 0.45623 0.65827 0.0
H373 H 0.54168 0.33896 0.66258 0.0
H374 H 0.37351 0.35558 0.64843 0.0
C375 C 0.51928 0.61344 0.65634 0.0
C376 C 0.58218 0.66209 0.66236 0.0
C377 C 0.63274 0.64873 0.66118 0.0
C378 C 0.62003 0.58625 0.65612 0.0
C379 C 0.55687 0.53865 0.65151 0.0
C380 C 0.50754 0.55189 0.65079 0.0
C381 C 0.44347 0.49207 0.64761 0.0
C382 C 0.39986 0.48401 0.67546 0.0
C383 C 0.41165 0.49129 0.61655 0.0
C384 C 0.46402 0.44269 0.64803 0.0
C385 C 0.52961 0.47033 0.65037 0.0
C386 C 0.55884 0.43401 0.65537 0.0
C387 C 0.51993 0.36783 0.65801 0.0
C388 C 0.45302 0.33926 0.6552 0.0
C389 C 0.42487 0.37682 0.64967 0.0
H390 H 0.99062 0.33864 0.02169 0.0
H391 H 0.07256 0.38532 0.92957 0.0
H392 H 0.00055 0.42605 0.91579 0.0
H393 H 0.8205 0.31427 0.99848 0.0
H394 H 0.81922 0.35059 0.03494 0.0
H395 H 0.85476 0.30061 0.03277 0.0
H396 H 0.9583 0.39264 0.05623 0.0
H397 H 0.92481 0.44386 0.05721 0.0
H398 H -0.00167 0.46835 0.03649 0.0
H399 H 0.94737 0.49026 0.91758 0.0
H400 H 0.91089 0.56496 0.93322 0.0
H401 H 0.86895 0.4831 0.02579 0.0
C402 C 0.98938 0.35285 0.99793 0.0
C403 C 0.03509 0.35733 0.97631 0.0
C404 C 0.0359 0.37955 0.94592 0.0
C405 C -0.00458 0.40316 0.93804 0.0
C406 C 0.95455 0.40368 0.96087 0.0
C407 C 0.94988 0.37737 0.99005 0.0
C408 C 0.91282 0.39524 0.01239 0.0
C409 C 0.84797 0.3367 0.02009 0.0
C410 C 0.95091 0.42694 0.04228 0.0
C411 C 0.90437 0.44177 0.99247 0.0
C412 C 0.92599 0.44378 0.96244 0.0
C413 C 0.92853 0.48765 0.94072 0.0
C414 C 0.90836 0.53032 0.9499 0.0
C415 C 0.88769 0.52995 0.98077 0.0
C416 C 0.88488 0.4845 1.00209 0.0
H417 H 0.37265 0.94074 0.39634 0.0
H418 H 0.32498 0.89262 0.29876 0.0
H419 H 0.43834 0.93482 0.28674 0.0
H420 H 0.52027 0.08903 0.38245 0.0
H421 H 0.56038 0.07833 0.41524 0.0
H422 H 0.47518 0.04486 0.416 0.0
H423 H 0.46234 0.93407 0.4273 0.0
H424 H 0.54749 0.96713 0.42557 0.0
H425 H 0.49614 0.90117 0.40074 0.0
H426 H 0.55423 0.97777 0.28505 0.0
H427 H 0.67053 0.03535 0.29228 0.0
H428 H 0.64525 0.058 0.39069 0.0
C429 C 0.38606 0.93967 0.37238 0.0
C430 C 0.33971 0.91296 0.34851 0.0
C431 C 0.35939 0.91274 0.31746 0.0
C432 C 0.42366 0.93612 0.3104 0.0
C433 C 0.46766 0.95991 0.33459 0.0
C434 C 0.45018 0.96315 0.36485 0.0
C435 C 0.50775 0.99314 0.38622 0.0
C436 C 0.51641 0.05502 0.40081 0.0
C437 C 0.50312 0.94604 0.41143 0.0
C438 C 0.56021 0.00641 0.36304 0.0
C439 C 0.53563 0.98596 0.33354 0.0
C440 C 0.57424 0.99422 0.30798 0.0
C441 C 0.64018 0.02683 0.31236 0.0
C442 C 0.66677 0.05114 0.34203 0.0
C443 C 0.62619 0.03911 0.36787 0.0
H444 H 0.16938 0.14831 0.78036 0.0
H445 H 0.33178 0.32758 0.75292 0.0
H446 H 0.36155 0.35484 0.80839 0.0
H447 H 0.13166 0.2212 0.84412 0.0
H448 H 0.10023 0.15178 0.86865 0.0
H449 H 0.09612 0.14287 0.82698 0.0
H450 H 0.1554 0.07874 0.83058 0.0
H451 H 0.16052 0.08835 0.87227 0.0
H452 H 0.23194 0.11376 0.84961 0.0
H453 H 0.37917 0.3581 0.8654 0.0
H454 H 0.3638 0.35732 0.92194 0.0
H455 H 0.17995 0.18439 0.91331 0.0
C456 C 0.2121 0.19252 0.78619 0.0
C457 C 0.25205 0.23381 0.76269 0.0
C458 C 0.30444 0.29336 0.77083 0.0
C459 C 0.32144 0.30915 0.80207 0.0
C460 C 0.28396 0.26556 0.82475 0.0
C461 C 0.22869 0.20985 0.81737 0.0
C462 C 0.1914 0.17677 0.84648 0.0
C463 C 0.12599 0.17296 0.84656 0.0
C464 C 0.18443 0.11047 0.84992 0.0
C465 C 0.235 0.2222 0.87127 0.0
C466 C 0.28903 0.27194 0.85814 0.0
C467 C 0.33686 0.31972 0.87604 0.0
C468 C 0.3278 0.31846 0.90822 0.0
C469 C 0.27051 0.27074 0.92204 0.0
C470 C 0.22425 0.22118 0.90337 0.0
H471 H 0.04936 0.17663 0.25396 0.0
H472 H 0.85249 0.11219 0.22984 0.0
H473 H 0.87895 0.1177 0.17435 0.0
H474 H 0.11621 0.2905 0.20425 0.0
H475 H 0.18305 0.28175 0.19258 0.0
H476 H 0.14628 0.25232 0.22964 0.0
H477 H 0.12629 0.13976 0.21558 0.0
H478 H 0.16369 0.16908 0.17825 0.0
H479 H 0.08415 0.10151 0.18032 0.0
H480 H 0.92985 0.15918 0.1238 0.0
H481 H 0.00084 0.2295 0.08263 0.0
H482 H 0.16535 0.26501 0.13781 0.0
C483 C 0.01138 0.16054 0.23699 0.0
C484 C 0.94911 0.14427 0.24618 0.0
C485 C 0.90072 0.12502 0.22333 0.0
C486 C 0.91516 0.1275 0.19167 0.0
C487 C 0.978 0.14811 0.18313 0.0
C488 C 0.0252 0.16284 0.20514 0.0
C489 C 0.09043 0.19345 0.19001 0.0
C490 C 0.13659 0.25833 0.205 0.0
C491 C 0.11774 0.14825 0.1911 0.0
C492 C 0.07319 0.20068 0.15698 0.0
C493 C 0.00788 0.17185 0.15316 0.0
C494 C 0.98096 0.18004 0.12611 0.0
C495 C 0.02171 0.22041 0.10287 0.0
C496 C 0.08866 0.25271 0.10703 0.0
C497 C 0.1144 0.24026 0.1338 0.0
H498 H 0.74776 0.83875 0.55434 0.0
H499 H 0.85506 0.98526 0.62261 0.0
H500 H 0.93457 0.0489 0.58241 0.0
H501 H 0.89107 0.87324 0.49951 0.0
H502 H 0.8404 0.85856 0.46618 0.0
H503 H 0.80766 0.81404 0.50158 0.0
H504 H 0.72248 0.84952 0.5024 0.0
H505 H 0.75505 0.89363 0.46734 0.0
H506 H 0.74832 0.9334 0.50146 0.0
H507 H 0.98713 0.10604 0.53438 0.0
H508 H -0.00504 0.15873 0.48451 0.0
H509 H 0.84756 0.98006 0.44601 0.0
C510 C 0.7897 0.88293 0.561 0.0
C511 C 0.79607 0.90694 0.59148 0.0
C512 C 0.84983 0.966 0.59933 0.0
C513 C 0.89558 0.00199 0.57671 0.0
C514 C 0.88647 0.97848 0.54631 0.0
C515 C 0.83448 0.92018 0.53841 0.0
C516 C 0.82666 0.91226 0.50344 0.0
C517 C 0.8424 0.86152 0.49201 0.0
C518 C 0.75922 0.89639 0.4931 0.0
C519 C 0.8773 0.97796 0.49303 0.0
C520 C 0.91425 0.01378 0.51789 0.0
C521 C 0.9593 0.07813 0.51469 0.0
C522 C 0.9634 0.10775 0.48615 0.0
C523 C 0.9211 0.07345 0.46155 0.0
C524 C 0.88054 0.00709 0.46445 0.0
H525 H 0.6846 0.75168 0.78954 0.0
H526 H 0.81375 0.95468 0.78034 0.0
H527 H 0.8683 0.95373 0.82904 0.0
H528 H 0.65867 0.76381 0.86517 0.0
H529 H 0.64852 0.68883 0.87787 0.0
H530 H 0.62992 0.69771 0.83843 0.0
H531 H 0.70754 0.66493 0.81577 0.0
H532 H 0.72561 0.65073 0.85456 0.0
H533 H 0.78911 0.70366 0.82901 0.0
H534 H 0.90059 0.93063 0.88262 0.0
H535 H 0.90369 0.88849 0.93513 0.0
H536 H 0.74454 0.70515 0.90931 0.0
C537 C 0.72628 0.7955 0.79686 0.0
C538 C 0.74604 0.85298 0.78081 0.0
C539 C 0.7987 0.90991 0.7921 0.0
C540 C 0.82982 0.90976 0.81973 0.0
C541 C 0.80688 0.85249 0.83587 0.0
C542 C 0.75615 0.79646 0.82467 0.0
C543 C 0.73263 0.74367 0.84833 0.0
C544 C 0.6634 0.72224 0.85799 0.0
C545 C 0.73914 0.68744 0.83618 0.0
C546 C 0.77858 0.77806 0.8745 0.0
C547 C 0.82167 0.84061 0.86706 0.0
C548 C 0.86728 0.88159 0.88853 0.0
C549 C 0.86868 0.8576 0.91822 0.0
C550 C 0.824 0.79393 0.92592 0.0
C551 C 0.77893 0.75406 0.90379 0.0
H552 H 0.08746 0.78272 0.22924 0.0
H553 H 0.01063 0.89627 0.26672 0.0
H554 H 0.98624 0.91595 0.21298 0.0
H555 H 0.1545 0.87605 0.15448 0.0
H556 H 0.13332 0.80315 0.13393 0.0
H557 H 0.15565 0.81136 0.17438 0.0
H558 H 0.04925 0.70786 0.18612 0.0
H559 H 0.02573 0.70089 0.14611 0.0
H560 H 0.97499 0.70379 0.17607 0.0
H561 H 0.95307 0.9054 0.15637 0.0
H562 H 0.91175 0.86373 0.1038 0.0
H563 H 0.01724 0.76231 0.10384 0.0
C564 C 0.06776 0.81372 0.22597 0.0
C565 C 0.05161 0.83886 0.25167 0.0
C566 C 0.02392 0.87746 0.24699 0.0
C567 C 0.01029 0.88898 0.21664 0.0
C568 C 0.02582 0.86229 0.19156 0.0
C569 C 0.05476 0.82605 0.19605 0.0
C570 C 0.05995 0.79616 0.16612 0.0
C571 C 0.13003 0.82334 0.15665 0.0
C572 C 0.02539 0.7229 0.16877 0.0
C573 C 0.02613 0.81812 0.14418 0.0
C574 C 0.00773 0.85717 0.15901 0.0
C575 C 0.96866 0.87628 0.14433 0.0
C576 C 0.94551 0.85249 0.11441 0.0
C577 C 0.96142 0.80996 0.09959 0.0
C578 C 0.00504 0.79566 0.11415 0.0
H579 H 0.10249 0.93899 0.60742 0.0
H580 H 0.19128 0.13005 0.5699 0.0
H581 H 0.13457 0.08784 0.52052 0.0
H582 H 0.12698 0.87095 0.55169 0.0
H583 H 0.05311 0.79606 0.55022 0.0
H584 H 0.07647 0.84077 0.58559 0.0
H585 H 0.96982 0.84148 0.58685 0.0
H586 H 0.94575 0.79647 0.55104 0.0
H587 H 0.94649 0.87105 0.55391 0.0
H588 H 0.1055 0.027 0.4723 0.0
H589 H 0.1032 0.95409 0.43166 0.0
H590 H 0.02707 0.79962 0.49823 0.0
C591 C 0.10705 0.97204 0.58935 0.0
C592 C 0.15163 0.03754 0.59236 0.0
C593 C 0.15756 0.07952 0.56808 0.0
C594 C 0.12502 0.05593 0.53993 0.0
C595 C 0.0858 0.9903 0.53651 0.0
C596 C 0.07502 0.94888 0.56096 0.0
C597 C 0.04125 0.88037 0.54975 0.0
C598 C 0.07666 0.84514 0.55987 0.0
C599 C 0.9717 0.84528 0.56105 0.0
C600 C 0.04419 0.89054 0.51486 0.0
C601 C 0.06692 0.95398 0.50773 0.0
C602 C 0.08532 0.9769 0.47748 0.0
C603 C 0.08421 0.93519 0.45448 0.0
C604 C 0.06485 0.87123 0.46185 0.0
C605 C 0.04073 0.84795 0.49184 0.0
loop_
_geom_bond_atom_site_label_1
_geom_bond_atom_site_label_2
_geom_bond_distance
_geom_bond_site_symmetry_2
_ccdc_geom_bond_type
Zn0 O6 1.969 . S
Zn0 O7 1.965 1_556 S
Zn0 O11 2.024 . S
Zn0 O16 1.969 . S
Zn1 O8 1.969 . S
Zn1 O14 1.969 . S
Zn1 O15 1.965 . S
Zn1 O17 2.024 . S
C2 O3 1.229 . S
C2 O11 1.058 . S
O3 C2 1.229 . S
C4 O5 1.229 . S
C4 O17 1.058 . S
O5 C4 1.229 . S
O6 Zn0 1.969 . S
O6 C9 1.267 . S
O7 Zn0 1.965 1_554 S
O7 C18 1.260 . S
O8 Zn1 1.969 . S
O8 C18 1.258 . S
C9 O6 1.267 . S
C9 O10 1.228 . S
O10 C9 1.228 . S
O11 Zn0 2.024 . S
O11 C2 1.058 . S
C12 O13 1.228 . S
C12 O14 1.267 . S
O13 C12 1.228 . S
O14 Zn1 1.969 . S
O14 C12 1.267 . S
O15 Zn1 1.965 . S
O15 C19 1.260 . S
O16 Zn0 1.969 . S
O16 C19 1.258 1_556 S
O17 Zn1 2.024 . S
O17 C4 1.058 . S
C18 O7 1.260 . S
C18 O8 1.258 . S
C19 O15 1.260 . S
C19 O16 1.258 1_554 S
Zn20 O26 1.969 . S
Zn20 O27 1.965 . S
Zn20 O31 2.024 . S
Zn20 O36 1.969 . S
Zn21 O28 1.969 . S
Zn21 O34 1.969 . S
Zn21 O35 1.965 . S
Zn21 O37 2.024 . S
C22 O23 1.229 . S
C22 O31 1.058 . S
O23 C22 1.229 . S
C24 O25 1.229 . S
C24 O37 1.058 . S
O25 C24 1.229 . S
O26 Zn20 1.969 . S
O26 C29 1.267 . S
O27 Zn20 1.965 . S
O27 C38 1.260 . S
O28 Zn21 1.969 . S
O28 C38 1.258 . S
C29 O26 1.267 . S
C29 O30 1.228 . S
O30 C29 1.228 . S
O31 Zn20 2.024 . S
O31 C22 1.058 . S
C32 O33 1.228 . S
C32 O34 1.267 . S
O33 C32 1.228 . S
O34 Zn21 1.969 . S
O34 C32 1.267 . S
O35 Zn21 1.965 . S
O35 C39 1.260 . S
O36 Zn20 1.969 . S
O36 C39 1.258 . S
O37 Zn21 2.024 . S
O37 C24 1.058 . S
C38 O27 1.260 . S
C38 O28 1.258 . S
C39 O35 1.260 . S
C39 O36 1.258 . S
Zn40 O46 1.969 . S
Zn40 O47 1.965 . S
Zn40 O51 2.024 . S
Zn40 O56 1.969 . S
Zn41 O48 1.969 . S
Zn41 O54 1.969 . S
Zn41 O55 1.965 . S
Zn41 O57 2.024 . S
C42 O43 1.229 . S
C42 O51 1.058 . S
O43 C42 1.229 . S
C44 O45 1.229 . S
C44 O57 1.058 . S
O45 C44 1.229 . S
O46 Zn40 1.969 . S
O46 C49 1.267 . S
O47 Zn40 1.965 . S
O47 C58 1.260 . S
O48 Zn41 1.969 . S
O48 C58 1.258 . S
C49 O46 1.267 . S
C49 O50 1.228 . S
O50 C49 1.228 . S
O51 Zn40 2.024 . S
O51 C42 1.058 . S
C52 O53 1.228 . S
C52 O54 1.267 . S
O53 C52 1.228 . S
O54 Zn41 1.969 . S
O54 C52 1.267 . S
O55 Zn41 1.965 . S
O55 C59 1.260 . S
O56 Zn40 1.969 . S
O56 C59 1.258 . S
O57 Zn41 2.024 . S
O57 C44 1.058 . S
C58 O47 1.260 . S
C58 O48 1.258 . S
C59 O55 1.260 . S
C59 O56 1.258 . S
Zn60 O66 1.969 . S
Zn60 O67 1.965 1_556 S
Zn60 O71 2.024 . S
Zn60 O76 1.969 . S
Zn61 O68 1.969 . S
Zn61 O74 1.969 . S
Zn61 O75 1.965 . S
Zn61 O77 2.024 . S
C62 O63 1.229 . S
C62 O71 1.058 . S
O63 C62 1.229 . S
C64 O65 1.229 . S
C64 O77 1.058 . S
O65 C64 1.229 . S
O66 Zn60 1.969 . S
O66 C69 1.267 . S
O67 Zn60 1.965 1_554 S
O67 C78 1.260 . S
O68 Zn61 1.969 . S
O68 C78 1.258 . S
C69 O66 1.267 . S
C69 O70 1.228 . S
O70 C69 1.228 . S
O71 Zn60 2.024 . S
O71 C62 1.058 . S
C72 O73 1.228 . S
C72 O74 1.267 . S
O73 C72 1.228 . S
O74 Zn61 1.969 . S
O74 C72 1.267 . S
O75 Zn61 1.965 . S
O75 C79 1.260 . S
O76 Zn60 1.969 . S
O76 C79 1.258 1_556 S
O77 Zn61 2.024 . S
O77 C64 1.058 . S
C78 O67 1.260 . S
C78 O68 1.258 . S
C79 O75 1.260 . S
C79 O76 1.258 1_554 S
Zn80 O86 1.969 . S
Zn80 O87 1.965 . S
Zn80 O91 2.024 . S
Zn80 O96 1.969 . S
Zn81 O88 1.969 . S
Zn81 O94 1.969 . S
Zn81 O95 1.965 . S
Zn81 O97 2.024 . S
C82 O83 1.229 . S
C82 O91 1.058 . S
O83 C82 1.229 . S
C84 O85 1.229 . S
C84 O97 1.058 . S
O85 C84 1.229 . S
O86 Zn80 1.969 . S
O86 C89 1.267 . S
O87 Zn80 1.965 . S
O87 C98 1.260 . S
O88 Zn81 1.969 . S
O88 C98 1.258 . S
C89 O86 1.267 . S
C89 O90 1.228 . S
O90 C89 1.228 . S
O91 Zn80 2.024 . S
O91 C82 1.058 . S
C92 O93 1.228 . S
C92 O94 1.267 . S
O93 C92 1.228 . S
O94 Zn81 1.969 . S
O94 C92 1.267 . S
O95 Zn81 1.965 . S
O95 C99 1.260 . S
O96 Zn80 1.969 . S
O96 C99 1.258 . S
O97 Zn81 2.024 . S
O97 C84 1.058 . S
C98 O87 1.260 . S
C98 O88 1.258 . S
C99 O95 1.260 . S
C99 O96 1.258 . S
Zn100 O106 1.969 . S
Zn100 O107 1.965 . S
Zn100 O111 2.024 . S
Zn100 O116 1.969 . S
Zn101 O108 1.969 . S
Zn101 O114 1.969 . S
Zn101 O115 1.965 . S
Zn101 O117 2.024 . S
C102 O103 1.229 . S
C102 O111 1.058 . S
O103 C102 1.229 . S
C104 O105 1.229 . S
C104 O117 1.058 . S
O105 C104 1.229 . S
O106 Zn100 1.969 . S
O106 C109 1.267 . S
O107 Zn100 1.965 . S
O107 C118 1.260 . S
O108 Zn101 1.969 . S
O108 C118 1.258 . S
C109 O106 1.267 . S
C109 O110 1.228 . S
O110 C109 1.228 . S
O111 Zn100 2.024 . S
O111 C102 1.058 . S
C112 O113 1.228 . S
C112 O114 1.267 . S
O113 C112 1.228 . S
O114 Zn101 1.969 . S
O114 C112 1.267 . S
O115 Zn101 1.965 . S
O115 C119 1.260 . S
O116 Zn100 1.969 . S
O116 C119 1.258 . S
O117 Zn101 2.024 . S
O117 C104 1.058 . S
C118 O107 1.260 . S
C118 O108 1.258 . S
C119 O115 1.260 . S
C119 O116 1.258 . S
H120 C132 0.930 . S
H121 C134 0.930 . S
H122 C135 0.930 . S
H123 C139 0.959 . S
H124 C139 0.959 . S
H125 C139 0.961 . S
H126 C140 0.960 . S
H127 C140 0.961 . S
H128 C140 0.959 . S
H129 C143 0.929 . S
H130 C144 0.931 . S
H131 C146 0.930 . S
C132 H120 0.930 . S
C132 C133 1.399 . S
C132 C137 1.399 . S
C133 C132 1.399 . S
C133 C134 1.376 . S
C134 H121 0.930 . S
C134 C133 1.376 . S
C134 C135 1.388 . S
C135 H122 0.930 . S
C135 C134 1.388 . S
C135 C136 1.390 . S
C136 C135 1.390 . S
C136 C137 1.394 . S
C136 C142 1.465 . S
C137 C132 1.399 . S
C137 C136 1.394 . S
C137 C138 1.516 . S
C138 C137 1.516 . S
C138 C139 1.502 . S
C138 C140 1.561 . S
C138 C141 1.526 . S
C139 H123 0.959 . S
C139 H124 0.959 . S
C139 H125 0.961 . S
C139 C138 1.502 . S
C140 H126 0.960 . S
C140 H127 0.961 . S
C140 H128 0.959 . S
C140 C138 1.561 . S
C141 C138 1.526 . S
C141 C142 1.396 . S
C141 C146 1.390 . S
C142 C136 1.465 . S
C142 C141 1.396 . S
C142 C143 1.399 . S
C143 H129 0.929 . S
C143 C142 1.399 . S
C143 C144 1.385 . S
C144 H130 0.931 . S
C144 C143 1.385 . S
C144 C145 1.389 . S
C145 C144 1.389 . S
C145 C146 1.387 . S
C146 H131 0.930 . S
C146 C141 1.390 . S
C146 C145 1.387 . S
H147 C159 0.930 . S
H148 C161 0.930 . S
H149 C162 0.930 . S
H150 C166 0.959 . S
H151 C166 0.959 . S
H152 C166 0.961 . S
H153 C167 0.960 . S
H154 C167 0.961 . S
H155 C167 0.959 . S
H156 C170 0.929 . S
H157 C171 0.931 . S
H158 C173 0.930 . S
C159 H147 0.930 . S
C159 C160 1.399 . S
C159 C164 1.399 . S
C160 C159 1.399 . S
C160 C161 1.376 . S
C161 H148 0.930 . S
C161 C160 1.376 . S
C161 C162 1.388 . S
C162 H149 0.930 . S
C162 C161 1.388 . S
C162 C163 1.390 . S
C163 C162 1.390 . S
C163 C164 1.394 . S
C163 C169 1.465 . S
C164 C159 1.399 . S
C164 C163 1.394 . S
C164 C165 1.516 . S
C165 C164 1.516 . S
C165 C166 1.502 . S
C165 C167 1.561 . S
C165 C168 1.526 . S
C166 H150 0.959 . S
C166 H151 0.959 . S
C166 H152 0.961 . S
C166 C165 1.502 . S
C167 H153 0.960 . S
C167 H154 0.961 . S
C167 H155 0.959 . S
C167 C165 1.561 . S
C168 C165 1.526 . S
C168 C169 1.396 . S
C168 C173 1.390 . S
C169 C163 1.465 . S
C169 C168 1.396 . S
C169 C170 1.399 . S
C170 H156 0.929 . S
C170 C169 1.399 . S
C170 C171 1.385 . S
C171 H157 0.931 . S
C171 C170 1.385 . S
C171 C172 1.389 . S
C172 C171 1.389 . S
C172 C173 1.387 . S
C173 H158 0.930 . S
C173 C168 1.390 . S
C173 C172 1.387 . S
H174 C186 0.930 . S
H175 C188 0.930 . S
H176 C189 0.930 . S
H177 C193 0.959 . S
H178 C193 0.959 . S
H179 C193 0.961 . S
H180 C194 0.960 . S
H181 C194 0.961 . S
H182 C194 0.959 . S
H183 C197 0.929 . S
H184 C198 0.931 . S
H185 C200 0.930 . S
C186 H174 0.930 . S
C186 C187 1.399 . S
C186 C191 1.399 . S
C187 C186 1.399 . S
C187 C188 1.376 . S
C188 H175 0.930 . S
C188 C187 1.376 . S
C188 C189 1.388 . S
C189 H176 0.930 . S
C189 C188 1.388 . S
C189 C190 1.390 . S
C190 C189 1.390 . S
C190 C191 1.394 . S
C190 C196 1.465 . S
C191 C186 1.399 . S
C191 C190 1.394 . S
C191 C192 1.516 . S
C192 C191 1.516 . S
C192 C193 1.502 . S
C192 C194 1.561 . S
C192 C195 1.526 . S
C193 H177 0.959 . S
C193 H178 0.959 . S
C193 H179 0.961 . S
C193 C192 1.502 . S
C194 H180 0.960 . S
C194 H181 0.961 . S
C194 H182 0.959 . S
C194 C192 1.561 . S
C195 C192 1.526 . S
C195 C196 1.396 . S
C195 C200 1.390 . S
C196 C190 1.465 . S
C196 C195 1.396 . S
C196 C197 1.399 . S
C197 H183 0.929 . S
C197 C196 1.399 . S
C197 C198 1.385 . S
C198 H184 0.931 . S
C198 C197 1.385 . S
C198 C199 1.389 . S
C199 C198 1.389 . S
C199 C200 1.387 . S
C200 H185 0.930 . S
C200 C195 1.390 . S
C200 C199 1.387 . S
H201 C213 0.930 . S
H202 C215 0.930 . S
H203 C216 0.930 . S
H204 C220 0.959 . S
H205 C220 0.959 . S
H206 C220 0.961 . S
H207 C221 0.960 . S
H208 C221 0.961 . S
H209 C221 0.959 . S
H210 C224 0.929 . S
H211 C225 0.931 . S
H212 C227 0.930 . S
C213 H201 0.930 . S
C213 C214 1.399 . S
C213 C218 1.399 . S
C214 C213 1.399 . S
C214 C215 1.376 . S
C215 H202 0.930 . S
C215 C214 1.376 . S
C215 C216 1.388 . S
C216 H203 0.930 . S
C216 C215 1.388 . S
C216 C217 1.390 . S
C217 C216 1.390 . S
C217 C218 1.394 . S
C217 C223 1.465 . S
C218 C213 1.399 . S
C218 C217 1.394 . S
C218 C219 1.516 . S
C219 C218 1.516 . S
C219 C220 1.502 . S
C219 C221 1.561 . S
C219 C222 1.526 . S
C220 H204 0.959 . S
C220 H205 0.959 . S
C220 H206 0.961 . S
C220 C219 1.502 . S
C221 H207 0.960 . S
C221 H208 0.961 . S
C221 H209 0.959 . S
C221 C219 1.561 . S
C222 C219 1.526 . S
C222 C223 1.396 . S
C222 C227 1.390 . S
C223 C217 1.465 . S
C223 C222 1.396 . S
C223 C224 1.399 . S
C224 H210 0.929 . S
C224 C223 1.399 . S
C224 C225 1.385 . S
C225 H211 0.931 . S
C225 C224 1.385 . S
C225 C226 1.389 . S
C226 C225 1.389 . S
C226 C227 1.387 . S
C227 H212 0.930 . S
C227 C222 1.390 . S
C227 C226 1.387 . S
H228 C240 0.930 . S
H229 C242 0.930 . S
H230 C243 0.930 . S
H231 C247 0.959 . S
H232 C247 0.959 . S
H233 C247 0.961 . S
H234 C248 0.960 . S
H235 C248 0.961 . S
H236 C248 0.959 . S
H237 C251 0.929 . S
H238 C252 0.931 . S
H239 C254 0.930 . S
C240 H228 0.930 . S
C240 C241 1.399 . S
C240 C245 1.399 . S
C241 C240 1.399 . S
C241 C242 1.376 . S
C242 H229 0.930 . S
C242 C241 1.376 . S
C242 C243 1.388 . S
C243 H230 0.930 . S
C243 C242 1.388 . S
C243 C244 1.390 . S
C244 C243 1.390 . S
C244 C245 1.394 . S
C244 C250 1.465 . S
C245 C240 1.399 . S
C245 C244 1.394 . S
C245 C246 1.516 . S
C246 C245 1.516 . S
C246 C247 1.502 . S
C246 C248 1.561 . S
C246 C249 1.526 . S
C247 H231 0.959 . S
C247 H232 0.959 . S
C247 H233 0.961 . S
C247 C246 1.502 . S
C248 H234 0.960 . S
C248 H235 0.961 . S
C248 H236 0.959 . S
C248 C246 1.561 . S
C249 C246 1.526 . S
C249 C250 1.396 . S
C249 C254 1.390 . S
C250 C244 1.465 . S
C250 C249 1.396 . S
C250 C251 1.399 . S
C251 H237 0.929 . S
C251 C250 1.399 . S
C251 C252 1.385 . S
C252 H238 0.931 . S
C252 C251 1.385 . S
C252 C253 1.389 . S
C253 C252 1.389 . S
C253 C254 1.387 . S
C254 H239 0.930 . S
C254 C249 1.390 . S
C254 C253 1.387 . S
H255 C267 0.930 . S
H256 C269 0.930 . S
H257 C270 0.930 . S
H258 C274 0.959 . S
H259 C274 0.959 . S
H260 C274 0.961 . S
H261 C275 0.960 . S
H262 C275 0.961 . S
H263 C275 0.959 . S
H264 C278 0.929 . S
H265 C279 0.931 . S
H266 C281 0.930 . S
C267 H255 0.930 . S
C267 C268 1.399 . S
C267 C272 1.399 . S
C268 C267 1.399 . S
C268 C269 1.376 . S
C269 H256 0.930 . S
C269 C268 1.376 . S
C269 C270 1.388 . S
C270 H257 0.930 . S
C270 C269 1.388 . S
C270 C271 1.390 . S
C271 C270 1.390 . S
C271 C272 1.394 . S
C271 C277 1.465 . S
C272 C267 1.399 . S
C272 C271 1.394 . S
C272 C273 1.516 . S
C273 C272 1.516 . S
C273 C274 1.502 . S
C273 C275 1.561 . S
C273 C276 1.526 . S
C274 H258 0.959 . S
C274 H259 0.959 . S
C274 H260 0.961 . S
C274 C273 1.502 . S
C275 H261 0.960 . S
C275 H262 0.961 . S
C275 H263 0.959 . S
C275 C273 1.561 . S
C276 C273 1.526 . S
C276 C277 1.396 . S
C276 C281 1.390 . S
C277 C271 1.465 . S
C277 C276 1.396 . S
C277 C278 1.399 . S
C278 H264 0.929 . S
C278 C277 1.399 . S
C278 C279 1.385 . S
C279 H265 0.931 . S
C279 C278 1.385 . S
C279 C280 1.389 . S
C280 C279 1.389 . S
C280 C281 1.387 . S
C281 H266 0.930 . S
C281 C276 1.390 . S
C281 C280 1.387 . S
H282 C294 0.930 1_556 S
H283 C296 0.930 . S
H284 C297 0.930 . S
H285 C301 0.959 . S
H286 C301 0.959 . S
H287 C301 0.961 . S
H288 C302 0.960 . S
H289 C302 0.961 . S
H290 C302 0.959 . S
H291 C305 0.929 . S
H292 C306 0.931 . S
H293 C308 0.930 1_556 S
C294 H282 0.930 1_554 S
C294 C295 1.399 . S
C294 C299 1.399 . S
C295 C294 1.399 . S
C295 C296 1.376 . S
C296 H283 0.930 . S
C296 C295 1.376 . S
C296 C297 1.388 . S
C297 H284 0.930 . S
C297 C296 1.388 . S
C297 C298 1.390 . S
C298 C297 1.390 . S
C298 C299 1.394 . S
C298 C304 1.465 . S
C299 C294 1.399 . S
C299 C298 1.394 . S
C299 C300 1.516 1_554 S
C300 C299 1.516 1_556 S
C300 C301 1.502 . S
C300 C302 1.561 . S
C300 C303 1.526 1_556 S
C301 H285 0.959 . S
C301 H286 0.959 . S
C301 H287 0.961 . S
C301 C300 1.502 . S
C302 H288 0.960 . S
C302 H289 0.961 . S
C302 H290 0.959 . S
C302 C300 1.561 . S
C303 C300 1.526 1_554 S
C303 C304 1.396 . S
C303 C308 1.390 . S
C304 C298 1.465 . S
C304 C303 1.396 . S
C304 C305 1.399 . S
C305 H291 0.929 . S
C305 C304 1.399 . S
C305 C306 1.385 . S
C306 H292 0.931 . S
C306 C305 1.385 . S
C306 C307 1.389 . S
C307 C306 1.389 . S
C307 C308 1.387 . S
C308 H293 0.930 1_554 S
C308 C303 1.390 . S
C308 C307 1.387 . S
H309 C321 0.930 . S
H310 C323 0.930 . S
H311 C324 0.930 1_655 S
H312 C328 0.959 . S
H313 C328 0.959 . S
H314 C328 0.961 . S
H315 C329 0.960 . S
H316 C329 0.961 . S
H317 C329 0.959 . S
H318 C332 0.929 . S
H319 C333 0.931 . S
H320 C335 0.930 . S
C321 H309 0.930 . S
C321 C322 1.399 . S
C321 C326 1.399 . S
C322 C321 1.399 . S
C322 C323 1.376 . S
C323 H310 0.930 . S
C323 C322 1.376 . S
C323 C324 1.388 . S
C324 H311 0.930 1_455 S
C324 C323 1.388 . S
C324 C325 1.391 1_455 S
C325 C324 1.391 1_655 S
C325 C326 1.393 1_655 S
C325 C331 1.465 . S
C326 C321 1.399 . S
C326 C325 1.393 1_455 S
C326 C327 1.516 . S
C327 C326 1.516 . S
C327 C328 1.502 . S
C327 C329 1.561 1_455 S
C327 C330 1.526 1_455 S
C328 H312 0.959 . S
C328 H313 0.959 . S
C328 H314 0.961 . S
C328 C327 1.502 . S
C329 H315 0.960 . S
C329 H316 0.961 . S
C329 H317 0.959 . S
C329 C327 1.561 1_655 S
C330 C327 1.526 1_655 S
C330 C331 1.396 . S
C330 C335 1.390 . S
C331 C325 1.465 . S
C331 C330 1.396 . S
C331 C332 1.399 . S
C332 H318 0.929 . S
C332 C331 1.399 . S
C332 C333 1.385 . S
C333 H319 0.931 . S
C333 C332 1.385 . S
C333 C334 1.389 . S
C334 C333 1.389 . S
C334 C335 1.387 . S
C335 H320 0.930 . S
C335 C330 1.390 . S
C335 C334 1.387 . S
H336 C348 0.930 . S
H337 C350 0.930 . S
H338 C351 0.930 . S
H339 C355 0.959 . S
H340 C355 0.959 . S
H341 C355 0.961 . S
H342 C356 0.960 . S
H343 C356 0.961 . S
H344 C356 0.959 . S
H345 C359 0.929 . S
H346 C360 0.931 . S
H347 C362 0.930 . S
C348 H336 0.930 . S
C348 C349 1.399 . S
C348 C353 1.399 . S
C349 C348 1.399 . S
C349 C350 1.376 . S
C350 H337 0.930 . S
C350 C349 1.376 . S
C350 C351 1.388 . S
C351 H338 0.930 . S
C351 C350 1.388 . S
C351 C352 1.390 . S
C352 C351 1.390 . S
C352 C353 1.394 . S
C352 C358 1.465 1_545 S
C353 C348 1.399 . S
C353 C352 1.394 . S
C353 C354 1.516 . S
C354 C353 1.516 . S
C354 C355 1.502 . S
C354 C356 1.561 1_545 S
C354 C357 1.526 1_545 S
C355 H339 0.959 . S
C355 H340 0.959 . S
C355 H341 0.961 . S
C355 C354 1.502 . S
C356 H342 0.960 . S
C356 H343 0.961 . S
C356 H344 0.959 . S
C356 C354 1.561 1_565 S
C357 C354 1.526 1_565 S
C357 C358 1.396 . S
C357 C362 1.390 . S
C358 C352 1.465 1_565 S
C358 C357 1.396 . S
C358 C359 1.399 . S
C359 H345 0.929 . S
C359 C358 1.399 . S
C359 C360 1.385 . S
C360 H346 0.931 . S
C360 C359 1.385 . S
C360 C361 1.389 . S
C361 C360 1.389 . S
C361 C362 1.387 . S
C362 H347 0.930 . S
C362 C357 1.390 . S
C362 C361 1.387 . S
H363 C375 0.930 . S
H364 C377 0.930 . S
H365 C378 0.930 . S
H366 C382 0.959 . S
H367 C382 0.959 . S
H368 C382 0.961 . S
H369 C383 0.960 . S
H370 C383 0.961 . S
H371 C383 0.959 . S
H372 C386 0.929 . S
H373 C387 0.931 . S
H374 C389 0.930 . S
C375 H363 0.930 . S
C375 C376 1.399 . S
C375 C380 1.399 . S
C376 C375 1.399 . S
C376 C377 1.376 . S
C377 H364 0.930 . S
C377 C376 1.376 . S
C377 C378 1.388 . S
C378 H365 0.930 . S
C378 C377 1.388 . S
C378 C379 1.390 . S
C379 C378 1.390 . S
C379 C380 1.394 . S
C379 C385 1.465 . S
C380 C375 1.399 . S
C380 C379 1.394 . S
C380 C381 1.516 . S
C381 C380 1.516 . S
C381 C382 1.502 . S
C381 C383 1.561 . S
C381 C384 1.526 . S
C382 H366 0.959 . S
C382 H367 0.959 . S
C382 H368 0.961 . S
C382 C381 1.502 . S
C383 H369 0.960 . S
C383 H370 0.961 . S
C383 H371 0.959 . S
C383 C381 1.561 . S
C384 C381 1.526 . S
C384 C385 1.396 . S
C384 C389 1.390 . S
C385 C379 1.465 . S
C385 C384 1.396 . S
C385 C386 1.399 . S
C386 H372 0.929 . S
C386 C385 1.399 . S
C386 C387 1.385 . S
C387 H373 0.931 . S
C387 C386 1.385 . S
C387 C388 1.389 . S
C388 C387 1.389 . S
C388 C389 1.387 . S
C389 H374 0.930 . S
C389 C384 1.390 . S
C389 C388 1.387 . S
H390 C402 0.930 . S
H391 C404 0.930 . S
H392 C405 0.930 . S
H393 C409 0.959 . S
H394 C409 0.959 . S
H395 C409 0.961 . S
H396 C410 0.960 . S
H397 C410 0.961 . S
H398 C410 0.959 1_455 S
H399 C413 0.929 . S
H400 C414 0.931 . S
H401 C416 0.930 . S
C402 H390 0.930 . S
C402 C403 1.399 . S
C402 C407 1.399 . S
C403 C402 1.399 . S
C403 C404 1.376 1_554 S
C404 H391 0.930 . S
C404 C403 1.376 1_556 S
C404 C405 1.388 . S
C405 H392 0.930 . S
C405 C404 1.388 . S
C405 C406 1.390 . S
C406 C405 1.390 . S
C406 C407 1.394 1_556 S
C406 C412 1.465 . S
C407 C402 1.399 . S
C407 C406 1.394 1_554 S
C407 C408 1.516 1_455 S
C408 C407 1.516 1_655 S
C408 C409 1.502 . S
C408 C410 1.561 . S
C408 C411 1.526 . S
C409 H393 0.959 . S
C409 H394 0.959 . S
C409 H395 0.961 . S
C409 C408 1.502 . S
C410 H396 0.960 . S
C410 H397 0.961 . S
C410 H398 0.959 1_655 S
C410 C408 1.561 . S
C411 C408 1.526 . S
C411 C412 1.396 1_654 S
C411 C416 1.390 . S
C412 C406 1.465 . S
C412 C411 1.396 1_456 S
C412 C413 1.399 . S
C413 H399 0.929 . S
C413 C412 1.399 . S
C413 C414 1.385 1_455 S
C414 H400 0.931 . S
C414 C413 1.385 1_655 S
C414 C415 1.389 1_556 S
C415 C414 1.389 1_554 S
C415 C416 1.387 . S
C416 H401 0.930 . S
C416 C411 1.390 . S
C416 C415 1.387 . S
H417 C429 0.930 . S
H418 C431 0.930 . S
H419 C432 0.930 . S
H420 C436 0.959 . S
H421 C436 0.959 . S
H422 C436 0.961 . S
H423 C437 0.960 . S
H424 C437 0.961 . S
H425 C437 0.959 . S
H426 C440 0.929 . S
H427 C441 0.931 . S
H428 C443 0.930 . S
C429 H417 0.930 . S
C429 C430 1.399 . S
C429 C434 1.399 . S
C430 C429 1.399 . S
C430 C431 1.376 . S
C431 H418 0.930 . S
C431 C430 1.376 . S
C431 C432 1.388 . S
C432 H419 0.930 . S
C432 C431 1.388 . S
C432 C433 1.390 . S
C433 C432 1.390 . S
C433 C434 1.394 . S
C433 C439 1.465 1_565 S
C434 C429 1.399 . S
C434 C433 1.394 . S
C434 C435 1.516 . S
C435 C434 1.516 . S
C435 C436 1.500 1_565 S
C435 C437 1.563 . S
C435 C438 1.526 1_565 S
C436 H420 0.959 . S
C436 H421 0.959 . S
C436 H422 0.961 . S
C436 C435 1.500 1_545 S
C437 H423 0.960 . S
C437 H424 0.961 . S
C437 H425 0.959 . S
C437 C435 1.563 . S
C438 C435 1.526 1_545 S
C438 C439 1.396 . S
C438 C443 1.390 . S
C439 C433 1.465 1_545 S
C439 C438 1.396 . S
C439 C440 1.399 . S
C440 H426 0.929 . S
C440 C439 1.399 . S
C440 C441 1.385 . S
C441 H427 0.931 . S
C441 C440 1.385 . S
C441 C442 1.389 . S
C442 C441 1.389 . S
C442 C443 1.387 . S
C443 H428 0.930 . S
C443 C438 1.390 . S
C443 C442 1.387 . S
H444 C456 0.930 . S
H445 C458 0.930 . S
H446 C459 0.930 . S
H447 C463 0.959 . S
H448 C463 0.959 . S
H449 C463 0.961 . S
H450 C464 0.960 . S
H451 C464 0.961 . S
H452 C464 0.959 . S
H453 C467 0.929 . S
H454 C468 0.931 . S
H455 C470 0.930 . S
C456 H444 0.930 . S
C456 C457 1.399 . S
C456 C461 1.399 . S
C457 C456 1.399 . S
C457 C458 1.376 . S
C458 H445 0.930 . S
C458 C457 1.376 . S
C458 C459 1.388 . S
C459 H446 0.930 . S
C459 C458 1.388 . S
C459 C460 1.390 . S
C460 C459 1.390 . S
C460 C461 1.394 . S
C460 C466 1.465 . S
C461 C456 1.399 . S
C461 C460 1.394 . S
C461 C462 1.516 . S
C462 C461 1.516 . S
C462 C463 1.502 . S
C462 C464 1.561 . S
C462 C465 1.526 . S
C463 H447 0.959 . S
C463 H448 0.959 . S
C463 H449 0.961 . S
C463 C462 1.502 . S
C464 H450 0.960 . S
C464 H451 0.961 . S
C464 H452 0.959 . S
C464 C462 1.561 . S
C465 C462 1.526 . S
C465 C466 1.396 . S
C465 C470 1.390 . S
C466 C460 1.465 . S
C466 C465 1.396 . S
C466 C467 1.399 . S
C467 H453 0.929 . S
C467 C466 1.399 . S
C467 C468 1.385 . S
C468 H454 0.931 . S
C468 C467 1.385 . S
C468 C469 1.389 . S
C469 C468 1.389 . S
C469 C470 1.387 . S
C470 H455 0.930 . S
C470 C465 1.390 . S
C470 C469 1.387 . S
H471 C483 0.930 . S
H472 C485 0.930 . S
H473 C486 0.930 . S
H474 C490 0.959 . S
H475 C490 0.959 . S
H476 C490 0.961 . S
H477 C491 0.960 1_655 S
H478 C491 0.961 . S
H479 C491 0.959 1_655 S
H480 C494 0.929 . S
H481 C495 0.931 . S
H482 C497 0.930 . S
C483 H471 0.930 . S
C483 C484 1.399 . S
C483 C488 1.399 1_655 S
C484 C483 1.399 . S
C484 C485 1.376 . S
C485 H472 0.930 . S
C485 C484 1.376 . S
C485 C486 1.388 . S
C486 H473 0.930 . S
C486 C485 1.388 . S
C486 C487 1.390 . S
C487 C486 1.390 . S
C487 C488 1.394 1_655 S
C487 C493 1.465 1_655 S
C488 C483 1.399 1_455 S
C488 C487 1.394 1_455 S
C488 C489 1.516 . S
C489 C488 1.516 . S
C489 C490 1.502 . S
C489 C491 1.561 . S
C489 C492 1.526 . S
C490 H474 0.959 . S
C490 H475 0.959 . S
C490 H476 0.961 . S
C490 C489 1.502 . S
C491 H477 0.960 1_455 S
C491 H478 0.961 . S
C491 H479 0.959 1_455 S
C491 C489 1.561 . S
C492 C489 1.526 . S
C492 C493 1.396 . S
C492 C497 1.390 . S
C493 C487 1.465 1_455 S
C493 C492 1.396 . S
C493 C494 1.399 . S
C494 H480 0.929 . S
C494 C493 1.399 . S
C494 C495 1.385 . S
C495 H481 0.931 . S
C495 C494 1.385 . S
C495 C496 1.389 . S
C496 C495 1.389 . S
C496 C497 1.387 . S
C497 H482 0.930 . S
C497 C492 1.390 . S
C497 C496 1.387 . S
H498 C510 0.930 . S
H499 C512 0.930 . S
H500 C513 0.930 . S
H501 C517 0.959 . S
H502 C517 0.959 . S
H503 C517 0.961 . S
H504 C518 0.960 . S
H505 C518 0.961 . S
H506 C518 0.959 . S
H507 C521 0.929 . S
H508 C522 0.931 . S
H509 C524 0.930 . S
C510 H498 0.930 . S
C510 C511 1.399 . S
C510 C515 1.399 . S
C511 C510 1.399 . S
C511 C512 1.376 1_565 S
C512 H499 0.930 . S
C512 C511 1.376 1_545 S
C512 C513 1.388 . S
C513 H500 0.930 . S
C513 C512 1.388 . S
C513 C514 1.390 . S
C514 C513 1.390 . S
C514 C515 1.394 1_545 S
C514 C520 1.465 . S
C515 C510 1.399 . S
C515 C514 1.394 1_565 S
C515 C516 1.516 . S
C516 C515 1.516 . S
C516 C517 1.502 . S
C516 C518 1.561 . S
C516 C519 1.526 1_565 S
C517 H501 0.959 . S
C517 H502 0.959 . S
C517 H503 0.961 . S
C517 C516 1.502 . S
C518 H504 0.960 . S
C518 H505 0.961 . S
C518 H506 0.959 . S
C518 C516 1.561 . S
C519 C516 1.526 1_545 S
C519 C520 1.396 . S
C519 C524 1.390 . S
C520 C514 1.465 . S
C520 C519 1.396 . S
C520 C521 1.399 . S
C521 H507 0.929 . S
C521 C520 1.399 . S
C521 C522 1.385 . S
C522 H508 0.931 . S
C522 C521 1.385 . S
C522 C523 1.389 . S
C523 C522 1.389 . S
C523 C524 1.387 . S
C524 H509 0.930 . S
C524 C519 1.390 . S
C524 C523 1.387 . S
H525 C537 0.930 . S
H526 C539 0.930 . S
H527 C540 0.930 . S
H528 C544 0.959 . S
H529 C544 0.959 . S
H530 C544 0.961 . S
H531 C545 0.960 . S
H532 C545 0.961 . S
H533 C545 0.959 . S
H534 C548 0.929 . S
H535 C549 0.931 . S
H536 C551 0.930 . S
C537 H525 0.930 . S
C537 C538 1.399 . S
C537 C542 1.399 . S
C538 C537 1.399 . S
C538 C539 1.376 . S
C539 H526 0.930 . S
C539 C538 1.376 . S
C539 C540 1.388 . S
C540 H527 0.930 . S
C540 C539 1.388 . S
C540 C541 1.390 . S
C541 C540 1.390 . S
C541 C542 1.394 . S
C541 C547 1.465 . S
C542 C537 1.399 . S
C542 C541 1.394 . S
C542 C543 1.516 . S
C543 C542 1.516 . S
C543 C544 1.502 . S
C543 C545 1.561 . S
C543 C546 1.526 . S
C544 H528 0.959 . S
C544 H529 0.959 . S
C544 H530 0.961 . S
C544 C543 1.502 . S
C545 H531 0.960 . S
C545 H532 0.961 . S
C545 H533 0.959 . S
C545 C543 1.561 . S
C546 C543 1.526 . S
C546 C547 1.396 . S
C546 C551 1.390 . S
C547 C541 1.465 . S
C547 C546 1.396 . S
C547 C548 1.399 . S
C548 H534 0.929 . S
C548 C547 1.399 . S
C548 C549 1.385 . S
C549 H535 0.931 . S
C549 C548 1.385 . S
C549 C550 1.389 . S
C550 C549 1.389 . S
C550 C551 1.387 . S
C551 H536 0.930 . S
C551 C546 1.390 . S
C551 C550 1.387 . S
H552 C564 0.930 . S
H553 C566 0.930 . S
H554 C567 0.930 . S
H555 C571 0.959 . S
H556 C571 0.959 . S
H557 C571 0.961 . S
H558 C572 0.960 . S
H559 C572 0.961 . S
H560 C572 0.959 . S
H561 C575 0.929 . S
H562 C576 0.931 . S
H563 C578 0.930 . S
C564 H552 0.930 . S
C564 C565 1.399 . S
C564 C569 1.399 . S
C565 C564 1.399 . S
C565 C566 1.376 . S
C566 H553 0.930 . S
C566 C565 1.376 . S
C566 C567 1.388 1_455 S
C567 H554 0.930 . S
C567 C566 1.388 1_655 S
C567 C568 1.390 . S
C568 C567 1.390 . S
C568 C569 1.394 1_655 S
C568 C574 1.465 . S
C569 C564 1.399 . S
C569 C568 1.394 1_455 S
C569 C570 1.516 1_455 S
C570 C569 1.516 1_655 S
C570 C571 1.502 1_655 S
C570 C572 1.561 . S
C570 C573 1.526 . S
C571 H555 0.959 . S
C571 H556 0.959 . S
C571 H557 0.961 . S
C571 C570 1.502 1_455 S
C572 H558 0.960 . S
C572 H559 0.961 . S
C572 H560 0.959 . S
C572 C570 1.561 . S
C573 C570 1.526 . S
C573 C574 1.396 . S
C573 C578 1.390 . S
C574 C568 1.465 . S
C574 C573 1.396 . S
C574 C575 1.399 . S
C575 H561 0.929 . S
C575 C574 1.399 . S
C575 C576 1.385 . S
C576 H562 0.931 . S
C576 C575 1.385 . S
C576 C577 1.389 . S
C577 C576 1.389 . S
C577 C578 1.387 . S
C578 H563 0.930 . S
C578 C573 1.390 . S
C578 C577 1.387 . S
H579 C591 0.930 1_565 S
H580 C593 0.930 . S
H581 C594 0.930 . S
H582 C598 0.959 . S
H583 C598 0.959 . S
H584 C598 0.961 . S
H585 C599 0.960 . S
H586 C599 0.961 . S
H587 C599 0.959 . S
H588 C602 0.929 . S
H589 C603 0.931 . S
H590 C605 0.930 . S
C591 H579 0.930 1_545 S
C591 C592 1.399 . S
C591 C596 1.399 1_545 S
C592 C591 1.399 . S
C592 C593 1.376 . S
C593 H580 0.930 . S
C593 C592 1.376 . S
C593 C594 1.388 . S
C594 H581 0.930 . S
C594 C593 1.388 . S
C594 C595 1.390 . S
C595 C594 1.390 . S
C595 C596 1.394 1_545 S
C595 C601 1.465 1_545 S
C596 C591 1.399 1_565 S
C596 C595 1.394 1_565 S
C596 C597 1.516 . S
C597 C596 1.516 . S
C597 C598 1.502 . S
C597 C599 1.561 . S
C597 C600 1.526 . S
C598 H582 0.959 . S
C598 H583 0.959 . S
C598 H584 0.961 . S
C598 C597 1.502 . S
C599 H585 0.960 . S
C599 H586 0.961 . S
C599 H587 0.959 . S
C599 C597 1.561 . S
C600 C597 1.526 . S
C600 C601 1.396 . S
C600 C605 1.390 . S
C601 C595 1.465 1_565 S
C601 C600 1.396 . S
C601 C602 1.399 1_565 S
C602 H588 0.929 . S
C602 C601 1.399 1_545 S
C602 C603 1.385 1_545 S
C603 H589 0.931 . S
C603 C602 1.385 1_565 S
C603 C604 1.389 . S
C604 C603 1.389 . S
C604 C605 1.387 . S
C605 H590 0.930 . S
C605 C600 1.390 . S
C605 C604 1.387 . S
C133 C82 0.957 . S
C145 C12 1.106 . S
C160 C102 0.966 . S
C172 C32 1.043 . S
C187 C2 0.958 . S
C199 C52 1.050 . S
C214 C22 1.089 . S
C226 C72 1.015 . S
C241 C42 1.040 . S
C253 C92 1.006 . S
C268 C62 0.969 . S
C280 C112 1.041 . S
C295 C18 1.062 . S
C307 C78 1.107 . S
C322 C98 1.135 . S
C334 C38 1.088 . S
C349 C118 1.131 . S
C361 C58 1.096 . S
C376 C59 1.172 . S
C388 C119 1.070 . S
C403 C19 1.069 . S
C415 C79 1.166 . S
C430 C99 1.090 . S
C442 C39 1.133 . S
C457 C104 0.874 . S
C469 C9 0.954 . S
C484 C29 0.964 . S
C496 C4 0.926 . S
C511 C49 0.979 . S
C523 C24 0.894 . S
C538 C44 1.066 . S
C550 C69 1.088 . S
C565 C89 1.086 . S
C577 C64 1.036 . S
C592 C109 1.016 . S
C604 C84 0.999 . S
