# Generated by pormake.
# Topology sxb, (6)-cn, num edge types: 1
# Building blocks:
#     Node 0, Type 0, BuildingBlock: CUWYAW_clean_sbu_0, # of connection points: 6
#     Node 1, Type 0, BuildingBlock: CUWYAW_clean_sbu_0, # of connection points: 6
#     Node 2, Type 0, BuildingBlock: CUWYAW_clean_sbu_0, # of connection points: 6
#     Node 3, Type 0, BuildingBlock: CUWYAW_clean_sbu_0, # of connection points: 6
#     Edge 4, Type (0, 0), BuildingBlock: XIVTED_clean_linker_0, # of connection points: 2
#     Edge 5, Type (0, 0), BuildingBlock: XIVTED_clean_linker_0, # of connection points: 2
#     Edge 6, Type (0, 0), BuildingBlock: XIVTED_clean_linker_0, # of connection points: 2
#     Edge 7, Type (0, 0), BuildingBlock: XIVTED_clean_linker_0, # of connection points: 2
#     Edge 8, Type (0, 0), BuildingBlock: XIVTED_clean_linker_0, # of connection points: 2
#     Edge 9, Type (0, 0), BuildingBlock: XIVTED_clean_linker_0, # of connection points: 2
#     Edge 10, Type (0, 0), BuildingBlock: XIVTED_clean_linker_0, # of connection points: 2
#     Edge 11, Type (0, 0), BuildingBlock: XIVTED_clean_linker_0, # of connection points: 2
#     Edge 12, Type (0, 0), BuildingBlock: XIVTED_clean_linker_0, # of connection points: 2
#     Edge 13, Type (0, 0), BuildingBlock: XIVTED_clean_linker_0, # of connection points: 2
#     Edge 14, Type (0, 0), BuildingBlock: XIVTED_clean_linker_0, # of connection points: 2
#     Edge 15, Type (0, 0), BuildingBlock: XIVTED_clean_linker_0, # of connection points: 2
# Relax obj value: 0.436
# Max RMSD: 0.114
# Mean RMSD: 0.091
data_MOF--net-sxb--node1-CUWYAW_clean_sbu_0--edge1-XIVTED_clean_linker_0
_symmetry_space_group_name_H-M    P1
_symmetry_Int_Tables_number       1
_symmetry_cell_setting            triclinic
loop_
_symmetry_equiv_pos_as_xyz
'x, y, z'
_cell_length_a     17.793607
_cell_length_b     36.191514
_cell_length_c     30.600443
_cell_angle_alpha  95.324067
_cell_angle_beta   94.62046
_cell_angle_gamma 67.901252
loop_
_atom_site_label
_atom_site_type_symbol
_atom_site_fract_x
_atom_site_fract_y
_atom_site_fract_z
_atom_type_partial_charge
C0 C 0.25991 0.07511 0.95577 0.0
Eu1 Eu 0.1422 0.05738 0.98103 0.0
C2 C 0.29617 0.06405 0.91287 0.0
C3 C 0.27929 1.03505 0.88457 0.0
C4 C 0.30904 1.02563 0.8425 0.0
C5 C 0.35697 1.04486 0.82806 0.0
C6 C 0.37181 0.0748 0.85632 0.0
C7 C 0.34125 0.08443 0.89829 0.0
C8 C 0.11747 0.05077 0.06745 0.0
C9 C 0.16614 0.96359 0.9799 0.0
C10 C 0.88165 1.02934 0.97837 0.0
Eu11 Eu 1.00601 0.0505 0.98116 0.0
C12 C 0.84527 1.01618 0.93773 0.0
C13 C 0.77492 1.04338 0.9179 0.0
C14 C 0.74918 1.03499 0.87526 0.0
C15 C 0.79257 0.99897 0.85158 0.0
C16 C 0.86065 0.97078 0.87202 0.0
C17 C 0.88721 0.97941 0.91464 0.0
C18 C 1.03691 0.05738 0.89572 0.0
C19 C 0.98103 0.1447 -0.01277 0.0
O20 O 0.18428 0.09932 0.95395 0.0
O21 O 0.27194 1.04573 0.98052 0.0
O22 O 0.18569 1.03488 0.04852 0.0
O23 O 1.06314 0.07164 0.04079 0.0
O24 O 0.19963 0.98757 0.96666 0.0
O25 O 0.09064 0.98273 -0.00685 0.0
O26 O 0.8748 0.06656 0.98106 0.0
O27 O 0.95444 1.00587 -0.0093 0.0
O28 O 0.9714 0.07808 0.91516 0.0
O29 O 0.08593 1.03449 0.92264 0.0
O30 O 0.94569 0.12016 -0.00308 0.0
O31 O 1.05841 0.12629 0.97689 0.0
H32 H 0.24333 1.01951 0.89524 0.0
H33 H 0.2961 1.00265 0.8217 0.0
H34 H 0.41007 0.08967 0.84691 0.0
H35 H 0.3536 0.1074 0.91949 0.0
H36 H 0.74138 0.07188 0.93477 0.0
H37 H 0.69455 0.05666 0.86092 0.0
H38 H 0.89398 0.94246 0.85479 0.0
H39 H 0.94201 0.95779 0.92885 0.0
C40 C 0.99114 0.16475 0.46466 0.0
Eu41 Eu 1.04166 0.08957 0.48083 0.0
C42 C 1.03153 0.19125 0.45533 0.0
C43 C 1.00082 0.2312 0.47177 0.0
C44 C 1.04772 0.25454 0.47163 0.0
C45 C 0.12589 0.23793 0.45524 0.0
C46 C 0.1537 0.19876 0.43577 0.0
C47 C 0.10679 0.17554 0.43585 0.0
C48 C 1.04794 0.0679 0.56495 0.0
C49 C 0.25666 0.05209 0.48276 0.0
C50 C 0.1611 0.93756 0.49786 0.0
Eu51 Eu 0.11139 1.01266 0.48169 0.0
C52 C 0.11965 0.91176 0.50806 0.0
C53 C 0.14516 0.87258 0.48921 0.0
C54 C 0.09563 0.85063 0.4897 0.0
C55 C 1.02004 0.86783 0.50902 0.0
C56 C 0.9981 0.90584 0.5312 0.0
C57 C 1.04748 0.92779 0.53056 0.0
C58 C 0.10502 1.0347 0.39768 0.0
C59 C 0.89656 1.04999 0.48005 0.0
O60 O 0.9942 0.13624 0.43462 0.0
O61 O 1.00695 0.15211 0.50412 0.0
O62 O 0.98365 0.0914 0.54458 0.0
O63 O 0.10654 0.05528 0.53949 0.0
O64 O 0.18541 0.08409 0.47799 0.0
O65 O 0.24304 1.01858 0.48747 0.0
O66 O 0.16048 0.96587 0.52768 0.0
O67 O 0.14423 0.95021 0.4584 0.0
O68 O 0.16952 1.01134 0.41803 0.0
O69 O 1.04642 1.0469 0.42313 0.0
O70 O 0.96784 1.01807 0.485 0.0
O71 O 0.91013 0.08347 0.47502 0.0
H72 H 0.94274 0.24361 0.48694 0.0
H73 H 1.02464 0.28486 0.4863 0.0
H74 H 0.21403 0.18505 0.42333 0.0
H75 H 0.13146 0.14464 0.42307 0.0
H76 H 0.2006 0.85999 0.47155 0.0
H77 H 0.11374 0.82149 0.47209 0.0
H78 H 0.94068 0.91946 0.54691 0.0
H79 H 1.02683 0.95809 0.54536 0.0
C80 C 0.76315 0.57918 -0.01087 0.0
Eu81 Eu 0.63884 0.55784 -0.01575 0.0
C82 C 0.80585 0.58609 0.03074 0.0
C83 C 0.87136 0.55435 0.04815 0.0
C84 C 0.90159 0.55792 0.09111 0.0
C85 C 0.86754 0.59342 0.1177 0.0
C86 C 0.80428 0.62583 0.09982 0.0
C87 C 0.7736 0.6222 0.05679 0.0
C88 C 0.60832 0.54929 0.0692 0.0
C89 C 0.66576 0.4635 0.97942 0.0
C90 C 0.38552 0.53077 0.005 0.0
Eu91 Eu 0.50329 0.5503 -0.01707 0.0
C92 C 0.35595 0.535 0.0492 0.0
C93 C 0.37897 0.55891 0.08208 0.0
C94 C 0.35436 0.56229 0.12489 0.0
C95 C 0.30547 0.54203 0.13556 0.0
C96 C 0.28481 0.51696 0.1026 0.0
C97 C 0.31023 0.51336 0.05982 0.0
C98 C 0.52993 0.55782 0.89704 0.0
C99 C 0.47803 0.64411 -0.01608 0.0
O100 O 0.7691 0.54246 0.97892 0.0
O101 O 0.68899 0.60426 -0.0171 0.0
O102 O 0.6742 0.52944 0.04972 0.0
O103 O 0.5585 0.57224 0.0426 0.0
O104 O 0.70083 0.48809 0.96954 0.0
O105 O 0.58832 0.48187 -0.01035 0.0
O106 O 0.4595 0.50533 0.001 0.0
O107 O 0.37339 0.56402 -0.01283 0.0
O108 O 0.46122 0.57341 0.91544 0.0
O109 O 0.58342 0.53688 0.92392 0.0
O110 O 0.44516 0.62006 -0.00235 0.0
O111 O 0.55325 0.62498 0.97027 0.0
H112 H 0.89778 0.52621 0.02903 0.0
H113 H 0.95264 0.53289 0.10328 0.0
H114 H 0.77791 0.65378 0.11925 0.0
H115 H 0.72292 0.6473 0.04446 0.0
H116 H 0.41521 0.5754 0.07431 0.0
H117 H 0.37153 0.58169 0.1493 0.0
H118 H 0.24566 0.50155 0.10914 0.0
H119 H 0.29309 0.49425 0.03495 0.0
C120 C 0.48413 0.66886 0.46517 0.0
Eu121 Eu 0.53402 0.59407 0.48248 0.0
C122 C 0.52407 0.69325 0.44947 0.0
C123 C 0.50202 0.73311 0.46567 0.0
C124 C 0.55107 0.75415 0.45911 0.0
C125 C 0.62275 0.73536 0.43633 0.0
C126 C 0.64065 0.6965 0.41688 0.0
C127 C 0.5918 0.67545 0.42363 0.0
C128 C 0.53745 0.57287 0.56657 0.0
C129 C 0.74863 0.55632 0.48425 0.0
C130 C 0.65616 0.44162 0.49987 0.0
Eu131 Eu 0.60297 0.51695 0.48384 0.0
C132 C 0.62054 0.41379 0.51115 0.0
C133 C 0.65827 0.37312 0.49863 0.0
C134 C 0.61764 0.3473 0.50171 0.0
C135 C 0.53877 0.3621 0.51715 0.0
C136 C 0.50372 0.4024 0.53258 0.0
C137 C 0.54438 0.42813 0.52952 0.0
C138 C 0.59885 0.53864 0.39987 0.0
C139 C 0.38818 0.5548 0.48192 0.0
O140 O 0.47642 0.64085 0.43725 0.0
O141 O 0.5097 0.65629 0.50424 0.0
O142 O 0.47411 0.59666 0.5458 0.0
O143 O 0.59675 0.55987 0.54159 0.0
O144 O 0.67772 0.58829 0.47857 0.0
O145 O 0.7344 0.52314 0.48991 0.0
O146 O 0.65418 0.47015 0.52966 0.0
O147 O 0.6352 0.45451 0.46066 0.0
O148 O 0.66255 0.51493 0.42043 0.0
O149 O 0.53991 0.55118 0.42502 0.0
O150 O 0.45909 0.5226 0.48671 0.0
O151 O 0.40237 0.58819 0.47727 0.0
H152 H 0.45002 0.74706 0.48585 0.0
H153 H 0.5362 0.78393 0.47484 0.0
H154 H 0.69498 0.68159 0.3987 0.0
H155 H 0.6097 0.64457 0.41087 0.0
H156 H 0.71722 0.36178 0.48441 0.0
H157 H 0.64612 0.31625 0.49003 0.0
H158 H 0.44261 0.41474 0.5441 0.0
H159 H 0.51451 0.45956 0.53928 0.0
H160 H 0.31885 0.69459 0.0093 0.0
H161 H 0.32533 0.91307 0.95468 0.0
H162 H 0.52576 0.70599 0.95743 0.0
H163 H 0.1179 0.90169 0.00593 0.0
H164 H 0.3973 0.83977 0.95547 0.0
H165 H 0.24675 0.76789 0.00843 0.0
C166 C 0.3502 0.71195 -0.0024 0.0
C167 C 0.43094 0.6916 -0.01658 0.0
C168 C 0.33604 0.85289 0.96665 0.0
C169 C 0.34433 0.78 -0.01768 0.0
C170 C 0.29383 0.89572 0.96622 0.0
C171 C 0.21298 0.91607 0.98025 0.0
C172 C 0.29948 0.82766 0.9813 0.0
C173 C 0.17906 0.88933 -0.00539 0.0
C174 C 0.30792 0.75478 -0.00287 0.0
C175 C 0.46468 0.71833 0.96887 0.0
N176 N 0.22129 0.84796 -0.0053 0.0
N177 N 0.42242 0.7597 0.96878 0.0
H178 H 0.61111 0.40277 -0.00013 0.0
H179 H 1.03596 0.20546 0.96713 0.0
H180 H 0.83009 0.41195 0.96151 0.0
H181 H 0.81689 0.19631 0.00538 0.0
H182 H 0.96411 0.27865 0.96509 0.0
H183 H 0.68305 0.3296 0.00201 0.0
C184 C 0.67426 0.38999 -0.0083 0.0
C185 C 0.71214 0.41602 0.9803 0.0
C186 C 0.93098 0.26102 0.97405 0.0
C187 C 0.79923 0.32782 -0.01705 0.0
C188 C 0.97283 0.21825 0.97532 0.0
C189 C 0.9349 0.19223 -0.01334 0.0
C190 C 0.84789 0.28044 -0.0159 0.0
C191 C 0.85145 0.21326 -0.00351 0.0
C192 C 0.71615 0.34723 -0.00698 0.0
C193 C 0.79558 0.395 0.97047 0.0
N194 N 0.81238 0.25472 -0.00501 0.0
N195 N 0.8347 0.35354 0.97201 0.0
H196 H 0.14922 0.2787 0.53105 0.0
H197 H 0.52639 0.31425 0.44522 0.0
H198 H 0.23383 0.2433 0.39963 0.0
H199 H 0.43396 0.3559 0.57427 0.0
H200 H 0.42604 0.28341 0.43009 0.0
H201 H 0.25513 0.30581 0.54825 0.0
C202 C 0.18919 0.27733 0.50554 0.0
C203 C 0.18267 0.25894 0.46376 0.0
C204 C 0.42811 0.29897 0.46187 0.0
C205 C 0.30532 0.28876 0.48364 0.0
C206 C 0.48612 0.31611 0.47077 0.0
C207 C 0.48822 0.33768 0.51106 0.0
C208 C 0.37174 0.3036 0.49343 0.0
C209 C 0.43361 0.33985 0.54263 0.0
C210 C 0.25029 0.29232 0.51557 0.0
C211 C 0.23726 0.25705 0.43231 0.0
N212 N 0.37702 0.32324 0.533 0.0
N213 N 0.29662 0.27169 0.44296 0.0
H214 H 0.85987 0.90355 0.48505 0.0
H215 H 0.78527 0.69877 0.45367 0.0
H216 H 1.04439 0.78868 0.51171 0.0
H217 H 0.59996 0.81362 0.42776 0.0
H218 H 0.88323 0.73075 0.47053 0.0
H219 H 0.76415 0.87103 0.46306 0.0
C220 C 0.87984 0.87151 0.48701 0.0
C221 C 0.96 0.84871 0.50049 0.0
C222 C 0.82137 0.74894 0.46075 0.0
C223 C 0.85146 0.81124 0.47414 0.0
C224 C 0.76559 0.73064 0.45053 0.0
C225 C 0.68436 0.75367 0.43928 0.0
C226 C 0.79561 0.79056 0.45995 0.0
C227 C 0.66188 0.79492 0.43673 0.0
C228 C 0.82543 0.85292 0.47389 0.0
C229 C 0.9832 0.80724 0.50129 0.0
N230 N 0.71722 0.81215 0.44734 0.0
N231 N 0.92907 0.78977 0.48818 0.0
H232 H 0.42441 0.96697 0.79413 0.0
H233 H 0.7437 1.04612 0.78162 0.0
H234 H 0.39483 0.08684 0.76785 0.0
H235 H 0.76632 0.93113 0.82127 0.0
H236 H 0.63532 1.04468 0.72819 0.0
H237 H 0.54604 0.94127 0.7528 0.0
C238 C 0.4414 0.98803 0.77835 0.0
C239 C 0.40301 1.02945 0.78755 0.0
C240 C 0.66612 1.0189 0.7472 0.0
C241 C 0.54507 1.0 0.74247 0.0
C242 C 0.72787 1.01983 0.77785 0.0
C243 C 0.75975 0.98991 0.80773 0.0
C244 C 0.63428 0.98887 0.74837 0.0
C245 C 0.74025 0.95576 0.80022 0.0
C246 C 0.51155 0.97318 0.75462 0.0
C247 C 0.42651 0.05475 0.76447 0.0
N248 N 0.67647 0.95673 0.77223 0.0
N249 N 0.4981 1.03976 0.74434 0.0
H250 H 0.32188 0.11554 0.47255 0.0
H251 H 0.83151 0.9865 0.49051 0.0
H252 H 0.42262 0.99019 0.49185 0.0
H253 H 0.73054 0.11181 0.47097 0.0
H254 H 0.69133 0.98699 0.49113 0.0
H255 H 0.46212 0.11499 0.47198 0.0
C256 C 0.37177 0.08733 0.47681 0.0
C257 C 0.35141 0.05287 0.48236 0.0
C258 C 0.69799 1.01489 0.48662 0.0
C259 C 0.52824 0.05193 0.48161 0.0
C260 C 0.78158 1.01469 0.48621 0.0
C261 C 0.80186 1.04917 0.48055 0.0
C262 C 0.62509 1.05003 0.48139 0.0
C263 C 0.72583 0.08349 0.4755 0.0
C264 C 0.45539 0.0871 0.47643 0.0
C265 C 0.4274 1.01851 0.48739 0.0
N266 N 0.64622 0.08278 0.47605 0.0
N267 N 0.50705 1.01919 0.48688 0.0
H268 H 0.91724 0.53954 0.18171 0.0
H269 H 0.24734 0.61513 0.18211 0.0
H270 H 0.90473 0.65663 0.15509 0.0
H271 H 0.26841 0.49287 0.187 0.0
H272 H 0.12925 0.63674 0.22602 0.0
H273 H 1.03079 0.53377 0.23448 0.0
C274 C 0.93659 0.56464 0.18812 0.0
C275 C 0.9058 0.59738 0.1618 0.0
C276 C 0.16135 0.60497 0.219 0.0
C277 C 1.03617 0.59055 0.22095 0.0
C278 C 0.22944 0.59245 0.19375 0.0
C279 C 0.26386 0.55228 0.17773 0.0
C280 C 0.12582 0.57741 0.22588 0.0
C281 C 0.2395 0.52454 0.19573 0.0
C282 C 1.00108 0.56148 0.21853 0.0
C283 C 0.92961 0.62992 0.17309 0.0
N284 N 0.16973 0.53772 0.21751 0.0
N285 N 0.99548 0.62517 0.20085 0.0
H286 H 0.22539 0.61745 0.47195 0.0
H287 H 0.91146 0.4938 0.49463 0.0
H288 H 0.31815 0.49239 0.49254 0.0
H289 H 0.81856 0.61862 0.4728 0.0
H290 H 1.05168 0.49276 0.49414 0.0
H291 H 0.08512 0.6185 0.47228 0.0
C292 C 0.21884 0.58956 0.47662 0.0
C293 C 0.29284 0.55472 0.48214 0.0
C294 C 1.00182 0.52087 0.48939 0.0
C295 C 0.11587 0.55584 0.48268 0.0
C296 C 0.91797 0.52164 0.48967 0.0
C297 C 0.84394 0.5564 0.48387 0.0
C298 C 1.02087 0.55531 0.48319 0.0
C299 C 0.86722 0.59015 0.4777 0.0
C300 C 0.13497 0.59034 0.4768 0.0
C301 C 0.26951 0.52092 0.4879 0.0
N302 N 0.94879 0.58852 0.47762 0.0
N303 N 0.18793 0.52258 0.48797 0.0
H304 H 0.97241 0.07639 0.34269 0.0
H305 H 0.23784 1.01275 0.1269 0.0
H306 H 0.22812 1.0047 0.34136 0.0
H307 H 0.9837 0.0876 0.11994 0.0
H308 H 0.23168 1.0105 0.20574 0.0
H309 H 0.97131 0.08202 0.26261 0.0
C310 C 1.02824 0.06186 0.32572 0.0
C311 C 0.10045 1.03987 0.34914 0.0
C312 C 0.17692 1.02757 0.18731 0.0
C313 C 0.09968 1.0462 0.2572 0.0
C314 C 0.18044 1.02891 0.14193 0.0
C315 C 0.11132 0.05054 0.11625 0.0
C316 C 0.1035 1.04791 0.20818 0.0
C317 C 1.03872 0.07062 0.1382 0.0
C318 C 1.02758 0.06509 0.27992 0.0
C319 C 0.17083 1.02185 0.32509 0.0
N320 N 1.03668 0.06881 0.18274 0.0
N321 N 0.16854 1.02536 0.28096 0.0
H322 H 0.93513 0.11006 0.8398 0.0
H323 H 0.17603 1.02027 0.61852 0.0
H324 H 0.15296 1.00406 0.83981 0.0
H325 H 0.93021 0.10587 0.62302 0.0
H326 H 0.17786 1.01584 0.69891 0.0
H327 H 0.94125 0.11119 0.76075 0.0
C328 C 0.9848 0.08699 0.82323 0.0
C329 C 1.04415 0.05719 0.84705 0.0
C330 C 0.1236 1.03552 0.68218 0.0
C331 C 1.05183 0.05834 0.75501 0.0
C332 C 0.12258 1.03814 0.63626 0.0
C333 C 1.05291 0.06362 0.61365 0.0
C334 C 1.05472 0.05885 0.70584 0.0
C335 C 0.98546 0.08587 0.63863 0.0
C336 C 0.98822 0.08765 0.77778 0.0
C337 C 0.10679 1.02813 0.8232 0.0
N338 N 0.98828 0.0831 0.6829 0.0
N339 N 0.1092 1.02948 0.77863 0.0
H340 H 0.47138 0.58641 0.34635 0.0
H341 H 0.7106 0.4963 0.12473 0.0
H342 H 0.71696 0.50053 0.34195 0.0
H343 H 0.4936 0.60277 0.12552 0.0
H344 H 0.70546 0.49514 0.20391 0.0
H345 H 0.46968 0.59083 0.26602 0.0
C346 C 0.52482 0.56849 0.32863 0.0
C347 C 0.59436 0.54292 0.35123 0.0
C348 C 0.65851 0.51878 0.18701 0.0
C349 C 0.5927 0.54768 0.25911 0.0
C350 C 0.66136 0.51946 0.14151 0.0
C351 C 0.60188 0.54938 0.11789 0.0
C352 C 0.59538 0.54821 0.20997 0.0
C353 C 0.53991 0.57862 0.14199 0.0
C354 C 0.52388 0.5711 0.28275 0.0
C355 C 0.66183 0.52059 0.3263 0.0
N356 N 0.53804 0.57723 0.18656 0.0
N357 N 0.65908 0.52335 0.28203 0.0
H358 H 0.41264 0.60393 0.6215 0.0
H359 H 0.66472 0.51992 0.84595 0.0
H360 H 0.66825 0.53166 0.62299 0.0
H361 H 0.4113 0.59566 0.83649 0.0
H362 H 0.67055 0.52175 0.76569 0.0
H363 H 0.41395 0.59898 0.70038 0.0
C364 C 0.46939 0.58692 0.63841 0.0
C365 C 0.54049 0.56836 0.61514 0.0
C366 C 0.61372 0.53789 0.78124 0.0
C367 C 0.54256 0.56242 0.70707 0.0
C368 C 0.61034 0.53684 0.82713 0.0
C369 C 0.53727 0.55756 0.84833 0.0
C370 C 0.54351 0.55983 0.7562 0.0
C371 C 0.46899 0.57906 0.82197 0.0
C372 C 0.4701 0.58409 0.68379 0.0
C373 C 0.61192 0.54659 0.63938 0.0
N374 N 0.47384 0.57957 0.7778 0.0
N375 N 0.61119 0.54427 0.68389 0.0
loop_
_geom_bond_atom_site_label_1
_geom_bond_atom_site_label_2
_geom_bond_distance
_geom_bond_site_symmetry_2
_ccdc_geom_bond_type
C0 Eu1 2.835 1_565 S
C0 C2 1.500 . S
C0 O20 1.257 1_554 S
C0 O21 1.260 1_565 S
Eu1 C0 2.835 1_545 S
Eu1 O20 2.473 1_544 S
Eu1 O21 2.480 . S
Eu1 O22 2.430 . S
Eu1 O23 2.670 1_455 S
Eu1 O24 2.394 1_545 S
Eu1 O29 2.355 1_544 S
Eu1 O31 2.374 1_455 S
C2 C0 1.500 . S
C2 C3 1.377 . S
C2 C7 1.377 1_554 S
C3 C2 1.377 . S
C3 C4 1.395 . S
C3 H32 0.931 . S
C4 C3 1.395 . S
C4 C5 1.383 1_554 S
C4 H33 0.931 . S
C5 C4 1.383 1_556 S
C5 C6 1.394 . S
C6 C5 1.394 . S
C6 C7 1.378 . S
C6 H34 0.931 . S
C7 C2 1.377 1_556 S
C7 C6 1.378 . S
C7 H35 0.931 . S
C8 O22 1.259 . S
C8 O23 1.270 1_455 S
C9 O24 1.251 . S
C9 O25 1.251 1_554 S
C10 Eu11 2.835 1_545 S
C10 C12 1.500 . S
C10 O26 1.257 1_556 S
C10 O27 1.260 1_545 S
Eu11 C10 2.835 1_565 S
Eu11 O23 2.355 1_566 S
Eu11 O25 2.374 1_655 S
Eu11 O26 2.473 1_566 S
Eu11 O27 2.480 . S
Eu11 O28 2.430 . S
Eu11 O29 2.670 1_655 S
Eu11 O30 2.394 1_565 S
C12 C10 1.500 . S
C12 C13 1.377 . S
C12 C17 1.377 1_556 S
C13 C12 1.377 . S
C13 C14 1.395 . S
C13 H36 0.931 . S
C14 C13 1.395 . S
C14 C15 1.383 1_556 S
C14 H37 0.931 . S
C15 C14 1.383 1_554 S
C15 C16 1.394 . S
C16 C15 1.394 . S
C16 C17 1.378 . S
C16 H38 0.931 . S
C17 C12 1.377 1_554 S
C17 C16 1.378 . S
C17 H39 0.931 . S
C18 O28 1.259 . S
C18 O29 1.270 1_655 S
C19 O30 1.251 . S
C19 O31 1.251 1_556 S
O20 C0 1.257 1_556 S
O20 Eu1 2.473 1_566 S
O21 C0 1.260 1_545 S
O21 Eu1 2.480 . S
O22 Eu1 2.430 . S
O22 C8 1.259 . S
O23 Eu1 2.670 1_655 S
O23 C8 1.270 1_655 S
O23 Eu11 2.355 1_544 S
O24 Eu1 2.394 1_565 S
O24 C9 1.251 . S
O25 C9 1.251 1_556 S
O25 Eu11 2.374 1_455 S
O26 C10 1.257 1_554 S
O26 Eu11 2.473 1_544 S
O27 C10 1.260 1_565 S
O27 Eu11 2.480 . S
O28 Eu11 2.430 . S
O28 C18 1.259 . S
O29 Eu1 2.355 1_566 S
O29 Eu11 2.670 1_455 S
O29 C18 1.270 1_455 S
O30 Eu11 2.394 1_545 S
O30 C19 1.251 . S
O31 Eu1 2.374 1_655 S
O31 C19 1.251 1_554 S
H32 C3 0.931 . S
H33 C4 0.931 . S
H34 C6 0.931 . S
H35 C7 0.931 . S
H36 C13 0.931 . S
H37 C14 0.931 . S
H38 C16 0.931 . S
H39 C17 0.931 . S
C40 Eu41 2.835 1_455 S
C40 C42 1.500 . S
C40 O60 1.257 . S
C40 O61 1.260 . S
Eu41 C40 2.835 1_655 S
Eu41 O60 2.473 1_655 S
Eu41 O61 2.480 1_655 S
Eu41 O62 2.430 . S
Eu41 O63 2.670 1_545 S
Eu41 O64 2.394 1_655 S
Eu41 O69 2.355 1_655 S
Eu41 O71 2.374 . S
C42 C40 1.500 . S
C42 C43 1.377 . S
C42 C47 1.377 . S
C43 C42 1.377 . S
C43 C44 1.395 . S
C43 H72 0.931 . S
C44 C43 1.395 . S
C44 C45 1.383 . S
C44 H73 0.931 . S
C45 C44 1.383 . S
C45 C46 1.394 . S
C46 C45 1.394 . S
C46 C47 1.378 . S
C46 H74 0.931 . S
C47 C42 1.377 . S
C47 C46 1.378 . S
C47 H75 0.931 . S
C48 O62 1.260 1_455 S
C48 O63 1.270 1_445 S
C49 O64 1.251 1_565 S
C49 O65 1.251 . S
C50 Eu51 2.835 1_655 S
C50 C52 1.500 . S
C50 O66 1.257 . S
C50 O67 1.260 . S
Eu51 C50 2.835 1_455 S
Eu51 O63 2.355 1_455 S
Eu51 O65 2.374 . S
Eu51 O66 2.473 1_455 S
Eu51 O67 2.480 1_455 S
Eu51 O68 2.430 . S
Eu51 O69 2.670 1_565 S
Eu51 O70 2.394 1_455 S
C52 C50 1.500 . S
C52 C53 1.377 . S
C52 C57 1.377 . S
C53 C52 1.377 . S
C53 C54 1.395 . S
C53 H76 0.931 . S
C54 C53 1.395 . S
C54 C55 1.383 . S
C54 H77 0.931 . S
C55 C54 1.383 . S
C55 C56 1.394 . S
C56 C55 1.394 . S
C56 C57 1.378 . S
C56 H78 0.931 . S
C57 C52 1.377 . S
C57 C56 1.378 . S
C57 H79 0.931 . S
C58 O68 1.257 . S
C58 O69 1.272 1_565 S
C59 O70 1.251 1_545 S
C59 O71 1.251 . S
O60 C40 1.257 . S
O60 Eu41 2.473 1_455 S
O61 C40 1.260 . S
O61 Eu41 2.480 1_455 S
O62 Eu41 2.430 . S
O62 C48 1.260 1_655 S
O63 Eu41 2.670 1_565 S
O63 C48 1.270 1_665 S
O63 Eu51 2.355 1_655 S
O64 Eu41 2.394 1_455 S
O64 C49 1.251 1_545 S
O65 C49 1.251 . S
O65 Eu51 2.374 . S
O66 C50 1.257 . S
O66 Eu51 2.473 1_655 S
O67 C50 1.260 . S
O67 Eu51 2.480 1_655 S
O68 Eu51 2.430 . S
O68 C58 1.257 . S
O69 Eu41 2.355 1_455 S
O69 Eu51 2.670 1_545 S
O69 C58 1.272 1_545 S
O70 Eu51 2.394 1_655 S
O70 C59 1.251 1_565 S
O71 Eu41 2.374 . S
O71 C59 1.251 . S
H72 C43 0.931 . S
H73 C44 0.931 . S
H74 C46 0.931 . S
H75 C47 0.931 . S
H76 C53 0.931 . S
H77 C54 0.931 . S
H78 C56 0.931 . S
H79 C57 0.931 . S
C80 Eu81 2.835 . S
C80 C82 1.500 . S
C80 O100 1.257 1_554 S
C80 O101 1.260 . S
Eu81 C80 2.835 . S
Eu81 O100 2.473 1_554 S
Eu81 O101 2.480 . S
Eu81 O102 2.430 . S
Eu81 O103 2.670 . S
Eu81 O104 2.394 . S
Eu81 O109 2.355 1_554 S
Eu81 O111 2.374 . S
C82 C80 1.500 . S
C82 C83 1.377 . S
C82 C87 1.377 1_554 S
C83 C82 1.377 . S
C83 C84 1.395 . S
C83 H112 0.931 . S
C84 C83 1.395 . S
C84 C85 1.383 1_554 S
C84 H113 0.931 . S
C85 C84 1.383 1_556 S
C85 C86 1.394 . S
C86 C85 1.394 . S
C86 C87 1.378 . S
C86 H114 0.931 . S
C87 C82 1.377 1_556 S
C87 C86 1.378 . S
C87 H115 0.931 . S
C88 O102 1.259 . S
C88 O103 1.270 . S
C89 O104 1.251 . S
C89 O105 1.251 1_554 S
C90 Eu91 2.835 . S
C90 C92 1.500 . S
C90 O106 1.257 1_556 S
C90 O107 1.260 . S
Eu91 C90 2.835 . S
Eu91 O103 2.355 1_556 S
Eu91 O105 2.374 . S
Eu91 O106 2.473 1_556 S
Eu91 O107 2.480 . S
Eu91 O108 2.430 . S
Eu91 O109 2.670 . S
Eu91 O110 2.394 . S
C92 C90 1.500 . S
C92 C93 1.377 . S
C92 C97 1.377 1_556 S
C93 C92 1.377 . S
C93 C94 1.395 . S
C93 H116 0.931 . S
C94 C93 1.395 . S
C94 C95 1.383 1_556 S
C94 H117 0.931 . S
C95 C94 1.383 1_554 S
C95 C96 1.394 . S
C96 C95 1.394 . S
C96 C97 1.378 . S
C96 H118 0.931 . S
C97 C92 1.377 1_554 S
C97 C96 1.378 . S
C97 H119 0.931 . S
C98 O108 1.259 . S
C98 O109 1.270 . S
C99 O110 1.251 . S
C99 O111 1.251 1_556 S
O100 C80 1.257 1_556 S
O100 Eu81 2.473 1_556 S
O101 C80 1.260 . S
O101 Eu81 2.480 . S
O102 Eu81 2.430 . S
O102 C88 1.259 . S
O103 Eu81 2.670 . S
O103 C88 1.270 . S
O103 Eu91 2.355 1_554 S
O104 Eu81 2.394 . S
O104 C89 1.251 . S
O105 C89 1.251 1_556 S
O105 Eu91 2.374 . S
O106 C90 1.257 1_554 S
O106 Eu91 2.473 1_554 S
O107 C90 1.260 . S
O107 Eu91 2.480 . S
O108 Eu91 2.430 . S
O108 C98 1.259 . S
O109 Eu81 2.355 1_556 S
O109 Eu91 2.670 . S
O109 C98 1.270 . S
O110 Eu91 2.394 . S
O110 C99 1.251 . S
O111 Eu81 2.374 . S
O111 C99 1.251 1_554 S
H112 C83 0.931 . S
H113 C84 0.931 . S
H114 C86 0.931 . S
H115 C87 0.931 . S
H116 C93 0.931 . S
H117 C94 0.931 . S
H118 C96 0.931 . S
H119 C97 0.931 . S
C120 Eu121 2.835 . S
C120 C122 1.500 . S
C120 O140 1.257 . S
C120 O141 1.260 . S
Eu121 C120 2.835 . S
Eu121 O140 2.473 . S
Eu121 O141 2.480 . S
Eu121 O142 2.430 . S
Eu121 O143 2.670 . S
Eu121 O144 2.394 . S
Eu121 O149 2.355 . S
Eu121 O151 2.374 . S
C122 C120 1.500 . S
C122 C123 1.377 . S
C122 C127 1.377 . S
C123 C122 1.377 . S
C123 C124 1.395 . S
C123 H152 0.931 . S
C124 C123 1.395 . S
C124 C125 1.383 . S
C124 H153 0.931 . S
C125 C124 1.383 . S
C125 C126 1.394 . S
C126 C125 1.394 . S
C126 C127 1.378 . S
C126 H154 0.931 . S
C127 C122 1.377 . S
C127 C126 1.378 . S
C127 H155 0.931 . S
C128 O142 1.259 . S
C128 O143 1.270 . S
C129 O144 1.251 . S
C129 O145 1.251 . S
C130 Eu131 2.835 . S
C130 C132 1.500 . S
C130 O146 1.257 . S
C130 O147 1.260 . S
Eu131 C130 2.835 . S
Eu131 O143 2.355 . S
Eu131 O145 2.374 . S
Eu131 O146 2.473 . S
Eu131 O147 2.480 . S
Eu131 O148 2.430 . S
Eu131 O149 2.670 . S
Eu131 O150 2.394 . S
C132 C130 1.500 . S
C132 C133 1.377 . S
C132 C137 1.377 . S
C133 C132 1.377 . S
C133 C134 1.395 . S
C133 H156 0.931 . S
C134 C133 1.395 . S
C134 C135 1.383 . S
C134 H157 0.931 . S
C135 C134 1.383 . S
C135 C136 1.394 . S
C136 C135 1.394 . S
C136 C137 1.378 . S
C136 H158 0.931 . S
C137 C132 1.377 . S
C137 C136 1.378 . S
C137 H159 0.931 . S
C138 O148 1.259 . S
C138 O149 1.270 . S
C139 O150 1.251 . S
C139 O151 1.251 . S
O140 C120 1.257 . S
O140 Eu121 2.473 . S
O141 C120 1.260 . S
O141 Eu121 2.480 . S
O142 Eu121 2.430 . S
O142 C128 1.259 . S
O143 Eu121 2.670 . S
O143 C128 1.270 . S
O143 Eu131 2.355 . S
O144 Eu121 2.394 . S
O144 C129 1.251 . S
O145 C129 1.251 . S
O145 Eu131 2.374 . S
O146 C130 1.257 . S
O146 Eu131 2.473 . S
O147 C130 1.260 . S
O147 Eu131 2.480 . S
O148 Eu131 2.430 . S
O148 C138 1.259 . S
O149 Eu121 2.355 . S
O149 Eu131 2.670 . S
O149 C138 1.270 . S
O150 Eu131 2.394 . S
O150 C139 1.251 . S
O151 Eu121 2.374 . S
O151 C139 1.251 . S
H152 C123 0.931 . S
H153 C124 0.931 . S
H154 C126 0.931 . S
H155 C127 0.931 . S
H156 C133 0.931 . S
H157 C134 0.931 . S
H158 C136 0.931 . S
H159 C137 0.931 . S
H160 C166 0.930 . S
H161 C170 0.930 . S
H162 C175 0.929 . S
H163 C173 0.929 . S
H164 C168 0.929 . S
H165 C174 0.929 . S
C166 H160 0.930 . S
C166 C167 1.367 . S
C166 C174 1.378 . S
C167 C166 1.367 . S
C167 C175 1.433 1_554 S
C168 H164 0.929 . S
C168 C170 1.378 . S
C168 C172 1.350 . S
C169 C172 1.463 1_554 S
C169 C174 1.350 . S
C169 N177 1.427 1_554 S
C170 H161 0.930 . S
C170 C168 1.378 . S
C170 C171 1.384 . S
C171 C170 1.384 . S
C171 C173 1.415 1_556 S
C172 C168 1.350 . S
C172 C169 1.463 1_556 S
C172 N176 1.427 1_556 S
C173 H163 0.929 . S
C173 C171 1.415 1_554 S
C173 N176 1.384 . S
C174 H165 0.929 . S
C174 C166 1.378 . S
C174 C169 1.350 . S
C175 H162 0.929 . S
C175 C167 1.433 1_556 S
C175 N177 1.384 . S
N176 C172 1.427 1_554 S
N176 C173 1.384 . S
N177 C169 1.427 1_556 S
N177 C175 1.384 . S
H178 C184 0.930 . S
H179 C188 0.930 . S
H180 C193 0.929 . S
H181 C191 0.929 . S
H182 C186 0.929 . S
H183 C192 0.929 . S
C184 H178 0.930 . S
C184 C185 1.374 . S
C184 C192 1.378 . S
C185 C184 1.374 . S
C185 C193 1.425 1_556 S
C186 H182 0.929 . S
C186 C188 1.378 . S
C186 C190 1.350 . S
C187 C190 1.461 1_556 S
C187 C192 1.362 . S
C187 N195 1.416 1_556 S
C188 H179 0.930 . S
C188 C186 1.378 . S
C188 C189 1.377 . S
C189 C188 1.377 . S
C189 C191 1.422 1_554 S
C190 C186 1.350 . S
C190 C187 1.461 1_554 S
C190 N194 1.427 1_554 S
C191 H181 0.929 . S
C191 C189 1.422 1_556 S
C191 N194 1.384 . S
C192 H183 0.929 . S
C192 C184 1.378 . S
C192 C187 1.362 . S
C193 H180 0.929 . S
C193 C185 1.425 1_554 S
C193 N195 1.384 . S
N194 C190 1.427 1_556 S
N194 C191 1.384 . S
N195 C187 1.416 1_554 S
N195 C193 1.384 . S
H196 C202 0.930 . S
H197 C206 0.930 . S
H198 C211 0.929 . S
H199 C209 0.929 . S
H200 C204 0.929 . S
H201 C210 0.929 . S
C202 H196 0.930 . S
C202 C203 1.367 . S
C202 C210 1.378 . S
C203 C202 1.367 . S
C203 C211 1.433 . S
C204 H200 0.929 . S
C204 C206 1.378 . S
C204 C208 1.350 . S
C205 C208 1.463 . S
C205 C210 1.350 . S
C205 N213 1.427 . S
C206 H197 0.930 . S
C206 C204 1.378 . S
C206 C207 1.367 . S
C207 C206 1.367 . S
C207 C209 1.433 . S
C208 C204 1.350 . S
C208 C205 1.463 . S
C208 N212 1.427 . S
C209 H199 0.929 . S
C209 C207 1.433 . S
C209 N212 1.384 . S
C210 H201 0.929 . S
C210 C202 1.378 . S
C210 C205 1.350 . S
C211 H198 0.929 . S
C211 C203 1.433 . S
C211 N213 1.384 . S
N212 C208 1.427 . S
N212 C209 1.384 . S
N213 C205 1.427 . S
N213 C211 1.384 . S
H214 C220 0.930 . S
H215 C224 0.930 . S
H216 C229 0.929 . S
H217 C227 0.929 . S
H218 C222 0.929 . S
H219 C228 0.929 . S
C220 H214 0.930 . S
C220 C221 1.367 . S
C220 C228 1.378 . S
C221 C220 1.367 . S
C221 C229 1.433 . S
C222 H218 0.929 . S
C222 C224 1.378 . S
C222 C226 1.350 . S
C223 C226 1.463 . S
C223 C228 1.350 . S
C223 N231 1.427 . S
C224 H215 0.930 . S
C224 C222 1.378 . S
C224 C225 1.367 . S
C225 C224 1.367 . S
C225 C227 1.433 . S
C226 C222 1.350 . S
C226 C223 1.463 . S
C226 N230 1.427 . S
C227 H217 0.929 . S
C227 C225 1.433 . S
C227 N230 1.384 . S
C228 H219 0.929 . S
C228 C220 1.378 . S
C228 C223 1.350 . S
C229 H216 0.929 . S
C229 C221 1.433 . S
C229 N231 1.384 . S
N230 C226 1.427 . S
N230 C227 1.384 . S
N231 C223 1.427 . S
N231 C229 1.384 . S
H232 C238 0.930 . S
H233 C242 0.930 . S
H234 C247 0.929 . S
H235 C245 0.929 . S
H236 C240 0.929 . S
H237 C246 0.929 . S
C238 H232 0.930 . S
C238 C239 1.367 1_554 S
C238 C246 1.378 . S
C239 C238 1.367 1_556 S
C239 C247 1.433 . S
C240 H236 0.929 . S
C240 C242 1.378 . S
C240 C244 1.350 1_556 S
C241 C244 1.463 1_566 S
C241 C246 1.350 1_556 S
C241 N249 1.427 . S
C242 H233 0.930 . S
C242 C240 1.378 . S
C242 C243 1.367 1_556 S
C243 C242 1.367 1_554 S
C243 C245 1.433 . S
C244 C240 1.350 1_554 S
C244 C241 1.463 1_544 S
C244 N248 1.427 . S
C245 H235 0.929 . S
C245 C243 1.433 . S
C245 N248 1.384 . S
C246 H237 0.929 . S
C246 C238 1.378 . S
C246 C241 1.350 1_554 S
C247 H234 0.929 . S
C247 C239 1.433 . S
C247 N249 1.384 . S
N248 C244 1.427 . S
N248 C245 1.384 . S
N249 C241 1.427 . S
N249 C247 1.384 . S
H250 C256 0.930 . S
H251 C260 0.930 . S
H252 C265 0.929 . S
H253 C263 0.929 . S
H254 C258 0.929 . S
H255 C264 0.929 . S
C256 H250 0.930 . S
C256 C257 1.367 1_545 S
C256 C264 1.378 . S
C257 C256 1.367 1_565 S
C257 C265 1.433 . S
C258 H254 0.929 . S
C258 C260 1.378 . S
C258 C262 1.348 1_565 S
C259 C262 1.459 . S
C259 C264 1.351 . S
C259 N267 1.421 1_545 S
C260 H251 0.930 . S
C260 C258 1.378 . S
C260 C261 1.367 1_565 S
C261 C260 1.367 1_545 S
C261 C263 1.433 . S
C262 C258 1.348 1_545 S
C262 C259 1.459 . S
C262 N266 1.438 . S
C263 H253 0.929 . S
C263 C261 1.433 . S
C263 N266 1.384 . S
C264 H255 0.929 . S
C264 C256 1.378 . S
C264 C259 1.351 . S
C265 H252 0.929 . S
C265 C257 1.433 . S
C265 N267 1.384 . S
N266 C262 1.438 . S
N266 C263 1.384 . S
N267 C259 1.421 1_565 S
N267 C265 1.384 . S
H268 C274 0.930 . S
H269 C278 0.930 . S
H270 C283 0.929 . S
H271 C281 0.929 . S
H272 C276 0.929 1_655 S
H273 C282 0.929 1_455 S
C274 H268 0.930 . S
C274 C275 1.367 1_554 S
C274 C282 1.378 . S
C275 C274 1.367 1_556 S
C275 C283 1.433 . S
C276 H272 0.929 1_455 S
C276 C278 1.378 . S
C276 C280 1.350 1_556 S
C277 C280 1.463 1_656 S
C277 C282 1.350 1_556 S
C277 N285 1.427 . S
C278 H269 0.930 . S
C278 C276 1.378 . S
C278 C279 1.367 1_556 S
C279 C278 1.367 1_554 S
C279 C281 1.433 . S
C280 C276 1.350 1_554 S
C280 C277 1.463 1_454 S
C280 N284 1.427 . S
C281 H271 0.929 . S
C281 C279 1.433 . S
C281 N284 1.384 . S
C282 H273 0.929 1_655 S
C282 C274 1.378 . S
C282 C277 1.350 1_554 S
C283 H270 0.929 . S
C283 C275 1.433 . S
C283 N285 1.384 . S
N284 C280 1.427 . S
N284 C281 1.384 . S
N285 C277 1.427 . S
N285 C283 1.384 . S
H286 C292 0.930 . S
H287 C296 0.930 . S
H288 C301 0.929 . S
H289 C299 0.929 . S
H290 C294 0.929 . S
H291 C300 0.929 . S
C292 H286 0.930 . S
C292 C293 1.367 . S
C292 C300 1.378 . S
C293 C292 1.367 . S
C293 C301 1.433 . S
C294 H290 0.929 . S
C294 C296 1.378 . S
C294 C298 1.350 . S
C295 C298 1.463 1_455 S
C295 C300 1.350 . S
C295 N303 1.427 . S
C296 H287 0.930 . S
C296 C294 1.378 . S
C296 C297 1.367 . S
C297 C296 1.367 . S
C297 C299 1.433 . S
C298 C294 1.350 . S
C298 C295 1.463 1_655 S
C298 N302 1.427 . S
C299 H289 0.929 . S
C299 C297 1.433 . S
C299 N302 1.384 . S
C300 H291 0.929 . S
C300 C292 1.378 . S
C300 C295 1.350 . S
C301 H288 0.929 . S
C301 C293 1.433 . S
C301 N303 1.384 . S
N302 C298 1.427 . S
N302 C299 1.384 . S
N303 C295 1.427 . S
N303 C301 1.384 . S
H304 C310 0.930 . S
H305 C314 0.930 . S
H306 C319 0.929 . S
H307 C317 0.929 . S
H308 C312 0.929 . S
H309 C318 0.929 . S
C310 H304 0.930 . S
C310 C311 1.367 . S
C310 C318 1.378 . S
C311 C310 1.367 . S
C311 C319 1.433 1_645 S
C312 H308 0.929 . S
C312 C314 1.378 . S
C312 C316 1.340 1_465 S
C313 C316 1.461 . S
C313 C318 1.350 . S
C313 N321 1.427 1_645 S
C314 H305 0.930 . S
C314 C312 1.378 . S
C314 C315 1.361 1_465 S
C315 C314 1.361 1_645 S
C315 C317 1.438 . S
C316 C312 1.340 1_645 S
C316 C313 1.461 . S
C316 N320 1.439 . S
C317 H307 0.929 . S
C317 C315 1.438 . S
C317 N320 1.384 . S
C318 H309 0.929 . S
C318 C310 1.378 . S
C318 C313 1.350 . S
C319 H306 0.929 . S
C319 C311 1.433 1_465 S
C319 N321 1.384 . S
N320 C316 1.439 . S
N320 C317 1.384 . S
N321 C313 1.427 1_465 S
N321 C319 1.384 . S
H322 C328 0.930 . S
H323 C332 0.930 . S
H324 C337 0.929 . S
H325 C335 0.929 . S
H326 C330 0.929 . S
H327 C336 0.929 . S
C328 H322 0.930 . S
C328 C329 1.365 1_655 S
C328 C336 1.378 . S
C329 C328 1.365 1_455 S
C329 C337 1.435 1_565 S
C330 H326 0.929 . S
C330 C332 1.378 . S
C330 C334 1.368 . S
C331 C334 1.456 1_565 S
C331 C336 1.375 1_455 S
C331 N339 1.405 1_565 S
C332 H323 0.930 . S
C332 C330 1.378 . S
C332 C333 1.366 1_545 S
C333 C332 1.366 1_565 S
C333 C335 1.435 1_455 S
C334 C330 1.368 . S
C334 C331 1.456 1_545 S
C334 N338 1.411 1_445 S
C335 H325 0.929 . S
C335 C333 1.435 1_655 S
C335 N338 1.384 . S
C336 H327 0.929 . S
C336 C328 1.378 . S
C336 C331 1.375 1_655 S
C337 H324 0.929 . S
C337 C329 1.435 1_545 S
C337 N339 1.384 . S
N338 C334 1.411 1_665 S
N338 C335 1.384 . S
N339 C331 1.405 1_545 S
N339 C337 1.384 . S
H340 C346 0.930 . S
H341 C350 0.930 . S
H342 C355 0.929 . S
H343 C353 0.929 . S
H344 C348 0.929 . S
H345 C354 0.929 . S
C346 H340 0.930 . S
C346 C347 1.367 . S
C346 C354 1.378 . S
C347 C346 1.367 . S
C347 C355 1.433 . S
C348 H344 0.929 . S
C348 C350 1.378 . S
C348 C352 1.350 . S
C349 C352 1.463 . S
C349 C354 1.350 . S
C349 N357 1.427 . S
C350 H341 0.930 . S
C350 C348 1.378 . S
C350 C351 1.367 . S
C351 C350 1.367 . S
C351 C353 1.433 . S
C352 C348 1.350 . S
C352 C349 1.463 . S
C352 N356 1.427 . S
C353 H343 0.929 . S
C353 C351 1.433 . S
C353 N356 1.384 . S
C354 H345 0.929 . S
C354 C346 1.378 . S
C354 C349 1.350 . S
C355 H342 0.929 . S
C355 C347 1.433 . S
C355 N357 1.384 . S
N356 C352 1.427 . S
N356 C353 1.384 . S
N357 C349 1.427 . S
N357 C355 1.384 . S
H358 C364 0.930 . S
H359 C368 0.930 . S
H360 C373 0.929 . S
H361 C371 0.929 . S
H362 C366 0.929 . S
H363 C372 0.929 . S
C364 H358 0.930 . S
C364 C365 1.367 . S
C364 C372 1.378 . S
C365 C364 1.367 . S
C365 C373 1.433 . S
C366 H362 0.929 . S
C366 C368 1.378 . S
C366 C370 1.350 . S
C367 C370 1.463 . S
C367 C372 1.350 . S
C367 N375 1.427 . S
C368 H359 0.930 . S
C368 C366 1.378 . S
C368 C369 1.367 . S
C369 C368 1.367 . S
C369 C371 1.433 . S
C370 C366 1.350 . S
C370 C367 1.463 . S
C370 N374 1.427 . S
C371 H361 0.929 . S
C371 C369 1.433 . S
C371 N374 1.384 . S
C372 H363 0.929 . S
C372 C364 1.378 . S
C372 C367 1.350 . S
C373 H360 0.929 . S
C373 C365 1.433 . S
C373 N375 1.384 . S
N374 C370 1.427 . S
N374 C371 1.384 . S
N375 C367 1.427 . S
N375 C373 1.384 . S
C167 C99 3.580 1_554 S
C171 C9 3.580 1_556 S
C185 C89 3.578 1_556 S
C189 C19 3.578 1_554 S
C203 C45 0.242 . S
C207 C135 0.242 . S
C221 C55 0.237 . S
C225 C125 0.237 . S
C239 C5 0.998 . S
C243 C15 0.998 . S
C257 C49 4.819 . S
C261 C59 4.819 . S
C275 C85 1.005 . S
C279 C95 1.005 . S
C293 C139 4.820 . S
C297 C129 4.820 . S
C311 C58 1.456 1_645 S
C315 C8 1.454 1_655 S
C329 C18 1.444 1_455 S
C333 C48 1.443 1_565 S
C347 C138 1.444 . S
C351 C88 1.444 . S
C365 C128 1.442 . S
C369 C98 1.452 . S
