# Generated by pormake.
# Topology cag, (4)-cn, num edge types: 1
# Building blocks:
#     Node 0, Type 0, BuildingBlock: KUFVIS_clean_sbu_0, # of connection points: 4
#     Node 1, Type 0, BuildingBlock: KUFVIS_clean_sbu_0, # of connection points: 4
#     Node 2, Type 0, BuildingBlock: KUFVIS_clean_sbu_0, # of connection points: 4
#     Node 3, Type 0, BuildingBlock: KUFVIS_clean_sbu_0, # of connection points: 4
#     Node 4, Type 0, BuildingBlock: KUFVIS_clean_sbu_0, # of connection points: 4
#     Node 5, Type 0, BuildingBlock: KUFVIS_clean_sbu_0, # of connection points: 4
#     Node 6, Type 0, BuildingBlock: KUFVIS_clean_sbu_0, # of connection points: 4
#     Node 7, Type 0, BuildingBlock: KUFVIS_clean_sbu_0, # of connection points: 4
#     Node 8, Type 0, BuildingBlock: KUFVIS_clean_sbu_0, # of connection points: 4
#     Node 9, Type 0, BuildingBlock: KUFVIS_clean_sbu_0, # of connection points: 4
#     Node 10, Type 0, BuildingBlock: KUFVIS_clean_sbu_0, # of connection points: 4
#     Node 11, Type 0, BuildingBlock: KUFVIS_clean_sbu_0, # of connection points: 4
#     Node 12, Type 0, BuildingBlock: KUFVIS_clean_sbu_0, # of connection points: 4
#     Node 13, Type 0, BuildingBlock: KUFVIS_clean_sbu_0, # of connection points: 4
#     Node 14, Type 0, BuildingBlock: KUFVIS_clean_sbu_0, # of connection points: 4
#     Node 15, Type 0, BuildingBlock: KUFVIS_clean_sbu_0, # of connection points: 4
#     Edge 16, Type (0, 0), BuildingBlock: XIVTED_clean_linker_0, # of connection points: 2
#     Edge 17, Type (0, 0), BuildingBlock: XIVTED_clean_linker_0, # of connection points: 2
#     Edge 18, Type (0, 0), BuildingBlock: XIVTED_clean_linker_0, # of connection points: 2
#     Edge 19, Type (0, 0), BuildingBlock: XIVTED_clean_linker_0, # of connection points: 2
#     Edge 20, Type (0, 0), BuildingBlock: XIVTED_clean_linker_0, # of connection points: 2
#     Edge 21, Type (0, 0), BuildingBlock: XIVTED_clean_linker_0, # of connection points: 2
#     Edge 22, Type (0, 0), BuildingBlock: XIVTED_clean_linker_0, # of connection points: 2
#     Edge 23, Type (0, 0), BuildingBlock: XIVTED_clean_linker_0, # of connection points: 2
#     Edge 24, Type (0, 0), BuildingBlock: XIVTED_clean_linker_0, # of connection points: 2
#     Edge 25, Type (0, 0), BuildingBlock: XIVTED_clean_linker_0, # of connection points: 2
#     Edge 26, Type (0, 0), BuildingBlock: XIVTED_clean_linker_0, # of connection points: 2
#     Edge 27, Type (0, 0), BuildingBlock: XIVTED_clean_linker_0, # of connection points: 2
#     Edge 28, Type (0, 0), BuildingBlock: XIVTED_clean_linker_0, # of connection points: 2
#     Edge 29, Type (0, 0), BuildingBlock: XIVTED_clean_linker_0, # of connection points: 2
#     Edge 30, Type (0, 0), BuildingBlock: XIVTED_clean_linker_0, # of connection points: 2
#     Edge 31, Type (0, 0), BuildingBlock: XIVTED_clean_linker_0, # of connection points: 2
#     Edge 32, Type (0, 0), BuildingBlock: XIVTED_clean_linker_0, # of connection points: 2
#     Edge 33, Type (0, 0), BuildingBlock: XIVTED_clean_linker_0, # of connection points: 2
#     Edge 34, Type (0, 0), BuildingBlock: XIVTED_clean_linker_0, # of connection points: 2
#     Edge 35, Type (0, 0), BuildingBlock: XIVTED_clean_linker_0, # of connection points: 2
#     Edge 36, Type (0, 0), BuildingBlock: XIVTED_clean_linker_0, # of connection points: 2
#     Edge 37, Type (0, 0), BuildingBlock: XIVTED_clean_linker_0, # of connection points: 2
#     Edge 38, Type (0, 0), BuildingBlock: XIVTED_clean_linker_0, # of connection points: 2
#     Edge 39, Type (0, 0), BuildingBlock: XIVTED_clean_linker_0, # of connection points: 2
#     Edge 40, Type (0, 0), BuildingBlock: XIVTED_clean_linker_0, # of connection points: 2
#     Edge 41, Type (0, 0), BuildingBlock: XIVTED_clean_linker_0, # of connection points: 2
#     Edge 42, Type (0, 0), BuildingBlock: XIVTED_clean_linker_0, # of connection points: 2
#     Edge 43, Type (0, 0), BuildingBlock: XIVTED_clean_linker_0, # of connection points: 2
#     Edge 44, Type (0, 0), BuildingBlock: XIVTED_clean_linker_0, # of connection points: 2
#     Edge 45, Type (0, 0), BuildingBlock: XIVTED_clean_linker_0, # of connection points: 2
#     Edge 46, Type (0, 0), BuildingBlock: XIVTED_clean_linker_0, # of connection points: 2
#     Edge 47, Type (0, 0), BuildingBlock: XIVTED_clean_linker_0, # of connection points: 2
# Relax obj value: 0.083
# Max RMSD: 0.120
# Mean RMSD: 0.116
data_MOF--net-cag--node1-KUFVIS_clean_sbu_0--edge1-XIVTED_clean_linker_0
_symmetry_space_group_name_H-M    P1
_symmetry_Int_Tables_number       1
_symmetry_cell_setting            triclinic
loop_
_symmetry_equiv_pos_as_xyz
'x, y, z'
_cell_length_a     41.87461
_cell_length_b     49.894241
_cell_length_c     41.385861
_cell_angle_alpha  90.034704
_cell_angle_beta   89.963379
_cell_angle_gamma 89.957959
loop_
_atom_site_label
_atom_site_type_symbol
_atom_site_fract_x
_atom_site_fract_y
_atom_site_fract_z
_atom_type_partial_charge
Mn0 Mn 0.35632 0.13947 0.10742 0.0
Mn1 Mn 0.38374 0.18596 0.15983 0.0
C2 C 0.40869 0.15488 0.10432 0.0
C3 C 0.34744 0.09627 0.08718 0.0
C4 C 0.34272 0.20012 0.10272 0.0
O5 O 0.32401 0.13603 0.14468 0.0
O6 O 0.34332 0.16982 0.17505 0.0
C7 C 0.39801 0.1489 0.21388 0.0
N8 N 0.40761 0.16835 0.19294 0.0
C9 C 0.45865 0.17194 0.21916 0.0
C10 C 0.44933 0.15199 0.24106 0.0
C11 C 0.41896 0.14028 0.23825 0.0
C12 C 0.43703 0.17929 0.19496 0.0
H13 H 0.37453 0.14013 0.21213 0.0
C14 C 0.32291 0.1513 0.16955 0.0
O15 O 0.33024 0.11654 0.0783 0.0
O16 O 0.36852 0.10061 0.10963 0.0
N17 N 0.42294 0.20328 0.14891 0.0
C18 C 0.42846 0.22181 0.1254 0.0
C19 C 0.4575 0.2358 0.1251 0.0
C20 C 0.4803 0.23093 0.14926 0.0
C21 C 0.47433 0.21144 0.17292 0.0
C22 C 0.44498 0.19809 0.17193 0.0
H23 H 0.41059 0.22623 0.10736 0.0
O24 O 0.39428 0.14556 0.07894 0.0
O25 O 0.39195 0.15554 0.13073 0.0
O26 O 0.3379 0.17589 0.09435 0.0
O27 O 0.36022 0.20653 0.12667 0.0
C28 C 0.496 0.20509 0.19785 0.0
C29 C 0.48839 0.18505 0.22061 0.0
H30 H 0.46527 0.14553 0.26015 0.0
H31 H 0.41157 0.12486 0.25504 0.0
H32 H 0.46204 0.25073 0.1067 0.0
H33 H 0.50217 0.24247 0.14947 0.0
H34 H 0.51859 0.21549 0.19984 0.0
H35 H 0.50545 0.1801 0.23935 0.0
Mn36 Mn 0.1434 0.88726 0.61077 0.0
Mn37 Mn 0.11452 0.84105 0.66279 0.0
C38 C 0.09134 0.87148 0.60582 0.0
C39 C 0.15239 0.93058 0.59124 0.0
C40 C 0.15937 0.82719 0.60796 0.0
O41 O 0.17419 0.89083 0.64923 0.0
O42 O 0.15212 0.85948 0.68154 0.0
C43 C 0.09255 0.87826 0.7141 0.0
N44 N 0.08652 0.85779 0.69319 0.0
C45 C 0.03354 0.85203 0.71455 0.0
C46 C 0.03933 0.87278 0.73664 0.0
C47 C 0.06887 0.88612 0.7362 0.0
C48 C 0.05788 0.84536 0.69278 0.0
H49 H 0.11521 0.88853 0.71386 0.0
C50 C 0.17276 0.87784 0.67591 0.0
O51 O 0.17018 0.91054 0.58275 0.0
O52 O 0.13063 0.92594 0.61295 0.0
N53 N 0.0776 0.822 0.64836 0.0
C54 C 0.07512 0.80371 0.62404 0.0
C55 C 0.04686 0.78886 0.62069 0.0
C56 C 0.02169 0.79268 0.64265 0.0
C57 C 0.02462 0.81191 0.66723 0.0
C58 C 0.05327 0.8262 0.66924 0.0
H59 H 0.09472 0.8002 0.60759 0.0
O60 O 0.10647 0.88094 0.58094 0.0
O61 O 0.10729 0.87089 0.63268 0.0
O62 O 0.16257 0.85119 0.59823 0.0
O63 O 0.14225 0.82095 0.63231 0.0
C64 C 1.00036 0.81736 0.68996 0.0
C65 C 0.00461 0.8377 0.71325 0.0
H66 H 0.0212 0.87876 0.75389 0.0
H67 H 0.07343 0.90231 0.75298 0.0
H68 H 0.04468 0.77418 0.60156 0.0
H69 H 1.00023 0.78075 0.64034 0.0
H70 H 0.97822 0.80618 0.68964 0.0
H71 H 0.9855 0.8421 0.7301 0.0
Mn72 Mn 0.35904 0.89177 0.92215 0.0
Mn73 Mn 0.38394 0.84598 0.86747 0.0
C74 C 0.41134 0.87556 0.92352 0.0
C75 C 0.35084 0.93509 0.9424 0.0
C76 C 0.34029 0.83256 0.9236 0.0
O77 O 0.32592 0.89546 0.88554 0.0
O78 O 0.34817 0.86713 0.84923 0.0
C79 C 0.40991 0.88213 0.81707 0.0
N80 N 0.41353 0.86091 0.83737 0.0
C81 C 0.46456 0.8499 0.81417 0.0
C82 C 0.46116 0.87136 0.79256 0.0
C83 C 0.4339 0.88777 0.79432 0.0
C84 C 0.44026 0.84573 0.83681 0.0
H85 H 0.38899 0.89469 0.81843 0.0
C86 C 0.3273 0.88466 0.85741 0.0
O87 O 0.33386 0.9149 0.95183 0.0
O88 O 0.37152 0.93059 0.91956 0.0
N89 N 0.41883 0.82433 0.88174 0.0
C90 C 0.41961 0.80596 0.90608 0.0
C91 C 0.44574 0.78843 0.90854 0.0
C92 C 0.47039 0.7896 0.88557 0.0
C93 C 0.46923 0.80893 0.861 0.0
C94 C 0.44291 0.82617 0.86015 0.0
H95 H 0.40023 0.80436 0.92316 0.0
O96 O 0.39798 0.8852 0.94937 0.0
O97 O 0.39355 0.87517 0.8979 0.0
O98 O 0.34055 0.85588 0.93583 0.0
O99 O 0.3543 0.827 0.89709 0.0
C100 C 0.4929 0.81153 0.83706 0.0
C101 C 0.49097 0.83237 0.81408 0.0
H102 H 0.47941 0.87554 0.77471 0.0
H103 H 0.43125 0.90455 0.77799 0.0
H104 H 0.44655 0.77369 0.92769 0.0
H105 H 0.49021 0.7757 0.88716 0.0
H106 H 0.513 0.79786 0.83644 0.0
H107 H 0.50986 0.83469 0.79642 0.0
Mn108 Mn 0.14562 0.13343 0.42359 0.0
Mn109 Mn 0.12122 0.17863 0.36804 0.0
C110 C 0.09334 0.14913 0.42359 0.0
C111 C 0.15407 0.09073 0.44534 0.0
C112 C 0.15963 0.19406 0.42657 0.0
O113 O 0.1797 0.12914 0.3883 0.0
O114 O 0.16212 0.1618 0.35503 0.0
C115 C 0.10852 0.14017 0.315 0.0
N116 N 0.0984 0.16032 0.33474 0.0
C117 C 0.04832 0.16347 0.30658 0.0
C118 C 0.0582 0.1428 0.28589 0.0
C119 C 0.08835 0.13097 0.29027 0.0
C120 C 0.06918 0.1714 0.3312 0.0
H121 H 0.13184 0.13128 0.31799 0.0
C122 C 0.18196 0.14337 0.36272 0.0
O123 O 0.1705 0.11132 0.45454 0.0
O124 O 0.13377 0.09447 0.42199 0.0
N125 N 0.08186 0.19661 0.37673 0.0
C126 C 0.07574 0.21588 0.39924 0.0
C127 C 0.0469 0.23014 0.39787 0.0
C128 C 0.02493 0.22475 0.37311 0.0
C129 C 0.03146 0.20446 0.35055 0.0
C130 C 0.06061 0.19093 0.35314 0.0
H131 H 0.09299 0.22067 0.41775 0.0
O132 O 0.10639 0.1402 0.44992 0.0
O133 O 0.11132 0.14907 0.39798 0.0
O134 O 0.16336 0.17008 0.43633 0.0
O135 O 0.14373 0.19995 0.40131 0.0
C136 C 0.01056 0.19748 0.3252 0.0
C137 C 0.01875 0.17671 0.30357 0.0
H138 H 0.04287 0.13587 0.26654 0.0
H139 H 0.09615 0.11499 0.27442 0.0
H140 H 0.04191 0.24568 0.41543 0.0
H141 H 0.00329 0.23654 0.37156 0.0
H142 H 0.98812 0.20793 0.32201 0.0
H143 H 0.00229 0.17129 0.28448 0.0
Mn144 Mn 0.70396 0.88318 0.93707 0.0
Mn145 Mn 0.66973 0.82332 0.92107 0.0
C146 C 0.65056 0.88074 0.92232 0.0
C147 C 0.71698 0.91926 0.97036 0.0
C148 C 0.71502 0.85086 0.87489 0.0
O149 O 0.7344 0.85669 0.95942 0.0
O150 O 0.70833 0.81816 0.94789 0.0
C151 C 0.64914 0.80831 0.9871 0.0
N152 N 0.64187 0.81338 0.95562 0.0
C153 C 0.58616 0.80446 0.96502 0.0
C154 C 0.59308 0.79898 0.9975 0.0
C155 C 0.62471 0.80092 1.00857 0.0
C156 C 0.61156 0.81136 0.94465 0.0
H157 H 0.6734 0.80996 0.99575 0.0
C158 C 0.73134 0.83116 0.961 0.0
O159 O 0.73308 0.9141 0.94432 0.0
O160 O 0.6948 0.90233 0.97838 0.0
N161 N 0.632 0.82604 0.89546 0.0
C162 C 0.62912 0.83408 0.86413 0.0
C163 C 0.59878 0.83505 0.84991 0.0
C164 C 0.57187 0.82764 0.86801 0.0
C165 C 0.5755 0.81866 0.89988 0.0
C166 C 0.60635 0.81808 0.91277 0.0
H167 H 0.6497 0.84027 0.85033 0.0
O168 O 0.6667 0.90254 0.91728 0.0
O169 O 0.66636 0.8609 0.93483 0.0
O170 O 0.71971 0.87151 0.89235 0.0
O171 O 0.69718 0.83148 0.88357 0.0
C172 C 0.54962 0.8115 0.91983 0.0
C173 C 0.55494 0.80421 0.95231 0.0
H174 H 0.57425 0.79359 0.01423 0.0
H175 H 0.6302 0.79687 0.03365 0.0
H176 H 0.59604 0.84204 0.82532 0.0
H177 H 0.54852 0.82981 0.8575 0.0
H178 H 0.52547 0.81234 0.91072 0.0
H179 H 0.53477 0.79919 0.96753 0.0
Mn180 Mn 0.79999 0.1444 0.43342 0.0
Mn181 Mn 0.83413 0.20511 0.42217 0.0
C182 C 0.85408 0.14769 0.42195 0.0
C183 C 0.78433 0.10714 0.46344 0.0
C184 C 0.79396 0.17788 0.37133 0.0
O185 O 0.76742 0.16975 0.45457 0.0
O186 O 0.79275 0.20885 0.44483 0.0
C187 C 0.84677 0.21814 0.49083 0.0
N188 N 0.85761 0.21456 0.46009 0.0
C189 C 0.9115 0.22474 0.47609 0.0
C190 C 0.90087 0.22871 0.50787 0.0
C191 C 0.86837 0.22537 0.51527 0.0
C192 C 0.8888 0.21781 0.45269 0.0
H193 H 0.82185 0.21544 0.49668 0.0
C194 C 0.76937 0.19532 0.45628 0.0
O195 O 0.77092 0.11318 0.43621 0.0
O196 O 0.80556 0.12379 0.47452 0.0
N197 N 0.87451 0.20444 0.40079 0.0
C198 C 0.88105 0.19848 0.36934 0.0
C199 C 0.91268 0.19975 0.35832 0.0
C200 C 0.93705 0.20735 0.37967 0.0
C201 C 0.92967 0.21417 0.41164 0.0
C202 C 0.8977 0.21264 0.42123 0.0
H203 H 0.86238 0.19233 0.35296 0.0
O204 O 0.8385 0.12591 0.41536 0.0
O205 O 0.83757 0.1671 0.43473 0.0
O206 O 0.78761 0.15735 0.38836 0.0
O207 O 0.81117 0.19722 0.38147 0.0
C208 C 0.95289 0.22148 0.43465 0.0
C209 C 0.9438 0.22678 0.46685 0.0
H210 H 0.9175 0.23407 0.52684 0.0
H211 H 0.86001 0.22826 0.53977 0.0
H212 H 0.91835 0.19446 0.33361 0.0
H213 H 0.96141 0.20719 0.37152 0.0
H214 H 0.97786 0.2226 0.42801 0.0
H215 H 0.96192 0.23201 0.48442 0.0
Mn216 Mn 0.70095 0.14542 0.08229 0.0
Mn217 Mn 0.66844 0.20661 0.09463 0.0
C218 C 0.64774 0.14956 0.09705 0.0
C219 C 0.71344 0.10774 0.05137 0.0
C220 C 0.71069 0.17942 0.14365 0.0
O221 O 0.73259 0.17 0.05875 0.0
O222 O 0.70911 0.20953 0.07056 0.0
C223 C 0.65376 0.21911 0.02625 0.0
N224 N 0.64389 0.21602 0.05739 0.0
C225 C 0.58965 0.2266 0.04302 0.0
C226 C 0.59928 0.23008 1.01084 0.0
C227 C 0.63148 0.22629 1.00243 0.0
C228 C 0.61299 0.2197 0.06576 0.0
H229 H 0.67844 0.21605 0.01961 0.0
C230 C 0.73146 0.19561 0.05771 0.0
O231 O 0.72933 0.11367 0.07729 0.0
O232 O 0.69168 0.12466 0.04218 0.0
N233 N 0.62879 0.20682 0.11739 0.0
C234 C 0.62322 0.20144 0.14917 0.0
C235 C 0.59199 0.20329 0.16123 0.0
C236 C 0.56704 0.21085 0.14054 0.0
C237 C 0.57346 0.2171 0.10821 0.0
C238 C 0.60507 0.21503 0.09759 0.0
H239 H 0.64233 0.19533 0.16503 0.0
O240 O 0.66335 0.12768 0.10318 0.0
O241 O 0.66378 0.16857 0.08298 0.0
O242 O 0.71653 0.15887 0.12631 0.0
O243 O 0.69263 0.19855 0.13445 0.0
C244 C 0.5496 0.22435 0.08586 0.0
C245 C 0.5577 0.22913 0.05329 0.0
H246 H 0.58213 0.2354 0.99235 0.0
H247 H 0.63907 0.2288 0.97762 0.0
H248 H 0.58707 0.19845 0.18623 0.0
H249 H 0.54294 0.21111 0.14949 0.0
H250 H 0.52488 0.22585 0.09331 0.0
H251 H 0.53909 0.23434 0.03624 0.0
Mn252 Mn 0.79864 0.88418 0.58326 0.0
Mn253 Mn 0.83175 0.82286 0.59336 0.0
C254 C 0.85283 0.88001 0.59317 0.0
C255 C 0.78297 0.92178 0.55387 0.0
C256 C 0.79474 0.85099 0.64589 0.0
O257 O 0.76485 0.85955 0.56315 0.0
O258 O 0.78898 0.82003 0.57335 0.0
C259 C 0.83968 0.80972 0.52396 0.0
N260 N 0.8525 0.81285 0.55397 0.0
C261 C 0.90478 0.8008 0.53462 0.0
C262 C 0.8921 0.79728 0.50356 0.0
C263 C 0.85941 0.8018 0.49821 0.0
C264 C 0.88391 0.80857 0.55937 0.0
H265 H 0.81461 0.81327 0.51967 0.0
C266 C 0.76575 0.83394 0.56231 0.0
O267 O 0.77022 0.91592 0.5815 0.0
O268 O 0.80345 0.90478 0.54208 0.0
N269 N 0.8734 0.82223 0.61211 0.0
C270 C 0.88206 0.82748 0.64321 0.0
C271 C 0.91421 0.82491 0.65223 0.0
C272 C 0.93685 0.81656 0.62932 0.0
C273 C 0.92722 0.81026 0.59786 0.0
C274 C 0.89489 0.81326 0.59023 0.0
H275 H 0.86471 0.83409 0.6608 0.0
O276 O 0.83787 0.90202 0.60019 0.0
O277 O 0.83573 0.86083 0.58067 0.0
O278 O 0.78743 0.87125 0.62873 0.0
O279 O 0.8116 0.83153 0.63536 0.0
C280 C 0.94863 0.8021 0.57349 0.0
C281 C 0.93741 0.79737 0.54187 0.0
H282 H 0.90727 0.79131 0.4836 0.0
H283 H 0.84946 0.79925 0.47428 0.0
H284 H 0.92159 0.82975 0.6766 0.0
H285 H 0.9617 0.8157 0.63577 0.0
H286 H 0.97385 0.79981 0.57868 0.0
H287 H 0.95414 0.79141 0.52322 0.0
Mn288 Mn 0.85584 0.63576 0.1052 0.0
Mn289 Mn 0.88132 0.68233 0.15851 0.0
C290 C 0.90814 0.65128 0.10374 0.0
C291 C 0.84712 0.59276 0.08446 0.0
C292 C 0.84208 0.69639 0.10026 0.0
O293 O 0.82255 0.63214 0.14136 0.0
O294 O 0.84022 0.66635 0.17221 0.0
C295 C 0.89357 0.64515 0.21296 0.0
N296 N 0.90393 0.66465 0.19246 0.0
C297 C 0.95416 0.6679 0.22034 0.0
C298 C 0.94402 0.6479 0.24181 0.0
C299 C 0.91367 0.63635 0.23795 0.0
C300 C 0.93334 0.67547 0.19553 0.0
H301 H 0.87011 0.63647 0.21037 0.0
C302 C 0.82033 0.64761 0.16592 0.0
O303 O 0.83036 0.61317 0.0753 0.0
O304 O 0.86785 0.59683 0.10735 0.0
N305 N 0.92094 0.69959 0.14909 0.0
C306 C 0.92731 0.71818 0.12587 0.0
C307 C 0.95639 0.7321 0.12664 0.0
C308 C 0.97837 0.72705 0.15151 0.0
C309 C 0.97156 0.70747 0.17483 0.0
C310 C 0.94215 0.69429 0.17285 0.0
H311 H 0.91008 0.72271 0.10725 0.0
O312 O 0.8945 0.64202 0.07788 0.0
O313 O 0.89065 0.65186 0.12968 0.0
O314 O 0.83764 0.67213 0.09194 0.0
O315 O 0.85902 0.70299 0.12454 0.0
C316 C 0.99246 0.70085 0.20032 0.0
C317 C 0.98398 0.68079 0.22274 0.0
H318 H 0.95932 0.64128 0.26133 0.0
H319 H 0.90568 0.62089 0.2544 0.0
H320 H 0.96159 0.7471 0.10851 0.0
H321 H 1.00027 0.73852 0.15254 0.0
H322 H 0.01512 0.71104 0.20298 0.0
H323 H 1.00044 0.67563 0.24194 0.0
Mn324 Mn 0.64466 0.38993 0.60199 0.0
Mn325 Mn 0.61923 0.34274 0.65446 0.0
C326 C 0.59224 0.37469 0.60059 0.0
C327 C 0.65324 0.43336 0.58252 0.0
C328 C 0.65798 0.32932 0.59548 0.0
O329 O 0.67822 0.39286 0.63795 0.0
O330 O 0.66044 0.35843 0.66831 0.0
C331 C 0.60738 0.37914 0.70982 0.0
N332 N 0.59683 0.35998 0.68894 0.0
C333 C 0.54671 0.35648 0.71702 0.0
C334 C 0.55704 0.37612 0.73889 0.0
C335 C 0.58742 0.38763 0.73513 0.0
C336 C 0.5674 0.34921 0.69192 0.0
H337 H 0.63086 0.38779 0.70731 0.0
C338 C 0.68043 0.37716 0.66226 0.0
O339 O 0.66988 0.41313 0.57246 0.0
O340 O 0.6328 0.42879 0.60554 0.0
N341 N 0.57949 0.32575 0.64486 0.0
C342 C 0.57289 0.30759 0.6212 0.0
C343 C 0.54369 0.29382 0.62175 0.0
C344 C 0.52184 0.29858 0.64685 0.0
C345 C 0.52891 0.3177 0.67065 0.0
C346 C 0.55839 0.33078 0.66884 0.0
H347 H 0.59002 0.30329 0.60237 0.0
O348 O 0.60576 0.38432 0.57486 0.0
O349 O 0.60992 0.37361 0.62635 0.0
O350 O 0.66251 0.35367 0.58752 0.0
O351 O 0.64129 0.32254 0.61989 0.0
C352 C 0.50816 0.32399 0.69642 0.0
C353 C 0.51683 0.34366 0.71928 0.0
H354 H 0.54185 0.3825 0.75865 0.0
H355 H 0.59556 0.40281 0.75189 0.0
H356 H 0.5383 0.27918 0.60324 0.0
H357 H 0.4998 0.28728 0.64765 0.0
H358 H 0.48543 0.31387 0.69895 0.0
H359 H 0.50048 0.34859 0.73869 0.0
Mn360 Mn 0.85738 0.39073 0.91604 0.0
Mn361 Mn 0.88389 0.34433 0.86297 0.0
C362 C 0.90991 0.37567 0.91781 0.0
C363 C 0.84832 0.43376 0.93661 0.0
C364 C 0.84444 0.33001 0.92105 0.0
O365 O 0.82419 0.39399 0.87969 0.0
O366 O 0.84276 0.36003 0.84899 0.0
C367 C 0.89614 0.38153 0.80855 0.0
N368 N 0.90657 0.36213 0.82915 0.0
C369 C 0.95705 0.35919 0.80163 0.0
C370 C 0.94685 0.37909 0.78005 0.0
C371 C 0.91634 0.39044 0.78369 0.0
C372 C 0.93612 0.35151 0.82631 0.0
H373 H 0.87257 0.39005 0.81097 0.0
C374 C 0.82243 0.37851 0.8551 0.0
O375 O 0.83163 0.41332 0.94582 0.0
O376 O 0.869 0.42969 0.91367 0.0
N377 N 0.92363 0.32737 0.87272 0.0
C378 C 0.93005 0.30889 0.89604 0.0
C379 C 0.95931 0.29519 0.89552 0.0
C380 C 0.98143 0.30035 0.87079 0.0
C381 C 0.97455 0.31982 0.84735 0.0
C382 C 0.94497 0.33279 0.84909 0.0
H383 H 0.91272 0.30427 0.91456 0.0
O384 O 0.89598 0.38486 0.94356 0.0
O385 O 0.89258 0.37488 0.8918 0.0
O386 O 0.83963 0.35422 0.92942 0.0
O387 O 0.86155 0.32357 0.8968 0.0
C388 C 0.99557 0.32654 0.82198 0.0
C389 C 0.98703 0.3465 0.79946 0.0
H390 H 0.96223 0.3858 0.76062 0.0
H391 H 0.90829 0.40582 0.76715 0.0
H392 H 0.96456 0.28028 0.91375 0.0
H393 H 0.00351 0.28908 0.86998 0.0
H394 H 0.01838 0.31652 0.81952 0.0
H395 H 0.00359 0.35175 0.78036 0.0
Mn396 Mn 0.64358 0.63874 0.41988 0.0
Mn397 Mn 0.61704 0.68442 0.36598 0.0
C398 C 0.59078 0.65326 0.42091 0.0
C399 C 0.65318 0.59581 0.44044 0.0
C400 C 0.65554 0.69964 0.42448 0.0
O401 O 0.67728 0.63564 0.38396 0.0
O402 O 0.65838 0.66885 0.35241 0.0
C403 C 0.60553 0.64662 0.31196 0.0
N404 N 0.59479 0.66617 0.33222 0.0
C405 C 0.54458 0.66866 0.30421 0.0
C406 C 0.5551 0.64859 0.28297 0.0
C407 C 0.58563 0.63739 0.28702 0.0
C408 C 0.56521 0.67664 0.32899 0.0
H409 H 0.62913 0.63821 0.31469 0.0
C410 C 0.67895 0.65071 0.35902 0.0
O411 O 0.66932 0.61646 0.44998 0.0
O412 O 0.63262 0.59966 0.41736 0.0
N413 N 0.57709 0.70124 0.37523 0.0
C414 C 0.57037 0.71996 0.39823 0.0
C415 C 0.54108 0.7336 0.39722 0.0
C416 C 0.51926 0.72813 0.37234 0.0
C417 C 0.52643 0.70841 0.34926 0.0
C418 C 0.55603 0.69553 0.35147 0.0
H419 H 0.58748 0.72482 0.41684 0.0
O420 O 0.60447 0.64427 0.44687 0.0
O421 O 0.60846 0.65408 0.39512 0.0
O422 O 0.66051 0.67557 0.43338 0.0
O423 O 0.63889 0.70559 0.39974 0.0
C424 C 0.50571 0.70139 0.32378 0.0
C425 C 0.51456 0.68122 0.3016 0.0
H426 H 0.53996 0.64165 0.26348 0.0
H427 H 0.59393 0.62188 0.27076 0.0
H428 H 0.53561 0.74871 0.41517 0.0
H429 H 0.49722 0.73942 0.3711 0.0
H430 H 0.4829 0.71133 0.32093 0.0
H431 H 0.49824 0.67574 0.2824 0.0
Mn432 Mn 0.20243 0.38385 0.93803 0.0
Mn433 Mn 0.16932 0.32314 0.92428 0.0
C434 C 0.14899 0.38031 0.92398 0.0
C435 C 0.21545 0.42084 0.9699 0.0
C436 C 0.21131 0.35111 0.87556 0.0
O437 O 0.23404 0.35853 0.96056 0.0
O438 O 0.21004 0.31938 0.94809 0.0
C439 C 0.15478 0.30915 0.99228 0.0
N440 N 0.1448 0.31309 0.96132 0.0
C441 C 0.09055 0.30248 0.97559 0.0
C442 C 0.10028 0.29813 1.00757 0.0
C443 C 0.13254 0.30151 0.01594 0.0
C444 C 0.11386 0.30982 0.95298 0.0
H445 H 0.1795 0.31186 0.99889 0.0
C446 C 0.23257 0.33291 0.96115 0.0
O447 O 0.23107 0.41534 0.94366 0.0
O448 O 0.1937 0.40385 0.97886 0.0
N449 N 0.12956 0.32384 0.90175 0.0
C450 C 0.12387 0.33018 0.87026 0.0
C451 C 0.09255 0.32903 0.85836 0.0
C452 C 0.0676 0.32112 0.87889 0.0
C453 C 0.07415 0.31384 0.91089 0.0
C454 C 0.10583 0.31535 0.92138 0.0
H455 H 0.14297 0.33657 0.85452 0.0
O456 O 0.16465 0.40222 0.91821 0.0
O457 O 0.16514 0.36094 0.93718 0.0
O458 O 0.21743 0.37132 0.89336 0.0
O459 O 0.19338 0.33184 0.88456 0.0
C460 C 0.05034 0.30614 0.9331 0.0
C461 C 0.05855 0.30041 0.96541 0.0
H462 H 0.08316 0.29244 0.02595 0.0
H463 H 0.14021 0.29832 0.04061 0.0
H464 H 0.08755 0.33464 0.83362 0.0
H465 H 0.04346 0.32139 0.87009 0.0
H466 H 0.02557 0.30509 0.9258 0.0
H467 H 0.03997 0.29487 0.98237 0.0
Mn468 Mn 0.2982 0.64499 0.43872 0.0
Mn469 Mn 0.33074 0.70604 0.42595 0.0
C470 C 0.3516 0.64902 0.42457 0.0
C471 C 0.28577 0.6077 0.47028 0.0
C472 C 0.28877 0.67836 0.37688 0.0
O473 O 0.26646 0.66989 0.46185 0.0
O474 O 0.29023 0.70933 0.45029 0.0
C475 C 0.3458 0.71937 0.49402 0.0
N476 N 0.35553 0.71579 0.4629 0.0
C477 C 0.40986 0.7264 0.47681 0.0
C478 C 0.40038 0.73038 0.50896 0.0
C479 C 0.36822 0.72682 0.51759 0.0
C480 C 0.38639 0.71925 0.45431 0.0
H481 H 0.32115 0.71651 0.50084 0.0
C482 C 0.26786 0.69549 0.46319 0.0
O483 O 0.26999 0.61318 0.44415 0.0
O484 O 0.30731 0.62486 0.47928 0.0
N485 N 0.37031 0.70572 0.40301 0.0
C486 C 0.37577 0.69962 0.37139 0.0
C487 C 0.40698 0.70095 0.35921 0.0
C488 C 0.43207 0.70873 0.37961 0.0
C489 C 0.42577 0.7157 0.41178 0.0
C490 C 0.39417 0.71406 0.42255 0.0
H491 H 0.35656 0.69331 0.35574 0.0
O492 O 0.33614 0.62707 0.4185 0.0
O493 O 0.33526 0.66814 0.4381 0.0
O494 O 0.28298 0.65781 0.39422 0.0
O495 O 0.3064 0.69769 0.38632 0.0
C496 C 0.44973 0.72322 0.43389 0.0
C497 C 0.44177 0.72863 0.46636 0.0
H498 H 0.41765 0.7359 0.52726 0.0
H499 H 0.36074 0.72971 0.54239 0.0
H500 H 0.4118 0.69556 0.33435 0.0
H501 H 0.45613 0.70865 0.37055 0.0
H502 H 0.47444 0.72438 0.42638 0.0
H503 H 0.46047 0.73402 0.48323 0.0
Mn504 Mn 0.20076 0.64578 0.08467 0.0
Mn505 Mn 0.16754 0.7064 0.09894 0.0
C506 C 0.14733 0.64925 0.09883 0.0
C507 C 0.21368 0.60894 0.05245 0.0
C508 C 0.20954 0.67816 0.14745 0.0
O509 O 0.23226 0.67122 0.06219 0.0
O510 O 0.20827 0.71032 0.07511 0.0
C511 C 0.15306 0.72079 0.03105 0.0
N512 N 0.14305 0.71665 0.06197 0.0
C513 C 0.08877 0.7272 0.04775 0.0
C514 C 0.09853 0.73175 0.01582 0.0
C515 C 0.13082 0.72851 1.00744 0.0
C516 C 0.11207 0.7198 0.07032 0.0
H517 H 0.1778 0.71817 0.02442 0.0
C518 C 0.23074 0.69684 0.0618 0.0
O519 O 0.22936 0.61426 0.07869 0.0
O520 O 0.19198 0.62606 0.04369 0.0
N521 N 0.12775 0.70555 0.12145 0.0
C522 C 0.12204 0.69901 0.15289 0.0
C523 C 0.09069 0.70004 0.16478 0.0
C524 C 0.06574 0.708 0.1443 0.0
C525 C 0.0723 0.71544 0.11235 0.0
C526 C 0.10401 0.71408 0.10187 0.0
H527 H 0.14114 0.69258 0.16859 0.0
O528 O 0.16303 0.62732 0.10444 0.0
O529 O 0.16344 0.66869 0.08575 0.0
O530 O 0.21578 0.65807 0.12946 0.0
O531 O 0.19157 0.69746 0.13859 0.0
C532 C 0.04849 0.72319 0.09018 0.0
C533 C 0.05673 0.72912 0.05792 0.0
H534 H 0.08141 0.73749 0.99747 0.0
H535 H 0.13852 0.73185 0.9828 0.0
H536 H 0.08568 0.6943 0.18948 0.0
H537 H 0.04159 0.70769 0.15312 0.0
H538 H 0.0237 0.72413 0.09746 0.0
H539 H 0.03816 0.7347 0.041 0.0
Mn540 Mn 0.29944 0.38265 0.58419 0.0
Mn541 Mn 0.33298 0.32194 0.59698 0.0
C542 C 0.35311 0.37914 0.59736 0.0
C543 C 0.28579 0.41964 0.55262 0.0
C544 C 0.29171 0.34968 0.64659 0.0
O545 O 0.26752 0.35739 0.56209 0.0
O546 O 0.29186 0.31823 0.57391 0.0
C547 C 0.34633 0.30827 0.52861 0.0
N548 N 0.35685 0.31206 0.55942 0.0
C549 C 0.41086 0.30153 0.54407 0.0
C550 C 0.40056 0.29733 0.51224 0.0
C551 C 0.36816 0.30075 0.50448 0.0
C552 C 0.38795 0.30877 0.56715 0.0
H553 H 0.32149 0.31101 0.52248 0.0
C554 C 0.26905 0.33178 0.56136 0.0
O555 O 0.27063 0.41413 0.57912 0.0
O556 O 0.30746 0.40268 0.54328 0.0
N557 N 0.37314 0.32254 0.61878 0.0
C558 C 0.37937 0.32869 0.65023 0.0
C559 C 0.41089 0.32744 0.66156 0.0
C560 C 0.43548 0.31964 0.6405 0.0
C561 C 0.42839 0.31256 0.60856 0.0
C562 C 0.39653 0.31414 0.59865 0.0
H563 H 0.36053 0.33498 0.66638 0.0
O564 O 0.33748 0.40102 0.60347 0.0
O565 O 0.33682 0.35979 0.5843 0.0
O566 O 0.28522 0.36996 0.62905 0.0
O567 O 0.30959 0.33048 0.63717 0.0
C568 C 0.45181 0.30497 0.58585 0.0
C569 C 0.44304 0.2994 0.55365 0.0
H570 H 0.41737 0.29174 0.4935 0.0
H571 H 0.36005 0.29768 0.47993 0.0
H572 H 0.41631 0.3329 0.68626 0.0
H573 H 0.45979 0.31983 0.64887 0.0
H574 H 0.47671 0.30387 0.5927 0.0
H575 H 0.46132 0.29395 0.53631 0.0
H576 H 0.34187 0.25484 0.11356 0.0
H577 H 0.25572 0.28428 0.94462 0.0
H578 H 0.31217 0.19469 0.04478 0.0
H579 H 0.26285 0.34471 0.01879 0.0
H580 H 0.28551 0.25343 0.97859 0.0
H581 H 0.32008 0.28964 0.07773 0.0
C582 C 0.33074 0.2489 0.09106 0.0
C583 C 0.32873 0.22168 0.08235 0.0
C584 C 0.28091 0.27348 0.98749 0.0
C585 C 0.30435 0.26141 0.04112 0.0
C586 C 0.26408 0.29119 0.96796 0.0
C587 C 0.25661 0.31703 0.979 0.0
C588 C 0.29027 0.28141 0.0186 0.0
C589 C 0.26824 0.32498 1.00936 0.0
C590 C 0.31841 0.2688 0.07062 0.0
C591 C 0.31417 0.21528 0.05279 0.0
N592 N 0.2842 0.30707 0.02838 0.0
N593 N 0.30269 0.23493 0.03335 0.0
H594 H 0.24367 0.74399 0.44796 0.0
H595 H 0.15985 0.77227 0.61849 0.0
H596 H 0.2393 0.68296 0.52153 0.0
H597 H 0.19214 0.83275 0.55135 0.0
H598 H 0.18152 0.73756 0.58223 0.0
H599 H 0.21486 0.77445 0.48335 0.0
C600 C 0.23608 0.73685 0.47147 0.0
C601 C 0.24405 0.71098 0.4819 0.0
C602 C 0.18382 0.75847 0.57565 0.0
C603 C 0.2116 0.74615 0.52317 0.0
C604 C 0.17161 0.77831 0.59635 0.0
C605 C 0.1742 0.8056 0.58813 0.0
C606 C 0.19828 0.76601 0.54639 0.0
C607 C 0.18953 0.81212 0.55898 0.0
C608 C 0.21985 0.75435 0.49182 0.0
C609 C 0.23346 0.70274 0.51255 0.0
N610 N 0.20076 0.79255 0.53927 0.0
N611 N 0.21807 0.72044 0.53239 0.0
H612 H 0.33473 0.77867 0.90841 0.0
H613 H 0.2559 0.74429 0.07984 0.0
H614 H 0.31199 0.83629 0.9829 0.0
H615 H 0.25821 0.68654 1.00236 0.0
H616 H 0.28482 0.77588 0.04608 0.0
H617 H 0.31277 0.743 0.9429 0.0
C618 C 0.32498 0.7839 0.93182 0.0
C619 C 0.32516 0.81067 0.94261 0.0
C620 C 0.27938 0.75625 0.03638 0.0
C621 C 0.30068 0.7699 0.98232 0.0
C622 C 0.26309 0.7381 0.0558 0.0
C623 C 0.25458 0.71281 0.04383 0.0
C624 C 0.28707 0.74933 1.00442 0.0
C625 C 0.26454 0.70581 0.01253 0.0
C626 C 0.31262 0.7635 0.95153 0.0
C627 C 0.3124 0.81611 0.97332 0.0
N628 N 0.27997 0.72415 0.99365 0.0
N629 N 0.30085 0.79598 0.99197 0.0
H630 H 0.23874 0.343 0.50363 0.0
H631 H 0.18666 0.18977 0.4863 0.0
H632 H 0.24537 0.2837 0.57907 0.0
H633 H 0.1629 0.24842 0.41344 0.0
H634 H 0.20745 0.22524 0.52023 0.0
H635 H 0.20851 0.31064 0.47054 0.0
C636 C 0.23307 0.32349 0.51354 0.0
C637 C 0.2447 0.3159 0.54401 0.0
C638 C 0.19765 0.23052 0.49687 0.0
C639 C 0.211 0.27883 0.50632 0.0
C640 C 0.1859 0.21013 0.47728 0.0
C641 C 0.17312 0.21597 0.44674 0.0
C642 C 0.19703 0.25718 0.48601 0.0
C643 C 0.17264 0.24294 0.43673 0.0
C644 C 0.21613 0.30496 0.49457 0.0
C645 C 0.23711 0.29028 0.55557 0.0
N646 N 0.18462 0.26256 0.45624 0.0
N647 N 0.22109 0.27267 0.53666 0.0
H648 H 0.81095 0.68999 0.04292 0.0
H649 H 0.76444 0.84388 0.01688 0.0
H650 H 0.84121 0.75136 0.10988 0.0
H651 H 0.75005 0.78062 0.94732 0.0
H652 H 0.79443 0.81212 0.0511 0.0
H653 H 0.7889 0.72426 1.00815 0.0
C654 C 0.81291 0.71071 0.05047 0.0
C655 C 0.82791 0.71766 0.0796 0.0
C656 C 0.78502 0.8054 0.02812 0.0
C657 C 0.8025 0.75752 0.03931 0.0
C658 C 0.76817 0.82354 1.00852 0.0
C659 C 0.75449 0.81477 0.9794 0.0
C660 C 0.78808 0.77849 0.01833 0.0
C661 C 0.75978 0.78817 0.96979 0.0
C662 C 0.80038 0.73041 0.03039 0.0
C663 C 0.82976 0.74503 0.08772 0.0
N664 N 0.77585 0.77104 0.98925 0.0
N665 N 0.81706 0.764 0.06773 0.0
H666 H 0.73626 0.18238 0.51193 0.0
H667 H 0.68703 0.33575 0.53692 0.0
H668 H 0.74811 0.24482 0.44095 0.0
H669 H 0.65972 0.27445 0.60519 0.0
H670 H 0.70841 0.30142 0.50156 0.0
H671 H 0.70557 0.21393 0.54578 0.0
C672 C 0.73168 0.20245 0.50311 0.0
C673 C 0.74489 0.21109 0.47373 0.0
C674 C 0.6977 0.29532 0.52421 0.0
C675 C 0.71062 0.24724 0.51233 0.0
C676 C 0.6856 0.31504 0.54463 0.0
C677 C 0.67166 0.30812 0.57432 0.0
C678 C 0.69627 0.26824 0.5334 0.0
C679 C 0.67036 0.28077 0.58261 0.0
C680 C 0.71447 0.22051 0.52254 0.0
C681 C 0.73863 0.23739 0.46359 0.0
N682 N 0.68269 0.26182 0.56234 0.0
N683 N 0.72229 0.25451 0.48293 0.0
H684 H 0.81622 0.33561 0.98007 0.0
H685 H 0.76187 0.18325 1.00024 0.0
H686 H 0.84142 0.2754 0.90946 0.0
H687 H 0.75556 0.24377 0.0744 0.0
H688 H 0.79303 0.21475 0.96679 0.0
H689 H 0.79435 0.30091 0.01445 0.0
C690 C 0.81708 0.31506 0.97165 0.0
C691 C 0.83057 0.30855 0.94161 0.0
C692 C 0.78524 0.22088 0.99062 0.0
C693 C 0.80539 0.26825 0.98138 0.0
C694 C 0.76775 0.20286 1.00978 0.0
C695 C 0.75595 0.21105 0.03997 0.0
C696 C 0.79076 0.2471 1.00192 0.0
C697 C 0.76387 0.23674 0.0511 0.0
C698 C 0.80471 0.29512 0.9915 0.0
C699 C 0.83116 0.28139 0.93237 0.0
N700 N 0.78044 0.25384 0.03202 0.0
N701 N 0.81854 0.26221 0.9521 0.0
H702 H 0.7406 0.78675 0.58149 0.0
H703 H 0.65715 0.75405 0.41199 0.0
H704 H 0.73492 0.84519 0.50505 0.0
H705 H 0.68291 0.69544 0.48418 0.0
H706 H 0.67793 0.78952 0.44743 0.0
H707 H 0.70975 0.75559 0.5488 0.0
C708 C 0.73219 0.79321 0.55799 0.0
C709 C 0.74039 0.81853 0.5459 0.0
C710 C 0.67891 0.76888 0.45542 0.0
C711 C 0.70577 0.78254 0.50771 0.0
C712 C 0.66716 0.7486 0.4352 0.0
C713 C 0.66849 0.72159 0.44492 0.0
C714 C 0.69172 0.76212 0.48571 0.0
C715 C 0.68156 0.71583 0.47537 0.0
C716 C 0.71481 0.77532 0.53918 0.0
C717 C 0.72887 0.8259 0.51531 0.0
N718 N 0.69257 0.73585 0.49455 0.0
N719 N 0.71248 0.80779 0.49697 0.0
H720 H 0.29623 0.07484 0.05552 0.0
H721 H 0.39859 0.97173 0.95209 0.0
H722 H 0.39582 0.06062 0.07563 0.0
H723 H 0.29977 0.95622 0.97461 0.0
H724 H 0.3974 1.01034 0.98907 0.0
H725 H 0.29631 0.03617 0.01878 0.0
C726 C 0.31799 0.06335 0.05253 0.0
C727 C 0.34597 0.07075 0.06891 0.0
C728 C 0.37595 0.99857 0.98564 0.0
C729 C 0.34652 0.02726 0.02599 0.0
C730 C 0.37648 0.97679 0.96426 0.0
C731 C 0.34919 0.96084 0.96019 0.0
C732 C 0.34773 1.00477 1.00246 0.0
C733 C 0.32132 0.96803 0.97702 0.0
C734 C 0.31804 0.0414 0.03149 0.0
C735 C 0.37361 0.05535 0.06385 0.0
N736 N 0.32124 0.98953 0.99728 0.0
N737 N 0.37333 0.03455 0.04249 0.0
H738 H 0.10426 0.96661 0.58069 0.0
H739 H 0.20534 0.07036 0.47776 0.0
H740 H 0.20357 0.95196 0.55931 0.0
H741 H 0.10643 0.05434 0.45635 0.0
H742 H 0.20582 0.03184 0.51464 0.0
H743 H 0.10513 1.00487 0.54335 0.0
C744 C 0.12641 0.97179 0.56868 0.0
C745 C 0.15394 0.95618 0.5732 0.0
C746 C 0.18413 0.03663 0.50162 0.0
C747 C 0.155 0.99972 0.53048 0.0
C748 C 0.18385 0.0585 0.48052 0.0
C749 C 0.15588 0.06535 0.46375 0.0
C750 C 0.15596 0.02203 0.50678 0.0
C751 C 0.1286 0.04949 0.46846 0.0
C752 C 0.12676 0.99337 0.5471 0.0
C753 C 0.18185 0.96352 0.55657 0.0
N754 N 0.12917 0.02878 0.4899 0.0
N755 N 0.18173 0.98484 0.53606 0.0
H756 H 0.76914 0.95241 0.9725 0.0
H757 H 0.66836 0.08041 0.01734 0.0
H758 H 0.67098 0.94647 1.00332 0.0
H759 H 0.76511 0.07393 0.05225 0.0
H760 H 0.6708 0.03353 0.9998 0.0
H761 H 0.77023 0.99908 0.99183 0.0
C762 C 0.74802 0.96079 0.98378 0.0
C763 C 0.71999 0.94554 0.98656 0.0
C764 C 0.69156 0.04251 1.01106 0.0
C765 C 0.72075 0.99888 1.00728 0.0
C766 C 0.69034 0.0693 0.0207 0.0
C767 C 0.71661 0.08105 0.0362 0.0
C768 C 0.71947 0.02756 0.01624 0.0
C769 C 0.74435 0.06557 0.04037 0.0
C770 C 0.74866 0.98735 0.99464 0.0
C771 C 0.69318 0.95741 1.00105 0.0
N772 N 0.74516 0.03959 0.03028 0.0
N773 N 0.69404 0.98353 1.01037 0.0
H774 H 0.79545 0.09166 0.52619 0.0
H775 H 0.79234 0.93707 0.49079 0.0
H776 H 0.76181 0.06211 0.43431 0.0
H777 H 0.76286 0.96728 0.58386 0.0
H778 H 0.78865 0.98284 0.469 0.0
H779 H 0.79104 0.04599 0.54818 0.0
C780 C 0.78685 0.07565 0.5108 0.0
C781 C 0.77881 0.08067 0.47848 0.0
C782 C 0.78269 0.97927 0.4941 0.0
C783 C 0.77469 0.02859 0.50305 0.0
C784 C 0.78479 0.95325 0.5065 0.0
C785 C 0.77772 0.94839 0.53908 0.0
C786 C 0.77444 1.00057 0.51472 0.0
C787 C 0.76825 0.97011 0.55851 0.0
C788 C 0.78434 0.04969 0.52331 0.0
C789 C 0.76798 0.05917 0.45946 0.0
N790 N 0.76737 0.99533 0.54617 0.0
N791 N 0.76671 0.03399 0.47186 0.0
H792 H 0.89595 0.47045 0.94617 0.0
H793 H 0.79537 0.5715 0.05379 0.0
H794 H 0.7977 0.45406 0.97036 0.0
H795 H 0.89532 0.55718 0.07185 0.0
H796 H 0.79482 0.53324 0.01647 0.0
H797 H 0.89532 0.50832 0.98419 0.0
C798 C 0.87406 0.47518 0.95893 0.0
C799 C 0.84677 0.45919 0.95501 0.0
C800 C 0.81676 0.53833 0.02887 0.0
C801 C 0.84599 0.50225 0.99851 0.0
C802 C 0.81707 0.56003 0.05024 0.0
C803 C 0.84535 0.5673 0.06618 0.0
C804 C 0.84517 0.52432 0.0226 0.0
C805 C 0.87291 0.55198 0.06042 0.0
C806 C 0.87387 0.49652 0.98091 0.0
C807 C 0.81922 0.46592 0.97262 0.0
N808 N 0.87226 0.53143 0.03872 0.0
N809 N 0.81946 0.48702 0.99349 0.0
H810 H 0.6054 0.47008 0.57433 0.0
H811 H 0.70487 0.57524 0.4721 0.0
H812 H 0.70381 0.45472 0.54973 0.0
H813 H 0.60589 0.55909 0.4511 0.0
H814 H 0.70584 0.53613 0.50815 0.0
H815 H 0.60589 0.50904 0.53798 0.0
C816 C 0.62729 0.47525 0.56184 0.0
C817 C 0.65466 0.45925 0.56512 0.0
C818 C 0.68403 0.54105 0.49539 0.0
C819 C 0.65531 0.50357 0.5236 0.0
C820 C 0.68347 0.56324 0.47477 0.0
C821 C 0.65535 0.5702 0.45835 0.0
C822 C 0.65597 0.52627 0.50045 0.0
C823 C 0.62819 0.55417 0.46294 0.0
C824 C 0.62741 0.49723 0.54083 0.0
C825 C 0.68223 0.46658 0.54791 0.0
N826 N 0.62903 0.53316 0.48394 0.0
N827 N 0.68193 0.4883 0.52802 0.0
H828 H 0.16865 0.58253 0.01734 0.0
H829 H 0.26771 0.45394 0.97085 0.0
H830 H 0.26512 0.57482 0.05269 0.0
H831 H 0.16989 0.44852 1.00292 0.0
H832 H 0.26937 0.50064 0.99011 0.0
H833 H 0.1707 0.53588 0.99885 0.0
C834 C 0.19051 0.57121 0.02057 0.0
C835 C 0.21679 0.58254 0.03652 0.0
C836 C 0.24773 0.48903 0.99316 0.0
C837 C 0.2192 0.52932 0.01545 0.0
C838 C 0.24678 0.46246 0.98234 0.0
C839 C 0.2187 0.44733 0.98557 0.0
C840 C 0.22009 0.50069 1.00621 0.0
C841 C 0.19213 0.45937 1.00032 0.0
C842 C 0.19149 0.54456 1.01038 0.0
C843 C 0.24436 0.5668 0.04049 0.0
N844 N 0.1933 0.48549 1.0096 0.0
N845 N 0.24494 0.54095 0.02987 0.0
H846 H 0.33107 0.5813 0.50503 0.0
H847 H 0.23338 0.45266 0.55252 0.0
H848 H 0.2346 0.57333 0.46979 0.0
H849 H 0.33063 0.44725 0.51869 0.0
H850 H 0.2312 0.4993 0.53308 0.0
H851 H 0.32935 0.53464 0.52336 0.0
C852 C 0.30929 0.56992 0.50177 0.0
C853 C 0.2829 0.58118 0.48592 0.0
C854 C 0.25281 0.48769 0.52968 0.0
C855 C 0.28087 0.52795 0.50684 0.0
C856 C 0.25407 0.46117 0.54062 0.0
C857 C 0.28215 0.44607 0.53695 0.0
C858 C 0.28018 0.49934 0.5161 0.0
C859 C 0.3084 0.45809 0.52165 0.0
C860 C 0.30849 0.54326 0.51189 0.0
C861 C 0.25544 0.56535 0.48192 0.0
N862 N 0.30697 0.48416 0.51228 0.0
N863 N 0.25503 0.5395 0.49248 0.0
H864 H 0.60994 0.13516 0.14804 0.0
H865 H 0.44735 0.17585 0.05761 0.0
H866 H 0.60599 0.16257 0.04949 0.0
H867 H 0.44965 0.13679 0.15037 0.0
H868 H 0.50593 0.17431 0.05588 0.0
H869 H 0.55133 0.13731 0.15071 0.0
C870 C 0.59662 0.14164 0.12702 0.0
C871 C 0.6126 0.14982 0.09898 0.0
C872 C 0.49364 0.16629 0.07677 0.0
C873 C 0.54591 0.15188 0.10148 0.0
C874 C 0.46029 0.16733 0.0778 0.0
C875 C 0.44383 0.15707 0.10453 0.0
C876 C 0.51057 0.15449 0.10245 0.0
C877 C 0.46156 0.14575 0.12984 0.0
C878 C 0.56326 0.14287 0.12849 0.0
C879 C 0.59444 0.15721 0.07199 0.0
N880 N 0.49396 0.14477 0.12821 0.0
N881 N 0.56207 0.15832 0.07397 0.0
H882 H 0.89361 0.86604 0.5448 0.0
H883 H 0.05047 0.89016 0.65139 0.0
H884 H 0.89151 0.89437 0.64308 0.0
H885 H 0.05254 0.8524 0.5578 0.0
H886 H 0.99237 0.89243 0.64849 0.0
H887 H 0.95209 0.86363 0.54752 0.0
C888 C 0.90559 0.87153 0.56703 0.0
C889 C 0.88794 0.87925 0.59425 0.0
C890 C 0.00538 0.88336 0.62868 0.0
C891 C 0.95452 0.87698 0.59749 0.0
C892 C 0.03854 0.88162 0.63061 0.0
C893 C 0.05616 0.87013 0.60535 0.0
C894 C 0.98969 0.87428 0.60078 0.0
C895 C 0.03968 0.86092 0.57805 0.0
C896 C 0.93889 0.87028 0.56855 0.0
C897 C 0.9044 0.88751 0.62194 0.0
N898 N 0.00731 0.8632 0.57646 0.0
N899 N 0.93679 0.8858 0.62304 0.0
H900 H 0.44954 0.89362 0.87511 0.0
H901 H 0.61187 0.8674 0.97213 0.0
H902 H 0.45301 0.85629 0.96883 0.0
H903 H 0.60961 0.89749 0.87467 0.0
H904 H 0.55347 0.86608 0.97259 0.0
H905 H 0.50778 0.89562 0.87434 0.0
C906 C 0.46266 0.88503 0.8951 0.0
C907 C 0.44651 0.8738 0.92152 0.0
C908 C 0.56562 0.87294 0.95103 0.0
C909 C 0.51324 0.87776 0.9219 0.0
C910 C 0.59892 0.8736 0.95073 0.0
C911 C 0.61537 0.88147 0.92282 0.0
C912 C 0.54861 0.8803 0.92318 0.0
C913 C 0.59766 0.89054 0.89629 0.0
C914 C 0.49592 0.8867 0.89495 0.0
C915 C 0.46462 0.86464 0.94774 0.0
N916 N 0.56516 0.88933 0.89691 0.0
N917 N 0.49703 0.86684 0.94729 0.0
H918 H 0.05349 0.17229 0.46771 0.0
H919 H 0.89339 0.13215 0.37268 0.0
H920 H 0.0537 0.13037 0.37671 0.0
H921 H 0.8944 0.16112 0.4707 0.0
H922 H 0.95207 0.13346 0.37206 0.0
H923 H 0.99487 0.1719 0.4672 0.0
C924 C 0.04111 0.16339 0.4474 0.0
C925 C 0.0583 0.15199 0.42181 0.0
C926 C 0.93948 0.13956 0.39371 0.0
C927 C 0.99147 0.15072 0.42138 0.0
C928 C 0.90608 0.13882 0.39402 0.0
C929 C 0.88927 0.14766 0.42129 0.0
C930 C 0.95605 0.14875 0.42112 0.0
C931 C 0.90663 0.15526 0.44874 0.0
C932 C 0.00772 0.163 0.44717 0.0
C933 C 0.04125 0.1402 0.39634 0.0
N934 N 0.93907 0.15588 0.44789 0.0
N935 N 0.00879 0.13988 0.39673 0.0
H936 H 0.10717 0.66285 0.05023 0.0
H937 H 0.9478 0.63396 0.15137 0.0
H938 H 0.10791 0.6335 0.14804 0.0
H939 H 0.94817 0.67137 0.05761 0.0
H940 H 0.00619 0.63352 0.15093 0.0
H941 H 0.04875 0.66403 0.05161 0.0
C942 C 0.09488 0.65687 0.07211 0.0
C943 C 0.11216 0.64914 0.09954 0.0
C944 C 0.9936 0.64208 0.13056 0.0
C945 C 0.04544 0.65001 0.10125 0.0
C946 C 0.96027 0.64273 0.13104 0.0
C947 C 0.94326 0.65354 0.10495 0.0
C948 C 0.01004 0.65165 0.10333 0.0
C949 C 0.96049 0.66327 0.07842 0.0
C950 C 0.06158 0.65743 0.07287 0.0
C951 C 0.09529 0.64031 0.12675 0.0
N952 N 0.99296 0.66208 0.07826 0.0
N953 N 0.0628 0.64131 0.1271 0.0
H954 H 0.55311 0.39155 0.64901 0.0
H955 H 0.39282 0.36606 0.54811 0.0
H956 H 0.55167 0.35583 0.55425 0.0
H957 H 0.39298 0.39422 0.64647 0.0
H958 H 0.45124 0.36447 0.54901 0.0
H959 H 0.49472 0.39284 0.64886 0.0
C960 C 0.54039 0.38331 0.62852 0.0
C961 C 0.5571 0.37274 0.60205 0.0
C962 C 0.43861 0.37092 0.57048 0.0
C963 C 0.49036 0.37565 0.60079 0.0
C964 C 0.40531 0.37172 0.56999 0.0
C965 C 0.38828 0.37919 0.59771 0.0
C966 C 0.45499 0.37781 0.59891 0.0
C967 C 0.4054 0.3876 0.62495 0.0
C968 C 0.50708 0.38446 0.62821 0.0
C969 C 0.53958 0.36372 0.57535 0.0
N970 N 0.43788 0.38633 0.62505 0.0
N971 N 0.50715 0.36539 0.57538 0.0
H972 H 0.10873 0.36696 0.97262 0.0
H973 H 0.94954 0.39331 0.87027 0.0
H974 H 0.10967 0.39565 0.87452 0.0
H975 H 0.95003 0.35632 0.96428 0.0
H976 H 0.00791 0.39467 0.87112 0.0
H977 H 0.05033 0.36536 0.971 0.0
C978 C 0.09649 0.37273 0.95063 0.0
C979 C 0.11382 0.38036 0.92319 0.0
C980 C 0.99535 0.38599 0.89145 0.0
C981 C 0.04713 0.37897 0.92118 0.0
C982 C 0.96205 0.38481 0.89073 0.0
C983 C 0.94508 0.37386 0.91678 0.0
C984 C 0.0118 0.37683 0.91887 0.0
C985 C 0.96233 0.36451 0.94349 0.0
C986 C 0.0632 0.37193 0.94973 0.0
C987 C 0.09701 0.38891 0.89583 0.0
N988 N 0.99475 0.36622 0.94388 0.0
N989 N 0.06453 0.38765 0.89533 0.0
H990 H 0.55172 0.63509 0.37322 0.0
H991 H 0.39142 0.66215 0.47361 0.0
H992 H 0.55012 0.67316 0.46663 0.0
H993 H 0.3914 0.63428 0.37513 0.0
H994 H 0.44982 0.66378 0.47249 0.0
H995 H 0.49332 0.63404 0.37328 0.0
C996 C 0.53897 0.64387 0.39338 0.0
C997 C 0.55563 0.65506 0.41947 0.0
C998 C 0.43715 0.65741 0.45103 0.0
C999 C 0.48887 0.65248 0.42068 0.0
C1000 C 0.40386 0.65659 0.45164 0.0
C1001 C 0.38677 0.64915 0.42397 0.0
C1002 C 0.45349 0.65053 0.42255 0.0
C1003 C 0.40385 0.64086 0.39663 0.0
C1004 C 0.50565 0.64289 0.39364 0.0
C1005 C 0.53807 0.66478 0.44582 0.0
N1006 N 0.43634 0.64209 0.39643 0.0
N1007 N 0.50563 0.66326 0.44577 0.0
H1008 H 0.29247 0.10458 0.18952 0.0
H1009 H 0.22806 0.17882 0.34861 0.0
H1010 H 0.29901 0.18934 0.20919 0.0
H1011 H 0.19354 0.10041 0.32281 0.0
H1012 H 0.26204 0.17876 0.30082 0.0
H1013 H 0.26054 0.09926 0.23944 0.0
C1014 C 0.2867 0.12207 0.2039 0.0
C1015 C 0.29859 0.14742 0.19524 0.0
C1016 C 0.24746 0.1613 0.30567 0.0
C1017 C 0.26322 0.14138 0.25245 0.0
C1018 C 0.22847 0.1612 0.33327 0.0
C1019 C 0.20849 0.13943 0.33984 0.0
C1020 C 0.24617 0.13963 0.28397 0.0
C1021 C 0.20922 0.11733 0.3188 0.0
C1022 C 0.26884 0.11898 0.23251 0.0
C1023 C 0.29072 0.16935 0.21499 0.0
N1024 N 0.22757 0.11805 0.2915 0.0
N1025 N 0.27389 0.16577 0.24259 0.0
H1026 H 0.3396 0.89309 0.79381 0.0
H1027 H 0.16276 0.86881 0.74 0.0
H1028 H 0.26223 0.89212 0.86255 0.0
H1029 H 0.23221 0.90228 0.67431 0.0
H1030 H 0.19871 0.87738 0.78484 0.0
H1031 H 0.30125 0.89745 0.74997 0.0
C1032 C 0.31451 0.89431 0.79977 0.0
C1033 C 0.30412 0.8922 0.83197 0.0
C1034 C 0.20601 0.88316 0.76073 0.0
C1035 C 0.25986 0.89643 0.7815 0.0
C1036 C 0.18556 0.87812 0.73491 0.0
C1037 C 0.19452 0.88463 0.70308 0.0
C1038 C 0.23614 0.89429 0.75488 0.0
C1039 C 0.22434 0.89684 0.69834 0.0
C1040 C 0.2926 0.8968 0.77462 0.0
C1041 C 0.27126 0.89381 0.83812 0.0
N1042 N 0.24432 0.90088 0.72392 0.0
N1043 N 0.25021 0.89529 0.81303 0.0
H1044 H 0.72275 0.80714 0.83531 0.0
H1045 H 0.77383 0.89331 0.68217 0.0
H1046 H 0.73994 0.89238 0.83961 0.0
H1047 H 0.79126 0.80813 0.68767 0.0
H1048 H 0.75654 0.89291 0.73845 0.0
H1049 H 0.74357 0.80663 0.78 0.0
C1050 C 0.73104 0.82572 0.82473 0.0
C1051 C 0.72956 0.84986 0.84221 0.0
C1052 C 0.76422 0.87431 0.72738 0.0
C1053 C 0.75299 0.8494 0.77876 0.0
C1054 C 0.77391 0.87447 0.69514 0.0
C1055 C 0.78393 0.85067 0.68004 0.0
C1056 C 0.76403 0.85014 0.74469 0.0
C1057 C 0.78376 0.82694 0.6983 0.0
C1058 C 0.74297 0.82538 0.79318 0.0
C1059 C 0.74072 0.87329 0.82719 0.0
N1060 N 0.77374 0.82723 0.72962 0.0
N1061 N 0.75167 0.87251 0.79627 0.0
H1062 H 0.77174 0.13601 0.33526 0.0
H1063 H 0.71604 0.22293 0.1842 0.0
H1064 H 0.78829 0.22134 0.33063 0.0
H1065 H 0.73629 0.13817 0.17866 0.0
H1066 H 0.73688 0.22332 0.2396 0.0
H1067 H 0.75248 0.13701 0.27971 0.0
C1068 C 0.77119 0.15502 0.32264 0.0
C1069 C 0.78164 0.17865 0.33774 0.0
C1070 C 0.73688 0.20472 0.22611 0.0
C1071 C 0.75946 0.17988 0.27392 0.0
C1072 C 0.72493 0.20444 0.19454 0.0
C1073 C 0.72443 0.18048 0.17666 0.0
C1074 C 0.74785 0.18079 0.24008 0.0
C1075 C 0.73632 0.15715 0.19136 0.0
C1076 C 0.76035 0.15552 0.29082 0.0
C1077 C 0.78055 0.20263 0.31995 0.0
N1078 N 0.74728 0.15786 0.22223 0.0
N1079 N 0.76946 0.20267 0.28901 0.0
H1080 H 0.70454 0.60382 0.33406 0.0
H1081 H 0.78148 0.68642 0.18764 0.0
H1082 H 0.70976 0.68991 0.32712 0.0
H1083 H 0.80215 0.60243 0.19974 0.0
H1084 H 0.74854 0.68533 0.23597 0.0
H1085 H 0.73718 0.60037 0.28438 0.0
C1086 C 0.71327 0.62191 0.32262 0.0
C1087 C 0.70448 0.6472 0.33465 0.0
C1088 C 0.75992 0.66695 0.22808 0.0
C1089 C 0.74055 0.64346 0.27771 0.0
C1090 C 0.77837 0.66753 0.20018 0.0
C1091 C 0.79428 0.64446 0.18962 0.0
C1092 C 0.7575 0.64317 0.24607 0.0
C1093 C 0.78979 0.62054 0.20694 0.0
C1094 C 0.73147 0.61994 0.29411 0.0
C1095 C 0.71585 0.67002 0.31861 0.0
N1096 N 0.77198 0.62052 0.23464 0.0
N1097 N 0.73294 0.66759 0.29098 0.0
H1098 H 0.71614 0.33775 0.68777 0.0
H1099 H 0.79854 0.42487 0.82728 0.0
H1100 H 0.70155 0.42315 0.69283 0.0
H1101 H 0.78982 0.3388 0.8262 0.0
H1102 H 0.76559 0.42692 0.77774 0.0
H1103 H 0.749 0.33996 0.73599 0.0
C1104 C 0.72048 0.35713 0.69878 0.0
C1105 C 0.70626 0.38029 0.68625 0.0
C1106 C 0.77058 0.40768 0.78872 0.0
C1107 C 0.74314 0.38299 0.74256 0.0
C1108 C 0.78896 0.40654 0.81716 0.0
C1109 C 0.79682 0.38161 0.8308 0.0
C1110 C 0.76037 0.3837 0.77404 0.0
C1111 C 0.78442 0.35842 0.81643 0.0
C1112 C 0.73895 0.35838 0.72661 0.0
C1113 C 0.71249 0.40489 0.70158 0.0
N1114 N 0.76714 0.36004 0.78885 0.0
N1115 N 0.7303 0.4056 0.72925 0.0
H1116 H 0.28647 0.30633 0.68718 0.0
H1117 H 0.2354 0.39309 0.8406 0.0
H1118 H 0.26849 0.39146 0.68261 0.0
H1119 H 0.2168 0.30813 0.8343 0.0
H1120 H 0.25458 0.39241 0.78484 0.0
H1121 H 0.26731 0.30619 0.74316 0.0
C1122 C 0.27844 0.32497 0.69787 0.0
C1123 C 0.27901 0.34894 0.68006 0.0
C1124 C 0.24633 0.37392 0.79569 0.0
C1125 C 0.25753 0.34893 0.74422 0.0
C1126 C 0.23556 0.37423 0.82761 0.0
C1127 C 0.22445 0.35061 0.84225 0.0
C1128 C 0.24648 0.34976 0.77829 0.0
C1129 C 0.22504 0.32683 0.82401 0.0
C1130 C 0.26746 0.32485 0.72979 0.0
C1131 C 0.26829 0.37248 0.69526 0.0
N1132 N 0.236 0.32699 0.79304 0.0
N1133 N 0.25823 0.37191 0.72649 0.0
H1134 H 0.28255 0.72199 0.33688 0.0
H1135 H 0.23372 0.636 0.18214 0.0
H1136 H 0.266 0.63664 0.34044 0.0
H1137 H 0.21441 0.72082 0.18924 0.0
H1138 H 0.25233 0.63632 0.2381 0.0
H1139 H 0.26362 0.72236 0.28087 0.0
C1140 C 0.27484 0.70334 0.32597 0.0
C1141 C 0.27579 0.67925 0.34351 0.0
C1142 C 0.24405 0.65486 0.22738 0.0
C1143 C 0.25459 0.67954 0.27925 0.0
C1144 C 0.23361 0.65475 0.19534 0.0
C1145 C 0.22247 0.67844 0.18086 0.0
C1146 C 0.24383 0.67888 0.24506 0.0
C1147 C 0.2227 0.70207 0.19938 0.0
C1148 C 0.26401 0.70361 0.29402 0.0
C1149 C 0.2655 0.65572 0.32802 0.0
N1150 N 0.23333 0.70172 0.23046 0.0
N1151 N 0.25558 0.65643 0.29674 0.0
loop_
_geom_bond_atom_site_label_1
_geom_bond_atom_site_label_2
_geom_bond_distance
_geom_bond_site_symmetry_2
_ccdc_geom_bond_type
Mn0 O5 2.095 . S
Mn0 O15 2.162 . S
Mn0 O16 2.297 . S
Mn0 O24 2.385 . S
Mn0 O25 2.209 . S
Mn0 O26 2.094 . S
Mn1 O6 2.121 . S
Mn1 N8 2.257 . S
Mn1 N17 2.282 . S
Mn1 O25 2.215 . S
Mn1 O27 2.117 . S
C2 O24 1.234 . S
C2 O25 1.283 . S
C3 O15 1.281 . S
C3 O16 1.236 . S
C4 O26 1.240 . S
C4 O27 1.264 . S
O5 Mn0 2.095 . S
O5 C14 1.250 . S
O6 Mn1 2.121 . S
O6 C14 1.258 . S
C7 N8 1.326 . S
C7 C11 1.460 . S
C7 H13 0.929 . S
N8 Mn1 2.257 . S
N8 C7 1.326 . S
N8 C12 1.362 . S
C9 C10 1.258 . S
C9 C12 1.431 . S
C9 C29 1.449 . S
C10 C9 1.258 . S
C10 C11 1.477 . S
C10 H30 0.931 . S
C11 C7 1.460 . S
C11 C10 1.477 . S
C11 H31 0.930 . S
C12 N8 1.362 . S
C12 C9 1.431 . S
C12 C22 1.476 . S
H13 C7 0.929 . S
C14 O5 1.250 . S
C14 O6 1.258 . S
O15 Mn0 2.162 . S
O15 C3 1.281 . S
O16 Mn0 2.297 . S
O16 C3 1.236 . S
N17 Mn1 2.282 . S
N17 C18 1.328 . S
N17 C22 1.318 . S
C18 N17 1.328 . S
C18 C19 1.457 . S
C18 H23 0.929 . S
C19 C18 1.457 . S
C19 C20 1.291 . S
C19 H32 0.931 . S
C20 C19 1.291 . S
C20 C21 1.373 . S
C20 H33 0.929 . S
C21 C20 1.373 . S
C21 C22 1.396 . S
C21 C28 1.403 . S
C22 C12 1.476 . S
C22 N17 1.318 . S
C22 C21 1.396 . S
H23 C18 0.929 . S
O24 Mn0 2.385 . S
O24 C2 1.234 . S
O25 Mn0 2.209 . S
O25 Mn1 2.215 . S
O25 C2 1.283 . S
O26 Mn0 2.094 . S
O26 C4 1.240 . S
O27 Mn1 2.117 . S
O27 C4 1.264 . S
C28 C21 1.403 . S
C28 C29 1.399 . S
C28 H34 0.929 . S
C29 C9 1.449 . S
C29 C28 1.399 . S
C29 H35 0.930 . S
H30 C10 0.931 . S
H31 C11 0.930 . S
H32 C19 0.931 . S
H33 C20 0.929 . S
H34 C28 0.929 . S
H35 C29 0.930 . S
Mn36 O41 2.095 . S
Mn36 O51 2.162 . S
Mn36 O52 2.297 . S
Mn36 O60 2.385 . S
Mn36 O61 2.209 . S
Mn36 O62 2.094 . S
Mn37 O42 2.121 . S
Mn37 N44 2.257 . S
Mn37 N53 2.282 . S
Mn37 O61 2.215 . S
Mn37 O63 2.117 . S
C38 O60 1.234 . S
C38 O61 1.283 . S
C39 O51 1.281 . S
C39 O52 1.236 . S
C40 O62 1.240 . S
C40 O63 1.264 . S
O41 Mn36 2.095 . S
O41 C50 1.250 . S
O42 Mn37 2.121 . S
O42 C50 1.258 . S
C43 N44 1.326 . S
C43 C47 1.460 . S
C43 H49 0.929 . S
N44 Mn37 2.257 . S
N44 C43 1.326 . S
N44 C48 1.362 . S
C45 C46 1.258 . S
C45 C48 1.431 . S
C45 C65 1.449 . S
C46 C45 1.258 . S
C46 C47 1.477 . S
C46 H66 0.931 . S
C47 C43 1.460 . S
C47 C46 1.477 . S
C47 H67 0.930 . S
C48 N44 1.362 . S
C48 C45 1.431 . S
C48 C58 1.476 . S
H49 C43 0.929 . S
C50 O41 1.250 . S
C50 O42 1.258 . S
O51 Mn36 2.162 . S
O51 C39 1.281 . S
O52 Mn36 2.297 . S
O52 C39 1.236 . S
N53 Mn37 2.282 . S
N53 C54 1.328 . S
N53 C58 1.318 . S
C54 N53 1.328 . S
C54 C55 1.457 . S
C54 H59 0.929 . S
C55 C54 1.457 . S
C55 C56 1.291 . S
C55 H68 0.931 . S
C56 C55 1.291 . S
C56 C57 1.373 . S
C56 H69 0.929 . S
C57 C56 1.373 . S
C57 C58 1.396 . S
C57 C64 1.403 . S
C58 C48 1.476 . S
C58 N53 1.318 . S
C58 C57 1.396 . S
H59 C54 0.929 . S
O60 Mn36 2.385 . S
O60 C38 1.234 . S
O61 Mn36 2.209 . S
O61 Mn37 2.215 . S
O61 C38 1.283 . S
O62 Mn36 2.094 . S
O62 C40 1.240 . S
O63 Mn37 2.117 . S
O63 C40 1.264 . S
C64 C57 1.403 . S
C64 C65 1.399 . S
C64 H70 0.929 . S
C65 C45 1.449 . S
C65 C64 1.399 . S
C65 H71 0.930 . S
H66 C46 0.931 . S
H67 C47 0.930 . S
H68 C55 0.931 . S
H69 C56 0.929 . S
H70 C64 0.929 . S
H71 C65 0.930 . S
Mn72 O77 2.095 . S
Mn72 O87 2.162 . S
Mn72 O88 2.297 . S
Mn72 O96 2.385 . S
Mn72 O97 2.209 . S
Mn72 O98 2.094 . S
Mn73 O78 2.121 . S
Mn73 N80 2.257 . S
Mn73 N89 2.282 . S
Mn73 O97 2.215 . S
Mn73 O99 2.117 . S
C74 O96 1.234 . S
C74 O97 1.283 . S
C75 O87 1.281 . S
C75 O88 1.236 . S
C76 O98 1.240 . S
C76 O99 1.264 . S
O77 Mn72 2.095 . S
O77 C86 1.250 . S
O78 Mn73 2.121 . S
O78 C86 1.258 . S
C79 N80 1.326 . S
C79 C83 1.460 . S
C79 H85 0.929 . S
N80 Mn73 2.257 . S
N80 C79 1.326 . S
N80 C84 1.362 . S
C81 C82 1.258 . S
C81 C84 1.431 . S
C81 C101 1.449 . S
C82 C81 1.258 . S
C82 C83 1.477 . S
C82 H102 0.931 . S
C83 C79 1.460 . S
C83 C82 1.477 . S
C83 H103 0.930 . S
C84 N80 1.362 . S
C84 C81 1.431 . S
C84 C94 1.476 . S
H85 C79 0.929 . S
C86 O77 1.250 . S
C86 O78 1.258 . S
O87 Mn72 2.162 . S
O87 C75 1.281 . S
O88 Mn72 2.297 . S
O88 C75 1.236 . S
N89 Mn73 2.282 . S
N89 C90 1.328 . S
N89 C94 1.318 . S
C90 N89 1.328 . S
C90 C91 1.457 . S
C90 H95 0.929 . S
C91 C90 1.457 . S
C91 C92 1.291 . S
C91 H104 0.931 . S
C92 C91 1.291 . S
C92 C93 1.373 . S
C92 H105 0.929 . S
C93 C92 1.373 . S
C93 C94 1.396 . S
C93 C100 1.403 . S
C94 C84 1.476 . S
C94 N89 1.318 . S
C94 C93 1.396 . S
H95 C90 0.929 . S
O96 Mn72 2.385 . S
O96 C74 1.234 . S
O97 Mn72 2.209 . S
O97 Mn73 2.215 . S
O97 C74 1.283 . S
O98 Mn72 2.094 . S
O98 C76 1.240 . S
O99 Mn73 2.117 . S
O99 C76 1.264 . S
C100 C93 1.403 . S
C100 C101 1.399 . S
C100 H106 0.929 . S
C101 C81 1.449 . S
C101 C100 1.399 . S
C101 H107 0.930 . S
H102 C82 0.931 . S
H103 C83 0.930 . S
H104 C91 0.931 . S
H105 C92 0.929 . S
H106 C100 0.929 . S
H107 C101 0.930 . S
Mn108 O113 2.095 . S
Mn108 O123 2.162 . S
Mn108 O124 2.297 . S
Mn108 O132 2.385 . S
Mn108 O133 2.209 . S
Mn108 O134 2.094 . S
Mn109 O114 2.121 . S
Mn109 N116 2.257 . S
Mn109 N125 2.282 . S
Mn109 O133 2.215 . S
Mn109 O135 2.117 . S
C110 O132 1.234 . S
C110 O133 1.283 . S
C111 O123 1.281 . S
C111 O124 1.236 . S
C112 O134 1.240 . S
C112 O135 1.264 . S
O113 Mn108 2.095 . S
O113 C122 1.250 . S
O114 Mn109 2.121 . S
O114 C122 1.258 . S
C115 N116 1.326 . S
C115 C119 1.460 . S
C115 H121 0.929 . S
N116 Mn109 2.257 . S
N116 C115 1.326 . S
N116 C120 1.362 . S
C117 C118 1.258 . S
C117 C120 1.431 . S
C117 C137 1.449 . S
C118 C117 1.258 . S
C118 C119 1.477 . S
C118 H138 0.931 . S
C119 C115 1.460 . S
C119 C118 1.477 . S
C119 H139 0.930 . S
C120 N116 1.362 . S
C120 C117 1.431 . S
C120 C130 1.476 . S
H121 C115 0.929 . S
C122 O113 1.250 . S
C122 O114 1.258 . S
O123 Mn108 2.162 . S
O123 C111 1.281 . S
O124 Mn108 2.297 . S
O124 C111 1.236 . S
N125 Mn109 2.282 . S
N125 C126 1.328 . S
N125 C130 1.318 . S
C126 N125 1.328 . S
C126 C127 1.457 . S
C126 H131 0.929 . S
C127 C126 1.457 . S
C127 C128 1.291 . S
C127 H140 0.931 . S
C128 C127 1.291 . S
C128 C129 1.373 . S
C128 H141 0.929 . S
C129 C128 1.373 . S
C129 C130 1.396 . S
C129 C136 1.403 . S
C130 C120 1.476 . S
C130 N125 1.318 . S
C130 C129 1.396 . S
H131 C126 0.929 . S
O132 Mn108 2.385 . S
O132 C110 1.234 . S
O133 Mn108 2.209 . S
O133 Mn109 2.215 . S
O133 C110 1.283 . S
O134 Mn108 2.094 . S
O134 C112 1.240 . S
O135 Mn109 2.117 . S
O135 C112 1.264 . S
C136 C129 1.403 . S
C136 C137 1.399 . S
C136 H142 0.929 . S
C137 C117 1.449 . S
C137 C136 1.399 . S
C137 H143 0.930 . S
H138 C118 0.931 . S
H139 C119 0.930 . S
H140 C127 0.931 . S
H141 C128 0.929 . S
H142 C136 0.929 . S
H143 C137 0.930 . S
Mn144 O149 2.095 . S
Mn144 O159 2.162 . S
Mn144 O160 2.297 . S
Mn144 O168 2.385 . S
Mn144 O169 2.209 . S
Mn144 O170 2.094 . S
Mn145 O150 2.121 . S
Mn145 N152 2.257 . S
Mn145 N161 2.282 . S
Mn145 O169 2.215 . S
Mn145 O171 2.117 . S
C146 O168 1.234 . S
C146 O169 1.283 . S
C147 O159 1.281 . S
C147 O160 1.236 . S
C148 O170 1.240 . S
C148 O171 1.264 . S
O149 Mn144 2.095 . S
O149 C158 1.250 . S
O150 Mn145 2.121 . S
O150 C158 1.258 . S
C151 N152 1.326 . S
C151 C155 1.460 . S
C151 H157 0.929 . S
N152 Mn145 2.257 . S
N152 C151 1.326 . S
N152 C156 1.362 . S
C153 C154 1.258 . S
C153 C156 1.431 . S
C153 C173 1.449 . S
C154 C153 1.258 . S
C154 C155 1.477 . S
C154 H174 0.931 . S
C155 C151 1.460 . S
C155 C154 1.477 . S
C155 H175 0.930 . S
C156 N152 1.362 . S
C156 C153 1.431 . S
C156 C166 1.476 . S
H157 C151 0.929 . S
C158 O149 1.250 . S
C158 O150 1.258 . S
O159 Mn144 2.162 . S
O159 C147 1.281 . S
O160 Mn144 2.297 . S
O160 C147 1.236 . S
N161 Mn145 2.282 . S
N161 C162 1.328 . S
N161 C166 1.318 . S
C162 N161 1.328 . S
C162 C163 1.457 . S
C162 H167 0.929 . S
C163 C162 1.457 . S
C163 C164 1.291 . S
C163 H176 0.931 . S
C164 C163 1.291 . S
C164 C165 1.373 . S
C164 H177 0.929 . S
C165 C164 1.373 . S
C165 C166 1.396 . S
C165 C172 1.403 . S
C166 C156 1.476 . S
C166 N161 1.318 . S
C166 C165 1.396 . S
H167 C162 0.929 . S
O168 Mn144 2.385 . S
O168 C146 1.234 . S
O169 Mn144 2.209 . S
O169 Mn145 2.215 . S
O169 C146 1.283 . S
O170 Mn144 2.094 . S
O170 C148 1.240 . S
O171 Mn145 2.117 . S
O171 C148 1.264 . S
C172 C165 1.403 . S
C172 C173 1.399 . S
C172 H178 0.929 . S
C173 C153 1.449 . S
C173 C172 1.399 . S
C173 H179 0.930 . S
H174 C154 0.931 . S
H175 C155 0.930 . S
H176 C163 0.931 . S
H177 C164 0.929 . S
H178 C172 0.929 . S
H179 C173 0.930 . S
Mn180 O185 2.095 . S
Mn180 O195 2.162 . S
Mn180 O196 2.297 . S
Mn180 O204 2.385 . S
Mn180 O205 2.209 . S
Mn180 O206 2.094 . S
Mn181 O186 2.121 . S
Mn181 N188 2.257 . S
Mn181 N197 2.282 . S
Mn181 O205 2.215 . S
Mn181 O207 2.117 . S
C182 O204 1.234 . S
C182 O205 1.283 . S
C183 O195 1.281 . S
C183 O196 1.236 . S
C184 O206 1.240 . S
C184 O207 1.264 . S
O185 Mn180 2.095 . S
O185 C194 1.250 . S
O186 Mn181 2.121 . S
O186 C194 1.258 . S
C187 N188 1.326 . S
C187 C191 1.460 . S
C187 H193 0.929 . S
N188 Mn181 2.257 . S
N188 C187 1.326 . S
N188 C192 1.362 . S
C189 C190 1.258 . S
C189 C192 1.431 . S
C189 C209 1.449 . S
C190 C189 1.258 . S
C190 C191 1.477 . S
C190 H210 0.931 . S
C191 C187 1.460 . S
C191 C190 1.477 . S
C191 H211 0.930 . S
C192 N188 1.362 . S
C192 C189 1.431 . S
C192 C202 1.476 . S
H193 C187 0.929 . S
C194 O185 1.250 . S
C194 O186 1.258 . S
O195 Mn180 2.162 . S
O195 C183 1.281 . S
O196 Mn180 2.297 . S
O196 C183 1.236 . S
N197 Mn181 2.282 . S
N197 C198 1.328 . S
N197 C202 1.318 . S
C198 N197 1.328 . S
C198 C199 1.457 . S
C198 H203 0.929 . S
C199 C198 1.457 . S
C199 C200 1.291 . S
C199 H212 0.931 . S
C200 C199 1.291 . S
C200 C201 1.373 . S
C200 H213 0.929 . S
C201 C200 1.373 . S
C201 C202 1.396 . S
C201 C208 1.403 . S
C202 C192 1.476 . S
C202 N197 1.318 . S
C202 C201 1.396 . S
H203 C198 0.929 . S
O204 Mn180 2.385 . S
O204 C182 1.234 . S
O205 Mn180 2.209 . S
O205 Mn181 2.215 . S
O205 C182 1.283 . S
O206 Mn180 2.094 . S
O206 C184 1.240 . S
O207 Mn181 2.117 . S
O207 C184 1.264 . S
C208 C201 1.403 . S
C208 C209 1.399 . S
C208 H214 0.929 . S
C209 C189 1.449 . S
C209 C208 1.399 . S
C209 H215 0.930 . S
H210 C190 0.931 . S
H211 C191 0.930 . S
H212 C199 0.931 . S
H213 C200 0.929 . S
H214 C208 0.929 . S
H215 C209 0.930 . S
Mn216 O221 2.095 . S
Mn216 O231 2.162 . S
Mn216 O232 2.297 . S
Mn216 O240 2.385 . S
Mn216 O241 2.209 . S
Mn216 O242 2.094 . S
Mn217 O222 2.121 . S
Mn217 N224 2.257 . S
Mn217 N233 2.282 . S
Mn217 O241 2.215 . S
Mn217 O243 2.117 . S
C218 O240 1.234 . S
C218 O241 1.283 . S
C219 O231 1.281 . S
C219 O232 1.236 . S
C220 O242 1.240 . S
C220 O243 1.264 . S
O221 Mn216 2.095 . S
O221 C230 1.250 . S
O222 Mn217 2.121 . S
O222 C230 1.258 . S
C223 N224 1.326 . S
C223 C227 1.460 . S
C223 H229 0.929 . S
N224 Mn217 2.257 . S
N224 C223 1.326 . S
N224 C228 1.362 . S
C225 C226 1.258 . S
C225 C228 1.431 . S
C225 C245 1.449 . S
C226 C225 1.258 . S
C226 C227 1.477 . S
C226 H246 0.931 . S
C227 C223 1.460 . S
C227 C226 1.477 . S
C227 H247 0.930 . S
C228 N224 1.362 . S
C228 C225 1.431 . S
C228 C238 1.476 . S
H229 C223 0.929 . S
C230 O221 1.250 . S
C230 O222 1.258 . S
O231 Mn216 2.162 . S
O231 C219 1.281 . S
O232 Mn216 2.297 . S
O232 C219 1.236 . S
N233 Mn217 2.282 . S
N233 C234 1.328 . S
N233 C238 1.318 . S
C234 N233 1.328 . S
C234 C235 1.457 . S
C234 H239 0.929 . S
C235 C234 1.457 . S
C235 C236 1.291 . S
C235 H248 0.931 . S
C236 C235 1.291 . S
C236 C237 1.373 . S
C236 H249 0.929 . S
C237 C236 1.373 . S
C237 C238 1.396 . S
C237 C244 1.403 . S
C238 C228 1.476 . S
C238 N233 1.318 . S
C238 C237 1.396 . S
H239 C234 0.929 . S
O240 Mn216 2.385 . S
O240 C218 1.234 . S
O241 Mn216 2.209 . S
O241 Mn217 2.215 . S
O241 C218 1.283 . S
O242 Mn216 2.094 . S
O242 C220 1.240 . S
O243 Mn217 2.117 . S
O243 C220 1.264 . S
C244 C237 1.403 . S
C244 C245 1.399 . S
C244 H250 0.929 . S
C245 C225 1.449 . S
C245 C244 1.399 . S
C245 H251 0.930 . S
H246 C226 0.931 . S
H247 C227 0.930 . S
H248 C235 0.931 . S
H249 C236 0.929 . S
H250 C244 0.929 . S
H251 C245 0.930 . S
Mn252 O257 2.095 . S
Mn252 O267 2.162 . S
Mn252 O268 2.297 . S
Mn252 O276 2.385 . S
Mn252 O277 2.209 . S
Mn252 O278 2.094 . S
Mn253 O258 2.121 . S
Mn253 N260 2.257 . S
Mn253 N269 2.282 . S
Mn253 O277 2.215 . S
Mn253 O279 2.117 . S
C254 O276 1.234 . S
C254 O277 1.283 . S
C255 O267 1.281 . S
C255 O268 1.236 . S
C256 O278 1.240 . S
C256 O279 1.264 . S
O257 Mn252 2.095 . S
O257 C266 1.250 . S
O258 Mn253 2.121 . S
O258 C266 1.258 . S
C259 N260 1.326 . S
C259 C263 1.460 . S
C259 H265 0.929 . S
N260 Mn253 2.257 . S
N260 C259 1.326 . S
N260 C264 1.362 . S
C261 C262 1.258 . S
C261 C264 1.431 . S
C261 C281 1.449 . S
C262 C261 1.258 . S
C262 C263 1.477 . S
C262 H282 0.931 . S
C263 C259 1.460 . S
C263 C262 1.477 . S
C263 H283 0.930 . S
C264 N260 1.362 . S
C264 C261 1.431 . S
C264 C274 1.476 . S
H265 C259 0.929 . S
C266 O257 1.250 . S
C266 O258 1.258 . S
O267 Mn252 2.162 . S
O267 C255 1.281 . S
O268 Mn252 2.297 . S
O268 C255 1.236 . S
N269 Mn253 2.282 . S
N269 C270 1.328 . S
N269 C274 1.318 . S
C270 N269 1.328 . S
C270 C271 1.457 . S
C270 H275 0.929 . S
C271 C270 1.457 . S
C271 C272 1.291 . S
C271 H284 0.931 . S
C272 C271 1.291 . S
C272 C273 1.373 . S
C272 H285 0.929 . S
C273 C272 1.373 . S
C273 C274 1.396 . S
C273 C280 1.403 . S
C274 C264 1.476 . S
C274 N269 1.318 . S
C274 C273 1.396 . S
H275 C270 0.929 . S
O276 Mn252 2.385 . S
O276 C254 1.234 . S
O277 Mn252 2.209 . S
O277 Mn253 2.215 . S
O277 C254 1.283 . S
O278 Mn252 2.094 . S
O278 C256 1.240 . S
O279 Mn253 2.117 . S
O279 C256 1.264 . S
C280 C273 1.403 . S
C280 C281 1.399 . S
C280 H286 0.929 . S
C281 C261 1.449 . S
C281 C280 1.399 . S
C281 H287 0.930 . S
H282 C262 0.931 . S
H283 C263 0.930 . S
H284 C271 0.931 . S
H285 C272 0.929 . S
H286 C280 0.929 . S
H287 C281 0.930 . S
Mn288 O293 2.095 . S
Mn288 O303 2.162 . S
Mn288 O304 2.297 . S
Mn288 O312 2.385 . S
Mn288 O313 2.209 . S
Mn288 O314 2.094 . S
Mn289 O294 2.121 . S
Mn289 N296 2.257 . S
Mn289 N305 2.282 . S
Mn289 O313 2.215 . S
Mn289 O315 2.117 . S
C290 O312 1.234 . S
C290 O313 1.283 . S
C291 O303 1.281 . S
C291 O304 1.236 . S
C292 O314 1.240 . S
C292 O315 1.264 . S
O293 Mn288 2.095 . S
O293 C302 1.250 . S
O294 Mn289 2.121 . S
O294 C302 1.258 . S
C295 N296 1.326 . S
C295 C299 1.460 . S
C295 H301 0.929 . S
N296 Mn289 2.257 . S
N296 C295 1.326 . S
N296 C300 1.362 . S
C297 C298 1.258 . S
C297 C300 1.431 . S
C297 C317 1.449 . S
C298 C297 1.258 . S
C298 C299 1.477 . S
C298 H318 0.931 . S
C299 C295 1.460 . S
C299 C298 1.477 . S
C299 H319 0.930 . S
C300 N296 1.362 . S
C300 C297 1.431 . S
C300 C310 1.476 . S
H301 C295 0.929 . S
C302 O293 1.250 . S
C302 O294 1.258 . S
O303 Mn288 2.162 . S
O303 C291 1.281 . S
O304 Mn288 2.297 . S
O304 C291 1.236 . S
N305 Mn289 2.282 . S
N305 C306 1.328 . S
N305 C310 1.318 . S
C306 N305 1.328 . S
C306 C307 1.457 . S
C306 H311 0.929 . S
C307 C306 1.457 . S
C307 C308 1.291 . S
C307 H320 0.931 . S
C308 C307 1.291 . S
C308 C309 1.373 . S
C308 H321 0.929 . S
C309 C308 1.373 . S
C309 C310 1.396 . S
C309 C316 1.403 . S
C310 C300 1.476 . S
C310 N305 1.318 . S
C310 C309 1.396 . S
H311 C306 0.929 . S
O312 Mn288 2.385 . S
O312 C290 1.234 . S
O313 Mn288 2.209 . S
O313 Mn289 2.215 . S
O313 C290 1.283 . S
O314 Mn288 2.094 . S
O314 C292 1.240 . S
O315 Mn289 2.117 . S
O315 C292 1.264 . S
C316 C309 1.403 . S
C316 C317 1.399 . S
C316 H322 0.929 . S
C317 C297 1.449 . S
C317 C316 1.399 . S
C317 H323 0.930 . S
H318 C298 0.931 . S
H319 C299 0.930 . S
H320 C307 0.931 . S
H321 C308 0.929 . S
H322 C316 0.929 . S
H323 C317 0.930 . S
Mn324 O329 2.095 . S
Mn324 O339 2.162 . S
Mn324 O340 2.297 . S
Mn324 O348 2.385 . S
Mn324 O349 2.209 . S
Mn324 O350 2.094 . S
Mn325 O330 2.121 . S
Mn325 N332 2.257 . S
Mn325 N341 2.282 . S
Mn325 O349 2.215 . S
Mn325 O351 2.117 . S
C326 O348 1.234 . S
C326 O349 1.283 . S
C327 O339 1.281 . S
C327 O340 1.236 . S
C328 O350 1.240 . S
C328 O351 1.264 . S
O329 Mn324 2.095 . S
O329 C338 1.250 . S
O330 Mn325 2.121 . S
O330 C338 1.258 . S
C331 N332 1.326 . S
C331 C335 1.460 . S
C331 H337 0.929 . S
N332 Mn325 2.257 . S
N332 C331 1.326 . S
N332 C336 1.362 . S
C333 C334 1.258 . S
C333 C336 1.431 . S
C333 C353 1.449 . S
C334 C333 1.258 . S
C334 C335 1.477 . S
C334 H354 0.931 . S
C335 C331 1.460 . S
C335 C334 1.477 . S
C335 H355 0.930 . S
C336 N332 1.362 . S
C336 C333 1.431 . S
C336 C346 1.476 . S
H337 C331 0.929 . S
C338 O329 1.250 . S
C338 O330 1.258 . S
O339 Mn324 2.162 . S
O339 C327 1.281 . S
O340 Mn324 2.297 . S
O340 C327 1.236 . S
N341 Mn325 2.282 . S
N341 C342 1.328 . S
N341 C346 1.318 . S
C342 N341 1.328 . S
C342 C343 1.457 . S
C342 H347 0.929 . S
C343 C342 1.457 . S
C343 C344 1.291 . S
C343 H356 0.931 . S
C344 C343 1.291 . S
C344 C345 1.373 . S
C344 H357 0.929 . S
C345 C344 1.373 . S
C345 C346 1.396 . S
C345 C352 1.403 . S
C346 C336 1.476 . S
C346 N341 1.318 . S
C346 C345 1.396 . S
H347 C342 0.929 . S
O348 Mn324 2.385 . S
O348 C326 1.234 . S
O349 Mn324 2.209 . S
O349 Mn325 2.215 . S
O349 C326 1.283 . S
O350 Mn324 2.094 . S
O350 C328 1.240 . S
O351 Mn325 2.117 . S
O351 C328 1.264 . S
C352 C345 1.403 . S
C352 C353 1.399 . S
C352 H358 0.929 . S
C353 C333 1.449 . S
C353 C352 1.399 . S
C353 H359 0.930 . S
H354 C334 0.931 . S
H355 C335 0.930 . S
H356 C343 0.931 . S
H357 C344 0.929 . S
H358 C352 0.929 . S
H359 C353 0.930 . S
Mn360 O365 2.095 . S
Mn360 O375 2.162 . S
Mn360 O376 2.297 . S
Mn360 O384 2.385 . S
Mn360 O385 2.209 . S
Mn360 O386 2.094 . S
Mn361 O366 2.121 . S
Mn361 N368 2.257 . S
Mn361 N377 2.282 . S
Mn361 O385 2.215 . S
Mn361 O387 2.117 . S
C362 O384 1.234 . S
C362 O385 1.283 . S
C363 O375 1.281 . S
C363 O376 1.236 . S
C364 O386 1.240 . S
C364 O387 1.264 . S
O365 Mn360 2.095 . S
O365 C374 1.250 . S
O366 Mn361 2.121 . S
O366 C374 1.258 . S
C367 N368 1.326 . S
C367 C371 1.460 . S
C367 H373 0.929 . S
N368 Mn361 2.257 . S
N368 C367 1.326 . S
N368 C372 1.362 . S
C369 C370 1.258 . S
C369 C372 1.431 . S
C369 C389 1.449 . S
C370 C369 1.258 . S
C370 C371 1.477 . S
C370 H390 0.931 . S
C371 C367 1.460 . S
C371 C370 1.477 . S
C371 H391 0.930 . S
C372 N368 1.362 . S
C372 C369 1.431 . S
C372 C382 1.476 . S
H373 C367 0.929 . S
C374 O365 1.250 . S
C374 O366 1.258 . S
O375 Mn360 2.162 . S
O375 C363 1.281 . S
O376 Mn360 2.297 . S
O376 C363 1.236 . S
N377 Mn361 2.282 . S
N377 C378 1.328 . S
N377 C382 1.318 . S
C378 N377 1.328 . S
C378 C379 1.457 . S
C378 H383 0.929 . S
C379 C378 1.457 . S
C379 C380 1.291 . S
C379 H392 0.931 . S
C380 C379 1.291 . S
C380 C381 1.373 . S
C380 H393 0.929 . S
C381 C380 1.373 . S
C381 C382 1.396 . S
C381 C388 1.403 . S
C382 C372 1.476 . S
C382 N377 1.318 . S
C382 C381 1.396 . S
H383 C378 0.929 . S
O384 Mn360 2.385 . S
O384 C362 1.234 . S
O385 Mn360 2.209 . S
O385 Mn361 2.215 . S
O385 C362 1.283 . S
O386 Mn360 2.094 . S
O386 C364 1.240 . S
O387 Mn361 2.117 . S
O387 C364 1.264 . S
C388 C381 1.403 . S
C388 C389 1.399 . S
C388 H394 0.929 . S
C389 C369 1.449 . S
C389 C388 1.399 . S
C389 H395 0.930 . S
H390 C370 0.931 . S
H391 C371 0.930 . S
H392 C379 0.931 . S
H393 C380 0.929 . S
H394 C388 0.929 . S
H395 C389 0.930 . S
Mn396 O401 2.095 . S
Mn396 O411 2.162 . S
Mn396 O412 2.297 . S
Mn396 O420 2.385 . S
Mn396 O421 2.209 . S
Mn396 O422 2.094 . S
Mn397 O402 2.121 . S
Mn397 N404 2.257 . S
Mn397 N413 2.282 . S
Mn397 O421 2.215 . S
Mn397 O423 2.117 . S
C398 O420 1.234 . S
C398 O421 1.283 . S
C399 O411 1.281 . S
C399 O412 1.236 . S
C400 O422 1.240 . S
C400 O423 1.264 . S
O401 Mn396 2.095 . S
O401 C410 1.250 . S
O402 Mn397 2.121 . S
O402 C410 1.258 . S
C403 N404 1.326 . S
C403 C407 1.460 . S
C403 H409 0.929 . S
N404 Mn397 2.257 . S
N404 C403 1.326 . S
N404 C408 1.362 . S
C405 C406 1.258 . S
C405 C408 1.431 . S
C405 C425 1.449 . S
C406 C405 1.258 . S
C406 C407 1.477 . S
C406 H426 0.931 . S
C407 C403 1.460 . S
C407 C406 1.477 . S
C407 H427 0.930 . S
C408 N404 1.362 . S
C408 C405 1.431 . S
C408 C418 1.476 . S
H409 C403 0.929 . S
C410 O401 1.250 . S
C410 O402 1.258 . S
O411 Mn396 2.162 . S
O411 C399 1.281 . S
O412 Mn396 2.297 . S
O412 C399 1.236 . S
N413 Mn397 2.282 . S
N413 C414 1.328 . S
N413 C418 1.318 . S
C414 N413 1.328 . S
C414 C415 1.457 . S
C414 H419 0.929 . S
C415 C414 1.457 . S
C415 C416 1.291 . S
C415 H428 0.931 . S
C416 C415 1.291 . S
C416 C417 1.373 . S
C416 H429 0.929 . S
C417 C416 1.373 . S
C417 C418 1.396 . S
C417 C424 1.403 . S
C418 C408 1.476 . S
C418 N413 1.318 . S
C418 C417 1.396 . S
H419 C414 0.929 . S
O420 Mn396 2.385 . S
O420 C398 1.234 . S
O421 Mn396 2.209 . S
O421 Mn397 2.215 . S
O421 C398 1.283 . S
O422 Mn396 2.094 . S
O422 C400 1.240 . S
O423 Mn397 2.117 . S
O423 C400 1.264 . S
C424 C417 1.403 . S
C424 C425 1.399 . S
C424 H430 0.929 . S
C425 C405 1.449 . S
C425 C424 1.399 . S
C425 H431 0.930 . S
H426 C406 0.931 . S
H427 C407 0.930 . S
H428 C415 0.931 . S
H429 C416 0.929 . S
H430 C424 0.929 . S
H431 C425 0.930 . S
Mn432 O437 2.095 . S
Mn432 O447 2.162 . S
Mn432 O448 2.297 . S
Mn432 O456 2.385 . S
Mn432 O457 2.209 . S
Mn432 O458 2.094 . S
Mn433 O438 2.121 . S
Mn433 N440 2.257 . S
Mn433 N449 2.282 . S
Mn433 O457 2.215 . S
Mn433 O459 2.117 . S
C434 O456 1.234 . S
C434 O457 1.283 . S
C435 O447 1.281 . S
C435 O448 1.236 . S
C436 O458 1.240 . S
C436 O459 1.264 . S
O437 Mn432 2.095 . S
O437 C446 1.250 . S
O438 Mn433 2.121 . S
O438 C446 1.258 . S
C439 N440 1.326 . S
C439 C443 1.460 . S
C439 H445 0.929 . S
N440 Mn433 2.257 . S
N440 C439 1.326 . S
N440 C444 1.362 . S
C441 C442 1.258 . S
C441 C444 1.431 . S
C441 C461 1.449 . S
C442 C441 1.258 . S
C442 C443 1.477 . S
C442 H462 0.931 . S
C443 C439 1.460 . S
C443 C442 1.477 . S
C443 H463 0.930 . S
C444 N440 1.362 . S
C444 C441 1.431 . S
C444 C454 1.476 . S
H445 C439 0.929 . S
C446 O437 1.250 . S
C446 O438 1.258 . S
O447 Mn432 2.162 . S
O447 C435 1.281 . S
O448 Mn432 2.297 . S
O448 C435 1.236 . S
N449 Mn433 2.282 . S
N449 C450 1.328 . S
N449 C454 1.318 . S
C450 N449 1.328 . S
C450 C451 1.457 . S
C450 H455 0.929 . S
C451 C450 1.457 . S
C451 C452 1.291 . S
C451 H464 0.931 . S
C452 C451 1.291 . S
C452 C453 1.373 . S
C452 H465 0.929 . S
C453 C452 1.373 . S
C453 C454 1.396 . S
C453 C460 1.403 . S
C454 C444 1.476 . S
C454 N449 1.318 . S
C454 C453 1.396 . S
H455 C450 0.929 . S
O456 Mn432 2.385 . S
O456 C434 1.234 . S
O457 Mn432 2.209 . S
O457 Mn433 2.215 . S
O457 C434 1.283 . S
O458 Mn432 2.094 . S
O458 C436 1.240 . S
O459 Mn433 2.117 . S
O459 C436 1.264 . S
C460 C453 1.403 . S
C460 C461 1.399 . S
C460 H466 0.929 . S
C461 C441 1.449 . S
C461 C460 1.399 . S
C461 H467 0.930 . S
H462 C442 0.931 . S
H463 C443 0.930 . S
H464 C451 0.931 . S
H465 C452 0.929 . S
H466 C460 0.929 . S
H467 C461 0.930 . S
Mn468 O473 2.095 . S
Mn468 O483 2.162 . S
Mn468 O484 2.297 . S
Mn468 O492 2.385 . S
Mn468 O493 2.209 . S
Mn468 O494 2.094 . S
Mn469 O474 2.121 . S
Mn469 N476 2.257 . S
Mn469 N485 2.282 . S
Mn469 O493 2.215 . S
Mn469 O495 2.117 . S
C470 O492 1.234 . S
C470 O493 1.283 . S
C471 O483 1.281 . S
C471 O484 1.236 . S
C472 O494 1.240 . S
C472 O495 1.264 . S
O473 Mn468 2.095 . S
O473 C482 1.250 . S
O474 Mn469 2.121 . S
O474 C482 1.258 . S
C475 N476 1.326 . S
C475 C479 1.460 . S
C475 H481 0.929 . S
N476 Mn469 2.257 . S
N476 C475 1.326 . S
N476 C480 1.362 . S
C477 C478 1.258 . S
C477 C480 1.431 . S
C477 C497 1.449 . S
C478 C477 1.258 . S
C478 C479 1.477 . S
C478 H498 0.931 . S
C479 C475 1.460 . S
C479 C478 1.477 . S
C479 H499 0.930 . S
C480 N476 1.362 . S
C480 C477 1.431 . S
C480 C490 1.476 . S
H481 C475 0.929 . S
C482 O473 1.250 . S
C482 O474 1.258 . S
O483 Mn468 2.162 . S
O483 C471 1.281 . S
O484 Mn468 2.297 . S
O484 C471 1.236 . S
N485 Mn469 2.282 . S
N485 C486 1.328 . S
N485 C490 1.318 . S
C486 N485 1.328 . S
C486 C487 1.457 . S
C486 H491 0.929 . S
C487 C486 1.457 . S
C487 C488 1.291 . S
C487 H500 0.931 . S
C488 C487 1.291 . S
C488 C489 1.373 . S
C488 H501 0.929 . S
C489 C488 1.373 . S
C489 C490 1.396 . S
C489 C496 1.403 . S
C490 C480 1.476 . S
C490 N485 1.318 . S
C490 C489 1.396 . S
H491 C486 0.929 . S
O492 Mn468 2.385 . S
O492 C470 1.234 . S
O493 Mn468 2.209 . S
O493 Mn469 2.215 . S
O493 C470 1.283 . S
O494 Mn468 2.094 . S
O494 C472 1.240 . S
O495 Mn469 2.117 . S
O495 C472 1.264 . S
C496 C489 1.403 . S
C496 C497 1.399 . S
C496 H502 0.929 . S
C497 C477 1.449 . S
C497 C496 1.399 . S
C497 H503 0.930 . S
H498 C478 0.931 . S
H499 C479 0.930 . S
H500 C487 0.931 . S
H501 C488 0.929 . S
H502 C496 0.929 . S
H503 C497 0.930 . S
Mn504 O509 2.095 . S
Mn504 O519 2.162 . S
Mn504 O520 2.297 . S
Mn504 O528 2.385 . S
Mn504 O529 2.209 . S
Mn504 O530 2.094 . S
Mn505 O510 2.121 . S
Mn505 N512 2.257 . S
Mn505 N521 2.282 . S
Mn505 O529 2.215 . S
Mn505 O531 2.117 . S
C506 O528 1.234 . S
C506 O529 1.283 . S
C507 O519 1.281 . S
C507 O520 1.236 . S
C508 O530 1.240 . S
C508 O531 1.264 . S
O509 Mn504 2.095 . S
O509 C518 1.250 . S
O510 Mn505 2.121 . S
O510 C518 1.258 . S
C511 N512 1.326 . S
C511 C515 1.460 . S
C511 H517 0.929 . S
N512 Mn505 2.257 . S
N512 C511 1.326 . S
N512 C516 1.362 . S
C513 C514 1.258 . S
C513 C516 1.431 . S
C513 C533 1.449 . S
C514 C513 1.258 . S
C514 C515 1.477 . S
C514 H534 0.931 . S
C515 C511 1.460 . S
C515 C514 1.477 . S
C515 H535 0.930 . S
C516 N512 1.362 . S
C516 C513 1.431 . S
C516 C526 1.476 . S
H517 C511 0.929 . S
C518 O509 1.250 . S
C518 O510 1.258 . S
O519 Mn504 2.162 . S
O519 C507 1.281 . S
O520 Mn504 2.297 . S
O520 C507 1.236 . S
N521 Mn505 2.282 . S
N521 C522 1.328 . S
N521 C526 1.318 . S
C522 N521 1.328 . S
C522 C523 1.457 . S
C522 H527 0.929 . S
C523 C522 1.457 . S
C523 C524 1.291 . S
C523 H536 0.931 . S
C524 C523 1.291 . S
C524 C525 1.373 . S
C524 H537 0.929 . S
C525 C524 1.373 . S
C525 C526 1.396 . S
C525 C532 1.403 . S
C526 C516 1.476 . S
C526 N521 1.318 . S
C526 C525 1.396 . S
H527 C522 0.929 . S
O528 Mn504 2.385 . S
O528 C506 1.234 . S
O529 Mn504 2.209 . S
O529 Mn505 2.215 . S
O529 C506 1.283 . S
O530 Mn504 2.094 . S
O530 C508 1.240 . S
O531 Mn505 2.117 . S
O531 C508 1.264 . S
C532 C525 1.403 . S
C532 C533 1.399 . S
C532 H538 0.929 . S
C533 C513 1.449 . S
C533 C532 1.399 . S
C533 H539 0.930 . S
H534 C514 0.931 . S
H535 C515 0.930 . S
H536 C523 0.931 . S
H537 C524 0.929 . S
H538 C532 0.929 . S
H539 C533 0.930 . S
Mn540 O545 2.095 . S
Mn540 O555 2.162 . S
Mn540 O556 2.297 . S
Mn540 O564 2.385 . S
Mn540 O565 2.209 . S
Mn540 O566 2.094 . S
Mn541 O546 2.121 . S
Mn541 N548 2.257 . S
Mn541 N557 2.282 . S
Mn541 O565 2.215 . S
Mn541 O567 2.117 . S
C542 O564 1.234 . S
C542 O565 1.283 . S
C543 O555 1.281 . S
C543 O556 1.236 . S
C544 O566 1.240 . S
C544 O567 1.264 . S
O545 Mn540 2.095 . S
O545 C554 1.250 . S
O546 Mn541 2.121 . S
O546 C554 1.258 . S
C547 N548 1.326 . S
C547 C551 1.460 . S
C547 H553 0.929 . S
N548 Mn541 2.257 . S
N548 C547 1.326 . S
N548 C552 1.362 . S
C549 C550 1.258 . S
C549 C552 1.431 . S
C549 C569 1.449 . S
C550 C549 1.258 . S
C550 C551 1.477 . S
C550 H570 0.931 . S
C551 C547 1.460 . S
C551 C550 1.477 . S
C551 H571 0.930 . S
C552 N548 1.362 . S
C552 C549 1.431 . S
C552 C562 1.476 . S
H553 C547 0.929 . S
C554 O545 1.250 . S
C554 O546 1.258 . S
O555 Mn540 2.162 . S
O555 C543 1.281 . S
O556 Mn540 2.297 . S
O556 C543 1.236 . S
N557 Mn541 2.282 . S
N557 C558 1.328 . S
N557 C562 1.318 . S
C558 N557 1.328 . S
C558 C559 1.457 . S
C558 H563 0.929 . S
C559 C558 1.457 . S
C559 C560 1.291 . S
C559 H572 0.931 . S
C560 C559 1.291 . S
C560 C561 1.373 . S
C560 H573 0.929 . S
C561 C560 1.373 . S
C561 C562 1.396 . S
C561 C568 1.403 . S
C562 C552 1.476 . S
C562 N557 1.318 . S
C562 C561 1.396 . S
H563 C558 0.929 . S
O564 Mn540 2.385 . S
O564 C542 1.234 . S
O565 Mn540 2.209 . S
O565 Mn541 2.215 . S
O565 C542 1.283 . S
O566 Mn540 2.094 . S
O566 C544 1.240 . S
O567 Mn541 2.117 . S
O567 C544 1.264 . S
C568 C561 1.403 . S
C568 C569 1.399 . S
C568 H574 0.929 . S
C569 C549 1.449 . S
C569 C568 1.399 . S
C569 H575 0.930 . S
H570 C550 0.931 . S
H571 C551 0.930 . S
H572 C559 0.931 . S
H573 C560 0.929 . S
H574 C568 0.929 . S
H575 C569 0.930 . S
H576 C582 0.930 . S
H577 C586 0.930 . S
H578 C591 0.929 . S
H579 C589 0.929 . S
H580 C584 0.929 . S
H581 C590 0.929 . S
C582 H576 0.930 . S
C582 C583 1.367 . S
C582 C590 1.378 . S
C583 C582 1.367 . S
C583 C591 1.433 . S
C584 H580 0.929 . S
C584 C586 1.378 . S
C584 C588 1.350 . S
C585 C588 1.463 1_554 S
C585 C590 1.350 . S
C585 N593 1.427 . S
C586 H577 0.930 . S
C586 C584 1.378 . S
C586 C587 1.367 . S
C587 C586 1.367 . S
C587 C589 1.433 . S
C588 C584 1.350 . S
C588 C585 1.463 1_556 S
C588 N592 1.427 1_556 S
C589 H579 0.929 . S
C589 C587 1.433 . S
C589 N592 1.384 1_556 S
C590 H581 0.929 . S
C590 C582 1.378 . S
C590 C585 1.350 . S
C591 H578 0.929 . S
C591 C583 1.433 . S
C591 N593 1.384 . S
N592 C588 1.427 1_554 S
N592 C589 1.384 1_554 S
N593 C585 1.427 . S
N593 C591 1.384 . S
H594 C600 0.930 . S
H595 C604 0.930 . S
H596 C609 0.929 . S
H597 C607 0.929 . S
H598 C602 0.929 . S
H599 C608 0.929 . S
C600 H594 0.930 . S
C600 C601 1.367 . S
C600 C608 1.378 . S
C601 C600 1.367 . S
C601 C609 1.433 . S
C602 H598 0.929 . S
C602 C604 1.378 . S
C602 C606 1.350 . S
C603 C606 1.463 . S
C603 C608 1.350 . S
C603 N611 1.427 . S
C604 H595 0.930 . S
C604 C602 1.378 . S
C604 C605 1.367 . S
C605 C604 1.367 . S
C605 C607 1.433 . S
C606 C602 1.350 . S
C606 C603 1.463 . S
C606 N610 1.427 . S
C607 H597 0.929 . S
C607 C605 1.433 . S
C607 N610 1.384 . S
C608 H599 0.929 . S
C608 C600 1.378 . S
C608 C603 1.350 . S
C609 H596 0.929 . S
C609 C601 1.433 . S
C609 N611 1.384 . S
N610 C606 1.427 . S
N610 C607 1.384 . S
N611 C603 1.427 . S
N611 C609 1.384 . S
H612 C618 0.930 . S
H613 C622 0.930 . S
H614 C627 0.929 . S
H615 C625 0.929 . S
H616 C620 0.929 . S
H617 C626 0.929 . S
C618 H612 0.930 . S
C618 C619 1.367 . S
C618 C626 1.378 . S
C619 C618 1.367 . S
C619 C627 1.433 . S
C620 H616 0.929 . S
C620 C622 1.378 . S
C620 C624 1.350 . S
C621 C624 1.463 1_556 S
C621 C626 1.350 . S
C621 N629 1.427 . S
C622 H613 0.930 . S
C622 C620 1.378 . S
C622 C623 1.367 . S
C623 C622 1.367 . S
C623 C625 1.433 . S
C624 C620 1.350 . S
C624 C621 1.463 1_554 S
C624 N628 1.427 1_554 S
C625 H615 0.929 . S
C625 C623 1.433 . S
C625 N628 1.384 1_554 S
C626 H617 0.929 . S
C626 C618 1.378 . S
C626 C621 1.350 . S
C627 H614 0.929 . S
C627 C619 1.433 . S
C627 N629 1.384 . S
N628 C624 1.427 1_556 S
N628 C625 1.384 1_556 S
N629 C621 1.427 . S
N629 C627 1.384 . S
H630 C636 0.930 . S
H631 C640 0.930 . S
H632 C645 0.929 . S
H633 C643 0.929 . S
H634 C638 0.929 . S
H635 C644 0.929 . S
C636 H630 0.930 . S
C636 C637 1.367 . S
C636 C644 1.378 . S
C637 C636 1.367 . S
C637 C645 1.433 . S
C638 H634 0.929 . S
C638 C640 1.378 . S
C638 C642 1.350 . S
C639 C642 1.463 . S
C639 C644 1.350 . S
C639 N647 1.427 . S
C640 H631 0.930 . S
C640 C638 1.378 . S
C640 C641 1.367 . S
C641 C640 1.367 . S
C641 C643 1.433 . S
C642 C638 1.350 . S
C642 C639 1.463 . S
C642 N646 1.427 . S
C643 H633 0.929 . S
C643 C641 1.433 . S
C643 N646 1.384 . S
C644 H635 0.929 . S
C644 C636 1.378 . S
C644 C639 1.350 . S
C645 H632 0.929 . S
C645 C637 1.433 . S
C645 N647 1.384 . S
N646 C642 1.427 . S
N646 C643 1.384 . S
N647 C639 1.427 . S
N647 C645 1.384 . S
H648 C654 0.930 . S
H649 C658 0.930 . S
H650 C663 0.929 . S
H651 C661 0.929 . S
H652 C656 0.929 1_554 S
H653 C662 0.929 . S
C654 H648 0.930 . S
C654 C655 1.367 . S
C654 C662 1.378 . S
C655 C654 1.367 . S
C655 C663 1.433 . S
C656 H652 0.929 1_556 S
C656 C658 1.378 . S
C656 C660 1.350 . S
C657 C660 1.463 1_554 S
C657 C662 1.350 . S
C657 N665 1.427 . S
C658 H649 0.930 . S
C658 C656 1.378 . S
C658 C659 1.367 . S
C659 C658 1.367 . S
C659 C661 1.433 . S
C660 C656 1.350 . S
C660 C657 1.463 1_556 S
C660 N664 1.427 . S
C661 H651 0.929 . S
C661 C659 1.433 . S
C661 N664 1.384 . S
C662 H653 0.929 . S
C662 C654 1.378 . S
C662 C657 1.350 . S
C663 H650 0.929 . S
C663 C655 1.433 . S
C663 N665 1.384 . S
N664 C660 1.427 . S
N664 C661 1.384 . S
N665 C657 1.427 . S
N665 C663 1.384 . S
H666 C672 0.930 . S
H667 C676 0.930 . S
H668 C681 0.929 . S
H669 C679 0.929 . S
H670 C674 0.929 . S
H671 C680 0.929 . S
C672 H666 0.930 . S
C672 C673 1.367 . S
C672 C680 1.378 . S
C673 C672 1.367 . S
C673 C681 1.433 . S
C674 H670 0.929 . S
C674 C676 1.378 . S
C674 C678 1.350 . S
C675 C678 1.463 . S
C675 C680 1.350 . S
C675 N683 1.427 . S
C676 H667 0.930 . S
C676 C674 1.378 . S
C676 C677 1.367 . S
C677 C676 1.367 . S
C677 C679 1.433 . S
C678 C674 1.350 . S
C678 C675 1.463 . S
C678 N682 1.427 . S
C679 H669 0.929 . S
C679 C677 1.433 . S
C679 N682 1.384 . S
C680 H671 0.929 . S
C680 C672 1.378 . S
C680 C675 1.350 . S
C681 H668 0.929 . S
C681 C673 1.433 . S
C681 N683 1.384 . S
N682 C678 1.427 . S
N682 C679 1.384 . S
N683 C675 1.427 . S
N683 C681 1.384 . S
H684 C690 0.930 . S
H685 C694 0.930 . S
H686 C699 0.929 . S
H687 C697 0.929 . S
H688 C692 0.935 . S
H689 C698 0.918 1_554 S
C690 H684 0.930 . S
C690 C691 1.367 . S
C690 C698 1.378 . S
C691 C690 1.367 . S
C691 C699 1.433 . S
C692 H688 0.935 . S
C692 C694 1.372 1_556 S
C692 C696 1.349 1_556 S
C693 C696 1.463 1_556 S
C693 C698 1.350 . S
C693 N701 1.427 . S
C694 H685 0.930 . S
C694 C692 1.372 1_554 S
C694 C695 1.367 . S
C695 C694 1.367 . S
C695 C697 1.433 . S
C696 C692 1.349 1_554 S
C696 C693 1.463 1_554 S
C696 N700 1.427 . S
C697 H687 0.929 . S
C697 C695 1.433 . S
C697 N700 1.384 . S
C698 H689 0.918 1_556 S
C698 C690 1.378 . S
C698 C693 1.350 . S
C699 H686 0.929 . S
C699 C691 1.433 . S
C699 N701 1.384 . S
N700 C696 1.427 . S
N700 C697 1.384 . S
N701 C693 1.427 . S
N701 C699 1.384 . S
H702 C708 0.930 . S
H703 C712 0.930 . S
H704 C717 0.929 . S
H705 C715 0.929 . S
H706 C710 0.929 . S
H707 C716 0.929 . S
C708 H702 0.930 . S
C708 C709 1.367 . S
C708 C716 1.378 . S
C709 C708 1.367 . S
C709 C717 1.433 . S
C710 H706 0.929 . S
C710 C712 1.378 . S
C710 C714 1.350 . S
C711 C714 1.463 . S
C711 C716 1.350 . S
C711 N719 1.427 . S
C712 H703 0.930 . S
C712 C710 1.378 . S
C712 C713 1.367 . S
C713 C712 1.367 . S
C713 C715 1.433 . S
C714 C710 1.350 . S
C714 C711 1.463 . S
C714 N718 1.427 . S
C715 H705 0.929 . S
C715 C713 1.433 . S
C715 N718 1.384 . S
C716 H707 0.929 . S
C716 C708 1.378 . S
C716 C711 1.350 . S
C717 H704 0.929 . S
C717 C709 1.433 . S
C717 N719 1.384 . S
N718 C714 1.427 . S
N718 C715 1.384 . S
N719 C711 1.427 . S
N719 C717 1.384 . S
H720 C726 0.930 . S
H721 C730 0.930 . S
H722 C735 0.929 . S
H723 C733 0.929 . S
H724 C728 0.913 1_545 S
H725 C734 0.913 1_565 S
C726 H720 0.930 . S
C726 C727 1.367 . S
C726 C734 1.378 . S
C727 C726 1.367 . S
C727 C735 1.433 . S
C728 H724 0.913 1_565 S
C728 C730 1.378 . S
C728 C732 1.350 . S
C729 C732 1.463 1_544 S
C729 C734 1.350 . S
C729 N737 1.427 . S
C730 H721 0.930 . S
C730 C728 1.378 . S
C730 C731 1.367 . S
C731 C730 1.367 . S
C731 C733 1.433 . S
C732 C728 1.350 . S
C732 C729 1.463 1_566 S
C732 N736 1.427 . S
C733 H723 0.929 . S
C733 C731 1.433 . S
C733 N736 1.384 . S
C734 H725 0.913 1_545 S
C734 C726 1.378 . S
C734 C729 1.350 . S
C735 H722 0.929 . S
C735 C727 1.433 . S
C735 N737 1.384 . S
N736 C732 1.427 . S
N736 C733 1.384 . S
N737 C729 1.427 . S
N737 C735 1.384 . S
H738 C744 0.930 . S
H739 C748 0.930 . S
H740 C753 0.929 . S
H741 C751 0.929 . S
H742 C746 0.929 . S
H743 C752 0.929 . S
C744 H738 0.930 . S
C744 C745 1.367 . S
C744 C752 1.378 . S
C745 C744 1.367 . S
C745 C753 1.433 . S
C746 H742 0.929 . S
C746 C748 1.378 . S
C746 C750 1.350 . S
C747 C750 1.463 1_565 S
C747 C752 1.350 . S
C747 N755 1.427 . S
C748 H739 0.930 . S
C748 C746 1.378 . S
C748 C749 1.367 . S
C749 C748 1.367 . S
C749 C751 1.433 . S
C750 C746 1.350 . S
C750 C747 1.463 1_545 S
C750 N754 1.427 . S
C751 H741 0.929 . S
C751 C749 1.433 . S
C751 N754 1.384 . S
C752 H743 0.929 . S
C752 C744 1.378 . S
C752 C747 1.350 . S
C753 H740 0.929 . S
C753 C745 1.433 . S
C753 N755 1.384 . S
N754 C750 1.427 . S
N754 C751 1.384 . S
N755 C747 1.427 . S
N755 C753 1.384 . S
H756 C762 0.930 . S
H757 C766 0.930 . S
H758 C771 0.929 . S
H759 C769 0.929 . S
H760 C764 0.929 . S
H761 C770 0.929 . S
C762 H756 0.930 . S
C762 C763 1.367 1_554 S
C762 C770 1.378 . S
C763 C762 1.367 1_556 S
C763 C771 1.433 . S
C764 H760 0.929 . S
C764 C766 1.378 . S
C764 C768 1.350 1_556 S
C765 C768 1.463 1_566 S
C765 C770 1.350 1_556 S
C765 N773 1.427 . S
C766 H757 0.930 . S
C766 C764 1.378 . S
C766 C767 1.367 1_556 S
C767 C766 1.367 1_554 S
C767 C769 1.433 . S
C768 C764 1.350 1_554 S
C768 C765 1.463 1_544 S
C768 N772 1.427 . S
C769 H759 0.929 . S
C769 C767 1.433 . S
C769 N772 1.384 . S
C770 H761 0.929 . S
C770 C762 1.378 . S
C770 C765 1.350 1_554 S
C771 H758 0.929 . S
C771 C763 1.433 . S
C771 N773 1.384 . S
N772 C768 1.427 . S
N772 C769 1.384 . S
N773 C765 1.427 . S
N773 C771 1.384 . S
H774 C780 0.930 . S
H775 C784 0.930 . S
H776 C789 0.929 . S
H777 C787 0.929 . S
H778 C782 0.929 . S
H779 C788 0.929 . S
C780 H774 0.930 . S
C780 C781 1.367 . S
C780 C788 1.378 . S
C781 C780 1.367 . S
C781 C789 1.433 . S
C782 H778 0.929 . S
C782 C784 1.378 . S
C782 C786 1.350 . S
C783 C786 1.463 1_545 S
C783 C788 1.350 . S
C783 N791 1.427 . S
C784 H775 0.930 . S
C784 C782 1.378 . S
C784 C785 1.367 . S
C785 C784 1.367 . S
C785 C787 1.433 . S
C786 C782 1.350 . S
C786 C783 1.463 1_565 S
C786 N790 1.427 . S
C787 H777 0.929 . S
C787 C785 1.433 . S
C787 N790 1.384 . S
C788 H779 0.929 . S
C788 C780 1.378 . S
C788 C783 1.350 . S
C789 H776 0.929 . S
C789 C781 1.433 . S
C789 N791 1.384 . S
N790 C786 1.427 . S
N790 C787 1.384 . S
N791 C783 1.427 . S
N791 C789 1.384 . S
H792 C798 0.930 . S
H793 C802 0.930 . S
H794 C807 0.929 . S
H795 C805 0.929 . S
H796 C800 0.920 1_556 S
H797 C806 0.920 1_554 S
C798 H792 0.930 . S
C798 C799 1.367 . S
C798 C806 1.383 . S
C799 C798 1.367 . S
C799 C807 1.433 . S
C800 H796 0.920 1_554 S
C800 C802 1.383 . S
C800 C804 1.353 . S
C801 C804 1.463 1_556 S
C801 C806 1.353 . S
C801 N809 1.427 . S
C802 H793 0.930 . S
C802 C800 1.383 . S
C802 C803 1.367 . S
C803 C802 1.367 . S
C803 C805 1.433 . S
C804 C800 1.353 . S
C804 C801 1.463 1_554 S
C804 N808 1.427 . S
C805 H795 0.929 . S
C805 C803 1.433 . S
C805 N808 1.384 . S
C806 H797 0.920 1_556 S
C806 C798 1.383 . S
C806 C801 1.353 . S
C807 H794 0.929 . S
C807 C799 1.433 . S
C807 N809 1.384 . S
N808 C804 1.427 . S
N808 C805 1.384 . S
N809 C801 1.427 . S
N809 C807 1.384 . S
H810 C816 0.930 . S
H811 C820 0.930 . S
H812 C825 0.929 . S
H813 C823 0.929 . S
H814 C818 0.929 . S
H815 C824 0.929 . S
C816 H810 0.930 . S
C816 C817 1.367 . S
C816 C824 1.378 . S
C817 C816 1.367 . S
C817 C825 1.433 . S
C818 H814 0.929 . S
C818 C820 1.378 . S
C818 C822 1.350 . S
C819 C822 1.463 . S
C819 C824 1.350 . S
C819 N827 1.427 . S
C820 H811 0.930 . S
C820 C818 1.378 . S
C820 C821 1.367 . S
C821 C820 1.367 . S
C821 C823 1.433 . S
C822 C818 1.350 . S
C822 C819 1.463 . S
C822 N826 1.427 . S
C823 H813 0.929 . S
C823 C821 1.433 . S
C823 N826 1.384 . S
C824 H815 0.929 . S
C824 C816 1.378 . S
C824 C819 1.350 . S
C825 H812 0.929 . S
C825 C817 1.433 . S
C825 N827 1.384 . S
N826 C822 1.427 . S
N826 C823 1.384 . S
N827 C819 1.427 . S
N827 C825 1.384 . S
H828 C834 0.930 . S
H829 C838 0.930 . S
H830 C843 0.937 . S
H831 C841 0.937 . S
H832 C836 0.929 . S
H833 C842 0.929 . S
C834 H828 0.930 . S
C834 C835 1.367 . S
C834 C842 1.378 . S
C835 C834 1.367 . S
C835 C843 1.420 1_554 S
C836 H832 0.929 . S
C836 C838 1.378 . S
C836 C840 1.350 . S
C837 C840 1.463 1_554 S
C837 C842 1.350 . S
C837 N845 1.427 1_554 S
C838 H829 0.930 . S
C838 C836 1.378 . S
C838 C839 1.367 . S
C839 C838 1.367 . S
C839 C841 1.420 1_556 S
C840 C836 1.350 . S
C840 C837 1.463 1_556 S
C840 N844 1.427 1_556 S
C841 H831 0.937 . S
C841 C839 1.420 1_554 S
C841 N844 1.389 . S
C842 H833 0.929 . S
C842 C834 1.378 . S
C842 C837 1.350 . S
C843 H830 0.937 . S
C843 C835 1.420 1_556 S
C843 N845 1.389 . S
N844 C840 1.427 1_554 S
N844 C841 1.389 . S
N845 C837 1.427 1_556 S
N845 C843 1.389 . S
H846 C852 0.930 . S
H847 C856 0.930 . S
H848 C861 0.929 . S
H849 C859 0.929 . S
H850 C854 0.929 . S
H851 C860 0.929 . S
C852 H846 0.930 . S
C852 C853 1.367 . S
C852 C860 1.378 . S
C853 C852 1.367 . S
C853 C861 1.433 . S
C854 H850 0.929 . S
C854 C856 1.378 . S
C854 C858 1.350 . S
C855 C858 1.463 . S
C855 C860 1.350 . S
C855 N863 1.427 . S
C856 H847 0.930 . S
C856 C854 1.378 . S
C856 C857 1.367 . S
C857 C856 1.367 . S
C857 C859 1.433 . S
C858 C854 1.350 . S
C858 C855 1.463 . S
C858 N862 1.427 . S
C859 H849 0.929 . S
C859 C857 1.433 . S
C859 N862 1.384 . S
C860 H851 0.929 . S
C860 C852 1.378 . S
C860 C855 1.350 . S
C861 H848 0.929 . S
C861 C853 1.433 . S
C861 N863 1.384 . S
N862 C858 1.427 . S
N862 C859 1.384 . S
N863 C855 1.427 . S
N863 C861 1.384 . S
H864 C870 0.930 . S
H865 C874 0.930 . S
H866 C879 0.929 . S
H867 C877 0.929 . S
H868 C872 0.929 . S
H869 C878 0.929 . S
C870 H864 0.930 . S
C870 C871 1.367 . S
C870 C878 1.378 . S
C871 C870 1.367 . S
C871 C879 1.433 . S
C872 H868 0.929 . S
C872 C874 1.378 . S
C872 C876 1.350 . S
C873 C876 1.463 . S
C873 C878 1.350 . S
C873 N881 1.427 . S
C874 H865 0.930 . S
C874 C872 1.378 . S
C874 C875 1.367 . S
C875 C874 1.367 . S
C875 C877 1.433 . S
C876 C872 1.350 . S
C876 C873 1.463 . S
C876 N880 1.427 . S
C877 H867 0.929 . S
C877 C875 1.433 . S
C877 N880 1.384 . S
C878 H869 0.929 . S
C878 C870 1.378 . S
C878 C873 1.350 . S
C879 H866 0.929 . S
C879 C871 1.433 . S
C879 N881 1.384 . S
N880 C876 1.427 . S
N880 C877 1.384 . S
N881 C873 1.427 . S
N881 C879 1.384 . S
H882 C888 0.930 . S
H883 C892 0.930 . S
H884 C897 0.929 . S
H885 C895 0.929 . S
H886 C890 0.929 . S
H887 C896 0.929 . S
C888 H882 0.930 . S
C888 C889 1.367 . S
C888 C896 1.378 . S
C889 C888 1.367 . S
C889 C897 1.433 . S
C890 H886 0.929 . S
C890 C892 1.378 . S
C890 C894 1.350 . S
C891 C894 1.463 1_655 S
C891 C896 1.350 . S
C891 N899 1.427 . S
C892 H883 0.930 . S
C892 C890 1.378 . S
C892 C893 1.367 . S
C893 C892 1.367 . S
C893 C895 1.433 . S
C894 C890 1.350 . S
C894 C891 1.463 1_455 S
C894 N898 1.427 . S
C895 H885 0.929 . S
C895 C893 1.433 . S
C895 N898 1.384 . S
C896 H887 0.929 . S
C896 C888 1.378 . S
C896 C891 1.350 . S
C897 H884 0.929 . S
C897 C889 1.433 . S
C897 N899 1.384 . S
N898 C894 1.427 . S
N898 C895 1.384 . S
N899 C891 1.427 . S
N899 C897 1.384 . S
H900 C906 0.930 . S
H901 C910 0.930 . S
H902 C915 0.929 . S
H903 C913 0.929 . S
H904 C908 0.929 . S
H905 C914 0.929 . S
C906 H900 0.930 . S
C906 C907 1.367 . S
C906 C914 1.378 . S
C907 C906 1.367 . S
C907 C915 1.433 . S
C908 H904 0.929 . S
C908 C910 1.378 . S
C908 C912 1.350 . S
C909 C912 1.463 . S
C909 C914 1.350 . S
C909 N917 1.427 . S
C910 H901 0.930 . S
C910 C908 1.378 . S
C910 C911 1.367 . S
C911 C910 1.367 . S
C911 C913 1.433 . S
C912 C908 1.350 . S
C912 C909 1.463 . S
C912 N916 1.427 . S
C913 H903 0.929 . S
C913 C911 1.433 . S
C913 N916 1.384 . S
C914 H905 0.929 . S
C914 C906 1.378 . S
C914 C909 1.350 . S
C915 H902 0.929 . S
C915 C907 1.433 . S
C915 N917 1.384 . S
N916 C912 1.427 . S
N916 C913 1.384 . S
N917 C909 1.427 . S
N917 C915 1.384 . S
H918 C924 0.930 . S
H919 C928 0.930 . S
H920 C933 0.929 . S
H921 C931 0.929 . S
H922 C926 0.929 . S
H923 C932 0.929 . S
C924 H918 0.930 . S
C924 C925 1.367 . S
C924 C932 1.378 . S
C925 C924 1.367 . S
C925 C933 1.433 . S
C926 H922 0.929 . S
C926 C928 1.378 . S
C926 C930 1.350 . S
C927 C930 1.463 1_455 S
C927 C932 1.350 . S
C927 N935 1.427 . S
C928 H919 0.930 . S
C928 C926 1.378 . S
C928 C929 1.367 . S
C929 C928 1.367 . S
C929 C931 1.433 . S
C930 C926 1.350 . S
C930 C927 1.463 1_655 S
C930 N934 1.427 . S
C931 H921 0.929 . S
C931 C929 1.433 . S
C931 N934 1.384 . S
C932 H923 0.929 . S
C932 C924 1.378 . S
C932 C927 1.350 . S
C933 H920 0.929 . S
C933 C925 1.433 . S
C933 N935 1.384 . S
N934 C930 1.427 . S
N934 C931 1.384 . S
N935 C927 1.427 . S
N935 C933 1.384 . S
H936 C942 0.930 . S
H937 C946 0.930 . S
H938 C951 0.929 . S
H939 C949 0.929 . S
H940 C944 0.929 . S
H941 C950 0.929 . S
C942 H936 0.930 . S
C942 C943 1.367 . S
C942 C950 1.378 . S
C943 C942 1.367 . S
C943 C951 1.433 . S
C944 H940 0.929 . S
C944 C946 1.378 . S
C944 C948 1.350 . S
C945 C948 1.463 1_455 S
C945 C950 1.350 . S
C945 N953 1.427 . S
C946 H937 0.930 . S
C946 C944 1.378 . S
C946 C947 1.367 . S
C947 C946 1.367 . S
C947 C949 1.433 . S
C948 C944 1.350 . S
C948 C945 1.463 1_655 S
C948 N952 1.427 . S
C949 H939 0.929 . S
C949 C947 1.433 . S
C949 N952 1.384 . S
C950 H941 0.929 . S
C950 C942 1.378 . S
C950 C945 1.350 . S
C951 H938 0.929 . S
C951 C943 1.433 . S
C951 N953 1.384 . S
N952 C948 1.427 . S
N952 C949 1.384 . S
N953 C945 1.427 . S
N953 C951 1.384 . S
H954 C960 0.930 . S
H955 C964 0.930 . S
H956 C969 0.929 . S
H957 C967 0.929 . S
H958 C962 0.929 . S
H959 C968 0.929 . S
C960 H954 0.930 . S
C960 C961 1.367 . S
C960 C968 1.378 . S
C961 C960 1.367 . S
C961 C969 1.433 . S
C962 H958 0.929 . S
C962 C964 1.378 . S
C962 C966 1.350 . S
C963 C966 1.463 . S
C963 C968 1.350 . S
C963 N971 1.427 . S
C964 H955 0.930 . S
C964 C962 1.378 . S
C964 C965 1.367 . S
C965 C964 1.367 . S
C965 C967 1.433 . S
C966 C962 1.350 . S
C966 C963 1.463 . S
C966 N970 1.427 . S
C967 H957 0.929 . S
C967 C965 1.433 . S
C967 N970 1.384 . S
C968 H959 0.929 . S
C968 C960 1.378 . S
C968 C963 1.350 . S
C969 H956 0.929 . S
C969 C961 1.433 . S
C969 N971 1.384 . S
N970 C966 1.427 . S
N970 C967 1.384 . S
N971 C963 1.427 . S
N971 C969 1.384 . S
H972 C978 0.930 . S
H973 C982 0.930 . S
H974 C987 0.929 . S
H975 C985 0.929 . S
H976 C980 0.929 . S
H977 C986 0.929 . S
C978 H972 0.930 . S
C978 C979 1.367 . S
C978 C986 1.378 . S
C979 C978 1.367 . S
C979 C987 1.433 . S
C980 H976 0.929 . S
C980 C982 1.378 . S
C980 C984 1.350 . S
C981 C984 1.463 1_455 S
C981 C986 1.350 . S
C981 N989 1.427 . S
C982 H973 0.930 . S
C982 C980 1.378 . S
C982 C983 1.367 . S
C983 C982 1.367 . S
C983 C985 1.433 . S
C984 C980 1.350 . S
C984 C981 1.463 1_655 S
C984 N988 1.427 . S
C985 H975 0.929 . S
C985 C983 1.433 . S
C985 N988 1.384 . S
C986 H977 0.929 . S
C986 C978 1.378 . S
C986 C981 1.350 . S
C987 H974 0.929 . S
C987 C979 1.433 . S
C987 N989 1.384 . S
N988 C984 1.427 . S
N988 C985 1.384 . S
N989 C981 1.427 . S
N989 C987 1.384 . S
H990 C996 0.930 . S
H991 C1000 0.930 . S
H992 C1005 0.929 . S
H993 C1003 0.929 . S
H994 C998 0.929 . S
H995 C1004 0.929 . S
C996 H990 0.930 . S
C996 C997 1.367 . S
C996 C1004 1.378 . S
C997 C996 1.367 . S
C997 C1005 1.433 . S
C998 H994 0.929 . S
C998 C1000 1.378 . S
C998 C1002 1.350 . S
C999 C1002 1.463 . S
C999 C1004 1.350 . S
C999 N1007 1.427 . S
C1000 H991 0.930 . S
C1000 C998 1.378 . S
C1000 C1001 1.367 . S
C1001 C1000 1.367 . S
C1001 C1003 1.433 . S
C1002 C998 1.350 . S
C1002 C999 1.463 . S
C1002 N1006 1.427 . S
C1003 H993 0.929 . S
C1003 C1001 1.433 . S
C1003 N1006 1.384 . S
C1004 H995 0.929 . S
C1004 C996 1.378 . S
C1004 C999 1.350 . S
C1005 H992 0.929 . S
C1005 C997 1.433 . S
C1005 N1007 1.384 . S
N1006 C1002 1.427 . S
N1006 C1003 1.384 . S
N1007 C999 1.427 . S
N1007 C1005 1.384 . S
H1008 C1014 0.930 . S
H1009 C1018 0.930 . S
H1010 C1023 0.929 . S
H1011 C1021 0.929 . S
H1012 C1016 0.929 . S
H1013 C1022 0.929 . S
C1014 H1008 0.930 . S
C1014 C1015 1.367 . S
C1014 C1022 1.378 . S
C1015 C1014 1.367 . S
C1015 C1023 1.433 . S
C1016 H1012 0.929 . S
C1016 C1018 1.378 . S
C1016 C1020 1.350 . S
C1017 C1020 1.463 . S
C1017 C1022 1.350 . S
C1017 N1025 1.427 . S
C1018 H1009 0.930 . S
C1018 C1016 1.378 . S
C1018 C1019 1.367 . S
C1019 C1018 1.367 . S
C1019 C1021 1.433 . S
C1020 C1016 1.350 . S
C1020 C1017 1.463 . S
C1020 N1024 1.427 . S
C1021 H1011 0.929 . S
C1021 C1019 1.433 . S
C1021 N1024 1.384 . S
C1022 H1013 0.929 . S
C1022 C1014 1.378 . S
C1022 C1017 1.350 . S
C1023 H1010 0.929 . S
C1023 C1015 1.433 . S
C1023 N1025 1.384 . S
N1024 C1020 1.427 . S
N1024 C1021 1.384 . S
N1025 C1017 1.427 . S
N1025 C1023 1.384 . S
H1026 C1032 0.930 . S
H1027 C1036 0.930 . S
H1028 C1041 0.929 . S
H1029 C1039 0.929 . S
H1030 C1034 0.929 . S
H1031 C1040 0.929 . S
C1032 H1026 0.930 . S
C1032 C1033 1.367 . S
C1032 C1040 1.378 . S
C1033 C1032 1.367 . S
C1033 C1041 1.433 . S
C1034 H1030 0.929 . S
C1034 C1036 1.378 . S
C1034 C1038 1.350 . S
C1035 C1038 1.463 . S
C1035 C1040 1.350 . S
C1035 N1043 1.427 . S
C1036 H1027 0.930 . S
C1036 C1034 1.378 . S
C1036 C1037 1.367 . S
C1037 C1036 1.367 . S
C1037 C1039 1.433 . S
C1038 C1034 1.350 . S
C1038 C1035 1.463 . S
C1038 N1042 1.427 . S
C1039 H1029 0.929 . S
C1039 C1037 1.433 . S
C1039 N1042 1.384 . S
C1040 H1031 0.929 . S
C1040 C1032 1.378 . S
C1040 C1035 1.350 . S
C1041 H1028 0.929 . S
C1041 C1033 1.433 . S
C1041 N1043 1.384 . S
N1042 C1038 1.427 . S
N1042 C1039 1.384 . S
N1043 C1035 1.427 . S
N1043 C1041 1.384 . S
H1044 C1050 0.930 . S
H1045 C1054 0.930 . S
H1046 C1059 0.929 . S
H1047 C1057 0.929 . S
H1048 C1052 0.929 . S
H1049 C1058 0.929 . S
C1050 H1044 0.930 . S
C1050 C1051 1.367 . S
C1050 C1058 1.378 . S
C1051 C1050 1.367 . S
C1051 C1059 1.433 . S
C1052 H1048 0.929 . S
C1052 C1054 1.378 . S
C1052 C1056 1.350 . S
C1053 C1056 1.463 . S
C1053 C1058 1.350 . S
C1053 N1061 1.427 . S
C1054 H1045 0.930 . S
C1054 C1052 1.378 . S
C1054 C1055 1.367 . S
C1055 C1054 1.367 . S
C1055 C1057 1.433 . S
C1056 C1052 1.350 . S
C1056 C1053 1.463 . S
C1056 N1060 1.427 . S
C1057 H1047 0.929 . S
C1057 C1055 1.433 . S
C1057 N1060 1.384 . S
C1058 H1049 0.929 . S
C1058 C1050 1.378 . S
C1058 C1053 1.350 . S
C1059 H1046 0.929 . S
C1059 C1051 1.433 . S
C1059 N1061 1.384 . S
N1060 C1056 1.427 . S
N1060 C1057 1.384 . S
N1061 C1053 1.427 . S
N1061 C1059 1.384 . S
H1062 C1068 0.930 . S
H1063 C1072 0.930 . S
H1064 C1077 0.929 . S
H1065 C1075 0.929 . S
H1066 C1070 0.929 . S
H1067 C1076 0.929 . S
C1068 H1062 0.930 . S
C1068 C1069 1.367 . S
C1068 C1076 1.378 . S
C1069 C1068 1.367 . S
C1069 C1077 1.433 . S
C1070 H1066 0.929 . S
C1070 C1072 1.378 . S
C1070 C1074 1.350 . S
C1071 C1074 1.463 . S
C1071 C1076 1.350 . S
C1071 N1079 1.427 . S
C1072 H1063 0.930 . S
C1072 C1070 1.378 . S
C1072 C1073 1.367 . S
C1073 C1072 1.367 . S
C1073 C1075 1.433 . S
C1074 C1070 1.350 . S
C1074 C1071 1.463 . S
C1074 N1078 1.427 . S
C1075 H1065 0.929 . S
C1075 C1073 1.433 . S
C1075 N1078 1.384 . S
C1076 H1067 0.929 . S
C1076 C1068 1.378 . S
C1076 C1071 1.350 . S
C1077 H1064 0.929 . S
C1077 C1069 1.433 . S
C1077 N1079 1.384 . S
N1078 C1074 1.427 . S
N1078 C1075 1.384 . S
N1079 C1071 1.427 . S
N1079 C1077 1.384 . S
H1080 C1086 0.930 . S
H1081 C1090 0.930 . S
H1082 C1095 0.929 . S
H1083 C1093 0.929 . S
H1084 C1088 0.929 . S
H1085 C1094 0.929 . S
C1086 H1080 0.930 . S
C1086 C1087 1.367 . S
C1086 C1094 1.378 . S
C1087 C1086 1.367 . S
C1087 C1095 1.433 . S
C1088 H1084 0.929 . S
C1088 C1090 1.378 . S
C1088 C1092 1.350 . S
C1089 C1092 1.463 . S
C1089 C1094 1.350 . S
C1089 N1097 1.427 . S
C1090 H1081 0.930 . S
C1090 C1088 1.378 . S
C1090 C1091 1.367 . S
C1091 C1090 1.367 . S
C1091 C1093 1.433 . S
C1092 C1088 1.350 . S
C1092 C1089 1.463 . S
C1092 N1096 1.427 . S
C1093 H1083 0.929 . S
C1093 C1091 1.433 . S
C1093 N1096 1.384 . S
C1094 H1085 0.929 . S
C1094 C1086 1.378 . S
C1094 C1089 1.350 . S
C1095 H1082 0.929 . S
C1095 C1087 1.433 . S
C1095 N1097 1.384 . S
N1096 C1092 1.427 . S
N1096 C1093 1.384 . S
N1097 C1089 1.427 . S
N1097 C1095 1.384 . S
H1098 C1104 0.930 . S
H1099 C1108 0.930 . S
H1100 C1113 0.929 . S
H1101 C1111 0.929 . S
H1102 C1106 0.929 . S
H1103 C1112 0.929 . S
C1104 H1098 0.930 . S
C1104 C1105 1.367 . S
C1104 C1112 1.378 . S
C1105 C1104 1.367 . S
C1105 C1113 1.433 . S
C1106 H1102 0.929 . S
C1106 C1108 1.378 . S
C1106 C1110 1.350 . S
C1107 C1110 1.463 . S
C1107 C1112 1.350 . S
C1107 N1115 1.427 . S
C1108 H1099 0.930 . S
C1108 C1106 1.378 . S
C1108 C1109 1.367 . S
C1109 C1108 1.367 . S
C1109 C1111 1.433 . S
C1110 C1106 1.350 . S
C1110 C1107 1.463 . S
C1110 N1114 1.427 . S
C1111 H1101 0.929 . S
C1111 C1109 1.433 . S
C1111 N1114 1.384 . S
C1112 H1103 0.929 . S
C1112 C1104 1.378 . S
C1112 C1107 1.350 . S
C1113 H1100 0.929 . S
C1113 C1105 1.433 . S
C1113 N1115 1.384 . S
N1114 C1110 1.427 . S
N1114 C1111 1.384 . S
N1115 C1107 1.427 . S
N1115 C1113 1.384 . S
H1116 C1122 0.930 . S
H1117 C1126 0.930 . S
H1118 C1131 0.929 . S
H1119 C1129 0.929 . S
H1120 C1124 0.929 . S
H1121 C1130 0.929 . S
C1122 H1116 0.930 . S
C1122 C1123 1.367 . S
C1122 C1130 1.378 . S
C1123 C1122 1.367 . S
C1123 C1131 1.433 . S
C1124 H1120 0.929 . S
C1124 C1126 1.378 . S
C1124 C1128 1.350 . S
C1125 C1128 1.463 . S
C1125 C1130 1.350 . S
C1125 N1133 1.427 . S
C1126 H1117 0.930 . S
C1126 C1124 1.378 . S
C1126 C1127 1.367 . S
C1127 C1126 1.367 . S
C1127 C1129 1.433 . S
C1128 C1124 1.350 . S
C1128 C1125 1.463 . S
C1128 N1132 1.427 . S
C1129 H1119 0.929 . S
C1129 C1127 1.433 . S
C1129 N1132 1.384 . S
C1130 H1121 0.929 . S
C1130 C1122 1.378 . S
C1130 C1125 1.350 . S
C1131 H1118 0.929 . S
C1131 C1123 1.433 . S
C1131 N1133 1.384 . S
N1132 C1128 1.427 . S
N1132 C1129 1.384 . S
N1133 C1125 1.427 . S
N1133 C1131 1.384 . S
H1134 C1140 0.930 . S
H1135 C1144 0.930 . S
H1136 C1149 0.929 . S
H1137 C1147 0.929 . S
H1138 C1142 0.929 . S
H1139 C1148 0.929 . S
C1140 H1134 0.930 . S
C1140 C1141 1.367 . S
C1140 C1148 1.378 . S
C1141 C1140 1.367 . S
C1141 C1149 1.433 . S
C1142 H1138 0.929 . S
C1142 C1144 1.378 . S
C1142 C1146 1.350 . S
C1143 C1146 1.463 . S
C1143 C1148 1.350 . S
C1143 N1151 1.427 . S
C1144 H1135 0.930 . S
C1144 C1142 1.378 . S
C1144 C1145 1.367 . S
C1145 C1144 1.367 . S
C1145 C1147 1.433 . S
C1146 C1142 1.350 . S
C1146 C1143 1.463 . S
C1146 N1150 1.427 . S
C1147 H1137 0.929 . S
C1147 C1145 1.433 . S
C1147 N1150 1.384 . S
C1148 H1139 0.929 . S
C1148 C1140 1.378 . S
C1148 C1143 1.350 . S
C1149 H1136 0.929 . S
C1149 C1141 1.433 . S
C1149 N1151 1.384 . S
N1150 C1146 1.427 . S
N1150 C1147 1.384 . S
N1151 C1143 1.427 . S
N1151 C1149 1.384 . S
C583 C4 1.493 . S
C587 C446 1.432 . S
C601 C482 1.434 . S
C605 C40 1.493 . S
C619 C76 1.492 . S
C623 C518 1.424 . S
C637 C554 1.437 . S
C641 C112 1.492 . S
C655 C292 1.493 . S
C659 C158 1.439 . S
C673 C194 1.437 . S
C677 C328 1.492 . S
C691 C364 1.493 . S
C695 C230 1.439 . S
C709 C266 1.424 . S
C713 C400 1.492 . S
C727 C3 1.608 . S
C731 C75 1.608 . S
C745 C39 1.604 . S
C749 C111 1.603 . S
C763 C147 1.479 . S
C767 C219 1.479 . S
C781 C183 1.480 . S
C785 C255 1.480 . S
C799 C363 1.603 . S
C803 C291 1.603 . S
C817 C327 1.603 . S
C821 C399 1.603 . S
C835 C507 1.472 . S
C839 C435 1.472 . S
C853 C471 1.473 . S
C857 C543 1.473 . S
C871 C218 1.477 . S
C875 C2 1.471 . S
C889 C254 1.477 . S
C893 C38 1.475 . S
C907 C74 1.474 . S
C911 C146 1.479 . S
C925 C110 1.471 . S
C929 C182 1.477 . S
C943 C506 1.476 . S
C947 C290 1.476 . S
C961 C326 1.472 . S
C965 C542 1.480 . S
C979 C434 1.476 . S
C983 C362 1.476 . S
C997 C398 1.475 . S
C1001 C470 1.477 . S
C1015 C14 1.643 . S
C1019 C122 1.630 . S
C1033 C86 1.634 . S
C1037 C50 1.633 . S
C1051 C148 1.256 . S
C1055 C256 1.257 . S
C1069 C184 1.258 . S
C1073 C220 1.258 . S
C1087 C410 1.637 . S
C1091 C302 1.631 . S
C1105 C338 1.630 . S
C1109 C374 1.642 . S
C1123 C544 1.256 . S
C1127 C436 1.257 . S
C1141 C472 1.256 . S
C1145 C508 1.257 . S
