# Generated by pormake.
# Topology wld, (5)-cn, num edge types: 1
# Building blocks:
#     Node 0, Type 0, BuildingBlock: BEQFEK_clean_sbu_0, # of connection points: 5
#     Node 1, Type 0, BuildingBlock: BEQFEK_clean_sbu_0, # of connection points: 5
#     Node 2, Type 0, BuildingBlock: BEQFEK_clean_sbu_0, # of connection points: 5
#     Node 3, Type 0, BuildingBlock: BEQFEK_clean_sbu_0, # of connection points: 5
#     Node 4, Type 0, BuildingBlock: BEQFEK_clean_sbu_0, # of connection points: 5
#     Node 5, Type 0, BuildingBlock: BEQFEK_clean_sbu_0, # of connection points: 5
#     Node 6, Type 0, BuildingBlock: BEQFEK_clean_sbu_0, # of connection points: 5
#     Node 7, Type 0, BuildingBlock: BEQFEK_clean_sbu_0, # of connection points: 5
#     Node 8, Type 0, BuildingBlock: BEQFEK_clean_sbu_0, # of connection points: 5
#     Node 9, Type 0, BuildingBlock: BEQFEK_clean_sbu_0, # of connection points: 5
#     Node 10, Type 0, BuildingBlock: BEQFEK_clean_sbu_0, # of connection points: 5
#     Node 11, Type 0, BuildingBlock: BEQFEK_clean_sbu_0, # of connection points: 5
#     Edge 12, Type (0, 0), None
#     Edge 13, Type (0, 0), None
#     Edge 14, Type (0, 0), None
#     Edge 15, Type (0, 0), None
#     Edge 16, Type (0, 0), None
#     Edge 17, Type (0, 0), None
#     Edge 18, Type (0, 0), None
#     Edge 19, Type (0, 0), None
#     Edge 20, Type (0, 0), None
#     Edge 21, Type (0, 0), None
#     Edge 22, Type (0, 0), None
#     Edge 23, Type (0, 0), None
#     Edge 24, Type (0, 0), None
#     Edge 25, Type (0, 0), None
#     Edge 26, Type (0, 0), None
#     Edge 27, Type (0, 0), None
#     Edge 28, Type (0, 0), None
#     Edge 29, Type (0, 0), None
#     Edge 30, Type (0, 0), None
#     Edge 31, Type (0, 0), None
#     Edge 32, Type (0, 0), None
#     Edge 33, Type (0, 0), None
#     Edge 34, Type (0, 0), None
#     Edge 35, Type (0, 0), None
#     Edge 36, Type (0, 0), None
#     Edge 37, Type (0, 0), None
#     Edge 38, Type (0, 0), None
#     Edge 39, Type (0, 0), None
#     Edge 40, Type (0, 0), None
#     Edge 41, Type (0, 0), None
# Relax obj value: 0.347
# Max RMSD: 0.219
# Mean RMSD: 0.219
data_MOF--net-wld--node1-BEQFEK_clean_sbu_0--edge1-none
_symmetry_space_group_name_H-M    P1
_symmetry_Int_Tables_number       1
_symmetry_cell_setting            triclinic
loop_
_symmetry_equiv_pos_as_xyz
'x, y, z'
_cell_length_a     19.373255
_cell_length_b     19.373351
_cell_length_c     23.37922
_cell_angle_alpha  89.996939
_cell_angle_beta   90.005996
_cell_angle_gamma 119.99868
loop_
_atom_site_label
_atom_site_type_symbol
_atom_site_fract_x
_atom_site_fract_y
_atom_site_fract_z
_atom_type_partial_charge
Co0 Co 0.40961 0.33847 0.04391 0.0
Co1 Co 0.45625 0.24557 0.13027 0.0
C2 C 0.55965 0.42454 0.10552 0.0
O3 O 0.51921 0.42985 0.06418 0.0
O4 O 0.53804 0.35879 0.13025 0.0
C5 C 0.36854 0.39566 -0.05947 0.0
O6 O 0.44433 0.43052 0.92683 0.0
C7 C 0.57674 0.20458 0.11018 0.0
C8 C 0.5711 0.1282 0.18114 0.0
C9 C 0.60654 0.1569 0.12823 0.0
N10 N 0.52122 0.19912 0.14782 0.0
N11 N 0.51819 0.15315 0.19053 0.0
C12 C 0.60803 0.26193 0.06115 0.0
H13 H 0.5607 0.26751 0.03931 0.0
H14 H 0.64018 0.24518 0.02981 0.0
H15 H 0.64962 0.32148 0.07865 0.0
C16 C 0.40921 0.21236 -0.03265 0.0
N17 N 0.4112 0.24606 0.01846 0.0
N18 N 0.41369 0.20061 0.05887 0.0
C19 C 0.40973 0.13521 0.03549 0.0
C20 C 0.41027 0.14185 -0.02333 0.0
C21 C 0.41223 0.24997 0.91105 0.0
H22 H 0.35548 0.24989 0.9048 0.0
H23 H 0.46203 0.31235 0.91136 0.0
H24 H 0.42114 0.21835 0.87486 0.0
O25 O 0.34787 0.31794 0.11647 0.0
O26 O 0.3721 0.24657 0.17998 0.0
H27 H 0.35237 1.00985 0.05235 0.0
H28 H 0.45724 0.06196 0.06415 0.0
C29 C 0.40249 0.06605 0.06906 0.0
H30 H 0.39102 0.07137 0.11485 0.0
H31 H 0.48059 0.13914 0.22581 0.0
O32 O 0.34539 0.3595 -0.01215 0.0
C33 C 0.33619 0.28465 0.16533 0.0
Co34 Co 0.76294 0.09137 0.04391 0.0
Co35 Co 0.85566 0.23094 0.13027 0.0
C36 C 0.67669 0.15522 0.10543 0.0
O37 O 0.67149 0.10949 0.06412 0.0
O38 O 0.74241 0.19945 0.13019 0.0
C39 C 0.70583 0.99314 -0.05947 0.0
O40 O 0.67094 1.03405 0.92684 0.0
C41 C 0.89667 0.39244 0.11018 0.0
C42 C 0.97308 0.46314 0.18114 0.0
C43 C 0.9444 0.46992 0.12824 0.0
N44 N 0.9021 0.34235 0.14782 0.0
N45 N 0.94808 0.38527 0.19053 0.0
C46 C 0.83932 0.36641 0.06114 0.0
H47 H 0.83423 0.31389 0.03902 0.0
H48 H 0.85572 0.41549 0.03002 0.0
H49 H 0.77965 0.34783 0.07868 0.0
C50 C 0.88905 0.21711 -0.03262 0.0
N51 N 0.85531 0.18541 0.01848 0.0
N52 N 0.9007 0.23337 0.05889 0.0
C53 C 0.96612 0.29482 0.03553 0.0
C54 C 0.95953 0.2887 -0.0233 0.0
C55 C 0.85151 0.18248 0.91106 0.0
H56 H 0.85161 0.12582 0.90487 0.0
H57 H 0.78912 0.16988 0.91132 0.0
H58 H 0.88315 0.22298 0.87487 0.0
O59 O 0.78347 0.05019 0.11649 0.0
O60 O 0.8547 0.14583 0.18001 0.0
H61 H 0.09147 0.36286 0.05242 0.0
H62 H 1.03931 0.41558 0.06419 0.0
C63 C 1.03525 0.35675 0.06911 0.0
H64 H 1.02992 0.33996 0.11491 0.0
H65 H 0.96209 0.36166 0.22581 0.0
O66 O 0.74198 1.00614 -0.01215 0.0
C67 C 0.8167 0.07183 0.16536 0.0
Co68 Co 1.00992 0.69182 0.04388 0.0
Co69 Co 0.87041 0.64503 0.13027 0.0
C70 C 0.94612 0.54176 0.10544 0.0
O71 O 0.99181 0.58226 0.0641 0.0
O72 O 0.90193 0.56329 0.13021 0.0
C73 C 0.10813 0.73294 -0.05951 0.0
O74 O 0.06725 0.65715 0.9268 0.0
C75 C 0.70899 0.5244 0.11029 0.0
C76 C 0.63824 0.53025 0.18118 0.0
C77 C 0.63153 0.49457 0.12838 0.0
N78 N 0.75904 0.58004 0.14788 0.0
N79 N 0.71611 0.58319 0.19054 0.0
C80 C 0.73505 0.4931 0.06128 0.0
H81 H 0.78789 0.54045 0.03939 0.0
H82 H 0.68611 0.46082 0.02998 0.0
H83 H 0.75312 0.4516 0.07881 0.0
C84 C 0.88411 0.69208 -0.03266 0.0
N85 N 0.91585 0.69011 0.01845 0.0
N86 N 0.86789 0.68753 0.05886 0.0
C87 C 0.80638 0.6914 0.03549 0.0
C88 C 0.81249 0.6909 -0.02334 0.0
C89 C 0.91872 0.68914 0.91103 0.0
H90 H 0.97537 0.74591 0.90481 0.0
H91 H 0.93135 0.63937 0.91131 0.0
H92 H 0.8782 0.68023 0.87484 0.0
O93 O 1.05114 0.75354 0.11646 0.0
O94 O 0.95553 0.72922 0.17997 0.0
H95 H 0.73819 0.74857 0.05232 0.0
H96 H 0.68564 0.64372 0.0642 0.0
C97 C 0.74443 0.69856 0.06906 0.0
H98 H 0.76127 0.71013 0.11484 0.0
H99 H 0.73969 0.62096 0.22573 0.0
O100 O 0.09512 0.75609 -0.0122 0.0
C101 C 1.02952 0.76518 0.16532 0.0
Co102 Co 0.35871 0.38932 0.3313 0.0
Co103 Co 0.26583 0.43601 0.24494 0.0
C104 C 0.44481 0.53937 0.2697 0.0
O105 O 0.4501 0.49891 0.31104 0.0
O106 O 0.37906 0.51779 0.24498 0.0
C107 C 0.41589 0.34825 0.43468 0.0
O108 O 0.45075 0.42404 0.44838 0.0
C109 C 0.22482 0.5565 0.26506 0.0
C110 C 0.14846 0.55087 0.19407 0.0
C111 C 0.17714 0.5863 0.24699 0.0
N112 N 0.21937 0.50098 0.22741 0.0
N113 N 0.17343 0.49797 0.18468 0.0
C114 C 0.28216 0.58778 0.31409 0.0
H115 H 0.28743 0.54039 0.33611 0.0
H116 H 0.26562 0.62026 0.3453 0.0
H117 H 0.34179 0.62907 0.29658 0.0
C118 C 0.23257 0.38889 0.40784 0.0
N119 N 0.2663 0.39092 0.35674 0.0
N120 N 0.22086 0.39342 0.31633 0.0
C121 C 0.15543 0.38943 0.3397 0.0
C122 C 0.16205 0.38994 0.39853 0.0
C123 C 0.27015 0.39187 0.46415 0.0
H124 H 0.27008 0.33512 0.47038 0.0
H125 H 0.33254 0.44168 0.46386 0.0
H126 H 0.23852 0.40075 0.50034 0.0
O127 O 0.33816 0.32757 0.25875 0.0
O128 O 0.26683 0.35187 0.19521 0.0
H129 H 1.03007 0.33208 0.32282 0.0
H130 H 0.0822 0.43695 0.31104 0.0
C131 C 0.08628 0.38219 0.30613 0.0
H132 H 0.09161 0.37074 0.26033 0.0
H133 H 0.15943 0.46038 0.1494 0.0
O134 O 0.37974 0.3251 0.38736 0.0
C135 C 0.30486 0.31591 0.20989 0.0
Co136 Co 0.712 0.98962 0.33133 0.0
Co137 Co 0.66537 0.85012 0.24494 0.0
C138 C 0.56199 0.92572 0.2697 0.0
O139 O 0.60241 0.97143 0.31106 0.0
O140 O 0.58361 0.88158 0.24496 0.0
C141 C 0.75308 0.08785 0.43473 0.0
O142 O 0.67729 0.04694 0.44842 0.0
C143 C 0.54474 0.6887 0.26494 0.0
C144 C 0.55051 0.61792 0.19403 0.0
C145 C 0.51486 0.61123 0.24684 0.0
N146 N 0.60038 0.73873 0.22735 0.0
N147 N 0.60348 0.69578 0.18468 0.0
C148 C 0.51347 0.71477 0.31396 0.0
H149 H 0.56079 0.76775 0.33574 0.0
H150 H 0.4814 0.6659 0.34534 0.0
H151 H 0.47179 0.73262 0.29646 0.0
C152 C 0.71232 0.86384 0.40788 0.0
N153 N 0.71037 0.89558 0.35677 0.0
N154 N 0.70786 0.84765 0.31637 0.0
C155 C 0.71175 0.78616 0.33974 0.0
C156 C 0.7112 0.79225 0.39857 0.0
C157 C 0.7093 0.89843 0.46418 0.0
H158 H 0.76606 0.95509 0.47044 0.0
H159 H 0.65951 0.91103 0.46387 0.0
H160 H 0.70038 0.85789 0.50037 0.0
O161 O 0.77377 1.03086 0.25878 0.0
O162 O 0.74954 0.93526 0.19525 0.0
H163 H 0.76896 0.71801 0.32292 0.0
H164 H 0.66411 0.66541 0.31103 0.0
C165 C 0.71894 0.72422 0.30618 0.0
H166 H 0.7305 0.74105 0.26039 0.0
H167 H 0.64122 0.71936 0.14947 0.0
O168 O 0.77623 0.07484 0.38741 0.0
C169 C 0.78546 1.00925 0.20993 0.0
Co170 Co 0.11167 0.74273 0.33134 0.0
Co171 Co 0.25121 0.83542 0.24494 0.0
C172 C 0.17546 0.65645 0.26978 0.0
O173 O 0.12977 0.65127 0.31112 0.0
O174 O 0.21967 0.72216 0.24501 0.0
C175 C 1.01347 0.68565 0.43473 0.0
O176 O 1.05437 0.65075 0.44841 0.0
C177 C 0.41265 0.87624 0.26494 0.0
C178 C 0.48338 0.9528 0.19403 0.0
C179 C 0.49011 0.92386 0.24684 0.0
N180 N 0.36259 0.88181 0.22735 0.0
N181 N 0.40551 0.92788 0.18468 0.0
C182 C 0.38659 0.81888 0.31397 0.0
H183 H 0.334 0.81371 0.33603 0.0
H184 H 0.43564 0.83534 0.34514 0.0
H185 H 0.36815 0.75924 0.29643 0.0
C186 C 0.23747 0.86882 0.40786 0.0
N187 N 0.20574 0.83509 0.35676 0.0
N188 N 0.25371 0.88046 0.31634 0.0
C189 C 0.3152 0.94585 0.3397 0.0
C190 C 0.30909 0.93928 0.39853 0.0
C191 C 0.20285 0.8313 0.46417 0.0
H192 H 0.14619 0.83141 0.47037 0.0
H193 H 0.19023 0.7689 0.46391 0.0
H194 H 0.24336 0.86293 0.50036 0.0
O195 O 0.07046 0.76325 0.25876 0.0
O196 O 0.16609 0.83449 0.19522 0.0
H197 H 0.38339 0.07121 0.32286 0.0
H198 H 0.43594 1.01891 0.31099 0.0
C199 C 0.37715 1.01496 0.30612 0.0
H200 H 0.36032 1.00968 0.26034 0.0
H201 H 0.38192 0.94203 0.14947 0.0
O202 O 1.02647 0.7218 0.38741 0.0
C203 C 0.09211 0.79651 0.2099 0.0
Co204 Co 0.71198 0.74261 0.8313 0.0
Co205 Co 0.66535 0.83551 0.74494 0.0
C206 C 0.56195 0.65653 0.76969 0.0
O207 O 0.60239 0.65122 0.81104 0.0
O208 O 0.58356 0.72229 0.74496 0.0
C209 C 0.75308 0.68544 0.93469 0.0
O210 O 0.67729 0.65054 -0.05161 0.0
C211 C 0.54485 0.87649 0.76503 0.0
C212 C 0.55049 0.95287 0.69407 0.0
C213 C 0.51505 0.92417 0.74697 0.0
N214 N 0.60038 0.88195 0.72739 0.0
N215 N 0.6034 0.92792 0.68468 0.0
C216 C 0.51356 0.81914 0.81405 0.0
H217 H 0.56088 0.81354 0.83589 0.0
H218 H 0.4814 0.83588 0.84539 0.0
H219 H 0.47196 0.75959 0.79655 0.0
C220 C 0.71233 0.86869 0.90786 0.0
N221 N 0.71037 0.83501 0.85675 0.0
N222 N 0.7079 0.88046 0.81635 0.0
C223 C 0.71183 0.94585 0.83972 0.0
C224 C 0.71124 0.93918 0.89855 0.0
C225 C 0.70931 0.83108 -0.03583 0.0
H226 H 0.76607 0.83119 -0.02957 0.0
H227 H 0.65953 0.76868 -0.03616 0.0
H228 H 0.70035 0.86267 0.00035 0.0
O229 O 0.77373 0.76314 0.75875 0.0
O230 O 0.7495 0.83451 0.69524 0.0
H231 H 0.76921 0.07122 0.82287 0.0
H232 H 0.66434 1.01912 0.81107 0.0
C233 C 0.71909 1.01502 0.80616 0.0
H234 H 0.73056 1.0097 0.76037 0.0
H235 H 0.641 0.94193 0.6494 0.0
O236 O 0.77621 0.7216 0.88737 0.0
C237 C 0.78542 0.79643 0.7099 0.0
Co238 Co 0.35865 0.98969 0.83131 0.0
Co239 Co 0.26593 0.85012 0.74494 0.0
C240 C 0.4449 0.92585 0.76978 0.0
O241 O 0.4501 0.97158 0.8111 0.0
O242 O 0.37919 0.88162 0.74502 0.0
C243 C 0.41574 0.08792 0.93469 0.0
O244 O 0.45066 0.04705 -0.05161 0.0
C245 C 0.22493 0.68863 0.76503 0.0
C246 C 0.14851 0.61793 0.69406 0.0
C247 C 0.1772 0.61115 0.74697 0.0
N248 N 0.21949 0.73871 0.72739 0.0
N249 N 0.17351 0.6958 0.68467 0.0
C250 C 0.28228 0.71466 0.81406 0.0
H251 H 0.28738 0.76718 0.83618 0.0
H252 H 0.26588 0.66558 0.84518 0.0
H253 H 0.34195 0.73323 0.79652 0.0
C254 C 0.23256 0.86393 0.90784 0.0
N255 N 0.26629 0.89564 0.85674 0.0
N256 N 0.22089 0.84768 0.81633 0.0
C257 C 0.15548 0.78622 0.83969 0.0
C258 C 0.1621 0.79232 0.89852 0.0
C259 C 0.27011 0.89855 -0.03585 0.0
H260 H 0.26996 0.9552 -0.02963 0.0
H261 H 0.33251 0.9112 -0.03612 0.0
H262 H 0.23849 0.85803 0.00034 0.0
O263 O 0.33812 1.03087 0.75873 0.0
O264 O 0.26688 0.93524 0.69521 0.0
H265 H 1.03013 0.7182 0.82281 0.0
H266 H 0.08227 0.66547 0.81103 0.0
C267 C 0.08634 0.7243 0.80611 0.0
H268 H 0.09167 0.74109 0.76032 0.0
H269 H 0.1595 0.71941 0.6494 0.0
O270 O 0.37958 0.07491 0.88737 0.0
C271 C 0.30488 1.00924 0.70986 0.0
Co272 Co 0.11169 0.38925 0.83134 0.0
Co273 Co 0.25119 0.43604 0.74494 0.0
C274 C 0.17548 0.5393 0.76977 0.0
O275 O 0.12979 0.49881 0.81111 0.0
O276 O 0.21967 0.51778 0.745 0.0
C277 C 1.01347 0.3481 0.93473 0.0
O278 O 1.05431 0.42389 -0.05157 0.0
C279 C 0.41261 0.55667 0.76492 0.0
C280 C 0.48336 0.55082 0.69403 0.0
C281 C 0.49007 0.58651 0.74682 0.0
N282 N 0.36256 0.50104 0.72733 0.0
N283 N 0.40549 0.49788 0.68467 0.0
C284 C 0.38655 0.58798 0.81392 0.0
H285 H 0.33371 0.54064 0.83581 0.0
H286 H 0.43548 0.62026 0.84522 0.0
H287 H 0.36848 0.62948 0.79639 0.0
C288 C 0.23752 0.38905 0.90787 0.0
N289 N 0.20576 0.39098 0.85677 0.0
N290 N 0.25372 0.39355 0.81636 0.0
C291 C 0.31524 0.38971 0.83973 0.0
C292 C 0.30916 0.39026 0.89856 0.0
C293 C 0.20291 0.39199 -0.03582 0.0
H294 H 0.14628 0.33519 -0.02958 0.0
H295 H 0.19023 0.44173 -0.03611 0.0
H296 H 0.24345 0.40094 0.00037 0.0
O297 O 0.07047 0.32752 0.75877 0.0
O298 O 0.16607 0.35185 0.69525 0.0
H299 H 0.38341 0.33252 0.82291 0.0
H300 H 0.43598 0.43737 0.81102 0.0
C301 C 0.37719 0.38253 0.80616 0.0
H302 H 0.36034 0.37096 0.76038 0.0
H303 H 0.38191 0.46012 0.64948 0.0
O304 O 1.0265 0.32497 0.88742 0.0
C305 C 0.09207 0.31588 0.7099 0.0
Co306 Co 0.7629 0.69174 0.54393 0.0
Co307 Co 0.85577 0.64506 0.63029 0.0
C308 C 0.67679 0.5417 0.60553 0.0
O309 O 0.67149 0.58216 0.56419 0.0
O310 O 0.74254 0.56328 0.63025 0.0
C311 C 0.70573 0.73284 0.44054 0.0
O312 O 0.67084 0.65706 0.42683 0.0
C313 C 0.89677 0.52457 0.61018 0.0
C314 C 0.97313 0.5302 0.68116 0.0
C315 C 0.94446 0.49477 0.62825 0.0
N316 N 0.90222 0.58008 0.64783 0.0
N317 N 0.94817 0.5831 0.69055 0.0
C318 C 0.83943 0.49328 0.56115 0.0
H319 H 0.83415 0.54067 0.53914 0.0
H320 H 0.85596 0.4608 0.52994 0.0
H321 H 0.77981 0.45199 0.57867 0.0
C322 C 0.88901 0.69213 0.46738 0.0
N323 N 0.8553 0.69013 0.51849 0.0
N324 N 0.90074 0.68764 0.55889 0.0
C325 C 0.96615 0.69161 0.53553 0.0
C326 C 0.9595 0.69105 0.4767 0.0
C327 C 0.85142 0.68914 0.41108 0.0
H328 H 0.85153 0.74591 0.40483 0.0
H329 H 0.78902 0.63936 0.41138 0.0
H330 H 0.88302 0.68022 0.37489 0.0
O331 O 0.78345 0.7535 0.61648 0.0
O332 O 0.85477 0.72921 0.68001 0.0
H333 H 0.09151 0.74898 0.55239 0.0
H334 H 1.03941 0.6441 0.56418 0.0
C335 C 1.03531 0.69886 0.5691 0.0
H336 H 1.02999 0.71031 0.61489 0.0
H337 H 0.96217 0.62069 0.72583 0.0
O338 O 0.74189 0.75598 0.48786 0.0
C339 C 0.81674 0.76517 0.66533 0.0
Co340 Co 0.4096 0.09147 0.5439 0.0
Co341 Co 0.45623 0.23096 0.63029 0.0
C342 C 0.5596 0.15535 0.60554 0.0
O343 O 0.51918 0.10964 0.56417 0.0
O344 O 0.53799 0.19949 0.63027 0.0
C345 C 0.3685 0.99323 0.4405 0.0
O346 O 0.44428 1.03409 0.4268 0.0
C347 C 0.57685 0.39238 0.61029 0.0
C348 C 0.57109 0.46315 0.6812 0.0
C349 C 0.60674 0.46985 0.6284 0.0
N350 N 0.52122 0.34234 0.64788 0.0
N351 N 0.51812 0.38529 0.69055 0.0
C352 C 0.60814 0.3663 0.56128 0.0
H353 H 0.56082 0.31332 0.5395 0.0
H354 H 0.64021 0.41517 0.5299 0.0
H355 H 0.64982 0.34846 0.57878 0.0
C356 C 0.40933 0.21726 0.46735 0.0
N357 N 0.41125 0.1855 0.51846 0.0
N358 N 0.41375 0.23344 0.55886 0.0
C359 C 0.40988 0.29494 0.53549 0.0
C360 C 0.41048 0.28887 0.47666 0.0
C361 C 0.41235 0.18267 0.41104 0.0
H362 H 0.35558 0.12604 0.40477 0.0
H363 H 0.46211 0.17003 0.41137 0.0
H364 H 0.42132 0.22323 0.37486 0.0
O365 O 0.34783 0.05022 0.61644 0.0
O366 O 0.37205 0.14581 0.67997 0.0
H367 H 0.35265 0.36307 0.55229 0.0
H368 H 0.4575 0.41568 0.5642 0.0
C369 C 0.40268 0.35687 0.56905 0.0
H370 H 0.39111 0.34004 0.61483 0.0
H371 H 0.48038 0.36172 0.72576 0.0
O372 O 0.34536 1.00626 0.48781 0.0
C373 C 0.33612 0.07182 0.66529 0.0
Co374 Co 1.00991 0.33833 0.54389 0.0
Co375 Co 0.87039 0.24564 0.63029 0.0
C376 C 0.94613 0.42462 0.60545 0.0
O377 O 0.99183 0.4298 0.56411 0.0
O378 O 0.90192 0.35891 0.63022 0.0
C379 C 0.10812 0.39539 0.4405 0.0
O380 O 0.06726 0.43033 0.4268 0.0
C381 C 0.70895 0.20483 0.61029 0.0
C382 C 0.63821 0.12827 0.6812 0.0
C383 C 0.63148 0.1572 0.6284 0.0
N384 N 0.759 0.19926 0.64788 0.0
N385 N 0.71608 0.15319 0.69055 0.0
C386 C 0.735 0.26219 0.56127 0.0
H387 H 0.7876 0.26738 0.53922 0.0
H388 H 0.68596 0.24574 0.5301 0.0
H389 H 0.75344 0.32183 0.57882 0.0
C390 C 0.88409 0.21227 0.46737 0.0
N391 N 0.91583 0.24598 0.51847 0.0
N392 N 0.86787 0.20061 0.55888 0.0
C393 C 0.80637 0.13522 0.53552 0.0
C394 C 0.81246 0.14183 0.47669 0.0
C395 C 0.91872 0.2498 0.41106 0.0
H396 H 0.97535 0.24964 0.40484 0.0
H397 H 0.93138 0.31221 0.41133 0.0
H398 H 0.87818 0.21819 0.37487 0.0
O399 O 1.05112 0.31781 0.61646 0.0
O400 O 0.9555 0.24657 0.68 0.0
H401 H 0.73819 1.00987 0.55236 0.0
H402 H 0.68563 0.06215 0.56424 0.0
C403 C 0.74442 0.06611 0.5691 0.0
H404 H 0.76126 0.07139 0.61488 0.0
H405 H 0.73967 0.13904 0.72576 0.0
O406 O 0.0951 0.35924 0.48782 0.0
C407 C 1.02949 0.28455 0.66532 0.0
loop_
_geom_bond_atom_site_label_1
_geom_bond_atom_site_label_2
_geom_bond_distance
_geom_bond_site_symmetry_2
_ccdc_geom_bond_type
Co0 O3 1.970 . S
Co0 N17 1.989 . S
Co0 O25 1.967 . S
Co0 O32 1.920 . S
Co1 O4 1.966 . S
Co1 N10 2.022 . S
Co1 N18 1.993 . S
Co1 O26 1.941 . S
C2 O3 1.258 . S
C2 O4 1.263 . S
O3 Co0 1.970 . S
O3 C2 1.258 . S
O4 Co1 1.966 . S
O4 C2 1.263 . S
C5 O6 1.235 1_554 S
C5 O32 1.289 . S
O6 C5 1.235 1_556 S
C7 C9 1.400 . S
C7 N10 1.351 . S
C7 C12 1.501 . S
C8 C9 1.387 . S
C8 N11 1.341 . S
C9 C7 1.400 . S
C9 C8 1.387 . S
N10 Co1 2.022 . S
N10 C7 1.351 . S
N10 N11 1.365 . S
N11 C8 1.341 . S
N11 N10 1.365 . S
N11 H31 0.862 . S
C12 C7 1.501 . S
C12 H13 0.961 . S
C12 H14 0.961 . S
C12 H15 0.960 . S
H13 C12 0.961 . S
H14 C12 0.961 . S
H15 C12 0.960 . S
C16 N17 1.342 . S
C16 C20 1.401 . S
C16 C21 1.499 . S
N17 Co0 1.989 . S
N17 C16 1.342 . S
N17 N18 1.388 . S
N18 Co1 1.993 . S
N18 N17 1.388 . S
N18 C19 1.346 . S
C19 N18 1.346 . S
C19 C20 1.396 . S
C19 C29 1.510 . S
C20 C16 1.401 . S
C20 C19 1.396 . S
C21 C16 1.499 . S
C21 H22 0.959 . S
C21 H23 0.960 1_554 S
C21 H24 0.961 . S
H22 C21 0.959 . S
H23 C21 0.960 1_556 S
H24 C21 0.961 . S
O25 Co0 1.967 . S
O25 C33 1.258 . S
O26 Co1 1.941 . S
O26 C33 1.266 . S
H27 C29 0.959 1_565 S
H28 C29 0.961 . S
C29 C19 1.510 . S
C29 H27 0.959 1_545 S
C29 H28 0.961 . S
C29 H30 0.960 . S
H30 C29 0.960 . S
H31 N11 0.862 . S
O32 Co0 1.920 . S
O32 C5 1.289 . S
C33 O25 1.258 . S
C33 O26 1.266 . S
Co34 O37 1.970 . S
Co34 N51 1.989 . S
Co34 O59 1.967 . S
Co34 O66 1.920 1_545 S
Co35 O38 1.966 . S
Co35 N44 2.022 . S
Co35 N52 1.993 . S
Co35 O60 1.941 . S
C36 O37 1.258 . S
C36 O38 1.263 . S
O37 Co34 1.970 . S
O37 C36 1.258 . S
O38 Co35 1.966 . S
O38 C36 1.263 . S
C39 O40 1.235 1_564 S
C39 O66 1.289 . S
O40 C39 1.235 1_546 S
C41 C43 1.400 . S
C41 N44 1.351 . S
C41 C46 1.501 . S
C42 C43 1.387 . S
C42 N45 1.341 . S
C43 C41 1.400 . S
C43 C42 1.387 . S
N44 Co35 2.022 . S
N44 C41 1.351 . S
N44 N45 1.365 . S
N45 C42 1.341 . S
N45 N44 1.365 . S
N45 H65 0.862 . S
C46 C41 1.501 . S
C46 H47 0.961 . S
C46 H48 0.961 . S
C46 H49 0.960 . S
H47 C46 0.961 . S
H48 C46 0.961 . S
H49 C46 0.960 . S
C50 N51 1.342 . S
C50 C54 1.401 . S
C50 C55 1.499 . S
N51 Co34 1.989 . S
N51 C50 1.342 . S
N51 N52 1.388 . S
N52 Co35 1.993 . S
N52 N51 1.388 . S
N52 C53 1.346 . S
C53 N52 1.346 . S
C53 C54 1.396 . S
C53 C63 1.510 . S
C54 C50 1.401 . S
C54 C53 1.396 . S
C55 C50 1.499 . S
C55 H56 0.959 . S
C55 H57 0.960 1_554 S
C55 H58 0.961 . S
H56 C55 0.959 . S
H57 C55 0.960 1_556 S
H58 C55 0.961 . S
O59 Co34 1.967 . S
O59 C67 1.258 . S
O60 Co35 1.941 . S
O60 C67 1.266 . S
H61 C63 0.959 1_455 S
H62 C63 0.961 . S
C63 C53 1.510 . S
C63 H61 0.959 1_655 S
C63 H62 0.961 . S
C63 H64 0.960 . S
H64 C63 0.960 . S
H65 N45 0.862 . S
O66 Co34 1.920 1_565 S
O66 C39 1.289 . S
C67 O59 1.258 . S
C67 O60 1.266 . S
Co68 O71 1.970 . S
Co68 N85 1.989 . S
Co68 O93 1.967 . S
Co68 O100 1.920 1_655 S
Co69 O72 1.966 . S
Co69 N78 2.022 . S
Co69 N86 1.993 . S
Co69 O94 1.941 . S
C70 O71 1.258 . S
C70 O72 1.263 . S
O71 Co68 1.970 . S
O71 C70 1.258 . S
O72 Co69 1.966 . S
O72 C70 1.263 . S
C73 O74 1.235 1_454 S
C73 O100 1.289 . S
O74 C73 1.235 1_656 S
C75 C77 1.400 . S
C75 N78 1.351 . S
C75 C80 1.501 . S
C76 C77 1.387 . S
C76 N79 1.341 . S
C77 C75 1.400 . S
C77 C76 1.387 . S
N78 Co69 2.022 . S
N78 C75 1.351 . S
N78 N79 1.365 . S
N79 C76 1.341 . S
N79 N78 1.365 . S
N79 H99 0.862 . S
C80 C75 1.501 . S
C80 H81 0.961 . S
C80 H82 0.961 . S
C80 H83 0.960 . S
H81 C80 0.961 . S
H82 C80 0.961 . S
H83 C80 0.960 . S
C84 N85 1.342 . S
C84 C88 1.401 . S
C84 C89 1.499 . S
N85 Co68 1.989 . S
N85 C84 1.342 . S
N85 N86 1.388 . S
N86 Co69 1.993 . S
N86 N85 1.388 . S
N86 C87 1.346 . S
C87 N86 1.346 . S
C87 C88 1.396 . S
C87 C97 1.510 . S
C88 C84 1.401 . S
C88 C87 1.396 . S
C89 C84 1.499 . S
C89 H90 0.959 . S
C89 H91 0.960 1_554 S
C89 H92 0.961 . S
H90 C89 0.959 . S
H91 C89 0.960 1_556 S
H92 C89 0.961 . S
O93 Co68 1.967 . S
O93 C101 1.258 . S
O94 Co69 1.941 . S
O94 C101 1.266 . S
H95 C97 0.959 . S
H96 C97 0.961 . S
C97 C87 1.510 . S
C97 H95 0.959 . S
C97 H96 0.961 . S
C97 H98 0.960 . S
H98 C97 0.960 . S
H99 N79 0.862 . S
O100 Co68 1.920 1_455 S
O100 C73 1.289 . S
C101 O93 1.258 . S
C101 O94 1.266 . S
Co102 O105 1.970 . S
Co102 N119 1.989 . S
Co102 O127 1.967 . S
Co102 O134 1.920 . S
Co103 O106 1.966 . S
Co103 N112 2.022 . S
Co103 N120 1.993 . S
Co103 O128 1.941 . S
C104 O105 1.258 . S
C104 O106 1.263 . S
O105 Co102 1.970 . S
O105 C104 1.258 . S
O106 Co103 1.966 . S
O106 C104 1.263 . S
C107 O108 1.235 . S
C107 O134 1.289 . S
O108 C107 1.235 . S
C109 C111 1.400 . S
C109 N112 1.351 . S
C109 C114 1.501 . S
C110 C111 1.387 . S
C110 N113 1.341 . S
C111 C109 1.400 . S
C111 C110 1.387 . S
N112 Co103 2.022 . S
N112 C109 1.351 . S
N112 N113 1.365 . S
N113 C110 1.341 . S
N113 N112 1.365 . S
N113 H133 0.862 . S
C114 C109 1.501 . S
C114 H115 0.961 . S
C114 H116 0.961 . S
C114 H117 0.960 . S
H115 C114 0.961 . S
H116 C114 0.961 . S
H117 C114 0.960 . S
C118 N119 1.342 . S
C118 C122 1.401 . S
C118 C123 1.499 . S
N119 Co102 1.989 . S
N119 C118 1.342 . S
N119 N120 1.388 . S
N120 Co103 1.993 . S
N120 N119 1.388 . S
N120 C121 1.346 . S
C121 N120 1.346 . S
C121 C122 1.396 . S
C121 C131 1.510 . S
C122 C118 1.401 . S
C122 C121 1.396 . S
C123 C118 1.499 . S
C123 H124 0.959 . S
C123 H125 0.960 . S
C123 H126 0.961 . S
H124 C123 0.959 . S
H125 C123 0.960 . S
H126 C123 0.961 . S
O127 Co102 1.967 . S
O127 C135 1.258 . S
O128 Co103 1.941 . S
O128 C135 1.266 . S
H129 C131 0.959 1_655 S
H130 C131 0.961 . S
C131 C121 1.510 . S
C131 H129 0.959 1_455 S
C131 H130 0.961 . S
C131 H132 0.960 . S
H132 C131 0.960 . S
H133 N113 0.862 . S
O134 Co102 1.920 . S
O134 C107 1.289 . S
C135 O127 1.258 . S
C135 O128 1.266 . S
Co136 O139 1.970 . S
Co136 N153 1.989 . S
Co136 O161 1.967 . S
Co136 O168 1.920 1_565 S
Co137 O140 1.966 . S
Co137 N146 2.022 . S
Co137 N154 1.993 . S
Co137 O162 1.941 . S
C138 O139 1.258 . S
C138 O140 1.263 . S
O139 Co136 1.970 . S
O139 C138 1.258 . S
O140 Co137 1.966 . S
O140 C138 1.263 . S
C141 O142 1.235 1_545 S
C141 O168 1.289 . S
O142 C141 1.235 1_565 S
C143 C145 1.400 . S
C143 N146 1.351 . S
C143 C148 1.501 . S
C144 C145 1.387 . S
C144 N147 1.341 . S
C145 C143 1.400 . S
C145 C144 1.387 . S
N146 Co137 2.022 . S
N146 C143 1.351 . S
N146 N147 1.365 . S
N147 C144 1.341 . S
N147 N146 1.365 . S
N147 H167 0.862 . S
C148 C143 1.501 . S
C148 H149 0.961 . S
C148 H150 0.961 . S
C148 H151 0.960 . S
H149 C148 0.961 . S
H150 C148 0.961 . S
H151 C148 0.960 . S
C152 N153 1.342 . S
C152 C156 1.401 . S
C152 C157 1.499 . S
N153 Co136 1.989 . S
N153 C152 1.342 . S
N153 N154 1.388 . S
N154 Co137 1.993 . S
N154 N153 1.388 . S
N154 C155 1.346 . S
C155 N154 1.346 . S
C155 C156 1.396 . S
C155 C165 1.510 . S
C156 C152 1.401 . S
C156 C155 1.396 . S
C157 C152 1.499 . S
C157 H158 0.959 . S
C157 H159 0.960 . S
C157 H160 0.961 . S
H158 C157 0.959 . S
H159 C157 0.960 . S
H160 C157 0.961 . S
O161 Co136 1.967 . S
O161 C169 1.258 . S
O162 Co137 1.941 . S
O162 C169 1.266 . S
H163 C165 0.959 . S
H164 C165 0.961 . S
C165 C155 1.510 . S
C165 H163 0.959 . S
C165 H164 0.961 . S
C165 H166 0.960 . S
H166 C165 0.960 . S
H167 N147 0.862 . S
O168 Co136 1.920 1_545 S
O168 C141 1.289 . S
C169 O161 1.258 . S
C169 O162 1.266 . S
Co170 O173 1.970 . S
Co170 N187 1.989 . S
Co170 O195 1.967 . S
Co170 O202 1.920 1_455 S
Co171 O174 1.966 . S
Co171 N180 2.022 . S
Co171 N188 1.993 . S
Co171 O196 1.941 . S
C172 O173 1.258 . S
C172 O174 1.263 . S
O173 Co170 1.970 . S
O173 C172 1.258 . S
O174 Co171 1.966 . S
O174 C172 1.263 . S
C175 O176 1.235 1_655 S
C175 O202 1.289 . S
O176 C175 1.235 1_455 S
C177 C179 1.400 . S
C177 N180 1.351 . S
C177 C182 1.501 . S
C178 C179 1.387 . S
C178 N181 1.341 . S
C179 C177 1.400 . S
C179 C178 1.387 . S
N180 Co171 2.022 . S
N180 C177 1.351 . S
N180 N181 1.365 . S
N181 C178 1.341 . S
N181 N180 1.365 . S
N181 H201 0.862 . S
C182 C177 1.501 . S
C182 H183 0.961 . S
C182 H184 0.961 . S
C182 H185 0.960 . S
H183 C182 0.961 . S
H184 C182 0.961 . S
H185 C182 0.960 . S
C186 N187 1.342 . S
C186 C190 1.401 . S
C186 C191 1.499 . S
N187 Co170 1.989 . S
N187 C186 1.342 . S
N187 N188 1.388 . S
N188 Co171 1.993 . S
N188 N187 1.388 . S
N188 C189 1.346 . S
C189 N188 1.346 . S
C189 C190 1.396 . S
C189 C199 1.510 . S
C190 C186 1.401 . S
C190 C189 1.396 . S
C191 C186 1.499 . S
C191 H192 0.959 . S
C191 H193 0.960 . S
C191 H194 0.961 . S
H192 C191 0.959 . S
H193 C191 0.960 . S
H194 C191 0.961 . S
O195 Co170 1.967 . S
O195 C203 1.258 . S
O196 Co171 1.941 . S
O196 C203 1.266 . S
H197 C199 0.959 1_545 S
H198 C199 0.961 . S
C199 C189 1.510 . S
C199 H197 0.959 1_565 S
C199 H198 0.961 . S
C199 H200 0.960 . S
H200 C199 0.960 . S
H201 N181 0.862 . S
O202 Co170 1.920 1_655 S
O202 C175 1.289 . S
C203 O195 1.258 . S
C203 O196 1.266 . S
Co204 O207 1.970 . S
Co204 N221 1.989 . S
Co204 O229 1.967 . S
Co204 O236 1.920 . S
Co205 O208 1.966 . S
Co205 N214 2.022 . S
Co205 N222 1.993 . S
Co205 O230 1.941 . S
C206 O207 1.258 . S
C206 O208 1.263 . S
O207 Co204 1.970 . S
O207 C206 1.258 . S
O208 Co205 1.966 . S
O208 C206 1.263 . S
C209 O210 1.235 1_556 S
C209 O236 1.289 . S
O210 C209 1.235 1_554 S
C211 C213 1.400 . S
C211 N214 1.351 . S
C211 C216 1.501 . S
C212 C213 1.387 . S
C212 N215 1.341 . S
C213 C211 1.400 . S
C213 C212 1.387 . S
N214 Co205 2.022 . S
N214 C211 1.351 . S
N214 N215 1.365 . S
N215 C212 1.341 . S
N215 N214 1.365 . S
N215 H235 0.862 . S
C216 C211 1.501 . S
C216 H217 0.961 . S
C216 H218 0.961 . S
C216 H219 0.960 . S
H217 C216 0.961 . S
H218 C216 0.961 . S
H219 C216 0.960 . S
C220 N221 1.342 . S
C220 C224 1.401 . S
C220 C225 1.499 . S
N221 Co204 1.989 . S
N221 C220 1.342 . S
N221 N222 1.388 . S
N222 Co205 1.993 . S
N222 N221 1.388 . S
N222 C223 1.346 . S
C223 N222 1.346 . S
C223 C224 1.396 . S
C223 C233 1.510 . S
C224 C220 1.401 . S
C224 C223 1.396 . S
C225 C220 1.499 . S
C225 H226 0.959 . S
C225 H227 0.960 1_556 S
C225 H228 0.961 . S
H226 C225 0.959 . S
H227 C225 0.960 1_554 S
H228 C225 0.961 . S
O229 Co204 1.967 . S
O229 C237 1.258 . S
O230 Co205 1.941 . S
O230 C237 1.266 . S
H231 C233 0.959 1_545 S
H232 C233 0.961 . S
C233 C223 1.510 . S
C233 H231 0.959 1_565 S
C233 H232 0.961 . S
C233 H234 0.960 . S
H234 C233 0.960 . S
H235 N215 0.862 . S
O236 Co204 1.920 . S
O236 C209 1.289 . S
C237 O229 1.258 . S
C237 O230 1.266 . S
Co238 O241 1.970 . S
Co238 N255 1.989 . S
Co238 O263 1.967 . S
Co238 O270 1.920 1_565 S
Co239 O242 1.966 . S
Co239 N248 2.022 . S
Co239 N256 1.993 . S
Co239 O264 1.941 . S
C240 O241 1.258 . S
C240 O242 1.263 . S
O241 Co238 1.970 . S
O241 C240 1.258 . S
O242 Co239 1.966 . S
O242 C240 1.263 . S
C243 O244 1.235 1_546 S
C243 O270 1.289 . S
O244 C243 1.235 1_564 S
C245 C247 1.400 . S
C245 N248 1.351 . S
C245 C250 1.501 . S
C246 C247 1.387 . S
C246 N249 1.341 . S
C247 C245 1.400 . S
C247 C246 1.387 . S
N248 Co239 2.022 . S
N248 C245 1.351 . S
N248 N249 1.365 . S
N249 C246 1.341 . S
N249 N248 1.365 . S
N249 H269 0.862 . S
C250 C245 1.501 . S
C250 H251 0.961 . S
C250 H252 0.961 . S
C250 H253 0.960 . S
H251 C250 0.961 . S
H252 C250 0.961 . S
H253 C250 0.960 . S
C254 N255 1.342 . S
C254 C258 1.401 . S
C254 C259 1.499 . S
N255 Co238 1.989 . S
N255 C254 1.342 . S
N255 N256 1.388 . S
N256 Co239 1.993 . S
N256 N255 1.388 . S
N256 C257 1.346 . S
C257 N256 1.346 . S
C257 C258 1.396 . S
C257 C267 1.510 . S
C258 C254 1.401 . S
C258 C257 1.396 . S
C259 C254 1.499 . S
C259 H260 0.959 . S
C259 H261 0.960 1_556 S
C259 H262 0.961 . S
H260 C259 0.959 . S
H261 C259 0.960 1_554 S
H262 C259 0.961 . S
O263 Co238 1.967 . S
O263 C271 1.258 . S
O264 Co239 1.941 . S
O264 C271 1.266 . S
H265 C267 0.959 1_655 S
H266 C267 0.961 . S
C267 C257 1.510 . S
C267 H265 0.959 1_455 S
C267 H266 0.961 . S
C267 H268 0.960 . S
H268 C267 0.960 . S
H269 N249 0.862 . S
O270 Co238 1.920 1_545 S
O270 C243 1.289 . S
C271 O263 1.258 . S
C271 O264 1.266 . S
Co272 O275 1.970 . S
Co272 N289 1.989 . S
Co272 O297 1.967 . S
Co272 O304 1.920 1_455 S
Co273 O276 1.966 . S
Co273 N282 2.022 . S
Co273 N290 1.993 . S
Co273 O298 1.941 . S
C274 O275 1.258 . S
C274 O276 1.263 . S
O275 Co272 1.970 . S
O275 C274 1.258 . S
O276 Co273 1.966 . S
O276 C274 1.263 . S
C277 O278 1.235 1_656 S
C277 O304 1.289 . S
O278 C277 1.235 1_454 S
C279 C281 1.400 . S
C279 N282 1.351 . S
C279 C284 1.501 . S
C280 C281 1.387 . S
C280 N283 1.341 . S
C281 C279 1.400 . S
C281 C280 1.387 . S
N282 Co273 2.022 . S
N282 C279 1.351 . S
N282 N283 1.365 . S
N283 C280 1.341 . S
N283 N282 1.365 . S
N283 H303 0.862 . S
C284 C279 1.501 . S
C284 H285 0.961 . S
C284 H286 0.961 . S
C284 H287 0.960 . S
H285 C284 0.961 . S
H286 C284 0.961 . S
H287 C284 0.960 . S
C288 N289 1.342 . S
C288 C292 1.401 . S
C288 C293 1.499 . S
N289 Co272 1.989 . S
N289 C288 1.342 . S
N289 N290 1.388 . S
N290 Co273 1.993 . S
N290 N289 1.388 . S
N290 C291 1.346 . S
C291 N290 1.346 . S
C291 C292 1.396 . S
C291 C301 1.510 . S
C292 C288 1.401 . S
C292 C291 1.396 . S
C293 C288 1.499 . S
C293 H294 0.959 . S
C293 H295 0.960 1_556 S
C293 H296 0.961 . S
H294 C293 0.959 . S
H295 C293 0.960 1_554 S
H296 C293 0.961 . S
O297 Co272 1.967 . S
O297 C305 1.258 . S
O298 Co273 1.941 . S
O298 C305 1.266 . S
H299 C301 0.959 . S
H300 C301 0.961 . S
C301 C291 1.510 . S
C301 H299 0.959 . S
C301 H300 0.961 . S
C301 H302 0.960 . S
H302 C301 0.960 . S
H303 N283 0.862 . S
O304 Co272 1.920 1_655 S
O304 C277 1.289 . S
C305 O297 1.258 . S
C305 O298 1.266 . S
Co306 O309 1.970 . S
Co306 N323 1.989 . S
Co306 O331 1.967 . S
Co306 O338 1.920 . S
Co307 O310 1.966 . S
Co307 N316 2.022 . S
Co307 N324 1.993 . S
Co307 O332 1.941 . S
C308 O309 1.258 . S
C308 O310 1.263 . S
O309 Co306 1.970 . S
O309 C308 1.258 . S
O310 Co307 1.966 . S
O310 C308 1.263 . S
C311 O312 1.235 . S
C311 O338 1.289 . S
O312 C311 1.235 . S
C313 C315 1.400 . S
C313 N316 1.351 . S
C313 C318 1.501 . S
C314 C315 1.387 . S
C314 N317 1.341 . S
C315 C313 1.400 . S
C315 C314 1.387 . S
N316 Co307 2.022 . S
N316 C313 1.351 . S
N316 N317 1.365 . S
N317 C314 1.341 . S
N317 N316 1.365 . S
N317 H337 0.862 . S
C318 C313 1.501 . S
C318 H319 0.961 . S
C318 H320 0.961 . S
C318 H321 0.960 . S
H319 C318 0.961 . S
H320 C318 0.961 . S
H321 C318 0.960 . S
C322 N323 1.342 . S
C322 C326 1.401 . S
C322 C327 1.499 . S
N323 Co306 1.989 . S
N323 C322 1.342 . S
N323 N324 1.388 . S
N324 Co307 1.993 . S
N324 N323 1.388 . S
N324 C325 1.346 . S
C325 N324 1.346 . S
C325 C326 1.396 . S
C325 C335 1.510 . S
C326 C322 1.401 . S
C326 C325 1.396 . S
C327 C322 1.499 . S
C327 H328 0.959 . S
C327 H329 0.960 . S
C327 H330 0.961 . S
H328 C327 0.959 . S
H329 C327 0.960 . S
H330 C327 0.961 . S
O331 Co306 1.967 . S
O331 C339 1.258 . S
O332 Co307 1.941 . S
O332 C339 1.266 . S
H333 C335 0.959 1_455 S
H334 C335 0.961 . S
C335 C325 1.510 . S
C335 H333 0.959 1_655 S
C335 H334 0.961 . S
C335 H336 0.960 . S
H336 C335 0.960 . S
H337 N317 0.862 . S
O338 Co306 1.920 . S
O338 C311 1.289 . S
C339 O331 1.258 . S
C339 O332 1.266 . S
Co340 O343 1.970 . S
Co340 N357 1.989 . S
Co340 O365 1.967 . S
Co340 O372 1.920 1_545 S
Co341 O344 1.966 . S
Co341 N350 2.022 . S
Co341 N358 1.993 . S
Co341 O366 1.941 . S
C342 O343 1.258 . S
C342 O344 1.263 . S
O343 Co340 1.970 . S
O343 C342 1.258 . S
O344 Co341 1.966 . S
O344 C342 1.263 . S
C345 O346 1.235 1_565 S
C345 O372 1.289 . S
O346 C345 1.235 1_545 S
C347 C349 1.400 . S
C347 N350 1.351 . S
C347 C352 1.501 . S
C348 C349 1.387 . S
C348 N351 1.341 . S
C349 C347 1.400 . S
C349 C348 1.387 . S
N350 Co341 2.022 . S
N350 C347 1.351 . S
N350 N351 1.365 . S
N351 C348 1.341 . S
N351 N350 1.365 . S
N351 H371 0.862 . S
C352 C347 1.501 . S
C352 H353 0.961 . S
C352 H354 0.961 . S
C352 H355 0.960 . S
H353 C352 0.961 . S
H354 C352 0.961 . S
H355 C352 0.960 . S
C356 N357 1.342 . S
C356 C360 1.401 . S
C356 C361 1.499 . S
N357 Co340 1.989 . S
N357 C356 1.342 . S
N357 N358 1.388 . S
N358 Co341 1.993 . S
N358 N357 1.388 . S
N358 C359 1.346 . S
C359 N358 1.346 . S
C359 C360 1.396 . S
C359 C369 1.510 . S
C360 C356 1.401 . S
C360 C359 1.396 . S
C361 C356 1.499 . S
C361 H362 0.959 . S
C361 H363 0.960 . S
C361 H364 0.961 . S
H362 C361 0.959 . S
H363 C361 0.960 . S
H364 C361 0.961 . S
O365 Co340 1.967 . S
O365 C373 1.258 . S
O366 Co341 1.941 . S
O366 C373 1.266 . S
H367 C369 0.959 . S
H368 C369 0.961 . S
C369 C359 1.510 . S
C369 H367 0.959 . S
C369 H368 0.961 . S
C369 H370 0.960 . S
H370 C369 0.960 . S
H371 N351 0.862 . S
O372 Co340 1.920 1_565 S
O372 C345 1.289 . S
C373 O365 1.258 . S
C373 O366 1.266 . S
Co374 O377 1.970 . S
Co374 N391 1.989 . S
Co374 O399 1.967 . S
Co374 O406 1.920 1_655 S
Co375 O378 1.966 . S
Co375 N384 2.022 . S
Co375 N392 1.993 . S
Co375 O400 1.941 . S
C376 O377 1.258 . S
C376 O378 1.263 . S
O377 Co374 1.970 . S
O377 C376 1.258 . S
O378 Co375 1.966 . S
O378 C376 1.263 . S
C379 O380 1.235 1_455 S
C379 O406 1.289 . S
O380 C379 1.235 1_655 S
C381 C383 1.400 . S
C381 N384 1.351 . S
C381 C386 1.501 . S
C382 C383 1.387 . S
C382 N385 1.341 . S
C383 C381 1.400 . S
C383 C382 1.387 . S
N384 Co375 2.022 . S
N384 C381 1.351 . S
N384 N385 1.365 . S
N385 C382 1.341 . S
N385 N384 1.365 . S
N385 H405 0.862 . S
C386 C381 1.501 . S
C386 H387 0.961 . S
C386 H388 0.961 . S
C386 H389 0.960 . S
H387 C386 0.961 . S
H388 C386 0.961 . S
H389 C386 0.960 . S
C390 N391 1.342 . S
C390 C394 1.401 . S
C390 C395 1.499 . S
N391 Co374 1.989 . S
N391 C390 1.342 . S
N391 N392 1.388 . S
N392 Co375 1.993 . S
N392 N391 1.388 . S
N392 C393 1.346 . S
C393 N392 1.346 . S
C393 C394 1.396 . S
C393 C403 1.510 . S
C394 C390 1.401 . S
C394 C393 1.396 . S
C395 C390 1.499 . S
C395 H396 0.959 . S
C395 H397 0.960 . S
C395 H398 0.961 . S
H396 C395 0.959 . S
H397 C395 0.960 . S
H398 C395 0.961 . S
O399 Co374 1.967 . S
O399 C407 1.258 . S
O400 Co375 1.941 . S
O400 C407 1.266 . S
H401 C403 0.959 1_565 S
H402 C403 0.961 . S
C403 C393 1.510 . S
C403 H401 0.959 1_545 S
C403 H402 0.961 . S
C403 H404 0.960 . S
H404 C403 0.960 . S
H405 N385 0.862 . S
O406 Co374 1.920 1_455 S
O406 C379 1.289 . S
C407 O399 1.258 . S
C407 O400 1.266 . S
C36 C9 3.015 . S
C43 C70 3.015 . S
C77 C2 3.015 . S
C111 C172 3.015 . S
C145 C104 3.015 . S
C138 C179 3.015 . S
C240 C213 3.015 . S
C274 C247 3.015 . S
C206 C281 3.015 . S
C315 C376 3.015 . S
C308 C349 3.015 . S
C383 C342 3.015 . S
C20 C243 1.683 1_554 S
C54 C277 1.683 1_554 S
C88 C209 1.683 1_554 S
C379 C122 1.683 . S
C156 C311 1.683 . S
C345 C190 1.683 . S
C39 C224 1.683 1_554 S
C73 C258 1.683 1_554 S
C292 C5 1.683 1_556 S
C175 C326 1.683 . S
C360 C107 1.683 . S
C394 C141 1.683 . S
C135 C33 2.954 . S
C67 C169 2.954 1_545 S
C101 C203 2.954 1_655 S
C339 C237 2.954 . S
C271 C373 2.954 1_565 S
C305 C407 2.954 1_455 S
