# Generated by pormake.
# Topology vbb, (4)-cn, num edge types: 1
# Building blocks:
#     Node 0, Type 0, BuildingBlock: MUDLON_clean_sbu_0, # of connection points: 4
#     Node 1, Type 0, BuildingBlock: MUDLON_clean_sbu_0, # of connection points: 4
#     Node 2, Type 0, BuildingBlock: MUDLON_clean_sbu_0, # of connection points: 4
#     Node 3, Type 0, BuildingBlock: MUDLON_clean_sbu_0, # of connection points: 4
#     Node 4, Type 0, BuildingBlock: MUDLON_clean_sbu_0, # of connection points: 4
#     Node 5, Type 0, BuildingBlock: MUDLON_clean_sbu_0, # of connection points: 4
#     Node 6, Type 0, BuildingBlock: MUDLON_clean_sbu_0, # of connection points: 4
#     Node 7, Type 0, BuildingBlock: MUDLON_clean_sbu_0, # of connection points: 4
#     Node 8, Type 0, BuildingBlock: MUDLON_clean_sbu_0, # of connection points: 4
#     Node 9, Type 0, BuildingBlock: MUDLON_clean_sbu_0, # of connection points: 4
#     Node 10, Type 0, BuildingBlock: MUDLON_clean_sbu_0, # of connection points: 4
#     Node 11, Type 0, BuildingBlock: MUDLON_clean_sbu_0, # of connection points: 4
#     Node 12, Type 0, BuildingBlock: MUDLON_clean_sbu_0, # of connection points: 4
#     Node 13, Type 0, BuildingBlock: MUDLON_clean_sbu_0, # of connection points: 4
#     Node 14, Type 0, BuildingBlock: MUDLON_clean_sbu_0, # of connection points: 4
#     Node 15, Type 0, BuildingBlock: MUDLON_clean_sbu_0, # of connection points: 4
#     Node 16, Type 0, BuildingBlock: MUDLON_clean_sbu_0, # of connection points: 4
#     Node 17, Type 0, BuildingBlock: MUDLON_clean_sbu_0, # of connection points: 4
#     Node 18, Type 0, BuildingBlock: MUDLON_clean_sbu_0, # of connection points: 4
#     Node 19, Type 0, BuildingBlock: MUDLON_clean_sbu_0, # of connection points: 4
#     Node 20, Type 0, BuildingBlock: MUDLON_clean_sbu_0, # of connection points: 4
#     Node 21, Type 0, BuildingBlock: MUDLON_clean_sbu_0, # of connection points: 4
#     Node 22, Type 0, BuildingBlock: MUDLON_clean_sbu_0, # of connection points: 4
#     Node 23, Type 0, BuildingBlock: MUDLON_clean_sbu_0, # of connection points: 4
#     Node 24, Type 0, BuildingBlock: MUDLON_clean_sbu_0, # of connection points: 4
#     Node 25, Type 0, BuildingBlock: MUDLON_clean_sbu_0, # of connection points: 4
#     Node 26, Type 0, BuildingBlock: MUDLON_clean_sbu_0, # of connection points: 4
#     Node 27, Type 0, BuildingBlock: MUDLON_clean_sbu_0, # of connection points: 4
#     Node 28, Type 0, BuildingBlock: MUDLON_clean_sbu_0, # of connection points: 4
#     Node 29, Type 0, BuildingBlock: MUDLON_clean_sbu_0, # of connection points: 4
#     Node 30, Type 0, BuildingBlock: MUDLON_clean_sbu_0, # of connection points: 4
#     Node 31, Type 0, BuildingBlock: MUDLON_clean_sbu_0, # of connection points: 4
#     Edge 32, Type (0, 0), BuildingBlock: OJICUG_clean_linker_0, # of connection points: 2
#     Edge 33, Type (0, 0), BuildingBlock: OJICUG_clean_linker_0, # of connection points: 2
#     Edge 34, Type (0, 0), BuildingBlock: OJICUG_clean_linker_0, # of connection points: 2
#     Edge 35, Type (0, 0), BuildingBlock: OJICUG_clean_linker_0, # of connection points: 2
#     Edge 36, Type (0, 0), BuildingBlock: OJICUG_clean_linker_0, # of connection points: 2
#     Edge 37, Type (0, 0), BuildingBlock: OJICUG_clean_linker_0, # of connection points: 2
#     Edge 38, Type (0, 0), BuildingBlock: OJICUG_clean_linker_0, # of connection points: 2
#     Edge 39, Type (0, 0), BuildingBlock: OJICUG_clean_linker_0, # of connection points: 2
#     Edge 40, Type (0, 0), BuildingBlock: OJICUG_clean_linker_0, # of connection points: 2
#     Edge 41, Type (0, 0), BuildingBlock: OJICUG_clean_linker_0, # of connection points: 2
#     Edge 42, Type (0, 0), BuildingBlock: OJICUG_clean_linker_0, # of connection points: 2
#     Edge 43, Type (0, 0), BuildingBlock: OJICUG_clean_linker_0, # of connection points: 2
#     Edge 44, Type (0, 0), BuildingBlock: OJICUG_clean_linker_0, # of connection points: 2
#     Edge 45, Type (0, 0), BuildingBlock: OJICUG_clean_linker_0, # of connection points: 2
#     Edge 46, Type (0, 0), BuildingBlock: OJICUG_clean_linker_0, # of connection points: 2
#     Edge 47, Type (0, 0), BuildingBlock: OJICUG_clean_linker_0, # of connection points: 2
#     Edge 48, Type (0, 0), BuildingBlock: OJICUG_clean_linker_0, # of connection points: 2
#     Edge 49, Type (0, 0), BuildingBlock: OJICUG_clean_linker_0, # of connection points: 2
#     Edge 50, Type (0, 0), BuildingBlock: OJICUG_clean_linker_0, # of connection points: 2
#     Edge 51, Type (0, 0), BuildingBlock: OJICUG_clean_linker_0, # of connection points: 2
#     Edge 52, Type (0, 0), BuildingBlock: OJICUG_clean_linker_0, # of connection points: 2
#     Edge 53, Type (0, 0), BuildingBlock: OJICUG_clean_linker_0, # of connection points: 2
#     Edge 54, Type (0, 0), BuildingBlock: OJICUG_clean_linker_0, # of connection points: 2
#     Edge 55, Type (0, 0), BuildingBlock: OJICUG_clean_linker_0, # of connection points: 2
#     Edge 56, Type (0, 0), BuildingBlock: OJICUG_clean_linker_0, # of connection points: 2
#     Edge 57, Type (0, 0), BuildingBlock: OJICUG_clean_linker_0, # of connection points: 2
#     Edge 58, Type (0, 0), BuildingBlock: OJICUG_clean_linker_0, # of connection points: 2
#     Edge 59, Type (0, 0), BuildingBlock: OJICUG_clean_linker_0, # of connection points: 2
#     Edge 60, Type (0, 0), BuildingBlock: OJICUG_clean_linker_0, # of connection points: 2
#     Edge 61, Type (0, 0), BuildingBlock: OJICUG_clean_linker_0, # of connection points: 2
#     Edge 62, Type (0, 0), BuildingBlock: OJICUG_clean_linker_0, # of connection points: 2
#     Edge 63, Type (0, 0), BuildingBlock: OJICUG_clean_linker_0, # of connection points: 2
#     Edge 64, Type (0, 0), BuildingBlock: OJICUG_clean_linker_0, # of connection points: 2
#     Edge 65, Type (0, 0), BuildingBlock: OJICUG_clean_linker_0, # of connection points: 2
#     Edge 66, Type (0, 0), BuildingBlock: OJICUG_clean_linker_0, # of connection points: 2
#     Edge 67, Type (0, 0), BuildingBlock: OJICUG_clean_linker_0, # of connection points: 2
#     Edge 68, Type (0, 0), BuildingBlock: OJICUG_clean_linker_0, # of connection points: 2
#     Edge 69, Type (0, 0), BuildingBlock: OJICUG_clean_linker_0, # of connection points: 2
#     Edge 70, Type (0, 0), BuildingBlock: OJICUG_clean_linker_0, # of connection points: 2
#     Edge 71, Type (0, 0), BuildingBlock: OJICUG_clean_linker_0, # of connection points: 2
#     Edge 72, Type (0, 0), BuildingBlock: OJICUG_clean_linker_0, # of connection points: 2
#     Edge 73, Type (0, 0), BuildingBlock: OJICUG_clean_linker_0, # of connection points: 2
#     Edge 74, Type (0, 0), BuildingBlock: OJICUG_clean_linker_0, # of connection points: 2
#     Edge 75, Type (0, 0), BuildingBlock: OJICUG_clean_linker_0, # of connection points: 2
#     Edge 76, Type (0, 0), BuildingBlock: OJICUG_clean_linker_0, # of connection points: 2
#     Edge 77, Type (0, 0), BuildingBlock: OJICUG_clean_linker_0, # of connection points: 2
#     Edge 78, Type (0, 0), BuildingBlock: OJICUG_clean_linker_0, # of connection points: 2
#     Edge 79, Type (0, 0), BuildingBlock: OJICUG_clean_linker_0, # of connection points: 2
#     Edge 80, Type (0, 0), BuildingBlock: OJICUG_clean_linker_0, # of connection points: 2
#     Edge 81, Type (0, 0), BuildingBlock: OJICUG_clean_linker_0, # of connection points: 2
#     Edge 82, Type (0, 0), BuildingBlock: OJICUG_clean_linker_0, # of connection points: 2
#     Edge 83, Type (0, 0), BuildingBlock: OJICUG_clean_linker_0, # of connection points: 2
#     Edge 84, Type (0, 0), BuildingBlock: OJICUG_clean_linker_0, # of connection points: 2
#     Edge 85, Type (0, 0), BuildingBlock: OJICUG_clean_linker_0, # of connection points: 2
#     Edge 86, Type (0, 0), BuildingBlock: OJICUG_clean_linker_0, # of connection points: 2
#     Edge 87, Type (0, 0), BuildingBlock: OJICUG_clean_linker_0, # of connection points: 2
#     Edge 88, Type (0, 0), BuildingBlock: OJICUG_clean_linker_0, # of connection points: 2
#     Edge 89, Type (0, 0), BuildingBlock: OJICUG_clean_linker_0, # of connection points: 2
#     Edge 90, Type (0, 0), BuildingBlock: OJICUG_clean_linker_0, # of connection points: 2
#     Edge 91, Type (0, 0), BuildingBlock: OJICUG_clean_linker_0, # of connection points: 2
#     Edge 92, Type (0, 0), BuildingBlock: OJICUG_clean_linker_0, # of connection points: 2
#     Edge 93, Type (0, 0), BuildingBlock: OJICUG_clean_linker_0, # of connection points: 2
#     Edge 94, Type (0, 0), BuildingBlock: OJICUG_clean_linker_0, # of connection points: 2
#     Edge 95, Type (0, 0), BuildingBlock: OJICUG_clean_linker_0, # of connection points: 2
# Relax obj value: 0.000
# Max RMSD: 0.064
# Mean RMSD: 0.061
data_MOF--net-vbb--node1-MUDLON_clean_sbu_0--edge1-OJICUG_clean_linker_0
_symmetry_space_group_name_H-M    P1
_symmetry_Int_Tables_number       1
_symmetry_cell_setting            triclinic
loop_
_symmetry_equiv_pos_as_xyz
'x, y, z'
_cell_length_a     43.839553
_cell_length_b     11.619601
_cell_length_c     89.820986
_cell_angle_alpha  90.013754
_cell_angle_beta   89.937832
_cell_angle_gamma 90.000857
loop_
_atom_site_label
_atom_site_type_symbol
_atom_site_fract_x
_atom_site_fract_y
_atom_site_fract_z
_atom_type_partial_charge
Mg0 Mg 0.50966 0.03218 0.07586 0.0
C1 C 0.51313 0.99735 0.04487 0.0
O2 O 0.51999 0.90086 0.05173 0.0
C3 C 0.50096 0.05727 0.10673 0.0
O4 O 0.50573 0.94817 0.10364 0.0
C5 C 0.44762 0.97305 0.07609 0.0
O6 O 0.45042 0.08532 0.07493 0.0
O7 O 0.47183 0.91229 0.07678 0.0
O8 O 0.50677 0.08553 0.05277 0.0
O9 O 0.5582 0.00069 0.07824 0.0
C10 C 0.57139 0.09863 0.07824 0.0
O11 O 0.55439 0.19139 0.07712 0.0
O12 O 0.50064 0.12933 0.09601 0.0
Mg13 Mg 0.7644 0.21811 0.07576 0.0
C14 C 0.76103 0.25209 0.04476 0.0
O15 O 0.75406 0.3487 0.05157 0.0
C16 C 0.77297 0.19332 0.10665 0.0
O17 O 0.7682 0.30239 0.10355 0.0
C18 C 0.82643 0.2775 0.07602 0.0
O19 O 0.82367 0.16518 0.0749 0.0
O20 O 0.80219 0.33817 0.07666 0.0
O21 O 0.76741 0.16421 0.05269 0.0
O22 O 0.71585 0.24959 0.07814 0.0
C23 C 0.70266 0.15164 0.07821 0.0
O24 O 0.71966 0.05884 0.07714 0.0
O25 O 0.77335 0.12121 0.09593 0.0
Mg26 Mg 0.50944 0.21758 0.19943 0.0
C27 C 0.51284 0.25203 0.23043 0.0
O28 O 0.5198 0.34856 0.2236 0.0
C29 C 0.50083 0.19248 0.16856 0.0
O30 O 0.50561 0.30156 0.17165 0.0
C31 C 0.44741 0.27705 0.19924 0.0
O32 O 0.45016 0.1648 0.20046 0.0
O33 O 0.47165 0.33764 0.1985 0.0
O34 O 0.50645 0.16404 0.22251 0.0
O35 O 0.55797 0.24917 0.19702 0.0
C36 C 0.5712 0.15128 0.19694 0.0
O37 O 0.55422 0.0584 0.19802 0.0
O38 O 0.50046 0.12043 0.17928 0.0
Mg39 Mg 0.76423 0.0329 0.19932 0.0
C40 C 0.76064 -0.00218 0.2303 0.0
O41 O 0.75378 0.9014 0.22342 0.0
C42 C 0.7729 0.05823 0.16847 0.0
O43 O 0.76816 0.94911 0.17155 0.0
C44 C 0.8263 0.97408 0.1991 0.0
O45 O 0.82347 0.08631 0.20032 0.0
O46 O 0.80211 0.91324 0.19838 0.0
O47 O 0.76705 0.08603 0.22243 0.0
O48 O 0.71571 0.00111 0.19692 0.0
C49 C 0.70248 0.09898 0.19691 0.0
O50 O 0.71944 0.19184 0.19805 0.0
O51 O 0.77322 0.13027 0.1792 0.0
Mg52 Mg 0.51471 0.96627 0.94943 0.0
C53 C 0.45296 0.9003 0.94702 0.0
O54 O 0.46991 0.80743 0.94817 0.0
C55 C 0.5768 0.02509 0.94916 0.0
O56 O 0.57398 0.91284 0.95035 0.0
C57 C 0.52335 0.9406 0.91856 0.0
O58 O 0.51866 0.04979 0.92163 0.0
O59 O 0.52366 0.86871 0.92931 0.0
O60 O 0.46621 -0.00185 0.94702 0.0
O61 O 0.51755 0.91311 0.97253 0.0
C62 C 0.5112 0.00133 0.98042 0.0
O63 O 0.50438 0.09783 0.97356 0.0
O64 O 0.5526 0.08591 0.94848 0.0
Mg65 Mg 0.25991 0.78185 0.9493 0.0
C66 C 0.32167 0.84812 0.94685 0.0
O67 O 0.3047 0.94102 0.94791 0.0
C68 C 0.19788 0.72246 0.94909 0.0
O69 O 0.20064 0.83473 0.95028 0.0
C70 C 0.25131 0.80669 0.91843 0.0
O71 O 0.25614 0.69766 0.92153 0.0
O72 O 0.25092 0.87883 0.92915 0.0
O73 O 0.30844 0.75024 0.94692 0.0
O74 O 0.25691 0.83541 0.97239 0.0
C75 C 0.26329 0.7474 0.9803 0.0
O76 O 0.27024 0.65088 0.97346 0.0
O77 O 0.22211 0.66181 0.94838 0.0
Mg78 Mg 0.51434 0.77888 0.82592 0.0
C79 C 0.45262 0.84571 0.82835 0.0
O80 O 0.46966 0.9384 0.82725 0.0
C81 C 0.57635 0.71948 0.82611 0.0
O82 O 0.57357 0.83173 0.8249 0.0
C83 C 0.52302 0.8044 0.85678 0.0
O84 O 0.5182 0.69529 0.85372 0.0
O85 O 0.52338 0.87628 0.84603 0.0
O86 O 0.46578 0.7477 0.82832 0.0
O87 O 0.5173 0.83186 0.80281 0.0
C88 C 0.51087 0.74365 0.79494 0.0
O89 O 0.50391 0.64735 0.80183 0.0
O90 O 0.55212 0.65881 0.82684 0.0
Mg91 Mg 0.25967 0.96587 0.82571 0.0
C92 C 0.32137 0.8993 0.82813 0.0
O93 O 0.30435 0.80658 0.82703 0.0
C94 C 0.19763 0.02516 0.82594 0.0
O95 O 0.20041 0.91286 0.8248 0.0
C96 C 0.25099 0.94125 0.85659 0.0
O97 O 0.25571 0.05033 0.85348 0.0
O98 O 0.25067 0.86906 0.84588 0.0
O99 O 0.30821 0.99729 0.82809 0.0
O100 O 0.25673 0.91187 0.80264 0.0
C101 C 0.2631 -0.0003 0.79468 0.0
O102 O 0.27003 0.09641 0.80148 0.0
O103 O 0.22186 0.08587 0.8266 0.0
Mg104 Mg 0.50891 0.52834 0.5759 0.0
C105 C 0.51239 0.49479 0.5449 0.0
O106 O 0.51941 0.3982 0.5517 0.0
C107 C 0.50024 0.55242 0.60681 0.0
O108 O 0.505 0.4434 0.60367 0.0
C109 C 0.44692 0.4682 0.57613 0.0
O110 O 0.44958 0.58058 0.57507 0.0
O111 O 0.47121 0.40784 0.57675 0.0
O112 O 0.50592 0.58256 0.55285 0.0
O113 O 0.55747 0.49716 0.57823 0.0
C114 C 0.57063 0.59517 0.57834 0.0
O115 O 0.55359 0.68792 0.57734 0.0
O116 O 0.49988 0.62474 0.59611 0.0
Mg117 Mg 0.76359 0.71524 0.57573 0.0
C118 C 0.76016 0.7506 0.54474 0.0
O119 O 0.75328 0.84702 0.55163 0.0
C120 C 0.77223 0.68938 0.60658 0.0
O121 O 0.76743 0.79852 0.60354 0.0
C122 C 0.82565 0.77375 0.57596 0.0
O123 O 0.82275 0.66157 0.5747 0.0
O124 O 0.80149 0.83479 0.5767 0.0
O125 O 0.7665 0.66235 0.55262 0.0
O126 O 0.71506 0.74671 0.57818 0.0
C127 C 0.70188 0.64873 0.57814 0.0
O128 O 0.7189 0.55606 0.57694 0.0
O129 O 0.77258 0.61755 0.59583 0.0
Mg130 Mg 0.50942 0.71152 0.69951 0.0
C131 C 0.51298 0.74665 0.73049 0.0
O132 O 0.51992 0.84298 0.7236 0.0
C133 C 0.50069 0.68652 0.66867 0.0
O134 O 0.50554 0.79554 0.67177 0.0
C135 C 0.44738 0.7708 0.69934 0.0
O136 O 0.45016 0.65857 0.70058 0.0
O137 O 0.47161 0.83147 0.6986 0.0
O138 O 0.50655 0.65845 0.72262 0.0
O139 O 0.55794 0.74317 0.69706 0.0
C140 C 0.57118 0.64532 0.69699 0.0
O141 O 0.55423 0.55241 0.69809 0.0
O142 O 0.50035 0.61435 0.67938 0.0
Mg143 Mg 0.76425 0.5276 0.69925 0.0
C144 C 0.7609 0.49313 0.73025 0.0
O145 O 0.75407 0.39646 0.72342 0.0
C146 C 0.77273 0.55306 0.66836 0.0
O147 O 0.76808 0.44387 0.67143 0.0
C148 C 0.82634 0.46875 0.69891 0.0
O149 O 0.82354 0.58104 0.70004 0.0
O150 O 0.80213 0.40794 0.69828 0.0
O151 O 0.76719 0.58121 0.72233 0.0
O152 O 0.71573 0.49559 0.69691 0.0
C153 C 0.70248 0.59341 0.69691 0.0
O154 O 0.71942 0.68633 0.69802 0.0
O155 O 0.77309 0.62497 0.6791 0.0
Mg156 Mg 0.51372 0.46648 0.44944 0.0
C157 C 0.45208 0.39915 0.44696 0.0
O158 O 0.46917 0.30663 0.44808 0.0
C159 C 0.57571 0.52617 0.44929 0.0
O160 O 0.57295 0.41394 0.45053 0.0
C161 C 0.52254 0.44151 0.41857 0.0
O162 O 0.5177 0.55056 0.42166 0.0
O163 O 0.52289 0.36944 0.42929 0.0
O164 O 0.46517 0.4973 0.44701 0.0
O165 O 0.51663 0.41283 0.47252 0.0
C166 C 0.51016 0.50067 0.48045 0.0
O167 O 0.50316 0.59721 0.47364 0.0
O168 O 0.55147 0.58675 0.44853 0.0
Mg169 Mg 0.25921 0.27679 0.4492 0.0
C170 C 0.32088 0.34413 0.44675 0.0
O171 O 0.30377 0.43666 0.44786 0.0
C172 C 0.19723 0.2173 0.44901 0.0
O173 O 0.20001 0.32953 0.45026 0.0
C174 C 0.25049 0.30256 0.41834 0.0
O175 O 0.25535 0.19343 0.42137 0.0
O176 O 0.25012 0.37431 0.4291 0.0
O177 O 0.30778 0.24599 0.44678 0.0
O178 O 0.25624 0.3297 0.47231 0.0
C179 C 0.2627 0.24155 0.48018 0.0
O180 O 0.2697 0.14527 0.47329 0.0
O181 O 0.22145 0.15662 0.44825 0.0
Mg182 Mg 0.51388 0.28137 0.32588 0.0
C183 C 0.45212 0.34758 0.32838 0.0
O184 O 0.46908 0.4405 0.32734 0.0
C185 C 0.57591 0.22204 0.32604 0.0
O186 O 0.57314 0.3343 0.32485 0.0
C187 C 0.52259 0.30635 0.35675 0.0
O188 O 0.51784 0.19725 0.35366 0.0
O189 O 0.5229 0.37843 0.34603 0.0
O190 O 0.46535 0.24971 0.32828 0.0
O191 O 0.51684 0.33503 0.3028 0.0
C192 C 0.51044 0.24705 0.29488 0.0
O193 O 0.50349 0.15051 0.30171 0.0
O194 O 0.55169 0.16137 0.32677 0.0
Mg195 Mg 0.25908 0.46583 0.32574 0.0
C196 C 0.32083 0.39973 0.32821 0.0
O197 O 0.30388 0.30687 0.32703 0.0
C198 C 0.19702 0.5248 0.32591 0.0
O199 O 0.19983 0.4126 0.32464 0.0
C200 C 0.25026 0.43968 0.35659 0.0
O201 O 0.25494 0.54893 0.35357 0.0
O202 O 0.25002 0.36797 0.34583 0.0
O203 O 0.30759 0.49759 0.32821 0.0
O204 O 0.25633 0.41303 0.30262 0.0
C205 C 0.26274 0.5013 0.29476 0.0
O206 O 0.26961 0.59765 0.30165 0.0
O207 O 0.22122 0.58555 0.3267 0.0
Mg208 Mg 1.00916 0.02606 0.57579 0.0
C209 C 0.01256 0.99155 0.54479 0.0
O210 O 0.01931 0.89483 0.55162 0.0
C211 C 1.00059 0.05152 0.60667 0.0
O212 O 1.00518 0.94229 0.60359 0.0
C213 C 0.94703 0.96802 0.57608 0.0
O214 O 0.94995 0.08026 0.57494 0.0
O215 O 0.97118 0.90686 0.57673 0.0
O216 O 1.00631 0.07969 0.55271 0.0
O217 O 0.05766 0.99377 0.57815 0.0
C218 C 0.07094 0.09157 0.57816 0.0
O219 O 0.05401 0.18452 0.57704 0.0
O220 O 1.00033 0.12347 0.59594 0.0
Mg221 Mg 0.26401 0.20979 0.57561 0.0
C222 C 0.26048 0.24479 0.54463 0.0
O223 O 0.25349 0.34109 0.55152 0.0
C224 C 0.27269 0.18484 0.60647 0.0
O225 O 0.2678 0.29384 0.60337 0.0
C226 C 0.326 0.2699 0.5758 0.0
O227 O 0.32334 0.15763 0.57454 0.0
O228 O 0.30172 0.3302 0.57655 0.0
O229 O 0.26695 0.15668 0.55251 0.0
O230 O 0.21547 0.24123 0.57805 0.0
C231 C 0.20224 0.14336 0.57812 0.0
O232 O 0.2192 0.05045 0.57703 0.0
O233 O 0.27309 0.1127 0.59575 0.0
Mg234 Mg 1.00954 0.21338 0.69931 0.0
C235 C 0.01296 0.24882 0.73029 0.0
O236 O 0.01989 0.34515 0.7234 0.0
C237 C 1.001 0.1876 0.66846 0.0
O238 O 1.00588 0.29668 0.67152 0.0
C239 C 0.94751 0.27264 0.69905 0.0
O240 O 0.9503 0.16042 0.70029 0.0
O241 O 0.97174 0.33335 0.69833 0.0
O242 O 1.00657 0.16056 0.72242 0.0
O243 O 0.05809 0.2446 0.69688 0.0
C244 C 0.07125 0.1466 0.69695 0.0
O245 O 0.05422 0.05397 0.69818 0.0
O246 O 1.00055 0.11575 0.67921 0.0
Mg247 Mg 0.26423 0.02659 0.69922 0.0
C248 C 0.26079 0.99315 0.73024 0.0
O249 O 0.25385 0.89642 0.72345 0.0
C250 C 0.27297 0.05067 0.66832 0.0
O251 O 0.26826 0.94161 0.67145 0.0
C252 C 0.32625 0.96723 0.69905 0.0
O253 O 0.32347 0.07956 0.70014 0.0
O254 O 0.30202 0.90652 0.69839 0.0
O255 O 0.26717 0.08094 0.72228 0.0
O256 O 0.21568 0.99512 0.69689 0.0
C257 C 0.20251 0.0931 0.69674 0.0
O258 O 0.21953 0.18591 0.69771 0.0
O259 O 0.27326 0.12299 0.67902 0.0
Mg260 Mg 0.01393 0.96262 0.44934 0.0
C261 C 0.9521 0.89739 0.44698 0.0
O262 O 0.96897 0.80427 0.44809 0.0
C263 C 0.07604 0.02127 0.44903 0.0
O264 O 0.07323 0.90898 0.45014 0.0
C265 C 0.02243 0.93794 0.41846 0.0
O266 O 0.01777 0.04703 0.4216 0.0
O267 O 0.02276 0.86565 0.42916 0.0
O268 O 0.96543 0.99506 0.447 0.0
O269 O 0.01683 0.9088 0.47241 0.0
C270 C 1.01057 0.99692 0.48034 0.0
O271 O 1.0038 0.09364 0.47352 0.0
O272 O 0.05184 0.08213 0.44841 0.0
Mg273 Mg 0.75893 0.78166 0.44932 0.0
C274 C 0.82076 0.84706 0.44689 0.0
O275 O 0.80388 0.94019 0.44796 0.0
C276 C 0.69683 0.72271 0.44905 0.0
O277 O 0.69961 0.83504 0.45014 0.0
C278 C 0.75042 0.80656 0.41844 0.0
O279 O 0.75512 0.69746 0.42154 0.0
O280 O 0.75007 0.87871 0.42916 0.0
O281 O 0.80743 0.74937 0.44694 0.0
O282 O 0.75599 0.83515 0.47241 0.0
C283 C 0.76234 0.74697 0.4803 0.0
O284 O 0.76922 0.65049 0.47342 0.0
O285 O 0.72106 0.66196 0.44841 0.0
Mg286 Mg 0.0138 0.78011 0.32569 0.0
C287 C 0.95207 0.84653 0.3281 0.0
O288 O 0.96908 0.93933 0.32706 0.0
C289 C 0.07584 0.72089 0.32598 0.0
O290 O 0.07306 0.83322 0.3249 0.0
C291 C 0.02224 0.80429 0.35658 0.0
O292 O 0.01741 0.69533 0.35344 0.0
O293 O 0.0227 0.87663 0.34589 0.0
O294 O 0.96525 0.74858 0.32802 0.0
O295 O 0.01687 0.83431 0.30263 0.0
C296 C 1.01052 0.7465 0.29467 0.0
O297 O 1.00356 0.64979 0.30147 0.0
O298 O 0.05161 0.66013 0.32658 0.0
Mg299 Mg 0.75908 0.96627 0.32573 0.0
C300 C 0.8208 0.89973 0.32807 0.0
O301 O 0.80379 0.807 0.32692 0.0
C302 C 0.69704 0.02554 0.32604 0.0
O303 O 0.69981 0.91325 0.32488 0.0
C304 C 0.75052 0.94126 0.3566 0.0
O305 O 0.75532 0.05031 0.3535 0.0
O306 O 0.75011 0.86914 0.34588 0.0
O307 O 0.80762 0.99769 0.32809 0.0
O308 O 0.75615 0.91308 0.30263 0.0
C309 C 0.76254 0.00129 0.29475 0.0
O310 O 0.76944 0.09768 0.30163 0.0
O311 O 0.72127 0.08623 0.32669 0.0
Mg312 Mg 1.00961 0.53325 0.07566 0.0
C313 C 0.01319 0.4981 0.04468 0.0
O314 O 0.02007 0.4017 0.05156 0.0
C315 C 1.0009 0.55883 0.10652 0.0
O316 O 1.00565 0.44969 0.10345 0.0
C317 C 0.94755 0.47405 0.07587 0.0
O318 O 0.95033 0.58628 0.07463 0.0
O319 O 0.97177 0.41339 0.07661 0.0
O320 O 1.00678 0.5863 0.05256 0.0
O321 O 0.05812 0.50156 0.07809 0.0
C322 C 0.07135 0.59944 0.07809 0.0
O323 O 0.05439 0.69228 0.07694 0.0
O324 O 1.00058 0.63077 0.09578 0.0
Mg325 Mg 0.2644 0.71788 0.07575 0.0
C326 C 0.26099 0.75229 0.04475 0.0
O327 O 0.25406 0.84883 0.05159 0.0
C328 C 0.27296 0.69302 0.10663 0.0
O329 O 0.2682 0.80209 0.10353 0.0
C330 C 0.32644 0.77697 0.07598 0.0
O331 O 0.32365 0.66471 0.07479 0.0
O332 O 0.30223 0.83773 0.07667 0.0
O333 O 0.26737 0.66428 0.05266 0.0
O334 O 0.21586 0.7496 0.07814 0.0
C335 C 0.20263 0.65173 0.07821 0.0
O336 O 0.21961 0.55883 0.07715 0.0
O337 O 0.27333 0.62088 0.09591 0.0
Mg338 Mg 1.00956 0.71932 0.19921 0.0
C339 C 0.01291 0.75311 0.23023 0.0
O340 O 0.01985 0.84982 0.22344 0.0
C341 C 1.00098 0.69443 0.16833 0.0
O342 O 1.00574 0.80352 0.17142 0.0
C343 C 0.94752 0.77838 0.19899 0.0
O344 O 0.95033 0.66609 0.20011 0.0
O345 O 0.97173 0.8392 0.19833 0.0
O346 O 1.00655 0.66528 0.22228 0.0
O347 O 0.05811 0.75091 0.19686 0.0
C348 C 0.07131 0.65297 0.19679 0.0
O349 O 0.0543 0.56015 0.19783 0.0
O350 O 1.00062 0.62237 0.17905 0.0
Mg351 Mg 0.26429 0.53334 0.19933 0.0
C352 C 0.26077 0.49828 0.23031 0.0
O353 O 0.25386 0.40194 0.22342 0.0
C354 C 0.27296 0.55832 0.16846 0.0
O355 O 0.26817 0.44926 0.17156 0.0
C356 C 0.32633 0.4739 0.19905 0.0
O357 O 0.32358 0.58622 0.20018 0.0
O358 O 0.30209 0.41328 0.1984 0.0
O359 O 0.26719 0.5865 0.22243 0.0
O360 O 0.21576 0.50196 0.19693 0.0
C361 C 0.20257 0.59992 0.19694 0.0
O362 O 0.21958 0.69266 0.19809 0.0
O363 O 0.27332 0.63044 0.17918 0.0
Mg364 Mg 0.01472 0.46656 0.94925 0.0
C365 C 0.95301 0.4 0.94687 0.0
O366 O 0.97002 0.30728 0.94801 0.0
C367 C 0.07676 0.52586 0.94898 0.0
O368 O 0.074 0.41357 0.95014 0.0
C369 C 0.02334 0.44134 0.91838 0.0
O370 O 0.01858 0.55045 0.92147 0.0
O371 O 0.02371 0.36932 0.92911 0.0
O372 O 0.96619 0.49797 0.94687 0.0
O373 O 0.01763 0.41336 0.97235 0.0
C374 C 1.01123 0.50156 0.98023 0.0
O375 O 1.00433 0.59795 0.97336 0.0
O376 O 0.05253 0.58653 0.94831 0.0
Mg377 Mg 0.76002 0.28021 0.9493 0.0
C378 C 0.82175 0.34674 0.94684 0.0
O379 O 0.80473 0.43952 0.94789 0.0
C380 C 0.69799 0.22099 0.94912 0.0
O381 O 0.7008 0.33326 0.95029 0.0
C382 C 0.75138 0.3048 0.91843 0.0
O383 O 0.7562 0.19578 0.92153 0.0
O384 O 0.75101 0.377 0.92914 0.0
O385 O 0.80856 0.24877 0.94691 0.0
O386 O 0.75704 0.33412 0.97238 0.0
C387 C 0.76343 0.24625 0.98031 0.0
O388 O 0.7704 0.14964 0.97349 0.0
O389 O 0.72221 0.16022 0.94842 0.0
Mg390 Mg 0.01443 0.28061 0.82571 0.0
C391 C 0.95265 0.34665 0.82819 0.0
O392 O 0.9696 0.43959 0.8271 0.0
C393 C 0.07649 0.22147 0.82589 0.0
O394 O 0.0737 0.33372 0.82469 0.0
C395 C 0.02311 0.30592 0.85657 0.0
O396 O 0.01834 0.19681 0.85349 0.0
O397 O 0.02344 0.37793 0.84584 0.0
O398 O 0.96591 0.24882 0.82814 0.0
O399 O 0.01731 0.3338 0.80261 0.0
C400 C 1.0109 0.2456 0.79474 0.0
O401 O 1.00399 0.14923 0.80162 0.0
O402 O 0.05227 0.16076 0.82662 0.0
Mg403 Mg 0.75958 0.46418 0.8257 0.0
C404 C 0.82135 0.39837 0.82809 0.0
O405 O 0.80442 0.30542 0.82698 0.0
C406 C 0.6975 0.52316 0.82602 0.0
O407 O 0.70029 0.41088 0.82487 0.0
C408 C 0.75104 0.43928 0.85658 0.0
O409 O 0.75574 0.54838 0.85347 0.0
O410 O 0.75069 0.36712 0.84587 0.0
O411 O 0.80809 0.49618 0.82807 0.0
O412 O 0.75666 0.41049 0.80262 0.0
C413 C 0.76297 0.49854 0.7947 0.0
O414 O 0.7698 0.59522 0.80153 0.0
O415 O 0.72172 0.58392 0.82665 0.0
C416 C 0.49759 0.0087 0.1338 0.0
C417 C 0.49815 0.09279 0.12248 0.0
H418 H 0.49784 0.97379 0.15723 0.0
C419 C 0.49756 0.2093 0.12649 0.0
H420 H 0.49783 0.91787 0.13109 0.0
C421 C 0.49756 0.24103 0.1415 0.0
C422 C 0.49809 0.15695 0.15281 0.0
H423 H 0.4979 0.27595 0.11806 0.0
H424 H 0.49777 0.33186 0.14421 0.0
C425 C 0.49753 0.04044 0.1488 0.0
C426 C 0.77621 0.21027 0.14872 0.0
C427 C 0.77569 0.09377 0.15272 0.0
H428 H 0.77593 0.33281 0.131 0.0
C429 C 0.7763 0.00967 0.1414 0.0
H430 H 0.77584 0.27693 0.15715 0.0
C431 C 0.77634 0.04138 0.1264 0.0
C432 C 0.77572 0.15787 0.1224 0.0
H433 H 0.77612 0.91884 0.14411 0.0
H434 H 0.77607 0.97471 0.11797 0.0
C435 C 0.7762 0.24198 0.13371 0.0
C436 C 0.52655 0.95671 0.87649 0.0
C437 C 0.52587 0.84014 0.87251 0.0
H438 H 0.52647 0.07956 0.89417 0.0
C439 C 0.52639 0.75624 0.88385 0.0
H440 H 0.52625 0.02322 0.86804 0.0
C441 C 0.52651 0.78821 0.89885 0.0
C442 C 0.52604 0.90479 0.90282 0.0
H443 H 0.52609 0.66537 0.88116 0.0
H444 H 0.52617 0.7217 0.90729 0.0
C445 C 0.52661 0.98869 0.89148 0.0
C446 C 0.24783 0.7894 0.87637 0.0
C447 C 0.24829 0.90587 0.87235 0.0
H448 H 0.24826 0.66702 0.8941 0.0
C449 C 0.24772 0.99007 0.88365 0.0
H450 H 0.24818 0.72266 0.86795 0.0
C451 C 0.24778 0.95849 0.89866 0.0
C452 C 0.24847 0.84203 0.90268 0.0
H453 H 0.24786 0.08087 0.88093 0.0
H454 H 0.24807 0.02523 0.90708 0.0
C455 C 0.24795 0.75782 0.89138 0.0
C456 C 0.49702 0.70406 0.62661 0.0
C457 C 0.49756 0.58762 0.62257 0.0
H458 H 0.49741 0.8263 0.64436 0.0
C459 C 0.49709 0.50333 0.63386 0.0
H460 H 0.49728 0.77086 0.61821 0.0
C461 C 0.49718 0.5348 0.64888 0.0
C462 C 0.49779 0.65124 0.65291 0.0
H463 H 0.49729 0.41255 0.63112 0.0
H464 H 0.49756 0.468 0.65728 0.0
C465 C 0.49716 0.73552 0.64163 0.0
C466 C 0.77583 0.70545 0.64865 0.0
C467 C 0.77536 0.58886 0.65261 0.0
H468 H 0.77539 0.82833 0.63098 0.0
C469 C 0.77585 0.50499 0.64127 0.0
H470 H 0.77555 0.77195 0.6571 0.0
C471 C 0.77575 0.53699 0.62627 0.0
C472 C 0.77509 0.65357 0.62231 0.0
H473 H 0.77569 0.41411 0.64395 0.0
H474 H 0.7754 0.4705 0.61782 0.0
C475 C 0.77568 0.73745 0.63365 0.0
C476 C 0.52597 0.2895 0.39882 0.0
C477 C 0.52536 0.40601 0.40282 0.0
H478 H 0.52576 0.16695 0.3811 0.0
C479 C 0.52589 0.4901 0.39151 0.0
H480 H 0.52567 0.22285 0.40724 0.0
C481 C 0.52592 0.45838 0.3765 0.0
C482 C 0.52538 0.34187 0.3725 0.0
H483 H 0.52563 0.58093 0.39422 0.0
H484 H 0.52558 0.52503 0.36808 0.0
C485 C 0.52596 0.25778 0.38381 0.0
C486 C 0.24685 0.48732 0.38368 0.0
C487 C 0.24751 0.4036 0.37232 0.0
H488 H 0.24713 0.52151 0.40714 0.0
C489 C 0.24711 0.28696 0.37626 0.0
H490 H 0.24694 0.57823 0.38103 0.0
C491 C 0.24721 0.25476 0.39125 0.0
C492 C 0.24765 0.3385 0.40261 0.0
H493 H 0.24752 0.22058 0.36779 0.0
H494 H 0.24757 0.16385 0.3939 0.0
C495 C 0.2469 0.45512 0.39867 0.0
C496 C 0.99756 0.20387 0.62639 0.0
C497 C 0.99794 0.0873 0.62242 0.0
H498 H 0.99806 0.32668 0.64408 0.0
C499 C 0.99731 0.00338 0.63375 0.0
H500 H 0.99795 0.27039 0.61795 0.0
C501 C 0.99739 0.03533 0.64875 0.0
C502 C 0.99815 0.15189 0.65272 0.0
H503 H 0.99739 0.91251 0.63106 0.0
H504 H 0.99764 0.9688 0.65719 0.0
C505 C 0.9977 0.23582 0.64139 0.0
C506 C 0.27619 0.03311 0.62625 0.0
C507 C 0.27555 0.14955 0.62222 0.0
H508 H 0.27605 0.91084 0.644 0.0
C509 C 0.27611 0.23382 0.63351 0.0
H510 H 0.27586 0.96632 0.61784 0.0
C511 C 0.27621 0.20234 0.64853 0.0
C512 C 0.27569 0.0859 0.65256 0.0
H513 H 0.27584 0.32461 0.63078 0.0
H514 H 0.27589 0.26914 0.65694 0.0
C515 C 0.27623 0.00162 0.64126 0.0
C516 C 0.02543 0.75496 0.38362 0.0
C517 C 0.02501 0.83934 0.37235 0.0
H518 H 0.02509 0.71947 0.40704 0.0
C519 C 0.02575 0.95574 0.3764 0.0
H520 H 0.02507 0.66421 0.38087 0.0
C521 C 0.02578 0.98709 0.39142 0.0
C522 C 0.02512 0.90274 0.40269 0.0
H523 H 0.02554 0.0226 0.368 0.0
H524 H 0.0257 0.07786 0.39417 0.0
C525 C 0.02551 0.78632 0.39864 0.0
C526 C 0.74714 0.75778 0.39138 0.0
C527 C 0.7477 0.84196 0.40269 0.0
H528 H 0.74744 0.72267 0.36795 0.0
C529 C 0.74717 0.95844 0.39867 0.0
H530 H 0.74733 0.66698 0.3941 0.0
C531 C 0.74722 0.99004 0.38366 0.0
C532 C 0.74774 0.90587 0.37236 0.0
H533 H 0.74749 0.02516 0.4071 0.0
H534 H 0.74746 0.08085 0.38095 0.0
C535 C 0.74713 0.78939 0.37637 0.0
C536 C 0.99774 0.7429 0.14126 0.0
C537 C 0.9982 0.65888 0.15258 0.0
H538 H 0.99807 0.77765 0.11782 0.0
C539 C 0.99752 0.54235 0.14859 0.0
H540 H 0.99805 0.83374 0.14396 0.0
C541 C 0.99752 0.51052 0.13359 0.0
C542 C 0.99815 0.59452 0.12227 0.0
H543 H 0.99778 0.47575 0.15702 0.0
H544 H 0.99766 0.41967 0.13089 0.0
C545 C 0.99768 0.71107 0.12626 0.0
C546 C 0.27629 0.50955 0.1414 0.0
C547 C 0.27573 0.59373 0.15271 0.0
H548 H 0.27601 0.47444 0.11797 0.0
C549 C 0.27629 0.7102 0.14869 0.0
H550 H 0.27608 0.41875 0.14412 0.0
C551 C 0.27626 0.74182 0.13368 0.0
C552 C 0.27573 0.65764 0.12238 0.0
H553 H 0.27596 0.77692 0.15712 0.0
H554 H 0.27602 0.83262 0.13097 0.0
C555 C 0.27632 0.54116 0.12639 0.0
C556 C 0.02654 0.45803 0.87631 0.0
C557 C 0.02595 0.3415 0.87231 0.0
H558 H 0.02636 0.58065 0.89402 0.0
C559 C 0.02654 0.25746 0.88363 0.0
H560 H 0.02618 0.52464 0.86788 0.0
C561 C 0.02662 0.28925 0.89863 0.0
C562 C 0.02607 0.40577 0.90263 0.0
H563 H 0.0263 0.16662 0.88092 0.0
H564 H 0.02634 0.22263 0.90706 0.0
C565 C 0.02657 0.48981 0.89131 0.0
C566 C 0.74785 0.45654 0.89865 0.0
C567 C 0.74854 0.34009 0.90267 0.0
H568 H 0.74791 0.5789 0.88092 0.0
C569 C 0.74803 0.25587 0.89137 0.0
H570 H 0.74814 0.5233 0.90707 0.0
C571 C 0.74791 0.28743 0.87636 0.0
C572 C 0.74836 0.4039 0.87234 0.0
H573 H 0.74835 0.16507 0.8941 0.0
H574 H 0.74826 0.22068 0.86794 0.0
C575 C 0.74779 0.4881 0.88364 0.0
C576 C 0.36147 0.94758 0.07653 0.0
C577 C 0.35732 0.82804 0.07638 0.0
H578 H 0.39325 0.0868 0.07655 0.0
C579 C 0.38319 0.75596 0.07644 0.0
H580 H 0.34206 0.00525 0.07651 0.0
C581 C 0.41259 0.80241 0.0765 0.0
C582 C 0.41674 0.92195 0.07645 0.0
H583 H 0.38081 0.66318 0.07639 0.0
H584 H 0.432 0.74474 0.07645 0.0
C585 C 0.39087 0.99403 0.07654 0.0
C586 C 0.88318 0.25678 0.07655 0.0
C587 C 0.85729 0.32875 0.07637 0.0
H588 H 0.93199 0.24575 0.07659 0.0
C589 C 0.8614 0.44831 0.07632 0.0
H590 H 0.88082 0.164 0.07665 0.0
C591 C 0.89079 0.49487 0.07625 0.0
C592 C 0.91668 0.42289 0.07628 0.0
H593 H 0.84198 0.50589 0.07619 0.0
H594 H 0.89315 0.58765 0.07611 0.0
C595 C 0.91256 0.30335 0.07654 0.0
C596 C 0.41246 0.44785 0.19856 0.0
C597 C 0.41655 0.3283 0.19882 0.0
H598 H 0.38074 0.58728 0.19842 0.0
C599 C 0.39065 0.25639 0.19885 0.0
H600 H 0.4319 0.50539 0.1985 0.0
C601 C 0.36128 0.30302 0.19877 0.0
C602 C 0.35718 0.42259 0.19871 0.0
H603 H 0.39299 0.1636 0.19899 0.0
H604 H 0.34184 0.24549 0.19889 0.0
C605 C 0.38309 0.49449 0.19852 0.0
C606 C 0.88305 0.99529 0.19869 0.0
C607 C 0.8572 0.92312 0.1987 0.0
H608 H 0.93186 0.00665 0.19872 0.0
C609 C 0.86137 0.80361 0.1985 0.0
H610 H 0.88065 0.08805 0.19879 0.0
C611 C 0.89078 0.75725 0.19849 0.0
C612 C 0.91663 0.8294 0.19863 0.0
H613 H 0.84197 0.74588 0.19847 0.0
H614 H 0.89318 0.66448 0.19843 0.0
C615 C 0.91246 0.94893 0.19863 0.0
C616 C 0.64125 0.24204 0.94869 0.0
C617 C 0.66711 0.16993 0.94876 0.0
H618 H 0.59244 0.25334 0.94872 0.0
C619 C 0.66295 0.05039 0.94865 0.0
H620 H 0.64364 0.33482 0.94872 0.0
C621 C 0.63355 0.00399 0.94868 0.0
C622 C 0.60769 0.07611 0.94877 0.0
H623 H 0.68236 0.9927 0.94868 0.0
H624 H 0.63115 0.91122 0.9487 0.0
C625 C 0.61185 0.19564 0.94867 0.0
C626 C 0.16291 0.55169 0.94852 0.0
C627 C 0.16702 0.67125 0.94868 0.0
H628 H 0.13116 0.41233 0.94848 0.0
C629 C 0.14113 0.74322 0.94864 0.0
H630 H 0.18234 0.49411 0.94852 0.0
C631 C 0.11174 0.69664 0.94859 0.0
C632 C 0.10763 0.57709 0.94862 0.0
H633 H 0.14348 0.836 0.94871 0.0
H634 H 0.09231 0.75423 0.94865 0.0
C635 C 0.13352 0.50512 0.94851 0.0
C636 C 0.61135 0.54877 0.8266 0.0
C637 C 0.60722 0.66832 0.82647 0.0
H638 H 0.64312 0.40949 0.82657 0.0
C639 C 0.6331 0.74035 0.82649 0.0
H640 H 0.59193 0.49115 0.82661 0.0
C641 C 0.66249 0.69384 0.82649 0.0
C642 C 0.66662 0.5743 0.82642 0.0
H643 H 0.63073 0.83313 0.82644 0.0
H644 H 0.68191 0.75148 0.82641 0.0
C645 C 0.64075 0.50227 0.82656 0.0
C646 C 0.13324 0.24238 0.82631 0.0
C647 C 0.10736 0.17035 0.82628 0.0
H648 H 0.18205 0.2535 0.82628 0.0
C649 C 0.11149 0.05081 0.82643 0.0
H650 H 0.13087 0.33516 0.82625 0.0
C651 C 0.14088 0.0043 0.82642 0.0
C652 C 0.16676 0.07633 0.8263 0.0
H653 H 0.09207 0.99317 0.82643 0.0
H654 H 0.14325 0.91152 0.82645 0.0
C655 C 0.16263 0.19588 0.82635 0.0
C656 C 0.39015 0.48809 0.57661 0.0
C657 C 0.41611 0.4165 0.57643 0.0
H658 H 0.34132 0.49841 0.5766 0.0
C659 C 0.41212 0.29689 0.57632 0.0
H660 H 0.39241 0.58091 0.57675 0.0
C661 C 0.38278 0.2499 0.57621 0.0
C662 C 0.35682 0.32151 0.57624 0.0
H663 H 0.43161 0.23959 0.57619 0.0
H664 H 0.38052 0.15709 0.57603 0.0
C665 C 0.36081 0.4411 0.57654 0.0
C666 C 0.86085 0.94385 0.57657 0.0
C667 C 0.85658 0.82439 0.57637 0.0
H668 H 0.89279 0.0826 0.57663 0.0
C669 C 0.88238 0.75192 0.57639 0.0
H670 H 0.8415 0.00181 0.57658 0.0
C671 C 0.91182 0.79792 0.57645 0.0
C672 C 0.9161 0.9174 0.57644 0.0
H673 H 0.8799 0.65918 0.5763 0.0
H674 H 0.93117 0.73997 0.57637 0.0
C675 C 0.8903 0.98986 0.57658 0.0
C676 C 0.41239 0.94148 0.69868 0.0
C677 C 0.41651 0.82194 0.69891 0.0
H678 H 0.38064 0.0808 0.69854 0.0
C679 C 0.39063 0.74993 0.69889 0.0
H680 H 0.43181 -0.00091 0.69866 0.0
C681 C 0.36124 0.79646 0.69879 0.0
C682 C 0.35712 0.91602 0.69875 0.0
H683 H 0.39299 0.65716 0.69901 0.0
H684 H 0.34181 0.73886 0.69887 0.0
C685 C 0.383 0.98802 0.69862 0.0
C686 C 0.86137 0.29811 0.69854 0.0
C687 C 0.85722 0.41765 0.69854 0.0
H688 H 0.89315 0.15889 0.6987 0.0
C689 C 0.88309 0.48973 0.69841 0.0
H690 H 0.84195 0.24045 0.69862 0.0
C691 C 0.91249 0.44327 0.69842 0.0
C692 C 0.91664 0.32374 0.69862 0.0
H693 H 0.88071 0.5825 0.69835 0.0
H694 H 0.93191 0.50093 0.69841 0.0
C695 C 0.89076 0.25166 0.6986 0.0
C696 C 0.61069 0.69692 0.44857 0.0
C697 C 0.60657 0.57738 0.44886 0.0
H698 H 0.64244 0.83626 0.4484 0.0
C699 C 0.63246 0.5054 0.44891 0.0
H700 H 0.59126 0.7545 0.4485 0.0
C701 C 0.66185 0.55196 0.44881 0.0
C702 C 0.66596 0.67151 0.44872 0.0
H703 H 0.63011 0.41263 0.44907 0.0
H704 H 0.68127 0.49437 0.44895 0.0
C705 C 0.64008 0.74348 0.44852 0.0
C706 C 0.1328 0.00022 0.44848 0.0
C707 C 0.10693 0.07231 0.44864 0.0
H708 H 0.18161 0.98899 0.44843 0.0
C709 C 0.11108 0.19185 0.44862 0.0
H710 H 0.1304 0.90745 0.44844 0.0
C711 C 0.14048 0.23828 0.44864 0.0
C712 C 0.16635 0.16619 0.44863 0.0
H713 H 0.09167 0.24953 0.44872 0.0
H714 H 0.14286 0.33106 0.44872 0.0
C715 C 0.1622 0.04666 0.44845 0.0
C716 C 0.64029 0.00476 0.32658 0.0
C717 C 0.66617 0.07675 0.32642 0.0
H718 H 0.59147 0.99371 0.32662 0.0
C719 C 0.66206 0.1963 0.32644 0.0
H720 H 0.64265 0.91198 0.32662 0.0
C721 C 0.63267 0.24285 0.32641 0.0
C722 C 0.60678 0.17086 0.32641 0.0
H723 H 0.68148 0.2539 0.32634 0.0
H724 H 0.63031 0.33563 0.32633 0.0
C725 C 0.6109 0.05131 0.3266 0.0
C726 C 0.16198 0.69536 0.32659 0.0
C727 C 0.16613 0.57584 0.3263 0.0
H728 H 0.1302 0.83458 0.32672 0.0
C729 C 0.14026 0.50376 0.32621 0.0
H730 H 0.18139 0.75303 0.32669 0.0
C731 C 0.11086 0.55021 0.32626 0.0
C732 C 0.10671 0.66975 0.32635 0.0
H733 H 0.14265 0.411 0.32604 0.0
H734 H 0.09145 0.49256 0.32608 0.0
C735 C 0.13258 0.74181 0.32659 0.0
C736 C 0.50515 0.09991 0.02058 0.0
C737 C 0.51266 -0.00054 0.02839 0.0
H738 H 0.49878 0.17897 0.99934 0.0
C739 C 0.51966 0.8989 0.02028 0.0
H740 H 0.49963 0.17857 0.02647 0.0
C741 C 0.51916 0.89877 1.00472 0.0
C742 C 0.51166 -0.00078 0.99691 0.0
H743 H 0.52554 0.81971 0.02595 0.0
H744 H 0.52468 0.82011 0.99883 0.0
C745 C 0.50466 0.09978 1.00501 0.0
C746 C 0.76933 0.14898 0.02051 0.0
C747 C 0.76161 0.2495 0.02827 0.0
H748 H 0.77599 0.06945 0.99932 0.0
C749 C 0.75452 0.34968 0.02012 0.0
H750 H 0.77492 0.07061 0.02644 0.0
C751 C 0.75514 0.34937 1.00456 0.0
C752 C 0.76286 0.24885 0.99679 0.0
H753 H 0.74848 0.4289 0.02575 0.0
H754 H 0.74955 0.42773 0.99863 0.0
C755 C 0.76994 0.14867 1.00495 0.0
C756 C 0.51934 0.34996 0.25505 0.0
C757 C 0.51226 0.24967 0.24692 0.0
H758 H 0.52432 0.4283 0.27653 0.0
C759 C 0.50454 0.14925 0.25469 0.0
H760 H 0.52538 0.42911 0.24941 0.0
C761 C 0.50393 0.14915 0.27026 0.0
C762 C 0.51101 0.24944 0.27839 0.0
H763 H 0.49895 0.0708 0.24878 0.0
H764 H 0.49789 0.07 0.2759 0.0
C765 C 0.51873 0.34986 0.27062 0.0
C766 C 0.754 0.89926 0.25487 0.0
C767 C 0.76108 -0.00019 0.24679 0.0
H768 H 0.74891 0.82036 0.27632 0.0
C769 C 0.76866 0.10012 0.25462 0.0
H770 H 0.74806 0.82018 0.24919 0.0
C771 C 0.76915 0.09986 0.27018 0.0
C772 C 0.76207 -0.00069 0.27827 0.0
H773 H 0.77424 0.17876 0.24874 0.0
H774 H 0.77509 0.17894 0.27587 0.0
C775 C 0.75449 0.899 0.27044 0.0
C776 C 0.25506 0.85018 1.00458 0.0
C777 C 0.26273 0.74975 0.99679 0.0
H778 H 0.24846 0.92943 0.02579 0.0
C779 C 0.2698 0.64942 1.00491 0.0
H780 H 0.24948 0.92866 0.99867 0.0
C781 C 0.26922 0.6495 0.02048 0.0
C782 C 0.26154 0.74993 0.02827 0.0
H783 H 0.27582 0.57025 0.99926 0.0
H784 H 0.27479 0.57102 0.02638 0.0
C785 C 0.25447 0.85026 0.02014 0.0
C786 C 0.51962 0.8453 0.75505 0.0
C787 C 0.51249 0.74477 0.74698 0.0
H788 H 0.5247 0.9243 0.77649 0.0
C789 C 0.50481 0.64459 0.75481 0.0
H790 H 0.52564 0.92427 0.74936 0.0
C791 C 0.50426 0.64497 0.77038 0.0
C792 C 0.51139 0.74551 0.77845 0.0
H793 H 0.49919 0.56597 0.74894 0.0
H794 H 0.49824 0.566 0.77607 0.0
C795 C 0.51908 0.84567 0.77062 0.0
C796 C 0.2543 0.8958 0.7549 0.0
C797 C 0.26134 0.99594 0.74672 0.0
H798 H 0.24935 0.81793 0.77641 0.0
C799 C 0.26899 0.09661 0.75446 0.0
H800 H 0.24832 0.81646 0.74929 0.0
C801 C 0.26959 0.09709 0.77002 0.0
C802 C 0.26255 0.99694 0.7782 0.0
H803 H 0.27454 0.17496 0.74851 0.0
H804 H 0.27557 0.17643 0.77564 0.0
C805 C 0.2549 0.89628 0.77046 0.0
C806 C 0.51844 0.39763 0.50469 0.0
C807 C 0.51068 0.49809 0.49694 0.0
H808 H 0.52509 0.31814 0.52587 0.0
C809 C 0.50351 0.5982 0.5051 0.0
H810 H 0.52409 0.31932 0.49875 0.0
C811 C 0.50409 0.59788 0.52067 0.0
C812 C 0.51185 0.49742 0.52842 0.0
H813 H 0.49743 0.67737 0.49948 0.0
H814 H 0.49843 0.67619 0.5266 0.0
C815 C 0.51901 0.39732 0.52025 0.0
C816 C 0.75365 0.84916 0.52017 0.0
C817 C 0.76068 0.74861 0.52826 0.0
H818 H 0.74867 0.92802 0.49873 0.0
C819 C 0.76829 0.64827 0.52043 0.0
H820 H 0.7477 0.92826 0.52585 0.0
C821 C 0.76885 0.6485 0.50487 0.0
C822 C 0.76182 0.74904 0.49678 0.0
H823 H 0.77383 0.56963 0.52631 0.0
H824 H 0.7748 0.56939 0.49919 0.0
C825 C 0.75421 0.84939 0.50461 0.0
C826 C 0.75498 0.3954 0.77044 0.0
C827 C 0.76247 0.49606 0.77821 0.0
H828 H 0.74859 0.31583 0.74923 0.0
C829 C 0.76942 0.59648 0.77007 0.0
H830 H 0.74951 0.31684 0.77636 0.0
C831 C 0.76889 0.59626 0.75451 0.0
C832 C 0.76141 0.4956 0.74674 0.0
H833 H 0.77528 0.67582 0.77572 0.0
H834 H 0.77437 0.67482 0.74859 0.0
C835 C 0.75446 0.39518 0.75488 0.0
C836 C 0.2544 0.3436 0.5045 0.0
C837 C 0.26216 0.24346 0.49667 0.0
H838 H 0.24776 0.42223 0.52575 0.0
C839 C 0.26933 0.14302 0.50475 0.0
H840 H 0.24875 0.42215 0.49863 0.0
C841 C 0.26876 0.1427 0.52031 0.0
C842 C 0.26101 0.24284 0.52815 0.0
H843 H 0.27541 0.06408 0.49906 0.0
H844 H 0.27442 0.06415 0.52619 0.0
C845 C 0.25384 0.34328 0.52007 0.0
C846 C 0.25467 0.39922 0.27043 0.0
C847 C 0.26229 0.49943 0.27827 0.0
H848 H 0.24818 0.32058 0.24918 0.0
C849 C 0.2694 0.60001 0.2702 0.0
H850 H 0.24907 0.32056 0.2763 0.0
C851 C 0.26889 0.60038 0.25463 0.0
C852 C 0.26126 0.50017 0.24679 0.0
H853 H 0.27537 0.67902 0.27589 0.0
H854 H 0.27449 0.67904 0.24876 0.0
C855 C 0.25416 0.39959 0.25487 0.0
C856 C 1.00417 0.09494 0.50497 0.0
C857 C 1.01106 0.99445 0.49683 0.0
H858 H 0.99925 0.17335 0.52645 0.0
C859 C 0.01847 0.89372 0.5046 0.0
H860 H 0.99837 0.17434 0.49933 0.0
C861 C 0.01897 0.89351 0.52016 0.0
C862 C 0.01208 0.994 0.5283 0.0
H863 H 0.02389 0.8151 0.49868 0.0
H864 H 0.02477 0.81411 0.5258 0.0
C865 C 1.00468 0.09473 0.52053 0.0
C866 C 0.01954 0.34749 0.75485 0.0
C867 C 0.01245 0.24693 0.74677 0.0
H868 H 0.0246 0.42644 0.77629 0.0
C869 C 1.00482 0.14668 0.75461 0.0
H870 H 0.02552 0.42652 0.74917 0.0
C871 C 1.00429 0.14701 0.77017 0.0
C872 C 1.01138 0.24755 0.77825 0.0
H873 H 0.99923 0.06804 0.74873 0.0
H874 H 0.99831 0.06797 0.77586 0.0
C875 C 0.01901 0.34781 0.77042 0.0
C876 C 0.01937 0.85046 0.25489 0.0
C877 C 0.01233 0.75033 0.24671 0.0
H878 H 0.02432 0.9283 0.27641 0.0
C879 C 1.00467 0.64966 0.25445 0.0
H880 H 0.02537 0.9298 0.24928 0.0
C881 C 1.00406 0.64916 0.27001 0.0
C882 C 1.0111 0.7493 0.27819 0.0
H883 H 0.99912 0.57133 0.2485 0.0
H884 H 0.99806 0.56983 0.27562 0.0
C885 C 0.01876 0.84996 0.27046 0.0
C886 C 0.01931 0.39928 1.00454 0.0
C887 C 1.01171 0.49957 0.99672 0.0
H888 H 0.02577 0.32047 0.02578 0.0
C889 C 1.00463 0.60011 1.00481 0.0
H890 H 0.02489 0.32064 0.99866 0.0
C891 C 1.00513 0.60037 0.02037 0.0
C892 C 0.01273 0.50008 0.0282 0.0
H893 H 0.99867 0.67918 0.99913 0.0
H894 H 0.99955 0.67901 0.02626 0.0
C895 C 0.01982 0.39954 0.0201 0.0
C896 C 0.61821 0.22181 0.07899 0.0
C897 C 0.60498 0.11119 0.07891 0.0
H898 H 0.65933 0.3218 0.07887 0.0
C899 C 0.62415 0.01468 0.07909 0.0
H900 H 0.60409 0.29829 0.0789 0.0
C901 C 0.65583 0.0285 0.07908 0.0
C902 C 0.66906 0.13912 0.0789 0.0
H903 H 0.61472 0.92852 0.07905 0.0
H904 H 0.66995 0.95202 0.07906 0.0
C905 C 0.6499 0.23564 0.07899 0.0
C906 C 0.62392 0.23555 0.19616 0.0
C907 C 0.60479 0.13893 0.19625 0.0
H908 H 0.6697 0.29846 0.19625 0.0
C909 C 0.61806 0.02838 0.19606 0.0
H910 H 0.61446 0.32166 0.19628 0.0
C911 C 0.64975 0.01473 0.19605 0.0
C912 C 0.66888 0.11134 0.19623 0.0
H913 H 0.60397 0.95183 0.19608 0.0
H914 H 0.65922 0.92862 0.19609 0.0
C915 C 0.65561 0.2219 0.19615 0.0
C916 C 0.40609 0.77742 0.94621 0.0
C917 C 0.41937 0.88796 0.94629 0.0
H918 H 0.36493 0.6777 0.94628 0.0
C919 C 0.40025 0.98459 0.94607 0.0
H920 H 0.42017 0.70085 0.94633 0.0
C921 C 0.36856 0.97097 0.94603 0.0
C922 C 0.35528 0.86044 0.9462 0.0
H923 H 0.40972 0.0707 0.94611 0.0
H924 H 0.35447 0.04754 0.94602 0.0
C925 C 0.3744 0.7638 0.94616 0.0
C926 C 0.39983 0.76197 0.82906 0.0
C927 C 0.41903 0.8584 0.82898 0.0
H928 H 0.35401 0.69951 0.8289 0.0
C929 C 0.40583 0.96908 0.82911 0.0
H930 H 0.40923 0.67577 0.82898 0.0
C931 C 0.37415 0.98304 0.82906 0.0
C932 C 0.35496 0.88662 0.82887 0.0
H933 H 0.41998 0.0455 0.8291 0.0
H934 H 0.36475 0.06925 0.82898 0.0
C935 C 0.36815 0.77593 0.829 0.0
C936 C 0.6551 0.52535 0.5789 0.0
C937 C 0.66829 0.63603 0.57887 0.0
H938 H 0.61401 0.4252 0.57879 0.0
C939 C 0.6491 0.73246 0.57916 0.0
H940 H 0.66924 0.44893 0.57872 0.0
C941 C 0.61742 0.7185 0.5792 0.0
C942 C 0.60422 0.60783 0.57897 0.0
H943 H 0.65851 0.81866 0.57916 0.0
H944 H 0.60328 0.79492 0.57926 0.0
C945 C 0.62342 0.51139 0.57896 0.0
C946 C 0.61807 0.52254 0.6961 0.0
C947 C 0.60478 0.63305 0.69628 0.0
H948 H 0.65925 0.4229 0.69613 0.0
C949 C 0.62389 0.72973 0.69617 0.0
H950 H 0.604 0.44595 0.69614 0.0
C951 C 0.65558 0.71617 0.69616 0.0
C952 C 0.66888 0.60566 0.69624 0.0
H953 H 0.61441 0.81581 0.69628 0.0
H954 H 0.66965 0.79277 0.69624 0.0
C955 C 0.64977 0.50899 0.69608 0.0
C956 C 0.39924 0.48231 0.44602 0.0
C957 C 0.41851 0.3861 0.44622 0.0
H958 H 0.35337 0.54426 0.44599 0.0
C959 C 0.4054 0.27527 0.44608 0.0
H960 H 0.40858 0.56862 0.4461 0.0
C961 C 0.37373 0.26095 0.44602 0.0
C962 C 0.35446 0.35717 0.4461 0.0
H963 H 0.4196 0.199 0.44618 0.0
H964 H 0.36439 0.17465 0.44611 0.0
C965 C 0.36757 0.468 0.44597 0.0
C966 C 0.40523 0.47041 0.32924 0.0
C967 C 0.41851 0.35988 0.32904 0.0
H968 H 0.36407 0.57012 0.32917 0.0
C969 C 0.39939 0.26324 0.32907 0.0
H970 H 0.41932 0.54698 0.32927 0.0
C971 C 0.3677 0.27685 0.32902 0.0
C972 C 0.35442 0.38739 0.32895 0.0
H973 H 0.40886 0.17714 0.32893 0.0
H974 H 0.35362 0.20028 0.32887 0.0
C975 C 0.37354 0.48402 0.3292 0.0
C976 C 0.12364 0.00707 0.579 0.0
C977 C 0.10454 0.10376 0.57883 0.0
H978 H 0.16941 0.94399 0.57895 0.0
C979 C 0.11784 0.21426 0.57893 0.0
H980 H 0.11415 0.921 0.57894 0.0
C981 C 0.14953 0.22779 0.57893 0.0
C982 C 0.16864 0.1311 0.57882 0.0
H983 H 0.10377 0.29088 0.57885 0.0
H984 H 0.15902 0.31386 0.57882 0.0
C985 C 0.15534 0.0206 0.57899 0.0
C986 C 0.14972 0.00924 0.69621 0.0
C987 C 0.16891 0.10568 0.69611 0.0
H988 H 0.1039 0.94677 0.69651 0.0
C989 C 0.15571 0.21633 0.6958 0.0
H990 H 0.15913 0.92306 0.69643 0.0
C991 C 0.12403 0.23027 0.69585 0.0
C992 C 0.10484 0.13386 0.69623 0.0
H993 H 0.16985 0.29275 0.69567 0.0
H994 H 0.11462 0.31647 0.69579 0.0
C995 C 0.11804 0.02318 0.69627 0.0
C996 C 0.89947 0.98243 0.4461 0.0
C997 C 0.91849 0.88552 0.44629 0.0
H998 H 0.85375 0.04602 0.44608 0.0
C999 C 0.90511 0.77517 0.44619 0.0
H1000 H 0.90902 0.06839 0.44615 0.0
C1001 C 0.8734 0.762 0.44616 0.0
C1002 C 0.85437 0.8589 0.44624 0.0
H1003 H 0.91911 0.6984 0.4463 0.0
H1004 H 0.86385 0.67603 0.44627 0.0
C1005 C 0.86776 0.96925 0.44607 0.0
C1006 C 0.90525 0.96972 0.32897 0.0
C1007 C 0.91847 0.85909 0.32876 0.0
H1008 H 0.86415 0.06977 0.32894 0.0
C1009 C 0.89929 0.7626 0.32881 0.0
H1010 H 0.91938 0.04618 0.32898 0.0
C1011 C 0.86761 0.77647 0.3288 0.0
C1012 C 0.85439 0.88711 0.32874 0.0
H1013 H 0.90872 0.67643 0.32867 0.0
H1014 H 0.85348 0.70001 0.32867 0.0
C1015 C 0.87357 0.98359 0.32896 0.0
C1016 C 0.1499 0.73602 0.07892 0.0
C1017 C 0.16903 0.6394 0.07887 0.0
H1018 H 0.10413 0.79893 0.07876 0.0
C1019 C 0.15576 0.52886 0.07906 0.0
H1020 H 0.15937 0.82213 0.0788 0.0
C1021 C 0.12407 0.51521 0.07903 0.0
C1022 C 0.10494 0.61182 0.07881 0.0
H1023 H 0.16985 0.4523 0.07907 0.0
H1024 H 0.11461 0.4291 0.07899 0.0
C1025 C 0.11821 0.72237 0.07889 0.0
C1026 C 0.11813 0.52984 0.19595 0.0
C1027 C 0.1049 0.64046 0.19614 0.0
H1028 H 0.15924 0.42984 0.19601 0.0
C1029 C 0.12407 0.73697 0.19611 0.0
H1030 H 0.10401 0.45336 0.19592 0.0
C1031 C 0.15576 0.72314 0.19616 0.0
C1032 C 0.16898 0.6125 0.19622 0.0
H1033 H 0.11464 0.82313 0.19625 0.0
H1034 H 0.16988 0.79961 0.1963 0.0
C1035 C 0.14982 0.51601 0.19598 0.0
C1036 C 0.86856 0.46996 0.94597 0.0
C1037 C 0.85534 0.35932 0.94616 0.0
H1038 H 0.90966 0.57003 0.94601 0.0
C1039 C 0.87452 0.26284 0.9461 0.0
H1040 H 0.85443 0.54642 0.94597 0.0
C1041 C 0.9062 0.27672 0.94611 0.0
C1042 C 0.91942 0.38738 0.94618 0.0
H1043 H 0.8651 0.17666 0.94622 0.0
H1044 H 0.92033 0.20027 0.94623 0.0
C1045 C 0.90024 0.48385 0.94598 0.0
C1046 C 0.89995 0.26215 0.82894 0.0
C1047 C 0.91905 0.35885 0.82885 0.0
H1048 H 0.85419 0.19904 0.82881 0.0
C1049 C 0.90575 0.46934 0.82901 0.0
H1050 H 0.90944 0.17608 0.82884 0.0
C1051 C 0.87405 0.48286 0.82898 0.0
C1052 C 0.85495 0.38616 0.8288 0.0
H1053 H 0.91981 0.54596 0.82899 0.0
H1054 H 0.86456 0.56892 0.82892 0.0
C1055 C 0.86826 0.27566 0.82891 0.0
loop_
_geom_bond_atom_site_label_1
_geom_bond_atom_site_label_2
_geom_bond_distance
_geom_bond_site_symmetry_2
_ccdc_geom_bond_type
Mg0 O7 2.141 . S
Mg0 O8 2.048 . S
Mg0 O9 2.048 . S
Mg0 O12 2.141 . S
C1 O2 1.313 1_545 S
C1 O8 1.195 . S
O2 C1 1.313 1_565 S
C3 O4 1.245 1_545 S
C3 O12 1.289 . S
O4 C3 1.245 1_565 S
C5 O6 1.245 . S
C5 O7 1.289 1_565 S
O6 C5 1.245 . S
O7 Mg0 2.141 . S
O7 C5 1.289 1_545 S
O8 Mg0 2.048 . S
O8 C1 1.195 . S
O9 Mg0 2.048 . S
O9 C10 1.195 . S
C10 O9 1.195 . S
C10 O11 1.313 1_545 S
O11 C10 1.313 1_565 S
O12 Mg0 2.141 . S
O12 C3 1.289 . S
Mg13 O20 2.141 . S
Mg13 O21 2.048 . S
Mg13 O22 2.048 . S
Mg13 O25 2.141 . S
C14 O15 1.313 . S
C14 O21 1.195 . S
O15 C14 1.313 . S
C16 O17 1.245 . S
C16 O25 1.289 . S
O17 C16 1.245 . S
C18 O19 1.245 . S
C18 O20 1.289 . S
O19 C18 1.245 . S
O20 Mg13 2.141 . S
O20 C18 1.289 . S
O21 Mg13 2.048 . S
O21 C14 1.195 . S
O22 Mg13 2.048 . S
O22 C23 1.195 . S
C23 O22 1.195 . S
C23 O24 1.313 . S
O24 C23 1.313 . S
O25 Mg13 2.141 . S
O25 C16 1.289 . S
Mg26 O33 2.141 . S
Mg26 O34 2.048 . S
Mg26 O35 2.048 . S
Mg26 O38 2.141 . S
C27 O28 1.313 . S
C27 O34 1.195 . S
O28 C27 1.313 . S
C29 O30 1.245 . S
C29 O38 1.289 . S
O30 C29 1.245 . S
C31 O32 1.245 . S
C31 O33 1.289 . S
O32 C31 1.245 . S
O33 Mg26 2.141 . S
O33 C31 1.289 . S
O34 Mg26 2.048 . S
O34 C27 1.195 . S
O35 Mg26 2.048 . S
O35 C36 1.195 . S
C36 O35 1.195 . S
C36 O37 1.313 . S
O37 C36 1.313 . S
O38 Mg26 2.141 . S
O38 C29 1.289 . S
Mg39 O46 2.141 . S
Mg39 O47 2.048 . S
Mg39 O48 2.048 . S
Mg39 O51 2.141 . S
C40 O41 1.313 1_545 S
C40 O47 1.195 . S
O41 C40 1.313 1_565 S
C42 O43 1.245 1_545 S
C42 O51 1.289 . S
O43 C42 1.245 1_565 S
C44 O45 1.245 . S
C44 O46 1.289 1_565 S
O45 C44 1.245 . S
O46 Mg39 2.141 . S
O46 C44 1.289 1_545 S
O47 Mg39 2.048 . S
O47 C40 1.195 . S
O48 Mg39 2.048 . S
O48 C49 1.195 . S
C49 O48 1.195 . S
C49 O50 1.313 1_545 S
O50 C49 1.313 1_565 S
O51 Mg39 2.141 . S
O51 C42 1.289 . S
Mg52 O59 2.141 . S
Mg52 O60 2.048 . S
Mg52 O61 2.048 . S
Mg52 O64 2.141 . S
C53 O54 1.313 1_565 S
C53 O60 1.195 . S
O54 C53 1.313 1_545 S
C55 O56 1.245 . S
C55 O64 1.289 1_545 S
O56 C55 1.245 . S
C57 O58 1.245 1_565 S
C57 O59 1.289 . S
O58 C57 1.245 1_545 S
O59 Mg52 2.141 . S
O59 C57 1.289 . S
O60 Mg52 2.048 . S
O60 C53 1.195 . S
O61 Mg52 2.048 . S
O61 C62 1.195 . S
C62 O61 1.195 . S
C62 O63 1.313 1_565 S
O63 C62 1.313 1_545 S
O64 Mg52 2.141 . S
O64 C55 1.289 1_565 S
Mg65 O72 2.141 . S
Mg65 O73 2.048 . S
Mg65 O74 2.048 . S
Mg65 O77 2.141 . S
C66 O67 1.313 . S
C66 O73 1.195 . S
O67 C66 1.313 . S
C68 O69 1.245 . S
C68 O77 1.289 . S
O69 C68 1.245 . S
C70 O71 1.245 . S
C70 O72 1.289 . S
O71 C70 1.245 . S
O72 Mg65 2.141 . S
O72 C70 1.289 . S
O73 Mg65 2.048 . S
O73 C66 1.195 . S
O74 Mg65 2.048 . S
O74 C75 1.195 . S
C75 O74 1.195 . S
C75 O76 1.313 . S
O76 C75 1.313 . S
O77 Mg65 2.141 . S
O77 C68 1.289 . S
Mg78 O85 2.141 . S
Mg78 O86 2.048 . S
Mg78 O87 2.048 . S
Mg78 O90 2.141 . S
C79 O80 1.313 . S
C79 O86 1.195 . S
O80 C79 1.313 . S
C81 O82 1.245 . S
C81 O90 1.289 . S
O82 C81 1.245 . S
C83 O84 1.245 . S
C83 O85 1.289 . S
O84 C83 1.245 . S
O85 Mg78 2.141 . S
O85 C83 1.289 . S
O86 Mg78 2.048 . S
O86 C79 1.195 . S
O87 Mg78 2.048 . S
O87 C88 1.195 . S
C88 O87 1.195 . S
C88 O89 1.313 . S
O89 C88 1.313 . S
O90 Mg78 2.141 . S
O90 C81 1.289 . S
Mg91 O98 2.141 . S
Mg91 O99 2.048 . S
Mg91 O100 2.048 . S
Mg91 O103 2.141 . S
C92 O93 1.313 1_565 S
C92 O99 1.195 . S
O93 C92 1.313 1_545 S
C94 O95 1.245 . S
C94 O103 1.289 1_545 S
O95 C94 1.245 . S
C96 O97 1.245 1_565 S
C96 O98 1.289 . S
O97 C96 1.245 1_545 S
O98 Mg91 2.141 . S
O98 C96 1.289 . S
O99 Mg91 2.048 . S
O99 C92 1.195 . S
O100 Mg91 2.048 . S
O100 C101 1.195 . S
C101 O100 1.195 . S
C101 O102 1.313 1_565 S
O102 C101 1.313 1_545 S
O103 Mg91 2.141 . S
O103 C94 1.289 1_565 S
Mg104 O111 2.141 . S
Mg104 O112 2.048 . S
Mg104 O113 2.048 . S
Mg104 O116 2.141 . S
C105 O106 1.313 . S
C105 O112 1.195 . S
O106 C105 1.313 . S
C107 O108 1.245 . S
C107 O116 1.289 . S
O108 C107 1.245 . S
C109 O110 1.245 . S
C109 O111 1.289 . S
O110 C109 1.245 . S
O111 Mg104 2.141 . S
O111 C109 1.289 . S
O112 Mg104 2.048 . S
O112 C105 1.195 . S
O113 Mg104 2.048 . S
O113 C114 1.195 . S
C114 O113 1.195 . S
C114 O115 1.313 . S
O115 C114 1.313 . S
O116 Mg104 2.141 . S
O116 C107 1.289 . S
Mg117 O124 2.141 . S
Mg117 O125 2.048 . S
Mg117 O126 2.048 . S
Mg117 O129 2.141 . S
C118 O119 1.313 . S
C118 O125 1.195 . S
O119 C118 1.313 . S
C120 O121 1.245 . S
C120 O129 1.289 . S
O121 C120 1.245 . S
C122 O123 1.245 . S
C122 O124 1.289 . S
O123 C122 1.245 . S
O124 Mg117 2.141 . S
O124 C122 1.289 . S
O125 Mg117 2.048 . S
O125 C118 1.195 . S
O126 Mg117 2.048 . S
O126 C127 1.195 . S
C127 O126 1.195 . S
C127 O128 1.313 . S
O128 C127 1.313 . S
O129 Mg117 2.141 . S
O129 C120 1.289 . S
Mg130 O137 2.141 . S
Mg130 O138 2.048 . S
Mg130 O139 2.048 . S
Mg130 O142 2.141 . S
C131 O132 1.313 . S
C131 O138 1.195 . S
O132 C131 1.313 . S
C133 O134 1.245 . S
C133 O142 1.289 . S
O134 C133 1.245 . S
C135 O136 1.245 . S
C135 O137 1.289 . S
O136 C135 1.245 . S
O137 Mg130 2.141 . S
O137 C135 1.289 . S
O138 Mg130 2.048 . S
O138 C131 1.195 . S
O139 Mg130 2.048 . S
O139 C140 1.195 . S
C140 O139 1.195 . S
C140 O141 1.313 . S
O141 C140 1.313 . S
O142 Mg130 2.141 . S
O142 C133 1.289 . S
Mg143 O150 2.141 . S
Mg143 O151 2.048 . S
Mg143 O152 2.048 . S
Mg143 O155 2.141 . S
C144 O145 1.313 . S
C144 O151 1.195 . S
O145 C144 1.313 . S
C146 O147 1.245 . S
C146 O155 1.289 . S
O147 C146 1.245 . S
C148 O149 1.245 . S
C148 O150 1.289 . S
O149 C148 1.245 . S
O150 Mg143 2.141 . S
O150 C148 1.289 . S
O151 Mg143 2.048 . S
O151 C144 1.195 . S
O152 Mg143 2.048 . S
O152 C153 1.195 . S
C153 O152 1.195 . S
C153 O154 1.313 . S
O154 C153 1.313 . S
O155 Mg143 2.141 . S
O155 C146 1.289 . S
Mg156 O163 2.141 . S
Mg156 O164 2.048 . S
Mg156 O165 2.048 . S
Mg156 O168 2.141 . S
C157 O158 1.313 . S
C157 O164 1.195 . S
O158 C157 1.313 . S
C159 O160 1.245 . S
C159 O168 1.289 . S
O160 C159 1.245 . S
C161 O162 1.245 . S
C161 O163 1.289 . S
O162 C161 1.245 . S
O163 Mg156 2.141 . S
O163 C161 1.289 . S
O164 Mg156 2.048 . S
O164 C157 1.195 . S
O165 Mg156 2.048 . S
O165 C166 1.195 . S
C166 O165 1.195 . S
C166 O167 1.313 . S
O167 C166 1.313 . S
O168 Mg156 2.141 . S
O168 C159 1.289 . S
Mg169 O176 2.141 . S
Mg169 O177 2.048 . S
Mg169 O178 2.048 . S
Mg169 O181 2.141 . S
C170 O171 1.313 . S
C170 O177 1.195 . S
O171 C170 1.313 . S
C172 O173 1.245 . S
C172 O181 1.289 . S
O173 C172 1.245 . S
C174 O175 1.245 . S
C174 O176 1.289 . S
O175 C174 1.245 . S
O176 Mg169 2.141 . S
O176 C174 1.289 . S
O177 Mg169 2.048 . S
O177 C170 1.195 . S
O178 Mg169 2.048 . S
O178 C179 1.195 . S
C179 O178 1.195 . S
C179 O180 1.313 . S
O180 C179 1.313 . S
O181 Mg169 2.141 . S
O181 C172 1.289 . S
Mg182 O189 2.141 . S
Mg182 O190 2.048 . S
Mg182 O191 2.048 . S
Mg182 O194 2.141 . S
C183 O184 1.313 . S
C183 O190 1.195 . S
O184 C183 1.313 . S
C185 O186 1.245 . S
C185 O194 1.289 . S
O186 C185 1.245 . S
C187 O188 1.245 . S
C187 O189 1.289 . S
O188 C187 1.245 . S
O189 Mg182 2.141 . S
O189 C187 1.289 . S
O190 Mg182 2.048 . S
O190 C183 1.195 . S
O191 Mg182 2.048 . S
O191 C192 1.195 . S
C192 O191 1.195 . S
C192 O193 1.313 . S
O193 C192 1.313 . S
O194 Mg182 2.141 . S
O194 C185 1.289 . S
Mg195 O202 2.141 . S
Mg195 O203 2.048 . S
Mg195 O204 2.048 . S
Mg195 O207 2.141 . S
C196 O197 1.313 . S
C196 O203 1.195 . S
O197 C196 1.313 . S
C198 O199 1.245 . S
C198 O207 1.289 . S
O199 C198 1.245 . S
C200 O201 1.245 . S
C200 O202 1.289 . S
O201 C200 1.245 . S
O202 Mg195 2.141 . S
O202 C200 1.289 . S
O203 Mg195 2.048 . S
O203 C196 1.195 . S
O204 Mg195 2.048 . S
O204 C205 1.195 . S
C205 O204 1.195 . S
C205 O206 1.313 . S
O206 C205 1.313 . S
O207 Mg195 2.141 . S
O207 C198 1.289 . S
Mg208 O215 2.141 . S
Mg208 O216 2.048 . S
Mg208 O217 2.048 1_655 S
Mg208 O220 2.141 . S
C209 O210 1.313 1_545 S
C209 O216 1.195 1_455 S
O210 C209 1.313 1_565 S
C211 O212 1.241 1_645 S
C211 O220 1.293 . S
O212 C211 1.241 1_465 S
C213 O214 1.245 . S
C213 O215 1.289 1_565 S
O214 C213 1.245 . S
O215 Mg208 2.141 . S
O215 C213 1.289 1_545 S
O216 Mg208 2.048 . S
O216 C209 1.195 1_655 S
O217 Mg208 2.048 1_455 S
O217 C218 1.195 . S
C218 O217 1.195 . S
C218 O219 1.313 1_545 S
O219 C218 1.313 1_565 S
O220 Mg208 2.141 . S
O220 C211 1.293 . S
Mg221 O228 2.141 . S
Mg221 O229 2.048 . S
Mg221 O230 2.048 . S
Mg221 O233 2.141 . S
C222 O223 1.313 . S
C222 O229 1.195 . S
O223 C222 1.313 . S
C224 O225 1.245 . S
C224 O233 1.289 . S
O225 C224 1.245 . S
C226 O227 1.245 . S
C226 O228 1.289 . S
O227 C226 1.245 . S
O228 Mg221 2.141 . S
O228 C226 1.289 . S
O229 Mg221 2.048 . S
O229 C222 1.195 . S
O230 Mg221 2.048 . S
O230 C231 1.195 . S
C231 O230 1.195 . S
C231 O232 1.313 . S
O232 C231 1.313 . S
O233 Mg221 2.141 . S
O233 C224 1.289 . S
Mg234 O241 2.141 . S
Mg234 O242 2.048 . S
Mg234 O243 2.048 1_655 S
Mg234 O246 2.141 . S
C235 O236 1.313 . S
C235 O242 1.195 1_455 S
O236 C235 1.313 . S
C237 O238 1.237 1_655 S
C237 O246 1.297 . S
O238 C237 1.237 1_455 S
C239 O240 1.245 . S
C239 O241 1.289 . S
O240 C239 1.245 . S
O241 Mg234 2.141 . S
O241 C239 1.289 . S
O242 Mg234 2.048 . S
O242 C235 1.195 1_655 S
O243 Mg234 2.048 1_455 S
O243 C244 1.195 . S
C244 O243 1.195 . S
C244 O245 1.313 . S
O245 C244 1.313 . S
O246 Mg234 2.141 . S
O246 C237 1.297 . S
Mg247 O254 2.141 . S
Mg247 O255 2.048 . S
Mg247 O256 2.048 . S
Mg247 O259 2.141 . S
C248 O249 1.313 1_545 S
C248 O255 1.195 . S
O249 C248 1.313 1_565 S
C250 O251 1.245 1_545 S
C250 O259 1.289 . S
O251 C250 1.245 1_565 S
C252 O253 1.245 . S
C252 O254 1.289 1_565 S
O253 C252 1.245 . S
O254 Mg247 2.141 . S
O254 C252 1.289 1_545 S
O255 Mg247 2.048 . S
O255 C248 1.195 . S
O256 Mg247 2.048 . S
O256 C257 1.195 . S
C257 O256 1.195 . S
C257 O258 1.313 1_545 S
O258 C257 1.313 1_565 S
O259 Mg247 2.141 . S
O259 C250 1.289 . S
Mg260 O267 2.141 . S
Mg260 O268 2.048 1_455 S
Mg260 O269 2.048 . S
Mg260 O272 2.141 . S
C261 O262 1.313 1_565 S
C261 O268 1.195 . S
O262 C261 1.313 1_545 S
C263 O264 1.245 . S
C263 O272 1.289 1_545 S
O264 C263 1.245 . S
C265 O266 1.241 1_465 S
C265 O267 1.293 . S
O266 C265 1.241 1_645 S
O267 Mg260 2.141 . S
O267 C265 1.293 . S
O268 Mg260 2.048 1_655 S
O268 C261 1.195 . S
O269 Mg260 2.048 . S
O269 C270 1.195 1_455 S
C270 O269 1.195 1_655 S
C270 O271 1.313 1_565 S
O271 C270 1.313 1_545 S
O272 Mg260 2.141 . S
O272 C263 1.289 1_565 S
Mg273 O280 2.141 . S
Mg273 O281 2.048 . S
Mg273 O282 2.048 . S
Mg273 O285 2.141 . S
C274 O275 1.313 . S
C274 O281 1.195 . S
O275 C274 1.313 . S
C276 O277 1.245 . S
C276 O285 1.289 . S
O277 C276 1.245 . S
C278 O279 1.245 . S
C278 O280 1.289 . S
O279 C278 1.245 . S
O280 Mg273 2.141 . S
O280 C278 1.289 . S
O281 Mg273 2.048 . S
O281 C274 1.195 . S
O282 Mg273 2.048 . S
O282 C283 1.195 . S
C283 O282 1.195 . S
C283 O284 1.313 . S
O284 C283 1.313 . S
O285 Mg273 2.141 . S
O285 C276 1.289 . S
Mg286 O293 2.141 . S
Mg286 O294 2.048 1_455 S
Mg286 O295 2.048 . S
Mg286 O298 2.141 . S
C287 O288 1.313 . S
C287 O294 1.195 . S
O288 C287 1.313 . S
C289 O290 1.245 . S
C289 O298 1.289 . S
O290 C289 1.245 . S
C291 O292 1.237 1_455 S
C291 O293 1.297 . S
O292 C291 1.237 1_655 S
O293 Mg286 2.141 . S
O293 C291 1.297 . S
O294 Mg286 2.048 1_655 S
O294 C287 1.195 . S
O295 Mg286 2.048 . S
O295 C296 1.195 1_455 S
C296 O295 1.195 1_655 S
C296 O297 1.313 . S
O297 C296 1.313 . S
O298 Mg286 2.141 . S
O298 C289 1.289 . S
Mg299 O306 2.141 . S
Mg299 O307 2.048 . S
Mg299 O308 2.048 . S
Mg299 O311 2.141 . S
C300 O301 1.313 1_565 S
C300 O307 1.195 . S
O301 C300 1.313 1_545 S
C302 O303 1.245 . S
C302 O311 1.289 1_545 S
O303 C302 1.245 . S
C304 O305 1.245 1_565 S
C304 O306 1.289 . S
O305 C304 1.245 1_545 S
O306 Mg299 2.141 . S
O306 C304 1.289 . S
O307 Mg299 2.048 . S
O307 C300 1.195 . S
O308 Mg299 2.048 . S
O308 C309 1.195 . S
C309 O308 1.195 . S
C309 O310 1.313 1_565 S
O310 C309 1.313 1_545 S
O311 Mg299 2.141 . S
O311 C302 1.289 1_565 S
Mg312 O319 2.141 . S
Mg312 O320 2.048 . S
Mg312 O321 2.048 1_655 S
Mg312 O324 2.141 . S
C313 O314 1.313 . S
C313 O320 1.195 1_455 S
O314 C313 1.313 . S
C315 O316 1.237 1_655 S
C315 O324 1.297 . S
O316 C315 1.237 1_455 S
C317 O318 1.245 . S
C317 O319 1.289 . S
O318 C317 1.245 . S
O319 Mg312 2.141 . S
O319 C317 1.289 . S
O320 Mg312 2.048 . S
O320 C313 1.195 1_655 S
O321 Mg312 2.048 1_455 S
O321 C322 1.195 . S
C322 O321 1.195 . S
C322 O323 1.313 . S
O323 C322 1.313 . S
O324 Mg312 2.141 . S
O324 C315 1.297 . S
Mg325 O332 2.141 . S
Mg325 O333 2.048 . S
Mg325 O334 2.048 . S
Mg325 O337 2.141 . S
C326 O327 1.313 . S
C326 O333 1.195 . S
O327 C326 1.313 . S
C328 O329 1.245 . S
C328 O337 1.289 . S
O329 C328 1.245 . S
C330 O331 1.245 . S
C330 O332 1.289 . S
O331 C330 1.245 . S
O332 Mg325 2.141 . S
O332 C330 1.289 . S
O333 Mg325 2.048 . S
O333 C326 1.195 . S
O334 Mg325 2.048 . S
O334 C335 1.195 . S
C335 O334 1.195 . S
C335 O336 1.313 . S
O336 C335 1.313 . S
O337 Mg325 2.141 . S
O337 C328 1.289 . S
Mg338 O345 2.141 . S
Mg338 O346 2.048 . S
Mg338 O347 2.048 1_655 S
Mg338 O350 2.141 . S
C339 O340 1.313 . S
C339 O346 1.195 1_455 S
O340 C339 1.313 . S
C341 O342 1.234 1_655 S
C341 O350 1.300 . S
O342 C341 1.234 1_455 S
C343 O344 1.245 . S
C343 O345 1.289 . S
O344 C343 1.245 . S
O345 Mg338 2.141 . S
O345 C343 1.289 . S
O346 Mg338 2.048 . S
O346 C339 1.195 1_655 S
O347 Mg338 2.048 1_455 S
O347 C348 1.195 . S
C348 O347 1.195 . S
C348 O349 1.313 . S
O349 C348 1.313 . S
O350 Mg338 2.141 . S
O350 C341 1.300 . S
Mg351 O358 2.141 . S
Mg351 O359 2.048 . S
Mg351 O360 2.048 . S
Mg351 O363 2.141 . S
C352 O353 1.313 . S
C352 O359 1.195 . S
O353 C352 1.313 . S
C354 O355 1.245 . S
C354 O363 1.289 . S
O355 C354 1.245 . S
C356 O357 1.245 . S
C356 O358 1.289 . S
O357 C356 1.245 . S
O358 Mg351 2.141 . S
O358 C356 1.289 . S
O359 Mg351 2.048 . S
O359 C352 1.195 . S
O360 Mg351 2.048 . S
O360 C361 1.195 . S
C361 O360 1.195 . S
C361 O362 1.313 . S
O362 C361 1.313 . S
O363 Mg351 2.141 . S
O363 C354 1.289 . S
Mg364 O371 2.141 . S
Mg364 O372 2.048 1_455 S
Mg364 O373 2.048 . S
Mg364 O376 2.141 . S
C365 O366 1.313 . S
C365 O372 1.195 . S
O366 C365 1.313 . S
C367 O368 1.245 . S
C367 O376 1.289 . S
O368 C367 1.245 . S
C369 O370 1.237 1_455 S
C369 O371 1.297 . S
O370 C369 1.237 1_655 S
O371 Mg364 2.141 . S
O371 C369 1.297 . S
O372 Mg364 2.048 1_655 S
O372 C365 1.195 . S
O373 Mg364 2.048 . S
O373 C374 1.195 1_455 S
C374 O373 1.195 1_655 S
C374 O375 1.313 . S
O375 C374 1.313 . S
O376 Mg364 2.141 . S
O376 C367 1.289 . S
Mg377 O384 2.141 . S
Mg377 O385 2.048 . S
Mg377 O386 2.048 . S
Mg377 O389 2.141 . S
C378 O379 1.313 . S
C378 O385 1.195 . S
O379 C378 1.313 . S
C380 O381 1.245 . S
C380 O389 1.289 . S
O381 C380 1.245 . S
C382 O383 1.245 . S
C382 O384 1.289 . S
O383 C382 1.245 . S
O384 Mg377 2.141 . S
O384 C382 1.289 . S
O385 Mg377 2.048 . S
O385 C378 1.195 . S
O386 Mg377 2.048 . S
O386 C387 1.195 . S
C387 O386 1.195 . S
C387 O388 1.313 . S
O388 C387 1.313 . S
O389 Mg377 2.141 . S
O389 C380 1.289 . S
Mg390 O397 2.141 . S
Mg390 O398 2.048 1_455 S
Mg390 O399 2.048 . S
Mg390 O402 2.141 . S
C391 O392 1.313 . S
C391 O398 1.195 . S
O392 C391 1.313 . S
C393 O394 1.245 . S
C393 O402 1.289 . S
O394 C393 1.245 . S
C395 O396 1.234 1_455 S
C395 O397 1.300 . S
O396 C395 1.234 1_655 S
O397 Mg390 2.141 . S
O397 C395 1.300 . S
O398 Mg390 2.048 1_655 S
O398 C391 1.195 . S
O399 Mg390 2.048 . S
O399 C400 1.195 1_455 S
C400 O399 1.195 1_655 S
C400 O401 1.313 . S
O401 C400 1.313 . S
O402 Mg390 2.141 . S
O402 C393 1.289 . S
Mg403 O410 2.141 . S
Mg403 O411 2.048 . S
Mg403 O412 2.048 . S
Mg403 O415 2.141 . S
C404 O405 1.313 . S
C404 O411 1.195 . S
O405 C404 1.313 . S
C406 O407 1.245 . S
C406 O415 1.289 . S
O407 C406 1.245 . S
C408 O409 1.245 . S
C408 O410 1.289 . S
O409 C408 1.245 . S
O410 Mg403 2.141 . S
O410 C408 1.289 . S
O411 Mg403 2.048 . S
O411 C404 1.195 . S
O412 Mg403 2.048 . S
O412 C413 1.195 . S
C413 O412 1.195 . S
C413 O414 1.313 . S
O414 C413 1.313 . S
O415 Mg403 2.141 . S
O415 C406 1.289 . S
C416 C417 1.387 . S
C416 H420 0.950 . S
C416 C425 1.390 . S
C417 C416 1.387 . S
C417 C419 1.387 . S
H418 C425 0.950 . S
C419 C417 1.387 . S
C419 C421 1.390 . S
C419 H423 0.950 . S
H420 C416 0.950 . S
C421 C419 1.390 . S
C421 C422 1.387 . S
C421 H424 0.950 . S
C422 C421 1.387 . S
C422 C425 1.387 . S
H423 C419 0.950 . S
H424 C421 0.950 . S
C425 C416 1.390 . S
C425 H418 0.950 . S
C425 C422 1.387 . S
C426 C427 1.387 . S
C426 H430 0.950 . S
C426 C435 1.390 . S
C427 C426 1.387 . S
C427 C429 1.387 . S
H428 C435 0.950 . S
C429 C427 1.387 . S
C429 C431 1.390 . S
C429 H433 0.950 . S
H430 C426 0.950 . S
C431 C429 1.390 . S
C431 C432 1.387 . S
C431 H434 0.950 . S
C432 C431 1.387 . S
C432 C435 1.387 . S
H433 C429 0.950 . S
H434 C431 0.950 . S
C435 C426 1.390 . S
C435 H428 0.950 . S
C435 C432 1.387 . S
C436 C437 1.387 . S
C436 H440 0.950 . S
C436 C445 1.390 . S
C437 C436 1.387 . S
C437 C439 1.387 . S
H438 C445 0.950 . S
C439 C437 1.387 . S
C439 C441 1.390 . S
C439 H443 0.950 . S
H440 C436 0.950 . S
C441 C439 1.390 . S
C441 C442 1.387 . S
C441 H444 0.950 . S
C442 C441 1.387 . S
C442 C445 1.387 . S
H443 C439 0.950 . S
H444 C441 0.950 . S
C445 C436 1.390 . S
C445 H438 0.950 . S
C445 C442 1.387 . S
C446 C447 1.387 . S
C446 H450 0.950 . S
C446 C455 1.390 . S
C447 C446 1.387 . S
C447 C449 1.387 . S
H448 C455 0.950 . S
C449 C447 1.387 . S
C449 C451 1.390 . S
C449 H453 0.950 . S
H450 C446 0.950 . S
C451 C449 1.390 . S
C451 C452 1.387 . S
C451 H454 0.950 . S
C452 C451 1.387 . S
C452 C455 1.387 . S
H453 C449 0.950 . S
H454 C451 0.950 . S
C455 C446 1.390 . S
C455 H448 0.950 . S
C455 C452 1.387 . S
C456 C457 1.387 . S
C456 H460 0.950 . S
C456 C465 1.390 . S
C457 C456 1.387 . S
C457 C459 1.387 . S
H458 C465 0.950 . S
C459 C457 1.387 . S
C459 C461 1.390 . S
C459 H463 0.950 . S
H460 C456 0.950 . S
C461 C459 1.390 . S
C461 C462 1.387 . S
C461 H464 0.950 . S
C462 C461 1.387 . S
C462 C465 1.387 . S
H463 C459 0.950 . S
H464 C461 0.950 . S
C465 C456 1.390 . S
C465 H458 0.950 . S
C465 C462 1.387 . S
C466 C467 1.387 . S
C466 H470 0.950 . S
C466 C475 1.390 . S
C467 C466 1.387 . S
C467 C469 1.387 . S
H468 C475 0.950 . S
C469 C467 1.387 . S
C469 C471 1.390 . S
C469 H473 0.950 . S
H470 C466 0.950 . S
C471 C469 1.390 . S
C471 C472 1.387 . S
C471 H474 0.950 . S
C472 C471 1.387 . S
C472 C475 1.387 . S
H473 C469 0.950 . S
H474 C471 0.950 . S
C475 C466 1.390 . S
C475 H468 0.950 . S
C475 C472 1.387 . S
C476 C477 1.387 . S
C476 H480 0.950 . S
C476 C485 1.390 . S
C477 C476 1.387 . S
C477 C479 1.387 . S
H478 C485 0.950 . S
C479 C477 1.387 . S
C479 C481 1.390 . S
C479 H483 0.950 . S
H480 C476 0.950 . S
C481 C479 1.390 . S
C481 C482 1.387 . S
C481 H484 0.950 . S
C482 C481 1.387 . S
C482 C485 1.387 . S
H483 C479 0.950 . S
H484 C481 0.950 . S
C485 C476 1.390 . S
C485 H478 0.950 . S
C485 C482 1.387 . S
C486 C487 1.387 . S
C486 H490 0.950 . S
C486 C495 1.390 . S
C487 C486 1.387 . S
C487 C489 1.387 . S
H488 C495 0.950 . S
C489 C487 1.387 . S
C489 C491 1.390 . S
C489 H493 0.950 . S
H490 C486 0.950 . S
C491 C489 1.390 . S
C491 C492 1.387 . S
C491 H494 0.950 . S
C492 C491 1.387 . S
C492 C495 1.387 . S
H493 C489 0.950 . S
H494 C491 0.950 . S
C495 C486 1.390 . S
C495 H488 0.950 . S
C495 C492 1.387 . S
C496 C497 1.360 1_455 S
C496 H500 0.950 . S
C496 C505 1.390 . S
C497 C496 1.360 1_655 S
C497 C499 1.416 . S
H498 C505 0.950 . S
C499 C497 1.416 . S
C499 C501 1.390 . S
C499 H503 0.950 . S
H500 C496 0.950 . S
C501 C499 1.390 . S
C501 C502 1.387 . S
C501 H504 0.950 . S
C502 C501 1.387 . S
C502 C505 1.387 1_655 S
H503 C499 0.950 . S
H504 C501 0.950 . S
C505 C496 1.390 . S
C505 H498 0.950 . S
C505 C502 1.387 1_455 S
C506 C507 1.387 . S
C506 H510 0.950 . S
C506 C515 1.390 . S
C507 C506 1.387 . S
C507 C509 1.387 . S
H508 C515 0.950 . S
C509 C507 1.387 . S
C509 C511 1.390 . S
C509 H513 0.950 . S
H510 C506 0.950 . S
C511 C509 1.390 . S
C511 C512 1.387 . S
C511 H514 0.950 . S
C512 C511 1.387 . S
C512 C515 1.387 . S
H513 C509 0.950 . S
H514 C511 0.950 . S
C515 C506 1.390 . S
C515 H508 0.950 . S
C515 C512 1.387 . S
C516 C517 1.387 1_655 S
C516 H520 0.950 . S
C516 C525 1.390 . S
C517 C516 1.387 1_455 S
C517 C519 1.387 . S
H518 C525 0.950 . S
C519 C517 1.387 . S
C519 C521 1.390 . S
C519 H523 0.950 . S
H520 C516 0.950 . S
C521 C519 1.390 . S
C521 C522 1.416 . S
C521 H524 0.950 . S
C522 C521 1.416 . S
C522 C525 1.359 1_455 S
H523 C519 0.950 . S
H524 C521 0.950 . S
C525 C516 1.390 . S
C525 H518 0.950 . S
C525 C522 1.359 1_655 S
C526 C527 1.387 . S
C526 H530 0.950 . S
C526 C535 1.390 . S
C527 C526 1.387 . S
C527 C529 1.387 . S
H528 C535 0.950 . S
C529 C527 1.387 . S
C529 C531 1.390 . S
C529 H533 0.950 . S
H530 C526 0.950 . S
C531 C529 1.390 . S
C531 C532 1.387 . S
C531 H534 0.950 1_565 S
C532 C531 1.387 . S
C532 C535 1.387 . S
H533 C529 0.950 . S
H534 C531 0.950 1_545 S
C535 C526 1.390 . S
C535 H528 0.950 . S
C535 C532 1.387 . S
C536 C537 1.387 1_455 S
C536 H540 0.950 . S
C536 C545 1.390 . S
C537 C536 1.387 1_655 S
C537 C539 1.387 . S
H538 C545 0.950 . S
C539 C537 1.387 . S
C539 C541 1.390 . S
C539 H543 0.950 . S
H540 C536 0.950 . S
C541 C539 1.390 . S
C541 C542 1.387 . S
C541 H544 0.950 . S
C542 C541 1.387 . S
C542 C545 1.387 1_655 S
H543 C539 0.950 . S
H544 C541 0.950 . S
C545 C536 1.390 . S
C545 H538 0.950 . S
C545 C542 1.387 1_455 S
C546 C547 1.387 . S
C546 H550 0.950 . S
C546 C555 1.390 . S
C547 C546 1.387 . S
C547 C549 1.387 . S
H548 C555 0.950 . S
C549 C547 1.387 . S
C549 C551 1.390 . S
C549 H553 0.950 . S
H550 C546 0.950 . S
C551 C549 1.390 . S
C551 C552 1.387 . S
C551 H554 0.950 . S
C552 C551 1.387 . S
C552 C555 1.387 . S
H553 C549 0.950 . S
H554 C551 0.950 . S
C555 C546 1.390 . S
C555 H548 0.950 . S
C555 C552 1.387 . S
C556 C557 1.387 1_655 S
C556 H560 0.950 . S
C556 C565 1.390 . S
C557 C556 1.387 1_455 S
C557 C559 1.387 . S
H558 C565 0.950 . S
C559 C557 1.387 . S
C559 C561 1.390 . S
C559 H563 0.950 . S
H560 C556 0.950 . S
C561 C559 1.390 . S
C561 C562 1.387 . S
C561 H564 0.950 . S
C562 C561 1.387 . S
C562 C565 1.387 1_455 S
H563 C559 0.950 . S
H564 C561 0.950 . S
C565 C556 1.390 . S
C565 H558 0.950 . S
C565 C562 1.387 1_655 S
C566 C567 1.387 . S
C566 H570 0.950 . S
C566 C575 1.390 . S
C567 C566 1.387 . S
C567 C569 1.387 . S
H568 C575 0.950 . S
C569 C567 1.387 . S
C569 C571 1.390 . S
C569 H573 0.950 . S
H570 C566 0.950 . S
C571 C569 1.390 . S
C571 C572 1.387 . S
C571 H574 0.950 . S
C572 C571 1.387 . S
C572 C575 1.387 . S
H573 C569 0.950 . S
H574 C571 0.950 . S
C575 C566 1.390 . S
C575 H568 0.950 . S
C575 C572 1.387 . S
C576 C577 1.387 . S
C576 H580 0.950 . S
C576 C585 1.390 . S
C577 C576 1.387 . S
C577 C579 1.387 . S
H578 C585 0.950 . S
C579 C577 1.387 . S
C579 C581 1.390 . S
C579 H583 0.950 . S
H580 C576 0.950 . S
C581 C579 1.390 . S
C581 C582 1.387 . S
C581 H584 0.950 . S
C582 C581 1.387 . S
C582 C585 1.387 . S
H583 C579 0.950 . S
H584 C581 0.950 . S
C585 C576 1.390 . S
C585 H578 0.950 . S
C585 C582 1.387 . S
C586 C587 1.387 . S
C586 H590 0.950 . S
C586 C595 1.390 . S
C587 C586 1.387 . S
C587 C589 1.387 . S
H588 C595 0.950 . S
C589 C587 1.387 . S
C589 C591 1.390 . S
C589 H593 0.950 . S
H590 C586 0.950 . S
C591 C589 1.390 . S
C591 C592 1.387 . S
C591 H594 0.950 . S
C592 C591 1.387 . S
C592 C595 1.387 . S
H593 C589 0.950 . S
H594 C591 0.950 . S
C595 C586 1.390 . S
C595 H588 0.950 . S
C595 C592 1.387 . S
C596 C597 1.387 . S
C596 H600 0.950 . S
C596 C605 1.390 . S
C597 C596 1.387 . S
C597 C599 1.387 . S
H598 C605 0.950 . S
C599 C597 1.387 . S
C599 C601 1.390 . S
C599 H603 0.950 . S
H600 C596 0.950 . S
C601 C599 1.390 . S
C601 C602 1.387 . S
C601 H604 0.950 . S
C602 C601 1.387 . S
C602 C605 1.387 . S
H603 C599 0.950 . S
H604 C601 0.950 . S
C605 C596 1.390 . S
C605 H598 0.950 . S
C605 C602 1.387 . S
C606 C607 1.387 . S
C606 H610 0.950 . S
C606 C615 1.390 . S
C607 C606 1.387 . S
C607 C609 1.387 . S
H608 C615 0.950 . S
C609 C607 1.387 . S
C609 C611 1.390 . S
C609 H613 0.950 . S
H610 C606 0.950 . S
C611 C609 1.390 . S
C611 C612 1.387 . S
C611 H614 0.950 . S
C612 C611 1.387 . S
C612 C615 1.387 . S
H613 C609 0.950 . S
H614 C611 0.950 . S
C615 C606 1.390 . S
C615 H608 0.950 . S
C615 C612 1.387 . S
C616 C617 1.387 . S
C616 H620 0.950 . S
C616 C625 1.390 . S
C617 C616 1.387 . S
C617 C619 1.387 . S
H618 C625 0.950 . S
C619 C617 1.387 . S
C619 C621 1.390 . S
C619 H623 0.950 . S
H620 C616 0.950 . S
C621 C619 1.390 . S
C621 C622 1.387 . S
C621 H624 0.950 . S
C622 C621 1.387 . S
C622 C625 1.387 . S
H623 C619 0.950 . S
H624 C621 0.950 . S
C625 C616 1.390 . S
C625 H618 0.950 . S
C625 C622 1.387 . S
C626 C627 1.387 . S
C626 H630 0.950 . S
C626 C635 1.390 . S
C627 C626 1.387 . S
C627 C629 1.387 . S
H628 C635 0.950 . S
C629 C627 1.387 . S
C629 C631 1.390 . S
C629 H633 0.950 . S
H630 C626 0.950 . S
C631 C629 1.390 . S
C631 C632 1.387 . S
C631 H634 0.950 . S
C632 C631 1.387 . S
C632 C635 1.387 . S
H633 C629 0.950 . S
H634 C631 0.950 . S
C635 C626 1.390 . S
C635 H628 0.950 . S
C635 C632 1.387 . S
C636 C637 1.387 . S
C636 H640 0.950 . S
C636 C645 1.390 . S
C637 C636 1.387 . S
C637 C639 1.387 . S
H638 C645 0.950 . S
C639 C637 1.387 . S
C639 C641 1.390 . S
C639 H643 0.950 . S
H640 C636 0.950 . S
C641 C639 1.390 . S
C641 C642 1.387 . S
C641 H644 0.950 . S
C642 C641 1.387 . S
C642 C645 1.387 . S
H643 C639 0.950 . S
H644 C641 0.950 . S
C645 C636 1.390 . S
C645 H638 0.950 . S
C645 C642 1.387 . S
C646 C647 1.387 . S
C646 H650 0.950 . S
C646 C655 1.390 . S
C647 C646 1.387 . S
C647 C649 1.387 . S
H648 C655 0.950 . S
C649 C647 1.387 . S
C649 C651 1.390 . S
C649 H653 0.950 . S
H650 C646 0.950 . S
C651 C649 1.390 . S
C651 C652 1.387 . S
C651 H654 0.950 . S
C652 C651 1.387 . S
C652 C655 1.387 . S
H653 C649 0.950 . S
H654 C651 0.950 . S
C655 C646 1.390 . S
C655 H648 0.950 . S
C655 C652 1.387 . S
C656 C657 1.387 . S
C656 H660 0.950 . S
C656 C665 1.390 . S
C657 C656 1.387 . S
C657 C659 1.387 . S
H658 C665 0.950 . S
C659 C657 1.387 . S
C659 C661 1.390 . S
C659 H663 0.950 . S
H660 C656 0.950 . S
C661 C659 1.390 . S
C661 C662 1.387 . S
C661 H664 0.950 . S
C662 C661 1.387 . S
C662 C665 1.387 . S
H663 C659 0.950 . S
H664 C661 0.950 . S
C665 C656 1.390 . S
C665 H658 0.950 . S
C665 C662 1.387 . S
C666 C667 1.387 . S
C666 H670 0.950 . S
C666 C675 1.390 . S
C667 C666 1.387 . S
C667 C669 1.387 . S
H668 C675 0.950 . S
C669 C667 1.387 . S
C669 C671 1.390 . S
C669 H673 0.950 . S
H670 C666 0.950 . S
C671 C669 1.390 . S
C671 C672 1.387 . S
C671 H674 0.950 . S
C672 C671 1.387 . S
C672 C675 1.387 . S
H673 C669 0.950 . S
H674 C671 0.950 . S
C675 C666 1.390 . S
C675 H668 0.950 . S
C675 C672 1.387 . S
C676 C677 1.387 . S
C676 H680 0.950 . S
C676 C685 1.390 . S
C677 C676 1.387 . S
C677 C679 1.387 . S
H678 C685 0.950 . S
C679 C677 1.387 . S
C679 C681 1.390 . S
C679 H683 0.950 . S
H680 C676 0.950 . S
C681 C679 1.390 . S
C681 C682 1.387 . S
C681 H684 0.950 . S
C682 C681 1.387 . S
C682 C685 1.387 . S
H683 C679 0.950 . S
H684 C681 0.950 . S
C685 C676 1.390 . S
C685 H678 0.950 . S
C685 C682 1.387 . S
C686 C687 1.387 . S
C686 H690 0.950 . S
C686 C695 1.390 . S
C687 C686 1.387 . S
C687 C689 1.387 . S
H688 C695 0.950 . S
C689 C687 1.387 . S
C689 C691 1.390 . S
C689 H693 0.950 . S
H690 C686 0.950 . S
C691 C689 1.390 . S
C691 C692 1.387 . S
C691 H694 0.950 . S
C692 C691 1.387 . S
C692 C695 1.387 . S
H693 C689 0.950 . S
H694 C691 0.950 . S
C695 C686 1.390 . S
C695 H688 0.950 . S
C695 C692 1.387 . S
C696 C697 1.387 . S
C696 H700 0.950 . S
C696 C705 1.390 . S
C697 C696 1.387 . S
C697 C699 1.387 . S
H698 C705 0.950 . S
C699 C697 1.387 . S
C699 C701 1.390 . S
C699 H703 0.950 . S
H700 C696 0.950 . S
C701 C699 1.390 . S
C701 C702 1.387 . S
C701 H704 0.950 . S
C702 C701 1.387 . S
C702 C705 1.387 . S
H703 C699 0.950 . S
H704 C701 0.950 . S
C705 C696 1.390 . S
C705 H698 0.950 . S
C705 C702 1.387 . S
C706 C707 1.387 . S
C706 H710 0.950 . S
C706 C715 1.390 . S
C707 C706 1.387 . S
C707 C709 1.387 . S
H708 C715 0.950 . S
C709 C707 1.387 . S
C709 C711 1.390 . S
C709 H713 0.950 . S
H710 C706 0.950 . S
C711 C709 1.390 . S
C711 C712 1.387 . S
C711 H714 0.950 . S
C712 C711 1.387 . S
C712 C715 1.387 . S
H713 C709 0.950 . S
H714 C711 0.950 . S
C715 C706 1.390 . S
C715 H708 0.950 . S
C715 C712 1.387 . S
C716 C717 1.387 . S
C716 H720 0.950 . S
C716 C725 1.390 . S
C717 C716 1.387 . S
C717 C719 1.387 . S
H718 C725 0.950 . S
C719 C717 1.387 . S
C719 C721 1.390 . S
C719 H723 0.950 . S
H720 C716 0.950 . S
C721 C719 1.390 . S
C721 C722 1.387 . S
C721 H724 0.950 . S
C722 C721 1.387 . S
C722 C725 1.387 . S
H723 C719 0.950 . S
H724 C721 0.950 . S
C725 C716 1.390 . S
C725 H718 0.950 . S
C725 C722 1.387 . S
C726 C727 1.387 . S
C726 H730 0.950 . S
C726 C735 1.390 . S
C727 C726 1.387 . S
C727 C729 1.387 . S
H728 C735 0.950 . S
C729 C727 1.387 . S
C729 C731 1.390 . S
C729 H733 0.950 . S
H730 C726 0.950 . S
C731 C729 1.390 . S
C731 C732 1.387 . S
C731 H734 0.950 . S
C732 C731 1.387 . S
C732 C735 1.387 . S
H733 C729 0.950 . S
H734 C731 0.950 . S
C735 C726 1.390 . S
C735 H728 0.950 . S
C735 C732 1.387 . S
C736 C737 1.387 . S
C736 H740 0.950 . S
C736 C745 1.390 1_554 S
C737 C736 1.387 . S
C737 C739 1.387 1_545 S
H738 C745 0.950 . S
C739 C737 1.387 1_565 S
C739 C741 1.390 1_554 S
C739 H743 0.950 . S
H740 C736 0.950 . S
C741 C739 1.390 1_556 S
C741 C742 1.387 . S
C741 H744 0.950 . S
C742 C741 1.387 . S
C742 C745 1.387 1_565 S
H743 C739 0.950 . S
H744 C741 0.950 . S
C745 C736 1.390 1_556 S
C745 H738 0.950 . S
C745 C742 1.387 1_545 S
C746 C747 1.387 . S
C746 H750 0.950 . S
C746 C755 1.390 1_554 S
C747 C746 1.387 . S
C747 C749 1.387 . S
H748 C755 0.950 . S
C749 C747 1.387 . S
C749 C751 1.390 1_554 S
C749 H753 0.950 . S
H750 C746 0.950 . S
C751 C749 1.390 1_556 S
C751 C752 1.387 . S
C751 H754 0.950 . S
C752 C751 1.387 . S
C752 C755 1.387 . S
H753 C749 0.950 . S
H754 C751 0.950 . S
C755 C746 1.390 1_556 S
C755 H748 0.950 . S
C755 C752 1.387 . S
C756 C757 1.387 . S
C756 H760 0.950 . S
C756 C765 1.390 . S
C757 C756 1.387 . S
C757 C759 1.387 . S
H758 C765 0.950 . S
C759 C757 1.387 . S
C759 C761 1.390 . S
C759 H763 0.950 . S
H760 C756 0.950 . S
C761 C759 1.390 . S
C761 C762 1.387 . S
C761 H764 0.950 . S
C762 C761 1.387 . S
C762 C765 1.387 . S
H763 C759 0.950 . S
H764 C761 0.950 . S
C765 C756 1.390 . S
C765 H758 0.950 . S
C765 C762 1.387 . S
C766 C767 1.387 1_565 S
C766 H770 0.950 . S
C766 C775 1.390 . S
C767 C766 1.387 1_545 S
C767 C769 1.387 . S
H768 C775 0.950 . S
C769 C767 1.387 . S
C769 C771 1.390 . S
C769 H773 0.950 . S
H770 C766 0.950 . S
C771 C769 1.390 . S
C771 C772 1.387 1_545 S
C771 H774 0.950 . S
C772 C771 1.387 1_565 S
C772 C775 1.387 . S
H773 C769 0.950 . S
H774 C771 0.950 . S
C775 C766 1.390 . S
C775 H768 0.950 . S
C775 C772 1.387 . S
C776 C777 1.387 . S
C776 H780 0.950 . S
C776 C785 1.390 1_556 S
C777 C776 1.387 . S
C777 C779 1.387 . S
H778 C785 0.950 . S
C779 C777 1.387 . S
C779 C781 1.390 1_556 S
C779 H783 0.950 . S
H780 C776 0.950 . S
C781 C779 1.390 1_554 S
C781 C782 1.387 . S
C781 H784 0.950 . S
C782 C781 1.387 . S
C782 C785 1.387 . S
H783 C779 0.950 . S
H784 C781 0.950 . S
C785 C776 1.390 1_554 S
C785 H778 0.950 . S
C785 C782 1.387 . S
C786 C787 1.387 . S
C786 H790 0.950 . S
C786 C795 1.390 . S
C787 C786 1.387 . S
C787 C789 1.387 . S
H788 C795 0.950 . S
C789 C787 1.387 . S
C789 C791 1.390 . S
C789 H793 0.950 . S
H790 C786 0.950 . S
C791 C789 1.390 . S
C791 C792 1.387 . S
C791 H794 0.950 . S
C792 C791 1.387 . S
C792 C795 1.387 . S
H793 C789 0.950 . S
H794 C791 0.950 . S
C795 C786 1.390 . S
C795 H788 0.950 . S
C795 C792 1.387 . S
C796 C797 1.387 1_565 S
C796 H800 0.950 . S
C796 C805 1.390 . S
C797 C796 1.387 1_545 S
C797 C799 1.387 . S
H798 C805 0.950 . S
C799 C797 1.387 . S
C799 C801 1.390 . S
C799 H803 0.950 . S
H800 C796 0.950 . S
C801 C799 1.390 . S
C801 C802 1.387 1_545 S
C801 H804 0.950 . S
C802 C801 1.387 1_565 S
C802 C805 1.387 . S
H803 C799 0.950 . S
H804 C801 0.950 . S
C805 C796 1.390 . S
C805 H798 0.950 . S
C805 C802 1.387 . S
C806 C807 1.387 . S
C806 H810 0.950 . S
C806 C815 1.390 . S
C807 C806 1.387 . S
C807 C809 1.387 . S
H808 C815 0.950 . S
C809 C807 1.387 . S
C809 C811 1.390 . S
C809 H813 0.950 . S
H810 C806 0.950 . S
C811 C809 1.390 . S
C811 C812 1.387 . S
C811 H814 0.950 . S
C812 C811 1.387 . S
C812 C815 1.387 . S
H813 C809 0.950 . S
H814 C811 0.950 . S
C815 C806 1.390 . S
C815 H808 0.950 . S
C815 C812 1.387 . S
C816 C817 1.387 . S
C816 H820 0.950 . S
C816 C825 1.390 . S
C817 C816 1.387 . S
C817 C819 1.387 . S
H818 C825 0.950 . S
C819 C817 1.387 . S
C819 C821 1.390 . S
C819 H823 0.950 . S
H820 C816 0.950 . S
C821 C819 1.390 . S
C821 C822 1.387 . S
C821 H824 0.950 . S
C822 C821 1.387 . S
C822 C825 1.387 . S
H823 C819 0.950 . S
H824 C821 0.950 . S
C825 C816 1.390 . S
C825 H818 0.950 . S
C825 C822 1.387 . S
C826 C827 1.387 . S
C826 H830 0.950 . S
C826 C835 1.390 . S
C827 C826 1.387 . S
C827 C829 1.387 . S
H828 C835 0.950 . S
C829 C827 1.387 . S
C829 C831 1.390 . S
C829 H833 0.950 . S
H830 C826 0.950 . S
C831 C829 1.390 . S
C831 C832 1.387 . S
C831 H834 0.950 . S
C832 C831 1.387 . S
C832 C835 1.387 . S
H833 C829 0.950 . S
H834 C831 0.950 . S
C835 C826 1.390 . S
C835 H828 0.950 . S
C835 C832 1.387 . S
C836 C837 1.387 . S
C836 H840 0.950 . S
C836 C845 1.390 . S
C837 C836 1.387 . S
C837 C839 1.387 . S
H838 C845 0.950 . S
C839 C837 1.387 . S
C839 C841 1.390 . S
C839 H843 0.950 . S
H840 C836 0.950 . S
C841 C839 1.390 . S
C841 C842 1.387 . S
C841 H844 0.950 . S
C842 C841 1.387 . S
C842 C845 1.387 . S
H843 C839 0.950 . S
H844 C841 0.950 . S
C845 C836 1.390 . S
C845 H838 0.950 . S
C845 C842 1.387 . S
C846 C847 1.387 . S
C846 H850 0.950 . S
C846 C855 1.390 . S
C847 C846 1.387 . S
C847 C849 1.387 . S
H848 C855 0.950 . S
C849 C847 1.387 . S
C849 C851 1.390 . S
C849 H853 0.950 . S
H850 C846 0.950 . S
C851 C849 1.390 . S
C851 C852 1.387 . S
C851 H854 0.950 . S
C852 C851 1.387 . S
C852 C855 1.387 . S
H853 C849 0.950 . S
H854 C851 0.950 . S
C855 C846 1.390 . S
C855 H848 0.950 . S
C855 C852 1.387 . S
C856 C857 1.385 1_445 S
C856 H860 0.950 . S
C856 C865 1.390 . S
C857 C856 1.385 1_665 S
C857 C859 1.390 . S
H858 C865 0.950 . S
C859 C857 1.390 . S
C859 C861 1.390 . S
C859 H863 0.950 . S
H860 C856 0.950 . S
C861 C859 1.390 . S
C861 C862 1.385 1_665 S
C861 H864 0.950 . S
C862 C861 1.385 1_445 S
C862 C865 1.390 . S
H863 C859 0.950 . S
H864 C861 0.950 . S
C865 C856 1.390 . S
C865 H858 0.950 . S
C865 C862 1.390 . S
C866 C867 1.391 . S
C866 H870 0.950 . S
C866 C875 1.390 . S
C867 C866 1.391 . S
C867 C869 1.384 1_455 S
H868 C875 0.950 . S
C869 C867 1.384 1_655 S
C869 C871 1.390 . S
C869 H873 0.950 . S
H870 C866 0.950 . S
C871 C869 1.390 . S
C871 C872 1.390 1_655 S
C871 H874 0.950 . S
C872 C871 1.390 1_455 S
C872 C875 1.385 . S
H873 C869 0.950 . S
H874 C871 0.950 . S
C875 C866 1.390 . S
C875 H868 0.950 . S
C875 C872 1.385 . S
C876 C877 1.391 1_455 S
C876 H880 0.950 . S
C876 C885 1.390 . S
C877 C876 1.391 1_655 S
C877 C879 1.384 . S
H878 C885 0.950 . S
C879 C877 1.384 . S
C879 C881 1.390 . S
C879 H883 0.950 . S
H880 C876 0.950 . S
C881 C879 1.390 . S
C881 C882 1.392 . S
C881 H884 0.950 . S
C882 C881 1.392 . S
C882 C885 1.383 1_655 S
H883 C879 0.950 . S
H884 C881 0.950 . S
C885 C876 1.390 . S
C885 H878 0.950 . S
C885 C882 1.383 1_455 S
C886 C887 1.381 1_455 S
C886 H890 0.950 . S
C886 C895 1.390 1_556 S
C887 C886 1.381 1_655 S
C887 C889 1.394 . S
H888 C895 0.950 . S
C889 C887 1.394 . S
C889 C891 1.390 1_556 S
C889 H893 0.950 . S
H890 C886 0.950 . S
C891 C889 1.390 1_554 S
C891 C892 1.381 1_655 S
C891 H894 0.950 . S
C892 C891 1.381 1_455 S
C892 C895 1.394 . S
H893 C889 0.950 . S
H894 C891 0.950 . S
C895 C886 1.390 1_554 S
C895 H888 0.950 . S
C895 C892 1.394 . S
C896 C897 1.387 . S
C896 H900 0.950 . S
C896 C905 1.390 . S
C897 C896 1.387 . S
C897 C899 1.387 . S
H898 C905 0.950 . S
C899 C897 1.387 . S
C899 C901 1.390 . S
C899 H903 0.950 . S
H900 C896 0.950 . S
C901 C899 1.390 . S
C901 C902 1.387 . S
C901 H904 0.950 . S
C902 C901 1.387 . S
C902 C905 1.387 . S
H903 C899 0.950 . S
H904 C901 0.950 . S
C905 C896 1.390 . S
C905 H898 0.950 . S
C905 C902 1.387 . S
C906 C907 1.387 . S
C906 H910 0.950 . S
C906 C915 1.390 . S
C907 C906 1.387 . S
C907 C909 1.387 . S
H908 C915 0.950 . S
C909 C907 1.387 . S
C909 C911 1.390 . S
C909 H913 0.950 . S
H910 C906 0.950 . S
C911 C909 1.390 . S
C911 C912 1.387 . S
C911 H914 0.950 . S
C912 C911 1.387 . S
C912 C915 1.387 . S
H913 C909 0.950 . S
H914 C911 0.950 . S
C915 C906 1.390 . S
C915 H908 0.950 . S
C915 C912 1.387 . S
C916 C917 1.387 . S
C916 H920 0.950 . S
C916 C925 1.390 . S
C917 C916 1.387 . S
C917 C919 1.387 . S
H918 C925 0.950 . S
C919 C917 1.387 . S
C919 C921 1.390 . S
C919 H923 0.950 . S
H920 C916 0.950 . S
C921 C919 1.390 . S
C921 C922 1.387 . S
C921 H924 0.950 . S
C922 C921 1.387 . S
C922 C925 1.387 . S
H923 C919 0.950 . S
H924 C921 0.950 . S
C925 C916 1.390 . S
C925 H918 0.950 . S
C925 C922 1.387 . S
C926 C927 1.387 . S
C926 H930 0.950 . S
C926 C935 1.390 . S
C927 C926 1.387 . S
C927 C929 1.387 . S
H928 C935 0.950 . S
C929 C927 1.387 . S
C929 C931 1.390 . S
C929 H933 0.950 . S
H930 C926 0.950 . S
C931 C929 1.390 . S
C931 C932 1.387 . S
C931 H934 0.950 . S
C932 C931 1.387 . S
C932 C935 1.387 . S
H933 C929 0.950 . S
H934 C931 0.950 . S
C935 C926 1.390 . S
C935 H928 0.950 . S
C935 C932 1.387 . S
C936 C937 1.387 . S
C936 H940 0.950 . S
C936 C945 1.390 . S
C937 C936 1.387 . S
C937 C939 1.387 . S
H938 C945 0.950 . S
C939 C937 1.387 . S
C939 C941 1.390 . S
C939 H943 0.950 . S
H940 C936 0.950 . S
C941 C939 1.390 . S
C941 C942 1.387 . S
C941 H944 0.950 . S
C942 C941 1.387 . S
C942 C945 1.387 . S
H943 C939 0.950 . S
H944 C941 0.950 . S
C945 C936 1.390 . S
C945 H938 0.950 . S
C945 C942 1.387 . S
C946 C947 1.387 . S
C946 H950 0.950 . S
C946 C955 1.390 . S
C947 C946 1.387 . S
C947 C949 1.387 . S
H948 C955 0.950 . S
C949 C947 1.387 . S
C949 C951 1.390 . S
C949 H953 0.950 . S
H950 C946 0.950 . S
C951 C949 1.390 . S
C951 C952 1.387 . S
C951 H954 0.950 . S
C952 C951 1.387 . S
C952 C955 1.387 . S
H953 C949 0.950 . S
H954 C951 0.950 . S
C955 C946 1.390 . S
C955 H948 0.950 . S
C955 C952 1.387 . S
C956 C957 1.387 . S
C956 H960 0.950 . S
C956 C965 1.390 . S
C957 C956 1.387 . S
C957 C959 1.387 . S
H958 C965 0.950 . S
C959 C957 1.387 . S
C959 C961 1.390 . S
C959 H963 0.950 . S
H960 C956 0.950 . S
C961 C959 1.390 . S
C961 C962 1.387 . S
C961 H964 0.950 . S
C962 C961 1.387 . S
C962 C965 1.387 . S
H963 C959 0.950 . S
H964 C961 0.950 . S
C965 C956 1.390 . S
C965 H958 0.950 . S
C965 C962 1.387 . S
C966 C967 1.387 . S
C966 H970 0.950 . S
C966 C975 1.390 . S
C967 C966 1.387 . S
C967 C969 1.387 . S
H968 C975 0.950 . S
C969 C967 1.387 . S
C969 C971 1.390 . S
C969 H973 0.950 . S
H970 C966 0.950 . S
C971 C969 1.390 . S
C971 C972 1.387 . S
C971 H974 0.950 . S
C972 C971 1.387 . S
C972 C975 1.387 . S
H973 C969 0.950 . S
H974 C971 0.950 . S
C975 C966 1.390 . S
C975 H968 0.950 . S
C975 C972 1.387 . S
C976 C977 1.387 . S
C976 H980 0.950 . S
C976 C985 1.390 . S
C977 C976 1.387 . S
C977 C979 1.387 . S
H978 C985 0.950 . S
C979 C977 1.387 . S
C979 C981 1.390 . S
C979 H983 0.950 . S
H980 C976 0.950 . S
C981 C979 1.390 . S
C981 C982 1.387 . S
C981 H984 0.950 . S
C982 C981 1.387 . S
C982 C985 1.387 . S
H983 C979 0.950 . S
H984 C981 0.950 . S
C985 C976 1.390 . S
C985 H978 0.950 . S
C985 C982 1.387 . S
C986 C987 1.387 . S
C986 H990 0.950 . S
C986 C995 1.390 . S
C987 C986 1.387 . S
C987 C989 1.387 . S
H988 C995 0.950 . S
C989 C987 1.387 . S
C989 C991 1.390 . S
C989 H993 0.950 1_545 S
H990 C986 0.950 . S
C991 C989 1.390 . S
C991 C992 1.387 . S
C991 H994 0.950 1_545 S
C992 C991 1.387 . S
C992 C995 1.387 . S
H993 C989 0.950 1_565 S
H994 C991 0.950 1_565 S
C995 C986 1.390 . S
C995 H988 0.950 . S
C995 C992 1.387 . S
C996 C997 1.387 . S
C996 H1000 0.950 . S
C996 C1005 1.390 . S
C997 C996 1.387 . S
C997 C999 1.387 . S
H998 C1005 0.950 . S
C999 C997 1.387 . S
C999 C1001 1.390 . S
C999 H1003 0.950 . S
H1000 C996 0.950 . S
C1001 C999 1.390 . S
C1001 C1002 1.387 . S
C1001 H1004 0.950 . S
C1002 C1001 1.387 . S
C1002 C1005 1.387 . S
H1003 C999 0.950 . S
H1004 C1001 0.950 . S
C1005 C996 1.390 . S
C1005 H998 0.950 . S
C1005 C1002 1.387 . S
C1006 C1007 1.387 . S
C1006 H1010 0.950 . S
C1006 C1015 1.390 . S
C1007 C1006 1.387 . S
C1007 C1009 1.387 . S
H1008 C1015 0.950 . S
C1009 C1007 1.387 . S
C1009 C1011 1.390 . S
C1009 H1013 0.950 . S
H1010 C1006 0.950 . S
C1011 C1009 1.390 . S
C1011 C1012 1.387 . S
C1011 H1014 0.950 . S
C1012 C1011 1.387 . S
C1012 C1015 1.387 . S
H1013 C1009 0.950 . S
H1014 C1011 0.950 . S
C1015 C1006 1.390 . S
C1015 H1008 0.950 . S
C1015 C1012 1.387 . S
C1016 C1017 1.387 . S
C1016 H1020 0.950 . S
C1016 C1025 1.390 . S
C1017 C1016 1.387 . S
C1017 C1019 1.387 . S
H1018 C1025 0.950 . S
C1019 C1017 1.387 . S
C1019 C1021 1.390 . S
C1019 H1023 0.950 . S
H1020 C1016 0.950 . S
C1021 C1019 1.390 . S
C1021 C1022 1.387 . S
C1021 H1024 0.950 . S
C1022 C1021 1.387 . S
C1022 C1025 1.387 . S
H1023 C1019 0.950 . S
H1024 C1021 0.950 . S
C1025 C1016 1.390 . S
C1025 H1018 0.950 . S
C1025 C1022 1.387 . S
C1026 C1027 1.387 . S
C1026 H1030 0.950 . S
C1026 C1035 1.390 . S
C1027 C1026 1.387 . S
C1027 C1029 1.387 . S
H1028 C1035 0.950 . S
C1029 C1027 1.387 . S
C1029 C1031 1.390 . S
C1029 H1033 0.950 . S
H1030 C1026 0.950 . S
C1031 C1029 1.390 . S
C1031 C1032 1.387 . S
C1031 H1034 0.950 . S
C1032 C1031 1.387 . S
C1032 C1035 1.387 . S
H1033 C1029 0.950 . S
H1034 C1031 0.950 . S
C1035 C1026 1.390 . S
C1035 H1028 0.950 . S
C1035 C1032 1.387 . S
C1036 C1037 1.387 . S
C1036 H1040 0.950 . S
C1036 C1045 1.390 . S
C1037 C1036 1.387 . S
C1037 C1039 1.387 . S
H1038 C1045 0.950 . S
C1039 C1037 1.387 . S
C1039 C1041 1.390 . S
C1039 H1043 0.950 . S
H1040 C1036 0.950 . S
C1041 C1039 1.390 . S
C1041 C1042 1.387 . S
C1041 H1044 0.950 . S
C1042 C1041 1.387 . S
C1042 C1045 1.387 . S
H1043 C1039 0.950 . S
H1044 C1041 0.950 . S
C1045 C1036 1.390 . S
C1045 H1038 0.950 . S
C1045 C1042 1.387 . S
C1046 C1047 1.387 . S
C1046 H1050 0.950 . S
C1046 C1055 1.390 . S
C1047 C1046 1.387 . S
C1047 C1049 1.387 . S
H1048 C1055 0.950 . S
C1049 C1047 1.387 . S
C1049 C1051 1.390 . S
C1049 H1053 0.950 . S
H1050 C1046 0.950 . S
C1051 C1049 1.390 . S
C1051 C1052 1.387 . S
C1051 H1054 0.950 . S
C1052 C1051 1.387 . S
C1052 C1055 1.387 . S
H1053 C1049 0.950 . S
H1054 C1051 0.950 . S
C1055 C1046 1.390 . S
C1055 H1048 0.950 . S
C1055 C1052 1.387 . S
C417 C3 1.501 . S
C422 C29 1.500 . S
C427 C42 1.502 . S
C432 C16 1.501 . S
C437 C83 1.501 . S
C442 C57 1.502 . S
C447 C96 1.501 . S
C452 C70 1.501 . S
C457 C107 1.502 . S
C462 C133 1.501 . S
C467 C146 1.502 . S
C472 C120 1.501 . S
C477 C161 1.501 . S
C482 C187 1.500 . S
C487 C200 1.501 . S
C492 C174 1.500 . S
C497 C211 1.500 . S
C502 C237 1.500 . S
C507 C224 1.500 . S
C512 C250 1.500 . S
C517 C291 1.501 . S
C522 C265 1.501 . S
C527 C278 1.501 . S
C532 C304 1.502 . S
C537 C341 1.500 . S
C542 C315 1.500 . S
C547 C354 1.502 . S
C552 C328 1.501 . S
C557 C395 1.501 . S
C562 C369 1.501 . S
C567 C382 1.501 . S
C572 C408 1.501 . S
C577 C330 1.501 . S
C582 C5 1.501 . S
C587 C18 1.502 . S
C592 C317 1.502 . S
C597 C31 1.502 . S
C602 C356 1.502 . S
C607 C44 1.504 . S
C612 C343 1.504 . S
C617 C380 1.501 . S
C622 C55 1.501 . S
C627 C68 1.505 . S
C632 C367 1.505 . S
C637 C81 1.504 . S
C642 C406 1.504 . S
C647 C393 1.501 . S
C652 C94 1.501 . S
C657 C109 1.502 . S
C662 C226 1.501 . S
C667 C122 1.502 . S
C672 C213 1.502 . S
C677 C135 1.501 . S
C682 C252 1.501 . S
C687 C148 1.504 . S
C692 C239 1.504 . S
C697 C159 1.504 . S
C702 C276 1.504 . S
C707 C263 1.504 . S
C712 C172 1.504 . S
C717 C302 1.504 . S
C722 C185 1.504 . S
C727 C198 1.504 . S
C732 C289 1.504 . S
C737 C1 1.505 . S
C742 C62 1.505 . S
C747 C14 1.502 . S
C752 C387 1.502 . S
C757 C27 1.503 . S
C762 C192 1.503 . S
C767 C40 1.505 . S
C772 C309 1.505 . S
C777 C75 1.503 . S
C782 C326 1.503 . S
C787 C131 1.503 . S
C792 C88 1.503 . S
C797 C248 1.505 . S
C802 C101 1.505 . S
C807 C166 1.505 . S
C812 C105 1.505 . S
C817 C118 1.503 . S
C822 C283 1.503 . S
C827 C413 1.505 . S
C832 C144 1.505 . S
C837 C179 1.503 . S
C842 C222 1.503 . S
C847 C205 1.505 . S
C852 C352 1.505 . S
C857 C270 1.505 . S
C862 C209 1.505 . S
C867 C235 1.503 . S
C872 C400 1.503 1_455 S
C877 C339 1.503 1_655 S
C882 C296 1.503 . S
C887 C374 1.505 . S
C892 C313 1.505 . S
C897 C10 1.527 . S
C902 C23 1.527 . S
C907 C36 1.527 . S
C912 C49 1.527 . S
C917 C53 1.530 . S
C922 C66 1.530 . S
C927 C79 1.530 . S
C932 C92 1.530 . S
C937 C127 1.527 . S
C942 C114 1.527 . S
C947 C140 1.530 . S
C952 C153 1.530 . S
C957 C157 1.527 . S
C962 C170 1.527 . S
C967 C183 1.527 . S
C972 C196 1.527 . S
C977 C218 1.530 . S
C982 C231 1.530 . S
C987 C257 1.528 . S
C992 C244 1.528 . S
C997 C261 1.528 . S
C1002 C274 1.528 . S
C1007 C287 1.527 . S
C1012 C300 1.527 . S
C1017 C335 1.528 . S
C1022 C322 1.528 . S
C1027 C348 1.530 . S
C1032 C361 1.530 . S
C1037 C378 1.528 . S
C1042 C365 1.528 . S
C1047 C391 1.530 . S
C1052 C404 1.530 . S
