# Generated by pormake.
# Topology uof, (4)-cn, num edge types: 1
# Building blocks:
#     Node 0, Type 0, BuildingBlock: QUQFOY_clean_sbu_3, # of connection points: 4
#     Node 1, Type 0, BuildingBlock: QUQFOY_clean_sbu_3, # of connection points: 4
#     Node 2, Type 0, BuildingBlock: QUQFOY_clean_sbu_3, # of connection points: 4
#     Node 3, Type 0, BuildingBlock: QUQFOY_clean_sbu_3, # of connection points: 4
#     Node 4, Type 0, BuildingBlock: QUQFOY_clean_sbu_3, # of connection points: 4
#     Node 5, Type 0, BuildingBlock: QUQFOY_clean_sbu_3, # of connection points: 4
#     Node 6, Type 0, BuildingBlock: QUQFOY_clean_sbu_3, # of connection points: 4
#     Node 7, Type 0, BuildingBlock: QUQFOY_clean_sbu_3, # of connection points: 4
#     Node 8, Type 0, BuildingBlock: QUQFOY_clean_sbu_3, # of connection points: 4
#     Node 9, Type 0, BuildingBlock: QUQFOY_clean_sbu_3, # of connection points: 4
#     Node 10, Type 0, BuildingBlock: QUQFOY_clean_sbu_3, # of connection points: 4
#     Node 11, Type 0, BuildingBlock: QUQFOY_clean_sbu_3, # of connection points: 4
#     Edge 12, Type (0, 0), BuildingBlock: ZUJKAS_clean_linker_0, # of connection points: 2
#     Edge 13, Type (0, 0), BuildingBlock: ZUJKAS_clean_linker_0, # of connection points: 2
#     Edge 14, Type (0, 0), BuildingBlock: ZUJKAS_clean_linker_0, # of connection points: 2
#     Edge 15, Type (0, 0), BuildingBlock: ZUJKAS_clean_linker_0, # of connection points: 2
#     Edge 16, Type (0, 0), BuildingBlock: ZUJKAS_clean_linker_0, # of connection points: 2
#     Edge 17, Type (0, 0), BuildingBlock: ZUJKAS_clean_linker_0, # of connection points: 2
#     Edge 18, Type (0, 0), BuildingBlock: ZUJKAS_clean_linker_0, # of connection points: 2
#     Edge 19, Type (0, 0), BuildingBlock: ZUJKAS_clean_linker_0, # of connection points: 2
#     Edge 20, Type (0, 0), BuildingBlock: ZUJKAS_clean_linker_0, # of connection points: 2
#     Edge 21, Type (0, 0), BuildingBlock: ZUJKAS_clean_linker_0, # of connection points: 2
#     Edge 22, Type (0, 0), BuildingBlock: ZUJKAS_clean_linker_0, # of connection points: 2
#     Edge 23, Type (0, 0), BuildingBlock: ZUJKAS_clean_linker_0, # of connection points: 2
#     Edge 24, Type (0, 0), BuildingBlock: ZUJKAS_clean_linker_0, # of connection points: 2
#     Edge 25, Type (0, 0), BuildingBlock: ZUJKAS_clean_linker_0, # of connection points: 2
#     Edge 26, Type (0, 0), BuildingBlock: ZUJKAS_clean_linker_0, # of connection points: 2
#     Edge 27, Type (0, 0), BuildingBlock: ZUJKAS_clean_linker_0, # of connection points: 2
#     Edge 28, Type (0, 0), BuildingBlock: ZUJKAS_clean_linker_0, # of connection points: 2
#     Edge 29, Type (0, 0), BuildingBlock: ZUJKAS_clean_linker_0, # of connection points: 2
#     Edge 30, Type (0, 0), BuildingBlock: ZUJKAS_clean_linker_0, # of connection points: 2
#     Edge 31, Type (0, 0), BuildingBlock: ZUJKAS_clean_linker_0, # of connection points: 2
#     Edge 32, Type (0, 0), BuildingBlock: ZUJKAS_clean_linker_0, # of connection points: 2
#     Edge 33, Type (0, 0), BuildingBlock: ZUJKAS_clean_linker_0, # of connection points: 2
#     Edge 34, Type (0, 0), BuildingBlock: ZUJKAS_clean_linker_0, # of connection points: 2
#     Edge 35, Type (0, 0), BuildingBlock: ZUJKAS_clean_linker_0, # of connection points: 2
# Relax obj value: 0.207
# Max RMSD: 0.146
# Mean RMSD: 0.146
data_MOF--net-uof--node1-QUQFOY_clean_sbu_3--edge1-ZUJKAS_clean_linker_0
_symmetry_space_group_name_H-M    P1
_symmetry_Int_Tables_number       1
_symmetry_cell_setting            triclinic
loop_
_symmetry_equiv_pos_as_xyz
'x, y, z'
_cell_length_a     43.035176
_cell_length_b     43.120753
_cell_length_c     85.214372
_cell_angle_alpha  90.019537
_cell_angle_beta   89.899804
_cell_angle_gamma 119.97114
loop_
_atom_site_label
_atom_site_type_symbol
_atom_site_fract_x
_atom_site_fract_y
_atom_site_fract_z
_atom_type_partial_charge
C0 C 0.24065 0.27312 0.23424 0.0
O1 O 0.25368 0.25861 0.2255 0.0
Cd2 Cd 0.25577 0.25869 0.19798 0.0
O3 O 0.22587 0.28984 0.22825 0.0
Cd4 Cd 0.21546 0.30287 0.20006 0.0
C5 C 0.30566 0.35027 0.19357 0.0
O6 O 0.19725 0.24404 0.19054 0.0
O7 O 0.21489 0.28373 0.17237 0.0
O8 O 0.15344 0.28613 0.20611 0.0
C9 C 0.19883 0.25086 0.17609 0.0
O10 O 0.30222 0.31935 0.19208 0.0
C11 C 0.15202 0.30917 0.19734 0.0
O12 O 0.27874 0.35361 0.19745 0.0
O13 O 0.18164 0.33286 0.19142 0.0
C14 C 0.93915 0.2427 0.57179 0.0
O15 O 0.96831 0.25601 0.56413 0.0
Cd16 Cd 0.97647 0.25669 0.53702 0.0
O17 O 0.90889 0.22686 0.56465 0.0
Cd18 Cd 0.89364 0.21668 0.53527 0.0
C19 C 0.93582 0.30595 0.52849 0.0
O20 O 0.93532 0.19729 0.52957 0.0
O21 O 0.92755 0.22421 0.51023 0.0
O22 O 0.84644 0.15399 0.53837 0.0
C23 C 0.94032 0.20517 0.51523 0.0
O24 O 0.96359 0.30263 0.52838 0.0
C25 C 0.82604 0.15381 0.52759 0.0
O26 O 0.9051 0.27917 0.53183 0.0
O27 O 0.83447 0.18411 0.52168 0.0
C28 C 0.68456 0.94195 0.91382 0.0
O29 O 0.70075 0.97268 0.90751 0.0
Cd30 Cd 0.71809 0.98736 0.88128 0.0
O31 O 0.67414 0.91351 0.90562 0.0
Cd32 Cd 0.67601 0.90447 0.87596 0.0
C33 C 0.63252 0.95029 0.86729 0.0
O34 O 0.73858 0.94777 0.87386 0.0
O35 O 0.71008 0.93806 0.8522 0.0
O36 O 0.68708 0.85392 0.87895 0.0
C37 C 0.74002 0.95141 0.85917 0.0
O38 O 0.6634 0.97776 0.86901 0.0
C39 C 0.66882 0.83635 0.86714 0.0
O40 O 0.62756 0.91904 0.8702 0.0
O41 O 0.65021 0.84804 0.86056 0.0
C42 C 0.75593 0.71676 0.23624 0.0
O43 O 0.74342 0.73371 0.22894 0.0
Cd44 Cd 0.72754 0.72808 0.20244 0.0
O45 O 0.76379 0.69555 0.22893 0.0
Cd46 Cd 0.76486 0.68025 0.1998 0.0
C47 C 0.67438 0.63487 0.20004 0.0
O48 O 0.7797 0.73741 0.18948 0.0
O49 O 0.74978 0.69443 0.17346 0.0
O50 O 0.82833 0.69796 0.20181 0.0
C51 C 0.7682 0.72789 0.17573 0.0
O52 O 0.67889 0.66641 0.20007 0.0
C53 C 0.82777 0.67553 0.19201 0.0
O54 O 0.70137 0.63 0.20057 0.0
O55 O 0.79693 0.65189 0.18717 0.0
C56 C 0.02016 0.75184 0.57157 0.0
O57 O -0.0091 0.74135 0.5643 0.0
Cd58 Cd 0.97995 0.7277 0.5376 0.0
O59 O 0.04905 0.75935 0.56414 0.0
Cd60 Cd 0.06571 0.76375 0.5349 0.0
C61 C 0.01886 0.67353 0.53338 0.0
O62 O 0.0238 0.77976 0.52524 0.0
O63 O 0.0364 0.75061 0.50856 0.0
O64 O 0.11031 0.82707 0.53678 0.0
C65 C 0.02109 0.76863 0.51137 0.0
O66 O -0.00783 0.6787 0.53383 0.0
C67 C 0.13373 0.8266 0.52787 0.0
O68 O 0.05096 0.69995 0.53426 0.0
O69 O 0.12775 0.79583 0.52353 0.0
C70 C 0.26352 0.02469 0.89229 0.0
O71 O 0.24523 -0.00265 0.8838 0.0
Cd72 Cd 0.25388 -0.00641 0.85684 0.0
O73 O 0.28631 0.05472 0.88613 0.0
Cd74 Cd 0.30311 0.07808 0.85792 0.0
C75 C 0.3474 0.03237 0.85626 0.0
O76 O 0.2471 0.03956 0.84564 0.0
O77 O 0.29213 0.05565 0.83032 0.0
O78 O 0.28422 0.1221 0.86204 0.0
C79 C 0.2584 0.04104 0.83185 0.0
O80 O 0.31565 0.00583 0.85505 0.0
C81 C 0.30846 0.14693 0.8538 0.0
O82 O 0.35264 0.06407 0.85816 0.0
O83 O 0.33358 0.1418 0.84899 0.0
C84 C 0.71749 0.75211 0.40147 0.0
O85 O 0.73317 0.7401 0.41005 0.0
Cd86 Cd 0.72228 0.72463 0.43667 0.0
O87 O 0.69528 0.76048 0.40744 0.0
Cd88 Cd 0.67493 0.76353 0.43549 0.0
C89 C 0.62845 0.6732 0.43529 0.0
O90 O 0.72808 0.77559 0.44917 0.0
O91 O 0.68024 0.74716 0.46296 0.0
O92 O 0.69861 0.82773 0.43337 0.0
C93 C 0.7142 0.76403 0.46247 0.0
O94 O 0.65974 0.67733 0.43685 0.0
C95 C 0.67363 0.82905 0.44071 0.0
O96 O 0.62412 0.70036 0.43378 0.0
O97 O 0.64619 0.79904 0.44409 0.0
C98 C 0.93805 0.68591 0.73514 0.0
O99 O 0.9669 0.6981 0.74293 0.0
Cd100 Cd 0.97419 0.70858 0.77009 0.0
O101 O 0.90806 0.67577 0.74211 0.0
Cd102 Cd 0.89403 0.67156 0.77147 0.0
C103 C 0.93114 0.62066 0.77967 0.0
O104 O 0.93648 0.73295 0.77604 0.0
O105 O 0.93274 0.69875 0.79509 0.0
O106 O 0.84502 0.68513 0.76857 0.0
C107 C 0.9449 0.73034 0.78994 0.0
O108 O 0.95941 0.65096 0.78124 0.0
C109 C 0.82729 0.6677 0.78054 0.0
O110 O 0.90232 0.61849 0.77442 0.0
O111 O 0.83813 0.64849 0.78723 0.0
C112 C 0.24049 0.93549 0.05381 0.0
O113 O 0.25668 0.96726 0.05905 0.0
Cd114 Cd 0.25504 0.9878 0.08431 0.0
O115 O 0.2215 0.90882 0.06286 0.0
Cd116 Cd 0.2114 0.90498 0.09263 0.0
C117 C 0.30134 0.95169 0.10136 0.0
O118 O 0.19451 0.95015 0.09157 0.0
O119 O 0.20706 0.94081 0.11473 0.0
O120 O 0.15001 0.85321 0.09038 0.0
C121 C 0.19396 0.95531 0.10607 0.0
O122 O 0.29899 0.97927 0.09821 0.0
C123 C 0.15095 0.8378 0.10292 0.0
O124 O 0.27441 0.92033 0.09931 0.0
O125 O 0.18119 0.8513 0.10973 0.0
C126 C 0.266 0.22987 0.40019 0.0
O127 O 0.24906 0.24153 0.40815 0.0
Cd128 Cd 0.25151 0.25065 0.43527 0.0
O129 O 0.28591 0.21963 0.40699 0.0
Cd130 Cd 0.29945 0.21362 0.43578 0.0
C131 C 0.34422 0.30393 0.43869 0.0
O132 O 0.24097 0.19555 0.44535 0.0
O133 O 0.28162 0.22181 0.4628 0.0
O134 O 0.28211 0.15102 0.43191 0.0
C135 C 0.24851 0.20312 0.45962 0.0
O136 O 0.31257 0.29921 0.43933 0.0
C137 C 0.30468 0.15038 0.44127 0.0
O138 O 0.34919 0.27733 0.43657 0.0
O139 O 0.32861 0.18054 0.4466 0.0
C140 C 0.01746 0.27202 0.73682 0.0
O141 O -0.00923 0.25683 0.74602 0.0
Cd142 Cd -0.00881 0.25806 0.7736 0.0
O143 O 0.04937 0.29021 0.74228 0.0
Cd144 Cd 0.07463 0.30357 0.77017 0.0
C145 C 0.03181 0.34956 0.77813 0.0
O146 O 0.03643 0.24476 0.78025 0.0
O147 O 0.05513 0.2857 0.79787 0.0
O148 O 0.12063 0.28795 0.76403 0.0
C149 C 0.04098 0.25271 0.79461 0.0
O150 O 0.00494 0.3185 0.78043 0.0
C151 C 0.14489 0.31122 0.7728 0.0
O152 O 0.0614 0.35342 0.77291 0.0
O153 O 0.1385 0.33457 0.77871 0.0
C154 C 0.74462 0.0274 0.0766 0.0
O155 O 0.7345 -0.00077 0.08465 0.0
Cd156 Cd 0.72186 -0.00716 0.11156 0.0
O157 O 0.75242 0.05714 0.08322 0.0
Cd158 Cd 0.75815 0.07789 0.11189 0.0
C159 C 0.66796 0.03247 0.11351 0.0
O160 O 0.77498 0.03782 0.12285 0.0
O161 O 0.74573 0.0517 0.13896 0.0
O162 O 0.82129 0.12211 0.10832 0.0
C163 C 0.76455 0.037 0.13674 0.0
O164 O 0.67291 0.00571 0.11416 0.0
C165 C 0.82194 0.14612 0.11715 0.0
O166 O 0.6946 0.06421 0.11191 0.0
O167 O 0.79168 0.14059 0.12215 0.0
H168 H 0.83387 0.20152 0.13708 0.0
H169 H 0.89016 0.24287 0.1504 0.0
H170 H 0.94381 0.19557 0.12569 0.0
H171 H 0.8887 0.15594 0.11189 0.0
H172 H 0.926 0.22962 0.1704 0.0
H173 H 0.01933 0.29593 0.12148 0.0
H174 H 0.97157 0.26957 0.11843 0.0
H175 H -0.00115 0.24856 0.1189 0.0
C176 C 0.85798 0.20079 0.13412 0.0
C177 C 0.85669 0.17554 0.12328 0.0
C178 C 0.89018 0.2243 0.14184 0.0
C179 C 0.92176 0.22299 0.13895 0.0
C180 C 0.92049 0.1983 0.12784 0.0
H181 H 0.08559 0.25222 0.20308 0.0
H182 H 0.02979 0.23709 0.18993 0.0
C183 C 0.88863 0.1753 0.11997 0.0
C184 C 0.95503 0.24464 0.14849 0.0
H185 H 0.04655 0.29133 0.14579 0.0
C186 C 0.9523 0.2437 0.16496 0.0
C187 C -0.01038 0.26405 0.14161 0.0
C188 C -0.00508 0.26992 0.12413 0.0
C189 C 0.98293 0.2595 0.17461 0.0
C190 C 0.01756 0.27553 0.1677 0.0
C191 C 0.02026 0.27849 0.15125 0.0
C192 C 0.05101 0.287 0.17711 0.0
C193 C 0.9776 0.25877 0.19214 0.0
C194 C 0.08232 0.32008 0.1743 0.0
C195 C 0.11487 0.32853 0.18162 0.0
C196 C 0.11683 0.3042 0.19201 0.0
C197 C 0.08513 0.27193 0.19536 0.0
C198 C 0.05288 0.26326 0.18786 0.0
H199 H 0.95298 0.25986 0.19504 0.0
H200 H 0.97402 0.23327 0.19694 0.0
H201 H 0.00077 0.28146 0.19805 0.0
H202 H 0.08188 0.33896 0.16605 0.0
H203 H 0.13878 0.35348 0.17865 0.0
H204 H 0.81531 0.08684 0.53299 0.0
H205 H 0.77937 0.0329 0.51765 0.0
H206 H 0.73685 0.08796 0.49073 0.0
H207 H 0.77468 0.143 0.50554 0.0
H208 H 0.71346 0.98838 0.51192 0.0
H209 H 0.77422 0.05636 0.45561 0.0
H210 H 0.7899 0.0783 0.47425 0.0
H211 H 0.75013 0.07461 0.46547 0.0
C212 C 0.79798 0.08749 0.52395 0.0
C213 C 0.79823 0.11951 0.52043 0.0
C214 C 0.77736 0.05645 0.51511 0.0
C215 C 0.756 0.0563 0.50261 0.0
C216 C 0.75405 0.08751 0.49986 0.0
H217 H 0.62654 0.84287 0.45732 0.0
H218 H 0.64077 0.8983 0.47124 0.0
C219 C 0.77532 0.11891 0.50852 0.0
C220 C 0.73735 0.02389 0.49226 0.0
H221 H 0.73049 -0.00452 0.45424 0.0
C222 C 0.7171 -0.01 0.49929 0.0
C223 C 0.74221 0.02567 0.47574 0.0
C224 C 0.76556 0.06061 0.46732 0.0
C225 C 0.70284 0.95811 0.49049 0.0
C226 C 0.70751 0.95991 0.47395 0.0
C227 C 0.72658 -0.00615 0.46686 0.0
C228 C 0.69653 0.92729 0.46401 0.0
C229 C 0.68478 0.9229 0.49919 0.0
C230 C 0.72212 0.9256 0.45433 0.0
C231 C 0.71369 0.89446 0.44597 0.0
C232 C 0.67948 0.86376 0.44715 0.0
C233 C 0.65319 0.8659 0.45618 0.0
C234 C 0.66151 0.8975 0.46436 0.0
H235 H 0.69168 0.92641 0.51187 0.0
H236 H 0.65526 0.91077 0.49822 0.0
H237 H 0.69251 0.90392 0.4942 0.0
H238 H 0.74927 0.94802 0.45369 0.0
H239 H 0.73473 0.89396 0.43918 0.0
H240 H 0.71229 0.81093 0.87726 0.0
H241 H 0.73095 0.77428 0.86251 0.0
H242 H 0.65769 0.76163 0.82539 0.0
H243 H 0.6388 0.79839 0.84006 0.0
H244 H 0.66387 0.69664 0.8335 0.0
H245 H 0.79368 0.82063 0.82188 0.0
H246 H 0.78001 0.81195 0.84211 0.0
H247 H 0.75425 0.82159 0.82844 0.0
C248 C 0.69945 0.7997 0.86613 0.0
C249 C 0.67413 0.80787 0.85984 0.0
C250 C 0.71033 0.77886 0.85767 0.0
C251 C 0.69612 0.76562 0.84273 0.0
C252 C 0.6691 0.77163 0.83687 0.0
H253 H 0.80326 0.71191 0.76993 0.0
H254 H 0.76738 0.73212 0.78429 0.0
C255 C 0.65827 0.79262 0.84531 0.0
C256 C 0.71173 0.74835 0.83275 0.0
H257 H 0.78832 0.76627 0.81314 0.0
C258 C 0.69105 0.7118 0.82903 0.0
C259 C 0.74705 0.76824 0.82673 0.0
C260 C 0.77008 0.80784 0.82985 0.0
C261 C 0.70507 0.69456 0.81971 0.0
C262 C 0.74072 0.71434 0.814 0.0
C263 C 0.76106 0.751 0.81753 0.0
C264 C 0.75785 0.69789 0.8044 0.0
C265 C 0.68149 0.65544 0.81586 0.0
C266 C 0.76383 0.6712 0.81071 0.0
C267 C 0.78438 0.65949 0.80248 0.0
C268 C 0.79953 0.67432 0.78777 0.0
C269 C 0.79195 0.69973 0.78117 0.0
C270 C 0.77152 0.71147 0.78941 0.0
H271 H 0.65265 0.64644 0.81771 0.0
H272 H 0.68548 0.64993 0.80351 0.0
H273 H 0.68868 0.63933 0.82362 0.0
H274 H 0.75413 0.66067 0.82234 0.0
H275 H 0.7899 0.64013 0.808 0.0
H276 H 0.89654 0.72425 0.20031 0.0
H277 H 0.95106 0.74294 0.18494 0.0
H278 H 0.89092 0.65978 0.15123 0.0
H279 H 0.83593 0.64077 0.16658 0.0
H280 H 0.96598 0.67415 0.15928 0.0
H281 H 0.95795 0.79402 0.1416 0.0
H282 H 0.95556 0.78551 0.16235 0.0
H283 H 0.92018 0.7545 0.14978 0.0
C284 C 0.89491 0.70928 0.18984 0.0
C285 C 0.86166 0.68109 0.18466 0.0
C286 C 0.92618 0.72016 0.18101 0.0
C287 C 0.92502 0.70314 0.16681 0.0
C288 C 0.89244 0.67338 0.16213 0.0
H289 H 0.08204 0.8078 0.09203 0.0
H290 H 0.0266 0.77059 0.10663 0.0
C291 C 0.86102 0.66247 0.17096 0.0
C292 C 0.95699 0.71859 0.15625 0.0
H293 H 0.00992 0.79248 0.13396 0.0
C294 C 0.97556 0.69994 0.15368 0.0
C295 C 0.96923 0.75203 0.14877 0.0
C296 C 0.94963 0.77268 0.15061 0.0
C297 C 0.00657 0.71435 0.14415 0.0
C298 C 0.01943 0.74836 0.13707 0.0
C299 C 0.00026 0.76649 0.13938 0.0
C300 C 0.05296 0.76625 0.12742 0.0
C301 C 0.02507 0.69289 0.14161 0.0
C302 C 0.08643 0.77564 0.13404 0.0
C303 C 0.1183 0.79691 0.12567 0.0
C304 C 0.11745 0.80946 0.1105 0.0
C305 C 0.08381 0.79855 0.10363 0.0
C306 C 0.05201 0.77735 0.11201 0.0
H307 H 0.00687 0.66401 0.1441 0.0
H308 H 0.03515 0.69584 0.12938 0.0
H309 H 0.04833 0.70278 0.14966 0.0
H310 H 0.08807 0.76805 0.14599 0.0
H311 H 0.14366 0.805 0.1314 0.0
H312 H 0.24678 0.08412 0.43669 0.0
H313 H 0.22984 0.02987 0.45155 0.0
H314 H 0.33177 0.08252 0.47543 0.0
H315 H 0.34804 0.13806 0.46116 0.0
H316 H 0.24979 0.98396 0.45545 0.0
H317 H 0.269 0.05263 0.51269 0.0
H318 H 0.27302 0.07489 0.49431 0.0
H319 H 0.3094 0.06938 0.50139 0.0
C320 C 0.26594 0.0842 0.44495 0.0
C321 C 0.29869 0.11574 0.44782 0.0
C322 C 0.25613 0.05296 0.45351 0.0
C323 C 0.27893 0.05206 0.46506 0.0
C324 C 0.31297 0.08269 0.46706 0.0
H325 H 0.19075 0.83686 0.5092 0.0
H326 H 0.23248 0.89152 0.49489 0.0
C327 C 0.32254 0.11436 0.4587 0.0
C328 C 0.26581 0.01953 0.47529 0.0
H329 H 0.24878 -0.00891 0.51347 0.0
C330 C 0.24974 0.98558 0.46816 0.0
C331 C 0.26535 0.02133 0.49192 0.0
C332 C 0.27979 0.05645 0.50055 0.0
C333 C 0.23198 0.95373 0.47698 0.0
C334 C 0.23159 0.95554 0.49361 0.0
C335 C 0.2491 -0.01054 0.50077 0.0
C336 C 0.20987 0.92319 0.5037 0.0
C337 C 0.21199 0.91867 0.46826 0.0
C338 C 0.18489 0.92317 0.51435 0.0
C339 C 0.16198 0.89244 0.52293 0.0
C340 C 0.16295 0.86051 0.52098 0.0
C341 C 0.18911 0.86089 0.51093 0.0
C342 C 0.21267 0.89206 0.50255 0.0
H343 H 0.20721 0.92267 0.45581 0.0
H344 H 0.22813 0.90511 0.46836 0.0
H345 H 0.18566 0.9007 0.47385 0.0
H346 H 0.18206 0.94664 0.51563 0.0
H347 H 0.14221 0.89329 0.53053 0.0
H348 H 0.3535 0.2037 0.83479 0.0
H349 H 0.33948 0.24576 0.82154 0.0
H350 H 0.23679 0.19698 0.84492 0.0
H351 H 0.25131 0.1566 0.85866 0.0
H352 H 0.29172 0.23314 0.80093 0.0
H353 H 0.26099 0.29702 0.84961 0.0
H354 H 0.28232 0.27069 0.85288 0.0
H355 H 0.23405 0.24953 0.8518 0.0
C356 C 0.32846 0.2028 0.83749 0.0
C357 C 0.30371 0.17688 0.84792 0.0
C358 C 0.3203 0.22671 0.8298 0.0
C359 C 0.28718 0.22515 0.83231 0.0
C360 C 0.263 0.19987 0.84307 0.0
H361 H 0.15562 0.25513 0.76693 0.0
H362 H 0.19614 0.24028 0.7804 0.0
C363 C 0.27132 0.17645 0.8509 0.0
C364 C 0.27611 0.24711 0.82268 0.0
H365 H 0.23062 0.29315 0.82492 0.0
C366 C 0.27901 0.24686 0.80624 0.0
C367 C 0.2603 0.26606 0.82941 0.0
C368 C 0.25967 0.27118 0.8469 0.0
C369 C 0.26463 0.26285 0.79644 0.0
C370 C 0.24539 0.27836 0.80316 0.0
C371 C 0.24458 0.28069 0.81961 0.0
C372 C 0.22374 0.28984 0.79352 0.0
C373 C 0.27037 0.26282 0.77897 0.0
C374 C 0.22502 0.32265 0.79635 0.0
C375 C 0.20101 0.33094 0.78884 0.0
C376 C 0.17531 0.3067 0.77824 0.0
C377 C 0.17533 0.27476 0.77483 0.0
C378 C 0.19882 0.26625 0.78251 0.0
H379 H 0.29638 0.2643 0.77636 0.0
H380 H 0.24888 0.2374 0.7739 0.0
H381 H 0.27003 0.2856 0.77307 0.0
H382 H 0.24382 0.34139 0.80479 0.0
H383 H 0.20159 0.35562 0.79186 0.0
H384 H 0.61318 0.63723 0.20509 0.0
H385 H 0.55138 0.58886 0.20351 0.0
H386 H 0.58764 0.51482 0.19177 0.0
H387 H 0.65029 0.56343 0.19372 0.0
H388 H 0.51506 0.54855 0.17895 0.0
H389 H 0.5166 0.46116 0.22637 0.0
H390 H 0.55259 0.50655 0.22363 0.0
H391 H 0.54966 0.47121 0.21138 0.0
C392 C 0.60824 0.61066 0.20225 0.0
C393 C 0.6369 0.6043 0.19954 0.0
C394 C 0.57271 0.58296 0.20134 0.0
C395 C 0.56466 0.54805 0.19766 0.0
C396 C 0.59311 0.54139 0.19495 0.0
H397 H 0.36548 0.35089 0.18266 0.0
H398 H 0.42721 0.3999 0.1831 0.0
C399 C 0.62894 0.56922 0.19599 0.0
C400 C 0.52639 0.51925 0.19632 0.0
H401 H 0.46377 0.43784 0.21099 0.0
C402 C 0.50386 0.5244 0.186 0.0
C403 C 0.51161 0.48777 0.20557 0.0
C404 C 0.53373 0.48138 0.21748 0.0
C405 C 0.46723 0.49884 0.18455 0.0
C406 C 0.45261 0.46734 0.19371 0.0
C407 C 0.47506 0.46208 0.20399 0.0
C408 C 0.41437 0.43876 0.19243 0.0
C409 C 0.44457 0.50533 0.173 0.0
C410 C 0.38634 0.44441 0.19731 0.0
C411 C 0.3506 0.41619 0.1971 0.0
C412 C 0.3424 0.38184 0.19206 0.0
C413 C 0.37061 0.37684 0.18671 0.0
C414 C 0.40608 0.40486 0.18697 0.0
H415 H 0.46117 0.52753 0.16476 0.0
H416 H 0.42744 0.48074 0.1661 0.0
H417 H 0.42664 0.51244 0.1795 0.0
H418 H 0.39219 0.47033 0.20173 0.0
H419 H 0.32965 0.42096 0.20139 0.0
H420 H 0.06658 0.64884 0.52914 0.0
H421 H 0.05213 0.5862 0.52651 0.0
H422 H 0.93979 0.55093 0.53242 0.0
H423 H 0.95365 0.61265 0.53473 0.0
H424 H 0.01866 0.52981 0.54716 0.0
H425 H 0.93767 0.49821 0.49295 0.0
H426 H 0.96582 0.5435 0.49977 0.0
H427 H 0.92195 0.51579 0.50814 0.0
C428 C 0.03882 0.62772 0.5298 0.0
C429 C 0.01134 0.63596 0.53201 0.0
C430 C 0.03057 0.59194 0.52829 0.0
C431 C -0.00526 0.56383 0.52889 0.0
C432 C 0.96749 0.57207 0.53142 0.0
H433 H 0.88822 0.33016 0.53417 0.0
H434 H 0.90154 0.39272 0.53371 0.0
C435 C 0.97561 0.60757 0.53286 0.0
C436 C -0.01445 0.52575 0.52747 0.0
H437 H 0.93283 0.44825 0.50723 0.0
C438 C 0.00016 0.5121 0.53834 0.0
C439 C 0.96123 0.50249 0.51599 0.0
C440 C 0.94604 0.5158 0.50346 0.0
C441 C -0.00944 0.47578 0.53824 0.0
C442 C 0.96591 0.45251 0.52692 0.0
C443 C 0.95141 0.46608 0.516 0.0
C444 C 0.95638 0.41438 0.52586 0.0
C445 C 0.00646 0.46236 0.55041 0.0
C446 C 0.98233 0.40583 0.52107 0.0
C447 C 0.9748 0.37038 0.52122 0.0
C448 C 0.94106 0.34249 0.52619 0.0
C449 C 0.91442 0.3509 0.53027 0.0
C450 C 0.92203 0.38662 0.53007 0.0
H451 H 0.01908 0.48169 0.5602 0.0
H452 H -0.01443 0.43631 0.5553 0.0
H453 H 0.02736 0.45812 0.54482 0.0
H454 H 0.00879 0.42677 0.51755 0.0
H455 H -0.00406 0.36502 0.51785 0.0
H456 H 0.42032 0.08044 0.85743 0.0
H457 H 0.4692 0.06652 0.85725 0.0
H458 H 0.3917 0.95384 0.85475 0.0
H459 H 0.34325 0.96729 0.85458 0.0
H460 H 0.4835 0.02709 0.87812 0.0
H461 H 0.45854 0.96315 0.81964 0.0
H462 H 0.43816 0.98894 0.82582 0.0
H463 H 0.41939 0.94302 0.83189 0.0
C464 C 0.41375 0.05275 0.85669 0.0
C465 C 0.37778 0.02508 0.8559 0.0
C466 C 0.4417 0.04481 0.8566 0.0
C467 C 0.43418 0.00912 0.85564 0.0
C468 C 0.39832 0.9816 0.85502 0.0
H469 H 0.55968 0.9018 0.86779 0.0
H470 H 0.51073 0.91512 0.86436 0.0
C471 C 0.37054 -0.01056 0.85504 0.0
C472 C 0.46345 0.00021 0.85603 0.0
H473 H 0.49715 0.95373 0.83672 0.0
C474 C 0.48665 0.01134 0.86899 0.0
C475 C 0.46753 0.97946 0.84415 0.0
C476 C 0.44481 0.96825 0.82952 0.0
C477 C 0.51326 0.00172 0.87054 0.0
C478 C 0.51695 0.98059 0.85879 0.0
C479 C 0.49396 0.96957 0.84579 0.0
C480 C 0.54588 0.9714 0.85951 0.0
C481 C 0.53706 0.01383 0.88484 0.0
C482 C 0.58159 -0.00167 0.8574 0.0
C483 C 0.60939 -0.00916 0.85924 0.0
C484 C 0.6022 0.95616 0.86327 0.0
C485 C 0.5662 0.92875 0.86469 0.0
C486 C 0.53823 0.93633 0.86278 0.0
H487 H 0.52642 0.02392 0.89421 0.0
H488 H 0.54006 -0.00847 0.88965 0.0
H489 H 0.56412 0.03576 0.88148 0.0
H490 H 0.58803 0.02544 0.85467 0.0
H491 H 0.63669 0.01264 0.8579 0.0
H492 H 0.63143 0.61192 0.43256 0.0
H493 H 0.58258 0.5504 0.43317 0.0
H494 H 0.50645 0.58697 0.4386 0.0
H495 H 0.55571 0.64947 0.43768 0.0
H496 H 0.53589 0.51516 0.45654 0.0
H497 H 0.46194 0.51502 0.40319 0.0
H498 H 0.50665 0.55082 0.40753 0.0
H499 H 0.4686 0.54859 0.41737 0.0
C500 C 0.60433 0.60716 0.43381 0.0
C501 C 0.5976 0.63587 0.43508 0.0
C502 C 0.57636 0.57176 0.43416 0.0
C503 C 0.54075 0.56387 0.43581 0.0
C504 C 0.53367 0.59235 0.43702 0.0
H505 H 0.34078 0.36426 0.44457 0.0
H506 H 0.38908 0.42619 0.44423 0.0
C507 C 0.56184 0.62807 0.43657 0.0
C508 C 0.51164 0.52571 0.43668 0.0
H509 H 0.43506 0.46241 0.41871 0.0
C510 C 0.51388 0.50363 0.44824 0.0
C511 C 0.48299 0.51056 0.42581 0.0
C512 C 0.47993 0.53232 0.41268 0.0
C513 C 0.48815 0.46704 0.44934 0.0
C514 C 0.45953 0.45195 0.43849 0.0
C515 C 0.45713 0.474 0.42698 0.0
C516 C 0.43086 0.41369 0.43927 0.0
C517 C 0.49136 0.44497 0.46229 0.0
C518 C 0.43825 0.38577 0.43668 0.0
C519 C 0.41044 0.34989 0.43685 0.0
C520 C 0.37477 0.34137 0.43957 0.0
C521 C 0.36781 0.36956 0.44239 0.0
C522 C 0.39543 0.40517 0.44218 0.0
H523 H 0.51045 0.46198 0.47154 0.0
H524 H 0.46483 0.42729 0.46779 0.0
H525 H 0.50123 0.4277 0.45728 0.0
H526 H 0.46539 0.39177 0.43421 0.0
H527 H 0.41678 0.32896 0.43455 0.0
H528 H 0.90115 0.55871 0.76256 0.0
H529 H 0.91759 0.51192 0.76351 0.0
H530 H 0.98507 0.56339 0.80361 0.0
H531 H 0.97016 0.61105 0.80212 0.0
H532 H 0.02097 0.5496 0.78358 0.0
H533 H 0.88921 0.42628 0.78978 0.0
H534 H 0.89079 0.45137 0.77274 0.0
H535 H 0.89448 0.47023 0.79199 0.0
C536 C 0.91866 0.5594 0.77184 0.0
C537 C 0.93418 0.58836 0.78233 0.0
C538 C 0.92809 0.5326 0.77239 0.0
C539 C 0.95241 0.53375 0.78373 0.0
C540 C 0.96639 0.56182 0.79471 0.0
H541 H -0.00974 0.35661 0.8002 0.0
H542 H 0.97408 0.40326 0.80213 0.0
C543 C 0.95764 0.58892 0.79393 0.0
C544 C 0.96558 0.50759 0.78352 0.0
H545 H 0.93845 0.41843 0.78255 0.0
C546 C 0.00284 0.52089 0.7835 0.0
C547 C 0.94215 0.47007 0.78354 0.0
C548 C 0.90197 0.45365 0.78468 0.0
C549 C 0.01726 0.49793 0.78349 0.0
C550 C -0.00617 0.46043 0.78286 0.0
C551 C 0.95657 0.44713 0.78291 0.0
C552 C 0.00704 0.4343 0.78253 0.0
C553 C 0.05743 0.51425 0.78462 0.0
C554 C 0.03176 0.43642 0.77112 0.0
C555 C 0.04187 0.41013 0.77029 0.0
C556 C 0.02664 0.38072 0.78057 0.0
C557 C 0.0025 0.37901 0.79213 0.0
C558 C -0.00695 0.40559 0.79318 0.0
H559 H 0.07013 0.54123 0.79009 0.0
H560 H 0.06478 0.49713 0.7916 0.0
H561 H 0.06879 0.51737 0.77265 0.0
H562 H 0.04229 0.45765 0.76247 0.0
H563 H 0.06 0.41177 0.76108 0.0
H564 H 0.36098 0.01479 0.10883 0.0
H565 H 0.42183 0.02642 0.11262 0.0
H566 H 0.38481 0.91359 0.10842 0.0
H567 H 0.32336 0.90165 0.10411 0.0
H568 H 0.45438 0.0059 0.13376 0.0
H569 H 0.46132 0.95517 0.0747 0.0
H570 H 0.42494 0.9621 0.08053 0.0
H571 H 0.42589 0.92282 0.0869 0.0
C572 C 0.36552 -0.00776 0.10879 0.0
C573 C 0.33715 0.95724 0.10594 0.0
C574 C 0.40049 -0.00098 0.11101 0.0
C575 C 0.40818 0.97106 0.11046 0.0
C576 C 0.37971 0.93577 0.10848 0.0
H577 H 0.60686 0.96751 0.11542 0.0
H578 H 0.54492 0.95424 0.11532 0.0
C579 C 0.34451 0.92891 0.10619 0.0
C580 C 0.44621 0.97951 0.11143 0.0
H581 H 0.51183 0.97396 0.0911 0.0
C582 C 0.46693 -0.0011 0.12443 0.0
C583 C 0.46277 0.97077 0.09917 0.0
C584 C 0.44275 0.95187 0.08446 0.0
C585 C 0.50348 0.0093 0.12559 0.0
C586 C 0.51986 0.00034 0.11338 0.0
C587 C 0.49919 0.98087 0.10043 0.0
C588 C 0.55804 0.00951 0.11407 0.0
C589 C 0.5242 0.02925 0.13998 0.0
C590 C 0.58625 0.04521 0.11339 0.0
C591 C 0.62214 0.05309 0.11338 0.0
C592 C 0.63034 0.02534 0.11406 0.0
C593 C 0.60181 -0.0103 0.11489 0.0
C594 C 0.56621 0.98194 0.11482 0.0
H595 H 0.50625 0.02838 0.14956 0.0
H596 H 0.5407 0.0179 0.14439 0.0
H597 H 0.54264 0.05769 0.13686 0.0
H598 H 0.58051 0.06692 0.1126 0.0
H599 H 0.64335 0.08077 0.11269 0.0
H600 H 0.16532 0.98882 0.0896 0.0
H601 H 0.16042 0.04052 0.09774 0.0
H602 H 0.20187 0.03737 0.1434 0.0
H603 H 0.20719 0.98564 0.13531 0.0
H604 H 0.12379 0.05071 0.12353 0.0
H605 H 0.27159 0.13919 0.12579 0.0
H606 H 0.25038 0.09622 0.11609 0.0
H607 H 0.25517 0.09878 0.13708 0.0
C608 C 0.17314 -0.00106 0.10143 0.0
C609 C 0.18709 0.98355 0.11178 0.0
C610 C 0.17025 0.0284 0.10604 0.0
C611 C 0.18141 0.04298 0.12102 0.0
C612 C 0.19374 0.0267 0.13166 0.0
H613 H 0.15525 0.18006 0.18088 0.0
H614 H 0.14673 0.13128 0.16377 0.0
C615 C 0.19656 -0.00289 0.12708 0.0
C616 C 0.18128 0.07597 0.12537 0.0
H617 H 0.23636 0.16179 0.13732 0.0
C618 C 0.14837 0.07518 0.12638 0.0
C619 C 0.21351 0.10801 0.1286 0.0
C620 C 0.24973 0.11086 0.1267 0.0
C621 C 0.14672 0.10517 0.13157 0.0
C622 C 0.17876 0.13635 0.13596 0.0
C623 C 0.21181 0.13778 0.13398 0.0
C624 C 0.17851 0.16574 0.14469 0.0
C625 C 0.11068 0.10297 0.13264 0.0
C626 C 0.19904 0.20135 0.13956 0.0
C627 C 0.20414 0.22947 0.14941 0.0
C628 C 0.18924 0.22213 0.16456 0.0
C629 C 0.16724 0.18643 0.16928 0.0
C630 C 0.16199 0.1585 0.15945 0.0
H631 H 0.09155 0.08361 0.12398 0.0
H632 H 0.09928 0.09347 0.14452 0.0
H633 H 0.11303 0.12951 0.13064 0.0
H634 H 0.21228 0.20737 0.12824 0.0
H635 H 0.22122 0.25679 0.14551 0.0
H636 H 0.95866 0.15442 0.51922 0.0
H637 H 0.01377 0.15675 0.51034 0.0
H638 H 0.04294 0.2538 0.48468 0.0
H639 H -0.01285 0.25112 0.49327 0.0
H640 H 0.05897 0.20782 0.46882 0.0
H641 H 0.10994 0.22825 0.52975 0.0
H642 H 0.06691 0.18858 0.52778 0.0
H643 H 0.07131 0.23176 0.52426 0.0
C644 C 0.9765 0.17583 0.51141 0.0
C645 C 0.96896 0.20273 0.50699 0.0
C646 C 0.00807 0.17736 0.50652 0.0
C647 C 0.03285 0.20613 0.49735 0.0
C648 C 0.02425 0.23169 0.49197 0.0
H649 H 0.25301 0.25331 0.48049 0.0
H650 H 0.20159 0.25619 0.49138 0.0
C651 C -0.00766 0.22997 0.49675 0.0
C652 C 0.06795 0.2096 0.49373 0.0
H653 H 0.14062 0.21168 0.51088 0.0
C654 C 0.07702 0.20906 0.47799 0.0
C655 C 0.0918 0.21211 0.50575 0.0
C656 C 0.08471 0.21562 0.52282 0.0
C657 C 0.10852 0.209 0.47395 0.0
C658 C 0.13091 0.20864 0.48601 0.0
C659 C 0.1229 0.21118 0.50172 0.0
C660 C 0.16201 0.20437 0.48236 0.0
C661 C 0.1174 0.20901 0.4568 0.0
C662 C 0.15658 0.17336 0.47466 0.0
C663 C 0.18562 0.17176 0.46844 0.0
C664 C 0.22049 0.20089 0.47009 0.0
C665 C 0.2263 0.23044 0.47921 0.0
C666 C 0.19704 0.23221 0.4853 0.0
H667 H 0.10357 0.21952 0.44934 0.0
H668 H 0.14674 0.22538 0.45472 0.0
H669 H 0.1084 0.18115 0.45303 0.0
H670 H 0.12969 0.15131 0.47263 0.0
H671 H 0.18066 0.1487 0.46147 0.0
H672 H 0.03881 0.18947 0.79725 0.0
H673 H -0.00702 0.13644 0.81105 0.0
H674 H 0.94865 0.19878 0.83017 0.0
H675 H -0.00428 0.25232 0.81701 0.0
H676 H 0.94116 0.14706 0.85033 0.0
H677 H 0.89537 0.09031 0.79084 0.0
H678 H 0.94028 0.10034 0.79499 0.0
H679 H 0.93007 0.13601 0.79398 0.0
C680 C 0.02001 0.19199 0.80488 0.0
C681 C 0.02042 0.22461 0.8061 0.0
C682 C -0.00631 0.16172 0.81259 0.0
C683 C 0.96676 0.16352 0.82113 0.0
C684 C 0.96906 0.19685 0.82349 0.0
H685 H 0.74854 -0.00664 0.83371 0.0
H686 H 0.80486 0.04437 0.82449 0.0
C687 C -0.00403 0.22739 0.81606 0.0
C688 C 0.93439 0.13035 0.82618 0.0
H689 H 0.86485 0.05228 0.81225 0.0
C690 C 0.92446 0.12626 0.84204 0.0
C691 C 0.91222 0.10375 0.81522 0.0
C692 C 0.91976 0.10791 0.79779 0.0
C693 C 0.89299 0.0961 0.84729 0.0
C694 C 0.87166 0.06882 0.83642 0.0
C695 C 0.88154 0.07301 0.82056 0.0
C696 C 0.83819 0.03634 0.84115 0.0
C697 C 0.88236 0.09443 0.8643 0.0
C698 C 0.83853 0.01417 0.85309 0.0
C699 C 0.80646 0.98548 0.85849 0.0
C700 C 0.77369 0.97799 0.85175 0.0
C701 C 0.77353 -0.0014 0.83906 0.0
C702 C 0.80561 0.02776 0.83385 0.0
H703 H 0.89545 0.12145 0.86975 0.0
H704 H 0.85286 0.08224 0.86558 0.0
H705 H 0.89095 0.07786 0.87093 0.0
H706 H 0.8635 0.01957 0.85849 0.0
H707 H 0.80718 0.96961 0.8682 0.0
H708 H 0.70364 0.98137 0.14852 0.0
H709 H 0.69688 0.92314 0.15533 0.0
H710 H 0.81181 0.96905 0.15335 0.0
H711 H 0.81841 0.02679 0.14598 0.0
H712 H 0.77502 0.91498 0.13185 0.0
H713 H 0.71574 0.87244 0.1915 0.0
H714 H 0.69325 0.88787 0.17862 0.0
H715 H 0.73789 0.91862 0.18522 0.0
C716 C 0.72748 0.97937 0.15039 0.0
C717 C 0.76157 0.00833 0.14688 0.0
C718 C 0.72359 0.94608 0.15418 0.0
C719 C 0.75386 0.94185 0.15475 0.0
C720 C 0.78816 0.97184 0.1529 0.0
H721 H 0.82051 0.79407 0.16806 0.0
H722 H 0.81186 0.84294 0.15892 0.0
C723 C 0.79197 0.00484 0.14887 0.0
C724 C 0.74993 0.90584 0.15463 0.0
H725 H 0.72296 0.83042 0.17646 0.0
C726 C 0.76347 0.89641 0.14158 0.0
C727 C 0.73418 0.88149 0.16718 0.0
C728 C 0.71963 0.89056 0.1815 0.0
C729 C 0.76319 0.86385 0.14108 0.0
C730 C 0.74895 0.84025 0.15391 0.0
C731 C 0.73364 0.84871 0.16659 0.0
C732 C 0.75461 0.8095 0.15558 0.0
C733 C 0.77904 0.85528 0.12708 0.0
C734 C 0.72542 0.77446 0.15606 0.0
C735 C 0.7305 0.74637 0.16095 0.0
C736 C 0.76464 0.75345 0.16572 0.0
C737 C 0.7941 0.78809 0.16421 0.0
C738 C 0.78915 0.81593 0.15906 0.0
H739 H 0.78073 0.87159 0.11668 0.0
H740 H 0.80657 0.86112 0.13 0.0
H741 H 0.76289 0.82646 0.124 0.0
H742 H 0.69857 0.76924 0.15354 0.0
H743 H 0.70733 0.7199 0.16237 0.0
H744 H 0.70173 0.70078 0.47469 0.0
H745 H 0.74761 0.6902 0.48656 0.0
H746 H 0.82137 0.80403 0.48735 0.0
H747 H 0.77609 0.81452 0.47514 0.0
H748 H 0.81527 0.71993 0.46763 0.0
H749 H 0.83767 0.76349 0.52987 0.0
H750 H 0.79497 0.7472 0.52013 0.0
H751 H 0.83069 0.79221 0.51681 0.0
C752 C 0.72717 0.7235 0.47814 0.0
C753 C 0.73559 0.75847 0.47422 0.0
C754 C 0.75333 0.71743 0.48478 0.0
C755 C 0.78764 0.74637 0.48785 0.0
C756 C 0.79482 0.78145 0.48526 0.0
H757 H 0.0037 0.81919 0.50527 0.0
H758 H 0.94435 0.8084 0.49774 0.0
C759 C 0.76902 0.78745 0.47834 0.0
C760 C 0.81795 0.74054 0.49092 0.0
H761 H 0.88685 0.76399 0.51642 0.0
C762 C 0.83064 0.72869 0.47842 0.0
C763 C 0.83771 0.75223 0.50495 0.0
C764 C 0.82449 0.76424 0.51879 0.0
C765 C 0.8642 0.73081 0.47918 0.0
C766 C 0.88495 0.74448 0.49292 0.0
C767 C 0.87102 0.75399 0.5058 0.0
C768 C 0.92214 0.75152 0.49401 0.0
C769 C 0.87811 0.72062 0.46497 0.0
C770 C 0.92973 0.72343 0.49351 0.0
C771 C 0.96398 0.72981 0.4974 0.0
C772 C -0.00944 0.76418 0.5021 0.0
C773 C 0.98362 0.79261 0.50149 0.0
C774 C 0.94971 0.78637 0.49737 0.0
H775 H 0.86203 0.71764 0.45431 0.0
H776 H 0.90653 0.74096 0.46261 0.0
H777 H 0.87683 0.69465 0.46721 0.0
H778 H 0.90867 0.69627 0.49118 0.0
H779 H 0.9686 0.70736 0.49817 0.0
H780 H 0.26526 -0.01007 0.81617 0.0
H781 H 0.21497 0.93498 0.80533 0.0
H782 H 0.14507 0.97871 0.81197 0.0
H783 H 0.19484 0.0331 0.82316 0.0
H784 H 0.14498 0.90524 0.83039 0.0
H785 H 0.12543 0.91516 0.76636 0.0
H786 H 0.16953 0.93636 0.77518 0.0
H787 H 0.14057 0.95444 0.77848 0.0
C788 C 0.23958 0.98844 0.81455 0.0
C789 C 0.23364 0.01551 0.82038 0.0
C790 C 0.21094 0.95706 0.80848 0.0
C791 C 0.17659 0.95311 0.80792 0.0
C792 C 0.17158 0.98164 0.81223 0.0
H793 H 0.96024 0.799 0.78868 0.0
H794 H 0.01787 0.85198 0.79464 0.0
C795 C 0.19994 0.01263 0.81854 0.0
C796 C 0.14484 0.91756 0.80593 0.0
H797 H 0.07889 0.86627 0.78005 0.0
C798 C 0.13062 0.89625 0.81936 0.0
C799 C 0.12643 0.90663 0.79157 0.0
C800 C 0.14112 0.92914 0.77698 0.0
C801 C 0.0973 0.86466 0.81896 0.0
C802 C 0.07837 0.8539 0.80463 0.0
C803 C 0.09341 0.87471 0.79105 0.0
C804 C 0.04225 0.82203 0.80345 0.0
C805 C 0.08198 0.84416 0.83403 0.0
C806 C 0.03644 0.78777 0.80709 0.0
C807 C 0.00316 0.75752 0.80409 0.0
C808 C 0.97573 0.76128 0.79709 0.0
C809 C 0.98103 0.79559 0.79418 0.0
C810 C 0.01397 0.82575 0.79744 0.0
H811 H 0.0952 0.86092 0.84451 0.0
H812 H 0.0527 0.83401 0.83485 0.0
H813 H 0.08633 0.82089 0.83434 0.0
H814 H 0.0581 0.78427 0.81146 0.0
H815 H -0.00016 0.73122 0.80612 0.0
H816 H 0.30666 0.22062 0.37741 0.0
H817 H 0.30335 0.22726 0.34882 0.0
H818 H 0.21501 0.24636 0.35548 0.0
H819 H 0.21778 0.23968 0.38363 0.0
H820 H 0.23765 0.1888 0.32748 0.0
H821 H 0.29517 0.33621 0.33105 0.0
H822 H 0.30167 0.31077 0.34624 0.0
H823 H 0.2597 0.31005 0.34472 0.0
C824 C 0.28634 0.22585 0.37274 0.0
C825 C 0.2628 0.23001 0.38285 0.0
C826 C 0.28455 0.22975 0.35645 0.0
C827 C 0.25936 0.23798 0.35014 0.0
C828 C 0.23505 0.24067 0.36015 0.0
H829 H 0.20654 0.28828 0.25809 0.0
H830 H 0.21015 0.27933 0.28644 0.0
C831 C 0.23672 0.23675 0.37628 0.0
C832 C 0.25816 0.24426 0.33314 0.0
H833 H 0.26978 0.30874 0.30669 0.0
C834 C 0.245 0.21503 0.32287 0.0
C835 C 0.2672 0.27845 0.32727 0.0
C836 C 0.28199 0.31081 0.33784 0.0
C837 C 0.24008 0.21899 0.30686 0.0
C838 C 0.24934 0.25328 0.30095 0.0
C839 C 0.26253 0.2825 0.31125 0.0
C840 C 0.24734 0.2596 0.28396 0.0
C841 C 0.22422 0.18625 0.2965 0.0
C842 C 0.26775 0.25245 0.27331 0.0
C843 C 0.26567 0.25739 0.25729 0.0
C844 C 0.24339 0.27001 0.25146 0.0
C845 C 0.2238 0.2784 0.26219 0.0
C846 C 0.22581 0.27324 0.27835 0.0
H847 H 0.20883 0.16126 0.30343 0.0
H848 H 0.2062 0.18744 0.2875 0.0
H849 H 0.24621 0.18476 0.29037 0.0
H850 H 0.28533 0.24294 0.2774 0.0
H851 H 0.28164 0.25116 0.24945 0.0
H852 H -0.00203 0.28847 0.58839 0.0
H853 H 0.00674 0.29184 0.61652 0.0
H854 H 0.89644 0.20964 0.62318 0.0
H855 H 0.88739 0.20545 0.59452 0.0
H856 H 0.97438 0.30782 0.64042 0.0
H857 H 0.95255 0.16982 0.64648 0.0
H858 H 0.95851 0.19124 0.62765 0.0
H859 H 0.91641 0.17338 0.63781 0.0
C860 C 0.97534 0.27098 0.59573 0.0
C861 C 0.942 0.24627 0.58913 0.0
C862 C 0.98047 0.27313 0.61189 0.0
C863 C 0.9525 0.25066 0.62196 0.0
C864 C 0.91863 0.2268 0.61557 0.0
H865 H 0.9541 0.2274 0.72255 0.0
H866 H 0.93937 0.22302 0.69485 0.0
C867 C 0.91338 0.22462 0.59923 0.0
C868 C 0.95989 0.25232 0.63905 0.0
H869 H 0.9676 0.2049 0.6694 0.0
C870 C 0.97273 0.28526 0.64679 0.0
C871 C 0.95807 0.22298 0.64728 0.0
C872 C 0.94593 0.18739 0.63941 0.0
C873 C 0.98371 0.28964 0.66254 0.0
C874 C 0.98231 0.26044 0.67071 0.0
C875 C 0.96897 0.22735 0.66305 0.0
C876 C -0.00738 0.26304 0.68747 0.0
C877 C -0.00377 0.32534 0.67037 0.0
C878 C 0.02782 0.28665 0.69256 0.0
C879 C 0.03654 0.28933 0.70857 0.0
C880 C 0.01011 0.26841 0.71969 0.0
C881 C 0.97518 0.24421 0.71439 0.0
C882 C 0.96661 0.24153 0.69851 0.0
H883 H -0.01167 0.34235 0.66363 0.0
H884 H -0.01488 0.32168 0.68243 0.0
H885 H 0.02592 0.33983 0.67125 0.0
H886 H 0.04849 0.30307 0.68416 0.0
H887 H 0.06366 0.30811 0.71223 0.0
H888 H 0.73176 0.06504 0.05384 0.0
H889 H 0.71956 0.04883 0.0259 0.0
H890 H 0.74439 0.9645 0.03271 0.0
H891 H 0.75616 0.98013 0.06039 0.0
H892 H 0.7606 0.04122 0.00111 0.0
H893 H 0.64072 0.91119 0.01627 0.0
H894 H 0.66259 0.94724 0.03024 0.0
H895 H 0.68114 0.91899 0.02584 0.0
C896 C 0.73535 0.0436 0.04926 0.0
C897 C 0.74451 0.02361 0.05933 0.0
C898 C 0.72813 0.03418 0.03336 0.0
C899 C 0.73005 0.00476 0.02738 0.0
C900 C 0.74173 0.98659 0.03718 0.0
H901 H 0.69649 0.90216 0.93569 0.0
H902 H 0.70511 0.91494 0.96406 0.0
C903 C 0.7487 -0.00422 0.05298 0.0
C904 C 0.71892 -0.00792 0.01105 0.0
H905 H 0.65955 0.91934 -0.0104 0.0
C906 C 0.73839 0.01469 -0.00142 0.0
C907 C 0.68998 0.95732 0.0078 0.0
C908 C 0.66715 0.93235 0.02072 0.0
C909 C 0.73012 0.00326 0.98294 0.0
C910 C 0.70124 0.9685 0.97969 0.0
C911 C 0.68175 0.94586 -0.00786 0.0
C912 C 0.69029 0.95607 0.96335 0.0
C913 C 0.7527 0.0283 0.96998 0.0
C914 C 0.67717 0.97346 0.95385 0.0
C915 C 0.6722 0.96617 0.93784 0.0
C916 C 0.67988 0.94107 0.931 0.0
C917 C 0.69001 0.92131 0.94071 0.0
C918 C 0.69523 0.92884 0.95685 0.0
H919 H 0.77873 0.05019 0.97444 0.0
H920 H 0.75809 0.01357 0.96067 0.0
H921 H 0.73801 0.04064 0.96459 0.0
H922 H 0.67253 -0.00597 0.9587 0.0
H923 H 0.66428 0.98171 0.9306 0.0
H924 H 0.76462 0.77439 0.2525 0.0
H925 H 0.76207 0.7808 0.2807 0.0
H926 H 0.75282 0.67746 0.28763 0.0
H927 H 0.7549 0.6705 0.25899 0.0
H928 H 0.70056 0.68668 0.30385 0.0
H929 H 0.83637 0.8016 0.31461 0.0
H930 H 0.81355 0.80991 0.299 0.0
H931 H 0.82495 0.77525 0.29688 0.0
C932 C 0.76256 0.75311 0.25997 0.0
C933 C 0.7599 0.72185 0.25348 0.0
C934 C 0.76132 0.75698 0.27615 0.0
C935 C 0.75761 0.72982 0.2863 0.0
C936 C 0.75589 0.69885 0.27997 0.0
H937 H 0.77292 0.75066 0.38698 0.0
H938 H 0.78139 0.74549 0.35913 0.0
C939 C 0.75734 0.69499 0.26364 0.0
C940 C 0.75324 0.73337 0.30339 0.0
H941 H 0.79246 0.7893 0.33455 0.0
C942 C 0.72078 0.70888 0.31063 0.0
C943 C 0.77964 0.76235 0.31221 0.0
C944 C 0.81572 0.78858 0.30532 0.0
C945 C 0.71374 0.713 0.32639 0.0
C946 C 0.7396 0.7428 0.33503 0.0
C947 C 0.77234 0.76685 0.32785 0.0
C948 C 0.73456 0.748 0.3519 0.0
C949 C 0.67895 0.6851 0.33372 0.0
C950 C 0.70586 0.75223 0.35716 0.0
C951 C 0.7008 0.75519 0.37328 0.0
C952 C 0.72442 0.75398 0.38432 0.0
C953 C 0.75393 0.75133 0.37886 0.0
C954 C 0.75891 0.74841 0.36288 0.0
H955 H 0.66592 0.66001 0.32672 0.0
H956 H 0.68341 0.67861 0.34582 0.0
H957 H 0.66017 0.69566 0.33437 0.0
H958 H 0.68716 0.75279 0.34884 0.0
H959 H 0.67787 0.75723 0.37709 0.0
H960 H 0.06043 0.73973 0.59329 0.0
H961 H 0.04726 0.72853 0.62156 0.0
H962 H 0.96241 0.7535 0.61694 0.0
H963 H 0.97518 0.76455 0.58899 0.0
H964 H 0.04012 0.77213 0.64707 0.0
H965 H 0.91251 0.64792 0.63322 0.0
H966 H 0.94842 0.66996 0.61912 0.0
H967 H 0.91911 0.68743 0.6232 0.0
C968 C 0.03962 0.74368 0.59842 0.0
C969 C 0.0186 0.75262 0.58891 0.0
C970 C 0.03194 0.73704 0.61451 0.0
C971 C 0.00324 0.73932 0.6212 0.0
C972 C 0.9841 0.7508 0.61193 0.0
H973 H 0.89715 0.69498 0.71268 0.0
H974 H 0.91175 0.70678 0.68454 0.0
C975 C -0.00839 0.75728 0.59597 0.0
C976 C -0.00817 0.72823 0.63765 0.0
H977 H 0.92148 0.66689 0.65978 0.0
C978 C 0.01434 0.749 0.64988 0.0
C979 C 0.95797 0.69819 0.64124 0.0
C980 C 0.93314 0.67434 0.62853 0.0
C981 C 0.00362 0.74088 0.66563 0.0
C982 C 0.96979 0.71076 0.66923 0.0
C983 C 0.94729 0.69 0.65699 0.0
C984 C 0.95813 0.69977 0.68569 0.0
C985 C 0.02833 0.7651 0.67829 0.0
C986 C 0.97821 0.69018 0.69538 0.0
C987 C 0.96996 0.68348 0.71128 0.0
C988 C 0.94118 0.68582 0.71784 0.0
C989 C 0.91937 0.69286 0.70793 0.0
C990 C 0.92785 0.69983 0.69191 0.0
H991 H 0.04815 0.79183 0.67358 0.0
H992 H 0.01292 0.76875 0.68787 0.0
H993 H 0.04339 0.75284 0.68339 0.0
H994 H 0.00104 0.68897 0.69074 0.0
H995 H -0.01299 0.67766 0.71858 0.0
H996 H 0.29929 0.97054 0.03567 0.0
H997 H 0.30051 0.9802 0.00746 0.0
H998 H 0.18751 0.90304 0.00483 0.0
H999 H 0.18609 0.89372 0.03339 0.0
H1000 H 0.2835 0.941 0.98034 0.0
H1001 H 0.19213 -0.00443 -0.0097 0.0
H1002 H 0.21268 0.98483 0.00623 0.0
H1003 H 0.17472 0.94979 -0.00387 0.0
C1004 C 0.27491 0.95477 0.02901 0.0
C1005 C 0.24254 0.93154 0.0367 0.0
C1006 C 0.27562 0.96043 0.01288 0.0
C1007 C 0.24393 0.94313 0.0041 0.0
C1008 C 0.21213 0.9173 0.01148 0.0
H1009 H 0.20382 0.97727 0.90808 0.0
H1010 H 0.19933 0.9592 0.93549 0.0
C1011 C 0.21142 0.91152 0.02773 0.0
C1012 C 0.2442 0.95499 -0.0123 0.0
H1013 H 0.21252 -0.0023 0.96445 0.0
C1014 C 0.26786 0.95324 0.97684 0.0
C1015 C 0.22414 0.97145 0.98322 0.0
C1016 C 0.19969 0.9759 -0.00542 0.0
C1017 C 0.27182 0.96725 0.96161 0.0
C1018 C 0.25195 0.98388 0.95719 0.0
C1019 C 0.22795 0.98523 0.96795 0.0
C1020 C 0.25422 -0.00185 0.94113 0.0
C1021 C 0.29686 0.96373 0.95028 0.0
C1022 C 0.2862 0.0272 0.93538 0.0
C1023 C 0.28879 0.03793 0.91966 0.0
C1024 C 0.25947 0.01952 0.9095 0.0
C1025 C 0.22696 -0.00814 0.9156 0.0
C1026 C 0.22432 0.98142 0.93126 0.0
H1027 H 0.3048 0.94428 0.95447 0.0
H1028 H 0.28418 0.95508 0.93856 0.0
H1029 H 0.32154 -0.00984 0.94889 0.0
H1030 H 0.30944 0.04082 0.94292 0.0
H1031 H 0.31421 0.05917 0.91526 0.0
loop_
_geom_bond_atom_site_label_1
_geom_bond_atom_site_label_2
_geom_bond_distance
_geom_bond_site_symmetry_2
_ccdc_geom_bond_type
C0 O1 1.306 . S
C0 O3 1.160 . S
O1 C0 1.306 . S
O1 Cd2 2.228 . S
Cd2 O1 2.228 . S
Cd2 O6 2.273 . S
Cd2 O10 2.277 . S
O3 C0 1.160 . S
O3 Cd4 2.203 . S
Cd4 O3 2.203 . S
Cd4 O6 2.411 . S
Cd4 O7 2.333 . S
Cd4 O8 2.352 . S
Cd4 O12 2.277 . S
Cd4 O13 2.356 . S
C5 O10 1.209 . S
C5 O12 1.226 . S
O6 Cd2 2.273 . S
O6 Cd4 2.411 . S
O6 C9 1.320 . S
O7 Cd4 2.333 . S
O7 C9 1.214 . S
O8 Cd4 2.352 . S
O8 C11 1.258 . S
C9 O6 1.320 . S
C9 O7 1.214 . S
O10 Cd2 2.277 . S
O10 C5 1.209 . S
C11 O8 1.258 . S
C11 O13 1.282 . S
O12 Cd4 2.277 . S
O12 C5 1.226 . S
O13 Cd4 2.356 . S
O13 C11 1.282 . S
C14 O15 1.306 . S
C14 O17 1.160 . S
O15 C14 1.306 . S
O15 Cd16 2.228 1_655 S
Cd16 O15 2.228 1_455 S
Cd16 O20 2.273 . S
Cd16 O24 2.277 1_455 S
O17 C14 1.160 . S
O17 Cd18 2.203 . S
Cd18 O17 2.203 . S
Cd18 O20 2.411 1_655 S
Cd18 O21 2.333 . S
Cd18 O22 2.352 . S
Cd18 O26 2.277 . S
Cd18 O27 2.356 . S
C19 O24 1.209 . S
C19 O26 1.226 . S
O20 Cd16 2.273 . S
O20 Cd18 2.411 1_455 S
O20 C23 1.320 . S
O21 Cd18 2.333 . S
O21 C23 1.214 1_655 S
O22 Cd18 2.352 . S
O22 C25 1.258 . S
C23 O20 1.320 . S
C23 O21 1.214 1_455 S
O24 Cd16 2.277 1_655 S
O24 C19 1.209 . S
C25 O22 1.258 . S
C25 O27 1.282 . S
O26 Cd18 2.277 . S
O26 C19 1.226 . S
O27 Cd18 2.356 . S
O27 C25 1.282 . S
C28 O29 1.306 . S
C28 O31 1.160 . S
O29 C28 1.306 . S
O29 Cd30 2.228 1_565 S
Cd30 O29 2.228 1_545 S
Cd30 O34 2.273 . S
Cd30 O38 2.277 1_545 S
O31 C28 1.160 . S
O31 Cd32 2.203 . S
Cd32 O31 2.203 . S
Cd32 O34 2.411 1_565 S
Cd32 O35 2.333 . S
Cd32 O36 2.352 . S
Cd32 O40 2.277 . S
Cd32 O41 2.356 . S
C33 O38 1.209 . S
C33 O40 1.226 . S
O34 Cd30 2.273 . S
O34 Cd32 2.411 1_545 S
O34 C37 1.320 . S
O35 Cd32 2.333 . S
O35 C37 1.214 1_565 S
O36 Cd32 2.352 . S
O36 C39 1.258 . S
C37 O34 1.320 . S
C37 O35 1.214 1_545 S
O38 Cd30 2.277 1_565 S
O38 C33 1.209 . S
C39 O36 1.258 . S
C39 O41 1.282 . S
O40 Cd32 2.277 . S
O40 C33 1.226 . S
O41 Cd32 2.356 . S
O41 C39 1.282 . S
C42 O43 1.306 . S
C42 O45 1.160 . S
O43 C42 1.306 . S
O43 Cd44 2.228 . S
Cd44 O43 2.228 . S
Cd44 O48 2.273 . S
Cd44 O52 2.277 . S
O45 C42 1.160 . S
O45 Cd46 2.203 . S
Cd46 O45 2.203 . S
Cd46 O48 2.411 . S
Cd46 O49 2.333 . S
Cd46 O50 2.352 . S
Cd46 O54 2.277 . S
Cd46 O55 2.356 . S
C47 O52 1.209 . S
C47 O54 1.226 . S
O48 Cd44 2.273 . S
O48 Cd46 2.411 . S
O48 C51 1.320 . S
O49 Cd46 2.333 . S
O49 C51 1.214 . S
O50 Cd46 2.352 . S
O50 C53 1.258 . S
C51 O48 1.320 . S
C51 O49 1.214 . S
O52 Cd44 2.277 . S
O52 C47 1.209 . S
C53 O50 1.258 . S
C53 O55 1.282 . S
O54 Cd46 2.277 . S
O54 C47 1.226 . S
O55 Cd46 2.356 . S
O55 C53 1.282 . S
C56 O57 1.306 . S
C56 O59 1.160 . S
O57 C56 1.306 . S
O57 Cd58 2.228 1_455 S
Cd58 O57 2.228 1_655 S
Cd58 O62 2.273 . S
Cd58 O66 2.277 1_655 S
O59 C56 1.160 . S
O59 Cd60 2.203 . S
Cd60 O59 2.203 . S
Cd60 O62 2.411 1_455 S
Cd60 O63 2.333 . S
Cd60 O64 2.352 . S
Cd60 O68 2.277 . S
Cd60 O69 2.356 . S
C61 O66 1.209 . S
C61 O68 1.226 . S
O62 Cd58 2.273 . S
O62 Cd60 2.411 1_655 S
O62 C65 1.320 . S
O63 Cd60 2.333 . S
O63 C65 1.214 1_455 S
O64 Cd60 2.352 . S
O64 C67 1.258 . S
C65 O62 1.320 . S
C65 O63 1.214 1_655 S
O66 Cd58 2.277 1_455 S
O66 C61 1.209 . S
C67 O64 1.258 . S
C67 O69 1.282 . S
O68 Cd60 2.277 . S
O68 C61 1.226 . S
O69 Cd60 2.356 . S
O69 C67 1.282 . S
C70 O71 1.306 . S
C70 O73 1.160 . S
O71 C70 1.306 . S
O71 Cd72 2.228 1_545 S
Cd72 O71 2.228 1_565 S
Cd72 O76 2.273 . S
Cd72 O80 2.277 1_565 S
O73 C70 1.160 . S
O73 Cd74 2.203 . S
Cd74 O73 2.203 . S
Cd74 O76 2.411 1_545 S
Cd74 O77 2.333 . S
Cd74 O78 2.352 . S
Cd74 O82 2.277 . S
Cd74 O83 2.356 . S
C75 O80 1.209 . S
C75 O82 1.226 . S
O76 Cd72 2.273 . S
O76 Cd74 2.411 1_565 S
O76 C79 1.320 . S
O77 Cd74 2.333 . S
O77 C79 1.214 1_545 S
O78 Cd74 2.352 . S
O78 C81 1.258 . S
C79 O76 1.320 . S
C79 O77 1.214 1_565 S
O80 Cd72 2.277 1_545 S
O80 C75 1.209 . S
C81 O78 1.258 . S
C81 O83 1.282 . S
O82 Cd74 2.277 . S
O82 C75 1.226 . S
O83 Cd74 2.356 . S
O83 C81 1.282 . S
C84 O85 1.306 . S
C84 O87 1.160 . S
O85 C84 1.306 . S
O85 Cd86 2.228 . S
Cd86 O85 2.228 . S
Cd86 O90 2.273 . S
Cd86 O94 2.277 . S
O87 C84 1.160 . S
O87 Cd88 2.203 . S
Cd88 O87 2.203 . S
Cd88 O90 2.411 . S
Cd88 O91 2.333 . S
Cd88 O92 2.352 . S
Cd88 O96 2.277 . S
Cd88 O97 2.356 . S
C89 O94 1.209 . S
C89 O96 1.226 . S
O90 Cd86 2.273 . S
O90 Cd88 2.411 . S
O90 C93 1.320 . S
O91 Cd88 2.333 . S
O91 C93 1.214 . S
O92 Cd88 2.352 . S
O92 C95 1.258 . S
C93 O90 1.320 . S
C93 O91 1.214 . S
O94 Cd86 2.277 . S
O94 C89 1.209 . S
C95 O92 1.258 . S
C95 O97 1.282 . S
O96 Cd88 2.277 . S
O96 C89 1.226 . S
O97 Cd88 2.356 . S
O97 C95 1.282 . S
C98 O99 1.306 . S
C98 O101 1.160 . S
O99 C98 1.306 . S
O99 Cd100 2.228 1_655 S
Cd100 O99 2.228 1_455 S
Cd100 O104 2.273 . S
Cd100 O108 2.277 1_455 S
O101 C98 1.160 . S
O101 Cd102 2.203 . S
Cd102 O101 2.203 . S
Cd102 O104 2.411 1_655 S
Cd102 O105 2.333 . S
Cd102 O106 2.352 . S
Cd102 O110 2.277 . S
Cd102 O111 2.356 . S
C103 O108 1.209 . S
C103 O110 1.226 . S
O104 Cd100 2.273 . S
O104 Cd102 2.411 1_455 S
O104 C107 1.320 . S
O105 Cd102 2.333 . S
O105 C107 1.214 1_655 S
O106 Cd102 2.352 . S
O106 C109 1.258 . S
C107 O104 1.320 . S
C107 O105 1.214 1_455 S
O108 Cd100 2.277 1_655 S
O108 C103 1.209 . S
C109 O106 1.258 . S
C109 O111 1.282 . S
O110 Cd102 2.277 . S
O110 C103 1.226 . S
O111 Cd102 2.356 . S
O111 C109 1.282 . S
C112 O113 1.306 . S
C112 O115 1.160 . S
O113 C112 1.306 . S
O113 Cd114 2.228 1_565 S
Cd114 O113 2.228 1_545 S
Cd114 O118 2.273 . S
Cd114 O122 2.277 1_545 S
O115 C112 1.160 . S
O115 Cd116 2.203 . S
Cd116 O115 2.203 . S
Cd116 O118 2.411 1_565 S
Cd116 O119 2.333 . S
Cd116 O120 2.352 . S
Cd116 O124 2.277 . S
Cd116 O125 2.356 . S
C117 O122 1.209 . S
C117 O124 1.226 . S
O118 Cd114 2.273 . S
O118 Cd116 2.411 1_545 S
O118 C121 1.320 . S
O119 Cd116 2.333 . S
O119 C121 1.214 1_565 S
O120 Cd116 2.352 . S
O120 C123 1.258 . S
C121 O118 1.320 . S
C121 O119 1.214 1_545 S
O122 Cd114 2.277 1_565 S
O122 C117 1.209 . S
C123 O120 1.258 . S
C123 O125 1.282 . S
O124 Cd116 2.277 . S
O124 C117 1.226 . S
O125 Cd116 2.356 . S
O125 C123 1.282 . S
C126 O127 1.306 . S
C126 O129 1.160 . S
O127 C126 1.306 . S
O127 Cd128 2.228 . S
Cd128 O127 2.228 . S
Cd128 O132 2.273 . S
Cd128 O136 2.277 . S
O129 C126 1.160 . S
O129 Cd130 2.203 . S
Cd130 O129 2.203 . S
Cd130 O132 2.411 . S
Cd130 O133 2.333 . S
Cd130 O134 2.352 . S
Cd130 O138 2.277 . S
Cd130 O139 2.356 . S
C131 O136 1.209 . S
C131 O138 1.226 . S
O132 Cd128 2.273 . S
O132 Cd130 2.411 . S
O132 C135 1.320 . S
O133 Cd130 2.333 . S
O133 C135 1.214 . S
O134 Cd130 2.352 . S
O134 C137 1.258 . S
C135 O132 1.320 . S
C135 O133 1.214 . S
O136 Cd128 2.277 . S
O136 C131 1.209 . S
C137 O134 1.258 . S
C137 O139 1.282 . S
O138 Cd130 2.277 . S
O138 C131 1.226 . S
O139 Cd130 2.356 . S
O139 C137 1.282 . S
C140 O141 1.306 . S
C140 O143 1.160 . S
O141 C140 1.306 . S
O141 Cd142 2.228 1_455 S
Cd142 O141 2.228 1_655 S
Cd142 O146 2.273 . S
Cd142 O150 2.277 1_655 S
O143 C140 1.160 . S
O143 Cd144 2.203 . S
Cd144 O143 2.203 . S
Cd144 O146 2.411 1_455 S
Cd144 O147 2.333 . S
Cd144 O148 2.352 . S
Cd144 O152 2.277 . S
Cd144 O153 2.356 . S
C145 O150 1.209 . S
C145 O152 1.226 . S
O146 Cd142 2.273 . S
O146 Cd144 2.411 1_655 S
O146 C149 1.320 . S
O147 Cd144 2.333 . S
O147 C149 1.214 1_455 S
O148 Cd144 2.352 . S
O148 C151 1.258 . S
C149 O146 1.320 . S
C149 O147 1.214 1_655 S
O150 Cd142 2.277 1_455 S
O150 C145 1.209 . S
C151 O148 1.258 . S
C151 O153 1.282 . S
O152 Cd144 2.277 . S
O152 C145 1.226 . S
O153 Cd144 2.356 . S
O153 C151 1.282 . S
C154 O155 1.306 . S
C154 O157 1.160 . S
O155 C154 1.306 . S
O155 Cd156 2.228 1_545 S
Cd156 O155 2.228 1_565 S
Cd156 O160 2.273 . S
Cd156 O164 2.277 1_565 S
O157 C154 1.160 . S
O157 Cd158 2.203 . S
Cd158 O157 2.203 . S
Cd158 O160 2.411 1_545 S
Cd158 O161 2.333 . S
Cd158 O162 2.352 . S
Cd158 O166 2.277 . S
Cd158 O167 2.356 . S
C159 O164 1.209 . S
C159 O166 1.226 . S
O160 Cd156 2.273 . S
O160 Cd158 2.411 1_565 S
O160 C163 1.320 . S
O161 Cd158 2.333 . S
O161 C163 1.214 1_545 S
O162 Cd158 2.352 . S
O162 C165 1.258 . S
C163 O160 1.320 . S
C163 O161 1.214 1_565 S
O164 Cd156 2.277 1_545 S
O164 C159 1.209 . S
C165 O162 1.258 . S
C165 O167 1.282 . S
O166 Cd158 2.277 . S
O166 C159 1.226 . S
O167 Cd158 2.356 . S
O167 C165 1.282 . S
H168 C176 0.929 . S
H169 C178 0.930 . S
H170 C180 0.930 . S
H171 C183 0.929 . S
H172 C186 0.930 . S
H173 C188 0.967 . S
H174 C188 0.953 1_655 S
H175 C188 0.960 1_655 S
C176 H168 0.929 . S
C176 C177 1.377 . S
C176 C178 1.384 . S
C177 C176 1.377 . S
C177 C183 1.390 . S
C178 H169 0.930 . S
C178 C176 1.384 . S
C178 C179 1.372 . S
C179 C178 1.372 . S
C179 C180 1.400 . S
C179 C184 1.490 . S
C180 H170 0.930 . S
C180 C179 1.400 . S
C180 C183 1.386 . S
H181 C197 0.930 . S
H182 C198 0.931 . S
C183 H171 0.929 . S
C183 C177 1.390 . S
C183 C180 1.386 . S
C184 C179 1.490 . S
C184 C186 1.395 . S
C184 C187 1.403 . S
H185 C191 0.930 . S
C186 H172 0.930 . S
C186 C184 1.395 . S
C186 C189 1.403 . S
C187 C184 1.403 . S
C187 C188 1.524 1_655 S
C187 C191 1.400 1_655 S
C188 H173 0.967 . S
C188 H174 0.953 1_455 S
C188 H175 0.960 1_455 S
C188 C187 1.524 1_455 S
C189 C186 1.403 . S
C189 C190 1.392 1_655 S
C189 C193 1.495 . S
C190 C189 1.392 1_455 S
C190 C191 1.385 . S
C190 C192 1.478 . S
C191 H185 0.930 . S
C191 C187 1.400 1_455 S
C191 C190 1.385 . S
C192 C190 1.478 . S
C192 C194 1.381 . S
C192 C198 1.383 . S
C193 C189 1.495 . S
C193 H199 0.959 . S
C193 H200 0.961 1_655 S
C193 H201 0.960 1_655 S
C194 C192 1.381 . S
C194 C195 1.394 . S
C194 H202 0.930 . S
C195 C194 1.394 . S
C195 C196 1.383 . S
C195 H203 0.929 . S
C196 C195 1.383 . S
C196 C197 1.377 . S
C197 H181 0.930 . S
C197 C196 1.377 . S
C197 C198 1.379 . S
C198 H182 0.931 . S
C198 C192 1.383 . S
C198 C197 1.379 . S
H199 C193 0.959 . S
H200 C193 0.961 1_455 S
H201 C193 0.960 1_455 S
H202 C194 0.930 . S
H203 C195 0.929 . S
H204 C212 0.929 . S
H205 C214 0.930 . S
H206 C216 0.930 . S
H207 C219 0.929 . S
H208 C222 0.930 . S
H209 C224 0.960 . S
H210 C224 0.960 . S
H211 C224 0.960 . S
C212 H204 0.929 . S
C212 C213 1.377 . S
C212 C214 1.384 . S
C213 C212 1.377 . S
C213 C219 1.390 . S
C214 H205 0.930 . S
C214 C212 1.384 . S
C214 C215 1.372 . S
C215 C214 1.372 . S
C215 C216 1.400 . S
C215 C220 1.490 . S
C216 H206 0.930 . S
C216 C215 1.400 . S
C216 C219 1.386 . S
H217 C233 0.930 . S
H218 C234 0.931 . S
C219 H207 0.929 . S
C219 C213 1.390 . S
C219 C216 1.386 . S
C220 C215 1.490 . S
C220 C222 1.395 . S
C220 C223 1.403 . S
H221 C227 0.930 . S
C222 H208 0.930 . S
C222 C220 1.395 . S
C222 C225 1.403 1_545 S
C223 C220 1.403 . S
C223 C224 1.524 . S
C223 C227 1.400 1_545 S
C224 H209 0.960 . S
C224 H210 0.960 . S
C224 H211 0.960 . S
C224 C223 1.524 . S
C225 C222 1.403 1_565 S
C225 C226 1.392 . S
C225 C229 1.495 . S
C226 C225 1.392 . S
C226 C227 1.385 . S
C226 C228 1.478 . S
C227 H221 0.930 . S
C227 C223 1.400 1_565 S
C227 C226 1.385 . S
C228 C226 1.478 . S
C228 C230 1.381 . S
C228 C234 1.383 . S
C229 C225 1.495 . S
C229 H235 0.959 . S
C229 H236 0.961 . S
C229 H237 0.960 . S
C230 C228 1.381 . S
C230 C231 1.394 . S
C230 H238 0.930 . S
C231 C230 1.394 . S
C231 C232 1.383 . S
C231 H239 0.929 . S
C232 C231 1.383 . S
C232 C233 1.377 . S
C233 H217 0.930 . S
C233 C232 1.377 . S
C233 C234 1.379 . S
C234 H218 0.931 . S
C234 C228 1.383 . S
C234 C233 1.379 . S
H235 C229 0.959 . S
H236 C229 0.961 . S
H237 C229 0.960 . S
H238 C230 0.930 . S
H239 C231 0.929 . S
H240 C248 0.929 . S
H241 C250 0.930 . S
H242 C252 0.930 . S
H243 C255 0.929 . S
H244 C258 0.930 . S
H245 C260 0.960 . S
H246 C260 0.960 . S
H247 C260 0.960 . S
C248 H240 0.929 . S
C248 C249 1.377 . S
C248 C250 1.384 . S
C249 C248 1.377 . S
C249 C255 1.390 . S
C250 H241 0.930 . S
C250 C248 1.384 . S
C250 C251 1.372 . S
C251 C250 1.372 . S
C251 C252 1.400 . S
C251 C256 1.490 . S
C252 H242 0.930 . S
C252 C251 1.400 . S
C252 C255 1.386 . S
H253 C269 0.930 . S
H254 C270 0.931 . S
C255 H243 0.929 . S
C255 C249 1.390 . S
C255 C252 1.386 . S
C256 C251 1.490 . S
C256 C258 1.395 . S
C256 C259 1.403 . S
H257 C263 0.930 . S
C258 H244 0.930 . S
C258 C256 1.395 . S
C258 C261 1.403 . S
C259 C256 1.403 . S
C259 C260 1.524 . S
C259 C263 1.400 . S
C260 H245 0.960 . S
C260 H246 0.960 . S
C260 H247 0.960 . S
C260 C259 1.524 . S
C261 C258 1.403 . S
C261 C262 1.392 . S
C261 C265 1.495 . S
C262 C261 1.392 . S
C262 C263 1.385 . S
C262 C264 1.478 . S
C263 H257 0.930 . S
C263 C259 1.400 . S
C263 C262 1.385 . S
C264 C262 1.478 . S
C264 C266 1.381 . S
C264 C270 1.383 . S
C265 C261 1.495 . S
C265 H271 0.959 . S
C265 H272 0.961 . S
C265 H273 0.960 . S
C266 C264 1.381 . S
C266 C267 1.394 . S
C266 H274 0.930 . S
C267 C266 1.394 . S
C267 C268 1.383 . S
C267 H275 0.929 . S
C268 C267 1.383 . S
C268 C269 1.377 . S
C269 H253 0.930 . S
C269 C268 1.377 . S
C269 C270 1.379 . S
C270 H254 0.931 . S
C270 C264 1.383 . S
C270 C269 1.379 . S
H271 C265 0.959 . S
H272 C265 0.961 . S
H273 C265 0.960 . S
H274 C266 0.930 . S
H275 C267 0.929 . S
H276 C284 0.929 . S
H277 C286 0.930 . S
H278 C288 0.930 . S
H279 C291 0.929 . S
H280 C294 0.930 . S
H281 C296 0.960 . S
H282 C296 0.960 . S
H283 C296 0.960 . S
C284 H276 0.929 . S
C284 C285 1.377 . S
C284 C286 1.384 . S
C285 C284 1.377 . S
C285 C291 1.390 . S
C286 H277 0.930 . S
C286 C284 1.384 . S
C286 C287 1.372 . S
C287 C286 1.372 . S
C287 C288 1.400 . S
C287 C292 1.490 . S
C288 H278 0.930 . S
C288 C287 1.400 . S
C288 C291 1.386 . S
H289 C305 0.930 . S
H290 C306 0.931 . S
C291 H279 0.929 . S
C291 C285 1.390 . S
C291 C288 1.386 . S
C292 C287 1.490 . S
C292 C294 1.395 . S
C292 C295 1.403 . S
H293 C299 0.930 . S
C294 H280 0.930 . S
C294 C292 1.395 . S
C294 C297 1.403 1_655 S
C295 C292 1.403 . S
C295 C296 1.524 . S
C295 C299 1.400 1_655 S
C296 H281 0.960 . S
C296 H282 0.960 . S
C296 H283 0.960 . S
C296 C295 1.524 . S
C297 C294 1.403 1_455 S
C297 C298 1.392 . S
C297 C301 1.495 . S
C298 C297 1.392 . S
C298 C299 1.385 . S
C298 C300 1.478 . S
C299 H293 0.930 . S
C299 C295 1.400 1_455 S
C299 C298 1.385 . S
C300 C298 1.478 . S
C300 C302 1.381 . S
C300 C306 1.383 . S
C301 C297 1.495 . S
C301 H307 0.959 . S
C301 H308 0.961 . S
C301 H309 0.960 . S
C302 C300 1.381 . S
C302 C303 1.394 . S
C302 H310 0.930 . S
C303 C302 1.394 . S
C303 C304 1.383 . S
C303 H311 0.929 . S
C304 C303 1.383 . S
C304 C305 1.377 . S
C305 H289 0.930 . S
C305 C304 1.377 . S
C305 C306 1.379 . S
C306 H290 0.931 . S
C306 C300 1.383 . S
C306 C305 1.379 . S
H307 C301 0.959 . S
H308 C301 0.961 . S
H309 C301 0.960 . S
H310 C302 0.930 . S
H311 C303 0.929 . S
H312 C320 0.929 . S
H313 C322 0.930 . S
H314 C324 0.930 . S
H315 C327 0.929 . S
H316 C330 0.930 . S
H317 C332 0.960 . S
H318 C332 0.960 . S
H319 C332 0.960 . S
C320 H312 0.929 . S
C320 C321 1.377 . S
C320 C322 1.384 . S
C321 C320 1.377 . S
C321 C327 1.390 . S
C322 H313 0.930 . S
C322 C320 1.384 . S
C322 C323 1.372 . S
C323 C322 1.372 . S
C323 C324 1.400 . S
C323 C328 1.490 . S
C324 H314 0.930 . S
C324 C323 1.400 . S
C324 C327 1.386 . S
H325 C341 0.930 . S
H326 C342 0.931 . S
C327 H315 0.929 . S
C327 C321 1.390 . S
C327 C324 1.386 . S
C328 C323 1.490 . S
C328 C330 1.395 . S
C328 C331 1.403 . S
H329 C335 0.930 . S
C330 H316 0.930 . S
C330 C328 1.395 . S
C330 C333 1.403 1_545 S
C331 C328 1.403 . S
C331 C332 1.524 . S
C331 C335 1.400 1_545 S
C332 H317 0.960 . S
C332 H318 0.960 . S
C332 H319 0.960 . S
C332 C331 1.524 . S
C333 C330 1.403 1_565 S
C333 C334 1.392 . S
C333 C337 1.495 . S
C334 C333 1.392 . S
C334 C335 1.385 . S
C334 C336 1.478 . S
C335 H329 0.930 . S
C335 C331 1.400 1_565 S
C335 C334 1.385 . S
C336 C334 1.478 . S
C336 C338 1.381 . S
C336 C342 1.383 . S
C337 C333 1.495 . S
C337 H343 0.959 . S
C337 H344 0.961 . S
C337 H345 0.960 . S
C338 C336 1.381 . S
C338 C339 1.394 . S
C338 H346 0.930 . S
C339 C338 1.394 . S
C339 C340 1.383 . S
C339 H347 0.929 . S
C340 C339 1.383 . S
C340 C341 1.377 . S
C341 H325 0.930 . S
C341 C340 1.377 . S
C341 C342 1.379 . S
C342 H326 0.931 . S
C342 C336 1.383 . S
C342 C341 1.379 . S
H343 C337 0.959 . S
H344 C337 0.961 . S
H345 C337 0.960 . S
H346 C338 0.930 . S
H347 C339 0.929 . S
H348 C356 0.929 . S
H349 C358 0.930 . S
H350 C360 0.930 . S
H351 C363 0.929 . S
H352 C366 0.930 . S
H353 C368 0.960 . S
H354 C368 0.960 . S
H355 C368 0.960 . S
C356 H348 0.929 . S
C356 C357 1.377 . S
C356 C358 1.384 . S
C357 C356 1.377 . S
C357 C363 1.390 . S
C358 H349 0.930 . S
C358 C356 1.384 . S
C358 C359 1.372 . S
C359 C358 1.372 . S
C359 C360 1.400 . S
C359 C364 1.490 . S
C360 H350 0.930 . S
C360 C359 1.400 . S
C360 C363 1.386 . S
H361 C377 0.930 . S
H362 C378 0.931 . S
C363 H351 0.929 . S
C363 C357 1.390 . S
C363 C360 1.386 . S
C364 C359 1.490 . S
C364 C366 1.395 . S
C364 C367 1.403 . S
H365 C371 0.930 . S
C366 H352 0.930 . S
C366 C364 1.395 . S
C366 C369 1.403 . S
C367 C364 1.403 . S
C367 C368 1.524 . S
C367 C371 1.400 . S
C368 H353 0.960 . S
C368 H354 0.960 . S
C368 H355 0.960 . S
C368 C367 1.524 . S
C369 C366 1.403 . S
C369 C370 1.392 . S
C369 C373 1.495 . S
C370 C369 1.392 . S
C370 C371 1.385 . S
C370 C372 1.478 . S
C371 H365 0.930 . S
C371 C367 1.400 . S
C371 C370 1.385 . S
C372 C370 1.478 . S
C372 C374 1.381 . S
C372 C378 1.383 . S
C373 C369 1.495 . S
C373 H379 0.959 . S
C373 H380 0.961 . S
C373 H381 0.960 . S
C374 C372 1.381 . S
C374 C375 1.394 . S
C374 H382 0.930 . S
C375 C374 1.394 . S
C375 C376 1.383 . S
C375 H383 0.929 . S
C376 C375 1.383 . S
C376 C377 1.377 . S
C377 H361 0.930 . S
C377 C376 1.377 . S
C377 C378 1.379 . S
C378 H362 0.931 . S
C378 C372 1.383 . S
C378 C377 1.379 . S
H379 C373 0.959 . S
H380 C373 0.961 . S
H381 C373 0.960 . S
H382 C374 0.930 . S
H383 C375 0.929 . S
H384 C392 0.929 . S
H385 C394 0.930 . S
H386 C396 0.930 . S
H387 C399 0.929 . S
H388 C402 0.930 . S
H389 C404 0.960 . S
H390 C404 0.960 . S
H391 C404 0.960 . S
C392 H384 0.929 . S
C392 C393 1.377 . S
C392 C394 1.384 . S
C393 C392 1.377 . S
C393 C399 1.390 . S
C394 H385 0.930 . S
C394 C392 1.384 . S
C394 C395 1.372 . S
C395 C394 1.372 . S
C395 C396 1.400 . S
C395 C400 1.490 . S
C396 H386 0.930 . S
C396 C395 1.400 . S
C396 C399 1.386 . S
H397 C413 0.930 . S
H398 C414 0.931 . S
C399 H387 0.929 . S
C399 C393 1.390 . S
C399 C396 1.386 . S
C400 C395 1.490 . S
C400 C402 1.395 . S
C400 C403 1.403 . S
H401 C407 0.930 . S
C402 H388 0.930 . S
C402 C400 1.395 . S
C402 C405 1.403 . S
C403 C400 1.403 . S
C403 C404 1.524 . S
C403 C407 1.400 . S
C404 H389 0.960 . S
C404 H390 0.960 . S
C404 H391 0.960 . S
C404 C403 1.524 . S
C405 C402 1.403 . S
C405 C406 1.392 . S
C405 C409 1.495 . S
C406 C405 1.392 . S
C406 C407 1.385 . S
C406 C408 1.478 . S
C407 H401 0.930 . S
C407 C403 1.400 . S
C407 C406 1.385 . S
C408 C406 1.478 . S
C408 C410 1.381 . S
C408 C414 1.383 . S
C409 C405 1.495 . S
C409 H415 0.959 . S
C409 H416 0.961 . S
C409 H417 0.960 . S
C410 C408 1.381 . S
C410 C411 1.394 . S
C410 H418 0.930 . S
C411 C410 1.394 . S
C411 C412 1.383 . S
C411 H419 0.929 . S
C412 C411 1.383 . S
C412 C413 1.377 . S
C413 H397 0.930 . S
C413 C412 1.377 . S
C413 C414 1.379 . S
C414 H398 0.931 . S
C414 C408 1.383 . S
C414 C413 1.379 . S
H415 C409 0.959 . S
H416 C409 0.961 . S
H417 C409 0.960 . S
H418 C410 0.930 . S
H419 C411 0.929 . S
H420 C428 0.929 . S
H421 C430 0.930 . S
H422 C432 0.927 1_655 S
H423 C435 0.929 . S
H424 C438 0.930 . S
H425 C440 0.960 . S
H426 C440 0.960 . S
H427 C440 0.960 . S
C428 H420 0.929 . S
C428 C429 1.377 . S
C428 C430 1.384 . S
C429 C428 1.377 . S
C429 C435 1.390 . S
C430 H421 0.930 . S
C430 C428 1.384 . S
C430 C431 1.372 . S
C431 C430 1.372 . S
C431 C432 1.400 . S
C431 C436 1.490 . S
C432 H422 0.927 1_455 S
C432 C431 1.400 . S
C432 C435 1.386 . S
H433 C449 0.930 . S
H434 C450 0.931 . S
C435 H423 0.929 . S
C435 C429 1.390 . S
C435 C432 1.386 . S
C436 C431 1.490 . S
C436 C438 1.395 . S
C436 C439 1.403 1_455 S
H437 C443 0.930 . S
C438 H424 0.930 . S
C438 C436 1.395 . S
C438 C441 1.403 . S
C439 C436 1.403 1_655 S
C439 C440 1.524 . S
C439 C443 1.400 . S
C440 H425 0.960 . S
C440 H426 0.960 . S
C440 H427 0.960 . S
C440 C439 1.524 . S
C441 C438 1.403 . S
C441 C442 1.392 1_455 S
C441 C445 1.495 . S
C442 C441 1.392 1_655 S
C442 C443 1.385 . S
C442 C444 1.478 . S
C443 H437 0.930 . S
C443 C439 1.400 . S
C443 C442 1.385 . S
C444 C442 1.478 . S
C444 C446 1.381 . S
C444 C450 1.383 . S
C445 C441 1.495 . S
C445 H451 0.959 . S
C445 H452 0.961 . S
C445 H453 0.960 . S
C446 C444 1.381 . S
C446 C447 1.394 . S
C446 H454 0.926 1_655 S
C447 C446 1.394 . S
C447 C448 1.383 . S
C447 H455 0.929 . S
C448 C447 1.383 . S
C448 C449 1.377 . S
C449 H433 0.930 . S
C449 C448 1.377 . S
C449 C450 1.379 . S
C450 H434 0.931 . S
C450 C444 1.383 . S
C450 C449 1.379 . S
H451 C445 0.959 . S
H452 C445 0.961 . S
H453 C445 0.960 . S
H454 C446 0.926 1_455 S
H455 C447 0.929 . S
H456 C464 0.929 . S
H457 C466 0.930 . S
H458 C468 0.930 . S
H459 C471 0.929 . S
H460 C474 0.930 . S
H461 C476 0.960 . S
H462 C476 0.960 . S
H463 C476 0.960 . S
C464 H456 0.929 . S
C464 C465 1.377 . S
C464 C466 1.384 . S
C465 C464 1.377 . S
C465 C471 1.390 . S
C466 H457 0.930 . S
C466 C464 1.384 . S
C466 C467 1.372 . S
C467 C466 1.372 . S
C467 C468 1.400 . S
C467 C472 1.490 . S
C468 H458 0.930 . S
C468 C467 1.400 . S
C468 C471 1.386 . S
H469 C485 0.930 . S
H470 C486 0.931 . S
C471 H459 0.929 . S
C471 C465 1.390 . S
C471 C468 1.386 . S
C472 C467 1.490 . S
C472 C474 1.395 . S
C472 C475 1.403 1_545 S
H473 C479 0.930 . S
C474 H460 0.930 . S
C474 C472 1.395 . S
C474 C477 1.403 . S
C475 C472 1.403 1_565 S
C475 C476 1.524 . S
C475 C479 1.400 . S
C476 H461 0.960 . S
C476 H462 0.960 . S
C476 H463 0.960 . S
C476 C475 1.524 . S
C477 C474 1.403 . S
C477 C478 1.392 1_545 S
C477 C481 1.495 . S
C478 C477 1.392 1_565 S
C478 C479 1.385 . S
C478 C480 1.478 . S
C479 H473 0.930 . S
C479 C475 1.400 . S
C479 C478 1.385 . S
C480 C478 1.478 . S
C480 C482 1.381 . S
C480 C486 1.383 . S
C481 C477 1.495 . S
C481 H487 0.959 . S
C481 H488 0.961 . S
C481 H489 0.960 . S
C482 C480 1.381 . S
C482 C483 1.394 . S
C482 H490 0.930 . S
C483 C482 1.394 . S
C483 C484 1.383 . S
C483 H491 0.929 . S
C484 C483 1.383 . S
C484 C485 1.377 . S
C485 H469 0.930 . S
C485 C484 1.377 . S
C485 C486 1.379 . S
C486 H470 0.931 . S
C486 C480 1.383 . S
C486 C485 1.379 . S
H487 C481 0.959 . S
H488 C481 0.961 . S
H489 C481 0.960 . S
H490 C482 0.930 . S
H491 C483 0.929 . S
H492 C500 0.929 . S
H493 C502 0.930 . S
H494 C504 0.930 . S
H495 C507 0.929 . S
H496 C510 0.930 . S
H497 C512 0.960 . S
H498 C512 0.960 . S
H499 C512 0.960 . S
C500 H492 0.929 . S
C500 C501 1.377 . S
C500 C502 1.384 . S
C501 C500 1.377 . S
C501 C507 1.390 . S
C502 H493 0.930 . S
C502 C500 1.384 . S
C502 C503 1.372 . S
C503 C502 1.372 . S
C503 C504 1.400 . S
C503 C508 1.490 . S
C504 H494 0.930 . S
C504 C503 1.400 . S
C504 C507 1.386 . S
H505 C521 0.930 . S
H506 C522 0.931 . S
C507 H495 0.929 . S
C507 C501 1.390 . S
C507 C504 1.386 . S
C508 C503 1.490 . S
C508 C510 1.395 . S
C508 C511 1.403 . S
H509 C515 0.930 . S
C510 H496 0.930 . S
C510 C508 1.395 . S
C510 C513 1.403 . S
C511 C508 1.403 . S
C511 C512 1.524 . S
C511 C515 1.400 . S
C512 H497 0.960 . S
C512 H498 0.960 . S
C512 H499 0.960 . S
C512 C511 1.524 . S
C513 C510 1.403 . S
C513 C514 1.392 . S
C513 C517 1.495 . S
C514 C513 1.392 . S
C514 C515 1.385 . S
C514 C516 1.478 . S
C515 H509 0.930 . S
C515 C511 1.400 . S
C515 C514 1.385 . S
C516 C514 1.478 . S
C516 C518 1.381 . S
C516 C522 1.383 . S
C517 C513 1.495 . S
C517 H523 0.959 . S
C517 H524 0.961 . S
C517 H525 0.960 . S
C518 C516 1.381 . S
C518 C519 1.394 . S
C518 H526 0.930 . S
C519 C518 1.394 . S
C519 C520 1.383 . S
C519 H527 0.929 . S
C520 C519 1.383 . S
C520 C521 1.377 . S
C521 H505 0.930 . S
C521 C520 1.377 . S
C521 C522 1.379 . S
C522 H506 0.931 . S
C522 C516 1.383 . S
C522 C521 1.379 . S
H523 C517 0.959 . S
H524 C517 0.961 . S
H525 C517 0.960 . S
H526 C518 0.930 . S
H527 C519 0.929 . S
H528 C536 0.929 . S
H529 C538 0.930 . S
H530 C540 0.930 . S
H531 C543 0.929 . S
H532 C546 0.930 . S
H533 C548 0.960 . S
H534 C548 0.960 . S
H535 C548 0.960 . S
C536 H528 0.929 . S
C536 C537 1.377 . S
C536 C538 1.384 . S
C537 C536 1.377 . S
C537 C543 1.390 . S
C538 H529 0.930 . S
C538 C536 1.384 . S
C538 C539 1.372 . S
C539 C538 1.372 . S
C539 C540 1.400 . S
C539 C544 1.490 . S
C540 H530 0.930 . S
C540 C539 1.400 . S
C540 C543 1.386 . S
H541 C557 0.930 . S
H542 C558 0.931 . S
C543 H531 0.929 . S
C543 C537 1.390 . S
C543 C540 1.386 . S
C544 C539 1.490 . S
C544 C546 1.395 1_655 S
C544 C547 1.403 . S
H545 C551 0.930 . S
C546 H532 0.930 . S
C546 C544 1.395 1_455 S
C546 C549 1.403 . S
C547 C544 1.403 . S
C547 C548 1.524 . S
C547 C551 1.400 . S
C548 H533 0.960 . S
C548 H534 0.960 . S
C548 H535 0.960 . S
C548 C547 1.524 . S
C549 C546 1.403 . S
C549 C550 1.392 . S
C549 C553 1.495 . S
C550 C549 1.392 . S
C550 C551 1.385 1_455 S
C550 C552 1.478 . S
C551 H545 0.930 . S
C551 C547 1.400 . S
C551 C550 1.385 1_655 S
C552 C550 1.478 . S
C552 C554 1.381 . S
C552 C558 1.383 . S
C553 C549 1.495 . S
C553 H559 0.959 . S
C553 H560 0.961 . S
C553 H561 0.960 . S
C554 C552 1.381 . S
C554 C555 1.394 . S
C554 H562 0.930 . S
C555 C554 1.394 . S
C555 C556 1.383 . S
C555 H563 0.929 . S
C556 C555 1.383 . S
C556 C557 1.377 . S
C557 H541 0.930 . S
C557 C556 1.377 . S
C557 C558 1.379 . S
C558 H542 0.931 . S
C558 C552 1.383 . S
C558 C557 1.379 . S
H559 C553 0.959 . S
H560 C553 0.961 . S
H561 C553 0.960 . S
H562 C554 0.930 . S
H563 C555 0.929 . S
H564 C572 0.929 . S
H565 C574 0.924 1_545 S
H566 C576 0.930 . S
H567 C579 0.929 . S
H568 C582 0.930 . S
H569 C584 0.960 . S
H570 C584 0.960 . S
H571 C584 0.960 . S
C572 H564 0.929 . S
C572 C573 1.377 . S
C572 C574 1.384 . S
C573 C572 1.377 . S
C573 C579 1.390 . S
C574 H565 0.924 1_565 S
C574 C572 1.384 . S
C574 C575 1.372 . S
C575 C574 1.372 . S
C575 C576 1.400 . S
C575 C580 1.490 . S
C576 H566 0.930 . S
C576 C575 1.400 . S
C576 C579 1.386 . S
H577 C593 0.930 . S
H578 C594 0.931 . S
C579 H567 0.929 . S
C579 C573 1.390 . S
C579 C576 1.386 . S
C580 C575 1.490 . S
C580 C582 1.395 1_565 S
C580 C583 1.403 . S
H581 C587 0.930 . S
C582 H568 0.930 . S
C582 C580 1.395 1_545 S
C582 C585 1.403 . S
C583 C580 1.403 . S
C583 C584 1.524 . S
C583 C587 1.400 . S
C584 H569 0.960 . S
C584 H570 0.960 . S
C584 H571 0.960 . S
C584 C583 1.524 . S
C585 C582 1.403 . S
C585 C586 1.392 . S
C585 C589 1.495 . S
C586 C585 1.392 . S
C586 C587 1.385 1_545 S
C586 C588 1.478 . S
C587 H581 0.930 . S
C587 C583 1.400 . S
C587 C586 1.385 1_565 S
C588 C586 1.478 . S
C588 C590 1.381 . S
C588 C594 1.383 . S
C589 C585 1.495 . S
C589 H595 0.959 . S
C589 H596 0.961 . S
C589 H597 0.960 . S
C590 C588 1.381 . S
C590 C591 1.394 . S
C590 H598 0.930 . S
C591 C590 1.394 . S
C591 C592 1.383 . S
C591 H599 0.929 . S
C592 C591 1.383 . S
C592 C593 1.377 . S
C593 H577 0.930 . S
C593 C592 1.377 . S
C593 C594 1.379 . S
C594 H578 0.931 . S
C594 C588 1.383 . S
C594 C593 1.379 . S
H595 C589 0.959 . S
H596 C589 0.961 . S
H597 C589 0.960 . S
H598 C590 0.930 . S
H599 C591 0.929 . S
H600 C608 0.929 . S
H601 C610 0.930 . S
H602 C612 0.930 . S
H603 C615 0.929 . S
H604 C618 0.930 . S
H605 C620 0.960 . S
H606 C620 0.960 . S
H607 C620 0.960 . S
C608 H600 0.929 . S
C608 C609 1.377 . S
C608 C610 1.384 . S
C609 C608 1.377 . S
C609 C615 1.390 . S
C610 H601 0.930 . S
C610 C608 1.384 . S
C610 C611 1.372 . S
C611 C610 1.372 . S
C611 C612 1.400 . S
C611 C616 1.490 . S
C612 H602 0.930 . S
C612 C611 1.400 . S
C612 C615 1.386 . S
H613 C629 0.930 . S
H614 C630 0.931 . S
C615 H603 0.929 . S
C615 C609 1.390 . S
C615 C612 1.386 . S
C616 C611 1.490 . S
C616 C618 1.395 . S
C616 C619 1.403 . S
H617 C623 0.930 . S
C618 H604 0.930 . S
C618 C616 1.395 . S
C618 C621 1.403 . S
C619 C616 1.403 . S
C619 C620 1.524 . S
C619 C623 1.400 . S
C620 H605 0.960 . S
C620 H606 0.960 . S
C620 H607 0.960 . S
C620 C619 1.524 . S
C621 C618 1.403 . S
C621 C622 1.392 . S
C621 C625 1.495 . S
C622 C621 1.392 . S
C622 C623 1.385 . S
C622 C624 1.478 . S
C623 H617 0.930 . S
C623 C619 1.400 . S
C623 C622 1.385 . S
C624 C622 1.478 . S
C624 C626 1.381 . S
C624 C630 1.383 . S
C625 C621 1.495 . S
C625 H631 0.959 . S
C625 H632 0.961 . S
C625 H633 0.960 . S
C626 C624 1.381 . S
C626 C627 1.394 . S
C626 H634 0.930 . S
C627 C626 1.394 . S
C627 C628 1.383 . S
C627 H635 0.929 . S
C628 C627 1.383 . S
C628 C629 1.377 . S
C629 H613 0.930 . S
C629 C628 1.377 . S
C629 C630 1.379 . S
C630 H614 0.931 . S
C630 C624 1.383 . S
C630 C629 1.379 . S
H631 C625 0.959 . S
H632 C625 0.961 . S
H633 C625 0.960 . S
H634 C626 0.930 . S
H635 C627 0.929 . S
H636 C644 0.929 1_655 S
H637 C646 0.930 . S
H638 C648 0.930 . S
H639 C651 0.929 . S
H640 C654 0.930 . S
H641 C656 0.960 . S
H642 C656 0.960 . S
H643 C656 0.960 . S
C644 H636 0.929 1_455 S
C644 C645 1.377 . S
C644 C646 1.384 . S
C645 C644 1.377 . S
C645 C651 1.390 . S
C646 H637 0.930 . S
C646 C644 1.384 . S
C646 C647 1.372 . S
C647 C646 1.372 . S
C647 C648 1.400 . S
C647 C652 1.490 . S
C648 H638 0.930 . S
C648 C647 1.400 . S
C648 C651 1.386 . S
H649 C665 0.930 . S
H650 C666 0.931 . S
C651 H639 0.929 . S
C651 C645 1.390 . S
C651 C648 1.386 . S
C652 C647 1.490 . S
C652 C654 1.395 . S
C652 C655 1.403 . S
H653 C659 0.930 . S
C654 H640 0.930 . S
C654 C652 1.395 . S
C654 C657 1.403 . S
C655 C652 1.403 . S
C655 C656 1.524 . S
C655 C659 1.400 . S
C656 H641 0.960 . S
C656 H642 0.960 . S
C656 H643 0.960 . S
C656 C655 1.524 . S
C657 C654 1.403 . S
C657 C658 1.392 . S
C657 C661 1.495 . S
C658 C657 1.392 . S
C658 C659 1.385 . S
C658 C660 1.478 . S
C659 H653 0.930 . S
C659 C655 1.400 . S
C659 C658 1.385 . S
C660 C658 1.478 . S
C660 C662 1.381 . S
C660 C666 1.383 . S
C661 C657 1.495 . S
C661 H667 0.959 . S
C661 H668 0.961 . S
C661 H669 0.960 . S
C662 C660 1.381 . S
C662 C663 1.394 . S
C662 H670 0.930 . S
C663 C662 1.394 . S
C663 C664 1.383 . S
C663 H671 0.929 . S
C664 C663 1.383 . S
C664 C665 1.377 . S
C665 H649 0.930 . S
C665 C664 1.377 . S
C665 C666 1.379 . S
C666 H650 0.931 . S
C666 C660 1.383 . S
C666 C665 1.379 . S
H667 C661 0.959 . S
H668 C661 0.961 . S
H669 C661 0.960 . S
H670 C662 0.930 . S
H671 C663 0.929 . S
H672 C680 0.929 1_455 S
H673 C682 0.930 . S
H674 C684 0.930 . S
H675 C687 0.929 . S
H676 C690 0.930 . S
H677 C692 0.960 . S
H678 C692 0.960 . S
H679 C692 0.960 . S
C680 H672 0.929 1_655 S
C680 C681 1.377 . S
C680 C682 1.384 . S
C681 C680 1.377 . S
C681 C687 1.390 . S
C682 H673 0.930 . S
C682 C680 1.384 . S
C682 C683 1.372 . S
C683 C682 1.372 . S
C683 C684 1.400 . S
C683 C688 1.490 . S
C684 H674 0.930 . S
C684 C683 1.400 . S
C684 C687 1.386 . S
H685 C701 0.930 . S
H686 C702 0.931 . S
C687 H675 0.929 . S
C687 C681 1.390 . S
C687 C684 1.386 . S
C688 C683 1.490 . S
C688 C690 1.395 . S
C688 C691 1.403 . S
H689 C695 0.930 . S
C690 H676 0.930 . S
C690 C688 1.395 . S
C690 C693 1.403 . S
C691 C688 1.403 . S
C691 C692 1.524 . S
C691 C695 1.400 . S
C692 H677 0.960 . S
C692 H678 0.960 . S
C692 H679 0.960 . S
C692 C691 1.524 . S
C693 C690 1.403 . S
C693 C694 1.392 . S
C693 C697 1.495 . S
C694 C693 1.392 . S
C694 C695 1.385 . S
C694 C696 1.478 . S
C695 H689 0.930 . S
C695 C691 1.400 . S
C695 C694 1.385 . S
C696 C694 1.478 . S
C696 C698 1.381 . S
C696 C702 1.383 . S
C697 C693 1.495 . S
C697 H703 0.959 . S
C697 H704 0.961 . S
C697 H705 0.960 . S
C698 C696 1.381 . S
C698 C699 1.394 . S
C698 H706 0.930 . S
C699 C698 1.394 . S
C699 C700 1.383 . S
C699 H707 0.929 1_545 S
C700 C699 1.383 . S
C700 C701 1.377 . S
C701 H685 0.930 . S
C701 C700 1.377 . S
C701 C702 1.379 . S
C702 H686 0.931 . S
C702 C696 1.383 . S
C702 C701 1.379 . S
H703 C697 0.959 . S
H704 C697 0.961 . S
H705 C697 0.960 . S
H706 C698 0.930 . S
H707 C699 0.929 1_565 S
H708 C716 0.929 . S
H709 C718 0.930 . S
H710 C720 0.930 . S
H711 C723 0.929 1_545 S
H712 C726 0.930 . S
H713 C728 0.960 . S
H714 C728 0.960 . S
H715 C728 0.960 . S
C716 H708 0.929 . S
C716 C717 1.377 . S
C716 C718 1.384 . S
C717 C716 1.377 . S
C717 C723 1.390 . S
C718 H709 0.930 . S
C718 C716 1.384 . S
C718 C719 1.372 . S
C719 C718 1.372 . S
C719 C720 1.400 . S
C719 C724 1.490 . S
C720 H710 0.930 . S
C720 C719 1.400 . S
C720 C723 1.386 . S
H721 C737 0.930 . S
H722 C738 0.931 . S
C723 H711 0.929 1_565 S
C723 C717 1.390 . S
C723 C720 1.386 . S
C724 C719 1.490 . S
C724 C726 1.395 . S
C724 C727 1.403 . S
H725 C731 0.930 . S
C726 H712 0.930 . S
C726 C724 1.395 . S
C726 C729 1.403 . S
C727 C724 1.403 . S
C727 C728 1.524 . S
C727 C731 1.400 . S
C728 H713 0.960 . S
C728 H714 0.960 . S
C728 H715 0.960 . S
C728 C727 1.524 . S
C729 C726 1.403 . S
C729 C730 1.392 . S
C729 C733 1.495 . S
C730 C729 1.392 . S
C730 C731 1.385 . S
C730 C732 1.478 . S
C731 H725 0.930 . S
C731 C727 1.400 . S
C731 C730 1.385 . S
C732 C730 1.478 . S
C732 C734 1.381 . S
C732 C738 1.383 . S
C733 C729 1.495 . S
C733 H739 0.959 . S
C733 H740 0.961 . S
C733 H741 0.960 . S
C734 C732 1.381 . S
C734 C735 1.394 . S
C734 H742 0.930 . S
C735 C734 1.394 . S
C735 C736 1.383 . S
C735 H743 0.929 . S
C736 C735 1.383 . S
C736 C737 1.377 . S
C737 H721 0.930 . S
C737 C736 1.377 . S
C737 C738 1.379 . S
C738 H722 0.931 . S
C738 C732 1.383 . S
C738 C737 1.379 . S
H739 C733 0.959 . S
H740 C733 0.961 . S
H741 C733 0.960 . S
H742 C734 0.930 . S
H743 C735 0.929 . S
H744 C752 0.929 . S
H745 C754 0.930 . S
H746 C756 0.930 . S
H747 C759 0.929 . S
H748 C762 0.930 . S
H749 C764 0.960 . S
H750 C764 0.960 . S
H751 C764 0.960 . S
C752 H744 0.929 . S
C752 C753 1.377 . S
C752 C754 1.384 . S
C753 C752 1.377 . S
C753 C759 1.390 . S
C754 H745 0.930 . S
C754 C752 1.384 . S
C754 C755 1.372 . S
C755 C754 1.372 . S
C755 C756 1.400 . S
C755 C760 1.490 . S
C756 H746 0.930 . S
C756 C755 1.400 . S
C756 C759 1.386 . S
H757 C773 0.930 . S
H758 C774 0.931 . S
C759 H747 0.929 . S
C759 C753 1.390 . S
C759 C756 1.386 . S
C760 C755 1.490 . S
C760 C762 1.395 . S
C760 C763 1.403 . S
H761 C767 0.930 . S
C762 H748 0.930 . S
C762 C760 1.395 . S
C762 C765 1.403 . S
C763 C760 1.403 . S
C763 C764 1.524 . S
C763 C767 1.400 . S
C764 H749 0.960 . S
C764 H750 0.960 . S
C764 H751 0.960 . S
C764 C763 1.524 . S
C765 C762 1.403 . S
C765 C766 1.392 . S
C765 C769 1.495 . S
C766 C765 1.392 . S
C766 C767 1.385 . S
C766 C768 1.478 . S
C767 H761 0.930 . S
C767 C763 1.400 . S
C767 C766 1.385 . S
C768 C766 1.478 . S
C768 C770 1.381 . S
C768 C774 1.383 . S
C769 C765 1.495 . S
C769 H775 0.959 . S
C769 H776 0.961 . S
C769 H777 0.960 . S
C770 C768 1.381 . S
C770 C771 1.394 . S
C770 H778 0.930 . S
C771 C770 1.394 . S
C771 C772 1.383 . S
C771 H779 0.929 . S
C772 C771 1.383 . S
C772 C773 1.377 . S
C773 H757 0.930 . S
C773 C772 1.377 . S
C773 C774 1.379 . S
C774 H758 0.931 . S
C774 C768 1.383 . S
C774 C773 1.379 . S
H775 C769 0.959 . S
H776 C769 0.961 . S
H777 C769 0.960 . S
H778 C770 0.930 . S
H779 C771 0.929 . S
H780 C788 0.929 . S
H781 C790 0.930 . S
H782 C792 0.930 . S
H783 C795 0.929 1_545 S
H784 C798 0.930 . S
H785 C800 0.960 . S
H786 C800 0.960 . S
H787 C800 0.960 . S
C788 H780 0.929 . S
C788 C789 1.377 . S
C788 C790 1.384 . S
C789 C788 1.377 . S
C789 C795 1.390 . S
C790 H781 0.930 . S
C790 C788 1.384 . S
C790 C791 1.372 . S
C791 C790 1.372 . S
C791 C792 1.400 . S
C791 C796 1.490 . S
C792 H782 0.930 . S
C792 C791 1.400 . S
C792 C795 1.386 . S
H793 C809 0.930 1_655 S
H794 C810 0.931 . S
C795 H783 0.929 1_565 S
C795 C789 1.390 . S
C795 C792 1.386 . S
C796 C791 1.490 . S
C796 C798 1.395 . S
C796 C799 1.403 . S
H797 C803 0.930 . S
C798 H784 0.930 . S
C798 C796 1.395 . S
C798 C801 1.403 . S
C799 C796 1.403 . S
C799 C800 1.524 . S
C799 C803 1.400 . S
C800 H785 0.960 . S
C800 H786 0.960 . S
C800 H787 0.960 . S
C800 C799 1.524 . S
C801 C798 1.403 . S
C801 C802 1.392 . S
C801 C805 1.495 . S
C802 C801 1.392 . S
C802 C803 1.385 . S
C802 C804 1.478 . S
C803 H797 0.930 . S
C803 C799 1.400 . S
C803 C802 1.385 . S
C804 C802 1.478 . S
C804 C806 1.381 . S
C804 C810 1.383 . S
C805 C801 1.495 . S
C805 H811 0.959 . S
C805 H812 0.961 . S
C805 H813 0.960 . S
C806 C804 1.381 . S
C806 C807 1.394 . S
C806 H814 0.930 . S
C807 C806 1.394 . S
C807 C808 1.383 . S
C807 H815 0.929 . S
C808 C807 1.383 . S
C808 C809 1.377 . S
C809 H793 0.930 1_455 S
C809 C808 1.377 . S
C809 C810 1.379 . S
C810 H794 0.931 . S
C810 C804 1.383 . S
C810 C809 1.379 . S
H811 C805 0.959 . S
H812 C805 0.961 . S
H813 C805 0.960 . S
H814 C806 0.930 . S
H815 C807 0.929 . S
H816 C824 0.929 . S
H817 C826 0.930 . S
H818 C828 0.930 . S
H819 C831 0.929 . S
H820 C834 0.930 . S
H821 C836 0.960 . S
H822 C836 0.960 . S
H823 C836 0.960 . S
C824 H816 0.929 . S
C824 C825 1.377 . S
C824 C826 1.384 . S
C825 C824 1.377 . S
C825 C831 1.390 . S
C826 H817 0.930 . S
C826 C824 1.384 . S
C826 C827 1.372 . S
C827 C826 1.372 . S
C827 C828 1.400 . S
C827 C832 1.490 . S
C828 H818 0.930 . S
C828 C827 1.400 . S
C828 C831 1.386 . S
H829 C845 0.930 . S
H830 C846 0.931 . S
C831 H819 0.929 . S
C831 C825 1.390 . S
C831 C828 1.386 . S
C832 C827 1.490 . S
C832 C834 1.395 . S
C832 C835 1.403 . S
H833 C839 0.930 . S
C834 H820 0.930 . S
C834 C832 1.395 . S
C834 C837 1.403 . S
C835 C832 1.403 . S
C835 C836 1.524 . S
C835 C839 1.400 . S
C836 H821 0.960 . S
C836 H822 0.960 . S
C836 H823 0.960 . S
C836 C835 1.524 . S
C837 C834 1.403 . S
C837 C838 1.392 . S
C837 C841 1.495 . S
C838 C837 1.392 . S
C838 C839 1.385 . S
C838 C840 1.478 . S
C839 H833 0.930 . S
C839 C835 1.400 . S
C839 C838 1.385 . S
C840 C838 1.478 . S
C840 C842 1.381 . S
C840 C846 1.383 . S
C841 C837 1.495 . S
C841 H847 0.959 . S
C841 H848 0.961 . S
C841 H849 0.960 . S
C842 C840 1.381 . S
C842 C843 1.394 . S
C842 H850 0.930 . S
C843 C842 1.394 . S
C843 C844 1.383 . S
C843 H851 0.929 . S
C844 C843 1.383 . S
C844 C845 1.377 . S
C845 H829 0.930 . S
C845 C844 1.377 . S
C845 C846 1.379 . S
C846 H830 0.931 . S
C846 C840 1.383 . S
C846 C845 1.379 . S
H847 C841 0.959 . S
H848 C841 0.961 . S
H849 C841 0.960 . S
H850 C842 0.930 . S
H851 C843 0.929 . S
H852 C860 0.929 . S
H853 C862 0.930 1_455 S
H854 C864 0.930 . S
H855 C867 0.929 . S
H856 C870 0.930 . S
H857 C872 0.960 . S
H858 C872 0.960 . S
H859 C872 0.960 . S
C860 H852 0.929 . S
C860 C861 1.377 . S
C860 C862 1.384 . S
C861 C860 1.377 . S
C861 C867 1.390 . S
C862 H853 0.930 1_655 S
C862 C860 1.384 . S
C862 C863 1.372 . S
C863 C862 1.372 . S
C863 C864 1.400 . S
C863 C868 1.490 . S
C864 H854 0.930 . S
C864 C863 1.400 . S
C864 C867 1.386 . S
H865 C881 0.930 . S
H866 C882 0.931 1_655 S
C867 H855 0.929 . S
C867 C861 1.390 . S
C867 C864 1.386 . S
C868 C863 1.490 . S
C868 C870 1.395 . S
C868 C871 1.403 1_655 S
H869 C875 0.930 . S
C870 H856 0.930 . S
C870 C868 1.395 . S
C870 C873 1.403 . S
C871 C868 1.403 1_455 S
C871 C872 1.524 . S
C871 C875 1.400 . S
C872 H857 0.960 . S
C872 H858 0.960 . S
C872 H859 0.960 . S
C872 C871 1.524 . S
C873 C870 1.403 . S
C873 C874 1.392 1_655 S
C873 C877 1.495 . S
C874 C873 1.392 1_455 S
C874 C875 1.385 . S
C874 C876 1.478 . S
C875 H869 0.930 . S
C875 C871 1.400 . S
C875 C874 1.385 . S
C876 C874 1.478 . S
C876 C878 1.381 . S
C876 C882 1.383 . S
C877 C873 1.495 . S
C877 H883 0.959 . S
C877 H884 0.961 . S
C877 H885 0.945 1_655 S
C878 C876 1.381 . S
C878 C879 1.394 . S
C878 H886 0.930 . S
C879 C878 1.394 . S
C879 C880 1.383 . S
C879 H887 0.929 . S
C880 C879 1.383 . S
C880 C881 1.377 . S
C881 H865 0.930 . S
C881 C880 1.377 . S
C881 C882 1.379 . S
C882 H866 0.931 1_455 S
C882 C876 1.383 . S
C882 C881 1.379 . S
H883 C877 0.959 . S
H884 C877 0.961 . S
H885 C877 0.945 1_455 S
H886 C878 0.930 . S
H887 C879 0.929 . S
H888 C896 0.929 . S
H889 C898 0.930 . S
H890 C900 0.930 . S
H891 C903 0.929 1_565 S
H892 C906 0.930 . S
H893 C908 0.960 . S
H894 C908 0.960 . S
H895 C908 0.960 . S
C896 H888 0.929 . S
C896 C897 1.377 . S
C896 C898 1.384 . S
C897 C896 1.377 . S
C897 C903 1.390 . S
C898 H889 0.930 . S
C898 C896 1.384 . S
C898 C899 1.372 . S
C899 C898 1.372 . S
C899 C900 1.400 1_545 S
C899 C904 1.490 . S
C900 H890 0.930 . S
C900 C899 1.400 1_565 S
C900 C903 1.386 1_565 S
H901 C917 0.930 . S
H902 C918 0.931 . S
C903 H891 0.929 1_545 S
C903 C897 1.390 . S
C903 C900 1.386 1_545 S
C904 C899 1.490 . S
C904 C906 1.395 . S
C904 C907 1.403 1_545 S
H905 C911 0.930 . S
C906 H892 0.930 . S
C906 C904 1.395 . S
C906 C909 1.403 1_554 S
C907 C904 1.403 1_565 S
C907 C908 1.524 . S
C907 C911 1.400 1_554 S
C908 H893 0.960 . S
C908 H894 0.960 . S
C908 H895 0.960 . S
C908 C907 1.524 . S
C909 C906 1.403 1_556 S
C909 C910 1.392 1_545 S
C909 C913 1.495 . S
C910 C909 1.392 1_565 S
C910 C911 1.385 . S
C910 C912 1.478 . S
C911 H905 0.930 . S
C911 C907 1.400 1_556 S
C911 C910 1.385 . S
C912 C910 1.478 . S
C912 C914 1.381 1_565 S
C912 C918 1.383 . S
C913 C909 1.495 . S
C913 H919 0.959 . S
C913 H920 0.961 . S
C913 H921 0.960 . S
C914 C912 1.381 1_545 S
C914 C915 1.394 1_545 S
C914 H922 0.930 . S
C915 C914 1.394 1_565 S
C915 C916 1.383 . S
C915 H923 0.929 1_565 S
C916 C915 1.383 . S
C916 C917 1.377 . S
C917 H901 0.930 . S
C917 C916 1.377 . S
C917 C918 1.379 . S
C918 H902 0.931 . S
C918 C912 1.383 . S
C918 C917 1.379 . S
H919 C913 0.959 . S
H920 C913 0.961 . S
H921 C913 0.960 . S
H922 C914 0.930 . S
H923 C915 0.929 1_545 S
H924 C932 0.929 . S
H925 C934 0.930 . S
H926 C936 0.930 . S
H927 C939 0.929 . S
H928 C942 0.930 . S
H929 C944 0.960 . S
H930 C944 0.960 . S
H931 C944 0.960 . S
C932 H924 0.929 . S
C932 C933 1.377 . S
C932 C934 1.384 . S
C933 C932 1.377 . S
C933 C939 1.390 . S
C934 H925 0.930 . S
C934 C932 1.384 . S
C934 C935 1.372 . S
C935 C934 1.372 . S
C935 C936 1.400 . S
C935 C940 1.490 . S
C936 H926 0.930 . S
C936 C935 1.400 . S
C936 C939 1.386 . S
H937 C953 0.930 . S
H938 C954 0.931 . S
C939 H927 0.929 . S
C939 C933 1.390 . S
C939 C936 1.386 . S
C940 C935 1.490 . S
C940 C942 1.395 . S
C940 C943 1.403 . S
H941 C947 0.930 . S
C942 H928 0.930 . S
C942 C940 1.395 . S
C942 C945 1.403 . S
C943 C940 1.403 . S
C943 C944 1.524 . S
C943 C947 1.400 . S
C944 H929 0.960 . S
C944 H930 0.960 . S
C944 H931 0.960 . S
C944 C943 1.524 . S
C945 C942 1.403 . S
C945 C946 1.392 . S
C945 C949 1.495 . S
C946 C945 1.392 . S
C946 C947 1.385 . S
C946 C948 1.478 . S
C947 H941 0.930 . S
C947 C943 1.400 . S
C947 C946 1.385 . S
C948 C946 1.478 . S
C948 C950 1.381 . S
C948 C954 1.383 . S
C949 C945 1.495 . S
C949 H955 0.959 . S
C949 H956 0.961 . S
C949 H957 0.960 . S
C950 C948 1.381 . S
C950 C951 1.394 . S
C950 H958 0.930 . S
C951 C950 1.394 . S
C951 C952 1.383 . S
C951 H959 0.929 . S
C952 C951 1.383 . S
C952 C953 1.377 . S
C953 H937 0.930 . S
C953 C952 1.377 . S
C953 C954 1.379 . S
C954 H938 0.931 . S
C954 C948 1.383 . S
C954 C953 1.379 . S
H955 C949 0.959 . S
H956 C949 0.961 . S
H957 C949 0.960 . S
H958 C950 0.930 . S
H959 C951 0.929 . S
H960 C968 0.929 . S
H961 C970 0.930 . S
H962 C972 0.930 . S
H963 C975 0.929 1_655 S
H964 C978 0.930 . S
H965 C980 0.960 . S
H966 C980 0.960 . S
H967 C980 0.960 . S
C968 H960 0.929 . S
C968 C969 1.377 . S
C968 C970 1.384 . S
C969 C968 1.377 . S
C969 C975 1.390 . S
C970 H961 0.930 . S
C970 C968 1.384 . S
C970 C971 1.372 . S
C971 C970 1.372 . S
C971 C972 1.400 1_455 S
C971 C976 1.490 . S
C972 H962 0.930 . S
C972 C971 1.400 1_655 S
C972 C975 1.386 1_655 S
H973 C989 0.930 . S
H974 C990 0.931 . S
C975 H963 0.929 1_455 S
C975 C969 1.390 . S
C975 C972 1.386 1_455 S
C976 C971 1.490 . S
C976 C978 1.395 . S
C976 C979 1.403 1_455 S
H977 C983 0.930 . S
C978 H964 0.930 . S
C978 C976 1.395 . S
C978 C981 1.403 . S
C979 C976 1.403 1_655 S
C979 C980 1.524 . S
C979 C983 1.400 . S
C980 H965 0.960 . S
C980 H966 0.960 . S
C980 H967 0.960 . S
C980 C979 1.524 . S
C981 C978 1.403 . S
C981 C982 1.392 1_455 S
C981 C985 1.495 . S
C982 C981 1.392 1_655 S
C982 C983 1.385 . S
C982 C984 1.478 . S
C983 H977 0.930 . S
C983 C979 1.400 . S
C983 C982 1.385 . S
C984 C982 1.478 . S
C984 C986 1.381 1_655 S
C984 C990 1.383 . S
C985 C981 1.495 . S
C985 H991 0.959 . S
C985 H992 0.961 . S
C985 H993 0.960 . S
C986 C984 1.381 1_455 S
C986 C987 1.394 1_455 S
C986 H994 0.930 . S
C987 C986 1.394 1_655 S
C987 C988 1.383 . S
C987 H995 0.929 1_655 S
C988 C987 1.383 . S
C988 C989 1.377 . S
C989 H973 0.930 . S
C989 C988 1.377 . S
C989 C990 1.379 . S
C990 H974 0.931 . S
C990 C984 1.383 . S
C990 C989 1.379 . S
H991 C985 0.959 . S
H992 C985 0.961 . S
H993 C985 0.960 . S
H994 C986 0.930 . S
H995 C987 0.929 1_455 S
H996 C1004 0.929 . S
H997 C1006 0.930 . S
H998 C1008 0.930 . S
H999 C1011 0.929 . S
H1000 C1014 0.930 . S
H1001 C1016 0.960 . S
H1002 C1016 0.960 . S
H1003 C1016 0.960 . S
C1004 H996 0.929 . S
C1004 C1005 1.377 . S
C1004 C1006 1.384 . S
C1005 C1004 1.377 . S
C1005 C1011 1.390 . S
C1006 H997 0.930 . S
C1006 C1004 1.384 . S
C1006 C1007 1.372 . S
C1007 C1006 1.372 . S
C1007 C1008 1.400 . S
C1007 C1012 1.490 . S
C1008 H998 0.930 . S
C1008 C1007 1.400 . S
C1008 C1011 1.386 . S
H1009 C1025 0.930 . S
H1010 C1026 0.931 . S
C1011 H999 0.929 . S
C1011 C1005 1.390 . S
C1011 C1008 1.386 . S
C1012 C1007 1.490 . S
C1012 C1014 1.395 . S
C1012 C1015 1.403 1_565 S
H1013 C1019 0.930 . S
C1014 H1000 0.930 . S
C1014 C1012 1.395 . S
C1014 C1017 1.403 1_554 S
C1015 C1012 1.403 1_545 S
C1015 C1016 1.524 . S
C1015 C1019 1.400 1_554 S
C1016 H1001 0.960 . S
C1016 H1002 0.960 . S
C1016 H1003 0.960 . S
C1016 C1015 1.524 . S
C1017 C1014 1.403 1_556 S
C1017 C1018 1.392 1_565 S
C1017 C1021 1.495 . S
C1018 C1017 1.392 1_545 S
C1018 C1019 1.385 . S
C1018 C1020 1.478 . S
C1019 H1013 0.930 . S
C1019 C1015 1.400 1_556 S
C1019 C1018 1.385 . S
C1020 C1018 1.478 . S
C1020 C1022 1.381 . S
C1020 C1026 1.383 . S
C1021 C1017 1.495 . S
C1021 H1027 0.959 . S
C1021 H1028 0.961 . S
C1021 H1029 0.960 . S
C1022 C1020 1.381 . S
C1022 C1023 1.394 . S
C1022 H1030 0.930 . S
C1023 C1022 1.394 . S
C1023 C1024 1.383 . S
C1023 H1031 0.929 . S
C1024 C1023 1.383 . S
C1024 C1025 1.377 . S
C1025 H1009 0.930 . S
C1025 C1024 1.377 . S
C1025 C1026 1.379 . S
C1026 H1010 0.931 . S
C1026 C1020 1.383 . S
C1026 C1025 1.379 . S
H1027 C1021 0.959 . S
H1028 C1021 0.961 . S
H1029 C1021 0.960 . S
H1030 C1022 0.930 . S
H1031 C1023 0.929 . S
C177 C165 1.684 . S
C196 C11 1.688 . S
C213 C25 1.679 . S
C232 C95 1.664 . S
C249 C39 1.683 . S
C268 C109 1.687 . S
C285 C53 1.682 . S
C304 C123 1.685 . S
C321 C137 1.679 . S
C340 C67 1.663 . S
C357 C81 1.685 . S
C376 C151 1.692 . S
C393 C47 1.105 . S
C412 C5 1.119 . S
C429 C61 1.105 . S
C448 C19 1.088 . S
C465 C75 1.105 . S
C484 C33 1.090 . S
C501 C89 1.104 . S
C520 C131 1.121 . S
C537 C103 1.105 . S
C556 C145 1.117 . S
C573 C117 1.105 . S
C592 C159 1.119 . S
C609 C121 0.236 . S
C628 C9 0.168 . S
C645 C23 0.215 . S
C664 C135 0.241 . S
C681 C149 0.215 . S
C700 C37 0.223 . S
C717 C163 0.249 . S
C736 C51 0.267 . S
C753 C93 0.249 . S
C772 C65 0.269 . S
C789 C79 0.249 . S
C808 C107 0.279 . S
C825 C126 1.644 . S
C844 C0 1.635 . S
C861 C14 1.638 . S
C880 C140 1.624 . S
C897 C154 1.644 . S
C916 C28 1.635 . S
C933 C42 1.640 . S
C952 C84 1.636 . S
C969 C56 1.643 . S
C988 C98 1.631 . S
C1005 C112 1.638 . S
C1024 C70 1.618 . S
