# Generated by pormake.
# Topology umw, (4)-cn, num edge types: 1
# Building blocks:
#     Node 0, Type 0, BuildingBlock: NAHDIM_clean_sbu_0, # of connection points: 4
#     Node 1, Type 0, BuildingBlock: NAHDIM_clean_sbu_0, # of connection points: 4
#     Node 2, Type 0, BuildingBlock: NAHDIM_clean_sbu_0, # of connection points: 4
#     Node 3, Type 0, BuildingBlock: NAHDIM_clean_sbu_0, # of connection points: 4
#     Node 4, Type 0, BuildingBlock: NAHDIM_clean_sbu_0, # of connection points: 4
#     Node 5, Type 0, BuildingBlock: NAHDIM_clean_sbu_0, # of connection points: 4
#     Node 6, Type 0, BuildingBlock: NAHDIM_clean_sbu_0, # of connection points: 4
#     Node 7, Type 0, BuildingBlock: NAHDIM_clean_sbu_0, # of connection points: 4
#     Edge 8, Type (0, 0), BuildingBlock: MIFKUJ_clean_linker_0, # of connection points: 2
#     Edge 9, Type (0, 0), BuildingBlock: MIFKUJ_clean_linker_0, # of connection points: 2
#     Edge 10, Type (0, 0), BuildingBlock: MIFKUJ_clean_linker_0, # of connection points: 2
#     Edge 11, Type (0, 0), BuildingBlock: MIFKUJ_clean_linker_0, # of connection points: 2
#     Edge 12, Type (0, 0), BuildingBlock: MIFKUJ_clean_linker_0, # of connection points: 2
#     Edge 13, Type (0, 0), BuildingBlock: MIFKUJ_clean_linker_0, # of connection points: 2
#     Edge 14, Type (0, 0), BuildingBlock: MIFKUJ_clean_linker_0, # of connection points: 2
#     Edge 15, Type (0, 0), BuildingBlock: MIFKUJ_clean_linker_0, # of connection points: 2
#     Edge 16, Type (0, 0), BuildingBlock: MIFKUJ_clean_linker_0, # of connection points: 2
#     Edge 17, Type (0, 0), BuildingBlock: MIFKUJ_clean_linker_0, # of connection points: 2
#     Edge 18, Type (0, 0), BuildingBlock: MIFKUJ_clean_linker_0, # of connection points: 2
#     Edge 19, Type (0, 0), BuildingBlock: MIFKUJ_clean_linker_0, # of connection points: 2
#     Edge 20, Type (0, 0), BuildingBlock: MIFKUJ_clean_linker_0, # of connection points: 2
#     Edge 21, Type (0, 0), BuildingBlock: MIFKUJ_clean_linker_0, # of connection points: 2
#     Edge 22, Type (0, 0), BuildingBlock: MIFKUJ_clean_linker_0, # of connection points: 2
#     Edge 23, Type (0, 0), BuildingBlock: MIFKUJ_clean_linker_0, # of connection points: 2
# Relax obj value: 0.146
# Max RMSD: 0.106
# Mean RMSD: 0.106
data_MOF--net-umw--node1-NAHDIM_clean_sbu_0--edge1-MIFKUJ_clean_linker_0
_symmetry_space_group_name_H-M    P1
_symmetry_Int_Tables_number       1
_symmetry_cell_setting            triclinic
loop_
_symmetry_equiv_pos_as_xyz
'x, y, z'
_cell_length_a     56.400017
_cell_length_b     56.405992
_cell_length_c     30.502167
_cell_angle_alpha  89.91033
_cell_angle_beta   90.00518
_cell_angle_gamma 89.945355
loop_
_atom_site_label
_atom_site_type_symbol
_atom_site_fract_x
_atom_site_fract_y
_atom_site_fract_z
_atom_type_partial_charge
C0 C 0.38005 0.20868 0.31724 0.0
O1 O 0.40247 0.20946 0.32882 0.0
O2 O 0.41512 0.18398 0.21463 0.0
Zn3 Zn 0.39752 0.17052 0.26628 0.0
O4 O 0.41919 0.16264 0.31648 0.0
C5 C 0.39355 0.12464 0.22929 0.0
O6 O 0.4148 0.13023 0.21502 0.0
O7 O 0.37346 0.19357 0.2889 0.0
C8 C 0.44088 0.15666 0.31519 0.0
O9 O 0.45197 0.15549 0.27738 0.0
C10 C 0.43215 0.19854 0.21858 0.0
O11 O 0.43856 0.20564 0.25783 0.0
O12 O 0.38171 0.13998 0.25044 0.0
C13 C 0.78299 0.36603 0.52797 0.0
O14 O 0.77583 0.38099 0.49771 0.0
O15 O 0.81522 0.41399 0.47911 0.0
Zn16 Zn 0.8232 0.39788 0.53618 0.0
O17 O 0.81931 0.42073 0.58601 0.0
C18 C 0.86937 0.38128 0.50452 0.0
O19 O 0.85934 0.38027 0.46569 0.0
O20 O 0.80256 0.36964 0.54741 0.0
C21 C 0.82959 0.44075 0.5846 0.0
O22 O 0.84192 0.44648 0.5496 0.0
C23 C 0.79964 0.43028 0.47793 0.0
O24 O 0.78831 0.43596 0.51405 0.0
O25 O 0.85724 0.38789 0.53737 0.0
C26 C 0.62312 0.78281 0.79323 0.0
O27 O 0.6003 0.77816 0.7925 0.0
O28 O 0.58906 0.81438 0.70427 0.0
Zn29 Zn 0.6058 0.82579 0.75863 0.0
O30 O 0.58274 0.82923 0.80855 0.0
C31 C 0.61227 0.87197 0.72026 0.0
O32 O 0.59535 0.86466 0.69395 0.0
O33 O 0.63037 0.80252 0.77817 0.0
C34 C 0.56941 0.84724 0.81321 0.0
O35 O 0.5701 0.86431 0.78392 0.0
C36 C 0.56807 0.80623 0.70591 0.0
O37 O 0.55738 0.80445 0.74402 0.0
O38 O 0.62045 0.8578 0.74894 0.0
C39 C 0.2117 0.62222 0.04313 0.0
O40 O 0.21511 0.59964 0.05161 0.0
O41 O 0.18082 0.58656 0.94786 0.0
Zn42 Zn 0.17082 0.60263 0.00378 0.0
O43 O 0.16933 0.57952 0.05397 0.0
C44 C 0.12229 0.6021 0.98073 0.0
O45 O 0.12882 0.58128 0.96566 0.0
O46 O 0.1936 0.62838 0.02103 0.0
C47 C 0.16543 0.55738 0.05173 0.0
O48 O 0.16216 0.54738 0.01334 0.0
C49 C 0.19766 0.57161 0.94586 0.0
O50 O 0.20986 0.5667 0.98141 0.0
O51 O 0.13788 0.61563 0.99732 0.0
C52 C 0.36965 0.78628 0.25013 0.0
O53 O 0.38997 0.77782 0.2643 0.0
O54 O 0.41052 0.81924 0.31809 0.0
Zn55 Zn 0.39288 0.83071 0.2646 0.0
O56 O 0.41517 0.83301 0.21318 0.0
C57 C 0.3928 0.87889 0.29191 0.0
O58 O 0.41428 0.87302 0.30468 0.0
O59 O 0.36664 0.80857 0.24848 0.0
C60 C 0.41266 0.84888 0.18392 0.0
O61 O 0.39498 0.86397 0.187 0.0
C62 C 0.43088 0.80976 0.31437 0.0
O63 O 0.44001 0.80683 0.27514 0.0
O64 O 0.37955 0.8631 0.2753 0.0
C65 C 0.20893 0.35706 0.52704 0.0
O66 O 0.21554 0.37393 0.55401 0.0
O67 O 0.17503 0.40594 0.56742 0.0
Zn68 Zn 0.16731 0.38658 0.51386 0.0
O69 O 0.1706 0.40622 0.4593 0.0
C70 C 0.12132 0.37458 0.55069 0.0
O71 O 0.13138 0.37955 0.58841 0.0
O72 O 0.18895 0.35857 0.50797 0.0
C73 C 0.16184 0.42692 0.4566 0.0
O74 O 0.15108 0.43608 0.49083 0.0
C75 C 0.19027 0.42253 0.56704 0.0
O76 O 0.20189 0.42715 0.5307 0.0
O77 O 0.13348 0.37585 0.51573 0.0
C78 C 0.62201 0.20547 0.73629 0.0
O79 O 0.5991 0.20818 0.73029 0.0
O80 O 0.58746 0.17795 0.83179 0.0
Zn81 Zn 0.60426 0.16517 0.77856 0.0
O82 O 0.58223 0.16102 0.72731 0.0
C83 C 0.60639 0.11836 0.8135 0.0
O84 O 0.58678 0.12548 0.83267 0.0
O85 O 0.62935 0.1879 0.75863 0.0
C86 C 0.56252 0.15017 0.72681 0.0
O87 O 0.55419 0.14086 0.76317 0.0
C88 C 0.56811 0.18944 0.82947 0.0
O89 O 0.55852 0.19355 0.79097 0.0
O90 O 0.6181 0.13304 0.79047 0.0
C91 C 0.78363 0.63465 0.0328 0.0
O92 O 0.77742 0.61263 0.04088 0.0
O93 O 0.81776 0.59352 0.09504 0.0
Zn94 Zn 0.82822 0.61348 0.04349 0.0
O95 O 0.8278 0.59466 0.98754 0.0
C96 C 0.87588 0.61498 0.07689 0.0
O97 O 0.86825 0.5972 0.10089 0.0
O98 O 0.80545 0.64015 0.03417 0.0
C99 C 0.84459 0.5809 0.97634 0.0
O100 O 0.86278 0.57803 0.0027 0.0
C101 C 0.81361 0.57145 0.09155 0.0
O102 O 0.81597 0.56113 0.05326 0.0
O103 O 0.86144 0.62555 0.05153 0.0
H104 H 0.4215 0.14383 0.3932 0.0
H105 H 0.44165 0.13872 0.46332 0.0
H106 H 0.50866 0.15466 0.40167 0.0
H107 H 0.48862 0.15883 0.33076 0.0
H108 H 0.5143 0.12065 0.45999 0.0
H109 H 0.47583 0.19693 0.45959 0.0
H110 H 0.44196 0.2243 0.45169 0.0
H111 H 0.40597 0.18919 0.55744 0.0
H112 H 0.43943 0.16134 0.56545 0.0
H113 H 0.57845 0.16068 0.64479 0.0
H114 H 0.55681 0.15783 0.5758 0.0
H115 H 0.49518 0.13235 0.64498 0.0
H116 H 0.51681 0.13506 0.71459 0.0
H117 H 0.48554 0.169 0.58502 0.0
H118 H 0.5254 0.09405 0.58753 0.0
H119 H 0.55964 0.06716 0.59525 0.0
H120 H 0.59385 0.10102 0.48615 0.0
H121 H 0.55991 0.12831 0.47805 0.0
C122 C 0.44056 0.14609 0.39451 0.0
C123 C 0.45349 0.15199 0.35666 0.0
C124 C 0.45204 0.14324 0.43465 0.0
C125 C 0.47658 0.14688 0.43798 0.0
C126 C 0.48968 0.15189 0.39989 0.0
C127 C 0.47823 0.15431 0.35945 0.0
C128 C 0.48841 0.14625 0.4814 0.0
C129 C 0.50816 0.13141 0.48717 0.0
C130 C 0.48005 0.1599 0.51723 0.0
C131 C 0.46005 0.17689 0.51283 0.0
C132 C 0.46062 0.19495 0.48097 0.0
C133 C 0.44149 0.21055 0.47647 0.0
C134 C 0.42177 0.20844 0.50394 0.0
C135 C 0.4212 0.19078 0.53609 0.0
C136 C 0.44025 0.17508 0.54064 0.0
C137 C 0.5603 0.15441 0.64545 0.0
C138 C 0.54931 0.1481 0.68518 0.0
C139 C 0.54802 0.15269 0.60594 0.0
C140 C 0.5245 0.14469 0.60534 0.0
C141 C 0.51337 0.13848 0.64488 0.0
C142 C 0.52576 0.14 0.68451 0.0
C143 C 0.51146 0.14355 0.56335 0.0
C144 C 0.49153 0.15812 0.55787 0.0
C145 C 0.51975 0.12981 0.52777 0.0
C146 C 0.54017 0.11335 0.5324 0.0
C147 C 0.5403 0.09589 0.56539 0.0
C148 C 0.55964 0.08056 0.5698 0.0
C149 C 0.57893 0.08242 0.54128 0.0
C150 C 0.5789 0.09961 0.50823 0.0
C151 C 0.55959 0.11499 0.50367 0.0
H152 H 0.59387 0.07051 0.54469 0.0
H153 H 0.40697 0.22053 0.50039 0.0
H154 H 0.8456 0.48639 0.58974 0.0
H155 H 0.84676 0.51177 0.65462 0.0
H156 H 0.81387 0.45639 0.73106 0.0
H157 H 0.81204 0.4312 0.66616 0.0
H158 H 0.79612 0.4976 0.7536 0.0
H159 H 0.87435 0.46571 0.73328 0.0
H160 H 0.91112 0.45717 0.69247 0.0
H161 H 0.92387 0.53176 0.67698 0.0
H162 H 0.88699 0.54073 0.71722 0.0
H163 H 0.87165 0.54329 0.95035 0.0
H164 H 0.86805 0.52053 0.88256 0.0
H165 H 0.81168 0.56683 0.83939 0.0
H166 H 0.81453 0.58902 0.90782 0.0
H167 H 0.87391 0.52992 0.80034 0.0
H168 H 0.77249 0.53748 0.77797 0.0
H169 H 0.73661 0.54272 0.82329 0.0
H170 H 0.77176 0.5099 0.93257 0.0
H171 H 0.80774 0.50428 0.88778 0.0
C172 C 0.83846 0.47969 0.6203 0.0
C173 C 0.82891 0.45672 0.62293 0.0
C174 C 0.8392 0.49418 0.65737 0.0
C175 C 0.83076 0.48582 0.69786 0.0
C176 C 0.82051 0.4632 0.70018 0.0
C177 C 0.81955 0.44879 0.66306 0.0
C178 C 0.8333 0.50026 0.73817 0.0
C179 C 0.81311 0.50472 0.76375 0.0
C180 C 0.85554 0.50923 0.75185 0.0
C181 C 0.8778 0.50388 0.72787 0.0
C182 C 0.88491 0.48029 0.72091 0.0
C183 C 0.90579 0.47537 0.69792 0.0
C184 C 0.91979 0.49391 0.68204 0.0
C185 C 0.91299 0.51741 0.68924 0.0
C186 C 0.89211 0.52243 0.71216 0.0
C187 C 0.85847 0.54859 0.92643 0.0
C188 C 0.84319 0.56776 0.93461 0.0
C189 C 0.85648 0.53562 0.88763 0.0
C190 C 0.83934 0.54172 0.85615 0.0
C191 C 0.82464 0.56141 0.86363 0.0
C192 C 0.82636 0.57414 0.90269 0.0
C193 C 0.83672 0.52731 0.81579 0.0
C194 C 0.85689 0.5229 0.79011 0.0
C195 C 0.81457 0.51785 0.80267 0.0
C196 C 0.79285 0.52066 0.82962 0.0
C197 C 0.7725 0.53129 0.8116 0.0
C198 C 0.75217 0.53435 0.83721 0.0
C199 C 0.75193 0.5267 0.88081 0.0
C200 C 0.772 0.51589 0.89884 0.0
C201 C 0.79237 0.51278 0.87338 0.0
H202 H 0.73619 0.52912 0.90059 0.0
H203 H 0.93594 0.49007 0.66425 0.0
H204 H 0.4152 0.88325 0.12088 0.0
H205 H 0.4425 0.88521 0.05882 0.0
H206 H 0.47487 0.81953 0.10014 0.0
H207 H 0.44801 0.81772 0.1629 0.0
H208 H 0.50784 0.85052 0.07571 0.0
H209 H 0.43449 0.82155 0.01531 0.0
H210 H 0.39158 0.82244 -0.00012 0.0
H211 H 0.39959 0.88873 0.93211 0.0
H212 H 0.44253 0.88838 0.94763 0.0
H213 H 0.56413 0.81517 0.87961 0.0
H214 H 0.538 0.81804 0.94314 0.0
H215 H 0.51266 0.88592 0.89757 0.0
H216 H 0.53869 0.88316 0.83355 0.0
H217 H 0.47653 0.85655 0.92404 0.0
H218 H 0.55071 0.88393 0.98083 0.0
H219 H 0.59372 0.88197 0.99483 0.0
H220 H 0.58426 0.81775 0.06855 0.0
H221 H 0.54121 0.81914 0.05445 0.0
C222 C 0.42814 0.86922 0.1168 0.0
C223 C 0.42934 0.85024 0.14665 0.0
C224 C 0.44369 0.87034 0.08123 0.0
C225 C 0.46051 0.85235 0.07451 0.0
C226 C 0.46201 0.83359 0.10468 0.0
C227 C 0.44658 0.83255 0.14044 0.0
C228 C 0.47639 0.85288 0.0358 0.0
C229 C 0.50098 0.85159 0.04253 0.0
C230 C 0.46747 0.85488 0.99255 0.0
C231 C 0.44167 0.85506 0.98303 0.0
C232 C 0.42707 0.8364 0.9974 0.0
C233 C 0.40275 0.8368 0.98859 0.0
C234 C 0.39285 0.85566 0.96514 0.0
C235 C 0.40727 0.87415 0.95033 0.0
C236 C 0.4316 0.87385 0.95909 0.0
C237 C 0.55303 0.83074 0.88304 0.0
C238 C 0.5535 0.84896 0.85155 0.0
C239 C 0.53818 0.83238 0.91948 0.0
C240 C 0.52361 0.8523 0.92524 0.0
C241 C 0.52383 0.87043 0.8937 0.0
C242 C 0.53873 0.86883 0.85721 0.0
C243 C 0.5079 0.85394 0.96399 0.0
C244 C 0.48337 0.85565 0.95725 0.0
C245 C 0.51688 0.85224 0.00719 0.0
C246 C 0.54274 0.85154 0.01628 0.0
C247 C 0.55781 0.8693 -0.00021 0.0
C248 C 0.5822 0.86831 0.00777 0.0
C249 C 0.59172 0.84972 0.03249 0.0
C250 C 0.57686 0.83213 0.04939 0.0
C251 C 0.55245 0.83303 0.04146 0.0
H252 H 0.61061 0.84896 0.0386 0.0
H253 H 0.37402 0.85594 0.95835 0.0
H254 H 0.15457 0.47426 0.44339 0.0
H255 H 0.15542 0.49574 0.37377 0.0
H256 H 0.17146 0.43064 0.30566 0.0
H257 H 0.17163 0.40929 0.37536 0.0
H258 H 0.19676 0.46418 0.27263 0.0
H259 H 0.11435 0.45613 0.30696 0.0
H260 H 0.07834 0.45934 0.35242 0.0
H261 H 0.08622 0.53501 0.35677 0.0
H262 H 0.12247 0.53222 0.31182 0.0
H263 H 0.16586 0.50901 0.06003 0.0
H264 H 0.16516 0.48592 0.12821 0.0
H265 H 0.16222 0.55061 0.20321 0.0
H266 H 0.16304 0.57377 0.13557 0.0
H267 H 0.12948 0.51619 0.23059 0.0
H268 H 0.21287 0.52289 0.19613 0.0
H269 H 0.24803 0.51857 0.14875 0.0
H270 H 0.23661 0.4434 0.14204 0.0
H271 H 0.20116 0.44733 0.1889 0.0
C272 C 0.15833 0.46456 0.41357 0.0
C273 C 0.16291 0.44009 0.41478 0.0
C274 C 0.15868 0.47682 0.37376 0.0
C275 C 0.16302 0.46473 0.3343 0.0
C276 C 0.168 0.44035 0.33561 0.0
C277 C 0.16806 0.42816 0.37548 0.0
C278 C 0.16241 0.47746 0.29168 0.0
C279 C 0.18187 0.47525 0.26322 0.0
C280 C 0.14313 0.49219 0.2795 0.0
C281 C 0.12125 0.49394 0.30635 0.0
C282 C 0.10849 0.47344 0.31786 0.0
C283 C 0.08802 0.47519 0.3435 0.0
C284 C 0.08003 0.49736 0.35756 0.0
C285 C 0.09245 0.51784 0.3459 0.0
C286 C 0.11295 0.51619 0.32031 0.0
C287 C 0.16502 0.51829 0.09105 0.0
C288 C 0.16459 0.5432 0.09245 0.0
C289 C 0.16469 0.5051 0.1299 0.0
C290 C 0.16376 0.51662 0.17063 0.0
C291 C 0.16293 0.54143 0.17205 0.0
C292 C 0.16351 0.55461 0.13336 0.0
C293 C 0.16381 0.50291 0.21198 0.0
C294 C 0.14426 0.50497 0.24009 0.0
C295 C 0.18284 0.48783 0.22357 0.0
C296 C 0.20422 0.48544 0.19562 0.0
C297 C 0.21774 0.50547 0.18424 0.0
C298 C 0.23774 0.50309 0.15754 0.0
C299 C 0.24451 0.48074 0.14229 0.0
C300 C 0.23133 0.46071 0.15382 0.0
C301 C 0.21129 0.463 0.18047 0.0
H302 H 0.26 0.47893 0.12162 0.0
H303 H 0.06418 0.49867 0.37742 0.0
H304 H 0.38818 0.24127 0.3816 0.0
H305 H 0.35887 0.26499 0.42089 0.0
H306 H 0.30298 0.23397 0.34334 0.0
H307 H 0.3322 0.21041 0.30336 0.0
H308 H 0.29758 0.28118 0.35121 0.0
H309 H 0.31286 0.21544 0.44781 0.0
H310 H 0.33813 0.1884 0.49098 0.0
H311 H 0.36326 0.24702 0.56758 0.0
H312 H 0.33834 0.27448 0.52448 0.0
H313 H 0.20038 0.3191 0.47403 0.0
H314 H 0.22951 0.29174 0.44344 0.0
H315 H 0.28474 0.32537 0.51876 0.0
H316 H 0.25563 0.35271 0.55009 0.0
H317 H 0.29074 0.27674 0.51331 0.0
H318 H 0.2764 0.34243 0.41636 0.0
H319 H 0.25164 0.36986 0.37301 0.0
H320 H 0.22557 0.31158 0.29656 0.0
H321 H 0.24991 0.28374 0.33994 0.0
C322 C 0.36967 0.23957 0.37271 0.0
C323 C 0.36249 0.22392 0.33943 0.0
C324 C 0.35294 0.25303 0.3954 0.0
C325 C 0.32875 0.25094 0.38544 0.0
C326 C 0.32158 0.23574 0.35161 0.0
C327 C 0.33829 0.22229 0.32883 0.0
C328 C 0.31089 0.26475 0.41007 0.0
C329 C 0.29585 0.27994 0.38658 0.0
C330 C 0.30911 0.26355 0.45633 0.0
C331 C 0.32388 0.24704 0.48267 0.0
C332 C 0.32389 0.22259 0.47368 0.0
C333 C 0.33813 0.20719 0.49816 0.0
C334 C 0.35231 0.216 0.53196 0.0
C335 C 0.35226 0.24023 0.54139 0.0
C336 C 0.33806 0.25572 0.51698 0.0
C337 C 0.21864 0.32047 0.48467 0.0
C338 C 0.22578 0.33832 0.51395 0.0
C339 C 0.23526 0.30483 0.46711 0.0
C340 C 0.2593 0.30689 0.47822 0.0
C341 C 0.26626 0.32362 0.50965 0.0
C342 C 0.24961 0.33925 0.52741 0.0
C343 C 0.27733 0.29294 0.45432 0.0
C344 C 0.29244 0.27785 0.47793 0.0
C345 C 0.27927 0.29425 0.40812 0.0
C346 C 0.2648 0.31098 0.38168 0.0
C347 C 0.26525 0.33544 0.39051 0.0
C348 C 0.25131 0.35107 0.36591 0.0
C349 C 0.23699 0.34246 0.33212 0.0
C350 C 0.23664 0.31822 0.32278 0.0
C351 C 0.25052 0.30251 0.34735 0.0
H352 H 0.22621 0.35459 0.31312 0.0
H353 H 0.36329 0.20404 0.55091 0.0
H354 H 0.7373 0.35714 0.5029 0.0
H355 H 0.7103 0.32763 0.53389 0.0
H356 H 0.76632 0.30158 0.61738 0.0
H357 H 0.79348 0.33088 0.5865 0.0
H358 H 0.7383 0.26543 0.58279 0.0
H359 H 0.72855 0.34026 0.65785 0.0
H360 H 0.72109 0.3833 0.66159 0.0
H361 H 0.65288 0.37349 0.60174 0.0
H362 H 0.6601 0.33041 0.59709 0.0
H363 H 0.67021 0.20758 0.74654 0.0
H364 H 0.69795 0.23344 0.70761 0.0
H365 H 0.63969 0.26491 0.63651 0.0
H366 H 0.61188 0.2397 0.67608 0.0
H367 H 0.66878 0.29792 0.66242 0.0
H368 H 0.67712 0.22327 0.58925 0.0
H369 H 0.68422 0.18023 0.58366 0.0
H370 H 0.75407 0.18921 0.6371 0.0
H371 H 0.74726 0.23228 0.64357 0.0
C372 C 0.74398 0.34492 0.5274 0.0
C373 C 0.76744 0.34653 0.54266 0.0
C374 C 0.72852 0.32812 0.5451 0.0
C375 C 0.73629 0.31271 0.5783 0.0
C376 C 0.76001 0.31339 0.59186 0.0
C377 C 0.77546 0.33022 0.57431 0.0
C378 C 0.71933 0.29702 0.60113 0.0
C379 C 0.72319 0.27247 0.60054 0.0
C380 C 0.69943 0.3063 0.62351 0.0
C381 C 0.69497 0.33216 0.62673 0.0
C382 C 0.71203 0.34731 0.64521 0.0
C383 C 0.70784 0.3717 0.64753 0.0
C384 C 0.68655 0.38113 0.63181 0.0
C385 C 0.66938 0.36617 0.61385 0.0
C386 C 0.67351 0.34176 0.61139 0.0
C387 C 0.66333 0.22008 0.72274 0.0
C388 C 0.63887 0.22158 0.71433 0.0
C389 C 0.6792 0.23472 0.7003 0.0
C390 C 0.67092 0.25083 0.66864 0.0
C391 C 0.64648 0.25258 0.66073 0.0
C392 C 0.6306 0.23814 0.6834 0.0
C393 C 0.68761 0.26617 0.64409 0.0
C394 C 0.68376 0.29074 0.64448 0.0
C395 C 0.70741 0.25685 0.6213 0.0
C396 C 0.71159 0.23097 0.61728 0.0
C397 C 0.69393 0.21604 0.60011 0.0
C398 C 0.69791 0.19165 0.59674 0.0
C399 C 0.71956 0.18198 0.61012 0.0
C400 C 0.73729 0.19671 0.6268 0.0
C401 C 0.73339 0.22112 0.63029 0.0
H402 H 0.7226 0.16309 0.60748 0.0
H403 H 0.68334 0.40003 0.63362 0.0
H404 H 0.7358 0.62842 0.02563 0.0
H405 H 0.70752 0.65433 0.9883 0.0
H406 H 0.7632 0.70497 0.96335 0.0
H407 H 0.79155 0.67937 0.00129 0.0
H408 H 0.72186 0.72678 0.98403 0.0
H409 H 0.74787 0.66534 0.88575 0.0
H410 H 0.75509 0.62397 0.86332 0.0
H411 H 0.68068 0.60897 0.87387 0.0
H412 H 0.67307 0.65019 0.89701 0.0
H413 H 0.67066 0.78892 0.80658 0.0
H414 H 0.6972 0.76371 0.84953 0.0
H415 H 0.63975 0.71506 0.8742 0.0
H416 H 0.61309 0.74004 0.83096 0.0
H417 H 0.68112 0.69208 0.85493 0.0
H418 H 0.6551 0.75408 0.95141 0.0
H419 H 0.64816 0.79549 0.97384 0.0
H420 H 0.72286 0.80956 0.96614 0.0
H421 H 0.73021 0.76829 0.94307 0.0
C422 C 0.74198 0.64523 0.01278 0.0
C423 C 0.76597 0.65172 0.01591 0.0
C424 C 0.72581 0.65996 0.99132 0.0
C425 C 0.73341 0.6813 0.9723 0.0
C426 C 0.75703 0.68849 0.97761 0.0
C427 C 0.77321 0.67382 -0.00075 0.0
C428 C 0.7171 0.69546 0.94473 0.0
C429 C 0.71313 0.71929 0.95555 0.0
C430 C 0.70544 0.6855 0.90802 0.0
C431 C 0.70993 0.66079 0.89353 0.0
C432 C 0.73307 0.65318 0.88357 0.0
C433 C 0.73723 0.62976 0.87069 0.0
C434 C 0.71837 0.61383 0.86728 0.0
C435 C 0.69529 0.62132 0.87659 0.0
C436 C 0.69103 0.64471 0.88955 0.0
C437 C 0.6637 0.77275 0.82079 0.0
C438 C 0.63972 0.76655 0.81564 0.0
C439 C 0.67887 0.75844 0.84549 0.0
C440 C 0.67031 0.73775 0.86558 0.0
C441 C 0.64664 0.73103 0.85909 0.0
C442 C 0.63144 0.74534 0.83443 0.0
C443 C 0.68592 0.72341 0.89418 0.0
C444 C 0.68978 0.69955 0.8835 0.0
C445 C 0.69753 0.73337 0.93095 0.0
C446 C 0.69317 0.75815 0.94511 0.0
C447 C 0.67003 0.76605 0.95418 0.0
C448 C 0.66602 0.78949 0.96706 0.0
C449 C 0.68505 0.80516 0.9713 0.0
C450 C 0.70813 0.79741 0.96279 0.0
C451 C 0.71223 0.77399 0.94985 0.0
H452 H 0.68192 0.82331 0.98127 0.0
H453 H 0.72163 0.5957 0.85734 0.0
H454 H 0.20756 0.67061 0.03972 0.0
H455 H 0.23293 0.69985 0.07584 0.0
H456 H 0.27737 0.64357 0.12545 0.0
H457 H 0.25201 0.61429 0.09011 0.0
H458 H 0.2664 0.67457 0.1888 0.0
H459 H 0.29526 0.67838 0.04032 0.0
H460 H 0.29194 0.68355 0.96026 0.0
H461 H 0.26482 0.75399 0.97869 0.0
H462 H 0.26769 0.74912 0.05893 0.0
H463 H 0.36974 0.73784 0.25082 0.0
H464 H 0.34057 0.71138 0.21757 0.0
H465 H 0.29888 0.77174 0.17717 0.0
H466 H 0.328 0.79836 0.21012 0.0
H467 H 0.30615 0.7406 0.11038 0.0
H468 H 0.27951 0.73755 0.25894 0.0
H469 H 0.28318 0.73241 0.33893 0.0
H470 H 0.30631 0.66057 0.32049 0.0
H471 H 0.3031 0.66538 0.24031 0.0
C472 C 0.22285 0.66448 0.05803 0.0
C473 C 0.22777 0.64014 0.0621 0.0
C474 C 0.23733 0.68121 0.07858 0.0
C475 C 0.25706 0.67386 0.10318 0.0
C476 C 0.26217 0.6496 0.10676 0.0
C477 C 0.2477 0.6329 0.08637 0.0
C478 C 0.27217 0.69131 0.12616 0.0
C479 C 0.27531 0.68886 0.17159 0.0
C480 C 0.2832 0.71034 0.10385 0.0
C481 C 0.28144 0.71329 0.05563 0.0
C482 C 0.28839 0.6949 0.02731 0.0
C483 C 0.28663 0.69779 0.9819 0.0
C484 C 0.27811 0.71906 0.9644 0.0
C485 C 0.27138 0.73751 0.99229 0.0
C486 C 0.27309 0.7347 0.03773 0.0
C487 C 0.35427 0.74549 0.23522 0.0
C488 C 0.35121 0.77019 0.23301 0.0
C489 C 0.33758 0.73034 0.21638 0.0
C490 C 0.31754 0.73963 0.19512 0.0
C491 C 0.31425 0.76425 0.19344 0.0
C492 C 0.33087 0.77941 0.21241 0.0
C493 C 0.30062 0.72365 0.17289 0.0
C494 C 0.29712 0.72639 0.12762 0.0
C495 C 0.28928 0.70487 0.19534 0.0
C496 C 0.29127 0.70191 0.24357 0.0
C497 C 0.28558 0.72072 0.27191 0.0
C498 C 0.28754 0.71785 0.3173 0.0
C499 C 0.29503 0.6962 0.33478 0.0
C500 C 0.30053 0.67734 0.3069 0.0
C501 C 0.29862 0.68012 0.26148 0.0
H502 H 0.29653 0.69401 0.36993 0.0
H503 H 0.27677 0.72127 0.92923 0.0
H504 H 0.41658 0.91697 0.32517 0.0
H505 H 0.40706 0.95883 0.31485 0.0
H506 H 0.34328 0.93973 0.24534 0.0
H507 H 0.35273 0.89774 0.25525 0.0
H508 H 0.36935 0.97118 0.19976 0.0
H509 H 0.3388 0.96517 0.34444 0.0
H510 H 0.33864 0.95435 0.42279 0.0
H511 H 0.39829 -4e-05 0.44543 0.0
H512 H 0.39904 0.0108 0.36709 0.0
H513 H 0.3532 0.10593 0.26515 0.0
H514 H 0.34322 0.06396 0.27272 0.0
H515 H 0.40566 0.04516 0.19879 0.0
H516 H 0.41564 0.08699 0.19067 0.0
H517 H 0.36959 0.03255 0.31605 0.0
H518 H 0.39779 0.99309 0.1475 0.0
H519 H 0.39606 0.00394 0.06922 0.0
H520 H 0.33641 0.04929 0.09426 0.0
H521 H 0.33755 0.03847 0.17257 0.0
C522 C 0.40033 0.92164 0.30829 0.0
C523 C 0.38548 0.90404 0.29085 0.0
C524 C 0.39486 0.94559 0.30258 0.0
C525 C 0.37442 0.95236 0.27947 0.0
C526 C 0.35914 0.93484 0.26328 0.0
C527 C 0.36454 0.91087 0.26912 0.0
C528 C 0.37016 0.97768 0.26933 0.0
C529 C 0.36915 0.98462 0.22516 0.0
C530 C 0.36943 0.99511 0.30255 0.0
C531 C 0.36904 0.98869 0.34978 0.0
C532 C 0.35199 0.97276 0.36605 0.0
C533 C 0.35178 0.96665 0.41048 0.0
C534 C 0.36846 0.97644 0.43905 0.0
C535 C 0.38538 0.99239 0.42326 0.0
C536 C 0.38567 -0.00144 0.37885 0.0
C537 C 0.36454 0.09289 0.24968 0.0
C538 C 0.38534 0.09978 0.22761 0.0
C539 C 0.35883 0.06892 0.25415 0.0
C540 C 0.37367 0.05146 0.23631 0.0
C541 C 0.39378 0.05835 0.21235 0.0
C542 C 0.39952 0.08229 0.2079 0.0
C543 C 0.36968 0.02609 0.24643 0.0
C544 C 0.36927 0.01913 0.29063 0.0
C545 C 0.36884 0.00865 0.21322 0.0
C546 C 0.36786 0.01506 0.16602 0.0
C547 C 0.38421 0.00527 0.13629 0.0
C548 C 0.38336 0.01145 0.0919 0.0
C549 C 0.36617 0.02733 0.0768 0.0
C550 C 0.34976 0.03705 0.10603 0.0
C551 C 0.35053 0.03092 0.15044 0.0
H552 H 0.36555 0.0321 0.04243 0.0
H553 H 0.36827 0.97168 0.47344 0.0
H554 H 0.90188 0.36942 0.44132 0.0
H555 H 0.94463 0.36373 0.45097 0.0
H556 H 0.93718 0.37573 0.58994 0.0
H557 H 0.89468 0.38166 0.58064 0.0
H558 H 0.9718 0.40237 0.55557 0.0
H559 H 0.94837 0.32062 0.55043 0.0
H560 H 0.92901 0.28531 0.51916 0.0
H561 H 0.97285 0.29052 0.40448 0.0
H562 H 0.99226 0.32608 0.43481 0.0
H563 H 0.08892 0.37499 0.61749 0.0
H564 H 0.04582 0.37155 0.6113 0.0
H565 H 0.05235 0.36069 0.47187 0.0
H566 H 0.0954 0.36381 0.47775 0.0
H567 H 0.01818 0.33229 0.50741 0.0
H568 H 0.04 0.41463 0.50985 0.0
H569 H 0.05929 0.45041 0.5394 0.0
H570 H 0.01806 0.4446 0.65727 0.0
H571 H -0.00124 0.40855 0.62865 0.0
C572 C 0.90933 0.37062 0.47397 0.0
C573 C 0.8949 0.37611 0.51016 0.0
C574 C 0.93372 0.36727 0.47946 0.0
C575 C 0.94403 0.36921 0.52123 0.0
C576 C 0.92958 0.37419 0.55744 0.0
C577 C 0.90527 0.37755 0.55202 0.0
C578 C 0.97004 0.36749 0.52704 0.0
C579 C 0.98188 0.38687 0.54571 0.0
C580 C 0.98324 0.34755 0.51301 0.0
C581 C 0.97161 0.32616 0.49472 0.0
C582 C 0.95374 0.31436 0.51838 0.0
C583 C 0.94279 0.29427 0.50086 0.0
C584 C 0.94965 0.28571 0.45981 0.0
C585 C 0.96753 0.29719 0.43624 0.0
C586 C 0.97853 0.3173 0.45361 0.0
C587 C 0.08122 0.37156 0.5856 0.0
C588 C 0.09556 0.36994 0.54804 0.0
C589 C 0.05659 0.36966 0.58211 0.0
C590 C 0.04592 0.36621 0.54102 0.0
C591 C 0.06025 0.3634 0.50385 0.0
C592 C 0.08485 0.3653 0.50729 0.0
C593 C 0.01981 0.36708 0.53629 0.0
C594 C 0.00801 0.34767 0.51759 0.0
C595 C 0.00659 0.38705 0.55007 0.0
C596 C 0.01814 0.40874 0.56732 0.0
C597 C 0.03519 0.42087 0.54223 0.0
C598 C 0.0461 0.44122 0.55878 0.0
C599 C 0.03996 0.44974 0.60024 0.0
C600 C 0.02283 0.43795 0.62519 0.0
C601 C 0.0119 0.41757 0.60882 0.0
H602 H 0.04841 0.4655 0.61299 0.0
H603 H 0.94116 0.27015 0.4463 0.0
H604 H 0.64693 0.89294 0.76942 0.0
H605 H 0.65153 0.93525 0.78415 0.0
H606 H 0.59485 0.95088 0.69357 0.0
H607 H 0.59051 0.90871 0.67786 0.0
H608 H 0.62717 0.98459 0.68969 0.0
H609 H 0.58356 0.94465 0.80162 0.0
H610 H 0.57626 0.91399 0.85772 0.0
H611 H 0.63626 0.93852 0.93143 0.0
H612 H 0.64416 0.96911 0.87533 0.0
H613 H 0.57985 0.08135 0.84366 0.0
H614 H 0.58603 0.03932 0.82892 0.0
H615 H 0.65244 0.05539 0.76529 0.0
H616 H 0.64606 0.09762 0.77885 0.0
H617 H 0.61662 0.00579 0.84641 0.0
H618 H 0.65779 0.02106 0.67421 0.0
H619 H 0.65771 0.05164 0.6162 0.0
H620 H 0.58984 0.07658 0.66029 0.0
H621 H 0.58932 0.0459 0.71798 0.0
C622 C 0.63578 0.90542 0.75193 0.0
C623 C 0.61811 0.89746 0.72296 0.0
C624 C 0.63838 0.92958 0.7605 0.0
C625 C 0.62317 0.94614 0.7407 0.0
C626 C 0.60671 0.93839 0.70937 0.0
C627 C 0.60422 0.91425 0.70049 0.0
C628 C 0.62293 0.97117 0.75537 0.0
C629 C 0.62511 0.98923 0.72398 0.0
C630 C 0.61943 0.97721 0.79998 0.0
C631 C 0.61462 0.959 0.83403 0.0
C632 C 0.59531 0.9434 0.82963 0.0
C633 C 0.59104 0.92604 0.86144 0.0
C634 C 0.60582 0.92427 0.89806 0.0
C635 C 0.62485 0.93989 0.90299 0.0
C636 C 0.62924 0.95724 0.87121 0.0
C637 C 0.59597 0.07594 0.82717 0.0
C638 C 0.61229 0.09285 0.81182 0.0
C639 C 0.59951 0.05187 0.81885 0.0
C640 C 0.61946 0.04427 0.79523 0.0
C641 C 0.63667 0.06094 0.78277 0.0
C642 C 0.63304 0.08505 0.79071 0.0
C643 C 0.62122 0.01924 0.78081 0.0
C644 C 0.61917 0.00116 0.81222 0.0
C645 C 0.62377 0.01319 0.73598 0.0
C646 C 0.62369 0.03138 0.70076 0.0
C647 C 0.64281 0.03301 0.67138 0.0
C648 C 0.64286 0.05035 0.63855 0.0
C649 C 0.62382 0.06609 0.63467 0.0
C650 C 0.6046 0.06442 0.66341 0.0
C651 C 0.60443 0.04707 0.69618 0.0
H652 H 0.62394 0.07956 0.60936 0.0
H653 H 0.60249 0.91082 0.92266 0.0
H654 H 0.89784 0.6488 0.02696 0.0
H655 H 0.94024 0.65205 0.01158 0.0
H656 H 0.95437 0.59474 0.10171 0.0
H657 H 0.9121 0.5916 0.11785 0.0
H658 H 0.98871 0.62748 0.10586 0.0
H659 H 0.94782 0.58359 0.99463 0.0
H660 H 0.91699 0.57716 0.93855 0.0
H661 H 0.94364 0.63608 0.86415 0.0
H662 H 0.97439 0.64311 0.92024 0.0
H663 H 0.08454 0.57504 0.95586 0.0
H664 H 0.04273 0.58235 0.97114 0.0
H665 H 0.06039 0.65006 0.02801 0.0
H666 H 0.10241 0.64268 0.01364 0.0
H667 H 0.01013 0.61416 0.94995 0.0
H668 H 0.02577 0.65828 0.11857 0.0
H669 H 0.05605 0.659 0.177 0.0
H670 H 0.07964 0.58953 0.13944 0.0
H671 H 0.0493 0.58827 0.08125 0.0
C672 C 0.91 0.63718 0.04417 0.0
C673 C 0.90158 0.61971 0.07318 0.0
C674 C 0.93421 0.63903 0.03523 0.0
C675 C 0.95036 0.62334 0.05489 0.0
C676 C 0.94218 0.60697 0.08607 0.0
C677 C 0.91799 0.60516 0.09516 0.0
C678 C 0.9754 0.62254 0.04035 0.0
C679 C 0.99341 0.62483 0.07173 0.0
C680 C 0.98149 0.61843 0.99595 0.0
C681 C 0.96324 0.61404 0.96186 0.0
C682 C 0.947 0.59528 0.96646 0.0
C683 C 0.92955 0.59151 0.93467 0.0
C684 C 0.92833 0.60624 0.89786 0.0
C685 C 0.94459 0.62471 0.89272 0.0
C686 C 0.96203 0.6286 0.9245 0.0
C687 C 0.07955 0.59164 0.97111 0.0
C688 C 0.09684 0.60814 0.98408 0.0
C689 C 0.0556 0.59582 0.97969 0.0
C690 C 0.04849 0.61657 0.00135 0.0
C691 C 0.06556 0.63374 0.01193 0.0
C692 C 0.08955 0.62953 0.00356 0.0
C693 C 0.02349 0.61936 0.01541 0.0
C694 C 0.00546 0.61731 0.98395 0.0
C695 C 0.01737 0.62289 0.05997 0.0
C696 C 0.03547 0.62334 0.09524 0.0
C697 C 0.03738 0.64314 0.12289 0.0
C698 C 0.05455 0.64364 0.15596 0.0
C699 C 0.06982 0.62436 0.16182 0.0
C700 C 0.06787 0.60449 0.13476 0.0
C701 C 0.05071 0.60389 0.10171 0.0
H702 H 0.08311 0.62479 0.18739 0.0
H703 H 0.9148 0.6033 0.87329 0.0
H704 H 0.52161 0.20177 0.8388 0.0
H705 H 0.50052 0.21035 0.90678 0.0
H706 H 0.56582 0.20296 0.97946 0.0
H707 H 0.58679 0.19334 0.91167 0.0
H708 H 0.53393 0.17938 0.01851 0.0
H709 H 0.53666 0.25814 0.96376 0.0
H710 H 0.53225 0.29067 0.9103 0.0
H711 H 0.45722 0.27825 0.9043 0.0
H712 H 0.46121 0.24541 0.95728 0.0
H713 H 0.47775 0.21466 0.21636 0.0
H714 H 0.50255 0.2205 0.15128 0.0
H715 H 0.4431 0.20355 0.0682 0.0
H716 H 0.4183 0.1972 0.13303 0.0
H717 H 0.47473 0.24358 0.03893 0.0
H718 H 0.47518 0.16095 0.08753 0.0
H719 H 0.48066 0.12995 0.14374 0.0
H720 H 0.55251 0.15267 0.16366 0.0
H721 H 0.54728 0.18409 0.10802 0.0
C722 C 0.53152 0.20225 0.86921 0.0
C723 C 0.55582 0.19678 0.86997 0.0
C724 C 0.51947 0.20734 0.90807 0.0
C725 C 0.53161 0.20761 0.94832 0.0
C726 C 0.55605 0.20284 0.94887 0.0
C727 C 0.56802 0.19735 0.91011 0.0
C728 C 0.51844 0.21087 0.99006 0.0
C729 C 0.5214 0.19377 0.02315 0.0
C730 C 0.50179 0.22942 0.99619 0.0
C731 C 0.49927 0.24917 0.96428 0.0
C732 C 0.51924 0.26222 0.9508 0.0
C733 C 0.51681 0.28074 0.92062 0.0
C734 C 0.49448 0.28649 0.90384 0.0
C735 C 0.47452 0.27376 0.9173 0.0
C736 C 0.47685 0.25521 0.94746 0.0
C737 C 0.46984 0.21262 0.18422 0.0
C738 C 0.44617 0.20526 0.17969 0.0
C739 C 0.48401 0.21598 0.14717 0.0
C740 C 0.47459 0.2124 0.10515 0.0
C741 C 0.45059 0.20649 0.10045 0.0
C742 C 0.43653 0.20271 0.13746 0.0
C743 C 0.49027 0.21207 0.06643 0.0
C744 C 0.48765 0.22956 0.03412 0.0
C745 C 0.50751 0.19412 0.06114 0.0
C746 C 0.51075 0.17503 0.09405 0.0
C747 C 0.49207 0.15946 0.10418 0.0
C748 C 0.49515 0.1418 0.13588 0.0
C749 C 0.5169 0.13939 0.15736 0.0
C750 C 0.53565 0.15459 0.14706 0.0
C751 C 0.53265 0.17232 0.11545 0.0
H752 H 0.51925 0.12571 0.1819 0.0
H753 H 0.49264 0.30084 0.88048 0.0
H754 H 0.81339 0.5233 0.09942 0.0
H755 H 0.80529 0.49994 0.16501 0.0
H756 H 0.79063 0.56407 0.2372 0.0
H757 H 0.7996 0.58763 0.17193 0.0
H758 H 0.81797 0.53762 0.2832 0.0
H759 H 0.74597 0.52377 0.20685 0.0
H760 H 0.72006 0.51313 0.14484 0.0
H761 H 0.7494 0.44287 0.14341 0.0
H762 H 0.77575 0.45317 0.20504 0.0
H763 H 0.7777 0.47314 0.46927 0.0
H764 H 0.77443 0.49732 0.40284 0.0
H765 H 0.80888 0.44231 0.32826 0.0
H766 H 0.81258 0.4181 0.39467 0.0
H767 H 0.7675 0.4656 0.28617 0.0
H768 H 0.84222 0.48289 0.35941 0.0
H769 H 0.86615 0.49437 0.42361 0.0
H770 H 0.82809 0.56016 0.43249 0.0
H771 H 0.80366 0.54887 0.3687 0.0
C772 C 0.80824 0.53243 0.12914 0.0
C773 C 0.8072 0.55731 0.13056 0.0
C774 C 0.80344 0.51903 0.16659 0.0
C775 C 0.79702 0.5302 0.20597 0.0
C776 C 0.79553 0.55505 0.2072 0.0
C777 C 0.80065 0.56849 0.16989 0.0
C778 C 0.79346 0.51602 0.24647 0.0
C779 C 0.80653 0.52217 0.28395 0.0
C780 C 0.7788 0.49563 0.24749 0.0
C781 C 0.76299 0.48932 0.21037 0.0
C782 C 0.74704 0.5061 0.1931 0.0
C783 C 0.73225 0.50012 0.15805 0.0
C784 C 0.73312 0.47736 0.14013 0.0
C785 C 0.74876 0.46051 0.1573 0.0
C786 C 0.76361 0.4664 0.19233 0.0
C787 C 0.7843 0.46605 0.43863 0.0
C788 C 0.79558 0.44382 0.43718 0.0
C789 C 0.78241 0.47987 0.40079 0.0
C790 C 0.79149 0.47156 0.36088 0.0
C791 C 0.80172 0.44893 0.35884 0.0
C792 C 0.80394 0.43523 0.3968 0.0
C793 C 0.79213 0.48722 0.32209 0.0
C794 C 0.77861 0.48128 0.28517 0.0
C795 C 0.80607 0.50801 0.32167 0.0
C796 C 0.82095 0.51492 0.35964 0.0
C797 C 0.83882 0.49971 0.3753 0.0
C798 C 0.8525 0.5062 0.41156 0.0
C799 C 0.8486 0.52796 0.43221 0.0
C800 C 0.83106 0.5433 0.41652 0.0
C801 C 0.81731 0.53687 0.3803 0.0
H802 H 0.8592 0.53295 0.46029 0.0
H803 H 0.72165 0.47277 0.113 0.0
H804 H 0.52078 0.79738 0.69655 0.0
H805 H 0.49877 0.79222 0.62843 0.0
H806 H 0.56395 0.79704 0.55482 0.0
H807 H 0.58602 0.803 0.62289 0.0
H808 H 0.53263 0.82479 0.52036 0.0
H809 H 0.53216 0.74394 0.5655 0.0
H810 H 0.52634 0.71008 0.61553 0.0
H811 H 0.45207 0.72618 0.62428 0.0
H812 H 0.4575 0.76037 0.57478 0.0
H813 H 0.47767 0.7976 0.31819 0.0
H814 H 0.50178 0.79137 0.3838 0.0
H815 H 0.44018 0.80205 0.46515 0.0
H816 H 0.41587 0.8085 0.39965 0.0
H817 H 0.47118 0.76371 0.49268 0.0
H818 H 0.47362 0.84671 0.45191 0.0
H819 H 0.48008 0.87988 0.40054 0.0
H820 H 0.55235 0.85796 0.38234 0.0
H821 H 0.54618 0.82442 0.43314 0.0
C822 C 0.53049 0.79705 0.66592 0.0
C823 C 0.55513 0.80071 0.66507 0.0
C824 C 0.51788 0.79394 0.62697 0.0
C825 C 0.52972 0.794 0.58647 0.0
C826 C 0.55444 0.79694 0.58568 0.0
C827 C 0.56703 0.80032 0.6246 0.0
C828 C 0.5161 0.79295 0.54489 0.0
C829 C 0.51956 0.81111 0.51403 0.0
C830 C 0.49865 0.77542 0.5369 0.0
C831 C 0.49529 0.75486 0.56668 0.0
C832 C 0.51462 0.74039 0.57836 0.0
C833 C 0.51138 0.72111 0.60658 0.0
C834 C 0.48886 0.71601 0.62315 0.0
C835 C 0.46951 0.73016 0.61145 0.0
C836 C 0.47265 0.74948 0.58326 0.0
C837 C 0.46916 0.79834 0.34998 0.0
C838 C 0.44491 0.80377 0.35378 0.0
C839 C 0.48297 0.79478 0.38739 0.0
C840 C 0.47274 0.79641 0.42917 0.0
C841 C 0.44834 0.8007 0.43309 0.0
C842 C 0.43453 0.8045 0.39569 0.0
C843 C 0.48782 0.7955 0.46874 0.0
C844 C 0.48452 0.77711 0.49909 0.0
C845 C 0.50559 0.81267 0.4762 0.0
C846 C 0.50936 0.83291 0.44591 0.0
C847 C 0.49082 0.84884 0.43665 0.0
C848 C 0.49444 0.86773 0.4077 0.0
C849 C 0.51659 0.87098 0.38808 0.0
C850 C 0.53519 0.85539 0.39749 0.0
C851 C 0.53164 0.83645 0.42638 0.0
H852 H 0.51936 0.88562 0.36568 0.0
H853 H 0.48639 0.70108 0.64499 0.0
H854 H 0.17821 0.5797 0.86525 0.0
H855 H 0.18096 0.55451 0.80045 0.0
H856 H 0.22793 0.5071 0.86978 0.0
H857 H 0.22571 0.53251 0.93456 0.0
H858 H 0.24109 0.51135 0.78521 0.0
H859 H 0.16972 0.49492 0.86448 0.0
H860 H 0.13216 0.50497 0.90144 0.0
H861 H 0.10403 0.53188 0.78036 0.0
H862 H 0.14159 0.52233 0.74282 0.0
H863 H 0.17382 0.41393 0.64967 0.0
H864 H 0.17909 0.43841 0.71484 0.0
H865 H 0.2203 0.48839 0.63946 0.0
H866 H 0.21565 0.46362 0.57434 0.0
H867 H 0.1641 0.48089 0.73037 0.0
H868 H 0.25967 0.51681 0.70572 0.0
H869 H 0.29775 0.5037 0.67417 0.0
H870 H 0.27819 0.43099 0.69484 0.0
H871 H 0.24015 0.44366 0.72704 0.0
C872 C 0.18938 0.56409 0.86657 0.0
C873 C 0.20151 0.55793 0.90521 0.0
C874 C 0.1909 0.54969 0.82953 0.0
C875 C 0.20429 0.52872 0.83062 0.0
C876 C 0.21744 0.52318 0.86832 0.0
C877 C 0.21608 0.53768 0.90534 0.0
C878 C 0.20319 0.51178 0.79361 0.0
C879 C 0.22429 0.5047 0.77308 0.0
C880 C 0.18128 0.50265 0.77862 0.0
C881 C 0.15854 0.50811 0.80094 0.0
C882 C 0.15558 0.50312 0.8458 0.0
C883 C 0.13428 0.50871 0.86685 0.0
C884 C 0.11574 0.51911 0.84328 0.0
C885 C 0.11842 0.52386 0.79858 0.0
C886 C 0.1397 0.51835 0.77739 0.0
C887 C 0.18418 0.43003 0.64702 0.0
C888 C 0.1943 0.43686 0.60684 0.0
C889 C 0.18714 0.44403 0.68429 0.0
C890 C 0.20021 0.46517 0.68215 0.0
C891 C 0.2105 0.47194 0.64213 0.0
C892 C 0.20772 0.45783 0.60487 0.0
C893 C 0.20201 0.48064 0.72128 0.0
C894 C 0.18096 0.4875 0.7423 0.0
C895 C 0.22402 0.48903 0.73734 0.0
C896 C 0.24695 0.48121 0.71838 0.0
C897 C 0.26353 0.49803 0.70367 0.0
C898 C 0.28511 0.49067 0.68565 0.0
C899 C 0.29035 0.46652 0.68237 0.0
C900 C 0.27407 0.44968 0.69723 0.0
C901 C 0.25248 0.45695 0.71531 0.0
H902 H 0.30706 0.46087 0.66839 0.0
H903 H 0.09927 0.52344 0.85964 0.0
loop_
_geom_bond_atom_site_label_1
_geom_bond_atom_site_label_2
_geom_bond_distance
_geom_bond_site_symmetry_2
_ccdc_geom_bond_type
C0 O1 1.160 . S
C0 O7 1.185 . S
O1 C0 1.160 . S
O2 Zn3 1.899 . S
O2 C10 1.284 . S
Zn3 O2 1.899 . S
Zn3 O4 2.032 . S
Zn3 O7 2.086 . S
Zn3 O12 1.977 . S
O4 Zn3 2.032 . S
O4 C8 1.278 . S
C5 O6 1.203 . S
C5 O12 1.267 . S
O6 C5 1.203 . S
O7 C0 1.185 . S
O7 Zn3 2.086 . S
C8 O4 1.278 . S
C8 O9 1.211 . S
O9 C8 1.211 . S
C10 O2 1.284 . S
C10 O11 1.273 . S
O11 C10 1.273 . S
O12 Zn3 1.977 . S
O12 C5 1.267 . S
C13 O14 1.160 . S
C13 O20 1.185 . S
O14 C13 1.160 . S
O15 Zn16 1.899 . S
O15 C23 1.284 . S
Zn16 O15 1.899 . S
Zn16 O17 2.032 . S
Zn16 O20 2.086 . S
Zn16 O25 1.977 . S
O17 Zn16 2.032 . S
O17 C21 1.278 . S
C18 O19 1.203 . S
C18 O25 1.267 . S
O19 C18 1.203 . S
O20 C13 1.185 . S
O20 Zn16 2.086 . S
C21 O17 1.278 . S
C21 O22 1.211 . S
O22 C21 1.211 . S
C23 O15 1.284 . S
C23 O24 1.273 . S
O24 C23 1.273 . S
O25 Zn16 1.977 . S
O25 C18 1.267 . S
C26 O27 1.160 . S
C26 O33 1.185 . S
O27 C26 1.160 . S
O28 Zn29 1.899 . S
O28 C36 1.284 . S
Zn29 O28 1.899 . S
Zn29 O30 2.032 . S
Zn29 O33 2.086 . S
Zn29 O38 1.977 . S
O30 Zn29 2.032 . S
O30 C34 1.278 . S
C31 O32 1.203 . S
C31 O38 1.267 . S
O32 C31 1.203 . S
O33 C26 1.185 . S
O33 Zn29 2.086 . S
C34 O30 1.278 . S
C34 O35 1.211 . S
O35 C34 1.211 . S
C36 O28 1.284 . S
C36 O37 1.273 . S
O37 C36 1.273 . S
O38 Zn29 1.977 . S
O38 C31 1.267 . S
C39 O40 1.160 . S
C39 O46 1.185 . S
O40 C39 1.160 . S
O41 Zn42 1.899 1_556 S
O41 C49 1.284 . S
Zn42 O41 1.899 1_554 S
Zn42 O43 2.032 . S
Zn42 O46 2.086 . S
Zn42 O51 1.977 . S
O43 Zn42 2.032 . S
O43 C47 1.278 . S
C44 O45 1.209 . S
C44 O51 1.267 . S
O45 C44 1.209 . S
O46 C39 1.185 . S
O46 Zn42 2.086 . S
C47 O43 1.278 . S
C47 O48 1.211 . S
O48 C47 1.211 . S
C49 O41 1.284 . S
C49 O50 1.273 . S
O50 C49 1.273 . S
O51 Zn42 1.977 . S
O51 C44 1.267 . S
C52 O53 1.160 . S
C52 O59 1.185 . S
O53 C52 1.160 . S
O54 Zn55 1.899 . S
O54 C62 1.284 . S
Zn55 O54 1.899 . S
Zn55 O56 2.032 . S
Zn55 O59 2.086 . S
Zn55 O64 1.977 . S
O56 Zn55 2.032 . S
O56 C60 1.278 . S
C57 O58 1.203 . S
C57 O64 1.267 . S
O58 C57 1.203 . S
O59 C52 1.185 . S
O59 Zn55 2.086 . S
C60 O56 1.278 . S
C60 O61 1.211 . S
O61 C60 1.211 . S
C62 O54 1.284 . S
C62 O63 1.273 . S
O63 C62 1.273 . S
O64 Zn55 1.977 . S
O64 C57 1.267 . S
C65 O66 1.160 . S
C65 O72 1.185 . S
O66 C65 1.160 . S
O67 Zn68 1.899 . S
O67 C75 1.284 . S
Zn68 O67 1.899 . S
Zn68 O69 2.032 . S
Zn68 O72 2.086 . S
Zn68 O77 1.977 . S
O69 Zn68 2.032 . S
O69 C73 1.278 . S
C70 O71 1.203 . S
C70 O77 1.267 . S
O71 C70 1.203 . S
O72 C65 1.185 . S
O72 Zn68 2.086 . S
C73 O69 1.278 . S
C73 O74 1.211 . S
O74 C73 1.211 . S
C75 O67 1.284 . S
C75 O76 1.273 . S
O76 C75 1.273 . S
O77 Zn68 1.977 . S
O77 C70 1.267 . S
C78 O79 1.160 . S
C78 O85 1.185 . S
O79 C78 1.160 . S
O80 Zn81 1.899 . S
O80 C88 1.284 . S
Zn81 O80 1.899 . S
Zn81 O82 2.032 . S
Zn81 O85 2.086 . S
Zn81 O90 1.977 . S
O82 Zn81 2.032 . S
O82 C86 1.278 . S
C83 O84 1.203 . S
C83 O90 1.267 . S
O84 C83 1.203 . S
O85 C78 1.185 . S
O85 Zn81 2.086 . S
C86 O82 1.278 . S
C86 O87 1.211 . S
O87 C86 1.211 . S
C88 O80 1.284 . S
C88 O89 1.273 . S
O89 C88 1.273 . S
O90 Zn81 1.977 . S
O90 C83 1.267 . S
C91 O92 1.160 . S
C91 O98 1.185 1_554 S
O92 C91 1.160 . S
O93 Zn94 1.899 . S
O93 C101 1.284 . S
Zn94 O93 1.899 . S
Zn94 O95 2.032 1_554 S
Zn94 O98 2.086 1_554 S
Zn94 O103 1.977 . S
O95 Zn94 2.032 1_556 S
O95 C99 1.278 . S
C96 O97 1.203 . S
C96 O103 1.267 . S
O97 C96 1.203 . S
O98 C91 1.185 1_556 S
O98 Zn94 2.086 1_556 S
C99 O95 1.278 . S
C99 O100 1.211 . S
O100 C99 1.211 . S
C101 O93 1.284 . S
C101 O102 1.273 . S
O102 C101 1.273 . S
O103 Zn94 1.977 . S
O103 C96 1.267 . S
H104 C122 0.951 . S
H105 C124 0.951 . S
H106 C126 0.950 . S
H107 C127 0.950 . S
H108 C129 0.950 . S
H109 C132 0.950 . S
H110 C133 0.950 . S
H111 C135 0.950 . S
H112 C136 0.950 . S
H113 C137 0.951 . S
H114 C139 0.951 . S
H115 C141 0.950 . S
H116 C142 0.950 . S
H117 C144 0.950 . S
H118 C147 0.950 . S
H119 C148 0.950 . S
H120 C150 0.950 . S
H121 C151 0.950 . S
C122 H104 0.951 . S
C122 C123 1.366 . S
C122 C124 1.388 . S
C123 C122 1.366 . S
C123 C127 1.385 . S
C124 H105 0.951 . S
C124 C122 1.388 . S
C124 C125 1.366 . S
C125 C124 1.366 . S
C125 C126 1.414 . S
C125 C128 1.499 . S
C126 H106 0.950 . S
C126 C125 1.414 . S
C126 C127 1.374 . S
C127 H107 0.950 . S
C127 C123 1.385 . S
C127 C126 1.374 . S
C128 C125 1.499 . S
C128 C129 1.373 . S
C128 C130 1.389 . S
C129 H108 0.950 . S
C129 C128 1.373 . S
C129 C145 1.377 . S
C130 C128 1.389 . S
C130 C131 1.524 . S
C130 C144 1.377 . S
C131 C130 1.524 . S
C131 C132 1.397 . S
C131 C136 1.363 . S
C132 H109 0.950 . S
C132 C131 1.397 . S
C132 C133 1.334 . S
C133 H110 0.950 . S
C133 C132 1.334 . S
C133 C134 1.287 . S
C134 C133 1.287 . S
C134 C135 1.524 . S
C134 H153 0.913 . S
C135 H111 0.950 . S
C135 C134 1.524 . S
C135 C136 1.415 . S
C136 H112 0.950 . S
C136 C131 1.363 . S
C136 C135 1.415 . S
C137 H113 0.951 . S
C137 C138 1.366 . S
C137 C139 1.388 . S
C138 C137 1.366 . S
C138 C142 1.385 . S
C139 H114 0.951 . S
C139 C137 1.388 . S
C139 C140 1.366 . S
C140 C139 1.366 . S
C140 C141 1.414 . S
C140 C143 1.499 . S
C141 H115 0.950 . S
C141 C140 1.414 . S
C141 C142 1.374 . S
C142 H116 0.950 . S
C142 C138 1.385 . S
C142 C141 1.374 . S
C143 C140 1.499 . S
C143 C144 1.373 . S
C143 C145 1.389 . S
C144 H117 0.950 . S
C144 C130 1.377 . S
C144 C143 1.373 . S
C145 C129 1.377 . S
C145 C143 1.389 . S
C145 C146 1.524 . S
C146 C145 1.524 . S
C146 C147 1.397 . S
C146 C151 1.363 . S
C147 H118 0.950 . S
C147 C146 1.397 . S
C147 C148 1.334 . S
C148 H119 0.950 . S
C148 C147 1.334 . S
C148 C149 1.287 . S
C149 C148 1.287 . S
C149 C150 1.524 . S
C149 H152 0.999 . S
C150 H120 0.950 . S
C150 C149 1.524 . S
C150 C151 1.415 . S
C151 H121 0.950 . S
C151 C146 1.363 . S
C151 C150 1.415 . S
H152 C149 0.999 . S
H153 C134 0.913 . S
H154 C172 0.951 . S
H155 C174 0.951 . S
H156 C176 0.950 . S
H157 C177 0.950 . S
H158 C179 0.950 . S
H159 C182 0.950 . S
H160 C183 0.950 . S
H161 C185 0.950 . S
H162 C186 0.950 . S
H163 C187 0.951 . S
H164 C189 0.951 . S
H165 C191 0.950 . S
H166 C192 0.950 . S
H167 C194 0.950 . S
H168 C197 0.950 . S
H169 C198 0.950 . S
H170 C200 0.950 . S
H171 C201 0.950 . S
C172 H154 0.951 . S
C172 C173 1.366 . S
C172 C174 1.388 . S
C173 C172 1.366 . S
C173 C177 1.385 . S
C174 H155 0.951 . S
C174 C172 1.388 . S
C174 C175 1.366 . S
C175 C174 1.366 . S
C175 C176 1.414 . S
C175 C178 1.499 . S
C176 H156 0.950 . S
C176 C175 1.414 . S
C176 C177 1.374 . S
C177 H157 0.950 . S
C177 C173 1.385 . S
C177 C176 1.374 . S
C178 C175 1.499 . S
C178 C179 1.373 . S
C178 C180 1.389 . S
C179 H158 0.950 . S
C179 C178 1.373 . S
C179 C195 1.377 . S
C180 C178 1.389 . S
C180 C181 1.524 . S
C180 C194 1.377 . S
C181 C180 1.524 . S
C181 C182 1.397 . S
C181 C186 1.363 . S
C182 H159 0.950 . S
C182 C181 1.397 . S
C182 C183 1.334 . S
C183 H160 0.950 . S
C183 C182 1.334 . S
C183 C184 1.287 . S
C184 C183 1.287 . S
C184 C185 1.524 . S
C184 H203 0.913 . S
C185 H161 0.950 . S
C185 C184 1.524 . S
C185 C186 1.415 . S
C186 H162 0.950 . S
C186 C181 1.363 . S
C186 C185 1.415 . S
C187 H163 0.951 . S
C187 C188 1.366 . S
C187 C189 1.388 . S
C188 C187 1.366 . S
C188 C192 1.385 . S
C189 H164 0.951 . S
C189 C187 1.388 . S
C189 C190 1.366 . S
C190 C189 1.366 . S
C190 C191 1.414 . S
C190 C193 1.499 . S
C191 H165 0.950 . S
C191 C190 1.414 . S
C191 C192 1.374 . S
C192 H166 0.950 . S
C192 C188 1.385 . S
C192 C191 1.374 . S
C193 C190 1.499 . S
C193 C194 1.373 . S
C193 C195 1.389 . S
C194 H167 0.950 . S
C194 C180 1.377 . S
C194 C193 1.373 . S
C195 C179 1.377 . S
C195 C193 1.389 . S
C195 C196 1.524 . S
C196 C195 1.524 . S
C196 C197 1.397 . S
C196 C201 1.363 . S
C197 H168 0.950 . S
C197 C196 1.397 . S
C197 C198 1.334 . S
C198 H169 0.950 . S
C198 C197 1.334 . S
C198 C199 1.287 . S
C199 C198 1.287 . S
C199 C200 1.524 . S
C199 H202 0.999 . S
C200 H170 0.950 . S
C200 C199 1.524 . S
C200 C201 1.415 . S
C201 H171 0.950 . S
C201 C196 1.363 . S
C201 C200 1.415 . S
H202 C199 0.999 . S
H203 C184 0.913 . S
H204 C222 0.951 . S
H205 C224 0.951 . S
H206 C226 0.950 . S
H207 C227 0.950 . S
H208 C229 0.950 . S
H209 C232 0.950 . S
H210 C233 0.950 . S
H211 C235 0.950 . S
H212 C236 0.950 . S
H213 C237 0.951 . S
H214 C239 0.951 . S
H215 C241 0.950 . S
H216 C242 0.950 . S
H217 C244 0.950 . S
H218 C247 0.950 . S
H219 C248 0.950 . S
H220 C250 0.950 . S
H221 C251 0.950 . S
C222 H204 0.951 . S
C222 C223 1.366 . S
C222 C224 1.388 . S
C223 C222 1.366 . S
C223 C227 1.385 . S
C224 H205 0.951 . S
C224 C222 1.388 . S
C224 C225 1.366 . S
C225 C224 1.366 . S
C225 C226 1.414 . S
C225 C228 1.499 . S
C226 H206 0.950 . S
C226 C225 1.414 . S
C226 C227 1.374 . S
C227 H207 0.950 . S
C227 C223 1.385 . S
C227 C226 1.374 . S
C228 C225 1.499 . S
C228 C229 1.373 . S
C228 C230 1.389 . S
C229 H208 0.950 . S
C229 C228 1.373 . S
C229 C245 1.377 . S
C230 C228 1.389 . S
C230 C231 1.524 . S
C230 C244 1.377 1_554 S
C231 C230 1.524 . S
C231 C232 1.397 . S
C231 C236 1.363 1_554 S
C232 H209 0.950 . S
C232 C231 1.397 . S
C232 C233 1.334 . S
C233 H210 0.950 . S
C233 C232 1.334 . S
C233 C234 1.287 1_554 S
C234 C233 1.287 1_556 S
C234 C235 1.524 . S
C234 H253 0.913 . S
C235 H211 0.950 . S
C235 C234 1.524 . S
C235 C236 1.415 . S
C236 H212 0.950 . S
C236 C231 1.363 1_556 S
C236 C235 1.415 . S
C237 H213 0.951 . S
C237 C238 1.366 . S
C237 C239 1.388 . S
C238 C237 1.366 . S
C238 C242 1.385 . S
C239 H214 0.951 . S
C239 C237 1.388 . S
C239 C240 1.366 . S
C240 C239 1.366 . S
C240 C241 1.414 . S
C240 C243 1.499 . S
C241 H215 0.950 . S
C241 C240 1.414 . S
C241 C242 1.374 . S
C242 H216 0.950 . S
C242 C238 1.385 . S
C242 C241 1.374 . S
C243 C240 1.499 . S
C243 C244 1.373 . S
C243 C245 1.389 1_556 S
C244 H217 0.950 . S
C244 C230 1.377 1_556 S
C244 C243 1.373 . S
C245 C229 1.377 . S
C245 C243 1.389 1_554 S
C245 C246 1.524 . S
C246 C245 1.524 . S
C246 C247 1.397 . S
C246 C251 1.363 . S
C247 H218 0.950 . S
C247 C246 1.397 . S
C247 C248 1.334 . S
C248 H219 0.950 . S
C248 C247 1.334 . S
C248 C249 1.287 . S
C249 C248 1.287 . S
C249 C250 1.524 . S
C249 H252 0.999 . S
C250 H220 0.950 . S
C250 C249 1.524 . S
C250 C251 1.415 . S
C251 H221 0.950 . S
C251 C246 1.363 . S
C251 C250 1.415 . S
H252 C249 0.999 . S
H253 C234 0.913 . S
H254 C272 0.951 . S
H255 C274 0.951 . S
H256 C276 0.950 . S
H257 C277 0.950 . S
H258 C279 0.950 . S
H259 C282 0.950 . S
H260 C283 0.950 . S
H261 C285 0.950 . S
H262 C286 0.950 . S
H263 C287 0.951 . S
H264 C289 0.951 . S
H265 C291 0.950 . S
H266 C292 0.950 . S
H267 C294 0.950 . S
H268 C297 0.950 . S
H269 C298 0.950 . S
H270 C300 0.950 . S
H271 C301 0.950 . S
C272 H254 0.951 . S
C272 C273 1.366 . S
C272 C274 1.388 . S
C273 C272 1.366 . S
C273 C277 1.385 . S
C274 H255 0.951 . S
C274 C272 1.388 . S
C274 C275 1.366 . S
C275 C274 1.366 . S
C275 C276 1.414 . S
C275 C278 1.499 . S
C276 H256 0.950 . S
C276 C275 1.414 . S
C276 C277 1.374 . S
C277 H257 0.950 . S
C277 C273 1.385 . S
C277 C276 1.374 . S
C278 C275 1.499 . S
C278 C279 1.373 . S
C278 C280 1.389 . S
C279 H258 0.950 . S
C279 C278 1.373 . S
C279 C295 1.377 . S
C280 C278 1.389 . S
C280 C281 1.524 . S
C280 C294 1.377 . S
C281 C280 1.524 . S
C281 C282 1.397 . S
C281 C286 1.363 . S
C282 H259 0.950 . S
C282 C281 1.397 . S
C282 C283 1.334 . S
C283 H260 0.950 . S
C283 C282 1.334 . S
C283 C284 1.287 . S
C284 C283 1.287 . S
C284 C285 1.524 . S
C284 H303 0.913 . S
C285 H261 0.950 . S
C285 C284 1.524 . S
C285 C286 1.415 . S
C286 H262 0.950 . S
C286 C281 1.363 . S
C286 C285 1.415 . S
C287 H263 0.951 . S
C287 C288 1.366 . S
C287 C289 1.388 . S
C288 C287 1.366 . S
C288 C292 1.385 . S
C289 H264 0.951 . S
C289 C287 1.388 . S
C289 C290 1.366 . S
C290 C289 1.366 . S
C290 C291 1.414 . S
C290 C293 1.499 . S
C291 H265 0.950 . S
C291 C290 1.414 . S
C291 C292 1.374 . S
C292 H266 0.950 . S
C292 C288 1.385 . S
C292 C291 1.374 . S
C293 C290 1.499 . S
C293 C294 1.373 . S
C293 C295 1.389 . S
C294 H267 0.950 . S
C294 C280 1.377 . S
C294 C293 1.373 . S
C295 C279 1.377 . S
C295 C293 1.389 . S
C295 C296 1.524 . S
C296 C295 1.524 . S
C296 C297 1.397 . S
C296 C301 1.363 . S
C297 H268 0.950 . S
C297 C296 1.397 . S
C297 C298 1.334 . S
C298 H269 0.950 . S
C298 C297 1.334 . S
C298 C299 1.287 . S
C299 C298 1.287 . S
C299 C300 1.524 . S
C299 H302 0.999 . S
C300 H270 0.950 . S
C300 C299 1.524 . S
C300 C301 1.415 . S
C301 H271 0.950 . S
C301 C296 1.363 . S
C301 C300 1.415 . S
H302 C299 0.999 . S
H303 C284 0.913 . S
H304 C322 0.951 . S
H305 C324 0.951 . S
H306 C326 0.950 . S
H307 C327 0.950 . S
H308 C329 0.950 . S
H309 C332 0.950 . S
H310 C333 0.950 . S
H311 C335 0.950 . S
H312 C336 0.950 . S
H313 C337 0.951 . S
H314 C339 0.951 . S
H315 C341 0.950 . S
H316 C342 0.950 . S
H317 C344 0.950 . S
H318 C347 0.950 . S
H319 C348 0.950 . S
H320 C350 0.950 . S
H321 C351 0.950 . S
C322 H304 0.951 . S
C322 C323 1.366 . S
C322 C324 1.388 . S
C323 C322 1.366 . S
C323 C327 1.385 . S
C324 H305 0.951 . S
C324 C322 1.388 . S
C324 C325 1.366 . S
C325 C324 1.366 . S
C325 C326 1.414 . S
C325 C328 1.499 . S
C326 H306 0.950 . S
C326 C325 1.414 . S
C326 C327 1.374 . S
C327 H307 0.950 . S
C327 C323 1.385 . S
C327 C326 1.374 . S
C328 C325 1.499 . S
C328 C329 1.373 . S
C328 C330 1.389 . S
C329 H308 0.950 . S
C329 C328 1.373 . S
C329 C345 1.377 . S
C330 C328 1.389 . S
C330 C331 1.524 . S
C330 C344 1.377 . S
C331 C330 1.524 . S
C331 C332 1.397 . S
C331 C336 1.363 . S
C332 H309 0.950 . S
C332 C331 1.397 . S
C332 C333 1.334 . S
C333 H310 0.950 . S
C333 C332 1.334 . S
C333 C334 1.287 . S
C334 C333 1.287 . S
C334 C335 1.524 . S
C334 H353 0.913 . S
C335 H311 0.950 . S
C335 C334 1.524 . S
C335 C336 1.415 . S
C336 H312 0.950 . S
C336 C331 1.363 . S
C336 C335 1.415 . S
C337 H313 0.951 . S
C337 C338 1.366 . S
C337 C339 1.388 . S
C338 C337 1.366 . S
C338 C342 1.385 . S
C339 H314 0.951 . S
C339 C337 1.388 . S
C339 C340 1.366 . S
C340 C339 1.366 . S
C340 C341 1.414 . S
C340 C343 1.499 . S
C341 H315 0.950 . S
C341 C340 1.414 . S
C341 C342 1.374 . S
C342 H316 0.950 . S
C342 C338 1.385 . S
C342 C341 1.374 . S
C343 C340 1.499 . S
C343 C344 1.373 . S
C343 C345 1.389 . S
C344 H317 0.950 . S
C344 C330 1.377 . S
C344 C343 1.373 . S
C345 C329 1.377 . S
C345 C343 1.389 . S
C345 C346 1.524 . S
C346 C345 1.524 . S
C346 C347 1.397 . S
C346 C351 1.363 . S
C347 H318 0.950 . S
C347 C346 1.397 . S
C347 C348 1.334 . S
C348 H319 0.950 . S
C348 C347 1.334 . S
C348 C349 1.287 . S
C349 C348 1.287 . S
C349 C350 1.524 . S
C349 H352 0.999 . S
C350 H320 0.950 . S
C350 C349 1.524 . S
C350 C351 1.415 . S
C351 H321 0.950 . S
C351 C346 1.363 . S
C351 C350 1.415 . S
H352 C349 0.999 . S
H353 C334 0.913 . S
H354 C372 0.951 . S
H355 C374 0.951 . S
H356 C376 0.950 . S
H357 C377 0.950 . S
H358 C379 0.950 . S
H359 C382 0.950 . S
H360 C383 0.950 . S
H361 C385 0.950 . S
H362 C386 0.950 . S
H363 C387 0.951 . S
H364 C389 0.951 . S
H365 C391 0.950 . S
H366 C392 0.950 . S
H367 C394 0.950 . S
H368 C397 0.950 . S
H369 C398 0.950 . S
H370 C400 0.950 . S
H371 C401 0.950 . S
C372 H354 0.951 . S
C372 C373 1.366 . S
C372 C374 1.388 . S
C373 C372 1.366 . S
C373 C377 1.385 . S
C374 H355 0.951 . S
C374 C372 1.388 . S
C374 C375 1.366 . S
C375 C374 1.366 . S
C375 C376 1.414 . S
C375 C378 1.499 . S
C376 H356 0.950 . S
C376 C375 1.414 . S
C376 C377 1.374 . S
C377 H357 0.950 . S
C377 C373 1.385 . S
C377 C376 1.374 . S
C378 C375 1.499 . S
C378 C379 1.373 . S
C378 C380 1.389 . S
C379 H358 0.950 . S
C379 C378 1.373 . S
C379 C395 1.377 . S
C380 C378 1.389 . S
C380 C381 1.524 . S
C380 C394 1.377 . S
C381 C380 1.524 . S
C381 C382 1.397 . S
C381 C386 1.363 . S
C382 H359 0.950 . S
C382 C381 1.397 . S
C382 C383 1.334 . S
C383 H360 0.950 . S
C383 C382 1.334 . S
C383 C384 1.287 . S
C384 C383 1.287 . S
C384 C385 1.524 . S
C384 H403 0.913 . S
C385 H361 0.950 . S
C385 C384 1.524 . S
C385 C386 1.415 . S
C386 H362 0.950 . S
C386 C381 1.363 . S
C386 C385 1.415 . S
C387 H363 0.951 . S
C387 C388 1.366 . S
C387 C389 1.388 . S
C388 C387 1.366 . S
C388 C392 1.385 . S
C389 H364 0.951 . S
C389 C387 1.388 . S
C389 C390 1.366 . S
C390 C389 1.366 . S
C390 C391 1.414 . S
C390 C393 1.499 . S
C391 H365 0.950 . S
C391 C390 1.414 . S
C391 C392 1.374 . S
C392 H366 0.950 . S
C392 C388 1.385 . S
C392 C391 1.374 . S
C393 C390 1.499 . S
C393 C394 1.373 . S
C393 C395 1.389 . S
C394 H367 0.950 . S
C394 C380 1.377 . S
C394 C393 1.373 . S
C395 C379 1.377 . S
C395 C393 1.389 . S
C395 C396 1.524 . S
C396 C395 1.524 . S
C396 C397 1.397 . S
C396 C401 1.363 . S
C397 H368 0.950 . S
C397 C396 1.397 . S
C397 C398 1.334 . S
C398 H369 0.950 . S
C398 C397 1.334 . S
C398 C399 1.287 . S
C399 C398 1.287 . S
C399 C400 1.524 . S
C399 H402 0.999 . S
C400 H370 0.950 . S
C400 C399 1.524 . S
C400 C401 1.415 . S
C401 H371 0.950 . S
C401 C396 1.363 . S
C401 C400 1.415 . S
H402 C399 0.999 . S
H403 C384 0.913 . S
H404 C422 0.933 1_554 S
H405 C424 0.951 . S
H406 C426 0.950 . S
H407 C427 0.950 . S
H408 C429 0.950 . S
H409 C432 0.950 . S
H410 C433 0.950 . S
H411 C435 0.950 . S
H412 C436 0.950 . S
H413 C437 0.951 . S
H414 C439 0.951 . S
H415 C441 0.950 . S
H416 C442 0.950 . S
H417 C444 0.950 . S
H418 C447 0.950 . S
H419 C448 0.950 . S
H420 C450 0.950 . S
H421 C451 0.950 . S
C422 H404 0.933 1_556 S
C422 C423 1.374 . S
C422 C424 1.398 . S
C423 C422 1.374 . S
C423 C427 1.385 . S
C424 H405 0.951 . S
C424 C422 1.398 . S
C424 C425 1.366 . S
C425 C424 1.366 . S
C425 C426 1.414 . S
C425 C428 1.499 . S
C426 H406 0.950 . S
C426 C425 1.414 . S
C426 C427 1.374 . S
C427 H407 0.950 . S
C427 C423 1.385 . S
C427 C426 1.374 . S
C428 C425 1.499 . S
C428 C429 1.373 . S
C428 C430 1.389 . S
C429 H408 0.950 . S
C429 C428 1.373 . S
C429 C445 1.377 . S
C430 C428 1.389 . S
C430 C431 1.524 . S
C430 C444 1.377 . S
C431 C430 1.524 . S
C431 C432 1.397 . S
C431 C436 1.363 . S
C432 H409 0.950 . S
C432 C431 1.397 . S
C432 C433 1.334 . S
C433 H410 0.950 . S
C433 C432 1.334 . S
C433 C434 1.287 . S
C434 C433 1.287 . S
C434 C435 1.524 . S
C434 H453 0.913 . S
C435 H411 0.950 . S
C435 C434 1.524 . S
C435 C436 1.415 . S
C436 H412 0.950 . S
C436 C431 1.363 . S
C436 C435 1.415 . S
C437 H413 0.951 . S
C437 C438 1.366 . S
C437 C439 1.388 . S
C438 C437 1.366 . S
C438 C442 1.385 . S
C439 H414 0.951 . S
C439 C437 1.388 . S
C439 C440 1.366 . S
C440 C439 1.366 . S
C440 C441 1.414 . S
C440 C443 1.499 . S
C441 H415 0.950 . S
C441 C440 1.414 . S
C441 C442 1.374 . S
C442 H416 0.950 . S
C442 C438 1.385 . S
C442 C441 1.374 . S
C443 C440 1.499 . S
C443 C444 1.373 . S
C443 C445 1.389 . S
C444 H417 0.950 . S
C444 C430 1.377 . S
C444 C443 1.373 . S
C445 C429 1.377 . S
C445 C443 1.389 . S
C445 C446 1.524 . S
C446 C445 1.524 . S
C446 C447 1.397 . S
C446 C451 1.363 . S
C447 H418 0.950 . S
C447 C446 1.397 . S
C447 C448 1.334 . S
C448 H419 0.950 . S
C448 C447 1.334 . S
C448 C449 1.287 . S
C449 C448 1.287 . S
C449 C450 1.524 . S
C449 H452 0.999 . S
C450 H420 0.950 . S
C450 C449 1.524 . S
C450 C451 1.415 . S
C451 H421 0.950 . S
C451 C446 1.363 . S
C451 C450 1.415 . S
H452 C449 0.999 . S
H453 C434 0.913 . S
H454 C472 0.951 . S
H455 C474 0.951 . S
H456 C476 0.950 . S
H457 C477 0.950 . S
H458 C479 0.950 . S
H459 C482 0.950 . S
H460 C483 0.950 . S
H461 C485 0.950 . S
H462 C486 0.950 . S
H463 C487 0.951 . S
H464 C489 0.951 . S
H465 C491 0.950 . S
H466 C492 0.950 . S
H467 C494 0.950 . S
H468 C497 0.950 . S
H469 C498 0.950 . S
H470 C500 0.950 . S
H471 C501 0.950 . S
C472 H454 0.951 . S
C472 C473 1.366 . S
C472 C474 1.388 . S
C473 C472 1.366 . S
C473 C477 1.385 . S
C474 H455 0.951 . S
C474 C472 1.388 . S
C474 C475 1.366 . S
C475 C474 1.366 . S
C475 C476 1.414 . S
C475 C478 1.499 . S
C476 H456 0.950 . S
C476 C475 1.414 . S
C476 C477 1.374 . S
C477 H457 0.950 . S
C477 C473 1.385 . S
C477 C476 1.374 . S
C478 C475 1.499 . S
C478 C479 1.373 . S
C478 C480 1.389 . S
C479 H458 0.950 . S
C479 C478 1.373 . S
C479 C495 1.377 . S
C480 C478 1.389 . S
C480 C481 1.524 . S
C480 C494 1.377 . S
C481 C480 1.524 . S
C481 C482 1.397 . S
C481 C486 1.363 . S
C482 H459 0.950 . S
C482 C481 1.397 . S
C482 C483 1.334 1_554 S
C483 H460 0.950 . S
C483 C482 1.334 1_556 S
C483 C484 1.287 . S
C484 C483 1.287 . S
C484 C485 1.524 . S
C484 H503 0.913 . S
C485 H461 0.950 . S
C485 C484 1.524 . S
C485 C486 1.415 1_556 S
C486 H462 0.950 . S
C486 C481 1.363 . S
C486 C485 1.415 1_554 S
C487 H463 0.951 . S
C487 C488 1.366 . S
C487 C489 1.388 . S
C488 C487 1.366 . S
C488 C492 1.385 . S
C489 H464 0.951 . S
C489 C487 1.388 . S
C489 C490 1.366 . S
C490 C489 1.366 . S
C490 C491 1.414 . S
C490 C493 1.499 . S
C491 H465 0.950 . S
C491 C490 1.414 . S
C491 C492 1.374 . S
C492 H466 0.950 . S
C492 C488 1.385 . S
C492 C491 1.374 . S
C493 C490 1.499 . S
C493 C494 1.373 . S
C493 C495 1.389 . S
C494 H467 0.950 . S
C494 C480 1.377 . S
C494 C493 1.373 . S
C495 C479 1.377 . S
C495 C493 1.389 . S
C495 C496 1.524 . S
C496 C495 1.524 . S
C496 C497 1.397 . S
C496 C501 1.363 . S
C497 H468 0.950 . S
C497 C496 1.397 . S
C497 C498 1.334 . S
C498 H469 0.950 . S
C498 C497 1.334 . S
C498 C499 1.287 . S
C499 C498 1.287 . S
C499 C500 1.524 . S
C499 H502 0.999 . S
C500 H470 0.950 . S
C500 C499 1.524 . S
C500 C501 1.415 . S
C501 H471 0.950 . S
C501 C496 1.363 . S
C501 C500 1.415 . S
H502 C499 0.999 . S
H503 C484 0.913 . S
H504 C522 0.951 . S
H505 C524 0.951 . S
H506 C526 0.950 . S
H507 C527 0.950 . S
H508 C529 0.950 . S
H509 C532 0.950 . S
H510 C533 0.950 . S
H511 C535 0.950 . S
H512 C536 0.950 . S
H513 C537 0.951 . S
H514 C539 0.951 . S
H515 C541 0.950 . S
H516 C542 0.950 . S
H517 C544 0.950 . S
H518 C547 0.950 . S
H519 C548 0.950 . S
H520 C550 0.950 . S
H521 C551 0.950 . S
C522 H504 0.951 . S
C522 C523 1.366 . S
C522 C524 1.388 . S
C523 C522 1.366 . S
C523 C527 1.385 . S
C524 H505 0.951 . S
C524 C522 1.388 . S
C524 C525 1.366 . S
C525 C524 1.366 . S
C525 C526 1.414 . S
C525 C528 1.499 . S
C526 H506 0.950 . S
C526 C525 1.414 . S
C526 C527 1.374 . S
C527 H507 0.950 . S
C527 C523 1.385 . S
C527 C526 1.374 . S
C528 C525 1.499 . S
C528 C529 1.373 . S
C528 C530 1.389 . S
C529 H508 0.950 . S
C529 C528 1.373 . S
C529 C545 1.377 1_565 S
C530 C528 1.389 . S
C530 C531 1.524 . S
C530 C544 1.377 1_565 S
C531 C530 1.524 . S
C531 C532 1.397 . S
C531 C536 1.363 . S
C532 H509 0.950 . S
C532 C531 1.397 . S
C532 C533 1.334 . S
C533 H510 0.950 . S
C533 C532 1.334 . S
C533 C534 1.287 . S
C534 C533 1.287 . S
C534 C535 1.524 . S
C534 H553 0.913 . S
C535 H511 0.950 . S
C535 C534 1.524 . S
C535 C536 1.415 . S
C536 H512 0.950 . S
C536 C531 1.363 . S
C536 C535 1.415 . S
C537 H513 0.951 . S
C537 C538 1.366 . S
C537 C539 1.388 . S
C538 C537 1.366 . S
C538 C542 1.385 . S
C539 H514 0.951 . S
C539 C537 1.388 . S
C539 C540 1.366 . S
C540 C539 1.366 . S
C540 C541 1.414 . S
C540 C543 1.499 . S
C541 H515 0.950 . S
C541 C540 1.414 . S
C541 C542 1.374 . S
C542 H516 0.950 . S
C542 C538 1.385 . S
C542 C541 1.374 . S
C543 C540 1.499 . S
C543 C544 1.373 . S
C543 C545 1.389 . S
C544 H517 0.950 . S
C544 C530 1.377 1_545 S
C544 C543 1.373 . S
C545 C529 1.377 1_545 S
C545 C543 1.389 . S
C545 C546 1.524 . S
C546 C545 1.524 . S
C546 C547 1.397 . S
C546 C551 1.363 . S
C547 H518 0.950 . S
C547 C546 1.397 . S
C547 C548 1.334 . S
C548 H519 0.950 . S
C548 C547 1.334 . S
C548 C549 1.287 . S
C549 C548 1.287 . S
C549 C550 1.524 . S
C549 H552 0.999 . S
C550 H520 0.950 . S
C550 C549 1.524 . S
C550 C551 1.415 . S
C551 H521 0.950 . S
C551 C546 1.363 . S
C551 C550 1.415 . S
H552 C549 0.999 . S
H553 C534 0.913 . S
H554 C572 0.951 . S
H555 C574 0.951 . S
H556 C576 0.950 . S
H557 C577 0.950 . S
H558 C579 0.950 . S
H559 C582 0.950 . S
H560 C583 0.950 . S
H561 C585 0.950 . S
H562 C586 0.950 . S
H563 C587 0.951 . S
H564 C589 0.951 . S
H565 C591 0.950 . S
H566 C592 0.950 . S
H567 C594 0.950 . S
H568 C597 0.950 . S
H569 C598 0.950 . S
H570 C600 0.950 . S
H571 C601 0.950 . S
C572 H554 0.951 . S
C572 C573 1.366 . S
C572 C574 1.388 . S
C573 C572 1.366 . S
C573 C577 1.385 . S
C574 H555 0.951 . S
C574 C572 1.388 . S
C574 C575 1.366 . S
C575 C574 1.366 . S
C575 C576 1.414 . S
C575 C578 1.499 . S
C576 H556 0.950 . S
C576 C575 1.414 . S
C576 C577 1.374 . S
C577 H557 0.950 . S
C577 C573 1.385 . S
C577 C576 1.374 . S
C578 C575 1.499 . S
C578 C579 1.373 . S
C578 C580 1.389 . S
C579 H558 0.950 . S
C579 C578 1.373 . S
C579 C595 1.377 1_655 S
C580 C578 1.389 . S
C580 C581 1.524 . S
C580 C594 1.377 1_655 S
C581 C580 1.524 . S
C581 C582 1.397 . S
C581 C586 1.363 . S
C582 H559 0.950 . S
C582 C581 1.397 . S
C582 C583 1.334 . S
C583 H560 0.950 . S
C583 C582 1.334 . S
C583 C584 1.287 . S
C584 C583 1.287 . S
C584 C585 1.524 . S
C584 H603 0.913 . S
C585 H561 0.950 . S
C585 C584 1.524 . S
C585 C586 1.415 . S
C586 H562 0.950 . S
C586 C581 1.363 . S
C586 C585 1.415 . S
C587 H563 0.951 . S
C587 C588 1.366 . S
C587 C589 1.388 . S
C588 C587 1.366 . S
C588 C592 1.385 . S
C589 H564 0.951 . S
C589 C587 1.388 . S
C589 C590 1.366 . S
C590 C589 1.366 . S
C590 C591 1.414 . S
C590 C593 1.499 . S
C591 H565 0.950 . S
C591 C590 1.414 . S
C591 C592 1.374 . S
C592 H566 0.950 . S
C592 C588 1.385 . S
C592 C591 1.374 . S
C593 C590 1.499 . S
C593 C594 1.373 . S
C593 C595 1.389 . S
C594 H567 0.950 . S
C594 C580 1.377 1_455 S
C594 C593 1.373 . S
C595 C579 1.377 1_455 S
C595 C593 1.389 . S
C595 C596 1.524 . S
C596 C595 1.524 . S
C596 C597 1.397 . S
C596 C601 1.363 . S
C597 H568 0.950 . S
C597 C596 1.397 . S
C597 C598 1.334 . S
C598 H569 0.950 . S
C598 C597 1.334 . S
C598 C599 1.287 . S
C599 C598 1.287 . S
C599 C600 1.524 . S
C599 H602 0.999 . S
C600 H570 0.950 . S
C600 C599 1.524 . S
C600 C601 1.415 . S
C601 H571 0.950 . S
C601 C596 1.363 . S
C601 C600 1.415 . S
H602 C599 0.999 . S
H603 C584 0.913 . S
H604 C622 0.951 . S
H605 C624 0.951 . S
H606 C626 0.950 . S
H607 C627 0.950 . S
H608 C629 0.950 . S
H609 C632 0.950 . S
H610 C633 0.950 . S
H611 C635 0.950 . S
H612 C636 0.950 . S
H613 C637 0.951 . S
H614 C639 0.951 . S
H615 C641 0.950 . S
H616 C642 0.950 . S
H617 C644 0.950 . S
H618 C647 0.950 . S
H619 C648 0.950 . S
H620 C650 0.950 . S
H621 C651 0.950 . S
C622 H604 0.951 . S
C622 C623 1.366 . S
C622 C624 1.388 . S
C623 C622 1.366 . S
C623 C627 1.385 . S
C624 H605 0.951 . S
C624 C622 1.388 . S
C624 C625 1.366 . S
C625 C624 1.366 . S
C625 C626 1.414 . S
C625 C628 1.499 . S
C626 H606 0.950 . S
C626 C625 1.414 . S
C626 C627 1.374 . S
C627 H607 0.950 . S
C627 C623 1.385 . S
C627 C626 1.374 . S
C628 C625 1.499 . S
C628 C629 1.373 . S
C628 C630 1.389 . S
C629 H608 0.950 . S
C629 C628 1.373 . S
C629 C645 1.377 1_565 S
C630 C628 1.389 . S
C630 C631 1.524 . S
C630 C644 1.377 1_565 S
C631 C630 1.524 . S
C631 C632 1.397 . S
C631 C636 1.363 . S
C632 H609 0.950 . S
C632 C631 1.397 . S
C632 C633 1.334 . S
C633 H610 0.950 . S
C633 C632 1.334 . S
C633 C634 1.287 . S
C634 C633 1.287 . S
C634 C635 1.524 . S
C634 H653 0.913 . S
C635 H611 0.950 . S
C635 C634 1.524 . S
C635 C636 1.415 . S
C636 H612 0.950 . S
C636 C631 1.363 . S
C636 C635 1.415 . S
C637 H613 0.951 . S
C637 C638 1.366 . S
C637 C639 1.388 . S
C638 C637 1.366 . S
C638 C642 1.385 . S
C639 H614 0.951 . S
C639 C637 1.388 . S
C639 C640 1.366 . S
C640 C639 1.366 . S
C640 C641 1.414 . S
C640 C643 1.499 . S
C641 H615 0.950 . S
C641 C640 1.414 . S
C641 C642 1.374 . S
C642 H616 0.950 . S
C642 C638 1.385 . S
C642 C641 1.374 . S
C643 C640 1.499 . S
C643 C644 1.373 . S
C643 C645 1.389 . S
C644 H617 0.950 . S
C644 C630 1.377 1_545 S
C644 C643 1.373 . S
C645 C629 1.377 1_545 S
C645 C643 1.389 . S
C645 C646 1.524 . S
C646 C645 1.524 . S
C646 C647 1.397 . S
C646 C651 1.363 . S
C647 H618 0.950 . S
C647 C646 1.397 . S
C647 C648 1.334 . S
C648 H619 0.950 . S
C648 C647 1.334 . S
C648 C649 1.287 . S
C649 C648 1.287 . S
C649 C650 1.524 . S
C649 H652 0.999 . S
C650 H620 0.950 . S
C650 C649 1.524 . S
C650 C651 1.415 . S
C651 H621 0.950 . S
C651 C646 1.363 . S
C651 C650 1.415 . S
H652 C649 0.999 . S
H653 C634 0.913 . S
H654 C672 0.951 . S
H655 C674 0.951 . S
H656 C676 0.950 . S
H657 C677 0.950 . S
H658 C679 0.950 . S
H659 C682 0.950 . S
H660 C683 0.950 . S
H661 C685 0.950 . S
H662 C686 0.950 . S
H663 C687 0.951 . S
H664 C689 0.951 . S
H665 C691 0.950 . S
H666 C692 0.950 . S
H667 C694 0.950 . S
H668 C697 0.950 . S
H669 C698 0.950 . S
H670 C700 0.950 . S
H671 C701 0.950 . S
C672 H654 0.951 . S
C672 C673 1.366 1_556 S
C672 C674 1.388 . S
C673 C672 1.366 1_554 S
C673 C677 1.385 . S
C674 H655 0.951 . S
C674 C672 1.388 . S
C674 C675 1.366 1_556 S
C675 C674 1.366 1_554 S
C675 C676 1.414 . S
C675 C678 1.499 . S
C676 H656 0.950 . S
C676 C675 1.414 . S
C676 C677 1.374 . S
C677 H657 0.950 . S
C677 C673 1.385 . S
C677 C676 1.374 . S
C678 C675 1.499 . S
C678 C679 1.373 . S
C678 C680 1.389 1_554 S
C679 H658 0.950 . S
C679 C678 1.373 . S
C679 C695 1.377 1_655 S
C680 C678 1.389 1_556 S
C680 C681 1.524 . S
C680 C694 1.377 1_655 S
C681 C680 1.524 . S
C681 C682 1.397 . S
C681 C686 1.363 . S
C682 H659 0.950 . S
C682 C681 1.397 . S
C682 C683 1.334 . S
C683 H660 0.950 . S
C683 C682 1.334 . S
C683 C684 1.287 . S
C684 C683 1.287 . S
C684 C685 1.524 . S
C684 H703 0.913 . S
C685 H661 0.950 . S
C685 C684 1.524 . S
C685 C686 1.415 . S
C686 H662 0.950 . S
C686 C681 1.363 . S
C686 C685 1.415 . S
C687 H663 0.951 . S
C687 C688 1.366 . S
C687 C689 1.388 . S
C688 C687 1.366 . S
C688 C692 1.385 1_554 S
C689 H664 0.951 . S
C689 C687 1.388 . S
C689 C690 1.366 . S
C690 C689 1.366 . S
C690 C691 1.414 1_554 S
C690 C693 1.499 . S
C691 H665 0.950 . S
C691 C690 1.414 1_556 S
C691 C692 1.374 . S
C692 H666 0.950 . S
C692 C688 1.385 1_556 S
C692 C691 1.374 . S
C693 C690 1.499 . S
C693 C694 1.373 1_554 S
C693 C695 1.389 . S
C694 H667 0.950 . S
C694 C680 1.377 1_455 S
C694 C693 1.373 1_556 S
C695 C679 1.377 1_455 S
C695 C693 1.389 . S
C695 C696 1.524 . S
C696 C695 1.524 . S
C696 C697 1.397 . S
C696 C701 1.363 . S
C697 H668 0.950 . S
C697 C696 1.397 . S
C697 C698 1.334 . S
C698 H669 0.950 . S
C698 C697 1.334 . S
C698 C699 1.287 . S
C699 C698 1.287 . S
C699 C700 1.524 . S
C699 H702 0.999 . S
C700 H670 0.950 . S
C700 C699 1.524 . S
C700 C701 1.415 . S
C701 H671 0.950 . S
C701 C696 1.363 . S
C701 C700 1.415 . S
H702 C699 0.999 . S
H703 C684 0.913 . S
H704 C722 0.951 . S
H705 C724 0.951 . S
H706 C726 0.950 . S
H707 C727 0.950 . S
H708 C729 0.950 . S
H709 C732 0.950 . S
H710 C733 0.950 . S
H711 C735 0.950 . S
H712 C736 0.950 . S
H713 C737 0.951 . S
H714 C739 0.951 . S
H715 C741 0.950 . S
H716 C742 0.950 . S
H717 C744 0.950 . S
H718 C747 0.950 . S
H719 C748 0.950 . S
H720 C750 0.950 . S
H721 C751 0.950 . S
C722 H704 0.951 . S
C722 C723 1.366 . S
C722 C724 1.388 . S
C723 C722 1.366 . S
C723 C727 1.385 . S
C724 H705 0.951 . S
C724 C722 1.388 . S
C724 C725 1.366 . S
C725 C724 1.366 . S
C725 C726 1.414 . S
C725 C728 1.499 . S
C726 H706 0.950 . S
C726 C725 1.414 . S
C726 C727 1.374 . S
C727 H707 0.950 . S
C727 C723 1.385 . S
C727 C726 1.374 . S
C728 C725 1.499 . S
C728 C729 1.373 1_556 S
C728 C730 1.389 . S
C729 H708 0.950 . S
C729 C728 1.373 1_554 S
C729 C745 1.377 . S
C730 C728 1.389 . S
C730 C731 1.524 . S
C730 C744 1.377 1_556 S
C731 C730 1.524 . S
C731 C732 1.397 . S
C731 C736 1.363 . S
C732 H709 0.950 . S
C732 C731 1.397 . S
C732 C733 1.334 . S
C733 H710 0.950 . S
C733 C732 1.334 . S
C733 C734 1.287 . S
C734 C733 1.287 . S
C734 C735 1.524 . S
C734 H753 0.913 . S
C735 H711 0.950 . S
C735 C734 1.524 . S
C735 C736 1.415 . S
C736 H712 0.950 . S
C736 C731 1.363 . S
C736 C735 1.415 . S
C737 H713 0.951 . S
C737 C738 1.366 . S
C737 C739 1.388 . S
C738 C737 1.366 . S
C738 C742 1.385 . S
C739 H714 0.951 . S
C739 C737 1.388 . S
C739 C740 1.366 . S
C740 C739 1.366 . S
C740 C741 1.414 . S
C740 C743 1.499 . S
C741 H715 0.950 . S
C741 C740 1.414 . S
C741 C742 1.374 . S
C742 H716 0.950 . S
C742 C738 1.385 . S
C742 C741 1.374 . S
C743 C740 1.499 . S
C743 C744 1.373 . S
C743 C745 1.389 . S
C744 H717 0.950 . S
C744 C730 1.377 1_554 S
C744 C743 1.373 . S
C745 C729 1.377 . S
C745 C743 1.389 . S
C745 C746 1.524 . S
C746 C745 1.524 . S
C746 C747 1.397 . S
C746 C751 1.363 . S
C747 H718 0.950 . S
C747 C746 1.397 . S
C747 C748 1.334 . S
C748 H719 0.950 . S
C748 C747 1.334 . S
C748 C749 1.287 . S
C749 C748 1.287 . S
C749 C750 1.524 . S
C749 H752 0.999 . S
C750 H720 0.950 . S
C750 C749 1.524 . S
C750 C751 1.415 . S
C751 H721 0.950 . S
C751 C746 1.363 . S
C751 C750 1.415 . S
H752 C749 0.999 . S
H753 C734 0.913 . S
H754 C772 0.951 . S
H755 C774 0.951 . S
H756 C776 0.950 . S
H757 C777 0.950 . S
H758 C779 0.950 . S
H759 C782 0.950 . S
H760 C783 0.950 . S
H761 C785 0.950 . S
H762 C786 0.950 . S
H763 C787 0.951 . S
H764 C789 0.951 . S
H765 C791 0.950 . S
H766 C792 0.950 . S
H767 C794 0.950 . S
H768 C797 0.950 . S
H769 C798 0.950 . S
H770 C800 0.950 . S
H771 C801 0.950 . S
C772 H754 0.951 . S
C772 C773 1.366 . S
C772 C774 1.388 . S
C773 C772 1.366 . S
C773 C777 1.385 . S
C774 H755 0.951 . S
C774 C772 1.388 . S
C774 C775 1.366 . S
C775 C774 1.366 . S
C775 C776 1.414 . S
C775 C778 1.499 . S
C776 H756 0.950 . S
C776 C775 1.414 . S
C776 C777 1.374 . S
C777 H757 0.950 . S
C777 C773 1.385 . S
C777 C776 1.374 . S
C778 C775 1.499 . S
C778 C779 1.373 . S
C778 C780 1.389 . S
C779 H758 0.950 . S
C779 C778 1.373 . S
C779 C795 1.377 . S
C780 C778 1.389 . S
C780 C781 1.524 . S
C780 C794 1.377 . S
C781 C780 1.524 . S
C781 C782 1.397 . S
C781 C786 1.363 . S
C782 H759 0.950 . S
C782 C781 1.397 . S
C782 C783 1.334 . S
C783 H760 0.950 . S
C783 C782 1.334 . S
C783 C784 1.287 . S
C784 C783 1.287 . S
C784 C785 1.524 . S
C784 H803 0.913 . S
C785 H761 0.950 . S
C785 C784 1.524 . S
C785 C786 1.415 . S
C786 H762 0.950 . S
C786 C781 1.363 . S
C786 C785 1.415 . S
C787 H763 0.951 . S
C787 C788 1.366 . S
C787 C789 1.388 . S
C788 C787 1.366 . S
C788 C792 1.385 . S
C789 H764 0.951 . S
C789 C787 1.388 . S
C789 C790 1.366 . S
C790 C789 1.366 . S
C790 C791 1.414 . S
C790 C793 1.499 . S
C791 H765 0.950 . S
C791 C790 1.414 . S
C791 C792 1.374 . S
C792 H766 0.950 . S
C792 C788 1.385 . S
C792 C791 1.374 . S
C793 C790 1.499 . S
C793 C794 1.373 . S
C793 C795 1.389 . S
C794 H767 0.950 . S
C794 C780 1.377 . S
C794 C793 1.373 . S
C795 C779 1.377 . S
C795 C793 1.389 . S
C795 C796 1.524 . S
C796 C795 1.524 . S
C796 C797 1.397 . S
C796 C801 1.363 . S
C797 H768 0.950 . S
C797 C796 1.397 . S
C797 C798 1.334 . S
C798 H769 0.950 . S
C798 C797 1.334 . S
C798 C799 1.287 . S
C799 C798 1.287 . S
C799 C800 1.524 . S
C799 H802 0.999 . S
C800 H770 0.950 . S
C800 C799 1.524 . S
C800 C801 1.415 . S
C801 H771 0.950 . S
C801 C796 1.363 . S
C801 C800 1.415 . S
H802 C799 0.999 . S
H803 C784 0.913 . S
H804 C822 0.951 . S
H805 C824 0.951 . S
H806 C826 0.950 . S
H807 C827 0.950 . S
H808 C829 0.950 . S
H809 C832 0.950 . S
H810 C833 0.950 . S
H811 C835 0.950 . S
H812 C836 0.950 . S
H813 C837 0.951 . S
H814 C839 0.951 . S
H815 C841 0.950 . S
H816 C842 0.950 . S
H817 C844 0.950 . S
H818 C847 0.950 . S
H819 C848 0.950 . S
H820 C850 0.950 . S
H821 C851 0.950 . S
C822 H804 0.951 . S
C822 C823 1.366 . S
C822 C824 1.388 . S
C823 C822 1.366 . S
C823 C827 1.385 . S
C824 H805 0.951 . S
C824 C822 1.388 . S
C824 C825 1.366 . S
C825 C824 1.366 . S
C825 C826 1.414 . S
C825 C828 1.499 . S
C826 H806 0.950 . S
C826 C825 1.414 . S
C826 C827 1.374 . S
C827 H807 0.950 . S
C827 C823 1.385 . S
C827 C826 1.374 . S
C828 C825 1.499 . S
C828 C829 1.373 . S
C828 C830 1.389 . S
C829 H808 0.950 . S
C829 C828 1.373 . S
C829 C845 1.377 . S
C830 C828 1.389 . S
C830 C831 1.524 . S
C830 C844 1.377 . S
C831 C830 1.524 . S
C831 C832 1.397 . S
C831 C836 1.363 . S
C832 H809 0.950 . S
C832 C831 1.397 . S
C832 C833 1.334 . S
C833 H810 0.950 . S
C833 C832 1.334 . S
C833 C834 1.287 . S
C834 C833 1.287 . S
C834 C835 1.524 . S
C834 H853 0.913 . S
C835 H811 0.950 . S
C835 C834 1.524 . S
C835 C836 1.415 . S
C836 H812 0.950 . S
C836 C831 1.363 . S
C836 C835 1.415 . S
C837 H813 0.951 . S
C837 C838 1.366 . S
C837 C839 1.388 . S
C838 C837 1.366 . S
C838 C842 1.385 . S
C839 H814 0.951 . S
C839 C837 1.388 . S
C839 C840 1.366 . S
C840 C839 1.366 . S
C840 C841 1.414 . S
C840 C843 1.499 . S
C841 H815 0.950 . S
C841 C840 1.414 . S
C841 C842 1.374 . S
C842 H816 0.950 . S
C842 C838 1.385 . S
C842 C841 1.374 . S
C843 C840 1.499 . S
C843 C844 1.373 . S
C843 C845 1.389 . S
C844 H817 0.950 . S
C844 C830 1.377 . S
C844 C843 1.373 . S
C845 C829 1.377 . S
C845 C843 1.389 . S
C845 C846 1.524 . S
C846 C845 1.524 . S
C846 C847 1.397 . S
C846 C851 1.363 . S
C847 H818 0.950 . S
C847 C846 1.397 . S
C847 C848 1.334 . S
C848 H819 0.950 . S
C848 C847 1.334 . S
C848 C849 1.287 . S
C849 C848 1.287 . S
C849 C850 1.524 . S
C849 H852 0.999 . S
C850 H820 0.950 . S
C850 C849 1.524 . S
C850 C851 1.415 . S
C851 H821 0.950 . S
C851 C846 1.363 . S
C851 C850 1.415 . S
H852 C849 0.999 . S
H853 C834 0.913 . S
H854 C872 0.951 . S
H855 C874 0.951 . S
H856 C876 0.950 . S
H857 C877 0.950 . S
H858 C879 0.950 . S
H859 C882 0.950 . S
H860 C883 0.950 . S
H861 C885 0.950 . S
H862 C886 0.950 . S
H863 C887 0.951 . S
H864 C889 0.951 . S
H865 C891 0.950 . S
H866 C892 0.950 . S
H867 C894 0.950 . S
H868 C897 0.950 . S
H869 C898 0.950 . S
H870 C900 0.950 . S
H871 C901 0.950 . S
C872 H854 0.951 . S
C872 C873 1.366 . S
C872 C874 1.388 . S
C873 C872 1.366 . S
C873 C877 1.385 . S
C874 H855 0.951 . S
C874 C872 1.388 . S
C874 C875 1.366 . S
C875 C874 1.366 . S
C875 C876 1.414 . S
C875 C878 1.499 . S
C876 H856 0.950 . S
C876 C875 1.414 . S
C876 C877 1.374 . S
C877 H857 0.950 . S
C877 C873 1.385 . S
C877 C876 1.374 . S
C878 C875 1.499 . S
C878 C879 1.373 . S
C878 C880 1.389 . S
C879 H858 0.950 . S
C879 C878 1.373 . S
C879 C895 1.377 . S
C880 C878 1.389 . S
C880 C881 1.524 . S
C880 C894 1.377 . S
C881 C880 1.524 . S
C881 C882 1.397 . S
C881 C886 1.363 . S
C882 H859 0.950 . S
C882 C881 1.397 . S
C882 C883 1.334 . S
C883 H860 0.950 . S
C883 C882 1.334 . S
C883 C884 1.287 . S
C884 C883 1.287 . S
C884 C885 1.524 . S
C884 H903 0.913 . S
C885 H861 0.950 . S
C885 C884 1.524 . S
C885 C886 1.415 . S
C886 H862 0.950 . S
C886 C881 1.363 . S
C886 C885 1.415 . S
C887 H863 0.951 . S
C887 C888 1.366 . S
C887 C889 1.388 . S
C888 C887 1.366 . S
C888 C892 1.385 . S
C889 H864 0.951 . S
C889 C887 1.388 . S
C889 C890 1.366 . S
C890 C889 1.366 . S
C890 C891 1.414 . S
C890 C893 1.499 . S
C891 H865 0.950 . S
C891 C890 1.414 . S
C891 C892 1.374 . S
C892 H866 0.950 . S
C892 C888 1.385 . S
C892 C891 1.374 . S
C893 C890 1.499 . S
C893 C894 1.373 . S
C893 C895 1.389 . S
C894 H867 0.950 . S
C894 C880 1.377 . S
C894 C893 1.373 . S
C895 C879 1.377 . S
C895 C893 1.389 . S
C895 C896 1.524 . S
C896 C895 1.524 . S
C896 C897 1.397 . S
C896 C901 1.363 . S
C897 H868 0.950 . S
C897 C896 1.397 . S
C897 C898 1.334 . S
C898 H869 0.950 . S
C898 C897 1.334 . S
C898 C899 1.287 . S
C899 C898 1.287 . S
C899 C900 1.524 . S
C899 H902 0.999 . S
C900 H870 0.950 . S
C900 C899 1.524 . S
C900 C901 1.415 . S
C901 H871 0.950 . S
C901 C896 1.363 . S
C901 C900 1.415 . S
H902 C899 0.999 . S
H903 C884 0.913 . S
C123 C8 0.877 . S
C138 C86 0.878 . S
C173 C21 0.878 . S
C188 C99 0.877 . S
C223 C60 0.878 . S
C238 C34 0.878 . S
C273 C73 0.878 . S
C288 C47 0.877 . S
C323 C0 1.198 . S
C338 C65 1.198 . S
C373 C13 1.198 . S
C388 C78 1.198 . S
C423 C91 1.198 1_556 S
C438 C26 1.198 . S
C473 C39 1.199 . S
C488 C52 1.198 . S
C523 C57 1.283 . S
C538 C5 1.284 . S
C573 C18 1.283 . S
C588 C70 1.285 . S
C623 C31 1.284 . S
C638 C83 1.283 . S
C673 C96 1.283 . S
C688 C44 1.282 . S
C723 C88 1.493 . S
C738 C10 1.493 . S
C773 C101 1.493 . S
C788 C23 1.494 . S
C823 C36 1.493 . S
C838 C62 1.493 . S
C873 C49 1.493 . S
C888 C75 1.493 . S
