# Generated by pormake.
# Topology fnp, (5)-cn, num edge types: 1
# Building blocks:
#     Node 0, Type 0, BuildingBlock: BEQFEK_clean_sbu_0, # of connection points: 5
#     Node 1, Type 0, BuildingBlock: BEQFEK_clean_sbu_0, # of connection points: 5
#     Node 2, Type 0, BuildingBlock: BEQFEK_clean_sbu_0, # of connection points: 5
#     Node 3, Type 0, BuildingBlock: BEQFEK_clean_sbu_0, # of connection points: 5
#     Node 4, Type 0, BuildingBlock: BEQFEK_clean_sbu_0, # of connection points: 5
#     Node 5, Type 0, BuildingBlock: BEQFEK_clean_sbu_0, # of connection points: 5
#     Node 6, Type 0, BuildingBlock: BEQFEK_clean_sbu_0, # of connection points: 5
#     Node 7, Type 0, BuildingBlock: BEQFEK_clean_sbu_0, # of connection points: 5
#     Node 8, Type 0, BuildingBlock: BEQFEK_clean_sbu_0, # of connection points: 5
#     Node 9, Type 0, BuildingBlock: BEQFEK_clean_sbu_0, # of connection points: 5
#     Node 10, Type 0, BuildingBlock: BEQFEK_clean_sbu_0, # of connection points: 5
#     Node 11, Type 0, BuildingBlock: BEQFEK_clean_sbu_0, # of connection points: 5
#     Node 12, Type 0, BuildingBlock: BEQFEK_clean_sbu_0, # of connection points: 5
#     Node 13, Type 0, BuildingBlock: BEQFEK_clean_sbu_0, # of connection points: 5
#     Node 14, Type 0, BuildingBlock: BEQFEK_clean_sbu_0, # of connection points: 5
#     Node 15, Type 0, BuildingBlock: BEQFEK_clean_sbu_0, # of connection points: 5
#     Node 16, Type 0, BuildingBlock: BEQFEK_clean_sbu_0, # of connection points: 5
#     Node 17, Type 0, BuildingBlock: BEQFEK_clean_sbu_0, # of connection points: 5
#     Node 18, Type 0, BuildingBlock: BEQFEK_clean_sbu_0, # of connection points: 5
#     Node 19, Type 0, BuildingBlock: BEQFEK_clean_sbu_0, # of connection points: 5
#     Node 20, Type 0, BuildingBlock: BEQFEK_clean_sbu_0, # of connection points: 5
#     Node 21, Type 0, BuildingBlock: BEQFEK_clean_sbu_0, # of connection points: 5
#     Node 22, Type 0, BuildingBlock: BEQFEK_clean_sbu_0, # of connection points: 5
#     Node 23, Type 0, BuildingBlock: BEQFEK_clean_sbu_0, # of connection points: 5
#     Edge 24, Type (0, 0), BuildingBlock: UVAHIK_clean_linker_0, # of connection points: 2
#     Edge 25, Type (0, 0), BuildingBlock: UVAHIK_clean_linker_0, # of connection points: 2
#     Edge 26, Type (0, 0), BuildingBlock: UVAHIK_clean_linker_0, # of connection points: 2
#     Edge 27, Type (0, 0), BuildingBlock: UVAHIK_clean_linker_0, # of connection points: 2
#     Edge 28, Type (0, 0), BuildingBlock: UVAHIK_clean_linker_0, # of connection points: 2
#     Edge 29, Type (0, 0), BuildingBlock: UVAHIK_clean_linker_0, # of connection points: 2
#     Edge 30, Type (0, 0), BuildingBlock: UVAHIK_clean_linker_0, # of connection points: 2
#     Edge 31, Type (0, 0), BuildingBlock: UVAHIK_clean_linker_0, # of connection points: 2
#     Edge 32, Type (0, 0), BuildingBlock: UVAHIK_clean_linker_0, # of connection points: 2
#     Edge 33, Type (0, 0), BuildingBlock: UVAHIK_clean_linker_0, # of connection points: 2
#     Edge 34, Type (0, 0), BuildingBlock: UVAHIK_clean_linker_0, # of connection points: 2
#     Edge 35, Type (0, 0), BuildingBlock: UVAHIK_clean_linker_0, # of connection points: 2
#     Edge 36, Type (0, 0), BuildingBlock: UVAHIK_clean_linker_0, # of connection points: 2
#     Edge 37, Type (0, 0), BuildingBlock: UVAHIK_clean_linker_0, # of connection points: 2
#     Edge 38, Type (0, 0), BuildingBlock: UVAHIK_clean_linker_0, # of connection points: 2
#     Edge 39, Type (0, 0), BuildingBlock: UVAHIK_clean_linker_0, # of connection points: 2
#     Edge 40, Type (0, 0), BuildingBlock: UVAHIK_clean_linker_0, # of connection points: 2
#     Edge 41, Type (0, 0), BuildingBlock: UVAHIK_clean_linker_0, # of connection points: 2
#     Edge 42, Type (0, 0), BuildingBlock: UVAHIK_clean_linker_0, # of connection points: 2
#     Edge 43, Type (0, 0), BuildingBlock: UVAHIK_clean_linker_0, # of connection points: 2
#     Edge 44, Type (0, 0), BuildingBlock: UVAHIK_clean_linker_0, # of connection points: 2
#     Edge 45, Type (0, 0), BuildingBlock: UVAHIK_clean_linker_0, # of connection points: 2
#     Edge 46, Type (0, 0), BuildingBlock: UVAHIK_clean_linker_0, # of connection points: 2
#     Edge 47, Type (0, 0), BuildingBlock: UVAHIK_clean_linker_0, # of connection points: 2
#     Edge 48, Type (0, 0), BuildingBlock: UVAHIK_clean_linker_0, # of connection points: 2
#     Edge 49, Type (0, 0), BuildingBlock: UVAHIK_clean_linker_0, # of connection points: 2
#     Edge 50, Type (0, 0), BuildingBlock: UVAHIK_clean_linker_0, # of connection points: 2
#     Edge 51, Type (0, 0), BuildingBlock: UVAHIK_clean_linker_0, # of connection points: 2
#     Edge 52, Type (0, 0), BuildingBlock: UVAHIK_clean_linker_0, # of connection points: 2
#     Edge 53, Type (0, 0), BuildingBlock: UVAHIK_clean_linker_0, # of connection points: 2
#     Edge 54, Type (0, 0), BuildingBlock: UVAHIK_clean_linker_0, # of connection points: 2
#     Edge 55, Type (0, 0), BuildingBlock: UVAHIK_clean_linker_0, # of connection points: 2
#     Edge 56, Type (0, 0), BuildingBlock: UVAHIK_clean_linker_0, # of connection points: 2
#     Edge 57, Type (0, 0), BuildingBlock: UVAHIK_clean_linker_0, # of connection points: 2
#     Edge 58, Type (0, 0), BuildingBlock: UVAHIK_clean_linker_0, # of connection points: 2
#     Edge 59, Type (0, 0), BuildingBlock: UVAHIK_clean_linker_0, # of connection points: 2
#     Edge 60, Type (0, 0), BuildingBlock: UVAHIK_clean_linker_0, # of connection points: 2
#     Edge 61, Type (0, 0), BuildingBlock: UVAHIK_clean_linker_0, # of connection points: 2
#     Edge 62, Type (0, 0), BuildingBlock: UVAHIK_clean_linker_0, # of connection points: 2
#     Edge 63, Type (0, 0), BuildingBlock: UVAHIK_clean_linker_0, # of connection points: 2
#     Edge 64, Type (0, 0), BuildingBlock: UVAHIK_clean_linker_0, # of connection points: 2
#     Edge 65, Type (0, 0), BuildingBlock: UVAHIK_clean_linker_0, # of connection points: 2
#     Edge 66, Type (0, 0), BuildingBlock: UVAHIK_clean_linker_0, # of connection points: 2
#     Edge 67, Type (0, 0), BuildingBlock: UVAHIK_clean_linker_0, # of connection points: 2
#     Edge 68, Type (0, 0), BuildingBlock: UVAHIK_clean_linker_0, # of connection points: 2
#     Edge 69, Type (0, 0), BuildingBlock: UVAHIK_clean_linker_0, # of connection points: 2
#     Edge 70, Type (0, 0), BuildingBlock: UVAHIK_clean_linker_0, # of connection points: 2
#     Edge 71, Type (0, 0), BuildingBlock: UVAHIK_clean_linker_0, # of connection points: 2
#     Edge 72, Type (0, 0), BuildingBlock: UVAHIK_clean_linker_0, # of connection points: 2
#     Edge 73, Type (0, 0), BuildingBlock: UVAHIK_clean_linker_0, # of connection points: 2
#     Edge 74, Type (0, 0), BuildingBlock: UVAHIK_clean_linker_0, # of connection points: 2
#     Edge 75, Type (0, 0), BuildingBlock: UVAHIK_clean_linker_0, # of connection points: 2
#     Edge 76, Type (0, 0), BuildingBlock: UVAHIK_clean_linker_0, # of connection points: 2
#     Edge 77, Type (0, 0), BuildingBlock: UVAHIK_clean_linker_0, # of connection points: 2
#     Edge 78, Type (0, 0), BuildingBlock: UVAHIK_clean_linker_0, # of connection points: 2
#     Edge 79, Type (0, 0), BuildingBlock: UVAHIK_clean_linker_0, # of connection points: 2
#     Edge 80, Type (0, 0), BuildingBlock: UVAHIK_clean_linker_0, # of connection points: 2
#     Edge 81, Type (0, 0), BuildingBlock: UVAHIK_clean_linker_0, # of connection points: 2
#     Edge 82, Type (0, 0), BuildingBlock: UVAHIK_clean_linker_0, # of connection points: 2
#     Edge 83, Type (0, 0), BuildingBlock: UVAHIK_clean_linker_0, # of connection points: 2
# Relax obj value: 0.457
# Max RMSD: 0.207
# Mean RMSD: 0.207
data_MOF--net-fnp--node1-BEQFEK_clean_sbu_0--edge1-UVAHIK_clean_linker_0
_symmetry_space_group_name_H-M    P1
_symmetry_Int_Tables_number       1
_symmetry_cell_setting            triclinic
loop_
_symmetry_equiv_pos_as_xyz
'x, y, z'
_cell_length_a     71.617287
_cell_length_b     71.677423
_cell_length_c     71.678662
_cell_angle_alpha  90.049513
_cell_angle_beta   90.011761
_cell_angle_gamma 90.016596
loop_
_atom_site_label
_atom_site_type_symbol
_atom_site_fract_x
_atom_site_fract_y
_atom_site_fract_z
_atom_type_partial_charge
Co0 Co 0.19817 0.15511 0.68733 0.0
Co1 Co 0.16605 0.16789 0.66116 0.0
C2 C 0.16908 0.18343 0.69971 0.0
O3 O 0.18357 0.17358 0.70234 0.0
O4 O 0.16019 0.18226 0.68441 0.0
C5 C 0.19961 0.13388 0.71745 0.0
O6 O 0.18184 0.13684 0.71395 0.0
C7 C 0.1272 0.17006 0.65147 0.0
C8 C 0.12665 0.17173 0.62073 0.0
C9 C 0.11526 0.17008 0.63628 0.0
N10 N 0.14485 0.17124 0.64528 0.0
N11 N 0.14448 0.17248 0.62688 0.0
C12 C 0.12211 0.16908 0.67175 0.0
H13 H 0.12484 0.18287 0.67822 0.0
H14 H 0.13104 0.15865 0.67891 0.0
H15 H 0.10721 0.16575 0.67406 0.0
C16 C 0.18594 0.11776 0.67435 0.0
N17 N 0.18414 0.13651 0.67455 0.0
N18 N 0.16939 0.1413 0.66482 0.0
C19 C 0.16088 0.12545 0.6587 0.0
C20 C 0.17103 0.10992 0.66481 0.0
C21 C 0.20266 0.10739 0.68147 0.0
H22 H 0.21507 0.11663 0.68189 0.0
H23 H 0.19976 0.10199 0.69566 0.0
H24 H 0.20571 0.09522 0.67238 0.0
O25 O 0.21294 0.17017 0.66939 0.0
O26 O 0.18972 0.18018 0.65106 0.0
H27 H 0.14478 0.13348 0.6349 0.0
H28 H 0.13885 0.11072 0.64405 0.0
C29 C 0.14309 0.12511 0.64779 0.0
H30 H 0.13184 0.13148 0.65625 0.0
H31 H 0.15638 0.17308 0.61849 0.0
O32 O 0.21182 0.14155 0.70702 0.0
C33 C 0.20704 0.18013 0.65579 0.0
Co34 Co 0.86519 0.70431 0.17141 0.0
Co35 Co 0.8509 0.66659 0.15541 0.0
C36 C 0.83892 0.68044 0.19363 0.0
O37 O 0.84859 0.69537 0.19218 0.0
O38 O 0.83919 0.66803 0.18083 0.0
C39 C 0.87438 0.74362 0.17369 0.0
O40 O 0.85801 0.74682 0.16608 0.0
C41 C 0.84751 0.62609 0.15499 0.0
C42 C 0.84299 0.61995 0.12512 0.0
C43 C 0.84544 0.61155 0.14237 0.0
N44 N 0.84633 0.64228 0.14564 0.0
N45 N 0.8434 0.63855 0.12783 0.0
C46 C 0.85265 0.62472 0.17519 0.0
H47 H 0.86022 0.63745 0.17973 0.0
H48 H 0.86147 0.61226 0.17779 0.0
H49 H 0.83971 0.62344 0.1836 0.0
C50 C 0.90195 0.68627 0.16565 0.0
N51 N 0.88317 0.6862 0.16423 0.0
N52 N 0.87769 0.67045 0.15663 0.0
C53 C 0.89311 0.66008 0.15272 0.0
C54 C 0.90905 0.66977 0.15845 0.0
C55 C 0.91302 0.70248 0.17267 0.0
H56 H 0.91143 0.71395 0.16248 0.0
H57 H 0.90749 0.70711 0.18636 0.0
H58 H 0.92809 0.69929 0.174 0.0
O59 O 0.84853 0.7118 0.15093 0.0
O60 O 0.83662 0.68553 0.13984 0.0
H61 H 0.8826 0.64049 0.13271 0.0
H62 H 0.90668 0.63663 0.13944 0.0
C63 C 0.89266 0.64093 0.14445 0.0
H64 H 0.88802 0.63086 0.15522 0.0
H65 H 0.84238 0.64867 0.11742 0.0
O66 O 0.87909 0.7271 0.17807 0.0
C67 C 0.83736 0.70334 0.14008 0.0
Co68 Co 0.3246 0.36417 0.67409 0.0
Co69 Co 0.36296 0.3512 0.65831 0.0
C70 C 0.34795 0.33896 0.69667 0.0
O71 O 0.33327 0.34906 0.69583 0.0
O72 O 0.35993 0.33908 0.68346 0.0
C73 C 0.28496 0.37199 0.67293 0.0
O74 O 0.283 0.35559 0.66499 0.0
C75 C 0.40381 0.35206 0.65977 0.0
C76 C 0.41159 0.34352 0.63119 0.0
C77 C 0.41903 0.34976 0.64794 0.0
N78 N 0.38816 0.34782 0.65028 0.0
N79 N 0.39292 0.34254 0.63327 0.0
C80 C 0.40403 0.3577 0.6799 0.0
H81 H 0.39211 0.35141 0.68743 0.0
H82 H 0.40271 0.37307 0.68101 0.0
H83 H 0.41724 0.35332 0.68671 0.0
C84 C 0.34173 0.40143 0.66892 0.0
N85 N 0.34222 0.38269 0.66722 0.0
N86 N 0.35781 0.37773 0.65895 0.0
C87 C 0.36737 0.39347 0.65438 0.0
C88 C 0.35754 0.40904 0.66074 0.0
C89 C 0.32603 0.41199 0.67771 0.0
H90 H 0.31479 0.41348 0.66723 0.0
H91 H 0.32057 0.40429 0.68995 0.0
H92 H 0.33034 0.42618 0.68211 0.0
O93 O 0.31899 0.34586 0.65412 0.0
O94 O 0.34572 0.33611 0.64202 0.0
H95 H 0.38657 0.38195 0.63444 0.0
H96 H 0.3875 0.4071 0.63668 0.0
C97 C 0.38568 0.39378 0.64435 0.0
H98 H 0.39718 0.39262 0.65462 0.0
H99 H 0.38339 0.33877 0.62291 0.0
O100 O 0.30086 0.37725 0.67878 0.0
C101 C 0.32794 0.33539 0.64294 0.0
Co102 Co 0.65921 0.82717 0.17554 0.0
Co103 Co 0.67272 0.86445 0.158 0.0
C104 C 0.68569 0.85077 0.19662 0.0
O105 O 0.67566 0.83604 0.1962 0.0
O106 O 0.68532 0.86249 0.1832 0.0
C107 C 0.64993 0.78772 0.17697 0.0
O108 O 0.66617 0.78438 0.16916 0.0
C109 C 0.67109 0.90505 0.15832 0.0
C110 C 0.67952 0.91252 0.12966 0.0
C111 C 0.67279 0.92008 0.14618 0.0
N112 N 0.67606 0.8894 0.14923 0.0
N113 N 0.68132 0.89398 0.13217 0.0
C114 C 0.66504 0.90541 0.17833 0.0
H115 H 0.67189 0.8941 0.18627 0.0
H116 H 0.64975 0.90313 0.17916 0.0
H117 H 0.6685 0.91898 0.18493 0.0
C118 C 0.6221 0.84511 0.17046 0.0
N119 N 0.64089 0.84509 0.16874 0.0
N120 N 0.64612 0.85989 0.15932 0.0
C121 C 0.63055 0.86927 0.15385 0.0
C122 C 0.6148 0.86029 0.16096 0.0
C123 C 0.6111 0.83039 0.1803 0.0
H124 H 0.60752 0.81936 0.17009 0.0
H125 H 0.61928 0.82434 0.19193 0.0
H126 H 0.59784 0.83606 0.18591 0.0
O127 O 0.67615 0.82017 0.15482 0.0
O128 O 0.68666 0.8461 0.14169 0.0
H129 H 0.64256 0.88609 0.13215 0.0
H130 H 0.61737 0.88741 0.13382 0.0
C131 C 0.63055 0.88635 0.14189 0.0
H132 H 0.6316 0.8989 0.15087 0.0
H133 H 0.68548 0.88437 0.12204 0.0
O134 O 0.64551 0.80421 0.18173 0.0
C135 C 0.68651 0.82832 0.14294 0.0
Co136 Co 0.19294 0.36852 0.83789 0.0
Co137 Co 0.16148 0.35524 0.86457 0.0
C138 C 0.16467 0.33924 0.82612 0.0
O139 O 0.17877 0.34957 0.82326 0.0
O140 O 0.15588 0.34026 0.8415 0.0
C141 C 0.19443 0.38893 0.80708 0.0
O142 O 0.17662 0.38593 0.81034 0.0
C143 C 0.12269 0.35245 0.87366 0.0
C144 C 0.12156 0.3506 0.90436 0.0
C145 C 0.11043 0.35174 0.88855 0.0
N146 N 0.14022 0.35161 0.88021 0.0
N147 N 0.13953 0.35029 0.8986 0.0
C148 C 0.11801 0.35655 0.85369 0.0
H149 H 0.12959 0.36427 0.84691 0.0
H150 H 0.10503 0.36493 0.85259 0.0
H151 H 0.1159 0.34319 0.84613 0.0
C152 C 0.17981 0.40578 0.85032 0.0
N153 N 0.17848 0.38698 0.8503 0.0
N154 N 0.16433 0.38188 0.86075 0.0
C155 C 0.15589 0.39754 0.86739 0.0
C156 C 0.16534 0.41323 0.86073 0.0
C157 C 0.19563 0.41668 0.84207 0.0
H158 H 0.20844 0.40804 0.8413 0.0
H159 H 0.19171 0.42149 0.82791 0.0
H160 H 0.19858 0.42928 0.85062 0.0
O161 O 0.20805 0.35414 0.85615 0.0
O162 O 0.18533 0.3436 0.87483 0.0
H163 H 0.14168 0.38858 0.89204 0.0
H164 H 0.13566 0.41193 0.88461 0.0
C165 C 0.1391 0.39763 0.87978 0.0
H166 H 0.12697 0.39197 0.87203 0.0
H167 H 0.15126 0.35001 0.90723 0.0
O168 O 0.20649 0.38179 0.81803 0.0
C169 C 0.20259 0.34419 0.86993 0.0
Co170 Co 0.65659 0.70224 0.34211 0.0
Co171 Co 0.67139 0.66664 0.3618 0.0
C172 C 0.68462 0.67541 0.32393 0.0
O173 O 0.675 0.69028 0.32486 0.0
O174 O 0.68368 0.66339 0.33692 0.0
C175 C 0.63356 0.70618 0.31374 0.0
O176 O 0.63735 0.6883 0.31514 0.0
C177 C 0.67604 0.62708 0.3685 0.0
C178 C 0.67721 0.62481 0.39919 0.0
C179 C 0.67648 0.61428 0.38298 0.0
N180 N 0.67607 0.64436 0.37576 0.0
N181 N 0.67703 0.64295 0.39413 0.0
C182 C 0.67596 0.62315 0.34795 0.0
H183 H 0.68908 0.62861 0.34182 0.0
H184 H 0.66414 0.63057 0.34124 0.0
H185 H 0.67527 0.60807 0.34473 0.0
C186 C 0.62033 0.68753 0.35543 0.0
N187 N 0.63909 0.68622 0.35402 0.0
N188 N 0.64459 0.67009 0.36066 0.0
C189 C 0.62919 0.66027 0.36588 0.0
C190 C 0.6132 0.671 0.36248 0.0
C191 C 0.60933 0.70486 0.35147 0.0
H192 H 0.6184 0.71737 0.35222 0.0
H193 H 0.60299 0.7039 0.33739 0.0
H194 H 0.59775 0.70631 0.36167 0.0
O195 O 0.67247 0.71508 0.36056 0.0
O196 O 0.68487 0.68931 0.373 0.0
H197 H 0.63768 0.64044 0.38642 0.0
H198 H 0.61544 0.63519 0.37567 0.0
C199 C 0.62967 0.64075 0.37319 0.0
H200 H 0.6369 0.63164 0.363 0.0
H201 H 0.67675 0.65433 0.40323 0.0
O202 O 0.64159 0.71756 0.32483 0.0
C203 C 0.68429 0.70716 0.37134 0.0
Co204 Co 0.3214 0.16196 0.85095 0.0
Co205 Co 0.35945 0.17429 0.86771 0.0
C206 C 0.34521 0.18689 0.82898 0.0
O207 O 0.33051 0.1768 0.82927 0.0
O208 O 0.35675 0.18668 0.84258 0.0
C209 C 0.28166 0.15416 0.85221 0.0
O210 O 0.27948 0.17068 0.85983 0.0
C211 C 0.40012 0.17257 0.8663 0.0
C212 C 0.40842 0.18369 0.89383 0.0
C213 C 0.41559 0.17617 0.87749 0.0
N214 N 0.38465 0.17747 0.87573 0.0
N215 N 0.38969 0.18417 0.89215 0.0
C216 C 0.39986 0.16529 0.84671 0.0
H217 H 0.38681 0.16932 0.83951 0.0
H218 H 0.40045 0.14984 0.84692 0.0
H219 H 0.41203 0.17062 0.83875 0.0
C220 C 0.33766 0.12446 0.85667 0.0
N221 N 0.33862 0.1432 0.85811 0.0
N222 N 0.35401 0.14787 0.86687 0.0
C223 C 0.363 0.13198 0.87201 0.0
C224 C 0.35285 0.11649 0.86574 0.0
C225 C 0.32334 0.11435 0.84531 0.0
H226 H 0.31155 0.11042 0.85446 0.0
H227 H 0.31813 0.12334 0.83386 0.0
H228 H 0.32928 0.10139 0.83925 0.0
O229 O 0.3158 0.18047 0.87079 0.0
O230 O 0.34231 0.18929 0.88405 0.0
H231 H 0.38118 0.14402 0.89263 0.0
H232 H 0.38073 0.11875 0.89234 0.0
C233 C 0.38037 0.13151 0.88357 0.0
H234 H 0.39272 0.13127 0.87426 0.0
H235 H 0.38034 0.18888 0.90228 0.0
O236 O 0.2976 0.149 0.84638 0.0
C237 C 0.3246 0.19052 0.88249 0.0
Co238 Co 0.87148 0.8296 0.33983 0.0
Co239 Co 0.85725 0.86435 0.36127 0.0
C240 C 0.84275 0.85674 0.32349 0.0
O241 O 0.85253 0.84196 0.32363 0.0
O242 O 0.844 0.86834 0.33686 0.0
C243 C 0.89337 0.82654 0.31051 0.0
O244 O 0.88964 0.84437 0.31261 0.0
C245 C 0.85387 0.90374 0.36831 0.0
C246 C 0.8511 0.906 0.39889 0.0
C247 C 0.8527 0.91655 0.38274 0.0
N248 N 0.85289 0.88647 0.37549 0.0
N249 N 0.85101 0.88786 0.39378 0.0
C250 C 0.85844 0.90766 0.34828 0.0
H251 H 0.86635 0.89587 0.34213 0.0
H252 H 0.86683 0.92061 0.3469 0.0
H253 H 0.84526 0.90941 0.34035 0.0
C254 C 0.90818 0.84378 0.35258 0.0
N255 N 0.8894 0.84523 0.35163 0.0
N256 N 0.88407 0.86088 0.35948 0.0
C257 C 0.89962 0.87016 0.36529 0.0
C258 C 0.91546 0.85967 0.3608 0.0
C259 C 0.91915 0.82685 0.34709 0.0
H260 H 0.92506 0.82888 0.33294 0.0
H261 H 0.93105 0.82479 0.35681 0.0
H262 H 0.9102 0.81423 0.34725 0.0
O263 O 0.8563 0.81621 0.35848 0.0
O264 O 0.84407 0.84144 0.37226 0.0
H265 H 0.91362 0.89297 0.37932 0.0
H266 H 0.89417 0.89944 0.36477 0.0
C267 C 0.89945 0.88881 0.37466 0.0
H268 H 0.88996 0.88841 0.38685 0.0
H269 H 0.85051 0.87647 0.40283 0.0
O270 O 0.88579 0.81483 0.32155 0.0
C271 C 0.8448 0.82365 0.36995 0.0
Co272 Co 0.68768 0.19688 0.15569 0.0
Co273 Co 0.66101 0.16539 0.16903 0.0
C274 C 0.69967 0.16811 0.18442 0.0
O275 O 0.70251 0.18239 0.17434 0.0
O276 O 0.68423 0.15944 0.18341 0.0
C277 C 0.71802 0.19788 0.13459 0.0
O278 O 0.71438 0.18016 0.13761 0.0
C279 C 0.65093 0.12667 0.17152 0.0
C280 C 0.62019 0.12647 0.1737 0.0
C281 C 0.6356 0.1149 0.17186 0.0
N282 N 0.64494 0.14438 0.1727 0.0
N283 N 0.62654 0.14423 0.17425 0.0
C284 C 0.67116 0.12138 0.17034 0.0
H285 H 0.67784 0.12422 0.184 0.0
H286 H 0.67827 0.1301 0.1597 0.0
H287 H 0.67328 0.10642 0.16717 0.0
C288 C 0.67462 0.18418 0.11851 0.0
N289 N 0.67476 0.18272 0.1373 0.0
N290 N 0.66465 0.16832 0.14235 0.0
C291 C 0.65827 0.15973 0.12664 0.0
C292 C 0.66466 0.16942 0.11094 0.0
C293 C 0.68226 0.20044 0.10782 0.0
H294 H 0.68293 0.21304 0.11677 0.0
H295 H 0.69642 0.19704 0.10259 0.0
H296 H 0.67334 0.20345 0.09551 0.0
O297 O 0.66987 0.21207 0.17053 0.0
O298 O 0.65126 0.18934 0.18113 0.0
H299 H 0.63416 0.14439 0.13527 0.0
H300 H 0.64257 0.13821 0.11228 0.0
C301 C 0.6468 0.14231 0.12658 0.0
H302 H 0.65507 0.1308 0.13272 0.0
H303 H 0.61828 0.1562 0.17493 0.0
O304 O 0.70756 0.21018 0.14207 0.0
C305 C 0.65625 0.20658 0.1807 0.0
Co306 Co 0.8288 0.17798 0.66069 0.0
Co307 Co 0.86467 0.15737 0.67331 0.0
C308 C 0.85344 0.19673 0.68743 0.0
O309 O 0.83895 0.19804 0.67712 0.0
O310 O 0.86375 0.18217 0.68684 0.0
C311 C 0.78948 0.17922 0.65058 0.0
O312 O 0.78582 0.16982 0.66585 0.0
C313 C 0.90518 0.15631 0.67116 0.0
C314 C 0.91196 0.12752 0.67974 0.0
C315 C 0.91991 0.14381 0.67294 0.0
N316 N 0.88931 0.14765 0.6762 0.0
N317 N 0.89346 0.13049 0.68149 0.0
C318 C 0.90603 0.17628 0.66506 0.0
H319 H 0.89451 0.18441 0.67132 0.0
H320 H 0.90449 0.17707 0.64969 0.0
H321 H 0.91956 0.1827 0.66909 0.0
C322 C 0.84661 0.17347 0.62336 0.0
N323 N 0.84622 0.17077 0.64202 0.0
N324 N 0.86012 0.15984 0.64682 0.0
C325 C 0.86909 0.15428 0.63106 0.0
C326 C 0.86092 0.16293 0.61564 0.0
C327 C 0.83333 0.18568 0.61285 0.0
H328 H 0.82329 0.17675 0.60519 0.0
H329 H 0.82589 0.19536 0.62228 0.0
H330 H 0.84085 0.19414 0.60234 0.0
O331 O 0.82103 0.15714 0.67728 0.0
O332 O 0.84587 0.1413 0.68662 0.0
H333 H 0.88459 0.13134 0.6426 0.0
H334 H 0.88553 0.13308 0.61743 0.0
C335 C 0.88529 0.14112 0.63065 0.0
H336 H 0.89848 0.14917 0.63147 0.0
H337 H 0.88361 0.12065 0.68577 0.0
O338 O 0.80592 0.18501 0.64728 0.0
C339 C 0.82826 0.14403 0.68679 0.0
Co340 Co 0.85197 0.32108 0.16253 0.0
Co341 Co 0.86794 0.35947 0.17494 0.0
C342 C 0.82938 0.34466 0.18733 0.0
O343 O 0.83012 0.32989 0.17736 0.0
O344 O 0.8427 0.35653 0.1871 0.0
C345 C 0.85325 0.28131 0.15507 0.0
O346 O 0.86057 0.27929 0.17174 0.0
C347 C 0.86611 0.40015 0.1733 0.0
C348 C 0.8936 0.40866 0.18438 0.0
C349 C 0.87718 0.41571 0.17691 0.0
N350 N 0.87569 0.38476 0.17815 0.0
N351 N 0.89208 0.38994 0.18483 0.0
C352 C 0.8465 0.39973 0.16605 0.0
H353 H 0.83941 0.38662 0.17004 0.0
H354 H 0.84669 0.40038 0.1506 0.0
H355 H 0.83843 0.41181 0.17143 0.0
C356 C 0.85793 0.33727 0.12503 0.0
N357 N 0.85906 0.33836 0.14379 0.0
N358 N 0.86742 0.35395 0.1485 0.0
C359 C 0.87258 0.36297 0.13263 0.0
C360 C 0.86677 0.3526 0.11712 0.0
C361 C 0.84717 0.32256 0.11482 0.0
H362 H 0.85672 0.31095 0.11132 0.0
H363 H 0.83559 0.31722 0.12357 0.0
H364 H 0.84132 0.32816 0.10163 0.0
O365 O 0.8718 0.31574 0.18105 0.0
O366 O 0.88432 0.34249 0.19018 0.0
H367 H 0.89275 0.38161 0.14473 0.0
H368 H 0.89248 0.38123 0.11945 0.0
C369 C 0.88372 0.38061 0.1322 0.0
H370 H 0.87409 0.39271 0.13202 0.0
H371 H 0.90231 0.38068 0.1895 0.0
O372 O 0.84762 0.29721 0.14965 0.0
C373 C 0.88316 0.32475 0.19129 0.0
Co374 Co 0.70365 0.34063 0.6568 0.0
Co375 Co 0.66763 0.35995 0.67104 0.0
C376 C 0.67644 0.32222 0.68437 0.0
O377 O 0.6915 0.32333 0.67504 0.0
O378 O 0.66425 0.33505 0.68319 0.0
C379 C 0.70815 0.31241 0.63366 0.0
O380 O 0.69021 0.3135 0.63735 0.0
C381 C 0.628 0.36693 0.67529 0.0
C382 C 0.62602 0.39766 0.67591 0.0
C383 C 0.61532 0.38155 0.67532 0.0
N384 N 0.64536 0.37402 0.6754 0.0
N385 N 0.64412 0.39241 0.67606 0.0
C386 C 0.62386 0.34643 0.67549 0.0
H387 H 0.63104 0.33951 0.66364 0.0
H388 H 0.60871 0.34339 0.67505 0.0
H389 H 0.62946 0.34037 0.68857 0.0
C390 C 0.68937 0.35382 0.62038 0.0
N391 N 0.68779 0.35244 0.6391 0.0
N392 N 0.67146 0.35881 0.64433 0.0
C393 C 0.66176 0.36378 0.62877 0.0
C394 C 0.6728 0.36051 0.61298 0.0
C395 C 0.70696 0.35018 0.60966 0.0
H396 H 0.71932 0.35101 0.61895 0.0
H397 H 0.70631 0.33617 0.60314 0.0
H398 H 0.70847 0.36053 0.59823 0.0
O399 O 0.7162 0.35915 0.6728 0.0
O400 O 0.69006 0.37116 0.6849 0.0
H401 H 0.64142 0.38404 0.63678 0.0
H402 H 0.63669 0.37297 0.61459 0.0
C403 C 0.64208 0.37073 0.62892 0.0
H404 H 0.63306 0.36047 0.63613 0.0
H405 H 0.65559 0.40139 0.67574 0.0
O406 O 0.71932 0.32354 0.64193 0.0
C407 C 0.70796 0.36974 0.68457 0.0
Co408 Co 0.67468 0.32252 0.3658 0.0
Co409 Co 0.65982 0.36139 0.35338 0.0
C410 C 0.698 0.34589 0.34118 0.0
O411 O 0.6967 0.33103 0.35093 0.0
O412 O 0.68507 0.35818 0.34147 0.0
C413 C 0.67332 0.28274 0.37279 0.0
O414 O 0.66607 0.28104 0.35606 0.0
C415 C 0.66175 0.4023 0.35428 0.0
C416 C 0.63318 0.41028 0.34588 0.0
C417 C 0.65007 0.41761 0.35191 0.0
N418 N 0.65207 0.38672 0.35025 0.0
N419 N 0.63505 0.3916 0.34509 0.0
C420 C 0.68196 0.4024 0.3597 0.0
H421 H 0.68925 0.39013 0.35386 0.0
H422 H 0.68321 0.40174 0.3751 0.0
H423 H 0.68893 0.4153 0.35472 0.0
C424 C 0.66953 0.33916 0.40333 0.0
N425 N 0.66795 0.33997 0.38458 0.0
N426 N 0.66016 0.35585 0.37983 0.0
C427 C 0.65583 0.36533 0.3957 0.0
C428 C 0.66182 0.3551 0.41116 0.0
C429 C 0.6778 0.32305 0.41366 0.0
H430 H 0.66718 0.31186 0.41436 0.0
H431 H 0.69026 0.31773 0.40618 0.0
H432 H 0.68174 0.32681 0.42814 0.0
O433 O 0.65486 0.31743 0.34718 0.0
O434 O 0.64346 0.34456 0.33781 0.0
H435 H 0.63647 0.38529 0.38454 0.0
H436 H 0.63914 0.38612 0.40966 0.0
C437 C 0.64653 0.384 0.39622 0.0
H438 H 0.65723 0.39508 0.39488 0.0
H439 H 0.62457 0.38216 0.34143 0.0
O440 O 0.67889 0.29856 0.37856 0.0
C441 C 0.64406 0.32679 0.33669 0.0
Co442 Co 0.70473 0.17054 0.86526 0.0
Co443 Co 0.66664 0.15498 0.85144 0.0
C444 C 0.68061 0.19303 0.83935 0.0
O445 O 0.69564 0.1914 0.84886 0.0
O446 O 0.66806 0.18037 0.83973 0.0
C447 C 0.74412 0.17287 0.87379 0.0
O448 O 0.74693 0.16533 0.85733 0.0
C449 C 0.62608 0.15446 0.84808 0.0
C450 C 0.62007 0.12449 0.84407 0.0
C451 C 0.6116 0.14174 0.84621 0.0
N452 N 0.64233 0.14516 0.84708 0.0
N453 N 0.63867 0.12728 0.84444 0.0
C454 C 0.62462 0.17475 0.85284 0.0
H455 H 0.63732 0.17947 0.86036 0.0
H456 H 0.61211 0.17748 0.86156 0.0
H457 H 0.62335 0.18291 0.83976 0.0
C458 C 0.68718 0.16461 0.90221 0.0
N459 N 0.68682 0.16333 0.88344 0.0
N460 N 0.6708 0.15615 0.87813 0.0
C461 C 0.66049 0.1525 0.89364 0.0
C462 C 0.67054 0.1579 0.90947 0.0
C463 C 0.70376 0.17107 0.91308 0.0
H464 H 0.71523 0.16104 0.91054 0.0
H465 H 0.70816 0.18506 0.90814 0.0
H466 H 0.70106 0.17159 0.9283 0.0
O467 O 0.71196 0.15016 0.84835 0.0
O468 O 0.68534 0.13937 0.83695 0.0
H469 H 0.64022 0.13297 0.88356 0.0
H470 H 0.63658 0.14033 0.90747 0.0
C471 C 0.64105 0.1449 0.89337 0.0
H472 H 0.63135 0.1559 0.88849 0.0
H473 H 0.64885 0.1169 0.84361 0.0
O474 O 0.7277 0.17722 0.87888 0.0
C475 C 0.70318 0.13947 0.83727 0.0
Co476 Co 0.83823 0.19356 0.36942 0.0
Co477 Co 0.86442 0.1617 0.35618 0.0
C478 C 0.82607 0.16516 0.34029 0.0
O479 O 0.82346 0.17941 0.35048 0.0
O480 O 0.8413 0.15613 0.34136 0.0
C481 C 0.80776 0.19474 0.3903 0.0
O482 O 0.8112 0.17701 0.38716 0.0
C483 C 0.87396 0.12295 0.3523 0.0
C484 C 0.90476 0.12234 0.35178 0.0
C485 C 0.8891 0.11095 0.35173 0.0
N486 N 0.88028 0.14059 0.35249 0.0
N487 N 0.89873 0.1402 0.35199 0.0
C488 C 0.8539 0.11779 0.35529 0.0
H489 H 0.84672 0.1287 0.3636 0.0
H490 H 0.85263 0.10423 0.36265 0.0
H491 H 0.84686 0.11662 0.34154 0.0
C492 C 0.85104 0.18088 0.40652 0.0
N493 N 0.85077 0.17919 0.38777 0.0
N494 N 0.86058 0.16457 0.3828 0.0
C495 C 0.86685 0.15601 0.39854 0.0
C496 C 0.86074 0.16601 0.4142 0.0
C497 C 0.844 0.1976 0.41695 0.0
H498 H 0.84377 0.21004 0.40777 0.0
H499 H 0.82971 0.19484 0.42219 0.0
H500 H 0.85303 0.20055 0.4292 0.0
O501 O 0.85641 0.20861 0.35503 0.0
O502 O 0.87469 0.1856 0.34442 0.0
H503 H 0.89143 0.14082 0.39113 0.0
H504 H 0.88109 0.13356 0.41299 0.0
C505 C 0.87811 0.13843 0.39862 0.0
H506 H 0.87033 0.12734 0.39118 0.0
H507 H 0.90718 0.15205 0.35257 0.0
O508 O 0.81842 0.20697 0.383 0.0
C509 C 0.87005 0.20293 0.34499 0.0
Co510 Co 0.83379 0.33844 0.8706 0.0
Co511 Co 0.866 0.36404 0.85707 0.0
C512 C 0.86226 0.32551 0.84188 0.0
O513 O 0.84795 0.32328 0.85206 0.0
O514 O 0.87159 0.34058 0.84277 0.0
C515 C 0.8322 0.30825 0.89171 0.0
O516 O 0.85 0.31151 0.88866 0.0
C517 C 0.90484 0.37329 0.85408 0.0
C518 C 0.90567 0.40397 0.85174 0.0
C519 C 0.91696 0.38829 0.85305 0.0
N520 N 0.88724 0.37967 0.85326 0.0
N521 N 0.88776 0.39804 0.85168 0.0
C522 C 0.90974 0.35341 0.85829 0.0
H523 H 0.89833 0.34663 0.86627 0.0
H524 H 0.92287 0.3525 0.86646 0.0
H525 H 0.91166 0.34573 0.84498 0.0
C526 C 0.84667 0.35156 0.90772 0.0
N527 N 0.84813 0.3512 0.88893 0.0
N528 N 0.86272 0.36101 0.88378 0.0
C529 C 0.8713 0.36753 0.89944 0.0
C530 C 0.86146 0.36151 0.91514 0.0
C531 C 0.83064 0.34378 0.91865 0.0
H532 H 0.81791 0.3429 0.9099 0.0
H533 H 0.83436 0.32972 0.92392 0.0
H534 H 0.82769 0.3527 0.93098 0.0
O535 O 0.81905 0.35621 0.85531 0.0
O536 O 0.84246 0.37381 0.84442 0.0
H537 H 0.88674 0.39136 0.89024 0.0
H538 H 0.89213 0.38404 0.91379 0.0
C539 C 0.88865 0.37914 0.89951 0.0
H540 H 0.90046 0.37075 0.89411 0.0
H541 H 0.87595 0.40655 0.85131 0.0
O542 O 0.82009 0.31894 0.88422 0.0
C543 C 0.8251 0.36925 0.8447 0.0
Co544 Co 0.15505 0.68801 0.1968 0.0
Co545 Co 0.16892 0.66272 0.16441 0.0
C546 C 0.18399 0.70122 0.16861 0.0
O547 O 0.17382 0.70328 0.18297 0.0
O548 O 0.18306 0.68627 0.15912 0.0
C549 C 0.13346 0.71792 0.19826 0.0
O550 O 0.13684 0.71478 0.18051 0.0
C551 C 0.17194 0.65334 0.12552 0.0
C552 C 0.17375 0.6226 0.12483 0.0
C553 C 0.1722 0.6382 0.1135 0.0
N554 N 0.17287 0.64706 0.14314 0.0
N555 N 0.17421 0.62866 0.14269 0.0
C556 C 0.17098 0.67364 0.12056 0.0
H557 H 0.18457 0.68023 0.12395 0.0
H558 H 0.16007 0.68062 0.12906 0.0
H559 H 0.16831 0.67603 0.10554 0.0
C560 C 0.11814 0.67478 0.18366 0.0
N561 N 0.13693 0.67526 0.18219 0.0
N562 N 0.14214 0.66585 0.16738 0.0
C563 C 0.12651 0.65963 0.15852 0.0
C564 C 0.1107 0.66536 0.16848 0.0
C565 C 0.10736 0.68155 0.20025 0.0
H566 H 0.11636 0.68194 0.21283 0.0
H567 H 0.1018 0.69571 0.19743 0.0
H568 H 0.09524 0.67227 0.20296 0.0
O569 O 0.17001 0.67009 0.21157 0.0
O570 O 0.18123 0.65272 0.18816 0.0
H571 H 0.13515 0.63615 0.14227 0.0
H572 H 0.11232 0.64504 0.13613 0.0
C573 C 0.12662 0.64894 0.14061 0.0
H574 H 0.13304 0.65763 0.12957 0.0
H575 H 0.17464 0.62022 0.15453 0.0
O576 O 0.14101 0.70736 0.21042 0.0
C577 C 0.18064 0.65706 0.20556 0.0
Co578 Co 0.16102 0.85128 0.3207 0.0
Co579 Co 0.17496 0.86715 0.3586 0.0
C580 C 0.18707 0.82884 0.34355 0.0
O581 O 0.17707 0.82994 0.32882 0.0
O582 O 0.1869 0.84183 0.35575 0.0
C583 C 0.15165 0.85223 0.28136 0.0
O584 O 0.16789 0.86029 0.27864 0.0
C585 C 0.17508 0.86597 0.39937 0.0
C586 C 0.18539 0.89403 0.4069 0.0
C587 C 0.17872 0.87754 0.41452 0.0
N588 N 0.17907 0.87534 0.38361 0.0
N589 N 0.18534 0.89206 0.38821 0.0
C590 C 0.16851 0.84612 0.39971 0.0
H591 H 0.17282 0.83865 0.38693 0.0
H592 H 0.15304 0.84578 0.40031 0.0
H593 H 0.17412 0.83874 0.41211 0.0
C594 C 0.12408 0.85638 0.33896 0.0
N595 N 0.14289 0.85789 0.33891 0.0
N596 N 0.14831 0.86651 0.35415 0.0
C597 C 0.13287 0.8716 0.36392 0.0
C598 C 0.11697 0.86515 0.35467 0.0
C599 C 0.1129 0.84718 0.32393 0.0
H600 H 0.10964 0.85774 0.31316 0.0
H601 H 0.12087 0.83556 0.31757 0.0
H602 H 0.09949 0.84174 0.32942 0.0
O603 O 0.17856 0.87169 0.31438 0.0
O604 O 0.18949 0.88339 0.34082 0.0
H605 H 0.14526 0.89207 0.38201 0.0
H606 H 0.12003 0.89057 0.38341 0.0
C607 C 0.13313 0.88247 0.38174 0.0
H608 H 0.13422 0.8727 0.39366 0.0
H609 H 0.18928 0.90224 0.37858 0.0
O610 O 0.14718 0.84635 0.29747 0.0
C611 C 0.18936 0.8828 0.32302 0.0
Co612 Co 0.17603 0.66089 0.82524 0.0
Co613 Co 0.15703 0.6728 0.86227 0.0
C614 C 0.19603 0.68679 0.85 0.0
O615 O 0.19648 0.67685 0.83521 0.0
O616 O 0.182 0.68613 0.86101 0.0
C617 C 0.17781 0.65284 0.78555 0.0
O618 O 0.17038 0.66931 0.78255 0.0
C619 C 0.15668 0.66966 0.90272 0.0
C620 C 0.12846 0.67946 0.9103 0.0
C621 C 0.14466 0.67191 0.91779 0.0
N622 N 0.14785 0.67523 0.88714 0.0
N623 N 0.13102 0.68119 0.89175 0.0
C624 C 0.17644 0.66279 0.90296 0.0
H625 H 0.18422 0.66801 0.89071 0.0
H626 H 0.17654 0.64734 0.9023 0.0
H627 H 0.18363 0.66728 0.91593 0.0
C628 C 0.17079 0.62329 0.84129 0.0
N629 N 0.16894 0.64199 0.84223 0.0
N630 N 0.15905 0.64641 0.85698 0.0
C631 C 0.15353 0.63037 0.86546 0.0
C632 C 0.16077 0.6151 0.85571 0.0
C633 C 0.18314 0.61341 0.82767 0.0
H634 H 0.17474 0.60915 0.81545 0.0
H635 H 0.19467 0.62264 0.82304 0.0
H636 H 0.18915 0.60062 0.83402 0.0
O637 O 0.15526 0.67782 0.81843 0.0
O638 O 0.14057 0.68672 0.84414 0.0
H639 H 0.13119 0.64186 0.88189 0.0
H640 H 0.13194 0.61661 0.88119 0.0
C641 C 0.14049 0.62951 0.88174 0.0
H642 H 0.1487 0.62925 0.89485 0.0
H643 H 0.12115 0.68606 0.88221 0.0
O644 O 0.1824 0.64792 0.80194 0.0
C645 C 0.1426 0.68733 0.82644 0.0
Co646 Co 0.36874 0.67793 0.32589 0.0
Co647 Co 0.35388 0.66287 0.36348 0.0
C648 C 0.34287 0.7005 0.35163 0.0
O649 O 0.35201 0.69776 0.33663 0.0
O650 O 0.34335 0.68854 0.36471 0.0
C651 C 0.39445 0.70301 0.31622 0.0
O652 O 0.39177 0.70567 0.33416 0.0
C653 C 0.35024 0.65929 0.40366 0.0
C654 C 0.34797 0.62886 0.40785 0.0
C655 C 0.3499 0.64561 0.41734 0.0
N656 N 0.3491 0.651 0.38688 0.0
N657 N 0.34742 0.63282 0.38946 0.0
C658 C 0.35126 0.68001 0.40628 0.0
H659 H 0.33869 0.68645 0.39997 0.0
H660 H 0.36364 0.68563 0.39888 0.0
H661 H 0.35164 0.6841 0.42118 0.0
C662 C 0.40457 0.66305 0.34083 0.0
N663 N 0.38606 0.66642 0.34246 0.0
N664 N 0.38061 0.6623 0.35943 0.0
C665 C 0.39592 0.65736 0.36951 0.0
C666 C 0.41165 0.65771 0.358 0.0
C667 C 0.41552 0.66454 0.32308 0.0
H668 H 0.42412 0.6774 0.32341 0.0
H669 H 0.42525 0.65259 0.32173 0.0
H670 H 0.40617 0.66458 0.31078 0.0
O671 O 0.35142 0.65951 0.31537 0.0
O672 O 0.33884 0.6505 0.34238 0.0
H673 H 0.4098 0.64838 0.39476 0.0
H674 H 0.38994 0.6636 0.39804 0.0
C675 C 0.39561 0.65192 0.38963 0.0
H676 H 0.38635 0.63968 0.39149 0.0
H677 H 0.34686 0.62305 0.37867 0.0
O678 O 0.38422 0.69125 0.30767 0.0
C679 C 0.33909 0.6504 0.32445 0.0
Co680 Co 0.3383 0.87113 0.8285 0.0
Co681 Co 0.36245 0.85698 0.86164 0.0
C682 C 0.3238 0.84274 0.85662 0.0
O683 O 0.32242 0.85279 0.84212 0.0
O684 O 0.33844 0.84349 0.86661 0.0
C685 C 0.30872 0.893 0.82638 0.0
O686 O 0.31166 0.88978 0.84419 0.0
C687 C 0.37108 0.8548 0.9007 0.0
C688 C 0.40163 0.85089 0.90194 0.0
C689 C 0.386 0.85389 0.91297 0.0
N690 N 0.37755 0.85285 0.88323 0.0
N691 N 0.39581 0.85025 0.88401 0.0
C692 C 0.35079 0.85721 0.90527 0.0
H693 H 0.34461 0.86811 0.89618 0.0
H694 H 0.34835 0.86066 0.92011 0.0
H695 H 0.34342 0.84392 0.9023 0.0
C696 C 0.35186 0.90793 0.84191 0.0
N697 N 0.35105 0.88914 0.8433 0.0
N698 N 0.36021 0.88376 0.85822 0.0
C699 C 0.36675 0.89926 0.86706 0.0
C700 C 0.36139 0.91511 0.85708 0.0
C701 C 0.34487 0.91906 0.82567 0.0
H702 H 0.34414 0.91032 0.81293 0.0
H703 H 0.33085 0.92474 0.82896 0.0
H704 H 0.35424 0.93112 0.82302 0.0
O705 O 0.35622 0.85546 0.81431 0.0
O706 O 0.37253 0.84406 0.83838 0.0
H707 H 0.38951 0.88928 0.8836 0.0
H708 H 0.383 0.91319 0.88837 0.0
C709 C 0.37763 0.8991 0.88485 0.0
H710 H 0.36847 0.89429 0.89633 0.0
H711 H 0.40438 0.84881 0.87233 0.0
O712 O 0.31936 0.88526 0.81439 0.0
C713 C 0.36869 0.84447 0.82086 0.0
Co714 Co 0.36915 0.84401 0.19534 0.0
Co715 Co 0.35528 0.86578 0.16071 0.0
C716 C 0.34166 0.82681 0.16833 0.0
O717 O 0.35182 0.82593 0.18288 0.0
O718 O 0.34202 0.84125 0.158 0.0
C719 C 0.39025 0.81483 0.2085 0.0
O720 O 0.38648 0.80899 0.19153 0.0
C721 C 0.35247 0.87129 0.12095 0.0
C722 C 0.34976 0.90182 0.11787 0.0
C723 C 0.35165 0.8854 0.10778 0.0
N724 N 0.35113 0.87895 0.138 0.0
N725 N 0.3492 0.89719 0.13611 0.0
C726 C 0.35709 0.85117 0.11764 0.0
H727 H 0.36458 0.84529 0.12983 0.0
H728 H 0.36585 0.84946 0.10498 0.0
H729 H 0.34394 0.84324 0.11564 0.0
C730 C 0.40638 0.85511 0.18025 0.0
N731 N 0.38752 0.85472 0.17933 0.0
N732 N 0.38206 0.86347 0.16419 0.0
C733 C 0.3975 0.86934 0.15481 0.0
C734 C 0.41345 0.86395 0.16462 0.0
C735 C 0.41772 0.84889 0.19663 0.0
H736 H 0.40991 0.85126 0.20974 0.0
H737 H 0.42112 0.83389 0.19504 0.0
H738 H 0.4311 0.85668 0.19743 0.0
O739 O 0.3532 0.86322 0.20713 0.0
O740 O 0.34226 0.87859 0.18247 0.0
H741 H 0.38761 0.89176 0.13777 0.0
H742 H 0.41125 0.88454 0.13261 0.0
C743 C 0.39713 0.87963 0.13667 0.0
H744 H 0.39184 0.87025 0.12558 0.0
H745 H 0.34847 0.90654 0.14725 0.0
O746 O 0.3829 0.82989 0.21427 0.0
C747 C 0.34265 0.87571 0.20011 0.0
Co748 Co 0.17282 0.86406 0.70479 0.0
Co749 Co 0.15712 0.85051 0.66663 0.0
C750 C 0.19487 0.83739 0.68211 0.0
O751 O 0.19375 0.84733 0.69688 0.0
O752 O 0.18206 0.83787 0.66972 0.0
C753 C 0.17265 0.87273 0.74425 0.0
O754 O 0.16509 0.85624 0.74684 0.0
C755 C 0.15861 0.84962 0.62579 0.0
C756 C 0.12977 0.84169 0.61828 0.0
C757 C 0.14678 0.84691 0.61065 0.0
N758 N 0.14891 0.84656 0.64157 0.0
N759 N 0.13172 0.84167 0.63698 0.0
C760 C 0.17897 0.85449 0.62536 0.0
H761 H 0.18623 0.8489 0.63774 0.0
H762 H 0.18064 0.86986 0.62551 0.0
H763 H 0.18569 0.84886 0.61259 0.0
C764 C 0.16916 0.90098 0.6866 0.0
N765 N 0.16698 0.88227 0.6865 0.0
N766 N 0.15876 0.87716 0.67094 0.0
C767 C 0.15475 0.89277 0.66094 0.0
C768 C 0.16143 0.90842 0.67049 0.0
C769 C 0.17763 0.91163 0.70241 0.0
H770 H 0.16712 0.91261 0.71367 0.0
H771 H 0.1901 0.90419 0.70778 0.0
H772 H 0.18161 0.926 0.69838 0.0
O773 O 0.15167 0.84758 0.71094 0.0
O774 O 0.14005 0.83675 0.68443 0.0
H775 H 0.13457 0.88143 0.64189 0.0
H776 H 0.13797 0.90639 0.63999 0.0
C777 C 0.145 0.89284 0.64249 0.0
H778 H 0.15538 0.89071 0.63123 0.0
H779 H 0.12121 0.83872 0.64661 0.0
O780 O 0.17801 0.87767 0.72809 0.0
C781 C 0.14026 0.83717 0.70224 0.0
Co782 Co 0.34236 0.65439 0.70276 0.0
Co783 Co 0.36098 0.66858 0.66635 0.0
C784 C 0.32333 0.6817 0.67571 0.0
O785 O 0.32481 0.67248 0.69078 0.0
O786 O 0.33593 0.68051 0.66327 0.0
C787 C 0.31428 0.6312 0.70739 0.0
O788 O 0.31553 0.63474 0.68945 0.0
C789 C 0.36722 0.67235 0.62659 0.0
C790 C 0.39793 0.67309 0.62405 0.0
C791 C 0.38162 0.67219 0.61367 0.0
N792 N 0.37463 0.67283 0.64381 0.0
N793 N 0.39301 0.67356 0.64222 0.0
C794 C 0.34663 0.67234 0.62283 0.0
H795 H 0.34056 0.68546 0.62833 0.0
H796 H 0.33993 0.66056 0.63031 0.0
H797 H 0.34332 0.67162 0.60775 0.0
C798 C 0.35572 0.61804 0.68851 0.0
N799 N 0.35415 0.63673 0.68685 0.0
N800 N 0.36018 0.64191 0.67038 0.0
C801 C 0.36512 0.62633 0.6607 0.0
C802 C 0.3622 0.6106 0.67188 0.0
C803 C 0.35233 0.60741 0.70618 0.0
H804 H 0.35329 0.61678 0.71846 0.0
H805 H 0.33831 0.60088 0.70575 0.0
H806 H 0.36272 0.596 0.7076 0.0
O807 O 0.3609 0.67065 0.71492 0.0
O808 O 0.37236 0.68269 0.68852 0.0
H809 H 0.38491 0.63437 0.63991 0.0
H810 H 0.37398 0.61205 0.63556 0.0
C811 C 0.37169 0.62639 0.6409 0.0
H812 H 0.36115 0.63341 0.63204 0.0
H813 H 0.4022 0.67348 0.65352 0.0
O814 O 0.32536 0.63951 0.71858 0.0
C815 C 0.37122 0.68248 0.70643 0.0
C816 C 0.29847 0.32186 0.62992 0.0
C817 C 0.31743 0.31964 0.63443 0.0
C818 C 0.28692 0.30631 0.62713 0.0
C819 C 0.28663 0.25362 0.624 0.0
H820 H 0.2371 0.25998 0.64486 0.0
C821 C 0.23949 0.19276 0.6505 0.0
C822 C 0.22013 0.19389 0.64719 0.0
C823 C 0.25148 0.20732 0.64521 0.0
C824 C 0.25078 0.25797 0.63873 0.0
H825 H 0.33934 0.29927 0.6386 0.0
H826 H 0.31926 0.27218 0.6343 0.0
H827 H 0.25768 0.28672 0.64216 0.0
H828 H 0.19844 0.21106 0.63491 0.0
H829 H 0.21932 0.23645 0.62585 0.0
H830 H 0.27978 0.22451 0.62157 0.0
C831 C 0.31323 0.28588 0.63243 0.0
C832 C 0.26266 0.27341 0.63706 0.0
C833 C 0.32486 0.30149 0.63484 0.0
C834 C 0.21324 0.20961 0.63765 0.0
C835 C 0.2252 0.22428 0.63259 0.0
C836 C 0.27479 0.23809 0.62594 0.0
C837 C 0.29389 0.28803 0.62925 0.0
C838 C 0.28085 0.27154 0.62975 0.0
C839 C 0.24441 0.22351 0.63668 0.0
C840 C 0.25674 0.24006 0.63342 0.0
H841 H 0.29231 0.33565 0.6295 0.0
H842 H 0.27233 0.30871 0.62405 0.0
H843 H 0.30035 0.25149 0.61804 0.0
H844 H 0.24534 0.1809 0.65781 0.0
H845 H 0.26617 0.20628 0.64865 0.0
C846 C 0.80447 0.70849 0.12873 0.0
C847 C 0.82295 0.71489 0.13054 0.0
C848 C 0.78989 0.72102 0.12476 0.0
C849 C 0.77937 0.7716 0.13022 0.0
H850 H 0.73315 0.75888 0.10514 0.0
C851 C 0.71822 0.82413 0.12819 0.0
C852 C 0.70074 0.81669 0.13314 0.0
C853 C 0.73316 0.81229 0.12352 0.0
C854 C 0.74596 0.76267 0.11224 0.0
H855 H 0.84075 0.73919 0.12797 0.0
H856 H 0.81565 0.76076 0.12033 0.0
H857 H 0.75922 0.73687 0.10475 0.0
H858 H 0.68494 0.79099 0.13551 0.0
H859 H 0.71075 0.77052 0.12739 0.0
H860 H 0.76607 0.79716 0.13807 0.0
C861 C 0.81219 0.74624 0.12263 0.0
C862 C 0.76093 0.74999 0.11204 0.0
C863 C 0.82667 0.73379 0.12677 0.0
C864 C 0.69822 0.79724 0.13187 0.0
C865 C 0.71307 0.78544 0.12712 0.0
C866 C 0.76446 0.78425 0.13037 0.0
C867 C 0.79346 0.74024 0.12237 0.0
C868 C 0.77782 0.75417 0.12122 0.0
C869 C 0.73096 0.79273 0.12355 0.0
C870 C 0.74742 0.77992 0.1216 0.0
H871 H 0.80106 0.69409 0.13178 0.0
H872 H 0.7757 0.7158 0.12475 0.0
H873 H 0.7919 0.77527 0.13783 0.0
H874 H 0.72073 0.839 0.1291 0.0
H875 H 0.74663 0.81846 0.12051 0.0
C876 C 0.21015 0.31419 0.88653 0.0
C877 C 0.21623 0.33106 0.87857 0.0
C878 C 0.22299 0.30023 0.89144 0.0
C879 C 0.27197 0.2853 0.88074 0.0
H880 H 0.26154 0.2475 0.91796 0.0
C881 C 0.32275 0.22396 0.89274 0.0
C882 C 0.31423 0.20636 0.89103 0.0
C883 C 0.31189 0.24006 0.89532 0.0
C884 C 0.26468 0.25799 0.90755 0.0
H885 H 0.24075 0.34693 0.87076 0.0
H886 H 0.26313 0.32319 0.8802 0.0
H887 H 0.2408 0.27438 0.91496 0.0
H888 H 0.28777 0.19176 0.89228 0.0
H889 H 0.26894 0.2197 0.89731 0.0
H890 H 0.29588 0.26889 0.87342 0.0
C891 C 0.2484 0.32027 0.88195 0.0
C892 C 0.25269 0.27339 0.9057 0.0
C893 C 0.23555 0.33406 0.87673 0.0
C894 C 0.29478 0.20508 0.89358 0.0
C895 C 0.28397 0.22113 0.89646 0.0
C896 C 0.28407 0.27008 0.88279 0.0
C897 C 0.24234 0.30285 0.88882 0.0
C898 C 0.25595 0.28717 0.89204 0.0
C899 C 0.2923 0.2389 0.89657 0.0
C900 C 0.28044 0.25606 0.89601 0.0
H901 H 0.19538 0.31128 0.88798 0.0
H902 H 0.21758 0.28706 0.89645 0.0
H903 H 0.2749 0.29522 0.86975 0.0
H904 H 0.33765 0.22549 0.89063 0.0
H905 H 0.31876 0.25352 0.89556 0.0
C906 C 0.81216 0.81913 0.38212 0.0
C907 C 0.82983 0.81161 0.37798 0.0
C908 C 0.79684 0.80744 0.38565 0.0
C909 C 0.78135 0.75824 0.37702 0.0
H910 H 0.73792 0.77378 0.4053 0.0
C911 C 0.71683 0.71039 0.38429 0.0
C912 C 0.69976 0.71873 0.37921 0.0
C913 C 0.73273 0.72132 0.38765 0.0
C914 C 0.74996 0.76924 0.39736 0.0
H915 H 0.84545 0.78584 0.37574 0.0
H916 H 0.81916 0.76554 0.38291 0.0
H917 H 0.76595 0.79322 0.40533 0.0
H918 H 0.68591 0.7453 0.37502 0.0
H919 H 0.71352 0.76431 0.38132 0.0
H920 H 0.76535 0.73421 0.3692 0.0
C921 C 0.81681 0.78045 0.38262 0.0
C922 C 0.76606 0.78045 0.39726 0.0
C923 C 0.83204 0.79213 0.37876 0.0
C924 C 0.69876 0.73836 0.3789 0.0
C925 C 0.71462 0.74929 0.38252 0.0
C926 C 0.76539 0.74694 0.37736 0.0
C927 C 0.79877 0.78785 0.38545 0.0
C928 C 0.78198 0.77527 0.38687 0.0
C929 C 0.73196 0.74089 0.38631 0.0
C930 C 0.74939 0.75237 0.38733 0.0
H931 H 0.80985 0.83405 0.38144 0.0
H932 H 0.78329 0.81384 0.38755 0.0
H933 H 0.79298 0.75381 0.36845 0.0
H934 H 0.71822 0.69534 0.3846 0.0
H935 H 0.74581 0.7144 0.39076 0.0
C936 C 0.63251 0.29745 0.32147 0.0
C937 C 0.63567 0.31681 0.32048 0.0
C938 C 0.62984 0.28684 0.30523 0.0
C939 C 0.64462 0.28707 0.25641 0.0
H940 H 0.61179 0.24439 0.25124 0.0
C941 C 0.65013 0.23944 0.19158 0.0
C942 C 0.64793 0.22012 0.19419 0.0
C943 C 0.64516 0.25213 0.20563 0.0
C944 C 0.62123 0.25611 0.25247 0.0
H945 H 0.63736 0.34032 0.30156 0.0
H946 H 0.63273 0.3218 0.27322 0.0
H947 H 0.6088 0.26488 0.27832 0.0
H948 H 0.63815 0.19911 0.2136 0.0
H949 H 0.63007 0.22103 0.23825 0.0
H950 H 0.65776 0.27799 0.23125 0.0
C951 C 0.63237 0.31482 0.28661 0.0
C952 C 0.6194 0.26796 0.268 0.0
C953 C 0.63476 0.32549 0.3029 0.0
C954 C 0.63988 0.21389 0.21098 0.0
C955 C 0.63519 0.22657 0.22518 0.0
C956 C 0.64663 0.27512 0.24104 0.0
C957 C 0.63052 0.29527 0.28753 0.0
C958 C 0.63117 0.28353 0.27025 0.0
C959 C 0.63817 0.2459 0.22294 0.0
C960 C 0.63508 0.25932 0.23884 0.0
H961 H 0.63319 0.2903 0.33476 0.0
H962 H 0.6285 0.27184 0.30651 0.0
H963 H 0.65417 0.2987 0.25782 0.0
H964 H 0.65617 0.24478 0.17879 0.0
H965 H 0.64719 0.26686 0.20299 0.0
C966 C 0.79679 0.1322 0.69629 0.0
C967 C 0.81592 0.13418 0.70027 0.0
C968 C 0.78407 0.12734 0.71029 0.0
C969 C 0.77971 0.1114 0.76009 0.0
H970 H 0.73397 0.14024 0.75802 0.0
C971 C 0.73366 0.12773 0.82466 0.0
C972 C 0.71427 0.13009 0.82236 0.0
C973 C 0.74519 0.1237 0.8094 0.0
C974 C 0.74646 0.13176 0.75873 0.0
H975 H 0.83677 0.13158 0.72197 0.0
H976 H 0.81459 0.12337 0.74655 0.0
H977 H 0.75583 0.14161 0.73222 0.0
H978 H 0.69172 0.1287 0.80226 0.0
H979 H 0.7118 0.12142 0.77562 0.0
H980 H 0.77049 0.10216 0.78705 0.0
C981 C 0.80937 0.12529 0.73251 0.0
C982 C 0.7591 0.13253 0.74383 0.0
C983 C 0.82217 0.12995 0.71838 0.0
C984 C 0.70655 0.12689 0.8046 0.0
C985 C 0.71813 0.12297 0.78926 0.0
C986 C 0.76707 0.11071 0.77508 0.0
C987 C 0.79002 0.12458 0.72881 0.0
C988 C 0.77603 0.12252 0.74431 0.0
C989 C 0.73769 0.12199 0.79134 0.0
C990 C 0.75035 0.12105 0.77469 0.0
H991 H 0.79153 0.13519 0.68245 0.0
H992 H 0.76942 0.12637 0.70667 0.0
H993 H 0.79242 0.10327 0.76095 0.0
H994 H 0.74011 0.13006 0.83813 0.0
H995 H 0.76013 0.12313 0.81161 0.0
C996 C 0.88657 0.21028 0.31485 0.0
C997 C 0.8788 0.21643 0.33179 0.0
C998 C 0.89155 0.22307 0.30088 0.0
C999 C 0.88119 0.2721 0.28607 0.0
H1000 H 0.91838 0.26161 0.24821 0.0
C1001 C 0.89315 0.32296 0.22483 0.0
C1002 C 0.89172 0.31447 0.20718 0.0
C1003 C 0.89568 0.31208 0.24092 0.0
C1004 C 0.90797 0.26476 0.2587 0.0
H1005 H 0.87141 0.24102 0.34776 0.0
H1006 H 0.88091 0.26328 0.32396 0.0
H1007 H 0.91524 0.24079 0.27499 0.0
H1008 H 0.89345 0.28809 0.19251 0.0
H1009 H 0.89835 0.26925 0.22043 0.0
H1010 H 0.87396 0.29606 0.26975 0.0
C1011 C 0.88248 0.24855 0.32102 0.0
C1012 C 0.90605 0.25274 0.27405 0.0
C1013 C 0.87722 0.23575 0.33483 0.0
C1014 C 0.89452 0.29508 0.20588 0.0
C1015 C 0.89732 0.28425 0.22191 0.0
C1016 C 0.88329 0.28422 0.27088 0.0
C1017 C 0.88915 0.24243 0.30354 0.0
C1018 C 0.89241 0.25603 0.28787 0.0
C1019 C 0.89714 0.29251 0.23972 0.0
C1020 C 0.8965 0.28059 0.25684 0.0
H1021 H 0.88782 0.19551 0.31192 0.0
H1022 H 0.89641 0.21764 0.28765 0.0
H1023 H 0.87022 0.27505 0.29602 0.0
H1024 H 0.89084 0.33781 0.22639 0.0
H1025 H 0.8957 0.31891 0.25441 0.0
C1026 C 0.7928 0.37546 0.83228 0.0
C1027 C 0.81227 0.37679 0.83016 0.0
C1028 C 0.78078 0.37912 0.81726 0.0
C1029 C 0.77954 0.39675 0.76747 0.0
H1030 H 0.7356 0.36525 0.765 0.0
C1031 C 0.73881 0.37817 0.69932 0.0
C1032 C 0.71917 0.37761 0.70028 0.0
C1033 C 0.74955 0.38179 0.7153 0.0
C1034 C 0.74768 0.37434 0.76555 0.0
H1035 H 0.83428 0.38368 0.81059 0.0
H1036 H 0.81358 0.38935 0.78436 0.0
H1037 H 0.75524 0.36447 0.79259 0.0
H1038 H 0.69552 0.38133 0.71883 0.0
H1039 H 0.71427 0.38736 0.74666 0.0
H1040 H 0.77227 0.40571 0.73978 0.0
C1041 C 0.80736 0.38601 0.7977 0.0
C1042 C 0.75899 0.374 0.78151 0.0
C1043 C 0.81935 0.38272 0.81284 0.0
C1044 C 0.71057 0.38175 0.71746 0.0
C1045 C 0.72132 0.38503 0.73349 0.0
C1046 C 0.76837 0.39681 0.75135 0.0
C1047 C 0.78787 0.38379 0.7995 0.0
C1048 C 0.7752 0.38513 0.78276 0.0
C1049 C 0.74095 0.38462 0.73271 0.0
C1050 C 0.75234 0.38555 0.75017 0.0
H1051 H 0.78684 0.37101 0.84543 0.0
H1052 H 0.7659 0.37783 0.81956 0.0
H1053 H 0.7916 0.40583 0.76785 0.0
H1054 H 0.74593 0.37502 0.68637 0.0
H1055 H 0.76463 0.38132 0.71422 0.0
C1056 C 0.21186 0.64223 0.21205 0.0
C1057 C 0.19466 0.64901 0.2187 0.0
C1058 C 0.22654 0.63826 0.22441 0.0
C1059 C 0.24234 0.65004 0.27283 0.0
H1060 H 0.28209 0.61516 0.26143 0.0
C1061 C 0.3053 0.64085 0.32247 0.0
C1062 C 0.32285 0.64275 0.31384 0.0
C1063 C 0.28912 0.63807 0.31176 0.0
C1064 C 0.27109 0.62496 0.26482 0.0
H1065 H 0.17908 0.65561 0.24375 0.0
H1066 H 0.20417 0.6478 0.26528 0.0
H1067 H 0.25453 0.6165 0.24139 0.0
H1068 H 0.33717 0.64185 0.2872 0.0
H1069 H 0.30907 0.63657 0.26865 0.0
H1070 H 0.25891 0.65841 0.29629 0.0
C1071 C 0.20672 0.64627 0.25047 0.0
C1072 C 0.25527 0.62583 0.25325 0.0
C1073 C 0.19216 0.65054 0.2381 0.0
C1074 C 0.32393 0.64043 0.29435 0.0
C1075 C 0.30778 0.63739 0.28368 0.0
C1076 C 0.25801 0.64898 0.28451 0.0
C1077 C 0.22439 0.64068 0.24383 0.0
C1078 C 0.24071 0.63858 0.25691 0.0
C1079 C 0.29009 0.63684 0.29217 0.0
C1080 C 0.27272 0.63661 0.28054 0.0
H1081 H 0.21439 0.64107 0.1972 0.0
H1082 H 0.23986 0.63418 0.21857 0.0
H1083 H 0.23181 0.66038 0.27604 0.0
H1084 H 0.30386 0.64268 0.3374 0.0
H1085 H 0.27574 0.63748 0.31877 0.0
C1086 C 0.22271 0.8928 0.31881 0.0
C1087 C 0.20435 0.89192 0.31191 0.0
C1088 C 0.23779 0.89611 0.3067 0.0
C1089 C 0.24924 0.89118 0.2561 0.0
H1090 H 0.29703 0.91156 0.27122 0.0
C1091 C 0.31193 0.89215 0.20528 0.0
C1092 C 0.3286 0.88475 0.21258 0.0
C1093 C 0.29708 0.89699 0.21715 0.0
C1094 C 0.28377 0.90582 0.26678 0.0
H1095 H 0.18732 0.8955 0.28722 0.0
H1096 H 0.2133 0.90227 0.2664 0.0
H1097 H 0.27037 0.91348 0.29242 0.0
H1098 H 0.34306 0.87786 0.23826 0.0
H1099 H 0.31739 0.88651 0.25883 0.0
H1100 H 0.26265 0.88341 0.23055 0.0
C1101 C 0.21629 0.89961 0.28096 0.0
C1102 C 0.26844 0.90685 0.27898 0.0
C1103 C 0.2013 0.89601 0.29298 0.0
C1104 C 0.33045 0.8835 0.23211 0.0
C1105 C 0.31571 0.88852 0.24395 0.0
C1106 C 0.26447 0.89033 0.24387 0.0
C1107 C 0.23486 0.89886 0.28743 0.0
C1108 C 0.25096 0.89932 0.27394 0.0
C1109 C 0.2986 0.89476 0.23662 0.0
C1110 C 0.28203 0.89739 0.24911 0.0
H1111 H 0.2256 0.88944 0.33325 0.0
H1112 H 0.25179 0.8953 0.31233 0.0
H1113 H 0.23627 0.88478 0.25172 0.0
H1114 H 0.30992 0.89324 0.19035 0.0
H1115 H 0.2842 0.90199 0.21102 0.0
C1116 C 0.12698 0.71859 0.82244 0.0
C1117 C 0.13252 0.70136 0.81488 0.0
C1118 C 0.122 0.73348 0.81069 0.0
C1119 C 0.11092 0.74636 0.76111 0.0
H1120 H 0.13593 0.79251 0.77404 0.0
C1121 C 0.12814 0.80461 0.70712 0.0
C1122 C 0.13002 0.82307 0.71351 0.0
C1123 C 0.12378 0.79014 0.71963 0.0
C1124 C 0.12846 0.77993 0.77028 0.0
H1125 H 0.13561 0.68585 0.78909 0.0
H1126 H 0.12694 0.71156 0.76876 0.0
H1127 H 0.13619 0.7667 0.79589 0.0
H1128 H 0.12707 0.84102 0.73765 0.0
H1129 H 0.11868 0.81612 0.75915 0.0
H1130 H 0.10357 0.75954 0.73526 0.0
C1131 C 0.12645 0.71374 0.7837 0.0
C1132 C 0.12863 0.76503 0.78291 0.0
C1133 C 0.13152 0.69895 0.79541 0.0
C1134 C 0.12582 0.82693 0.73228 0.0
C1135 C 0.12126 0.81257 0.74469 0.0
C1136 C 0.11069 0.76133 0.74846 0.0
C1137 C 0.12229 0.73143 0.79112 0.0
C1138 C 0.12011 0.74791 0.77843 0.0
C1139 C 0.12103 0.79383 0.73877 0.0
C1140 C 0.11969 0.77828 0.75275 0.0
H1141 H 0.12768 0.72098 0.83735 0.0
H1142 H 0.11858 0.74681 0.81694 0.0
H1143 H 0.10403 0.73348 0.75723 0.0
H1144 H 0.13154 0.8011 0.69282 0.0
H1145 H 0.12381 0.77594 0.71447 0.0
C1146 C 0.37958 0.69779 0.73701 0.0
C1147 C 0.379 0.69842 0.71737 0.0
C1148 C 0.38302 0.71398 0.7475 0.0
C1149 C 0.37517 0.76418 0.74472 0.0
H1150 H 0.40608 0.7673 0.78898 0.0
C1151 C 0.37546 0.83159 0.78886 0.0
C1152 C 0.3764 0.82971 0.80836 0.0
C1153 C 0.37935 0.81641 0.77711 0.0
C1154 C 0.39717 0.76669 0.7768 0.0
H1155 H 0.38257 0.71662 0.69346 0.0
H1156 H 0.38835 0.74479 0.71176 0.0
H1157 H 0.40639 0.73895 0.77006 0.0
H1158 H 0.38285 0.81042 0.83071 0.0
H1159 H 0.38895 0.78393 0.81047 0.0
H1160 H 0.36506 0.7913 0.75175 0.0
C1161 C 0.38613 0.73173 0.71901 0.0
C1162 C 0.39747 0.7504 0.76588 0.0
C1163 C 0.38299 0.7155 0.70852 0.0
C1164 C 0.38218 0.81248 0.81576 0.0
C1165 C 0.38572 0.7972 0.80404 0.0
C1166 C 0.3746 0.78031 0.75577 0.0
C1167 C 0.38569 0.73127 0.73863 0.0
C1168 C 0.38641 0.74892 0.74974 0.0
C1169 C 0.3839 0.79874 0.78451 0.0
C1170 C 0.38551 0.78185 0.77209 0.0
H1171 H 0.37654 0.68493 0.74433 0.0
H1172 H 0.38253 0.71313 0.76258 0.0
H1173 H 0.36623 0.76341 0.73255 0.0
H1174 H 0.37115 0.84467 0.78265 0.0
H1175 H 0.37834 0.8185 0.76219 0.0
C1176 C 0.16898 0.32414 0.7947 0.0
C1177 C 0.16 0.32445 0.81217 0.0
C1178 C 0.16673 0.30903 0.78249 0.0
C1179 C 0.15394 0.27868 0.75544 0.0
H1180 H 0.15659 0.22929 0.77728 0.0
C1181 C 0.15067 0.21182 0.70968 0.0
C1182 C 0.16387 0.19787 0.71383 0.0
C1183 C 0.14765 0.22677 0.722 0.0
C1184 C 0.15584 0.24296 0.77092 0.0
H1185 H 0.14099 0.3092 0.83009 0.0
H1186 H 0.137 0.28285 0.80874 0.0
H1187 H 0.15592 0.25669 0.79751 0.0
H1188 H 0.18368 0.18848 0.73472 0.0
H1189 H 0.17839 0.21438 0.75609 0.0
H1190 H 0.15443 0.265 0.72885 0.0
C1191 C 0.14597 0.29427 0.80458 0.0
C1192 C 0.15524 0.25871 0.78256 0.0
C1193 C 0.14812 0.3095 0.81677 0.0
C1194 C 0.17338 0.19891 0.731 0.0
C1195 C 0.17029 0.21378 0.74334 0.0
C1196 C 0.15443 0.26293 0.74381 0.0
C1197 C 0.1555 0.29368 0.78739 0.0
C1198 C 0.15456 0.27683 0.77499 0.0
C1199 C 0.15765 0.22814 0.73888 0.0
C1200 C 0.15566 0.24484 0.75136 0.0
H1201 H 0.17826 0.33537 0.79063 0.0
H1202 H 0.17444 0.30906 0.76949 0.0
H1203 H 0.15322 0.29236 0.74908 0.0
H1204 H 0.14307 0.21154 0.69662 0.0
H1205 H 0.13761 0.2374 0.71819 0.0
C1206 C 0.70933 0.65714 0.30634 0.0
C1207 C 0.69894 0.67361 0.30886 0.0
C1208 C 0.72423 0.6565 0.29355 0.0
C1209 C 0.74653 0.68399 0.25441 0.0
H1210 H 0.78966 0.65336 0.26575 0.0
C1211 C 0.81801 0.69435 0.21817 0.0
C1212 C 0.82524 0.67844 0.20919 0.0
C1213 C 0.80303 0.69284 0.23069 0.0
C1214 C 0.77768 0.66194 0.26239 0.0
H1215 H 0.69618 0.70231 0.29964 0.0
H1216 H 0.72219 0.70148 0.27824 0.0
H1217 H 0.76232 0.65228 0.28612 0.0
H1218 H 0.82286 0.64835 0.20713 0.0
H1219 H 0.79716 0.6457 0.22957 0.0
H1220 H 0.76235 0.6942 0.23113 0.0
C1221 C 0.71865 0.68874 0.28552 0.0
C1222 C 0.76186 0.66123 0.27399 0.0
C1223 C 0.70364 0.68927 0.29799 0.0
C1224 C 0.81768 0.66088 0.2138 0.0
C1225 C 0.80296 0.65935 0.22665 0.0
C1226 C 0.76246 0.68498 0.24311 0.0
C1227 C 0.72936 0.67242 0.28313 0.0
C1228 C 0.74602 0.67235 0.27027 0.0
C1229 C 0.79515 0.67537 0.23487 0.0
C1230 C 0.77825 0.67405 0.24699 0.0
H1231 H 0.70614 0.6448 0.31444 0.0
H1232 H 0.73176 0.64351 0.29197 0.0
H1233 H 0.73459 0.69239 0.25056 0.0
H1234 H 0.82334 0.7081 0.21489 0.0
H1235 H 0.7974 0.70542 0.2369 0.0
C1236 C 0.36091 0.21551 0.81612 0.0
C1237 C 0.34781 0.20101 0.81388 0.0
C1238 C 0.36174 0.23032 0.80342 0.0
C1239 C 0.35018 0.24484 0.75562 0.0
H1240 H 0.34998 0.29497 0.77616 0.0
C1241 C 0.3631 0.31035 0.71015 0.0
C1242 C 0.34999 0.3249 0.71189 0.0
C1243 C 0.3634 0.29554 0.72288 0.0
C1244 C 0.35002 0.28107 0.77022 0.0
H1245 H 0.32584 0.19048 0.79591 0.0
H1246 H 0.3277 0.21614 0.77341 0.0
H1247 H 0.34958 0.26801 0.79714 0.0
H1248 H 0.32743 0.33552 0.72905 0.0
H1249 H 0.32836 0.30988 0.75161 0.0
H1250 H 0.35081 0.2579 0.7287 0.0
C1251 C 0.33717 0.21606 0.78519 0.0
C1252 C 0.34992 0.26563 0.78222 0.0
C1253 C 0.33612 0.20135 0.79809 0.0
C1254 C 0.33774 0.32462 0.72725 0.0
C1255 C 0.33826 0.30991 0.74019 0.0
C1256 C 0.35061 0.26029 0.74362 0.0
C1257 C 0.34972 0.23093 0.78794 0.0
C1258 C 0.34995 0.24732 0.77508 0.0
C1259 C 0.35082 0.29498 0.73791 0.0
C1260 C 0.35049 0.27859 0.75076 0.0
H1261 H 0.37013 0.21582 0.82809 0.0
H1262 H 0.37173 0.24143 0.80581 0.0
H1263 H 0.35028 0.23095 0.74968 0.0
H1264 H 0.37275 0.30998 0.69852 0.0
H1265 H 0.37342 0.28439 0.72086 0.0
C1266 C 0.82337 0.84349 0.29751 0.0
C1267 C 0.828 0.85883 0.30887 0.0
C1268 C 0.8081 0.84415 0.28536 0.0
C1269 C 0.76418 0.87119 0.27544 0.0
H1270 H 0.76353 0.83923 0.23176 0.0
C1271 C 0.70759 0.87092 0.21554 0.0
C1272 C 0.69981 0.85326 0.21174 0.0
C1273 C 0.72257 0.87281 0.22808 0.0
C1274 C 0.76348 0.84818 0.24395 0.0
H1275 H 0.82034 0.88725 0.31573 0.0
H1276 H 0.79423 0.88883 0.29378 0.0
H1277 H 0.79166 0.84124 0.25065 0.0
H1278 H 0.7016 0.82382 0.21844 0.0
H1279 H 0.72804 0.82711 0.23982 0.0
H1280 H 0.73604 0.87863 0.2679 0.0
C1281 C 0.80206 0.87595 0.29472 0.0
C1282 C 0.77961 0.84927 0.25496 0.0
C1283 C 0.81723 0.87516 0.30721 0.0
C1284 C 0.7071 0.83764 0.22113 0.0
C1285 C 0.72234 0.83949 0.23328 0.0
C1286 C 0.74816 0.87042 0.26411 0.0
C1287 C 0.79705 0.86033 0.28376 0.0
C1288 C 0.78018 0.86049 0.27115 0.0
C1289 C 0.7304 0.85705 0.23672 0.0
C1290 C 0.74754 0.85865 0.24844 0.0
H1291 H 0.83112 0.83054 0.29849 0.0
H1292 H 0.80468 0.8316 0.27769 0.0
H1293 H 0.76377 0.87982 0.28782 0.0
H1294 H 0.70236 0.88323 0.20853 0.0
H1295 H 0.72853 0.88651 0.23043 0.0
C1296 C 0.73108 0.17219 0.19974 0.0
C1297 C 0.71373 0.16298 0.19894 0.0
C1298 C 0.74337 0.16926 0.21468 0.0
C1299 C 0.74351 0.15477 0.26422 0.0
H1300 H 0.79728 0.15499 0.25795 0.0
C1301 C 0.81634 0.14815 0.31094 0.0
C1302 C 0.81202 0.16052 0.32558 0.0
C1303 C 0.8041 0.14589 0.29578 0.0
C1304 C 0.7823 0.15468 0.25999 0.0
H1305 H 0.69612 0.14286 0.21312 0.0
H1306 H 0.7176 0.13769 0.23911 0.0
H1307 H 0.77705 0.15529 0.23054 0.0
H1308 H 0.7909 0.17955 0.33601 0.0
H1309 H 0.76967 0.17554 0.3098 0.0
H1310 H 0.74875 0.1543 0.29367 0.0
C1311 C 0.7216 0.14737 0.22824 0.0
C1312 C 0.77067 0.15507 0.24423 0.0
C1313 C 0.70933 0.15021 0.21321 0.0
C1314 C 0.79476 0.1699 0.32503 0.0
C1315 C 0.78249 0.16754 0.30997 0.0
C1316 C 0.75513 0.1545 0.27998 0.0
C1317 C 0.73866 0.15709 0.22935 0.0
C1318 C 0.7511 0.15533 0.2461 0.0
C1319 C 0.78713 0.15579 0.29493 0.0
C1320 C 0.77471 0.15466 0.27812 0.0
H1321 H 0.73499 0.18214 0.18906 0.0
H1322 H 0.75627 0.17714 0.21508 0.0
H1323 H 0.72853 0.15513 0.26628 0.0
H1324 H 0.82949 0.14069 0.31083 0.0
H1325 H 0.80805 0.13652 0.28459 0.0
C1326 C 0.8767 0.31613 0.81113 0.0
C1327 C 0.86626 0.3114 0.82708 0.0
C1328 C 0.87768 0.30391 0.79581 0.0
C1329 C 0.87009 0.25462 0.78126 0.0
H1330 H 0.86116 0.27568 0.73225 0.0
C1331 C 0.87222 0.20903 0.71453 0.0
C1332 C 0.85757 0.21146 0.70164 0.0
C1333 C 0.87496 0.22172 0.72918 0.0
C1334 C 0.86364 0.26956 0.74583 0.0
H1335 H 0.84944 0.28962 0.83966 0.0
H1336 H 0.85143 0.26831 0.81323 0.0
H1337 H 0.8634 0.29626 0.7594 0.0
H1338 H 0.83474 0.22974 0.69385 0.0
H1339 H 0.83962 0.25193 0.71931 0.0
H1340 H 0.87002 0.22791 0.7678 0.0
C1341 C 0.8588 0.28148 0.81247 0.0
C1342 C 0.86513 0.28139 0.76139 0.0
C1343 C 0.85763 0.29375 0.82766 0.0
C1344 C 0.84617 0.22737 0.70345 0.0
C1345 C 0.84901 0.24015 0.71805 0.0
C1346 C 0.86879 0.24282 0.7657 0.0
C1347 C 0.86847 0.28655 0.79615 0.0
C1348 C 0.86818 0.27406 0.77937 0.0
C1349 C 0.86323 0.23731 0.73134 0.0
C1350 C 0.86538 0.25009 0.74777 0.0
H1351 H 0.88345 0.32962 0.81012 0.0
H1352 H 0.88545 0.30818 0.78357 0.0
H1353 H 0.87256 0.24847 0.79484 0.0
H1354 H 0.88136 0.19703 0.71363 0.0
H1355 H 0.88623 0.21921 0.73893 0.0
C1356 C 0.71302 0.36247 0.31412 0.0
C1357 C 0.7134 0.34787 0.32726 0.0
C1358 C 0.72572 0.36297 0.29927 0.0
C1359 C 0.75769 0.332 0.27208 0.0
H1360 H 0.7741 0.37885 0.25071 0.0
C1361 C 0.79957 0.33384 0.20283 0.0
C1362 C 0.81411 0.34697 0.20135 0.0
C1363 C 0.78678 0.33468 0.21766 0.0
C1364 C 0.76984 0.36559 0.25653 0.0
H1365 H 0.72821 0.32278 0.33536 0.0
H1366 H 0.75076 0.32399 0.30988 0.0
H1367 H 0.75469 0.379 0.2785 0.0
H1368 H 0.82611 0.37164 0.21421 0.0
H1369 H 0.80426 0.37285 0.24004 0.0
H1370 H 0.77345 0.31857 0.25055 0.0
C1371 C 0.74025 0.33481 0.31073 0.0
C1372 C 0.75842 0.36568 0.27243 0.0
C1373 C 0.72742 0.33422 0.32554 0.0
C1374 C 0.81508 0.36131 0.21475 0.0
C1375 C 0.80242 0.36205 0.22964 0.0
C1376 C 0.76924 0.3319 0.25627 0.0
C1377 C 0.73936 0.34898 0.29712 0.0
C1378 C 0.7521 0.34889 0.28046 0.0
C1379 C 0.78823 0.34857 0.23154 0.0
C1380 C 0.77549 0.3487 0.2482 0.0
H1381 H 0.70241 0.37321 0.31485 0.0
H1382 H 0.72432 0.37401 0.28907 0.0
H1383 H 0.75295 0.31875 0.27755 0.0
H1384 H 0.79831 0.32261 0.19279 0.0
H1385 H 0.77584 0.32427 0.21832 0.0
C1386 C 0.66116 0.21319 0.81802 0.0
C1387 C 0.6787 0.20856 0.82564 0.0
C1388 C 0.65972 0.22593 0.80321 0.0
C1389 C 0.68571 0.24202 0.76276 0.0
H1390 H 0.65273 0.28486 0.76193 0.0
C1391 C 0.69028 0.29648 0.70364 0.0
C1392 C 0.67458 0.30719 0.69869 0.0
C1393 C 0.68967 0.2841 0.71872 0.0
C1394 C 0.66177 0.27277 0.76167 0.0
H1395 H 0.70841 0.21412 0.8238 0.0
H1396 H 0.70588 0.23596 0.79774 0.0
H1397 H 0.65367 0.26475 0.78944 0.0
H1398 H 0.64561 0.31258 0.7055 0.0
H1399 H 0.6442 0.29029 0.73122 0.0
H1400 H 0.69336 0.24927 0.73492 0.0
C1401 C 0.69326 0.22984 0.80337 0.0
C1402 C 0.66239 0.26132 0.77758 0.0
C1403 C 0.69467 0.21743 0.81842 0.0
C1404 C 0.65799 0.3046 0.70888 0.0
C1405 C 0.65728 0.29192 0.72384 0.0
C1406 C 0.68481 0.25317 0.74674 0.0
C1407 C 0.67581 0.23402 0.7954 0.0
C1408 C 0.67459 0.24599 0.7784 0.0
C1409 C 0.67323 0.28167 0.72924 0.0
C1410 C 0.67307 0.26896 0.74598 0.0
H1411 H 0.64858 0.2066 0.8232 0.0
H1412 H 0.64609 0.22886 0.79735 0.0
H1413 H 0.69499 0.23009 0.76284 0.0
H1414 H 0.70341 0.29818 0.69634 0.0
H1415 H 0.70243 0.27695 0.72246 0.0
C1416 C 0.31439 0.81354 0.15023 0.0
C1417 C 0.3275 0.81188 0.1648 0.0
C1418 C 0.2994 0.80097 0.14868 0.0
C1419 C 0.27111 0.76926 0.1781 0.0
H1420 H 0.25067 0.75184 0.13111 0.0
C1421 C 0.20003 0.73169 0.17551 0.0
C1422 C 0.19874 0.71542 0.16457 0.0
C1423 C 0.2154 0.74368 0.17393 0.0
C1424 C 0.25624 0.75651 0.14436 0.0
H1425 H 0.3355 0.79491 0.18855 0.0
H1426 H 0.30963 0.77303 0.18571 0.0
H1427 H 0.27892 0.77113 0.13127 0.0
H1428 H 0.21241 0.69962 0.14266 0.0
H1429 H 0.23921 0.7206 0.13988 0.0
H1430 H 0.24866 0.7546 0.19125 0.0
C1431 C 0.3107 0.78426 0.17568 0.0
C1432 C 0.27237 0.76771 0.14444 0.0
C1433 C 0.32568 0.79677 0.17721 0.0
C1434 C 0.21285 0.71201 0.1513 0.0
C1435 C 0.22826 0.72407 0.14969 0.0
C1436 C 0.25498 0.7582 0.178 0.0
C1437 C 0.29707 0.78643 0.16168 0.0
C1438 C 0.28006 0.77421 0.16134 0.0
C1439 C 0.22999 0.73982 0.16135 0.0
C1440 C 0.24724 0.75169 0.16115 0.0
H1441 H 0.31528 0.82498 0.14041 0.0
H1442 H 0.28919 0.80316 0.13776 0.0
H1443 H 0.2764 0.77417 0.19138 0.0
H1444 H 0.18944 0.73491 0.1858 0.0
H1445 H 0.21599 0.75588 0.18284 0.0
C1446 C 0.20798 0.80424 0.32967 0.0
C1447 C 0.20104 0.81353 0.34552 0.0
C1448 C 0.22325 0.79206 0.33108 0.0
C1449 C 0.25032 0.7624 0.36303 0.0
H1450 H 0.29163 0.77206 0.32948 0.0
C1451 C 0.3195 0.72045 0.36904 0.0
C1452 C 0.32909 0.71613 0.35245 0.0
C1453 C 0.30458 0.73318 0.36901 0.0
C1454 C 0.28018 0.76885 0.3388 0.0
H1455 H 0.20425 0.8165 0.37546 0.0
H1456 H 0.23047 0.79472 0.37798 0.0
H1457 H 0.26344 0.7909 0.32741 0.0
H1458 H 0.33054 0.72226 0.32286 0.0
H1459 H 0.30445 0.74371 0.32264 0.0
H1460 H 0.26661 0.73992 0.374 0.0
C1461 C 0.22423 0.7971 0.36442 0.0
C1462 C 0.264 0.77978 0.33763 0.0
C1463 C 0.2092 0.80958 0.36296 0.0
C1464 C 0.3237 0.72534 0.33598 0.0
C1465 C 0.30863 0.7378 0.33588 0.0
C1466 C 0.26639 0.7512 0.36398 0.0
C1467 C 0.23174 0.78855 0.34843 0.0
C1468 C 0.24885 0.77669 0.34969 0.0
C1469 C 0.29858 0.74176 0.35233 0.0
C1470 C 0.28162 0.75419 0.35184 0.0
H1471 H 0.20218 0.80703 0.31599 0.0
H1472 H 0.2286 0.78555 0.31853 0.0
H1473 H 0.23885 0.75961 0.37248 0.0
H1474 H 0.32325 0.71368 0.38201 0.0
H1475 H 0.29763 0.73609 0.38209 0.0
C1476 C 0.21018 0.71294 0.86895 0.0
C1477 C 0.21108 0.70084 0.85347 0.0
C1478 C 0.22294 0.72767 0.87098 0.0
C1479 C 0.25429 0.75754 0.84259 0.0
H1480 H 0.27281 0.77448 0.89053 0.0
C1481 C 0.29297 0.82769 0.84916 0.0
C1482 C 0.30929 0.82816 0.8601 0.0
C1483 C 0.28078 0.81242 0.84991 0.0
C1484 C 0.26785 0.7699 0.87701 0.0
H1485 H 0.22682 0.69447 0.82841 0.0
H1486 H 0.24913 0.7199 0.83208 0.0
H1487 H 0.25326 0.74654 0.88879 0.0
H1488 H 0.32497 0.81314 0.88116 0.0
H1489 H 0.30369 0.78648 0.88246 0.0
H1490 H 0.26901 0.78063 0.83073 0.0
C1491 C 0.23832 0.71822 0.8425 0.0
C1492 C 0.25648 0.75393 0.87602 0.0
C1493 C 0.22558 0.70348 0.84048 0.0
C1494 C 0.31253 0.81334 0.87257 0.0
C1495 C 0.3003 0.798 0.87331 0.0
C1496 C 0.26556 0.77348 0.84358 0.0
C1497 C 0.23696 0.73079 0.85757 0.0
C1498 C 0.24952 0.74752 0.85878 0.0
C1499 C 0.28451 0.7971 0.86159 0.0
C1500 C 0.27246 0.77998 0.8608 0.0
H1501 H 0.19923 0.71141 0.87926 0.0
H1502 H 0.22133 0.73707 0.88271 0.0
H1503 H 0.24904 0.75325 0.82907 0.0
H1504 H 0.28987 0.83887 0.83948 0.0
H1505 H 0.26855 0.8125 0.84103 0.0
C1506 C 0.2977 0.70083 0.68999 0.0
C1507 C 0.30821 0.69598 0.67413 0.0
C1508 C 0.28532 0.71593 0.68967 0.0
C1509 C 0.27378 0.7591 0.6623 0.0
H1510 H 0.2315 0.76024 0.69605 0.0
C1511 C 0.21455 0.81572 0.66258 0.0
C1512 C 0.21011 0.82335 0.68014 0.0
C1513 C 0.22716 0.80081 0.661 0.0
C1514 C 0.24332 0.76017 0.68663 0.0
H1515 H 0.3132 0.70294 0.64515 0.0
H1516 H 0.29088 0.7287 0.64423 0.0
H1517 H 0.25055 0.73224 0.69396 0.0
H1518 H 0.2158 0.82139 0.70979 0.0
H1519 H 0.23741 0.79509 0.70705 0.0
H1520 H 0.26578 0.78696 0.65452 0.0
C1521 C 0.29269 0.72123 0.65722 0.0
C1522 C 0.25439 0.74411 0.68546 0.0
C1523 C 0.30538 0.70625 0.65765 0.0
C1524 C 0.21898 0.81598 0.69603 0.0
C1525 C 0.23125 0.80081 0.69449 0.0
C1526 C 0.26241 0.77506 0.6632 0.0
C1527 C 0.28268 0.72655 0.67335 0.0
C1528 C 0.27003 0.74335 0.67351 0.0
C1529 C 0.23529 0.79288 0.67699 0.0
C1530 C 0.24722 0.77587 0.67558 0.0
H1531 H 0.29959 0.69346 0.70304 0.0
H1532 H 0.27835 0.7196 0.70254 0.0
H1533 H 0.28576 0.75937 0.65312 0.0
H1534 H 0.20796 0.82102 0.65005 0.0
H1535 H 0.22997 0.79497 0.64734 0.0
C1536 C 0.9172 0.83444 0.2866 0.0
C1537 C 0.9064 0.82083 0.29573 0.0
C1538 C 0.92713 0.82995 0.2705 0.0
C1539 C 0.9378 0.7908 0.23801 0.0
H1540 H 0.91246 0.82251 0.20225 0.0
C1541 C 0.8803 0.77602 0.18477 0.0
C1542 C 0.88717 0.75906 0.17793 0.0
C1543 C 0.89257 0.78898 0.19259 0.0
C1544 C 0.92004 0.81369 0.21189 0.0
H1545 H 0.89925 0.7915 0.29665 0.0
H1546 H 0.9161 0.78367 0.26825 0.0
H1547 H 0.91855 0.83408 0.23346 0.0
H1548 H 0.91221 0.74368 0.17096 0.0
H1549 H 0.93363 0.76628 0.18435 0.0
H1550 H 0.93718 0.7696 0.21728 0.0
C1551 C 0.91713 0.7978 0.27354 0.0
C1552 C 0.92372 0.82036 0.22979 0.0
C1553 C 0.90725 0.80228 0.28969 0.0
C1554 C 0.90653 0.7563 0.17683 0.0
C1555 C 0.91882 0.76936 0.18433 0.0
C1556 C 0.93402 0.78409 0.22016 0.0
C1557 C 0.92635 0.81181 0.26326 0.0
C1558 C 0.93097 0.8083 0.24347 0.0
C1559 C 0.91189 0.78521 0.19345 0.0
C1560 C 0.92346 0.79489 0.2076 0.0
H1561 H 0.91724 0.8488 0.29131 0.0
H1562 H 0.93431 0.84094 0.26302 0.0
H1563 H 0.94392 0.78144 0.24817 0.0
H1564 H 0.86541 0.77855 0.18553 0.0
H1565 H 0.88665 0.80101 0.19956 0.0
C1566 C 0.27082 0.40354 0.67544 0.0
C1567 C 0.26872 0.38409 0.67602 0.0
C1568 C 0.25671 0.41516 0.68206 0.0
C1569 C 0.23871 0.42936 0.71672 0.0
H1570 H 0.1891 0.41065 0.72708 0.0
C1571 C 0.21854 0.40249 0.7859 0.0
C1572 C 0.19982 0.40085 0.79127 0.0
C1573 C 0.22315 0.41183 0.76948 0.0
C1574 C 0.20266 0.41668 0.72423 0.0
H1575 H 0.24955 0.36147 0.68163 0.0
H1576 H 0.22526 0.38148 0.69418 0.0
H1577 H 0.20266 0.40578 0.69646 0.0
H1578 H 0.17141 0.40941 0.78491 0.0
H1579 H 0.17952 0.42555 0.75615 0.0
H1580 H 0.23917 0.43915 0.74488 0.0
C1581 C 0.23754 0.38803 0.68829 0.0
C1582 C 0.21051 0.41371 0.70667 0.0
C1583 C 0.25155 0.37645 0.68131 0.0
C1584 C 0.18597 0.41007 0.78085 0.0
C1585 C 0.19057 0.41943 0.76445 0.0
C1586 C 0.2308 0.43251 0.73418 0.0
C1587 C 0.24046 0.40744 0.68983 0.0
C1588 C 0.22929 0.4183 0.70346 0.0
C1589 C 0.20911 0.41973 0.7582 0.0
C1590 C 0.21349 0.42452 0.73862 0.0
H1591 H 0.28369 0.40976 0.67071 0.0
H1592 H 0.25918 0.43006 0.68254 0.0
H1593 H 0.25312 0.43347 0.71471 0.0
H1594 H 0.22951 0.39572 0.79379 0.0
H1595 H 0.23758 0.41157 0.76496 0.0
C1596 C 0.60838 0.69901 0.29101 0.0
C1597 C 0.61999 0.7123 0.29963 0.0
C1598 C 0.59797 0.70373 0.27529 0.0
C1599 C 0.58751 0.74297 0.24285 0.0
H1600 H 0.61029 0.70997 0.20649 0.0
C1601 C 0.64348 0.75539 0.18787 0.0
C1602 C 0.63691 0.77247 0.18111 0.0
C1603 C 0.63104 0.74281 0.19601 0.0
C1604 C 0.60338 0.71916 0.21631 0.0
H1605 H 0.62812 0.74137 0.30013 0.0
H1606 H 0.61043 0.7496 0.27236 0.0
H1607 H 0.60499 0.69897 0.23802 0.0
H1608 H 0.6122 0.78848 0.17444 0.0
H1609 H 0.59042 0.76655 0.18855 0.0
H1610 H 0.58805 0.76389 0.22186 0.0
C1611 C 0.60913 0.73555 0.27776 0.0
C1612 C 0.60018 0.71283 0.23441 0.0
C1613 C 0.61949 0.73084 0.29356 0.0
C1614 C 0.6176 0.77571 0.18029 0.0
C1615 C 0.60514 0.76306 0.18818 0.0
C1616 C 0.5908 0.74933 0.22479 0.0
C1617 C 0.59909 0.72179 0.2679 0.0
C1618 C 0.5939 0.72529 0.24824 0.0
C1619 C 0.61186 0.74713 0.19731 0.0
C1620 C 0.60046 0.73802 0.21194 0.0
H1621 H 0.60807 0.68468 0.29579 0.0
H1622 H 0.59015 0.69293 0.26814 0.0
H1623 H 0.58213 0.75266 0.25313 0.0
H1624 H 0.65832 0.75251 0.18841 0.0
H1625 H 0.6368 0.73069 0.20295 0.0
C1626 C 0.26806 0.12235 0.85181 0.0
C1627 C 0.26569 0.14164 0.84959 0.0
C1628 C 0.25465 0.10996 0.8451 0.0
C1629 C 0.23981 0.09408 0.80957 0.0
H1630 H 0.19022 0.11029 0.79559 0.0
C1631 C 0.22313 0.12059 0.73949 0.0
C1632 C 0.20473 0.12147 0.73296 0.0
C1633 C 0.22714 0.11101 0.75594 0.0
C1634 C 0.20381 0.10492 0.79945 0.0
H1635 H 0.24655 0.16339 0.84121 0.0
H1636 H 0.22338 0.14196 0.82875 0.0
H1637 H 0.20148 0.11631 0.82693 0.0
H1638 H 0.17649 0.11114 0.7371 0.0
H1639 H 0.18352 0.09464 0.76592 0.0
H1640 H 0.24269 0.08409 0.78161 0.0
C1641 C 0.23538 0.13615 0.83585 0.0
C1642 C 0.21031 0.10852 0.81744 0.0
C1643 C 0.24874 0.14852 0.84279 0.0
C1644 C 0.19076 0.11113 0.74211 0.0
C1645 C 0.19477 0.10153 0.75852 0.0
C1646 C 0.23328 0.09038 0.79164 0.0
C1647 C 0.23882 0.11676 0.83578 0.0
C1648 C 0.22903 0.1049 0.82195 0.0
C1649 C 0.2128 0.10213 0.76608 0.0
C1650 C 0.21596 0.09749 0.78593 0.0
H1651 H 0.28072 0.11682 0.85783 0.0
H1652 H 0.25747 0.09512 0.84569 0.0
H1653 H 0.25423 0.09072 0.81264 0.0
H1654 H 0.23419 0.12821 0.73256 0.0
H1655 H 0.24118 0.11194 0.76148 0.0
C1656 C 0.17405 0.9047 0.75752 0.0
C1657 C 0.17588 0.88537 0.76002 0.0
C1658 C 0.18115 0.91706 0.77074 0.0
C1659 C 0.21694 0.93263 0.78531 0.0
H1660 H 0.23086 0.91689 0.83503 0.0
C1661 C 0.28708 0.90635 0.80254 0.0
C1662 C 0.29346 0.90561 0.82098 0.0
C1663 C 0.27067 0.91594 0.79833 0.0
C1664 C 0.22702 0.92212 0.82139 0.0
H1665 H 0.18409 0.86363 0.77923 0.0
H1666 H 0.19726 0.88501 0.80205 0.0
H1667 H 0.19952 0.91076 0.82377 0.0
H1668 H 0.28918 0.91625 0.84906 0.0
H1669 H 0.26043 0.93278 0.84168 0.0
H1670 H 0.24493 0.9426 0.7824 0.0
C1671 C 0.19014 0.89086 0.79009 0.0
C1672 C 0.20903 0.91845 0.8149 0.0
C1673 C 0.18279 0.87852 0.77693 0.0
C1674 C 0.28427 0.91615 0.83477 0.0
C1675 C 0.2679 0.92577 0.83056 0.0
C1676 C 0.23488 0.93639 0.79184 0.0
C1677 C 0.1905 0.91021 0.78652 0.0
C1678 C 0.20453 0.92195 0.79617 0.0
C1679 C 0.26043 0.92496 0.81251 0.0
C1680 C 0.24056 0.92948 0.80922 0.0
H1681 H 0.168 0.91027 0.74492 0.0
H1682 H 0.18078 0.93188 0.76783 0.0
H1683 H 0.21389 0.93586 0.77088 0.0
H1684 H 0.29405 0.89856 0.79162 0.0
H1685 H 0.26521 0.91487 0.78427 0.0
C1686 C 0.11937 0.7393 0.22191 0.0
C1687 C 0.12069 0.73315 0.20343 0.0
C1688 C 0.10939 0.75548 0.22608 0.0
C1689 C 0.1024 0.79932 0.20345 0.0
H1690 H 0.08806 0.8111 0.25413 0.0
C1691 C 0.11939 0.85036 0.26882 0.0
C1692 C 0.13871 0.84921 0.26579 0.0
C1693 C 0.10691 0.84361 0.25553 0.0
C1694 C 0.09145 0.80845 0.23965 0.0
H1695 H 0.11077 0.73762 0.17512 0.0
H1696 H 0.09351 0.76595 0.18244 0.0
H1697 H 0.08199 0.78027 0.24192 0.0
H1698 H 0.16022 0.84255 0.24571 0.0
H1699 H 0.13869 0.82983 0.22281 0.0
H1700 H 0.11308 0.82711 0.20164 0.0
C1701 C 0.10039 0.7585 0.19364 0.0
C1702 C 0.08808 0.79061 0.23273 0.0
C1703 C 0.11042 0.74237 0.18947 0.0
C1704 C 0.14535 0.8433 0.24842 0.0
C1705 C 0.1329 0.83622 0.23521 0.0
C1706 C 0.10559 0.81725 0.21031 0.0
C1707 C 0.10051 0.76571 0.21182 0.0
C1708 C 0.09534 0.78539 0.21532 0.0
C1709 C 0.11362 0.83517 0.23918 0.0
C1710 C 0.102 0.82128 0.22914 0.0
H1711 H 0.12695 0.73231 0.23296 0.0
H1712 H 0.10997 0.76074 0.24024 0.0
H1713 H 0.10782 0.79588 0.18977 0.0
H1714 H 0.11397 0.85561 0.28186 0.0
H1715 H 0.09214 0.84352 0.25878 0.0
C1716 C 0.17864 0.62075 0.77273 0.0
C1717 C 0.18142 0.63995 0.7701 0.0
C1718 C 0.18639 0.60791 0.76037 0.0
C1719 C 0.22332 0.59188 0.74894 0.0
H1720 H 0.23926 0.60435 0.6989 0.0
C1721 C 0.29353 0.61803 0.73209 0.0
C1722 C 0.3002 0.61772 0.71375 0.0
C1723 C 0.27742 0.60808 0.73669 0.0
C1724 C 0.23485 0.60001 0.71269 0.0
H1725 H 0.19188 0.66105 0.75128 0.0
H1726 H 0.20587 0.63876 0.72978 0.0
H1727 H 0.20761 0.6115 0.70857 0.0
H1728 H 0.29721 0.60463 0.68656 0.0
H1729 H 0.269 0.58747 0.69458 0.0
H1730 H 0.25115 0.58212 0.75362 0.0
C1731 C 0.19766 0.63343 0.74129 0.0
C1732 C 0.21669 0.60423 0.71823 0.0
C1733 C 0.18982 0.64627 0.75367 0.0
C1734 C 0.29195 0.60557 0.7007 0.0
C1735 C 0.27592 0.59559 0.7053 0.0
C1736 C 0.24149 0.58768 0.7434 0.0
C1737 C 0.19709 0.61416 0.74524 0.0
C1738 C 0.21141 0.60186 0.73691 0.0
C1739 C 0.26786 0.59767 0.72298 0.0
C1740 C 0.24787 0.59337 0.72582 0.0
H1741 H 0.17138 0.61567 0.78491 0.0
H1742 H 0.1854 0.59316 0.76354 0.0
H1743 H 0.21963 0.58961 0.76341 0.0
H1744 H 0.29981 0.6271 0.74245 0.0
H1745 H 0.2715 0.61008 0.75045 0.0
C1746 C 0.4108 0.78763 0.21489 0.0
C1747 C 0.40523 0.80583 0.21927 0.0
C1748 C 0.42485 0.77896 0.22513 0.0
C1749 C 0.44191 0.78105 0.27281 0.0
H1750 H 0.45894 0.73246 0.2564 0.0
C1751 C 0.42343 0.72226 0.31745 0.0
C1752 C 0.41037 0.71206 0.30691 0.0
C1753 C 0.43747 0.7324 0.3086 0.0
C1754 C 0.45485 0.74615 0.26133 0.0
H1755 H 0.41108 0.82993 0.23666 0.0
H1756 H 0.43614 0.81511 0.25405 0.0
H1757 H 0.45711 0.75801 0.23409 0.0
H1758 H 0.40307 0.70261 0.27913 0.0
H1759 H 0.42693 0.72094 0.26359 0.0
H1760 H 0.43832 0.76904 0.29962 0.0
C1761 C 0.42924 0.80719 0.24318 0.0
C1762 C 0.4536 0.76077 0.24853 0.0
C1763 C 0.41478 0.81567 0.23328 0.0
C1764 C 0.41268 0.71072 0.28755 0.0
C1765 C 0.42665 0.72094 0.27869 0.0
C1766 C 0.44347 0.76658 0.28563 0.0
C1767 C 0.43393 0.78843 0.2398 0.0
C1768 C 0.44484 0.77757 0.25372 0.0
C1769 C 0.43855 0.73268 0.28906 0.0
C1770 C 0.44769 0.74848 0.27943 0.0
H1771 H 0.40383 0.77981 0.20398 0.0
H1772 H 0.42766 0.76441 0.2222 0.0
H1773 H 0.43567 0.79392 0.27764 0.0
H1774 H 0.42236 0.72305 0.3325 0.0
H1775 H 0.44656 0.74115 0.31695 0.0
C1776 C 0.77711 0.18259 0.87895 0.0
C1777 C 0.7599 0.17694 0.88625 0.0
C1778 C 0.79075 0.18992 0.89079 0.0
C1779 C 0.81715 0.20847 0.91702 0.0
H1780 H 0.78781 0.24612 0.9425 0.0
C1781 C 0.84076 0.2827 0.91359 0.0
C1782 C 0.82686 0.29273 0.904 0.0
C1783 C 0.83628 0.26642 0.9232 0.0
C1784 C 0.79638 0.23556 0.93587 0.0
H1785 H 0.74452 0.17167 0.91172 0.0
H1786 H 0.76838 0.18392 0.93239 0.0
H1787 H 0.77421 0.21591 0.93627 0.0
H1788 H 0.7972 0.29478 0.89855 0.0
H1789 H 0.78936 0.26613 0.91482 0.0
H1790 H 0.83842 0.2291 0.9145 0.0
C1791 C 0.77115 0.18346 0.91754 0.0
C1792 C 0.78865 0.21808 0.9324 0.0
C1793 C 0.7574 0.17655 0.90567 0.0
C1794 C 0.8082 0.28717 0.90559 0.0
C1795 C 0.80372 0.27086 0.91517 0.0
C1796 C 0.8248 0.22605 0.92032 0.0
C1797 C 0.78744 0.19141 0.91014 0.0
C1798 C 0.79832 0.20506 0.92128 0.0
C1799 C 0.81784 0.25989 0.92337 0.0
C1800 C 0.81373 0.24025 0.92814 0.0
H1801 H 0.77946 0.18278 0.86402 0.0
H1802 H 0.80306 0.19598 0.88447 0.0
H1803 H 0.8252 0.19842 0.90909 0.0
H1804 H 0.85527 0.28695 0.913 0.0
H1805 H 0.84739 0.25836 0.92954 0.0
C1806 C 0.75724 0.1893 0.64248 0.0
C1807 C 0.77482 0.18297 0.63683 0.0
C1808 C 0.74506 0.19693 0.62935 0.0
C1809 C 0.72229 0.21647 0.60057 0.0
H1810 H 0.75605 0.25393 0.58096 0.0
C1811 C 0.70149 0.29057 0.60757 0.0
C1812 C 0.71455 0.29883 0.61969 0.0
C1813 C 0.70651 0.27535 0.59656 0.0
C1814 C 0.74629 0.24347 0.58586 0.0
H1815 H 0.79226 0.17644 0.6131 0.0
H1816 H 0.77103 0.18971 0.59007 0.0
H1817 H 0.7675 0.22277 0.58696 0.0
H1818 H 0.74354 0.29928 0.62818 0.0
H1819 H 0.75228 0.27233 0.60952 0.0
H1820 H 0.70176 0.23789 0.60175 0.0
C1821 C 0.76682 0.18941 0.60458 0.0
C1822 C 0.75279 0.22546 0.5892 0.0
C1823 C 0.77906 0.18204 0.61775 0.0
C1824 C 0.73317 0.29296 0.61916 0.0
C1825 C 0.73818 0.27764 0.60823 0.0
C1826 C 0.71583 0.23453 0.59736 0.0
C1827 C 0.75028 0.19815 0.6104 0.0
C1828 C 0.74134 0.21242 0.59842 0.0
C1829 C 0.72464 0.26806 0.59762 0.0
C1830 C 0.72836 0.2486 0.59181 0.0
H1831 H 0.75362 0.18988 0.65715 0.0
H1832 H 0.73246 0.20358 0.63442 0.0
H1833 H 0.71299 0.20647 0.60704 0.0
H1834 H 0.68711 0.29525 0.60727 0.0
H1835 H 0.69588 0.26846 0.5883 0.0
C1836 C 0.84395 0.24829 0.14989 0.0
C1837 C 0.85059 0.26519 0.14275 0.0
C1838 C 0.83701 0.23473 0.13774 0.0
C1839 C 0.81865 0.2091 0.1106 0.0
H1840 H 0.78271 0.24058 0.08524 0.0
C1841 C 0.74333 0.18879 0.11259 0.0
C1842 C 0.7338 0.20287 0.12243 0.0
C1843 C 0.75992 0.19277 0.10325 0.0
C1844 C 0.79277 0.23142 0.09181 0.0
H1845 H 0.85849 0.27995 0.11767 0.0
H1846 H 0.84645 0.25631 0.09637 0.0
H1847 H 0.81356 0.25257 0.09192 0.0
H1848 H 0.73297 0.23244 0.12857 0.0
H1849 H 0.76216 0.23939 0.11274 0.0
H1850 H 0.79697 0.18884 0.11257 0.0
C1851 C 0.84595 0.2537 0.11125 0.0
C1852 C 0.81062 0.23821 0.09554 0.0
C1853 C 0.85263 0.26732 0.12341 0.0
C1854 C 0.74018 0.2213 0.12132 0.0
C1855 C 0.7568 0.22528 0.112 0.0
C1856 C 0.80075 0.20236 0.10699 0.0
C1857 C 0.8368 0.23789 0.11831 0.0
C1858 C 0.82303 0.22777 0.10665 0.0
C1859 C 0.76727 0.21089 0.10361 0.0
C1860 C 0.78717 0.2142 0.0992 0.0
H1861 H 0.84249 0.24628 0.1648 0.0
H1862 H 0.83004 0.22276 0.14377 0.0
H1863 H 0.82818 0.20052 0.11861 0.0
H1864 H 0.73846 0.17448 0.1128 0.0
H1865 H 0.76758 0.18148 0.09674 0.0
C1866 C 0.68203 0.24942 0.37697 0.0
C1867 C 0.67609 0.26633 0.3847 0.0
C1868 C 0.68891 0.23539 0.38857 0.0
C1869 C 0.70714 0.20851 0.41451 0.0
H1870 H 0.7443 0.23802 0.44056 0.0
C1871 C 0.78188 0.1858 0.4117 0.0
C1872 C 0.79195 0.19985 0.40237 0.0
C1873 C 0.76536 0.19004 0.42104 0.0
C1874 C 0.73389 0.2294 0.43377 0.0
H1875 H 0.66945 0.28072 0.4104 0.0
H1876 H 0.68124 0.25622 0.43071 0.0
H1877 H 0.71382 0.2512 0.43455 0.0
H1878 H 0.79374 0.22954 0.39711 0.0
H1879 H 0.76467 0.23695 0.41294 0.0
H1880 H 0.72813 0.18764 0.41167 0.0
C1881 C 0.68129 0.25396 0.41577 0.0
C1882 C 0.71625 0.23687 0.43043 0.0
C1883 C 0.67472 0.26807 0.40415 0.0
C1884 C 0.78612 0.21842 0.40395 0.0
C1885 C 0.76958 0.22267 0.41328 0.0
C1886 C 0.72485 0.2011 0.41772 0.0
C1887 C 0.68973 0.23806 0.40806 0.0
C1888 C 0.7034 0.22718 0.41913 0.0
C1889 C 0.75862 0.20839 0.42121 0.0
C1890 C 0.73886 0.21225 0.42579 0.0
H1891 H 0.68296 0.24769 0.36198 0.0
H1892 H 0.69533 0.22337 0.38204 0.0
H1893 H 0.69725 0.20048 0.40635 0.0
H1894 H 0.7863 0.17136 0.4111 0.0
H1895 H 0.7573 0.17882 0.42718 0.0
C1896 C 0.17806 0.93832 0.66306 0.0
C1897 C 0.16117 0.92855 0.66504 0.0
C1898 C 0.17823 0.95777 0.66093 0.0
C1899 C 0.14924 0.99955 0.64955 0.0
H1900 H 0.18575 0.02528 0.68013 0.0
C1901 C 0.16358 0.08052 0.64631 0.0
C1902 C 0.16677 0.08949 0.66349 0.0
C1903 C 0.1617 0.06094 0.64539 0.0
C1904 C 0.17539 0.01838 0.67153 0.0
H1905 H 0.13113 0.93146 0.66553 0.0
H1906 H 0.13131 0.96552 0.66152 0.0
H1907 H 0.18485 0.99134 0.67996 0.0
H1908 H 0.16965 0.08495 0.69321 0.0
H1909 H 0.16658 0.05113 0.69164 0.0
H1910 H 0.13976 0.02682 0.64126 0.0
C1911 C 0.14449 0.95813 0.66162 0.0
C1912 C 0.17501 0.99883 0.67127 0.0
C1913 C 0.14436 0.9386 0.66387 0.0
C1914 C 0.16748 0.07849 0.67971 0.0
C1915 C 0.16576 0.05904 0.6788 0.0
C1916 C 0.14976 0.01922 0.64965 0.0
C1917 C 0.16147 0.96807 0.66061 0.0
C1918 C 0.1619 0.98906 0.66035 0.0
C1919 C 0.16316 0.04989 0.66161 0.0
C1920 C 0.16276 0.02893 0.66079 0.0
H1921 H 0.19124 0.93094 0.66383 0.0
H1922 H 0.19157 0.9648 0.65984 0.0
H1923 H 0.13901 0.99257 0.64088 0.0
H1924 H 0.16322 0.08854 0.63352 0.0
H1925 H 0.1598 0.05441 0.6319 0.0
C1926 C 0.08153 0.64658 0.16074 0.0
C1927 C 0.09033 0.66386 0.16389 0.0
C1928 C 0.06195 0.64548 0.15879 0.0
C1929 C 0.01906 0.67168 0.17199 0.0
H1930 H 0.99345 0.6395 0.13682 0.0
C1931 C 0.93903 0.66309 0.17524 0.0
C1932 C 0.92913 0.66402 0.15834 0.0
C1933 C 0.95851 0.66101 0.17541 0.0
C1934 C 1.00037 0.64861 0.1467 0.0
H1935 H 0.08551 0.69354 0.16657 0.0
H1936 H 0.05171 0.69169 0.16324 0.0
H1937 H 0.02772 0.64026 0.13743 0.0
H1938 H 0.93184 0.6627 0.12834 0.0
H1939 H 0.96597 0.65888 0.12853 0.0
H1940 H 0.99195 0.68023 0.18118 0.0
C1941 C 0.05973 0.6789 0.16257 0.0
C1942 C 0.02006 0.64893 0.14716 0.0
C1943 C 0.07918 0.67999 0.16441 0.0
C1944 C 0.93908 0.66185 0.14158 0.0
C1945 C 0.95865 0.6597 0.14172 0.0
C1946 C 0.99949 0.67124 0.17165 0.0
C1947 C 0.05071 0.66162 0.16011 0.0
C1948 C 0.02971 0.66061 0.15972 0.0
C1949 C 0.96873 0.65978 0.15865 0.0
C1950 C 0.98977 0.65975 0.15899 0.0
H1951 H 0.08969 0.63387 0.16051 0.0
H1952 H 0.05555 0.63191 0.157 0.0
H1953 H 0.02587 0.68069 0.18204 0.0
H1954 H 0.93174 0.66469 0.18838 0.0
H1955 H 0.96561 0.66073 0.18874 0.0
C1956 C 0.37935 0.58161 0.66071 0.0
C1957 C 0.36294 0.59026 0.66713 0.0
C1958 C 0.38019 0.56205 0.65855 0.0
C1959 C 0.35689 0.51895 0.67603 0.0
H1960 H 0.38279 0.49381 0.63575 0.0
C1961 C 0.36594 0.43893 0.67691 0.0
C1962 C 0.36268 0.42923 0.66019 0.0
C1963 C 0.36784 0.45841 0.67703 0.0
C1964 C 0.37543 0.50059 0.64707 0.0
H1965 H 0.33428 0.58526 0.6753 0.0
H1966 H 0.33565 0.55152 0.67155 0.0
H1967 H 0.38194 0.52801 0.63672 0.0
H1968 H 0.35953 0.43228 0.63036 0.0
H1969 H 0.36292 0.4664 0.63044 0.0
H1970 H 0.35009 0.49177 0.68629 0.0
C1971 C 0.34807 0.5596 0.66855 0.0
C1972 C 0.37509 0.52025 0.64772 0.0
C1973 C 0.34724 0.57902 0.67064 0.0
C1974 C 0.36221 0.43939 0.64343 0.0
C1975 C 0.36413 0.45895 0.64352 0.0
C1976 C 0.35732 0.4994 0.67545 0.0
C1977 C 0.36465 0.55071 0.66285 0.0
C1978 C 0.36566 0.52974 0.66215 0.0
C1979 C 0.36651 0.46883 0.66041 0.0
C1980 C 0.36655 0.48984 0.66096 0.0
H1981 H 0.39172 0.58987 0.65803 0.0
H1982 H 0.39323 0.55577 0.65418 0.0
H1983 H 0.34971 0.52562 0.68753 0.0
H1984 H 0.36639 0.43145 0.69003 0.0
H1985 H 0.37006 0.46534 0.69027 0.0
C1986 C 0.44242 0.88307 0.15769 0.0
C1987 C 0.43367 0.86563 0.15968 0.0
C1988 C 0.46195 0.88432 0.15567 0.0
C1989 C 0.50451 0.85612 0.1441 0.0
H1990 H 0.53086 0.89355 0.17295 0.0
C1991 C 0.58386 0.87009 0.17428 0.0
C1992 C 0.59461 0.86497 0.1587 0.0
C1993 C 0.5644 0.87211 0.17286 0.0
C1994 C 0.52377 0.88297 0.16481 0.0
H1995 H 0.4385 0.83586 0.1608 0.0
H1996 H 0.4723 0.83793 0.15713 0.0
H1997 H 0.49675 0.8931 0.17292 0.0
H1998 H 0.59346 0.85831 0.12932 0.0
H1999 H 0.55949 0.862 0.12667 0.0
H2000 H 0.53148 0.84567 0.13638 0.0
C2001 C 0.46423 0.8507 0.15695 0.0
C2002 C 0.50413 0.88284 0.16463 0.0
C2003 C 0.44481 0.84949 0.15911 0.0
C2004 C 0.58554 0.86242 0.14152 0.0
C2005 C 0.56603 0.86434 0.14009 0.0
C2006 C 0.52413 0.85632 0.14419 0.0
C2007 C 0.4732 0.86813 0.15547 0.0
C2008 C 0.49417 0.86925 0.15448 0.0
C2009 C 0.5551 0.86895 0.15582 0.0
C2010 C 0.53411 0.8696 0.15473 0.0
H2011 H 0.43423 0.89575 0.15836 0.0
H2012 H 0.46827 0.89798 0.15443 0.0
H2013 H 0.49743 0.84554 0.13595 0.0
H2014 H 0.59049 0.87199 0.18774 0.0
H2015 H 0.55658 0.87546 0.18535 0.0
C2016 C 0.16137 0.44291 0.87959 0.0
C2017 C 0.16083 0.4335 0.86238 0.0
C2018 C 0.15992 0.46253 0.88034 0.0
C2019 C 0.16637 0.50426 0.84953 0.0
H2020 H 0.14237 0.53156 0.8896 0.0
C2021 C 0.15351 0.58317 0.84327 0.0
C2022 C 0.15782 0.59461 0.85862 0.0
C2023 C 0.15288 0.56373 0.84503 0.0
C2024 C 0.14927 0.52415 0.87838 0.0
H2025 H 0.15763 0.43713 0.83262 0.0
H2026 H 0.15446 0.47092 0.83385 0.0
H2027 H 0.1428 0.49735 0.89019 0.0
H2028 H 0.16388 0.5945 0.88819 0.0
H2029 H 0.16259 0.56033 0.89141 0.0
H2030 H 0.17273 0.53088 0.83763 0.0
C2031 C 0.15653 0.46346 0.84681 0.0
C2032 C 0.14954 0.50448 0.87871 0.0
C2033 C 0.15812 0.444 0.84608 0.0
C2034 C 0.16051 0.58609 0.8761 0.0
C2035 C 0.15979 0.5665 0.87791 0.0
C2036 C 0.16599 0.5238 0.84914 0.0
C2037 C 0.15789 0.47316 0.86388 0.0
C2038 C 0.15791 0.4942 0.86415 0.0
C2039 C 0.15643 0.55502 0.86226 0.0
C2040 C 0.15727 0.53409 0.86342 0.0
H2041 H 0.16372 0.43519 0.89236 0.0
H2042 H 0.16115 0.46937 0.89375 0.0
H2043 H 0.1735 0.49706 0.83833 0.0
H2044 H 0.15085 0.58926 0.82971 0.0
H2045 H 0.14975 0.55547 0.83276 0.0
C2046 C 0.58151 0.66859 0.34776 0.0
C2047 C 0.59293 0.66589 0.36348 0.0
C2048 C 0.56218 0.6657 0.34864 0.0
C2049 C 0.52225 0.66286 0.38207 0.0
H2050 H 0.49605 0.64457 0.33843 0.0
C2051 C 0.44123 0.66891 0.37338 0.0
C2052 C 0.43184 0.65537 0.36274 0.0
C2053 C 0.4608 0.66853 0.37515 0.0
C2054 C 0.50302 0.64948 0.35089 0.0
H2055 H 0.59287 0.65777 0.39253 0.0
H2056 H 0.559 0.65232 0.39411 0.0
H2057 H 0.5299 0.64617 0.33825 0.0
H2058 H 0.43549 0.6303 0.34639 0.0
H2059 H 0.46943 0.62922 0.34981 0.0
H2060 H 0.49527 0.66592 0.39478 0.0
C2061 C 0.56502 0.65692 0.38105 0.0
C2062 C 0.52259 0.65066 0.35069 0.0
C2063 C 0.58449 0.65981 0.38012 0.0
C2064 C 0.44236 0.64097 0.35462 0.0
C2065 C 0.46188 0.6405 0.35644 0.0
C2066 C 0.50261 0.66166 0.38228 0.0
C2067 C 0.55351 0.65996 0.36532 0.0
C2068 C 0.53258 0.65758 0.36617 0.0
C2069 C 0.47154 0.65454 0.36634 0.0
C2070 C 0.49262 0.65508 0.36663 0.0
H2071 H 0.58755 0.67319 0.33469 0.0
H2072 H 0.55397 0.66848 0.33627 0.0
H2073 H 0.52929 0.66839 0.39424 0.0
H2074 H 0.43349 0.68031 0.3796 0.0
H2075 H 0.46755 0.67971 0.38275 0.0
C2076 C 0.37403 0.08801 0.865 0.0
C2077 C 0.35642 0.09603 0.8684 0.0
C2078 C 0.37654 0.0685 0.86591 0.0
C2079 C 0.35304 0.02438 0.88271 0.0
H2080 H 0.38532 1.00011 0.84673 0.0
C2081 C 0.34662 0.94586 0.86459 0.0
C2082 C 0.36296 0.93531 0.862 0.0
C2083 C 0.34747 0.96523 0.86722 0.0
C2084 C 0.37641 1.00666 0.85704 0.0
H2085 H 0.32794 0.08977 0.87633 0.0
H2086 H 0.332 0.05621 0.87728 0.0
H2087 H 0.38386 0.03417 0.84789 0.0
H2088 H 0.39303 0.93685 0.85997 0.0
H2089 H 0.3946 0.97092 0.8644 0.0
H2090 H 0.34514 0.99686 0.89141 0.0
C2091 C 0.34406 0.06473 0.87411 0.0
C2092 C 0.37558 0.02628 0.85775 0.0
C2093 C 0.34162 0.08411 0.8733 0.0
C2094 C 0.38024 0.9446 0.86221 0.0
C2095 C 0.38109 0.96412 0.86456 0.0
C2096 C 0.35372 1.00483 0.88185 0.0
C2097 C 0.36151 0.05649 0.87028 0.0
C2098 C 0.36365 0.03551 0.87042 0.0
C2099 C 0.36468 0.97473 0.86701 0.0
C2100 C 0.3652 0.99563 0.86884 0.0
H2101 H 0.38573 0.09674 0.86112 0.0
H2102 H 0.39028 0.06287 0.86311 0.0
H2103 H 0.34405 0.03075 0.89305 0.0
H2104 H 0.33309 0.9391 0.86427 0.0
H2105 H 0.33452 0.97286 0.86882 0.0
C2106 C 0.08746 0.88415 0.35719 0.0
C2107 C 0.09683 0.86713 0.3597 0.0
C2108 C 0.06795 0.88528 0.35927 0.0
C2109 C 0.0262 0.86024 0.3785 0.0
H2110 H 0.99912 0.88796 0.34081 0.0
C2111 C 0.94469 0.8671 0.37939 0.0
C2112 C 0.93576 0.86444 0.36213 0.0
C2113 C 0.96425 0.86913 0.38037 0.0
C2114 C 1.00641 0.88014 0.35147 0.0
H2115 H 0.0932 0.83804 0.36674 0.0
H2116 H 0.05927 0.83995 0.37062 0.0
H2117 H 0.03319 0.88801 0.34062 0.0
H2118 H 0.9403 0.86218 0.33238 0.0
H2119 H 0.97413 0.86595 0.33397 0.0
H2120 H 0.99936 0.85206 0.3891 0.0
C2121 C 0.06689 0.85253 0.36716 0.0
C2122 C 0.02604 0.88032 0.35148 0.0
C2123 C 0.08635 0.85139 0.36493 0.0
C2124 C 0.94676 0.86435 0.34588 0.0
C2125 C 0.96619 0.86657 0.34681 0.0
C2126 C 1.00654 0.8602 0.3786 0.0
C2127 C 0.0573 0.86941 0.36403 0.0
C2128 C 0.03628 0.87018 0.36485 0.0
C2129 C 0.97533 0.86874 0.36408 0.0
C2130 C 0.99632 0.86994 0.36492 0.0
H2131 H 0.09517 0.89645 0.35297 0.0
H2132 H 0.06118 0.89858 0.35693 0.0
H2133 H 0.03351 0.85239 0.38914 0.0
H2134 H 0.93662 0.86698 0.39217 0.0
H2135 H 0.97072 0.8709 0.39391 0.0
C2136 C 0.64594 0.16249 0.08157 0.0
C2137 C 0.66323 0.16485 0.09059 0.0
C2138 C 0.64501 0.16047 0.062 0.0
C2139 C 0.67248 0.17196 0.01943 0.0
H2140 H 0.63872 0.13839 0.99368 0.0
C2141 C 0.66488 0.17515 0.93939 0.0
C2142 C 0.66488 0.15818 0.92956 0.0
C2143 C 0.66269 0.17554 0.95882 0.0
C2144 C 0.64829 0.14781 1.00064 0.0
H2145 H 0.69309 0.16612 0.08618 0.0
H2146 H 0.69156 0.16262 0.05241 0.0
H2147 H 0.63912 0.13921 0.02792 0.0
H2148 H 0.66179 0.12831 0.93238 0.0
H2149 H 0.65781 0.12889 0.96645 0.0
H2150 H 0.68184 0.18045 0.9924 0.0
C2151 C 0.67863 0.16262 0.06024 0.0
C2152 C 0.6484 0.1484 0.02031 0.0
C2153 C 0.67953 0.16455 0.07967 0.0
C2154 C 0.66169 0.14162 0.93955 0.0
C2155 C 0.65945 0.14198 0.9591 0.0
C2156 C 0.67226 0.17148 0.99987 0.0
C2157 C 0.66136 0.16091 0.051 0.0
C2158 C 0.66063 0.16039 0.03001 0.0
C2159 C 0.66043 0.15893 0.9691 0.0
C2160 C 0.6602 0.15939 0.99011 0.0
H2161 H 0.6331 0.16293 0.08954 0.0
H2162 H 0.63145 0.15928 0.05543 0.0
H2163 H 0.68193 0.18157 0.02627 0.0
H2164 H 0.66725 0.18815 0.93205 0.0
H2165 H 0.66312 0.18891 0.96586 0.0
C2166 C 0.87999 0.15848 0.4431 0.0
C2167 C 0.8626 0.16195 0.43462 0.0
C2168 C 0.88147 0.15695 0.46267 0.0
C2169 C 0.8581 0.17335 0.50545 0.0
H2170 H 0.88535 0.13463 0.53159 0.0
C2171 C 0.8703 0.1773 0.58507 0.0
C2172 C 0.86559 0.16131 0.59537 0.0
C2173 C 0.8718 0.1766 0.56557 0.0
C2174 C 0.87769 0.14555 0.52449 0.0
H2175 H 0.83309 0.16563 0.44008 0.0
H2176 H 0.83573 0.16346 0.47392 0.0
H2177 H 0.88419 0.1345 0.49729 0.0
H2178 H 0.85961 0.13179 0.5933 0.0
H2179 H 0.86276 0.13039 0.55917 0.0
H2180 H 0.85163 0.1845 0.53244 0.0
C2181 C 0.84825 0.16202 0.46557 0.0
C2182 C 0.87713 0.14553 0.50484 0.0
C2183 C 0.84674 0.16327 0.44613 0.0
C2184 C 0.86343 0.14432 0.58577 0.0
C2185 C 0.86518 0.14354 0.56621 0.0
C2186 C 0.85893 0.17355 0.52499 0.0
C2187 C 0.86565 0.15916 0.47418 0.0
C2188 C 0.86714 0.15934 0.49506 0.0
C2189 C 0.86889 0.1598 0.55579 0.0
C2190 C 0.86863 0.15961 0.53484 0.0
H2191 H 0.89252 0.15766 0.43469 0.0
H2192 H 0.89511 0.15481 0.46883 0.0
H2193 H 0.8504 0.1843 0.49843 0.0
H2194 H 0.87235 0.19053 0.59209 0.0
H2195 H 0.875 0.18933 0.55808 0.0
C2196 C 0.86514 0.37978 0.94523 0.0
C2197 C 0.86615 0.36282 0.93542 0.0
C2198 C 0.8666 0.38012 0.96486 0.0
C2199 C 0.86174 0.34801 1.00605 0.0
H2200 H 0.88321 0.389 0.0341 0.0
C2201 C 0.87515 0.3413 0.08497 0.0
C2202 C 0.86961 0.35607 0.09666 0.0
C2203 C 0.87567 0.34341 0.06555 0.0
C2204 C 0.87703 0.37749 0.02648 0.0
H2205 H 0.87014 0.33309 0.93836 0.0
H2206 H 0.87352 0.33364 0.97215 0.0
H2207 H 0.88278 0.39017 0.99992 0.0
H2208 H 0.86121 0.38508 0.09693 0.0
H2209 H 0.86243 0.38894 0.06283 0.0
H2210 H 0.8562 0.33523 0.03246 0.0
C2211 C 0.87101 0.3467 0.96502 0.0
C2212 C 0.87675 0.37816 1.00681 0.0
C2213 C 0.86934 0.34637 0.94554 0.0
C2214 C 0.86558 0.37342 0.08837 0.0
C2215 C 0.86624 0.3756 0.06881 0.0
C2216 C 0.86219 0.34728 0.02559 0.0
C2217 C 0.86917 0.36349 0.97514 0.0
C2218 C 0.86925 0.36331 0.99623 0.0
C2219 C 0.87085 0.36046 0.05709 0.0
C2220 C 0.86998 0.3619 0.03615 0.0
H2221 H 0.8624 0.39264 0.9378 0.0
H2222 H 0.86498 0.39334 0.97199 0.0
H2223 H 0.85527 0.33652 0.99867 0.0
H2224 H 0.87883 0.32789 0.09086 0.0
H2225 H 0.87975 0.33156 0.05711 0.0
C2226 C 0.67829 0.36245 0.44119 0.0
C2227 C 0.66146 0.36007 0.43142 0.0
C2228 C 0.67844 0.36436 0.46068 0.0
C2229 C 0.64861 0.37354 0.50275 0.0
H2230 H 0.68801 0.34651 0.52808 0.0
C2231 C 0.66198 0.37762 0.58383 0.0
C2232 C 0.66799 0.36115 0.59264 0.0
C2233 C 0.65989 0.37833 0.56426 0.0
C2234 C 0.6768 0.35406 0.52133 0.0
H2235 H 0.63147 0.35846 0.43439 0.0
H2236 H 0.6316 0.36183 0.46851 0.0
H2237 H 0.68687 0.34664 0.49423 0.0
H2238 H 0.6755 0.3323 0.58789 0.0
H2239 H 0.6718 0.33343 0.55414 0.0
H2240 H 0.63842 0.38066 0.53009 0.0
C2241 C 0.64476 0.36236 0.46112 0.0
C2242 C 0.67628 0.35435 0.50177 0.0
C2243 C 0.64465 0.36044 0.44154 0.0
C2244 C 0.67114 0.34529 0.58153 0.0
C2245 C 0.66909 0.34598 0.5621 0.0
C2246 C 0.64918 0.37333 0.52242 0.0
C2247 C 0.66172 0.3639 0.47106 0.0
C2248 C 0.66219 0.36405 0.49209 0.0
C2249 C 0.66383 0.3626 0.55304 0.0
C2250 C 0.66322 0.36344 0.53204 0.0
H2251 H 0.69146 0.36226 0.43375 0.0
H2252 H 0.69176 0.36593 0.46764 0.0
H2253 H 0.6376 0.38128 0.4959 0.0
H2254 H 0.65959 0.39012 0.59198 0.0
H2255 H 0.65587 0.39141 0.55787 0.0
C2256 C 0.84675 0.94715 0.36719 0.0
C2257 C 0.85546 0.93695 0.38143 0.0
C2258 C 0.85111 0.96593 0.36441 0.0
C2259 C 0.87324 1.00732 0.38634 0.0
H2260 H 0.87864 0.02319 0.33489 0.0
C2261 C 0.89954 0.08115 0.36659 0.0
C2262 C 0.88855 0.09041 0.3533 0.0
C2263 C 0.89707 0.06203 0.3698 0.0
C2264 C 0.87711 0.019 0.34933 0.0
H2265 H 0.87481 0.93851 0.40458 0.0
H2266 H 0.88262 0.97138 0.39969 0.0
H2267 H 0.87035 0.99097 0.34173 0.0
H2268 H 0.86731 0.08692 0.33209 0.0
H2269 H 0.863 0.05361 0.33758 0.0
H2270 H 0.88003 0.03546 0.39386 0.0
C2271 C 0.87235 0.96492 0.39068 0.0
C2272 C 0.87226 1.00055 0.35326 0.0
C2273 C 0.86789 0.9461 0.3935 0.0
C2274 C 0.8758 0.0801 0.34256 0.0
C2275 C 0.87344 0.06102 0.34564 0.0
C2276 C 0.87817 0.0258 0.38238 0.0
C2277 C 0.86432 0.97494 0.37582 0.0
C2278 C 0.87002 0.99451 0.37181 0.0
C2279 C 0.88376 0.05183 0.35956 0.0
C2280 C 0.87995 0.03189 0.36382 0.0
H2281 H 0.83679 0.94049 0.35796 0.0
H2282 H 0.84424 0.97334 0.35318 0.0
H2283 H 0.87149 1.00321 0.40076 0.0
H2284 H 0.90945 0.08883 0.37505 0.0
H2285 H 0.90539 0.05528 0.38046 0.0
C2286 C 0.07949 0.34473 0.87424 0.0
C2287 C 0.08998 0.35436 0.88768 0.0
C2288 C 0.06078 0.34922 0.87122 0.0
C2289 C 0.01982 0.37385 0.89097 0.0
H2290 H 1.00491 0.37629 0.83899 0.0
C2291 C 0.94649 0.39943 0.86807 0.0
C2292 C 0.93746 0.38772 0.85522 0.0
C2293 C 0.96553 0.39706 0.87191 0.0
C2294 C 1.00882 0.37559 0.85358 0.0
H2295 H 0.089 0.37544 0.90929 0.0
H2296 H 0.05615 0.38343 0.90401 0.0
H2297 H 0.03686 0.36786 0.84694 0.0
H2298 H 0.9413 0.36524 0.8354 0.0
H2299 H 0.97443 0.36108 0.84199 0.0
H2300 H 0.99165 0.38154 0.89753 0.0
C2301 C 0.06238 0.37238 0.8958 0.0
C2302 C 0.02712 0.37068 0.85815 0.0
C2303 C 0.08115 0.3678 0.89887 0.0
C2304 C 0.94793 0.3743 0.84554 0.0
C2305 C 0.96692 0.37202 0.84923 0.0
C2306 C 1.00148 0.37882 0.88638 0.0
C2307 C 0.05213 0.36348 0.88157 0.0
C2308 C 0.03278 0.36945 0.87691 0.0
C2309 C 0.97587 0.38311 0.86273 0.0
C2310 C 0.99571 0.37948 0.86762 0.0
H2311 H 0.08593 0.33406 0.86568 0.0
H2312 H 0.05317 0.34172 0.86053 0.0
H2313 H 0.02369 0.37295 0.90555 0.0
H2314 H 0.93867 0.40988 0.87572 0.0
H2315 H 0.9721 0.40597 0.88221 0.0
C2316 C 0.64474 0.45134 0.345 0.0
C2317 C 0.65377 0.43762 0.35567 0.0
C2318 C 0.64765 0.47027 0.34867 0.0
C2319 C 0.66468 0.50287 0.38532 0.0
H2320 H 0.66662 0.53755 0.34389 0.0
C2321 C 0.6851 0.58153 0.39176 0.0
C2322 C 0.67367 0.59389 0.38176 0.0
C2323 C 0.68292 0.56221 0.38961 0.0
C2324 C 0.66601 0.52803 0.3556 0.0
H2325 H 0.67201 0.43316 0.37943 0.0
H2326 H 0.67791 0.46603 0.38517 0.0
H2327 H 0.66282 0.50436 0.33777 0.0
H2328 H 0.64982 0.59592 0.36326 0.0
H2329 H 0.64633 0.56233 0.35913 0.0
H2330 H 0.6682 0.52674 0.40308 0.0
C2331 C 0.66853 0.46221 0.37395 0.0
C2332 C 0.66375 0.509 0.35212 0.0
C2333 C 0.66548 0.44327 0.37037 0.0
C2334 C 0.65936 0.58667 0.37048 0.0
C2335 C 0.6573 0.56747 0.36819 0.0
C2336 C 0.66715 0.52194 0.38879 0.0
C2337 C 0.65968 0.47597 0.36313 0.0
C2338 C 0.66282 0.49617 0.36693 0.0
C2339 C 0.66926 0.55504 0.37745 0.0
C2340 C 0.6676 0.53471 0.37396 0.0
H2341 H 0.6354 0.44744 0.33376 0.0
H2342 H 0.64024 0.48043 0.3403 0.0
H2343 H 0.66379 0.49346 0.39709 0.0
H2344 H 0.69602 0.58681 0.40079 0.0
H2345 H 0.69227 0.5529 0.39699 0.0
C2346 C 0.58275 0.16047 0.83997 0.0
C2347 C 0.59139 0.1451 0.84845 0.0
C2348 C 0.56369 0.16376 0.84256 0.0
C2349 C 0.51992 0.14068 0.85868 0.0
H2350 H 0.50227 0.19164 0.86255 0.0
C2351 C 0.44931 0.18424 0.88168 0.0
C2352 C 0.43564 0.1727 0.87364 0.0
C2353 C 0.46828 0.18096 0.87843 0.0
C2354 C 0.50696 0.17731 0.86172 0.0
H2355 H 0.58702 0.12103 0.86613 0.0
H2356 H 0.55395 0.12703 0.87123 0.0
H2357 H 0.53531 0.18569 0.85765 0.0
H2358 H 0.43144 0.14781 0.85688 0.0
H2359 H 0.46416 0.14285 0.8502 0.0
H2360 H 0.49178 0.13225 0.86367 0.0
C2361 C 0.56165 0.13636 0.86219 0.0
C2362 C 0.52592 0.17389 0.85859 0.0
C2363 C 0.58064 0.13294 0.85936 0.0
C2364 C 0.44141 0.15756 0.86259 0.0
C2365 C 0.46034 0.15441 0.85914 0.0
C2366 C 0.50103 0.14409 0.86205 0.0
C2367 C 0.5529 0.15183 0.85384 0.0
C2368 C 0.53266 0.15552 0.85701 0.0
C2369 C 0.47405 0.16604 0.86703 0.0
C2370 C 0.49426 0.16245 0.86357 0.0
H2371 H 0.59069 0.16984 0.83117 0.0
H2372 H 0.55739 0.17557 0.83556 0.0
H2373 H 0.52449 0.12635 0.85727 0.0
H2374 H 0.44535 0.19588 0.89047 0.0
H2375 H 0.47841 0.18999 0.8851 0.0
C2376 C 0.85842 0.58054 0.13347 0.0
C2377 C 0.84772 0.59136 0.14577 0.0
C2378 C 0.86128 0.56157 0.13692 0.0
C2379 C 0.85815 0.526 0.17465 0.0
H2380 H 0.86265 0.49173 0.13305 0.0
C2381 C 0.88128 0.44944 0.18494 0.0
C2382 C 0.87318 0.43574 0.17348 0.0
C2383 C 0.87797 0.46839 0.18167 0.0
C2384 C 0.86119 0.50101 0.14488 0.0
H2385 H 0.83086 0.5908 0.17082 0.0
H2386 H 0.83529 0.55755 0.17661 0.0
H2387 H 0.85623 0.5244 0.12714 0.0
H2388 H 0.8562 0.43148 0.14875 0.0
H2389 H 0.84939 0.46415 0.14383 0.0
H2390 H 0.86228 0.50242 0.19242 0.0
C2391 C 0.84211 0.56377 0.16466 0.0
C2392 C 0.85781 0.51989 0.14146 0.0
C2393 C 0.83949 0.58282 0.16134 0.0
C2394 C 0.86198 0.44146 0.15844 0.0
C2395 C 0.85845 0.46036 0.15532 0.0
C2396 C 0.86129 0.50706 0.17808 0.0
C2397 C 0.85317 0.55291 0.15257 0.0
C2398 C 0.85635 0.53268 0.15628 0.0
C2399 C 0.86643 0.47411 0.16685 0.0
C2400 C 0.86292 0.4943 0.16324 0.0
H2401 H 0.865 0.58685 0.12142 0.0
H2402 H 0.87015 0.55382 0.12746 0.0
H2403 H 0.85738 0.53542 0.18644 0.0
H2404 H 0.8902 0.44552 0.1965 0.0
H2405 H 0.88471 0.47853 0.19062 0.0
C2406 C 0.58789 0.3691 0.65786 0.0
C2407 C 0.59498 0.38057 0.67207 0.0
C2408 C 0.5687 0.36748 0.65507 0.0
C2409 C 0.52352 0.37455 0.67904 0.0
H2410 H 0.50374 0.36647 0.6293 0.0
C2411 C 0.44436 0.36918 0.66267 0.0
C2412 C 0.43899 0.3541 0.6513 0.0
C2413 C 0.46323 0.37343 0.66528 0.0
C2414 C 0.50909 0.36861 0.64328 0.0
H2415 H 0.58774 0.40046 0.69359 0.0
H2416 H 0.55396 0.39802 0.68849 0.0
H2417 H 0.53684 0.37317 0.63336 0.0
H2418 H 0.44921 0.33214 0.63319 0.0
H2419 H 0.48219 0.33973 0.63757 0.0
H2420 H 0.49558 0.37016 0.68884 0.0
C2421 C 0.56325 0.38972 0.67993 0.0
C2422 C 0.52807 0.37242 0.64564 0.0
C2423 C 0.58255 0.39123 0.68279 0.0
C2424 C 0.45291 0.34372 0.64218 0.0
C2425 C 0.47177 0.3481 0.64463 0.0
C2426 C 0.50447 0.37093 0.67665 0.0
C2427 C 0.55609 0.37763 0.66616 0.0
C2428 C 0.5356 0.37513 0.66358 0.0
C2429 C 0.47712 0.36297 0.65625 0.0
C2430 C 0.49713 0.36765 0.65876 0.0
H2431 H 0.59722 0.36125 0.64892 0.0
H2432 H 0.56378 0.35794 0.64443 0.0
H2433 H 0.52884 0.37632 0.69307 0.0
H2434 H 0.43406 0.37808 0.66917 0.0
H2435 H 0.46695 0.38521 0.67401 0.0
C2436 C 0.64507 0.08756 0.15261 0.0
C2437 C 0.6354 0.09464 0.16808 0.0
C2438 C 0.64662 0.06838 0.14981 0.0
C2439 C 0.64357 0.02369 0.17557 0.0
H2440 H 0.64924 1.00293 0.12589 0.0
C2441 C 0.65188 0.94458 0.16029 0.0
C2442 C 0.66721 0.93983 0.14897 0.0
C2443 C 0.6466 0.96321 0.16258 0.0
C2444 C 0.64774 1.00857 0.13984 0.0
H2445 H 0.61831 0.08742 0.19187 0.0
H2446 H 0.62042 0.05365 0.18671 0.0
H2447 H 0.64084 0.03568 0.12959 0.0
H2448 H 0.68839 0.95089 0.13043 0.0
H2449 H 0.67885 0.98347 0.13411 0.0
H2450 H 0.65016 0.99632 0.1857 0.0
C2451 C 0.6275 0.06292 0.17713 0.0
C2452 C 0.64298 0.02735 0.142 0.0
C2453 C 0.62612 0.08223 0.18001 0.0
C2454 C 0.67667 0.95411 0.13943 0.0
C2455 C 0.6712 0.97272 0.14149 0.0
C2456 C 0.64803 1.00482 0.17338 0.0
C2457 C 0.63812 0.05574 0.16219 0.0
C2458 C 0.6412 0.03529 0.1599 0.0
C2459 C 0.65618 0.97745 0.15319 0.0
C2460 C 0.65048 0.99718 0.1555 0.0
H2461 H 0.65188 0.09689 0.14287 0.0
H2462 H 0.65504 0.06352 0.13825 0.0
H2463 H 0.64261 0.02929 0.18957 0.0
H2464 H 0.64356 0.93396 0.16702 0.0
H2465 H 0.63473 0.96645 0.17138 0.0
C2466 C 0.95377 0.13685 0.6778 0.0
C2467 C 0.93982 0.14631 0.66782 0.0
C2468 C 0.97258 0.13901 0.67307 0.0
C2469 C 1.00393 0.15578 0.63496 0.0
H2470 H 0.04048 0.15654 0.67484 0.0
C2471 C 0.08229 0.1781 0.62763 0.0
C2472 C 0.09503 0.16613 0.63644 0.0
C2473 C 0.06303 0.17526 0.62977 0.0
C2474 C 0.03041 0.15626 0.66356 0.0
H2475 H 0.93473 0.16426 0.64397 0.0
H2476 H 0.96739 0.16905 0.63655 0.0
H2477 H 1.00757 0.15276 0.68234 0.0
H2478 H 0.0979 0.14078 0.65263 0.0
H2479 H 0.06441 0.13608 0.65673 0.0
H2480 H 0.02702 0.15988 0.61628 0.0
C2481 C 0.96389 0.15988 0.64802 0.0
C2482 C 1.01154 0.15397 0.66782 0.0
C2483 C 0.94508 0.15751 0.65261 0.0
C2484 C 0.08831 0.15057 0.64625 0.0
C2485 C 0.06919 0.14786 0.64856 0.0
C2486 C 0.02283 0.15836 0.63072 0.0
C2487 C 0.97793 0.15075 0.65825 0.0
C2488 C 0.99803 0.15351 0.65358 0.0
C2489 C 0.05638 0.16041 0.64074 0.0
C2490 C 0.03625 0.15841 0.64499 0.0
H2491 H 0.95015 0.12784 0.68938 0.0
H2492 H 0.98291 0.13134 0.68098 0.0
H2493 H 0.994 0.15524 0.62358 0.0
H2494 H 0.08721 0.19005 0.6198 0.0
H2495 H 0.05338 0.18507 0.62352 0.0
C2496 C 0.36828 0.89556 0.07893 0.0
C2497 C 0.35532 0.88372 0.08758 0.0
C2498 C 0.3732 0.89281 0.06024 0.0
C2499 C 0.37166 0.85679 0.02278 0.0
H2500 H 0.38233 0.89892 0.99066 0.0
C2501 C 0.39435 0.84629 0.94606 0.0
C2502 C 0.38584 0.85823 0.93311 0.0
C2503 C 0.39284 0.84989 0.96522 0.0
C2504 C 0.3793 0.88697 0.99939 0.0
H2505 H 0.3365 0.86046 0.0834 0.0
H2506 H 0.34452 0.856 0.05062 0.0
H2507 H 0.37384 0.90432 0.02303 0.0
H2508 H 0.37064 0.88412 0.92978 0.0
H2509 H 0.36733 0.89006 0.96295 0.0
H2510 H 0.37617 0.8395 0.99888 0.0
C2511 C 0.3515 0.86696 0.05835 0.0
C2512 C 0.37465 0.89007 0.01807 0.0
C2513 C 0.34677 0.86958 0.07708 0.0
C2514 C 0.37681 0.87437 0.93952 0.0
C2515 C 0.37519 0.87792 0.95857 0.0
C2516 C 0.37612 0.8537 1.00404 0.0
C2517 C 0.36501 0.87834 0.04975 0.0
C2518 C 0.37057 0.87504 0.02998 0.0
C2519 C 0.38292 0.86559 0.97172 0.0
C2520 C 0.37978 0.86877 0.99203 0.0
H2521 H 0.37515 0.90649 0.0868 0.0
H2522 H 0.38379 0.90174 0.05421 0.0
H2523 H 0.369 0.84483 0.0316 0.0
H2524 H 0.40167 0.83392 0.94138 0.0
H2525 H 0.39931 0.8403 0.97493 0.0
C2526 C 0.16257 0.86404 0.58446 0.0
C2527 C 0.15053 0.84981 0.59053 0.0
C2528 C 0.16589 0.86679 0.56547 0.0
C2529 C 0.16092 0.84368 0.51923 0.0
H2530 H 0.16823 0.89402 0.50078 0.0
C2531 C 0.16086 0.86281 0.44091 0.0
C2532 C 0.17575 0.87397 0.43467 0.0
C2533 C 0.15814 0.85964 0.45993 0.0
C2534 C 0.16636 0.87989 0.50578 0.0
H2535 H 0.13177 0.82793 0.58138 0.0
H2536 H 0.13699 0.83313 0.54817 0.0
H2537 H 0.16224 0.88899 0.53386 0.0
H2538 H 0.19894 0.89126 0.4436 0.0
H2539 H 0.19392 0.88602 0.47695 0.0
H2540 H 0.16451 0.83475 0.49091 0.0
C2541 C 0.1445 0.8417 0.5581 0.0
C2542 C 0.163 0.87696 0.52475 0.0
C2543 C 0.14136 0.83882 0.57714 0.0
C2544 C 0.18746 0.88243 0.44795 0.0
C2545 C 0.18459 0.87947 0.46702 0.0
C2546 C 0.16403 0.84666 0.50021 0.0
C2547 C 0.15689 0.85568 0.55201 0.0
C2548 C 0.16029 0.8588 0.53175 0.0
C2549 C 0.16997 0.86793 0.47316 0.0
C2550 C 0.16683 0.86478 0.49333 0.0
H2551 H 0.1692 0.87338 0.59428 0.0
H2552 H 0.1756 0.87762 0.56138 0.0
H2553 H 0.15925 0.82949 0.52411 0.0
H2554 H 0.15094 0.85688 0.43122 0.0
H2555 H 0.14651 0.85105 0.46433 0.0
C2556 C 0.15876 0.65187 0.94303 0.0
C2557 C 0.1476 0.6671 0.93772 0.0
C2558 C 0.16151 0.64764 0.96186 0.0
C2559 C 0.15679 0.66848 1.00921 0.0
H2560 H 0.16198 0.61718 0.02567 0.0
C2561 C 0.15316 0.64843 0.08631 0.0
C2562 C 0.16848 0.63838 0.09323 0.0
C2563 C 0.15057 0.65052 0.06716 0.0
C2564 C 0.16068 0.63156 0.0212 0.0
H2565 H 0.12965 0.68912 0.94806 0.0
H2566 H 0.13378 0.68135 0.98084 0.0
H2567 H 0.15714 0.62387 0.99257 0.0
H2568 H 0.19209 0.6211 0.08574 0.0
H2569 H 0.18733 0.62444 0.05187 0.0
H2570 H 0.15974 0.67606 0.03795 0.0
C2571 C 0.14114 0.67313 0.97051 0.0
C2572 C 0.15798 0.63544 1.00225 0.0
C2573 C 0.1386 0.67749 0.95168 0.0
C2574 C 0.18034 0.62915 0.08067 0.0
C2575 C 0.17762 0.63106 0.06138 0.0
C2576 C 0.1592 0.66457 0.02812 0.0
C2577 C 0.15281 0.65827 0.97588 0.0
C2578 C 0.15591 0.65398 0.99601 0.0
C2579 C 0.163 0.64223 0.05451 0.0
C2580 C 0.16106 0.64609 0.03431 0.0
H2581 H 0.16518 0.64293 0.93273 0.0
H2582 H 0.17061 0.63611 0.96539 0.0
H2583 H 0.15576 0.68294 1.00496 0.0
H2584 H 0.1434 0.65509 0.09574 0.0
H2585 H 0.13895 0.65883 0.06222 0.0
C2586 C 0.39071 0.67912 0.58066 0.0
C2587 C 0.3803 0.66856 0.59342 0.0
C2588 C 0.38888 0.67595 0.56146 0.0
C2589 C 0.37128 0.64121 0.5269 0.0
H2590 H 0.36847 0.68422 0.49427 0.0
C2591 C 0.34407 0.63743 0.45079 0.0
C2592 C 0.35411 0.64764 0.43744 0.0
C2593 C 0.34817 0.63937 0.46979 0.0
C2594 C 0.3694 0.67206 0.50319 0.0
H2595 H 0.36113 0.64536 0.59634 0.0
H2596 H 0.35732 0.64029 0.56302 0.0
H2597 H 0.37455 0.68869 0.52743 0.0
H2598 H 0.37738 0.66655 0.4333 0.0
H2599 H 0.3842 0.67033 0.4664 0.0
H2600 H 0.36569 0.62464 0.50262 0.0
C2601 C 0.36687 0.65106 0.56764 0.0
C2602 C 0.37296 0.67461 0.52219 0.0
C2603 C 0.36879 0.65417 0.58675 0.0
C2604 C 0.3688 0.65921 0.44334 0.0
C2605 C 0.37281 0.66126 0.46228 0.0
C2606 C 0.36756 0.63868 0.50792 0.0
C2607 C 0.37673 0.66203 0.55471 0.0
C2608 C 0.37386 0.65922 0.53432 0.0
C2609 C 0.36246 0.65149 0.47573 0.0
C2610 C 0.36653 0.65408 0.49587 0.0
H2611 H 0.39997 0.69005 0.58552 0.0
H2612 H 0.39699 0.6844 0.55192 0.0
H2613 H 0.3722 0.62901 0.53575 0.0
H2614 H 0.33288 0.62818 0.44654 0.0
H2615 H 0.33995 0.63167 0.47986 0.0
loop_
_geom_bond_atom_site_label_1
_geom_bond_atom_site_label_2
_geom_bond_distance
_geom_bond_site_symmetry_2
_ccdc_geom_bond_type
Co0 O3 1.970 . S
Co0 N17 1.989 . S
Co0 O25 1.967 . S
Co0 O32 1.920 . S
Co1 O4 1.966 . S
Co1 N10 2.022 . S
Co1 N18 1.993 . S
Co1 O26 1.941 . S
C2 O3 1.258 . S
C2 O4 1.263 . S
O3 Co0 1.970 . S
O3 C2 1.258 . S
O4 Co1 1.966 . S
O4 C2 1.263 . S
C5 O6 1.235 . S
C5 O32 1.289 . S
O6 C5 1.235 . S
C7 C9 1.400 . S
C7 N10 1.351 . S
C7 C12 1.501 . S
C8 C9 1.387 . S
C8 N11 1.341 . S
C9 C7 1.400 . S
C9 C8 1.387 . S
N10 Co1 2.022 . S
N10 C7 1.351 . S
N10 N11 1.365 . S
N11 C8 1.341 . S
N11 N10 1.365 . S
N11 H31 0.862 . S
C12 C7 1.501 . S
C12 H13 0.961 . S
C12 H14 0.961 . S
C12 H15 0.960 . S
H13 C12 0.961 . S
H14 C12 0.961 . S
H15 C12 0.960 . S
C16 N17 1.342 . S
C16 C20 1.401 . S
C16 C21 1.499 . S
N17 Co0 1.989 . S
N17 C16 1.342 . S
N17 N18 1.388 . S
N18 Co1 1.993 . S
N18 N17 1.388 . S
N18 C19 1.346 . S
C19 N18 1.346 . S
C19 C20 1.396 . S
C19 C29 1.510 . S
C20 C16 1.401 . S
C20 C19 1.396 . S
C21 C16 1.499 . S
C21 H22 0.959 . S
C21 H23 0.960 . S
C21 H24 0.961 . S
H22 C21 0.959 . S
H23 C21 0.960 . S
H24 C21 0.961 . S
O25 Co0 1.967 . S
O25 C33 1.258 . S
O26 Co1 1.941 . S
O26 C33 1.266 . S
H27 C29 0.959 . S
H28 C29 0.961 . S
C29 C19 1.510 . S
C29 H27 0.959 . S
C29 H28 0.961 . S
C29 H30 0.960 . S
H30 C29 0.960 . S
H31 N11 0.862 . S
O32 Co0 1.920 . S
O32 C5 1.289 . S
C33 O25 1.258 . S
C33 O26 1.266 . S
Co34 O37 1.970 . S
Co34 N51 1.989 . S
Co34 O59 1.967 . S
Co34 O66 1.920 . S
Co35 O38 1.966 . S
Co35 N44 2.022 . S
Co35 N52 1.993 . S
Co35 O60 1.941 . S
C36 O37 1.258 . S
C36 O38 1.263 . S
O37 Co34 1.970 . S
O37 C36 1.258 . S
O38 Co35 1.966 . S
O38 C36 1.263 . S
C39 O40 1.235 . S
C39 O66 1.289 . S
O40 C39 1.235 . S
C41 C43 1.400 . S
C41 N44 1.351 . S
C41 C46 1.501 . S
C42 C43 1.387 . S
C42 N45 1.341 . S
C43 C41 1.400 . S
C43 C42 1.387 . S
N44 Co35 2.022 . S
N44 C41 1.351 . S
N44 N45 1.365 . S
N45 C42 1.341 . S
N45 N44 1.365 . S
N45 H65 0.862 . S
C46 C41 1.501 . S
C46 H47 0.961 . S
C46 H48 0.961 . S
C46 H49 0.960 . S
H47 C46 0.961 . S
H48 C46 0.961 . S
H49 C46 0.960 . S
C50 N51 1.342 . S
C50 C54 1.401 . S
C50 C55 1.499 . S
N51 Co34 1.989 . S
N51 C50 1.342 . S
N51 N52 1.388 . S
N52 Co35 1.993 . S
N52 N51 1.388 . S
N52 C53 1.346 . S
C53 N52 1.346 . S
C53 C54 1.396 . S
C53 C63 1.510 . S
C54 C50 1.401 . S
C54 C53 1.396 . S
C55 C50 1.499 . S
C55 H56 0.959 . S
C55 H57 0.960 . S
C55 H58 0.961 . S
H56 C55 0.959 . S
H57 C55 0.960 . S
H58 C55 0.961 . S
O59 Co34 1.967 . S
O59 C67 1.258 . S
O60 Co35 1.941 . S
O60 C67 1.266 . S
H61 C63 0.959 . S
H62 C63 0.961 . S
C63 C53 1.510 . S
C63 H61 0.959 . S
C63 H62 0.961 . S
C63 H64 0.960 . S
H64 C63 0.960 . S
H65 N45 0.862 . S
O66 Co34 1.920 . S
O66 C39 1.289 . S
C67 O59 1.258 . S
C67 O60 1.266 . S
Co68 O71 1.970 . S
Co68 N85 1.989 . S
Co68 O93 1.967 . S
Co68 O100 1.920 . S
Co69 O72 1.966 . S
Co69 N78 2.022 . S
Co69 N86 1.993 . S
Co69 O94 1.941 . S
C70 O71 1.258 . S
C70 O72 1.263 . S
O71 Co68 1.970 . S
O71 C70 1.258 . S
O72 Co69 1.966 . S
O72 C70 1.263 . S
C73 O74 1.235 . S
C73 O100 1.289 . S
O74 C73 1.235 . S
C75 C77 1.400 . S
C75 N78 1.351 . S
C75 C80 1.501 . S
C76 C77 1.387 . S
C76 N79 1.341 . S
C77 C75 1.400 . S
C77 C76 1.387 . S
N78 Co69 2.022 . S
N78 C75 1.351 . S
N78 N79 1.365 . S
N79 C76 1.341 . S
N79 N78 1.365 . S
N79 H99 0.862 . S
C80 C75 1.501 . S
C80 H81 0.961 . S
C80 H82 0.961 . S
C80 H83 0.960 . S
H81 C80 0.961 . S
H82 C80 0.961 . S
H83 C80 0.960 . S
C84 N85 1.342 . S
C84 C88 1.401 . S
C84 C89 1.499 . S
N85 Co68 1.989 . S
N85 C84 1.342 . S
N85 N86 1.388 . S
N86 Co69 1.993 . S
N86 N85 1.388 . S
N86 C87 1.346 . S
C87 N86 1.346 . S
C87 C88 1.396 . S
C87 C97 1.510 . S
C88 C84 1.401 . S
C88 C87 1.396 . S
C89 C84 1.499 . S
C89 H90 0.959 . S
C89 H91 0.960 . S
C89 H92 0.961 . S
H90 C89 0.959 . S
H91 C89 0.960 . S
H92 C89 0.961 . S
O93 Co68 1.967 . S
O93 C101 1.258 . S
O94 Co69 1.941 . S
O94 C101 1.266 . S
H95 C97 0.959 . S
H96 C97 0.961 . S
C97 C87 1.510 . S
C97 H95 0.959 . S
C97 H96 0.961 . S
C97 H98 0.960 . S
H98 C97 0.960 . S
H99 N79 0.862 . S
O100 Co68 1.920 . S
O100 C73 1.289 . S
C101 O93 1.258 . S
C101 O94 1.266 . S
Co102 O105 1.970 . S
Co102 N119 1.989 . S
Co102 O127 1.967 . S
Co102 O134 1.920 . S
Co103 O106 1.966 . S
Co103 N112 2.022 . S
Co103 N120 1.993 . S
Co103 O128 1.941 . S
C104 O105 1.258 . S
C104 O106 1.263 . S
O105 Co102 1.970 . S
O105 C104 1.258 . S
O106 Co103 1.966 . S
O106 C104 1.263 . S
C107 O108 1.235 . S
C107 O134 1.289 . S
O108 C107 1.235 . S
C109 C111 1.400 . S
C109 N112 1.351 . S
C109 C114 1.501 . S
C110 C111 1.387 . S
C110 N113 1.341 . S
C111 C109 1.400 . S
C111 C110 1.387 . S
N112 Co103 2.022 . S
N112 C109 1.351 . S
N112 N113 1.365 . S
N113 C110 1.341 . S
N113 N112 1.365 . S
N113 H133 0.862 . S
C114 C109 1.501 . S
C114 H115 0.961 . S
C114 H116 0.961 . S
C114 H117 0.960 . S
H115 C114 0.961 . S
H116 C114 0.961 . S
H117 C114 0.960 . S
C118 N119 1.342 . S
C118 C122 1.401 . S
C118 C123 1.499 . S
N119 Co102 1.989 . S
N119 C118 1.342 . S
N119 N120 1.388 . S
N120 Co103 1.993 . S
N120 N119 1.388 . S
N120 C121 1.346 . S
C121 N120 1.346 . S
C121 C122 1.396 . S
C121 C131 1.510 . S
C122 C118 1.401 . S
C122 C121 1.396 . S
C123 C118 1.499 . S
C123 H124 0.959 . S
C123 H125 0.960 . S
C123 H126 0.961 . S
H124 C123 0.959 . S
H125 C123 0.960 . S
H126 C123 0.961 . S
O127 Co102 1.967 . S
O127 C135 1.258 . S
O128 Co103 1.941 . S
O128 C135 1.266 . S
H129 C131 0.959 . S
H130 C131 0.961 . S
C131 C121 1.510 . S
C131 H129 0.959 . S
C131 H130 0.961 . S
C131 H132 0.960 . S
H132 C131 0.960 . S
H133 N113 0.862 . S
O134 Co102 1.920 . S
O134 C107 1.289 . S
C135 O127 1.258 . S
C135 O128 1.266 . S
Co136 O139 1.970 . S
Co136 N153 1.989 . S
Co136 O161 1.967 . S
Co136 O168 1.920 . S
Co137 O140 1.966 . S
Co137 N146 2.022 . S
Co137 N154 1.993 . S
Co137 O162 1.941 . S
C138 O139 1.258 . S
C138 O140 1.263 . S
O139 Co136 1.970 . S
O139 C138 1.258 . S
O140 Co137 1.966 . S
O140 C138 1.263 . S
C141 O142 1.235 . S
C141 O168 1.289 . S
O142 C141 1.235 . S
C143 C145 1.400 . S
C143 N146 1.351 . S
C143 C148 1.501 . S
C144 C145 1.387 . S
C144 N147 1.341 . S
C145 C143 1.400 . S
C145 C144 1.387 . S
N146 Co137 2.022 . S
N146 C143 1.351 . S
N146 N147 1.365 . S
N147 C144 1.341 . S
N147 N146 1.365 . S
N147 H167 0.862 . S
C148 C143 1.501 . S
C148 H149 0.961 . S
C148 H150 0.961 . S
C148 H151 0.960 . S
H149 C148 0.961 . S
H150 C148 0.961 . S
H151 C148 0.960 . S
C152 N153 1.342 . S
C152 C156 1.401 . S
C152 C157 1.499 . S
N153 Co136 1.989 . S
N153 C152 1.342 . S
N153 N154 1.388 . S
N154 Co137 1.993 . S
N154 N153 1.388 . S
N154 C155 1.346 . S
C155 N154 1.346 . S
C155 C156 1.396 . S
C155 C165 1.510 . S
C156 C152 1.401 . S
C156 C155 1.396 . S
C157 C152 1.499 . S
C157 H158 0.959 . S
C157 H159 0.960 . S
C157 H160 0.961 . S
H158 C157 0.959 . S
H159 C157 0.960 . S
H160 C157 0.961 . S
O161 Co136 1.967 . S
O161 C169 1.258 . S
O162 Co137 1.941 . S
O162 C169 1.266 . S
H163 C165 0.959 . S
H164 C165 0.961 . S
C165 C155 1.510 . S
C165 H163 0.959 . S
C165 H164 0.961 . S
C165 H166 0.960 . S
H166 C165 0.960 . S
H167 N147 0.862 . S
O168 Co136 1.920 . S
O168 C141 1.289 . S
C169 O161 1.258 . S
C169 O162 1.266 . S
Co170 O173 1.970 . S
Co170 N187 1.989 . S
Co170 O195 1.967 . S
Co170 O202 1.920 . S
Co171 O174 1.966 . S
Co171 N180 2.022 . S
Co171 N188 1.993 . S
Co171 O196 1.941 . S
C172 O173 1.258 . S
C172 O174 1.263 . S
O173 Co170 1.970 . S
O173 C172 1.258 . S
O174 Co171 1.966 . S
O174 C172 1.263 . S
C175 O176 1.235 . S
C175 O202 1.289 . S
O176 C175 1.235 . S
C177 C179 1.400 . S
C177 N180 1.351 . S
C177 C182 1.501 . S
C178 C179 1.387 . S
C178 N181 1.341 . S
C179 C177 1.400 . S
C179 C178 1.387 . S
N180 Co171 2.022 . S
N180 C177 1.351 . S
N180 N181 1.365 . S
N181 C178 1.341 . S
N181 N180 1.365 . S
N181 H201 0.862 . S
C182 C177 1.501 . S
C182 H183 0.961 . S
C182 H184 0.961 . S
C182 H185 0.960 . S
H183 C182 0.961 . S
H184 C182 0.961 . S
H185 C182 0.960 . S
C186 N187 1.342 . S
C186 C190 1.401 . S
C186 C191 1.499 . S
N187 Co170 1.989 . S
N187 C186 1.342 . S
N187 N188 1.388 . S
N188 Co171 1.993 . S
N188 N187 1.388 . S
N188 C189 1.346 . S
C189 N188 1.346 . S
C189 C190 1.396 . S
C189 C199 1.510 . S
C190 C186 1.401 . S
C190 C189 1.396 . S
C191 C186 1.499 . S
C191 H192 0.959 . S
C191 H193 0.960 . S
C191 H194 0.961 . S
H192 C191 0.959 . S
H193 C191 0.960 . S
H194 C191 0.961 . S
O195 Co170 1.967 . S
O195 C203 1.258 . S
O196 Co171 1.941 . S
O196 C203 1.266 . S
H197 C199 0.959 . S
H198 C199 0.961 . S
C199 C189 1.510 . S
C199 H197 0.959 . S
C199 H198 0.961 . S
C199 H200 0.960 . S
H200 C199 0.960 . S
H201 N181 0.862 . S
O202 Co170 1.920 . S
O202 C175 1.289 . S
C203 O195 1.258 . S
C203 O196 1.266 . S
Co204 O207 1.970 . S
Co204 N221 1.989 . S
Co204 O229 1.967 . S
Co204 O236 1.920 . S
Co205 O208 1.966 . S
Co205 N214 2.022 . S
Co205 N222 1.993 . S
Co205 O230 1.941 . S
C206 O207 1.258 . S
C206 O208 1.263 . S
O207 Co204 1.970 . S
O207 C206 1.258 . S
O208 Co205 1.966 . S
O208 C206 1.263 . S
C209 O210 1.235 . S
C209 O236 1.289 . S
O210 C209 1.235 . S
C211 C213 1.400 . S
C211 N214 1.351 . S
C211 C216 1.501 . S
C212 C213 1.387 . S
C212 N215 1.341 . S
C213 C211 1.400 . S
C213 C212 1.387 . S
N214 Co205 2.022 . S
N214 C211 1.351 . S
N214 N215 1.365 . S
N215 C212 1.341 . S
N215 N214 1.365 . S
N215 H235 0.862 . S
C216 C211 1.501 . S
C216 H217 0.961 . S
C216 H218 0.961 . S
C216 H219 0.960 . S
H217 C216 0.961 . S
H218 C216 0.961 . S
H219 C216 0.960 . S
C220 N221 1.342 . S
C220 C224 1.401 . S
C220 C225 1.499 . S
N221 Co204 1.989 . S
N221 C220 1.342 . S
N221 N222 1.388 . S
N222 Co205 1.993 . S
N222 N221 1.388 . S
N222 C223 1.346 . S
C223 N222 1.346 . S
C223 C224 1.396 . S
C223 C233 1.510 . S
C224 C220 1.401 . S
C224 C223 1.396 . S
C225 C220 1.499 . S
C225 H226 0.959 . S
C225 H227 0.960 . S
C225 H228 0.961 . S
H226 C225 0.959 . S
H227 C225 0.960 . S
H228 C225 0.961 . S
O229 Co204 1.967 . S
O229 C237 1.258 . S
O230 Co205 1.941 . S
O230 C237 1.266 . S
H231 C233 0.959 . S
H232 C233 0.961 . S
C233 C223 1.510 . S
C233 H231 0.959 . S
C233 H232 0.961 . S
C233 H234 0.960 . S
H234 C233 0.960 . S
H235 N215 0.862 . S
O236 Co204 1.920 . S
O236 C209 1.289 . S
C237 O229 1.258 . S
C237 O230 1.266 . S
Co238 O241 1.970 . S
Co238 N255 1.989 . S
Co238 O263 1.967 . S
Co238 O270 1.920 . S
Co239 O242 1.966 . S
Co239 N248 2.022 . S
Co239 N256 1.993 . S
Co239 O264 1.941 . S
C240 O241 1.258 . S
C240 O242 1.263 . S
O241 Co238 1.970 . S
O241 C240 1.258 . S
O242 Co239 1.966 . S
O242 C240 1.263 . S
C243 O244 1.235 . S
C243 O270 1.289 . S
O244 C243 1.235 . S
C245 C247 1.400 . S
C245 N248 1.351 . S
C245 C250 1.501 . S
C246 C247 1.387 . S
C246 N249 1.341 . S
C247 C245 1.400 . S
C247 C246 1.387 . S
N248 Co239 2.022 . S
N248 C245 1.351 . S
N248 N249 1.365 . S
N249 C246 1.341 . S
N249 N248 1.365 . S
N249 H269 0.862 . S
C250 C245 1.501 . S
C250 H251 0.961 . S
C250 H252 0.961 . S
C250 H253 0.960 . S
H251 C250 0.961 . S
H252 C250 0.961 . S
H253 C250 0.960 . S
C254 N255 1.342 . S
C254 C258 1.401 . S
C254 C259 1.499 . S
N255 Co238 1.989 . S
N255 C254 1.342 . S
N255 N256 1.388 . S
N256 Co239 1.993 . S
N256 N255 1.388 . S
N256 C257 1.346 . S
C257 N256 1.346 . S
C257 C258 1.396 . S
C257 C267 1.510 . S
C258 C254 1.401 . S
C258 C257 1.396 . S
C259 C254 1.499 . S
C259 H260 0.959 . S
C259 H261 0.960 . S
C259 H262 0.961 . S
H260 C259 0.959 . S
H261 C259 0.960 . S
H262 C259 0.961 . S
O263 Co238 1.967 . S
O263 C271 1.258 . S
O264 Co239 1.941 . S
O264 C271 1.266 . S
H265 C267 0.959 . S
H266 C267 0.961 . S
C267 C257 1.510 . S
C267 H265 0.959 . S
C267 H266 0.961 . S
C267 H268 0.960 . S
H268 C267 0.960 . S
H269 N249 0.862 . S
O270 Co238 1.920 . S
O270 C243 1.289 . S
C271 O263 1.258 . S
C271 O264 1.266 . S
Co272 O275 1.970 . S
Co272 N289 1.989 . S
Co272 O297 1.967 . S
Co272 O304 1.920 . S
Co273 O276 1.966 . S
Co273 N282 2.022 . S
Co273 N290 1.993 . S
Co273 O298 1.941 . S
C274 O275 1.258 . S
C274 O276 1.263 . S
O275 Co272 1.970 . S
O275 C274 1.258 . S
O276 Co273 1.966 . S
O276 C274 1.263 . S
C277 O278 1.235 . S
C277 O304 1.289 . S
O278 C277 1.235 . S
C279 C281 1.400 . S
C279 N282 1.351 . S
C279 C284 1.501 . S
C280 C281 1.387 . S
C280 N283 1.341 . S
C281 C279 1.400 . S
C281 C280 1.387 . S
N282 Co273 2.022 . S
N282 C279 1.351 . S
N282 N283 1.365 . S
N283 C280 1.341 . S
N283 N282 1.365 . S
N283 H303 0.862 . S
C284 C279 1.501 . S
C284 H285 0.961 . S
C284 H286 0.961 . S
C284 H287 0.960 . S
H285 C284 0.961 . S
H286 C284 0.961 . S
H287 C284 0.960 . S
C288 N289 1.342 . S
C288 C292 1.401 . S
C288 C293 1.499 . S
N289 Co272 1.989 . S
N289 C288 1.342 . S
N289 N290 1.388 . S
N290 Co273 1.993 . S
N290 N289 1.388 . S
N290 C291 1.346 . S
C291 N290 1.346 . S
C291 C292 1.396 . S
C291 C301 1.510 . S
C292 C288 1.401 . S
C292 C291 1.396 . S
C293 C288 1.499 . S
C293 H294 0.959 . S
C293 H295 0.960 . S
C293 H296 0.961 . S
H294 C293 0.959 . S
H295 C293 0.960 . S
H296 C293 0.961 . S
O297 Co272 1.967 . S
O297 C305 1.258 . S
O298 Co273 1.941 . S
O298 C305 1.266 . S
H299 C301 0.959 . S
H300 C301 0.961 . S
C301 C291 1.510 . S
C301 H299 0.959 . S
C301 H300 0.961 . S
C301 H302 0.960 . S
H302 C301 0.960 . S
H303 N283 0.862 . S
O304 Co272 1.920 . S
O304 C277 1.289 . S
C305 O297 1.258 . S
C305 O298 1.266 . S
Co306 O309 1.970 . S
Co306 N323 1.989 . S
Co306 O331 1.967 . S
Co306 O338 1.920 . S
Co307 O310 1.966 . S
Co307 N316 2.022 . S
Co307 N324 1.993 . S
Co307 O332 1.941 . S
C308 O309 1.258 . S
C308 O310 1.263 . S
O309 Co306 1.970 . S
O309 C308 1.258 . S
O310 Co307 1.966 . S
O310 C308 1.263 . S
C311 O312 1.235 . S
C311 O338 1.289 . S
O312 C311 1.235 . S
C313 C315 1.400 . S
C313 N316 1.351 . S
C313 C318 1.501 . S
C314 C315 1.387 . S
C314 N317 1.341 . S
C315 C313 1.400 . S
C315 C314 1.387 . S
N316 Co307 2.022 . S
N316 C313 1.351 . S
N316 N317 1.365 . S
N317 C314 1.341 . S
N317 N316 1.365 . S
N317 H337 0.862 . S
C318 C313 1.501 . S
C318 H319 0.961 . S
C318 H320 0.961 . S
C318 H321 0.960 . S
H319 C318 0.961 . S
H320 C318 0.961 . S
H321 C318 0.960 . S
C322 N323 1.342 . S
C322 C326 1.401 . S
C322 C327 1.499 . S
N323 Co306 1.989 . S
N323 C322 1.342 . S
N323 N324 1.388 . S
N324 Co307 1.993 . S
N324 N323 1.388 . S
N324 C325 1.346 . S
C325 N324 1.346 . S
C325 C326 1.396 . S
C325 C335 1.510 . S
C326 C322 1.401 . S
C326 C325 1.396 . S
C327 C322 1.499 . S
C327 H328 0.959 . S
C327 H329 0.960 . S
C327 H330 0.961 . S
H328 C327 0.959 . S
H329 C327 0.960 . S
H330 C327 0.961 . S
O331 Co306 1.967 . S
O331 C339 1.258 . S
O332 Co307 1.941 . S
O332 C339 1.266 . S
H333 C335 0.959 . S
H334 C335 0.961 . S
C335 C325 1.510 . S
C335 H333 0.959 . S
C335 H334 0.961 . S
C335 H336 0.960 . S
H336 C335 0.960 . S
H337 N317 0.862 . S
O338 Co306 1.920 . S
O338 C311 1.289 . S
C339 O331 1.258 . S
C339 O332 1.266 . S
Co340 O343 1.970 . S
Co340 N357 1.989 . S
Co340 O365 1.967 . S
Co340 O372 1.920 . S
Co341 O344 1.966 . S
Co341 N350 2.022 . S
Co341 N358 1.993 . S
Co341 O366 1.941 . S
C342 O343 1.258 . S
C342 O344 1.263 . S
O343 Co340 1.970 . S
O343 C342 1.258 . S
O344 Co341 1.966 . S
O344 C342 1.263 . S
C345 O346 1.235 . S
C345 O372 1.289 . S
O346 C345 1.235 . S
C347 C349 1.400 . S
C347 N350 1.351 . S
C347 C352 1.501 . S
C348 C349 1.387 . S
C348 N351 1.341 . S
C349 C347 1.400 . S
C349 C348 1.387 . S
N350 Co341 2.022 . S
N350 C347 1.351 . S
N350 N351 1.365 . S
N351 C348 1.341 . S
N351 N350 1.365 . S
N351 H371 0.862 . S
C352 C347 1.501 . S
C352 H353 0.961 . S
C352 H354 0.961 . S
C352 H355 0.960 . S
H353 C352 0.961 . S
H354 C352 0.961 . S
H355 C352 0.960 . S
C356 N357 1.342 . S
C356 C360 1.401 . S
C356 C361 1.499 . S
N357 Co340 1.989 . S
N357 C356 1.342 . S
N357 N358 1.388 . S
N358 Co341 1.993 . S
N358 N357 1.388 . S
N358 C359 1.346 . S
C359 N358 1.346 . S
C359 C360 1.396 . S
C359 C369 1.510 . S
C360 C356 1.401 . S
C360 C359 1.396 . S
C361 C356 1.499 . S
C361 H362 0.959 . S
C361 H363 0.960 . S
C361 H364 0.961 . S
H362 C361 0.959 . S
H363 C361 0.960 . S
H364 C361 0.961 . S
O365 Co340 1.967 . S
O365 C373 1.258 . S
O366 Co341 1.941 . S
O366 C373 1.266 . S
H367 C369 0.959 . S
H368 C369 0.961 . S
C369 C359 1.510 . S
C369 H367 0.959 . S
C369 H368 0.961 . S
C369 H370 0.960 . S
H370 C369 0.960 . S
H371 N351 0.862 . S
O372 Co340 1.920 . S
O372 C345 1.289 . S
C373 O365 1.258 . S
C373 O366 1.266 . S
Co374 O377 1.970 . S
Co374 N391 1.989 . S
Co374 O399 1.967 . S
Co374 O406 1.920 . S
Co375 O378 1.966 . S
Co375 N384 2.022 . S
Co375 N392 1.993 . S
Co375 O400 1.941 . S
C376 O377 1.258 . S
C376 O378 1.263 . S
O377 Co374 1.970 . S
O377 C376 1.258 . S
O378 Co375 1.966 . S
O378 C376 1.263 . S
C379 O380 1.235 . S
C379 O406 1.289 . S
O380 C379 1.235 . S
C381 C383 1.400 . S
C381 N384 1.351 . S
C381 C386 1.501 . S
C382 C383 1.387 . S
C382 N385 1.341 . S
C383 C381 1.400 . S
C383 C382 1.387 . S
N384 Co375 2.022 . S
N384 C381 1.351 . S
N384 N385 1.365 . S
N385 C382 1.341 . S
N385 N384 1.365 . S
N385 H405 0.862 . S
C386 C381 1.501 . S
C386 H387 0.961 . S
C386 H388 0.961 . S
C386 H389 0.960 . S
H387 C386 0.961 . S
H388 C386 0.961 . S
H389 C386 0.960 . S
C390 N391 1.342 . S
C390 C394 1.401 . S
C390 C395 1.499 . S
N391 Co374 1.989 . S
N391 C390 1.342 . S
N391 N392 1.388 . S
N392 Co375 1.993 . S
N392 N391 1.388 . S
N392 C393 1.346 . S
C393 N392 1.346 . S
C393 C394 1.396 . S
C393 C403 1.510 . S
C394 C390 1.401 . S
C394 C393 1.396 . S
C395 C390 1.499 . S
C395 H396 0.959 . S
C395 H397 0.960 . S
C395 H398 0.961 . S
H396 C395 0.959 . S
H397 C395 0.960 . S
H398 C395 0.961 . S
O399 Co374 1.967 . S
O399 C407 1.258 . S
O400 Co375 1.941 . S
O400 C407 1.266 . S
H401 C403 0.959 . S
H402 C403 0.961 . S
C403 C393 1.510 . S
C403 H401 0.959 . S
C403 H402 0.961 . S
C403 H404 0.960 . S
H404 C403 0.960 . S
H405 N385 0.862 . S
O406 Co374 1.920 . S
O406 C379 1.289 . S
C407 O399 1.258 . S
C407 O400 1.266 . S
Co408 O411 1.970 . S
Co408 N425 1.989 . S
Co408 O433 1.967 . S
Co408 O440 1.920 . S
Co409 O412 1.966 . S
Co409 N418 2.022 . S
Co409 N426 1.993 . S
Co409 O434 1.941 . S
C410 O411 1.258 . S
C410 O412 1.263 . S
O411 Co408 1.970 . S
O411 C410 1.258 . S
O412 Co409 1.966 . S
O412 C410 1.263 . S
C413 O414 1.235 . S
C413 O440 1.289 . S
O414 C413 1.235 . S
C415 C417 1.400 . S
C415 N418 1.351 . S
C415 C420 1.501 . S
C416 C417 1.387 . S
C416 N419 1.341 . S
C417 C415 1.400 . S
C417 C416 1.387 . S
N418 Co409 2.022 . S
N418 C415 1.351 . S
N418 N419 1.365 . S
N419 C416 1.341 . S
N419 N418 1.365 . S
N419 H439 0.862 . S
C420 C415 1.501 . S
C420 H421 0.961 . S
C420 H422 0.961 . S
C420 H423 0.960 . S
H421 C420 0.961 . S
H422 C420 0.961 . S
H423 C420 0.960 . S
C424 N425 1.342 . S
C424 C428 1.401 . S
C424 C429 1.499 . S
N425 Co408 1.989 . S
N425 C424 1.342 . S
N425 N426 1.388 . S
N426 Co409 1.993 . S
N426 N425 1.388 . S
N426 C427 1.346 . S
C427 N426 1.346 . S
C427 C428 1.396 . S
C427 C437 1.510 . S
C428 C424 1.401 . S
C428 C427 1.396 . S
C429 C424 1.499 . S
C429 H430 0.959 . S
C429 H431 0.960 . S
C429 H432 0.961 . S
H430 C429 0.959 . S
H431 C429 0.960 . S
H432 C429 0.961 . S
O433 Co408 1.967 . S
O433 C441 1.258 . S
O434 Co409 1.941 . S
O434 C441 1.266 . S
H435 C437 0.959 . S
H436 C437 0.961 . S
C437 C427 1.510 . S
C437 H435 0.959 . S
C437 H436 0.961 . S
C437 H438 0.960 . S
H438 C437 0.960 . S
H439 N419 0.862 . S
O440 Co408 1.920 . S
O440 C413 1.289 . S
C441 O433 1.258 . S
C441 O434 1.266 . S
Co442 O445 1.970 . S
Co442 N459 1.989 . S
Co442 O467 1.967 . S
Co442 O474 1.920 . S
Co443 O446 1.966 . S
Co443 N452 2.022 . S
Co443 N460 1.993 . S
Co443 O468 1.941 . S
C444 O445 1.258 . S
C444 O446 1.263 . S
O445 Co442 1.970 . S
O445 C444 1.258 . S
O446 Co443 1.966 . S
O446 C444 1.263 . S
C447 O448 1.235 . S
C447 O474 1.289 . S
O448 C447 1.235 . S
C449 C451 1.400 . S
C449 N452 1.351 . S
C449 C454 1.501 . S
C450 C451 1.387 . S
C450 N453 1.341 . S
C451 C449 1.400 . S
C451 C450 1.387 . S
N452 Co443 2.022 . S
N452 C449 1.351 . S
N452 N453 1.365 . S
N453 C450 1.341 . S
N453 N452 1.365 . S
N453 H473 0.862 . S
C454 C449 1.501 . S
C454 H455 0.961 . S
C454 H456 0.961 . S
C454 H457 0.960 . S
H455 C454 0.961 . S
H456 C454 0.961 . S
H457 C454 0.960 . S
C458 N459 1.342 . S
C458 C462 1.401 . S
C458 C463 1.499 . S
N459 Co442 1.989 . S
N459 C458 1.342 . S
N459 N460 1.388 . S
N460 Co443 1.993 . S
N460 N459 1.388 . S
N460 C461 1.346 . S
C461 N460 1.346 . S
C461 C462 1.396 . S
C461 C471 1.510 . S
C462 C458 1.401 . S
C462 C461 1.396 . S
C463 C458 1.499 . S
C463 H464 0.959 . S
C463 H465 0.960 . S
C463 H466 0.961 . S
H464 C463 0.959 . S
H465 C463 0.960 . S
H466 C463 0.961 . S
O467 Co442 1.967 . S
O467 C475 1.258 . S
O468 Co443 1.941 . S
O468 C475 1.266 . S
H469 C471 0.959 . S
H470 C471 0.961 . S
C471 C461 1.510 . S
C471 H469 0.959 . S
C471 H470 0.961 . S
C471 H472 0.960 . S
H472 C471 0.960 . S
H473 N453 0.862 . S
O474 Co442 1.920 . S
O474 C447 1.289 . S
C475 O467 1.258 . S
C475 O468 1.266 . S
Co476 O479 1.970 . S
Co476 N493 1.989 . S
Co476 O501 1.967 . S
Co476 O508 1.920 . S
Co477 O480 1.966 . S
Co477 N486 2.022 . S
Co477 N494 1.993 . S
Co477 O502 1.941 . S
C478 O479 1.258 . S
C478 O480 1.263 . S
O479 Co476 1.970 . S
O479 C478 1.258 . S
O480 Co477 1.966 . S
O480 C478 1.263 . S
C481 O482 1.235 . S
C481 O508 1.289 . S
O482 C481 1.235 . S
C483 C485 1.400 . S
C483 N486 1.351 . S
C483 C488 1.501 . S
C484 C485 1.387 . S
C484 N487 1.341 . S
C485 C483 1.400 . S
C485 C484 1.387 . S
N486 Co477 2.022 . S
N486 C483 1.351 . S
N486 N487 1.365 . S
N487 C484 1.341 . S
N487 N486 1.365 . S
N487 H507 0.862 . S
C488 C483 1.501 . S
C488 H489 0.961 . S
C488 H490 0.961 . S
C488 H491 0.960 . S
H489 C488 0.961 . S
H490 C488 0.961 . S
H491 C488 0.960 . S
C492 N493 1.342 . S
C492 C496 1.401 . S
C492 C497 1.499 . S
N493 Co476 1.989 . S
N493 C492 1.342 . S
N493 N494 1.388 . S
N494 Co477 1.993 . S
N494 N493 1.388 . S
N494 C495 1.346 . S
C495 N494 1.346 . S
C495 C496 1.396 . S
C495 C505 1.510 . S
C496 C492 1.401 . S
C496 C495 1.396 . S
C497 C492 1.499 . S
C497 H498 0.959 . S
C497 H499 0.960 . S
C497 H500 0.961 . S
H498 C497 0.959 . S
H499 C497 0.960 . S
H500 C497 0.961 . S
O501 Co476 1.967 . S
O501 C509 1.258 . S
O502 Co477 1.941 . S
O502 C509 1.266 . S
H503 C505 0.959 . S
H504 C505 0.961 . S
C505 C495 1.510 . S
C505 H503 0.959 . S
C505 H504 0.961 . S
C505 H506 0.960 . S
H506 C505 0.960 . S
H507 N487 0.862 . S
O508 Co476 1.920 . S
O508 C481 1.289 . S
C509 O501 1.258 . S
C509 O502 1.266 . S
Co510 O513 1.970 . S
Co510 N527 1.989 . S
Co510 O535 1.967 . S
Co510 O542 1.920 . S
Co511 O514 1.966 . S
Co511 N520 2.022 . S
Co511 N528 1.993 . S
Co511 O536 1.941 . S
C512 O513 1.258 . S
C512 O514 1.263 . S
O513 Co510 1.970 . S
O513 C512 1.258 . S
O514 Co511 1.966 . S
O514 C512 1.263 . S
C515 O516 1.235 . S
C515 O542 1.289 . S
O516 C515 1.235 . S
C517 C519 1.400 . S
C517 N520 1.351 . S
C517 C522 1.501 . S
C518 C519 1.387 . S
C518 N521 1.341 . S
C519 C517 1.400 . S
C519 C518 1.387 . S
N520 Co511 2.022 . S
N520 C517 1.351 . S
N520 N521 1.365 . S
N521 C518 1.341 . S
N521 N520 1.365 . S
N521 H541 0.862 . S
C522 C517 1.501 . S
C522 H523 0.961 . S
C522 H524 0.961 . S
C522 H525 0.960 . S
H523 C522 0.961 . S
H524 C522 0.961 . S
H525 C522 0.960 . S
C526 N527 1.342 . S
C526 C530 1.401 . S
C526 C531 1.499 . S
N527 Co510 1.989 . S
N527 C526 1.342 . S
N527 N528 1.388 . S
N528 Co511 1.993 . S
N528 N527 1.388 . S
N528 C529 1.346 . S
C529 N528 1.346 . S
C529 C530 1.396 . S
C529 C539 1.510 . S
C530 C526 1.401 . S
C530 C529 1.396 . S
C531 C526 1.499 . S
C531 H532 0.959 . S
C531 H533 0.960 . S
C531 H534 0.961 . S
H532 C531 0.959 . S
H533 C531 0.960 . S
H534 C531 0.961 . S
O535 Co510 1.967 . S
O535 C543 1.258 . S
O536 Co511 1.941 . S
O536 C543 1.266 . S
H537 C539 0.959 . S
H538 C539 0.961 . S
C539 C529 1.510 . S
C539 H537 0.959 . S
C539 H538 0.961 . S
C539 H540 0.960 . S
H540 C539 0.960 . S
H541 N521 0.862 . S
O542 Co510 1.920 . S
O542 C515 1.289 . S
C543 O535 1.258 . S
C543 O536 1.266 . S
Co544 O547 1.970 . S
Co544 N561 1.989 . S
Co544 O569 1.967 . S
Co544 O576 1.920 . S
Co545 O548 1.966 . S
Co545 N554 2.022 . S
Co545 N562 1.993 . S
Co545 O570 1.941 . S
C546 O547 1.258 . S
C546 O548 1.263 . S
O547 Co544 1.970 . S
O547 C546 1.258 . S
O548 Co545 1.966 . S
O548 C546 1.263 . S
C549 O550 1.235 . S
C549 O576 1.289 . S
O550 C549 1.235 . S
C551 C553 1.400 . S
C551 N554 1.351 . S
C551 C556 1.501 . S
C552 C553 1.387 . S
C552 N555 1.341 . S
C553 C551 1.400 . S
C553 C552 1.387 . S
N554 Co545 2.022 . S
N554 C551 1.351 . S
N554 N555 1.365 . S
N555 C552 1.341 . S
N555 N554 1.365 . S
N555 H575 0.862 . S
C556 C551 1.501 . S
C556 H557 0.961 . S
C556 H558 0.961 . S
C556 H559 0.960 . S
H557 C556 0.961 . S
H558 C556 0.961 . S
H559 C556 0.960 . S
C560 N561 1.342 . S
C560 C564 1.401 . S
C560 C565 1.499 . S
N561 Co544 1.989 . S
N561 C560 1.342 . S
N561 N562 1.388 . S
N562 Co545 1.993 . S
N562 N561 1.388 . S
N562 C563 1.346 . S
C563 N562 1.346 . S
C563 C564 1.396 . S
C563 C573 1.510 . S
C564 C560 1.401 . S
C564 C563 1.396 . S
C565 C560 1.499 . S
C565 H566 0.959 . S
C565 H567 0.960 . S
C565 H568 0.961 . S
H566 C565 0.959 . S
H567 C565 0.960 . S
H568 C565 0.961 . S
O569 Co544 1.967 . S
O569 C577 1.258 . S
O570 Co545 1.941 . S
O570 C577 1.266 . S
H571 C573 0.959 . S
H572 C573 0.961 . S
C573 C563 1.510 . S
C573 H571 0.959 . S
C573 H572 0.961 . S
C573 H574 0.960 . S
H574 C573 0.960 . S
H575 N555 0.862 . S
O576 Co544 1.920 . S
O576 C549 1.289 . S
C577 O569 1.258 . S
C577 O570 1.266 . S
Co578 O581 1.970 . S
Co578 N595 1.989 . S
Co578 O603 1.967 . S
Co578 O610 1.920 . S
Co579 O582 1.966 . S
Co579 N588 2.022 . S
Co579 N596 1.993 . S
Co579 O604 1.941 . S
C580 O581 1.258 . S
C580 O582 1.263 . S
O581 Co578 1.970 . S
O581 C580 1.258 . S
O582 Co579 1.966 . S
O582 C580 1.263 . S
C583 O584 1.235 . S
C583 O610 1.289 . S
O584 C583 1.235 . S
C585 C587 1.400 . S
C585 N588 1.351 . S
C585 C590 1.501 . S
C586 C587 1.387 . S
C586 N589 1.341 . S
C587 C585 1.400 . S
C587 C586 1.387 . S
N588 Co579 2.022 . S
N588 C585 1.351 . S
N588 N589 1.365 . S
N589 C586 1.341 . S
N589 N588 1.365 . S
N589 H609 0.862 . S
C590 C585 1.501 . S
C590 H591 0.961 . S
C590 H592 0.961 . S
C590 H593 0.960 . S
H591 C590 0.961 . S
H592 C590 0.961 . S
H593 C590 0.960 . S
C594 N595 1.342 . S
C594 C598 1.401 . S
C594 C599 1.499 . S
N595 Co578 1.989 . S
N595 C594 1.342 . S
N595 N596 1.388 . S
N596 Co579 1.993 . S
N596 N595 1.388 . S
N596 C597 1.346 . S
C597 N596 1.346 . S
C597 C598 1.396 . S
C597 C607 1.510 . S
C598 C594 1.401 . S
C598 C597 1.396 . S
C599 C594 1.499 . S
C599 H600 0.959 . S
C599 H601 0.960 . S
C599 H602 0.961 . S
H600 C599 0.959 . S
H601 C599 0.960 . S
H602 C599 0.961 . S
O603 Co578 1.967 . S
O603 C611 1.258 . S
O604 Co579 1.941 . S
O604 C611 1.266 . S
H605 C607 0.959 . S
H606 C607 0.961 . S
C607 C597 1.510 . S
C607 H605 0.959 . S
C607 H606 0.961 . S
C607 H608 0.960 . S
H608 C607 0.960 . S
H609 N589 0.862 . S
O610 Co578 1.920 . S
O610 C583 1.289 . S
C611 O603 1.258 . S
C611 O604 1.266 . S
Co612 O615 1.970 . S
Co612 N629 1.989 . S
Co612 O637 1.967 . S
Co612 O644 1.920 . S
Co613 O616 1.966 . S
Co613 N622 2.022 . S
Co613 N630 1.993 . S
Co613 O638 1.941 . S
C614 O615 1.258 . S
C614 O616 1.263 . S
O615 Co612 1.970 . S
O615 C614 1.258 . S
O616 Co613 1.966 . S
O616 C614 1.263 . S
C617 O618 1.235 . S
C617 O644 1.289 . S
O618 C617 1.235 . S
C619 C621 1.400 . S
C619 N622 1.351 . S
C619 C624 1.501 . S
C620 C621 1.387 . S
C620 N623 1.341 . S
C621 C619 1.400 . S
C621 C620 1.387 . S
N622 Co613 2.022 . S
N622 C619 1.351 . S
N622 N623 1.365 . S
N623 C620 1.341 . S
N623 N622 1.365 . S
N623 H643 0.862 . S
C624 C619 1.501 . S
C624 H625 0.961 . S
C624 H626 0.961 . S
C624 H627 0.960 . S
H625 C624 0.961 . S
H626 C624 0.961 . S
H627 C624 0.960 . S
C628 N629 1.342 . S
C628 C632 1.401 . S
C628 C633 1.499 . S
N629 Co612 1.989 . S
N629 C628 1.342 . S
N629 N630 1.388 . S
N630 Co613 1.993 . S
N630 N629 1.388 . S
N630 C631 1.346 . S
C631 N630 1.346 . S
C631 C632 1.396 . S
C631 C641 1.510 . S
C632 C628 1.401 . S
C632 C631 1.396 . S
C633 C628 1.499 . S
C633 H634 0.959 . S
C633 H635 0.960 . S
C633 H636 0.961 . S
H634 C633 0.959 . S
H635 C633 0.960 . S
H636 C633 0.961 . S
O637 Co612 1.967 . S
O637 C645 1.258 . S
O638 Co613 1.941 . S
O638 C645 1.266 . S
H639 C641 0.959 . S
H640 C641 0.961 . S
C641 C631 1.510 . S
C641 H639 0.959 . S
C641 H640 0.961 . S
C641 H642 0.960 . S
H642 C641 0.960 . S
H643 N623 0.862 . S
O644 Co612 1.920 . S
O644 C617 1.289 . S
C645 O637 1.258 . S
C645 O638 1.266 . S
Co646 O649 1.970 . S
Co646 N663 1.989 . S
Co646 O671 1.967 . S
Co646 O678 1.920 . S
Co647 O650 1.966 . S
Co647 N656 2.022 . S
Co647 N664 1.993 . S
Co647 O672 1.941 . S
C648 O649 1.258 . S
C648 O650 1.263 . S
O649 Co646 1.970 . S
O649 C648 1.258 . S
O650 Co647 1.966 . S
O650 C648 1.263 . S
C651 O652 1.235 . S
C651 O678 1.289 . S
O652 C651 1.235 . S
C653 C655 1.400 . S
C653 N656 1.351 . S
C653 C658 1.501 . S
C654 C655 1.387 . S
C654 N657 1.341 . S
C655 C653 1.400 . S
C655 C654 1.387 . S
N656 Co647 2.022 . S
N656 C653 1.351 . S
N656 N657 1.365 . S
N657 C654 1.341 . S
N657 N656 1.365 . S
N657 H677 0.862 . S
C658 C653 1.501 . S
C658 H659 0.961 . S
C658 H660 0.961 . S
C658 H661 0.960 . S
H659 C658 0.961 . S
H660 C658 0.961 . S
H661 C658 0.960 . S
C662 N663 1.342 . S
C662 C666 1.401 . S
C662 C667 1.499 . S
N663 Co646 1.989 . S
N663 C662 1.342 . S
N663 N664 1.388 . S
N664 Co647 1.993 . S
N664 N663 1.388 . S
N664 C665 1.346 . S
C665 N664 1.346 . S
C665 C666 1.396 . S
C665 C675 1.510 . S
C666 C662 1.401 . S
C666 C665 1.396 . S
C667 C662 1.499 . S
C667 H668 0.959 . S
C667 H669 0.960 . S
C667 H670 0.961 . S
H668 C667 0.959 . S
H669 C667 0.960 . S
H670 C667 0.961 . S
O671 Co646 1.967 . S
O671 C679 1.258 . S
O672 Co647 1.941 . S
O672 C679 1.266 . S
H673 C675 0.959 . S
H674 C675 0.961 . S
C675 C665 1.510 . S
C675 H673 0.959 . S
C675 H674 0.961 . S
C675 H676 0.960 . S
H676 C675 0.960 . S
H677 N657 0.862 . S
O678 Co646 1.920 . S
O678 C651 1.289 . S
C679 O671 1.258 . S
C679 O672 1.266 . S
Co680 O683 1.970 . S
Co680 N697 1.989 . S
Co680 O705 1.967 . S
Co680 O712 1.920 . S
Co681 O684 1.966 . S
Co681 N690 2.022 . S
Co681 N698 1.993 . S
Co681 O706 1.941 . S
C682 O683 1.258 . S
C682 O684 1.263 . S
O683 Co680 1.970 . S
O683 C682 1.258 . S
O684 Co681 1.966 . S
O684 C682 1.263 . S
C685 O686 1.235 . S
C685 O712 1.289 . S
O686 C685 1.235 . S
C687 C689 1.400 . S
C687 N690 1.351 . S
C687 C692 1.501 . S
C688 C689 1.387 . S
C688 N691 1.341 . S
C689 C687 1.400 . S
C689 C688 1.387 . S
N690 Co681 2.022 . S
N690 C687 1.351 . S
N690 N691 1.365 . S
N691 C688 1.341 . S
N691 N690 1.365 . S
N691 H711 0.862 . S
C692 C687 1.501 . S
C692 H693 0.961 . S
C692 H694 0.961 . S
C692 H695 0.960 . S
H693 C692 0.961 . S
H694 C692 0.961 . S
H695 C692 0.960 . S
C696 N697 1.342 . S
C696 C700 1.401 . S
C696 C701 1.499 . S
N697 Co680 1.989 . S
N697 C696 1.342 . S
N697 N698 1.388 . S
N698 Co681 1.993 . S
N698 N697 1.388 . S
N698 C699 1.346 . S
C699 N698 1.346 . S
C699 C700 1.396 . S
C699 C709 1.510 . S
C700 C696 1.401 . S
C700 C699 1.396 . S
C701 C696 1.499 . S
C701 H702 0.959 . S
C701 H703 0.960 . S
C701 H704 0.961 . S
H702 C701 0.959 . S
H703 C701 0.960 . S
H704 C701 0.961 . S
O705 Co680 1.967 . S
O705 C713 1.258 . S
O706 Co681 1.941 . S
O706 C713 1.266 . S
H707 C709 0.959 . S
H708 C709 0.961 . S
C709 C699 1.510 . S
C709 H707 0.959 . S
C709 H708 0.961 . S
C709 H710 0.960 . S
H710 C709 0.960 . S
H711 N691 0.862 . S
O712 Co680 1.920 . S
O712 C685 1.289 . S
C713 O705 1.258 . S
C713 O706 1.266 . S
Co714 O717 1.970 . S
Co714 N731 1.989 . S
Co714 O739 1.967 . S
Co714 O746 1.920 . S
Co715 O718 1.966 . S
Co715 N724 2.022 . S
Co715 N732 1.993 . S
Co715 O740 1.941 . S
C716 O717 1.258 . S
C716 O718 1.263 . S
O717 Co714 1.970 . S
O717 C716 1.258 . S
O718 Co715 1.966 . S
O718 C716 1.263 . S
C719 O720 1.235 . S
C719 O746 1.289 . S
O720 C719 1.235 . S
C721 C723 1.400 . S
C721 N724 1.351 . S
C721 C726 1.501 . S
C722 C723 1.387 . S
C722 N725 1.341 . S
C723 C721 1.400 . S
C723 C722 1.387 . S
N724 Co715 2.022 . S
N724 C721 1.351 . S
N724 N725 1.365 . S
N725 C722 1.341 . S
N725 N724 1.365 . S
N725 H745 0.862 . S
C726 C721 1.501 . S
C726 H727 0.961 . S
C726 H728 0.961 . S
C726 H729 0.960 . S
H727 C726 0.961 . S
H728 C726 0.961 . S
H729 C726 0.960 . S
C730 N731 1.342 . S
C730 C734 1.401 . S
C730 C735 1.499 . S
N731 Co714 1.989 . S
N731 C730 1.342 . S
N731 N732 1.388 . S
N732 Co715 1.993 . S
N732 N731 1.388 . S
N732 C733 1.346 . S
C733 N732 1.346 . S
C733 C734 1.396 . S
C733 C743 1.510 . S
C734 C730 1.401 . S
C734 C733 1.396 . S
C735 C730 1.499 . S
C735 H736 0.959 . S
C735 H737 0.960 . S
C735 H738 0.961 . S
H736 C735 0.959 . S
H737 C735 0.960 . S
H738 C735 0.961 . S
O739 Co714 1.967 . S
O739 C747 1.258 . S
O740 Co715 1.941 . S
O740 C747 1.266 . S
H741 C743 0.959 . S
H742 C743 0.961 . S
C743 C733 1.510 . S
C743 H741 0.959 . S
C743 H742 0.961 . S
C743 H744 0.960 . S
H744 C743 0.960 . S
H745 N725 0.862 . S
O746 Co714 1.920 . S
O746 C719 1.289 . S
C747 O739 1.258 . S
C747 O740 1.266 . S
Co748 O751 1.970 . S
Co748 N765 1.989 . S
Co748 O773 1.967 . S
Co748 O780 1.920 . S
Co749 O752 1.966 . S
Co749 N758 2.022 . S
Co749 N766 1.993 . S
Co749 O774 1.941 . S
C750 O751 1.258 . S
C750 O752 1.263 . S
O751 Co748 1.970 . S
O751 C750 1.258 . S
O752 Co749 1.966 . S
O752 C750 1.263 . S
C753 O754 1.235 . S
C753 O780 1.289 . S
O754 C753 1.235 . S
C755 C757 1.400 . S
C755 N758 1.351 . S
C755 C760 1.501 . S
C756 C757 1.387 . S
C756 N759 1.341 . S
C757 C755 1.400 . S
C757 C756 1.387 . S
N758 Co749 2.022 . S
N758 C755 1.351 . S
N758 N759 1.365 . S
N759 C756 1.341 . S
N759 N758 1.365 . S
N759 H779 0.862 . S
C760 C755 1.501 . S
C760 H761 0.961 . S
C760 H762 0.961 . S
C760 H763 0.960 . S
H761 C760 0.961 . S
H762 C760 0.961 . S
H763 C760 0.960 . S
C764 N765 1.342 . S
C764 C768 1.401 . S
C764 C769 1.499 . S
N765 Co748 1.989 . S
N765 C764 1.342 . S
N765 N766 1.388 . S
N766 Co749 1.993 . S
N766 N765 1.388 . S
N766 C767 1.346 . S
C767 N766 1.346 . S
C767 C768 1.396 . S
C767 C777 1.510 . S
C768 C764 1.401 . S
C768 C767 1.396 . S
C769 C764 1.499 . S
C769 H770 0.959 . S
C769 H771 0.960 . S
C769 H772 0.961 . S
H770 C769 0.959 . S
H771 C769 0.960 . S
H772 C769 0.961 . S
O773 Co748 1.967 . S
O773 C781 1.258 . S
O774 Co749 1.941 . S
O774 C781 1.266 . S
H775 C777 0.959 . S
H776 C777 0.961 . S
C777 C767 1.510 . S
C777 H775 0.959 . S
C777 H776 0.961 . S
C777 H778 0.960 . S
H778 C777 0.960 . S
H779 N759 0.862 . S
O780 Co748 1.920 . S
O780 C753 1.289 . S
C781 O773 1.258 . S
C781 O774 1.266 . S
Co782 O785 1.970 . S
Co782 N799 1.989 . S
Co782 O807 1.967 . S
Co782 O814 1.920 . S
Co783 O786 1.966 . S
Co783 N792 2.022 . S
Co783 N800 1.993 . S
Co783 O808 1.941 . S
C784 O785 1.258 . S
C784 O786 1.263 . S
O785 Co782 1.970 . S
O785 C784 1.258 . S
O786 Co783 1.966 . S
O786 C784 1.263 . S
C787 O788 1.235 . S
C787 O814 1.289 . S
O788 C787 1.235 . S
C789 C791 1.400 . S
C789 N792 1.351 . S
C789 C794 1.501 . S
C790 C791 1.387 . S
C790 N793 1.341 . S
C791 C789 1.400 . S
C791 C790 1.387 . S
N792 Co783 2.022 . S
N792 C789 1.351 . S
N792 N793 1.365 . S
N793 C790 1.341 . S
N793 N792 1.365 . S
N793 H813 0.862 . S
C794 C789 1.501 . S
C794 H795 0.961 . S
C794 H796 0.961 . S
C794 H797 0.960 . S
H795 C794 0.961 . S
H796 C794 0.961 . S
H797 C794 0.960 . S
C798 N799 1.342 . S
C798 C802 1.401 . S
C798 C803 1.499 . S
N799 Co782 1.989 . S
N799 C798 1.342 . S
N799 N800 1.388 . S
N800 Co783 1.993 . S
N800 N799 1.388 . S
N800 C801 1.346 . S
C801 N800 1.346 . S
C801 C802 1.396 . S
C801 C811 1.510 . S
C802 C798 1.401 . S
C802 C801 1.396 . S
C803 C798 1.499 . S
C803 H804 0.959 . S
C803 H805 0.960 . S
C803 H806 0.961 . S
H804 C803 0.959 . S
H805 C803 0.960 . S
H806 C803 0.961 . S
O807 Co782 1.967 . S
O807 C815 1.258 . S
O808 Co783 1.941 . S
O808 C815 1.266 . S
H809 C811 0.959 . S
H810 C811 0.961 . S
C811 C801 1.510 . S
C811 H809 0.959 . S
C811 H810 0.961 . S
C811 H812 0.960 . S
H812 C811 0.960 . S
H813 N793 0.862 . S
O814 Co782 1.920 . S
O814 C787 1.289 . S
C815 O807 1.258 . S
C815 O808 1.266 . S
C816 C817 1.349 . S
C816 C818 1.327 . S
C816 H841 0.950 . S
C817 C816 1.349 . S
C817 C833 1.349 . S
C818 C816 1.327 . S
C818 C837 1.429 . S
C818 H842 0.950 . S
C819 C836 1.574 . S
C819 C838 1.368 . S
C819 H843 0.949 . S
H820 C824 0.949 . S
C821 C822 1.349 . S
C821 C823 1.327 . S
C821 H844 0.950 . S
C822 C821 1.349 . S
C822 C834 1.349 . S
C823 C821 1.327 . S
C823 C839 1.429 . S
C823 H845 0.950 . S
C824 H820 0.949 . S
C824 C832 1.574 . S
C824 C840 1.368 . S
H825 C833 0.950 . S
H826 C831 0.950 . S
H827 C832 0.949 . S
H828 C834 0.950 . S
H829 C835 0.950 . S
H830 C836 0.949 . S
C831 H826 0.950 . S
C831 C833 1.327 . S
C831 C837 1.429 . S
C832 C824 1.574 . S
C832 H827 0.949 . S
C832 C838 1.368 . S
C833 C817 1.349 . S
C833 H825 0.950 . S
C833 C831 1.327 . S
C834 C822 1.349 . S
C834 H828 0.950 . S
C834 C835 1.327 . S
C835 H829 0.950 . S
C835 C834 1.327 . S
C835 C839 1.429 . S
C836 C819 1.574 . S
C836 H830 0.949 . S
C836 C840 1.368 . S
C837 C818 1.429 . S
C837 C831 1.429 . S
C837 C838 1.523 . S
C838 C819 1.368 . S
C838 C832 1.368 . S
C838 C837 1.523 . S
C839 C823 1.429 . S
C839 C835 1.429 . S
C839 C840 1.523 . S
C840 C824 1.368 . S
C840 C836 1.368 . S
C840 C839 1.523 . S
H841 C816 0.950 . S
H842 C818 0.950 . S
H843 C819 0.949 . S
H844 C821 0.950 . S
H845 C823 0.950 . S
C846 C847 1.349 . S
C846 C848 1.327 . S
C846 H871 0.950 . S
C847 C846 1.349 . S
C847 C863 1.349 . S
C848 C846 1.327 . S
C848 C867 1.429 . S
C848 H872 0.950 . S
C849 C866 1.574 . S
C849 C868 1.368 . S
C849 H873 0.949 . S
H850 C854 0.949 . S
C851 C852 1.349 . S
C851 C853 1.327 . S
C851 H874 0.950 . S
C852 C851 1.349 . S
C852 C864 1.349 . S
C853 C851 1.327 . S
C853 C869 1.429 . S
C853 H875 0.950 . S
C854 H850 0.949 . S
C854 C862 1.574 . S
C854 C870 1.368 . S
H855 C863 0.950 . S
H856 C861 0.950 . S
H857 C862 0.949 . S
H858 C864 0.950 . S
H859 C865 0.950 . S
H860 C866 0.949 . S
C861 H856 0.950 . S
C861 C863 1.327 . S
C861 C867 1.429 . S
C862 C854 1.574 . S
C862 H857 0.949 . S
C862 C868 1.368 . S
C863 C847 1.349 . S
C863 H855 0.950 . S
C863 C861 1.327 . S
C864 C852 1.349 . S
C864 H858 0.950 . S
C864 C865 1.327 . S
C865 H859 0.950 . S
C865 C864 1.327 . S
C865 C869 1.429 . S
C866 C849 1.574 . S
C866 H860 0.949 . S
C866 C870 1.368 . S
C867 C848 1.429 . S
C867 C861 1.429 . S
C867 C868 1.523 . S
C868 C849 1.368 . S
C868 C862 1.368 . S
C868 C867 1.523 . S
C869 C853 1.429 . S
C869 C865 1.429 . S
C869 C870 1.523 . S
C870 C854 1.368 . S
C870 C866 1.368 . S
C870 C869 1.523 . S
H871 C846 0.950 . S
H872 C848 0.950 . S
H873 C849 0.949 . S
H874 C851 0.950 . S
H875 C853 0.950 . S
C876 C877 1.349 . S
C876 C878 1.327 . S
C876 H901 0.950 . S
C877 C876 1.349 . S
C877 C893 1.349 . S
C878 C876 1.327 . S
C878 C897 1.429 . S
C878 H902 0.950 . S
C879 C896 1.574 . S
C879 C898 1.368 . S
C879 H903 0.949 . S
H880 C884 0.949 . S
C881 C882 1.349 . S
C881 C883 1.327 . S
C881 H904 0.950 . S
C882 C881 1.349 . S
C882 C894 1.349 . S
C883 C881 1.327 . S
C883 C899 1.429 . S
C883 H905 0.950 . S
C884 H880 0.949 . S
C884 C892 1.574 . S
C884 C900 1.368 . S
H885 C893 0.950 . S
H886 C891 0.950 . S
H887 C892 0.949 . S
H888 C894 0.950 . S
H889 C895 0.950 . S
H890 C896 0.949 . S
C891 H886 0.950 . S
C891 C893 1.327 . S
C891 C897 1.429 . S
C892 C884 1.574 . S
C892 H887 0.949 . S
C892 C898 1.368 . S
C893 C877 1.349 . S
C893 H885 0.950 . S
C893 C891 1.327 . S
C894 C882 1.349 . S
C894 H888 0.950 . S
C894 C895 1.327 . S
C895 H889 0.950 . S
C895 C894 1.327 . S
C895 C899 1.429 . S
C896 C879 1.574 . S
C896 H890 0.949 . S
C896 C900 1.368 . S
C897 C878 1.429 . S
C897 C891 1.429 . S
C897 C898 1.523 . S
C898 C879 1.368 . S
C898 C892 1.368 . S
C898 C897 1.523 . S
C899 C883 1.429 . S
C899 C895 1.429 . S
C899 C900 1.523 . S
C900 C884 1.368 . S
C900 C896 1.368 . S
C900 C899 1.523 . S
H901 C876 0.950 . S
H902 C878 0.950 . S
H903 C879 0.949 . S
H904 C881 0.950 . S
H905 C883 0.950 . S
C906 C907 1.349 . S
C906 C908 1.327 . S
C906 H931 0.950 . S
C907 C906 1.349 . S
C907 C923 1.349 . S
C908 C906 1.327 . S
C908 C927 1.429 . S
C908 H932 0.950 . S
C909 C926 1.574 . S
C909 C928 1.368 . S
C909 H933 0.949 . S
H910 C914 0.949 . S
C911 C912 1.349 . S
C911 C913 1.327 . S
C911 H934 0.950 . S
C912 C911 1.349 . S
C912 C924 1.349 . S
C913 C911 1.327 . S
C913 C929 1.429 . S
C913 H935 0.950 . S
C914 H910 0.949 . S
C914 C922 1.574 . S
C914 C930 1.368 . S
H915 C923 0.950 . S
H916 C921 0.950 . S
H917 C922 0.949 . S
H918 C924 0.950 . S
H919 C925 0.950 . S
H920 C926 0.949 . S
C921 H916 0.950 . S
C921 C923 1.327 . S
C921 C927 1.429 . S
C922 C914 1.574 . S
C922 H917 0.949 . S
C922 C928 1.368 . S
C923 C907 1.349 . S
C923 H915 0.950 . S
C923 C921 1.327 . S
C924 C912 1.349 . S
C924 H918 0.950 . S
C924 C925 1.327 . S
C925 H919 0.950 . S
C925 C924 1.327 . S
C925 C929 1.429 . S
C926 C909 1.574 . S
C926 H920 0.949 . S
C926 C930 1.368 . S
C927 C908 1.429 . S
C927 C921 1.429 . S
C927 C928 1.523 . S
C928 C909 1.368 . S
C928 C922 1.368 . S
C928 C927 1.523 . S
C929 C913 1.429 . S
C929 C925 1.429 . S
C929 C930 1.523 . S
C930 C914 1.368 . S
C930 C926 1.368 . S
C930 C929 1.523 . S
H931 C906 0.950 . S
H932 C908 0.950 . S
H933 C909 0.949 . S
H934 C911 0.950 . S
H935 C913 0.950 . S
C936 C937 1.349 . S
C936 C938 1.327 . S
C936 H961 0.950 . S
C937 C936 1.349 . S
C937 C953 1.349 . S
C938 C936 1.327 . S
C938 C957 1.429 . S
C938 H962 0.950 . S
C939 C956 1.574 . S
C939 C958 1.368 . S
C939 H963 0.949 . S
H940 C944 0.949 . S
C941 C942 1.349 . S
C941 C943 1.327 . S
C941 H964 0.950 . S
C942 C941 1.349 . S
C942 C954 1.349 . S
C943 C941 1.327 . S
C943 C959 1.429 . S
C943 H965 0.950 . S
C944 H940 0.949 . S
C944 C952 1.574 . S
C944 C960 1.368 . S
H945 C953 0.950 . S
H946 C951 0.950 . S
H947 C952 0.949 . S
H948 C954 0.950 . S
H949 C955 0.950 . S
H950 C956 0.949 . S
C951 H946 0.950 . S
C951 C953 1.327 . S
C951 C957 1.429 . S
C952 C944 1.574 . S
C952 H947 0.949 . S
C952 C958 1.368 . S
C953 C937 1.349 . S
C953 H945 0.950 . S
C953 C951 1.327 . S
C954 C942 1.349 . S
C954 H948 0.950 . S
C954 C955 1.327 . S
C955 H949 0.950 . S
C955 C954 1.327 . S
C955 C959 1.429 . S
C956 C939 1.574 . S
C956 H950 0.949 . S
C956 C960 1.368 . S
C957 C938 1.429 . S
C957 C951 1.429 . S
C957 C958 1.523 . S
C958 C939 1.368 . S
C958 C952 1.368 . S
C958 C957 1.523 . S
C959 C943 1.429 . S
C959 C955 1.429 . S
C959 C960 1.523 . S
C960 C944 1.368 . S
C960 C956 1.368 . S
C960 C959 1.523 . S
H961 C936 0.950 . S
H962 C938 0.950 . S
H963 C939 0.949 . S
H964 C941 0.950 . S
H965 C943 0.950 . S
C966 C967 1.349 . S
C966 C968 1.327 . S
C966 H991 0.950 . S
C967 C966 1.349 . S
C967 C983 1.349 . S
C968 C966 1.327 . S
C968 C987 1.429 . S
C968 H992 0.950 . S
C969 C986 1.574 . S
C969 C988 1.368 . S
C969 H993 0.949 . S
H970 C974 0.949 . S
C971 C972 1.349 . S
C971 C973 1.327 . S
C971 H994 0.950 . S
C972 C971 1.349 . S
C972 C984 1.349 . S
C973 C971 1.327 . S
C973 C989 1.429 . S
C973 H995 0.950 . S
C974 H970 0.949 . S
C974 C982 1.574 . S
C974 C990 1.368 . S
H975 C983 0.950 . S
H976 C981 0.950 . S
H977 C982 0.949 . S
H978 C984 0.950 . S
H979 C985 0.950 . S
H980 C986 0.949 . S
C981 H976 0.950 . S
C981 C983 1.327 . S
C981 C987 1.429 . S
C982 C974 1.574 . S
C982 H977 0.949 . S
C982 C988 1.368 . S
C983 C967 1.349 . S
C983 H975 0.950 . S
C983 C981 1.327 . S
C984 C972 1.349 . S
C984 H978 0.950 . S
C984 C985 1.327 . S
C985 H979 0.950 . S
C985 C984 1.327 . S
C985 C989 1.429 . S
C986 C969 1.574 . S
C986 H980 0.949 . S
C986 C990 1.368 . S
C987 C968 1.429 . S
C987 C981 1.429 . S
C987 C988 1.523 . S
C988 C969 1.368 . S
C988 C982 1.368 . S
C988 C987 1.523 . S
C989 C973 1.429 . S
C989 C985 1.429 . S
C989 C990 1.523 . S
C990 C974 1.368 . S
C990 C986 1.368 . S
C990 C989 1.523 . S
H991 C966 0.950 . S
H992 C968 0.950 . S
H993 C969 0.949 . S
H994 C971 0.950 . S
H995 C973 0.950 . S
C996 C997 1.349 . S
C996 C998 1.327 . S
C996 H1021 0.950 . S
C997 C996 1.349 . S
C997 C1013 1.349 . S
C998 C996 1.327 . S
C998 C1017 1.429 . S
C998 H1022 0.950 . S
C999 C1016 1.574 . S
C999 C1018 1.368 . S
C999 H1023 0.949 . S
H1000 C1004 0.949 . S
C1001 C1002 1.349 . S
C1001 C1003 1.327 . S
C1001 H1024 0.950 . S
C1002 C1001 1.349 . S
C1002 C1014 1.349 . S
C1003 C1001 1.327 . S
C1003 C1019 1.429 . S
C1003 H1025 0.950 . S
C1004 H1000 0.949 . S
C1004 C1012 1.574 . S
C1004 C1020 1.368 . S
H1005 C1013 0.950 . S
H1006 C1011 0.950 . S
H1007 C1012 0.949 . S
H1008 C1014 0.950 . S
H1009 C1015 0.950 . S
H1010 C1016 0.949 . S
C1011 H1006 0.950 . S
C1011 C1013 1.327 . S
C1011 C1017 1.429 . S
C1012 C1004 1.574 . S
C1012 H1007 0.949 . S
C1012 C1018 1.368 . S
C1013 C997 1.349 . S
C1013 H1005 0.950 . S
C1013 C1011 1.327 . S
C1014 C1002 1.349 . S
C1014 H1008 0.950 . S
C1014 C1015 1.327 . S
C1015 H1009 0.950 . S
C1015 C1014 1.327 . S
C1015 C1019 1.429 . S
C1016 C999 1.574 . S
C1016 H1010 0.949 . S
C1016 C1020 1.368 . S
C1017 C998 1.429 . S
C1017 C1011 1.429 . S
C1017 C1018 1.523 . S
C1018 C999 1.368 . S
C1018 C1012 1.368 . S
C1018 C1017 1.523 . S
C1019 C1003 1.429 . S
C1019 C1015 1.429 . S
C1019 C1020 1.523 . S
C1020 C1004 1.368 . S
C1020 C1016 1.368 . S
C1020 C1019 1.523 . S
H1021 C996 0.950 . S
H1022 C998 0.950 . S
H1023 C999 0.949 . S
H1024 C1001 0.950 . S
H1025 C1003 0.950 . S
C1026 C1027 1.349 . S
C1026 C1028 1.327 . S
C1026 H1051 0.950 . S
C1027 C1026 1.349 . S
C1027 C1043 1.349 . S
C1028 C1026 1.327 . S
C1028 C1047 1.429 . S
C1028 H1052 0.950 . S
C1029 C1046 1.574 . S
C1029 C1048 1.368 . S
C1029 H1053 0.949 . S
H1030 C1034 0.949 . S
C1031 C1032 1.349 . S
C1031 C1033 1.327 . S
C1031 H1054 0.950 . S
C1032 C1031 1.349 . S
C1032 C1044 1.349 . S
C1033 C1031 1.327 . S
C1033 C1049 1.429 . S
C1033 H1055 0.950 . S
C1034 H1030 0.949 . S
C1034 C1042 1.574 . S
C1034 C1050 1.368 . S
H1035 C1043 0.950 . S
H1036 C1041 0.950 . S
H1037 C1042 0.949 . S
H1038 C1044 0.950 . S
H1039 C1045 0.950 . S
H1040 C1046 0.949 . S
C1041 H1036 0.950 . S
C1041 C1043 1.327 . S
C1041 C1047 1.429 . S
C1042 C1034 1.574 . S
C1042 H1037 0.949 . S
C1042 C1048 1.368 . S
C1043 C1027 1.349 . S
C1043 H1035 0.950 . S
C1043 C1041 1.327 . S
C1044 C1032 1.349 . S
C1044 H1038 0.950 . S
C1044 C1045 1.327 . S
C1045 H1039 0.950 . S
C1045 C1044 1.327 . S
C1045 C1049 1.429 . S
C1046 C1029 1.574 . S
C1046 H1040 0.949 . S
C1046 C1050 1.368 . S
C1047 C1028 1.429 . S
C1047 C1041 1.429 . S
C1047 C1048 1.523 . S
C1048 C1029 1.368 . S
C1048 C1042 1.368 . S
C1048 C1047 1.523 . S
C1049 C1033 1.429 . S
C1049 C1045 1.429 . S
C1049 C1050 1.523 . S
C1050 C1034 1.368 . S
C1050 C1046 1.368 . S
C1050 C1049 1.523 . S
H1051 C1026 0.950 . S
H1052 C1028 0.950 . S
H1053 C1029 0.949 . S
H1054 C1031 0.950 . S
H1055 C1033 0.950 . S
C1056 C1057 1.349 . S
C1056 C1058 1.327 . S
C1056 H1081 0.950 . S
C1057 C1056 1.349 . S
C1057 C1073 1.349 . S
C1058 C1056 1.327 . S
C1058 C1077 1.429 . S
C1058 H1082 0.950 . S
C1059 C1076 1.574 . S
C1059 C1078 1.368 . S
C1059 H1083 0.949 . S
H1060 C1064 0.949 . S
C1061 C1062 1.349 . S
C1061 C1063 1.327 . S
C1061 H1084 0.950 . S
C1062 C1061 1.349 . S
C1062 C1074 1.349 . S
C1063 C1061 1.327 . S
C1063 C1079 1.429 . S
C1063 H1085 0.950 . S
C1064 H1060 0.949 . S
C1064 C1072 1.574 . S
C1064 C1080 1.368 . S
H1065 C1073 0.950 . S
H1066 C1071 0.950 . S
H1067 C1072 0.949 . S
H1068 C1074 0.950 . S
H1069 C1075 0.950 . S
H1070 C1076 0.949 . S
C1071 H1066 0.950 . S
C1071 C1073 1.327 . S
C1071 C1077 1.429 . S
C1072 C1064 1.574 . S
C1072 H1067 0.949 . S
C1072 C1078 1.368 . S
C1073 C1057 1.349 . S
C1073 H1065 0.950 . S
C1073 C1071 1.327 . S
C1074 C1062 1.349 . S
C1074 H1068 0.950 . S
C1074 C1075 1.327 . S
C1075 H1069 0.950 . S
C1075 C1074 1.327 . S
C1075 C1079 1.429 . S
C1076 C1059 1.574 . S
C1076 H1070 0.949 . S
C1076 C1080 1.368 . S
C1077 C1058 1.429 . S
C1077 C1071 1.429 . S
C1077 C1078 1.523 . S
C1078 C1059 1.368 . S
C1078 C1072 1.368 . S
C1078 C1077 1.523 . S
C1079 C1063 1.429 . S
C1079 C1075 1.429 . S
C1079 C1080 1.523 . S
C1080 C1064 1.368 . S
C1080 C1076 1.368 . S
C1080 C1079 1.523 . S
H1081 C1056 0.950 . S
H1082 C1058 0.950 . S
H1083 C1059 0.949 . S
H1084 C1061 0.950 . S
H1085 C1063 0.950 . S
C1086 C1087 1.349 . S
C1086 C1088 1.327 . S
C1086 H1111 0.950 . S
C1087 C1086 1.349 . S
C1087 C1103 1.349 . S
C1088 C1086 1.327 . S
C1088 C1107 1.429 . S
C1088 H1112 0.950 . S
C1089 C1106 1.574 . S
C1089 C1108 1.368 . S
C1089 H1113 0.949 . S
H1090 C1094 0.949 . S
C1091 C1092 1.349 . S
C1091 C1093 1.327 . S
C1091 H1114 0.950 . S
C1092 C1091 1.349 . S
C1092 C1104 1.349 . S
C1093 C1091 1.327 . S
C1093 C1109 1.429 . S
C1093 H1115 0.950 . S
C1094 H1090 0.949 . S
C1094 C1102 1.574 . S
C1094 C1110 1.368 . S
H1095 C1103 0.950 . S
H1096 C1101 0.950 . S
H1097 C1102 0.949 . S
H1098 C1104 0.950 . S
H1099 C1105 0.950 . S
H1100 C1106 0.949 . S
C1101 H1096 0.950 . S
C1101 C1103 1.327 . S
C1101 C1107 1.429 . S
C1102 C1094 1.574 . S
C1102 H1097 0.949 . S
C1102 C1108 1.368 . S
C1103 C1087 1.349 . S
C1103 H1095 0.950 . S
C1103 C1101 1.327 . S
C1104 C1092 1.349 . S
C1104 H1098 0.950 . S
C1104 C1105 1.327 . S
C1105 H1099 0.950 . S
C1105 C1104 1.327 . S
C1105 C1109 1.429 . S
C1106 C1089 1.574 . S
C1106 H1100 0.949 . S
C1106 C1110 1.368 . S
C1107 C1088 1.429 . S
C1107 C1101 1.429 . S
C1107 C1108 1.523 . S
C1108 C1089 1.368 . S
C1108 C1102 1.368 . S
C1108 C1107 1.523 . S
C1109 C1093 1.429 . S
C1109 C1105 1.429 . S
C1109 C1110 1.523 . S
C1110 C1094 1.368 . S
C1110 C1106 1.368 . S
C1110 C1109 1.523 . S
H1111 C1086 0.950 . S
H1112 C1088 0.950 . S
H1113 C1089 0.949 . S
H1114 C1091 0.950 . S
H1115 C1093 0.950 . S
C1116 C1117 1.349 . S
C1116 C1118 1.327 . S
C1116 H1141 0.950 . S
C1117 C1116 1.349 . S
C1117 C1133 1.349 . S
C1118 C1116 1.327 . S
C1118 C1137 1.429 . S
C1118 H1142 0.950 . S
C1119 C1136 1.574 . S
C1119 C1138 1.368 . S
C1119 H1143 0.949 . S
H1120 C1124 0.949 . S
C1121 C1122 1.349 . S
C1121 C1123 1.327 . S
C1121 H1144 0.950 . S
C1122 C1121 1.349 . S
C1122 C1134 1.349 . S
C1123 C1121 1.327 . S
C1123 C1139 1.429 . S
C1123 H1145 0.950 . S
C1124 H1120 0.949 . S
C1124 C1132 1.574 . S
C1124 C1140 1.368 . S
H1125 C1133 0.950 . S
H1126 C1131 0.950 . S
H1127 C1132 0.949 . S
H1128 C1134 0.950 . S
H1129 C1135 0.950 . S
H1130 C1136 0.949 . S
C1131 H1126 0.950 . S
C1131 C1133 1.327 . S
C1131 C1137 1.429 . S
C1132 C1124 1.574 . S
C1132 H1127 0.949 . S
C1132 C1138 1.368 . S
C1133 C1117 1.349 . S
C1133 H1125 0.950 . S
C1133 C1131 1.327 . S
C1134 C1122 1.349 . S
C1134 H1128 0.950 . S
C1134 C1135 1.327 . S
C1135 H1129 0.950 . S
C1135 C1134 1.327 . S
C1135 C1139 1.429 . S
C1136 C1119 1.574 . S
C1136 H1130 0.949 . S
C1136 C1140 1.368 . S
C1137 C1118 1.429 . S
C1137 C1131 1.429 . S
C1137 C1138 1.523 . S
C1138 C1119 1.368 . S
C1138 C1132 1.368 . S
C1138 C1137 1.523 . S
C1139 C1123 1.429 . S
C1139 C1135 1.429 . S
C1139 C1140 1.523 . S
C1140 C1124 1.368 . S
C1140 C1136 1.368 . S
C1140 C1139 1.523 . S
H1141 C1116 0.950 . S
H1142 C1118 0.950 . S
H1143 C1119 0.949 . S
H1144 C1121 0.950 . S
H1145 C1123 0.950 . S
C1146 C1147 1.349 . S
C1146 C1148 1.327 . S
C1146 H1171 0.950 . S
C1147 C1146 1.349 . S
C1147 C1163 1.349 . S
C1148 C1146 1.327 . S
C1148 C1167 1.429 . S
C1148 H1172 0.950 . S
C1149 C1166 1.574 . S
C1149 C1168 1.368 . S
C1149 H1173 0.949 . S
H1150 C1154 0.949 . S
C1151 C1152 1.349 . S
C1151 C1153 1.327 . S
C1151 H1174 0.950 . S
C1152 C1151 1.349 . S
C1152 C1164 1.349 . S
C1153 C1151 1.327 . S
C1153 C1169 1.429 . S
C1153 H1175 0.950 . S
C1154 H1150 0.949 . S
C1154 C1162 1.574 . S
C1154 C1170 1.368 . S
H1155 C1163 0.950 . S
H1156 C1161 0.950 . S
H1157 C1162 0.949 . S
H1158 C1164 0.950 . S
H1159 C1165 0.950 . S
H1160 C1166 0.949 . S
C1161 H1156 0.950 . S
C1161 C1163 1.327 . S
C1161 C1167 1.429 . S
C1162 C1154 1.574 . S
C1162 H1157 0.949 . S
C1162 C1168 1.368 . S
C1163 C1147 1.349 . S
C1163 H1155 0.950 . S
C1163 C1161 1.327 . S
C1164 C1152 1.349 . S
C1164 H1158 0.950 . S
C1164 C1165 1.327 . S
C1165 H1159 0.950 . S
C1165 C1164 1.327 . S
C1165 C1169 1.429 . S
C1166 C1149 1.574 . S
C1166 H1160 0.949 . S
C1166 C1170 1.368 . S
C1167 C1148 1.429 . S
C1167 C1161 1.429 . S
C1167 C1168 1.523 . S
C1168 C1149 1.368 . S
C1168 C1162 1.368 . S
C1168 C1167 1.523 . S
C1169 C1153 1.429 . S
C1169 C1165 1.429 . S
C1169 C1170 1.523 . S
C1170 C1154 1.368 . S
C1170 C1166 1.368 . S
C1170 C1169 1.523 . S
H1171 C1146 0.950 . S
H1172 C1148 0.950 . S
H1173 C1149 0.949 . S
H1174 C1151 0.950 . S
H1175 C1153 0.950 . S
C1176 C1177 1.349 . S
C1176 C1178 1.327 . S
C1176 H1201 0.950 . S
C1177 C1176 1.349 . S
C1177 C1193 1.349 . S
C1178 C1176 1.327 . S
C1178 C1197 1.429 . S
C1178 H1202 0.950 . S
C1179 C1196 1.574 . S
C1179 C1198 1.368 . S
C1179 H1203 0.949 . S
H1180 C1184 0.949 . S
C1181 C1182 1.349 . S
C1181 C1183 1.327 . S
C1181 H1204 0.950 . S
C1182 C1181 1.349 . S
C1182 C1194 1.349 . S
C1183 C1181 1.327 . S
C1183 C1199 1.429 . S
C1183 H1205 0.950 . S
C1184 H1180 0.949 . S
C1184 C1192 1.574 . S
C1184 C1200 1.368 . S
H1185 C1193 0.950 . S
H1186 C1191 0.950 . S
H1187 C1192 0.949 . S
H1188 C1194 0.950 . S
H1189 C1195 0.950 . S
H1190 C1196 0.949 . S
C1191 H1186 0.950 . S
C1191 C1193 1.327 . S
C1191 C1197 1.429 . S
C1192 C1184 1.574 . S
C1192 H1187 0.949 . S
C1192 C1198 1.368 . S
C1193 C1177 1.349 . S
C1193 H1185 0.950 . S
C1193 C1191 1.327 . S
C1194 C1182 1.349 . S
C1194 H1188 0.950 . S
C1194 C1195 1.327 . S
C1195 H1189 0.950 . S
C1195 C1194 1.327 . S
C1195 C1199 1.429 . S
C1196 C1179 1.574 . S
C1196 H1190 0.949 . S
C1196 C1200 1.368 . S
C1197 C1178 1.429 . S
C1197 C1191 1.429 . S
C1197 C1198 1.523 . S
C1198 C1179 1.368 . S
C1198 C1192 1.368 . S
C1198 C1197 1.523 . S
C1199 C1183 1.429 . S
C1199 C1195 1.429 . S
C1199 C1200 1.523 . S
C1200 C1184 1.368 . S
C1200 C1196 1.368 . S
C1200 C1199 1.523 . S
H1201 C1176 0.950 . S
H1202 C1178 0.950 . S
H1203 C1179 0.949 . S
H1204 C1181 0.950 . S
H1205 C1183 0.950 . S
C1206 C1207 1.349 . S
C1206 C1208 1.327 . S
C1206 H1231 0.950 . S
C1207 C1206 1.349 . S
C1207 C1223 1.349 . S
C1208 C1206 1.327 . S
C1208 C1227 1.429 . S
C1208 H1232 0.950 . S
C1209 C1226 1.574 . S
C1209 C1228 1.368 . S
C1209 H1233 0.949 . S
H1210 C1214 0.949 . S
C1211 C1212 1.349 . S
C1211 C1213 1.327 . S
C1211 H1234 0.950 . S
C1212 C1211 1.349 . S
C1212 C1224 1.349 . S
C1213 C1211 1.327 . S
C1213 C1229 1.429 . S
C1213 H1235 0.950 . S
C1214 H1210 0.949 . S
C1214 C1222 1.574 . S
C1214 C1230 1.368 . S
H1215 C1223 0.950 . S
H1216 C1221 0.950 . S
H1217 C1222 0.949 . S
H1218 C1224 0.950 . S
H1219 C1225 0.950 . S
H1220 C1226 0.949 . S
C1221 H1216 0.950 . S
C1221 C1223 1.327 . S
C1221 C1227 1.429 . S
C1222 C1214 1.574 . S
C1222 H1217 0.949 . S
C1222 C1228 1.368 . S
C1223 C1207 1.349 . S
C1223 H1215 0.950 . S
C1223 C1221 1.327 . S
C1224 C1212 1.349 . S
C1224 H1218 0.950 . S
C1224 C1225 1.327 . S
C1225 H1219 0.950 . S
C1225 C1224 1.327 . S
C1225 C1229 1.429 . S
C1226 C1209 1.574 . S
C1226 H1220 0.949 . S
C1226 C1230 1.368 . S
C1227 C1208 1.429 . S
C1227 C1221 1.429 . S
C1227 C1228 1.523 . S
C1228 C1209 1.368 . S
C1228 C1222 1.368 . S
C1228 C1227 1.523 . S
C1229 C1213 1.429 . S
C1229 C1225 1.429 . S
C1229 C1230 1.523 . S
C1230 C1214 1.368 . S
C1230 C1226 1.368 . S
C1230 C1229 1.523 . S
H1231 C1206 0.950 . S
H1232 C1208 0.950 . S
H1233 C1209 0.949 . S
H1234 C1211 0.950 . S
H1235 C1213 0.950 . S
C1236 C1237 1.349 . S
C1236 C1238 1.327 . S
C1236 H1261 0.950 . S
C1237 C1236 1.349 . S
C1237 C1253 1.349 . S
C1238 C1236 1.327 . S
C1238 C1257 1.429 . S
C1238 H1262 0.950 . S
C1239 C1256 1.574 . S
C1239 C1258 1.368 . S
C1239 H1263 0.949 . S
H1240 C1244 0.949 . S
C1241 C1242 1.349 . S
C1241 C1243 1.327 . S
C1241 H1264 0.950 . S
C1242 C1241 1.349 . S
C1242 C1254 1.349 . S
C1243 C1241 1.327 . S
C1243 C1259 1.429 . S
C1243 H1265 0.950 . S
C1244 H1240 0.949 . S
C1244 C1252 1.574 . S
C1244 C1260 1.368 . S
H1245 C1253 0.950 . S
H1246 C1251 0.950 . S
H1247 C1252 0.949 . S
H1248 C1254 0.950 . S
H1249 C1255 0.950 . S
H1250 C1256 0.949 . S
C1251 H1246 0.950 . S
C1251 C1253 1.327 . S
C1251 C1257 1.429 . S
C1252 C1244 1.574 . S
C1252 H1247 0.949 . S
C1252 C1258 1.368 . S
C1253 C1237 1.349 . S
C1253 H1245 0.950 . S
C1253 C1251 1.327 . S
C1254 C1242 1.349 . S
C1254 H1248 0.950 . S
C1254 C1255 1.327 . S
C1255 H1249 0.950 . S
C1255 C1254 1.327 . S
C1255 C1259 1.429 . S
C1256 C1239 1.574 . S
C1256 H1250 0.949 . S
C1256 C1260 1.368 . S
C1257 C1238 1.429 . S
C1257 C1251 1.429 . S
C1257 C1258 1.523 . S
C1258 C1239 1.368 . S
C1258 C1252 1.368 . S
C1258 C1257 1.523 . S
C1259 C1243 1.429 . S
C1259 C1255 1.429 . S
C1259 C1260 1.523 . S
C1260 C1244 1.368 . S
C1260 C1256 1.368 . S
C1260 C1259 1.523 . S
H1261 C1236 0.950 . S
H1262 C1238 0.950 . S
H1263 C1239 0.949 . S
H1264 C1241 0.950 . S
H1265 C1243 0.950 . S
C1266 C1267 1.349 . S
C1266 C1268 1.327 . S
C1266 H1291 0.950 . S
C1267 C1266 1.349 . S
C1267 C1283 1.349 . S
C1268 C1266 1.327 . S
C1268 C1287 1.429 . S
C1268 H1292 0.950 . S
C1269 C1286 1.574 . S
C1269 C1288 1.368 . S
C1269 H1293 0.949 . S
H1270 C1274 0.949 . S
C1271 C1272 1.349 . S
C1271 C1273 1.327 . S
C1271 H1294 0.950 . S
C1272 C1271 1.349 . S
C1272 C1284 1.349 . S
C1273 C1271 1.327 . S
C1273 C1289 1.429 . S
C1273 H1295 0.950 . S
C1274 H1270 0.949 . S
C1274 C1282 1.574 . S
C1274 C1290 1.368 . S
H1275 C1283 0.950 . S
H1276 C1281 0.950 . S
H1277 C1282 0.949 . S
H1278 C1284 0.950 . S
H1279 C1285 0.950 . S
H1280 C1286 0.949 . S
C1281 H1276 0.950 . S
C1281 C1283 1.327 . S
C1281 C1287 1.429 . S
C1282 C1274 1.574 . S
C1282 H1277 0.949 . S
C1282 C1288 1.368 . S
C1283 C1267 1.349 . S
C1283 H1275 0.950 . S
C1283 C1281 1.327 . S
C1284 C1272 1.349 . S
C1284 H1278 0.950 . S
C1284 C1285 1.327 . S
C1285 H1279 0.950 . S
C1285 C1284 1.327 . S
C1285 C1289 1.429 . S
C1286 C1269 1.574 . S
C1286 H1280 0.949 . S
C1286 C1290 1.368 . S
C1287 C1268 1.429 . S
C1287 C1281 1.429 . S
C1287 C1288 1.523 . S
C1288 C1269 1.368 . S
C1288 C1282 1.368 . S
C1288 C1287 1.523 . S
C1289 C1273 1.429 . S
C1289 C1285 1.429 . S
C1289 C1290 1.523 . S
C1290 C1274 1.368 . S
C1290 C1286 1.368 . S
C1290 C1289 1.523 . S
H1291 C1266 0.950 . S
H1292 C1268 0.950 . S
H1293 C1269 0.949 . S
H1294 C1271 0.950 . S
H1295 C1273 0.950 . S
C1296 C1297 1.349 . S
C1296 C1298 1.327 . S
C1296 H1321 0.950 . S
C1297 C1296 1.349 . S
C1297 C1313 1.349 . S
C1298 C1296 1.327 . S
C1298 C1317 1.429 . S
C1298 H1322 0.950 . S
C1299 C1316 1.574 . S
C1299 C1318 1.368 . S
C1299 H1323 0.949 . S
H1300 C1304 0.949 . S
C1301 C1302 1.349 . S
C1301 C1303 1.327 . S
C1301 H1324 0.950 . S
C1302 C1301 1.349 . S
C1302 C1314 1.349 . S
C1303 C1301 1.327 . S
C1303 C1319 1.429 . S
C1303 H1325 0.950 . S
C1304 H1300 0.949 . S
C1304 C1312 1.574 . S
C1304 C1320 1.368 . S
H1305 C1313 0.950 . S
H1306 C1311 0.950 . S
H1307 C1312 0.949 . S
H1308 C1314 0.950 . S
H1309 C1315 0.950 . S
H1310 C1316 0.949 . S
C1311 H1306 0.950 . S
C1311 C1313 1.327 . S
C1311 C1317 1.429 . S
C1312 C1304 1.574 . S
C1312 H1307 0.949 . S
C1312 C1318 1.368 . S
C1313 C1297 1.349 . S
C1313 H1305 0.950 . S
C1313 C1311 1.327 . S
C1314 C1302 1.349 . S
C1314 H1308 0.950 . S
C1314 C1315 1.327 . S
C1315 H1309 0.950 . S
C1315 C1314 1.327 . S
C1315 C1319 1.429 . S
C1316 C1299 1.574 . S
C1316 H1310 0.949 . S
C1316 C1320 1.368 . S
C1317 C1298 1.429 . S
C1317 C1311 1.429 . S
C1317 C1318 1.523 . S
C1318 C1299 1.368 . S
C1318 C1312 1.368 . S
C1318 C1317 1.523 . S
C1319 C1303 1.429 . S
C1319 C1315 1.429 . S
C1319 C1320 1.523 . S
C1320 C1304 1.368 . S
C1320 C1316 1.368 . S
C1320 C1319 1.523 . S
H1321 C1296 0.950 . S
H1322 C1298 0.950 . S
H1323 C1299 0.949 . S
H1324 C1301 0.950 . S
H1325 C1303 0.950 . S
C1326 C1327 1.349 . S
C1326 C1328 1.327 . S
C1326 H1351 0.950 . S
C1327 C1326 1.349 . S
C1327 C1343 1.349 . S
C1328 C1326 1.327 . S
C1328 C1347 1.429 . S
C1328 H1352 0.950 . S
C1329 C1346 1.574 . S
C1329 C1348 1.368 . S
C1329 H1353 0.949 . S
H1330 C1334 0.949 . S
C1331 C1332 1.349 . S
C1331 C1333 1.327 . S
C1331 H1354 0.950 . S
C1332 C1331 1.349 . S
C1332 C1344 1.349 . S
C1333 C1331 1.327 . S
C1333 C1349 1.429 . S
C1333 H1355 0.950 . S
C1334 H1330 0.949 . S
C1334 C1342 1.574 . S
C1334 C1350 1.368 . S
H1335 C1343 0.950 . S
H1336 C1341 0.950 . S
H1337 C1342 0.949 . S
H1338 C1344 0.950 . S
H1339 C1345 0.950 . S
H1340 C1346 0.949 . S
C1341 H1336 0.950 . S
C1341 C1343 1.327 . S
C1341 C1347 1.429 . S
C1342 C1334 1.574 . S
C1342 H1337 0.949 . S
C1342 C1348 1.368 . S
C1343 C1327 1.349 . S
C1343 H1335 0.950 . S
C1343 C1341 1.327 . S
C1344 C1332 1.349 . S
C1344 H1338 0.950 . S
C1344 C1345 1.327 . S
C1345 H1339 0.950 . S
C1345 C1344 1.327 . S
C1345 C1349 1.429 . S
C1346 C1329 1.574 . S
C1346 H1340 0.949 . S
C1346 C1350 1.368 . S
C1347 C1328 1.429 . S
C1347 C1341 1.429 . S
C1347 C1348 1.523 . S
C1348 C1329 1.368 . S
C1348 C1342 1.368 . S
C1348 C1347 1.523 . S
C1349 C1333 1.429 . S
C1349 C1345 1.429 . S
C1349 C1350 1.523 . S
C1350 C1334 1.368 . S
C1350 C1346 1.368 . S
C1350 C1349 1.523 . S
H1351 C1326 0.950 . S
H1352 C1328 0.950 . S
H1353 C1329 0.949 . S
H1354 C1331 0.950 . S
H1355 C1333 0.950 . S
C1356 C1357 1.349 . S
C1356 C1358 1.327 . S
C1356 H1381 0.950 . S
C1357 C1356 1.349 . S
C1357 C1373 1.349 . S
C1358 C1356 1.327 . S
C1358 C1377 1.429 . S
C1358 H1382 0.950 . S
C1359 C1376 1.574 . S
C1359 C1378 1.368 . S
C1359 H1383 0.949 . S
H1360 C1364 0.949 . S
C1361 C1362 1.349 . S
C1361 C1363 1.327 . S
C1361 H1384 0.950 . S
C1362 C1361 1.349 . S
C1362 C1374 1.349 . S
C1363 C1361 1.327 . S
C1363 C1379 1.429 . S
C1363 H1385 0.950 . S
C1364 H1360 0.949 . S
C1364 C1372 1.574 . S
C1364 C1380 1.368 . S
H1365 C1373 0.950 . S
H1366 C1371 0.950 . S
H1367 C1372 0.949 . S
H1368 C1374 0.950 . S
H1369 C1375 0.950 . S
H1370 C1376 0.949 . S
C1371 H1366 0.950 . S
C1371 C1373 1.327 . S
C1371 C1377 1.429 . S
C1372 C1364 1.574 . S
C1372 H1367 0.949 . S
C1372 C1378 1.368 . S
C1373 C1357 1.349 . S
C1373 H1365 0.950 . S
C1373 C1371 1.327 . S
C1374 C1362 1.349 . S
C1374 H1368 0.950 . S
C1374 C1375 1.327 . S
C1375 H1369 0.950 . S
C1375 C1374 1.327 . S
C1375 C1379 1.429 . S
C1376 C1359 1.574 . S
C1376 H1370 0.949 . S
C1376 C1380 1.368 . S
C1377 C1358 1.429 . S
C1377 C1371 1.429 . S
C1377 C1378 1.523 . S
C1378 C1359 1.368 . S
C1378 C1372 1.368 . S
C1378 C1377 1.523 . S
C1379 C1363 1.429 . S
C1379 C1375 1.429 . S
C1379 C1380 1.523 . S
C1380 C1364 1.368 . S
C1380 C1376 1.368 . S
C1380 C1379 1.523 . S
H1381 C1356 0.950 . S
H1382 C1358 0.950 . S
H1383 C1359 0.949 . S
H1384 C1361 0.950 . S
H1385 C1363 0.950 . S
C1386 C1387 1.349 . S
C1386 C1388 1.327 . S
C1386 H1411 0.950 . S
C1387 C1386 1.349 . S
C1387 C1403 1.349 . S
C1388 C1386 1.327 . S
C1388 C1407 1.429 . S
C1388 H1412 0.950 . S
C1389 C1406 1.574 . S
C1389 C1408 1.368 . S
C1389 H1413 0.949 . S
H1390 C1394 0.949 . S
C1391 C1392 1.349 . S
C1391 C1393 1.327 . S
C1391 H1414 0.950 . S
C1392 C1391 1.349 . S
C1392 C1404 1.349 . S
C1393 C1391 1.327 . S
C1393 C1409 1.429 . S
C1393 H1415 0.950 . S
C1394 H1390 0.949 . S
C1394 C1402 1.574 . S
C1394 C1410 1.368 . S
H1395 C1403 0.950 . S
H1396 C1401 0.950 . S
H1397 C1402 0.949 . S
H1398 C1404 0.950 . S
H1399 C1405 0.950 . S
H1400 C1406 0.949 . S
C1401 H1396 0.950 . S
C1401 C1403 1.327 . S
C1401 C1407 1.429 . S
C1402 C1394 1.574 . S
C1402 H1397 0.949 . S
C1402 C1408 1.368 . S
C1403 C1387 1.349 . S
C1403 H1395 0.950 . S
C1403 C1401 1.327 . S
C1404 C1392 1.349 . S
C1404 H1398 0.950 . S
C1404 C1405 1.327 . S
C1405 H1399 0.950 . S
C1405 C1404 1.327 . S
C1405 C1409 1.429 . S
C1406 C1389 1.574 . S
C1406 H1400 0.949 . S
C1406 C1410 1.368 . S
C1407 C1388 1.429 . S
C1407 C1401 1.429 . S
C1407 C1408 1.523 . S
C1408 C1389 1.368 . S
C1408 C1402 1.368 . S
C1408 C1407 1.523 . S
C1409 C1393 1.429 . S
C1409 C1405 1.429 . S
C1409 C1410 1.523 . S
C1410 C1394 1.368 . S
C1410 C1406 1.368 . S
C1410 C1409 1.523 . S
H1411 C1386 0.950 . S
H1412 C1388 0.950 . S
H1413 C1389 0.949 . S
H1414 C1391 0.950 . S
H1415 C1393 0.950 . S
C1416 C1417 1.349 . S
C1416 C1418 1.327 . S
C1416 H1441 0.950 . S
C1417 C1416 1.349 . S
C1417 C1433 1.349 . S
C1418 C1416 1.327 . S
C1418 C1437 1.429 . S
C1418 H1442 0.950 . S
C1419 C1436 1.574 . S
C1419 C1438 1.368 . S
C1419 H1443 0.949 . S
H1420 C1424 0.949 . S
C1421 C1422 1.349 . S
C1421 C1423 1.327 . S
C1421 H1444 0.950 . S
C1422 C1421 1.349 . S
C1422 C1434 1.349 . S
C1423 C1421 1.327 . S
C1423 C1439 1.429 . S
C1423 H1445 0.950 . S
C1424 H1420 0.949 . S
C1424 C1432 1.574 . S
C1424 C1440 1.368 . S
H1425 C1433 0.950 . S
H1426 C1431 0.950 . S
H1427 C1432 0.949 . S
H1428 C1434 0.950 . S
H1429 C1435 0.950 . S
H1430 C1436 0.949 . S
C1431 H1426 0.950 . S
C1431 C1433 1.327 . S
C1431 C1437 1.429 . S
C1432 C1424 1.574 . S
C1432 H1427 0.949 . S
C1432 C1438 1.368 . S
C1433 C1417 1.349 . S
C1433 H1425 0.950 . S
C1433 C1431 1.327 . S
C1434 C1422 1.349 . S
C1434 H1428 0.950 . S
C1434 C1435 1.327 . S
C1435 H1429 0.950 . S
C1435 C1434 1.327 . S
C1435 C1439 1.429 . S
C1436 C1419 1.574 . S
C1436 H1430 0.949 . S
C1436 C1440 1.368 . S
C1437 C1418 1.429 . S
C1437 C1431 1.429 . S
C1437 C1438 1.523 . S
C1438 C1419 1.368 . S
C1438 C1432 1.368 . S
C1438 C1437 1.523 . S
C1439 C1423 1.429 . S
C1439 C1435 1.429 . S
C1439 C1440 1.523 . S
C1440 C1424 1.368 . S
C1440 C1436 1.368 . S
C1440 C1439 1.523 . S
H1441 C1416 0.950 . S
H1442 C1418 0.950 . S
H1443 C1419 0.949 . S
H1444 C1421 0.950 . S
H1445 C1423 0.950 . S
C1446 C1447 1.349 . S
C1446 C1448 1.327 . S
C1446 H1471 0.950 . S
C1447 C1446 1.349 . S
C1447 C1463 1.349 . S
C1448 C1446 1.327 . S
C1448 C1467 1.429 . S
C1448 H1472 0.950 . S
C1449 C1466 1.574 . S
C1449 C1468 1.368 . S
C1449 H1473 0.949 . S
H1450 C1454 0.949 . S
C1451 C1452 1.349 . S
C1451 C1453 1.327 . S
C1451 H1474 0.950 . S
C1452 C1451 1.349 . S
C1452 C1464 1.349 . S
C1453 C1451 1.327 . S
C1453 C1469 1.429 . S
C1453 H1475 0.950 . S
C1454 H1450 0.949 . S
C1454 C1462 1.574 . S
C1454 C1470 1.368 . S
H1455 C1463 0.950 . S
H1456 C1461 0.950 . S
H1457 C1462 0.949 . S
H1458 C1464 0.950 . S
H1459 C1465 0.950 . S
H1460 C1466 0.949 . S
C1461 H1456 0.950 . S
C1461 C1463 1.327 . S
C1461 C1467 1.429 . S
C1462 C1454 1.574 . S
C1462 H1457 0.949 . S
C1462 C1468 1.368 . S
C1463 C1447 1.349 . S
C1463 H1455 0.950 . S
C1463 C1461 1.327 . S
C1464 C1452 1.349 . S
C1464 H1458 0.950 . S
C1464 C1465 1.327 . S
C1465 H1459 0.950 . S
C1465 C1464 1.327 . S
C1465 C1469 1.429 . S
C1466 C1449 1.574 . S
C1466 H1460 0.949 . S
C1466 C1470 1.368 . S
C1467 C1448 1.429 . S
C1467 C1461 1.429 . S
C1467 C1468 1.523 . S
C1468 C1449 1.368 . S
C1468 C1462 1.368 . S
C1468 C1467 1.523 . S
C1469 C1453 1.429 . S
C1469 C1465 1.429 . S
C1469 C1470 1.523 . S
C1470 C1454 1.368 . S
C1470 C1466 1.368 . S
C1470 C1469 1.523 . S
H1471 C1446 0.950 . S
H1472 C1448 0.950 . S
H1473 C1449 0.949 . S
H1474 C1451 0.950 . S
H1475 C1453 0.950 . S
C1476 C1477 1.349 . S
C1476 C1478 1.327 . S
C1476 H1501 0.950 . S
C1477 C1476 1.349 . S
C1477 C1493 1.349 . S
C1478 C1476 1.327 . S
C1478 C1497 1.429 . S
C1478 H1502 0.950 . S
C1479 C1496 1.574 . S
C1479 C1498 1.368 . S
C1479 H1503 0.949 . S
H1480 C1484 0.949 . S
C1481 C1482 1.349 . S
C1481 C1483 1.327 . S
C1481 H1504 0.950 . S
C1482 C1481 1.349 . S
C1482 C1494 1.349 . S
C1483 C1481 1.327 . S
C1483 C1499 1.429 . S
C1483 H1505 0.950 . S
C1484 H1480 0.949 . S
C1484 C1492 1.574 . S
C1484 C1500 1.368 . S
H1485 C1493 0.950 . S
H1486 C1491 0.950 . S
H1487 C1492 0.949 . S
H1488 C1494 0.950 . S
H1489 C1495 0.950 . S
H1490 C1496 0.949 . S
C1491 H1486 0.950 . S
C1491 C1493 1.327 . S
C1491 C1497 1.429 . S
C1492 C1484 1.574 . S
C1492 H1487 0.949 . S
C1492 C1498 1.368 . S
C1493 C1477 1.349 . S
C1493 H1485 0.950 . S
C1493 C1491 1.327 . S
C1494 C1482 1.349 . S
C1494 H1488 0.950 . S
C1494 C1495 1.327 . S
C1495 H1489 0.950 . S
C1495 C1494 1.327 . S
C1495 C1499 1.429 . S
C1496 C1479 1.574 . S
C1496 H1490 0.949 . S
C1496 C1500 1.368 . S
C1497 C1478 1.429 . S
C1497 C1491 1.429 . S
C1497 C1498 1.523 . S
C1498 C1479 1.368 . S
C1498 C1492 1.368 . S
C1498 C1497 1.523 . S
C1499 C1483 1.429 . S
C1499 C1495 1.429 . S
C1499 C1500 1.523 . S
C1500 C1484 1.368 . S
C1500 C1496 1.368 . S
C1500 C1499 1.523 . S
H1501 C1476 0.950 . S
H1502 C1478 0.950 . S
H1503 C1479 0.949 . S
H1504 C1481 0.950 . S
H1505 C1483 0.950 . S
C1506 C1507 1.349 . S
C1506 C1508 1.327 . S
C1506 H1531 0.950 . S
C1507 C1506 1.349 . S
C1507 C1523 1.349 . S
C1508 C1506 1.327 . S
C1508 C1527 1.429 . S
C1508 H1532 0.950 . S
C1509 C1526 1.574 . S
C1509 C1528 1.368 . S
C1509 H1533 0.949 . S
H1510 C1514 0.949 . S
C1511 C1512 1.349 . S
C1511 C1513 1.327 . S
C1511 H1534 0.950 . S
C1512 C1511 1.349 . S
C1512 C1524 1.349 . S
C1513 C1511 1.327 . S
C1513 C1529 1.429 . S
C1513 H1535 0.950 . S
C1514 H1510 0.949 . S
C1514 C1522 1.574 . S
C1514 C1530 1.368 . S
H1515 C1523 0.950 . S
H1516 C1521 0.950 . S
H1517 C1522 0.949 . S
H1518 C1524 0.950 . S
H1519 C1525 0.950 . S
H1520 C1526 0.949 . S
C1521 H1516 0.950 . S
C1521 C1523 1.327 . S
C1521 C1527 1.429 . S
C1522 C1514 1.574 . S
C1522 H1517 0.949 . S
C1522 C1528 1.368 . S
C1523 C1507 1.349 . S
C1523 H1515 0.950 . S
C1523 C1521 1.327 . S
C1524 C1512 1.349 . S
C1524 H1518 0.950 . S
C1524 C1525 1.327 . S
C1525 H1519 0.950 . S
C1525 C1524 1.327 . S
C1525 C1529 1.429 . S
C1526 C1509 1.574 . S
C1526 H1520 0.949 . S
C1526 C1530 1.368 . S
C1527 C1508 1.429 . S
C1527 C1521 1.429 . S
C1527 C1528 1.523 . S
C1528 C1509 1.368 . S
C1528 C1522 1.368 . S
C1528 C1527 1.523 . S
C1529 C1513 1.429 . S
C1529 C1525 1.429 . S
C1529 C1530 1.523 . S
C1530 C1514 1.368 . S
C1530 C1526 1.368 . S
C1530 C1529 1.523 . S
H1531 C1506 0.950 . S
H1532 C1508 0.950 . S
H1533 C1509 0.949 . S
H1534 C1511 0.950 . S
H1535 C1513 0.950 . S
C1536 C1537 1.349 . S
C1536 C1538 1.327 . S
C1536 H1561 0.950 . S
C1537 C1536 1.349 . S
C1537 C1553 1.349 . S
C1538 C1536 1.327 . S
C1538 C1557 1.429 . S
C1538 H1562 0.950 . S
C1539 C1556 1.574 . S
C1539 C1558 1.368 . S
C1539 H1563 0.949 . S
H1540 C1544 0.949 . S
C1541 C1542 1.349 . S
C1541 C1543 1.327 . S
C1541 H1564 0.950 . S
C1542 C1541 1.349 . S
C1542 C1554 1.349 . S
C1543 C1541 1.327 . S
C1543 C1559 1.429 . S
C1543 H1565 0.950 . S
C1544 H1540 0.949 . S
C1544 C1552 1.574 . S
C1544 C1560 1.368 . S
H1545 C1553 0.950 . S
H1546 C1551 0.950 . S
H1547 C1552 0.949 . S
H1548 C1554 0.950 . S
H1549 C1555 0.950 . S
H1550 C1556 0.949 . S
C1551 H1546 0.950 . S
C1551 C1553 1.327 . S
C1551 C1557 1.429 . S
C1552 C1544 1.574 . S
C1552 H1547 0.949 . S
C1552 C1558 1.368 . S
C1553 C1537 1.349 . S
C1553 H1545 0.950 . S
C1553 C1551 1.327 . S
C1554 C1542 1.349 . S
C1554 H1548 0.950 . S
C1554 C1555 1.327 . S
C1555 H1549 0.950 . S
C1555 C1554 1.327 . S
C1555 C1559 1.429 . S
C1556 C1539 1.574 . S
C1556 H1550 0.949 . S
C1556 C1560 1.368 . S
C1557 C1538 1.429 . S
C1557 C1551 1.429 . S
C1557 C1558 1.523 . S
C1558 C1539 1.368 . S
C1558 C1552 1.368 . S
C1558 C1557 1.523 . S
C1559 C1543 1.429 . S
C1559 C1555 1.429 . S
C1559 C1560 1.523 . S
C1560 C1544 1.368 . S
C1560 C1556 1.368 . S
C1560 C1559 1.523 . S
H1561 C1536 0.950 . S
H1562 C1538 0.950 . S
H1563 C1539 0.949 . S
H1564 C1541 0.950 . S
H1565 C1543 0.950 . S
C1566 C1567 1.349 . S
C1566 C1568 1.327 . S
C1566 H1591 0.950 . S
C1567 C1566 1.349 . S
C1567 C1583 1.349 . S
C1568 C1566 1.327 . S
C1568 C1587 1.429 . S
C1568 H1592 0.950 . S
C1569 C1586 1.574 . S
C1569 C1588 1.368 . S
C1569 H1593 0.949 . S
H1570 C1574 0.949 . S
C1571 C1572 1.349 . S
C1571 C1573 1.327 . S
C1571 H1594 0.950 . S
C1572 C1571 1.349 . S
C1572 C1584 1.349 . S
C1573 C1571 1.327 . S
C1573 C1589 1.429 . S
C1573 H1595 0.950 . S
C1574 H1570 0.949 . S
C1574 C1582 1.574 . S
C1574 C1590 1.368 . S
H1575 C1583 0.950 . S
H1576 C1581 0.950 . S
H1577 C1582 0.949 . S
H1578 C1584 0.950 . S
H1579 C1585 0.950 . S
H1580 C1586 0.949 . S
C1581 H1576 0.950 . S
C1581 C1583 1.327 . S
C1581 C1587 1.429 . S
C1582 C1574 1.574 . S
C1582 H1577 0.949 . S
C1582 C1588 1.368 . S
C1583 C1567 1.349 . S
C1583 H1575 0.950 . S
C1583 C1581 1.327 . S
C1584 C1572 1.349 . S
C1584 H1578 0.950 . S
C1584 C1585 1.327 . S
C1585 H1579 0.950 . S
C1585 C1584 1.327 . S
C1585 C1589 1.429 . S
C1586 C1569 1.574 . S
C1586 H1580 0.949 . S
C1586 C1590 1.368 . S
C1587 C1568 1.429 . S
C1587 C1581 1.429 . S
C1587 C1588 1.523 . S
C1588 C1569 1.368 . S
C1588 C1582 1.368 . S
C1588 C1587 1.523 . S
C1589 C1573 1.429 . S
C1589 C1585 1.429 . S
C1589 C1590 1.523 . S
C1590 C1574 1.368 . S
C1590 C1586 1.368 . S
C1590 C1589 1.523 . S
H1591 C1566 0.950 . S
H1592 C1568 0.950 . S
H1593 C1569 0.949 . S
H1594 C1571 0.950 . S
H1595 C1573 0.950 . S
C1596 C1597 1.349 . S
C1596 C1598 1.327 . S
C1596 H1621 0.950 . S
C1597 C1596 1.349 . S
C1597 C1613 1.349 . S
C1598 C1596 1.327 . S
C1598 C1617 1.429 . S
C1598 H1622 0.950 . S
C1599 C1616 1.574 . S
C1599 C1618 1.368 . S
C1599 H1623 0.949 . S
H1600 C1604 0.949 . S
C1601 C1602 1.349 . S
C1601 C1603 1.327 . S
C1601 H1624 0.950 . S
C1602 C1601 1.349 . S
C1602 C1614 1.349 . S
C1603 C1601 1.327 . S
C1603 C1619 1.429 . S
C1603 H1625 0.950 . S
C1604 H1600 0.949 . S
C1604 C1612 1.574 . S
C1604 C1620 1.368 . S
H1605 C1613 0.950 . S
H1606 C1611 0.950 . S
H1607 C1612 0.949 . S
H1608 C1614 0.950 . S
H1609 C1615 0.950 . S
H1610 C1616 0.949 . S
C1611 H1606 0.950 . S
C1611 C1613 1.327 . S
C1611 C1617 1.429 . S
C1612 C1604 1.574 . S
C1612 H1607 0.949 . S
C1612 C1618 1.368 . S
C1613 C1597 1.349 . S
C1613 H1605 0.950 . S
C1613 C1611 1.327 . S
C1614 C1602 1.349 . S
C1614 H1608 0.950 . S
C1614 C1615 1.327 . S
C1615 H1609 0.950 . S
C1615 C1614 1.327 . S
C1615 C1619 1.429 . S
C1616 C1599 1.574 . S
C1616 H1610 0.949 . S
C1616 C1620 1.368 . S
C1617 C1598 1.429 . S
C1617 C1611 1.429 . S
C1617 C1618 1.523 . S
C1618 C1599 1.368 . S
C1618 C1612 1.368 . S
C1618 C1617 1.523 . S
C1619 C1603 1.429 . S
C1619 C1615 1.429 . S
C1619 C1620 1.523 . S
C1620 C1604 1.368 . S
C1620 C1616 1.368 . S
C1620 C1619 1.523 . S
H1621 C1596 0.950 . S
H1622 C1598 0.950 . S
H1623 C1599 0.949 . S
H1624 C1601 0.950 . S
H1625 C1603 0.950 . S
C1626 C1627 1.349 . S
C1626 C1628 1.327 . S
C1626 H1651 0.950 . S
C1627 C1626 1.349 . S
C1627 C1643 1.349 . S
C1628 C1626 1.327 . S
C1628 C1647 1.429 . S
C1628 H1652 0.950 . S
C1629 C1646 1.574 . S
C1629 C1648 1.368 . S
C1629 H1653 0.949 . S
H1630 C1634 0.949 . S
C1631 C1632 1.349 . S
C1631 C1633 1.327 . S
C1631 H1654 0.950 . S
C1632 C1631 1.349 . S
C1632 C1644 1.349 . S
C1633 C1631 1.327 . S
C1633 C1649 1.429 . S
C1633 H1655 0.950 . S
C1634 H1630 0.949 . S
C1634 C1642 1.574 . S
C1634 C1650 1.368 . S
H1635 C1643 0.950 . S
H1636 C1641 0.950 . S
H1637 C1642 0.949 . S
H1638 C1644 0.950 . S
H1639 C1645 0.950 . S
H1640 C1646 0.949 . S
C1641 H1636 0.950 . S
C1641 C1643 1.327 . S
C1641 C1647 1.429 . S
C1642 C1634 1.574 . S
C1642 H1637 0.949 . S
C1642 C1648 1.368 . S
C1643 C1627 1.349 . S
C1643 H1635 0.950 . S
C1643 C1641 1.327 . S
C1644 C1632 1.349 . S
C1644 H1638 0.950 . S
C1644 C1645 1.327 . S
C1645 H1639 0.950 . S
C1645 C1644 1.327 . S
C1645 C1649 1.429 . S
C1646 C1629 1.574 . S
C1646 H1640 0.949 . S
C1646 C1650 1.368 . S
C1647 C1628 1.429 . S
C1647 C1641 1.429 . S
C1647 C1648 1.523 . S
C1648 C1629 1.368 . S
C1648 C1642 1.368 . S
C1648 C1647 1.523 . S
C1649 C1633 1.429 . S
C1649 C1645 1.429 . S
C1649 C1650 1.523 . S
C1650 C1634 1.368 . S
C1650 C1646 1.368 . S
C1650 C1649 1.523 . S
H1651 C1626 0.950 . S
H1652 C1628 0.950 . S
H1653 C1629 0.949 . S
H1654 C1631 0.950 . S
H1655 C1633 0.950 . S
C1656 C1657 1.349 . S
C1656 C1658 1.327 . S
C1656 H1681 0.950 . S
C1657 C1656 1.349 . S
C1657 C1673 1.349 . S
C1658 C1656 1.327 . S
C1658 C1677 1.429 . S
C1658 H1682 0.950 . S
C1659 C1676 1.574 . S
C1659 C1678 1.368 . S
C1659 H1683 0.949 . S
H1660 C1664 0.949 . S
C1661 C1662 1.349 . S
C1661 C1663 1.327 . S
C1661 H1684 0.950 . S
C1662 C1661 1.349 . S
C1662 C1674 1.349 . S
C1663 C1661 1.327 . S
C1663 C1679 1.429 . S
C1663 H1685 0.950 . S
C1664 H1660 0.949 . S
C1664 C1672 1.574 . S
C1664 C1680 1.368 . S
H1665 C1673 0.950 . S
H1666 C1671 0.950 . S
H1667 C1672 0.949 . S
H1668 C1674 0.950 . S
H1669 C1675 0.950 . S
H1670 C1676 0.949 . S
C1671 H1666 0.950 . S
C1671 C1673 1.327 . S
C1671 C1677 1.429 . S
C1672 C1664 1.574 . S
C1672 H1667 0.949 . S
C1672 C1678 1.368 . S
C1673 C1657 1.349 . S
C1673 H1665 0.950 . S
C1673 C1671 1.327 . S
C1674 C1662 1.349 . S
C1674 H1668 0.950 . S
C1674 C1675 1.327 . S
C1675 H1669 0.950 . S
C1675 C1674 1.327 . S
C1675 C1679 1.429 . S
C1676 C1659 1.574 . S
C1676 H1670 0.949 . S
C1676 C1680 1.368 . S
C1677 C1658 1.429 . S
C1677 C1671 1.429 . S
C1677 C1678 1.523 . S
C1678 C1659 1.368 . S
C1678 C1672 1.368 . S
C1678 C1677 1.523 . S
C1679 C1663 1.429 . S
C1679 C1675 1.429 . S
C1679 C1680 1.523 . S
C1680 C1664 1.368 . S
C1680 C1676 1.368 . S
C1680 C1679 1.523 . S
H1681 C1656 0.950 . S
H1682 C1658 0.950 . S
H1683 C1659 0.949 . S
H1684 C1661 0.950 . S
H1685 C1663 0.950 . S
C1686 C1687 1.349 . S
C1686 C1688 1.327 . S
C1686 H1711 0.950 . S
C1687 C1686 1.349 . S
C1687 C1703 1.349 . S
C1688 C1686 1.327 . S
C1688 C1707 1.429 . S
C1688 H1712 0.950 . S
C1689 C1706 1.574 . S
C1689 C1708 1.368 . S
C1689 H1713 0.949 . S
H1690 C1694 0.949 . S
C1691 C1692 1.349 . S
C1691 C1693 1.327 . S
C1691 H1714 0.950 . S
C1692 C1691 1.349 . S
C1692 C1704 1.349 . S
C1693 C1691 1.327 . S
C1693 C1709 1.429 . S
C1693 H1715 0.950 . S
C1694 H1690 0.949 . S
C1694 C1702 1.574 . S
C1694 C1710 1.368 . S
H1695 C1703 0.950 . S
H1696 C1701 0.950 . S
H1697 C1702 0.949 . S
H1698 C1704 0.950 . S
H1699 C1705 0.950 . S
H1700 C1706 0.949 . S
C1701 H1696 0.950 . S
C1701 C1703 1.327 . S
C1701 C1707 1.429 . S
C1702 C1694 1.574 . S
C1702 H1697 0.949 . S
C1702 C1708 1.368 . S
C1703 C1687 1.349 . S
C1703 H1695 0.950 . S
C1703 C1701 1.327 . S
C1704 C1692 1.349 . S
C1704 H1698 0.950 . S
C1704 C1705 1.327 . S
C1705 H1699 0.950 . S
C1705 C1704 1.327 . S
C1705 C1709 1.429 . S
C1706 C1689 1.574 . S
C1706 H1700 0.949 . S
C1706 C1710 1.368 . S
C1707 C1688 1.429 . S
C1707 C1701 1.429 . S
C1707 C1708 1.523 . S
C1708 C1689 1.368 . S
C1708 C1702 1.368 . S
C1708 C1707 1.523 . S
C1709 C1693 1.429 . S
C1709 C1705 1.429 . S
C1709 C1710 1.523 . S
C1710 C1694 1.368 . S
C1710 C1706 1.368 . S
C1710 C1709 1.523 . S
H1711 C1686 0.950 . S
H1712 C1688 0.950 . S
H1713 C1689 0.949 . S
H1714 C1691 0.950 . S
H1715 C1693 0.950 . S
C1716 C1717 1.349 . S
C1716 C1718 1.327 . S
C1716 H1741 0.950 . S
C1717 C1716 1.349 . S
C1717 C1733 1.349 . S
C1718 C1716 1.327 . S
C1718 C1737 1.429 . S
C1718 H1742 0.950 . S
C1719 C1736 1.574 . S
C1719 C1738 1.368 . S
C1719 H1743 0.949 . S
H1720 C1724 0.949 . S
C1721 C1722 1.349 . S
C1721 C1723 1.327 . S
C1721 H1744 0.950 . S
C1722 C1721 1.349 . S
C1722 C1734 1.349 . S
C1723 C1721 1.327 . S
C1723 C1739 1.429 . S
C1723 H1745 0.950 . S
C1724 H1720 0.949 . S
C1724 C1732 1.574 . S
C1724 C1740 1.368 . S
H1725 C1733 0.950 . S
H1726 C1731 0.950 . S
H1727 C1732 0.949 . S
H1728 C1734 0.950 . S
H1729 C1735 0.950 . S
H1730 C1736 0.949 . S
C1731 H1726 0.950 . S
C1731 C1733 1.327 . S
C1731 C1737 1.429 . S
C1732 C1724 1.574 . S
C1732 H1727 0.949 . S
C1732 C1738 1.368 . S
C1733 C1717 1.349 . S
C1733 H1725 0.950 . S
C1733 C1731 1.327 . S
C1734 C1722 1.349 . S
C1734 H1728 0.950 . S
C1734 C1735 1.327 . S
C1735 H1729 0.950 . S
C1735 C1734 1.327 . S
C1735 C1739 1.429 . S
C1736 C1719 1.574 . S
C1736 H1730 0.949 . S
C1736 C1740 1.368 . S
C1737 C1718 1.429 . S
C1737 C1731 1.429 . S
C1737 C1738 1.523 . S
C1738 C1719 1.368 . S
C1738 C1732 1.368 . S
C1738 C1737 1.523 . S
C1739 C1723 1.429 . S
C1739 C1735 1.429 . S
C1739 C1740 1.523 . S
C1740 C1724 1.368 . S
C1740 C1736 1.368 . S
C1740 C1739 1.523 . S
H1741 C1716 0.950 . S
H1742 C1718 0.950 . S
H1743 C1719 0.949 . S
H1744 C1721 0.950 . S
H1745 C1723 0.950 . S
C1746 C1747 1.349 . S
C1746 C1748 1.327 . S
C1746 H1771 0.950 . S
C1747 C1746 1.349 . S
C1747 C1763 1.349 . S
C1748 C1746 1.327 . S
C1748 C1767 1.429 . S
C1748 H1772 0.950 . S
C1749 C1766 1.574 . S
C1749 C1768 1.368 . S
C1749 H1773 0.949 . S
H1750 C1754 0.949 . S
C1751 C1752 1.349 . S
C1751 C1753 1.327 . S
C1751 H1774 0.950 . S
C1752 C1751 1.349 . S
C1752 C1764 1.349 . S
C1753 C1751 1.327 . S
C1753 C1769 1.429 . S
C1753 H1775 0.950 . S
C1754 H1750 0.949 . S
C1754 C1762 1.574 . S
C1754 C1770 1.368 . S
H1755 C1763 0.950 . S
H1756 C1761 0.950 . S
H1757 C1762 0.949 . S
H1758 C1764 0.950 . S
H1759 C1765 0.950 . S
H1760 C1766 0.949 . S
C1761 H1756 0.950 . S
C1761 C1763 1.327 . S
C1761 C1767 1.429 . S
C1762 C1754 1.574 . S
C1762 H1757 0.949 . S
C1762 C1768 1.368 . S
C1763 C1747 1.349 . S
C1763 H1755 0.950 . S
C1763 C1761 1.327 . S
C1764 C1752 1.349 . S
C1764 H1758 0.950 . S
C1764 C1765 1.327 . S
C1765 H1759 0.950 . S
C1765 C1764 1.327 . S
C1765 C1769 1.429 . S
C1766 C1749 1.574 . S
C1766 H1760 0.949 . S
C1766 C1770 1.368 . S
C1767 C1748 1.429 . S
C1767 C1761 1.429 . S
C1767 C1768 1.523 . S
C1768 C1749 1.368 . S
C1768 C1762 1.368 . S
C1768 C1767 1.523 . S
C1769 C1753 1.429 . S
C1769 C1765 1.429 . S
C1769 C1770 1.523 . S
C1770 C1754 1.368 . S
C1770 C1766 1.368 . S
C1770 C1769 1.523 . S
H1771 C1746 0.950 . S
H1772 C1748 0.950 . S
H1773 C1749 0.949 . S
H1774 C1751 0.950 . S
H1775 C1753 0.950 . S
C1776 C1777 1.349 . S
C1776 C1778 1.327 . S
C1776 H1801 0.950 . S
C1777 C1776 1.349 . S
C1777 C1793 1.349 . S
C1778 C1776 1.327 . S
C1778 C1797 1.429 . S
C1778 H1802 0.950 . S
C1779 C1796 1.574 . S
C1779 C1798 1.368 . S
C1779 H1803 0.949 . S
H1780 C1784 0.949 . S
C1781 C1782 1.349 . S
C1781 C1783 1.327 . S
C1781 H1804 0.950 . S
C1782 C1781 1.349 . S
C1782 C1794 1.349 . S
C1783 C1781 1.327 . S
C1783 C1799 1.429 . S
C1783 H1805 0.950 . S
C1784 H1780 0.949 . S
C1784 C1792 1.574 . S
C1784 C1800 1.368 . S
H1785 C1793 0.950 . S
H1786 C1791 0.950 . S
H1787 C1792 0.949 . S
H1788 C1794 0.950 . S
H1789 C1795 0.950 . S
H1790 C1796 0.949 . S
C1791 H1786 0.950 . S
C1791 C1793 1.327 . S
C1791 C1797 1.429 . S
C1792 C1784 1.574 . S
C1792 H1787 0.949 . S
C1792 C1798 1.368 . S
C1793 C1777 1.349 . S
C1793 H1785 0.950 . S
C1793 C1791 1.327 . S
C1794 C1782 1.349 . S
C1794 H1788 0.950 . S
C1794 C1795 1.327 . S
C1795 H1789 0.950 . S
C1795 C1794 1.327 . S
C1795 C1799 1.429 . S
C1796 C1779 1.574 . S
C1796 H1790 0.949 . S
C1796 C1800 1.368 . S
C1797 C1778 1.429 . S
C1797 C1791 1.429 . S
C1797 C1798 1.523 . S
C1798 C1779 1.368 . S
C1798 C1792 1.368 . S
C1798 C1797 1.523 . S
C1799 C1783 1.429 . S
C1799 C1795 1.429 . S
C1799 C1800 1.523 . S
C1800 C1784 1.368 . S
C1800 C1796 1.368 . S
C1800 C1799 1.523 . S
H1801 C1776 0.950 . S
H1802 C1778 0.950 . S
H1803 C1779 0.949 . S
H1804 C1781 0.950 . S
H1805 C1783 0.950 . S
C1806 C1807 1.349 . S
C1806 C1808 1.327 . S
C1806 H1831 0.950 . S
C1807 C1806 1.349 . S
C1807 C1823 1.349 . S
C1808 C1806 1.327 . S
C1808 C1827 1.429 . S
C1808 H1832 0.950 . S
C1809 C1826 1.574 . S
C1809 C1828 1.368 . S
C1809 H1833 0.949 . S
H1810 C1814 0.949 . S
C1811 C1812 1.349 . S
C1811 C1813 1.327 . S
C1811 H1834 0.950 . S
C1812 C1811 1.349 . S
C1812 C1824 1.349 . S
C1813 C1811 1.327 . S
C1813 C1829 1.429 . S
C1813 H1835 0.950 . S
C1814 H1810 0.949 . S
C1814 C1822 1.574 . S
C1814 C1830 1.368 . S
H1815 C1823 0.950 . S
H1816 C1821 0.950 . S
H1817 C1822 0.949 . S
H1818 C1824 0.950 . S
H1819 C1825 0.950 . S
H1820 C1826 0.949 . S
C1821 H1816 0.950 . S
C1821 C1823 1.327 . S
C1821 C1827 1.429 . S
C1822 C1814 1.574 . S
C1822 H1817 0.949 . S
C1822 C1828 1.368 . S
C1823 C1807 1.349 . S
C1823 H1815 0.950 . S
C1823 C1821 1.327 . S
C1824 C1812 1.349 . S
C1824 H1818 0.950 . S
C1824 C1825 1.327 . S
C1825 H1819 0.950 . S
C1825 C1824 1.327 . S
C1825 C1829 1.429 . S
C1826 C1809 1.574 . S
C1826 H1820 0.949 . S
C1826 C1830 1.368 . S
C1827 C1808 1.429 . S
C1827 C1821 1.429 . S
C1827 C1828 1.523 . S
C1828 C1809 1.368 . S
C1828 C1822 1.368 . S
C1828 C1827 1.523 . S
C1829 C1813 1.429 . S
C1829 C1825 1.429 . S
C1829 C1830 1.523 . S
C1830 C1814 1.368 . S
C1830 C1826 1.368 . S
C1830 C1829 1.523 . S
H1831 C1806 0.950 . S
H1832 C1808 0.950 . S
H1833 C1809 0.949 . S
H1834 C1811 0.950 . S
H1835 C1813 0.950 . S
C1836 C1837 1.349 . S
C1836 C1838 1.327 . S
C1836 H1861 0.950 . S
C1837 C1836 1.349 . S
C1837 C1853 1.349 . S
C1838 C1836 1.327 . S
C1838 C1857 1.429 . S
C1838 H1862 0.950 . S
C1839 C1856 1.574 . S
C1839 C1858 1.368 . S
C1839 H1863 0.949 . S
H1840 C1844 0.949 . S
C1841 C1842 1.349 . S
C1841 C1843 1.327 . S
C1841 H1864 0.950 . S
C1842 C1841 1.349 . S
C1842 C1854 1.349 . S
C1843 C1841 1.327 . S
C1843 C1859 1.429 . S
C1843 H1865 0.950 . S
C1844 H1840 0.949 . S
C1844 C1852 1.574 . S
C1844 C1860 1.368 . S
H1845 C1853 0.950 . S
H1846 C1851 0.950 . S
H1847 C1852 0.949 . S
H1848 C1854 0.950 . S
H1849 C1855 0.950 . S
H1850 C1856 0.949 . S
C1851 H1846 0.950 . S
C1851 C1853 1.327 . S
C1851 C1857 1.429 . S
C1852 C1844 1.574 . S
C1852 H1847 0.949 . S
C1852 C1858 1.368 . S
C1853 C1837 1.349 . S
C1853 H1845 0.950 . S
C1853 C1851 1.327 . S
C1854 C1842 1.349 . S
C1854 H1848 0.950 . S
C1854 C1855 1.327 . S
C1855 H1849 0.950 . S
C1855 C1854 1.327 . S
C1855 C1859 1.429 . S
C1856 C1839 1.574 . S
C1856 H1850 0.949 . S
C1856 C1860 1.368 . S
C1857 C1838 1.429 . S
C1857 C1851 1.429 . S
C1857 C1858 1.523 . S
C1858 C1839 1.368 . S
C1858 C1852 1.368 . S
C1858 C1857 1.523 . S
C1859 C1843 1.429 . S
C1859 C1855 1.429 . S
C1859 C1860 1.523 . S
C1860 C1844 1.368 . S
C1860 C1856 1.368 . S
C1860 C1859 1.523 . S
H1861 C1836 0.950 . S
H1862 C1838 0.950 . S
H1863 C1839 0.949 . S
H1864 C1841 0.950 . S
H1865 C1843 0.950 . S
C1866 C1867 1.349 . S
C1866 C1868 1.327 . S
C1866 H1891 0.950 . S
C1867 C1866 1.349 . S
C1867 C1883 1.349 . S
C1868 C1866 1.327 . S
C1868 C1887 1.429 . S
C1868 H1892 0.950 . S
C1869 C1886 1.574 . S
C1869 C1888 1.368 . S
C1869 H1893 0.949 . S
H1870 C1874 0.949 . S
C1871 C1872 1.349 . S
C1871 C1873 1.327 . S
C1871 H1894 0.950 . S
C1872 C1871 1.349 . S
C1872 C1884 1.349 . S
C1873 C1871 1.327 . S
C1873 C1889 1.429 . S
C1873 H1895 0.950 . S
C1874 H1870 0.949 . S
C1874 C1882 1.574 . S
C1874 C1890 1.368 . S
H1875 C1883 0.950 . S
H1876 C1881 0.950 . S
H1877 C1882 0.949 . S
H1878 C1884 0.950 . S
H1879 C1885 0.950 . S
H1880 C1886 0.949 . S
C1881 H1876 0.950 . S
C1881 C1883 1.327 . S
C1881 C1887 1.429 . S
C1882 C1874 1.574 . S
C1882 H1877 0.949 . S
C1882 C1888 1.368 . S
C1883 C1867 1.349 . S
C1883 H1875 0.950 . S
C1883 C1881 1.327 . S
C1884 C1872 1.349 . S
C1884 H1878 0.950 . S
C1884 C1885 1.327 . S
C1885 H1879 0.950 . S
C1885 C1884 1.327 . S
C1885 C1889 1.429 . S
C1886 C1869 1.574 . S
C1886 H1880 0.949 . S
C1886 C1890 1.368 . S
C1887 C1868 1.429 . S
C1887 C1881 1.429 . S
C1887 C1888 1.523 . S
C1888 C1869 1.368 . S
C1888 C1882 1.368 . S
C1888 C1887 1.523 . S
C1889 C1873 1.429 . S
C1889 C1885 1.429 . S
C1889 C1890 1.523 . S
C1890 C1874 1.368 . S
C1890 C1886 1.368 . S
C1890 C1889 1.523 . S
H1891 C1866 0.950 . S
H1892 C1868 0.950 . S
H1893 C1869 0.949 . S
H1894 C1871 0.950 . S
H1895 C1873 0.950 . S
C1896 C1897 1.349 . S
C1896 C1898 1.327 . S
C1896 H1921 0.950 . S
C1897 C1896 1.349 . S
C1897 C1913 1.349 . S
C1898 C1896 1.327 . S
C1898 C1917 1.429 . S
C1898 H1922 0.950 . S
C1899 C1916 1.574 1_565 S
C1899 C1918 1.368 . S
C1899 H1923 0.949 . S
H1900 C1904 0.949 . S
C1901 C1902 1.349 . S
C1901 C1903 1.327 . S
C1901 H1924 0.950 . S
C1902 C1901 1.349 . S
C1902 C1914 1.349 . S
C1903 C1901 1.327 . S
C1903 C1919 1.429 . S
C1903 H1925 0.950 . S
C1904 H1900 0.949 . S
C1904 C1912 1.574 1_545 S
C1904 C1920 1.368 . S
H1905 C1913 0.950 . S
H1906 C1911 0.950 . S
H1907 C1912 0.949 . S
H1908 C1914 0.950 . S
H1909 C1915 0.950 . S
H1910 C1916 0.949 . S
C1911 H1906 0.950 . S
C1911 C1913 1.327 . S
C1911 C1917 1.429 . S
C1912 C1904 1.574 1_565 S
C1912 H1907 0.949 . S
C1912 C1918 1.368 . S
C1913 C1897 1.349 . S
C1913 H1905 0.950 . S
C1913 C1911 1.327 . S
C1914 C1902 1.349 . S
C1914 H1908 0.950 . S
C1914 C1915 1.327 . S
C1915 H1909 0.950 . S
C1915 C1914 1.327 . S
C1915 C1919 1.429 . S
C1916 C1899 1.574 1_545 S
C1916 H1910 0.949 . S
C1916 C1920 1.368 . S
C1917 C1898 1.429 . S
C1917 C1911 1.429 . S
C1917 C1918 1.523 . S
C1918 C1899 1.368 . S
C1918 C1912 1.368 . S
C1918 C1917 1.523 . S
C1919 C1903 1.429 . S
C1919 C1915 1.429 . S
C1919 C1920 1.523 . S
C1920 C1904 1.368 . S
C1920 C1916 1.368 . S
C1920 C1919 1.523 . S
H1921 C1896 0.950 . S
H1922 C1898 0.950 . S
H1923 C1899 0.949 . S
H1924 C1901 0.950 . S
H1925 C1903 0.950 . S
C1926 C1927 1.349 . S
C1926 C1928 1.327 . S
C1926 H1951 0.950 . S
C1927 C1926 1.349 . S
C1927 C1943 1.349 . S
C1928 C1926 1.327 . S
C1928 C1947 1.429 . S
C1928 H1952 0.950 . S
C1929 C1946 1.574 1_455 S
C1929 C1948 1.368 . S
C1929 H1953 0.949 . S
H1930 C1934 0.949 . S
C1931 C1932 1.349 . S
C1931 C1933 1.327 . S
C1931 H1954 0.950 . S
C1932 C1931 1.349 . S
C1932 C1944 1.349 . S
C1933 C1931 1.327 . S
C1933 C1949 1.429 . S
C1933 H1955 0.950 . S
C1934 H1930 0.949 . S
C1934 C1942 1.574 1_655 S
C1934 C1950 1.368 . S
H1935 C1943 0.950 . S
H1936 C1941 0.950 . S
H1937 C1942 0.949 . S
H1938 C1944 0.950 . S
H1939 C1945 0.950 . S
H1940 C1946 0.949 . S
C1941 H1936 0.950 . S
C1941 C1943 1.327 . S
C1941 C1947 1.429 . S
C1942 C1934 1.574 1_455 S
C1942 H1937 0.949 . S
C1942 C1948 1.368 . S
C1943 C1927 1.349 . S
C1943 H1935 0.950 . S
C1943 C1941 1.327 . S
C1944 C1932 1.349 . S
C1944 H1938 0.950 . S
C1944 C1945 1.327 . S
C1945 H1939 0.950 . S
C1945 C1944 1.327 . S
C1945 C1949 1.429 . S
C1946 C1929 1.574 1_655 S
C1946 H1940 0.949 . S
C1946 C1950 1.368 . S
C1947 C1928 1.429 . S
C1947 C1941 1.429 . S
C1947 C1948 1.523 . S
C1948 C1929 1.368 . S
C1948 C1942 1.368 . S
C1948 C1947 1.523 . S
C1949 C1933 1.429 . S
C1949 C1945 1.429 . S
C1949 C1950 1.523 . S
C1950 C1934 1.368 . S
C1950 C1946 1.368 . S
C1950 C1949 1.523 . S
H1951 C1926 0.950 . S
H1952 C1928 0.950 . S
H1953 C1929 0.949 . S
H1954 C1931 0.950 . S
H1955 C1933 0.950 . S
C1956 C1957 1.349 . S
C1956 C1958 1.327 . S
C1956 H1981 0.950 . S
C1957 C1956 1.349 . S
C1957 C1973 1.349 . S
C1958 C1956 1.327 . S
C1958 C1977 1.429 . S
C1958 H1982 0.950 . S
C1959 C1976 1.574 . S
C1959 C1978 1.368 . S
C1959 H1983 0.949 . S
H1960 C1964 0.949 . S
C1961 C1962 1.349 . S
C1961 C1963 1.327 . S
C1961 H1984 0.950 . S
C1962 C1961 1.349 . S
C1962 C1974 1.349 . S
C1963 C1961 1.327 . S
C1963 C1979 1.429 . S
C1963 H1985 0.950 . S
C1964 H1960 0.949 . S
C1964 C1972 1.574 . S
C1964 C1980 1.368 . S
H1965 C1973 0.950 . S
H1966 C1971 0.950 . S
H1967 C1972 0.949 . S
H1968 C1974 0.950 . S
H1969 C1975 0.950 . S
H1970 C1976 0.949 . S
C1971 H1966 0.950 . S
C1971 C1973 1.327 . S
C1971 C1977 1.429 . S
C1972 C1964 1.574 . S
C1972 H1967 0.949 . S
C1972 C1978 1.368 . S
C1973 C1957 1.349 . S
C1973 H1965 0.950 . S
C1973 C1971 1.327 . S
C1974 C1962 1.349 . S
C1974 H1968 0.950 . S
C1974 C1975 1.327 . S
C1975 H1969 0.950 . S
C1975 C1974 1.327 . S
C1975 C1979 1.429 . S
C1976 C1959 1.574 . S
C1976 H1970 0.949 . S
C1976 C1980 1.368 . S
C1977 C1958 1.429 . S
C1977 C1971 1.429 . S
C1977 C1978 1.523 . S
C1978 C1959 1.368 . S
C1978 C1972 1.368 . S
C1978 C1977 1.523 . S
C1979 C1963 1.429 . S
C1979 C1975 1.429 . S
C1979 C1980 1.523 . S
C1980 C1964 1.368 . S
C1980 C1976 1.368 . S
C1980 C1979 1.523 . S
H1981 C1956 0.950 . S
H1982 C1958 0.950 . S
H1983 C1959 0.949 . S
H1984 C1961 0.950 . S
H1985 C1963 0.950 . S
C1986 C1987 1.349 . S
C1986 C1988 1.327 . S
C1986 H2011 0.950 . S
C1987 C1986 1.349 . S
C1987 C2003 1.349 . S
C1988 C1986 1.327 . S
C1988 C2007 1.429 . S
C1988 H2012 0.950 . S
C1989 C2006 1.574 . S
C1989 C2008 1.368 . S
C1989 H2013 0.949 . S
H1990 C1994 0.949 . S
C1991 C1992 1.349 . S
C1991 C1993 1.327 . S
C1991 H2014 0.950 . S
C1992 C1991 1.349 . S
C1992 C2004 1.349 . S
C1993 C1991 1.327 . S
C1993 C2009 1.429 . S
C1993 H2015 0.950 . S
C1994 H1990 0.949 . S
C1994 C2002 1.574 . S
C1994 C2010 1.368 . S
H1995 C2003 0.950 . S
H1996 C2001 0.950 . S
H1997 C2002 0.949 . S
H1998 C2004 0.950 . S
H1999 C2005 0.950 . S
H2000 C2006 0.949 . S
C2001 H1996 0.950 . S
C2001 C2003 1.327 . S
C2001 C2007 1.429 . S
C2002 C1994 1.574 . S
C2002 H1997 0.949 . S
C2002 C2008 1.368 . S
C2003 C1987 1.349 . S
C2003 H1995 0.950 . S
C2003 C2001 1.327 . S
C2004 C1992 1.349 . S
C2004 H1998 0.950 . S
C2004 C2005 1.327 . S
C2005 H1999 0.950 . S
C2005 C2004 1.327 . S
C2005 C2009 1.429 . S
C2006 C1989 1.574 . S
C2006 H2000 0.949 . S
C2006 C2010 1.368 . S
C2007 C1988 1.429 . S
C2007 C2001 1.429 . S
C2007 C2008 1.523 . S
C2008 C1989 1.368 . S
C2008 C2002 1.368 . S
C2008 C2007 1.523 . S
C2009 C1993 1.429 . S
C2009 C2005 1.429 . S
C2009 C2010 1.523 . S
C2010 C1994 1.368 . S
C2010 C2006 1.368 . S
C2010 C2009 1.523 . S
H2011 C1986 0.950 . S
H2012 C1988 0.950 . S
H2013 C1989 0.949 . S
H2014 C1991 0.950 . S
H2015 C1993 0.950 . S
C2016 C2017 1.349 . S
C2016 C2018 1.327 . S
C2016 H2041 0.950 . S
C2017 C2016 1.349 . S
C2017 C2033 1.349 . S
C2018 C2016 1.327 . S
C2018 C2037 1.429 . S
C2018 H2042 0.950 . S
C2019 C2036 1.574 . S
C2019 C2038 1.368 . S
C2019 H2043 0.949 . S
H2020 C2024 0.949 . S
C2021 C2022 1.349 . S
C2021 C2023 1.327 . S
C2021 H2044 0.950 . S
C2022 C2021 1.349 . S
C2022 C2034 1.349 . S
C2023 C2021 1.327 . S
C2023 C2039 1.429 . S
C2023 H2045 0.950 . S
C2024 H2020 0.949 . S
C2024 C2032 1.574 . S
C2024 C2040 1.368 . S
H2025 C2033 0.950 . S
H2026 C2031 0.950 . S
H2027 C2032 0.949 . S
H2028 C2034 0.950 . S
H2029 C2035 0.950 . S
H2030 C2036 0.949 . S
C2031 H2026 0.950 . S
C2031 C2033 1.327 . S
C2031 C2037 1.429 . S
C2032 C2024 1.574 . S
C2032 H2027 0.949 . S
C2032 C2038 1.368 . S
C2033 C2017 1.349 . S
C2033 H2025 0.950 . S
C2033 C2031 1.327 . S
C2034 C2022 1.349 . S
C2034 H2028 0.950 . S
C2034 C2035 1.327 . S
C2035 H2029 0.950 . S
C2035 C2034 1.327 . S
C2035 C2039 1.429 . S
C2036 C2019 1.574 . S
C2036 H2030 0.949 . S
C2036 C2040 1.368 . S
C2037 C2018 1.429 . S
C2037 C2031 1.429 . S
C2037 C2038 1.523 . S
C2038 C2019 1.368 . S
C2038 C2032 1.368 . S
C2038 C2037 1.523 . S
C2039 C2023 1.429 . S
C2039 C2035 1.429 . S
C2039 C2040 1.523 . S
C2040 C2024 1.368 . S
C2040 C2036 1.368 . S
C2040 C2039 1.523 . S
H2041 C2016 0.950 . S
H2042 C2018 0.950 . S
H2043 C2019 0.949 . S
H2044 C2021 0.950 . S
H2045 C2023 0.950 . S
C2046 C2047 1.349 . S
C2046 C2048 1.327 . S
C2046 H2071 0.950 . S
C2047 C2046 1.349 . S
C2047 C2063 1.349 . S
C2048 C2046 1.327 . S
C2048 C2067 1.429 . S
C2048 H2072 0.950 . S
C2049 C2066 1.574 . S
C2049 C2068 1.368 . S
C2049 H2073 0.949 . S
H2050 C2054 0.949 . S
C2051 C2052 1.349 . S
C2051 C2053 1.327 . S
C2051 H2074 0.950 . S
C2052 C2051 1.349 . S
C2052 C2064 1.349 . S
C2053 C2051 1.327 . S
C2053 C2069 1.429 . S
C2053 H2075 0.950 . S
C2054 H2050 0.949 . S
C2054 C2062 1.574 . S
C2054 C2070 1.368 . S
H2055 C2063 0.950 . S
H2056 C2061 0.950 . S
H2057 C2062 0.949 . S
H2058 C2064 0.950 . S
H2059 C2065 0.950 . S
H2060 C2066 0.949 . S
C2061 H2056 0.950 . S
C2061 C2063 1.327 . S
C2061 C2067 1.429 . S
C2062 C2054 1.574 . S
C2062 H2057 0.949 . S
C2062 C2068 1.368 . S
C2063 C2047 1.349 . S
C2063 H2055 0.950 . S
C2063 C2061 1.327 . S
C2064 C2052 1.349 . S
C2064 H2058 0.950 . S
C2064 C2065 1.327 . S
C2065 H2059 0.950 . S
C2065 C2064 1.327 . S
C2065 C2069 1.429 . S
C2066 C2049 1.574 . S
C2066 H2060 0.949 . S
C2066 C2070 1.368 . S
C2067 C2048 1.429 . S
C2067 C2061 1.429 . S
C2067 C2068 1.523 . S
C2068 C2049 1.368 . S
C2068 C2062 1.368 . S
C2068 C2067 1.523 . S
C2069 C2053 1.429 . S
C2069 C2065 1.429 . S
C2069 C2070 1.523 . S
C2070 C2054 1.368 . S
C2070 C2066 1.368 . S
C2070 C2069 1.523 . S
H2071 C2046 0.950 . S
H2072 C2048 0.950 . S
H2073 C2049 0.949 . S
H2074 C2051 0.950 . S
H2075 C2053 0.950 . S
C2076 C2077 1.349 . S
C2076 C2078 1.327 . S
C2076 H2101 0.950 . S
C2077 C2076 1.349 . S
C2077 C2093 1.349 . S
C2078 C2076 1.327 . S
C2078 C2097 1.429 . S
C2078 H2102 0.950 . S
C2079 C2096 1.574 1_545 S
C2079 C2098 1.368 . S
C2079 H2103 0.949 . S
H2080 C2084 0.949 . S
C2081 C2082 1.349 . S
C2081 C2083 1.327 . S
C2081 H2104 0.950 . S
C2082 C2081 1.349 . S
C2082 C2094 1.349 . S
C2083 C2081 1.327 . S
C2083 C2099 1.429 . S
C2083 H2105 0.950 . S
C2084 H2080 0.949 . S
C2084 C2092 1.574 1_565 S
C2084 C2100 1.368 . S
H2085 C2093 0.950 . S
H2086 C2091 0.950 . S
H2087 C2092 0.949 . S
H2088 C2094 0.950 . S
H2089 C2095 0.950 . S
H2090 C2096 0.949 . S
C2091 H2086 0.950 . S
C2091 C2093 1.327 . S
C2091 C2097 1.429 . S
C2092 C2084 1.574 1_545 S
C2092 H2087 0.949 . S
C2092 C2098 1.368 . S
C2093 C2077 1.349 . S
C2093 H2085 0.950 . S
C2093 C2091 1.327 . S
C2094 C2082 1.349 . S
C2094 H2088 0.950 . S
C2094 C2095 1.327 . S
C2095 H2089 0.950 . S
C2095 C2094 1.327 . S
C2095 C2099 1.429 . S
C2096 C2079 1.574 1_565 S
C2096 H2090 0.949 . S
C2096 C2100 1.368 . S
C2097 C2078 1.429 . S
C2097 C2091 1.429 . S
C2097 C2098 1.523 . S
C2098 C2079 1.368 . S
C2098 C2092 1.368 . S
C2098 C2097 1.523 . S
C2099 C2083 1.429 . S
C2099 C2095 1.429 . S
C2099 C2100 1.523 . S
C2100 C2084 1.368 . S
C2100 C2096 1.368 . S
C2100 C2099 1.523 . S
H2101 C2076 0.950 . S
H2102 C2078 0.950 . S
H2103 C2079 0.949 . S
H2104 C2081 0.950 . S
H2105 C2083 0.950 . S
C2106 C2107 1.349 . S
C2106 C2108 1.327 . S
C2106 H2131 0.950 . S
C2107 C2106 1.349 . S
C2107 C2123 1.349 . S
C2108 C2106 1.327 . S
C2108 C2127 1.429 . S
C2108 H2132 0.950 . S
C2109 C2126 1.574 1_455 S
C2109 C2128 1.368 . S
C2109 H2133 0.949 . S
H2110 C2114 0.949 . S
C2111 C2112 1.349 . S
C2111 C2113 1.327 . S
C2111 H2134 0.950 . S
C2112 C2111 1.349 . S
C2112 C2124 1.349 . S
C2113 C2111 1.327 . S
C2113 C2129 1.429 . S
C2113 H2135 0.950 . S
C2114 H2110 0.949 . S
C2114 C2122 1.574 1_655 S
C2114 C2130 1.368 . S
H2115 C2123 0.950 . S
H2116 C2121 0.950 . S
H2117 C2122 0.949 . S
H2118 C2124 0.950 . S
H2119 C2125 0.950 . S
H2120 C2126 0.949 . S
C2121 H2116 0.950 . S
C2121 C2123 1.327 . S
C2121 C2127 1.429 . S
C2122 C2114 1.574 1_455 S
C2122 H2117 0.949 . S
C2122 C2128 1.368 . S
C2123 C2107 1.349 . S
C2123 H2115 0.950 . S
C2123 C2121 1.327 . S
C2124 C2112 1.349 . S
C2124 H2118 0.950 . S
C2124 C2125 1.327 . S
C2125 H2119 0.950 . S
C2125 C2124 1.327 . S
C2125 C2129 1.429 . S
C2126 C2109 1.574 1_655 S
C2126 H2120 0.949 . S
C2126 C2130 1.368 . S
C2127 C2108 1.429 . S
C2127 C2121 1.429 . S
C2127 C2128 1.523 . S
C2128 C2109 1.368 . S
C2128 C2122 1.368 . S
C2128 C2127 1.523 . S
C2129 C2113 1.429 . S
C2129 C2125 1.429 . S
C2129 C2130 1.523 . S
C2130 C2114 1.368 . S
C2130 C2126 1.368 . S
C2130 C2129 1.523 . S
H2131 C2106 0.950 . S
H2132 C2108 0.950 . S
H2133 C2109 0.949 . S
H2134 C2111 0.950 . S
H2135 C2113 0.950 . S
C2136 C2137 1.349 . S
C2136 C2138 1.327 . S
C2136 H2161 0.950 . S
C2137 C2136 1.349 . S
C2137 C2153 1.349 . S
C2138 C2136 1.327 . S
C2138 C2157 1.429 . S
C2138 H2162 0.950 . S
C2139 C2156 1.574 1_554 S
C2139 C2158 1.368 . S
C2139 H2163 0.949 . S
H2140 C2144 0.949 . S
C2141 C2142 1.349 . S
C2141 C2143 1.327 . S
C2141 H2164 0.950 . S
C2142 C2141 1.349 . S
C2142 C2154 1.349 . S
C2143 C2141 1.327 . S
C2143 C2159 1.429 . S
C2143 H2165 0.950 . S
C2144 H2140 0.949 . S
C2144 C2152 1.574 1_556 S
C2144 C2160 1.368 . S
H2145 C2153 0.950 . S
H2146 C2151 0.950 . S
H2147 C2152 0.949 . S
H2148 C2154 0.950 . S
H2149 C2155 0.950 . S
H2150 C2156 0.949 . S
C2151 H2146 0.950 . S
C2151 C2153 1.327 . S
C2151 C2157 1.429 . S
C2152 C2144 1.574 1_554 S
C2152 H2147 0.949 . S
C2152 C2158 1.368 . S
C2153 C2137 1.349 . S
C2153 H2145 0.950 . S
C2153 C2151 1.327 . S
C2154 C2142 1.349 . S
C2154 H2148 0.950 . S
C2154 C2155 1.327 . S
C2155 H2149 0.950 . S
C2155 C2154 1.327 . S
C2155 C2159 1.429 . S
C2156 C2139 1.574 1_556 S
C2156 H2150 0.949 . S
C2156 C2160 1.368 . S
C2157 C2138 1.429 . S
C2157 C2151 1.429 . S
C2157 C2158 1.523 . S
C2158 C2139 1.368 . S
C2158 C2152 1.368 . S
C2158 C2157 1.523 . S
C2159 C2143 1.429 . S
C2159 C2155 1.429 . S
C2159 C2160 1.523 . S
C2160 C2144 1.368 . S
C2160 C2156 1.368 . S
C2160 C2159 1.523 . S
H2161 C2136 0.950 . S
H2162 C2138 0.950 . S
H2163 C2139 0.949 . S
H2164 C2141 0.950 . S
H2165 C2143 0.950 . S
C2166 C2167 1.349 . S
C2166 C2168 1.327 . S
C2166 H2191 0.950 . S
C2167 C2166 1.349 . S
C2167 C2183 1.349 . S
C2168 C2166 1.327 . S
C2168 C2187 1.429 . S
C2168 H2192 0.950 . S
C2169 C2186 1.574 . S
C2169 C2188 1.368 . S
C2169 H2193 0.949 . S
H2170 C2174 0.949 . S
C2171 C2172 1.349 . S
C2171 C2173 1.327 . S
C2171 H2194 0.950 . S
C2172 C2171 1.349 . S
C2172 C2184 1.349 . S
C2173 C2171 1.327 . S
C2173 C2189 1.429 . S
C2173 H2195 0.950 . S
C2174 H2170 0.949 . S
C2174 C2182 1.574 . S
C2174 C2190 1.368 . S
H2175 C2183 0.950 . S
H2176 C2181 0.950 . S
H2177 C2182 0.949 . S
H2178 C2184 0.950 . S
H2179 C2185 0.950 . S
H2180 C2186 0.949 . S
C2181 H2176 0.950 . S
C2181 C2183 1.327 . S
C2181 C2187 1.429 . S
C2182 C2174 1.574 . S
C2182 H2177 0.949 . S
C2182 C2188 1.368 . S
C2183 C2167 1.349 . S
C2183 H2175 0.950 . S
C2183 C2181 1.327 . S
C2184 C2172 1.349 . S
C2184 H2178 0.950 . S
C2184 C2185 1.327 . S
C2185 H2179 0.950 . S
C2185 C2184 1.327 . S
C2185 C2189 1.429 . S
C2186 C2169 1.574 . S
C2186 H2180 0.949 . S
C2186 C2190 1.368 . S
C2187 C2168 1.429 . S
C2187 C2181 1.429 . S
C2187 C2188 1.523 . S
C2188 C2169 1.368 . S
C2188 C2182 1.368 . S
C2188 C2187 1.523 . S
C2189 C2173 1.429 . S
C2189 C2185 1.429 . S
C2189 C2190 1.523 . S
C2190 C2174 1.368 . S
C2190 C2186 1.368 . S
C2190 C2189 1.523 . S
H2191 C2166 0.950 . S
H2192 C2168 0.950 . S
H2193 C2169 0.949 . S
H2194 C2171 0.950 . S
H2195 C2173 0.950 . S
C2196 C2197 1.349 . S
C2196 C2198 1.327 . S
C2196 H2221 0.950 . S
C2197 C2196 1.349 . S
C2197 C2213 1.349 . S
C2198 C2196 1.327 . S
C2198 C2217 1.429 . S
C2198 H2222 0.950 . S
C2199 C2216 1.574 1_556 S
C2199 C2218 1.368 . S
C2199 H2223 0.949 . S
H2200 C2204 0.949 . S
C2201 C2202 1.349 . S
C2201 C2203 1.327 . S
C2201 H2224 0.950 . S
C2202 C2201 1.349 . S
C2202 C2214 1.349 . S
C2203 C2201 1.327 . S
C2203 C2219 1.429 . S
C2203 H2225 0.950 . S
C2204 H2200 0.949 . S
C2204 C2212 1.574 1_554 S
C2204 C2220 1.368 . S
H2205 C2213 0.950 . S
H2206 C2211 0.950 . S
H2207 C2212 0.949 . S
H2208 C2214 0.950 . S
H2209 C2215 0.950 . S
H2210 C2216 0.949 . S
C2211 H2206 0.950 . S
C2211 C2213 1.327 . S
C2211 C2217 1.429 . S
C2212 C2204 1.574 1_556 S
C2212 H2207 0.949 . S
C2212 C2218 1.368 . S
C2213 C2197 1.349 . S
C2213 H2205 0.950 . S
C2213 C2211 1.327 . S
C2214 C2202 1.349 . S
C2214 H2208 0.950 . S
C2214 C2215 1.327 . S
C2215 H2209 0.950 . S
C2215 C2214 1.327 . S
C2215 C2219 1.429 . S
C2216 C2199 1.574 1_554 S
C2216 H2210 0.949 . S
C2216 C2220 1.368 . S
C2217 C2198 1.429 . S
C2217 C2211 1.429 . S
C2217 C2218 1.523 . S
C2218 C2199 1.368 . S
C2218 C2212 1.368 . S
C2218 C2217 1.523 . S
C2219 C2203 1.429 . S
C2219 C2215 1.429 . S
C2219 C2220 1.523 . S
C2220 C2204 1.368 . S
C2220 C2216 1.368 . S
C2220 C2219 1.523 . S
H2221 C2196 0.950 . S
H2222 C2198 0.950 . S
H2223 C2199 0.949 . S
H2224 C2201 0.950 . S
H2225 C2203 0.950 . S
C2226 C2227 1.349 . S
C2226 C2228 1.327 . S
C2226 H2251 0.950 . S
C2227 C2226 1.349 . S
C2227 C2243 1.349 . S
C2228 C2226 1.327 . S
C2228 C2247 1.429 . S
C2228 H2252 0.950 . S
C2229 C2246 1.574 . S
C2229 C2248 1.368 . S
C2229 H2253 0.949 . S
H2230 C2234 0.949 . S
C2231 C2232 1.349 . S
C2231 C2233 1.327 . S
C2231 H2254 0.950 . S
C2232 C2231 1.349 . S
C2232 C2244 1.349 . S
C2233 C2231 1.327 . S
C2233 C2249 1.429 . S
C2233 H2255 0.950 . S
C2234 H2230 0.949 . S
C2234 C2242 1.574 . S
C2234 C2250 1.368 . S
H2235 C2243 0.950 . S
H2236 C2241 0.950 . S
H2237 C2242 0.949 . S
H2238 C2244 0.950 . S
H2239 C2245 0.950 . S
H2240 C2246 0.949 . S
C2241 H2236 0.950 . S
C2241 C2243 1.327 . S
C2241 C2247 1.429 . S
C2242 C2234 1.574 . S
C2242 H2237 0.949 . S
C2242 C2248 1.368 . S
C2243 C2227 1.349 . S
C2243 H2235 0.950 . S
C2243 C2241 1.327 . S
C2244 C2232 1.349 . S
C2244 H2238 0.950 . S
C2244 C2245 1.327 . S
C2245 H2239 0.950 . S
C2245 C2244 1.327 . S
C2245 C2249 1.429 . S
C2246 C2229 1.574 . S
C2246 H2240 0.949 . S
C2246 C2250 1.368 . S
C2247 C2228 1.429 . S
C2247 C2241 1.429 . S
C2247 C2248 1.523 . S
C2248 C2229 1.368 . S
C2248 C2242 1.368 . S
C2248 C2247 1.523 . S
C2249 C2233 1.429 . S
C2249 C2245 1.429 . S
C2249 C2250 1.523 . S
C2250 C2234 1.368 . S
C2250 C2246 1.368 . S
C2250 C2249 1.523 . S
H2251 C2226 0.950 . S
H2252 C2228 0.950 . S
H2253 C2229 0.949 . S
H2254 C2231 0.950 . S
H2255 C2233 0.950 . S
C2256 C2257 1.349 . S
C2256 C2258 1.327 . S
C2256 H2281 0.950 . S
C2257 C2256 1.349 . S
C2257 C2273 1.349 . S
C2258 C2256 1.327 . S
C2258 C2277 1.429 . S
C2258 H2282 0.950 . S
C2259 C2276 1.574 1_565 S
C2259 C2278 1.368 . S
C2259 H2283 0.949 . S
H2260 C2264 0.949 . S
C2261 C2262 1.349 . S
C2261 C2263 1.327 . S
C2261 H2284 0.950 . S
C2262 C2261 1.349 . S
C2262 C2274 1.349 . S
C2263 C2261 1.327 . S
C2263 C2279 1.429 . S
C2263 H2285 0.950 . S
C2264 H2260 0.949 . S
C2264 C2272 1.574 1_545 S
C2264 C2280 1.368 . S
H2265 C2273 0.950 . S
H2266 C2271 0.950 . S
H2267 C2272 0.949 . S
H2268 C2274 0.950 . S
H2269 C2275 0.950 . S
H2270 C2276 0.949 . S
C2271 H2266 0.950 . S
C2271 C2273 1.327 . S
C2271 C2277 1.429 . S
C2272 C2264 1.574 1_565 S
C2272 H2267 0.949 . S
C2272 C2278 1.368 . S
C2273 C2257 1.349 . S
C2273 H2265 0.950 . S
C2273 C2271 1.327 . S
C2274 C2262 1.349 . S
C2274 H2268 0.950 . S
C2274 C2275 1.327 . S
C2275 H2269 0.950 . S
C2275 C2274 1.327 . S
C2275 C2279 1.429 . S
C2276 C2259 1.574 1_545 S
C2276 H2270 0.949 . S
C2276 C2280 1.368 . S
C2277 C2258 1.429 . S
C2277 C2271 1.429 . S
C2277 C2278 1.523 . S
C2278 C2259 1.368 . S
C2278 C2272 1.368 . S
C2278 C2277 1.523 . S
C2279 C2263 1.429 . S
C2279 C2275 1.429 . S
C2279 C2280 1.523 . S
C2280 C2264 1.368 . S
C2280 C2276 1.368 . S
C2280 C2279 1.523 . S
H2281 C2256 0.950 . S
H2282 C2258 0.950 . S
H2283 C2259 0.949 . S
H2284 C2261 0.950 . S
H2285 C2263 0.950 . S
C2286 C2287 1.349 . S
C2286 C2288 1.327 . S
C2286 H2311 0.950 . S
C2287 C2286 1.349 . S
C2287 C2303 1.349 . S
C2288 C2286 1.327 . S
C2288 C2307 1.429 . S
C2288 H2312 0.950 . S
C2289 C2306 1.574 1_455 S
C2289 C2308 1.368 . S
C2289 H2313 0.949 . S
H2290 C2294 0.949 . S
C2291 C2292 1.349 . S
C2291 C2293 1.327 . S
C2291 H2314 0.950 . S
C2292 C2291 1.349 . S
C2292 C2304 1.349 . S
C2293 C2291 1.327 . S
C2293 C2309 1.429 . S
C2293 H2315 0.950 . S
C2294 H2290 0.949 . S
C2294 C2302 1.574 1_655 S
C2294 C2310 1.368 . S
H2295 C2303 0.950 . S
H2296 C2301 0.950 . S
H2297 C2302 0.949 . S
H2298 C2304 0.950 . S
H2299 C2305 0.950 . S
H2300 C2306 0.949 . S
C2301 H2296 0.950 . S
C2301 C2303 1.327 . S
C2301 C2307 1.429 . S
C2302 C2294 1.574 1_455 S
C2302 H2297 0.949 . S
C2302 C2308 1.368 . S
C2303 C2287 1.349 . S
C2303 H2295 0.950 . S
C2303 C2301 1.327 . S
C2304 C2292 1.349 . S
C2304 H2298 0.950 . S
C2304 C2305 1.327 . S
C2305 H2299 0.950 . S
C2305 C2304 1.327 . S
C2305 C2309 1.429 . S
C2306 C2289 1.574 1_655 S
C2306 H2300 0.949 . S
C2306 C2310 1.368 . S
C2307 C2288 1.429 . S
C2307 C2301 1.429 . S
C2307 C2308 1.523 . S
C2308 C2289 1.368 . S
C2308 C2302 1.368 . S
C2308 C2307 1.523 . S
C2309 C2293 1.429 . S
C2309 C2305 1.429 . S
C2309 C2310 1.523 . S
C2310 C2294 1.368 . S
C2310 C2306 1.368 . S
C2310 C2309 1.523 . S
H2311 C2286 0.950 . S
H2312 C2288 0.950 . S
H2313 C2289 0.949 . S
H2314 C2291 0.950 . S
H2315 C2293 0.950 . S
C2316 C2317 1.349 . S
C2316 C2318 1.327 . S
C2316 H2341 0.950 . S
C2317 C2316 1.349 . S
C2317 C2333 1.349 . S
C2318 C2316 1.327 . S
C2318 C2337 1.429 . S
C2318 H2342 0.950 . S
C2319 C2336 1.574 . S
C2319 C2338 1.368 . S
C2319 H2343 0.949 . S
H2320 C2324 0.949 . S
C2321 C2322 1.349 . S
C2321 C2323 1.327 . S
C2321 H2344 0.950 . S
C2322 C2321 1.349 . S
C2322 C2334 1.349 . S
C2323 C2321 1.327 . S
C2323 C2339 1.429 . S
C2323 H2345 0.950 . S
C2324 H2320 0.949 . S
C2324 C2332 1.574 . S
C2324 C2340 1.368 . S
H2325 C2333 0.950 . S
H2326 C2331 0.950 . S
H2327 C2332 0.949 . S
H2328 C2334 0.950 . S
H2329 C2335 0.950 . S
H2330 C2336 0.949 . S
C2331 H2326 0.950 . S
C2331 C2333 1.327 . S
C2331 C2337 1.429 . S
C2332 C2324 1.574 . S
C2332 H2327 0.949 . S
C2332 C2338 1.368 . S
C2333 C2317 1.349 . S
C2333 H2325 0.950 . S
C2333 C2331 1.327 . S
C2334 C2322 1.349 . S
C2334 H2328 0.950 . S
C2334 C2335 1.327 . S
C2335 H2329 0.950 . S
C2335 C2334 1.327 . S
C2335 C2339 1.429 . S
C2336 C2319 1.574 . S
C2336 H2330 0.949 . S
C2336 C2340 1.368 . S
C2337 C2318 1.429 . S
C2337 C2331 1.429 . S
C2337 C2338 1.523 . S
C2338 C2319 1.368 . S
C2338 C2332 1.368 . S
C2338 C2337 1.523 . S
C2339 C2323 1.429 . S
C2339 C2335 1.429 . S
C2339 C2340 1.523 . S
C2340 C2324 1.368 . S
C2340 C2336 1.368 . S
C2340 C2339 1.523 . S
H2341 C2316 0.950 . S
H2342 C2318 0.950 . S
H2343 C2319 0.949 . S
H2344 C2321 0.950 . S
H2345 C2323 0.950 . S
C2346 C2347 1.349 . S
C2346 C2348 1.327 . S
C2346 H2371 0.950 . S
C2347 C2346 1.349 . S
C2347 C2363 1.349 . S
C2348 C2346 1.327 . S
C2348 C2367 1.429 . S
C2348 H2372 0.950 . S
C2349 C2366 1.574 . S
C2349 C2368 1.368 . S
C2349 H2373 0.949 . S
H2350 C2354 0.949 . S
C2351 C2352 1.349 . S
C2351 C2353 1.327 . S
C2351 H2374 0.950 . S
C2352 C2351 1.349 . S
C2352 C2364 1.349 . S
C2353 C2351 1.327 . S
C2353 C2369 1.429 . S
C2353 H2375 0.950 . S
C2354 H2350 0.949 . S
C2354 C2362 1.574 . S
C2354 C2370 1.368 . S
H2355 C2363 0.950 . S
H2356 C2361 0.950 . S
H2357 C2362 0.949 . S
H2358 C2364 0.950 . S
H2359 C2365 0.950 . S
H2360 C2366 0.949 . S
C2361 H2356 0.950 . S
C2361 C2363 1.327 . S
C2361 C2367 1.429 . S
C2362 C2354 1.574 . S
C2362 H2357 0.949 . S
C2362 C2368 1.368 . S
C2363 C2347 1.349 . S
C2363 H2355 0.950 . S
C2363 C2361 1.327 . S
C2364 C2352 1.349 . S
C2364 H2358 0.950 . S
C2364 C2365 1.327 . S
C2365 H2359 0.950 . S
C2365 C2364 1.327 . S
C2365 C2369 1.429 . S
C2366 C2349 1.574 . S
C2366 H2360 0.949 . S
C2366 C2370 1.368 . S
C2367 C2348 1.429 . S
C2367 C2361 1.429 . S
C2367 C2368 1.523 . S
C2368 C2349 1.368 . S
C2368 C2362 1.368 . S
C2368 C2367 1.523 . S
C2369 C2353 1.429 . S
C2369 C2365 1.429 . S
C2369 C2370 1.523 . S
C2370 C2354 1.368 . S
C2370 C2366 1.368 . S
C2370 C2369 1.523 . S
H2371 C2346 0.950 . S
H2372 C2348 0.950 . S
H2373 C2349 0.949 . S
H2374 C2351 0.950 . S
H2375 C2353 0.950 . S
C2376 C2377 1.349 . S
C2376 C2378 1.327 . S
C2376 H2401 0.950 . S
C2377 C2376 1.349 . S
C2377 C2393 1.349 . S
C2378 C2376 1.327 . S
C2378 C2397 1.429 . S
C2378 H2402 0.950 . S
C2379 C2396 1.574 . S
C2379 C2398 1.368 . S
C2379 H2403 0.949 . S
H2380 C2384 0.949 . S
C2381 C2382 1.349 . S
C2381 C2383 1.327 . S
C2381 H2404 0.950 . S
C2382 C2381 1.349 . S
C2382 C2394 1.349 . S
C2383 C2381 1.327 . S
C2383 C2399 1.429 . S
C2383 H2405 0.950 . S
C2384 H2380 0.949 . S
C2384 C2392 1.574 . S
C2384 C2400 1.368 . S
H2385 C2393 0.950 . S
H2386 C2391 0.950 . S
H2387 C2392 0.949 . S
H2388 C2394 0.950 . S
H2389 C2395 0.950 . S
H2390 C2396 0.949 . S
C2391 H2386 0.950 . S
C2391 C2393 1.327 . S
C2391 C2397 1.429 . S
C2392 C2384 1.574 . S
C2392 H2387 0.949 . S
C2392 C2398 1.368 . S
C2393 C2377 1.349 . S
C2393 H2385 0.950 . S
C2393 C2391 1.327 . S
C2394 C2382 1.349 . S
C2394 H2388 0.950 . S
C2394 C2395 1.327 . S
C2395 H2389 0.950 . S
C2395 C2394 1.327 . S
C2395 C2399 1.429 . S
C2396 C2379 1.574 . S
C2396 H2390 0.949 . S
C2396 C2400 1.368 . S
C2397 C2378 1.429 . S
C2397 C2391 1.429 . S
C2397 C2398 1.523 . S
C2398 C2379 1.368 . S
C2398 C2392 1.368 . S
C2398 C2397 1.523 . S
C2399 C2383 1.429 . S
C2399 C2395 1.429 . S
C2399 C2400 1.523 . S
C2400 C2384 1.368 . S
C2400 C2396 1.368 . S
C2400 C2399 1.523 . S
H2401 C2376 0.950 . S
H2402 C2378 0.950 . S
H2403 C2379 0.949 . S
H2404 C2381 0.950 . S
H2405 C2383 0.950 . S
C2406 C2407 1.349 . S
C2406 C2408 1.327 . S
C2406 H2431 0.950 . S
C2407 C2406 1.349 . S
C2407 C2423 1.349 . S
C2408 C2406 1.327 . S
C2408 C2427 1.429 . S
C2408 H2432 0.950 . S
C2409 C2426 1.574 . S
C2409 C2428 1.368 . S
C2409 H2433 0.949 . S
H2410 C2414 0.949 . S
C2411 C2412 1.349 . S
C2411 C2413 1.327 . S
C2411 H2434 0.950 . S
C2412 C2411 1.349 . S
C2412 C2424 1.349 . S
C2413 C2411 1.327 . S
C2413 C2429 1.429 . S
C2413 H2435 0.950 . S
C2414 H2410 0.949 . S
C2414 C2422 1.574 . S
C2414 C2430 1.368 . S
H2415 C2423 0.950 . S
H2416 C2421 0.950 . S
H2417 C2422 0.949 . S
H2418 C2424 0.950 . S
H2419 C2425 0.950 . S
H2420 C2426 0.949 . S
C2421 H2416 0.950 . S
C2421 C2423 1.327 . S
C2421 C2427 1.429 . S
C2422 C2414 1.574 . S
C2422 H2417 0.949 . S
C2422 C2428 1.368 . S
C2423 C2407 1.349 . S
C2423 H2415 0.950 . S
C2423 C2421 1.327 . S
C2424 C2412 1.349 . S
C2424 H2418 0.950 . S
C2424 C2425 1.327 . S
C2425 H2419 0.950 . S
C2425 C2424 1.327 . S
C2425 C2429 1.429 . S
C2426 C2409 1.574 . S
C2426 H2420 0.949 . S
C2426 C2430 1.368 . S
C2427 C2408 1.429 . S
C2427 C2421 1.429 . S
C2427 C2428 1.523 . S
C2428 C2409 1.368 . S
C2428 C2422 1.368 . S
C2428 C2427 1.523 . S
C2429 C2413 1.429 . S
C2429 C2425 1.429 . S
C2429 C2430 1.523 . S
C2430 C2414 1.368 . S
C2430 C2426 1.368 . S
C2430 C2429 1.523 . S
H2431 C2406 0.950 . S
H2432 C2408 0.950 . S
H2433 C2409 0.949 . S
H2434 C2411 0.950 . S
H2435 C2413 0.950 . S
C2436 C2437 1.349 . S
C2436 C2438 1.327 . S
C2436 H2461 0.950 . S
C2437 C2436 1.349 . S
C2437 C2453 1.349 . S
C2438 C2436 1.327 . S
C2438 C2457 1.429 . S
C2438 H2462 0.950 . S
C2439 C2456 1.574 1_545 S
C2439 C2458 1.368 . S
C2439 H2463 0.949 . S
H2440 C2444 0.949 . S
C2441 C2442 1.349 . S
C2441 C2443 1.327 . S
C2441 H2464 0.950 . S
C2442 C2441 1.349 . S
C2442 C2454 1.349 . S
C2443 C2441 1.327 . S
C2443 C2459 1.429 . S
C2443 H2465 0.950 . S
C2444 H2440 0.949 . S
C2444 C2452 1.574 1_565 S
C2444 C2460 1.368 . S
H2445 C2453 0.950 . S
H2446 C2451 0.950 . S
H2447 C2452 0.949 . S
H2448 C2454 0.950 . S
H2449 C2455 0.950 . S
H2450 C2456 0.949 . S
C2451 H2446 0.950 . S
C2451 C2453 1.327 . S
C2451 C2457 1.429 . S
C2452 C2444 1.574 1_545 S
C2452 H2447 0.949 . S
C2452 C2458 1.368 . S
C2453 C2437 1.349 . S
C2453 H2445 0.950 . S
C2453 C2451 1.327 . S
C2454 C2442 1.349 . S
C2454 H2448 0.950 . S
C2454 C2455 1.327 . S
C2455 H2449 0.950 . S
C2455 C2454 1.327 . S
C2455 C2459 1.429 . S
C2456 C2439 1.574 1_565 S
C2456 H2450 0.949 . S
C2456 C2460 1.368 . S
C2457 C2438 1.429 . S
C2457 C2451 1.429 . S
C2457 C2458 1.523 . S
C2458 C2439 1.368 . S
C2458 C2452 1.368 . S
C2458 C2457 1.523 . S
C2459 C2443 1.429 . S
C2459 C2455 1.429 . S
C2459 C2460 1.523 . S
C2460 C2444 1.368 . S
C2460 C2456 1.368 . S
C2460 C2459 1.523 . S
H2461 C2436 0.950 . S
H2462 C2438 0.950 . S
H2463 C2439 0.949 . S
H2464 C2441 0.950 . S
H2465 C2443 0.950 . S
C2466 C2467 1.349 . S
C2466 C2468 1.327 . S
C2466 H2491 0.950 . S
C2467 C2466 1.349 . S
C2467 C2483 1.349 . S
C2468 C2466 1.327 . S
C2468 C2487 1.429 . S
C2468 H2492 0.950 . S
C2469 C2486 1.574 1_655 S
C2469 C2488 1.368 . S
C2469 H2493 0.949 . S
H2470 C2474 0.949 . S
C2471 C2472 1.349 . S
C2471 C2473 1.327 . S
C2471 H2494 0.950 . S
C2472 C2471 1.349 . S
C2472 C2484 1.349 . S
C2473 C2471 1.327 . S
C2473 C2489 1.429 . S
C2473 H2495 0.950 . S
C2474 H2470 0.949 . S
C2474 C2482 1.574 1_455 S
C2474 C2490 1.368 . S
H2475 C2483 0.950 . S
H2476 C2481 0.950 . S
H2477 C2482 0.949 . S
H2478 C2484 0.950 . S
H2479 C2485 0.950 . S
H2480 C2486 0.949 . S
C2481 H2476 0.950 . S
C2481 C2483 1.327 . S
C2481 C2487 1.429 . S
C2482 C2474 1.574 1_655 S
C2482 H2477 0.949 . S
C2482 C2488 1.368 . S
C2483 C2467 1.349 . S
C2483 H2475 0.950 . S
C2483 C2481 1.327 . S
C2484 C2472 1.349 . S
C2484 H2478 0.950 . S
C2484 C2485 1.327 . S
C2485 H2479 0.950 . S
C2485 C2484 1.327 . S
C2485 C2489 1.429 . S
C2486 C2469 1.574 1_455 S
C2486 H2480 0.949 . S
C2486 C2490 1.368 . S
C2487 C2468 1.429 . S
C2487 C2481 1.429 . S
C2487 C2488 1.523 . S
C2488 C2469 1.368 . S
C2488 C2482 1.368 . S
C2488 C2487 1.523 . S
C2489 C2473 1.429 . S
C2489 C2485 1.429 . S
C2489 C2490 1.523 . S
C2490 C2474 1.368 . S
C2490 C2486 1.368 . S
C2490 C2489 1.523 . S
H2491 C2466 0.950 . S
H2492 C2468 0.950 . S
H2493 C2469 0.949 . S
H2494 C2471 0.950 . S
H2495 C2473 0.950 . S
C2496 C2497 1.349 . S
C2496 C2498 1.327 . S
C2496 H2521 0.950 . S
C2497 C2496 1.349 . S
C2497 C2513 1.349 . S
C2498 C2496 1.327 . S
C2498 C2517 1.429 . S
C2498 H2522 0.950 . S
C2499 C2516 1.574 1_554 S
C2499 C2518 1.368 . S
C2499 H2523 0.949 . S
H2500 C2504 0.949 . S
C2501 C2502 1.349 . S
C2501 C2503 1.327 . S
C2501 H2524 0.950 . S
C2502 C2501 1.349 . S
C2502 C2514 1.349 . S
C2503 C2501 1.327 . S
C2503 C2519 1.429 . S
C2503 H2525 0.950 . S
C2504 H2500 0.949 . S
C2504 C2512 1.574 1_556 S
C2504 C2520 1.368 . S
H2505 C2513 0.950 . S
H2506 C2511 0.950 . S
H2507 C2512 0.949 . S
H2508 C2514 0.950 . S
H2509 C2515 0.950 . S
H2510 C2516 0.949 . S
C2511 H2506 0.950 . S
C2511 C2513 1.327 . S
C2511 C2517 1.429 . S
C2512 C2504 1.574 1_554 S
C2512 H2507 0.949 . S
C2512 C2518 1.368 . S
C2513 C2497 1.349 . S
C2513 H2505 0.950 . S
C2513 C2511 1.327 . S
C2514 C2502 1.349 . S
C2514 H2508 0.950 . S
C2514 C2515 1.327 . S
C2515 H2509 0.950 . S
C2515 C2514 1.327 . S
C2515 C2519 1.429 . S
C2516 C2499 1.574 1_556 S
C2516 H2510 0.949 . S
C2516 C2520 1.368 . S
C2517 C2498 1.429 . S
C2517 C2511 1.429 . S
C2517 C2518 1.523 . S
C2518 C2499 1.368 . S
C2518 C2512 1.368 . S
C2518 C2517 1.523 . S
C2519 C2503 1.429 . S
C2519 C2515 1.429 . S
C2519 C2520 1.523 . S
C2520 C2504 1.368 . S
C2520 C2516 1.368 . S
C2520 C2519 1.523 . S
H2521 C2496 0.950 . S
H2522 C2498 0.950 . S
H2523 C2499 0.949 . S
H2524 C2501 0.950 . S
H2525 C2503 0.950 . S
C2526 C2527 1.349 . S
C2526 C2528 1.327 . S
C2526 H2551 0.950 . S
C2527 C2526 1.349 . S
C2527 C2543 1.349 . S
C2528 C2526 1.327 . S
C2528 C2547 1.429 . S
C2528 H2552 0.950 . S
C2529 C2546 1.574 . S
C2529 C2548 1.368 . S
C2529 H2553 0.949 . S
H2530 C2534 0.949 . S
C2531 C2532 1.349 . S
C2531 C2533 1.327 . S
C2531 H2554 0.950 . S
C2532 C2531 1.349 . S
C2532 C2544 1.349 . S
C2533 C2531 1.327 . S
C2533 C2549 1.429 . S
C2533 H2555 0.950 . S
C2534 H2530 0.949 . S
C2534 C2542 1.574 . S
C2534 C2550 1.368 . S
H2535 C2543 0.950 . S
H2536 C2541 0.950 . S
H2537 C2542 0.949 . S
H2538 C2544 0.950 . S
H2539 C2545 0.950 . S
H2540 C2546 0.949 . S
C2541 H2536 0.950 . S
C2541 C2543 1.327 . S
C2541 C2547 1.429 . S
C2542 C2534 1.574 . S
C2542 H2537 0.949 . S
C2542 C2548 1.368 . S
C2543 C2527 1.349 . S
C2543 H2535 0.950 . S
C2543 C2541 1.327 . S
C2544 C2532 1.349 . S
C2544 H2538 0.950 . S
C2544 C2545 1.327 . S
C2545 H2539 0.950 . S
C2545 C2544 1.327 . S
C2545 C2549 1.429 . S
C2546 C2529 1.574 . S
C2546 H2540 0.949 . S
C2546 C2550 1.368 . S
C2547 C2528 1.429 . S
C2547 C2541 1.429 . S
C2547 C2548 1.523 . S
C2548 C2529 1.368 . S
C2548 C2542 1.368 . S
C2548 C2547 1.523 . S
C2549 C2533 1.429 . S
C2549 C2545 1.429 . S
C2549 C2550 1.523 . S
C2550 C2534 1.368 . S
C2550 C2546 1.368 . S
C2550 C2549 1.523 . S
H2551 C2526 0.950 . S
H2552 C2528 0.950 . S
H2553 C2529 0.949 . S
H2554 C2531 0.950 . S
H2555 C2533 0.950 . S
C2556 C2557 1.349 . S
C2556 C2558 1.327 . S
C2556 H2581 0.950 . S
C2557 C2556 1.349 . S
C2557 C2573 1.349 . S
C2558 C2556 1.327 . S
C2558 C2577 1.429 . S
C2558 H2582 0.950 . S
C2559 C2576 1.574 1_556 S
C2559 C2578 1.368 . S
C2559 H2583 0.949 . S
H2560 C2564 0.949 . S
C2561 C2562 1.349 . S
C2561 C2563 1.327 . S
C2561 H2584 0.950 . S
C2562 C2561 1.349 . S
C2562 C2574 1.349 . S
C2563 C2561 1.327 . S
C2563 C2579 1.429 . S
C2563 H2585 0.950 . S
C2564 H2560 0.949 . S
C2564 C2572 1.574 1_554 S
C2564 C2580 1.368 . S
H2565 C2573 0.950 . S
H2566 C2571 0.950 . S
H2567 C2572 0.949 . S
H2568 C2574 0.950 . S
H2569 C2575 0.950 . S
H2570 C2576 0.949 . S
C2571 H2566 0.950 . S
C2571 C2573 1.327 . S
C2571 C2577 1.429 . S
C2572 C2564 1.574 1_556 S
C2572 H2567 0.949 . S
C2572 C2578 1.368 . S
C2573 C2557 1.349 . S
C2573 H2565 0.950 . S
C2573 C2571 1.327 . S
C2574 C2562 1.349 . S
C2574 H2568 0.950 . S
C2574 C2575 1.327 . S
C2575 H2569 0.950 . S
C2575 C2574 1.327 . S
C2575 C2579 1.429 . S
C2576 C2559 1.574 1_554 S
C2576 H2570 0.949 . S
C2576 C2580 1.368 . S
C2577 C2558 1.429 . S
C2577 C2571 1.429 . S
C2577 C2578 1.523 . S
C2578 C2559 1.368 . S
C2578 C2572 1.368 . S
C2578 C2577 1.523 . S
C2579 C2563 1.429 . S
C2579 C2575 1.429 . S
C2579 C2580 1.523 . S
C2580 C2564 1.368 . S
C2580 C2576 1.368 . S
C2580 C2579 1.523 . S
H2581 C2556 0.950 . S
H2582 C2558 0.950 . S
H2583 C2559 0.949 . S
H2584 C2561 0.950 . S
H2585 C2563 0.950 . S
C2586 C2587 1.349 . S
C2586 C2588 1.327 . S
C2586 H2611 0.950 . S
C2587 C2586 1.349 . S
C2587 C2603 1.349 . S
C2588 C2586 1.327 . S
C2588 C2607 1.429 . S
C2588 H2612 0.950 . S
C2589 C2606 1.574 . S
C2589 C2608 1.368 . S
C2589 H2613 0.949 . S
H2590 C2594 0.949 . S
C2591 C2592 1.349 . S
C2591 C2593 1.327 . S
C2591 H2614 0.950 . S
C2592 C2591 1.349 . S
C2592 C2604 1.349 . S
C2593 C2591 1.327 . S
C2593 C2609 1.429 . S
C2593 H2615 0.950 . S
C2594 H2590 0.949 . S
C2594 C2602 1.574 . S
C2594 C2610 1.368 . S
H2595 C2603 0.950 . S
H2596 C2601 0.950 . S
H2597 C2602 0.949 . S
H2598 C2604 0.950 . S
H2599 C2605 0.950 . S
H2600 C2606 0.949 . S
C2601 H2596 0.950 . S
C2601 C2603 1.327 . S
C2601 C2607 1.429 . S
C2602 C2594 1.574 . S
C2602 H2597 0.949 . S
C2602 C2608 1.368 . S
C2603 C2587 1.349 . S
C2603 H2595 0.950 . S
C2603 C2601 1.327 . S
C2604 C2592 1.349 . S
C2604 H2598 0.950 . S
C2604 C2605 1.327 . S
C2605 H2599 0.950 . S
C2605 C2604 1.327 . S
C2605 C2609 1.429 . S
C2606 C2589 1.574 . S
C2606 H2600 0.949 . S
C2606 C2610 1.368 . S
C2607 C2588 1.429 . S
C2607 C2601 1.429 . S
C2607 C2608 1.523 . S
C2608 C2589 1.368 . S
C2608 C2602 1.368 . S
C2608 C2607 1.523 . S
C2609 C2593 1.429 . S
C2609 C2605 1.429 . S
C2609 C2610 1.523 . S
C2610 C2594 1.368 . S
C2610 C2606 1.368 . S
C2610 C2609 1.523 . S
H2611 C2586 0.950 . S
H2612 C2588 0.950 . S
H2613 C2589 0.949 . S
H2614 C2591 0.950 . S
H2615 C2593 0.950 . S
C817 C101 1.693 . S
C822 C33 1.693 . S
C847 C67 1.693 . S
C852 C135 1.693 . S
C877 C169 1.693 . S
C882 C237 1.693 . S
C907 C271 1.693 . S
C912 C203 1.693 . S
C937 C441 1.693 . S
C942 C305 1.693 . S
C967 C339 1.693 . S
C972 C475 1.693 . S
C997 C509 1.693 . S
C1002 C373 1.693 . S
C1027 C543 1.693 . S
C1032 C407 1.693 . S
C1057 C577 1.693 . S
C1062 C679 1.693 . S
C1087 C611 1.693 . S
C1092 C747 1.693 . S
C1117 C645 1.693 . S
C1122 C781 1.693 . S
C1147 C815 1.693 . S
C1152 C713 1.693 . S
C1177 C138 1.304 . S
C1182 C2 1.304 . S
C1207 C172 1.304 . S
C1212 C36 1.304 . S
C1237 C206 1.304 . S
C1242 C70 1.304 . S
C1267 C240 1.304 . S
C1272 C104 1.304 . S
C1297 C274 1.304 . S
C1302 C478 1.304 . S
C1327 C512 1.304 . S
C1332 C308 1.304 . S
C1357 C410 1.304 . S
C1362 C342 1.304 . S
C1387 C444 1.304 . S
C1392 C376 1.304 . S
C1417 C716 1.304 . S
C1422 C546 1.304 . S
C1447 C580 1.304 . S
C1452 C648 1.304 . S
C1477 C614 1.304 . S
C1482 C682 1.304 . S
C1507 C784 1.304 . S
C1512 C750 1.304 . S
C1537 C243 0.982 . S
C1542 C39 0.982 . S
C1567 C73 0.982 . S
C1572 C141 0.982 . S
C1597 C175 0.982 . S
C1602 C107 0.982 . S
C1627 C209 0.982 . S
C1632 C5 0.982 . S
C1657 C753 0.982 . S
C1662 C685 0.982 . S
C1687 C549 0.982 . S
C1692 C583 0.982 . S
C1717 C617 0.982 . S
C1722 C787 0.982 . S
C1747 C719 0.982 . S
C1752 C651 0.982 . S
C1777 C447 0.982 . S
C1782 C515 0.982 . S
C1807 C311 0.982 . S
C1812 C379 0.982 . S
C1837 C345 0.982 . S
C1842 C277 0.982 . S
C1867 C413 0.982 . S
C1872 C481 0.982 . S
C1897 C768 2.272 . S
C1902 C20 2.272 . S
C1927 C564 2.272 . S
C1932 C54 2.272 . S
C1957 C802 2.272 . S
C1962 C88 2.272 . S
C1987 C734 2.272 . S
C1992 C122 2.272 . S
C2017 C156 2.272 . S
C2022 C632 2.272 . S
C2047 C190 2.272 . S
C2052 C666 2.272 . S
C2077 C224 2.272 . S
C2082 C700 2.272 . S
C2107 C598 2.272 . S
C2112 C258 2.272 . S
C2137 C292 2.272 . S
C2142 C462 2.272 . S
C2167 C496 2.272 . S
C2172 C326 2.272 . S
C2197 C530 2.272 . S
C2202 C360 2.272 . S
C2227 C428 2.272 . S
C2232 C394 2.272 . S
C2257 C247 1.359 . S
C2262 C485 1.359 . S
C2287 C145 1.359 . S
C2292 C519 1.359 . S
C2317 C417 1.359 . S
C2322 C179 1.359 . S
C2347 C451 1.359 . S
C2352 C213 1.359 . S
C2377 C43 1.359 . S
C2382 C349 1.359 . S
C2407 C383 1.359 . S
C2412 C77 1.359 . S
C2437 C281 1.359 . S
C2442 C111 1.359 . S
C2467 C315 1.359 . S
C2472 C9 1.359 . S
C2497 C723 1.359 . S
C2502 C689 1.359 . S
C2527 C757 1.359 . S
C2532 C587 1.359 . S
C2557 C621 1.359 . S
C2562 C553 1.359 . S
C2587 C791 1.359 . S
C2592 C655 1.359 . S
