# Generated by pormake.
# Topology vby, (6)-cn, num edge types: 1
# Building blocks:
#     Node 0, Type 0, BuildingBlock: MIFKUJ_clean_sbu_0, # of connection points: 6
#     Node 1, Type 0, BuildingBlock: MIFKUJ_clean_sbu_0, # of connection points: 6
#     Node 2, Type 0, BuildingBlock: MIFKUJ_clean_sbu_0, # of connection points: 6
#     Node 3, Type 0, BuildingBlock: MIFKUJ_clean_sbu_0, # of connection points: 6
#     Node 4, Type 0, BuildingBlock: MIFKUJ_clean_sbu_0, # of connection points: 6
#     Node 5, Type 0, BuildingBlock: MIFKUJ_clean_sbu_0, # of connection points: 6
#     Node 6, Type 0, BuildingBlock: MIFKUJ_clean_sbu_0, # of connection points: 6
#     Node 7, Type 0, BuildingBlock: MIFKUJ_clean_sbu_0, # of connection points: 6
#     Edge 8, Type (0, 0), BuildingBlock: UVAHIK_clean_linker_0, # of connection points: 2
#     Edge 9, Type (0, 0), BuildingBlock: UVAHIK_clean_linker_0, # of connection points: 2
#     Edge 10, Type (0, 0), BuildingBlock: UVAHIK_clean_linker_0, # of connection points: 2
#     Edge 11, Type (0, 0), BuildingBlock: UVAHIK_clean_linker_0, # of connection points: 2
#     Edge 12, Type (0, 0), BuildingBlock: UVAHIK_clean_linker_0, # of connection points: 2
#     Edge 13, Type (0, 0), BuildingBlock: UVAHIK_clean_linker_0, # of connection points: 2
#     Edge 14, Type (0, 0), BuildingBlock: UVAHIK_clean_linker_0, # of connection points: 2
#     Edge 15, Type (0, 0), BuildingBlock: UVAHIK_clean_linker_0, # of connection points: 2
#     Edge 16, Type (0, 0), BuildingBlock: UVAHIK_clean_linker_0, # of connection points: 2
#     Edge 17, Type (0, 0), BuildingBlock: UVAHIK_clean_linker_0, # of connection points: 2
#     Edge 18, Type (0, 0), BuildingBlock: UVAHIK_clean_linker_0, # of connection points: 2
#     Edge 19, Type (0, 0), BuildingBlock: UVAHIK_clean_linker_0, # of connection points: 2
#     Edge 20, Type (0, 0), BuildingBlock: UVAHIK_clean_linker_0, # of connection points: 2
#     Edge 21, Type (0, 0), BuildingBlock: UVAHIK_clean_linker_0, # of connection points: 2
#     Edge 22, Type (0, 0), BuildingBlock: UVAHIK_clean_linker_0, # of connection points: 2
#     Edge 23, Type (0, 0), BuildingBlock: UVAHIK_clean_linker_0, # of connection points: 2
#     Edge 24, Type (0, 0), BuildingBlock: UVAHIK_clean_linker_0, # of connection points: 2
#     Edge 25, Type (0, 0), BuildingBlock: UVAHIK_clean_linker_0, # of connection points: 2
#     Edge 26, Type (0, 0), BuildingBlock: UVAHIK_clean_linker_0, # of connection points: 2
#     Edge 27, Type (0, 0), BuildingBlock: UVAHIK_clean_linker_0, # of connection points: 2
#     Edge 28, Type (0, 0), BuildingBlock: UVAHIK_clean_linker_0, # of connection points: 2
#     Edge 29, Type (0, 0), BuildingBlock: UVAHIK_clean_linker_0, # of connection points: 2
#     Edge 30, Type (0, 0), BuildingBlock: UVAHIK_clean_linker_0, # of connection points: 2
#     Edge 31, Type (0, 0), BuildingBlock: UVAHIK_clean_linker_0, # of connection points: 2
# Relax obj value: 0.106
# Max RMSD: 0.156
# Mean RMSD: 0.156
data_MOF--net-vby--node1-MIFKUJ_clean_sbu_0--edge1-UVAHIK_clean_linker_0
_symmetry_space_group_name_H-M    P1
_symmetry_Int_Tables_number       1
_symmetry_cell_setting            triclinic
loop_
_symmetry_equiv_pos_as_xyz
'x, y, z'
_cell_length_a     21.936267
_cell_length_b     89.347779
_cell_length_c     36.454361
_cell_angle_alpha  89.829718
_cell_angle_beta   89.918286
_cell_angle_gamma 89.976824
loop_
_atom_site_label
_atom_site_type_symbol
_atom_site_fract_x
_atom_site_fract_y
_atom_site_fract_z
_atom_type_partial_charge
Zn0 Zn 0.14162 0.35529 0.00417 0.0
Zn1 Zn 0.0356 0.38921 0.99482 0.0
C2 C 0.26234 0.3594 0.97649 0.0
O3 O 0.24208 0.34928 0.95345 0.0
C4 C 0.90905 0.38816 0.00279 0.0
O5 O 0.92688 0.39691 0.02963 0.0
O6 O 0.15716 0.33315 0.00887 0.0
O7 O 0.10065 0.36163 0.05126 0.0
O8 O 0.04838 0.38292 0.04715 0.0
C9 C 0.17033 0.32723 0.03962 0.0
O10 O 0.172 0.33566 0.06906 0.0
O11 O 0.22608 0.3645 0.00074 0.0
C12 C 0.01904 0.41799 0.96335 0.0
O13 O 0.00822 0.40964 0.9345 0.0
O14 O 0.03314 0.41171 0.99349 0.0
O15 O 0.09798 0.38279 0.95716 0.0
O16 O 0.09673 0.3582 0.9564 0.0
O17 O 0.94946 0.38264 0.98162 0.0
C18 C 0.06975 0.3721 0.06584 0.0
C19 C 0.09123 0.37063 0.93977 0.0
Zn20 Zn 0.86036 0.64446 0.99647 0.0
Zn21 Zn 0.97433 0.60787 0.98045 0.0
C22 C 0.73822 0.64336 0.97117 0.0
O23 O 0.75851 0.65488 0.95228 0.0
C24 C 0.1013 0.60578 0.98166 0.0
O25 O 0.08482 0.59591 0.00658 0.0
O26 O 0.85417 0.66608 0.01053 0.0
O27 O 0.90842 0.63254 0.03624 0.0
O28 O 0.96964 0.61245 0.03396 0.0
C29 C 0.83157 0.67101 0.04023 0.0
O30 O 0.81276 0.66151 0.06538 0.0
O31 O 0.77457 0.63656 0.99266 0.0
C32 C 0.98353 0.57841 0.94813 0.0
O33 O 0.02172 0.58519 0.92583 0.0
O34 O 0.95629 0.58595 0.97273 0.0
O35 O 0.91278 0.62165 0.96178 0.0
O36 O 0.89798 0.6445 0.94576 0.0
O37 O 0.06002 0.61288 0.96438 0.0
C38 C 0.94261 0.62278 0.05191 0.0
C39 C 0.92144 0.63196 0.93862 0.0
Zn40 Zn 0.14088 0.64033 0.49634 0.0
Zn41 Zn 0.03431 0.60654 0.49919 0.0
C42 C 0.26621 0.63629 0.50773 0.0
O43 O 0.25025 0.64517 0.53477 0.0
C44 C 0.91161 0.60826 0.47005 0.0
O45 O 0.93259 0.59783 0.44804 0.0
O46 O 0.15455 0.66262 0.4953 0.0
O47 O 0.08176 0.63631 0.45486 0.0
O48 O 0.08435 0.61171 0.45473 0.0
C49 C 0.16135 0.6691 0.46446 0.0
O50 O 0.15703 0.66118 0.43427 0.0
O51 O 0.22495 0.63168 0.48596 0.0
C52 C 0.00833 0.57817 0.53173 0.0
O53 O 0.99406 0.58681 0.55953 0.0
O54 O 0.02768 0.58409 0.50218 0.0
O55 O 0.06452 0.61362 0.54809 0.0
O56 O 0.11743 0.63484 0.54829 0.0
O57 O 0.94761 0.61412 0.4933 0.0
C58 C 0.07236 0.62397 0.43868 0.0
C59 C 0.09193 0.62403 0.56509 0.0
Zn60 Zn 0.85495 0.35147 0.50832 0.0
Zn61 Zn 0.96959 0.38819 0.52283 0.0
C62 C 0.73283 0.35366 0.53293 0.0
O63 O 0.75179 0.34242 0.55326 0.0
C64 C 0.09561 0.39116 0.52079 0.0
O65 O 0.07732 0.40078 0.49576 0.0
O66 O 0.84685 0.32979 0.49538 0.0
O67 O 0.90484 0.36298 0.46861 0.0
O68 O 0.96573 0.38315 0.46943 0.0
C69 C 0.82643 0.32464 0.46539 0.0
O70 O 0.81201 0.33392 0.43875 0.0
O71 O 0.77007 0.35985 0.51086 0.0
C72 C 0.97575 0.41794 0.55375 0.0
O73 O 0.0149 0.41157 0.57611 0.0
O74 O 0.94905 0.41004 0.52965 0.0
O75 O 0.90992 0.37401 0.54183 0.0
O76 O 0.89032 0.35161 0.55946 0.0
O77 O 0.05568 0.38386 0.53872 0.0
C78 C 0.93944 0.37248 0.45232 0.0
C79 C 0.91581 0.36396 0.56598 0.0
Zn80 Zn 0.64515 0.85484 0.00539 0.0
Zn81 Zn 0.53853 0.88879 0.99526 0.0
C82 C 0.76535 0.85919 0.97733 0.0
O83 O 0.74536 0.84889 0.95469 0.0
C84 C 0.41182 0.88825 0.00269 0.0
O85 O 0.42983 0.89697 0.02953 0.0
O86 O 0.66197 0.83276 0.01058 0.0
O87 O 0.60369 0.86121 0.05231 0.0
O88 O 0.5503 0.8823 0.04756 0.0
C89 C 0.67404 0.82692 0.04158 0.0
O90 O 0.67379 0.83536 0.071 0.0
O91 O 0.72903 0.86432 0.00151 0.0
C92 C 0.52557 0.91788 0.9643 0.0
O93 O 0.51634 0.90983 0.93473 0.0
O94 O 0.53757 0.91129 0.99437 0.0
O95 O 0.60071 0.882 0.95791 0.0
O96 O 0.59934 0.85741 0.95783 0.0
O97 O 0.45215 0.88257 0.98172 0.0
C98 C 0.57195 0.8716 0.06654 0.0
C99 C 0.59265 0.86977 0.94101 0.0
Zn100 Zn 0.36014 0.14461 0.99468 0.0
Zn101 Zn 0.47284 0.10795 0.97963 0.0
C102 C 0.23768 0.14282 0.96939 0.0
O103 O 0.25665 0.15434 0.95004 0.0
C104 C 0.59932 0.10555 0.98147 0.0
O105 O 0.58156 0.09577 0.00628 0.0
O106 O 0.35186 0.1663 0.00771 0.0
O107 O 0.40784 0.13324 0.03554 0.0
O108 O 0.46818 0.11298 0.0329 0.0
C109 C 0.33061 0.17134 0.03766 0.0
O110 O 0.31469 0.16194 0.06375 0.0
O111 O 0.27495 0.1363 0.99085 0.0
C112 C 0.48189 0.0782 0.94887 0.0
O113 O 0.51977 0.08478 0.92604 0.0
O114 O 0.45486 0.08597 0.97314 0.0
O115 O 0.41117 0.12148 0.96003 0.0
O116 O 0.39899 0.14447 0.94434 0.0
O117 O 0.5589 0.11276 0.96374 0.0
C118 C 0.44207 0.12342 0.05095 0.0
C119 C 0.42131 0.13181 0.93714 0.0
Zn120 Zn 0.64258 0.13985 0.49583 0.0
Zn121 Zn 0.5358 0.10613 0.49775 0.0
C122 C 0.76825 0.13613 0.50712 0.0
O123 O 0.75211 0.14487 0.53439 0.0
C124 C 0.41357 0.10836 0.46844 0.0
O125 O 0.43438 0.09802 0.44614 0.0
O126 O 0.65465 0.16216 0.4956 0.0
O127 O 0.58417 0.13595 0.45398 0.0
O128 O 0.58622 0.11134 0.45343 0.0
C129 C 0.66562 0.1686 0.46515 0.0
O130 O 0.66698 0.16055 0.43504 0.0
O131 O 0.72709 0.13151 0.48529 0.0
C132 C 0.50844 0.07762 0.52935 0.0
O133 O 0.4957 0.08609 0.55773 0.0
O134 O 0.52755 0.08369 0.49993 0.0
O135 O 0.56609 0.11282 0.54701 0.0
O136 O 0.61913 0.13402 0.54751 0.0
O137 O 0.44958 0.11402 0.49197 0.0
C138 C 0.5748 0.12367 0.43752 0.0
C139 C 0.59362 0.12316 0.56416 0.0
Zn140 Zn 0.35318 0.85129 0.50665 0.0
Zn141 Zn 0.47052 0.888 0.52308 0.0
C142 C 0.23059 0.85245 0.52907 0.0
O143 O 0.25062 0.84123 0.54909 0.0
C144 C 0.597 0.89205 0.52245 0.0
O145 O 0.57957 0.90169 0.49724 0.0
O146 O 0.34978 0.8297 0.49213 0.0
O147 O 0.4051 0.8637 0.46943 0.0
O148 O 0.46773 0.88349 0.46938 0.0
C149 C 0.3243 0.82477 0.46334 0.0
O150 O 0.30145 0.83427 0.43948 0.0
O151 O 0.26733 0.85901 0.50736 0.0
C152 C 0.47025 0.9178 0.55434 0.0
O153 O 0.51147 0.91208 0.5764 0.0
O154 O 0.44466 0.90945 0.53075 0.0
O155 O 0.4151 0.87255 0.5405 0.0
O156 O 0.383 0.85129 0.55935 0.0
O157 O 0.55667 0.88454 0.53945 0.0
C158 C 0.44002 0.87296 0.45255 0.0
C159 C 0.41288 0.86302 0.56605 0.0
C160 C 0.36759 0.35756 0.94979 0.0
C161 C 0.32784 0.36364 0.97618 0.0
C162 C 0.43018 0.36054 0.951 0.0
C163 C 0.55094 0.37198 0.01565 0.0
H164 H 0.64678 0.37843 0.92752 0.0
C165 C 0.80057 0.39137 0.02233 0.0
C166 C 0.84302 0.38506 0.9979 0.0
C167 C 0.73827 0.38863 0.0185 0.0
C168 C 0.62081 0.37646 0.95236 0.0
H169 H 0.32278 0.378 0.02392 0.0
H170 H 0.43188 0.38332 0.02583 0.0
H171 H 0.53681 0.37454 0.92275 0.0
H172 H 0.85284 0.37094 0.95 0.0
H173 H 0.74344 0.36604 0.94342 0.0
H174 H 0.63464 0.37387 0.04529 0.0
C175 C 0.41472 0.37605 0.00449 0.0
C176 C 0.5577 0.37426 0.94964 0.0
C177 C 0.35205 0.37309 0.00324 0.0
C178 C 0.8214 0.37597 0.9693 0.0
C179 C 0.75869 0.37323 0.96542 0.0
C180 C 0.61388 0.37417 0.01836 0.0
C181 C 0.45473 0.36965 0.97867 0.0
C182 C 0.5219 0.37208 0.9813 0.0
C183 C 0.71638 0.37948 0.99015 0.0
C184 C 0.64965 0.37655 0.9868 0.0
H185 H 0.35059 0.35023 0.92854 0.0
H186 H 0.45958 0.35531 0.93087 0.0
H187 H 0.52514 0.37 0.04055 0.0
H188 H 0.81536 0.3985 0.04458 0.0
H189 H 0.7071 0.39386 0.03764 0.0
C190 C 0.18568 0.62006 0.95059 0.0
C191 C 0.16678 0.60887 0.97529 0.0
C192 C 0.24771 0.62335 0.9463 0.0
C193 C 0.4025 0.60806 0.96348 0.0
H194 H 0.4514 0.64975 0.96224 0.0
C195 C 0.65074 0.62678 0.98923 0.0
C196 C 0.67355 0.63875 0.96822 0.0
C197 C 0.5892 0.62278 0.98715 0.0
C198 C 0.43853 0.63805 0.96203 0.0
H199 H 0.19828 0.59217 0.01427 0.0
H200 H 0.30578 0.59798 0.00701 0.0
H201 H 0.34337 0.64336 0.96293 0.0
H202 H 0.6497 0.65576 0.9281 0.0
H203 H 0.54265 0.6487 0.92429 0.0
H204 H 0.49767 0.60275 0.96308 0.0
C205 C 0.27299 0.60412 0.99065 0.0
C206 C 0.37656 0.63439 0.96238 0.0
C207 C 0.21119 0.60086 0.99498 0.0
C208 C 0.63362 0.64651 0.94478 0.0
C209 C 0.57212 0.64253 0.94273 0.0
C210 C 0.46444 0.61171 0.96314 0.0
C211 C 0.29204 0.61548 0.96649 0.0
C212 C 0.35781 0.61935 0.96351 0.0
C213 C 0.54908 0.63067 0.96404 0.0
C214 C 0.48321 0.62675 0.96279 0.0
H215 H 0.15259 0.6264 0.93491 0.0
H216 H 0.26095 0.63206 0.92716 0.0
H217 H 0.38959 0.59636 0.96374 0.0
H218 H 0.68024 0.62058 0.00762 0.0
H219 H 0.5728 0.61371 0.00428 0.0
C220 C 0.82142 0.6219 0.49638 0.0
C221 C 0.84572 0.61213 0.46996 0.0
C222 C 0.75868 0.62471 0.49786 0.0
C223 C 0.6099 0.60863 0.46988 0.0
H224 H 0.54937 0.64801 0.49547 0.0
C225 C 0.35124 0.62384 0.47233 0.0
C226 C 0.33165 0.63268 0.50196 0.0
C227 C 0.41359 0.62119 0.46651 0.0
C228 C 0.56551 0.63691 0.48857 0.0
H229 H 0.82299 0.59797 0.42373 0.0
H230 H 0.71384 0.60306 0.42594 0.0
H231 H 0.65858 0.64406 0.48825 0.0
H232 H 0.36246 0.64541 0.54906 0.0
H233 H 0.47023 0.64074 0.53906 0.0
H234 H 0.51652 0.60152 0.4703 0.0
C235 C 0.74312 0.60834 0.44598 0.0
C236 C 0.62823 0.63464 0.48447 0.0
C237 C 0.80587 0.6055 0.44455 0.0
C238 C 0.37572 0.63861 0.52584 0.0
C239 C 0.43774 0.63602 0.51996 0.0
C240 C 0.54704 0.61092 0.47388 0.0
C241 C 0.71857 0.61787 0.47288 0.0
C242 C 0.65141 0.62043 0.47547 0.0
C243 C 0.45762 0.6274 0.49007 0.0
C244 C 0.52412 0.62505 0.48373 0.0
H245 H 0.85068 0.62715 0.51649 0.0
H246 H 0.74148 0.63196 0.51926 0.0
H247 H 0.62603 0.5975 0.46338 0.0
H248 H 0.31851 0.61913 0.45339 0.0
H249 H 0.42738 0.61455 0.44311 0.0
C250 C 0.64732 0.37023 0.51205 0.0
C251 C 0.66847 0.35858 0.53466 0.0
C252 C 0.58594 0.37441 0.51264 0.0
C253 C 0.44447 0.37178 0.56785 0.0
H254 H 0.36579 0.37925 0.4744 0.0
C255 C 0.18226 0.3774 0.55079 0.0
C256 C 0.16149 0.38839 0.52612 0.0
C257 C 0.2446 0.37427 0.55376 0.0
C258 C 0.38722 0.37738 0.50077 0.0
H259 H 0.6419 0.34235 0.57611 0.0
H260 H 0.53478 0.34956 0.57685 0.0
H261 H 0.47375 0.37302 0.47596 0.0
H262 H 0.19001 0.40506 0.48618 0.0
H263 H 0.29824 0.39969 0.49163 0.0
H264 H 0.35748 0.37605 0.59257 0.0
C265 C 0.56575 0.35557 0.55894 0.0
C266 C 0.44914 0.37382 0.50166 0.0
C267 C 0.62712 0.35138 0.55834 0.0
C268 C 0.20437 0.39644 0.50526 0.0
C269 C 0.26646 0.39331 0.50821 0.0
C270 C 0.38237 0.37534 0.56695 0.0
C271 C 0.54433 0.36704 0.53585 0.0
C272 C 0.47856 0.37101 0.53519 0.0
C273 C 0.28727 0.38205 0.53208 0.0
C274 C 0.35312 0.37821 0.53338 0.0
H275 H 0.67804 0.37605 0.49361 0.0
H276 H 0.57107 0.38344 0.4949 0.0
H277 H 0.46595 0.36983 0.59416 0.0
H278 H 0.15034 0.37102 0.56727 0.0
H279 H 0.2592 0.36547 0.57226 0.0
C280 C 0.85471 0.87322 0.00346 0.0
C281 C 0.8307 0.86357 0.97676 0.0
C282 C 0.9173 0.87629 0.00455 0.0
C283 C 0.06033 0.87431 0.94972 0.0
H284 H 0.13729 0.87455 0.04536 0.0
C285 C 0.32401 0.87604 0.96941 0.0
C286 C 0.34572 0.88527 0.9977 0.0
C287 C 0.26127 0.87335 0.96556 0.0
C288 C 0.11652 0.87468 0.01843 0.0
H289 H 0.85371 0.84991 0.9296 0.0
H290 H 0.96254 0.85517 0.93166 0.0
H291 H 0.02783 0.87061 0.04078 0.0
H292 H 0.31817 0.89905 0.04382 0.0
H293 H 0.20984 0.8945 0.03692 0.0
H294 H 0.14938 0.87837 0.92744 0.0
C295 C 0.93306 0.86048 0.95161 0.0
C296 C 0.0536 0.87245 0.01581 0.0
C297 C 0.87055 0.8574 0.95056 0.0
C298 C 0.30332 0.8918 0.02181 0.0
C299 C 0.24097 0.88911 0.01801 0.0
C300 C 0.12342 0.87656 0.95235 0.0
C301 C 0.95743 0.86979 0.97894 0.0
C302 C 0.02455 0.87231 0.98146 0.0
C303 C 0.21901 0.87979 0.99001 0.0
C304 C 0.15227 0.87686 0.98678 0.0
H305 H 0.82536 0.8782 0.02399 0.0
H306 H 0.93432 0.88371 0.02561 0.0
H307 H 0.03943 0.8744 0.92283 0.0
H308 H 0.35543 0.87084 0.95036 0.0
H309 H 0.24596 0.86603 0.94382 0.0
C310 C 0.15175 0.1261 0.98924 0.0
C311 C 0.17312 0.13801 0.96748 0.0
C312 C 0.09019 0.12206 0.98862 0.0
C313 C 0.94802 0.12578 0.93441 0.0
H314 H 0.87024 0.11698 0.02756 0.0
C315 C 0.68558 0.1198 0.95212 0.0
C316 C 0.66515 0.1085 0.9761 0.0
C317 C 0.7479 0.12303 0.94914 0.0
C318 C 0.89137 0.11923 0.00124 0.0
H319 H 0.14667 0.15482 0.92747 0.0
H320 H 0.03931 0.14785 0.92667 0.0
H321 H 0.9783 0.12307 0.02593 0.0
H322 H 0.69433 0.09142 0.01475 0.0
H323 H 0.80236 0.09695 0.00925 0.0
H324 H 0.86065 0.122 0.90982 0.0
C325 C 0.07021 0.14154 0.94394 0.0
C326 C 0.9534 0.1227 0.00031 0.0
C327 C 0.13176 0.14559 0.94458 0.0
C328 C 0.70837 0.10028 0.99624 0.0
C329 C 0.7704 0.10351 0.99327 0.0
C330 C 0.88581 0.1223 0.93534 0.0
C331 C 0.04856 0.12982 0.96622 0.0
C332 C 0.98257 0.12598 0.9669 0.0
C333 C 0.79092 0.11505 0.97011 0.0
C334 C 0.85683 0.11893 0.96878 0.0
H335 H 0.18243 0.11998 0.00707 0.0
H336 H 0.07519 0.11283 0.00571 0.0
H337 H 0.96923 0.1281 0.90816 0.0
H338 H 0.65342 0.12632 0.9362 0.0
H339 H 0.76221 0.13206 0.93119 0.0
C340 C 0.32356 0.12196 0.4951 0.0
C341 C 0.34777 0.11231 0.46839 0.0
C342 C 0.26085 0.1248 0.49667 0.0
C343 C 0.11207 0.10885 0.4684 0.0
H344 H 0.05146 0.1481 0.49506 0.0
C345 C 0.85342 0.12391 0.47138 0.0
C346 C 0.83375 0.13263 0.50121 0.0
C347 C 0.91579 0.12133 0.46547 0.0
C348 C 0.06762 0.13703 0.48786 0.0
H349 H 0.32492 0.0984 0.42173 0.0
H350 H 0.21581 0.10353 0.42411 0.0
H351 H 0.16068 0.1442 0.48765 0.0
H352 H 0.86444 0.14522 0.54856 0.0
H353 H 0.97227 0.14067 0.5384 0.0
H354 H 0.01874 0.10171 0.46874 0.0
C355 C 0.24514 0.1087 0.4443 0.0
C356 C 0.13034 0.13479 0.48365 0.0
C357 C 0.30786 0.10584 0.44277 0.0
C358 C 0.87777 0.13852 0.52518 0.0
C359 C 0.93982 0.136 0.51922 0.0
C360 C 0.04922 0.11111 0.47252 0.0
C361 C 0.22068 0.11809 0.47151 0.0
C362 C 0.15353 0.12063 0.47424 0.0
C363 C 0.95976 0.12749 0.48914 0.0
C364 C 0.02627 0.12519 0.48275 0.0
H365 H 0.35288 0.12709 0.51537 0.0
H366 H 0.2437 0.13195 0.51829 0.0
H367 H 0.12823 0.09774 0.46161 0.0
H368 H 0.82073 0.11923 0.45236 0.0
H369 H 0.92962 0.11479 0.44193 0.0
C370 C 0.68188 0.87834 0.55401 0.0
C371 C 0.66258 0.88931 0.52888 0.0
C372 C 0.74385 0.87505 0.55791 0.0
C373 C 0.89874 0.88956 0.53802 0.0
H374 H 0.94379 0.84759 0.53965 0.0
C375 C 0.14417 0.86914 0.51022 0.0
C376 C 0.16625 0.85726 0.53178 0.0
C377 C 0.08311 0.87351 0.51259 0.0
C378 C 0.93199 0.85936 0.53973 0.0
H379 H 0.69324 0.90575 0.48897 0.0
H380 H 0.80097 0.89992 0.49554 0.0
H381 H 0.83648 0.85458 0.54008 0.0
H382 H 0.14174 0.84077 0.57307 0.0
H383 H 0.03546 0.84846 0.57734 0.0
H384 H 0.99438 0.89431 0.53713 0.0
C385 C 0.76842 0.89395 0.51249 0.0
C386 C 0.87047 0.86337 0.54004 0.0
C387 C 0.70657 0.89723 0.50857 0.0
C388 C 0.12613 0.84992 0.55594 0.0
C389 C 0.06513 0.85428 0.55829 0.0
C390 C 0.9603 0.88554 0.53769 0.0
C391 C 0.78773 0.88269 0.53683 0.0
C392 C 0.85313 0.87851 0.53887 0.0
C393 C 0.04286 0.86608 0.53653 0.0
C394 C 0.97759 0.8704 0.53824 0.0
H395 H 0.64911 0.8721 0.5702 0.0
H396 H 0.75738 0.86646 0.57727 0.0
H397 H 0.88684 0.90132 0.53761 0.0
H398 H 0.1739 0.87501 0.49129 0.0
H399 H 0.06716 0.88252 0.49513 0.0
C400 C 0.99621 0.55395 0.91593 0.0
C401 C 0.97755 0.56195 0.94707 0.0
C402 C 0.99562 0.53831 0.91601 0.0
C403 C 0.93899 0.5051 0.96857 0.0
H404 H 0.07286 0.48523 0.91895 0.0
C405 C 0.00565 0.44309 0.99268 0.0
C406 C 0.01314 0.43443 0.96087 0.0
C407 C 0.99837 0.4586 0.99011 0.0
C408 C 0.03502 0.49064 0.9327 0.0
H409 H 0.94264 0.55989 0.00251 0.0
H410 H 0.94371 0.53268 0.00326 0.0
H411 H 0.06437 0.51237 0.91589 0.0
H412 H 0.01962 0.4352 0.90151 0.0
H413 H 0.00843 0.46238 0.89717 0.0
H414 H 0.91142 0.48323 0.98648 0.0
C415 C 0.95726 0.53839 0.97832 0.0
C416 C 0.02979 0.5062 0.93078 0.0
C417 C 0.95689 0.55403 0.97799 0.0
C418 C 0.01385 0.44159 0.92649 0.0
C419 C 0.00766 0.45712 0.92399 0.0
C420 C 0.94486 0.48954 0.97095 0.0
C421 C 0.97739 0.53031 0.94749 0.0
C422 C 0.9817 0.51366 0.94869 0.0
C423 C 0.99954 0.46575 0.95575 0.0
C424 C 0.99293 0.48219 0.95304 0.0
H425 H 0.01183 0.55977 0.89156 0.0
H426 H 0.00999 0.53252 0.89143 0.0
H427 H 0.90074 0.51037 0.98216 0.0
H428 H 0.00463 0.43786 0.01952 0.0
H429 H 0.9926 0.46504 0.015 0.0
C430 C 0.94869 0.44198 0.52244 0.0
C431 C 0.96839 0.43436 0.55402 0.0
C432 C 0.94829 0.45762 0.52138 0.0
C433 C 0.01709 0.49035 0.56868 0.0
H434 H 0.90164 0.51264 0.50937 0.0
C435 C 0.99841 0.55493 0.56955 0.0
C436 C 1.00135 0.56178 0.53485 0.0
C437 C 0.99197 0.53942 0.57266 0.0
C438 C 0.93423 0.50651 0.52592 0.0
H439 H 0.99996 0.43707 0.60989 0.0
H440 H 0.99653 0.4643 0.60876 0.0
H441 H 0.89149 0.48551 0.51484 0.0
H442 H 0.99884 0.55783 0.4762 0.0
H443 H 0.98617 0.53069 0.48174 0.0
H444 H 0.05864 0.5115 0.5804 0.0
C445 C 0.98366 0.45828 0.58423 0.0
C446 C 0.9287 0.49097 0.52897 0.0
C447 C 0.98512 0.44266 0.58504 0.0
C448 C 0.99701 0.55284 0.5033 0.0
C449 C 0.98939 0.53736 0.50643 0.0
C450 C 0.0219 0.5059 0.56613 0.0
C451 C 0.96659 0.466 0.55211 0.0
C452 C 0.97039 0.48264 0.55016 0.0
C453 C 0.98717 0.53052 0.54114 0.0
C454 C 0.98085 0.51409 0.5445 0.0
H455 H 0.93597 0.43587 0.49799 0.0
H456 H 0.93569 0.46309 0.49596 0.0
H457 H 0.05096 0.48437 0.58456 0.0
H458 H 1.00174 0.56153 0.59435 0.0
H459 H 0.99013 0.53439 0.59972 0.0
C460 C 0.50972 0.94258 0.99505 0.0
C461 C 0.51929 0.93433 0.96283 0.0
C462 C 0.50148 0.95808 0.99346 0.0
C463 C 0.46516 0.98902 0.92808 0.0
H464 H 0.52936 0.01383 0.0061 0.0
C465 C 0.49625 0.05335 0.91863 0.0
C466 C 0.47623 0.06172 0.94893 0.0
C467 C 0.496 0.03772 0.9199 0.0
C468 C 0.5107 0.00701 0.98431 0.0
H469 H 0.52895 0.93584 0.90376 0.0
H470 H 0.51722 0.96291 0.90103 0.0
H471 H 0.54241 0.98678 0.00913 0.0
H472 H 0.43905 0.06029 0.00402 0.0
H473 H 0.43975 0.03294 0.0064 0.0
H474 H 0.43569 0.00947 0.90271 0.0
C475 C 0.514 0.95742 0.92749 0.0
C476 C 0.51793 0.99149 0.98605 0.0
C477 C 0.52125 0.9419 0.92904 0.0
C478 C 0.4546 0.05415 0.98019 0.0
C479 C 0.45532 0.03852 0.98167 0.0
C480 C 0.45882 0.00457 0.92608 0.0
C481 C 0.5036 0.96573 0.95965 0.0
C482 C 0.4953 0.98227 0.95795 0.0
C483 C 0.47665 0.03018 0.9517 0.0
C484 C 0.48151 0.01369 0.95419 0.0
H485 H 0.50734 0.93703 0.02147 0.0
H486 H 0.49248 0.96401 0.01875 0.0
H487 H 0.44599 0.98231 0.90628 0.0
H488 H 0.51304 0.05888 0.89414 0.0
H489 H 0.51295 0.03153 0.8965 0.0
C490 C 0.49727 0.05408 0.56587 0.0
C491 C 0.4996 0.06126 0.5316 0.0
C492 C 0.48873 0.03862 0.56817 0.0
C493 C 0.49721 0.00393 0.51193 0.0
H494 H 0.40985 0.98685 0.59464 0.0
C495 C 0.43778 0.94115 0.52175 0.0
C496 C 0.4604 0.93416 0.55353 0.0
C497 C 0.43607 0.95675 0.51917 0.0
C498 C 0.43428 0.99151 0.57142 0.0
H499 H 0.49353 0.05799 0.47285 0.0
H500 H 0.47609 0.03111 0.47677 0.0
H501 H 0.41924 0.01398 0.58912 0.0
H502 H 0.49594 0.93796 0.60819 0.0
H503 H 0.49133 0.96527 0.60396 0.0
H504 H 0.51083 0.98136 0.49398 0.0
C505 C 0.4829 0.03728 0.50195 0.0
C506 C 0.44017 0.00704 0.56833 0.0
C507 C 0.49259 0.05271 0.49965 0.0
C508 C 0.47842 0.94305 0.58334 0.0
C509 C 0.47562 0.95865 0.58099 0.0
C510 C 0.49033 0.98843 0.51471 0.0
C511 C 0.48114 0.02999 0.53625 0.0
C512 C 0.47238 0.01347 0.53876 0.0
C513 C 0.45579 0.96563 0.54857 0.0
C514 C 0.45938 0.98208 0.54466 0.0
H515 H 0.50298 0.06039 0.59097 0.0
H516 H 0.48902 0.03343 0.59504 0.0
H517 H 0.52334 0.00837 0.48916 0.0
H518 H 0.4238 0.9346 0.49827 0.0
H519 H 0.42027 0.9619 0.49397 0.0
C520 C 0.19984 0.30308 0.00994 0.0
C521 C 0.18666 0.3112 0.04193 0.0
C522 C 0.21792 0.28812 0.01216 0.0
C523 C 0.21004 0.25464 0.06958 0.0
H524 H 0.35154 0.24208 0.0137 0.0
C525 C 0.30059 0.19374 0.0751 0.0
C526 C 0.31977 0.1876 0.04157 0.0
C527 C 0.28786 0.20906 0.07789 0.0
C528 C 0.31154 0.24534 0.02918 0.0
H529 H 0.18086 0.30994 0.10128 0.0
H530 H 0.21158 0.28365 0.10502 0.0
H531 H 0.32043 0.26825 0.01266 0.0
H532 H 0.34079 0.19274 0.9847 0.0
H533 H 0.31728 0.21916 0.98927 0.0
H534 H 0.1998 0.23167 0.08519 0.0
C535 C 0.20818 0.28893 0.07832 0.0
C536 C 0.29389 0.26035 0.02863 0.0
C537 C 0.19085 0.30397 0.07614 0.0
C538 C 0.32655 0.1971 0.01105 0.0
C539 C 0.3134 0.21233 0.01374 0.0
C540 C 0.22729 0.23956 0.06981 0.0
C541 C 0.22249 0.28092 0.04636 0.0
C542 C 0.2426 0.26511 0.04848 0.0
C543 C 0.29372 0.21852 0.04713 0.0
C544 C 0.27784 0.2347 0.04922 0.0
H545 H 0.19713 0.30833 0.98317 0.0
H546 H 0.22805 0.28214 0.98707 0.0
H547 H 0.17009 0.25802 0.08497 0.0
H548 H 0.29514 0.18672 0.09916 0.0
H549 H 0.27357 0.21348 0.10415 0.0
C550 C 0.69287 0.80369 0.07852 0.0
C551 C 0.69096 0.81094 0.04426 0.0
C552 C 0.71046 0.78867 0.08108 0.0
C553 C 0.80022 0.7602 0.03372 0.0
H554 H 0.70104 0.73137 0.08653 0.0
C555 C 0.83219 0.697 0.01487 0.0
C556 C 0.82207 0.6873 0.04468 0.0
C557 C 0.81984 0.71226 0.01786 0.0
C558 C 0.72995 0.7393 0.07226 0.0
H559 H 0.70596 0.80815 0.98583 0.0
H560 H 0.73738 0.78201 0.99043 0.0
H561 H 0.67173 0.75774 0.08608 0.0
H562 H 0.79255 0.6861 0.10139 0.0
H563 H 0.77238 0.7129 0.10697 0.0
H564 H 0.85885 0.74194 0.02012 0.0
C565 C 0.72521 0.78795 0.01525 0.0
C566 C 0.71293 0.75439 0.07188 0.0
C567 C 0.70684 0.80287 0.01262 0.0
C568 C 0.80058 0.69328 0.07788 0.0
C569 C 0.78866 0.70862 0.08099 0.0
C570 C 0.81765 0.74517 0.03445 0.0
C571 C 0.72734 0.78072 0.0495 0.0
C572 C 0.74733 0.76492 0.05204 0.0
C573 C 0.79764 0.71828 0.05087 0.0
C574 C 0.7821 0.73447 0.0531 0.0
H575 H 0.68079 0.80961 0.10338 0.0
H576 H 0.71194 0.78336 0.10782 0.0
H577 H 0.82812 0.76814 0.01875 0.0
H578 H 0.84832 0.69278 0.98878 0.0
H579 H 0.8262 0.71925 0.99385 0.0
C580 C 0.17458 0.69288 0.42887 0.0
C581 C 0.17733 0.68515 0.46248 0.0
C582 C 0.19201 0.7079 0.42664 0.0
C583 C 0.28893 0.73562 0.47129 0.0
H584 H 0.18572 0.76507 0.42373 0.0
C585 C 0.32859 0.79873 0.48833 0.0
C586 C 0.31474 0.80847 0.45916 0.0
C587 C 0.31508 0.78351 0.48603 0.0
C588 C 0.2157 0.75696 0.4365 0.0
H589 H 0.20023 0.68713 0.52014 0.0
H590 H 0.2313 0.71333 0.51609 0.0
H591 H 0.15449 0.73886 0.42518 0.0
H592 H 0.27777 0.80975 0.40412 0.0
H593 H 0.25566 0.78303 0.39964 0.0
H594 H 0.3506 0.75354 0.48229 0.0
C595 C 0.21564 0.70774 0.49152 0.0
C596 C 0.19757 0.74196 0.43748 0.0
C597 C 0.19747 0.69278 0.49387 0.0
C598 C 0.28872 0.80255 0.42714 0.0
C599 C 0.27566 0.78725 0.42469 0.0
C600 C 0.30743 0.75056 0.46995 0.0
C601 C 0.21331 0.71542 0.45786 0.0
C602 C 0.2336 0.7312 0.45536 0.0
C603 C 0.28795 0.77757 0.45433 0.0
C604 C 0.27061 0.76148 0.45305 0.0
H605 H 0.15917 0.68731 0.40421 0.0
H606 H 0.19004 0.71355 0.40033 0.0
H607 H 0.31808 0.72748 0.4847 0.0
H608 H 0.34832 0.80291 0.51352 0.0
H609 H 0.32426 0.7765 0.50967 0.0
C610 C 0.81742 0.29925 0.49366 0.0
C611 C 0.81329 0.30845 0.46239 0.0
C612 C 0.80066 0.28422 0.49204 0.0
C613 C 0.78022 0.25241 0.43074 0.0
H614 H 0.67252 0.23784 0.5074 0.0
C615 C 0.68295 0.19228 0.42978 0.0
C616 C 0.67907 0.1848 0.46367 0.0
C617 C 0.69724 0.20751 0.42827 0.0
C618 C 0.70321 0.24165 0.48604 0.0
H619 H 0.7902 0.30893 0.40457 0.0
H620 H 0.76163 0.28244 0.40167 0.0
H621 H 0.70335 0.26402 0.50687 0.0
H622 H 0.68742 0.18741 0.52257 0.0
H623 H 0.71377 0.21384 0.51997 0.0
H624 H 0.78148 0.22998 0.41039 0.0
C625 C 0.77758 0.28699 0.42743 0.0
C626 C 0.72065 0.25667 0.48568 0.0
C627 C 0.79377 0.30214 0.42913 0.0
C628 C 0.68959 0.19288 0.49603 0.0
C629 C 0.70439 0.20807 0.49452 0.0
C630 C 0.76326 0.23733 0.43128 0.0
C631 C 0.77994 0.27798 0.45906 0.0
C632 C 0.7597 0.26217 0.45822 0.0
C633 C 0.70845 0.21559 0.46062 0.0
C634 C 0.72489 0.23173 0.45913 0.0
H635 H 0.83235 0.30372 0.51973 0.0
H636 H 0.80375 0.27746 0.5167 0.0
H637 H 0.81074 0.25636 0.40942 0.0
H638 H 0.67479 0.18638 0.40434 0.0
H639 H 0.69901 0.21297 0.40174 0.0
C640 C 0.03946 0.38442 0.12462 0.0
C641 C 0.05624 0.37142 0.10557 0.0
C642 C 0.02471 0.38375 0.16186 0.0
C643 C 0.03739 0.3593 0.24457 0.0
H644 H 0.91491 0.38657 0.28223 0.0
C645 C 0.94123 0.35779 0.39373 0.0
C646 C 0.948 0.37149 0.41218 0.0
C647 C 0.95157 0.35692 0.35589 0.0
C648 C 0.94911 0.37888 0.27199 0.0
H649 H 0.07012 0.34747 0.11053 0.0
H650 H 0.04232 0.34618 0.17515 0.0
H651 H 0.93818 0.38651 0.21685 0.0
H652 H 0.96939 0.39505 0.40541 0.0
H653 H 0.98567 0.39357 0.3393 0.0
H654 H 0.04681 0.3515 0.30002 0.0
C655 C 0.04226 0.357 0.16171 0.0
C656 C 0.96295 0.37892 0.2346 0.0
C657 C 0.05803 0.35772 0.12457 0.0
C658 C 0.96409 0.38432 0.392 0.0
C659 C 0.97311 0.38351 0.35418 0.0
C660 C 0.02266 0.35909 0.2819 0.0
C661 C 0.02522 0.37001 0.18087 0.0
C662 C 0.0081 0.36932 0.22044 0.0
C663 C 0.9674 0.3698 0.33585 0.0
C664 C 0.97914 0.36905 0.29597 0.0
H665 H 0.0381 0.39517 0.11081 0.0
H666 H 0.01337 0.39408 0.17575 0.0
H667 H 0.07295 0.35189 0.2349 0.0
H668 H 0.9291 0.34771 0.40863 0.0
H669 H 0.94682 0.34624 0.34222 0.0
C670 C 0.93633 0.63609 0.1125 0.0
C671 C 0.95072 0.62321 0.0922 0.0
C672 C 0.94658 0.63649 0.15039 0.0
C673 C 0.03592 0.61716 0.22294 0.0
H674 H 0.92554 0.63756 0.28929 0.0
C675 C 0.05291 0.61064 0.37949 0.0
C676 C 0.05288 0.62398 0.39982 0.0
C677 C 0.03754 0.61077 0.34233 0.0
C678 C 0.95687 0.6319 0.27098 0.0
H679 H 0.98502 0.60046 0.09601 0.0
H680 H 1.00102 0.601 0.16178 0.0
H681 H 0.90392 0.63738 0.22349 0.0
H682 H 0.03449 0.64784 0.39736 0.0
H683 H 0.00713 0.64799 0.33242 0.0
H684 H 0.08818 0.61147 0.27048 0.0
C685 C 0.98372 0.61099 0.14848 0.0
C686 C 0.94469 0.63184 0.23331 0.0
C687 C 0.97416 0.61065 0.1107 0.0
C688 C 0.03532 0.63738 0.38243 0.0
C689 C 0.01932 0.63747 0.34532 0.0
C690 C 0.04766 0.61709 0.26053 0.0
C691 C 0.9709 0.62397 0.16879 0.0
C692 C 0.98396 0.6244 0.20883 0.0
C693 C 0.02116 0.6242 0.32481 0.0
C694 C 0.00819 0.6244 0.28494 0.0
H695 H 0.91842 0.64597 0.09902 0.0
H696 H 0.93672 0.64673 0.16507 0.0
H697 H 0.06803 0.61164 0.2049 0.0
H698 H 0.06581 0.60011 0.39208 0.0
H699 H 0.03862 0.60035 0.32724 0.0
C700 C 0.98399 0.64223 0.88697 0.0
C701 C 0.95978 0.62984 0.90579 0.0
C702 C 0.01228 0.64038 0.85291 0.0
C703 C 1.00361 0.61542 0.77413 0.0
H704 H 0.14048 0.63853 0.73752 0.0
C705 C 0.07913 0.61026 0.62436 0.0
C706 C 0.09174 0.62368 0.60568 0.0
C707 C 0.07392 0.61002 0.66249 0.0
C708 C 0.10199 0.63206 0.74731 0.0
H709 H 0.94695 0.60587 0.90425 0.0
H710 H 0.99788 0.6025 0.84524 0.0
H711 H 0.1135 0.6397 0.8026 0.0
H712 H 0.11136 0.64729 0.61254 0.0
H713 H 0.10063 0.64697 0.67921 0.0
H714 H 0.99038 0.60816 0.71903 0.0
C715 C 0.9949 0.61365 0.85669 0.0
C716 C 0.08669 0.6327 0.78457 0.0
C717 C 0.96664 0.61552 0.89072 0.0
C718 C 0.1015 0.63677 0.62614 0.0
C719 C 0.09569 0.63656 0.66438 0.0
C720 C 0.01868 0.61483 0.737 0.0
C721 C 0.01643 0.62612 0.83691 0.0
C722 C 0.03693 0.62449 0.79829 0.0
C723 C 0.08057 0.62323 0.68293 0.0
C724 C 0.06768 0.62324 0.723 0.0
H725 H 0.9791 0.65342 0.89794 0.0
H726 H 0.02783 0.65023 0.83824 0.0
H727 H 0.96419 0.60921 0.7836 0.0
H728 H 0.07264 0.59991 0.60948 0.0
H729 H 0.06375 0.59948 0.67592 0.0
C730 C 0.97331 0.35338 0.61904 0.0
C731 C 0.95371 0.36592 0.59899 0.0
C732 C 1.00091 0.35512 0.65322 0.0
C733 C 1.00274 0.38167 0.72995 0.0
H734 H 0.12174 0.35391 0.76964 0.0
C735 C 0.08496 0.38459 0.88013 0.0
C736 C 0.08446 0.37092 0.89935 0.0
C737 C 0.07749 0.38492 0.8421 0.0
C738 C 0.08841 0.36172 0.7589 0.0
H739 H 0.94824 0.39004 0.59856 0.0
H740 H 0.99899 0.39325 0.65767 0.0
H741 H 0.09743 0.35325 0.70431 0.0
H742 H 0.07714 0.34682 0.89342 0.0
H743 H 0.06424 0.34742 0.82698 0.0
H744 H 0.99325 0.39001 0.78462 0.0
C745 C 0.99252 0.38204 0.64719 0.0
C746 C 0.07445 0.36135 0.72152 0.0
C747 C 0.96455 0.38026 0.61304 0.0
C748 C 0.07762 0.35755 0.87952 0.0
C749 C 0.07063 0.35788 0.84143 0.0
C750 C 0.01705 0.38211 0.76724 0.0
C751 C 0.00949 0.36946 0.66816 0.0
C752 C 0.03047 0.37111 0.70672 0.0
C753 C 0.07 0.37158 0.82237 0.0
C754 C 0.05909 0.37194 0.78224 0.0
H755 H 0.96523 0.34216 0.60895 0.0
H756 H 0.01253 0.34516 0.66872 0.0
H757 H 0.96789 0.38918 0.71972 0.0
H758 H 0.09118 0.39508 0.89441 0.0
H759 H 0.07786 0.39563 0.82808 0.0
C760 C 0.54061 0.88399 0.12502 0.0
C761 C 0.55771 0.87097 0.10617 0.0
C762 C 0.52519 0.88337 0.16216 0.0
C763 C 0.5363 0.85899 0.24511 0.0
H764 H 0.41406 0.8865 0.28199 0.0
C765 C 0.43933 0.85812 0.39418 0.0
C766 C 0.4475 0.87183 0.41237 0.0
C767 C 0.44925 0.8571 0.35631 0.0
C768 C 0.44813 0.87874 0.27195 0.0
H769 H 0.57138 0.84702 0.11137 0.0
H770 H 0.54237 0.84581 0.1758 0.0
H771 H 0.43797 0.88627 0.21669 0.0
H772 H 0.47066 0.89527 0.40512 0.0
H773 H 0.4861 0.89353 0.33898 0.0
H774 H 0.54497 0.8513 0.30069 0.0
C775 C 0.54261 0.85661 0.1623 0.0
C776 C 0.46237 0.87868 0.23462 0.0
C777 C 0.55909 0.85729 0.12527 0.0
C778 C 0.4643 0.88453 0.39191 0.0
C779 C 0.47285 0.88358 0.35407 0.0
C780 C 0.52115 0.85887 0.28239 0.0
C781 C 0.52529 0.86965 0.18127 0.0
C782 C 0.50753 0.86901 0.22075 0.0
C783 C 0.46597 0.86984 0.33601 0.0
C784 C 0.47773 0.86892 0.29616 0.0
H785 H 0.53957 0.89473 0.11112 0.0
H786 H 0.51367 0.89372 0.17591 0.0
H787 H 0.57184 0.85152 0.23568 0.0
H788 H 0.42657 0.84815 0.4093 0.0
H789 H 0.4436 0.8464 0.34284 0.0
C790 C 0.4749 0.11128 0.10949 0.0
C791 C 0.4512 0.12386 0.09117 0.0
C792 C 0.48521 0.11161 0.1472 0.0
C793 C 0.44746 0.13236 0.23232 0.0
H794 H 0.59099 0.11179 0.26877 0.0
C795 C 0.53841 0.13732 0.38146 0.0
C796 C 0.55574 0.12384 0.39858 0.0
C797 C 0.52257 0.13757 0.34433 0.0
C798 C 0.55047 0.11748 0.25902 0.0
H799 H 0.41934 0.14665 0.09825 0.0
H800 H 0.43891 0.14737 0.16419 0.0
H801 H 0.57035 0.11216 0.20324 0.0
H802 H 0.56858 0.1 0.3903 0.0
H803 H 0.54167 0.10051 0.3254 0.0
H804 H 0.42876 0.13793 0.28844 0.0
C805 C 0.4484 0.13713 0.14941 0.0
C806 C 0.53845 0.11766 0.22146 0.0
C807 C 0.43742 0.13675 0.11158 0.0
C808 C 0.55582 0.11059 0.37793 0.0
C809 C 0.54063 0.11087 0.34074 0.0
C810 C 0.45992 0.13231 0.26996 0.0
C811 C 0.47289 0.12458 0.16762 0.0
C812 C 0.48644 0.12495 0.20761 0.0
C813 C 0.52436 0.12438 0.32351 0.0
C814 C 0.51124 0.12473 0.28366 0.0
H815 H 0.48534 0.10109 0.09472 0.0
H816 H 0.50264 0.1016 0.16036 0.0
H817 H 0.40666 0.13795 0.22271 0.0
H818 H 0.53757 0.14772 0.39664 0.0
H819 H 0.51048 0.14814 0.33167 0.0
C820 C 0.48482 0.1418 0.88558 0.0
C821 C 0.45987 0.12952 0.90446 0.0
C822 C 0.51331 0.13981 0.85162 0.0
C823 C 0.50418 0.11473 0.77308 0.0
H824 H 0.64236 0.13742 0.73668 0.0
C825 C 0.58004 0.10936 0.62336 0.0
C826 C 0.59338 0.12276 0.60475 0.0
C827 C 0.57471 0.10911 0.66149 0.0
C828 C 0.60351 0.13107 0.74641 0.0
H829 H 0.44611 0.10557 0.90317 0.0
H830 H 0.49732 0.10196 0.84435 0.0
H831 H 0.61497 0.13875 0.80167 0.0
H832 H 0.61414 0.14631 0.61176 0.0
H833 H 0.60322 0.14597 0.67839 0.0
H834 H 0.49099 0.10745 0.718 0.0
C835 C 0.49472 0.11314 0.85566 0.0
C836 C 0.58797 0.1318 0.78362 0.0
C837 C 0.46626 0.11515 0.88958 0.0
C838 C 0.60373 0.1358 0.62529 0.0
C839 C 0.59781 0.13558 0.66352 0.0
C840 C 0.51948 0.11405 0.73599 0.0
C841 C 0.51695 0.12551 0.8358 0.0
C842 C 0.53772 0.12374 0.79726 0.0
C843 C 0.58198 0.12228 0.682 0.0
C844 C 0.56894 0.12232 0.72206 0.0
H845 H 0.48033 0.15303 0.89638 0.0
H846 H 0.52942 0.14959 0.83689 0.0
H847 H 0.46441 0.10864 0.7825 0.0
H848 H 0.57306 0.09904 0.60842 0.0
H849 H 0.56395 0.09859 0.67487 0.0
C850 C 0.46538 0.87863 0.61322 0.0
C851 C 0.44768 0.86451 0.60043 0.0
C852 C 0.4921 0.88015 0.64784 0.0
C853 C 0.56316 0.85854 0.72404 0.0
H854 H 0.49469 0.88976 0.78521 0.0
C855 C 0.57188 0.85646 0.88188 0.0
C856 C 0.58321 0.86986 0.90079 0.0
C857 C 0.56289 0.85656 0.84395 0.0
C858 C 0.515 0.88112 0.76837 0.0
H859 H 0.44542 0.8408 0.61325 0.0
H860 H 0.49116 0.8434 0.6736 0.0
H861 H 0.46842 0.88879 0.72036 0.0
H862 H 0.5955 0.89383 0.89442 0.0
H863 H 0.57922 0.894 0.82831 0.0
H864 H 0.60837 0.85064 0.77239 0.0
C865 C 0.4855 0.85334 0.65685 0.0
C866 C 0.50009 0.88059 0.73115 0.0
C867 C 0.45881 0.85185 0.62234 0.0
C868 C 0.58588 0.88334 0.88084 0.0
C869 C 0.57665 0.88345 0.84293 0.0
C870 C 0.57793 0.85905 0.76128 0.0
C871 C 0.50142 0.86753 0.67032 0.0
C872 C 0.52311 0.86912 0.7087 0.0
C873 C 0.56493 0.87007 0.82407 0.0
C874 C 0.55315 0.87019 0.78399 0.0
H875 H 0.45597 0.88854 0.59715 0.0
H876 H 0.50421 0.89124 0.65732 0.0
H877 H 0.58246 0.84971 0.70735 0.0
H878 H 0.56947 0.84588 0.89639 0.0
H879 H 0.55313 0.84609 0.83027 0.0
loop_
_geom_bond_atom_site_label_1
_geom_bond_atom_site_label_2
_geom_bond_distance
_geom_bond_site_symmetry_2
_ccdc_geom_bond_type
Zn0 O6 1.969 . S
Zn0 O7 1.965 1_556 S
Zn0 O11 2.024 1_556 S
Zn0 O16 1.969 . S
Zn1 O8 1.969 1_655 S
Zn1 O14 1.969 1_655 S
Zn1 O15 1.965 1_654 S
Zn1 O17 2.024 1_554 S
C2 O3 1.229 . S
C2 O11 1.058 1_556 S
O3 C2 1.229 . S
C4 O5 1.229 . S
C4 O17 1.058 1_554 S
O5 C4 1.229 . S
O6 Zn0 1.969 . S
O6 C9 1.267 1_556 S
O7 Zn0 1.965 1_554 S
O7 C18 1.260 . S
O8 Zn1 1.969 1_455 S
O8 C18 1.258 . S
C9 O6 1.267 1_554 S
C9 O10 1.228 . S
O10 C9 1.228 . S
O11 Zn0 2.024 1_554 S
O11 C2 1.058 1_554 S
C12 O13 1.228 . S
C12 O14 1.267 1_656 S
O13 C12 1.228 . S
O14 Zn1 1.969 1_455 S
O14 C12 1.267 1_454 S
O15 Zn1 1.965 1_456 S
O15 C19 1.260 . S
O16 Zn0 1.969 . S
O16 C19 1.258 . S
O17 Zn1 2.024 1_556 S
O17 C4 1.058 1_556 S
C18 O7 1.260 . S
C18 O8 1.258 . S
C19 O15 1.260 . S
C19 O16 1.258 . S
Zn20 O26 1.969 . S
Zn20 O27 1.965 1_556 S
Zn20 O31 2.024 1_556 S
Zn20 O36 1.969 . S
Zn21 O28 1.969 1_455 S
Zn21 O34 1.969 1_455 S
Zn21 O35 1.965 1_454 S
Zn21 O37 2.024 1_554 S
C22 O23 1.229 . S
C22 O31 1.058 1_556 S
O23 C22 1.229 . S
C24 O25 1.229 . S
C24 O37 1.058 1_554 S
O25 C24 1.229 . S
O26 Zn20 1.969 . S
O26 C29 1.267 1_556 S
O27 Zn20 1.965 1_554 S
O27 C38 1.260 . S
O28 Zn21 1.969 1_655 S
O28 C38 1.258 . S
C29 O26 1.267 1_554 S
C29 O30 1.228 . S
O30 C29 1.228 . S
O31 Zn20 2.024 1_554 S
O31 C22 1.058 1_554 S
C32 O33 1.228 . S
C32 O34 1.267 1_456 S
O33 C32 1.228 . S
O34 Zn21 1.969 1_655 S
O34 C32 1.267 1_654 S
O35 Zn21 1.965 1_656 S
O35 C39 1.260 . S
O36 Zn20 1.969 . S
O36 C39 1.258 . S
O37 Zn21 2.024 1_556 S
O37 C24 1.058 1_556 S
C38 O27 1.260 . S
C38 O28 1.258 . S
C39 O35 1.260 . S
C39 O36 1.258 . S
Zn40 O46 1.969 . S
Zn40 O47 1.965 . S
Zn40 O51 2.024 . S
Zn40 O56 1.969 . S
Zn41 O48 1.969 1_655 S
Zn41 O54 1.969 1_655 S
Zn41 O55 1.965 1_655 S
Zn41 O57 2.024 . S
C42 O43 1.229 . S
C42 O51 1.058 . S
O43 C42 1.229 . S
C44 O45 1.229 . S
C44 O57 1.058 . S
O45 C44 1.229 . S
O46 Zn40 1.969 . S
O46 C49 1.267 . S
O47 Zn40 1.965 . S
O47 C58 1.260 . S
O48 Zn41 1.969 1_455 S
O48 C58 1.258 . S
C49 O46 1.267 . S
C49 O50 1.228 . S
O50 C49 1.228 . S
O51 Zn40 2.024 . S
O51 C42 1.058 . S
C52 O53 1.228 . S
C52 O54 1.267 1_655 S
O53 C52 1.228 . S
O54 Zn41 1.969 1_455 S
O54 C52 1.267 1_455 S
O55 Zn41 1.965 1_455 S
O55 C59 1.260 . S
O56 Zn40 1.969 . S
O56 C59 1.258 . S
O57 Zn41 2.024 . S
O57 C44 1.058 . S
C58 O47 1.260 . S
C58 O48 1.258 . S
C59 O55 1.260 . S
C59 O56 1.258 . S
Zn60 O66 1.969 . S
Zn60 O67 1.965 . S
Zn60 O71 2.024 . S
Zn60 O76 1.969 . S
Zn61 O68 1.969 1_455 S
Zn61 O74 1.969 1_455 S
Zn61 O75 1.965 1_455 S
Zn61 O77 2.024 . S
C62 O63 1.229 . S
C62 O71 1.058 . S
O63 C62 1.229 . S
C64 O65 1.229 . S
C64 O77 1.058 . S
O65 C64 1.229 . S
O66 Zn60 1.969 . S
O66 C69 1.267 . S
O67 Zn60 1.965 . S
O67 C78 1.260 . S
O68 Zn61 1.969 1_655 S
O68 C78 1.258 . S
C69 O66 1.267 . S
C69 O70 1.228 . S
O70 C69 1.228 . S
O71 Zn60 2.024 . S
O71 C62 1.058 . S
C72 O73 1.228 . S
C72 O74 1.267 1_455 S
O73 C72 1.228 . S
O74 Zn61 1.969 1_655 S
O74 C72 1.267 1_655 S
O75 Zn61 1.965 1_655 S
O75 C79 1.260 . S
O76 Zn60 1.969 . S
O76 C79 1.258 . S
O77 Zn61 2.024 . S
O77 C64 1.058 . S
C78 O67 1.260 . S
C78 O68 1.258 . S
C79 O75 1.260 . S
C79 O76 1.258 . S
Zn80 O86 1.969 . S
Zn80 O87 1.965 1_556 S
Zn80 O91 2.024 1_556 S
Zn80 O96 1.969 . S
Zn81 O88 1.969 . S
Zn81 O94 1.969 . S
Zn81 O95 1.965 1_554 S
Zn81 O97 2.024 1_554 S
C82 O83 1.229 . S
C82 O91 1.058 1_556 S
O83 C82 1.229 . S
C84 O85 1.229 . S
C84 O97 1.058 1_554 S
O85 C84 1.229 . S
O86 Zn80 1.969 . S
O86 C89 1.267 1_556 S
O87 Zn80 1.965 1_554 S
O87 C98 1.260 . S
O88 Zn81 1.969 . S
O88 C98 1.258 . S
C89 O86 1.267 1_554 S
C89 O90 1.228 . S
O90 C89 1.228 . S
O91 Zn80 2.024 1_554 S
O91 C82 1.058 1_554 S
C92 O93 1.228 . S
C92 O94 1.267 1_556 S
O93 C92 1.228 . S
O94 Zn81 1.969 . S
O94 C92 1.267 1_554 S
O95 Zn81 1.965 1_556 S
O95 C99 1.260 . S
O96 Zn80 1.969 . S
O96 C99 1.258 . S
O97 Zn81 2.024 1_556 S
O97 C84 1.058 1_556 S
C98 O87 1.260 . S
C98 O88 1.258 . S
C99 O95 1.260 . S
C99 O96 1.258 . S
Zn100 O106 1.969 . S
Zn100 O107 1.965 1_556 S
Zn100 O111 2.024 1_556 S
Zn100 O116 1.969 . S
Zn101 O108 1.969 . S
Zn101 O114 1.969 . S
Zn101 O115 1.965 1_554 S
Zn101 O117 2.024 1_554 S
C102 O103 1.229 . S
C102 O111 1.058 1_556 S
O103 C102 1.229 . S
C104 O105 1.229 . S
C104 O117 1.058 1_554 S
O105 C104 1.229 . S
O106 Zn100 1.969 . S
O106 C109 1.267 1_556 S
O107 Zn100 1.965 1_554 S
O107 C118 1.260 . S
O108 Zn101 1.969 . S
O108 C118 1.258 . S
C109 O106 1.267 1_554 S
C109 O110 1.228 . S
O110 C109 1.228 . S
O111 Zn100 2.024 1_554 S
O111 C102 1.058 1_554 S
C112 O113 1.228 . S
C112 O114 1.267 1_556 S
O113 C112 1.228 . S
O114 Zn101 1.969 . S
O114 C112 1.267 1_554 S
O115 Zn101 1.965 1_556 S
O115 C119 1.260 . S
O116 Zn100 1.969 . S
O116 C119 1.258 . S
O117 Zn101 2.024 1_556 S
O117 C104 1.058 1_556 S
C118 O107 1.260 . S
C118 O108 1.258 . S
C119 O115 1.260 . S
C119 O116 1.258 . S
Zn120 O126 1.969 . S
Zn120 O127 1.965 . S
Zn120 O131 2.024 . S
Zn120 O136 1.969 . S
Zn121 O128 1.969 . S
Zn121 O134 1.969 . S
Zn121 O135 1.965 . S
Zn121 O137 2.024 . S
C122 O123 1.229 . S
C122 O131 1.058 . S
O123 C122 1.229 . S
C124 O125 1.229 . S
C124 O137 1.058 . S
O125 C124 1.229 . S
O126 Zn120 1.969 . S
O126 C129 1.267 . S
O127 Zn120 1.965 . S
O127 C138 1.260 . S
O128 Zn121 1.969 . S
O128 C138 1.258 . S
C129 O126 1.267 . S
C129 O130 1.228 . S
O130 C129 1.228 . S
O131 Zn120 2.024 . S
O131 C122 1.058 . S
C132 O133 1.228 . S
C132 O134 1.267 . S
O133 C132 1.228 . S
O134 Zn121 1.969 . S
O134 C132 1.267 . S
O135 Zn121 1.965 . S
O135 C139 1.260 . S
O136 Zn120 1.969 . S
O136 C139 1.258 . S
O137 Zn121 2.024 . S
O137 C124 1.058 . S
C138 O127 1.260 . S
C138 O128 1.258 . S
C139 O135 1.260 . S
C139 O136 1.258 . S
Zn140 O146 1.969 . S
Zn140 O147 1.965 . S
Zn140 O151 2.024 . S
Zn140 O156 1.969 . S
Zn141 O148 1.969 . S
Zn141 O154 1.969 . S
Zn141 O155 1.965 . S
Zn141 O157 2.024 . S
C142 O143 1.229 . S
C142 O151 1.058 . S
O143 C142 1.229 . S
C144 O145 1.229 . S
C144 O157 1.058 . S
O145 C144 1.229 . S
O146 Zn140 1.969 . S
O146 C149 1.267 . S
O147 Zn140 1.965 . S
O147 C158 1.260 . S
O148 Zn141 1.969 . S
O148 C158 1.258 . S
C149 O146 1.267 . S
C149 O150 1.228 . S
O150 C149 1.228 . S
O151 Zn140 2.024 . S
O151 C142 1.058 . S
C152 O153 1.228 . S
C152 O154 1.267 . S
O153 C152 1.228 . S
O154 Zn141 1.969 . S
O154 C152 1.267 . S
O155 Zn141 1.965 . S
O155 C159 1.260 . S
O156 Zn140 1.969 . S
O156 C159 1.258 . S
O157 Zn141 2.024 . S
O157 C144 1.058 . S
C158 O147 1.260 . S
C158 O148 1.258 . S
C159 O155 1.260 . S
C159 O156 1.258 . S
C160 C161 1.349 . S
C160 C162 1.327 . S
C160 H185 0.950 . S
C161 C160 1.349 . S
C161 C177 1.349 1_556 S
C162 C160 1.327 . S
C162 C181 1.445 . S
C162 H186 0.950 . S
C163 C180 1.574 . S
C163 C182 1.363 1_554 S
C163 H187 0.949 . S
H164 C168 0.949 . S
C165 C166 1.349 . S
C165 C167 1.327 . S
C165 H188 0.950 . S
C166 C165 1.349 . S
C166 C178 1.349 1_554 S
C167 C165 1.327 . S
C167 C183 1.450 . S
C167 H189 0.950 . S
C168 H164 0.949 . S
C168 C176 1.574 . S
C168 C184 1.357 1_556 S
H169 C177 0.950 . S
H170 C175 0.950 . S
H171 C176 0.949 . S
H172 C178 0.950 . S
H173 C179 0.950 . S
H174 C180 0.949 . S
C175 H170 0.950 . S
C175 C177 1.327 . S
C175 C181 1.412 1_554 S
C176 C168 1.574 . S
C176 H171 0.949 . S
C176 C182 1.374 . S
C177 C161 1.349 1_554 S
C177 H169 0.950 . S
C177 C175 1.327 . S
C178 C166 1.349 1_556 S
C178 H172 0.950 . S
C178 C179 1.327 . S
C179 H173 0.950 . S
C179 C178 1.327 . S
C179 C183 1.408 1_556 S
C180 C163 1.574 . S
C180 H174 0.949 . S
C180 C184 1.379 . S
C181 C162 1.445 . S
C181 C175 1.412 1_556 S
C181 C182 1.523 . S
C182 C163 1.363 1_556 S
C182 C176 1.374 . S
C182 C181 1.523 . S
C183 C167 1.450 . S
C183 C179 1.408 1_554 S
C183 C184 1.523 . S
C184 C168 1.357 1_554 S
C184 C180 1.379 . S
C184 C183 1.523 . S
H185 C160 0.950 . S
H186 C162 0.950 . S
H187 C163 0.949 . S
H188 C165 0.950 . S
H189 C167 0.950 . S
C190 C191 1.349 1_556 S
C190 C192 1.327 . S
C190 H215 0.950 . S
C191 C190 1.349 1_554 S
C191 C207 1.349 . S
C192 C190 1.327 . S
C192 C211 1.405 1_556 S
C192 H216 0.950 . S
C193 C210 1.574 . S
C193 C212 1.380 . S
C193 H217 0.949 . S
H194 C198 0.949 . S
C195 C196 1.349 1_554 S
C195 C197 1.327 . S
C195 H218 0.950 . S
C196 C195 1.349 1_556 S
C196 C208 1.349 . S
C197 C195 1.327 . S
C197 C213 1.411 1_554 S
C197 H219 0.950 . S
C198 H194 0.949 . S
C198 C206 1.574 . S
C198 C214 1.374 . S
H199 C207 0.950 . S
H200 C205 0.950 . S
H201 C206 0.949 . S
H202 C208 0.950 . S
H203 C209 0.950 . S
H204 C210 0.949 . S
C205 H200 0.950 . S
C205 C207 1.327 . S
C205 C211 1.452 . S
C206 C198 1.574 . S
C206 H201 0.949 . S
C206 C212 1.356 1_556 S
C207 C191 1.349 . S
C207 H199 0.950 . S
C207 C205 1.327 . S
C208 C196 1.349 . S
C208 H202 0.950 . S
C208 C209 1.327 . S
C209 H203 0.950 . S
C209 C208 1.327 . S
C209 C213 1.447 . S
C210 C193 1.574 . S
C210 H204 0.949 . S
C210 C214 1.362 1_554 S
C211 C192 1.405 1_554 S
C211 C205 1.452 . S
C211 C212 1.523 . S
C212 C193 1.380 . S
C212 C206 1.356 1_554 S
C212 C211 1.523 . S
C213 C197 1.411 1_556 S
C213 C209 1.447 . S
C213 C214 1.523 . S
C214 C198 1.374 . S
C214 C210 1.362 1_556 S
C214 C213 1.523 . S
H215 C190 0.950 . S
H216 C192 0.950 . S
H217 C193 0.949 . S
H218 C195 0.950 . S
H219 C197 0.950 . S
C220 C221 1.349 . S
C220 C222 1.327 . S
C220 H245 0.950 . S
C221 C220 1.349 . S
C221 C237 1.349 . S
C222 C220 1.327 . S
C222 C241 1.429 . S
C222 H246 0.950 . S
C223 C240 1.574 . S
C223 C242 1.368 . S
C223 H247 0.949 . S
H224 C228 0.949 . S
C225 C226 1.349 . S
C225 C227 1.327 . S
C225 H248 0.950 . S
C226 C225 1.349 . S
C226 C238 1.349 . S
C227 C225 1.327 . S
C227 C243 1.429 . S
C227 H249 0.950 . S
C228 H224 0.949 . S
C228 C236 1.574 . S
C228 C244 1.368 . S
H229 C237 0.950 . S
H230 C235 0.950 . S
H231 C236 0.949 . S
H232 C238 0.950 . S
H233 C239 0.950 . S
H234 C240 0.949 . S
C235 H230 0.950 . S
C235 C237 1.327 . S
C235 C241 1.429 . S
C236 C228 1.574 . S
C236 H231 0.949 . S
C236 C242 1.368 . S
C237 C221 1.349 . S
C237 H229 0.950 . S
C237 C235 1.327 . S
C238 C226 1.349 . S
C238 H232 0.950 . S
C238 C239 1.327 . S
C239 H233 0.950 . S
C239 C238 1.327 . S
C239 C243 1.429 . S
C240 C223 1.574 . S
C240 H234 0.949 . S
C240 C244 1.368 . S
C241 C222 1.429 . S
C241 C235 1.429 . S
C241 C242 1.523 . S
C242 C223 1.368 . S
C242 C236 1.368 . S
C242 C241 1.523 . S
C243 C227 1.429 . S
C243 C239 1.429 . S
C243 C244 1.523 . S
C244 C228 1.368 . S
C244 C240 1.368 . S
C244 C243 1.523 . S
H245 C220 0.950 . S
H246 C222 0.950 . S
H247 C223 0.949 . S
H248 C225 0.950 . S
H249 C227 0.950 . S
C250 C251 1.349 . S
C250 C252 1.327 . S
C250 H275 0.950 . S
C251 C250 1.349 . S
C251 C267 1.349 . S
C252 C250 1.327 . S
C252 C271 1.429 . S
C252 H276 0.950 . S
C253 C270 1.574 . S
C253 C272 1.368 . S
C253 H277 0.949 . S
H254 C258 0.949 . S
C255 C256 1.349 . S
C255 C257 1.327 . S
C255 H278 0.950 . S
C256 C255 1.349 . S
C256 C268 1.349 . S
C257 C255 1.327 . S
C257 C273 1.429 . S
C257 H279 0.950 . S
C258 H254 0.949 . S
C258 C266 1.574 . S
C258 C274 1.368 . S
H259 C267 0.950 . S
H260 C265 0.950 . S
H261 C266 0.949 . S
H262 C268 0.950 . S
H263 C269 0.950 . S
H264 C270 0.949 . S
C265 H260 0.950 . S
C265 C267 1.327 . S
C265 C271 1.429 . S
C266 C258 1.574 . S
C266 H261 0.949 . S
C266 C272 1.368 . S
C267 C251 1.349 . S
C267 H259 0.950 . S
C267 C265 1.327 . S
C268 C256 1.349 . S
C268 H262 0.950 . S
C268 C269 1.327 . S
C269 H263 0.950 . S
C269 C268 1.327 . S
C269 C273 1.429 . S
C270 C253 1.574 . S
C270 H264 0.949 . S
C270 C274 1.368 . S
C271 C252 1.429 . S
C271 C265 1.429 . S
C271 C272 1.523 . S
C272 C253 1.368 . S
C272 C266 1.368 . S
C272 C271 1.523 . S
C273 C257 1.429 . S
C273 C269 1.429 . S
C273 C274 1.523 . S
C274 C258 1.368 . S
C274 C270 1.368 . S
C274 C273 1.523 . S
H275 C250 0.950 . S
H276 C252 0.950 . S
H277 C253 0.949 . S
H278 C255 0.950 . S
H279 C257 0.950 . S
C280 C281 1.349 1_554 S
C280 C282 1.327 . S
C280 H305 0.950 . S
C281 C280 1.349 1_556 S
C281 C297 1.349 . S
C282 C280 1.327 . S
C282 C301 1.413 1_554 S
C282 H306 0.950 . S
C283 C300 1.574 . S
C283 C302 1.374 . S
C283 H307 0.949 1_455 S
H284 C288 0.949 . S
C285 C286 1.349 1_556 S
C285 C287 1.327 . S
C285 H308 0.950 . S
C286 C285 1.349 1_554 S
C286 C298 1.349 . S
C287 C285 1.327 . S
C287 C303 1.409 1_556 S
C287 H309 0.950 . S
C288 H284 0.949 . S
C288 C296 1.574 . S
C288 C304 1.379 . S
H289 C297 0.950 . S
H290 C295 0.950 . S
H291 C296 0.949 . S
H292 C298 0.950 . S
H293 C299 0.950 . S
H294 C300 0.949 . S
C295 H290 0.950 . S
C295 C297 1.327 . S
C295 C301 1.445 . S
C296 C288 1.574 . S
C296 H291 0.949 . S
C296 C302 1.363 1_554 S
C297 C281 1.349 . S
C297 H289 0.950 . S
C297 C295 1.327 . S
C298 C286 1.349 . S
C298 H292 0.950 . S
C298 C299 1.327 . S
C299 H293 0.950 . S
C299 C298 1.327 . S
C299 C303 1.449 . S
C300 C283 1.574 . S
C300 H294 0.949 . S
C300 C304 1.358 1_556 S
C301 C282 1.413 1_556 S
C301 C295 1.445 . S
C301 C302 1.523 1_655 S
C302 C283 1.374 . S
C302 C296 1.363 1_556 S
C302 C301 1.523 1_455 S
C303 C287 1.409 1_554 S
C303 C299 1.449 . S
C303 C304 1.523 . S
C304 C288 1.379 . S
C304 C300 1.358 1_554 S
C304 C303 1.523 . S
H305 C280 0.950 . S
H306 C282 0.950 . S
H307 C283 0.949 1_655 S
H308 C285 0.950 . S
H309 C287 0.950 . S
C310 C311 1.349 1_554 S
C310 C312 1.327 . S
C310 H335 0.950 . S
C311 C310 1.349 1_556 S
C311 C327 1.349 . S
C312 C310 1.327 . S
C312 C331 1.414 1_554 S
C312 H336 0.950 . S
C313 C330 1.574 . S
C313 C332 1.373 . S
C313 H337 0.949 1_655 S
H314 C318 0.949 . S
C315 C316 1.349 1_556 S
C315 C317 1.327 . S
C315 H338 0.950 . S
C316 C315 1.349 1_554 S
C316 C328 1.349 . S
C317 C315 1.327 . S
C317 C333 1.410 1_556 S
C317 H339 0.950 . S
C318 H314 0.949 . S
C318 C326 1.574 . S
C318 C334 1.378 . S
H319 C327 0.950 . S
H320 C325 0.950 . S
H321 C326 0.949 . S
H322 C328 0.950 . S
H323 C329 0.950 . S
H324 C330 0.949 . S
C325 H320 0.950 . S
C325 C327 1.327 . S
C325 C331 1.444 . S
C326 C318 1.574 . S
C326 H321 0.949 . S
C326 C332 1.363 1_554 S
C327 C311 1.349 . S
C327 H319 0.950 . S
C327 C325 1.327 . S
C328 C316 1.349 . S
C328 H322 0.950 . S
C328 C329 1.327 . S
C329 H323 0.950 . S
C329 C328 1.327 . S
C329 C333 1.448 . S
C330 C313 1.574 . S
C330 H324 0.949 . S
C330 C334 1.359 1_556 S
C331 C312 1.414 1_556 S
C331 C325 1.444 . S
C331 C332 1.523 1_455 S
C332 C313 1.373 . S
C332 C326 1.363 1_556 S
C332 C331 1.523 1_655 S
C333 C317 1.410 1_554 S
C333 C329 1.448 . S
C333 C334 1.523 . S
C334 C318 1.378 . S
C334 C330 1.359 1_554 S
C334 C333 1.523 . S
H335 C310 0.950 . S
H336 C312 0.950 . S
H337 C313 0.949 1_455 S
H338 C315 0.950 . S
H339 C317 0.950 . S
C340 C341 1.349 . S
C340 C342 1.327 . S
C340 H365 0.950 . S
C341 C340 1.349 . S
C341 C357 1.349 . S
C342 C340 1.327 . S
C342 C361 1.429 . S
C342 H366 0.950 . S
C343 C360 1.574 . S
C343 C362 1.368 . S
C343 H367 0.949 . S
H344 C348 0.949 . S
C345 C346 1.349 . S
C345 C347 1.327 . S
C345 H368 0.950 . S
C346 C345 1.349 . S
C346 C358 1.349 . S
C347 C345 1.327 . S
C347 C363 1.429 . S
C347 H369 0.950 . S
C348 H344 0.949 . S
C348 C356 1.574 . S
C348 C364 1.368 . S
H349 C357 0.950 . S
H350 C355 0.950 . S
H351 C356 0.949 . S
H352 C358 0.950 . S
H353 C359 0.950 . S
H354 C360 0.949 1_655 S
C355 H350 0.950 . S
C355 C357 1.327 . S
C355 C361 1.429 . S
C356 C348 1.574 . S
C356 H351 0.949 . S
C356 C362 1.368 . S
C357 C341 1.349 . S
C357 H349 0.950 . S
C357 C355 1.327 . S
C358 C346 1.349 . S
C358 H352 0.950 . S
C358 C359 1.327 . S
C359 H353 0.950 . S
C359 C358 1.327 . S
C359 C363 1.429 . S
C360 C343 1.574 . S
C360 H354 0.949 1_455 S
C360 C364 1.368 . S
C361 C342 1.429 . S
C361 C355 1.429 . S
C361 C362 1.523 . S
C362 C343 1.368 . S
C362 C356 1.368 . S
C362 C361 1.523 . S
C363 C347 1.429 . S
C363 C359 1.429 . S
C363 C364 1.523 1_655 S
C364 C348 1.368 . S
C364 C360 1.368 . S
C364 C363 1.523 1_455 S
H365 C340 0.950 . S
H366 C342 0.950 . S
H367 C343 0.949 . S
H368 C345 0.950 . S
H369 C347 0.950 . S
C370 C371 1.349 . S
C370 C372 1.327 . S
C370 H395 0.950 . S
C371 C370 1.349 . S
C371 C387 1.349 . S
C372 C370 1.327 . S
C372 C391 1.429 . S
C372 H396 0.950 . S
C373 C390 1.574 . S
C373 C392 1.368 . S
C373 H397 0.949 . S
H374 C378 0.949 . S
C375 C376 1.349 . S
C375 C377 1.327 . S
C375 H398 0.950 . S
C376 C375 1.349 . S
C376 C388 1.349 . S
C377 C375 1.327 . S
C377 C393 1.429 . S
C377 H399 0.950 . S
C378 H374 0.949 . S
C378 C386 1.574 . S
C378 C394 1.368 . S
H379 C387 0.950 . S
H380 C385 0.950 . S
H381 C386 0.949 . S
H382 C388 0.950 . S
H383 C389 0.950 . S
H384 C390 0.949 1_455 S
C385 H380 0.950 . S
C385 C387 1.327 . S
C385 C391 1.429 . S
C386 C378 1.574 . S
C386 H381 0.949 . S
C386 C392 1.368 . S
C387 C371 1.349 . S
C387 H379 0.950 . S
C387 C385 1.327 . S
C388 C376 1.349 . S
C388 H382 0.950 . S
C388 C389 1.327 . S
C389 H383 0.950 . S
C389 C388 1.327 . S
C389 C393 1.429 . S
C390 C373 1.574 . S
C390 H384 0.949 1_655 S
C390 C394 1.368 . S
C391 C372 1.429 . S
C391 C385 1.429 . S
C391 C392 1.523 . S
C392 C373 1.368 . S
C392 C386 1.368 . S
C392 C391 1.523 . S
C393 C377 1.429 . S
C393 C389 1.429 . S
C393 C394 1.523 1_455 S
C394 C378 1.368 . S
C394 C390 1.368 . S
C394 C393 1.523 1_655 S
H395 C370 0.950 . S
H396 C372 0.950 . S
H397 C373 0.949 . S
H398 C375 0.950 . S
H399 C377 0.950 . S
C400 C401 1.349 . S
C400 C402 1.327 . S
C400 H425 0.950 . S
C401 C400 1.349 . S
C401 C417 1.349 1_456 S
C402 C400 1.327 . S
C402 C421 1.429 . S
C402 H426 0.950 . S
C403 C420 1.574 . S
C403 C422 1.368 1_654 S
C403 H427 0.949 . S
H404 C408 0.949 . S
C405 C406 1.349 1_554 S
C405 C407 1.327 . S
C405 H428 0.950 . S
C406 C405 1.349 1_556 S
C406 C418 1.349 1_655 S
C407 C405 1.327 . S
C407 C423 1.429 1_554 S
C407 H429 0.950 . S
C408 H404 0.949 . S
C408 C416 1.574 . S
C408 C424 1.368 1_455 S
H409 C417 0.950 . S
H410 C415 0.950 . S
H411 C416 0.949 . S
H412 C418 0.950 . S
H413 C419 0.950 . S
H414 C420 0.949 . S
C415 H410 0.950 . S
C415 C417 1.327 . S
C415 C421 1.429 1_654 S
C416 C408 1.574 . S
C416 H411 0.949 . S
C416 C422 1.368 . S
C417 C401 1.349 1_654 S
C417 H409 0.950 . S
C417 C415 1.327 . S
C418 C406 1.349 1_455 S
C418 H412 0.950 . S
C418 C419 1.327 . S
C419 H413 0.950 . S
C419 C418 1.327 . S
C419 C423 1.429 1_455 S
C420 C403 1.574 . S
C420 H414 0.949 . S
C420 C424 1.368 1_554 S
C421 C402 1.429 . S
C421 C415 1.429 1_456 S
C421 C422 1.523 . S
C422 C403 1.368 1_456 S
C422 C416 1.368 . S
C422 C421 1.523 . S
C423 C407 1.429 1_556 S
C423 C419 1.429 1_655 S
C423 C424 1.523 . S
C424 C408 1.368 1_655 S
C424 C420 1.368 1_556 S
C424 C423 1.523 . S
H425 C400 0.950 . S
H426 C402 0.950 . S
H427 C403 0.949 . S
H428 C405 0.950 . S
H429 C407 0.950 . S
C430 C431 1.349 1_655 S
C430 C432 1.327 . S
C430 H455 0.950 . S
C431 C430 1.349 1_455 S
C431 C447 1.349 . S
C432 C430 1.327 . S
C432 C451 1.429 1_655 S
C432 H456 0.950 . S
C433 C450 1.574 . S
C433 C452 1.368 . S
C433 H457 0.949 . S
H434 C438 0.949 . S
C435 C436 1.349 1_455 S
C435 C437 1.327 . S
C435 H458 0.950 . S
C436 C435 1.349 1_655 S
C436 C448 1.349 . S
C437 C435 1.327 . S
C437 C453 1.429 1_455 S
C437 H459 0.950 . S
C438 H434 0.949 . S
C438 C446 1.574 . S
C438 C454 1.368 . S
H439 C447 0.950 . S
H440 C445 0.950 . S
H441 C446 0.949 . S
H442 C448 0.950 . S
H443 C449 0.950 . S
H444 C450 0.949 . S
C445 H440 0.950 . S
C445 C447 1.327 . S
C445 C451 1.429 . S
C446 C438 1.574 . S
C446 H441 0.949 . S
C446 C452 1.368 1_655 S
C447 C431 1.349 . S
C447 H439 0.950 . S
C447 C445 1.327 . S
C448 C436 1.349 . S
C448 H442 0.950 . S
C448 C449 1.327 . S
C449 H443 0.950 . S
C449 C448 1.327 . S
C449 C453 1.429 . S
C450 C433 1.574 . S
C450 H444 0.949 . S
C450 C454 1.368 1_455 S
C451 C432 1.429 1_455 S
C451 C445 1.429 . S
C451 C452 1.523 . S
C452 C433 1.368 . S
C452 C446 1.368 1_455 S
C452 C451 1.523 . S
C453 C437 1.429 1_655 S
C453 C449 1.429 . S
C453 C454 1.523 . S
C454 C438 1.368 . S
C454 C450 1.368 1_655 S
C454 C453 1.523 . S
H455 C430 0.950 . S
H456 C432 0.950 . S
H457 C433 0.949 . S
H458 C435 0.950 . S
H459 C437 0.950 . S
C460 C461 1.349 1_554 S
C460 C462 1.327 . S
C460 H485 0.950 . S
C461 C460 1.349 1_556 S
C461 C477 1.349 . S
C462 C460 1.327 . S
C462 C481 1.429 1_554 S
C462 H486 0.950 . S
C463 C480 1.574 1_565 S
C463 C482 1.368 . S
C463 H487 0.949 . S
H464 C468 0.949 . S
C465 C466 1.349 . S
C465 C467 1.327 . S
C465 H488 0.950 . S
C466 C465 1.349 . S
C466 C478 1.349 1_556 S
C467 C465 1.327 . S
C467 C483 1.429 . S
C467 H489 0.950 . S
C468 H464 0.949 . S
C468 C476 1.574 1_545 S
C468 C484 1.368 1_554 S
H469 C477 0.950 . S
H470 C475 0.950 . S
H471 C476 0.949 . S
H472 C478 0.950 . S
H473 C479 0.950 . S
H474 C480 0.949 . S
C475 H470 0.950 . S
C475 C477 1.327 . S
C475 C481 1.429 . S
C476 C468 1.574 1_565 S
C476 H471 0.949 . S
C476 C482 1.368 1_554 S
C477 C461 1.349 . S
C477 H469 0.950 . S
C477 C475 1.327 . S
C478 C466 1.349 1_554 S
C478 H472 0.950 . S
C478 C479 1.327 . S
C479 H473 0.950 . S
C479 C478 1.327 . S
C479 C483 1.429 1_554 S
C480 C463 1.574 1_545 S
C480 H474 0.949 . S
C480 C484 1.368 . S
C481 C462 1.429 1_556 S
C481 C475 1.429 . S
C481 C482 1.523 . S
C482 C463 1.368 . S
C482 C476 1.368 1_556 S
C482 C481 1.523 . S
C483 C467 1.429 . S
C483 C479 1.429 1_556 S
C483 C484 1.523 . S
C484 C468 1.368 1_556 S
C484 C480 1.368 . S
C484 C483 1.523 . S
H485 C460 0.950 . S
H486 C462 0.950 . S
H487 C463 0.949 . S
H488 C465 0.950 . S
H489 C467 0.950 . S
C490 C491 1.349 . S
C490 C492 1.327 . S
C490 H515 0.950 . S
C491 C490 1.349 . S
C491 C507 1.349 . S
C492 C490 1.327 . S
C492 C511 1.429 . S
C492 H516 0.950 . S
C493 C510 1.574 1_545 S
C493 C512 1.368 . S
C493 H517 0.949 . S
H494 C498 0.949 . S
C495 C496 1.349 . S
C495 C497 1.327 . S
C495 H518 0.950 . S
C496 C495 1.349 . S
C496 C508 1.349 . S
C497 C495 1.327 . S
C497 C513 1.429 . S
C497 H519 0.950 . S
C498 H494 0.949 . S
C498 C506 1.574 1_565 S
C498 C514 1.368 . S
H499 C507 0.950 . S
H500 C505 0.950 . S
H501 C506 0.949 . S
H502 C508 0.950 . S
H503 C509 0.950 . S
H504 C510 0.949 . S
C505 H500 0.950 . S
C505 C507 1.327 . S
C505 C511 1.429 . S
C506 C498 1.574 1_545 S
C506 H501 0.949 . S
C506 C512 1.368 . S
C507 C491 1.349 . S
C507 H499 0.950 . S
C507 C505 1.327 . S
C508 C496 1.349 . S
C508 H502 0.950 . S
C508 C509 1.327 . S
C509 H503 0.950 . S
C509 C508 1.327 . S
C509 C513 1.429 . S
C510 C493 1.574 1_565 S
C510 H504 0.949 . S
C510 C514 1.368 . S
C511 C492 1.429 . S
C511 C505 1.429 . S
C511 C512 1.523 . S
C512 C493 1.368 . S
C512 C506 1.368 . S
C512 C511 1.523 . S
C513 C497 1.429 . S
C513 C509 1.429 . S
C513 C514 1.523 . S
C514 C498 1.368 . S
C514 C510 1.368 . S
C514 C513 1.523 . S
H515 C490 0.950 . S
H516 C492 0.950 . S
H517 C493 0.949 . S
H518 C495 0.950 . S
H519 C497 0.950 . S
C520 C521 1.349 1_556 S
C520 C522 1.327 . S
C520 H545 0.950 . S
C521 C520 1.349 1_554 S
C521 C537 1.349 . S
C522 C520 1.327 . S
C522 C541 1.429 1_556 S
C522 H546 0.950 . S
C523 C540 1.574 . S
C523 C542 1.368 . S
C523 H547 0.949 . S
H524 C528 0.949 . S
C525 C526 1.349 . S
C525 C527 1.327 . S
C525 H548 0.950 . S
C526 C525 1.349 . S
C526 C538 1.349 1_554 S
C527 C525 1.327 . S
C527 C543 1.429 . S
C527 H549 0.950 . S
C528 H524 0.949 . S
C528 C536 1.574 . S
C528 C544 1.368 1_556 S
H529 C537 0.950 . S
H530 C535 0.950 . S
H531 C536 0.949 . S
H532 C538 0.950 . S
H533 C539 0.950 . S
H534 C540 0.949 . S
C535 H530 0.950 . S
C535 C537 1.327 . S
C535 C541 1.429 . S
C536 C528 1.574 . S
C536 H531 0.949 . S
C536 C542 1.368 1_556 S
C537 C521 1.349 . S
C537 H529 0.950 . S
C537 C535 1.327 . S
C538 C526 1.349 1_556 S
C538 H532 0.950 . S
C538 C539 1.327 . S
C539 H533 0.950 . S
C539 C538 1.327 . S
C539 C543 1.429 1_556 S
C540 C523 1.574 . S
C540 H534 0.949 . S
C540 C544 1.368 . S
C541 C522 1.429 1_554 S
C541 C535 1.429 . S
C541 C542 1.523 . S
C542 C523 1.368 . S
C542 C536 1.368 1_554 S
C542 C541 1.523 . S
C543 C527 1.429 . S
C543 C539 1.429 1_554 S
C543 C544 1.523 . S
C544 C528 1.368 1_554 S
C544 C540 1.368 . S
C544 C543 1.523 . S
H545 C520 0.950 . S
H546 C522 0.950 . S
H547 C523 0.949 . S
H548 C525 0.950 . S
H549 C527 0.950 . S
C550 C551 1.349 . S
C550 C552 1.327 . S
C550 H575 0.950 . S
C551 C550 1.349 . S
C551 C567 1.349 1_554 S
C552 C550 1.327 . S
C552 C571 1.429 . S
C552 H576 0.950 . S
C553 C570 1.574 . S
C553 C572 1.368 1_556 S
C553 H577 0.949 . S
H554 C558 0.949 . S
C555 C556 1.349 1_556 S
C555 C557 1.327 . S
C555 H578 0.950 . S
C556 C555 1.349 1_554 S
C556 C568 1.349 . S
C557 C555 1.327 . S
C557 C573 1.429 1_556 S
C557 H579 0.950 . S
C558 H554 0.949 . S
C558 C566 1.574 . S
C558 C574 1.368 . S
H559 C567 0.950 . S
H560 C565 0.950 . S
H561 C566 0.949 . S
H562 C568 0.950 . S
H563 C569 0.950 . S
H564 C570 0.949 . S
C565 H560 0.950 . S
C565 C567 1.327 . S
C565 C571 1.429 1_556 S
C566 C558 1.574 . S
C566 H561 0.949 . S
C566 C572 1.368 . S
C567 C551 1.349 1_556 S
C567 H559 0.950 . S
C567 C565 1.327 . S
C568 C556 1.349 . S
C568 H562 0.950 . S
C568 C569 1.327 . S
C569 H563 0.950 . S
C569 C568 1.327 . S
C569 C573 1.429 . S
C570 C553 1.574 . S
C570 H564 0.949 . S
C570 C574 1.368 1_556 S
C571 C552 1.429 . S
C571 C565 1.429 1_554 S
C571 C572 1.523 . S
C572 C553 1.368 1_554 S
C572 C566 1.368 . S
C572 C571 1.523 . S
C573 C557 1.429 1_554 S
C573 C569 1.429 . S
C573 C574 1.523 . S
C574 C558 1.368 . S
C574 C570 1.368 1_554 S
C574 C573 1.523 . S
H575 C550 0.950 . S
H576 C552 0.950 . S
H577 C553 0.949 . S
H578 C555 0.950 . S
H579 C557 0.950 . S
C580 C581 1.349 . S
C580 C582 1.327 . S
C580 H605 0.950 . S
C581 C580 1.349 . S
C581 C597 1.349 . S
C582 C580 1.327 . S
C582 C601 1.429 . S
C582 H606 0.950 . S
C583 C600 1.574 . S
C583 C602 1.368 . S
C583 H607 0.949 . S
H584 C588 0.949 . S
C585 C586 1.349 . S
C585 C587 1.327 . S
C585 H608 0.950 . S
C586 C585 1.349 . S
C586 C598 1.349 . S
C587 C585 1.327 . S
C587 C603 1.429 . S
C587 H609 0.950 . S
C588 H584 0.949 . S
C588 C596 1.574 . S
C588 C604 1.368 . S
H589 C597 0.950 . S
H590 C595 0.950 . S
H591 C596 0.949 . S
H592 C598 0.950 . S
H593 C599 0.950 . S
H594 C600 0.949 . S
C595 H590 0.950 . S
C595 C597 1.327 . S
C595 C601 1.429 . S
C596 C588 1.574 . S
C596 H591 0.949 . S
C596 C602 1.368 . S
C597 C581 1.349 . S
C597 H589 0.950 . S
C597 C595 1.327 . S
C598 C586 1.349 . S
C598 H592 0.950 . S
C598 C599 1.327 . S
C599 H593 0.950 . S
C599 C598 1.327 . S
C599 C603 1.429 . S
C600 C583 1.574 . S
C600 H594 0.949 . S
C600 C604 1.368 . S
C601 C582 1.429 . S
C601 C595 1.429 . S
C601 C602 1.523 . S
C602 C583 1.368 . S
C602 C596 1.368 . S
C602 C601 1.523 . S
C603 C587 1.429 . S
C603 C599 1.429 . S
C603 C604 1.523 . S
C604 C588 1.368 . S
C604 C600 1.368 . S
C604 C603 1.523 . S
H605 C580 0.950 . S
H606 C582 0.950 . S
H607 C583 0.949 . S
H608 C585 0.950 . S
H609 C587 0.950 . S
C610 C611 1.349 . S
C610 C612 1.327 . S
C610 H635 0.950 . S
C611 C610 1.349 . S
C611 C627 1.349 . S
C612 C610 1.327 . S
C612 C631 1.429 . S
C612 H636 0.950 . S
C613 C630 1.574 . S
C613 C632 1.368 . S
C613 H637 0.949 . S
H614 C618 0.949 . S
C615 C616 1.349 . S
C615 C617 1.327 . S
C615 H638 0.950 . S
C616 C615 1.349 . S
C616 C628 1.349 . S
C617 C615 1.327 . S
C617 C633 1.429 . S
C617 H639 0.950 . S
C618 H614 0.949 . S
C618 C626 1.574 . S
C618 C634 1.368 . S
H619 C627 0.950 . S
H620 C625 0.950 . S
H621 C626 0.949 . S
H622 C628 0.950 . S
H623 C629 0.950 . S
H624 C630 0.949 . S
C625 H620 0.950 . S
C625 C627 1.327 . S
C625 C631 1.429 . S
C626 C618 1.574 . S
C626 H621 0.949 . S
C626 C632 1.368 . S
C627 C611 1.349 . S
C627 H619 0.950 . S
C627 C625 1.327 . S
C628 C616 1.349 . S
C628 H622 0.950 . S
C628 C629 1.327 . S
C629 H623 0.950 . S
C629 C628 1.327 . S
C629 C633 1.429 . S
C630 C613 1.574 . S
C630 H624 0.949 . S
C630 C634 1.368 . S
C631 C612 1.429 . S
C631 C625 1.429 . S
C631 C632 1.523 . S
C632 C613 1.368 . S
C632 C626 1.368 . S
C632 C631 1.523 . S
C633 C617 1.429 . S
C633 C629 1.429 . S
C633 C634 1.523 . S
C634 C618 1.368 . S
C634 C630 1.368 . S
C634 C633 1.523 . S
H635 C610 0.950 . S
H636 C612 0.950 . S
H637 C613 0.949 . S
H638 C615 0.950 . S
H639 C617 0.950 . S
C640 C641 1.349 . S
C640 C642 1.327 . S
C640 H665 0.955 . S
C641 C640 1.349 . S
C641 C657 1.349 . S
C642 C640 1.327 . S
C642 C661 1.429 . S
C642 H666 0.950 1_455 S
C643 C660 1.574 . S
C643 C662 1.368 . S
C643 H667 0.949 . S
H644 C648 0.949 . S
C645 C646 1.349 . S
C645 C647 1.327 . S
C645 H668 0.955 . S
C646 C645 1.349 . S
C646 C658 1.349 . S
C647 C645 1.327 . S
C647 C663 1.429 . S
C647 H669 0.950 1_655 S
C648 H644 0.949 . S
C648 C656 1.574 . S
C648 C664 1.368 . S
H649 C657 0.950 . S
H650 C655 0.950 . S
H651 C656 0.949 . S
H652 C658 0.950 . S
H653 C659 0.950 . S
H654 C660 0.949 . S
C655 H650 0.950 . S
C655 C657 1.327 . S
C655 C661 1.429 . S
C656 C648 1.574 . S
C656 H651 0.949 . S
C656 C662 1.368 1_655 S
C657 C641 1.349 . S
C657 H649 0.950 . S
C657 C655 1.327 . S
C658 C646 1.349 . S
C658 H652 0.950 . S
C658 C659 1.327 . S
C659 H653 0.950 . S
C659 C658 1.327 . S
C659 C663 1.429 . S
C660 C643 1.574 . S
C660 H654 0.949 . S
C660 C664 1.368 1_455 S
C661 C642 1.429 . S
C661 C655 1.429 . S
C661 C662 1.523 . S
C662 C643 1.368 . S
C662 C656 1.368 1_455 S
C662 C661 1.523 . S
C663 C647 1.429 . S
C663 C659 1.429 . S
C663 C664 1.523 . S
C664 C648 1.368 . S
C664 C660 1.368 1_655 S
C664 C663 1.523 . S
H665 C640 0.955 . S
H666 C642 0.950 1_655 S
H667 C643 0.949 . S
H668 C645 0.955 . S
H669 C647 0.950 1_455 S
C670 C671 1.349 . S
C670 C672 1.327 . S
C670 H695 0.950 . S
C671 C670 1.349 . S
C671 C687 1.349 . S
C672 C670 1.327 . S
C672 C691 1.429 . S
C672 H696 0.950 . S
C673 C690 1.574 . S
C673 C692 1.368 1_455 S
C673 H697 0.949 . S
H674 C678 0.949 . S
C675 C676 1.349 . S
C675 C677 1.327 . S
C675 H698 0.950 . S
C676 C675 1.349 . S
C676 C688 1.349 . S
C677 C675 1.327 . S
C677 C693 1.429 . S
C677 H699 0.950 . S
C678 H674 0.949 . S
C678 C686 1.574 . S
C678 C694 1.368 1_655 S
H679 C687 0.955 . S
H680 C685 0.950 1_455 S
H681 C686 0.949 . S
H682 C688 0.955 . S
H683 C689 0.950 1_655 S
H684 C690 0.949 . S
C685 H680 0.950 1_655 S
C685 C687 1.327 . S
C685 C691 1.429 . S
C686 C678 1.574 . S
C686 H681 0.949 . S
C686 C692 1.368 . S
C687 C671 1.349 . S
C687 H679 0.955 . S
C687 C685 1.327 . S
C688 C676 1.349 . S
C688 H682 0.955 . S
C688 C689 1.327 . S
C689 H683 0.950 1_455 S
C689 C688 1.327 . S
C689 C693 1.429 . S
C690 C673 1.574 . S
C690 H684 0.949 . S
C690 C694 1.368 . S
C691 C672 1.429 . S
C691 C685 1.429 . S
C691 C692 1.523 . S
C692 C673 1.368 1_655 S
C692 C686 1.368 . S
C692 C691 1.523 . S
C693 C677 1.429 . S
C693 C689 1.429 . S
C693 C694 1.523 . S
C694 C678 1.368 1_455 S
C694 C690 1.368 . S
C694 C693 1.523 . S
H695 C670 0.950 . S
H696 C672 0.950 . S
H697 C673 0.949 . S
H698 C675 0.950 . S
H699 C677 0.950 . S
C700 C701 1.349 . S
C700 C702 1.327 . S
C700 H725 0.947 1_655 S
C701 C700 1.349 . S
C701 C717 1.349 . S
C702 C700 1.327 . S
C702 C721 1.429 . S
C702 H726 0.950 1_655 S
C703 C720 1.574 . S
C703 C722 1.368 . S
C703 H727 0.949 . S
H704 C708 0.949 . S
C705 C706 1.349 . S
C705 C707 1.327 . S
C705 H728 0.947 1_455 S
C706 C705 1.349 . S
C706 C718 1.349 . S
C707 C705 1.327 . S
C707 C723 1.429 . S
C707 H729 0.950 1_455 S
C708 H704 0.949 . S
C708 C716 1.574 . S
C708 C724 1.368 . S
H709 C717 0.950 . S
H710 C715 0.950 . S
H711 C716 0.949 . S
H712 C718 0.950 . S
H713 C719 0.950 . S
H714 C720 0.949 . S
C715 H710 0.950 . S
C715 C717 1.327 . S
C715 C721 1.429 . S
C716 C708 1.574 . S
C716 H711 0.949 . S
C716 C722 1.368 1_455 S
C717 C701 1.349 . S
C717 H709 0.950 . S
C717 C715 1.327 . S
C718 C706 1.349 . S
C718 H712 0.950 . S
C718 C719 1.327 . S
C719 H713 0.950 . S
C719 C718 1.327 . S
C719 C723 1.429 . S
C720 C703 1.574 . S
C720 H714 0.949 . S
C720 C724 1.368 1_655 S
C721 C702 1.429 . S
C721 C715 1.429 . S
C721 C722 1.523 . S
C722 C703 1.368 . S
C722 C716 1.368 1_655 S
C722 C721 1.523 . S
C723 C707 1.429 . S
C723 C719 1.429 . S
C723 C724 1.523 . S
C724 C708 1.368 . S
C724 C720 1.368 1_455 S
C724 C723 1.523 . S
H725 C700 0.947 1_455 S
H726 C702 0.950 1_455 S
H727 C703 0.949 . S
H728 C705 0.947 1_655 S
H729 C707 0.950 1_655 S
C730 C731 1.349 . S
C730 C732 1.327 . S
C730 H755 0.947 1_655 S
C731 C730 1.349 . S
C731 C747 1.349 . S
C732 C730 1.327 . S
C732 C751 1.429 . S
C732 H756 0.950 1_655 S
C733 C750 1.574 . S
C733 C752 1.368 . S
C733 H757 0.949 . S
H734 C738 0.949 . S
C735 C736 1.349 . S
C735 C737 1.327 . S
C735 H758 0.947 1_455 S
C736 C735 1.349 . S
C736 C748 1.349 . S
C737 C735 1.327 . S
C737 C753 1.429 . S
C737 H759 0.950 1_455 S
C738 H734 0.949 . S
C738 C746 1.574 . S
C738 C754 1.368 . S
H739 C747 0.950 . S
H740 C745 0.950 . S
H741 C746 0.949 . S
H742 C748 0.950 . S
H743 C749 0.950 . S
H744 C750 0.949 . S
C745 H740 0.950 . S
C745 C747 1.327 . S
C745 C751 1.429 . S
C746 C738 1.574 . S
C746 H741 0.949 . S
C746 C752 1.368 1_455 S
C747 C731 1.349 . S
C747 H739 0.950 . S
C747 C745 1.327 . S
C748 C736 1.349 . S
C748 H742 0.950 . S
C748 C749 1.327 . S
C749 H743 0.950 . S
C749 C748 1.327 . S
C749 C753 1.429 . S
C750 C733 1.574 . S
C750 H744 0.949 . S
C750 C754 1.368 1_655 S
C751 C732 1.429 . S
C751 C745 1.429 . S
C751 C752 1.523 . S
C752 C733 1.368 . S
C752 C746 1.368 1_655 S
C752 C751 1.523 . S
C753 C737 1.429 . S
C753 C749 1.429 . S
C753 C754 1.523 . S
C754 C738 1.368 . S
C754 C750 1.368 1_455 S
C754 C753 1.523 . S
H755 C730 0.947 1_455 S
H756 C732 0.950 1_455 S
H757 C733 0.949 . S
H758 C735 0.947 1_655 S
H759 C737 0.950 1_655 S
C760 C761 1.349 . S
C760 C762 1.327 . S
C760 H785 0.950 . S
C761 C760 1.349 . S
C761 C777 1.349 . S
C762 C760 1.327 . S
C762 C781 1.429 . S
C762 H786 0.950 . S
C763 C780 1.574 . S
C763 C782 1.368 . S
C763 H787 0.949 . S
H764 C768 0.949 . S
C765 C766 1.349 . S
C765 C767 1.327 . S
C765 H788 0.950 . S
C766 C765 1.349 . S
C766 C778 1.349 . S
C767 C765 1.327 . S
C767 C783 1.429 . S
C767 H789 0.950 . S
C768 H764 0.949 . S
C768 C776 1.574 . S
C768 C784 1.368 . S
H769 C777 0.950 . S
H770 C775 0.950 . S
H771 C776 0.949 . S
H772 C778 0.950 . S
H773 C779 0.950 . S
H774 C780 0.949 . S
C775 H770 0.950 . S
C775 C777 1.327 . S
C775 C781 1.429 . S
C776 C768 1.574 . S
C776 H771 0.949 . S
C776 C782 1.368 . S
C777 C761 1.349 . S
C777 H769 0.950 . S
C777 C775 1.327 . S
C778 C766 1.349 . S
C778 H772 0.950 . S
C778 C779 1.327 . S
C779 H773 0.950 . S
C779 C778 1.327 . S
C779 C783 1.429 . S
C780 C763 1.574 . S
C780 H774 0.949 . S
C780 C784 1.368 . S
C781 C762 1.429 . S
C781 C775 1.429 . S
C781 C782 1.523 . S
C782 C763 1.368 . S
C782 C776 1.368 . S
C782 C781 1.523 . S
C783 C767 1.429 . S
C783 C779 1.429 . S
C783 C784 1.523 . S
C784 C768 1.368 . S
C784 C780 1.368 . S
C784 C783 1.523 . S
H785 C760 0.950 . S
H786 C762 0.950 . S
H787 C763 0.949 . S
H788 C765 0.950 . S
H789 C767 0.950 . S
C790 C791 1.349 . S
C790 C792 1.327 . S
C790 H815 0.950 . S
C791 C790 1.349 . S
C791 C807 1.349 . S
C792 C790 1.327 . S
C792 C811 1.429 . S
C792 H816 0.950 . S
C793 C810 1.574 . S
C793 C812 1.368 . S
C793 H817 0.949 . S
H794 C798 0.949 . S
C795 C796 1.349 . S
C795 C797 1.327 . S
C795 H818 0.950 . S
C796 C795 1.349 . S
C796 C808 1.349 . S
C797 C795 1.327 . S
C797 C813 1.429 . S
C797 H819 0.950 . S
C798 H794 0.949 . S
C798 C806 1.574 . S
C798 C814 1.368 . S
H799 C807 0.950 . S
H800 C805 0.950 . S
H801 C806 0.949 . S
H802 C808 0.950 . S
H803 C809 0.950 . S
H804 C810 0.949 . S
C805 H800 0.950 . S
C805 C807 1.327 . S
C805 C811 1.429 . S
C806 C798 1.574 . S
C806 H801 0.949 . S
C806 C812 1.368 . S
C807 C791 1.349 . S
C807 H799 0.950 . S
C807 C805 1.327 . S
C808 C796 1.349 . S
C808 H802 0.950 . S
C808 C809 1.327 . S
C809 H803 0.950 . S
C809 C808 1.327 . S
C809 C813 1.429 . S
C810 C793 1.574 . S
C810 H804 0.949 . S
C810 C814 1.368 . S
C811 C792 1.429 . S
C811 C805 1.429 . S
C811 C812 1.523 . S
C812 C793 1.368 . S
C812 C806 1.368 . S
C812 C811 1.523 . S
C813 C797 1.429 . S
C813 C809 1.429 . S
C813 C814 1.523 . S
C814 C798 1.368 . S
C814 C810 1.368 . S
C814 C813 1.523 . S
H815 C790 0.950 . S
H816 C792 0.950 . S
H817 C793 0.949 . S
H818 C795 0.950 . S
H819 C797 0.950 . S
C820 C821 1.349 . S
C820 C822 1.327 . S
C820 H845 0.950 . S
C821 C820 1.349 . S
C821 C837 1.349 . S
C822 C820 1.327 . S
C822 C841 1.429 . S
C822 H846 0.950 . S
C823 C840 1.574 . S
C823 C842 1.368 . S
C823 H847 0.949 . S
H824 C828 0.949 . S
C825 C826 1.349 . S
C825 C827 1.327 . S
C825 H848 0.950 . S
C826 C825 1.349 . S
C826 C838 1.349 . S
C827 C825 1.327 . S
C827 C843 1.429 . S
C827 H849 0.950 . S
C828 H824 0.949 . S
C828 C836 1.574 . S
C828 C844 1.368 . S
H829 C837 0.950 . S
H830 C835 0.950 . S
H831 C836 0.949 . S
H832 C838 0.950 . S
H833 C839 0.950 . S
H834 C840 0.949 . S
C835 H830 0.950 . S
C835 C837 1.327 . S
C835 C841 1.429 . S
C836 C828 1.574 . S
C836 H831 0.949 . S
C836 C842 1.368 . S
C837 C821 1.349 . S
C837 H829 0.950 . S
C837 C835 1.327 . S
C838 C826 1.349 . S
C838 H832 0.950 . S
C838 C839 1.327 . S
C839 H833 0.950 . S
C839 C838 1.327 . S
C839 C843 1.429 . S
C840 C823 1.574 . S
C840 H834 0.949 . S
C840 C844 1.368 . S
C841 C822 1.429 . S
C841 C835 1.429 . S
C841 C842 1.523 . S
C842 C823 1.368 . S
C842 C836 1.368 . S
C842 C841 1.523 . S
C843 C827 1.429 . S
C843 C839 1.429 . S
C843 C844 1.523 . S
C844 C828 1.368 . S
C844 C840 1.368 . S
C844 C843 1.523 . S
H845 C820 0.950 . S
H846 C822 0.950 . S
H847 C823 0.949 . S
H848 C825 0.950 . S
H849 C827 0.950 . S
C850 C851 1.349 . S
C850 C852 1.327 . S
C850 H875 0.950 . S
C851 C850 1.349 . S
C851 C867 1.349 . S
C852 C850 1.327 . S
C852 C871 1.429 . S
C852 H876 0.950 . S
C853 C870 1.574 . S
C853 C872 1.368 . S
C853 H877 0.949 . S
H854 C858 0.949 . S
C855 C856 1.349 . S
C855 C857 1.327 . S
C855 H878 0.950 . S
C856 C855 1.349 . S
C856 C868 1.349 . S
C857 C855 1.327 . S
C857 C873 1.429 . S
C857 H879 0.950 . S
C858 H854 0.949 . S
C858 C866 1.574 . S
C858 C874 1.368 . S
H859 C867 0.950 . S
H860 C865 0.950 . S
H861 C866 0.949 . S
H862 C868 0.950 . S
H863 C869 0.950 . S
H864 C870 0.949 . S
C865 H860 0.950 . S
C865 C867 1.327 . S
C865 C871 1.429 . S
C866 C858 1.574 . S
C866 H861 0.949 . S
C866 C872 1.368 . S
C867 C851 1.349 . S
C867 H859 0.950 . S
C867 C865 1.327 . S
C868 C856 1.349 . S
C868 H862 0.950 . S
C868 C869 1.327 . S
C869 H863 0.950 . S
C869 C868 1.327 . S
C869 C873 1.429 . S
C870 C853 1.574 . S
C870 H864 0.949 . S
C870 C874 1.368 . S
C871 C852 1.429 . S
C871 C865 1.429 . S
C871 C872 1.523 . S
C872 C853 1.368 . S
C872 C866 1.368 . S
C872 C871 1.523 . S
C873 C857 1.429 . S
C873 C869 1.429 . S
C873 C874 1.523 . S
C874 C858 1.368 . S
C874 C870 1.368 . S
C874 C873 1.523 . S
H875 C850 0.950 . S
H876 C852 0.950 . S
H877 C853 0.949 . S
H878 C855 0.950 . S
H879 C857 0.950 . S
C161 C2 1.586 . S
C166 C4 1.586 . S
C191 C24 1.586 . S
C196 C22 1.586 . S
C221 C44 1.586 . S
C226 C42 1.586 . S
C251 C62 1.586 . S
C256 C64 1.586 . S
C281 C82 1.586 . S
C286 C84 1.586 . S
C311 C102 1.586 . S
C316 C104 1.586 . S
C341 C124 1.586 . S
C346 C122 1.586 . S
C371 C144 1.586 . S
C376 C142 1.586 . S
C401 C32 1.805 . S
C406 C12 1.805 . S
C431 C72 1.805 . S
C436 C52 1.805 . S
C461 C92 1.805 . S
C466 C112 1.805 . S
C491 C132 1.805 . S
C496 C152 1.805 . S
C521 C9 1.542 . S
C526 C109 1.542 . S
C551 C89 1.542 . S
C556 C29 1.542 . S
C581 C49 1.542 . S
C586 C149 1.542 . S
C611 C69 1.542 . S
C616 C129 1.542 . S
C641 C18 1.560 . S
C646 C78 1.556 . S
C671 C38 1.560 . S
C676 C58 1.556 . S
C701 C39 1.610 . S
C706 C59 1.614 . S
C731 C79 1.610 . S
C736 C19 1.614 . S
C761 C98 1.560 . S
C766 C158 1.556 . S
C791 C118 1.560 . S
C796 C138 1.556 . S
C821 C119 1.610 . S
C826 C139 1.614 . S
C851 C159 1.610 . S
C856 C99 1.614 . S
