# Generated by pormake.
# Topology snp, (6)-cn, num edge types: 1
# Building blocks:
#     Node 0, Type 0, BuildingBlock: GEDQOX_clean_sbu_0, # of connection points: 6
#     Node 1, Type 0, BuildingBlock: GEDQOX_clean_sbu_0, # of connection points: 6
#     Node 2, Type 0, BuildingBlock: GEDQOX_clean_sbu_0, # of connection points: 6
#     Node 3, Type 0, BuildingBlock: GEDQOX_clean_sbu_0, # of connection points: 6
#     Edge 4, Type (0, 0), BuildingBlock: FUNLAD_clean_linker_1, # of connection points: 2
#     Edge 5, Type (0, 0), BuildingBlock: FUNLAD_clean_linker_1, # of connection points: 2
#     Edge 6, Type (0, 0), BuildingBlock: FUNLAD_clean_linker_1, # of connection points: 2
#     Edge 7, Type (0, 0), BuildingBlock: FUNLAD_clean_linker_1, # of connection points: 2
#     Edge 8, Type (0, 0), BuildingBlock: FUNLAD_clean_linker_1, # of connection points: 2
#     Edge 9, Type (0, 0), BuildingBlock: FUNLAD_clean_linker_1, # of connection points: 2
#     Edge 10, Type (0, 0), BuildingBlock: FUNLAD_clean_linker_1, # of connection points: 2
#     Edge 11, Type (0, 0), BuildingBlock: FUNLAD_clean_linker_1, # of connection points: 2
#     Edge 12, Type (0, 0), BuildingBlock: FUNLAD_clean_linker_1, # of connection points: 2
#     Edge 13, Type (0, 0), BuildingBlock: FUNLAD_clean_linker_1, # of connection points: 2
#     Edge 14, Type (0, 0), BuildingBlock: FUNLAD_clean_linker_1, # of connection points: 2
#     Edge 15, Type (0, 0), BuildingBlock: FUNLAD_clean_linker_1, # of connection points: 2
# Relax obj value: 0.196
# Max RMSD: 0.221
# Mean RMSD: 0.208
data_MOF--net-snp--node1-GEDQOX_clean_sbu_0--edge1-FUNLAD_clean_linker_1
_symmetry_space_group_name_H-M    P1
_symmetry_Int_Tables_number       1
_symmetry_cell_setting            triclinic
loop_
_symmetry_equiv_pos_as_xyz
'x, y, z'
_cell_length_a     26.631365
_cell_length_b     25.182707
_cell_length_c     37.206805
_cell_angle_alpha  85.380603
_cell_angle_beta   104.5573
_cell_angle_gamma 97.289951
loop_
_atom_site_label
_atom_site_type_symbol
_atom_site_fract_x
_atom_site_fract_y
_atom_site_fract_z
_atom_type_partial_charge
Nd0 Nd 0.28302 0.99647 0.09589 0.0
Nd1 Nd 0.24408 0.08534 0.13344 0.0
C2 C 0.32563 0.92679 0.06675 0.0
C3 C 0.31888 0.91436 1.02774 0.0
C4 C 0.34564 0.8752 1.01834 0.0
C5 C 0.33819 0.86349 0.98102 0.0
C6 C 0.30359 0.89045 0.95261 0.0
C7 C 0.27764 0.93048 0.96231 0.0
C8 C 0.28504 0.94201 0.99949 0.0
C9 C 0.1777 0.99128 0.08926 0.0
C10 C 0.2403 0.09824 0.0436 0.0
C11 C 0.19193 0.14688 0.16174 0.0
C12 C 0.18103 0.14823 0.19861 0.0
C13 C 0.13775 0.17184 0.20208 0.0
C14 C 0.12727 0.17356 0.23698 0.0
C15 C 0.15957 0.15136 0.26915 0.0
C16 C 0.20271 0.12694 0.26539 0.0
C17 C 0.2131 0.12524 0.23042 0.0
C18 C 0.35003 0.09002 0.14404 0.0
C19 C 0.28492 0.98292 0.1849 0.0
O20 O 0.34884 0.97462 0.07566 0.0
O21 O 0.28438 0.9138 0.08004 0.0
O22 O 0.19703 0.9833 0.06172 0.0
O23 O 0.2134 1.00172 0.11766 0.0
O24 O 0.27026 0.05919 0.04783 0.0
O25 O 0.22241 0.11312 0.07104 0.0
O26 O 0.16959 0.10514 0.14267 0.0
O27 O 0.2405 0.16002 0.15998 0.0
O28 O 0.32786 0.10298 0.16891 0.0
O29 O 0.31677 0.07895 0.11415 0.0
O30 O 0.25181 0.01929 0.17893 0.0
O31 O 0.3072 0.97118 0.15883 0.0
H32 H 0.3721 0.85362 0.03979 0.0
H33 H 0.35909 0.83289 0.97437 0.0
H34 H 0.25209 0.95362 0.9414 0.0
H35 H 0.2643 0.97268 1.0062 0.0
H36 H 0.11215 0.18918 0.17781 0.0
H37 H 0.09377 0.19255 0.23883 0.0
H38 H 0.22916 0.1098 0.28916 0.0
H39 H 0.24651 0.10634 0.22827 0.0
Nd40 Nd 0.05786 0.22558 0.68868 0.0
Nd41 Nd 0.95961 0.23323 0.71465 0.0
C42 C 0.13171 0.23437 0.65168 0.0
C43 C 0.13633 0.21843 0.6152 0.0
C44 C 0.10263 0.23468 0.58166 0.0
C45 C 0.10817 0.21975 0.54749 0.0
C46 C 0.1473 0.18767 0.54607 0.0
C47 C 0.18078 0.17151 0.57973 0.0
C48 C 0.17531 0.18657 0.61384 0.0
C49 C 0.01434 0.13004 0.71414 0.0
C50 C 0.94286 0.21673 0.62794 0.0
C51 C 0.88238 0.22456 0.74844 0.0
C52 C 0.8698 0.20647 0.78422 0.0
C53 C 0.89468 0.23207 0.81727 0.0
C54 C 0.87895 0.21682 0.85012 0.0
C55 C 0.83833 0.17524 0.85059 0.0
C56 C 0.81434 0.14921 0.81765 0.0
C57 C 0.82982 0.16467 0.78484 0.0
C58 C 1.00173 0.32866 0.68739 0.0
C59 C 0.07244 0.23287 0.77521 0.0
O60 O 0.10234 0.27241 0.65149 0.0
O61 O 0.1265 0.19556 0.67646 0.0
O62 O 0.06425 0.14188 0.71854 0.0
O63 O 0.98949 0.16555 0.69438 0.0
O64 O 0.99406 0.22723 0.6338 0.0
O65 O 0.91922 0.21109 0.65533 0.0
O66 O 0.88921 0.18748 0.728 0.0
O67 O 0.91452 0.26823 0.74756 0.0
O68 O 0.95199 0.31351 0.68093 0.0
O69 O 0.02763 0.29467 0.70855 0.0
O70 O 0.02222 0.21521 0.76819 0.0
O71 O 0.09521 0.25042 0.74819 0.0
H72 H 0.07212 0.25928 0.58171 0.0
H73 H 0.08208 0.23428 0.52249 0.0
H74 H 0.21144 0.14706 0.57969 0.0
H75 H 0.20178 0.17342 0.63925 0.0
H76 H 0.92554 0.26464 0.81765 0.0
H77 H 0.89782 0.23886 0.87455 0.0
H78 H 0.78297 0.11712 0.81713 0.0
H79 H 0.80982 0.14449 0.75969 0.0
Nd80 Nd 0.81295 0.96451 0.15572 0.0
Nd81 Nd 0.78847 0.05512 0.20009 0.0
C82 C 0.85302 0.89664 0.12298 0.0
C83 C 0.86262 0.89262 0.08575 0.0
C84 C 0.89525 0.93211 0.07095 0.0
C85 C 0.90289 0.92796 0.03542 0.0
C86 C 0.87797 0.88441 1.01382 0.0
C87 C 0.84535 0.84513 1.02866 0.0
C88 C 0.83805 0.84896 0.06429 0.0
C89 C 0.7096 0.97265 0.14818 0.0
C90 C 0.78726 0.07742 0.1117 0.0
C91 C 0.7518 0.12664 0.23173 0.0
C92 C 0.76158 0.13936 0.27084 0.0
C93 C 0.75298 0.18955 0.28032 0.0
C94 C 0.76752 0.20333 0.31751 0.0
C95 C 0.79055 0.167 0.34567 0.0
C96 C 0.79856 0.11642 0.33592 0.0
C97 C 0.78411 0.10279 0.29887 0.0
C98 C 0.89082 0.05049 0.20269 0.0
C99 C 0.82574 0.94705 0.24708 0.0
O100 O 0.88145 0.93439 0.14383 0.0
O101 O 0.80415 0.8906 0.1249 0.0
O102 O 0.72818 0.95943 0.12152 0.0
O103 O 0.74451 0.97765 0.17815 0.0
O104 O 0.81285 0.03529 0.11368 0.0
O105 O 0.76834 0.08984 0.13924 0.0
O106 O 0.72638 0.07953 0.22312 0.0
O107 O 0.7921 0.13798 0.21723 0.0
O108 O 0.87601 0.06314 0.23127 0.0
O109 O 0.85332 0.0439 0.17485 0.0
O110 O 0.80434 0.99147 0.24732 0.0
O111 O 0.83394 0.92962 0.21658 0.0
H112 H 0.91436 0.96657 0.08659 0.0
H113 H 0.92693 0.95971 1.02451 0.0
H114 H 0.82526 0.81133 1.01258 0.0
H115 H 0.81268 0.81797 0.07496 0.0
H116 H 0.73628 0.2185 0.25892 0.0
H117 H 0.76158 0.24277 0.32424 0.0
H118 H 0.81802 0.08805 0.35643 0.0
H119 H 0.79206 0.06424 0.29202 0.0
Nd120 Nd 0.12478 0.82995 0.58738 0.0
Nd121 Nd 0.0219 0.84301 0.60474 0.0
C122 C 0.20595 0.83541 0.55771 0.0
C123 C 0.21706 0.85358 0.52168 0.0
C124 C 0.18525 0.88753 0.49679 0.0
C125 C 0.19535 0.90328 0.46218 0.0
C126 C 0.23711 0.88514 0.45164 0.0
C127 C 0.26931 0.85157 0.47697 0.0
C128 C 0.25914 0.83583 0.51161 0.0
C129 C 0.07392 0.73595 0.60893 0.0
C130 C 0.01856 0.84417 0.51938 0.0
C131 C 0.94453 0.83626 0.63804 0.0
C132 C 0.94398 0.84285 0.6771 0.0
C133 C 0.98003 0.81978 0.70665 0.0
C134 C 0.98152 0.82898 0.74346 0.0
C135 C 0.94688 0.86111 0.75174 0.0
C136 C 0.91102 0.88463 0.72208 0.0
C137 C 0.90969 0.87554 0.68515 0.0
C138 C 0.07421 0.93649 0.58453 0.0
C139 C 0.13017 0.84292 0.67306 0.0
O140 O 0.19876 0.87262 0.57795 0.0
O141 O 0.17244 0.79267 0.55743 0.0
O142 O 0.12409 0.74827 0.61897 0.0
O143 O 0.05198 0.77199 0.58708 0.0
O144 O 0.06992 0.85299 0.53087 0.0
O145 O 0.98892 0.82995 0.54291 0.0
O146 O 0.96464 0.79423 0.63149 0.0
O147 O 0.95897 0.87975 0.61989 0.0
O148 O 0.02367 0.92713 0.57592 0.0
O149 O 0.09493 0.89952 0.6057 0.0
O150 O 0.0788 0.83883 0.66253 0.0
O151 O 0.15938 0.8446 0.64905 0.0
H152 H 0.15255 0.90176 0.50407 0.0
H153 H 0.17017 0.92945 0.44344 0.0
H154 H 0.30275 0.83781 0.47055 0.0
H155 H 0.28419 0.80974 0.53057 0.0
H156 H 0.00752 0.79495 0.7014 0.0
H157 H 0.00985 0.81066 0.76559 0.0
H158 H 0.88466 0.91095 0.72702 0.0
H159 H 0.88232 0.89468 0.66282 0.0
H160 H 0.95855 1.00723 0.20986 0.0
C161 C 0.94404 0.04582 0.20114 0.0
H162 H 0.94939 0.11814 0.16962 0.0
H163 H 0.14586 0.96731 0.17418 0.0
H164 H 0.16694 0.97102 0.24104 0.0
H165 H 0.11846 0.02285 0.2715 0.0
H166 H 0.04588 0.06838 0.23511 0.0
C167 C 0.96618 0.08081 0.17898 0.0
C168 C 1.00413 0.06376 0.16018 0.0
C169 C 0.04894 0.04095 0.18138 0.0
C170 C 0.07825 0.01326 0.1635 0.0
C171 C 0.12152 0.98871 0.18585 0.0
C172 C 0.13479 0.99118 0.2244 0.0
C173 C 0.10715 0.01989 0.24161 0.0
C174 C 0.06516 0.04519 0.22044 0.0
H175 H 0.12058 0.04892 0.07497 0.0
C176 C 0.12609 1.00795 0.08534 0.0
H177 H 0.10384 0.9416 0.11759 0.0
H178 H 0.92316 0.10863 0.11034 0.0
H179 H 0.90346 0.10826 0.04349 0.0
H180 H 0.95643 0.06323 1.01223 0.0
H181 H 0.02833 0.01654 0.04802 0.0
C182 C 0.09579 0.98167 0.10624 0.0
C183 C 0.06432 0.01108 0.12409 0.0
C184 C 0.02209 0.03791 0.10259 0.0
C185 C 0.9918 0.06423 0.12068 0.0
C186 C 0.94847 0.08887 0.09852 0.0
C187 C 0.93646 0.08892 0.05987 0.0
C188 C 0.96636 0.06369 0.04228 0.0
C189 C 0.00804 0.03754 0.06324 0.0
H190 H 0.12647 0.99319 0.55865 0.0
C191 C 0.10233 0.98909 0.57849 0.0
H192 H 0.12107 0.06977 0.59135 0.0
H193 H 0.91792 0.04756 0.65976 0.0
H194 H 0.87231 0.06482 0.59546 0.0
H195 H 0.91668 0.06348 0.54488 0.0
H196 H 0.00778 0.04697 0.55848 0.0
C197 C 0.09962 0.03176 0.597 0.0
C198 C 0.07142 0.02822 0.62711 0.0
C199 C 0.01836 0.03784 0.61872 0.0
C200 C 0.99252 0.03752 0.64781 0.0
C201 C 0.93955 0.04763 0.63872 0.0
C202 C 0.91283 0.05733 0.60193 0.0
C203 C 0.9379 0.05679 0.57346 0.0
C204 C 0.99013 0.04742 0.58161 0.0
H205 H 0.9663 0.08098 0.74759 0.0
C206 C 0.98964 0.07937 0.7277 0.0
H207 H 0.97608 0.99543 0.72744 0.0
H208 H 0.17216 1.00439 0.6523 0.0
H209 H 0.21591 0.98155 0.71601 0.0
H210 H 0.17007 0.97749 0.76633 0.0
H211 H 0.08013 0.99799 0.7531 0.0
C212 C 0.99417 0.03163 0.71585 0.0
C213 C 0.01968 0.02689 0.68516 0.0
C214 C 0.07164 0.01387 0.6933 0.0
C215 C 0.09783 0.01527 0.66428 0.0
C216 C 0.15028 1.00359 0.67325 0.0
C217 C 0.17585 0.99031 0.70975 0.0
C218 C 0.15003 0.98821 0.73806 0.0
C219 C 0.09854 1.00005 0.73012 0.0
H220 H 0.63313 0.98926 0.11323 0.0
C221 C 0.65653 0.98774 0.14174 0.0
H222 H 0.65856 0.99739 0.19797 0.0
H223 H 0.47574 0.14669 0.10109 0.0
H224 H 0.54866 0.20671 0.08809 0.0
H225 H 0.6386 0.18203 0.10886 0.0
H226 H 0.65615 0.09719 0.14257 0.0
C227 C 0.6369 1.00109 0.16914 0.0
C228 C 0.58384 0.01876 0.16039 0.0
C229 C 0.57446 0.069 0.14129 0.0
C230 C 0.52277 0.08362 0.12987 0.0
C231 C 0.51433 0.13372 0.1105 0.0
C232 C 0.55581 0.16855 0.1029 0.0
C233 C 0.60644 0.15462 0.11454 0.0
C234 C 0.61592 0.1056 0.13364 0.0
H235 H 0.42679 0.08086 0.18178 0.0
C236 C 0.40478 0.07915 0.15293 0.0
H237 H 0.40653 0.06482 0.09814 0.0
H238 H 0.58914 0.92108 0.19824 0.0
H239 H 0.51634 0.86125 0.21154 0.0
H240 H 0.42637 0.88586 0.19073 0.0
H241 H 0.40877 0.97038 0.15671 0.0
C242 C 0.42712 0.06462 0.12731 0.0
C243 C 0.48087 0.04856 0.13829 0.0
C244 C 0.49036 0.99861 0.15781 0.0
C245 C 0.54205 0.98401 0.16926 0.0
C246 C 0.55055 0.93403 0.18878 0.0
C247 C 0.50913 0.8993 0.19658 0.0
C248 C 0.4585 0.91318 0.18492 0.0
C249 C 0.44897 0.96206 0.16562 0.0
H250 H 0.06591 0.3938 0.68721 0.0
C251 C 0.02397 0.38339 0.67815 0.0
H252 H 0.9512 0.41064 0.65218 0.0
H253 H 0.01987 0.65549 0.68053 0.0
H254 H 0.96341 0.63204 0.72258 0.0
H255 H 0.92943 0.53791 0.73337 0.0
H256 H 0.95201 0.4666 0.70235 0.0
C257 C 0.9933 0.42061 0.66003 0.0
C258 C 0.01429 0.47748 0.65322 0.0
C259 C 0.99992 0.51901 0.67101 0.0
C260 C 0.01911 0.57349 0.6645 0.0
C261 C 1.00561 0.61368 0.68377 0.0
C262 C 0.97339 0.60074 0.70817 0.0
C263 C 0.95429 0.54774 0.71426 0.0
C264 C 0.96742 0.50719 0.69612 0.0
H265 H 1.0062 0.67346 0.60441 0.0
C266 C 0.04799 0.68188 0.61577 0.0
H267 H 0.11779 0.651 0.64491 0.0
H268 H 0.04522 0.40884 0.61147 0.0
H269 H 0.10173 0.43238 0.56947 0.0
H270 H 0.13633 0.52644 0.55916 0.0
H271 H 0.11421 0.59762 0.59059 0.0
C272 C 0.07571 0.64292 0.63476 0.0
C273 C 0.05218 0.58657 0.63981 0.0
C274 C 0.06612 0.54512 0.62175 0.0
C275 C 0.04681 0.49067 0.62815 0.0
C276 C 0.05989 0.4506 0.60855 0.0
C277 C 0.09205 0.4636 0.58411 0.0
C278 C 0.11149 0.51655 0.57828 0.0
C279 C 0.09864 0.55701 0.59665 0.0
H280 H 0.19235 0.15511 0.51182 0.0
C281 C 0.15627 0.17206 0.51042 0.0
H282 H 0.08631 0.19389 0.4734 0.0
H283 H 0.21358 0.23151 0.34579 0.0
H284 H 0.23381 0.32033 0.36972 0.0
H285 H 0.20938 0.33985 0.42658 0.0
H286 H 0.16522 0.27025 0.46021 0.0
C287 C 0.12321 0.17796 0.47674 0.0
C288 C 0.13731 0.16571 0.44217 0.0
C289 C 0.16158 0.20713 0.42211 0.0
C290 C 0.1741 0.19625 0.38859 0.0
C291 C 0.20107 0.23785 0.37044 0.0
C292 C 0.2134 0.28902 0.38408 0.0
C293 C 0.19976 0.29999 0.41614 0.0
C294 C 0.17434 0.25966 0.43513 0.0
H295 H 0.11911 0.18369 0.30644 0.0
C296 C 0.14803 0.15709 0.30586 0.0
H297 H 0.19862 0.10386 0.33927 0.0
H298 H 0.09288 0.07696 0.47455 0.0
H299 H 0.07129 0.98794 0.45039 0.0
H300 H 0.08977 0.96966 0.3911 0.0
H301 H 0.13041 0.04001 0.35574 0.0
C302 C 0.17171 0.13309 0.33836 0.0
C303 C 0.16043 0.14429 0.37429 0.0
C304 C 0.13675 0.10267 0.39469 0.0
C305 C 0.12542 0.11335 0.42872 0.0
C306 C 0.10188 0.07106 0.44847 0.0
C307 C 0.08934 0.01981 0.43493 0.0
C308 C 0.0998 0.00951 0.40155 0.0
C309 C 0.12324 0.05024 0.38157 0.0
H310 H 0.78051 0.13469 0.88003 0.0
C311 C 0.81813 0.159 0.88409 0.0
H312 H 0.88147 0.19471 0.92487 0.0
H313 H 0.74709 0.20318 0.04186 0.0
H314 H 0.76222 0.29758 1.02409 0.0
H315 H 0.80452 0.32677 0.97286 0.0
H316 H 0.83145 0.26176 0.93886 0.0
C317 C 0.84394 0.17061 0.91903 0.0
C318 C 0.82065 0.15266 0.951 0.0
C319 C 0.80632 0.19127 0.97117 0.0
C320 C 0.78303 0.17456 1.00127 0.0
C321 C 0.76673 0.21382 1.01972 0.0
C322 C 0.77474 0.26811 1.00956 0.0
C323 C 0.79847 0.28453 0.98068 0.0
C324 C 0.81387 0.24676 0.96146 0.0
H325 H 0.82005 0.14547 0.08174 0.0
C326 C 0.78695 0.1148 0.07956 0.0
H327 H 0.72633 0.0685 0.04443 0.0
H328 H 0.84562 0.06808 0.9193 0.0
H329 H 0.8288 0.97393 0.93611 0.0
H330 H 0.78913 0.94492 0.9886 0.0
H331 H 0.76661 0.00953 1.02455 0.0
C332 C 0.75751 0.10125 0.04609 0.0
C333 C 0.77575 0.11932 1.01195 0.0
C334 C 0.78966 0.08059 0.99154 0.0
C335 C 0.81228 0.09728 0.96113 0.0
C336 C 0.82709 0.0578 0.94197 0.0
C337 C 0.81822 1.0035 0.95161 0.0
C338 C 0.79595 0.98717 0.98114 0.0
C339 C 0.78262 0.02498 1.00135 0.0
H340 H 0.02121 0.87666 0.4632 0.0
C341 C 0.9951 0.85703 0.47969 0.0
H342 H 0.91709 0.8301 0.4802 0.0
H343 H 0.8075 0.98133 0.34942 0.0
H344 H 0.77923 1.00729 0.40172 0.0
H345 H 0.81667 0.97219 0.46533 0.0
H346 H 0.8814 0.90956 0.47685 0.0
C347 C 0.94372 0.84837 0.46373 0.0
C348 C 0.92143 0.86942 0.42485 0.0
C349 C 0.88413 0.90686 0.41858 0.0
C350 C 0.86423 0.92903 0.38204 0.0
C351 C 0.82548 0.96466 0.37663 0.0
C352 C 0.80862 0.97979 0.40643 0.0
C353 C 0.82954 0.95986 0.44221 0.0
C354 C 0.86666 0.92372 0.44838 0.0
H355 H 0.84223 0.87371 0.28317 0.0
C356 C 0.84367 0.91703 0.2829 0.0
H357 H 0.86677 0.98667 0.31317 0.0
H358 H 0.98472 0.79157 0.42499 0.0
H359 H 0.02125 0.7735 0.37435 0.0
H360 H 0.99882 0.82373 0.31383 0.0
H361 H 0.93813 0.8904 0.30312 0.0
C362 C 0.86471 0.94318 0.31438 0.0
C363 C 0.88334 0.91586 0.35185 0.0
C364 C 0.92211 0.87984 0.35839 0.0
C365 C 0.93891 0.85448 0.39438 0.0
C366 C 0.97345 0.8147 0.39905 0.0
C367 C 0.99436 0.80356 0.3701 0.0
C368 C 0.98146 0.83157 0.33597 0.0
C369 C 0.9459 0.86933 0.33004 0.0
H370 H 0.12754 0.85623 0.72989 0.0
C371 C 0.15349 0.84809 0.71309 0.0
H372 H 0.23019 0.83401 0.71373 0.0
H373 H 0.32231 0.95534 0.86426 0.0
H374 H 0.36883 1.00591 0.82206 0.0
H375 H 0.34987 0.9838 0.75627 0.0
H376 H 0.28402 0.91125 0.73221 0.0
C377 C 0.20335 0.84159 0.72992 0.0
C378 C 0.22264 0.84718 0.77097 0.0
C379 C 0.26285 0.88822 0.78496 0.0
C380 C 0.27439 0.90042 0.8231 0.0
C381 C 0.31269 0.9436 0.83581 0.0
C382 C 0.33958 0.97311 0.81183 0.0
C383 C 0.32888 0.9607 0.77478 0.0
C384 C 0.29095 0.91889 0.76133 0.0
H385 H 0.32582 0.85603 0.90642 0.0
C386 C 0.29622 0.87669 0.91325 0.0
H387 H 0.22156 0.90339 0.89239 0.0
H388 H 0.15326 0.75698 0.75558 0.0
H389 H 0.10748 0.70551 0.79792 0.0
H390 H 0.12473 0.72905 0.86333 0.0
H391 H 0.18839 0.80374 0.88688 0.0
C392 C 0.25386 0.88679 0.88614 0.0
C393 C 0.24646 0.87072 0.84734 0.0
C394 C 0.20869 0.82743 0.83389 0.0
C395 C 0.19756 0.81491 0.7959 0.0
C396 C 0.16138 0.76985 0.78371 0.0
C397 C 0.13528 0.73956 0.80783 0.0
C398 C 0.14507 0.75275 0.84467 0.0
C399 C 0.18155 0.79588 0.85778 0.0
H400 H 0.85148 0.85526 0.95689 0.0
C401 C 0.88235 0.88019 0.97501 0.0
H402 H 0.95424 0.9289 0.97857 0.0
H403 H 0.90671 0.78531 0.82617 0.0
H404 H 0.91297 0.70705 0.86868 0.0
H405 H 0.92721 0.71595 0.93614 0.0
H406 H 0.93392 0.80308 0.9613 0.0
C407 C 0.92239 0.90416 0.96131 0.0
C408 C 0.92336 0.89935 0.92165 0.0
C409 C 0.9225 0.84835 0.90759 0.0
C410 C 0.91757 0.84356 0.86894 0.0
C411 C 0.91295 0.7917 0.85541 0.0
C412 C 0.91614 0.7463 0.87951 0.0
C413 C 0.9239 0.75128 0.91745 0.0
C414 C 0.92714 0.80155 0.93148 0.0
H415 H 0.98503 0.85862 0.81196 0.0
C416 C 0.95021 0.86926 0.79156 0.0
H417 H 0.87602 0.89634 0.78509 0.0
H418 H 0.93015 1.00384 0.93983 0.0
H419 H 0.92997 0.08257 0.89785 0.0
H420 H 0.92429 0.07456 0.83134 0.0
H421 H 0.91856 0.98733 0.80624 0.0
C422 C 0.91173 0.88557 0.80411 0.0
C423 C 0.9168 0.89012 0.84468 0.0
C424 C 0.92042 0.94133 0.85904 0.0
C425 C 0.92395 0.946 0.89754 0.0
C426 C 0.92747 0.99777 0.91093 0.0
C427 C 0.92755 0.04343 0.88714 0.0
C428 C 0.92422 0.03888 0.84965 0.0
C429 C 0.92079 0.98856 0.83561 0.0
H430 H 0.31873 0.92038 0.22653 0.0
C431 C 0.2957 0.95405 0.22176 0.0
H432 H 0.25568 1.00458 0.24461 0.0
H433 H 0.23083 0.79838 0.36027 0.0
H434 H 0.18682 0.74737 0.3065 0.0
H435 H 0.18502 0.78528 0.24304 0.0
H436 H 0.22763 0.8739 0.23293 0.0
C437 C 0.27614 0.96904 0.24898 0.0
C438 C 0.28317 0.94212 0.28669 0.0
C439 C 0.25797 0.88995 0.29196 0.0
C440 C 0.25792 0.86851 0.32857 0.0
C441 C 0.23201 0.81663 0.33312 0.0
C442 C 0.20647 0.78694 0.30249 0.0
C443 C 0.20552 0.80826 0.26676 0.0
C444 C 0.23058 0.8592 0.26138 0.0
H445 H 0.22669 0.93712 0.40005 0.0
C446 C 0.24631 0.90333 0.41454 0.0
H447 H 0.29354 0.84388 0.40937 0.0
H448 H 0.33704 0.04224 0.28645 0.0
H449 H 0.37993 0.09354 0.34029 0.0
H450 H 0.38023 0.05602 0.40366 0.0
H451 H 0.3372 0.96718 0.41351 0.0
C452 C 0.27597 0.87984 0.39738 0.0
C453 C 0.28164 0.89982 0.35965 0.0
C454 C 0.30843 0.95111 0.35444 0.0
C455 C 0.30886 0.97239 0.31795 0.0
C456 C 0.33509 0.02421 0.31353 0.0
C457 C 0.36014 0.05401 0.34421 0.0
C458 C 0.36027 0.03291 0.37988 0.0
C459 C 0.33507 0.98199 0.38512 0.0
H460 H 0.13608 0.26246 0.82235 0.0
C461 C 0.10363 0.2316 0.8141 0.0
H462 H 0.06059 0.16155 0.82953 0.0
H463 H 0.27611 0.19647 0.97013 0.0
H464 H 0.32767 0.20378 0.92428 0.0
H465 H 0.2849 0.19931 0.85742 0.0
H466 H 0.19083 0.19023 0.836 0.0
C467 C 0.09292 0.19229 0.83874 0.0
C468 C 0.12043 0.19016 0.87917 0.0
C469 C 0.1756 0.1908 0.89119 0.0
C470 C 0.20024 0.18784 0.92991 0.0
C471 C 0.25546 0.1946 0.94116 0.0
C472 C 0.2855 0.1993 0.91514 0.0
C473 C 0.26142 0.19717 0.87751 0.0
C474 C 0.20719 0.19275 0.86553 0.0
H475 H 0.23051 0.10032 0.98327 0.0
C476 C 0.22253 0.12116 1.00537 0.0
H477 H 0.18526 0.18351 1.01819 0.0
H478 H 0.01459 0.19273 0.8667 0.0
H479 H 0.96348 0.17714 0.91253 0.0
H480 H 1.00516 0.15948 0.97869 0.0
H481 H 0.09873 0.15911 0.99968 0.0
C482 C 0.1944 0.16311 0.99639 0.0
C483 C 0.16969 0.17756 0.95652 0.0
C484 C 0.1146 0.17653 0.94457 0.0
C485 C 0.09018 0.18423 0.90607 0.0
C486 C 0.03527 0.18519 0.89529 0.0
C487 C 1.00529 0.1766 0.92136 0.0
C488 C 0.02881 0.16681 0.95863 0.0
C489 C 0.08275 0.16682 0.97028 0.0
H490 H 0.8194 0.2273 0.38831 0.0
C491 C 0.80993 0.18453 0.38432 0.0
H492 H 0.80815 0.10732 0.41151 0.0
H493 H 0.99895 0.17031 0.54505 0.0
H494 H 0.03742 0.11545 0.5111 0.0
H495 H 0.98883 0.08375 0.44963 0.0
H496 H 0.90156 0.10723 0.42174 0.0
C497 C 0.8178 0.15018 0.41428 0.0
C498 C 0.846 0.16894 0.45157 0.0
C499 C 0.89704 0.15479 0.46748 0.0
C500 C 0.92519 0.17346 0.50273 0.0
C501 C 0.97606 0.15843 0.518 0.0
C502 C 0.9986 0.1266 0.49886 0.0
C503 C 0.97121 0.10864 0.46434 0.0
C504 C 0.92103 0.12238 0.4487 0.0
H505 H 0.87251 0.18632 0.5864 0.0
C506 C 0.91159 0.20726 0.58992 0.0
H507 H 0.96992 0.24286 0.56362 0.0
H508 H 0.74735 0.19968 0.43015 0.0
H509 H 0.71063 0.25948 0.46211 0.0
H510 H 0.76213 0.29798 0.52081 0.0
H511 H 0.85009 0.27594 0.54826 0.0
C512 C 0.93075 0.22218 0.56006 0.0
C513 C 0.90204 0.2059 0.52213 0.0
C514 C 0.85161 0.22151 0.50558 0.0
C515 C 0.82301 0.20177 0.47071 0.0
C516 C 0.77156 0.21526 0.45584 0.0
C517 C 0.7499 0.24934 0.47399 0.0
C518 C 0.77881 0.27081 0.50711 0.0
C519 C 0.82911 0.25735 0.52278 0.0
loop_
_geom_bond_atom_site_label_1
_geom_bond_atom_site_label_2
_geom_bond_distance
_geom_bond_site_symmetry_2
_ccdc_geom_bond_type
Nd0 C2 2.836 1_554 S
Nd0 O20 2.500 . S
Nd0 O21 2.492 . S
Nd0 O22 2.487 . S
Nd0 O23 2.682 1_565 S
Nd0 O24 2.410 1_565 S
Nd0 O29 2.414 1_565 S
Nd0 O31 2.424 . S
Nd1 C11 2.836 . S
Nd1 O23 2.414 . S
Nd1 O25 2.424 . S
Nd1 O26 2.500 . S
Nd1 O27 2.492 . S
Nd1 O28 2.487 . S
Nd1 O29 2.682 . S
Nd1 O30 2.410 . S
C2 Nd0 2.836 1_556 S
C2 C3 1.498 . S
C2 O20 1.258 1_556 S
C2 O21 1.239 1_556 S
C3 C2 1.498 . S
C3 C4 1.366 . S
C3 C8 1.407 . S
C4 C3 1.366 . S
C4 C5 1.392 . S
C4 H32 0.930 . S
C5 C4 1.392 . S
C5 C6 1.398 . S
C5 H33 0.929 . S
C6 C5 1.398 . S
C6 C7 1.352 . S
C7 C6 1.352 . S
C7 C8 1.384 . S
C7 H34 0.930 . S
C8 C3 1.407 . S
C8 C7 1.384 . S
C8 H35 0.929 . S
C9 O22 1.241 1_545 S
C9 O23 1.273 . S
C10 O24 1.251 . S
C10 O25 1.268 . S
C11 Nd1 2.836 . S
C11 C12 1.498 . S
C11 O26 1.258 . S
C11 O27 1.239 . S
C12 C11 1.498 . S
C12 C13 1.366 . S
C12 C17 1.407 . S
C13 C12 1.366 . S
C13 C14 1.392 . S
C13 H36 0.930 . S
C14 C13 1.392 . S
C14 C15 1.398 . S
C14 H37 0.929 . S
C15 C14 1.398 . S
C15 C16 1.352 . S
C16 C15 1.352 . S
C16 C17 1.384 . S
C16 H38 0.930 . S
C17 C12 1.407 . S
C17 C16 1.384 . S
C17 H39 0.929 . S
C18 O28 1.241 . S
C18 O29 1.273 . S
C19 O30 1.251 1_565 S
C19 O31 1.268 . S
O20 Nd0 2.500 . S
O20 C2 1.258 1_554 S
O21 Nd0 2.492 . S
O21 C2 1.239 1_554 S
O22 Nd0 2.487 . S
O22 C9 1.241 1_565 S
O23 Nd0 2.682 1_545 S
O23 Nd1 2.414 . S
O23 C9 1.273 . S
O24 Nd0 2.410 1_545 S
O24 C10 1.251 . S
O25 Nd1 2.424 . S
O25 C10 1.268 . S
O26 Nd1 2.500 . S
O26 C11 1.258 . S
O27 Nd1 2.492 . S
O27 C11 1.239 . S
O28 Nd1 2.487 . S
O28 C18 1.241 . S
O29 Nd0 2.414 1_545 S
O29 Nd1 2.682 . S
O29 C18 1.273 . S
O30 Nd1 2.410 . S
O30 C19 1.251 1_545 S
O31 Nd0 2.424 . S
O31 C19 1.268 . S
H32 C4 0.930 . S
H33 C5 0.929 . S
H34 C7 0.930 . S
H35 C8 0.929 . S
H36 C13 0.930 . S
H37 C14 0.929 . S
H38 C16 0.930 . S
H39 C17 0.929 . S
Nd40 C42 2.836 . S
Nd40 O60 2.500 . S
Nd40 O61 2.492 . S
Nd40 O62 2.487 . S
Nd40 O63 2.682 . S
Nd40 O64 2.410 . S
Nd40 O69 2.414 . S
Nd40 O71 2.424 . S
Nd41 C51 2.836 . S
Nd41 O63 2.414 1_655 S
Nd41 O65 2.424 . S
Nd41 O66 2.500 . S
Nd41 O67 2.492 . S
Nd41 O68 2.487 1_655 S
Nd41 O69 2.682 1_655 S
Nd41 O70 2.410 1_655 S
C42 Nd40 2.836 . S
C42 C43 1.498 . S
C42 O60 1.258 . S
C42 O61 1.239 . S
C43 C42 1.498 . S
C43 C44 1.366 . S
C43 C48 1.407 . S
C44 C43 1.366 . S
C44 C45 1.392 . S
C44 H72 0.930 . S
C45 C44 1.392 . S
C45 C46 1.398 . S
C45 H73 0.929 . S
C46 C45 1.398 . S
C46 C47 1.352 . S
C47 C46 1.352 . S
C47 C48 1.384 . S
C47 H74 0.930 . S
C48 C43 1.407 . S
C48 C47 1.384 . S
C48 H75 0.929 . S
C49 O62 1.241 . S
C49 O63 1.273 . S
C50 O64 1.251 . S
C50 O65 1.268 1_455 S
C51 Nd41 2.836 . S
C51 C52 1.498 . S
C51 O66 1.258 . S
C51 O67 1.239 . S
C52 C51 1.498 . S
C52 C53 1.366 . S
C52 C57 1.407 . S
C53 C52 1.366 . S
C53 C54 1.392 . S
C53 H76 0.930 . S
C54 C53 1.392 . S
C54 C55 1.398 . S
C54 H77 0.929 . S
C55 C54 1.398 . S
C55 C56 1.352 . S
C56 C55 1.352 . S
C56 C57 1.384 . S
C56 H78 0.930 . S
C57 C52 1.407 . S
C57 C56 1.384 . S
C57 H79 0.929 . S
C58 O68 1.241 . S
C58 O69 1.273 . S
C59 O70 1.251 . S
C59 O71 1.268 . S
O60 Nd40 2.500 . S
O60 C42 1.258 . S
O61 Nd40 2.492 . S
O61 C42 1.239 . S
O62 Nd40 2.487 . S
O62 C49 1.241 . S
O63 Nd40 2.682 . S
O63 Nd41 2.414 1_455 S
O63 C49 1.273 . S
O64 Nd40 2.410 . S
O64 C50 1.251 . S
O65 Nd41 2.424 . S
O65 C50 1.268 1_655 S
O66 Nd41 2.500 . S
O66 C51 1.258 . S
O67 Nd41 2.492 . S
O67 C51 1.239 . S
O68 Nd41 2.487 1_455 S
O68 C58 1.241 . S
O69 Nd40 2.414 . S
O69 Nd41 2.682 1_455 S
O69 C58 1.273 . S
O70 Nd41 2.410 1_455 S
O70 C59 1.251 . S
O71 Nd40 2.424 . S
O71 C59 1.268 . S
H72 C44 0.930 . S
H73 C45 0.929 . S
H74 C47 0.930 . S
H75 C48 0.929 . S
H76 C53 0.930 . S
H77 C54 0.929 . S
H78 C56 0.930 . S
H79 C57 0.929 . S
Nd80 C82 2.836 . S
Nd80 O100 2.500 . S
Nd80 O101 2.492 . S
Nd80 O102 2.487 . S
Nd80 O103 2.682 1_565 S
Nd80 O104 2.410 1_565 S
Nd80 O109 2.414 1_565 S
Nd80 O111 2.424 . S
Nd81 C91 2.836 . S
Nd81 O103 2.414 . S
Nd81 O105 2.424 . S
Nd81 O106 2.500 . S
Nd81 O107 2.492 . S
Nd81 O108 2.487 . S
Nd81 O109 2.682 . S
Nd81 O110 2.392 1_545 S
C82 Nd80 2.836 . S
C82 C83 1.498 . S
C82 O100 1.258 . S
C82 O101 1.239 . S
C83 C82 1.498 . S
C83 C84 1.366 . S
C83 C88 1.407 1_554 S
C84 C83 1.366 . S
C84 C85 1.392 1_554 S
C84 H112 0.930 . S
C85 C84 1.392 1_556 S
C85 C86 1.398 . S
C85 H113 0.929 . S
C86 C85 1.398 . S
C86 C87 1.352 . S
C87 C86 1.352 . S
C87 C88 1.384 . S
C87 H114 0.930 . S
C88 C83 1.407 1_556 S
C88 C87 1.384 . S
C88 H115 0.929 1_556 S
C89 O102 1.241 . S
C89 O103 1.273 1_565 S
C90 O104 1.251 . S
C90 O105 1.268 . S
C91 Nd81 2.836 . S
C91 C92 1.498 . S
C91 O106 1.258 . S
C91 O107 1.239 . S
C92 C91 1.498 . S
C92 C93 1.366 . S
C92 C97 1.407 . S
C93 C92 1.366 . S
C93 C94 1.392 . S
C93 H116 0.930 . S
C94 C93 1.392 . S
C94 C95 1.398 . S
C94 H117 0.929 . S
C95 C94 1.398 . S
C95 C96 1.352 . S
C96 C95 1.352 . S
C96 C97 1.384 . S
C96 H118 0.930 . S
C97 C92 1.407 . S
C97 C96 1.384 . S
C97 H119 0.929 . S
C98 O108 1.241 . S
C98 O109 1.273 . S
C99 O110 1.270 . S
C99 O111 1.268 . S
O100 Nd80 2.500 . S
O100 C82 1.258 . S
O101 Nd80 2.492 . S
O101 C82 1.239 . S
O102 Nd80 2.487 . S
O102 C89 1.241 . S
O103 Nd80 2.682 1_545 S
O103 Nd81 2.414 . S
O103 C89 1.273 1_545 S
O104 Nd80 2.410 1_545 S
O104 C90 1.251 . S
O105 Nd81 2.424 . S
O105 C90 1.268 . S
O106 Nd81 2.500 . S
O106 C91 1.258 . S
O107 Nd81 2.492 . S
O107 C91 1.239 . S
O108 Nd81 2.487 . S
O108 C98 1.241 . S
O109 Nd80 2.414 1_545 S
O109 Nd81 2.682 . S
O109 C98 1.273 . S
O110 Nd81 2.392 1_565 S
O110 C99 1.270 . S
O111 Nd80 2.424 . S
O111 C99 1.268 . S
H112 C84 0.930 . S
H113 C85 0.929 . S
H114 C87 0.930 . S
H115 C88 0.929 1_554 S
H116 C93 0.930 . S
H117 C94 0.929 . S
H118 C96 0.930 . S
H119 C97 0.929 . S
Nd120 C122 2.836 . S
Nd120 O140 2.500 . S
Nd120 O141 2.492 . S
Nd120 O142 2.487 . S
Nd120 O143 2.682 1_455 S
Nd120 O144 2.410 1_455 S
Nd120 O149 2.414 . S
Nd120 O151 2.424 . S
Nd121 C131 2.836 . S
Nd121 O143 2.414 . S
Nd121 O145 2.424 . S
Nd121 O146 2.500 . S
Nd121 O147 2.492 . S
Nd121 O148 2.487 . S
Nd121 O149 2.682 1_655 S
Nd121 O150 2.410 1_655 S
C122 Nd120 2.836 . S
C122 C123 1.498 . S
C122 O140 1.258 . S
C122 O141 1.239 . S
C123 C122 1.498 . S
C123 C124 1.366 . S
C123 C128 1.407 . S
C124 C123 1.366 . S
C124 C125 1.392 . S
C124 H152 0.930 . S
C125 C124 1.392 . S
C125 C126 1.398 . S
C125 H153 0.929 . S
C126 C125 1.398 . S
C126 C127 1.352 . S
C127 C126 1.352 . S
C127 C128 1.384 . S
C127 H154 0.930 . S
C128 C123 1.407 . S
C128 C127 1.384 . S
C128 H155 0.929 . S
C129 O142 1.241 . S
C129 O143 1.273 1_455 S
C130 O144 1.251 . S
C130 O145 1.268 . S
C131 Nd121 2.836 . S
C131 C132 1.498 . S
C131 O146 1.258 . S
C131 O147 1.239 . S
C132 C131 1.498 . S
C132 C133 1.366 . S
C132 C137 1.407 . S
C133 C132 1.366 . S
C133 C134 1.392 . S
C133 H156 0.930 . S
C134 C133 1.392 . S
C134 C135 1.398 . S
C134 H157 0.929 . S
C135 C134 1.398 . S
C135 C136 1.352 . S
C136 C135 1.352 . S
C136 C137 1.384 . S
C136 H158 0.930 . S
C137 C132 1.407 . S
C137 C136 1.384 . S
C137 H159 0.929 . S
C138 O148 1.241 . S
C138 O149 1.273 1_655 S
C139 O150 1.251 . S
C139 O151 1.268 . S
O140 Nd120 2.500 . S
O140 C122 1.258 . S
O141 Nd120 2.492 . S
O141 C122 1.239 . S
O142 Nd120 2.487 . S
O142 C129 1.241 . S
O143 Nd120 2.682 1_655 S
O143 Nd121 2.414 . S
O143 C129 1.273 1_655 S
O144 Nd120 2.410 1_655 S
O144 C130 1.251 . S
O145 Nd121 2.424 . S
O145 C130 1.268 . S
O146 Nd121 2.500 . S
O146 C131 1.258 . S
O147 Nd121 2.492 . S
O147 C131 1.239 . S
O148 Nd121 2.487 . S
O148 C138 1.241 . S
O149 Nd120 2.414 . S
O149 Nd121 2.682 1_455 S
O149 C138 1.273 1_455 S
O150 Nd121 2.410 1_455 S
O150 C139 1.251 . S
O151 Nd120 2.424 . S
O151 C139 1.268 . S
H152 C124 0.930 . S
H153 C125 0.929 . S
H154 C127 0.930 . S
H155 C128 0.929 . S
H156 C133 0.930 . S
H157 C134 0.929 . S
H158 C136 0.930 . S
H159 C137 0.929 . S
H160 C161 0.946 1_565 S
C161 H160 0.946 1_545 S
C161 C167 1.268 . S
H162 C167 0.950 . S
H163 C171 0.949 1_565 S
H164 C172 0.950 . S
H165 C173 0.950 1_565 S
H166 C174 0.951 . S
C167 C161 1.268 . S
C167 H162 0.950 . S
C167 C168 1.478 . S
C168 C167 1.478 . S
C168 C169 1.397 1_655 S
C168 C185 1.394 . S
C169 C168 1.397 1_455 S
C169 C170 1.438 . S
C169 C174 1.429 . S
C170 C169 1.438 . S
C170 C171 1.428 . S
C170 C183 1.394 . S
C171 H163 0.949 1_545 S
C171 C170 1.428 . S
C171 C172 1.345 1_545 S
C172 H164 0.950 . S
C172 C171 1.345 1_565 S
C172 C173 1.420 1_565 S
C173 H165 0.950 1_545 S
C173 C172 1.420 1_545 S
C173 C174 1.352 . S
C174 H166 0.951 . S
C174 C169 1.429 . S
C174 C173 1.352 . S
H175 C176 0.951 . S
C176 H175 0.951 . S
C176 C182 1.265 . S
H177 C182 0.950 1_565 S
H178 C186 0.949 . S
H179 C187 0.950 . S
H180 C188 0.951 . S
H181 C189 0.951 1_455 S
C182 C176 1.265 . S
C182 H177 0.950 1_545 S
C182 C183 1.478 . S
C183 C170 1.394 . S
C183 C182 1.478 . S
C183 C184 1.397 . S
C184 C183 1.397 . S
C184 C185 1.438 1_455 S
C184 C189 1.429 1_455 S
C185 C168 1.394 . S
C185 C184 1.438 1_655 S
C185 C186 1.428 . S
C186 H178 0.949 . S
C186 C185 1.428 . S
C186 C187 1.345 . S
C187 H179 0.950 . S
C187 C186 1.345 . S
C187 C188 1.424 . S
C188 H180 0.951 . S
C188 C187 1.424 . S
C188 C189 1.347 . S
C189 H181 0.951 1_655 S
C189 C184 1.429 1_655 S
C189 C188 1.347 . S
H190 C191 0.951 . S
C191 H190 0.951 . S
C191 C197 1.265 1_655 S
H192 C197 0.950 . S
H193 C201 0.949 . S
H194 C202 0.950 . S
H195 C203 0.951 . S
H196 C204 0.951 . S
C197 C191 1.265 1_455 S
C197 H192 0.950 . S
C197 C198 1.478 . S
C198 C197 1.478 . S
C198 C199 1.397 1_565 S
C198 C215 1.394 . S
C199 C198 1.397 1_545 S
C199 C200 1.438 . S
C199 C204 1.429 1_455 S
C200 C199 1.438 . S
C200 C201 1.428 1_455 S
C200 C213 1.394 . S
C201 H193 0.949 . S
C201 C200 1.428 1_655 S
C201 C202 1.345 . S
C202 H194 0.950 . S
C202 C201 1.345 . S
C202 C203 1.424 . S
C203 H195 0.951 . S
C203 C202 1.424 . S
C203 C204 1.347 . S
C204 H196 0.951 . S
C204 C199 1.429 1_655 S
C204 C203 1.347 . S
H205 C206 0.951 . S
C206 H205 0.951 . S
C206 C212 1.265 . S
H207 C212 0.950 . S
H208 C216 0.949 . S
H209 C217 0.950 . S
H210 C218 0.951 . S
H211 C219 0.951 1_545 S
C212 C206 1.265 . S
C212 H207 0.950 . S
C212 C213 1.478 . S
C213 C200 1.394 . S
C213 C212 1.478 . S
C213 C214 1.397 . S
C214 C213 1.397 . S
C214 C215 1.438 1_545 S
C214 C219 1.429 1_545 S
C215 C198 1.394 . S
C215 C214 1.438 1_565 S
C215 C216 1.428 . S
C216 H208 0.949 . S
C216 C215 1.428 . S
C216 C217 1.345 . S
C217 H209 0.950 . S
C217 C216 1.345 . S
C217 C218 1.424 . S
C218 H210 0.951 . S
C218 C217 1.424 . S
C218 C219 1.347 . S
C219 H211 0.951 1_565 S
C219 C214 1.429 1_565 S
C219 C218 1.347 . S
H220 C221 0.951 1_565 S
C221 H220 0.951 1_545 S
C221 C227 1.265 . S
H222 C227 0.950 . S
H223 C231 0.949 . S
H224 C232 0.947 . S
H225 C233 0.951 . S
H226 C234 0.951 . S
C227 C221 1.265 . S
C227 H222 0.950 . S
C227 C228 1.478 . S
C228 C227 1.478 . S
C228 C229 1.397 . S
C228 C245 1.394 . S
C229 C228 1.397 . S
C229 C230 1.438 . S
C229 C234 1.429 . S
C230 C229 1.438 . S
C230 C231 1.428 . S
C230 C243 1.394 . S
C231 H223 0.949 . S
C231 C230 1.428 . S
C231 C232 1.345 . S
C232 H224 0.947 . S
C232 C231 1.345 . S
C232 C233 1.424 . S
C233 H225 0.951 . S
C233 C232 1.424 . S
C233 C234 1.347 . S
C234 H226 0.951 . S
C234 C229 1.429 . S
C234 C233 1.347 . S
H235 C236 0.951 . S
C236 H235 0.951 . S
C236 C242 1.265 . S
H237 C242 0.950 1_565 S
H238 C246 0.949 . S
H239 C247 0.950 . S
H240 C248 0.951 . S
H241 C249 0.951 . S
C242 C236 1.265 . S
C242 H237 0.950 1_545 S
C242 C243 1.478 . S
C243 C230 1.394 . S
C243 C242 1.478 . S
C243 C244 1.397 . S
C244 C243 1.397 . S
C244 C245 1.438 . S
C244 C249 1.429 1_545 S
C245 C228 1.394 . S
C245 C244 1.438 . S
C245 C246 1.428 . S
C246 H238 0.949 . S
C246 C245 1.428 . S
C246 C247 1.345 1_545 S
C247 H239 0.950 . S
C247 C246 1.345 1_565 S
C247 C248 1.424 . S
C248 H240 0.951 . S
C248 C247 1.424 . S
C248 C249 1.347 . S
C249 H241 0.951 . S
C249 C244 1.429 1_565 S
C249 C248 1.347 . S
H250 C251 0.951 . S
C251 H250 0.951 . S
C251 C257 1.265 . S
H252 C257 0.950 . S
H253 C261 0.949 . S
H254 C262 0.950 . S
H255 C263 0.951 . S
H256 C264 0.951 . S
C257 C251 1.265 . S
C257 H252 0.950 . S
C257 C258 1.478 . S
C258 C257 1.478 . S
C258 C259 1.397 . S
C258 C275 1.394 . S
C259 C258 1.397 . S
C259 C260 1.438 . S
C259 C264 1.429 . S
C260 C259 1.438 . S
C260 C261 1.428 1_455 S
C260 C273 1.394 . S
C261 H253 0.949 . S
C261 C260 1.428 1_655 S
C261 C262 1.345 . S
C262 H254 0.950 . S
C262 C261 1.345 . S
C262 C263 1.424 . S
C263 H255 0.951 . S
C263 C262 1.424 . S
C263 C264 1.347 1_655 S
C264 H256 0.951 . S
C264 C259 1.429 . S
C264 C263 1.347 1_455 S
H265 C266 0.951 . S
C266 H265 0.951 . S
C266 C272 1.265 1_455 S
H267 C272 0.950 . S
H268 C276 0.949 . S
H269 C277 0.950 . S
H270 C278 0.951 . S
H271 C279 0.951 . S
C272 C266 1.265 1_655 S
C272 H267 0.950 . S
C272 C273 1.478 1_655 S
C273 C260 1.394 . S
C273 C272 1.478 1_455 S
C273 C274 1.397 . S
C274 C273 1.397 . S
C274 C275 1.438 . S
C274 C279 1.429 . S
C275 C258 1.394 . S
C275 C274 1.438 . S
C275 C276 1.428 . S
C276 H268 0.949 . S
C276 C275 1.428 . S
C276 C277 1.345 . S
C277 H269 0.950 . S
C277 C276 1.345 . S
C277 C278 1.424 . S
C278 H270 0.951 . S
C278 C277 1.424 . S
C278 C279 1.347 . S
C279 H271 0.951 . S
C279 C274 1.429 . S
C279 C278 1.347 . S
H280 C281 0.951 . S
C281 H280 0.951 . S
C281 C287 1.265 . S
H282 C287 0.950 . S
H283 C291 0.949 . S
H284 C292 0.950 . S
H285 C293 0.951 . S
H286 C294 0.951 . S
C287 C281 1.265 . S
C287 H282 0.950 . S
C287 C288 1.478 . S
C288 C287 1.478 . S
C288 C289 1.397 . S
C288 C305 1.394 . S
C289 C288 1.397 . S
C289 C290 1.438 . S
C289 C294 1.429 . S
C290 C289 1.438 . S
C290 C291 1.428 . S
C290 C303 1.394 . S
C291 H283 0.949 . S
C291 C290 1.428 . S
C291 C292 1.345 . S
C292 H284 0.950 . S
C292 C291 1.345 . S
C292 C293 1.424 . S
C293 H285 0.951 . S
C293 C292 1.424 . S
C293 C294 1.347 . S
C294 H286 0.951 . S
C294 C289 1.429 . S
C294 C293 1.347 . S
H295 C296 0.951 . S
C296 H295 0.951 . S
C296 C302 1.265 . S
H297 C302 0.950 . S
H298 C306 0.949 . S
H299 C307 0.950 . S
H300 C308 0.951 . S
H301 C309 0.951 . S
C302 C296 1.265 . S
C302 H297 0.950 . S
C302 C303 1.478 . S
C303 C290 1.394 . S
C303 C302 1.478 . S
C303 C304 1.397 . S
C304 C303 1.397 . S
C304 C305 1.438 . S
C304 C309 1.429 . S
C305 C288 1.394 . S
C305 C304 1.438 . S
C305 C306 1.428 . S
C306 H298 0.949 . S
C306 C305 1.428 . S
C306 C307 1.345 . S
C307 H299 0.950 . S
C307 C306 1.345 . S
C307 C308 1.424 . S
C308 H300 0.951 . S
C308 C307 1.424 . S
C308 C309 1.347 . S
C309 H301 0.951 . S
C309 C304 1.429 . S
C309 C308 1.347 . S
H310 C311 0.951 . S
C311 H310 0.951 . S
C311 C317 1.265 . S
H312 C317 0.950 . S
H313 C321 0.949 . S
H314 C322 0.950 . S
H315 C323 0.951 1_455 S
H316 C324 0.951 . S
C317 C311 1.265 . S
C317 H312 0.950 . S
C317 C318 1.478 . S
C318 C317 1.478 . S
C318 C319 1.397 . S
C318 C335 1.394 . S
C319 C318 1.397 . S
C319 C320 1.438 . S
C319 C324 1.429 . S
C320 C319 1.438 . S
C320 C321 1.428 1_556 S
C320 C333 1.394 . S
C321 H313 0.949 . S
C321 C320 1.428 1_554 S
C321 C322 1.345 . S
C322 H314 0.950 . S
C322 C321 1.345 . S
C322 C323 1.424 . S
C323 H315 0.951 1_655 S
C323 C322 1.424 . S
C323 C324 1.347 1_554 S
C324 H316 0.951 . S
C324 C319 1.429 . S
C324 C323 1.347 1_556 S
H325 C326 0.951 . S
C326 H325 0.951 . S
C326 C332 1.265 . S
H327 C332 0.950 . S
H328 C336 0.949 . S
H329 C337 0.950 . S
H330 C338 0.951 . S
H331 C339 0.951 . S
C332 C326 1.265 . S
C332 H327 0.950 . S
C332 C333 1.478 1_554 S
C333 C320 1.394 . S
C333 C332 1.478 1_556 S
C333 C334 1.397 . S
C334 C333 1.397 . S
C334 C335 1.438 . S
C334 C339 1.429 . S
C335 C318 1.394 . S
C335 C334 1.438 . S
C335 C336 1.428 . S
C336 H328 0.949 . S
C336 C335 1.428 . S
C336 C337 1.345 . S
C337 H329 0.950 . S
C337 C336 1.345 . S
C337 C338 1.424 . S
C338 H330 0.951 . S
C338 C337 1.424 . S
C338 C339 1.347 . S
C339 H331 0.951 . S
C339 C334 1.429 . S
C339 C338 1.347 . S
H340 C341 0.951 . S
C341 H340 0.951 . S
C341 C347 1.265 . S
H342 C347 0.950 . S
H343 C351 0.949 . S
H344 C352 0.950 1_545 S
H345 C353 0.951 . S
H346 C354 0.951 . S
C347 C341 1.265 . S
C347 H342 0.950 . S
C347 C348 1.478 . S
C348 C347 1.478 . S
C348 C349 1.397 . S
C348 C365 1.394 . S
C349 C348 1.397 . S
C349 C350 1.438 . S
C349 C354 1.429 . S
C350 C349 1.438 . S
C350 C351 1.428 . S
C350 C363 1.394 . S
C351 H343 0.949 . S
C351 C350 1.428 . S
C351 C352 1.345 . S
C352 H344 0.950 1_565 S
C352 C351 1.345 . S
C352 C353 1.424 . S
C353 H345 0.951 . S
C353 C352 1.424 . S
C353 C354 1.347 . S
C354 H346 0.951 . S
C354 C349 1.429 . S
C354 C353 1.347 . S
H355 C356 0.951 . S
C356 H355 0.951 . S
C356 C362 1.265 . S
H357 C362 0.950 . S
H358 C366 0.949 . S
H359 C367 0.950 . S
H360 C368 0.951 . S
H361 C369 0.951 . S
C362 C356 1.265 . S
C362 H357 0.950 . S
C362 C363 1.478 . S
C363 C350 1.394 . S
C363 C362 1.478 . S
C363 C364 1.397 . S
C364 C363 1.397 . S
C364 C365 1.438 . S
C364 C369 1.429 . S
C365 C348 1.394 . S
C365 C364 1.438 . S
C365 C366 1.428 . S
C366 H358 0.949 . S
C366 C365 1.428 . S
C366 C367 1.345 . S
C367 H359 0.950 . S
C367 C366 1.345 . S
C367 C368 1.424 . S
C368 H360 0.951 . S
C368 C367 1.424 . S
C368 C369 1.347 . S
C369 H361 0.951 . S
C369 C364 1.429 . S
C369 C368 1.347 . S
H370 C371 0.951 . S
C371 H370 0.951 . S
C371 C377 1.265 . S
H372 C377 0.950 . S
H373 C381 0.949 . S
H374 C382 0.950 1_545 S
H375 C383 0.951 . S
H376 C384 0.951 . S
C377 C371 1.265 . S
C377 H372 0.950 . S
C377 C378 1.478 . S
C378 C377 1.478 . S
C378 C379 1.397 . S
C378 C395 1.394 . S
C379 C378 1.397 . S
C379 C380 1.438 . S
C379 C384 1.429 . S
C380 C379 1.438 . S
C380 C381 1.428 . S
C380 C393 1.394 . S
C381 H373 0.949 . S
C381 C380 1.428 . S
C381 C382 1.345 . S
C382 H374 0.950 1_565 S
C382 C381 1.345 . S
C382 C383 1.424 . S
C383 H375 0.951 . S
C383 C382 1.424 . S
C383 C384 1.347 . S
C384 H376 0.951 . S
C384 C379 1.429 . S
C384 C383 1.347 . S
H385 C386 0.951 . S
C386 H385 0.951 . S
C386 C392 1.265 . S
H387 C392 0.950 . S
H388 C396 0.949 . S
H389 C397 0.950 . S
H390 C398 0.951 . S
H391 C399 0.951 . S
C392 C386 1.265 . S
C392 H387 0.950 . S
C392 C393 1.478 . S
C393 C380 1.394 . S
C393 C392 1.478 . S
C393 C394 1.397 . S
C394 C393 1.397 . S
C394 C395 1.438 . S
C394 C399 1.429 . S
C395 C378 1.394 . S
C395 C394 1.438 . S
C395 C396 1.428 . S
C396 H388 0.949 . S
C396 C395 1.428 . S
C396 C397 1.345 . S
C397 H389 0.950 . S
C397 C396 1.345 . S
C397 C398 1.424 . S
C398 H390 0.951 . S
C398 C397 1.424 . S
C398 C399 1.347 . S
C399 H391 0.951 . S
C399 C394 1.429 . S
C399 C398 1.347 . S
H400 C401 0.951 . S
C401 H400 0.951 . S
C401 C407 1.265 . S
H402 C407 0.950 . S
H403 C411 0.949 . S
H404 C412 0.950 . S
H405 C413 0.951 . S
H406 C414 0.951 . S
C407 C401 1.265 . S
C407 H402 0.950 . S
C407 C408 1.478 . S
C408 C407 1.478 . S
C408 C409 1.397 . S
C408 C425 1.394 . S
C409 C408 1.397 . S
C409 C410 1.438 . S
C409 C414 1.429 . S
C410 C409 1.438 . S
C410 C411 1.428 . S
C410 C423 1.394 . S
C411 H403 0.949 . S
C411 C410 1.428 . S
C411 C412 1.345 . S
C412 H404 0.950 . S
C412 C411 1.345 . S
C412 C413 1.424 . S
C413 H405 0.951 . S
C413 C412 1.424 . S
C413 C414 1.347 . S
C414 H406 0.951 . S
C414 C409 1.429 . S
C414 C413 1.347 . S
H415 C416 0.951 . S
C416 H415 0.951 . S
C416 C422 1.265 . S
H417 C422 0.950 . S
H418 C426 0.949 . S
H419 C427 0.950 . S
H420 C428 0.951 . S
H421 C429 0.951 . S
C422 C416 1.265 . S
C422 H417 0.950 . S
C422 C423 1.478 . S
C423 C410 1.394 . S
C423 C422 1.478 . S
C423 C424 1.397 . S
C424 C423 1.397 . S
C424 C425 1.438 . S
C424 C429 1.429 . S
C425 C408 1.394 . S
C425 C424 1.438 . S
C425 C426 1.428 . S
C426 H418 0.949 . S
C426 C425 1.428 . S
C426 C427 1.345 . S
C427 H419 0.950 . S
C427 C426 1.345 . S
C427 C428 1.424 . S
C428 H420 0.951 . S
C428 C427 1.424 . S
C428 C429 1.347 . S
C429 H421 0.951 . S
C429 C424 1.429 . S
C429 C428 1.347 . S
H430 C431 0.951 . S
C431 H430 0.951 . S
C431 C437 1.265 . S
H432 C437 0.950 . S
H433 C441 0.949 . S
H434 C442 0.950 . S
H435 C443 0.951 . S
H436 C444 0.951 . S
C437 C431 1.265 . S
C437 H432 0.950 . S
C437 C438 1.478 . S
C438 C437 1.478 . S
C438 C439 1.397 . S
C438 C455 1.394 . S
C439 C438 1.397 . S
C439 C440 1.438 . S
C439 C444 1.429 . S
C440 C439 1.438 . S
C440 C441 1.428 . S
C440 C453 1.394 . S
C441 H433 0.949 . S
C441 C440 1.428 . S
C441 C442 1.345 . S
C442 H434 0.950 . S
C442 C441 1.345 . S
C442 C443 1.424 . S
C443 H435 0.951 . S
C443 C442 1.424 . S
C443 C444 1.347 . S
C444 H436 0.951 . S
C444 C439 1.429 . S
C444 C443 1.347 . S
H445 C446 0.951 . S
C446 H445 0.951 . S
C446 C452 1.265 . S
H447 C452 0.950 . S
H448 C456 0.949 . S
H449 C457 0.950 . S
H450 C458 0.951 . S
H451 C459 0.951 . S
C452 C446 1.265 . S
C452 H447 0.950 . S
C452 C453 1.478 . S
C453 C440 1.394 . S
C453 C452 1.478 . S
C453 C454 1.397 . S
C454 C453 1.397 . S
C454 C455 1.438 . S
C454 C459 1.429 . S
C455 C438 1.394 . S
C455 C454 1.438 . S
C455 C456 1.428 1_565 S
C456 H448 0.949 . S
C456 C455 1.428 1_545 S
C456 C457 1.345 . S
C457 H449 0.950 . S
C457 C456 1.345 . S
C457 C458 1.424 . S
C458 H450 0.951 . S
C458 C457 1.424 . S
C458 C459 1.347 1_545 S
C459 H451 0.951 . S
C459 C454 1.429 . S
C459 C458 1.347 1_565 S
H460 C461 0.951 . S
C461 H460 0.951 . S
C461 C467 1.265 . S
H462 C467 0.950 . S
H463 C471 0.949 . S
H464 C472 0.950 . S
H465 C473 0.951 . S
H466 C474 0.951 . S
C467 C461 1.265 . S
C467 H462 0.950 . S
C467 C468 1.478 . S
C468 C467 1.478 . S
C468 C469 1.397 . S
C468 C485 1.394 . S
C469 C468 1.397 . S
C469 C470 1.438 . S
C469 C474 1.429 . S
C470 C469 1.438 . S
C470 C471 1.428 . S
C470 C483 1.394 . S
C471 H463 0.949 . S
C471 C470 1.428 . S
C471 C472 1.345 . S
C472 H464 0.950 . S
C472 C471 1.345 . S
C472 C473 1.424 . S
C473 H465 0.951 . S
C473 C472 1.424 . S
C473 C474 1.347 . S
C474 H466 0.951 . S
C474 C469 1.429 . S
C474 C473 1.347 . S
H475 C476 0.951 . S
C476 H475 0.951 . S
C476 C482 1.265 . S
H477 C482 0.950 . S
H478 C486 0.949 . S
H479 C487 0.950 . S
H480 C488 0.951 . S
H481 C489 0.951 . S
C482 C476 1.265 . S
C482 H477 0.950 . S
C482 C483 1.478 . S
C483 C470 1.394 . S
C483 C482 1.478 . S
C483 C484 1.397 . S
C484 C483 1.397 . S
C484 C485 1.438 . S
C484 C489 1.429 . S
C485 C468 1.394 . S
C485 C484 1.438 . S
C485 C486 1.428 . S
C486 H478 0.949 . S
C486 C485 1.428 . S
C486 C487 1.345 . S
C487 H479 0.950 . S
C487 C486 1.345 . S
C487 C488 1.424 . S
C488 H480 0.951 . S
C488 C487 1.424 . S
C488 C489 1.347 . S
C489 H481 0.951 . S
C489 C484 1.429 . S
C489 C488 1.347 . S
H490 C491 0.951 . S
C491 H490 0.951 . S
C491 C497 1.265 . S
H492 C497 0.950 . S
H493 C501 0.949 . S
H494 C502 0.950 . S
H495 C503 0.951 1_455 S
H496 C504 0.951 . S
C497 C491 1.265 . S
C497 H492 0.950 . S
C497 C498 1.478 . S
C498 C497 1.478 . S
C498 C499 1.397 . S
C498 C515 1.394 . S
C499 C498 1.397 . S
C499 C500 1.438 . S
C499 C504 1.429 . S
C500 C499 1.438 . S
C500 C501 1.428 . S
C500 C513 1.394 . S
C501 H493 0.949 . S
C501 C500 1.428 . S
C501 C502 1.345 1_655 S
C502 H494 0.950 . S
C502 C501 1.345 1_455 S
C502 C503 1.424 1_455 S
C503 H495 0.951 1_655 S
C503 C502 1.424 1_655 S
C503 C504 1.347 . S
C504 H496 0.951 . S
C504 C499 1.429 . S
C504 C503 1.347 . S
H505 C506 0.951 1_455 S
C506 H505 0.951 1_655 S
C506 C512 1.265 . S
H507 C512 0.950 . S
H508 C516 0.949 . S
H509 C517 0.950 . S
H510 C518 0.951 . S
H511 C519 0.951 . S
C512 C506 1.265 . S
C512 H507 0.950 . S
C512 C513 1.478 . S
C513 C500 1.394 . S
C513 C512 1.478 . S
C513 C514 1.397 . S
C514 C513 1.397 . S
C514 C515 1.438 . S
C514 C519 1.429 . S
C515 C498 1.394 . S
C515 C514 1.438 . S
C515 C516 1.428 . S
C516 H508 0.949 . S
C516 C515 1.428 . S
C516 C517 1.345 . S
C517 H509 0.950 . S
C517 C516 1.345 . S
C517 C518 1.424 . S
C518 H510 0.951 . S
C518 C517 1.424 . S
C518 C519 1.347 . S
C519 H511 0.951 . S
C519 C514 1.429 . S
C519 C518 1.347 . S
C161 C98 0.519 . S
C176 C9 0.513 . S
C191 C138 0.500 . S
C206 C49 0.499 . S
C221 C89 0.929 1_545 S
C236 C18 0.929 . S
C251 C58 1.015 . S
C266 C129 1.015 . S
C281 C46 1.017 . S
C296 C15 1.014 . S
C311 C55 1.737 . S
C326 C90 1.726 . S
C341 C130 2.131 . S
C356 C99 2.112 . S
C371 C139 1.327 . S
C386 C6 1.374 . S
C401 C86 1.082 . S
C416 C135 1.025 . S
C431 C19 1.737 . S
C446 C126 1.708 . S
C461 C59 2.134 . S
C476 C10 2.112 1_556 S
C491 C95 1.375 . S
C506 C50 1.320 1_655 S
