# Generated by pormake.
# Topology gis, (4)-cn, num edge types: 1
# Building blocks:
#     Node 0, Type 0, BuildingBlock: UXUYUI_clean_sbu_0, # of connection points: 4
#     Node 1, Type 0, BuildingBlock: UXUYUI_clean_sbu_0, # of connection points: 4
#     Node 2, Type 0, BuildingBlock: UXUYUI_clean_sbu_0, # of connection points: 4
#     Node 3, Type 0, BuildingBlock: UXUYUI_clean_sbu_0, # of connection points: 4
#     Node 4, Type 0, BuildingBlock: UXUYUI_clean_sbu_0, # of connection points: 4
#     Node 5, Type 0, BuildingBlock: UXUYUI_clean_sbu_0, # of connection points: 4
#     Node 6, Type 0, BuildingBlock: UXUYUI_clean_sbu_0, # of connection points: 4
#     Node 7, Type 0, BuildingBlock: UXUYUI_clean_sbu_0, # of connection points: 4
#     Node 8, Type 0, BuildingBlock: UXUYUI_clean_sbu_0, # of connection points: 4
#     Node 9, Type 0, BuildingBlock: UXUYUI_clean_sbu_0, # of connection points: 4
#     Node 10, Type 0, BuildingBlock: UXUYUI_clean_sbu_0, # of connection points: 4
#     Node 11, Type 0, BuildingBlock: UXUYUI_clean_sbu_0, # of connection points: 4
#     Node 12, Type 0, BuildingBlock: UXUYUI_clean_sbu_0, # of connection points: 4
#     Node 13, Type 0, BuildingBlock: UXUYUI_clean_sbu_0, # of connection points: 4
#     Node 14, Type 0, BuildingBlock: UXUYUI_clean_sbu_0, # of connection points: 4
#     Node 15, Type 0, BuildingBlock: UXUYUI_clean_sbu_0, # of connection points: 4
#     Edge 16, Type (0, 0), BuildingBlock: UVAHIK_clean_linker_0, # of connection points: 2
#     Edge 17, Type (0, 0), BuildingBlock: UVAHIK_clean_linker_0, # of connection points: 2
#     Edge 18, Type (0, 0), BuildingBlock: UVAHIK_clean_linker_0, # of connection points: 2
#     Edge 19, Type (0, 0), BuildingBlock: UVAHIK_clean_linker_0, # of connection points: 2
#     Edge 20, Type (0, 0), BuildingBlock: UVAHIK_clean_linker_0, # of connection points: 2
#     Edge 21, Type (0, 0), BuildingBlock: UVAHIK_clean_linker_0, # of connection points: 2
#     Edge 22, Type (0, 0), BuildingBlock: UVAHIK_clean_linker_0, # of connection points: 2
#     Edge 23, Type (0, 0), BuildingBlock: UVAHIK_clean_linker_0, # of connection points: 2
#     Edge 24, Type (0, 0), BuildingBlock: UVAHIK_clean_linker_0, # of connection points: 2
#     Edge 25, Type (0, 0), BuildingBlock: UVAHIK_clean_linker_0, # of connection points: 2
#     Edge 26, Type (0, 0), BuildingBlock: UVAHIK_clean_linker_0, # of connection points: 2
#     Edge 27, Type (0, 0), BuildingBlock: UVAHIK_clean_linker_0, # of connection points: 2
#     Edge 28, Type (0, 0), BuildingBlock: UVAHIK_clean_linker_0, # of connection points: 2
#     Edge 29, Type (0, 0), BuildingBlock: UVAHIK_clean_linker_0, # of connection points: 2
#     Edge 30, Type (0, 0), BuildingBlock: UVAHIK_clean_linker_0, # of connection points: 2
#     Edge 31, Type (0, 0), BuildingBlock: UVAHIK_clean_linker_0, # of connection points: 2
#     Edge 32, Type (0, 0), BuildingBlock: UVAHIK_clean_linker_0, # of connection points: 2
#     Edge 33, Type (0, 0), BuildingBlock: UVAHIK_clean_linker_0, # of connection points: 2
#     Edge 34, Type (0, 0), BuildingBlock: UVAHIK_clean_linker_0, # of connection points: 2
#     Edge 35, Type (0, 0), BuildingBlock: UVAHIK_clean_linker_0, # of connection points: 2
#     Edge 36, Type (0, 0), BuildingBlock: UVAHIK_clean_linker_0, # of connection points: 2
#     Edge 37, Type (0, 0), BuildingBlock: UVAHIK_clean_linker_0, # of connection points: 2
#     Edge 38, Type (0, 0), BuildingBlock: UVAHIK_clean_linker_0, # of connection points: 2
#     Edge 39, Type (0, 0), BuildingBlock: UVAHIK_clean_linker_0, # of connection points: 2
#     Edge 40, Type (0, 0), BuildingBlock: UVAHIK_clean_linker_0, # of connection points: 2
#     Edge 41, Type (0, 0), BuildingBlock: UVAHIK_clean_linker_0, # of connection points: 2
#     Edge 42, Type (0, 0), BuildingBlock: UVAHIK_clean_linker_0, # of connection points: 2
#     Edge 43, Type (0, 0), BuildingBlock: UVAHIK_clean_linker_0, # of connection points: 2
#     Edge 44, Type (0, 0), BuildingBlock: UVAHIK_clean_linker_0, # of connection points: 2
#     Edge 45, Type (0, 0), BuildingBlock: UVAHIK_clean_linker_0, # of connection points: 2
#     Edge 46, Type (0, 0), BuildingBlock: UVAHIK_clean_linker_0, # of connection points: 2
#     Edge 47, Type (0, 0), BuildingBlock: UVAHIK_clean_linker_0, # of connection points: 2
# Relax obj value: 0.245
# Max RMSD: 0.177
# Mean RMSD: 0.176
data_MOF--net-gis--node1-UXUYUI_clean_sbu_0--edge1-UVAHIK_clean_linker_0
_symmetry_space_group_name_H-M    P1
_symmetry_Int_Tables_number       1
_symmetry_cell_setting            triclinic
loop_
_symmetry_equiv_pos_as_xyz
'x, y, z'
_cell_length_a     80.078908
_cell_length_b     80.069639
_cell_length_c     85.272986
_cell_angle_alpha  90.005878
_cell_angle_beta   89.981821
_cell_angle_gamma 89.98976
loop_
_atom_site_label
_atom_site_type_symbol
_atom_site_fract_x
_atom_site_fract_y
_atom_site_fract_z
_atom_type_partial_charge
Li0 Li 0.16641 0.60125 0.11967 0.0
Li1 Li 0.17084 0.57663 0.13725 0.0
Li2 Li 0.17392 0.57321 0.10902 0.0
Li3 Li 0.14732 0.57732 0.12052 0.0
C4 C 0.20302 0.58481 0.1189 0.0
N5 N 0.23482 0.57701 0.10869 0.0
C6 C 0.21295 0.57376 0.12751 0.0
C7 C 0.20927 0.59193 0.10513 0.0
C8 C 0.229 0.56998 0.12215 0.0
C9 C 0.22537 0.58781 0.10015 0.0
C10 C 0.1507 0.5972 0.15273 0.0
C11 C 0.1419 0.58981 0.17887 0.0
N12 N 0.14806 0.60455 0.18429 0.0
C13 C 0.15687 0.61232 0.15853 0.0
C14 C 0.14306 0.58589 0.16295 0.0
C15 C 0.15543 0.61579 0.17453 0.0
C16 C 0.15459 0.63413 0.1196 0.0
N17 N 0.16859 0.6247 0.11811 0.0
C18 C 0.18557 0.64915 0.1163 0.0
C19 C 0.18391 0.63179 0.11649 0.0
C20 C 0.17132 0.65926 0.1179 0.0
C21 C 0.15565 0.65152 0.11946 0.0
H22 H 0.14262 0.62814 0.12124 0.0
H23 H 0.19488 0.62398 0.11569 0.0
C24 C 0.17881 0.5538 0.1613 0.0
N25 N 0.17947 0.57011 0.15693 0.0
C26 C 0.18508 0.54885 0.17585 0.0
C27 C 0.19255 0.57761 0.18104 0.0
C28 C 0.18646 0.58193 0.16629 0.0
C29 C 0.19186 0.56091 0.18593 0.0
H30 H 0.17348 0.54462 0.15348 0.0
H31 H 0.18726 0.59471 0.16228 0.0
C32 C 0.14345 0.58847 0.09156 0.0
N33 N 0.11602 0.58726 0.07193 0.0
C34 C 0.14176 0.57545 0.08074 0.0
C35 C 0.13123 0.6009 0.09234 0.0
C36 C 0.12781 0.57507 0.07091 0.0
C37 C 0.11743 0.60004 0.08234 0.0
C38 C 0.15286 0.54463 0.12274 0.0
C39 C 0.15299 0.53509 0.10901 0.0
C40 C 0.1425 0.53999 0.1352 0.0
C41 C 0.14259 0.52112 0.10792 0.0
C42 C 0.13226 0.52597 0.13363 0.0
N43 N 0.13252 0.51691 0.12014 0.0
C44 C 0.19585 0.54849 0.0986 0.0
C45 C 0.18629 0.56653 0.07848 0.0
C46 C 0.2045 0.53878 0.08772 0.0
N47 N 0.18674 0.56184 0.09376 0.0
C48 C 0.19444 0.55697 0.06715 0.0
C49 C 0.20344 0.54263 0.07166 0.0
H50 H 0.19606 0.54517 0.11089 0.0
H51 H 0.17912 0.57737 0.07503 0.0
C52 C 0.11384 0.58091 0.1295 0.0
N53 N 0.12388 0.57225 0.11954 0.0
C54 C 0.09664 0.57821 0.12955 0.0
C55 C 0.10025 0.55797 0.10881 0.0
C56 C 0.11742 0.56093 0.10928 0.0
C57 C 0.08966 0.56664 0.11909 0.0
H58 H 0.11913 0.59008 0.13732 0.0
H59 H 0.12554 0.55426 0.10137 0.0
O60 O 0.18713 0.58835 0.12375 0.0
O61 O 0.15217 0.59346 0.13713 0.0
O62 O 0.15696 0.589 0.10137 0.0
O63 O 0.163 0.5583 0.12406 0.0
H64 H 0.20827 0.56806 0.13813 0.0
H65 H 0.20165 0.60033 0.09822 0.0
H66 H 0.23681 0.56141 0.12866 0.0
H67 H 0.23033 0.59314 0.08947 0.0
H68 H 0.13611 0.58113 0.18693 0.0
H69 H 0.16288 0.62119 0.15081 0.0
H70 H 0.13818 0.57416 0.15863 0.0
H71 H 0.16024 0.62739 0.1792 0.0
H72 H 0.19791 0.65458 0.11534 0.0
H73 H 0.14433 0.65881 0.1206 0.0
H74 H 0.18448 0.53584 0.17927 0.0
H75 H 0.19799 0.58717 0.18844 0.0
H76 H 0.15092 0.56555 0.08015 0.0
H77 H 0.1323 0.61102 0.10065 0.0
H78 H 0.12629 0.56501 0.06257 0.0
H79 H 0.10783 0.60953 0.08289 0.0
H80 H 0.16088 0.53851 0.09923 0.0
H81 H 0.14231 0.5472 0.14592 0.0
H82 H 0.14249 0.51368 0.09734 0.0
H83 H 0.12411 0.52229 0.14314 0.0
H84 H 0.21157 0.52813 0.09185 0.0
H85 H 0.19303 0.56039 0.05494 0.0
H86 H 0.08885 0.58536 0.13747 0.0
H87 H 0.09533 0.54892 0.10059 0.0
Li88 Li 0.64686 0.92175 0.37352 0.0
Li89 Li 0.67265 0.92422 0.38863 0.0
Li90 Li 0.67297 0.92515 0.36014 0.0
Li91 Li 0.66756 0.89918 0.37417 0.0
C92 C 0.65187 0.95422 0.37655 0.0
N93 N 0.62952 0.98011 0.38083 0.0
C94 C 0.65006 0.96158 0.39132 0.0
C95 C 0.64241 0.96011 0.36393 0.0
C96 C 0.63868 0.97465 0.39324 0.0
C97 C 0.63114 0.97318 0.36635 0.0
C98 C 0.64857 0.89405 0.39852 0.0
C99 C 0.6535 0.86924 0.4139 0.0
N100 N 0.63762 0.86412 0.41094 0.0
C101 C 0.63228 0.88856 0.39568 0.0
C102 C 0.65925 0.88436 0.40776 0.0
C103 C 0.62698 0.87339 0.40206 0.0
C104 C 0.61438 0.92033 0.36108 0.0
N105 N 0.62357 0.92614 0.37331 0.0
C106 C 0.59896 0.93596 0.38623 0.0
C107 C 0.61626 0.93379 0.38579 0.0
C108 C 0.58915 0.92979 0.37388 0.0
C109 C 0.59705 0.922 0.36114 0.0
H110 H 0.62047 0.91396 0.35148 0.0
H111 H 0.62382 0.93782 0.39558 0.0
C112 C 0.69282 0.94623 0.40651 0.0
N113 N 0.68194 0.93321 0.4072 0.0
C114 C 0.69921 0.95314 0.42029 0.0
C115 C 0.68292 0.9332 0.43514 0.0
C116 C 0.67696 0.92662 0.4211 0.0
C117 C 0.69406 0.94672 0.43483 0.0
H118 H 0.69631 0.9514 0.39526 0.0
H119 H 0.66812 0.91645 0.42131 0.0
C120 C 0.65581 0.90657 0.34016 0.0
N121 N 0.65832 0.90385 0.30794 0.0
C122 C 0.66379 0.89279 0.33345 0.0
C123 C 0.64896 0.91889 0.33049 0.0
C124 C 0.66494 0.89165 0.31713 0.0
C125 C 0.65042 0.91732 0.31423 0.0
C126 C 0.70322 0.91597 0.3807 0.0
C127 C 0.71353 0.92819 0.37412 0.0
C128 C 0.70823 0.90776 0.39438 0.0
C129 C 0.72867 0.93205 0.3814 0.0
C130 C 0.72344 0.91201 0.40133 0.0
N131 N 0.73326 0.92397 0.39475 0.0
C132 C 0.68111 0.95004 0.33744 0.0
C133 C 0.69297 0.92316 0.33368 0.0
C134 C 0.68801 0.95562 0.32332 0.0
N135 N 0.68349 0.93398 0.34213 0.0
C136 C 0.69978 0.92809 0.31941 0.0
C137 C 0.69714 0.94441 0.31406 0.0
H138 H 0.67364 0.9584 0.3445 0.0
H139 H 0.69482 0.91055 0.33787 0.0
C140 C 0.65685 0.86621 0.36932 0.0
N141 N 0.67018 0.87566 0.3736 0.0
C142 C 0.65812 0.84884 0.36906 0.0
C143 C 0.68687 0.85129 0.37742 0.0
C144 C 0.68505 0.86863 0.37749 0.0
C145 C 0.67328 0.84117 0.37318 0.0
H146 H 0.64521 0.8722 0.36621 0.0
H147 H 0.69549 0.87646 0.38064 0.0
O148 O 0.66283 0.94131 0.37445 0.0
O149 O 0.65412 0.90869 0.39209 0.0
O150 O 0.6549 0.90811 0.35611 0.0
O151 O 0.68825 0.91216 0.37385 0.0
H152 H 0.65725 0.95717 0.40122 0.0
H153 H 0.64363 0.95452 0.35244 0.0
H154 H 0.6371 0.98042 0.40462 0.0
H155 H 0.62366 0.97778 0.35672 0.0
H156 H 0.66168 0.86156 0.42095 0.0
H157 H 0.62385 0.89584 0.38851 0.0
H158 H 0.67196 0.88834 0.40995 0.0
H159 H 0.61443 0.86895 0.3999 0.0
H160 H 0.59326 0.94179 0.39637 0.0
H161 H 0.58987 0.91708 0.35141 0.0
H162 H 0.7076 0.96372 0.41961 0.0
H163 H 0.67872 0.92788 0.44613 0.0
H164 H 0.66924 0.88318 0.34075 0.0
H165 H 0.64278 0.92966 0.33549 0.0
H166 H 0.67118 0.8811 0.31178 0.0
H167 H 0.64531 0.92683 0.30661 0.0
H168 H 0.70984 0.93472 0.36357 0.0
H169 H 0.70032 0.89841 0.39974 0.0
H170 H 0.73675 0.94152 0.37647 0.0
H171 H 0.72741 0.90585 0.41198 0.0
H172 H 0.68584 0.96832 0.31945 0.0
H173 H 0.70691 0.91921 0.31253 0.0
H174 H 0.64728 0.84149 0.36587 0.0
H175 H 0.69884 0.84589 0.38045 0.0
Li176 Li 0.32381 0.42511 0.60746 0.0
Li177 Li 0.35 0.42049 0.61964 0.0
Li178 Li 0.3309 0.39667 0.61734 0.0
Li179 Li 0.32593 0.42059 0.63562 0.0
C180 C 0.35474 0.41087 0.59027 0.0
N181 N 0.3825 0.41348 0.57115 0.0
C182 C 0.35642 0.42443 0.58006 0.0
C183 C 0.36716 0.39862 0.59071 0.0
C184 C 0.37053 0.42551 0.57047 0.0
C185 C 0.38112 0.40018 0.58099 0.0
C186 C 0.34453 0.45302 0.62264 0.0
C187 C 0.36505 0.47104 0.63456 0.0
N188 N 0.36525 0.48056 0.62135 0.0
C189 C 0.34487 0.46303 0.60922 0.0
C190 C 0.35461 0.45709 0.63547 0.0
C191 C 0.35545 0.47689 0.60879 0.0
C192 C 0.30208 0.45008 0.59706 0.0
N193 N 0.31139 0.43688 0.59221 0.0
C194 C 0.30385 0.44185 0.56557 0.0
C195 C 0.31207 0.43234 0.57689 0.0
C196 C 0.29451 0.45595 0.57013 0.0
C197 C 0.29334 0.45972 0.5862 0.0
H198 H 0.30166 0.45326 0.60939 0.0
H199 H 0.31938 0.4216 0.57342 0.0
C200 C 0.38296 0.4168 0.63 0.0
N201 N 0.37347 0.42558 0.61967 0.0
C202 C 0.40008 0.41967 0.63108 0.0
C203 C 0.39761 0.44026 0.6105 0.0
C204 C 0.38046 0.43713 0.60996 0.0
C205 C 0.4076 0.43153 0.62125 0.0
H206 H 0.37727 0.40746 0.63739 0.0
H207 H 0.37278 0.44395 0.60179 0.0
C208 C 0.29436 0.41318 0.61613 0.0
N209 N 0.26288 0.42137 0.60536 0.0
C210 C 0.28424 0.42405 0.62475 0.0
C211 C 0.28846 0.40642 0.60207 0.0
C212 C 0.26836 0.42804 0.6191 0.0
C213 C 0.27251 0.41074 0.59681 0.0
C214 C 0.34514 0.39916 0.65096 0.0
C215 C 0.33867 0.38378 0.65578 0.0
C216 C 0.3522 0.40993 0.66203 0.0
C217 C 0.33922 0.3795 0.67166 0.0
C218 C 0.35248 0.40521 0.6778 0.0
N219 N 0.34603 0.39023 0.68225 0.0
C220 C 0.34264 0.36379 0.61528 0.0
C221 C 0.31325 0.36641 0.6129 0.0
C222 C 0.34154 0.34648 0.61382 0.0
N223 N 0.32863 0.37334 0.61468 0.0
C224 C 0.31156 0.34911 0.61147 0.0
C225 C 0.32583 0.33893 0.6119 0.0
H226 H 0.35464 0.36962 0.61719 0.0
H227 H 0.3023 0.37427 0.61278 0.0
C228 C 0.31762 0.44253 0.66024 0.0
N229 N 0.31668 0.42643 0.65525 0.0
C230 C 0.31115 0.447 0.67484 0.0
C231 C 0.30284 0.41825 0.67879 0.0
C232 C 0.30918 0.4144 0.664 0.0
C233 C 0.30386 0.43471 0.68434 0.0
H234 H 0.32337 0.45188 0.65289 0.0
H235 H 0.30822 0.40181 0.65952 0.0
O236 O 0.34105 0.40963 0.5998 0.0
O237 O 0.33422 0.43943 0.62331 0.0
O238 O 0.3101 0.40945 0.62127 0.0
O239 O 0.34454 0.40368 0.6355 0.0
H240 H 0.34711 0.43421 0.57974 0.0
H241 H 0.36612 0.3881 0.59857 0.0
H242 H 0.37204 0.43599 0.56259 0.0
H243 H 0.39087 0.39083 0.58128 0.0
H244 H 0.373 0.47428 0.64435 0.0
H245 H 0.33719 0.46005 0.59917 0.0
H246 H 0.35447 0.44949 0.64595 0.0
H247 H 0.35591 0.4847 0.59845 0.0
H248 H 0.3054 0.43851 0.55336 0.0
H249 H 0.286 0.47017 0.59037 0.0
H250 H 0.40742 0.41247 0.63933 0.0
H251 H 0.40297 0.44953 0.60274 0.0
H252 H 0.28865 0.42948 0.6356 0.0
H253 H 0.29623 0.39816 0.59516 0.0
H254 H 0.26041 0.43648 0.62561 0.0
H255 H 0.26783 0.4057 0.5859 0.0
H256 H 0.33313 0.3753 0.64739 0.0
H257 H 0.35728 0.42187 0.65848 0.0
H258 H 0.33418 0.36768 0.67557 0.0
H259 H 0.35779 0.41348 0.6865 0.0
H260 H 0.35282 0.33906 0.61456 0.0
H261 H 0.29923 0.34378 0.60998 0.0
H262 H 0.31205 0.45983 0.67878 0.0
H263 H 0.29704 0.40852 0.68573 0.0
Li264 Li 0.82988 0.09951 0.87566 0.0
Li265 Li 0.82427 0.07605 0.85964 0.0
Li266 Li 0.82756 0.07205 0.88696 0.0
Li267 Li 0.8516 0.07916 0.87023 0.0
C268 C 0.79889 0.09072 0.88741 0.0
N269 N 0.77662 0.10222 0.90969 0.0
C270 C 0.78172 0.08984 0.88465 0.0
C271 C 0.80475 0.09743 0.90152 0.0
C272 C 0.77066 0.09573 0.89606 0.0
C273 C 0.79329 0.10317 0.91263 0.0
C274 C 0.83451 0.10503 0.84406 0.0
C275 C 0.83936 0.12413 0.82267 0.0
N276 N 0.82268 0.1272 0.82185 0.0
C277 C 0.8174 0.10839 0.84301 0.0
C278 C 0.84558 0.11297 0.83383 0.0
C279 C 0.81168 0.11962 0.8317 0.0
C280 C 0.84025 0.13174 0.8828 0.0
N281 N 0.82653 0.12272 0.87886 0.0
C282 C 0.80955 0.14725 0.87914 0.0
C283 C 0.81136 0.13007 0.87693 0.0
C284 C 0.82353 0.15696 0.88321 0.0
C285 C 0.83904 0.14896 0.88502 0.0
H286 H 0.85218 0.12555 0.88405 0.0
H287 H 0.80067 0.12264 0.87359 0.0
C288 C 0.79836 0.05802 0.84642 0.0
N289 N 0.81184 0.06745 0.84258 0.0
C290 C 0.78853 0.0509 0.83471 0.0
C291 C 0.80665 0.06343 0.81531 0.0
C292 C 0.8163 0.07006 0.82741 0.0
C293 C 0.79248 0.05375 0.81887 0.0
H294 H 0.79533 0.05596 0.85863 0.0
H295 H 0.82729 0.07734 0.8247 0.0
C296 C 0.85659 0.08427 0.90206 0.0
N297 N 0.87963 0.07457 0.92438 0.0
C298 C 0.86139 0.06753 0.90324 0.0
C299 C 0.86353 0.09608 0.91221 0.0
C300 C 0.87305 0.06287 0.9146 0.0
C301 C 0.87515 0.09092 0.92343 0.0
C302 C 0.83841 0.04647 0.85904 0.0
C303 C 0.82915 0.03183 0.86103 0.0
C304 C 0.84771 0.04879 0.84533 0.0
C305 C 0.82925 0.01977 0.84918 0.0
C306 C 0.84748 0.03644 0.83377 0.0
N307 N 0.83832 0.02231 0.83591 0.0
C308 C 0.80735 0.04796 0.90003 0.0
C309 C 0.82343 0.06219 0.91916 0.0
C310 C 0.79994 0.03808 0.91155 0.0
N311 N 0.81904 0.0595 0.90397 0.0
C312 C 0.81644 0.0525 0.93106 0.0
C313 C 0.8046 0.04015 0.9273 0.0
H314 H 0.8037 0.04655 0.8879 0.0
H315 H 0.83229 0.07186 0.92208 0.0
C316 C 0.88395 0.09048 0.86443 0.0
N317 N 0.87482 0.07651 0.86727 0.0
C318 C 0.90124 0.0894 0.8627 0.0
C319 C 0.89935 0.05957 0.86679 0.0
C320 C 0.88209 0.06123 0.86846 0.0
C321 C 0.90918 0.07379 0.86392 0.0
H322 H 0.87777 0.10247 0.8637 0.0
H323 H 0.8745 0.05035 0.87082 0.0
O324 O 0.80978 0.08486 0.87632 0.0
O325 O 0.84053 0.09419 0.8551 0.0
O326 O 0.84538 0.08926 0.89089 0.0
O327 O 0.83812 0.05864 0.87029 0.0
H328 H 0.777 0.08464 0.8738 0.0
H329 H 0.81797 0.09823 0.90391 0.0
H330 H 0.75733 0.09513 0.89407 0.0
H331 H 0.79764 0.1084 0.92359 0.0
H332 H 0.8478 0.13036 0.81467 0.0
H333 H 0.80861 0.10237 0.85079 0.0
H334 H 0.85886 0.11053 0.83452 0.0
H335 H 0.79848 0.12232 0.83075 0.0
H336 H 0.79732 0.15283 0.87776 0.0
H337 H 0.85022 0.15595 0.88782 0.0
H338 H 0.77798 0.04325 0.83808 0.0
H339 H 0.8101 0.06619 0.80331 0.0
H340 H 0.85613 0.05819 0.89554 0.0
H341 H 0.85998 0.1091 0.91141 0.0
H342 H 0.87686 0.04996 0.91565 0.0
H343 H 0.88062 0.09993 0.93137 0.0
H344 H 0.82193 0.0298 0.87157 0.0
H345 H 0.8548 0.06013 0.84354 0.0
H346 H 0.82209 0.00841 0.85053 0.0
H347 H 0.85452 0.03812 0.82305 0.0
H348 H 0.7906 0.029 0.90815 0.0
H349 H 0.8205 0.05448 0.94302 0.0
H350 H 0.90834 0.10073 0.86076 0.0
H351 H 0.90493 0.04728 0.86767 0.0
Li352 Li 0.14679 0.42329 0.87297 0.0
Li353 Li 0.17098 0.42552 0.89069 0.0
Li354 Li 0.17442 0.42638 0.86321 0.0
Li355 Li 0.16697 0.40073 0.87509 0.0
C356 C 0.16273 0.45638 0.86691 0.0
N357 N 0.16549 0.4837 0.84728 0.0
C358 C 0.17436 0.46893 0.87015 0.0
C359 C 0.15246 0.45776 0.85372 0.0
C360 C 0.17558 0.48263 0.86007 0.0
C361 C 0.15405 0.47166 0.84393 0.0
C362 C 0.14086 0.41285 0.90342 0.0
C363 C 0.12108 0.40385 0.92301 0.0
N364 N 0.11802 0.42007 0.92676 0.0
C365 C 0.13752 0.42944 0.90747 0.0
C366 C 0.13258 0.39994 0.91123 0.0
C367 C 0.12594 0.43283 0.9193 0.0
C368 C 0.11443 0.41528 0.86395 0.0
N369 N 0.12379 0.42769 0.87032 0.0
C370 C 0.0996 0.44471 0.87395 0.0
C371 C 0.11682 0.44228 0.87517 0.0
C372 C 0.08956 0.43201 0.86758 0.0
C373 C 0.0972 0.41721 0.86241 0.0
H374 H 0.12036 0.40376 0.86034 0.0
H375 H 0.12462 0.45193 0.8802 0.0
C376 C 0.1927 0.44498 0.90807 0.0
N377 N 0.18008 0.43378 0.9097 0.0
C378 C 0.2006 0.45158 0.92125 0.0
C379 C 0.18269 0.43458 0.93757 0.0
C380 C 0.17523 0.42822 0.92405 0.0
C381 C 0.19549 0.44653 0.93628 0.0
H382 H 0.19676 0.44861 0.89647 0.0
H383 H 0.16566 0.4188 0.92507 0.0
C384 C 0.16248 0.4015 0.84302 0.0
N385 N 0.17304 0.38326 0.81735 0.0
C386 C 0.17937 0.39747 0.84124 0.0
C387 C 0.15098 0.39626 0.83173 0.0
C388 C 0.18446 0.38824 0.82819 0.0
C389 C 0.15656 0.38704 0.81884 0.0
C390 C 0.19819 0.40492 0.88818 0.0
C391 C 0.21542 0.4049 0.88559 0.0
C392 C 0.19162 0.39617 0.90097 0.0
C393 C 0.22581 0.39611 0.89583 0.0
C394 C 0.20243 0.38755 0.91095 0.0
N395 N 0.21916 0.38769 0.9082 0.0
C396 C 0.20361 0.44062 0.85186 0.0
C397 C 0.18248 0.43799 0.83252 0.0
C398 C 0.21499 0.44618 0.84065 0.0
N399 N 0.18788 0.43628 0.84754 0.0
C400 C 0.19345 0.44348 0.82091 0.0
C401 C 0.21008 0.44721 0.82487 0.0
H402 H 0.20744 0.43927 0.86395 0.0
H403 H 0.16985 0.43449 0.82947 0.0
C404 C 0.15544 0.36805 0.87894 0.0
N405 N 0.16905 0.37712 0.87475 0.0
C406 C 0.15623 0.35064 0.8793 0.0
C407 C 0.18499 0.35225 0.87077 0.0
C408 C 0.18365 0.36962 0.87063 0.0
C409 C 0.17118 0.34253 0.87523 0.0
H410 H 0.14396 0.37437 0.88202 0.0
H411 H 0.19431 0.37712 0.86733 0.0
O412 O 0.16161 0.44265 0.87639 0.0
O413 O 0.15194 0.40915 0.8917 0.0
O414 O 0.1571 0.41053 0.85568 0.0
O415 O 0.18795 0.41356 0.87821 0.0
H416 H 0.18239 0.46809 0.8803 0.0
H417 H 0.14355 0.44805 0.85091 0.0
H418 H 0.18456 0.49241 0.86241 0.0
H419 H 0.14626 0.47283 0.83363 0.0
H420 H 0.11458 0.39398 0.92915 0.0
H421 H 0.14384 0.43961 0.90163 0.0
H422 H 0.135 0.38703 0.90823 0.0
H423 H 0.12324 0.44561 0.92255 0.0
H424 H 0.09419 0.45635 0.87797 0.0
H425 H 0.08989 0.40702 0.85765 0.0
H426 H 0.21067 0.46045 0.91968 0.0
H427 H 0.17826 0.43038 0.9489 0.0
H428 H 0.18849 0.40145 0.84979 0.0
H429 H 0.13786 0.39929 0.83293 0.0
H430 H 0.19748 0.38505 0.82667 0.0
H431 H 0.14778 0.3829 0.81001 0.0
H432 H 0.2207 0.41159 0.87574 0.0
H433 H 0.17835 0.39598 0.9032 0.0
H434 H 0.23917 0.39599 0.89395 0.0
H435 H 0.19752 0.38073 0.92088 0.0
H436 H 0.22762 0.44915 0.84421 0.0
H437 H 0.18921 0.44394 0.80886 0.0
H438 H 0.14522 0.34361 0.88259 0.0
H439 H 0.19679 0.3465 0.86769 0.0
Li440 Li 0.82705 0.92254 0.10748 0.0
Li441 Li 0.85223 0.92094 0.12393 0.0
Li442 Li 0.83222 0.89813 0.12341 0.0
Li443 Li 0.82522 0.92397 0.13511 0.0
C444 C 0.85655 0.90948 0.09359 0.0
N445 N 0.87821 0.91574 0.06907 0.0
C446 C 0.8597 0.9259 0.08885 0.0
C447 C 0.86445 0.89626 0.0859 0.0
C448 C 0.87068 0.9288 0.07642 0.0
C449 C 0.87535 0.89968 0.07351 0.0
C450 C 0.83658 0.95396 0.13025 0.0
C451 C 0.84623 0.96924 0.15287 0.0
N452 N 0.83516 0.98163 0.14956 0.0
C453 C 0.82534 0.96686 0.12704 0.0
C454 C 0.84715 0.95516 0.14324 0.0
C455 C 0.82479 0.98074 0.13695 0.0
C456 C 0.80515 0.94222 0.09049 0.0
N457 N 0.8171 0.93035 0.08872 0.0
C458 C 0.81355 0.93061 0.06093 0.0
C459 C 0.82109 0.92413 0.07436 0.0
C460 C 0.80162 0.9434 0.06234 0.0
C461 C 0.79722 0.949 0.0774 0.0
H462 H 0.80177 0.94641 0.10211 0.0
H463 H 0.83016 0.91422 0.07327 0.0
C464 C 0.88557 0.91293 0.12901 0.0
N465 N 0.8753 0.92565 0.1248 0.0
C466 C 0.90285 0.91511 0.12871 0.0
C467 C 0.8986 0.94353 0.11995 0.0
C468 C 0.88139 0.94079 0.12039 0.0
C469 C 0.90957 0.93052 0.12398 0.0
H470 H 0.8803 0.90101 0.13235 0.0
H471 H 0.87289 0.95059 0.11687 0.0
C472 C 0.80017 0.90191 0.11171 0.0
N473 N 0.77816 0.88433 0.093 0.0
C474 C 0.78308 0.9021 0.11502 0.0
C475 C 0.80607 0.89279 0.09886 0.0
C476 C 0.77215 0.89313 0.10543 0.0
C477 C 0.79474 0.88399 0.08955 0.0
C478 C 0.83851 0.89977 0.15513 0.0
C479 C 0.82183 0.89522 0.15749 0.0
C480 C 0.85054 0.89528 0.16621 0.0
C481 C 0.81748 0.88627 0.17094 0.0
C482 C 0.84569 0.88631 0.17951 0.0
N483 N 0.8294 0.88203 0.18158 0.0
C484 C 0.84492 0.86577 0.1216 0.0
C485 C 0.81615 0.86667 0.12816 0.0
C486 C 0.84481 0.84835 0.12212 0.0
N487 N 0.83071 0.8745 0.12452 0.0
C488 C 0.81542 0.84927 0.12862 0.0
C489 C 0.82988 0.83991 0.12555 0.0
H490 H 0.85633 0.87238 0.11885 0.0
H491 H 0.80509 0.8739 0.13072 0.0
C492 C 0.79699 0.93947 0.14702 0.0
N493 N 0.81253 0.9343 0.15115 0.0
C494 C 0.7862 0.94595 0.1583 0.0
C495 C 0.80787 0.94227 0.17775 0.0
C496 C 0.81829 0.93593 0.16606 0.0
C497 C 0.79144 0.94701 0.17399 0.0
H498 H 0.79289 0.93819 0.135 0.0
H499 H 0.83079 0.93186 0.16895 0.0
O500 O 0.84608 0.90628 0.10591 0.0
O501 O 0.83704 0.94005 0.12094 0.0
O502 O 0.81092 0.91077 0.12102 0.0
O503 O 0.84319 0.90849 0.14205 0.0
H504 H 0.85371 0.9363 0.09466 0.0
H505 H 0.86219 0.88349 0.08947 0.0
H506 H 0.87322 0.94144 0.07262 0.0
H507 H 0.88155 0.88957 0.06743 0.0
H508 H 0.85426 0.97029 0.16302 0.0
H509 H 0.81709 0.96617 0.11703 0.0
H510 H 0.85577 0.94518 0.14602 0.0
H511 H 0.81612 0.9908 0.13464 0.0
H512 H 0.81739 0.92595 0.04957 0.0
H513 H 0.78782 0.95856 0.07905 0.0
H514 H 0.91085 0.90482 0.13209 0.0
H515 H 0.90328 0.95553 0.11606 0.0
H516 H 0.77832 0.90912 0.12491 0.0
H517 H 0.81922 0.89244 0.09608 0.0
H518 H 0.7589 0.89316 0.10786 0.0
H519 H 0.79913 0.87687 0.07958 0.0
H520 H 0.81231 0.8986 0.14909 0.0
H521 H 0.8635 0.89868 0.16454 0.0
H522 H 0.80463 0.88268 0.17291 0.0
H523 H 0.85488 0.88276 0.18819 0.0
H524 H 0.8562 0.84155 0.1196 0.0
H525 H 0.80374 0.8432 0.13152 0.0
H526 H 0.77374 0.94972 0.15484 0.0
H527 H 0.81238 0.94271 0.18971 0.0
Li528 Li 0.33081 0.59795 0.37471 0.0
Li529 Li 0.32406 0.57193 0.36227 0.0
Li530 Li 0.32746 0.57314 0.39012 0.0
Li531 Li 0.35114 0.57586 0.37318 0.0
C532 C 0.29922 0.5925 0.38709 0.0
N533 N 0.27675 0.60842 0.40663 0.0
C534 C 0.28208 0.59125 0.38427 0.0
C535 C 0.30493 0.60186 0.39985 0.0
C536 C 0.27091 0.59939 0.39428 0.0
C537 C 0.29338 0.60981 0.40959 0.0
C538 C 0.33564 0.59725 0.34273 0.0
C539 C 0.34123 0.61127 0.31825 0.0
N540 N 0.32473 0.61502 0.31691 0.0
C541 C 0.31873 0.60124 0.3411 0.0
C542 C 0.34699 0.60229 0.33122 0.0
C543 C 0.31346 0.61023 0.32797 0.0
C544 C 0.34218 0.63063 0.37753 0.0
N545 N 0.32831 0.62152 0.37428 0.0
C546 C 0.3121 0.64634 0.37118 0.0
C547 C 0.31346 0.62896 0.37099 0.0
C548 C 0.32618 0.65613 0.37468 0.0
C549 C 0.34141 0.64803 0.37777 0.0
H550 H 0.35385 0.62433 0.37995 0.0
H551 H 0.30263 0.62144 0.36831 0.0
C552 C 0.29573 0.55626 0.35111 0.0
N553 N 0.31101 0.56174 0.34652 0.0
C554 C 0.28437 0.55037 0.34005 0.0
C555 C 0.30505 0.55509 0.31984 0.0
C556 C 0.31603 0.56088 0.33132 0.0
C557 C 0.28883 0.55016 0.32412 0.0
H558 H 0.2922 0.55699 0.36334 0.0
H559 H 0.32829 0.56531 0.32802 0.0
C560 C 0.35648 0.58625 0.40357 0.0
N561 N 0.37864 0.57897 0.42744 0.0
C562 C 0.3594 0.56967 0.40792 0.0
C563 C 0.36484 0.59912 0.41137 0.0
C564 C 0.37065 0.56624 0.42001 0.0
C565 C 0.37599 0.59519 0.42341 0.0
C566 C 0.34231 0.54312 0.36659 0.0
C567 C 0.34047 0.52664 0.37167 0.0
C568 C 0.35006 0.54637 0.35221 0.0
C569 C 0.34642 0.51364 0.36227 0.0
C570 C 0.35585 0.53303 0.34316 0.0
N571 N 0.35393 0.51708 0.34833 0.0
C572 C 0.30761 0.55141 0.40695 0.0
C573 C 0.3212 0.57126 0.42316 0.0
C574 C 0.29955 0.54448 0.4199 0.0
N575 N 0.31826 0.56444 0.40883 0.0
C576 C 0.31358 0.56458 0.43646 0.0
C577 C 0.30258 0.55097 0.43494 0.0
H578 H 0.30528 0.54652 0.39533 0.0
H579 H 0.3294 0.58191 0.42429 0.0
C580 C 0.38307 0.58457 0.3638 0.0
N581 N 0.3744 0.57215 0.37093 0.0
C582 C 0.4004 0.58365 0.3626 0.0
C583 C 0.39955 0.55702 0.37596 0.0
C584 C 0.38218 0.55842 0.37681 0.0
C585 C 0.40892 0.56987 0.36896 0.0
H586 H 0.37651 0.59536 0.35929 0.0
H587 H 0.37496 0.54874 0.38249 0.0
O588 O 0.31023 0.58447 0.37739 0.0
O589 O 0.34121 0.58845 0.35546 0.0
O590 O 0.34568 0.58999 0.39165 0.0
O591 O 0.33649 0.5559 0.37574 0.0
H592 H 0.27745 0.58406 0.37444 0.0
H593 H 0.31814 0.60303 0.40223 0.0
H594 H 0.25761 0.59853 0.39223 0.0
H595 H 0.29763 0.61709 0.4195 0.0
H596 H 0.34988 0.61524 0.30925 0.0
H597 H 0.30971 0.59739 0.3498 0.0
H598 H 0.36012 0.59928 0.33229 0.0
H599 H 0.30041 0.61338 0.32656 0.0
H600 H 0.30007 0.65202 0.36888 0.0
H601 H 0.35267 0.65505 0.38022 0.0
H602 H 0.27207 0.54648 0.34385 0.0
H603 H 0.30893 0.55531 0.30767 0.0
H604 H 0.35305 0.55952 0.40205 0.0
H605 H 0.36273 0.61202 0.40813 0.0
H606 H 0.37302 0.55347 0.42349 0.0
H607 H 0.38255 0.60503 0.42954 0.0
H608 H 0.33449 0.52393 0.38277 0.0
H609 H 0.35166 0.55902 0.34807 0.0
H610 H 0.34508 0.50082 0.36607 0.0
H611 H 0.36188 0.53537 0.33202 0.0
H612 H 0.29094 0.53423 0.41809 0.0
H613 H 0.31649 0.56988 0.44781 0.0
H614 H 0.40706 0.5937 0.35685 0.0
H615 H 0.40559 0.54626 0.38115 0.0
Li616 Li 0.67117 0.10279 0.61905 0.0
Li617 Li 0.67548 0.0782 0.636 0.0
Li618 Li 0.67655 0.07586 0.60838 0.0
Li619 Li 0.65041 0.08068 0.62061 0.0
C620 C 0.70565 0.08983 0.61289 0.0
N621 N 0.73359 0.0898 0.59388 0.0
C622 C 0.71982 0.08077 0.61725 0.0
C623 C 0.70572 0.09897 0.59892 0.0
C624 C 0.73382 0.08089 0.60746 0.0
C625 C 0.71996 0.09877 0.58946 0.0
C626 C 0.66032 0.10664 0.64968 0.0
C627 C 0.6496 0.12404 0.67046 0.0
N628 N 0.66542 0.12904 0.67386 0.0
C629 C 0.67648 0.11197 0.65336 0.0
C630 C 0.64676 0.11274 0.65826 0.0
C631 C 0.67879 0.12329 0.66563 0.0
C632 C 0.65903 0.13493 0.61551 0.0
N633 N 0.67341 0.12618 0.61742 0.0
C634 C 0.68936 0.15135 0.61842 0.0
C635 C 0.68842 0.13394 0.61891 0.0
C636 C 0.67466 0.16075 0.61663 0.0
C637 C 0.65936 0.15234 0.61512 0.0
H638 H 0.64729 0.12835 0.61451 0.0
H639 H 0.69961 0.12664 0.62074 0.0
C640 C 0.69695 0.05806 0.65315 0.0
N641 N 0.68442 0.06936 0.65481 0.0
C642 C 0.70406 0.05056 0.66632 0.0
C643 C 0.68489 0.06615 0.68263 0.0
C644 C 0.67807 0.07323 0.66914 0.0
C645 C 0.69815 0.05472 0.68134 0.0
H646 H 0.7013 0.05477 0.64155 0.0
H647 H 0.66768 0.08174 0.67016 0.0
C648 C 0.65036 0.08651 0.58882 0.0
N649 N 0.63221 0.07562 0.56323 0.0
C650 C 0.64736 0.06946 0.58665 0.0
C651 C 0.64408 0.09802 0.578 0.0
C652 C 0.63817 0.06421 0.57363 0.0
C653 C 0.63495 0.09227 0.56513 0.0
C654 C 0.65731 0.04939 0.63259 0.0
C655 C 0.65908 0.03231 0.62966 0.0
C656 C 0.64784 0.05473 0.64544 0.0
C657 C 0.65132 0.02083 0.63961 0.0
C658 C 0.64028 0.04286 0.65512 0.0
N659 N 0.64216 0.0263 0.65203 0.0
C660 C 0.69735 0.05073 0.59721 0.0
C661 C 0.68718 0.06839 0.57707 0.0
C662 C 0.70577 0.0409 0.58627 0.0
N663 N 0.68809 0.06399 0.59243 0.0
C664 C 0.69499 0.05863 0.56569 0.0
C665 C 0.70427 0.04447 0.57017 0.0
H666 H 0.69808 0.04775 0.60956 0.0
H667 H 0.68009 0.07926 0.5736 0.0
C668 C 0.61756 0.09078 0.6238 0.0
N669 N 0.62701 0.07725 0.62016 0.0
C670 C 0.60019 0.08974 0.62345 0.0
C671 C 0.60259 0.06082 0.6156 0.0
C672 C 0.61995 0.06242 0.61611 0.0
C673 C 0.59248 0.07464 0.61923 0.0
H674 H 0.62356 0.10242 0.6269 0.0
H675 H 0.62778 0.05188 0.61312 0.0
O676 O 0.69166 0.08954 0.62208 0.0
O677 O 0.65763 0.09575 0.63757 0.0
O678 O 0.65915 0.09207 0.60155 0.0
O679 O 0.66499 0.06068 0.62294 0.0
H680 H 0.72001 0.07369 0.62804 0.0
H681 H 0.69478 0.10592 0.59531 0.0
H682 H 0.74486 0.07389 0.61066 0.0
H683 H 0.72015 0.10569 0.57856 0.0
H684 H 0.63922 0.12885 0.67721 0.0
H685 H 0.68714 0.10741 0.64688 0.0
H686 H 0.63417 0.10877 0.65553 0.0
H687 H 0.69122 0.12751 0.66862 0.0
H688 H 0.70135 0.15741 0.61983 0.0
H689 H 0.64778 0.15915 0.61361 0.0
H690 H 0.714 0.04155 0.66474 0.0
H691 H 0.67999 0.06984 0.69394 0.0
H692 H 0.65211 0.06036 0.59486 0.0
H693 H 0.64624 0.11126 0.57956 0.0
H694 H 0.63578 0.05106 0.5718 0.0
H695 H 0.63002 0.10104 0.55667 0.0
H696 H 0.6664 0.02799 0.61978 0.0
H697 H 0.6463 0.06786 0.64794 0.0
H698 H 0.65258 0.00758 0.63747 0.0
H699 H 0.63293 0.04681 0.66509 0.0
H700 H 0.71313 0.03046 0.59042 0.0
H701 H 0.69318 0.06189 0.55349 0.0
H702 H 0.59289 0.10064 0.62655 0.0
H703 H 0.59716 0.049 0.61212 0.0
Li704 Li 0.82721 0.41666 0.8614 0.0
Li705 Li 0.8265 0.42094 0.88931 0.0
Li706 Li 0.85301 0.41417 0.87632 0.0
Li707 Li 0.83119 0.39369 0.88004 0.0
C708 C 0.84634 0.44518 0.86333 0.0
N709 N 0.86172 0.46719 0.84299 0.0
C710 C 0.84541 0.46236 0.866 0.0
C711 C 0.85506 0.43918 0.85028 0.0
C712 C 0.85328 0.4733 0.85559 0.0
C713 C 0.86276 0.45051 0.84015 0.0
C714 C 0.79585 0.41001 0.88354 0.0
C715 C 0.77768 0.40779 0.90602 0.0
N716 N 0.76564 0.4163 0.8981 0.0
C717 C 0.7832 0.41851 0.87555 0.0
C718 C 0.79298 0.4044 0.89882 0.0
C719 C 0.76805 0.42164 0.88313 0.0
C720 C 0.82262 0.41852 0.82799 0.0
N721 N 0.81824 0.42485 0.8422 0.0
C722 C 0.80004 0.44466 0.83007 0.0
C723 C 0.80757 0.43798 0.84343 0.0
C724 C 0.80374 0.43787 0.81529 0.0
C725 C 0.81539 0.42479 0.81434 0.0
H726 H 0.83168 0.40861 0.82714 0.0
H727 H 0.80485 0.44322 0.85484 0.0
C728 C 0.8211 0.43187 0.92022 0.0
N729 N 0.81672 0.43438 0.90503 0.0
C730 C 0.81437 0.44189 0.93199 0.0
C731 C 0.7986 0.45679 0.91225 0.0
C732 C 0.80575 0.44653 0.90084 0.0
C733 C 0.80299 0.45461 0.92808 0.0
H734 H 0.83003 0.42224 0.92316 0.0
H735 H 0.8026 0.44826 0.88861 0.0
C736 C 0.84054 0.38682 0.84923 0.0
N737 N 0.833 0.36345 0.82644 0.0
C738 C 0.82412 0.38119 0.84736 0.0
C739 C 0.8531 0.38054 0.83949 0.0
C740 C 0.82057 0.36937 0.83578 0.0
C741 C 0.84904 0.36875 0.82804 0.0
C742 C 0.84943 0.39285 0.90595 0.0
C743 C 0.86561 0.38647 0.90449 0.0
C744 C 0.83859 0.38599 0.91708 0.0
C745 C 0.87054 0.37309 0.91393 0.0
C746 C 0.84398 0.3726 0.92628 0.0
N747 N 0.85971 0.36647 0.92452 0.0
C748 C 0.88305 0.43203 0.88178 0.0
C749 C 0.88593 0.40629 0.8683 0.0
C750 C 0.90026 0.43475 0.88098 0.0
N751 N 0.87631 0.41797 0.87548 0.0
C752 C 0.90316 0.40844 0.8673 0.0
C753 C 0.91055 0.4228 0.87373 0.0
H754 H 0.87504 0.4411 0.88743 0.0
H755 H 0.88019 0.3952 0.86348 0.0
C756 C 0.8124 0.36402 0.88602 0.0
N757 N 0.82785 0.37044 0.88333 0.0
C758 C 0.81029 0.34682 0.88791 0.0
C759 C 0.84003 0.34325 0.88426 0.0
C760 C 0.84152 0.36045 0.88222 0.0
C761 C 0.82426 0.33625 0.88711 0.0
H762 H 0.80169 0.37221 0.88649 0.0
H763 H 0.85357 0.36587 0.87962 0.0
O764 O 0.83861 0.43438 0.87342 0.0
O765 O 0.81088 0.40704 0.87638 0.0
O766 O 0.84444 0.39824 0.86062 0.0
O767 O 0.84428 0.40579 0.89661 0.0
H768 H 0.83865 0.46719 0.87603 0.0
H769 H 0.85589 0.42593 0.84797 0.0
H770 H 0.85267 0.48664 0.85753 0.0
H771 H 0.86956 0.44604 0.83001 0.0
H772 H 0.77539 0.40367 0.91791 0.0
H773 H 0.78497 0.42255 0.86358 0.0
H774 H 0.80252 0.39763 0.90509 0.0
H775 H 0.7582 0.42828 0.87711 0.0
H776 H 0.79139 0.45498 0.8313 0.0
H777 H 0.8186 0.41914 0.8032 0.0
H778 H 0.81842 0.43998 0.94398 0.0
H779 H 0.78979 0.46632 0.90871 0.0
H780 H 0.81417 0.38586 0.8547 0.0
H781 H 0.86586 0.38477 0.84071 0.0
H782 H 0.80793 0.36491 0.83422 0.0
H783 H 0.85865 0.36381 0.82041 0.0
H784 H 0.87424 0.39167 0.89608 0.0
H785 H 0.82614 0.39089 0.91859 0.0
H786 H 0.88298 0.36796 0.91282 0.0
H787 H 0.83566 0.3671 0.93484 0.0
H788 H 0.90549 0.44591 0.8862 0.0
H789 H 0.9106 0.39902 0.86145 0.0
H790 H 0.79792 0.34184 0.89004 0.0
H791 H 0.85105 0.33547 0.88326 0.0
Li792 Li 0.33259 0.1017 0.62045 0.0
Li793 Li 0.35473 0.08062 0.62146 0.0
Li794 Li 0.32715 0.07531 0.60793 0.0
Li795 Li 0.32885 0.07552 0.63639 0.0
C796 C 0.34854 0.10482 0.59302 0.0
N797 N 0.35544 0.13213 0.57425 0.0
C798 C 0.36478 0.11117 0.59216 0.0
C799 C 0.33589 0.11218 0.58408 0.0
C800 C 0.368 0.12502 0.58267 0.0
C801 C 0.3396 0.12603 0.57475 0.0
C802 C 0.35638 0.09631 0.65111 0.0
C803 C 0.37265 0.08545 0.67263 0.0
N804 N 0.37872 0.10102 0.67543 0.0
C805 C 0.36259 0.11226 0.65436 0.0
C806 C 0.3613 0.08284 0.66044 0.0
C807 C 0.37395 0.11437 0.66664 0.0
C808 C 0.31379 0.1319 0.61857 0.0
N809 N 0.32933 0.12515 0.61944 0.0
C810 C 0.34186 0.15211 0.61745 0.0
C811 C 0.34323 0.13486 0.61909 0.0
C812 C 0.326 0.15948 0.61624 0.0
C813 C 0.31181 0.14917 0.61697 0.0
H814 H 0.30294 0.12389 0.61897 0.0
H815 H 0.35543 0.12914 0.61987 0.0
C816 C 0.38515 0.06324 0.61573 0.0
N817 N 0.37827 0.07775 0.62092 0.0
C818 C 0.40251 0.06144 0.61511 0.0
C819 C 0.40527 0.08966 0.62486 0.0
C820 C 0.38793 0.09087 0.62536 0.0
C821 C 0.41278 0.07482 0.61964 0.0
H822 H 0.37717 0.05312 0.61195 0.0
H823 H 0.38216 0.10243 0.62897 0.0
C824 C 0.29662 0.08492 0.61731 0.0
N825 N 0.26485 0.07931 0.60576 0.0
C826 C 0.28577 0.07405 0.6251 0.0
C827 C 0.29118 0.09316 0.60379 0.0
C828 C 0.26979 0.07132 0.61904 0.0
C829 C 0.27512 0.0901 0.59809 0.0
C830 C 0.34289 0.0445 0.62754 0.0
C831 C 0.33249 0.03138 0.6229 0.0
C832 C 0.35603 0.04132 0.6379 0.0
C833 C 0.33508 0.01543 0.62908 0.0
C834 C 0.35824 0.0252 0.64382 0.0
N835 N 0.34778 0.0127 0.63934 0.0
C836 C 0.32252 0.06858 0.57593 0.0
C837 C 0.30451 0.05333 0.59272 0.0
C838 C 0.31574 0.06075 0.5628 0.0
N839 N 0.31687 0.06474 0.59051 0.0
C840 C 0.29741 0.04513 0.5799 0.0
C841 C 0.30311 0.04875 0.56471 0.0
H842 H 0.33254 0.07748 0.57451 0.0
H843 H 0.3003 0.05044 0.60444 0.0
C844 C 0.32084 0.07578 0.66844 0.0
N845 N 0.31987 0.06643 0.65517 0.0
C846 C 0.31398 0.06992 0.68242 0.0
C847 C 0.30472 0.04515 0.66874 0.0
C848 C 0.31198 0.05139 0.65506 0.0
C849 C 0.3057 0.05449 0.68263 0.0
H850 H 0.32667 0.08794 0.66812 0.0
H851 H 0.31084 0.04447 0.64426 0.0
O852 O 0.34507 0.09146 0.60251 0.0
O853 O 0.34534 0.09401 0.63903 0.0
O854 O 0.31238 0.08762 0.623 0.0
O855 O 0.34054 0.0602 0.62153 0.0
H856 H 0.37478 0.10553 0.59878 0.0
H857 H 0.32334 0.1073 0.58438 0.0
H858 H 0.38049 0.13013 0.58199 0.0
H859 H 0.32989 0.13192 0.56788 0.0
H860 H 0.37657 0.0751 0.67991 0.0
H861 H 0.35874 0.1229 0.64747 0.0
H862 H 0.35617 0.07055 0.6585 0.0
H863 H 0.37894 0.12662 0.6692 0.0
H864 H 0.35312 0.1596 0.61723 0.0
H865 H 0.29936 0.15434 0.616 0.0
H866 H 0.40782 0.04987 0.61081 0.0
H867 H 0.41272 0.10025 0.62854 0.0
H868 H 0.28963 0.06774 0.63568 0.0
H869 H 0.29928 0.10179 0.59774 0.0
H870 H 0.26132 0.06286 0.62491 0.0
H871 H 0.27082 0.0963 0.58757 0.0
H872 H 0.32243 0.03348 0.6147 0.0
H873 H 0.36461 0.0511 0.64119 0.0
H874 H 0.32701 0.00521 0.62569 0.0
H875 H 0.36833 0.02261 0.65189 0.0
H876 H 0.32072 0.06367 0.55131 0.0
H877 H 0.28766 0.036 0.58187 0.0
H878 H 0.31465 0.07765 0.69283 0.0
H879 H 0.29828 0.03326 0.66844 0.0
Li880 Li 0.66816 0.60364 0.37238 0.0
Li881 Li 0.6463 0.58291 0.37133 0.0
Li882 Li 0.67262 0.57819 0.3854 0.0
Li883 Li 0.67224 0.57796 0.35717 0.0
C884 C 0.64988 0.60898 0.39739 0.0
N885 N 0.64014 0.6387 0.41116 0.0
C886 C 0.63413 0.61571 0.39423 0.0
C887 C 0.66057 0.61727 0.40776 0.0
C888 C 0.62946 0.63076 0.40127 0.0
C889 C 0.65546 0.63231 0.41454 0.0
C890 C 0.65927 0.60561 0.34087 0.0
C891 C 0.65117 0.62037 0.3174 0.0
N892 N 0.66731 0.62507 0.31517 0.0
C893 C 0.6758 0.61059 0.33832 0.0
C894 C 0.64686 0.61055 0.33032 0.0
C895 C 0.6796 0.62043 0.32527 0.0
C896 C 0.68635 0.63404 0.37667 0.0
N897 N 0.67149 0.62715 0.37254 0.0
C898 C 0.65968 0.6541 0.36805 0.0
C899 C 0.65829 0.63676 0.36819 0.0
C900 C 0.67484 0.66163 0.37234 0.0
C901 C 0.6883 0.65138 0.37671 0.0
H902 H 0.69672 0.62612 0.37985 0.0
H903 H 0.64664 0.63091 0.36489 0.0
C904 C 0.61594 0.56652 0.37915 0.0
N905 N 0.62296 0.57923 0.37088 0.0
C906 C 0.59864 0.56418 0.37889 0.0
C907 C 0.59626 0.58801 0.3616 0.0
C908 C 0.61356 0.58981 0.36211 0.0
C909 C 0.58858 0.57513 0.37014 0.0
H910 H 0.62378 0.5583 0.38602 0.0
H911 H 0.6195 0.59984 0.35575 0.0
C912 C 0.70351 0.58806 0.37828 0.0
N913 N 0.73384 0.58433 0.39338 0.0
C914 C 0.71655 0.57937 0.37104 0.0
C915 C 0.70607 0.59518 0.39304 0.0
C916 C 0.73175 0.57754 0.3789 0.0
C917 C 0.72143 0.59306 0.40054 0.0
C918 C 0.65297 0.55014 0.36285 0.0
C919 C 0.65399 0.53353 0.36777 0.0
C920 C 0.64424 0.55408 0.34914 0.0
C921 C 0.6462 0.5211 0.3589 0.0
C922 C 0.63662 0.5413 0.3406 0.0
N923 N 0.63775 0.52521 0.34561 0.0
C924 C 0.67779 0.5726 0.41754 0.0
C925 C 0.69313 0.55471 0.40068 0.0
C926 C 0.68457 0.56483 0.4307 0.0
N927 N 0.68217 0.56744 0.40295 0.0
C928 C 0.70025 0.54658 0.41352 0.0
C929 C 0.69591 0.55158 0.42879 0.0
H930 H 0.66888 0.58262 0.41896 0.0
H931 H 0.69632 0.5509 0.38888 0.0
C932 C 0.6761 0.57073 0.32447 0.0
N933 N 0.68132 0.56703 0.33923 0.0
C934 C 0.68357 0.56312 0.31156 0.0
C935 C 0.70083 0.54708 0.32926 0.0
C936 C 0.69299 0.55503 0.34185 0.0
C937 C 0.69636 0.55136 0.31385 0.0
H938 H 0.66624 0.57968 0.32261 0.0
H939 H 0.69635 0.55178 0.35375 0.0
O940 O 0.65482 0.59442 0.39033 0.0
O941 O 0.65513 0.59613 0.35367 0.0
O942 O 0.68845 0.58981 0.37082 0.0
O943 O 0.66062 0.56238 0.37143 0.0
H944 H 0.62564 0.60949 0.38634 0.0
H945 H 0.67272 0.61223 0.41052 0.0
H946 H 0.61735 0.63615 0.39882 0.0
H947 H 0.66367 0.63891 0.42248 0.0
H948 H 0.64168 0.62426 0.30915 0.0
H949 H 0.68563 0.60695 0.34627 0.0
H950 H 0.63402 0.60679 0.33204 0.0
H951 H 0.69233 0.62437 0.32317 0.0
H952 H 0.64893 0.66153 0.36478 0.0
H953 H 0.70027 0.65668 0.3799 0.0
H954 H 0.59318 0.55417 0.38572 0.0
H955 H 0.58898 0.59659 0.35456 0.0
H956 H 0.71506 0.57424 0.35942 0.0
H957 H 0.69622 0.60208 0.39875 0.0
H958 H 0.74191 0.57078 0.37345 0.0
H959 H 0.72347 0.59835 0.41206 0.0
H960 H 0.66075 0.53028 0.37834 0.0
H961 H 0.64334 0.56685 0.34511 0.0
H962 H 0.64688 0.50819 0.36257 0.0
H963 H 0.62982 0.54417 0.32998 0.0
H964 H 0.6806 0.56885 0.44224 0.0
H965 H 0.709 0.53649 0.41154 0.0
H966 H 0.67972 0.56685 0.2999 0.0
H967 H 0.71037 0.53781 0.33156 0.0
Li968 Li 0.1732 0.92236 0.10842 0.0
Li969 Li 0.1719 0.9237 0.13685 0.0
Li970 Li 0.16681 0.89694 0.12209 0.0
Li971 Li 0.14562 0.91904 0.12236 0.0
C972 C 0.20326 0.91175 0.11748 0.0
N973 N 0.23472 0.91504 0.10448 0.0
C974 C 0.21512 0.92213 0.12453 0.0
C975 C 0.20751 0.90284 0.10397 0.0
C976 C 0.23093 0.92368 0.11774 0.0
C977 C 0.22344 0.90473 0.09752 0.0
C978 C 0.15865 0.95463 0.12717 0.0
C979 C 0.14356 0.97455 0.14303 0.0
N980 N 0.15427 0.98676 0.13838 0.0
C981 C 0.16931 0.96747 0.12235 0.0
C982 C 0.14552 0.95827 0.13742 0.0
C983 C 0.16698 0.98359 0.12823 0.0
C984 C 0.1785 0.92753 0.07611 0.0
N985 N 0.18381 0.93188 0.09068 0.0
C986 C 0.20318 0.95146 0.07994 0.0
C987 C 0.19606 0.94341 0.0928 0.0
C988 C 0.19765 0.94752 0.06476 0.0
C989 C 0.18536 0.93517 0.0629 0.0
H990 H 0.16861 0.91845 0.07477 0.0
H991 H 0.20007 0.9466 0.10452 0.0
C992 C 0.17997 0.92557 0.16896 0.0
N993 N 0.18162 0.9335 0.15496 0.0
C994 C 0.18736 0.93218 0.1824 0.0
C995 C 0.1986 0.95465 0.16667 0.0
C996 C 0.19073 0.94776 0.15357 0.0
C997 C 0.19691 0.94682 0.18129 0.0
H998 H 0.1732 0.91393 0.16966 0.0
H999 H 0.19234 0.9535 0.14222 0.0
C1000 C 0.14975 0.89304 0.09538 0.0
N1001 N 0.14015 0.86505 0.07868 0.0
C1002 C 0.13318 0.88758 0.09583 0.0
C1003 C 0.16138 0.8844 0.08622 0.0
C1004 C 0.12859 0.87338 0.08736 0.0
C1005 C 0.1563 0.87024 0.07793 0.0
C1006 C 0.14375 0.90451 0.15277 0.0
C1007 C 0.13724 0.88883 0.1566 0.0
C1008 C 0.13927 0.91841 0.16174 0.0
C1009 C 0.12602 0.88741 0.16908 0.0
C1010 C 0.12804 0.91649 0.17415 0.0
N1011 N 0.12167 0.90116 0.17751 0.0
C1012 C 0.1849 0.86641 0.12191 0.0
C1013 C 0.15544 0.86374 0.12263 0.0
C1014 C 0.18676 0.84907 0.12176 0.0
N1015 N 0.16941 0.87335 0.12227 0.0
C1016 C 0.1567 0.84638 0.12254 0.0
C1017 C 0.17252 0.83882 0.12211 0.0
H1018 H 0.19582 0.87433 0.12181 0.0
H1019 H 0.14327 0.86959 0.12291 0.0
C1020 C 0.11667 0.93776 0.11501 0.0
N1021 N 0.12229 0.92351 0.1219 0.0
C1022 C 0.09961 0.9414 0.1148 0.0
C1023 C 0.09444 0.91541 0.12839 0.0
C1024 C 0.11156 0.91228 0.1283 0.0
C1025 C 0.08827 0.93018 0.12167 0.0
H1026 H 0.12547 0.94636 0.10976 0.0
H1027 H 0.11624 0.90074 0.13313 0.0
O1028 O 0.18764 0.91024 0.12386 0.0
O1029 O 0.16076 0.93876 0.12148 0.0
O1030 O 0.15453 0.90679 0.1038 0.0
O1031 O 0.15464 0.90613 0.14045 0.0
H1032 H 0.21218 0.92893 0.13511 0.0
H1033 H 0.19859 0.89461 0.09846 0.0
H1034 H 0.24019 0.93174 0.12303 0.0
H1035 H 0.22684 0.89799 0.087 0.0
H1036 H 0.13348 0.97749 0.151 0.0
H1037 H 0.17936 0.96504 0.11423 0.0
H1038 H 0.13674 0.94873 0.14085 0.0
H1039 H 0.17525 0.99359 0.12469 0.0
H1040 H 0.21271 0.96084 0.08184 0.0
H1041 H 0.18059 0.93197 0.0514 0.0
H1042 H 0.18613 0.92558 0.19343 0.0
H1043 H 0.20604 0.96586 0.16537 0.0
H1044 H 0.12397 0.89418 0.10271 0.0
H1045 H 0.17418 0.88855 0.08554 0.0
H1046 H 0.11582 0.86896 0.08769 0.0
H1047 H 0.16521 0.86338 0.07089 0.0
H1048 H 0.14074 0.87787 0.15 0.0
H1049 H 0.14466 0.9305 0.15938 0.0
H1050 H 0.12079 0.87537 0.17208 0.0
H1051 H 0.12447 0.92717 0.18116 0.0
H1052 H 0.19919 0.84373 0.12162 0.0
H1053 H 0.14539 0.83895 0.12262 0.0
H1054 H 0.09536 0.95293 0.1095 0.0
H1055 H 0.08611 0.90622 0.13344 0.0
Li1056 Li 0.83358 0.6017 0.12269 0.0
Li1057 Li 0.85323 0.57828 0.12351 0.0
Li1058 Li 0.82752 0.57668 0.10819 0.0
Li1059 Li 0.82696 0.57596 0.13668 0.0
C1060 C 0.85295 0.60548 0.09779 0.0
N1061 N 0.86564 0.63399 0.08395 0.0
C1062 C 0.86967 0.60991 0.10005 0.0
C1063 C 0.84273 0.61549 0.08839 0.0
C1064 C 0.87584 0.62438 0.09296 0.0
C1065 C 0.84937 0.62988 0.08154 0.0
C1066 C 0.84309 0.5938 0.15679 0.0
C1067 C 0.84686 0.58372 0.1832 0.0
N1068 N 0.83704 0.59635 0.18859 0.0
C1069 C 0.83308 0.6067 0.16258 0.0
C1070 C 0.85009 0.58224 0.16716 0.0
C1071 C 0.83017 0.60777 0.17871 0.0
C1072 C 0.817 0.63304 0.12201 0.0
N1073 N 0.83204 0.62534 0.12337 0.0
C1074 C 0.84587 0.65159 0.12611 0.0
C1075 C 0.8463 0.63419 0.12566 0.0
C1076 C 0.83053 0.65998 0.12456 0.0
C1077 C 0.81594 0.65043 0.12257 0.0
H1078 H 0.80579 0.62568 0.12066 0.0
H1079 H 0.85805 0.6277 0.12707 0.0
C1080 C 0.88286 0.56541 0.11056 0.0
N1081 N 0.87629 0.57285 0.12348 0.0
C1082 C 0.89993 0.56206 0.10975 0.0
C1083 C 0.9032 0.57442 0.13544 0.0
C1084 C 0.88602 0.57736 0.13582 0.0
C1085 C 0.91041 0.56675 0.12222 0.0
H1086 H 0.87485 0.56228 0.10079 0.0
H1087 H 0.8805 0.58362 0.14578 0.0
C1088 C 0.79761 0.58762 0.11494 0.0
N1089 N 0.76799 0.58332 0.09882 0.0
C1090 C 0.78614 0.57552 0.11981 0.0
C1091 C 0.79399 0.59755 0.1019 0.0
C1092 C 0.77123 0.57355 0.1115 0.0
C1093 C 0.77896 0.59517 0.09389 0.0
C1094 C 0.84721 0.54612 0.12054 0.0
C1095 C 0.84836 0.53817 0.10599 0.0
C1096 C 0.85704 0.54055 0.13304 0.0
C1097 C 0.85942 0.52482 0.10415 0.0
C1098 C 0.86798 0.52718 0.13072 0.0
N1099 N 0.86893 0.51966 0.11645 0.0
C1100 C 0.82195 0.57384 0.07556 0.0
C1101 C 0.80672 0.55485 0.09138 0.0
C1102 C 0.81518 0.56687 0.06198 0.0
N1103 N 0.81765 0.56772 0.08985 0.0
C1104 C 0.79952 0.54762 0.07814 0.0
C1105 C 0.80387 0.55349 0.06315 0.0
H1106 H 0.8309 0.58388 0.07468 0.0
H1107 H 0.80376 0.55008 0.10291 0.0
C1108 C 0.8019 0.57653 0.15924 0.0
N1109 N 0.8152 0.56743 0.15423 0.0
C1110 C 0.79201 0.57073 0.17151 0.0
C1111 C 0.81011 0.54666 0.17376 0.0
C1112 C 0.8195 0.55278 0.1612 0.0
C1113 C 0.79605 0.55559 0.17885 0.0
H1114 H 0.79886 0.58819 0.1535 0.0
H1115 H 0.8301 0.54579 0.15695 0.0
O1116 O 0.84659 0.59149 0.10481 0.0
O1117 O 0.84565 0.59223 0.14101 0.0
O1118 O 0.81242 0.58955 0.12275 0.0
O1119 O 0.83657 0.55932 0.12253 0.0
H1120 H 0.87776 0.60237 0.10731 0.0
H1121 H 0.82977 0.61228 0.08654 0.0
H1122 H 0.88873 0.628 0.09468 0.0
H1123 H 0.84157 0.63779 0.07433 0.0
H1124 H 0.85209 0.5748 0.19135 0.0
H1125 H 0.82746 0.61568 0.15471 0.0
H1126 H 0.85772 0.57207 0.16284 0.0
H1127 H 0.82238 0.61764 0.18336 0.0
H1128 H 0.85747 0.65837 0.12751 0.0
H1129 H 0.8038 0.6563 0.12169 0.0
H1130 H 0.90485 0.55596 0.0994 0.0
H1131 H 0.91078 0.57859 0.14519 0.0
H1132 H 0.7888 0.56754 0.12972 0.0
H1133 H 0.80276 0.60688 0.0979 0.0
H1134 H 0.76227 0.56418 0.11509 0.0
H1135 H 0.77605 0.60272 0.08373 0.0
H1136 H 0.84091 0.54234 0.09616 0.0
H1137 H 0.8565 0.54671 0.14432 0.0
H1138 H 0.86049 0.51859 0.09294 0.0
H1139 H 0.87576 0.52284 0.14025 0.0
H1140 H 0.8192 0.57158 0.05069 0.0
H1141 H 0.79076 0.53745 0.07964 0.0
H1142 H 0.78135 0.57803 0.17529 0.0
H1143 H 0.81355 0.53492 0.1792 0.0
Li1144 Li 0.14619 0.08276 0.87088 0.0
Li1145 Li 0.1671 0.10476 0.87409 0.0
Li1146 Li 0.17315 0.07832 0.85903 0.0
Li1147 Li 0.17184 0.07782 0.88747 0.0
C1148 C 0.14452 0.10097 0.84417 0.0
N1149 N 0.11876 0.10994 0.82431 0.0
C1150 C 0.13843 0.11733 0.84419 0.0
C1151 C 0.13772 0.08926 0.83383 0.0
C1152 C 0.12535 0.1216 0.83411 0.0
C1153 C 0.12464 0.09401 0.82395 0.0
C1154 C 0.14961 0.10382 0.90329 0.0
C1155 C 0.15803 0.11764 0.92717 0.0
N1156 N 0.14228 0.1237 0.92891 0.0
C1157 C 0.13343 0.10997 0.90547 0.0
C1158 C 0.16195 0.1075 0.91435 0.0
C1159 C 0.13 0.12009 0.91843 0.0
C1160 C 0.11627 0.06372 0.86844 0.0
N1161 N 0.12281 0.07938 0.86896 0.0
C1162 C 0.09573 0.09148 0.86617 0.0
C1163 C 0.11293 0.09314 0.86805 0.0
C1164 C 0.08859 0.07549 0.86542 0.0
C1165 C 0.09907 0.06147 0.86669 0.0
H1166 H 0.1244 0.05299 0.86937 0.0
H1167 H 0.11843 0.10543 0.86879 0.0
C1168 C 0.18458 0.13541 0.87045 0.0
N1169 N 0.17 0.12831 0.87517 0.0
C1170 C 0.18663 0.15273 0.87113 0.0
C1171 C 0.15849 0.15507 0.88117 0.0
C1172 C 0.15701 0.13776 0.88029 0.0
C1173 C 0.17348 0.16279 0.87661 0.0
H1174 H 0.19462 0.12762 0.86613 0.0
H1175 H 0.14532 0.1319 0.88333 0.0
C1176 C 0.1627 0.04724 0.86568 0.0
N1177 N 0.16779 0.01656 0.85159 0.0
C1178 C 0.17331 0.0355 0.8726 0.0
C1179 C 0.15444 0.04324 0.85174 0.0
C1180 C 0.17578 0.02009 0.86526 0.0
C1181 C 0.15724 0.02771 0.84475 0.0
C1182 C 0.20263 0.09383 0.88104 0.0
C1183 C 0.21697 0.0853 0.87618 0.0
C1184 C 0.2039 0.10593 0.8928 0.0
C1185 C 0.23222 0.08868 0.88346 0.0
C1186 C 0.21938 0.10898 0.89978 0.0
N1187 N 0.2331 0.10034 0.89503 0.0
C1188 C 0.18216 0.07435 0.82711 0.0
C1189 C 0.19684 0.05727 0.84515 0.0
C1190 C 0.19163 0.06807 0.81469 0.0
N1191 N 0.18502 0.06896 0.84197 0.0
C1192 C 0.20659 0.05066 0.83312 0.0
C1193 C 0.20419 0.05622 0.81768 0.0
H1194 H 0.17284 0.08383 0.82495 0.0
H1195 H 0.19892 0.05333 0.85711 0.0
C1196 C 0.17164 0.0662 0.9188 0.0
N1197 N 0.18078 0.06706 0.9054 0.0
C1198 C 0.17779 0.05755 0.93178 0.0
C1199 C 0.20248 0.05059 0.91681 0.0
C1200 C 0.19592 0.05948 0.90418 0.0
C1201 C 0.19334 0.04949 0.93081 0.0
H1202 H 0.15943 0.07192 0.91931 0.0
H1203 H 0.20265 0.05986 0.89322 0.0
O1204 O 0.15718 0.0965 0.85412 0.0
O1205 O 0.15317 0.09393 0.89061 0.0
O1206 O 0.16029 0.06248 0.8726 0.0
O1207 O 0.18758 0.09065 0.87401 0.0
H1208 H 0.14366 0.12662 0.85193 0.0
H1209 H 0.14246 0.07666 0.83343 0.0
H1210 H 0.12043 0.13418 0.8341 0.0
H1211 H 0.11919 0.08503 0.81597 0.0
H1212 H 0.16749 0.1206 0.93578 0.0
H1213 H 0.12363 0.10706 0.8972 0.0
H1214 H 0.17435 0.10236 0.91323 0.0
H1215 H 0.11757 0.12504 0.92016 0.0
H1216 H 0.08807 0.10261 0.86554 0.0
H1217 H 0.09404 0.04893 0.86613 0.0
H1218 H 0.1984 0.15816 0.86752 0.0
H1219 H 0.14787 0.16236 0.88505 0.0
H1220 H 0.17963 0.03825 0.88348 0.0
H1221 H 0.14596 0.05201 0.84638 0.0
H1222 H 0.18405 0.01095 0.87044 0.0
H1223 H 0.15101 0.02451 0.83391 0.0
H1224 H 0.21633 0.0761 0.86693 0.0
H1225 H 0.19313 0.11311 0.89633 0.0
H1226 H 0.24337 0.08206 0.8799 0.0
H1227 H 0.2205 0.11829 0.90891 0.0
H1228 H 0.18957 0.07291 0.80299 0.0
H1229 H 0.21604 0.04145 0.83591 0.0
H1230 H 0.1702 0.05669 0.94227 0.0
H1231 H 0.21448 0.0445 0.91559 0.0
Li1232 Li 0.66918 0.42538 0.60813 0.0
Li1233 Li 0.67087 0.42231 0.63638 0.0
Li1234 Li 0.66415 0.39849 0.61967 0.0
Li1235 Li 0.64417 0.42111 0.62396 0.0
C1236 C 0.69964 0.41411 0.6127 0.0
N1237 N 0.72886 0.4208 0.59664 0.0
C1238 C 0.71135 0.42521 0.61895 0.0
C1239 C 0.70283 0.40636 0.59832 0.0
C1240 C 0.72605 0.42843 0.61065 0.0
C1241 C 0.71765 0.40993 0.59037 0.0
C1242 C 0.64922 0.45342 0.62434 0.0
C1243 C 0.62852 0.47058 0.6371 0.0
N1244 N 0.62641 0.4793 0.62356 0.0
C1245 C 0.64688 0.46258 0.61056 0.0
C1246 C 0.64002 0.45748 0.63775 0.0
C1247 C 0.63528 0.47561 0.6104 0.0
C1248 C 0.67362 0.43325 0.57602 0.0
N1249 N 0.67837 0.43702 0.59088 0.0
C1250 C 0.6965 0.45853 0.58164 0.0
C1251 C 0.68947 0.44944 0.59391 0.0
C1252 C 0.69174 0.45508 0.56611 0.0
C1253 C 0.68015 0.44219 0.56339 0.0
H1254 H 0.66453 0.42351 0.574 0.0
H1255 H 0.69278 0.45232 0.6059 0.0
C1256 C 0.69611 0.41863 0.65845 0.0
N1257 N 0.68327 0.42877 0.65425 0.0
C1258 C 0.70649 0.423 0.67088 0.0
C1259 C 0.6899 0.44792 0.67479 0.0
C1260 C 0.67995 0.44316 0.66211 0.0
C1261 C 0.7035 0.43787 0.67913 0.0
H1262 H 0.69842 0.40727 0.65194 0.0
H1263 H 0.66973 0.45104 0.65842 0.0
C1264 C 0.64396 0.39754 0.59524 0.0
N1265 N 0.63144 0.37063 0.57871 0.0
C1266 C 0.62759 0.39212 0.5978 0.0
C1267 C 0.65391 0.38935 0.58419 0.0
C1268 C 0.62149 0.37848 0.58934 0.0
C1269 C 0.64737 0.37574 0.57598 0.0
C1270 C 0.65592 0.40154 0.65479 0.0
C1271 C 0.66562 0.38764 0.65873 0.0
C1272 C 0.64986 0.41198 0.66663 0.0
C1273 C 0.66915 0.38446 0.67449 0.0
C1274 C 0.65368 0.40838 0.68225 0.0
N1275 N 0.66317 0.39481 0.68582 0.0
C1276 C 0.68136 0.36791 0.61487 0.0
C1277 C 0.65234 0.36554 0.61986 0.0
C1278 C 0.68293 0.35056 0.61415 0.0
N1279 N 0.66622 0.37499 0.61762 0.0
C1280 C 0.65329 0.34818 0.6191 0.0
C1281 C 0.66877 0.34043 0.61634 0.0
H1282 H 0.69228 0.3757 0.61358 0.0
H1283 H 0.64054 0.37152 0.6224 0.0
C1284 C 0.61334 0.43415 0.61367 0.0
N1285 N 0.62103 0.42589 0.62558 0.0
C1286 C 0.59614 0.43697 0.61416 0.0
C1287 C 0.59512 0.42255 0.63906 0.0
C1288 C 0.61234 0.42013 0.63815 0.0
C1289 C 0.5868 0.43095 0.62689 0.0
H1290 H 0.62053 0.43825 0.60365 0.0
H1291 H 0.61874 0.41336 0.64731 0.0
O1292 O 0.68504 0.411 0.62052 0.0
O1293 O 0.66035 0.44046 0.62468 0.0
O1294 O 0.65024 0.41071 0.60358 0.0
O1295 O 0.65273 0.40514 0.6394 0.0
H1296 H 0.70903 0.43149 0.62996 0.0
H1297 H 0.69387 0.39781 0.59327 0.0
H1298 H 0.73518 0.43706 0.61531 0.0
H1299 H 0.72023 0.40409 0.57919 0.0
H1300 H 0.62122 0.47377 0.64735 0.0
H1301 H 0.65383 0.45958 0.60005 0.0
H1302 H 0.64153 0.4504 0.64846 0.0
H1303 H 0.6333 0.48276 0.59981 0.0
H1304 H 0.7055 0.4682 0.58433 0.0
H1305 H 0.67579 0.43932 0.55168 0.0
H1306 H 0.71675 0.41484 0.67403 0.0
H1307 H 0.68728 0.4595 0.68088 0.0
H1308 H 0.61971 0.39824 0.60635 0.0
H1309 H 0.6666 0.39336 0.58206 0.0
H1310 H 0.60888 0.3741 0.59126 0.0
H1311 H 0.65498 0.36922 0.56746 0.0
H1312 H 0.67053 0.3795 0.64971 0.0
H1313 H 0.64249 0.42289 0.66378 0.0
H1314 H 0.67669 0.37379 0.67771 0.0
H1315 H 0.64917 0.41642 0.69153 0.0
H1316 H 0.69517 0.34516 0.61233 0.0
H1317 H 0.64201 0.34092 0.6207 0.0
H1318 H 0.59016 0.44328 0.60443 0.0
H1319 H 0.58836 0.41779 0.64912 0.0
Li1320 Li 0.32559 0.92055 0.35815 0.0
Li1321 Li 0.32498 0.9198 0.3866 0.0
Li1322 Li 0.35215 0.91545 0.37213 0.0
Li1323 Li 0.33041 0.89393 0.37311 0.0
C1324 C 0.34067 0.95127 0.36758 0.0
N1325 N 0.34721 0.98326 0.35703 0.0
C1326 C 0.33081 0.96466 0.37259 0.0
C1327 C 0.3541 0.95424 0.35749 0.0
C1328 C 0.33423 0.98071 0.36703 0.0
C1329 C 0.35715 0.97047 0.35221 0.0
C1330 C 0.29442 0.9091 0.37829 0.0
C1331 C 0.27474 0.90214 0.39869 0.0
N1332 N 0.26318 0.91217 0.39178 0.0
C1333 C 0.28229 0.9192 0.37129 0.0
C1334 C 0.29057 0.90036 0.392 0.0
C1335 C 0.26659 0.92064 0.37832 0.0
C1336 C 0.31525 0.92241 0.32646 0.0
N1337 N 0.31527 0.93052 0.34046 0.0
C1338 C 0.29822 0.95232 0.33 0.0
C1339 C 0.30699 0.94519 0.34244 0.0
C1340 C 0.29797 0.94422 0.31541 0.0
C1341 C 0.30678 0.92917 0.31366 0.0
H1342 H 0.32144 0.91048 0.32533 0.0
H1343 H 0.30665 0.95103 0.35384 0.0
C1344 C 0.3211 0.92724 0.41876 0.0
N1345 N 0.31502 0.93026 0.40417 0.0
C1346 C 0.31472 0.93589 0.43165 0.0
C1347 C 0.29566 0.95024 0.41426 0.0
C1348 C 0.30249 0.9414 0.40172 0.0
C1349 C 0.30198 0.94776 0.42945 0.0
H1350 H 0.33124 0.91848 0.42032 0.0
H1351 H 0.29806 0.94373 0.38995 0.0
C1352 C 0.35198 0.90079 0.34124 0.0
N1353 N 0.37148 0.89711 0.31471 0.0
C1354 C 0.35752 0.88496 0.33668 0.0
C1355 C 0.35616 0.9147 0.33216 0.0
C1356 C 0.36743 0.88336 0.32327 0.0
C1357 C 0.36607 0.9126 0.31883 0.0
C1358 C 0.34805 0.89035 0.39981 0.0
C1359 C 0.36436 0.88424 0.39874 0.0
C1360 C 0.3367 0.88267 0.40995 0.0
C1361 C 0.36894 0.8703 0.40761 0.0
C1362 C 0.34175 0.86875 0.41861 0.0
N1363 N 0.35762 0.86289 0.41726 0.0
C1364 C 0.38176 0.93185 0.38128 0.0
C1365 C 0.38589 0.90855 0.36459 0.0
C1366 C 0.39899 0.93437 0.38238 0.0
N1367 N 0.3756 0.91912 0.37247 0.0
C1368 C 0.40314 0.91068 0.36525 0.0
C1369 C 0.40995 0.92362 0.37436 0.0
H1370 H 0.37327 0.93991 0.38762 0.0
H1371 H 0.38077 0.89822 0.35807 0.0
C1372 C 0.31217 0.86336 0.37404 0.0
N1373 N 0.3276 0.8704 0.37333 0.0
C1374 C 0.31048 0.846 0.37467 0.0
C1375 C 0.34056 0.84356 0.37373 0.0
C1376 C 0.34165 0.8609 0.37293 0.0
C1377 C 0.32483 0.83591 0.37469 0.0
H1378 H 0.30119 0.87121 0.37415 0.0
H1379 H 0.35373 0.86683 0.37205 0.0
O1380 O 0.33755 0.93548 0.37303 0.0
O1381 O 0.30993 0.90769 0.37167 0.0
O1382 O 0.34236 0.90254 0.35442 0.0
O1383 O 0.34327 0.90385 0.39104 0.0
H1384 H 0.32053 0.96268 0.38059 0.0
H1385 H 0.36225 0.9442 0.35391 0.0
H1386 H 0.3266 0.99115 0.3707 0.0
H1387 H 0.36747 0.97291 0.34436 0.0
H1388 H 0.27164 0.89553 0.40936 0.0
H1389 H 0.28495 0.92588 0.36057 0.0
H1390 H 0.29972 0.89234 0.39746 0.0
H1391 H 0.25712 0.92849 0.37308 0.0
H1392 H 0.29149 0.96389 0.33184 0.0
H1393 H 0.30656 0.92235 0.30269 0.0
H1394 H 0.32019 0.93379 0.44309 0.0
H1395 H 0.28575 0.95912 0.41203 0.0
H1396 H 0.35426 0.87401 0.34344 0.0
H1397 H 0.35156 0.92695 0.3352 0.0
H1398 H 0.37188 0.8712 0.31967 0.0
H1399 H 0.36939 0.92327 0.31171 0.0
H1400 H 0.37336 0.89007 0.39104 0.0
H1401 H 0.32413 0.8874 0.41113 0.0
H1402 H 0.38148 0.86535 0.4068 0.0
H1403 H 0.33305 0.86262 0.42643 0.0
H1404 H 0.40365 0.94434 0.38975 0.0
H1405 H 0.41104 0.9022 0.3587 0.0
H1406 H 0.29813 0.84054 0.37541 0.0
H1407 H 0.35191 0.8362 0.37343 0.0
C1408 C 0.16394 0.81062 0.13194 0.0
C1409 C 0.17408 0.82037 0.12209 0.0
C1410 C 0.16509 0.79323 0.13172 0.0
C1411 C 0.17789 0.75822 0.10666 0.0
H1412 H 0.17596 0.73305 0.14547 0.0
C1413 C 0.18386 0.6862 0.10838 0.0
C1414 C 0.1728 0.67774 0.11842 0.0
C1415 C 0.1852 0.7036 0.10893 0.0
C1416 C 0.17637 0.73989 0.13452 0.0
H1417 H 0.1934 0.81952 0.10429 0.0
H1418 H 0.19551 0.78907 0.10399 0.0
H1419 H 0.17627 0.76348 0.14632 0.0
H1420 H 0.1547 0.68093 0.13713 0.0
H1421 H 0.15672 0.71123 0.13782 0.0
H1422 H 0.17772 0.73463 0.09485 0.0
C1423 C 0.18661 0.79492 0.11182 0.0
C1424 C 0.17657 0.75732 0.13501 0.0
C1425 C 0.18551 0.81234 0.1121 0.0
C1426 C 0.16318 0.68706 0.12908 0.0
C1427 C 0.16451 0.70443 0.12963 0.0
C1428 C 0.17765 0.74077 0.10616 0.0
C1429 C 0.17637 0.78518 0.1216 0.0
C1430 C 0.17714 0.76667 0.12109 0.0
C1431 C 0.17553 0.71291 0.11957 0.0
C1432 C 0.1767 0.73141 0.12009 0.0
H1433 H 0.15514 0.81644 0.13989 0.0
H1434 H 0.15691 0.78607 0.13928 0.0
H1435 H 0.17815 0.76509 0.09572 0.0
H1436 H 0.19136 0.67939 0.09995 0.0
H1437 H 0.19391 0.70975 0.10112 0.0
C1438 C 0.43581 0.94143 0.37638 0.0
C1439 C 0.42837 0.92553 0.37577 0.0
C1440 C 0.45316 0.94307 0.37748 0.0
C1441 C 0.49149 0.91888 0.3873 0.0
H1442 H 0.51394 0.95313 0.363 0.0
C1443 C 0.56126 0.91606 0.37198 0.0
C1444 C 0.57072 0.93053 0.37472 0.0
C1445 C 0.54389 0.91648 0.37317 0.0
C1446 C 0.50779 0.94363 0.36997 0.0
H1447 H 0.43341 0.89889 0.37628 0.0
H1448 H 0.4635 0.90173 0.37746 0.0
H1449 H 0.48345 0.95193 0.36319 0.0
H1450 H 0.56954 0.95681 0.38066 0.0
H1451 H 0.53894 0.95762 0.38244 0.0
H1452 H 0.5159 0.91022 0.39354 0.0
C1453 C 0.45599 0.91298 0.37739 0.0
C1454 C 0.49034 0.94296 0.37014 0.0
C1455 C 0.43869 0.91134 0.37643 0.0
C1456 C 0.56249 0.94549 0.37854 0.0
C1457 C 0.54505 0.94597 0.37948 0.0
C1458 C 0.5089 0.91943 0.38695 0.0
C1459 C 0.46347 0.92885 0.37793 0.0
C1460 C 0.48198 0.93041 0.37863 0.0
C1461 C 0.53563 0.93142 0.37693 0.0
C1462 C 0.51721 0.93167 0.37813 0.0
H1463 H 0.42826 0.95263 0.37577 0.0
H1464 H 0.45848 0.95549 0.37804 0.0
H1465 H 0.4855 0.90931 0.39429 0.0
H1466 H 0.56732 0.90434 0.36916 0.0
H1467 H 0.53689 0.90513 0.37102 0.0
C1468 C 0.31197 0.31188 0.61909 0.0
C1469 C 0.32441 0.3205 0.61074 0.0
C1470 C 0.31121 0.29445 0.61863 0.0
C1471 C 0.33775 0.25777 0.61077 0.0
H1472 H 0.29567 0.23383 0.60965 0.0
C1473 C 0.33537 0.18644 0.60423 0.0
C1474 C 0.3244 0.17782 0.61423 0.0
C1475 C 0.33454 0.20379 0.60292 0.0
C1476 C 0.3075 0.24036 0.61009 0.0
H1477 H 0.34535 0.31767 0.59485 0.0
H1478 H 0.34395 0.28728 0.59393 0.0
H1479 H 0.29571 0.26434 0.60881 0.0
H1480 H 0.30373 0.18062 0.63045 0.0
H1481 H 0.30228 0.21099 0.62815 0.0
H1482 H 0.34954 0.23387 0.61211 0.0
C1483 C 0.33501 0.29395 0.60111 0.0
C1484 C 0.30753 0.25782 0.60962 0.0
C1485 C 0.33581 0.31135 0.60162 0.0
C1486 C 0.31226 0.18689 0.62255 0.0
C1487 C 0.31143 0.20428 0.62123 0.0
C1488 C 0.33771 0.24036 0.6112 0.0
C1489 C 0.32284 0.28527 0.60977 0.0
C1490 C 0.32267 0.26672 0.60996 0.0
C1491 C 0.32272 0.21293 0.61156 0.0
C1492 C 0.3226 0.23145 0.61087 0.0
H1493 H 0.30313 0.31858 0.62637 0.0
H1494 H 0.30181 0.28815 0.62559 0.0
H1495 H 0.34961 0.26424 0.61139 0.0
H1496 H 0.34462 0.17977 0.5974 0.0
H1497 H 0.3432 0.21007 0.59513 0.0
C1498 C 0.06136 0.06214 0.87279 0.0
C1499 C 0.07029 0.07358 0.86354 0.0
C1500 C 0.04397 0.06114 0.87167 0.0
C1501 C 0.00759 0.08622 0.85937 0.0
H1502 H 0.98387 0.04414 0.86258 0.0
C1503 C 0.93634 0.08207 0.85143 0.0
C1504 C 0.92762 0.07246 0.86254 0.0
C1505 C 0.95374 0.08138 0.8506 0.0
C1506 C 0.99034 0.05599 0.86177 0.0
H1507 H 0.06815 0.09237 0.84535 0.0
H1508 H 0.03786 0.09051 0.84326 0.0
H1509 H 0.01437 0.04431 0.86268 0.0
H1510 H 0.93038 0.05451 0.88142 0.0
H1511 H 0.96077 0.05326 0.8799 0.0
H1512 H 0.9836 0.09791 0.85852 0.0
C1513 C 0.04421 0.08259 0.85166 0.0
C1514 C 0.0078 0.05609 0.86184 0.0
C1515 C 0.06156 0.08364 0.85283 0.0
C1516 C 0.93669 0.0619 0.87259 0.0
C1517 C 0.9541 0.06118 0.87173 0.0
C1518 C 0.99017 0.08611 0.85924 0.0
C1519 C 0.03517 0.07151 0.86123 0.0
C1520 C 0.01663 0.07123 0.8607 0.0
C1521 C 0.96282 0.07105 0.86083 0.0
C1522 C 0.98134 0.07101 0.8605 0.0
H1523 H 0.06775 0.05433 0.88125 0.0
H1524 H 0.03739 0.05261 0.87935 0.0
H1525 H 0.01398 0.09813 0.85878 0.0
H1526 H 0.92971 0.0901 0.84333 0.0
H1527 H 0.9601 0.08894 0.84192 0.0
C1528 C 0.18057 0.31522 0.86374 0.0
C1529 C 0.17237 0.32405 0.87574 0.0
C1530 C 0.1815 0.2978 0.86417 0.0
C1531 C 0.16088 0.26106 0.88171 0.0
H1532 H 0.20135 0.23794 0.86927 0.0
C1533 C 0.1684 0.19022 0.88994 0.0
C1534 C 0.17509 0.18124 0.87725 0.0
C1535 C 0.16895 0.20764 0.89014 0.0
C1536 C 0.18992 0.24423 0.87266 0.0
H1537 H 0.15914 0.32155 0.8978 0.0
H1538 H 0.16083 0.29118 0.8986 0.0
H1539 H 0.20054 0.26843 0.86886 0.0
H1540 H 0.18787 0.18353 0.85492 0.0
H1541 H 0.18887 0.21399 0.8553 0.0
H1542 H 0.15025 0.2369 0.88549 0.0
C1543 C 0.16625 0.29769 0.8887 0.0
C1544 C 0.18945 0.26168 0.87241 0.0
C1545 C 0.16528 0.31509 0.88825 0.0
C1546 C 0.18277 0.19007 0.86495 0.0
C1547 C 0.18333 0.20752 0.86516 0.0
C1548 C 0.16137 0.24364 0.882 0.0
C1549 C 0.1743 0.28883 0.87663 0.0
C1550 C 0.17492 0.27029 0.87694 0.0
C1551 C 0.17622 0.2165 0.87766 0.0
C1552 C 0.17589 0.23503 0.87749 0.0
H1553 H 0.18598 0.32177 0.85386 0.0
H1554 H 0.18758 0.29134 0.85458 0.0
H1555 H 0.14939 0.26728 0.88499 0.0
H1556 H 0.16269 0.18378 0.89974 0.0
H1557 H 0.16365 0.21419 0.90008 0.0
C1558 C 0.93798 0.92013 0.11652 0.0
C1559 C 0.92792 0.93281 0.12289 0.0
C1560 C 0.95526 0.9221 0.11561 0.0
C1561 C 0.99008 0.94492 0.13354 0.0
H1562 H 0.01446 0.92852 0.09737 0.0
C1563 C 0.0604 0.93012 0.13503 0.0
C1564 C 0.07007 0.93363 0.12167 0.0
C1565 C 0.04312 0.93237 0.1348 0.0
C1566 C 0.00785 0.93337 0.10747 0.0
H1567 H 0.92809 0.95755 0.13323 0.0
H1568 H 0.95836 0.96107 0.13151 0.0
H1569 H 0.98403 0.92817 0.0972 0.0
H1570 H 0.06922 0.94262 0.0977 0.0
H1571 H 0.03899 0.94675 0.09735 0.0
H1572 H 0.01392 0.95006 0.14382 0.0
C1573 C 0.95284 0.94955 0.12732 0.0
C1574 C 0.99042 0.93299 0.10744 0.0
C1575 C 0.93551 0.9476 0.12818 0.0
C1576 C 0.06212 0.93989 0.10821 0.0
C1577 C 0.04481 0.9421 0.10796 0.0
C1578 C 0.00753 0.94527 0.13357 0.0
C1579 C 0.9629 0.9368 0.12105 0.0
C1580 C 0.98135 0.93851 0.12058 0.0
C1581 C 0.0351 0.93818 0.1212 0.0
C1582 C 0.0166 0.93925 0.12064 0.0
H1583 H 0.93248 0.90868 0.11215 0.0
H1584 H 0.96267 0.91196 0.11089 0.0
H1585 H 0.98346 0.94917 0.14387 0.0
H1586 H 0.06619 0.92548 0.14565 0.0
H1587 H 0.036 0.92907 0.14514 0.0
C1588 C 0.33392 0.68376 0.38656 0.0
C1589 C 0.32504 0.67466 0.37519 0.0
C1590 C 0.33317 0.70117 0.38687 0.0
C1591 C 0.30791 0.7371 0.37449 0.0
H1592 H 0.34951 0.76149 0.37853 0.0
C1593 C 0.31226 0.80872 0.3661 0.0
C1594 C 0.32353 0.81749 0.37565 0.0
C1595 C 0.31178 0.79127 0.36642 0.0
C1596 C 0.33774 0.7549 0.37764 0.0
H1597 H 0.30833 0.67681 0.35525 0.0
H1598 H 0.30684 0.70725 0.35597 0.0
H1599 H 0.34985 0.7311 0.37848 0.0
H1600 H 0.34259 0.815 0.39353 0.0
H1601 H 0.34153 0.78461 0.39437 0.0
H1602 H 0.29575 0.7609 0.37383 0.0
C1603 C 0.31432 0.70083 0.36468 0.0
C1604 C 0.33796 0.73748 0.37756 0.0
C1605 C 0.31516 0.6834 0.36429 0.0
C1606 C 0.33397 0.80853 0.38584 0.0
C1607 C 0.3334 0.79112 0.38628 0.0
C1608 C 0.30766 0.75456 0.37469 0.0
C1609 C 0.32342 0.70989 0.37589 0.0
C1610 C 0.32306 0.7284 0.37599 0.0
C1611 C 0.32247 0.78225 0.37641 0.0
C1612 C 0.32259 0.76368 0.37628 0.0
H1613 H 0.34136 0.67744 0.39534 0.0
H1614 H 0.34012 0.70783 0.3958 0.0
H1615 H 0.29621 0.73039 0.37342 0.0
H1616 H 0.30417 0.81534 0.35803 0.0
H1617 H 0.30335 0.78485 0.35853 0.0
C1618 C 0.5656 0.05929 0.62423 0.0
C1619 C 0.574 0.07346 0.61851 0.0
C1620 C 0.54815 0.05856 0.62405 0.0
C1621 C 0.51133 0.08601 0.62311 0.0
H1622 H 0.48735 0.04611 0.61056 0.0
C1623 C 0.44063 0.087 0.61288 0.0
C1624 C 0.43122 0.07356 0.61871 0.0
C1625 C 0.45803 0.08624 0.61262 0.0
C1626 C 0.49388 0.05728 0.61427 0.0
H1627 H 0.57067 0.09766 0.60751 0.0
H1628 H 0.54031 0.09643 0.60726 0.0
H1629 H 0.51789 0.04609 0.61059 0.0
H1630 H 0.43266 0.04865 0.62858 0.0
H1631 H 0.46316 0.04735 0.6282 0.0
H1632 H 0.48745 0.09721 0.62686 0.0
C1633 C 0.54718 0.08601 0.61216 0.0
C1634 C 0.51135 0.05727 0.61427 0.0
C1635 C 0.56458 0.08672 0.61231 0.0
C1636 C 0.43958 0.05916 0.62393 0.0
C1637 C 0.45704 0.05841 0.6237 0.0
C1638 C 0.49392 0.08601 0.62314 0.0
C1639 C 0.53877 0.07201 0.61817 0.0
C1640 C 0.52025 0.0717 0.61856 0.0
C1641 C 0.46645 0.07204 0.61821 0.0
C1642 C 0.48498 0.07171 0.61857 0.0
H1643 H 0.5725 0.04893 0.62921 0.0
H1644 H 0.542 0.04767 0.62888 0.0
H1645 H 0.51783 0.09721 0.62679 0.0
H1646 H 0.43454 0.09812 0.60847 0.0
H1647 H 0.46489 0.0968 0.60798 0.0
C1648 C 0.81165 0.18483 0.87538 0.0
C1649 C 0.82206 0.17535 0.88526 0.0
C1650 C 0.81079 0.20218 0.87693 0.0
C1651 C 0.83542 0.23773 0.89035 0.0
H1652 H 0.79342 0.26182 0.88932 0.0
C1653 C 0.83345 0.30894 0.89841 0.0
C1654 C 0.82246 0.31794 0.88878 0.0
C1655 C 0.83248 0.29156 0.89925 0.0
C1656 C 0.80527 0.2553 0.88946 0.0
H1657 H 0.83924 0.17672 0.90491 0.0
H1658 H 0.83799 0.20703 0.90734 0.0
H1659 H 0.7934 0.23134 0.88823 0.0
H1660 H 0.8017 0.31593 0.87261 0.0
H1661 H 0.80021 0.28552 0.87373 0.0
H1662 H 0.84739 0.26154 0.89108 0.0
C1663 C 0.83061 0.20099 0.89834 0.0
C1664 C 0.80523 0.23785 0.88888 0.0
C1665 C 0.83136 0.18364 0.89689 0.0
C1666 C 0.81023 0.30928 0.88025 0.0
C1667 C 0.80936 0.29186 0.88094 0.0
C1668 C 0.83548 0.25516 0.89077 0.0
C1669 C 0.82042 0.21044 0.8883 0.0
C1670 C 0.82032 0.22891 0.88931 0.0
C1671 C 0.82061 0.28276 0.89031 0.0
C1672 C 0.82041 0.26418 0.89031 0.0
H1673 H 0.8045 0.17891 0.86615 0.0
H1674 H 0.80298 0.20918 0.86892 0.0
H1675 H 0.84725 0.23117 0.89045 0.0
H1676 H 0.84285 0.31536 0.90527 0.0
H1677 H 0.84109 0.28501 0.90686 0.0
C1678 C 0.66956 0.68952 0.35997 0.0
C1679 C 0.67654 0.68008 0.37222 0.0
C1680 C 0.67066 0.70691 0.36004 0.0
C1681 C 0.67638 0.74256 0.38669 0.0
H1682 H 0.68438 0.76694 0.34811 0.0
C1683 C 0.68337 0.81438 0.38515 0.0
C1684 C 0.67489 0.82272 0.37303 0.0
C1685 C 0.6847 0.79698 0.38509 0.0
C1686 C 0.682 0.76031 0.35896 0.0
H1687 H 0.69023 0.68149 0.39412 0.0
H1688 H 0.69237 0.71191 0.39413 0.0
H1689 H 0.68491 0.73649 0.34791 0.0
H1690 H 0.66141 0.81937 0.3512 0.0
H1691 H 0.66349 0.789 0.35122 0.0
H1692 H 0.67331 0.76638 0.3977 0.0
C1693 C 0.68591 0.70583 0.38454 0.0
C1694 C 0.68232 0.74287 0.35884 0.0
C1695 C 0.68484 0.68841 0.38445 0.0
C1696 C 0.66787 0.81329 0.36079 0.0
C1697 C 0.66924 0.79591 0.36071 0.0
C1698 C 0.67608 0.76 0.3868 0.0
C1699 C 0.67876 0.71527 0.37237 0.0
C1700 C 0.67934 0.7338 0.37267 0.0
C1701 C 0.67763 0.78756 0.37287 0.0
C1702 C 0.67872 0.76906 0.3729 0.0
H1703 H 0.66326 0.68345 0.35028 0.0
H1704 H 0.66486 0.71382 0.35058 0.0
H1705 H 0.67381 0.73593 0.3975 0.0
H1706 H 0.68878 0.82128 0.39482 0.0
H1707 H 0.69136 0.7909 0.39456 0.0
C1708 C 0.81862 0.68736 0.11538 0.0
C1709 C 0.82978 0.67854 0.12506 0.0
C1710 C 0.81804 0.70479 0.11575 0.0
C1711 C 0.83063 0.74132 0.13995 0.0
H1712 H 0.82423 0.76555 0.10103 0.0
C1713 C 0.8418 0.81233 0.13375 0.0
C1714 C 0.82938 0.82143 0.12585 0.0
C1715 C 0.84136 0.79489 0.13396 0.0
C1716 C 0.82588 0.75893 0.112 0.0
H1717 H 0.8489 0.68127 0.14292 0.0
H1718 H 0.8484 0.71159 0.14306 0.0
H1719 H 0.82451 0.73511 0.10078 0.0
H1720 H 0.80687 0.81947 0.11187 0.0
H1721 H 0.80618 0.78893 0.11211 0.0
H1722 H 0.83243 0.76526 0.15106 0.0
C1723 C 0.83985 0.70504 0.13539 0.0
C1724 C 0.82599 0.74149 0.11189 0.0
C1725 C 0.84031 0.68761 0.13513 0.0
C1726 C 0.81653 0.81276 0.11813 0.0
C1727 C 0.81621 0.79532 0.11818 0.0
C1728 C 0.83071 0.75877 0.14003 0.0
C1729 C 0.82871 0.71387 0.1257 0.0
C1730 C 0.82837 0.73245 0.12586 0.0
C1731 C 0.82861 0.78622 0.1261 0.0
C1732 C 0.82834 0.76773 0.12606 0.0
H1733 H 0.81045 0.68082 0.10734 0.0
H1734 H 0.80914 0.71114 0.10828 0.0
H1735 H 0.83218 0.7348 0.15098 0.0
H1736 H 0.85178 0.81872 0.13988 0.0
H1737 H 0.85114 0.78817 0.14006 0.0
C1738 C 0.66086 0.31221 0.62678 0.0
C1739 C 0.67021 0.32192 0.61622 0.0
C1740 C 0.66223 0.29483 0.62678 0.0
C1741 C 0.67604 0.25921 0.6023 0.0
H1742 H 0.67416 0.23539 0.64187 0.0
C1743 C 0.68707 0.1879 0.60773 0.0
C1744 C 0.67518 0.17923 0.6167 0.0
C1745 C 0.68732 0.20536 0.60765 0.0
C1746 C 0.67462 0.24188 0.63073 0.0
H1747 H 0.68829 0.32087 0.59728 0.0
H1748 H 0.6911 0.29057 0.59765 0.0
H1749 H 0.67322 0.26581 0.64175 0.0
H1750 H 0.65448 0.18196 0.63289 0.0
H1751 H 0.65494 0.21245 0.6328 0.0
H1752 H 0.67761 0.23517 0.59135 0.0
C1753 C 0.68249 0.2964 0.60577 0.0
C1754 C 0.67402 0.2593 0.63064 0.0
C1755 C 0.68103 0.3138 0.60569 0.0
C1756 C 0.66368 0.18833 0.62575 0.0
C1757 C 0.66404 0.20575 0.62581 0.0
C1758 C 0.67679 0.24177 0.60241 0.0
C1759 C 0.6731 0.2867 0.61632 0.0
C1760 C 0.67452 0.26819 0.61642 0.0
C1761 C 0.67581 0.21444 0.61672 0.0
C1762 C 0.6759 0.23294 0.61662 0.0
H1763 H 0.65259 0.31802 0.63522 0.0
H1764 H 0.65462 0.28777 0.63492 0.0
H1765 H 0.67623 0.26562 0.59112 0.0
H1766 H 0.69602 0.18117 0.60059 0.0
H1767 H 0.69658 0.21176 0.60062 0.0
C1768 C 0.06225 0.42843 0.85362 0.0
C1769 C 0.07115 0.43382 0.86688 0.0
C1770 C 0.04482 0.4289 0.85344 0.0
C1771 C 0.00783 0.44659 0.87379 0.0
H1772 H 0.9858 0.40732 0.85706 0.0
C1773 C 0.93581 0.44076 0.8691 0.0
C1774 C 0.92891 0.42514 0.87294 0.0
C1775 C 0.95312 0.44273 0.86791 0.0
C1776 C 0.99176 0.41834 0.86186 0.0
H1777 H 0.06877 0.44423 0.89025 0.0
H1778 H 0.03833 0.4449 0.89002 0.0
H1779 H 0.01605 0.40949 0.85569 0.0
H1780 H 0.93475 0.39952 0.87906 0.0
H1781 H 0.96487 0.40296 0.87708 0.0
H1782 H 0.98349 0.45515 0.88042 0.0
C1783 C 0.04482 0.44056 0.87964 0.0
C1784 C 0.00909 0.41969 0.86088 0.0
C1785 C 0.06226 0.44016 0.87979 0.0
C1786 C 0.93967 0.41163 0.87579 0.0
C1787 C 0.95694 0.4136 0.87463 0.0
C1788 C 0.99045 0.44523 0.87479 0.0
C1789 C 0.03589 0.43469 0.86656 0.0
C1790 C 0.01736 0.43377 0.86693 0.0
C1791 C 0.96387 0.42913 0.87055 0.0
C1792 C 0.98224 0.431 0.86897 0.0
H1793 H 0.06877 0.42373 0.8434 0.0
H1794 H 0.03833 0.42458 0.84306 0.0
H1795 H 0.0138 0.45768 0.87842 0.0
H1796 H 0.92782 0.45137 0.86668 0.0
H1797 H 0.95806 0.45482 0.86459 0.0
C1798 C 0.5625 0.55774 0.36853 0.0
C1799 C 0.57014 0.57345 0.37011 0.0
C1800 C 0.54509 0.55638 0.36802 0.0
C1801 C 0.50731 0.58159 0.35998 0.0
H1802 H 0.48403 0.54614 0.38194 0.0
C1803 C 0.43678 0.58391 0.37134 0.0
C1804 C 0.42747 0.56928 0.36874 0.0
C1805 C 0.45418 0.58355 0.37102 0.0
C1806 C 0.49039 0.55599 0.3756 0.0
H1807 H 0.56554 0.59996 0.37303 0.0
H1808 H 0.53528 0.5976 0.3723 0.0
H1809 H 0.51454 0.54711 0.38246 0.0
H1810 H 0.42926 0.54274 0.36384 0.0
H1811 H 0.45979 0.54211 0.36348 0.0
H1812 H 0.4832 0.59064 0.35334 0.0
C1813 C 0.54268 0.58635 0.37103 0.0
C1814 C 0.50785 0.55654 0.37588 0.0
C1815 C 0.56003 0.58771 0.37148 0.0
C1816 C 0.43604 0.55421 0.36603 0.0
C1817 C 0.45351 0.55384 0.3658 0.0
C1818 C 0.48991 0.58108 0.35976 0.0
C1819 C 0.53499 0.5707 0.36913 0.0
C1820 C 0.5165 0.56949 0.36824 0.0
C1821 C 0.46274 0.56855 0.36818 0.0
C1822 C 0.48125 0.5684 0.36773 0.0
H1823 H 0.56999 0.54654 0.36734 0.0
H1824 H 0.53956 0.54415 0.36641 0.0
H1825 H 0.51358 0.59151 0.35365 0.0
H1826 H 0.43062 0.59565 0.37385 0.0
H1827 H 0.46096 0.59502 0.37321 0.0
C1828 C 0.56073 0.44788 0.62295 0.0
C1829 C 0.56838 0.43273 0.62714 0.0
C1830 C 0.54333 0.44933 0.62289 0.0
C1831 C 0.50499 0.42881 0.63801 0.0
H1832 H 0.48324 0.45335 0.60456 0.0
C1833 C 0.43367 0.43635 0.63672 0.0
C1834 C 0.42582 0.43446 0.62211 0.0
C1835 C 0.45099 0.438 0.63767 0.0
C1836 C 0.48911 0.44637 0.61393 0.0
H1837 H 0.56383 0.40715 0.63426 0.0
H1838 H 0.53355 0.40955 0.63393 0.0
H1839 H 0.51363 0.45213 0.60554 0.0
H1840 H 0.42982 0.43311 0.59702 0.0
H1841 H 0.46014 0.43558 0.59865 0.0
H1842 H 0.48056 0.42239 0.64601 0.0
C1843 C 0.54093 0.42047 0.63109 0.0
C1844 C 0.50655 0.44585 0.61462 0.0
C1845 C 0.55829 0.41907 0.63126 0.0
C1846 C 0.43557 0.43468 0.60843 0.0
C1847 C 0.45293 0.43616 0.60938 0.0
C1848 C 0.48759 0.42923 0.63727 0.0
C1849 C 0.53322 0.43562 0.62692 0.0
C1850 C 0.5147 0.43692 0.62659 0.0
C1851 C 0.46088 0.43761 0.62404 0.0
C1852 C 0.47941 0.43791 0.62516 0.0
H1853 H 0.56822 0.45865 0.61986 0.0
H1854 H 0.53781 0.46124 0.61983 0.0
H1855 H 0.51083 0.42203 0.64753 0.0
H1856 H 0.4264 0.43648 0.64744 0.0
H1857 H 0.45664 0.43947 0.64912 0.0
C1858 C 0.06233 0.56218 0.13273 0.0
C1859 C 0.07136 0.564 0.11871 0.0
C1860 C 0.04497 0.56059 0.13244 0.0
C1861 C 0.0088 0.57202 0.10886 0.0
H1862 H 0.98517 0.53989 0.13467 0.0
C1863 C 0.93719 0.56672 0.10686 0.0
C1864 C 0.9288 0.56435 0.12118 0.0
C1865 C 0.95453 0.56519 0.10597 0.0
C1866 C 0.99157 0.54906 0.12752 0.0
H1867 H 0.06938 0.56542 0.09339 0.0
H1868 H 0.03896 0.56273 0.0929 0.0
H1869 H 0.01566 0.53985 0.13424 0.0
H1870 H 0.93215 0.55804 0.14572 0.0
H1871 H 0.96243 0.55605 0.14432 0.0
H1872 H 0.98487 0.58164 0.10249 0.0
C1873 C 0.04534 0.56252 0.10409 0.0
C1874 C 0.00902 0.54898 0.12724 0.0
C1875 C 0.06273 0.56392 0.10437 0.0
C1876 C 0.9382 0.56018 0.13454 0.0
C1877 C 0.95557 0.5588 0.13369 0.0
C1878 C 0.99137 0.57222 0.10925 0.0
C1879 C 0.03629 0.56098 0.11814 0.0
C1880 C 0.01779 0.5605 0.11795 0.0
C1881 C 0.96397 0.56142 0.11941 0.0
C1882 C 0.98252 0.56079 0.11863 0.0
H1883 H 0.0687 0.56207 0.14393 0.0
H1884 H 0.03829 0.55955 0.14345 0.0
H1885 H 0.01525 0.58122 0.10178 0.0
H1886 H 0.93043 0.57016 0.09635 0.0
H1887 H 0.96054 0.56705 0.09472 0.0
C1888 C 0.20965 0.51363 0.06204 0.0
C1889 C 0.21024 0.53101 0.05961 0.0
C1890 C 0.21362 0.50259 0.04995 0.0
C1891 C 0.22981 0.50006 0.00881 0.0
H1892 H 0.19702 0.46457 0.00577 0.0
C1893 C 0.20662 0.47129 0.95095 0.0
C1894 C 0.20297 0.45411 0.95053 0.0
C1895 C 0.21206 0.47879 0.96481 0.0
C1896 C 0.2065 0.47418 0.00657 0.0
H1897 H 0.21698 0.55028 0.04286 0.0
H1898 H 0.22287 0.53109 0.02153 0.0
H1899 H 0.19849 0.48123 0.02943 0.0
H1900 H 0.2033 0.43116 0.96407 0.0
H1901 H 0.21242 0.44441 0.9884 0.0
H1902 H 0.23698 0.49349 0.98536 0.0
C1903 C 0.21962 0.52595 0.03286 0.0
C1904 C 0.20741 0.48375 0.02019 0.0
C1905 C 0.21594 0.537 0.04506 0.0
C1906 C 0.20563 0.44449 0.9641 0.0
C1907 C 0.21096 0.45203 0.97799 0.0
C1908 C 0.22876 0.49057 0.99507 0.0
C1909 C 0.21795 0.50861 0.03501 0.0
C1910 C 0.21882 0.49706 0.02137 0.0
C1911 C 0.21385 0.46931 0.97856 0.0
C1912 C 0.21684 0.47778 0.99372 0.0
H1913 H 0.20525 0.50844 0.07301 0.0
H1914 H 0.21261 0.48931 0.05216 0.0
H1915 H 0.23895 0.51 0.00941 0.0
H1916 H 0.20453 0.47912 0.94079 0.0
H1917 H 0.21398 0.49219 0.96497 0.0
C1918 C 0.69735 0.94126 0.28517 0.0
C1919 C 0.7035 0.94929 0.29856 0.0
C1920 C 0.70469 0.94411 0.2706 0.0
C1921 C 0.73525 0.97064 0.24898 0.0
H1922 H 0.74153 0.92983 0.2252 0.0
C1923 C 0.78438 0.96109 0.19952 0.0
C1924 C 0.77941 0.95147 0.18654 0.0
C1925 C 0.77353 0.96344 0.2122 0.0
C1926 C 0.73967 0.94139 0.23155 0.0
H1927 H 0.72154 0.96701 0.30744 0.0
H1928 H 0.73491 0.97164 0.28196 0.0
H1929 H 0.72534 0.92917 0.24918 0.0
H1930 H 0.75894 0.93733 0.17643 0.0
H1931 H 0.74004 0.94165 0.19836 0.0
H1932 H 0.75028 0.98263 0.23142 0.0
C1933 C 0.72418 0.96345 0.28258 0.0
C1934 C 0.73033 0.94104 0.24531 0.0
C1935 C 0.71662 0.96077 0.29716 0.0
C1936 C 0.76313 0.94494 0.18617 0.0
C1937 C 0.75234 0.94726 0.1988 0.0
C1938 C 0.74476 0.97095 0.2352 0.0
C1939 C 0.71858 0.95478 0.26921 0.0
C1940 C 0.72797 0.95564 0.25421 0.0
C1941 C 0.75759 0.95613 0.21212 0.0
C1942 C 0.74704 0.95631 0.22637 0.0
H1943 H 0.68712 0.93245 0.28607 0.0
H1944 H 0.69978 0.93756 0.26049 0.0
H1945 H 0.73358 0.98212 0.2555 0.0
H1946 H 0.79678 0.96646 0.20006 0.0
H1947 H 0.77791 0.97029 0.22235 0.0
C1948 C 0.28192 0.46118 0.54351 0.0
C1949 C 0.28731 0.46736 0.5581 0.0
C1950 C 0.2779 0.4721 0.53132 0.0
C1951 C 0.28834 0.51496 0.5189 0.0
H1952 H 0.26089 0.5031 0.48314 0.0
C1953 C 0.29018 0.55307 0.46199 0.0
C1954 C 0.29484 0.54323 0.44903 0.0
C1955 C 0.28451 0.54559 0.47579 0.0
C1956 C 0.26847 0.50663 0.49313 0.0
H1957 H 0.29126 0.49008 0.57158 0.0
H1958 H 0.28318 0.50894 0.55076 0.0
H1959 H 0.2587 0.48691 0.50735 0.0
H1960 H 0.29649 0.51779 0.4403 0.0
H1961 H 0.28625 0.50486 0.46424 0.0
H1962 H 0.29823 0.53451 0.50459 0.0
C1963 C 0.28277 0.49564 0.5485 0.0
C1964 C 0.26732 0.49732 0.50696 0.0
C1965 C 0.28715 0.48474 0.56058 0.0
C1966 C 0.29282 0.5258 0.44993 0.0
C1967 C 0.28695 0.51836 0.46366 0.0
C1968 C 0.28927 0.52439 0.5052 0.0
C1969 C 0.27882 0.4895 0.5335 0.0
C1970 C 0.27767 0.50101 0.51984 0.0
C1971 C 0.28315 0.52815 0.47683 0.0
C1972 C 0.27975 0.51999 0.49204 0.0
H1973 H 0.28139 0.44788 0.54127 0.0
H1974 H 0.27497 0.46682 0.51996 0.0
H1975 H 0.29676 0.51807 0.52839 0.0
H1976 H 0.29118 0.56655 0.46159 0.0
H1977 H 0.28155 0.5534 0.48579 0.0
C1978 C 0.6966 0.04398 0.70898 0.0
C1979 C 0.70617 0.04779 0.69562 0.0
C1980 C 0.70437 0.03945 0.723 0.0
C1981 C 0.74409 0.02583 0.74087 0.0
H1982 H 0.73133 0.05552 0.77473 0.0
C1983 C 0.7882 0.04256 0.7916 0.0
C1984 C 0.78149 0.04735 0.80616 0.0
C1985 C 0.77772 0.0384 0.77912 0.0
C1986 C 0.73484 0.04677 0.76562 0.0
H1987 H 0.7314 0.04898 0.68634 0.0
H1988 H 0.74489 0.04084 0.71074 0.0
H1989 H 0.71502 0.05511 0.7508 0.0
H1990 H 0.75837 0.05056 0.81917 0.0
H1991 H 0.74024 0.04244 0.79774 0.0
H1992 H 0.76409 0.01766 0.75562 0.0
C1993 C 0.73137 0.0413 0.71032 0.0
C1994 C 0.72547 0.0466 0.75186 0.0
C1995 C 0.72362 0.04598 0.69634 0.0
C1996 C 0.76406 0.04686 0.80819 0.0
C1997 C 0.75361 0.04243 0.79579 0.0
C1998 C 0.75337 0.02584 0.75475 0.0
C1999 C 0.72185 0.03847 0.72389 0.0
C2000 C 0.73026 0.03647 0.7392 0.0
C2001 C 0.76027 0.03867 0.78095 0.0
C2002 C 0.74913 0.03668 0.76713 0.0
H2003 H 0.68311 0.04486 0.70873 0.0
H2004 H 0.69675 0.03715 0.73328 0.0
H2005 H 0.74793 0.0178 0.7313 0.0
H2006 H 0.80157 0.04239 0.78969 0.0
H2007 H 0.78335 0.03569 0.76785 0.0
C2008 C 0.79499 0.48323 0.93752 0.0
C2009 C 0.7965 0.46601 0.9404 0.0
C2010 C 0.79073 0.49419 0.94963 0.0
C2011 C 0.7757 0.49594 0.99108 0.0
H2012 H 0.80429 0.53497 0.99306 0.0
C2013 C 0.79597 0.52758 0.04838 0.0
C2014 C 0.79752 0.54507 0.04881 0.0
C2015 C 0.79153 0.51946 0.03452 0.0
C2016 C 0.79596 0.52433 0.99256 0.0
H2017 H 0.79354 0.44669 0.95802 0.0
H2018 H 0.78683 0.46579 0.97923 0.0
H2019 H 0.8042 0.51784 0.96956 0.0
H2020 H 0.79468 0.56778 0.03517 0.0
H2021 H 0.78733 0.55349 0.01082 0.0
H2022 H 0.76824 0.50204 0.01454 0.0
C2023 C 0.7887 0.47088 0.96759 0.0
C2024 C 0.79586 0.51449 0.97905 0.0
C2025 C 0.79282 0.45992 0.95547 0.0
C2026 C 0.79392 0.55428 0.03517 0.0
C2027 C 0.78962 0.54613 0.02125 0.0
C2028 C 0.77592 0.50571 0.00466 0.0
C2029 C 0.78801 0.4882 0.96491 0.0
C2030 C 0.78607 0.49993 0.9783 0.0
C2031 C 0.78868 0.52862 0.02074 0.0
C2032 C 0.78637 0.51976 0.00566 0.0
H2033 H 0.7978 0.48838 0.92608 0.0
H2034 H 0.79004 0.50743 0.94709 0.0
H2035 H 0.76776 0.485 0.99078 0.0
H2036 H 0.7989 0.52005 0.05856 0.0
H2037 H 0.79116 0.50594 0.03441 0.0
C2038 C 0.23279 0.04966 0.80756 0.0
C2039 C 0.21549 0.05064 0.80493 0.0
C2040 C 0.24367 0.04606 0.79524 0.0
C2041 C 0.24631 0.03004 0.75466 0.0
H2042 H 0.28266 0.06179 0.75106 0.0
C2043 C 0.28042 0.04377 0.69656 0.0
C2044 C 0.29719 0.04882 0.69707 0.0
C2045 C 0.2717 0.04055 0.71042 0.0
C2046 C 0.27285 0.05254 0.75201 0.0
H2047 H 0.19597 0.04771 0.78754 0.0
H2048 H 0.21505 0.04165 0.76592 0.0
H2049 H 0.26501 0.06218 0.77417 0.0
H2050 H 0.31838 0.05333 0.71226 0.0
H2051 H 0.30332 0.04728 0.73649 0.0
H2052 H 0.25404 0.02059 0.73231 0.0
C2053 C 0.22016 0.04358 0.77754 0.0
C2054 C 0.26268 0.05281 0.76527 0.0
C2055 C 0.20925 0.04724 0.78986 0.0
C2056 C 0.30537 0.04968 0.7116 0.0
C2057 C 0.29672 0.04628 0.72544 0.0
C2058 C 0.25659 0.02969 0.74139 0.0
C2059 C 0.2375 0.04334 0.78004 0.0
C2060 C 0.24915 0.04176 0.76662 0.0
C2061 C 0.27964 0.04218 0.72505 0.0
C2062 C 0.2698 0.04114 0.7398 0.0
H2063 H 0.238 0.05235 0.819 0.0
H2064 H 0.25698 0.04581 0.79753 0.0
H2065 H 0.23606 0.02127 0.75549 0.0
H2066 H 0.27379 0.04315 0.6855 0.0
H2067 H 0.25852 0.03763 0.70966 0.0
C2068 C 0.70647 0.5512 0.45646 0.0
C2069 C 0.7023 0.54249 0.4427 0.0
C2070 C 0.71023 0.54255 0.47022 0.0
C2071 C 0.72024 0.50098 0.48679 0.0
H2072 H 0.69271 0.516 0.52144 0.0
C2073 C 0.70102 0.45829 0.53809 0.0
C2074 C 0.69809 0.46541 0.55291 0.0
C2075 C 0.70538 0.46831 0.52532 0.0
C2076 C 0.70082 0.51179 0.51207 0.0
H2077 H 0.69971 0.51787 0.43236 0.0
H2078 H 0.70635 0.50277 0.45637 0.0
H2079 H 0.69417 0.5326 0.49772 0.0
H2080 H 0.69822 0.48869 0.566 0.0
H2081 H 0.70653 0.50597 0.54399 0.0
H2082 H 0.72663 0.47996 0.5011 0.0
C2083 C 0.70682 0.51629 0.45648 0.0
C2084 C 0.70162 0.52134 0.49843 0.0
C2085 C 0.703 0.52495 0.44273 0.0
C2086 C 0.70048 0.48269 0.55482 0.0
C2087 C 0.70503 0.49268 0.54212 0.0
C2088 C 0.71954 0.49147 0.50053 0.0
C2089 C 0.70996 0.52501 0.47047 0.0
C2090 C 0.71105 0.51587 0.48554 0.0
C2091 C 0.70708 0.48569 0.52712 0.0
C2092 C 0.70953 0.49659 0.51321 0.0
H2093 H 0.70639 0.56473 0.45672 0.0
H2094 H 0.71287 0.54957 0.48079 0.0
H2095 H 0.72772 0.49656 0.47705 0.0
H2096 H 0.69964 0.44498 0.53624 0.0
H2097 H 0.70673 0.46249 0.51393 0.0
C2098 C 0.29369 0.95084 0.28698 0.0
C2099 C 0.28757 0.9507 0.30242 0.0
C2100 C 0.28325 0.95526 0.27453 0.0
C2101 C 0.23965 0.95282 0.26384 0.0
H2102 H 0.25279 0.97908 0.22768 0.0
C2103 C 0.19775 0.95491 0.20958 0.0
C2104 C 0.20599 0.95308 0.19516 0.0
C2105 C 0.20674 0.95886 0.2231 0.0
C2106 C 0.24896 0.97164 0.23765 0.0
H2107 H 0.26593 0.95558 0.31702 0.0
H2108 H 0.24768 0.96323 0.29524 0.0
H2109 H 0.27085 0.97822 0.25077 0.0
H2110 H 0.2299 0.95446 0.18336 0.0
H2111 H 0.24573 0.96077 0.207 0.0
H2112 H 0.21833 0.94539 0.25062 0.0
C2113 C 0.26055 0.95996 0.29279 0.0
C2114 C 0.25927 0.97122 0.25088 0.0
C2115 C 0.27102 0.95569 0.30525 0.0
C2116 C 0.22325 0.95595 0.19435 0.0
C2117 C 0.23229 0.95965 0.20791 0.0
C2118 C 0.22946 0.95307 0.25059 0.0
C2119 C 0.26647 0.95944 0.2773 0.0
C2120 C 0.25482 0.96159 0.26398 0.0
C2121 C 0.2242 0.96075 0.22253 0.0
C2122 C 0.23411 0.96224 0.23721 0.0
H2123 H 0.30644 0.94718 0.2845 0.0
H2124 H 0.2881 0.95463 0.26268 0.0
H2125 H 0.23604 0.94508 0.27369 0.0
H2126 H 0.18439 0.95294 0.21043 0.0
H2127 H 0.20003 0.96001 0.23408 0.0
C2128 C 0.71566 0.03865 0.54314 0.0
C2129 C 0.71105 0.03282 0.55809 0.0
C2130 C 0.71898 0.02746 0.53098 0.0
C2131 C 0.70763 0.98429 0.52023 0.0
H2132 H 0.7315 0.9957 0.48216 0.0
C2133 C 0.68747 0.95827 0.46123 0.0
C2134 C 0.69939 0.95469 0.44965 0.0
C2135 C 0.69217 0.96599 0.47516 0.0
C2136 C 0.72501 0.99213 0.49279 0.0
H2137 H 0.70802 0.01037 0.57219 0.0
H2138 H 0.71507 0.9911 0.55145 0.0
H2139 H 0.73597 0.01215 0.50583 0.0
H2140 H 0.72561 0.95629 0.44354 0.0
H2141 H 0.73397 0.96962 0.46818 0.0
H2142 H 0.69692 0.96413 0.50734 0.0
C2143 C 0.71526 0.00434 0.54887 0.0
C2144 C 0.72739 0.00171 0.50632 0.0
C2145 C 0.71149 0.0155 0.56092 0.0
C2146 C 0.71617 0.95899 0.45228 0.0
C2147 C 0.72093 0.96663 0.46635 0.0
C2148 C 0.70548 0.97459 0.50683 0.0
C2149 C 0.71819 0.01012 0.53354 0.0
C2150 C 0.71825 0.99829 0.52006 0.0
C2151 C 0.70896 0.97019 0.47796 0.0
C2152 C 0.71358 0.9788 0.49277 0.0
H2153 H 0.71606 0.05189 0.54059 0.0
H2154 H 0.72119 0.03249 0.51938 0.0
H2155 H 0.70019 0.98125 0.53043 0.0
H2156 H 0.6744 0.95541 0.45937 0.0
H2157 H 0.68252 0.96898 0.4836 0.0
C2158 C 0.28563 0.452 0.70172 0.0
C2159 C 0.29718 0.43896 0.69995 0.0
C2160 C 0.2783 0.45508 0.71631 0.0
C2161 C 0.26944 0.43328 0.75353 0.0
H2162 H 0.25559 0.47724 0.76757 0.0
C2163 C 0.2381 0.44208 0.81298 0.0
C2164 C 0.22261 0.4503 0.81242 0.0
C2165 C 0.24907 0.44294 0.80033 0.0
C2166 C 0.25942 0.46491 0.76375 0.0
H2167 H 0.31097 0.41958 0.712 0.0
H2168 H 0.29868 0.42528 0.73761 0.0
H2169 H 0.27183 0.47443 0.74338 0.0
H2170 H 0.20692 0.46673 0.79859 0.0
H2171 H 0.22616 0.46814 0.77632 0.0
H2172 H 0.25707 0.42376 0.77384 0.0
C2173 C 0.29477 0.43278 0.7277 0.0
C2174 C 0.26864 0.46327 0.7499 0.0
C2175 C 0.30187 0.42953 0.71308 0.0
C2176 C 0.21871 0.46014 0.79927 0.0
C2177 C 0.22976 0.46107 0.78661 0.0
C2178 C 0.26043 0.43494 0.76741 0.0
C2179 C 0.28258 0.44531 0.72942 0.0
C2180 C 0.27365 0.4474 0.74457 0.0
C2181 C 0.24481 0.45206 0.78686 0.0
C2182 C 0.25523 0.45074 0.7726 0.0
H2183 H 0.28179 0.45937 0.6917 0.0
H2184 H 0.26883 0.4647 0.71714 0.0
H2185 H 0.27268 0.42082 0.74963 0.0
H2186 H 0.24142 0.43426 0.82287 0.0
H2187 H 0.26068 0.436 0.80085 0.0
C2188 C 0.79518 0.01204 0.93682 0.0
C2189 C 0.79762 0.02916 0.93969 0.0
C2190 C 0.7901 0.00138 0.94886 0.0
C2191 C 0.77415 0.00048 0.98995 0.0
H2192 H 0.80114 0.96037 0.99262 0.0
C2193 C 0.79273 0.96897 0.04766 0.0
C2194 C 0.79462 0.95153 0.04815 0.0
C2195 C 0.78815 0.97693 0.03376 0.0
C2196 C 0.7932 0.97129 0.99192 0.0
H2197 H 0.79555 0.04867 0.95724 0.0
H2198 H 0.78739 0.03001 0.97838 0.0
H2199 H 0.8022 0.97732 0.96907 0.0
H2200 H 0.79197 0.92865 0.03474 0.0
H2201 H 0.7842 0.94263 0.01034 0.0
H2202 H 0.7659 0.9948 0.01326 0.0
C2203 C 0.78916 0.02482 0.96678 0.0
C2204 C 0.79379 0.98104 0.97839 0.0
C2205 C 0.79412 0.03549 0.95471 0.0
C2206 C 0.79096 0.94214 0.03465 0.0
C2207 C 0.78644 0.95012 0.02071 0.0
C2208 C 0.77364 0.99075 0.00355 0.0
C2209 C 0.78746 0.00758 0.96408 0.0
C2210 C 0.78465 0.996 0.97742 0.0
C2211 C 0.78542 0.96762 0.02004 0.0
C2212 C 0.78353 0.97632 0.00482 0.0
H2213 H 0.79784 0.0067 0.92541 0.0
H2214 H 0.78868 0.9882 0.94634 0.0
H2215 H 0.76672 0.01176 0.98945 0.0
H2216 H 0.79565 0.97661 0.05778 0.0
H2217 H 0.78771 0.99045 0.03356 0.0
C2218 C 0.21085 0.54377 0.20268 0.0
C2219 C 0.19854 0.55616 0.2014 0.0
C2220 C 0.21841 0.54055 0.21713 0.0
C2221 C 0.22627 0.56172 0.25486 0.0
H2222 H 0.24376 0.51852 0.26728 0.0
C2223 C 0.26013 0.55361 0.31316 0.0
C2224 C 0.27615 0.54657 0.31193 0.0
C2225 C 0.24881 0.55229 0.30081 0.0
C2226 C 0.23891 0.53063 0.26392 0.0
H2227 H 0.18361 0.57413 0.21416 0.0
H2228 H 0.19628 0.56812 0.23954 0.0
H2229 H 0.22672 0.52084 0.24354 0.0
H2230 H 0.2925 0.53172 0.29722 0.0
H2231 H 0.27266 0.52951 0.27549 0.0
H2232 H 0.23844 0.57152 0.27514 0.0
C2233 C 0.2006 0.56128 0.22936 0.0
C2234 C 0.22922 0.532 0.25033 0.0
C2235 C 0.19327 0.56468 0.21488 0.0
C2236 C 0.2803 0.53741 0.29841 0.0
C2237 C 0.26891 0.53601 0.28606 0.0
C2238 C 0.23575 0.56032 0.26847 0.0
C2239 C 0.21361 0.54953 0.2306 0.0
C2240 C 0.22291 0.54761 0.24556 0.0
C2241 C 0.25325 0.54387 0.28699 0.0
C2242 C 0.24228 0.54481 0.27307 0.0
H2243 H 0.21513 0.53711 0.19238 0.0
H2244 H 0.22849 0.53156 0.21759 0.0
H2245 H 0.22203 0.57402 0.25139 0.0
H2246 H 0.25659 0.56089 0.32334 0.0
H2247 H 0.23676 0.55834 0.30186 0.0
C2248 C 0.29507 0.02192 0.55167 0.0
C2249 C 0.29679 0.03936 0.55097 0.0
C2250 C 0.29118 0.0128 0.5382 0.0
C2251 C 0.29645 0.01582 0.49573 0.0
H2252 H 0.27048 0.97495 0.49522 0.0
C2253 C 0.29337 0.97551 0.44041 0.0
C2254 C 0.29626 0.95836 0.4427 0.0
C2255 C 0.28971 0.98589 0.45309 0.0
C2256 C 0.27779 0.98632 0.4952 0.0
H2257 H 0.2946 0.06106 0.53591 0.0
H2258 H 0.2877 0.04515 0.51237 0.0
H2259 H 0.27041 0.99257 0.51864 0.0
H2260 H 0.29659 0.93852 0.46003 0.0
H2261 H 0.29069 0.95675 0.48225 0.0
H2262 H 0.3043 0.00942 0.47259 0.0
C2263 C 0.28971 0.03849 0.52327 0.0
C2264 C 0.27774 0.99641 0.50859 0.0
C2265 C 0.29365 0.04759 0.53672 0.0
C2266 C 0.29469 0.95172 0.45789 0.0
C2267 C 0.29108 0.96214 0.4706 0.0
C2268 C 0.29651 0.00577 0.48239 0.0
C2269 C 0.28889 0.02096 0.52376 0.0
C2270 C 0.2873 0.01113 0.50908 0.0
C2271 C 0.28895 0.9794 0.46838 0.0
C2272 C 0.2874 0.99077 0.48205 0.0
H2273 H 0.29757 0.01521 0.56245 0.0
H2274 H 0.29084 -0.0007 0.53894 0.0
H2275 H 0.30421 0.0269 0.49581 0.0
H2276 H 0.29462 0.98109 0.4289 0.0
H2277 H 0.2879 0.9991 0.45096 0.0
C2278 C 0.79238 0.54539 0.20634 0.0
C2279 C 0.78545 0.54923 0.19168 0.0
C2280 C 0.78203 0.54112 0.21892 0.0
C2281 C 0.73847 0.54721 0.23185 0.0
H2282 H 0.75195 0.51864 0.26631 0.0
C2283 C 0.69727 0.54082 0.28615 0.0
C2284 C 0.70564 0.54458 0.3002 0.0
C2285 C 0.70627 0.5371 0.27257 0.0
C2286 C 0.74802 0.52659 0.25672 0.0
H2287 H 0.76258 0.55053 0.17821 0.0
H2288 H 0.74451 0.54248 0.19995 0.0
H2289 H 0.76915 0.51997 0.24263 0.0
H2290 H 0.73 0.54631 0.31124 0.0
H2291 H 0.74567 0.53968 0.28755 0.0
H2292 H 0.71752 0.55402 0.24596 0.0
C2293 C 0.75783 0.54333 0.20199 0.0
C2294 C 0.75789 0.52743 0.2432 0.0
C2295 C 0.76815 0.54786 0.18952 0.0
C2296 C 0.72316 0.54336 0.30064 0.0
C2297 C 0.73215 0.53956 0.28706 0.0
C2298 C 0.72856 0.54624 0.24525 0.0
C2299 C 0.76458 0.5404 0.21698 0.0
C2300 C 0.75338 0.538 0.23071 0.0
C2301 C 0.72381 0.53697 0.27278 0.0
C2302 C 0.73337 0.53616 0.25793 0.0
H2303 H 0.80571 0.54644 0.20825 0.0
H2304 H 0.78766 0.53915 0.23031 0.0
H2305 H 0.73475 0.55578 0.22267 0.0
H2306 H 0.68377 0.5413 0.28551 0.0
H2307 H 0.69952 0.53489 0.26175 0.0
C2308 C 0.20415 0.97468 0.05173 0.0
C2309 C 0.2036 0.95716 0.05105 0.0
C2310 C 0.20771 0.98399 0.03831 0.0
C2311 C 0.20452 0.98047 0.99547 0.0
H2312 H 0.22524 0.02423 0.99663 0.0
C2313 C 0.20576 0.02305 0.94124 0.0
C2314 C 0.19946 0.03916 0.94401 0.0
C2315 C 0.21011 0.01269 0.95376 0.0
C2316 C 0.21947 0.01201 0.99614 0.0
H2317 H 0.20736 0.93561 0.03611 0.0
H2318 H 0.21393 0.95187 0.01267 0.0
H2319 H 0.22661 0.00619 0.01969 0.0
H2320 H 0.19355 0.05739 0.96196 0.0
H2321 H 0.2011 0.03926 0.98388 0.0
H2322 H 0.19713 0.9864 0.97204 0.0
C2323 C 0.21121 0.95843 0.02348 0.0
C2324 C 0.22021 0.00169 0.00934 0.0
C2325 C 0.20749 0.94911 0.03688 0.0
C2326 C 0.19823 0.04497 0.95951 0.0
C2327 C 0.20271 0.03466 0.97203 0.0
C2328 C 0.20392 0.99071 0.98226 0.0
C2329 C 0.21091 0.976 0.02394 0.0
C2330 C 0.21235 0.98597 0.0093 0.0
C2331 C 0.20837 0.0183 0.96928 0.0
C2332 C 0.21102 0.00673 0.98259 0.0
H2333 H 0.201 0.98122 0.06244 0.0
H2334 H 0.20709 0.99748 0.03908 0.0
H2335 H 0.19808 0.96858 0.99507 0.0
H2336 H 0.20673 0.0182 0.92942 0.0
H2337 H 0.21452 0.00016 0.95132 0.0
C2338 C 0.70815 0.44739 0.70674 0.0
C2339 C 0.71469 0.44281 0.69209 0.0
C2340 C 0.71884 0.45061 0.71934 0.0
C2341 C 0.76131 0.44016 0.73268 0.0
H2342 H 0.75136 0.47167 0.76594 0.0
C2343 C 0.80345 0.44505 0.78665 0.0
C2344 C 0.79493 0.44372 0.80101 0.0
C2345 C 0.79473 0.44846 0.77285 0.0
C2346 C 0.75429 0.46285 0.7567 0.0
H2347 H 0.73739 0.43906 0.67874 0.0
H2348 H 0.75609 0.44508 0.70057 0.0
H2349 H 0.73401 0.47122 0.74234 0.0
H2350 H 0.77069 0.44572 0.81225 0.0
H2351 H 0.75551 0.45175 0.78816 0.0
H2352 H 0.78137 0.43159 0.74708 0.0
C2353 C 0.74274 0.44569 0.70253 0.0
C2354 C 0.74434 0.46254 0.74323 0.0
C2355 C 0.73206 0.44228 0.69002 0.0
C2356 C 0.77765 0.44681 0.8014 0.0
C2357 C 0.76894 0.45028 0.7876 0.0
C2358 C 0.77129 0.44055 0.74605 0.0
C2359 C 0.73627 0.44948 0.71744 0.0
C2360 C 0.74759 0.451 0.73117 0.0
C2361 C 0.77732 0.45067 0.77313 0.0
C2362 C 0.76774 0.45171 0.75831 0.0
H2363 H 0.69478 0.44781 0.70862 0.0
H2364 H 0.71341 0.45331 0.73069 0.0
H2365 H 0.764 0.43088 0.72379 0.0
H2366 H 0.81681 0.44308 0.78602 0.0
H2367 H 0.80154 0.44896 0.76188 0.0
loop_
_geom_bond_atom_site_label_1
_geom_bond_atom_site_label_2
_geom_bond_distance
_geom_bond_site_symmetry_2
_ccdc_geom_bond_type
Li0 N17 1.990 . S
Li0 O60 1.956 . S
Li0 O61 1.970 . S
Li0 O62 1.961 . S
Li1 N25 1.990 . S
Li1 O60 1.970 . S
Li1 O61 1.956 . S
Li1 O63 1.961 . S
Li2 N47 1.990 . S
Li2 O60 1.961 . S
Li2 O62 1.956 . S
Li2 O63 1.970 . S
Li3 N53 1.990 . S
Li3 O61 1.961 . S
Li3 O62 1.970 . S
Li3 O63 1.956 . S
C4 C6 1.348 . S
C4 C7 1.356 . S
C4 O60 1.325 . S
N5 C8 1.314 . S
N5 C9 1.279 . S
C6 C4 1.348 . S
C6 C8 1.353 . S
C6 H64 0.929 . S
C7 C4 1.356 . S
C7 C9 1.358 . S
C7 H65 0.930 . S
C8 N5 1.314 . S
C8 C6 1.353 . S
C8 H66 0.930 . S
C9 N5 1.279 . S
C9 C7 1.358 . S
C9 H67 0.930 . S
C10 C13 1.348 . S
C10 C14 1.356 . S
C10 O61 1.325 . S
C11 N12 1.279 . S
C11 C14 1.358 . S
C11 H68 0.930 . S
N12 C11 1.279 . S
N12 C15 1.314 . S
C13 C10 1.348 . S
C13 C15 1.353 . S
C13 H69 0.929 . S
C14 C10 1.356 . S
C14 C11 1.358 . S
C14 H70 0.930 . S
C15 N12 1.314 . S
C15 C13 1.353 . S
C15 H71 0.930 . S
C16 N17 1.314 . S
C16 C21 1.353 . S
C16 H22 0.930 . S
N17 Li0 1.990 . S
N17 C16 1.314 . S
N17 C19 1.279 . S
C18 C19 1.358 . S
C18 C20 1.356 . S
C18 H72 0.930 . S
C19 N17 1.279 . S
C19 C18 1.358 . S
C19 H23 0.930 . S
C20 C18 1.356 . S
C20 C21 1.348 . S
C21 C16 1.353 . S
C21 C20 1.348 . S
C21 H73 0.929 . S
H22 C16 0.930 . S
H23 C19 0.930 . S
C24 N25 1.314 . S
C24 C26 1.353 . S
C24 H30 0.930 . S
N25 Li1 1.990 . S
N25 C24 1.314 . S
N25 C28 1.279 . S
C26 C24 1.353 . S
C26 C29 1.348 . S
C26 H74 0.929 . S
C27 C28 1.358 . S
C27 C29 1.356 . S
C27 H75 0.930 . S
C28 N25 1.279 . S
C28 C27 1.358 . S
C28 H31 0.930 . S
C29 C26 1.348 . S
C29 C27 1.356 . S
H30 C24 0.930 . S
H31 C28 0.930 . S
C32 C34 1.348 . S
C32 C35 1.356 . S
C32 O62 1.325 . S
N33 C36 1.314 . S
N33 C37 1.279 . S
C34 C32 1.348 . S
C34 C36 1.353 . S
C34 H76 0.929 . S
C35 C32 1.356 . S
C35 C37 1.358 . S
C35 H77 0.930 . S
C36 N33 1.314 . S
C36 C34 1.353 . S
C36 H78 0.930 . S
C37 N33 1.279 . S
C37 C35 1.358 . S
C37 H79 0.930 . S
C38 C39 1.348 . S
C38 C40 1.356 . S
C38 O63 1.325 . S
C39 C38 1.348 . S
C39 C41 1.353 . S
C39 H80 0.929 . S
C40 C38 1.356 . S
C40 C42 1.358 . S
C40 H81 0.930 . S
C41 C39 1.353 . S
C41 N43 1.314 . S
C41 H82 0.930 . S
C42 C40 1.358 . S
C42 N43 1.279 . S
C42 H83 0.930 . S
N43 C41 1.314 . S
N43 C42 1.279 . S
C44 C46 1.353 . S
C44 N47 1.314 . S
C44 H50 0.930 . S
C45 N47 1.279 . S
C45 C48 1.358 . S
C45 H51 0.930 . S
C46 C44 1.353 . S
C46 C49 1.348 . S
C46 H84 0.929 . S
N47 Li2 1.990 . S
N47 C44 1.314 . S
N47 C45 1.279 . S
C48 C45 1.358 . S
C48 C49 1.356 . S
C48 H85 0.930 . S
C49 C46 1.348 . S
C49 C48 1.356 . S
H50 C44 0.930 . S
H51 C45 0.930 . S
C52 N53 1.314 . S
C52 C54 1.353 . S
C52 H58 0.930 . S
N53 Li3 1.990 . S
N53 C52 1.314 . S
N53 C56 1.279 . S
C54 C52 1.353 . S
C54 C57 1.348 . S
C54 H86 0.929 . S
C55 C56 1.358 . S
C55 C57 1.356 . S
C55 H87 0.930 . S
C56 N53 1.279 . S
C56 C55 1.358 . S
C56 H59 0.930 . S
C57 C54 1.348 . S
C57 C55 1.356 . S
H58 C52 0.930 . S
H59 C56 0.930 . S
O60 Li0 1.956 . S
O60 Li1 1.970 . S
O60 Li2 1.961 . S
O60 C4 1.325 . S
O61 Li0 1.970 . S
O61 Li1 1.956 . S
O61 Li3 1.961 . S
O61 C10 1.325 . S
O62 Li0 1.961 . S
O62 Li2 1.956 . S
O62 Li3 1.970 . S
O62 C32 1.325 . S
O63 Li1 1.961 . S
O63 Li2 1.970 . S
O63 Li3 1.956 . S
O63 C38 1.325 . S
H64 C6 0.929 . S
H65 C7 0.930 . S
H66 C8 0.930 . S
H67 C9 0.930 . S
H68 C11 0.930 . S
H69 C13 0.929 . S
H70 C14 0.930 . S
H71 C15 0.930 . S
H72 C18 0.930 . S
H73 C21 0.929 . S
H74 C26 0.929 . S
H75 C27 0.930 . S
H76 C34 0.929 . S
H77 C35 0.930 . S
H78 C36 0.930 . S
H79 C37 0.930 . S
H80 C39 0.929 . S
H81 C40 0.930 . S
H82 C41 0.930 . S
H83 C42 0.930 . S
H84 C46 0.929 . S
H85 C48 0.930 . S
H86 C54 0.929 . S
H87 C55 0.930 . S
Li88 N105 1.990 . S
Li88 O148 1.956 . S
Li88 O149 1.970 . S
Li88 O150 1.961 . S
Li89 N113 1.990 . S
Li89 O148 1.970 . S
Li89 O149 1.956 . S
Li89 O151 1.961 . S
Li90 N135 1.990 . S
Li90 O148 1.961 . S
Li90 O150 1.956 . S
Li90 O151 1.970 . S
Li91 N141 1.990 . S
Li91 O149 1.961 . S
Li91 O150 1.970 . S
Li91 O151 1.956 . S
C92 C94 1.348 . S
C92 C95 1.356 . S
C92 O148 1.325 . S
N93 C96 1.314 . S
N93 C97 1.279 . S
C94 C92 1.348 . S
C94 C96 1.353 . S
C94 H152 0.929 . S
C95 C92 1.356 . S
C95 C97 1.358 . S
C95 H153 0.930 . S
C96 N93 1.314 . S
C96 C94 1.353 . S
C96 H154 0.930 . S
C97 N93 1.279 . S
C97 C95 1.358 . S
C97 H155 0.930 . S
C98 C101 1.348 . S
C98 C102 1.356 . S
C98 O149 1.325 . S
C99 N100 1.279 . S
C99 C102 1.358 . S
C99 H156 0.930 . S
N100 C99 1.279 . S
N100 C103 1.314 . S
C101 C98 1.348 . S
C101 C103 1.353 . S
C101 H157 0.929 . S
C102 C98 1.356 . S
C102 C99 1.358 . S
C102 H158 0.930 . S
C103 N100 1.314 . S
C103 C101 1.353 . S
C103 H159 0.930 . S
C104 N105 1.314 . S
C104 C109 1.353 . S
C104 H110 0.930 . S
N105 Li88 1.990 . S
N105 C104 1.314 . S
N105 C107 1.279 . S
C106 C107 1.358 . S
C106 C108 1.356 . S
C106 H160 0.930 . S
C107 N105 1.279 . S
C107 C106 1.358 . S
C107 H111 0.930 . S
C108 C106 1.356 . S
C108 C109 1.348 . S
C109 C104 1.353 . S
C109 C108 1.348 . S
C109 H161 0.929 . S
H110 C104 0.930 . S
H111 C107 0.930 . S
C112 N113 1.314 . S
C112 C114 1.353 . S
C112 H118 0.930 . S
N113 Li89 1.990 . S
N113 C112 1.314 . S
N113 C116 1.279 . S
C114 C112 1.353 . S
C114 C117 1.348 . S
C114 H162 0.929 . S
C115 C116 1.358 . S
C115 C117 1.356 . S
C115 H163 0.930 . S
C116 N113 1.279 . S
C116 C115 1.358 . S
C116 H119 0.930 . S
C117 C114 1.348 . S
C117 C115 1.356 . S
H118 C112 0.930 . S
H119 C116 0.930 . S
C120 C122 1.348 . S
C120 C123 1.356 . S
C120 O150 1.325 . S
N121 C124 1.314 . S
N121 C125 1.279 . S
C122 C120 1.348 . S
C122 C124 1.353 . S
C122 H164 0.929 . S
C123 C120 1.356 . S
C123 C125 1.358 . S
C123 H165 0.930 . S
C124 N121 1.314 . S
C124 C122 1.353 . S
C124 H166 0.930 . S
C125 N121 1.279 . S
C125 C123 1.358 . S
C125 H167 0.930 . S
C126 C127 1.348 . S
C126 C128 1.356 . S
C126 O151 1.325 . S
C127 C126 1.348 . S
C127 C129 1.353 . S
C127 H168 0.929 . S
C128 C126 1.356 . S
C128 C130 1.358 . S
C128 H169 0.930 . S
C129 C127 1.353 . S
C129 N131 1.314 . S
C129 H170 0.930 . S
C130 C128 1.358 . S
C130 N131 1.279 . S
C130 H171 0.930 . S
N131 C129 1.314 . S
N131 C130 1.279 . S
C132 C134 1.353 . S
C132 N135 1.314 . S
C132 H138 0.930 . S
C133 N135 1.279 . S
C133 C136 1.358 . S
C133 H139 0.930 . S
C134 C132 1.353 . S
C134 C137 1.348 . S
C134 H172 0.929 . S
N135 Li90 1.990 . S
N135 C132 1.314 . S
N135 C133 1.279 . S
C136 C133 1.358 . S
C136 C137 1.356 . S
C136 H173 0.930 . S
C137 C134 1.348 . S
C137 C136 1.356 . S
H138 C132 0.930 . S
H139 C133 0.930 . S
C140 N141 1.314 . S
C140 C142 1.353 . S
C140 H146 0.930 . S
N141 Li91 1.990 . S
N141 C140 1.314 . S
N141 C144 1.279 . S
C142 C140 1.353 . S
C142 C145 1.348 . S
C142 H174 0.929 . S
C143 C144 1.358 . S
C143 C145 1.356 . S
C143 H175 0.930 . S
C144 N141 1.279 . S
C144 C143 1.358 . S
C144 H147 0.930 . S
C145 C142 1.348 . S
C145 C143 1.356 . S
H146 C140 0.930 . S
H147 C144 0.930 . S
O148 Li88 1.956 . S
O148 Li89 1.970 . S
O148 Li90 1.961 . S
O148 C92 1.325 . S
O149 Li88 1.970 . S
O149 Li89 1.956 . S
O149 Li91 1.961 . S
O149 C98 1.325 . S
O150 Li88 1.961 . S
O150 Li90 1.956 . S
O150 Li91 1.970 . S
O150 C120 1.325 . S
O151 Li89 1.961 . S
O151 Li90 1.970 . S
O151 Li91 1.956 . S
O151 C126 1.325 . S
H152 C94 0.929 . S
H153 C95 0.930 . S
H154 C96 0.930 . S
H155 C97 0.930 . S
H156 C99 0.930 . S
H157 C101 0.929 . S
H158 C102 0.930 . S
H159 C103 0.930 . S
H160 C106 0.930 . S
H161 C109 0.929 . S
H162 C114 0.929 . S
H163 C115 0.930 . S
H164 C122 0.929 . S
H165 C123 0.930 . S
H166 C124 0.930 . S
H167 C125 0.930 . S
H168 C127 0.929 . S
H169 C128 0.930 . S
H170 C129 0.930 . S
H171 C130 0.930 . S
H172 C134 0.929 . S
H173 C136 0.930 . S
H174 C142 0.929 . S
H175 C143 0.930 . S
Li176 N193 1.990 . S
Li176 O236 1.956 . S
Li176 O237 1.970 . S
Li176 O238 1.961 . S
Li177 N201 1.990 . S
Li177 O236 1.970 . S
Li177 O237 1.956 . S
Li177 O239 1.961 . S
Li178 N223 1.990 . S
Li178 O236 1.961 . S
Li178 O238 1.956 . S
Li178 O239 1.970 . S
Li179 N229 1.990 . S
Li179 O237 1.961 . S
Li179 O238 1.970 . S
Li179 O239 1.956 . S
C180 C182 1.348 . S
C180 C183 1.356 . S
C180 O236 1.325 . S
N181 C184 1.314 . S
N181 C185 1.279 . S
C182 C180 1.348 . S
C182 C184 1.353 . S
C182 H240 0.929 . S
C183 C180 1.356 . S
C183 C185 1.358 . S
C183 H241 0.930 . S
C184 N181 1.314 . S
C184 C182 1.353 . S
C184 H242 0.930 . S
C185 N181 1.279 . S
C185 C183 1.358 . S
C185 H243 0.930 . S
C186 C189 1.348 . S
C186 C190 1.356 . S
C186 O237 1.325 . S
C187 N188 1.279 . S
C187 C190 1.358 . S
C187 H244 0.930 . S
N188 C187 1.279 . S
N188 C191 1.314 . S
C189 C186 1.348 . S
C189 C191 1.353 . S
C189 H245 0.929 . S
C190 C186 1.356 . S
C190 C187 1.358 . S
C190 H246 0.930 . S
C191 N188 1.314 . S
C191 C189 1.353 . S
C191 H247 0.930 . S
C192 N193 1.314 . S
C192 C197 1.353 . S
C192 H198 0.930 . S
N193 Li176 1.990 . S
N193 C192 1.314 . S
N193 C195 1.279 . S
C194 C195 1.358 . S
C194 C196 1.356 . S
C194 H248 0.930 . S
C195 N193 1.279 . S
C195 C194 1.358 . S
C195 H199 0.930 . S
C196 C194 1.356 . S
C196 C197 1.348 . S
C197 C192 1.353 . S
C197 C196 1.348 . S
C197 H249 0.929 . S
H198 C192 0.930 . S
H199 C195 0.930 . S
C200 N201 1.314 . S
C200 C202 1.353 . S
C200 H206 0.930 . S
N201 Li177 1.990 . S
N201 C200 1.314 . S
N201 C204 1.279 . S
C202 C200 1.353 . S
C202 C205 1.348 . S
C202 H250 0.929 . S
C203 C204 1.358 . S
C203 C205 1.356 . S
C203 H251 0.930 . S
C204 N201 1.279 . S
C204 C203 1.358 . S
C204 H207 0.930 . S
C205 C202 1.348 . S
C205 C203 1.356 . S
H206 C200 0.930 . S
H207 C204 0.930 . S
C208 C210 1.348 . S
C208 C211 1.356 . S
C208 O238 1.325 . S
N209 C212 1.314 . S
N209 C213 1.279 . S
C210 C208 1.348 . S
C210 C212 1.353 . S
C210 H252 0.929 . S
C211 C208 1.356 . S
C211 C213 1.358 . S
C211 H253 0.930 . S
C212 N209 1.314 . S
C212 C210 1.353 . S
C212 H254 0.930 . S
C213 N209 1.279 . S
C213 C211 1.358 . S
C213 H255 0.930 . S
C214 C215 1.348 . S
C214 C216 1.356 . S
C214 O239 1.325 . S
C215 C214 1.348 . S
C215 C217 1.353 . S
C215 H256 0.929 . S
C216 C214 1.356 . S
C216 C218 1.358 . S
C216 H257 0.930 . S
C217 C215 1.353 . S
C217 N219 1.314 . S
C217 H258 0.930 . S
C218 C216 1.358 . S
C218 N219 1.279 . S
C218 H259 0.930 . S
N219 C217 1.314 . S
N219 C218 1.279 . S
C220 C222 1.353 . S
C220 N223 1.314 . S
C220 H226 0.930 . S
C221 N223 1.279 . S
C221 C224 1.358 . S
C221 H227 0.930 . S
C222 C220 1.353 . S
C222 C225 1.348 . S
C222 H260 0.929 . S
N223 Li178 1.990 . S
N223 C220 1.314 . S
N223 C221 1.279 . S
C224 C221 1.358 . S
C224 C225 1.356 . S
C224 H261 0.930 . S
C225 C222 1.348 . S
C225 C224 1.356 . S
H226 C220 0.930 . S
H227 C221 0.930 . S
C228 N229 1.314 . S
C228 C230 1.353 . S
C228 H234 0.930 . S
N229 Li179 1.990 . S
N229 C228 1.314 . S
N229 C232 1.279 . S
C230 C228 1.353 . S
C230 C233 1.348 . S
C230 H262 0.929 . S
C231 C232 1.358 . S
C231 C233 1.356 . S
C231 H263 0.930 . S
C232 N229 1.279 . S
C232 C231 1.358 . S
C232 H235 0.930 . S
C233 C230 1.348 . S
C233 C231 1.356 . S
H234 C228 0.930 . S
H235 C232 0.930 . S
O236 Li176 1.956 . S
O236 Li177 1.970 . S
O236 Li178 1.961 . S
O236 C180 1.325 . S
O237 Li176 1.970 . S
O237 Li177 1.956 . S
O237 Li179 1.961 . S
O237 C186 1.325 . S
O238 Li176 1.961 . S
O238 Li178 1.956 . S
O238 Li179 1.970 . S
O238 C208 1.325 . S
O239 Li177 1.961 . S
O239 Li178 1.970 . S
O239 Li179 1.956 . S
O239 C214 1.325 . S
H240 C182 0.929 . S
H241 C183 0.930 . S
H242 C184 0.930 . S
H243 C185 0.930 . S
H244 C187 0.930 . S
H245 C189 0.929 . S
H246 C190 0.930 . S
H247 C191 0.930 . S
H248 C194 0.930 . S
H249 C197 0.929 . S
H250 C202 0.929 . S
H251 C203 0.930 . S
H252 C210 0.929 . S
H253 C211 0.930 . S
H254 C212 0.930 . S
H255 C213 0.930 . S
H256 C215 0.929 . S
H257 C216 0.930 . S
H258 C217 0.930 . S
H259 C218 0.930 . S
H260 C222 0.929 . S
H261 C224 0.930 . S
H262 C230 0.929 . S
H263 C231 0.930 . S
Li264 N281 1.990 . S
Li264 O324 1.956 . S
Li264 O325 1.970 . S
Li264 O326 1.961 . S
Li265 N289 1.990 . S
Li265 O324 1.970 . S
Li265 O325 1.956 . S
Li265 O327 1.961 . S
Li266 N311 1.990 . S
Li266 O324 1.961 . S
Li266 O326 1.956 . S
Li266 O327 1.970 . S
Li267 N317 1.990 . S
Li267 O325 1.961 . S
Li267 O326 1.970 . S
Li267 O327 1.956 . S
C268 C270 1.348 . S
C268 C271 1.356 . S
C268 O324 1.325 . S
N269 C272 1.314 . S
N269 C273 1.279 . S
C270 C268 1.348 . S
C270 C272 1.353 . S
C270 H328 0.929 . S
C271 C268 1.356 . S
C271 C273 1.358 . S
C271 H329 0.930 . S
C272 N269 1.314 . S
C272 C270 1.353 . S
C272 H330 0.930 . S
C273 N269 1.279 . S
C273 C271 1.358 . S
C273 H331 0.930 . S
C274 C277 1.348 . S
C274 C278 1.356 . S
C274 O325 1.325 . S
C275 N276 1.279 . S
C275 C278 1.358 . S
C275 H332 0.930 . S
N276 C275 1.279 . S
N276 C279 1.314 . S
C277 C274 1.348 . S
C277 C279 1.353 . S
C277 H333 0.929 . S
C278 C274 1.356 . S
C278 C275 1.358 . S
C278 H334 0.930 . S
C279 N276 1.314 . S
C279 C277 1.353 . S
C279 H335 0.930 . S
C280 N281 1.314 . S
C280 C285 1.353 . S
C280 H286 0.930 . S
N281 Li264 1.990 . S
N281 C280 1.314 . S
N281 C283 1.279 . S
C282 C283 1.358 . S
C282 C284 1.356 . S
C282 H336 0.930 . S
C283 N281 1.279 . S
C283 C282 1.358 . S
C283 H287 0.930 . S
C284 C282 1.356 . S
C284 C285 1.348 . S
C285 C280 1.353 . S
C285 C284 1.348 . S
C285 H337 0.929 . S
H286 C280 0.930 . S
H287 C283 0.930 . S
C288 N289 1.314 . S
C288 C290 1.353 . S
C288 H294 0.930 . S
N289 Li265 1.990 . S
N289 C288 1.314 . S
N289 C292 1.279 . S
C290 C288 1.353 . S
C290 C293 1.348 . S
C290 H338 0.929 . S
C291 C292 1.358 . S
C291 C293 1.356 . S
C291 H339 0.930 . S
C292 N289 1.279 . S
C292 C291 1.358 . S
C292 H295 0.930 . S
C293 C290 1.348 . S
C293 C291 1.356 . S
H294 C288 0.930 . S
H295 C292 0.930 . S
C296 C298 1.348 . S
C296 C299 1.356 . S
C296 O326 1.325 . S
N297 C300 1.314 . S
N297 C301 1.279 . S
C298 C296 1.348 . S
C298 C300 1.353 . S
C298 H340 0.929 . S
C299 C296 1.356 . S
C299 C301 1.358 . S
C299 H341 0.930 . S
C300 N297 1.314 . S
C300 C298 1.353 . S
C300 H342 0.930 . S
C301 N297 1.279 . S
C301 C299 1.358 . S
C301 H343 0.930 . S
C302 C303 1.348 . S
C302 C304 1.356 . S
C302 O327 1.325 . S
C303 C302 1.348 . S
C303 C305 1.353 . S
C303 H344 0.929 . S
C304 C302 1.356 . S
C304 C306 1.358 . S
C304 H345 0.930 . S
C305 C303 1.353 . S
C305 N307 1.314 . S
C305 H346 0.930 . S
C306 C304 1.358 . S
C306 N307 1.279 . S
C306 H347 0.930 . S
N307 C305 1.314 . S
N307 C306 1.279 . S
C308 C310 1.353 . S
C308 N311 1.314 . S
C308 H314 0.930 . S
C309 N311 1.279 . S
C309 C312 1.358 . S
C309 H315 0.930 . S
C310 C308 1.353 . S
C310 C313 1.348 . S
C310 H348 0.929 . S
N311 Li266 1.990 . S
N311 C308 1.314 . S
N311 C309 1.279 . S
C312 C309 1.358 . S
C312 C313 1.356 . S
C312 H349 0.930 . S
C313 C310 1.348 . S
C313 C312 1.356 . S
H314 C308 0.930 . S
H315 C309 0.930 . S
C316 N317 1.314 . S
C316 C318 1.353 . S
C316 H322 0.930 . S
N317 Li267 1.990 . S
N317 C316 1.314 . S
N317 C320 1.279 . S
C318 C316 1.353 . S
C318 C321 1.348 . S
C318 H350 0.929 . S
C319 C320 1.358 . S
C319 C321 1.356 . S
C319 H351 0.930 . S
C320 N317 1.279 . S
C320 C319 1.358 . S
C320 H323 0.930 . S
C321 C318 1.348 . S
C321 C319 1.356 . S
H322 C316 0.930 . S
H323 C320 0.930 . S
O324 Li264 1.956 . S
O324 Li265 1.970 . S
O324 Li266 1.961 . S
O324 C268 1.325 . S
O325 Li264 1.970 . S
O325 Li265 1.956 . S
O325 Li267 1.961 . S
O325 C274 1.325 . S
O326 Li264 1.961 . S
O326 Li266 1.956 . S
O326 Li267 1.970 . S
O326 C296 1.325 . S
O327 Li265 1.961 . S
O327 Li266 1.970 . S
O327 Li267 1.956 . S
O327 C302 1.325 . S
H328 C270 0.929 . S
H329 C271 0.930 . S
H330 C272 0.930 . S
H331 C273 0.930 . S
H332 C275 0.930 . S
H333 C277 0.929 . S
H334 C278 0.930 . S
H335 C279 0.930 . S
H336 C282 0.930 . S
H337 C285 0.929 . S
H338 C290 0.929 . S
H339 C291 0.930 . S
H340 C298 0.929 . S
H341 C299 0.930 . S
H342 C300 0.930 . S
H343 C301 0.930 . S
H344 C303 0.929 . S
H345 C304 0.930 . S
H346 C305 0.930 . S
H347 C306 0.930 . S
H348 C310 0.929 . S
H349 C312 0.930 . S
H350 C318 0.929 . S
H351 C319 0.930 . S
Li352 N369 1.990 . S
Li352 O412 1.956 . S
Li352 O413 1.970 . S
Li352 O414 1.961 . S
Li353 N377 1.990 . S
Li353 O412 1.970 . S
Li353 O413 1.956 . S
Li353 O415 1.961 . S
Li354 N399 1.990 . S
Li354 O412 1.961 . S
Li354 O414 1.956 . S
Li354 O415 1.970 . S
Li355 N405 1.990 . S
Li355 O413 1.961 . S
Li355 O414 1.970 . S
Li355 O415 1.956 . S
C356 C358 1.348 . S
C356 C359 1.356 . S
C356 O412 1.325 . S
N357 C360 1.314 . S
N357 C361 1.279 . S
C358 C356 1.348 . S
C358 C360 1.353 . S
C358 H416 0.929 . S
C359 C356 1.356 . S
C359 C361 1.358 . S
C359 H417 0.930 . S
C360 N357 1.314 . S
C360 C358 1.353 . S
C360 H418 0.930 . S
C361 N357 1.279 . S
C361 C359 1.358 . S
C361 H419 0.930 . S
C362 C365 1.348 . S
C362 C366 1.356 . S
C362 O413 1.325 . S
C363 N364 1.279 . S
C363 C366 1.358 . S
C363 H420 0.930 . S
N364 C363 1.279 . S
N364 C367 1.314 . S
C365 C362 1.348 . S
C365 C367 1.353 . S
C365 H421 0.929 . S
C366 C362 1.356 . S
C366 C363 1.358 . S
C366 H422 0.930 . S
C367 N364 1.314 . S
C367 C365 1.353 . S
C367 H423 0.930 . S
C368 N369 1.314 . S
C368 C373 1.353 . S
C368 H374 0.930 . S
N369 Li352 1.990 . S
N369 C368 1.314 . S
N369 C371 1.279 . S
C370 C371 1.358 . S
C370 C372 1.356 . S
C370 H424 0.930 . S
C371 N369 1.279 . S
C371 C370 1.358 . S
C371 H375 0.930 . S
C372 C370 1.356 . S
C372 C373 1.348 . S
C373 C368 1.353 . S
C373 C372 1.348 . S
C373 H425 0.929 . S
H374 C368 0.930 . S
H375 C371 0.930 . S
C376 N377 1.314 . S
C376 C378 1.353 . S
C376 H382 0.930 . S
N377 Li353 1.990 . S
N377 C376 1.314 . S
N377 C380 1.279 . S
C378 C376 1.353 . S
C378 C381 1.348 . S
C378 H426 0.929 . S
C379 C380 1.358 . S
C379 C381 1.356 . S
C379 H427 0.930 . S
C380 N377 1.279 . S
C380 C379 1.358 . S
C380 H383 0.930 . S
C381 C378 1.348 . S
C381 C379 1.356 . S
H382 C376 0.930 . S
H383 C380 0.930 . S
C384 C386 1.348 . S
C384 C387 1.356 . S
C384 O414 1.325 . S
N385 C388 1.314 . S
N385 C389 1.279 . S
C386 C384 1.348 . S
C386 C388 1.353 . S
C386 H428 0.929 . S
C387 C384 1.356 . S
C387 C389 1.358 . S
C387 H429 0.930 . S
C388 N385 1.314 . S
C388 C386 1.353 . S
C388 H430 0.930 . S
C389 N385 1.279 . S
C389 C387 1.358 . S
C389 H431 0.930 . S
C390 C391 1.348 . S
C390 C392 1.356 . S
C390 O415 1.325 . S
C391 C390 1.348 . S
C391 C393 1.353 . S
C391 H432 0.929 . S
C392 C390 1.356 . S
C392 C394 1.358 . S
C392 H433 0.930 . S
C393 C391 1.353 . S
C393 N395 1.314 . S
C393 H434 0.930 . S
C394 C392 1.358 . S
C394 N395 1.279 . S
C394 H435 0.930 . S
N395 C393 1.314 . S
N395 C394 1.279 . S
C396 C398 1.353 . S
C396 N399 1.314 . S
C396 H402 0.930 . S
C397 N399 1.279 . S
C397 C400 1.358 . S
C397 H403 0.930 . S
C398 C396 1.353 . S
C398 C401 1.348 . S
C398 H436 0.929 . S
N399 Li354 1.990 . S
N399 C396 1.314 . S
N399 C397 1.279 . S
C400 C397 1.358 . S
C400 C401 1.356 . S
C400 H437 0.930 . S
C401 C398 1.348 . S
C401 C400 1.356 . S
H402 C396 0.930 . S
H403 C397 0.930 . S
C404 N405 1.314 . S
C404 C406 1.353 . S
C404 H410 0.930 . S
N405 Li355 1.990 . S
N405 C404 1.314 . S
N405 C408 1.279 . S
C406 C404 1.353 . S
C406 C409 1.348 . S
C406 H438 0.929 . S
C407 C408 1.358 . S
C407 C409 1.356 . S
C407 H439 0.930 . S
C408 N405 1.279 . S
C408 C407 1.358 . S
C408 H411 0.930 . S
C409 C406 1.348 . S
C409 C407 1.356 . S
H410 C404 0.930 . S
H411 C408 0.930 . S
O412 Li352 1.956 . S
O412 Li353 1.970 . S
O412 Li354 1.961 . S
O412 C356 1.325 . S
O413 Li352 1.970 . S
O413 Li353 1.956 . S
O413 Li355 1.961 . S
O413 C362 1.325 . S
O414 Li352 1.961 . S
O414 Li354 1.956 . S
O414 Li355 1.970 . S
O414 C384 1.325 . S
O415 Li353 1.961 . S
O415 Li354 1.970 . S
O415 Li355 1.956 . S
O415 C390 1.325 . S
H416 C358 0.929 . S
H417 C359 0.930 . S
H418 C360 0.930 . S
H419 C361 0.930 . S
H420 C363 0.930 . S
H421 C365 0.929 . S
H422 C366 0.930 . S
H423 C367 0.930 . S
H424 C370 0.930 . S
H425 C373 0.929 . S
H426 C378 0.929 . S
H427 C379 0.930 . S
H428 C386 0.929 . S
H429 C387 0.930 . S
H430 C388 0.930 . S
H431 C389 0.930 . S
H432 C391 0.929 . S
H433 C392 0.930 . S
H434 C393 0.930 . S
H435 C394 0.930 . S
H436 C398 0.929 . S
H437 C400 0.930 . S
H438 C406 0.929 . S
H439 C407 0.930 . S
Li440 N457 1.990 . S
Li440 O500 1.956 . S
Li440 O501 1.970 . S
Li440 O502 1.961 . S
Li441 N465 1.990 . S
Li441 O500 1.970 . S
Li441 O501 1.956 . S
Li441 O503 1.961 . S
Li442 N487 1.990 . S
Li442 O500 1.961 . S
Li442 O502 1.956 . S
Li442 O503 1.970 . S
Li443 N493 1.990 . S
Li443 O501 1.961 . S
Li443 O502 1.970 . S
Li443 O503 1.956 . S
C444 C446 1.348 . S
C444 C447 1.356 . S
C444 O500 1.325 . S
N445 C448 1.314 . S
N445 C449 1.279 . S
C446 C444 1.348 . S
C446 C448 1.353 . S
C446 H504 0.929 . S
C447 C444 1.356 . S
C447 C449 1.358 . S
C447 H505 0.930 . S
C448 N445 1.314 . S
C448 C446 1.353 . S
C448 H506 0.930 . S
C449 N445 1.279 . S
C449 C447 1.358 . S
C449 H507 0.930 . S
C450 C453 1.348 . S
C450 C454 1.356 . S
C450 O501 1.325 . S
C451 N452 1.279 . S
C451 C454 1.358 . S
C451 H508 0.930 . S
N452 C451 1.279 . S
N452 C455 1.314 . S
C453 C450 1.348 . S
C453 C455 1.353 . S
C453 H509 0.929 . S
C454 C450 1.356 . S
C454 C451 1.358 . S
C454 H510 0.930 . S
C455 N452 1.314 . S
C455 C453 1.353 . S
C455 H511 0.930 . S
C456 N457 1.314 . S
C456 C461 1.353 . S
C456 H462 0.930 . S
N457 Li440 1.990 . S
N457 C456 1.314 . S
N457 C459 1.279 . S
C458 C459 1.358 . S
C458 C460 1.356 . S
C458 H512 0.930 . S
C459 N457 1.279 . S
C459 C458 1.358 . S
C459 H463 0.930 . S
C460 C458 1.356 . S
C460 C461 1.348 . S
C461 C456 1.353 . S
C461 C460 1.348 . S
C461 H513 0.929 . S
H462 C456 0.930 . S
H463 C459 0.930 . S
C464 N465 1.314 . S
C464 C466 1.353 . S
C464 H470 0.930 . S
N465 Li441 1.990 . S
N465 C464 1.314 . S
N465 C468 1.279 . S
C466 C464 1.353 . S
C466 C469 1.348 . S
C466 H514 0.929 . S
C467 C468 1.358 . S
C467 C469 1.356 . S
C467 H515 0.930 . S
C468 N465 1.279 . S
C468 C467 1.358 . S
C468 H471 0.930 . S
C469 C466 1.348 . S
C469 C467 1.356 . S
H470 C464 0.930 . S
H471 C468 0.930 . S
C472 C474 1.348 . S
C472 C475 1.356 . S
C472 O502 1.325 . S
N473 C476 1.314 . S
N473 C477 1.279 . S
C474 C472 1.348 . S
C474 C476 1.353 . S
C474 H516 0.929 . S
C475 C472 1.356 . S
C475 C477 1.358 . S
C475 H517 0.930 . S
C476 N473 1.314 . S
C476 C474 1.353 . S
C476 H518 0.930 . S
C477 N473 1.279 . S
C477 C475 1.358 . S
C477 H519 0.930 . S
C478 C479 1.348 . S
C478 C480 1.356 . S
C478 O503 1.325 . S
C479 C478 1.348 . S
C479 C481 1.353 . S
C479 H520 0.929 . S
C480 C478 1.356 . S
C480 C482 1.358 . S
C480 H521 0.930 . S
C481 C479 1.353 . S
C481 N483 1.314 . S
C481 H522 0.930 . S
C482 C480 1.358 . S
C482 N483 1.279 . S
C482 H523 0.930 . S
N483 C481 1.314 . S
N483 C482 1.279 . S
C484 C486 1.353 . S
C484 N487 1.314 . S
C484 H490 0.930 . S
C485 N487 1.279 . S
C485 C488 1.358 . S
C485 H491 0.930 . S
C486 C484 1.353 . S
C486 C489 1.348 . S
C486 H524 0.929 . S
N487 Li442 1.990 . S
N487 C484 1.314 . S
N487 C485 1.279 . S
C488 C485 1.358 . S
C488 C489 1.356 . S
C488 H525 0.930 . S
C489 C486 1.348 . S
C489 C488 1.356 . S
H490 C484 0.930 . S
H491 C485 0.930 . S
C492 N493 1.314 . S
C492 C494 1.353 . S
C492 H498 0.930 . S
N493 Li443 1.990 . S
N493 C492 1.314 . S
N493 C496 1.279 . S
C494 C492 1.353 . S
C494 C497 1.348 . S
C494 H526 0.929 . S
C495 C496 1.358 . S
C495 C497 1.356 . S
C495 H527 0.930 . S
C496 N493 1.279 . S
C496 C495 1.358 . S
C496 H499 0.930 . S
C497 C494 1.348 . S
C497 C495 1.356 . S
H498 C492 0.930 . S
H499 C496 0.930 . S
O500 Li440 1.956 . S
O500 Li441 1.970 . S
O500 Li442 1.961 . S
O500 C444 1.325 . S
O501 Li440 1.970 . S
O501 Li441 1.956 . S
O501 Li443 1.961 . S
O501 C450 1.325 . S
O502 Li440 1.961 . S
O502 Li442 1.956 . S
O502 Li443 1.970 . S
O502 C472 1.325 . S
O503 Li441 1.961 . S
O503 Li442 1.970 . S
O503 Li443 1.956 . S
O503 C478 1.325 . S
H504 C446 0.929 . S
H505 C447 0.930 . S
H506 C448 0.930 . S
H507 C449 0.930 . S
H508 C451 0.930 . S
H509 C453 0.929 . S
H510 C454 0.930 . S
H511 C455 0.930 . S
H512 C458 0.930 . S
H513 C461 0.929 . S
H514 C466 0.929 . S
H515 C467 0.930 . S
H516 C474 0.929 . S
H517 C475 0.930 . S
H518 C476 0.930 . S
H519 C477 0.930 . S
H520 C479 0.929 . S
H521 C480 0.930 . S
H522 C481 0.930 . S
H523 C482 0.930 . S
H524 C486 0.929 . S
H525 C488 0.930 . S
H526 C494 0.929 . S
H527 C495 0.930 . S
Li528 N545 1.990 . S
Li528 O588 1.956 . S
Li528 O589 1.970 . S
Li528 O590 1.961 . S
Li529 N553 1.990 . S
Li529 O588 1.970 . S
Li529 O589 1.956 . S
Li529 O591 1.961 . S
Li530 N575 1.990 . S
Li530 O588 1.961 . S
Li530 O590 1.956 . S
Li530 O591 1.970 . S
Li531 N581 1.990 . S
Li531 O589 1.961 . S
Li531 O590 1.970 . S
Li531 O591 1.956 . S
C532 C534 1.348 . S
C532 C535 1.356 . S
C532 O588 1.325 . S
N533 C536 1.314 . S
N533 C537 1.279 . S
C534 C532 1.348 . S
C534 C536 1.353 . S
C534 H592 0.929 . S
C535 C532 1.356 . S
C535 C537 1.358 . S
C535 H593 0.930 . S
C536 N533 1.314 . S
C536 C534 1.353 . S
C536 H594 0.930 . S
C537 N533 1.279 . S
C537 C535 1.358 . S
C537 H595 0.930 . S
C538 C541 1.348 . S
C538 C542 1.356 . S
C538 O589 1.325 . S
C539 N540 1.279 . S
C539 C542 1.358 . S
C539 H596 0.930 . S
N540 C539 1.279 . S
N540 C543 1.314 . S
C541 C538 1.348 . S
C541 C543 1.353 . S
C541 H597 0.929 . S
C542 C538 1.356 . S
C542 C539 1.358 . S
C542 H598 0.930 . S
C543 N540 1.314 . S
C543 C541 1.353 . S
C543 H599 0.930 . S
C544 N545 1.314 . S
C544 C549 1.353 . S
C544 H550 0.930 . S
N545 Li528 1.990 . S
N545 C544 1.314 . S
N545 C547 1.279 . S
C546 C547 1.358 . S
C546 C548 1.356 . S
C546 H600 0.930 . S
C547 N545 1.279 . S
C547 C546 1.358 . S
C547 H551 0.930 . S
C548 C546 1.356 . S
C548 C549 1.348 . S
C549 C544 1.353 . S
C549 C548 1.348 . S
C549 H601 0.929 . S
H550 C544 0.930 . S
H551 C547 0.930 . S
C552 N553 1.314 . S
C552 C554 1.353 . S
C552 H558 0.930 . S
N553 Li529 1.990 . S
N553 C552 1.314 . S
N553 C556 1.279 . S
C554 C552 1.353 . S
C554 C557 1.348 . S
C554 H602 0.929 . S
C555 C556 1.358 . S
C555 C557 1.356 . S
C555 H603 0.930 . S
C556 N553 1.279 . S
C556 C555 1.358 . S
C556 H559 0.930 . S
C557 C554 1.348 . S
C557 C555 1.356 . S
H558 C552 0.930 . S
H559 C556 0.930 . S
C560 C562 1.348 . S
C560 C563 1.356 . S
C560 O590 1.325 . S
N561 C564 1.314 . S
N561 C565 1.279 . S
C562 C560 1.348 . S
C562 C564 1.353 . S
C562 H604 0.929 . S
C563 C560 1.356 . S
C563 C565 1.358 . S
C563 H605 0.930 . S
C564 N561 1.314 . S
C564 C562 1.353 . S
C564 H606 0.930 . S
C565 N561 1.279 . S
C565 C563 1.358 . S
C565 H607 0.930 . S
C566 C567 1.348 . S
C566 C568 1.356 . S
C566 O591 1.325 . S
C567 C566 1.348 . S
C567 C569 1.353 . S
C567 H608 0.929 . S
C568 C566 1.356 . S
C568 C570 1.358 . S
C568 H609 0.930 . S
C569 C567 1.353 . S
C569 N571 1.314 . S
C569 H610 0.930 . S
C570 C568 1.358 . S
C570 N571 1.279 . S
C570 H611 0.930 . S
N571 C569 1.314 . S
N571 C570 1.279 . S
C572 C574 1.353 . S
C572 N575 1.314 . S
C572 H578 0.930 . S
C573 N575 1.279 . S
C573 C576 1.358 . S
C573 H579 0.930 . S
C574 C572 1.353 . S
C574 C577 1.348 . S
C574 H612 0.929 . S
N575 Li530 1.990 . S
N575 C572 1.314 . S
N575 C573 1.279 . S
C576 C573 1.358 . S
C576 C577 1.356 . S
C576 H613 0.930 . S
C577 C574 1.348 . S
C577 C576 1.356 . S
H578 C572 0.930 . S
H579 C573 0.930 . S
C580 N581 1.314 . S
C580 C582 1.353 . S
C580 H586 0.930 . S
N581 Li531 1.990 . S
N581 C580 1.314 . S
N581 C584 1.279 . S
C582 C580 1.353 . S
C582 C585 1.348 . S
C582 H614 0.929 . S
C583 C584 1.358 . S
C583 C585 1.356 . S
C583 H615 0.930 . S
C584 N581 1.279 . S
C584 C583 1.358 . S
C584 H587 0.930 . S
C585 C582 1.348 . S
C585 C583 1.356 . S
H586 C580 0.930 . S
H587 C584 0.930 . S
O588 Li528 1.956 . S
O588 Li529 1.970 . S
O588 Li530 1.961 . S
O588 C532 1.325 . S
O589 Li528 1.970 . S
O589 Li529 1.956 . S
O589 Li531 1.961 . S
O589 C538 1.325 . S
O590 Li528 1.961 . S
O590 Li530 1.956 . S
O590 Li531 1.970 . S
O590 C560 1.325 . S
O591 Li529 1.961 . S
O591 Li530 1.970 . S
O591 Li531 1.956 . S
O591 C566 1.325 . S
H592 C534 0.929 . S
H593 C535 0.930 . S
H594 C536 0.930 . S
H595 C537 0.930 . S
H596 C539 0.930 . S
H597 C541 0.929 . S
H598 C542 0.930 . S
H599 C543 0.930 . S
H600 C546 0.930 . S
H601 C549 0.929 . S
H602 C554 0.929 . S
H603 C555 0.930 . S
H604 C562 0.929 . S
H605 C563 0.930 . S
H606 C564 0.930 . S
H607 C565 0.930 . S
H608 C567 0.929 . S
H609 C568 0.930 . S
H610 C569 0.930 . S
H611 C570 0.930 . S
H612 C574 0.929 . S
H613 C576 0.930 . S
H614 C582 0.929 . S
H615 C583 0.930 . S
Li616 N633 1.990 . S
Li616 O676 1.956 . S
Li616 O677 1.970 . S
Li616 O678 1.961 . S
Li617 N641 1.990 . S
Li617 O676 1.970 . S
Li617 O677 1.956 . S
Li617 O679 1.961 . S
Li618 N663 1.990 . S
Li618 O676 1.961 . S
Li618 O678 1.956 . S
Li618 O679 1.970 . S
Li619 N669 1.990 . S
Li619 O677 1.961 . S
Li619 O678 1.970 . S
Li619 O679 1.956 . S
C620 C622 1.348 . S
C620 C623 1.356 . S
C620 O676 1.325 . S
N621 C624 1.314 . S
N621 C625 1.279 . S
C622 C620 1.348 . S
C622 C624 1.353 . S
C622 H680 0.929 . S
C623 C620 1.356 . S
C623 C625 1.358 . S
C623 H681 0.930 . S
C624 N621 1.314 . S
C624 C622 1.353 . S
C624 H682 0.930 . S
C625 N621 1.279 . S
C625 C623 1.358 . S
C625 H683 0.930 . S
C626 C629 1.348 . S
C626 C630 1.356 . S
C626 O677 1.325 . S
C627 N628 1.279 . S
C627 C630 1.358 . S
C627 H684 0.930 . S
N628 C627 1.279 . S
N628 C631 1.314 . S
C629 C626 1.348 . S
C629 C631 1.353 . S
C629 H685 0.929 . S
C630 C626 1.356 . S
C630 C627 1.358 . S
C630 H686 0.930 . S
C631 N628 1.314 . S
C631 C629 1.353 . S
C631 H687 0.930 . S
C632 N633 1.314 . S
C632 C637 1.353 . S
C632 H638 0.930 . S
N633 Li616 1.990 . S
N633 C632 1.314 . S
N633 C635 1.279 . S
C634 C635 1.358 . S
C634 C636 1.356 . S
C634 H688 0.930 . S
C635 N633 1.279 . S
C635 C634 1.358 . S
C635 H639 0.930 . S
C636 C634 1.356 . S
C636 C637 1.348 . S
C637 C632 1.353 . S
C637 C636 1.348 . S
C637 H689 0.929 . S
H638 C632 0.930 . S
H639 C635 0.930 . S
C640 N641 1.314 . S
C640 C642 1.353 . S
C640 H646 0.930 . S
N641 Li617 1.990 . S
N641 C640 1.314 . S
N641 C644 1.279 . S
C642 C640 1.353 . S
C642 C645 1.348 . S
C642 H690 0.929 . S
C643 C644 1.358 . S
C643 C645 1.356 . S
C643 H691 0.930 . S
C644 N641 1.279 . S
C644 C643 1.358 . S
C644 H647 0.930 . S
C645 C642 1.348 . S
C645 C643 1.356 . S
H646 C640 0.930 . S
H647 C644 0.930 . S
C648 C650 1.348 . S
C648 C651 1.356 . S
C648 O678 1.325 . S
N649 C652 1.314 . S
N649 C653 1.279 . S
C650 C648 1.348 . S
C650 C652 1.353 . S
C650 H692 0.929 . S
C651 C648 1.356 . S
C651 C653 1.358 . S
C651 H693 0.930 . S
C652 N649 1.314 . S
C652 C650 1.353 . S
C652 H694 0.930 . S
C653 N649 1.279 . S
C653 C651 1.358 . S
C653 H695 0.930 . S
C654 C655 1.348 . S
C654 C656 1.356 . S
C654 O679 1.325 . S
C655 C654 1.348 . S
C655 C657 1.353 . S
C655 H696 0.929 . S
C656 C654 1.356 . S
C656 C658 1.358 . S
C656 H697 0.930 . S
C657 C655 1.353 . S
C657 N659 1.314 . S
C657 H698 0.930 . S
C658 C656 1.358 . S
C658 N659 1.279 . S
C658 H699 0.930 . S
N659 C657 1.314 . S
N659 C658 1.279 . S
C660 C662 1.353 . S
C660 N663 1.314 . S
C660 H666 0.930 . S
C661 N663 1.279 . S
C661 C664 1.358 . S
C661 H667 0.930 . S
C662 C660 1.353 . S
C662 C665 1.348 . S
C662 H700 0.929 . S
N663 Li618 1.990 . S
N663 C660 1.314 . S
N663 C661 1.279 . S
C664 C661 1.358 . S
C664 C665 1.356 . S
C664 H701 0.930 . S
C665 C662 1.348 . S
C665 C664 1.356 . S
H666 C660 0.930 . S
H667 C661 0.930 . S
C668 N669 1.314 . S
C668 C670 1.353 . S
C668 H674 0.930 . S
N669 Li619 1.990 . S
N669 C668 1.314 . S
N669 C672 1.279 . S
C670 C668 1.353 . S
C670 C673 1.348 . S
C670 H702 0.929 . S
C671 C672 1.358 . S
C671 C673 1.356 . S
C671 H703 0.930 . S
C672 N669 1.279 . S
C672 C671 1.358 . S
C672 H675 0.930 . S
C673 C670 1.348 . S
C673 C671 1.356 . S
H674 C668 0.930 . S
H675 C672 0.930 . S
O676 Li616 1.956 . S
O676 Li617 1.970 . S
O676 Li618 1.961 . S
O676 C620 1.325 . S
O677 Li616 1.970 . S
O677 Li617 1.956 . S
O677 Li619 1.961 . S
O677 C626 1.325 . S
O678 Li616 1.961 . S
O678 Li618 1.956 . S
O678 Li619 1.970 . S
O678 C648 1.325 . S
O679 Li617 1.961 . S
O679 Li618 1.970 . S
O679 Li619 1.956 . S
O679 C654 1.325 . S
H680 C622 0.929 . S
H681 C623 0.930 . S
H682 C624 0.930 . S
H683 C625 0.930 . S
H684 C627 0.930 . S
H685 C629 0.929 . S
H686 C630 0.930 . S
H687 C631 0.930 . S
H688 C634 0.930 . S
H689 C637 0.929 . S
H690 C642 0.929 . S
H691 C643 0.930 . S
H692 C650 0.929 . S
H693 C651 0.930 . S
H694 C652 0.930 . S
H695 C653 0.930 . S
H696 C655 0.929 . S
H697 C656 0.930 . S
H698 C657 0.930 . S
H699 C658 0.930 . S
H700 C662 0.929 . S
H701 C664 0.930 . S
H702 C670 0.929 . S
H703 C671 0.930 . S
Li704 N721 1.990 . S
Li704 O764 1.956 . S
Li704 O765 1.970 . S
Li704 O766 1.961 . S
Li705 N729 1.990 . S
Li705 O764 1.970 . S
Li705 O765 1.956 . S
Li705 O767 1.961 . S
Li706 N751 1.990 . S
Li706 O764 1.961 . S
Li706 O766 1.956 . S
Li706 O767 1.970 . S
Li707 N757 1.990 . S
Li707 O765 1.961 . S
Li707 O766 1.970 . S
Li707 O767 1.956 . S
C708 C710 1.348 . S
C708 C711 1.356 . S
C708 O764 1.325 . S
N709 C712 1.314 . S
N709 C713 1.279 . S
C710 C708 1.348 . S
C710 C712 1.353 . S
C710 H768 0.929 . S
C711 C708 1.356 . S
C711 C713 1.358 . S
C711 H769 0.930 . S
C712 N709 1.314 . S
C712 C710 1.353 . S
C712 H770 0.930 . S
C713 N709 1.279 . S
C713 C711 1.358 . S
C713 H771 0.930 . S
C714 C717 1.348 . S
C714 C718 1.356 . S
C714 O765 1.325 . S
C715 N716 1.279 . S
C715 C718 1.358 . S
C715 H772 0.930 . S
N716 C715 1.279 . S
N716 C719 1.314 . S
C717 C714 1.348 . S
C717 C719 1.353 . S
C717 H773 0.929 . S
C718 C714 1.356 . S
C718 C715 1.358 . S
C718 H774 0.930 . S
C719 N716 1.314 . S
C719 C717 1.353 . S
C719 H775 0.930 . S
C720 N721 1.314 . S
C720 C725 1.353 . S
C720 H726 0.930 . S
N721 Li704 1.990 . S
N721 C720 1.314 . S
N721 C723 1.279 . S
C722 C723 1.358 . S
C722 C724 1.356 . S
C722 H776 0.930 . S
C723 N721 1.279 . S
C723 C722 1.358 . S
C723 H727 0.930 . S
C724 C722 1.356 . S
C724 C725 1.348 . S
C725 C720 1.353 . S
C725 C724 1.348 . S
C725 H777 0.929 . S
H726 C720 0.930 . S
H727 C723 0.930 . S
C728 N729 1.314 . S
C728 C730 1.353 . S
C728 H734 0.930 . S
N729 Li705 1.990 . S
N729 C728 1.314 . S
N729 C732 1.279 . S
C730 C728 1.353 . S
C730 C733 1.348 . S
C730 H778 0.929 . S
C731 C732 1.358 . S
C731 C733 1.356 . S
C731 H779 0.930 . S
C732 N729 1.279 . S
C732 C731 1.358 . S
C732 H735 0.930 . S
C733 C730 1.348 . S
C733 C731 1.356 . S
H734 C728 0.930 . S
H735 C732 0.930 . S
C736 C738 1.348 . S
C736 C739 1.356 . S
C736 O766 1.325 . S
N737 C740 1.314 . S
N737 C741 1.279 . S
C738 C736 1.348 . S
C738 C740 1.353 . S
C738 H780 0.929 . S
C739 C736 1.356 . S
C739 C741 1.358 . S
C739 H781 0.930 . S
C740 N737 1.314 . S
C740 C738 1.353 . S
C740 H782 0.930 . S
C741 N737 1.279 . S
C741 C739 1.358 . S
C741 H783 0.930 . S
C742 C743 1.348 . S
C742 C744 1.356 . S
C742 O767 1.325 . S
C743 C742 1.348 . S
C743 C745 1.353 . S
C743 H784 0.929 . S
C744 C742 1.356 . S
C744 C746 1.358 . S
C744 H785 0.930 . S
C745 C743 1.353 . S
C745 N747 1.314 . S
C745 H786 0.930 . S
C746 C744 1.358 . S
C746 N747 1.279 . S
C746 H787 0.930 . S
N747 C745 1.314 . S
N747 C746 1.279 . S
C748 C750 1.353 . S
C748 N751 1.314 . S
C748 H754 0.930 . S
C749 N751 1.279 . S
C749 C752 1.358 . S
C749 H755 0.930 . S
C750 C748 1.353 . S
C750 C753 1.348 . S
C750 H788 0.929 . S
N751 Li706 1.990 . S
N751 C748 1.314 . S
N751 C749 1.279 . S
C752 C749 1.358 . S
C752 C753 1.356 . S
C752 H789 0.930 . S
C753 C750 1.348 . S
C753 C752 1.356 . S
H754 C748 0.930 . S
H755 C749 0.930 . S
C756 N757 1.314 . S
C756 C758 1.353 . S
C756 H762 0.930 . S
N757 Li707 1.990 . S
N757 C756 1.314 . S
N757 C760 1.279 . S
C758 C756 1.353 . S
C758 C761 1.348 . S
C758 H790 0.929 . S
C759 C760 1.358 . S
C759 C761 1.356 . S
C759 H791 0.930 . S
C760 N757 1.279 . S
C760 C759 1.358 . S
C760 H763 0.930 . S
C761 C758 1.348 . S
C761 C759 1.356 . S
H762 C756 0.930 . S
H763 C760 0.930 . S
O764 Li704 1.956 . S
O764 Li705 1.970 . S
O764 Li706 1.961 . S
O764 C708 1.325 . S
O765 Li704 1.970 . S
O765 Li705 1.956 . S
O765 Li707 1.961 . S
O765 C714 1.325 . S
O766 Li704 1.961 . S
O766 Li706 1.956 . S
O766 Li707 1.970 . S
O766 C736 1.325 . S
O767 Li705 1.961 . S
O767 Li706 1.970 . S
O767 Li707 1.956 . S
O767 C742 1.325 . S
H768 C710 0.929 . S
H769 C711 0.930 . S
H770 C712 0.930 . S
H771 C713 0.930 . S
H772 C715 0.930 . S
H773 C717 0.929 . S
H774 C718 0.930 . S
H775 C719 0.930 . S
H776 C722 0.930 . S
H777 C725 0.929 . S
H778 C730 0.929 . S
H779 C731 0.930 . S
H780 C738 0.929 . S
H781 C739 0.930 . S
H782 C740 0.930 . S
H783 C741 0.930 . S
H784 C743 0.929 . S
H785 C744 0.930 . S
H786 C745 0.930 . S
H787 C746 0.930 . S
H788 C750 0.929 . S
H789 C752 0.930 . S
H790 C758 0.929 . S
H791 C759 0.930 . S
Li792 N809 1.990 . S
Li792 O852 1.956 . S
Li792 O853 1.970 . S
Li792 O854 1.961 . S
Li793 N817 1.990 . S
Li793 O852 1.970 . S
Li793 O853 1.956 . S
Li793 O855 1.961 . S
Li794 N839 1.990 . S
Li794 O852 1.961 . S
Li794 O854 1.956 . S
Li794 O855 1.970 . S
Li795 N845 1.990 . S
Li795 O853 1.961 . S
Li795 O854 1.970 . S
Li795 O855 1.956 . S
C796 C798 1.348 . S
C796 C799 1.356 . S
C796 O852 1.325 . S
N797 C800 1.314 . S
N797 C801 1.279 . S
C798 C796 1.348 . S
C798 C800 1.353 . S
C798 H856 0.929 . S
C799 C796 1.356 . S
C799 C801 1.358 . S
C799 H857 0.930 . S
C800 N797 1.314 . S
C800 C798 1.353 . S
C800 H858 0.930 . S
C801 N797 1.279 . S
C801 C799 1.358 . S
C801 H859 0.930 . S
C802 C805 1.348 . S
C802 C806 1.356 . S
C802 O853 1.325 . S
C803 N804 1.279 . S
C803 C806 1.358 . S
C803 H860 0.930 . S
N804 C803 1.279 . S
N804 C807 1.314 . S
C805 C802 1.348 . S
C805 C807 1.353 . S
C805 H861 0.929 . S
C806 C802 1.356 . S
C806 C803 1.358 . S
C806 H862 0.930 . S
C807 N804 1.314 . S
C807 C805 1.353 . S
C807 H863 0.930 . S
C808 N809 1.314 . S
C808 C813 1.353 . S
C808 H814 0.930 . S
N809 Li792 1.990 . S
N809 C808 1.314 . S
N809 C811 1.279 . S
C810 C811 1.358 . S
C810 C812 1.356 . S
C810 H864 0.930 . S
C811 N809 1.279 . S
C811 C810 1.358 . S
C811 H815 0.930 . S
C812 C810 1.356 . S
C812 C813 1.348 . S
C813 C808 1.353 . S
C813 C812 1.348 . S
C813 H865 0.929 . S
H814 C808 0.930 . S
H815 C811 0.930 . S
C816 N817 1.314 . S
C816 C818 1.353 . S
C816 H822 0.930 . S
N817 Li793 1.990 . S
N817 C816 1.314 . S
N817 C820 1.279 . S
C818 C816 1.353 . S
C818 C821 1.348 . S
C818 H866 0.929 . S
C819 C820 1.358 . S
C819 C821 1.356 . S
C819 H867 0.930 . S
C820 N817 1.279 . S
C820 C819 1.358 . S
C820 H823 0.930 . S
C821 C818 1.348 . S
C821 C819 1.356 . S
H822 C816 0.930 . S
H823 C820 0.930 . S
C824 C826 1.348 . S
C824 C827 1.356 . S
C824 O854 1.325 . S
N825 C828 1.314 . S
N825 C829 1.279 . S
C826 C824 1.348 . S
C826 C828 1.353 . S
C826 H868 0.929 . S
C827 C824 1.356 . S
C827 C829 1.358 . S
C827 H869 0.930 . S
C828 N825 1.314 . S
C828 C826 1.353 . S
C828 H870 0.930 . S
C829 N825 1.279 . S
C829 C827 1.358 . S
C829 H871 0.930 . S
C830 C831 1.348 . S
C830 C832 1.356 . S
C830 O855 1.325 . S
C831 C830 1.348 . S
C831 C833 1.353 . S
C831 H872 0.929 . S
C832 C830 1.356 . S
C832 C834 1.358 . S
C832 H873 0.930 . S
C833 C831 1.353 . S
C833 N835 1.314 . S
C833 H874 0.930 . S
C834 C832 1.358 . S
C834 N835 1.279 . S
C834 H875 0.930 . S
N835 C833 1.314 . S
N835 C834 1.279 . S
C836 C838 1.353 . S
C836 N839 1.314 . S
C836 H842 0.930 . S
C837 N839 1.279 . S
C837 C840 1.358 . S
C837 H843 0.930 . S
C838 C836 1.353 . S
C838 C841 1.348 . S
C838 H876 0.929 . S
N839 Li794 1.990 . S
N839 C836 1.314 . S
N839 C837 1.279 . S
C840 C837 1.358 . S
C840 C841 1.356 . S
C840 H877 0.930 . S
C841 C838 1.348 . S
C841 C840 1.356 . S
H842 C836 0.930 . S
H843 C837 0.930 . S
C844 N845 1.314 . S
C844 C846 1.353 . S
C844 H850 0.930 . S
N845 Li795 1.990 . S
N845 C844 1.314 . S
N845 C848 1.279 . S
C846 C844 1.353 . S
C846 C849 1.348 . S
C846 H878 0.929 . S
C847 C848 1.358 . S
C847 C849 1.356 . S
C847 H879 0.930 . S
C848 N845 1.279 . S
C848 C847 1.358 . S
C848 H851 0.930 . S
C849 C846 1.348 . S
C849 C847 1.356 . S
H850 C844 0.930 . S
H851 C848 0.930 . S
O852 Li792 1.956 . S
O852 Li793 1.970 . S
O852 Li794 1.961 . S
O852 C796 1.325 . S
O853 Li792 1.970 . S
O853 Li793 1.956 . S
O853 Li795 1.961 . S
O853 C802 1.325 . S
O854 Li792 1.961 . S
O854 Li794 1.956 . S
O854 Li795 1.970 . S
O854 C824 1.325 . S
O855 Li793 1.961 . S
O855 Li794 1.970 . S
O855 Li795 1.956 . S
O855 C830 1.325 . S
H856 C798 0.929 . S
H857 C799 0.930 . S
H858 C800 0.930 . S
H859 C801 0.930 . S
H860 C803 0.930 . S
H861 C805 0.929 . S
H862 C806 0.930 . S
H863 C807 0.930 . S
H864 C810 0.930 . S
H865 C813 0.929 . S
H866 C818 0.929 . S
H867 C819 0.930 . S
H868 C826 0.929 . S
H869 C827 0.930 . S
H870 C828 0.930 . S
H871 C829 0.930 . S
H872 C831 0.929 . S
H873 C832 0.930 . S
H874 C833 0.930 . S
H875 C834 0.930 . S
H876 C838 0.929 . S
H877 C840 0.930 . S
H878 C846 0.929 . S
H879 C847 0.930 . S
Li880 N897 1.990 . S
Li880 O940 1.956 . S
Li880 O941 1.970 . S
Li880 O942 1.961 . S
Li881 N905 1.990 . S
Li881 O940 1.970 . S
Li881 O941 1.956 . S
Li881 O943 1.961 . S
Li882 N927 1.990 . S
Li882 O940 1.961 . S
Li882 O942 1.956 . S
Li882 O943 1.970 . S
Li883 N933 1.990 . S
Li883 O941 1.961 . S
Li883 O942 1.970 . S
Li883 O943 1.956 . S
C884 C886 1.348 . S
C884 C887 1.356 . S
C884 O940 1.325 . S
N885 C888 1.314 . S
N885 C889 1.279 . S
C886 C884 1.348 . S
C886 C888 1.353 . S
C886 H944 0.929 . S
C887 C884 1.356 . S
C887 C889 1.358 . S
C887 H945 0.930 . S
C888 N885 1.314 . S
C888 C886 1.353 . S
C888 H946 0.930 . S
C889 N885 1.279 . S
C889 C887 1.358 . S
C889 H947 0.930 . S
C890 C893 1.348 . S
C890 C894 1.356 . S
C890 O941 1.325 . S
C891 N892 1.279 . S
C891 C894 1.358 . S
C891 H948 0.930 . S
N892 C891 1.279 . S
N892 C895 1.314 . S
C893 C890 1.348 . S
C893 C895 1.353 . S
C893 H949 0.929 . S
C894 C890 1.356 . S
C894 C891 1.358 . S
C894 H950 0.930 . S
C895 N892 1.314 . S
C895 C893 1.353 . S
C895 H951 0.930 . S
C896 N897 1.314 . S
C896 C901 1.353 . S
C896 H902 0.930 . S
N897 Li880 1.990 . S
N897 C896 1.314 . S
N897 C899 1.279 . S
C898 C899 1.358 . S
C898 C900 1.356 . S
C898 H952 0.930 . S
C899 N897 1.279 . S
C899 C898 1.358 . S
C899 H903 0.930 . S
C900 C898 1.356 . S
C900 C901 1.348 . S
C901 C896 1.353 . S
C901 C900 1.348 . S
C901 H953 0.929 . S
H902 C896 0.930 . S
H903 C899 0.930 . S
C904 N905 1.314 . S
C904 C906 1.353 . S
C904 H910 0.930 . S
N905 Li881 1.990 . S
N905 C904 1.314 . S
N905 C908 1.279 . S
C906 C904 1.353 . S
C906 C909 1.348 . S
C906 H954 0.929 . S
C907 C908 1.358 . S
C907 C909 1.356 . S
C907 H955 0.930 . S
C908 N905 1.279 . S
C908 C907 1.358 . S
C908 H911 0.930 . S
C909 C906 1.348 . S
C909 C907 1.356 . S
H910 C904 0.930 . S
H911 C908 0.930 . S
C912 C914 1.348 . S
C912 C915 1.356 . S
C912 O942 1.325 . S
N913 C916 1.314 . S
N913 C917 1.279 . S
C914 C912 1.348 . S
C914 C916 1.353 . S
C914 H956 0.929 . S
C915 C912 1.356 . S
C915 C917 1.358 . S
C915 H957 0.930 . S
C916 N913 1.314 . S
C916 C914 1.353 . S
C916 H958 0.930 . S
C917 N913 1.279 . S
C917 C915 1.358 . S
C917 H959 0.930 . S
C918 C919 1.348 . S
C918 C920 1.356 . S
C918 O943 1.325 . S
C919 C918 1.348 . S
C919 C921 1.353 . S
C919 H960 0.929 . S
C920 C918 1.356 . S
C920 C922 1.358 . S
C920 H961 0.930 . S
C921 C919 1.353 . S
C921 N923 1.314 . S
C921 H962 0.930 . S
C922 C920 1.358 . S
C922 N923 1.279 . S
C922 H963 0.930 . S
N923 C921 1.314 . S
N923 C922 1.279 . S
C924 C926 1.353 . S
C924 N927 1.314 . S
C924 H930 0.930 . S
C925 N927 1.279 . S
C925 C928 1.358 . S
C925 H931 0.930 . S
C926 C924 1.353 . S
C926 C929 1.348 . S
C926 H964 0.929 . S
N927 Li882 1.990 . S
N927 C924 1.314 . S
N927 C925 1.279 . S
C928 C925 1.358 . S
C928 C929 1.356 . S
C928 H965 0.930 . S
C929 C926 1.348 . S
C929 C928 1.356 . S
H930 C924 0.930 . S
H931 C925 0.930 . S
C932 N933 1.314 . S
C932 C934 1.353 . S
C932 H938 0.930 . S
N933 Li883 1.990 . S
N933 C932 1.314 . S
N933 C936 1.279 . S
C934 C932 1.353 . S
C934 C937 1.348 . S
C934 H966 0.929 . S
C935 C936 1.358 . S
C935 C937 1.356 . S
C935 H967 0.930 . S
C936 N933 1.279 . S
C936 C935 1.358 . S
C936 H939 0.930 . S
C937 C934 1.348 . S
C937 C935 1.356 . S
H938 C932 0.930 . S
H939 C936 0.930 . S
O940 Li880 1.956 . S
O940 Li881 1.970 . S
O940 Li882 1.961 . S
O940 C884 1.325 . S
O941 Li880 1.970 . S
O941 Li881 1.956 . S
O941 Li883 1.961 . S
O941 C890 1.325 . S
O942 Li880 1.961 . S
O942 Li882 1.956 . S
O942 Li883 1.970 . S
O942 C912 1.325 . S
O943 Li881 1.961 . S
O943 Li882 1.970 . S
O943 Li883 1.956 . S
O943 C918 1.325 . S
H944 C886 0.929 . S
H945 C887 0.930 . S
H946 C888 0.930 . S
H947 C889 0.930 . S
H948 C891 0.930 . S
H949 C893 0.929 . S
H950 C894 0.930 . S
H951 C895 0.930 . S
H952 C898 0.930 . S
H953 C901 0.929 . S
H954 C906 0.929 . S
H955 C907 0.930 . S
H956 C914 0.929 . S
H957 C915 0.930 . S
H958 C916 0.930 . S
H959 C917 0.930 . S
H960 C919 0.929 . S
H961 C920 0.930 . S
H962 C921 0.930 . S
H963 C922 0.930 . S
H964 C926 0.929 . S
H965 C928 0.930 . S
H966 C934 0.929 . S
H967 C935 0.930 . S
Li968 N985 1.990 . S
Li968 O1028 1.956 . S
Li968 O1029 1.970 . S
Li968 O1030 1.961 . S
Li969 N993 1.990 . S
Li969 O1028 1.970 . S
Li969 O1029 1.956 . S
Li969 O1031 1.961 . S
Li970 N1015 1.990 . S
Li970 O1028 1.961 . S
Li970 O1030 1.956 . S
Li970 O1031 1.970 . S
Li971 N1021 1.990 . S
Li971 O1029 1.961 . S
Li971 O1030 1.970 . S
Li971 O1031 1.956 . S
C972 C974 1.348 . S
C972 C975 1.356 . S
C972 O1028 1.325 . S
N973 C976 1.314 . S
N973 C977 1.279 . S
C974 C972 1.348 . S
C974 C976 1.353 . S
C974 H1032 0.929 . S
C975 C972 1.356 . S
C975 C977 1.358 . S
C975 H1033 0.930 . S
C976 N973 1.314 . S
C976 C974 1.353 . S
C976 H1034 0.930 . S
C977 N973 1.279 . S
C977 C975 1.358 . S
C977 H1035 0.930 . S
C978 C981 1.348 . S
C978 C982 1.356 . S
C978 O1029 1.325 . S
C979 N980 1.279 . S
C979 C982 1.358 . S
C979 H1036 0.930 . S
N980 C979 1.279 . S
N980 C983 1.314 . S
C981 C978 1.348 . S
C981 C983 1.353 . S
C981 H1037 0.929 . S
C982 C978 1.356 . S
C982 C979 1.358 . S
C982 H1038 0.930 . S
C983 N980 1.314 . S
C983 C981 1.353 . S
C983 H1039 0.930 . S
C984 N985 1.314 . S
C984 C989 1.353 . S
C984 H990 0.930 . S
N985 Li968 1.990 . S
N985 C984 1.314 . S
N985 C987 1.279 . S
C986 C987 1.358 . S
C986 C988 1.356 . S
C986 H1040 0.930 . S
C987 N985 1.279 . S
C987 C986 1.358 . S
C987 H991 0.930 . S
C988 C986 1.356 . S
C988 C989 1.348 . S
C989 C984 1.353 . S
C989 C988 1.348 . S
C989 H1041 0.929 . S
H990 C984 0.930 . S
H991 C987 0.930 . S
C992 N993 1.314 . S
C992 C994 1.353 . S
C992 H998 0.930 . S
N993 Li969 1.990 . S
N993 C992 1.314 . S
N993 C996 1.279 . S
C994 C992 1.353 . S
C994 C997 1.348 . S
C994 H1042 0.929 . S
C995 C996 1.358 . S
C995 C997 1.356 . S
C995 H1043 0.930 . S
C996 N993 1.279 . S
C996 C995 1.358 . S
C996 H999 0.930 . S
C997 C994 1.348 . S
C997 C995 1.356 . S
H998 C992 0.930 . S
H999 C996 0.930 . S
C1000 C1002 1.348 . S
C1000 C1003 1.356 . S
C1000 O1030 1.325 . S
N1001 C1004 1.314 . S
N1001 C1005 1.279 . S
C1002 C1000 1.348 . S
C1002 C1004 1.353 . S
C1002 H1044 0.929 . S
C1003 C1000 1.356 . S
C1003 C1005 1.358 . S
C1003 H1045 0.930 . S
C1004 N1001 1.314 . S
C1004 C1002 1.353 . S
C1004 H1046 0.930 . S
C1005 N1001 1.279 . S
C1005 C1003 1.358 . S
C1005 H1047 0.930 . S
C1006 C1007 1.348 . S
C1006 C1008 1.356 . S
C1006 O1031 1.325 . S
C1007 C1006 1.348 . S
C1007 C1009 1.353 . S
C1007 H1048 0.929 . S
C1008 C1006 1.356 . S
C1008 C1010 1.358 . S
C1008 H1049 0.930 . S
C1009 C1007 1.353 . S
C1009 N1011 1.314 . S
C1009 H1050 0.930 . S
C1010 C1008 1.358 . S
C1010 N1011 1.279 . S
C1010 H1051 0.930 . S
N1011 C1009 1.314 . S
N1011 C1010 1.279 . S
C1012 C1014 1.353 . S
C1012 N1015 1.314 . S
C1012 H1018 0.930 . S
C1013 N1015 1.279 . S
C1013 C1016 1.358 . S
C1013 H1019 0.930 . S
C1014 C1012 1.353 . S
C1014 C1017 1.348 . S
C1014 H1052 0.929 . S
N1015 Li970 1.990 . S
N1015 C1012 1.314 . S
N1015 C1013 1.279 . S
C1016 C1013 1.358 . S
C1016 C1017 1.356 . S
C1016 H1053 0.930 . S
C1017 C1014 1.348 . S
C1017 C1016 1.356 . S
H1018 C1012 0.930 . S
H1019 C1013 0.930 . S
C1020 N1021 1.314 . S
C1020 C1022 1.353 . S
C1020 H1026 0.930 . S
N1021 Li971 1.990 . S
N1021 C1020 1.314 . S
N1021 C1024 1.279 . S
C1022 C1020 1.353 . S
C1022 C1025 1.348 . S
C1022 H1054 0.929 . S
C1023 C1024 1.358 . S
C1023 C1025 1.356 . S
C1023 H1055 0.930 . S
C1024 N1021 1.279 . S
C1024 C1023 1.358 . S
C1024 H1027 0.930 . S
C1025 C1022 1.348 . S
C1025 C1023 1.356 . S
H1026 C1020 0.930 . S
H1027 C1024 0.930 . S
O1028 Li968 1.956 . S
O1028 Li969 1.970 . S
O1028 Li970 1.961 . S
O1028 C972 1.325 . S
O1029 Li968 1.970 . S
O1029 Li969 1.956 . S
O1029 Li971 1.961 . S
O1029 C978 1.325 . S
O1030 Li968 1.961 . S
O1030 Li970 1.956 . S
O1030 Li971 1.970 . S
O1030 C1000 1.325 . S
O1031 Li969 1.961 . S
O1031 Li970 1.970 . S
O1031 Li971 1.956 . S
O1031 C1006 1.325 . S
H1032 C974 0.929 . S
H1033 C975 0.930 . S
H1034 C976 0.930 . S
H1035 C977 0.930 . S
H1036 C979 0.930 . S
H1037 C981 0.929 . S
H1038 C982 0.930 . S
H1039 C983 0.930 . S
H1040 C986 0.930 . S
H1041 C989 0.929 . S
H1042 C994 0.929 . S
H1043 C995 0.930 . S
H1044 C1002 0.929 . S
H1045 C1003 0.930 . S
H1046 C1004 0.930 . S
H1047 C1005 0.930 . S
H1048 C1007 0.929 . S
H1049 C1008 0.930 . S
H1050 C1009 0.930 . S
H1051 C1010 0.930 . S
H1052 C1014 0.929 . S
H1053 C1016 0.930 . S
H1054 C1022 0.929 . S
H1055 C1023 0.930 . S
Li1056 N1073 1.990 . S
Li1056 O1116 1.956 . S
Li1056 O1117 1.970 . S
Li1056 O1118 1.961 . S
Li1057 N1081 1.990 . S
Li1057 O1116 1.970 . S
Li1057 O1117 1.956 . S
Li1057 O1119 1.961 . S
Li1058 N1103 1.990 . S
Li1058 O1116 1.961 . S
Li1058 O1118 1.956 . S
Li1058 O1119 1.970 . S
Li1059 N1109 1.990 . S
Li1059 O1117 1.961 . S
Li1059 O1118 1.970 . S
Li1059 O1119 1.956 . S
C1060 C1062 1.348 . S
C1060 C1063 1.356 . S
C1060 O1116 1.325 . S
N1061 C1064 1.314 . S
N1061 C1065 1.279 . S
C1062 C1060 1.348 . S
C1062 C1064 1.353 . S
C1062 H1120 0.929 . S
C1063 C1060 1.356 . S
C1063 C1065 1.358 . S
C1063 H1121 0.930 . S
C1064 N1061 1.314 . S
C1064 C1062 1.353 . S
C1064 H1122 0.930 . S
C1065 N1061 1.279 . S
C1065 C1063 1.358 . S
C1065 H1123 0.930 . S
C1066 C1069 1.348 . S
C1066 C1070 1.356 . S
C1066 O1117 1.325 . S
C1067 N1068 1.279 . S
C1067 C1070 1.358 . S
C1067 H1124 0.930 . S
N1068 C1067 1.279 . S
N1068 C1071 1.314 . S
C1069 C1066 1.348 . S
C1069 C1071 1.353 . S
C1069 H1125 0.929 . S
C1070 C1066 1.356 . S
C1070 C1067 1.358 . S
C1070 H1126 0.930 . S
C1071 N1068 1.314 . S
C1071 C1069 1.353 . S
C1071 H1127 0.930 . S
C1072 N1073 1.314 . S
C1072 C1077 1.353 . S
C1072 H1078 0.930 . S
N1073 Li1056 1.990 . S
N1073 C1072 1.314 . S
N1073 C1075 1.279 . S
C1074 C1075 1.358 . S
C1074 C1076 1.356 . S
C1074 H1128 0.930 . S
C1075 N1073 1.279 . S
C1075 C1074 1.358 . S
C1075 H1079 0.930 . S
C1076 C1074 1.356 . S
C1076 C1077 1.348 . S
C1077 C1072 1.353 . S
C1077 C1076 1.348 . S
C1077 H1129 0.929 . S
H1078 C1072 0.930 . S
H1079 C1075 0.930 . S
C1080 N1081 1.314 . S
C1080 C1082 1.353 . S
C1080 H1086 0.930 . S
N1081 Li1057 1.990 . S
N1081 C1080 1.314 . S
N1081 C1084 1.279 . S
C1082 C1080 1.353 . S
C1082 C1085 1.348 . S
C1082 H1130 0.929 . S
C1083 C1084 1.358 . S
C1083 C1085 1.356 . S
C1083 H1131 0.930 . S
C1084 N1081 1.279 . S
C1084 C1083 1.358 . S
C1084 H1087 0.930 . S
C1085 C1082 1.348 . S
C1085 C1083 1.356 . S
H1086 C1080 0.930 . S
H1087 C1084 0.930 . S
C1088 C1090 1.348 . S
C1088 C1091 1.356 . S
C1088 O1118 1.325 . S
N1089 C1092 1.314 . S
N1089 C1093 1.279 . S
C1090 C1088 1.348 . S
C1090 C1092 1.353 . S
C1090 H1132 0.929 . S
C1091 C1088 1.356 . S
C1091 C1093 1.358 . S
C1091 H1133 0.930 . S
C1092 N1089 1.314 . S
C1092 C1090 1.353 . S
C1092 H1134 0.930 . S
C1093 N1089 1.279 . S
C1093 C1091 1.358 . S
C1093 H1135 0.930 . S
C1094 C1095 1.348 . S
C1094 C1096 1.356 . S
C1094 O1119 1.325 . S
C1095 C1094 1.348 . S
C1095 C1097 1.353 . S
C1095 H1136 0.929 . S
C1096 C1094 1.356 . S
C1096 C1098 1.358 . S
C1096 H1137 0.930 . S
C1097 C1095 1.353 . S
C1097 N1099 1.314 . S
C1097 H1138 0.930 . S
C1098 C1096 1.358 . S
C1098 N1099 1.279 . S
C1098 H1139 0.930 . S
N1099 C1097 1.314 . S
N1099 C1098 1.279 . S
C1100 C1102 1.353 . S
C1100 N1103 1.314 . S
C1100 H1106 0.930 . S
C1101 N1103 1.279 . S
C1101 C1104 1.358 . S
C1101 H1107 0.930 . S
C1102 C1100 1.353 . S
C1102 C1105 1.348 . S
C1102 H1140 0.929 . S
N1103 Li1058 1.990 . S
N1103 C1100 1.314 . S
N1103 C1101 1.279 . S
C1104 C1101 1.358 . S
C1104 C1105 1.356 . S
C1104 H1141 0.930 . S
C1105 C1102 1.348 . S
C1105 C1104 1.356 . S
H1106 C1100 0.930 . S
H1107 C1101 0.930 . S
C1108 N1109 1.314 . S
C1108 C1110 1.353 . S
C1108 H1114 0.930 . S
N1109 Li1059 1.990 . S
N1109 C1108 1.314 . S
N1109 C1112 1.279 . S
C1110 C1108 1.353 . S
C1110 C1113 1.348 . S
C1110 H1142 0.929 . S
C1111 C1112 1.358 . S
C1111 C1113 1.356 . S
C1111 H1143 0.930 . S
C1112 N1109 1.279 . S
C1112 C1111 1.358 . S
C1112 H1115 0.930 . S
C1113 C1110 1.348 . S
C1113 C1111 1.356 . S
H1114 C1108 0.930 . S
H1115 C1112 0.930 . S
O1116 Li1056 1.956 . S
O1116 Li1057 1.970 . S
O1116 Li1058 1.961 . S
O1116 C1060 1.325 . S
O1117 Li1056 1.970 . S
O1117 Li1057 1.956 . S
O1117 Li1059 1.961 . S
O1117 C1066 1.325 . S
O1118 Li1056 1.961 . S
O1118 Li1058 1.956 . S
O1118 Li1059 1.970 . S
O1118 C1088 1.325 . S
O1119 Li1057 1.961 . S
O1119 Li1058 1.970 . S
O1119 Li1059 1.956 . S
O1119 C1094 1.325 . S
H1120 C1062 0.929 . S
H1121 C1063 0.930 . S
H1122 C1064 0.930 . S
H1123 C1065 0.930 . S
H1124 C1067 0.930 . S
H1125 C1069 0.929 . S
H1126 C1070 0.930 . S
H1127 C1071 0.930 . S
H1128 C1074 0.930 . S
H1129 C1077 0.929 . S
H1130 C1082 0.929 . S
H1131 C1083 0.930 . S
H1132 C1090 0.929 . S
H1133 C1091 0.930 . S
H1134 C1092 0.930 . S
H1135 C1093 0.930 . S
H1136 C1095 0.929 . S
H1137 C1096 0.930 . S
H1138 C1097 0.930 . S
H1139 C1098 0.930 . S
H1140 C1102 0.929 . S
H1141 C1104 0.930 . S
H1142 C1110 0.929 . S
H1143 C1111 0.930 . S
Li1144 N1161 1.990 . S
Li1144 O1204 1.956 . S
Li1144 O1205 1.970 . S
Li1144 O1206 1.961 . S
Li1145 N1169 1.990 . S
Li1145 O1204 1.970 . S
Li1145 O1205 1.956 . S
Li1145 O1207 1.961 . S
Li1146 N1191 1.990 . S
Li1146 O1204 1.961 . S
Li1146 O1206 1.956 . S
Li1146 O1207 1.970 . S
Li1147 N1197 1.990 . S
Li1147 O1205 1.961 . S
Li1147 O1206 1.970 . S
Li1147 O1207 1.956 . S
C1148 C1150 1.348 . S
C1148 C1151 1.356 . S
C1148 O1204 1.325 . S
N1149 C1152 1.314 . S
N1149 C1153 1.279 . S
C1150 C1148 1.348 . S
C1150 C1152 1.353 . S
C1150 H1208 0.929 . S
C1151 C1148 1.356 . S
C1151 C1153 1.358 . S
C1151 H1209 0.930 . S
C1152 N1149 1.314 . S
C1152 C1150 1.353 . S
C1152 H1210 0.930 . S
C1153 N1149 1.279 . S
C1153 C1151 1.358 . S
C1153 H1211 0.930 . S
C1154 C1157 1.348 . S
C1154 C1158 1.356 . S
C1154 O1205 1.325 . S
C1155 N1156 1.279 . S
C1155 C1158 1.358 . S
C1155 H1212 0.930 . S
N1156 C1155 1.279 . S
N1156 C1159 1.314 . S
C1157 C1154 1.348 . S
C1157 C1159 1.353 . S
C1157 H1213 0.929 . S
C1158 C1154 1.356 . S
C1158 C1155 1.358 . S
C1158 H1214 0.930 . S
C1159 N1156 1.314 . S
C1159 C1157 1.353 . S
C1159 H1215 0.930 . S
C1160 N1161 1.314 . S
C1160 C1165 1.353 . S
C1160 H1166 0.930 . S
N1161 Li1144 1.990 . S
N1161 C1160 1.314 . S
N1161 C1163 1.279 . S
C1162 C1163 1.358 . S
C1162 C1164 1.356 . S
C1162 H1216 0.930 . S
C1163 N1161 1.279 . S
C1163 C1162 1.358 . S
C1163 H1167 0.930 . S
C1164 C1162 1.356 . S
C1164 C1165 1.348 . S
C1165 C1160 1.353 . S
C1165 C1164 1.348 . S
C1165 H1217 0.929 . S
H1166 C1160 0.930 . S
H1167 C1163 0.930 . S
C1168 N1169 1.314 . S
C1168 C1170 1.353 . S
C1168 H1174 0.930 . S
N1169 Li1145 1.990 . S
N1169 C1168 1.314 . S
N1169 C1172 1.279 . S
C1170 C1168 1.353 . S
C1170 C1173 1.348 . S
C1170 H1218 0.929 . S
C1171 C1172 1.358 . S
C1171 C1173 1.356 . S
C1171 H1219 0.930 . S
C1172 N1169 1.279 . S
C1172 C1171 1.358 . S
C1172 H1175 0.930 . S
C1173 C1170 1.348 . S
C1173 C1171 1.356 . S
H1174 C1168 0.930 . S
H1175 C1172 0.930 . S
C1176 C1178 1.348 . S
C1176 C1179 1.356 . S
C1176 O1206 1.325 . S
N1177 C1180 1.314 . S
N1177 C1181 1.279 . S
C1178 C1176 1.348 . S
C1178 C1180 1.353 . S
C1178 H1220 0.929 . S
C1179 C1176 1.356 . S
C1179 C1181 1.358 . S
C1179 H1221 0.930 . S
C1180 N1177 1.314 . S
C1180 C1178 1.353 . S
C1180 H1222 0.930 . S
C1181 N1177 1.279 . S
C1181 C1179 1.358 . S
C1181 H1223 0.930 . S
C1182 C1183 1.348 . S
C1182 C1184 1.356 . S
C1182 O1207 1.325 . S
C1183 C1182 1.348 . S
C1183 C1185 1.353 . S
C1183 H1224 0.929 . S
C1184 C1182 1.356 . S
C1184 C1186 1.358 . S
C1184 H1225 0.930 . S
C1185 C1183 1.353 . S
C1185 N1187 1.314 . S
C1185 H1226 0.930 . S
C1186 C1184 1.358 . S
C1186 N1187 1.279 . S
C1186 H1227 0.930 . S
N1187 C1185 1.314 . S
N1187 C1186 1.279 . S
C1188 C1190 1.353 . S
C1188 N1191 1.314 . S
C1188 H1194 0.930 . S
C1189 N1191 1.279 . S
C1189 C1192 1.358 . S
C1189 H1195 0.930 . S
C1190 C1188 1.353 . S
C1190 C1193 1.348 . S
C1190 H1228 0.929 . S
N1191 Li1146 1.990 . S
N1191 C1188 1.314 . S
N1191 C1189 1.279 . S
C1192 C1189 1.358 . S
C1192 C1193 1.356 . S
C1192 H1229 0.930 . S
C1193 C1190 1.348 . S
C1193 C1192 1.356 . S
H1194 C1188 0.930 . S
H1195 C1189 0.930 . S
C1196 N1197 1.314 . S
C1196 C1198 1.353 . S
C1196 H1202 0.930 . S
N1197 Li1147 1.990 . S
N1197 C1196 1.314 . S
N1197 C1200 1.279 . S
C1198 C1196 1.353 . S
C1198 C1201 1.348 . S
C1198 H1230 0.929 . S
C1199 C1200 1.358 . S
C1199 C1201 1.356 . S
C1199 H1231 0.930 . S
C1200 N1197 1.279 . S
C1200 C1199 1.358 . S
C1200 H1203 0.930 . S
C1201 C1198 1.348 . S
C1201 C1199 1.356 . S
H1202 C1196 0.930 . S
H1203 C1200 0.930 . S
O1204 Li1144 1.956 . S
O1204 Li1145 1.970 . S
O1204 Li1146 1.961 . S
O1204 C1148 1.325 . S
O1205 Li1144 1.970 . S
O1205 Li1145 1.956 . S
O1205 Li1147 1.961 . S
O1205 C1154 1.325 . S
O1206 Li1144 1.961 . S
O1206 Li1146 1.956 . S
O1206 Li1147 1.970 . S
O1206 C1176 1.325 . S
O1207 Li1145 1.961 . S
O1207 Li1146 1.970 . S
O1207 Li1147 1.956 . S
O1207 C1182 1.325 . S
H1208 C1150 0.929 . S
H1209 C1151 0.930 . S
H1210 C1152 0.930 . S
H1211 C1153 0.930 . S
H1212 C1155 0.930 . S
H1213 C1157 0.929 . S
H1214 C1158 0.930 . S
H1215 C1159 0.930 . S
H1216 C1162 0.930 . S
H1217 C1165 0.929 . S
H1218 C1170 0.929 . S
H1219 C1171 0.930 . S
H1220 C1178 0.929 . S
H1221 C1179 0.930 . S
H1222 C1180 0.930 . S
H1223 C1181 0.930 . S
H1224 C1183 0.929 . S
H1225 C1184 0.930 . S
H1226 C1185 0.930 . S
H1227 C1186 0.930 . S
H1228 C1190 0.929 . S
H1229 C1192 0.930 . S
H1230 C1198 0.929 . S
H1231 C1199 0.930 . S
Li1232 N1249 1.990 . S
Li1232 O1292 1.956 . S
Li1232 O1293 1.970 . S
Li1232 O1294 1.961 . S
Li1233 N1257 1.990 . S
Li1233 O1292 1.970 . S
Li1233 O1293 1.956 . S
Li1233 O1295 1.961 . S
Li1234 N1279 1.990 . S
Li1234 O1292 1.961 . S
Li1234 O1294 1.956 . S
Li1234 O1295 1.970 . S
Li1235 N1285 1.990 . S
Li1235 O1293 1.961 . S
Li1235 O1294 1.970 . S
Li1235 O1295 1.956 . S
C1236 C1238 1.348 . S
C1236 C1239 1.356 . S
C1236 O1292 1.325 . S
N1237 C1240 1.314 . S
N1237 C1241 1.279 . S
C1238 C1236 1.348 . S
C1238 C1240 1.353 . S
C1238 H1296 0.929 . S
C1239 C1236 1.356 . S
C1239 C1241 1.358 . S
C1239 H1297 0.930 . S
C1240 N1237 1.314 . S
C1240 C1238 1.353 . S
C1240 H1298 0.930 . S
C1241 N1237 1.279 . S
C1241 C1239 1.358 . S
C1241 H1299 0.930 . S
C1242 C1245 1.348 . S
C1242 C1246 1.356 . S
C1242 O1293 1.325 . S
C1243 N1244 1.279 . S
C1243 C1246 1.358 . S
C1243 H1300 0.930 . S
N1244 C1243 1.279 . S
N1244 C1247 1.314 . S
C1245 C1242 1.348 . S
C1245 C1247 1.353 . S
C1245 H1301 0.929 . S
C1246 C1242 1.356 . S
C1246 C1243 1.358 . S
C1246 H1302 0.930 . S
C1247 N1244 1.314 . S
C1247 C1245 1.353 . S
C1247 H1303 0.930 . S
C1248 N1249 1.314 . S
C1248 C1253 1.353 . S
C1248 H1254 0.930 . S
N1249 Li1232 1.990 . S
N1249 C1248 1.314 . S
N1249 C1251 1.279 . S
C1250 C1251 1.358 . S
C1250 C1252 1.356 . S
C1250 H1304 0.930 . S
C1251 N1249 1.279 . S
C1251 C1250 1.358 . S
C1251 H1255 0.930 . S
C1252 C1250 1.356 . S
C1252 C1253 1.348 . S
C1253 C1248 1.353 . S
C1253 C1252 1.348 . S
C1253 H1305 0.929 . S
H1254 C1248 0.930 . S
H1255 C1251 0.930 . S
C1256 N1257 1.314 . S
C1256 C1258 1.353 . S
C1256 H1262 0.930 . S
N1257 Li1233 1.990 . S
N1257 C1256 1.314 . S
N1257 C1260 1.279 . S
C1258 C1256 1.353 . S
C1258 C1261 1.348 . S
C1258 H1306 0.929 . S
C1259 C1260 1.358 . S
C1259 C1261 1.356 . S
C1259 H1307 0.930 . S
C1260 N1257 1.279 . S
C1260 C1259 1.358 . S
C1260 H1263 0.930 . S
C1261 C1258 1.348 . S
C1261 C1259 1.356 . S
H1262 C1256 0.930 . S
H1263 C1260 0.930 . S
C1264 C1266 1.348 . S
C1264 C1267 1.356 . S
C1264 O1294 1.325 . S
N1265 C1268 1.314 . S
N1265 C1269 1.279 . S
C1266 C1264 1.348 . S
C1266 C1268 1.353 . S
C1266 H1308 0.929 . S
C1267 C1264 1.356 . S
C1267 C1269 1.358 . S
C1267 H1309 0.930 . S
C1268 N1265 1.314 . S
C1268 C1266 1.353 . S
C1268 H1310 0.930 . S
C1269 N1265 1.279 . S
C1269 C1267 1.358 . S
C1269 H1311 0.930 . S
C1270 C1271 1.348 . S
C1270 C1272 1.356 . S
C1270 O1295 1.325 . S
C1271 C1270 1.348 . S
C1271 C1273 1.353 . S
C1271 H1312 0.929 . S
C1272 C1270 1.356 . S
C1272 C1274 1.358 . S
C1272 H1313 0.930 . S
C1273 C1271 1.353 . S
C1273 N1275 1.314 . S
C1273 H1314 0.930 . S
C1274 C1272 1.358 . S
C1274 N1275 1.279 . S
C1274 H1315 0.930 . S
N1275 C1273 1.314 . S
N1275 C1274 1.279 . S
C1276 C1278 1.353 . S
C1276 N1279 1.314 . S
C1276 H1282 0.930 . S
C1277 N1279 1.279 . S
C1277 C1280 1.358 . S
C1277 H1283 0.930 . S
C1278 C1276 1.353 . S
C1278 C1281 1.348 . S
C1278 H1316 0.929 . S
N1279 Li1234 1.990 . S
N1279 C1276 1.314 . S
N1279 C1277 1.279 . S
C1280 C1277 1.358 . S
C1280 C1281 1.356 . S
C1280 H1317 0.930 . S
C1281 C1278 1.348 . S
C1281 C1280 1.356 . S
H1282 C1276 0.930 . S
H1283 C1277 0.930 . S
C1284 N1285 1.314 . S
C1284 C1286 1.353 . S
C1284 H1290 0.930 . S
N1285 Li1235 1.990 . S
N1285 C1284 1.314 . S
N1285 C1288 1.279 . S
C1286 C1284 1.353 . S
C1286 C1289 1.348 . S
C1286 H1318 0.929 . S
C1287 C1288 1.358 . S
C1287 C1289 1.356 . S
C1287 H1319 0.930 . S
C1288 N1285 1.279 . S
C1288 C1287 1.358 . S
C1288 H1291 0.930 . S
C1289 C1286 1.348 . S
C1289 C1287 1.356 . S
H1290 C1284 0.930 . S
H1291 C1288 0.930 . S
O1292 Li1232 1.956 . S
O1292 Li1233 1.970 . S
O1292 Li1234 1.961 . S
O1292 C1236 1.325 . S
O1293 Li1232 1.970 . S
O1293 Li1233 1.956 . S
O1293 Li1235 1.961 . S
O1293 C1242 1.325 . S
O1294 Li1232 1.961 . S
O1294 Li1234 1.956 . S
O1294 Li1235 1.970 . S
O1294 C1264 1.325 . S
O1295 Li1233 1.961 . S
O1295 Li1234 1.970 . S
O1295 Li1235 1.956 . S
O1295 C1270 1.325 . S
H1296 C1238 0.929 . S
H1297 C1239 0.930 . S
H1298 C1240 0.930 . S
H1299 C1241 0.930 . S
H1300 C1243 0.930 . S
H1301 C1245 0.929 . S
H1302 C1246 0.930 . S
H1303 C1247 0.930 . S
H1304 C1250 0.930 . S
H1305 C1253 0.929 . S
H1306 C1258 0.929 . S
H1307 C1259 0.930 . S
H1308 C1266 0.929 . S
H1309 C1267 0.930 . S
H1310 C1268 0.930 . S
H1311 C1269 0.930 . S
H1312 C1271 0.929 . S
H1313 C1272 0.930 . S
H1314 C1273 0.930 . S
H1315 C1274 0.930 . S
H1316 C1278 0.929 . S
H1317 C1280 0.930 . S
H1318 C1286 0.929 . S
H1319 C1287 0.930 . S
Li1320 N1337 1.990 . S
Li1320 O1380 1.956 . S
Li1320 O1381 1.970 . S
Li1320 O1382 1.961 . S
Li1321 N1345 1.990 . S
Li1321 O1380 1.970 . S
Li1321 O1381 1.956 . S
Li1321 O1383 1.961 . S
Li1322 N1367 1.990 . S
Li1322 O1380 1.961 . S
Li1322 O1382 1.956 . S
Li1322 O1383 1.970 . S
Li1323 N1373 1.990 . S
Li1323 O1381 1.961 . S
Li1323 O1382 1.970 . S
Li1323 O1383 1.956 . S
C1324 C1326 1.348 . S
C1324 C1327 1.356 . S
C1324 O1380 1.325 . S
N1325 C1328 1.314 . S
N1325 C1329 1.279 . S
C1326 C1324 1.348 . S
C1326 C1328 1.353 . S
C1326 H1384 0.929 . S
C1327 C1324 1.356 . S
C1327 C1329 1.358 . S
C1327 H1385 0.930 . S
C1328 N1325 1.314 . S
C1328 C1326 1.353 . S
C1328 H1386 0.930 . S
C1329 N1325 1.279 . S
C1329 C1327 1.358 . S
C1329 H1387 0.930 . S
C1330 C1333 1.348 . S
C1330 C1334 1.356 . S
C1330 O1381 1.325 . S
C1331 N1332 1.279 . S
C1331 C1334 1.358 . S
C1331 H1388 0.930 . S
N1332 C1331 1.279 . S
N1332 C1335 1.314 . S
C1333 C1330 1.348 . S
C1333 C1335 1.353 . S
C1333 H1389 0.929 . S
C1334 C1330 1.356 . S
C1334 C1331 1.358 . S
C1334 H1390 0.930 . S
C1335 N1332 1.314 . S
C1335 C1333 1.353 . S
C1335 H1391 0.930 . S
C1336 N1337 1.314 . S
C1336 C1341 1.353 . S
C1336 H1342 0.930 . S
N1337 Li1320 1.990 . S
N1337 C1336 1.314 . S
N1337 C1339 1.279 . S
C1338 C1339 1.358 . S
C1338 C1340 1.356 . S
C1338 H1392 0.930 . S
C1339 N1337 1.279 . S
C1339 C1338 1.358 . S
C1339 H1343 0.930 . S
C1340 C1338 1.356 . S
C1340 C1341 1.348 . S
C1341 C1336 1.353 . S
C1341 C1340 1.348 . S
C1341 H1393 0.929 . S
H1342 C1336 0.930 . S
H1343 C1339 0.930 . S
C1344 N1345 1.314 . S
C1344 C1346 1.353 . S
C1344 H1350 0.930 . S
N1345 Li1321 1.990 . S
N1345 C1344 1.314 . S
N1345 C1348 1.279 . S
C1346 C1344 1.353 . S
C1346 C1349 1.348 . S
C1346 H1394 0.929 . S
C1347 C1348 1.358 . S
C1347 C1349 1.356 . S
C1347 H1395 0.930 . S
C1348 N1345 1.279 . S
C1348 C1347 1.358 . S
C1348 H1351 0.930 . S
C1349 C1346 1.348 . S
C1349 C1347 1.356 . S
H1350 C1344 0.930 . S
H1351 C1348 0.930 . S
C1352 C1354 1.348 . S
C1352 C1355 1.356 . S
C1352 O1382 1.325 . S
N1353 C1356 1.314 . S
N1353 C1357 1.279 . S
C1354 C1352 1.348 . S
C1354 C1356 1.353 . S
C1354 H1396 0.929 . S
C1355 C1352 1.356 . S
C1355 C1357 1.358 . S
C1355 H1397 0.930 . S
C1356 N1353 1.314 . S
C1356 C1354 1.353 . S
C1356 H1398 0.930 . S
C1357 N1353 1.279 . S
C1357 C1355 1.358 . S
C1357 H1399 0.930 . S
C1358 C1359 1.348 . S
C1358 C1360 1.356 . S
C1358 O1383 1.325 . S
C1359 C1358 1.348 . S
C1359 C1361 1.353 . S
C1359 H1400 0.929 . S
C1360 C1358 1.356 . S
C1360 C1362 1.358 . S
C1360 H1401 0.930 . S
C1361 C1359 1.353 . S
C1361 N1363 1.314 . S
C1361 H1402 0.930 . S
C1362 C1360 1.358 . S
C1362 N1363 1.279 . S
C1362 H1403 0.930 . S
N1363 C1361 1.314 . S
N1363 C1362 1.279 . S
C1364 C1366 1.353 . S
C1364 N1367 1.314 . S
C1364 H1370 0.930 . S
C1365 N1367 1.279 . S
C1365 C1368 1.358 . S
C1365 H1371 0.930 . S
C1366 C1364 1.353 . S
C1366 C1369 1.348 . S
C1366 H1404 0.929 . S
N1367 Li1322 1.990 . S
N1367 C1364 1.314 . S
N1367 C1365 1.279 . S
C1368 C1365 1.358 . S
C1368 C1369 1.356 . S
C1368 H1405 0.930 . S
C1369 C1366 1.348 . S
C1369 C1368 1.356 . S
H1370 C1364 0.930 . S
H1371 C1365 0.930 . S
C1372 N1373 1.314 . S
C1372 C1374 1.353 . S
C1372 H1378 0.930 . S
N1373 Li1323 1.990 . S
N1373 C1372 1.314 . S
N1373 C1376 1.279 . S
C1374 C1372 1.353 . S
C1374 C1377 1.348 . S
C1374 H1406 0.929 . S
C1375 C1376 1.358 . S
C1375 C1377 1.356 . S
C1375 H1407 0.930 . S
C1376 N1373 1.279 . S
C1376 C1375 1.358 . S
C1376 H1379 0.930 . S
C1377 C1374 1.348 . S
C1377 C1375 1.356 . S
H1378 C1372 0.930 . S
H1379 C1376 0.930 . S
O1380 Li1320 1.956 . S
O1380 Li1321 1.970 . S
O1380 Li1322 1.961 . S
O1380 C1324 1.325 . S
O1381 Li1320 1.970 . S
O1381 Li1321 1.956 . S
O1381 Li1323 1.961 . S
O1381 C1330 1.325 . S
O1382 Li1320 1.961 . S
O1382 Li1322 1.956 . S
O1382 Li1323 1.970 . S
O1382 C1352 1.325 . S
O1383 Li1321 1.961 . S
O1383 Li1322 1.970 . S
O1383 Li1323 1.956 . S
O1383 C1358 1.325 . S
H1384 C1326 0.929 . S
H1385 C1327 0.930 . S
H1386 C1328 0.930 . S
H1387 C1329 0.930 . S
H1388 C1331 0.930 . S
H1389 C1333 0.929 . S
H1390 C1334 0.930 . S
H1391 C1335 0.930 . S
H1392 C1338 0.930 . S
H1393 C1341 0.929 . S
H1394 C1346 0.929 . S
H1395 C1347 0.930 . S
H1396 C1354 0.929 . S
H1397 C1355 0.930 . S
H1398 C1356 0.930 . S
H1399 C1357 0.930 . S
H1400 C1359 0.929 . S
H1401 C1360 0.930 . S
H1402 C1361 0.930 . S
H1403 C1362 0.930 . S
H1404 C1366 0.929 . S
H1405 C1368 0.930 . S
H1406 C1374 0.929 . S
H1407 C1375 0.930 . S
C1408 C1409 1.349 . S
C1408 C1410 1.327 . S
C1408 H1433 0.950 . S
C1409 C1408 1.349 . S
C1409 C1425 1.349 . S
C1410 C1408 1.327 . S
C1410 C1429 1.429 . S
C1410 H1434 0.950 . S
C1411 C1428 1.574 . S
C1411 C1430 1.368 . S
C1411 H1435 0.949 . S
H1412 C1416 0.949 . S
C1413 C1414 1.349 . S
C1413 C1415 1.327 . S
C1413 H1436 0.950 . S
C1414 C1413 1.349 . S
C1414 C1426 1.349 . S
C1415 C1413 1.327 . S
C1415 C1431 1.429 . S
C1415 H1437 0.950 . S
C1416 H1412 0.949 . S
C1416 C1424 1.574 . S
C1416 C1432 1.368 . S
H1417 C1425 0.950 . S
H1418 C1423 0.950 . S
H1419 C1424 0.949 . S
H1420 C1426 0.950 . S
H1421 C1427 0.950 . S
H1422 C1428 0.949 . S
C1423 H1418 0.950 . S
C1423 C1425 1.327 . S
C1423 C1429 1.429 . S
C1424 C1416 1.574 . S
C1424 H1419 0.949 . S
C1424 C1430 1.368 . S
C1425 C1409 1.349 . S
C1425 H1417 0.950 . S
C1425 C1423 1.327 . S
C1426 C1414 1.349 . S
C1426 H1420 0.950 . S
C1426 C1427 1.327 . S
C1427 H1421 0.950 . S
C1427 C1426 1.327 . S
C1427 C1431 1.429 . S
C1428 C1411 1.574 . S
C1428 H1422 0.949 . S
C1428 C1432 1.368 . S
C1429 C1410 1.429 . S
C1429 C1423 1.429 . S
C1429 C1430 1.523 . S
C1430 C1411 1.368 . S
C1430 C1424 1.368 . S
C1430 C1429 1.523 . S
C1431 C1415 1.429 . S
C1431 C1427 1.429 . S
C1431 C1432 1.523 . S
C1432 C1416 1.368 . S
C1432 C1428 1.368 . S
C1432 C1431 1.523 . S
H1433 C1408 0.950 . S
H1434 C1410 0.950 . S
H1435 C1411 0.949 . S
H1436 C1413 0.950 . S
H1437 C1415 0.950 . S
C1438 C1439 1.349 . S
C1438 C1440 1.327 . S
C1438 H1463 0.950 . S
C1439 C1438 1.349 . S
C1439 C1455 1.349 . S
C1440 C1438 1.327 . S
C1440 C1459 1.429 . S
C1440 H1464 0.950 . S
C1441 C1458 1.574 . S
C1441 C1460 1.368 . S
C1441 H1465 0.949 . S
H1442 C1446 0.949 . S
C1443 C1444 1.349 . S
C1443 C1445 1.327 . S
C1443 H1466 0.950 . S
C1444 C1443 1.349 . S
C1444 C1456 1.349 . S
C1445 C1443 1.327 . S
C1445 C1461 1.429 . S
C1445 H1467 0.950 . S
C1446 H1442 0.949 . S
C1446 C1454 1.574 . S
C1446 C1462 1.368 . S
H1447 C1455 0.950 . S
H1448 C1453 0.950 . S
H1449 C1454 0.949 . S
H1450 C1456 0.950 . S
H1451 C1457 0.950 . S
H1452 C1458 0.949 . S
C1453 H1448 0.950 . S
C1453 C1455 1.327 . S
C1453 C1459 1.429 . S
C1454 C1446 1.574 . S
C1454 H1449 0.949 . S
C1454 C1460 1.368 . S
C1455 C1439 1.349 . S
C1455 H1447 0.950 . S
C1455 C1453 1.327 . S
C1456 C1444 1.349 . S
C1456 H1450 0.950 . S
C1456 C1457 1.327 . S
C1457 H1451 0.950 . S
C1457 C1456 1.327 . S
C1457 C1461 1.429 . S
C1458 C1441 1.574 . S
C1458 H1452 0.949 . S
C1458 C1462 1.368 . S
C1459 C1440 1.429 . S
C1459 C1453 1.429 . S
C1459 C1460 1.523 . S
C1460 C1441 1.368 . S
C1460 C1454 1.368 . S
C1460 C1459 1.523 . S
C1461 C1445 1.429 . S
C1461 C1457 1.429 . S
C1461 C1462 1.523 . S
C1462 C1446 1.368 . S
C1462 C1458 1.368 . S
C1462 C1461 1.523 . S
H1463 C1438 0.950 . S
H1464 C1440 0.950 . S
H1465 C1441 0.949 . S
H1466 C1443 0.950 . S
H1467 C1445 0.950 . S
C1468 C1469 1.349 . S
C1468 C1470 1.327 . S
C1468 H1493 0.950 . S
C1469 C1468 1.349 . S
C1469 C1485 1.349 . S
C1470 C1468 1.327 . S
C1470 C1489 1.429 . S
C1470 H1494 0.950 . S
C1471 C1488 1.574 . S
C1471 C1490 1.368 . S
C1471 H1495 0.949 . S
H1472 C1476 0.949 . S
C1473 C1474 1.349 . S
C1473 C1475 1.327 . S
C1473 H1496 0.950 . S
C1474 C1473 1.349 . S
C1474 C1486 1.349 . S
C1475 C1473 1.327 . S
C1475 C1491 1.429 . S
C1475 H1497 0.950 . S
C1476 H1472 0.949 . S
C1476 C1484 1.574 . S
C1476 C1492 1.368 . S
H1477 C1485 0.950 . S
H1478 C1483 0.950 . S
H1479 C1484 0.949 . S
H1480 C1486 0.950 . S
H1481 C1487 0.950 . S
H1482 C1488 0.949 . S
C1483 H1478 0.950 . S
C1483 C1485 1.327 . S
C1483 C1489 1.429 . S
C1484 C1476 1.574 . S
C1484 H1479 0.949 . S
C1484 C1490 1.368 . S
C1485 C1469 1.349 . S
C1485 H1477 0.950 . S
C1485 C1483 1.327 . S
C1486 C1474 1.349 . S
C1486 H1480 0.950 . S
C1486 C1487 1.327 . S
C1487 H1481 0.950 . S
C1487 C1486 1.327 . S
C1487 C1491 1.429 . S
C1488 C1471 1.574 . S
C1488 H1482 0.949 . S
C1488 C1492 1.368 . S
C1489 C1470 1.429 . S
C1489 C1483 1.429 . S
C1489 C1490 1.523 . S
C1490 C1471 1.368 . S
C1490 C1484 1.368 . S
C1490 C1489 1.523 . S
C1491 C1475 1.429 . S
C1491 C1487 1.429 . S
C1491 C1492 1.523 . S
C1492 C1476 1.368 . S
C1492 C1488 1.368 . S
C1492 C1491 1.523 . S
H1493 C1468 0.950 . S
H1494 C1470 0.950 . S
H1495 C1471 0.949 . S
H1496 C1473 0.950 . S
H1497 C1475 0.950 . S
C1498 C1499 1.349 . S
C1498 C1500 1.327 . S
C1498 H1523 0.950 . S
C1499 C1498 1.349 . S
C1499 C1515 1.349 . S
C1500 C1498 1.327 . S
C1500 C1519 1.429 . S
C1500 H1524 0.950 . S
C1501 C1518 1.574 1_455 S
C1501 C1520 1.368 . S
C1501 H1525 0.949 . S
H1502 C1506 0.949 . S
C1503 C1504 1.349 . S
C1503 C1505 1.327 . S
C1503 H1526 0.950 . S
C1504 C1503 1.349 . S
C1504 C1516 1.349 . S
C1505 C1503 1.327 . S
C1505 C1521 1.429 . S
C1505 H1527 0.950 . S
C1506 H1502 0.949 . S
C1506 C1514 1.574 1_655 S
C1506 C1522 1.368 . S
H1507 C1515 0.950 . S
H1508 C1513 0.950 . S
H1509 C1514 0.949 . S
H1510 C1516 0.950 . S
H1511 C1517 0.950 . S
H1512 C1518 0.949 . S
C1513 H1508 0.950 . S
C1513 C1515 1.327 . S
C1513 C1519 1.429 . S
C1514 C1506 1.574 1_455 S
C1514 H1509 0.949 . S
C1514 C1520 1.368 . S
C1515 C1499 1.349 . S
C1515 H1507 0.950 . S
C1515 C1513 1.327 . S
C1516 C1504 1.349 . S
C1516 H1510 0.950 . S
C1516 C1517 1.327 . S
C1517 H1511 0.950 . S
C1517 C1516 1.327 . S
C1517 C1521 1.429 . S
C1518 C1501 1.574 1_655 S
C1518 H1512 0.949 . S
C1518 C1522 1.368 . S
C1519 C1500 1.429 . S
C1519 C1513 1.429 . S
C1519 C1520 1.523 . S
C1520 C1501 1.368 . S
C1520 C1514 1.368 . S
C1520 C1519 1.523 . S
C1521 C1505 1.429 . S
C1521 C1517 1.429 . S
C1521 C1522 1.523 . S
C1522 C1506 1.368 . S
C1522 C1518 1.368 . S
C1522 C1521 1.523 . S
H1523 C1498 0.950 . S
H1524 C1500 0.950 . S
H1525 C1501 0.949 . S
H1526 C1503 0.950 . S
H1527 C1505 0.950 . S
C1528 C1529 1.349 . S
C1528 C1530 1.327 . S
C1528 H1553 0.950 . S
C1529 C1528 1.349 . S
C1529 C1545 1.349 . S
C1530 C1528 1.327 . S
C1530 C1549 1.429 . S
C1530 H1554 0.950 . S
C1531 C1548 1.574 . S
C1531 C1550 1.368 . S
C1531 H1555 0.949 . S
H1532 C1536 0.949 . S
C1533 C1534 1.349 . S
C1533 C1535 1.327 . S
C1533 H1556 0.950 . S
C1534 C1533 1.349 . S
C1534 C1546 1.349 . S
C1535 C1533 1.327 . S
C1535 C1551 1.429 . S
C1535 H1557 0.950 . S
C1536 H1532 0.949 . S
C1536 C1544 1.574 . S
C1536 C1552 1.368 . S
H1537 C1545 0.950 . S
H1538 C1543 0.950 . S
H1539 C1544 0.949 . S
H1540 C1546 0.950 . S
H1541 C1547 0.950 . S
H1542 C1548 0.949 . S
C1543 H1538 0.950 . S
C1543 C1545 1.327 . S
C1543 C1549 1.429 . S
C1544 C1536 1.574 . S
C1544 H1539 0.949 . S
C1544 C1550 1.368 . S
C1545 C1529 1.349 . S
C1545 H1537 0.950 . S
C1545 C1543 1.327 . S
C1546 C1534 1.349 . S
C1546 H1540 0.950 . S
C1546 C1547 1.327 . S
C1547 H1541 0.950 . S
C1547 C1546 1.327 . S
C1547 C1551 1.429 . S
C1548 C1531 1.574 . S
C1548 H1542 0.949 . S
C1548 C1552 1.368 . S
C1549 C1530 1.429 . S
C1549 C1543 1.429 . S
C1549 C1550 1.523 . S
C1550 C1531 1.368 . S
C1550 C1544 1.368 . S
C1550 C1549 1.523 . S
C1551 C1535 1.429 . S
C1551 C1547 1.429 . S
C1551 C1552 1.523 . S
C1552 C1536 1.368 . S
C1552 C1548 1.368 . S
C1552 C1551 1.523 . S
H1553 C1528 0.950 . S
H1554 C1530 0.950 . S
H1555 C1531 0.949 . S
H1556 C1533 0.950 . S
H1557 C1535 0.950 . S
C1558 C1559 1.349 . S
C1558 C1560 1.327 . S
C1558 H1583 0.950 . S
C1559 C1558 1.349 . S
C1559 C1575 1.349 . S
C1560 C1558 1.327 . S
C1560 C1579 1.429 . S
C1560 H1584 0.950 . S
C1561 C1578 1.574 1_655 S
C1561 C1580 1.368 . S
C1561 H1585 0.949 . S
H1562 C1566 0.949 . S
C1563 C1564 1.349 . S
C1563 C1565 1.327 . S
C1563 H1586 0.950 . S
C1564 C1563 1.349 . S
C1564 C1576 1.349 . S
C1565 C1563 1.327 . S
C1565 C1581 1.429 . S
C1565 H1587 0.950 . S
C1566 H1562 0.949 . S
C1566 C1574 1.574 1_455 S
C1566 C1582 1.368 . S
H1567 C1575 0.950 . S
H1568 C1573 0.950 . S
H1569 C1574 0.949 . S
H1570 C1576 0.950 . S
H1571 C1577 0.950 . S
H1572 C1578 0.949 . S
C1573 H1568 0.950 . S
C1573 C1575 1.327 . S
C1573 C1579 1.429 . S
C1574 C1566 1.574 1_655 S
C1574 H1569 0.949 . S
C1574 C1580 1.368 . S
C1575 C1559 1.349 . S
C1575 H1567 0.950 . S
C1575 C1573 1.327 . S
C1576 C1564 1.349 . S
C1576 H1570 0.950 . S
C1576 C1577 1.327 . S
C1577 H1571 0.950 . S
C1577 C1576 1.327 . S
C1577 C1581 1.429 . S
C1578 C1561 1.574 1_455 S
C1578 H1572 0.949 . S
C1578 C1582 1.368 . S
C1579 C1560 1.429 . S
C1579 C1573 1.429 . S
C1579 C1580 1.523 . S
C1580 C1561 1.368 . S
C1580 C1574 1.368 . S
C1580 C1579 1.523 . S
C1581 C1565 1.429 . S
C1581 C1577 1.429 . S
C1581 C1582 1.523 . S
C1582 C1566 1.368 . S
C1582 C1578 1.368 . S
C1582 C1581 1.523 . S
H1583 C1558 0.950 . S
H1584 C1560 0.950 . S
H1585 C1561 0.949 . S
H1586 C1563 0.950 . S
H1587 C1565 0.950 . S
C1588 C1589 1.349 . S
C1588 C1590 1.327 . S
C1588 H1613 0.950 . S
C1589 C1588 1.349 . S
C1589 C1605 1.349 . S
C1590 C1588 1.327 . S
C1590 C1609 1.429 . S
C1590 H1614 0.950 . S
C1591 C1608 1.574 . S
C1591 C1610 1.368 . S
C1591 H1615 0.949 . S
H1592 C1596 0.949 . S
C1593 C1594 1.349 . S
C1593 C1595 1.327 . S
C1593 H1616 0.950 . S
C1594 C1593 1.349 . S
C1594 C1606 1.349 . S
C1595 C1593 1.327 . S
C1595 C1611 1.429 . S
C1595 H1617 0.950 . S
C1596 H1592 0.949 . S
C1596 C1604 1.574 . S
C1596 C1612 1.368 . S
H1597 C1605 0.950 . S
H1598 C1603 0.950 . S
H1599 C1604 0.949 . S
H1600 C1606 0.950 . S
H1601 C1607 0.950 . S
H1602 C1608 0.949 . S
C1603 H1598 0.950 . S
C1603 C1605 1.327 . S
C1603 C1609 1.429 . S
C1604 C1596 1.574 . S
C1604 H1599 0.949 . S
C1604 C1610 1.368 . S
C1605 C1589 1.349 . S
C1605 H1597 0.950 . S
C1605 C1603 1.327 . S
C1606 C1594 1.349 . S
C1606 H1600 0.950 . S
C1606 C1607 1.327 . S
C1607 H1601 0.950 . S
C1607 C1606 1.327 . S
C1607 C1611 1.429 . S
C1608 C1591 1.574 . S
C1608 H1602 0.949 . S
C1608 C1612 1.368 . S
C1609 C1590 1.429 . S
C1609 C1603 1.429 . S
C1609 C1610 1.523 . S
C1610 C1591 1.368 . S
C1610 C1604 1.368 . S
C1610 C1609 1.523 . S
C1611 C1595 1.429 . S
C1611 C1607 1.429 . S
C1611 C1612 1.523 . S
C1612 C1596 1.368 . S
C1612 C1608 1.368 . S
C1612 C1611 1.523 . S
H1613 C1588 0.950 . S
H1614 C1590 0.950 . S
H1615 C1591 0.949 . S
H1616 C1593 0.950 . S
H1617 C1595 0.950 . S
C1618 C1619 1.349 . S
C1618 C1620 1.327 . S
C1618 H1643 0.950 . S
C1619 C1618 1.349 . S
C1619 C1635 1.349 . S
C1620 C1618 1.327 . S
C1620 C1639 1.429 . S
C1620 H1644 0.950 . S
C1621 C1638 1.574 . S
C1621 C1640 1.368 . S
C1621 H1645 0.949 . S
H1622 C1626 0.949 . S
C1623 C1624 1.349 . S
C1623 C1625 1.327 . S
C1623 H1646 0.950 . S
C1624 C1623 1.349 . S
C1624 C1636 1.349 . S
C1625 C1623 1.327 . S
C1625 C1641 1.429 . S
C1625 H1647 0.950 . S
C1626 H1622 0.949 . S
C1626 C1634 1.574 . S
C1626 C1642 1.368 . S
H1627 C1635 0.950 . S
H1628 C1633 0.950 . S
H1629 C1634 0.949 . S
H1630 C1636 0.950 . S
H1631 C1637 0.950 . S
H1632 C1638 0.949 . S
C1633 H1628 0.950 . S
C1633 C1635 1.327 . S
C1633 C1639 1.429 . S
C1634 C1626 1.574 . S
C1634 H1629 0.949 . S
C1634 C1640 1.368 . S
C1635 C1619 1.349 . S
C1635 H1627 0.950 . S
C1635 C1633 1.327 . S
C1636 C1624 1.349 . S
C1636 H1630 0.950 . S
C1636 C1637 1.327 . S
C1637 H1631 0.950 . S
C1637 C1636 1.327 . S
C1637 C1641 1.429 . S
C1638 C1621 1.574 . S
C1638 H1632 0.949 . S
C1638 C1642 1.368 . S
C1639 C1620 1.429 . S
C1639 C1633 1.429 . S
C1639 C1640 1.523 . S
C1640 C1621 1.368 . S
C1640 C1634 1.368 . S
C1640 C1639 1.523 . S
C1641 C1625 1.429 . S
C1641 C1637 1.429 . S
C1641 C1642 1.523 . S
C1642 C1626 1.368 . S
C1642 C1638 1.368 . S
C1642 C1641 1.523 . S
H1643 C1618 0.950 . S
H1644 C1620 0.950 . S
H1645 C1621 0.949 . S
H1646 C1623 0.950 . S
H1647 C1625 0.950 . S
C1648 C1649 1.349 . S
C1648 C1650 1.327 . S
C1648 H1673 0.950 . S
C1649 C1648 1.349 . S
C1649 C1665 1.349 . S
C1650 C1648 1.327 . S
C1650 C1669 1.429 . S
C1650 H1674 0.950 . S
C1651 C1668 1.574 . S
C1651 C1670 1.368 . S
C1651 H1675 0.949 . S
H1652 C1656 0.949 . S
C1653 C1654 1.349 . S
C1653 C1655 1.327 . S
C1653 H1676 0.950 . S
C1654 C1653 1.349 . S
C1654 C1666 1.349 . S
C1655 C1653 1.327 . S
C1655 C1671 1.429 . S
C1655 H1677 0.950 . S
C1656 H1652 0.949 . S
C1656 C1664 1.574 . S
C1656 C1672 1.368 . S
H1657 C1665 0.950 . S
H1658 C1663 0.950 . S
H1659 C1664 0.949 . S
H1660 C1666 0.950 . S
H1661 C1667 0.950 . S
H1662 C1668 0.949 . S
C1663 H1658 0.950 . S
C1663 C1665 1.327 . S
C1663 C1669 1.429 . S
C1664 C1656 1.574 . S
C1664 H1659 0.949 . S
C1664 C1670 1.368 . S
C1665 C1649 1.349 . S
C1665 H1657 0.950 . S
C1665 C1663 1.327 . S
C1666 C1654 1.349 . S
C1666 H1660 0.950 . S
C1666 C1667 1.327 . S
C1667 H1661 0.950 . S
C1667 C1666 1.327 . S
C1667 C1671 1.429 . S
C1668 C1651 1.574 . S
C1668 H1662 0.949 . S
C1668 C1672 1.368 . S
C1669 C1650 1.429 . S
C1669 C1663 1.429 . S
C1669 C1670 1.523 . S
C1670 C1651 1.368 . S
C1670 C1664 1.368 . S
C1670 C1669 1.523 . S
C1671 C1655 1.429 . S
C1671 C1667 1.429 . S
C1671 C1672 1.523 . S
C1672 C1656 1.368 . S
C1672 C1668 1.368 . S
C1672 C1671 1.523 . S
H1673 C1648 0.950 . S
H1674 C1650 0.950 . S
H1675 C1651 0.949 . S
H1676 C1653 0.950 . S
H1677 C1655 0.950 . S
C1678 C1679 1.349 . S
C1678 C1680 1.327 . S
C1678 H1703 0.950 . S
C1679 C1678 1.349 . S
C1679 C1695 1.349 . S
C1680 C1678 1.327 . S
C1680 C1699 1.429 . S
C1680 H1704 0.950 . S
C1681 C1698 1.574 . S
C1681 C1700 1.368 . S
C1681 H1705 0.949 . S
H1682 C1686 0.949 . S
C1683 C1684 1.349 . S
C1683 C1685 1.327 . S
C1683 H1706 0.950 . S
C1684 C1683 1.349 . S
C1684 C1696 1.349 . S
C1685 C1683 1.327 . S
C1685 C1701 1.429 . S
C1685 H1707 0.950 . S
C1686 H1682 0.949 . S
C1686 C1694 1.574 . S
C1686 C1702 1.368 . S
H1687 C1695 0.950 . S
H1688 C1693 0.950 . S
H1689 C1694 0.949 . S
H1690 C1696 0.950 . S
H1691 C1697 0.950 . S
H1692 C1698 0.949 . S
C1693 H1688 0.950 . S
C1693 C1695 1.327 . S
C1693 C1699 1.429 . S
C1694 C1686 1.574 . S
C1694 H1689 0.949 . S
C1694 C1700 1.368 . S
C1695 C1679 1.349 . S
C1695 H1687 0.950 . S
C1695 C1693 1.327 . S
C1696 C1684 1.349 . S
C1696 H1690 0.950 . S
C1696 C1697 1.327 . S
C1697 H1691 0.950 . S
C1697 C1696 1.327 . S
C1697 C1701 1.429 . S
C1698 C1681 1.574 . S
C1698 H1692 0.949 . S
C1698 C1702 1.368 . S
C1699 C1680 1.429 . S
C1699 C1693 1.429 . S
C1699 C1700 1.523 . S
C1700 C1681 1.368 . S
C1700 C1694 1.368 . S
C1700 C1699 1.523 . S
C1701 C1685 1.429 . S
C1701 C1697 1.429 . S
C1701 C1702 1.523 . S
C1702 C1686 1.368 . S
C1702 C1698 1.368 . S
C1702 C1701 1.523 . S
H1703 C1678 0.950 . S
H1704 C1680 0.950 . S
H1705 C1681 0.949 . S
H1706 C1683 0.950 . S
H1707 C1685 0.950 . S
C1708 C1709 1.349 . S
C1708 C1710 1.327 . S
C1708 H1733 0.950 . S
C1709 C1708 1.349 . S
C1709 C1725 1.349 . S
C1710 C1708 1.327 . S
C1710 C1729 1.429 . S
C1710 H1734 0.950 . S
C1711 C1728 1.574 . S
C1711 C1730 1.368 . S
C1711 H1735 0.949 . S
H1712 C1716 0.949 . S
C1713 C1714 1.349 . S
C1713 C1715 1.327 . S
C1713 H1736 0.950 . S
C1714 C1713 1.349 . S
C1714 C1726 1.349 . S
C1715 C1713 1.327 . S
C1715 C1731 1.429 . S
C1715 H1737 0.950 . S
C1716 H1712 0.949 . S
C1716 C1724 1.574 . S
C1716 C1732 1.368 . S
H1717 C1725 0.950 . S
H1718 C1723 0.950 . S
H1719 C1724 0.949 . S
H1720 C1726 0.950 . S
H1721 C1727 0.950 . S
H1722 C1728 0.949 . S
C1723 H1718 0.950 . S
C1723 C1725 1.327 . S
C1723 C1729 1.429 . S
C1724 C1716 1.574 . S
C1724 H1719 0.949 . S
C1724 C1730 1.368 . S
C1725 C1709 1.349 . S
C1725 H1717 0.950 . S
C1725 C1723 1.327 . S
C1726 C1714 1.349 . S
C1726 H1720 0.950 . S
C1726 C1727 1.327 . S
C1727 H1721 0.950 . S
C1727 C1726 1.327 . S
C1727 C1731 1.429 . S
C1728 C1711 1.574 . S
C1728 H1722 0.949 . S
C1728 C1732 1.368 . S
C1729 C1710 1.429 . S
C1729 C1723 1.429 . S
C1729 C1730 1.523 . S
C1730 C1711 1.368 . S
C1730 C1724 1.368 . S
C1730 C1729 1.523 . S
C1731 C1715 1.429 . S
C1731 C1727 1.429 . S
C1731 C1732 1.523 . S
C1732 C1716 1.368 . S
C1732 C1728 1.368 . S
C1732 C1731 1.523 . S
H1733 C1708 0.950 . S
H1734 C1710 0.950 . S
H1735 C1711 0.949 . S
H1736 C1713 0.950 . S
H1737 C1715 0.950 . S
C1738 C1739 1.349 . S
C1738 C1740 1.327 . S
C1738 H1763 0.950 . S
C1739 C1738 1.349 . S
C1739 C1755 1.349 . S
C1740 C1738 1.327 . S
C1740 C1759 1.429 . S
C1740 H1764 0.950 . S
C1741 C1758 1.574 . S
C1741 C1760 1.368 . S
C1741 H1765 0.949 . S
H1742 C1746 0.949 . S
C1743 C1744 1.349 . S
C1743 C1745 1.327 . S
C1743 H1766 0.950 . S
C1744 C1743 1.349 . S
C1744 C1756 1.349 . S
C1745 C1743 1.327 . S
C1745 C1761 1.429 . S
C1745 H1767 0.950 . S
C1746 H1742 0.949 . S
C1746 C1754 1.574 . S
C1746 C1762 1.368 . S
H1747 C1755 0.950 . S
H1748 C1753 0.950 . S
H1749 C1754 0.949 . S
H1750 C1756 0.950 . S
H1751 C1757 0.950 . S
H1752 C1758 0.949 . S
C1753 H1748 0.950 . S
C1753 C1755 1.327 . S
C1753 C1759 1.429 . S
C1754 C1746 1.574 . S
C1754 H1749 0.949 . S
C1754 C1760 1.368 . S
C1755 C1739 1.349 . S
C1755 H1747 0.950 . S
C1755 C1753 1.327 . S
C1756 C1744 1.349 . S
C1756 H1750 0.950 . S
C1756 C1757 1.327 . S
C1757 H1751 0.950 . S
C1757 C1756 1.327 . S
C1757 C1761 1.429 . S
C1758 C1741 1.574 . S
C1758 H1752 0.949 . S
C1758 C1762 1.368 . S
C1759 C1740 1.429 . S
C1759 C1753 1.429 . S
C1759 C1760 1.523 . S
C1760 C1741 1.368 . S
C1760 C1754 1.368 . S
C1760 C1759 1.523 . S
C1761 C1745 1.429 . S
C1761 C1757 1.429 . S
C1761 C1762 1.523 . S
C1762 C1746 1.368 . S
C1762 C1758 1.368 . S
C1762 C1761 1.523 . S
H1763 C1738 0.950 . S
H1764 C1740 0.950 . S
H1765 C1741 0.949 . S
H1766 C1743 0.950 . S
H1767 C1745 0.950 . S
C1768 C1769 1.349 . S
C1768 C1770 1.327 . S
C1768 H1793 0.950 . S
C1769 C1768 1.349 . S
C1769 C1785 1.349 . S
C1770 C1768 1.327 . S
C1770 C1789 1.429 . S
C1770 H1794 0.950 . S
C1771 C1788 1.574 1_455 S
C1771 C1790 1.368 . S
C1771 H1795 0.949 . S
H1772 C1776 0.949 . S
C1773 C1774 1.349 . S
C1773 C1775 1.327 . S
C1773 H1796 0.950 . S
C1774 C1773 1.349 . S
C1774 C1786 1.349 . S
C1775 C1773 1.327 . S
C1775 C1791 1.429 . S
C1775 H1797 0.950 . S
C1776 H1772 0.949 . S
C1776 C1784 1.574 1_655 S
C1776 C1792 1.368 . S
H1777 C1785 0.950 . S
H1778 C1783 0.950 . S
H1779 C1784 0.949 . S
H1780 C1786 0.950 . S
H1781 C1787 0.950 . S
H1782 C1788 0.949 . S
C1783 H1778 0.950 . S
C1783 C1785 1.327 . S
C1783 C1789 1.429 . S
C1784 C1776 1.574 1_455 S
C1784 H1779 0.949 . S
C1784 C1790 1.368 . S
C1785 C1769 1.349 . S
C1785 H1777 0.950 . S
C1785 C1783 1.327 . S
C1786 C1774 1.349 . S
C1786 H1780 0.950 . S
C1786 C1787 1.327 . S
C1787 H1781 0.950 . S
C1787 C1786 1.327 . S
C1787 C1791 1.429 . S
C1788 C1771 1.574 1_655 S
C1788 H1782 0.949 . S
C1788 C1792 1.368 . S
C1789 C1770 1.429 . S
C1789 C1783 1.429 . S
C1789 C1790 1.523 . S
C1790 C1771 1.368 . S
C1790 C1784 1.368 . S
C1790 C1789 1.523 . S
C1791 C1775 1.429 . S
C1791 C1787 1.429 . S
C1791 C1792 1.523 . S
C1792 C1776 1.368 . S
C1792 C1788 1.368 . S
C1792 C1791 1.523 . S
H1793 C1768 0.950 . S
H1794 C1770 0.950 . S
H1795 C1771 0.949 . S
H1796 C1773 0.950 . S
H1797 C1775 0.950 . S
C1798 C1799 1.349 . S
C1798 C1800 1.327 . S
C1798 H1823 0.950 . S
C1799 C1798 1.349 . S
C1799 C1815 1.349 . S
C1800 C1798 1.327 . S
C1800 C1819 1.429 . S
C1800 H1824 0.950 . S
C1801 C1818 1.574 . S
C1801 C1820 1.368 . S
C1801 H1825 0.949 . S
H1802 C1806 0.949 . S
C1803 C1804 1.349 . S
C1803 C1805 1.327 . S
C1803 H1826 0.950 . S
C1804 C1803 1.349 . S
C1804 C1816 1.349 . S
C1805 C1803 1.327 . S
C1805 C1821 1.429 . S
C1805 H1827 0.950 . S
C1806 H1802 0.949 . S
C1806 C1814 1.574 . S
C1806 C1822 1.368 . S
H1807 C1815 0.950 . S
H1808 C1813 0.950 . S
H1809 C1814 0.949 . S
H1810 C1816 0.950 . S
H1811 C1817 0.950 . S
H1812 C1818 0.949 . S
C1813 H1808 0.950 . S
C1813 C1815 1.327 . S
C1813 C1819 1.429 . S
C1814 C1806 1.574 . S
C1814 H1809 0.949 . S
C1814 C1820 1.368 . S
C1815 C1799 1.349 . S
C1815 H1807 0.950 . S
C1815 C1813 1.327 . S
C1816 C1804 1.349 . S
C1816 H1810 0.950 . S
C1816 C1817 1.327 . S
C1817 H1811 0.950 . S
C1817 C1816 1.327 . S
C1817 C1821 1.429 . S
C1818 C1801 1.574 . S
C1818 H1812 0.949 . S
C1818 C1822 1.368 . S
C1819 C1800 1.429 . S
C1819 C1813 1.429 . S
C1819 C1820 1.523 . S
C1820 C1801 1.368 . S
C1820 C1814 1.368 . S
C1820 C1819 1.523 . S
C1821 C1805 1.429 . S
C1821 C1817 1.429 . S
C1821 C1822 1.523 . S
C1822 C1806 1.368 . S
C1822 C1818 1.368 . S
C1822 C1821 1.523 . S
H1823 C1798 0.950 . S
H1824 C1800 0.950 . S
H1825 C1801 0.949 . S
H1826 C1803 0.950 . S
H1827 C1805 0.950 . S
C1828 C1829 1.349 . S
C1828 C1830 1.327 . S
C1828 H1853 0.950 . S
C1829 C1828 1.349 . S
C1829 C1845 1.349 . S
C1830 C1828 1.327 . S
C1830 C1849 1.429 . S
C1830 H1854 0.950 . S
C1831 C1848 1.574 . S
C1831 C1850 1.368 . S
C1831 H1855 0.949 . S
H1832 C1836 0.949 . S
C1833 C1834 1.349 . S
C1833 C1835 1.327 . S
C1833 H1856 0.950 . S
C1834 C1833 1.349 . S
C1834 C1846 1.349 . S
C1835 C1833 1.327 . S
C1835 C1851 1.429 . S
C1835 H1857 0.950 . S
C1836 H1832 0.949 . S
C1836 C1844 1.574 . S
C1836 C1852 1.368 . S
H1837 C1845 0.950 . S
H1838 C1843 0.950 . S
H1839 C1844 0.949 . S
H1840 C1846 0.950 . S
H1841 C1847 0.950 . S
H1842 C1848 0.949 . S
C1843 H1838 0.950 . S
C1843 C1845 1.327 . S
C1843 C1849 1.429 . S
C1844 C1836 1.574 . S
C1844 H1839 0.949 . S
C1844 C1850 1.368 . S
C1845 C1829 1.349 . S
C1845 H1837 0.950 . S
C1845 C1843 1.327 . S
C1846 C1834 1.349 . S
C1846 H1840 0.950 . S
C1846 C1847 1.327 . S
C1847 H1841 0.950 . S
C1847 C1846 1.327 . S
C1847 C1851 1.429 . S
C1848 C1831 1.574 . S
C1848 H1842 0.949 . S
C1848 C1852 1.368 . S
C1849 C1830 1.429 . S
C1849 C1843 1.429 . S
C1849 C1850 1.523 . S
C1850 C1831 1.368 . S
C1850 C1844 1.368 . S
C1850 C1849 1.523 . S
C1851 C1835 1.429 . S
C1851 C1847 1.429 . S
C1851 C1852 1.523 . S
C1852 C1836 1.368 . S
C1852 C1848 1.368 . S
C1852 C1851 1.523 . S
H1853 C1828 0.950 . S
H1854 C1830 0.950 . S
H1855 C1831 0.949 . S
H1856 C1833 0.950 . S
H1857 C1835 0.950 . S
C1858 C1859 1.349 . S
C1858 C1860 1.327 . S
C1858 H1883 0.950 . S
C1859 C1858 1.349 . S
C1859 C1875 1.349 . S
C1860 C1858 1.327 . S
C1860 C1879 1.429 . S
C1860 H1884 0.950 . S
C1861 C1878 1.574 1_455 S
C1861 C1880 1.368 . S
C1861 H1885 0.949 . S
H1862 C1866 0.949 . S
C1863 C1864 1.349 . S
C1863 C1865 1.327 . S
C1863 H1886 0.950 . S
C1864 C1863 1.349 . S
C1864 C1876 1.349 . S
C1865 C1863 1.327 . S
C1865 C1881 1.429 . S
C1865 H1887 0.950 . S
C1866 H1862 0.949 . S
C1866 C1874 1.574 1_655 S
C1866 C1882 1.368 . S
H1867 C1875 0.950 . S
H1868 C1873 0.950 . S
H1869 C1874 0.949 . S
H1870 C1876 0.950 . S
H1871 C1877 0.950 . S
H1872 C1878 0.949 . S
C1873 H1868 0.950 . S
C1873 C1875 1.327 . S
C1873 C1879 1.429 . S
C1874 C1866 1.574 1_455 S
C1874 H1869 0.949 . S
C1874 C1880 1.368 . S
C1875 C1859 1.349 . S
C1875 H1867 0.950 . S
C1875 C1873 1.327 . S
C1876 C1864 1.349 . S
C1876 H1870 0.950 . S
C1876 C1877 1.327 . S
C1877 H1871 0.950 . S
C1877 C1876 1.327 . S
C1877 C1881 1.429 . S
C1878 C1861 1.574 1_655 S
C1878 H1872 0.949 . S
C1878 C1882 1.368 . S
C1879 C1860 1.429 . S
C1879 C1873 1.429 . S
C1879 C1880 1.523 . S
C1880 C1861 1.368 . S
C1880 C1874 1.368 . S
C1880 C1879 1.523 . S
C1881 C1865 1.429 . S
C1881 C1877 1.429 . S
C1881 C1882 1.523 . S
C1882 C1866 1.368 . S
C1882 C1878 1.368 . S
C1882 C1881 1.523 . S
H1883 C1858 0.950 . S
H1884 C1860 0.950 . S
H1885 C1861 0.949 . S
H1886 C1863 0.950 . S
H1887 C1865 0.950 . S
C1888 C1889 1.349 . S
C1888 C1890 1.327 . S
C1888 H1913 0.950 . S
C1889 C1888 1.349 . S
C1889 C1905 1.349 . S
C1890 C1888 1.327 . S
C1890 C1909 1.429 . S
C1890 H1914 0.950 . S
C1891 C1908 1.574 1_554 S
C1891 C1910 1.368 . S
C1891 H1915 0.949 . S
H1892 C1896 0.949 . S
C1893 C1894 1.349 . S
C1893 C1895 1.327 . S
C1893 H1916 0.950 . S
C1894 C1893 1.349 . S
C1894 C1906 1.349 . S
C1895 C1893 1.327 . S
C1895 C1911 1.429 . S
C1895 H1917 0.950 . S
C1896 H1892 0.949 . S
C1896 C1904 1.574 1_556 S
C1896 C1912 1.368 . S
H1897 C1905 0.950 . S
H1898 C1903 0.950 . S
H1899 C1904 0.949 . S
H1900 C1906 0.950 . S
H1901 C1907 0.950 . S
H1902 C1908 0.949 . S
C1903 H1898 0.950 . S
C1903 C1905 1.327 . S
C1903 C1909 1.429 . S
C1904 C1896 1.574 1_554 S
C1904 H1899 0.949 . S
C1904 C1910 1.368 . S
C1905 C1889 1.349 . S
C1905 H1897 0.950 . S
C1905 C1903 1.327 . S
C1906 C1894 1.349 . S
C1906 H1900 0.950 . S
C1906 C1907 1.327 . S
C1907 H1901 0.950 . S
C1907 C1906 1.327 . S
C1907 C1911 1.429 . S
C1908 C1891 1.574 1_556 S
C1908 H1902 0.949 . S
C1908 C1912 1.368 . S
C1909 C1890 1.429 . S
C1909 C1903 1.429 . S
C1909 C1910 1.523 . S
C1910 C1891 1.368 . S
C1910 C1904 1.368 . S
C1910 C1909 1.523 . S
C1911 C1895 1.429 . S
C1911 C1907 1.429 . S
C1911 C1912 1.523 . S
C1912 C1896 1.368 . S
C1912 C1908 1.368 . S
C1912 C1911 1.523 . S
H1913 C1888 0.950 . S
H1914 C1890 0.950 . S
H1915 C1891 0.949 . S
H1916 C1893 0.950 . S
H1917 C1895 0.950 . S
C1918 C1919 1.349 . S
C1918 C1920 1.327 . S
C1918 H1943 0.950 . S
C1919 C1918 1.349 . S
C1919 C1935 1.349 . S
C1920 C1918 1.327 . S
C1920 C1939 1.429 . S
C1920 H1944 0.950 . S
C1921 C1938 1.574 . S
C1921 C1940 1.368 . S
C1921 H1945 0.949 . S
H1922 C1926 0.949 . S
C1923 C1924 1.349 . S
C1923 C1925 1.327 . S
C1923 H1946 0.950 . S
C1924 C1923 1.349 . S
C1924 C1936 1.349 . S
C1925 C1923 1.327 . S
C1925 C1941 1.429 . S
C1925 H1947 0.950 . S
C1926 H1922 0.949 . S
C1926 C1934 1.574 . S
C1926 C1942 1.368 . S
H1927 C1935 0.950 . S
H1928 C1933 0.950 . S
H1929 C1934 0.949 . S
H1930 C1936 0.950 . S
H1931 C1937 0.950 . S
H1932 C1938 0.949 . S
C1933 H1928 0.950 . S
C1933 C1935 1.327 . S
C1933 C1939 1.429 . S
C1934 C1926 1.574 . S
C1934 H1929 0.949 . S
C1934 C1940 1.368 . S
C1935 C1919 1.349 . S
C1935 H1927 0.950 . S
C1935 C1933 1.327 . S
C1936 C1924 1.349 . S
C1936 H1930 0.950 . S
C1936 C1937 1.327 . S
C1937 H1931 0.950 . S
C1937 C1936 1.327 . S
C1937 C1941 1.429 . S
C1938 C1921 1.574 . S
C1938 H1932 0.949 . S
C1938 C1942 1.368 . S
C1939 C1920 1.429 . S
C1939 C1933 1.429 . S
C1939 C1940 1.523 . S
C1940 C1921 1.368 . S
C1940 C1934 1.368 . S
C1940 C1939 1.523 . S
C1941 C1925 1.429 . S
C1941 C1937 1.429 . S
C1941 C1942 1.523 . S
C1942 C1926 1.368 . S
C1942 C1938 1.368 . S
C1942 C1941 1.523 . S
H1943 C1918 0.950 . S
H1944 C1920 0.950 . S
H1945 C1921 0.949 . S
H1946 C1923 0.950 . S
H1947 C1925 0.950 . S
C1948 C1949 1.349 . S
C1948 C1950 1.327 . S
C1948 H1973 0.950 . S
C1949 C1948 1.349 . S
C1949 C1965 1.349 . S
C1950 C1948 1.327 . S
C1950 C1969 1.429 . S
C1950 H1974 0.950 . S
C1951 C1968 1.574 . S
C1951 C1970 1.368 . S
C1951 H1975 0.949 . S
H1952 C1956 0.949 . S
C1953 C1954 1.349 . S
C1953 C1955 1.327 . S
C1953 H1976 0.950 . S
C1954 C1953 1.349 . S
C1954 C1966 1.349 . S
C1955 C1953 1.327 . S
C1955 C1971 1.429 . S
C1955 H1977 0.950 . S
C1956 H1952 0.949 . S
C1956 C1964 1.574 . S
C1956 C1972 1.368 . S
H1957 C1965 0.950 . S
H1958 C1963 0.950 . S
H1959 C1964 0.949 . S
H1960 C1966 0.950 . S
H1961 C1967 0.950 . S
H1962 C1968 0.949 . S
C1963 H1958 0.950 . S
C1963 C1965 1.327 . S
C1963 C1969 1.429 . S
C1964 C1956 1.574 . S
C1964 H1959 0.949 . S
C1964 C1970 1.368 . S
C1965 C1949 1.349 . S
C1965 H1957 0.950 . S
C1965 C1963 1.327 . S
C1966 C1954 1.349 . S
C1966 H1960 0.950 . S
C1966 C1967 1.327 . S
C1967 H1961 0.950 . S
C1967 C1966 1.327 . S
C1967 C1971 1.429 . S
C1968 C1951 1.574 . S
C1968 H1962 0.949 . S
C1968 C1972 1.368 . S
C1969 C1950 1.429 . S
C1969 C1963 1.429 . S
C1969 C1970 1.523 . S
C1970 C1951 1.368 . S
C1970 C1964 1.368 . S
C1970 C1969 1.523 . S
C1971 C1955 1.429 . S
C1971 C1967 1.429 . S
C1971 C1972 1.523 . S
C1972 C1956 1.368 . S
C1972 C1968 1.368 . S
C1972 C1971 1.523 . S
H1973 C1948 0.950 . S
H1974 C1950 0.950 . S
H1975 C1951 0.949 . S
H1976 C1953 0.950 . S
H1977 C1955 0.950 . S
C1978 C1979 1.349 . S
C1978 C1980 1.327 . S
C1978 H2003 0.950 . S
C1979 C1978 1.349 . S
C1979 C1995 1.349 . S
C1980 C1978 1.327 . S
C1980 C1999 1.429 . S
C1980 H2004 0.950 . S
C1981 C1998 1.574 . S
C1981 C2000 1.368 . S
C1981 H2005 0.949 . S
H1982 C1986 0.949 . S
C1983 C1984 1.349 . S
C1983 C1985 1.327 . S
C1983 H2006 0.950 . S
C1984 C1983 1.349 . S
C1984 C1996 1.349 . S
C1985 C1983 1.327 . S
C1985 C2001 1.429 . S
C1985 H2007 0.950 . S
C1986 H1982 0.949 . S
C1986 C1994 1.574 . S
C1986 C2002 1.368 . S
H1987 C1995 0.950 . S
H1988 C1993 0.950 . S
H1989 C1994 0.949 . S
H1990 C1996 0.950 . S
H1991 C1997 0.950 . S
H1992 C1998 0.949 . S
C1993 H1988 0.950 . S
C1993 C1995 1.327 . S
C1993 C1999 1.429 . S
C1994 C1986 1.574 . S
C1994 H1989 0.949 . S
C1994 C2000 1.368 . S
C1995 C1979 1.349 . S
C1995 H1987 0.950 . S
C1995 C1993 1.327 . S
C1996 C1984 1.349 . S
C1996 H1990 0.950 . S
C1996 C1997 1.327 . S
C1997 H1991 0.950 . S
C1997 C1996 1.327 . S
C1997 C2001 1.429 . S
C1998 C1981 1.574 . S
C1998 H1992 0.949 . S
C1998 C2002 1.368 . S
C1999 C1980 1.429 . S
C1999 C1993 1.429 . S
C1999 C2000 1.523 . S
C2000 C1981 1.368 . S
C2000 C1994 1.368 . S
C2000 C1999 1.523 . S
C2001 C1985 1.429 . S
C2001 C1997 1.429 . S
C2001 C2002 1.523 . S
C2002 C1986 1.368 . S
C2002 C1998 1.368 . S
C2002 C2001 1.523 . S
H2003 C1978 0.950 . S
H2004 C1980 0.950 . S
H2005 C1981 0.949 . S
H2006 C1983 0.950 . S
H2007 C1985 0.950 . S
C2008 C2009 1.349 . S
C2008 C2010 1.327 . S
C2008 H2033 0.950 . S
C2009 C2008 1.349 . S
C2009 C2025 1.349 . S
C2010 C2008 1.327 . S
C2010 C2029 1.429 . S
C2010 H2034 0.950 . S
C2011 C2028 1.574 1_556 S
C2011 C2030 1.368 . S
C2011 H2035 0.949 . S
H2012 C2016 0.949 . S
C2013 C2014 1.349 . S
C2013 C2015 1.327 . S
C2013 H2036 0.950 . S
C2014 C2013 1.349 . S
C2014 C2026 1.349 . S
C2015 C2013 1.327 . S
C2015 C2031 1.429 . S
C2015 H2037 0.950 . S
C2016 H2012 0.949 . S
C2016 C2024 1.574 1_554 S
C2016 C2032 1.368 . S
H2017 C2025 0.950 . S
H2018 C2023 0.950 . S
H2019 C2024 0.949 . S
H2020 C2026 0.950 . S
H2021 C2027 0.950 . S
H2022 C2028 0.949 . S
C2023 H2018 0.950 . S
C2023 C2025 1.327 . S
C2023 C2029 1.429 . S
C2024 C2016 1.574 1_556 S
C2024 H2019 0.949 . S
C2024 C2030 1.368 . S
C2025 C2009 1.349 . S
C2025 H2017 0.950 . S
C2025 C2023 1.327 . S
C2026 C2014 1.349 . S
C2026 H2020 0.950 . S
C2026 C2027 1.327 . S
C2027 H2021 0.950 . S
C2027 C2026 1.327 . S
C2027 C2031 1.429 . S
C2028 C2011 1.574 1_554 S
C2028 H2022 0.949 . S
C2028 C2032 1.368 . S
C2029 C2010 1.429 . S
C2029 C2023 1.429 . S
C2029 C2030 1.523 . S
C2030 C2011 1.368 . S
C2030 C2024 1.368 . S
C2030 C2029 1.523 . S
C2031 C2015 1.429 . S
C2031 C2027 1.429 . S
C2031 C2032 1.523 . S
C2032 C2016 1.368 . S
C2032 C2028 1.368 . S
C2032 C2031 1.523 . S
H2033 C2008 0.950 . S
H2034 C2010 0.950 . S
H2035 C2011 0.949 . S
H2036 C2013 0.950 . S
H2037 C2015 0.950 . S
C2038 C2039 1.349 . S
C2038 C2040 1.327 . S
C2038 H2063 0.950 . S
C2039 C2038 1.349 . S
C2039 C2055 1.349 . S
C2040 C2038 1.327 . S
C2040 C2059 1.429 . S
C2040 H2064 0.950 . S
C2041 C2058 1.574 . S
C2041 C2060 1.368 . S
C2041 H2065 0.949 . S
H2042 C2046 0.949 . S
C2043 C2044 1.349 . S
C2043 C2045 1.327 . S
C2043 H2066 0.950 . S
C2044 C2043 1.349 . S
C2044 C2056 1.349 . S
C2045 C2043 1.327 . S
C2045 C2061 1.429 . S
C2045 H2067 0.950 . S
C2046 H2042 0.949 . S
C2046 C2054 1.574 . S
C2046 C2062 1.368 . S
H2047 C2055 0.950 . S
H2048 C2053 0.950 . S
H2049 C2054 0.949 . S
H2050 C2056 0.950 . S
H2051 C2057 0.950 . S
H2052 C2058 0.949 . S
C2053 H2048 0.950 . S
C2053 C2055 1.327 . S
C2053 C2059 1.429 . S
C2054 C2046 1.574 . S
C2054 H2049 0.949 . S
C2054 C2060 1.368 . S
C2055 C2039 1.349 . S
C2055 H2047 0.950 . S
C2055 C2053 1.327 . S
C2056 C2044 1.349 . S
C2056 H2050 0.950 . S
C2056 C2057 1.327 . S
C2057 H2051 0.950 . S
C2057 C2056 1.327 . S
C2057 C2061 1.429 . S
C2058 C2041 1.574 . S
C2058 H2052 0.949 . S
C2058 C2062 1.368 . S
C2059 C2040 1.429 . S
C2059 C2053 1.429 . S
C2059 C2060 1.523 . S
C2060 C2041 1.368 . S
C2060 C2054 1.368 . S
C2060 C2059 1.523 . S
C2061 C2045 1.429 . S
C2061 C2057 1.429 . S
C2061 C2062 1.523 . S
C2062 C2046 1.368 . S
C2062 C2058 1.368 . S
C2062 C2061 1.523 . S
H2063 C2038 0.950 . S
H2064 C2040 0.950 . S
H2065 C2041 0.949 . S
H2066 C2043 0.950 . S
H2067 C2045 0.950 . S
C2068 C2069 1.349 . S
C2068 C2070 1.327 . S
C2068 H2093 0.950 . S
C2069 C2068 1.349 . S
C2069 C2085 1.349 . S
C2070 C2068 1.327 . S
C2070 C2089 1.429 . S
C2070 H2094 0.950 . S
C2071 C2088 1.574 . S
C2071 C2090 1.368 . S
C2071 H2095 0.949 . S
H2072 C2076 0.949 . S
C2073 C2074 1.349 . S
C2073 C2075 1.327 . S
C2073 H2096 0.950 . S
C2074 C2073 1.349 . S
C2074 C2086 1.349 . S
C2075 C2073 1.327 . S
C2075 C2091 1.429 . S
C2075 H2097 0.950 . S
C2076 H2072 0.949 . S
C2076 C2084 1.574 . S
C2076 C2092 1.368 . S
H2077 C2085 0.950 . S
H2078 C2083 0.950 . S
H2079 C2084 0.949 . S
H2080 C2086 0.950 . S
H2081 C2087 0.950 . S
H2082 C2088 0.949 . S
C2083 H2078 0.950 . S
C2083 C2085 1.327 . S
C2083 C2089 1.429 . S
C2084 C2076 1.574 . S
C2084 H2079 0.949 . S
C2084 C2090 1.368 . S
C2085 C2069 1.349 . S
C2085 H2077 0.950 . S
C2085 C2083 1.327 . S
C2086 C2074 1.349 . S
C2086 H2080 0.950 . S
C2086 C2087 1.327 . S
C2087 H2081 0.950 . S
C2087 C2086 1.327 . S
C2087 C2091 1.429 . S
C2088 C2071 1.574 . S
C2088 H2082 0.949 . S
C2088 C2092 1.368 . S
C2089 C2070 1.429 . S
C2089 C2083 1.429 . S
C2089 C2090 1.523 . S
C2090 C2071 1.368 . S
C2090 C2084 1.368 . S
C2090 C2089 1.523 . S
C2091 C2075 1.429 . S
C2091 C2087 1.429 . S
C2091 C2092 1.523 . S
C2092 C2076 1.368 . S
C2092 C2088 1.368 . S
C2092 C2091 1.523 . S
H2093 C2068 0.950 . S
H2094 C2070 0.950 . S
H2095 C2071 0.949 . S
H2096 C2073 0.950 . S
H2097 C2075 0.950 . S
C2098 C2099 1.349 . S
C2098 C2100 1.327 . S
C2098 H2123 0.950 . S
C2099 C2098 1.349 . S
C2099 C2115 1.349 . S
C2100 C2098 1.327 . S
C2100 C2119 1.429 . S
C2100 H2124 0.950 . S
C2101 C2118 1.574 . S
C2101 C2120 1.368 . S
C2101 H2125 0.949 . S
H2102 C2106 0.949 . S
C2103 C2104 1.349 . S
C2103 C2105 1.327 . S
C2103 H2126 0.950 . S
C2104 C2103 1.349 . S
C2104 C2116 1.349 . S
C2105 C2103 1.327 . S
C2105 C2121 1.429 . S
C2105 H2127 0.950 . S
C2106 H2102 0.949 . S
C2106 C2114 1.574 . S
C2106 C2122 1.368 . S
H2107 C2115 0.950 . S
H2108 C2113 0.950 . S
H2109 C2114 0.949 . S
H2110 C2116 0.950 . S
H2111 C2117 0.950 . S
H2112 C2118 0.949 . S
C2113 H2108 0.950 . S
C2113 C2115 1.327 . S
C2113 C2119 1.429 . S
C2114 C2106 1.574 . S
C2114 H2109 0.949 . S
C2114 C2120 1.368 . S
C2115 C2099 1.349 . S
C2115 H2107 0.950 . S
C2115 C2113 1.327 . S
C2116 C2104 1.349 . S
C2116 H2110 0.950 . S
C2116 C2117 1.327 . S
C2117 H2111 0.950 . S
C2117 C2116 1.327 . S
C2117 C2121 1.429 . S
C2118 C2101 1.574 . S
C2118 H2112 0.949 . S
C2118 C2122 1.368 . S
C2119 C2100 1.429 . S
C2119 C2113 1.429 . S
C2119 C2120 1.523 . S
C2120 C2101 1.368 . S
C2120 C2114 1.368 . S
C2120 C2119 1.523 . S
C2121 C2105 1.429 . S
C2121 C2117 1.429 . S
C2121 C2122 1.523 . S
C2122 C2106 1.368 . S
C2122 C2118 1.368 . S
C2122 C2121 1.523 . S
H2123 C2098 0.950 . S
H2124 C2100 0.950 . S
H2125 C2101 0.949 . S
H2126 C2103 0.950 . S
H2127 C2105 0.950 . S
C2128 C2129 1.349 . S
C2128 C2130 1.327 . S
C2128 H2153 0.950 . S
C2129 C2128 1.349 . S
C2129 C2145 1.349 . S
C2130 C2128 1.327 . S
C2130 C2149 1.429 . S
C2130 H2154 0.950 . S
C2131 C2148 1.574 . S
C2131 C2150 1.368 1_565 S
C2131 H2155 0.949 . S
H2132 C2136 0.949 . S
C2133 C2134 1.349 . S
C2133 C2135 1.327 . S
C2133 H2156 0.950 . S
C2134 C2133 1.349 . S
C2134 C2146 1.349 . S
C2135 C2133 1.327 . S
C2135 C2151 1.429 . S
C2135 H2157 0.950 . S
C2136 H2132 0.949 . S
C2136 C2144 1.574 . S
C2136 C2152 1.368 1_545 S
H2137 C2145 0.950 . S
H2138 C2143 0.950 . S
H2139 C2144 0.949 . S
H2140 C2146 0.950 . S
H2141 C2147 0.950 . S
H2142 C2148 0.949 . S
C2143 H2138 0.950 . S
C2143 C2145 1.327 . S
C2143 C2149 1.429 . S
C2144 C2136 1.574 . S
C2144 H2139 0.949 . S
C2144 C2150 1.368 . S
C2145 C2129 1.349 . S
C2145 H2137 0.950 . S
C2145 C2143 1.327 . S
C2146 C2134 1.349 . S
C2146 H2140 0.950 . S
C2146 C2147 1.327 . S
C2147 H2141 0.950 . S
C2147 C2146 1.327 . S
C2147 C2151 1.429 . S
C2148 C2131 1.574 . S
C2148 H2142 0.949 . S
C2148 C2152 1.368 . S
C2149 C2130 1.429 . S
C2149 C2143 1.429 . S
C2149 C2150 1.523 . S
C2150 C2131 1.368 1_545 S
C2150 C2144 1.368 . S
C2150 C2149 1.523 . S
C2151 C2135 1.429 . S
C2151 C2147 1.429 . S
C2151 C2152 1.523 . S
C2152 C2136 1.368 1_565 S
C2152 C2148 1.368 . S
C2152 C2151 1.523 . S
H2153 C2128 0.950 . S
H2154 C2130 0.950 . S
H2155 C2131 0.949 . S
H2156 C2133 0.950 . S
H2157 C2135 0.950 . S
C2158 C2159 1.349 . S
C2158 C2160 1.327 . S
C2158 H2183 0.950 . S
C2159 C2158 1.349 . S
C2159 C2175 1.349 . S
C2160 C2158 1.327 . S
C2160 C2179 1.429 . S
C2160 H2184 0.950 . S
C2161 C2178 1.574 . S
C2161 C2180 1.368 . S
C2161 H2185 0.949 . S
H2162 C2166 0.949 . S
C2163 C2164 1.349 . S
C2163 C2165 1.327 . S
C2163 H2186 0.950 . S
C2164 C2163 1.349 . S
C2164 C2176 1.349 . S
C2165 C2163 1.327 . S
C2165 C2181 1.429 . S
C2165 H2187 0.950 . S
C2166 H2162 0.949 . S
C2166 C2174 1.574 . S
C2166 C2182 1.368 . S
H2167 C2175 0.950 . S
H2168 C2173 0.950 . S
H2169 C2174 0.949 . S
H2170 C2176 0.950 . S
H2171 C2177 0.950 . S
H2172 C2178 0.949 . S
C2173 H2168 0.950 . S
C2173 C2175 1.327 . S
C2173 C2179 1.429 . S
C2174 C2166 1.574 . S
C2174 H2169 0.949 . S
C2174 C2180 1.368 . S
C2175 C2159 1.349 . S
C2175 H2167 0.950 . S
C2175 C2173 1.327 . S
C2176 C2164 1.349 . S
C2176 H2170 0.950 . S
C2176 C2177 1.327 . S
C2177 H2171 0.950 . S
C2177 C2176 1.327 . S
C2177 C2181 1.429 . S
C2178 C2161 1.574 . S
C2178 H2172 0.949 . S
C2178 C2182 1.368 . S
C2179 C2160 1.429 . S
C2179 C2173 1.429 . S
C2179 C2180 1.523 . S
C2180 C2161 1.368 . S
C2180 C2174 1.368 . S
C2180 C2179 1.523 . S
C2181 C2165 1.429 . S
C2181 C2177 1.429 . S
C2181 C2182 1.523 . S
C2182 C2166 1.368 . S
C2182 C2178 1.368 . S
C2182 C2181 1.523 . S
H2183 C2158 0.950 . S
H2184 C2160 0.950 . S
H2185 C2161 0.949 . S
H2186 C2163 0.950 . S
H2187 C2165 0.950 . S
C2188 C2189 1.349 . S
C2188 C2190 1.327 . S
C2188 H2213 0.950 . S
C2189 C2188 1.349 . S
C2189 C2205 1.349 . S
C2190 C2188 1.327 . S
C2190 C2209 1.429 . S
C2190 H2214 0.994 . S
C2191 C2208 1.574 1_556 S
C2191 C2210 1.368 . S
C2191 H2215 0.949 . S
H2192 C2196 0.949 . S
C2193 C2194 1.349 . S
C2193 C2195 1.327 . S
C2193 H2216 0.950 . S
C2194 C2193 1.349 . S
C2194 C2206 1.349 . S
C2195 C2193 1.327 . S
C2195 C2211 1.429 . S
C2195 H2217 0.994 . S
C2196 H2192 0.949 . S
C2196 C2204 1.574 1_554 S
C2196 C2212 1.368 . S
H2197 C2205 0.950 . S
H2198 C2203 0.950 . S
H2199 C2204 0.949 . S
H2200 C2206 0.950 . S
H2201 C2207 0.950 . S
H2202 C2208 0.949 . S
C2203 H2198 0.950 . S
C2203 C2205 1.327 . S
C2203 C2209 1.429 . S
C2204 C2196 1.574 1_556 S
C2204 H2199 0.949 . S
C2204 C2210 1.368 1_565 S
C2205 C2189 1.349 . S
C2205 H2197 0.950 . S
C2205 C2203 1.327 . S
C2206 C2194 1.349 . S
C2206 H2200 0.950 . S
C2206 C2207 1.327 . S
C2207 H2201 0.950 . S
C2207 C2206 1.327 . S
C2207 C2211 1.429 . S
C2208 C2191 1.574 1_554 S
C2208 H2202 0.949 . S
C2208 C2212 1.368 1_545 S
C2209 C2190 1.429 . S
C2209 C2203 1.429 . S
C2209 C2210 1.523 . S
C2210 C2191 1.368 . S
C2210 C2204 1.368 1_545 S
C2210 C2209 1.523 . S
C2211 C2195 1.429 . S
C2211 C2207 1.429 . S
C2211 C2212 1.523 . S
C2212 C2196 1.368 . S
C2212 C2208 1.368 1_565 S
C2212 C2211 1.523 . S
H2213 C2188 0.950 . S
H2214 C2190 0.994 . S
H2215 C2191 0.949 . S
H2216 C2193 0.950 . S
H2217 C2195 0.994 . S
C2218 C2219 1.349 . S
C2218 C2220 1.327 . S
C2218 H2243 0.950 . S
C2219 C2218 1.349 . S
C2219 C2235 1.349 . S
C2220 C2218 1.327 . S
C2220 C2239 1.429 . S
C2220 H2244 0.950 . S
C2221 C2238 1.574 . S
C2221 C2240 1.368 . S
C2221 H2245 0.949 . S
H2222 C2226 0.949 . S
C2223 C2224 1.349 . S
C2223 C2225 1.327 . S
C2223 H2246 0.950 . S
C2224 C2223 1.349 . S
C2224 C2236 1.349 . S
C2225 C2223 1.327 . S
C2225 C2241 1.429 . S
C2225 H2247 0.950 . S
C2226 H2222 0.949 . S
C2226 C2234 1.574 . S
C2226 C2242 1.368 . S
H2227 C2235 0.950 . S
H2228 C2233 0.950 . S
H2229 C2234 0.949 . S
H2230 C2236 0.950 . S
H2231 C2237 0.950 . S
H2232 C2238 0.949 . S
C2233 H2228 0.950 . S
C2233 C2235 1.327 . S
C2233 C2239 1.429 . S
C2234 C2226 1.574 . S
C2234 H2229 0.949 . S
C2234 C2240 1.368 . S
C2235 C2219 1.349 . S
C2235 H2227 0.950 . S
C2235 C2233 1.327 . S
C2236 C2224 1.349 . S
C2236 H2230 0.950 . S
C2236 C2237 1.327 . S
C2237 H2231 0.950 . S
C2237 C2236 1.327 . S
C2237 C2241 1.429 . S
C2238 C2221 1.574 . S
C2238 H2232 0.949 . S
C2238 C2242 1.368 . S
C2239 C2220 1.429 . S
C2239 C2233 1.429 . S
C2239 C2240 1.523 . S
C2240 C2221 1.368 . S
C2240 C2234 1.368 . S
C2240 C2239 1.523 . S
C2241 C2225 1.429 . S
C2241 C2237 1.429 . S
C2241 C2242 1.523 . S
C2242 C2226 1.368 . S
C2242 C2238 1.368 . S
C2242 C2241 1.523 . S
H2243 C2218 0.950 . S
H2244 C2220 0.950 . S
H2245 C2221 0.949 . S
H2246 C2223 0.950 . S
H2247 C2225 0.950 . S
C2248 C2249 1.349 . S
C2248 C2250 1.327 . S
C2248 H2273 0.950 . S
C2249 C2248 1.349 . S
C2249 C2265 1.349 . S
C2250 C2248 1.327 . S
C2250 C2269 1.429 . S
C2250 H2274 0.950 . S
C2251 C2268 1.574 . S
C2251 C2270 1.368 . S
C2251 H2275 0.949 . S
H2252 C2256 0.949 . S
C2253 C2254 1.349 . S
C2253 C2255 1.327 . S
C2253 H2276 0.950 . S
C2254 C2253 1.349 . S
C2254 C2266 1.349 . S
C2255 C2253 1.327 . S
C2255 C2271 1.429 . S
C2255 H2277 0.950 . S
C2256 H2252 0.949 . S
C2256 C2264 1.574 . S
C2256 C2272 1.368 . S
H2257 C2265 0.950 . S
H2258 C2263 0.950 . S
H2259 C2264 0.949 . S
H2260 C2266 0.950 . S
H2261 C2267 0.950 . S
H2262 C2268 0.949 . S
C2263 H2258 0.950 . S
C2263 C2265 1.327 . S
C2263 C2269 1.429 . S
C2264 C2256 1.574 . S
C2264 H2259 0.949 . S
C2264 C2270 1.368 1_565 S
C2265 C2249 1.349 . S
C2265 H2257 0.950 . S
C2265 C2263 1.327 . S
C2266 C2254 1.349 . S
C2266 H2260 0.950 . S
C2266 C2267 1.327 . S
C2267 H2261 0.950 . S
C2267 C2266 1.327 . S
C2267 C2271 1.429 . S
C2268 C2251 1.574 . S
C2268 H2262 0.949 . S
C2268 C2272 1.368 1_545 S
C2269 C2250 1.429 . S
C2269 C2263 1.429 . S
C2269 C2270 1.523 . S
C2270 C2251 1.368 . S
C2270 C2264 1.368 1_545 S
C2270 C2269 1.523 . S
C2271 C2255 1.429 . S
C2271 C2267 1.429 . S
C2271 C2272 1.523 . S
C2272 C2256 1.368 . S
C2272 C2268 1.368 1_565 S
C2272 C2271 1.523 . S
H2273 C2248 0.950 . S
H2274 C2250 0.950 . S
H2275 C2251 0.949 . S
H2276 C2253 0.950 . S
H2277 C2255 0.950 . S
C2278 C2279 1.349 . S
C2278 C2280 1.327 . S
C2278 H2303 0.950 . S
C2279 C2278 1.349 . S
C2279 C2295 1.349 . S
C2280 C2278 1.327 . S
C2280 C2299 1.429 . S
C2280 H2304 0.950 . S
C2281 C2298 1.574 . S
C2281 C2300 1.368 . S
C2281 H2305 0.949 . S
H2282 C2286 0.949 . S
C2283 C2284 1.349 . S
C2283 C2285 1.327 . S
C2283 H2306 0.950 . S
C2284 C2283 1.349 . S
C2284 C2296 1.349 . S
C2285 C2283 1.327 . S
C2285 C2301 1.429 . S
C2285 H2307 0.950 . S
C2286 H2282 0.949 . S
C2286 C2294 1.574 . S
C2286 C2302 1.368 . S
H2287 C2295 0.950 . S
H2288 C2293 0.950 . S
H2289 C2294 0.949 . S
H2290 C2296 0.950 . S
H2291 C2297 0.950 . S
H2292 C2298 0.949 . S
C2293 H2288 0.950 . S
C2293 C2295 1.327 . S
C2293 C2299 1.429 . S
C2294 C2286 1.574 . S
C2294 H2289 0.949 . S
C2294 C2300 1.368 . S
C2295 C2279 1.349 . S
C2295 H2287 0.950 . S
C2295 C2293 1.327 . S
C2296 C2284 1.349 . S
C2296 H2290 0.950 . S
C2296 C2297 1.327 . S
C2297 H2291 0.950 . S
C2297 C2296 1.327 . S
C2297 C2301 1.429 . S
C2298 C2281 1.574 . S
C2298 H2292 0.949 . S
C2298 C2302 1.368 . S
C2299 C2280 1.429 . S
C2299 C2293 1.429 . S
C2299 C2300 1.523 . S
C2300 C2281 1.368 . S
C2300 C2294 1.368 . S
C2300 C2299 1.523 . S
C2301 C2285 1.429 . S
C2301 C2297 1.429 . S
C2301 C2302 1.523 . S
C2302 C2286 1.368 . S
C2302 C2298 1.368 . S
C2302 C2301 1.523 . S
H2303 C2278 0.950 . S
H2304 C2280 0.950 . S
H2305 C2281 0.949 . S
H2306 C2283 0.950 . S
H2307 C2285 0.950 . S
C2308 C2309 1.349 . S
C2308 C2310 1.327 . S
C2308 H2333 0.950 . S
C2309 C2308 1.349 . S
C2309 C2325 1.349 . S
C2310 C2308 1.327 . S
C2310 C2329 1.429 . S
C2310 H2334 0.950 . S
C2311 C2328 1.574 1_554 S
C2311 C2330 1.368 . S
C2311 H2335 0.949 . S
H2312 C2316 0.949 . S
C2313 C2314 1.349 . S
C2313 C2315 1.327 . S
C2313 H2336 0.950 . S
C2314 C2313 1.349 . S
C2314 C2326 1.349 . S
C2315 C2313 1.327 . S
C2315 C2331 1.429 . S
C2315 H2337 0.950 . S
C2316 H2312 0.949 . S
C2316 C2324 1.574 1_556 S
C2316 C2332 1.368 . S
H2317 C2325 0.950 . S
H2318 C2323 0.950 . S
H2319 C2324 0.949 . S
H2320 C2326 0.950 . S
H2321 C2327 0.950 . S
H2322 C2328 0.949 . S
C2323 H2318 0.950 . S
C2323 C2325 1.327 . S
C2323 C2329 1.429 . S
C2324 C2316 1.574 1_554 S
C2324 H2319 0.949 . S
C2324 C2330 1.368 1_545 S
C2325 C2309 1.349 . S
C2325 H2317 0.950 . S
C2325 C2323 1.327 . S
C2326 C2314 1.349 . S
C2326 H2320 0.950 . S
C2326 C2327 1.327 . S
C2327 H2321 0.950 . S
C2327 C2326 1.327 . S
C2327 C2331 1.429 . S
C2328 C2311 1.574 1_556 S
C2328 H2322 0.949 . S
C2328 C2332 1.368 1_565 S
C2329 C2310 1.429 . S
C2329 C2323 1.429 . S
C2329 C2330 1.523 . S
C2330 C2311 1.368 . S
C2330 C2324 1.368 1_565 S
C2330 C2329 1.523 . S
C2331 C2315 1.429 . S
C2331 C2327 1.429 . S
C2331 C2332 1.523 . S
C2332 C2316 1.368 . S
C2332 C2328 1.368 1_545 S
C2332 C2331 1.523 . S
H2333 C2308 0.950 . S
H2334 C2310 0.950 . S
H2335 C2311 0.949 . S
H2336 C2313 0.950 . S
H2337 C2315 0.950 . S
C2338 C2339 1.349 . S
C2338 C2340 1.327 . S
C2338 H2363 0.950 . S
C2339 C2338 1.349 . S
C2339 C2355 1.349 . S
C2340 C2338 1.327 . S
C2340 C2359 1.429 . S
C2340 H2364 0.950 . S
C2341 C2358 1.574 . S
C2341 C2360 1.368 . S
C2341 H2365 0.949 . S
H2342 C2346 0.949 . S
C2343 C2344 1.349 . S
C2343 C2345 1.327 . S
C2343 H2366 0.950 . S
C2344 C2343 1.349 . S
C2344 C2356 1.349 . S
C2345 C2343 1.327 . S
C2345 C2361 1.429 . S
C2345 H2367 0.950 . S
C2346 H2342 0.949 . S
C2346 C2354 1.574 . S
C2346 C2362 1.368 . S
H2347 C2355 0.950 . S
H2348 C2353 0.950 . S
H2349 C2354 0.949 . S
H2350 C2356 0.950 . S
H2351 C2357 0.950 . S
H2352 C2358 0.949 . S
C2353 H2348 0.950 . S
C2353 C2355 1.327 . S
C2353 C2359 1.429 . S
C2354 C2346 1.574 . S
C2354 H2349 0.949 . S
C2354 C2360 1.368 . S
C2355 C2339 1.349 . S
C2355 H2347 0.950 . S
C2355 C2353 1.327 . S
C2356 C2344 1.349 . S
C2356 H2350 0.950 . S
C2356 C2357 1.327 . S
C2357 H2351 0.950 . S
C2357 C2356 1.327 . S
C2357 C2361 1.429 . S
C2358 C2341 1.574 . S
C2358 H2352 0.949 . S
C2358 C2362 1.368 . S
C2359 C2340 1.429 . S
C2359 C2353 1.429 . S
C2359 C2360 1.523 . S
C2360 C2341 1.368 . S
C2360 C2354 1.368 . S
C2360 C2359 1.523 . S
C2361 C2345 1.429 . S
C2361 C2357 1.429 . S
C2361 C2362 1.523 . S
C2362 C2346 1.368 . S
C2362 C2358 1.368 . S
C2362 C2361 1.523 . S
H2363 C2338 0.950 . S
H2364 C2340 0.950 . S
H2365 C2341 0.949 . S
H2366 C2343 0.950 . S
H2367 C2345 0.950 . S
C1409 C1017 1.440 . S
C1414 C20 1.441 . S
C1439 C1369 1.440 . S
C1444 C108 1.441 . S
C1469 C225 1.441 . S
C1474 C812 1.440 . S
C1499 C1164 1.440 . S
C1504 C321 1.441 . S
C1529 C409 1.441 . S
C1534 C1173 1.440 . S
C1559 C469 1.441 . S
C1564 C1025 1.440 . S
C1589 C548 1.441 . S
C1594 C1377 1.440 . S
C1619 C673 1.441 . S
C1624 C821 1.440 . S
C1649 C284 1.441 . S
C1654 C761 1.440 . S
C1679 C900 1.440 . S
C1684 C145 1.441 . S
C1709 C1076 1.440 . S
C1714 C489 1.441 . S
C1739 C1281 1.440 . S
C1744 C636 1.441 . S
C1769 C372 1.441 . S
C1774 C753 1.440 . S
C1799 C909 1.440 . S
C1804 C585 1.441 . S
C1829 C1289 1.440 . S
C1834 C205 1.441 . S
C1859 C57 1.441 . S
C1864 C1085 1.440 . S
C1889 C49 0.796 . S
C1894 C381 0.796 . S
C1919 C137 0.796 . S
C1924 C497 0.796 . S
C1949 C196 0.796 . S
C1954 C577 0.796 . S
C1979 C645 0.796 . S
C1984 C293 0.796 . S
C2009 C733 0.799 . S
C2014 C1105 0.799 . S
C2039 C1193 0.799 . S
C2044 C849 0.799 . S
C2069 C929 0.799 . S
C2074 C1252 0.799 . S
C2099 C1340 0.799 . S
C2104 C997 0.799 . S
C2129 C665 0.796 . S
C2134 C117 0.796 . S
C2159 C233 0.796 . S
C2164 C401 0.796 . S
C2189 C313 0.796 . S
C2194 C460 0.796 . S
C2219 C29 0.796 . S
C2224 C557 0.796 . S
C2249 C841 0.799 . S
C2254 C1349 0.799 . S
C2279 C1113 0.799 . S
C2284 C937 0.799 . S
C2309 C988 0.799 . S
C2314 C1201 0.799 . S
C2339 C1261 0.799 . S
C2344 C724 0.799 . S
