# Generated by pormake.
# Topology wgw, (6)-cn, num edge types: 1
# Building blocks:
#     Node 0, Type 0, BuildingBlock: IZENUY_clean_sbu_0, # of connection points: 6
#     Node 1, Type 0, BuildingBlock: IZENUY_clean_sbu_0, # of connection points: 6
#     Node 2, Type 0, BuildingBlock: IZENUY_clean_sbu_0, # of connection points: 6
#     Node 3, Type 0, BuildingBlock: IZENUY_clean_sbu_0, # of connection points: 6
#     Node 4, Type 0, BuildingBlock: IZENUY_clean_sbu_0, # of connection points: 6
#     Node 5, Type 0, BuildingBlock: IZENUY_clean_sbu_0, # of connection points: 6
#     Node 6, Type 0, BuildingBlock: IZENUY_clean_sbu_0, # of connection points: 6
#     Node 7, Type 0, BuildingBlock: IZENUY_clean_sbu_0, # of connection points: 6
#     Edge 8, Type (0, 0), BuildingBlock: CIFDUS_clean_linker_0, # of connection points: 2
#     Edge 9, Type (0, 0), BuildingBlock: CIFDUS_clean_linker_0, # of connection points: 2
#     Edge 10, Type (0, 0), BuildingBlock: CIFDUS_clean_linker_0, # of connection points: 2
#     Edge 11, Type (0, 0), BuildingBlock: CIFDUS_clean_linker_0, # of connection points: 2
#     Edge 12, Type (0, 0), BuildingBlock: CIFDUS_clean_linker_0, # of connection points: 2
#     Edge 13, Type (0, 0), BuildingBlock: CIFDUS_clean_linker_0, # of connection points: 2
#     Edge 14, Type (0, 0), BuildingBlock: CIFDUS_clean_linker_0, # of connection points: 2
#     Edge 15, Type (0, 0), BuildingBlock: CIFDUS_clean_linker_0, # of connection points: 2
#     Edge 16, Type (0, 0), BuildingBlock: CIFDUS_clean_linker_0, # of connection points: 2
#     Edge 17, Type (0, 0), BuildingBlock: CIFDUS_clean_linker_0, # of connection points: 2
#     Edge 18, Type (0, 0), BuildingBlock: CIFDUS_clean_linker_0, # of connection points: 2
#     Edge 19, Type (0, 0), BuildingBlock: CIFDUS_clean_linker_0, # of connection points: 2
#     Edge 20, Type (0, 0), BuildingBlock: CIFDUS_clean_linker_0, # of connection points: 2
#     Edge 21, Type (0, 0), BuildingBlock: CIFDUS_clean_linker_0, # of connection points: 2
#     Edge 22, Type (0, 0), BuildingBlock: CIFDUS_clean_linker_0, # of connection points: 2
#     Edge 23, Type (0, 0), BuildingBlock: CIFDUS_clean_linker_0, # of connection points: 2
#     Edge 24, Type (0, 0), BuildingBlock: CIFDUS_clean_linker_0, # of connection points: 2
#     Edge 25, Type (0, 0), BuildingBlock: CIFDUS_clean_linker_0, # of connection points: 2
#     Edge 26, Type (0, 0), BuildingBlock: CIFDUS_clean_linker_0, # of connection points: 2
#     Edge 27, Type (0, 0), BuildingBlock: CIFDUS_clean_linker_0, # of connection points: 2
#     Edge 28, Type (0, 0), BuildingBlock: CIFDUS_clean_linker_0, # of connection points: 2
#     Edge 29, Type (0, 0), BuildingBlock: CIFDUS_clean_linker_0, # of connection points: 2
#     Edge 30, Type (0, 0), BuildingBlock: CIFDUS_clean_linker_0, # of connection points: 2
#     Edge 31, Type (0, 0), BuildingBlock: CIFDUS_clean_linker_0, # of connection points: 2
# Relax obj value: 0.277
# Max RMSD: 0.289
# Mean RMSD: 0.289
data_MOF--net-wgw--node1-IZENUY_clean_sbu_0--edge1-CIFDUS_clean_linker_0
_symmetry_space_group_name_H-M    P1
_symmetry_Int_Tables_number       1
_symmetry_cell_setting            triclinic
loop_
_symmetry_equiv_pos_as_xyz
'x, y, z'
_cell_length_a     24.276913
_cell_length_b     24.213507
_cell_length_c     37.070761
_cell_angle_alpha  89.765732
_cell_angle_beta   90.294621
_cell_angle_gamma 90.20069
loop_
_atom_site_label
_atom_site_type_symbol
_atom_site_fract_x
_atom_site_fract_y
_atom_site_fract_z
_atom_type_partial_charge
Fe0 Fe 0.04816 0.38635 0.18172 0.0
Fe1 Fe 0.12835 0.48461 0.18487 0.0
O2 O 0.07682 0.44316 0.20526 0.0
Fe3 Fe 0.05479 0.45932 0.24939 0.0
O4 O 0.03919 0.38773 0.26299 0.0
O5 O 0.06789 0.33873 0.2171 0.0
O6 O 0.11425 0.36756 0.15989 0.0
C7 C 0.16363 0.38009 0.16867 0.0
C8 C 0.95597 0.43551 0.21746 0.0
O9 O 0.17463 0.42624 0.18295 0.0
C10 C 0.0621 0.562 0.21454 0.0
O11 O 0.0263 0.4298 0.14391 0.0
O12 O 0.10519 0.47314 0.13862 0.0
O13 O 0.98514 0.47021 0.23408 0.0
O14 O 0.9778 0.3952 0.20082 0.0
C15 C 0.16439 0.47857 0.25703 0.0
O16 O 0.08372 0.54472 0.18587 0.0
O17 O 0.06461 0.53397 0.24343 0.0
C18 C 0.05813 0.46111 0.12636 0.0
O19 O 0.16223 0.5043 0.22733 0.0
O20 O 0.12412 0.44964 0.26746 0.0
C21 C 0.05437 0.34231 0.2497 0.0
Fe22 Fe 0.03683 0.13489 0.68049 0.0
Fe23 Fe 0.06207 0.06928 0.74927 0.0
O24 O 0.07348 0.08207 0.70296 0.0
Fe25 Fe 0.1221 0.04187 0.67927 0.0
O26 O 0.16413 0.1035 0.67048 0.0
O27 O 0.09462 0.15366 0.65104 0.0
O28 O 0.06283 0.18656 0.71111 0.0
C29 C 0.0562 0.18567 0.74466 0.0
C30 C 0.03738 0.05858 0.62706 0.0
O31 O 0.04504 0.14105 0.76092 0.0
C32 C 0.06754 0.9637 0.71917 0.0
O33 O 0.97285 0.12481 0.70653 0.0
O34 O 0.99075 0.05251 0.74076 0.0
O35 O 0.08699 0.04752 0.63513 0.0
O36 O 0.00849 0.08717 0.64792 0.0
C37 C 0.17277 0.05667 0.74755 0.0
O38 O 0.07562 0.99531 0.74581 0.0
O39 O 0.08175 0.97882 0.68773 0.0
C40 C 0.95681 0.08324 0.72468 0.0
O41 O 0.13363 0.08458 0.76027 0.0
O42 O 0.16634 0.02887 0.71892 0.0
C43 C 0.14587 0.1479 0.65671 0.0
Fe44 Fe 0.4534 0.04516 0.25412 0.0
Fe45 Fe 0.48325 0.1057 0.18445 0.0
O46 O 0.44196 0.05637 0.20733 0.0
Fe47 Fe 0.39018 0.01879 0.18434 0.0
O48 O 0.33815 0.04088 0.21568 0.0
O49 O 0.3837 0.02305 0.26516 0.0
O50 O 0.43389 0.11559 0.26447 0.0
C51 C 0.45869 0.15652 0.2508 0.0
C52 C 0.44615 0.93945 0.22828 0.0
O53 O 0.4907 0.15072 0.22407 0.0
C54 C 0.46697 0.02344 0.13044 0.0
O55 O 0.52545 0.06456 0.25241 0.0
O56 O 0.54616 0.06593 0.19526 0.0
O57 O 0.40457 0.95341 0.20915 0.0
O58 O 0.47369 0.97496 0.2456 0.0
C59 C 0.3776 0.12976 0.16049 0.0
O60 O 0.48121 0.07138 0.14032 0.0
O61 O 0.437 0.99382 0.15025 0.0
C62 C 0.55867 0.0537 0.22756 0.0
O63 O 0.42301 0.14675 0.17327 0.0
O64 O 0.36819 0.07837 0.15655 0.0
C65 C 0.33937 0.03428 0.24924 0.0
Fe66 Fe 0.38555 0.49227 0.68137 0.0
Fe67 Fe 0.47845 0.407 0.68855 0.0
O68 O 0.43134 0.45297 0.70857 0.0
Fe69 Fe 0.42873 0.46124 0.75606 0.0
O70 O 0.35788 0.43801 0.75764 0.0
O71 O 0.33195 0.49714 0.71598 0.0
O72 O 0.35124 0.42924 0.66676 0.0
C73 C 0.3749 0.38579 0.65582 0.0
C74 C 0.42528 0.56782 0.72975 0.0
O75 O 0.42732 0.38249 0.6551 0.0
C76 C 0.5399 0.46241 0.74376 0.0
O77 O 0.42796 0.49318 0.64059 0.0
O78 O 0.50656 0.4592 0.65837 0.0
O79 O 0.40815 0.53339 0.7528 0.0
O80 O 0.42026 0.55664 0.69637 0.0
C81 C 0.4509 0.34794 0.74951 0.0
O82 O 0.53571 0.42489 0.71987 0.0
O83 O 0.49829 0.48486 0.7573 0.0
C84 C 0.47854 0.48501 0.63527 0.0
O85 O 0.45516 0.34983 0.71584 0.0
O86 O 0.45006 0.3913 0.76804 0.0
C87 C 0.32031 0.46386 0.74133 0.0
Fe88 Fe 0.62288 0.50889 0.37129 0.0
Fe89 Fe 0.55746 0.53701 0.30293 0.0
O90 O 0.57572 0.55238 0.34801 0.0
Fe91 Fe 0.54718 0.6106 0.36935 0.0
O92 O 0.61089 0.62745 0.3945 0.0
O93 O 0.67097 0.56534 0.37642 0.0
O94 O 0.66162 0.48978 0.33023 0.0
C95 C 0.66713 0.51594 0.30064 0.0
C96 C 0.54742 0.53882 0.42648 0.0
O97 O 0.62853 0.5458 0.28853 0.0
C98 C 0.45722 0.56174 0.33135 0.0
O99 O 0.57661 0.44981 0.36696 0.0
O100 O 0.5657 0.46253 0.30871 0.0
O101 O 0.51963 0.56918 0.40571 0.0
O102 O 0.59395 0.52067 0.41674 0.0
C103 C 0.55936 0.65411 0.30213 0.0
O104 O 0.48652 0.52684 0.31534 0.0
O105 O 0.47877 0.60313 0.34719 0.0
C106 C 0.55858 0.43351 0.33678 0.0
O107 O 0.54371 0.6088 0.28869 0.0
O108 O 0.57255 0.65697 0.33485 0.0
C109 C 0.66029 0.61245 0.38901 0.0
Fe110 Fe 0.97854 0.62951 0.87656 0.0
Fe111 Fe 0.95505 0.57702 0.80313 0.0
O112 O 0.94038 0.58211 0.84989 0.0
Fe113 Fe 0.88912 0.54004 0.86971 0.0
O114 O 0.86427 0.59515 0.89964 0.0
O115 O 0.91662 0.66739 0.88673 0.0
O116 O 0.98906 0.67916 0.83943 0.0
C117 C 0.96087 0.68793 0.81102 0.0
C118 C 0.96285 0.54041 0.92568 0.0
O119 O 0.93628 0.64875 0.79516 0.0
C120 C 0.9482 0.46811 0.8235 0.0
O121 O 0.04236 0.59222 0.8671 0.0
O122 O 0.02721 0.59565 0.80896 0.0
O123 O 0.93555 0.51227 0.90349 0.0
O124 O 0.97395 0.59044 0.91904 0.0
C125 C 0.83987 0.55851 0.80447 0.0
O126 O 0.97546 0.50614 0.80854 0.0
O127 O 0.90615 0.47865 0.84256 0.0
C128 C 0.05783 0.58259 0.83522 0.0
O129 O 0.88568 0.55582 0.78869 0.0
O130 O 0.83775 0.56367 0.83811 0.0
C131 C 0.8718 0.64711 0.89802 0.0
Fe132 Fe 0.96824 0.95226 0.3032 0.0
Fe133 Fe 0.9827 0.88343 0.3718 0.0
O134 O 0.94808 0.93696 0.34799 0.0
Fe135 Fe 0.89469 0.97451 0.36904 0.0
O136 O 0.84618 0.9585 0.3332 0.0
O137 O 0.90042 0.97368 0.28702 0.0
O138 O 0.95256 0.88239 0.28799 0.0
C139 C 0.97871 0.84159 0.3005 0.0
C140 C 0.95622 0.05667 0.33108 0.0
O141 O 1.00009 0.84386 0.33161 0.0
C142 C 0.96518 0.96084 0.42655 0.0
O143 O 0.04 0.93508 0.31147 0.0
O144 O 0.04773 0.92161 0.36991 0.0
O145 O 0.91344 0.04159 0.34818 0.0
O146 O 0.98603 0.02205 0.31519 0.0
C147 C 0.87444 0.86182 0.38695 0.0
O148 O 0.97237 0.91176 0.41664 0.0
O149 O 0.93862 0.99418 0.407 0.0
C150 C 0.06738 0.9389 0.34042 0.0
O151 O 0.91948 0.84395 0.37459 0.0
O152 O 0.86719 0.91312 0.39272 0.0
C153 C 0.85293 0.96733 0.29996 0.0
Fe154 Fe 0.62588 0.99631 0.86748 0.0
Fe155 Fe 0.54171 0.90022 0.86804 0.0
O156 O 0.57483 0.95574 0.84542 0.0
Fe157 Fe 0.5576 0.9724 0.80015 0.0
O158 O 0.62753 0.95793 0.78535 0.0
O159 O 0.66421 0.01245 0.82619 0.0
O160 O 0.66956 0.93701 0.8729 0.0
C161 C 0.65611 0.89086 0.88633 0.0
C162 C 0.56573 0.07483 0.83332 0.0
O163 O 0.60579 0.87725 0.89092 0.0
C164 C 0.45567 0.95693 0.83004 0.0
O165 O 0.59904 0.98771 0.91289 0.0
O166 O 0.52115 0.94299 0.90612 0.0
O167 O 0.57199 0.04591 0.80536 0.0
O168 O 0.58356 0.05796 0.86338 0.0
C169 C 0.54579 0.85582 0.79983 0.0
O170 O 0.47313 0.91526 0.84783 0.0
O171 O 0.48792 0.98785 0.81263 0.0
C172 C 0.55256 0.97339 0.92461 0.0
O173 O 0.55834 0.85112 0.83273 0.0
O174 O 0.53773 0.9028 0.78616 0.0
C175 C 0.66816 0.98496 0.79737 0.0
H176 H 0.39533 0.46919 0.33294 0.0
H177 H 0.38555 0.64514 0.31594 0.0
H178 H 0.2906 0.63522 0.29403 0.0
H179 H 0.21519 0.5748 0.27272 0.0
H180 H 0.22348 0.39939 0.29197 0.0
H181 H 0.3143 0.41054 0.3204 0.0
C182 C 0.37183 0.50543 0.32518 0.0
C183 C 0.39718 0.55778 0.32576 0.0
C184 C 0.31745 0.49933 0.31275 0.0
C185 C 0.36659 0.60456 0.31591 0.0
C186 C 0.31257 0.59879 0.3031 0.0
C187 C 0.23657 0.53927 0.28384 0.0
C188 C 0.21332 0.48629 0.28012 0.0
C189 C 0.28829 0.54619 0.30036 0.0
C190 C 0.24075 0.44048 0.29477 0.0
C191 C 0.29269 0.44687 0.31076 0.0
H192 H 0.03717 0.43402 0.78627 0.0
H193 H 0.89641 0.37216 0.84481 0.0
H194 H 0.9222 0.27743 0.8295 0.0
H195 H 0.98054 0.2132 0.79495 0.0
H196 H 0.11719 0.27768 0.7337 0.0
H197 H 0.09785 0.37075 0.75532 0.0
C198 C 0.01207 0.40002 0.79593 0.0
C199 C 0.96445 0.41035 0.81627 0.0
C200 C 0.0267 0.34614 0.7867 0.0
C201 C 0.93296 0.36545 0.82881 0.0
C202 C 0.94775 0.3113 0.82012 0.0
C203 C 0.00676 0.24756 0.78714 0.0
C204 C 0.05035 0.23895 0.763 0.0
C205 C 0.99402 0.30125 0.79854 0.0
C206 C 0.08352 0.28365 0.75236 0.0
C207 C 0.07228 0.33675 0.76452 0.0
H208 H 0.31743 0.97965 0.31196 0.0
H209 H 0.24492 0.08568 0.23068 0.0
H210 H 0.15445 0.07222 0.25727 0.0
H211 H 0.09569 0.01897 0.29614 0.0
H212 H 0.16321 0.90877 0.37624 0.0
H213 H 0.25704 0.93553 0.35779 0.0
C214 C 0.28189 1.0006 0.30061 0.0
C215 C 0.28728 0.03264 0.26901 0.0
C216 C 0.22964 0.99155 0.31554 0.0
C217 C 0.24131 0.05993 0.25455 0.0
C218 C 0.18974 0.05242 0.26976 0.0
C219 C 0.13086 1.00225 0.31052 0.0
C220 C 0.12301 0.96199 0.33726 0.0
C221 C 0.18337 0.01666 0.29921 0.0
C222 C 0.16865 0.93995 0.35552 0.0
C223 C 0.22201 0.95491 0.34474 0.0
H224 H 0.50263 0.32381 0.81266 0.0
H225 H 0.40928 0.25133 0.72538 0.0
H226 H 0.43102 0.15899 0.74763 0.0
H227 H 0.48732 0.10024 0.78584 0.0
H228 H 0.58562 0.17027 0.87148 0.0
H229 H 0.55081 0.26276 0.85623 0.0
C230 C 0.48609 0.28769 0.79913 0.0
C231 C 0.45509 0.29389 0.76723 0.0
C232 C 0.50042 0.23472 0.81137 0.0
C233 C 0.43387 0.24715 0.7497 0.0
C234 C 0.44636 0.19452 0.76234 0.0
C235 C 0.50075 0.13573 0.80142 0.0
C236 C 0.53986 0.12914 0.82906 0.0
C237 C 0.48146 0.18802 0.79213 0.0
C238 C 0.5559 0.17484 0.84978 0.0
C239 C 0.53618 0.22751 0.84097 0.0
H240 H 0.72331 0.42015 0.28996 0.0
H241 H 0.72301 0.59316 0.262 0.0
H242 H 0.81009 0.58211 0.22981 0.0
H243 H 0.89003 0.52485 0.21429 0.0
H244 H 0.88918 0.3511 0.23949 0.0
H245 H 0.79806 0.36017 0.26715 0.0
C246 C 0.74222 0.45525 0.27655 0.0
C247 C 0.71731 0.50763 0.27875 0.0
C248 C 0.79167 0.44824 0.25733 0.0
C249 C 0.74155 0.55257 0.26075 0.0
C250 C 0.79131 0.54625 0.24237 0.0
C251 C 0.86919 0.48876 0.225 0.0
C252 C 0.89612 0.43739 0.22476 0.0
C253 C 0.81716 0.49451 0.24101 0.0
C254 C 0.86886 0.39087 0.23881 0.0
C255 C 0.81712 0.39627 0.25509 0.0
H256 H 1.0052 0.93629 0.77599 0.0
H257 H 0.0746 0.86729 0.67933 0.0
H258 H 0.04064 0.77527 0.69708 0.0
H259 H 0.99913 0.71337 0.74379 0.0
H260 H 0.93559 0.78497 0.84132 0.0
H261 H 0.95862 0.87739 0.81934 0.0
C262 C 0.01298 0.9012 0.75864 0.0
C263 C 0.04349 0.90842 0.72675 0.0
C264 C 0.99406 0.84896 0.76922 0.0
C265 C 0.05172 0.86275 0.70418 0.0
C266 C 0.03238 0.81018 0.7144 0.0
C267 C 0.9892 0.7495 0.75964 0.0
C268 C 0.96532 0.74281 0.79397 0.0
C269 C 1.00451 0.80259 0.7473 0.0
C270 C 0.95363 0.78948 0.81478 0.0
C271 C 0.96709 0.84216 0.80231 0.0
H272 H 0.66393 0.05953 0.19853 0.0
H273 H 0.56751 0.98382 0.28312 0.0
H274 H 0.64892 0.9438 0.30957 0.0
H275 H 0.74785 0.93951 0.31418 0.0
H276 H 0.84882 0.01886 0.23374 0.0
H277 H 0.76624 0.04771 0.20051 0.0
C278 C 0.66097 0.03343 0.22228 0.0
C279 C 0.60955 0.02474 0.23864 0.0
C280 C 0.70903 0.01183 0.23871 0.0
C281 C 0.6064 0.99123 0.26974 0.0
C282 C 0.65308 0.96836 0.2852 0.0
C283 C 0.75192 0.96263 0.28917 0.0
C284 C 0.80421 0.97774 0.27684 0.0
C285 C 0.70466 0.97993 0.27072 0.0
C286 C 0.8088 1.00691 0.24401 0.0
C287 C 0.76158 0.02368 0.22504 0.0
H288 H 0.44456 0.67072 0.69789 0.0
H289 H 0.47424 0.57511 0.79476 0.0
H290 H 0.51958 0.65257 0.82271 0.0
H291 H 0.54458 0.74935 0.82287 0.0
H292 H 0.51232 0.84992 0.72888 0.0
H293 H 0.47523 0.76951 0.69707 0.0
C294 C 0.46127 0.66697 0.72496 0.0
C295 C 0.45511 0.61696 0.74407 0.0
C296 C 0.48685 0.7129 0.74181 0.0
C297 C 0.4774 0.61295 0.77923 0.0
C298 C 0.50368 0.65739 0.7955 0.0
C299 C 0.53017 0.75376 0.79526 0.0
C300 C 0.53102 0.80584 0.77856 0.0
C301 C 0.50766 0.70784 0.77744 0.0
C302 C 0.51209 0.81037 0.74263 0.0
C303 C 0.49056 0.76436 0.72438 0.0
H304 H 0.73731 0.5616 0.83129 0.0
H305 H 0.82663 0.52298 0.73431 0.0
H306 H 0.74177 0.48741 0.70655 0.0
H307 H 0.6418 0.46393 0.71129 0.0
H308 H 0.55755 0.50077 0.81072 0.0
H309 H 0.64114 0.53908 0.83615 0.0
C310 C 0.73847 0.54577 0.80395 0.0
C311 C 0.7883 0.54476 0.78503 0.0
C312 C 0.69043 0.52405 0.78875 0.0
C313 C 0.78868 0.52444 0.7495 0.0
C314 C 0.74029 0.50359 0.73374 0.0
C315 C 0.64223 0.47972 0.73862 0.0
C316 C 0.59351 0.47946 0.75899 0.0
C317 C 0.69098 0.50225 0.7534 0.0
C318 C 0.59435 0.50069 0.79429 0.0
C319 C 0.64211 0.52283 0.80895 0.0
H320 H 0.11771 0.65308 0.23328 0.0
H321 H 0.95712 0.594 0.20253 0.0
H322 H 0.91535 0.68082 0.22236 0.0
H323 H 0.9241 0.76776 0.2574 0.0
H324 H 0.08587 0.82347 0.28952 0.0
H325 H 0.12794 0.74498 0.25962 0.0
C326 C 0.07389 0.66031 0.22982 0.0
C327 C 0.04023 0.61805 0.21655 0.0
C328 C 0.05043 0.7096 0.24194 0.0
C329 C 0.98342 0.62667 0.21265 0.0
C330 C 0.95965 0.67605 0.22417 0.0
C331 C 0.96852 0.76319 0.25687 0.0
C332 C 1.00192 0.80055 0.27586 0.0
C333 C 0.99253 0.71702 0.24021 0.0
C334 C 0.05948 0.79453 0.27532 0.0
C335 C 0.08358 0.74971 0.2583 0.0
H336 H 0.90579 0.98482 0.73289 0.0
H337 H 0.87599 0.16034 0.73131 0.0
H338 H 0.78089 0.14456 0.7506 0.0
H339 H 0.7099 0.08129 0.77409 0.0
H340 H 0.73803 0.90576 0.77359 0.0
H341 H 0.83032 0.92073 0.74845 0.0
C342 C 0.87812 0.01949 0.73634 0.0
C343 C 0.89774 0.07369 0.73122 0.0
C344 C 0.82356 0.01001 0.74707 0.0
C345 C 0.86162 0.11833 0.73516 0.0
C346 C 0.80743 0.10931 0.74633 0.0
C347 C 0.73597 0.0464 0.76764 0.0
C348 C 0.71787 0.99258 0.77557 0.0
C349 C 0.78848 0.05546 0.7532 0.0
C350 C 0.75137 0.94743 0.76728 0.0
C351 C 0.8041 0.95607 0.75324 0.0
H352 H 0.54347 0.90015 0.25205 0.0
H353 H 0.38349 0.84589 0.21553 0.0
H354 H 0.40777 0.75013 0.23072 0.0
H355 H 0.47152 0.68374 0.26057 0.0
H356 H 0.62768 0.74237 0.30145 0.0
H357 H 0.60804 0.83491 0.27831 0.0
C358 C 0.51368 0.86763 0.24747 0.0
C359 C 0.46129 0.88052 0.23344 0.0
C360 C 0.52747 0.81343 0.25704 0.0
C361 C 0.42396 0.83728 0.22657 0.0
C362 C 0.43782 0.78257 0.23536 0.0
C363 C 0.5017 0.71659 0.2635 0.0
C364 C 0.55126 0.70641 0.28232 0.0
C365 C 0.48906 0.77035 0.25139 0.0
C366 C 0.58954 0.74938 0.28683 0.0
C367 C 0.57817 0.80224 0.2738 0.0
H368 H 0.29733 0.49042 0.81042 0.0
H369 H 0.22287 0.45066 0.70786 0.0
H370 H 0.133 0.47973 0.7301 0.0
H371 H 0.07976 0.52764 0.77484 0.0
H372 H 0.15202 0.57285 0.87717 0.0
H373 H 0.23958 0.53063 0.85884 0.0
C374 C 0.26091 0.4867 0.7935 0.0
C375 C 0.26594 0.46836 0.75771 0.0
C376 C 0.20992 0.50576 0.80602 0.0
C377 C 0.21929 0.46452 0.73552 0.0
C378 C 0.16828 0.48153 0.74811 0.0
C379 C 0.11448 0.52819 0.79339 0.0
C380 C 0.11 0.55447 0.82698 0.0
C381 C 0.16378 0.50423 0.78269 0.0
C382 C 0.15489 0.55352 0.85096 0.0
C383 C 0.20473 0.52935 0.84048 0.0
H384 H 0.96941 0.31105 0.2929 0.0
H385 H 0.12616 0.25766 0.25161 0.0
H386 H 0.11204 0.16613 0.27791 0.0
H387 H 0.05157 0.09952 0.30641 0.0
H388 H 0.89071 0.14772 0.34331 0.0
H389 H 0.91016 0.2436 0.32556 0.0
C390 C 1.00084 0.27956 0.29047 0.0
C391 C 0.04889 0.29078 0.27056 0.0
C392 C 0.99136 0.22622 0.30444 0.0
C393 C 0.08899 0.24968 0.26687 0.0
C394 C 0.08082 0.19742 0.28177 0.0
C395 C 0.02067 0.13075 0.31081 0.0
C396 C 0.96939 0.11604 0.32559 0.0
C397 C 0.03152 0.18487 0.2996 0.0
C398 C 0.93044 0.15772 0.3318 0.0
C399 C 0.94148 0.21249 0.32149 0.0
H400 H 0.40403 0.05488 0.82423 0.0
H401 H 0.37517 0.87919 0.82055 0.0
H402 H 0.28258 0.89509 0.79601 0.0
H403 H 0.21464 0.95897 0.76899 0.0
H404 H 0.2423 0.13461 0.77457 0.0
H405 H 0.33115 0.11902 0.80481 0.0
C406 C 0.37692 0.02015 0.81876 0.0
C407 C 0.39628 0.96593 0.82392 0.0
C408 C 0.32418 0.0297 0.80445 0.0
C409 C 0.36089 0.92122 0.81705 0.0
C410 C 0.30828 0.93034 0.80264 0.0
C411 C 0.24002 0.9937 0.77729 0.0
C412 C 0.22283 0.04781 0.7693 0.0
C413 C 0.29028 0.98431 0.79516 0.0
C414 C 0.25515 0.09271 0.78049 0.0
C415 C 0.30579 0.08374 0.79767 0.0
H416 H 0.48283 0.4051 0.28774 0.0
H417 H 0.57916 0.33852 0.37562 0.0
H418 H 0.54865 0.24478 0.35983 0.0
H419 H 0.50523 0.18168 0.31518 0.0
H420 H 0.41437 0.25043 0.22568 0.0
H421 H 0.43126 0.34378 0.24807 0.0
C422 C 0.49669 0.37007 0.3037 0.0
C423 C 0.53405 0.37824 0.33224 0.0
C424 C 0.47994 0.31688 0.29404 0.0
C425 C 0.55068 0.33295 0.35333 0.0
C426 C 0.53347 0.27947 0.34418 0.0
C427 C 0.48794 0.21726 0.30138 0.0
C428 C 0.45847 0.20993 0.26904 0.0
C429 C 0.4996 0.27085 0.31381 0.0
C430 C 0.43693 0.25573 0.2507 0.0
C431 C 0.44687 0.30889 0.26338 0.0
H432 H 0.15799 0.26996 0.15069 0.0
H433 H 0.27387 0.40141 0.17279 0.0
H434 H 0.35007 0.33682 0.16853 0.0
H435 H 0.3841 0.24229 0.16267 0.0
H436 H 0.2692 0.10922 0.14324 0.0
H437 H 0.19316 0.17509 0.14138 0.0
C438 C 0.19995 0.28465 0.15402 0.0
C439 C 0.20977 0.34076 0.16212 0.0
C440 C 0.24411 0.24687 0.15199 0.0
C441 C 0.26464 0.35866 0.16664 0.0
C442 C 0.3085 0.32166 0.16421 0.0
C443 C 0.34255 0.22755 0.15767 0.0
C444 C 0.33276 0.17054 0.1533 0.0
C445 C 0.29873 0.26554 0.15751 0.0
C446 C 0.27839 0.15271 0.14655 0.0
C447 C 0.23465 0.19042 0.14575 0.0
H448 H 0.25959 0.15112 0.65473 0.0
H449 H 0.11549 0.2539 0.64311 0.0
H450 H 0.17328 0.33568 0.63875 0.0
H451 H 0.2641 0.37975 0.64323 0.0
H452 H 0.40919 0.27828 0.65284 0.0
H453 H 0.35202 0.1951 0.65237 0.0
C454 C 0.2409 0.19129 0.65068 0.0
C455 C 0.18302 0.19588 0.64938 0.0
C456 C 0.27463 0.23885 0.64786 0.0
C457 C 0.15976 0.24857 0.64407 0.0
C458 C 0.19283 0.29573 0.6417 0.0
C459 C 0.28339 0.33944 0.64449 0.0
C460 C 0.34101 0.33564 0.64815 0.0
C461 C 0.25024 0.29156 0.64421 0.0
C462 C 0.36505 0.28279 0.64972 0.0
C463 C 0.33227 0.235 0.64977 0.0
H464 H 0.8806 0.74977 0.38953 0.0
H465 H 0.76609 0.88456 0.40057 0.0
H466 H 0.68985 0.81892 0.40579 0.0
H467 H 0.65482 0.72342 0.40181 0.0
H468 H 0.77015 0.58943 0.38961 0.0
H469 H 0.8467 0.6546 0.39065 0.0
C470 C 0.83907 0.7649 0.39347 0.0
C471 C 0.82918 0.82209 0.39442 0.0
C472 C 0.79537 0.727 0.39614 0.0
C473 C 0.77504 0.84079 0.39979 0.0
C474 C 0.7313 0.80325 0.40264 0.0
C475 C 0.69674 0.70836 0.40008 0.0
C476 C 0.7065 0.65152 0.39545 0.0
C477 C 0.74084 0.74626 0.40014 0.0
C478 C 0.76121 0.6329 0.39302 0.0
C479 C 0.80515 0.67018 0.39351 0.0
H480 H 0.64931 0.77966 0.90017 0.0
H481 H 0.76463 0.91572 0.89475 0.0
H482 H 0.84119 0.85246 0.90268 0.0
H483 H 0.87626 0.75849 0.90449 0.0
H484 H 0.76281 0.62094 0.90783 0.0
H485 H 0.68504 0.68479 0.90827 0.0
C486 C 0.69112 0.79551 0.90139 0.0
C487 C 0.70105 0.85235 0.89641 0.0
C488 C 0.7355 0.75863 0.9055 0.0
C489 C 0.75561 0.87214 0.89804 0.0
C490 C 0.7996 0.836 0.90262 0.0
C491 C 0.83459 0.74233 0.90597 0.0
C492 C 0.82553 0.68496 0.90585 0.0
C493 C 0.79013 0.77911 0.90536 0.0
C494 C 0.77114 0.66492 0.90799 0.0
C495 C 0.72653 0.70143 0.90794 0.0
H496 H 0.02766 0.58536 0.97793 0.0
H497 H 0.92803 0.44183 0.95455 0.0
H498 H 0.94615 0.40537 1.01501 0.0
H499 H 0.99043 0.41446 0.07516 0.0
H500 H 0.09247 0.55698 0.09661 0.0
H501 H 0.07277 0.59362 0.03669 0.0
C502 C 0.00996 0.54602 0.98595 0.0
C503 C 0.97644 0.51659 0.96164 0.0
C504 C 0.02068 0.52514 1.02068 0.0
C505 C 0.95415 0.46546 0.9726 0.0
C506 C 0.96428 0.4446 1.00728 0.0
C507 C 0.00793 0.45366 0.0667 0.0
C508 C 0.04279 0.48294 0.09033 0.0
C509 C 0.99733 0.47419 0.03168 0.0
C510 C 0.06573 0.53344 0.07887 0.0
C511 C 0.05452 0.55451 0.04458 0.0
H512 H 0.08334 0.99168 0.57681 0.0
H513 H 0.94235 0.09577 0.59524 0.0
H514 H 0.90892 0.07775 0.5342 0.0
H515 H 0.91951 0.03189 0.47512 0.0
H516 H 0.05843 0.9246 0.45844 0.0
H517 H 0.09306 0.94496 0.51881 0.0
C518 C 0.04525 0.01038 0.56754 0.0
C519 C 0.0156 0.04508 0.59065 0.0
C520 C 0.02598 0.9996 0.53247 0.0
C521 C 0.96607 0.06869 0.57814 0.0
C522 C 0.94696 0.05863 0.54312 0.0
C523 C 0.95756 0.01349 0.48471 0.0
C524 C 0.98647 0.977 0.46239 0.0
C525 C 0.97664 0.02428 0.51995 0.0
C526 C 0.03536 0.95273 0.47523 0.0
C527 C 0.05519 0.96427 0.50975 0.0
H528 H 0.48945 0.91833 0.97451 0.0
H529 H 0.58372 0.06757 0.95794 0.0
H530 H 0.567 0.09548 1.02 0.0
H531 H 0.52705 0.07743 0.07929 0.0
H532 H 0.43473 0.92726 0.09737 0.0
H533 H 0.44986 0.89968 0.0349 0.0
C534 C 0.50573 0.95719 0.98446 0.0
C535 C 0.53758 0.9909 0.96157 0.0
C536 C 0.49696 0.9726 1.02066 0.0
C537 C 0.55915 0.04079 0.97501 0.0
C538 C 0.54973 0.05678 1.01054 0.0
C539 C 0.51041 0.03848 0.06973 0.0
C540 C 0.4798 1.00461 0.09322 0.0
C541 C 0.51913 0.02285 0.03372 0.0
C542 C 0.45863 0.95426 0.08008 0.0
C543 C 0.46702 0.93849 0.04421 0.0
H544 H 0.60538 0.50377 0.48627 0.0
H545 H 0.4434 0.55465 0.45108 0.0
H546 H 0.40927 0.5458 0.51243 0.0
H547 H 0.42439 0.52332 0.57592 0.0
H548 H 0.58532 0.47155 0.61234 0.0
H549 H 0.62079 0.4819 0.55098 0.0
C550 C 0.56254 0.51253 0.492 0.0
C551 C 0.5271 0.52976 0.46388 0.0
C552 C 0.54299 0.50782 0.52771 0.0
C553 C 0.47178 0.54142 0.47202 0.0
C554 C 0.45213 0.53649 0.5072 0.0
C555 C 0.46742 0.51474 0.57066 0.0
C556 C 0.50203 0.49675 0.59895 0.0
C557 C 0.48733 0.51996 0.53526 0.0
C558 C 0.55762 0.48561 0.59126 0.0
C559 C 0.57792 0.49124 0.55607 0.0
loop_
_geom_bond_atom_site_label_1
_geom_bond_atom_site_label_2
_geom_bond_distance
_geom_bond_site_symmetry_2
_ccdc_geom_bond_type
Fe0 O2 1.918 . S
Fe0 O5 1.997 . S
Fe0 O6 2.002 . S
Fe0 O11 1.976 . S
Fe0 O14 1.996 1_455 S
Fe1 O2 1.918 . S
Fe1 O9 1.997 . S
Fe1 O12 1.996 . S
Fe1 O16 1.976 . S
Fe1 O19 2.002 . S
O2 Fe0 1.918 . S
O2 Fe1 1.918 . S
O2 Fe3 1.918 . S
Fe3 O2 1.918 . S
Fe3 O4 2.002 . S
Fe3 O13 1.976 1_455 S
Fe3 O17 1.996 . S
Fe3 O20 1.997 . S
O4 Fe3 2.002 . S
O4 C21 1.295 . S
O5 Fe0 1.997 . S
O5 C21 1.235 . S
O6 Fe0 2.002 . S
O6 C7 1.295 . S
C7 O6 1.295 . S
C7 O9 1.235 . S
C8 O13 1.287 . S
C8 O14 1.255 . S
O9 Fe1 1.997 . S
O9 C7 1.235 . S
C10 O16 1.287 . S
C10 O17 1.255 . S
O11 Fe0 1.976 . S
O11 C18 1.287 . S
O12 Fe1 1.996 . S
O12 C18 1.255 . S
O13 Fe3 1.976 1_655 S
O13 C8 1.287 . S
O14 Fe0 1.996 1_655 S
O14 C8 1.255 . S
C15 O19 1.295 . S
C15 O20 1.235 . S
O16 Fe1 1.976 . S
O16 C10 1.287 . S
O17 Fe3 1.996 . S
O17 C10 1.255 . S
C18 O11 1.287 . S
C18 O12 1.255 . S
O19 Fe1 2.002 . S
O19 C15 1.295 . S
O20 Fe3 1.997 . S
O20 C15 1.235 . S
C21 O4 1.295 . S
C21 O5 1.235 . S
Fe22 O24 1.918 . S
Fe22 O27 1.997 . S
Fe22 O28 2.002 . S
Fe22 O33 1.976 1_455 S
Fe22 O36 1.996 . S
Fe23 O24 1.918 . S
Fe23 O31 1.997 . S
Fe23 O34 1.996 1_455 S
Fe23 O38 1.976 1_545 S
Fe23 O41 2.002 . S
O24 Fe22 1.918 . S
O24 Fe23 1.918 . S
O24 Fe25 1.918 . S
Fe25 O24 1.918 . S
Fe25 O26 2.002 . S
Fe25 O35 1.976 . S
Fe25 O39 1.996 1_545 S
Fe25 O42 1.997 . S
O26 Fe25 2.002 . S
O26 C43 1.295 . S
O27 Fe22 1.997 . S
O27 C43 1.235 . S
O28 Fe22 2.002 . S
O28 C29 1.295 . S
C29 O28 1.295 . S
C29 O31 1.235 . S
C30 O35 1.287 . S
C30 O36 1.255 . S
O31 Fe23 1.997 . S
O31 C29 1.235 . S
C32 O38 1.287 . S
C32 O39 1.255 . S
O33 Fe22 1.976 1_655 S
O33 C40 1.287 . S
O34 Fe23 1.996 1_655 S
O34 C40 1.255 . S
O35 Fe25 1.976 . S
O35 C30 1.287 . S
O36 Fe22 1.996 . S
O36 C30 1.255 . S
C37 O41 1.295 . S
C37 O42 1.235 . S
O38 Fe23 1.976 1_565 S
O38 C32 1.287 . S
O39 Fe25 1.996 1_565 S
O39 C32 1.255 . S
C40 O33 1.287 . S
C40 O34 1.255 . S
O41 Fe23 2.002 . S
O41 C37 1.295 . S
O42 Fe25 1.997 . S
O42 C37 1.235 . S
C43 O26 1.295 . S
C43 O27 1.235 . S
Fe44 O46 1.918 . S
Fe44 O49 1.997 . S
Fe44 O50 2.002 . S
Fe44 O55 1.976 . S
Fe44 O58 1.996 1_545 S
Fe45 O46 1.918 . S
Fe45 O53 1.997 . S
Fe45 O56 1.996 . S
Fe45 O60 1.976 . S
Fe45 O63 2.002 . S
O46 Fe44 1.918 . S
O46 Fe45 1.918 . S
O46 Fe47 1.918 . S
Fe47 O46 1.918 . S
Fe47 O48 2.002 . S
Fe47 O57 1.976 1_545 S
Fe47 O61 1.996 . S
Fe47 O64 1.997 . S
O48 Fe47 2.002 . S
O48 C65 1.295 . S
O49 Fe44 1.997 . S
O49 C65 1.235 . S
O50 Fe44 2.002 . S
O50 C51 1.295 . S
C51 O50 1.295 . S
C51 O53 1.235 . S
C52 O57 1.287 . S
C52 O58 1.255 . S
O53 Fe45 1.997 . S
O53 C51 1.235 . S
C54 O60 1.287 . S
C54 O61 1.255 . S
O55 Fe44 1.976 . S
O55 C62 1.287 . S
O56 Fe45 1.996 . S
O56 C62 1.255 . S
O57 Fe47 1.976 1_565 S
O57 C52 1.287 . S
O58 Fe44 1.996 1_565 S
O58 C52 1.255 . S
C59 O63 1.295 . S
C59 O64 1.235 . S
O60 Fe45 1.976 . S
O60 C54 1.287 . S
O61 Fe47 1.996 . S
O61 C54 1.255 . S
C62 O55 1.287 . S
C62 O56 1.255 . S
O63 Fe45 2.002 . S
O63 C59 1.295 . S
O64 Fe47 1.997 . S
O64 C59 1.235 . S
C65 O48 1.295 . S
C65 O49 1.235 . S
Fe66 O68 1.918 . S
Fe66 O71 1.997 . S
Fe66 O72 2.002 . S
Fe66 O77 1.976 . S
Fe66 O80 1.996 . S
Fe67 O68 1.918 . S
Fe67 O75 1.997 . S
Fe67 O78 1.996 . S
Fe67 O82 1.976 . S
Fe67 O85 2.002 . S
O68 Fe66 1.918 . S
O68 Fe67 1.918 . S
O68 Fe69 1.918 . S
Fe69 O68 1.918 . S
Fe69 O70 2.002 . S
Fe69 O79 1.976 . S
Fe69 O83 1.996 . S
Fe69 O86 1.997 . S
O70 Fe69 2.002 . S
O70 C87 1.295 . S
O71 Fe66 1.997 . S
O71 C87 1.235 . S
O72 Fe66 2.002 . S
O72 C73 1.295 . S
C73 O72 1.295 . S
C73 O75 1.235 . S
C74 O79 1.287 . S
C74 O80 1.255 . S
O75 Fe67 1.997 . S
O75 C73 1.235 . S
C76 O82 1.287 . S
C76 O83 1.255 . S
O77 Fe66 1.976 . S
O77 C84 1.287 . S
O78 Fe67 1.996 . S
O78 C84 1.255 . S
O79 Fe69 1.976 . S
O79 C74 1.287 . S
O80 Fe66 1.996 . S
O80 C74 1.255 . S
C81 O85 1.295 . S
C81 O86 1.235 . S
O82 Fe67 1.976 . S
O82 C76 1.287 . S
O83 Fe69 1.996 . S
O83 C76 1.255 . S
C84 O77 1.287 . S
C84 O78 1.255 . S
O85 Fe67 2.002 . S
O85 C81 1.295 . S
O86 Fe69 1.997 . S
O86 C81 1.235 . S
C87 O70 1.295 . S
C87 O71 1.235 . S
Fe88 O90 1.918 . S
Fe88 O93 1.997 . S
Fe88 O94 2.002 . S
Fe88 O99 1.976 . S
Fe88 O102 1.996 . S
Fe89 O90 1.918 . S
Fe89 O97 1.997 . S
Fe89 O100 1.996 . S
Fe89 O104 1.976 . S
Fe89 O107 2.002 . S
O90 Fe88 1.918 . S
O90 Fe89 1.918 . S
O90 Fe91 1.918 . S
Fe91 O90 1.918 . S
Fe91 O92 2.002 . S
Fe91 O101 1.976 . S
Fe91 O105 1.996 . S
Fe91 O108 1.997 . S
O92 Fe91 2.002 . S
O92 C109 1.295 . S
O93 Fe88 1.997 . S
O93 C109 1.235 . S
O94 Fe88 2.002 . S
O94 C95 1.295 . S
C95 O94 1.295 . S
C95 O97 1.235 . S
C96 O101 1.287 . S
C96 O102 1.255 . S
O97 Fe89 1.997 . S
O97 C95 1.235 . S
C98 O104 1.287 . S
C98 O105 1.255 . S
O99 Fe88 1.976 . S
O99 C106 1.287 . S
O100 Fe89 1.996 . S
O100 C106 1.255 . S
O101 Fe91 1.976 . S
O101 C96 1.287 . S
O102 Fe88 1.996 . S
O102 C96 1.255 . S
C103 O107 1.295 . S
C103 O108 1.235 . S
O104 Fe89 1.976 . S
O104 C98 1.287 . S
O105 Fe91 1.996 . S
O105 C98 1.255 . S
C106 O99 1.287 . S
C106 O100 1.255 . S
O107 Fe89 2.002 . S
O107 C103 1.295 . S
O108 Fe91 1.997 . S
O108 C103 1.235 . S
C109 O92 1.295 . S
C109 O93 1.235 . S
Fe110 O112 1.918 . S
Fe110 O115 1.997 . S
Fe110 O116 2.002 . S
Fe110 O121 1.976 1_655 S
Fe110 O124 1.996 . S
Fe111 O112 1.918 . S
Fe111 O119 1.997 . S
Fe111 O122 1.996 1_655 S
Fe111 O126 1.976 . S
Fe111 O129 2.002 . S
O112 Fe110 1.918 . S
O112 Fe111 1.918 . S
O112 Fe113 1.918 . S
Fe113 O112 1.918 . S
Fe113 O114 2.002 . S
Fe113 O123 1.976 . S
Fe113 O127 1.996 . S
Fe113 O130 1.997 . S
O114 Fe113 2.002 . S
O114 C131 1.295 . S
O115 Fe110 1.997 . S
O115 C131 1.235 . S
O116 Fe110 2.002 . S
O116 C117 1.295 . S
C117 O116 1.295 . S
C117 O119 1.235 . S
C118 O123 1.287 . S
C118 O124 1.255 . S
O119 Fe111 1.997 . S
O119 C117 1.235 . S
C120 O126 1.287 . S
C120 O127 1.255 . S
O121 Fe110 1.976 1_455 S
O121 C128 1.287 . S
O122 Fe111 1.996 1_455 S
O122 C128 1.255 . S
O123 Fe113 1.976 . S
O123 C118 1.287 . S
O124 Fe110 1.996 . S
O124 C118 1.255 . S
C125 O129 1.295 . S
C125 O130 1.235 . S
O126 Fe111 1.976 . S
O126 C120 1.287 . S
O127 Fe113 1.996 . S
O127 C120 1.255 . S
C128 O121 1.287 . S
C128 O122 1.255 . S
O129 Fe111 2.002 . S
O129 C125 1.295 . S
O130 Fe113 1.997 . S
O130 C125 1.235 . S
C131 O114 1.295 . S
C131 O115 1.235 . S
Fe132 O134 1.918 . S
Fe132 O137 1.997 . S
Fe132 O138 2.002 . S
Fe132 O143 1.976 1_655 S
Fe132 O146 1.996 1_565 S
Fe133 O134 1.918 . S
Fe133 O141 1.997 . S
Fe133 O144 1.996 1_655 S
Fe133 O148 1.976 . S
Fe133 O151 2.002 . S
O134 Fe132 1.918 . S
O134 Fe133 1.918 . S
O134 Fe135 1.918 . S
Fe135 O134 1.918 . S
Fe135 O136 2.002 . S
Fe135 O145 1.976 1_565 S
Fe135 O149 1.996 . S
Fe135 O152 1.997 . S
O136 Fe135 2.002 . S
O136 C153 1.295 . S
O137 Fe132 1.997 . S
O137 C153 1.235 . S
O138 Fe132 2.002 . S
O138 C139 1.295 . S
C139 O138 1.295 . S
C139 O141 1.235 . S
C140 O145 1.287 . S
C140 O146 1.255 . S
O141 Fe133 1.997 . S
O141 C139 1.235 . S
C142 O148 1.287 . S
C142 O149 1.255 . S
O143 Fe132 1.976 1_455 S
O143 C150 1.287 . S
O144 Fe133 1.996 1_455 S
O144 C150 1.255 . S
O145 Fe135 1.976 1_545 S
O145 C140 1.287 . S
O146 Fe132 1.996 1_545 S
O146 C140 1.255 . S
C147 O151 1.295 . S
C147 O152 1.235 . S
O148 Fe133 1.976 . S
O148 C142 1.287 . S
O149 Fe135 1.996 . S
O149 C142 1.255 . S
C150 O143 1.287 . S
C150 O144 1.255 . S
O151 Fe133 2.002 . S
O151 C147 1.295 . S
O152 Fe135 1.997 . S
O152 C147 1.235 . S
C153 O136 1.295 . S
C153 O137 1.235 . S
Fe154 O156 1.918 . S
Fe154 O159 1.997 . S
Fe154 O160 2.002 . S
Fe154 O165 1.976 . S
Fe154 O168 1.996 1_565 S
Fe155 O156 1.918 . S
Fe155 O163 1.997 . S
Fe155 O166 1.996 . S
Fe155 O170 1.976 . S
Fe155 O173 2.002 . S
O156 Fe154 1.918 . S
O156 Fe155 1.918 . S
O156 Fe157 1.918 . S
Fe157 O156 1.918 . S
Fe157 O158 2.002 . S
Fe157 O167 1.976 1_565 S
Fe157 O171 1.996 . S
Fe157 O174 1.997 . S
O158 Fe157 2.002 . S
O158 C175 1.295 . S
O159 Fe154 1.997 . S
O159 C175 1.235 . S
O160 Fe154 2.002 . S
O160 C161 1.295 . S
C161 O160 1.295 . S
C161 O163 1.235 . S
C162 O167 1.287 . S
C162 O168 1.255 . S
O163 Fe155 1.997 . S
O163 C161 1.235 . S
C164 O170 1.287 . S
C164 O171 1.255 . S
O165 Fe154 1.976 . S
O165 C172 1.287 . S
O166 Fe155 1.996 . S
O166 C172 1.255 . S
O167 Fe157 1.976 1_545 S
O167 C162 1.287 . S
O168 Fe154 1.996 1_545 S
O168 C162 1.255 . S
C169 O173 1.295 . S
C169 O174 1.235 . S
O170 Fe155 1.976 . S
O170 C164 1.287 . S
O171 Fe157 1.996 . S
O171 C164 1.255 . S
C172 O165 1.287 . S
C172 O166 1.255 . S
O173 Fe155 2.002 . S
O173 C169 1.295 . S
O174 Fe157 1.997 . S
O174 C169 1.235 . S
C175 O158 1.295 . S
C175 O159 1.235 . S
H176 C182 0.930 . S
H177 C185 0.930 . S
H178 C186 0.930 . S
H179 C187 0.930 . S
H180 C190 0.930 . S
H181 C191 0.930 . S
C182 H176 0.930 . S
C182 C183 1.355 . S
C182 C184 1.415 . S
C183 C182 1.355 . S
C183 C185 1.419 . S
C184 C182 1.415 . S
C184 C189 1.425 . S
C184 C191 1.409 . S
C185 H177 0.930 . S
C185 C183 1.419 . S
C185 C186 1.362 . S
C186 H178 0.930 . S
C186 C185 1.362 . S
C186 C189 1.409 . S
C187 H179 0.930 . S
C187 C188 1.355 . S
C187 C189 1.415 . S
C188 C187 1.355 . S
C188 C190 1.419 . S
C189 C184 1.425 . S
C189 C186 1.409 . S
C189 C187 1.415 . S
C190 H180 0.930 . S
C190 C188 1.419 . S
C190 C191 1.362 . S
C191 H181 0.930 . S
C191 C184 1.409 . S
C191 C190 1.362 . S
H192 C198 0.930 . S
H193 C201 0.930 . S
H194 C202 0.930 . S
H195 C203 0.930 . S
H196 C206 0.930 . S
H197 C207 0.930 . S
C198 H192 0.930 . S
C198 C199 1.355 . S
C198 C200 1.415 . S
C199 C198 1.355 . S
C199 C201 1.419 . S
C200 C198 1.415 . S
C200 C205 1.422 1_655 S
C200 C207 1.409 . S
C201 H193 0.930 . S
C201 C199 1.419 . S
C201 C202 1.362 1_655 S
C202 H194 0.930 . S
C202 C201 1.362 1_455 S
C202 C205 1.409 . S
C203 H195 0.930 . S
C203 C204 1.355 . S
C203 C205 1.418 . S
C204 C203 1.355 . S
C204 C206 1.419 1_455 S
C205 C200 1.422 1_455 S
C205 C202 1.409 . S
C205 C203 1.418 . S
C206 H196 0.930 . S
C206 C204 1.419 1_655 S
C206 C207 1.362 . S
C207 H197 0.930 . S
C207 C200 1.409 . S
C207 C206 1.362 . S
H208 C214 0.930 . S
H209 C217 0.930 . S
H210 C218 0.930 . S
H211 C219 0.930 . S
H212 C222 0.930 . S
H213 C223 0.930 . S
C214 H208 0.930 . S
C214 C215 1.355 . S
C214 C216 1.415 . S
C215 C214 1.355 . S
C215 C217 1.419 1_545 S
C216 C214 1.415 . S
C216 C221 1.425 1_545 S
C216 C223 1.409 . S
C217 H209 0.930 . S
C217 C215 1.419 1_565 S
C217 C218 1.362 . S
C218 H210 0.930 . S
C218 C217 1.362 . S
C218 C221 1.409 . S
C219 H211 0.930 . S
C219 C220 1.355 . S
C219 C221 1.415 . S
C220 C219 1.355 . S
C220 C222 1.419 1_565 S
C221 C216 1.425 1_565 S
C221 C218 1.409 . S
C221 C219 1.415 . S
C222 H212 0.930 . S
C222 C220 1.419 1_545 S
C222 C223 1.362 . S
C223 H213 0.930 . S
C223 C216 1.409 . S
C223 C222 1.362 . S
H224 C230 0.930 . S
H225 C233 0.930 . S
H226 C234 0.930 . S
H227 C235 0.930 . S
H228 C238 0.930 . S
H229 C239 0.930 . S
C230 H224 0.930 . S
C230 C231 1.355 . S
C230 C232 1.415 . S
C231 C230 1.355 . S
C231 C233 1.419 . S
C232 C230 1.415 . S
C232 C237 1.425 . S
C232 C239 1.409 . S
C233 H225 0.930 . S
C233 C231 1.419 . S
C233 C234 1.362 . S
C234 H226 0.930 . S
C234 C233 1.362 . S
C234 C237 1.409 . S
C235 H227 0.930 . S
C235 C236 1.355 . S
C235 C237 1.415 . S
C236 C235 1.355 . S
C236 C238 1.419 . S
C237 C232 1.425 . S
C237 C234 1.409 . S
C237 C235 1.415 . S
C238 H228 0.930 . S
C238 C236 1.419 . S
C238 C239 1.362 . S
C239 H229 0.930 . S
C239 C232 1.409 . S
C239 C238 1.362 . S
H240 C246 0.930 . S
H241 C249 0.930 . S
H242 C250 0.930 . S
H243 C251 0.930 . S
H244 C254 0.930 . S
H245 C255 0.930 . S
C246 H240 0.930 . S
C246 C247 1.355 . S
C246 C248 1.415 . S
C247 C246 1.355 . S
C247 C249 1.419 . S
C248 C246 1.415 . S
C248 C253 1.425 . S
C248 C255 1.409 . S
C249 H241 0.930 . S
C249 C247 1.419 . S
C249 C250 1.362 . S
C250 H242 0.930 . S
C250 C249 1.362 . S
C250 C253 1.409 . S
C251 H243 0.930 . S
C251 C252 1.355 . S
C251 C253 1.415 . S
C252 C251 1.355 . S
C252 C254 1.419 . S
C253 C248 1.425 . S
C253 C250 1.409 . S
C253 C251 1.415 . S
C254 H244 0.930 . S
C254 C252 1.419 . S
C254 C255 1.362 . S
C255 H245 0.930 . S
C255 C248 1.409 . S
C255 C254 1.362 . S
H256 C262 0.930 . S
H257 C265 0.930 . S
H258 C266 0.930 . S
H259 C267 0.930 . S
H260 C270 0.930 . S
H261 C271 0.930 . S
C262 H256 0.930 . S
C262 C263 1.355 . S
C262 C264 1.415 . S
C263 C262 1.355 . S
C263 C265 1.419 1_455 S
C264 C262 1.415 . S
C264 C269 1.425 1_455 S
C264 C271 1.409 . S
C265 H257 0.930 . S
C265 C263 1.419 1_655 S
C265 C266 1.362 . S
C266 H258 0.930 . S
C266 C265 1.362 . S
C266 C269 1.409 . S
C267 H259 0.930 . S
C267 C268 1.355 . S
C267 C269 1.415 . S
C268 C267 1.355 . S
C268 C270 1.419 1_655 S
C269 C264 1.425 1_655 S
C269 C266 1.409 . S
C269 C267 1.415 . S
C270 H260 0.930 . S
C270 C268 1.419 1_455 S
C270 C271 1.362 . S
C271 H261 0.930 . S
C271 C264 1.409 . S
C271 C270 1.362 . S
H272 C278 0.930 . S
H273 C281 0.930 1_565 S
H274 C282 0.930 . S
H275 C283 0.930 . S
H276 C286 0.930 . S
H277 C287 0.930 . S
C278 H272 0.930 . S
C278 C279 1.355 . S
C278 C280 1.415 . S
C279 C278 1.355 . S
C279 C281 1.419 . S
C280 C278 1.415 . S
C280 C285 1.425 1_545 S
C280 C287 1.409 . S
C281 H273 0.930 1_545 S
C281 C279 1.419 . S
C281 C282 1.362 1_545 S
C282 H274 0.930 . S
C282 C281 1.362 1_565 S
C282 C285 1.409 . S
C283 H275 0.930 . S
C283 C284 1.355 . S
C283 C285 1.415 . S
C284 C283 1.355 . S
C284 C286 1.419 1_565 S
C285 C280 1.425 1_565 S
C285 C282 1.409 . S
C285 C283 1.415 . S
C286 H276 0.930 . S
C286 C284 1.419 1_545 S
C286 C287 1.362 . S
C287 H277 0.930 . S
C287 C280 1.409 . S
C287 C286 1.362 . S
H288 C294 0.930 . S
H289 C297 0.930 . S
H290 C298 0.930 . S
H291 C299 0.930 . S
H292 C302 0.930 . S
H293 C303 0.930 . S
C294 H288 0.930 . S
C294 C295 1.355 . S
C294 C296 1.415 . S
C295 C294 1.355 . S
C295 C297 1.419 . S
C296 C294 1.415 . S
C296 C301 1.425 . S
C296 C303 1.409 . S
C297 H289 0.930 . S
C297 C295 1.419 . S
C297 C298 1.362 . S
C298 H290 0.930 . S
C298 C297 1.362 . S
C298 C301 1.409 . S
C299 H291 0.930 . S
C299 C300 1.355 . S
C299 C301 1.415 . S
C300 C299 1.355 . S
C300 C302 1.419 . S
C301 C296 1.425 . S
C301 C298 1.409 . S
C301 C299 1.415 . S
C302 H292 0.930 . S
C302 C300 1.419 . S
C302 C303 1.362 . S
C303 H293 0.930 . S
C303 C296 1.409 . S
C303 C302 1.362 . S
H304 C310 0.930 . S
H305 C313 0.930 . S
H306 C314 0.930 . S
H307 C315 0.930 . S
H308 C318 0.930 . S
H309 C319 0.930 . S
C310 H304 0.930 . S
C310 C311 1.355 . S
C310 C312 1.415 . S
C311 C310 1.355 . S
C311 C313 1.419 . S
C312 C310 1.415 . S
C312 C317 1.425 . S
C312 C319 1.409 . S
C313 H305 0.930 . S
C313 C311 1.419 . S
C313 C314 1.362 . S
C314 H306 0.930 . S
C314 C313 1.362 . S
C314 C317 1.409 . S
C315 H307 0.930 . S
C315 C316 1.355 . S
C315 C317 1.415 . S
C316 C315 1.355 . S
C316 C318 1.419 . S
C317 C312 1.425 . S
C317 C314 1.409 . S
C317 C315 1.415 . S
C318 H308 0.930 . S
C318 C316 1.419 . S
C318 C319 1.362 . S
C319 H309 0.930 . S
C319 C312 1.409 . S
C319 C318 1.362 . S
H320 C326 0.930 . S
H321 C329 0.930 . S
H322 C330 0.930 . S
H323 C331 0.930 . S
H324 C334 0.930 . S
H325 C335 0.930 . S
C326 H320 0.930 . S
C326 C327 1.355 . S
C326 C328 1.415 . S
C327 C326 1.355 . S
C327 C329 1.419 1_455 S
C328 C326 1.415 . S
C328 C333 1.425 1_455 S
C328 C335 1.409 . S
C329 H321 0.930 . S
C329 C327 1.419 1_655 S
C329 C330 1.362 . S
C330 H322 0.930 . S
C330 C329 1.362 . S
C330 C333 1.409 . S
C331 H323 0.930 . S
C331 C332 1.355 . S
C331 C333 1.415 . S
C332 C331 1.355 . S
C332 C334 1.419 1_655 S
C333 C328 1.425 1_655 S
C333 C330 1.409 . S
C333 C331 1.415 . S
C334 H324 0.930 . S
C334 C332 1.419 1_455 S
C334 C335 1.362 . S
C335 H325 0.930 . S
C335 C328 1.409 . S
C335 C334 1.362 . S
H336 C342 0.930 . S
H337 C345 0.930 . S
H338 C346 0.930 . S
H339 C347 0.930 . S
H340 C350 0.930 . S
H341 C351 0.930 . S
C342 H336 0.930 . S
C342 C343 1.355 . S
C342 C344 1.415 . S
C343 C342 1.355 . S
C343 C345 1.419 . S
C344 C342 1.415 . S
C344 C349 1.425 . S
C344 C351 1.409 1_545 S
C345 H337 0.930 . S
C345 C343 1.419 . S
C345 C346 1.362 . S
C346 H338 0.930 . S
C346 C345 1.362 . S
C346 C349 1.409 . S
C347 H339 0.930 . S
C347 C348 1.355 1_545 S
C347 C349 1.415 . S
C348 C347 1.355 1_565 S
C348 C350 1.419 . S
C349 C344 1.425 . S
C349 C346 1.409 . S
C349 C347 1.415 . S
C350 H340 0.930 . S
C350 C348 1.419 . S
C350 C351 1.362 . S
C351 H341 0.930 . S
C351 C344 1.409 1_565 S
C351 C350 1.362 . S
H352 C358 0.930 . S
H353 C361 0.930 . S
H354 C362 0.930 . S
H355 C363 0.930 . S
H356 C366 0.930 . S
H357 C367 0.930 . S
C358 H352 0.930 . S
C358 C359 1.355 . S
C358 C360 1.415 . S
C359 C358 1.355 . S
C359 C361 1.419 . S
C360 C358 1.415 . S
C360 C365 1.425 . S
C360 C367 1.409 . S
C361 H353 0.930 . S
C361 C359 1.419 . S
C361 C362 1.362 . S
C362 H354 0.930 . S
C362 C361 1.362 . S
C362 C365 1.409 . S
C363 H355 0.930 . S
C363 C364 1.355 . S
C363 C365 1.415 . S
C364 C363 1.355 . S
C364 C366 1.419 . S
C365 C360 1.425 . S
C365 C362 1.409 . S
C365 C363 1.415 . S
C366 H356 0.930 . S
C366 C364 1.419 . S
C366 C367 1.362 . S
C367 H357 0.930 . S
C367 C360 1.409 . S
C367 C366 1.362 . S
H368 C374 0.930 . S
H369 C377 0.930 . S
H370 C378 0.930 . S
H371 C379 0.930 . S
H372 C382 0.930 . S
H373 C383 0.930 . S
C374 H368 0.930 . S
C374 C375 1.355 . S
C374 C376 1.415 . S
C375 C374 1.355 . S
C375 C377 1.419 . S
C376 C374 1.415 . S
C376 C381 1.425 . S
C376 C383 1.409 . S
C377 H369 0.930 . S
C377 C375 1.419 . S
C377 C378 1.362 . S
C378 H370 0.930 . S
C378 C377 1.362 . S
C378 C381 1.409 . S
C379 H371 0.930 . S
C379 C380 1.355 . S
C379 C381 1.415 . S
C380 C379 1.355 . S
C380 C382 1.419 . S
C381 C376 1.425 . S
C381 C378 1.409 . S
C381 C379 1.415 . S
C382 H372 0.930 . S
C382 C380 1.419 . S
C382 C383 1.362 . S
C383 H373 0.930 . S
C383 C376 1.409 . S
C383 C382 1.362 . S
H384 C390 0.930 . S
H385 C393 0.930 . S
H386 C394 0.930 . S
H387 C395 0.930 1_455 S
H388 C398 0.930 . S
H389 C399 0.930 . S
C390 H384 0.930 . S
C390 C391 1.355 1_655 S
C390 C392 1.415 . S
C391 C390 1.355 1_455 S
C391 C393 1.419 . S
C392 C390 1.415 . S
C392 C397 1.425 1_655 S
C392 C399 1.409 . S
C393 H385 0.930 . S
C393 C391 1.419 . S
C393 C394 1.362 . S
C394 H386 0.930 . S
C394 C393 1.362 . S
C394 C397 1.409 . S
C395 H387 0.930 1_655 S
C395 C396 1.355 . S
C395 C397 1.415 1_655 S
C396 C395 1.355 . S
C396 C398 1.419 . S
C397 C392 1.425 1_455 S
C397 C394 1.409 . S
C397 C395 1.415 1_455 S
C398 H388 0.930 . S
C398 C396 1.419 . S
C398 C399 1.362 . S
C399 H389 0.930 . S
C399 C392 1.409 . S
C399 C398 1.362 . S
H400 C406 0.930 . S
H401 C409 0.930 . S
H402 C410 0.930 . S
H403 C411 0.930 . S
H404 C414 0.930 . S
H405 C415 0.930 . S
C406 H400 0.930 . S
C406 C407 1.355 . S
C406 C408 1.415 . S
C407 C406 1.355 . S
C407 C409 1.419 . S
C408 C406 1.415 . S
C408 C413 1.425 . S
C408 C415 1.409 1_565 S
C409 H401 0.930 . S
C409 C407 1.419 . S
C409 C410 1.362 . S
C410 H402 0.930 . S
C410 C409 1.362 . S
C410 C413 1.409 . S
C411 H403 0.930 . S
C411 C412 1.355 1_565 S
C411 C413 1.415 . S
C412 C411 1.355 1_545 S
C412 C414 1.419 . S
C413 C408 1.425 . S
C413 C410 1.409 . S
C413 C411 1.415 . S
C414 H404 0.930 . S
C414 C412 1.419 . S
C414 C415 1.362 . S
C415 H405 0.930 . S
C415 C408 1.409 1_545 S
C415 C414 1.362 . S
H416 C422 0.930 . S
H417 C425 0.930 . S
H418 C426 0.930 . S
H419 C427 0.930 . S
H420 C430 0.930 . S
H421 C431 0.930 . S
C422 H416 0.930 . S
C422 C423 1.355 . S
C422 C424 1.415 . S
C423 C422 1.355 . S
C423 C425 1.419 . S
C424 C422 1.415 . S
C424 C429 1.425 . S
C424 C431 1.409 . S
C425 H417 0.930 . S
C425 C423 1.419 . S
C425 C426 1.362 . S
C426 H418 0.930 . S
C426 C425 1.362 . S
C426 C429 1.409 . S
C427 H419 0.930 . S
C427 C428 1.355 . S
C427 C429 1.415 . S
C428 C427 1.355 . S
C428 C430 1.419 . S
C429 C424 1.425 . S
C429 C426 1.409 . S
C429 C427 1.415 . S
C430 H420 0.930 . S
C430 C428 1.419 . S
C430 C431 1.362 . S
C431 H421 0.930 . S
C431 C424 1.409 . S
C431 C430 1.362 . S
H432 C438 0.930 . S
H433 C441 0.930 . S
H434 C442 0.930 . S
H435 C443 0.930 . S
H436 C446 0.930 . S
H437 C447 0.930 . S
C438 H432 0.930 . S
C438 C439 1.355 . S
C438 C440 1.415 . S
C439 C438 1.355 . S
C439 C441 1.419 . S
C440 C438 1.415 . S
C440 C445 1.425 . S
C440 C447 1.409 . S
C441 H433 0.930 . S
C441 C439 1.419 . S
C441 C442 1.362 . S
C442 H434 0.930 . S
C442 C441 1.362 . S
C442 C445 1.409 . S
C443 H435 0.930 . S
C443 C444 1.355 . S
C443 C445 1.415 . S
C444 C443 1.355 . S
C444 C446 1.419 . S
C445 C440 1.425 . S
C445 C442 1.409 . S
C445 C443 1.415 . S
C446 H436 0.930 . S
C446 C444 1.419 . S
C446 C447 1.362 . S
C447 H437 0.930 . S
C447 C440 1.409 . S
C447 C446 1.362 . S
H448 C454 0.930 . S
H449 C457 0.930 . S
H450 C458 0.930 . S
H451 C459 0.930 . S
H452 C462 0.930 . S
H453 C463 0.930 . S
C454 H448 0.930 . S
C454 C455 1.355 . S
C454 C456 1.415 . S
C455 C454 1.355 . S
C455 C457 1.419 . S
C456 C454 1.415 . S
C456 C461 1.425 . S
C456 C463 1.409 . S
C457 H449 0.930 . S
C457 C455 1.419 . S
C457 C458 1.362 . S
C458 H450 0.930 . S
C458 C457 1.362 . S
C458 C461 1.409 . S
C459 H451 0.930 . S
C459 C460 1.355 . S
C459 C461 1.415 . S
C460 C459 1.355 . S
C460 C462 1.419 . S
C461 C456 1.425 . S
C461 C458 1.409 . S
C461 C459 1.415 . S
C462 H452 0.930 . S
C462 C460 1.419 . S
C462 C463 1.362 . S
C463 H453 0.930 . S
C463 C456 1.409 . S
C463 C462 1.362 . S
H464 C470 0.930 . S
H465 C473 0.930 . S
H466 C474 0.930 . S
H467 C475 0.930 . S
H468 C478 0.930 . S
H469 C479 0.930 . S
C470 H464 0.930 . S
C470 C471 1.355 . S
C470 C472 1.415 . S
C471 C470 1.355 . S
C471 C473 1.419 . S
C472 C470 1.415 . S
C472 C477 1.425 . S
C472 C479 1.409 . S
C473 H465 0.930 . S
C473 C471 1.419 . S
C473 C474 1.362 . S
C474 H466 0.930 . S
C474 C473 1.362 . S
C474 C477 1.409 . S
C475 H467 0.930 . S
C475 C476 1.355 . S
C475 C477 1.415 . S
C476 C475 1.355 . S
C476 C478 1.419 . S
C477 C472 1.425 . S
C477 C474 1.409 . S
C477 C475 1.415 . S
C478 H468 0.930 . S
C478 C476 1.419 . S
C478 C479 1.362 . S
C479 H469 0.930 . S
C479 C472 1.409 . S
C479 C478 1.362 . S
H480 C486 0.930 . S
H481 C489 0.930 . S
H482 C490 0.930 . S
H483 C491 0.930 . S
H484 C494 0.930 . S
H485 C495 0.930 . S
C486 H480 0.930 . S
C486 C487 1.355 . S
C486 C488 1.415 . S
C487 C486 1.355 . S
C487 C489 1.419 . S
C488 C486 1.415 . S
C488 C493 1.425 . S
C488 C495 1.409 . S
C489 H481 0.930 . S
C489 C487 1.419 . S
C489 C490 1.362 . S
C490 H482 0.930 . S
C490 C489 1.362 . S
C490 C493 1.409 . S
C491 H483 0.930 . S
C491 C492 1.355 . S
C491 C493 1.415 . S
C492 C491 1.355 . S
C492 C494 1.419 . S
C493 C488 1.425 . S
C493 C490 1.409 . S
C493 C491 1.415 . S
C494 H484 0.930 . S
C494 C492 1.419 . S
C494 C495 1.362 . S
C495 H485 0.930 . S
C495 C488 1.409 . S
C495 C494 1.362 . S
H496 C502 0.930 . S
H497 C505 0.930 . S
H498 C506 0.930 . S
H499 C507 0.930 . S
H500 C510 0.930 . S
H501 C511 0.930 . S
C502 H496 0.930 . S
C502 C503 1.355 . S
C502 C504 1.415 1_655 S
C503 C502 1.355 . S
C503 C505 1.419 . S
C504 C502 1.415 1_455 S
C504 C509 1.425 1_456 S
C504 C511 1.409 1_556 S
C505 H497 0.930 . S
C505 C503 1.419 . S
C505 C506 1.362 . S
C506 H498 0.930 . S
C506 C505 1.362 . S
C506 C509 1.410 1_556 S
C507 H499 0.930 . S
C507 C508 1.355 . S
C507 C509 1.414 1_455 S
C508 C507 1.355 . S
C508 C510 1.419 . S
C509 C504 1.425 1_654 S
C509 C506 1.410 1_554 S
C509 C507 1.414 1_655 S
C510 H500 0.930 . S
C510 C508 1.419 . S
C510 C511 1.362 . S
C511 H501 0.930 . S
C511 C504 1.409 1_554 S
C511 C510 1.362 . S
H512 C518 0.930 . S
H513 C521 0.930 . S
H514 C522 0.930 . S
H515 C523 0.930 . S
H516 C526 0.930 . S
H517 C527 0.930 . S
C518 H512 0.930 . S
C518 C519 1.355 1_565 S
C518 C520 1.415 . S
C519 C518 1.355 1_545 S
C519 C521 1.419 . S
C520 C518 1.415 . S
C520 C525 1.425 1_465 S
C520 C527 1.408 1_455 S
C521 H513 0.930 . S
C521 C519 1.419 . S
C521 C522 1.362 . S
C522 H514 0.930 . S
C522 C521 1.362 . S
C522 C525 1.409 1_455 S
C523 H515 0.930 . S
C523 C524 1.355 1_545 S
C523 C525 1.415 . S
C524 C523 1.355 1_565 S
C524 C526 1.419 . S
C525 C520 1.425 1_645 S
C525 C522 1.409 1_655 S
C525 C523 1.415 . S
C526 H516 0.930 . S
C526 C524 1.419 . S
C526 C527 1.362 . S
C527 H517 0.930 . S
C527 C520 1.408 1_655 S
C527 C526 1.362 . S
H528 C534 0.930 . S
H529 C537 0.930 . S
H530 C538 0.930 . S
H531 C539 0.930 . S
H532 C542 0.930 . S
H533 C543 0.930 . S
C534 H528 0.930 . S
C534 C535 1.355 . S
C534 C536 1.415 . S
C535 C534 1.355 . S
C535 C537 1.419 1_565 S
C536 C534 1.415 . S
C536 C541 1.425 1_566 S
C536 C543 1.409 1_556 S
C537 H529 0.930 . S
C537 C535 1.419 1_545 S
C537 C538 1.362 . S
C538 H530 0.930 . S
C538 C537 1.362 . S
C538 C541 1.409 1_556 S
C539 H531 0.930 . S
C539 C540 1.355 . S
C539 C541 1.415 . S
C540 C539 1.355 . S
C540 C542 1.419 1_545 S
C541 C536 1.425 1_544 S
C541 C538 1.409 1_554 S
C541 C539 1.415 . S
C542 H532 0.930 . S
C542 C540 1.419 1_565 S
C542 C543 1.362 . S
C543 H533 0.930 . S
C543 C536 1.409 1_554 S
C543 C542 1.362 . S
H544 C550 0.930 . S
H545 C553 0.930 . S
H546 C554 0.930 . S
H547 C555 0.930 . S
H548 C558 0.930 . S
H549 C559 0.930 . S
C550 H544 0.930 . S
C550 C551 1.355 . S
C550 C552 1.415 . S
C551 C550 1.355 . S
C551 C553 1.419 . S
C552 C550 1.415 . S
C552 C557 1.425 . S
C552 C559 1.409 . S
C553 H545 0.930 . S
C553 C551 1.419 . S
C553 C554 1.362 . S
C554 H546 0.930 . S
C554 C553 1.362 . S
C554 C557 1.409 . S
C555 H547 0.930 . S
C555 C556 1.355 . S
C555 C557 1.415 . S
C556 C555 1.355 . S
C556 C558 1.419 . S
C557 C552 1.425 . S
C557 C554 1.409 . S
C557 C555 1.415 . S
C558 H548 0.930 . S
C558 C556 1.419 . S
C558 C559 1.362 . S
C559 H549 0.930 . S
C559 C552 1.409 . S
C559 C558 1.362 . S
C183 C98 1.278 . S
C188 C15 1.293 . S
C199 C120 1.332 . S
C204 C29 1.290 . S
C215 C65 1.295 . S
C220 C150 1.277 . S
C231 C81 1.288 . S
C236 C162 1.280 . S
C247 C95 1.317 . S
C252 C8 1.282 . S
C263 C32 1.319 . S
C268 C117 1.275 . S
C279 C62 1.280 . S
C284 C153 1.288 . S
C295 C74 1.283 . S
C300 C169 1.282 . S
C311 C125 1.279 . S
C316 C76 1.286 . S
C327 C10 1.275 . S
C332 C139 1.284 . S
C343 C40 1.330 . S
C348 C175 1.299 . S
C359 C52 1.268 . S
C364 C103 1.309 . S
C375 C87 1.285 . S
C380 C128 1.274 . S
C391 C21 1.337 . S
C396 C140 1.320 . S
C407 C164 1.331 . S
C412 C37 1.301 . S
C423 C106 1.329 . S
C428 C51 1.332 . S
C439 C7 1.748 . S
C444 C59 1.735 . S
C455 C43 1.735 . S
C460 C73 1.748 . S
C471 C147 1.725 . S
C476 C109 1.757 . S
C487 C161 1.741 . S
C492 C131 1.736 . S
C503 C118 1.450 . S
C508 C18 1.448 . S
C519 C30 1.425 . S
C524 C142 1.427 . S
C535 C172 1.438 . S
C540 C54 1.434 . S
C551 C96 1.450 . S
C556 C84 1.447 . S
